# Generated by pormake.
# Topology vbe, (5)-cn, num edge types: 1
# Building blocks:
#     Node 0, Type 0, BuildingBlock: XOMCOT_clean_sbu_1, # of connection points: 5
#     Node 1, Type 0, BuildingBlock: XOMCOT_clean_sbu_1, # of connection points: 5
#     Node 2, Type 0, BuildingBlock: XOMCOT_clean_sbu_1, # of connection points: 5
#     Node 3, Type 0, BuildingBlock: XOMCOT_clean_sbu_1, # of connection points: 5
#     Node 4, Type 0, BuildingBlock: XOMCOT_clean_sbu_1, # of connection points: 5
#     Node 5, Type 0, BuildingBlock: XOMCOT_clean_sbu_1, # of connection points: 5
#     Node 6, Type 0, BuildingBlock: XOMCOT_clean_sbu_1, # of connection points: 5
#     Node 7, Type 0, BuildingBlock: XOMCOT_clean_sbu_1, # of connection points: 5
#     Node 8, Type 0, BuildingBlock: XOMCOT_clean_sbu_1, # of connection points: 5
#     Node 9, Type 0, BuildingBlock: XOMCOT_clean_sbu_1, # of connection points: 5
#     Node 10, Type 0, BuildingBlock: XOMCOT_clean_sbu_1, # of connection points: 5
#     Node 11, Type 0, BuildingBlock: XOMCOT_clean_sbu_1, # of connection points: 5
#     Node 12, Type 0, BuildingBlock: XOMCOT_clean_sbu_1, # of connection points: 5
#     Node 13, Type 0, BuildingBlock: XOMCOT_clean_sbu_1, # of connection points: 5
#     Node 14, Type 0, BuildingBlock: XOMCOT_clean_sbu_1, # of connection points: 5
#     Node 15, Type 0, BuildingBlock: XOMCOT_clean_sbu_1, # of connection points: 5
#     Edge 16, Type (0, 0), BuildingBlock: XIVTED_clean_linker_0, # of connection points: 2
#     Edge 17, Type (0, 0), BuildingBlock: XIVTED_clean_linker_0, # of connection points: 2
#     Edge 18, Type (0, 0), BuildingBlock: XIVTED_clean_linker_0, # of connection points: 2
#     Edge 19, Type (0, 0), BuildingBlock: XIVTED_clean_linker_0, # of connection points: 2
#     Edge 20, Type (0, 0), BuildingBlock: XIVTED_clean_linker_0, # of connection points: 2
#     Edge 21, Type (0, 0), BuildingBlock: XIVTED_clean_linker_0, # of connection points: 2
#     Edge 22, Type (0, 0), BuildingBlock: XIVTED_clean_linker_0, # of connection points: 2
#     Edge 23, Type (0, 0), BuildingBlock: XIVTED_clean_linker_0, # of connection points: 2
#     Edge 24, Type (0, 0), BuildingBlock: XIVTED_clean_linker_0, # of connection points: 2
#     Edge 25, Type (0, 0), BuildingBlock: XIVTED_clean_linker_0, # of connection points: 2
#     Edge 26, Type (0, 0), BuildingBlock: XIVTED_clean_linker_0, # of connection points: 2
#     Edge 27, Type (0, 0), BuildingBlock: XIVTED_clean_linker_0, # of connection points: 2
#     Edge 28, Type (0, 0), BuildingBlock: XIVTED_clean_linker_0, # of connection points: 2
#     Edge 29, Type (0, 0), BuildingBlock: XIVTED_clean_linker_0, # of connection points: 2
#     Edge 30, Type (0, 0), BuildingBlock: XIVTED_clean_linker_0, # of connection points: 2
#     Edge 31, Type (0, 0), BuildingBlock: XIVTED_clean_linker_0, # of connection points: 2
#     Edge 32, Type (0, 0), BuildingBlock: XIVTED_clean_linker_0, # of connection points: 2
#     Edge 33, Type (0, 0), BuildingBlock: XIVTED_clean_linker_0, # of connection points: 2
#     Edge 34, Type (0, 0), BuildingBlock: XIVTED_clean_linker_0, # of connection points: 2
#     Edge 35, Type (0, 0), BuildingBlock: XIVTED_clean_linker_0, # of connection points: 2
#     Edge 36, Type (0, 0), BuildingBlock: XIVTED_clean_linker_0, # of connection points: 2
#     Edge 37, Type (0, 0), BuildingBlock: XIVTED_clean_linker_0, # of connection points: 2
#     Edge 38, Type (0, 0), BuildingBlock: XIVTED_clean_linker_0, # of connection points: 2
#     Edge 39, Type (0, 0), BuildingBlock: XIVTED_clean_linker_0, # of connection points: 2
#     Edge 40, Type (0, 0), BuildingBlock: XIVTED_clean_linker_0, # of connection points: 2
#     Edge 41, Type (0, 0), BuildingBlock: XIVTED_clean_linker_0, # of connection points: 2
#     Edge 42, Type (0, 0), BuildingBlock: XIVTED_clean_linker_0, # of connection points: 2
#     Edge 43, Type (0, 0), BuildingBlock: XIVTED_clean_linker_0, # of connection points: 2
#     Edge 44, Type (0, 0), BuildingBlock: XIVTED_clean_linker_0, # of connection points: 2
#     Edge 45, Type (0, 0), BuildingBlock: XIVTED_clean_linker_0, # of connection points: 2
#     Edge 46, Type (0, 0), BuildingBlock: XIVTED_clean_linker_0, # of connection points: 2
#     Edge 47, Type (0, 0), BuildingBlock: XIVTED_clean_linker_0, # of connection points: 2
#     Edge 48, Type (0, 0), BuildingBlock: XIVTED_clean_linker_0, # of connection points: 2
#     Edge 49, Type (0, 0), BuildingBlock: XIVTED_clean_linker_0, # of connection points: 2
#     Edge 50, Type (0, 0), BuildingBlock: XIVTED_clean_linker_0, # of connection points: 2
#     Edge 51, Type (0, 0), BuildingBlock: XIVTED_clean_linker_0, # of connection points: 2
#     Edge 52, Type (0, 0), BuildingBlock: XIVTED_clean_linker_0, # of connection points: 2
#     Edge 53, Type (0, 0), BuildingBlock: XIVTED_clean_linker_0, # of connection points: 2
#     Edge 54, Type (0, 0), BuildingBlock: XIVTED_clean_linker_0, # of connection points: 2
#     Edge 55, Type (0, 0), BuildingBlock: XIVTED_clean_linker_0, # of connection points: 2
# Relax obj value: 0.487
# Max RMSD: 0.270
# Mean RMSD: 0.270
data_MOF--net-vbe--node1-XOMCOT_clean_sbu_1--edge1-XIVTED_clean_linker_0
_symmetry_space_group_name_H-M    P1
_symmetry_Int_Tables_number       1
_symmetry_cell_setting            triclinic
loop_
_symmetry_equiv_pos_as_xyz
'x, y, z'
_cell_length_a     38.964444
_cell_length_b     41.753796
_cell_length_c     50.529297
_cell_angle_alpha  90.212582
_cell_angle_beta   90.134124
_cell_angle_gamma 89.937503
loop_
_atom_site_label
_atom_site_type_symbol
_atom_site_fract_x
_atom_site_fract_y
_atom_site_fract_z
_atom_type_partial_charge
C0 C 0.0917 0.1332 0.3298 0.0
C1 C 0.10201 0.14697 0.30649 0.0
N2 N 0.12204 0.17238 0.3121 0.0
N3 N 0.10403 0.15009 0.35057 0.0
C4 C 0.1244 0.17251 0.33901 0.0
H5 H 0.07439 0.11313 0.33148 0.0
Co6 Co 0.08885 0.14121 0.38629 0.0
C7 C 0.08609 0.21637 0.38788 0.0
O8 O 0.09286 0.22197 0.36297 0.0
N9 N 0.0736 0.13167 0.42102 0.0
C10 C 0.03971 0.13403 0.45635 0.0
C11 C 0.05015 0.14956 0.434 0.0
C12 C 0.07618 0.10459 0.43572 0.0
N13 N 0.0557 0.10554 0.45738 0.0
O14 O 0.13572 0.1348 0.39731 0.0
H15 H 0.03793 0.17058 0.42604 0.0
H16 H 0.09054 0.08367 0.42958 0.0
O17 O 0.08631 0.18749 0.39657 0.0
C18 C 0.13954 0.10564 0.38972 0.0
O19 O 0.11364 0.09141 0.37782 0.0
N20 N 0.04316 0.14181 0.37499 0.0
C21 C -0.00579 0.12161 0.33949 0.0
C22 C 0.00461 0.15383 0.33969 0.0
C23 C 0.02936 0.16366 0.35803 0.0
C24 C 0.02809 0.11258 0.37818 0.0
C25 C 0.00241 0.10242 0.36114 0.0
H26 H 0.04123 0.18666 0.35532 0.0
H27 H 0.03936 0.09494 0.3911 0.0
H28 H 0.13991 0.18932 0.3501 0.0
H29 H 0.09322 0.13999 0.28698 0.0
H30 H 0.01901 0.14159 0.46921 0.0
H31 H -0.00154 0.16955 0.32334 0.0
H32 H -0.00571 0.07761 0.36182 0.0
C33 C 0.33168 0.90642 0.33832 0.0
C34 C 0.3258 0.8879 0.31604 0.0
N35 N 0.34096 0.85907 0.31931 0.0
N36 N 0.35043 0.88957 0.35584 0.0
C37 C 0.35552 0.86084 0.3437 0.0
H38 H 0.3232 0.93082 0.34138 0.0
Co39 Co 0.36775 0.90463 0.38879 0.0
C40 C 0.3732 0.83255 0.40829 0.0
O41 O 0.34346 0.81788 0.40965 0.0
N42 N 0.38539 0.91821 0.42224 0.0
C43 C 0.39627 0.91802 0.46563 0.0
C44 C 0.37711 0.90452 0.44557 0.0
C45 C 0.4091 0.94054 0.42894 0.0
N46 N 0.41651 0.94066 0.45505 0.0
O47 O 0.32168 0.90825 0.40238 0.0
H48 H 0.35861 0.88544 0.44784 0.0
H49 H 0.42159 0.95615 0.41513 0.0
O50 O 0.37434 0.8615 0.40063 0.0
C51 C 0.31639 0.93856 0.4024 0.0
O52 O 0.34107 0.95753 0.39437 0.0
N53 N 0.41107 0.90588 0.37431 0.0
C54 C 0.47012 0.91926 0.34568 0.0
C55 C 0.46137 0.88743 0.35206 0.0
C56 C 0.4317 0.88127 0.36657 0.0
C57 C 0.41907 0.93659 0.36815 0.0
C58 C 0.4496 0.944 0.35575 0.0
H59 H 0.42418 0.85677 0.36962 0.0
H60 H 0.40137 0.95567 0.37291 0.0
H61 H 0.3705 0.84177 0.35231 0.0
H62 H 0.31145 0.89535 0.29878 0.0
H63 H 0.39531 0.91162 0.48635 0.0
H64 H 0.47542 0.86718 0.34422 0.0
H65 H 0.45541 0.96897 0.35239 0.0
C66 C 0.6429 0.90459 0.16362 0.0
C67 C 0.64509 0.88765 0.18685 0.0
N68 N 0.63968 0.85644 0.18153 0.0
N69 N 0.63626 0.88443 0.14333 0.0
C70 C 0.63469 0.8551 0.15493 0.0
H71 H 0.64417 0.93035 0.162 0.0
Co72 Co 0.62301 0.89918 0.10916 0.0
C73 C 0.61037 0.84093 0.0749 0.0
O74 O 0.61083 0.85683 0.05257 0.0
N75 N 0.6093 0.91516 0.07529 0.0
C76 C 0.61136 0.93777 0.03538 0.0
C77 C 0.63001 0.92264 0.05474 0.0
C78 C 0.57792 0.92539 0.0673 0.0
N79 N 0.57857 0.93983 0.04346 0.0
O80 O 0.67069 0.90521 0.09997 0.0
H81 H 0.65722 0.91795 0.05377 0.0
H82 H 0.55482 0.92282 0.07878 0.0
O83 O 0.61996 0.85455 0.09646 0.0
C84 C 0.67455 0.93488 0.106 0.0
O85 O 0.64792 0.95089 0.11488 0.0
N86 N 0.57804 0.89789 0.12042 0.0
C87 C 0.53342 0.90349 0.16209 0.0
C88 C 0.53835 0.87361 0.14998 0.0
C89 C 0.56108 0.87128 0.12887 0.0
C90 C 0.56893 0.92756 0.12914 0.0
C91 C 0.54601 0.93102 0.1498 0.0
H92 H 0.56856 0.84778 0.12248 0.0
H93 H 0.58283 0.94835 0.12241 0.0
H94 H 0.62771 0.83348 0.14447 0.0
H95 H 0.64946 0.8978 0.20631 0.0
H96 H 0.62165 0.94776 0.01734 0.0
H97 H 0.52861 0.85193 0.15896 0.0
H98 H 0.54275 0.95455 0.15856 0.0
C99 C 0.89519 0.12904 0.17308 0.0
C100 C 0.88512 0.143 0.19651 0.0
N101 N 0.8645 0.1681 0.1911 0.0
N102 N 0.88198 0.14552 0.15249 0.0
C103 C 0.86177 0.168 0.16425 0.0
H104 H 0.91254 0.10894 0.17127 0.0
Co105 Co 0.8935 0.13791 0.11593 0.0
C106 C 0.90591 0.21234 0.11874 0.0
O107 O 0.89278 0.2197 0.14178 0.0
N108 N 0.90463 0.13006 0.07984 0.0
C109 C 0.92795 0.13526 0.03991 0.0
C110 C 0.91728 0.15116 0.06216 0.0
C111 C 0.90672 0.10149 0.06713 0.0
N112 N 0.92196 0.10381 0.04316 0.0
O113 O 0.84592 0.14009 0.10641 0.0
H114 H 0.92088 0.17635 0.06545 0.0
H115 H 0.8989 0.0791 0.07592 0.0
O116 O 0.90445 0.18353 0.1101 0.0
C117 C 0.83847 0.11057 0.11042 0.0
O118 O 0.86213 0.09157 0.12028 0.0
N119 N 0.93929 0.13056 0.12526 0.0
C120 C 0.9933 0.10609 0.15436 0.0
C121 C 0.98653 0.13918 0.1546 0.0
C122 C 0.95904 0.151 0.13986 0.0
C123 C 0.94925 0.09951 0.12172 0.0
C124 C 0.97737 0.08716 0.13511 0.0
H125 H 0.95083 0.17518 0.1436 0.0
H126 H 0.93286 0.08281 0.11159 0.0
H127 H 0.84599 0.18461 0.15324 0.0
H128 H 0.89417 0.13619 0.21596 0.0
H129 H 0.94167 0.14594 0.02358 0.0
H130 H -0.00174 0.15484 0.16915 0.0
H131 H 0.98224 0.06163 0.13407 0.0
C132 C 0.85381 0.90838 0.67965 0.0
C133 C 0.8446 0.89017 0.70121 0.0
N134 N 0.85188 0.85937 0.69591 0.0
N135 N 0.86781 0.88961 0.6606 0.0
C136 C 0.86446 0.85953 0.67092 0.0
H137 H 0.84983 0.9339 0.67807 0.0
Co138 Co 0.88366 0.90458 0.62598 0.0
C139 C 0.92365 0.84575 0.63134 0.0
O140 O 0.93185 0.85663 0.65499 0.0
N141 N 0.89744 0.91852 0.59203 0.0
C142 C 0.90901 0.91736 0.54902 0.0
C143 C 0.89345 0.90149 0.56952 0.0
C144 C 0.91465 0.94514 0.58454 0.0
N145 N 0.92288 0.94468 0.5585 0.0
O146 O 0.83858 0.89782 0.61178 0.0
H147 H 0.88079 0.8785 0.56824 0.0
H148 H 0.9227 0.96353 0.59834 0.0
O149 O 0.90183 0.86128 0.61721 0.0
C150 C 0.82848 0.92698 0.61405 0.0
O151 O 0.84771 0.94715 0.62752 0.0
N152 N 0.92672 0.91756 0.63908 0.0
C153 C 0.98546 0.95359 0.64994 0.0
C154 C 0.98646 0.92864 0.63136 0.0
C155 C 0.95683 0.91102 0.62612 0.0
C156 C 0.92526 0.94223 0.65668 0.0
C157 C 0.95427 0.96007 0.66277 0.0
H158 H 0.95757 0.89377 0.61014 0.0
H159 H 0.90118 0.94973 0.6649 0.0
H160 H 0.87022 0.83771 0.6603 0.0
H161 H 0.83385 0.89903 0.71958 0.0
H162 H 0.91041 0.90894 0.52878 0.0
H163 H 0.0097 0.92313 0.62056 0.0
H164 H 0.952 0.97872 0.67759 0.0
C165 C 0.61777 0.116 0.67545 0.0
C166 C 0.62707 0.13331 0.69768 0.0
N167 N 0.64141 0.161 0.68988 0.0
N168 N 0.62585 0.13279 0.65356 0.0
C169 C 0.64067 0.15988 0.66314 0.0
H170 H 0.60305 0.09405 0.67532 0.0
Co171 Co 0.60976 0.12422 0.61853 0.0
C172 C 0.60891 0.20046 0.6081 0.0
O173 O 0.63703 0.21715 0.61187 0.0
N174 N 0.5933 0.11649 0.58389 0.0
C175 C 0.56038 0.12112 0.54811 0.0
C176 C 0.57335 0.13664 0.56984 0.0
C177 C 0.59163 0.08849 0.57031 0.0
N178 N 0.57157 0.09066 0.54851 0.0
O179 O 0.65597 0.11791 0.60612 0.0
H180 H 0.56523 0.15982 0.57648 0.0
H181 H 0.60231 0.06627 0.57747 0.0
O182 O 0.6092 0.17029 0.61222 0.0
C183 C 0.65801 0.0879 0.61118 0.0
O184 O 0.63383 0.07504 0.62579 0.0
N185 N 0.56522 0.12457 0.63038 0.0
C186 C 0.50332 0.11122 0.65453 0.0
C187 C 0.51798 0.14197 0.65659 0.0
C188 C 0.54935 0.14811 0.6444 0.0
C189 C 0.55028 0.09532 0.62702 0.0
C190 C 0.51877 0.08848 0.63815 0.0
H191 H 0.56237 0.17037 0.64834 0.0
H192 H 0.564 0.07624 0.61723 0.0
H193 H 0.64853 0.17969 0.65096 0.0
H194 H 0.62047 0.12752 0.71791 0.0
H195 H 0.54122 0.13057 0.53468 0.0
H196 H 0.5074 0.15992 0.66977 0.0
H197 H 0.5085 0.06447 0.6363 0.0
C198 C 0.34226 0.1245 0.83892 0.0
C199 C 0.34086 0.14158 0.81575 0.0
N200 N 0.34945 0.17219 0.82088 0.0
N201 N 0.35169 0.14388 0.85907 0.0
C202 C 0.35564 0.17306 0.84741 0.0
H203 H 0.33854 0.09896 0.84055 0.0
Co204 Co 0.36462 0.12657 0.89266 0.0
C205 C 0.39771 0.17953 0.92438 0.0
O206 O 0.41027 0.158 0.94052 0.0
N207 N 0.37714 0.10787 0.92579 0.0
C208 C 0.37645 0.09387 0.96841 0.0
C209 C 0.36002 0.11109 0.94896 0.0
C210 C 0.40362 0.08819 0.93188 0.0
N211 N 0.40402 0.07954 0.95757 0.0
O212 O 0.31712 0.12673 0.90454 0.0
H213 H 0.33746 0.12578 0.95183 0.0
H214 H 0.42261 0.08026 0.91793 0.0
O215 O 0.37666 0.17087 0.90595 0.0
C216 C 0.3094 0.09722 0.90022 0.0
O217 O 0.33171 0.07937 0.88751 0.0
N218 N 0.40845 0.12112 0.87937 0.0
C219 C 0.45249 0.10864 0.83815 0.0
C220 C 0.45299 0.13869 0.85058 0.0
C221 C 0.43021 0.14463 0.87119 0.0
C222 C 0.41145 0.09071 0.86982 0.0
C223 C 0.43419 0.08364 0.84969 0.0
H224 H 0.42705 0.16896 0.87749 0.0
H225 H 0.39354 0.07249 0.8759 0.0
H226 H 0.36484 0.19404 0.85773 0.0
H227 H 0.33471 0.13192 0.7964 0.0
H228 H 0.36904 0.09268 0.989 0.0
H229 H 0.46687 0.15853 0.84194 0.0
H230 H 0.43297 0.06016 0.84053 0.0
C231 C 0.1426 0.89904 0.83153 0.0
C232 C 0.15553 0.88014 0.81142 0.0
N233 N 0.14671 0.84949 0.816 0.0
N234 N 0.1256 0.88059 0.84904 0.0
C235 C 0.12969 0.85031 0.83936 0.0
H236 H 0.14279 0.92492 0.83182 0.0
Co237 Co 0.0936 0.89604 0.87519 0.0
C238 C 0.06143 0.83072 0.87978 0.0
O239 O 0.04017 0.83758 0.86057 0.0
N240 N 0.06161 0.90961 0.9019 0.0
C241 C 0.0143 0.91035 0.92675 0.0
C242 C 0.03104 0.89528 0.90646 0.0
C243 C 0.06216 0.93418 0.9196 0.0
N244 N 0.0338 0.93488 0.93495 0.0
O245 O 0.1312 0.90283 0.9 0.0
H246 H 0.02023 0.87604 0.895 0.0
H247 H 0.08234 0.95174 0.92102 0.0
O248 O 0.08397 0.85125 0.88733 0.0
C249 C 0.13701 0.93239 0.89428 0.0
O250 O 0.11838 0.94557 0.87551 0.0
N251 N 0.05871 0.89852 0.8486 0.0
C252 C 0.05082 0.9316 0.80138 0.0
C253 C 0.05683 0.89857 0.80111 0.0
C254 C 0.06029 0.88232 0.82497 0.0
C255 C 0.04629 0.92929 0.84865 0.0
C256 C 0.04252 0.94634 0.82528 0.0
H257 H 0.06896 0.85793 0.82374 0.0
H258 H 0.04503 0.94334 0.8665 0.0
H259 H 0.11728 0.82953 0.84764 0.0
H260 H 0.16755 0.88874 0.79351 0.0
H261 H 0.98879 0.90489 0.93388 0.0
H262 H 0.06179 0.88592 0.78275 0.0
H263 H 0.03712 0.97177 0.82633 0.0
C264 C 0.63364 0.63376 0.33593 0.0
C265 C 0.63908 0.65137 0.31348 0.0
N266 N 0.63174 0.68238 0.31856 0.0
N267 N 0.62278 0.65309 0.35558 0.0
C268 C 0.62186 0.68271 0.34442 0.0
H269 H 0.63593 0.60804 0.33742 0.0
Co270 Co 0.60786 0.63562 0.38824 0.0
C271 C 0.56479 0.68323 0.4144 0.0
O272 O 0.54504 0.65888 0.42037 0.0
N273 N 0.59396 0.61716 0.42114 0.0
C274 C 0.59174 0.60864 0.46468 0.0
C275 C 0.60707 0.62596 0.4449 0.0
C276 C 0.57068 0.59425 0.42724 0.0
N277 N 0.5688 0.58869 0.45349 0.0
O278 O 0.65359 0.63939 0.40236 0.0
H279 H 0.62623 0.64436 0.4478 0.0
H280 H 0.55394 0.58281 0.41313 0.0
O281 O 0.59231 0.67854 0.40091 0.0
C282 C 0.66419 0.61077 0.39815 0.0
O283 O 0.64369 0.59045 0.38614 0.0
N284 N 0.56576 0.62733 0.37231 0.0
C285 C 0.53545 0.61043 0.32491 0.0
C286 C 0.53167 0.64167 0.33482 0.0
C287 C 0.54722 0.64978 0.3588 0.0
C288 C 0.56523 0.59604 0.36458 0.0
C289 C 0.54938 0.58686 0.34125 0.0
H290 H 0.54908 0.67485 0.36376 0.0
H291 H 0.58178 0.57883 0.37413 0.0
H292 H 0.6131 0.70384 0.35485 0.0
H293 H 0.64649 0.64145 0.29455 0.0
H294 H 0.59705 0.61069 0.48565 0.0
H295 H 0.52096 0.66046 0.32258 0.0
H296 H 0.55322 0.56259 0.33419 0.0
C297 C 0.84253 0.39525 0.34071 0.0
C298 C 0.83587 0.37748 0.31828 0.0
N299 N 0.83917 0.34606 0.324 0.0
N300 N 0.84985 0.37557 0.36101 0.0
C301 C 0.84698 0.3457 0.35027 0.0
H302 H 0.84343 0.42108 0.34167 0.0
Co303 Co 0.86669 0.38979 0.39468 0.0
C304 C 0.87035 0.31978 0.41878 0.0
O305 O 0.84625 0.29879 0.42409 0.0
N306 N 0.88284 0.40415 0.42862 0.0
C307 C 0.89598 0.4067 0.47166 0.0
C308 C 0.87997 0.38906 0.45219 0.0
C309 C 0.89843 0.43214 0.43506 0.0
N310 N 0.90802 0.43373 0.46071 0.0
O311 O 0.8213 0.40255 0.40511 0.0
H312 H 0.86743 0.3664 0.45536 0.0
H313 H 0.90185 0.45179 0.42157 0.0
O314 O 0.86079 0.34668 0.409 0.0
C315 C 0.82084 0.43225 0.39907 0.0
O316 O 0.84812 0.44472 0.38793 0.0
N317 N 0.91129 0.38209 0.38278 0.0
C318 C 0.96972 0.38563 0.3515 0.0
C319 C 0.95292 0.35619 0.35512 0.0
C320 C 0.92353 0.35495 0.37092 0.0
C321 C 0.92844 0.41023 0.38003 0.0
C322 C 0.95899 0.412 0.36634 0.0
H323 H 0.90935 0.33285 0.37177 0.0
H324 H 0.91644 0.43238 0.38526 0.0
H325 H 0.8523 0.3241 0.36124 0.0
H326 H 0.83013 0.38741 0.29906 0.0
H327 H 0.89924 0.39965 0.4921 0.0
H328 H 0.95999 0.33519 0.34373 0.0
H329 H 0.97109 0.4352 0.36419 0.0
C330 C 0.15511 0.3972 0.16127 0.0
C331 C 0.15906 0.37873 0.18358 0.0
N332 N 0.14623 0.3493 0.17876 0.0
N333 N 0.14001 0.3798 0.14197 0.0
C334 C 0.13499 0.3506 0.15329 0.0
H335 H 0.16188 0.42219 0.15967 0.0
Co336 Co 0.12472 0.39714 0.10898 0.0
C337 C 0.11156 0.33998 0.07312 0.0
O338 O 0.11452 0.35568 0.05083 0.0
N339 N 0.10917 0.41513 0.07615 0.0
C340 C 0.10972 0.4356 0.03537 0.0
C341 C 0.12869 0.42033 0.05442 0.0
C342 C 0.07826 0.42789 0.06953 0.0
N343 N 0.07799 0.4405 0.04491 0.0
O344 O 0.17171 0.4024 0.09789 0.0
H345 H 0.15518 0.41322 0.05215 0.0
H346 H 0.05621 0.42821 0.08243 0.0
O347 O 0.11955 0.35345 0.09507 0.0
C348 C 0.17633 0.432 0.10373 0.0
O349 O 0.15086 0.44815 0.11428 0.0
N350 N 0.08051 0.39652 0.122 0.0
C351 C 0.03616 0.39856 0.16416 0.0
C352 C 0.03873 0.37066 0.14881 0.0
C353 C 0.0613 0.37012 0.12754 0.0
C354 C 0.07389 0.42509 0.13399 0.0
C355 C 0.05146 0.42676 0.15516 0.0
H356 H 0.0662 0.34754 0.11814 0.0
H357 H 0.08919 0.44582 0.12926 0.0
H358 H 0.12181 0.33112 0.14352 0.0
H359 H 0.17027 0.38669 0.20207 0.0
H360 H 0.11897 0.44335 0.01625 0.0
H361 H 0.02664 0.34858 0.15504 0.0
H362 H 0.04999 0.44885 0.16642 0.0
C363 C 0.36611 0.62443 0.17621 0.0
C364 C 0.35763 0.64201 0.1983 0.0
N365 N 0.35791 0.6733 0.19203 0.0
N366 N 0.37306 0.64417 0.15576 0.0
C367 C 0.36562 0.67378 0.16585 0.0
H368 H 0.36604 0.59865 0.17534 0.0
Co369 Co 0.38664 0.63126 0.1202 0.0
C370 C 0.42524 0.69086 0.12757 0.0
O371 O 0.43279 0.67956 0.15114 0.0
N372 N 0.39826 0.61906 0.08569 0.0
C373 C 0.40842 0.62033 0.04251 0.0
C374 C 0.39438 0.63666 0.06358 0.0
C375 C 0.41399 0.59192 0.07756 0.0
N376 N 0.42106 0.59228 0.0514 0.0
O377 O 0.34052 0.63868 0.10846 0.0
H378 H 0.38303 0.66029 0.06298 0.0
H379 H 0.42099 0.57267 0.09079 0.0
O380 O 0.40426 0.67523 0.11266 0.0
C381 C 0.32993 0.60989 0.11189 0.0
O382 O 0.35096 0.58879 0.12234 0.0
N383 N 0.43053 0.61798 0.13105 0.0
C384 C 0.4922 0.59066 0.14719 0.0
C385 C 0.49195 0.61485 0.12802 0.0
C386 C 0.46067 0.62772 0.11974 0.0
C387 C 0.43031 0.59128 0.14634 0.0
C388 C 0.46067 0.57762 0.1551 0.0
H389 H 0.46077 0.64541 0.1042 0.0
H390 H 0.40653 0.57988 0.15138 0.0
H391 H 0.36674 0.69554 0.15438 0.0
H392 H 0.35135 0.63227 0.2175 0.0
H393 H 0.41055 0.62915 0.02247 0.0
H394 H 0.51562 0.62455 0.12026 0.0
H395 H 0.45901 0.55823 0.16918 0.0
C396 C 0.35704 0.39517 0.66694 0.0
C397 C 0.35258 0.37748 0.68943 0.0
N398 N 0.35516 0.34613 0.68333 0.0
N399 N 0.36246 0.37561 0.64608 0.0
C400 C 0.36131 0.34564 0.65675 0.0
H401 H 0.35798 0.421 0.66623 0.0
Co402 Co 0.37441 0.39332 0.61235 0.0
C403 C 0.41146 0.34303 0.58252 0.0
O404 O 0.42751 0.36593 0.5699 0.0
N405 N 0.38545 0.41216 0.57892 0.0
C406 C 0.38291 0.42355 0.53577 0.0
C407 C 0.36921 0.40544 0.55583 0.0
C408 C 0.40896 0.43456 0.57209 0.0
N409 N 0.40786 0.44193 0.54614 0.0
O410 O 0.32744 0.39064 0.60059 0.0
H411 H 0.34888 0.38804 0.55353 0.0
H412 H 0.42779 0.4446 0.58532 0.0
O413 O 0.38779 0.35015 0.59923 0.0
C414 C 0.31744 0.41869 0.6075 0.0
O415 O 0.33874 0.43689 0.62091 0.0
N416 N 0.41811 0.40066 0.62562 0.0
C417 C 0.45532 0.41626 0.67026 0.0
C418 C 0.45735 0.38523 0.65963 0.0
C419 C 0.43824 0.37778 0.63708 0.0
C420 C 0.42012 0.43177 0.63368 0.0
C421 C 0.43955 0.44034 0.6555 0.0
H422 H 0.43541 0.35293 0.63196 0.0
H423 H 0.40257 0.44935 0.62575 0.0
H424 H 0.36559 0.324 0.64542 0.0
H425 H 0.34931 0.38734 0.70909 0.0
H426 H 0.37502 0.42327 0.51521 0.0
H427 H 0.46934 0.36603 0.67069 0.0
H428 H 0.43701 0.46449 0.66317 0.0
C429 C 0.16809 0.63548 0.65345 0.0
C430 C 0.17455 0.65477 0.67502 0.0
N431 N 0.15301 0.67994 0.67431 0.0
N432 N 0.14284 0.64835 0.63852 0.0
C433 C 0.13389 0.67542 0.65209 0.0
H434 H 0.1811 0.61322 0.64922 0.0
Co435 Co 0.12536 0.6296 0.60639 0.0
C436 C 0.09643 0.68444 0.57428 0.0
O437 O 0.09226 0.66746 0.55265 0.0
N438 N 0.10799 0.61032 0.57427 0.0
C439 C 0.106 0.5909 0.533 0.0
C440 C 0.12513 0.60786 0.55102 0.0
C441 C 0.07802 0.59473 0.56934 0.0
N442 N 0.07638 0.58248 0.54458 0.0
O443 O 0.17066 0.63114 0.59105 0.0
H444 H 0.14996 0.61814 0.54693 0.0
H445 H 0.05734 0.59254 0.58338 0.0
O446 O 0.11142 0.67233 0.5945 0.0
C447 C 0.17998 0.60218 0.59549 0.0
O448 O 0.15895 0.58323 0.60826 0.0
N449 N 0.08389 0.62345 0.62293 0.0
C450 C 0.03779 0.60644 0.66159 0.0
C451 C 0.03739 0.63763 0.65132 0.0
C452 C 0.06085 0.64574 0.6316 0.0
C453 C 0.08206 0.59245 0.63104 0.0
C454 C 0.05842 0.58318 0.64975 0.0
H455 H 0.06251 0.67036 0.62537 0.0
H456 H 0.10025 0.57502 0.62385 0.0
H457 H 0.11393 0.69167 0.64584 0.0
H458 H 0.19336 0.65031 0.69038 0.0
H459 H 0.11371 0.58474 0.51306 0.0
H460 H 0.02173 0.65621 0.66022 0.0
H461 H 0.05884 0.55874 0.65692 0.0
C462 C 0.81654 0.63748 0.84826 0.0
C463 C 0.81182 0.65799 0.8273 0.0
N464 N 0.83458 0.68206 0.82935 0.0
N465 N 0.8419 0.64847 0.86414 0.0
C466 C 0.8527 0.67563 0.85172 0.0
H467 H 0.80219 0.61575 0.85144 0.0
Co468 Co 0.85697 0.62781 0.89615 0.0
C469 C 0.88514 0.68117 0.93121 0.0
O470 O 0.88018 0.66617 0.95362 0.0
N471 N 0.87195 0.60686 0.92816 0.0
C472 C 0.87095 0.5868 0.96909 0.0
C473 C 0.85343 0.6045 0.95073 0.0
C474 C 0.90109 0.59023 0.93376 0.0
N475 N 0.90097 0.57771 0.95844 0.0
O476 O 0.81097 0.63118 0.91051 0.0
H477 H 0.82884 0.61562 0.95429 0.0
H478 H 0.92236 0.58752 0.92028 0.0
O479 O 0.87375 0.66929 0.90949 0.0
C480 C 0.80038 0.60285 0.90473 0.0
O481 O 0.82107 0.58357 0.89183 0.0
N482 N 0.89864 0.61971 0.88036 0.0
C483 C 0.94653 0.60202 0.84309 0.0
C484 C 0.94837 0.63234 0.85499 0.0
C485 C 0.92387 0.64085 0.87381 0.0
C486 C 0.89889 0.58918 0.87079 0.0
C487 C 0.923 0.57963 0.85238 0.0
H488 H 0.92359 0.66506 0.8811 0.0
H489 H 0.87905 0.57258 0.87635 0.0
H490 H 0.8732 0.69062 0.85895 0.0
H491 H 0.79324 0.65517 0.81149 0.0
H492 H 0.86194 0.58079 0.98869 0.0
H493 H 0.96622 0.65025 0.84794 0.0
H494 H 0.92121 0.55593 0.84366 0.0
C495 C 0.61118 0.39872 0.82484 0.0
C496 C 0.61669 0.37931 0.80329 0.0
N497 N 0.62218 0.34926 0.81182 0.0
N498 N 0.61267 0.38126 0.84727 0.0
C499 C 0.61988 0.35103 0.83859 0.0
H500 H 0.60575 0.42405 0.82396 0.0
Co501 Co 0.60267 0.3979 0.88185 0.0
C502 C 0.59397 0.32956 0.90466 0.0
O503 O 0.62317 0.32487 0.91709 0.0
N504 N 0.59272 0.41361 0.91597 0.0
C505 C 0.5887 0.41661 0.95983 0.0
C506 C 0.60232 0.3998 0.93892 0.0
C507 C 0.57401 0.43935 0.92357 0.0
N508 N 0.57063 0.44148 0.95015 0.0
O509 O 0.64977 0.39369 0.89258 0.0
H510 H 0.61805 0.37862 0.9405 0.0
H511 H 0.56293 0.45628 0.90994 0.0
O512 O 0.58829 0.35574 0.89264 0.0
C513 C 0.66186 0.42009 0.88373 0.0
O514 O 0.64287 0.43689 0.86741 0.0
N515 N 0.5582 0.40726 0.87126 0.0
C516 C 0.4965 0.43142 0.85144 0.0
C517 C 0.49771 0.40163 0.86458 0.0
C518 C 0.52888 0.38992 0.87429 0.0
C519 C 0.55696 0.43729 0.86114 0.0
C520 C 0.52664 0.44997 0.85148 0.0
H521 H 0.52915 0.367 0.88394 0.0
H522 H 0.57999 0.45163 0.86048 0.0
H523 H 0.62202 0.33049 0.85147 0.0
H524 H 0.61617 0.38665 0.78277 0.0
H525 H 0.59116 0.4103 0.98049 0.0
H526 H 0.47535 0.38662 0.8667 0.0
H527 H 0.52823 0.47337 0.84262 0.0
H528 H 0.96252 0.05579 0.17891 0.0
H529 H 0.94927 0.13847 0.3 0.0
H530 H 0.046 0.12313 0.18798 0.0
H531 H 0.02889 0.0705 0.31995 0.0
H532 H 0.95371 0.12111 0.25353 0.0
H533 H 0.96169 0.04836 0.22648 0.0
C534 C 0.98203 0.06775 0.19059 0.0
C535 C 0.00396 0.09087 0.17942 0.0
C536 C 0.96935 0.10953 0.26848 0.0
C537 C 0.0025 0.08228 0.23365 0.0
C538 C 0.96671 0.11925 0.29478 0.0
C539 C 0.98853 0.10582 0.31375 0.0
C540 C -0.00568 0.08688 0.26139 0.0
C541 C 0.01122 0.0812 0.30597 0.0
C542 C 0.98109 0.06362 0.2178 0.0
C543 C 0.02827 0.10567 0.19587 0.0
N544 N 0.01423 0.07306 0.28013 0.0
N545 N 0.02621 0.10186 0.22246 0.0
H546 H 0.5605 0.86699 0.20115 0.0
H547 H 0.46958 0.97046 0.31106 0.0
H548 H 0.49183 0.94643 0.18727 0.0
H549 H 0.52679 0.88414 0.32907 0.0
H550 H 0.49335 0.97033 0.26762 0.0
H551 H 0.5579 0.87781 0.24855 0.0
C552 C 0.54409 0.88616 0.20817 0.0
C553 C 0.52562 0.90546 0.19041 0.0
C554 C 0.50103 0.95155 0.28115 0.0
C555 C 0.52411 0.91889 0.24426 0.0
C556 C 0.48782 0.95175 0.30652 0.0
C557 C 0.49439 0.92601 0.32377 0.0
C558 C 0.52021 0.92516 0.27268 0.0
C559 C 0.51901 0.90327 0.31597 0.0
C560 C 0.54334 0.89277 0.23512 0.0
C561 C 0.50601 0.93079 0.2004 0.0
N562 N 0.53014 0.90267 0.29056 0.0
N563 N 0.50577 0.93678 0.22673 0.0
H564 H 0.05067 0.92871 0.65375 0.0
H565 H 0.01384 0.98298 0.78312 0.0
H566 H -0.00567 0.01639 0.66652 0.0
H567 H 0.1037 0.92593 0.76652 0.0
H568 H 0.02105 1.00988 0.74091 0.0
H569 H 0.0895 0.94361 0.68882 0.0
C570 C 0.04703 0.95177 0.66319 0.0
C571 C 0.0172 0.96989 0.65898 0.0
C572 C 0.03982 0.99206 0.74668 0.0
C573 C 0.06019 0.98581 0.70036 0.0
C574 C 0.03539 0.97643 0.77071 0.0
C575 C 0.05702 0.95094 0.77752 0.0
C576 C 0.0654 0.98138 0.72908 0.0
C577 C 0.08515 0.94412 0.76115 0.0
C578 C 0.06932 0.9603 0.68355 0.0
C579 C 0.01531 1.00024 0.67097 0.0
N580 N 0.08804 0.95866 0.73735 0.0
N581 N 0.03545 1.00664 0.69224 0.0
H582 H 0.44638 0.14219 0.6737 0.0
H583 H 0.48617 0.06102 0.81134 0.0
H584 H 0.50658 0.05601 0.68293 0.0
H585 H 0.42961 0.14903 0.80065 0.0
H586 H 0.48429 0.05224 0.76339 0.0
H587 H 0.42544 0.13564 0.71882 0.0
C588 C 0.4542 0.12132 0.68489 0.0
C589 C 0.47929 0.10047 0.67507 0.0
C590 C 0.4724 0.07351 0.7716 0.0
C591 C 0.45668 0.0934 0.72651 0.0
C592 C 0.47412 0.07878 0.79878 0.0
C593 C 0.45907 0.10625 0.80971 0.0
C594 C 0.45542 0.09588 0.75546 0.0
C595 C 0.44275 0.12816 0.79288 0.0
C596 C 0.44255 0.1177 0.71068 0.0
C597 C 0.48785 0.0732 0.68993 0.0
N598 N 0.44143 0.12251 0.76657 0.0
N599 N 0.47743 0.071 0.71535 0.0
H600 H 0.50998 0.55832 0.29823 0.0
H601 H 0.54248 0.63311 0.16162 0.0
H602 H 0.56409 0.6474 0.28701 0.0
H603 H 0.51317 0.53417 0.17102 0.0
H604 H 0.5663 0.63286 0.20567 0.0
H605 H 0.51951 0.54522 0.2516 0.0
C606 C 0.52344 0.57526 0.28582 0.0
C607 C 0.53531 0.60438 0.29621 0.0
C608 C 0.55546 0.61083 0.19797 0.0
C609 C 0.54739 0.58921 0.2433 0.0
C610 C 0.54225 0.61075 0.1724 0.0
C611 C 0.5231 0.58436 0.16349 0.0
C612 C 0.54891 0.58454 0.21441 0.0
C613 C 0.52538 0.55587 0.17808 0.0
C614 C 0.52949 0.56754 0.2594 0.0
C615 C 0.5533 0.62524 0.27955 0.0
N616 N 0.53624 0.55711 0.20357 0.0
N617 N 0.55857 0.61733 0.25388 0.0
H618 H 0.01758 0.34606 0.32784 0.0
H619 H -0.00287 0.44097 0.19239 0.0
H620 H 0.96719 0.43785 0.31932 0.0
H621 H 0.05512 0.35321 0.19959 0.0
H622 H 0.98978 0.44181 0.2403 0.0
H623 H 0.03809 0.35081 0.28222 0.0
C624 C 0.01149 0.36743 0.31668 0.0
C625 C 0.99026 0.39126 0.32741 0.0
C626 C 0.00396 0.42224 0.23139 0.0
C627 C 0.01297 0.39664 0.27548 0.0
C628 C 0.00775 0.42162 0.20407 0.0
C629 C 0.026 0.39664 0.19207 0.0
C630 C 0.01844 0.39763 0.24673 0.0
C631 C 0.03984 0.37235 0.20803 0.0
C632 C 0.02309 0.37012 0.29069 0.0
C633 C 0.98364 0.4188 0.31223 0.0
N634 N 0.0357 0.37341 0.23461 0.0
N635 N -0.00551 0.42044 0.28695 0.0
H636 H 0.44077 0.39393 0.83432 0.0
H637 H 0.48401 0.46705 0.69678 0.0
H638 H 0.48139 0.48958 0.82542 0.0
H639 H 0.42895 0.37858 0.70852 0.0
H640 H 0.47589 0.47997 0.74367 0.0
H641 H 0.42098 0.39566 0.78939 0.0
C642 C 0.44586 0.41549 0.82332 0.0
C643 C 0.46782 0.43971 0.83283 0.0
C644 C 0.46554 0.45777 0.73592 0.0
C645 C 0.44521 0.44135 0.78089 0.0
C646 C 0.47082 0.45013 0.70938 0.0
C647 C 0.45799 0.42135 0.69899 0.0
C648 C 0.44733 0.43641 0.75208 0.0
C649 C 0.44035 0.40051 0.71588 0.0
C650 C 0.43443 0.4163 0.79726 0.0
C651 C 0.46911 0.46821 0.81794 0.0
N652 N 0.43564 0.40844 0.74159 0.0
N653 N 0.45993 0.46762 0.79205 0.0
H654 H 0.01418 0.60882 0.82984 0.0
H655 H 0.07127 0.57884 0.70241 0.0
H656 H 0.91459 0.58446 0.7981 0.0
H657 H 0.9735 0.62011 0.68074 0.0
H658 H 0.05095 0.57229 0.74752 0.0
H659 H 0.03799 0.60532 0.78497 0.0
C660 C -0.00235 0.60212 0.81347 0.0
C661 C 0.96272 0.59642 0.81743 0.0
C662 C 0.03401 0.58278 0.73289 0.0
C663 C 0.98916 0.59263 0.76676 0.0
C664 C 0.04527 0.58609 0.7071 0.0
C665 C 0.0238 0.59991 0.68791 0.0
C666 C 0.00117 0.59351 0.73949 0.0
C667 C 0.9907 0.60947 0.69509 0.0
C668 C 0.01112 0.59994 0.78805 0.0
C669 C 0.94189 0.58834 0.79574 0.0
N670 N 0.98025 0.606 0.72051 0.0
N671 N 0.95537 0.58711 0.77115 0.0
H672 H 0.13553 0.23568 0.32238 0.0
H673 H 0.14039 0.28508 0.16835 0.0
H674 H 0.12961 0.1671 0.25848 0.0
H675 H 0.14614 0.35295 0.23278 0.0
H676 H 0.13773 0.24147 0.20077 0.0
H677 H 0.14254 0.27845 0.28987 0.0
C678 C 0.1361 0.22939 0.30161 0.0
C679 C 0.13147 0.19743 0.29342 0.0
C680 C 0.13968 0.26593 0.2078 0.0
C681 C 0.13914 0.24688 0.25567 0.0
C682 C 0.141 0.29093 0.18922 0.0
C683 C 0.14378 0.32301 0.19759 0.0
C684 C 0.14096 0.27284 0.23511 0.0
C685 C 0.14467 0.32879 0.22512 0.0
C686 C 0.13986 0.25401 0.28294 0.0
C687 C 0.1324 0.19126 0.26595 0.0
N688 N 0.14326 0.30413 0.24271 0.0
N689 N 0.13589 0.21561 0.2482 0.0
H690 H 0.36858 0.67326 0.24533 0.0
H691 H 0.32613 0.85988 0.26615 0.0
H692 H 0.33944 0.73537 0.18102 0.0
H693 H 0.35904 0.79662 0.32871 0.0
H694 H 0.32909 0.81504 0.23501 0.0
H695 H 0.36351 0.71814 0.2759 0.0
C696 C 0.36071 0.69621 0.23754 0.0
C697 C 0.35416 0.70013 0.21032 0.0
C698 C 0.33569 0.81101 0.25556 0.0
C699 C 0.34874 0.75248 0.24576 0.0
C700 C 0.33385 0.8367 0.27354 0.0
C701 C 0.34236 0.83251 0.30047 0.0
C702 C 0.34612 0.78061 0.26432 0.0
C703 C 0.35255 0.80157 0.30834 0.0
C704 C 0.35807 0.72206 0.25514 0.0
C705 C 0.34491 0.73101 0.20169 0.0
N706 N 0.3541 0.77704 0.29045 0.0
N707 N 0.34242 0.75587 0.21929 0.0
H708 H 0.60427 0.7429 0.32311 0.0
H709 H 0.65297 0.79287 0.17421 0.0
H710 H 0.66151 0.68238 0.26948 0.0
H711 H 0.62012 0.86114 0.23318 0.0
H712 H 0.65043 0.75052 0.20775 0.0
H713 H 0.60508 0.78531 0.28967 0.0
C714 C 0.61706 0.73833 0.30451 0.0
C715 C 0.63259 0.70846 0.29942 0.0
C716 C 0.64377 0.7748 0.21335 0.0
C717 C 0.63312 0.75718 0.26063 0.0
C718 C 0.64504 0.79897 0.19412 0.0
C719 C 0.63707 0.8308 0.20079 0.0
C720 C 0.634 0.78228 0.23948 0.0
C721 C 0.62708 0.83716 0.2271 0.0
C722 C 0.61739 0.76264 0.2853 0.0
C723 C 0.64853 0.7044 0.27455 0.0
N724 N 0.62577 0.81323 0.24536 0.0
N725 N 0.64823 0.72825 0.25624 0.0
H726 H 0.84172 0.28141 0.3345 0.0
H727 H 0.84657 0.23037 0.18083 0.0
H728 H 0.83525 0.34841 0.26968 0.0
H729 H 0.85846 0.16319 0.24489 0.0
H730 H 0.8371 0.27305 0.21323 0.0
H731 H 0.84366 0.23755 0.30235 0.0
C732 C 0.84064 0.2872 0.31368 0.0
C733 C 0.83849 0.31929 0.30525 0.0
C734 C 0.84164 0.24893 0.22022 0.0
C735 C 0.8405 0.26841 0.26792 0.0
C736 C 0.84687 0.22434 0.20161 0.0
C737 C 0.85398 0.19285 0.20986 0.0
C738 C 0.8433 0.24225 0.24749 0.0
C739 C 0.85388 0.18701 0.23735 0.0
C740 C 0.84167 0.26191 0.29523 0.0
C741 C 0.83681 0.32452 0.27766 0.0
N742 N 0.84891 0.21136 0.25504 0.0
N743 N 0.83797 0.29956 0.2602 0.0
H744 H 0.78264 0.71524 0.80675 0.0
H745 H 0.89747 0.81068 0.70302 0.0
H746 H 0.89292 0.70986 0.81004 0.0
H747 H 0.80079 0.84738 0.73103 0.0
H748 H 0.89456 0.76797 0.73659 0.0
H749 H 0.78699 0.75824 0.77398 0.0
C750 C 0.80782 0.72319 0.80059 0.0
C751 C 0.83745 0.70894 0.81129 0.0
C752 C 0.87396 0.78533 0.73531 0.0
C753 C 0.84265 0.75796 0.77311 0.0
C754 C 0.87543 0.8095 0.716 0.0
C755 C 0.84926 0.83262 0.71412 0.0
C756 C 0.84567 0.78368 0.75252 0.0
C757 C 0.82154 0.83016 0.73178 0.0
C758 C 0.81028 0.74779 0.7819 0.0
C759 C 0.86944 0.72034 0.80253 0.0
N760 N 0.82033 0.80608 0.74997 0.0
N761 N 0.87121 0.74388 0.78376 0.0
H762 H 0.58542 0.33606 0.76799 0.0
H763 H 0.68502 0.17313 0.73089 0.0
H764 H 0.66731 0.29927 0.8165 0.0
H765 H 0.60188 0.21342 0.68583 0.0
H766 H 0.68285 0.21994 0.76102 0.0
H767 H 0.59338 0.29162 0.73722 0.0
C768 C 0.60516 0.31851 0.77213 0.0
C769 C 0.62567 0.32139 0.79487 0.0
C770 C 0.66515 0.21857 0.74451 0.0
C771 C 0.63539 0.27005 0.7593 0.0
C772 C 0.66651 0.19199 0.72732 0.0
C773 C 0.64358 0.1896 0.70593 0.0
C774 C 0.64015 0.2425 0.74051 0.0
C775 C 0.62015 0.2146 0.70197 0.0
C776 C 0.60979 0.29306 0.7545 0.0
C777 C 0.6507 0.29771 0.79935 0.0
N778 N 0.61884 0.23972 0.71916 0.0
N779 N 0.65498 0.27309 0.78167 0.0
H780 H 0.3246 0.34685 0.73181 0.0
H781 H 0.37047 0.16582 0.76977 0.0
H782 H 0.38144 0.285 0.67913 0.0
H783 H 0.33688 0.23622 0.82667 0.0
H784 H 0.37215 0.20742 0.73573 0.0
H785 H 0.32568 0.30531 0.7653 0.0
C786 C 0.33758 0.32463 0.72717 0.0
C787 C 0.35347 0.32 0.7024 0.0
C788 C 0.36451 0.21386 0.75564 0.0
C789 C 0.35412 0.27131 0.74129 0.0
C790 C 0.36338 0.19005 0.77515 0.0
C791 C 0.35317 0.19735 0.80124 0.0
C792 C 0.35494 0.24542 0.76195 0.0
C793 C 0.34496 0.2294 0.80696 0.0
C794 C 0.33804 0.30073 0.74649 0.0
C795 C 0.36879 0.28992 0.69774 0.0
N796 N 0.3457 0.25207 0.7875 0.0
N797 N 0.36875 0.26682 0.71695 0.0
H798 H 0.20695 0.70919 0.69788 0.0
H799 H 0.09692 0.80535 0.80525 0.0
H800 H 0.0965 0.70943 0.6953 0.0
H801 H 0.1981 0.83517 0.78171 0.0
H802 H 0.0974 0.76479 0.76977 0.0
H803 H 0.20533 0.75025 0.73267 0.0
C804 C 0.18231 0.71798 0.70462 0.0
C805 C 0.15183 0.70586 0.69355 0.0
C806 C 0.11953 0.78013 0.77244 0.0
C807 C 0.14973 0.7527 0.73399 0.0
C808 C 0.11945 0.80308 0.79289 0.0
C809 C 0.14768 0.82363 0.79667 0.0
C810 C 0.14832 0.77715 0.75586 0.0
C811 C 0.17586 0.81987 0.7796 0.0
C812 C 0.18141 0.74149 0.72447 0.0
C813 C 0.1206 0.71829 0.70307 0.0
N814 N 0.17557 0.79704 0.76018 0.0
N815 N 0.12033 0.74072 0.72292 0.0
H816 H 0.03842 0.1099 0.50885 0.0
H817 H 0.95723 0.93403 0.51219 0.0
H818 H 0.0471 0.04271 0.44431 0.0
H819 H 0.94001 1.00587 0.57246 0.0
H820 H -0.00539 0.97119 0.48903 0.0
H821 H 0.00868 0.06928 0.53486 0.0
C822 C 0.03456 0.08632 0.50037 0.0
C823 C 0.0451 0.07971 0.47437 0.0
C824 C 0.98271 0.97879 0.50736 0.0
C825 C 0.01048 0.03312 0.50384 0.0
C826 C 0.96098 0.95762 0.52058 0.0
C827 C 0.94494 0.9667 0.54441 0.0
C828 C 0.98872 1.00938 0.51795 0.0
C829 C 0.95178 0.99753 0.55435 0.0
C830 C 0.01741 0.06319 0.51514 0.0
C831 C 0.03965 0.04873 0.46433 0.0
N832 N 0.97302 0.0177 0.54107 0.0
N833 N 0.02234 0.02668 0.47898 0.0
H834 H 0.45079 0.92747 0.50088 0.0
H835 H 0.55338 0.09341 0.49714 0.0
H836 H 0.44095 0.99847 0.43943 0.0
H837 H 0.55602 0.03006 0.56426 0.0
H838 H 0.51894 0.0542 0.47299 0.0
H839 H 0.4944 0.96093 0.5224 0.0
C840 C 0.45763 0.95008 0.49194 0.0
C841 C 0.442 0.96011 0.46827 0.0
C842 C 0.5273 0.04862 0.4929 0.0
C843 C 0.49233 0.99822 0.49257 0.0
C844 C 0.54707 0.07097 0.50662 0.0
C845 C 0.55726 0.06512 0.53278 0.0
C846 C 0.51731 0.02018 0.50547 0.0
C847 C 0.54877 0.03548 0.54409 0.0
C848 C 0.48275 0.96903 0.50413 0.0
C849 C 0.45245 0.98942 0.45739 0.0
N850 N 0.52886 1.01424 0.53048 0.0
N851 N 0.47681 1.00737 0.46964 0.0
H852 H 0.46887 0.06606 0.94076 0.0
H853 H 0.52079 0.96397 0.06672 0.0
H854 H 0.39738 0.04705 0.00405 0.0
H855 H 0.57352 0.95722 0.99176 0.0
H856 H 0.47719 0.99734 0.04592 0.0
H857 H 0.50978 0.03011 0.96131 0.0
C858 C 0.46145 0.05417 0.95883 0.0
C859 C 0.42912 0.05937 0.97037 0.0
C860 C 0.49821 0.98832 0.03404 0.0
C861 C 0.4767 0.01848 0.99443 0.0
C862 C 0.52312 0.96901 0.04584 0.0
C863 C 0.55117 0.95763 0.03103 0.0
C864 C 0.50151 0.99666 0.00732 0.0
C865 C 0.55282 0.96575 0.00412 0.0
C866 C 0.48507 0.03368 0.97064 0.0
C867 C 0.4219 0.04395 0.9944 0.0
N868 N 0.52849 0.98492 0.9932 0.0
N869 N 0.44553 0.02421 0.00566 0.0
H870 H 0.9412 0.1067 0.99153 0.0
H871 H 0.00217 0.92561 0.9816 0.0
H872 H 0.93663 0.04253 0.05829 0.0
H873 H 0.03961 0.9991 0.92957 0.0
H874 H 0.9749 0.96687 0.0091 0.0
H875 H 0.97262 0.06597 0.96679 0.0
C876 C 0.94668 0.08409 1.00104 0.0
C877 C 0.93637 0.07834 0.02724 0.0
C878 C 0.98942 0.97403 0.99186 0.0
C879 C 0.97219 0.03137 0.99874 0.0
C880 C 0.00499 0.95056 0.97627 0.0
C881 C 0.02303 0.95912 0.95338 0.0
C882 C 0.9913 1.00623 0.98414 0.0
C883 C 0.02611 0.99166 0.94719 0.0
C884 C 0.96473 0.06086 0.98687 0.0
C885 C 0.94365 0.04814 0.03816 0.0
N886 N 0.00993 1.01408 0.96229 0.0
N887 N 0.9611 0.02581 0.02386 0.0
H888 H 0.53984 0.53466 0.43334 0.0
H889 H 0.4379 0.49514 0.56651 0.0
H890 H 0.54472 0.5932 0.50383 0.0
H891 H 0.42809 0.4396 0.49473 0.0
H892 H 0.47739 0.53109 0.54392 0.0
H893 H 0.49927 0.49936 0.4555 0.0
C894 C 0.53228 0.54022 0.45343 0.0
C895 C 0.54567 0.56709 0.46667 0.0
C896 C 0.46659 0.51108 0.53306 0.0
C897 C 0.4994 0.52647 0.49231 0.0
C898 C 0.44416 0.49043 0.546 0.0
C899 C 0.42986 0.46414 0.53255 0.0
C900 C 0.47494 0.50542 0.50644 0.0
C901 C 0.43832 0.45965 0.50581 0.0
C902 C 0.5092 0.51994 0.46612 0.0
C903 C 0.5354 0.57265 0.49291 0.0
N904 N 0.46045 0.47999 0.49367 0.0
N905 N 0.51286 0.55255 0.50483 0.0
H906 H 0.03118 0.54404 0.57044 0.0
H907 H 0.95204 0.47426 0.43599 0.0
H908 H 0.06035 0.57592 0.49253 0.0
H909 H 0.91511 0.44743 0.51331 0.0
H910 H 0.99102 0.51221 0.45667 0.0
H911 H 0.9879 0.50918 0.5503 0.0
C912 C 0.02827 0.54402 0.54914 0.0
C913 C 0.04955 0.56297 0.53317 0.0
C914 C 0.97425 0.4982 0.46916 0.0
C915 C 0.00029 0.52277 0.50996 0.0
C916 C 0.95165 0.4766 0.45731 0.0
C917 C 0.92989 0.45758 0.47285 0.0
C918 C 0.97543 0.50087 0.49684 0.0
C919 C 0.93149 0.46132 0.50049 0.0
C920 C 0.00367 0.52394 0.53764 0.0
C921 C 0.04493 0.56146 0.50563 0.0
N922 N 0.95393 0.48245 0.5116 0.0
N923 N 0.02091 0.54169 0.49493 0.0
H924 H 0.06648 0.44591 0.99211 0.0
H925 H 0.91325 0.57158 0.01107 0.0
H926 H 0.02732 0.47535 0.0682 0.0
H927 H 0.94772 0.53859 0.93458 0.0
H928 H 0.95486 0.53632 0.03214 0.0
H929 H 0.02303 0.47913 0.97057 0.0
C930 C 0.04873 0.45935 0.0043 0.0
C931 C 0.05073 0.45797 0.03204 0.0
C932 C 0.95336 0.53672 0.01074 0.0
C933 C 0.0008 0.49608 0.00746 0.0
C934 C 0.92946 0.55683 0.99866 0.0
C935 C 0.92678 0.55803 0.97094 0.0
C936 C 0.97495 0.51759 0.99509 0.0
C937 C 0.94907 0.53874 0.95596 0.0
C938 C 0.02384 0.47824 0.99197 0.0
C939 C 0.02662 0.47546 0.0468 0.0
N940 N 0.97217 0.51928 0.96822 0.0
N941 N 0.00283 0.49392 0.03434 0.0
H942 H 0.57503 0.45585 0.00276 0.0
H943 H 0.41905 0.58072 0.9985 0.0
H944 H 0.51817 0.47869 0.93177 0.0
H945 H 0.47013 0.55203 0.0705 0.0
H946 H 0.45608 0.54434 0.97357 0.0
H947 H 0.5378 0.49181 0.02773 0.0
C948 C 0.55478 0.4683 0.99234 0.0
C949 C 0.5499 0.46397 0.96498 0.0
C950 C 0.4591 0.5459 0.99484 0.0
C951 C 0.50722 0.50565 0.99361 0.0
C952 C 0.43801 0.56677 0.00909 0.0
C953 C 0.44139 0.5695 0.03667 0.0
C954 C 0.48393 0.52764 0.00821 0.0
C955 C 0.46621 0.55047 0.04934 0.0
C956 C 0.53355 0.48898 0.00666 0.0
C957 C 0.52341 0.48136 0.95267 0.0
N958 N 0.48658 0.53046 0.03501 0.0
N959 N 0.50312 0.50135 0.96706 0.0
H960 H 0.1765 0.09522 0.43579 0.0
H961 H 0.25893 0.9367 0.3721 0.0
H962 H 0.17043 0.06882 0.35341 0.0
H963 H 0.30124 0.97872 0.44289 0.0
H964 H 0.21594 0.97956 0.37068 0.0
H965 H 0.21608 0.0497 0.44316 0.0
C966 C 0.18445 0.08059 0.41915 0.0
C967 C 0.17068 0.08603 0.39387 0.0
C968 C 0.23405 0.97896 0.38697 0.0
C969 C 0.21392 0.03323 0.40236 0.0
C970 C 0.25801 0.95403 0.3881 0.0
C971 C 0.28313 0.95385 0.40794 0.0
C972 C 0.23527 1.00391 0.40579 0.0
C973 C 0.28176 0.97775 0.42758 0.0
C974 C 0.20642 0.0543 0.42343 0.0
C975 C 0.18074 0.06561 0.37316 0.0
N976 N 0.25847 1.00204 0.42592 0.0
N977 N 0.20134 0.04005 0.37789 0.0
H978 H 0.78591 0.10044 0.14383 0.0
H979 H 0.70531 0.95611 0.06051 0.0
H980 H 0.81997 0.08176 0.06431 0.0
H981 H 0.71228 0.9592 0.14552 0.0
H982 H 0.74159 1.00436 0.05831 0.0
H983 H 0.74794 0.05396 0.14096 0.0
C984 C 0.78396 0.08755 0.12523 0.0
C985 C 0.80542 0.09545 0.10406 0.0
C986 C 0.73585 0.99395 0.07739 0.0
C987 C 0.76364 0.04093 0.1011 0.0
C988 C 0.71584 0.96601 0.07862 0.0
C989 C 0.7066 0.95316 0.10325 0.0
C990 C 0.74575 1.00942 0.10097 0.0
C991 C 0.71954 0.96789 0.12615 0.0
C992 C 0.76302 0.06046 0.12383 0.0
C993 C 0.80304 0.07697 0.0808 0.0
N994 N 0.73795 0.9954 0.12449 0.0
N995 N 0.78284 0.0503 0.07999 0.0
H996 H 0.64307 0.02847 0.5946 0.0
H997 H 0.83651 0.97254 0.57734 0.0
H998 H 0.72754 0.09505 0.59887 0.0
H999 H 0.75886 0.91761 0.61719 0.0
H1000 H 0.79363 1.01362 0.56694 0.0
H1001 H 0.6828 0.98558 0.58414 0.0
C1002 C 0.67003 0.03431 0.59274 0.0
C1003 C 0.68209 0.06537 0.59822 0.0
C1004 C 0.78577 0.99207 0.57713 0.0
C1005 C 0.72781 0.01581 0.58624 0.0
C1006 C 0.80997 0.96836 0.58271 0.0
C1007 C 0.80107 0.94156 0.59804 0.0
C1008 C 0.75228 0.98862 0.58655 0.0
C1009 C 0.76664 0.93758 0.605 0.0
C1010 C 0.69264 1.00964 0.5868 0.0
C1011 C 0.71722 0.07141 0.59505 0.0
N1012 N 0.7435 0.96113 0.59947 0.0
N1013 N 0.7391 0.04659 0.5897 0.0
H1014 H 0.23948 0.108 0.89636 0.0
H1015 H 0.20475 0.92333 0.91041 0.0
H1016 H 0.31476 0.04468 0.93043 0.0
H1017 H 0.12296 0.99292 0.90909 0.0
H1018 H 0.24536 0.96689 0.92107 0.0
H1019 H 0.19528 0.06701 0.90413 0.0
C1020 C 0.24641 0.08608 0.90646 0.0
C1021 C 0.28072 0.07979 0.91286 0.0
C1022 C 0.21831 0.9724 0.91914 0.0
C1023 C 0.23092 0.03213 0.92058 0.0
C1024 C 0.19513 0.94742 0.91335 0.0
C1025 C 0.1604 0.9544 0.90887 0.0
C1026 C 0.20662 1.00445 0.91998 0.0
C1027 C 0.14952 0.98635 0.91233 0.0
C1028 C 0.22134 0.06242 0.91058 0.0
C1029 C 0.28849 0.05045 0.92521 0.0
N1030 N 0.17248 1.01012 0.91713 0.0
N1031 N 0.26407 0.0275 0.92812 0.0
H1032 H 0.79371 0.45386 0.446 0.0
H1033 H 0.72195 0.60629 0.36949 0.0
H1034 H 0.78515 0.46233 0.36134 0.0
H1035 H 0.678 0.58107 0.44462 0.0
H1036 H 0.75995 0.55988 0.37246 0.0
H1037 H 0.76025 0.50392 0.45088 0.0
C1038 C 0.78352 0.46552 0.42854 0.0
C1039 C 0.79141 0.45372 0.40322 0.0
C1040 C 0.74276 0.56504 0.38875 0.0
C1041 C 0.75567 0.51154 0.40856 0.0
C1042 C 0.72179 0.59208 0.3874 0.0
C1043 C 0.6972 0.59779 0.40701 0.0
C1044 C 0.73915 0.54355 0.40989 0.0
C1045 C 0.69715 0.57778 0.42934 0.0
C1046 C 0.76514 0.49432 0.43131 0.0
C1047 C 0.77905 0.4704 0.38118 0.0
N1048 N 0.71735 0.5511 0.43002 0.0
N1049 N 0.76224 0.4986 0.38433 0.0
H1050 H 0.31251 0.58857 0.06284 0.0
H1051 H 0.22345 0.4487 0.13985 0.0
H1052 H 0.27568 0.59731 0.14275 0.0
H1053 H 0.19643 0.46065 0.05783 0.0
H1054 H 0.256 0.49865 0.13822 0.0
H1055 H 0.27703 0.5403 0.057 0.0
C1056 C 0.2953 0.58152 0.0786 0.0
C1057 C 0.29664 0.59723 0.10324 0.0
C1058 C 0.24367 0.48994 0.12036 0.0
C1059 C 0.25837 0.54098 0.09736 0.0
C1060 C 0.22594 0.46098 0.12109 0.0
C1061 C 0.20789 0.45016 0.09881 0.0
C1062 C 0.24352 0.50825 0.09712 0.0
C1063 C 0.21078 0.46777 0.07525 0.0
C1064 C 0.27582 0.5535 0.07547 0.0
C1065 C 0.27496 0.58624 0.12333 0.0
N1066 N 0.22804 0.4962 0.07501 0.0
N1067 N 0.25755 0.5583 0.12025 0.0
H1068 H 0.30354 0.43704 0.55661 0.0
H1069 H 0.23761 0.59394 0.62378 0.0
H1070 H 0.26556 0.44178 0.63646 0.0
H1071 H 0.1913 0.57197 0.54846 0.0
H1072 H 0.26814 0.54282 0.62212 0.0
H1073 H 0.27493 0.48843 0.54715 0.0
C1074 C 0.28761 0.44789 0.5717 0.0
C1075 C 0.28673 0.43501 0.59737 0.0
C1076 C 0.25222 0.54977 0.60549 0.0
C1077 C 0.25639 0.49442 0.58724 0.0
C1078 C 0.23559 0.57935 0.60605 0.0
C1079 C 0.21186 0.58725 0.58627 0.0
C1080 C 0.24559 0.52825 0.58471 0.0
C1081 C 0.20957 0.56689 0.56406 0.0
C1082 C 0.27206 0.47758 0.56645 0.0
C1083 C 0.26657 0.45068 0.61637 0.0
N1084 N 0.2256 0.53783 0.56408 0.0
N1085 N 0.25314 0.48 0.61121 0.0
H1086 H 0.71756 0.44175 0.85851 0.0
H1087 H 0.78462 0.57412 0.95161 0.0
H1088 H 0.66773 0.44269 0.93447 0.0
H1089 H 0.74491 0.59439 0.87391 0.0
H1090 H 0.75217 0.52371 0.95181 0.0
H1091 H 0.74516 0.49262 0.86953 0.0
C1092 C 0.714 0.45174 0.87815 0.0
C1093 C 0.69071 0.4377 0.89572 0.0
C1094 C 0.74957 0.53986 0.9352 0.0
C1095 C 0.72104 0.49666 0.908 0.0
C1096 C 0.76741 0.56907 0.93528 0.0
C1097 C 0.76747 0.58868 0.91267 0.0
C1098 C 0.73235 0.53021 0.91214 0.0
C1099 C 0.74543 0.58022 0.89182 0.0
C1100 C 0.72899 0.48119 0.88412 0.0
C1101 C 0.68612 0.45237 0.9206 0.0
N1102 N 0.72984 0.55111 0.8916 0.0
N1103 N 0.7008 0.48142 0.92596 0.0
H1104 H 0.06248 0.21604 0.43969 0.0
H1105 H 0.92916 0.35759 0.42709 0.0
H1106 H 0.06435 0.27488 0.36974 0.0
H1107 H 0.89551 0.25933 0.42234 0.0
H1108 H 0.98874 0.3391 0.42681 0.0
H1109 H 0.01144 0.24551 0.45487 0.0
C1110 C 0.05242 0.23519 0.42762 0.0
C1111 C 0.06594 0.24115 0.40238 0.0
C1112 C 0.96808 0.32177 0.42639 0.0
C1113 C 0.01005 0.27673 0.42076 0.0
C1114 C 0.93392 0.33226 0.42616 0.0
C1115 C 0.9069 0.31022 0.42315 0.0
C1116 C 0.97509 0.28891 0.42536 0.0
C1117 C 0.91529 0.27744 0.42377 0.0
C1118 C 0.02376 0.25231 0.43653 0.0
C1119 C 0.05393 0.26838 0.38881 0.0
N1120 N 0.94859 0.2678 0.42456 0.0
N1121 N 0.02618 0.28479 0.39791 0.0
H1122 H 0.43694 0.85745 0.41939 0.0
H1123 H 0.53181 0.7033 0.45811 0.0
H1124 H 0.38362 0.76765 0.40931 0.0
H1125 H 0.56058 0.73405 0.3799 0.0
H1126 H 0.48775 0.74513 0.45932 0.0
H1127 H 0.49151 0.8279 0.42266 0.0
C1128 C 0.43667 0.83158 0.41782 0.0
C1129 C 0.40571 0.81501 0.41336 0.0
C1130 C 0.5046 0.74339 0.44234 0.0
C1131 C 0.46758 0.78149 0.41804 0.0
C1132 C 0.52989 0.71982 0.44167 0.0
C1133 C 0.54978 0.71522 0.41884 0.0
C1134 C 0.49938 0.76264 0.42014 0.0
C1135 C 0.54598 0.73702 0.39794 0.0
C1136 C 0.46775 0.81492 0.41973 0.0
C1137 C 0.40678 0.78145 0.41248 0.0
N1138 N 0.52055 0.7595 0.39882 0.0
N1139 N 0.43725 0.76577 0.41482 0.0
H1140 H 0.55858 0.8223 0.04119 0.0
H1141 H 0.46527 0.73122 0.15602 0.0
H1142 H 0.60934 0.79502 0.11365 0.0
H1143 H 0.4392 0.70683 0.07535 0.0
H1144 H 0.51279 0.76338 0.14008 0.0
H1145 H 0.51172 0.78527 0.05161 0.0
C1146 C 0.56041 0.80798 0.05896 0.0
C1147 C 0.5877 0.81241 0.07694 0.0
C1148 C 0.49661 0.75114 0.12581 0.0
C1149 C 0.5336 0.77091 0.08921 0.0
C1150 C 0.46916 0.73302 0.13485 0.0
C1151 C 0.44828 0.716 0.11702 0.0
C1152 C 0.50322 0.75287 0.09863 0.0
C1153 C 0.45455 0.71963 0.08979 0.0
C1154 C 0.53343 0.78708 0.06495 0.0
C1155 C 0.58851 0.79307 0.09957 0.0
N1156 N 0.48162 0.73769 0.08136 0.0
N1157 N 0.5615 0.77378 0.10537 0.0
H1158 H 0.92095 0.23193 0.06789 0.0
H1159 H 0.10811 0.29244 0.11029 0.0
H1160 H 0.9575 0.23659 0.1484 0.0
H1161 H 0.05841 0.32635 0.03934 0.0
H1162 H 0.0575 0.25983 0.11985 0.0
H1163 H 0.97467 0.25745 0.05324 0.0
C1164 C 0.94023 0.23833 0.08242 0.0
C1165 C 0.93492 0.23202 0.10934 0.0
C1166 C 0.05793 0.27404 0.10197 0.0
C1167 C -0.00371 0.2604 0.09282 0.0
C1168 C 0.08694 0.29239 0.09638 0.0
C1169 C 0.08722 0.31272 0.07434 0.0
C1170 C 0.02922 0.27555 0.08514 0.0
C1171 C 0.05926 0.31124 0.0567 0.0
C1172 C 0.97078 0.25284 0.07409 0.0
C1173 C 0.96043 0.24128 0.12746 0.0
N1174 N 0.03114 0.29336 0.06266 0.0
N1175 N 0.99009 0.25466 0.11887 0.0
H1176 H 0.93038 0.8259 0.57913 0.0
H1177 H 0.10155 0.72962 0.61347 0.0
H1178 H 0.96772 0.80775 0.65822 0.0
H1179 H 0.04247 0.70559 0.54384 0.0
H1180 H 0.05814 0.76923 0.62542 0.0
H1181 H 0.97499 0.78938 0.56183 0.0
C1182 C 0.94748 0.81393 0.59283 0.0
C1183 C 0.9454 0.82001 0.62015 0.0
C1184 C 0.05483 0.75543 0.6074 0.0
C1185 C -0.00319 0.77962 0.60054 0.0
C1186 C 0.07966 0.73287 0.60055 0.0
C1187 C 0.07523 0.71359 0.57806 0.0
C1188 C 0.02548 0.75908 0.59149 0.0
C1189 C 0.04679 0.71968 0.56155 0.0
C1190 C 0.97305 0.79343 0.58295 0.0
C1191 C 0.96845 0.80411 0.637 0.0
N1192 N 0.02271 0.74169 0.56875 0.0
N1193 N 0.99333 0.78503 0.62692 0.0
H1194 H 0.41434 0.29889 0.623 0.0
H1195 H 0.58009 0.21414 0.56052 0.0
H1196 H 0.45017 0.31634 0.54365 0.0
H1197 H 0.56512 0.22697 0.6443 0.0
H1198 H 0.52504 0.241 0.5523 0.0
H1199 H 0.46048 0.25954 0.62876 0.0
C1200 C 0.43112 0.29374 0.60649 0.0
C1201 C 0.42899 0.31158 0.58306 0.0
C1202 C 0.53361 0.23765 0.5725 0.0
C1203 C 0.48178 0.26688 0.58958 0.0
C1204 C 0.56496 0.22243 0.57715 0.0
C1205 C 0.57636 0.21744 0.60309 0.0
C1206 C 0.51384 0.24844 0.59398 0.0
C1207 C 0.55648 0.22937 0.62403 0.0
C1208 C 0.45775 0.27159 0.60993 0.0
C1209 C 0.4513 0.30357 0.56225 0.0
N1210 N 0.52604 0.24424 0.61904 0.0
N1211 N 0.47709 0.2822 0.56612 0.0
H1212 H 0.40494 0.22258 0.88271 0.0
H1213 H 0.57438 0.29745 0.94921 0.0
H1214 H 0.43574 0.20664 0.96364 0.0
H1215 H 0.54652 0.31203 0.86757 0.0
H1216 H 0.5214 0.26682 0.95551 0.0
H1217 H 0.45228 0.26072 0.87801 0.0
C1218 C 0.42098 0.22759 0.89969 0.0
C1219 C 0.4169 0.2104 0.92333 0.0
C1220 C 0.52687 0.27657 0.93615 0.0
C1221 C 0.47144 0.25389 0.91804 0.0
C1222 C 0.55736 0.29369 0.93251 0.0
C1223 C 0.56483 0.30716 0.90784 0.0
C1224 C 0.50377 0.27265 0.9149 0.0
C1225 C 0.54156 0.3021 0.88695 0.0
C1226 C 0.44835 0.24916 0.89691 0.0
C1227 C 0.43834 0.21859 0.94477 0.0
N1228 N 0.51212 0.28527 0.89093 0.0
N1229 N 0.46492 0.23921 0.94149 0.0
H1230 H 0.9328 0.69836 0.96924 0.0
H1231 H 0.05443 0.77039 0.86212 0.0
H1232 H 0.89971 0.72137 0.89001 0.0
H1233 H 0.04288 0.82863 0.93208 0.0
H1234 H 0.01233 0.73275 0.87975 0.0
H1235 H 0.98425 0.73162 0.9625 0.0
C1236 C 0.93596 0.71067 0.95058 0.0
C1237 C 0.91208 0.70638 0.92986 0.0
C1238 C 0.02001 0.75316 0.89167 0.0
C1239 C 0.97126 0.74314 0.92196 0.0
C1240 C 0.04442 0.77431 0.88187 0.0
C1241 C 0.05206 0.80261 0.89566 0.0
C1242 C 0.00331 0.76022 0.91551 0.0
C1243 C 0.03783 0.80691 0.92097 0.0
C1244 C 0.96546 0.72935 0.94678 0.0
C1245 C 0.91769 0.72307 0.90623 0.0
N1246 N 0.01339 0.78623 0.92994 0.0
N1247 N 0.94698 0.74009 0.90273 0.0
loop_
_geom_bond_atom_site_label_1
_geom_bond_atom_site_label_2
_geom_bond_distance
_geom_bond_site_symmetry_2
_ccdc_geom_bond_type
C0 C1 1.351 . S
C0 N3 1.368 . S
C0 H5 0.931 . S
C1 C0 1.351 . S
C1 N2 1.373 . S
C1 H29 0.930 . S
N2 C1 1.373 . S
N2 C4 1.340 . S
N3 C0 1.368 . S
N3 C4 1.321 . S
N3 Co6 2.135 . S
C4 N2 1.340 . S
C4 N3 1.321 . S
C4 H28 0.930 . S
H5 C0 0.931 . S
Co6 N3 2.135 . S
Co6 N9 2.121 . S
Co6 O14 2.055 . S
Co6 O17 2.039 . S
Co6 N20 2.140 . S
C7 O8 1.227 . S
C7 O17 1.265 . S
O8 C7 1.227 . S
N9 Co6 2.121 . S
N9 C11 1.375 . S
N9 C12 1.313 . S
C10 C11 1.338 . S
C10 N13 1.377 . S
C10 H30 0.930 . S
C11 N9 1.375 . S
C11 C10 1.338 . S
C11 H15 0.931 . S
C12 N9 1.313 . S
C12 N13 1.344 . S
C12 H16 0.930 . S
N13 C10 1.377 . S
N13 C12 1.344 . S
O14 Co6 2.055 . S
O14 C18 1.253 . S
H15 C11 0.931 . S
H16 C12 0.930 . S
O17 Co6 2.039 . S
O17 C7 1.265 . S
C18 O14 1.253 . S
C18 O19 1.227 . S
O19 C18 1.227 . S
N20 Co6 2.140 . S
N20 C23 1.346 . S
N20 C24 1.345 . S
C21 C22 1.387 . S
C21 C25 1.391 . S
C22 C21 1.387 . S
C22 C23 1.369 . S
C22 H31 0.929 . S
C23 N20 1.346 . S
C23 C22 1.369 . S
C23 H26 0.928 . S
C24 N20 1.345 . S
C24 C25 1.371 . S
C24 H27 0.931 . S
C25 C21 1.391 . S
C25 C24 1.371 . S
C25 H32 0.930 . S
H26 C23 0.928 . S
H27 C24 0.931 . S
H28 C4 0.930 . S
H29 C1 0.930 . S
H30 C10 0.930 . S
H31 C22 0.929 . S
H32 C25 0.930 . S
C33 C34 1.351 . S
C33 N36 1.368 . S
C33 H38 0.931 . S
C34 C33 1.351 . S
C34 N35 1.373 . S
C34 H62 0.930 . S
N35 C34 1.373 . S
N35 C37 1.340 . S
N36 C33 1.368 . S
N36 C37 1.321 . S
N36 Co39 2.135 . S
C37 N35 1.340 . S
C37 N36 1.321 . S
C37 H61 0.930 . S
H38 C33 0.931 . S
Co39 N36 2.135 . S
Co39 N42 2.121 . S
Co39 O47 2.055 . S
Co39 O50 2.039 . S
Co39 N53 2.140 . S
C40 O41 1.227 . S
C40 O50 1.265 . S
O41 C40 1.227 . S
N42 Co39 2.121 . S
N42 C44 1.375 . S
N42 C45 1.313 . S
C43 C44 1.338 . S
C43 N46 1.377 . S
C43 H63 0.930 . S
C44 N42 1.375 . S
C44 C43 1.338 . S
C44 H48 0.931 . S
C45 N42 1.313 . S
C45 N46 1.344 . S
C45 H49 0.930 . S
N46 C43 1.377 . S
N46 C45 1.344 . S
O47 Co39 2.055 . S
O47 C51 1.253 . S
H48 C44 0.931 . S
H49 C45 0.930 . S
O50 Co39 2.039 . S
O50 C40 1.265 . S
C51 O47 1.253 . S
C51 O52 1.227 . S
O52 C51 1.227 . S
N53 Co39 2.140 . S
N53 C56 1.346 . S
N53 C57 1.345 . S
C54 C55 1.387 . S
C54 C58 1.391 . S
C55 C54 1.387 . S
C55 C56 1.369 . S
C55 H64 0.929 . S
C56 N53 1.346 . S
C56 C55 1.369 . S
C56 H59 0.928 . S
C57 N53 1.345 . S
C57 C58 1.371 . S
C57 H60 0.931 . S
C58 C54 1.391 . S
C58 C57 1.371 . S
C58 H65 0.930 . S
H59 C56 0.928 . S
H60 C57 0.931 . S
H61 C37 0.930 . S
H62 C34 0.930 . S
H63 C43 0.930 . S
H64 C55 0.929 . S
H65 C58 0.930 . S
C66 C67 1.351 . S
C66 N69 1.368 . S
C66 H71 0.931 . S
C67 C66 1.351 . S
C67 N68 1.373 . S
C67 H95 0.930 . S
N68 C67 1.373 . S
N68 C70 1.340 . S
N69 C66 1.368 . S
N69 C70 1.321 . S
N69 Co72 2.135 . S
C70 N68 1.340 . S
C70 N69 1.321 . S
C70 H94 0.930 . S
H71 C66 0.931 . S
Co72 N69 2.135 . S
Co72 N75 2.121 . S
Co72 O80 2.055 . S
Co72 O83 2.039 . S
Co72 N86 2.140 . S
C73 O74 1.227 . S
C73 O83 1.265 . S
O74 C73 1.227 . S
N75 Co72 2.121 . S
N75 C77 1.375 . S
N75 C78 1.313 . S
C76 C77 1.338 . S
C76 N79 1.377 . S
C76 H96 0.930 . S
C77 N75 1.375 . S
C77 C76 1.338 . S
C77 H81 0.931 . S
C78 N75 1.313 . S
C78 N79 1.344 . S
C78 H82 0.930 . S
N79 C76 1.377 . S
N79 C78 1.344 . S
O80 Co72 2.055 . S
O80 C84 1.253 . S
H81 C77 0.931 . S
H82 C78 0.930 . S
O83 Co72 2.039 . S
O83 C73 1.265 . S
C84 O80 1.253 . S
C84 O85 1.227 . S
O85 C84 1.227 . S
N86 Co72 2.140 . S
N86 C89 1.346 . S
N86 C90 1.345 . S
C87 C88 1.387 . S
C87 C91 1.391 . S
C88 C87 1.387 . S
C88 C89 1.369 . S
C88 H97 0.929 . S
C89 N86 1.346 . S
C89 C88 1.369 . S
C89 H92 0.928 . S
C90 N86 1.345 . S
C90 C91 1.371 . S
C90 H93 0.931 . S
C91 C87 1.391 . S
C91 C90 1.371 . S
C91 H98 0.930 . S
H92 C89 0.928 . S
H93 C90 0.931 . S
H94 C70 0.930 . S
H95 C67 0.930 . S
H96 C76 0.930 . S
H97 C88 0.929 . S
H98 C91 0.930 . S
C99 C100 1.351 . S
C99 N102 1.368 . S
C99 H104 0.931 . S
C100 C99 1.351 . S
C100 N101 1.373 . S
C100 H128 0.930 . S
N101 C100 1.373 . S
N101 C103 1.340 . S
N102 C99 1.368 . S
N102 C103 1.321 . S
N102 Co105 2.135 . S
C103 N101 1.340 . S
C103 N102 1.321 . S
C103 H127 0.930 . S
H104 C99 0.931 . S
Co105 N102 2.135 . S
Co105 N108 2.121 . S
Co105 O113 2.055 . S
Co105 O116 2.039 . S
Co105 N119 2.140 . S
C106 O107 1.227 . S
C106 O116 1.265 . S
O107 C106 1.227 . S
N108 Co105 2.121 . S
N108 C110 1.375 . S
N108 C111 1.313 . S
C109 C110 1.338 . S
C109 N112 1.377 . S
C109 H129 0.930 . S
C110 N108 1.375 . S
C110 C109 1.338 . S
C110 H114 0.931 . S
C111 N108 1.313 . S
C111 N112 1.344 . S
C111 H115 0.930 . S
N112 C109 1.377 . S
N112 C111 1.344 . S
O113 Co105 2.055 . S
O113 C117 1.253 . S
H114 C110 0.931 . S
H115 C111 0.930 . S
O116 Co105 2.039 . S
O116 C106 1.265 . S
C117 O113 1.253 . S
C117 O118 1.227 . S
O118 C117 1.227 . S
N119 Co105 2.140 . S
N119 C122 1.346 . S
N119 C123 1.345 . S
C120 C121 1.387 . S
C120 C124 1.391 . S
C121 C120 1.387 . S
C121 C122 1.369 . S
C121 H130 0.929 . S
C122 N119 1.346 . S
C122 C121 1.369 . S
C122 H125 0.928 . S
C123 N119 1.345 . S
C123 C124 1.371 . S
C123 H126 0.931 . S
C124 C120 1.391 . S
C124 C123 1.371 . S
C124 H131 0.930 . S
H125 C122 0.928 . S
H126 C123 0.931 . S
H127 C103 0.930 . S
H128 C100 0.930 . S
H129 C109 0.930 . S
H130 C121 0.929 . S
H131 C124 0.930 . S
C132 C133 1.351 . S
C132 N135 1.368 . S
C132 H137 0.931 . S
C133 C132 1.351 . S
C133 N134 1.373 . S
C133 H161 0.930 . S
N134 C133 1.373 . S
N134 C136 1.340 . S
N135 C132 1.368 . S
N135 C136 1.321 . S
N135 Co138 2.135 . S
C136 N134 1.340 . S
C136 N135 1.321 . S
C136 H160 0.930 . S
H137 C132 0.931 . S
Co138 N135 2.135 . S
Co138 N141 2.121 . S
Co138 O146 2.055 . S
Co138 O149 2.039 . S
Co138 N152 2.140 . S
C139 O140 1.227 . S
C139 O149 1.265 . S
O140 C139 1.227 . S
N141 Co138 2.121 . S
N141 C143 1.375 . S
N141 C144 1.313 . S
C142 C143 1.338 . S
C142 N145 1.377 . S
C142 H162 0.930 . S
C143 N141 1.375 . S
C143 C142 1.338 . S
C143 H147 0.931 . S
C144 N141 1.313 . S
C144 N145 1.344 . S
C144 H148 0.930 . S
N145 C142 1.377 . S
N145 C144 1.344 . S
O146 Co138 2.055 . S
O146 C150 1.253 . S
H147 C143 0.931 . S
H148 C144 0.930 . S
O149 Co138 2.039 . S
O149 C139 1.265 . S
C150 O146 1.253 . S
C150 O151 1.227 . S
O151 C150 1.227 . S
N152 Co138 2.140 . S
N152 C155 1.346 . S
N152 C156 1.345 . S
C153 C154 1.387 . S
C153 C157 1.391 . S
C154 C153 1.387 . S
C154 C155 1.369 . S
C154 H163 0.929 . S
C155 N152 1.346 . S
C155 C154 1.369 . S
C155 H158 0.928 . S
C156 N152 1.345 . S
C156 C157 1.371 . S
C156 H159 0.931 . S
C157 C153 1.391 . S
C157 C156 1.371 . S
C157 H164 0.930 . S
H158 C155 0.928 . S
H159 C156 0.931 . S
H160 C136 0.930 . S
H161 C133 0.930 . S
H162 C142 0.930 . S
H163 C154 0.929 . S
H164 C157 0.930 . S
C165 C166 1.351 . S
C165 N168 1.368 . S
C165 H170 0.931 . S
C166 C165 1.351 . S
C166 N167 1.373 . S
C166 H194 0.930 . S
N167 C166 1.373 . S
N167 C169 1.340 . S
N168 C165 1.368 . S
N168 C169 1.321 . S
N168 Co171 2.135 . S
C169 N167 1.340 . S
C169 N168 1.321 . S
C169 H193 0.930 . S
H170 C165 0.931 . S
Co171 N168 2.135 . S
Co171 N174 2.121 . S
Co171 O179 2.055 . S
Co171 O182 2.039 . S
Co171 N185 2.140 . S
C172 O173 1.227 . S
C172 O182 1.265 . S
O173 C172 1.227 . S
N174 Co171 2.121 . S
N174 C176 1.375 . S
N174 C177 1.313 . S
C175 C176 1.338 . S
C175 N178 1.377 . S
C175 H195 0.930 . S
C176 N174 1.375 . S
C176 C175 1.338 . S
C176 H180 0.931 . S
C177 N174 1.313 . S
C177 N178 1.344 . S
C177 H181 0.930 . S
N178 C175 1.377 . S
N178 C177 1.344 . S
O179 Co171 2.055 . S
O179 C183 1.253 . S
H180 C176 0.931 . S
H181 C177 0.930 . S
O182 Co171 2.039 . S
O182 C172 1.265 . S
C183 O179 1.253 . S
C183 O184 1.227 . S
O184 C183 1.227 . S
N185 Co171 2.140 . S
N185 C188 1.346 . S
N185 C189 1.345 . S
C186 C187 1.387 . S
C186 C190 1.391 . S
C187 C186 1.387 . S
C187 C188 1.369 . S
C187 H196 0.929 . S
C188 N185 1.346 . S
C188 C187 1.369 . S
C188 H191 0.928 . S
C189 N185 1.345 . S
C189 C190 1.371 . S
C189 H192 0.931 . S
C190 C186 1.391 . S
C190 C189 1.371 . S
C190 H197 0.930 . S
H191 C188 0.928 . S
H192 C189 0.931 . S
H193 C169 0.930 . S
H194 C166 0.930 . S
H195 C175 0.930 . S
H196 C187 0.929 . S
H197 C190 0.930 . S
C198 C199 1.351 . S
C198 N201 1.368 . S
C198 H203 0.931 . S
C199 C198 1.351 . S
C199 N200 1.373 . S
C199 H227 0.930 . S
N200 C199 1.373 . S
N200 C202 1.340 . S
N201 C198 1.368 . S
N201 C202 1.321 . S
N201 Co204 2.135 . S
C202 N200 1.340 . S
C202 N201 1.321 . S
C202 H226 0.930 . S
H203 C198 0.931 . S
Co204 N201 2.135 . S
Co204 N207 2.121 . S
Co204 O212 2.055 . S
Co204 O215 2.039 . S
Co204 N218 2.140 . S
C205 O206 1.227 . S
C205 O215 1.265 . S
O206 C205 1.227 . S
N207 Co204 2.121 . S
N207 C209 1.375 . S
N207 C210 1.313 . S
C208 C209 1.338 . S
C208 N211 1.377 . S
C208 H228 0.930 . S
C209 N207 1.375 . S
C209 C208 1.338 . S
C209 H213 0.931 . S
C210 N207 1.313 . S
C210 N211 1.344 . S
C210 H214 0.930 . S
N211 C208 1.377 . S
N211 C210 1.344 . S
O212 Co204 2.055 . S
O212 C216 1.253 . S
H213 C209 0.931 . S
H214 C210 0.930 . S
O215 Co204 2.039 . S
O215 C205 1.265 . S
C216 O212 1.253 . S
C216 O217 1.227 . S
O217 C216 1.227 . S
N218 Co204 2.140 . S
N218 C221 1.346 . S
N218 C222 1.345 . S
C219 C220 1.387 . S
C219 C223 1.391 . S
C220 C219 1.387 . S
C220 C221 1.369 . S
C220 H229 0.929 . S
C221 N218 1.346 . S
C221 C220 1.369 . S
C221 H224 0.928 . S
C222 N218 1.345 . S
C222 C223 1.371 . S
C222 H225 0.931 . S
C223 C219 1.391 . S
C223 C222 1.371 . S
C223 H230 0.930 . S
H224 C221 0.928 . S
H225 C222 0.931 . S
H226 C202 0.930 . S
H227 C199 0.930 . S
H228 C208 0.930 . S
H229 C220 0.929 . S
H230 C223 0.930 . S
C231 C232 1.351 . S
C231 N234 1.368 . S
C231 H236 0.931 . S
C232 C231 1.351 . S
C232 N233 1.373 . S
C232 H260 0.930 . S
N233 C232 1.373 . S
N233 C235 1.340 . S
N234 C231 1.368 . S
N234 C235 1.321 . S
N234 Co237 2.135 . S
C235 N233 1.340 . S
C235 N234 1.321 . S
C235 H259 0.930 . S
H236 C231 0.931 . S
Co237 N234 2.135 . S
Co237 N240 2.121 . S
Co237 O245 2.055 . S
Co237 O248 2.039 . S
Co237 N251 2.140 . S
C238 O239 1.227 . S
C238 O248 1.265 . S
O239 C238 1.227 . S
N240 Co237 2.121 . S
N240 C242 1.375 . S
N240 C243 1.313 . S
C241 C242 1.338 . S
C241 N244 1.377 . S
C241 H261 0.930 . S
C242 N240 1.375 . S
C242 C241 1.338 . S
C242 H246 0.931 . S
C243 N240 1.313 . S
C243 N244 1.344 . S
C243 H247 0.930 . S
N244 C241 1.377 . S
N244 C243 1.344 . S
O245 Co237 2.055 . S
O245 C249 1.253 . S
H246 C242 0.931 . S
H247 C243 0.930 . S
O248 Co237 2.039 . S
O248 C238 1.265 . S
C249 O245 1.253 . S
C249 O250 1.227 . S
O250 C249 1.227 . S
N251 Co237 2.140 . S
N251 C254 1.346 . S
N251 C255 1.345 . S
C252 C253 1.387 . S
C252 C256 1.391 . S
C253 C252 1.387 . S
C253 C254 1.369 . S
C253 H262 0.929 . S
C254 N251 1.346 . S
C254 C253 1.369 . S
C254 H257 0.928 . S
C255 N251 1.345 . S
C255 C256 1.371 . S
C255 H258 0.931 . S
C256 C252 1.391 . S
C256 C255 1.371 . S
C256 H263 0.930 . S
H257 C254 0.928 . S
H258 C255 0.931 . S
H259 C235 0.930 . S
H260 C232 0.930 . S
H261 C241 0.930 . S
H262 C253 0.929 . S
H263 C256 0.930 . S
C264 C265 1.351 . S
C264 N267 1.368 . S
C264 H269 0.931 . S
C265 C264 1.351 . S
C265 N266 1.373 . S
C265 H293 0.930 . S
N266 C265 1.373 . S
N266 C268 1.340 . S
N267 C264 1.368 . S
N267 C268 1.321 . S
N267 Co270 2.135 . S
C268 N266 1.340 . S
C268 N267 1.321 . S
C268 H292 0.930 . S
H269 C264 0.931 . S
Co270 N267 2.135 . S
Co270 N273 2.121 . S
Co270 O278 2.055 . S
Co270 O281 2.039 . S
Co270 N284 2.140 . S
C271 O272 1.227 . S
C271 O281 1.265 . S
O272 C271 1.227 . S
N273 Co270 2.121 . S
N273 C275 1.375 . S
N273 C276 1.313 . S
C274 C275 1.338 . S
C274 N277 1.377 . S
C274 H294 0.930 . S
C275 N273 1.375 . S
C275 C274 1.338 . S
C275 H279 0.931 . S
C276 N273 1.313 . S
C276 N277 1.344 . S
C276 H280 0.930 . S
N277 C274 1.377 . S
N277 C276 1.344 . S
O278 Co270 2.055 . S
O278 C282 1.253 . S
H279 C275 0.931 . S
H280 C276 0.930 . S
O281 Co270 2.039 . S
O281 C271 1.265 . S
C282 O278 1.253 . S
C282 O283 1.227 . S
O283 C282 1.227 . S
N284 Co270 2.140 . S
N284 C287 1.346 . S
N284 C288 1.345 . S
C285 C286 1.387 . S
C285 C289 1.391 . S
C286 C285 1.387 . S
C286 C287 1.369 . S
C286 H295 0.929 . S
C287 N284 1.346 . S
C287 C286 1.369 . S
C287 H290 0.928 . S
C288 N284 1.345 . S
C288 C289 1.371 . S
C288 H291 0.931 . S
C289 C285 1.391 . S
C289 C288 1.371 . S
C289 H296 0.930 . S
H290 C287 0.928 . S
H291 C288 0.931 . S
H292 C268 0.930 . S
H293 C265 0.930 . S
H294 C274 0.930 . S
H295 C286 0.929 . S
H296 C289 0.930 . S
C297 C298 1.351 . S
C297 N300 1.368 . S
C297 H302 0.931 . S
C298 C297 1.351 . S
C298 N299 1.373 . S
C298 H326 0.930 . S
N299 C298 1.373 . S
N299 C301 1.340 . S
N300 C297 1.368 . S
N300 C301 1.321 . S
N300 Co303 2.135 . S
C301 N299 1.340 . S
C301 N300 1.321 . S
C301 H325 0.930 . S
H302 C297 0.931 . S
Co303 N300 2.135 . S
Co303 N306 2.121 . S
Co303 O311 2.055 . S
Co303 O314 2.039 . S
Co303 N317 2.140 . S
C304 O305 1.227 . S
C304 O314 1.265 . S
O305 C304 1.227 . S
N306 Co303 2.121 . S
N306 C308 1.375 . S
N306 C309 1.313 . S
C307 C308 1.338 . S
C307 N310 1.377 . S
C307 H327 0.930 . S
C308 N306 1.375 . S
C308 C307 1.338 . S
C308 H312 0.931 . S
C309 N306 1.313 . S
C309 N310 1.344 . S
C309 H313 0.930 . S
N310 C307 1.377 . S
N310 C309 1.344 . S
O311 Co303 2.055 . S
O311 C315 1.253 . S
H312 C308 0.931 . S
H313 C309 0.930 . S
O314 Co303 2.039 . S
O314 C304 1.265 . S
C315 O311 1.253 . S
C315 O316 1.227 . S
O316 C315 1.227 . S
N317 Co303 2.140 . S
N317 C320 1.346 . S
N317 C321 1.345 . S
C318 C319 1.387 . S
C318 C322 1.391 . S
C319 C318 1.387 . S
C319 C320 1.369 . S
C319 H328 0.929 . S
C320 N317 1.346 . S
C320 C319 1.369 . S
C320 H323 0.928 . S
C321 N317 1.345 . S
C321 C322 1.371 . S
C321 H324 0.931 . S
C322 C318 1.391 . S
C322 C321 1.371 . S
C322 H329 0.930 . S
H323 C320 0.928 . S
H324 C321 0.931 . S
H325 C301 0.930 . S
H326 C298 0.930 . S
H327 C307 0.930 . S
H328 C319 0.929 . S
H329 C322 0.930 . S
C330 C331 1.351 . S
C330 N333 1.368 . S
C330 H335 0.931 . S
C331 C330 1.351 . S
C331 N332 1.373 . S
C331 H359 0.930 . S
N332 C331 1.373 . S
N332 C334 1.340 . S
N333 C330 1.368 . S
N333 C334 1.321 . S
N333 Co336 2.135 . S
C334 N332 1.340 . S
C334 N333 1.321 . S
C334 H358 0.930 . S
H335 C330 0.931 . S
Co336 N333 2.135 . S
Co336 N339 2.121 . S
Co336 O344 2.055 . S
Co336 O347 2.039 . S
Co336 N350 2.140 . S
C337 O338 1.227 . S
C337 O347 1.265 . S
O338 C337 1.227 . S
N339 Co336 2.121 . S
N339 C341 1.375 . S
N339 C342 1.313 . S
C340 C341 1.338 . S
C340 N343 1.377 . S
C340 H360 0.930 . S
C341 N339 1.375 . S
C341 C340 1.338 . S
C341 H345 0.931 . S
C342 N339 1.313 . S
C342 N343 1.344 . S
C342 H346 0.930 . S
N343 C340 1.377 . S
N343 C342 1.344 . S
O344 Co336 2.055 . S
O344 C348 1.253 . S
H345 C341 0.931 . S
H346 C342 0.930 . S
O347 Co336 2.039 . S
O347 C337 1.265 . S
C348 O344 1.253 . S
C348 O349 1.227 . S
O349 C348 1.227 . S
N350 Co336 2.140 . S
N350 C353 1.346 . S
N350 C354 1.345 . S
C351 C352 1.387 . S
C351 C355 1.391 . S
C352 C351 1.387 . S
C352 C353 1.369 . S
C352 H361 0.929 . S
C353 N350 1.346 . S
C353 C352 1.369 . S
C353 H356 0.928 . S
C354 N350 1.345 . S
C354 C355 1.371 . S
C354 H357 0.931 . S
C355 C351 1.391 . S
C355 C354 1.371 . S
C355 H362 0.930 . S
H356 C353 0.928 . S
H357 C354 0.931 . S
H358 C334 0.930 . S
H359 C331 0.930 . S
H360 C340 0.930 . S
H361 C352 0.929 . S
H362 C355 0.930 . S
C363 C364 1.351 . S
C363 N366 1.368 . S
C363 H368 0.931 . S
C364 C363 1.351 . S
C364 N365 1.373 . S
C364 H392 0.930 . S
N365 C364 1.373 . S
N365 C367 1.340 . S
N366 C363 1.368 . S
N366 C367 1.321 . S
N366 Co369 2.135 . S
C367 N365 1.340 . S
C367 N366 1.321 . S
C367 H391 0.930 . S
H368 C363 0.931 . S
Co369 N366 2.135 . S
Co369 N372 2.121 . S
Co369 O377 2.055 . S
Co369 O380 2.039 . S
Co369 N383 2.140 . S
C370 O371 1.227 . S
C370 O380 1.265 . S
O371 C370 1.227 . S
N372 Co369 2.121 . S
N372 C374 1.375 . S
N372 C375 1.313 . S
C373 C374 1.338 . S
C373 N376 1.377 . S
C373 H393 0.930 . S
C374 N372 1.375 . S
C374 C373 1.338 . S
C374 H378 0.931 . S
C375 N372 1.313 . S
C375 N376 1.344 . S
C375 H379 0.930 . S
N376 C373 1.377 . S
N376 C375 1.344 . S
O377 Co369 2.055 . S
O377 C381 1.253 . S
H378 C374 0.931 . S
H379 C375 0.930 . S
O380 Co369 2.039 . S
O380 C370 1.265 . S
C381 O377 1.253 . S
C381 O382 1.227 . S
O382 C381 1.227 . S
N383 Co369 2.140 . S
N383 C386 1.346 . S
N383 C387 1.345 . S
C384 C385 1.387 . S
C384 C388 1.391 . S
C385 C384 1.387 . S
C385 C386 1.369 . S
C385 H394 0.929 . S
C386 N383 1.346 . S
C386 C385 1.369 . S
C386 H389 0.928 . S
C387 N383 1.345 . S
C387 C388 1.371 . S
C387 H390 0.931 . S
C388 C384 1.391 . S
C388 C387 1.371 . S
C388 H395 0.930 . S
H389 C386 0.928 . S
H390 C387 0.931 . S
H391 C367 0.930 . S
H392 C364 0.930 . S
H393 C373 0.930 . S
H394 C385 0.929 . S
H395 C388 0.930 . S
C396 C397 1.351 . S
C396 N399 1.368 . S
C396 H401 0.931 . S
C397 C396 1.351 . S
C397 N398 1.373 . S
C397 H425 0.930 . S
N398 C397 1.373 . S
N398 C400 1.340 . S
N399 C396 1.368 . S
N399 C400 1.321 . S
N399 Co402 2.135 . S
C400 N398 1.340 . S
C400 N399 1.321 . S
C400 H424 0.930 . S
H401 C396 0.931 . S
Co402 N399 2.135 . S
Co402 N405 2.121 . S
Co402 O410 2.055 . S
Co402 O413 2.039 . S
Co402 N416 2.140 . S
C403 O404 1.227 . S
C403 O413 1.265 . S
O404 C403 1.227 . S
N405 Co402 2.121 . S
N405 C407 1.375 . S
N405 C408 1.313 . S
C406 C407 1.338 . S
C406 N409 1.377 . S
C406 H426 0.930 . S
C407 N405 1.375 . S
C407 C406 1.338 . S
C407 H411 0.931 . S
C408 N405 1.313 . S
C408 N409 1.344 . S
C408 H412 0.930 . S
N409 C406 1.377 . S
N409 C408 1.344 . S
O410 Co402 2.055 . S
O410 C414 1.253 . S
H411 C407 0.931 . S
H412 C408 0.930 . S
O413 Co402 2.039 . S
O413 C403 1.265 . S
C414 O410 1.253 . S
C414 O415 1.227 . S
O415 C414 1.227 . S
N416 Co402 2.140 . S
N416 C419 1.346 . S
N416 C420 1.345 . S
C417 C418 1.387 . S
C417 C421 1.391 . S
C418 C417 1.387 . S
C418 C419 1.369 . S
C418 H427 0.929 . S
C419 N416 1.346 . S
C419 C418 1.369 . S
C419 H422 0.928 . S
C420 N416 1.345 . S
C420 C421 1.371 . S
C420 H423 0.931 . S
C421 C417 1.391 . S
C421 C420 1.371 . S
C421 H428 0.930 . S
H422 C419 0.928 . S
H423 C420 0.931 . S
H424 C400 0.930 . S
H425 C397 0.930 . S
H426 C406 0.930 . S
H427 C418 0.929 . S
H428 C421 0.930 . S
C429 C430 1.351 . S
C429 N432 1.368 . S
C429 H434 0.931 . S
C430 C429 1.351 . S
C430 N431 1.373 . S
C430 H458 0.930 . S
N431 C430 1.373 . S
N431 C433 1.340 . S
N432 C429 1.368 . S
N432 C433 1.321 . S
N432 Co435 2.135 . S
C433 N431 1.340 . S
C433 N432 1.321 . S
C433 H457 0.930 . S
H434 C429 0.931 . S
Co435 N432 2.135 . S
Co435 N438 2.121 . S
Co435 O443 2.055 . S
Co435 O446 2.039 . S
Co435 N449 2.140 . S
C436 O437 1.227 . S
C436 O446 1.265 . S
O437 C436 1.227 . S
N438 Co435 2.121 . S
N438 C440 1.375 . S
N438 C441 1.313 . S
C439 C440 1.338 . S
C439 N442 1.377 . S
C439 H459 0.930 . S
C440 N438 1.375 . S
C440 C439 1.338 . S
C440 H444 0.931 . S
C441 N438 1.313 . S
C441 N442 1.344 . S
C441 H445 0.930 . S
N442 C439 1.377 . S
N442 C441 1.344 . S
O443 Co435 2.055 . S
O443 C447 1.253 . S
H444 C440 0.931 . S
H445 C441 0.930 . S
O446 Co435 2.039 . S
O446 C436 1.265 . S
C447 O443 1.253 . S
C447 O448 1.227 . S
O448 C447 1.227 . S
N449 Co435 2.140 . S
N449 C452 1.346 . S
N449 C453 1.345 . S
C450 C451 1.387 . S
C450 C454 1.391 . S
C451 C450 1.387 . S
C451 C452 1.369 . S
C451 H460 0.929 . S
C452 N449 1.346 . S
C452 C451 1.369 . S
C452 H455 0.928 . S
C453 N449 1.345 . S
C453 C454 1.371 . S
C453 H456 0.931 . S
C454 C450 1.391 . S
C454 C453 1.371 . S
C454 H461 0.930 . S
H455 C452 0.928 . S
H456 C453 0.931 . S
H457 C433 0.930 . S
H458 C430 0.930 . S
H459 C439 0.930 . S
H460 C451 0.929 . S
H461 C454 0.930 . S
C462 C463 1.351 . S
C462 N465 1.368 . S
C462 H467 0.931 . S
C463 C462 1.351 . S
C463 N464 1.373 . S
C463 H491 0.930 . S
N464 C463 1.373 . S
N464 C466 1.340 . S
N465 C462 1.368 . S
N465 C466 1.321 . S
N465 Co468 2.135 . S
C466 N464 1.340 . S
C466 N465 1.321 . S
C466 H490 0.930 . S
H467 C462 0.931 . S
Co468 N465 2.135 . S
Co468 N471 2.121 . S
Co468 O476 2.055 . S
Co468 O479 2.039 . S
Co468 N482 2.140 . S
C469 O470 1.227 . S
C469 O479 1.265 . S
O470 C469 1.227 . S
N471 Co468 2.121 . S
N471 C473 1.375 . S
N471 C474 1.313 . S
C472 C473 1.338 . S
C472 N475 1.377 . S
C472 H492 0.930 . S
C473 N471 1.375 . S
C473 C472 1.338 . S
C473 H477 0.931 . S
C474 N471 1.313 . S
C474 N475 1.344 . S
C474 H478 0.930 . S
N475 C472 1.377 . S
N475 C474 1.344 . S
O476 Co468 2.055 . S
O476 C480 1.253 . S
H477 C473 0.931 . S
H478 C474 0.930 . S
O479 Co468 2.039 . S
O479 C469 1.265 . S
C480 O476 1.253 . S
C480 O481 1.227 . S
O481 C480 1.227 . S
N482 Co468 2.140 . S
N482 C485 1.346 . S
N482 C486 1.345 . S
C483 C484 1.387 . S
C483 C487 1.391 . S
C484 C483 1.387 . S
C484 C485 1.369 . S
C484 H493 0.929 . S
C485 N482 1.346 . S
C485 C484 1.369 . S
C485 H488 0.928 . S
C486 N482 1.345 . S
C486 C487 1.371 . S
C486 H489 0.931 . S
C487 C483 1.391 . S
C487 C486 1.371 . S
C487 H494 0.930 . S
H488 C485 0.928 . S
H489 C486 0.931 . S
H490 C466 0.930 . S
H491 C463 0.930 . S
H492 C472 0.930 . S
H493 C484 0.929 . S
H494 C487 0.930 . S
C495 C496 1.351 . S
C495 N498 1.368 . S
C495 H500 0.931 . S
C496 C495 1.351 . S
C496 N497 1.373 . S
C496 H524 0.930 . S
N497 C496 1.373 . S
N497 C499 1.340 . S
N498 C495 1.368 . S
N498 C499 1.321 . S
N498 Co501 2.135 . S
C499 N497 1.340 . S
C499 N498 1.321 . S
C499 H523 0.930 . S
H500 C495 0.931 . S
Co501 N498 2.135 . S
Co501 N504 2.121 . S
Co501 O509 2.055 . S
Co501 O512 2.039 . S
Co501 N515 2.140 . S
C502 O503 1.227 . S
C502 O512 1.265 . S
O503 C502 1.227 . S
N504 Co501 2.121 . S
N504 C506 1.375 . S
N504 C507 1.313 . S
C505 C506 1.338 . S
C505 N508 1.377 . S
C505 H525 0.930 . S
C506 N504 1.375 . S
C506 C505 1.338 . S
C506 H510 0.931 . S
C507 N504 1.313 . S
C507 N508 1.344 . S
C507 H511 0.930 . S
N508 C505 1.377 . S
N508 C507 1.344 . S
O509 Co501 2.055 . S
O509 C513 1.253 . S
H510 C506 0.931 . S
H511 C507 0.930 . S
O512 Co501 2.039 . S
O512 C502 1.265 . S
C513 O509 1.253 . S
C513 O514 1.227 . S
O514 C513 1.227 . S
N515 Co501 2.140 . S
N515 C518 1.346 . S
N515 C519 1.345 . S
C516 C517 1.387 . S
C516 C520 1.391 . S
C517 C516 1.387 . S
C517 C518 1.369 . S
C517 H526 0.929 . S
C518 N515 1.346 . S
C518 C517 1.369 . S
C518 H521 0.928 . S
C519 N515 1.345 . S
C519 C520 1.371 . S
C519 H522 0.931 . S
C520 C516 1.391 . S
C520 C519 1.371 . S
C520 H527 0.930 . S
H521 C518 0.928 . S
H522 C519 0.931 . S
H523 C499 0.930 . S
H524 C496 0.930 . S
H525 C505 0.930 . S
H526 C517 0.929 . S
H527 C520 0.930 . S
H528 C534 0.930 . S
H529 C538 0.930 . S
H530 C543 0.929 . S
H531 C541 0.929 . S
H532 C536 0.929 . S
H533 C542 0.929 . S
C534 H528 0.930 . S
C534 C535 1.367 . S
C534 C542 1.378 . S
C535 C534 1.367 . S
C535 C543 1.433 . S
C536 H532 0.929 . S
C536 C538 1.378 . S
C536 C540 1.350 . S
C537 C540 1.463 1_655 S
C537 C542 1.350 . S
C537 N545 1.427 . S
C538 H529 0.930 . S
C538 C536 1.378 . S
C538 C539 1.367 . S
C539 C538 1.367 . S
C539 C541 1.433 . S
C540 C536 1.350 . S
C540 C537 1.463 1_455 S
C540 N544 1.427 . S
C541 H531 0.929 . S
C541 C539 1.433 . S
C541 N544 1.384 . S
C542 H533 0.929 . S
C542 C534 1.378 . S
C542 C537 1.350 . S
C543 H530 0.929 . S
C543 C535 1.433 . S
C543 N545 1.384 . S
N544 C540 1.427 . S
N544 C541 1.384 . S
N545 C537 1.427 . S
N545 C543 1.384 . S
H546 C552 0.930 . S
H547 C556 0.930 . S
H548 C561 0.929 . S
H549 C559 0.929 . S
H550 C554 0.929 . S
H551 C560 0.929 . S
C552 H546 0.930 . S
C552 C553 1.367 . S
C552 C560 1.378 . S
C553 C552 1.367 . S
C553 C561 1.433 . S
C554 H550 0.929 . S
C554 C556 1.378 . S
C554 C558 1.350 . S
C555 C558 1.463 . S
C555 C560 1.350 . S
C555 N563 1.427 . S
C556 H547 0.930 . S
C556 C554 1.378 . S
C556 C557 1.367 . S
C557 C556 1.367 . S
C557 C559 1.433 . S
C558 C554 1.350 . S
C558 C555 1.463 . S
C558 N562 1.427 . S
C559 H549 0.929 . S
C559 C557 1.433 . S
C559 N562 1.384 . S
C560 H551 0.929 . S
C560 C552 1.378 . S
C560 C555 1.350 . S
C561 H548 0.929 . S
C561 C553 1.433 . S
C561 N563 1.384 . S
N562 C558 1.427 . S
N562 C559 1.384 . S
N563 C555 1.427 . S
N563 C561 1.384 . S
H564 C570 0.930 . S
H565 C574 0.930 . S
H566 C579 0.929 . S
H567 C577 0.929 . S
H568 C572 0.929 1_655 S
H569 C578 0.929 1_455 S
C570 H564 0.930 . S
C570 C571 1.367 . S
C570 C578 1.378 . S
C571 C570 1.367 . S
C571 C579 1.433 . S
C572 H568 0.929 1_455 S
C572 C574 1.378 . S
C572 C576 1.350 . S
C573 C576 1.463 1_655 S
C573 C578 1.350 . S
C573 N581 1.427 . S
C574 H565 0.930 . S
C574 C572 1.378 . S
C574 C575 1.367 . S
C575 C574 1.367 . S
C575 C577 1.433 . S
C576 C572 1.350 . S
C576 C573 1.463 1_455 S
C576 N580 1.427 . S
C577 H567 0.929 . S
C577 C575 1.433 . S
C577 N580 1.384 . S
C578 H569 0.929 1_655 S
C578 C570 1.378 . S
C578 C573 1.350 . S
C579 H566 0.929 . S
C579 C571 1.433 . S
C579 N581 1.384 . S
N580 C576 1.427 . S
N580 C577 1.384 . S
N581 C573 1.427 . S
N581 C579 1.384 . S
H582 C588 0.930 . S
H583 C592 0.930 . S
H584 C597 0.929 . S
H585 C595 0.929 . S
H586 C590 0.929 . S
H587 C596 0.929 . S
C588 H582 0.930 . S
C588 C589 1.367 . S
C588 C596 1.378 . S
C589 C588 1.367 . S
C589 C597 1.433 . S
C590 H586 0.929 . S
C590 C592 1.378 . S
C590 C594 1.350 . S
C591 C594 1.463 . S
C591 C596 1.350 . S
C591 N599 1.427 . S
C592 H583 0.930 . S
C592 C590 1.378 . S
C592 C593 1.367 . S
C593 C592 1.367 . S
C593 C595 1.433 . S
C594 C590 1.350 . S
C594 C591 1.463 . S
C594 N598 1.427 . S
C595 H585 0.929 . S
C595 C593 1.433 . S
C595 N598 1.384 . S
C596 H587 0.929 . S
C596 C588 1.378 . S
C596 C591 1.350 . S
C597 H584 0.929 . S
C597 C589 1.433 . S
C597 N599 1.384 . S
N598 C594 1.427 . S
N598 C595 1.384 . S
N599 C591 1.427 . S
N599 C597 1.384 . S
H600 C606 0.930 . S
H601 C610 0.930 . S
H602 C615 0.929 . S
H603 C613 0.929 . S
H604 C608 0.929 . S
H605 C614 0.929 . S
C606 H600 0.930 . S
C606 C607 1.367 . S
C606 C614 1.378 . S
C607 C606 1.367 . S
C607 C615 1.433 . S
C608 H604 0.929 . S
C608 C610 1.378 . S
C608 C612 1.350 . S
C609 C612 1.463 . S
C609 C614 1.350 . S
C609 N617 1.427 . S
C610 H601 0.930 . S
C610 C608 1.378 . S
C610 C611 1.367 . S
C611 C610 1.367 . S
C611 C613 1.433 . S
C612 C608 1.350 . S
C612 C609 1.463 . S
C612 N616 1.427 . S
C613 H603 0.929 . S
C613 C611 1.433 . S
C613 N616 1.384 . S
C614 H605 0.929 . S
C614 C606 1.378 . S
C614 C609 1.350 . S
C615 H602 0.929 . S
C615 C607 1.433 . S
C615 N617 1.384 . S
N616 C612 1.427 . S
N616 C613 1.384 . S
N617 C609 1.427 . S
N617 C615 1.384 . S
H618 C624 0.930 . S
H619 C628 0.930 . S
H620 C633 0.929 . S
H621 C631 0.929 . S
H622 C626 0.929 . S
H623 C632 0.929 . S
C624 H618 0.930 . S
C624 C625 1.367 . S
C624 C632 1.378 1_655 S
C625 C624 1.367 . S
C625 C633 1.433 . S
C626 H622 0.929 . S
C626 C628 1.378 1_655 S
C626 C630 1.350 1_655 S
C627 C630 1.463 1_655 S
C627 C632 1.350 1_655 S
C627 N635 1.427 . S
C628 H619 0.930 . S
C628 C626 1.378 1_455 S
C628 C629 1.367 . S
C629 C628 1.367 . S
C629 C631 1.433 . S
C630 C626 1.350 1_455 S
C630 C627 1.463 1_455 S
C630 N634 1.427 . S
C631 H621 0.929 . S
C631 C629 1.433 . S
C631 N634 1.384 . S
C632 H623 0.929 . S
C632 C624 1.378 1_455 S
C632 C627 1.350 1_455 S
C633 H620 0.929 . S
C633 C625 1.433 . S
C633 N635 1.384 . S
N634 C630 1.427 . S
N634 C631 1.384 . S
N635 C627 1.427 . S
N635 C633 1.384 . S
H636 C642 0.930 . S
H637 C646 0.930 . S
H638 C651 0.929 . S
H639 C649 0.929 . S
H640 C644 0.929 . S
H641 C650 0.929 . S
C642 H636 0.930 . S
C642 C643 1.367 . S
C642 C650 1.378 . S
C643 C642 1.367 . S
C643 C651 1.433 . S
C644 H640 0.929 . S
C644 C646 1.378 . S
C644 C648 1.350 . S
C645 C648 1.463 . S
C645 C650 1.350 . S
C645 N653 1.427 . S
C646 H637 0.930 . S
C646 C644 1.378 . S
C646 C647 1.367 . S
C647 C646 1.367 . S
C647 C649 1.433 . S
C648 C644 1.350 . S
C648 C645 1.463 . S
C648 N652 1.427 . S
C649 H639 0.929 . S
C649 C647 1.433 . S
C649 N652 1.384 . S
C650 H641 0.929 . S
C650 C642 1.378 . S
C650 C645 1.350 . S
C651 H638 0.929 . S
C651 C643 1.433 . S
C651 N653 1.384 . S
N652 C648 1.427 . S
N652 C649 1.384 . S
N653 C645 1.427 . S
N653 C651 1.384 . S
H654 C660 0.930 . S
H655 C664 0.930 . S
H656 C669 0.929 . S
H657 C667 0.929 . S
H658 C662 0.929 . S
H659 C668 0.929 . S
C660 H654 0.930 . S
C660 C661 1.367 . S
C660 C668 1.378 . S
C661 C660 1.367 . S
C661 C669 1.433 . S
C662 H658 0.929 . S
C662 C664 1.378 . S
C662 C666 1.350 . S
C663 C666 1.463 1_655 S
C663 C668 1.350 . S
C663 N671 1.427 . S
C664 H655 0.930 . S
C664 C662 1.378 . S
C664 C665 1.367 . S
C665 C664 1.367 . S
C665 C667 1.433 . S
C666 C662 1.350 . S
C666 C663 1.463 1_455 S
C666 N670 1.427 . S
C667 H657 0.929 . S
C667 C665 1.433 . S
C667 N670 1.384 . S
C668 H659 0.929 . S
C668 C660 1.378 . S
C668 C663 1.350 . S
C669 H656 0.929 . S
C669 C661 1.433 . S
C669 N671 1.384 . S
N670 C666 1.427 . S
N670 C667 1.384 . S
N671 C663 1.427 . S
N671 C669 1.384 . S
H672 C678 0.930 . S
H673 C682 0.930 . S
H674 C687 0.929 . S
H675 C685 0.929 . S
H676 C680 0.929 . S
H677 C686 0.929 . S
C678 H672 0.930 . S
C678 C679 1.367 . S
C678 C686 1.378 . S
C679 C678 1.367 . S
C679 C687 1.433 . S
C680 H676 0.929 . S
C680 C682 1.378 . S
C680 C684 1.350 . S
C681 C684 1.463 . S
C681 C686 1.350 . S
C681 N689 1.427 . S
C682 H673 0.930 . S
C682 C680 1.378 . S
C682 C683 1.367 . S
C683 C682 1.367 . S
C683 C685 1.433 . S
C684 C680 1.350 . S
C684 C681 1.463 . S
C684 N688 1.427 . S
C685 H675 0.929 . S
C685 C683 1.433 . S
C685 N688 1.384 . S
C686 H677 0.929 . S
C686 C678 1.378 . S
C686 C681 1.350 . S
C687 H674 0.929 . S
C687 C679 1.433 . S
C687 N689 1.384 . S
N688 C684 1.427 . S
N688 C685 1.384 . S
N689 C681 1.427 . S
N689 C687 1.384 . S
H690 C696 0.930 . S
H691 C700 0.930 . S
H692 C705 0.929 . S
H693 C703 0.929 . S
H694 C698 0.929 . S
H695 C704 0.929 . S
C696 H690 0.930 . S
C696 C697 1.367 . S
C696 C704 1.378 . S
C697 C696 1.367 . S
C697 C705 1.433 . S
C698 H694 0.929 . S
C698 C700 1.378 . S
C698 C702 1.350 . S
C699 C702 1.463 . S
C699 C704 1.350 . S
C699 N707 1.427 . S
C700 H691 0.930 . S
C700 C698 1.378 . S
C700 C701 1.367 . S
C701 C700 1.367 . S
C701 C703 1.433 . S
C702 C698 1.350 . S
C702 C699 1.463 . S
C702 N706 1.427 . S
C703 H693 0.929 . S
C703 C701 1.433 . S
C703 N706 1.384 . S
C704 H695 0.929 . S
C704 C696 1.378 . S
C704 C699 1.350 . S
C705 H692 0.929 . S
C705 C697 1.433 . S
C705 N707 1.384 . S
N706 C702 1.427 . S
N706 C703 1.384 . S
N707 C699 1.427 . S
N707 C705 1.384 . S
H708 C714 0.930 . S
H709 C718 0.930 . S
H710 C723 0.929 . S
H711 C721 0.929 . S
H712 C716 0.929 . S
H713 C722 0.929 . S
C714 H708 0.930 . S
C714 C715 1.367 . S
C714 C722 1.378 . S
C715 C714 1.367 . S
C715 C723 1.433 . S
C716 H712 0.929 . S
C716 C718 1.378 . S
C716 C720 1.350 . S
C717 C720 1.463 . S
C717 C722 1.350 . S
C717 N725 1.427 . S
C718 H709 0.930 . S
C718 C716 1.378 . S
C718 C719 1.367 . S
C719 C718 1.367 . S
C719 C721 1.433 . S
C720 C716 1.350 . S
C720 C717 1.463 . S
C720 N724 1.427 . S
C721 H711 0.929 . S
C721 C719 1.433 . S
C721 N724 1.384 . S
C722 H713 0.929 . S
C722 C714 1.378 . S
C722 C717 1.350 . S
C723 H710 0.929 . S
C723 C715 1.433 . S
C723 N725 1.384 . S
N724 C720 1.427 . S
N724 C721 1.384 . S
N725 C717 1.427 . S
N725 C723 1.384 . S
H726 C732 0.930 . S
H727 C736 0.930 . S
H728 C741 0.929 . S
H729 C739 0.929 . S
H730 C734 0.929 . S
H731 C740 0.929 . S
C732 H726 0.930 . S
C732 C733 1.367 . S
C732 C740 1.378 . S
C733 C732 1.367 . S
C733 C741 1.433 . S
C734 H730 0.929 . S
C734 C736 1.378 . S
C734 C738 1.350 . S
C735 C738 1.463 . S
C735 C740 1.350 . S
C735 N743 1.427 . S
C736 H727 0.930 . S
C736 C734 1.378 . S
C736 C737 1.367 . S
C737 C736 1.367 . S
C737 C739 1.433 . S
C738 C734 1.350 . S
C738 C735 1.463 . S
C738 N742 1.427 . S
C739 H729 0.929 . S
C739 C737 1.433 . S
C739 N742 1.384 . S
C740 H731 0.929 . S
C740 C732 1.378 . S
C740 C735 1.350 . S
C741 H728 0.929 . S
C741 C733 1.433 . S
C741 N743 1.384 . S
N742 C738 1.427 . S
N742 C739 1.384 . S
N743 C735 1.427 . S
N743 C741 1.384 . S
H744 C750 0.930 . S
H745 C754 0.930 . S
H746 C759 0.929 . S
H747 C757 0.929 . S
H748 C752 0.929 . S
H749 C758 0.929 . S
C750 H744 0.930 . S
C750 C751 1.367 . S
C750 C758 1.378 . S
C751 C750 1.367 . S
C751 C759 1.433 . S
C752 H748 0.929 . S
C752 C754 1.378 . S
C752 C756 1.350 . S
C753 C756 1.463 . S
C753 C758 1.350 . S
C753 N761 1.427 . S
C754 H745 0.930 . S
C754 C752 1.378 . S
C754 C755 1.367 . S
C755 C754 1.367 . S
C755 C757 1.433 . S
C756 C752 1.350 . S
C756 C753 1.463 . S
C756 N760 1.427 . S
C757 H747 0.929 . S
C757 C755 1.433 . S
C757 N760 1.384 . S
C758 H749 0.929 . S
C758 C750 1.378 . S
C758 C753 1.350 . S
C759 H746 0.929 . S
C759 C751 1.433 . S
C759 N761 1.384 . S
N760 C756 1.427 . S
N760 C757 1.384 . S
N761 C753 1.427 . S
N761 C759 1.384 . S
H762 C768 0.930 . S
H763 C772 0.930 . S
H764 C777 0.929 . S
H765 C775 0.929 . S
H766 C770 0.929 . S
H767 C776 0.929 . S
C768 H762 0.930 . S
C768 C769 1.367 . S
C768 C776 1.378 . S
C769 C768 1.367 . S
C769 C777 1.433 . S
C770 H766 0.929 . S
C770 C772 1.378 . S
C770 C774 1.350 . S
C771 C774 1.463 . S
C771 C776 1.350 . S
C771 N779 1.427 . S
C772 H763 0.930 . S
C772 C770 1.378 . S
C772 C773 1.367 . S
C773 C772 1.367 . S
C773 C775 1.433 . S
C774 C770 1.350 . S
C774 C771 1.463 . S
C774 N778 1.427 . S
C775 H765 0.929 . S
C775 C773 1.433 . S
C775 N778 1.384 . S
C776 H767 0.929 . S
C776 C768 1.378 . S
C776 C771 1.350 . S
C777 H764 0.929 . S
C777 C769 1.433 . S
C777 N779 1.384 . S
N778 C774 1.427 . S
N778 C775 1.384 . S
N779 C771 1.427 . S
N779 C777 1.384 . S
H780 C786 0.930 . S
H781 C790 0.930 . S
H782 C795 0.929 . S
H783 C793 0.929 . S
H784 C788 0.929 . S
H785 C794 0.929 . S
C786 H780 0.930 . S
C786 C787 1.367 . S
C786 C794 1.378 . S
C787 C786 1.367 . S
C787 C795 1.433 . S
C788 H784 0.929 . S
C788 C790 1.378 . S
C788 C792 1.350 . S
C789 C792 1.463 . S
C789 C794 1.350 . S
C789 N797 1.427 . S
C790 H781 0.930 . S
C790 C788 1.378 . S
C790 C791 1.367 . S
C791 C790 1.367 . S
C791 C793 1.433 . S
C792 C788 1.350 . S
C792 C789 1.463 . S
C792 N796 1.427 . S
C793 H783 0.929 . S
C793 C791 1.433 . S
C793 N796 1.384 . S
C794 H785 0.929 . S
C794 C786 1.378 . S
C794 C789 1.350 . S
C795 H782 0.929 . S
C795 C787 1.433 . S
C795 N797 1.384 . S
N796 C792 1.427 . S
N796 C793 1.384 . S
N797 C789 1.427 . S
N797 C795 1.384 . S
H798 C804 0.930 . S
H799 C808 0.930 . S
H800 C813 0.929 . S
H801 C811 0.929 . S
H802 C806 0.929 . S
H803 C812 0.929 . S
C804 H798 0.930 . S
C804 C805 1.367 . S
C804 C812 1.378 . S
C805 C804 1.367 . S
C805 C813 1.433 . S
C806 H802 0.929 . S
C806 C808 1.378 . S
C806 C810 1.350 . S
C807 C810 1.463 . S
C807 C812 1.350 . S
C807 N815 1.427 . S
C808 H799 0.930 . S
C808 C806 1.378 . S
C808 C809 1.367 . S
C809 C808 1.367 . S
C809 C811 1.433 . S
C810 C806 1.350 . S
C810 C807 1.463 . S
C810 N814 1.427 . S
C811 H801 0.929 . S
C811 C809 1.433 . S
C811 N814 1.384 . S
C812 H803 0.929 . S
C812 C804 1.378 . S
C812 C807 1.350 . S
C813 H800 0.929 . S
C813 C805 1.433 . S
C813 N815 1.384 . S
N814 C810 1.427 . S
N814 C811 1.384 . S
N815 C807 1.427 . S
N815 C813 1.384 . S
H816 C822 0.930 . S
H817 C826 0.930 . S
H818 C831 0.929 . S
H819 C829 0.929 . S
H820 C824 0.960 . S
H821 C830 0.960 . S
C822 H816 0.930 . S
C822 C823 1.367 . S
C822 C830 1.358 1_455 S
C823 C822 1.367 . S
C823 C831 1.433 . S
C824 H820 0.960 . S
C824 C826 1.358 1_455 S
C824 C828 1.339 1_455 S
C825 C828 1.463 1_445 S
C825 C830 1.339 1_455 S
C825 N833 1.427 1_545 S
C826 H817 0.930 . S
C826 C824 1.358 1_655 S
C826 C827 1.367 . S
C827 C826 1.367 . S
C827 C829 1.433 . S
C828 C824 1.339 1_655 S
C828 C825 1.463 1_665 S
C828 N832 1.427 1_565 S
C829 H819 0.929 . S
C829 C827 1.433 . S
C829 N832 1.384 1_565 S
C830 H821 0.960 . S
C830 C822 1.358 1_655 S
C830 C825 1.339 1_655 S
C831 H818 0.929 . S
C831 C823 1.433 . S
C831 N833 1.384 1_545 S
N832 C828 1.427 1_545 S
N832 C829 1.384 1_545 S
N833 C825 1.427 1_565 S
N833 C831 1.384 1_565 S
H834 C840 0.930 . S
H835 C844 0.930 . S
H836 C849 0.929 . S
H837 C847 0.929 . S
H838 C842 0.929 . S
H839 C848 0.929 . S
C840 H834 0.930 . S
C840 C841 1.367 . S
C840 C848 1.378 . S
C841 C840 1.367 . S
C841 C849 1.433 . S
C842 H838 0.929 . S
C842 C844 1.378 . S
C842 C846 1.350 . S
C843 C846 1.463 1_565 S
C843 C848 1.350 . S
C843 N851 1.419 1_565 S
C844 H835 0.930 . S
C844 C842 1.378 . S
C844 C845 1.367 . S
C845 C844 1.367 . S
C845 C847 1.433 . S
C846 C842 1.350 . S
C846 C843 1.463 1_545 S
C846 N850 1.419 1_545 S
C847 H837 0.929 . S
C847 C845 1.433 . S
C847 N850 1.370 1_545 S
C848 H839 0.929 . S
C848 C840 1.378 . S
C848 C843 1.350 . S
C849 H836 0.929 . S
C849 C841 1.433 . S
C849 N851 1.370 1_565 S
N850 C846 1.419 1_565 S
N850 C847 1.370 1_565 S
N851 C843 1.419 1_545 S
N851 C849 1.370 1_545 S
H852 C858 0.930 . S
H853 C862 0.930 . S
H854 C867 0.929 . S
H855 C865 0.929 . S
H856 C860 0.929 . S
H857 C866 0.929 . S
C858 H852 0.930 . S
C858 C859 1.367 . S
C858 C866 1.378 . S
C859 C858 1.367 . S
C859 C867 1.433 . S
C860 H856 0.929 . S
C860 C862 1.378 . S
C860 C864 1.350 . S
C861 C864 1.463 1_546 S
C861 C866 1.350 . S
C861 N869 1.424 1_556 S
C862 H853 0.930 . S
C862 C860 1.378 . S
C862 C863 1.367 . S
C863 C862 1.367 . S
C863 C865 1.433 . S
C864 C860 1.350 . S
C864 C861 1.463 1_564 S
C864 N868 1.424 1_554 S
C865 H855 0.929 . S
C865 C863 1.433 . S
C865 N868 1.378 1_554 S
C866 H857 0.929 . S
C866 C858 1.378 . S
C866 C861 1.350 . S
C867 H854 0.929 . S
C867 C859 1.433 . S
C867 N869 1.378 1_556 S
N868 C864 1.424 1_556 S
N868 C865 1.378 1_556 S
N869 C861 1.424 1_554 S
N869 C867 1.378 1_554 S
H870 C876 0.930 . S
H871 C880 0.930 . S
H872 C885 0.929 1_565 S
H873 C883 0.929 1_545 S
H874 C878 0.929 1_655 S
H875 C884 0.929 1_455 S
C876 H870 0.930 . S
C876 C877 1.367 . S
C876 C884 1.378 . S
C877 C876 1.367 . S
C877 C885 1.433 . S
C878 H874 0.929 1_455 S
C878 C880 1.378 . S
C878 C882 1.350 . S
C879 C882 1.463 1_644 S
C879 C884 1.350 . S
C879 N887 1.427 1_545 S
C880 H871 0.930 . S
C880 C878 1.378 . S
C880 C881 1.367 . S
C881 C880 1.367 . S
C881 C883 1.433 . S
C882 C878 1.350 . S
C882 C879 1.463 1_466 S
C882 N886 1.427 1_565 S
C883 H873 0.929 1_565 S
C883 C881 1.433 . S
C883 N886 1.384 1_565 S
C884 H875 0.929 1_655 S
C884 C876 1.378 . S
C884 C879 1.350 . S
C885 H872 0.929 1_545 S
C885 C877 1.433 . S
C885 N887 1.384 1_545 S
N886 C882 1.427 1_545 S
N886 C883 1.384 1_545 S
N887 C879 1.427 1_565 S
N887 C885 1.384 1_565 S
H888 C894 0.930 . S
H889 C898 0.930 . S
H890 C903 0.929 . S
H891 C901 0.929 . S
H892 C896 0.929 . S
H893 C902 0.929 . S
C894 H888 0.930 . S
C894 C895 1.367 . S
C894 C902 1.378 . S
C895 C894 1.367 . S
C895 C903 1.433 . S
C896 H892 0.929 . S
C896 C898 1.378 . S
C896 C900 1.350 . S
C897 C900 1.463 . S
C897 C902 1.350 . S
C897 N905 1.427 . S
C898 H889 0.930 . S
C898 C896 1.378 . S
C898 C899 1.367 . S
C899 C898 1.367 . S
C899 C901 1.433 . S
C900 C896 1.350 . S
C900 C897 1.463 . S
C900 N904 1.427 . S
C901 H891 0.929 . S
C901 C899 1.433 . S
C901 N904 1.384 . S
C902 H893 0.929 . S
C902 C894 1.378 . S
C902 C897 1.350 . S
C903 H890 0.929 . S
C903 C895 1.433 . S
C903 N905 1.384 . S
N904 C900 1.427 . S
N904 C901 1.384 . S
N905 C897 1.427 . S
N905 C903 1.384 . S
H906 C912 0.930 . S
H907 C916 0.930 . S
H908 C921 0.929 . S
H909 C919 0.929 . S
H910 C914 0.929 1_455 S
H911 C920 0.929 1_655 S
C912 H906 0.930 . S
C912 C913 1.367 . S
C912 C920 1.378 . S
C913 C912 1.367 . S
C913 C921 1.433 . S
C914 H910 0.929 1_655 S
C914 C916 1.378 . S
C914 C918 1.350 . S
C915 C918 1.463 1_455 S
C915 C920 1.350 . S
C915 N923 1.427 . S
C916 H907 0.930 . S
C916 C914 1.378 . S
C916 C917 1.367 . S
C917 C916 1.367 . S
C917 C919 1.433 . S
C918 C914 1.350 . S
C918 C915 1.463 1_655 S
C918 N922 1.427 . S
C919 H909 0.929 . S
C919 C917 1.433 . S
C919 N922 1.384 . S
C920 H911 0.929 1_455 S
C920 C912 1.378 . S
C920 C915 1.350 . S
C921 H908 0.929 . S
C921 C913 1.433 . S
C921 N923 1.384 . S
N922 C918 1.427 . S
N922 C919 1.384 . S
N923 C915 1.427 . S
N923 C921 1.384 . S
H924 C930 0.930 . S
H925 C934 0.930 . S
H926 C939 0.929 . S
H927 C937 0.929 . S
H928 C932 0.902 1_554 S
H929 C938 0.902 1_556 S
C930 H924 0.930 . S
C930 C931 1.367 . S
C930 C938 1.397 . S
C931 C930 1.367 . S
C931 C939 1.433 . S
C932 H928 0.902 1_556 S
C932 C934 1.397 . S
C932 C936 1.359 . S
C933 C936 1.463 1_454 S
C933 C938 1.359 . S
C933 N941 1.427 . S
C934 H925 0.930 . S
C934 C932 1.397 . S
C934 C935 1.367 . S
C935 C934 1.367 . S
C935 C937 1.433 . S
C936 C932 1.359 . S
C936 C933 1.463 1_656 S
C936 N940 1.427 . S
C937 H927 0.929 . S
C937 C935 1.433 . S
C937 N940 1.384 . S
C938 H929 0.902 1_554 S
C938 C930 1.397 . S
C938 C933 1.359 . S
C939 H926 0.929 . S
C939 C931 1.433 . S
C939 N941 1.384 . S
N940 C936 1.427 . S
N940 C937 1.384 . S
N941 C933 1.427 . S
N941 C939 1.384 . S
H942 C948 0.930 . S
H943 C952 0.930 . S
H944 C957 0.929 . S
H945 C955 0.929 . S
H946 C950 0.929 . S
H947 C956 0.929 . S
C948 H942 0.930 . S
C948 C949 1.367 . S
C948 C956 1.378 . S
C949 C948 1.367 . S
C949 C957 1.433 . S
C950 H946 0.929 . S
C950 C952 1.378 . S
C950 C954 1.350 . S
C951 C954 1.463 1_556 S
C951 C956 1.350 . S
C951 N959 1.427 . S
C952 H943 0.930 . S
C952 C950 1.378 . S
C952 C953 1.367 . S
C953 C952 1.367 . S
C953 C955 1.433 . S
C954 C950 1.350 . S
C954 C951 1.463 1_554 S
C954 N958 1.427 . S
C955 H945 0.929 . S
C955 C953 1.433 . S
C955 N958 1.384 . S
C956 H947 0.929 . S
C956 C948 1.378 . S
C956 C951 1.350 . S
C957 H944 0.929 . S
C957 C949 1.433 . S
C957 N959 1.384 . S
N958 C954 1.427 . S
N958 C955 1.384 . S
N959 C951 1.427 . S
N959 C957 1.384 . S
H960 C966 0.930 . S
H961 C970 0.930 . S
H962 C975 0.929 . S
H963 C973 0.929 . S
H964 C968 0.929 . S
H965 C974 0.929 . S
C966 H960 0.930 . S
C966 C967 1.367 . S
C966 C974 1.378 . S
C967 C966 1.367 . S
C967 C975 1.433 . S
C968 H964 0.929 . S
C968 C970 1.378 . S
C968 C972 1.350 . S
C969 C972 1.463 1_545 S
C969 C974 1.350 . S
C969 N977 1.427 . S
C970 H961 0.930 . S
C970 C968 1.378 . S
C970 C971 1.367 . S
C971 C970 1.367 . S
C971 C973 1.433 . S
C972 C968 1.350 . S
C972 C969 1.463 1_565 S
C972 N976 1.427 . S
C973 H963 0.929 . S
C973 C971 1.433 . S
C973 N976 1.384 . S
C974 H965 0.929 . S
C974 C966 1.378 . S
C974 C969 1.350 . S
C975 H962 0.929 . S
C975 C967 1.433 . S
C975 N977 1.384 . S
N976 C972 1.427 . S
N976 C973 1.384 . S
N977 C969 1.427 . S
N977 C975 1.384 . S
H978 C984 0.930 . S
H979 C988 0.930 . S
H980 C993 0.929 . S
H981 C991 0.929 . S
H982 C986 0.929 . S
H983 C992 0.929 . S
C984 H978 0.930 . S
C984 C985 1.367 . S
C984 C992 1.378 . S
C985 C984 1.367 . S
C985 C993 1.433 . S
C986 H982 0.929 . S
C986 C988 1.378 . S
C986 C990 1.350 . S
C987 C990 1.463 1_545 S
C987 C992 1.350 . S
C987 N995 1.427 . S
C988 H979 0.930 . S
C988 C986 1.378 . S
C988 C989 1.367 . S
C989 C988 1.367 . S
C989 C991 1.433 . S
C990 C986 1.350 . S
C990 C987 1.463 1_565 S
C990 N994 1.427 . S
C991 H981 0.929 . S
C991 C989 1.433 . S
C991 N994 1.384 . S
C992 H983 0.929 . S
C992 C984 1.378 . S
C992 C987 1.350 . S
C993 H980 0.929 . S
C993 C985 1.433 . S
C993 N995 1.384 . S
N994 C990 1.427 . S
N994 C991 1.384 . S
N995 C987 1.427 . S
N995 C993 1.384 . S
H996 C1002 0.930 . S
H997 C1006 0.930 . S
H998 C1011 0.929 . S
H999 C1009 0.929 . S
H1000 C1004 0.929 1_545 S
H1001 C1010 0.929 1_565 S
C1002 H996 0.930 . S
C1002 C1003 1.367 . S
C1002 C1010 1.378 . S
C1003 C1002 1.367 . S
C1003 C1011 1.433 . S
C1004 H1000 0.929 1_565 S
C1004 C1006 1.378 . S
C1004 C1008 1.350 . S
C1005 C1008 1.463 1_545 S
C1005 C1010 1.350 . S
C1005 N1013 1.427 . S
C1006 H997 0.930 . S
C1006 C1004 1.378 . S
C1006 C1007 1.367 . S
C1007 C1006 1.367 . S
C1007 C1009 1.433 . S
C1008 C1004 1.350 . S
C1008 C1005 1.463 1_565 S
C1008 N1012 1.427 . S
C1009 H999 0.929 . S
C1009 C1007 1.433 . S
C1009 N1012 1.384 . S
C1010 H1001 0.929 1_545 S
C1010 C1002 1.378 . S
C1010 C1005 1.350 . S
C1011 H998 0.929 . S
C1011 C1003 1.433 . S
C1011 N1013 1.384 . S
N1012 C1008 1.427 . S
N1012 C1009 1.384 . S
N1013 C1005 1.427 . S
N1013 C1011 1.384 . S
H1014 C1020 0.930 . S
H1015 C1024 0.930 . S
H1016 C1029 0.929 . S
H1017 C1027 0.929 . S
H1018 C1022 0.929 . S
H1019 C1028 0.929 . S
C1020 H1014 0.930 . S
C1020 C1021 1.367 . S
C1020 C1028 1.378 . S
C1021 C1020 1.367 . S
C1021 C1029 1.433 . S
C1022 H1018 0.929 . S
C1022 C1024 1.378 . S
C1022 C1026 1.350 . S
C1023 C1026 1.463 1_545 S
C1023 C1028 1.350 . S
C1023 N1031 1.427 . S
C1024 H1015 0.930 . S
C1024 C1022 1.378 . S
C1024 C1025 1.367 . S
C1025 C1024 1.367 . S
C1025 C1027 1.433 . S
C1026 C1022 1.350 . S
C1026 C1023 1.463 1_565 S
C1026 N1030 1.427 . S
C1027 H1017 0.929 . S
C1027 C1025 1.433 . S
C1027 N1030 1.384 . S
C1028 H1019 0.929 . S
C1028 C1020 1.378 . S
C1028 C1023 1.350 . S
C1029 H1016 0.929 . S
C1029 C1021 1.433 . S
C1029 N1031 1.384 . S
N1030 C1026 1.427 . S
N1030 C1027 1.384 . S
N1031 C1023 1.427 . S
N1031 C1029 1.384 . S
H1032 C1038 0.930 . S
H1033 C1042 0.930 . S
H1034 C1047 0.929 . S
H1035 C1045 0.929 . S
H1036 C1040 0.929 . S
H1037 C1046 0.929 . S
C1038 H1032 0.930 . S
C1038 C1039 1.367 . S
C1038 C1046 1.378 . S
C1039 C1038 1.367 . S
C1039 C1047 1.433 . S
C1040 H1036 0.929 . S
C1040 C1042 1.378 . S
C1040 C1044 1.350 . S
C1041 C1044 1.463 . S
C1041 C1046 1.350 . S
C1041 N1049 1.427 . S
C1042 H1033 0.930 . S
C1042 C1040 1.378 . S
C1042 C1043 1.367 . S
C1043 C1042 1.367 . S
C1043 C1045 1.433 . S
C1044 C1040 1.350 . S
C1044 C1041 1.463 . S
C1044 N1048 1.427 . S
C1045 H1035 0.929 . S
C1045 C1043 1.433 . S
C1045 N1048 1.384 . S
C1046 H1037 0.929 . S
C1046 C1038 1.378 . S
C1046 C1041 1.350 . S
C1047 H1034 0.929 . S
C1047 C1039 1.433 . S
C1047 N1049 1.384 . S
N1048 C1044 1.427 . S
N1048 C1045 1.384 . S
N1049 C1041 1.427 . S
N1049 C1047 1.384 . S
H1050 C1056 0.930 . S
H1051 C1060 0.930 . S
H1052 C1065 0.929 . S
H1053 C1063 0.929 . S
H1054 C1058 0.929 . S
H1055 C1064 0.929 . S
C1056 H1050 0.930 . S
C1056 C1057 1.367 . S
C1056 C1064 1.378 . S
C1057 C1056 1.367 . S
C1057 C1065 1.433 . S
C1058 H1054 0.929 . S
C1058 C1060 1.378 . S
C1058 C1062 1.350 . S
C1059 C1062 1.463 . S
C1059 C1064 1.350 . S
C1059 N1067 1.427 . S
C1060 H1051 0.930 . S
C1060 C1058 1.378 . S
C1060 C1061 1.367 . S
C1061 C1060 1.367 . S
C1061 C1063 1.433 . S
C1062 C1058 1.350 . S
C1062 C1059 1.463 . S
C1062 N1066 1.427 . S
C1063 H1053 0.929 . S
C1063 C1061 1.433 . S
C1063 N1066 1.384 . S
C1064 H1055 0.929 . S
C1064 C1056 1.378 . S
C1064 C1059 1.350 . S
C1065 H1052 0.929 . S
C1065 C1057 1.433 . S
C1065 N1067 1.384 . S
N1066 C1062 1.427 . S
N1066 C1063 1.384 . S
N1067 C1059 1.427 . S
N1067 C1065 1.384 . S
H1068 C1074 0.930 . S
H1069 C1078 0.930 . S
H1070 C1083 0.929 . S
H1071 C1081 0.929 . S
H1072 C1076 0.929 . S
H1073 C1082 0.929 . S
C1074 H1068 0.930 . S
C1074 C1075 1.367 . S
C1074 C1082 1.378 . S
C1075 C1074 1.367 . S
C1075 C1083 1.433 . S
C1076 H1072 0.929 . S
C1076 C1078 1.378 . S
C1076 C1080 1.350 . S
C1077 C1080 1.463 . S
C1077 C1082 1.350 . S
C1077 N1085 1.427 . S
C1078 H1069 0.930 . S
C1078 C1076 1.378 . S
C1078 C1079 1.367 . S
C1079 C1078 1.367 . S
C1079 C1081 1.433 . S
C1080 C1076 1.350 . S
C1080 C1077 1.463 . S
C1080 N1084 1.427 . S
C1081 H1071 0.929 . S
C1081 C1079 1.433 . S
C1081 N1084 1.384 . S
C1082 H1073 0.929 . S
C1082 C1074 1.378 . S
C1082 C1077 1.350 . S
C1083 H1070 0.929 . S
C1083 C1075 1.433 . S
C1083 N1085 1.384 . S
N1084 C1080 1.427 . S
N1084 C1081 1.384 . S
N1085 C1077 1.427 . S
N1085 C1083 1.384 . S
H1086 C1092 0.930 . S
H1087 C1096 0.930 . S
H1088 C1101 0.929 . S
H1089 C1099 0.929 . S
H1090 C1094 0.929 . S
H1091 C1100 0.929 . S
C1092 H1086 0.930 . S
C1092 C1093 1.367 . S
C1092 C1100 1.378 . S
C1093 C1092 1.367 . S
C1093 C1101 1.433 . S
C1094 H1090 0.929 . S
C1094 C1096 1.378 . S
C1094 C1098 1.350 . S
C1095 C1098 1.463 . S
C1095 C1100 1.350 . S
C1095 N1103 1.427 . S
C1096 H1087 0.930 . S
C1096 C1094 1.378 . S
C1096 C1097 1.367 . S
C1097 C1096 1.367 . S
C1097 C1099 1.433 . S
C1098 C1094 1.350 . S
C1098 C1095 1.463 . S
C1098 N1102 1.427 . S
C1099 H1089 0.929 . S
C1099 C1097 1.433 . S
C1099 N1102 1.384 . S
C1100 H1091 0.929 . S
C1100 C1092 1.378 . S
C1100 C1095 1.350 . S
C1101 H1088 0.929 . S
C1101 C1093 1.433 . S
C1101 N1103 1.384 . S
N1102 C1098 1.427 . S
N1102 C1099 1.384 . S
N1103 C1095 1.427 . S
N1103 C1101 1.384 . S
H1104 C1110 0.930 . S
H1105 C1114 0.930 . S
H1106 C1119 0.929 . S
H1107 C1117 0.929 . S
H1108 C1112 0.929 1_455 S
H1109 C1118 0.929 1_655 S
C1110 H1104 0.930 . S
C1110 C1111 1.367 . S
C1110 C1118 1.378 . S
C1111 C1110 1.367 . S
C1111 C1119 1.433 . S
C1112 H1108 0.929 1_655 S
C1112 C1114 1.378 . S
C1112 C1116 1.350 . S
C1113 C1116 1.463 1_455 S
C1113 C1118 1.350 . S
C1113 N1121 1.427 . S
C1114 H1105 0.930 . S
C1114 C1112 1.378 . S
C1114 C1115 1.367 . S
C1115 C1114 1.367 . S
C1115 C1117 1.433 . S
C1116 C1112 1.350 . S
C1116 C1113 1.463 1_655 S
C1116 N1120 1.427 . S
C1117 H1107 0.929 . S
C1117 C1115 1.433 . S
C1117 N1120 1.384 . S
C1118 H1109 0.929 1_455 S
C1118 C1110 1.378 . S
C1118 C1113 1.350 . S
C1119 H1106 0.929 . S
C1119 C1111 1.433 . S
C1119 N1121 1.384 . S
N1120 C1116 1.427 . S
N1120 C1117 1.384 . S
N1121 C1113 1.427 . S
N1121 C1119 1.384 . S
H1122 C1128 0.930 . S
H1123 C1132 0.930 . S
H1124 C1137 0.929 . S
H1125 C1135 0.929 . S
H1126 C1130 0.929 . S
H1127 C1136 0.929 . S
C1128 H1122 0.930 . S
C1128 C1129 1.367 . S
C1128 C1136 1.378 . S
C1129 C1128 1.367 . S
C1129 C1137 1.433 . S
C1130 H1126 0.929 . S
C1130 C1132 1.378 . S
C1130 C1134 1.350 . S
C1131 C1134 1.463 . S
C1131 C1136 1.350 . S
C1131 N1139 1.427 . S
C1132 H1123 0.930 . S
C1132 C1130 1.378 . S
C1132 C1133 1.367 . S
C1133 C1132 1.367 . S
C1133 C1135 1.433 . S
C1134 C1130 1.350 . S
C1134 C1131 1.463 . S
C1134 N1138 1.427 . S
C1135 H1125 0.929 . S
C1135 C1133 1.433 . S
C1135 N1138 1.384 . S
C1136 H1127 0.929 . S
C1136 C1128 1.378 . S
C1136 C1131 1.350 . S
C1137 H1124 0.929 . S
C1137 C1129 1.433 . S
C1137 N1139 1.384 . S
N1138 C1134 1.427 . S
N1138 C1135 1.384 . S
N1139 C1131 1.427 . S
N1139 C1137 1.384 . S
H1140 C1146 0.930 . S
H1141 C1150 0.930 . S
H1142 C1155 0.929 . S
H1143 C1153 0.929 . S
H1144 C1148 0.929 . S
H1145 C1154 0.929 . S
C1146 H1140 0.930 . S
C1146 C1147 1.367 . S
C1146 C1154 1.378 . S
C1147 C1146 1.367 . S
C1147 C1155 1.433 . S
C1148 H1144 0.929 . S
C1148 C1150 1.378 . S
C1148 C1152 1.350 . S
C1149 C1152 1.463 . S
C1149 C1154 1.350 . S
C1149 N1157 1.427 . S
C1150 H1141 0.930 . S
C1150 C1148 1.378 . S
C1150 C1151 1.367 . S
C1151 C1150 1.367 . S
C1151 C1153 1.433 . S
C1152 C1148 1.350 . S
C1152 C1149 1.463 . S
C1152 N1156 1.427 . S
C1153 H1143 0.929 . S
C1153 C1151 1.433 . S
C1153 N1156 1.384 . S
C1154 H1145 0.929 . S
C1154 C1146 1.378 . S
C1154 C1149 1.350 . S
C1155 H1142 0.929 . S
C1155 C1147 1.433 . S
C1155 N1157 1.384 . S
N1156 C1152 1.427 . S
N1156 C1153 1.384 . S
N1157 C1149 1.427 . S
N1157 C1155 1.384 . S
H1158 C1164 0.930 . S
H1159 C1168 0.930 . S
H1160 C1173 0.929 . S
H1161 C1171 0.929 . S
H1162 C1166 0.929 . S
H1163 C1172 0.929 . S
C1164 H1158 0.930 . S
C1164 C1165 1.367 . S
C1164 C1172 1.378 . S
C1165 C1164 1.367 . S
C1165 C1173 1.433 . S
C1166 H1162 0.929 . S
C1166 C1168 1.378 . S
C1166 C1170 1.350 . S
C1167 C1170 1.463 1_655 S
C1167 C1172 1.350 . S
C1167 N1175 1.427 . S
C1168 H1159 0.930 . S
C1168 C1166 1.378 . S
C1168 C1169 1.367 . S
C1169 C1168 1.367 . S
C1169 C1171 1.433 . S
C1170 C1166 1.350 . S
C1170 C1167 1.463 1_455 S
C1170 N1174 1.427 . S
C1171 H1161 0.929 . S
C1171 C1169 1.433 . S
C1171 N1174 1.384 . S
C1172 H1163 0.929 . S
C1172 C1164 1.378 . S
C1172 C1167 1.350 . S
C1173 H1160 0.929 . S
C1173 C1165 1.433 . S
C1173 N1175 1.384 . S
N1174 C1170 1.427 . S
N1174 C1171 1.384 . S
N1175 C1167 1.427 . S
N1175 C1173 1.384 . S
H1176 C1182 0.930 . S
H1177 C1186 0.930 . S
H1178 C1191 0.929 . S
H1179 C1189 0.929 . S
H1180 C1184 0.929 . S
H1181 C1190 0.929 . S
C1182 H1176 0.930 . S
C1182 C1183 1.367 . S
C1182 C1190 1.378 . S
C1183 C1182 1.367 . S
C1183 C1191 1.433 . S
C1184 H1180 0.929 . S
C1184 C1186 1.378 . S
C1184 C1188 1.350 . S
C1185 C1188 1.463 1_655 S
C1185 C1190 1.350 . S
C1185 N1193 1.427 . S
C1186 H1177 0.930 . S
C1186 C1184 1.378 . S
C1186 C1187 1.367 . S
C1187 C1186 1.367 . S
C1187 C1189 1.433 . S
C1188 C1184 1.350 . S
C1188 C1185 1.463 1_455 S
C1188 N1192 1.427 . S
C1189 H1179 0.929 . S
C1189 C1187 1.433 . S
C1189 N1192 1.384 . S
C1190 H1181 0.929 . S
C1190 C1182 1.378 . S
C1190 C1185 1.350 . S
C1191 H1178 0.929 . S
C1191 C1183 1.433 . S
C1191 N1193 1.384 . S
N1192 C1188 1.427 . S
N1192 C1189 1.384 . S
N1193 C1185 1.427 . S
N1193 C1191 1.384 . S
H1194 C1200 0.930 . S
H1195 C1204 0.930 . S
H1196 C1209 0.929 . S
H1197 C1207 0.929 . S
H1198 C1202 0.929 . S
H1199 C1208 0.929 . S
C1200 H1194 0.930 . S
C1200 C1201 1.367 . S
C1200 C1208 1.378 . S
C1201 C1200 1.367 . S
C1201 C1209 1.433 . S
C1202 H1198 0.929 . S
C1202 C1204 1.378 . S
C1202 C1206 1.350 . S
C1203 C1206 1.463 . S
C1203 C1208 1.350 . S
C1203 N1211 1.427 . S
C1204 H1195 0.930 . S
C1204 C1202 1.378 . S
C1204 C1205 1.367 . S
C1205 C1204 1.367 . S
C1205 C1207 1.433 . S
C1206 C1202 1.350 . S
C1206 C1203 1.463 . S
C1206 N1210 1.427 . S
C1207 H1197 0.929 . S
C1207 C1205 1.433 . S
C1207 N1210 1.384 . S
C1208 H1199 0.929 . S
C1208 C1200 1.378 . S
C1208 C1203 1.350 . S
C1209 H1196 0.929 . S
C1209 C1201 1.433 . S
C1209 N1211 1.384 . S
N1210 C1206 1.427 . S
N1210 C1207 1.384 . S
N1211 C1203 1.427 . S
N1211 C1209 1.384 . S
H1212 C1218 0.930 . S
H1213 C1222 0.930 . S
H1214 C1227 0.929 . S
H1215 C1225 0.929 . S
H1216 C1220 0.929 . S
H1217 C1226 0.929 . S
C1218 H1212 0.930 . S
C1218 C1219 1.367 . S
C1218 C1226 1.378 . S
C1219 C1218 1.367 . S
C1219 C1227 1.433 . S
C1220 H1216 0.929 . S
C1220 C1222 1.378 . S
C1220 C1224 1.350 . S
C1221 C1224 1.463 . S
C1221 C1226 1.350 . S
C1221 N1229 1.427 . S
C1222 H1213 0.930 . S
C1222 C1220 1.378 . S
C1222 C1223 1.367 . S
C1223 C1222 1.367 . S
C1223 C1225 1.433 . S
C1224 C1220 1.350 . S
C1224 C1221 1.463 . S
C1224 N1228 1.427 . S
C1225 H1215 0.929 . S
C1225 C1223 1.433 . S
C1225 N1228 1.384 . S
C1226 H1217 0.929 . S
C1226 C1218 1.378 . S
C1226 C1221 1.350 . S
C1227 H1214 0.929 . S
C1227 C1219 1.433 . S
C1227 N1229 1.384 . S
N1228 C1224 1.427 . S
N1228 C1225 1.384 . S
N1229 C1221 1.427 . S
N1229 C1227 1.384 . S
H1230 C1236 0.930 . S
H1231 C1240 0.930 . S
H1232 C1245 0.929 . S
H1233 C1243 0.929 . S
H1234 C1238 0.929 . S
H1235 C1244 0.929 . S
C1236 H1230 0.930 . S
C1236 C1237 1.367 . S
C1236 C1244 1.378 . S
C1237 C1236 1.367 . S
C1237 C1245 1.433 . S
C1238 H1234 0.929 . S
C1238 C1240 1.378 . S
C1238 C1242 1.350 . S
C1239 C1242 1.463 1_655 S
C1239 C1244 1.350 . S
C1239 N1247 1.427 . S
C1240 H1231 0.930 . S
C1240 C1238 1.378 . S
C1240 C1241 1.367 . S
C1241 C1240 1.367 . S
C1241 C1243 1.433 . S
C1242 C1238 1.350 . S
C1242 C1239 1.463 1_455 S
C1242 N1246 1.427 . S
C1243 H1233 0.929 . S
C1243 C1241 1.433 . S
C1243 N1246 1.384 . S
C1244 H1235 0.929 . S
C1244 C1236 1.378 . S
C1244 C1239 1.350 . S
C1245 H1232 0.929 . S
C1245 C1237 1.433 . S
C1245 N1247 1.384 . S
N1246 C1242 1.427 . S
N1246 C1243 1.384 . S
N1247 C1239 1.427 . S
N1247 C1245 1.384 . S
C535 C120 0.343 . S
C539 C21 0.299 . S
C553 C87 0.292 . S
C557 C54 0.322 . S
C571 C153 0.307 . S
C575 C252 0.346 . S
C589 C186 0.317 . S
C593 C219 0.346 . S
C607 C285 0.346 . S
C611 C384 0.307 . S
C625 C318 0.311 . S
C629 C351 0.347 . S
C643 C516 0.307 . S
C647 C417 0.346 . S
C661 C483 0.298 . S
C665 C450 0.343 . S
C679 N2 1.233 . S
C683 N332 1.233 . S
C697 N365 1.222 . S
C701 N35 1.222 . S
C715 N266 1.231 . S
C719 N68 1.231 . S
C733 N299 1.231 . S
C737 N101 1.231 . S
C751 N464 1.228 . S
C755 N134 1.228 . S
C769 N497 1.229 . S
C773 N167 1.230 . S
C787 N398 1.219 . S
C791 N200 1.219 . S
C805 N431 1.223 . S
C809 N233 1.222 . S
C823 N13 1.630 . S
C827 N145 1.630 . S
C841 N46 1.637 . S
C845 N178 1.637 . S
C859 N211 1.634 . S
C863 N79 1.634 . S
C877 N112 1.630 . S
C881 N244 1.630 . S
C895 N277 1.643 . S
C899 N409 1.643 . S
C913 N442 1.638 . S
C917 N310 1.638 . S
C931 N343 1.635 . S
C935 N475 1.635 . S
C949 N508 1.630 . S
C953 N376 1.630 . S
C967 C18 1.436 . S
C971 C51 1.430 . S
C985 C117 1.431 . S
C989 C84 1.438 . S
C1003 C183 1.427 . S
C1007 C150 1.430 . S
C1021 C216 1.439 . S
C1025 C249 1.442 . S
C1039 C315 1.436 . S
C1043 C282 1.429 . S
C1057 C381 1.437 . S
C1061 C348 1.431 . S
C1075 C414 1.438 . S
C1079 C447 1.431 . S
C1093 C513 1.427 . S
C1097 C480 1.431 . S
C1111 C7 1.013 . S
C1115 C304 0.995 . S
C1129 C40 0.995 . S
C1133 C271 1.016 . S
C1147 C73 1.016 . S
C1151 C370 0.995 . S
C1165 C106 1.023 . S
C1169 C337 0.998 . S
C1183 C139 1.024 . S
C1187 C436 1.008 . S
C1201 C403 0.996 . S
C1205 C172 1.021 . S
C1219 C205 1.004 . S
C1223 C502 1.024 . S
C1237 C469 1.024 . S
C1241 C238 1.000 . S
