# Generated by pormake.
# Topology wlm, (5)-cn, num edge types: 1
# Building blocks:
#     Node 0, Type 0, BuildingBlock: XOMCOT_clean_sbu_0, # of connection points: 5
#     Node 1, Type 0, BuildingBlock: XOMCOT_clean_sbu_0, # of connection points: 5
#     Node 2, Type 0, BuildingBlock: XOMCOT_clean_sbu_0, # of connection points: 5
#     Node 3, Type 0, BuildingBlock: XOMCOT_clean_sbu_0, # of connection points: 5
#     Node 4, Type 0, BuildingBlock: XOMCOT_clean_sbu_0, # of connection points: 5
#     Node 5, Type 0, BuildingBlock: XOMCOT_clean_sbu_0, # of connection points: 5
#     Node 6, Type 0, BuildingBlock: XOMCOT_clean_sbu_0, # of connection points: 5
#     Node 7, Type 0, BuildingBlock: XOMCOT_clean_sbu_0, # of connection points: 5
#     Node 8, Type 0, BuildingBlock: XOMCOT_clean_sbu_0, # of connection points: 5
#     Node 9, Type 0, BuildingBlock: XOMCOT_clean_sbu_0, # of connection points: 5
#     Node 10, Type 0, BuildingBlock: XOMCOT_clean_sbu_0, # of connection points: 5
#     Node 11, Type 0, BuildingBlock: XOMCOT_clean_sbu_0, # of connection points: 5
#     Node 12, Type 0, BuildingBlock: XOMCOT_clean_sbu_0, # of connection points: 5
#     Node 13, Type 0, BuildingBlock: XOMCOT_clean_sbu_0, # of connection points: 5
#     Node 14, Type 0, BuildingBlock: XOMCOT_clean_sbu_0, # of connection points: 5
#     Node 15, Type 0, BuildingBlock: XOMCOT_clean_sbu_0, # of connection points: 5
#     Node 16, Type 0, BuildingBlock: XOMCOT_clean_sbu_0, # of connection points: 5
#     Node 17, Type 0, BuildingBlock: XOMCOT_clean_sbu_0, # of connection points: 5
#     Node 18, Type 0, BuildingBlock: XOMCOT_clean_sbu_0, # of connection points: 5
#     Node 19, Type 0, BuildingBlock: XOMCOT_clean_sbu_0, # of connection points: 5
#     Node 20, Type 0, BuildingBlock: XOMCOT_clean_sbu_0, # of connection points: 5
#     Node 21, Type 0, BuildingBlock: XOMCOT_clean_sbu_0, # of connection points: 5
#     Node 22, Type 0, BuildingBlock: XOMCOT_clean_sbu_0, # of connection points: 5
#     Node 23, Type 0, BuildingBlock: XOMCOT_clean_sbu_0, # of connection points: 5
#     Node 24, Type 0, BuildingBlock: XOMCOT_clean_sbu_0, # of connection points: 5
#     Node 25, Type 0, BuildingBlock: XOMCOT_clean_sbu_0, # of connection points: 5
#     Node 26, Type 0, BuildingBlock: XOMCOT_clean_sbu_0, # of connection points: 5
#     Node 27, Type 0, BuildingBlock: XOMCOT_clean_sbu_0, # of connection points: 5
#     Node 28, Type 0, BuildingBlock: XOMCOT_clean_sbu_0, # of connection points: 5
#     Node 29, Type 0, BuildingBlock: XOMCOT_clean_sbu_0, # of connection points: 5
#     Node 30, Type 0, BuildingBlock: XOMCOT_clean_sbu_0, # of connection points: 5
#     Node 31, Type 0, BuildingBlock: XOMCOT_clean_sbu_0, # of connection points: 5
#     Node 32, Type 0, BuildingBlock: XOMCOT_clean_sbu_0, # of connection points: 5
#     Node 33, Type 0, BuildingBlock: XOMCOT_clean_sbu_0, # of connection points: 5
#     Node 34, Type 0, BuildingBlock: XOMCOT_clean_sbu_0, # of connection points: 5
#     Node 35, Type 0, BuildingBlock: XOMCOT_clean_sbu_0, # of connection points: 5
#     Edge 36, Type (0, 0), BuildingBlock: KIFKEQ_clean_linker_1, # of connection points: 2
#     Edge 37, Type (0, 0), BuildingBlock: KIFKEQ_clean_linker_1, # of connection points: 2
#     Edge 38, Type (0, 0), BuildingBlock: KIFKEQ_clean_linker_1, # of connection points: 2
#     Edge 39, Type (0, 0), BuildingBlock: KIFKEQ_clean_linker_1, # of connection points: 2
#     Edge 40, Type (0, 0), BuildingBlock: KIFKEQ_clean_linker_1, # of connection points: 2
#     Edge 41, Type (0, 0), BuildingBlock: KIFKEQ_clean_linker_1, # of connection points: 2
#     Edge 42, Type (0, 0), BuildingBlock: KIFKEQ_clean_linker_1, # of connection points: 2
#     Edge 43, Type (0, 0), BuildingBlock: KIFKEQ_clean_linker_1, # of connection points: 2
#     Edge 44, Type (0, 0), BuildingBlock: KIFKEQ_clean_linker_1, # of connection points: 2
#     Edge 45, Type (0, 0), BuildingBlock: KIFKEQ_clean_linker_1, # of connection points: 2
#     Edge 46, Type (0, 0), BuildingBlock: KIFKEQ_clean_linker_1, # of connection points: 2
#     Edge 47, Type (0, 0), BuildingBlock: KIFKEQ_clean_linker_1, # of connection points: 2
#     Edge 48, Type (0, 0), BuildingBlock: KIFKEQ_clean_linker_1, # of connection points: 2
#     Edge 49, Type (0, 0), BuildingBlock: KIFKEQ_clean_linker_1, # of connection points: 2
#     Edge 50, Type (0, 0), BuildingBlock: KIFKEQ_clean_linker_1, # of connection points: 2
#     Edge 51, Type (0, 0), BuildingBlock: KIFKEQ_clean_linker_1, # of connection points: 2
#     Edge 52, Type (0, 0), BuildingBlock: KIFKEQ_clean_linker_1, # of connection points: 2
#     Edge 53, Type (0, 0), BuildingBlock: KIFKEQ_clean_linker_1, # of connection points: 2
#     Edge 54, Type (0, 0), BuildingBlock: KIFKEQ_clean_linker_1, # of connection points: 2
#     Edge 55, Type (0, 0), BuildingBlock: KIFKEQ_clean_linker_1, # of connection points: 2
#     Edge 56, Type (0, 0), BuildingBlock: KIFKEQ_clean_linker_1, # of connection points: 2
#     Edge 57, Type (0, 0), BuildingBlock: KIFKEQ_clean_linker_1, # of connection points: 2
#     Edge 58, Type (0, 0), BuildingBlock: KIFKEQ_clean_linker_1, # of connection points: 2
#     Edge 59, Type (0, 0), BuildingBlock: KIFKEQ_clean_linker_1, # of connection points: 2
#     Edge 60, Type (0, 0), BuildingBlock: KIFKEQ_clean_linker_1, # of connection points: 2
#     Edge 61, Type (0, 0), BuildingBlock: KIFKEQ_clean_linker_1, # of connection points: 2
#     Edge 62, Type (0, 0), BuildingBlock: KIFKEQ_clean_linker_1, # of connection points: 2
#     Edge 63, Type (0, 0), BuildingBlock: KIFKEQ_clean_linker_1, # of connection points: 2
#     Edge 64, Type (0, 0), BuildingBlock: KIFKEQ_clean_linker_1, # of connection points: 2
#     Edge 65, Type (0, 0), BuildingBlock: KIFKEQ_clean_linker_1, # of connection points: 2
#     Edge 66, Type (0, 0), BuildingBlock: KIFKEQ_clean_linker_1, # of connection points: 2
#     Edge 67, Type (0, 0), BuildingBlock: KIFKEQ_clean_linker_1, # of connection points: 2
#     Edge 68, Type (0, 0), BuildingBlock: KIFKEQ_clean_linker_1, # of connection points: 2
#     Edge 69, Type (0, 0), BuildingBlock: KIFKEQ_clean_linker_1, # of connection points: 2
#     Edge 70, Type (0, 0), BuildingBlock: KIFKEQ_clean_linker_1, # of connection points: 2
#     Edge 71, Type (0, 0), BuildingBlock: KIFKEQ_clean_linker_1, # of connection points: 2
#     Edge 72, Type (0, 0), BuildingBlock: KIFKEQ_clean_linker_1, # of connection points: 2
#     Edge 73, Type (0, 0), BuildingBlock: KIFKEQ_clean_linker_1, # of connection points: 2
#     Edge 74, Type (0, 0), BuildingBlock: KIFKEQ_clean_linker_1, # of connection points: 2
#     Edge 75, Type (0, 0), BuildingBlock: KIFKEQ_clean_linker_1, # of connection points: 2
#     Edge 76, Type (0, 0), BuildingBlock: KIFKEQ_clean_linker_1, # of connection points: 2
#     Edge 77, Type (0, 0), BuildingBlock: KIFKEQ_clean_linker_1, # of connection points: 2
#     Edge 78, Type (0, 0), BuildingBlock: KIFKEQ_clean_linker_1, # of connection points: 2
#     Edge 79, Type (0, 0), BuildingBlock: KIFKEQ_clean_linker_1, # of connection points: 2
#     Edge 80, Type (0, 0), BuildingBlock: KIFKEQ_clean_linker_1, # of connection points: 2
#     Edge 81, Type (0, 0), BuildingBlock: KIFKEQ_clean_linker_1, # of connection points: 2
#     Edge 82, Type (0, 0), BuildingBlock: KIFKEQ_clean_linker_1, # of connection points: 2
#     Edge 83, Type (0, 0), BuildingBlock: KIFKEQ_clean_linker_1, # of connection points: 2
#     Edge 84, Type (0, 0), BuildingBlock: KIFKEQ_clean_linker_1, # of connection points: 2
#     Edge 85, Type (0, 0), BuildingBlock: KIFKEQ_clean_linker_1, # of connection points: 2
#     Edge 86, Type (0, 0), BuildingBlock: KIFKEQ_clean_linker_1, # of connection points: 2
#     Edge 87, Type (0, 0), BuildingBlock: KIFKEQ_clean_linker_1, # of connection points: 2
#     Edge 88, Type (0, 0), BuildingBlock: KIFKEQ_clean_linker_1, # of connection points: 2
#     Edge 89, Type (0, 0), BuildingBlock: KIFKEQ_clean_linker_1, # of connection points: 2
#     Edge 90, Type (0, 0), BuildingBlock: KIFKEQ_clean_linker_1, # of connection points: 2
#     Edge 91, Type (0, 0), BuildingBlock: KIFKEQ_clean_linker_1, # of connection points: 2
#     Edge 92, Type (0, 0), BuildingBlock: KIFKEQ_clean_linker_1, # of connection points: 2
#     Edge 93, Type (0, 0), BuildingBlock: KIFKEQ_clean_linker_1, # of connection points: 2
#     Edge 94, Type (0, 0), BuildingBlock: KIFKEQ_clean_linker_1, # of connection points: 2
#     Edge 95, Type (0, 0), BuildingBlock: KIFKEQ_clean_linker_1, # of connection points: 2
#     Edge 96, Type (0, 0), BuildingBlock: KIFKEQ_clean_linker_1, # of connection points: 2
#     Edge 97, Type (0, 0), BuildingBlock: KIFKEQ_clean_linker_1, # of connection points: 2
#     Edge 98, Type (0, 0), BuildingBlock: KIFKEQ_clean_linker_1, # of connection points: 2
#     Edge 99, Type (0, 0), BuildingBlock: KIFKEQ_clean_linker_1, # of connection points: 2
#     Edge 100, Type (0, 0), BuildingBlock: KIFKEQ_clean_linker_1, # of connection points: 2
#     Edge 101, Type (0, 0), BuildingBlock: KIFKEQ_clean_linker_1, # of connection points: 2
#     Edge 102, Type (0, 0), BuildingBlock: KIFKEQ_clean_linker_1, # of connection points: 2
#     Edge 103, Type (0, 0), BuildingBlock: KIFKEQ_clean_linker_1, # of connection points: 2
#     Edge 104, Type (0, 0), BuildingBlock: KIFKEQ_clean_linker_1, # of connection points: 2
#     Edge 105, Type (0, 0), BuildingBlock: KIFKEQ_clean_linker_1, # of connection points: 2
#     Edge 106, Type (0, 0), BuildingBlock: KIFKEQ_clean_linker_1, # of connection points: 2
#     Edge 107, Type (0, 0), BuildingBlock: KIFKEQ_clean_linker_1, # of connection points: 2
#     Edge 108, Type (0, 0), BuildingBlock: KIFKEQ_clean_linker_1, # of connection points: 2
#     Edge 109, Type (0, 0), BuildingBlock: KIFKEQ_clean_linker_1, # of connection points: 2
#     Edge 110, Type (0, 0), BuildingBlock: KIFKEQ_clean_linker_1, # of connection points: 2
#     Edge 111, Type (0, 0), BuildingBlock: KIFKEQ_clean_linker_1, # of connection points: 2
#     Edge 112, Type (0, 0), BuildingBlock: KIFKEQ_clean_linker_1, # of connection points: 2
#     Edge 113, Type (0, 0), BuildingBlock: KIFKEQ_clean_linker_1, # of connection points: 2
#     Edge 114, Type (0, 0), BuildingBlock: KIFKEQ_clean_linker_1, # of connection points: 2
#     Edge 115, Type (0, 0), BuildingBlock: KIFKEQ_clean_linker_1, # of connection points: 2
#     Edge 116, Type (0, 0), BuildingBlock: KIFKEQ_clean_linker_1, # of connection points: 2
#     Edge 117, Type (0, 0), BuildingBlock: KIFKEQ_clean_linker_1, # of connection points: 2
#     Edge 118, Type (0, 0), BuildingBlock: KIFKEQ_clean_linker_1, # of connection points: 2
#     Edge 119, Type (0, 0), BuildingBlock: KIFKEQ_clean_linker_1, # of connection points: 2
#     Edge 120, Type (0, 0), BuildingBlock: KIFKEQ_clean_linker_1, # of connection points: 2
#     Edge 121, Type (0, 0), BuildingBlock: KIFKEQ_clean_linker_1, # of connection points: 2
#     Edge 122, Type (0, 0), BuildingBlock: KIFKEQ_clean_linker_1, # of connection points: 2
#     Edge 123, Type (0, 0), BuildingBlock: KIFKEQ_clean_linker_1, # of connection points: 2
#     Edge 124, Type (0, 0), BuildingBlock: KIFKEQ_clean_linker_1, # of connection points: 2
#     Edge 125, Type (0, 0), BuildingBlock: KIFKEQ_clean_linker_1, # of connection points: 2
# Relax obj value: 0.126
# Max RMSD: 0.152
# Mean RMSD: 0.152
data_MOF--net-wlm--node1-XOMCOT_clean_sbu_0--edge1-KIFKEQ_clean_linker_1
_symmetry_space_group_name_H-M    P1
_symmetry_Int_Tables_number       1
_symmetry_cell_setting            triclinic
loop_
_symmetry_equiv_pos_as_xyz
'x, y, z'
_cell_length_a     133.06464
_cell_length_b     133.13088
_cell_length_c     17.92244
_cell_angle_alpha  90.035041
_cell_angle_beta   89.90878
_cell_angle_gamma 120.04151
loop_
_atom_site_label
_atom_site_type_symbol
_atom_site_fract_x
_atom_site_fract_y
_atom_site_fract_z
_atom_type_partial_charge
Co0 Co 0.12183 0.39552 0.21261 0.0
C1 C 0.12115 0.39393 0.04711 0.0
C2 C 0.10666 0.37924 0.09843 0.0
C3 C 0.1055 0.37801 0.02218 0.0
N4 N 0.11648 0.38919 0.11395 0.0
N5 N 0.11462 0.38723 0.98952 0.0
H6 H 0.12915 0.40211 0.04127 0.0
H7 H 0.10063 0.37342 0.13975 0.0
C8 C 0.12213 0.37599 0.29321 0.0
O9 O 0.13247 0.38342 0.31914 0.0
N10 N 0.12679 0.40192 0.31311 0.0
C11 C 0.13375 0.41319 0.3316 0.0
C12 C 0.13394 0.41435 0.4079 0.0
C13 C 0.12239 0.39654 0.37926 0.0
N14 N 0.12684 0.40386 0.43793 0.0
C15 C 0.14665 0.40903 0.18825 0.0
C16 C 0.14923 0.39058 0.14377 0.0
C17 C 0.15918 0.40152 0.15179 0.0
C18 C 0.15775 0.41089 0.17256 0.0
C19 C 0.13834 0.38912 0.16006 0.0
N20 N 0.1372 0.39813 0.18656 0.0
H21 H 0.1457 0.41641 0.20031 0.0
H22 H 0.13079 0.38066 0.15203 0.0
H23 H 0.1379 0.42032 0.29293 0.0
H24 H 0.11566 0.38755 0.38455 0.0
O25 O 0.12346 0.41012 0.18042 0.0
O26 O 0.10749 0.39538 0.22911 0.0
O27 O 0.11677 0.37938 0.25017 0.0
C28 C 0.1127 0.40582 0.20142 0.0
H29 H 0.09826 0.37095 0.99346 0.0
H30 H 0.1388 0.42236 0.43877 0.0
H31 H 0.14984 0.38309 0.12686 0.0
H32 H 0.16513 0.4196 0.17615 0.0
Co33 Co 0.59577 0.72576 0.23897 0.0
C34 C 0.59661 0.72572 0.07224 0.0
C35 C 0.61319 0.73073 0.12027 0.0
C36 C 0.6142 0.73084 0.04397 0.0
N37 N 0.60217 0.72763 0.1385 0.0
N38 N 0.60379 0.72774 1.0134 0.0
H39 H 0.58748 0.72284 0.06708 0.0
H40 H 0.62011 0.73266 0.15891 0.0
C41 C 0.61856 0.73227 0.30524 0.0
O42 O 0.61478 0.72111 0.31082 0.0
N43 N 0.58928 0.7239 0.33854 0.0
C44 C 0.57858 0.72205 0.35386 0.0
C45 C 0.57704 0.72148 0.42998 0.0
C46 C 0.59414 0.72447 0.40577 0.0
N47 N 0.58685 0.72304 0.46292 0.0
C48 C 0.58612 0.73901 0.17673 0.0
C49 C 0.59929 0.75873 0.26098 0.0
C50 C 0.59142 0.75873 0.20905 0.0
C51 C 0.58472 0.74867 0.16687 0.0
C52 C 0.60037 0.74892 0.26925 0.0
N53 N 0.5941 0.73933 0.22583 0.0
H54 H 0.58062 0.73122 0.14573 0.0
H55 H 0.60615 0.74907 0.31189 0.0
H56 H 0.57232 0.72125 0.31239 0.0
H57 H 0.60287 0.72611 0.41306 0.0
O58 O 0.58072 0.71369 0.2033 0.0
O59 O 0.59468 0.71084 0.24603 0.0
O60 O 0.61196 0.73578 0.2787 0.0
C61 C 0.5843 0.70645 0.21882 0.0
H62 H 0.62202 0.73284 1.01369 0.0
H63 H 0.56924 0.71997 0.45847 0.0
H64 H 0.60466 0.76628 0.2949 0.0
H65 H 0.57831 0.74817 0.12756 0.0
Co66 Co 0.26732 0.86976 0.21187 0.0
C67 C 0.2668 0.87074 0.04651 0.0
C68 C 0.26646 0.88515 0.09784 0.0
C69 C 0.26654 0.8864 0.02149 0.0
N70 N 0.26659 0.87533 0.11337 0.0
N71 N 0.26675 0.87734 0.98921 0.0
H72 H 0.26721 0.86287 0.04012 0.0
H73 H 0.26643 0.89106 0.13919 0.0
C74 C 0.24685 0.86907 0.28715 0.0
O75 O 0.2434 0.85839 0.30866 0.0
N76 N 0.26855 0.86459 0.31233 0.0
C77 C 0.27369 0.85839 0.33055 0.0
C78 C 0.27426 0.85783 0.40679 0.0
C79 C 0.26668 0.86824 0.37897 0.0
N80 N 0.26978 0.86396 0.43773 0.0
C81 C 0.25568 0.84483 0.19344 0.0
C82 C 0.2353 0.84248 0.13692 0.0
C83 C 0.23587 0.83249 0.15299 0.0
C84 C 0.24631 0.83374 0.17984 0.0
C85 C 0.24481 0.85338 0.1526 0.0
N86 N 0.25463 0.85443 0.18453 0.0
H87 H 0.26375 0.84561 0.21088 0.0
H88 H 0.24415 0.86099 0.141 0.0
H89 H 0.27755 0.85509 0.29169 0.0
H90 H 0.26353 0.87426 0.38445 0.0
O91 O 0.2804 0.8683 0.17948 0.0
O92 O 0.28149 0.88404 0.2303 0.0
O93 O 0.25616 0.87473 0.24904 0.0
C94 C 0.28683 0.87899 0.20187 0.0
H95 H 0.26639 0.89342 0.99207 0.0
H96 H 0.27826 0.85368 0.43667 0.0
H97 H 0.22742 0.84188 0.11521 0.0
H98 H 0.2472 0.82621 0.19042 0.0
Co99 Co 0.38849 0.11953 0.80232 0.0
C100 C 0.38692 0.11919 0.97034 0.0
C101 C 0.37257 0.10456 0.91858 0.0
C102 C 0.37121 0.10327 0.99465 0.0
N103 N 0.38228 0.11468 0.90287 0.0
N104 N 0.38025 0.11248 0.02732 0.0
H105 H 0.39511 0.127 0.97842 0.0
H106 H 0.36698 0.09836 0.87727 0.0
C107 C 0.36456 0.11581 0.79484 0.0
O108 O 0.36703 0.12221 0.8553 0.0
N109 N 0.39461 0.12396 0.70229 0.0
C110 C 0.40533 0.13259 0.68478 0.0
C111 C 0.40636 0.13346 0.60839 0.0
C112 C 0.38925 0.11964 0.63642 0.0
N113 N 0.39624 0.12535 0.57784 0.0
C114 C 0.39988 0.14264 0.86542 0.0
C115 C 0.38871 0.15095 0.77645 0.0
C116 C 0.39658 0.15833 0.83024 0.0
C117 C 0.40234 0.1541 0.87442 0.0
C118 C 0.38656 0.13964 0.76935 0.0
N119 N 0.39151 0.13532 0.81678 0.0
H120 H 0.40503 0.13984 0.89553 0.0
H121 H 0.38097 0.13439 0.72461 0.0
H122 H 0.41191 0.13797 0.72491 0.0
H123 H 0.38036 0.11265 0.63156 0.0
O124 O 0.40321 0.12147 0.83467 0.0
O125 O 0.38843 0.10513 0.79114 0.0
O126 O 0.37226 0.11405 0.76464 0.0
C127 C 0.39896 0.11059 0.81727 0.0
H128 H 0.36433 0.09589 0.02355 0.0
H129 H 0.41402 0.13958 0.57782 0.0
H130 H 0.38418 0.15384 0.73999 0.0
H131 H 0.40891 0.15967 0.9141 0.0
Co132 Co 0.86984 0.26622 0.81932 0.0
C133 C 0.87063 0.26557 0.98484 0.0
C134 C 0.88495 0.26504 0.93347 0.0
C135 C 0.88619 0.26508 1.00974 0.0
N136 N 0.8752 0.26532 0.918 0.0
N137 N 0.87719 0.26542 0.04203 0.0
H138 H 0.86282 0.26611 0.9913 0.0
H139 H 0.89084 0.26496 0.8921 0.0
C140 C 0.86888 0.24566 0.74375 0.0
O141 O 0.85853 0.24274 0.71777 0.0
N142 N 0.86489 0.26763 0.71861 0.0
C143 C 0.85875 0.27283 0.7003 0.0
C144 C 0.85823 0.27345 0.62413 0.0
C145 C 0.86859 0.2658 0.65206 0.0
N146 N 0.86435 0.26893 0.59329 0.0
C147 C 0.84495 0.25517 0.83826 0.0
C148 C 0.84197 0.23448 0.89372 0.0
C149 C 0.83218 0.2355 0.87944 0.0
C150 C 0.83375 0.24607 0.8528 0.0
C151 C 0.85299 0.24374 0.87697 0.0
N152 N 0.85435 0.25373 0.84589 0.0
H153 H 0.84599 0.26338 0.82171 0.0
H154 H 0.86046 0.24279 0.88807 0.0
H155 H 0.85546 0.27671 0.739 0.0
H156 H 0.87456 0.26259 0.64668 0.0
O157 O 0.86855 0.27942 0.85069 0.0
O158 O 0.88435 0.28027 0.80195 0.0
O159 O 0.87451 0.25478 0.7835 0.0
C160 C 0.87931 0.2857 0.82921 0.0
H161 H 0.89316 0.26484 0.03912 0.0
H162 H 0.85413 0.27748 0.59422 0.0
H163 H 0.84109 0.22649 0.91549 0.0
H164 H 0.82639 0.24729 0.84369 0.0
Co165 Co 0.72373 0.60063 0.81243 0.0
C166 C 0.72521 0.60227 0.98046 0.0
C167 C 0.72386 0.61606 0.92896 0.0
C168 C 0.72399 0.61743 1.00503 0.0
N169 N 0.72487 0.60669 0.9131 0.0
N170 N 0.72483 0.60875 0.03749 0.0
H171 H 0.72547 0.59441 0.98849 0.0
H172 H 0.72284 0.62141 0.88773 0.0
C173 C 0.74378 0.62473 0.80788 0.0
O174 O 0.74729 0.62239 0.87063 0.0
N175 N 0.72226 0.59464 0.71233 0.0
C176 C 0.7203 0.58398 0.69474 0.0
C177 C 0.7203 0.58303 0.61837 0.0
C178 C 0.72337 0.60004 0.64653 0.0
N179 N 0.72226 0.59313 0.58795 0.0
C180 C 0.73516 0.58891 0.87491 0.0
C181 C 0.75507 0.60054 0.78979 0.0
C182 C 0.75428 0.5923 0.84163 0.0
C183 C 0.74409 0.58634 0.88405 0.0
C184 C 0.74598 0.6028 0.78252 0.0
N185 N 0.73645 0.59755 0.82788 0.0
H186 H 0.72706 0.58365 0.90376 0.0
H187 H 0.74657 0.60863 0.73879 0.0
H188 H 0.71908 0.57739 0.73483 0.0
H189 H 0.72519 0.6089 0.64172 0.0
O190 O 0.71074 0.58586 0.8433 0.0
O191 O 0.70949 0.60086 0.80057 0.0
O192 O 0.73465 0.61689 0.77547 0.0
C193 C 0.70428 0.59031 0.82619 0.0
H194 H 0.7231 0.62407 0.03411 0.0
H195 H 0.71887 0.57542 0.5877 0.0
H196 H 0.76267 0.60525 0.75476 0.0
H197 H 0.74288 0.57953 0.92235 0.0
Co198 Co 0.86646 0.5969 0.83229 0.0
C199 C 0.86742 0.59837 0.99767 0.0
C200 C 0.88214 0.61285 0.94635 0.0
C201 C 0.88342 0.61398 0.02268 0.0
N202 N 0.87211 0.60309 0.93081 0.0
N203 N 0.87417 0.60487 0.05497 0.0
H204 H 0.85938 0.59022 1.00404 0.0
H205 H 0.88817 0.61867 0.905 0.0
C206 C 0.86683 0.61701 0.75358 0.0
O207 O 0.85653 0.60995 0.72555 0.0
N208 N 0.86113 0.59059 0.73201 0.0
C209 C 0.85377 0.5794 0.71418 0.0
C210 C 0.85324 0.57819 0.63799 0.0
C211 C 0.86546 0.59585 0.66542 0.0
N212 N 0.86052 0.58857 0.60671 0.0
C213 C 0.84165 0.58389 0.85862 0.0
C214 C 0.83955 0.60291 0.89541 0.0
C215 C 0.82947 0.59217 0.88465 0.0
C216 C 0.8306 0.58246 0.86955 0.0
C217 C 0.85039 0.6039 0.88458 0.0
N218 N 0.8513 0.59466 0.86004 0.0
H219 H 0.8424 0.57633 0.84871 0.0
H220 H 0.85806 0.61223 0.89377 0.0
H221 H 0.84959 0.57232 0.75317 0.0
H222 H 0.8723 0.60477 0.66024 0.0
O223 O 0.86465 0.58216 0.86365 0.0
O224 O 0.88054 0.59668 0.81313 0.0
O225 O 0.87185 0.61315 0.796 0.0
C226 C 0.87531 0.58625 0.84092 0.0
H227 H 0.89061 0.62099 0.05208 0.0
H228 H 0.84821 0.57008 0.60858 0.0
H229 H 0.83906 0.61053 0.91051 0.0
H230 H 0.82303 0.57392 0.86332 0.0
Co231 Co 0.39388 0.26699 0.82512 0.0
C232 C 0.39256 0.26632 0.99068 0.0
C233 C 0.37841 0.26727 0.94061 0.0
C234 C 0.37721 0.26714 1.01694 0.0
N235 N 0.38797 0.26668 0.92425 0.0
N236 N 0.3861 0.26653 0.04854 0.0
H237 H 0.40042 0.26586 0.99633 0.0
H238 H 0.37281 0.26797 0.89984 0.0
C239 C 0.3726 0.24818 0.74683 0.0
O240 O 0.37872 0.244 0.71616 0.0
N241 N 0.39989 0.26764 0.72437 0.0
C242 C 0.4108 0.27034 0.70587 0.0
C243 C 0.41188 0.27068 0.62959 0.0
C244 C 0.3947 0.26704 0.6581 0.0
N245 N 0.40173 0.26852 0.5993 0.0
C246 C 0.40593 0.25437 0.85252 0.0
C247 C 0.38631 0.23334 0.88275 0.0
C248 C 0.39699 0.23375 0.87484 0.0
C249 C 0.40698 0.24453 0.86298 0.0
C250 C 0.38571 0.24341 0.87256 0.0
N251 N 0.39528 0.25353 0.85103 0.0
H252 H 0.4137 0.26263 0.84558 0.0
H253 H 0.37746 0.24297 0.88065 0.0
H254 H 0.41782 0.2726 0.74435 0.0
H255 H 0.38601 0.26566 0.65286 0.0
O256 O 0.40905 0.27934 0.85567 0.0
O257 O 0.39493 0.28169 0.80817 0.0
O258 O 0.37741 0.257 0.78982 0.0
C259 C 0.40536 0.28633 0.83528 0.0
H260 H 0.37046 0.26775 0.04679 0.0
H261 H 0.41971 0.27282 0.59891 0.0
H262 H 0.37847 0.22527 0.8956 0.0
H263 H 0.41546 0.24531 0.85914 0.0
Co264 Co 0.72431 0.12384 0.82437 0.0
C265 C 0.72414 0.12247 0.98978 0.0
C266 C 0.72418 0.10791 0.93848 0.0
C267 C 0.72413 0.10669 1.01486 0.0
N268 N 0.72425 0.11782 0.92288 0.0
N269 N 0.72412 0.11585 0.0473 0.0
H270 H 0.72423 0.1306 0.99596 0.0
H271 H 0.72411 0.10195 0.89717 0.0
C272 C 0.74405 0.12327 0.74679 0.0
O273 O 0.74766 0.13379 0.72131 0.0
N274 N 0.72409 0.12961 0.72428 0.0
C275 C 0.72212 0.1383 0.7058 0.0
C276 C 0.72179 0.139 0.62941 0.0
C277 C 0.72436 0.12481 0.65803 0.0
N278 N 0.72328 0.13057 0.59903 0.0
C279 C 0.73556 0.14811 0.86347 0.0
C280 C 0.757 0.1506 0.89474 0.0
C281 C 0.75589 0.16055 0.89421 0.0
C282 C 0.74482 0.15908 0.88143 0.0
C283 C 0.74745 0.1398 0.87801 0.0
N284 N 0.73717 0.13881 0.85596 0.0
H285 H 0.72706 0.1471 0.85676 0.0
H286 H 0.74842 0.13225 0.88195 0.0
H287 H 0.72041 0.14348 0.74422 0.0
H288 H 0.7253 0.11722 0.65317 0.0
O289 O 0.71134 0.12575 0.85313 0.0
O290 O 0.70999 0.10995 0.80175 0.0
O291 O 0.7351 0.1183 0.78886 0.0
C292 C 0.70477 0.1152 0.82884 0.0
H293 H 0.72392 0.09948 0.04406 0.0
H294 H 0.72013 0.14502 0.59879 0.0
H295 H 0.76522 0.1511 0.90597 0.0
H296 H 0.74328 0.16631 0.8852 0.0
Co297 Co 0.60278 0.87403 0.20367 0.0
C298 C 0.60438 0.87454 0.03814 0.0
C299 C 0.61914 0.88897 0.0891 0.0
C300 C 0.62039 0.8901 1.01286 0.0
N301 N 0.60914 0.87921 0.10486 0.0
N302 N 0.61111 0.88102 0.98042 0.0
H303 H 0.59614 0.8666 0.03246 0.0
H304 H 0.62498 0.895 0.13027 0.0
C305 C 0.62229 0.8737 0.28468 0.0
O306 O 0.61479 0.86351 0.31249 0.0
N307 N 0.59636 0.86923 0.30438 0.0
C308 C 0.58507 0.86235 0.32303 0.0
C309 C 0.58391 0.86222 0.39931 0.0
C310 C 0.60175 0.87366 0.37038 0.0
N311 N 0.59442 0.86928 0.42914 0.0
C312 C 0.58914 0.84921 0.18209 0.0
C313 C 0.60764 0.84623 0.14515 0.0
C314 C 0.59673 0.83642 0.15703 0.0
C315 C 0.58729 0.83799 0.1724 0.0
C316 C 0.60906 0.85726 0.15475 0.0
N317 N 0.60007 0.8586 0.17916 0.0
H318 H 0.58177 0.85029 0.19208 0.0
H319 H 0.61752 0.86473 0.14469 0.0
H320 H 0.57793 0.85819 0.28446 0.0
H321 H 0.61077 0.88032 0.37552 0.0
O322 O 0.5882 0.87237 0.17121 0.0
O323 O 0.60295 0.88842 0.21889 0.0
O324 O 0.61892 0.87903 0.24114 0.0
C325 C 0.59248 0.88313 0.19165 0.0
H326 H 0.62747 0.8973 0.98398 0.0
H327 H 0.57589 0.85741 0.43032 0.0
H328 H 0.61507 0.84538 0.12997 0.0
H329 H 0.57863 0.83064 0.17963 0.0
Co330 Co 0.12094 0.72813 0.20544 0.0
C331 C 0.11966 0.72797 0.0398 0.0
C332 C 0.10609 0.72983 0.09106 0.0
C333 C 0.1048 0.72968 1.01481 0.0
N334 N 0.11541 0.7288 0.10668 0.0
N335 N 0.11331 0.72848 0.98225 0.0
H336 H 0.12711 0.72682 0.03377 0.0
H337 H 0.10054 0.73055 0.13225 0.0
C338 C 0.12031 0.74723 0.29062 0.0
O339 O 0.13031 0.74992 0.32136 0.0
N340 N 0.1262 0.72715 0.30572 0.0
C341 C 0.13533 0.72591 0.32466 0.0
C342 C 0.13561 0.72498 0.40089 0.0
C343 C 0.12078 0.72643 0.37133 0.0
N344 N 0.1265 0.72536 0.4306 0.0
C345 C 0.14528 0.73908 0.1672 0.0
C346 C 0.14861 0.76116 0.14939 0.0
C347 C 0.15826 0.7596 0.14826 0.0
C348 C 0.15647 0.74834 0.15376 0.0
C349 C 0.13759 0.75164 0.16149 0.0
N350 N 0.13618 0.74097 0.17749 0.0
H351 H 0.14397 0.73042 0.16964 0.0
H352 H 0.13024 0.75296 0.15854 0.0
H353 H 0.14129 0.72536 0.28664 0.0
H354 H 0.11276 0.72662 0.37543 0.0
O355 O 0.12271 0.71515 0.17506 0.0
O356 O 0.10673 0.71385 0.22369 0.0
O357 O 0.11562 0.73902 0.24284 0.0
C358 C 0.112 0.70864 0.19682 0.0
H359 H 0.09812 0.73049 0.98588 0.0
H360 H 0.14214 0.72417 0.4319 0.0
H361 H 0.14961 0.76968 0.14143 0.0
H362 H 0.16369 0.74676 0.15012 0.0
Co363 Co 0.26311 0.3907 0.22725 0.0
C364 C 0.26233 0.38901 0.05906 0.0
C365 C 0.26676 0.37733 0.11185 0.0
C366 C 0.26704 0.37608 0.03586 0.0
N367 N 0.26372 0.38538 0.12678 0.0
N368 N 0.26424 0.38343 1.00237 0.0
H369 H 0.26004 0.39559 0.05069 0.0
H370 H 0.26876 0.37275 0.15369 0.0
C371 C 0.24399 0.36619 0.21946 0.0
O372 O 0.2415 0.36867 0.15354 0.0
N373 N 0.26286 0.39598 0.3272 0.0
C374 C 0.26386 0.40626 0.34531 0.0
C375 C 0.26412 0.40723 0.42176 0.0
C376 C 0.26251 0.3908 0.39265 0.0
N377 N 0.26329 0.39753 0.45149 0.0
C378 C 0.25224 0.40249 0.15874 0.0
C379 C 0.23071 0.38899 0.22361 0.0
C380 C 0.23223 0.39768 0.17336 0.0
C381 C 0.24325 0.40471 0.14217 0.0
C382 C 0.23992 0.38718 0.23909 0.0
N383 N 0.25031 0.39333 0.20282 0.0
H384 H 0.26078 0.40821 0.13628 0.0
H385 H 0.2387 0.38097 0.28187 0.0
H386 H 0.26452 0.41267 0.30556 0.0
H387 H 0.26206 0.38248 0.39705 0.0
O388 O 0.27616 0.40584 0.20328 0.0
O389 O 0.27744 0.39107 0.2494 0.0
O390 O 0.25217 0.37412 0.25834 0.0
C391 C 0.28271 0.40175 0.22584 0.0
H392 H 0.26943 0.37038 1.00785 0.0
H393 H 0.26486 0.41453 0.45308 0.0
H394 H 0.22251 0.3838 0.25222 0.0
H395 H 0.2449 0.41179 0.10502 0.0
Co396 Co 0.78765 0.72679 0.53293 0.0
C397 C 0.7866 0.72535 0.36746 0.0
C398 C 0.7718 0.71096 0.41882 0.0
C399 C 0.7705 0.70986 0.34249 0.0
N400 N 0.7819 0.72065 0.43433 0.0
N401 N 0.77981 0.7189 0.3102 0.0
H402 H 0.79471 0.73343 0.36107 0.0
H403 H 0.76575 0.70518 0.46019 0.0
C404 C 0.78726 0.70652 0.60761 0.0
O405 O 0.79807 0.71346 0.6281 0.0
N406 N 0.79297 0.73306 0.63349 0.0
C407 C 0.79953 0.74439 0.65174 0.0
C408 C 0.80012 0.74553 0.72796 0.0
C409 C 0.78913 0.7276 0.70012 0.0
N410 N 0.79364 0.73496 0.75886 0.0
C411 C 0.81278 0.73853 0.51887 0.0
C412 C 0.81339 0.71981 0.45732 0.0
C413 C 0.82389 0.7296 0.47818 0.0
C414 C 0.82349 0.7392 0.50711 0.0
C415 C 0.80291 0.71942 0.47173 0.0
N416 N 0.80264 0.72845 0.50604 0.0
H417 H 0.81274 0.74609 0.53896 0.0
H418 H 0.79493 0.71161 0.45757 0.0
H419 H 0.80314 0.75154 0.6128 0.0
H420 H 0.78284 0.7185 0.70564 0.0
O421 O 0.79008 0.74172 0.50079 0.0
O422 O 0.7738 0.72752 0.55044 0.0
O423 O 0.78183 0.71048 0.5702 0.0
C424 C 0.77941 0.73791 0.52225 0.0
H425 H 0.76328 0.70288 0.31308 0.0
H426 H 0.80455 0.75367 0.75787 0.0
H427 H 0.81319 0.71237 0.43144 0.0
H428 H 0.83132 0.74707 0.52291 0.0
Co429 Co 0.26259 0.05661 0.52456 0.0
C430 C 0.26397 0.05711 0.3592 0.0
C431 C 0.27926 0.05853 0.40948 0.0
C432 C 0.28047 0.0587 0.33303 0.0
N433 N 0.26896 0.0576 0.42575 0.0
N434 N 0.27085 0.05781 0.3013 0.0
H435 H 0.25551 0.05634 0.35353 0.0
H436 H 0.28541 0.0589 0.45031 0.0
C437 C 0.28217 0.07621 0.6064 0.0
O438 O 0.27477 0.0792 0.63206 0.0
N439 N 0.2561 0.05516 0.62505 0.0
C440 C 0.24488 0.05125 0.64305 0.0
C441 C 0.24366 0.05057 0.71935 0.0
C442 C 0.26135 0.05605 0.69159 0.0
N443 N 0.25405 0.05369 0.75017 0.0
C444 C 0.2497 0.06869 0.5034 0.0
C445 C 0.26881 0.08966 0.46463 0.0
C446 C 0.25824 0.08923 0.4786 0.0
C447 C 0.24846 0.07846 0.49469 0.0
C448 C 0.26962 0.0797 0.47375 0.0
N449 N 0.26037 0.06962 0.49919 0.0
H450 H 0.24208 0.06045 0.51392 0.0
H451 H 0.27787 0.08023 0.46313 0.0
H452 H 0.2378 0.04833 0.60411 0.0
H453 H 0.2703 0.05824 0.6972 0.0
O454 O 0.24793 0.04377 0.49121 0.0
O455 O 0.26242 0.04229 0.54087 0.0
O456 O 0.27874 0.06747 0.56312 0.0
C457 C 0.25204 0.03716 0.51245 0.0
H458 H 0.28777 0.05918 0.30324 0.0
H459 H 0.23561 0.04754 0.7496 0.0
H460 H 0.27646 0.0977 0.44861 0.0
H461 H 0.24003 0.07765 0.50334 0.0
Co462 Co 0.93225 0.20482 0.53543 0.0
C463 C 0.93175 0.20558 0.36991 0.0
C464 C 0.93004 0.21928 0.42045 0.0
C465 C 0.92974 0.22025 0.34412 0.0
N466 N 0.93121 0.21004 0.4365 0.0
N467 N 0.93082 0.21163 0.31227 0.0
H468 H 0.93268 0.19799 0.36401 0.0
H469 H 0.92955 0.22498 0.46141 0.0
C470 C 0.91179 0.20385 0.61264 0.0
O471 O 0.90901 0.19357 0.63915 0.0
N472 N 0.93377 0.19999 0.63627 0.0
C473 C 0.93866 0.19355 0.65472 0.0
C474 C 0.93918 0.19297 0.73097 0.0
C475 C 0.93213 0.20386 0.70271 0.0
N476 N 0.935 0.19939 0.76138 0.0
C477 C 0.92105 0.17986 0.51759 0.0
C478 C 0.90023 0.17698 0.46564 0.0
C479 C 0.90111 0.16715 0.48108 0.0
C480 C 0.91176 0.16866 0.50559 0.0
C481 C 0.90966 0.18799 0.47984 0.0
N482 N 0.9197 0.18931 0.50981 0.0
H483 H 0.9293 0.18084 0.53261 0.0
H484 H 0.90878 0.19547 0.4683 0.0
H485 H 0.94236 0.19006 0.61612 0.0
H486 H 0.92912 0.21 0.7083 0.0
O487 O 0.94546 0.20354 0.50378 0.0
O488 O 0.94629 0.21935 0.55177 0.0
O489 O 0.9208 0.20947 0.57183 0.0
C490 C 0.95173 0.21432 0.52464 0.0
H491 H 0.92905 0.22694 0.31443 0.0
H492 H 0.94287 0.18858 0.76157 0.0
H493 H 0.89218 0.17616 0.44545 0.0
H494 H 0.91288 0.16125 0.5154 0.0
Co495 Co 0.05795 0.45779 0.15886 0.0
C496 C 0.05648 0.45706 0.32441 0.0
C497 C 0.04183 0.44248 0.27348 0.0
C498 C 0.04066 0.44126 0.34978 0.0
N499 N 0.05172 0.45238 0.2577 0.0
N500 N 0.04986 0.45042 0.38181 0.0
H501 H 0.06472 0.465 0.33064 0.0
H502 H 0.03597 0.43647 0.23229 0.0
C503 C 0.0376 0.45775 0.08537 0.0
O504 O 0.04444 0.46848 0.06292 0.0
N505 N 0.06426 0.46281 0.058 0.0
C506 C 0.07562 0.4689 0.03934 0.0
C507 C 0.07672 0.46953 0.96313 0.0
C508 C 0.05868 0.4593 0.99157 0.0
N509 N 0.06606 0.46355 0.93264 0.0
C510 C 0.07107 0.48273 0.1741 0.0
C511 C 0.05308 0.48512 0.23137 0.0
C512 C 0.06361 0.49509 0.21394 0.0
C513 C 0.07277 0.49382 0.18669 0.0
C514 C 0.0517 0.4742 0.21664 0.0
N515 N 0.06044 0.47311 0.18439 0.0
H516 H 0.07836 0.48195 0.15636 0.0
H517 H 0.04346 0.46658 0.22937 0.0
H518 H 0.0828 0.47215 0.07789 0.0
H519 H 0.04948 0.45342 0.98621 0.0
O520 O 0.07266 0.45963 0.1908 0.0
O521 O 0.05803 0.44356 0.1425 0.0
O522 O 0.04172 0.45244 0.1225 0.0
C523 C 0.06847 0.44889 0.17004 0.0
H524 H 0.03354 0.43418 0.37936 0.0
H525 H 0.08485 0.47361 0.93285 0.0
H526 H 0.04585 0.48576 0.25354 0.0
H527 H 0.08117 0.50134 0.17512 0.0
Co528 Co 0.53065 0.60047 0.13906 0.0
C529 C 0.53202 0.60064 0.30442 0.0
C530 C 0.54661 0.60064 0.25309 0.0
C531 C 0.54781 0.60066 0.32948 0.0
N532 N 0.53669 0.60056 0.23751 0.0
N533 N 0.53863 0.60065 0.3619 0.0
H534 H 0.52387 0.60052 0.31063 0.0
H535 H 0.55259 0.60073 0.21178 0.0
C536 C 0.5315 0.58094 0.06171 0.0
O537 O 0.52082 0.57705 0.03833 0.0
N538 N 0.52487 0.60073 0.03893 0.0
C539 C 0.51653 0.60322 0.02045 0.0
C540 C 0.51582 0.60354 0.94406 0.0
C541 C 0.52953 0.60021 0.97257 0.0
N542 N 0.52395 0.60158 0.91365 0.0
C543 C 0.50615 0.58853 0.17435 0.0
C544 C 0.5046 0.56776 0.21418 0.0
C545 C 0.4944 0.56838 0.21087 0.0
C546 C 0.49533 0.57907 0.19297 0.0
C547 C 0.51522 0.57744 0.1955 0.0
N548 N 0.51578 0.5874 0.17027 0.0
H549 H 0.50678 0.5968 0.16477 0.0
H550 H 0.52299 0.57686 0.20067 0.0
H551 H 0.51169 0.6054 0.05885 0.0
H552 H 0.53695 0.599 0.96748 0.0
O553 O 0.52845 0.61324 0.1686 0.0
O554 O 0.54438 0.61491 0.11681 0.0
O555 O 0.53647 0.58996 0.10294 0.0
C556 C 0.53899 0.61996 0.14432 0.0
H557 H 0.55502 0.60087 0.35872 0.0
H558 H 0.51007 0.60559 0.91345 0.0
H559 H 0.50442 0.5598 0.22921 0.0
H560 H 0.48779 0.58015 0.19373 0.0
Co561 Co 0.39367 0.93411 0.15672 0.0
C562 C 0.39311 0.93511 0.32224 0.0
C563 C 0.39441 0.9503 0.27112 0.0
C564 C 0.39417 0.95139 0.34744 0.0
N565 N 0.39378 0.94012 0.25539 0.0
N566 N 0.39333 0.94183 0.37988 0.0
H567 H 0.39232 0.92666 0.32821 0.0
H568 H 0.395 0.9565 0.22995 0.0
C569 C 0.413 0.95404 0.07415 0.0
O570 O 0.41579 0.94683 0.0431 0.0
N571 N 0.39328 0.92805 0.05655 0.0
C572 C 0.39287 0.91806 0.0373 0.0
C573 C 0.39209 0.91689 0.96097 0.0
C574 C 0.3923 0.93259 0.99102 0.0
N575 N 0.39176 0.92604 0.93153 0.0
C576 C 0.40424 0.92071 0.20097 0.0
C577 C 0.42628 0.9393 0.22323 0.0
C578 C 0.42456 0.92803 0.22875 0.0
C579 C 0.41323 0.91867 0.22014 0.0
C580 C 0.417 0.94092 0.20524 0.0
N581 N 0.40636 0.93171 0.18803 0.0
H582 H 0.39555 0.91341 0.19675 0.0
H583 H 0.41847 0.94965 0.2055 0.0
H584 H 0.39286 0.91178 0.07507 0.0
H585 H 0.39193 0.94051 0.98719 0.0
O586 O 0.38058 0.91931 0.18519 0.0
O587 O 0.37942 0.9339 0.13463 0.0
O588 O 0.40468 0.9504 0.12123 0.0
C589 C 0.3741 0.9234 0.16125 0.0
H590 H 0.39473 0.95877 0.37653 0.0
H591 H 0.39187 0.90983 0.92971 0.0
H592 H 0.43475 0.94688 0.23106 0.0
H593 H 0.41129 0.90981 0.22811 0.0
Co594 Co 0.53734 0.93472 0.15772 0.0
C595 C 0.53817 0.93602 0.32318 0.0
C596 C 0.55162 0.95161 0.27255 0.0
C597 C 0.5526 0.95287 0.34891 0.0
N598 N 0.54253 0.94109 0.25654 0.0
N599 N 0.54414 0.94307 0.38083 0.0
H600 H 0.53071 0.92741 0.3291 0.0
H601 H 0.55722 0.95789 0.23155 0.0
C602 C 0.53601 0.95384 0.07916 0.0
O603 O 0.52569 0.94615 0.05421 0.0
N604 N 0.53252 0.92828 0.057 0.0
C605 C 0.52604 0.91694 0.03864 0.0
C606 C 0.5255 0.91582 0.96236 0.0
C607 C 0.53644 0.93376 0.9905 0.0
N608 N 0.53198 0.9264 0.93184 0.0
C609 C 0.51249 0.92054 0.17886 0.0
C610 C 0.50926 0.93826 0.23106 0.0
C611 C 0.49955 0.92729 0.21915 0.0
C612 C 0.50125 0.9183 0.1941 0.0
C613 C 0.5203 0.94016 0.21369 0.0
N614 N 0.52177 0.93151 0.18403 0.0
H615 H 0.51366 0.91338 0.16416 0.0
H616 H 0.52769 0.94868 0.22337 0.0
H617 H 0.52252 0.90977 0.07726 0.0
H618 H 0.54263 0.94291 0.98489 0.0
O619 O 0.53628 0.92037 0.18948 0.0
O620 O 0.55197 0.93548 0.14093 0.0
O621 O 0.54176 0.95071 0.12063 0.0
C622 C 0.54707 0.92502 0.16826 0.0
H623 H 0.55921 0.96035 0.37855 0.0
H624 H 0.5211 0.90772 0.93186 0.0
H625 H 0.5083 0.94539 0.25161 0.0
H626 H 0.49397 0.90959 0.18699 0.0
Co627 Co 0.05719 0.60174 0.16585 0.0
C628 C 0.0559 0.60139 0.33132 0.0
C629 C 0.04093 0.60068 0.28082 0.0
C630 C 0.03975 0.60061 0.35721 0.0
N631 N 0.05102 0.60111 0.26471 0.0
N632 N 0.04915 0.60105 0.38912 0.0
H633 H 0.06417 0.60176 0.33709 0.0
H634 H 0.03493 0.60058 0.23986 0.0
C635 C 0.03728 0.5823 0.08442 0.0
O636 O 0.04453 0.57935 0.0556 0.0
N637 N 0.06347 0.60276 0.06537 0.0
C638 C 0.0744 0.6055 0.04715 0.0
C639 C 0.07559 0.60611 0.97088 0.0
C640 C 0.0584 0.60243 0.99905 0.0
N641 N 0.06549 0.60407 0.94028 0.0
C642 C 0.07022 0.59012 0.19682 0.0
C643 C 0.05106 0.56866 0.22585 0.0
C644 C 0.06199 0.56962 0.22075 0.0
C645 C 0.07174 0.58059 0.2095 0.0
C646 C 0.05 0.57844 0.2143 0.0
N647 N 0.05936 0.58876 0.19305 0.0
H648 H 0.07779 0.59857 0.19052 0.0
H649 H 0.04155 0.5776 0.22113 0.0
H650 H 0.08135 0.60758 0.08583 0.0
H651 H 0.04968 0.60099 0.9939 0.0
O652 O 0.07202 0.61459 0.19666 0.0
O653 O 0.05746 0.61611 0.14816 0.0
O654 O 0.04092 0.59092 0.12902 0.0
C655 C 0.06793 0.6212 0.17522 0.0
H656 H 0.0326 0.60051 0.3868 0.0
H657 H 0.08346 0.60831 0.94051 0.0
H658 H 0.0434 0.5604 0.23798 0.0
H659 H 0.08039 0.58173 0.20826 0.0
Co660 Co 0.38938 0.45358 0.1579 0.0
C661 C 0.38708 0.45081 0.32377 0.0
C662 C 0.39695 0.44355 0.2783 0.0
C663 C 0.39662 0.44239 0.35457 0.0
N664 N 0.39099 0.44887 0.25845 0.0
N665 N 0.39044 0.44697 0.38351 0.0
H666 H 0.38195 0.45503 0.32766 0.0
H667 H 0.40155 0.4409 0.24096 0.0
C668 C 0.3972 0.43845 0.08982 0.0
O669 O 0.38618 0.43072 0.08128 0.0
N670 N 0.38787 0.45845 0.05838 0.0
C671 C 0.38745 0.46813 0.0428 0.0
C672 C 0.38685 0.46907 0.96666 0.0
C673 C 0.38739 0.45355 0.99134 0.0
N674 N 0.38684 0.45991 0.93422 0.0
C675 C 0.40171 0.47581 0.22975 0.0
C676 C 0.42181 0.48403 0.14613 0.0
C677 C 0.42133 0.49104 0.20267 0.0
C678 C 0.41106 0.4869 0.24411 0.0
C679 C 0.41225 0.47309 0.13299 0.0
N680 N 0.40248 0.46897 0.17586 0.0
H681 H 0.39384 0.47273 0.26175 0.0
H682 H 0.4127 0.46804 0.08733 0.0
H683 H 0.38769 0.47417 0.08412 0.0
H684 H 0.38767 0.44566 0.98394 0.0
O685 O 0.3767 0.45579 0.19096 0.0
O686 O 0.37478 0.43941 0.14665 0.0
O687 O 0.40016 0.44829 0.11898 0.0
C688 C 0.36986 0.44497 0.17316 0.0
H689 H 0.40101 0.4388 0.38624 0.0
H690 H 0.38642 0.47596 0.93752 0.0
H691 H 0.42946 0.48706 0.1114 0.0
H692 H 0.41033 0.49213 0.2878 0.0
Co693 Co 0.26541 0.20311 0.56347 0.0
C694 C 0.26646 0.20346 0.39678 0.0
C695 C 0.28177 0.21747 0.44538 0.0
C696 C 0.28284 0.21839 0.36906 0.0
N697 N 0.27157 0.20803 0.46315 0.0
N698 N 0.27323 0.20956 0.33826 0.0
H699 H 0.25794 0.19594 0.39115 0.0
H700 H 0.28796 0.22356 0.48463 0.0
C701 C 0.2884 0.21913 0.62843 0.0
O702 O 0.28466 0.2265 0.63698 0.0
N703 N 0.25918 0.19815 0.66321 0.0
C704 C 0.24862 0.18906 0.67884 0.0
C705 C 0.24725 0.18795 0.75503 0.0
C706 C 0.26409 0.20246 0.7303 0.0
N707 N 0.25699 0.19636 0.7876 0.0
C708 C 0.25443 0.17993 0.50388 0.0
C709 C 0.26872 0.17334 0.57363 0.0
C710 C 0.25964 0.16524 0.52897 0.0
C711 C 0.25244 0.16866 0.49366 0.0
C712 C 0.2704 0.18447 0.58241 0.0
N713 N 0.26348 0.18779 0.54641 0.0
H714 H 0.24847 0.18222 0.479 0.0
H715 H 0.27711 0.1902 0.62027 0.0
H716 H 0.24235 0.18358 0.63752 0.0
H717 H 0.27272 0.20976 0.73743 0.0
O718 O 0.25033 0.20043 0.53056 0.0
O719 O 0.26448 0.217 0.57481 0.0
O720 O 0.28172 0.20912 0.60063 0.0
C721 C 0.25404 0.2112 0.54821 0.0
H722 H 0.29003 0.22527 0.33878 0.0
H723 H 0.23958 0.18149 0.78395 0.0
H724 H 0.27452 0.17111 0.60209 0.0
H725 H 0.24514 0.16259 0.46011 0.0
Co726 Co 0.7879 0.06114 0.55257 0.0
C727 C 0.78662 0.06107 0.38717 0.0
C728 C 0.77203 0.06108 0.43847 0.0
C729 C 0.77083 0.06107 0.3621 0.0
N730 N 0.78195 0.06114 0.45406 0.0
N731 N 0.78001 0.06107 0.32968 0.0
H732 H 0.79475 0.06116 0.38097 0.0
H733 H 0.76605 0.06098 0.47977 0.0
C734 C 0.78712 0.08074 0.63014 0.0
O735 O 0.79767 0.08445 0.65542 0.0
N736 N 0.79361 0.06082 0.65271 0.0
C737 C 0.8021 0.05853 0.67113 0.0
C738 C 0.80279 0.05818 0.74751 0.0
C739 C 0.78889 0.06123 0.71903 0.0
N740 N 0.79454 0.05996 0.77794 0.0
C741 C 0.81235 0.07279 0.51639 0.0
C742 C 0.81448 0.09408 0.48493 0.0
C743 C 0.82449 0.09316 0.48816 0.0
C744 C 0.82332 0.08225 0.50071 0.0
C745 C 0.80369 0.08435 0.4994 0.0
N746 N 0.80286 0.07414 0.52181 0.0
H747 H 0.81152 0.06438 0.52369 0.0
H748 H 0.79603 0.08512 0.49386 0.0
H749 H 0.80709 0.05656 0.63267 0.0
H750 H 0.78142 0.06235 0.72405 0.0
O751 O 0.79003 0.04833 0.52319 0.0
O752 O 0.77408 0.0467 0.57439 0.0
O753 O 0.78218 0.07176 0.58847 0.0
C754 C 0.77947 0.04163 0.54718 0.0
H755 H 0.76362 0.06086 0.33288 0.0
H756 H 0.80865 0.05629 0.77809 0.0
H757 H 0.81501 0.10228 0.47189 0.0
H758 H 0.83083 0.08112 0.50066 0.0
Co759 Co 0.93055 0.72219 0.55369 0.0
C760 C 0.93019 0.72089 0.38821 0.0
C761 C 0.92944 0.70592 0.43882 0.0
C762 C 0.92938 0.70474 0.36244 0.0
N763 N 0.92989 0.716 0.45486 0.0
N764 N 0.92985 0.71415 0.33047 0.0
H765 H 0.93058 0.72917 0.38237 0.0
H766 H 0.92934 0.69991 0.47982 0.0
C767 C 0.91112 0.70228 0.63539 0.0
O768 O 0.90814 0.70951 0.66385 0.0
N769 N 0.93161 0.72848 0.65412 0.0
C770 C 0.93446 0.73944 0.67222 0.0
C771 C 0.9351 0.74063 0.74847 0.0
C772 C 0.93123 0.7234 0.7205 0.0
N773 N 0.93296 0.73051 0.77918 0.0
C774 C 0.91884 0.73514 0.52337 0.0
C775 C 0.8975 0.71599 0.4923 0.0
C776 C 0.8984 0.72689 0.49728 0.0
C777 C 0.90932 0.73663 0.50977 0.0
C778 C 0.90725 0.71494 0.50499 0.0
N779 N 0.91752 0.72429 0.52687 0.0
H780 H 0.92726 0.74272 0.53028 0.0
H781 H 0.90646 0.70652 0.4982 0.0
H782 H 0.93662 0.7464 0.63345 0.0
H783 H 0.92973 0.71467 0.72578 0.0
O784 O 0.94329 0.73701 0.52226 0.0
O785 O 0.94499 0.72256 0.57078 0.0
O786 O 0.91978 0.70592 0.59094 0.0
C787 C 0.94998 0.73301 0.54339 0.0
H788 H 0.92928 0.6976 0.33289 0.0
H789 H 0.93739 0.74853 0.77875 0.0
H790 H 0.88929 0.70832 0.47912 0.0
H791 H 0.91043 0.74527 0.51097 0.0
Co792 Co 0.45374 0.05884 0.87727 0.0
C793 C 0.45286 0.05729 0.71178 0.0
C794 C 0.43838 0.04263 0.76337 0.0
C795 C 0.43719 0.04138 0.68712 0.0
N796 N 0.44822 0.05257 0.77871 0.0
N797 N 0.4463 0.05059 0.65429 0.0
H798 H 0.46088 0.06545 0.70581 0.0
H799 H 0.43239 0.0368 0.80482 0.0
C800 C 0.45448 0.03929 0.95552 0.0
O801 O 0.46466 0.04674 0.98347 0.0
N802 N 0.45891 0.06515 0.97764 0.0
C803 C 0.46605 0.07636 0.9964 0.0
C804 C 0.46627 0.07748 0.07273 0.0
C805 C 0.45447 0.05974 0.04366 0.0
N806 N 0.45903 0.067 0.10254 0.0
C807 C 0.47828 0.07298 0.84711 0.0
C808 C 0.48171 0.05491 0.8064 0.0
C809 C 0.49137 0.06611 0.8118 0.0
C810 C 0.48949 0.07528 0.83033 0.0
C811 C 0.47067 0.05304 0.8235 0.0
N812 N 0.46916 0.06188 0.84866 0.0
H813 H 0.47695 0.08019 0.85742 0.0
H814 H 0.46334 0.0444 0.81692 0.0
H815 H 0.47031 0.08351 0.958 0.0
H816 H 0.44767 0.05077 0.04863 0.0
O817 O 0.45488 0.07328 0.8466 0.0
O818 O 0.43931 0.05837 0.89705 0.0
O819 O 0.4491 0.04273 0.91301 0.0
C820 C 0.44419 0.06881 0.86949 0.0
H821 H 0.42995 0.03431 0.65855 0.0
H822 H 0.47124 0.08545 0.10381 0.0
H823 H 0.48266 0.04756 0.79095 0.0
H824 H 0.4966 0.08415 0.8315 0.0
Co825 Co 0.93313 0.39255 0.86928 0.0
C826 C 0.93467 0.39358 0.70374 0.0
C827 C 0.94962 0.39428 0.75448 0.0
C828 C 0.9509 0.39452 0.67821 0.0
N829 N 0.93949 0.39376 0.77037 0.0
N830 N 0.94152 0.3941 0.64601 0.0
H831 H 0.92636 0.39311 0.69808 0.0
H832 H 0.95556 0.39427 0.79554 0.0
C833 C 0.95284 0.41308 0.94495 0.0
O834 O 0.94552 0.41634 0.9682 0.0
N835 N 0.92672 0.39087 0.97017 0.0
C836 C 0.91534 0.38529 0.98893 0.0
C837 C 0.91425 0.38442 0.06518 0.0
C838 C 0.93232 0.39278 0.03638 0.0
N839 N 0.92493 0.38915 0.09512 0.0
C840 C 0.91939 0.40376 0.85546 0.0
C841 C 0.93707 0.42451 0.79999 0.0
C842 C 0.9264 0.42361 0.81785 0.0
C843 C 0.9174 0.41299 0.8441 0.0
C844 C 0.93874 0.41512 0.81342 0.0
N845 N 0.93016 0.40512 0.8449 0.0
H846 H 0.91224 0.39556 0.87254 0.0
H847 H 0.94709 0.41602 0.80051 0.0
H848 H 0.90817 0.38142 0.95032 0.0
H849 H 0.94154 0.3961 0.04185 0.0
O850 O 0.91864 0.37947 0.83664 0.0
O851 O 0.93353 0.37845 0.88437 0.0
O852 O 0.94922 0.40383 0.90641 0.0
C853 C 0.92308 0.37312 0.85686 0.0
H854 H 0.9581 0.39466 0.64903 0.0
H855 H 0.90617 0.38037 0.09609 0.0
H856 H 0.9442 0.43254 0.77863 0.0
H857 H 0.9089 0.41185 0.85596 0.0
Co858 Co 0.59745 0.54045 0.87288 0.0
C859 C 0.59636 0.54112 0.70468 0.0
C860 C 0.60049 0.55717 0.7573 0.0
C861 C 0.6007 0.55866 0.68136 0.0
N862 N 0.59767 0.54614 0.77233 0.0
N863 N 0.59809 0.54855 0.64797 0.0
H864 H 0.59432 0.53231 0.69639 0.0
H865 H 0.60245 0.56377 0.79907 0.0
C866 C 0.57834 0.54584 0.86834 0.0
O867 O 0.57559 0.54067 0.80298 0.0
N868 N 0.59762 0.53519 0.97293 0.0
C869 C 0.59886 0.52605 0.99092 0.0
C870 C 0.59919 0.52538 0.06734 0.0
C871 C 0.59719 0.53997 0.03841 0.0
N872 N 0.59815 0.53413 0.09713 0.0
C873 C 0.58591 0.51762 0.80614 0.0
C874 C 0.56488 0.51 0.87728 0.0
C875 C 0.56591 0.50267 0.82575 0.0
C876 C 0.57669 0.50645 0.79139 0.0
C877 C 0.57432 0.52099 0.89083 0.0
N878 N 0.58443 0.52503 0.85148 0.0
H879 H 0.59429 0.52026 0.78164 0.0
H880 H 0.57349 0.52611 0.93446 0.0
H881 H 0.59958 0.52034 0.9511 0.0
H882 H 0.59648 0.54771 0.04293 0.0
O883 O 0.61024 0.53806 0.84698 0.0
O884 O 0.61197 0.55444 0.89134 0.0
O885 O 0.58676 0.54631 0.90565 0.0
C886 C 0.61697 0.54879 0.8673 0.0
H887 H 0.60295 0.5667 0.6533 0.0
H888 H 0.60008 0.51891 0.09861 0.0
H889 H 0.55692 0.50716 0.90836 0.0
H890 H 0.57797 0.50086 0.75333 0.0
Co891 Co 0.72447 0.78965 0.49415 0.0
C892 C 0.72331 0.78866 0.65987 0.0
C893 C 0.70947 0.77338 0.60904 0.0
C894 C 0.70833 0.77216 0.68533 0.0
N895 N 0.7188 0.78374 0.59317 0.0
N896 N 0.71702 0.78176 0.71747 0.0
H897 H 0.73097 0.79712 0.66589 0.0
H898 H 0.70396 0.76708 0.56791 0.0
C899 C 0.70312 0.78702 0.41612 0.0
O900 O 0.70923 0.79714 0.38322 0.0
N901 N 0.73021 0.79535 0.39364 0.0
C902 C 0.74057 0.80455 0.37506 0.0
C903 C 0.74161 0.80529 0.29876 0.0
C904 C 0.72535 0.7903 0.32756 0.0
N905 N 0.732 0.79639 0.26856 0.0
C906 C 0.73689 0.81392 0.53315 0.0
C907 C 0.71755 0.8162 0.55359 0.0
C908 C 0.72855 0.82615 0.55435 0.0
C909 C 0.73834 0.82489 0.54738 0.0
C910 C 0.71654 0.80539 0.54075 0.0
N911 N 0.72608 0.8045 0.52382 0.0
H912 H 0.7445 0.81305 0.52942 0.0
H913 H 0.70803 0.7978 0.54419 0.0
H914 H 0.74726 0.81015 0.41343 0.0
H915 H 0.71708 0.78237 0.3228 0.0
O916 O 0.7397 0.79225 0.52131 0.0
O917 O 0.72537 0.77599 0.47315 0.0
O918 O 0.70793 0.78326 0.46099 0.0
C919 C 0.73589 0.78164 0.49896 0.0
H920 H 0.70173 0.76463 0.71471 0.0
H921 H 0.74908 0.81171 0.26805 0.0
H922 H 0.70981 0.81678 0.56255 0.0
H923 H 0.74701 0.83236 0.55046 0.0
Co924 Co 0.20115 0.93051 0.46774 0.0
C925 C 0.2023 0.93032 0.63612 0.0
C926 C 0.21819 0.93399 0.58279 0.0
C927 C 0.21975 0.93429 0.65881 0.0
N928 N 0.20719 0.93134 0.56818 0.0
N929 N 0.20975 0.93198 0.69239 0.0
H930 H 0.19353 0.92843 0.64522 0.0
H931 H 0.22468 0.93565 0.54072 0.0
C932 C 0.2069 0.91161 0.4754 0.0
O933 O 0.20199 0.90903 0.54163 0.0
N934 N 0.19552 0.93001 0.36772 0.0
C935 C 0.18581 0.93021 0.3495 0.0
C936 C 0.18482 0.92989 0.27305 0.0
C937 C 0.2004 0.92969 0.30227 0.0
N938 N 0.19398 0.92956 0.24322 0.0
C939 C 0.1786 0.9195 0.538 0.0
C940 C 0.17073 0.89788 0.47526 0.0
C941 C 0.1636 0.89938 0.52612 0.0
C942 C 0.1675 0.91044 0.55619 0.0
C943 C 0.18167 0.90718 0.4582 0.0
N944 N 0.18584 0.91762 0.49346 0.0
H945 H 0.18133 0.92807 0.5594 0.0
H946 H 0.18663 0.90597 0.41514 0.0
H947 H 0.1799 0.93064 0.38914 0.0
H948 H 0.20841 0.9295 0.29811 0.0
O949 O 0.19883 0.94341 0.49086 0.0
O950 O 0.215 0.94489 0.4446 0.0
O951 O 0.207 0.91975 0.43693 0.0
C952 C 0.20945 0.95004 0.46784 0.0
H953 H 0.22773 0.9363 0.68703 0.0
H954 H 0.178 0.93015 0.24187 0.0
H955 H 0.16777 0.88964 0.44747 0.0
H956 H 0.16208 0.91206 0.59372 0.0
Co957 Co 0.05867 0.26947 0.48401 0.0
C958 C 0.05984 0.27098 0.65219 0.0
C959 C 0.05944 0.28524 0.60017 0.0
C960 C 0.0595 0.28662 0.6762 0.0
N961 N 0.05991 0.27557 0.58465 0.0
N962 N 0.05976 0.27765 0.709 0.0
H963 H 0.05957 0.26286 0.66049 0.0
H964 H 0.0588 0.2908 0.55875 0.0
C965 C 0.07905 0.29334 0.47806 0.0
O966 O 0.08285 0.29076 0.53861 0.0
N967 N 0.05713 0.26347 0.38383 0.0
C968 C 0.05504 0.25277 0.36617 0.0
C969 C 0.05495 0.2518 0.2898 0.0
C970 C 0.05823 0.26888 0.31808 0.0
N971 N 0.057 0.26193 0.25943 0.0
C972 C 0.07006 0.2578 0.54747 0.0
C973 C 0.08972 0.26878 0.45947 0.0
C974 C 0.08896 0.26077 0.51299 0.0
C975 C 0.0789 0.25513 0.55682 0.0
C976 C 0.08073 0.2712 0.45232 0.0
N977 N 0.07134 0.26628 0.49908 0.0
H978 H 0.06201 0.2527 0.57703 0.0
H979 H 0.08126 0.27691 0.40784 0.0
H980 H 0.05378 0.24616 0.40621 0.0
H981 H 0.06014 0.27777 0.31334 0.0
O982 O 0.04573 0.25471 0.51478 0.0
O983 O 0.0444 0.26969 0.47253 0.0
O984 O 0.06962 0.28572 0.44726 0.0
C985 C 0.03922 0.25909 0.49746 0.0
H986 H 0.05898 0.29349 0.70497 0.0
H987 H 0.05341 0.24415 0.25911 0.0
H988 H 0.09721 0.27318 0.42316 0.0
H989 H 0.07771 0.24846 0.59624 0.0
Co990 Co 0.19973 0.26317 0.47571 0.0
C991 C 0.2008 0.26448 0.64109 0.0
C992 C 0.21496 0.27952 0.59017 0.0
C993 C 0.21605 0.28075 0.66656 0.0
N994 N 0.20537 0.26936 0.57434 0.0
N995 N 0.20714 0.27129 0.69871 0.0
H996 H 0.19293 0.25618 0.64711 0.0
H997 H 0.22081 0.28557 0.54904 0.0
C998 C 0.19977 0.28316 0.39773 0.0
O999 O 0.18921 0.27605 0.37352 0.0
N1000 N 0.19436 0.25692 0.37538 0.0
C1001 C 0.18669 0.24583 0.35694 0.0
C1002 C 0.18602 0.24475 0.28059 0.0
C1003 C 0.19872 0.26225 0.30898 0.0
N1004 N 0.19353 0.2551 0.25015 0.0
C1005 C 0.17516 0.24972 0.50624 0.0
C1006 C 0.17235 0.26827 0.54421 0.0
C1007 C 0.16247 0.25724 0.53744 0.0
C1008 C 0.16403 0.24782 0.52101 0.0
C1009 C 0.18331 0.26974 0.52926 0.0
N1010 N 0.1845 0.26068 0.50454 0.0
H1011 H 0.17623 0.24233 0.49712 0.0
H1012 H 0.19082 0.27826 0.5361 0.0
H1013 H 0.18233 0.23871 0.39542 0.0
H1014 H 0.20566 0.27113 0.30371 0.0
O1015 O 0.19807 0.24849 0.50657 0.0
O1016 O 0.21387 0.26308 0.45588 0.0
O1017 O 0.20499 0.27939 0.43899 0.0
C1018 C 0.20872 0.25265 0.48357 0.0
H1019 H 0.22301 0.28797 0.69602 0.0
H1020 H 0.18075 0.2368 0.25 0.0
H1021 H 0.17165 0.2758 0.55849 0.0
H1022 H 0.15673 0.23905 0.51938 0.0
Co1023 Co 0.72678 0.93492 0.49481 0.0
C1024 C 0.7255 0.93461 0.66029 0.0
C1025 C 0.71027 0.93331 0.60979 0.0
C1026 C 0.70902 0.9331 0.68617 0.0
N1027 N 0.72055 0.93418 0.59369 0.0
N1028 N 0.71859 0.93392 0.718 0.0
H1029 H 0.73391 0.93528 0.66613 0.0
H1030 H 0.70414 0.93296 0.56884 0.0
C1031 C 0.70697 0.9147 0.41805 0.0
O1032 O 0.71426 0.91162 0.3917 0.0
N1033 N 0.73309 0.93613 0.39406 0.0
C1034 C 0.74438 0.94061 0.37541 0.0
C1035 C 0.74547 0.9411 0.29909 0.0
C1036 C 0.72763 0.9347 0.3277 0.0
N1037 N 0.73492 0.93731 0.26885 0.0
C1038 C 0.74006 0.92329 0.51516 0.0
C1039 C 0.7217 0.90267 0.56669 0.0
C1040 C 0.73234 0.9033 0.55242 0.0
C1041 C 0.74169 0.91385 0.52813 0.0
C1042 C 0.7204 0.91224 0.55155 0.0
N1043 N 0.72933 0.92218 0.52176 0.0
H1044 H 0.74747 0.93146 0.5004 0.0
H1045 H 0.71209 0.91156 0.56236 0.0
H1046 H 0.75157 0.9441 0.41386 0.0
H1047 H 0.71855 0.93205 0.32235 0.0
O1048 O 0.74139 0.948 0.52625 0.0
O1049 O 0.72668 0.94909 0.47664 0.0
O1050 O 0.7106 0.92374 0.45875 0.0
C1051 C 0.73713 0.95443 0.50423 0.0
H1052 H 0.7017 0.93262 0.71589 0.0
H1053 H 0.75354 0.94453 0.26835 0.0
H1054 H 0.71431 0.89471 0.58675 0.0
H1055 H 0.75017 0.91478 0.51928 0.0
Co1056 Co 0.05677 0.78818 0.49794 0.0
C1057 C 0.05718 0.78731 0.66343 0.0
C1058 C 0.05857 0.77343 0.61271 0.0
C1059 C 0.05878 0.7724 0.68905 0.0
N1060 N 0.05764 0.78281 0.59676 0.0
N1061 N 0.05791 0.78112 0.72106 0.0
H1062 H 0.05644 0.795 0.66937 0.0
H1063 H 0.05895 0.76767 0.57166 0.0
C1064 C 0.077 0.78884 0.41902 0.0
O1065 O 0.07979 0.79906 0.39149 0.0
N1066 N 0.05551 0.79323 0.39738 0.0
C1067 C 0.05159 0.8005 0.37906 0.0
C1068 C 0.05107 0.80109 0.30277 0.0
C1069 C 0.05662 0.78897 0.33098 0.0
N1070 N 0.05432 0.79391 0.27226 0.0
C1071 C 0.06746 0.81283 0.52577 0.0
C1072 C 0.08883 0.81598 0.56721 0.0
C1073 C 0.08749 0.82573 0.56046 0.0
C1074 C 0.07652 0.82402 0.54152 0.0
C1075 C 0.07955 0.805 0.55086 0.0
N1076 N 0.06926 0.80361 0.52526 0.0
H1077 H 0.05898 0.81163 0.51548 0.0
H1078 H 0.08072 0.79759 0.55821 0.0
H1079 H 0.04855 0.80461 0.41762 0.0
H1080 H 0.05894 0.7823 0.32562 0.0
O1081 O 0.04353 0.78945 0.52883 0.0
O1082 O 0.04277 0.7737 0.4802 0.0
O1083 O 0.06816 0.78345 0.4616 0.0
C1084 C 0.0373 0.7787 0.50745 0.0
H1085 H 0.05928 0.76558 0.71861 0.0
H1086 H 0.04803 0.80607 0.27228 0.0
H1087 H 0.09707 0.81682 0.58305 0.0
H1088 H 0.07494 0.83123 0.53929 0.0
Co1089 Co 0.93143 0.53579 0.89058 0.0
C1090 C 0.93264 0.53705 0.72513 0.0
C1091 C 0.94711 0.55177 0.77611 0.0
C1092 C 0.94825 0.55301 0.69973 0.0
N1093 N 0.93736 0.54175 0.79191 0.0
N1094 N 0.93915 0.54375 0.66747 0.0
H1095 H 0.92465 0.52885 0.71913 0.0
H1096 H 0.95293 0.55782 0.81729 0.0
C1097 C 0.95185 0.53717 0.97117 0.0
O1098 O 0.94499 0.52694 1.0009 0.0
N1099 N 0.92539 0.53006 0.99081 0.0
C1100 C 0.91494 0.52099 1.00921 0.0
C1101 C 0.9138 0.52034 0.08555 0.0
C1102 C 0.93021 0.53513 0.05702 0.0
N1103 N 0.92345 0.52917 0.11599 0.0
C1104 C 0.91892 0.51144 0.85199 0.0
C1105 C 0.93834 0.50945 0.82696 0.0
C1106 C 0.92741 0.49942 0.82749 0.0
C1107 C 0.91756 0.50052 0.83673 0.0
C1108 C 0.93926 0.52018 0.84097 0.0
N1109 N 0.92972 0.52093 0.86026 0.0
H1110 H 0.91128 0.51223 0.85693 0.0
H1111 H 0.94772 0.52784 0.8369 0.0
H1112 H 0.90824 0.51545 0.97073 0.0
H1113 H 0.93853 0.54299 0.06183 0.0
O1114 O 0.91639 0.53345 0.86146 0.0
O1115 O 0.93062 0.5495 0.9121 0.0
O1116 O 0.94783 0.54172 0.92606 0.0
C1117 C 0.92015 0.54399 0.88521 0.0
H1118 H 0.95515 0.56031 0.67042 0.0
H1119 H 0.90624 0.51402 0.11604 0.0
H1120 H 0.94612 0.50899 0.81626 0.0
H1121 H 0.90893 0.49299 0.83448 0.0
Co1122 Co 0.45651 0.39265 0.88963 0.0
C1123 C 0.4557 0.39311 0.72415 0.0
C1124 C 0.44087 0.39275 0.77464 0.0
C1125 C 0.43984 0.39294 0.69829 0.0
N1126 N 0.45083 0.39293 0.79073 0.0
N1127 N 0.44916 0.39318 0.66645 0.0
H1128 H 0.46389 0.39332 0.71829 0.0
H1129 H 0.43472 0.39239 0.81557 0.0
C1130 C 0.45399 0.41164 0.96537 0.0
O1131 O 0.4648 0.41684 0.98866 0.0
N1132 N 0.46194 0.39205 0.99017 0.0
C1133 C 0.46965 0.38868 1.00864 0.0
C1134 C 0.47047 0.38848 0.08494 0.0
C1135 C 0.45775 0.39325 0.05658 0.0
N1136 N 0.46303 0.39141 0.1153 0.0
C1137 C 0.48118 0.40539 0.86341 0.0
C1138 C 0.48233 0.42582 0.81933 0.0
C1139 C 0.49267 0.4255 0.82594 0.0
C1140 C 0.49195 0.415 0.84636 0.0
C1141 C 0.47175 0.41598 0.83664 0.0
N1142 N 0.47133 0.40615 0.86311 0.0
H1143 H 0.48078 0.39729 0.87518 0.0
H1144 H 0.46386 0.41631 0.8292 0.0
H1145 H 0.47394 0.38583 0.97015 0.0
H1146 H 0.45079 0.39515 0.06215 0.0
O1147 O 0.45943 0.3804 0.85813 0.0
O1148 O 0.44292 0.37787 0.90671 0.0
O1149 O 0.44985 0.40239 0.92636 0.0
C1150 C 0.44877 0.37333 0.87883 0.0
H1151 H 0.43264 0.39268 0.66858 0.0
H1152 H 0.47577 0.38586 0.11565 0.0
H1153 H 0.48239 0.43366 0.80246 0.0
H1154 H 0.49963 0.41416 0.84851 0.0
Co1155 Co 0.59804 0.06026 0.88449 0.0
C1156 C 0.59735 0.05878 0.7163 0.0
C1157 C 0.59902 0.04525 0.76882 0.0
C1158 C 0.59912 0.04392 0.69277 0.0
N1159 N 0.59767 0.05443 0.78398 0.0
N1160 N 0.59807 0.05243 0.65965 0.0
H1161 H 0.59678 0.06646 0.70775 0.0
H1162 H 0.60003 0.03995 0.81053 0.0
C1163 C 0.57835 0.03596 0.88593 0.0
O1164 O 0.57484 0.03829 0.82312 0.0
N1165 N 0.59872 0.06599 0.98455 0.0
C1166 C 0.59989 0.07634 1.00239 0.0
C1167 C 0.59982 0.07721 0.07883 0.0
C1168 C 0.59803 0.0607 0.05021 0.0
N1169 N 0.59863 0.06738 0.10903 0.0
C1170 C 0.58648 0.07148 0.81712 0.0
C1171 C 0.56573 0.05865 0.89236 0.0
C1172 C 0.56654 0.0665 0.83762 0.0
C1173 C 0.5772 0.0733 0.80154 0.0
C1174 C 0.57523 0.05724 0.90664 0.0
N1175 N 0.58513 0.06289 0.86483 0.0
H1176 H 0.59479 0.07711 0.79161 0.0
H1177 H 0.57458 0.0516 0.95186 0.0
H1178 H 0.6007 0.08279 0.96245 0.0
H1179 H 0.59694 0.05211 0.05469 0.0
O1180 O 0.6109 0.07523 0.8559 0.0
O1181 O 0.61246 0.06055 0.90102 0.0
O1182 O 0.58732 0.04385 0.91941 0.0
C1183 C 0.61757 0.07114 0.8759 0.0
H1184 H 0.60024 0.03738 0.66421 0.0
H1185 H 0.60075 0.08462 0.10969 0.0
H1186 H 0.55785 0.05372 0.92464 0.0
H1187 H 0.57832 0.07983 0.76119 0.0
H1188 H 0.1215 0.42895 0.2234 0.0
H1189 H 0.09021 0.39744 0.16427 0.0
H1190 H 0.11099 0.43959 0.21978 0.0
H1191 H 0.07985 0.40807 0.15382 0.0
H1192 H 0.0604 0.42646 0.2075 0.0
H1193 H 0.07132 0.41638 0.21798 0.0
H1194 H 0.10257 0.44777 0.15133 0.0
H1195 H 0.09166 0.458 0.14769 0.0
C1196 C 0.11239 0.42438 0.20826 0.0
C1197 C 0.1066 0.41241 0.19454 0.0
C1198 C 0.10635 0.43046 0.20561 0.0
C1199 C 0.09446 0.42475 0.18689 0.0
C1200 C 0.08885 0.41278 0.17085 0.0
C1201 C 0.0948 0.40666 0.17596 0.0
C1202 C 0.06963 0.43117 0.19566 0.0
C1203 C 0.07523 0.44296 0.17687 0.0
C1204 C 0.07591 0.42538 0.20079 0.0
C1205 C 0.08789 0.43115 0.18456 0.0
C1206 C 0.09345 0.44302 0.16564 0.0
C1207 C 0.0872 0.4489 0.16296 0.0
H1208 H 0.56067 0.6355 0.09594 0.0
H1209 H 0.53057 0.63327 0.20424 0.0
H1210 H 0.57099 0.65646 0.11069 0.0
H1211 H 0.54105 0.6544 0.21979 0.0
H1212 H 0.56179 0.69428 0.16904 0.0
H1213 H 0.55014 0.6733 0.14737 0.0
H1214 H 0.57891 0.66934 0.21989 0.0
H1215 H 0.59049 0.69012 0.24076 0.0
C1216 C 0.55623 0.63949 0.12272 0.0
C1217 C 0.54484 0.63273 0.14954 0.0
C1218 C 0.56217 0.6515 0.13141 0.0
C1219 C 0.55687 0.65705 0.16712 0.0
C1220 C 0.54533 0.65035 0.19177 0.0
C1221 C 0.53936 0.63827 0.18319 0.0
C1222 C 0.56559 0.6889 0.18024 0.0
C1223 C 0.57706 0.69384 0.20622 0.0
C1224 C 0.55892 0.67691 0.1682 0.0
C1225 C 0.56366 0.66971 0.18138 0.0
C1226 C 0.57508 0.67469 0.20801 0.0
C1227 C 0.5817 0.6866 0.22034 0.0
H1228 H 0.35876 0.93022 0.11953 0.0
H1229 H 0.36055 0.90112 0.21088 0.0
H1230 H 0.33766 0.91918 0.12765 0.0
H1231 H 0.33937 0.8901 0.21987 0.0
H1232 H 0.30058 0.87052 0.1515 0.0
H1233 H 0.32175 0.88103 0.13985 0.0
H1234 H 0.323 0.91189 0.22718 0.0
H1235 H 0.30194 0.90149 0.23794 0.0
C1236 C 0.35464 0.92146 0.14137 0.0
C1237 C 0.36131 0.91655 0.16484 0.0
C1238 C 0.34256 0.91516 0.14637 0.0
C1239 C 0.33686 0.90379 0.17478 0.0
C1240 C 0.34351 0.8988 0.19718 0.0
C1241 C 0.35563 0.90514 0.19242 0.0
C1242 C 0.3054 0.87955 0.16814 0.0
C1243 C 0.29961 0.88519 0.19541 0.0
C1244 C 0.31751 0.88554 0.16184 0.0
C1245 C 0.32403 0.8973 0.18231 0.0
C1246 C 0.31821 0.90289 0.20991 0.0
C1247 C 0.30614 0.8969 0.21647 0.0
H1248 H 0.42185 0.06132 0.91121 0.0
H1249 H 0.45212 0.09073 0.81577 0.0
H1250 H 0.41113 0.07166 0.90074 0.0
H1251 H 0.4413 0.10103 0.80419 0.0
H1252 H 0.39196 0.08795 0.78789 0.0
H1253 H 0.40312 0.07812 0.80142 0.0
H1254 H 0.43244 0.10991 0.88135 0.0
H1255 H 0.4213 0.11984 0.86669 0.0
C1256 C 0.42621 0.06999 0.8879 0.0
C1257 C 0.43781 0.0752 0.86409 0.0
C1258 C 0.42005 0.07589 0.88155 0.0
C1259 C 0.42535 0.08714 0.85132 0.0
C1260 C 0.43701 0.09241 0.82836 0.0
C1261 C 0.44318 0.08649 0.83459 0.0
C1262 C 0.40078 0.09285 0.80839 0.0
C1263 C 0.40576 0.10467 0.82628 0.0
C1264 C 0.40715 0.0872 0.81653 0.0
C1265 C 0.41865 0.09323 0.84269 0.0
C1266 C 0.42364 0.10506 0.86039 0.0
C1267 C 0.41724 0.11073 0.85239 0.0
H1268 H 0.87055 0.3 0.80626 0.0
H1269 H 0.90197 0.29992 0.86329 0.0
H1270 H 0.88103 0.32112 0.8084 0.0
H1271 H 0.91234 0.32096 0.8724 0.0
H1272 H 0.93147 0.35897 0.81991 0.0
H1273 H 0.92078 0.33794 0.80973 0.0
H1274 H 0.88933 0.33766 0.87666 0.0
H1275 H 0.9 0.35878 0.87986 0.0
C1276 C 0.87969 0.30456 0.82059 0.0
C1277 C 0.8855 0.29842 0.83435 0.0
C1278 C 0.88572 0.31669 0.82245 0.0
C1279 C 0.89763 0.32293 0.84053 0.0
C1280 C 0.9033 0.31662 0.85608 0.0
C1281 C 0.89735 0.30452 0.85172 0.0
C1282 C 0.92225 0.35434 0.8318 0.0
C1283 C 0.91652 0.36041 0.85041 0.0
C1284 C 0.91609 0.34225 0.82685 0.0
C1285 C 0.90411 0.33591 0.84304 0.0
C1286 C 0.89845 0.34211 0.86212 0.0
C1287 C 0.90456 0.35424 0.86458 0.0
H1288 H 0.63061 0.5391 0.88763 0.0
H1289 H 0.63186 0.57126 0.83372 0.0
H1290 H 0.65177 0.54888 0.88297 0.0
H1291 H 0.65282 0.5809 0.82257 0.0
H1292 H 0.6907 0.59893 0.87087 0.0
H1293 H 0.66975 0.58863 0.8856 0.0
H1294 H 0.66829 0.55691 0.81228 0.0
H1295 H 0.68944 0.56721 0.80413 0.0
C1296 C 0.63546 0.54825 0.87373 0.0
C1297 C 0.62968 0.55448 0.86164 0.0
C1298 C 0.64759 0.55387 0.87045 0.0
C1299 C 0.65417 0.56578 0.85282 0.0
C1300 C 0.64822 0.57185 0.83876 0.0
C1301 C 0.63615 0.56632 0.84436 0.0
C1302 C 0.68585 0.58973 0.85847 0.0
C1303 C 0.69161 0.58384 0.8362 0.0
C1304 C 0.6738 0.58381 0.86608 0.0
C1305 C 0.66714 0.57189 0.84899 0.0
C1306 C 0.67302 0.56601 0.82713 0.0
C1307 C 0.68515 0.5719 0.82188 0.0
H1308 H 0.89782 0.53476 0.83431 0.0
H1309 H 0.92639 0.56598 0.92705 0.0
H1310 H 0.88647 0.54458 0.82385 0.0
H1311 H 0.91506 0.57566 0.91735 0.0
H1312 H 0.86663 0.56396 0.89117 0.0
H1313 H 0.87707 0.55322 0.90306 0.0
H1314 H 0.90798 0.58268 0.81443 0.0
H1315 H 0.89768 0.59338 0.80332 0.0
C1316 C 0.90165 0.54368 0.85277 0.0
C1317 C 0.91302 0.54962 0.88105 0.0
C1318 C 0.89513 0.54927 0.84715 0.0
C1319 C 0.89992 0.56091 0.86928 0.0
C1320 C 0.91121 0.56675 0.89872 0.0
C1321 C 0.91768 0.56117 0.90459 0.0
C1322 C 0.87565 0.56811 0.87421 0.0
C1323 C 0.88136 0.57953 0.84671 0.0
C1324 C 0.8816 0.56195 0.88064 0.0
C1325 C 0.89336 0.56714 0.86017 0.0
C1326 C 0.89898 0.5785 0.8318 0.0
C1327 C 0.89305 0.58462 0.82508 0.0
H1328 H 0.39769 0.30068 0.87781 0.0
H1329 H 0.42874 0.30025 0.8146 0.0
H1330 H 0.40873 0.3216 0.89064 0.0
H1331 H 0.43985 0.32146 0.82129 0.0
H1332 H 0.45825 0.35948 0.89996 0.0
H1333 H 0.44819 0.33827 0.89269 0.0
H1334 H 0.41701 0.33805 0.82103 0.0
H1335 H 0.42683 0.35896 0.83449 0.0
C1336 C 0.40691 0.30516 0.86577 0.0
C1337 C 0.41239 0.29895 0.8448 0.0
C1338 C 0.41326 0.31719 0.87228 0.0
C1339 C 0.4252 0.32337 0.85533 0.0
C1340 C 0.43072 0.31706 0.83543 0.0
C1341 C 0.42438 0.30492 0.83115 0.0
C1342 C 0.44924 0.35479 0.88276 0.0
C1343 C 0.44322 0.36073 0.86871 0.0
C1344 C 0.44347 0.34266 0.87813 0.0
C1345 C 0.43167 0.33632 0.85747 0.0
C1346 C 0.42593 0.34248 0.83999 0.0
C1347 C 0.43157 0.35451 0.84686 0.0
H1348 H 0.63088 0.09365 0.82888 0.0
H1349 H 0.63311 0.06422 0.90911 0.0
H1350 H 0.65204 0.10474 0.81608 0.0
H1351 H 0.65414 0.0753 0.89721 0.0
H1352 H 0.69123 0.12376 0.88231 0.0
H1353 H 0.67005 0.11344 0.8936 0.0
H1354 H 0.66834 0.08299 0.79529 0.0
H1355 H 0.68939 0.09319 0.78488 0.0
C1356 C 0.63588 0.08957 0.84403 0.0
C1357 C 0.63034 0.07805 0.86968 0.0
C1358 C 0.64799 0.09594 0.83705 0.0
C1359 C 0.65474 0.09087 0.8552 0.0
C1360 C 0.64916 0.07939 0.88164 0.0
C1361 C 0.63711 0.07306 0.88884 0.0
C1362 C 0.68631 0.11488 0.86294 0.0
C1363 C 0.69197 0.10926 0.83312 0.0
C1364 C 0.67419 0.109 0.86907 0.0
C1365 C 0.66754 0.09738 0.84583 0.0
C1366 C 0.67323 0.09187 0.81483 0.0
C1367 C 0.6853 0.09774 0.80851 0.0
H1368 H 0.56972 0.93388 0.20344 0.0
H1369 H 0.53875 0.90205 0.14459 0.0
H1370 H 0.58049 0.92362 0.21178 0.0
H1371 H 0.54964 0.89181 0.14601 0.0
H1372 H 0.56937 0.87386 0.21561 0.0
H1373 H 0.55828 0.88387 0.2139 0.0
H1374 H 0.58925 0.91554 0.1472 0.0
H1375 H 0.60038 0.90563 0.15583 0.0
C1376 C 0.56529 0.92467 0.19139 0.0
C1377 C 0.55345 0.91871 0.17364 0.0
C1378 C 0.57147 0.91877 0.19529 0.0
C1379 C 0.56604 0.90682 0.17888 0.0
C1380 C 0.55414 0.90092 0.16065 0.0
C1381 C 0.54788 0.90678 0.15924 0.0
C1382 C 0.57374 0.88297 0.20068 0.0
C1383 C 0.58569 0.88903 0.1861 0.0
C1384 C 0.56738 0.88873 0.1991 0.0
C1385 C 0.57279 0.90061 0.18053 0.0
C1386 C 0.58476 0.90652 0.16394 0.0
C1387 C 0.59116 0.90083 0.16801 0.0
H1388 H 0.06 0.63566 0.21242 0.0
H1389 H 0.09112 0.63522 0.15141 0.0
H1390 H 0.07093 0.65668 0.22067 0.0
H1391 H 0.10205 0.65639 0.15282 0.0
H1392 H 0.12103 0.6945 0.21944 0.0
H1393 H 0.11063 0.67333 0.21841 0.0
H1394 H 0.07922 0.67325 0.15397 0.0
H1395 H 0.08948 0.69427 0.16184 0.0
C1396 C 0.06921 0.64015 0.19986 0.0
C1397 C 0.07475 0.63391 0.18127 0.0
C1398 C 0.0755 0.65224 0.20368 0.0
C1399 C 0.08744 0.65842 0.18626 0.0
C1400 C 0.09296 0.65205 0.16785 0.0
C1401 C 0.0867 0.63991 0.16649 0.0
C1402 C 0.11189 0.68986 0.20523 0.0
C1403 C 0.106 0.69593 0.19126 0.0
C1404 C 0.10591 0.67772 0.20407 0.0
C1405 C 0.09397 0.6714 0.18668 0.0
C1406 C 0.08826 0.67765 0.17017 0.0
C1407 C 0.09416 0.68974 0.17377 0.0
H1408 H 0.3568 0.45423 0.22466 0.0
H1409 H 0.35414 0.42246 0.14266 0.0
H1410 H 0.33568 0.44421 0.24091 0.0
H1411 H 0.33319 0.41257 0.1579 0.0
H1412 H 0.2963 0.42408 0.17617 0.0
H1413 H 0.31749 0.43499 0.16567 0.0
H1414 H 0.31913 0.40599 0.25986 0.0
H1415 H 0.29807 0.39507 0.26929 0.0
C1416 C 0.35171 0.44513 0.20999 0.0
C1417 C 0.35713 0.43912 0.18266 0.0
C1418 C 0.33963 0.43942 0.21895 0.0
C1419 C 0.33278 0.42758 0.20114 0.0
C1420 C 0.33823 0.42163 0.17336 0.0
C1421 C 0.35025 0.42733 0.16421 0.0
C1422 C 0.30121 0.42007 0.19492 0.0
C1423 C 0.29552 0.40869 0.22304 0.0
C1424 C 0.31334 0.42634 0.18927 0.0
C1425 C 0.31997 0.42132 0.21138 0.0
C1426 C 0.31426 0.41004 0.24115 0.0
C1427 C 0.30218 0.4038 0.24689 0.0
H1428 H 0.75918 0.79105 0.4747 0.0
H1429 H 0.7282 0.7594 0.5367 0.0
H1430 H 0.77021 0.78085 0.47563 0.0
H1431 H 0.73918 0.7494 0.54402 0.0
H1432 H 0.75723 0.73025 0.48208 0.0
H1433 H 0.7473 0.7413 0.47285 0.0
H1434 H 0.77872 0.77225 0.5422 0.0
H1435 H 0.78884 0.76118 0.54495 0.0
C1436 C 0.75482 0.78195 0.48975 0.0
C1437 C 0.74287 0.77593 0.50482 0.0
C1438 C 0.76111 0.77609 0.49076 0.0
C1439 C 0.75561 0.76419 0.50886 0.0
C1440 C 0.7437 0.75841 0.52699 0.0
C1441 C 0.73739 0.76416 0.52368 0.0
C1442 C 0.762 0.73944 0.49475 0.0
C1443 C 0.77373 0.74489 0.51451 0.0
C1444 C 0.75629 0.7458 0.49035 0.0
C1445 C 0.76208 0.7577 0.50836 0.0
C1446 C 0.77395 0.76317 0.52712 0.0
C1447 C 0.77976 0.75683 0.52918 0.0
H1448 H 0.23149 0.96559 0.42486 0.0
H1449 H 0.20031 0.96337 0.51505 0.0
H1450 H 0.24133 0.98665 0.43276 0.0
H1451 H 0.21027 0.98455 0.5239 0.0
H1452 H 0.22986 0.02368 0.45994 0.0
H1453 H 0.2191 0.00254 0.44589 0.0
H1454 H 0.24839 0.00085 0.53451 0.0
H1455 H 0.25913 0.02184 0.54764 0.0
C1456 C 0.22673 0.9696 0.44627 0.0
C1457 C 0.21515 0.96282 0.46975 0.0
C1458 C 0.23239 0.98167 0.45113 0.0
C1459 C 0.2266 0.98725 0.47955 0.0
C1460 C 0.21492 0.98049 0.50133 0.0
C1461 C 0.20925 0.96838 0.49662 0.0
C1462 C 0.23398 0.01877 0.47633 0.0
C1463 C 0.24535 0.02441 0.50461 0.0
C1464 C 0.2278 0.00668 0.46863 0.0
C1465 C 0.23294 5e-05 0.48864 0.0
C1466 C 0.24427 0.00573 0.51742 0.0
C1467 C 0.2504 0.01776 0.52536 0.0
H1468 H 0.96621 0.20569 0.54561 0.0
H1469 H 0.96581 0.23703 0.49137 0.0
H1470 H 0.98736 0.21636 0.54361 0.0
H1471 H 0.98686 0.24759 0.48259 0.0
H1472 H 0.02476 0.26702 0.53683 0.0
H1473 H 0.00372 0.25602 0.54662 0.0
H1474 H 0.00402 0.22505 0.47586 0.0
H1475 H 0.02516 0.236 0.47283 0.0
C1476 C 0.97071 0.21485 0.53189 0.0
C1477 C 0.96446 0.22059 0.51895 0.0
C1478 C 0.98285 0.22099 0.53017 0.0
C1479 C 0.989 0.23294 0.51316 0.0
C1480 C 0.98259 0.23853 0.49818 0.0
C1481 C 0.97048 0.23246 0.50233 0.0
C1482 C 0.02027 0.25783 0.52401 0.0
C1483 C 0.02651 0.25232 0.50424 0.0
C1484 C 0.00817 0.2515 0.52874 0.0
C1485 C 0.00198 0.23957 0.51122 0.0
C1486 C 0.00836 0.23412 0.49128 0.0
C1487 C 0.02049 0.2404 0.48896 0.0
H1488 H 0.23165 0.20136 0.49709 0.0
H1489 H 0.26034 0.23361 0.57729 0.0
H1490 H 0.2202 0.21096 0.47906 0.0
H1491 H 0.24894 0.24308 0.5602 0.0
H1492 H 0.23089 0.25957 0.44163 0.0
H1493 H 0.24135 0.24904 0.45505 0.0
H1494 H 0.21094 0.22016 0.5531 0.0
H1495 H 0.20035 0.23068 0.53875 0.0
C1496 C 0.23549 0.21047 0.51103 0.0
C1497 C 0.2469 0.21675 0.53827 0.0
C1498 C 0.22893 0.21594 0.50106 0.0
C1499 C 0.23371 0.22779 0.51772 0.0
C1500 C 0.24508 0.23399 0.54565 0.0
C1501 C 0.25159 0.22854 0.55584 0.0
C1502 C 0.2264 0.25096 0.46581 0.0
C1503 C 0.21482 0.24598 0.48956 0.0
C1504 C 0.23242 0.24495 0.47381 0.0
C1505 C 0.227 0.23381 0.5057 0.0
C1506 C 0.21532 0.2287 0.52791 0.0
C1507 C 0.20929 0.23475 0.52007 0.0
H1508 H 0.75942 0.96822 0.55362 0.0
H1509 H 0.72974 0.96951 0.46806 0.0
H1510 H 0.77006 0.98939 0.56518 0.0
H1511 H 0.74037 0.99055 0.47877 0.0
H1512 H 0.7574 0.02599 0.589 0.0
H1513 H 0.74757 0.00494 0.57969 0.0
H1514 H 0.77858 0.00723 0.48592 0.0
H1515 H 0.78852 0.0284 0.49606 0.0
C1516 C 0.75519 0.97302 0.53712 0.0
C1517 C 0.74373 0.96721 0.51026 0.0
C1518 C 0.7613 0.98513 0.54335 0.0
C1519 C 0.75602 0.99162 0.52326 0.0
C1520 C 0.74461 0.98578 0.49579 0.0
C1521 C 0.73854 0.97372 0.48928 0.0
C1522 C 0.76215 0.02202 0.56655 0.0
C1523 C 0.77372 0.02885 0.54296 0.0
C1524 C 0.75649 0.00996 0.56088 0.0
C1525 C 0.76228 0.00443 0.5316 0.0
C1526 C 0.77393 0.01124 0.50918 0.0
C1527 C 0.77959 0.02335 0.51462 0.0
H1528 H 0.96463 0.72528 0.50599 0.0
H1529 H 0.96376 0.75624 0.565 0.0
H1530 H 0.98561 0.73652 0.494 0.0
H1531 H 0.9849 0.76748 0.55993 0.0
H1532 H 0.02254 0.78698 0.48537 0.0
H1533 H 0.00139 0.77609 0.49015 0.0
H1534 H 0.00258 0.74541 0.55639 0.0
H1535 H 0.02358 0.75614 0.5447 0.0
C1536 C 0.96902 0.73452 0.51742 0.0
C1537 C 0.96267 0.73993 0.53637 0.0
C1538 C 0.98109 0.74098 0.51139 0.0
C1539 C 0.98714 0.75298 0.52685 0.0
C1540 C 0.98066 0.75835 0.54612 0.0
C1541 C 0.96853 0.75191 0.54966 0.0
C1542 C 0.01819 0.77789 0.5007 0.0
C1543 C 0.02459 0.77234 0.5142 0.0
C1544 C 0.00605 0.77163 0.50408 0.0
C1545 C 0.0001 0.75976 0.52337 0.0
C1546 C 0.00669 0.75438 0.53899 0.0
C1547 C 0.01877 0.76055 0.53313 0.0
H1548 H 0.07107 0.30421 0.38702 0.0
H1549 H 0.10199 0.30903 0.49728 0.0
H1550 H 0.0817 0.32407 0.34104 0.0
H1551 H 0.11286 0.32866 0.44795 0.0
H1552 H 0.10547 0.35719 0.21855 0.0
H1553 H 0.0956 0.33699 0.25834 0.0
H1554 H 0.11546 0.34712 0.46313 0.0
H1555 H 0.12574 0.36718 0.42089 0.0
C1556 C 0.0802 0.30948 0.40038 0.0
C1557 C 0.08569 0.30511 0.44608 0.0
C1558 C 0.08634 0.32086 0.37363 0.0
C1559 C 0.09819 0.32807 0.39077 0.0
C1560 C 0.10371 0.32352 0.43491 0.0
C1561 C 0.09751 0.31222 0.46282 0.0
C1562 C 0.10775 0.35505 0.27184 0.0
C1563 C 0.11638 0.36373 0.3166 0.0
C1564 C 0.10204 0.34347 0.29502 0.0
C1565 C 0.10465 0.34034 0.36429 0.0
C1566 C 0.11334 0.34909 0.40882 0.0
C1567 C 0.11922 0.36063 0.38489 0.0
H1568 H 0.63514 0.72769 0.35633 0.0
H1569 H 0.62951 0.75602 0.29859 0.0
H1570 H 0.65533 0.74145 0.38385 0.0
H1571 H 0.64976 0.76987 0.32807 0.0
H1572 H 0.69008 0.78932 0.30597 0.0
H1573 H 0.66939 0.77646 0.28132 0.0
H1574 H 0.66697 0.75592 0.47435 0.0
H1575 H 0.68753 0.7685 0.49774 0.0
C1576 C 0.63818 0.73687 0.35018 0.0
C1577 C 0.6307 0.74075 0.32534 0.0
C1578 C 0.64976 0.74478 0.36636 0.0
C1579 C 0.65416 0.75677 0.35847 0.0
C1580 C 0.64667 0.76068 0.334 0.0
C1581 C 0.63505 0.75275 0.31764 0.0
C1582 C 0.68509 0.78209 0.34327 0.0
C1583 C 0.69048 0.77985 0.40323 0.0
C1584 C 0.67324 0.77475 0.32938 0.0
C1585 C 0.66655 0.76508 0.37543 0.0
C1586 C 0.6719 0.76312 0.43678 0.0
C1587 C 0.68371 0.77038 0.45034 0.0
H1588 H 0.21588 0.91307 0.33573 0.0
H1589 H 0.20963 0.89497 0.5459 0.0
H1590 H 0.22479 0.90227 0.28669 0.0
H1591 H 0.21878 0.8844 0.49754 0.0
H1592 H 0.2524 0.89146 0.2603 0.0
H1593 H 0.24226 0.90133 0.30355 0.0
H1594 H 0.2163 0.86967 0.40892 0.0
H1595 H 0.22662 0.85985 0.36722 0.0
C1596 C 0.21643 0.9068 0.37152 0.0
C1597 C 0.21207 0.9049 0.44479 0.0
C1598 C 0.22158 0.90065 0.34352 0.0
C1599 C 0.22253 0.89248 0.38823 0.0
C1600 C 0.21805 0.8905 0.46121 0.0
C1601 C 0.21287 0.89662 0.48911 0.0
C1602 C 0.2445 0.88658 0.29249 0.0
C1603 C 0.24035 0.87488 0.31062 0.0
C1604 C 0.23865 0.89223 0.31688 0.0
C1605 C 0.22847 0.8863 0.35978 0.0
C1606 C 0.2242 0.87454 0.37688 0.0
C1607 C 0.23009 0.86889 0.35263 0.0
H1608 H 0.2909 0.08878 0.73359 0.0
H1609 H 0.30098 0.07808 0.53314 0.0
H1610 H 0.31092 0.09856 0.77646 0.0
H1611 H 0.32116 0.08841 0.57356 0.0
H1612 H 0.34895 0.12318 0.81124 0.0
H1613 H 0.32939 0.11438 0.76072 0.0
H1614 H 0.33399 0.08755 0.65763 0.0
H1615 H 0.35378 0.09681 0.70476 0.0
C1616 C 0.29746 0.0887 0.69815 0.0
C1617 C 0.2944 0.08266 0.63022 0.0
C1618 C 0.30897 0.09437 0.72243 0.0
C1619 C 0.31775 0.09432 0.67858 0.0
C1620 C 0.31466 0.08845 0.60969 0.0
C1621 C 0.3031 0.08259 0.58616 0.0
C1622 C 0.34577 0.11544 0.77737 0.0
C1623 C 0.35286 0.11065 0.76207 0.0
C1624 C 0.33452 0.11033 0.74878 0.0
C1625 C 0.32999 0.10016 0.70544 0.0
C1626 C 0.33718 0.09546 0.68962 0.0
C1627 C 0.34853 0.10072 0.71703 0.0
H1628 H 0.89835 0.20005 0.73627 0.0
H1629 H 0.9091 0.2195 0.53032 0.0
H1630 H 0.88716 0.20951 0.76878 0.0
H1631 H 0.89769 0.22871 0.56216 0.0
H1632 H 0.86513 0.23212 0.6208 0.0
H1633 H 0.87488 0.22121 0.58824 0.0
H1634 H 0.8943 0.23224 0.79372 0.0
H1635 H 0.8848 0.24336 0.82557 0.0
C1636 C 0.89821 0.20625 0.6977 0.0
C1637 C 0.90461 0.2091 0.63098 0.0
C1638 C 0.89186 0.21166 0.71639 0.0
C1639 C 0.89158 0.21979 0.66778 0.0
C1640 C 0.89773 0.22241 0.60023 0.0
C1641 C 0.90429 0.2172 0.58233 0.0
C1642 C 0.87143 0.23215 0.65912 0.0
C1643 C 0.87425 0.2386 0.72552 0.0
C1644 C 0.87701 0.22596 0.6404 0.0
C1645 C 0.88529 0.2259 0.68866 0.0
C1646 C 0.88789 0.2321 0.75592 0.0
C1647 C 0.88251 0.2385 0.77383 0.0
H1648 H 0.79641 0.69479 0.67894 0.0
H1649 H 0.76425 0.69047 0.59112 0.0
H1650 H 0.78622 0.67478 0.72262 0.0
H1651 H 0.754 0.67057 0.63674 0.0
H1652 H 0.76201 0.64394 0.86953 0.0
H1653 H 0.7726 0.66342 0.81787 0.0
H1654 H 0.7515 0.65155 0.61888 0.0
H1655 H 0.74066 0.63208 0.67164 0.0
C1656 C 0.78716 0.68958 0.66906 0.0
C1657 C 0.78114 0.69425 0.63185 0.0
C1658 C 0.7813 0.67812 0.69448 0.0
C1659 C 0.76927 0.67107 0.68361 0.0
C1660 C 0.76329 0.6757 0.64527 0.0
C1661 C 0.76916 0.68714 0.61951 0.0
C1662 C 0.75965 0.64546 0.81463 0.0
C1663 C 0.75046 0.63646 0.77481 0.0
C1664 C 0.76578 0.65663 0.78476 0.0
C1665 C 0.76293 0.65907 0.71412 0.0
C1666 C 0.75382 0.65002 0.67387 0.0
C1667 C 0.74764 0.63884 0.70395 0.0
H1668 H 0.86415 0.62751 0.63051 0.0
H1669 H 0.88283 0.6347 0.83875 0.0
H1670 H 0.87457 0.64831 0.60122 0.0
H1671 H 0.89301 0.65544 0.81006 0.0
H1672 H 0.89782 0.69214 0.75866 0.0
H1673 H 0.88656 0.67138 0.7876 0.0
H1674 H 0.89732 0.66351 0.57888 0.0
H1675 H 0.90878 0.68425 0.55045 0.0
C1676 C 0.87039 0.63354 0.67019 0.0
C1677 C 0.87272 0.62952 0.73673 0.0
C1678 C 0.87637 0.64539 0.65331 0.0
C1679 C 0.88455 0.65341 0.70353 0.0
C1680 C 0.88669 0.64941 0.77073 0.0
C1681 C 0.88091 0.63756 0.78685 0.0
C1682 C 0.89775 0.68597 0.71897 0.0
C1683 C 0.90419 0.68978 0.6525 0.0
C1684 C 0.89136 0.67413 0.73561 0.0
C1685 C 0.89108 0.66591 0.68528 0.0
C1686 C 0.89735 0.6697 0.61825 0.0
C1687 C 0.90395 0.68155 0.60234 0.0
H1688 H 0.29924 0.20621 0.61993 0.0
H1689 H 0.30509 0.24017 0.68024 0.0
H1690 H 0.31941 0.2124 0.65079 0.0
H1691 H 0.32518 0.2464 0.7089 0.0
H1692 H 0.35685 0.25109 0.82645 0.0
H1693 H 0.33639 0.24327 0.80041 0.0
H1694 H 0.33926 0.22534 0.60765 0.0
H1695 H 0.35985 0.233 0.63512 0.0
C1696 C 0.30481 0.21498 0.63972 0.0
C1697 C 0.30053 0.22268 0.648 0.0
C1698 C 0.31639 0.21855 0.65689 0.0
C1699 C 0.3239 0.22987 0.68266 0.0
C1700 C 0.31959 0.23754 0.69059 0.0
C1701 C 0.30806 0.23398 0.67372 0.0
C1702 C 0.35315 0.24546 0.77854 0.0
C1703 C 0.36001 0.24277 0.73234 0.0
C1704 C 0.3414 0.24101 0.76344 0.0
C1705 C 0.33621 0.23381 0.70132 0.0
C1706 C 0.34298 0.23081 0.65622 0.0
C1707 C 0.35477 0.23523 0.67173 0.0
H1708 H 0.73739 0.10064 0.77404 0.0
H1709 H 0.76541 0.13223 0.68046 0.0
H1710 H 0.74803 0.0906 0.74626 0.0
H1711 H 0.77605 0.1221 0.65257 0.0
H1712 H 0.79597 0.10212 0.69551 0.0
H1713 H 0.7857 0.11264 0.72325 0.0
H1714 H 0.75423 0.0844 0.63125 0.0
H1715 H 0.76441 0.07388 0.60362 0.0
C1716 C 0.74582 0.10545 0.74751 0.0
C1717 C 0.75055 0.11723 0.72931 0.0
C1718 C 0.75188 0.09967 0.73132 0.0
C1719 C 0.76285 0.10556 0.69716 0.0
C1720 C 0.76764 0.11737 0.67945 0.0
C1721 C 0.76152 0.12314 0.695 0.0
C1722 C 0.78686 0.09816 0.68132 0.0
C1723 C 0.781 0.08716 0.64755 0.0
C1724 C 0.78101 0.10421 0.69677 0.0
C1725 C 0.76917 0.09932 0.6795 0.0
C1726 C 0.76333 0.08832 0.64585 0.0
C1727 C 0.76918 0.08233 0.62976 0.0
H1728 H 0.68883 0.91276 0.49956 0.0
H1729 H 0.69709 0.90135 0.29456 0.0
H1730 H 0.66821 0.90203 0.46719 0.0
H1731 H 0.67643 0.89082 0.26154 0.0
H1732 H 0.64078 0.88925 0.20226 0.0
H1733 H 0.66137 0.8984 0.23464 0.0
H1734 H 0.65237 0.87961 0.44291 0.0
H1735 H 0.63175 0.87023 0.40999 0.0
C1736 C 0.68623 0.90795 0.44764 0.0
C1737 C 0.69453 0.90788 0.39944 0.0
C1738 C 0.67445 0.90178 0.42942 0.0
C1739 C 0.6708 0.89564 0.36197 0.0
C1740 C 0.67908 0.89553 0.31379 0.0
C1741 C 0.69085 0.9015 0.3328 0.0
C1742 C 0.64321 0.88704 0.25481 0.0
C1743 C 0.6347 0.87905 0.30372 0.0
C1744 C 0.65497 0.89221 0.27301 0.0
C1745 C 0.65839 0.88967 0.34111 0.0
C1746 C 0.6499 0.8817 0.39011 0.0
C1747 C 0.63815 0.87633 0.37118 0.0
H1748 H 0.12258 0.75939 0.41809 0.0
H1749 H 0.10522 0.75033 0.20461 0.0
H1750 H 0.11265 0.77013 0.44983 0.0
H1751 H 0.09547 0.76123 0.236 0.0
H1752 H 0.09077 0.79274 0.29689 0.0
H1753 H 0.10189 0.78318 0.26538 0.0
H1754 H 0.09043 0.76344 0.46975 0.0
H1755 H 0.07917 0.77281 0.50074 0.0
C1756 C 0.11673 0.75978 0.37781 0.0
C1757 C 0.11463 0.75401 0.30904 0.0
C1758 C 0.11103 0.76588 0.39607 0.0
C1759 C 0.10334 0.7665 0.34521 0.0
C1760 C 0.10143 0.76093 0.27587 0.0
C1761 C 0.10694 0.75465 0.25821 0.0
C1762 C 0.09069 0.7864 0.33517 0.0
C1763 C 0.08409 0.78347 0.40107 0.0
C1764 C 0.097 0.78092 0.31702 0.0
C1765 C 0.097 0.77261 0.36527 0.0
C1766 C 0.09062 0.76988 0.43193 0.0
C1767 C 0.08413 0.77518 0.44934 0.0
H1768 H 0.22743 0.34705 0.14656 0.0
H1769 H 0.24492 0.35827 0.35897 0.0
H1770 H 0.21649 0.32725 0.19268 0.0
H1771 H 0.23371 0.33844 0.40592 0.0
H1772 H 0.19117 0.29462 0.31674 0.0
H1773 H 0.2014 0.3149 0.27807 0.0
H1774 H 0.2324 0.3199 0.38887 0.0
H1775 H 0.22211 0.29975 0.42921 0.0
C1776 C 0.22886 0.34532 0.20341 0.0
C1777 C 0.23708 0.35424 0.24899 0.0
C1778 C 0.22252 0.33396 0.23004 0.0
C1779 C 0.2242 0.33124 0.30306 0.0
C1780 C 0.23232 0.3402 0.34904 0.0
C1781 C 0.2387 0.35158 0.32226 0.0
C1782 C 0.20015 0.30006 0.33316 0.0
C1783 C 0.20582 0.29555 0.37585 0.0
C1784 C 0.20604 0.31168 0.31066 0.0
C1785 C 0.21774 0.31904 0.33012 0.0
C1786 C 0.22335 0.31454 0.37373 0.0
C1787 C 0.21746 0.30295 0.39644 0.0
H1788 H 0.96422 0.43432 1.01362 0.0
H1789 H 0.96964 0.40741 0.92087 0.0
H1790 H 0.98476 0.44544 0.04744 0.0
H1791 H 0.99009 0.41853 0.95442 0.0
H1792 H 0.02192 0.43482 0.10653 0.0
H1793 H 0.00148 0.42438 0.07262 0.0
H1794 H 0.0045 0.45599 0.98504 0.0
H1795 H 0.02506 0.46654 0.01927 0.0
C1796 C 0.96978 0.43078 1.00038 0.0
C1797 C 0.96528 0.41996 0.96483 0.0
C1798 C 0.98155 0.43718 0.01936 0.0
C1799 C 0.98901 0.43282 1.00381 0.0
C1800 C 0.98451 0.42204 0.96792 0.0
C1801 C 0.9728 0.4157 0.94841 0.0
C1802 C 0.01826 0.43958 0.08012 0.0
C1803 C 0.02514 0.45152 0.06537 0.0
C1804 C 0.00655 0.43357 0.06037 0.0
C1805 C 0.00141 0.43936 0.02588 0.0
C1806 C 0.00822 0.45133 1.01199 0.0
C1807 C 0.02 0.45735 0.03122 0.0
H1808 H 0.57941 0.55444 1.00893 0.0
H1809 H 0.56127 0.54791 0.79886 0.0
H1810 H 0.56764 0.56218 0.05988 0.0
H1811 H 0.54976 0.55589 0.84897 0.0
H1812 H 0.55416 0.58772 0.09093 0.0
H1813 H 0.56522 0.57886 0.04688 0.0
H1814 H 0.53461 0.55201 0.9371 0.0
H1815 H 0.5236 0.56107 0.97948 0.0
C1816 C 0.57295 0.5547 0.97355 0.0
C1817 C 0.57128 0.55057 0.89983 0.0
C1818 C 0.56624 0.55917 1.00264 0.0
C1819 C 0.55774 0.55965 0.95855 0.0
C1820 C 0.55608 0.55548 0.88493 0.0
C1821 C 0.56275 0.55097 0.856 0.0
C1822 C 0.54976 0.57989 0.05766 0.0
C1823 C 0.538 0.57513 0.03834 0.0
C1824 C 0.5561 0.57477 0.03279 0.0
C1825 C 0.55083 0.56474 0.98825 0.0
C1826 C 0.539 0.55984 0.9703 0.0
C1827 C 0.53266 0.56499 0.99494 0.0
H1828 H 0.41578 0.97196 0.16196 0.0
H1829 H 0.4256 0.96434 0.9486 0.0
H1830 H 0.4267 0.9927 0.13318 0.0
H1831 H 0.43637 0.98511 0.91945 0.0
H1832 H 0.43879 0.0212 0.87147 0.0
H1833 H 0.42953 0.00051 0.90025 0.0
H1834 H 0.4487 0.00848 0.10663 0.0
H1835 H 0.45816 0.02924 0.07733 0.0
C1836 C 0.42027 0.97472 0.10896 0.0
C1837 C 0.41983 0.96656 0.05738 0.0
C1838 C 0.42657 0.98657 0.0928 0.0
C1839 C 0.43236 0.99045 0.02421 0.0
C1840 C 0.43194 0.9823 0.97265 0.0
C1841 C 0.42583 0.97045 0.98943 0.0
C1842 C 0.44106 0.01854 0.92284 0.0
C1843 C 0.44917 0.02681 0.9723 0.0
C1844 C 0.43583 0.00671 0.93898 0.0
C1845 C 0.43843 0.00295 1.00554 0.0
C1846 C 0.44654 0.0112 0.05502 0.0
C1847 C 0.45198 0.02304 0.03814 0.0
H1848 H 0.55212 0.97298 0.15353 0.0
H1849 H 0.53219 0.96212 0.94991 0.0
H1850 H 0.5617 0.99307 0.11161 0.0
H1851 H 0.54224 0.98207 0.90539 0.0
H1852 H 0.55557 0.01998 0.86389 0.0
H1853 H 0.54471 0.00049 0.91555 0.0
H1854 H 0.57567 0.00582 0.02942 0.0
H1855 H 0.58624 0.02553 0.98124 0.0
C1856 C 0.54985 0.97492 0.09953 0.0
C1857 C 0.54142 0.96603 0.05494 0.0
C1858 C 0.5554 0.98642 0.07509 0.0
C1859 C 0.55285 0.98928 1.00466 0.0
C1860 C 0.54431 0.98032 0.96049 0.0
C1861 C 0.53857 0.96884 0.98573 0.0
C1862 C 0.56001 0.01697 0.90033 0.0
C1863 C 0.57174 0.02424 0.91849 0.0
C1864 C 0.55381 0.00575 0.92963 0.0
C1865 C 0.55928 0.00146 0.97651 0.0
C1866 C 0.57105 0.00883 0.99481 0.0
C1867 C 0.57717 0.02013 0.96676 0.0
H1868 H 0.96264 0.53509 0.09467 0.0
H1869 H 0.96934 0.55314 0.8841 0.0
H1870 H 0.98347 0.54578 0.12254 0.0
H1871 H 0.99013 0.56361 0.91148 0.0
H1872 H 0.02707 0.56888 0.96186 0.0
H1873 H 0.00627 0.55752 0.93405 0.0
H1874 H -0.00146 0.56845 0.14259 0.0
H1875 H 0.0193 0.57998 0.16991 0.0
C1876 C 0.96857 0.54126 0.05422 0.0
C1877 C 0.9644 0.54332 0.98739 0.0
C1878 C 0.98044 0.54739 0.07028 0.0
C1879 C 0.98834 0.55547 0.01902 0.0
C1880 C 0.9842 0.55737 0.95161 0.0
C1881 C 0.97232 0.55143 0.93625 0.0
C1882 C 0.02092 0.56883 1.00174 0.0
C1883 C 0.02477 0.57533 0.06786 0.0
C1884 C 0.00906 0.56238 0.98572 0.0
C1885 C 0.00087 0.56212 0.03635 0.0
C1886 C 0.00471 0.56847 0.10298 0.0
C1887 C 0.01657 0.57511 0.11828 0.0
H1888 H 0.43056 0.39938 0.97587 0.0
H1889 H 0.45985 0.43398 1.00087 0.0
H1890 H 0.41741 0.40642 1.00576 0.0
H1891 H 0.44659 0.44128 0.02709 0.0
H1892 H 0.41941 0.44793 0.14217 0.0
H1893 H 0.43352 0.44187 0.11337 0.0
H1894 H 0.40942 0.41684 0.95545 0.0
H1895 H 0.39517 0.42245 0.9877 0.0
C1896 C 0.43418 0.40855 0.98705 0.0
C1897 C 0.44623 0.41615 0.98564 0.0
C1898 C 0.42662 0.41263 1.0036 0.0
C1899 C 0.43087 0.42448 0.01767 0.0
C1900 C 0.44298 0.43208 1.01718 0.0
C1901 C 0.45059 0.42793 1.00189 0.0
C1902 C 0.41718 0.44116 0.10117 0.0
C1903 C 0.40615 0.43555 0.06788 0.0
C1904 C 0.4253 0.43772 0.08428 0.0
C1905 C 0.4226 0.42873 0.03275 0.0
C1906 C 0.41171 0.42353 0.99716 0.0
C1907 C 0.40355 0.4268 1.01515 0.0
H1908 H 0.16627 0.3917 0.04456 0.0
H1909 H 0.17864 0.41458 0.23543 0.0
H1910 H 0.18474 0.39202 0.03805 0.0
H1911 H 0.19713 0.41497 0.22837 0.0
H1912 H 0.23192 0.41812 0.17089 0.0
H1913 H 0.21501 0.42058 0.15342 0.0
H1914 H 0.19338 0.38361 0.12109 0.0
H1915 H 0.21023 0.38121 0.13742 0.0
C1916 C 0.17295 0.39686 0.0848 0.0
C1917 C 0.17092 0.40299 0.14115 0.0
C1918 C 0.18354 0.39707 0.08092 0.0
C1919 C 0.19234 0.40343 0.13312 0.0
C1920 C 0.19056 0.41007 0.18689 0.0
C1921 C 0.17995 0.40984 0.19093 0.0
C1922 C 0.22358 0.41057 0.15872 0.0
C1923 C 0.22235 0.39946 0.15596 0.0
C1924 C 0.2139 0.41196 0.14928 0.0
C1925 C 0.20287 0.40229 0.13598 0.0
C1926 C 0.20178 0.39125 0.13041 0.0
C1927 C 0.2114 0.38986 0.14049 0.0
H1928 H 0.59179 0.77335 0.31759 0.0
H1929 H 0.58861 0.76793 0.0789 0.0
H1930 H 0.59245 0.79182 0.30123 0.0
H1931 H 0.58893 0.78636 0.06313 0.0
H1932 H 0.57985 0.81642 0.09102 0.0
H1933 H 0.57735 0.79689 0.10154 0.0
H1934 H 0.60807 0.81063 0.23871 0.0
H1935 H 0.61056 0.83 0.2284 0.0
C1936 C 0.5912 0.77607 0.26163 0.0
C1937 C 0.59037 0.76925 0.19942 0.0
C1938 C 0.59153 0.78662 0.25239 0.0
C1939 C 0.59089 0.79055 0.18088 0.0
C1940 C 0.58941 0.78349 0.11887 0.0
C1941 C 0.5892 0.77294 0.12801 0.0
C1942 C 0.58606 0.81523 0.12311 0.0
C1943 C 0.59542 0.8247 0.1587 0.0
C1944 C 0.58466 0.8041 0.12884 0.0
C1945 C 0.59247 0.80229 0.17139 0.0
C1946 C 0.60186 0.81179 0.20622 0.0
C1947 C 0.60335 0.82288 0.19967 0.0
H1948 H 0.22118 0.82339 0.03377 0.0
H1949 H 0.22687 0.81559 0.25826 0.0
H1950 H 0.20277 0.80489 0.02908 0.0
H1951 H 0.20842 0.79726 0.25391 0.0
H1952 H 0.16744 0.77796 0.24189 0.0
H1953 H 0.18698 0.79491 0.23954 0.0
H1954 H 0.19523 0.78129 0.04497 0.0
H1955 H 0.17563 0.76407 0.04843 0.0
C1956 C 0.21854 0.81765 0.08162 0.0
C1957 C 0.2254 0.82088 0.14637 0.0
C1958 C 0.20808 0.80709 0.07879 0.0
C1959 C 0.20424 0.79973 0.14121 0.0
C1960 C 0.21123 0.80282 0.20517 0.0
C1961 C 0.22178 0.81325 0.20748 0.0
C1962 C 0.17343 0.7786 0.19868 0.0
C1963 C 0.17008 0.76978 0.14522 0.0
C1964 C 0.1846 0.78822 0.19761 0.0
C1965 C 0.19255 0.78933 0.14222 0.0
C1966 C 0.1892 0.78058 0.08814 0.0
C1967 C 0.17807 0.77078 0.09022 0.0
H1968 H 0.39854 0.17344 0.72033 0.0
H1969 H 0.39947 0.17043 0.96005 0.0
H1970 H 0.39935 0.19202 0.73483 0.0
H1971 H 0.40061 0.18927 0.97413 0.0
H1972 H 0.41242 0.22914 0.9473 0.0
H1973 H 0.41367 0.21138 0.93873 0.0
H1974 H 0.38414 0.1964 0.79068 0.0
H1975 H 0.38289 0.21401 0.79906 0.0
C1976 C 0.39896 0.17675 0.77614 0.0
C1977 C 0.3987 0.17033 0.83911 0.0
C1978 C 0.39947 0.18741 0.78433 0.0
C1979 C 0.39988 0.19197 0.85559 0.0
C1980 C 0.40032 0.18593 0.91857 0.0
C1981 C 0.39969 0.17517 0.91043 0.0
C1982 C 0.4062 0.22202 0.91319 0.0
C1983 C 0.39753 0.22292 0.87403 0.0
C1984 C 0.40689 0.21187 0.90857 0.0
C1985 C 0.39906 0.2026 0.86359 0.0
C1986 C 0.39036 0.20349 0.8251 0.0
C1987 C 0.38957 0.21351 0.83052 0.0
H1988 H 0.7754 0.16696 0.97986 0.0
H1989 H 0.76004 0.18104 0.83053 0.0
H1990 H 0.7933 0.18544 0.98011 0.0
H1991 H 0.77752 0.19984 0.83709 0.0
H1992 H 0.81488 0.22641 0.77727 0.0
H1993 H 0.79602 0.20892 0.78797 0.0
H1994 H 0.80385 0.20468 1.01621 0.0
H1995 H 0.82305 0.22188 1.00306 0.0
C1996 C 0.77575 0.17401 0.94762 0.0
C1997 C 0.76626 0.17234 0.90394 0.0
C1998 C 0.78601 0.18474 0.94894 0.0
C1999 C 0.78699 0.1942 0.90789 0.0
C2000 C 0.77725 0.19272 0.86789 0.0
C2001 C 0.76708 0.18192 0.86529 0.0
C2002 C 0.81248 0.22176 0.82985 0.0
C2003 C 0.82038 0.22543 0.88926 0.0
C2004 C 0.80162 0.21176 0.83637 0.0
C2005 C 0.7983 0.20529 0.9031 0.0
C2006 C 0.80614 0.20924 0.96344 0.0
C2007 C 0.81711 0.21914 0.95626 0.0
H2008 H 0.80924 0.576 0.95306 0.0
H2009 H 0.82371 0.60644 0.81252 0.0
H2010 H 0.79009 0.57452 0.94491 0.0
H2011 H 0.80474 0.60494 0.80443 0.0
H2012 H 0.76762 0.59074 0.73124 0.0
H2013 H 0.78533 0.5898 0.74516 0.0
H2014 H 0.78074 0.58733 0.98414 0.0
H2015 H 0.76307 0.58859 0.97067 0.0
C2016 C 0.80832 0.58236 0.9207 0.0
C2017 C 0.81795 0.59136 0.88367 0.0
C2018 C 0.79742 0.58154 0.91632 0.0
C2019 C 0.79596 0.58957 0.87359 0.0
C2020 C 0.80561 0.59857 0.8371 0.0
C2021 C 0.81648 0.59949 0.84236 0.0
C2022 C 0.77036 0.59001 0.78687 0.0
C2023 C 0.76406 0.59 0.84998 0.0
C2024 C 0.78047 0.58942 0.79472 0.0
C2025 C 0.78446 0.58867 0.86575 0.0
C2026 C 0.77782 0.5879 0.92874 0.0
C2027 C 0.76771 0.5886 0.92095 0.0
H2028 H 0.8788 0.7151 0.57866 0.0
H2029 H 0.89437 0.74101 0.40598 0.0
H2030 H 0.86118 0.71627 0.57201 0.0
H2031 H 0.87643 0.74182 0.39595 0.0
H2032 H 0.84598 0.74781 0.44913 0.0
H2033 H 0.86418 0.74764 0.4541 0.0
H2034 H 0.84512 0.71072 0.49648 0.0
H2035 H 0.82718 0.71107 0.49857 0.0
C2036 C 0.87835 0.72096 0.53856 0.0
C2037 C 0.88785 0.72789 0.4924 0.0
C2038 C 0.86823 0.72158 0.53425 0.0
C2039 C 0.86725 0.729 0.48251 0.0
C2040 C 0.87687 0.73608 0.43686 0.0
C2041 C 0.88712 0.73559 0.44221 0.0
C2042 C 0.84567 0.73968 0.46045 0.0
C2043 C 0.83503 0.72947 0.47384 0.0
C2044 C 0.85613 0.73955 0.46218 0.0
C2045 C 0.85618 0.72919 0.47647 0.0
C2046 C 0.8455 0.71893 0.4871 0.0
C2047 C 0.83512 0.7191 0.48671 0.0
H2048 H 0.26091 0.15156 0.63756 0.0
H2049 H 0.25383 0.1518 0.40252 0.0
H2050 H 0.25974 0.13283 0.62296 0.0
H2051 H 0.25246 0.13285 0.38833 0.0
H2052 H 0.24166 0.09354 0.41986 0.0
H2053 H 0.24077 0.11147 0.43122 0.0
H2054 H 0.27278 0.12719 0.55618 0.0
H2055 H 0.27361 0.1094 0.54578 0.0
C2056 C 0.2591 0.14762 0.58272 0.0
C2057 C 0.25769 0.15328 0.5209 0.0
C2058 C 0.25839 0.13687 0.57447 0.0
C2059 C 0.25617 0.13147 0.50433 0.0
C2060 C 0.25416 0.13682 0.44308 0.0
C2061 C 0.25494 0.14765 0.45126 0.0
C2062 C 0.24848 0.10085 0.44969 0.0
C2063 C 0.25773 0.1001 0.48165 0.0
C2064 C 0.248 0.1111 0.45581 0.0
C2065 C 0.25666 0.12067 0.49503 0.0
C2066 C 0.26592 0.1199 0.52641 0.0
C2067 C 0.26646 0.10976 0.51969 0.0
H2068 H 0.89254 0.15058 0.58847 0.0
H2069 H 0.88627 0.15752 0.3632 0.0
H2070 H 0.87421 0.13208 0.58663 0.0
H2071 H 0.86802 0.13882 0.36091 0.0
H2072 H 0.84216 0.09728 0.39188 0.0
H2073 H 0.86147 0.11484 0.38521 0.0
H2074 H 0.85216 0.12984 0.56713 0.0
H2075 H 0.83285 0.11254 0.57243 0.0
C2076 C 0.88735 0.14801 0.53808 0.0
C2077 C 0.89077 0.15544 0.47598 0.0
C2078 C 0.87689 0.13749 0.53718 0.0
C2079 C 0.86979 0.13411 0.47364 0.0
C2080 C 0.87342 0.14127 0.41029 0.0
C2081 C 0.88379 0.15193 0.41173 0.0
C2082 C 0.84428 0.10438 0.43005 0.0
C2083 C 0.83607 0.10365 0.48241 0.0
C2084 C 0.85525 0.11437 0.42616 0.0
C2085 C 0.85822 0.12359 0.47591 0.0
C2086 C 0.85004 0.12279 0.52852 0.0
C2087 C 0.83902 0.11296 0.53125 0.0
H2088 H 0.07525 0.56481 0.31488 0.0
H2089 H 0.05108 0.55082 0.13164 0.0
H2090 H 0.07657 0.54701 0.31766 0.0
H2091 H 0.05264 0.53328 0.13311 0.0
H2092 H 0.07112 0.51167 0.10677 0.0
H2093 H 0.07156 0.53026 0.11149 0.0
H2094 H 0.0593 0.52337 0.33899 0.0
H2095 H 0.05862 0.50458 0.3339 0.0
C2096 C 0.07029 0.55795 0.27519 0.0
C2097 C 0.06303 0.5591 0.22324 0.0
C2098 C 0.07101 0.54781 0.27692 0.0
C2099 C 0.06473 0.53887 0.22543 0.0
C2100 C 0.0576 0.5401 0.17307 0.0
C2101 C 0.05667 0.55008 0.17246 0.0
C2102 C 0.06867 0.5142 0.15808 0.0
C2103 C 0.06482 0.50673 0.21997 0.0
C2104 C 0.06889 0.52478 0.16063 0.0
C2105 C 0.06548 0.52818 0.22559 0.0
C2106 C 0.06204 0.52093 0.28852 0.0
C2107 C 0.06159 0.5102 0.28547 0.0
H2108 H 0.44381 0.4965 0.21873 0.0
H2109 H 0.42178 0.51171 0.21829 0.0
H2110 H 0.46088 0.51574 0.2319 0.0
H2111 H 0.43893 0.53105 0.23194 0.0
H2112 H 0.47407 0.5619 0.13688 0.0
H2113 H 0.45583 0.5436 0.14684 0.0
H2114 H 0.47042 0.53247 0.32119 0.0
H2115 H 0.48861 0.55088 0.31271 0.0
C2116 C 0.44264 0.50398 0.22207 0.0
C2117 C 0.4315 0.50265 0.21706 0.0
C2118 C 0.45239 0.51497 0.23028 0.0
C2119 C 0.45123 0.52489 0.23297 0.0
C2120 C 0.44007 0.52355 0.22967 0.0
C2121 C 0.43027 0.51251 0.22234 0.0
C2122 C 0.47332 0.5557 0.17872 0.0
C2123 C 0.48288 0.55783 0.2234 0.0
C2124 C 0.46286 0.5452 0.18431 0.0
C2125 C 0.46174 0.53658 0.23433 0.0
C2126 C 0.4711 0.5389 0.28133 0.0
C2127 C 0.48153 0.54943 0.27618 0.0
H2128 H 0.48182 0.91815 0.11993 0.0
H2129 H 0.49079 0.93241 0.34194 0.0
H2130 H 0.46307 0.91702 0.13076 0.0
H2131 H 0.47172 0.9307 0.35528 0.0
H2132 H 0.44435 0.94122 0.31141 0.0
H2133 H 0.46177 0.93978 0.31441 0.0
H2134 H 0.44464 0.90844 0.18223 0.0
H2135 H 0.4276 0.91051 0.17309 0.0
C2136 C 0.47962 0.92077 0.17182 0.0
C2137 C 0.48772 0.92542 0.22993 0.0
C2138 C 0.46883 0.92007 0.17841 0.0
C2139 C 0.46581 0.9238 0.24392 0.0
C2140 C 0.4738 0.92798 0.30336 0.0
C2141 C 0.48469 0.9289 0.29609 0.0
C2142 C 0.4443 0.93407 0.28226 0.0
C2143 C 0.43458 0.92613 0.24066 0.0
C2144 C 0.45428 0.93311 0.28519 0.0
C2145 C 0.45474 0.92405 0.24786 0.0
C2146 C 0.44475 0.9157 0.21017 0.0
C2147 C 0.43485 0.91679 0.20604 0.0
H2148 H 0.54469 0.04902 0.80968 0.0
H2149 H 0.56519 0.08633 0.82596 0.0
H2150 H 0.52725 0.05032 0.79135 0.0
H2151 H 0.54765 0.08768 0.80685 0.0
H2152 H 0.51088 0.08051 0.89145 0.0
H2153 H 0.52981 0.08187 0.88483 0.0
H2154 H 0.51779 0.05738 0.70257 0.0
H2155 H 0.49887 0.05612 0.70826 0.0
C2156 C 0.54545 0.05751 0.80862 0.0
C2157 C 0.55625 0.06757 0.81978 0.0
C2158 C 0.53549 0.05827 0.79739 0.0
C2159 C 0.53609 0.06911 0.79759 0.0
C2160 C 0.54694 0.07921 0.80678 0.0
C2161 C 0.55697 0.07845 0.81724 0.0
C2162 C 0.51235 0.07564 0.84865 0.0
C2163 C 0.5033 0.06809 0.80101 0.0
C2164 C 0.52321 0.07642 0.8449 0.0
C2165 C 0.52524 0.06965 0.79365 0.0
C2166 C 0.5164 0.06256 0.74344 0.0
C2167 C 0.50556 0.06181 0.74692 0.0
H2168 H 0.91834 0.43192 0.92657 0.0
H2169 H 0.93138 0.43855 0.70058 0.0
H2170 H 0.91769 0.44997 0.92562 0.0
H2171 H 0.9305 0.45656 0.69931 0.0
H2172 H 0.91471 0.48198 0.72794 0.0
H2173 H 0.91341 0.46288 0.72093 0.0
H2174 H 0.93638 0.47193 0.91006 0.0
H2175 H 0.93791 0.491 0.91585 0.0
C2176 C 0.92084 0.43714 0.87625 0.0
C2177 C 0.92493 0.43389 0.81366 0.0
C2178 C 0.92051 0.44745 0.87587 0.0
C2179 C 0.92404 0.45458 0.81242 0.0
C2180 C 0.92768 0.45113 0.74866 0.0
C2181 C 0.92823 0.44091 0.74954 0.0
C2182 C 0.91946 0.47983 0.76772 0.0
C2183 C 0.92644 0.4879 0.82222 0.0
C2184 C 0.91875 0.46898 0.7636 0.0
C2185 C 0.92476 0.466 0.81518 0.0
C2186 C 0.93162 0.47404 0.87002 0.0
C2187 C 0.93254 0.48493 0.87307 0.0
H2188 H 0.5127 0.43271 0.90489 0.0
H2189 H 0.49859 0.44237 0.71932 0.0
H2190 H 0.53098 0.45086 0.89218 0.0
H2191 H 0.51689 0.46064 0.7074 0.0
H2192 H 0.54375 0.49736 0.79718 0.0
H2193 H 0.5266 0.47816 0.78663 0.0
H2194 H 0.54806 0.46248 0.8099 0.0
H2195 H 0.56527 0.48179 0.82167 0.0
C2196 C 0.51356 0.43859 0.86043 0.0
C2197 C 0.50413 0.43611 0.81352 0.0
C2198 C 0.52406 0.449 0.85316 0.0
C2199 C 0.52535 0.4572 0.79901 0.0
C2200 C 0.51608 0.45455 0.75033 0.0
C2201 C 0.50559 0.44411 0.75738 0.0
C2202 C 0.5448 0.48981 0.79942 0.0
C2203 C 0.55581 0.49104 0.81083 0.0
C2204 C 0.535 0.47882 0.79267 0.0
C2205 C 0.53598 0.46881 0.79761 0.0
C2206 C 0.54704 0.47005 0.80646 0.0
C2207 C 0.55689 0.48108 0.8126 0.0
H2208 H 0.74035 0.89441 0.44707 0.0
H2209 H 0.72652 0.88848 0.67098 0.0
H2210 H 0.74016 0.87593 0.45093 0.0
H2211 H 0.72659 0.87006 0.67532 0.0
H2212 H 0.74133 0.84359 0.65361 0.0
H2213 H 0.74328 0.86298 0.6578 0.0
H2214 H 0.72069 0.8542 0.4669 0.0
H2215 H 0.7185 0.83482 0.4639 0.0
C2216 C 0.7375 0.88926 0.49759 0.0
C2217 C 0.73344 0.89282 0.55872 0.0
C2218 C 0.73735 0.8787 0.49963 0.0
C2219 C 0.73335 0.87165 0.56338 0.0
C2220 C 0.72976 0.87542 0.62577 0.0
C2221 C 0.72968 0.88588 0.62317 0.0
C2222 C 0.73677 0.84585 0.61291 0.0
C2223 C 0.72972 0.83777 0.55867 0.0
C2224 C 0.73787 0.85687 0.6154 0.0
C2225 C 0.73217 0.86002 0.56244 0.0
C2226 C 0.72521 0.85196 0.50799 0.0
C2227 C 0.7239 0.84089 0.50658 0.0
H2228 H 0.0932 0.84502 0.47676 0.0
H2229 H 0.10473 0.83325 0.66543 0.0
H2230 H 0.11113 0.86368 0.48109 0.0
H2231 H 0.12272 0.85192 0.66932 0.0
H2232 H 0.15851 0.87756 0.56332 0.0
H2233 H 0.13945 0.86061 0.58344 0.0
H2234 H 0.12351 0.88172 0.55342 0.0
H2235 H 0.1427 0.89874 0.53195 0.0
C2236 C 0.09944 0.8465 0.52028 0.0
C2237 C 0.09761 0.83759 0.57013 0.0
C2238 C 0.10972 0.85721 0.52276 0.0
C2239 C 0.11838 0.85922 0.57505 0.0
C2240 C 0.11628 0.85054 0.62754 0.0
C2241 C 0.10599 0.83985 0.62519 0.0
C2242 C 0.15094 0.87859 0.56149 0.0
C2243 C 0.15206 0.88943 0.54549 0.0
C2244 C 0.14003 0.86891 0.5738 0.0
C2245 C 0.12997 0.86983 0.57004 0.0
C2246 C 0.13111 0.88075 0.55622 0.0
C2247 C 0.14208 0.89049 0.54447 0.0
H2248 H 0.15472 0.26786 0.63491 0.0
H2249 H 0.1434 0.24321 0.45336 0.0
H2250 H 0.13606 0.26715 0.63314 0.0
H2251 H 0.12459 0.2421 0.45404 0.0
H2252 H 0.10121 0.25758 0.40236 0.0
H2253 H 0.11813 0.25528 0.41506 0.0
H2254 H 0.11517 0.25545 0.65515 0.0
H2255 H 0.09839 0.25818 0.64225 0.0
C2256 C 0.14821 0.26219 0.59522 0.0
C2257 C 0.15062 0.2557 0.54371 0.0
C2258 C 0.13745 0.26167 0.59485 0.0
C2259 C 0.12886 0.25464 0.543 0.0
C2260 C 0.13108 0.24774 0.49395 0.0
C2261 C 0.14183 0.24827 0.4942 0.0
C2262 C 0.10416 0.25713 0.4579 0.0
C2263 C 0.09855 0.2582 0.5213 0.0
C2264 C 0.11378 0.25566 0.46522 0.0
C2265 C 0.11802 0.2552 0.53617 0.0
C2266 C 0.11219 0.2559 0.59972 0.0
C2267 C 0.10252 0.25735 0.59236 0.0
H2268 H 0.12958 0.40773 0.92106 0.0
H2269 H 0.10427 0.37189 0.87521 0.0
H2270 H 0.13262 0.41147 0.78804 0.0
H2271 H 0.1068 0.37583 0.74266 0.0
H2272 H 0.12192 0.38379 0.5068 0.0
H2273 H 0.11932 0.37969 0.64041 0.0
H2274 H 0.12383 0.41374 0.6803 0.0
H2275 H 0.12674 0.41787 0.54725 0.0
C2276 C 0.12463 0.40062 0.88311 0.0
C2277 C 0.11661 0.3895 0.91006 0.0
C2278 C 0.12628 0.40282 0.80628 0.0
C2279 C 0.1199 0.39399 0.75393 0.0
C2280 C 0.11198 0.38285 0.78083 0.0
C2281 C 0.1104 0.38063 0.85754 0.0
C2282 C 0.12225 0.39034 0.5442 0.0
C2283 C 0.12458 0.40116 0.51639 0.0
C2284 C 0.12075 0.38801 0.62095 0.0
C2285 C 0.12142 0.3964 0.67184 0.0
C2286 C 0.12353 0.40715 0.64347 0.0
C2287 C 0.12514 0.40951 0.56695 0.0
H2288 H 0.60371 0.72051 0.53202 0.0
H2289 H 0.57513 0.72642 0.57614 0.0
H2290 H 0.60759 0.72143 0.66527 0.0
H2291 H 0.57892 0.72711 0.70912 0.0
H2292 H 0.58247 0.7159 0.94736 0.0
H2293 H 0.57818 0.7145 0.81419 0.0
H2294 H 0.61469 0.73613 0.76606 0.0
H2295 H 0.619 0.73775 0.8984 0.0
C2296 C 0.59827 0.72206 0.56961 0.0
C2297 C 0.58909 0.7234 0.54234 0.0
C2298 C 0.60049 0.72256 0.6463 0.0
C2299 C 0.59356 0.72433 0.69793 0.0
C2300 C 0.58433 0.72556 0.67098 0.0
C2301 C 0.58215 0.72515 0.59433 0.0
C2302 C 0.58959 0.72045 0.9087 0.0
C2303 C 0.60111 0.72688 0.93446 0.0
C2304 C 0.58712 0.71962 0.83216 0.0
C2305 C 0.5961 0.72515 0.7794 0.0
C2306 C 0.60758 0.73159 0.80504 0.0
C2307 C 0.61005 0.73249 0.88134 0.0
H2308 H 0.27608 0.89352 0.87978 0.0
H2309 H 0.25801 0.85658 0.91882 0.0
H2310 H 0.2765 0.89022 0.74651 0.0
H2311 H 0.25817 0.8532 0.78513 0.0
H2312 H 0.2711 0.85141 0.55344 0.0
H2313 H 0.27046 0.85477 0.68555 0.0
H2314 H 0.26509 0.8835 0.63676 0.0
H2315 H 0.26641 0.88059 0.50399 0.0
C2316 C 0.27207 0.88467 0.85979 0.0
C2317 C 0.26701 0.87532 0.91013 0.0
C2318 C 0.27228 0.88277 0.78311 0.0
C2319 C 0.26735 0.87143 0.75442 0.0
C2320 C 0.26224 0.86206 0.80493 0.0
C2321 C 0.26212 0.86399 0.88175 0.0
C2322 C 0.26994 0.85857 0.57027 0.0
C2323 C 0.26896 0.8658 0.51687 0.0
C2324 C 0.26939 0.86038 0.64668 0.0
C2325 C 0.26772 0.86941 0.6725 0.0
C2326 C 0.26656 0.87656 0.6193 0.0
C2327 C 0.26719 0.87479 0.54265 0.0
H2328 H 0.38031 0.10539 0.50992 0.0
H2329 H 0.40603 0.14112 0.46629 0.0
H2330 H 0.37632 0.10221 0.37639 0.0
H2331 H 0.40206 0.13797 0.33348 0.0
H2332 H 0.40116 0.12496 0.09613 0.0
H2333 H 0.4048 0.12798 0.22965 0.0
H2334 H 0.36799 0.10734 0.27274 0.0
H2335 H 0.36435 0.10433 0.13917 0.0
C2336 C 0.38504 0.11259 0.47208 0.0
C2337 C 0.39356 0.12349 0.49911 0.0
C2338 C 0.38276 0.11077 0.39543 0.0
C2339 C 0.38893 0.11981 0.34395 0.0
C2340 C 0.39732 0.13074 0.3712 0.0
C2341 C 0.3996 0.13255 0.44761 0.0
C2342 C 0.39382 0.12116 0.13386 0.0
C2343 C 0.38245 0.1144 0.10653 0.0
C2344 C 0.39591 0.12288 0.21063 0.0
C2345 C 0.38669 0.1179 0.26217 0.0
C2346 C 0.37532 0.11115 0.23485 0.0
C2347 C 0.37323 0.10943 0.1581 0.0
H2348 H 0.85172 0.2702 0.47806 0.0
H2349 H 0.88085 0.26539 0.52675 0.0
H2350 H 0.85493 0.26943 0.34593 0.0
H2351 H 0.88362 0.26392 0.3939 0.0
H2352 H 0.89347 0.27483 0.1505 0.0
H2353 H 0.89028 0.27533 0.28386 0.0
H2354 H 0.85321 0.25698 0.24696 0.0
H2355 H 0.85648 0.25675 0.1131 0.0
C2356 C 0.85884 0.26899 0.46105 0.0
C2357 C 0.8661 0.26803 0.51419 0.0
C2358 C 0.86056 0.26836 0.38464 0.0
C2359 C 0.86954 0.26661 0.35864 0.0
C2360 C 0.87672 0.26546 0.41158 0.0
C2361 C 0.87504 0.26617 0.48823 0.0
C2362 C 0.88463 0.27084 0.17091 0.0
C2363 C 0.87522 0.26575 0.12107 0.0
C2364 C 0.88279 0.27109 0.24761 0.0
C2365 C 0.87148 0.26617 0.27675 0.0
C2366 C 0.86206 0.26104 0.22674 0.0
C2367 C 0.86391 0.26088 0.14987 0.0
H2368 H 0.71778 0.6087 0.51969 0.0
H2369 H 0.72886 0.58379 0.47711 0.0
H2370 H 0.71857 0.61264 0.38608 0.0
H2371 H 0.7297 0.58773 0.34419 0.0
H2372 H 0.71733 0.58803 0.10677 0.0
H2373 H 0.71694 0.58453 0.24039 0.0
H2374 H 0.73189 0.62123 0.28222 0.0
H2375 H 0.73223 0.62471 0.14855 0.0
C2376 C 0.72049 0.60414 0.48203 0.0
C2377 C 0.72315 0.59585 0.5093 0.0
C2378 C 0.72095 0.6064 0.40535 0.0
C2379 C 0.72412 0.60044 0.35413 0.0
C2380 C 0.72698 0.5923 0.38169 0.0
C2381 C 0.7265 0.59004 0.45813 0.0
C2382 C 0.72065 0.59537 0.14429 0.0
C2383 C 0.72481 0.60666 0.11665 0.0
C2384 C 0.72042 0.59337 0.22109 0.0
C2385 C 0.72438 0.6026 0.2723 0.0
C2386 C 0.72859 0.61389 0.24461 0.0
C2387 C 0.7288 0.61589 0.16783 0.0
H2388 H 0.84784 0.5748 0.49038 0.0
H2389 H 0.87773 0.60825 0.54008 0.0
H2390 H 0.85131 0.57874 0.35861 0.0
H2391 H 0.88078 0.61241 0.40745 0.0
H2392 H 0.8904 0.61119 0.16359 0.0
H2393 H 0.88713 0.60744 0.29685 0.0
H2394 H 0.85007 0.58976 0.2599 0.0
H2395 H 0.85341 0.59333 0.1262 0.0
C2396 C 0.85518 0.583 0.4739 0.0
C2397 C 0.86256 0.59111 0.52743 0.0
C2398 C 0.85707 0.58534 0.3975 0.0
C2399 C 0.86632 0.59591 0.3717 0.0
C2400 C 0.87365 0.60409 0.4249 0.0
C2401 C 0.87182 0.60172 0.50156 0.0
C2402 C 0.88155 0.60656 0.18394 0.0
C2403 C 0.87217 0.60256 0.13404 0.0
C2404 C 0.87966 0.60444 0.26062 0.0
C2405 C 0.86833 0.59831 0.28977 0.0
C2406 C 0.85893 0.59434 0.23972 0.0
C2407 C 0.86083 0.59639 0.16289 0.0
H2408 H 0.3859 0.27276 0.53159 0.0
H2409 H 0.41165 0.26283 0.48734 0.0
H2410 H 0.38207 0.2722 0.39796 0.0
H2411 H 0.4078 0.26219 0.35449 0.0
H2412 H 0.40691 0.27417 0.11678 0.0
H2413 H 0.41054 0.27462 0.2504 0.0
H2414 H 0.37379 0.25913 0.29371 0.0
H2415 H 0.3702 0.25876 0.16033 0.0
C2416 C 0.39068 0.27037 0.49357 0.0
C2417 C 0.39916 0.26795 0.52047 0.0
C2418 C 0.38848 0.27003 0.41682 0.0
C2419 C 0.39467 0.26721 0.36509 0.0
C2420 C 0.40303 0.26464 0.39227 0.0
C2421 C 0.40524 0.26501 0.46873 0.0
C2422 C 0.3996 0.27076 0.15471 0.0
C2423 C 0.38827 0.26646 0.12755 0.0
C2424 C 0.40167 0.27102 0.2315 0.0
C2425 C 0.39246 0.26695 0.28319 0.0
C2426 C 0.38112 0.26255 0.25587 0.0
C2427 C 0.37906 0.26232 0.17918 0.0
H2428 H 0.71651 0.12905 0.11627 0.0
H2429 H 0.73165 0.10754 0.15966 0.0
H2430 H 0.71625 0.13241 0.24976 0.0
H2431 H 0.7314 0.11091 0.29292 0.0
H2432 H 0.71842 0.11019 0.53237 0.0
H2433 H 0.71857 0.10653 0.39891 0.0
H2434 H 0.72906 0.14229 0.35253 0.0
H2435 H 0.72891 0.14592 0.48519 0.0
C2436 C 0.71988 0.12511 0.15401 0.0
C2437 C 0.72408 0.11799 0.12662 0.0
C2438 C 0.71973 0.12704 0.23084 0.0
C2439 C 0.72379 0.12193 0.28255 0.0
C2440 C 0.72801 0.11483 0.25512 0.0
C2441 C 0.72816 0.1129 0.17836 0.0
C2442 C 0.72084 0.11729 0.49384 0.0
C2443 C 0.72356 0.12833 0.52007 0.0
C2444 C 0.72092 0.1152 0.41709 0.0
C2445 C 0.72375 0.1241 0.36451 0.0
C2446 C 0.72659 0.13515 0.39094 0.0
C2447 C 0.72651 0.13724 0.46741 0.0
H2448 H 0.59051 0.86633 0.91224 0.0
H2449 H 0.62651 0.89117 0.86603 0.0
H2450 H 0.58674 0.8634 0.7792 0.0
H2451 H 0.62255 0.88878 0.73355 0.0
H2452 H 0.6144 0.87385 0.49764 0.0
H2453 H 0.61849 0.87629 0.63121 0.0
H2454 H 0.58467 0.87238 0.67169 0.0
H2455 H 0.58054 0.8696 0.53862 0.0
C2456 C 0.59765 0.8712 0.8742 0.0
C2457 C 0.60883 0.87906 0.90102 0.0
C2458 C 0.59543 0.86962 0.79739 0.0
C2459 C 0.60431 0.87591 0.74497 0.0
C2460 C 0.6155 0.88367 0.77177 0.0
C2461 C 0.61774 0.88517 0.84843 0.0
C2462 C 0.6079 0.87362 0.53517 0.0
C2463 C 0.59713 0.87149 0.50754 0.0
C2464 C 0.61023 0.87502 0.61189 0.0
C2465 C 0.60189 0.87448 0.66292 0.0
C2466 C 0.59121 0.87258 0.63474 0.0
C2467 C 0.58885 0.87105 0.55822 0.0
H2468 H 0.11405 0.73404 0.49768 0.0
H2469 H 0.13304 0.71626 0.54356 0.0
H2470 H 0.11073 0.73467 0.63128 0.0
H2471 H 0.12984 0.71702 0.67652 0.0
H2472 H 0.1331 0.73234 0.91141 0.0
H2473 H 0.13593 0.7313 0.77781 0.0
H2474 H 0.10034 0.72204 0.73789 0.0
H2475 H 0.09743 0.72292 0.87102 0.0
C2476 C 0.11741 0.73014 0.53593 0.0
C2477 C 0.12388 0.72515 0.50933 0.0
C2478 C 0.11553 0.73053 0.6127 0.0
C2479 C 0.1201 0.72598 0.6649 0.0
C2480 C 0.12639 0.72082 0.63818 0.0
C2481 C 0.12822 0.72038 0.56162 0.0
C2482 C 0.12583 0.72997 0.8745 0.0
C2483 C 0.11503 0.72776 0.90286 0.0
C2484 C 0.12746 0.72938 0.79762 0.0
C2485 C 0.11837 0.72661 0.74685 0.0
C2486 C 0.10759 0.72439 0.77509 0.0
C2487 C 0.10593 0.72491 0.85187 0.0
H2488 H 0.26309 0.36914 0.88933 0.0
H2489 H 0.26425 0.40167 0.93261 0.0
H2490 H 0.26314 0.37244 0.75625 0.0
H2491 H 0.26354 0.40456 0.79986 0.0
H2492 H 0.2751 0.41317 0.55968 0.0
H2493 H 0.27523 0.40952 0.69241 0.0
H2494 H 0.25201 0.3729 0.65453 0.0
H2495 H 0.25221 0.37662 0.52079 0.0
C2496 C 0.26333 0.37699 0.87098 0.0
C2497 C 0.26376 0.38516 0.92285 0.0
C2498 C 0.2632 0.37881 0.79415 0.0
C2499 C 0.26339 0.3888 0.76678 0.0
C2500 C 0.2636 0.39686 0.81854 0.0
C2501 C 0.26385 0.3951 0.89529 0.0
C2502 C 0.26999 0.40435 0.57975 0.0
C2503 C 0.26358 0.3952 0.5298 0.0
C2504 C 0.27002 0.40224 0.65606 0.0
C2505 C 0.26353 0.39092 0.68481 0.0
C2506 C 0.25722 0.38172 0.63457 0.0
C2507 C 0.2573 0.38383 0.55788 0.0
H2508 H 0.80662 0.74852 0.87436 0.0
H2509 H 0.77638 0.71533 0.82517 0.0
H2510 H 0.80316 0.74463 1.00652 0.0
H2511 H 0.77334 0.71116 0.95797 0.0
H2512 H 0.7637 0.71278 0.20116 0.0
H2513 H 0.76709 0.7164 0.06786 0.0
H2514 H 0.8041 0.73352 0.10581 0.0
H2515 H 0.80064 0.73008 0.23953 0.0
C2516 C 0.79921 0.74038 0.89128 0.0
C2517 C 0.79172 0.73234 0.83797 0.0
C2518 C 0.79733 0.73807 0.96769 0.0
C2519 C 0.78796 0.72757 0.99356 0.0
C2520 C 0.78055 0.71943 0.94045 0.0
C2521 C 0.78239 0.72178 0.8638 0.0
C2522 C 0.77256 0.71725 0.18101 0.0
C2523 C 0.78189 0.72114 0.23115 0.0
C2524 C 0.77452 0.71931 0.10433 0.0
C2525 C 0.78588 0.72524 0.07546 0.0
C2526 C 0.79523 0.72909 0.12578 0.0
C2527 C 0.79326 0.72712 0.2026 0.0
H2528 H 0.27147 0.0519 0.8174 0.0
H2529 H 0.24257 0.05716 0.86329 0.0
H2530 H 0.27554 0.0529 0.95077 0.0
H2531 H 0.24666 0.05823 0.99599 0.0
H2532 H 0.24972 0.0477 0.23384 0.0
H2533 H 0.24574 0.04662 0.10046 0.0
H2534 H 0.28257 0.06599 0.05513 0.0
H2535 H 0.28652 0.06698 0.18833 0.0
C2536 C 0.26603 0.05335 0.85567 0.0
C2537 C 0.25662 0.05436 0.82916 0.0
C2538 C 0.26837 0.05394 0.93238 0.0
C2539 C 0.2614 0.05559 0.98463 0.0
C2540 C 0.25207 0.0567 0.95789 0.0
C2541 C 0.24972 0.05609 0.88143 0.0
C2542 C 0.25697 0.05182 0.19555 0.0
C2543 C 0.26844 0.05741 0.22221 0.0
C2544 C 0.25469 0.0512 0.11882 0.0
C2545 C 0.26383 0.0562 0.06655 0.0
C2546 C 0.2753 0.06185 0.09334 0.0
C2547 C 0.27757 0.06244 0.17 0.0
H2548 H 0.93213 0.18457 0.87349 0.0
H2549 H 0.93557 0.21801 0.82881 0.0
H2550 H 0.93091 0.1874 1.00644 0.0
H2551 H 0.93446 0.22093 0.96244 0.0
H2552 H 0.92073 0.21729 0.20116 0.0
H2553 H 0.92154 0.21433 0.06773 0.0
H2554 H 0.94248 0.19848 0.10977 0.0
H2555 H 0.94153 0.20135 0.24342 0.0
C2556 C 0.93275 0.1926 0.89206 0.0
C2557 C 0.93404 0.2011 0.84021 0.0
C2558 C 0.93206 0.19423 0.96855 0.0
C2559 C 0.93266 0.20443 0.99562 0.0
C2560 C 0.93382 0.2129 0.94372 0.0
C2561 C 0.93447 0.21124 0.86696 0.0
C2562 C 0.92557 0.21324 0.18198 0.0
C2563 C 0.93109 0.20958 0.23324 0.0
C2564 C 0.92605 0.21155 0.10526 0.0
C2565 C 0.9321 0.20619 0.07757 0.0
C2566 C 0.93758 0.20248 0.12893 0.0
C2567 C 0.93705 0.20413 0.20574 0.0
H2568 H 0.07979 0.47646 0.81747 0.0
H2569 H 0.04614 0.44682 0.86653 0.0
H2570 H 0.07584 0.47321 0.68526 0.0
H2571 H 0.04192 0.444 0.7337 0.0
H2572 H 0.04335 0.43424 0.49074 0.0
H2573 H 0.04698 0.43753 0.624 0.0
H2574 H 0.06492 0.47457 0.5861 0.0
H2575 H 0.06149 0.47119 0.4523 0.0
C2576 C 0.07153 0.46923 0.80045 0.0
C2577 C 0.06337 0.46183 0.85365 0.0
C2578 C 0.06919 0.46748 0.72407 0.0
C2579 C 0.05855 0.45833 0.69822 0.0
C2580 C 0.05029 0.45103 0.75126 0.0
C2581 C 0.05266 0.45274 0.82788 0.0
C2582 C 0.04801 0.44308 0.51089 0.0
C2583 C 0.05213 0.45245 0.46078 0.0
C2584 C 0.05006 0.44499 0.58753 0.0
C2585 C 0.05622 0.45633 0.61637 0.0
C2586 C 0.06031 0.46571 0.5661 0.0
C2587 C 0.05834 0.46379 0.48927 0.0
H2588 H 0.54417 0.60589 0.8469 0.0
H2589 H 0.50867 0.59637 0.80004 0.0
H2590 H 0.54779 0.60569 0.71344 0.0
H2591 H 0.51225 0.59612 0.6673 0.0
H2592 H 0.52564 0.60849 0.43095 0.0
H2593 H 0.52227 0.60875 0.56447 0.0
H2594 H 0.54327 0.59301 0.60726 0.0
H2595 H 0.54668 0.59281 0.47396 0.0
C2596 C 0.53711 0.60366 0.80841 0.0
C2597 C 0.52615 0.60124 0.83469 0.0
C2598 C 0.53918 0.60354 0.73165 0.0
C2599 C 0.53034 0.60096 0.67912 0.0
C2600 C 0.51936 0.5984 0.70564 0.0
C2601 C 0.5173 0.59854 0.78213 0.0
C2602 C 0.52947 0.605 0.46866 0.0
C2603 C 0.53646 0.60066 0.44119 0.0
C2604 C 0.52753 0.60514 0.54549 0.0
C2605 C 0.5325 0.60091 0.59712 0.0
C2606 C 0.53946 0.59654 0.56957 0.0
C2607 C 0.54141 0.59641 0.49281 0.0
H2608 H 0.38718 0.95158 0.49179 0.0
H2609 H 0.39827 0.92663 0.44999 0.0
H2610 H 0.38665 0.9479 0.62497 0.0
H2611 H 0.3976 0.92288 0.5835 0.0
H2612 H 0.3834 0.91032 0.81855 0.0
H2613 H 0.38374 0.91415 0.68572 0.0
H2614 H 0.39942 0.95081 0.73107 0.0
H2615 H 0.39918 0.94698 0.86459 0.0
C2616 C 0.3896 0.94537 0.51066 0.0
C2617 C 0.39281 0.93944 0.45927 0.0
C2618 C 0.38929 0.94326 0.58745 0.0
C2619 C 0.39209 0.9351 0.61532 0.0
C2620 C 0.39523 0.92911 0.56409 0.0
C2621 C 0.3956 0.93126 0.48723 0.0
C2622 C 0.387 0.91922 0.80053 0.0
C2623 C 0.39133 0.92834 0.85285 0.0
C2624 C 0.3872 0.92142 0.72402 0.0
C2625 C 0.39169 0.9328 0.69731 0.0
C2626 C 0.39581 0.94192 0.74958 0.0
C2627 C 0.39565 0.93972 0.82632 0.0
H2628 H 0.51729 0.9143 0.81941 0.0
H2629 H 0.55054 0.94461 0.86446 0.0
H2630 H 0.52013 0.91839 0.68654 0.0
H2631 H 0.55346 0.94868 0.73092 0.0
H2632 H 0.54964 0.95873 0.49255 0.0
H2633 H 0.54673 0.95488 0.62592 0.0
H2634 H 0.53132 0.91815 0.58285 0.0
H2635 H 0.53415 0.92204 0.44928 0.0
C2636 C 0.52528 0.92178 0.80098 0.0
C2637 C 0.53372 0.92906 0.85296 0.0
C2638 C 0.52692 0.92413 0.7245 0.0
C2639 C 0.53706 0.93383 0.69753 0.0
C2640 C 0.54547 0.9412 0.74954 0.0
C2641 C 0.54381 0.93886 0.82628 0.0
C2642 C 0.5457 0.94984 0.51146 0.0
C2643 C 0.54215 0.9407 0.4599 0.0
C2644 C 0.54405 0.94762 0.58817 0.0
C2645 C 0.53882 0.9362 0.61559 0.0
C2646 C 0.53522 0.92705 0.56394 0.0
C2647 C 0.53684 0.92927 0.48715 0.0
H2648 H 0.03339 0.59279 0.50209 0.0
H2649 H 0.0702 0.60999 0.45689 0.0
H2650 H 0.03724 0.59361 0.63532 0.0
H2651 H 0.07406 0.61084 0.59035 0.0
H2652 H 0.07601 0.59928 0.82712 0.0
H2653 H 0.07205 0.59858 0.69451 0.0
H2654 H 0.04514 0.60688 0.73954 0.0
H2655 H 0.04911 0.60757 0.87301 0.0
C2656 C 0.04232 0.59684 0.52044 0.0
C2657 C 0.05148 0.60134 0.46827 0.0
C2658 C 0.04453 0.59733 0.59712 0.0
C2659 C 0.05596 0.60231 0.62399 0.0
C2660 C 0.06512 0.60678 0.57183 0.0
C2661 C 0.06292 0.60629 0.49507 0.0
C2662 C 0.06933 0.6011 0.80905 0.0
C2663 C 0.06296 0.60358 0.86131 0.0
C2664 C 0.06705 0.60069 0.73261 0.0
C2665 C 0.05832 0.60274 0.70586 0.0
C2666 C 0.05185 0.60513 0.75803 0.0
C2667 C 0.05413 0.60554 0.83476 0.0
H2668 H 0.38539 0.46247 0.44845 0.0
H2669 H 0.39138 0.43415 0.4985 0.0
H2670 H 0.38351 0.46507 0.58127 0.0
H2671 H 0.39016 0.43717 0.63087 0.0
H2672 H 0.37815 0.43901 0.8653 0.0
H2673 H 0.37789 0.43538 0.73162 0.0
H2674 H 0.39518 0.47228 0.68974 0.0
H2675 H 0.39521 0.47583 0.82283 0.0
C2676 C 0.38625 0.45675 0.48746 0.0
C2677 C 0.38864 0.44815 0.4621 0.0
C2678 C 0.38533 0.45834 0.56401 0.0
C2679 C 0.38678 0.45141 0.61741 0.0
C2680 C 0.38887 0.44263 0.59185 0.0
C2681 C 0.38974 0.441 0.51548 0.0
C2682 C 0.38193 0.44634 0.82752 0.0
C2683 C 0.38668 0.45771 0.85502 0.0
C2684 C 0.38179 0.44427 0.75069 0.0
C2685 C 0.3865 0.45353 0.69928 0.0
C2686 C 0.39125 0.4649 0.72705 0.0
C2687 C 0.3913 0.46695 0.8037 0.0
H2688 H 0.28882 0.2167 0.22455 0.0
H2689 H 0.25203 0.19746 0.27158 0.0
H2690 H 0.28481 0.21358 0.09174 0.0
H2691 H 0.24803 0.19425 0.13823 0.0
H2692 H 0.24657 0.18067 0.89955 0.0
H2693 H 0.25031 0.18381 0.03268 0.0
H2694 H 0.27651 0.21941 0.99044 0.0
H2695 H 0.2727 0.21633 0.85704 0.0
C2696 C 0.27986 0.21188 0.20677 0.0
C2697 C 0.27076 0.2074 0.25934 0.0
C2698 C 0.27756 0.21009 0.13033 0.0
C2699 C 0.2661 0.20371 0.1041 0.0
C2700 C 0.25698 0.1991 0.15651 0.0
C2701 C 0.25928 0.20093 0.23314 0.0
C2702 C 0.25304 0.18922 0.91832 0.0
C2703 C 0.2593 0.19824 0.86687 0.0
C2704 C 0.25519 0.19101 0.99497 0.0
C2705 C 0.2637 0.20186 0.02244 0.0
C2706 C 0.26999 0.21089 0.97118 0.0
C2707 C 0.26781 0.20911 0.89446 0.0
H2708 H 0.80988 0.06536 0.89141 0.0
H2709 H 0.77427 0.05546 0.84487 0.0
H2710 H 0.80632 0.06562 0.02414 0.0
H2711 H 0.77067 0.05569 0.97837 0.0
H2712 H 0.77187 0.06879 0.21749 0.0
H2713 H 0.77522 0.06851 0.08418 0.0
H2714 H 0.79636 0.05294 0.12716 0.0
H2715 H 0.79303 0.05326 0.26071 0.0
C2716 C 0.80124 0.06311 0.90938 0.0
C2717 C 0.79235 0.0603 0.8569 0.0
C2718 C 0.79919 0.06325 0.98586 0.0
C2719 C 0.78818 0.0606 1.01247 0.0
C2720 C 0.7793 0.05791 0.96005 0.0
C2721 C 0.78136 0.05777 0.88329 0.0
C2722 C 0.77716 0.06521 0.1987 0.0
C2723 C 0.78216 0.06103 0.25039 0.0
C2724 C 0.77907 0.06504 0.12193 0.0
C2725 C 0.78605 0.06069 0.09445 0.0
C2726 C 0.79107 0.05652 0.14612 0.0
C2727 C 0.78917 0.0567 0.22296 0.0
H2728 H 0.93633 0.71405 0.8465 0.0
H2729 H 0.92832 0.74113 0.89235 0.0
H2730 H 0.93564 0.71009 0.98001 0.0
H2731 H 0.92761 0.73717 0.025 0.0
H2732 H 0.93892 0.7352 0.26256 0.0
H2733 H 0.93981 0.73908 0.12908 0.0
H2734 H 0.92238 0.70227 0.08439 0.0
H2735 H 0.92153 0.69841 0.21765 0.0
C2736 C 0.93436 0.71912 0.88476 0.0
C2737 C 0.93248 0.72799 0.85818 0.0
C2738 C 0.93395 0.71684 0.9615 0.0
C2739 C 0.93163 0.72335 1.01367 0.0
C2740 C 0.92966 0.73214 0.98689 0.0
C2741 C 0.93008 0.73442 0.91044 0.0
C2742 C 0.93518 0.72793 0.22443 0.0
C2743 C 0.93017 0.71649 0.25131 0.0
C2744 C 0.9357 0.73014 0.14765 0.0
C2745 C 0.93119 0.72099 0.09557 0.0
C2746 C 0.92614 0.70956 0.12252 0.0
C2747 C 0.92563 0.70734 0.19922 0.0
H2748 H 0.43579 0.03525 0.54007 0.0
H2749 H 0.46149 0.07098 0.58551 0.0
H2750 H 0.43843 0.03912 0.40747 0.0
H2751 H 0.46462 0.07464 0.45251 0.0
H2752 H 0.45906 0.08113 0.21147 0.0
H2753 H 0.456 0.07704 0.34446 0.0
H2754 H 0.45095 0.04276 0.30536 0.0
H2755 H 0.45371 0.04683 0.1717 0.0
C2756 C 0.44203 0.04395 0.52233 0.0
C2757 C 0.44832 0.05281 0.57477 0.0
C2758 C 0.44366 0.04613 0.44558 0.0
C2759 C 0.45173 0.05721 0.41855 0.0
C2760 C 0.45817 0.06603 0.47083 0.0
C2761 C 0.45647 0.06388 0.54768 0.0
C2762 C 0.45732 0.07273 0.23132 0.0
C2763 C 0.45666 0.06432 0.18096 0.0
C2764 C 0.45562 0.07038 0.30783 0.0
C2765 C 0.45332 0.05959 0.33641 0.0
C2766 C 0.45254 0.05112 0.28572 0.0
C2767 C 0.45413 0.05344 0.20895 0.0
H2768 H 0.95721 0.40083 0.53241 0.0
H2769 H 0.9207 0.38694 0.57783 0.0
H2770 H 0.95336 0.39946 0.39956 0.0
H2771 H 0.91696 0.38622 0.4447 0.0
H2772 H 0.91189 0.37406 0.20366 0.0
H2773 H 0.91602 0.37556 0.3366 0.0
H2774 H 0.94828 0.40748 0.29837 0.0
H2775 H 0.94419 0.40577 0.16465 0.0
C2776 C 0.94835 0.3975 0.51444 0.0
C2777 C 0.93926 0.39388 0.56674 0.0
C2778 C 0.94616 0.39686 0.43775 0.0
C2779 C 0.93483 0.39268 0.41084 0.0
C2780 C 0.92577 0.38929 0.46306 0.0
C2781 C 0.92795 0.38986 0.53984 0.0
C2782 C 0.91985 0.38142 0.22363 0.0
C2783 C 0.92769 0.38983 0.17352 0.0
C2784 C 0.9222 0.38232 0.3001 0.0
C2785 C 0.93245 0.3917 0.32884 0.0
C2786 C 0.94037 0.40005 0.27847 0.0
C2787 C 0.93804 0.39909 0.20172 0.0
H2788 H 0.61021 0.53072 0.20541 0.0
H2789 H 0.58644 0.54329 0.16627 0.0
H2790 H 0.61005 0.5343 0.33831 0.0
H2791 H 0.58595 0.5466 0.30009 0.0
H2792 H 0.59647 0.56141 0.53523 0.0
H2793 H 0.59676 0.55831 0.40216 0.0
H2794 H 0.59826 0.52716 0.44524 0.0
H2795 H 0.59875 0.53064 0.57812 0.0
C2796 C 0.60485 0.53415 0.22548 0.0
C2797 C 0.59829 0.53667 0.17546 0.0
C2798 C 0.60471 0.53617 0.30184 0.0
C2799 C 0.59789 0.54064 0.33051 0.0
C2800 C 0.59142 0.54328 0.28018 0.0
C2801 C 0.59167 0.54138 0.20346 0.0
C2802 C 0.59701 0.55397 0.51677 0.0
C2803 C 0.59769 0.54636 0.56849 0.0
C2804 C 0.59701 0.55209 0.43995 0.0
C2805 C 0.59758 0.5425 0.41246 0.0
C2806 C 0.59803 0.53477 0.46406 0.0
C2807 C 0.59814 0.5367 0.54085 0.0
H2808 H 0.71764 0.77568 0.20121 0.0
H2809 H 0.74065 0.81207 0.15587 0.0
H2810 H 0.71398 0.77206 0.06757 0.0
H2811 H 0.73702 0.80848 0.02317 0.0
H2812 H 0.73756 0.79607 0.78608 0.0
H2813 H 0.74105 0.7994 0.9197 0.0
H2814 H 0.70469 0.77579 0.96301 0.0
H2815 H 0.70121 0.77246 0.82967 0.0
C2816 C 0.72186 0.78292 0.16302 0.0
C2817 C 0.72954 0.79415 0.18969 0.0
C2818 C 0.71976 0.78085 0.08627 0.0
C2819 C 0.72527 0.78997 0.0343 0.0
C2820 C 0.73282 0.8012 0.06119 0.0
C2821 C 0.73491 0.80326 0.13763 0.0
C2822 C 0.73028 0.79166 0.82393 0.0
C2823 C 0.7191 0.78397 0.79666 0.0
C2824 C 0.73229 0.79356 0.90075 0.0
C2825 C 0.72316 0.78784 0.95243 0.0
C2826 C 0.71197 0.78019 0.92512 0.0
C2827 C 0.70997 0.77829 0.84838 0.0
H2828 H 0.22049 0.92688 0.80246 0.0
H2829 H 0.19403 0.936 0.76335 0.0
H2830 H 0.21681 0.92604 0.9362 0.0
H2831 H 0.19037 0.93519 0.89694 0.0
H2832 H 0.17832 0.92103 0.1307 0.0
H2833 H 0.18222 0.92148 0.99784 0.0
H2834 H 0.21899 0.93812 0.04319 0.0
H2835 H 0.21504 0.93761 0.17671 0.0
C2836 C 0.21396 0.92881 0.82231 0.0
C2837 C 0.20755 0.93149 0.77178 0.0
C2838 C 0.21185 0.92833 0.89917 0.0
C2839 C 0.20328 0.93052 0.92761 0.0
C2840 C 0.1969 0.93325 0.87707 0.0
C2841 C 0.199 0.93371 0.80025 0.0
C2842 C 0.18725 0.92485 0.1125 0.0
C2843 C 0.19637 0.92937 0.16464 0.0
C2844 C 0.18949 0.92513 0.03609 0.0
C2845 C 0.20093 0.92994 1.00946 0.0
C2846 C 0.21006 0.93425 0.06164 0.0
C2847 C 0.2078 0.93396 0.1383 0.0
H2848 H 0.06317 0.2523 0.14801 0.0
H2849 H 0.05282 0.27775 0.19165 0.0
H2850 H 0.06393 0.25623 1.01515 0.0
H2851 H 0.05357 0.2817 0.05805 0.0
H2852 H 0.06752 0.29362 0.82018 0.0
H2853 H 0.06702 0.29009 0.95383 0.0
H2854 H 0.05101 0.25328 0.91208 0.0
H2855 H 0.0515 0.25682 0.77847 0.0
C2856 C 0.06095 0.25867 0.12931 0.0
C2857 C 0.05783 0.26463 0.18077 0.0
C2858 C 0.06139 0.26093 0.05289 0.0
C2859 C 0.05873 0.26922 0.02565 0.0
C2860 C 0.05579 0.27534 0.07711 0.0
C2861 C 0.05535 0.27307 0.15377 0.0
C2862 C 0.0638 0.28476 0.83943 0.0
C2863 C 0.05956 0.27551 0.78824 0.0
C2864 C 0.06351 0.28274 0.91621 0.0
C2865 C 0.05898 0.2714 0.94388 0.0
C2866 C 0.05473 0.26215 0.89272 0.0
C2867 C 0.05503 0.26417 0.81593 0.0
H2868 H 0.19533 0.25029 0.76737 0.0
H2869 H 0.21418 0.28714 0.81078 0.0
H2870 H 0.19218 0.24652 0.9009 0.0
H2871 H 0.21098 0.28339 0.9441 0.0
H2872 H 0.21315 0.27202 0.18302 0.0
H2873 H 0.21647 0.27598 0.04952 0.0
H2874 H 0.18166 0.24816 1.00434 0.0
H2875 H 0.1784 0.24419 0.13713 0.0
C2876 C 0.19871 0.2576 0.8052 0.0
C2877 C 0.20504 0.26902 0.7779 0.0
C2878 C 0.19691 0.25544 0.88201 0.0
C2879 C 0.20134 0.26465 0.93372 0.0
C2880 C 0.20761 0.27607 0.90631 0.0
C2881 C 0.20943 0.27822 0.82958 0.0
C2882 C 0.20618 0.2668 0.14471 0.0
C2883 C 0.19553 0.25771 0.17122 0.0
C2884 C 0.20808 0.26907 0.06795 0.0
C2885 C 0.19936 0.26235 1.0157 0.0
C2886 C 0.18867 0.25337 0.04247 0.0
C2887 C 0.1868 0.25109 0.11896 0.0
H2888 H 0.70277 0.92429 0.82962 0.0
H2889 H 0.73961 0.94402 0.78651 0.0
H2890 H 0.70652 0.92494 0.96295 0.0
H2891 H 0.7434 0.9448 0.92005 0.0
H2892 H 0.74654 0.93404 0.15602 0.0
H2893 H 0.74251 0.93305 0.0232 0.0
H2894 H 0.71322 0.93774 0.06856 0.0
H2895 H 0.71722 0.93862 0.20205 0.0
C2896 C 0.71168 0.92887 0.84857 0.0
C2897 C 0.72088 0.93413 0.79706 0.0
C2898 C 0.71384 0.92926 0.92526 0.0
C2899 C 0.72527 0.93495 0.95272 0.0
C2900 C 0.73448 0.94018 0.90111 0.0
C2901 C 0.73232 0.93974 0.82434 0.0
C2902 C 0.73929 0.93496 0.1378 0.0
C2903 C 0.73227 0.9365 0.19004 0.0
C2904 C 0.73698 0.9344 0.06135 0.0
C2905 C 0.72758 0.93539 0.03466 0.0
C2906 C 0.72046 0.9368 0.08693 0.0
C2907 C 0.72276 0.93732 0.16365 0.0
H2908 H 0.06727 0.77469 0.83282 0.0
H2909 H 0.04794 0.79217 0.78973 0.0
H2910 H 0.06649 0.77769 0.9662 0.0
H2911 H 0.04707 0.79512 0.92333 0.0
H2912 H 0.05804 0.80896 0.15965 0.0
H2913 H 0.05901 0.80592 0.02683 0.0
H2914 H 0.0534 0.77159 0.07128 0.0
H2915 H 0.05249 0.77469 0.20486 0.0
C2916 C 0.06276 0.77909 0.85174 0.0
C2917 C 0.05764 0.78316 0.80019 0.0
C2918 C 0.06229 0.7808 0.92847 0.0
C2919 C 0.05669 0.78663 0.95594 0.0
C2920 C 0.05162 0.79075 0.90434 0.0
C2921 C 0.05211 0.78906 0.82753 0.0
C2922 C 0.05689 0.8007 0.1413 0.0
C2923 C 0.05508 0.79204 0.19335 0.0
C2924 C 0.05745 0.79896 0.06482 0.0
C2925 C 0.05621 0.78848 0.03788 0.0
C2926 C 0.05452 0.77983 0.0899 0.0
C2927 C 0.05399 0.7816 0.16667 0.0
H2928 H 0.93848 0.54974 0.1829 0.0
H2929 H 0.91412 0.5137 0.22977 0.0
H2930 H 0.9423 0.55338 0.31633 0.0
H2931 H 0.9179 0.51734 0.36227 0.0
H2932 H 0.91834 0.53021 0.59936 0.0
H2933 H 0.91463 0.52692 0.46593 0.0
H2934 H 0.95118 0.54921 0.42109 0.0
H2935 H 0.95489 0.55248 0.5543 0.0
C2936 C 0.93398 0.54258 0.22131 0.0
C2937 C 0.9259 0.53144 0.19498 0.0
C2938 C 0.93617 0.54466 0.29803 0.0
C2939 C 0.93035 0.53567 0.35046 0.0
C2940 C 0.92236 0.52454 0.32396 0.0
C2941 C 0.92019 0.52245 0.24754 0.0
C2942 C 0.92561 0.53434 0.56127 0.0
C2943 C 0.93692 0.54164 0.58819 0.0
C2944 C 0.92348 0.53246 0.48449 0.0
C2945 C 0.9326 0.53781 0.43235 0.0
C2946 C 0.94391 0.54509 0.45928 0.0
C2947 C 0.94604 0.54697 0.536 0.0
H2948 H 0.46177 0.38494 0.59738 0.0
H2949 H 0.4417 0.40168 0.5554 0.0
H2950 H 0.46505 0.38462 0.46373 0.0
H2951 H 0.44506 0.40148 0.422 0.0
H2952 H 0.44326 0.38816 0.18291 0.0
H2953 H 0.43997 0.38871 0.31653 0.0
H2954 H 0.4752 0.39693 0.36039 0.0
H2955 H 0.47842 0.39628 0.22738 0.0
C2956 C 0.45816 0.38867 0.55979 0.0
C2957 C 0.45144 0.3933 0.5874 0.0
C2958 C 0.46005 0.38849 0.48296 0.0
C2959 C 0.4553 0.393 0.43166 0.0
C2960 C 0.44867 0.39773 0.45946 0.0
C2961 C 0.44676 0.39786 0.53619 0.0
C2962 C 0.45032 0.39018 0.221 0.0
C2963 C 0.46108 0.39208 0.19416 0.0
C2964 C 0.44845 0.3905 0.29778 0.0
C2965 C 0.45729 0.3928 0.34966 0.0
C2966 C 0.46809 0.39488 0.32252 0.0
C2967 C 0.46995 0.39452 0.24598 0.0
H2968 H 0.59145 0.07596 0.22133 0.0
H2969 H 0.60455 0.05274 0.17603 0.0
H2970 H 0.59124 0.0722 0.35414 0.0
H2971 H 0.60436 0.04896 0.30952 0.0
H2972 H 0.59146 0.03649 0.5486 0.0
H2973 H 0.59142 0.03981 0.41496 0.0
H2974 H 0.60456 0.07625 0.45627 0.0
H2975 H 0.6046 0.07294 0.5898 0.0
C2976 C 0.59438 0.07012 0.23964 0.0
C2977 C 0.59811 0.06474 0.18769 0.0
C2978 C 0.59427 0.06796 0.31604 0.0
C2979 C 0.59787 0.06035 0.34283 0.0
C2980 C 0.60141 0.05479 0.29088 0.0
C2981 C 0.60153 0.05696 0.21424 0.0
C2982 C 0.59444 0.04523 0.52925 0.0
C2983 C 0.59802 0.05443 0.58035 0.0
C2984 C 0.59442 0.04714 0.45245 0.0
C2985 C 0.59797 0.0583 0.42463 0.0
C2986 C 0.60157 0.0675 0.47569 0.0
C2987 C 0.60159 0.0656 0.55248 0.0
loop_
_geom_bond_atom_site_label_1
_geom_bond_atom_site_label_2
_geom_bond_distance
_geom_bond_site_symmetry_2
_ccdc_geom_bond_type
Co0 N4 2.148 . S
Co0 N10 2.128 . S
Co0 N20 2.194 . S
Co0 O25 2.351 . S
Co0 O26 2.155 . S
Co0 O27 2.096 . S
C1 N4 1.301 . S
C1 N5 1.328 . S
C1 H6 0.930 . S
C2 C3 1.333 . S
C2 N4 1.317 . S
C2 H7 0.930 . S
C3 C2 1.333 . S
C3 N5 1.350 . S
C3 H29 0.931 1_554 S
N4 Co0 2.148 . S
N4 C1 1.301 . S
N4 C2 1.317 . S
N5 C1 1.328 . S
N5 C3 1.350 . S
H6 C1 0.930 . S
H7 C2 0.930 . S
C8 O9 1.224 . S
C8 O27 1.247 . S
O9 C8 1.224 . S
N10 Co0 2.128 . S
N10 C11 1.355 . S
N10 C13 1.311 . S
C11 N10 1.355 . S
C11 C12 1.363 . S
C11 H23 0.929 . S
C12 C11 1.363 . S
C12 N14 1.375 . S
C12 H30 0.931 . S
C13 N10 1.311 . S
C13 N14 1.347 . S
C13 H24 0.929 . S
N14 C12 1.375 . S
N14 C13 1.347 . S
C15 C18 1.365 . S
C15 N20 1.328 . S
C15 H21 0.929 . S
C16 C17 1.362 . S
C16 C19 1.378 . S
C16 H31 0.929 . S
C17 C16 1.362 . S
C17 C18 1.366 . S
C18 C15 1.365 . S
C18 C17 1.366 . S
C18 H32 0.930 . S
C19 C16 1.378 . S
C19 N20 1.315 . S
C19 H22 0.930 . S
N20 Co0 2.194 . S
N20 C15 1.328 . S
N20 C19 1.315 . S
H21 C15 0.929 . S
H22 C19 0.930 . S
H23 C11 0.929 . S
H24 C13 0.929 . S
O25 Co0 2.351 . S
O25 C28 1.244 . S
O26 Co0 2.155 . S
O26 C28 1.240 . S
O27 Co0 2.096 . S
O27 C8 1.247 . S
C28 O25 1.244 . S
C28 O26 1.240 . S
H29 C3 0.931 1_556 S
H30 C12 0.931 . S
H31 C16 0.929 . S
H32 C18 0.930 . S
Co33 N37 2.148 . S
Co33 N43 2.128 . S
Co33 N53 2.194 . S
Co33 O58 2.351 . S
Co33 O59 2.155 . S
Co33 O60 2.096 . S
C34 N37 1.301 . S
C34 N38 1.328 . S
C34 H39 0.930 . S
C35 C36 1.333 . S
C35 N37 1.317 . S
C35 H40 0.930 . S
C36 C35 1.333 . S
C36 N38 1.350 . S
C36 H62 0.931 1_554 S
N37 Co33 2.148 . S
N37 C34 1.301 . S
N37 C35 1.317 . S
N38 C34 1.328 . S
N38 C36 1.350 . S
H39 C34 0.930 . S
H40 C35 0.930 . S
C41 O42 1.224 . S
C41 O60 1.247 . S
O42 C41 1.224 . S
N43 Co33 2.128 . S
N43 C44 1.355 . S
N43 C46 1.311 . S
C44 N43 1.355 . S
C44 C45 1.363 . S
C44 H56 0.929 . S
C45 C44 1.363 . S
C45 N47 1.375 . S
C45 H63 0.931 . S
C46 N43 1.311 . S
C46 N47 1.347 . S
C46 H57 0.929 . S
N47 C45 1.375 . S
N47 C46 1.347 . S
C48 C51 1.365 . S
C48 N53 1.328 . S
C48 H54 0.929 . S
C49 C50 1.362 . S
C49 C52 1.378 . S
C49 H64 0.929 . S
C50 C49 1.362 . S
C50 C51 1.366 . S
C51 C48 1.365 . S
C51 C50 1.366 . S
C51 H65 0.930 . S
C52 C49 1.378 . S
C52 N53 1.315 . S
C52 H55 0.930 . S
N53 Co33 2.194 . S
N53 C48 1.328 . S
N53 C52 1.315 . S
H54 C48 0.929 . S
H55 C52 0.930 . S
H56 C44 0.929 . S
H57 C46 0.929 . S
O58 Co33 2.351 . S
O58 C61 1.244 . S
O59 Co33 2.155 . S
O59 C61 1.240 . S
O60 Co33 2.096 . S
O60 C41 1.247 . S
C61 O58 1.244 . S
C61 O59 1.240 . S
H62 C36 0.931 1_556 S
H63 C45 0.931 . S
H64 C49 0.929 . S
H65 C51 0.930 . S
Co66 N70 2.148 . S
Co66 N76 2.128 . S
Co66 N86 2.194 . S
Co66 O91 2.351 . S
Co66 O92 2.155 . S
Co66 O93 2.096 . S
C67 N70 1.301 . S
C67 N71 1.328 . S
C67 H72 0.930 . S
C68 C69 1.333 . S
C68 N70 1.317 . S
C68 H73 0.930 . S
C69 C68 1.333 . S
C69 N71 1.350 . S
C69 H95 0.931 1_554 S
N70 Co66 2.148 . S
N70 C67 1.301 . S
N70 C68 1.317 . S
N71 C67 1.328 . S
N71 C69 1.350 . S
H72 C67 0.930 . S
H73 C68 0.930 . S
C74 O75 1.224 . S
C74 O93 1.247 . S
O75 C74 1.224 . S
N76 Co66 2.128 . S
N76 C77 1.355 . S
N76 C79 1.311 . S
C77 N76 1.355 . S
C77 C78 1.363 . S
C77 H89 0.929 . S
C78 C77 1.363 . S
C78 N80 1.375 . S
C78 H96 0.931 . S
C79 N76 1.311 . S
C79 N80 1.347 . S
C79 H90 0.929 . S
N80 C78 1.375 . S
N80 C79 1.347 . S
C81 C84 1.365 . S
C81 N86 1.328 . S
C81 H87 0.929 . S
C82 C83 1.362 . S
C82 C85 1.378 . S
C82 H97 0.929 . S
C83 C82 1.362 . S
C83 C84 1.366 . S
C84 C81 1.365 . S
C84 C83 1.366 . S
C84 H98 0.930 . S
C85 C82 1.378 . S
C85 N86 1.315 . S
C85 H88 0.930 . S
N86 Co66 2.194 . S
N86 C81 1.328 . S
N86 C85 1.315 . S
H87 C81 0.929 . S
H88 C85 0.930 . S
H89 C77 0.929 . S
H90 C79 0.929 . S
O91 Co66 2.351 . S
O91 C94 1.244 . S
O92 Co66 2.155 . S
O92 C94 1.240 . S
O93 Co66 2.096 . S
O93 C74 1.247 . S
C94 O91 1.244 . S
C94 O92 1.240 . S
H95 C69 0.931 1_556 S
H96 C78 0.931 . S
H97 C82 0.929 . S
H98 C84 0.930 . S
Co99 N103 2.148 . S
Co99 N109 2.128 . S
Co99 N119 2.194 . S
Co99 O124 2.351 . S
Co99 O125 2.155 . S
Co99 O126 2.096 . S
C100 N103 1.301 . S
C100 N104 1.328 . S
C100 H105 0.930 . S
C101 C102 1.333 . S
C101 N103 1.317 . S
C101 H106 0.930 . S
C102 C101 1.333 . S
C102 N104 1.350 . S
C102 H128 0.931 1_556 S
N103 Co99 2.148 . S
N103 C100 1.301 . S
N103 C101 1.317 . S
N104 C100 1.328 . S
N104 C102 1.350 . S
H105 C100 0.930 . S
H106 C101 0.930 . S
C107 O108 1.224 . S
C107 O126 1.247 . S
O108 C107 1.224 . S
N109 Co99 2.128 . S
N109 C110 1.355 . S
N109 C112 1.311 . S
C110 N109 1.355 . S
C110 C111 1.363 . S
C110 H122 0.929 . S
C111 C110 1.363 . S
C111 N113 1.375 . S
C111 H129 0.931 . S
C112 N109 1.311 . S
C112 N113 1.347 . S
C112 H123 0.929 . S
N113 C111 1.375 . S
N113 C112 1.347 . S
C114 C117 1.365 . S
C114 N119 1.328 . S
C114 H120 0.929 . S
C115 C116 1.362 . S
C115 C118 1.378 . S
C115 H130 0.929 . S
C116 C115 1.362 . S
C116 C117 1.366 . S
C117 C114 1.365 . S
C117 C116 1.366 . S
C117 H131 0.930 . S
C118 C115 1.378 . S
C118 N119 1.315 . S
C118 H121 0.930 . S
N119 Co99 2.194 . S
N119 C114 1.328 . S
N119 C118 1.315 . S
H120 C114 0.929 . S
H121 C118 0.930 . S
H122 C110 0.929 . S
H123 C112 0.929 . S
O124 Co99 2.351 . S
O124 C127 1.244 . S
O125 Co99 2.155 . S
O125 C127 1.240 . S
O126 Co99 2.096 . S
O126 C107 1.247 . S
C127 O124 1.244 . S
C127 O125 1.240 . S
H128 C102 0.931 1_554 S
H129 C111 0.931 . S
H130 C115 0.929 . S
H131 C117 0.930 . S
Co132 N136 2.148 . S
Co132 N142 2.128 . S
Co132 N152 2.194 . S
Co132 O157 2.351 . S
Co132 O158 2.155 . S
Co132 O159 2.096 . S
C133 N136 1.301 . S
C133 N137 1.328 . S
C133 H138 0.930 . S
C134 C135 1.333 . S
C134 N136 1.317 . S
C134 H139 0.930 . S
C135 C134 1.333 . S
C135 N137 1.350 . S
C135 H161 0.931 1_556 S
N136 Co132 2.148 . S
N136 C133 1.301 . S
N136 C134 1.317 . S
N137 C133 1.328 . S
N137 C135 1.350 . S
H138 C133 0.930 . S
H139 C134 0.930 . S
C140 O141 1.224 . S
C140 O159 1.247 . S
O141 C140 1.224 . S
N142 Co132 2.128 . S
N142 C143 1.355 . S
N142 C145 1.311 . S
C143 N142 1.355 . S
C143 C144 1.363 . S
C143 H155 0.929 . S
C144 C143 1.363 . S
C144 N146 1.375 . S
C144 H162 0.931 . S
C145 N142 1.311 . S
C145 N146 1.347 . S
C145 H156 0.929 . S
N146 C144 1.375 . S
N146 C145 1.347 . S
C147 C150 1.365 . S
C147 N152 1.328 . S
C147 H153 0.929 . S
C148 C149 1.362 . S
C148 C151 1.378 . S
C148 H163 0.929 . S
C149 C148 1.362 . S
C149 C150 1.366 . S
C150 C147 1.365 . S
C150 C149 1.366 . S
C150 H164 0.930 . S
C151 C148 1.378 . S
C151 N152 1.315 . S
C151 H154 0.930 . S
N152 Co132 2.194 . S
N152 C147 1.328 . S
N152 C151 1.315 . S
H153 C147 0.929 . S
H154 C151 0.930 . S
H155 C143 0.929 . S
H156 C145 0.929 . S
O157 Co132 2.351 . S
O157 C160 1.244 . S
O158 Co132 2.155 . S
O158 C160 1.240 . S
O159 Co132 2.096 . S
O159 C140 1.247 . S
C160 O157 1.244 . S
C160 O158 1.240 . S
H161 C135 0.931 1_554 S
H162 C144 0.931 . S
H163 C148 0.929 . S
H164 C150 0.930 . S
Co165 N169 2.148 . S
Co165 N175 2.128 . S
Co165 N185 2.194 . S
Co165 O190 2.351 . S
Co165 O191 2.155 . S
Co165 O192 2.096 . S
C166 N169 1.301 . S
C166 N170 1.328 . S
C166 H171 0.930 . S
C167 C168 1.333 . S
C167 N169 1.317 . S
C167 H172 0.930 . S
C168 C167 1.333 . S
C168 N170 1.350 . S
C168 H194 0.931 1_556 S
N169 Co165 2.148 . S
N169 C166 1.301 . S
N169 C167 1.317 . S
N170 C166 1.328 . S
N170 C168 1.350 . S
H171 C166 0.930 . S
H172 C167 0.930 . S
C173 O174 1.224 . S
C173 O192 1.247 . S
O174 C173 1.224 . S
N175 Co165 2.128 . S
N175 C176 1.355 . S
N175 C178 1.311 . S
C176 N175 1.355 . S
C176 C177 1.363 . S
C176 H188 0.929 . S
C177 C176 1.363 . S
C177 N179 1.375 . S
C177 H195 0.931 . S
C178 N175 1.311 . S
C178 N179 1.347 . S
C178 H189 0.929 . S
N179 C177 1.375 . S
N179 C178 1.347 . S
C180 C183 1.365 . S
C180 N185 1.328 . S
C180 H186 0.929 . S
C181 C182 1.362 . S
C181 C184 1.378 . S
C181 H196 0.929 . S
C182 C181 1.362 . S
C182 C183 1.366 . S
C183 C180 1.365 . S
C183 C182 1.366 . S
C183 H197 0.930 . S
C184 C181 1.378 . S
C184 N185 1.315 . S
C184 H187 0.930 . S
N185 Co165 2.194 . S
N185 C180 1.328 . S
N185 C184 1.315 . S
H186 C180 0.929 . S
H187 C184 0.930 . S
H188 C176 0.929 . S
H189 C178 0.929 . S
O190 Co165 2.351 . S
O190 C193 1.244 . S
O191 Co165 2.155 . S
O191 C193 1.240 . S
O192 Co165 2.096 . S
O192 C173 1.247 . S
C193 O190 1.244 . S
C193 O191 1.240 . S
H194 C168 0.931 1_554 S
H195 C177 0.931 . S
H196 C181 0.929 . S
H197 C183 0.930 . S
Co198 N202 2.148 . S
Co198 N208 2.128 . S
Co198 N218 2.194 . S
Co198 O223 2.351 . S
Co198 O224 2.155 . S
Co198 O225 2.096 . S
C199 N202 1.301 . S
C199 N203 1.328 . S
C199 H204 0.930 . S
C200 C201 1.333 . S
C200 N202 1.317 . S
C200 H205 0.930 . S
C201 C200 1.333 . S
C201 N203 1.350 . S
C201 H227 0.931 1_556 S
N202 Co198 2.148 . S
N202 C199 1.301 . S
N202 C200 1.317 . S
N203 C199 1.328 . S
N203 C201 1.350 . S
H204 C199 0.930 . S
H205 C200 0.930 . S
C206 O207 1.224 . S
C206 O225 1.247 . S
O207 C206 1.224 . S
N208 Co198 2.128 . S
N208 C209 1.355 . S
N208 C211 1.311 . S
C209 N208 1.355 . S
C209 C210 1.363 . S
C209 H221 0.929 . S
C210 C209 1.363 . S
C210 N212 1.375 . S
C210 H228 0.931 . S
C211 N208 1.311 . S
C211 N212 1.347 . S
C211 H222 0.929 . S
N212 C210 1.375 . S
N212 C211 1.347 . S
C213 C216 1.365 . S
C213 N218 1.328 . S
C213 H219 0.929 . S
C214 C215 1.362 . S
C214 C217 1.378 . S
C214 H229 0.929 . S
C215 C214 1.362 . S
C215 C216 1.366 . S
C216 C213 1.365 . S
C216 C215 1.366 . S
C216 H230 0.930 . S
C217 C214 1.378 . S
C217 N218 1.315 . S
C217 H220 0.930 . S
N218 Co198 2.194 . S
N218 C213 1.328 . S
N218 C217 1.315 . S
H219 C213 0.929 . S
H220 C217 0.930 . S
H221 C209 0.929 . S
H222 C211 0.929 . S
O223 Co198 2.351 . S
O223 C226 1.244 . S
O224 Co198 2.155 . S
O224 C226 1.240 . S
O225 Co198 2.096 . S
O225 C206 1.247 . S
C226 O223 1.244 . S
C226 O224 1.240 . S
H227 C201 0.931 1_554 S
H228 C210 0.931 . S
H229 C214 0.929 . S
H230 C216 0.930 . S
Co231 N235 2.148 . S
Co231 N241 2.128 . S
Co231 N251 2.194 . S
Co231 O256 2.351 . S
Co231 O257 2.155 . S
Co231 O258 2.096 . S
C232 N235 1.301 . S
C232 N236 1.328 . S
C232 H237 0.930 . S
C233 C234 1.333 . S
C233 N235 1.317 . S
C233 H238 0.930 . S
C234 C233 1.333 . S
C234 N236 1.350 . S
C234 H260 0.931 1_556 S
N235 Co231 2.148 . S
N235 C232 1.301 . S
N235 C233 1.317 . S
N236 C232 1.328 . S
N236 C234 1.350 . S
H237 C232 0.930 . S
H238 C233 0.930 . S
C239 O240 1.224 . S
C239 O258 1.247 . S
O240 C239 1.224 . S
N241 Co231 2.128 . S
N241 C242 1.355 . S
N241 C244 1.311 . S
C242 N241 1.355 . S
C242 C243 1.363 . S
C242 H254 0.929 . S
C243 C242 1.363 . S
C243 N245 1.375 . S
C243 H261 0.931 . S
C244 N241 1.311 . S
C244 N245 1.347 . S
C244 H255 0.929 . S
N245 C243 1.375 . S
N245 C244 1.347 . S
C246 C249 1.365 . S
C246 N251 1.328 . S
C246 H252 0.929 . S
C247 C248 1.362 . S
C247 C250 1.378 . S
C247 H262 0.929 . S
C248 C247 1.362 . S
C248 C249 1.366 . S
C249 C246 1.365 . S
C249 C248 1.366 . S
C249 H263 0.930 . S
C250 C247 1.378 . S
C250 N251 1.315 . S
C250 H253 0.930 . S
N251 Co231 2.194 . S
N251 C246 1.328 . S
N251 C250 1.315 . S
H252 C246 0.929 . S
H253 C250 0.930 . S
H254 C242 0.929 . S
H255 C244 0.929 . S
O256 Co231 2.351 . S
O256 C259 1.244 . S
O257 Co231 2.155 . S
O257 C259 1.240 . S
O258 Co231 2.096 . S
O258 C239 1.247 . S
C259 O256 1.244 . S
C259 O257 1.240 . S
H260 C234 0.931 1_554 S
H261 C243 0.931 . S
H262 C247 0.929 . S
H263 C249 0.930 . S
Co264 N268 2.148 . S
Co264 N274 2.128 . S
Co264 N284 2.194 . S
Co264 O289 2.351 . S
Co264 O290 2.155 . S
Co264 O291 2.096 . S
C265 N268 1.301 . S
C265 N269 1.328 . S
C265 H270 0.930 . S
C266 C267 1.333 . S
C266 N268 1.317 . S
C266 H271 0.930 . S
C267 C266 1.333 . S
C267 N269 1.350 . S
C267 H293 0.931 1_556 S
N268 Co264 2.148 . S
N268 C265 1.301 . S
N268 C266 1.317 . S
N269 C265 1.328 . S
N269 C267 1.350 . S
H270 C265 0.930 . S
H271 C266 0.930 . S
C272 O273 1.224 . S
C272 O291 1.247 . S
O273 C272 1.224 . S
N274 Co264 2.128 . S
N274 C275 1.355 . S
N274 C277 1.311 . S
C275 N274 1.355 . S
C275 C276 1.363 . S
C275 H287 0.929 . S
C276 C275 1.363 . S
C276 N278 1.375 . S
C276 H294 0.931 . S
C277 N274 1.311 . S
C277 N278 1.347 . S
C277 H288 0.929 . S
N278 C276 1.375 . S
N278 C277 1.347 . S
C279 C282 1.365 . S
C279 N284 1.328 . S
C279 H285 0.929 . S
C280 C281 1.362 . S
C280 C283 1.378 . S
C280 H295 0.929 . S
C281 C280 1.362 . S
C281 C282 1.366 . S
C282 C279 1.365 . S
C282 C281 1.366 . S
C282 H296 0.930 . S
C283 C280 1.378 . S
C283 N284 1.315 . S
C283 H286 0.930 . S
N284 Co264 2.194 . S
N284 C279 1.328 . S
N284 C283 1.315 . S
H285 C279 0.929 . S
H286 C283 0.930 . S
H287 C275 0.929 . S
H288 C277 0.929 . S
O289 Co264 2.351 . S
O289 C292 1.244 . S
O290 Co264 2.155 . S
O290 C292 1.240 . S
O291 Co264 2.096 . S
O291 C272 1.247 . S
C292 O289 1.244 . S
C292 O290 1.240 . S
H293 C267 0.931 1_554 S
H294 C276 0.931 . S
H295 C280 0.929 . S
H296 C282 0.930 . S
Co297 N301 2.148 . S
Co297 N307 2.128 . S
Co297 N317 2.194 . S
Co297 O322 2.351 . S
Co297 O323 2.155 . S
Co297 O324 2.096 . S
C298 N301 1.301 . S
C298 N302 1.328 . S
C298 H303 0.930 . S
C299 C300 1.333 . S
C299 N301 1.317 . S
C299 H304 0.930 . S
C300 C299 1.333 . S
C300 N302 1.350 . S
C300 H326 0.931 1_554 S
N301 Co297 2.148 . S
N301 C298 1.301 . S
N301 C299 1.317 . S
N302 C298 1.328 . S
N302 C300 1.350 . S
H303 C298 0.930 . S
H304 C299 0.930 . S
C305 O306 1.224 . S
C305 O324 1.247 . S
O306 C305 1.224 . S
N307 Co297 2.128 . S
N307 C308 1.355 . S
N307 C310 1.311 . S
C308 N307 1.355 . S
C308 C309 1.363 . S
C308 H320 0.929 . S
C309 C308 1.363 . S
C309 N311 1.375 . S
C309 H327 0.931 . S
C310 N307 1.311 . S
C310 N311 1.347 . S
C310 H321 0.929 . S
N311 C309 1.375 . S
N311 C310 1.347 . S
C312 C315 1.365 . S
C312 N317 1.328 . S
C312 H318 0.929 . S
C313 C314 1.362 . S
C313 C316 1.378 . S
C313 H328 0.929 . S
C314 C313 1.362 . S
C314 C315 1.366 . S
C315 C312 1.365 . S
C315 C314 1.366 . S
C315 H329 0.930 . S
C316 C313 1.378 . S
C316 N317 1.315 . S
C316 H319 0.930 . S
N317 Co297 2.194 . S
N317 C312 1.328 . S
N317 C316 1.315 . S
H318 C312 0.929 . S
H319 C316 0.930 . S
H320 C308 0.929 . S
H321 C310 0.929 . S
O322 Co297 2.351 . S
O322 C325 1.244 . S
O323 Co297 2.155 . S
O323 C325 1.240 . S
O324 Co297 2.096 . S
O324 C305 1.247 . S
C325 O322 1.244 . S
C325 O323 1.240 . S
H326 C300 0.931 1_556 S
H327 C309 0.931 . S
H328 C313 0.929 . S
H329 C315 0.930 . S
Co330 N334 2.148 . S
Co330 N340 2.128 . S
Co330 N350 2.194 . S
Co330 O355 2.351 . S
Co330 O356 2.155 . S
Co330 O357 2.096 . S
C331 N334 1.301 . S
C331 N335 1.328 . S
C331 H336 0.930 . S
C332 C333 1.333 . S
C332 N334 1.317 . S
C332 H337 0.930 . S
C333 C332 1.333 . S
C333 N335 1.350 . S
C333 H359 0.931 1_554 S
N334 Co330 2.148 . S
N334 C331 1.301 . S
N334 C332 1.317 . S
N335 C331 1.328 . S
N335 C333 1.350 . S
H336 C331 0.930 . S
H337 C332 0.930 . S
C338 O339 1.224 . S
C338 O357 1.247 . S
O339 C338 1.224 . S
N340 Co330 2.128 . S
N340 C341 1.355 . S
N340 C343 1.311 . S
C341 N340 1.355 . S
C341 C342 1.363 . S
C341 H353 0.929 . S
C342 C341 1.363 . S
C342 N344 1.375 . S
C342 H360 0.931 . S
C343 N340 1.311 . S
C343 N344 1.347 . S
C343 H354 0.929 . S
N344 C342 1.375 . S
N344 C343 1.347 . S
C345 C348 1.365 . S
C345 N350 1.328 . S
C345 H351 0.929 . S
C346 C347 1.362 . S
C346 C349 1.378 . S
C346 H361 0.929 . S
C347 C346 1.362 . S
C347 C348 1.366 . S
C348 C345 1.365 . S
C348 C347 1.366 . S
C348 H362 0.930 . S
C349 C346 1.378 . S
C349 N350 1.315 . S
C349 H352 0.930 . S
N350 Co330 2.194 . S
N350 C345 1.328 . S
N350 C349 1.315 . S
H351 C345 0.929 . S
H352 C349 0.930 . S
H353 C341 0.929 . S
H354 C343 0.929 . S
O355 Co330 2.351 . S
O355 C358 1.244 . S
O356 Co330 2.155 . S
O356 C358 1.240 . S
O357 Co330 2.096 . S
O357 C338 1.247 . S
C358 O355 1.244 . S
C358 O356 1.240 . S
H359 C333 0.931 1_556 S
H360 C342 0.931 . S
H361 C346 0.929 . S
H362 C348 0.930 . S
Co363 N367 2.148 . S
Co363 N373 2.128 . S
Co363 N383 2.194 . S
Co363 O388 2.351 . S
Co363 O389 2.155 . S
Co363 O390 2.096 . S
C364 N367 1.301 . S
C364 N368 1.328 . S
C364 H369 0.930 . S
C365 C366 1.333 . S
C365 N367 1.317 . S
C365 H370 0.930 . S
C366 C365 1.333 . S
C366 N368 1.350 . S
C366 H392 0.931 1_554 S
N367 Co363 2.148 . S
N367 C364 1.301 . S
N367 C365 1.317 . S
N368 C364 1.328 . S
N368 C366 1.350 . S
H369 C364 0.930 . S
H370 C365 0.930 . S
C371 O372 1.224 . S
C371 O390 1.247 . S
O372 C371 1.224 . S
N373 Co363 2.128 . S
N373 C374 1.355 . S
N373 C376 1.311 . S
C374 N373 1.355 . S
C374 C375 1.363 . S
C374 H386 0.929 . S
C375 C374 1.363 . S
C375 N377 1.375 . S
C375 H393 0.931 . S
C376 N373 1.311 . S
C376 N377 1.347 . S
C376 H387 0.929 . S
N377 C375 1.375 . S
N377 C376 1.347 . S
C378 C381 1.365 . S
C378 N383 1.328 . S
C378 H384 0.929 . S
C379 C380 1.362 . S
C379 C382 1.378 . S
C379 H394 0.929 . S
C380 C379 1.362 . S
C380 C381 1.366 . S
C381 C378 1.365 . S
C381 C380 1.366 . S
C381 H395 0.930 . S
C382 C379 1.378 . S
C382 N383 1.315 . S
C382 H385 0.930 . S
N383 Co363 2.194 . S
N383 C378 1.328 . S
N383 C382 1.315 . S
H384 C378 0.929 . S
H385 C382 0.930 . S
H386 C374 0.929 . S
H387 C376 0.929 . S
O388 Co363 2.351 . S
O388 C391 1.244 . S
O389 Co363 2.155 . S
O389 C391 1.240 . S
O390 Co363 2.096 . S
O390 C371 1.247 . S
C391 O388 1.244 . S
C391 O389 1.240 . S
H392 C366 0.931 1_556 S
H393 C375 0.931 . S
H394 C379 0.929 . S
H395 C381 0.930 . S
Co396 N400 2.148 . S
Co396 N406 2.128 . S
Co396 N416 2.194 . S
Co396 O421 2.351 . S
Co396 O422 2.155 . S
Co396 O423 2.096 . S
C397 N400 1.301 . S
C397 N401 1.328 . S
C397 H402 0.930 . S
C398 C399 1.333 . S
C398 N400 1.317 . S
C398 H403 0.930 . S
C399 C398 1.333 . S
C399 N401 1.350 . S
C399 H425 0.931 . S
N400 Co396 2.148 . S
N400 C397 1.301 . S
N400 C398 1.317 . S
N401 C397 1.328 . S
N401 C399 1.350 . S
H402 C397 0.930 . S
H403 C398 0.930 . S
C404 O405 1.224 . S
C404 O423 1.247 . S
O405 C404 1.224 . S
N406 Co396 2.128 . S
N406 C407 1.355 . S
N406 C409 1.311 . S
C407 N406 1.355 . S
C407 C408 1.363 . S
C407 H419 0.929 . S
C408 C407 1.363 . S
C408 N410 1.375 . S
C408 H426 0.931 . S
C409 N406 1.311 . S
C409 N410 1.347 . S
C409 H420 0.929 . S
N410 C408 1.375 . S
N410 C409 1.347 . S
C411 C414 1.365 . S
C411 N416 1.328 . S
C411 H417 0.929 . S
C412 C413 1.362 . S
C412 C415 1.378 . S
C412 H427 0.929 . S
C413 C412 1.362 . S
C413 C414 1.366 . S
C414 C411 1.365 . S
C414 C413 1.366 . S
C414 H428 0.930 . S
C415 C412 1.378 . S
C415 N416 1.315 . S
C415 H418 0.930 . S
N416 Co396 2.194 . S
N416 C411 1.328 . S
N416 C415 1.315 . S
H417 C411 0.929 . S
H418 C415 0.930 . S
H419 C407 0.929 . S
H420 C409 0.929 . S
O421 Co396 2.351 . S
O421 C424 1.244 . S
O422 Co396 2.155 . S
O422 C424 1.240 . S
O423 Co396 2.096 . S
O423 C404 1.247 . S
C424 O421 1.244 . S
C424 O422 1.240 . S
H425 C399 0.931 . S
H426 C408 0.931 . S
H427 C412 0.929 . S
H428 C414 0.930 . S
Co429 N433 2.148 . S
Co429 N439 2.128 . S
Co429 N449 2.194 . S
Co429 O454 2.351 . S
Co429 O455 2.155 . S
Co429 O456 2.096 . S
C430 N433 1.301 . S
C430 N434 1.328 . S
C430 H435 0.930 . S
C431 C432 1.333 . S
C431 N433 1.317 . S
C431 H436 0.930 . S
C432 C431 1.333 . S
C432 N434 1.350 . S
C432 H458 0.931 . S
N433 Co429 2.148 . S
N433 C430 1.301 . S
N433 C431 1.317 . S
N434 C430 1.328 . S
N434 C432 1.350 . S
H435 C430 0.930 . S
H436 C431 0.930 . S
C437 O438 1.224 . S
C437 O456 1.247 . S
O438 C437 1.224 . S
N439 Co429 2.128 . S
N439 C440 1.355 . S
N439 C442 1.311 . S
C440 N439 1.355 . S
C440 C441 1.363 . S
C440 H452 0.929 . S
C441 C440 1.363 . S
C441 N443 1.375 . S
C441 H459 0.931 . S
C442 N439 1.311 . S
C442 N443 1.347 . S
C442 H453 0.929 . S
N443 C441 1.375 . S
N443 C442 1.347 . S
C444 C447 1.365 . S
C444 N449 1.328 . S
C444 H450 0.929 . S
C445 C446 1.362 . S
C445 C448 1.378 . S
C445 H460 0.929 . S
C446 C445 1.362 . S
C446 C447 1.366 . S
C447 C444 1.365 . S
C447 C446 1.366 . S
C447 H461 0.930 . S
C448 C445 1.378 . S
C448 N449 1.315 . S
C448 H451 0.930 . S
N449 Co429 2.194 . S
N449 C444 1.328 . S
N449 C448 1.315 . S
H450 C444 0.929 . S
H451 C448 0.930 . S
H452 C440 0.929 . S
H453 C442 0.929 . S
O454 Co429 2.351 . S
O454 C457 1.244 . S
O455 Co429 2.155 . S
O455 C457 1.240 . S
O456 Co429 2.096 . S
O456 C437 1.247 . S
C457 O454 1.244 . S
C457 O455 1.240 . S
H458 C432 0.931 . S
H459 C441 0.931 . S
H460 C445 0.929 . S
H461 C447 0.930 . S
Co462 N466 2.148 . S
Co462 N472 2.128 . S
Co462 N482 2.194 . S
Co462 O487 2.351 . S
Co462 O488 2.155 . S
Co462 O489 2.096 . S
C463 N466 1.301 . S
C463 N467 1.328 . S
C463 H468 0.930 . S
C464 C465 1.333 . S
C464 N466 1.317 . S
C464 H469 0.930 . S
C465 C464 1.333 . S
C465 N467 1.350 . S
C465 H491 0.931 . S
N466 Co462 2.148 . S
N466 C463 1.301 . S
N466 C464 1.317 . S
N467 C463 1.328 . S
N467 C465 1.350 . S
H468 C463 0.930 . S
H469 C464 0.930 . S
C470 O471 1.224 . S
C470 O489 1.247 . S
O471 C470 1.224 . S
N472 Co462 2.128 . S
N472 C473 1.355 . S
N472 C475 1.311 . S
C473 N472 1.355 . S
C473 C474 1.363 . S
C473 H485 0.929 . S
C474 C473 1.363 . S
C474 N476 1.375 . S
C474 H492 0.931 . S
C475 N472 1.311 . S
C475 N476 1.347 . S
C475 H486 0.929 . S
N476 C474 1.375 . S
N476 C475 1.347 . S
C477 C480 1.365 . S
C477 N482 1.328 . S
C477 H483 0.929 . S
C478 C479 1.362 . S
C478 C481 1.378 . S
C478 H493 0.929 . S
C479 C478 1.362 . S
C479 C480 1.366 . S
C480 C477 1.365 . S
C480 C479 1.366 . S
C480 H494 0.930 . S
C481 C478 1.378 . S
C481 N482 1.315 . S
C481 H484 0.930 . S
N482 Co462 2.194 . S
N482 C477 1.328 . S
N482 C481 1.315 . S
H483 C477 0.929 . S
H484 C481 0.930 . S
H485 C473 0.929 . S
H486 C475 0.929 . S
O487 Co462 2.351 . S
O487 C490 1.244 . S
O488 Co462 2.155 . S
O488 C490 1.240 . S
O489 Co462 2.096 . S
O489 C470 1.247 . S
C490 O487 1.244 . S
C490 O488 1.240 . S
H491 C465 0.931 . S
H492 C474 0.931 . S
H493 C478 0.929 . S
H494 C480 0.930 . S
Co495 N499 2.148 . S
Co495 N505 2.128 1_554 S
Co495 N515 2.194 . S
Co495 O520 2.351 . S
Co495 O521 2.155 . S
Co495 O522 2.096 . S
C496 N499 1.301 . S
C496 N500 1.328 . S
C496 H501 0.930 . S
C497 C498 1.333 . S
C497 N499 1.317 . S
C497 H502 0.930 . S
C498 C497 1.333 . S
C498 N500 1.350 . S
C498 H524 0.931 . S
N499 Co495 2.148 . S
N499 C496 1.301 . S
N499 C497 1.317 . S
N500 C496 1.328 . S
N500 C498 1.350 . S
H501 C496 0.930 . S
H502 C497 0.930 . S
C503 O504 1.224 . S
C503 O522 1.247 . S
O504 C503 1.224 . S
N505 Co495 2.128 1_556 S
N505 C506 1.355 . S
N505 C508 1.311 . S
C506 N505 1.355 . S
C506 C507 1.363 . S
C506 H518 0.929 . S
C507 C506 1.363 . S
C507 N509 1.375 . S
C507 H525 0.931 . S
C508 N505 1.311 . S
C508 N509 1.347 . S
C508 H519 0.929 . S
N509 C507 1.375 . S
N509 C508 1.347 . S
C510 C513 1.365 . S
C510 N515 1.328 . S
C510 H516 0.929 . S
C511 C512 1.362 . S
C511 C514 1.378 . S
C511 H526 0.929 . S
C512 C511 1.362 . S
C512 C513 1.366 . S
C513 C510 1.365 . S
C513 C512 1.366 . S
C513 H527 0.930 . S
C514 C511 1.378 . S
C514 N515 1.315 . S
C514 H517 0.930 . S
N515 Co495 2.194 . S
N515 C510 1.328 . S
N515 C514 1.315 . S
H516 C510 0.929 . S
H517 C514 0.930 . S
H518 C506 0.929 . S
H519 C508 0.929 . S
O520 Co495 2.351 . S
O520 C523 1.244 . S
O521 Co495 2.155 . S
O521 C523 1.240 . S
O522 Co495 2.096 . S
O522 C503 1.247 . S
C523 O520 1.244 . S
C523 O521 1.240 . S
H524 C498 0.931 . S
H525 C507 0.931 . S
H526 C511 0.929 . S
H527 C513 0.930 . S
Co528 N532 2.148 . S
Co528 N538 2.128 1_554 S
Co528 N548 2.194 . S
Co528 O553 2.351 . S
Co528 O554 2.155 . S
Co528 O555 2.096 . S
C529 N532 1.301 . S
C529 N533 1.328 . S
C529 H534 0.930 . S
C530 C531 1.333 . S
C530 N532 1.317 . S
C530 H535 0.930 . S
C531 C530 1.333 . S
C531 N533 1.350 . S
C531 H557 0.931 . S
N532 Co528 2.148 . S
N532 C529 1.301 . S
N532 C530 1.317 . S
N533 C529 1.328 . S
N533 C531 1.350 . S
H534 C529 0.930 . S
H535 C530 0.930 . S
C536 O537 1.224 . S
C536 O555 1.247 . S
O537 C536 1.224 . S
N538 Co528 2.128 1_556 S
N538 C539 1.355 . S
N538 C541 1.311 . S
C539 N538 1.355 . S
C539 C540 1.363 . S
C539 H551 0.929 . S
C540 C539 1.363 . S
C540 N542 1.375 . S
C540 H558 0.931 . S
C541 N538 1.311 . S
C541 N542 1.347 . S
C541 H552 0.929 . S
N542 C540 1.375 . S
N542 C541 1.347 . S
C543 C546 1.365 . S
C543 N548 1.328 . S
C543 H549 0.929 . S
C544 C545 1.362 . S
C544 C547 1.378 . S
C544 H559 0.929 . S
C545 C544 1.362 . S
C545 C546 1.366 . S
C546 C543 1.365 . S
C546 C545 1.366 . S
C546 H560 0.930 . S
C547 C544 1.378 . S
C547 N548 1.315 . S
C547 H550 0.930 . S
N548 Co528 2.194 . S
N548 C543 1.328 . S
N548 C547 1.315 . S
H549 C543 0.929 . S
H550 C547 0.930 . S
H551 C539 0.929 . S
H552 C541 0.929 . S
O553 Co528 2.351 . S
O553 C556 1.244 . S
O554 Co528 2.155 . S
O554 C556 1.240 . S
O555 Co528 2.096 . S
O555 C536 1.247 . S
C556 O553 1.244 . S
C556 O554 1.240 . S
H557 C531 0.931 . S
H558 C540 0.931 . S
H559 C544 0.929 . S
H560 C546 0.930 . S
Co561 N565 2.148 . S
Co561 N571 2.128 1_554 S
Co561 N581 2.194 . S
Co561 O586 2.351 . S
Co561 O587 2.155 . S
Co561 O588 2.096 . S
C562 N565 1.301 . S
C562 N566 1.328 . S
C562 H567 0.930 . S
C563 C564 1.333 . S
C563 N565 1.317 . S
C563 H568 0.930 . S
C564 C563 1.333 . S
C564 N566 1.350 . S
C564 H590 0.931 . S
N565 Co561 2.148 . S
N565 C562 1.301 . S
N565 C563 1.317 . S
N566 C562 1.328 . S
N566 C564 1.350 . S
H567 C562 0.930 . S
H568 C563 0.930 . S
C569 O570 1.224 . S
C569 O588 1.247 . S
O570 C569 1.224 . S
N571 Co561 2.128 1_556 S
N571 C572 1.355 . S
N571 C574 1.311 . S
C572 N571 1.355 . S
C572 C573 1.363 . S
C572 H584 0.929 . S
C573 C572 1.363 . S
C573 N575 1.375 . S
C573 H591 0.931 . S
C574 N571 1.311 . S
C574 N575 1.347 . S
C574 H585 0.929 . S
N575 C573 1.375 . S
N575 C574 1.347 . S
C576 C579 1.365 . S
C576 N581 1.328 . S
C576 H582 0.929 . S
C577 C578 1.362 . S
C577 C580 1.378 . S
C577 H592 0.929 . S
C578 C577 1.362 . S
C578 C579 1.366 . S
C579 C576 1.365 . S
C579 C578 1.366 . S
C579 H593 0.930 . S
C580 C577 1.378 . S
C580 N581 1.315 . S
C580 H583 0.930 . S
N581 Co561 2.194 . S
N581 C576 1.328 . S
N581 C580 1.315 . S
H582 C576 0.929 . S
H583 C580 0.930 . S
H584 C572 0.929 . S
H585 C574 0.929 . S
O586 Co561 2.351 . S
O586 C589 1.244 . S
O587 Co561 2.155 . S
O587 C589 1.240 . S
O588 Co561 2.096 . S
O588 C569 1.247 . S
C589 O586 1.244 . S
C589 O587 1.240 . S
H590 C564 0.931 . S
H591 C573 0.931 . S
H592 C577 0.929 . S
H593 C579 0.930 . S
Co594 N598 2.148 . S
Co594 N604 2.128 1_554 S
Co594 N614 2.194 . S
Co594 O619 2.351 . S
Co594 O620 2.155 . S
Co594 O621 2.096 . S
C595 N598 1.301 . S
C595 N599 1.328 . S
C595 H600 0.930 . S
C596 C597 1.333 . S
C596 N598 1.317 . S
C596 H601 0.930 . S
C597 C596 1.333 . S
C597 N599 1.350 . S
C597 H623 0.931 . S
N598 Co594 2.148 . S
N598 C595 1.301 . S
N598 C596 1.317 . S
N599 C595 1.328 . S
N599 C597 1.350 . S
H600 C595 0.930 . S
H601 C596 0.930 . S
C602 O603 1.224 . S
C602 O621 1.247 . S
O603 C602 1.224 . S
N604 Co594 2.128 1_556 S
N604 C605 1.355 . S
N604 C607 1.311 . S
C605 N604 1.355 . S
C605 C606 1.363 . S
C605 H617 0.929 . S
C606 C605 1.363 . S
C606 N608 1.375 . S
C606 H624 0.931 . S
C607 N604 1.311 . S
C607 N608 1.347 . S
C607 H618 0.929 . S
N608 C606 1.375 . S
N608 C607 1.347 . S
C609 C612 1.365 . S
C609 N614 1.328 . S
C609 H615 0.929 . S
C610 C611 1.362 . S
C610 C613 1.378 . S
C610 H625 0.929 . S
C611 C610 1.362 . S
C611 C612 1.366 . S
C612 C609 1.365 . S
C612 C611 1.366 . S
C612 H626 0.930 . S
C613 C610 1.378 . S
C613 N614 1.315 . S
C613 H616 0.930 . S
N614 Co594 2.194 . S
N614 C609 1.328 . S
N614 C613 1.315 . S
H615 C609 0.929 . S
H616 C613 0.930 . S
H617 C605 0.929 . S
H618 C607 0.929 . S
O619 Co594 2.351 . S
O619 C622 1.244 . S
O620 Co594 2.155 . S
O620 C622 1.240 . S
O621 Co594 2.096 . S
O621 C602 1.247 . S
C622 O619 1.244 . S
C622 O620 1.240 . S
H623 C597 0.931 . S
H624 C606 0.931 . S
H625 C610 0.929 . S
H626 C612 0.930 . S
Co627 N631 2.148 . S
Co627 N637 2.128 1_554 S
Co627 N647 2.194 . S
Co627 O652 2.351 . S
Co627 O653 2.155 . S
Co627 O654 2.096 . S
C628 N631 1.301 . S
C628 N632 1.328 . S
C628 H633 0.930 . S
C629 C630 1.333 . S
C629 N631 1.317 . S
C629 H634 0.930 . S
C630 C629 1.333 . S
C630 N632 1.350 . S
C630 H656 0.931 . S
N631 Co627 2.148 . S
N631 C628 1.301 . S
N631 C629 1.317 . S
N632 C628 1.328 . S
N632 C630 1.350 . S
H633 C628 0.930 . S
H634 C629 0.930 . S
C635 O636 1.224 . S
C635 O654 1.247 . S
O636 C635 1.224 . S
N637 Co627 2.128 1_556 S
N637 C638 1.355 . S
N637 C640 1.311 . S
C638 N637 1.355 . S
C638 C639 1.363 . S
C638 H650 0.929 . S
C639 C638 1.363 . S
C639 N641 1.375 . S
C639 H657 0.931 . S
C640 N637 1.311 . S
C640 N641 1.347 . S
C640 H651 0.929 . S
N641 C639 1.375 . S
N641 C640 1.347 . S
C642 C645 1.365 . S
C642 N647 1.328 . S
C642 H648 0.929 . S
C643 C644 1.362 . S
C643 C646 1.378 . S
C643 H658 0.929 . S
C644 C643 1.362 . S
C644 C645 1.366 . S
C645 C642 1.365 . S
C645 C644 1.366 . S
C645 H659 0.930 . S
C646 C643 1.378 . S
C646 N647 1.315 . S
C646 H649 0.930 . S
N647 Co627 2.194 . S
N647 C642 1.328 . S
N647 C646 1.315 . S
H648 C642 0.929 . S
H649 C646 0.930 . S
H650 C638 0.929 . S
H651 C640 0.929 . S
O652 Co627 2.351 . S
O652 C655 1.244 . S
O653 Co627 2.155 . S
O653 C655 1.240 . S
O654 Co627 2.096 . S
O654 C635 1.247 . S
C655 O652 1.244 . S
C655 O653 1.240 . S
H656 C630 0.931 . S
H657 C639 0.931 . S
H658 C643 0.929 . S
H659 C645 0.930 . S
Co660 N664 2.148 . S
Co660 N670 2.128 1_554 S
Co660 N680 2.194 . S
Co660 O685 2.351 . S
Co660 O686 2.155 . S
Co660 O687 2.096 . S
C661 N664 1.301 . S
C661 N665 1.328 . S
C661 H666 0.930 . S
C662 C663 1.333 . S
C662 N664 1.317 . S
C662 H667 0.930 . S
C663 C662 1.333 . S
C663 N665 1.350 . S
C663 H689 0.931 . S
N664 Co660 2.148 . S
N664 C661 1.301 . S
N664 C662 1.317 . S
N665 C661 1.328 . S
N665 C663 1.350 . S
H666 C661 0.930 . S
H667 C662 0.930 . S
C668 O669 1.224 . S
C668 O687 1.247 . S
O669 C668 1.224 . S
N670 Co660 2.128 1_556 S
N670 C671 1.355 . S
N670 C673 1.311 . S
C671 N670 1.355 . S
C671 C672 1.363 . S
C671 H683 0.929 . S
C672 C671 1.363 . S
C672 N674 1.375 . S
C672 H690 0.931 . S
C673 N670 1.311 . S
C673 N674 1.347 . S
C673 H684 0.929 . S
N674 C672 1.375 . S
N674 C673 1.347 . S
C675 C678 1.365 . S
C675 N680 1.328 . S
C675 H681 0.929 . S
C676 C677 1.362 . S
C676 C679 1.378 . S
C676 H691 0.929 . S
C677 C676 1.362 . S
C677 C678 1.366 . S
C678 C675 1.365 . S
C678 C677 1.366 . S
C678 H692 0.930 . S
C679 C676 1.378 . S
C679 N680 1.315 . S
C679 H682 0.930 . S
N680 Co660 2.194 . S
N680 C675 1.328 . S
N680 C679 1.315 . S
H681 C675 0.929 . S
H682 C679 0.930 . S
H683 C671 0.929 . S
H684 C673 0.929 . S
O685 Co660 2.351 . S
O685 C688 1.244 . S
O686 Co660 2.155 . S
O686 C688 1.240 . S
O687 Co660 2.096 . S
O687 C668 1.247 . S
C688 O685 1.244 . S
C688 O686 1.240 . S
H689 C663 0.931 . S
H690 C672 0.931 . S
H691 C676 0.929 . S
H692 C678 0.930 . S
Co693 N697 2.148 . S
Co693 N703 2.128 . S
Co693 N713 2.194 . S
Co693 O718 2.351 . S
Co693 O719 2.155 . S
Co693 O720 2.096 . S
C694 N697 1.301 . S
C694 N698 1.328 . S
C694 H699 0.930 . S
C695 C696 1.333 . S
C695 N697 1.317 . S
C695 H700 0.930 . S
C696 C695 1.333 . S
C696 N698 1.350 . S
C696 H722 0.931 . S
N697 Co693 2.148 . S
N697 C694 1.301 . S
N697 C695 1.317 . S
N698 C694 1.328 . S
N698 C696 1.350 . S
H699 C694 0.930 . S
H700 C695 0.930 . S
C701 O702 1.224 . S
C701 O720 1.247 . S
O702 C701 1.224 . S
N703 Co693 2.128 . S
N703 C704 1.355 . S
N703 C706 1.311 . S
C704 N703 1.355 . S
C704 C705 1.363 . S
C704 H716 0.929 . S
C705 C704 1.363 . S
C705 N707 1.375 . S
C705 H723 0.931 . S
C706 N703 1.311 . S
C706 N707 1.347 . S
C706 H717 0.929 . S
N707 C705 1.375 . S
N707 C706 1.347 . S
C708 C711 1.365 . S
C708 N713 1.328 . S
C708 H714 0.929 . S
C709 C710 1.362 . S
C709 C712 1.378 . S
C709 H724 0.929 . S
C710 C709 1.362 . S
C710 C711 1.366 . S
C711 C708 1.365 . S
C711 C710 1.366 . S
C711 H725 0.930 . S
C712 C709 1.378 . S
C712 N713 1.315 . S
C712 H715 0.930 . S
N713 Co693 2.194 . S
N713 C708 1.328 . S
N713 C712 1.315 . S
H714 C708 0.929 . S
H715 C712 0.930 . S
H716 C704 0.929 . S
H717 C706 0.929 . S
O718 Co693 2.351 . S
O718 C721 1.244 . S
O719 Co693 2.155 . S
O719 C721 1.240 . S
O720 Co693 2.096 . S
O720 C701 1.247 . S
C721 O718 1.244 . S
C721 O719 1.240 . S
H722 C696 0.931 . S
H723 C705 0.931 . S
H724 C709 0.929 . S
H725 C711 0.930 . S
Co726 N730 2.148 . S
Co726 N736 2.128 . S
Co726 N746 2.194 . S
Co726 O751 2.351 . S
Co726 O752 2.155 . S
Co726 O753 2.096 . S
C727 N730 1.301 . S
C727 N731 1.328 . S
C727 H732 0.930 . S
C728 C729 1.333 . S
C728 N730 1.317 . S
C728 H733 0.930 . S
C729 C728 1.333 . S
C729 N731 1.350 . S
C729 H755 0.931 . S
N730 Co726 2.148 . S
N730 C727 1.301 . S
N730 C728 1.317 . S
N731 C727 1.328 . S
N731 C729 1.350 . S
H732 C727 0.930 . S
H733 C728 0.930 . S
C734 O735 1.224 . S
C734 O753 1.247 . S
O735 C734 1.224 . S
N736 Co726 2.128 . S
N736 C737 1.355 . S
N736 C739 1.311 . S
C737 N736 1.355 . S
C737 C738 1.363 . S
C737 H749 0.929 . S
C738 C737 1.363 . S
C738 N740 1.375 . S
C738 H756 0.931 . S
C739 N736 1.311 . S
C739 N740 1.347 . S
C739 H750 0.929 . S
N740 C738 1.375 . S
N740 C739 1.347 . S
C741 C744 1.365 . S
C741 N746 1.328 . S
C741 H747 0.929 . S
C742 C743 1.362 . S
C742 C745 1.378 . S
C742 H757 0.929 . S
C743 C742 1.362 . S
C743 C744 1.366 . S
C744 C741 1.365 . S
C744 C743 1.366 . S
C744 H758 0.930 . S
C745 C742 1.378 . S
C745 N746 1.315 . S
C745 H748 0.930 . S
N746 Co726 2.194 . S
N746 C741 1.328 . S
N746 C745 1.315 . S
H747 C741 0.929 . S
H748 C745 0.930 . S
H749 C737 0.929 . S
H750 C739 0.929 . S
O751 Co726 2.351 . S
O751 C754 1.244 . S
O752 Co726 2.155 . S
O752 C754 1.240 . S
O753 Co726 2.096 . S
O753 C734 1.247 . S
C754 O751 1.244 . S
C754 O752 1.240 . S
H755 C729 0.931 . S
H756 C738 0.931 . S
H757 C742 0.929 . S
H758 C744 0.930 . S
Co759 N763 2.148 . S
Co759 N769 2.128 . S
Co759 N779 2.194 . S
Co759 O784 2.351 . S
Co759 O785 2.155 . S
Co759 O786 2.096 . S
C760 N763 1.301 . S
C760 N764 1.328 . S
C760 H765 0.930 . S
C761 C762 1.333 . S
C761 N763 1.317 . S
C761 H766 0.930 . S
C762 C761 1.333 . S
C762 N764 1.350 . S
C762 H788 0.931 . S
N763 Co759 2.148 . S
N763 C760 1.301 . S
N763 C761 1.317 . S
N764 C760 1.328 . S
N764 C762 1.350 . S
H765 C760 0.930 . S
H766 C761 0.930 . S
C767 O768 1.224 . S
C767 O786 1.247 . S
O768 C767 1.224 . S
N769 Co759 2.128 . S
N769 C770 1.355 . S
N769 C772 1.311 . S
C770 N769 1.355 . S
C770 C771 1.363 . S
C770 H782 0.929 . S
C771 C770 1.363 . S
C771 N773 1.375 . S
C771 H789 0.931 . S
C772 N769 1.311 . S
C772 N773 1.347 . S
C772 H783 0.929 . S
N773 C771 1.375 . S
N773 C772 1.347 . S
C774 C777 1.365 . S
C774 N779 1.328 . S
C774 H780 0.929 . S
C775 C776 1.362 . S
C775 C778 1.378 . S
C775 H790 0.929 . S
C776 C775 1.362 . S
C776 C777 1.366 . S
C777 C774 1.365 . S
C777 C776 1.366 . S
C777 H791 0.930 . S
C778 C775 1.378 . S
C778 N779 1.315 . S
C778 H781 0.930 . S
N779 Co759 2.194 . S
N779 C774 1.328 . S
N779 C778 1.315 . S
H780 C774 0.929 . S
H781 C778 0.930 . S
H782 C770 0.929 . S
H783 C772 0.929 . S
O784 Co759 2.351 . S
O784 C787 1.244 . S
O785 Co759 2.155 . S
O785 C787 1.240 . S
O786 Co759 2.096 . S
O786 C767 1.247 . S
C787 O784 1.244 . S
C787 O785 1.240 . S
H788 C762 0.931 . S
H789 C771 0.931 . S
H790 C775 0.929 . S
H791 C777 0.930 . S
Co792 N796 2.148 . S
Co792 N802 2.128 1_556 S
Co792 N812 2.194 . S
Co792 O817 2.351 . S
Co792 O818 2.155 . S
Co792 O819 2.096 . S
C793 N796 1.301 . S
C793 N797 1.328 . S
C793 H798 0.930 . S
C794 C795 1.333 . S
C794 N796 1.317 . S
C794 H799 0.930 . S
C795 C794 1.333 . S
C795 N797 1.350 . S
C795 H821 0.931 . S
N796 Co792 2.148 . S
N796 C793 1.301 . S
N796 C794 1.317 . S
N797 C793 1.328 . S
N797 C795 1.350 . S
H798 C793 0.930 . S
H799 C794 0.930 . S
C800 O801 1.224 . S
C800 O819 1.247 . S
O801 C800 1.224 . S
N802 Co792 2.128 1_554 S
N802 C803 1.355 . S
N802 C805 1.311 . S
C803 N802 1.355 . S
C803 C804 1.363 . S
C803 H815 0.929 . S
C804 C803 1.363 . S
C804 N806 1.375 . S
C804 H822 0.931 . S
C805 N802 1.311 . S
C805 N806 1.347 . S
C805 H816 0.929 . S
N806 C804 1.375 . S
N806 C805 1.347 . S
C807 C810 1.365 . S
C807 N812 1.328 . S
C807 H813 0.929 . S
C808 C809 1.362 . S
C808 C811 1.378 . S
C808 H823 0.929 . S
C809 C808 1.362 . S
C809 C810 1.366 . S
C810 C807 1.365 . S
C810 C809 1.366 . S
C810 H824 0.930 . S
C811 C808 1.378 . S
C811 N812 1.315 . S
C811 H814 0.930 . S
N812 Co792 2.194 . S
N812 C807 1.328 . S
N812 C811 1.315 . S
H813 C807 0.929 . S
H814 C811 0.930 . S
H815 C803 0.929 . S
H816 C805 0.929 . S
O817 Co792 2.351 . S
O817 C820 1.244 . S
O818 Co792 2.155 . S
O818 C820 1.240 . S
O819 Co792 2.096 . S
O819 C800 1.247 . S
C820 O817 1.244 . S
C820 O818 1.240 . S
H821 C795 0.931 . S
H822 C804 0.931 . S
H823 C808 0.929 . S
H824 C810 0.930 . S
Co825 N829 2.148 . S
Co825 N835 2.128 1_556 S
Co825 N845 2.194 . S
Co825 O850 2.351 . S
Co825 O851 2.155 . S
Co825 O852 2.096 . S
C826 N829 1.301 . S
C826 N830 1.328 . S
C826 H831 0.930 . S
C827 C828 1.333 . S
C827 N829 1.317 . S
C827 H832 0.930 . S
C828 C827 1.333 . S
C828 N830 1.350 . S
C828 H854 0.931 . S
N829 Co825 2.148 . S
N829 C826 1.301 . S
N829 C827 1.317 . S
N830 C826 1.328 . S
N830 C828 1.350 . S
H831 C826 0.930 . S
H832 C827 0.930 . S
C833 O834 1.224 . S
C833 O852 1.247 . S
O834 C833 1.224 . S
N835 Co825 2.128 1_554 S
N835 C836 1.355 . S
N835 C838 1.311 . S
C836 N835 1.355 . S
C836 C837 1.363 . S
C836 H848 0.929 . S
C837 C836 1.363 . S
C837 N839 1.375 . S
C837 H855 0.931 . S
C838 N835 1.311 . S
C838 N839 1.347 . S
C838 H849 0.929 . S
N839 C837 1.375 . S
N839 C838 1.347 . S
C840 C843 1.365 . S
C840 N845 1.328 . S
C840 H846 0.929 . S
C841 C842 1.362 . S
C841 C844 1.378 . S
C841 H856 0.929 . S
C842 C841 1.362 . S
C842 C843 1.366 . S
C843 C840 1.365 . S
C843 C842 1.366 . S
C843 H857 0.930 . S
C844 C841 1.378 . S
C844 N845 1.315 . S
C844 H847 0.930 . S
N845 Co825 2.194 . S
N845 C840 1.328 . S
N845 C844 1.315 . S
H846 C840 0.929 . S
H847 C844 0.930 . S
H848 C836 0.929 . S
H849 C838 0.929 . S
O850 Co825 2.351 . S
O850 C853 1.244 . S
O851 Co825 2.155 . S
O851 C853 1.240 . S
O852 Co825 2.096 . S
O852 C833 1.247 . S
C853 O850 1.244 . S
C853 O851 1.240 . S
H854 C828 0.931 . S
H855 C837 0.931 . S
H856 C841 0.929 . S
H857 C843 0.930 . S
Co858 N862 2.148 . S
Co858 N868 2.128 1_556 S
Co858 N878 2.194 . S
Co858 O883 2.351 . S
Co858 O884 2.155 . S
Co858 O885 2.096 . S
C859 N862 1.301 . S
C859 N863 1.328 . S
C859 H864 0.930 . S
C860 C861 1.333 . S
C860 N862 1.317 . S
C860 H865 0.930 . S
C861 C860 1.333 . S
C861 N863 1.350 . S
C861 H887 0.931 . S
N862 Co858 2.148 . S
N862 C859 1.301 . S
N862 C860 1.317 . S
N863 C859 1.328 . S
N863 C861 1.350 . S
H864 C859 0.930 . S
H865 C860 0.930 . S
C866 O867 1.224 . S
C866 O885 1.247 . S
O867 C866 1.224 . S
N868 Co858 2.128 1_554 S
N868 C869 1.355 . S
N868 C871 1.311 . S
C869 N868 1.355 . S
C869 C870 1.363 . S
C869 H881 0.929 . S
C870 C869 1.363 . S
C870 N872 1.375 . S
C870 H888 0.931 . S
C871 N868 1.311 . S
C871 N872 1.347 . S
C871 H882 0.929 . S
N872 C870 1.375 . S
N872 C871 1.347 . S
C873 C876 1.365 . S
C873 N878 1.328 . S
C873 H879 0.929 . S
C874 C875 1.362 . S
C874 C877 1.378 . S
C874 H889 0.929 . S
C875 C874 1.362 . S
C875 C876 1.366 . S
C876 C873 1.365 . S
C876 C875 1.366 . S
C876 H890 0.930 . S
C877 C874 1.378 . S
C877 N878 1.315 . S
C877 H880 0.930 . S
N878 Co858 2.194 . S
N878 C873 1.328 . S
N878 C877 1.315 . S
H879 C873 0.929 . S
H880 C877 0.930 . S
H881 C869 0.929 . S
H882 C871 0.929 . S
O883 Co858 2.351 . S
O883 C886 1.244 . S
O884 Co858 2.155 . S
O884 C886 1.240 . S
O885 Co858 2.096 . S
O885 C866 1.247 . S
C886 O883 1.244 . S
C886 O884 1.240 . S
H887 C861 0.931 . S
H888 C870 0.931 . S
H889 C874 0.929 . S
H890 C876 0.930 . S
Co891 N895 2.148 . S
Co891 N901 2.128 . S
Co891 N911 2.194 . S
Co891 O916 2.351 . S
Co891 O917 2.155 . S
Co891 O918 2.096 . S
C892 N895 1.301 . S
C892 N896 1.328 . S
C892 H897 0.930 . S
C893 C894 1.333 . S
C893 N895 1.317 . S
C893 H898 0.930 . S
C894 C893 1.333 . S
C894 N896 1.350 . S
C894 H920 0.931 . S
N895 Co891 2.148 . S
N895 C892 1.301 . S
N895 C893 1.317 . S
N896 C892 1.328 . S
N896 C894 1.350 . S
H897 C892 0.930 . S
H898 C893 0.930 . S
C899 O900 1.224 . S
C899 O918 1.247 . S
O900 C899 1.224 . S
N901 Co891 2.128 . S
N901 C902 1.355 . S
N901 C904 1.311 . S
C902 N901 1.355 . S
C902 C903 1.363 . S
C902 H914 0.929 . S
C903 C902 1.363 . S
C903 N905 1.375 . S
C903 H921 0.931 . S
C904 N901 1.311 . S
C904 N905 1.347 . S
C904 H915 0.929 . S
N905 C903 1.375 . S
N905 C904 1.347 . S
C906 C909 1.365 . S
C906 N911 1.328 . S
C906 H912 0.929 . S
C907 C908 1.362 . S
C907 C910 1.378 . S
C907 H922 0.929 . S
C908 C907 1.362 . S
C908 C909 1.366 . S
C909 C906 1.365 . S
C909 C908 1.366 . S
C909 H923 0.930 . S
C910 C907 1.378 . S
C910 N911 1.315 . S
C910 H913 0.930 . S
N911 Co891 2.194 . S
N911 C906 1.328 . S
N911 C910 1.315 . S
H912 C906 0.929 . S
H913 C910 0.930 . S
H914 C902 0.929 . S
H915 C904 0.929 . S
O916 Co891 2.351 . S
O916 C919 1.244 . S
O917 Co891 2.155 . S
O917 C919 1.240 . S
O918 Co891 2.096 . S
O918 C899 1.247 . S
C919 O916 1.244 . S
C919 O917 1.240 . S
H920 C894 0.931 . S
H921 C903 0.931 . S
H922 C907 0.929 . S
H923 C909 0.930 . S
Co924 N928 2.148 . S
Co924 N934 2.128 . S
Co924 N944 2.194 . S
Co924 O949 2.351 . S
Co924 O950 2.155 . S
Co924 O951 2.096 . S
C925 N928 1.301 . S
C925 N929 1.328 . S
C925 H930 0.930 . S
C926 C927 1.333 . S
C926 N928 1.317 . S
C926 H931 0.930 . S
C927 C926 1.333 . S
C927 N929 1.350 . S
C927 H953 0.931 . S
N928 Co924 2.148 . S
N928 C925 1.301 . S
N928 C926 1.317 . S
N929 C925 1.328 . S
N929 C927 1.350 . S
H930 C925 0.930 . S
H931 C926 0.930 . S
C932 O933 1.224 . S
C932 O951 1.247 . S
O933 C932 1.224 . S
N934 Co924 2.128 . S
N934 C935 1.355 . S
N934 C937 1.311 . S
C935 N934 1.355 . S
C935 C936 1.363 . S
C935 H947 0.929 . S
C936 C935 1.363 . S
C936 N938 1.375 . S
C936 H954 0.931 . S
C937 N934 1.311 . S
C937 N938 1.347 . S
C937 H948 0.929 . S
N938 C936 1.375 . S
N938 C937 1.347 . S
C939 C942 1.365 . S
C939 N944 1.328 . S
C939 H945 0.929 . S
C940 C941 1.362 . S
C940 C943 1.378 . S
C940 H955 0.929 . S
C941 C940 1.362 . S
C941 C942 1.366 . S
C942 C939 1.365 . S
C942 C941 1.366 . S
C942 H956 0.930 . S
C943 C940 1.378 . S
C943 N944 1.315 . S
C943 H946 0.930 . S
N944 Co924 2.194 . S
N944 C939 1.328 . S
N944 C943 1.315 . S
H945 C939 0.929 . S
H946 C943 0.930 . S
H947 C935 0.929 . S
H948 C937 0.929 . S
O949 Co924 2.351 . S
O949 C952 1.244 . S
O950 Co924 2.155 . S
O950 C952 1.240 . S
O951 Co924 2.096 . S
O951 C932 1.247 . S
C952 O949 1.244 . S
C952 O950 1.240 . S
H953 C927 0.931 . S
H954 C936 0.931 . S
H955 C940 0.929 . S
H956 C942 0.930 . S
Co957 N961 2.148 . S
Co957 N967 2.128 . S
Co957 N977 2.194 . S
Co957 O982 2.351 . S
Co957 O983 2.155 . S
Co957 O984 2.096 . S
C958 N961 1.301 . S
C958 N962 1.328 . S
C958 H963 0.930 . S
C959 C960 1.333 . S
C959 N961 1.317 . S
C959 H964 0.930 . S
C960 C959 1.333 . S
C960 N962 1.350 . S
C960 H986 0.931 . S
N961 Co957 2.148 . S
N961 C958 1.301 . S
N961 C959 1.317 . S
N962 C958 1.328 . S
N962 C960 1.350 . S
H963 C958 0.930 . S
H964 C959 0.930 . S
C965 O966 1.224 . S
C965 O984 1.247 . S
O966 C965 1.224 . S
N967 Co957 2.128 . S
N967 C968 1.355 . S
N967 C970 1.311 . S
C968 N967 1.355 . S
C968 C969 1.363 . S
C968 H980 0.929 . S
C969 C968 1.363 . S
C969 N971 1.375 . S
C969 H987 0.931 . S
C970 N967 1.311 . S
C970 N971 1.347 . S
C970 H981 0.929 . S
N971 C969 1.375 . S
N971 C970 1.347 . S
C972 C975 1.365 . S
C972 N977 1.328 . S
C972 H978 0.929 . S
C973 C974 1.362 . S
C973 C976 1.378 . S
C973 H988 0.929 . S
C974 C973 1.362 . S
C974 C975 1.366 . S
C975 C972 1.365 . S
C975 C974 1.366 . S
C975 H989 0.930 . S
C976 C973 1.378 . S
C976 N977 1.315 . S
C976 H979 0.930 . S
N977 Co957 2.194 . S
N977 C972 1.328 . S
N977 C976 1.315 . S
H978 C972 0.929 . S
H979 C976 0.930 . S
H980 C968 0.929 . S
H981 C970 0.929 . S
O982 Co957 2.351 . S
O982 C985 1.244 . S
O983 Co957 2.155 . S
O983 C985 1.240 . S
O984 Co957 2.096 . S
O984 C965 1.247 . S
C985 O982 1.244 . S
C985 O983 1.240 . S
H986 C960 0.931 . S
H987 C969 0.931 . S
H988 C973 0.929 . S
H989 C975 0.930 . S
Co990 N994 2.148 . S
Co990 N1000 2.128 . S
Co990 N1010 2.194 . S
Co990 O1015 2.351 . S
Co990 O1016 2.155 . S
Co990 O1017 2.096 . S
C991 N994 1.301 . S
C991 N995 1.328 . S
C991 H996 0.930 . S
C992 C993 1.333 . S
C992 N994 1.317 . S
C992 H997 0.930 . S
C993 C992 1.333 . S
C993 N995 1.350 . S
C993 H1019 0.931 . S
N994 Co990 2.148 . S
N994 C991 1.301 . S
N994 C992 1.317 . S
N995 C991 1.328 . S
N995 C993 1.350 . S
H996 C991 0.930 . S
H997 C992 0.930 . S
C998 O999 1.224 . S
C998 O1017 1.247 . S
O999 C998 1.224 . S
N1000 Co990 2.128 . S
N1000 C1001 1.355 . S
N1000 C1003 1.311 . S
C1001 N1000 1.355 . S
C1001 C1002 1.363 . S
C1001 H1013 0.929 . S
C1002 C1001 1.363 . S
C1002 N1004 1.375 . S
C1002 H1020 0.931 . S
C1003 N1000 1.311 . S
C1003 N1004 1.347 . S
C1003 H1014 0.929 . S
N1004 C1002 1.375 . S
N1004 C1003 1.347 . S
C1005 C1008 1.365 . S
C1005 N1010 1.328 . S
C1005 H1011 0.929 . S
C1006 C1007 1.362 . S
C1006 C1009 1.378 . S
C1006 H1021 0.929 . S
C1007 C1006 1.362 . S
C1007 C1008 1.366 . S
C1008 C1005 1.365 . S
C1008 C1007 1.366 . S
C1008 H1022 0.930 . S
C1009 C1006 1.378 . S
C1009 N1010 1.315 . S
C1009 H1012 0.930 . S
N1010 Co990 2.194 . S
N1010 C1005 1.328 . S
N1010 C1009 1.315 . S
H1011 C1005 0.929 . S
H1012 C1009 0.930 . S
H1013 C1001 0.929 . S
H1014 C1003 0.929 . S
O1015 Co990 2.351 . S
O1015 C1018 1.244 . S
O1016 Co990 2.155 . S
O1016 C1018 1.240 . S
O1017 Co990 2.096 . S
O1017 C998 1.247 . S
C1018 O1015 1.244 . S
C1018 O1016 1.240 . S
H1019 C993 0.931 . S
H1020 C1002 0.931 . S
H1021 C1006 0.929 . S
H1022 C1008 0.930 . S
Co1023 N1027 2.148 . S
Co1023 N1033 2.128 . S
Co1023 N1043 2.194 . S
Co1023 O1048 2.351 . S
Co1023 O1049 2.155 . S
Co1023 O1050 2.096 . S
C1024 N1027 1.301 . S
C1024 N1028 1.328 . S
C1024 H1029 0.930 . S
C1025 C1026 1.333 . S
C1025 N1027 1.317 . S
C1025 H1030 0.930 . S
C1026 C1025 1.333 . S
C1026 N1028 1.350 . S
C1026 H1052 0.931 . S
N1027 Co1023 2.148 . S
N1027 C1024 1.301 . S
N1027 C1025 1.317 . S
N1028 C1024 1.328 . S
N1028 C1026 1.350 . S
H1029 C1024 0.930 . S
H1030 C1025 0.930 . S
C1031 O1032 1.224 . S
C1031 O1050 1.247 . S
O1032 C1031 1.224 . S
N1033 Co1023 2.128 . S
N1033 C1034 1.355 . S
N1033 C1036 1.311 . S
C1034 N1033 1.355 . S
C1034 C1035 1.363 . S
C1034 H1046 0.929 . S
C1035 C1034 1.363 . S
C1035 N1037 1.375 . S
C1035 H1053 0.931 . S
C1036 N1033 1.311 . S
C1036 N1037 1.347 . S
C1036 H1047 0.929 . S
N1037 C1035 1.375 . S
N1037 C1036 1.347 . S
C1038 C1041 1.365 . S
C1038 N1043 1.328 . S
C1038 H1044 0.929 . S
C1039 C1040 1.362 . S
C1039 C1042 1.378 . S
C1039 H1054 0.929 . S
C1040 C1039 1.362 . S
C1040 C1041 1.366 . S
C1041 C1038 1.365 . S
C1041 C1040 1.366 . S
C1041 H1055 0.930 . S
C1042 C1039 1.378 . S
C1042 N1043 1.315 . S
C1042 H1045 0.930 . S
N1043 Co1023 2.194 . S
N1043 C1038 1.328 . S
N1043 C1042 1.315 . S
H1044 C1038 0.929 . S
H1045 C1042 0.930 . S
H1046 C1034 0.929 . S
H1047 C1036 0.929 . S
O1048 Co1023 2.351 . S
O1048 C1051 1.244 . S
O1049 Co1023 2.155 . S
O1049 C1051 1.240 . S
O1050 Co1023 2.096 . S
O1050 C1031 1.247 . S
C1051 O1048 1.244 . S
C1051 O1049 1.240 . S
H1052 C1026 0.931 . S
H1053 C1035 0.931 . S
H1054 C1039 0.929 . S
H1055 C1041 0.930 . S
Co1056 N1060 2.148 . S
Co1056 N1066 2.128 . S
Co1056 N1076 2.194 . S
Co1056 O1081 2.351 . S
Co1056 O1082 2.155 . S
Co1056 O1083 2.096 . S
C1057 N1060 1.301 . S
C1057 N1061 1.328 . S
C1057 H1062 0.930 . S
C1058 C1059 1.333 . S
C1058 N1060 1.317 . S
C1058 H1063 0.930 . S
C1059 C1058 1.333 . S
C1059 N1061 1.350 . S
C1059 H1085 0.931 . S
N1060 Co1056 2.148 . S
N1060 C1057 1.301 . S
N1060 C1058 1.317 . S
N1061 C1057 1.328 . S
N1061 C1059 1.350 . S
H1062 C1057 0.930 . S
H1063 C1058 0.930 . S
C1064 O1065 1.224 . S
C1064 O1083 1.247 . S
O1065 C1064 1.224 . S
N1066 Co1056 2.128 . S
N1066 C1067 1.355 . S
N1066 C1069 1.311 . S
C1067 N1066 1.355 . S
C1067 C1068 1.363 . S
C1067 H1079 0.929 . S
C1068 C1067 1.363 . S
C1068 N1070 1.375 . S
C1068 H1086 0.931 . S
C1069 N1066 1.311 . S
C1069 N1070 1.347 . S
C1069 H1080 0.929 . S
N1070 C1068 1.375 . S
N1070 C1069 1.347 . S
C1071 C1074 1.365 . S
C1071 N1076 1.328 . S
C1071 H1077 0.929 . S
C1072 C1073 1.362 . S
C1072 C1075 1.378 . S
C1072 H1087 0.929 . S
C1073 C1072 1.362 . S
C1073 C1074 1.366 . S
C1074 C1071 1.365 . S
C1074 C1073 1.366 . S
C1074 H1088 0.930 . S
C1075 C1072 1.378 . S
C1075 N1076 1.315 . S
C1075 H1078 0.930 . S
N1076 Co1056 2.194 . S
N1076 C1071 1.328 . S
N1076 C1075 1.315 . S
H1077 C1071 0.929 . S
H1078 C1075 0.930 . S
H1079 C1067 0.929 . S
H1080 C1069 0.929 . S
O1081 Co1056 2.351 . S
O1081 C1084 1.244 . S
O1082 Co1056 2.155 . S
O1082 C1084 1.240 . S
O1083 Co1056 2.096 . S
O1083 C1064 1.247 . S
C1084 O1081 1.244 . S
C1084 O1082 1.240 . S
H1085 C1059 0.931 . S
H1086 C1068 0.931 . S
H1087 C1072 0.929 . S
H1088 C1074 0.930 . S
Co1089 N1093 2.148 . S
Co1089 N1099 2.128 1_556 S
Co1089 N1109 2.194 . S
Co1089 O1114 2.351 . S
Co1089 O1115 2.155 . S
Co1089 O1116 2.096 . S
C1090 N1093 1.301 . S
C1090 N1094 1.328 . S
C1090 H1095 0.930 . S
C1091 C1092 1.333 . S
C1091 N1093 1.317 . S
C1091 H1096 0.930 . S
C1092 C1091 1.333 . S
C1092 N1094 1.350 . S
C1092 H1118 0.931 . S
N1093 Co1089 2.148 . S
N1093 C1090 1.301 . S
N1093 C1091 1.317 . S
N1094 C1090 1.328 . S
N1094 C1092 1.350 . S
H1095 C1090 0.930 . S
H1096 C1091 0.930 . S
C1097 O1098 1.224 . S
C1097 O1116 1.247 . S
O1098 C1097 1.224 . S
N1099 Co1089 2.128 1_554 S
N1099 C1100 1.355 . S
N1099 C1102 1.311 . S
C1100 N1099 1.355 . S
C1100 C1101 1.363 . S
C1100 H1112 0.929 . S
C1101 C1100 1.363 . S
C1101 N1103 1.375 . S
C1101 H1119 0.931 . S
C1102 N1099 1.311 . S
C1102 N1103 1.347 . S
C1102 H1113 0.929 . S
N1103 C1101 1.375 . S
N1103 C1102 1.347 . S
C1104 C1107 1.365 . S
C1104 N1109 1.328 . S
C1104 H1110 0.929 . S
C1105 C1106 1.362 . S
C1105 C1108 1.378 . S
C1105 H1120 0.929 . S
C1106 C1105 1.362 . S
C1106 C1107 1.366 . S
C1107 C1104 1.365 . S
C1107 C1106 1.366 . S
C1107 H1121 0.930 . S
C1108 C1105 1.378 . S
C1108 N1109 1.315 . S
C1108 H1111 0.930 . S
N1109 Co1089 2.194 . S
N1109 C1104 1.328 . S
N1109 C1108 1.315 . S
H1110 C1104 0.929 . S
H1111 C1108 0.930 . S
H1112 C1100 0.929 . S
H1113 C1102 0.929 . S
O1114 Co1089 2.351 . S
O1114 C1117 1.244 . S
O1115 Co1089 2.155 . S
O1115 C1117 1.240 . S
O1116 Co1089 2.096 . S
O1116 C1097 1.247 . S
C1117 O1114 1.244 . S
C1117 O1115 1.240 . S
H1118 C1092 0.931 . S
H1119 C1101 0.931 . S
H1120 C1105 0.929 . S
H1121 C1107 0.930 . S
Co1122 N1126 2.148 . S
Co1122 N1132 2.128 1_556 S
Co1122 N1142 2.194 . S
Co1122 O1147 2.351 . S
Co1122 O1148 2.155 . S
Co1122 O1149 2.096 . S
C1123 N1126 1.301 . S
C1123 N1127 1.328 . S
C1123 H1128 0.930 . S
C1124 C1125 1.333 . S
C1124 N1126 1.317 . S
C1124 H1129 0.930 . S
C1125 C1124 1.333 . S
C1125 N1127 1.350 . S
C1125 H1151 0.931 . S
N1126 Co1122 2.148 . S
N1126 C1123 1.301 . S
N1126 C1124 1.317 . S
N1127 C1123 1.328 . S
N1127 C1125 1.350 . S
H1128 C1123 0.930 . S
H1129 C1124 0.930 . S
C1130 O1131 1.224 . S
C1130 O1149 1.247 . S
O1131 C1130 1.224 . S
N1132 Co1122 2.128 1_554 S
N1132 C1133 1.355 . S
N1132 C1135 1.311 . S
C1133 N1132 1.355 . S
C1133 C1134 1.363 . S
C1133 H1145 0.929 . S
C1134 C1133 1.363 . S
C1134 N1136 1.375 . S
C1134 H1152 0.931 . S
C1135 N1132 1.311 . S
C1135 N1136 1.347 . S
C1135 H1146 0.929 . S
N1136 C1134 1.375 . S
N1136 C1135 1.347 . S
C1137 C1140 1.365 . S
C1137 N1142 1.328 . S
C1137 H1143 0.929 . S
C1138 C1139 1.362 . S
C1138 C1141 1.378 . S
C1138 H1153 0.929 . S
C1139 C1138 1.362 . S
C1139 C1140 1.366 . S
C1140 C1137 1.365 . S
C1140 C1139 1.366 . S
C1140 H1154 0.930 . S
C1141 C1138 1.378 . S
C1141 N1142 1.315 . S
C1141 H1144 0.930 . S
N1142 Co1122 2.194 . S
N1142 C1137 1.328 . S
N1142 C1141 1.315 . S
H1143 C1137 0.929 . S
H1144 C1141 0.930 . S
H1145 C1133 0.929 . S
H1146 C1135 0.929 . S
O1147 Co1122 2.351 . S
O1147 C1150 1.244 . S
O1148 Co1122 2.155 . S
O1148 C1150 1.240 . S
O1149 Co1122 2.096 . S
O1149 C1130 1.247 . S
C1150 O1147 1.244 . S
C1150 O1148 1.240 . S
H1151 C1125 0.931 . S
H1152 C1134 0.931 . S
H1153 C1138 0.929 . S
H1154 C1140 0.930 . S
Co1155 N1159 2.148 . S
Co1155 N1165 2.128 1_556 S
Co1155 N1175 2.194 . S
Co1155 O1180 2.351 . S
Co1155 O1181 2.155 . S
Co1155 O1182 2.096 . S
C1156 N1159 1.301 . S
C1156 N1160 1.328 . S
C1156 H1161 0.930 . S
C1157 C1158 1.333 . S
C1157 N1159 1.317 . S
C1157 H1162 0.930 . S
C1158 C1157 1.333 . S
C1158 N1160 1.350 . S
C1158 H1184 0.931 . S
N1159 Co1155 2.148 . S
N1159 C1156 1.301 . S
N1159 C1157 1.317 . S
N1160 C1156 1.328 . S
N1160 C1158 1.350 . S
H1161 C1156 0.930 . S
H1162 C1157 0.930 . S
C1163 O1164 1.224 . S
C1163 O1182 1.247 . S
O1164 C1163 1.224 . S
N1165 Co1155 2.128 1_554 S
N1165 C1166 1.355 . S
N1165 C1168 1.311 . S
C1166 N1165 1.355 . S
C1166 C1167 1.363 . S
C1166 H1178 0.929 . S
C1167 C1166 1.363 . S
C1167 N1169 1.375 . S
C1167 H1185 0.931 . S
C1168 N1165 1.311 . S
C1168 N1169 1.347 . S
C1168 H1179 0.929 . S
N1169 C1167 1.375 . S
N1169 C1168 1.347 . S
C1170 C1173 1.365 . S
C1170 N1175 1.328 . S
C1170 H1176 0.929 . S
C1171 C1172 1.362 . S
C1171 C1174 1.378 . S
C1171 H1186 0.929 . S
C1172 C1171 1.362 . S
C1172 C1173 1.366 . S
C1173 C1170 1.365 . S
C1173 C1172 1.366 . S
C1173 H1187 0.930 . S
C1174 C1171 1.378 . S
C1174 N1175 1.315 . S
C1174 H1177 0.930 . S
N1175 Co1155 2.194 . S
N1175 C1170 1.328 . S
N1175 C1174 1.315 . S
H1176 C1170 0.929 . S
H1177 C1174 0.930 . S
H1178 C1166 0.929 . S
H1179 C1168 0.929 . S
O1180 Co1155 2.351 . S
O1180 C1183 1.244 . S
O1181 Co1155 2.155 . S
O1181 C1183 1.240 . S
O1182 Co1155 2.096 . S
O1182 C1163 1.247 . S
C1183 O1180 1.244 . S
C1183 O1181 1.240 . S
H1184 C1158 0.931 . S
H1185 C1167 0.931 . S
H1186 C1171 0.929 . S
H1187 C1173 0.930 . S
H1188 C1196 0.950 . S
H1189 C1201 0.950 . S
H1190 C1198 0.950 . S
H1191 C1200 0.950 . S
H1192 C1202 0.950 . S
H1193 C1204 0.950 . S
H1194 C1206 0.950 . S
H1195 C1207 0.950 . S
C1196 H1188 0.950 . S
C1196 C1197 1.386 . S
C1196 C1198 1.391 . S
C1197 C1196 1.386 . S
C1197 C1201 1.393 . S
C1198 H1190 0.950 . S
C1198 C1196 1.391 . S
C1198 C1199 1.400 . S
C1199 C1198 1.400 . S
C1199 C1200 1.398 . S
C1199 C1205 1.491 . S
C1200 H1191 0.950 . S
C1200 C1199 1.398 . S
C1200 C1201 1.391 . S
C1201 H1189 0.950 . S
C1201 C1197 1.393 . S
C1201 C1200 1.391 . S
C1202 H1192 0.950 . S
C1202 C1203 1.386 . S
C1202 C1204 1.391 . S
C1203 C1202 1.386 . S
C1203 C1207 1.393 . S
C1204 H1193 0.950 . S
C1204 C1202 1.391 . S
C1204 C1205 1.400 . S
C1205 C1199 1.491 . S
C1205 C1204 1.400 . S
C1205 C1206 1.398 . S
C1206 H1194 0.950 . S
C1206 C1205 1.398 . S
C1206 C1207 1.391 . S
C1207 H1195 0.950 . S
C1207 C1203 1.393 . S
C1207 C1206 1.391 . S
H1208 C1216 0.950 . S
H1209 C1221 0.950 . S
H1210 C1218 0.950 . S
H1211 C1220 0.950 . S
H1212 C1222 0.950 . S
H1213 C1224 0.950 . S
H1214 C1226 0.950 . S
H1215 C1227 0.950 . S
C1216 H1208 0.950 . S
C1216 C1217 1.386 . S
C1216 C1218 1.391 . S
C1217 C1216 1.386 . S
C1217 C1221 1.393 . S
C1218 H1210 0.950 . S
C1218 C1216 1.391 . S
C1218 C1219 1.400 . S
C1219 C1218 1.400 . S
C1219 C1220 1.398 . S
C1219 C1225 1.491 . S
C1220 H1211 0.950 . S
C1220 C1219 1.398 . S
C1220 C1221 1.391 . S
C1221 H1209 0.950 . S
C1221 C1217 1.393 . S
C1221 C1220 1.391 . S
C1222 H1212 0.950 . S
C1222 C1223 1.386 . S
C1222 C1224 1.391 . S
C1223 C1222 1.386 . S
C1223 C1227 1.393 . S
C1224 H1213 0.950 . S
C1224 C1222 1.391 . S
C1224 C1225 1.400 . S
C1225 C1219 1.491 . S
C1225 C1224 1.400 . S
C1225 C1226 1.398 . S
C1226 H1214 0.950 . S
C1226 C1225 1.398 . S
C1226 C1227 1.391 . S
C1227 H1215 0.950 . S
C1227 C1223 1.393 . S
C1227 C1226 1.391 . S
H1228 C1236 0.950 . S
H1229 C1241 0.950 . S
H1230 C1238 0.950 . S
H1231 C1240 0.950 . S
H1232 C1242 0.950 . S
H1233 C1244 0.950 . S
H1234 C1246 0.950 . S
H1235 C1247 0.950 . S
C1236 H1228 0.950 . S
C1236 C1237 1.386 . S
C1236 C1238 1.391 . S
C1237 C1236 1.386 . S
C1237 C1241 1.393 . S
C1238 H1230 0.950 . S
C1238 C1236 1.391 . S
C1238 C1239 1.400 . S
C1239 C1238 1.400 . S
C1239 C1240 1.398 . S
C1239 C1245 1.491 . S
C1240 H1231 0.950 . S
C1240 C1239 1.398 . S
C1240 C1241 1.391 . S
C1241 H1229 0.950 . S
C1241 C1237 1.393 . S
C1241 C1240 1.391 . S
C1242 H1232 0.950 . S
C1242 C1243 1.386 . S
C1242 C1244 1.391 . S
C1243 C1242 1.386 . S
C1243 C1247 1.393 . S
C1244 H1233 0.950 . S
C1244 C1242 1.391 . S
C1244 C1245 1.400 . S
C1245 C1239 1.491 . S
C1245 C1244 1.400 . S
C1245 C1246 1.398 . S
C1246 H1234 0.950 . S
C1246 C1245 1.398 . S
C1246 C1247 1.391 . S
C1247 H1235 0.950 . S
C1247 C1243 1.393 . S
C1247 C1246 1.391 . S
H1248 C1256 0.950 . S
H1249 C1261 0.950 . S
H1250 C1258 0.950 . S
H1251 C1260 0.950 . S
H1252 C1262 0.950 . S
H1253 C1264 0.950 . S
H1254 C1266 0.950 . S
H1255 C1267 0.950 . S
C1256 H1248 0.950 . S
C1256 C1257 1.386 . S
C1256 C1258 1.391 . S
C1257 C1256 1.386 . S
C1257 C1261 1.393 . S
C1258 H1250 0.950 . S
C1258 C1256 1.391 . S
C1258 C1259 1.400 . S
C1259 C1258 1.400 . S
C1259 C1260 1.398 . S
C1259 C1265 1.491 . S
C1260 H1251 0.950 . S
C1260 C1259 1.398 . S
C1260 C1261 1.391 . S
C1261 H1249 0.950 . S
C1261 C1257 1.393 . S
C1261 C1260 1.391 . S
C1262 H1252 0.950 . S
C1262 C1263 1.386 . S
C1262 C1264 1.391 . S
C1263 C1262 1.386 . S
C1263 C1267 1.393 . S
C1264 H1253 0.950 . S
C1264 C1262 1.391 . S
C1264 C1265 1.400 . S
C1265 C1259 1.491 . S
C1265 C1264 1.400 . S
C1265 C1266 1.398 . S
C1266 H1254 0.950 . S
C1266 C1265 1.398 . S
C1266 C1267 1.391 . S
C1267 H1255 0.950 . S
C1267 C1263 1.393 . S
C1267 C1266 1.391 . S
H1268 C1276 0.950 . S
H1269 C1281 0.950 . S
H1270 C1278 0.950 . S
H1271 C1280 0.950 . S
H1272 C1282 0.950 . S
H1273 C1284 0.950 . S
H1274 C1286 0.950 . S
H1275 C1287 0.950 . S
C1276 H1268 0.950 . S
C1276 C1277 1.386 . S
C1276 C1278 1.391 . S
C1277 C1276 1.386 . S
C1277 C1281 1.393 . S
C1278 H1270 0.950 . S
C1278 C1276 1.391 . S
C1278 C1279 1.400 . S
C1279 C1278 1.400 . S
C1279 C1280 1.398 . S
C1279 C1285 1.491 . S
C1280 H1271 0.950 . S
C1280 C1279 1.398 . S
C1280 C1281 1.391 . S
C1281 H1269 0.950 . S
C1281 C1277 1.393 . S
C1281 C1280 1.391 . S
C1282 H1272 0.950 . S
C1282 C1283 1.386 . S
C1282 C1284 1.391 . S
C1283 C1282 1.386 . S
C1283 C1287 1.393 . S
C1284 H1273 0.950 . S
C1284 C1282 1.391 . S
C1284 C1285 1.400 . S
C1285 C1279 1.491 . S
C1285 C1284 1.400 . S
C1285 C1286 1.398 . S
C1286 H1274 0.950 . S
C1286 C1285 1.398 . S
C1286 C1287 1.391 . S
C1287 H1275 0.950 . S
C1287 C1283 1.393 . S
C1287 C1286 1.391 . S
H1288 C1296 0.950 . S
H1289 C1301 0.950 . S
H1290 C1298 0.950 . S
H1291 C1300 0.950 . S
H1292 C1302 0.950 . S
H1293 C1304 0.950 . S
H1294 C1306 0.950 . S
H1295 C1307 0.950 . S
C1296 H1288 0.950 . S
C1296 C1297 1.386 . S
C1296 C1298 1.391 . S
C1297 C1296 1.386 . S
C1297 C1301 1.393 . S
C1298 H1290 0.950 . S
C1298 C1296 1.391 . S
C1298 C1299 1.400 . S
C1299 C1298 1.400 . S
C1299 C1300 1.398 . S
C1299 C1305 1.491 . S
C1300 H1291 0.950 . S
C1300 C1299 1.398 . S
C1300 C1301 1.391 . S
C1301 H1289 0.950 . S
C1301 C1297 1.393 . S
C1301 C1300 1.391 . S
C1302 H1292 0.950 . S
C1302 C1303 1.386 . S
C1302 C1304 1.391 . S
C1303 C1302 1.386 . S
C1303 C1307 1.393 . S
C1304 H1293 0.950 . S
C1304 C1302 1.391 . S
C1304 C1305 1.400 . S
C1305 C1299 1.491 . S
C1305 C1304 1.400 . S
C1305 C1306 1.398 . S
C1306 H1294 0.950 . S
C1306 C1305 1.398 . S
C1306 C1307 1.391 . S
C1307 H1295 0.950 . S
C1307 C1303 1.393 . S
C1307 C1306 1.391 . S
H1308 C1316 0.950 . S
H1309 C1321 0.950 . S
H1310 C1318 0.950 . S
H1311 C1320 0.950 . S
H1312 C1322 0.950 . S
H1313 C1324 0.950 . S
H1314 C1326 0.950 . S
H1315 C1327 0.950 . S
C1316 H1308 0.950 . S
C1316 C1317 1.386 . S
C1316 C1318 1.391 . S
C1317 C1316 1.386 . S
C1317 C1321 1.393 . S
C1318 H1310 0.950 . S
C1318 C1316 1.391 . S
C1318 C1319 1.400 . S
C1319 C1318 1.400 . S
C1319 C1320 1.398 . S
C1319 C1325 1.491 . S
C1320 H1311 0.950 . S
C1320 C1319 1.398 . S
C1320 C1321 1.391 . S
C1321 H1309 0.950 . S
C1321 C1317 1.393 . S
C1321 C1320 1.391 . S
C1322 H1312 0.950 . S
C1322 C1323 1.386 . S
C1322 C1324 1.391 . S
C1323 C1322 1.386 . S
C1323 C1327 1.393 . S
C1324 H1313 0.950 . S
C1324 C1322 1.391 . S
C1324 C1325 1.400 . S
C1325 C1319 1.491 . S
C1325 C1324 1.400 . S
C1325 C1326 1.398 . S
C1326 H1314 0.950 . S
C1326 C1325 1.398 . S
C1326 C1327 1.391 . S
C1327 H1315 0.950 . S
C1327 C1323 1.393 . S
C1327 C1326 1.391 . S
H1328 C1336 0.950 . S
H1329 C1341 0.950 . S
H1330 C1338 0.950 . S
H1331 C1340 0.950 . S
H1332 C1342 0.950 . S
H1333 C1344 0.950 . S
H1334 C1346 0.950 . S
H1335 C1347 0.950 . S
C1336 H1328 0.950 . S
C1336 C1337 1.386 . S
C1336 C1338 1.391 . S
C1337 C1336 1.386 . S
C1337 C1341 1.393 . S
C1338 H1330 0.950 . S
C1338 C1336 1.391 . S
C1338 C1339 1.400 . S
C1339 C1338 1.400 . S
C1339 C1340 1.398 . S
C1339 C1345 1.491 . S
C1340 H1331 0.950 . S
C1340 C1339 1.398 . S
C1340 C1341 1.391 . S
C1341 H1329 0.950 . S
C1341 C1337 1.393 . S
C1341 C1340 1.391 . S
C1342 H1332 0.950 . S
C1342 C1343 1.386 . S
C1342 C1344 1.391 . S
C1343 C1342 1.386 . S
C1343 C1347 1.393 . S
C1344 H1333 0.950 . S
C1344 C1342 1.391 . S
C1344 C1345 1.400 . S
C1345 C1339 1.491 . S
C1345 C1344 1.400 . S
C1345 C1346 1.398 . S
C1346 H1334 0.950 . S
C1346 C1345 1.398 . S
C1346 C1347 1.391 . S
C1347 H1335 0.950 . S
C1347 C1343 1.393 . S
C1347 C1346 1.391 . S
H1348 C1356 0.950 . S
H1349 C1361 0.950 . S
H1350 C1358 0.950 . S
H1351 C1360 0.950 . S
H1352 C1362 0.950 . S
H1353 C1364 0.950 . S
H1354 C1366 0.950 . S
H1355 C1367 0.950 . S
C1356 H1348 0.950 . S
C1356 C1357 1.386 . S
C1356 C1358 1.391 . S
C1357 C1356 1.386 . S
C1357 C1361 1.393 . S
C1358 H1350 0.950 . S
C1358 C1356 1.391 . S
C1358 C1359 1.400 . S
C1359 C1358 1.400 . S
C1359 C1360 1.398 . S
C1359 C1365 1.491 . S
C1360 H1351 0.950 . S
C1360 C1359 1.398 . S
C1360 C1361 1.391 . S
C1361 H1349 0.950 . S
C1361 C1357 1.393 . S
C1361 C1360 1.391 . S
C1362 H1352 0.950 . S
C1362 C1363 1.386 . S
C1362 C1364 1.391 . S
C1363 C1362 1.386 . S
C1363 C1367 1.393 . S
C1364 H1353 0.950 . S
C1364 C1362 1.391 . S
C1364 C1365 1.400 . S
C1365 C1359 1.491 . S
C1365 C1364 1.400 . S
C1365 C1366 1.398 . S
C1366 H1354 0.950 . S
C1366 C1365 1.398 . S
C1366 C1367 1.391 . S
C1367 H1355 0.950 . S
C1367 C1363 1.393 . S
C1367 C1366 1.391 . S
H1368 C1376 0.950 . S
H1369 C1381 0.950 . S
H1370 C1378 0.950 . S
H1371 C1380 0.950 . S
H1372 C1382 0.950 . S
H1373 C1384 0.950 . S
H1374 C1386 0.950 . S
H1375 C1387 0.950 . S
C1376 H1368 0.950 . S
C1376 C1377 1.386 . S
C1376 C1378 1.391 . S
C1377 C1376 1.386 . S
C1377 C1381 1.393 . S
C1378 H1370 0.950 . S
C1378 C1376 1.391 . S
C1378 C1379 1.400 . S
C1379 C1378 1.400 . S
C1379 C1380 1.398 . S
C1379 C1385 1.491 . S
C1380 H1371 0.950 . S
C1380 C1379 1.398 . S
C1380 C1381 1.391 . S
C1381 H1369 0.950 . S
C1381 C1377 1.393 . S
C1381 C1380 1.391 . S
C1382 H1372 0.950 . S
C1382 C1383 1.386 . S
C1382 C1384 1.391 . S
C1383 C1382 1.386 . S
C1383 C1387 1.393 . S
C1384 H1373 0.950 . S
C1384 C1382 1.391 . S
C1384 C1385 1.400 . S
C1385 C1379 1.491 . S
C1385 C1384 1.400 . S
C1385 C1386 1.398 . S
C1386 H1374 0.950 . S
C1386 C1385 1.398 . S
C1386 C1387 1.391 . S
C1387 H1375 0.950 . S
C1387 C1383 1.393 . S
C1387 C1386 1.391 . S
H1388 C1396 0.950 . S
H1389 C1401 0.950 . S
H1390 C1398 0.950 . S
H1391 C1400 0.950 . S
H1392 C1402 0.950 . S
H1393 C1404 0.950 . S
H1394 C1406 0.950 . S
H1395 C1407 0.950 . S
C1396 H1388 0.950 . S
C1396 C1397 1.386 . S
C1396 C1398 1.391 . S
C1397 C1396 1.386 . S
C1397 C1401 1.393 . S
C1398 H1390 0.950 . S
C1398 C1396 1.391 . S
C1398 C1399 1.400 . S
C1399 C1398 1.400 . S
C1399 C1400 1.398 . S
C1399 C1405 1.491 . S
C1400 H1391 0.950 . S
C1400 C1399 1.398 . S
C1400 C1401 1.391 . S
C1401 H1389 0.950 . S
C1401 C1397 1.393 . S
C1401 C1400 1.391 . S
C1402 H1392 0.950 . S
C1402 C1403 1.386 . S
C1402 C1404 1.391 . S
C1403 C1402 1.386 . S
C1403 C1407 1.393 . S
C1404 H1393 0.950 . S
C1404 C1402 1.391 . S
C1404 C1405 1.400 . S
C1405 C1399 1.491 . S
C1405 C1404 1.400 . S
C1405 C1406 1.398 . S
C1406 H1394 0.950 . S
C1406 C1405 1.398 . S
C1406 C1407 1.391 . S
C1407 H1395 0.950 . S
C1407 C1403 1.393 . S
C1407 C1406 1.391 . S
H1408 C1416 0.950 . S
H1409 C1421 0.950 . S
H1410 C1418 0.950 . S
H1411 C1420 0.950 . S
H1412 C1422 0.950 . S
H1413 C1424 0.950 . S
H1414 C1426 0.950 . S
H1415 C1427 0.950 . S
C1416 H1408 0.950 . S
C1416 C1417 1.386 . S
C1416 C1418 1.391 . S
C1417 C1416 1.386 . S
C1417 C1421 1.393 . S
C1418 H1410 0.950 . S
C1418 C1416 1.391 . S
C1418 C1419 1.400 . S
C1419 C1418 1.400 . S
C1419 C1420 1.398 . S
C1419 C1425 1.491 . S
C1420 H1411 0.950 . S
C1420 C1419 1.398 . S
C1420 C1421 1.391 . S
C1421 H1409 0.950 . S
C1421 C1417 1.393 . S
C1421 C1420 1.391 . S
C1422 H1412 0.950 . S
C1422 C1423 1.386 . S
C1422 C1424 1.391 . S
C1423 C1422 1.386 . S
C1423 C1427 1.393 . S
C1424 H1413 0.950 . S
C1424 C1422 1.391 . S
C1424 C1425 1.400 . S
C1425 C1419 1.491 . S
C1425 C1424 1.400 . S
C1425 C1426 1.398 . S
C1426 H1414 0.950 . S
C1426 C1425 1.398 . S
C1426 C1427 1.391 . S
C1427 H1415 0.950 . S
C1427 C1423 1.393 . S
C1427 C1426 1.391 . S
H1428 C1436 0.950 . S
H1429 C1441 0.950 . S
H1430 C1438 0.950 . S
H1431 C1440 0.950 . S
H1432 C1442 0.950 . S
H1433 C1444 0.950 . S
H1434 C1446 0.950 . S
H1435 C1447 0.950 . S
C1436 H1428 0.950 . S
C1436 C1437 1.386 . S
C1436 C1438 1.391 . S
C1437 C1436 1.386 . S
C1437 C1441 1.393 . S
C1438 H1430 0.950 . S
C1438 C1436 1.391 . S
C1438 C1439 1.400 . S
C1439 C1438 1.400 . S
C1439 C1440 1.398 . S
C1439 C1445 1.491 . S
C1440 H1431 0.950 . S
C1440 C1439 1.398 . S
C1440 C1441 1.391 . S
C1441 H1429 0.950 . S
C1441 C1437 1.393 . S
C1441 C1440 1.391 . S
C1442 H1432 0.950 . S
C1442 C1443 1.386 . S
C1442 C1444 1.391 . S
C1443 C1442 1.386 . S
C1443 C1447 1.393 . S
C1444 H1433 0.950 . S
C1444 C1442 1.391 . S
C1444 C1445 1.400 . S
C1445 C1439 1.491 . S
C1445 C1444 1.400 . S
C1445 C1446 1.398 . S
C1446 H1434 0.950 . S
C1446 C1445 1.398 . S
C1446 C1447 1.391 . S
C1447 H1435 0.950 . S
C1447 C1443 1.393 . S
C1447 C1446 1.391 . S
H1448 C1456 0.950 . S
H1449 C1461 0.950 . S
H1450 C1458 0.950 . S
H1451 C1460 0.950 . S
H1452 C1462 0.950 . S
H1453 C1464 0.950 . S
H1454 C1466 0.950 . S
H1455 C1467 0.950 . S
C1456 H1448 0.950 . S
C1456 C1457 1.386 . S
C1456 C1458 1.391 . S
C1457 C1456 1.386 . S
C1457 C1461 1.393 . S
C1458 H1450 0.950 . S
C1458 C1456 1.391 . S
C1458 C1459 1.400 . S
C1459 C1458 1.400 . S
C1459 C1460 1.398 . S
C1459 C1465 1.491 1_565 S
C1460 H1451 0.950 . S
C1460 C1459 1.398 . S
C1460 C1461 1.391 . S
C1461 H1449 0.950 . S
C1461 C1457 1.393 . S
C1461 C1460 1.391 . S
C1462 H1452 0.950 . S
C1462 C1463 1.386 . S
C1462 C1464 1.391 . S
C1463 C1462 1.386 . S
C1463 C1467 1.393 . S
C1464 H1453 0.950 . S
C1464 C1462 1.391 . S
C1464 C1465 1.400 . S
C1465 C1459 1.491 1_545 S
C1465 C1464 1.400 . S
C1465 C1466 1.398 . S
C1466 H1454 0.950 . S
C1466 C1465 1.398 . S
C1466 C1467 1.391 . S
C1467 H1455 0.950 . S
C1467 C1463 1.393 . S
C1467 C1466 1.391 . S
H1468 C1476 0.950 . S
H1469 C1481 0.950 . S
H1470 C1478 0.950 . S
H1471 C1480 0.950 . S
H1472 C1482 0.950 . S
H1473 C1484 0.950 . S
H1474 C1486 0.950 . S
H1475 C1487 0.950 . S
C1476 H1468 0.950 . S
C1476 C1477 1.386 . S
C1476 C1478 1.391 . S
C1477 C1476 1.386 . S
C1477 C1481 1.393 . S
C1478 H1470 0.950 . S
C1478 C1476 1.391 . S
C1478 C1479 1.400 . S
C1479 C1478 1.400 . S
C1479 C1480 1.398 . S
C1479 C1485 1.491 1_655 S
C1480 H1471 0.950 . S
C1480 C1479 1.398 . S
C1480 C1481 1.391 . S
C1481 H1469 0.950 . S
C1481 C1477 1.393 . S
C1481 C1480 1.391 . S
C1482 H1472 0.950 . S
C1482 C1483 1.386 . S
C1482 C1484 1.391 . S
C1483 C1482 1.386 . S
C1483 C1487 1.393 . S
C1484 H1473 0.950 . S
C1484 C1482 1.391 . S
C1484 C1485 1.400 . S
C1485 C1479 1.491 1_455 S
C1485 C1484 1.400 . S
C1485 C1486 1.398 . S
C1486 H1474 0.950 . S
C1486 C1485 1.398 . S
C1486 C1487 1.391 . S
C1487 H1475 0.950 . S
C1487 C1483 1.393 . S
C1487 C1486 1.391 . S
H1488 C1496 0.950 . S
H1489 C1501 0.950 . S
H1490 C1498 0.950 . S
H1491 C1500 0.950 . S
H1492 C1502 0.950 . S
H1493 C1504 0.950 . S
H1494 C1506 0.950 . S
H1495 C1507 0.950 . S
C1496 H1488 0.950 . S
C1496 C1497 1.386 . S
C1496 C1498 1.391 . S
C1497 C1496 1.386 . S
C1497 C1501 1.393 . S
C1498 H1490 0.950 . S
C1498 C1496 1.391 . S
C1498 C1499 1.400 . S
C1499 C1498 1.400 . S
C1499 C1500 1.398 . S
C1499 C1505 1.491 . S
C1500 H1491 0.950 . S
C1500 C1499 1.398 . S
C1500 C1501 1.391 . S
C1501 H1489 0.950 . S
C1501 C1497 1.393 . S
C1501 C1500 1.391 . S
C1502 H1492 0.950 . S
C1502 C1503 1.386 . S
C1502 C1504 1.391 . S
C1503 C1502 1.386 . S
C1503 C1507 1.393 . S
C1504 H1493 0.950 . S
C1504 C1502 1.391 . S
C1504 C1505 1.400 . S
C1505 C1499 1.491 . S
C1505 C1504 1.400 . S
C1505 C1506 1.398 . S
C1506 H1494 0.950 . S
C1506 C1505 1.398 . S
C1506 C1507 1.391 . S
C1507 H1495 0.950 . S
C1507 C1503 1.393 . S
C1507 C1506 1.391 . S
H1508 C1516 0.950 . S
H1509 C1521 0.950 . S
H1510 C1518 0.950 . S
H1511 C1520 0.950 . S
H1512 C1522 0.950 . S
H1513 C1524 0.950 . S
H1514 C1526 0.950 . S
H1515 C1527 0.950 . S
C1516 H1508 0.950 . S
C1516 C1517 1.386 . S
C1516 C1518 1.391 . S
C1517 C1516 1.386 . S
C1517 C1521 1.393 . S
C1518 H1510 0.950 . S
C1518 C1516 1.391 . S
C1518 C1519 1.400 . S
C1519 C1518 1.400 . S
C1519 C1520 1.398 . S
C1519 C1525 1.491 1_565 S
C1520 H1511 0.950 . S
C1520 C1519 1.398 . S
C1520 C1521 1.391 . S
C1521 H1509 0.950 . S
C1521 C1517 1.393 . S
C1521 C1520 1.391 . S
C1522 H1512 0.950 . S
C1522 C1523 1.386 . S
C1522 C1524 1.391 . S
C1523 C1522 1.386 . S
C1523 C1527 1.393 . S
C1524 H1513 0.950 . S
C1524 C1522 1.391 . S
C1524 C1525 1.400 . S
C1525 C1519 1.491 1_545 S
C1525 C1524 1.400 . S
C1525 C1526 1.398 . S
C1526 H1514 0.950 . S
C1526 C1525 1.398 . S
C1526 C1527 1.391 . S
C1527 H1515 0.950 . S
C1527 C1523 1.393 . S
C1527 C1526 1.391 . S
H1528 C1536 0.950 . S
H1529 C1541 0.950 . S
H1530 C1538 0.950 . S
H1531 C1540 0.950 . S
H1532 C1542 0.950 . S
H1533 C1544 0.950 . S
H1534 C1546 0.950 . S
H1535 C1547 0.950 . S
C1536 H1528 0.950 . S
C1536 C1537 1.386 . S
C1536 C1538 1.391 . S
C1537 C1536 1.386 . S
C1537 C1541 1.393 . S
C1538 H1530 0.950 . S
C1538 C1536 1.391 . S
C1538 C1539 1.400 . S
C1539 C1538 1.400 . S
C1539 C1540 1.398 . S
C1539 C1545 1.491 1_655 S
C1540 H1531 0.950 . S
C1540 C1539 1.398 . S
C1540 C1541 1.391 . S
C1541 H1529 0.950 . S
C1541 C1537 1.393 . S
C1541 C1540 1.391 . S
C1542 H1532 0.950 . S
C1542 C1543 1.386 . S
C1542 C1544 1.391 . S
C1543 C1542 1.386 . S
C1543 C1547 1.393 . S
C1544 H1533 0.950 . S
C1544 C1542 1.391 . S
C1544 C1545 1.400 . S
C1545 C1539 1.491 1_455 S
C1545 C1544 1.400 . S
C1545 C1546 1.398 . S
C1546 H1534 0.950 . S
C1546 C1545 1.398 . S
C1546 C1547 1.391 . S
C1547 H1535 0.950 . S
C1547 C1543 1.393 . S
C1547 C1546 1.391 . S
H1548 C1556 0.950 . S
H1549 C1561 0.950 . S
H1550 C1558 0.950 . S
H1551 C1560 0.950 . S
H1552 C1562 0.950 . S
H1553 C1564 0.950 . S
H1554 C1566 0.950 . S
H1555 C1567 0.950 . S
C1556 H1548 0.950 . S
C1556 C1557 1.386 . S
C1556 C1558 1.391 . S
C1557 C1556 1.386 . S
C1557 C1561 1.393 . S
C1558 H1550 0.950 . S
C1558 C1556 1.391 . S
C1558 C1559 1.400 . S
C1559 C1558 1.400 . S
C1559 C1560 1.398 . S
C1559 C1565 1.491 . S
C1560 H1551 0.950 . S
C1560 C1559 1.398 . S
C1560 C1561 1.391 . S
C1561 H1549 0.950 . S
C1561 C1557 1.393 . S
C1561 C1560 1.391 . S
C1562 H1552 0.950 . S
C1562 C1563 1.386 . S
C1562 C1564 1.391 . S
C1563 C1562 1.386 . S
C1563 C1567 1.393 . S
C1564 H1553 0.950 . S
C1564 C1562 1.391 . S
C1564 C1565 1.400 . S
C1565 C1559 1.491 . S
C1565 C1564 1.400 . S
C1565 C1566 1.398 . S
C1566 H1554 0.950 . S
C1566 C1565 1.398 . S
C1566 C1567 1.391 . S
C1567 H1555 0.950 . S
C1567 C1563 1.393 . S
C1567 C1566 1.391 . S
H1568 C1576 0.950 . S
H1569 C1581 0.950 . S
H1570 C1578 0.950 . S
H1571 C1580 0.950 . S
H1572 C1582 0.950 . S
H1573 C1584 0.950 . S
H1574 C1586 0.950 . S
H1575 C1587 0.950 . S
C1576 H1568 0.950 . S
C1576 C1577 1.386 . S
C1576 C1578 1.391 . S
C1577 C1576 1.386 . S
C1577 C1581 1.393 . S
C1578 H1570 0.950 . S
C1578 C1576 1.391 . S
C1578 C1579 1.400 . S
C1579 C1578 1.400 . S
C1579 C1580 1.398 . S
C1579 C1585 1.491 . S
C1580 H1571 0.950 . S
C1580 C1579 1.398 . S
C1580 C1581 1.391 . S
C1581 H1569 0.950 . S
C1581 C1577 1.393 . S
C1581 C1580 1.391 . S
C1582 H1572 0.950 . S
C1582 C1583 1.386 . S
C1582 C1584 1.391 . S
C1583 C1582 1.386 . S
C1583 C1587 1.393 . S
C1584 H1573 0.950 . S
C1584 C1582 1.391 . S
C1584 C1585 1.400 . S
C1585 C1579 1.491 . S
C1585 C1584 1.400 . S
C1585 C1586 1.398 . S
C1586 H1574 0.950 . S
C1586 C1585 1.398 . S
C1586 C1587 1.391 . S
C1587 H1575 0.950 . S
C1587 C1583 1.393 . S
C1587 C1586 1.391 . S
H1588 C1596 0.950 . S
H1589 C1601 0.950 . S
H1590 C1598 0.950 . S
H1591 C1600 0.950 . S
H1592 C1602 0.950 . S
H1593 C1604 0.950 . S
H1594 C1606 0.950 . S
H1595 C1607 0.950 . S
C1596 H1588 0.950 . S
C1596 C1597 1.386 . S
C1596 C1598 1.391 . S
C1597 C1596 1.386 . S
C1597 C1601 1.393 . S
C1598 H1590 0.950 . S
C1598 C1596 1.391 . S
C1598 C1599 1.400 . S
C1599 C1598 1.400 . S
C1599 C1600 1.398 . S
C1599 C1605 1.491 . S
C1600 H1591 0.950 . S
C1600 C1599 1.398 . S
C1600 C1601 1.391 . S
C1601 H1589 0.950 . S
C1601 C1597 1.393 . S
C1601 C1600 1.391 . S
C1602 H1592 0.950 . S
C1602 C1603 1.386 . S
C1602 C1604 1.391 . S
C1603 C1602 1.386 . S
C1603 C1607 1.393 . S
C1604 H1593 0.950 . S
C1604 C1602 1.391 . S
C1604 C1605 1.400 . S
C1605 C1599 1.491 . S
C1605 C1604 1.400 . S
C1605 C1606 1.398 . S
C1606 H1594 0.950 . S
C1606 C1605 1.398 . S
C1606 C1607 1.391 . S
C1607 H1595 0.950 . S
C1607 C1603 1.393 . S
C1607 C1606 1.391 . S
H1608 C1616 0.950 . S
H1609 C1621 0.950 . S
H1610 C1618 0.950 . S
H1611 C1620 0.950 . S
H1612 C1622 0.950 . S
H1613 C1624 0.950 . S
H1614 C1626 0.950 . S
H1615 C1627 0.950 . S
C1616 H1608 0.950 . S
C1616 C1617 1.386 . S
C1616 C1618 1.391 . S
C1617 C1616 1.386 . S
C1617 C1621 1.393 . S
C1618 H1610 0.950 . S
C1618 C1616 1.391 . S
C1618 C1619 1.400 . S
C1619 C1618 1.400 . S
C1619 C1620 1.398 . S
C1619 C1625 1.491 . S
C1620 H1611 0.950 . S
C1620 C1619 1.398 . S
C1620 C1621 1.391 . S
C1621 H1609 0.950 . S
C1621 C1617 1.393 . S
C1621 C1620 1.391 . S
C1622 H1612 0.950 . S
C1622 C1623 1.386 . S
C1622 C1624 1.391 . S
C1623 C1622 1.386 . S
C1623 C1627 1.393 . S
C1624 H1613 0.950 . S
C1624 C1622 1.391 . S
C1624 C1625 1.400 . S
C1625 C1619 1.491 . S
C1625 C1624 1.400 . S
C1625 C1626 1.398 . S
C1626 H1614 0.950 . S
C1626 C1625 1.398 . S
C1626 C1627 1.391 . S
C1627 H1615 0.950 . S
C1627 C1623 1.393 . S
C1627 C1626 1.391 . S
H1628 C1636 0.950 . S
H1629 C1641 0.950 . S
H1630 C1638 0.950 . S
H1631 C1640 0.950 . S
H1632 C1642 0.950 . S
H1633 C1644 0.950 . S
H1634 C1646 0.950 . S
H1635 C1647 0.950 . S
C1636 H1628 0.950 . S
C1636 C1637 1.386 . S
C1636 C1638 1.391 . S
C1637 C1636 1.386 . S
C1637 C1641 1.393 . S
C1638 H1630 0.950 . S
C1638 C1636 1.391 . S
C1638 C1639 1.400 . S
C1639 C1638 1.400 . S
C1639 C1640 1.398 . S
C1639 C1645 1.491 . S
C1640 H1631 0.950 . S
C1640 C1639 1.398 . S
C1640 C1641 1.391 . S
C1641 H1629 0.950 . S
C1641 C1637 1.393 . S
C1641 C1640 1.391 . S
C1642 H1632 0.950 . S
C1642 C1643 1.386 . S
C1642 C1644 1.391 . S
C1643 C1642 1.386 . S
C1643 C1647 1.393 . S
C1644 H1633 0.950 . S
C1644 C1642 1.391 . S
C1644 C1645 1.400 . S
C1645 C1639 1.491 . S
C1645 C1644 1.400 . S
C1645 C1646 1.398 . S
C1646 H1634 0.950 . S
C1646 C1645 1.398 . S
C1646 C1647 1.391 . S
C1647 H1635 0.950 . S
C1647 C1643 1.393 . S
C1647 C1646 1.391 . S
H1648 C1656 0.950 . S
H1649 C1661 0.950 . S
H1650 C1658 0.950 . S
H1651 C1660 0.950 . S
H1652 C1662 0.950 . S
H1653 C1664 0.950 . S
H1654 C1666 0.950 . S
H1655 C1667 0.950 . S
C1656 H1648 0.950 . S
C1656 C1657 1.386 . S
C1656 C1658 1.391 . S
C1657 C1656 1.386 . S
C1657 C1661 1.393 . S
C1658 H1650 0.950 . S
C1658 C1656 1.391 . S
C1658 C1659 1.400 . S
C1659 C1658 1.400 . S
C1659 C1660 1.398 . S
C1659 C1665 1.491 . S
C1660 H1651 0.950 . S
C1660 C1659 1.398 . S
C1660 C1661 1.391 . S
C1661 H1649 0.950 . S
C1661 C1657 1.393 . S
C1661 C1660 1.391 . S
C1662 H1652 0.950 . S
C1662 C1663 1.386 . S
C1662 C1664 1.391 . S
C1663 C1662 1.386 . S
C1663 C1667 1.393 . S
C1664 H1653 0.950 . S
C1664 C1662 1.391 . S
C1664 C1665 1.400 . S
C1665 C1659 1.491 . S
C1665 C1664 1.400 . S
C1665 C1666 1.398 . S
C1666 H1654 0.950 . S
C1666 C1665 1.398 . S
C1666 C1667 1.391 . S
C1667 H1655 0.950 . S
C1667 C1663 1.393 . S
C1667 C1666 1.391 . S
H1668 C1676 0.950 . S
H1669 C1681 0.950 . S
H1670 C1678 0.950 . S
H1671 C1680 0.950 . S
H1672 C1682 0.950 . S
H1673 C1684 0.950 . S
H1674 C1686 0.950 . S
H1675 C1687 0.950 . S
C1676 H1668 0.950 . S
C1676 C1677 1.386 . S
C1676 C1678 1.391 . S
C1677 C1676 1.386 . S
C1677 C1681 1.393 . S
C1678 H1670 0.950 . S
C1678 C1676 1.391 . S
C1678 C1679 1.400 . S
C1679 C1678 1.400 . S
C1679 C1680 1.398 . S
C1679 C1685 1.491 . S
C1680 H1671 0.950 . S
C1680 C1679 1.398 . S
C1680 C1681 1.391 . S
C1681 H1669 0.950 . S
C1681 C1677 1.393 . S
C1681 C1680 1.391 . S
C1682 H1672 0.950 . S
C1682 C1683 1.386 . S
C1682 C1684 1.391 . S
C1683 C1682 1.386 . S
C1683 C1687 1.393 . S
C1684 H1673 0.950 . S
C1684 C1682 1.391 . S
C1684 C1685 1.400 . S
C1685 C1679 1.491 . S
C1685 C1684 1.400 . S
C1685 C1686 1.398 . S
C1686 H1674 0.950 . S
C1686 C1685 1.398 . S
C1686 C1687 1.391 . S
C1687 H1675 0.950 . S
C1687 C1683 1.393 . S
C1687 C1686 1.391 . S
H1688 C1696 0.950 . S
H1689 C1701 0.950 . S
H1690 C1698 0.950 . S
H1691 C1700 0.950 . S
H1692 C1702 0.950 . S
H1693 C1704 0.950 . S
H1694 C1706 0.950 . S
H1695 C1707 0.950 . S
C1696 H1688 0.950 . S
C1696 C1697 1.386 . S
C1696 C1698 1.391 . S
C1697 C1696 1.386 . S
C1697 C1701 1.393 . S
C1698 H1690 0.950 . S
C1698 C1696 1.391 . S
C1698 C1699 1.400 . S
C1699 C1698 1.400 . S
C1699 C1700 1.398 . S
C1699 C1705 1.491 . S
C1700 H1691 0.950 . S
C1700 C1699 1.398 . S
C1700 C1701 1.391 . S
C1701 H1689 0.950 . S
C1701 C1697 1.393 . S
C1701 C1700 1.391 . S
C1702 H1692 0.950 . S
C1702 C1703 1.386 . S
C1702 C1704 1.391 . S
C1703 C1702 1.386 . S
C1703 C1707 1.393 . S
C1704 H1693 0.950 . S
C1704 C1702 1.391 . S
C1704 C1705 1.400 . S
C1705 C1699 1.491 . S
C1705 C1704 1.400 . S
C1705 C1706 1.398 . S
C1706 H1694 0.950 . S
C1706 C1705 1.398 . S
C1706 C1707 1.391 . S
C1707 H1695 0.950 . S
C1707 C1703 1.393 . S
C1707 C1706 1.391 . S
H1708 C1716 0.950 . S
H1709 C1721 0.950 . S
H1710 C1718 0.950 . S
H1711 C1720 0.950 . S
H1712 C1722 0.950 . S
H1713 C1724 0.950 . S
H1714 C1726 0.950 . S
H1715 C1727 0.950 . S
C1716 H1708 0.950 . S
C1716 C1717 1.386 . S
C1716 C1718 1.391 . S
C1717 C1716 1.386 . S
C1717 C1721 1.393 . S
C1718 H1710 0.950 . S
C1718 C1716 1.391 . S
C1718 C1719 1.400 . S
C1719 C1718 1.400 . S
C1719 C1720 1.398 . S
C1719 C1725 1.491 . S
C1720 H1711 0.950 . S
C1720 C1719 1.398 . S
C1720 C1721 1.391 . S
C1721 H1709 0.950 . S
C1721 C1717 1.393 . S
C1721 C1720 1.391 . S
C1722 H1712 0.950 . S
C1722 C1723 1.386 . S
C1722 C1724 1.391 . S
C1723 C1722 1.386 . S
C1723 C1727 1.393 . S
C1724 H1713 0.950 . S
C1724 C1722 1.391 . S
C1724 C1725 1.400 . S
C1725 C1719 1.491 . S
C1725 C1724 1.400 . S
C1725 C1726 1.398 . S
C1726 H1714 0.950 . S
C1726 C1725 1.398 . S
C1726 C1727 1.391 . S
C1727 H1715 0.950 . S
C1727 C1723 1.393 . S
C1727 C1726 1.391 . S
H1728 C1736 0.950 . S
H1729 C1741 0.950 . S
H1730 C1738 0.950 . S
H1731 C1740 0.950 . S
H1732 C1742 0.950 . S
H1733 C1744 0.950 . S
H1734 C1746 0.950 . S
H1735 C1747 0.950 . S
C1736 H1728 0.950 . S
C1736 C1737 1.386 . S
C1736 C1738 1.391 . S
C1737 C1736 1.386 . S
C1737 C1741 1.393 . S
C1738 H1730 0.950 . S
C1738 C1736 1.391 . S
C1738 C1739 1.400 . S
C1739 C1738 1.400 . S
C1739 C1740 1.398 . S
C1739 C1745 1.491 . S
C1740 H1731 0.950 . S
C1740 C1739 1.398 . S
C1740 C1741 1.391 . S
C1741 H1729 0.950 . S
C1741 C1737 1.393 . S
C1741 C1740 1.391 . S
C1742 H1732 0.950 . S
C1742 C1743 1.386 . S
C1742 C1744 1.391 . S
C1743 C1742 1.386 . S
C1743 C1747 1.393 . S
C1744 H1733 0.950 . S
C1744 C1742 1.391 . S
C1744 C1745 1.400 . S
C1745 C1739 1.491 . S
C1745 C1744 1.400 . S
C1745 C1746 1.398 . S
C1746 H1734 0.950 . S
C1746 C1745 1.398 . S
C1746 C1747 1.391 . S
C1747 H1735 0.950 . S
C1747 C1743 1.393 . S
C1747 C1746 1.391 . S
H1748 C1756 0.950 . S
H1749 C1761 0.950 . S
H1750 C1758 0.950 . S
H1751 C1760 0.950 . S
H1752 C1762 0.950 . S
H1753 C1764 0.950 . S
H1754 C1766 0.950 . S
H1755 C1767 0.950 . S
C1756 H1748 0.950 . S
C1756 C1757 1.386 . S
C1756 C1758 1.391 . S
C1757 C1756 1.386 . S
C1757 C1761 1.393 . S
C1758 H1750 0.950 . S
C1758 C1756 1.391 . S
C1758 C1759 1.400 . S
C1759 C1758 1.400 . S
C1759 C1760 1.398 . S
C1759 C1765 1.491 . S
C1760 H1751 0.950 . S
C1760 C1759 1.398 . S
C1760 C1761 1.391 . S
C1761 H1749 0.950 . S
C1761 C1757 1.393 . S
C1761 C1760 1.391 . S
C1762 H1752 0.950 . S
C1762 C1763 1.386 . S
C1762 C1764 1.391 . S
C1763 C1762 1.386 . S
C1763 C1767 1.393 . S
C1764 H1753 0.950 . S
C1764 C1762 1.391 . S
C1764 C1765 1.400 . S
C1765 C1759 1.491 . S
C1765 C1764 1.400 . S
C1765 C1766 1.398 . S
C1766 H1754 0.950 . S
C1766 C1765 1.398 . S
C1766 C1767 1.391 . S
C1767 H1755 0.950 . S
C1767 C1763 1.393 . S
C1767 C1766 1.391 . S
H1768 C1776 0.950 . S
H1769 C1781 0.950 . S
H1770 C1778 0.950 . S
H1771 C1780 0.950 . S
H1772 C1782 0.950 . S
H1773 C1784 0.950 . S
H1774 C1786 0.950 . S
H1775 C1787 0.950 . S
C1776 H1768 0.950 . S
C1776 C1777 1.386 . S
C1776 C1778 1.391 . S
C1777 C1776 1.386 . S
C1777 C1781 1.393 . S
C1778 H1770 0.950 . S
C1778 C1776 1.391 . S
C1778 C1779 1.400 . S
C1779 C1778 1.400 . S
C1779 C1780 1.398 . S
C1779 C1785 1.491 . S
C1780 H1771 0.950 . S
C1780 C1779 1.398 . S
C1780 C1781 1.391 . S
C1781 H1769 0.950 . S
C1781 C1777 1.393 . S
C1781 C1780 1.391 . S
C1782 H1772 0.950 . S
C1782 C1783 1.386 . S
C1782 C1784 1.391 . S
C1783 C1782 1.386 . S
C1783 C1787 1.393 . S
C1784 H1773 0.950 . S
C1784 C1782 1.391 . S
C1784 C1785 1.400 . S
C1785 C1779 1.491 . S
C1785 C1784 1.400 . S
C1785 C1786 1.398 . S
C1786 H1774 0.950 . S
C1786 C1785 1.398 . S
C1786 C1787 1.391 . S
C1787 H1775 0.950 . S
C1787 C1783 1.393 . S
C1787 C1786 1.391 . S
H1788 C1796 0.951 . S
H1789 C1801 0.950 . S
H1790 C1798 0.950 . S
H1791 C1800 0.950 . S
H1792 C1802 0.951 . S
H1793 C1804 0.950 . S
H1794 C1806 0.950 . S
H1795 C1807 0.950 . S
C1796 H1788 0.951 . S
C1796 C1797 1.386 . S
C1796 C1798 1.391 1_556 S
C1797 C1796 1.386 . S
C1797 C1801 1.393 . S
C1798 H1790 0.950 . S
C1798 C1796 1.391 1_554 S
C1798 C1799 1.400 1_554 S
C1799 C1798 1.400 1_556 S
C1799 C1800 1.398 . S
C1799 C1805 1.491 1_656 S
C1800 H1791 0.950 . S
C1800 C1799 1.398 . S
C1800 C1801 1.391 . S
C1801 H1789 0.950 . S
C1801 C1797 1.393 . S
C1801 C1800 1.391 . S
C1802 H1792 0.951 . S
C1802 C1803 1.386 . S
C1802 C1804 1.391 1_554 S
C1803 C1802 1.386 . S
C1803 C1807 1.393 . S
C1804 H1793 0.950 . S
C1804 C1802 1.391 1_556 S
C1804 C1805 1.400 1_556 S
C1805 C1799 1.491 1_454 S
C1805 C1804 1.400 1_554 S
C1805 C1806 1.398 . S
C1806 H1794 0.950 . S
C1806 C1805 1.398 . S
C1806 C1807 1.391 . S
C1807 H1795 0.950 . S
C1807 C1803 1.393 . S
C1807 C1806 1.391 . S
H1808 C1816 0.947 1_554 S
H1809 C1821 0.950 . S
H1810 C1818 0.950 . S
H1811 C1820 0.950 . S
H1812 C1822 0.947 1_556 S
H1813 C1824 0.950 . S
H1814 C1826 0.950 . S
H1815 C1827 0.950 . S
C1816 H1808 0.947 1_556 S
C1816 C1817 1.389 . S
C1816 C1818 1.390 1_556 S
C1817 C1816 1.389 . S
C1817 C1821 1.393 . S
C1818 H1810 0.950 . S
C1818 C1816 1.390 1_554 S
C1818 C1819 1.400 1_554 S
C1819 C1818 1.400 1_556 S
C1819 C1820 1.398 . S
C1819 C1825 1.491 1_556 S
C1820 H1811 0.950 . S
C1820 C1819 1.398 . S
C1820 C1821 1.391 . S
C1821 H1809 0.950 . S
C1821 C1817 1.393 . S
C1821 C1820 1.391 . S
C1822 H1812 0.947 1_554 S
C1822 C1823 1.389 . S
C1822 C1824 1.390 1_554 S
C1823 C1822 1.389 . S
C1823 C1827 1.393 . S
C1824 H1813 0.950 . S
C1824 C1822 1.390 1_556 S
C1824 C1825 1.400 1_556 S
C1825 C1819 1.491 1_554 S
C1825 C1824 1.400 1_554 S
C1825 C1826 1.398 . S
C1826 H1814 0.950 . S
C1826 C1825 1.398 . S
C1826 C1827 1.391 . S
C1827 H1815 0.950 . S
C1827 C1823 1.393 . S
C1827 C1826 1.391 . S
H1828 C1836 0.950 . S
H1829 C1841 0.950 . S
H1830 C1838 0.950 . S
H1831 C1840 0.950 1_556 S
H1832 C1842 0.950 . S
H1833 C1844 0.950 . S
H1834 C1846 0.950 1_554 S
H1835 C1847 0.950 . S
C1836 H1828 0.950 . S
C1836 C1837 1.386 . S
C1836 C1838 1.391 . S
C1837 C1836 1.386 . S
C1837 C1841 1.393 . S
C1838 H1830 0.950 . S
C1838 C1836 1.391 . S
C1838 C1839 1.400 . S
C1839 C1838 1.400 . S
C1839 C1840 1.398 . S
C1839 C1845 1.491 1_564 S
C1840 H1831 0.950 1_554 S
C1840 C1839 1.398 . S
C1840 C1841 1.391 . S
C1841 H1829 0.950 . S
C1841 C1837 1.393 . S
C1841 C1840 1.391 . S
C1842 H1832 0.950 . S
C1842 C1843 1.386 . S
C1842 C1844 1.391 . S
C1843 C1842 1.386 . S
C1843 C1847 1.393 . S
C1844 H1833 0.950 . S
C1844 C1842 1.391 . S
C1844 C1845 1.400 . S
C1845 C1839 1.491 1_546 S
C1845 C1844 1.400 . S
C1845 C1846 1.398 . S
C1846 H1834 0.950 1_556 S
C1846 C1845 1.398 . S
C1846 C1847 1.391 . S
C1847 H1835 0.950 . S
C1847 C1843 1.393 . S
C1847 C1846 1.391 . S
H1848 C1856 0.950 1_556 S
H1849 C1861 0.950 . S
H1850 C1858 0.950 . S
H1851 C1860 0.950 . S
H1852 C1862 0.950 1_554 S
H1853 C1864 0.950 . S
H1854 C1866 0.950 . S
H1855 C1867 0.950 . S
C1856 H1848 0.950 1_554 S
C1856 C1857 1.386 . S
C1856 C1858 1.391 1_554 S
C1857 C1856 1.386 . S
C1857 C1861 1.393 . S
C1858 H1850 0.950 . S
C1858 C1856 1.391 1_556 S
C1858 C1859 1.400 1_556 S
C1859 C1858 1.400 1_554 S
C1859 C1860 1.398 . S
C1859 C1865 1.491 1_564 S
C1860 H1851 0.950 . S
C1860 C1859 1.398 . S
C1860 C1861 1.391 . S
C1861 H1849 0.950 . S
C1861 C1857 1.393 . S
C1861 C1860 1.391 . S
C1862 H1852 0.950 1_556 S
C1862 C1863 1.386 . S
C1862 C1864 1.391 1_556 S
C1863 C1862 1.386 . S
C1863 C1867 1.393 . S
C1864 H1853 0.950 . S
C1864 C1862 1.391 1_554 S
C1864 C1865 1.400 1_554 S
C1865 C1859 1.491 1_546 S
C1865 C1864 1.400 1_556 S
C1865 C1866 1.398 . S
C1866 H1854 0.950 . S
C1866 C1865 1.398 . S
C1866 C1867 1.391 . S
C1867 H1855 0.950 . S
C1867 C1863 1.393 . S
C1867 C1866 1.391 . S
H1868 C1876 0.950 . S
H1869 C1881 0.950 . S
H1870 C1878 0.950 . S
H1871 C1880 0.950 . S
H1872 C1882 0.950 . S
H1873 C1884 0.950 . S
H1874 C1886 0.950 . S
H1875 C1887 0.950 . S
C1876 H1868 0.950 . S
C1876 C1877 1.386 1_554 S
C1876 C1878 1.391 . S
C1877 C1876 1.386 1_556 S
C1877 C1881 1.393 . S
C1878 H1870 0.950 . S
C1878 C1876 1.391 . S
C1878 C1879 1.400 1_554 S
C1879 C1878 1.400 1_556 S
C1879 C1880 1.398 . S
C1879 C1885 1.491 1_656 S
C1880 H1871 0.950 . S
C1880 C1879 1.398 . S
C1880 C1881 1.391 . S
C1881 H1869 0.950 . S
C1881 C1877 1.393 . S
C1881 C1880 1.391 . S
C1882 H1872 0.950 . S
C1882 C1883 1.386 1_556 S
C1882 C1884 1.391 . S
C1883 C1882 1.386 1_554 S
C1883 C1887 1.393 . S
C1884 H1873 0.950 . S
C1884 C1882 1.391 . S
C1884 C1885 1.400 1_556 S
C1885 C1879 1.491 1_454 S
C1885 C1884 1.400 1_554 S
C1885 C1886 1.398 . S
C1886 H1874 0.950 . S
C1886 C1885 1.398 . S
C1886 C1887 1.391 . S
C1887 H1875 0.950 . S
C1887 C1883 1.393 . S
C1887 C1886 1.391 . S
H1888 C1896 0.950 . S
H1889 C1901 0.950 . S
H1890 C1898 0.950 . S
H1891 C1900 0.950 . S
H1892 C1902 0.950 . S
H1893 C1904 0.950 . S
H1894 C1906 0.950 . S
H1895 C1907 0.950 . S
C1896 H1888 0.950 . S
C1896 C1897 1.386 . S
C1896 C1898 1.391 . S
C1897 C1896 1.386 . S
C1897 C1901 1.393 . S
C1898 H1890 0.950 . S
C1898 C1896 1.391 . S
C1898 C1899 1.400 . S
C1899 C1898 1.400 . S
C1899 C1900 1.398 . S
C1899 C1905 1.491 1_556 S
C1900 H1891 0.950 . S
C1900 C1899 1.398 . S
C1900 C1901 1.391 . S
C1901 H1889 0.950 . S
C1901 C1897 1.393 . S
C1901 C1900 1.391 . S
C1902 H1892 0.950 . S
C1902 C1903 1.386 . S
C1902 C1904 1.391 . S
C1903 C1902 1.386 . S
C1903 C1907 1.393 . S
C1904 H1893 0.950 . S
C1904 C1902 1.391 . S
C1904 C1905 1.400 . S
C1905 C1899 1.491 1_554 S
C1905 C1904 1.400 . S
C1905 C1906 1.398 . S
C1906 H1894 0.950 . S
C1906 C1905 1.398 . S
C1906 C1907 1.391 . S
C1907 H1895 0.950 . S
C1907 C1903 1.393 . S
C1907 C1906 1.391 . S
H1908 C1916 0.950 . S
H1909 C1921 0.950 . S
H1910 C1918 0.950 . S
H1911 C1920 0.950 . S
H1912 C1922 0.950 . S
H1913 C1924 0.950 . S
H1914 C1926 0.950 . S
H1915 C1927 0.950 . S
C1916 H1908 0.950 . S
C1916 C1917 1.386 . S
C1916 C1918 1.391 . S
C1917 C1916 1.386 . S
C1917 C1921 1.393 . S
C1918 H1910 0.950 . S
C1918 C1916 1.391 . S
C1918 C1919 1.400 . S
C1919 C1918 1.400 . S
C1919 C1920 1.398 . S
C1919 C1925 1.491 . S
C1920 H1911 0.950 . S
C1920 C1919 1.398 . S
C1920 C1921 1.391 . S
C1921 H1909 0.950 . S
C1921 C1917 1.393 . S
C1921 C1920 1.391 . S
C1922 H1912 0.950 . S
C1922 C1923 1.386 . S
C1922 C1924 1.391 . S
C1923 C1922 1.386 . S
C1923 C1927 1.393 . S
C1924 H1913 0.950 . S
C1924 C1922 1.391 . S
C1924 C1925 1.400 . S
C1925 C1919 1.491 . S
C1925 C1924 1.400 . S
C1925 C1926 1.398 . S
C1926 H1914 0.950 . S
C1926 C1925 1.398 . S
C1926 C1927 1.391 . S
C1927 H1915 0.950 . S
C1927 C1923 1.393 . S
C1927 C1926 1.391 . S
H1928 C1936 0.950 . S
H1929 C1941 0.950 . S
H1930 C1938 0.950 . S
H1931 C1940 0.950 . S
H1932 C1942 0.950 . S
H1933 C1944 0.950 . S
H1934 C1946 0.950 . S
H1935 C1947 0.950 . S
C1936 H1928 0.950 . S
C1936 C1937 1.386 . S
C1936 C1938 1.391 . S
C1937 C1936 1.386 . S
C1937 C1941 1.393 . S
C1938 H1930 0.950 . S
C1938 C1936 1.391 . S
C1938 C1939 1.400 . S
C1939 C1938 1.400 . S
C1939 C1940 1.398 . S
C1939 C1945 1.491 . S
C1940 H1931 0.950 . S
C1940 C1939 1.398 . S
C1940 C1941 1.391 . S
C1941 H1929 0.950 . S
C1941 C1937 1.393 . S
C1941 C1940 1.391 . S
C1942 H1932 0.950 . S
C1942 C1943 1.386 . S
C1942 C1944 1.391 . S
C1943 C1942 1.386 . S
C1943 C1947 1.393 . S
C1944 H1933 0.950 . S
C1944 C1942 1.391 . S
C1944 C1945 1.400 . S
C1945 C1939 1.491 . S
C1945 C1944 1.400 . S
C1945 C1946 1.398 . S
C1946 H1934 0.950 . S
C1946 C1945 1.398 . S
C1946 C1947 1.391 . S
C1947 H1935 0.950 . S
C1947 C1943 1.393 . S
C1947 C1946 1.391 . S
H1948 C1956 0.950 . S
H1949 C1961 0.950 . S
H1950 C1958 0.950 . S
H1951 C1960 0.950 . S
H1952 C1962 0.950 . S
H1953 C1964 0.950 . S
H1954 C1966 0.950 . S
H1955 C1967 0.950 . S
C1956 H1948 0.950 . S
C1956 C1957 1.386 . S
C1956 C1958 1.391 . S
C1957 C1956 1.386 . S
C1957 C1961 1.393 . S
C1958 H1950 0.950 . S
C1958 C1956 1.391 . S
C1958 C1959 1.400 . S
C1959 C1958 1.400 . S
C1959 C1960 1.398 . S
C1959 C1965 1.491 . S
C1960 H1951 0.950 . S
C1960 C1959 1.398 . S
C1960 C1961 1.391 . S
C1961 H1949 0.950 . S
C1961 C1957 1.393 . S
C1961 C1960 1.391 . S
C1962 H1952 0.950 . S
C1962 C1963 1.386 . S
C1962 C1964 1.391 . S
C1963 C1962 1.386 . S
C1963 C1967 1.393 . S
C1964 H1953 0.950 . S
C1964 C1962 1.391 . S
C1964 C1965 1.400 . S
C1965 C1959 1.491 . S
C1965 C1964 1.400 . S
C1965 C1966 1.398 . S
C1966 H1954 0.950 . S
C1966 C1965 1.398 . S
C1966 C1967 1.391 . S
C1967 H1955 0.950 . S
C1967 C1963 1.393 . S
C1967 C1966 1.391 . S
H1968 C1976 0.950 . S
H1969 C1981 0.950 . S
H1970 C1978 0.950 . S
H1971 C1980 0.950 . S
H1972 C1982 0.950 . S
H1973 C1984 0.950 . S
H1974 C1986 0.950 . S
H1975 C1987 0.950 . S
C1976 H1968 0.950 . S
C1976 C1977 1.386 . S
C1976 C1978 1.391 . S
C1977 C1976 1.386 . S
C1977 C1981 1.393 . S
C1978 H1970 0.950 . S
C1978 C1976 1.391 . S
C1978 C1979 1.400 . S
C1979 C1978 1.400 . S
C1979 C1980 1.398 . S
C1979 C1985 1.491 . S
C1980 H1971 0.950 . S
C1980 C1979 1.398 . S
C1980 C1981 1.391 . S
C1981 H1969 0.950 . S
C1981 C1977 1.393 . S
C1981 C1980 1.391 . S
C1982 H1972 0.950 . S
C1982 C1983 1.386 . S
C1982 C1984 1.391 . S
C1983 C1982 1.386 . S
C1983 C1987 1.393 . S
C1984 H1973 0.950 . S
C1984 C1982 1.391 . S
C1984 C1985 1.400 . S
C1985 C1979 1.491 . S
C1985 C1984 1.400 . S
C1985 C1986 1.398 . S
C1986 H1974 0.950 . S
C1986 C1985 1.398 . S
C1986 C1987 1.391 . S
C1987 H1975 0.950 . S
C1987 C1983 1.393 . S
C1987 C1986 1.391 . S
H1988 C1996 0.950 . S
H1989 C2001 0.950 . S
H1990 C1998 0.950 . S
H1991 C2000 0.950 . S
H1992 C2002 0.950 . S
H1993 C2004 0.950 . S
H1994 C2006 0.950 . S
H1995 C2007 0.950 . S
C1996 H1988 0.950 . S
C1996 C1997 1.386 . S
C1996 C1998 1.391 . S
C1997 C1996 1.386 . S
C1997 C2001 1.393 . S
C1998 H1990 0.950 . S
C1998 C1996 1.391 . S
C1998 C1999 1.400 . S
C1999 C1998 1.400 . S
C1999 C2000 1.398 . S
C1999 C2005 1.491 . S
C2000 H1991 0.950 . S
C2000 C1999 1.398 . S
C2000 C2001 1.391 . S
C2001 H1989 0.950 . S
C2001 C1997 1.393 . S
C2001 C2000 1.391 . S
C2002 H1992 0.950 . S
C2002 C2003 1.386 . S
C2002 C2004 1.391 . S
C2003 C2002 1.386 . S
C2003 C2007 1.393 . S
C2004 H1993 0.950 . S
C2004 C2002 1.391 . S
C2004 C2005 1.400 . S
C2005 C1999 1.491 . S
C2005 C2004 1.400 . S
C2005 C2006 1.398 . S
C2006 H1994 0.950 . S
C2006 C2005 1.398 . S
C2006 C2007 1.391 . S
C2007 H1995 0.950 . S
C2007 C2003 1.393 . S
C2007 C2006 1.391 . S
H2008 C2016 0.950 . S
H2009 C2021 0.950 . S
H2010 C2018 0.950 . S
H2011 C2020 0.950 . S
H2012 C2022 0.950 . S
H2013 C2024 0.950 . S
H2014 C2026 0.950 . S
H2015 C2027 0.950 . S
C2016 H2008 0.950 . S
C2016 C2017 1.386 . S
C2016 C2018 1.391 . S
C2017 C2016 1.386 . S
C2017 C2021 1.393 . S
C2018 H2010 0.950 . S
C2018 C2016 1.391 . S
C2018 C2019 1.400 . S
C2019 C2018 1.400 . S
C2019 C2020 1.398 . S
C2019 C2025 1.491 . S
C2020 H2011 0.950 . S
C2020 C2019 1.398 . S
C2020 C2021 1.391 . S
C2021 H2009 0.950 . S
C2021 C2017 1.393 . S
C2021 C2020 1.391 . S
C2022 H2012 0.950 . S
C2022 C2023 1.386 . S
C2022 C2024 1.391 . S
C2023 C2022 1.386 . S
C2023 C2027 1.393 . S
C2024 H2013 0.950 . S
C2024 C2022 1.391 . S
C2024 C2025 1.400 . S
C2025 C2019 1.491 . S
C2025 C2024 1.400 . S
C2025 C2026 1.398 . S
C2026 H2014 0.950 . S
C2026 C2025 1.398 . S
C2026 C2027 1.391 . S
C2027 H2015 0.950 . S
C2027 C2023 1.393 . S
C2027 C2026 1.391 . S
H2028 C2036 0.950 . S
H2029 C2041 0.950 . S
H2030 C2038 0.950 . S
H2031 C2040 0.950 . S
H2032 C2042 0.950 . S
H2033 C2044 0.950 . S
H2034 C2046 0.950 . S
H2035 C2047 0.950 . S
C2036 H2028 0.950 . S
C2036 C2037 1.386 . S
C2036 C2038 1.391 . S
C2037 C2036 1.386 . S
C2037 C2041 1.393 . S
C2038 H2030 0.950 . S
C2038 C2036 1.391 . S
C2038 C2039 1.400 . S
C2039 C2038 1.400 . S
C2039 C2040 1.398 . S
C2039 C2045 1.491 . S
C2040 H2031 0.950 . S
C2040 C2039 1.398 . S
C2040 C2041 1.391 . S
C2041 H2029 0.950 . S
C2041 C2037 1.393 . S
C2041 C2040 1.391 . S
C2042 H2032 0.950 . S
C2042 C2043 1.386 . S
C2042 C2044 1.391 . S
C2043 C2042 1.386 . S
C2043 C2047 1.393 . S
C2044 H2033 0.950 . S
C2044 C2042 1.391 . S
C2044 C2045 1.400 . S
C2045 C2039 1.491 . S
C2045 C2044 1.400 . S
C2045 C2046 1.398 . S
C2046 H2034 0.950 . S
C2046 C2045 1.398 . S
C2046 C2047 1.391 . S
C2047 H2035 0.950 . S
C2047 C2043 1.393 . S
C2047 C2046 1.391 . S
H2048 C2056 0.950 . S
H2049 C2061 0.950 . S
H2050 C2058 0.950 . S
H2051 C2060 0.950 . S
H2052 C2062 0.950 . S
H2053 C2064 0.950 . S
H2054 C2066 0.950 . S
H2055 C2067 0.950 . S
C2056 H2048 0.950 . S
C2056 C2057 1.386 . S
C2056 C2058 1.391 . S
C2057 C2056 1.386 . S
C2057 C2061 1.393 . S
C2058 H2050 0.950 . S
C2058 C2056 1.391 . S
C2058 C2059 1.400 . S
C2059 C2058 1.400 . S
C2059 C2060 1.398 . S
C2059 C2065 1.491 . S
C2060 H2051 0.950 . S
C2060 C2059 1.398 . S
C2060 C2061 1.391 . S
C2061 H2049 0.950 . S
C2061 C2057 1.393 . S
C2061 C2060 1.391 . S
C2062 H2052 0.950 . S
C2062 C2063 1.386 . S
C2062 C2064 1.391 . S
C2063 C2062 1.386 . S
C2063 C2067 1.393 . S
C2064 H2053 0.950 . S
C2064 C2062 1.391 . S
C2064 C2065 1.400 . S
C2065 C2059 1.491 . S
C2065 C2064 1.400 . S
C2065 C2066 1.398 . S
C2066 H2054 0.950 . S
C2066 C2065 1.398 . S
C2066 C2067 1.391 . S
C2067 H2055 0.950 . S
C2067 C2063 1.393 . S
C2067 C2066 1.391 . S
H2068 C2076 0.950 . S
H2069 C2081 0.950 . S
H2070 C2078 0.950 . S
H2071 C2080 0.950 . S
H2072 C2082 0.950 . S
H2073 C2084 0.950 . S
H2074 C2086 0.950 . S
H2075 C2087 0.950 . S
C2076 H2068 0.950 . S
C2076 C2077 1.386 . S
C2076 C2078 1.391 . S
C2077 C2076 1.386 . S
C2077 C2081 1.393 . S
C2078 H2070 0.950 . S
C2078 C2076 1.391 . S
C2078 C2079 1.400 . S
C2079 C2078 1.400 . S
C2079 C2080 1.398 . S
C2079 C2085 1.491 . S
C2080 H2071 0.950 . S
C2080 C2079 1.398 . S
C2080 C2081 1.391 . S
C2081 H2069 0.950 . S
C2081 C2077 1.393 . S
C2081 C2080 1.391 . S
C2082 H2072 0.950 . S
C2082 C2083 1.386 . S
C2082 C2084 1.391 . S
C2083 C2082 1.386 . S
C2083 C2087 1.393 . S
C2084 H2073 0.950 . S
C2084 C2082 1.391 . S
C2084 C2085 1.400 . S
C2085 C2079 1.491 . S
C2085 C2084 1.400 . S
C2085 C2086 1.398 . S
C2086 H2074 0.950 . S
C2086 C2085 1.398 . S
C2086 C2087 1.391 . S
C2087 H2075 0.950 . S
C2087 C2083 1.393 . S
C2087 C2086 1.391 . S
H2088 C2096 0.950 . S
H2089 C2101 0.950 . S
H2090 C2098 0.950 . S
H2091 C2100 0.950 . S
H2092 C2102 0.950 . S
H2093 C2104 0.950 . S
H2094 C2106 0.950 . S
H2095 C2107 0.950 . S
C2096 H2088 0.950 . S
C2096 C2097 1.386 . S
C2096 C2098 1.391 . S
C2097 C2096 1.386 . S
C2097 C2101 1.393 . S
C2098 H2090 0.950 . S
C2098 C2096 1.391 . S
C2098 C2099 1.400 . S
C2099 C2098 1.400 . S
C2099 C2100 1.398 . S
C2099 C2105 1.491 . S
C2100 H2091 0.950 . S
C2100 C2099 1.398 . S
C2100 C2101 1.391 . S
C2101 H2089 0.950 . S
C2101 C2097 1.393 . S
C2101 C2100 1.391 . S
C2102 H2092 0.950 . S
C2102 C2103 1.386 . S
C2102 C2104 1.391 . S
C2103 C2102 1.386 . S
C2103 C2107 1.393 . S
C2104 H2093 0.950 . S
C2104 C2102 1.391 . S
C2104 C2105 1.400 . S
C2105 C2099 1.491 . S
C2105 C2104 1.400 . S
C2105 C2106 1.398 . S
C2106 H2094 0.950 . S
C2106 C2105 1.398 . S
C2106 C2107 1.391 . S
C2107 H2095 0.950 . S
C2107 C2103 1.393 . S
C2107 C2106 1.391 . S
H2108 C2116 0.950 . S
H2109 C2121 0.950 . S
H2110 C2118 0.950 . S
H2111 C2120 0.950 . S
H2112 C2122 0.950 . S
H2113 C2124 0.950 . S
H2114 C2126 0.950 . S
H2115 C2127 0.950 . S
C2116 H2108 0.950 . S
C2116 C2117 1.386 . S
C2116 C2118 1.391 . S
C2117 C2116 1.386 . S
C2117 C2121 1.393 . S
C2118 H2110 0.950 . S
C2118 C2116 1.391 . S
C2118 C2119 1.400 . S
C2119 C2118 1.400 . S
C2119 C2120 1.398 . S
C2119 C2125 1.491 . S
C2120 H2111 0.950 . S
C2120 C2119 1.398 . S
C2120 C2121 1.391 . S
C2121 H2109 0.950 . S
C2121 C2117 1.393 . S
C2121 C2120 1.391 . S
C2122 H2112 0.950 . S
C2122 C2123 1.386 . S
C2122 C2124 1.391 . S
C2123 C2122 1.386 . S
C2123 C2127 1.393 . S
C2124 H2113 0.950 . S
C2124 C2122 1.391 . S
C2124 C2125 1.400 . S
C2125 C2119 1.491 . S
C2125 C2124 1.400 . S
C2125 C2126 1.398 . S
C2126 H2114 0.950 . S
C2126 C2125 1.398 . S
C2126 C2127 1.391 . S
C2127 H2115 0.950 . S
C2127 C2123 1.393 . S
C2127 C2126 1.391 . S
H2128 C2136 0.950 . S
H2129 C2141 0.950 . S
H2130 C2138 0.950 . S
H2131 C2140 0.950 . S
H2132 C2142 0.950 . S
H2133 C2144 0.950 . S
H2134 C2146 0.950 . S
H2135 C2147 0.950 . S
C2136 H2128 0.950 . S
C2136 C2137 1.386 . S
C2136 C2138 1.391 . S
C2137 C2136 1.386 . S
C2137 C2141 1.393 . S
C2138 H2130 0.950 . S
C2138 C2136 1.391 . S
C2138 C2139 1.400 . S
C2139 C2138 1.400 . S
C2139 C2140 1.398 . S
C2139 C2145 1.491 . S
C2140 H2131 0.950 . S
C2140 C2139 1.398 . S
C2140 C2141 1.391 . S
C2141 H2129 0.950 . S
C2141 C2137 1.393 . S
C2141 C2140 1.391 . S
C2142 H2132 0.950 . S
C2142 C2143 1.386 . S
C2142 C2144 1.391 . S
C2143 C2142 1.386 . S
C2143 C2147 1.393 . S
C2144 H2133 0.950 . S
C2144 C2142 1.391 . S
C2144 C2145 1.400 . S
C2145 C2139 1.491 . S
C2145 C2144 1.400 . S
C2145 C2146 1.398 . S
C2146 H2134 0.950 . S
C2146 C2145 1.398 . S
C2146 C2147 1.391 . S
C2147 H2135 0.950 . S
C2147 C2143 1.393 . S
C2147 C2146 1.391 . S
H2148 C2156 0.950 . S
H2149 C2161 0.950 . S
H2150 C2158 0.950 . S
H2151 C2160 0.950 . S
H2152 C2162 0.950 . S
H2153 C2164 0.950 . S
H2154 C2166 0.950 . S
H2155 C2167 0.950 . S
C2156 H2148 0.950 . S
C2156 C2157 1.386 . S
C2156 C2158 1.391 . S
C2157 C2156 1.386 . S
C2157 C2161 1.393 . S
C2158 H2150 0.950 . S
C2158 C2156 1.391 . S
C2158 C2159 1.400 . S
C2159 C2158 1.400 . S
C2159 C2160 1.398 . S
C2159 C2165 1.491 . S
C2160 H2151 0.950 . S
C2160 C2159 1.398 . S
C2160 C2161 1.391 . S
C2161 H2149 0.950 . S
C2161 C2157 1.393 . S
C2161 C2160 1.391 . S
C2162 H2152 0.950 . S
C2162 C2163 1.386 . S
C2162 C2164 1.391 . S
C2163 C2162 1.386 . S
C2163 C2167 1.393 . S
C2164 H2153 0.950 . S
C2164 C2162 1.391 . S
C2164 C2165 1.400 . S
C2165 C2159 1.491 . S
C2165 C2164 1.400 . S
C2165 C2166 1.398 . S
C2166 H2154 0.950 . S
C2166 C2165 1.398 . S
C2166 C2167 1.391 . S
C2167 H2155 0.950 . S
C2167 C2163 1.393 . S
C2167 C2166 1.391 . S
H2168 C2176 0.950 1_554 S
H2169 C2181 0.950 . S
H2170 C2178 0.950 1_554 S
H2171 C2180 0.950 . S
H2172 C2182 0.950 . S
H2173 C2184 0.950 . S
H2174 C2186 0.937 1_554 S
H2175 C2187 0.950 1_554 S
C2176 H2168 0.950 1_556 S
C2176 C2177 1.386 . S
C2176 C2178 1.391 . S
C2177 C2176 1.386 . S
C2177 C2181 1.393 . S
C2178 H2170 0.950 1_556 S
C2178 C2176 1.391 . S
C2178 C2179 1.400 . S
C2179 C2178 1.400 . S
C2179 C2180 1.398 . S
C2179 C2185 1.491 . S
C2180 H2171 0.950 . S
C2180 C2179 1.398 . S
C2180 C2181 1.391 . S
C2181 H2169 0.950 . S
C2181 C2177 1.393 . S
C2181 C2180 1.391 . S
C2182 H2172 0.950 . S
C2182 C2183 1.386 . S
C2182 C2184 1.391 . S
C2183 C2182 1.386 . S
C2183 C2187 1.393 . S
C2184 H2173 0.950 . S
C2184 C2182 1.391 . S
C2184 C2185 1.400 . S
C2185 C2179 1.491 . S
C2185 C2184 1.400 . S
C2185 C2186 1.398 . S
C2186 H2174 0.937 1_556 S
C2186 C2185 1.398 . S
C2186 C2187 1.391 . S
C2187 H2175 0.950 1_556 S
C2187 C2183 1.393 . S
C2187 C2186 1.391 . S
H2188 C2196 0.950 . S
H2189 C2201 0.950 . S
H2190 C2198 0.950 . S
H2191 C2200 0.950 . S
H2192 C2202 0.950 . S
H2193 C2204 0.950 . S
H2194 C2206 0.950 . S
H2195 C2207 0.950 . S
C2196 H2188 0.950 . S
C2196 C2197 1.386 . S
C2196 C2198 1.391 . S
C2197 C2196 1.386 . S
C2197 C2201 1.393 . S
C2198 H2190 0.950 . S
C2198 C2196 1.391 . S
C2198 C2199 1.400 . S
C2199 C2198 1.400 . S
C2199 C2200 1.398 . S
C2199 C2205 1.491 . S
C2200 H2191 0.950 . S
C2200 C2199 1.398 . S
C2200 C2201 1.391 . S
C2201 H2189 0.950 . S
C2201 C2197 1.393 . S
C2201 C2200 1.391 . S
C2202 H2192 0.950 . S
C2202 C2203 1.386 . S
C2202 C2204 1.391 . S
C2203 C2202 1.386 . S
C2203 C2207 1.393 . S
C2204 H2193 0.950 . S
C2204 C2202 1.391 . S
C2204 C2205 1.400 . S
C2205 C2199 1.491 . S
C2205 C2204 1.400 . S
C2205 C2206 1.398 . S
C2206 H2194 0.950 . S
C2206 C2205 1.398 . S
C2206 C2207 1.391 . S
C2207 H2195 0.950 . S
C2207 C2203 1.393 . S
C2207 C2206 1.391 . S
H2208 C2216 0.950 . S
H2209 C2221 0.950 . S
H2210 C2218 0.950 . S
H2211 C2220 0.950 . S
H2212 C2222 0.950 . S
H2213 C2224 0.950 . S
H2214 C2226 0.950 . S
H2215 C2227 0.950 . S
C2216 H2208 0.950 . S
C2216 C2217 1.386 . S
C2216 C2218 1.391 . S
C2217 C2216 1.386 . S
C2217 C2221 1.393 . S
C2218 H2210 0.950 . S
C2218 C2216 1.391 . S
C2218 C2219 1.400 . S
C2219 C2218 1.400 . S
C2219 C2220 1.398 . S
C2219 C2225 1.491 . S
C2220 H2211 0.950 . S
C2220 C2219 1.398 . S
C2220 C2221 1.391 . S
C2221 H2209 0.950 . S
C2221 C2217 1.393 . S
C2221 C2220 1.391 . S
C2222 H2212 0.950 . S
C2222 C2223 1.386 . S
C2222 C2224 1.391 . S
C2223 C2222 1.386 . S
C2223 C2227 1.393 . S
C2224 H2213 0.950 . S
C2224 C2222 1.391 . S
C2224 C2225 1.400 . S
C2225 C2219 1.491 . S
C2225 C2224 1.400 . S
C2225 C2226 1.398 . S
C2226 H2214 0.950 . S
C2226 C2225 1.398 . S
C2226 C2227 1.391 . S
C2227 H2215 0.950 . S
C2227 C2223 1.393 . S
C2227 C2226 1.391 . S
H2228 C2236 0.950 . S
H2229 C2241 0.950 . S
H2230 C2238 0.950 . S
H2231 C2240 0.950 . S
H2232 C2242 0.950 . S
H2233 C2244 0.950 . S
H2234 C2246 0.950 . S
H2235 C2247 0.950 . S
C2236 H2228 0.950 . S
C2236 C2237 1.386 . S
C2236 C2238 1.391 . S
C2237 C2236 1.386 . S
C2237 C2241 1.393 . S
C2238 H2230 0.950 . S
C2238 C2236 1.391 . S
C2238 C2239 1.400 . S
C2239 C2238 1.400 . S
C2239 C2240 1.398 . S
C2239 C2245 1.491 . S
C2240 H2231 0.950 . S
C2240 C2239 1.398 . S
C2240 C2241 1.391 . S
C2241 H2229 0.950 . S
C2241 C2237 1.393 . S
C2241 C2240 1.391 . S
C2242 H2232 0.950 . S
C2242 C2243 1.386 . S
C2242 C2244 1.391 . S
C2243 C2242 1.386 . S
C2243 C2247 1.393 . S
C2244 H2233 0.950 . S
C2244 C2242 1.391 . S
C2244 C2245 1.400 . S
C2245 C2239 1.491 . S
C2245 C2244 1.400 . S
C2245 C2246 1.398 . S
C2246 H2234 0.950 . S
C2246 C2245 1.398 . S
C2246 C2247 1.391 . S
C2247 H2235 0.950 . S
C2247 C2243 1.393 . S
C2247 C2246 1.391 . S
H2248 C2256 0.950 . S
H2249 C2261 0.950 . S
H2250 C2258 0.950 . S
H2251 C2260 0.950 . S
H2252 C2262 0.950 . S
H2253 C2264 0.950 . S
H2254 C2266 0.950 . S
H2255 C2267 0.950 . S
C2256 H2248 0.950 . S
C2256 C2257 1.386 . S
C2256 C2258 1.391 . S
C2257 C2256 1.386 . S
C2257 C2261 1.393 . S
C2258 H2250 0.950 . S
C2258 C2256 1.391 . S
C2258 C2259 1.400 . S
C2259 C2258 1.400 . S
C2259 C2260 1.398 . S
C2259 C2265 1.491 . S
C2260 H2251 0.950 . S
C2260 C2259 1.398 . S
C2260 C2261 1.391 . S
C2261 H2249 0.950 . S
C2261 C2257 1.393 . S
C2261 C2260 1.391 . S
C2262 H2252 0.950 . S
C2262 C2263 1.386 . S
C2262 C2264 1.391 . S
C2263 C2262 1.386 . S
C2263 C2267 1.393 . S
C2264 H2253 0.950 . S
C2264 C2262 1.391 . S
C2264 C2265 1.400 . S
C2265 C2259 1.491 . S
C2265 C2264 1.400 . S
C2265 C2266 1.398 . S
C2266 H2254 0.950 . S
C2266 C2265 1.398 . S
C2266 C2267 1.391 . S
C2267 H2255 0.950 . S
C2267 C2263 1.393 . S
C2267 C2266 1.391 . S
H2268 C2276 0.950 . S
H2269 C2281 0.950 . S
H2270 C2278 0.950 . S
H2271 C2280 0.950 . S
H2272 C2282 0.950 . S
H2273 C2284 0.950 . S
H2274 C2286 0.950 . S
H2275 C2287 0.950 . S
C2276 H2268 0.950 . S
C2276 C2277 1.386 . S
C2276 C2278 1.391 . S
C2277 C2276 1.386 . S
C2277 C2281 1.393 . S
C2278 H2270 0.950 . S
C2278 C2276 1.391 . S
C2278 C2279 1.400 . S
C2279 C2278 1.400 . S
C2279 C2280 1.398 . S
C2279 C2285 1.491 . S
C2280 H2271 0.950 . S
C2280 C2279 1.398 . S
C2280 C2281 1.391 . S
C2281 H2269 0.950 . S
C2281 C2277 1.393 . S
C2281 C2280 1.391 . S
C2282 H2272 0.950 . S
C2282 C2283 1.386 . S
C2282 C2284 1.391 . S
C2283 C2282 1.386 . S
C2283 C2287 1.393 . S
C2284 H2273 0.950 . S
C2284 C2282 1.391 . S
C2284 C2285 1.400 . S
C2285 C2279 1.491 . S
C2285 C2284 1.400 . S
C2285 C2286 1.398 . S
C2286 H2274 0.950 . S
C2286 C2285 1.398 . S
C2286 C2287 1.391 . S
C2287 H2275 0.950 . S
C2287 C2283 1.393 . S
C2287 C2286 1.391 . S
H2288 C2296 0.950 . S
H2289 C2301 0.950 . S
H2290 C2298 0.950 . S
H2291 C2300 0.950 . S
H2292 C2302 0.950 . S
H2293 C2304 0.950 . S
H2294 C2306 0.950 . S
H2295 C2307 0.950 . S
C2296 H2288 0.950 . S
C2296 C2297 1.386 . S
C2296 C2298 1.391 . S
C2297 C2296 1.386 . S
C2297 C2301 1.393 . S
C2298 H2290 0.950 . S
C2298 C2296 1.391 . S
C2298 C2299 1.400 . S
C2299 C2298 1.400 . S
C2299 C2300 1.398 . S
C2299 C2305 1.491 . S
C2300 H2291 0.950 . S
C2300 C2299 1.398 . S
C2300 C2301 1.391 . S
C2301 H2289 0.950 . S
C2301 C2297 1.393 . S
C2301 C2300 1.391 . S
C2302 H2292 0.950 . S
C2302 C2303 1.386 . S
C2302 C2304 1.391 . S
C2303 C2302 1.386 . S
C2303 C2307 1.393 . S
C2304 H2293 0.950 . S
C2304 C2302 1.391 . S
C2304 C2305 1.400 . S
C2305 C2299 1.491 . S
C2305 C2304 1.400 . S
C2305 C2306 1.398 . S
C2306 H2294 0.950 . S
C2306 C2305 1.398 . S
C2306 C2307 1.391 . S
C2307 H2295 0.950 . S
C2307 C2303 1.393 . S
C2307 C2306 1.391 . S
H2308 C2316 0.950 . S
H2309 C2321 0.950 . S
H2310 C2318 0.950 . S
H2311 C2320 0.950 . S
H2312 C2322 0.950 . S
H2313 C2324 0.950 . S
H2314 C2326 0.950 . S
H2315 C2327 0.950 . S
C2316 H2308 0.950 . S
C2316 C2317 1.386 . S
C2316 C2318 1.391 . S
C2317 C2316 1.386 . S
C2317 C2321 1.393 . S
C2318 H2310 0.950 . S
C2318 C2316 1.391 . S
C2318 C2319 1.400 . S
C2319 C2318 1.400 . S
C2319 C2320 1.398 . S
C2319 C2325 1.491 . S
C2320 H2311 0.950 . S
C2320 C2319 1.398 . S
C2320 C2321 1.391 . S
C2321 H2309 0.950 . S
C2321 C2317 1.393 . S
C2321 C2320 1.391 . S
C2322 H2312 0.950 . S
C2322 C2323 1.386 . S
C2322 C2324 1.391 . S
C2323 C2322 1.386 . S
C2323 C2327 1.393 . S
C2324 H2313 0.950 . S
C2324 C2322 1.391 . S
C2324 C2325 1.400 . S
C2325 C2319 1.491 . S
C2325 C2324 1.400 . S
C2325 C2326 1.398 . S
C2326 H2314 0.950 . S
C2326 C2325 1.398 . S
C2326 C2327 1.391 . S
C2327 H2315 0.950 . S
C2327 C2323 1.393 . S
C2327 C2326 1.391 . S
H2328 C2336 0.950 . S
H2329 C2341 0.950 . S
H2330 C2338 0.950 . S
H2331 C2340 0.950 . S
H2332 C2342 0.950 . S
H2333 C2344 0.950 . S
H2334 C2346 0.950 . S
H2335 C2347 0.950 . S
C2336 H2328 0.950 . S
C2336 C2337 1.386 . S
C2336 C2338 1.391 . S
C2337 C2336 1.386 . S
C2337 C2341 1.393 . S
C2338 H2330 0.950 . S
C2338 C2336 1.391 . S
C2338 C2339 1.400 . S
C2339 C2338 1.400 . S
C2339 C2340 1.398 . S
C2339 C2345 1.491 . S
C2340 H2331 0.950 . S
C2340 C2339 1.398 . S
C2340 C2341 1.391 . S
C2341 H2329 0.950 . S
C2341 C2337 1.393 . S
C2341 C2340 1.391 . S
C2342 H2332 0.950 . S
C2342 C2343 1.386 . S
C2342 C2344 1.391 . S
C2343 C2342 1.386 . S
C2343 C2347 1.393 . S
C2344 H2333 0.950 . S
C2344 C2342 1.391 . S
C2344 C2345 1.400 . S
C2345 C2339 1.491 . S
C2345 C2344 1.400 . S
C2345 C2346 1.398 . S
C2346 H2334 0.950 . S
C2346 C2345 1.398 . S
C2346 C2347 1.391 . S
C2347 H2335 0.950 . S
C2347 C2343 1.393 . S
C2347 C2346 1.391 . S
H2348 C2356 0.950 . S
H2349 C2361 0.950 . S
H2350 C2358 0.950 . S
H2351 C2360 0.950 . S
H2352 C2362 0.950 . S
H2353 C2364 0.950 . S
H2354 C2366 0.950 . S
H2355 C2367 0.950 . S
C2356 H2348 0.950 . S
C2356 C2357 1.386 . S
C2356 C2358 1.391 . S
C2357 C2356 1.386 . S
C2357 C2361 1.393 . S
C2358 H2350 0.950 . S
C2358 C2356 1.391 . S
C2358 C2359 1.400 . S
C2359 C2358 1.400 . S
C2359 C2360 1.398 . S
C2359 C2365 1.491 . S
C2360 H2351 0.950 . S
C2360 C2359 1.398 . S
C2360 C2361 1.391 . S
C2361 H2349 0.950 . S
C2361 C2357 1.393 . S
C2361 C2360 1.391 . S
C2362 H2352 0.950 . S
C2362 C2363 1.386 . S
C2362 C2364 1.391 . S
C2363 C2362 1.386 . S
C2363 C2367 1.393 . S
C2364 H2353 0.950 . S
C2364 C2362 1.391 . S
C2364 C2365 1.400 . S
C2365 C2359 1.491 . S
C2365 C2364 1.400 . S
C2365 C2366 1.398 . S
C2366 H2354 0.950 . S
C2366 C2365 1.398 . S
C2366 C2367 1.391 . S
C2367 H2355 0.950 . S
C2367 C2363 1.393 . S
C2367 C2366 1.391 . S
H2368 C2376 0.950 . S
H2369 C2381 0.950 . S
H2370 C2378 0.950 . S
H2371 C2380 0.950 . S
H2372 C2382 0.950 . S
H2373 C2384 0.950 . S
H2374 C2386 0.950 . S
H2375 C2387 0.950 . S
C2376 H2368 0.950 . S
C2376 C2377 1.386 . S
C2376 C2378 1.391 . S
C2377 C2376 1.386 . S
C2377 C2381 1.393 . S
C2378 H2370 0.950 . S
C2378 C2376 1.391 . S
C2378 C2379 1.400 . S
C2379 C2378 1.400 . S
C2379 C2380 1.398 . S
C2379 C2385 1.491 . S
C2380 H2371 0.950 . S
C2380 C2379 1.398 . S
C2380 C2381 1.391 . S
C2381 H2369 0.950 . S
C2381 C2377 1.393 . S
C2381 C2380 1.391 . S
C2382 H2372 0.950 . S
C2382 C2383 1.386 . S
C2382 C2384 1.391 . S
C2383 C2382 1.386 . S
C2383 C2387 1.393 . S
C2384 H2373 0.950 . S
C2384 C2382 1.391 . S
C2384 C2385 1.400 . S
C2385 C2379 1.491 . S
C2385 C2384 1.400 . S
C2385 C2386 1.398 . S
C2386 H2374 0.950 . S
C2386 C2385 1.398 . S
C2386 C2387 1.391 . S
C2387 H2375 0.950 . S
C2387 C2383 1.393 . S
C2387 C2386 1.391 . S
H2388 C2396 0.950 . S
H2389 C2401 0.950 . S
H2390 C2398 0.950 . S
H2391 C2400 0.950 . S
H2392 C2402 0.950 . S
H2393 C2404 0.950 . S
H2394 C2406 0.950 . S
H2395 C2407 0.950 . S
C2396 H2388 0.950 . S
C2396 C2397 1.386 . S
C2396 C2398 1.391 . S
C2397 C2396 1.386 . S
C2397 C2401 1.393 . S
C2398 H2390 0.950 . S
C2398 C2396 1.391 . S
C2398 C2399 1.400 . S
C2399 C2398 1.400 . S
C2399 C2400 1.398 . S
C2399 C2405 1.491 . S
C2400 H2391 0.950 . S
C2400 C2399 1.398 . S
C2400 C2401 1.391 . S
C2401 H2389 0.950 . S
C2401 C2397 1.393 . S
C2401 C2400 1.391 . S
C2402 H2392 0.950 . S
C2402 C2403 1.386 . S
C2402 C2404 1.391 . S
C2403 C2402 1.386 . S
C2403 C2407 1.393 . S
C2404 H2393 0.950 . S
C2404 C2402 1.391 . S
C2404 C2405 1.400 . S
C2405 C2399 1.491 . S
C2405 C2404 1.400 . S
C2405 C2406 1.398 . S
C2406 H2394 0.950 . S
C2406 C2405 1.398 . S
C2406 C2407 1.391 . S
C2407 H2395 0.950 . S
C2407 C2403 1.393 . S
C2407 C2406 1.391 . S
H2408 C2416 0.950 . S
H2409 C2421 0.950 . S
H2410 C2418 0.950 . S
H2411 C2420 0.950 . S
H2412 C2422 0.950 . S
H2413 C2424 0.950 . S
H2414 C2426 0.950 . S
H2415 C2427 0.950 . S
C2416 H2408 0.950 . S
C2416 C2417 1.386 . S
C2416 C2418 1.391 . S
C2417 C2416 1.386 . S
C2417 C2421 1.393 . S
C2418 H2410 0.950 . S
C2418 C2416 1.391 . S
C2418 C2419 1.400 . S
C2419 C2418 1.400 . S
C2419 C2420 1.398 . S
C2419 C2425 1.491 . S
C2420 H2411 0.950 . S
C2420 C2419 1.398 . S
C2420 C2421 1.391 . S
C2421 H2409 0.950 . S
C2421 C2417 1.393 . S
C2421 C2420 1.391 . S
C2422 H2412 0.950 . S
C2422 C2423 1.386 . S
C2422 C2424 1.391 . S
C2423 C2422 1.386 . S
C2423 C2427 1.393 . S
C2424 H2413 0.950 . S
C2424 C2422 1.391 . S
C2424 C2425 1.400 . S
C2425 C2419 1.491 . S
C2425 C2424 1.400 . S
C2425 C2426 1.398 . S
C2426 H2414 0.950 . S
C2426 C2425 1.398 . S
C2426 C2427 1.391 . S
C2427 H2415 0.950 . S
C2427 C2423 1.393 . S
C2427 C2426 1.391 . S
H2428 C2436 0.950 . S
H2429 C2441 0.950 . S
H2430 C2438 0.950 . S
H2431 C2440 0.950 . S
H2432 C2442 0.950 . S
H2433 C2444 0.950 . S
H2434 C2446 0.950 . S
H2435 C2447 0.950 . S
C2436 H2428 0.950 . S
C2436 C2437 1.386 . S
C2436 C2438 1.391 . S
C2437 C2436 1.386 . S
C2437 C2441 1.393 . S
C2438 H2430 0.950 . S
C2438 C2436 1.391 . S
C2438 C2439 1.400 . S
C2439 C2438 1.400 . S
C2439 C2440 1.398 . S
C2439 C2445 1.491 . S
C2440 H2431 0.950 . S
C2440 C2439 1.398 . S
C2440 C2441 1.391 . S
C2441 H2429 0.950 . S
C2441 C2437 1.393 . S
C2441 C2440 1.391 . S
C2442 H2432 0.950 . S
C2442 C2443 1.386 . S
C2442 C2444 1.391 . S
C2443 C2442 1.386 . S
C2443 C2447 1.393 . S
C2444 H2433 0.950 . S
C2444 C2442 1.391 . S
C2444 C2445 1.400 . S
C2445 C2439 1.491 . S
C2445 C2444 1.400 . S
C2445 C2446 1.398 . S
C2446 H2434 0.950 . S
C2446 C2445 1.398 . S
C2446 C2447 1.391 . S
C2447 H2435 0.950 . S
C2447 C2443 1.393 . S
C2447 C2446 1.391 . S
H2448 C2456 0.950 . S
H2449 C2461 0.950 . S
H2450 C2458 0.950 . S
H2451 C2460 0.950 . S
H2452 C2462 0.950 . S
H2453 C2464 0.950 . S
H2454 C2466 0.950 . S
H2455 C2467 0.950 . S
C2456 H2448 0.950 . S
C2456 C2457 1.386 . S
C2456 C2458 1.391 . S
C2457 C2456 1.386 . S
C2457 C2461 1.393 . S
C2458 H2450 0.950 . S
C2458 C2456 1.391 . S
C2458 C2459 1.400 . S
C2459 C2458 1.400 . S
C2459 C2460 1.398 . S
C2459 C2465 1.491 . S
C2460 H2451 0.950 . S
C2460 C2459 1.398 . S
C2460 C2461 1.391 . S
C2461 H2449 0.950 . S
C2461 C2457 1.393 . S
C2461 C2460 1.391 . S
C2462 H2452 0.950 . S
C2462 C2463 1.386 . S
C2462 C2464 1.391 . S
C2463 C2462 1.386 . S
C2463 C2467 1.393 . S
C2464 H2453 0.950 . S
C2464 C2462 1.391 . S
C2464 C2465 1.400 . S
C2465 C2459 1.491 . S
C2465 C2464 1.400 . S
C2465 C2466 1.398 . S
C2466 H2454 0.950 . S
C2466 C2465 1.398 . S
C2466 C2467 1.391 . S
C2467 H2455 0.950 . S
C2467 C2463 1.393 . S
C2467 C2466 1.391 . S
H2468 C2476 0.950 . S
H2469 C2481 0.950 . S
H2470 C2478 0.950 . S
H2471 C2480 0.950 . S
H2472 C2482 0.950 . S
H2473 C2484 0.950 . S
H2474 C2486 0.950 . S
H2475 C2487 0.950 . S
C2476 H2468 0.950 . S
C2476 C2477 1.386 . S
C2476 C2478 1.391 . S
C2477 C2476 1.386 . S
C2477 C2481 1.393 . S
C2478 H2470 0.950 . S
C2478 C2476 1.391 . S
C2478 C2479 1.400 . S
C2479 C2478 1.400 . S
C2479 C2480 1.398 . S
C2479 C2485 1.491 . S
C2480 H2471 0.950 . S
C2480 C2479 1.398 . S
C2480 C2481 1.391 . S
C2481 H2469 0.950 . S
C2481 C2477 1.393 . S
C2481 C2480 1.391 . S
C2482 H2472 0.950 . S
C2482 C2483 1.386 . S
C2482 C2484 1.391 . S
C2483 C2482 1.386 . S
C2483 C2487 1.393 . S
C2484 H2473 0.950 . S
C2484 C2482 1.391 . S
C2484 C2485 1.400 . S
C2485 C2479 1.491 . S
C2485 C2484 1.400 . S
C2485 C2486 1.398 . S
C2486 H2474 0.950 . S
C2486 C2485 1.398 . S
C2486 C2487 1.391 . S
C2487 H2475 0.950 . S
C2487 C2483 1.393 . S
C2487 C2486 1.391 . S
H2488 C2496 0.950 . S
H2489 C2501 0.950 . S
H2490 C2498 0.950 . S
H2491 C2500 0.950 . S
H2492 C2502 0.950 . S
H2493 C2504 0.950 . S
H2494 C2506 0.950 . S
H2495 C2507 0.950 . S
C2496 H2488 0.950 . S
C2496 C2497 1.386 . S
C2496 C2498 1.391 . S
C2497 C2496 1.386 . S
C2497 C2501 1.393 . S
C2498 H2490 0.950 . S
C2498 C2496 1.391 . S
C2498 C2499 1.400 . S
C2499 C2498 1.400 . S
C2499 C2500 1.398 . S
C2499 C2505 1.491 . S
C2500 H2491 0.950 . S
C2500 C2499 1.398 . S
C2500 C2501 1.391 . S
C2501 H2489 0.950 . S
C2501 C2497 1.393 . S
C2501 C2500 1.391 . S
C2502 H2492 0.950 . S
C2502 C2503 1.386 . S
C2502 C2504 1.391 . S
C2503 C2502 1.386 . S
C2503 C2507 1.393 . S
C2504 H2493 0.950 . S
C2504 C2502 1.391 . S
C2504 C2505 1.400 . S
C2505 C2499 1.491 . S
C2505 C2504 1.400 . S
C2505 C2506 1.398 . S
C2506 H2494 0.950 . S
C2506 C2505 1.398 . S
C2506 C2507 1.391 . S
C2507 H2495 0.950 . S
C2507 C2503 1.393 . S
C2507 C2506 1.391 . S
H2508 C2516 0.950 . S
H2509 C2521 0.950 . S
H2510 C2518 0.950 1_554 S
H2511 C2520 0.950 1_554 S
H2512 C2522 0.950 . S
H2513 C2524 0.950 . S
H2514 C2526 0.950 . S
H2515 C2527 0.950 . S
C2516 H2508 0.950 . S
C2516 C2517 1.386 . S
C2516 C2518 1.391 . S
C2517 C2516 1.386 . S
C2517 C2521 1.393 . S
C2518 H2510 0.950 1_556 S
C2518 C2516 1.391 . S
C2518 C2519 1.400 1_556 S
C2519 C2518 1.400 1_554 S
C2519 C2520 1.398 1_554 S
C2519 C2525 1.491 . S
C2520 H2511 0.950 1_556 S
C2520 C2519 1.398 1_556 S
C2520 C2521 1.391 . S
C2521 H2509 0.950 . S
C2521 C2517 1.393 . S
C2521 C2520 1.391 . S
C2522 H2512 0.950 . S
C2522 C2523 1.386 . S
C2522 C2524 1.391 . S
C2523 C2522 1.386 . S
C2523 C2527 1.393 . S
C2524 H2513 0.950 . S
C2524 C2522 1.391 . S
C2524 C2525 1.400 . S
C2525 C2519 1.491 . S
C2525 C2524 1.400 . S
C2525 C2526 1.398 . S
C2526 H2514 0.950 . S
C2526 C2525 1.398 . S
C2526 C2527 1.391 . S
C2527 H2515 0.950 . S
C2527 C2523 1.393 . S
C2527 C2526 1.391 . S
H2528 C2536 0.950 . S
H2529 C2541 0.950 . S
H2530 C2538 0.950 1_554 S
H2531 C2540 0.950 1_554 S
H2532 C2542 0.950 . S
H2533 C2544 0.950 . S
H2534 C2546 0.950 . S
H2535 C2547 0.950 . S
C2536 H2528 0.950 . S
C2536 C2537 1.386 . S
C2536 C2538 1.391 . S
C2537 C2536 1.386 . S
C2537 C2541 1.393 . S
C2538 H2530 0.950 1_556 S
C2538 C2536 1.391 . S
C2538 C2539 1.400 1_556 S
C2539 C2538 1.400 1_554 S
C2539 C2540 1.398 1_554 S
C2539 C2545 1.491 . S
C2540 H2531 0.950 1_556 S
C2540 C2539 1.398 1_556 S
C2540 C2541 1.391 . S
C2541 H2529 0.950 . S
C2541 C2537 1.393 . S
C2541 C2540 1.391 . S
C2542 H2532 0.950 . S
C2542 C2543 1.386 . S
C2542 C2544 1.391 . S
C2543 C2542 1.386 . S
C2543 C2547 1.393 . S
C2544 H2533 0.950 . S
C2544 C2542 1.391 . S
C2544 C2545 1.400 . S
C2545 C2539 1.491 . S
C2545 C2544 1.400 . S
C2545 C2546 1.398 . S
C2546 H2534 0.950 . S
C2546 C2545 1.398 . S
C2546 C2547 1.391 . S
C2547 H2535 0.950 . S
C2547 C2543 1.393 . S
C2547 C2546 1.391 . S
H2548 C2556 0.950 . S
H2549 C2561 0.950 . S
H2550 C2558 0.950 1_554 S
H2551 C2560 0.950 1_554 S
H2552 C2562 0.950 . S
H2553 C2564 0.950 . S
H2554 C2566 0.950 . S
H2555 C2567 0.950 . S
C2556 H2548 0.950 . S
C2556 C2557 1.386 . S
C2556 C2558 1.391 . S
C2557 C2556 1.386 . S
C2557 C2561 1.393 . S
C2558 H2550 0.950 1_556 S
C2558 C2556 1.391 . S
C2558 C2559 1.400 1_556 S
C2559 C2558 1.400 1_554 S
C2559 C2560 1.398 1_554 S
C2559 C2565 1.491 . S
C2560 H2551 0.950 1_556 S
C2560 C2559 1.398 1_556 S
C2560 C2561 1.391 . S
C2561 H2549 0.950 . S
C2561 C2557 1.393 . S
C2561 C2560 1.391 . S
C2562 H2552 0.950 . S
C2562 C2563 1.386 . S
C2562 C2564 1.391 . S
C2563 C2562 1.386 . S
C2563 C2567 1.393 . S
C2564 H2553 0.950 . S
C2564 C2562 1.391 . S
C2564 C2565 1.400 . S
C2565 C2559 1.491 . S
C2565 C2564 1.400 . S
C2565 C2566 1.398 . S
C2566 H2554 0.950 . S
C2566 C2565 1.398 . S
C2566 C2567 1.391 . S
C2567 H2555 0.950 . S
C2567 C2563 1.393 . S
C2567 C2566 1.391 . S
H2568 C2576 0.950 . S
H2569 C2581 0.950 . S
H2570 C2578 0.950 . S
H2571 C2580 0.950 . S
H2572 C2582 0.950 . S
H2573 C2584 0.950 . S
H2574 C2586 0.950 . S
H2575 C2587 0.950 . S
C2576 H2568 0.950 . S
C2576 C2577 1.386 . S
C2576 C2578 1.391 . S
C2577 C2576 1.386 . S
C2577 C2581 1.393 . S
C2578 H2570 0.950 . S
C2578 C2576 1.391 . S
C2578 C2579 1.400 . S
C2579 C2578 1.400 . S
C2579 C2580 1.398 . S
C2579 C2585 1.491 . S
C2580 H2571 0.950 . S
C2580 C2579 1.398 . S
C2580 C2581 1.391 . S
C2581 H2569 0.950 . S
C2581 C2577 1.393 . S
C2581 C2580 1.391 . S
C2582 H2572 0.950 . S
C2582 C2583 1.386 . S
C2582 C2584 1.391 . S
C2583 C2582 1.386 . S
C2583 C2587 1.393 . S
C2584 H2573 0.950 . S
C2584 C2582 1.391 . S
C2584 C2585 1.400 . S
C2585 C2579 1.491 . S
C2585 C2584 1.400 . S
C2585 C2586 1.398 . S
C2586 H2574 0.950 . S
C2586 C2585 1.398 . S
C2586 C2587 1.391 . S
C2587 H2575 0.950 . S
C2587 C2583 1.393 . S
C2587 C2586 1.391 . S
H2588 C2596 0.950 . S
H2589 C2601 0.950 . S
H2590 C2598 0.950 . S
H2591 C2600 0.950 . S
H2592 C2602 0.950 . S
H2593 C2604 0.950 . S
H2594 C2606 0.950 . S
H2595 C2607 0.950 . S
C2596 H2588 0.950 . S
C2596 C2597 1.386 . S
C2596 C2598 1.391 . S
C2597 C2596 1.386 . S
C2597 C2601 1.393 . S
C2598 H2590 0.950 . S
C2598 C2596 1.391 . S
C2598 C2599 1.400 . S
C2599 C2598 1.400 . S
C2599 C2600 1.398 . S
C2599 C2605 1.491 . S
C2600 H2591 0.950 . S
C2600 C2599 1.398 . S
C2600 C2601 1.391 . S
C2601 H2589 0.950 . S
C2601 C2597 1.393 . S
C2601 C2600 1.391 . S
C2602 H2592 0.950 . S
C2602 C2603 1.386 . S
C2602 C2604 1.391 . S
C2603 C2602 1.386 . S
C2603 C2607 1.393 . S
C2604 H2593 0.950 . S
C2604 C2602 1.391 . S
C2604 C2605 1.400 . S
C2605 C2599 1.491 . S
C2605 C2604 1.400 . S
C2605 C2606 1.398 . S
C2606 H2594 0.950 . S
C2606 C2605 1.398 . S
C2606 C2607 1.391 . S
C2607 H2595 0.950 . S
C2607 C2603 1.393 . S
C2607 C2606 1.391 . S
H2608 C2616 0.950 . S
H2609 C2621 0.950 . S
H2610 C2618 0.950 . S
H2611 C2620 0.950 . S
H2612 C2622 0.950 . S
H2613 C2624 0.950 . S
H2614 C2626 0.950 . S
H2615 C2627 0.950 . S
C2616 H2608 0.950 . S
C2616 C2617 1.386 . S
C2616 C2618 1.391 . S
C2617 C2616 1.386 . S
C2617 C2621 1.393 . S
C2618 H2610 0.950 . S
C2618 C2616 1.391 . S
C2618 C2619 1.400 . S
C2619 C2618 1.400 . S
C2619 C2620 1.398 . S
C2619 C2625 1.491 . S
C2620 H2611 0.950 . S
C2620 C2619 1.398 . S
C2620 C2621 1.391 . S
C2621 H2609 0.950 . S
C2621 C2617 1.393 . S
C2621 C2620 1.391 . S
C2622 H2612 0.950 . S
C2622 C2623 1.386 . S
C2622 C2624 1.391 . S
C2623 C2622 1.386 . S
C2623 C2627 1.393 . S
C2624 H2613 0.950 . S
C2624 C2622 1.391 . S
C2624 C2625 1.400 . S
C2625 C2619 1.491 . S
C2625 C2624 1.400 . S
C2625 C2626 1.398 . S
C2626 H2614 0.950 . S
C2626 C2625 1.398 . S
C2626 C2627 1.391 . S
C2627 H2615 0.950 . S
C2627 C2623 1.393 . S
C2627 C2626 1.391 . S
H2628 C2636 0.950 . S
H2629 C2641 0.950 . S
H2630 C2638 0.950 . S
H2631 C2640 0.950 . S
H2632 C2642 0.950 . S
H2633 C2644 0.950 . S
H2634 C2646 0.950 . S
H2635 C2647 0.950 . S
C2636 H2628 0.950 . S
C2636 C2637 1.386 . S
C2636 C2638 1.391 . S
C2637 C2636 1.386 . S
C2637 C2641 1.393 . S
C2638 H2630 0.950 . S
C2638 C2636 1.391 . S
C2638 C2639 1.400 . S
C2639 C2638 1.400 . S
C2639 C2640 1.398 . S
C2639 C2645 1.491 . S
C2640 H2631 0.950 . S
C2640 C2639 1.398 . S
C2640 C2641 1.391 . S
C2641 H2629 0.950 . S
C2641 C2637 1.393 . S
C2641 C2640 1.391 . S
C2642 H2632 0.950 . S
C2642 C2643 1.386 . S
C2642 C2644 1.391 . S
C2643 C2642 1.386 . S
C2643 C2647 1.393 . S
C2644 H2633 0.950 . S
C2644 C2642 1.391 . S
C2644 C2645 1.400 . S
C2645 C2639 1.491 . S
C2645 C2644 1.400 . S
C2645 C2646 1.398 . S
C2646 H2634 0.950 . S
C2646 C2645 1.398 . S
C2646 C2647 1.391 . S
C2647 H2635 0.950 . S
C2647 C2643 1.393 . S
C2647 C2646 1.391 . S
H2648 C2656 0.950 . S
H2649 C2661 0.950 . S
H2650 C2658 0.950 . S
H2651 C2660 0.950 . S
H2652 C2662 0.950 . S
H2653 C2664 0.950 . S
H2654 C2666 0.950 . S
H2655 C2667 0.950 . S
C2656 H2648 0.950 . S
C2656 C2657 1.386 . S
C2656 C2658 1.391 . S
C2657 C2656 1.386 . S
C2657 C2661 1.393 . S
C2658 H2650 0.950 . S
C2658 C2656 1.391 . S
C2658 C2659 1.400 . S
C2659 C2658 1.400 . S
C2659 C2660 1.398 . S
C2659 C2665 1.491 . S
C2660 H2651 0.950 . S
C2660 C2659 1.398 . S
C2660 C2661 1.391 . S
C2661 H2649 0.950 . S
C2661 C2657 1.393 . S
C2661 C2660 1.391 . S
C2662 H2652 0.950 . S
C2662 C2663 1.386 . S
C2662 C2664 1.391 . S
C2663 C2662 1.386 . S
C2663 C2667 1.393 . S
C2664 H2653 0.950 . S
C2664 C2662 1.391 . S
C2664 C2665 1.400 . S
C2665 C2659 1.491 . S
C2665 C2664 1.400 . S
C2665 C2666 1.398 . S
C2666 H2654 0.950 . S
C2666 C2665 1.398 . S
C2666 C2667 1.391 . S
C2667 H2655 0.950 . S
C2667 C2663 1.393 . S
C2667 C2666 1.391 . S
H2668 C2676 0.950 . S
H2669 C2681 0.950 . S
H2670 C2678 0.950 . S
H2671 C2680 0.950 . S
H2672 C2682 0.950 . S
H2673 C2684 0.950 . S
H2674 C2686 0.950 . S
H2675 C2687 0.950 . S
C2676 H2668 0.950 . S
C2676 C2677 1.386 . S
C2676 C2678 1.391 . S
C2677 C2676 1.386 . S
C2677 C2681 1.393 . S
C2678 H2670 0.950 . S
C2678 C2676 1.391 . S
C2678 C2679 1.400 . S
C2679 C2678 1.400 . S
C2679 C2680 1.398 . S
C2679 C2685 1.491 . S
C2680 H2671 0.950 . S
C2680 C2679 1.398 . S
C2680 C2681 1.391 . S
C2681 H2669 0.950 . S
C2681 C2677 1.393 . S
C2681 C2680 1.391 . S
C2682 H2672 0.950 . S
C2682 C2683 1.386 . S
C2682 C2684 1.391 . S
C2683 C2682 1.386 . S
C2683 C2687 1.393 . S
C2684 H2673 0.950 . S
C2684 C2682 1.391 . S
C2684 C2685 1.400 . S
C2685 C2679 1.491 . S
C2685 C2684 1.400 . S
C2685 C2686 1.398 . S
C2686 H2674 0.950 . S
C2686 C2685 1.398 . S
C2686 C2687 1.391 . S
C2687 H2675 0.950 . S
C2687 C2683 1.393 . S
C2687 C2686 1.391 . S
H2688 C2696 0.950 . S
H2689 C2701 0.950 . S
H2690 C2698 0.950 . S
H2691 C2700 0.950 . S
H2692 C2702 0.950 . S
H2693 C2704 0.950 1_554 S
H2694 C2706 0.950 1_554 S
H2695 C2707 0.950 . S
C2696 H2688 0.950 . S
C2696 C2697 1.386 . S
C2696 C2698 1.391 . S
C2697 C2696 1.386 . S
C2697 C2701 1.393 . S
C2698 H2690 0.950 . S
C2698 C2696 1.391 . S
C2698 C2699 1.400 . S
C2699 C2698 1.400 . S
C2699 C2700 1.398 . S
C2699 C2705 1.491 . S
C2700 H2691 0.950 . S
C2700 C2699 1.398 . S
C2700 C2701 1.391 . S
C2701 H2689 0.950 . S
C2701 C2697 1.393 . S
C2701 C2700 1.391 . S
C2702 H2692 0.950 . S
C2702 C2703 1.386 . S
C2702 C2704 1.391 . S
C2703 C2702 1.386 . S
C2703 C2707 1.393 . S
C2704 H2693 0.950 1_556 S
C2704 C2702 1.391 . S
C2704 C2705 1.400 1_556 S
C2705 C2699 1.491 . S
C2705 C2704 1.400 1_554 S
C2705 C2706 1.398 1_554 S
C2706 H2694 0.950 1_556 S
C2706 C2705 1.398 1_556 S
C2706 C2707 1.391 . S
C2707 H2695 0.950 . S
C2707 C2703 1.393 . S
C2707 C2706 1.391 . S
H2708 C2716 0.950 . S
H2709 C2721 0.950 . S
H2710 C2718 0.950 1_554 S
H2711 C2720 0.950 1_554 S
H2712 C2722 0.950 . S
H2713 C2724 0.950 . S
H2714 C2726 0.950 . S
H2715 C2727 0.950 . S
C2716 H2708 0.950 . S
C2716 C2717 1.386 . S
C2716 C2718 1.391 . S
C2717 C2716 1.386 . S
C2717 C2721 1.393 . S
C2718 H2710 0.950 1_556 S
C2718 C2716 1.391 . S
C2718 C2719 1.400 1_556 S
C2719 C2718 1.400 1_554 S
C2719 C2720 1.398 1_554 S
C2719 C2725 1.491 . S
C2720 H2711 0.950 1_556 S
C2720 C2719 1.398 1_556 S
C2720 C2721 1.391 . S
C2721 H2709 0.950 . S
C2721 C2717 1.393 . S
C2721 C2720 1.391 . S
C2722 H2712 0.950 . S
C2722 C2723 1.386 . S
C2722 C2724 1.391 . S
C2723 C2722 1.386 . S
C2723 C2727 1.393 . S
C2724 H2713 0.950 . S
C2724 C2722 1.391 . S
C2724 C2725 1.400 . S
C2725 C2719 1.491 . S
C2725 C2724 1.400 . S
C2725 C2726 1.398 . S
C2726 H2714 0.950 . S
C2726 C2725 1.398 . S
C2726 C2727 1.391 . S
C2727 H2715 0.950 . S
C2727 C2723 1.393 . S
C2727 C2726 1.391 . S
H2728 C2736 0.950 . S
H2729 C2741 0.950 . S
H2730 C2738 0.950 1_554 S
H2731 C2740 0.950 1_554 S
H2732 C2742 0.950 . S
H2733 C2744 0.950 . S
H2734 C2746 0.950 . S
H2735 C2747 0.950 . S
C2736 H2728 0.950 . S
C2736 C2737 1.386 . S
C2736 C2738 1.391 . S
C2737 C2736 1.386 . S
C2737 C2741 1.393 . S
C2738 H2730 0.950 1_556 S
C2738 C2736 1.391 . S
C2738 C2739 1.400 1_556 S
C2739 C2738 1.400 1_554 S
C2739 C2740 1.398 1_554 S
C2739 C2745 1.491 . S
C2740 H2731 0.950 1_556 S
C2740 C2739 1.398 1_556 S
C2740 C2741 1.391 . S
C2741 H2729 0.950 . S
C2741 C2737 1.393 . S
C2741 C2740 1.391 . S
C2742 H2732 0.950 . S
C2742 C2743 1.386 . S
C2742 C2744 1.391 . S
C2743 C2742 1.386 . S
C2743 C2747 1.393 . S
C2744 H2733 0.950 . S
C2744 C2742 1.391 . S
C2744 C2745 1.400 . S
C2745 C2739 1.491 . S
C2745 C2744 1.400 . S
C2745 C2746 1.398 . S
C2746 H2734 0.950 . S
C2746 C2745 1.398 . S
C2746 C2747 1.391 . S
C2747 H2735 0.950 . S
C2747 C2743 1.393 . S
C2747 C2746 1.391 . S
H2748 C2756 0.950 . S
H2749 C2761 0.950 . S
H2750 C2758 0.950 . S
H2751 C2760 0.950 . S
H2752 C2762 0.950 . S
H2753 C2764 0.950 . S
H2754 C2766 0.950 . S
H2755 C2767 0.950 . S
C2756 H2748 0.950 . S
C2756 C2757 1.386 . S
C2756 C2758 1.391 . S
C2757 C2756 1.386 . S
C2757 C2761 1.393 . S
C2758 H2750 0.950 . S
C2758 C2756 1.391 . S
C2758 C2759 1.400 . S
C2759 C2758 1.400 . S
C2759 C2760 1.398 . S
C2759 C2765 1.491 . S
C2760 H2751 0.950 . S
C2760 C2759 1.398 . S
C2760 C2761 1.391 . S
C2761 H2749 0.950 . S
C2761 C2757 1.393 . S
C2761 C2760 1.391 . S
C2762 H2752 0.950 . S
C2762 C2763 1.386 . S
C2762 C2764 1.391 . S
C2763 C2762 1.386 . S
C2763 C2767 1.393 . S
C2764 H2753 0.950 . S
C2764 C2762 1.391 . S
C2764 C2765 1.400 . S
C2765 C2759 1.491 . S
C2765 C2764 1.400 . S
C2765 C2766 1.398 . S
C2766 H2754 0.950 . S
C2766 C2765 1.398 . S
C2766 C2767 1.391 . S
C2767 H2755 0.950 . S
C2767 C2763 1.393 . S
C2767 C2766 1.391 . S
H2768 C2776 0.950 . S
H2769 C2781 0.950 . S
H2770 C2778 0.950 . S
H2771 C2780 0.950 . S
H2772 C2782 0.950 . S
H2773 C2784 0.950 . S
H2774 C2786 0.950 . S
H2775 C2787 0.950 . S
C2776 H2768 0.950 . S
C2776 C2777 1.386 . S
C2776 C2778 1.391 . S
C2777 C2776 1.386 . S
C2777 C2781 1.393 . S
C2778 H2770 0.950 . S
C2778 C2776 1.391 . S
C2778 C2779 1.400 . S
C2779 C2778 1.400 . S
C2779 C2780 1.398 . S
C2779 C2785 1.491 . S
C2780 H2771 0.950 . S
C2780 C2779 1.398 . S
C2780 C2781 1.391 . S
C2781 H2769 0.950 . S
C2781 C2777 1.393 . S
C2781 C2780 1.391 . S
C2782 H2772 0.950 . S
C2782 C2783 1.386 . S
C2782 C2784 1.391 . S
C2783 C2782 1.386 . S
C2783 C2787 1.393 . S
C2784 H2773 0.950 . S
C2784 C2782 1.391 . S
C2784 C2785 1.400 . S
C2785 C2779 1.491 . S
C2785 C2784 1.400 . S
C2785 C2786 1.398 . S
C2786 H2774 0.950 . S
C2786 C2785 1.398 . S
C2786 C2787 1.391 . S
C2787 H2775 0.950 . S
C2787 C2783 1.393 . S
C2787 C2786 1.391 . S
H2788 C2796 0.950 . S
H2789 C2801 0.950 . S
H2790 C2798 0.950 . S
H2791 C2800 0.950 . S
H2792 C2802 0.950 . S
H2793 C2804 0.950 . S
H2794 C2806 0.950 . S
H2795 C2807 0.950 . S
C2796 H2788 0.950 . S
C2796 C2797 1.386 . S
C2796 C2798 1.391 . S
C2797 C2796 1.386 . S
C2797 C2801 1.393 . S
C2798 H2790 0.950 . S
C2798 C2796 1.391 . S
C2798 C2799 1.400 . S
C2799 C2798 1.400 . S
C2799 C2800 1.398 . S
C2799 C2805 1.491 . S
C2800 H2791 0.950 . S
C2800 C2799 1.398 . S
C2800 C2801 1.391 . S
C2801 H2789 0.950 . S
C2801 C2797 1.393 . S
C2801 C2800 1.391 . S
C2802 H2792 0.950 . S
C2802 C2803 1.386 . S
C2802 C2804 1.391 . S
C2803 C2802 1.386 . S
C2803 C2807 1.393 . S
C2804 H2793 0.950 . S
C2804 C2802 1.391 . S
C2804 C2805 1.400 . S
C2805 C2799 1.491 . S
C2805 C2804 1.400 . S
C2805 C2806 1.398 . S
C2806 H2794 0.950 . S
C2806 C2805 1.398 . S
C2806 C2807 1.391 . S
C2807 H2795 0.950 . S
C2807 C2803 1.393 . S
C2807 C2806 1.391 . S
H2808 C2816 0.950 . S
H2809 C2821 0.950 . S
H2810 C2818 0.950 1_556 S
H2811 C2820 0.950 1_556 S
H2812 C2822 0.950 . S
H2813 C2824 0.950 . S
H2814 C2826 0.950 . S
H2815 C2827 0.950 . S
C2816 H2808 0.950 . S
C2816 C2817 1.386 . S
C2816 C2818 1.391 . S
C2817 C2816 1.386 . S
C2817 C2821 1.393 . S
C2818 H2810 0.950 1_554 S
C2818 C2816 1.391 . S
C2818 C2819 1.400 1_554 S
C2819 C2818 1.400 1_556 S
C2819 C2820 1.398 1_556 S
C2819 C2825 1.491 . S
C2820 H2811 0.950 1_554 S
C2820 C2819 1.398 1_554 S
C2820 C2821 1.391 . S
C2821 H2809 0.950 . S
C2821 C2817 1.393 . S
C2821 C2820 1.391 . S
C2822 H2812 0.950 . S
C2822 C2823 1.386 . S
C2822 C2824 1.391 . S
C2823 C2822 1.386 . S
C2823 C2827 1.393 . S
C2824 H2813 0.950 . S
C2824 C2822 1.391 . S
C2824 C2825 1.400 . S
C2825 C2819 1.491 . S
C2825 C2824 1.400 . S
C2825 C2826 1.398 . S
C2826 H2814 0.950 . S
C2826 C2825 1.398 . S
C2826 C2827 1.391 . S
C2827 H2815 0.950 . S
C2827 C2823 1.393 . S
C2827 C2826 1.391 . S
H2828 C2836 0.950 . S
H2829 C2841 0.950 . S
H2830 C2838 0.950 . S
H2831 C2840 0.950 . S
H2832 C2842 0.950 . S
H2833 C2844 0.950 1_556 S
H2834 C2846 0.950 1_556 S
H2835 C2847 0.950 . S
C2836 H2828 0.950 . S
C2836 C2837 1.386 . S
C2836 C2838 1.391 . S
C2837 C2836 1.386 . S
C2837 C2841 1.393 . S
C2838 H2830 0.950 . S
C2838 C2836 1.391 . S
C2838 C2839 1.400 . S
C2839 C2838 1.400 . S
C2839 C2840 1.398 . S
C2839 C2845 1.491 . S
C2840 H2831 0.950 . S
C2840 C2839 1.398 . S
C2840 C2841 1.391 . S
C2841 H2829 0.950 . S
C2841 C2837 1.393 . S
C2841 C2840 1.391 . S
C2842 H2832 0.950 . S
C2842 C2843 1.386 . S
C2842 C2844 1.391 . S
C2843 C2842 1.386 . S
C2843 C2847 1.393 . S
C2844 H2833 0.950 1_554 S
C2844 C2842 1.391 . S
C2844 C2845 1.400 1_554 S
C2845 C2839 1.491 . S
C2845 C2844 1.400 1_556 S
C2845 C2846 1.398 1_556 S
C2846 H2834 0.950 1_554 S
C2846 C2845 1.398 1_554 S
C2846 C2847 1.391 . S
C2847 H2835 0.950 . S
C2847 C2843 1.393 . S
C2847 C2846 1.391 . S
H2848 C2856 0.950 . S
H2849 C2861 0.950 . S
H2850 C2858 0.950 1_556 S
H2851 C2860 0.950 1_556 S
H2852 C2862 0.950 . S
H2853 C2864 0.950 . S
H2854 C2866 0.950 . S
H2855 C2867 0.950 . S
C2856 H2848 0.950 . S
C2856 C2857 1.386 . S
C2856 C2858 1.391 . S
C2857 C2856 1.386 . S
C2857 C2861 1.393 . S
C2858 H2850 0.950 1_554 S
C2858 C2856 1.391 . S
C2858 C2859 1.400 1_554 S
C2859 C2858 1.400 1_556 S
C2859 C2860 1.398 1_556 S
C2859 C2865 1.491 . S
C2860 H2851 0.950 1_554 S
C2860 C2859 1.398 1_554 S
C2860 C2861 1.391 . S
C2861 H2849 0.950 . S
C2861 C2857 1.393 . S
C2861 C2860 1.391 . S
C2862 H2852 0.950 . S
C2862 C2863 1.386 . S
C2862 C2864 1.391 . S
C2863 C2862 1.386 . S
C2863 C2867 1.393 . S
C2864 H2853 0.950 . S
C2864 C2862 1.391 . S
C2864 C2865 1.400 . S
C2865 C2859 1.491 . S
C2865 C2864 1.400 . S
C2865 C2866 1.398 . S
C2866 H2854 0.950 . S
C2866 C2865 1.398 . S
C2866 C2867 1.391 . S
C2867 H2855 0.950 . S
C2867 C2863 1.393 . S
C2867 C2866 1.391 . S
H2868 C2876 0.950 . S
H2869 C2881 0.950 . S
H2870 C2878 0.950 . S
H2871 C2880 0.950 . S
H2872 C2882 0.950 . S
H2873 C2884 0.950 1_556 S
H2874 C2886 0.950 1_556 S
H2875 C2887 0.950 . S
C2876 H2868 0.950 . S
C2876 C2877 1.386 . S
C2876 C2878 1.391 . S
C2877 C2876 1.386 . S
C2877 C2881 1.393 . S
C2878 H2870 0.950 . S
C2878 C2876 1.391 . S
C2878 C2879 1.400 . S
C2879 C2878 1.400 . S
C2879 C2880 1.398 . S
C2879 C2885 1.491 . S
C2880 H2871 0.950 . S
C2880 C2879 1.398 . S
C2880 C2881 1.391 . S
C2881 H2869 0.950 . S
C2881 C2877 1.393 . S
C2881 C2880 1.391 . S
C2882 H2872 0.950 . S
C2882 C2883 1.386 . S
C2882 C2884 1.391 . S
C2883 C2882 1.386 . S
C2883 C2887 1.393 . S
C2884 H2873 0.950 1_554 S
C2884 C2882 1.391 . S
C2884 C2885 1.400 1_554 S
C2885 C2879 1.491 . S
C2885 C2884 1.400 1_556 S
C2885 C2886 1.398 1_556 S
C2886 H2874 0.950 1_554 S
C2886 C2885 1.398 1_554 S
C2886 C2887 1.391 . S
C2887 H2875 0.950 . S
C2887 C2883 1.393 . S
C2887 C2886 1.391 . S
H2888 C2896 0.950 . S
H2889 C2901 0.950 . S
H2890 C2898 0.950 . S
H2891 C2900 0.950 . S
H2892 C2902 0.950 . S
H2893 C2904 0.950 1_556 S
H2894 C2906 0.950 1_556 S
H2895 C2907 0.950 . S
C2896 H2888 0.950 . S
C2896 C2897 1.386 . S
C2896 C2898 1.391 . S
C2897 C2896 1.386 . S
C2897 C2901 1.393 . S
C2898 H2890 0.950 . S
C2898 C2896 1.391 . S
C2898 C2899 1.400 . S
C2899 C2898 1.400 . S
C2899 C2900 1.398 . S
C2899 C2905 1.491 . S
C2900 H2891 0.950 . S
C2900 C2899 1.398 . S
C2900 C2901 1.391 . S
C2901 H2889 0.950 . S
C2901 C2897 1.393 . S
C2901 C2900 1.391 . S
C2902 H2892 0.950 . S
C2902 C2903 1.386 . S
C2902 C2904 1.391 . S
C2903 C2902 1.386 . S
C2903 C2907 1.393 . S
C2904 H2893 0.950 1_554 S
C2904 C2902 1.391 . S
C2904 C2905 1.400 1_554 S
C2905 C2899 1.491 . S
C2905 C2904 1.400 1_556 S
C2905 C2906 1.398 1_556 S
C2906 H2894 0.950 1_554 S
C2906 C2905 1.398 1_554 S
C2906 C2907 1.391 . S
C2907 H2895 0.950 . S
C2907 C2903 1.393 . S
C2907 C2906 1.391 . S
H2908 C2916 0.950 . S
H2909 C2921 0.950 . S
H2910 C2918 0.950 . S
H2911 C2920 0.950 . S
H2912 C2922 0.950 . S
H2913 C2924 0.950 1_556 S
H2914 C2926 0.950 1_556 S
H2915 C2927 0.950 . S
C2916 H2908 0.950 . S
C2916 C2917 1.386 . S
C2916 C2918 1.391 . S
C2917 C2916 1.386 . S
C2917 C2921 1.393 . S
C2918 H2910 0.950 . S
C2918 C2916 1.391 . S
C2918 C2919 1.400 . S
C2919 C2918 1.400 . S
C2919 C2920 1.398 . S
C2919 C2925 1.491 . S
C2920 H2911 0.950 . S
C2920 C2919 1.398 . S
C2920 C2921 1.391 . S
C2921 H2909 0.950 . S
C2921 C2917 1.393 . S
C2921 C2920 1.391 . S
C2922 H2912 0.950 . S
C2922 C2923 1.386 . S
C2922 C2924 1.391 . S
C2923 C2922 1.386 . S
C2923 C2927 1.393 . S
C2924 H2913 0.950 1_554 S
C2924 C2922 1.391 . S
C2924 C2925 1.400 1_554 S
C2925 C2919 1.491 . S
C2925 C2924 1.400 1_556 S
C2925 C2926 1.398 1_556 S
C2926 H2914 0.950 1_554 S
C2926 C2925 1.398 1_554 S
C2926 C2927 1.391 . S
C2927 H2915 0.950 . S
C2927 C2923 1.393 . S
C2927 C2926 1.391 . S
H2928 C2936 0.950 . S
H2929 C2941 0.950 . S
H2930 C2938 0.950 . S
H2931 C2940 0.950 . S
H2932 C2942 0.950 . S
H2933 C2944 0.950 . S
H2934 C2946 0.950 . S
H2935 C2947 0.950 . S
C2936 H2928 0.950 . S
C2936 C2937 1.386 . S
C2936 C2938 1.391 . S
C2937 C2936 1.386 . S
C2937 C2941 1.393 . S
C2938 H2930 0.950 . S
C2938 C2936 1.391 . S
C2938 C2939 1.400 . S
C2939 C2938 1.400 . S
C2939 C2940 1.398 . S
C2939 C2945 1.491 . S
C2940 H2931 0.950 . S
C2940 C2939 1.398 . S
C2940 C2941 1.391 . S
C2941 H2929 0.950 . S
C2941 C2937 1.393 . S
C2941 C2940 1.391 . S
C2942 H2932 0.950 . S
C2942 C2943 1.386 . S
C2942 C2944 1.391 . S
C2943 C2942 1.386 . S
C2943 C2947 1.393 . S
C2944 H2933 0.950 . S
C2944 C2942 1.391 . S
C2944 C2945 1.400 . S
C2945 C2939 1.491 . S
C2945 C2944 1.400 . S
C2945 C2946 1.398 . S
C2946 H2934 0.950 . S
C2946 C2945 1.398 . S
C2946 C2947 1.391 . S
C2947 H2935 0.950 . S
C2947 C2943 1.393 . S
C2947 C2946 1.391 . S
H2948 C2956 0.950 . S
H2949 C2961 0.950 . S
H2950 C2958 0.950 . S
H2951 C2960 0.950 . S
H2952 C2962 0.950 . S
H2953 C2964 0.950 . S
H2954 C2966 0.950 . S
H2955 C2967 0.950 . S
C2956 H2948 0.950 . S
C2956 C2957 1.386 . S
C2956 C2958 1.391 . S
C2957 C2956 1.386 . S
C2957 C2961 1.393 . S
C2958 H2950 0.950 . S
C2958 C2956 1.391 . S
C2958 C2959 1.400 . S
C2959 C2958 1.400 . S
C2959 C2960 1.398 . S
C2959 C2965 1.491 . S
C2960 H2951 0.950 . S
C2960 C2959 1.398 . S
C2960 C2961 1.391 . S
C2961 H2949 0.950 . S
C2961 C2957 1.393 . S
C2961 C2960 1.391 . S
C2962 H2952 0.950 . S
C2962 C2963 1.386 . S
C2962 C2964 1.391 . S
C2963 C2962 1.386 . S
C2963 C2967 1.393 . S
C2964 H2953 0.950 . S
C2964 C2962 1.391 . S
C2964 C2965 1.400 . S
C2965 C2959 1.491 . S
C2965 C2964 1.400 . S
C2965 C2966 1.398 . S
C2966 H2954 0.950 . S
C2966 C2965 1.398 . S
C2966 C2967 1.391 . S
C2967 H2955 0.950 . S
C2967 C2963 1.393 . S
C2967 C2966 1.391 . S
H2968 C2976 0.950 . S
H2969 C2981 0.950 . S
H2970 C2978 0.950 . S
H2971 C2980 0.950 . S
H2972 C2982 0.950 . S
H2973 C2984 0.950 . S
H2974 C2986 0.950 . S
H2975 C2987 0.950 . S
C2976 H2968 0.950 . S
C2976 C2977 1.386 . S
C2976 C2978 1.391 . S
C2977 C2976 1.386 . S
C2977 C2981 1.393 . S
C2978 H2970 0.950 . S
C2978 C2976 1.391 . S
C2978 C2979 1.400 . S
C2979 C2978 1.400 . S
C2979 C2980 1.398 . S
C2979 C2985 1.491 . S
C2980 H2971 0.950 . S
C2980 C2979 1.398 . S
C2980 C2981 1.391 . S
C2981 H2969 0.950 . S
C2981 C2977 1.393 . S
C2981 C2980 1.391 . S
C2982 H2972 0.950 . S
C2982 C2983 1.386 . S
C2982 C2984 1.391 . S
C2983 C2982 1.386 . S
C2983 C2987 1.393 . S
C2984 H2973 0.950 . S
C2984 C2982 1.391 . S
C2984 C2985 1.400 . S
C2985 C2979 1.491 . S
C2985 C2984 1.400 . S
C2985 C2986 1.398 . S
C2986 H2974 0.950 . S
C2986 C2985 1.398 . S
C2986 C2987 1.391 . S
C2987 H2975 0.950 . S
C2987 C2983 1.393 . S
C2987 C2986 1.391 . S
C1197 C28 0.935 . S
C1203 C523 0.922 . S
C1217 C556 0.925 . S
C1223 C61 0.924 . S
C1237 C589 0.927 . S
C1243 C94 0.924 . S
C1257 C820 0.937 . S
C1263 C127 0.920 . S
C1277 C160 0.933 . S
C1283 C853 0.922 . S
C1297 C886 0.922 . S
C1303 C193 0.932 . S
C1317 C1117 0.936 . S
C1323 C226 0.919 . S
C1337 C259 0.934 . S
C1343 C1150 0.920 . S
C1357 C1183 0.936 . S
C1363 C292 0.918 . S
C1377 C622 0.922 . S
C1383 C325 0.935 . S
C1397 C655 0.925 . S
C1403 C358 0.930 . S
C1417 C688 0.934 . S
C1423 C391 0.917 . S
C1437 C919 0.921 . S
C1443 C424 0.936 . S
C1457 C952 0.925 . S
C1463 C457 0.926 . S
C1477 C490 0.925 . S
C1483 C985 0.930 . S
C1497 C721 0.919 . S
C1503 C1018 0.935 . S
C1517 C1051 0.930 . S
C1523 C754 0.921 . S
C1537 C787 0.928 . S
C1543 C1084 0.927 . S
C1557 C965 1.549 . S
C1563 C8 1.556 . S
C1577 C41 1.557 . S
C1583 C899 1.548 . S
C1597 C932 1.556 . S
C1603 C74 1.550 . S
C1617 C437 1.556 . S
C1623 C107 1.550 . S
C1637 C470 1.554 . S
C1643 C140 1.551 . S
C1657 C404 1.550 . S
C1663 C173 1.555 . S
C1677 C206 1.548 . S
C1683 C767 1.558 . S
C1697 C701 1.558 . S
C1703 C239 1.547 . S
C1717 C272 1.557 . S
C1723 C734 1.548 . S
C1737 C1031 1.553 . S
C1743 C305 1.553 . S
C1757 C338 1.553 . S
C1763 C1064 1.553 . S
C1777 C371 1.555 . S
C1783 C998 1.550 . S
C1797 C833 1.555 . S
C1803 C503 1.551 . S
C1817 C866 1.556 . S
C1823 C536 1.550 . S
C1837 C569 1.551 . S
C1843 C800 1.555 . S
C1857 C602 1.550 . S
C1863 C1163 1.556 . S
C1877 C1097 1.548 . S
C1883 C635 1.558 . S
C1897 C1130 1.552 . S
C1903 C668 1.554 . S
C1917 C17 1.412 . S
C1923 C380 1.412 . S
C1937 C50 1.404 . S
C1943 C314 1.421 . S
C1957 C83 1.420 . S
C1963 C347 1.404 . S
C1977 C116 1.406 . S
C1983 C248 1.419 . S
C1997 C281 1.409 . S
C2003 C149 1.415 . S
C2017 C215 1.407 . S
C2023 C182 1.417 . S
C2037 C776 1.420 . S
C2043 C413 1.405 . S
C2057 C710 1.420 . S
C2063 C446 1.404 . S
C2077 C479 1.404 . S
C2083 C743 1.420 . S
C2097 C644 1.405 . S
C2103 C512 1.420 . S
C2117 C677 1.415 . S
C2123 C545 1.408 . S
C2137 C611 1.409 . S
C2143 C578 1.416 . S
C2157 C1172 1.417 . S
C2163 C809 1.408 . S
C2177 C842 1.405 . S
C2183 C1106 1.420 . S
C2197 C1139 1.412 . S
C2203 C875 1.411 . S
C2217 C1040 1.420 . S
C2223 C908 1.404 . S
C2237 C1073 1.416 . S
C2243 C941 1.408 . S
C2257 C1007 1.406 . S
C2263 C974 1.419 . S
C2277 N5 1.467 1_556 S
C2283 N14 1.462 . S
C2297 N47 1.462 . S
C2303 N38 1.469 1_556 S
C2317 N71 1.479 1_556 S
C2323 N80 1.475 . S
C2337 N113 1.458 . S
C2343 N104 1.465 1_554 S
C2357 N146 1.455 . S
C2363 N137 1.461 1_554 S
C2377 N179 1.456 . S
C2383 N170 1.462 1_554 S
C2397 N212 1.475 . S
C2403 N203 1.479 1_554 S
C2417 N245 1.455 . S
C2423 N236 1.461 1_554 S
C2437 N269 1.465 1_554 S
C2443 N278 1.458 . S
C2457 N302 1.462 1_556 S
C2463 N311 1.455 . S
C2477 N344 1.455 . S
C2483 N335 1.461 1_556 S
C2497 N368 1.478 1_556 S
C2503 N377 1.474 . S
C2517 N410 1.465 . S
C2523 N401 1.469 . S
C2537 N443 1.471 . S
C2543 N434 1.476 . S
C2557 N476 1.474 . S
C2563 N467 1.478 . S
C2577 N509 1.463 . S
C2583 N500 1.468 . S
C2597 N542 1.474 . S
C2603 N533 1.479 . S
C2617 N566 1.479 . S
C2623 N575 1.475 . S
C2637 N608 1.471 . S
C2643 N599 1.477 . S
C2657 N632 1.461 . S
C2663 N641 1.456 . S
C2677 N665 1.479 . S
C2683 N674 1.474 . S
C2697 N698 1.475 . S
C2703 N707 1.471 . S
C2717 N740 1.474 . S
C2723 N731 1.479 . S
C2737 N773 1.457 . S
C2743 N764 1.463 . S
C2757 N797 1.472 . S
C2763 N806 1.465 . S
C2777 N830 1.462 . S
C2783 N839 1.456 . S
C2797 N872 1.464 . S
C2803 N863 1.468 . S
C2817 N905 1.475 . S
C2823 N896 1.479 . S
C2837 N929 1.477 . S
C2843 N938 1.471 . S
C2857 N971 1.460 . S
C2863 N962 1.465 . S
C2877 N995 1.464 . S
C2883 N1004 1.457 . S
C2897 N1028 1.464 . S
C2903 N1037 1.458 . S
C2917 N1061 1.476 . S
C2923 N1070 1.472 . S
C2937 N1103 1.459 . S
C2943 N1094 1.464 . S
C2957 N1127 1.465 . S
C2963 N1136 1.458 . S
C2977 N1169 1.473 . S
C2983 N1160 1.478 . S
