# Generated by pormake.
# Topology uke, (4)-cn, num edge types: 1
# Building blocks:
#     Node 0, Type 0, BuildingBlock: KUFVIS_clean_sbu_0, # of connection points: 4
#     Node 1, Type 0, BuildingBlock: KUFVIS_clean_sbu_0, # of connection points: 4
#     Node 2, Type 0, BuildingBlock: KUFVIS_clean_sbu_0, # of connection points: 4
#     Node 3, Type 0, BuildingBlock: KUFVIS_clean_sbu_0, # of connection points: 4
#     Node 4, Type 0, BuildingBlock: KUFVIS_clean_sbu_0, # of connection points: 4
#     Node 5, Type 0, BuildingBlock: KUFVIS_clean_sbu_0, # of connection points: 4
#     Node 6, Type 0, BuildingBlock: KUFVIS_clean_sbu_0, # of connection points: 4
#     Node 7, Type 0, BuildingBlock: KUFVIS_clean_sbu_0, # of connection points: 4
#     Node 8, Type 0, BuildingBlock: KUFVIS_clean_sbu_0, # of connection points: 4
#     Node 9, Type 0, BuildingBlock: KUFVIS_clean_sbu_0, # of connection points: 4
#     Node 10, Type 0, BuildingBlock: KUFVIS_clean_sbu_0, # of connection points: 4
#     Node 11, Type 0, BuildingBlock: KUFVIS_clean_sbu_0, # of connection points: 4
#     Node 12, Type 0, BuildingBlock: KUFVIS_clean_sbu_0, # of connection points: 4
#     Node 13, Type 0, BuildingBlock: KUFVIS_clean_sbu_0, # of connection points: 4
#     Node 14, Type 0, BuildingBlock: KUFVIS_clean_sbu_0, # of connection points: 4
#     Node 15, Type 0, BuildingBlock: KUFVIS_clean_sbu_0, # of connection points: 4
#     Node 16, Type 0, BuildingBlock: KUFVIS_clean_sbu_0, # of connection points: 4
#     Node 17, Type 0, BuildingBlock: KUFVIS_clean_sbu_0, # of connection points: 4
#     Node 18, Type 0, BuildingBlock: KUFVIS_clean_sbu_0, # of connection points: 4
#     Node 19, Type 0, BuildingBlock: KUFVIS_clean_sbu_0, # of connection points: 4
#     Node 20, Type 0, BuildingBlock: KUFVIS_clean_sbu_0, # of connection points: 4
#     Node 21, Type 0, BuildingBlock: KUFVIS_clean_sbu_0, # of connection points: 4
#     Node 22, Type 0, BuildingBlock: KUFVIS_clean_sbu_0, # of connection points: 4
#     Node 23, Type 0, BuildingBlock: KUFVIS_clean_sbu_0, # of connection points: 4
#     Node 24, Type 0, BuildingBlock: KUFVIS_clean_sbu_0, # of connection points: 4
#     Node 25, Type 0, BuildingBlock: KUFVIS_clean_sbu_0, # of connection points: 4
#     Node 26, Type 0, BuildingBlock: KUFVIS_clean_sbu_0, # of connection points: 4
#     Node 27, Type 0, BuildingBlock: KUFVIS_clean_sbu_0, # of connection points: 4
#     Node 28, Type 0, BuildingBlock: KUFVIS_clean_sbu_0, # of connection points: 4
#     Node 29, Type 0, BuildingBlock: KUFVIS_clean_sbu_0, # of connection points: 4
#     Node 30, Type 0, BuildingBlock: KUFVIS_clean_sbu_0, # of connection points: 4
#     Node 31, Type 0, BuildingBlock: KUFVIS_clean_sbu_0, # of connection points: 4
#     Edge 32, Type (0, 0), BuildingBlock: UVAHIK_clean_linker_0, # of connection points: 2
#     Edge 33, Type (0, 0), BuildingBlock: UVAHIK_clean_linker_0, # of connection points: 2
#     Edge 34, Type (0, 0), BuildingBlock: UVAHIK_clean_linker_0, # of connection points: 2
#     Edge 35, Type (0, 0), BuildingBlock: UVAHIK_clean_linker_0, # of connection points: 2
#     Edge 36, Type (0, 0), BuildingBlock: UVAHIK_clean_linker_0, # of connection points: 2
#     Edge 37, Type (0, 0), BuildingBlock: UVAHIK_clean_linker_0, # of connection points: 2
#     Edge 38, Type (0, 0), BuildingBlock: UVAHIK_clean_linker_0, # of connection points: 2
#     Edge 39, Type (0, 0), BuildingBlock: UVAHIK_clean_linker_0, # of connection points: 2
#     Edge 40, Type (0, 0), BuildingBlock: UVAHIK_clean_linker_0, # of connection points: 2
#     Edge 41, Type (0, 0), BuildingBlock: UVAHIK_clean_linker_0, # of connection points: 2
#     Edge 42, Type (0, 0), BuildingBlock: UVAHIK_clean_linker_0, # of connection points: 2
#     Edge 43, Type (0, 0), BuildingBlock: UVAHIK_clean_linker_0, # of connection points: 2
#     Edge 44, Type (0, 0), BuildingBlock: UVAHIK_clean_linker_0, # of connection points: 2
#     Edge 45, Type (0, 0), BuildingBlock: UVAHIK_clean_linker_0, # of connection points: 2
#     Edge 46, Type (0, 0), BuildingBlock: UVAHIK_clean_linker_0, # of connection points: 2
#     Edge 47, Type (0, 0), BuildingBlock: UVAHIK_clean_linker_0, # of connection points: 2
#     Edge 48, Type (0, 0), BuildingBlock: UVAHIK_clean_linker_0, # of connection points: 2
#     Edge 49, Type (0, 0), BuildingBlock: UVAHIK_clean_linker_0, # of connection points: 2
#     Edge 50, Type (0, 0), BuildingBlock: UVAHIK_clean_linker_0, # of connection points: 2
#     Edge 51, Type (0, 0), BuildingBlock: UVAHIK_clean_linker_0, # of connection points: 2
#     Edge 52, Type (0, 0), BuildingBlock: UVAHIK_clean_linker_0, # of connection points: 2
#     Edge 53, Type (0, 0), BuildingBlock: UVAHIK_clean_linker_0, # of connection points: 2
#     Edge 54, Type (0, 0), BuildingBlock: UVAHIK_clean_linker_0, # of connection points: 2
#     Edge 55, Type (0, 0), BuildingBlock: UVAHIK_clean_linker_0, # of connection points: 2
#     Edge 56, Type (0, 0), BuildingBlock: UVAHIK_clean_linker_0, # of connection points: 2
#     Edge 57, Type (0, 0), BuildingBlock: UVAHIK_clean_linker_0, # of connection points: 2
#     Edge 58, Type (0, 0), BuildingBlock: UVAHIK_clean_linker_0, # of connection points: 2
#     Edge 59, Type (0, 0), BuildingBlock: UVAHIK_clean_linker_0, # of connection points: 2
#     Edge 60, Type (0, 0), BuildingBlock: UVAHIK_clean_linker_0, # of connection points: 2
#     Edge 61, Type (0, 0), BuildingBlock: UVAHIK_clean_linker_0, # of connection points: 2
#     Edge 62, Type (0, 0), BuildingBlock: UVAHIK_clean_linker_0, # of connection points: 2
#     Edge 63, Type (0, 0), BuildingBlock: UVAHIK_clean_linker_0, # of connection points: 2
#     Edge 64, Type (0, 0), BuildingBlock: UVAHIK_clean_linker_0, # of connection points: 2
#     Edge 65, Type (0, 0), BuildingBlock: UVAHIK_clean_linker_0, # of connection points: 2
#     Edge 66, Type (0, 0), BuildingBlock: UVAHIK_clean_linker_0, # of connection points: 2
#     Edge 67, Type (0, 0), BuildingBlock: UVAHIK_clean_linker_0, # of connection points: 2
#     Edge 68, Type (0, 0), BuildingBlock: UVAHIK_clean_linker_0, # of connection points: 2
#     Edge 69, Type (0, 0), BuildingBlock: UVAHIK_clean_linker_0, # of connection points: 2
#     Edge 70, Type (0, 0), BuildingBlock: UVAHIK_clean_linker_0, # of connection points: 2
#     Edge 71, Type (0, 0), BuildingBlock: UVAHIK_clean_linker_0, # of connection points: 2
#     Edge 72, Type (0, 0), BuildingBlock: UVAHIK_clean_linker_0, # of connection points: 2
#     Edge 73, Type (0, 0), BuildingBlock: UVAHIK_clean_linker_0, # of connection points: 2
#     Edge 74, Type (0, 0), BuildingBlock: UVAHIK_clean_linker_0, # of connection points: 2
#     Edge 75, Type (0, 0), BuildingBlock: UVAHIK_clean_linker_0, # of connection points: 2
#     Edge 76, Type (0, 0), BuildingBlock: UVAHIK_clean_linker_0, # of connection points: 2
#     Edge 77, Type (0, 0), BuildingBlock: UVAHIK_clean_linker_0, # of connection points: 2
#     Edge 78, Type (0, 0), BuildingBlock: UVAHIK_clean_linker_0, # of connection points: 2
#     Edge 79, Type (0, 0), BuildingBlock: UVAHIK_clean_linker_0, # of connection points: 2
#     Edge 80, Type (0, 0), BuildingBlock: UVAHIK_clean_linker_0, # of connection points: 2
#     Edge 81, Type (0, 0), BuildingBlock: UVAHIK_clean_linker_0, # of connection points: 2
#     Edge 82, Type (0, 0), BuildingBlock: UVAHIK_clean_linker_0, # of connection points: 2
#     Edge 83, Type (0, 0), BuildingBlock: UVAHIK_clean_linker_0, # of connection points: 2
#     Edge 84, Type (0, 0), BuildingBlock: UVAHIK_clean_linker_0, # of connection points: 2
#     Edge 85, Type (0, 0), BuildingBlock: UVAHIK_clean_linker_0, # of connection points: 2
#     Edge 86, Type (0, 0), BuildingBlock: UVAHIK_clean_linker_0, # of connection points: 2
#     Edge 87, Type (0, 0), BuildingBlock: UVAHIK_clean_linker_0, # of connection points: 2
#     Edge 88, Type (0, 0), BuildingBlock: UVAHIK_clean_linker_0, # of connection points: 2
#     Edge 89, Type (0, 0), BuildingBlock: UVAHIK_clean_linker_0, # of connection points: 2
#     Edge 90, Type (0, 0), BuildingBlock: UVAHIK_clean_linker_0, # of connection points: 2
#     Edge 91, Type (0, 0), BuildingBlock: UVAHIK_clean_linker_0, # of connection points: 2
#     Edge 92, Type (0, 0), BuildingBlock: UVAHIK_clean_linker_0, # of connection points: 2
#     Edge 93, Type (0, 0), BuildingBlock: UVAHIK_clean_linker_0, # of connection points: 2
#     Edge 94, Type (0, 0), BuildingBlock: UVAHIK_clean_linker_0, # of connection points: 2
#     Edge 95, Type (0, 0), BuildingBlock: UVAHIK_clean_linker_0, # of connection points: 2
# Relax obj value: 0.129
# Max RMSD: 0.215
# Mean RMSD: 0.213
data_MOF--net-uke--node1-KUFVIS_clean_sbu_0--edge1-UVAHIK_clean_linker_0
_symmetry_space_group_name_H-M    P1
_symmetry_Int_Tables_number       1
_symmetry_cell_setting            triclinic
loop_
_symmetry_equiv_pos_as_xyz
'x, y, z'
_cell_length_a     26.922499
_cell_length_b     141.88777
_cell_length_c     66.941455
_cell_angle_alpha  89.999485
_cell_angle_beta   89.994372
_cell_angle_gamma 89.997054
loop_
_atom_site_label
_atom_site_type_symbol
_atom_site_fract_x
_atom_site_fract_y
_atom_site_fract_z
_atom_type_partial_charge
Mn0 Mn 0.09254 0.06264 0.26624 0.0
Mn1 Mn 0.9883 0.07327 0.25028 0.0
C2 C 0.09004 0.06864 0.23448 0.0
C3 C 0.13282 0.04837 0.27087 0.0
C4 C 0.06262 0.08239 0.27859 0.0
O5 O 0.04126 0.05914 0.2869 0.0
O6 O 0.97107 0.06463 0.27277 0.0
C7 C 0.93512 0.05678 0.23372 0.0
N8 N 0.95525 0.0655 0.23113 0.0
C9 C 0.93177 0.06569 0.19646 0.0
C10 C 0.91041 0.05675 0.19879 0.0
C11 C 0.91215 0.05227 0.2175 0.0
C12 C 0.95369 0.06989 0.21321 0.0
H13 H 0.93673 0.05329 0.24805 0.0
C14 C 0.99426 0.06008 0.28646 0.0
O15 O 0.14552 0.05573 0.28131 0.0
O16 O 0.09752 0.04938 0.25795 0.0
N17 N -0.00028 0.08175 0.2285 0.0
C18 C 0.02469 0.0901 0.22847 0.0
C19 C 0.02801 0.09532 0.2107 0.0
C20 C 0.00548 0.09193 0.1932 0.0
C21 C 0.97957 0.08336 0.19365 0.0
C22 C 0.9771 0.07851 0.21183 0.0
H23 H 0.04229 0.09273 0.24185 0.0
O24 O 0.13229 0.06665 0.24276 0.0
O25 O 0.05044 0.06667 0.24483 0.0
O26 O 0.096 0.07598 0.27791 0.0
O27 O 0.02082 0.08181 0.26956 0.0
C28 C 0.95706 0.07935 0.17666 0.0
C29 C 0.93317 0.07052 0.17806 0.0
H30 H 0.89304 0.05321 0.18627 0.0
H31 H 0.89603 0.04534 0.21938 0.0
H32 H 0.04814 0.10193 0.21047 0.0
H33 H 0.00862 0.09593 0.17947 0.0
H34 H 0.9585 0.08292 0.16238 0.0
H35 H 0.91659 0.06745 0.16484 0.0
Mn36 Mn 0.15009 0.19706 0.269 0.0
Mn37 Mn 0.25171 0.1859 0.25179 0.0
C38 C 0.15099 0.19166 0.23673 0.0
C39 C 0.11238 0.21147 0.27478 0.0
C40 C 0.17537 0.17674 0.27917 0.0
O41 O 0.20215 0.19981 0.28981 0.0
O42 O 0.27058 0.19376 0.27533 0.0
C43 C 0.30841 0.20242 0.23739 0.0
N44 N 0.28666 0.19393 0.2337 0.0
C45 C 0.31066 0.19452 0.1991 0.0
C46 C 0.3337 0.20323 0.20256 0.0
C47 C 0.3325 0.2072 0.22178 0.0
C48 C 0.28761 0.19004 0.21527 0.0
H49 H 0.30723 0.20553 0.25211 0.0
C50 C 0.24875 0.19834 0.28933 0.0
O51 O 0.09845 0.20403 0.28469 0.0
O52 O 0.14756 0.21048 0.26181 0.0
N53 N 0.23897 0.17813 0.22899 0.0
C54 C 0.21269 0.16994 0.22792 0.0
C55 C 0.20886 0.16521 0.20955 0.0
C56 C 0.2323 0.16891 0.19253 0.0
C57 C 0.25968 0.17729 0.19406 0.0
C58 C 0.26258 0.18164 0.2128 0.0
H59 H 0.19441 0.16707 0.24092 0.0
O60 O 0.10928 0.19377 0.24531 0.0
O61 O 0.19112 0.19313 0.24712 0.0
O62 O 0.14418 0.18354 0.27959 0.0
O63 O 0.21689 0.17711 0.26988 0.0
C64 C 0.28329 0.18159 0.17764 0.0
C65 C 0.30873 0.1902 0.18015 0.0
H66 H 0.35197 0.20698 0.19053 0.0
H67 H 0.34992 0.21395 0.22454 0.0
H68 H 0.18764 0.15875 0.20849 0.0
H69 H 0.22876 0.1653 0.17834 0.0
H70 H 0.28151 0.17841 0.16295 0.0
H71 H 0.32616 0.19351 0.16736 0.0
Mn72 Mn 0.10306 0.19678 0.99368 0.0
Mn73 Mn 0.99582 0.18652 0.00761 0.0
C74 C 0.0947 0.19139 0.02576 0.0
C75 C 0.14521 0.21083 0.98896 0.0
C76 C 0.07501 0.17665 0.98282 0.0
O77 O 0.05588 0.20004 0.97141 0.0
O78 O 0.98367 0.19441 0.98339 0.0
C79 C 0.94044 0.20359 0.01985 0.0
N80 N 0.95931 0.19494 0.02436 0.0
C81 C 0.9286 0.19592 0.05806 0.0
C82 C 0.90848 0.2048 0.05372 0.0
C83 C 0.91449 0.20866 0.03453 0.0
C84 C 0.95371 0.19116 0.04277 0.0
H85 H 0.94533 0.2066 0.00516 0.0
C86 C 0.00913 0.19889 0.97027 0.0
O87 O 0.15906 0.20325 0.97953 0.0
O88 O 0.10778 0.21017 0.00099 0.0
N89 N 0.00193 0.17876 0.03087 0.0
C90 C 0.02582 0.17035 0.03292 0.0
C91 C 0.02475 0.16569 0.05142 0.0
C92 C 0.99892 0.16968 0.06756 0.0
C93 C 0.97407 0.17829 0.06502 0.0
C94 C 0.97604 0.18257 0.04618 0.0
H95 H 0.04592 0.16726 0.0206 0.0
O96 O 0.1384 0.19312 0.01849 0.0
O97 O 0.05701 0.19324 0.01422 0.0
O98 O 0.10748 0.18323 0.9832 0.0
O99 O 0.03205 0.17735 0.99089 0.0
C100 C 0.94833 0.18288 0.08054 0.0
C101 C 0.92564 0.19169 0.07707 0.0
H102 H 0.88877 0.20877 0.06505 0.0
H103 H 0.89934 0.21553 0.03111 0.0
H104 H 0.04404 0.15905 0.05327 0.0
H105 H 0.99868 0.16612 0.08187 0.0
H106 H 0.94633 0.17976 0.09529 0.0
H107 H 0.90651 0.19521 0.0892 0.0
Mn108 Mn 0.16135 0.06196 0.99337 0.0
Mn109 Mn 0.26727 0.07238 0.00821 0.0
C110 C 0.16682 0.06769 0.02529 0.0
C111 C 0.12025 0.04777 0.98879 0.0
C112 C 0.19037 0.08185 0.9816 0.0
O113 O 0.21043 0.05866 0.97172 0.0
O114 O 0.28192 0.06402 0.98497 0.0
C115 C 0.32135 0.05561 0.02294 0.0
N116 N 0.30197 0.06433 0.02634 0.0
C117 C 0.32917 0.06407 0.06057 0.0
C118 C 0.34981 0.05512 0.05739 0.0
C119 C 0.34581 0.05087 0.0385 0.0
C120 C 0.30563 0.06849 0.04444 0.0
H121 H 0.31801 0.0523 0.00848 0.0
C122 C 0.2574 0.05965 0.97142 0.0
O123 O 0.10676 0.05523 0.97886 0.0
O124 O 0.1569 0.04861 0.00114 0.0
N125 N 0.25858 0.0806 0.03061 0.0
C126 C 0.23437 0.08903 0.03148 0.0
C127 C 0.23342 0.09406 0.04953 0.0
C128 C 0.2576 0.09042 0.06645 0.0
C129 C 0.28281 0.0818 0.06512 0.0
C130 C 0.28288 0.07713 0.04668 0.0
H131 H 0.21555 0.09185 0.01855 0.0
O132 O 0.12385 0.06575 0.01758 0.0
O133 O 0.20549 0.06577 0.01433 0.0
O134 O 0.15707 0.07542 0.98239 0.0
O135 O 0.23294 0.08117 0.98999 0.0
C136 C 0.30697 0.07755 0.08147 0.0
C137 C 0.33012 0.06869 0.0792 0.0
H138 H 0.36837 0.0514 0.0694 0.0
H139 H 0.36137 0.04394 0.03597 0.0
H140 H 0.21387 0.10071 0.05044 0.0
H141 H 0.25631 0.09427 0.08041 0.0
H142 H 0.3074 0.08097 0.09593 0.0
H143 H 0.34801 0.06544 0.09195 0.0
Mn144 Mn 0.88056 0.94386 0.74459 0.0
Mn145 Mn 0.81265 0.9491 0.70379 0.0
C146 C 0.85329 0.95895 0.74007 0.0
C147 C 0.88099 0.93806 0.77713 0.0
C148 C 0.92463 0.94712 0.70289 0.0
O149 O 0.86083 0.93119 0.73403 0.0
O150 O 0.8149 0.93506 0.70716 0.0
C151 C 0.71508 0.9429 0.7193 0.0
N152 N 0.74448 0.9498 0.71156 0.0
C153 C 0.67784 0.96108 0.71312 0.0
C154 C 0.6467 0.95407 0.72095 0.0
C155 C 0.66544 0.94495 0.72408 0.0
C156 C 0.72685 0.95861 0.7085 0.0
H157 H 0.72949 0.9359 0.72186 0.0
C158 C 0.83476 0.92899 0.71892 0.0
O159 O 0.92106 0.93784 0.76626 0.0
O160 O 0.84157 0.94163 0.76907 0.0
N161 N 0.80722 0.9623 0.6984 0.0
C162 C 0.84269 0.96834 0.69153 0.0
C163 C 0.83038 0.97782 0.68814 0.0
C164 C 0.7817 0.98098 0.69166 0.0
C165 C 0.74564 0.97459 0.6984 0.0
C166 C 0.75999 0.96521 0.70138 0.0
H167 H 0.88021 0.96595 0.68888 0.0
O168 O 0.88987 0.9572 0.75212 0.0
O169 O 0.83258 0.9517 0.73142 0.0
O170 O 0.93078 0.94528 0.72147 0.0
O171 O 0.88221 0.94871 0.69498 0.0
C172 C 0.6963 0.97721 0.70269 0.0
C173 C 0.66244 0.97046 0.71006 0.0
H174 H 0.60849 0.95564 0.72478 0.0
H175 H 0.64173 0.93951 0.73023 0.0
H176 H 0.85842 0.9827 0.68292 0.0
H177 H 0.7725 0.98832 0.68924 0.0
H178 H 0.68417 0.98443 0.70061 0.0
H179 H 0.62476 0.97259 0.71352 0.0
Mn180 Mn 0.87284 0.81775 0.74094 0.0
Mn181 Mn 0.94224 0.81188 0.70092 0.0
C182 C 0.89936 0.80253 0.73733 0.0
C183 C 0.87127 0.82381 0.77331 0.0
C184 C 0.83052 0.81436 0.69903 0.0
O185 O 0.89451 0.83028 0.73002 0.0
O186 O 0.94215 0.82592 0.70392 0.0
C187 C 0.04014 0.81764 0.71683 0.0
N188 N 0.00995 0.81085 0.70916 0.0
C189 C 0.07478 0.79922 0.71144 0.0
C190 C 0.10672 0.80612 0.71921 0.0
C191 C 0.08929 0.81536 0.72194 0.0
C192 C 0.02633 0.80193 0.70646 0.0
H193 H 0.02674 0.82474 0.71908 0.0
C194 C 0.92232 0.83218 0.7152 0.0
O195 O 0.83179 0.82407 0.7621 0.0
O196 O 0.91081 0.82009 0.76567 0.0
N197 N 0.94576 0.7986 0.69607 0.0
C198 C 0.90951 0.7927 0.68934 0.0
C199 C 0.92042 0.78312 0.6864 0.0
C200 C 0.9685 0.77973 0.69025 0.0
C201 C 0.00536 0.78597 0.6969 0.0
C202 C 0.99241 0.79546 0.69941 0.0
H203 H 0.87244 0.79527 0.68644 0.0
O204 O 0.86217 0.80448 0.74893 0.0
O205 O 0.92082 0.80964 0.72851 0.0
O206 O 0.82354 0.81628 0.71753 0.0
O207 O 0.8732 0.8126 0.69153 0.0
C208 C 0.05414 0.78311 0.70153 0.0
C209 C 0.08882 0.78973 0.70881 0.0
H210 H 0.14455 0.80437 0.7233 0.0
H211 H 0.11362 0.82071 0.72804 0.0
H212 H 0.89177 0.77835 0.68127 0.0
H213 H 0.97663 0.77232 0.68817 0.0
H214 H 0.0652 0.77582 0.6998 0.0
H215 H 0.12603 0.78743 0.71255 0.0
Mn216 Mn 0.88386 0.81699 0.01643 0.0
Mn217 Mn 0.8148 0.81016 0.05587 0.0
C218 C 0.86174 0.80149 0.01958 0.0
C219 C 0.8859 0.82313 0.98413 0.0
C220 C 0.92536 0.81378 0.0586 0.0
O221 O 0.85775 0.82922 0.02733 0.0
O222 O 0.81168 0.82421 0.05337 0.0
C223 C 0.71624 0.81519 0.03949 0.0
N224 N 0.74775 0.80861 0.04712 0.0
C225 C 0.686 0.79644 0.04392 0.0
C226 C 0.65272 0.80311 0.03618 0.0
C227 C 0.66795 0.81252 0.03393 0.0
C228 C 0.73349 0.79953 0.04936 0.0
H229 H 0.72795 0.82242 0.0376 0.0
C230 C 0.82963 0.83074 0.04224 0.0
O231 O 0.92426 0.82383 0.99587 0.0
O232 O 0.84698 0.81898 0.99126 0.0
N233 N 0.81433 0.79683 0.06024 0.0
C234 C 0.85168 0.79121 0.06704 0.0
C235 C 0.84303 0.78152 0.06956 0.0
C236 C 0.79603 0.77774 0.06521 0.0
C237 C 0.75798 0.7837 0.05851 0.0
C238 C 0.76867 0.79331 0.05643 0.0
H239 H 0.88793 0.79407 0.07031 0.0
O240 O 0.899 0.80388 0.00839 0.0
O241 O 0.83779 0.80833 0.02834 0.0
O242 O 0.93221 0.81599 0.04024 0.0
O243 O 0.88318 0.81142 0.06578 0.0
C244 C 0.71018 0.78045 0.0534 0.0
C245 C 0.67423 0.78682 0.0461 0.0
H246 H 0.61556 0.80107 0.03174 0.0
H247 H 0.64258 0.8177 0.02785 0.0
H248 H 0.8726 0.77696 0.07474 0.0
H249 H 0.78967 0.77024 0.06696 0.0
H250 H 0.70088 0.77305 0.05478 0.0
H251 H 0.6378 0.78422 0.042 0.0
Mn252 Mn 0.87371 0.94333 0.02111 0.0
Mn253 Mn 0.94666 0.94715 0.06119 0.0
C254 C 0.90538 0.95805 0.02637 0.0
C255 C 0.86802 0.93814 0.98817 0.0
C256 C 0.83454 0.94628 0.06373 0.0
O257 O 0.89112 0.9303 0.03026 0.0
O258 O 0.94001 0.93321 0.05682 0.0
C259 C 0.04074 0.94021 0.04371 0.0
N260 N 0.01414 0.94728 0.05236 0.0
C261 C 0.0837 0.95789 0.0504 0.0
C262 C 0.11199 0.9507 0.04162 0.0
C263 C 0.09039 0.94183 0.03825 0.0
C264 C 0.03455 0.95584 0.05568 0.0
H265 H 0.02413 0.93341 0.04095 0.0
C266 C 0.91769 0.92757 0.04483 0.0
O267 O 0.82932 0.93806 -0.00017 0.0
O268 O 0.90922 0.94121 0.99571 0.0
N269 N 0.95646 0.96018 0.06739 0.0
C270 C 0.92347 0.96646 0.07522 0.0
C271 C 0.93879 0.97575 0.079 0.0
C272 C 0.9879 0.97846 0.07485 0.0
C273 C 0.02138 0.97183 0.0671 0.0
C274 C 0.00409 0.96266 0.06377 0.0
H275 H 0.88562 0.96442 0.07835 0.0
O276 O 0.86715 0.95686 0.01485 0.0
O277 O 0.92502 0.95046 0.03407 0.0
O278 O 0.82636 0.94478 0.04514 0.0
O279 O 0.87796 0.94733 0.07113 0.0
C280 C 0.07093 0.97402 0.06214 0.0
C281 C 0.10205 0.96705 0.05379 0.0
H282 H 0.15019 0.95193 0.03726 0.0
H283 H 0.11189 0.93626 0.03137 0.0
H284 H 0.91274 0.98082 0.08499 0.0
H285 H -0.00057 0.98566 0.07759 0.0
H286 H 0.0853 0.98106 0.06447 0.0
H287 H 0.13991 0.96885 0.04984 0.0
Mn288 Mn 0.10112 0.56321 0.76481 0.0
Mn289 Mn 0.99769 0.57351 0.74697 0.0
C290 C 0.10033 0.5686 0.73256 0.0
C291 C 0.142 0.54916 0.77104 0.0
C292 C 0.07083 0.58332 0.77472 0.0
O293 O 0.04894 0.55999 0.78525 0.0
O294 O 0.97975 0.56559 0.77057 0.0
C295 C 0.94516 0.55651 0.73255 0.0
N296 N 0.96517 0.56515 0.72884 0.0
C297 C 0.94251 0.56425 0.69412 0.0
C298 C 0.92129 0.55537 0.6976 0.0
C299 C 0.92268 0.55149 0.7169 0.0
C300 C 0.964 0.56896 0.71034 0.0
H301 H 0.94651 0.55347 0.74733 0.0
C302 C 0.00212 0.56115 0.78464 0.0
O303 O 0.15356 0.55673 0.78097 0.0
O304 O 0.1074 0.54981 0.75772 0.0
N305 N 0.00941 0.58131 0.72412 0.0
C306 C 0.0339 0.5897 0.72305 0.0
C307 C 0.03732 0.59439 0.70463 0.0
C308 C 0.01532 0.59044 0.68754 0.0
C309 C 0.98978 0.58186 0.68907 0.0
C310 C 0.9872 0.57755 0.70786 0.0
H311 H 0.05107 0.59275 0.73611 0.0
O312 O 0.14211 0.56685 0.74144 0.0
O313 O 0.06009 0.56677 0.74264 0.0
O314 O 0.10329 0.57674 0.77543 0.0
O315 O 0.02989 0.58264 0.7651 0.0
C316 C 0.96772 0.57731 0.67259 0.0
C317 C 0.94413 0.56851 0.67511 0.0
H318 H 0.90426 0.55144 0.68554 0.0
H319 H 0.90666 0.54461 0.71968 0.0
H320 H 0.05712 0.60101 0.70357 0.0
H321 H 0.01854 0.59402 0.67332 0.0
H322 H 0.96929 0.58046 0.65786 0.0
H323 H 0.92788 0.56503 0.66229 0.0
Mn324 Mn 0.14928 0.69812 0.77001 0.0
Mn325 Mn 0.25331 0.68738 0.75408 0.0
C326 C 0.15295 0.69263 0.73782 0.0
C327 C 0.10954 0.7124 0.77524 0.0
C328 C 0.17692 0.67813 0.78128 0.0
O329 O 0.19996 0.70113 0.79133 0.0
O330 O 0.27021 0.6957 0.77709 0.0
C331 C 0.30868 0.70388 0.73875 0.0
N332 N 0.28794 0.69525 0.73558 0.0
C333 C 0.31344 0.69533 0.70113 0.0
C334 C 0.33543 0.70418 0.70406 0.0
C335 C 0.33297 0.70848 0.72295 0.0
C336 C 0.29017 0.69105 0.71749 0.0
H337 H 0.30654 0.70723 0.75321 0.0
C338 C 0.24693 0.70008 0.79099 0.0
O339 O 0.09596 0.70492 0.78509 0.0
O340 O 0.14566 0.71153 0.76264 0.0
N341 N 0.24212 0.6792 0.73179 0.0
C342 C 0.21639 0.67093 0.73114 0.0
C343 C 0.21363 0.6659 0.71311 0.0
C344 C 0.23752 0.66939 0.69598 0.0
C345 C 0.2642 0.67786 0.69707 0.0
C346 C 0.26604 0.68252 0.71549 0.0
H347 H 0.19777 0.66823 0.74422 0.0
O348 O 0.11043 0.69461 0.74589 0.0
O349 O 0.19211 0.69429 0.74865 0.0
O350 O 0.14401 0.68462 0.78067 0.0
O351 O 0.21926 0.67872 0.77268 0.0
C352 C 0.2881 0.68196 0.68049 0.0
C353 C 0.3127 0.69069 0.68252 0.0
H354 H 0.35384 0.70779 0.69187 0.0
H355 H 0.34958 0.71533 0.7253 0.0
H356 H 0.19291 0.65937 0.71239 0.0
H357 H 0.23482 0.66554 0.68205 0.0
H358 H 0.28716 0.67854 0.66603 0.0
H359 H 0.33033 0.69384 0.66959 0.0
Mn360 Mn 0.09604 0.69723 0.49416 0.0
Mn361 Mn 0.99247 0.6869 0.51192 0.0
C362 C 0.0942 0.69213 0.52665 0.0
C363 C 0.13729 0.71123 0.48764 0.0
C364 C 0.06684 0.67699 0.48488 0.0
O365 O 0.04429 0.70022 0.47332 0.0
O366 O 0.97504 0.69464 0.48806 0.0
C367 C 0.93873 0.70391 0.5256 0.0
N368 N 0.95895 0.69532 0.52965 0.0
C369 C 0.93461 0.69635 0.56417 0.0
C370 C 0.91314 0.70517 0.56033 0.0
C371 C 0.91529 0.70897 0.54097 0.0
C372 C 0.95708 0.69159 0.54822 0.0
H373 H 0.94061 0.70688 0.51077 0.0
C374 C 0.99747 0.69901 0.47391 0.0
O375 O 0.14899 0.70357 0.47806 0.0
O376 O 0.10206 0.71071 0.50074 0.0
N377 N 0.00379 0.67927 0.53506 0.0
C378 C 0.02863 0.67093 0.5365 0.0
C379 C 0.03141 0.66633 0.55505 0.0
C380 C 0.00839 0.67032 0.57187 0.0
C381 C 0.98249 0.67885 0.56997 0.0
C382 C 0.9806 0.68306 0.55107 0.0
H383 H 0.04656 0.66784 0.52365 0.0
O384 O 0.13628 0.69383 0.51795 0.0
O385 O 0.05433 0.69381 0.51625 0.0
O386 O 0.09902 0.68361 0.48409 0.0
O387 O 0.02555 0.67769 0.49425 0.0
C388 C 0.95941 0.68343 0.58617 0.0
C389 C 0.93551 0.69218 0.58327 0.0
H390 H 0.89536 0.70913 0.57218 0.0
H391 H 0.89908 0.7158 0.53792 0.0
H392 H 0.05148 0.65975 0.5564 0.0
H393 H 0.01111 0.66681 0.5862 0.0
H394 H 0.96042 0.68036 0.60098 0.0
H395 H 0.91848 0.69569 0.5959 0.0
Mn396 Mn 0.15219 0.56211 0.49072 0.0
Mn397 Mn 0.26166 0.57208 0.50257 0.0
C398 C 0.16395 0.56774 0.52243 0.0
C399 C 0.10829 0.54817 0.48713 0.0
C400 C 0.18125 0.58197 0.4785 0.0
O401 O 0.19696 0.55858 0.46776 0.0
O402 O 0.27098 0.56384 0.47867 0.0
C403 C 0.31649 0.555 0.51509 0.0
N404 N 0.29874 0.56376 0.51934 0.0
C405 C 0.33219 0.56313 0.55264 0.0
C406 C 0.35119 0.55413 0.54857 0.0
C407 C 0.34325 0.55005 0.52972 0.0
C408 C 0.3062 0.56776 0.53741 0.0
H409 H 0.31014 0.55181 0.50066 0.0
C410 C 0.24376 0.55947 0.46596 0.0
O411 O 0.09437 0.55573 0.47766 0.0
O412 O 0.14699 0.54877 0.49851 0.0
N413 N 0.25818 0.58017 0.5254 0.0
C414 C 0.23522 0.58868 0.52725 0.0
C415 C 0.23822 0.59359 0.54544 0.0
C416 C 0.26502 0.58972 0.56146 0.0
C417 C 0.28887 0.581 0.55912 0.0
C418 C 0.28495 0.57648 0.54059 0.0
H419 H 0.2144 0.59168 0.51502 0.0
O420 O 0.11951 0.56604 0.5159 0.0
O421 O 0.20042 0.56567 0.51042 0.0
O422 O 0.14778 0.57561 0.47995 0.0
O423 O 0.22504 0.58114 0.48573 0.0
C424 C 0.31551 0.57653 0.57456 0.0
C425 C 0.33713 0.5676 0.57133 0.0
H426 H 0.37152 0.55026 0.55986 0.0
H427 H 0.35754 0.54308 0.52651 0.0
H428 H 0.21969 0.60031 0.54713 0.0
H429 H 0.26678 0.59347 0.57554 0.0
H430 H 0.31903 0.57985 0.58907 0.0
H431 H 0.35698 0.56419 0.5834 0.0
Mn432 Mn 0.87849 0.44301 0.24349 0.0
Mn433 Mn 0.80829 0.44904 0.20378 0.0
C434 C 0.85198 0.45826 0.2402 0.0
C435 C 0.88081 0.43684 0.27574 0.0
C436 C 0.91992 0.44658 0.20148 0.0
O437 O 0.85658 0.43053 0.23245 0.0
O438 O 0.80854 0.43498 0.20655 0.0
C439 C 0.71078 0.4432 0.21997 0.0
N440 N 0.74074 0.45002 0.21227 0.0
C441 C 0.67584 0.46162 0.21488 0.0
C442 C 0.64412 0.45469 0.22268 0.0
C443 C 0.66171 0.44545 0.22526 0.0
C444 C 0.72422 0.45894 0.20973 0.0
H445 H 0.72429 0.4361 0.2221 0.0
C446 C 0.82857 0.42868 0.21767 0.0
O447 O 0.92003 0.43662 0.26437 0.0
O448 O 0.84109 0.44059 0.26832 0.0
N449 N 0.80457 0.46233 0.19913 0.0
C450 C 0.84061 0.46826 0.19232 0.0
C451 C 0.82953 0.47784 0.1895 0.0
C452 C 0.78149 0.4812 0.19354 0.0
C453 C 0.74483 0.47493 0.20025 0.0
C454 C 0.75794 0.46544 0.20264 0.0
H455 H 0.87764 0.46571 0.18927 0.0
O456 O 0.88937 0.45625 0.25165 0.0
O457 O 0.83028 0.45118 0.23134 0.0
O458 O 0.92724 0.44457 0.21992 0.0
O459 O 0.87712 0.44837 0.19414 0.0
C460 C 0.69611 0.47776 0.20506 0.0
C461 C 0.66165 0.47111 0.21239 0.0
H462 H 0.60636 0.45641 0.22691 0.0
H463 H 0.63755 0.44008 0.23138 0.0
H464 H 0.85803 0.48263 0.18432 0.0
H465 H 0.77325 0.48861 0.19156 0.0
H466 H 0.68494 0.48505 0.20343 0.0
H467 H 0.62448 0.47339 0.21626 0.0
Mn468 Mn 0.87018 0.31636 0.24138 0.0
Mn469 Mn 0.94294 0.31185 0.20156 0.0
C470 C 0.89997 0.30145 0.2367 0.0
C471 C 0.86525 0.3218 0.27416 0.0
C472 C 0.83099 0.3134 0.19879 0.0
O473 O 0.88968 0.32922 0.23182 0.0
O474 O 0.9388 0.32585 0.20555 0.0
C475 C 0.03813 0.31826 0.21897 0.0
N476 N 0.01031 0.31133 0.21046 0.0
C477 C 0.07784 0.30027 0.2128 0.0
C478 C 0.10738 0.30732 0.22143 0.0
C479 C 0.0874 0.31635 0.22454 0.0
C480 C 0.02916 0.30262 0.20738 0.0
H481 H 0.02276 0.32519 0.22153 0.0
C482 C 0.91709 0.33169 0.21729 0.0
O483 O 0.82657 0.32201 0.2625 0.0
O484 O 0.90595 0.31846 0.26671 0.0
N485 N 0.95036 0.29872 0.19575 0.0
C486 C 0.91621 0.29261 0.18815 0.0
C487 C 0.92979 0.28319 0.18469 0.0
C488 C 0.97837 0.28019 0.18893 0.0
C489 C 0.01306 0.28664 0.19647 0.0
C490 C 0.9975 0.29596 0.19946 0.0
H491 H 0.87875 0.29488 0.18497 0.0
O492 O 0.86171 0.30289 0.24808 0.0
O493 O 0.92053 0.30889 0.22874 0.0
O494 O 0.82277 0.315 0.21734 0.0
O495 O 0.87435 0.31207 0.19153 0.0
C496 C 0.06212 0.28416 0.20156 0.0
C497 C 0.09448 0.29096 0.20973 0.0
H498 H 0.14527 0.30585 0.2259 0.0
H499 H 0.10986 0.32181 0.23131 0.0
H500 H 0.90281 0.27825 0.17887 0.0
H501 H 0.98854 0.27289 0.18646 0.0
H502 H 0.07514 0.277 0.1995 0.0
H503 H 0.13192 0.28894 0.21381 0.0
Mn504 Mn 0.88077 0.31668 0.5175 0.0
Mn505 Mn 0.81208 0.31178 0.55827 0.0
C506 C 0.85193 0.3017 0.5221 0.0
C507 C 0.8817 0.32245 0.48493 0.0
C508 C 0.92429 0.31326 0.55925 0.0
O509 O 0.8625 0.32944 0.52796 0.0
O510 O 0.81607 0.32581 0.55483 0.0
C511 C 0.71546 0.3184 0.54259 0.0
N512 N 0.74391 0.31138 0.55041 0.0
C513 C 0.67592 0.3004 0.54876 0.0
C514 C 0.64575 0.30754 0.54085 0.0
C515 C 0.66564 0.31658 0.53773 0.0
C516 C 0.72517 0.30266 0.55345 0.0
H517 H 0.73075 0.32534 0.54003 0.0
C518 C 0.83666 0.33177 0.54305 0.0
O519 O 0.92186 0.32252 0.49576 0.0
O520 O 0.84198 0.31904 0.49303 0.0
N521 N 0.80492 0.29862 0.56374 0.0
C522 C 0.83952 0.29244 0.57076 0.0
C523 C 0.82598 0.28302 0.5742 0.0
C524 C 0.77698 0.28008 0.57057 0.0
C525 C 0.74183 0.28661 0.56369 0.0
C526 C 0.75739 0.29592 0.56067 0.0
H527 H 0.87727 0.29466 0.5735 0.0
O528 O 0.88865 0.3033 0.51003 0.0
O529 O 0.83192 0.30904 0.53069 0.0
O530 O 0.93077 0.31508 0.54067 0.0
O531 O 0.88163 0.31187 0.56712 0.0
C532 C 0.69223 0.2842 0.55931 0.0
C533 C 0.65931 0.29109 0.55184 0.0
H534 H 0.60739 0.30614 0.53695 0.0
H535 H 0.64267 0.32211 0.53151 0.0
H536 H 0.85331 0.27802 0.57953 0.0
H537 H 0.76682 0.27278 0.57304 0.0
H538 H 0.67917 0.27705 0.56142 0.0
H539 H 0.62142 0.28913 0.54832 0.0
Mn540 Mn 0.87153 0.44259 0.51904 0.0
Mn541 Mn 0.94019 0.44896 0.55895 0.0
C542 C 0.8955 0.45797 0.52256 0.0
C543 C 0.8695 0.43657 0.48664 0.0
C544 C 0.82909 0.44586 0.56103 0.0
O545 O 0.89574 0.43021 0.52987 0.0
O546 O 0.94173 0.43491 0.55619 0.0
C547 C 0.03865 0.44356 0.54299 0.0
N548 N 0.0077 0.45025 0.55059 0.0
C549 C 0.07107 0.46215 0.54802 0.0
C550 C 0.10378 0.45537 0.54032 0.0
C551 C 0.08747 0.44604 0.53778 0.0
C552 C 0.023 0.45925 0.55311 0.0
H553 H 0.02612 0.4364 0.54089 0.0
C554 C 0.92331 0.42851 0.54487 0.0
O555 O 0.8308 0.43601 0.49823 0.0
O556 O 0.90881 0.44051 0.49399 0.0
N557 N 0.94214 0.46226 0.56358 0.0
C558 C 0.90525 0.46803 0.57029 0.0
C559 C 0.91501 0.47766 0.57307 0.0
C560 C 0.96263 0.48124 0.56907 0.0
C561 C 0.00018 0.47515 0.56247 0.0
C562 C 0.98836 0.4656 0.56011 0.0
H563 H 0.86853 0.46531 0.57329 0.0
O564 O 0.85832 0.45579 0.51114 0.0
O565 O 0.91835 0.45099 0.53132 0.0
O566 O 0.82257 0.44375 0.54261 0.0
O567 O 0.87135 0.44797 0.56848 0.0
C568 C 0.04855 0.4782 0.55771 0.0
C569 C 0.08396 0.47171 0.55048 0.0
H570 H 0.14135 0.45726 0.53614 0.0
H571 H 0.1124 0.44078 0.53173 0.0
H572 H 0.88584 0.48232 0.57817 0.0
H573 H 0.96986 0.4887 0.57102 0.0
H574 H 0.05872 0.48555 0.5593 0.0
H575 H 0.12085 0.47416 0.54664 0.0
Mn576 Mn 0.60071 0.06382 0.76501 0.0
Mn577 Mn 0.4943 0.0742 0.75049 0.0
C578 C 0.59459 0.06961 0.7332 0.0
C579 C 0.64295 0.04977 0.76952 0.0
C580 C 0.57164 0.08383 0.77655 0.0
O581 O 0.55212 0.06024 0.78652 0.0
O582 O 0.48069 0.06612 0.77436 0.0
C583 C 0.43982 0.05722 0.73714 0.0
N584 N 0.45894 0.0659 0.73309 0.0
C585 C 0.43055 0.06514 0.69905 0.0
C586 C 0.41019 0.05623 0.7029 0.0
C587 C 0.4149 0.05225 0.72202 0.0
C588 C 0.45457 0.0698 0.71475 0.0
H589 H 0.44371 0.0541 0.75178 0.0
C590 C 0.50539 0.06145 0.78742 0.0
O591 O 0.65575 0.05726 0.7795 0.0
O592 O 0.60647 0.05052 0.75705 0.0
N593 N 0.50177 0.08214 0.72757 0.0
C594 C 0.52573 0.09057 0.72604 0.0
C595 C 0.52593 0.09535 0.70768 0.0
C596 C 0.50127 0.09145 0.69113 0.0
C597 C 0.47633 0.08283 0.69314 0.0
C598 C 0.47702 0.07842 0.71186 0.0
H599 H 0.54495 0.09357 0.73868 0.0
O600 O 0.63776 0.06782 0.74091 0.0
O601 O 0.55604 0.06757 0.74416 0.0
O602 O 0.60403 0.07724 0.7763 0.0
O603 O 0.52937 0.08324 0.76789 0.0
C604 C 0.45172 0.07834 0.67719 0.0
C605 C 0.42886 0.0695 0.68014 0.0
H606 H 0.39128 0.05234 0.69123 0.0
H607 H 0.39955 0.04535 0.72507 0.0
H608 H 0.54528 0.102 0.70625 0.0
H609 H 0.50198 0.09512 0.67694 0.0
H610 H 0.4507 0.08156 0.66253 0.0
H611 H 0.4106 0.06606 0.6677 0.0
Mn612 Mn 0.64781 0.19856 0.7702 0.0
Mn613 Mn 0.75161 0.18829 0.75266 0.0
C614 C 0.64905 0.1931 0.73798 0.0
C615 C 0.60695 0.21264 0.77622 0.0
C616 C 0.67875 0.17863 0.78077 0.0
O617 O 0.69996 0.20175 0.79077 0.0
O618 O 0.76951 0.19655 0.77565 0.0
C619 C 0.80359 0.20511 0.737 0.0
N620 N 0.78368 0.19641 0.7339 0.0
C621 C 0.80628 0.19677 0.69913 0.0
C622 C 0.8274 0.2057 0.70198 0.0
C623 C 0.82598 0.20989 0.72099 0.0
C624 C 0.7849 0.1923 0.71568 0.0
H625 H 0.80226 0.20837 0.75156 0.0
C626 C 0.74695 0.20084 0.78987 0.0
O627 O 0.59518 0.20508 0.78618 0.0
O628 O 0.64186 0.21195 0.76303 0.0
N629 N 0.73965 0.18016 0.73035 0.0
C630 C 0.71515 0.17176 0.72987 0.0
C631 C 0.71165 0.16679 0.71178 0.0
C632 C 0.7336 0.17048 0.69442 0.0
C633 C 0.75913 0.17908 0.69534 0.0
C634 C 0.76177 0.18368 0.71382 0.0
H635 H 0.69804 0.1689 0.74314 0.0
O636 O 0.60712 0.19491 0.74671 0.0
O637 O 0.68908 0.19494 0.74817 0.0
O638 O 0.64523 0.18502 0.78082 0.0
O639 O 0.72013 0.1794 0.7715 0.0
C640 C 0.78111 0.18337 0.67854 0.0
C641 C 0.80466 0.19221 0.68044 0.0
H642 H 0.84435 0.20945 0.68964 0.0
H643 H 0.84193 0.21681 0.72328 0.0
H644 H 0.69186 0.16016 0.7112 0.0
H645 H 0.73033 0.16668 0.68045 0.0
H646 H 0.77951 0.18 0.66404 0.0
H647 H 0.82084 0.1955 0.66736 0.0
Mn648 Mn 0.59973 0.19682 0.49531 0.0
Mn649 Mn 0.49245 0.18642 0.50872 0.0
C650 C 0.59064 0.19139 0.52733 0.0
C651 C 0.64167 0.21093 0.49089 0.0
C652 C 0.57267 0.17665 0.48431 0.0
O653 O 0.55314 0.20004 0.47281 0.0
O654 O 0.48083 0.19425 0.48437 0.0
C655 C 0.43605 0.20343 0.52055 0.0
N656 N 0.45508 0.19481 0.52523 0.0
C657 C 0.42316 0.19579 0.55874 0.0
C658 C 0.40285 0.20464 0.55424 0.0
C659 C 0.40939 0.20848 0.53507 0.0
C660 C 0.44898 0.19105 0.54361 0.0
H661 H 0.44133 0.20643 0.50588 0.0
C662 C 0.50653 0.19877 0.47137 0.0
O663 O 0.65593 0.20337 0.48147 0.0
O664 O 0.60386 0.21022 0.50271 0.0
N665 N 0.49806 0.1787 0.53205 0.0
C666 C 0.52222 0.17032 0.53428 0.0
C667 C 0.52072 0.16568 0.5528 0.0
C668 C 0.49417 0.16966 0.56877 0.0
C669 C 0.46906 0.17822 0.56604 0.0
C670 C 0.47151 0.18248 0.5472 0.0
H671 H 0.54287 0.16725 0.52209 0.0
O672 O 0.63447 0.19318 0.52025 0.0
O673 O 0.5532 0.19322 0.51563 0.0
O674 O 0.60488 0.18328 0.48478 0.0
O675 O 0.52955 0.17729 0.49225 0.0
C676 C 0.4426 0.1828 0.5814 0.0
C677 C 0.41969 0.19157 0.57775 0.0
H678 H 0.3826 0.20859 0.56544 0.0
H679 H 0.3941 0.21533 0.53152 0.0
H680 H 0.54021 0.15908 0.55479 0.0
H681 H 0.49357 0.16611 0.5831 0.0
H682 H 0.44021 0.17969 0.59615 0.0
H683 H 0.40001 0.19508 0.58975 0.0
Mn684 Mn 0.65177 0.06191 0.492 0.0
Mn685 Mn 0.76107 0.07158 0.50506 0.0
C686 C 0.6611 0.06779 0.52361 0.0
C687 C 0.60755 0.04802 0.48827 0.0
C688 C 0.68385 0.08158 0.47953 0.0
O689 O 0.69815 0.05805 0.46988 0.0
O690 O 0.77171 0.06315 0.48155 0.0
C691 C 0.81285 0.05439 0.51888 0.0
N692 N 0.79572 0.06324 0.52261 0.0
C693 C 0.82593 0.0627 0.55641 0.0
C694 C 0.84428 0.0536 0.55289 0.0
C695 C 0.83765 0.04943 0.53405 0.0
C696 C 0.80192 0.06733 0.54067 0.0
H697 H 0.80748 0.05113 0.50446 0.0
C698 C 0.74513 0.05876 0.46866 0.0
O699 O 0.59471 0.05553 0.47834 0.0
O700 O 0.64509 0.04867 0.50022 0.0
N701 N 0.75644 0.07984 0.52759 0.0
C702 C 0.73428 0.08846 0.52885 0.0
C703 C 0.73613 0.09347 0.54693 0.0
C704 C 0.76097 0.0896 0.56346 0.0
C705 C 0.78405 0.08078 0.56172 0.0
C706 C 0.78136 0.07615 0.54328 0.0
H707 H 0.71496 0.09145 0.51622 0.0
O708 O 0.61714 0.06615 0.5165 0.0
O709 O 0.69847 0.06549 0.51224 0.0
O710 O 0.6496 0.07535 0.48067 0.0
O711 O 0.72685 0.08065 0.48745 0.0
C712 C 0.8087 0.07631 0.57769 0.0
C713 C 0.8296 0.06728 0.57504 0.0
H714 H 0.86309 0.04972 0.5646 0.0
H715 H 0.85143 0.04238 0.53125 0.0
H716 H 0.71821 0.10027 0.54815 0.0
H717 H 0.76183 0.09344 0.57744 0.0
H718 H 0.81123 0.07971 0.59215 0.0
H719 H 0.84791 0.06386 0.5875 0.0
Mn720 Mn 0.37916 0.94334 0.24326 0.0
Mn721 Mn 0.31173 0.94772 0.20189 0.0
C722 C 0.34795 0.95812 0.23827 0.0
C723 C 0.37977 0.93768 0.27593 0.0
C724 C 0.42412 0.94696 0.20183 0.0
O725 O 0.36373 0.93044 0.2328 0.0
O726 O 0.31826 0.93373 0.20549 0.0
C727 C 0.21565 0.94045 0.21682 0.0
N728 N 0.24313 0.94765 0.20919 0.0
C729 C 0.17295 0.95815 0.21012 0.0
C730 C 0.14376 0.95081 0.21782 0.0
C731 C 0.16524 0.94193 0.22121 0.0
C732 C 0.22287 0.95623 0.20589 0.0
H733 H 0.23214 0.93363 0.21957 0.0
C734 C 0.33932 0.92791 0.21746 0.0
O735 O 0.42032 0.93782 0.26534 0.0
O736 O 0.33977 0.94079 0.26751 0.0
N737 N 0.3023 0.96081 0.19625 0.0
C738 C 0.33603 0.96721 0.18944 0.0
C739 C 0.32084 0.97652 0.18578 0.0
C740 C 0.27111 0.97912 0.18895 0.0
C741 C 0.23691 0.97237 0.19561 0.0
C742 C 0.25412 0.96318 0.19888 0.0
H743 H 0.37433 0.96525 0.18705 0.0
O744 O 0.38435 0.95677 0.25062 0.0
O745 O 0.3296 0.95064 0.22961 0.0
O746 O 0.42994 0.94519 0.22047 0.0
O747 O 0.38167 0.9481 0.1936 0.0
C748 C 0.18664 0.97442 0.19951 0.0
C749 C 0.15469 0.96732 0.20678 0.0
H750 H 0.10495 0.95194 0.22135 0.0
H751 H 0.14303 0.93625 0.22726 0.0
H752 H 0.34745 0.9817 0.18062 0.0
H753 H 0.25966 0.98634 0.1863 0.0
H754 H 0.17229 0.98147 0.1972 0.0
H755 H 0.11625 0.96902 0.20992 0.0
Mn756 Mn 0.37208 0.81807 0.24161 0.0
Mn757 Mn 0.43976 0.81081 0.20214 0.0
C758 C 0.39374 0.80252 0.23905 0.0
C759 C 0.37219 0.82457 0.27359 0.0
C760 C 0.32913 0.81458 0.19986 0.0
O761 O 0.39789 0.83016 0.22992 0.0
O762 O 0.4442 0.82486 0.2042 0.0
C763 C 0.53923 0.81563 0.21789 0.0
N764 N 0.50693 0.8091 0.2106 0.0
C765 C 0.56771 0.79676 0.21387 0.0
C766 C 0.60179 0.80337 0.22126 0.0
C767 C 0.58745 0.81285 0.2233 0.0
C768 C 0.52033 0.79997 0.20856 0.0
H769 H 0.52819 0.82291 0.21962 0.0
C770 C 0.42634 0.8315 0.21503 0.0
O771 O 0.33295 0.82513 0.2623 0.0
O772 O 0.41056 0.82032 0.26625 0.0
N773 N 0.43893 0.79745 0.19818 0.0
C774 C 0.40087 0.7919 0.19176 0.0
C775 C 0.4086 0.78217 0.1895 0.0
C776 C 0.4554 0.77827 0.19372 0.0
C777 C 0.49418 0.78415 0.20004 0.0
C778 C 0.4844 0.79381 0.20187 0.0
H779 H 0.36477 0.79485 0.18858 0.0
O780 O 0.35713 0.80506 0.25043 0.0
O781 O 0.41744 0.80925 0.22981 0.0
O782 O 0.3226 0.81683 0.21821 0.0
O783 O 0.37119 0.81221 0.19256 0.0
C784 C 0.54185 0.78079 0.20502 0.0
C785 C 0.57857 0.78709 0.21194 0.0
H786 H 0.63889 0.80124 0.22558 0.0
H787 H 0.61344 0.81798 0.2291 0.0
H788 H 0.37848 0.77767 0.18462 0.0
H789 H 0.46105 0.77074 0.19218 0.0
H790 H 0.55045 0.77335 0.20383 0.0
H791 H 0.61488 0.7844 0.21595 0.0
Mn792 Mn 0.38492 0.81615 0.51595 0.0
Mn793 Mn 0.31459 0.80974 0.55535 0.0
C794 C 0.3595 0.80082 0.51889 0.0
C795 C 0.38813 0.82241 0.48376 0.0
C796 C 0.42585 0.81261 0.55806 0.0
O797 O 0.36132 0.82853 0.52701 0.0
O798 O 0.31372 0.82381 0.55286 0.0
C799 C 0.21681 0.81536 0.53907 0.0
N800 N 0.24726 0.80859 0.54669 0.0
C801 C 0.18338 0.79682 0.5437 0.0
C802 C 0.15118 0.80368 0.53598 0.0
C803 C 0.16801 0.81299 0.53363 0.0
C804 C 0.23145 0.79962 0.54903 0.0
H805 H 0.22975 0.82251 0.53712 0.0
C806 C 0.3331 0.83022 0.54182 0.0
O807 O 0.42663 0.82277 0.49549 0.0
O808 O 0.34842 0.8185 0.49082 0.0
N809 N 0.31196 0.79642 0.55969 0.0
C810 C 0.34848 0.79056 0.56634 0.0
C811 C 0.33823 0.78093 0.56888 0.0
C812 C 0.29051 0.77745 0.5647 0.0
C813 C 0.25335 0.78364 0.55813 0.0
C814 C 0.26564 0.79318 0.55603 0.0
H815 H 0.38528 0.7932 0.56948 0.0
O816 O 0.39724 0.80295 0.50772 0.0
O817 O 0.33711 0.80781 0.52778 0.0
O818 O 0.43313 0.81474 0.5397 0.0
O819 O 0.38318 0.81058 0.56525 0.0
C820 C 0.20494 0.78069 0.55316 0.0
C821 C 0.16998 0.78727 0.54594 0.0
H822 H 0.11363 0.80186 0.53163 0.0
H823 H 0.14348 0.81831 0.52757 0.0
H824 H 0.36711 0.7762 0.57394 0.0
H825 H 0.28291 0.77 0.56646 0.0
H826 H 0.19441 0.77335 0.55457 0.0
H827 H 0.13308 0.7849 0.54192 0.0
Mn828 Mn 0.36971 0.94292 0.5201 0.0
Mn829 Mn 0.44281 0.94709 0.55997 0.0
C830 C 0.39909 0.9578 0.52539 0.0
C831 C 0.36448 0.93777 0.48712 0.0
C832 C 0.33093 0.94559 0.56285 0.0
O833 O 0.38932 0.92998 0.5291 0.0
O834 O 0.43818 0.93313 0.55554 0.0
C835 C 0.53753 0.94069 0.54213 0.0
N836 N 0.51005 0.9476 0.55091 0.0
C837 C 0.57788 0.9586 0.54873 0.0
C838 C 0.60707 0.95158 0.53981 0.0
C839 C 0.58677 0.94259 0.53648 0.0
C840 C 0.52919 0.95628 0.55418 0.0
H841 H 0.52192 0.9338 0.5394 0.0
C842 C 0.41653 0.92738 0.54359 0.0
O843 O 0.32592 0.93744 0.49884 0.0
O844 O 0.40522 0.94105 0.49462 0.0
N845 N 0.45076 0.96016 0.56622 0.0
C846 C 0.41703 0.96624 0.57424 0.0
C847 C 0.43101 0.97561 0.57802 0.0
C848 C 0.47956 0.9786 0.57368 0.0
C849 C 0.51384 0.97217 0.56574 0.0
C850 C 0.4979 0.96291 0.56243 0.0
H851 H 0.3796 0.96399 0.57752 0.0
O852 O 0.3609 0.95642 0.51396 0.0
O853 O 0.42008 0.95032 0.53297 0.0
O854 O 0.32257 0.94407 0.54428 0.0
O855 O 0.37432 0.94688 0.57011 0.0
C856 C 0.5629 0.97464 0.5606 0.0
C857 C 0.59489 0.96786 0.55209 0.0
H858 H 0.64495 0.95303 0.53531 0.0
H859 H 0.60897 0.93715 0.5295 0.0
H860 H 0.40434 0.98053 0.58416 0.0
H861 H 0.49004 0.98586 0.57641 0.0
H862 H 0.57624 0.98176 0.56292 0.0
H863 H 0.63235 0.96987 0.548 0.0
Mn864 Mn 0.59773 0.56256 0.26552 0.0
Mn865 Mn 0.49435 0.57254 0.24691 0.0
C866 C 0.59856 0.56816 0.23343 0.0
C867 C 0.63913 0.54856 0.27186 0.0
C868 C 0.56427 0.58237 0.27594 0.0
O869 O 0.54442 0.5591 0.28536 0.0
O870 O 0.47548 0.56421 0.26972 0.0
C871 C 0.44509 0.55556 0.23066 0.0
N872 N 0.46442 0.56432 0.22779 0.0
C873 C 0.44471 0.56386 0.19275 0.0
C874 C 0.42421 0.55486 0.19536 0.0
C875 C 0.42447 0.55069 0.2144 0.0
C876 C 0.46432 0.56841 0.20955 0.0
H877 H 0.44555 0.55231 0.24525 0.0
C878 C 0.49746 0.55991 0.28407 0.0
O879 O 0.64958 0.55611 0.28206 0.0
O880 O 0.60538 0.54921 0.25819 0.0
N881 N 0.5071 0.58072 0.22476 0.0
C882 C 0.53072 0.58922 0.22457 0.0
C883 C 0.53514 0.59419 0.20653 0.0
C884 C 0.51503 0.59041 0.1889 0.0
C885 C 0.49036 0.58172 0.1895 0.0
C886 C 0.48671 0.57712 0.20796 0.0
H887 H 0.54643 0.59214 0.23805 0.0
O888 O 0.63991 0.56644 0.24265 0.0
O889 O 0.55787 0.56614 0.24304 0.0
O890 O 0.59819 0.57606 0.27641 0.0
O891 O 0.52374 0.58152 0.26611 0.0
C892 C 0.47019 0.57733 0.17245 0.0
C893 C 0.4474 0.56841 0.17407 0.0
H894 H 0.40862 0.55105 0.18282 0.0
H895 H 0.40899 0.54372 0.2165 0.0
H896 H 0.55426 0.6009 0.20618 0.0
H897 H 0.51901 0.59422 0.17497 0.0
H898 H 0.47261 0.58071 0.15796 0.0
H899 H 0.4326 0.56506 0.1608 0.0
Mn900 Mn 0.63977 0.69797 0.26965 0.0
Mn901 Mn 0.74668 0.68777 0.25506 0.0
C902 C 0.64765 0.69289 0.23733 0.0
C903 C 0.59738 0.71194 0.27503 0.0
C904 C 0.66759 0.6777 0.27953 0.0
O905 O 0.68728 0.70099 0.29199 0.0
O906 O 0.75915 0.69538 0.27963 0.0
C907 C 0.80232 0.70491 0.24357 0.0
N908 N 0.78328 0.69633 0.23867 0.0
C909 C 0.81414 0.6976 0.20505 0.0
C910 C 0.83444 0.70642 0.20978 0.0
C911 C 0.82844 0.7101 0.22912 0.0
C912 C 0.78885 0.69272 0.22012 0.0
H913 H 0.79747 0.70779 0.25838 0.0
C914 C 0.734 0.69976 0.293 0.0
O915 O 0.58391 0.70427 0.28418 0.0
O916 O 0.63481 0.71144 0.26296 0.0
N917 N 0.74031 0.68025 0.23145 0.0
C918 C 0.71628 0.67187 0.22904 0.0
C919 C 0.71732 0.66738 0.21034 0.0
C920 C 0.74331 0.67151 0.19439 0.0
C921 C 0.76834 0.68007 0.19732 0.0
C922 C 0.76635 0.68417 0.21633 0.0
H923 H 0.69608 0.66868 0.24122 0.0
O924 O 0.60408 0.69456 0.24477 0.0
O925 O 0.68555 0.69461 0.24886 0.0
O926 O 0.63529 0.68432 0.27953 0.0
O927 O 0.71043 0.67845 0.27139 0.0
C928 C 0.79427 0.68478 0.18201 0.0
C929 C 0.81713 0.69354 0.18586 0.0
H930 H 0.8543 0.71048 0.19863 0.0
H931 H 0.84374 0.71693 0.23285 0.0
H932 H 0.6979 0.66078 0.2082 0.0
H933 H 0.74355 0.66808 0.17994 0.0
H934 H 0.79629 0.68179 0.16714 0.0
H935 H 0.8364 0.69716 0.1739 0.0
Mn936 Mn 0.60836 0.69749 0.99307 0.0
Mn937 Mn 0.50136 0.68792 0.00937 0.0
C938 C 0.60274 0.69249 0.02552 0.0
C939 C 0.65233 0.71121 0.98692 0.0
C940 C 0.5764 0.67737 0.9838 0.0
O941 O 0.55922 0.70079 0.97151 0.0
O942 O 0.48774 0.69554 0.98489 0.0
C943 C 0.44949 0.7054 0.02145 0.0
N944 N 0.46766 0.69672 0.02618 0.0
C945 C 0.44024 0.69826 0.06024 0.0
C946 C 0.42087 0.70718 0.05569 0.0
C947 C 0.42558 0.71076 0.03622 0.0
C948 C 0.46331 0.6932 0.04486 0.0
H949 H 0.45337 0.7082 0.00653 0.0
C950 C 0.51228 0.6998 0.97117 0.0
O951 O 0.66373 0.70345 0.97762 0.0
O952 O 0.61612 0.71092 -0.00039 0.0
N953 N 0.50881 0.68043 0.03297 0.0
C954 C 0.53183 0.67194 0.03516 0.0
C955 C 0.53193 0.66751 0.05392 0.0
C956 C 0.5081 0.67183 0.0702 0.0
C957 C 0.48408 0.68051 0.06752 0.0
C958 C 0.48484 0.68454 0.04843 0.0
H959 H 0.55039 0.66861 0.02273 0.0
O960 O 0.64584 0.69388 0.01739 0.0
O961 O 0.56408 0.69442 0.01456 0.0
O962 O 0.60958 0.68381 0.98316 0.0
O963 O 0.53458 0.67835 0.99265 0.0
C964 C 0.46038 0.68541 0.08315 0.0
C965 C 0.4385 0.69428 0.07951 0.0
H966 H 0.40273 0.71137 0.06708 0.0
H967 H 0.41099 0.71767 0.03263 0.0
H968 H 0.55057 0.66082 0.05587 0.0
H969 H 0.50876 0.66845 0.0847 0.0
H970 H 0.45936 0.68248 0.09809 0.0
H971 H 0.42096 0.69803 0.09171 0.0
Mn972 Mn 0.66437 0.56237 0.99344 0.0
Mn973 Mn 0.77245 0.57309 0.00426 0.0
C974 C 0.67593 0.56849 0.02475 0.0
C975 C 0.62302 0.54809 0.99098 0.0
C976 C 0.68993 0.58222 0.97998 0.0
O977 O 0.70904 0.55882 0.97048 0.0
O978 O 0.78248 0.56464 0.98074 0.0
C979 C 0.83019 0.55648 0.01743 0.0
N980 N 0.81116 0.56518 0.0213 0.0
C981 C 0.84511 0.56509 0.05455 0.0
C982 C 0.86544 0.55615 0.05086 0.0
C983 C 0.85789 0.55183 0.03223 0.0
C984 C 0.81824 0.56941 0.03917 0.0
H985 H 0.82412 0.5531 0.00318 0.0
C986 C 0.75559 0.55998 0.96838 0.0
O987 O 0.60733 0.55541 0.9811 0.0
O988 O 0.66195 0.54913 0.00207 0.0
N989 N 0.76821 0.58142 0.02668 0.0
C990 C 0.74396 0.58982 0.02818 0.0
C991 C 0.74643 0.59493 0.04612 0.0
C992 C 0.774 0.59138 0.06227 0.0
C993 C 0.79915 0.58278 0.06028 0.0
C994 C 0.79571 0.57804 0.04198 0.0
H995 H 0.72252 0.59256 0.01586 0.0
O996 O 0.63166 0.56643 0.01851 0.0
O997 O 0.71243 0.56647 0.01271 0.0
O998 O 0.65741 0.57571 0.98192 0.0
O999 O 0.73397 0.58173 0.9871 0.0
C1000 C 0.82663 0.57862 0.07588 0.0
C1001 C 0.84958 0.56978 0.07302 0.0
H1002 H 0.88649 0.55251 0.06229 0.0
H1003 H 0.87319 0.54491 0.02931 0.0
H1004 H 0.7269 0.60156 0.04754 0.0
H1005 H 0.77537 0.59529 0.07615 0.0
H1006 H 0.82982 0.5821 0.09022 0.0
H1007 H 0.87009 0.5666 0.0852 0.0
Mn1008 Mn 0.37992 0.4438 0.74272 0.0
Mn1009 Mn 0.30948 0.44882 0.7025 0.0
C1010 C 0.35263 0.45887 0.73802 0.0
C1011 C 0.38306 0.43829 0.77548 0.0
C1012 C 0.42122 0.44673 0.70042 0.0
O1013 O 0.35884 0.43107 0.73291 0.0
O1014 O 0.31194 0.43479 0.70621 0.0
C1015 C 0.2129 0.4427 0.71915 0.0
N1016 N 0.24184 0.44957 0.71098 0.0
C1017 C 0.17542 0.46087 0.71308 0.0
C1018 C 0.14475 0.4539 0.72136 0.0
C1019 C 0.16362 0.44478 0.72442 0.0
C1020 C 0.22407 0.45837 0.70796 0.0
H1021 H 0.22741 0.43571 0.72167 0.0
C1022 C 0.33209 0.42879 0.71804 0.0
O1023 O 0.42201 0.43788 0.76399 0.0
O1024 O 0.34306 0.44184 0.76787 0.0
N1025 N 0.30374 0.46199 0.69691 0.0
C1026 C 0.33883 0.468 0.68962 0.0
C1027 C 0.32641 0.47748 0.68623 0.0
C1028 C 0.278 0.48066 0.69023 0.0
C1029 C 0.24233 0.47431 0.69744 0.0
C1030 C 0.25677 0.46493 0.70038 0.0
H1031 H 0.37615 0.46559 0.68662 0.0
O1032 O 0.39023 0.45719 0.7496 0.0
O1033 O 0.33115 0.45158 0.72987 0.0
O1034 O 0.4284 0.44495 0.71897 0.0
O1035 O 0.37841 0.44836 0.69291 0.0
C1036 C 0.19333 0.47697 0.70223 0.0
C1037 C 0.1599 0.47025 0.71005 0.0
H1038 H 0.10683 0.4555 0.72558 0.0
H1039 H 0.14027 0.43938 0.73092 0.0
H1040 H 0.35414 0.48233 0.68066 0.0
H1041 H 0.26871 0.488 0.68781 0.0
H1042 H 0.18114 0.48418 0.70018 0.0
H1043 H 0.12249 0.4724 0.71389 0.0
Mn1044 Mn 0.36874 0.31776 0.74232 0.0
Mn1045 Mn 0.44034 0.31165 0.70308 0.0
C1046 C 0.39457 0.30247 0.7391 0.0
C1047 C 0.3646 0.32383 0.77465 0.0
C1048 C 0.32908 0.31438 0.69997 0.0
O1049 O 0.39215 0.33022 0.73164 0.0
O1050 O 0.44067 0.3257 0.70591 0.0
C1051 C 0.53747 0.3173 0.71993 0.0
N1052 N 0.50745 0.31053 0.71204 0.0
C1053 C 0.57154 0.2988 0.71514 0.0
C1054 C 0.60331 0.30566 0.72315 0.0
C1055 C 0.58616 0.31495 0.72558 0.0
C1056 C 0.52357 0.30158 0.70962 0.0
H1057 H 0.52428 0.32442 0.72195 0.0
C1058 C 0.42072 0.33202 0.71701 0.0
O1059 O 0.32634 0.32421 0.7628 0.0
O1060 O 0.4046 0.32001 0.76762 0.0
N1061 N 0.44352 0.29836 0.69845 0.0
C1062 C 0.4074 0.2925 0.69146 0.0
C1063 C 0.418 0.28289 0.68878 0.0
C1064 C 0.46566 0.27943 0.69316 0.0
C1065 C 0.50241 0.28562 0.70008 0.0
C1066 C 0.48979 0.29514 0.70231 0.0
H1067 H 0.37064 0.29512 0.68816 0.0
O1068 O 0.35657 0.30452 0.75019 0.0
O1069 O 0.41709 0.30953 0.73049 0.0
O1070 O 0.32117 0.31639 0.71836 0.0
O1071 O 0.37201 0.31247 0.6929 0.0
C1072 C 0.55073 0.2827 0.70525 0.0
C1073 C 0.58527 0.28928 0.71279 0.0
H1074 H 0.64077 0.30386 0.72766 0.0
H1075 H 0.61036 0.32027 0.73186 0.0
H1076 H 0.38943 0.27815 0.68345 0.0
H1077 H 0.47353 0.27199 0.69128 0.0
H1078 H 0.56152 0.27538 0.70375 0.0
H1079 H 0.62211 0.28692 0.71695 0.0
Mn1080 Mn 0.38004 0.31712 0.01718 0.0
Mn1081 Mn 0.31357 0.31043 0.05747 0.0
C1082 C 0.35619 0.30171 0.02033 0.0
C1083 C 0.37927 0.3235 0.98509 0.0
C1084 C 0.42484 0.31359 0.05862 0.0
O1085 O 0.35676 0.32941 0.02883 0.0
O1086 O 0.3111 0.32447 0.05505 0.0
C1087 C 0.21402 0.31571 0.04246 0.0
N1088 N 0.24566 0.30905 0.04973 0.0
C1089 C 0.18237 0.29711 0.04804 0.0
C1090 C 0.14896 0.30385 0.04068 0.0
C1091 C 0.16491 0.31318 0.03784 0.0
C1092 C 0.23076 0.30005 0.05248 0.0
H1093 H 0.22625 0.32287 0.04016 0.0
C1094 C 0.32931 0.33097 0.04393 0.0
O1095 O 0.41912 0.32388 0.99607 0.0
O1096 O 0.34066 0.31947 0.9928 0.0
N1097 N 0.3125 0.29711 0.06188 0.0
C1098 C 0.35001 0.29138 0.06815 0.0
C1099 C 0.34065 0.28174 0.07114 0.0
C1100 C 0.29277 0.27812 0.06786 0.0
C1101 C 0.25459 0.28419 0.0617 0.0
C1102 C 0.26608 0.29373 0.05906 0.0
H1103 H 0.38689 0.29413 0.07067 0.0
O1104 O 0.39248 0.30398 0.00853 0.0
O1105 O 0.33406 0.30861 0.02962 0.0
O1106 O 0.43062 0.31572 0.04016 0.0
O1107 O 0.38286 0.3115 0.06636 0.0
C1108 C 0.20585 0.28111 0.05772 0.0
C1109 C 0.1698 0.28755 0.05083 0.0
H1110 H 0.11112 0.30192 0.037 0.0
H1111 H 0.13942 0.31841 0.03205 0.0
H1112 H 0.3703 0.27711 0.07589 0.0
H1113 H 0.2858 0.27067 0.07 0.0
H1114 H 0.19584 0.27377 0.05965 0.0
H1115 H 0.13264 0.28507 0.04754 0.0
Mn1116 Mn 0.36885 0.44348 0.01936 0.0
Mn1117 Mn 0.43876 0.44758 0.06021 0.0
C1118 C 0.40033 0.45823 0.0245 0.0
C1119 C 0.36663 0.43798 0.98658 0.0
C1120 C 0.32634 0.4467 0.06133 0.0
O1121 O 0.38498 0.43052 0.02931 0.0
O1122 O 0.43285 0.43362 0.05607 0.0
C1123 C 0.53431 0.44066 0.04404 0.0
N1124 N 0.50692 0.44773 0.05228 0.0
C1125 C 0.57651 0.45836 0.05124 0.0
C1126 C 0.60561 0.45116 0.0429 0.0
C1127 C 0.58438 0.44228 0.03926 0.0
C1128 C 0.52695 0.4563 0.05583 0.0
H1129 H 0.51799 0.43385 0.04108 0.0
C1130 C 0.41091 0.4279 0.04415 0.0
O1131 O 0.32658 0.43808 0.99748 0.0
O1132 O 0.40699 0.44109 0.99473 0.0
N1133 N 0.44779 0.46064 0.06632 0.0
C1134 C 0.41409 0.46691 0.07365 0.0
C1135 C 0.42901 0.47621 0.07761 0.0
C1136 C 0.47845 0.47893 0.07417 0.0
C1137 C 0.51265 0.4723 0.06696 0.0
C1138 C 0.49573 0.46312 0.06343 0.0
H1139 H 0.376 0.46486 0.07625 0.0
O1140 O 0.36327 0.45697 0.01242 0.0
O1141 O 0.41907 0.4507 0.03278 0.0
O1142 O 0.31936 0.44518 0.04266 0.0
O1143 O 0.3693 0.44774 0.06919 0.0
C1144 C 0.56259 0.47449 0.06271 0.0
C1145 C 0.59448 0.46753 0.05484 0.0
H1146 H 0.64415 0.45241 0.03907 0.0
H1147 H 0.60651 0.43671 0.03271 0.0
H1148 H 0.4024 0.48129 0.08319 0.0
H1149 H 0.48967 0.48614 0.07703 0.0
H1150 H 0.57669 0.48155 0.06521 0.0
H1151 H 0.63264 0.46933 0.05142 0.0
C1152 C 0.1944 0.06403 0.05971 0.0
C1153 C 0.16931 0.07003 0.04653 0.0
C1154 C 0.18924 0.0652 0.08029 0.0
C1155 C 0.13875 0.08104 0.11972 0.0
H1156 H 0.1201 0.0574 0.14777 0.0
C1157 C 0.06476 0.06478 0.19991 0.0
C1158 C 0.08929 0.07084 0.21314 0.0
C1159 C 0.07142 0.06574 0.17936 0.0
C1160 C 0.12449 0.06407 0.14013 0.0
H1161 H 0.11846 0.08177 0.04411 0.0
H1162 H 0.10837 0.08373 0.08012 0.0
H1163 H 0.14228 0.05723 0.11271 0.0
H1164 H 0.14067 0.08249 0.21569 0.0
H1165 H 0.15337 0.08411 0.17969 0.0
H1166 H 0.11919 0.08786 0.14718 0.0
C1167 C 0.1336 0.07837 0.07471 0.0
C1168 C 0.13827 0.06397 0.12009 0.0
C1169 C 0.13913 0.07723 0.05413 0.0
C1170 C 0.12044 0.07791 0.20561 0.0
C1171 C 0.12748 0.07884 0.18505 0.0
C1172 C 0.12464 0.08114 0.13983 0.0
C1173 C 0.15757 0.0722 0.08802 0.0
C1174 C 0.14561 0.07244 0.10963 0.0
C1175 C 0.10406 0.0726 0.17173 0.0
C1176 C 0.11722 0.07264 0.15022 0.0
H1177 H 0.21639 0.05821 0.05409 0.0
H1178 H 0.20872 0.0604 0.09014 0.0
H1179 H 0.14435 0.08769 0.1121 0.0
H1180 H 0.04204 0.05905 0.2055 0.0
H1181 H 0.05228 0.06091 0.16949 0.0
C1182 C 0.1194 0.18238 0.05581 0.0
C1183 C 0.09026 0.18946 0.04714 0.0
C1184 C 0.12234 0.18155 0.07654 0.0
C1185 C 0.11146 0.19644 0.12108 0.0
H1186 H 0.1253 0.17277 0.14954 0.0
C1187 C 0.11911 0.18291 0.20741 0.0
C1188 C 0.15103 0.18976 0.21527 0.0
C1189 C 0.113 0.18206 0.18678 0.0
C1190 C 0.1212 0.17944 0.14181 0.0
H1191 H 0.04271 0.20144 0.05295 0.0
H1192 H 0.04594 0.1998 0.08925 0.0
H1193 H 0.10542 0.17266 0.11393 0.0
H1194 H 0.19993 0.20139 0.2082 0.0
H1195 H 0.19099 0.19973 0.17207 0.0
H1196 H 0.12584 0.20324 0.14891 0.0
C1197 C 0.06651 0.19485 0.08013 0.0
C1198 C 0.11018 0.17937 0.1214 0.0
C1199 C 0.0639 0.1957 0.0594 0.0
C1200 C 0.17658 0.19582 0.20234 0.0
C1201 C 0.17072 0.19496 0.18173 0.0
C1202 C 0.12216 0.1965 0.14143 0.0
C1203 C 0.0968 0.18792 0.08893 0.0
C1204 C 0.10539 0.18788 0.11081 0.0
C1205 C 0.13806 0.1882 0.17373 0.0
C1206 C 0.12748 0.18801 0.15201 0.0
H1207 H 0.14107 0.17766 0.04652 0.0
H1208 H 0.14663 0.17624 0.08281 0.0
H1209 H 0.10891 0.20312 0.11333 0.0
H1210 H 0.09804 0.17835 0.21726 0.0
H1211 H 0.08698 0.17689 0.18113 0.0
C1212 C 0.9104 0.93458 0.95599 0.0
C1213 C 0.86608 0.93518 0.96703 0.0
C1214 C 0.90942 0.93259 0.93561 0.0
C1215 C 0.82841 0.93527 0.89231 0.0
H1216 H 0.93122 0.9209 0.86541 0.0
C1217 C 0.83312 0.93314 0.8071 0.0
C1218 C 0.8794 0.93478 0.79805 0.0
C1219 C 0.82989 0.93121 0.82746 0.0
C1220 C 0.9024 0.92496 0.87271 0.0
H1221 H 0.78605 0.93376 0.96553 0.0
H1222 H 0.78423 0.93026 0.92969 0.0
H1223 H 0.92691 0.92086 0.90189 0.0
H1224 H 0.95886 0.93521 0.80296 0.0
H1225 H 0.95328 0.93202 0.83886 0.0
H1226 H 0.80471 0.93961 0.86332 0.0
C1227 C 0.81974 0.93142 0.93688 0.0
C1228 C 0.89983 0.92492 0.89358 0.0
C1229 C 0.82075 0.93338 0.95739 0.0
C1230 C 0.92273 0.93397 0.80958 0.0
C1231 C 0.91947 0.93211 0.8301 0.0
C1232 C 0.83098 0.93531 0.87149 0.0
C1233 C 0.86408 0.93116 0.92571 0.0
C1234 C 0.86328 0.9302 0.90362 0.0
C1235 C 0.87284 0.93097 0.83935 0.0
C1236 C 0.86841 0.93027 0.86143 0.0
H1237 H 0.94603 0.93587 0.96299 0.0
H1238 H 0.94418 0.93257 0.92746 0.0
H1239 H 0.80038 0.93955 0.89954 0.0
H1240 H 0.79907 0.93357 0.79852 0.0
H1241 H 0.79352 0.93013 0.83399 0.0
C1242 C 0.84166 0.82656 0.95226 0.0
C1243 C 0.88622 0.82647 0.9632 0.0
C1244 C 0.84167 0.82869 0.93193 0.0
C1245 C 0.923 0.82709 0.88852 0.0
H1246 H 0.81597 0.84035 0.86174 0.0
C1247 C 0.91785 0.82914 0.8033 0.0
C1248 C 0.87201 0.82719 0.79417 0.0
C1249 C 0.92052 0.83109 0.82367 0.0
C1250 C 0.84597 0.83659 0.869 0.0
H1251 H 0.9655 0.82897 0.96162 0.0
H1252 H 0.96562 0.8327 0.92587 0.0
H1253 H 0.82015 0.84033 0.89823 0.0
H1254 H 0.79265 0.82621 0.79897 0.0
H1255 H 0.79726 0.8294 0.83488 0.0
H1256 H 0.94799 0.82305 0.85951 0.0
C1257 C 0.93069 0.83104 0.93309 0.0
C1258 C 0.84847 0.83661 0.88988 0.0
C1259 C 0.93063 0.82895 0.95355 0.0
C1260 C 0.82845 0.82771 0.80564 0.0
C1261 C 0.83117 0.82956 0.82619 0.0
C1262 C 0.92044 0.82705 0.8677 0.0
C1263 C 0.88629 0.83074 0.92198 0.0
C1264 C 0.88664 0.83173 0.89988 0.0
C1265 C 0.87746 0.83101 0.83553 0.0
C1266 C 0.88158 0.8317 0.85766 0.0
H1267 H 0.80672 0.82472 0.95928 0.0
H1268 H 0.80692 0.82829 0.92382 0.0
H1269 H 0.95231 0.82312 0.89572 0.0
H1270 H 0.95203 0.82893 0.79476 0.0
H1271 H 0.95661 0.83242 0.83023 0.0
C1272 C 0.1323 0.57754 0.7035 0.0
C1273 C 0.10097 0.57051 0.71108 0.0
C1274 C 0.14 0.57834 0.68295 0.0
C1275 C 0.13673 0.56361 0.6378 0.0
H1276 H 0.1538 0.58737 0.61002 0.0
C1277 C 0.14179 0.57728 0.55202 0.0
C1278 C 0.17025 0.57004 0.54359 0.0
C1279 C 0.13921 0.57832 0.57272 0.0
C1280 C 0.14901 0.58068 0.61756 0.0
H1281 H 0.05457 0.55859 0.70358 0.0
H1282 H 0.066 0.5602 0.66756 0.0
H1283 H 0.13102 0.58736 0.64533 0.0
H1284 H 0.21753 0.55807 0.54981 0.0
H1285 H 0.21521 0.56011 0.58603 0.0
H1286 H 0.15256 0.5569 0.61003 0.0
C1287 C 0.08473 0.56511 0.67738 0.0
C1288 C 0.13631 0.58068 0.63782 0.0
C1289 C 0.07737 0.56429 0.69793 0.0
C1290 C 0.19684 0.56392 0.55604 0.0
C1291 C 0.1947 0.565 0.57675 0.0
C1292 C 0.14903 0.56362 0.61759 0.0
C1293 C 0.1171 0.57201 0.66969 0.0
C1294 C 0.12974 0.57213 0.64812 0.0
C1295 C 0.16453 0.57202 0.58534 0.0
C1296 C 0.15517 0.57214 0.60719 0.0
H1297 H 0.1519 0.58224 0.71354 0.0
H1298 H 0.16571 0.58363 0.67757 0.0
H1299 H 0.13298 0.5569 0.64535 0.0
H1300 H 0.11997 0.58191 0.54259 0.0
H1301 H 0.11502 0.5837 0.57878 0.0
C1302 C 0.12429 0.68375 0.70811 0.0
C1303 C 0.15489 0.69072 0.71638 0.0
C1304 C 0.11998 0.68289 0.68742 0.0
C1305 C 0.13134 0.69749 0.64238 0.0
H1306 H 0.1151 0.67373 0.6145 0.0
C1307 C 0.12438 0.68347 0.55641 0.0
C1308 C 0.09379 0.69045 0.5482 0.0
C1309 C 0.12971 0.68272 0.57709 0.0
C1310 C 0.11987 0.68042 0.62207 0.0
H1311 H 0.20338 0.70248 0.70995 0.0
H1312 H 0.19779 0.70077 0.67375 0.0
H1313 H 0.1345 0.67374 0.65016 0.0
H1314 H 0.04663 0.7024 0.55467 0.0
H1315 H 0.0541 0.70092 0.59088 0.0
H1316 H 0.11838 0.70419 0.61436 0.0
C1317 C 0.17708 0.69595 0.68312 0.0
C1318 C 0.13057 0.68042 0.64251 0.0
C1319 C 0.18104 0.69684 0.70379 0.0
C1320 C 0.06892 0.69675 0.56081 0.0
C1321 C 0.07395 0.69598 0.58147 0.0
C1322 C 0.12102 0.69749 0.622 0.0
C1323 C 0.14559 0.6891 0.6747 0.0
C1324 C 0.13636 0.68897 0.65287 0.0
C1325 C 0.10518 0.68908 0.58983 0.0
C1326 C 0.11495 0.68896 0.61162 0.0
H1327 H 0.10279 0.67914 0.71769 0.0
H1328 H 0.09479 0.67765 0.68144 0.0
H1329 H 0.13465 0.7042 0.64996 0.0
H1330 H 0.14491 0.67872 0.5468 0.0
H1331 H 0.15469 0.67744 0.58301 0.0
C1332 C 0.82457 0.43094 0.45597 0.0
C1333 C 0.86908 0.43335 0.46564 0.0
C1334 C 0.82436 0.42895 0.43547 0.0
C1335 C 0.90614 0.42359 0.392 0.0
H1336 H 0.80609 0.43726 0.36216 0.0
C1337 C 0.9244 0.43282 0.30783 0.0
C1338 C 0.88057 0.43337 0.29653 0.0
C1339 C 0.92217 0.43088 0.32835 0.0
C1340 C 0.83379 0.43323 0.3702 0.0
H1341 H 0.94859 0.43506 0.46168 0.0
H1342 H 0.94811 0.43168 0.42612 0.0
H1343 H 0.80239 0.43705 0.39837 0.0
H1344 H 0.8006 0.43159 0.29738 0.0
H1345 H 0.79685 0.42796 0.3328 0.0
H1346 H 0.93816 0.41996 0.3637 0.0
C1347 C 0.91341 0.43126 0.43426 0.0
C1348 C 0.83159 0.43311 0.39102 0.0
C1349 C 0.91358 0.43328 0.45465 0.0
C1350 C 0.83497 0.43136 0.30579 0.0
C1351 C 0.83278 0.42933 0.32613 0.0
C1352 C 0.90828 0.42369 0.37111 0.0
C1353 C 0.86869 0.42928 0.42432 0.0
C1354 C 0.86812 0.42841 0.40219 0.0
C1355 C 0.87609 0.42938 0.33783 0.0
C1356 C 0.87245 0.42862 0.35996 0.0
H1357 H 0.78974 0.4309 0.46407 0.0
H1358 H 0.78935 0.42735 0.42826 0.0
H1359 H 0.93459 0.41983 0.4002 0.0
H1360 H 0.96003 0.43436 0.30105 0.0
H1361 H 0.95626 0.43102 0.33693 0.0
C1362 C 0.90838 0.3254 0.30614 0.0
C1363 C 0.86387 0.32492 0.29521 0.0
C1364 C 0.9079 0.32751 0.32647 0.0
C1365 C 0.82715 0.3254 0.37 0.0
H1366 H 0.9325 0.33932 0.39638 0.0
C1367 C 0.83403 0.32766 0.45514 0.0
C1368 C 0.88023 0.32576 0.46403 0.0
C1369 C 0.83065 0.32961 0.43479 0.0
C1370 C 0.90296 0.33539 0.38922 0.0
H1371 H 0.78405 0.32669 0.29682 0.0
H1372 H 0.7831 0.33041 0.33258 0.0
H1373 H 0.92743 0.33928 0.35991 0.0
H1374 H 0.95948 0.32488 0.45883 0.0
H1375 H 0.95359 0.3281 0.42294 0.0
H1376 H 0.80345 0.32126 0.39912 0.0
C1377 C 0.81838 0.32906 0.32535 0.0
C1378 C 0.89995 0.33538 0.36836 0.0
C1379 C 0.81889 0.32697 0.30489 0.0
C1380 C 0.92341 0.32633 0.45235 0.0
C1381 C 0.91998 0.3282 0.43183 0.0
C1382 C 0.83014 0.3254 0.3908 0.0
C1383 C 0.86287 0.32919 0.33642 0.0
C1384 C 0.86251 0.33025 0.3585 0.0
C1385 C 0.87333 0.3296 0.42275 0.0
C1386 C 0.86848 0.33028 0.40067 0.0
H1387 H 0.94377 0.32391 0.29911 0.0
H1388 H 0.94276 0.32743 0.33454 0.0
H1389 H 0.79841 0.32124 0.36291 0.0
H1390 H 0.80012 0.32743 0.46384 0.0
H1391 H 0.79431 0.33088 0.42839 0.0
C1392 C 0.56669 0.06564 0.69898 0.0
C1393 C 0.59196 0.07176 0.71185 0.0
C1394 C 0.57222 0.06652 0.67834 0.0
C1395 C 0.62459 0.08171 0.63812 0.0
H1396 H 0.63969 0.05768 0.61124 0.0
C1397 C 0.69029 0.06414 0.55783 0.0
C1398 C 0.66561 0.07024 0.54475 0.0
C1399 C 0.6861 0.06537 0.57844 0.0
C1400 C 0.63642 0.06446 0.61855 0.0
H1401 H 0.6434 0.08343 0.71369 0.0
H1402 H 0.65421 0.08487 0.67761 0.0
H1403 H 0.61841 0.058 0.64638 0.0
H1404 H 0.61664 0.08228 0.54253 0.0
H1405 H 0.60814 0.08436 0.57855 0.0
H1406 H 0.64435 0.08813 0.61028 0.0
C1407 C 0.62855 0.07964 0.68327 0.0
C1408 C 0.6231 0.06465 0.63864 0.0
C1409 C 0.62258 0.0788 0.70389 0.0
C1410 C 0.63702 0.07765 0.55247 0.0
C1411 C 0.63238 0.07885 0.57306 0.0
C1412 C 0.63833 0.08152 0.61798 0.0
C1413 C 0.6045 0.07333 0.67027 0.0
C1414 C 0.61676 0.07327 0.64867 0.0
C1415 C 0.65573 0.07255 0.58629 0.0
C1416 C 0.6443 0.07288 0.60796 0.0
H1417 H 0.54439 0.05993 0.70488 0.0
H1418 H 0.55257 0.06163 0.66874 0.0
H1419 H 0.61982 0.08847 0.64539 0.0
H1420 H 0.711 0.05817 0.55214 0.0
H1421 H 0.70516 0.06048 0.58822 0.0
C1422 C 0.61837 0.18392 0.70905 0.0
C1423 C 0.64897 0.19107 0.71657 0.0
C1424 C 0.61189 0.1829 0.68848 0.0
C1425 C 0.61714 0.19713 0.64269 0.0
H1426 H 0.60344 0.17303 0.61593 0.0
C1427 C 0.6153 0.18248 0.5575 0.0
C1428 C 0.58574 0.18946 0.54869 0.0
C1429 C 0.61819 0.18174 0.57825 0.0
C1430 C 0.60734 0.17981 0.62319 0.0
H1431 H 0.69514 0.20302 0.70897 0.0
H1432 H 0.68576 0.20104 0.67294 0.0
H1433 H 0.62427 0.17349 0.65143 0.0
H1434 H 0.53714 0.20131 0.55426 0.0
H1435 H 0.54007 0.19979 0.59057 0.0
H1436 H 0.60227 0.2035 0.61447 0.0
C1437 C 0.66672 0.19619 0.68281 0.0
C1438 C 0.6189 0.18007 0.64354 0.0
C1439 C 0.67287 0.19723 0.70337 0.0
C1440 C 0.55868 0.19565 0.56081 0.0
C1441 C 0.56115 0.19487 0.58156 0.0
C1442 C 0.60598 0.19688 0.62239 0.0
C1443 C 0.63528 0.18914 0.67515 0.0
C1444 C 0.62411 0.18875 0.65348 0.0
C1445 C 0.59209 0.18809 0.59051 0.0
C1446 C 0.60098 0.18822 0.61237 0.0
H1447 H 0.59856 0.17927 0.71912 0.0
H1448 H 0.58682 0.1775 0.6831 0.0
H1449 H 0.61992 0.20393 0.64995 0.0
H1450 H 0.63749 0.17781 0.54831 0.0
H1451 H 0.64299 0.17654 0.58462 0.0
C1452 C 0.31784 0.93287 0.45625 0.0
C1453 C 0.36291 0.93482 0.46595 0.0
C1454 C 0.31717 0.93094 0.43573 0.0
C1455 C 0.3984 0.92478 0.39253 0.0
H1456 H 0.30198 0.93909 0.3621 0.0
C1457 C 0.42145 0.93395 0.30859 0.0
C1458 C 0.37823 0.9345 0.29693 0.0
C1459 C 0.41809 0.93212 0.32913 0.0
C1460 C 0.32866 0.9349 0.37032 0.0
H1461 H 0.44279 0.93583 0.462 0.0
H1462 H 0.44152 0.93257 0.42646 0.0
H1463 H 0.29719 0.93899 0.39833 0.0
H1464 H 0.29807 0.9329 0.29721 0.0
H1465 H 0.2924 0.92953 0.33271 0.0
H1466 H 0.43064 0.92092 0.36441 0.0
C1467 C 0.40671 0.93245 0.43457 0.0
C1468 C 0.32581 0.93483 0.39113 0.0
C1469 C 0.40734 0.93441 0.45496 0.0
C1470 C 0.33203 0.93266 0.30588 0.0
C1471 C 0.32872 0.93077 0.32626 0.0
C1472 C 0.40126 0.92485 0.37166 0.0
C1473 C 0.36161 0.93086 0.42461 0.0
C1474 C 0.36112 0.92991 0.40251 0.0
C1475 C 0.37148 0.93075 0.33826 0.0
C1476 C 0.36682 0.93003 0.36033 0.0
H1477 H 0.28305 0.9331 0.46437 0.0
H1478 H 0.28184 0.92965 0.42849 0.0
H1479 H 0.42582 0.92082 0.40087 0.0
H1480 H 0.45752 0.93534 0.30207 0.0
H1481 H 0.45176 0.9322 0.33798 0.0
C1482 C 0.43374 0.82831 0.45347 0.0
C1483 C 0.38899 0.82592 0.46297 0.0
C1484 C 0.43413 0.83065 0.43313 0.0
C1485 C 0.35273 0.83715 0.39025 0.0
H1486 H 0.45032 0.82347 0.35913 0.0
C1487 C 0.33042 0.82888 0.30587 0.0
C1488 C 0.3737 0.82812 0.2943 0.0
C1489 C 0.33374 0.83072 0.32641 0.0
C1490 C 0.42335 0.82752 0.36753 0.0
H1491 H 0.30929 0.8246 0.45893 0.0
H1492 H 0.31007 0.8286 0.42368 0.0
H1493 H 0.45484 0.82312 0.39532 0.0
H1494 H 0.45392 0.82948 0.29464 0.0
H1495 H 0.4596 0.83297 0.3301 0.0
H1496 H 0.32054 0.84134 0.36234 0.0
C1497 C 0.34483 0.82873 0.43181 0.0
C1498 C 0.42602 0.82731 0.38835 0.0
C1499 C 0.34448 0.82635 0.45202 0.0
C1500 C 0.41993 0.82988 0.30327 0.0
C1501 C 0.42322 0.83182 0.32364 0.0
C1502 C 0.35013 0.83738 0.36937 0.0
C1503 C 0.38973 0.83071 0.422 0.0
C1504 C 0.39027 0.83198 0.39997 0.0
C1505 C 0.38039 0.83192 0.33562 0.0
C1506 C 0.385 0.83244 0.35776 0.0
H1507 H 0.46858 0.82807 0.46155 0.0
H1508 H 0.46929 0.83224 0.42602 0.0
H1509 H 0.32491 0.84091 0.39881 0.0
H1510 H 0.29433 0.82754 0.29931 0.0
H1511 H 0.29998 0.8307 0.3352 0.0
C1512 C 0.70972 0.56515 0.05843 0.0
C1513 C 0.68226 0.57103 0.04577 0.0
C1514 C 0.70678 0.56627 0.07911 0.0
C1515 C 0.65541 0.58148 0.11966 0.0
H1516 H 0.6405 0.55746 0.1466 0.0
C1517 C 0.57862 0.56415 0.19834 0.0
C1518 C 0.60039 0.57033 0.21208 0.0
C1519 C 0.58759 0.56521 0.17794 0.0
C1520 C 0.64394 0.56424 0.13927 0.0
H1521 H 0.63012 0.5826 0.0444 0.0
H1522 H 0.62379 0.58445 0.08053 0.0
H1523 H 0.66352 0.55778 0.11163 0.0
H1524 H 0.64953 0.58226 0.21573 0.0
H1525 H 0.66611 0.58408 0.18003 0.0
H1526 H 0.63369 0.58789 0.14729 0.0
C1527 C 0.64917 0.57922 0.07465 0.0
C1528 C 0.65822 0.56443 0.11928 0.0
C1529 C 0.65255 0.57815 0.05398 0.0
C1530 C 0.63135 0.57758 0.20523 0.0
C1531 C 0.64063 0.57863 0.18484 0.0
C1532 C 0.64078 0.58129 0.1397 0.0
C1533 C 0.67496 0.57308 0.08746 0.0
C1534 C 0.66395 0.57304 0.10919 0.0
C1535 C 0.61976 0.57231 0.171 0.0
C1536 C 0.63453 0.57265 0.14967 0.0
H1537 H 0.73143 0.55939 0.05238 0.0
H1538 H 0.72771 0.56151 0.08855 0.0
H1539 H 0.65976 0.58824 0.11234 0.0
H1540 H 0.55612 0.55829 0.20343 0.0
H1541 H 0.57039 0.56031 0.16766 0.0
C1542 C 0.62215 0.68407 0.20714 0.0
C1543 C 0.65171 0.69107 0.21589 0.0
C1544 C 0.6193 0.68329 0.1864 0.0
C1545 C 0.63359 0.69802 0.14158 0.0
H1546 H 0.6178 0.67426 0.11365 0.0
C1547 C 0.62957 0.68375 0.05564 0.0
C1548 C 0.60039 0.69085 0.04706 0.0
C1549 C 0.63386 0.68307 0.07636 0.0
C1550 C 0.62249 0.68095 0.12121 0.0
H1551 H 0.69986 0.70297 0.21024 0.0
H1552 H 0.69701 0.70138 0.17394 0.0
H1553 H 0.63565 0.67426 0.14938 0.0
H1554 H 0.55461 0.70306 0.05297 0.0
H1555 H 0.55996 0.70166 0.08925 0.0
H1556 H 0.62229 0.70472 0.11343 0.0
C1557 C 0.67593 0.69648 0.18298 0.0
C1558 C 0.63228 0.68095 0.14171 0.0
C1559 C 0.67837 0.69729 0.20372 0.0
C1560 C 0.57573 0.6973 0.05938 0.0
C1561 C 0.57963 0.69659 0.0801 0.0
C1562 C 0.62429 0.69801 0.12111 0.0
C1563 C 0.64545 0.6896 0.17407 0.0
C1564 C 0.63776 0.68949 0.15213 0.0
C1565 C 0.60961 0.68959 0.08882 0.0
C1566 C 0.61835 0.68949 0.11069 0.0
H1567 H 0.60021 0.67938 0.21637 0.0
H1568 H 0.59478 0.67803 0.18007 0.0
H1569 H 0.63668 0.70473 0.14916 0.0
H1570 H 0.65001 0.67887 0.04628 0.0
H1571 H 0.65794 0.6777 0.08254 0.0
C1572 C 0.33887 0.43504 0.80742 0.0
C1573 C 0.38357 0.43521 0.79657 0.0
C1574 C 0.33878 0.43302 0.8278 0.0
C1575 C 0.41954 0.43487 0.8714 0.0
H1576 H 0.31211 0.42164 0.898 0.0
C1577 C 0.41316 0.43268 0.95657 0.0
C1578 C 0.36738 0.43479 0.96559 0.0
C1579 C 0.41598 0.43077 0.93619 0.0
C1580 C 0.34222 0.42539 0.89078 0.0
H1581 H 0.46305 0.43297 0.79837 0.0
H1582 H 0.46297 0.42941 0.83419 0.0
H1583 H 0.31706 0.42155 0.86153 0.0
H1584 H 0.28821 0.43609 0.96059 0.0
H1585 H 0.29314 0.43294 0.92464 0.0
H1586 H 0.44401 0.43896 0.90045 0.0
C1587 C 0.42802 0.43094 0.82687 0.0
C1588 C 0.34515 0.42531 0.86991 0.0
C1589 C 0.42808 0.43293 0.80638 0.0
C1590 C 0.32397 0.43449 0.95399 0.0
C1591 C 0.32685 0.43265 0.93345 0.0
C1592 C 0.41661 0.43494 0.8922 0.0
C1593 C 0.38341 0.43113 0.83787 0.0
C1594 C 0.38343 0.43019 0.85998 0.0
C1595 C 0.37314 0.43102 0.92424 0.0
C1596 C 0.37758 0.43031 0.90215 0.0
H1597 H 0.30385 0.43671 0.80029 0.0
H1598 H 0.30387 0.43335 0.83581 0.0
H1599 H 0.44894 0.43884 0.86425 0.0
H1600 H 0.44722 0.43271 0.96519 0.0
H1601 H 0.45202 0.42931 0.9297 0.0
C1602 C 0.40748 0.32764 0.80661 0.0
C1603 C 0.36313 0.32714 0.79558 0.0
C1604 C 0.40665 0.32975 0.82695 0.0
C1605 C 0.32532 0.32731 0.87016 0.0
H1606 H 0.42901 0.34134 0.89727 0.0
C1607 C 0.33086 0.32869 0.95545 0.0
C1608 C 0.37728 0.32705 0.96438 0.0
C1609 C 0.32739 0.33082 0.93517 0.0
C1610 C 0.39993 0.33737 0.88993 0.0
H1611 H 0.28329 0.32892 0.79699 0.0
H1612 H 0.28175 0.33262 0.83275 0.0
H1613 H 0.42482 0.34149 0.86079 0.0
H1614 H 0.45671 0.32682 0.95935 0.0
H1615 H 0.45074 0.33032 0.92361 0.0
H1616 H 0.30137 0.32289 0.89905 0.0
C1617 C 0.31715 0.33129 0.8256 0.0
C1618 C 0.39742 0.33748 0.86904 0.0
C1619 C 0.31801 0.32922 0.80513 0.0
C1620 C 0.42047 0.32807 0.95283 0.0
C1621 C 0.41697 0.3301 0.93239 0.0
C1622 C 0.32789 0.32718 0.89097 0.0
C1623 C 0.36143 0.33138 0.8368 0.0
C1624 C 0.36056 0.33232 0.85892 0.0
C1625 C 0.37022 0.33124 0.92322 0.0
C1626 C 0.36563 0.33209 0.90113 0.0
H1627 H 0.44294 0.32613 0.79967 0.0
H1628 H 0.44136 0.32965 0.83513 0.0
H1629 H 0.29704 0.32311 0.86285 0.0
H1630 H 0.29692 0.3281 0.96406 0.0
H1631 H 0.29091 0.3319 0.92875 0.0
C1632 C 0.27402 0.96829 0.24345 0.0
C1633 C 0.32412 0.9674 0.23815 0.0
C1634 C 0.25372 0.97718 0.24713 0.0
C1635 C 0.27928 0.00294 0.24262 0.0
H1636 H 0.18492 0.00447 0.2863 0.0
C1637 C 0.20898 0.03843 0.27443 0.0
C1638 C 0.15718 0.03917 0.27286 0.0
C1639 C 0.23199 0.02963 0.2723 0.0
C1640 C 0.21145 0.00412 0.27414 0.0
H1641 H 0.39295 0.97489 0.23317 0.0
H1642 H 0.35821 0.99041 0.24004 0.0
H1643 H 0.21823 0.98917 0.27647 0.0
H1644 H 0.08847 0.03142 0.26919 0.0
H1645 H 0.1284 0.01606 0.26622 0.0
H1646 H 0.27278 0.01797 0.24063 0.0
C1647 C 0.33375 0.98436 0.24056 0.0
C1648 C 0.23006 0.99537 0.26831 0.0
C1649 C 0.35377 0.97548 0.23667 0.0
C1650 C 0.12854 0.03099 0.27046 0.0
C1651 C 0.15132 0.02222 0.2688 0.0
C1652 C 0.26119 0.01172 0.24866 0.0
C1653 C 0.28369 0.98531 0.24622 0.0
C1654 C 0.26378 0.99465 0.25232 0.0
C1655 C 0.20325 0.02149 0.26909 0.0
C1656 C 0.22673 0.01236 0.26433 0.0
H1657 H 0.25106 0.96209 0.24547 0.0
H1658 H 0.21484 0.97765 0.25114 0.0
H1659 H 0.30467 0.00266 0.23008 0.0
H1660 H 0.23171 0.04468 0.27609 0.0
H1661 H 0.27216 0.02921 0.27262 0.0
C1662 C 0.97314 0.29141 0.24402 0.0
C1663 C 0.92384 0.29219 0.23751 0.0
C1664 C 0.99346 0.28256 0.2481 0.0
C1665 C 0.95782 0.25937 0.26564 0.0
H1666 H 0.08581 0.2514 0.24529 0.0
C1667 C 0.037 0.22165 0.27644 0.0
C1668 C 0.08879 0.22072 0.27705 0.0
C1669 C 0.01559 0.23054 0.27341 0.0
C1670 C 0.05044 0.25357 0.25144 0.0
H1671 H 0.85625 0.28455 0.23092 0.0
H1672 H 0.89167 0.26901 0.23821 0.0
H1673 H 0.05163 0.26651 0.23494 0.0
H1674 H 0.15881 0.2282 0.27685 0.0
H1675 H 0.1217 0.24372 0.27282 0.0
H1676 H 0.95694 0.24656 0.28252 0.0
C1677 C 0.91488 0.27521 0.23972 0.0
C1678 C 0.03078 0.2622 0.24534 0.0
C1679 C 0.89482 0.28404 0.23542 0.0
C1680 C 0.11869 0.22879 0.27628 0.0
C1681 C 0.09742 0.23765 0.2737 0.0
C1682 C 0.97777 0.25078 0.27197 0.0
C1683 C 0.96418 0.27441 0.24633 0.0
C1684 C 0.98434 0.26516 0.25237 0.0
C1685 C 0.0458 0.23859 0.27126 0.0
C1686 C 0.02443 0.24779 0.26499 0.0
H1687 H 0.99533 0.29765 0.24666 0.0
H1688 H 0.03137 0.28213 0.25344 0.0
H1689 H 0.92211 0.26158 0.27144 0.0
H1690 H 0.01337 0.21547 0.27677 0.0
H1691 H 0.97571 0.23099 0.27156 0.0
C1692 C 0.14156 0.22816 0.98727 0.0
C1693 C 0.17033 0.21994 0.98676 0.0
C1694 C 0.1641 0.23693 0.9892 0.0
C1695 C 0.28418 0.24973 0.98837 0.0
H1696 H 0.21413 0.26609 0.02533 0.0
C1697 C 0.36715 0.28435 0.01992 0.0
C1698 C 0.33555 0.29219 0.0189 0.0
C1699 C 0.34875 0.27532 0.01613 0.0
C1700 C 0.23398 0.26161 0.01494 0.0
H1701 H 0.24505 0.21433 0.98675 0.0
H1702 H 0.28502 0.22975 0.99077 0.0
H1703 H 0.17965 0.25075 0.01717 0.0
H1704 H 0.26138 0.29697 0.01171 0.0
H1705 H 0.22854 0.28116 0.00566 0.0
H1706 H 0.33904 0.26066 0.98658 0.0
C1707 C 0.245 0.22944 0.98932 0.0
C1708 C 0.21413 0.25284 0.01012 0.0
C1709 C 0.22228 0.22062 0.98699 0.0
C1710 C 0.2857 0.29095 0.01352 0.0
C1711 C 0.26716 0.28194 0.00989 0.0
C1712 C 0.30434 0.2585 0.99338 0.0
C1713 C 0.21591 0.23765 0.99116 0.0
C1714 C 0.23852 0.24685 0.99653 0.0
C1715 C 0.2986 0.27405 0.01105 0.0
C1716 C 0.27904 0.26456 0.00653 0.0
H1717 H 0.10136 0.22778 0.98688 0.0
H1718 H 0.14068 0.24313 0.98986 0.0
H1719 H 0.30377 0.24531 0.9778 0.0
H1720 H 0.40612 0.28522 0.02351 0.0
H1721 H 0.37368 0.26935 0.01713 0.0
C1722 C 0.12338 0.03038 0.98846 0.0
C1723 C 0.09502 0.03865 0.98702 0.0
C1724 C 0.10028 0.02167 0.99062 0.0
C1725 C 0.99333 0.01147 0.01383 0.0
H1726 H 0.03014 0.98879 0.98513 0.0
C1727 C 0.9009 0.97542 0.02849 0.0
C1728 C 0.92976 0.96727 0.02616 0.0
C1729 C 0.92076 0.98426 0.02414 0.0
C1730 C 0.02008 0.99502 0.99353 0.0
H1731 H 0.02054 0.04437 0.98596 0.0
H1732 H 0.97962 0.02899 0.9903 0.0
H1733 H 0.06258 0.00399 0.97426 0.0
H1734 H 0.00126 0.96184 0.01698 0.0
H1735 H 0.03737 0.97733 0.0105 0.0
H1736 H 0.95254 0.00254 0.03364 0.0
C1737 C 0.01977 0.02931 0.98948 0.0
C1738 C 0.03817 0.00373 0.98711 0.0
C1739 C 0.04302 0.03805 0.98684 0.0
C1740 C 0.97902 0.96808 0.01965 0.0
C1741 C -0.00081 0.97693 0.01551 0.0
C1742 C 0.97577 0.00275 0.02045 0.0
C1743 C 0.04837 0.02108 0.99181 0.0
C1744 C 0.0251 0.01201 0.99725 0.0
C1745 C 0.96985 0.98511 0.01717 0.0
C1746 C 0.98915 0.9944 0.01044 0.0
H1747 H 0.1636 0.0307 0.98867 0.0
H1748 H 0.12313 0.01544 0.99251 0.0
H1749 H 0.9835 0.01776 0.02211 0.0
H1750 H 0.8623 0.97489 0.03295 0.0
H1751 H 0.89677 0.99036 0.02529 0.0
C1752 C 0.64008 0.03238 0.76985 0.0
C1753 C 0.66811 0.04066 0.77176 0.0
C1754 C 0.66349 0.02365 0.7689 0.0
C1755 C 0.77389 0.013 0.74989 0.0
H1756 H 0.73084 0.99093 0.77932 0.0
C1757 C 0.86252 0.97628 0.73892 0.0
C1758 C 0.83145 0.9684 0.74049 0.0
C1759 C 0.84416 0.98528 0.74292 0.0
C1760 C 0.74277 0.99699 0.77075 0.0
H1761 H 0.74219 0.04642 0.7748 0.0
H1762 H 0.78379 0.031 0.77252 0.0
H1763 H 0.69803 0.00639 0.78818 0.0
H1764 H 0.75781 0.96354 0.74825 0.0
H1765 H 0.72453 0.97931 0.75416 0.0
H1766 H 0.81684 0.00362 0.73182 0.0
C1767 C 0.7436 0.03132 0.77205 0.0
C1768 C 0.72445 0.00584 0.77602 0.0
C1769 C 0.71995 0.04009 0.77348 0.0
C1770 C 0.78179 0.96959 0.74615 0.0
C1771 C 0.76319 0.9786 0.74996 0.0
C1772 C 0.79174 0.00413 0.74441 0.0
C1773 C 0.71545 0.02306 0.76942 0.0
C1774 C 0.73952 0.0139 0.76553 0.0
C1775 C 0.79446 0.98653 0.74881 0.0
C1776 C 0.77599 0.996 0.75466 0.0
H1777 H 0.59999 0.03268 0.76852 0.0
H1778 H 0.64104 0.01739 0.76673 0.0
H1779 H 0.78537 0.01912 0.74136 0.0
H1780 H 0.90141 0.97545 0.73515 0.0
H1781 H 0.86954 0.99119 0.74221 0.0
C1782 C 0.03275 0.72218 0.77845 0.0
C1783 C 0.08467 0.72155 0.77728 0.0
C1784 C 0.00933 0.73093 0.77621 0.0
C1785 C 0.02855 0.75651 0.77807 0.0
H1786 H 0.93768 0.75773 0.73318 0.0
C1787 C 0.97091 0.79209 0.74476 0.0
C1788 C 0.92142 0.79311 0.73871 0.0
C1789 C 0.98975 0.78319 0.74941 0.0
C1790 C 0.96235 0.75751 0.74595 0.0
H1791 H 0.15308 0.72946 0.77425 0.0
H1792 H 0.11239 0.74473 0.77107 0.0
H1793 H 0.96908 0.74248 0.74435 0.0
H1794 H 0.85199 0.78586 0.7335 0.0
H1795 H 0.88424 0.7703 0.74206 0.0
H1796 H 0.02173 0.77147 0.77993 0.0
C1797 C 0.08971 0.73853 0.77344 0.0
C1798 C 0.98018 0.74877 0.75235 0.0
C1799 C 0.11294 0.7298 0.77522 0.0
C1800 C 0.89076 0.78515 0.73758 0.0
C1801 C 0.90934 0.77626 0.74243 0.0
C1802 C 0.01023 0.76523 0.77186 0.0
C1803 C 0.03772 0.73914 0.77328 0.0
C1804 C 0.01395 0.74822 0.76828 0.0
C1805 C 0.95887 0.77519 0.74874 0.0
C1806 C 0.97751 0.76586 0.75552 0.0
H1807 H 0.01031 0.71588 0.77984 0.0
H1808 H 0.96913 0.73127 0.77618 0.0
H1809 H 0.05448 0.75624 0.79043 0.0
H1810 H 0.99458 0.7982 0.74652 0.0
H1811 H 0.02827 0.78262 0.7539 0.0
C1812 C 0.65236 0.72857 0.98472 0.0
C1813 C 0.67908 0.7201 0.98387 0.0
C1814 C 0.67717 0.73717 0.98533 0.0
C1815 C 0.78789 0.74732 0.00541 0.0
H1816 H 0.74817 0.7695 0.97557 0.0
C1817 C 0.87402 0.78418 0.01886 0.0
C1818 C 0.84191 0.79193 0.0176 0.0
C1819 C 0.85725 0.77517 0.01388 0.0
C1820 C 0.75927 0.7634 0.9842 0.0
H1821 H 0.75234 0.71386 0.9823 0.0
H1822 H 0.79637 0.72905 0.98396 0.0
H1823 H 0.71534 0.75411 0.96622 0.0
H1824 H 0.76824 0.79655 0.00925 0.0
H1825 H 0.73782 0.78077 0.00151 0.0
H1826 H 0.82992 0.75663 0.02403 0.0
C1827 C 0.75614 0.72898 0.98386 0.0
C1828 C 0.74091 0.75459 0.97868 0.0
C1829 C 0.7311 0.72034 0.98277 0.0
C1830 C 0.79298 0.79059 0.0111 0.0
C1831 C 0.77602 0.78159 0.00626 0.0
C1832 C 0.80585 0.75616 0.01111 0.0
C1833 C 0.72924 0.73744 0.98553 0.0
C1834 C 0.75447 0.7465 0.98941 0.0
C1835 C 0.80821 0.77379 0.00726 0.0
C1836 C 0.79106 0.76433 0.00076 0.0
H1837 H 0.61215 0.72853 0.98559 0.0
H1838 H 0.6556 0.74358 0.98678 0.0
H1839 H 0.79824 0.74119 0.01412 0.0
H1840 H 0.9124 0.78513 0.02329 0.0
H1841 H 0.88324 0.76935 0.01453 0.0
C1842 C 0.21904 0.53956 0.77528 0.0
C1843 C 0.16713 0.5401 0.77399 0.0
C1844 C 0.24279 0.53081 0.77372 0.0
C1845 C 0.22463 0.50525 0.77709 0.0
H1846 H 0.31371 0.50359 0.73169 0.0
C1847 C 0.28103 0.46936 0.74504 0.0
C1848 C 0.33033 0.46828 0.73878 0.0
C1849 C 0.26231 0.4783 0.74935 0.0
C1850 C 0.28956 0.50393 0.74461 0.0
H1851 H 0.099 0.53207 0.77151 0.0
H1852 H 0.14024 0.5168 0.76955 0.0
H1853 H 0.28259 0.51894 0.74234 0.0
H1854 H 0.3995 0.47549 0.73279 0.0
H1855 H 0.36748 0.49112 0.74075 0.0
H1856 H 0.23165 0.49031 0.7796 0.0
C1857 C 0.16268 0.52307 0.77149 0.0
C1858 C 0.27192 0.51273 0.75072 0.0
C1859 C 0.13914 0.53179 0.77256 0.0
C1860 C 0.36086 0.47623 0.73704 0.0
C1861 C 0.34241 0.48517 0.74156 0.0
C1862 C 0.24278 0.49647 0.77118 0.0
C1863 C 0.21469 0.52253 0.77138 0.0
C1864 C 0.23873 0.51343 0.76682 0.0
C1865 C 0.29314 0.4863 0.74813 0.0
C1866 C 0.27481 0.49568 0.75464 0.0
H1867 H 0.24123 0.54592 0.77617 0.0
H1868 H 0.283 0.53053 0.7737 0.0
H1869 H 0.19912 0.50564 0.78959 0.0
H1870 H 0.2575 0.46326 0.74727 0.0
H1871 H 0.22396 0.47892 0.75405 0.0
C1872 C 0.36809 0.78342 0.51786 0.0
C1873 C 0.33762 0.79141 0.51684 0.0
C1874 C 0.34916 0.77455 0.51304 0.0
C1875 C 0.24592 0.76341 0.48488 0.0
H1876 H 0.2856 0.74098 0.51388 0.0
C1877 C 0.13689 0.72865 0.48688 0.0
C1878 C 0.16341 0.7202 0.48471 0.0
C1879 C 0.1618 0.73725 0.48746 0.0
C1880 C 0.27492 0.74718 0.50545 0.0
H1881 H 0.26471 0.79661 0.50893 0.0
H1882 H 0.23043 0.78108 0.50163 0.0
H1883 H 0.32009 0.75625 0.52335 0.0
H1884 H 0.2363 0.71403 0.48081 0.0
H1885 H 0.2805 0.72919 0.48245 0.0
H1886 H 0.19873 0.75433 0.46772 0.0
C1887 C 0.26903 0.78159 0.50603 0.0
C1888 C 0.29456 0.75592 0.51087 0.0
C1889 C 0.28821 0.79046 0.51064 0.0
C1890 C 0.21516 0.72048 0.48231 0.0
C1891 C 0.24034 0.72911 0.48339 0.0
C1892 C 0.22575 0.75469 0.47969 0.0
C1893 C 0.29948 0.77353 0.50687 0.0
C1894 C 0.27985 0.76417 0.50079 0.0
C1895 C 0.21379 0.73753 0.48633 0.0
C1896 C 0.23973 0.74652 0.49005 0.0
H1897 H 0.40683 0.78408 0.52202 0.0
H1898 H 0.37397 0.76855 0.51351 0.0
H1899 H 0.23469 0.76956 0.47643 0.0
H1900 H 0.09691 0.72859 0.48876 0.0
H1901 H 0.14058 0.74364 0.48988 0.0
C1902 C 0.88495 0.47533 0.52217 0.0
C1903 C 0.91637 0.46747 0.52095 0.0
C1904 C 0.90275 0.4843 0.51747 0.0
C1905 C 0.00277 0.49579 0.48844 0.0
H1906 H 0.96307 0.51816 0.51765 0.0
C1907 C 0.10887 0.53075 0.48742 0.0
C1908 C 0.08176 0.53915 0.48564 0.0
C1909 C 0.08448 0.52214 0.48894 0.0
C1910 C 0.97371 0.51198 0.50917 0.0
H1911 H 0.98993 0.46263 0.513 0.0
H1912 H 0.02215 0.47834 0.50579 0.0
H1913 H 0.93083 0.50278 0.52772 0.0
H1914 H 0.00815 0.54521 0.48348 0.0
H1915 H 0.96489 0.53 0.4867 0.0
H1916 H 0.04739 0.50498 0.47049 0.0
C1917 C 0.98369 0.47763 0.51028 0.0
C1918 C 0.95542 0.50317 0.51494 0.0
C1919 C 0.96568 0.46867 0.51482 0.0
C1920 C 0.02973 0.5388 0.48468 0.0
C1921 C 0.00512 0.53014 0.48666 0.0
C1922 C 0.02148 0.50456 0.48284 0.0
C1923 C 0.95217 0.48554 0.51119 0.0
C1924 C 0.97029 0.49496 0.5048 0.0
C1925 C 0.03243 0.52177 0.48909 0.0
C1926 C 0.00758 0.51271 0.4933 0.0
H1927 H 0.8463 0.47448 0.52632 0.0
H1928 H 0.87724 0.49019 0.51803 0.0
H1929 H 0.01398 0.48965 0.47995 0.0
H1930 H 0.14908 0.53087 0.48817 0.0
H1931 H 0.10634 0.5158 0.49095 0.0
C1932 C 0.71617 0.53903 0.27686 0.0
C1933 C 0.66436 0.53952 0.27495 0.0
C1934 C 0.74025 0.5303 0.27561 0.0
C1935 C 0.72255 0.50474 0.27916 0.0
H1936 H 0.81479 0.50295 0.23481 0.0
C1937 C 0.78086 0.46879 0.24778 0.0
C1938 C 0.83026 0.4677 0.24165 0.0
C1939 C 0.76223 0.47772 0.25222 0.0
C1940 C 0.78979 0.50333 0.24746 0.0
H1941 H 0.59667 0.53142 0.27162 0.0
H1942 H 0.63843 0.51619 0.27021 0.0
H1943 H 0.78261 0.51832 0.2448 0.0
H1944 H 0.89984 0.47487 0.23624 0.0
H1945 H 0.86794 0.4905 0.24443 0.0
H1946 H 0.72974 0.48981 0.28205 0.0
C1947 C 0.66055 0.52249 0.27239 0.0
C1948 C 0.77151 0.51214 0.25319 0.0
C1949 C 0.63672 0.53118 0.27316 0.0
C1950 C 0.86112 0.47563 0.24037 0.0
C1951 C 0.84274 0.48456 0.24501 0.0
C1952 C 0.74134 0.49595 0.27364 0.0
C1953 C 0.71255 0.52199 0.27296 0.0
C1954 C 0.73715 0.51289 0.26887 0.0
C1955 C 0.79322 0.4857 0.25126 0.0
C1956 C 0.77453 0.49511 0.25749 0.0
H1957 H 0.73812 0.54541 0.27805 0.0
H1958 H 0.78045 0.53005 0.27611 0.0
H1959 H 0.69613 0.50516 0.29134 0.0
H1960 H 0.75707 0.4627 0.24967 0.0
H1961 H 0.72371 0.47834 0.25669 0.0
C1962 C 0.86012 0.28436 0.52366 0.0
C1963 C 0.82949 0.2923 0.52188 0.0
C1964 C 0.84145 0.27538 0.5197 0.0
C1965 C 0.74066 0.2638 0.49135 0.0
H1966 H 0.78203 0.2416 0.52076 0.0
C1967 C 0.63857 0.22833 0.49035 0.0
C1968 C 0.66688 0.22005 0.4889 0.0
C1969 C 0.66173 0.23707 0.4917 0.0
C1970 C 0.77088 0.24773 0.51224 0.0
H1971 H 0.75621 0.29725 0.51386 0.0
H1972 H 0.72236 0.28152 0.50797 0.0
H1973 H 0.81307 0.25707 0.5307 0.0
H1974 H 0.7413 0.21435 0.48705 0.0
H1975 H 0.78239 0.22979 0.48997 0.0
H1976 H 0.69682 0.25445 0.47346 0.0
C1977 C 0.76094 0.28218 0.51232 0.0
C1978 C 0.78847 0.2566 0.51794 0.0
C1979 C 0.77986 0.29117 0.5161 0.0
C1980 C 0.71883 0.22066 0.488 0.0
C1981 C 0.74219 0.22945 0.48981 0.0
C1982 C 0.72261 0.25496 0.48584 0.0
C1983 C 0.79183 0.2742 0.51363 0.0
C1984 C 0.77323 0.26475 0.50766 0.0
C1985 C 0.7137 0.23769 0.49202 0.0
C1986 C 0.73727 0.24687 0.49632 0.0
H1987 H 0.899 0.28514 0.52752 0.0
H1988 H 0.86655 0.26943 0.52054 0.0
H1989 H 0.72913 0.26989 0.48276 0.0
H1990 H 0.59838 0.22801 0.49105 0.0
H1991 H 0.63896 0.24331 0.49353 0.0
C1992 C 0.38566 0.2851 0.73971 0.0
C1993 C 0.41633 0.29305 0.74097 0.0
C1994 C 0.40392 0.27621 0.74484 0.0
C1995 C 0.50379 0.26518 0.77491 0.0
H1996 H 0.46463 0.24248 0.74675 0.0
C1997 C 0.60906 0.23003 0.77708 0.0
C1998 C 0.58147 0.22169 0.77887 0.0
C1999 C 0.58512 0.2387 0.77575 0.0
C2000 C 0.47512 0.24876 0.75495 0.0
H2001 H 0.48906 0.29816 0.74938 0.0
H2002 H 0.52226 0.28259 0.75723 0.0
H2003 H 0.43276 0.25772 0.73574 0.0
H2004 H 0.50763 0.21578 0.78139 0.0
H2005 H 0.46516 0.23108 0.77847 0.0
H2006 H 0.5481 0.25619 0.79346 0.0
C2007 C 0.48397 0.28315 0.75243 0.0
C2008 C 0.45702 0.25749 0.74863 0.0
C2009 C 0.46544 0.29204 0.74751 0.0
C2010 C 0.52954 0.22216 0.78023 0.0
C2011 C 0.50539 0.23086 0.77841 0.0
C2012 C 0.5224 0.25647 0.78102 0.0
C2013 C 0.45313 0.27515 0.75155 0.0
C2014 C 0.47157 0.26582 0.75841 0.0
C2015 C 0.53309 0.23917 0.77574 0.0
C2016 C 0.50857 0.2482 0.77098 0.0
H2017 H 0.34714 0.2858 0.73526 0.0
H2018 H 0.37884 0.27026 0.74429 0.0
H2019 H 0.51479 0.27141 0.78313 0.0
H2020 H 0.6492 0.22981 0.77596 0.0
H2021 H 0.60726 0.245 0.77356 0.0
C2022 C 0.60947 0.03066 0.48714 0.0
C2023 C 0.58147 0.03899 0.48655 0.0
C2024 C 0.5861 0.02197 0.48919 0.0
C2025 C 0.48043 0.01164 0.51322 0.0
H2026 H 0.5164 0.98922 0.48343 0.0
C2027 C 0.39214 0.97514 0.52776 0.0
C2028 C 0.42208 0.96716 0.52517 0.0
C2029 C 0.41059 0.9841 0.52341 0.0
C2030 C 0.50655 0.99538 0.49211 0.0
H2031 H 0.50731 0.04487 0.48693 0.0
H2032 H 0.4659 0.02952 0.49107 0.0
H2033 H 0.54722 0.00455 0.47265 0.0
H2034 H 0.49399 0.96212 0.51553 0.0
H2035 H 0.52757 0.9778 0.50894 0.0
H2036 H 0.44138 0.00248 0.53317 0.0
C2037 C 0.50597 0.02977 0.48968 0.0
C2038 C 0.5237 0.00416 0.48575 0.0
C2039 C 0.52947 0.0385 0.48716 0.0
C2040 C 0.47096 0.96823 0.51838 0.0
C2041 C 0.48967 0.97719 0.5142 0.0
C2042 C 0.46371 0.00284 0.51974 0.0
C2043 C 0.5343 0.02146 0.49111 0.0
C2044 C 0.51114 0.01235 0.49635 0.0
C2045 C 0.45923 0.98521 0.51613 0.0
C2046 C 0.47698 0.99459 0.50936 0.0
H2047 H 0.6497 0.0309 0.48673 0.0
H2048 H 0.60879 0.01568 0.4904 0.0
H2049 H 0.47096 0.01785 0.52184 0.0
H2050 H 0.3538 0.97441 0.53245 0.0
H2051 H 0.38586 0.99008 0.5248 0.0
C2052 C 0.51939 0.72138 0.27846 0.0
C2053 C 0.57139 0.72096 0.27747 0.0
C2054 C 0.49514 0.73009 0.27692 0.0
C2055 C 0.51269 0.75568 0.28103 0.0
H2056 H 0.42319 0.75758 0.2358 0.0
C2057 C 0.46219 0.79156 0.24752 0.0
C2058 C 0.41316 0.79294 0.24119 0.0
C2059 C 0.47879 0.78255 0.25256 0.0
C2060 C 0.44743 0.75716 0.24868 0.0
H2061 H 0.63907 0.72916 0.27547 0.0
H2062 H 0.59698 0.74433 0.27346 0.0
H2063 H 0.45389 0.74214 0.24623 0.0
H2064 H 0.34217 0.78625 0.23599 0.0
H2065 H 0.37072 0.77047 0.2451 0.0
H2066 H 0.50653 0.77064 0.28358 0.0
C2067 C 0.57483 0.738 0.27517 0.0
C2068 C 0.46483 0.74832 0.25467 0.0
C2069 C 0.59887 0.72934 0.27625 0.0
C2070 C 0.38061 0.78524 0.24029 0.0
C2071 C 0.39703 0.77624 0.24546 0.0
C2072 C 0.4949 0.7645 0.2752 0.0
C2073 C 0.52279 0.73844 0.27489 0.0
C2074 C 0.49837 0.74754 0.27064 0.0
C2075 C 0.44616 0.77481 0.25193 0.0
C2076 C 0.4629 0.76536 0.25869 0.0
H2077 H 0.49755 0.71498 0.27923 0.0
H2078 H 0.45492 0.73028 0.27678 0.0
H2079 H 0.53835 0.75524 0.29346 0.0
H2080 H 0.48727 0.79748 0.24909 0.0
H2081 H 0.51706 0.78169 0.2572 0.0
C2082 C 0.39512 0.4756 0.02689 0.0
C2083 C 0.42435 0.46749 0.02472 0.0
C2084 C 0.41571 0.4845 0.02374 0.0
C2085 C 0.53182 0.49759 0.02186 0.0
H2086 H 0.46443 0.5137 0.9836 0.0
C2087 C 0.62673 0.53071 0.99257 0.0
C2088 C 0.59801 0.5389 0.99047 0.0
C2089 C 0.6041 0.52201 0.99558 0.0
C2090 C 0.48336 0.50936 0.99452 0.0
H2091 H 0.4968 0.46215 0.01651 0.0
H2092 H 0.53371 0.47778 0.01176 0.0
H2093 H 0.42762 0.4986 0.99301 0.0
H2094 H 0.52327 0.54445 0.989 0.0
H2095 H 0.48314 0.52921 0.99494 0.0
H2096 H 0.58694 0.50834 0.02386 0.0
C2097 C 0.49518 0.47726 0.01629 0.0
C2098 C 0.46232 0.50072 -0.00014 0.0
C2099 C 0.47435 0.46836 0.0192 0.0
C2100 C 0.54607 0.5382 0.99044 0.0
C2101 C 0.52324 0.52947 0.99386 0.0
C2102 C 0.55251 0.50627 0.01674 0.0
C2103 C 0.46577 0.48539 0.01822 0.0
C2104 C 0.48667 0.49473 0.01341 0.0
C2105 C 0.55216 0.52132 0.99704 0.0
C2106 C 0.52893 0.51221 0.00279 0.0
H2107 H 0.35606 0.47503 0.0306 0.0
H2108 H 0.39238 0.49068 0.0253 0.0
H2109 H 0.55093 0.49313 0.03251 0.0
H2110 H 0.66694 0.53108 0.99242 0.0
H2111 H 0.62751 0.51586 0.99725 0.0
C2112 C 0.19782 0.16043 0.29001 0.0
C2113 C 0.16228 0.16768 0.28883 0.0
C2114 C 0.18452 0.15147 0.29661 0.0
C2115 C 0.07613 0.13622 0.29667 0.0
H2116 H 0.16601 0.11875 0.32279 0.0
C2117 C 0.0336 0.09696 0.29578 0.0
C2118 C 0.07316 0.09131 0.28913 0.0
C2119 C 0.04218 0.1061 0.30253 0.0
C2120 C 0.14047 0.12355 0.31552 0.0
H2121 H 0.08555 0.17133 0.29504 0.0
H2122 H 0.06233 0.15562 0.30668 0.0
H2123 H 0.18471 0.13562 0.32285 0.0
H2124 H 0.15308 0.09055 0.28566 0.0
H2125 H 0.1681 0.10665 0.29697 0.0
H2126 H 0.03308 0.12422 0.2885 0.0
C2127 C 0.1004 0.15689 0.30221 0.0
C2128 C 0.15111 0.1332 0.31558 0.0
C2129 C 0.11376 0.1659 0.2956 0.0
C2130 C 0.12189 0.09475 0.29071 0.0
C2131 C 0.13046 0.10397 0.29727 0.0
C2132 C 0.06552 0.1266 0.29661 0.0
C2133 C 0.13535 0.14951 0.30223 0.0
C2134 C 0.11979 0.1396 0.30562 0.0
C2135 C 0.09046 0.10986 0.30254 0.0
C2136 C 0.09825 0.12012 0.30554 0.0
H2137 H 0.2357 0.16156 0.28511 0.0
H2138 H 0.21227 0.14595 0.29621 0.0
H2139 H 0.05161 0.14091 0.28858 0.0
H2140 H 0.99567 0.09443 0.29506 0.0
H2141 H 0.0107 0.11038 0.30694 0.0
C2142 C 0.05243 0.16025 0.97265 0.0
C2143 C 0.0881 0.16748 0.97366 0.0
C2144 C 0.06559 0.15123 0.96631 0.0
C2145 C 0.17384 0.13588 0.96615 0.0
H2146 H 0.08378 0.11851 0.93985 0.0
C2147 C 0.21791 0.09667 0.96503 0.0
C2148 C 0.17892 0.09088 0.97169 0.0
C2149 C 0.20863 0.10588 0.95884 0.0
C2150 C 0.10935 0.12328 0.94718 0.0
H2151 H 0.165 0.17102 0.96748 0.0
H2152 H 0.18794 0.15524 0.95626 0.0
H2153 H 0.06486 0.13536 0.94023 0.0
H2154 H 0.09922 0.08997 0.97578 0.0
H2155 H 0.08299 0.10618 0.96541 0.0
H2156 H 0.21726 0.12385 0.97387 0.0
C2157 C 0.14987 0.15655 0.9607 0.0
C2158 C 0.09857 0.13292 0.94738 0.0
C2159 C 0.13668 0.1656 0.96707 0.0
C2160 C 0.12998 0.09427 0.97071 0.0
C2161 C 0.12071 0.10355 0.96469 0.0
C2162 C 0.18461 0.12627 0.96593 0.0
C2163 C 0.11475 0.14921 0.96077 0.0
C2164 C 0.13003 0.13929 0.95737 0.0
C2165 C 0.16022 0.10955 0.9594 0.0
C2166 C 0.15187 0.11983 0.9569 0.0
H2167 H 0.01452 0.16143 0.97747 0.0
H2168 H 0.03772 0.14573 0.9668 0.0
H2169 H 0.19846 0.14054 0.97427 0.0
H2170 H 0.25597 0.09419 0.96528 0.0
H2171 H 0.23971 0.11025 0.9544 0.0
C2172 C 0.83875 0.91226 0.72943 0.0
C2173 C 0.83261 0.91887 0.714 0.0
C2174 C 0.8504 0.90294 0.72507 0.0
C2175 C 0.85223 0.88397 0.68931 0.0
H2176 H 0.97066 0.8767 0.71861 0.0
C2177 C 0.9253 0.84551 0.69075 0.0
C2178 C 0.92903 0.84222 0.7105 0.0
C2179 C 0.92112 0.85519 0.68695 0.0
C2180 C 0.93784 0.87864 0.71019 0.0
H2181 H 0.82937 0.92071 0.68187 0.0
H2182 H 0.84923 0.90418 0.67422 0.0
H2183 H 0.94161 0.89295 0.71999 0.0
H2184 H 0.93461 0.84637 0.74155 0.0
H2185 H 0.92857 0.86317 0.73497 0.0
H2186 H 0.84709 0.86948 0.68041 0.0
C2187 C 0.84539 0.90634 0.68966 0.0
C2188 C 0.92117 0.88791 0.71101 0.0
C2189 C 0.83374 0.91575 0.69404 0.0
C2190 C 0.93187 0.84874 0.7262 0.0
C2191 C 0.92858 0.85836 0.7224 0.0
C2192 C 0.86885 0.87462 0.68856 0.0
C2193 C 0.85605 0.9 0.7052 0.0
C2194 C 0.87721 0.89058 0.70124 0.0
C2195 C 0.92172 0.86168 0.70282 0.0
C2196 C 0.91073 0.8718 0.69966 0.0
H2197 H 0.83748 0.91443 0.74495 0.0
H2198 H 0.85734 0.89811 0.7373 0.0
H2199 H 0.81834 0.8859 0.6816 0.0
H2200 H 0.9225 0.84059 0.67843 0.0
H2201 H 0.91601 0.85759 0.67172 0.0
C2202 C 0.91855 0.91378 0.06837 0.0
C2203 C 0.91789 0.91733 0.04875 0.0
C2204 C 0.90596 0.90433 0.07202 0.0
C2205 C 0.82717 0.88638 0.04982 0.0
H2206 H 0.90242 0.86753 0.07878 0.0
C2207 C 0.81699 0.84738 0.03227 0.0
C2208 C 0.82113 0.84067 0.04755 0.0
C2209 C 0.81957 0.85696 0.03664 0.0
C2210 C 0.88034 0.87278 0.07109 0.0
H2211 H 0.90858 0.91364 0.01753 0.0
H2212 H 0.88722 0.89728 0.02389 0.0
H2213 H 0.93107 0.88395 0.07848 0.0
H2214 H 0.82901 0.83863 0.07947 0.0
H2215 H 0.83422 0.85554 0.08716 0.0
H2216 H 0.7775 0.87526 0.04177 0.0
C2217 C 0.89614 0.90179 0.03646 0.0
C2218 C 0.8969 0.88214 0.07085 0.0
C2219 C 0.9087 0.91113 0.03282 0.0
C2220 C 0.82517 0.8437 0.06746 0.0
C2221 C 0.82864 0.85334 0.07183 0.0
C2222 C 0.8106 0.87709 0.05012 0.0
C2223 C 0.89254 0.89841 0.05609 0.0
C2224 C 0.87149 0.88892 0.0595 0.0
C2225 C 0.82705 0.86003 0.05636 0.0
C2226 C 0.83809 0.87012 0.06005 0.0
H2227 H 0.9253 0.91842 0.08092 0.0
H2228 H 0.90381 0.90183 0.08728 0.0
H2229 H 0.80633 0.89154 0.04133 0.0
H2230 H 0.81402 0.8452 0.0168 0.0
H2231 H 0.81877 0.86193 0.02436 0.0
C2232 C 0.04542 0.59959 0.7848 0.0
C2233 C 0.08163 0.59244 0.78457 0.0
C2234 C 0.0568 0.60856 0.79193 0.0
C2235 C 0.16352 0.62413 0.79574 0.0
H2236 H 0.06828 0.64103 0.82041 0.0
C2237 C 0.20388 0.66342 0.7984 0.0
C2238 C 0.16516 0.66911 0.79114 0.0
C2239 C 0.19468 0.65418 0.80438 0.0
C2240 C 0.0953 0.63639 0.81355 0.0
H2241 H 0.15739 0.58898 0.7929 0.0
H2242 H 0.1772 0.6047 0.80543 0.0
H2243 H 0.05069 0.62414 0.81887 0.0
H2244 H 0.08591 0.66983 0.78577 0.0
H2245 H 0.06987 0.65355 0.79568 0.0
H2246 H 0.20707 0.63632 0.78952 0.0
C2247 C 0.14014 0.60335 0.79982 0.0
C2248 C 0.08528 0.62673 0.8127 0.0
C2249 C 0.12873 0.59434 0.79269 0.0
C2250 C 0.11642 0.6656 0.79134 0.0
C2251 C 0.10727 0.65628 0.79709 0.0
C2252 C 0.17349 0.63376 0.79657 0.0
C2253 C 0.10466 0.61062 0.79902 0.0
C2254 C 0.11869 0.62053 0.80326 0.0
C2255 C 0.14667 0.65036 0.80295 0.0
C2256 C 0.13893 0.64004 0.80501 0.0
H2257 H 0.00859 0.59838 0.77882 0.0
H2258 H 0.02876 0.61401 0.79087 0.0
H2259 H 0.18968 0.6196 0.78808 0.0
H2260 H 0.24175 0.66601 0.79873 0.0
H2261 H 0.22562 0.64989 0.80929 0.0
C2262 C 0.04277 0.66055 0.47549 0.0
C2263 C 0.07844 0.6678 0.47548 0.0
C2264 C 0.05489 0.65155 0.46876 0.0
C2265 C 0.16275 0.63619 0.46544 0.0
H2266 H 0.06896 0.61897 0.44089 0.0
C2267 C 0.20667 0.59698 0.46208 0.0
C2268 C 0.16861 0.59112 0.46929 0.0
C2269 C 0.19658 0.60625 0.4565 0.0
C2270 C 0.09556 0.6237 0.44773 0.0
H2271 H 0.15407 0.67137 0.46717 0.0
H2272 H 0.17516 0.65559 0.45532 0.0
H2273 H 0.04998 0.63581 0.44227 0.0
H2274 H 0.08955 0.59016 0.47503 0.0
H2275 H 0.07198 0.60645 0.46576 0.0
H2276 H 0.20734 0.62414 0.47173 0.0
C2277 C 0.13795 0.6569 0.46082 0.0
C2278 C 0.08475 0.63333 0.4485 0.0
C2279 C 0.1258 0.66594 0.46755 0.0
C2280 C 0.11962 0.59451 0.46952 0.0
C2281 C 0.10956 0.60384 0.46412 0.0
C2282 C 0.17352 0.62659 0.46468 0.0
C2283 C 0.10297 0.64955 0.46183 0.0
C2284 C 0.11766 0.63965 0.45785 0.0
C2285 C 0.14829 0.60991 0.45824 0.0
C2286 C 0.13952 0.6202 0.45627 0.0
H2287 H 0.00578 0.66172 0.48135 0.0
H2288 H 0.02722 0.64604 0.46998 0.0
H2289 H 0.18855 0.64082 0.47305 0.0
H2290 H 0.24472 0.59451 0.46141 0.0
H2291 H 0.22701 0.61067 0.45158 0.0
C2292 C 0.9187 0.34532 0.19338 0.0
C2293 C 0.91903 0.34189 0.2131 0.0
C2294 C 0.90694 0.35479 0.18959 0.0
C2295 C 0.83058 0.37295 0.21204 0.0
H2296 H 0.90416 0.39161 0.18185 0.0
C2297 C 0.8196 0.41206 0.22832 0.0
C2298 C 0.82199 0.41866 0.21276 0.0
C2299 C 0.8231 0.40246 0.2243 0.0
C2300 C 0.88256 0.38641 0.18991 0.0
H2301 H 0.91258 0.34581 0.2443 0.0
H2302 H 0.8927 0.36223 0.23771 0.0
H2303 H 0.93291 0.37519 0.18241 0.0
H2304 H 0.82796 0.42045 0.18072 0.0
H2305 H 0.8348 0.4035 0.17361 0.0
H2306 H 0.78125 0.38411 0.22016 0.0
C2307 C 0.90024 0.35761 0.22518 0.0
C2308 C 0.89918 0.37705 0.19029 0.0
C2309 C 0.91194 0.34823 0.22895 0.0
C2310 C 0.82549 0.41547 0.19294 0.0
C2311 C 0.82988 0.40581 0.1889 0.0
C2312 C 0.81394 0.38224 0.21159 0.0
C2313 C 0.89539 0.36087 0.2055 0.0
C2314 C 0.87437 0.37035 0.20205 0.0
C2315 C 0.82972 0.39924 0.20463 0.0
C2316 C 0.84085 0.38914 0.2012 0.0
H2317 H 0.92378 0.34056 0.18089 0.0
H2318 H 0.90375 0.35719 0.17429 0.0
H2319 H 0.8102 0.36784 0.22086 0.0
H2320 H 0.81705 0.41435 0.24373 0.0
H2321 H 0.82343 0.39759 0.23676 0.0
C2322 C 0.84283 0.34845 0.53235 0.0
C2323 C 0.83548 0.34192 0.54784 0.0
C2324 C 0.85492 0.35776 0.53664 0.0
C2325 C 0.85531 0.37686 0.57203 0.0
H2326 H 0.97478 0.38402 0.54328 0.0
C2327 C 0.92686 0.41538 0.56976 0.0
C2328 C 0.93095 0.41852 0.54993 0.0
C2329 C 0.92324 0.40572 0.57388 0.0
C2330 C 0.94167 0.38212 0.55156 0.0
H2331 H 0.83068 0.3402 0.57997 0.0
H2332 H 0.85127 0.35672 0.5875 0.0
H2333 H 0.94608 0.36774 0.54221 0.0
H2334 H 0.93786 0.41416 0.51905 0.0
H2335 H 0.93283 0.3974 0.52619 0.0
H2336 H 0.84953 0.39141 0.58045 0.0
C2337 C 0.84807 0.35451 0.57206 0.0
C2338 C 0.92522 0.37282 0.55091 0.0
C2339 C 0.836 0.3451 0.56775 0.0
C2340 C 0.93483 0.4119 0.53447 0.0
C2341 C 0.93212 0.4023 0.53859 0.0
C2342 C 0.87173 0.38623 0.57261 0.0
C2343 C 0.85979 0.36077 0.5565 0.0
C2344 C 0.88087 0.3702 0.56045 0.0
C2345 C 0.92477 0.39911 0.55824 0.0
C2346 C 0.91399 0.389 0.56169 0.0
H2347 H 0.84203 0.34624 0.51686 0.0
H2348 H 0.86264 0.36253 0.52439 0.0
H2349 H 0.8211 0.37497 0.57955 0.0
H2350 H 0.92325 0.42038 0.5819 0.0
H2351 H 0.91773 0.40343 0.58916 0.0
C2352 C 0.63254 0.09477 0.79309 0.0
C2353 C 0.58411 0.0929 0.78631 0.0
C2354 C 0.64524 0.10376 0.79997 0.0
C2355 C 0.59299 0.12715 0.81445 0.0
H2356 H 0.71032 0.13672 0.78776 0.0
C2357 C 0.62024 0.16601 0.79218 0.0
C2358 C 0.6688 0.16954 0.79069 0.0
C2359 C 0.61215 0.15668 0.79812 0.0
C2360 C 0.67808 0.13416 0.79578 0.0
H2361 H 0.51026 0.09886 0.78276 0.0
H2362 H 0.5326 0.11446 0.79436 0.0
H2363 H 0.69268 0.11999 0.78687 0.0
H2364 H 0.74652 0.16645 0.79615 0.0
H2365 H 0.73234 0.1503 0.80698 0.0
H2366 H 0.57744 0.14146 0.82258 0.0
C2367 C 0.56073 0.109 0.79456 0.0
C2368 C 0.66798 0.12454 0.79527 0.0
C2369 C 0.54806 0.10005 0.78769 0.0
C2370 C 0.70871 0.16385 0.79681 0.0
C2371 C 0.70061 0.15459 0.80296 0.0
C2372 C 0.60315 0.13681 0.81497 0.0
C2373 C 0.60975 0.11104 0.80025 0.0
C2374 C 0.62459 0.12095 0.80408 0.0
C2375 C 0.65248 0.15077 0.80285 0.0
C2376 C 0.64513 0.14046 0.80517 0.0
H2377 H 0.66114 0.08941 0.7924 0.0
H2378 H 0.68321 0.1051 0.8045 0.0
H2379 H 0.55959 0.12457 0.82162 0.0
H2380 H 0.58879 0.17024 0.78753 0.0
H2381 H 0.5746 0.15395 0.79774 0.0
C2382 C 0.63486 0.16561 0.46878 0.0
C2383 C 0.58604 0.16751 0.47506 0.0
C2384 C 0.648 0.15659 0.46217 0.0
C2385 C 0.59594 0.13321 0.44737 0.0
H2386 H 0.71337 0.12358 0.47389 0.0
C2387 C 0.62438 0.09426 0.4691 0.0
C2388 C 0.67306 0.09073 0.46994 0.0
C2389 C 0.61582 0.10363 0.4635 0.0
C2390 C 0.68106 0.12616 0.46595 0.0
H2391 H 0.51208 0.16152 0.47811 0.0
H2392 H 0.53515 0.14589 0.46703 0.0
H2393 H 0.69551 0.14031 0.47507 0.0
H2394 H 0.75038 0.09391 0.46368 0.0
H2395 H 0.73531 0.11013 0.4536 0.0
H2396 H 0.58047 0.11891 0.43909 0.0
C2397 C 0.56327 0.15135 0.46697 0.0
C2398 C 0.67085 0.13579 0.46662 0.0
C2399 C 0.55017 0.16033 0.47355 0.0
C2400 C 0.71249 0.09648 0.46353 0.0
C2401 C 0.70391 0.10579 0.4578 0.0
C2402 C 0.60612 0.12355 0.44675 0.0
C2403 C 0.61256 0.1493 0.46167 0.0
C2404 C 0.62746 0.13939 0.45783 0.0
C2405 C 0.65578 0.10958 0.45851 0.0
C2406 C 0.64817 0.11989 0.45647 0.0
H2407 H 0.66334 0.17099 0.4696 0.0
H2408 H 0.68619 0.15526 0.45795 0.0
H2409 H 0.56258 0.13579 0.44019 0.0
H2410 H 0.59328 0.09 0.47397 0.0
H2411 H 0.5783 0.10635 0.46431 0.0
C2412 C 0.35142 0.91128 0.22785 0.0
C2413 C 0.34052 0.91776 0.2126 0.0
C2414 C 0.36457 0.90206 0.22325 0.0
C2415 C 0.36098 0.88298 0.18783 0.0
H2416 H 0.4836 0.87585 0.21435 0.0
C2417 C 0.43021 0.8444 0.18966 0.0
C2418 C 0.43577 0.84137 0.20951 0.0
C2419 C 0.42749 0.85404 0.18529 0.0
C2420 C 0.44963 0.87775 0.20667 0.0
H2421 H 0.33081 0.91943 0.18063 0.0
H2422 H 0.35316 0.90305 0.17259 0.0
H2423 H 0.45516 0.89215 0.21582 0.0
H2424 H 0.44636 0.84588 0.2401 0.0
H2425 H 0.443 0.86262 0.23253 0.0
H2426 H 0.35408 0.86842 0.17969 0.0
C2427 C 0.35201 0.90526 0.18807 0.0
C2428 C 0.43332 0.88706 0.20755 0.0
C2429 C 0.33894 0.91458 0.19269 0.0
C2430 C 0.44225 0.84807 0.22467 0.0
C2431 C 0.44046 0.85765 0.2203 0.0
C2432 C 0.37727 0.87361 0.18702 0.0
C2433 C 0.36693 0.89906 0.20331 0.0
C2434 C 0.38786 0.88967 0.19887 0.0
C2435 C 0.43137 0.86074 0.20069 0.0
C2436 C 0.4207 0.87085 0.19718 0.0
H2437 H 0.35226 0.91346 0.24336 0.0
H2438 H 0.37471 0.89733 0.2353 0.0
H2439 H 0.32588 0.88486 0.18099 0.0
H2440 H 0.42455 0.83933 0.17776 0.0
H2441 H 0.42059 0.85626 0.17006 0.0
C2442 C 0.41017 0.91091 0.53155 0.0
C2443 C 0.41824 0.91716 0.5475 0.0
C2444 C 0.39867 0.90151 0.53515 0.0
C2445 C 0.40017 0.88189 0.56969 0.0
H2446 H 0.28187 0.87468 0.54026 0.0
C2447 C 0.32918 0.84332 0.56676 0.0
C2448 C 0.32556 0.8402 0.5469 0.0
C2449 C 0.33281 0.85298 0.57093 0.0
C2450 C 0.31468 0.8766 0.54871 0.0
H2451 H 0.42484 0.91828 0.57969 0.0
H2452 H 0.40518 0.90162 0.58601 0.0
H2453 H 0.30974 0.89101 0.5397 0.0
H2454 H 0.31958 0.84459 0.51601 0.0
H2455 H 0.32461 0.86135 0.52323 0.0
H2456 H 0.40631 0.86732 0.57787 0.0
C2457 C 0.40742 0.90411 0.57075 0.0
C2458 C 0.33071 0.88592 0.54834 0.0
C2459 C 0.41896 0.91361 0.56712 0.0
C2460 C 0.32223 0.84684 0.53145 0.0
C2461 C 0.32496 0.85644 0.53562 0.0
C2462 C 0.38415 0.8725 0.57001 0.0
C2463 C 0.395 0.89813 0.55479 0.0
C2464 C 0.37462 0.88858 0.55816 0.0
C2465 C 0.33177 0.85961 0.55531 0.0
C2466 C 0.3423 0.86972 0.55886 0.0
H2467 H 0.41001 0.91342 0.51625 0.0
H2468 H 0.3905 0.89697 0.52257 0.0
H2469 H 0.43402 0.8838 0.57745 0.0
H2470 H 0.33238 0.83831 0.57889 0.0
H2471 H 0.3379 0.85525 0.58624 0.0
C2472 C 0.69064 0.66134 0.28982 0.0
C2473 C 0.65439 0.66845 0.28828 0.0
C2474 C 0.67762 0.65224 0.29564 0.0
C2475 C 0.57146 0.63649 0.29277 0.0
H2476 H 0.65893 0.61929 0.32093 0.0
C2477 C 0.53189 0.59708 0.29152 0.0
C2478 C 0.57269 0.59146 0.28612 0.0
C2479 C 0.53893 0.60631 0.29807 0.0
C2480 C 0.63411 0.62401 0.31305 0.0
H2481 H 0.57646 0.67168 0.29296 0.0
H2482 H 0.55375 0.65573 0.30322 0.0
H2483 H 0.67606 0.63622 0.32148 0.0
H2484 H 0.65302 0.59086 0.2846 0.0
H2485 H 0.66542 0.6071 0.29555 0.0
H2486 H 0.53079 0.62436 0.28354 0.0
C2487 C 0.5922 0.65722 0.29964 0.0
C2488 C 0.64384 0.6337 0.3134 0.0
C2489 C 0.60525 0.66636 0.29383 0.0
C2490 C 0.6209 0.59503 0.28868 0.0
C2491 C 0.62795 0.60433 0.29504 0.0
C2492 C 0.56179 0.62684 0.29241 0.0
C2493 C 0.62804 0.65001 0.30008 0.0
C2494 C 0.61335 0.64001 0.3028 0.0
C2495 C 0.5869 0.61017 0.29913 0.0
C2496 C 0.59367 0.62046 0.30212 0.0
H2497 H 0.72897 0.66269 0.28583 0.0
H2498 H 0.70607 0.64684 0.2956 0.0
H2499 H 0.5477 0.64113 0.28417 0.0
H2500 H 0.49428 0.59446 0.29003 0.0
H2501 H 0.5066 0.61055 0.30157 0.0
C2502 C 0.63418 0.666 0.96668 0.0
C2503 C 0.58727 0.66804 0.97485 0.0
C2504 C 0.64555 0.65687 0.96026 0.0
C2505 C 0.59027 0.63328 0.94945 0.0
H2506 H 0.71463 0.62412 0.97115 0.0
C2507 C 0.62695 0.59457 0.97131 0.0
C2508 C 0.67591 0.59119 0.97034 0.0
C2509 C 0.61621 0.60385 0.9657 0.0
C2510 C 0.68024 0.62656 0.96455 0.0
H2511 H 0.51461 0.66214 0.98155 0.0
H2512 H 0.53475 0.64631 0.97078 0.0
H2513 H 0.69641 0.64083 0.97225 0.0
H2514 H 0.75097 0.5945 0.96087 0.0
H2515 H 0.73204 0.61056 0.95069 0.0
H2516 H 0.57339 0.61888 0.94256 0.0
C2517 C 0.56264 0.65176 0.96908 0.0
C2518 C 0.6698 0.63618 0.96517 0.0
C2519 C 0.55127 0.66085 0.97547 0.0
C2520 C 0.71301 0.59698 0.96211 0.0
C2521 C 0.70223 0.60619 0.95634 0.0
C2522 C 0.60071 0.62363 0.94885 0.0
C2523 C 0.61025 0.6496 0.96186 0.0
C2524 C 0.62419 0.63963 0.9581 0.0
C2525 C 0.65421 0.60986 0.95888 0.0
C2526 C 0.64536 0.62014 0.95682 0.0
H2527 H 0.66267 0.67138 0.96582 0.0
H2528 H 0.6824 0.65545 0.95451 0.0
H2529 H 0.55507 0.63575 0.94362 0.0
H2530 H 0.59764 0.59027 0.97762 0.0
H2531 H 0.57887 0.60648 0.96795 0.0
C2532 C 0.33524 0.41215 0.72915 0.0
C2533 C 0.32951 0.41864 0.71347 0.0
C2534 C 0.34693 0.4028 0.72514 0.0
C2535 C 0.35023 0.38359 0.6899 0.0
H2536 H 0.46807 0.37662 0.71991 0.0
C2537 C 0.42454 0.34525 0.69235 0.0
C2538 C 0.42786 0.34204 0.71216 0.0
C2539 C 0.42026 0.35491 0.68837 0.0
C2540 C 0.43541 0.37847 0.7113 0.0
H2541 H 0.32697 0.42025 0.68128 0.0
H2542 H 0.34693 0.40366 0.67425 0.0
H2543 H 0.43832 0.39284 0.72082 0.0
H2544 H 0.43269 0.3463 0.74316 0.0
H2545 H 0.42648 0.36307 0.73628 0.0
H2546 H 0.34597 0.36905 0.68125 0.0
C2547 C 0.34271 0.40593 0.68961 0.0
C2548 C 0.41833 0.38773 0.71186 0.0
C2549 C 0.33099 0.41538 0.69363 0.0
C2550 C 0.4303 0.34862 0.72776 0.0
C2551 C 0.4269 0.35822 0.72378 0.0
C2552 C 0.36726 0.37426 0.68941 0.0
C2553 C 0.35306 0.39971 0.70539 0.0
C2554 C 0.37457 0.39028 0.70181 0.0
C2555 C 0.42032 0.36147 0.70413 0.0
C2556 C 0.40893 0.37156 0.70076 0.0
H2557 H 0.33373 0.41444 0.74458 0.0
H2558 H 0.35363 0.39806 0.73756 0.0
H2559 H 0.31652 0.38543 0.68197 0.0
H2560 H 0.42203 0.34028 0.6801 0.0
H2561 H 0.41539 0.35725 0.67308 0.0
C2562 C 0.41302 0.4143 0.06821 0.0
C2563 C 0.41087 0.4177 0.04848 0.0
C2564 C 0.40095 0.40488 0.07237 0.0
C2565 C 0.32166 0.38658 0.05179 0.0
H2566 H 0.40151 0.36807 0.07976 0.0
C2567 C 0.31628 0.34761 0.03406 0.0
C2568 C 0.32124 0.3409 0.0493 0.0
C2569 C 0.31807 0.35718 0.03847 0.0
C2570 C 0.37819 0.37322 0.07237 0.0
H2571 H 0.39929 0.41373 0.01752 0.0
H2572 H 0.37873 0.39742 0.02476 0.0
H2573 H 0.42825 0.38461 0.07898 0.0
H2574 H 0.33002 0.33885 0.08118 0.0
H2575 H 0.3341 0.35577 0.08893 0.0
H2576 H 0.27276 0.37523 0.0444 0.0
C2577 C 0.38844 0.40204 0.03704 0.0
C2578 C 0.39362 0.38265 0.07186 0.0
C2579 C 0.40052 0.41136 0.03291 0.0
C2580 C 0.3256 0.34392 0.06921 0.0
C2581 C 0.32835 0.35356 0.07361 0.0
C2582 C 0.30624 0.37722 0.05233 0.0
C2583 C 0.38653 0.39881 0.05683 0.0
C2584 C 0.36652 0.3893 0.06081 0.0
C2585 C 0.32562 0.36026 0.05819 0.0
C2586 C 0.33542 0.37038 0.06189 0.0
H2587 H 0.42074 0.41904 0.08051 0.0
H2588 H 0.40014 0.4025 0.08773 0.0
H2589 H 0.29958 0.39164 0.04352 0.0
H2590 H 0.31301 0.34543 0.0186 0.0
H2591 H 0.31643 0.36217 0.02624 0.0
C2592 C 0.91391 0.0551 0.30226 0.0
C2593 C 0.96566 0.05621 0.3034 0.0
C2594 C 0.88686 0.05231 0.31908 0.0
C2595 C 0.90116 0.04373 0.37184 0.0
H2596 H 0.78082 0.05824 0.3799 0.0
C2597 C 0.82114 0.05523 0.4482 0.0
C2598 C 0.76929 0.05488 0.45058 0.0
C2599 C 0.84284 0.05271 0.42999 0.0
C2600 C 0.81391 0.05401 0.37774 0.0
H2601 H 0.02985 0.05489 0.32286 0.0
H2602 H 0.9829 0.05047 0.35215 0.0
H2603 H 0.82206 0.05871 0.3477 0.0
H2604 H 0.69995 0.05097 0.43608 0.0
H2605 H 0.73795 0.04678 0.40436 0.0
H2606 H 0.89428 0.03961 0.40257 0.0
C2607 C 0.96297 0.05146 0.33826 0.0
C2608 C 0.8375 0.05423 0.35922 0.0
C2609 C 0.98999 0.05409 0.32143 0.0
C2610 C 0.73998 0.05143 0.43476 0.0
C2611 C 0.76161 0.04902 0.41656 0.0
C2612 C 0.87794 0.04365 0.39051 0.0
C2613 C 0.91095 0.05073 0.33746 0.0
C2614 C 0.88208 0.04927 0.35614 0.0
C2615 C 0.81301 0.04989 0.41385 0.0
C2616 C 0.83464 0.04894 0.39368 0.0
H2617 H 0.8942 0.05655 0.28849 0.0
H2618 H 0.84694 0.05162 0.31779 0.0
H2619 H 0.93482 0.03966 0.36989 0.0
H2620 H 0.84482 0.05777 0.46012 0.0
H2621 H 0.88262 0.05348 0.42819 0.0
C2622 C 0.25494 0.2037 0.3247 0.0
C2623 C 0.27847 0.20165 0.30648 0.0
C2624 C 0.2828 0.20592 0.34159 0.0
C2625 C 0.40819 0.20221 0.36202 0.0
H2626 H 0.35597 0.21726 0.40563 0.0
C2627 C 0.51049 0.20522 0.43669 0.0
C2628 C 0.48176 0.20219 0.45304 0.0
C2629 C 0.48805 0.20737 0.4185 0.0
C2630 C 0.371 0.21308 0.39351 0.0
H2631 H 0.34954 0.20093 0.29132 0.0
H2632 H 0.39834 0.20513 0.32071 0.0
H2633 H 0.31393 0.2174 0.37328 0.0
H2634 H 0.40659 0.19966 0.46345 0.0
H2635 H 0.36734 0.20351 0.43154 0.0
H2636 H 0.46516 0.1979 0.38231 0.0
C2637 C 0.35833 0.20471 0.32211 0.0
C2638 C 0.34692 0.21311 0.37502 0.0
C2639 C 0.33041 0.20234 0.30524 0.0
C2640 C 0.42979 0.20189 0.45111 0.0
C2641 C 0.40729 0.20416 0.43292 0.0
C2642 C 0.43264 0.20231 0.38037 0.0
C2643 C 0.33492 0.20629 0.34062 0.0
C2644 C 0.36443 0.20746 0.35922 0.0
C2645 C 0.43642 0.20666 0.41634 0.0
C2646 C 0.41359 0.20756 0.39639 0.0
H2647 H 0.21496 0.2032 0.32621 0.0
H2648 H 0.26338 0.20692 0.35559 0.0
H2649 H 0.42237 0.19764 0.3504 0.0
H2650 H 0.55061 0.20559 0.43763 0.0
H2651 H 0.51119 0.20935 0.40593 0.0
C2652 C 0.75324 0.20609 0.82534 0.0
C2653 C 0.77647 0.20436 0.8069 0.0
C2654 C 0.78137 0.20823 0.84221 0.0
C2655 C 0.9076 0.20447 0.86159 0.0
H2656 H 0.85577 0.21835 0.90697 0.0
C2657 C 0.01196 0.20585 0.93598 0.0
C2658 C 0.98377 0.20253 0.95224 0.0
C2659 C 0.98891 0.20834 0.91812 0.0
C2660 C 0.87069 0.21449 0.89435 0.0
H2661 H 0.84709 0.20425 0.79132 0.0
H2662 H 0.89624 0.20832 0.82069 0.0
H2663 H 0.81271 0.21914 0.87487 0.0
H2664 H 0.90893 0.19982 0.96285 0.0
H2665 H 0.86864 0.20424 0.93149 0.0
H2666 H 0.96536 0.1998 0.88113 0.0
C2667 C 0.85635 0.20769 0.82226 0.0
C2668 C 0.84605 0.21491 0.876 0.0
C2669 C 0.82821 0.2054 0.80541 0.0
C2670 C 0.93174 0.20226 0.95057 0.0
C2671 C 0.90863 0.20486 0.9327 0.0
C2672 C 0.93256 0.20418 0.87981 0.0
C2673 C 0.83339 0.20883 0.84101 0.0
C2674 C 0.86345 0.20968 0.85954 0.0
C2675 C 0.93719 0.20768 0.91618 0.0
C2676 C 0.91367 0.209 0.89646 0.0
H2677 H 0.71342 0.20533 0.82703 0.0
H2678 H 0.76231 0.20891 0.85638 0.0
H2679 H 0.9217 0.2002 0.84944 0.0
H2680 H 0.0521 0.20621 0.93674 0.0
H2681 H 0.01164 0.21057 0.90562 0.0
C2682 C 0.25849 0.0548 0.93563 0.0
C2683 C 0.28425 0.05617 0.95366 0.0
C2684 C 0.28412 0.05272 0.9181 0.0
C2685 C 0.40888 0.05581 0.89645 0.0
H2686 H 0.34907 0.0429 0.85137 0.0
C2687 C 0.50701 0.05373 0.82095 0.0
C2688 C 0.47938 0.05773 0.80523 0.0
C2689 C 0.48407 0.0513 0.83887 0.0
C2690 C 0.36616 0.04648 0.8639 0.0
H2691 H 0.35665 0.05573 0.96777 0.0
H2692 H 0.40143 0.05171 0.93726 0.0
H2693 H 0.30906 0.04217 0.88413 0.0
H2694 H 0.40525 0.06166 0.79557 0.0
H2695 H 0.36507 0.05732 0.82704 0.0
H2696 H 0.46596 0.06008 0.8762 0.0
C2697 C 0.36153 0.05259 0.93652 0.0
C2698 C 0.34327 0.04611 0.88263 0.0
C2699 C 0.33591 0.05485 0.95403 0.0
C2700 C 0.42767 0.05867 0.80742 0.0
C2701 C 0.40461 0.05614 0.82536 0.0
C2702 C 0.4321 0.05603 0.87786 0.0
C2703 C 0.33611 0.05181 0.9182 0.0
C2704 C 0.36372 0.05098 0.89903 0.0
C2705 C 0.43295 0.0527 0.8414 0.0
C2706 C 0.41043 0.05154 0.86135 0.0
H2707 H 0.21865 0.0558 0.93481 0.0
H2708 H 0.26321 0.05232 0.90431 0.0
H2709 H 0.42532 0.05981 0.90853 0.0
H2710 H 0.54684 0.05281 0.81979 0.0
H2711 H 0.50656 0.04858 0.85099 0.0
C2712 C 0.23928 0.94581 0.57048 0.0
C2713 C 0.2888 0.94577 0.5771 0.0
C2714 C 0.20017 0.946 0.58427 0.0
C2715 C 0.17258 0.95161 0.63737 0.0
H2716 H 0.05414 0.93677 0.62768 0.0
C2717 C 0.01684 0.94607 0.69644 0.0
C2718 C 0.9681 0.9472 0.68928 0.0
C2719 C 0.05701 0.94589 0.68313 0.0
C2720 C 0.08693 0.94099 0.63053 0.0
H2721 H 0.33587 0.94576 0.60351 0.0
H2722 H 0.26817 0.94588 0.62728 0.0
H2723 H 0.1215 0.93656 0.60334 0.0
H2724 H 0.92374 0.94916 0.66241 0.0
H2725 H 0.99332 0.94882 0.63952 0.0
H2726 H 0.13795 0.95595 0.6647 0.0
C2727 C 0.25933 0.946 0.6115 0.0
C2728 C 0.1254 0.94091 0.61654 0.0
C2729 C 0.29824 0.94587 0.59779 0.0
C2730 C 0.96062 0.94823 0.66857 0.0
C2731 C 0.0005 0.94798 0.65535 0.0
C2732 C 0.13422 0.95164 0.65143 0.0
C2733 C 0.20981 0.9461 0.60495 0.0
C2734 C 0.16863 0.94624 0.61975 0.0
C2735 C 0.04905 0.94675 0.66244 0.0
C2736 C 0.0909 0.94638 0.64808 0.0
H2737 H 0.23068 0.94578 0.55468 0.0
H2738 H 0.16241 0.94619 0.57872 0.0
H2739 H 0.20503 0.95592 0.64019 0.0
H2740 H 0.02396 0.94526 0.71227 0.0
H2741 H 0.09417 0.9449 0.68897 0.0
C2742 C 0.79641 0.81405 0.66436 0.0
C2743 C 0.78773 0.81425 0.68509 0.0
C2744 C 0.75703 0.81389 0.65088 0.0
C2745 C 0.62292 0.81894 0.64615 0.0
H2746 H 0.63561 0.8037 0.59827 0.0
C2747 C 0.45933 0.81183 0.59287 0.0
C2748 C 0.46824 0.81268 0.57221 0.0
C2749 C 0.49839 0.8121 0.60651 0.0
C2750 C 0.63179 0.80806 0.61146 0.0
H2751 H 0.73045 0.81449 0.70785 0.0
H2752 H 0.66123 0.81402 0.68418 0.0
H2753 H 0.70232 0.80375 0.62288 0.0
H2754 H 0.52568 0.8144 0.54977 0.0
H2755 H 0.59431 0.81479 0.57377 0.0
H2756 H 0.55188 0.82311 0.63479 0.0
C2757 C 0.6988 0.81413 0.67842 0.0
C2758 C 0.66997 0.8081 0.62558 0.0
C2759 C 0.73844 0.81435 0.69199 0.0
C2760 C 0.51747 0.81373 0.56555 0.0
C2761 C 0.55675 0.81392 0.57926 0.0
C2762 C 0.58455 0.81884 0.63209 0.0
C2763 C 0.70773 0.81386 0.65769 0.0
C2764 C 0.66615 0.81358 0.64306 0.0
C2765 C 0.54748 0.81316 0.59989 0.0
C2766 C 0.58866 0.81341 0.61458 0.0
H2767 H 0.83382 0.81408 0.65841 0.0
H2768 H 0.76538 0.81391 0.63505 0.0
H2769 H 0.61905 0.82335 0.65926 0.0
H2770 H 0.42198 0.81101 0.59863 0.0
H2771 H 0.49017 0.81137 0.62227 0.0
C2772 C 0.23726 0.81539 0.1926 0.0
C2773 C 0.28657 0.81483 0.18582 0.0
C2774 C 0.19782 0.81543 0.17893 0.0
C2775 C 0.16854 0.80926 0.12625 0.0
H2776 H 0.05318 0.8251 0.13473 0.0
C2777 C 0.01695 0.81499 0.06597 0.0
C2778 C 0.96772 0.81413 0.07272 0.0
C2779 C 0.05629 0.81527 0.07965 0.0
C2780 C 0.08511 0.82061 0.13223 0.0
H2781 H 0.33299 0.81415 0.15927 0.0
H2782 H 0.26492 0.81445 0.13574 0.0
H2783 H 0.12024 0.82512 0.15928 0.0
H2784 H 0.92137 0.81301 0.09924 0.0
H2785 H 0.98967 0.81353 0.12284 0.0
H2786 H 0.13353 0.80484 0.09909 0.0
C2787 C 0.25634 0.81458 0.15155 0.0
C2788 C 0.12339 0.82058 0.14633 0.0
C2789 C 0.29551 0.81446 0.16512 0.0
C2790 C 0.95877 0.81364 0.09342 0.0
C2791 C 0.99788 0.81401 0.10703 0.0
C2792 C 0.13046 0.80935 0.11209 0.0
C2793 C 0.20698 0.81498 0.15823 0.0
C2794 C 0.1656 0.8149 0.14351 0.0
C2795 C 0.04703 0.81481 0.10032 0.0
C2796 C 0.08832 0.815 0.11496 0.0
H2797 H 0.2291 0.81566 0.20843 0.0
H2798 H 0.16017 0.81567 0.1846 0.0
H2799 H 0.20004 0.80466 0.12376 0.0
H2800 H 0.02515 0.81539 0.05015 0.0
H2801 H 0.09391 0.81594 0.07409 0.0
C2802 C 0.80104 0.94684 0.09855 0.0
C2803 C 0.79212 0.94666 0.07783 0.0
C2804 C 0.76178 0.94703 0.1121 0.0
C2805 C 0.62777 0.94186 0.1165 0.0
H2806 H 0.63865 0.95676 0.16493 0.0
C2807 C 0.46128 0.94871 0.16782 0.0
C2808 C 0.46811 0.94745 0.18851 0.0
C2809 C 0.50162 0.94869 0.15483 0.0
C2810 C 0.63538 0.95249 0.15157 0.0
H2811 H 0.73453 0.94664 0.05518 0.0
H2812 H 0.66571 0.94718 0.07892 0.0
H2813 H 0.70645 0.95685 0.14072 0.0
H2814 H 0.52334 0.94541 0.21172 0.0
H2815 H 0.59435 0.94548 0.18879 0.0
H2816 H 0.55628 0.93764 0.12725 0.0
C2817 C 0.70332 0.94699 0.08464 0.0
C2818 C 0.67415 0.95253 0.13769 0.0
C2819 C 0.74276 0.94673 0.07101 0.0
C2820 C 0.5167 0.94639 0.1959 0.0
C2821 C 0.55734 0.94645 0.1828 0.0
C2822 C 0.5889 0.94188 0.1303 0.0
C2823 C 0.71242 0.94712 0.10536 0.0
C2824 C 0.67081 0.94721 0.11997 0.0
C2825 C 0.54999 0.94748 0.16211 0.0
C2826 C 0.59224 0.94721 0.14794 0.0
H2827 H 0.83853 0.94671 0.10442 0.0
H2828 H 0.77023 0.94694 0.12792 0.0
H2829 H 0.62432 0.93753 0.10324 0.0
H2830 H 0.42455 0.94961 0.1615 0.0
H2831 H 0.49492 0.94966 0.139 0.0
C2832 C 0.99694 0.55537 0.81976 0.0
C2833 C 0.97284 0.55762 0.80175 0.0
C2834 C 0.96967 0.55294 0.83666 0.0
C2835 C 0.84508 0.55637 0.85807 0.0
H2836 H 0.90001 0.54106 0.90072 0.0
C2837 C 0.74852 0.55326 0.93399 0.0
C2838 C 0.7787 0.55633 0.94988 0.0
C2839 C 0.76934 0.55104 0.91551 0.0
C2840 C 0.88419 0.5453 0.88886 0.0
H2841 H 0.90126 0.55849 0.78702 0.0
H2842 H 0.85345 0.55393 0.81647 0.0
H2843 H 0.93999 0.54112 0.86795 0.0
H2844 H 0.85479 0.55881 0.95921 0.0
H2845 H 0.89118 0.55482 0.92684 0.0
H2846 H 0.78942 0.56055 0.87906 0.0
C2847 C 0.8935 0.55434 0.81766 0.0
C2848 C 0.9071 0.54539 0.87014 0.0
C2849 C 0.92086 0.55692 0.80076 0.0
C2850 C 0.83049 0.55654 0.94724 0.0
C2851 C 0.85136 0.5542 0.92878 0.0
C2852 C 0.82176 0.55615 0.87666 0.0
C2853 C 0.91754 0.55255 0.83596 0.0
C2854 C 0.88875 0.55117 0.85469 0.0
C2855 C 0.82077 0.55171 0.91262 0.0
C2856 C 0.84188 0.55082 0.89235 0.0
H2857 H 0.03695 0.55587 0.8211 0.0
H2858 H 0.98959 0.5518 0.8505 0.0
H2859 H 0.83023 0.56103 0.84673 0.0
H2860 H 0.70849 0.55296 0.93548 0.0
H2861 H 0.74509 0.54906 0.90329 0.0
C2862 C 0.32718 0.70492 0.80689 0.0
C2863 C 0.27561 0.7036 0.80823 0.0
C2864 C 0.35471 0.70729 0.82384 0.0
C2865 C 0.3428 0.71434 0.8776 0.0
H2866 H 0.46526 0.70016 0.88257 0.0
C2867 C 0.43346 0.70274 0.95207 0.0
C2868 C 0.4855 0.70331 0.95336 0.0
C2869 C 0.40915 0.70512 0.93432 0.0
C2870 C 0.43155 0.70429 0.88129 0.0
H2871 H 0.21213 0.70411 0.8282 0.0
H2872 H 0.26009 0.70783 0.85778 0.0
H2873 H 0.42103 0.70014 0.85101 0.0
H2874 H 0.55246 0.70738 0.93734 0.0
H2875 H 0.50995 0.71136 0.90645 0.0
H2876 H 0.35239 0.71797 0.90848 0.0
C2877 C 0.27941 0.70731 0.84364 0.0
C2878 C 0.40624 0.70433 0.86315 0.0
C2879 C 0.25185 0.7051 0.82665 0.0
C2880 C 0.51238 0.70676 0.93687 0.0
C2881 C 0.48814 0.70905 0.91914 0.0
C2882 C 0.36784 0.71418 0.89588 0.0
C2883 C 0.33133 0.70822 0.84256 0.0
C2884 C 0.36108 0.70922 0.86114 0.0
C2885 C 0.43651 0.70803 0.91755 0.0
C2886 C 0.41206 0.70904 0.89792 0.0
H2887 H 0.34641 0.70395 0.79282 0.0
H2888 H 0.39449 0.70816 0.82236 0.0
H2889 H 0.30862 0.71833 0.87649 0.0
H2890 H 0.41161 0.70019 0.96454 0.0
H2891 H 0.36925 0.70423 0.9334 0.0
C2892 C 0.91623 0.7034 0.45818 0.0
C2893 C 0.96799 0.70239 0.45675 0.0
C2894 C 0.88826 0.70579 0.44134 0.0
C2895 C 0.8992 0.71369 0.38812 0.0
H2896 H 0.77867 0.69902 0.38199 0.0
C2897 C 0.81176 0.70271 0.31273 0.0
C2898 C 0.75972 0.70309 0.3112 0.0
C2899 C 0.83522 0.70492 0.33075 0.0
C2900 C 0.81182 0.70328 0.3836 0.0
H2901 H 0.03122 0.70341 0.43674 0.0
H2902 H 0.98258 0.70717 0.40739 0.0
H2903 H 0.82265 0.69874 0.41363 0.0
H2904 H 0.69178 0.70662 0.32712 0.0
H2905 H 0.73287 0.71032 0.3585 0.0
H2906 H 0.88942 0.71772 0.35748 0.0
C2907 C 0.96342 0.7064 0.42151 0.0
C2908 C 0.83698 0.70317 0.40179 0.0
C2909 C 0.99138 0.70416 0.43837 0.0
C2910 C 0.73191 0.70617 0.32777 0.0
C2911 C 0.75532 0.70829 0.34578 0.0
C2912 C 0.87434 0.71368 0.36979 0.0
C2913 C 0.9114 0.70707 0.42268 0.0
C2914 C 0.88151 0.70823 0.40418 0.0
C2915 C 0.80702 0.70748 0.34756 0.0
C2916 C 0.83087 0.70836 0.36733 0.0
H2917 H 0.89723 0.70222 0.47222 0.0
H2918 H 0.84837 0.70645 0.44289 0.0
H2919 H 0.93284 0.71781 0.38954 0.0
H2920 H 0.83429 0.70044 0.30022 0.0
H2921 H 0.87519 0.70419 0.33182 0.0
C2922 C 0.41542 0.55553 0.29936 0.0
C2923 C 0.46735 0.55621 0.3008 0.0
C2924 C 0.38712 0.55297 0.31603 0.0
C2925 C 0.39741 0.54416 0.36872 0.0
H2926 H 0.28094 0.55979 0.37653 0.0
C2927 C 0.31889 0.55571 0.44521 0.0
C2928 C 0.26699 0.5558 0.4475 0.0
C2929 C 0.34016 0.55327 0.42687 0.0
C2930 C 0.3129 0.55525 0.37444 0.0
H2931 H 0.53041 0.55432 0.32066 0.0
H2932 H 0.4814 0.55027 0.34963 0.0
H2933 H 0.32318 0.55997 0.34449 0.0
H2934 H 0.19688 0.55289 0.43258 0.0
H2935 H 0.23418 0.54881 0.40063 0.0
H2936 H 0.38851 0.53997 0.39932 0.0
C2937 C 0.46224 0.55145 0.33563 0.0
C2938 C 0.33705 0.55531 0.35601 0.0
C2939 C 0.49046 0.55387 0.31897 0.0
C2940 C 0.23699 0.55296 0.43136 0.0
C2941 C 0.25823 0.55063 0.41302 0.0
C2942 C 0.37364 0.54423 0.38728 0.0
C2943 C 0.41013 0.55117 0.33453 0.0
C2944 C 0.38032 0.54993 0.35305 0.0
C2945 C 0.30988 0.55097 0.41049 0.0
C2946 C 0.33177 0.54992 0.39038 0.0
H2947 H 0.39654 0.55716 0.2855 0.0
H2948 H 0.34711 0.55264 0.31452 0.0
H2949 H 0.42998 0.53977 0.36685 0.0
H2950 H 0.34306 0.55779 0.45737 0.0
H2951 H 0.38014 0.55364 0.42523 0.0
C2952 C 0.9535 0.44722 0.16672 0.0
C2953 C 0.96246 0.44671 0.18741 0.0
C2954 C 0.99268 0.44729 0.15314 0.0
C2955 C 0.12557 0.44132 0.14799 0.0
H2956 H 0.11609 0.45703 0.10067 0.0
C2957 C 0.29131 0.4478 0.09583 0.0
C2958 C 0.28319 0.44705 0.0751 0.0
C2959 C 0.25166 0.44776 0.10917 0.0
C2960 C 0.11896 0.45254 0.1137 0.0
H2961 H 0.02005 0.44592 0.20999 0.0
H2962 H 0.08891 0.44624 0.18617 0.0
H2963 H 0.0492 0.45723 0.12525 0.0
H2964 H 0.22645 0.44586 0.05222 0.0
H2965 H 0.15669 0.44589 0.07576 0.0
H2966 H 0.19582 0.43677 0.13654 0.0
C2967 C 0.05125 0.44642 0.1805 0.0
C2968 C 0.0807 0.45264 0.1278 0.0
C2969 C 0.01183 0.44628 0.19417 0.0
C2970 C 0.23407 0.44644 0.06806 0.0
C2971 C 0.19416 0.44648 0.08151 0.0
C2972 C 0.16398 0.44128 0.13397 0.0
C2973 C 0.04206 0.44694 0.15981 0.0
C2974 C 0.08348 0.44702 0.14511 0.0
C2975 C 0.20272 0.44705 0.10221 0.0
C2976 C 0.16108 0.44689 0.11669 0.0
H2977 H 0.91601 0.44746 0.16088 0.0
H2978 H 0.9841 0.44749 0.13734 0.0
H2979 H 0.12856 0.43678 0.16093 0.0
H2980 H 0.3285 0.44832 0.1019 0.0
H2981 H 0.25935 0.44836 0.12501 0.0
C2982 C 0.73932 0.31374 0.19113 0.0
C2983 C 0.78882 0.31327 0.18454 0.0
C2984 C 0.70022 0.31377 0.17733 0.0
C2985 C 0.67113 0.30805 0.12438 0.0
H2986 H 0.55717 0.32418 0.13351 0.0
C2987 C 0.51711 0.31445 0.06505 0.0
C2988 C 0.46821 0.31369 0.07227 0.0
C2989 C 0.55729 0.31453 0.07836 0.0
C2990 C 0.58871 0.31961 0.13081 0.0
H2991 H 0.83582 0.31252 0.15815 0.0
H2992 H 0.76821 0.31278 0.13437 0.0
H2993 H 0.6244 0.32385 0.1579 0.0
H2994 H 0.42345 0.3125 0.09922 0.0
H2995 H 0.49307 0.31268 0.12211 0.0
H2996 H 0.63539 0.30389 0.09716 0.0
C2997 C 0.75932 0.31291 0.15015 0.0
C2998 C 0.62708 0.31938 0.14484 0.0
C2999 C 0.79821 0.31282 0.16387 0.0
C3000 C 0.46051 0.31307 0.09303 0.0
C3001 C 0.50042 0.31325 0.10625 0.0
C3002 C 0.63289 0.30833 0.11028 0.0
C3003 C 0.70983 0.31338 0.15666 0.0
C3004 C 0.66868 0.31356 0.14185 0.0
C3005 C 0.54919 0.31398 0.0991 0.0
C3006 C 0.59115 0.31407 0.11343 0.0
H3007 H 0.73073 0.31406 0.20692 0.0
H3008 H 0.66245 0.31401 0.18288 0.0
H3009 H 0.70226 0.30338 0.12173 0.0
H3010 H 0.52435 0.31493 0.04917 0.0
H3011 H 0.59463 0.31514 0.07248 0.0
C3012 C 0.0165 0.31412 0.5659 0.0
C3013 C 0.96767 0.31294 0.57291 0.0
C3014 C 0.05657 0.31406 0.57927 0.0
C3015 C 0.0904 0.30692 0.63103 0.0
H3016 H 0.19742 0.32491 0.6243 0.0
C3017 C 0.23747 0.31423 0.69229 0.0
C3018 C 0.28703 0.31436 0.68569 0.0
C3019 C 0.19845 0.31405 0.67845 0.0
C3020 C 0.16788 0.31981 0.62629 0.0
H3021 H 0.92299 0.31074 0.5996 0.0
H3022 H 0.992 0.31085 0.6226 0.0
H3023 H 0.13054 0.3243 0.59972 0.0
H3024 H 0.33429 0.31457 0.65935 0.0
H3025 H 0.26648 0.31431 0.63547 0.0
H3026 H 0.12746 0.30255 0.65779 0.0
C3027 C -0.00024 0.31162 0.60681 0.0
C3028 C 0.12974 0.31942 0.61216 0.0
C3029 C 0.95999 0.31163 0.59353 0.0
C3030 C 0.29661 0.31443 0.66502 0.0
C3031 C 0.25776 0.31435 0.65127 0.0
C3032 C 0.1283 0.30737 0.64524 0.0
C3033 C 0.04856 0.31283 0.5999 0.0
C3034 C 0.09043 0.31298 0.61439 0.0
C3035 C 0.20831 0.31412 0.65781 0.0
C3036 C 0.16739 0.31382 0.64302 0.0
H3037 H 0.0238 0.31512 0.55013 0.0
H3038 H 0.09381 0.31491 0.57343 0.0
H3039 H 0.0612 0.30175 0.63304 0.0
H3040 H 0.22883 0.31417 0.70809 0.0
H3041 H 0.16055 0.31393 0.68389 0.0
C3042 C 0.45546 0.44726 0.66574 0.0
C3043 C 0.46398 0.44672 0.68645 0.0
C3044 C 0.49489 0.44709 0.65227 0.0
C3045 C 0.62687 0.44034 0.64756 0.0
H3046 H 0.62075 0.45605 0.60016 0.0
C3047 C 0.79433 0.4462 0.59563 0.0
C3048 C 0.78615 0.44574 0.57488 0.0
C3049 C 0.75463 0.44609 0.60897 0.0
C3050 C 0.62267 0.45155 0.61321 0.0
H3051 H 0.52107 0.44566 0.7092 0.0
H3052 H 0.59033 0.44558 0.68558 0.0
H3053 H 0.55351 0.45667 0.62452 0.0
H3054 H 0.72945 0.44483 0.55194 0.0
H3055 H 0.65966 0.44472 0.57543 0.0
H3056 H 0.69659 0.43537 0.63632 0.0
C3057 C 0.55282 0.44596 0.67981 0.0
C3058 C 0.5842 0.45189 0.62719 0.0
C3059 C 0.51316 0.44606 0.69336 0.0
C3060 C 0.73706 0.44518 0.56781 0.0
C3061 C 0.69714 0.44516 0.58123 0.0
C3062 C 0.66552 0.44006 0.63364 0.0
C3063 C 0.54407 0.44647 0.65909 0.0
C3064 C 0.58575 0.44628 0.64452 0.0
C3065 C 0.70564 0.44559 0.60195 0.0
C3066 C 0.66379 0.44566 0.61633 0.0
H3067 H 0.41813 0.44769 0.65978 0.0
H3068 H 0.48663 0.44731 0.63644 0.0
H3069 H 0.62889 0.4358 0.66053 0.0
H3070 H 0.83158 0.44662 0.60168 0.0
H3071 H 0.76229 0.44655 0.62483 0.0
loop_
_geom_bond_atom_site_label_1
_geom_bond_atom_site_label_2
_geom_bond_distance
_geom_bond_site_symmetry_2
_ccdc_geom_bond_type
Mn0 O5 2.095 . S
Mn0 O15 2.162 . S
Mn0 O16 2.297 . S
Mn0 O24 2.385 . S
Mn0 O25 2.209 . S
Mn0 O26 2.094 . S
Mn1 O6 2.121 1_455 S
Mn1 N8 2.257 1_455 S
Mn1 N17 2.282 . S
Mn1 O25 2.215 . S
Mn1 O27 2.117 . S
C2 O24 1.234 . S
C2 O25 1.283 . S
C3 O15 1.281 . S
C3 O16 1.236 . S
C4 O26 1.240 . S
C4 O27 1.264 . S
O5 Mn0 2.095 . S
O5 C14 1.250 . S
O6 Mn1 2.121 1_655 S
O6 C14 1.258 1_655 S
C7 N8 1.326 . S
C7 C11 1.460 . S
C7 H13 0.929 . S
N8 Mn1 2.257 1_655 S
N8 C7 1.326 . S
N8 C12 1.362 . S
C9 C10 1.258 . S
C9 C12 1.431 . S
C9 C29 1.449 . S
C10 C9 1.258 . S
C10 C11 1.477 . S
C10 H30 0.931 . S
C11 C7 1.460 . S
C11 C10 1.477 . S
C11 H31 0.930 . S
C12 N8 1.362 . S
C12 C9 1.431 . S
C12 C22 1.476 . S
H13 C7 0.929 . S
C14 O5 1.250 . S
C14 O6 1.258 1_455 S
O15 Mn0 2.162 . S
O15 C3 1.281 . S
O16 Mn0 2.297 . S
O16 C3 1.236 . S
N17 Mn1 2.282 . S
N17 C18 1.328 . S
N17 C22 1.318 1_455 S
C18 N17 1.328 . S
C18 C19 1.457 . S
C18 H23 0.929 . S
C19 C18 1.457 . S
C19 C20 1.291 . S
C19 H32 0.931 . S
C20 C19 1.291 . S
C20 C21 1.373 1_455 S
C20 H33 0.929 . S
C21 C20 1.373 1_655 S
C21 C22 1.396 . S
C21 C28 1.403 . S
C22 C12 1.476 . S
C22 N17 1.318 1_655 S
C22 C21 1.396 . S
H23 C18 0.929 . S
O24 Mn0 2.385 . S
O24 C2 1.234 . S
O25 Mn0 2.209 . S
O25 Mn1 2.215 . S
O25 C2 1.283 . S
O26 Mn0 2.094 . S
O26 C4 1.240 . S
O27 Mn1 2.117 . S
O27 C4 1.264 . S
C28 C21 1.403 . S
C28 C29 1.399 . S
C28 H34 0.929 . S
C29 C9 1.449 . S
C29 C28 1.399 . S
C29 H35 0.930 . S
H30 C10 0.931 . S
H31 C11 0.930 . S
H32 C19 0.931 . S
H33 C20 0.929 . S
H34 C28 0.929 . S
H35 C29 0.930 . S
Mn36 O41 2.095 . S
Mn36 O51 2.162 . S
Mn36 O52 2.297 . S
Mn36 O60 2.385 . S
Mn36 O61 2.209 . S
Mn36 O62 2.094 . S
Mn37 O42 2.121 . S
Mn37 N44 2.257 . S
Mn37 N53 2.282 . S
Mn37 O61 2.215 . S
Mn37 O63 2.117 . S
C38 O60 1.234 . S
C38 O61 1.283 . S
C39 O51 1.281 . S
C39 O52 1.236 . S
C40 O62 1.240 . S
C40 O63 1.264 . S
O41 Mn36 2.095 . S
O41 C50 1.250 . S
O42 Mn37 2.121 . S
O42 C50 1.258 . S
C43 N44 1.326 . S
C43 C47 1.460 . S
C43 H49 0.929 . S
N44 Mn37 2.257 . S
N44 C43 1.326 . S
N44 C48 1.362 . S
C45 C46 1.258 . S
C45 C48 1.431 . S
C45 C65 1.449 . S
C46 C45 1.258 . S
C46 C47 1.477 . S
C46 H66 0.931 . S
C47 C43 1.460 . S
C47 C46 1.477 . S
C47 H67 0.930 . S
C48 N44 1.362 . S
C48 C45 1.431 . S
C48 C58 1.476 . S
H49 C43 0.929 . S
C50 O41 1.250 . S
C50 O42 1.258 . S
O51 Mn36 2.162 . S
O51 C39 1.281 . S
O52 Mn36 2.297 . S
O52 C39 1.236 . S
N53 Mn37 2.282 . S
N53 C54 1.328 . S
N53 C58 1.318 . S
C54 N53 1.328 . S
C54 C55 1.457 . S
C54 H59 0.929 . S
C55 C54 1.457 . S
C55 C56 1.291 . S
C55 H68 0.931 . S
C56 C55 1.291 . S
C56 C57 1.373 . S
C56 H69 0.929 . S
C57 C56 1.373 . S
C57 C58 1.396 . S
C57 C64 1.403 . S
C58 C48 1.476 . S
C58 N53 1.318 . S
C58 C57 1.396 . S
H59 C54 0.929 . S
O60 Mn36 2.385 . S
O60 C38 1.234 . S
O61 Mn36 2.209 . S
O61 Mn37 2.215 . S
O61 C38 1.283 . S
O62 Mn36 2.094 . S
O62 C40 1.240 . S
O63 Mn37 2.117 . S
O63 C40 1.264 . S
C64 C57 1.403 . S
C64 C65 1.399 . S
C64 H70 0.929 . S
C65 C45 1.449 . S
C65 C64 1.399 . S
C65 H71 0.930 . S
H66 C46 0.931 . S
H67 C47 0.930 . S
H68 C55 0.931 . S
H69 C56 0.929 . S
H70 C64 0.929 . S
H71 C65 0.930 . S
Mn72 O77 2.095 . S
Mn72 O87 2.162 . S
Mn72 O88 2.297 . S
Mn72 O96 2.385 1_556 S
Mn72 O97 2.209 1_556 S
Mn72 O98 2.094 . S
Mn73 O78 2.121 1_454 S
Mn73 N80 2.257 1_455 S
Mn73 N89 2.282 . S
Mn73 O97 2.215 . S
Mn73 O99 2.117 . S
C74 O96 1.234 . S
C74 O97 1.283 . S
C75 O87 1.281 . S
C75 O88 1.236 . S
C76 O98 1.240 . S
C76 O99 1.264 1_556 S
O77 Mn72 2.095 . S
O77 C86 1.250 . S
O78 Mn73 2.121 1_656 S
O78 C86 1.258 1_655 S
C79 N80 1.326 . S
C79 C83 1.460 . S
C79 H85 0.929 . S
N80 Mn73 2.257 1_655 S
N80 C79 1.326 . S
N80 C84 1.362 . S
C81 C82 1.258 . S
C81 C84 1.431 . S
C81 C101 1.449 . S
C82 C81 1.258 . S
C82 C83 1.477 . S
C82 H102 0.931 . S
C83 C79 1.460 . S
C83 C82 1.477 . S
C83 H103 0.930 . S
C84 N80 1.362 . S
C84 C81 1.431 . S
C84 C94 1.476 . S
H85 C79 0.929 . S
C86 O77 1.250 . S
C86 O78 1.258 1_455 S
O87 Mn72 2.162 . S
O87 C75 1.281 . S
O88 Mn72 2.297 . S
O88 C75 1.236 . S
N89 Mn73 2.282 . S
N89 C90 1.328 . S
N89 C94 1.318 1_455 S
C90 N89 1.328 . S
C90 C91 1.457 . S
C90 H95 0.929 . S
C91 C90 1.457 . S
C91 C92 1.291 . S
C91 H104 0.931 . S
C92 C91 1.291 . S
C92 C93 1.373 1_455 S
C92 H105 0.929 . S
C93 C92 1.373 1_655 S
C93 C94 1.396 . S
C93 C100 1.403 . S
C94 C84 1.476 . S
C94 N89 1.318 1_655 S
C94 C93 1.396 . S
H95 C90 0.929 . S
O96 Mn72 2.385 1_554 S
O96 C74 1.234 . S
O97 Mn72 2.209 1_554 S
O97 Mn73 2.215 . S
O97 C74 1.283 . S
O98 Mn72 2.094 . S
O98 C76 1.240 . S
O99 Mn73 2.117 . S
O99 C76 1.264 1_554 S
C100 C93 1.403 . S
C100 C101 1.399 . S
C100 H106 0.929 . S
C101 C81 1.449 . S
C101 C100 1.399 . S
C101 H107 0.930 . S
H102 C82 0.931 . S
H103 C83 0.930 . S
H104 C91 0.931 . S
H105 C92 0.929 . S
H106 C100 0.929 . S
H107 C101 0.930 . S
Mn108 O113 2.095 . S
Mn108 O123 2.162 . S
Mn108 O124 2.297 . S
Mn108 O132 2.385 1_556 S
Mn108 O133 2.209 1_556 S
Mn108 O134 2.094 . S
Mn109 O114 2.121 1_554 S
Mn109 N116 2.257 . S
Mn109 N125 2.282 . S
Mn109 O133 2.215 . S
Mn109 O135 2.117 . S
C110 O132 1.234 . S
C110 O133 1.283 . S
C111 O123 1.281 . S
C111 O124 1.236 . S
C112 O134 1.240 . S
C112 O135 1.264 1_556 S
O113 Mn108 2.095 . S
O113 C122 1.250 . S
O114 Mn109 2.121 1_556 S
O114 C122 1.258 . S
C115 N116 1.326 . S
C115 C119 1.460 . S
C115 H121 0.929 . S
N116 Mn109 2.257 . S
N116 C115 1.326 . S
N116 C120 1.362 . S
C117 C118 1.258 . S
C117 C120 1.431 . S
C117 C137 1.449 . S
C118 C117 1.258 . S
C118 C119 1.477 . S
C118 H138 0.931 . S
C119 C115 1.460 . S
C119 C118 1.477 . S
C119 H139 0.930 . S
C120 N116 1.362 . S
C120 C117 1.431 . S
C120 C130 1.476 . S
H121 C115 0.929 . S
C122 O113 1.250 . S
C122 O114 1.258 . S
O123 Mn108 2.162 . S
O123 C111 1.281 . S
O124 Mn108 2.297 . S
O124 C111 1.236 . S
N125 Mn109 2.282 . S
N125 C126 1.328 . S
N125 C130 1.318 . S
C126 N125 1.328 . S
C126 C127 1.457 . S
C126 H131 0.929 . S
C127 C126 1.457 . S
C127 C128 1.291 . S
C127 H140 0.931 . S
C128 C127 1.291 . S
C128 C129 1.373 . S
C128 H141 0.929 . S
C129 C128 1.373 . S
C129 C130 1.396 . S
C129 C136 1.403 . S
C130 C120 1.476 . S
C130 N125 1.318 . S
C130 C129 1.396 . S
H131 C126 0.929 . S
O132 Mn108 2.385 1_554 S
O132 C110 1.234 . S
O133 Mn108 2.209 1_554 S
O133 Mn109 2.215 . S
O133 C110 1.283 . S
O134 Mn108 2.094 . S
O134 C112 1.240 . S
O135 Mn109 2.117 . S
O135 C112 1.264 1_554 S
C136 C129 1.403 . S
C136 C137 1.399 . S
C136 H142 0.929 . S
C137 C117 1.449 . S
C137 C136 1.399 . S
C137 H143 0.930 . S
H138 C118 0.931 . S
H139 C119 0.930 . S
H140 C127 0.931 . S
H141 C128 0.929 . S
H142 C136 0.929 . S
H143 C137 0.930 . S
Mn144 O149 2.095 . S
Mn144 O159 2.162 . S
Mn144 O160 2.297 . S
Mn144 O168 2.385 . S
Mn144 O169 2.209 . S
Mn144 O170 2.094 . S
Mn145 O150 2.121 . S
Mn145 N152 2.257 . S
Mn145 N161 2.282 . S
Mn145 O169 2.215 . S
Mn145 O171 2.117 . S
C146 O168 1.234 . S
C146 O169 1.283 . S
C147 O159 1.281 . S
C147 O160 1.236 . S
C148 O170 1.240 . S
C148 O171 1.264 . S
O149 Mn144 2.095 . S
O149 C158 1.250 . S
O150 Mn145 2.121 . S
O150 C158 1.258 . S
C151 N152 1.326 . S
C151 C155 1.460 . S
C151 H157 0.929 . S
N152 Mn145 2.257 . S
N152 C151 1.326 . S
N152 C156 1.362 . S
C153 C154 1.258 . S
C153 C156 1.431 . S
C153 C173 1.449 . S
C154 C153 1.258 . S
C154 C155 1.477 . S
C154 H174 0.931 . S
C155 C151 1.460 . S
C155 C154 1.477 . S
C155 H175 0.930 . S
C156 N152 1.362 . S
C156 C153 1.431 . S
C156 C166 1.476 . S
H157 C151 0.929 . S
C158 O149 1.250 . S
C158 O150 1.258 . S
O159 Mn144 2.162 . S
O159 C147 1.281 . S
O160 Mn144 2.297 . S
O160 C147 1.236 . S
N161 Mn145 2.282 . S
N161 C162 1.328 . S
N161 C166 1.318 . S
C162 N161 1.328 . S
C162 C163 1.457 . S
C162 H167 0.929 . S
C163 C162 1.457 . S
C163 C164 1.291 . S
C163 H176 0.931 . S
C164 C163 1.291 . S
C164 C165 1.373 . S
C164 H177 0.929 . S
C165 C164 1.373 . S
C165 C166 1.396 . S
C165 C172 1.403 . S
C166 C156 1.476 . S
C166 N161 1.318 . S
C166 C165 1.396 . S
H167 C162 0.929 . S
O168 Mn144 2.385 . S
O168 C146 1.234 . S
O169 Mn144 2.209 . S
O169 Mn145 2.215 . S
O169 C146 1.283 . S
O170 Mn144 2.094 . S
O170 C148 1.240 . S
O171 Mn145 2.117 . S
O171 C148 1.264 . S
C172 C165 1.403 . S
C172 C173 1.399 . S
C172 H178 0.929 . S
C173 C153 1.449 . S
C173 C172 1.399 . S
C173 H179 0.930 . S
H174 C154 0.931 . S
H175 C155 0.930 . S
H176 C163 0.931 . S
H177 C164 0.929 . S
H178 C172 0.929 . S
H179 C173 0.930 . S
Mn180 O185 2.095 . S
Mn180 O195 2.162 . S
Mn180 O196 2.297 . S
Mn180 O204 2.385 . S
Mn180 O205 2.209 . S
Mn180 O206 2.094 . S
Mn181 O186 2.121 . S
Mn181 N188 2.257 . S
Mn181 N197 2.282 . S
Mn181 O205 2.215 . S
Mn181 O207 2.117 . S
C182 O204 1.234 . S
C182 O205 1.283 . S
C183 O195 1.281 . S
C183 O196 1.236 . S
C184 O206 1.240 . S
C184 O207 1.264 . S
O185 Mn180 2.095 . S
O185 C194 1.250 . S
O186 Mn181 2.121 . S
O186 C194 1.258 . S
C187 N188 1.326 1_455 S
C187 C191 1.460 . S
C187 H193 0.926 1_455 S
N188 Mn181 2.257 . S
N188 C187 1.326 1_655 S
N188 C192 1.362 . S
C189 C190 1.258 . S
C189 C192 1.431 1_455 S
C189 C209 1.449 . S
C190 C189 1.258 . S
C190 C191 1.477 . S
C190 H210 0.931 . S
C191 C187 1.460 . S
C191 C190 1.477 . S
C191 H211 0.930 . S
C192 N188 1.362 . S
C192 C189 1.431 1_655 S
C192 C202 1.476 . S
H193 C187 0.926 1_655 S
C194 O185 1.250 . S
C194 O186 1.258 . S
O195 Mn180 2.162 . S
O195 C183 1.281 . S
O196 Mn180 2.297 . S
O196 C183 1.236 . S
N197 Mn181 2.282 . S
N197 C198 1.328 . S
N197 C202 1.318 . S
C198 N197 1.328 . S
C198 C199 1.457 . S
C198 H203 0.929 . S
C199 C198 1.457 . S
C199 C200 1.291 . S
C199 H212 0.931 . S
C200 C199 1.291 . S
C200 C201 1.373 . S
C200 H213 0.929 . S
C201 C200 1.373 . S
C201 C202 1.396 . S
C201 C208 1.403 1_655 S
C202 C192 1.476 . S
C202 N197 1.318 . S
C202 C201 1.396 . S
H203 C198 0.929 . S
O204 Mn180 2.385 . S
O204 C182 1.234 . S
O205 Mn180 2.209 . S
O205 Mn181 2.215 . S
O205 C182 1.283 . S
O206 Mn180 2.094 . S
O206 C184 1.240 . S
O207 Mn181 2.117 . S
O207 C184 1.264 . S
C208 C201 1.403 1_455 S
C208 C209 1.399 . S
C208 H214 0.929 . S
C209 C189 1.449 . S
C209 C208 1.399 . S
C209 H215 0.930 . S
H210 C190 0.931 . S
H211 C191 0.930 . S
H212 C199 0.931 . S
H213 C200 0.929 . S
H214 C208 0.929 . S
H215 C209 0.930 . S
Mn216 O221 2.095 . S
Mn216 O231 2.162 1_554 S
Mn216 O232 2.297 1_554 S
Mn216 O240 2.385 . S
Mn216 O241 2.209 . S
Mn216 O242 2.094 . S
Mn217 O222 2.121 . S
Mn217 N224 2.257 . S
Mn217 N233 2.282 . S
Mn217 O241 2.215 . S
Mn217 O243 2.117 . S
C218 O240 1.234 . S
C218 O241 1.283 . S
C219 O231 1.281 . S
C219 O232 1.236 . S
C220 O242 1.240 . S
C220 O243 1.264 . S
O221 Mn216 2.095 . S
O221 C230 1.250 . S
O222 Mn217 2.121 . S
O222 C230 1.258 . S
C223 N224 1.326 . S
C223 C227 1.460 . S
C223 H229 0.929 . S
N224 Mn217 2.257 . S
N224 C223 1.326 . S
N224 C228 1.362 . S
C225 C226 1.258 . S
C225 C228 1.431 . S
C225 C245 1.449 . S
C226 C225 1.258 . S
C226 C227 1.477 . S
C226 H246 0.931 . S
C227 C223 1.460 . S
C227 C226 1.477 . S
C227 H247 0.930 . S
C228 N224 1.362 . S
C228 C225 1.431 . S
C228 C238 1.476 . S
H229 C223 0.929 . S
C230 O221 1.250 . S
C230 O222 1.258 . S
O231 Mn216 2.162 1_556 S
O231 C219 1.281 . S
O232 Mn216 2.297 1_556 S
O232 C219 1.236 . S
N233 Mn217 2.282 . S
N233 C234 1.328 . S
N233 C238 1.318 . S
C234 N233 1.328 . S
C234 C235 1.457 . S
C234 H239 0.929 . S
C235 C234 1.457 . S
C235 C236 1.291 . S
C235 H248 0.931 . S
C236 C235 1.291 . S
C236 C237 1.373 . S
C236 H249 0.929 . S
C237 C236 1.373 . S
C237 C238 1.396 . S
C237 C244 1.403 . S
C238 C228 1.476 . S
C238 N233 1.318 . S
C238 C237 1.396 . S
H239 C234 0.929 . S
O240 Mn216 2.385 . S
O240 C218 1.234 . S
O241 Mn216 2.209 . S
O241 Mn217 2.215 . S
O241 C218 1.283 . S
O242 Mn216 2.094 . S
O242 C220 1.240 . S
O243 Mn217 2.117 . S
O243 C220 1.264 . S
C244 C237 1.403 . S
C244 C245 1.399 . S
C244 H250 0.929 . S
C245 C225 1.449 . S
C245 C244 1.399 . S
C245 H251 0.930 . S
H246 C226 0.931 . S
H247 C227 0.930 . S
H248 C235 0.931 . S
H249 C236 0.929 . S
H250 C244 0.929 . S
H251 C245 0.930 . S
Mn252 O257 2.095 . S
Mn252 O267 2.162 1_554 S
Mn252 O268 2.297 1_554 S
Mn252 O276 2.385 . S
Mn252 O277 2.209 . S
Mn252 O278 2.094 . S
Mn253 O258 2.121 . S
Mn253 N260 2.257 . S
Mn253 N269 2.282 . S
Mn253 O277 2.215 . S
Mn253 O279 2.117 . S
C254 O276 1.234 . S
C254 O277 1.283 . S
C255 O267 1.281 . S
C255 O268 1.236 . S
C256 O278 1.240 . S
C256 O279 1.264 . S
O257 Mn252 2.095 . S
O257 C266 1.250 . S
O258 Mn253 2.121 . S
O258 C266 1.258 . S
C259 N260 1.326 1_455 S
C259 C263 1.460 . S
C259 H265 0.925 1_455 S
N260 Mn253 2.257 . S
N260 C259 1.326 1_655 S
N260 C264 1.362 . S
C261 C262 1.258 . S
C261 C264 1.431 1_455 S
C261 C281 1.449 . S
C262 C261 1.258 . S
C262 C263 1.477 . S
C262 H282 0.931 . S
C263 C259 1.460 . S
C263 C262 1.477 . S
C263 H283 0.930 . S
C264 N260 1.362 . S
C264 C261 1.431 1_655 S
C264 C274 1.476 . S
H265 C259 0.925 1_655 S
C266 O257 1.250 . S
C266 O258 1.258 . S
O267 Mn252 2.162 1_556 S
O267 C255 1.281 . S
O268 Mn252 2.297 1_556 S
O268 C255 1.236 . S
N269 Mn253 2.282 . S
N269 C270 1.328 . S
N269 C274 1.318 . S
C270 N269 1.328 . S
C270 C271 1.457 . S
C270 H275 0.929 . S
C271 C270 1.457 . S
C271 C272 1.291 . S
C271 H284 0.931 . S
C272 C271 1.291 . S
C272 C273 1.373 . S
C272 H285 0.929 . S
C273 C272 1.373 . S
C273 C274 1.396 . S
C273 C280 1.403 1_655 S
C274 C264 1.476 . S
C274 N269 1.318 . S
C274 C273 1.396 . S
H275 C270 0.929 . S
O276 Mn252 2.385 . S
O276 C254 1.234 . S
O277 Mn252 2.209 . S
O277 Mn253 2.215 . S
O277 C254 1.283 . S
O278 Mn252 2.094 . S
O278 C256 1.240 . S
O279 Mn253 2.117 . S
O279 C256 1.264 . S
C280 C273 1.403 1_455 S
C280 C281 1.399 . S
C280 H286 0.929 . S
C281 C261 1.449 . S
C281 C280 1.399 . S
C281 H287 0.930 . S
H282 C262 0.931 . S
H283 C263 0.930 . S
H284 C271 0.931 . S
H285 C272 0.929 . S
H286 C280 0.929 . S
H287 C281 0.930 . S
Mn288 O293 2.095 . S
Mn288 O303 2.162 . S
Mn288 O304 2.297 . S
Mn288 O312 2.385 . S
Mn288 O313 2.209 . S
Mn288 O314 2.094 . S
Mn289 O294 2.121 1_455 S
Mn289 N296 2.257 1_455 S
Mn289 N305 2.282 . S
Mn289 O313 2.215 . S
Mn289 O315 2.117 . S
C290 O312 1.234 . S
C290 O313 1.283 . S
C291 O303 1.281 . S
C291 O304 1.236 . S
C292 O314 1.240 . S
C292 O315 1.264 . S
O293 Mn288 2.095 . S
O293 C302 1.250 . S
O294 Mn289 2.121 1_655 S
O294 C302 1.258 1_655 S
C295 N296 1.326 . S
C295 C299 1.460 . S
C295 H301 0.929 . S
N296 Mn289 2.257 1_655 S
N296 C295 1.326 . S
N296 C300 1.362 . S
C297 C298 1.258 . S
C297 C300 1.431 . S
C297 C317 1.449 . S
C298 C297 1.258 . S
C298 C299 1.477 . S
C298 H318 0.931 . S
C299 C295 1.460 . S
C299 C298 1.477 . S
C299 H319 0.930 . S
C300 N296 1.362 . S
C300 C297 1.431 . S
C300 C310 1.476 . S
H301 C295 0.929 . S
C302 O293 1.250 . S
C302 O294 1.258 1_455 S
O303 Mn288 2.162 . S
O303 C291 1.281 . S
O304 Mn288 2.297 . S
O304 C291 1.236 . S
N305 Mn289 2.282 . S
N305 C306 1.328 . S
N305 C310 1.318 1_455 S
C306 N305 1.328 . S
C306 C307 1.457 . S
C306 H311 0.929 . S
C307 C306 1.457 . S
C307 C308 1.291 . S
C307 H320 0.931 . S
C308 C307 1.291 . S
C308 C309 1.373 1_455 S
C308 H321 0.929 . S
C309 C308 1.373 1_655 S
C309 C310 1.396 . S
C309 C316 1.403 . S
C310 C300 1.476 . S
C310 N305 1.318 1_655 S
C310 C309 1.396 . S
H311 C306 0.929 . S
O312 Mn288 2.385 . S
O312 C290 1.234 . S
O313 Mn288 2.209 . S
O313 Mn289 2.215 . S
O313 C290 1.283 . S
O314 Mn288 2.094 . S
O314 C292 1.240 . S
O315 Mn289 2.117 . S
O315 C292 1.264 . S
C316 C309 1.403 . S
C316 C317 1.399 . S
C316 H322 0.929 . S
C317 C297 1.449 . S
C317 C316 1.399 . S
C317 H323 0.930 . S
H318 C298 0.931 . S
H319 C299 0.930 . S
H320 C307 0.931 . S
H321 C308 0.929 . S
H322 C316 0.929 . S
H323 C317 0.930 . S
Mn324 O329 2.095 . S
Mn324 O339 2.162 . S
Mn324 O340 2.297 . S
Mn324 O348 2.385 . S
Mn324 O349 2.209 . S
Mn324 O350 2.094 . S
Mn325 O330 2.121 . S
Mn325 N332 2.257 . S
Mn325 N341 2.282 . S
Mn325 O349 2.215 . S
Mn325 O351 2.117 . S
C326 O348 1.234 . S
C326 O349 1.283 . S
C327 O339 1.281 . S
C327 O340 1.236 . S
C328 O350 1.240 . S
C328 O351 1.264 . S
O329 Mn324 2.095 . S
O329 C338 1.250 . S
O330 Mn325 2.121 . S
O330 C338 1.258 . S
C331 N332 1.326 . S
C331 C335 1.460 . S
C331 H337 0.929 . S
N332 Mn325 2.257 . S
N332 C331 1.326 . S
N332 C336 1.362 . S
C333 C334 1.258 . S
C333 C336 1.431 . S
C333 C353 1.449 . S
C334 C333 1.258 . S
C334 C335 1.477 . S
C334 H354 0.931 . S
C335 C331 1.460 . S
C335 C334 1.477 . S
C335 H355 0.930 . S
C336 N332 1.362 . S
C336 C333 1.431 . S
C336 C346 1.476 . S
H337 C331 0.929 . S
C338 O329 1.250 . S
C338 O330 1.258 . S
O339 Mn324 2.162 . S
O339 C327 1.281 . S
O340 Mn324 2.297 . S
O340 C327 1.236 . S
N341 Mn325 2.282 . S
N341 C342 1.328 . S
N341 C346 1.318 . S
C342 N341 1.328 . S
C342 C343 1.457 . S
C342 H347 0.929 . S
C343 C342 1.457 . S
C343 C344 1.291 . S
C343 H356 0.931 . S
C344 C343 1.291 . S
C344 C345 1.373 . S
C344 H357 0.929 . S
C345 C344 1.373 . S
C345 C346 1.396 . S
C345 C352 1.403 . S
C346 C336 1.476 . S
C346 N341 1.318 . S
C346 C345 1.396 . S
H347 C342 0.929 . S
O348 Mn324 2.385 . S
O348 C326 1.234 . S
O349 Mn324 2.209 . S
O349 Mn325 2.215 . S
O349 C326 1.283 . S
O350 Mn324 2.094 . S
O350 C328 1.240 . S
O351 Mn325 2.117 . S
O351 C328 1.264 . S
C352 C345 1.403 . S
C352 C353 1.399 . S
C352 H358 0.929 . S
C353 C333 1.449 . S
C353 C352 1.399 . S
C353 H359 0.930 . S
H354 C334 0.931 . S
H355 C335 0.930 . S
H356 C343 0.931 . S
H357 C344 0.929 . S
H358 C352 0.929 . S
H359 C353 0.930 . S
Mn360 O365 2.095 . S
Mn360 O375 2.162 . S
Mn360 O376 2.297 . S
Mn360 O384 2.385 . S
Mn360 O385 2.209 . S
Mn360 O386 2.094 . S
Mn361 O366 2.121 1_455 S
Mn361 N368 2.257 1_455 S
Mn361 N377 2.282 . S
Mn361 O385 2.215 . S
Mn361 O387 2.117 . S
C362 O384 1.234 . S
C362 O385 1.283 . S
C363 O375 1.281 . S
C363 O376 1.236 . S
C364 O386 1.240 . S
C364 O387 1.264 . S
O365 Mn360 2.095 . S
O365 C374 1.250 . S
O366 Mn361 2.121 1_655 S
O366 C374 1.258 1_655 S
C367 N368 1.326 . S
C367 C371 1.460 . S
C367 H373 0.929 . S
N368 Mn361 2.257 1_655 S
N368 C367 1.326 . S
N368 C372 1.362 . S
C369 C370 1.258 . S
C369 C372 1.431 . S
C369 C389 1.449 . S
C370 C369 1.258 . S
C370 C371 1.477 . S
C370 H390 0.931 . S
C371 C367 1.460 . S
C371 C370 1.477 . S
C371 H391 0.930 . S
C372 N368 1.362 . S
C372 C369 1.431 . S
C372 C382 1.476 . S
H373 C367 0.929 . S
C374 O365 1.250 . S
C374 O366 1.258 1_455 S
O375 Mn360 2.162 . S
O375 C363 1.281 . S
O376 Mn360 2.297 . S
O376 C363 1.236 . S
N377 Mn361 2.282 . S
N377 C378 1.328 . S
N377 C382 1.318 1_455 S
C378 N377 1.328 . S
C378 C379 1.457 . S
C378 H383 0.929 . S
C379 C378 1.457 . S
C379 C380 1.291 . S
C379 H392 0.931 . S
C380 C379 1.291 . S
C380 C381 1.373 1_455 S
C380 H393 0.929 . S
C381 C380 1.373 1_655 S
C381 C382 1.396 . S
C381 C388 1.403 . S
C382 C372 1.476 . S
C382 N377 1.318 1_655 S
C382 C381 1.396 . S
H383 C378 0.929 . S
O384 Mn360 2.385 . S
O384 C362 1.234 . S
O385 Mn360 2.209 . S
O385 Mn361 2.215 . S
O385 C362 1.283 . S
O386 Mn360 2.094 . S
O386 C364 1.240 . S
O387 Mn361 2.117 . S
O387 C364 1.264 . S
C388 C381 1.403 . S
C388 C389 1.399 . S
C388 H394 0.929 . S
C389 C369 1.449 . S
C389 C388 1.399 . S
C389 H395 0.930 . S
H390 C370 0.931 . S
H391 C371 0.930 . S
H392 C379 0.931 . S
H393 C380 0.929 . S
H394 C388 0.929 . S
H395 C389 0.930 . S
Mn396 O401 2.095 . S
Mn396 O411 2.162 . S
Mn396 O412 2.297 . S
Mn396 O420 2.385 . S
Mn396 O421 2.209 . S
Mn396 O422 2.094 . S
Mn397 O402 2.121 . S
Mn397 N404 2.257 . S
Mn397 N413 2.282 . S
Mn397 O421 2.215 . S
Mn397 O423 2.117 . S
C398 O420 1.234 . S
C398 O421 1.283 . S
C399 O411 1.281 . S
C399 O412 1.236 . S
C400 O422 1.240 . S
C400 O423 1.264 . S
O401 Mn396 2.095 . S
O401 C410 1.250 . S
O402 Mn397 2.121 . S
O402 C410 1.258 . S
C403 N404 1.326 . S
C403 C407 1.460 . S
C403 H409 0.929 . S
N404 Mn397 2.257 . S
N404 C403 1.326 . S
N404 C408 1.362 . S
C405 C406 1.258 . S
C405 C408 1.431 . S
C405 C425 1.449 . S
C406 C405 1.258 . S
C406 C407 1.477 . S
C406 H426 0.931 . S
C407 C403 1.460 . S
C407 C406 1.477 . S
C407 H427 0.930 . S
C408 N404 1.362 . S
C408 C405 1.431 . S
C408 C418 1.476 . S
H409 C403 0.929 . S
C410 O401 1.250 . S
C410 O402 1.258 . S
O411 Mn396 2.162 . S
O411 C399 1.281 . S
O412 Mn396 2.297 . S
O412 C399 1.236 . S
N413 Mn397 2.282 . S
N413 C414 1.328 . S
N413 C418 1.318 . S
C414 N413 1.328 . S
C414 C415 1.457 . S
C414 H419 0.929 . S
C415 C414 1.457 . S
C415 C416 1.291 . S
C415 H428 0.931 . S
C416 C415 1.291 . S
C416 C417 1.373 . S
C416 H429 0.929 . S
C417 C416 1.373 . S
C417 C418 1.396 . S
C417 C424 1.403 . S
C418 C408 1.476 . S
C418 N413 1.318 . S
C418 C417 1.396 . S
H419 C414 0.929 . S
O420 Mn396 2.385 . S
O420 C398 1.234 . S
O421 Mn396 2.209 . S
O421 Mn397 2.215 . S
O421 C398 1.283 . S
O422 Mn396 2.094 . S
O422 C400 1.240 . S
O423 Mn397 2.117 . S
O423 C400 1.264 . S
C424 C417 1.403 . S
C424 C425 1.399 . S
C424 H430 0.929 . S
C425 C405 1.449 . S
C425 C424 1.399 . S
C425 H431 0.930 . S
H426 C406 0.931 . S
H427 C407 0.930 . S
H428 C415 0.931 . S
H429 C416 0.929 . S
H430 C424 0.929 . S
H431 C425 0.930 . S
Mn432 O437 2.095 . S
Mn432 O447 2.162 . S
Mn432 O448 2.297 . S
Mn432 O456 2.385 . S
Mn432 O457 2.209 . S
Mn432 O458 2.094 . S
Mn433 O438 2.121 . S
Mn433 N440 2.257 . S
Mn433 N449 2.282 . S
Mn433 O457 2.215 . S
Mn433 O459 2.117 . S
C434 O456 1.234 . S
C434 O457 1.283 . S
C435 O447 1.281 . S
C435 O448 1.236 . S
C436 O458 1.240 . S
C436 O459 1.264 . S
O437 Mn432 2.095 . S
O437 C446 1.250 . S
O438 Mn433 2.121 . S
O438 C446 1.258 . S
C439 N440 1.326 . S
C439 C443 1.460 . S
C439 H445 0.929 . S
N440 Mn433 2.257 . S
N440 C439 1.326 . S
N440 C444 1.362 . S
C441 C442 1.258 . S
C441 C444 1.431 . S
C441 C461 1.449 . S
C442 C441 1.258 . S
C442 C443 1.477 . S
C442 H462 0.931 . S
C443 C439 1.460 . S
C443 C442 1.477 . S
C443 H463 0.930 . S
C444 N440 1.362 . S
C444 C441 1.431 . S
C444 C454 1.476 . S
H445 C439 0.929 . S
C446 O437 1.250 . S
C446 O438 1.258 . S
O447 Mn432 2.162 . S
O447 C435 1.281 . S
O448 Mn432 2.297 . S
O448 C435 1.236 . S
N449 Mn433 2.282 . S
N449 C450 1.328 . S
N449 C454 1.318 . S
C450 N449 1.328 . S
C450 C451 1.457 . S
C450 H455 0.929 . S
C451 C450 1.457 . S
C451 C452 1.291 . S
C451 H464 0.931 . S
C452 C451 1.291 . S
C452 C453 1.373 . S
C452 H465 0.929 . S
C453 C452 1.373 . S
C453 C454 1.396 . S
C453 C460 1.403 . S
C454 C444 1.476 . S
C454 N449 1.318 . S
C454 C453 1.396 . S
H455 C450 0.929 . S
O456 Mn432 2.385 . S
O456 C434 1.234 . S
O457 Mn432 2.209 . S
O457 Mn433 2.215 . S
O457 C434 1.283 . S
O458 Mn432 2.094 . S
O458 C436 1.240 . S
O459 Mn433 2.117 . S
O459 C436 1.264 . S
C460 C453 1.403 . S
C460 C461 1.399 . S
C460 H466 0.929 . S
C461 C441 1.449 . S
C461 C460 1.399 . S
C461 H467 0.930 . S
H462 C442 0.931 . S
H463 C443 0.930 . S
H464 C451 0.931 . S
H465 C452 0.929 . S
H466 C460 0.929 . S
H467 C461 0.930 . S
Mn468 O473 2.095 . S
Mn468 O483 2.162 . S
Mn468 O484 2.297 . S
Mn468 O492 2.385 . S
Mn468 O493 2.209 . S
Mn468 O494 2.094 . S
Mn469 O474 2.121 . S
Mn469 N476 2.257 . S
Mn469 N485 2.282 . S
Mn469 O493 2.215 . S
Mn469 O495 2.117 . S
C470 O492 1.234 . S
C470 O493 1.283 . S
C471 O483 1.281 . S
C471 O484 1.236 . S
C472 O494 1.240 . S
C472 O495 1.264 . S
O473 Mn468 2.095 . S
O473 C482 1.250 . S
O474 Mn469 2.121 . S
O474 C482 1.258 . S
C475 N476 1.326 1_455 S
C475 C479 1.460 . S
C475 H481 0.929 1_455 S
N476 Mn469 2.257 . S
N476 C475 1.326 1_655 S
N476 C480 1.362 . S
C477 C478 1.258 . S
C477 C480 1.431 1_455 S
C477 C497 1.449 . S
C478 C477 1.258 . S
C478 C479 1.477 . S
C478 H498 0.931 . S
C479 C475 1.460 . S
C479 C478 1.477 . S
C479 H499 0.930 . S
C480 N476 1.362 . S
C480 C477 1.431 1_655 S
C480 C490 1.476 . S
H481 C475 0.929 1_655 S
C482 O473 1.250 . S
C482 O474 1.258 . S
O483 Mn468 2.162 . S
O483 C471 1.281 . S
O484 Mn468 2.297 . S
O484 C471 1.236 . S
N485 Mn469 2.282 . S
N485 C486 1.328 . S
N485 C490 1.318 . S
C486 N485 1.328 . S
C486 C487 1.457 . S
C486 H491 0.929 . S
C487 C486 1.457 . S
C487 C488 1.291 . S
C487 H500 0.931 . S
C488 C487 1.291 . S
C488 C489 1.373 . S
C488 H501 0.929 . S
C489 C488 1.373 . S
C489 C490 1.396 . S
C489 C496 1.403 1_655 S
C490 C480 1.476 . S
C490 N485 1.318 . S
C490 C489 1.396 . S
H491 C486 0.929 . S
O492 Mn468 2.385 . S
O492 C470 1.234 . S
O493 Mn468 2.209 . S
O493 Mn469 2.215 . S
O493 C470 1.283 . S
O494 Mn468 2.094 . S
O494 C472 1.240 . S
O495 Mn469 2.117 . S
O495 C472 1.264 . S
C496 C489 1.403 1_455 S
C496 C497 1.399 . S
C496 H502 0.929 . S
C497 C477 1.449 . S
C497 C496 1.399 . S
C497 H503 0.930 . S
H498 C478 0.931 . S
H499 C479 0.930 . S
H500 C487 0.931 . S
H501 C488 0.929 . S
H502 C496 0.929 . S
H503 C497 0.930 . S
Mn504 O509 2.095 . S
Mn504 O519 2.162 . S
Mn504 O520 2.297 . S
Mn504 O528 2.385 . S
Mn504 O529 2.209 . S
Mn504 O530 2.094 . S
Mn505 O510 2.121 . S
Mn505 N512 2.257 . S
Mn505 N521 2.282 . S
Mn505 O529 2.215 . S
Mn505 O531 2.117 . S
C506 O528 1.234 . S
C506 O529 1.283 . S
C507 O519 1.281 . S
C507 O520 1.236 . S
C508 O530 1.240 . S
C508 O531 1.264 . S
O509 Mn504 2.095 . S
O509 C518 1.250 . S
O510 Mn505 2.121 . S
O510 C518 1.258 . S
C511 N512 1.326 . S
C511 C515 1.460 . S
C511 H517 0.929 . S
N512 Mn505 2.257 . S
N512 C511 1.326 . S
N512 C516 1.362 . S
C513 C514 1.258 . S
C513 C516 1.431 . S
C513 C533 1.449 . S
C514 C513 1.258 . S
C514 C515 1.477 . S
C514 H534 0.931 . S
C515 C511 1.460 . S
C515 C514 1.477 . S
C515 H535 0.930 . S
C516 N512 1.362 . S
C516 C513 1.431 . S
C516 C526 1.476 . S
H517 C511 0.929 . S
C518 O509 1.250 . S
C518 O510 1.258 . S
O519 Mn504 2.162 . S
O519 C507 1.281 . S
O520 Mn504 2.297 . S
O520 C507 1.236 . S
N521 Mn505 2.282 . S
N521 C522 1.328 . S
N521 C526 1.318 . S
C522 N521 1.328 . S
C522 C523 1.457 . S
C522 H527 0.929 . S
C523 C522 1.457 . S
C523 C524 1.291 . S
C523 H536 0.931 . S
C524 C523 1.291 . S
C524 C525 1.373 . S
C524 H537 0.929 . S
C525 C524 1.373 . S
C525 C526 1.396 . S
C525 C532 1.403 . S
C526 C516 1.476 . S
C526 N521 1.318 . S
C526 C525 1.396 . S
H527 C522 0.929 . S
O528 Mn504 2.385 . S
O528 C506 1.234 . S
O529 Mn504 2.209 . S
O529 Mn505 2.215 . S
O529 C506 1.283 . S
O530 Mn504 2.094 . S
O530 C508 1.240 . S
O531 Mn505 2.117 . S
O531 C508 1.264 . S
C532 C525 1.403 . S
C532 C533 1.399 . S
C532 H538 0.929 . S
C533 C513 1.449 . S
C533 C532 1.399 . S
C533 H539 0.930 . S
H534 C514 0.931 . S
H535 C515 0.930 . S
H536 C523 0.931 . S
H537 C524 0.929 . S
H538 C532 0.929 . S
H539 C533 0.930 . S
Mn540 O545 2.095 . S
Mn540 O555 2.162 . S
Mn540 O556 2.297 . S
Mn540 O564 2.385 . S
Mn540 O565 2.209 . S
Mn540 O566 2.094 . S
Mn541 O546 2.121 . S
Mn541 N548 2.257 . S
Mn541 N557 2.282 . S
Mn541 O565 2.215 . S
Mn541 O567 2.117 . S
C542 O564 1.234 . S
C542 O565 1.283 . S
C543 O555 1.281 . S
C543 O556 1.236 . S
C544 O566 1.240 . S
C544 O567 1.264 . S
O545 Mn540 2.095 . S
O545 C554 1.250 . S
O546 Mn541 2.121 . S
O546 C554 1.258 . S
C547 N548 1.326 1_455 S
C547 C551 1.460 . S
C547 H553 0.924 1_455 S
N548 Mn541 2.257 . S
N548 C547 1.326 1_655 S
N548 C552 1.362 . S
C549 C550 1.258 . S
C549 C552 1.431 1_455 S
C549 C569 1.449 . S
C550 C549 1.258 . S
C550 C551 1.477 . S
C550 H570 0.931 . S
C551 C547 1.460 . S
C551 C550 1.477 . S
C551 H571 0.930 . S
C552 N548 1.362 . S
C552 C549 1.431 1_655 S
C552 C562 1.476 . S
H553 C547 0.924 1_655 S
C554 O545 1.250 . S
C554 O546 1.258 . S
O555 Mn540 2.162 . S
O555 C543 1.281 . S
O556 Mn540 2.297 . S
O556 C543 1.236 . S
N557 Mn541 2.282 . S
N557 C558 1.328 . S
N557 C562 1.318 . S
C558 N557 1.328 . S
C558 C559 1.457 . S
C558 H563 0.929 . S
C559 C558 1.457 . S
C559 C560 1.291 . S
C559 H572 0.931 . S
C560 C559 1.291 . S
C560 C561 1.373 . S
C560 H573 0.929 . S
C561 C560 1.373 . S
C561 C562 1.396 . S
C561 C568 1.403 1_655 S
C562 C552 1.476 . S
C562 N557 1.318 . S
C562 C561 1.396 . S
H563 C558 0.929 . S
O564 Mn540 2.385 . S
O564 C542 1.234 . S
O565 Mn540 2.209 . S
O565 Mn541 2.215 . S
O565 C542 1.283 . S
O566 Mn540 2.094 . S
O566 C544 1.240 . S
O567 Mn541 2.117 . S
O567 C544 1.264 . S
C568 C561 1.403 1_455 S
C568 C569 1.399 . S
C568 H574 0.929 . S
C569 C549 1.449 . S
C569 C568 1.399 . S
C569 H575 0.930 . S
H570 C550 0.931 . S
H571 C551 0.930 . S
H572 C559 0.931 . S
H573 C560 0.929 . S
H574 C568 0.929 . S
H575 C569 0.930 . S
Mn576 O581 2.095 . S
Mn576 O591 2.162 . S
Mn576 O592 2.297 . S
Mn576 O600 2.385 . S
Mn576 O601 2.209 . S
Mn576 O602 2.094 . S
Mn577 O582 2.121 . S
Mn577 N584 2.257 . S
Mn577 N593 2.282 . S
Mn577 O601 2.215 . S
Mn577 O603 2.117 . S
C578 O600 1.234 . S
C578 O601 1.283 . S
C579 O591 1.281 . S
C579 O592 1.236 . S
C580 O602 1.240 . S
C580 O603 1.264 . S
O581 Mn576 2.095 . S
O581 C590 1.250 . S
O582 Mn577 2.121 . S
O582 C590 1.258 . S
C583 N584 1.326 . S
C583 C587 1.460 . S
C583 H589 0.929 . S
N584 Mn577 2.257 . S
N584 C583 1.326 . S
N584 C588 1.362 . S
C585 C586 1.258 . S
C585 C588 1.431 . S
C585 C605 1.449 . S
C586 C585 1.258 . S
C586 C587 1.477 . S
C586 H606 0.931 . S
C587 C583 1.460 . S
C587 C586 1.477 . S
C587 H607 0.930 . S
C588 N584 1.362 . S
C588 C585 1.431 . S
C588 C598 1.476 . S
H589 C583 0.929 . S
C590 O581 1.250 . S
C590 O582 1.258 . S
O591 Mn576 2.162 . S
O591 C579 1.281 . S
O592 Mn576 2.297 . S
O592 C579 1.236 . S
N593 Mn577 2.282 . S
N593 C594 1.328 . S
N593 C598 1.318 . S
C594 N593 1.328 . S
C594 C595 1.457 . S
C594 H599 0.929 . S
C595 C594 1.457 . S
C595 C596 1.291 . S
C595 H608 0.931 . S
C596 C595 1.291 . S
C596 C597 1.373 . S
C596 H609 0.929 . S
C597 C596 1.373 . S
C597 C598 1.396 . S
C597 C604 1.403 . S
C598 C588 1.476 . S
C598 N593 1.318 . S
C598 C597 1.396 . S
H599 C594 0.929 . S
O600 Mn576 2.385 . S
O600 C578 1.234 . S
O601 Mn576 2.209 . S
O601 Mn577 2.215 . S
O601 C578 1.283 . S
O602 Mn576 2.094 . S
O602 C580 1.240 . S
O603 Mn577 2.117 . S
O603 C580 1.264 . S
C604 C597 1.403 . S
C604 C605 1.399 . S
C604 H610 0.929 . S
C605 C585 1.449 . S
C605 C604 1.399 . S
C605 H611 0.930 . S
H606 C586 0.931 . S
H607 C587 0.930 . S
H608 C595 0.931 . S
H609 C596 0.929 . S
H610 C604 0.929 . S
H611 C605 0.930 . S
Mn612 O617 2.095 . S
Mn612 O627 2.162 . S
Mn612 O628 2.297 . S
Mn612 O636 2.385 . S
Mn612 O637 2.209 . S
Mn612 O638 2.094 . S
Mn613 O618 2.121 . S
Mn613 N620 2.257 . S
Mn613 N629 2.282 . S
Mn613 O637 2.215 . S
Mn613 O639 2.117 . S
C614 O636 1.234 . S
C614 O637 1.283 . S
C615 O627 1.281 . S
C615 O628 1.236 . S
C616 O638 1.240 . S
C616 O639 1.264 . S
O617 Mn612 2.095 . S
O617 C626 1.250 . S
O618 Mn613 2.121 . S
O618 C626 1.258 . S
C619 N620 1.326 . S
C619 C623 1.460 . S
C619 H625 0.929 . S
N620 Mn613 2.257 . S
N620 C619 1.326 . S
N620 C624 1.362 . S
C621 C622 1.258 . S
C621 C624 1.431 . S
C621 C641 1.449 . S
C622 C621 1.258 . S
C622 C623 1.477 . S
C622 H642 0.931 . S
C623 C619 1.460 . S
C623 C622 1.477 . S
C623 H643 0.930 . S
C624 N620 1.362 . S
C624 C621 1.431 . S
C624 C634 1.476 . S
H625 C619 0.929 . S
C626 O617 1.250 . S
C626 O618 1.258 . S
O627 Mn612 2.162 . S
O627 C615 1.281 . S
O628 Mn612 2.297 . S
O628 C615 1.236 . S
N629 Mn613 2.282 . S
N629 C630 1.328 . S
N629 C634 1.318 . S
C630 N629 1.328 . S
C630 C631 1.457 . S
C630 H635 0.929 . S
C631 C630 1.457 . S
C631 C632 1.291 . S
C631 H644 0.931 . S
C632 C631 1.291 . S
C632 C633 1.373 . S
C632 H645 0.929 . S
C633 C632 1.373 . S
C633 C634 1.396 . S
C633 C640 1.403 . S
C634 C624 1.476 . S
C634 N629 1.318 . S
C634 C633 1.396 . S
H635 C630 0.929 . S
O636 Mn612 2.385 . S
O636 C614 1.234 . S
O637 Mn612 2.209 . S
O637 Mn613 2.215 . S
O637 C614 1.283 . S
O638 Mn612 2.094 . S
O638 C616 1.240 . S
O639 Mn613 2.117 . S
O639 C616 1.264 . S
C640 C633 1.403 . S
C640 C641 1.399 . S
C640 H646 0.929 . S
C641 C621 1.449 . S
C641 C640 1.399 . S
C641 H647 0.930 . S
H642 C622 0.931 . S
H643 C623 0.930 . S
H644 C631 0.931 . S
H645 C632 0.929 . S
H646 C640 0.929 . S
H647 C641 0.930 . S
Mn648 O653 2.095 . S
Mn648 O663 2.162 . S
Mn648 O664 2.297 . S
Mn648 O672 2.385 . S
Mn648 O673 2.209 . S
Mn648 O674 2.094 . S
Mn649 O654 2.121 . S
Mn649 N656 2.257 . S
Mn649 N665 2.282 . S
Mn649 O673 2.215 . S
Mn649 O675 2.117 . S
C650 O672 1.234 . S
C650 O673 1.283 . S
C651 O663 1.281 . S
C651 O664 1.236 . S
C652 O674 1.240 . S
C652 O675 1.264 . S
O653 Mn648 2.095 . S
O653 C662 1.250 . S
O654 Mn649 2.121 . S
O654 C662 1.258 . S
C655 N656 1.326 . S
C655 C659 1.460 . S
C655 H661 0.929 . S
N656 Mn649 2.257 . S
N656 C655 1.326 . S
N656 C660 1.362 . S
C657 C658 1.258 . S
C657 C660 1.431 . S
C657 C677 1.449 . S
C658 C657 1.258 . S
C658 C659 1.477 . S
C658 H678 0.931 . S
C659 C655 1.460 . S
C659 C658 1.477 . S
C659 H679 0.930 . S
C660 N656 1.362 . S
C660 C657 1.431 . S
C660 C670 1.476 . S
H661 C655 0.929 . S
C662 O653 1.250 . S
C662 O654 1.258 . S
O663 Mn648 2.162 . S
O663 C651 1.281 . S
O664 Mn648 2.297 . S
O664 C651 1.236 . S
N665 Mn649 2.282 . S
N665 C666 1.328 . S
N665 C670 1.318 . S
C666 N665 1.328 . S
C666 C667 1.457 . S
C666 H671 0.929 . S
C667 C666 1.457 . S
C667 C668 1.291 . S
C667 H680 0.931 . S
C668 C667 1.291 . S
C668 C669 1.373 . S
C668 H681 0.929 . S
C669 C668 1.373 . S
C669 C670 1.396 . S
C669 C676 1.403 . S
C670 C660 1.476 . S
C670 N665 1.318 . S
C670 C669 1.396 . S
H671 C666 0.929 . S
O672 Mn648 2.385 . S
O672 C650 1.234 . S
O673 Mn648 2.209 . S
O673 Mn649 2.215 . S
O673 C650 1.283 . S
O674 Mn648 2.094 . S
O674 C652 1.240 . S
O675 Mn649 2.117 . S
O675 C652 1.264 . S
C676 C669 1.403 . S
C676 C677 1.399 . S
C676 H682 0.929 . S
C677 C657 1.449 . S
C677 C676 1.399 . S
C677 H683 0.930 . S
H678 C658 0.931 . S
H679 C659 0.930 . S
H680 C667 0.931 . S
H681 C668 0.929 . S
H682 C676 0.929 . S
H683 C677 0.930 . S
Mn684 O689 2.095 . S
Mn684 O699 2.162 . S
Mn684 O700 2.297 . S
Mn684 O708 2.385 . S
Mn684 O709 2.209 . S
Mn684 O710 2.094 . S
Mn685 O690 2.121 . S
Mn685 N692 2.257 . S
Mn685 N701 2.282 . S
Mn685 O709 2.215 . S
Mn685 O711 2.117 . S
C686 O708 1.234 . S
C686 O709 1.283 . S
C687 O699 1.281 . S
C687 O700 1.236 . S
C688 O710 1.240 . S
C688 O711 1.264 . S
O689 Mn684 2.095 . S
O689 C698 1.250 . S
O690 Mn685 2.121 . S
O690 C698 1.258 . S
C691 N692 1.326 . S
C691 C695 1.460 . S
C691 H697 0.929 . S
N692 Mn685 2.257 . S
N692 C691 1.326 . S
N692 C696 1.362 . S
C693 C694 1.258 . S
C693 C696 1.431 . S
C693 C713 1.449 . S
C694 C693 1.258 . S
C694 C695 1.477 . S
C694 H714 0.931 . S
C695 C691 1.460 . S
C695 C694 1.477 . S
C695 H715 0.930 . S
C696 N692 1.362 . S
C696 C693 1.431 . S
C696 C706 1.476 . S
H697 C691 0.929 . S
C698 O689 1.250 . S
C698 O690 1.258 . S
O699 Mn684 2.162 . S
O699 C687 1.281 . S
O700 Mn684 2.297 . S
O700 C687 1.236 . S
N701 Mn685 2.282 . S
N701 C702 1.328 . S
N701 C706 1.318 . S
C702 N701 1.328 . S
C702 C703 1.457 . S
C702 H707 0.929 . S
C703 C702 1.457 . S
C703 C704 1.291 . S
C703 H716 0.931 . S
C704 C703 1.291 . S
C704 C705 1.373 . S
C704 H717 0.929 . S
C705 C704 1.373 . S
C705 C706 1.396 . S
C705 C712 1.403 . S
C706 C696 1.476 . S
C706 N701 1.318 . S
C706 C705 1.396 . S
H707 C702 0.929 . S
O708 Mn684 2.385 . S
O708 C686 1.234 . S
O709 Mn684 2.209 . S
O709 Mn685 2.215 . S
O709 C686 1.283 . S
O710 Mn684 2.094 . S
O710 C688 1.240 . S
O711 Mn685 2.117 . S
O711 C688 1.264 . S
C712 C705 1.403 . S
C712 C713 1.399 . S
C712 H718 0.929 . S
C713 C693 1.449 . S
C713 C712 1.399 . S
C713 H719 0.930 . S
H714 C694 0.931 . S
H715 C695 0.930 . S
H716 C703 0.931 . S
H717 C704 0.929 . S
H718 C712 0.929 . S
H719 C713 0.930 . S
Mn720 O725 2.095 . S
Mn720 O735 2.162 . S
Mn720 O736 2.297 . S
Mn720 O744 2.385 . S
Mn720 O745 2.209 . S
Mn720 O746 2.094 . S
Mn721 O726 2.121 . S
Mn721 N728 2.257 . S
Mn721 N737 2.282 . S
Mn721 O745 2.215 . S
Mn721 O747 2.117 . S
C722 O744 1.234 . S
C722 O745 1.283 . S
C723 O735 1.281 . S
C723 O736 1.236 . S
C724 O746 1.240 . S
C724 O747 1.264 . S
O725 Mn720 2.095 . S
O725 C734 1.250 . S
O726 Mn721 2.121 . S
O726 C734 1.258 . S
C727 N728 1.326 . S
C727 C731 1.460 . S
C727 H733 0.929 . S
N728 Mn721 2.257 . S
N728 C727 1.326 . S
N728 C732 1.362 . S
C729 C730 1.258 . S
C729 C732 1.431 . S
C729 C749 1.449 . S
C730 C729 1.258 . S
C730 C731 1.477 . S
C730 H750 0.931 . S
C731 C727 1.460 . S
C731 C730 1.477 . S
C731 H751 0.930 . S
C732 N728 1.362 . S
C732 C729 1.431 . S
C732 C742 1.476 . S
H733 C727 0.929 . S
C734 O725 1.250 . S
C734 O726 1.258 . S
O735 Mn720 2.162 . S
O735 C723 1.281 . S
O736 Mn720 2.297 . S
O736 C723 1.236 . S
N737 Mn721 2.282 . S
N737 C738 1.328 . S
N737 C742 1.318 . S
C738 N737 1.328 . S
C738 C739 1.457 . S
C738 H743 0.929 . S
C739 C738 1.457 . S
C739 C740 1.291 . S
C739 H752 0.931 . S
C740 C739 1.291 . S
C740 C741 1.373 . S
C740 H753 0.929 . S
C741 C740 1.373 . S
C741 C742 1.396 . S
C741 C748 1.403 . S
C742 C732 1.476 . S
C742 N737 1.318 . S
C742 C741 1.396 . S
H743 C738 0.929 . S
O744 Mn720 2.385 . S
O744 C722 1.234 . S
O745 Mn720 2.209 . S
O745 Mn721 2.215 . S
O745 C722 1.283 . S
O746 Mn720 2.094 . S
O746 C724 1.240 . S
O747 Mn721 2.117 . S
O747 C724 1.264 . S
C748 C741 1.403 . S
C748 C749 1.399 . S
C748 H754 0.929 . S
C749 C729 1.449 . S
C749 C748 1.399 . S
C749 H755 0.930 . S
H750 C730 0.931 . S
H751 C731 0.930 . S
H752 C739 0.931 . S
H753 C740 0.929 . S
H754 C748 0.929 . S
H755 C749 0.930 . S
Mn756 O761 2.095 . S
Mn756 O771 2.162 . S
Mn756 O772 2.297 . S
Mn756 O780 2.385 . S
Mn756 O781 2.209 . S
Mn756 O782 2.094 . S
Mn757 O762 2.121 . S
Mn757 N764 2.257 . S
Mn757 N773 2.282 . S
Mn757 O781 2.215 . S
Mn757 O783 2.117 . S
C758 O780 1.234 . S
C758 O781 1.283 . S
C759 O771 1.281 . S
C759 O772 1.236 . S
C760 O782 1.240 . S
C760 O783 1.264 . S
O761 Mn756 2.095 . S
O761 C770 1.250 . S
O762 Mn757 2.121 . S
O762 C770 1.258 . S
C763 N764 1.326 . S
C763 C767 1.460 . S
C763 H769 0.929 . S
N764 Mn757 2.257 . S
N764 C763 1.326 . S
N764 C768 1.362 . S
C765 C766 1.258 . S
C765 C768 1.431 . S
C765 C785 1.449 . S
C766 C765 1.258 . S
C766 C767 1.477 . S
C766 H786 0.931 . S
C767 C763 1.460 . S
C767 C766 1.477 . S
C767 H787 0.930 . S
C768 N764 1.362 . S
C768 C765 1.431 . S
C768 C778 1.476 . S
H769 C763 0.929 . S
C770 O761 1.250 . S
C770 O762 1.258 . S
O771 Mn756 2.162 . S
O771 C759 1.281 . S
O772 Mn756 2.297 . S
O772 C759 1.236 . S
N773 Mn757 2.282 . S
N773 C774 1.328 . S
N773 C778 1.318 . S
C774 N773 1.328 . S
C774 C775 1.457 . S
C774 H779 0.929 . S
C775 C774 1.457 . S
C775 C776 1.291 . S
C775 H788 0.931 . S
C776 C775 1.291 . S
C776 C777 1.373 . S
C776 H789 0.929 . S
C777 C776 1.373 . S
C777 C778 1.396 . S
C777 C784 1.403 . S
C778 C768 1.476 . S
C778 N773 1.318 . S
C778 C777 1.396 . S
H779 C774 0.929 . S
O780 Mn756 2.385 . S
O780 C758 1.234 . S
O781 Mn756 2.209 . S
O781 Mn757 2.215 . S
O781 C758 1.283 . S
O782 Mn756 2.094 . S
O782 C760 1.240 . S
O783 Mn757 2.117 . S
O783 C760 1.264 . S
C784 C777 1.403 . S
C784 C785 1.399 . S
C784 H790 0.929 . S
C785 C765 1.449 . S
C785 C784 1.399 . S
C785 H791 0.930 . S
H786 C766 0.931 . S
H787 C767 0.930 . S
H788 C775 0.931 . S
H789 C776 0.929 . S
H790 C784 0.929 . S
H791 C785 0.930 . S
Mn792 O797 2.095 . S
Mn792 O807 2.162 . S
Mn792 O808 2.297 . S
Mn792 O816 2.385 . S
Mn792 O817 2.209 . S
Mn792 O818 2.094 . S
Mn793 O798 2.121 . S
Mn793 N800 2.257 . S
Mn793 N809 2.282 . S
Mn793 O817 2.215 . S
Mn793 O819 2.117 . S
C794 O816 1.234 . S
C794 O817 1.283 . S
C795 O807 1.281 . S
C795 O808 1.236 . S
C796 O818 1.240 . S
C796 O819 1.264 . S
O797 Mn792 2.095 . S
O797 C806 1.250 . S
O798 Mn793 2.121 . S
O798 C806 1.258 . S
C799 N800 1.326 . S
C799 C803 1.460 . S
C799 H805 0.929 . S
N800 Mn793 2.257 . S
N800 C799 1.326 . S
N800 C804 1.362 . S
C801 C802 1.258 . S
C801 C804 1.431 . S
C801 C821 1.449 . S
C802 C801 1.258 . S
C802 C803 1.477 . S
C802 H822 0.931 . S
C803 C799 1.460 . S
C803 C802 1.477 . S
C803 H823 0.930 . S
C804 N800 1.362 . S
C804 C801 1.431 . S
C804 C814 1.476 . S
H805 C799 0.929 . S
C806 O797 1.250 . S
C806 O798 1.258 . S
O807 Mn792 2.162 . S
O807 C795 1.281 . S
O808 Mn792 2.297 . S
O808 C795 1.236 . S
N809 Mn793 2.282 . S
N809 C810 1.328 . S
N809 C814 1.318 . S
C810 N809 1.328 . S
C810 C811 1.457 . S
C810 H815 0.929 . S
C811 C810 1.457 . S
C811 C812 1.291 . S
C811 H824 0.931 . S
C812 C811 1.291 . S
C812 C813 1.373 . S
C812 H825 0.929 . S
C813 C812 1.373 . S
C813 C814 1.396 . S
C813 C820 1.403 . S
C814 C804 1.476 . S
C814 N809 1.318 . S
C814 C813 1.396 . S
H815 C810 0.929 . S
O816 Mn792 2.385 . S
O816 C794 1.234 . S
O817 Mn792 2.209 . S
O817 Mn793 2.215 . S
O817 C794 1.283 . S
O818 Mn792 2.094 . S
O818 C796 1.240 . S
O819 Mn793 2.117 . S
O819 C796 1.264 . S
C820 C813 1.403 . S
C820 C821 1.399 . S
C820 H826 0.929 . S
C821 C801 1.449 . S
C821 C820 1.399 . S
C821 H827 0.930 . S
H822 C802 0.931 . S
H823 C803 0.930 . S
H824 C811 0.931 . S
H825 C812 0.929 . S
H826 C820 0.929 . S
H827 C821 0.930 . S
Mn828 O833 2.095 . S
Mn828 O843 2.162 . S
Mn828 O844 2.297 . S
Mn828 O852 2.385 . S
Mn828 O853 2.209 . S
Mn828 O854 2.094 . S
Mn829 O834 2.121 . S
Mn829 N836 2.257 . S
Mn829 N845 2.282 . S
Mn829 O853 2.215 . S
Mn829 O855 2.117 . S
C830 O852 1.234 . S
C830 O853 1.283 . S
C831 O843 1.281 . S
C831 O844 1.236 . S
C832 O854 1.240 . S
C832 O855 1.264 . S
O833 Mn828 2.095 . S
O833 C842 1.250 . S
O834 Mn829 2.121 . S
O834 C842 1.258 . S
C835 N836 1.326 . S
C835 C839 1.460 . S
C835 H841 0.929 . S
N836 Mn829 2.257 . S
N836 C835 1.326 . S
N836 C840 1.362 . S
C837 C838 1.258 . S
C837 C840 1.431 . S
C837 C857 1.449 . S
C838 C837 1.258 . S
C838 C839 1.477 . S
C838 H858 0.931 . S
C839 C835 1.460 . S
C839 C838 1.477 . S
C839 H859 0.930 . S
C840 N836 1.362 . S
C840 C837 1.431 . S
C840 C850 1.476 . S
H841 C835 0.929 . S
C842 O833 1.250 . S
C842 O834 1.258 . S
O843 Mn828 2.162 . S
O843 C831 1.281 . S
O844 Mn828 2.297 . S
O844 C831 1.236 . S
N845 Mn829 2.282 . S
N845 C846 1.328 . S
N845 C850 1.318 . S
C846 N845 1.328 . S
C846 C847 1.457 . S
C846 H851 0.929 . S
C847 C846 1.457 . S
C847 C848 1.291 . S
C847 H860 0.931 . S
C848 C847 1.291 . S
C848 C849 1.373 . S
C848 H861 0.929 . S
C849 C848 1.373 . S
C849 C850 1.396 . S
C849 C856 1.403 . S
C850 C840 1.476 . S
C850 N845 1.318 . S
C850 C849 1.396 . S
H851 C846 0.929 . S
O852 Mn828 2.385 . S
O852 C830 1.234 . S
O853 Mn828 2.209 . S
O853 Mn829 2.215 . S
O853 C830 1.283 . S
O854 Mn828 2.094 . S
O854 C832 1.240 . S
O855 Mn829 2.117 . S
O855 C832 1.264 . S
C856 C849 1.403 . S
C856 C857 1.399 . S
C856 H862 0.929 . S
C857 C837 1.449 . S
C857 C856 1.399 . S
C857 H863 0.930 . S
H858 C838 0.931 . S
H859 C839 0.930 . S
H860 C847 0.931 . S
H861 C848 0.929 . S
H862 C856 0.929 . S
H863 C857 0.930 . S
Mn864 O869 2.095 . S
Mn864 O879 2.162 . S
Mn864 O880 2.297 . S
Mn864 O888 2.385 . S
Mn864 O889 2.209 . S
Mn864 O890 2.094 . S
Mn865 O870 2.121 . S
Mn865 N872 2.257 . S
Mn865 N881 2.282 . S
Mn865 O889 2.215 . S
Mn865 O891 2.117 . S
C866 O888 1.234 . S
C866 O889 1.283 . S
C867 O879 1.281 . S
C867 O880 1.236 . S
C868 O890 1.240 . S
C868 O891 1.264 . S
O869 Mn864 2.095 . S
O869 C878 1.250 . S
O870 Mn865 2.121 . S
O870 C878 1.258 . S
C871 N872 1.326 . S
C871 C875 1.460 . S
C871 H877 0.929 . S
N872 Mn865 2.257 . S
N872 C871 1.326 . S
N872 C876 1.362 . S
C873 C874 1.258 . S
C873 C876 1.431 . S
C873 C893 1.449 . S
C874 C873 1.258 . S
C874 C875 1.477 . S
C874 H894 0.931 . S
C875 C871 1.460 . S
C875 C874 1.477 . S
C875 H895 0.930 . S
C876 N872 1.362 . S
C876 C873 1.431 . S
C876 C886 1.476 . S
H877 C871 0.929 . S
C878 O869 1.250 . S
C878 O870 1.258 . S
O879 Mn864 2.162 . S
O879 C867 1.281 . S
O880 Mn864 2.297 . S
O880 C867 1.236 . S
N881 Mn865 2.282 . S
N881 C882 1.328 . S
N881 C886 1.318 . S
C882 N881 1.328 . S
C882 C883 1.457 . S
C882 H887 0.929 . S
C883 C882 1.457 . S
C883 C884 1.291 . S
C883 H896 0.931 . S
C884 C883 1.291 . S
C884 C885 1.373 . S
C884 H897 0.929 . S
C885 C884 1.373 . S
C885 C886 1.396 . S
C885 C892 1.403 . S
C886 C876 1.476 . S
C886 N881 1.318 . S
C886 C885 1.396 . S
H887 C882 0.929 . S
O888 Mn864 2.385 . S
O888 C866 1.234 . S
O889 Mn864 2.209 . S
O889 Mn865 2.215 . S
O889 C866 1.283 . S
O890 Mn864 2.094 . S
O890 C868 1.240 . S
O891 Mn865 2.117 . S
O891 C868 1.264 . S
C892 C885 1.403 . S
C892 C893 1.399 . S
C892 H898 0.929 . S
C893 C873 1.449 . S
C893 C892 1.399 . S
C893 H899 0.930 . S
H894 C874 0.931 . S
H895 C875 0.930 . S
H896 C883 0.931 . S
H897 C884 0.929 . S
H898 C892 0.929 . S
H899 C893 0.930 . S
Mn900 O905 2.095 . S
Mn900 O915 2.162 . S
Mn900 O916 2.297 . S
Mn900 O924 2.385 . S
Mn900 O925 2.209 . S
Mn900 O926 2.094 . S
Mn901 O906 2.121 . S
Mn901 N908 2.257 . S
Mn901 N917 2.282 . S
Mn901 O925 2.215 . S
Mn901 O927 2.117 . S
C902 O924 1.234 . S
C902 O925 1.283 . S
C903 O915 1.281 . S
C903 O916 1.236 . S
C904 O926 1.240 . S
C904 O927 1.264 . S
O905 Mn900 2.095 . S
O905 C914 1.250 . S
O906 Mn901 2.121 . S
O906 C914 1.258 . S
C907 N908 1.326 . S
C907 C911 1.460 . S
C907 H913 0.929 . S
N908 Mn901 2.257 . S
N908 C907 1.326 . S
N908 C912 1.362 . S
C909 C910 1.258 . S
C909 C912 1.431 . S
C909 C929 1.449 . S
C910 C909 1.258 . S
C910 C911 1.477 . S
C910 H930 0.931 . S
C911 C907 1.460 . S
C911 C910 1.477 . S
C911 H931 0.930 . S
C912 N908 1.362 . S
C912 C909 1.431 . S
C912 C922 1.476 . S
H913 C907 0.929 . S
C914 O905 1.250 . S
C914 O906 1.258 . S
O915 Mn900 2.162 . S
O915 C903 1.281 . S
O916 Mn900 2.297 . S
O916 C903 1.236 . S
N917 Mn901 2.282 . S
N917 C918 1.328 . S
N917 C922 1.318 . S
C918 N917 1.328 . S
C918 C919 1.457 . S
C918 H923 0.929 . S
C919 C918 1.457 . S
C919 C920 1.291 . S
C919 H932 0.931 . S
C920 C919 1.291 . S
C920 C921 1.373 . S
C920 H933 0.929 . S
C921 C920 1.373 . S
C921 C922 1.396 . S
C921 C928 1.403 . S
C922 C912 1.476 . S
C922 N917 1.318 . S
C922 C921 1.396 . S
H923 C918 0.929 . S
O924 Mn900 2.385 . S
O924 C902 1.234 . S
O925 Mn900 2.209 . S
O925 Mn901 2.215 . S
O925 C902 1.283 . S
O926 Mn900 2.094 . S
O926 C904 1.240 . S
O927 Mn901 2.117 . S
O927 C904 1.264 . S
C928 C921 1.403 . S
C928 C929 1.399 . S
C928 H934 0.929 . S
C929 C909 1.449 . S
C929 C928 1.399 . S
C929 H935 0.930 . S
H930 C910 0.931 . S
H931 C911 0.930 . S
H932 C919 0.931 . S
H933 C920 0.929 . S
H934 C928 0.929 . S
H935 C929 0.930 . S
Mn936 O941 2.095 . S
Mn936 O951 2.162 . S
Mn936 O952 2.297 . S
Mn936 O960 2.385 1_556 S
Mn936 O961 2.209 1_556 S
Mn936 O962 2.094 . S
Mn937 O942 2.121 1_554 S
Mn937 N944 2.257 . S
Mn937 N953 2.282 . S
Mn937 O961 2.215 . S
Mn937 O963 2.117 . S
C938 O960 1.234 . S
C938 O961 1.283 . S
C939 O951 1.281 . S
C939 O952 1.236 . S
C940 O962 1.240 . S
C940 O963 1.264 1_556 S
O941 Mn936 2.095 . S
O941 C950 1.250 . S
O942 Mn937 2.121 1_556 S
O942 C950 1.258 . S
C943 N944 1.326 . S
C943 C947 1.460 . S
C943 H949 0.929 . S
N944 Mn937 2.257 . S
N944 C943 1.326 . S
N944 C948 1.362 . S
C945 C946 1.258 . S
C945 C948 1.431 . S
C945 C965 1.449 . S
C946 C945 1.258 . S
C946 C947 1.477 . S
C946 H966 0.931 . S
C947 C943 1.460 . S
C947 C946 1.477 . S
C947 H967 0.930 . S
C948 N944 1.362 . S
C948 C945 1.431 . S
C948 C958 1.476 . S
H949 C943 0.929 . S
C950 O941 1.250 . S
C950 O942 1.258 . S
O951 Mn936 2.162 . S
O951 C939 1.281 . S
O952 Mn936 2.297 . S
O952 C939 1.236 . S
N953 Mn937 2.282 . S
N953 C954 1.328 . S
N953 C958 1.318 . S
C954 N953 1.328 . S
C954 C955 1.457 . S
C954 H959 0.929 . S
C955 C954 1.457 . S
C955 C956 1.291 . S
C955 H968 0.931 . S
C956 C955 1.291 . S
C956 C957 1.373 . S
C956 H969 0.929 . S
C957 C956 1.373 . S
C957 C958 1.396 . S
C957 C964 1.403 . S
C958 C948 1.476 . S
C958 N953 1.318 . S
C958 C957 1.396 . S
H959 C954 0.929 . S
O960 Mn936 2.385 1_554 S
O960 C938 1.234 . S
O961 Mn936 2.209 1_554 S
O961 Mn937 2.215 . S
O961 C938 1.283 . S
O962 Mn936 2.094 . S
O962 C940 1.240 . S
O963 Mn937 2.117 . S
O963 C940 1.264 1_554 S
C964 C957 1.403 . S
C964 C965 1.399 . S
C964 H970 0.929 . S
C965 C945 1.449 . S
C965 C964 1.399 . S
C965 H971 0.930 . S
H966 C946 0.931 . S
H967 C947 0.930 . S
H968 C955 0.931 . S
H969 C956 0.929 . S
H970 C964 0.929 . S
H971 C965 0.930 . S
Mn972 O977 2.095 . S
Mn972 O987 2.162 . S
Mn972 O988 2.297 . S
Mn972 O996 2.385 1_556 S
Mn972 O997 2.209 1_556 S
Mn972 O998 2.094 . S
Mn973 O978 2.121 1_554 S
Mn973 N980 2.257 . S
Mn973 N989 2.282 . S
Mn973 O997 2.215 . S
Mn973 O999 2.117 . S
C974 O996 1.234 . S
C974 O997 1.283 . S
C975 O987 1.281 . S
C975 O988 1.236 . S
C976 O998 1.240 . S
C976 O999 1.264 1_556 S
O977 Mn972 2.095 . S
O977 C986 1.250 . S
O978 Mn973 2.121 1_556 S
O978 C986 1.258 . S
C979 N980 1.326 . S
C979 C983 1.460 . S
C979 H985 0.929 . S
N980 Mn973 2.257 . S
N980 C979 1.326 . S
N980 C984 1.362 . S
C981 C982 1.258 . S
C981 C984 1.431 . S
C981 C1001 1.449 . S
C982 C981 1.258 . S
C982 C983 1.477 . S
C982 H1002 0.931 . S
C983 C979 1.460 . S
C983 C982 1.477 . S
C983 H1003 0.930 . S
C984 N980 1.362 . S
C984 C981 1.431 . S
C984 C994 1.476 . S
H985 C979 0.929 . S
C986 O977 1.250 . S
C986 O978 1.258 . S
O987 Mn972 2.162 . S
O987 C975 1.281 . S
O988 Mn972 2.297 . S
O988 C975 1.236 . S
N989 Mn973 2.282 . S
N989 C990 1.328 . S
N989 C994 1.318 . S
C990 N989 1.328 . S
C990 C991 1.457 . S
C990 H995 0.929 . S
C991 C990 1.457 . S
C991 C992 1.291 . S
C991 H1004 0.931 . S
C992 C991 1.291 . S
C992 C993 1.373 . S
C992 H1005 0.929 . S
C993 C992 1.373 . S
C993 C994 1.396 . S
C993 C1000 1.403 . S
C994 C984 1.476 . S
C994 N989 1.318 . S
C994 C993 1.396 . S
H995 C990 0.929 . S
O996 Mn972 2.385 1_554 S
O996 C974 1.234 . S
O997 Mn972 2.209 1_554 S
O997 Mn973 2.215 . S
O997 C974 1.283 . S
O998 Mn972 2.094 . S
O998 C976 1.240 . S
O999 Mn973 2.117 . S
O999 C976 1.264 1_554 S
C1000 C993 1.403 . S
C1000 C1001 1.399 . S
C1000 H1006 0.929 . S
C1001 C981 1.449 . S
C1001 C1000 1.399 . S
C1001 H1007 0.930 . S
H1002 C982 0.931 . S
H1003 C983 0.930 . S
H1004 C991 0.931 . S
H1005 C992 0.929 . S
H1006 C1000 0.929 . S
H1007 C1001 0.930 . S
Mn1008 O1013 2.095 . S
Mn1008 O1023 2.162 . S
Mn1008 O1024 2.297 . S
Mn1008 O1032 2.385 . S
Mn1008 O1033 2.209 . S
Mn1008 O1034 2.094 . S
Mn1009 O1014 2.121 . S
Mn1009 N1016 2.257 . S
Mn1009 N1025 2.282 . S
Mn1009 O1033 2.215 . S
Mn1009 O1035 2.117 . S
C1010 O1032 1.234 . S
C1010 O1033 1.283 . S
C1011 O1023 1.281 . S
C1011 O1024 1.236 . S
C1012 O1034 1.240 . S
C1012 O1035 1.264 . S
O1013 Mn1008 2.095 . S
O1013 C1022 1.250 . S
O1014 Mn1009 2.121 . S
O1014 C1022 1.258 . S
C1015 N1016 1.326 . S
C1015 C1019 1.460 . S
C1015 H1021 0.929 . S
N1016 Mn1009 2.257 . S
N1016 C1015 1.326 . S
N1016 C1020 1.362 . S
C1017 C1018 1.258 . S
C1017 C1020 1.431 . S
C1017 C1037 1.449 . S
C1018 C1017 1.258 . S
C1018 C1019 1.477 . S
C1018 H1038 0.931 . S
C1019 C1015 1.460 . S
C1019 C1018 1.477 . S
C1019 H1039 0.930 . S
C1020 N1016 1.362 . S
C1020 C1017 1.431 . S
C1020 C1030 1.476 . S
H1021 C1015 0.929 . S
C1022 O1013 1.250 . S
C1022 O1014 1.258 . S
O1023 Mn1008 2.162 . S
O1023 C1011 1.281 . S
O1024 Mn1008 2.297 . S
O1024 C1011 1.236 . S
N1025 Mn1009 2.282 . S
N1025 C1026 1.328 . S
N1025 C1030 1.318 . S
C1026 N1025 1.328 . S
C1026 C1027 1.457 . S
C1026 H1031 0.929 . S
C1027 C1026 1.457 . S
C1027 C1028 1.291 . S
C1027 H1040 0.931 . S
C1028 C1027 1.291 . S
C1028 C1029 1.373 . S
C1028 H1041 0.929 . S
C1029 C1028 1.373 . S
C1029 C1030 1.396 . S
C1029 C1036 1.403 . S
C1030 C1020 1.476 . S
C1030 N1025 1.318 . S
C1030 C1029 1.396 . S
H1031 C1026 0.929 . S
O1032 Mn1008 2.385 . S
O1032 C1010 1.234 . S
O1033 Mn1008 2.209 . S
O1033 Mn1009 2.215 . S
O1033 C1010 1.283 . S
O1034 Mn1008 2.094 . S
O1034 C1012 1.240 . S
O1035 Mn1009 2.117 . S
O1035 C1012 1.264 . S
C1036 C1029 1.403 . S
C1036 C1037 1.399 . S
C1036 H1042 0.929 . S
C1037 C1017 1.449 . S
C1037 C1036 1.399 . S
C1037 H1043 0.930 . S
H1038 C1018 0.931 . S
H1039 C1019 0.930 . S
H1040 C1027 0.931 . S
H1041 C1028 0.929 . S
H1042 C1036 0.929 . S
H1043 C1037 0.930 . S
Mn1044 O1049 2.095 . S
Mn1044 O1059 2.162 . S
Mn1044 O1060 2.297 . S
Mn1044 O1068 2.385 . S
Mn1044 O1069 2.209 . S
Mn1044 O1070 2.094 . S
Mn1045 O1050 2.121 . S
Mn1045 N1052 2.257 . S
Mn1045 N1061 2.282 . S
Mn1045 O1069 2.215 . S
Mn1045 O1071 2.117 . S
C1046 O1068 1.234 . S
C1046 O1069 1.283 . S
C1047 O1059 1.281 . S
C1047 O1060 1.236 . S
C1048 O1070 1.240 . S
C1048 O1071 1.264 . S
O1049 Mn1044 2.095 . S
O1049 C1058 1.250 . S
O1050 Mn1045 2.121 . S
O1050 C1058 1.258 . S
C1051 N1052 1.326 . S
C1051 C1055 1.460 . S
C1051 H1057 0.929 . S
N1052 Mn1045 2.257 . S
N1052 C1051 1.326 . S
N1052 C1056 1.362 . S
C1053 C1054 1.258 . S
C1053 C1056 1.431 . S
C1053 C1073 1.449 . S
C1054 C1053 1.258 . S
C1054 C1055 1.477 . S
C1054 H1074 0.931 . S
C1055 C1051 1.460 . S
C1055 C1054 1.477 . S
C1055 H1075 0.930 . S
C1056 N1052 1.362 . S
C1056 C1053 1.431 . S
C1056 C1066 1.476 . S
H1057 C1051 0.929 . S
C1058 O1049 1.250 . S
C1058 O1050 1.258 . S
O1059 Mn1044 2.162 . S
O1059 C1047 1.281 . S
O1060 Mn1044 2.297 . S
O1060 C1047 1.236 . S
N1061 Mn1045 2.282 . S
N1061 C1062 1.328 . S
N1061 C1066 1.318 . S
C1062 N1061 1.328 . S
C1062 C1063 1.457 . S
C1062 H1067 0.929 . S
C1063 C1062 1.457 . S
C1063 C1064 1.291 . S
C1063 H1076 0.931 . S
C1064 C1063 1.291 . S
C1064 C1065 1.373 . S
C1064 H1077 0.929 . S
C1065 C1064 1.373 . S
C1065 C1066 1.396 . S
C1065 C1072 1.403 . S
C1066 C1056 1.476 . S
C1066 N1061 1.318 . S
C1066 C1065 1.396 . S
H1067 C1062 0.929 . S
O1068 Mn1044 2.385 . S
O1068 C1046 1.234 . S
O1069 Mn1044 2.209 . S
O1069 Mn1045 2.215 . S
O1069 C1046 1.283 . S
O1070 Mn1044 2.094 . S
O1070 C1048 1.240 . S
O1071 Mn1045 2.117 . S
O1071 C1048 1.264 . S
C1072 C1065 1.403 . S
C1072 C1073 1.399 . S
C1072 H1078 0.929 . S
C1073 C1053 1.449 . S
C1073 C1072 1.399 . S
C1073 H1079 0.930 . S
H1074 C1054 0.931 . S
H1075 C1055 0.930 . S
H1076 C1063 0.931 . S
H1077 C1064 0.929 . S
H1078 C1072 0.929 . S
H1079 C1073 0.930 . S
Mn1080 O1085 2.095 . S
Mn1080 O1095 2.162 1_554 S
Mn1080 O1096 2.297 1_554 S
Mn1080 O1104 2.385 . S
Mn1080 O1105 2.209 . S
Mn1080 O1106 2.094 . S
Mn1081 O1086 2.121 . S
Mn1081 N1088 2.257 . S
Mn1081 N1097 2.282 . S
Mn1081 O1105 2.215 . S
Mn1081 O1107 2.117 . S
C1082 O1104 1.234 . S
C1082 O1105 1.283 . S
C1083 O1095 1.281 . S
C1083 O1096 1.236 . S
C1084 O1106 1.240 . S
C1084 O1107 1.264 . S
O1085 Mn1080 2.095 . S
O1085 C1094 1.250 . S
O1086 Mn1081 2.121 . S
O1086 C1094 1.258 . S
C1087 N1088 1.326 . S
C1087 C1091 1.460 . S
C1087 H1093 0.929 . S
N1088 Mn1081 2.257 . S
N1088 C1087 1.326 . S
N1088 C1092 1.362 . S
C1089 C1090 1.258 . S
C1089 C1092 1.431 . S
C1089 C1109 1.449 . S
C1090 C1089 1.258 . S
C1090 C1091 1.477 . S
C1090 H1110 0.931 . S
C1091 C1087 1.460 . S
C1091 C1090 1.477 . S
C1091 H1111 0.930 . S
C1092 N1088 1.362 . S
C1092 C1089 1.431 . S
C1092 C1102 1.476 . S
H1093 C1087 0.929 . S
C1094 O1085 1.250 . S
C1094 O1086 1.258 . S
O1095 Mn1080 2.162 1_556 S
O1095 C1083 1.281 . S
O1096 Mn1080 2.297 1_556 S
O1096 C1083 1.236 . S
N1097 Mn1081 2.282 . S
N1097 C1098 1.328 . S
N1097 C1102 1.318 . S
C1098 N1097 1.328 . S
C1098 C1099 1.457 . S
C1098 H1103 0.929 . S
C1099 C1098 1.457 . S
C1099 C1100 1.291 . S
C1099 H1112 0.931 . S
C1100 C1099 1.291 . S
C1100 C1101 1.373 . S
C1100 H1113 0.929 . S
C1101 C1100 1.373 . S
C1101 C1102 1.396 . S
C1101 C1108 1.403 . S
C1102 C1092 1.476 . S
C1102 N1097 1.318 . S
C1102 C1101 1.396 . S
H1103 C1098 0.929 . S
O1104 Mn1080 2.385 . S
O1104 C1082 1.234 . S
O1105 Mn1080 2.209 . S
O1105 Mn1081 2.215 . S
O1105 C1082 1.283 . S
O1106 Mn1080 2.094 . S
O1106 C1084 1.240 . S
O1107 Mn1081 2.117 . S
O1107 C1084 1.264 . S
C1108 C1101 1.403 . S
C1108 C1109 1.399 . S
C1108 H1114 0.929 . S
C1109 C1089 1.449 . S
C1109 C1108 1.399 . S
C1109 H1115 0.930 . S
H1110 C1090 0.931 . S
H1111 C1091 0.930 . S
H1112 C1099 0.931 . S
H1113 C1100 0.929 . S
H1114 C1108 0.929 . S
H1115 C1109 0.930 . S
Mn1116 O1121 2.095 . S
Mn1116 O1131 2.162 1_554 S
Mn1116 O1132 2.297 1_554 S
Mn1116 O1140 2.385 . S
Mn1116 O1141 2.209 . S
Mn1116 O1142 2.094 . S
Mn1117 O1122 2.121 . S
Mn1117 N1124 2.257 . S
Mn1117 N1133 2.282 . S
Mn1117 O1141 2.215 . S
Mn1117 O1143 2.117 . S
C1118 O1140 1.234 . S
C1118 O1141 1.283 . S
C1119 O1131 1.281 . S
C1119 O1132 1.236 . S
C1120 O1142 1.240 . S
C1120 O1143 1.264 . S
O1121 Mn1116 2.095 . S
O1121 C1130 1.250 . S
O1122 Mn1117 2.121 . S
O1122 C1130 1.258 . S
C1123 N1124 1.326 . S
C1123 C1127 1.460 . S
C1123 H1129 0.929 . S
N1124 Mn1117 2.257 . S
N1124 C1123 1.326 . S
N1124 C1128 1.362 . S
C1125 C1126 1.258 . S
C1125 C1128 1.431 . S
C1125 C1145 1.449 . S
C1126 C1125 1.258 . S
C1126 C1127 1.477 . S
C1126 H1146 0.931 . S
C1127 C1123 1.460 . S
C1127 C1126 1.477 . S
C1127 H1147 0.930 . S
C1128 N1124 1.362 . S
C1128 C1125 1.431 . S
C1128 C1138 1.476 . S
H1129 C1123 0.929 . S
C1130 O1121 1.250 . S
C1130 O1122 1.258 . S
O1131 Mn1116 2.162 1_556 S
O1131 C1119 1.281 . S
O1132 Mn1116 2.297 1_556 S
O1132 C1119 1.236 . S
N1133 Mn1117 2.282 . S
N1133 C1134 1.328 . S
N1133 C1138 1.318 . S
C1134 N1133 1.328 . S
C1134 C1135 1.457 . S
C1134 H1139 0.929 . S
C1135 C1134 1.457 . S
C1135 C1136 1.291 . S
C1135 H1148 0.931 . S
C1136 C1135 1.291 . S
C1136 C1137 1.373 . S
C1136 H1149 0.929 . S
C1137 C1136 1.373 . S
C1137 C1138 1.396 . S
C1137 C1144 1.403 . S
C1138 C1128 1.476 . S
C1138 N1133 1.318 . S
C1138 C1137 1.396 . S
H1139 C1134 0.929 . S
O1140 Mn1116 2.385 . S
O1140 C1118 1.234 . S
O1141 Mn1116 2.209 . S
O1141 Mn1117 2.215 . S
O1141 C1118 1.283 . S
O1142 Mn1116 2.094 . S
O1142 C1120 1.240 . S
O1143 Mn1117 2.117 . S
O1143 C1120 1.264 . S
C1144 C1137 1.403 . S
C1144 C1145 1.399 . S
C1144 H1150 0.929 . S
C1145 C1125 1.449 . S
C1145 C1144 1.399 . S
C1145 H1151 0.930 . S
H1146 C1126 0.931 . S
H1147 C1127 0.930 . S
H1148 C1135 0.931 . S
H1149 C1136 0.929 . S
H1150 C1144 0.929 . S
H1151 C1145 0.930 . S
C1152 C1153 1.349 . S
C1152 C1154 1.327 . S
C1152 H1177 0.950 . S
C1153 C1152 1.349 . S
C1153 C1169 1.349 . S
C1154 C1152 1.327 . S
C1154 C1173 1.429 . S
C1154 H1178 0.950 . S
C1155 C1172 1.574 . S
C1155 C1174 1.368 . S
C1155 H1179 0.949 . S
H1156 C1160 0.949 . S
C1157 C1158 1.349 . S
C1157 C1159 1.327 . S
C1157 H1180 0.950 . S
C1158 C1157 1.349 . S
C1158 C1170 1.349 . S
C1159 C1157 1.327 . S
C1159 C1175 1.429 . S
C1159 H1181 0.950 . S
C1160 H1156 0.949 . S
C1160 C1168 1.574 . S
C1160 C1176 1.368 . S
H1161 C1169 0.950 . S
H1162 C1167 0.950 . S
H1163 C1168 0.949 . S
H1164 C1170 0.950 . S
H1165 C1171 0.950 . S
H1166 C1172 0.949 . S
C1167 H1162 0.950 . S
C1167 C1169 1.327 . S
C1167 C1173 1.429 . S
C1168 C1160 1.574 . S
C1168 H1163 0.949 . S
C1168 C1174 1.368 . S
C1169 C1153 1.349 . S
C1169 H1161 0.950 . S
C1169 C1167 1.327 . S
C1170 C1158 1.349 . S
C1170 H1164 0.950 . S
C1170 C1171 1.327 . S
C1171 H1165 0.950 . S
C1171 C1170 1.327 . S
C1171 C1175 1.429 . S
C1172 C1155 1.574 . S
C1172 H1166 0.949 . S
C1172 C1176 1.368 . S
C1173 C1154 1.429 . S
C1173 C1167 1.429 . S
C1173 C1174 1.523 . S
C1174 C1155 1.368 . S
C1174 C1168 1.368 . S
C1174 C1173 1.523 . S
C1175 C1159 1.429 . S
C1175 C1171 1.429 . S
C1175 C1176 1.523 . S
C1176 C1160 1.368 . S
C1176 C1172 1.368 . S
C1176 C1175 1.523 . S
H1177 C1152 0.950 . S
H1178 C1154 0.950 . S
H1179 C1155 0.949 . S
H1180 C1157 0.950 . S
H1181 C1159 0.950 . S
C1182 C1183 1.349 . S
C1182 C1184 1.327 . S
C1182 H1207 0.950 . S
C1183 C1182 1.349 . S
C1183 C1199 1.349 . S
C1184 C1182 1.327 . S
C1184 C1203 1.429 . S
C1184 H1208 0.950 . S
C1185 C1202 1.574 . S
C1185 C1204 1.368 . S
C1185 H1209 0.949 . S
H1186 C1190 0.949 . S
C1187 C1188 1.349 . S
C1187 C1189 1.327 . S
C1187 H1210 0.950 . S
C1188 C1187 1.349 . S
C1188 C1200 1.349 . S
C1189 C1187 1.327 . S
C1189 C1205 1.429 . S
C1189 H1211 0.950 . S
C1190 H1186 0.949 . S
C1190 C1198 1.574 . S
C1190 C1206 1.368 . S
H1191 C1199 0.950 . S
H1192 C1197 0.950 . S
H1193 C1198 0.949 . S
H1194 C1200 0.950 . S
H1195 C1201 0.950 . S
H1196 C1202 0.949 . S
C1197 H1192 0.950 . S
C1197 C1199 1.327 . S
C1197 C1203 1.429 . S
C1198 C1190 1.574 . S
C1198 H1193 0.949 . S
C1198 C1204 1.368 . S
C1199 C1183 1.349 . S
C1199 H1191 0.950 . S
C1199 C1197 1.327 . S
C1200 C1188 1.349 . S
C1200 H1194 0.950 . S
C1200 C1201 1.327 . S
C1201 H1195 0.950 . S
C1201 C1200 1.327 . S
C1201 C1205 1.429 . S
C1202 C1185 1.574 . S
C1202 H1196 0.949 . S
C1202 C1206 1.368 . S
C1203 C1184 1.429 . S
C1203 C1197 1.429 . S
C1203 C1204 1.523 . S
C1204 C1185 1.368 . S
C1204 C1198 1.368 . S
C1204 C1203 1.523 . S
C1205 C1189 1.429 . S
C1205 C1201 1.429 . S
C1205 C1206 1.523 . S
C1206 C1190 1.368 . S
C1206 C1202 1.368 . S
C1206 C1205 1.523 . S
H1207 C1182 0.950 . S
H1208 C1184 0.950 . S
H1209 C1185 0.949 . S
H1210 C1187 0.950 . S
H1211 C1189 0.950 . S
C1212 C1213 1.349 . S
C1212 C1214 1.327 . S
C1212 H1237 0.950 . S
C1213 C1212 1.349 . S
C1213 C1229 1.349 . S
C1214 C1212 1.327 . S
C1214 C1233 1.429 . S
C1214 H1238 0.950 . S
C1215 C1232 1.574 . S
C1215 C1234 1.368 . S
C1215 H1239 0.949 . S
H1216 C1220 0.949 . S
C1217 C1218 1.349 . S
C1217 C1219 1.327 . S
C1217 H1240 0.950 . S
C1218 C1217 1.349 . S
C1218 C1230 1.349 . S
C1219 C1217 1.327 . S
C1219 C1235 1.429 . S
C1219 H1241 0.950 . S
C1220 H1216 0.949 . S
C1220 C1228 1.574 . S
C1220 C1236 1.368 . S
H1221 C1229 0.950 . S
H1222 C1227 0.950 . S
H1223 C1228 0.949 . S
H1224 C1230 0.950 . S
H1225 C1231 0.950 . S
H1226 C1232 0.949 . S
C1227 H1222 0.950 . S
C1227 C1229 1.327 . S
C1227 C1233 1.429 . S
C1228 C1220 1.574 . S
C1228 H1223 0.949 . S
C1228 C1234 1.368 . S
C1229 C1213 1.349 . S
C1229 H1221 0.950 . S
C1229 C1227 1.327 . S
C1230 C1218 1.349 . S
C1230 H1224 0.950 . S
C1230 C1231 1.327 . S
C1231 H1225 0.950 . S
C1231 C1230 1.327 . S
C1231 C1235 1.429 . S
C1232 C1215 1.574 . S
C1232 H1226 0.949 . S
C1232 C1236 1.368 . S
C1233 C1214 1.429 . S
C1233 C1227 1.429 . S
C1233 C1234 1.523 . S
C1234 C1215 1.368 . S
C1234 C1228 1.368 . S
C1234 C1233 1.523 . S
C1235 C1219 1.429 . S
C1235 C1231 1.429 . S
C1235 C1236 1.523 . S
C1236 C1220 1.368 . S
C1236 C1232 1.368 . S
C1236 C1235 1.523 . S
H1237 C1212 0.950 . S
H1238 C1214 0.950 . S
H1239 C1215 0.949 . S
H1240 C1217 0.950 . S
H1241 C1219 0.950 . S
C1242 C1243 1.349 . S
C1242 C1244 1.327 . S
C1242 H1267 0.950 . S
C1243 C1242 1.349 . S
C1243 C1259 1.349 . S
C1244 C1242 1.327 . S
C1244 C1263 1.429 . S
C1244 H1268 0.950 . S
C1245 C1262 1.574 . S
C1245 C1264 1.368 . S
C1245 H1269 0.949 . S
H1246 C1250 0.949 . S
C1247 C1248 1.349 . S
C1247 C1249 1.327 . S
C1247 H1270 0.950 . S
C1248 C1247 1.349 . S
C1248 C1260 1.349 . S
C1249 C1247 1.327 . S
C1249 C1265 1.429 . S
C1249 H1271 0.950 . S
C1250 H1246 0.949 . S
C1250 C1258 1.574 . S
C1250 C1266 1.368 . S
H1251 C1259 0.950 . S
H1252 C1257 0.950 . S
H1253 C1258 0.949 . S
H1254 C1260 0.950 . S
H1255 C1261 0.950 . S
H1256 C1262 0.949 . S
C1257 H1252 0.950 . S
C1257 C1259 1.327 . S
C1257 C1263 1.429 . S
C1258 C1250 1.574 . S
C1258 H1253 0.949 . S
C1258 C1264 1.368 . S
C1259 C1243 1.349 . S
C1259 H1251 0.950 . S
C1259 C1257 1.327 . S
C1260 C1248 1.349 . S
C1260 H1254 0.950 . S
C1260 C1261 1.327 . S
C1261 H1255 0.950 . S
C1261 C1260 1.327 . S
C1261 C1265 1.429 . S
C1262 C1245 1.574 . S
C1262 H1256 0.949 . S
C1262 C1266 1.368 . S
C1263 C1244 1.429 . S
C1263 C1257 1.429 . S
C1263 C1264 1.523 . S
C1264 C1245 1.368 . S
C1264 C1258 1.368 . S
C1264 C1263 1.523 . S
C1265 C1249 1.429 . S
C1265 C1261 1.429 . S
C1265 C1266 1.523 . S
C1266 C1250 1.368 . S
C1266 C1262 1.368 . S
C1266 C1265 1.523 . S
H1267 C1242 0.950 . S
H1268 C1244 0.950 . S
H1269 C1245 0.949 . S
H1270 C1247 0.950 . S
H1271 C1249 0.950 . S
C1272 C1273 1.349 . S
C1272 C1274 1.327 . S
C1272 H1297 0.950 . S
C1273 C1272 1.349 . S
C1273 C1289 1.349 . S
C1274 C1272 1.327 . S
C1274 C1293 1.429 . S
C1274 H1298 0.950 . S
C1275 C1292 1.574 . S
C1275 C1294 1.368 . S
C1275 H1299 0.949 . S
H1276 C1280 0.949 . S
C1277 C1278 1.349 . S
C1277 C1279 1.327 . S
C1277 H1300 0.950 . S
C1278 C1277 1.349 . S
C1278 C1290 1.349 . S
C1279 C1277 1.327 . S
C1279 C1295 1.429 . S
C1279 H1301 0.950 . S
C1280 H1276 0.949 . S
C1280 C1288 1.574 . S
C1280 C1296 1.368 . S
H1281 C1289 0.950 . S
H1282 C1287 0.950 . S
H1283 C1288 0.949 . S
H1284 C1290 0.950 . S
H1285 C1291 0.950 . S
H1286 C1292 0.949 . S
C1287 H1282 0.950 . S
C1287 C1289 1.327 . S
C1287 C1293 1.429 . S
C1288 C1280 1.574 . S
C1288 H1283 0.949 . S
C1288 C1294 1.368 . S
C1289 C1273 1.349 . S
C1289 H1281 0.950 . S
C1289 C1287 1.327 . S
C1290 C1278 1.349 . S
C1290 H1284 0.950 . S
C1290 C1291 1.327 . S
C1291 H1285 0.950 . S
C1291 C1290 1.327 . S
C1291 C1295 1.429 . S
C1292 C1275 1.574 . S
C1292 H1286 0.949 . S
C1292 C1296 1.368 . S
C1293 C1274 1.429 . S
C1293 C1287 1.429 . S
C1293 C1294 1.523 . S
C1294 C1275 1.368 . S
C1294 C1288 1.368 . S
C1294 C1293 1.523 . S
C1295 C1279 1.429 . S
C1295 C1291 1.429 . S
C1295 C1296 1.523 . S
C1296 C1280 1.368 . S
C1296 C1292 1.368 . S
C1296 C1295 1.523 . S
H1297 C1272 0.950 . S
H1298 C1274 0.950 . S
H1299 C1275 0.949 . S
H1300 C1277 0.950 . S
H1301 C1279 0.950 . S
C1302 C1303 1.349 . S
C1302 C1304 1.327 . S
C1302 H1327 0.950 . S
C1303 C1302 1.349 . S
C1303 C1319 1.349 . S
C1304 C1302 1.327 . S
C1304 C1323 1.429 . S
C1304 H1328 0.950 . S
C1305 C1322 1.574 . S
C1305 C1324 1.368 . S
C1305 H1329 0.949 . S
H1306 C1310 0.949 . S
C1307 C1308 1.349 . S
C1307 C1309 1.327 . S
C1307 H1330 0.950 . S
C1308 C1307 1.349 . S
C1308 C1320 1.349 . S
C1309 C1307 1.327 . S
C1309 C1325 1.429 . S
C1309 H1331 0.950 . S
C1310 H1306 0.949 . S
C1310 C1318 1.574 . S
C1310 C1326 1.368 . S
H1311 C1319 0.950 . S
H1312 C1317 0.950 . S
H1313 C1318 0.949 . S
H1314 C1320 0.950 . S
H1315 C1321 0.950 . S
H1316 C1322 0.949 . S
C1317 H1312 0.950 . S
C1317 C1319 1.327 . S
C1317 C1323 1.429 . S
C1318 C1310 1.574 . S
C1318 H1313 0.949 . S
C1318 C1324 1.368 . S
C1319 C1303 1.349 . S
C1319 H1311 0.950 . S
C1319 C1317 1.327 . S
C1320 C1308 1.349 . S
C1320 H1314 0.950 . S
C1320 C1321 1.327 . S
C1321 H1315 0.950 . S
C1321 C1320 1.327 . S
C1321 C1325 1.429 . S
C1322 C1305 1.574 . S
C1322 H1316 0.949 . S
C1322 C1326 1.368 . S
C1323 C1304 1.429 . S
C1323 C1317 1.429 . S
C1323 C1324 1.523 . S
C1324 C1305 1.368 . S
C1324 C1318 1.368 . S
C1324 C1323 1.523 . S
C1325 C1309 1.429 . S
C1325 C1321 1.429 . S
C1325 C1326 1.523 . S
C1326 C1310 1.368 . S
C1326 C1322 1.368 . S
C1326 C1325 1.523 . S
H1327 C1302 0.950 . S
H1328 C1304 0.950 . S
H1329 C1305 0.949 . S
H1330 C1307 0.950 . S
H1331 C1309 0.950 . S
C1332 C1333 1.349 . S
C1332 C1334 1.327 . S
C1332 H1357 0.950 . S
C1333 C1332 1.349 . S
C1333 C1349 1.349 . S
C1334 C1332 1.327 . S
C1334 C1353 1.429 . S
C1334 H1358 0.950 . S
C1335 C1352 1.574 . S
C1335 C1354 1.368 . S
C1335 H1359 0.949 . S
H1336 C1340 0.949 . S
C1337 C1338 1.349 . S
C1337 C1339 1.327 . S
C1337 H1360 0.950 . S
C1338 C1337 1.349 . S
C1338 C1350 1.349 . S
C1339 C1337 1.327 . S
C1339 C1355 1.429 . S
C1339 H1361 0.950 . S
C1340 H1336 0.949 . S
C1340 C1348 1.574 . S
C1340 C1356 1.368 . S
H1341 C1349 0.950 . S
H1342 C1347 0.950 . S
H1343 C1348 0.949 . S
H1344 C1350 0.950 . S
H1345 C1351 0.950 . S
H1346 C1352 0.949 . S
C1347 H1342 0.950 . S
C1347 C1349 1.327 . S
C1347 C1353 1.429 . S
C1348 C1340 1.574 . S
C1348 H1343 0.949 . S
C1348 C1354 1.368 . S
C1349 C1333 1.349 . S
C1349 H1341 0.950 . S
C1349 C1347 1.327 . S
C1350 C1338 1.349 . S
C1350 H1344 0.950 . S
C1350 C1351 1.327 . S
C1351 H1345 0.950 . S
C1351 C1350 1.327 . S
C1351 C1355 1.429 . S
C1352 C1335 1.574 . S
C1352 H1346 0.949 . S
C1352 C1356 1.368 . S
C1353 C1334 1.429 . S
C1353 C1347 1.429 . S
C1353 C1354 1.523 . S
C1354 C1335 1.368 . S
C1354 C1348 1.368 . S
C1354 C1353 1.523 . S
C1355 C1339 1.429 . S
C1355 C1351 1.429 . S
C1355 C1356 1.523 . S
C1356 C1340 1.368 . S
C1356 C1352 1.368 . S
C1356 C1355 1.523 . S
H1357 C1332 0.950 . S
H1358 C1334 0.950 . S
H1359 C1335 0.949 . S
H1360 C1337 0.950 . S
H1361 C1339 0.950 . S
C1362 C1363 1.349 . S
C1362 C1364 1.327 . S
C1362 H1387 0.950 . S
C1363 C1362 1.349 . S
C1363 C1379 1.349 . S
C1364 C1362 1.327 . S
C1364 C1383 1.429 . S
C1364 H1388 0.950 . S
C1365 C1382 1.574 . S
C1365 C1384 1.368 . S
C1365 H1389 0.949 . S
H1366 C1370 0.949 . S
C1367 C1368 1.349 . S
C1367 C1369 1.327 . S
C1367 H1390 0.950 . S
C1368 C1367 1.349 . S
C1368 C1380 1.349 . S
C1369 C1367 1.327 . S
C1369 C1385 1.429 . S
C1369 H1391 0.950 . S
C1370 H1366 0.949 . S
C1370 C1378 1.574 . S
C1370 C1386 1.368 . S
H1371 C1379 0.950 . S
H1372 C1377 0.950 . S
H1373 C1378 0.949 . S
H1374 C1380 0.950 . S
H1375 C1381 0.950 . S
H1376 C1382 0.949 . S
C1377 H1372 0.950 . S
C1377 C1379 1.327 . S
C1377 C1383 1.429 . S
C1378 C1370 1.574 . S
C1378 H1373 0.949 . S
C1378 C1384 1.368 . S
C1379 C1363 1.349 . S
C1379 H1371 0.950 . S
C1379 C1377 1.327 . S
C1380 C1368 1.349 . S
C1380 H1374 0.950 . S
C1380 C1381 1.327 . S
C1381 H1375 0.950 . S
C1381 C1380 1.327 . S
C1381 C1385 1.429 . S
C1382 C1365 1.574 . S
C1382 H1376 0.949 . S
C1382 C1386 1.368 . S
C1383 C1364 1.429 . S
C1383 C1377 1.429 . S
C1383 C1384 1.523 . S
C1384 C1365 1.368 . S
C1384 C1378 1.368 . S
C1384 C1383 1.523 . S
C1385 C1369 1.429 . S
C1385 C1381 1.429 . S
C1385 C1386 1.523 . S
C1386 C1370 1.368 . S
C1386 C1382 1.368 . S
C1386 C1385 1.523 . S
H1387 C1362 0.950 . S
H1388 C1364 0.950 . S
H1389 C1365 0.949 . S
H1390 C1367 0.950 . S
H1391 C1369 0.950 . S
C1392 C1393 1.349 . S
C1392 C1394 1.327 . S
C1392 H1417 0.950 . S
C1393 C1392 1.349 . S
C1393 C1409 1.349 . S
C1394 C1392 1.327 . S
C1394 C1413 1.429 . S
C1394 H1418 0.950 . S
C1395 C1412 1.574 . S
C1395 C1414 1.368 . S
C1395 H1419 0.949 . S
H1396 C1400 0.949 . S
C1397 C1398 1.349 . S
C1397 C1399 1.327 . S
C1397 H1420 0.950 . S
C1398 C1397 1.349 . S
C1398 C1410 1.349 . S
C1399 C1397 1.327 . S
C1399 C1415 1.429 . S
C1399 H1421 0.950 . S
C1400 H1396 0.949 . S
C1400 C1408 1.574 . S
C1400 C1416 1.368 . S
H1401 C1409 0.950 . S
H1402 C1407 0.950 . S
H1403 C1408 0.949 . S
H1404 C1410 0.950 . S
H1405 C1411 0.950 . S
H1406 C1412 0.949 . S
C1407 H1402 0.950 . S
C1407 C1409 1.327 . S
C1407 C1413 1.429 . S
C1408 C1400 1.574 . S
C1408 H1403 0.949 . S
C1408 C1414 1.368 . S
C1409 C1393 1.349 . S
C1409 H1401 0.950 . S
C1409 C1407 1.327 . S
C1410 C1398 1.349 . S
C1410 H1404 0.950 . S
C1410 C1411 1.327 . S
C1411 H1405 0.950 . S
C1411 C1410 1.327 . S
C1411 C1415 1.429 . S
C1412 C1395 1.574 . S
C1412 H1406 0.949 . S
C1412 C1416 1.368 . S
C1413 C1394 1.429 . S
C1413 C1407 1.429 . S
C1413 C1414 1.523 . S
C1414 C1395 1.368 . S
C1414 C1408 1.368 . S
C1414 C1413 1.523 . S
C1415 C1399 1.429 . S
C1415 C1411 1.429 . S
C1415 C1416 1.523 . S
C1416 C1400 1.368 . S
C1416 C1412 1.368 . S
C1416 C1415 1.523 . S
H1417 C1392 0.950 . S
H1418 C1394 0.950 . S
H1419 C1395 0.949 . S
H1420 C1397 0.950 . S
H1421 C1399 0.950 . S
C1422 C1423 1.349 . S
C1422 C1424 1.327 . S
C1422 H1447 0.950 . S
C1423 C1422 1.349 . S
C1423 C1439 1.349 . S
C1424 C1422 1.327 . S
C1424 C1443 1.429 . S
C1424 H1448 0.950 . S
C1425 C1442 1.574 . S
C1425 C1444 1.368 . S
C1425 H1449 0.949 . S
H1426 C1430 0.949 . S
C1427 C1428 1.349 . S
C1427 C1429 1.327 . S
C1427 H1450 0.950 . S
C1428 C1427 1.349 . S
C1428 C1440 1.349 . S
C1429 C1427 1.327 . S
C1429 C1445 1.429 . S
C1429 H1451 0.950 . S
C1430 H1426 0.949 . S
C1430 C1438 1.574 . S
C1430 C1446 1.368 . S
H1431 C1439 0.950 . S
H1432 C1437 0.950 . S
H1433 C1438 0.949 . S
H1434 C1440 0.950 . S
H1435 C1441 0.950 . S
H1436 C1442 0.949 . S
C1437 H1432 0.950 . S
C1437 C1439 1.327 . S
C1437 C1443 1.429 . S
C1438 C1430 1.574 . S
C1438 H1433 0.949 . S
C1438 C1444 1.368 . S
C1439 C1423 1.349 . S
C1439 H1431 0.950 . S
C1439 C1437 1.327 . S
C1440 C1428 1.349 . S
C1440 H1434 0.950 . S
C1440 C1441 1.327 . S
C1441 H1435 0.950 . S
C1441 C1440 1.327 . S
C1441 C1445 1.429 . S
C1442 C1425 1.574 . S
C1442 H1436 0.949 . S
C1442 C1446 1.368 . S
C1443 C1424 1.429 . S
C1443 C1437 1.429 . S
C1443 C1444 1.523 . S
C1444 C1425 1.368 . S
C1444 C1438 1.368 . S
C1444 C1443 1.523 . S
C1445 C1429 1.429 . S
C1445 C1441 1.429 . S
C1445 C1446 1.523 . S
C1446 C1430 1.368 . S
C1446 C1442 1.368 . S
C1446 C1445 1.523 . S
H1447 C1422 0.950 . S
H1448 C1424 0.950 . S
H1449 C1425 0.949 . S
H1450 C1427 0.950 . S
H1451 C1429 0.950 . S
C1452 C1453 1.349 . S
C1452 C1454 1.327 . S
C1452 H1477 0.950 . S
C1453 C1452 1.349 . S
C1453 C1469 1.349 . S
C1454 C1452 1.327 . S
C1454 C1473 1.429 . S
C1454 H1478 0.950 . S
C1455 C1472 1.574 . S
C1455 C1474 1.368 . S
C1455 H1479 0.949 . S
H1456 C1460 0.949 . S
C1457 C1458 1.349 . S
C1457 C1459 1.327 . S
C1457 H1480 0.950 . S
C1458 C1457 1.349 . S
C1458 C1470 1.349 . S
C1459 C1457 1.327 . S
C1459 C1475 1.429 . S
C1459 H1481 0.950 . S
C1460 H1456 0.949 . S
C1460 C1468 1.574 . S
C1460 C1476 1.368 . S
H1461 C1469 0.950 . S
H1462 C1467 0.950 . S
H1463 C1468 0.949 . S
H1464 C1470 0.950 . S
H1465 C1471 0.950 . S
H1466 C1472 0.949 . S
C1467 H1462 0.950 . S
C1467 C1469 1.327 . S
C1467 C1473 1.429 . S
C1468 C1460 1.574 . S
C1468 H1463 0.949 . S
C1468 C1474 1.368 . S
C1469 C1453 1.349 . S
C1469 H1461 0.950 . S
C1469 C1467 1.327 . S
C1470 C1458 1.349 . S
C1470 H1464 0.950 . S
C1470 C1471 1.327 . S
C1471 H1465 0.950 . S
C1471 C1470 1.327 . S
C1471 C1475 1.429 . S
C1472 C1455 1.574 . S
C1472 H1466 0.949 . S
C1472 C1476 1.368 . S
C1473 C1454 1.429 . S
C1473 C1467 1.429 . S
C1473 C1474 1.523 . S
C1474 C1455 1.368 . S
C1474 C1468 1.368 . S
C1474 C1473 1.523 . S
C1475 C1459 1.429 . S
C1475 C1471 1.429 . S
C1475 C1476 1.523 . S
C1476 C1460 1.368 . S
C1476 C1472 1.368 . S
C1476 C1475 1.523 . S
H1477 C1452 0.950 . S
H1478 C1454 0.950 . S
H1479 C1455 0.949 . S
H1480 C1457 0.950 . S
H1481 C1459 0.950 . S
C1482 C1483 1.349 . S
C1482 C1484 1.327 . S
C1482 H1507 0.950 . S
C1483 C1482 1.349 . S
C1483 C1499 1.349 . S
C1484 C1482 1.327 . S
C1484 C1503 1.429 . S
C1484 H1508 0.950 . S
C1485 C1502 1.574 . S
C1485 C1504 1.368 . S
C1485 H1509 0.949 . S
H1486 C1490 0.949 . S
C1487 C1488 1.349 . S
C1487 C1489 1.327 . S
C1487 H1510 0.950 . S
C1488 C1487 1.349 . S
C1488 C1500 1.349 . S
C1489 C1487 1.327 . S
C1489 C1505 1.429 . S
C1489 H1511 0.950 . S
C1490 H1486 0.949 . S
C1490 C1498 1.574 . S
C1490 C1506 1.368 . S
H1491 C1499 0.950 . S
H1492 C1497 0.950 . S
H1493 C1498 0.949 . S
H1494 C1500 0.950 . S
H1495 C1501 0.950 . S
H1496 C1502 0.949 . S
C1497 H1492 0.950 . S
C1497 C1499 1.327 . S
C1497 C1503 1.429 . S
C1498 C1490 1.574 . S
C1498 H1493 0.949 . S
C1498 C1504 1.368 . S
C1499 C1483 1.349 . S
C1499 H1491 0.950 . S
C1499 C1497 1.327 . S
C1500 C1488 1.349 . S
C1500 H1494 0.950 . S
C1500 C1501 1.327 . S
C1501 H1495 0.950 . S
C1501 C1500 1.327 . S
C1501 C1505 1.429 . S
C1502 C1485 1.574 . S
C1502 H1496 0.949 . S
C1502 C1506 1.368 . S
C1503 C1484 1.429 . S
C1503 C1497 1.429 . S
C1503 C1504 1.523 . S
C1504 C1485 1.368 . S
C1504 C1498 1.368 . S
C1504 C1503 1.523 . S
C1505 C1489 1.429 . S
C1505 C1501 1.429 . S
C1505 C1506 1.523 . S
C1506 C1490 1.368 . S
C1506 C1502 1.368 . S
C1506 C1505 1.523 . S
H1507 C1482 0.950 . S
H1508 C1484 0.950 . S
H1509 C1485 0.949 . S
H1510 C1487 0.950 . S
H1511 C1489 0.950 . S
C1512 C1513 1.349 . S
C1512 C1514 1.327 . S
C1512 H1537 0.950 . S
C1513 C1512 1.349 . S
C1513 C1529 1.349 . S
C1514 C1512 1.327 . S
C1514 C1533 1.429 . S
C1514 H1538 0.950 . S
C1515 C1532 1.574 . S
C1515 C1534 1.368 . S
C1515 H1539 0.949 . S
H1516 C1520 0.949 . S
C1517 C1518 1.349 . S
C1517 C1519 1.327 . S
C1517 H1540 0.950 . S
C1518 C1517 1.349 . S
C1518 C1530 1.349 . S
C1519 C1517 1.327 . S
C1519 C1535 1.429 . S
C1519 H1541 0.950 . S
C1520 H1516 0.949 . S
C1520 C1528 1.574 . S
C1520 C1536 1.368 . S
H1521 C1529 0.950 . S
H1522 C1527 0.950 . S
H1523 C1528 0.949 . S
H1524 C1530 0.950 . S
H1525 C1531 0.950 . S
H1526 C1532 0.949 . S
C1527 H1522 0.950 . S
C1527 C1529 1.327 . S
C1527 C1533 1.429 . S
C1528 C1520 1.574 . S
C1528 H1523 0.949 . S
C1528 C1534 1.368 . S
C1529 C1513 1.349 . S
C1529 H1521 0.950 . S
C1529 C1527 1.327 . S
C1530 C1518 1.349 . S
C1530 H1524 0.950 . S
C1530 C1531 1.327 . S
C1531 H1525 0.950 . S
C1531 C1530 1.327 . S
C1531 C1535 1.429 . S
C1532 C1515 1.574 . S
C1532 H1526 0.949 . S
C1532 C1536 1.368 . S
C1533 C1514 1.429 . S
C1533 C1527 1.429 . S
C1533 C1534 1.523 . S
C1534 C1515 1.368 . S
C1534 C1528 1.368 . S
C1534 C1533 1.523 . S
C1535 C1519 1.429 . S
C1535 C1531 1.429 . S
C1535 C1536 1.523 . S
C1536 C1520 1.368 . S
C1536 C1532 1.368 . S
C1536 C1535 1.523 . S
H1537 C1512 0.950 . S
H1538 C1514 0.950 . S
H1539 C1515 0.949 . S
H1540 C1517 0.950 . S
H1541 C1519 0.950 . S
C1542 C1543 1.349 . S
C1542 C1544 1.327 . S
C1542 H1567 0.950 . S
C1543 C1542 1.349 . S
C1543 C1559 1.349 . S
C1544 C1542 1.327 . S
C1544 C1563 1.429 . S
C1544 H1568 0.950 . S
C1545 C1562 1.574 . S
C1545 C1564 1.368 . S
C1545 H1569 0.949 . S
H1546 C1550 0.949 . S
C1547 C1548 1.349 . S
C1547 C1549 1.327 . S
C1547 H1570 0.950 . S
C1548 C1547 1.349 . S
C1548 C1560 1.349 . S
C1549 C1547 1.327 . S
C1549 C1565 1.429 . S
C1549 H1571 0.950 . S
C1550 H1546 0.949 . S
C1550 C1558 1.574 . S
C1550 C1566 1.368 . S
H1551 C1559 0.950 . S
H1552 C1557 0.950 . S
H1553 C1558 0.949 . S
H1554 C1560 0.950 . S
H1555 C1561 0.950 . S
H1556 C1562 0.949 . S
C1557 H1552 0.950 . S
C1557 C1559 1.327 . S
C1557 C1563 1.429 . S
C1558 C1550 1.574 . S
C1558 H1553 0.949 . S
C1558 C1564 1.368 . S
C1559 C1543 1.349 . S
C1559 H1551 0.950 . S
C1559 C1557 1.327 . S
C1560 C1548 1.349 . S
C1560 H1554 0.950 . S
C1560 C1561 1.327 . S
C1561 H1555 0.950 . S
C1561 C1560 1.327 . S
C1561 C1565 1.429 . S
C1562 C1545 1.574 . S
C1562 H1556 0.949 . S
C1562 C1566 1.368 . S
C1563 C1544 1.429 . S
C1563 C1557 1.429 . S
C1563 C1564 1.523 . S
C1564 C1545 1.368 . S
C1564 C1558 1.368 . S
C1564 C1563 1.523 . S
C1565 C1549 1.429 . S
C1565 C1561 1.429 . S
C1565 C1566 1.523 . S
C1566 C1550 1.368 . S
C1566 C1562 1.368 . S
C1566 C1565 1.523 . S
H1567 C1542 0.950 . S
H1568 C1544 0.950 . S
H1569 C1545 0.949 . S
H1570 C1547 0.950 . S
H1571 C1549 0.950 . S
C1572 C1573 1.349 . S
C1572 C1574 1.327 . S
C1572 H1597 0.950 . S
C1573 C1572 1.349 . S
C1573 C1589 1.349 . S
C1574 C1572 1.327 . S
C1574 C1593 1.429 . S
C1574 H1598 0.950 . S
C1575 C1592 1.574 . S
C1575 C1594 1.368 . S
C1575 H1599 0.949 . S
H1576 C1580 0.949 . S
C1577 C1578 1.349 . S
C1577 C1579 1.327 . S
C1577 H1600 0.950 . S
C1578 C1577 1.349 . S
C1578 C1590 1.349 . S
C1579 C1577 1.327 . S
C1579 C1595 1.429 . S
C1579 H1601 0.950 . S
C1580 H1576 0.949 . S
C1580 C1588 1.574 . S
C1580 C1596 1.368 . S
H1581 C1589 0.950 . S
H1582 C1587 0.950 . S
H1583 C1588 0.949 . S
H1584 C1590 0.950 . S
H1585 C1591 0.950 . S
H1586 C1592 0.949 . S
C1587 H1582 0.950 . S
C1587 C1589 1.327 . S
C1587 C1593 1.429 . S
C1588 C1580 1.574 . S
C1588 H1583 0.949 . S
C1588 C1594 1.368 . S
C1589 C1573 1.349 . S
C1589 H1581 0.950 . S
C1589 C1587 1.327 . S
C1590 C1578 1.349 . S
C1590 H1584 0.950 . S
C1590 C1591 1.327 . S
C1591 H1585 0.950 . S
C1591 C1590 1.327 . S
C1591 C1595 1.429 . S
C1592 C1575 1.574 . S
C1592 H1586 0.949 . S
C1592 C1596 1.368 . S
C1593 C1574 1.429 . S
C1593 C1587 1.429 . S
C1593 C1594 1.523 . S
C1594 C1575 1.368 . S
C1594 C1588 1.368 . S
C1594 C1593 1.523 . S
C1595 C1579 1.429 . S
C1595 C1591 1.429 . S
C1595 C1596 1.523 . S
C1596 C1580 1.368 . S
C1596 C1592 1.368 . S
C1596 C1595 1.523 . S
H1597 C1572 0.950 . S
H1598 C1574 0.950 . S
H1599 C1575 0.949 . S
H1600 C1577 0.950 . S
H1601 C1579 0.950 . S
C1602 C1603 1.349 . S
C1602 C1604 1.327 . S
C1602 H1627 0.950 . S
C1603 C1602 1.349 . S
C1603 C1619 1.349 . S
C1604 C1602 1.327 . S
C1604 C1623 1.429 . S
C1604 H1628 0.950 . S
C1605 C1622 1.574 . S
C1605 C1624 1.368 . S
C1605 H1629 0.949 . S
H1606 C1610 0.949 . S
C1607 C1608 1.349 . S
C1607 C1609 1.327 . S
C1607 H1630 0.950 . S
C1608 C1607 1.349 . S
C1608 C1620 1.349 . S
C1609 C1607 1.327 . S
C1609 C1625 1.429 . S
C1609 H1631 0.950 . S
C1610 H1606 0.949 . S
C1610 C1618 1.574 . S
C1610 C1626 1.368 . S
H1611 C1619 0.950 . S
H1612 C1617 0.950 . S
H1613 C1618 0.949 . S
H1614 C1620 0.950 . S
H1615 C1621 0.950 . S
H1616 C1622 0.949 . S
C1617 H1612 0.950 . S
C1617 C1619 1.327 . S
C1617 C1623 1.429 . S
C1618 C1610 1.574 . S
C1618 H1613 0.949 . S
C1618 C1624 1.368 . S
C1619 C1603 1.349 . S
C1619 H1611 0.950 . S
C1619 C1617 1.327 . S
C1620 C1608 1.349 . S
C1620 H1614 0.950 . S
C1620 C1621 1.327 . S
C1621 H1615 0.950 . S
C1621 C1620 1.327 . S
C1621 C1625 1.429 . S
C1622 C1605 1.574 . S
C1622 H1616 0.949 . S
C1622 C1626 1.368 . S
C1623 C1604 1.429 . S
C1623 C1617 1.429 . S
C1623 C1624 1.523 . S
C1624 C1605 1.368 . S
C1624 C1618 1.368 . S
C1624 C1623 1.523 . S
C1625 C1609 1.429 . S
C1625 C1621 1.429 . S
C1625 C1626 1.523 . S
C1626 C1610 1.368 . S
C1626 C1622 1.368 . S
C1626 C1625 1.523 . S
H1627 C1602 0.950 . S
H1628 C1604 0.950 . S
H1629 C1605 0.949 . S
H1630 C1607 0.950 . S
H1631 C1609 0.950 . S
C1632 C1633 1.349 . S
C1632 C1634 1.327 . S
C1632 H1657 0.950 . S
C1633 C1632 1.349 . S
C1633 C1649 1.349 . S
C1634 C1632 1.327 . S
C1634 C1653 1.429 . S
C1634 H1658 0.950 . S
C1635 C1652 1.557 1_565 S
C1635 C1654 1.377 . S
C1635 H1659 0.957 . S
H1636 C1640 0.949 . S
C1637 C1638 1.349 . S
C1637 C1639 1.327 . S
C1637 H1660 0.950 . S
C1638 C1637 1.349 . S
C1638 C1650 1.349 . S
C1639 C1637 1.327 . S
C1639 C1655 1.429 . S
C1639 H1661 0.950 . S
C1640 H1636 0.949 . S
C1640 C1648 1.574 1_545 S
C1640 C1656 1.368 . S
H1641 C1649 0.950 . S
H1642 C1647 0.950 . S
H1643 C1648 0.949 . S
H1644 C1650 0.950 . S
H1645 C1651 0.950 . S
H1646 C1652 0.949 . S
C1647 H1642 0.950 . S
C1647 C1649 1.327 . S
C1647 C1653 1.429 . S
C1648 C1640 1.574 1_565 S
C1648 H1643 0.949 . S
C1648 C1654 1.368 . S
C1649 C1633 1.349 . S
C1649 H1641 0.950 . S
C1649 C1647 1.327 . S
C1650 C1638 1.349 . S
C1650 H1644 0.950 . S
C1650 C1651 1.327 . S
C1651 H1645 0.950 . S
C1651 C1650 1.327 . S
C1651 C1655 1.429 . S
C1652 C1635 1.557 1_545 S
C1652 H1646 0.949 . S
C1652 C1656 1.368 . S
C1653 C1634 1.429 . S
C1653 C1647 1.429 . S
C1653 C1654 1.523 . S
C1654 C1635 1.377 . S
C1654 C1648 1.368 . S
C1654 C1653 1.523 . S
C1655 C1639 1.429 . S
C1655 C1651 1.429 . S
C1655 C1656 1.523 . S
C1656 C1640 1.368 . S
C1656 C1652 1.368 . S
C1656 C1655 1.523 . S
H1657 C1632 0.950 . S
H1658 C1634 0.950 . S
H1659 C1635 0.957 . S
H1660 C1637 0.950 . S
H1661 C1639 0.950 . S
C1662 C1663 1.349 . S
C1662 C1664 1.327 . S
C1662 H1687 0.950 . S
C1663 C1662 1.349 . S
C1663 C1679 1.349 . S
C1664 C1662 1.327 . S
C1664 C1683 1.429 . S
C1664 H1688 0.950 . S
C1665 C1682 1.574 . S
C1665 C1684 1.368 . S
C1665 H1689 0.949 . S
H1666 C1670 0.949 . S
C1667 C1668 1.349 . S
C1667 C1669 1.327 . S
C1667 H1690 0.950 . S
C1668 C1667 1.349 . S
C1668 C1680 1.349 . S
C1669 C1667 1.327 . S
C1669 C1685 1.429 . S
C1669 H1691 0.950 . S
C1670 H1666 0.949 . S
C1670 C1678 1.574 . S
C1670 C1686 1.368 . S
H1671 C1679 0.950 . S
H1672 C1677 0.950 . S
H1673 C1678 0.949 . S
H1674 C1680 0.950 . S
H1675 C1681 0.950 . S
H1676 C1682 0.949 . S
C1677 H1672 0.950 . S
C1677 C1679 1.327 . S
C1677 C1683 1.429 . S
C1678 C1670 1.574 . S
C1678 H1673 0.949 . S
C1678 C1684 1.368 1_455 S
C1679 C1663 1.349 . S
C1679 H1671 0.950 . S
C1679 C1677 1.327 . S
C1680 C1668 1.349 . S
C1680 H1674 0.950 . S
C1680 C1681 1.327 . S
C1681 H1675 0.950 . S
C1681 C1680 1.327 . S
C1681 C1685 1.429 . S
C1682 C1665 1.574 . S
C1682 H1676 0.949 . S
C1682 C1686 1.368 1_655 S
C1683 C1664 1.429 . S
C1683 C1677 1.429 . S
C1683 C1684 1.523 . S
C1684 C1665 1.368 . S
C1684 C1678 1.368 1_655 S
C1684 C1683 1.523 . S
C1685 C1669 1.429 . S
C1685 C1681 1.429 . S
C1685 C1686 1.523 . S
C1686 C1670 1.368 . S
C1686 C1682 1.368 1_455 S
C1686 C1685 1.523 . S
H1687 C1662 0.950 . S
H1688 C1664 0.950 . S
H1689 C1665 0.949 . S
H1690 C1667 0.950 . S
H1691 C1669 0.950 . S
C1692 C1693 1.349 . S
C1692 C1694 1.327 . S
C1692 H1717 0.950 . S
C1693 C1692 1.349 . S
C1693 C1709 1.349 . S
C1694 C1692 1.327 . S
C1694 C1713 1.432 . S
C1694 H1718 0.950 . S
C1695 C1712 1.574 . S
C1695 C1714 1.368 . S
C1695 H1719 0.949 . S
H1696 C1700 0.949 . S
C1697 C1698 1.349 . S
C1697 C1699 1.327 . S
C1697 H1720 0.950 . S
C1698 C1697 1.349 . S
C1698 C1710 1.349 . S
C1699 C1697 1.327 . S
C1699 C1715 1.429 . S
C1699 H1721 0.950 . S
C1700 H1696 0.949 . S
C1700 C1708 1.574 . S
C1700 C1716 1.368 . S
H1701 C1709 0.950 . S
H1702 C1707 0.945 1_554 S
H1703 C1708 0.949 . S
H1704 C1710 0.950 . S
H1705 C1711 0.950 . S
H1706 C1712 0.949 . S
C1707 H1702 0.945 1_556 S
C1707 C1709 1.327 . S
C1707 C1713 1.430 . S
C1708 C1700 1.574 . S
C1708 H1703 0.949 . S
C1708 C1714 1.368 . S
C1709 C1693 1.349 . S
C1709 H1701 0.950 . S
C1709 C1707 1.327 . S
C1710 C1698 1.349 . S
C1710 H1704 0.950 . S
C1710 C1711 1.327 . S
C1711 H1705 0.950 . S
C1711 C1710 1.327 . S
C1711 C1715 1.429 . S
C1712 C1695 1.574 . S
C1712 H1706 0.949 . S
C1712 C1716 1.368 . S
C1713 C1694 1.432 . S
C1713 C1707 1.430 . S
C1713 C1714 1.519 1_556 S
C1714 C1695 1.368 . S
C1714 C1708 1.368 . S
C1714 C1713 1.519 1_554 S
C1715 C1699 1.429 . S
C1715 C1711 1.429 . S
C1715 C1716 1.523 . S
C1716 C1700 1.368 . S
C1716 C1712 1.368 . S
C1716 C1715 1.523 . S
H1717 C1692 0.950 . S
H1718 C1694 0.950 . S
H1719 C1695 0.949 . S
H1720 C1697 0.950 . S
H1721 C1699 0.950 . S
C1722 C1723 1.349 . S
C1722 C1724 1.327 . S
C1722 H1747 0.950 . S
C1723 C1722 1.349 . S
C1723 C1739 1.349 1_556 S
C1724 C1722 1.327 . S
C1724 C1743 1.446 . S
C1724 H1748 0.950 . S
C1725 C1742 1.574 . S
C1725 C1744 1.368 1_655 S
C1725 H1749 0.949 . S
H1726 C1730 0.949 . S
C1727 C1728 1.349 . S
C1727 C1729 1.327 . S
C1727 H1750 0.950 . S
C1728 C1727 1.349 . S
C1728 C1740 1.349 . S
C1729 C1727 1.327 . S
C1729 C1745 1.429 . S
C1729 H1751 0.950 . S
C1730 H1726 0.949 . S
C1730 C1738 1.574 1_565 S
C1730 C1746 1.368 1_456 S
H1731 C1739 0.950 . S
H1732 C1737 0.950 . S
H1733 C1738 0.949 . S
H1734 C1740 0.950 1_556 S
H1735 C1741 0.950 1_556 S
H1736 C1742 0.952 . S
C1737 H1732 0.950 . S
C1737 C1739 1.327 . S
C1737 C1743 1.415 1_554 S
C1738 C1730 1.574 1_545 S
C1738 H1733 0.949 . S
C1738 C1744 1.368 1_556 S
C1739 C1723 1.349 1_554 S
C1739 H1731 0.950 . S
C1739 C1737 1.327 . S
C1740 C1728 1.349 . S
C1740 H1734 0.950 1_554 S
C1740 C1741 1.327 . S
C1741 H1735 0.950 1_554 S
C1741 C1740 1.327 . S
C1741 C1745 1.429 . S
C1742 C1725 1.574 . S
C1742 H1736 0.952 . S
C1742 C1746 1.368 1_545 S
C1743 C1724 1.446 . S
C1743 C1737 1.415 1_556 S
C1743 C1744 1.519 1_556 S
C1744 C1725 1.368 1_455 S
C1744 C1738 1.368 1_554 S
C1744 C1743 1.519 1_554 S
C1745 C1729 1.429 . S
C1745 C1741 1.429 . S
C1745 C1746 1.523 . S
C1746 C1730 1.368 1_654 S
C1746 C1742 1.368 1_565 S
C1746 C1745 1.523 . S
H1747 C1722 0.950 . S
H1748 C1724 0.950 . S
H1749 C1725 0.949 . S
H1750 C1727 0.950 . S
H1751 C1729 0.950 . S
C1752 C1753 1.349 . S
C1752 C1754 1.327 . S
C1752 H1777 0.950 . S
C1753 C1752 1.349 . S
C1753 C1769 1.349 . S
C1754 C1752 1.327 . S
C1754 C1773 1.429 . S
C1754 H1778 0.950 . S
C1755 C1772 1.574 . S
C1755 C1774 1.368 . S
C1755 H1779 0.949 . S
H1756 C1760 0.949 . S
C1757 C1758 1.349 . S
C1757 C1759 1.327 . S
C1757 H1780 0.950 . S
C1758 C1757 1.349 . S
C1758 C1770 1.349 . S
C1759 C1757 1.327 . S
C1759 C1775 1.429 . S
C1759 H1781 0.950 . S
C1760 H1756 0.949 . S
C1760 C1768 1.574 1_565 S
C1760 C1776 1.368 . S
H1761 C1769 0.950 . S
H1762 C1767 0.950 . S
H1763 C1768 0.949 . S
H1764 C1770 0.950 . S
H1765 C1771 0.950 . S
H1766 C1772 0.967 . S
C1767 H1762 0.950 . S
C1767 C1769 1.327 . S
C1767 C1773 1.429 . S
C1768 C1760 1.574 1_545 S
C1768 H1763 0.949 . S
C1768 C1774 1.368 . S
C1769 C1753 1.349 . S
C1769 H1761 0.950 . S
C1769 C1767 1.327 . S
C1770 C1758 1.349 . S
C1770 H1764 0.950 . S
C1770 C1771 1.327 . S
C1771 H1765 0.950 . S
C1771 C1770 1.327 . S
C1771 C1775 1.429 . S
C1772 C1755 1.574 . S
C1772 H1766 0.967 . S
C1772 C1776 1.368 1_545 S
C1773 C1754 1.429 . S
C1773 C1767 1.429 . S
C1773 C1774 1.523 . S
C1774 C1755 1.368 . S
C1774 C1768 1.368 . S
C1774 C1773 1.523 . S
C1775 C1759 1.429 . S
C1775 C1771 1.429 . S
C1775 C1776 1.523 . S
C1776 C1760 1.368 . S
C1776 C1772 1.368 1_565 S
C1776 C1775 1.523 . S
H1777 C1752 0.950 . S
H1778 C1754 0.950 . S
H1779 C1755 0.949 . S
H1780 C1757 0.950 . S
H1781 C1759 0.950 . S
C1782 C1783 1.349 . S
C1782 C1784 1.327 . S
C1782 H1807 0.950 . S
C1783 C1782 1.349 . S
C1783 C1799 1.349 . S
C1784 C1782 1.327 . S
C1784 C1803 1.429 . S
C1784 H1808 0.950 . S
C1785 C1802 1.574 . S
C1785 C1804 1.368 . S
C1785 H1809 0.949 . S
H1786 C1790 0.949 . S
C1787 C1788 1.349 . S
C1787 C1789 1.327 . S
C1787 H1810 0.950 . S
C1788 C1787 1.349 . S
C1788 C1800 1.349 . S
C1789 C1787 1.327 . S
C1789 C1805 1.429 . S
C1789 H1811 0.950 . S
C1790 H1786 0.949 . S
C1790 C1798 1.574 . S
C1790 C1806 1.368 . S
H1791 C1799 0.950 . S
H1792 C1797 0.950 . S
H1793 C1798 0.949 . S
H1794 C1800 0.950 . S
H1795 C1801 0.950 . S
H1796 C1802 0.949 . S
C1797 H1792 0.950 . S
C1797 C1799 1.327 . S
C1797 C1803 1.429 . S
C1798 C1790 1.574 . S
C1798 H1793 0.949 . S
C1798 C1804 1.368 1_655 S
C1799 C1783 1.349 . S
C1799 H1791 0.950 . S
C1799 C1797 1.327 . S
C1800 C1788 1.349 . S
C1800 H1794 0.950 . S
C1800 C1801 1.327 . S
C1801 H1795 0.950 . S
C1801 C1800 1.327 . S
C1801 C1805 1.429 . S
C1802 C1785 1.574 . S
C1802 H1796 0.949 . S
C1802 C1806 1.368 1_455 S
C1803 C1784 1.429 . S
C1803 C1797 1.429 . S
C1803 C1804 1.523 . S
C1804 C1785 1.368 . S
C1804 C1798 1.368 1_455 S
C1804 C1803 1.523 . S
C1805 C1789 1.429 . S
C1805 C1801 1.429 . S
C1805 C1806 1.523 . S
C1806 C1790 1.368 . S
C1806 C1802 1.368 1_655 S
C1806 C1805 1.523 . S
H1807 C1782 0.950 . S
H1808 C1784 0.950 . S
H1809 C1785 0.949 . S
H1810 C1787 0.950 . S
H1811 C1789 0.950 . S
C1812 C1813 1.349 . S
C1812 C1814 1.327 . S
C1812 H1837 0.950 . S
C1813 C1812 1.349 . S
C1813 C1829 1.349 1_556 S
C1814 C1812 1.327 . S
C1814 C1833 1.446 . S
C1814 H1838 0.950 . S
C1815 C1832 1.574 . S
C1815 C1834 1.368 . S
C1815 H1839 0.949 . S
H1816 C1820 0.949 . S
C1817 C1818 1.349 . S
C1817 C1819 1.327 . S
C1817 H1840 0.950 . S
C1818 C1817 1.349 . S
C1818 C1830 1.349 . S
C1819 C1817 1.327 . S
C1819 C1835 1.429 . S
C1819 H1841 0.950 . S
C1820 H1816 0.949 . S
C1820 C1828 1.574 . S
C1820 C1836 1.368 1_556 S
H1821 C1829 0.950 . S
H1822 C1827 0.950 . S
H1823 C1828 0.949 . S
H1824 C1830 0.950 1_556 S
H1825 C1831 0.936 1_556 S
H1826 C1832 0.949 . S
C1827 H1822 0.950 . S
C1827 C1829 1.327 . S
C1827 C1833 1.415 1_554 S
C1828 C1820 1.574 . S
C1828 H1823 0.949 . S
C1828 C1834 1.368 1_556 S
C1829 C1813 1.349 1_554 S
C1829 H1821 0.950 . S
C1829 C1827 1.327 . S
C1830 C1818 1.349 . S
C1830 H1824 0.950 1_554 S
C1830 C1831 1.330 . S
C1831 H1825 0.936 1_554 S
C1831 C1830 1.330 . S
C1831 C1835 1.439 . S
C1832 C1815 1.574 . S
C1832 H1826 0.949 . S
C1832 C1836 1.368 . S
C1833 C1814 1.446 . S
C1833 C1827 1.415 1_556 S
C1833 C1834 1.519 1_556 S
C1834 C1815 1.368 . S
C1834 C1828 1.368 1_554 S
C1834 C1833 1.519 1_554 S
C1835 C1819 1.429 . S
C1835 C1831 1.439 . S
C1835 C1836 1.523 . S
C1836 C1820 1.368 1_554 S
C1836 C1832 1.368 . S
C1836 C1835 1.523 . S
H1837 C1812 0.950 . S
H1838 C1814 0.950 . S
H1839 C1815 0.949 . S
H1840 C1817 0.950 . S
H1841 C1819 0.950 . S
C1842 C1843 1.349 . S
C1842 C1844 1.327 . S
C1842 H1867 0.950 . S
C1843 C1842 1.349 . S
C1843 C1859 1.349 . S
C1844 C1842 1.327 . S
C1844 C1863 1.429 . S
C1844 H1868 0.950 . S
C1845 C1862 1.574 . S
C1845 C1864 1.368 . S
C1845 H1869 0.949 . S
H1846 C1850 0.949 . S
C1847 C1848 1.349 . S
C1847 C1849 1.327 . S
C1847 H1870 0.950 . S
C1848 C1847 1.349 . S
C1848 C1860 1.349 . S
C1849 C1847 1.327 . S
C1849 C1865 1.429 . S
C1849 H1871 0.950 . S
C1850 H1846 0.949 . S
C1850 C1858 1.574 . S
C1850 C1866 1.368 . S
H1851 C1859 0.950 . S
H1852 C1857 0.950 . S
H1853 C1858 0.949 . S
H1854 C1860 0.950 . S
H1855 C1861 0.950 . S
H1856 C1862 0.949 . S
C1857 H1852 0.950 . S
C1857 C1859 1.327 . S
C1857 C1863 1.429 . S
C1858 C1850 1.574 . S
C1858 H1853 0.949 . S
C1858 C1864 1.368 . S
C1859 C1843 1.349 . S
C1859 H1851 0.950 . S
C1859 C1857 1.327 . S
C1860 C1848 1.349 . S
C1860 H1854 0.950 . S
C1860 C1861 1.327 . S
C1861 H1855 0.950 . S
C1861 C1860 1.327 . S
C1861 C1865 1.429 . S
C1862 C1845 1.574 . S
C1862 H1856 0.949 . S
C1862 C1866 1.368 . S
C1863 C1844 1.429 . S
C1863 C1857 1.429 . S
C1863 C1864 1.523 . S
C1864 C1845 1.368 . S
C1864 C1858 1.368 . S
C1864 C1863 1.523 . S
C1865 C1849 1.429 . S
C1865 C1861 1.429 . S
C1865 C1866 1.523 . S
C1866 C1850 1.368 . S
C1866 C1862 1.368 . S
C1866 C1865 1.523 . S
H1867 C1842 0.950 . S
H1868 C1844 0.950 . S
H1869 C1845 0.949 . S
H1870 C1847 0.950 . S
H1871 C1849 0.950 . S
C1872 C1873 1.349 . S
C1872 C1874 1.327 . S
C1872 H1897 0.950 . S
C1873 C1872 1.349 . S
C1873 C1889 1.349 . S
C1874 C1872 1.327 . S
C1874 C1893 1.429 . S
C1874 H1898 0.950 . S
C1875 C1892 1.574 . S
C1875 C1894 1.368 . S
C1875 H1899 0.949 . S
H1876 C1880 0.949 . S
C1877 C1878 1.349 . S
C1877 C1879 1.327 . S
C1877 H1900 0.950 . S
C1878 C1877 1.349 . S
C1878 C1890 1.349 . S
C1879 C1877 1.327 . S
C1879 C1895 1.429 . S
C1879 H1901 0.950 . S
C1880 H1876 0.949 . S
C1880 C1888 1.574 . S
C1880 C1896 1.368 . S
H1881 C1889 0.950 . S
H1882 C1887 0.950 . S
H1883 C1888 0.949 . S
H1884 C1890 0.950 . S
H1885 C1891 0.950 . S
H1886 C1892 0.949 . S
C1887 H1882 0.950 . S
C1887 C1889 1.327 . S
C1887 C1893 1.429 . S
C1888 C1880 1.574 . S
C1888 H1883 0.949 . S
C1888 C1894 1.368 . S
C1889 C1873 1.349 . S
C1889 H1881 0.950 . S
C1889 C1887 1.327 . S
C1890 C1878 1.349 . S
C1890 H1884 0.950 . S
C1890 C1891 1.327 . S
C1891 H1885 0.950 . S
C1891 C1890 1.327 . S
C1891 C1895 1.429 . S
C1892 C1875 1.574 . S
C1892 H1886 0.949 . S
C1892 C1896 1.368 . S
C1893 C1874 1.429 . S
C1893 C1887 1.429 . S
C1893 C1894 1.523 . S
C1894 C1875 1.368 . S
C1894 C1888 1.368 . S
C1894 C1893 1.523 . S
C1895 C1879 1.429 . S
C1895 C1891 1.429 . S
C1895 C1896 1.523 . S
C1896 C1880 1.368 . S
C1896 C1892 1.368 . S
C1896 C1895 1.523 . S
H1897 C1872 0.950 . S
H1898 C1874 0.950 . S
H1899 C1875 0.949 . S
H1900 C1877 0.950 . S
H1901 C1879 0.950 . S
C1902 C1903 1.349 . S
C1902 C1904 1.327 . S
C1902 H1927 0.950 . S
C1903 C1902 1.349 . S
C1903 C1919 1.349 . S
C1904 C1902 1.327 . S
C1904 C1923 1.429 . S
C1904 H1928 0.950 . S
C1905 C1922 1.574 . S
C1905 C1924 1.368 1_455 S
C1905 H1929 0.949 . S
H1906 C1910 0.949 . S
C1907 C1908 1.349 . S
C1907 C1909 1.327 . S
C1907 H1930 0.950 . S
C1908 C1907 1.349 . S
C1908 C1920 1.349 . S
C1909 C1907 1.327 . S
C1909 C1925 1.429 . S
C1909 H1931 0.950 . S
C1910 H1906 0.949 . S
C1910 C1918 1.574 . S
C1910 C1926 1.368 1_655 S
H1911 C1919 0.950 . S
H1912 C1917 0.941 1_455 S
H1913 C1918 0.949 . S
H1914 C1920 0.950 . S
H1915 C1921 0.950 1_655 S
H1916 C1922 0.949 . S
C1917 H1912 0.941 1_655 S
C1917 C1919 1.327 . S
C1917 C1923 1.429 . S
C1918 C1910 1.574 . S
C1918 H1913 0.949 . S
C1918 C1924 1.368 . S
C1919 C1903 1.349 . S
C1919 H1911 0.950 . S
C1919 C1917 1.327 . S
C1920 C1908 1.349 . S
C1920 H1914 0.950 . S
C1920 C1921 1.327 . S
C1921 H1915 0.950 1_455 S
C1921 C1920 1.327 . S
C1921 C1925 1.429 . S
C1922 C1905 1.574 . S
C1922 H1916 0.949 . S
C1922 C1926 1.368 . S
C1923 C1904 1.429 . S
C1923 C1917 1.429 . S
C1923 C1924 1.523 . S
C1924 C1905 1.368 1_655 S
C1924 C1918 1.368 . S
C1924 C1923 1.523 . S
C1925 C1909 1.429 . S
C1925 C1921 1.429 . S
C1925 C1926 1.523 . S
C1926 C1910 1.368 1_455 S
C1926 C1922 1.368 . S
C1926 C1925 1.523 . S
H1927 C1902 0.950 . S
H1928 C1904 0.950 . S
H1929 C1905 0.949 . S
H1930 C1907 0.950 . S
H1931 C1909 0.950 . S
C1932 C1933 1.349 . S
C1932 C1934 1.327 . S
C1932 H1957 0.950 . S
C1933 C1932 1.349 . S
C1933 C1949 1.349 . S
C1934 C1932 1.327 . S
C1934 C1953 1.429 . S
C1934 H1958 0.950 . S
C1935 C1952 1.574 . S
C1935 C1954 1.368 . S
C1935 H1959 0.949 . S
H1936 C1940 0.949 . S
C1937 C1938 1.349 . S
C1937 C1939 1.327 . S
C1937 H1960 0.950 . S
C1938 C1937 1.349 . S
C1938 C1950 1.349 . S
C1939 C1937 1.327 . S
C1939 C1955 1.429 . S
C1939 H1961 0.950 . S
C1940 H1936 0.949 . S
C1940 C1948 1.574 . S
C1940 C1956 1.368 . S
H1941 C1949 0.950 . S
H1942 C1947 0.950 . S
H1943 C1948 0.949 . S
H1944 C1950 0.950 . S
H1945 C1951 0.950 . S
H1946 C1952 0.949 . S
C1947 H1942 0.950 . S
C1947 C1949 1.327 . S
C1947 C1953 1.429 . S
C1948 C1940 1.574 . S
C1948 H1943 0.949 . S
C1948 C1954 1.368 . S
C1949 C1933 1.349 . S
C1949 H1941 0.950 . S
C1949 C1947 1.327 . S
C1950 C1938 1.349 . S
C1950 H1944 0.950 . S
C1950 C1951 1.327 . S
C1951 H1945 0.950 . S
C1951 C1950 1.327 . S
C1951 C1955 1.429 . S
C1952 C1935 1.574 . S
C1952 H1946 0.949 . S
C1952 C1956 1.368 . S
C1953 C1934 1.429 . S
C1953 C1947 1.429 . S
C1953 C1954 1.523 . S
C1954 C1935 1.368 . S
C1954 C1948 1.368 . S
C1954 C1953 1.523 . S
C1955 C1939 1.429 . S
C1955 C1951 1.429 . S
C1955 C1956 1.523 . S
C1956 C1940 1.368 . S
C1956 C1952 1.368 . S
C1956 C1955 1.523 . S
H1957 C1932 0.950 . S
H1958 C1934 0.950 . S
H1959 C1935 0.949 . S
H1960 C1937 0.950 . S
H1961 C1939 0.950 . S
C1962 C1963 1.349 . S
C1962 C1964 1.327 . S
C1962 H1987 0.950 . S
C1963 C1962 1.349 . S
C1963 C1979 1.349 . S
C1964 C1962 1.327 . S
C1964 C1983 1.429 . S
C1964 H1988 0.950 . S
C1965 C1982 1.574 . S
C1965 C1984 1.368 . S
C1965 H1989 0.949 . S
H1966 C1970 0.949 . S
C1967 C1968 1.349 . S
C1967 C1969 1.327 . S
C1967 H1990 0.950 . S
C1968 C1967 1.349 . S
C1968 C1980 1.349 . S
C1969 C1967 1.327 . S
C1969 C1985 1.429 . S
C1969 H1991 0.950 . S
C1970 H1966 0.949 . S
C1970 C1978 1.574 . S
C1970 C1986 1.368 . S
H1971 C1979 0.950 . S
H1972 C1977 0.950 . S
H1973 C1978 0.949 . S
H1974 C1980 0.950 . S
H1975 C1981 0.950 . S
H1976 C1982 0.949 . S
C1977 H1972 0.950 . S
C1977 C1979 1.327 . S
C1977 C1983 1.429 . S
C1978 C1970 1.574 . S
C1978 H1973 0.949 . S
C1978 C1984 1.368 . S
C1979 C1963 1.349 . S
C1979 H1971 0.950 . S
C1979 C1977 1.327 . S
C1980 C1968 1.349 . S
C1980 H1974 0.950 . S
C1980 C1981 1.327 . S
C1981 H1975 0.950 . S
C1981 C1980 1.327 . S
C1981 C1985 1.429 . S
C1982 C1965 1.574 . S
C1982 H1976 0.949 . S
C1982 C1986 1.368 . S
C1983 C1964 1.429 . S
C1983 C1977 1.429 . S
C1983 C1984 1.523 . S
C1984 C1965 1.368 . S
C1984 C1978 1.368 . S
C1984 C1983 1.523 . S
C1985 C1969 1.429 . S
C1985 C1981 1.429 . S
C1985 C1986 1.523 . S
C1986 C1970 1.368 . S
C1986 C1982 1.368 . S
C1986 C1985 1.523 . S
H1987 C1962 0.950 . S
H1988 C1964 0.950 . S
H1989 C1965 0.949 . S
H1990 C1967 0.950 . S
H1991 C1969 0.950 . S
C1992 C1993 1.349 . S
C1992 C1994 1.327 . S
C1992 H2017 0.950 . S
C1993 C1992 1.349 . S
C1993 C2009 1.349 . S
C1994 C1992 1.327 . S
C1994 C2013 1.429 . S
C1994 H2018 0.950 . S
C1995 C2012 1.574 . S
C1995 C2014 1.368 . S
C1995 H2019 0.949 . S
H1996 C2000 0.949 . S
C1997 C1998 1.349 . S
C1997 C1999 1.327 . S
C1997 H2020 0.950 . S
C1998 C1997 1.349 . S
C1998 C2010 1.349 . S
C1999 C1997 1.327 . S
C1999 C2015 1.429 . S
C1999 H2021 0.950 . S
C2000 H1996 0.949 . S
C2000 C2008 1.574 . S
C2000 C2016 1.368 . S
H2001 C2009 0.950 . S
H2002 C2007 0.950 . S
H2003 C2008 0.949 . S
H2004 C2010 0.950 . S
H2005 C2011 0.950 . S
H2006 C2012 0.949 . S
C2007 H2002 0.950 . S
C2007 C2009 1.327 . S
C2007 C2013 1.429 . S
C2008 C2000 1.574 . S
C2008 H2003 0.949 . S
C2008 C2014 1.368 . S
C2009 C1993 1.349 . S
C2009 H2001 0.950 . S
C2009 C2007 1.327 . S
C2010 C1998 1.349 . S
C2010 H2004 0.950 . S
C2010 C2011 1.327 . S
C2011 H2005 0.950 . S
C2011 C2010 1.327 . S
C2011 C2015 1.429 . S
C2012 C1995 1.574 . S
C2012 H2006 0.949 . S
C2012 C2016 1.368 . S
C2013 C1994 1.429 . S
C2013 C2007 1.429 . S
C2013 C2014 1.523 . S
C2014 C1995 1.368 . S
C2014 C2008 1.368 . S
C2014 C2013 1.523 . S
C2015 C1999 1.429 . S
C2015 C2011 1.429 . S
C2015 C2016 1.523 . S
C2016 C2000 1.368 . S
C2016 C2012 1.368 . S
C2016 C2015 1.523 . S
H2017 C1992 0.950 . S
H2018 C1994 0.950 . S
H2019 C1995 0.949 . S
H2020 C1997 0.950 . S
H2021 C1999 0.950 . S
C2022 C2023 1.349 . S
C2022 C2024 1.327 . S
C2022 H2047 0.950 . S
C2023 C2022 1.349 . S
C2023 C2039 1.349 . S
C2024 C2022 1.327 . S
C2024 C2043 1.429 . S
C2024 H2048 0.950 . S
C2025 C2042 1.574 . S
C2025 C2044 1.368 . S
C2025 H2049 0.949 . S
H2026 C2030 0.949 . S
C2027 C2028 1.349 . S
C2027 C2029 1.327 . S
C2027 H2050 0.950 . S
C2028 C2027 1.349 . S
C2028 C2040 1.349 . S
C2029 C2027 1.327 . S
C2029 C2045 1.429 . S
C2029 H2051 0.950 . S
C2030 H2026 0.949 . S
C2030 C2038 1.574 1_565 S
C2030 C2046 1.368 . S
H2031 C2039 0.950 . S
H2032 C2037 0.950 . S
H2033 C2038 0.949 . S
H2034 C2040 0.950 . S
H2035 C2041 0.950 . S
H2036 C2042 0.957 . S
C2037 H2032 0.950 . S
C2037 C2039 1.327 . S
C2037 C2043 1.429 . S
C2038 C2030 1.574 1_545 S
C2038 H2033 0.949 . S
C2038 C2044 1.368 . S
C2039 C2023 1.349 . S
C2039 H2031 0.950 . S
C2039 C2037 1.327 . S
C2040 C2028 1.349 . S
C2040 H2034 0.950 . S
C2040 C2041 1.327 . S
C2041 H2035 0.950 . S
C2041 C2040 1.327 . S
C2041 C2045 1.429 . S
C2042 C2025 1.574 . S
C2042 H2036 0.957 . S
C2042 C2046 1.368 1_545 S
C2043 C2024 1.429 . S
C2043 C2037 1.429 . S
C2043 C2044 1.523 . S
C2044 C2025 1.368 . S
C2044 C2038 1.368 . S
C2044 C2043 1.523 . S
C2045 C2029 1.429 . S
C2045 C2041 1.429 . S
C2045 C2046 1.523 . S
C2046 C2030 1.368 . S
C2046 C2042 1.368 1_565 S
C2046 C2045 1.523 . S
H2047 C2022 0.950 . S
H2048 C2024 0.950 . S
H2049 C2025 0.949 . S
H2050 C2027 0.950 . S
H2051 C2029 0.950 . S
C2052 C2053 1.349 . S
C2052 C2054 1.327 . S
C2052 H2077 0.950 . S
C2053 C2052 1.349 . S
C2053 C2069 1.349 . S
C2054 C2052 1.327 . S
C2054 C2073 1.429 . S
C2054 H2078 0.950 . S
C2055 C2072 1.574 . S
C2055 C2074 1.368 . S
C2055 H2079 0.949 . S
H2056 C2060 0.949 . S
C2057 C2058 1.349 . S
C2057 C2059 1.327 . S
C2057 H2080 0.950 . S
C2058 C2057 1.349 . S
C2058 C2070 1.349 . S
C2059 C2057 1.327 . S
C2059 C2075 1.429 . S
C2059 H2081 0.950 . S
C2060 H2056 0.949 . S
C2060 C2068 1.574 . S
C2060 C2076 1.368 . S
H2061 C2069 0.950 . S
H2062 C2067 0.950 . S
H2063 C2068 0.949 . S
H2064 C2070 0.950 . S
H2065 C2071 0.950 . S
H2066 C2072 0.949 . S
C2067 H2062 0.950 . S
C2067 C2069 1.327 . S
C2067 C2073 1.429 . S
C2068 C2060 1.574 . S
C2068 H2063 0.949 . S
C2068 C2074 1.368 . S
C2069 C2053 1.349 . S
C2069 H2061 0.950 . S
C2069 C2067 1.327 . S
C2070 C2058 1.349 . S
C2070 H2064 0.950 . S
C2070 C2071 1.327 . S
C2071 H2065 0.950 . S
C2071 C2070 1.327 . S
C2071 C2075 1.429 . S
C2072 C2055 1.574 . S
C2072 H2066 0.949 . S
C2072 C2076 1.368 . S
C2073 C2054 1.429 . S
C2073 C2067 1.429 . S
C2073 C2074 1.523 . S
C2074 C2055 1.368 . S
C2074 C2068 1.368 . S
C2074 C2073 1.523 . S
C2075 C2059 1.429 . S
C2075 C2071 1.429 . S
C2075 C2076 1.523 . S
C2076 C2060 1.368 . S
C2076 C2072 1.368 . S
C2076 C2075 1.523 . S
H2077 C2052 0.950 . S
H2078 C2054 0.950 . S
H2079 C2055 0.949 . S
H2080 C2057 0.950 . S
H2081 C2059 0.950 . S
C2082 C2083 1.349 . S
C2082 C2084 1.327 . S
C2082 H2107 0.950 . S
C2083 C2082 1.349 . S
C2083 C2099 1.349 . S
C2084 C2082 1.327 . S
C2084 C2103 1.429 . S
C2084 H2108 0.950 . S
C2085 C2102 1.574 . S
C2085 C2104 1.368 . S
C2085 H2109 0.949 . S
H2086 C2090 0.949 . S
C2087 C2088 1.349 . S
C2087 C2089 1.327 . S
C2087 H2110 0.950 . S
C2088 C2087 1.349 . S
C2088 C2100 1.349 . S
C2089 C2087 1.327 . S
C2089 C2105 1.430 . S
C2089 H2111 0.947 1_556 S
C2090 H2086 0.949 . S
C2090 C2098 1.574 . S
C2090 C2106 1.368 . S
H2091 C2099 0.950 . S
H2092 C2097 0.950 . S
H2093 C2098 0.949 . S
H2094 C2100 0.950 . S
H2095 C2101 0.950 . S
H2096 C2102 0.949 . S
C2097 H2092 0.950 . S
C2097 C2099 1.327 . S
C2097 C2103 1.429 . S
C2098 C2090 1.574 . S
C2098 H2093 0.949 . S
C2098 C2104 1.368 . S
C2099 C2083 1.349 . S
C2099 H2091 0.950 . S
C2099 C2097 1.327 . S
C2100 C2088 1.349 . S
C2100 H2094 0.950 . S
C2100 C2101 1.327 . S
C2101 H2095 0.950 . S
C2101 C2100 1.327 . S
C2101 C2105 1.432 . S
C2102 C2085 1.574 . S
C2102 H2096 0.949 . S
C2102 C2106 1.368 . S
C2103 C2084 1.429 . S
C2103 C2097 1.429 . S
C2103 C2104 1.523 . S
C2104 C2085 1.368 . S
C2104 C2098 1.368 . S
C2104 C2103 1.523 . S
C2105 C2089 1.430 . S
C2105 C2101 1.432 . S
C2105 C2106 1.519 1_556 S
C2106 C2090 1.368 . S
C2106 C2102 1.368 . S
C2106 C2105 1.519 1_554 S
H2107 C2082 0.950 . S
H2108 C2084 0.950 . S
H2109 C2085 0.949 . S
H2110 C2087 0.950 . S
H2111 C2089 0.947 1_554 S
C2112 C2113 1.349 . S
C2112 C2114 1.327 . S
C2112 H2137 0.950 . S
C2113 C2112 1.349 . S
C2113 C2129 1.349 . S
C2114 C2112 1.327 . S
C2114 C2133 1.429 . S
C2114 H2138 0.950 . S
C2115 C2132 1.574 . S
C2115 C2134 1.368 . S
C2115 H2139 0.949 . S
H2116 C2120 0.949 . S
C2117 C2118 1.349 . S
C2117 C2119 1.327 . S
C2117 H2140 0.950 . S
C2118 C2117 1.349 . S
C2118 C2130 1.349 . S
C2119 C2117 1.327 . S
C2119 C2135 1.429 . S
C2119 H2141 0.950 . S
C2120 H2116 0.949 . S
C2120 C2128 1.574 . S
C2120 C2136 1.368 . S
H2121 C2129 0.950 . S
H2122 C2127 0.950 . S
H2123 C2128 0.949 . S
H2124 C2130 0.950 . S
H2125 C2131 0.950 . S
H2126 C2132 0.949 . S
C2127 H2122 0.950 . S
C2127 C2129 1.327 . S
C2127 C2133 1.429 . S
C2128 C2120 1.574 . S
C2128 H2123 0.949 . S
C2128 C2134 1.368 . S
C2129 C2113 1.349 . S
C2129 H2121 0.950 . S
C2129 C2127 1.327 . S
C2130 C2118 1.349 . S
C2130 H2124 0.950 . S
C2130 C2131 1.327 . S
C2131 H2125 0.950 . S
C2131 C2130 1.327 . S
C2131 C2135 1.429 . S
C2132 C2115 1.574 . S
C2132 H2126 0.949 . S
C2132 C2136 1.368 . S
C2133 C2114 1.429 . S
C2133 C2127 1.429 . S
C2133 C2134 1.523 . S
C2134 C2115 1.368 . S
C2134 C2128 1.368 . S
C2134 C2133 1.523 . S
C2135 C2119 1.429 . S
C2135 C2131 1.429 . S
C2135 C2136 1.523 . S
C2136 C2120 1.368 . S
C2136 C2132 1.368 . S
C2136 C2135 1.523 . S
H2137 C2112 0.950 . S
H2138 C2114 0.950 . S
H2139 C2115 0.949 . S
H2140 C2117 0.950 . S
H2141 C2119 0.950 . S
C2142 C2143 1.349 1_554 S
C2142 C2144 1.327 . S
C2142 H2167 0.950 . S
C2143 C2142 1.349 1_556 S
C2143 C2159 1.349 . S
C2144 C2142 1.327 . S
C2144 C2163 1.429 1_554 S
C2144 H2168 0.950 . S
C2145 C2162 1.574 . S
C2145 C2164 1.368 . S
C2145 H2169 0.949 . S
H2146 C2150 0.949 . S
C2147 C2148 1.349 . S
C2147 C2149 1.327 . S
C2147 H2170 0.950 . S
C2148 C2147 1.349 . S
C2148 C2160 1.349 1_556 S
C2149 C2147 1.327 . S
C2149 C2165 1.429 . S
C2149 H2171 0.950 . S
C2150 H2146 0.949 . S
C2150 C2158 1.574 . S
C2150 C2166 1.368 1_554 S
H2151 C2159 0.950 . S
H2152 C2157 0.950 . S
H2153 C2158 0.949 . S
H2154 C2160 0.950 . S
H2155 C2161 0.950 . S
H2156 C2162 0.949 . S
C2157 H2152 0.950 . S
C2157 C2159 1.327 . S
C2157 C2163 1.429 . S
C2158 C2150 1.574 . S
C2158 H2153 0.949 . S
C2158 C2164 1.368 1_554 S
C2159 C2143 1.349 . S
C2159 H2151 0.950 . S
C2159 C2157 1.327 . S
C2160 C2148 1.349 1_554 S
C2160 H2154 0.950 . S
C2160 C2161 1.327 . S
C2161 H2155 0.950 . S
C2161 C2160 1.327 . S
C2161 C2165 1.429 1_554 S
C2162 C2145 1.574 . S
C2162 H2156 0.949 . S
C2162 C2166 1.368 . S
C2163 C2144 1.429 1_556 S
C2163 C2157 1.429 . S
C2163 C2164 1.523 . S
C2164 C2145 1.368 . S
C2164 C2158 1.368 1_556 S
C2164 C2163 1.523 . S
C2165 C2149 1.429 . S
C2165 C2161 1.429 1_556 S
C2165 C2166 1.523 . S
C2166 C2150 1.368 1_556 S
C2166 C2162 1.368 . S
C2166 C2165 1.523 . S
H2167 C2142 0.950 . S
H2168 C2144 0.950 . S
H2169 C2145 0.949 . S
H2170 C2147 0.950 . S
H2171 C2149 0.950 . S
C2172 C2173 1.349 . S
C2172 C2174 1.327 . S
C2172 H2197 0.950 . S
C2173 C2172 1.349 . S
C2173 C2189 1.349 . S
C2174 C2172 1.327 . S
C2174 C2193 1.429 . S
C2174 H2198 0.950 . S
C2175 C2192 1.574 . S
C2175 C2194 1.368 . S
C2175 H2199 0.949 . S
H2176 C2180 0.949 . S
C2177 C2178 1.349 . S
C2177 C2179 1.327 . S
C2177 H2200 0.950 . S
C2178 C2177 1.349 . S
C2178 C2190 1.349 . S
C2179 C2177 1.327 . S
C2179 C2195 1.429 . S
C2179 H2201 0.950 . S
C2180 H2176 0.949 . S
C2180 C2188 1.574 . S
C2180 C2196 1.368 . S
H2181 C2189 0.950 . S
H2182 C2187 0.950 . S
H2183 C2188 0.949 . S
H2184 C2190 0.950 . S
H2185 C2191 0.950 . S
H2186 C2192 0.949 . S
C2187 H2182 0.950 . S
C2187 C2189 1.327 . S
C2187 C2193 1.429 . S
C2188 C2180 1.574 . S
C2188 H2183 0.949 . S
C2188 C2194 1.368 . S
C2189 C2173 1.349 . S
C2189 H2181 0.950 . S
C2189 C2187 1.327 . S
C2190 C2178 1.349 . S
C2190 H2184 0.950 . S
C2190 C2191 1.327 . S
C2191 H2185 0.950 . S
C2191 C2190 1.327 . S
C2191 C2195 1.429 . S
C2192 C2175 1.574 . S
C2192 H2186 0.949 . S
C2192 C2196 1.368 . S
C2193 C2174 1.429 . S
C2193 C2187 1.429 . S
C2193 C2194 1.523 . S
C2194 C2175 1.368 . S
C2194 C2188 1.368 . S
C2194 C2193 1.523 . S
C2195 C2179 1.429 . S
C2195 C2191 1.429 . S
C2195 C2196 1.523 . S
C2196 C2180 1.368 . S
C2196 C2192 1.368 . S
C2196 C2195 1.523 . S
H2197 C2172 0.950 . S
H2198 C2174 0.950 . S
H2199 C2175 0.949 . S
H2200 C2177 0.950 . S
H2201 C2179 0.950 . S
C2202 C2203 1.349 . S
C2202 C2204 1.327 . S
C2202 H2227 0.950 . S
C2203 C2202 1.349 . S
C2203 C2219 1.349 . S
C2204 C2202 1.327 . S
C2204 C2223 1.429 . S
C2204 H2228 0.950 . S
C2205 C2222 1.574 . S
C2205 C2224 1.368 . S
C2205 H2229 0.949 1_554 S
H2206 C2210 0.949 . S
C2207 C2208 1.349 . S
C2207 C2209 1.327 . S
C2207 H2230 0.950 1_554 S
C2208 C2207 1.349 . S
C2208 C2220 1.349 . S
C2209 C2207 1.327 . S
C2209 C2225 1.429 . S
C2209 H2231 0.950 1_554 S
C2210 H2206 0.949 . S
C2210 C2218 1.574 . S
C2210 C2226 1.368 . S
H2211 C2219 0.950 1_556 S
H2212 C2217 0.950 1_556 S
H2213 C2218 0.949 . S
H2214 C2220 0.950 . S
H2215 C2221 0.950 . S
H2216 C2222 0.949 1_556 S
C2217 H2212 0.950 1_554 S
C2217 C2219 1.327 . S
C2217 C2223 1.429 . S
C2218 C2210 1.574 . S
C2218 H2213 0.949 . S
C2218 C2224 1.368 . S
C2219 C2203 1.349 . S
C2219 H2211 0.950 1_554 S
C2219 C2217 1.327 . S
C2220 C2208 1.349 . S
C2220 H2214 0.950 . S
C2220 C2221 1.327 . S
C2221 H2215 0.950 . S
C2221 C2220 1.327 . S
C2221 C2225 1.429 . S
C2222 C2205 1.574 . S
C2222 H2216 0.949 1_554 S
C2222 C2226 1.368 . S
C2223 C2204 1.429 . S
C2223 C2217 1.429 . S
C2223 C2224 1.523 . S
C2224 C2205 1.368 . S
C2224 C2218 1.368 . S
C2224 C2223 1.523 . S
C2225 C2209 1.429 . S
C2225 C2221 1.429 . S
C2225 C2226 1.523 . S
C2226 C2210 1.368 . S
C2226 C2222 1.368 . S
C2226 C2225 1.523 . S
H2227 C2202 0.950 . S
H2228 C2204 0.950 . S
H2229 C2205 0.949 1_556 S
H2230 C2207 0.950 1_556 S
H2231 C2209 0.950 1_556 S
C2232 C2233 1.349 . S
C2232 C2234 1.327 . S
C2232 H2257 0.950 . S
C2233 C2232 1.349 . S
C2233 C2249 1.349 . S
C2234 C2232 1.327 . S
C2234 C2253 1.429 . S
C2234 H2258 0.950 . S
C2235 C2252 1.574 . S
C2235 C2254 1.368 . S
C2235 H2259 0.949 . S
H2236 C2240 0.949 . S
C2237 C2238 1.349 . S
C2237 C2239 1.327 . S
C2237 H2260 0.950 . S
C2238 C2237 1.349 . S
C2238 C2250 1.349 . S
C2239 C2237 1.327 . S
C2239 C2255 1.429 . S
C2239 H2261 0.950 . S
C2240 H2236 0.949 . S
C2240 C2248 1.574 . S
C2240 C2256 1.368 . S
H2241 C2249 0.950 . S
H2242 C2247 0.950 . S
H2243 C2248 0.949 . S
H2244 C2250 0.950 . S
H2245 C2251 0.950 . S
H2246 C2252 0.949 . S
C2247 H2242 0.950 . S
C2247 C2249 1.327 . S
C2247 C2253 1.429 . S
C2248 C2240 1.574 . S
C2248 H2243 0.949 . S
C2248 C2254 1.368 . S
C2249 C2233 1.349 . S
C2249 H2241 0.950 . S
C2249 C2247 1.327 . S
C2250 C2238 1.349 . S
C2250 H2244 0.950 . S
C2250 C2251 1.327 . S
C2251 H2245 0.950 . S
C2251 C2250 1.327 . S
C2251 C2255 1.429 . S
C2252 C2235 1.574 . S
C2252 H2246 0.949 . S
C2252 C2256 1.368 . S
C2253 C2234 1.429 . S
C2253 C2247 1.429 . S
C2253 C2254 1.523 . S
C2254 C2235 1.368 . S
C2254 C2248 1.368 . S
C2254 C2253 1.523 . S
C2255 C2239 1.429 . S
C2255 C2251 1.429 . S
C2255 C2256 1.523 . S
C2256 C2240 1.368 . S
C2256 C2252 1.368 . S
C2256 C2255 1.523 . S
H2257 C2232 0.950 . S
H2258 C2234 0.950 . S
H2259 C2235 0.949 . S
H2260 C2237 0.950 . S
H2261 C2239 0.950 . S
C2262 C2263 1.349 . S
C2262 C2264 1.327 . S
C2262 H2287 0.950 . S
C2263 C2262 1.349 . S
C2263 C2279 1.349 . S
C2264 C2262 1.327 . S
C2264 C2283 1.429 . S
C2264 H2288 0.950 . S
C2265 C2282 1.574 . S
C2265 C2284 1.368 . S
C2265 H2289 0.949 . S
H2266 C2270 0.949 . S
C2267 C2268 1.349 . S
C2267 C2269 1.327 . S
C2267 H2290 0.950 . S
C2268 C2267 1.349 . S
C2268 C2280 1.349 . S
C2269 C2267 1.327 . S
C2269 C2285 1.429 . S
C2269 H2291 0.950 . S
C2270 H2266 0.949 . S
C2270 C2278 1.574 . S
C2270 C2286 1.368 . S
H2271 C2279 0.950 . S
H2272 C2277 0.950 . S
H2273 C2278 0.949 . S
H2274 C2280 0.950 . S
H2275 C2281 0.950 . S
H2276 C2282 0.949 . S
C2277 H2272 0.950 . S
C2277 C2279 1.327 . S
C2277 C2283 1.429 . S
C2278 C2270 1.574 . S
C2278 H2273 0.949 . S
C2278 C2284 1.368 . S
C2279 C2263 1.349 . S
C2279 H2271 0.950 . S
C2279 C2277 1.327 . S
C2280 C2268 1.349 . S
C2280 H2274 0.950 . S
C2280 C2281 1.327 . S
C2281 H2275 0.950 . S
C2281 C2280 1.327 . S
C2281 C2285 1.429 . S
C2282 C2265 1.574 . S
C2282 H2276 0.949 . S
C2282 C2286 1.368 . S
C2283 C2264 1.429 . S
C2283 C2277 1.429 . S
C2283 C2284 1.523 . S
C2284 C2265 1.368 . S
C2284 C2278 1.368 . S
C2284 C2283 1.523 . S
C2285 C2269 1.429 . S
C2285 C2281 1.429 . S
C2285 C2286 1.523 . S
C2286 C2270 1.368 . S
C2286 C2282 1.368 . S
C2286 C2285 1.523 . S
H2287 C2262 0.950 . S
H2288 C2264 0.950 . S
H2289 C2265 0.949 . S
H2290 C2267 0.950 . S
H2291 C2269 0.950 . S
C2292 C2293 1.349 . S
C2292 C2294 1.327 . S
C2292 H2317 0.950 . S
C2293 C2292 1.349 . S
C2293 C2309 1.349 . S
C2294 C2292 1.327 . S
C2294 C2313 1.429 . S
C2294 H2318 0.950 . S
C2295 C2312 1.574 . S
C2295 C2314 1.368 . S
C2295 H2319 0.949 . S
H2296 C2300 0.949 . S
C2297 C2298 1.349 . S
C2297 C2299 1.327 . S
C2297 H2320 0.950 . S
C2298 C2297 1.349 . S
C2298 C2310 1.349 . S
C2299 C2297 1.327 . S
C2299 C2315 1.429 . S
C2299 H2321 0.950 . S
C2300 H2296 0.949 . S
C2300 C2308 1.574 . S
C2300 C2316 1.368 . S
H2301 C2309 0.950 . S
H2302 C2307 0.950 . S
H2303 C2308 0.949 . S
H2304 C2310 0.950 . S
H2305 C2311 0.950 . S
H2306 C2312 0.949 . S
C2307 H2302 0.950 . S
C2307 C2309 1.327 . S
C2307 C2313 1.429 . S
C2308 C2300 1.574 . S
C2308 H2303 0.949 . S
C2308 C2314 1.368 . S
C2309 C2293 1.349 . S
C2309 H2301 0.950 . S
C2309 C2307 1.327 . S
C2310 C2298 1.349 . S
C2310 H2304 0.950 . S
C2310 C2311 1.327 . S
C2311 H2305 0.950 . S
C2311 C2310 1.327 . S
C2311 C2315 1.429 . S
C2312 C2295 1.574 . S
C2312 H2306 0.949 . S
C2312 C2316 1.368 . S
C2313 C2294 1.429 . S
C2313 C2307 1.429 . S
C2313 C2314 1.523 . S
C2314 C2295 1.368 . S
C2314 C2308 1.368 . S
C2314 C2313 1.523 . S
C2315 C2299 1.429 . S
C2315 C2311 1.429 . S
C2315 C2316 1.523 . S
C2316 C2300 1.368 . S
C2316 C2312 1.368 . S
C2316 C2315 1.523 . S
H2317 C2292 0.950 . S
H2318 C2294 0.950 . S
H2319 C2295 0.949 . S
H2320 C2297 0.950 . S
H2321 C2299 0.950 . S
C2322 C2323 1.349 . S
C2322 C2324 1.327 . S
C2322 H2347 0.950 . S
C2323 C2322 1.349 . S
C2323 C2339 1.349 . S
C2324 C2322 1.327 . S
C2324 C2343 1.429 . S
C2324 H2348 0.950 . S
C2325 C2342 1.574 . S
C2325 C2344 1.368 . S
C2325 H2349 0.949 . S
H2326 C2330 0.949 . S
C2327 C2328 1.349 . S
C2327 C2329 1.327 . S
C2327 H2350 0.950 . S
C2328 C2327 1.349 . S
C2328 C2340 1.349 . S
C2329 C2327 1.327 . S
C2329 C2345 1.429 . S
C2329 H2351 0.950 . S
C2330 H2326 0.949 . S
C2330 C2338 1.574 . S
C2330 C2346 1.368 . S
H2331 C2339 0.950 . S
H2332 C2337 0.950 . S
H2333 C2338 0.949 . S
H2334 C2340 0.950 . S
H2335 C2341 0.950 . S
H2336 C2342 0.949 . S
C2337 H2332 0.950 . S
C2337 C2339 1.327 . S
C2337 C2343 1.429 . S
C2338 C2330 1.574 . S
C2338 H2333 0.949 . S
C2338 C2344 1.368 . S
C2339 C2323 1.349 . S
C2339 H2331 0.950 . S
C2339 C2337 1.327 . S
C2340 C2328 1.349 . S
C2340 H2334 0.950 . S
C2340 C2341 1.327 . S
C2341 H2335 0.950 . S
C2341 C2340 1.327 . S
C2341 C2345 1.429 . S
C2342 C2325 1.574 . S
C2342 H2336 0.949 . S
C2342 C2346 1.368 . S
C2343 C2324 1.429 . S
C2343 C2337 1.429 . S
C2343 C2344 1.523 . S
C2344 C2325 1.368 . S
C2344 C2338 1.368 . S
C2344 C2343 1.523 . S
C2345 C2329 1.429 . S
C2345 C2341 1.429 . S
C2345 C2346 1.523 . S
C2346 C2330 1.368 . S
C2346 C2342 1.368 . S
C2346 C2345 1.523 . S
H2347 C2322 0.950 . S
H2348 C2324 0.950 . S
H2349 C2325 0.949 . S
H2350 C2327 0.950 . S
H2351 C2329 0.950 . S
C2352 C2353 1.349 . S
C2352 C2354 1.327 . S
C2352 H2377 0.950 . S
C2353 C2352 1.349 . S
C2353 C2369 1.349 . S
C2354 C2352 1.327 . S
C2354 C2373 1.429 . S
C2354 H2378 0.950 . S
C2355 C2372 1.574 . S
C2355 C2374 1.368 . S
C2355 H2379 0.949 . S
H2356 C2360 0.949 . S
C2357 C2358 1.349 . S
C2357 C2359 1.327 . S
C2357 H2380 0.950 . S
C2358 C2357 1.349 . S
C2358 C2370 1.349 . S
C2359 C2357 1.327 . S
C2359 C2375 1.429 . S
C2359 H2381 0.950 . S
C2360 H2356 0.949 . S
C2360 C2368 1.574 . S
C2360 C2376 1.368 . S
H2361 C2369 0.950 . S
H2362 C2367 0.950 . S
H2363 C2368 0.949 . S
H2364 C2370 0.950 . S
H2365 C2371 0.950 . S
H2366 C2372 0.949 . S
C2367 H2362 0.950 . S
C2367 C2369 1.327 . S
C2367 C2373 1.429 . S
C2368 C2360 1.574 . S
C2368 H2363 0.949 . S
C2368 C2374 1.368 . S
C2369 C2353 1.349 . S
C2369 H2361 0.950 . S
C2369 C2367 1.327 . S
C2370 C2358 1.349 . S
C2370 H2364 0.950 . S
C2370 C2371 1.327 . S
C2371 H2365 0.950 . S
C2371 C2370 1.327 . S
C2371 C2375 1.429 . S
C2372 C2355 1.574 . S
C2372 H2366 0.949 . S
C2372 C2376 1.368 . S
C2373 C2354 1.429 . S
C2373 C2367 1.429 . S
C2373 C2374 1.523 . S
C2374 C2355 1.368 . S
C2374 C2368 1.368 . S
C2374 C2373 1.523 . S
C2375 C2359 1.429 . S
C2375 C2371 1.429 . S
C2375 C2376 1.523 . S
C2376 C2360 1.368 . S
C2376 C2372 1.368 . S
C2376 C2375 1.523 . S
H2377 C2352 0.950 . S
H2378 C2354 0.950 . S
H2379 C2355 0.949 . S
H2380 C2357 0.950 . S
H2381 C2359 0.950 . S
C2382 C2383 1.349 . S
C2382 C2384 1.327 . S
C2382 H2407 0.950 . S
C2383 C2382 1.349 . S
C2383 C2399 1.349 . S
C2384 C2382 1.327 . S
C2384 C2403 1.429 . S
C2384 H2408 0.950 . S
C2385 C2402 1.574 . S
C2385 C2404 1.368 . S
C2385 H2409 0.949 . S
H2386 C2390 0.949 . S
C2387 C2388 1.349 . S
C2387 C2389 1.327 . S
C2387 H2410 0.950 . S
C2388 C2387 1.349 . S
C2388 C2400 1.349 . S
C2389 C2387 1.327 . S
C2389 C2405 1.429 . S
C2389 H2411 0.950 . S
C2390 H2386 0.949 . S
C2390 C2398 1.574 . S
C2390 C2406 1.368 . S
H2391 C2399 0.950 . S
H2392 C2397 0.950 . S
H2393 C2398 0.949 . S
H2394 C2400 0.950 . S
H2395 C2401 0.950 . S
H2396 C2402 0.949 . S
C2397 H2392 0.950 . S
C2397 C2399 1.327 . S
C2397 C2403 1.429 . S
C2398 C2390 1.574 . S
C2398 H2393 0.949 . S
C2398 C2404 1.368 . S
C2399 C2383 1.349 . S
C2399 H2391 0.950 . S
C2399 C2397 1.327 . S
C2400 C2388 1.349 . S
C2400 H2394 0.950 . S
C2400 C2401 1.327 . S
C2401 H2395 0.950 . S
C2401 C2400 1.327 . S
C2401 C2405 1.429 . S
C2402 C2385 1.574 . S
C2402 H2396 0.949 . S
C2402 C2406 1.368 . S
C2403 C2384 1.429 . S
C2403 C2397 1.429 . S
C2403 C2404 1.523 . S
C2404 C2385 1.368 . S
C2404 C2398 1.368 . S
C2404 C2403 1.523 . S
C2405 C2389 1.429 . S
C2405 C2401 1.429 . S
C2405 C2406 1.523 . S
C2406 C2390 1.368 . S
C2406 C2402 1.368 . S
C2406 C2405 1.523 . S
H2407 C2382 0.950 . S
H2408 C2384 0.950 . S
H2409 C2385 0.949 . S
H2410 C2387 0.950 . S
H2411 C2389 0.950 . S
C2412 C2413 1.349 . S
C2412 C2414 1.327 . S
C2412 H2437 0.950 . S
C2413 C2412 1.349 . S
C2413 C2429 1.349 . S
C2414 C2412 1.327 . S
C2414 C2433 1.429 . S
C2414 H2438 0.950 . S
C2415 C2432 1.574 . S
C2415 C2434 1.368 . S
C2415 H2439 0.949 . S
H2416 C2420 0.949 . S
C2417 C2418 1.349 . S
C2417 C2419 1.327 . S
C2417 H2440 0.950 . S
C2418 C2417 1.349 . S
C2418 C2430 1.349 . S
C2419 C2417 1.327 . S
C2419 C2435 1.429 . S
C2419 H2441 0.950 . S
C2420 H2416 0.949 . S
C2420 C2428 1.574 . S
C2420 C2436 1.368 . S
H2421 C2429 0.950 . S
H2422 C2427 0.950 . S
H2423 C2428 0.949 . S
H2424 C2430 0.950 . S
H2425 C2431 0.950 . S
H2426 C2432 0.949 . S
C2427 H2422 0.950 . S
C2427 C2429 1.327 . S
C2427 C2433 1.429 . S
C2428 C2420 1.574 . S
C2428 H2423 0.949 . S
C2428 C2434 1.368 . S
C2429 C2413 1.349 . S
C2429 H2421 0.950 . S
C2429 C2427 1.327 . S
C2430 C2418 1.349 . S
C2430 H2424 0.950 . S
C2430 C2431 1.327 . S
C2431 H2425 0.950 . S
C2431 C2430 1.327 . S
C2431 C2435 1.429 . S
C2432 C2415 1.574 . S
C2432 H2426 0.949 . S
C2432 C2436 1.368 . S
C2433 C2414 1.429 . S
C2433 C2427 1.429 . S
C2433 C2434 1.523 . S
C2434 C2415 1.368 . S
C2434 C2428 1.368 . S
C2434 C2433 1.523 . S
C2435 C2419 1.429 . S
C2435 C2431 1.429 . S
C2435 C2436 1.523 . S
C2436 C2420 1.368 . S
C2436 C2432 1.368 . S
C2436 C2435 1.523 . S
H2437 C2412 0.950 . S
H2438 C2414 0.950 . S
H2439 C2415 0.949 . S
H2440 C2417 0.950 . S
H2441 C2419 0.950 . S
C2442 C2443 1.349 . S
C2442 C2444 1.327 . S
C2442 H2467 0.950 . S
C2443 C2442 1.349 . S
C2443 C2459 1.349 . S
C2444 C2442 1.327 . S
C2444 C2463 1.429 . S
C2444 H2468 0.950 . S
C2445 C2462 1.574 . S
C2445 C2464 1.368 . S
C2445 H2469 0.949 . S
H2446 C2450 0.949 . S
C2447 C2448 1.349 . S
C2447 C2449 1.327 . S
C2447 H2470 0.950 . S
C2448 C2447 1.349 . S
C2448 C2460 1.349 . S
C2449 C2447 1.327 . S
C2449 C2465 1.429 . S
C2449 H2471 0.950 . S
C2450 H2446 0.949 . S
C2450 C2458 1.574 . S
C2450 C2466 1.368 . S
H2451 C2459 0.950 . S
H2452 C2457 0.950 . S
H2453 C2458 0.949 . S
H2454 C2460 0.950 . S
H2455 C2461 0.950 . S
H2456 C2462 0.949 . S
C2457 H2452 0.950 . S
C2457 C2459 1.327 . S
C2457 C2463 1.429 . S
C2458 C2450 1.574 . S
C2458 H2453 0.949 . S
C2458 C2464 1.368 . S
C2459 C2443 1.349 . S
C2459 H2451 0.950 . S
C2459 C2457 1.327 . S
C2460 C2448 1.349 . S
C2460 H2454 0.950 . S
C2460 C2461 1.327 . S
C2461 H2455 0.950 . S
C2461 C2460 1.327 . S
C2461 C2465 1.429 . S
C2462 C2445 1.574 . S
C2462 H2456 0.949 . S
C2462 C2466 1.368 . S
C2463 C2444 1.429 . S
C2463 C2457 1.429 . S
C2463 C2464 1.523 . S
C2464 C2445 1.368 . S
C2464 C2458 1.368 . S
C2464 C2463 1.523 . S
C2465 C2449 1.429 . S
C2465 C2461 1.429 . S
C2465 C2466 1.523 . S
C2466 C2450 1.368 . S
C2466 C2462 1.368 . S
C2466 C2465 1.523 . S
H2467 C2442 0.950 . S
H2468 C2444 0.950 . S
H2469 C2445 0.949 . S
H2470 C2447 0.950 . S
H2471 C2449 0.950 . S
C2472 C2473 1.349 . S
C2472 C2474 1.327 . S
C2472 H2497 0.950 . S
C2473 C2472 1.349 . S
C2473 C2489 1.349 . S
C2474 C2472 1.327 . S
C2474 C2493 1.429 . S
C2474 H2498 0.950 . S
C2475 C2492 1.574 . S
C2475 C2494 1.368 . S
C2475 H2499 0.949 . S
H2476 C2480 0.949 . S
C2477 C2478 1.349 . S
C2477 C2479 1.327 . S
C2477 H2500 0.950 . S
C2478 C2477 1.349 . S
C2478 C2490 1.349 . S
C2479 C2477 1.327 . S
C2479 C2495 1.429 . S
C2479 H2501 0.950 . S
C2480 H2476 0.949 . S
C2480 C2488 1.574 . S
C2480 C2496 1.368 . S
H2481 C2489 0.950 . S
H2482 C2487 0.950 . S
H2483 C2488 0.949 . S
H2484 C2490 0.950 . S
H2485 C2491 0.950 . S
H2486 C2492 0.949 . S
C2487 H2482 0.950 . S
C2487 C2489 1.327 . S
C2487 C2493 1.429 . S
C2488 C2480 1.574 . S
C2488 H2483 0.949 . S
C2488 C2494 1.368 . S
C2489 C2473 1.349 . S
C2489 H2481 0.950 . S
C2489 C2487 1.327 . S
C2490 C2478 1.349 . S
C2490 H2484 0.950 . S
C2490 C2491 1.327 . S
C2491 H2485 0.950 . S
C2491 C2490 1.327 . S
C2491 C2495 1.429 . S
C2492 C2475 1.574 . S
C2492 H2486 0.949 . S
C2492 C2496 1.368 . S
C2493 C2474 1.429 . S
C2493 C2487 1.429 . S
C2493 C2494 1.523 . S
C2494 C2475 1.368 . S
C2494 C2488 1.368 . S
C2494 C2493 1.523 . S
C2495 C2479 1.429 . S
C2495 C2491 1.429 . S
C2495 C2496 1.523 . S
C2496 C2480 1.368 . S
C2496 C2492 1.368 . S
C2496 C2495 1.523 . S
H2497 C2472 0.950 . S
H2498 C2474 0.950 . S
H2499 C2475 0.949 . S
H2500 C2477 0.950 . S
H2501 C2479 0.950 . S
C2502 C2503 1.349 . S
C2502 C2504 1.327 . S
C2502 H2527 0.950 . S
C2503 C2502 1.349 . S
C2503 C2519 1.349 1_556 S
C2504 C2502 1.327 . S
C2504 C2523 1.429 . S
C2504 H2528 0.950 . S
C2505 C2522 1.574 . S
C2505 C2524 1.368 1_554 S
C2505 H2529 0.949 . S
H2506 C2510 0.949 . S
C2507 C2508 1.349 1_554 S
C2507 C2509 1.327 . S
C2507 H2530 0.950 . S
C2508 C2507 1.349 1_556 S
C2508 C2520 1.349 . S
C2509 C2507 1.327 . S
C2509 C2525 1.429 1_554 S
C2509 H2531 0.950 . S
C2510 H2506 0.949 . S
C2510 C2518 1.574 . S
C2510 C2526 1.368 . S
H2511 C2519 0.950 . S
H2512 C2517 0.950 . S
H2513 C2518 0.949 . S
H2514 C2520 0.950 . S
H2515 C2521 0.950 . S
H2516 C2522 0.949 . S
C2517 H2512 0.950 . S
C2517 C2519 1.327 . S
C2517 C2523 1.429 1_554 S
C2518 C2510 1.574 . S
C2518 H2513 0.949 . S
C2518 C2524 1.368 . S
C2519 C2503 1.349 1_554 S
C2519 H2511 0.950 . S
C2519 C2517 1.327 . S
C2520 C2508 1.349 . S
C2520 H2514 0.950 . S
C2520 C2521 1.327 . S
C2521 H2515 0.950 . S
C2521 C2520 1.327 . S
C2521 C2525 1.429 . S
C2522 C2505 1.574 . S
C2522 H2516 0.949 . S
C2522 C2526 1.368 1_554 S
C2523 C2504 1.429 . S
C2523 C2517 1.429 1_556 S
C2523 C2524 1.523 . S
C2524 C2505 1.368 1_556 S
C2524 C2518 1.368 . S
C2524 C2523 1.523 . S
C2525 C2509 1.429 1_556 S
C2525 C2521 1.429 . S
C2525 C2526 1.523 . S
C2526 C2510 1.368 . S
C2526 C2522 1.368 1_556 S
C2526 C2525 1.523 . S
H2527 C2502 0.950 . S
H2528 C2504 0.950 . S
H2529 C2505 0.949 . S
H2530 C2507 0.950 . S
H2531 C2509 0.950 . S
C2532 C2533 1.349 . S
C2532 C2534 1.327 . S
C2532 H2557 0.950 . S
C2533 C2532 1.349 . S
C2533 C2549 1.349 . S
C2534 C2532 1.327 . S
C2534 C2553 1.429 . S
C2534 H2558 0.950 . S
C2535 C2552 1.574 . S
C2535 C2554 1.368 . S
C2535 H2559 0.949 . S
H2536 C2540 0.949 . S
C2537 C2538 1.349 . S
C2537 C2539 1.327 . S
C2537 H2560 0.950 . S
C2538 C2537 1.349 . S
C2538 C2550 1.349 . S
C2539 C2537 1.327 . S
C2539 C2555 1.429 . S
C2539 H2561 0.950 . S
C2540 H2536 0.949 . S
C2540 C2548 1.574 . S
C2540 C2556 1.368 . S
H2541 C2549 0.950 . S
H2542 C2547 0.950 . S
H2543 C2548 0.949 . S
H2544 C2550 0.950 . S
H2545 C2551 0.950 . S
H2546 C2552 0.949 . S
C2547 H2542 0.950 . S
C2547 C2549 1.327 . S
C2547 C2553 1.429 . S
C2548 C2540 1.574 . S
C2548 H2543 0.949 . S
C2548 C2554 1.368 . S
C2549 C2533 1.349 . S
C2549 H2541 0.950 . S
C2549 C2547 1.327 . S
C2550 C2538 1.349 . S
C2550 H2544 0.950 . S
C2550 C2551 1.327 . S
C2551 H2545 0.950 . S
C2551 C2550 1.327 . S
C2551 C2555 1.429 . S
C2552 C2535 1.574 . S
C2552 H2546 0.949 . S
C2552 C2556 1.368 . S
C2553 C2534 1.429 . S
C2553 C2547 1.429 . S
C2553 C2554 1.523 . S
C2554 C2535 1.368 . S
C2554 C2548 1.368 . S
C2554 C2553 1.523 . S
C2555 C2539 1.429 . S
C2555 C2551 1.429 . S
C2555 C2556 1.523 . S
C2556 C2540 1.368 . S
C2556 C2552 1.368 . S
C2556 C2555 1.523 . S
H2557 C2532 0.950 . S
H2558 C2534 0.950 . S
H2559 C2535 0.949 . S
H2560 C2537 0.950 . S
H2561 C2539 0.950 . S
C2562 C2563 1.349 . S
C2562 C2564 1.327 . S
C2562 H2587 0.950 . S
C2563 C2562 1.349 . S
C2563 C2579 1.349 . S
C2564 C2562 1.327 . S
C2564 C2583 1.429 . S
C2564 H2588 0.950 . S
C2565 C2582 1.574 . S
C2565 C2584 1.368 . S
C2565 H2589 0.949 1_554 S
H2566 C2570 0.949 . S
C2567 C2568 1.349 . S
C2567 C2569 1.327 . S
C2567 H2590 0.950 1_554 S
C2568 C2567 1.349 . S
C2568 C2580 1.349 . S
C2569 C2567 1.327 . S
C2569 C2585 1.429 . S
C2569 H2591 0.950 1_554 S
C2570 H2566 0.949 . S
C2570 C2578 1.574 . S
C2570 C2586 1.368 . S
H2571 C2579 0.950 1_556 S
H2572 C2577 0.950 1_556 S
H2573 C2578 0.949 . S
H2574 C2580 0.950 . S
H2575 C2581 0.950 . S
H2576 C2582 0.949 1_556 S
C2577 H2572 0.950 1_554 S
C2577 C2579 1.327 . S
C2577 C2583 1.429 . S
C2578 C2570 1.574 . S
C2578 H2573 0.949 . S
C2578 C2584 1.368 . S
C2579 C2563 1.349 . S
C2579 H2571 0.950 1_554 S
C2579 C2577 1.327 . S
C2580 C2568 1.349 . S
C2580 H2574 0.950 . S
C2580 C2581 1.327 . S
C2581 H2575 0.950 . S
C2581 C2580 1.327 . S
C2581 C2585 1.429 . S
C2582 C2565 1.574 . S
C2582 H2576 0.949 1_554 S
C2582 C2586 1.368 . S
C2583 C2564 1.429 . S
C2583 C2577 1.429 . S
C2583 C2584 1.523 . S
C2584 C2565 1.368 . S
C2584 C2578 1.368 . S
C2584 C2583 1.523 . S
C2585 C2569 1.429 . S
C2585 C2581 1.429 . S
C2585 C2586 1.523 . S
C2586 C2570 1.368 . S
C2586 C2582 1.368 . S
C2586 C2585 1.523 . S
H2587 C2562 0.950 . S
H2588 C2564 0.950 . S
H2589 C2565 0.949 1_556 S
H2590 C2567 0.950 1_556 S
H2591 C2569 0.950 1_556 S
C2592 C2593 1.349 . S
C2592 C2594 1.327 . S
C2592 H2617 0.950 . S
C2593 C2592 1.349 . S
C2593 C2609 1.349 . S
C2594 C2592 1.327 . S
C2594 C2613 1.429 . S
C2594 H2618 0.950 . S
C2595 C2612 1.574 . S
C2595 C2614 1.368 . S
C2595 H2619 0.949 . S
H2596 C2600 0.949 . S
C2597 C2598 1.349 . S
C2597 C2599 1.327 . S
C2597 H2620 0.950 . S
C2598 C2597 1.349 . S
C2598 C2610 1.349 . S
C2599 C2597 1.327 . S
C2599 C2615 1.429 . S
C2599 H2621 0.950 . S
C2600 H2596 0.949 . S
C2600 C2608 1.574 . S
C2600 C2616 1.368 . S
H2601 C2609 0.950 1_455 S
H2602 C2607 0.950 . S
H2603 C2608 0.949 . S
H2604 C2610 0.950 . S
H2605 C2611 0.950 . S
H2606 C2612 0.949 . S
C2607 H2602 0.950 . S
C2607 C2609 1.327 . S
C2607 C2613 1.429 . S
C2608 C2600 1.574 . S
C2608 H2603 0.949 . S
C2608 C2614 1.368 . S
C2609 C2593 1.349 . S
C2609 H2601 0.950 1_655 S
C2609 C2607 1.327 . S
C2610 C2598 1.349 . S
C2610 H2604 0.950 . S
C2610 C2611 1.327 . S
C2611 H2605 0.950 . S
C2611 C2610 1.327 . S
C2611 C2615 1.429 . S
C2612 C2595 1.574 . S
C2612 H2606 0.949 . S
C2612 C2616 1.368 . S
C2613 C2594 1.429 . S
C2613 C2607 1.429 . S
C2613 C2614 1.523 . S
C2614 C2595 1.368 . S
C2614 C2608 1.368 . S
C2614 C2613 1.523 . S
C2615 C2599 1.429 . S
C2615 C2611 1.429 . S
C2615 C2616 1.523 . S
C2616 C2600 1.368 . S
C2616 C2612 1.368 . S
C2616 C2615 1.523 . S
H2617 C2592 0.950 . S
H2618 C2594 0.950 . S
H2619 C2595 0.949 . S
H2620 C2597 0.950 . S
H2621 C2599 0.950 . S
C2622 C2623 1.349 . S
C2622 C2624 1.327 . S
C2622 H2647 0.950 . S
C2623 C2622 1.349 . S
C2623 C2639 1.349 . S
C2624 C2622 1.327 . S
C2624 C2643 1.429 . S
C2624 H2648 0.950 . S
C2625 C2642 1.574 . S
C2625 C2644 1.368 . S
C2625 H2649 0.949 . S
H2626 C2630 0.949 . S
C2627 C2628 1.349 . S
C2627 C2629 1.327 . S
C2627 H2650 0.950 . S
C2628 C2627 1.349 . S
C2628 C2640 1.349 . S
C2629 C2627 1.327 . S
C2629 C2645 1.429 . S
C2629 H2651 0.950 . S
C2630 H2626 0.949 . S
C2630 C2638 1.574 . S
C2630 C2646 1.368 . S
H2631 C2639 0.950 . S
H2632 C2637 0.950 . S
H2633 C2638 0.949 . S
H2634 C2640 0.950 . S
H2635 C2641 0.950 . S
H2636 C2642 0.949 . S
C2637 H2632 0.950 . S
C2637 C2639 1.327 . S
C2637 C2643 1.429 . S
C2638 C2630 1.574 . S
C2638 H2633 0.949 . S
C2638 C2644 1.368 . S
C2639 C2623 1.349 . S
C2639 H2631 0.950 . S
C2639 C2637 1.327 . S
C2640 C2628 1.349 . S
C2640 H2634 0.950 . S
C2640 C2641 1.327 . S
C2641 H2635 0.950 . S
C2641 C2640 1.327 . S
C2641 C2645 1.429 . S
C2642 C2625 1.574 . S
C2642 H2636 0.949 . S
C2642 C2646 1.368 . S
C2643 C2624 1.429 . S
C2643 C2637 1.429 . S
C2643 C2644 1.523 . S
C2644 C2625 1.368 . S
C2644 C2638 1.368 . S
C2644 C2643 1.523 . S
C2645 C2629 1.429 . S
C2645 C2641 1.429 . S
C2645 C2646 1.523 . S
C2646 C2630 1.368 . S
C2646 C2642 1.368 . S
C2646 C2645 1.523 . S
H2647 C2622 0.950 . S
H2648 C2624 0.950 . S
H2649 C2625 0.949 . S
H2650 C2627 0.950 . S
H2651 C2629 0.950 . S
C2652 C2653 1.349 . S
C2652 C2654 1.327 . S
C2652 H2677 0.950 . S
C2653 C2652 1.349 . S
C2653 C2669 1.349 . S
C2654 C2652 1.327 . S
C2654 C2673 1.429 . S
C2654 H2678 0.950 . S
C2655 C2672 1.574 . S
C2655 C2674 1.368 . S
C2655 H2679 0.949 . S
H2656 C2660 0.949 . S
C2657 C2658 1.349 . S
C2657 C2659 1.327 . S
C2657 H2680 0.950 1_655 S
C2658 C2657 1.349 . S
C2658 C2670 1.349 . S
C2659 C2657 1.327 . S
C2659 C2675 1.429 . S
C2659 H2681 0.950 . S
C2660 H2656 0.949 . S
C2660 C2668 1.574 . S
C2660 C2676 1.368 . S
H2661 C2669 0.950 . S
H2662 C2667 0.950 . S
H2663 C2668 0.949 . S
H2664 C2670 0.950 . S
H2665 C2671 0.950 . S
H2666 C2672 0.949 . S
C2667 H2662 0.950 . S
C2667 C2669 1.327 . S
C2667 C2673 1.429 . S
C2668 C2660 1.574 . S
C2668 H2663 0.949 . S
C2668 C2674 1.368 . S
C2669 C2653 1.349 . S
C2669 H2661 0.950 . S
C2669 C2667 1.327 . S
C2670 C2658 1.349 . S
C2670 H2664 0.950 . S
C2670 C2671 1.327 . S
C2671 H2665 0.950 . S
C2671 C2670 1.327 . S
C2671 C2675 1.429 . S
C2672 C2655 1.574 . S
C2672 H2666 0.949 . S
C2672 C2676 1.368 . S
C2673 C2654 1.429 . S
C2673 C2667 1.429 . S
C2673 C2674 1.523 . S
C2674 C2655 1.368 . S
C2674 C2668 1.368 . S
C2674 C2673 1.523 . S
C2675 C2659 1.429 . S
C2675 C2671 1.429 . S
C2675 C2676 1.523 . S
C2676 C2660 1.368 . S
C2676 C2672 1.368 . S
C2676 C2675 1.523 . S
H2677 C2652 0.950 . S
H2678 C2654 0.950 . S
H2679 C2655 0.949 . S
H2680 C2657 0.950 1_455 S
H2681 C2659 0.950 . S
C2682 C2683 1.349 . S
C2682 C2684 1.327 . S
C2682 H2707 0.950 . S
C2683 C2682 1.349 . S
C2683 C2699 1.349 . S
C2684 C2682 1.327 . S
C2684 C2703 1.429 . S
C2684 H2708 0.950 . S
C2685 C2702 1.574 . S
C2685 C2704 1.368 . S
C2685 H2709 0.949 . S
H2686 C2690 0.949 . S
C2687 C2688 1.349 . S
C2687 C2689 1.327 . S
C2687 H2710 0.950 . S
C2688 C2687 1.349 . S
C2688 C2700 1.349 . S
C2689 C2687 1.327 . S
C2689 C2705 1.429 . S
C2689 H2711 0.950 . S
C2690 H2686 0.949 . S
C2690 C2698 1.574 . S
C2690 C2706 1.368 . S
H2691 C2699 0.950 . S
H2692 C2697 0.950 . S
H2693 C2698 0.949 . S
H2694 C2700 0.950 . S
H2695 C2701 0.950 . S
H2696 C2702 0.949 . S
C2697 H2692 0.950 . S
C2697 C2699 1.327 . S
C2697 C2703 1.429 . S
C2698 C2690 1.574 . S
C2698 H2693 0.949 . S
C2698 C2704 1.368 . S
C2699 C2683 1.349 . S
C2699 H2691 0.950 . S
C2699 C2697 1.327 . S
C2700 C2688 1.349 . S
C2700 H2694 0.950 . S
C2700 C2701 1.327 . S
C2701 H2695 0.950 . S
C2701 C2700 1.327 . S
C2701 C2705 1.429 . S
C2702 C2685 1.574 . S
C2702 H2696 0.949 . S
C2702 C2706 1.368 . S
C2703 C2684 1.429 . S
C2703 C2697 1.429 . S
C2703 C2704 1.523 . S
C2704 C2685 1.368 . S
C2704 C2698 1.368 . S
C2704 C2703 1.523 . S
C2705 C2689 1.429 . S
C2705 C2701 1.429 . S
C2705 C2706 1.523 . S
C2706 C2690 1.368 . S
C2706 C2702 1.368 . S
C2706 C2705 1.523 . S
H2707 C2682 0.950 . S
H2708 C2684 0.950 . S
H2709 C2685 0.949 . S
H2710 C2687 0.950 . S
H2711 C2689 0.950 . S
C2712 C2713 1.349 . S
C2712 C2714 1.327 . S
C2712 H2737 0.950 . S
C2713 C2712 1.349 . S
C2713 C2729 1.349 . S
C2714 C2712 1.327 . S
C2714 C2733 1.429 . S
C2714 H2738 0.950 . S
C2715 C2732 1.574 . S
C2715 C2734 1.368 . S
C2715 H2739 0.949 . S
H2716 C2720 0.949 . S
C2717 C2718 1.349 . S
C2717 C2719 1.327 . S
C2717 H2740 0.950 . S
C2718 C2717 1.349 . S
C2718 C2730 1.349 . S
C2719 C2717 1.327 . S
C2719 C2735 1.429 . S
C2719 H2741 0.950 . S
C2720 H2716 0.949 . S
C2720 C2728 1.574 . S
C2720 C2736 1.368 . S
H2721 C2729 0.950 . S
H2722 C2727 0.950 . S
H2723 C2728 0.949 . S
H2724 C2730 0.950 1_655 S
H2725 C2731 0.950 . S
H2726 C2732 0.949 . S
C2727 H2722 0.950 . S
C2727 C2729 1.327 . S
C2727 C2733 1.429 . S
C2728 C2720 1.574 . S
C2728 H2723 0.949 . S
C2728 C2734 1.368 . S
C2729 C2713 1.349 . S
C2729 H2721 0.950 . S
C2729 C2727 1.327 . S
C2730 C2718 1.349 . S
C2730 H2724 0.950 1_455 S
C2730 C2731 1.327 . S
C2731 H2725 0.950 . S
C2731 C2730 1.327 . S
C2731 C2735 1.429 . S
C2732 C2715 1.574 . S
C2732 H2726 0.949 . S
C2732 C2736 1.368 . S
C2733 C2714 1.429 . S
C2733 C2727 1.429 . S
C2733 C2734 1.523 . S
C2734 C2715 1.368 . S
C2734 C2728 1.368 . S
C2734 C2733 1.523 . S
C2735 C2719 1.429 . S
C2735 C2731 1.429 . S
C2735 C2736 1.523 . S
C2736 C2720 1.368 . S
C2736 C2732 1.368 . S
C2736 C2735 1.523 . S
H2737 C2712 0.950 . S
H2738 C2714 0.950 . S
H2739 C2715 0.949 . S
H2740 C2717 0.950 . S
H2741 C2719 0.950 . S
C2742 C2743 1.349 . S
C2742 C2744 1.327 . S
C2742 H2767 0.950 . S
C2743 C2742 1.349 . S
C2743 C2759 1.349 . S
C2744 C2742 1.327 . S
C2744 C2763 1.429 . S
C2744 H2768 0.950 . S
C2745 C2762 1.574 . S
C2745 C2764 1.368 . S
C2745 H2769 0.949 . S
H2746 C2750 0.949 . S
C2747 C2748 1.349 . S
C2747 C2749 1.327 . S
C2747 H2770 0.950 . S
C2748 C2747 1.349 . S
C2748 C2760 1.349 . S
C2749 C2747 1.327 . S
C2749 C2765 1.429 . S
C2749 H2771 0.950 . S
C2750 H2746 0.949 . S
C2750 C2758 1.574 . S
C2750 C2766 1.368 . S
H2751 C2759 0.950 . S
H2752 C2757 0.950 . S
H2753 C2758 0.949 . S
H2754 C2760 0.950 . S
H2755 C2761 0.950 . S
H2756 C2762 0.949 . S
C2757 H2752 0.950 . S
C2757 C2759 1.327 . S
C2757 C2763 1.429 . S
C2758 C2750 1.574 . S
C2758 H2753 0.949 . S
C2758 C2764 1.368 . S
C2759 C2743 1.349 . S
C2759 H2751 0.950 . S
C2759 C2757 1.327 . S
C2760 C2748 1.349 . S
C2760 H2754 0.950 . S
C2760 C2761 1.327 . S
C2761 H2755 0.950 . S
C2761 C2760 1.327 . S
C2761 C2765 1.429 . S
C2762 C2745 1.574 . S
C2762 H2756 0.949 . S
C2762 C2766 1.368 . S
C2763 C2744 1.429 . S
C2763 C2757 1.429 . S
C2763 C2764 1.523 . S
C2764 C2745 1.368 . S
C2764 C2758 1.368 . S
C2764 C2763 1.523 . S
C2765 C2749 1.429 . S
C2765 C2761 1.429 . S
C2765 C2766 1.523 . S
C2766 C2750 1.368 . S
C2766 C2762 1.368 . S
C2766 C2765 1.523 . S
H2767 C2742 0.950 . S
H2768 C2744 0.950 . S
H2769 C2745 0.949 . S
H2770 C2747 0.950 . S
H2771 C2749 0.950 . S
C2772 C2773 1.349 . S
C2772 C2774 1.327 . S
C2772 H2797 0.950 . S
C2773 C2772 1.349 . S
C2773 C2789 1.349 . S
C2774 C2772 1.327 . S
C2774 C2793 1.429 . S
C2774 H2798 0.950 . S
C2775 C2792 1.574 . S
C2775 C2794 1.368 . S
C2775 H2799 0.949 . S
H2776 C2780 0.949 . S
C2777 C2778 1.349 . S
C2777 C2779 1.327 . S
C2777 H2800 0.950 . S
C2778 C2777 1.349 . S
C2778 C2790 1.349 . S
C2779 C2777 1.327 . S
C2779 C2795 1.429 . S
C2779 H2801 0.950 . S
C2780 H2776 0.949 . S
C2780 C2788 1.574 . S
C2780 C2796 1.368 . S
H2781 C2789 0.950 . S
H2782 C2787 0.950 . S
H2783 C2788 0.949 . S
H2784 C2790 0.950 1_655 S
H2785 C2791 0.950 . S
H2786 C2792 0.949 . S
C2787 H2782 0.950 . S
C2787 C2789 1.327 . S
C2787 C2793 1.429 . S
C2788 C2780 1.574 . S
C2788 H2783 0.949 . S
C2788 C2794 1.368 . S
C2789 C2773 1.349 . S
C2789 H2781 0.950 . S
C2789 C2787 1.327 . S
C2790 C2778 1.349 . S
C2790 H2784 0.950 1_455 S
C2790 C2791 1.327 . S
C2791 H2785 0.950 . S
C2791 C2790 1.327 . S
C2791 C2795 1.429 . S
C2792 C2775 1.574 . S
C2792 H2786 0.949 . S
C2792 C2796 1.368 . S
C2793 C2774 1.429 . S
C2793 C2787 1.429 . S
C2793 C2794 1.523 . S
C2794 C2775 1.368 . S
C2794 C2788 1.368 . S
C2794 C2793 1.523 . S
C2795 C2779 1.429 . S
C2795 C2791 1.429 . S
C2795 C2796 1.523 . S
C2796 C2780 1.368 . S
C2796 C2792 1.368 . S
C2796 C2795 1.523 . S
H2797 C2772 0.950 . S
H2798 C2774 0.950 . S
H2799 C2775 0.949 . S
H2800 C2777 0.950 . S
H2801 C2779 0.950 . S
C2802 C2803 1.349 . S
C2802 C2804 1.327 . S
C2802 H2827 0.950 . S
C2803 C2802 1.349 . S
C2803 C2819 1.349 . S
C2804 C2802 1.327 . S
C2804 C2823 1.429 . S
C2804 H2828 0.950 . S
C2805 C2822 1.574 . S
C2805 C2824 1.368 . S
C2805 H2829 0.949 . S
H2806 C2810 0.949 . S
C2807 C2808 1.349 . S
C2807 C2809 1.327 . S
C2807 H2830 0.950 . S
C2808 C2807 1.349 . S
C2808 C2820 1.349 . S
C2809 C2807 1.327 . S
C2809 C2825 1.429 . S
C2809 H2831 0.950 . S
C2810 H2806 0.949 . S
C2810 C2818 1.574 . S
C2810 C2826 1.368 . S
H2811 C2819 0.950 . S
H2812 C2817 0.950 . S
H2813 C2818 0.949 . S
H2814 C2820 0.950 . S
H2815 C2821 0.950 . S
H2816 C2822 0.949 . S
C2817 H2812 0.950 . S
C2817 C2819 1.327 . S
C2817 C2823 1.429 . S
C2818 C2810 1.574 . S
C2818 H2813 0.949 . S
C2818 C2824 1.368 . S
C2819 C2803 1.349 . S
C2819 H2811 0.950 . S
C2819 C2817 1.327 . S
C2820 C2808 1.349 . S
C2820 H2814 0.950 . S
C2820 C2821 1.327 . S
C2821 H2815 0.950 . S
C2821 C2820 1.327 . S
C2821 C2825 1.429 . S
C2822 C2805 1.574 . S
C2822 H2816 0.949 . S
C2822 C2826 1.368 . S
C2823 C2804 1.429 . S
C2823 C2817 1.429 . S
C2823 C2824 1.523 . S
C2824 C2805 1.368 . S
C2824 C2818 1.368 . S
C2824 C2823 1.523 . S
C2825 C2809 1.429 . S
C2825 C2821 1.429 . S
C2825 C2826 1.523 . S
C2826 C2810 1.368 . S
C2826 C2822 1.368 . S
C2826 C2825 1.523 . S
H2827 C2802 0.950 . S
H2828 C2804 0.950 . S
H2829 C2805 0.949 . S
H2830 C2807 0.950 . S
H2831 C2809 0.950 . S
C2832 C2833 1.349 . S
C2832 C2834 1.327 . S
C2832 H2857 0.950 1_655 S
C2833 C2832 1.349 . S
C2833 C2849 1.349 . S
C2834 C2832 1.327 . S
C2834 C2853 1.429 . S
C2834 H2858 0.950 . S
C2835 C2852 1.574 . S
C2835 C2854 1.368 . S
C2835 H2859 0.949 . S
H2836 C2840 0.949 . S
C2837 C2838 1.349 . S
C2837 C2839 1.327 . S
C2837 H2860 0.950 . S
C2838 C2837 1.349 . S
C2838 C2850 1.349 . S
C2839 C2837 1.327 . S
C2839 C2855 1.429 . S
C2839 H2861 0.950 . S
C2840 H2836 0.949 . S
C2840 C2848 1.574 . S
C2840 C2856 1.368 . S
H2841 C2849 0.950 . S
H2842 C2847 0.950 . S
H2843 C2848 0.949 . S
H2844 C2850 0.950 . S
H2845 C2851 0.950 . S
H2846 C2852 0.949 . S
C2847 H2842 0.950 . S
C2847 C2849 1.327 . S
C2847 C2853 1.429 . S
C2848 C2840 1.574 . S
C2848 H2843 0.949 . S
C2848 C2854 1.368 . S
C2849 C2833 1.349 . S
C2849 H2841 0.950 . S
C2849 C2847 1.327 . S
C2850 C2838 1.349 . S
C2850 H2844 0.950 . S
C2850 C2851 1.327 . S
C2851 H2845 0.950 . S
C2851 C2850 1.327 . S
C2851 C2855 1.429 . S
C2852 C2835 1.574 . S
C2852 H2846 0.949 . S
C2852 C2856 1.368 . S
C2853 C2834 1.429 . S
C2853 C2847 1.429 . S
C2853 C2854 1.523 . S
C2854 C2835 1.368 . S
C2854 C2848 1.368 . S
C2854 C2853 1.523 . S
C2855 C2839 1.429 . S
C2855 C2851 1.429 . S
C2855 C2856 1.523 . S
C2856 C2840 1.368 . S
C2856 C2852 1.368 . S
C2856 C2855 1.523 . S
H2857 C2832 0.950 1_455 S
H2858 C2834 0.950 . S
H2859 C2835 0.949 . S
H2860 C2837 0.950 . S
H2861 C2839 0.950 . S
C2862 C2863 1.349 . S
C2862 C2864 1.327 . S
C2862 H2887 0.950 . S
C2863 C2862 1.349 . S
C2863 C2879 1.349 . S
C2864 C2862 1.327 . S
C2864 C2883 1.429 . S
C2864 H2888 0.950 . S
C2865 C2882 1.574 . S
C2865 C2884 1.368 . S
C2865 H2889 0.949 . S
H2866 C2870 0.949 . S
C2867 C2868 1.349 . S
C2867 C2869 1.327 . S
C2867 H2890 0.950 . S
C2868 C2867 1.349 . S
C2868 C2880 1.349 . S
C2869 C2867 1.327 . S
C2869 C2885 1.429 . S
C2869 H2891 0.950 . S
C2870 H2866 0.949 . S
C2870 C2878 1.574 . S
C2870 C2886 1.368 . S
H2871 C2879 0.950 . S
H2872 C2877 0.950 . S
H2873 C2878 0.949 . S
H2874 C2880 0.950 . S
H2875 C2881 0.950 . S
H2876 C2882 0.949 . S
C2877 H2872 0.950 . S
C2877 C2879 1.327 . S
C2877 C2883 1.429 . S
C2878 C2870 1.574 . S
C2878 H2873 0.949 . S
C2878 C2884 1.368 . S
C2879 C2863 1.349 . S
C2879 H2871 0.950 . S
C2879 C2877 1.327 . S
C2880 C2868 1.349 . S
C2880 H2874 0.950 . S
C2880 C2881 1.327 . S
C2881 H2875 0.950 . S
C2881 C2880 1.327 . S
C2881 C2885 1.429 . S
C2882 C2865 1.574 . S
C2882 H2876 0.949 . S
C2882 C2886 1.368 . S
C2883 C2864 1.429 . S
C2883 C2877 1.429 . S
C2883 C2884 1.523 . S
C2884 C2865 1.368 . S
C2884 C2878 1.368 . S
C2884 C2883 1.523 . S
C2885 C2869 1.429 . S
C2885 C2881 1.429 . S
C2885 C2886 1.523 . S
C2886 C2870 1.368 . S
C2886 C2882 1.368 . S
C2886 C2885 1.523 . S
H2887 C2862 0.950 . S
H2888 C2864 0.950 . S
H2889 C2865 0.949 . S
H2890 C2867 0.950 . S
H2891 C2869 0.950 . S
C2892 C2893 1.349 . S
C2892 C2894 1.327 . S
C2892 H2917 0.950 . S
C2893 C2892 1.349 . S
C2893 C2909 1.349 . S
C2894 C2892 1.327 . S
C2894 C2913 1.429 . S
C2894 H2918 0.950 . S
C2895 C2912 1.574 . S
C2895 C2914 1.368 . S
C2895 H2919 0.949 . S
H2896 C2900 0.949 . S
C2897 C2898 1.349 . S
C2897 C2899 1.327 . S
C2897 H2920 0.950 . S
C2898 C2897 1.349 . S
C2898 C2910 1.349 . S
C2899 C2897 1.327 . S
C2899 C2915 1.429 . S
C2899 H2921 0.950 . S
C2900 H2896 0.949 . S
C2900 C2908 1.574 . S
C2900 C2916 1.368 . S
H2901 C2909 0.950 1_455 S
H2902 C2907 0.950 . S
H2903 C2908 0.949 . S
H2904 C2910 0.950 . S
H2905 C2911 0.950 . S
H2906 C2912 0.949 . S
C2907 H2902 0.950 . S
C2907 C2909 1.327 . S
C2907 C2913 1.429 . S
C2908 C2900 1.574 . S
C2908 H2903 0.949 . S
C2908 C2914 1.368 . S
C2909 C2893 1.349 . S
C2909 H2901 0.950 1_655 S
C2909 C2907 1.327 . S
C2910 C2898 1.349 . S
C2910 H2904 0.950 . S
C2910 C2911 1.327 . S
C2911 H2905 0.950 . S
C2911 C2910 1.327 . S
C2911 C2915 1.429 . S
C2912 C2895 1.574 . S
C2912 H2906 0.949 . S
C2912 C2916 1.368 . S
C2913 C2894 1.429 . S
C2913 C2907 1.429 . S
C2913 C2914 1.523 . S
C2914 C2895 1.368 . S
C2914 C2908 1.368 . S
C2914 C2913 1.523 . S
C2915 C2899 1.429 . S
C2915 C2911 1.429 . S
C2915 C2916 1.523 . S
C2916 C2900 1.368 . S
C2916 C2912 1.368 . S
C2916 C2915 1.523 . S
H2917 C2892 0.950 . S
H2918 C2894 0.950 . S
H2919 C2895 0.949 . S
H2920 C2897 0.950 . S
H2921 C2899 0.950 . S
C2922 C2923 1.349 . S
C2922 C2924 1.327 . S
C2922 H2947 0.950 . S
C2923 C2922 1.349 . S
C2923 C2939 1.349 . S
C2924 C2922 1.327 . S
C2924 C2943 1.429 . S
C2924 H2948 0.950 . S
C2925 C2942 1.574 . S
C2925 C2944 1.368 . S
C2925 H2949 0.949 . S
H2926 C2930 0.949 . S
C2927 C2928 1.349 . S
C2927 C2929 1.327 . S
C2927 H2950 0.950 . S
C2928 C2927 1.349 . S
C2928 C2940 1.349 . S
C2929 C2927 1.327 . S
C2929 C2945 1.429 . S
C2929 H2951 0.950 . S
C2930 H2926 0.949 . S
C2930 C2938 1.574 . S
C2930 C2946 1.368 . S
H2931 C2939 0.950 . S
H2932 C2937 0.950 . S
H2933 C2938 0.949 . S
H2934 C2940 0.950 . S
H2935 C2941 0.950 . S
H2936 C2942 0.949 . S
C2937 H2932 0.950 . S
C2937 C2939 1.327 . S
C2937 C2943 1.429 . S
C2938 C2930 1.574 . S
C2938 H2933 0.949 . S
C2938 C2944 1.368 . S
C2939 C2923 1.349 . S
C2939 H2931 0.950 . S
C2939 C2937 1.327 . S
C2940 C2928 1.349 . S
C2940 H2934 0.950 . S
C2940 C2941 1.327 . S
C2941 H2935 0.950 . S
C2941 C2940 1.327 . S
C2941 C2945 1.429 . S
C2942 C2925 1.574 . S
C2942 H2936 0.949 . S
C2942 C2946 1.368 . S
C2943 C2924 1.429 . S
C2943 C2937 1.429 . S
C2943 C2944 1.523 . S
C2944 C2925 1.368 . S
C2944 C2938 1.368 . S
C2944 C2943 1.523 . S
C2945 C2929 1.429 . S
C2945 C2941 1.429 . S
C2945 C2946 1.523 . S
C2946 C2930 1.368 . S
C2946 C2942 1.368 . S
C2946 C2945 1.523 . S
H2947 C2922 0.950 . S
H2948 C2924 0.950 . S
H2949 C2925 0.949 . S
H2950 C2927 0.950 . S
H2951 C2929 0.950 . S
C2952 C2953 1.349 . S
C2952 C2954 1.327 . S
C2952 H2977 0.950 1_455 S
C2953 C2952 1.349 . S
C2953 C2969 1.349 . S
C2954 C2952 1.327 . S
C2954 C2973 1.429 . S
C2954 H2978 0.950 . S
C2955 C2972 1.574 . S
C2955 C2974 1.368 . S
C2955 H2979 0.949 . S
H2956 C2960 0.949 . S
C2957 C2958 1.349 . S
C2957 C2959 1.327 . S
C2957 H2980 0.950 . S
C2958 C2957 1.349 . S
C2958 C2970 1.349 . S
C2959 C2957 1.327 . S
C2959 C2975 1.429 . S
C2959 H2981 0.950 . S
C2960 H2956 0.949 . S
C2960 C2968 1.574 . S
C2960 C2976 1.368 . S
H2961 C2969 0.950 . S
H2962 C2967 0.950 . S
H2963 C2968 0.949 . S
H2964 C2970 0.950 . S
H2965 C2971 0.950 . S
H2966 C2972 0.949 . S
C2967 H2962 0.950 . S
C2967 C2969 1.327 . S
C2967 C2973 1.429 . S
C2968 C2960 1.574 . S
C2968 H2963 0.949 . S
C2968 C2974 1.368 . S
C2969 C2953 1.349 . S
C2969 H2961 0.950 . S
C2969 C2967 1.327 . S
C2970 C2958 1.349 . S
C2970 H2964 0.950 . S
C2970 C2971 1.327 . S
C2971 H2965 0.950 . S
C2971 C2970 1.327 . S
C2971 C2975 1.429 . S
C2972 C2955 1.574 . S
C2972 H2966 0.949 . S
C2972 C2976 1.368 . S
C2973 C2954 1.429 . S
C2973 C2967 1.429 . S
C2973 C2974 1.523 . S
C2974 C2955 1.368 . S
C2974 C2968 1.368 . S
C2974 C2973 1.523 . S
C2975 C2959 1.429 . S
C2975 C2971 1.429 . S
C2975 C2976 1.523 . S
C2976 C2960 1.368 . S
C2976 C2972 1.368 . S
C2976 C2975 1.523 . S
H2977 C2952 0.950 1_655 S
H2978 C2954 0.950 . S
H2979 C2955 0.949 . S
H2980 C2957 0.950 . S
H2981 C2959 0.950 . S
C2982 C2983 1.349 . S
C2982 C2984 1.327 . S
C2982 H3007 0.950 . S
C2983 C2982 1.349 . S
C2983 C2999 1.349 . S
C2984 C2982 1.327 . S
C2984 C3003 1.429 . S
C2984 H3008 0.950 . S
C2985 C3002 1.574 . S
C2985 C3004 1.368 . S
C2985 H3009 0.949 . S
H2986 C2990 0.949 . S
C2987 C2988 1.349 . S
C2987 C2989 1.327 . S
C2987 H3010 0.950 . S
C2988 C2987 1.349 . S
C2988 C3000 1.349 . S
C2989 C2987 1.327 . S
C2989 C3005 1.429 . S
C2989 H3011 0.950 . S
C2990 H2986 0.949 . S
C2990 C2998 1.574 . S
C2990 C3006 1.368 . S
H2991 C2999 0.950 . S
H2992 C2997 0.950 . S
H2993 C2998 0.949 . S
H2994 C3000 0.950 . S
H2995 C3001 0.950 . S
H2996 C3002 0.949 . S
C2997 H2992 0.950 . S
C2997 C2999 1.327 . S
C2997 C3003 1.429 . S
C2998 C2990 1.574 . S
C2998 H2993 0.949 . S
C2998 C3004 1.368 . S
C2999 C2983 1.349 . S
C2999 H2991 0.950 . S
C2999 C2997 1.327 . S
C3000 C2988 1.349 . S
C3000 H2994 0.950 . S
C3000 C3001 1.327 . S
C3001 H2995 0.950 . S
C3001 C3000 1.327 . S
C3001 C3005 1.429 . S
C3002 C2985 1.574 . S
C3002 H2996 0.949 . S
C3002 C3006 1.368 . S
C3003 C2984 1.429 . S
C3003 C2997 1.429 . S
C3003 C3004 1.523 . S
C3004 C2985 1.368 . S
C3004 C2998 1.368 . S
C3004 C3003 1.523 . S
C3005 C2989 1.429 . S
C3005 C3001 1.429 . S
C3005 C3006 1.523 . S
C3006 C2990 1.368 . S
C3006 C3002 1.368 . S
C3006 C3005 1.523 . S
H3007 C2982 0.950 . S
H3008 C2984 0.950 . S
H3009 C2985 0.949 . S
H3010 C2987 0.950 . S
H3011 C2989 0.950 . S
C3012 C3013 1.349 . S
C3012 C3014 1.327 . S
C3012 H3037 0.950 1_455 S
C3013 C3012 1.349 . S
C3013 C3029 1.349 . S
C3014 C3012 1.327 . S
C3014 C3033 1.429 . S
C3014 H3038 0.950 . S
C3015 C3032 1.574 . S
C3015 C3034 1.368 . S
C3015 H3039 0.949 . S
H3016 C3020 0.949 . S
C3017 C3018 1.349 . S
C3017 C3019 1.327 . S
C3017 H3040 0.950 . S
C3018 C3017 1.349 . S
C3018 C3030 1.349 . S
C3019 C3017 1.327 . S
C3019 C3035 1.429 . S
C3019 H3041 0.950 . S
C3020 H3016 0.949 . S
C3020 C3028 1.574 . S
C3020 C3036 1.368 . S
H3021 C3029 0.950 . S
H3022 C3027 0.950 . S
H3023 C3028 0.949 . S
H3024 C3030 0.950 . S
H3025 C3031 0.950 . S
H3026 C3032 0.949 . S
C3027 H3022 0.950 . S
C3027 C3029 1.327 . S
C3027 C3033 1.429 . S
C3028 C3020 1.574 . S
C3028 H3023 0.949 . S
C3028 C3034 1.368 . S
C3029 C3013 1.349 . S
C3029 H3021 0.950 . S
C3029 C3027 1.327 . S
C3030 C3018 1.349 . S
C3030 H3024 0.950 . S
C3030 C3031 1.327 . S
C3031 H3025 0.950 . S
C3031 C3030 1.327 . S
C3031 C3035 1.429 . S
C3032 C3015 1.574 . S
C3032 H3026 0.949 . S
C3032 C3036 1.368 . S
C3033 C3014 1.429 . S
C3033 C3027 1.429 . S
C3033 C3034 1.523 . S
C3034 C3015 1.368 . S
C3034 C3028 1.368 . S
C3034 C3033 1.523 . S
C3035 C3019 1.429 . S
C3035 C3031 1.429 . S
C3035 C3036 1.523 . S
C3036 C3020 1.368 . S
C3036 C3032 1.368 . S
C3036 C3035 1.523 . S
H3037 C3012 0.950 1_655 S
H3038 C3014 0.950 . S
H3039 C3015 0.949 . S
H3040 C3017 0.950 . S
H3041 C3019 0.950 . S
C3042 C3043 1.349 . S
C3042 C3044 1.327 . S
C3042 H3067 0.950 . S
C3043 C3042 1.349 . S
C3043 C3059 1.349 . S
C3044 C3042 1.327 . S
C3044 C3063 1.429 . S
C3044 H3068 0.950 . S
C3045 C3062 1.574 . S
C3045 C3064 1.368 . S
C3045 H3069 0.949 . S
H3046 C3050 0.949 . S
C3047 C3048 1.349 . S
C3047 C3049 1.327 . S
C3047 H3070 0.950 . S
C3048 C3047 1.349 . S
C3048 C3060 1.349 . S
C3049 C3047 1.327 . S
C3049 C3065 1.429 . S
C3049 H3071 0.950 . S
C3050 H3046 0.949 . S
C3050 C3058 1.574 . S
C3050 C3066 1.368 . S
H3051 C3059 0.950 . S
H3052 C3057 0.950 . S
H3053 C3058 0.949 . S
H3054 C3060 0.950 . S
H3055 C3061 0.950 . S
H3056 C3062 0.949 . S
C3057 H3052 0.950 . S
C3057 C3059 1.327 . S
C3057 C3063 1.429 . S
C3058 C3050 1.574 . S
C3058 H3053 0.949 . S
C3058 C3064 1.368 . S
C3059 C3043 1.349 . S
C3059 H3051 0.950 . S
C3059 C3057 1.327 . S
C3060 C3048 1.349 . S
C3060 H3054 0.950 . S
C3060 C3061 1.327 . S
C3061 H3055 0.950 . S
C3061 C3060 1.327 . S
C3061 C3065 1.429 . S
C3062 C3045 1.574 . S
C3062 H3056 0.949 . S
C3062 C3066 1.368 . S
C3063 C3044 1.429 . S
C3063 C3057 1.429 . S
C3063 C3064 1.523 . S
C3064 C3045 1.368 . S
C3064 C3058 1.368 . S
C3064 C3063 1.523 . S
C3065 C3049 1.429 . S
C3065 C3061 1.429 . S
C3065 C3066 1.523 . S
C3066 C3050 1.368 . S
C3066 C3062 1.368 . S
C3066 C3065 1.523 . S
H3067 C3042 0.950 . S
H3068 C3044 0.950 . S
H3069 C3045 0.949 . S
H3070 C3047 0.950 . S
H3071 C3049 0.950 . S
C1153 C110 0.997 . S
C1158 C2 0.997 . S
C1183 C74 0.996 . S
C1188 C38 0.996 . S
C1213 C255 0.612 . S
C1218 C147 0.612 . S
C1243 C219 0.611 . S
C1248 C183 0.611 . S
C1273 C290 0.996 . S
C1278 C398 0.996 . S
C1303 C326 0.996 . S
C1308 C362 0.996 . S
C1333 C543 0.612 . S
C1338 C435 0.612 . S
C1363 C471 0.611 . S
C1368 C507 0.611 . S
C1393 C578 0.996 . S
C1398 C686 0.996 . S
C1423 C614 0.997 . S
C1428 C650 0.997 . S
C1453 C831 0.612 . S
C1458 C723 0.612 . S
C1483 C795 0.612 . S
C1488 C759 0.612 . S
C1513 C974 0.996 . S
C1518 C866 0.996 . S
C1543 C902 0.996 . S
C1548 C938 0.996 . S
C1573 C1011 0.612 . S
C1578 C1119 0.612 . S
C1603 C1047 0.611 . S
C1608 C1083 0.611 . S
C1633 C722 1.105 . S
C1638 C3 1.140 . S
C1663 C470 1.104 . S
C1668 C39 1.139 . S
C1693 C75 1.139 . S
C1698 C1082 1.104 . S
C1723 C111 1.138 . S
C1728 C254 1.103 . S
C1753 C579 1.139 . S
C1758 C146 1.105 . S
C1783 C327 1.139 . S
C1788 C182 1.104 . S
C1813 C939 1.139 . S
C1818 C218 1.104 . S
C1843 C291 1.138 . S
C1848 C1010 1.104 . S
C1873 C794 1.104 . S
C1878 C363 1.139 . S
C1903 C542 1.104 . S
C1908 C399 1.139 . S
C1933 C867 1.138 . S
C1938 C434 1.104 . S
C1963 C506 1.104 . S
C1968 C651 1.139 . S
C1993 C1046 1.104 . S
C1998 C615 1.139 . S
C2023 C687 1.138 . S
C2028 C830 1.103 . S
C2053 C903 1.139 . S
C2058 C758 1.104 . S
C2083 C1118 1.104 . S
C2088 C975 1.139 . S
C2113 C40 1.268 . S
C2118 C4 1.268 . S
C2143 C76 1.269 . S
C2148 C112 1.269 . S
C2173 C158 1.156 . S
C2178 C194 1.156 . S
C2203 C266 1.157 . S
C2208 C230 1.157 . S
C2233 C292 1.269 . S
C2238 C328 1.269 . S
C2263 C364 1.268 . S
C2268 C400 1.268 . S
C2293 C482 1.157 . S
C2298 C446 1.157 . S
C2323 C518 1.157 . S
C2328 C554 1.157 . S
C2353 C580 1.269 . S
C2358 C616 1.268 . S
C2383 C652 1.269 . S
C2388 C688 1.269 . S
C2413 C734 1.157 . S
C2418 C770 1.157 . S
C2443 C842 1.157 . S
C2448 C806 1.157 . S
C2473 C904 1.269 . S
C2478 C868 1.269 . S
C2503 C940 1.268 . S
C2508 C976 1.268 . S
C2533 C1022 1.157 . S
C2538 C1058 1.157 . S
C2563 C1130 1.156 . S
C2568 C1094 1.156 . S
C2593 C14 1.670 1_655 S
C2598 C698 1.670 . S
C2623 C50 1.670 . S
C2628 C662 1.670 . S
C2653 C626 1.670 . S
C2658 C86 1.670 1_655 S
C2683 C122 1.670 . S
C2688 C590 1.670 . S
C2713 C832 1.234 . S
C2718 C148 1.234 1_455 S
C2743 C184 1.234 . S
C2748 C796 1.234 . S
C2773 C760 1.234 . S
C2778 C220 1.234 1_455 S
C2803 C256 1.234 . S
C2808 C724 1.234 . S
C2833 C302 1.670 1_655 S
C2838 C986 1.670 . S
C2863 C338 1.670 . S
C2868 C950 1.669 . S
C2893 C374 1.669 1_655 S
C2898 C914 1.669 . S
C2923 C878 1.670 . S
C2928 C410 1.670 . S
C2953 C436 1.234 1_455 S
C2958 C1120 1.234 . S
C2983 C472 1.234 . S
C2988 C1084 1.234 . S
C3013 C508 1.234 1_455 S
C3018 C1048 1.234 . S
C3043 C1012 1.234 . S
C3048 C544 1.234 . S
