# Generated by pormake.
# Topology zfw, (5)-cn, num edge types: 1
# Building blocks:
#     Node 0, Type 0, BuildingBlock: BEQFEK_clean_sbu_0, # of connection points: 5
#     Node 1, Type 0, BuildingBlock: BEQFEK_clean_sbu_0, # of connection points: 5
#     Node 2, Type 0, BuildingBlock: BEQFEK_clean_sbu_0, # of connection points: 5
#     Node 3, Type 0, BuildingBlock: BEQFEK_clean_sbu_0, # of connection points: 5
#     Node 4, Type 0, BuildingBlock: BEQFEK_clean_sbu_0, # of connection points: 5
#     Node 5, Type 0, BuildingBlock: BEQFEK_clean_sbu_0, # of connection points: 5
#     Node 6, Type 0, BuildingBlock: BEQFEK_clean_sbu_0, # of connection points: 5
#     Node 7, Type 0, BuildingBlock: BEQFEK_clean_sbu_0, # of connection points: 5
#     Node 8, Type 0, BuildingBlock: BEQFEK_clean_sbu_0, # of connection points: 5
#     Node 9, Type 0, BuildingBlock: BEQFEK_clean_sbu_0, # of connection points: 5
#     Node 10, Type 0, BuildingBlock: BEQFEK_clean_sbu_0, # of connection points: 5
#     Node 11, Type 0, BuildingBlock: BEQFEK_clean_sbu_0, # of connection points: 5
#     Node 12, Type 0, BuildingBlock: BEQFEK_clean_sbu_0, # of connection points: 5
#     Node 13, Type 0, BuildingBlock: BEQFEK_clean_sbu_0, # of connection points: 5
#     Node 14, Type 0, BuildingBlock: BEQFEK_clean_sbu_0, # of connection points: 5
#     Node 15, Type 0, BuildingBlock: BEQFEK_clean_sbu_0, # of connection points: 5
#     Edge 16, Type (0, 0), BuildingBlock: MIFKUJ_clean_linker_0, # of connection points: 2
#     Edge 17, Type (0, 0), BuildingBlock: MIFKUJ_clean_linker_0, # of connection points: 2
#     Edge 18, Type (0, 0), BuildingBlock: MIFKUJ_clean_linker_0, # of connection points: 2
#     Edge 19, Type (0, 0), BuildingBlock: MIFKUJ_clean_linker_0, # of connection points: 2
#     Edge 20, Type (0, 0), BuildingBlock: MIFKUJ_clean_linker_0, # of connection points: 2
#     Edge 21, Type (0, 0), BuildingBlock: MIFKUJ_clean_linker_0, # of connection points: 2
#     Edge 22, Type (0, 0), BuildingBlock: MIFKUJ_clean_linker_0, # of connection points: 2
#     Edge 23, Type (0, 0), BuildingBlock: MIFKUJ_clean_linker_0, # of connection points: 2
#     Edge 24, Type (0, 0), BuildingBlock: MIFKUJ_clean_linker_0, # of connection points: 2
#     Edge 25, Type (0, 0), BuildingBlock: MIFKUJ_clean_linker_0, # of connection points: 2
#     Edge 26, Type (0, 0), BuildingBlock: MIFKUJ_clean_linker_0, # of connection points: 2
#     Edge 27, Type (0, 0), BuildingBlock: MIFKUJ_clean_linker_0, # of connection points: 2
#     Edge 28, Type (0, 0), BuildingBlock: MIFKUJ_clean_linker_0, # of connection points: 2
#     Edge 29, Type (0, 0), BuildingBlock: MIFKUJ_clean_linker_0, # of connection points: 2
#     Edge 30, Type (0, 0), BuildingBlock: MIFKUJ_clean_linker_0, # of connection points: 2
#     Edge 31, Type (0, 0), BuildingBlock: MIFKUJ_clean_linker_0, # of connection points: 2
#     Edge 32, Type (0, 0), BuildingBlock: MIFKUJ_clean_linker_0, # of connection points: 2
#     Edge 33, Type (0, 0), BuildingBlock: MIFKUJ_clean_linker_0, # of connection points: 2
#     Edge 34, Type (0, 0), BuildingBlock: MIFKUJ_clean_linker_0, # of connection points: 2
#     Edge 35, Type (0, 0), BuildingBlock: MIFKUJ_clean_linker_0, # of connection points: 2
#     Edge 36, Type (0, 0), BuildingBlock: MIFKUJ_clean_linker_0, # of connection points: 2
#     Edge 37, Type (0, 0), BuildingBlock: MIFKUJ_clean_linker_0, # of connection points: 2
#     Edge 38, Type (0, 0), BuildingBlock: MIFKUJ_clean_linker_0, # of connection points: 2
#     Edge 39, Type (0, 0), BuildingBlock: MIFKUJ_clean_linker_0, # of connection points: 2
#     Edge 40, Type (0, 0), BuildingBlock: MIFKUJ_clean_linker_0, # of connection points: 2
#     Edge 41, Type (0, 0), BuildingBlock: MIFKUJ_clean_linker_0, # of connection points: 2
#     Edge 42, Type (0, 0), BuildingBlock: MIFKUJ_clean_linker_0, # of connection points: 2
#     Edge 43, Type (0, 0), BuildingBlock: MIFKUJ_clean_linker_0, # of connection points: 2
#     Edge 44, Type (0, 0), BuildingBlock: MIFKUJ_clean_linker_0, # of connection points: 2
#     Edge 45, Type (0, 0), BuildingBlock: MIFKUJ_clean_linker_0, # of connection points: 2
#     Edge 46, Type (0, 0), BuildingBlock: MIFKUJ_clean_linker_0, # of connection points: 2
#     Edge 47, Type (0, 0), BuildingBlock: MIFKUJ_clean_linker_0, # of connection points: 2
#     Edge 48, Type (0, 0), BuildingBlock: MIFKUJ_clean_linker_0, # of connection points: 2
#     Edge 49, Type (0, 0), BuildingBlock: MIFKUJ_clean_linker_0, # of connection points: 2
#     Edge 50, Type (0, 0), BuildingBlock: MIFKUJ_clean_linker_0, # of connection points: 2
#     Edge 51, Type (0, 0), BuildingBlock: MIFKUJ_clean_linker_0, # of connection points: 2
#     Edge 52, Type (0, 0), BuildingBlock: MIFKUJ_clean_linker_0, # of connection points: 2
#     Edge 53, Type (0, 0), BuildingBlock: MIFKUJ_clean_linker_0, # of connection points: 2
#     Edge 54, Type (0, 0), BuildingBlock: MIFKUJ_clean_linker_0, # of connection points: 2
#     Edge 55, Type (0, 0), BuildingBlock: MIFKUJ_clean_linker_0, # of connection points: 2
# Relax obj value: 0.354
# Max RMSD: 0.220
# Mean RMSD: 0.220
data_MOF--net-zfw--node1-BEQFEK_clean_sbu_0--edge1-MIFKUJ_clean_linker_0
_symmetry_space_group_name_H-M    P1
_symmetry_Int_Tables_number       1
_symmetry_cell_setting            triclinic
loop_
_symmetry_equiv_pos_as_xyz
'x, y, z'
_cell_length_a     89.510963
_cell_length_b     89.510949
_cell_length_c     21.824893
_cell_angle_alpha  89.996135
_cell_angle_beta   89.972011
_cell_angle_gamma 90.000701
loop_
_atom_site_label
_atom_site_type_symbol
_atom_site_fract_x
_atom_site_fract_y
_atom_site_fract_z
_atom_type_partial_charge
Co0 Co 0.02624 0.09774 0.30933 0.0
Co1 Co 0.02214 0.11203 0.17997 0.0
C2 C 0.00037 0.1181 0.27802 0.0
O3 O 0.00813 0.11026 0.3146 0.0
O4 O 0.00417 0.11961 0.22228 0.0
C5 C 0.01334 0.08033 0.39955 0.0
O6 O 0.00283 0.08007 0.35755 0.0
C7 C 0.00893 0.11679 0.05957 0.0
C8 C 0.02879 0.12179 0.00321 0.0
C9 C 0.01359 0.11893 -0.00043 0.0
N10 N 0.02091 0.11776 0.09638 0.0
N11 N 0.03267 0.12121 0.06269 0.0
C12 C 0.99342 0.1137 0.08217 0.0
H13 H 0.99024 0.12248 0.11553 0.0
H14 H 0.99313 0.10287 0.10684 0.0
H15 H 0.98513 0.11373 0.04442 0.0
C16 C 0.02885 0.07026 0.23501 0.0
N17 N 0.026 0.08496 0.24074 0.0
N18 N 0.02399 0.09084 0.18608 0.0
C19 C 0.02534 0.07995 0.14371 0.0
C20 C 0.02856 0.0666 0.17333 0.0
C21 C 0.03316 0.06027 0.28707 0.0
H22 H 0.03991 0.06657 0.32093 0.0
H23 H 0.02288 0.05623 0.31018 0.0
H24 H 0.03961 0.05046 0.27074 0.0
O25 O 0.0439 0.11085 0.30563 0.0
O26 O 0.04032 0.12155 0.21482 0.0
H27 H 0.03202 0.08991 0.05881 0.0
H28 H 0.02377 0.07159 0.05019 0.0
C29 C 0.02331 0.08219 0.07624 0.0
H30 H 0.01223 0.08717 0.06789 0.0
H31 H 0.0435 0.12225 0.07986 0.0
O32 O 0.02577 0.08647 0.38676 0.0
C33 C 0.04787 0.12001 0.26396 0.0
Co34 Co 0.17768 0.74467 0.56611 0.0
Co35 Co 0.15883 0.74804 0.4466 0.0
C36 C 0.15525 0.72165 0.52844 0.0
O37 O 0.16515 0.72675 0.56434 0.0
O38 O 0.15146 0.7287 0.48026 0.0
C39 C 0.19359 0.72916 0.65793 0.0
O40 O 0.19083 0.71757 0.6228 0.0
C41 C 0.15147 0.74132 0.31987 0.0
C42 C 0.14187 0.76272 0.2884 0.0
C43 C 0.14646 0.74877 0.26808 0.0
N44 N 0.15019 0.75056 0.36801 0.0
N45 N 0.14403 0.76317 0.34934 0.0
C46 C 0.15916 0.72648 0.32273 0.0
H47 H 0.16545 0.72529 0.36628 0.0
H48 H 0.16685 0.72505 0.28325 0.0
H49 H 0.15063 0.7175 0.32036 0.0
C50 C 0.20266 0.74783 0.4789 0.0
N51 N 0.18799 0.74695 0.49176 0.0
N52 N 0.18019 0.74887 0.44119 0.0
C53 C 0.18977 0.75145 0.3946 0.0
C54 C 0.20424 0.75063 0.41683 0.0
C55 C 0.21477 0.74566 0.52525 0.0
H56 H 0.21437 0.75492 0.55898 0.0
H57 H 0.21279 0.73509 0.5505 0.0
H58 H 0.22599 0.74527 0.5037 0.0
O59 O 0.16502 0.7624 0.58315 0.0
O60 O 0.15164 0.76461 0.49807 0.0
H61 H 0.19443 0.76292 0.30966 0.0
H62 H 0.18334 0.74635 0.30258 0.0
C63 C 0.18538 0.75631 0.33148 0.0
H64 H 0.17516 0.76325 0.33322 0.0
H65 H 0.14224 0.77244 0.3774 0.0
O66 O 0.19088 0.74219 0.63759 0.0
C67 C 0.1551 0.76907 0.55156 0.0
Co68 Co 0.52291 0.90287 0.81821 0.0
Co69 Co 0.51924 0.8873 0.69157 0.0
C70 C 0.54227 0.87712 0.77872 0.0
O71 O 0.53761 0.88657 0.81759 0.0
O72 O 0.53659 0.8763 0.72548 0.0
C73 C 0.54145 0.91579 0.90672 0.0
O74 O 0.55169 0.91191 0.86665 0.0
C75 C 0.52701 0.88054 0.56587 0.0
C76 C 0.50487 0.87668 0.52404 0.0
C77 C 0.51992 0.87824 0.51018 0.0
N78 N 0.51658 0.88071 0.61003 0.0
N79 N 0.50343 0.87791 0.58516 0.0
C80 C 0.54304 0.8846 0.57648 0.0
H81 H 0.54445 0.89009 0.62168 0.0
H82 H 0.54721 0.89212 0.53984 0.0
H83 H 0.54989 0.87427 0.57571 0.0
C84 C 0.52538 0.92966 0.73999 0.0
N85 N 0.52417 0.91478 0.74724 0.0
N86 N 0.52211 0.90844 0.69346 0.0
C87 C 0.52163 0.91922 0.65022 0.0
C88 C 0.52383 0.93294 0.67835 0.0
C89 C 0.52669 0.94054 0.79173 0.0
H90 H 0.51859 0.93759 0.82828 0.0
H91 H 0.53809 0.93981 0.81143 0.0
H92 H 0.52463 0.95217 0.77631 0.0
O93 O 0.50277 0.89409 0.82623 0.0
O94 O 0.50089 0.8821 0.73743 0.0
H95 H 0.50941 0.90857 0.57776 0.0
H96 H 0.51607 0.92698 0.55849 0.0
C97 C 0.51875 0.91656 0.58345 0.0
H98 H 0.52891 0.91184 0.56212 0.0
H99 H 0.49336 0.87788 0.60931 0.0
O100 O 0.52774 0.91417 0.89294 0.0
C101 C 0.49557 0.88568 0.78954 0.0
Co102 Co 0.37062 0.24831 0.05509 0.0
Co103 Co 0.38486 0.25166 0.92509 0.0
C104 C 0.39132 0.27363 0.0224 0.0
O105 O 0.38361 0.26606 0.06007 0.0
O106 O 0.39248 0.2697 0.96671 0.0
C107 C 0.35361 0.26156 0.14572 0.0
O108 O 0.35377 0.27216 0.10405 0.0
C109 C 0.38778 0.26529 0.80515 0.0
C110 C 0.3948 0.24632 0.74729 0.0
C111 C 0.3902 0.26111 0.74475 0.0
N112 N 0.39026 0.25339 0.84118 0.0
N113 N 0.39487 0.24219 0.8066 0.0
C114 C 0.38303 0.28026 0.82893 0.0
H115 H 0.39125 0.28413 0.86336 0.0
H116 H 0.37209 0.27928 0.85253 0.0
H117 H 0.38239 0.28874 0.792 0.0
C118 C 0.34291 0.24662 0.98209 0.0
N119 N 0.35774 0.24881 0.98704 0.0
N120 N 0.36366 0.24974 0.93191 0.0
C121 C 0.35271 0.24796 0.89004 0.0
C122 C 0.33927 0.24602 0.92059 0.0
C123 C 0.33265 0.24375 0.03495 0.0
H124 H 0.33826 0.23651 0.06914 0.0
H125 H 0.32986 0.25453 0.05723 0.0
H126 H 0.32212 0.23837 0.0197 0.0
O127 O 0.38325 0.23027 0.05032 0.0
O128 O 0.39464 0.23362 0.96046 0.0
H129 H 0.36427 0.24025 0.81003 0.0
H130 H 0.34489 0.24459 0.79652 0.0
C131 C 0.35503 0.24793 0.82206 0.0
H132 H 0.35796 0.25934 0.80707 0.0
H133 H 0.3972 0.23149 0.82304 0.0
O134 O 0.35948 0.249 0.13288 0.0
C135 C 0.39262 0.22617 0.00963 0.0
Co136 Co 0.02514 0.89791 0.70775 0.0
Co137 Co 0.02343 0.88339 0.83735 0.0
C138 C -0.00017 0.87786 0.74471 0.0
O139 O 0.00633 0.88636 0.70649 0.0
O140 O 0.00534 0.87552 0.79739 0.0
C141 C 0.01288 0.91593 0.61492 0.0
O142 O 0.0018 0.91665 0.65431 0.0
C143 C 0.01031 0.87831 0.95683 0.0
C144 C 0.03014 0.87407 0.01431 0.0
C145 C 0.01484 0.8765 0.01706 0.0
N146 N 0.02243 0.87761 0.92068 0.0
N147 N 0.03419 0.87458 0.95497 0.0
C148 C 0.99484 0.88127 0.93359 0.0
H149 H 0.99161 0.87218 0.90169 0.0
H150 H 0.99464 0.89187 0.90729 0.0
H151 H 0.98652 0.88163 0.97121 0.0
C152 C 0.0288 0.92537 0.78194 0.0
N153 N 0.02619 0.91061 0.77647 0.0
N154 N 0.02493 0.90465 0.83135 0.0
C155 C 0.02645 0.91554 0.87365 0.0
C156 C 0.02903 0.929 0.84372 0.0
C157 C 0.03229 0.93547 0.72918 0.0
H158 H 0.03871 0.92931 0.69381 0.0
H159 H 0.02167 0.93938 0.70841 0.0
H160 H 0.03882 0.94534 0.74424 0.0
O161 O 0.04242 0.88412 0.70745 0.0
O162 O 0.04142 0.87412 0.80066 0.0
H163 H 0.03395 0.90596 0.95815 0.0
H164 H 0.02469 0.92379 0.96737 0.0
C165 C 0.02478 0.9132 0.94123 0.0
H166 H 0.01403 0.90761 0.95003 0.0
H167 H 0.0451 0.87384 0.93836 0.0
O168 O 0.0248 0.90918 0.63029 0.0
C169 C 0.04763 0.8754 0.74838 0.0
Co170 Co 0.37055 0.7524 0.93604 0.0
Co171 Co 0.38638 0.75294 0.06296 0.0
C172 C 0.39416 0.73008 0.9698 0.0
O173 O 0.38477 0.73564 0.93276 0.0
O174 O 0.39596 0.7356 0.02288 0.0
C175 C 0.35497 0.73637 0.84848 0.0
O176 O 0.35659 0.726 0.89059 0.0
C177 C 0.39288 0.74114 0.18313 0.0
C178 C 0.40034 0.76101 0.23462 0.0
C179 C 0.39716 0.74592 0.24081 0.0
N180 N 0.39324 0.75287 0.14496 0.0
N181 N 0.39803 0.76467 0.17552 0.0
C182 C 0.38855 0.72567 0.16375 0.0
H183 H 0.39788 0.72077 0.13697 0.0
H184 H 0.37869 0.72611 0.13302 0.0
H185 H 0.3863 0.71828 0.20346 0.0
C186 C 0.34361 0.75253 0.01421 0.0
N187 N 0.35852 0.75177 0.00672 0.0
N188 N 0.36508 0.75211 0.06066 0.0
C189 C 0.35448 0.75325 0.10437 0.0
C190 C 0.34056 0.75348 0.07631 0.0
C191 C 0.33267 0.75378 0.96265 0.0
H192 H 0.3372 0.76123 0.92655 0.0
H193 H 0.33091 0.74256 0.94231 0.0
H194 H 0.32175 0.75819 0.97861 0.0
O195 O 0.38174 0.77148 0.93253 0.0
O196 O 0.39303 0.77165 0.0234 0.0
H197 H 0.36606 0.76294 0.18058 0.0
H198 H 0.34751 0.75637 0.19917 0.0
C199 C 0.35764 0.75413 0.17161 0.0
H200 H 0.3622 0.74329 0.18685 0.0
H201 H 0.39911 0.77533 0.15669 0.0
O202 O 0.35877 0.74971 0.86101 0.0
C203 C 0.39031 0.77768 0.97168 0.0
Co204 Co 0.5225 0.09436 0.17464 0.0
Co205 Co 0.5236 0.11239 0.29673 0.0
C206 C 0.54741 0.11576 0.2031 0.0
O207 O 0.5408 0.10665 0.16768 0.0
O208 O 0.54207 0.11894 0.25546 0.0
C209 C 0.53554 0.07651 0.08412 0.0
O210 O 0.54719 0.07808 0.12016 0.0
C211 C 0.53471 0.11945 0.4182 0.0
C212 C 0.51404 0.12634 0.46562 0.0
C213 C 0.52891 0.12268 0.47577 0.0
N214 N 0.52361 0.1204 0.37707 0.0
N215 N 0.5114 0.12504 0.40522 0.0
C216 C 0.55045 0.1154 0.40172 0.0
H217 H 0.55395 0.12183 0.3608 0.0
H218 H 0.55108 0.10338 0.38976 0.0
H219 H 0.5583 0.11796 0.4396 0.0
C220 C 0.52175 0.0688 0.26095 0.0
N221 N 0.52219 0.08355 0.2487 0.0
N222 N 0.52227 0.09109 0.30053 0.0
C223 C 0.52167 0.08129 0.34745 0.0
C224 C 0.52158 0.06695 0.3239 0.0
C225 C 0.52214 0.05682 0.21323 0.0
H226 H 0.5139 0.05937 0.17677 0.0
H227 H 0.5334 0.05656 0.19203 0.0
H228 H 0.51975 0.04565 0.23298 0.0
O229 O 0.50469 0.10744 0.16776 0.0
O230 O 0.50631 0.12087 0.25309 0.0
H231 H 0.51571 0.07583 0.44083 0.0
H232 H 0.53129 0.08822 0.43226 0.0
C233 C 0.52017 0.08532 0.41371 0.0
H234 H 0.51253 0.09494 0.41903 0.0
H235 H 0.50103 0.12624 0.38401 0.0
O236 O 0.52293 0.08133 0.10221 0.0
C237 C 0.49988 0.11779 0.20264 0.0
Co238 Co 0.17963 0.25217 0.40815 0.0
Co239 Co 0.16199 0.24856 0.53095 0.0
C240 C 0.15681 0.27451 0.44852 0.0
O241 O 0.16611 0.26939 0.40991 0.0
O242 O 0.15428 0.26789 0.49906 0.0
C243 C 0.19572 0.26789 0.31576 0.0
O244 O 0.19147 0.27965 0.34725 0.0
C245 C 0.15622 0.25488 0.65903 0.0
C246 C 0.14687 0.23342 0.69106 0.0
C247 C 0.15205 0.24716 0.71146 0.0
N248 N 0.15404 0.24592 0.61056 0.0
N249 N 0.14796 0.23331 0.62964 0.0
C250 C 0.16404 0.26966 0.65522 0.0
H251 H 0.16944 0.27109 0.60983 0.0
H252 H 0.1725 0.27079 0.69204 0.0
H253 H 0.1557 0.2787 0.66146 0.0
C254 C 0.20538 0.25049 0.49321 0.0
N255 N 0.19059 0.2505 0.48183 0.0
N256 N 0.18327 0.24811 0.53329 0.0
C257 C 0.19327 0.24595 0.57867 0.0
C258 C 0.2075 0.24776 0.55508 0.0
C259 C 0.21709 0.25344 0.4458 0.0
H260 H 0.21481 0.26435 0.4236 0.0
H261 H 0.22847 0.25363 0.46586 0.0
H262 H 0.21648 0.2447 0.40987 0.0
O263 O 0.16733 0.23408 0.39317 0.0
O264 O 0.15468 0.23188 0.4804 0.0
H265 H 0.19896 0.2334 0.65974 0.0
H266 H 0.18826 0.2499 0.67328 0.0
C267 C 0.18967 0.24034 0.64166 0.0
H268 H 0.17939 0.23348 0.64101 0.0
H269 H 0.14564 0.22421 0.60131 0.0
O270 O 0.19277 0.25492 0.33622 0.0
C271 C 0.15777 0.22738 0.4266 0.0
Co272 Co 0.87449 0.24921 0.43986 0.0
Co273 Co 0.88752 0.24881 0.57163 0.0
C274 C 0.89347 0.22387 0.48668 0.0
O275 O 0.88599 0.23044 0.44532 0.0
O276 O 0.89497 0.22963 0.53948 0.0
C277 C 0.85785 0.2347 0.35058 0.0
O278 O 0.85714 0.22465 0.39435 0.0
C279 C 0.89128 0.23818 0.6957 0.0
C280 C 0.89513 0.25912 0.74686 0.0
C281 C 0.89285 0.2439 0.75412 0.0
N282 N 0.89241 0.24951 0.65572 0.0
N283 N 0.89516 0.26194 0.68631 0.0
C284 C 0.88653 0.22268 0.67848 0.0
H285 H 0.87928 0.22297 0.6373 0.0
H286 H 0.88052 0.21711 0.71662 0.0
H287 H 0.89662 0.21601 0.66735 0.0
C288 C 0.84638 0.25435 0.50739 0.0
N289 N 0.86114 0.25155 0.50551 0.0
N290 N 0.86645 0.25107 0.56166 0.0
C291 C 0.85512 0.2534 0.60133 0.0
C292 C 0.84207 0.25565 0.5681 0.0
C293 C 0.8368 0.25663 0.45201 0.0
H294 H 0.84315 0.26271 0.41621 0.0
H295 H 0.83351 0.24558 0.43337 0.0
H296 H 0.82652 0.26298 0.46349 0.0
O297 O 0.88851 0.26619 0.43642 0.0
O298 O 0.89818 0.26537 0.53016 0.0
H299 H 0.86419 0.26169 0.68542 0.0
H300 H 0.84572 0.25382 0.69341 0.0
C301 C 0.85659 0.25271 0.66965 0.0
H302 H 0.86139 0.24181 0.68287 0.0
H303 H 0.89602 0.27248 0.66614 0.0
O304 O 0.86392 0.24725 0.36183 0.0
C305 C 0.89748 0.27117 0.47689 0.0
Co306 Co 0.67403 0.7484 0.94101 0.0
Co307 Co 0.65811 0.74682 0.06793 0.0
C308 C 0.65153 0.77136 0.98006 0.0
O309 O 0.66055 0.76579 0.94139 0.0
O310 O 0.64954 0.7653 0.03216 0.0
C311 C 0.69066 0.76354 0.85055 0.0
O312 O 0.68856 0.7748 0.88821 0.0
C313 C 0.65294 0.75551 0.19421 0.0
C314 C 0.64549 0.73423 0.23539 0.0
C315 C 0.64969 0.74873 0.24983 0.0
N316 N 0.65116 0.74534 0.14961 0.0
N317 N 0.64621 0.7328 0.17415 0.0
C318 C 0.65954 0.77068 0.18385 0.0
H319 H 0.66485 0.77135 0.13798 0.0
H320 H 0.66787 0.77342 0.21975 0.0
H321 H 0.65049 0.77914 0.18632 0.0
C322 C 0.70092 0.74722 0.01932 0.0
N323 N 0.68601 0.74778 0.01203 0.0
N324 N 0.67947 0.74655 0.06589 0.0
C325 C 0.69012 0.74474 0.10911 0.0
C326 C 0.70399 0.74532 0.08093 0.0
C327 C 0.71196 0.74749 0.96782 0.0
H328 H 0.70815 0.74 0.93052 0.0
H329 H 0.71269 0.75901 0.94932 0.0
H330 H 0.72323 0.74393 0.98321 0.0
O331 O 0.66203 0.72984 0.93379 0.0
O332 O 0.65041 0.72926 0.02368 0.0
H333 H 0.67751 0.73476 0.18216 0.0
H334 H 0.69693 0.73745 0.1999 0.0
C335 C 0.68718 0.74231 0.17598 0.0
H336 H 0.6848 0.75317 0.19801 0.0
H337 H 0.64439 0.72296 0.14965 0.0
O338 O 0.68612 0.75063 0.86604 0.0
C339 C 0.65296 0.72368 0.97108 0.0
Co340 Co 0.6777 0.24295 0.04726 0.0
Co341 Co 0.66024 0.24786 0.92557 0.0
C342 C 0.65581 0.22041 0.00175 0.0
O343 O 0.66521 0.22496 0.04114 0.0
O344 O 0.65285 0.22809 0.95418 0.0
C345 C 0.6941 0.22769 0.14057 0.0
O346 O 0.69016 0.21561 0.11045 0.0
C347 C 0.65464 0.24227 0.79724 0.0
C348 C 0.64537 0.26387 0.76634 0.0
C349 C 0.65047 0.25016 0.74532 0.0
N350 N 0.65246 0.25106 0.84618 0.0
N351 N 0.64646 0.26377 0.8278 0.0
C352 C 0.66255 0.22754 0.80016 0.0
H353 H 0.66808 0.22604 0.84524 0.0
H354 H 0.67096 0.22658 0.76298 0.0
H355 H 0.65426 0.21845 0.79391 0.0
C356 C 0.70357 0.24675 0.96459 0.0
N357 N 0.68877 0.24608 0.97504 0.0
N358 N 0.68152 0.24885 0.92383 0.0
C359 C 0.69157 0.25187 0.87945 0.0
C360 C 0.7058 0.25035 0.90355 0.0
C361 C 0.71521 0.24348 0.0119 0.0
H362 H 0.71287 0.23246 0.03305 0.0
H363 H 0.72662 0.24336 0.99205 0.0
H364 H 0.7146 0.25204 0.04858 0.0
O365 O 0.66469 0.26039 0.06575 0.0
O366 O 0.65242 0.26378 0.97849 0.0
H367 H 0.69717 0.26473 0.79901 0.0
H368 H 0.68634 0.24829 0.78493 0.0
C369 C 0.6879 0.25774 0.81698 0.0
H370 H 0.67762 0.26459 0.8185 0.0
H371 H 0.64415 0.27278 0.85666 0.0
O372 O 0.69082 0.24043 0.11875 0.0
C373 C 0.65518 0.26749 0.03358 0.0
Co374 Co 0.87654 0.74711 0.5202 0.0
Co375 Co 0.89143 0.7518 0.39246 0.0
C376 C 0.89832 0.77207 0.49451 0.0
O377 O 0.89035 0.76407 0.52956 0.0
O378 O 0.89943 0.76916 0.43777 0.0
C379 C 0.86052 0.76084 0.61119 0.0
O380 O 0.86142 0.77146 0.56975 0.0
C381 C 0.89522 0.76586 0.27342 0.0
C382 C 0.90321 0.74708 0.2166 0.0
C383 C 0.89844 0.76181 0.21346 0.0
N384 N 0.89746 0.75393 0.30959 0.0
N385 N 0.90263 0.74286 0.2757 0.0
C386 C 0.89016 0.78078 0.29673 0.0
H387 H 0.89689 0.78392 0.33734 0.0
H388 H 0.87834 0.78011 0.31164 0.0
H389 H 0.89144 0.78961 0.26145 0.0
C390 C 0.84906 0.74794 0.44542 0.0
N391 N 0.86398 0.74918 0.45157 0.0
N392 N 0.87014 0.75068 0.39712 0.0
C393 C 0.85925 0.75026 0.35438 0.0
C394 C 0.8456 0.74874 0.38367 0.0
C395 C 0.83844 0.74597 0.49785 0.0
H396 H 0.83741 0.7567 0.52279 0.0
H397 H 0.82713 0.74264 0.48242 0.0
H398 H 0.84287 0.73748 0.53009 0.0
O399 O 0.88834 0.72857 0.51282 0.0
O400 O 0.9004 0.73315 0.42542 0.0
H401 H 0.85205 0.74437 0.26288 0.0
H402 H 0.86352 0.76074 0.26813 0.0
C403 C 0.8618 0.74936 0.28666 0.0
H404 H 0.87177 0.74246 0.27675 0.0
H405 H 0.90495 0.73218 0.29236 0.0
O406 O 0.86526 0.74786 0.59764 0.0
C407 C 0.8979 0.72494 0.47209 0.0
Co408 Co 0.51937 0.59662 0.80723 0.0
Co409 Co 0.52358 0.61217 0.68116 0.0
C410 C 0.49788 0.61985 0.76056 0.0
O411 O 0.50236 0.61056 0.80055 0.0
O412 O 0.50499 0.62172 0.71071 0.0
C413 C 0.50211 0.58111 0.89601 0.0
O414 O 0.49092 0.58463 0.85987 0.0
C415 C 0.51802 0.61904 0.55299 0.0
C416 C 0.54088 0.62367 0.51989 0.0
C417 C 0.52628 0.62169 0.5003 0.0
N418 N 0.52741 0.619 0.60085 0.0
N419 N 0.54097 0.62229 0.58117 0.0
C420 C 0.50187 0.61473 0.55745 0.0
H421 H 0.4995 0.60932 0.60215 0.0
H422 H 0.49872 0.60706 0.51969 0.0
H423 H 0.49491 0.62494 0.55348 0.0
C424 C 0.52244 0.56959 0.73133 0.0
N425 N 0.52129 0.58449 0.73731 0.0
N426 N 0.52279 0.59085 0.68332 0.0
C427 C 0.52491 0.58009 0.64087 0.0
C428 C 0.52476 0.56626 0.67002 0.0
C429 C 0.52263 0.55894 0.78422 0.0
H430 H 0.52943 0.56365 0.82204 0.0
H431 H 0.51106 0.55739 0.80124 0.0
H432 H 0.52731 0.54792 0.77101 0.0
O433 O 0.53801 0.60807 0.82161 0.0
O434 O 0.54061 0.61895 0.73082 0.0
H435 H 0.53618 0.59073 0.56602 0.0
H436 H 0.52849 0.57267 0.54675 0.0
C437 C 0.52671 0.58299 0.57367 0.0
H438 H 0.5164 0.58821 0.55608 0.0
H439 H 0.55044 0.62255 0.60898 0.0
O440 O 0.51535 0.58451 0.88023 0.0
C441 C 0.54516 0.61656 0.78512 0.0
Co442 Co 0.0289 0.40248 0.31068 0.0
Co443 Co 0.02689 0.38718 0.18282 0.0
C444 C 0.05417 0.38431 0.25795 0.0
O445 O 0.04819 0.39233 0.29921 0.0
O446 O 0.04721 0.38117 0.20882 0.0
C447 C 0.04405 0.4202 0.39852 0.0
O448 O 0.05515 0.41904 0.35947 0.0
C449 C 0.03262 0.38059 0.05357 0.0
C450 C 0.01016 0.37356 0.02296 0.0
C451 C 0.02448 0.37657 0.00199 0.0
N452 N 0.02342 0.38026 0.10216 0.0
N453 N 0.01013 0.37566 0.0839 0.0
C454 C 0.04836 0.38627 0.0561 0.0
H455 H 0.05048 0.3922 0.09985 0.0
H456 H 0.05063 0.39395 0.01725 0.0
H457 H 0.05617 0.37668 0.05269 0.0
C458 C 0.02056 0.42894 0.23806 0.0
N459 N 0.02394 0.41435 0.24258 0.0
N460 N 0.0239 0.40827 0.18774 0.0
C461 C 0.02083 0.41897 0.14601 0.0
C462 C 0.01856 0.43246 0.17662 0.0
C463 C 0.01853 0.43901 0.29218 0.0
H464 H 0.01318 0.43278 0.33024 0.0
H465 H 0.02964 0.44292 0.30803 0.0
H466 H 0.01154 0.44884 0.28051 0.0
O467 O 0.01342 0.38724 0.32638 0.0
O468 O 0.01189 0.37683 0.23417 0.0
H469 H 0.01232 0.40858 0.0648 0.0
H470 H 0.02022 0.42692 0.0515 0.0
C471 C 0.0213 0.41647 0.07818 0.0
H472 H 0.03216 0.41149 0.06594 0.0
H473 H 0.00084 0.37472 0.11253 0.0
O474 O 0.03139 0.41467 0.38484 0.0
C475 C 0.00775 0.37774 0.2898 0.0
Co476 Co 0.52542 0.39531 0.21771 0.0
Co477 Co 0.52357 0.37942 0.34444 0.0
C478 C 0.50008 0.37456 0.25218 0.0
O479 O 0.50698 0.38315 0.2155 0.0
O480 O 0.50517 0.37189 0.30543 0.0
C481 C 0.51164 0.41271 0.12836 0.0
O482 O 0.50083 0.41228 0.16906 0.0
C483 C 0.51275 0.37124 0.46628 0.0
C484 C 0.53394 0.37004 0.5178 0.0
C485 C 0.51855 0.36978 0.52494 0.0
N486 N 0.52418 0.37291 0.427 0.0
N487 N 0.53682 0.37172 0.45776 0.0
C488 C 0.49666 0.37127 0.4474 0.0
H489 H 0.49502 0.36298 0.41028 0.0
H490 H 0.49359 0.38239 0.42883 0.0
H491 H 0.48917 0.36829 0.48604 0.0
C492 C 0.52801 0.422 0.29611 0.0
N493 N 0.52614 0.40722 0.28838 0.0
N494 N 0.52445 0.40076 0.34206 0.0
C495 C 0.52465 0.41139 0.38589 0.0
C496 C 0.52707 0.4252 0.35825 0.0
C497 C 0.5317 0.43255 0.24509 0.0
H498 H 0.53834 0.42673 0.20944 0.0
H499 H 0.52117 0.43657 0.22389 0.0
H500 H 0.5381 0.44231 0.26215 0.0
O501 O 0.54299 0.3822 0.21377 0.0
O502 O 0.5414 0.37064 0.30351 0.0
H503 H 0.53128 0.40307 0.47374 0.0
H504 H 0.51876 0.41891 0.47747 0.0
C505 C 0.52146 0.40852 0.45223 0.0
H506 H 0.51175 0.40099 0.45631 0.0
H507 H 0.5474 0.373 0.4383 0.0
O508 O 0.5243 0.40726 0.14233 0.0
C509 C 0.54792 0.37276 0.25233 0.0
Co510 Co 0.02719 0.59789 0.70263 0.0
Co511 Co 0.02138 0.6164 0.82193 0.0
C512 C 0.0505 0.61831 0.75704 0.0
O513 O 0.04615 0.60893 0.71693 0.0
O514 O 0.04202 0.62237 0.80084 0.0
C515 C 0.04188 0.58373 0.60174 0.0
O516 O 0.05414 0.58858 0.62818 0.0
C517 C 0.02359 0.62563 0.95051 0.0
C518 C 0.00032 0.63255 0.96893 0.0
C519 C 0.01399 0.63014 0.99699 0.0
N520 N 0.01582 0.6251 0.89794 0.0
N521 N 0.00205 0.62972 0.90886 0.0
C522 C 0.0393 0.62007 0.95701 0.0
H523 H 0.04268 0.61353 0.91614 0.0
H524 H 0.04047 0.61306 -0.00131 0.0
H525 H 0.04691 0.62978 0.96178 0.0
C526 C 0.01915 0.57286 0.78417 0.0
N527 N 0.02128 0.58749 0.77354 0.0
N528 N 0.01902 0.59506 0.82441 0.0
C529 C 0.01543 0.58536 0.86949 0.0
C530 C 0.01548 0.57091 0.84553 0.0
C531 C 0.02029 0.5611 0.7356 0.0
H532 H 0.01478 0.56508 0.69312 0.0
H533 H 0.03224 0.55907 0.72501 0.0
H534 H 0.01497 0.55049 0.75028 0.0
O535 O 0.01134 0.61192 0.67727 0.0
O536 O 0.00777 0.62533 0.76129 0.0
H537 H 0.00495 0.59892 0.93798 0.0
H538 H 0.00963 0.58054 0.96467 0.0
C539 C 0.01329 0.58982 0.93505 0.0
H540 H 0.02405 0.59387 0.95339 0.0
H541 H 0.99358 0.62997 0.87607 0.0
O542 O 0.02956 0.58486 0.63023 0.0
C543 C 0.00479 0.62243 0.70564 0.0
H544 H 0.14757 0.20317 0.48909 0.0
H545 H 0.13168 0.18305 0.44986 0.0
H546 H 0.13282 0.20295 0.26987 0.0
H547 H 0.14867 0.22313 0.30913 0.0
H548 H 0.10401 0.19724 0.31482 0.0
H549 H 0.15021 0.17148 0.28769 0.0
H550 H 0.1749 0.16177 0.31777 0.0
H551 H 0.15447 0.13486 0.4575 0.0
H552 H 0.12966 0.1446 0.42889 0.0
H553 H 0.06028 0.14 0.18396 0.0
H554 H 0.08146 0.15659 0.20209 0.0
H555 H 0.08697 0.138 0.38302 0.0
H556 H 0.06592 0.12119 0.36512 0.0
H557 H 0.11379 0.14276 0.32766 0.0
H558 H 0.06853 0.17026 0.36454 0.0
H559 H 0.04361 0.18027 0.33939 0.0
H560 H 0.06215 0.20425 0.18684 0.0
H561 H 0.08716 0.19421 0.21061 0.0
C562 C 0.14461 0.2031 0.44096 0.0
C563 C 0.14946 0.21456 0.40178 0.0
C564 C 0.13562 0.1916 0.41859 0.0
C565 C 0.13122 0.19148 0.35691 0.0
C566 C 0.13623 0.2028 0.31748 0.0
C567 C 0.14538 0.21421 0.33972 0.0
C568 C 0.12032 0.18028 0.33525 0.0
C569 C 0.10624 0.18533 0.3163 0.0
C570 C 0.12316 0.16477 0.33906 0.0
C571 C 0.13807 0.15888 0.35646 0.0
C572 C 0.15099 0.1636 0.32521 0.0
C573 C 0.16501 0.15807 0.34192 0.0
C574 C 0.16626 0.14773 0.38961 0.0
C575 C 0.15349 0.14288 0.4206 0.0
C576 C 0.13944 0.14839 0.40411 0.0
C577 C 0.06604 0.13935 0.2275 0.0
C578 C 0.06129 0.12938 0.27338 0.0
C579 C 0.07814 0.14885 0.23774 0.0
C580 C 0.08564 0.14865 0.29417 0.0
C581 C 0.08131 0.13833 0.33917 0.0
C582 C 0.06923 0.12878 0.32893 0.0
C583 C 0.09745 0.15974 0.30758 0.0
C584 C 0.11165 0.15467 0.32528 0.0
C585 C 0.0947 0.17527 0.30326 0.0
C586 C 0.07968 0.18134 0.28891 0.0
C587 C 0.06727 0.17757 0.32531 0.0
C588 C 0.05313 0.18326 0.31137 0.0
C589 C 0.05129 0.19285 0.26142 0.0
C590 C 0.06359 0.1968 0.22543 0.0
C591 C 0.07775 0.19111 0.23913 0.0
H592 H 0.04034 0.19726 0.25071 0.0
H593 H 0.17713 0.14345 0.40246 0.0
H594 H 0.13781 0.78932 0.49095 0.0
H595 H 0.12307 0.80959 0.53488 0.0
H596 H 0.13919 0.79833 0.71528 0.0
H597 H 0.15408 0.77796 0.67163 0.0
H598 H 0.10833 0.80065 0.70844 0.0
H599 H 0.15079 0.82979 0.65345 0.0
H600 H 0.17087 0.83905 0.58606 0.0
H601 H 0.13823 0.8566 0.46121 0.0
H602 H 0.11794 0.84726 0.52739 0.0
H603 H 0.06559 0.86049 0.82922 0.0
H604 H 0.08705 0.84463 0.80554 0.0
H605 H 0.08109 0.85357 0.61277 0.0
H606 H 0.05997 0.86983 0.6362 0.0
H607 H 0.1097 0.85344 0.63922 0.0
H608 H 0.06772 0.82114 0.6836 0.0
H609 H 0.04717 0.81116 0.74684 0.0
H610 H 0.07847 0.79884 0.88708 0.0
H611 H 0.09919 0.80893 0.82495 0.0
C612 C 0.13835 0.79122 0.53992 0.0
C613 C 0.14707 0.78199 0.57786 0.0
C614 C 0.13 0.80287 0.56487 0.0
C615 C 0.13015 0.8055 0.62821 0.0
C616 C 0.139 0.79649 0.66622 0.0
C617 C 0.1475 0.78489 0.64119 0.0
C618 C 0.12016 0.81698 0.65463 0.0
C619 C 0.10882 0.81228 0.69449 0.0
C620 C 0.12066 0.83204 0.63517 0.0
C621 C 0.13283 0.83773 0.59525 0.0
C622 C 0.14788 0.83552 0.6114 0.0
C623 C 0.15931 0.8408 0.57345 0.0
C624 C 0.15583 0.84838 0.51934 0.0
C625 C 0.14091 0.85072 0.50313 0.0
C626 C 0.12944 0.84546 0.5409 0.0
C627 C 0.0689 0.85914 0.7818 0.0
C628 C 0.061 0.86631 0.73451 0.0
C629 C 0.08115 0.85005 0.76835 0.0
C630 C 0.08553 0.84772 0.70731 0.0
C631 C 0.07792 0.85521 0.66021 0.0
C632 C 0.0658 0.86446 0.67367 0.0
C633 C 0.09762 0.83704 0.6919 0.0
C634 C 0.10936 0.84188 0.65407 0.0
C635 C 0.09741 0.82205 0.71271 0.0
C636 C 0.08497 0.81595 0.74999 0.0
C637 C 0.0702 0.81641 0.72813 0.0
C638 C 0.05853 0.81072 0.76373 0.0
C639 C 0.06151 0.80442 0.82103 0.0
C640 C 0.07617 0.80376 0.84276 0.0
C641 C 0.08789 0.80945 0.80737 0.0
H642 H 0.05245 0.80002 0.84852 0.0
H643 H 0.16469 0.85246 0.49002 0.0
H644 H 0.48254 0.88705 0.90301 0.0
H645 H 0.46083 0.87294 0.93866 0.0
H646 H 0.45459 0.85504 0.757 0.0
H647 H 0.47616 0.86916 0.72071 0.0
H648 H 0.4275 0.861 0.81782 0.0
H649 H 0.47494 0.83593 0.8544 0.0
H650 H 0.50051 0.83474 0.89624 0.0
H651 H 0.48342 0.84189 0.07776 0.0
H652 H 0.45775 0.84333 0.03678 0.0
H653 H 0.39471 0.78976 0.85813 0.0
H654 H 0.40919 0.81202 0.83261 0.0
H655 H 0.4168 0.82025 0.02501 0.0
H656 H 0.40282 0.79768 0.05063 0.0
H657 H 0.44173 0.82185 0.96784 0.0
H658 H 0.39371 0.84324 0.93395 0.0
H659 H 0.36814 0.84492 0.89258 0.0
H660 H 0.38554 0.84529 0.70922 0.0
H661 H 0.41122 0.84341 0.74943 0.0
C662 C 0.47638 0.88035 0.87032 0.0
C663 C 0.48123 0.87903 0.80925 0.0
C664 C 0.46398 0.87231 0.89079 0.0
C665 C 0.45627 0.86282 0.85057 0.0
C666 C 0.46042 0.8623 0.7887 0.0
C667 C 0.47283 0.8703 0.7682 0.0
C668 C 0.44511 0.85209 0.87405 0.0
C669 C 0.43054 0.8524 0.85054 0.0
C670 C 0.44909 0.84111 0.91768 0.0
C671 C 0.46446 0.8399 0.94248 0.0
C672 C 0.47665 0.83733 0.90318 0.0
C673 C 0.49116 0.83661 0.92674 0.0
C674 C 0.49359 0.83829 0.9896 0.0
C675 C 0.48152 0.84062 0.02907 0.0
C676 C 0.46699 0.84139 0.00571 0.0
C677 C 0.39931 0.79643 0.89499 0.0
C678 C 0.39773 0.79193 0.95632 0.0
C679 C 0.4075 0.80922 0.8804 0.0
C680 C 0.41397 0.81792 0.92695 0.0
C681 C 0.41194 0.81371 0.98833 0.0
C682 C 0.40395 0.80081 0.00289 0.0
C683 C 0.42396 0.8306 0.91145 0.0
C684 C 0.43844 0.83059 0.93614 0.0
C685 C 0.41983 0.84188 0.86919 0.0
C686 C 0.4044 0.84308 0.84475 0.0
C687 C 0.39209 0.84358 0.88479 0.0
C688 C 0.37757 0.84458 0.86154 0.0
C689 C 0.37522 0.84518 0.79831 0.0
C690 C 0.38738 0.84482 0.75819 0.0
C691 C 0.40192 0.84381 0.78119 0.0
H692 H 0.36397 0.84596 0.78041 0.0
H693 H 0.50484 0.83776 0.00774 0.0
H694 H 0.47846 0.11103 0.11731 0.0
H695 H 0.45807 0.12712 0.08208 0.0
H696 H 0.47275 0.16178 0.20578 0.0
H697 H 0.49257 0.14556 0.24306 0.0
H698 H 0.44458 0.16144 0.20745 0.0
H699 H 0.48132 0.1612 0.04702 0.0
H700 H 0.49789 0.14968 0.97003 0.0
H701 H 0.45983 0.13129 0.87708 0.0
H702 H 0.44304 0.14253 0.95408 0.0
H703 H 0.42075 0.22064 0.9679 0.0
H704 H 0.43714 0.20001 0.99697 0.0
H705 H 0.40145 0.18057 0.10367 0.0
H706 H 0.38532 0.20168 0.07757 0.0
H707 H 0.43885 0.17183 0.98541 0.0
H708 H 0.41459 0.1638 0.22912 0.0
H709 H 0.40125 0.17835 0.30813 0.0
H710 H 0.42011 0.21894 0.2372 0.0
H711 H 0.43368 0.20461 0.15831 0.0
C712 C 0.47723 0.12205 0.13723 0.0
C713 C 0.48713 0.12705 0.18281 0.0
C714 C 0.46563 0.13126 0.11687 0.0
C715 C 0.464 0.14577 0.14057 0.0
C716 C 0.47373 0.15063 0.18689 0.0
C717 C 0.4851 0.14134 0.20808 0.0
C718 C 0.45244 0.15612 0.11667 0.0
C719 C 0.44329 0.16364 0.15884 0.0
C720 C 0.45089 0.15921 0.05333 0.0
C721 C 0.46094 0.15256 0.00667 0.0
C722 C 0.47649 0.15461 0.01038 0.0
C723 C 0.48593 0.14815 0.96673 0.0
C724 C 0.47992 0.13972 0.9188 0.0
C725 C 0.46447 0.13779 0.91431 0.0
C726 C 0.45499 0.14421 0.95792 0.0
C727 C 0.41638 0.2119 0.99721 0.0
C728 C 0.40187 0.21285 0.02129 0.0
C729 C 0.42574 0.20008 0.01362 0.0
C730 C 0.42065 0.18887 0.05356 0.0
C731 C 0.40578 0.18929 0.07424 0.0
C732 C 0.39656 0.20132 0.05915 0.0
C733 C 0.43118 0.17731 0.07632 0.0
C734 C 0.44005 0.16951 0.03395 0.0
C735 C 0.43298 0.17444 0.13973 0.0
C736 C 0.42499 0.18315 0.18742 0.0
C737 C 0.41591 0.17582 0.23054 0.0
C738 C 0.40831 0.18404 0.27527 0.0
C739 C 0.40979 0.19957 0.27753 0.0
C740 C 0.41892 0.20692 0.23525 0.0
C741 C 0.42657 0.19876 0.1905 0.0
H742 H 0.40388 0.2059 0.31214 0.0
H743 H 0.48724 0.13472 0.88506 0.0
H744 H 0.90679 0.77554 0.61321 0.0
H745 H 0.92132 0.79584 0.65748 0.0
H746 H 0.92254 0.81787 0.48147 0.0
H747 H 0.90865 0.79707 0.43614 0.0
H748 H 0.94833 0.81881 0.52697 0.0
H749 H 0.90035 0.82942 0.60818 0.0
H750 H 0.87654 0.82468 0.66145 0.0
H751 H 0.90012 0.81661 0.82928 0.0
H752 H 0.92416 0.82064 0.77665 0.0
H753 H 0.98253 0.8831 0.64405 0.0
H754 H 0.96209 0.86763 0.60575 0.0
H755 H 0.96595 0.8388 0.76281 0.0
H756 H 0.98627 0.85432 0.80251 0.0
H757 H 0.93625 0.84331 0.7248 0.0
H758 H 0.98429 0.83063 0.63536 0.0
H759 H 0.00756 0.83614 0.57921 0.0
H760 H 0.9821 0.84998 0.42245 0.0
H761 H 0.95867 0.84491 0.47824 0.0
C762 C 0.91009 0.78475 0.58397 0.0
C763 C 0.90662 0.78473 0.52117 0.0
C764 C 0.91829 0.79643 0.6095 0.0
C765 C 0.9228 0.80857 0.57318 0.0
C766 C 0.91916 0.80864 0.5105 0.0
C767 C 0.91124 0.79677 0.4846 0.0
C768 C 0.93213 0.82065 0.59974 0.0
C769 C 0.94547 0.82436 0.56957 0.0
C770 C 0.92859 0.82774 0.65609 0.0
C771 C 0.91413 0.82519 0.68811 0.0
C772 C 0.90051 0.82642 0.65626 0.0
C773 C 0.88696 0.82382 0.68636 0.0
C774 C 0.88684 0.82022 0.74862 0.0
C775 C 0.90026 0.81923 0.78093 0.0
C776 C 0.91386 0.82165 0.75094 0.0
C777 C 0.97892 0.87359 0.67094 0.0
C778 C 0.9862 0.86977 0.72577 0.0
C779 C 0.96723 0.86481 0.64894 0.0
C780 C 0.96276 0.85197 0.68072 0.0
C781 C 0.96931 0.84866 0.73746 0.0
C782 C 0.98095 0.85751 0.75991 0.0
C783 C 0.9523 0.84127 0.65193 0.0
C784 C 0.93886 0.83782 0.6818 0.0
C785 C 0.9556 0.83455 0.59482 0.0
C786 C 0.96972 0.83754 0.56125 0.0
C787 C 0.98365 0.83498 0.58913 0.0
C788 C 0.99687 0.83802 0.55735 0.0
C789 C 0.99631 0.84344 0.49735 0.0
C790 C 0.98252 0.84577 0.46892 0.0
C791 C 0.96927 0.84286 0.50065 0.0
H792 H 0.00655 0.8458 0.47283 0.0
H793 H 0.87634 0.81827 0.77193 0.0
H794 H 0.91205 0.20749 0.56027 0.0
H795 H 0.92797 0.18661 0.52963 0.0
H796 H 0.90935 0.18809 0.34748 0.0
H797 H 0.8932 0.20879 0.37782 0.0
H798 H 0.91462 0.15968 0.38205 0.0
H799 H 0.94142 0.20597 0.37674 0.0
H800 H 0.95089 0.22984 0.41771 0.0
H801 H 0.97492 0.20626 0.55781 0.0
H802 H 0.96543 0.18225 0.51811 0.0
H803 H 0.97804 0.13181 0.21302 0.0
H804 H 0.95752 0.14693 0.25403 0.0
H805 H 0.97281 0.13827 0.43793 0.0
H806 H 0.99317 0.12297 0.39773 0.0
H807 H 0.96892 0.16934 0.40548 0.0
H808 H 0.9428 0.12237 0.40029 0.0
H809 H 0.93356 0.09928 0.35183 0.0
H810 H 0.90864 0.1252 0.22163 0.0
H811 H 0.91792 0.14847 0.26877 0.0
C812 C 0.91116 0.20323 0.51396 0.0
C813 C 0.90155 0.20997 0.47117 0.0
C814 C 0.92029 0.19133 0.4965 0.0
C815 C 0.92004 0.18605 0.43594 0.0
C816 C 0.90977 0.19209 0.3943 0.0
C817 C 0.90061 0.20396 0.41171 0.0
C818 C 0.9313 0.17511 0.41464 0.0
C819 C 0.92649 0.16182 0.3868 0.0
C820 C 0.94679 0.17791 0.42107 0.0
C821 C 0.95258 0.19233 0.44489 0.0
C822 C 0.94863 0.20588 0.41657 0.0
C823 C 0.95402 0.21944 0.4395 0.0
C824 C 0.96346 0.21957 0.49045 0.0
C825 C 0.96758 0.20614 0.51842 0.0
C826 C 0.96221 0.19255 0.49571 0.0
C827 C 0.97694 0.13299 0.26219 0.0
C828 C 0.98727 0.12626 0.30208 0.0
C829 C 0.96519 0.14157 0.28549 0.0
C830 C 0.96371 0.14366 0.3489 0.0
C831 C 0.97381 0.13674 0.38885 0.0
C832 C 0.9854 0.12799 0.36572 0.0
C833 C 0.95224 0.15388 0.37341 0.0
C834 C 0.95704 0.16713 0.40141 0.0
C835 C 0.9368 0.15114 0.36603 0.0
C836 C 0.93118 0.13717 0.33769 0.0
C837 C 0.93546 0.12315 0.36096 0.0
C838 C 0.93019 0.11003 0.3338 0.0
C839 C 0.92055 0.11077 0.28357 0.0
C840 C 0.91613 0.12464 0.26049 0.0
C841 C 0.92138 0.1378 0.28745 0.0
H842 H 0.91648 0.1006 0.26263 0.0
H843 H 0.96761 0.23007 0.50818 0.0
H844 H 0.56406 0.13653 0.26446 0.0
H845 H 0.58463 0.15141 0.22423 0.0
H846 H 0.58216 0.12768 0.05256 0.0
H847 H 0.56168 0.11248 0.09276 0.0
H848 H 0.61057 0.1341 0.07905 0.0
H849 H 0.56485 0.16104 0.06718 0.0
H850 H 0.54102 0.1714 0.10471 0.0
H851 H 0.56468 0.19824 0.23577 0.0
H852 H 0.58865 0.18785 0.19962 0.0
H853 H 0.63665 0.20537 0.92533 0.0
H854 H 0.6204 0.18428 0.95234 0.0
H855 H 0.6391 0.18356 0.13418 0.0
H856 H 0.65555 0.2043 0.10776 0.0
H857 H 0.60219 0.18886 0.09068 0.0
H858 H 0.64822 0.1574 0.1037 0.0
H859 H 0.67099 0.14711 0.05594 0.0
H860 H 0.64483 0.12955 0.90759 0.0
H861 H 0.62193 0.13995 0.95418 0.0
C862 C 0.56797 0.13432 0.21839 0.0
C863 C 0.56101 0.12351 0.18141 0.0
C864 C 0.57972 0.14287 0.1954 0.0
C865 C 0.58462 0.14092 0.13481 0.0
C866 C 0.57841 0.12948 0.09916 0.0
C867 C 0.56666 0.12085 0.1222 0.0
C868 C 0.59546 0.15154 0.10772 0.0
C869 C 0.60868 0.14606 0.08129 0.0
C870 C 0.5929 0.16715 0.10954 0.0
C871 C 0.57853 0.17356 0.13105 0.0
C872 C 0.56496 0.16907 0.10429 0.0
C873 C 0.55143 0.17496 0.12528 0.0
C874 C 0.55133 0.18545 0.1727 0.0
C875 C 0.56477 0.1901 0.19909 0.0
C876 C 0.57833 0.18422 0.17834 0.0
C877 C 0.63752 0.20053 0.97067 0.0
C878 C 0.64733 0.20658 0.01449 0.0
C879 C 0.62828 0.18847 0.98585 0.0
C880 C 0.62874 0.18236 0.04493 0.0
C881 C 0.63881 0.18803 0.08806 0.0
C882 C 0.64815 0.19992 0.07283 0.0
C883 C 0.61743 0.17141 0.06448 0.0
C884 C 0.60403 0.17688 0.08874 0.0
C885 C 0.61972 0.15587 0.05962 0.0
C886 C 0.63344 0.14963 0.03187 0.0
C887 C 0.64736 0.15151 0.06051 0.0
C888 C 0.66028 0.14562 0.03378 0.0
C889 C 0.65937 0.13774 0.97862 0.0
C890 C 0.64553 0.13569 0.95021 0.0
C891 C 0.63258 0.14158 0.97676 0.0
H892 H 0.66938 0.13317 0.95801 0.0
H893 H 0.54084 0.18999 0.1889 0.0
H894 H 0.54888 0.86789 0.89376 0.0
H895 H 0.56887 0.85114 0.92563 0.0
H896 H 0.58337 0.84698 0.73778 0.0
H897 H 0.56274 0.86316 0.7051 0.0
H898 H 0.58454 0.82131 0.78867 0.0
H899 H 0.6018 0.86963 0.85051 0.0
H900 H 0.59945 0.89419 0.90081 0.0
H901 H 0.59418 0.87272 0.07539 0.0
H902 H 0.59624 0.84802 0.02605 0.0
H903 H 0.65282 0.78688 0.87239 0.0
H904 H 0.63583 0.80643 0.83726 0.0
H905 H 0.61281 0.80518 0.01071 0.0
H906 H 0.6297 0.78552 0.04646 0.0
H907 H 0.61749 0.83444 0.96337 0.0
H908 H 0.59942 0.78627 0.89932 0.0
H909 H 0.60018 0.76182 0.84755 0.0
H910 H 0.60652 0.78356 0.67411 0.0
H911 H 0.60627 0.80814 0.7251 0.0
C912 C 0.55633 0.8634 0.85922 0.0
C913 C 0.55434 0.86687 0.797 0.0
C914 C 0.56782 0.85392 0.87757 0.0
C915 C 0.57788 0.84811 0.83441 0.0
C916 C 0.5758 0.85142 0.772 0.0
C917 C 0.56404 0.86065 0.75336 0.0
C918 C 0.59029 0.83827 0.85457 0.0
C919 C 0.59196 0.82434 0.82594 0.0
C920 C 0.59976 0.84208 0.90429 0.0
C921 C 0.5991 0.85695 0.93446 0.0
C922 C 0.60011 0.87014 0.89961 0.0
C923 C 0.5988 0.88409 0.92795 0.0
C924 C 0.59663 0.88501 0.99123 0.0
C925 C 0.59585 0.87199 0.02637 0.0
C926 C 0.59711 0.85801 -0.00175 0.0
C927 C 0.64423 0.79083 0.9034 0.0
C928 C 0.64246 0.78446 0.96193 0.0
C929 C 0.63455 0.802 0.88315 0.0
C930 C 0.62296 0.80703 0.92106 0.0
C931 C 0.62167 0.80135 0.98074 0.0
C932 C 0.6313 0.7901 0.00099 0.0
C933 C 0.61167 0.81758 0.89725 0.0
C934 C 0.61021 0.83159 0.92538 0.0
C935 C 0.60247 0.81391 0.8467 0.0
C936 C 0.60306 0.79907 0.81625 0.0
C937 C 0.60123 0.78585 0.8503 0.0
C938 C 0.60152 0.77196 0.82104 0.0
C939 C 0.60341 0.77113 0.75758 0.0
C940 C 0.60503 0.78421 0.72325 0.0
C941 C 0.60488 0.79812 0.75236 0.0
H942 H 0.60362 0.76037 0.73502 0.0
H943 H 0.59559 0.89582 0.01305 0.0
H944 H 0.635 0.70619 0.04238 0.0
H945 H 0.61973 0.68507 0.01013 0.0
H946 H 0.63693 0.68915 0.82622 0.0
H947 H 0.65222 0.71044 0.85792 0.0
H948 H 0.60657 0.68855 0.83007 0.0
H949 H 0.64675 0.65969 0.91423 0.0
H950 H 0.66494 0.65214 0.99314 0.0
H951 H 0.62911 0.6408 0.11544 0.0
H952 H 0.61068 0.64848 0.03757 0.0
H953 H 0.56758 0.62748 0.71415 0.0
H954 H 0.58876 0.64266 0.74651 0.0
H955 H 0.57461 0.63873 0.93487 0.0
H956 H 0.55356 0.62305 0.90285 0.0
H957 H 0.60468 0.63835 0.92639 0.0
H958 H 0.56484 0.66912 0.85058 0.0
H959 H 0.54585 0.67729 0.77588 0.0
H960 H 0.58025 0.68599 0.64337 0.0
H961 H 0.59943 0.67769 0.7171 0.0
C962 C 0.63568 0.70252 0.99517 0.0
C963 C 0.64476 0.71008 0.95258 0.0
C964 C 0.62702 0.69037 0.97696 0.0
C965 C 0.62729 0.68549 0.91593 0.0
C966 C 0.63662 0.69274 0.87361 0.0
C967 C 0.64534 0.70489 0.89182 0.0
C968 C 0.61685 0.67372 0.89532 0.0
C969 C 0.60637 0.67747 0.85021 0.0
C970 C 0.61627 0.65947 0.92333 0.0
C971 C 0.62733 0.65477 0.97018 0.0
C972 C 0.64274 0.6557 0.95811 0.0
C973 C 0.6531 0.65137 0.00264 0.0
C974 C 0.64819 0.64602 0.05931 0.0
C975 C 0.6329 0.64495 0.07153 0.0
C976 C 0.62249 0.64927 0.02718 0.0
C977 C 0.56906 0.6297 0.76256 0.0
C978 C 0.5588 0.62428 0.80595 0.0
C979 C 0.58117 0.63838 0.78095 0.0
C980 C 0.58305 0.6421 0.84289 0.0
C981 C 0.5733 0.63603 0.88678 0.0
C982 C 0.56128 0.62712 0.86845 0.0
C983 C 0.59448 0.6532 0.86097 0.0
C984 C 0.60504 0.64938 0.90578 0.0
C985 C 0.59505 0.6675 0.83336 0.0
C986 C 0.58355 0.67265 0.78914 0.0
C987 C 0.56834 0.67268 0.80538 0.0
C988 C 0.55755 0.67735 0.76324 0.0
C989 C 0.56184 0.68211 0.70486 0.0
C990 C 0.57694 0.68227 0.68858 0.0
C991 C 0.58778 0.6776 0.73054 0.0
H992 H 0.55347 0.68571 0.67228 0.0
H993 H 0.65622 0.64268 0.09373 0.0
H994 H 0.56342 0.37278 0.14445 0.0
H995 H 0.58373 0.35616 0.11442 0.0
H996 H 0.58268 0.33538 0.29262 0.0
H997 H 0.56233 0.35203 0.32351 0.0
H998 H 0.61204 0.33993 0.24587 0.0
H999 H 0.56507 0.31859 0.18388 0.0
H1000 H 0.54033 0.31896 0.13425 0.0
H1001 H 0.56091 0.3283 0.96067 0.0
H1002 H 0.58577 0.32821 0.00948 0.0
H1003 H 0.64949 0.27263 0.15495 0.0
H1004 H 0.63313 0.29183 0.19829 0.0
H1005 H 0.62578 0.30984 0.01725 0.0
H1006 H 0.64156 0.29035 0.97364 0.0
H1007 H 0.60053 0.30645 0.07098 0.0
H1008 H 0.64766 0.32776 0.13177 0.0
H1009 H 0.67242 0.32796 0.18128 0.0
H1010 H 0.65203 0.31913 0.35568 0.0
H1011 H 0.62716 0.31863 0.30706 0.0
C1012 C 0.56758 0.3648 0.17763 0.0
C1013 C 0.56111 0.36361 0.23616 0.0
C1014 C 0.5792 0.35532 0.16034 0.0
C1015 C 0.58455 0.34447 0.20112 0.0
C1016 C 0.57866 0.3437 0.26056 0.0
C1017 C 0.56698 0.35316 0.27793 0.0
C1018 C 0.59548 0.33324 0.17988 0.0
C1019 C 0.60954 0.33247 0.20808 0.0
C1020 C 0.59219 0.3237 0.13009 0.0
C1021 C 0.57727 0.32353 0.10045 0.0
C1022 C 0.56431 0.32083 0.13521 0.0
C1023 C 0.55027 0.32097 0.10722 0.0
C1024 C 0.54904 0.32369 0.04437 0.0
C1025 C 0.56187 0.32622 0.00936 0.0
C1026 C 0.57594 0.3261 0.03715 0.0
C1027 C 0.64452 0.28082 0.12458 0.0
C1028 C 0.64671 0.27995 0.06091 0.0
C1029 C 0.63523 0.29182 0.14941 0.0
C1030 C 0.62828 0.30235 0.11107 0.0
C1031 C 0.63094 0.3018 0.04772 0.0
C1032 C 0.63998 0.29067 0.02284 0.0
C1033 C 0.61738 0.31328 0.13584 0.0
C1034 C 0.60319 0.31391 0.1086 0.0
C1035 C 0.62062 0.3227 0.18632 0.0
C1036 C 0.63556 0.32301 0.21564 0.0
C1037 C 0.64847 0.32573 0.18059 0.0
C1038 C 0.66252 0.32591 0.20851 0.0
C1039 C 0.6638 0.3235 0.27155 0.0
C1040 C 0.65103 0.32095 0.30683 0.0
C1041 C 0.63695 0.32073 0.27913 0.0
H1042 H 0.67469 0.32365 0.29308 0.0
H1043 H 0.53816 0.32381 0.0228 0.0
H1044 H 0.98364 0.36762 0.22689 0.0
H1045 H 0.96431 0.35036 0.2632 0.0
H1046 H 0.98661 0.34712 0.43791 0.0
H1047 H 0.00604 0.3643 0.40148 0.0
H1048 H 0.97818 0.31932 0.38685 0.0
H1049 H 0.95666 0.3671 0.43227 0.0
H1050 H 0.94854 0.39283 0.40965 0.0
H1051 H 0.91816 0.37638 0.2732 0.0
H1052 H 0.92627 0.35055 0.29436 0.0
H1053 H 0.92032 0.28235 0.54617 0.0
H1054 H 0.9385 0.30137 0.51688 0.0
H1055 H 0.91642 0.30681 0.34271 0.0
H1056 H 0.89811 0.28777 0.37149 0.0
H1057 H 0.9247 0.33387 0.39614 0.0
H1058 H 0.94646 0.28644 0.34733 0.0
H1059 H 0.9544 0.26055 0.36805 0.0
H1060 H 0.98432 0.27613 0.50783 0.0
H1061 H 0.97637 0.30211 0.48866 0.0
C1062 C 0.98436 0.36324 0.27308 0.0
C1063 C 0.99612 0.36747 0.31196 0.0
C1064 C 0.97333 0.35346 0.29378 0.0
C1065 C 0.97398 0.34764 0.35339 0.0
C1066 C 0.98587 0.35162 0.39193 0.0
C1067 C 0.99683 0.36154 0.37143 0.0
C1068 C 0.96234 0.3372 0.37497 0.0
C1069 C 0.96652 0.32254 0.38987 0.0
C1070 C 0.94711 0.34137 0.37723 0.0
C1071 C 0.94218 0.35689 0.36448 0.0
C1072 C 0.94834 0.36897 0.39704 0.0
C1073 C 0.94373 0.38358 0.38456 0.0
C1074 C 0.93287 0.38624 0.3399 0.0
C1075 C 0.92659 0.3743 0.30773 0.0
C1076 C 0.93118 0.35967 0.31998 0.0
C1077 C 0.91922 0.28765 0.50179 0.0
C1078 C 0.90782 0.28345 0.46095 0.0
C1079 C 0.92965 0.29849 0.48513 0.0
C1080 C 0.92886 0.30534 0.42744 0.0
C1081 C 0.9172 0.3016 0.38742 0.0
C1082 C 0.90679 0.29069 0.40388 0.0
C1083 C 0.94055 0.316 0.40809 0.0
C1084 C 0.93638 0.33067 0.39343 0.0
C1085 C 0.95578 0.31182 0.4057 0.0
C1086 C 0.96069 0.29621 0.41701 0.0
C1087 C 0.95464 0.28434 0.38286 0.0
C1088 C 0.95915 0.26965 0.39426 0.0
C1089 C 0.96983 0.26669 0.43934 0.0
C1090 C 0.97604 0.27843 0.473 0.0
C1091 C 0.97153 0.29315 0.46186 0.0
H1092 H 0.97332 0.25531 0.44805 0.0
H1093 H 0.92931 0.39756 0.33032 0.0
H1094 H 0.89022 0.6993 0.53208 0.0
H1095 H 0.90666 0.67838 0.55801 0.0
H1096 H 0.94303 0.7 0.46284 0.0
H1097 H 0.9264 0.72037 0.43361 0.0
H1098 H 0.94659 0.67186 0.4514 0.0
H1099 H 0.93614 0.70444 0.62283 0.0
H1100 H 0.91999 0.71758 0.69694 0.0
H1101 H 0.90272 0.67558 0.76045 0.0
H1102 H 0.91866 0.6622 0.68615 0.0
H1103 H 0.99643 0.65083 0.73251 0.0
H1104 H 0.97752 0.66592 0.6814 0.0
H1105 H 0.96828 0.62951 0.55725 0.0
H1106 H 0.98775 0.61458 0.60674 0.0
H1107 H 0.94956 0.66271 0.67522 0.0
H1108 H 0.95427 0.64162 0.42748 0.0
H1109 H 0.97332 0.63208 0.35549 0.0
H1110 H 0.00717 0.65739 0.44838 0.0
H1111 H 0.98839 0.66681 0.52158 0.0
C1112 C 0.90166 0.69941 0.51583 0.0
C1113 C 0.90712 0.71151 0.48163 0.0
C1114 C 0.91105 0.68749 0.53075 0.0
C1115 C 0.9262 0.6878 0.51383 0.0
C1116 C 0.93141 0.69949 0.47659 0.0
C1117 C 0.92191 0.71118 0.46016 0.0
C1118 C 0.93699 0.6769 0.53968 0.0
C1119 C 0.94717 0.66978 0.50031 0.0
C1120 C 0.93797 0.67434 0.60361 0.0
C1121 C 0.92845 0.68235 0.64853 0.0
C1122 C 0.92883 0.69803 0.65239 0.0
C1123 C 0.91973 0.70551 0.69442 0.0
C1124 C 0.9103 0.69742 0.73324 0.0
C1125 C 0.91 0.68183 0.73025 0.0
C1126 C 0.91907 0.67429 0.68822 0.0
C1127 C 0.99043 0.64607 0.69408 0.0
C1128 C 0.99353 0.63154 0.6736 0.0
C1129 C 0.97961 0.6547 0.66493 0.0
C1130 C 0.97148 0.6489 0.61529 0.0
C1131 C 0.97457 0.63435 0.59466 0.0
C1132 C 0.98563 0.6258 0.62319 0.0
C1133 C 0.95945 0.658 0.58722 0.0
C1134 C 0.94891 0.66465 0.62622 0.0
C1135 C 0.95858 0.6606 0.52337 0.0
C1136 C 0.96996 0.6548 0.48019 0.0
C1137 C 0.96579 0.64509 0.4326 0.0
C1138 C 0.97656 0.63965 0.39179 0.0
C1139 C 0.99148 0.64402 0.39768 0.0
C1140 C 0.99566 0.65385 0.44435 0.0
C1141 C 0.98498 0.65918 0.48569 0.0
H1142 H -0.00022 0.63985 0.36594 0.0
H1143 H 0.90325 0.70324 0.76575 0.0
H1144 H 0.40156 0.29762 0.95684 0.0
H1145 H 0.41694 0.31827 0.99449 0.0
H1146 H 0.4163 0.29902 0.17593 0.0
H1147 H 0.40028 0.27893 0.13933 0.0
H1148 H 0.41498 0.32715 0.18764 0.0
H1149 H 0.44653 0.29433 0.06856 0.0
H1150 H 0.45442 0.28045 0.97639 0.0
H1151 H 0.45736 0.32151 0.87533 0.0
H1152 H 0.44925 0.3356 0.96668 0.0
H1153 H 0.48437 0.35231 0.30944 0.0
H1154 H 0.46282 0.33868 0.26968 0.0
H1155 H 0.46273 0.36653 0.1084 0.0
H1156 H 0.48444 0.38006 0.14709 0.0
H1157 H 0.46292 0.33693 0.08092 0.0
H1158 H 0.43513 0.36954 0.21305 0.0
H1159 H 0.42877 0.38194 0.31051 0.0
H1160 H 0.42036 0.3393 0.39383 0.0
H1161 H 0.42691 0.32662 0.2972 0.0
C1162 C 0.4046 0.2979 0.00483 0.0
C1163 C 0.39983 0.28661 0.04504 0.0
C1164 C 0.41345 0.30965 0.02628 0.0
C1165 C 0.41808 0.31004 0.08782 0.0
C1166 C 0.41291 0.299 0.12828 0.0
C1167 C 0.40378 0.28747 0.10723 0.0
C1168 C 0.42877 0.32151 0.11 0.0
C1169 C 0.42551 0.32921 0.16449 0.0
C1170 C 0.4424 0.32446 0.07925 0.0
C1171 C 0.44717 0.31599 0.02423 0.0
C1172 C 0.44877 0.30038 0.02654 0.0
C1173 C 0.45328 0.29247 0.97447 0.0
C1174 C 0.45636 0.30009 0.92 0.0
C1175 C 0.45495 0.31563 0.91752 0.0
C1176 C 0.45041 0.32357 0.96942 0.0
C1177 C 0.47966 0.35568 0.26589 0.0
C1178 C 0.48621 0.36719 0.23124 0.0
C1179 C 0.46729 0.34792 0.24338 0.0
C1180 C 0.46116 0.35164 0.18618 0.0
C1181 C 0.46733 0.36348 0.15257 0.0
C1182 C 0.47974 0.37118 0.17481 0.0
C1183 C 0.44923 0.34232 0.15904 0.0
C1184 C 0.45229 0.33502 0.10358 0.0
C1185 C 0.4356 0.33951 0.18969 0.0
C1186 C 0.43163 0.34713 0.24791 0.0
C1187 C 0.43205 0.3628 0.25228 0.0
C1188 C 0.42839 0.36988 0.30738 0.0
C1189 C 0.4242 0.36141 0.35836 0.0
C1190 C 0.42362 0.34585 0.35433 0.0
C1191 C 0.4273 0.33871 0.29937 0.0
H1192 H 0.42136 0.36692 0.40096 0.0
H1193 H 0.45986 0.29395 0.87975 0.0
H1194 H 0.39142 0.71388 0.86426 0.0
H1195 H 0.40768 0.69386 0.8278 0.0
H1196 H 0.4343 0.69755 0.9918 0.0
H1197 H 0.41809 0.71762 0.02887 0.0
H1198 H 0.45132 0.69721 0.88638 0.0
H1199 H 0.41149 0.66878 0.97703 0.0
H1200 H 0.38524 0.66146 0.99357 0.0
H1201 H 0.38133 0.64919 0.80406 0.0
H1202 H 0.40751 0.65664 0.7862 0.0
H1203 H 0.47832 0.61684 0.85583 0.0
H1204 H 0.45897 0.63443 0.88755 0.0
H1205 H 0.46858 0.66206 0.73051 0.0
H1206 H 0.48804 0.64453 0.69825 0.0
H1207 H 0.43331 0.64632 0.83431 0.0
H1208 H 0.46894 0.6983 0.78332 0.0
H1209 H 0.49549 0.70515 0.77107 0.0
H1210 H 0.50823 0.66953 0.89202 0.0
H1211 H 0.48176 0.66261 0.90565 0.0
C1212 C 0.40067 0.71039 0.89286 0.0
C1213 C 0.40348 0.71737 0.94949 0.0
C1214 C 0.40992 0.69892 0.87196 0.0
C1215 C 0.42215 0.69423 0.90721 0.0
C1216 C 0.42491 0.70106 0.96395 0.0
C1217 C 0.41561 0.71247 0.98513 0.0
C1218 C 0.4323 0.68248 0.88407 0.0
C1219 C 0.44738 0.68609 0.87495 0.0
C1220 C 0.42713 0.66797 0.86946 0.0
C1221 C 0.41142 0.66339 0.88017 0.0
C1222 C 0.405 0.66463 0.93878 0.0
C1223 C 0.39014 0.66044 0.94841 0.0
C1224 C 0.38161 0.65489 0.89986 0.0
C1225 C 0.38794 0.6535 0.84161 0.0
C1226 C 0.4028 0.65769 0.83172 0.0
C1227 C 0.4762 0.62655 0.82747 0.0
C1228 C 0.48485 0.62939 0.77489 0.0
C1229 C 0.46508 0.63654 0.84557 0.0
C1230 C 0.4625 0.64959 0.81176 0.0
C1231 C 0.47054 0.65209 0.75748 0.0
C1232 C 0.48162 0.64205 0.7391 0.0
C1233 C 0.45227 0.66112 0.83608 0.0
C1234 C 0.4372 0.65747 0.84539 0.0
C1235 C 0.45746 0.67557 0.85153 0.0
C1236 C 0.47339 0.67985 0.84493 0.0
C1237 C 0.47741 0.69198 0.8075 0.0
C1238 C 0.49244 0.69587 0.80029 0.0
C1239 C 0.50355 0.68774 0.83057 0.0
C1240 C 0.49963 0.67577 0.8684 0.0
C1241 C 0.48462 0.67186 0.87584 0.0
H1242 H 0.51518 0.69074 0.82481 0.0
H1243 H 0.37011 0.65165 0.90741 0.0
H1244 H 0.12758 0.71222 0.49222 0.0
H1245 H 0.11319 0.69151 0.53542 0.0
H1246 H 0.15091 0.67903 0.64739 0.0
H1247 H 0.16513 0.69999 0.60615 0.0
H1248 H 0.11538 0.66228 0.54132 0.0
H1249 H 0.13887 0.66677 0.78472 0.0
H1250 H 0.15184 0.68519 0.85009 0.0
H1251 H 0.13006 0.72103 0.75465 0.0
H1252 H 0.11688 0.70283 0.68916 0.0
H1253 H 0.07565 0.6072 0.70243 0.0
H1254 H 0.09794 0.6213 0.67239 0.0
H1255 H 0.07963 0.66082 0.7574 0.0
H1256 H 0.0579 0.64657 0.79075 0.0
H1257 H 0.10822 0.66194 0.7668 0.0
H1258 H 0.07364 0.64855 0.60334 0.0
H1259 H 0.06058 0.63067 0.53636 0.0
H1260 H 0.10252 0.61534 0.46498 0.0
H1261 H 0.11594 0.63235 0.53474 0.0
C1262 C 0.13286 0.70493 0.52538 0.0
C1263 C 0.14739 0.70784 0.54644 0.0
C1264 C 0.12464 0.6931 0.55006 0.0
C1265 C 0.13087 0.68393 0.59567 0.0
C1266 C 0.14575 0.68619 0.61345 0.0
C1267 C 0.15388 0.69814 0.5896 0.0
C1268 C 0.12148 0.67258 0.62672 0.0
C1269 C 0.11387 0.66213 0.59065 0.0
C1270 C 0.11957 0.6724 0.69115 0.0
C1271 C 0.127 0.68344 0.73174 0.0
C1272 C 0.13679 0.67858 0.77797 0.0
C1273 C 0.14419 0.68898 0.81496 0.0
C1274 C 0.14181 0.70427 0.80642 0.0
C1275 C 0.13194 0.70919 0.76111 0.0
C1276 C 0.1245 0.69884 0.72403 0.0
C1277 C 0.0766 0.61881 0.71596 0.0
C1278 C 0.06498 0.62587 0.74814 0.0
C1279 C 0.08931 0.62686 0.69864 0.0
C1280 C 0.09026 0.64225 0.71095 0.0
C1281 C 0.07914 0.649 0.74698 0.0
C1282 C 0.06668 0.64084 0.76589 0.0
C1283 C 0.10179 0.65176 0.68122 0.0
C1284 C 0.10987 0.66189 0.71755 0.0
C1285 C 0.10397 0.6518 0.61677 0.0
C1286 C 0.09581 0.64162 0.57483 0.0
C1287 C 0.0801 0.64127 0.57385 0.0
C1288 C 0.07262 0.63129 0.53536 0.0
C1289 C 0.0807 0.62205 0.49584 0.0
C1290 C 0.09628 0.62254 0.49554 0.0
C1291 C 0.10384 0.63224 0.53496 0.0
H1292 H 0.07489 0.61452 0.4654 0.0
H1293 H 0.14758 0.71229 0.83497 0.0
H1294 H 0.14719 0.28213 0.33562 0.0
H1295 H 0.13264 0.30392 0.30629 0.0
H1296 H 0.13318 0.31943 0.49372 0.0
H1297 H 0.14694 0.29686 0.52402 0.0
H1298 H 0.10742 0.32409 0.45114 0.0
H1299 H 0.15565 0.3355 0.37299 0.0
H1300 H 0.17921 0.33062 0.31791 0.0
H1301 H 0.15504 0.32553 0.14932 0.0
H1302 H 0.13131 0.33017 0.20349 0.0
H1303 H 0.07284 0.39014 0.35391 0.0
H1304 H 0.09429 0.37534 0.38647 0.0
H1305 H 0.08996 0.34773 0.22553 0.0
H1306 H 0.06854 0.36258 0.19197 0.0
H1307 H 0.12013 0.35266 0.26318 0.0
H1308 H 0.0719 0.33761 0.35058 0.0
H1309 H 0.04876 0.34362 0.407 0.0
H1310 H 0.07464 0.35748 0.56256 0.0
H1311 H 0.09794 0.35172 0.50669 0.0
C1312 C 0.14425 0.29022 0.37054 0.0
C1313 C 0.14826 0.28793 0.43195 0.0
C1314 C 0.13604 0.30276 0.35365 0.0
C1315 C 0.1322 0.31362 0.39735 0.0
C1316 C 0.13613 0.31129 0.45903 0.0
C1317 C 0.14398 0.29844 0.47633 0.0
C1318 C 0.12354 0.32701 0.37851 0.0
C1319 C 0.11045 0.33053 0.41088 0.0
C1320 C 0.12736 0.33544 0.32567 0.0
C1321 C 0.14167 0.33313 0.29244 0.0
C1322 C 0.15535 0.33331 0.32419 0.0
C1323 C 0.16874 0.33057 0.29313 0.0
C1324 C 0.16862 0.32775 0.23018 0.0
C1325 C 0.15512 0.32773 0.19808 0.0
C1326 C 0.14169 0.33044 0.22893 0.0
C1327 C 0.07662 0.38113 0.32462 0.0
C1328 C 0.06879 0.37732 0.27093 0.0
C1329 C 0.08891 0.37272 0.34332 0.0
C1330 C 0.09349 0.36032 0.30893 0.0
C1331 C 0.08653 0.35726 0.25272 0.0
C1332 C 0.07425 0.36571 0.23378 0.0
C1333 C 0.10406 0.34939 0.3352 0.0
C1334 C 0.11742 0.34636 0.30417 0.0
C1335 C 0.10065 0.34158 0.38979 0.0
C1336 C 0.08664 0.34434 0.42434 0.0
C1337 C 0.07264 0.34195 0.3968 0.0
C1338 C 0.05951 0.34533 0.42864 0.0
C1339 C 0.06023 0.35097 0.48827 0.0
C1340 C 0.0741 0.35313 0.51635 0.0
C1341 C 0.08727 0.34979 0.48466 0.0
H1342 H 0.05006 0.35365 0.51275 0.0
H1343 H 0.17899 0.32557 0.20625 0.0
H1344 H 0.04818 0.06047 0.08162 0.0
H1345 H 0.0503 0.03718 0.02365 0.0
H1346 H 0.01875 0.01624 0.14635 0.0
H1347 H 0.01594 0.03986 0.20197 0.0
H1348 H 0.05831 0.00996 0.0396 0.0
H1349 H 0.99577 0.99368 0.069 0.0
H1350 H 0.97151 0.00614 0.08574 0.0
H1351 H 0.98859 0.04639 0.00465 0.0
H1352 H 0.01285 0.03411 0.98663 0.0
H1353 H 0.04774 0.93597 0.93797 0.0
H1354 H 0.04947 0.9597 0.99236 0.0
H1355 H 0.01889 0.97957 0.86273 0.0
H1356 H 0.01605 0.95538 0.81199 0.0
H1357 H 0.01082 0.98768 0.96632 0.0
H1358 H 0.05823 0.98766 0.86888 0.0
H1359 H 0.08275 0.97787 0.83663 0.0
H1360 H 0.09648 0.97476 0.02468 0.0
H1361 H 0.07196 0.98435 0.05813 0.0
C1362 C 0.04171 0.05086 0.09601 0.0
C1363 C 0.03158 0.05198 0.14489 0.0
C1364 C 0.04303 0.03754 0.06333 0.0
C1365 C 0.03441 0.02508 0.07975 0.0
C1366 C 0.02521 0.02585 0.13191 0.0
C1367 C 0.02371 0.03926 0.16395 0.0
C1368 C 0.03431 0.01166 0.04003 0.0
C1369 C 0.04795 0.00505 0.02358 0.0
C1370 C 0.02081 0.00561 0.0172 0.0
C1371 C 0.00617 0.01301 0.02709 0.0
C1372 C 0.99432 0.00517 0.05453 0.0
C1373 C 0.98057 0.0122 0.06427 0.0
C1374 C 0.97853 0.02706 0.04646 0.0
C1375 C 0.9902 0.0349 0.01862 0.0
C1376 C 0.00395 0.02791 0.00868 0.0
C1377 C 0.04131 0.9454 0.92147 0.0
C1378 C 0.03154 0.94382 0.87163 0.0
C1379 C 0.0425 0.95904 0.95194 0.0
C1380 C 0.03442 0.97152 0.93145 0.0
C1381 C 0.02518 0.97009 0.87969 0.0
C1382 C 0.02368 0.95633 0.8503 0.0
C1383 C 0.03485 0.98577 0.96622 0.0
C1384 C 0.02124 0.99255 0.98198 0.0
C1385 C 0.04842 0.99236 0.98588 0.0
C1386 C 0.06321 0.98662 0.96602 0.0
C1387 C 0.06644 0.9848 0.90338 0.0
C1388 C 0.08034 0.97929 0.88488 0.0
C1389 C 0.09115 0.97566 0.92858 0.0
C1390 C 0.08809 0.97756 0.99088 0.0
C1391 C 0.0742 0.98305 0.00964 0.0
H1392 H 0.10191 0.9714 0.91416 0.0
H1393 H 0.96788 0.03249 0.05412 0.0
H1394 H 0.31664 0.73512 0.06398 0.0
H1395 H 0.29265 0.73677 0.11811 0.0
H1396 H 0.30753 0.77696 0.20862 0.0
H1397 H 0.33138 0.77549 0.15355 0.0
H1398 H 0.29635 0.7552 0.28855 0.0
H1399 H 0.28215 0.77985 0.10211 0.0
H1400 H 0.2795 0.78246 0.9902 0.0
H1401 H 0.25163 0.74343 0.98499 0.0
H1402 H 0.25432 0.74044 0.0968 0.0
H1403 H 0.22723 0.77 0.4358 0.0
H1404 H 0.25006 0.77248 0.37435 0.0
H1405 H 0.23506 0.73668 0.25679 0.0
H1406 H 0.21208 0.7346 0.31704 0.0
H1407 H 0.24648 0.75785 0.19007 0.0
H1408 H 0.26174 0.73156 0.37133 0.0
H1409 H 0.26461 0.72751 0.48246 0.0
H1410 H 0.29076 0.76758 0.49664 0.0
H1411 H 0.28784 0.772 0.38567 0.0
C1412 C 0.31466 0.74438 0.09491 0.0
C1413 C 0.32583 0.75504 0.10569 0.0
C1414 C 0.30101 0.74532 0.12566 0.0
C1415 C 0.29839 0.75697 0.16736 0.0
C1416 C 0.30942 0.76785 0.17686 0.0
C1417 C 0.323 0.76697 0.14572 0.0
C1418 C 0.28442 0.75737 0.20336 0.0
C1419 C 0.28543 0.75603 0.26723 0.0
C1420 C 0.27024 0.75803 0.17507 0.0
C1421 C 0.26856 0.75985 0.10782 0.0
C1422 C 0.27557 0.77175 0.07706 0.0
C1423 C 0.27404 0.77331 0.01363 0.0
C1424 C 0.26543 0.7631 0.98048 0.0
C1425 C 0.25831 0.75132 0.01072 0.0
C1426 C 0.25983 0.7497 0.07413 0.0
C1427 C 0.22892 0.76267 0.39693 0.0
C1428 C 0.21811 0.75203 0.38113 0.0
C1429 C 0.24192 0.76406 0.36195 0.0
C1430 C 0.24436 0.75461 0.31146 0.0
C1431 C 0.23341 0.74409 0.29547 0.0
C1432 C 0.22035 0.74285 0.32991 0.0
C1433 C 0.25836 0.75554 0.27547 0.0
C1434 C 0.25738 0.75712 0.21157 0.0
C1435 C 0.27259 0.75487 0.30364 0.0
C1436 C 0.27444 0.75219 0.37031 0.0
C1437 C 0.26801 0.73957 0.39822 0.0
C1438 C 0.26965 0.7372 0.46117 0.0
C1439 C 0.27783 0.7473 0.49662 0.0
C1440 C 0.28441 0.75978 0.46914 0.0
C1441 C 0.28277 0.76222 0.40622 0.0
H1442 H 0.27909 0.74545 0.54534 0.0
H1443 H 0.26426 0.76433 0.93139 0.0
H1444 H 0.54349 0.0587 0.40183 0.0
H1445 H 0.54443 0.03619 0.46587 0.0
H1446 H 0.50214 0.02186 0.39141 0.0
H1447 H 0.50129 0.04435 0.32672 0.0
H1448 H 0.50431 0.02112 0.52273 0.0
H1449 H 0.5314 0.00484 0.34309 0.0
H1450 H 0.55107 0.00671 0.26431 0.0
H1451 H 0.58481 0.0051 0.40393 0.0
H1452 H 0.56532 0.00343 0.48365 0.0
H1453 H 0.50089 0.94569 0.61645 0.0
H1454 H 0.50113 0.96947 0.56106 0.0
H1455 H 0.54633 0.97745 0.62185 0.0
H1456 H 0.54619 0.95336 0.67595 0.0
H1457 H 0.54366 0.98238 0.50182 0.0
H1458 H 0.51737 0.99736 0.68141 0.0
H1459 H 0.49819 0.99591 0.7623 0.0
H1460 H 0.46363 0.00074 0.62738 0.0
H1461 H 0.4826 0.00199 0.54552 0.0
C1462 C 0.53451 0.05062 0.39884 0.0
C1463 C 0.52241 0.05301 0.35924 0.0
C1464 C 0.53505 0.03783 0.43521 0.0
C1465 C 0.52339 0.02739 0.43291 0.0
C1466 C 0.51124 0.02982 0.39352 0.0
C1467 C 0.5108 0.04253 0.35649 0.0
C1468 C 0.52377 0.01405 0.47249 0.0
C1469 C 0.51279 0.01253 0.51784 0.0
C1470 C 0.53518 0.00323 0.46724 0.0
C1471 C 0.5469 0.00418 0.41935 0.0
C1472 C 0.54301 0.00502 0.35703 0.0
C1473 C 0.55413 0.00601 0.3122 0.0
C1474 C 0.56918 0.00607 0.32911 0.0
C1475 C 0.57315 0.00508 0.3909 0.0
C1476 C 0.56207 0.0041 0.43592 0.0
C1477 C 0.51083 0.95259 0.61794 0.0
C1478 C 0.52359 0.94777 0.64948 0.0
C1479 C 0.51093 0.96618 0.58683 0.0
C1480 C 0.52372 0.97526 0.58774 0.0
C1481 C 0.53637 0.97059 0.62061 0.0
C1482 C 0.53627 0.95693 0.65158 0.0
C1483 C 0.52406 0.98927 0.55183 0.0
C1484 C 0.53521 0.99097 0.50716 0.0
C1485 C 0.51287 0.00033 0.55813 0.0
C1486 C 0.50141 -0.00036 0.60726 0.0
C1487 C 0.50567 0.99799 0.66892 0.0
C1488 C 0.49484 0.99723 0.71496 0.0
C1489 C 0.4797 0.9982 0.69997 0.0
C1490 C 0.47536 -3e-05 0.63891 0.0
C1491 C 0.48615 0.00073 0.59268 0.0
H1492 H 0.47132 0.9976 0.73569 0.0
H1493 H 0.57777 0.00683 0.29434 0.0
H1494 H 0.33054 0.22347 0.8456 0.0
H1495 H 0.30718 0.22203 0.78712 0.0
H1496 H 0.29144 0.26207 0.87638 0.0
H1497 H 0.31487 0.26355 0.93463 0.0
H1498 H 0.2692 0.23982 0.85896 0.0
H1499 H 0.30761 0.26582 0.74383 0.0
H1500 H 0.33313 0.26738 0.70156 0.0
H1501 H 0.32509 0.22821 0.593 0.0
H1502 H 0.29955 0.22634 0.63497 0.0
H1503 H 0.21429 0.26475 0.65315 0.0
H1504 H 0.23642 0.26306 0.71845 0.0
H1505 H 0.25391 0.22794 0.60319 0.0
H1506 H 0.23183 0.22995 0.53684 0.0
H1507 H 0.27547 0.24612 0.6344 0.0
H1508 H 0.23623 0.22121 0.74141 0.0
H1509 H 0.21184 0.21739 0.79147 0.0
H1510 H 0.22171 0.2523 0.92005 0.0
H1511 H 0.24596 0.25671 0.86956 0.0
C1512 C 0.32196 0.23182 0.8531 0.0
C1513 C 0.32445 0.24379 0.89324 0.0
C1514 C 0.30869 0.23099 0.81992 0.0
C1515 C 0.29777 0.2421 0.82682 0.0
C1516 C 0.29981 0.25345 0.87037 0.0
C1517 C 0.31312 0.2543 0.90344 0.0
C1518 C 0.28483 0.2426 0.78512 0.0
C1519 C 0.27047 0.24137 0.80992 0.0
C1520 C 0.2867 0.24421 0.72112 0.0
C1521 C 0.30172 0.24586 0.69297 0.0
C1522 C 0.31128 0.25754 0.71092 0.0
C1523 C 0.32575 0.25849 0.68699 0.0
C1524 C 0.33074 0.24787 0.64476 0.0
C1525 C 0.3212 0.23642 0.62572 0.0
C1526 C 0.30672 0.23543 0.64945 0.0
C1527 C 0.22296 0.25677 0.64169 0.0
C1528 C 0.22149 0.24748 0.59034 0.0
C1529 C 0.23551 0.25574 0.6791 0.0
C1530 C 0.24667 0.24515 0.66642 0.0
C1531 C 0.2454 0.23614 0.61392 0.0
C1532 C 0.23287 0.2373 0.57603 0.0
C1533 C 0.25961 0.2435 0.70813 0.0
C1534 C 0.27406 0.24453 0.68335 0.0
C1535 C 0.25778 0.24163 0.77226 0.0
C1536 C 0.24291 0.23937 0.80126 0.0
C1537 C 0.23313 0.22823 0.77978 0.0
C1538 C 0.21933 0.22594 0.80832 0.0
C1539 C 0.21526 0.23457 0.85899 0.0
C1540 C 0.22491 0.2456 0.88089 0.0
C1541 C 0.23865 0.24804 0.85215 0.0
H1542 H 0.20464 0.23271 0.88135 0.0
H1543 H 0.342 0.2485 0.62692 0.0
H1544 H 0.72958 0.26839 0.92847 0.0
H1545 H 0.75263 0.27088 0.86784 0.0
H1546 H 0.73653 0.23739 0.74189 0.0
H1547 H 0.71355 0.23495 0.80215 0.0
H1548 H 0.76646 0.23329 0.77887 0.0
H1549 H 0.73397 0.27186 0.70092 0.0
H1550 H 0.71764 0.29393 0.70987 0.0
H1551 H 0.75417 0.31952 0.78232 0.0
H1552 H 0.77066 0.29751 0.77473 0.0
H1553 H 0.81702 0.24009 0.53959 0.0
H1554 H 0.79271 0.24157 0.59066 0.0
H1555 H 0.80893 0.27768 0.70354 0.0
H1556 H 0.83308 0.27664 0.65048 0.0
H1557 H 0.77921 0.28105 0.67546 0.0
H1558 H 0.81174 0.24301 0.75429 0.0
H1559 H 0.82868 0.22152 0.74186 0.0
H1560 H 0.79253 0.19515 0.67092 0.0
H1561 H 0.77544 0.21664 0.68142 0.0
C1562 C 0.7311 0.26151 0.88811 0.0
C1563 C 0.71995 0.25147 0.86968 0.0
C1564 C 0.74415 0.26298 0.85348 0.0
C1565 C 0.74617 0.25436 0.80038 0.0
C1566 C 0.73513 0.24412 0.78276 0.0
C1567 C 0.72206 0.24277 0.81694 0.0
C1568 C 0.75973 0.25605 0.76255 0.0
C1569 C 0.76918 0.24368 0.75578 0.0
C1570 C 0.76338 0.26972 0.73371 0.0
C1571 C 0.75351 0.28299 0.7379 0.0
C1572 C 0.73849 0.28215 0.71928 0.0
C1573 C 0.72921 0.29466 0.72401 0.0
C1574 C 0.73485 0.30811 0.74681 0.0
C1575 C 0.7498 0.30909 0.76477 0.0
C1576 C 0.75913 0.2966 0.76024 0.0
C1577 C 0.81523 0.24859 0.57414 0.0
C1578 C 0.8269 0.25804 0.59231 0.0
C1579 C 0.80141 0.2494 0.60341 0.0
C1580 C 0.79919 0.2595 0.65179 0.0
C1581 C 0.81048 0.26974 0.66663 0.0
C1582 C 0.82426 0.26904 0.63684 0.0
C1583 C 0.78582 0.25823 0.6912 0.0
C1584 C 0.77648 0.27067 0.69861 0.0
C1585 C 0.78231 0.24466 0.7212 0.0
C1586 C 0.79235 0.23147 0.71808 0.0
C1587 C 0.80741 0.23264 0.73581 0.0
C1588 C 0.81706 0.22049 0.72887 0.0
C1589 C 0.8117 0.207 0.70525 0.0
C1590 C 0.79667 0.20562 0.68898 0.0
C1591 C 0.787 0.21779 0.69537 0.0
H1592 H 0.81919 0.19759 0.69995 0.0
H1593 H 0.72765 0.31778 0.75041 0.0
H1594 H 0.72542 0.76656 0.07825 0.0
H1595 H 0.74984 0.76598 0.12908 0.0
H1596 H 0.74008 0.72197 0.19946 0.0
H1597 H 0.7157 0.72252 0.14804 0.0
H1598 H 0.75113 0.74091 0.28756 0.0
H1599 H 0.76346 0.72579 0.08363 0.0
H1600 H 0.76369 0.7279 0.97104 0.0
H1601 H 0.78805 0.7691 0.98366 0.0
H1602 H 0.78767 0.76743 0.09649 0.0
H1603 H 0.82514 0.72631 0.39224 0.0
H1604 H 0.80082 0.72488 0.34074 0.0
H1605 H 0.809 0.76773 0.25625 0.0
H1606 H 0.83329 0.76911 0.3077 0.0
H1607 H 0.79874 0.74795 0.17479 0.0
H1608 H 0.7855 0.76425 0.37656 0.0
H1609 H 0.78422 0.76345 0.48931 0.0
H1610 H 0.76103 0.72151 0.48104 0.0
H1611 H 0.76243 0.7219 0.36818 0.0
C1612 C 0.7286 0.75676 0.10433 0.0
C1613 C 0.71877 0.74465 0.11008 0.0
C1614 C 0.74248 0.75642 0.13318 0.0
C1615 C 0.74675 0.7439 0.16769 0.0
C1616 C 0.73694 0.73174 0.17314 0.0
C1617 C 0.72307 0.73207 0.14405 0.0
C1618 C 0.76136 0.74363 0.19896 0.0
C1619 C 0.76157 0.74225 0.26294 0.0
C1620 C 0.7749 0.74566 0.1666 0.0
C1621 C 0.77538 0.74657 0.09865 0.0
C1622 C 0.76875 0.73537 0.06248 0.0
C1623 C 0.76891 0.73649 -0.0014 0.0
C1624 C 0.77579 0.74868 0.97026 0.0
C1625 C 0.78265 0.75971 0.00573 0.0
C1626 C 0.78247 0.75868 0.06966 0.0
C1627 C 0.82158 0.73548 0.36335 0.0
C1628 C 0.83083 0.74793 0.35447 0.0
C1629 C 0.80776 0.73465 0.3339 0.0
C1630 C 0.80306 0.74629 0.29529 0.0
C1631 C 0.81242 0.75866 0.28598 0.0
C1632 C 0.82622 0.75947 0.31537 0.0
C1633 C 0.7885 0.74548 0.26361 0.0
C1634 C 0.7883 0.74661 0.19947 0.0
C1635 C 0.77495 0.74336 0.29589 0.0
C1636 C 0.77427 0.743 0.36385 0.0
C1637 C 0.7803 0.75476 0.39875 0.0
C1638 C 0.77952 0.7544 0.46271 0.0
C1639 C 0.7726 0.74241 0.49233 0.0
C1640 C 0.76643 0.73077 0.45804 0.0
C1641 C 0.76722 0.73105 0.39407 0.0
H1642 H 0.77198 0.74217 0.54185 0.0
H1643 H 0.77584 0.74955 0.92081 0.0
H1644 H 0.54684 0.55703 0.59273 0.0
H1645 H 0.5482 0.53331 0.53747 0.0
H1646 H 0.50944 0.51755 0.63619 0.0
H1647 H 0.50723 0.54182 0.68666 0.0
H1648 H 0.55253 0.50645 0.55917 0.0
H1649 H 0.48842 0.49485 0.55369 0.0
H1650 H 0.46483 0.50912 0.55121 0.0
H1651 H 0.48774 0.54664 0.47239 0.0
H1652 H 0.5114 0.53254 0.47364 0.0
H1653 H 0.54223 0.43224 0.46292 0.0
H1654 H 0.54263 0.45616 0.51614 0.0
H1655 H 0.51662 0.47585 0.37027 0.0
H1656 H 0.51465 0.45149 0.32109 0.0
H1657 H 0.50648 0.486 0.46481 0.0
H1658 H 0.55654 0.48196 0.39506 0.0
H1659 H 0.58124 0.47043 0.37874 0.0
H1660 H 0.58848 0.46903 0.57313 0.0
H1661 H 0.56373 0.48038 0.59066 0.0
C1662 C 0.53848 0.54855 0.60166 0.0
C1663 C 0.52664 0.55136 0.64219 0.0
C1664 C 0.53938 0.53494 0.5708 0.0
C1665 C 0.52868 0.52375 0.58136 0.0
C1666 C 0.51752 0.52617 0.62559 0.0
C1667 C 0.51636 0.53996 0.65499 0.0
C1668 C 0.52894 0.50977 0.54483 0.0
C1669 C 0.54247 0.50199 0.53837 0.0
C1670 C 0.51594 0.50417 0.51587 0.0
C1671 C 0.5017 0.51268 0.51437 0.0
C1672 C 0.4884 0.50612 0.53562 0.0
C1673 C 0.47502 0.51418 0.53446 0.0
C1674 C 0.4748 0.52879 0.51184 0.0
C1675 C 0.48794 0.53535 0.4901 0.0
C1676 C 0.50134 0.52733 0.49107 0.0
C1677 C 0.5364 0.44163 0.44278 0.0
C1678 C 0.52829 0.43998 0.38815 0.0
C1679 C 0.53689 0.4554 0.4726 0.0
C1680 C 0.52988 0.46797 0.44687 0.0
C1681 C 0.5221 0.46637 0.39133 0.0
C1682 C 0.52116 0.45247 0.36269 0.0
C1683 C 0.53009 0.48261 0.47897 0.0
C1684 C 0.5166 0.49047 0.48504 0.0
C1685 C 0.54331 0.48872 0.50443 0.0
C1686 C 0.55822 0.48191 0.49417 0.0
C1687 C 0.56336 0.4791 0.43434 0.0
C1688 C 0.57737 0.47261 0.42487 0.0
C1689 C 0.58641 0.46897 0.47487 0.0
C1690 C 0.58146 0.47185 0.53445 0.0
C1691 C 0.56745 0.47833 0.54418 0.0
H1692 H 0.59726 0.46394 0.46745 0.0
H1693 H 0.46443 0.53501 0.51105 0.0
H1694 H 0.99378 0.56268 0.92751 0.0
H1695 H 0.99347 0.54043 0.99222 0.0
H1696 H 0.03196 0.5234 0.89513 0.0
H1697 H 0.03366 0.54664 0.8379 0.0
H1698 H 0.98902 0.51413 0.98436 0.0
H1699 H 0.05247 0.50111 0.96526 0.0
H1700 H 0.07642 0.51477 0.96048 0.0
H1701 H 0.05656 0.55196 0.05449 0.0
H1702 H 0.03259 0.53831 0.06059 0.0
H1703 H 0.99909 0.44007 0.08509 0.0
H1704 H 0.99735 0.464 0.03231 0.0
H1705 H 0.02853 0.48311 0.1616 0.0
H1706 H 0.03197 0.45865 0.20805 0.0
H1707 H 0.03616 0.49266 0.06458 0.0
H1708 H 0.98789 0.49098 0.15331 0.0
H1709 H 0.9632 0.48073 0.18063 0.0
H1710 H 0.95127 0.47866 0.99028 0.0
H1711 H 0.97597 0.48872 0.96174 0.0
C1712 C 0.00245 0.55437 0.92158 0.0
C1713 C 0.01405 0.55663 0.87925 0.0
C1714 C 0.00212 0.5415 0.95778 0.0
C1715 C 0.01299 0.5303 0.95031 0.0
C1716 C 0.02386 0.53209 0.90435 0.0
C1717 C 0.02463 0.54527 0.87042 0.0
C1718 C 0.01294 0.51675 0.99003 0.0
C1719 C -0.00067 0.50952 0.00239 0.0
C1720 C 0.02626 0.51084 0.01535 0.0
C1721 C 0.04071 0.51888 0.01229 0.0
C1722 C 0.05325 0.51219 0.98493 0.0
C1723 C 0.06682 0.51991 0.98201 0.0
C1724 C 0.06798 0.53427 0.00679 0.0
C1725 C 0.05561 0.5409 0.03486 0.0
C1726 C 0.04204 0.53321 0.03789 0.0
C1727 C 0.00576 0.44934 0.10142 0.0
C1728 C 0.0159 0.44741 0.14981 0.0
C1729 C 0.00449 0.46315 0.07215 0.0
C1730 C 0.01267 0.47555 0.09311 0.0
C1731 C 0.02217 0.47376 0.14387 0.0
C1732 C 0.02397 0.4598 0.17118 0.0
C1733 C 0.0122 0.49007 0.05982 0.0
C1734 C 0.02578 0.49737 0.0478 0.0
C1735 C 0.99872 0.49655 0.03854 0.0
C1736 C 0.98384 0.49049 0.05538 0.0
C1737 C 0.98004 0.48825 0.11725 0.0
C1738 C 0.96604 0.48249 0.13296 0.0
C1739 C 0.95569 0.47902 0.08721 0.0
C1740 C 0.95931 0.48134 0.02566 0.0
C1741 C 0.9733 0.48709 0.00969 0.0
H1742 H 0.94485 0.47456 0.09947 0.0
H1743 H 0.07849 0.54023 0.00448 0.0
H1744 H 0.0154 0.13228 0.88833 0.0
H1745 H 0.00777 0.12168 0.78994 0.0
H1746 H 0.988 0.08409 0.88348 0.0
H1747 H 0.99593 0.09441 0.98145 0.0
H1748 H 0.0073 0.07507 0.80034 0.0
H1749 H 0.96588 0.10775 0.80167 0.0
H1750 H 0.95212 0.13142 0.8138 0.0
H1751 H 0.97725 0.15083 0.6663 0.0
H1752 H 0.99134 0.12737 0.65388 0.0
H1753 H 0.98569 0.07521 0.448 0.0
H1754 H 0.97889 0.07616 0.55634 0.0
H1755 H 0.02547 0.0795 0.60509 0.0
H1756 H 0.03237 0.0786 0.49702 0.0
H1757 H 0.98472 0.10097 0.62219 0.0
H1758 H 0.03086 0.06622 0.74778 0.0
H1759 H 0.04354 0.04194 0.73633 0.0
H1760 H 0.00655 0.02524 0.63155 0.0
H1761 H 0.99352 0.04933 0.64315 0.0
C1762 C 0.009 0.12201 0.88788 0.0
C1763 C 0.006 0.11436 0.9426 0.0
C1764 C 0.0046 0.11598 0.83175 0.0
C1765 C 0.99719 0.10215 0.82949 0.0
C1766 C 0.99357 0.09483 0.8843 0.0
C1767 C 0.99796 0.10087 0.9404 0.0
C1768 C 0.99516 0.0945 0.76996 0.0
C1769 C 0.00219 0.08062 0.76148 0.0
C1770 C 0.98815 0.10159 0.71976 0.0
C1771 C 0.97972 0.11578 0.72702 0.0
C1772 C 0.96856 0.1171 0.77209 0.0
C1773 C 0.96068 0.13048 0.77899 0.0
C1774 C 0.96381 0.14263 0.74089 0.0
C1775 C 0.97482 0.14141 0.69577 0.0
C1776 C 0.98274 0.12806 0.68872 0.0
C1777 C 0.99453 0.07568 0.48184 0.0
C1778 C 0.00957 0.07707 0.46401 0.0
C1779 C 0.9906 0.07625 0.5437 0.0
C1780 C 0.00166 0.07795 0.58861 0.0
C1781 C 0.01675 0.07804 0.57117 0.0
C1782 C 0.02069 0.0776 0.50934 0.0
C1783 C 0.99756 0.08196 0.65215 0.0
C1784 C 0.98946 0.0952 0.66135 0.0
C1785 C 0.00346 0.07422 0.70308 0.0
C1786 C 0.01123 0.05965 0.69611 0.0
C1787 C 0.02538 0.05735 0.7226 0.0
C1788 C 0.03264 0.04362 0.71601 0.0
C1789 C 0.02587 0.03207 0.68314 0.0
C1790 C 0.01181 0.03422 0.65685 0.0
C1791 C 0.00449 0.04792 0.66333 0.0
H1792 H 0.03152 0.02144 0.67811 0.0
H1793 H 0.9577 0.15298 0.74629 0.0
H1794 H 0.15891 0.76695 0.18383 0.0
H1795 H 0.1672 0.76057 0.08098 0.0
H1796 H 0.15018 0.71578 0.10396 0.0
H1797 H 0.1422 0.7221 0.2086 0.0
H1798 H 0.17678 0.71469 0.05407 0.0
H1799 H 0.13245 0.74155 0.00901 0.0
H1800 H 0.11402 0.76199 0.01386 0.0
H1801 H 0.1466 0.79273 0.94349 0.0
H1802 H 0.16531 0.77254 0.93904 0.0
H1803 H 0.18492 0.70485 0.72465 0.0
H1804 H 0.17821 0.70505 0.83305 0.0
H1805 H 0.19658 0.74939 0.85095 0.0
H1806 H 0.20311 0.74938 0.74233 0.0
H1807 H 0.16672 0.74793 0.87707 0.0
H1808 H 0.21146 0.71991 0.92955 0.0
H1809 H 0.22861 0.69843 0.92099 0.0
H1810 H 0.19313 0.66858 0.97158 0.0
H1811 H 0.17573 0.68987 0.97975 0.0
C1812 C 0.1567 0.75581 0.16663 0.0
C1813 C 0.14988 0.74501 0.20388 0.0
C1814 C 0.16143 0.75217 0.10778 0.0
C1815 C 0.1591 0.73776 0.08431 0.0
C1816 C 0.15206 0.72697 0.12114 0.0
C1817 C 0.14749 0.73058 0.18067 0.0
C1818 C 0.16462 0.734 0.02218 0.0
C1819 C 0.17438 0.72181 0.01508 0.0
C1820 C 0.16154 0.7433 0.97131 0.0
C1821 C 0.15032 0.75552 0.97408 0.0
C1822 C 0.13572 0.75269 0.995 0.0
C1823 C 0.12522 0.76423 -0.00239 0.0
C1824 C 0.12914 0.77865 0.97908 0.0
C1825 C 0.14358 0.78156 0.95784 0.0
C1826 C 0.15413 0.77006 0.95519 0.0
C1827 C 0.1881 0.7144 0.75217 0.0
C1828 C 0.19435 0.72721 0.72491 0.0
C1829 C 0.18421 0.7145 0.81417 0.0
C1830 C 0.18673 0.72731 0.84967 0.0
C1831 C 0.19443 0.73945 0.82401 0.0
C1832 C 0.19822 0.73941 0.76208 0.0
C1833 C 0.17937 0.7291 0.90985 0.0
C1834 C 0.16909 0.74081 0.91613 0.0
C1835 C 0.18178 0.71922 0.95934 0.0
C1836 C 0.19227 0.70646 0.95478 0.0
C1837 C 0.2073 0.70875 0.93842 0.0
C1838 C 0.21707 0.69662 0.93373 0.0
C1839 C 0.21196 0.68215 0.9456 0.0
C1840 C 0.19707 0.67979 0.96236 0.0
C1841 C 0.18726 0.69189 0.96712 0.0
H1842 H 0.21953 0.67277 0.94192 0.0
H1843 H 0.12099 0.78757 0.9811 0.0
H1844 H 0.56738 0.90751 0.96297 0.0
H1845 H 0.57091 0.90421 0.07317 0.0
H1846 H 0.52823 0.92501 0.10703 0.0
H1847 H 0.52454 0.92824 0.99699 0.0
H1848 H 0.5491 0.93048 0.20066 0.0
H1849 H 0.52841 0.88958 0.08204 0.0
H1850 H 0.52799 0.87029 0.00138 0.0
H1851 H 0.56826 0.85112 0.07361 0.0
H1852 H 0.56908 0.87051 0.15405 0.0
H1853 H 0.50681 0.89565 0.4248 0.0
H1854 H 0.51746 0.90441 0.32848 0.0
H1855 H 0.55725 0.87845 0.36176 0.0
H1856 H 0.5465 0.86947 0.45882 0.0
H1857 H 0.5455 0.87604 0.2419 0.0
H1858 H 0.55982 0.91398 0.38174 0.0
H1859 H 0.55613 0.93201 0.46572 0.0
H1860 H 0.52482 0.9565 0.35575 0.0
H1861 H 0.52801 0.93841 0.27156 0.0
C1862 C 0.559 0.9119 0.99394 0.0
C1863 C 0.54554 0.9179 0.97151 0.0
C1864 C 0.56104 0.90997 0.05687 0.0
C1865 C 0.54973 0.91416 0.0979 0.0
C1866 C 0.53708 0.92169 0.07595 0.0
C1867 C 0.53494 0.92347 0.0131 0.0
C1868 C 0.54965 0.90844 0.16134 0.0
C1869 C 0.54845 0.9186 0.21001 0.0
C1870 C 0.54903 0.8929 0.17321 0.0
C1871 C 0.54894 0.88162 0.12343 0.0
C1872 C 0.5373 0.88139 0.08013 0.0
C1873 C 0.53697 0.87042 0.03458 0.0
C1874 C 0.54811 0.85951 0.03236 0.0
C1875 C 0.55967 0.85961 0.07533 0.0
C1876 C 0.56009 0.8706 0.12084 0.0
C1877 C 0.51774 0.89164 0.41129 0.0
C1878 C 0.5259 0.88196 0.44922 0.0
C1879 C 0.52389 0.89681 0.35672 0.0
C1880 C 0.53826 0.89235 0.33901 0.0
C1881 C 0.54622 0.88217 0.3754 0.0
C1882 C 0.54009 0.87707 0.43052 0.0
C1883 C 0.54454 0.89808 0.28112 0.0
C1884 C 0.54681 0.88792 0.23328 0.0
C1885 C 0.54588 0.91361 0.27008 0.0
C1886 C 0.54413 0.92475 0.32023 0.0
C1887 C 0.55207 0.92314 0.37551 0.0
C1888 C 0.55006 0.93338 0.42321 0.0
C1889 C 0.54024 0.94539 0.4161 0.0
C1890 C 0.53243 0.94719 0.36119 0.0
C1891 C 0.53434 0.93694 0.31342 0.0
H1892 H 0.53869 0.9533 0.4531 0.0
H1893 H 0.5477 0.8509 -0.00239 0.0
H1894 H 0.35188 0.24247 0.2431 0.0
H1895 H 0.35157 0.24937 0.35115 0.0
H1896 H 0.34678 0.2958 0.30178 0.0
H1897 H 0.34709 0.28899 0.19342 0.0
H1898 H 0.37095 0.29138 0.3704 0.0
H1899 H 0.31999 0.27985 0.38679 0.0
H1900 H 0.29642 0.26595 0.37415 0.0
H1901 H 0.31411 0.22964 0.4801 0.0
H1902 H 0.33789 0.24319 0.49265 0.0
H1903 H 0.36423 0.27676 0.72809 0.0
H1904 H 0.35354 0.28494 0.63133 0.0
H1905 H 0.39262 0.26895 0.53587 0.0
H1906 H 0.4036 0.26109 0.63325 0.0
H1907 H 0.34569 0.26678 0.54545 0.0
H1908 H 0.39742 0.28702 0.40135 0.0
H1909 H 0.41961 0.30297 0.41528 0.0
H1910 H 0.39847 0.32495 0.56712 0.0
H1911 H 0.37601 0.30938 0.55336 0.0
C1912 C 0.35032 0.2541 0.25519 0.0
C1913 C 0.34977 0.2652 0.20977 0.0
C1914 C 0.35005 0.25803 0.31703 0.0
C1915 C 0.3492 0.27311 0.33441 0.0
C1916 C 0.34746 0.28411 0.28922 0.0
C1917 C 0.34763 0.28017 0.22733 0.0
C1918 C 0.35262 0.27734 0.39837 0.0
C1919 C 0.36534 0.28615 0.4089 0.0
C1920 C 0.34498 0.27092 0.44851 0.0
C1921 C 0.33078 0.26255 0.44043 0.0
C1922 C 0.31892 0.26884 0.40696 0.0
C1923 C 0.3055 0.26103 0.39991 0.0
C1924 C 0.30378 0.24692 0.42631 0.0
C1925 C 0.31547 0.24058 0.45976 0.0
C1926 C 0.32891 0.24834 0.46692 0.0
C1927 C 0.37089 0.2756 0.68702 0.0
C1928 C 0.38495 0.26858 0.68842 0.0
C1929 C 0.36465 0.28015 0.63153 0.0
C1930 C 0.37232 0.27772 0.57642 0.0
C1931 C 0.38662 0.27125 0.57795 0.0
C1932 C 0.39286 0.26669 0.6335 0.0
C1933 C 0.36466 0.27987 0.51697 0.0
C1934 C 0.35113 0.27227 0.50729 0.0
C1935 C 0.37147 0.28756 0.46776 0.0
C1936 C 0.38502 0.29693 0.47652 0.0
C1937 C 0.39745 0.29531 0.43753 0.0
C1938 C 0.41009 0.30428 0.44541 0.0
C1939 C 0.41046 0.31493 0.49217 0.0
C1940 C 0.39818 0.31665 0.53106 0.0
C1941 C 0.3855 0.30774 0.52327 0.0
H1942 H 0.42026 0.32186 0.4982 0.0
H1943 H 0.29337 0.2409 0.42087 0.0
H1944 H 0.98715 0.92619 0.56136 0.0
H1945 H 0.98153 0.92629 0.45164 0.0
H1946 H 0.02711 0.91385 0.41228 0.0
H1947 H 0.03289 0.91412 0.52107 0.0
H1948 H 0.01597 0.93084 0.32144 0.0
H1949 H 0.9982 0.88785 0.44863 0.0
H1950 H 0.98172 0.8767 0.52683 0.0
H1951 H 0.94315 0.89287 0.43044 0.0
H1952 H 0.95944 0.9044 0.35245 0.0
H1953 H 0.0158 0.8637 0.12949 0.0
H1954 H 0.00848 0.87541 0.22641 0.0
H1955 H 0.99022 0.91292 0.12764 0.0
H1956 H 0.99753 0.90141 0.03119 0.0
H1957 H 0.98158 0.88853 0.27941 0.0
H1958 H 0.00567 0.94358 0.20275 0.0
H1959 H 0.02095 0.95385 0.11838 0.0
H1960 H 0.04582 0.91289 0.10902 0.0
H1961 H 0.03087 0.90251 0.19396 0.0
C1962 C 0.99609 0.92394 0.5292 0.0
C1963 C 0.01038 0.91977 0.5499 0.0
C1964 C 0.99284 0.92398 0.46653 0.0
C1965 C 0.0038 0.9197 0.424 0.0
C1966 C 0.01844 0.91709 0.44432 0.0
C1967 C 0.02172 0.91716 0.5067 0.0
C1968 C -0.00012 0.9156 0.36031 0.0
C1969 C 0.0082 0.92182 0.31208 0.0
C1970 C 0.98963 0.90392 0.34769 0.0
C1971 C 0.98001 0.89715 0.39533 0.0
C1972 C 0.98621 0.88915 0.44454 0.0
C1973 C 0.9769 0.88278 0.48883 0.0
C1974 C 0.96138 0.8841 0.48363 0.0
C1975 C 0.95516 0.89188 0.43443 0.0
C1976 C 0.96442 0.89837 0.39034 0.0
C1977 C 0.00973 0.87417 0.12852 0.0
C1978 C 0.00709 0.88153 0.07287 0.0
C1979 C 0.00553 0.88083 0.18369 0.0
C1980 C 0.9989 0.89503 0.18379 0.0
C1981 C 0.99528 0.90193 0.12821 0.0
C1982 C -0.00062 0.89524 0.07306 0.0
C1983 C 0.99803 0.90342 0.24172 0.0
C1984 C 0.98887 0.89796 0.2885 0.0
C1985 C 0.00741 0.91585 0.25284 0.0
C1986 C 0.01706 0.92224 0.20424 0.0
C1987 C 0.01448 0.93683 0.18297 0.0
C1988 C 0.02307 0.94266 0.13503 0.0
C1989 C 0.03432 0.93401 0.10825 0.0
C1990 C 0.03709 0.91957 0.12972 0.0
C1991 C 0.02857 0.91371 0.17779 0.0
H1992 H 0.0409 0.93851 0.07095 0.0
H1993 H 0.95412 0.87908 0.51739 0.0
H1994 H 0.36267 0.7097 0.79759 0.0
H1995 H 0.36922 0.70579 0.69026 0.0
H1996 H 0.35149 0.74926 0.64531 0.0
H1997 H 0.34546 0.75349 0.75313 0.0
H1998 H 0.35905 0.70614 0.57414 0.0
H1999 H 0.37733 0.76852 0.56938 0.0
H2000 H 0.38454 0.78813 0.6431 0.0
H2001 H 0.39873 0.75463 0.7713 0.0
H2002 H 0.39187 0.73483 0.69793 0.0
H2003 H 0.37142 0.73296 0.27823 0.0
H2004 H 0.36494 0.72529 0.3814 0.0
H2005 H 0.40999 0.73472 0.4409 0.0
H2006 H 0.41625 0.74323 0.33712 0.0
H2007 H 0.39274 0.74754 0.51232 0.0
H2008 H 0.39382 0.69789 0.44227 0.0
H2009 H 0.38923 0.67639 0.37424 0.0
H2010 H 0.34198 0.68069 0.40325 0.0
H2011 H 0.34625 0.70236 0.47076 0.0
C2012 C 0.35965 0.71821 0.76452 0.0
C2013 C 0.35386 0.73206 0.78365 0.0
C2014 C 0.36342 0.71594 0.70315 0.0
C2015 C 0.36127 0.72743 0.66044 0.0
C2016 C 0.35357 0.74041 0.67811 0.0
C2017 C 0.35007 0.7428 0.73955 0.0
C2018 C 0.3691 0.72698 0.60087 0.0
C2019 C 0.36641 0.71516 0.56025 0.0
C2020 C 0.37937 0.73832 0.58455 0.0
C2021 C 0.38396 0.7502 0.62828 0.0
C2022 C 0.38208 0.76534 0.61311 0.0
C2023 C 0.3861 0.77649 0.65487 0.0
C2024 C 0.39206 0.77263 0.71188 0.0
C2025 C 0.39409 0.75761 0.72717 0.0
C2026 C 0.39014 0.74642 0.6855 0.0
C2027 C 0.38008 0.73294 0.31276 0.0
C2028 C 0.3944 0.73847 0.29974 0.0
C2029 C 0.37638 0.72847 0.37191 0.0
C2030 C 0.38701 0.72919 0.41906 0.0
C2031 C 0.40159 0.73402 0.40529 0.0
C2032 C 0.4052 0.73882 0.34615 0.0
C2033 C 0.38222 0.72701 0.48352 0.0
C2034 C 0.38554 0.73836 0.52572 0.0
C2035 C 0.37304 0.7149 0.50188 0.0
C2036 C 0.37037 0.70182 0.46142 0.0
C2037 C 0.38244 0.69432 0.43385 0.0
C2038 C 0.37989 0.68209 0.39541 0.0
C2039 C 0.36532 0.67719 0.38437 0.0
C2040 C 0.35326 0.6845 0.41186 0.0
C2041 C 0.35574 0.69674 0.45033 0.0
H2042 H 0.36338 0.66773 0.35458 0.0
H2043 H 0.39513 0.78128 0.74415 0.0
H2044 H 0.54833 0.09976 0.50452 0.0
H2045 H 0.55371 0.08995 0.6053 0.0
H2046 H 0.52639 0.12437 0.68661 0.0
H2047 H 0.52182 0.13504 0.5854 0.0
H2048 H 0.54826 0.11855 0.75923 0.0
H2049 H 0.51257 0.08955 0.64784 0.0
H2050 H 0.50305 0.07462 0.56135 0.0
H2051 H 0.53719 0.04177 0.59189 0.0
H2052 H 0.54713 0.05668 0.67798 0.0
H2053 H 0.51424 0.0705 -0.00189 0.0
H2054 H 0.51688 0.07449 0.88789 0.0
H2055 H 0.56425 0.08128 0.91061 0.0
H2056 H 0.56177 0.07718 0.02064 0.0
H2057 H 0.5339 0.06532 0.785 0.0
H2058 H 0.5703 0.11668 0.84852 0.0
H2059 H 0.57428 0.13403 0.93503 0.0
H2060 H 0.53028 0.12442 0.00284 0.0
H2061 H 0.52594 0.10729 0.91623 0.0
C2062 C 0.54408 0.10583 0.54351 0.0
C2063 C 0.53483 0.11844 0.53659 0.0
C2064 C 0.54693 0.09993 0.60141 0.0
C2065 C 0.54018 0.10621 0.65329 0.0
C2066 C 0.53168 0.1193 0.64709 0.0
C2067 C 0.52906 0.12538 0.58923 0.0
C2068 C 0.54096 0.09854 0.71325 0.0
C2069 C 0.54531 0.10686 0.76462 0.0
C2070 C 0.53668 0.08337 0.72051 0.0
C2071 C 0.53071 0.07433 0.66894 0.0
C2072 C 0.51814 0.07921 0.63583 0.0
C2073 C 0.51266 0.07075 0.58691 0.0
C2074 C 0.51953 0.05728 0.57107 0.0
C2075 C 0.5319 0.05223 0.60416 0.0
C2076 C 0.53747 0.06069 0.65301 0.0
C2077 C 0.5253 0.07226 0.97932 0.0
C2078 C 0.53774 0.07386 0.01808 0.0
C2079 C 0.5268 0.07449 0.91634 0.0
C2080 C 0.5407 0.07847 0.89167 0.0
C2081 C 0.55341 0.07834 0.92918 0.0
C2082 C 0.55196 0.07596 0.99205 0.0
C2083 C 0.54139 0.08531 0.83028 0.0
C2084 C 0.53725 0.07687 0.77897 0.0
C2085 C 0.5452 0.10056 0.82321 0.0
C2086 C 0.54791 0.11051 0.87644 0.0
C2087 C 0.56151 0.11825 0.88201 0.0
C2088 C 0.5638 0.12808 0.93094 0.0
C2089 C 0.55253 0.13031 0.97436 0.0
C2090 C 0.539 0.12265 0.96923 0.0
C2091 C 0.53664 0.11286 0.92031 0.0
H2092 H 0.55426 0.13802 0.01185 0.0
H2093 H 0.51522 0.05073 0.53333 0.0
H2094 H 0.15071 0.27343 0.77599 0.0
H2095 H 0.16239 0.27861 0.87549 0.0
H2096 H 0.17711 0.23275 0.88612 0.0
H2097 H 0.16545 0.22757 0.7878 0.0
H2098 H 0.16752 0.24081 0.99056 0.0
H2099 H 0.19931 0.26225 0.84049 0.0
H2100 H 0.20704 0.27828 0.75472 0.0
H2101 H 0.19744 0.31737 0.86172 0.0
H2102 H 0.18952 0.30154 0.94829 0.0
H2103 H 0.21084 0.24796 0.24449 0.0
H2104 H 0.20964 0.24669 0.13274 0.0
H2105 H 0.1876 0.28952 0.12826 0.0
H2106 H 0.18927 0.29114 0.23959 0.0
H2107 H 0.20319 0.28276 0.01778 0.0
H2108 H 0.16732 0.25939 0.15975 0.0
H2109 H 0.16199 0.24259 0.24663 0.0
H2110 H 0.18124 0.20579 0.14799 0.0
H2111 H 0.187 0.22249 0.0611 0.0
C2112 C 0.1564 0.2645 0.79992 0.0
C2113 C 0.15728 0.25015 0.77423 0.0
C2114 C 0.16313 0.26747 0.85642 0.0
C2115 C 0.17096 0.25615 0.88746 0.0
C2116 C 0.17129 0.24169 0.86276 0.0
C2117 C 0.1645 0.23872 0.80676 0.0
C2118 C 0.17871 0.25918 0.94607 0.0
C2119 C 0.17547 0.24987 0.99595 0.0
C2120 C 0.18905 0.27107 0.95335 0.0
C2121 C 0.19377 0.28065 0.90111 0.0
C2122 C 0.19881 0.27424 0.84592 0.0
C2123 C 0.20322 0.28331 0.79703 0.0
C2124 C 0.20272 0.29884 0.80272 0.0
C2125 C 0.19782 0.30533 0.85739 0.0
C2126 C 0.19339 0.2963 0.90645 0.0
C2127 C 0.20636 0.25741 0.21944 0.0
C2128 C 0.19978 0.26945 0.25062 0.0
C2129 C 0.20571 0.25668 0.15563 0.0
C2130 C 0.1981 0.26779 0.12264 0.0
C2131 C 0.19341 0.28078 0.15299 0.0
C2132 C 0.19432 0.28165 0.21678 0.0
C2133 C 0.19193 0.26438 0.06135 0.0
C2134 C 0.19535 0.27365 0.01146 0.0
C2135 C 0.18189 0.25232 0.05332 0.0
C2136 C 0.1777 0.24219 0.10427 0.0
C2137 C 0.17042 0.24772 0.15668 0.0
C2138 C 0.16735 0.23822 0.20595 0.0
C2139 C 0.17131 0.22313 0.20286 0.0
C2140 C 0.17822 0.21749 0.15034 0.0
C2141 C 0.1814 0.22696 0.10112 0.0
H2142 H 0.16905 0.21578 0.2411 0.0
H2143 H 0.20613 0.30585 0.7648 0.0
H2144 H 0.85377 0.2065 0.30503 0.0
H2145 H 0.85696 0.19895 0.19787 0.0
H2146 H 0.86018 0.24522 0.14464 0.0
H2147 H 0.85695 0.2529 0.25094 0.0
H2148 H 0.84317 0.2112 0.06904 0.0
H2149 H 0.89682 0.24519 0.09959 0.0
H2150 H 0.91472 0.25141 0.18172 0.0
H2151 H 0.90581 0.20939 0.26922 0.0
H2152 H 0.88795 0.20288 0.18746 0.0
H2153 H 0.86976 0.25219 0.82516 0.0
H2154 H 0.86123 0.24049 0.92009 0.0
H2155 H 0.89632 0.20761 0.90552 0.0
H2156 H 0.9047 0.21921 0.8089 0.0
H2157 H 0.89581 0.22317 0.01647 0.0
H2158 H 0.86314 0.194 0.90098 0.0
H2159 H 0.84459 0.18635 0.82372 0.0
H2160 H 0.81215 0.21576 0.90399 0.0
H2161 H 0.83054 0.22377 0.98133 0.0
C2162 C 0.85462 0.21508 0.27021 0.0
C2163 C 0.85542 0.2303 0.28637 0.0
C2164 C 0.85643 0.21073 0.20916 0.0
C2165 C 0.85901 0.22155 0.16413 0.0
C2166 C 0.85828 0.23674 0.17927 0.0
C2167 C 0.85647 0.2411 0.23997 0.0
C2168 C 0.86477 0.21741 0.10345 0.0
C2169 C 0.8547 0.21353 0.05716 0.0
C2170 C 0.87996 0.21992 0.0892 0.0
C2171 C 0.89101 0.22358 0.13756 0.0
C2172 C 0.89876 0.23724 0.13618 0.0
C2173 C 0.90886 0.24084 0.18277 0.0
C2174 C 0.91136 0.23082 0.23081 0.0
C2175 C 0.9038 0.21717 0.23223 0.0
C2176 C 0.89367 0.21353 0.18583 0.0
C2177 C 0.87559 0.24242 0.8422 0.0
C2178 C 0.88799 0.23667 0.81095 0.0
C2179 C 0.87059 0.23562 0.89571 0.0
C2180 C 0.87803 0.22307 0.91914 0.0
C2181 C 0.89036 0.21717 0.88753 0.0
C2182 C 0.89519 0.22384 0.83304 0.0
C2183 C 0.87402 0.21774 0.98087 0.0
C2184 C 0.88442 0.22009 0.02784 0.0
C2185 C 0.8592 0.21355 0.99551 0.0
C2186 C 0.84825 0.20946 0.94717 0.0
C2187 C 0.85211 0.19898 0.90181 0.0
C2188 C 0.8416 0.19453 0.85811 0.0
C2189 C 0.82718 0.20047 0.85932 0.0
C2190 C 0.8233 0.21108 0.90347 0.0
C2191 C 0.83376 0.21556 0.94733 0.0
H2192 H 0.81898 0.19681 0.82621 0.0
H2193 H 0.91918 0.23362 0.26686 0.0
H2194 H 0.69066 0.79023 0.79013 0.0
H2195 H 0.68948 0.79349 0.67917 0.0
H2196 H 0.69827 0.74654 0.65389 0.0
H2197 H 0.69933 0.74312 0.76483 0.0
H2198 H 0.70878 0.76634 0.5535 0.0
H2199 H 0.66459 0.75289 0.67438 0.0
H2200 H 0.64796 0.75685 0.76311 0.0
H2201 H 0.63913 0.80164 0.70276 0.0
H2202 H 0.65592 0.79799 0.61399 0.0
H2203 H 0.6651 0.73221 0.33166 0.0
H2204 H 0.67633 0.7405 0.42748 0.0
H2205 H 0.65776 0.7845 0.40101 0.0
H2206 H 0.6463 0.77617 0.30437 0.0
H2207 H 0.65424 0.77282 0.52048 0.0
H2208 H 0.69268 0.78067 0.37564 0.0
H2209 H 0.70877 0.77423 0.28795 0.0
H2210 H 0.72877 0.73878 0.3919 0.0
H2211 H 0.71245 0.74467 0.47976 0.0
C2212 C 0.69295 0.7807 0.76102 0.0
C2213 C 0.6947 0.76633 0.78604 0.0
C2214 C 0.69233 0.78262 0.69759 0.0
C2215 C 0.69359 0.77021 0.65867 0.0
C2216 C 0.69729 0.75624 0.68334 0.0
C2217 C 0.69776 0.75428 0.74674 0.0
C2218 C 0.68756 0.77091 0.59583 0.0
C2219 C 0.69691 0.76787 0.54584 0.0
C2220 C 0.67208 0.77312 0.58628 0.0
C2221 C 0.6616 0.77523 0.6381 0.0
C2222 C 0.65915 0.7636 0.68023 0.0
C2223 C 0.64972 0.76578 0.73047 0.0
C2224 C 0.64256 0.7795 0.73862 0.0
C2225 C 0.64474 0.79104 0.69639 0.0
C2226 C 0.6542 0.78892 0.6461 0.0
C2227 C 0.66322 0.7436 0.34657 0.0
C2228 C 0.65491 0.75359 0.31063 0.0
C2229 C 0.6698 0.74836 0.40087 0.0
C2230 C 0.66813 0.76318 0.42038 0.0
C2231 C 0.65932 0.77307 0.38602 0.0
C2232 C 0.6528 0.76832 0.33111 0.0
C2233 C 0.67539 0.76798 0.47777 0.0
C2234 C 0.66622 0.77189 0.52718 0.0
C2235 C 0.69102 0.76645 0.48647 0.0
C2236 C 0.70122 0.76307 0.43435 0.0
C2237 C 0.70041 0.77141 0.37977 0.0
C2238 C 0.70957 0.76785 0.32996 0.0
C2239 C 0.71975 0.75608 0.33429 0.0
C2240 C 0.72084 0.74788 0.38859 0.0
C2241 C 0.71163 0.75133 0.43845 0.0
H2242 H 0.72677 0.75333 0.29553 0.0
H2243 H 0.63528 0.78114 0.77753 0.0
H2244 H 0.66417 0.26938 0.66824 0.0
H2245 H 0.67502 0.26392 0.56831 0.0
H2246 H 0.65888 0.21856 0.57997 0.0
H2247 H 0.64814 0.22397 0.68112 0.0
H2248 H 0.68739 0.21922 0.54182 0.0
H2249 H 0.64201 0.24416 0.48662 0.0
H2250 H 0.62302 0.26412 0.48713 0.0
H2251 H 0.65563 0.29559 0.42257 0.0
H2252 H 0.67487 0.27587 0.42249 0.0
H2253 H 0.68934 0.20435 0.21869 0.0
H2254 H 0.68707 0.20649 0.32967 0.0
H2255 H 0.70505 0.25117 0.32168 0.0
H2256 H 0.70711 0.2492 0.21049 0.0
H2257 H 0.6765 0.25053 0.35984 0.0
H2258 H 0.72165 0.22464 0.40931 0.0
H2259 H 0.73996 0.20409 0.4054 0.0
H2260 H 0.70713 0.17369 0.47644 0.0
H2261 H 0.68854 0.19401 0.47998 0.0
C2262 C 0.66269 0.25831 0.64902 0.0
C2263 C 0.6553 0.24708 0.68211 0.0
C2264 C 0.66895 0.2552 0.59206 0.0
C2265 C 0.66766 0.24087 0.56658 0.0
C2266 C 0.66003 0.22967 0.59904 0.0
C2267 C 0.65387 0.23277 0.65649 0.0
C2268 C 0.67449 0.23764 0.50635 0.0
C2269 C 0.68489 0.22593 0.5017 0.0
C2270 C 0.67146 0.24663 0.45458 0.0
C2271 C 0.65992 0.25856 0.45516 0.0
C2272 C 0.64517 0.25536 0.47309 0.0
C2273 C 0.63435 0.26663 0.47317 0.0
C2274 C 0.63812 0.28112 0.45501 0.0
C2275 C 0.65272 0.28437 0.43666 0.0
C2276 C 0.66358 0.27315 0.43657 0.0
C2277 C 0.69344 0.21438 0.24078 0.0
C2278 C 0.69803 0.22677 0.20597 0.0
C2279 C 0.69216 0.21557 0.30436 0.0
C2280 C 0.69567 0.22908 0.33364 0.0
C2281 C 0.70215 0.2407 0.29971 0.0
C2282 C 0.70332 0.23957 0.23623 0.0
C2283 C 0.68958 0.23224 0.39523 0.0
C2284 C 0.67916 0.24389 0.40001 0.0
C2285 C 0.69251 0.2231 0.44662 0.0
C2286 C 0.70366 0.21084 0.44439 0.0
C2287 C 0.71828 0.21354 0.42356 0.0
C2288 C 0.72872 0.20194 0.42154 0.0
C2289 C 0.7247 0.18758 0.44052 0.0
C2290 C 0.71023 0.18481 0.4617 0.0
C2291 C 0.69974 0.19638 0.4638 0.0
H2292 H 0.7328 0.17862 0.43894 0.0
H2293 H 0.62973 0.28982 0.45502 0.0
H2294 H 0.91249 0.7604 0.10352 0.0
H2295 H 0.90235 0.76776 0.00421 0.0
H2296 H 0.86388 0.78693 0.09378 0.0
H2297 H 0.87355 0.77896 0.19247 0.0
H2298 H 0.85535 0.76801 0.01185 0.0
H2299 H 0.88861 0.80946 0.00873 0.0
H2300 H 0.91244 0.82306 0.01892 0.0
H2301 H 0.9319 0.79581 0.87804 0.0
H2302 H 0.90827 0.7819 0.86757 0.0
H2303 H 0.8563 0.7887 0.65888 0.0
H2304 H 0.85741 0.79567 0.76688 0.0
H2305 H 0.8596 0.74911 0.81721 0.0
H2306 H 0.85845 0.74202 0.70942 0.0
H2307 H 0.88193 0.78948 0.833 0.0
H2308 H 0.84674 0.74417 0.96009 0.0
H2309 H 0.8226 0.73128 0.94764 0.0
H2310 H 0.80595 0.76799 0.84115 0.0
H2311 H 0.82992 0.78124 0.85365 0.0
C2312 C 0.90209 0.76658 0.10209 0.0
C2313 C 0.894 0.76933 0.15603 0.0
C2314 C 0.89634 0.77088 0.04534 0.0
C2315 C 0.88241 0.77806 0.04159 0.0
C2316 C 0.8747 0.78154 0.09567 0.0
C2317 C 0.88039 0.77714 0.15235 0.0
C2318 C 0.875 0.77982 0.98137 0.0
C2319 C 0.86106 0.77291 0.97288 0.0
C2320 C 0.88232 0.78644 0.93078 0.0
C2321 C 0.89666 0.79461 0.93753 0.0
C2322 C 0.898 0.80629 0.98026 0.0
C2323 C 0.91148 0.81407 0.98602 0.0
C2324 C 0.92368 0.81029 0.94919 0.0
C2325 C 0.92245 0.79871 0.90659 0.0
C2326 C 0.90901 0.79088 0.90069 0.0
C2327 C 0.85656 0.77991 0.69297 0.0
C2328 C 0.8575 0.76479 0.67564 0.0
C2329 C 0.85723 0.78394 0.75465 0.0
C2330 C 0.85863 0.77292 0.7999 0.0
C2331 C 0.85836 0.75779 0.783 0.0
C2332 C 0.85777 0.75375 0.72132 0.0
C2333 C 0.86266 0.77707 0.86331 0.0
C2334 C 0.87601 0.785 0.87231 0.0
C2335 C 0.85476 0.77145 0.91439 0.0
C2336 C 0.8402 0.76367 0.90752 0.0
C2337 C 0.83791 0.74956 0.93436 0.0
C2338 C 0.82426 0.74217 0.9272 0.0
C2339 C 0.81279 0.74878 0.89338 0.0
C2340 C 0.81489 0.76286 0.86706 0.0
C2341 C 0.82851 0.7703 0.87409 0.0
H2342 H 0.80228 0.74298 0.88749 0.0
H2343 H 0.93409 0.81635 0.95363 0.0
H2344 H 0.54228 0.60493 0.42149 0.0
H2345 H 0.53472 0.59577 0.32137 0.0
H2346 H 0.49302 0.6197 0.33661 0.0
H2347 H 0.50058 0.62891 0.43817 0.0
H2348 H 0.48904 0.59098 0.2944 0.0
H2349 H 0.5195 0.63291 0.24386 0.0
H2350 H 0.54161 0.64931 0.24801 0.0
H2351 H 0.56925 0.6135 0.18252 0.0
H2352 H 0.54734 0.59681 0.17882 0.0
H2353 H 0.47801 0.58884 0.96536 0.0
H2354 H 0.47838 0.59167 0.07661 0.0
H2355 H 0.52064 0.56858 0.08418 0.0
H2356 H 0.5205 0.56602 0.97286 0.0
H2357 H 0.52244 0.59794 0.11532 0.0
H2358 H 0.49107 0.556 0.16506 0.0
H2359 H 0.46844 0.54038 0.15913 0.0
H2360 H 0.44174 0.57716 0.22206 0.0
H2361 H 0.46419 0.59308 0.22756 0.0
C2362 C 0.5316 0.60847 0.40319 0.0
C2363 C 0.52201 0.61766 0.43733 0.0
C2364 C 0.52726 0.60315 0.34613 0.0
C2365 C 0.51336 0.60715 0.32154 0.0
C2366 C 0.50378 0.61647 0.3551 0.0
C2367 C 0.50811 0.62175 0.41274 0.0
C2368 C 0.50909 0.60147 0.26055 0.0
C2369 C 0.49618 0.59266 0.25482 0.0
C2370 C 0.51856 0.60355 0.20946 0.0
C2371 C 0.53178 0.61357 0.2115 0.0
C2372 C 0.53031 0.6285 0.23078 0.0
C2373 C 0.54281 0.63785 0.23298 0.0
C2374 C 0.55683 0.63244 0.21565 0.0
C2375 C 0.55838 0.61767 0.19597 0.0
C2376 C 0.54592 0.60826 0.19374 0.0
C2377 C 0.48702 0.58373 0.99102 0.0
C2378 C 0.49942 0.57753 0.96074 0.0
C2379 C 0.4872 0.58534 0.05466 0.0
C2380 C 0.49967 0.58056 0.08828 0.0
C2381 C 0.51099 0.57246 0.05876 0.0
C2382 C 0.51091 0.571 0.99527 0.0
C2383 C 0.50265 0.58697 0.14933 0.0
C2384 C 0.51528 0.59616 0.15481 0.0
C2385 C 0.49282 0.58534 0.19955 0.0
C2386 C 0.4793 0.57579 0.19612 0.0
C2387 C 0.48036 0.56081 0.17705 0.0
C2388 C 0.46756 0.55189 0.17392 0.0
C2389 C 0.45365 0.55778 0.19004 0.0
C2390 C 0.45252 0.57261 0.2095 0.0
C2391 C 0.46528 0.58158 0.21271 0.0
H2392 H 0.44376 0.55085 0.18759 0.0
H2393 H 0.56649 0.6397 0.21738 0.0
H2394 H 0.05117 0.37134 0.94296 0.0
H2395 H 0.05817 0.38009 0.84034 0.0
H2396 H 0.01343 0.39682 0.81337 0.0
H2397 H 0.00647 0.3883 0.91521 0.0
H2398 H 0.02362 0.38373 0.71259 0.0
H2399 H 0.04136 0.41951 0.86122 0.0
H2400 H 0.05587 0.42723 0.95187 0.0
H2401 H 0.09654 0.41416 0.86223 0.0
H2402 H 0.08222 0.4061 0.77141 0.0
H2403 H 0.02524 0.43278 0.48121 0.0
H2404 H 0.02638 0.42868 0.59174 0.0
H2405 H 0.07017 0.40915 0.57236 0.0
H2406 H 0.06934 0.41375 0.46204 0.0
H2407 H 0.06334 0.42227 0.69482 0.0
H2408 H 0.04373 0.38656 0.5437 0.0
H2409 H 0.02799 0.38168 0.45304 0.0
H2410 H 0.98925 0.39675 0.55138 0.0
H2411 H 0.0048 0.40194 0.64224 0.0
C2412 C 0.04287 0.37687 0.91499 0.0
C2413 C 0.02839 0.37946 0.93747 0.0
C2414 C 0.04686 0.38181 0.85648 0.0
C2415 C 0.03638 0.38935 0.81994 0.0
C2416 C 0.02169 0.39108 0.84099 0.0
C2417 C 0.01772 0.38616 0.89916 0.0
C2418 C 0.04064 0.39606 0.76069 0.0
C2419 C 0.03232 0.39213 0.70885 0.0
C2420 C 0.05208 0.40695 0.75577 0.0
C2421 C 0.06071 0.41204 0.80983 0.0
C2422 C 0.05339 0.41819 0.86101 0.0
C2423 C 0.06157 0.42263 0.91241 0.0
C2424 C 0.07711 0.42115 0.91287 0.0
C2425 C 0.0845 0.41527 0.86185 0.0
C2426 C 0.07636 0.41076 0.8104 0.0
C2427 C 0.03543 0.42837 0.50102 0.0
C2428 C 0.04706 0.42329 0.46336 0.0
C2429 C 0.03609 0.42605 0.56407 0.0
C2430 C 0.04818 0.41824 0.58953 0.0
C2431 C 0.06073 0.41513 0.5533 0.0
C2432 C 0.06021 0.41775 0.49024 0.0
C2433 C 0.04605 0.41015 0.64771 0.0
C2434 C 0.05482 0.41371 0.69878 0.0
C2435 C 0.0349 0.399 0.65246 0.0
C2436 C 0.02543 0.39473 0.59952 0.0
C2437 C 0.03185 0.3888 0.54596 0.0
C2438 C 0.02296 0.38601 0.49452 0.0
C2439 C 0.00764 0.38899 0.49641 0.0
C2440 C 0.00112 0.3945 0.54999 0.0
C2441 C 0.00995 0.39734 0.60147 0.0
H2442 H 0.00078 0.38709 0.45639 0.0
H2443 H 0.08343 0.4246 0.9527 0.0
H2444 H 0.49559 0.38918 0.5491 0.0
H2445 H 0.4875 0.39779 0.64943 0.0
H2446 H 0.51811 0.36702 0.73537 0.0
H2447 H 0.52559 0.35766 0.63481 0.0
H2448 H 0.49413 0.37065 0.8052 0.0
H2449 H 0.52858 0.4025 0.69261 0.0
H2450 H 0.5359 0.41789 0.60368 0.0
H2451 H 0.49844 0.44686 0.63495 0.0
H2452 H 0.49073 0.43147 0.72337 0.0
H2453 H 0.5311 0.41825 0.03501 0.0
H2454 H 0.52615 0.41436 0.92609 0.0
H2455 H 0.47941 0.40766 0.9654 0.0
H2456 H 0.48421 0.4117 0.0743 0.0
H2457 H 0.5069 0.42429 0.83093 0.0
H2458 H 0.47155 0.37326 0.89804 0.0
H2459 H 0.46772 0.35614 0.98545 0.0
H2460 H 0.5126 0.3642 0.04636 0.0
H2461 H 0.51675 0.38119 0.95902 0.0
C2462 C 0.49997 0.38359 0.58916 0.0
C2463 C 0.51105 0.3725 0.58407 0.0
C2464 C 0.49551 0.38875 0.64663 0.0
C2465 C 0.5024 0.38324 0.6997 0.0
C2466 C 0.51265 0.37142 0.69493 0.0
C2467 C 0.51696 0.36611 0.63752 0.0
C2468 C 0.50056 0.39095 0.75916 0.0
C2469 C 0.49664 0.38244 0.81062 0.0
C2470 C 0.50411 0.40629 0.76633 0.0
C2471 C 0.50898 0.41575 0.71415 0.0
C2472 C 0.52187 0.41211 0.68033 0.0
C2473 C 0.52608 0.42083 0.63001 0.0
C2474 C 0.51762 0.43332 0.61363 0.0
C2475 C 0.50496 0.43716 0.64764 0.0
C2476 C 0.50066 0.42844 0.69782 0.0
C2477 C 0.51968 0.4165 0.02017 0.0
C2478 C 0.50809 0.41502 0.06314 0.0
C2479 C 0.51686 0.41434 0.95796 0.0
C2480 C 0.50247 0.41049 0.93817 0.0
C2481 C 0.4906 0.41054 0.98011 0.0
C2482 C 0.49338 0.41289 0.04228 0.0
C2483 C 0.50053 0.40395 0.87664 0.0
C2484 C 0.50384 0.41265 0.82502 0.0
C2485 C 0.49683 0.38868 0.86939 0.0
C2486 C 0.49437 0.37864 0.92252 0.0
C2487 C 0.48058 0.37137 0.93015 0.0
C2488 C 0.47837 0.36166 0.97956 0.0
C2489 C 0.48992 0.35906 0.02131 0.0
C2490 C 0.50367 0.36623 0.01401 0.0
C2491 C 0.50594 0.37592 0.96465 0.0
H2492 H 0.48823 0.35146 0.05924 0.0
H2493 H 0.52088 0.44004 0.57465 0.0
H2494 H 0.06315 0.59218 0.51924 0.0
H2495 H 0.05863 0.59791 0.41131 0.0
H2496 H 0.01495 0.57799 0.42334 0.0
H2497 H 0.01918 0.57243 0.53181 0.0
H2498 H 0.03325 0.57553 0.30063 0.0
H2499 H 0.01221 0.60864 0.45227 0.0
H2500 H 0.01251 0.6243 0.54498 0.0
H2501 H 0.04602 0.65242 0.46448 0.0
H2502 H 0.04653 0.63643 0.37244 0.0
H2503 H 0.99503 0.61568 0.0729 0.0
H2504 H 0.00018 0.60691 0.1767 0.0
H2505 H 0.04276 0.62944 0.1737 0.0
H2506 H 0.03767 0.63828 0.06911 0.0
H2507 H 0.02469 0.63037 0.29143 0.0
H2508 H 0.04563 0.59683 0.1397 0.0
H2509 H 0.04311 0.58279 0.04306 0.0
H2510 H 0.00746 0.55691 0.12085 0.0
H2511 H 0.00958 0.57101 0.2178 0.0
C2512 C 0.05278 0.58853 0.49857 0.0
C2513 C 0.04135 0.58222 0.53438 0.0
C2514 C 0.05023 0.59187 0.43701 0.0
C2515 C 0.03636 0.5887 0.41037 0.0
C2516 C 0.02569 0.5806 0.44357 0.0
C2517 C 0.02812 0.57746 0.50549 0.0
C2518 C 0.0322 0.59601 0.35233 0.0
C2519 C 0.03128 0.58748 0.29864 0.0
C2520 C 0.02971 0.61164 0.35003 0.0
C2521 C 0.02968 0.62109 0.406 0.0
C2522 C 0.01994 0.61791 0.45492 0.0
C2523 C 0.01993 0.62688 0.50735 0.0
C2524 C 0.02936 0.63928 0.51087 0.0
C2525 C 0.03878 0.64276 0.46182 0.0
C2526 C 0.03902 0.63368 0.40972 0.0
C2527 C 0.00531 0.61911 0.09493 0.0
C2528 C 0.01606 0.6275 0.06301 0.0
C2529 C 0.00825 0.61404 0.15401 0.0
C2530 C 0.0219 0.61741 0.18214 0.0
C2531 C 0.03219 0.62673 0.1523 0.0
C2532 C 0.02931 0.63169 0.09274 0.0
C2533 C 0.02595 0.60994 0.2399 0.0
C2534 C 0.02678 0.61844 0.29351 0.0
C2535 C 0.02826 0.59431 0.24216 0.0
C2536 C 0.02768 0.58506 0.18579 0.0
C2537 C 0.03724 0.58816 0.13619 0.0
C2538 C 0.03586 0.58023 0.08135 0.0
C2539 C 0.02506 0.56905 0.07575 0.0
C2540 C 0.01577 0.56563 0.12528 0.0
C2541 C 0.01707 0.57357 0.18023 0.0
H2542 H 0.02393 0.56303 0.03302 0.0
H2543 H 0.02927 0.64626 0.55136 0.0
loop_
_geom_bond_atom_site_label_1
_geom_bond_atom_site_label_2
_geom_bond_distance
_geom_bond_site_symmetry_2
_ccdc_geom_bond_type
Co0 O3 1.970 . S
Co0 N17 1.989 . S
Co0 O25 1.967 . S
Co0 O32 1.920 . S
Co1 O4 1.966 . S
Co1 N10 2.022 . S
Co1 N18 1.993 . S
Co1 O26 1.941 . S
C2 O3 1.258 . S
C2 O4 1.263 . S
O3 Co0 1.970 . S
O3 C2 1.258 . S
O4 Co1 1.966 . S
O4 C2 1.263 . S
C5 O6 1.235 . S
C5 O32 1.289 . S
O6 C5 1.235 . S
C7 C9 1.400 1_554 S
C7 N10 1.351 . S
C7 C12 1.501 . S
C8 C9 1.387 . S
C8 N11 1.341 1_556 S
C9 C7 1.400 1_556 S
C9 C8 1.387 . S
N10 Co1 2.022 . S
N10 C7 1.351 . S
N10 N11 1.365 . S
N11 C8 1.341 1_554 S
N11 N10 1.365 . S
N11 H31 0.862 . S
C12 C7 1.501 . S
C12 H13 0.961 . S
C12 H14 0.961 1_455 S
C12 H15 0.960 . S
H13 C12 0.961 . S
H14 C12 0.961 1_655 S
H15 C12 0.960 . S
C16 N17 1.342 . S
C16 C20 1.401 . S
C16 C21 1.499 . S
N17 Co0 1.989 . S
N17 C16 1.342 . S
N17 N18 1.388 . S
N18 Co1 1.993 . S
N18 N17 1.388 . S
N18 C19 1.346 . S
C19 N18 1.346 . S
C19 C20 1.396 . S
C19 C29 1.510 . S
C20 C16 1.401 . S
C20 C19 1.396 . S
C21 C16 1.499 . S
C21 H22 0.959 . S
C21 H23 0.960 . S
C21 H24 0.961 . S
H22 C21 0.959 . S
H23 C21 0.960 . S
H24 C21 0.961 . S
O25 Co0 1.967 . S
O25 C33 1.258 . S
O26 Co1 1.941 . S
O26 C33 1.266 . S
H27 C29 0.959 . S
H28 C29 0.961 . S
C29 C19 1.510 . S
C29 H27 0.959 . S
C29 H28 0.961 . S
C29 H30 0.960 . S
H30 C29 0.960 . S
H31 N11 0.862 . S
O32 Co0 1.920 . S
O32 C5 1.289 . S
C33 O25 1.258 . S
C33 O26 1.266 . S
Co34 O37 1.970 . S
Co34 N51 1.989 . S
Co34 O59 1.967 . S
Co34 O66 1.920 . S
Co35 O38 1.966 . S
Co35 N44 2.022 . S
Co35 N52 1.993 . S
Co35 O60 1.941 . S
C36 O37 1.258 . S
C36 O38 1.263 . S
O37 Co34 1.970 . S
O37 C36 1.258 . S
O38 Co35 1.966 . S
O38 C36 1.263 . S
C39 O40 1.235 . S
C39 O66 1.289 . S
O40 C39 1.235 . S
C41 C43 1.400 . S
C41 N44 1.351 . S
C41 C46 1.501 . S
C42 C43 1.387 . S
C42 N45 1.341 . S
C43 C41 1.400 . S
C43 C42 1.387 . S
N44 Co35 2.022 . S
N44 C41 1.351 . S
N44 N45 1.365 . S
N45 C42 1.341 . S
N45 N44 1.365 . S
N45 H65 0.862 . S
C46 C41 1.501 . S
C46 H47 0.961 . S
C46 H48 0.961 . S
C46 H49 0.960 . S
H47 C46 0.961 . S
H48 C46 0.961 . S
H49 C46 0.960 . S
C50 N51 1.342 . S
C50 C54 1.401 . S
C50 C55 1.499 . S
N51 Co34 1.989 . S
N51 C50 1.342 . S
N51 N52 1.388 . S
N52 Co35 1.993 . S
N52 N51 1.388 . S
N52 C53 1.346 . S
C53 N52 1.346 . S
C53 C54 1.396 . S
C53 C63 1.510 . S
C54 C50 1.401 . S
C54 C53 1.396 . S
C55 C50 1.499 . S
C55 H56 0.959 . S
C55 H57 0.960 . S
C55 H58 0.961 . S
H56 C55 0.959 . S
H57 C55 0.960 . S
H58 C55 0.961 . S
O59 Co34 1.967 . S
O59 C67 1.258 . S
O60 Co35 1.941 . S
O60 C67 1.266 . S
H61 C63 0.959 . S
H62 C63 0.961 . S
C63 C53 1.510 . S
C63 H61 0.959 . S
C63 H62 0.961 . S
C63 H64 0.960 . S
H64 C63 0.960 . S
H65 N45 0.862 . S
O66 Co34 1.920 . S
O66 C39 1.289 . S
C67 O59 1.258 . S
C67 O60 1.266 . S
Co68 O71 1.970 . S
Co68 N85 1.989 . S
Co68 O93 1.967 . S
Co68 O100 1.920 . S
Co69 O72 1.966 . S
Co69 N78 2.022 . S
Co69 N86 1.993 . S
Co69 O94 1.941 . S
C70 O71 1.258 . S
C70 O72 1.263 . S
O71 Co68 1.970 . S
O71 C70 1.258 . S
O72 Co69 1.966 . S
O72 C70 1.263 . S
C73 O74 1.235 . S
C73 O100 1.289 . S
O74 C73 1.235 . S
C75 C77 1.400 . S
C75 N78 1.351 . S
C75 C80 1.501 . S
C76 C77 1.387 . S
C76 N79 1.341 . S
C77 C75 1.400 . S
C77 C76 1.387 . S
N78 Co69 2.022 . S
N78 C75 1.351 . S
N78 N79 1.365 . S
N79 C76 1.341 . S
N79 N78 1.365 . S
N79 H99 0.862 . S
C80 C75 1.501 . S
C80 H81 0.961 . S
C80 H82 0.961 . S
C80 H83 0.960 . S
H81 C80 0.961 . S
H82 C80 0.961 . S
H83 C80 0.960 . S
C84 N85 1.342 . S
C84 C88 1.401 . S
C84 C89 1.499 . S
N85 Co68 1.989 . S
N85 C84 1.342 . S
N85 N86 1.388 . S
N86 Co69 1.993 . S
N86 N85 1.388 . S
N86 C87 1.346 . S
C87 N86 1.346 . S
C87 C88 1.396 . S
C87 C97 1.510 . S
C88 C84 1.401 . S
C88 C87 1.396 . S
C89 C84 1.499 . S
C89 H90 0.959 . S
C89 H91 0.960 . S
C89 H92 0.961 . S
H90 C89 0.959 . S
H91 C89 0.960 . S
H92 C89 0.961 . S
O93 Co68 1.967 . S
O93 C101 1.258 . S
O94 Co69 1.941 . S
O94 C101 1.266 . S
H95 C97 0.959 . S
H96 C97 0.961 . S
C97 C87 1.510 . S
C97 H95 0.959 . S
C97 H96 0.961 . S
C97 H98 0.960 . S
H98 C97 0.960 . S
H99 N79 0.862 . S
O100 Co68 1.920 . S
O100 C73 1.289 . S
C101 O93 1.258 . S
C101 O94 1.266 . S
Co102 O105 1.970 . S
Co102 N119 1.989 1_554 S
Co102 O127 1.967 . S
Co102 O134 1.920 . S
Co103 O106 1.966 . S
Co103 N112 2.022 . S
Co103 N120 1.993 . S
Co103 O128 1.941 . S
C104 O105 1.258 . S
C104 O106 1.263 1_554 S
O105 Co102 1.970 . S
O105 C104 1.258 . S
O106 Co103 1.966 . S
O106 C104 1.263 1_556 S
C107 O108 1.235 . S
C107 O134 1.289 . S
O108 C107 1.235 . S
C109 C111 1.400 . S
C109 N112 1.351 . S
C109 C114 1.501 . S
C110 C111 1.387 . S
C110 N113 1.341 . S
C111 C109 1.400 . S
C111 C110 1.387 . S
N112 Co103 2.022 . S
N112 C109 1.351 . S
N112 N113 1.365 . S
N113 C110 1.341 . S
N113 N112 1.365 . S
N113 H133 0.862 . S
C114 C109 1.501 . S
C114 H115 0.961 . S
C114 H116 0.961 . S
C114 H117 0.960 . S
H115 C114 0.961 . S
H116 C114 0.961 . S
H117 C114 0.960 . S
C118 N119 1.342 1_554 S
C118 C122 1.401 1_554 S
C118 C123 1.499 . S
N119 Co102 1.989 1_556 S
N119 C118 1.342 1_556 S
N119 N120 1.388 . S
N120 Co103 1.993 . S
N120 N119 1.388 . S
N120 C121 1.346 . S
C121 N120 1.346 . S
C121 C122 1.396 . S
C121 C131 1.510 . S
C122 C118 1.401 1_556 S
C122 C121 1.396 . S
C123 C118 1.499 . S
C123 H124 0.959 . S
C123 H125 0.960 . S
C123 H126 0.961 . S
H124 C123 0.959 . S
H125 C123 0.960 . S
H126 C123 0.961 . S
O127 Co102 1.967 . S
O127 C135 1.258 . S
O128 Co103 1.941 . S
O128 C135 1.266 1_556 S
H129 C131 0.959 . S
H130 C131 0.961 . S
C131 C121 1.510 . S
C131 H129 0.959 . S
C131 H130 0.961 . S
C131 H132 0.960 . S
H132 C131 0.960 . S
H133 N113 0.862 . S
O134 Co102 1.920 . S
O134 C107 1.289 . S
C135 O127 1.258 . S
C135 O128 1.266 1_554 S
Co136 O139 1.970 . S
Co136 N153 1.989 . S
Co136 O161 1.967 . S
Co136 O168 1.920 . S
Co137 O140 1.966 . S
Co137 N146 2.022 . S
Co137 N154 1.993 . S
Co137 O162 1.941 . S
C138 O139 1.258 . S
C138 O140 1.263 . S
O139 Co136 1.970 . S
O139 C138 1.258 . S
O140 Co137 1.966 . S
O140 C138 1.263 . S
C141 O142 1.235 . S
C141 O168 1.289 . S
O142 C141 1.235 . S
C143 C145 1.400 1_556 S
C143 N146 1.351 . S
C143 C148 1.501 . S
C144 C145 1.387 . S
C144 N147 1.341 1_554 S
C145 C143 1.400 1_554 S
C145 C144 1.387 . S
N146 Co137 2.022 . S
N146 C143 1.351 . S
N146 N147 1.365 . S
N147 C144 1.341 1_556 S
N147 N146 1.365 . S
N147 H167 0.862 . S
C148 C143 1.501 . S
C148 H149 0.961 . S
C148 H150 0.961 1_455 S
C148 H151 0.960 . S
H149 C148 0.961 . S
H150 C148 0.961 1_655 S
H151 C148 0.960 . S
C152 N153 1.342 . S
C152 C156 1.401 . S
C152 C157 1.499 . S
N153 Co136 1.989 . S
N153 C152 1.342 . S
N153 N154 1.388 . S
N154 Co137 1.993 . S
N154 N153 1.388 . S
N154 C155 1.346 . S
C155 N154 1.346 . S
C155 C156 1.396 . S
C155 C165 1.510 . S
C156 C152 1.401 . S
C156 C155 1.396 . S
C157 C152 1.499 . S
C157 H158 0.959 . S
C157 H159 0.960 . S
C157 H160 0.961 . S
H158 C157 0.959 . S
H159 C157 0.960 . S
H160 C157 0.961 . S
O161 Co136 1.967 . S
O161 C169 1.258 . S
O162 Co137 1.941 . S
O162 C169 1.266 . S
H163 C165 0.959 . S
H164 C165 0.961 . S
C165 C155 1.510 . S
C165 H163 0.959 . S
C165 H164 0.961 . S
C165 H166 0.960 . S
H166 C165 0.960 . S
H167 N147 0.862 . S
O168 Co136 1.920 . S
O168 C141 1.289 . S
C169 O161 1.258 . S
C169 O162 1.266 . S
Co170 O173 1.970 . S
Co170 N187 1.989 1_556 S
Co170 O195 1.967 . S
Co170 O202 1.920 . S
Co171 O174 1.966 . S
Co171 N180 2.022 . S
Co171 N188 1.993 . S
Co171 O196 1.941 . S
C172 O173 1.258 . S
C172 O174 1.263 1_556 S
O173 Co170 1.970 . S
O173 C172 1.258 . S
O174 Co171 1.966 . S
O174 C172 1.263 1_554 S
C175 O176 1.235 . S
C175 O202 1.289 . S
O176 C175 1.235 . S
C177 C179 1.400 . S
C177 N180 1.351 . S
C177 C182 1.501 . S
C178 C179 1.387 . S
C178 N181 1.341 . S
C179 C177 1.400 . S
C179 C178 1.387 . S
N180 Co171 2.022 . S
N180 C177 1.351 . S
N180 N181 1.365 . S
N181 C178 1.341 . S
N181 N180 1.365 . S
N181 H201 0.862 . S
C182 C177 1.501 . S
C182 H183 0.961 . S
C182 H184 0.961 . S
C182 H185 0.960 . S
H183 C182 0.961 . S
H184 C182 0.961 . S
H185 C182 0.960 . S
C186 N187 1.342 1_556 S
C186 C190 1.401 1_556 S
C186 C191 1.499 . S
N187 Co170 1.989 1_554 S
N187 C186 1.342 1_554 S
N187 N188 1.388 . S
N188 Co171 1.993 . S
N188 N187 1.388 . S
N188 C189 1.346 . S
C189 N188 1.346 . S
C189 C190 1.396 . S
C189 C199 1.510 . S
C190 C186 1.401 1_554 S
C190 C189 1.396 . S
C191 C186 1.499 . S
C191 H192 0.959 . S
C191 H193 0.960 . S
C191 H194 0.961 . S
H192 C191 0.959 . S
H193 C191 0.960 . S
H194 C191 0.961 . S
O195 Co170 1.967 . S
O195 C203 1.258 . S
O196 Co171 1.941 . S
O196 C203 1.266 1_554 S
H197 C199 0.959 . S
H198 C199 0.961 . S
C199 C189 1.510 . S
C199 H197 0.959 . S
C199 H198 0.961 . S
C199 H200 0.960 . S
H200 C199 0.960 . S
H201 N181 0.862 . S
O202 Co170 1.920 . S
O202 C175 1.289 . S
C203 O195 1.258 . S
C203 O196 1.266 1_556 S
Co204 O207 1.970 . S
Co204 N221 1.989 . S
Co204 O229 1.967 . S
Co204 O236 1.920 . S
Co205 O208 1.966 . S
Co205 N214 2.022 . S
Co205 N222 1.993 . S
Co205 O230 1.941 . S
C206 O207 1.258 . S
C206 O208 1.263 . S
O207 Co204 1.970 . S
O207 C206 1.258 . S
O208 Co205 1.966 . S
O208 C206 1.263 . S
C209 O210 1.235 . S
C209 O236 1.289 . S
O210 C209 1.235 . S
C211 C213 1.400 . S
C211 N214 1.351 . S
C211 C216 1.501 . S
C212 C213 1.387 . S
C212 N215 1.341 . S
C213 C211 1.400 . S
C213 C212 1.387 . S
N214 Co205 2.022 . S
N214 C211 1.351 . S
N214 N215 1.365 . S
N215 C212 1.341 . S
N215 N214 1.365 . S
N215 H235 0.862 . S
C216 C211 1.501 . S
C216 H217 0.961 . S
C216 H218 0.961 . S
C216 H219 0.960 . S
H217 C216 0.961 . S
H218 C216 0.961 . S
H219 C216 0.960 . S
C220 N221 1.342 . S
C220 C224 1.401 . S
C220 C225 1.499 . S
N221 Co204 1.989 . S
N221 C220 1.342 . S
N221 N222 1.388 . S
N222 Co205 1.993 . S
N222 N221 1.388 . S
N222 C223 1.346 . S
C223 N222 1.346 . S
C223 C224 1.396 . S
C223 C233 1.510 . S
C224 C220 1.401 . S
C224 C223 1.396 . S
C225 C220 1.499 . S
C225 H226 0.959 . S
C225 H227 0.960 . S
C225 H228 0.961 . S
H226 C225 0.959 . S
H227 C225 0.960 . S
H228 C225 0.961 . S
O229 Co204 1.967 . S
O229 C237 1.258 . S
O230 Co205 1.941 . S
O230 C237 1.266 . S
H231 C233 0.959 . S
H232 C233 0.961 . S
C233 C223 1.510 . S
C233 H231 0.959 . S
C233 H232 0.961 . S
C233 H234 0.960 . S
H234 C233 0.960 . S
H235 N215 0.862 . S
O236 Co204 1.920 . S
O236 C209 1.289 . S
C237 O229 1.258 . S
C237 O230 1.266 . S
Co238 O241 1.970 . S
Co238 N255 1.989 . S
Co238 O263 1.967 . S
Co238 O270 1.920 . S
Co239 O242 1.966 . S
Co239 N248 2.022 . S
Co239 N256 1.993 . S
Co239 O264 1.941 . S
C240 O241 1.258 . S
C240 O242 1.263 . S
O241 Co238 1.970 . S
O241 C240 1.258 . S
O242 Co239 1.966 . S
O242 C240 1.263 . S
C243 O244 1.235 . S
C243 O270 1.289 . S
O244 C243 1.235 . S
C245 C247 1.400 . S
C245 N248 1.351 . S
C245 C250 1.501 . S
C246 C247 1.387 . S
C246 N249 1.341 . S
C247 C245 1.400 . S
C247 C246 1.387 . S
N248 Co239 2.022 . S
N248 C245 1.351 . S
N248 N249 1.365 . S
N249 C246 1.341 . S
N249 N248 1.365 . S
N249 H269 0.862 . S
C250 C245 1.501 . S
C250 H251 0.961 . S
C250 H252 0.961 . S
C250 H253 0.960 . S
H251 C250 0.961 . S
H252 C250 0.961 . S
H253 C250 0.960 . S
C254 N255 1.342 . S
C254 C258 1.401 . S
C254 C259 1.499 . S
N255 Co238 1.989 . S
N255 C254 1.342 . S
N255 N256 1.388 . S
N256 Co239 1.993 . S
N256 N255 1.388 . S
N256 C257 1.346 . S
C257 N256 1.346 . S
C257 C258 1.396 . S
C257 C267 1.510 . S
C258 C254 1.401 . S
C258 C257 1.396 . S
C259 C254 1.499 . S
C259 H260 0.959 . S
C259 H261 0.960 . S
C259 H262 0.961 . S
H260 C259 0.959 . S
H261 C259 0.960 . S
H262 C259 0.961 . S
O263 Co238 1.967 . S
O263 C271 1.258 . S
O264 Co239 1.941 . S
O264 C271 1.266 . S
H265 C267 0.959 . S
H266 C267 0.961 . S
C267 C257 1.510 . S
C267 H265 0.959 . S
C267 H266 0.961 . S
C267 H268 0.960 . S
H268 C267 0.960 . S
H269 N249 0.862 . S
O270 Co238 1.920 . S
O270 C243 1.289 . S
C271 O263 1.258 . S
C271 O264 1.266 . S
Co272 O275 1.970 . S
Co272 N289 1.989 . S
Co272 O297 1.967 . S
Co272 O304 1.920 . S
Co273 O276 1.966 . S
Co273 N282 2.022 . S
Co273 N290 1.993 . S
Co273 O298 1.941 . S
C274 O275 1.258 . S
C274 O276 1.263 . S
O275 Co272 1.970 . S
O275 C274 1.258 . S
O276 Co273 1.966 . S
O276 C274 1.263 . S
C277 O278 1.235 . S
C277 O304 1.289 . S
O278 C277 1.235 . S
C279 C281 1.400 . S
C279 N282 1.351 . S
C279 C284 1.501 . S
C280 C281 1.387 . S
C280 N283 1.341 . S
C281 C279 1.400 . S
C281 C280 1.387 . S
N282 Co273 2.022 . S
N282 C279 1.351 . S
N282 N283 1.365 . S
N283 C280 1.341 . S
N283 N282 1.365 . S
N283 H303 0.862 . S
C284 C279 1.501 . S
C284 H285 0.961 . S
C284 H286 0.961 . S
C284 H287 0.960 . S
H285 C284 0.961 . S
H286 C284 0.961 . S
H287 C284 0.960 . S
C288 N289 1.342 . S
C288 C292 1.401 . S
C288 C293 1.499 . S
N289 Co272 1.989 . S
N289 C288 1.342 . S
N289 N290 1.388 . S
N290 Co273 1.993 . S
N290 N289 1.388 . S
N290 C291 1.346 . S
C291 N290 1.346 . S
C291 C292 1.396 . S
C291 C301 1.510 . S
C292 C288 1.401 . S
C292 C291 1.396 . S
C293 C288 1.499 . S
C293 H294 0.959 . S
C293 H295 0.960 . S
C293 H296 0.961 . S
H294 C293 0.959 . S
H295 C293 0.960 . S
H296 C293 0.961 . S
O297 Co272 1.967 . S
O297 C305 1.258 . S
O298 Co273 1.941 . S
O298 C305 1.266 . S
H299 C301 0.959 . S
H300 C301 0.961 . S
C301 C291 1.510 . S
C301 H299 0.959 . S
C301 H300 0.961 . S
C301 H302 0.960 . S
H302 C301 0.960 . S
H303 N283 0.862 . S
O304 Co272 1.920 . S
O304 C277 1.289 . S
C305 O297 1.258 . S
C305 O298 1.266 . S
Co306 O309 1.970 . S
Co306 N323 1.989 1_556 S
Co306 O331 1.967 . S
Co306 O338 1.920 . S
Co307 O310 1.966 . S
Co307 N316 2.022 . S
Co307 N324 1.993 . S
Co307 O332 1.941 . S
C308 O309 1.258 . S
C308 O310 1.263 1_556 S
O309 Co306 1.970 . S
O309 C308 1.258 . S
O310 Co307 1.966 . S
O310 C308 1.263 1_554 S
C311 O312 1.235 . S
C311 O338 1.289 . S
O312 C311 1.235 . S
C313 C315 1.400 . S
C313 N316 1.351 . S
C313 C318 1.501 . S
C314 C315 1.387 . S
C314 N317 1.341 . S
C315 C313 1.400 . S
C315 C314 1.387 . S
N316 Co307 2.022 . S
N316 C313 1.351 . S
N316 N317 1.365 . S
N317 C314 1.341 . S
N317 N316 1.365 . S
N317 H337 0.862 . S
C318 C313 1.501 . S
C318 H319 0.961 . S
C318 H320 0.961 . S
C318 H321 0.960 . S
H319 C318 0.961 . S
H320 C318 0.961 . S
H321 C318 0.960 . S
C322 N323 1.342 1_556 S
C322 C326 1.401 1_556 S
C322 C327 1.499 . S
N323 Co306 1.989 1_554 S
N323 C322 1.342 1_554 S
N323 N324 1.388 . S
N324 Co307 1.993 . S
N324 N323 1.388 . S
N324 C325 1.346 . S
C325 N324 1.346 . S
C325 C326 1.396 . S
C325 C335 1.510 . S
C326 C322 1.401 1_554 S
C326 C325 1.396 . S
C327 C322 1.499 . S
C327 H328 0.959 . S
C327 H329 0.960 . S
C327 H330 0.961 . S
H328 C327 0.959 . S
H329 C327 0.960 . S
H330 C327 0.961 . S
O331 Co306 1.967 . S
O331 C339 1.258 . S
O332 Co307 1.941 . S
O332 C339 1.266 1_554 S
H333 C335 0.959 . S
H334 C335 0.961 . S
C335 C325 1.510 . S
C335 H333 0.959 . S
C335 H334 0.961 . S
C335 H336 0.960 . S
H336 C335 0.960 . S
H337 N317 0.862 . S
O338 Co306 1.920 . S
O338 C311 1.289 . S
C339 O331 1.258 . S
C339 O332 1.266 1_556 S
Co340 O343 1.970 . S
Co340 N357 1.989 1_554 S
Co340 O365 1.967 . S
Co340 O372 1.920 . S
Co341 O344 1.966 . S
Co341 N350 2.022 . S
Co341 N358 1.993 . S
Co341 O366 1.941 . S
C342 O343 1.258 . S
C342 O344 1.263 1_554 S
O343 Co340 1.970 . S
O343 C342 1.258 . S
O344 Co341 1.966 . S
O344 C342 1.263 1_556 S
C345 O346 1.235 . S
C345 O372 1.289 . S
O346 C345 1.235 . S
C347 C349 1.400 . S
C347 N350 1.351 . S
C347 C352 1.501 . S
C348 C349 1.387 . S
C348 N351 1.341 . S
C349 C347 1.400 . S
C349 C348 1.387 . S
N350 Co341 2.022 . S
N350 C347 1.351 . S
N350 N351 1.365 . S
N351 C348 1.341 . S
N351 N350 1.365 . S
N351 H371 0.862 . S
C352 C347 1.501 . S
C352 H353 0.961 . S
C352 H354 0.961 . S
C352 H355 0.960 . S
H353 C352 0.961 . S
H354 C352 0.961 . S
H355 C352 0.960 . S
C356 N357 1.342 1_554 S
C356 C360 1.401 1_554 S
C356 C361 1.499 . S
N357 Co340 1.989 1_556 S
N357 C356 1.342 1_556 S
N357 N358 1.388 . S
N358 Co341 1.993 . S
N358 N357 1.388 . S
N358 C359 1.346 . S
C359 N358 1.346 . S
C359 C360 1.396 . S
C359 C369 1.510 . S
C360 C356 1.401 1_556 S
C360 C359 1.396 . S
C361 C356 1.499 . S
C361 H362 0.959 . S
C361 H363 0.960 . S
C361 H364 0.961 . S
H362 C361 0.959 . S
H363 C361 0.960 . S
H364 C361 0.961 . S
O365 Co340 1.967 . S
O365 C373 1.258 . S
O366 Co341 1.941 . S
O366 C373 1.266 1_556 S
H367 C369 0.959 . S
H368 C369 0.961 . S
C369 C359 1.510 . S
C369 H367 0.959 . S
C369 H368 0.961 . S
C369 H370 0.960 . S
H370 C369 0.960 . S
H371 N351 0.862 . S
O372 Co340 1.920 . S
O372 C345 1.289 . S
C373 O365 1.258 . S
C373 O366 1.266 1_554 S
Co374 O377 1.970 . S
Co374 N391 1.989 . S
Co374 O399 1.967 . S
Co374 O406 1.920 . S
Co375 O378 1.966 . S
Co375 N384 2.022 . S
Co375 N392 1.993 . S
Co375 O400 1.941 . S
C376 O377 1.258 . S
C376 O378 1.263 . S
O377 Co374 1.970 . S
O377 C376 1.258 . S
O378 Co375 1.966 . S
O378 C376 1.263 . S
C379 O380 1.235 . S
C379 O406 1.289 . S
O380 C379 1.235 . S
C381 C383 1.400 . S
C381 N384 1.351 . S
C381 C386 1.501 . S
C382 C383 1.387 . S
C382 N385 1.341 . S
C383 C381 1.400 . S
C383 C382 1.387 . S
N384 Co375 2.022 . S
N384 C381 1.351 . S
N384 N385 1.365 . S
N385 C382 1.341 . S
N385 N384 1.365 . S
N385 H405 0.862 . S
C386 C381 1.501 . S
C386 H387 0.961 . S
C386 H388 0.961 . S
C386 H389 0.960 . S
H387 C386 0.961 . S
H388 C386 0.961 . S
H389 C386 0.960 . S
C390 N391 1.342 . S
C390 C394 1.401 . S
C390 C395 1.499 . S
N391 Co374 1.989 . S
N391 C390 1.342 . S
N391 N392 1.388 . S
N392 Co375 1.993 . S
N392 N391 1.388 . S
N392 C393 1.346 . S
C393 N392 1.346 . S
C393 C394 1.396 . S
C393 C403 1.510 . S
C394 C390 1.401 . S
C394 C393 1.396 . S
C395 C390 1.499 . S
C395 H396 0.959 . S
C395 H397 0.960 . S
C395 H398 0.961 . S
H396 C395 0.959 . S
H397 C395 0.960 . S
H398 C395 0.961 . S
O399 Co374 1.967 . S
O399 C407 1.258 . S
O400 Co375 1.941 . S
O400 C407 1.266 . S
H401 C403 0.959 . S
H402 C403 0.961 . S
C403 C393 1.510 . S
C403 H401 0.959 . S
C403 H402 0.961 . S
C403 H404 0.960 . S
H404 C403 0.960 . S
H405 N385 0.862 . S
O406 Co374 1.920 . S
O406 C379 1.289 . S
C407 O399 1.258 . S
C407 O400 1.266 . S
Co408 O411 1.970 . S
Co408 N425 1.989 . S
Co408 O433 1.967 . S
Co408 O440 1.920 . S
Co409 O412 1.966 . S
Co409 N418 2.022 . S
Co409 N426 1.993 . S
Co409 O434 1.941 . S
C410 O411 1.258 . S
C410 O412 1.263 . S
O411 Co408 1.970 . S
O411 C410 1.258 . S
O412 Co409 1.966 . S
O412 C410 1.263 . S
C413 O414 1.235 . S
C413 O440 1.289 . S
O414 C413 1.235 . S
C415 C417 1.400 . S
C415 N418 1.351 . S
C415 C420 1.501 . S
C416 C417 1.387 . S
C416 N419 1.341 . S
C417 C415 1.400 . S
C417 C416 1.387 . S
N418 Co409 2.022 . S
N418 C415 1.351 . S
N418 N419 1.365 . S
N419 C416 1.341 . S
N419 N418 1.365 . S
N419 H439 0.862 . S
C420 C415 1.501 . S
C420 H421 0.961 . S
C420 H422 0.961 . S
C420 H423 0.960 . S
H421 C420 0.961 . S
H422 C420 0.961 . S
H423 C420 0.960 . S
C424 N425 1.342 . S
C424 C428 1.401 . S
C424 C429 1.499 . S
N425 Co408 1.989 . S
N425 C424 1.342 . S
N425 N426 1.388 . S
N426 Co409 1.993 . S
N426 N425 1.388 . S
N426 C427 1.346 . S
C427 N426 1.346 . S
C427 C428 1.396 . S
C427 C437 1.510 . S
C428 C424 1.401 . S
C428 C427 1.396 . S
C429 C424 1.499 . S
C429 H430 0.959 . S
C429 H431 0.960 . S
C429 H432 0.961 . S
H430 C429 0.959 . S
H431 C429 0.960 . S
H432 C429 0.961 . S
O433 Co408 1.967 . S
O433 C441 1.258 . S
O434 Co409 1.941 . S
O434 C441 1.266 . S
H435 C437 0.959 . S
H436 C437 0.961 . S
C437 C427 1.510 . S
C437 H435 0.959 . S
C437 H436 0.961 . S
C437 H438 0.960 . S
H438 C437 0.960 . S
H439 N419 0.862 . S
O440 Co408 1.920 . S
O440 C413 1.289 . S
C441 O433 1.258 . S
C441 O434 1.266 . S
Co442 O445 1.970 . S
Co442 N459 1.989 . S
Co442 O467 1.967 . S
Co442 O474 1.920 . S
Co443 O446 1.966 . S
Co443 N452 2.022 . S
Co443 N460 1.993 . S
Co443 O468 1.962 . S
C444 O445 1.258 . S
C444 O446 1.263 . S
O445 Co442 1.970 . S
O445 C444 1.258 . S
O446 Co443 1.966 . S
O446 C444 1.263 . S
C447 O448 1.235 . S
C447 O474 1.289 . S
O448 C447 1.235 . S
C449 C451 1.400 1_554 S
C449 N452 1.351 . S
C449 C454 1.501 . S
C450 C451 1.387 . S
C450 N453 1.341 1_556 S
C451 C449 1.400 1_556 S
C451 C450 1.387 . S
N452 Co443 2.022 . S
N452 C449 1.351 . S
N452 N453 1.365 . S
N453 C450 1.341 1_554 S
N453 N452 1.365 . S
N453 H473 0.862 1_455 S
C454 C449 1.501 . S
C454 H455 0.961 . S
C454 H456 0.961 . S
C454 H457 0.960 . S
H455 C454 0.961 . S
H456 C454 0.961 . S
H457 C454 0.960 . S
C458 N459 1.342 . S
C458 C462 1.401 . S
C458 C463 1.499 . S
N459 Co442 1.989 . S
N459 C458 1.342 . S
N459 N460 1.388 . S
N460 Co443 1.993 . S
N460 N459 1.388 . S
N460 C461 1.346 . S
C461 N460 1.346 . S
C461 C462 1.396 . S
C461 C471 1.510 . S
C462 C458 1.401 . S
C462 C461 1.396 . S
C463 C458 1.499 . S
C463 H464 0.959 . S
C463 H465 0.960 . S
C463 H466 0.961 . S
H464 C463 0.959 . S
H465 C463 0.960 . S
H466 C463 0.961 . S
O467 Co442 1.967 . S
O467 C475 1.258 1_455 S
O468 Co443 1.962 . S
O468 C475 1.261 1_455 S
H469 C471 0.959 . S
H470 C471 0.961 . S
C471 C461 1.510 . S
C471 H469 0.959 . S
C471 H470 0.961 . S
C471 H472 0.960 . S
H472 C471 0.960 . S
H473 N453 0.862 1_655 S
O474 Co442 1.920 . S
O474 C447 1.289 . S
C475 O467 1.258 1_655 S
C475 O468 1.261 1_655 S
Co476 O479 1.970 . S
Co476 N493 1.989 . S
Co476 O501 1.967 . S
Co476 O508 1.920 . S
Co477 O480 1.966 . S
Co477 N486 2.022 . S
Co477 N494 1.993 . S
Co477 O502 1.941 . S
C478 O479 1.258 . S
C478 O480 1.263 . S
O479 Co476 1.970 . S
O479 C478 1.258 . S
O480 Co477 1.966 . S
O480 C478 1.263 . S
C481 O482 1.235 . S
C481 O508 1.289 . S
O482 C481 1.235 . S
C483 C485 1.400 . S
C483 N486 1.351 . S
C483 C488 1.501 . S
C484 C485 1.387 . S
C484 N487 1.341 . S
C485 C483 1.400 . S
C485 C484 1.387 . S
N486 Co477 2.022 . S
N486 C483 1.351 . S
N486 N487 1.365 . S
N487 C484 1.341 . S
N487 N486 1.365 . S
N487 H507 0.862 . S
C488 C483 1.501 . S
C488 H489 0.961 . S
C488 H490 0.961 . S
C488 H491 0.960 . S
H489 C488 0.961 . S
H490 C488 0.961 . S
H491 C488 0.960 . S
C492 N493 1.342 . S
C492 C496 1.401 . S
C492 C497 1.499 . S
N493 Co476 1.989 . S
N493 C492 1.342 . S
N493 N494 1.388 . S
N494 Co477 1.993 . S
N494 N493 1.388 . S
N494 C495 1.346 . S
C495 N494 1.346 . S
C495 C496 1.396 . S
C495 C505 1.510 . S
C496 C492 1.401 . S
C496 C495 1.396 . S
C497 C492 1.499 . S
C497 H498 0.959 . S
C497 H499 0.960 . S
C497 H500 0.961 . S
H498 C497 0.959 . S
H499 C497 0.960 . S
H500 C497 0.961 . S
O501 Co476 1.967 . S
O501 C509 1.258 . S
O502 Co477 1.941 . S
O502 C509 1.266 . S
H503 C505 0.959 . S
H504 C505 0.961 . S
C505 C495 1.510 . S
C505 H503 0.959 . S
C505 H504 0.961 . S
C505 H506 0.960 . S
H506 C505 0.960 . S
H507 N487 0.862 . S
O508 Co476 1.920 . S
O508 C481 1.289 . S
C509 O501 1.258 . S
C509 O502 1.266 . S
Co510 O513 1.970 . S
Co510 N527 1.989 . S
Co510 O535 1.967 . S
Co510 O542 1.920 . S
Co511 O514 1.966 . S
Co511 N520 2.022 . S
Co511 N528 1.993 . S
Co511 O536 1.962 . S
C512 O513 1.258 . S
C512 O514 1.263 . S
O513 Co510 1.970 . S
O513 C512 1.258 . S
O514 Co511 1.966 . S
O514 C512 1.263 . S
C515 O516 1.235 . S
C515 O542 1.289 . S
O516 C515 1.235 . S
C517 C519 1.400 1_556 S
C517 N520 1.351 . S
C517 C522 1.501 . S
C518 C519 1.387 . S
C518 N521 1.341 1_554 S
C519 C517 1.400 1_554 S
C519 C518 1.387 . S
N520 Co511 2.022 . S
N520 C517 1.351 . S
N520 N521 1.365 . S
N521 C518 1.341 1_556 S
N521 N520 1.365 . S
N521 H541 0.862 1_455 S
C522 C517 1.501 . S
C522 H523 0.961 . S
C522 H524 0.961 . S
C522 H525 0.960 . S
H523 C522 0.961 . S
H524 C522 0.961 . S
H525 C522 0.960 . S
C526 N527 1.342 . S
C526 C530 1.401 . S
C526 C531 1.499 . S
N527 Co510 1.989 . S
N527 C526 1.342 . S
N527 N528 1.388 . S
N528 Co511 1.993 . S
N528 N527 1.388 . S
N528 C529 1.346 . S
C529 N528 1.346 . S
C529 C530 1.396 . S
C529 C539 1.510 . S
C530 C526 1.401 . S
C530 C529 1.396 . S
C531 C526 1.499 . S
C531 H532 0.959 . S
C531 H533 0.960 . S
C531 H534 0.961 . S
H532 C531 0.959 . S
H533 C531 0.960 . S
H534 C531 0.961 . S
O535 Co510 1.967 . S
O535 C543 1.258 1_455 S
O536 Co511 1.962 . S
O536 C543 1.261 1_455 S
H537 C539 0.959 . S
H538 C539 0.961 . S
C539 C529 1.510 . S
C539 H537 0.959 . S
C539 H538 0.961 . S
C539 H540 0.960 . S
H540 C539 0.960 . S
H541 N521 0.862 1_655 S
O542 Co510 1.920 . S
O542 C515 1.289 . S
C543 O535 1.258 1_655 S
C543 O536 1.261 1_655 S
H544 C562 0.951 . S
H545 C564 0.951 . S
H546 C566 0.950 . S
H547 C567 0.950 . S
H548 C569 0.950 . S
H549 C572 0.950 . S
H550 C573 0.950 . S
H551 C575 0.950 . S
H552 C576 0.950 . S
H553 C577 0.951 . S
H554 C579 0.951 . S
H555 C581 0.950 . S
H556 C582 0.950 . S
H557 C584 0.950 . S
H558 C587 0.950 . S
H559 C588 0.950 . S
H560 C590 0.950 . S
H561 C591 0.950 . S
C562 H544 0.951 . S
C562 C563 1.366 . S
C562 C564 1.388 . S
C563 C562 1.366 . S
C563 C567 1.385 . S
C564 H545 0.951 . S
C564 C562 1.388 . S
C564 C565 1.366 . S
C565 C564 1.366 . S
C565 C566 1.414 . S
C565 C568 1.499 . S
C566 H546 0.950 . S
C566 C565 1.414 . S
C566 C567 1.374 . S
C567 H547 0.950 . S
C567 C563 1.385 . S
C567 C566 1.374 . S
C568 C565 1.499 . S
C568 C569 1.373 . S
C568 C570 1.389 . S
C569 H548 0.950 . S
C569 C568 1.373 . S
C569 C585 1.377 . S
C570 C568 1.389 . S
C570 C571 1.524 . S
C570 C584 1.377 . S
C571 C570 1.524 . S
C571 C572 1.397 . S
C571 C576 1.363 . S
C572 H549 0.950 . S
C572 C571 1.397 . S
C572 C573 1.334 . S
C573 H550 0.950 . S
C573 C572 1.334 . S
C573 C574 1.287 . S
C574 C573 1.287 . S
C574 C575 1.524 . S
C574 H593 0.913 . S
C575 H551 0.950 . S
C575 C574 1.524 . S
C575 C576 1.415 . S
C576 H552 0.950 . S
C576 C571 1.363 . S
C576 C575 1.415 . S
C577 H553 0.951 . S
C577 C578 1.366 . S
C577 C579 1.388 . S
C578 C577 1.366 . S
C578 C582 1.385 . S
C579 H554 0.951 . S
C579 C577 1.388 . S
C579 C580 1.366 . S
C580 C579 1.366 . S
C580 C581 1.414 . S
C580 C583 1.499 . S
C581 H555 0.950 . S
C581 C580 1.414 . S
C581 C582 1.374 . S
C582 H556 0.950 . S
C582 C578 1.385 . S
C582 C581 1.374 . S
C583 C580 1.499 . S
C583 C584 1.373 . S
C583 C585 1.389 . S
C584 H557 0.950 . S
C584 C570 1.377 . S
C584 C583 1.373 . S
C585 C569 1.377 . S
C585 C583 1.389 . S
C585 C586 1.524 . S
C586 C585 1.524 . S
C586 C587 1.397 . S
C586 C591 1.363 . S
C587 H558 0.950 . S
C587 C586 1.397 . S
C587 C588 1.334 . S
C588 H559 0.950 . S
C588 C587 1.334 . S
C588 C589 1.287 . S
C589 C588 1.287 . S
C589 C590 1.524 . S
C589 H592 0.999 . S
C590 H560 0.950 . S
C590 C589 1.524 . S
C590 C591 1.415 . S
C591 H561 0.950 . S
C591 C586 1.363 . S
C591 C590 1.415 . S
H592 C589 0.999 . S
H593 C574 0.913 . S
H594 C612 0.951 . S
H595 C614 0.951 . S
H596 C616 0.950 . S
H597 C617 0.950 . S
H598 C619 0.950 . S
H599 C622 0.950 . S
H600 C623 0.950 . S
H601 C625 0.950 . S
H602 C626 0.950 . S
H603 C627 0.951 . S
H604 C629 0.951 . S
H605 C631 0.950 . S
H606 C632 0.950 . S
H607 C634 0.950 . S
H608 C637 0.950 . S
H609 C638 0.950 . S
H610 C640 0.950 . S
H611 C641 0.950 . S
C612 H594 0.951 . S
C612 C613 1.366 . S
C612 C614 1.388 . S
C613 C612 1.366 . S
C613 C617 1.385 . S
C614 H595 0.951 . S
C614 C612 1.388 . S
C614 C615 1.366 . S
C615 C614 1.366 . S
C615 C616 1.414 . S
C615 C618 1.499 . S
C616 H596 0.950 . S
C616 C615 1.414 . S
C616 C617 1.374 . S
C617 H597 0.950 . S
C617 C613 1.385 . S
C617 C616 1.374 . S
C618 C615 1.499 . S
C618 C619 1.373 . S
C618 C620 1.389 . S
C619 H598 0.950 . S
C619 C618 1.373 . S
C619 C635 1.377 . S
C620 C618 1.389 . S
C620 C621 1.524 . S
C620 C634 1.377 . S
C621 C620 1.524 . S
C621 C622 1.397 . S
C621 C626 1.363 . S
C622 H599 0.950 . S
C622 C621 1.397 . S
C622 C623 1.334 . S
C623 H600 0.950 . S
C623 C622 1.334 . S
C623 C624 1.287 . S
C624 C623 1.287 . S
C624 C625 1.524 . S
C624 H643 0.913 . S
C625 H601 0.950 . S
C625 C624 1.524 . S
C625 C626 1.415 . S
C626 H602 0.950 . S
C626 C621 1.363 . S
C626 C625 1.415 . S
C627 H603 0.951 . S
C627 C628 1.366 . S
C627 C629 1.388 . S
C628 C627 1.366 . S
C628 C632 1.385 . S
C629 H604 0.951 . S
C629 C627 1.388 . S
C629 C630 1.366 . S
C630 C629 1.366 . S
C630 C631 1.414 . S
C630 C633 1.499 . S
C631 H605 0.950 . S
C631 C630 1.414 . S
C631 C632 1.374 . S
C632 H606 0.950 . S
C632 C628 1.385 . S
C632 C631 1.374 . S
C633 C630 1.499 . S
C633 C634 1.373 . S
C633 C635 1.389 . S
C634 H607 0.950 . S
C634 C620 1.377 . S
C634 C633 1.373 . S
C635 C619 1.377 . S
C635 C633 1.389 . S
C635 C636 1.524 . S
C636 C635 1.524 . S
C636 C637 1.397 . S
C636 C641 1.363 . S
C637 H608 0.950 . S
C637 C636 1.397 . S
C637 C638 1.334 . S
C638 H609 0.950 . S
C638 C637 1.334 . S
C638 C639 1.287 . S
C639 C638 1.287 . S
C639 C640 1.524 . S
C639 H642 0.999 . S
C640 H610 0.950 . S
C640 C639 1.524 . S
C640 C641 1.415 . S
C641 H611 0.950 . S
C641 C636 1.363 . S
C641 C640 1.415 . S
H642 C639 0.999 . S
H643 C624 0.913 . S
H644 C662 0.951 . S
H645 C664 0.951 . S
H646 C666 0.950 . S
H647 C667 0.950 . S
H648 C669 0.950 . S
H649 C672 0.950 . S
H650 C673 0.950 . S
H651 C675 0.950 . S
H652 C676 0.950 . S
H653 C677 0.951 . S
H654 C679 0.951 . S
H655 C681 0.950 1_554 S
H656 C682 0.950 . S
H657 C684 0.950 . S
H658 C687 0.950 . S
H659 C688 0.950 . S
H660 C690 0.950 . S
H661 C691 0.950 . S
C662 H644 0.951 . S
C662 C663 1.366 . S
C662 C664 1.388 . S
C663 C662 1.366 . S
C663 C667 1.385 . S
C664 H645 0.951 . S
C664 C662 1.388 . S
C664 C665 1.366 . S
C665 C664 1.366 . S
C665 C666 1.414 . S
C665 C668 1.499 . S
C666 H646 0.950 . S
C666 C665 1.414 . S
C666 C667 1.374 . S
C667 H647 0.950 . S
C667 C663 1.385 . S
C667 C666 1.374 . S
C668 C665 1.499 . S
C668 C669 1.373 . S
C668 C670 1.389 . S
C669 H648 0.950 . S
C669 C668 1.373 . S
C669 C685 1.377 . S
C670 C668 1.389 . S
C670 C671 1.524 . S
C670 C684 1.377 . S
C671 C670 1.524 . S
C671 C672 1.397 . S
C671 C676 1.363 . S
C672 H649 0.950 . S
C672 C671 1.397 . S
C672 C673 1.334 . S
C673 H650 0.950 . S
C673 C672 1.334 . S
C673 C674 1.287 . S
C674 C673 1.287 . S
C674 C675 1.524 . S
C674 H693 0.913 . S
C675 H651 0.950 . S
C675 C674 1.524 . S
C675 C676 1.415 . S
C676 H652 0.950 . S
C676 C671 1.363 . S
C676 C675 1.415 . S
C677 H653 0.951 . S
C677 C678 1.366 . S
C677 C679 1.388 . S
C678 C677 1.366 . S
C678 C682 1.385 1_556 S
C679 H654 0.951 . S
C679 C677 1.388 . S
C679 C680 1.366 . S
C680 C679 1.366 . S
C680 C681 1.414 . S
C680 C683 1.499 . S
C681 H655 0.950 1_556 S
C681 C680 1.414 . S
C681 C682 1.374 1_556 S
C682 H656 0.950 . S
C682 C678 1.385 1_554 S
C682 C681 1.374 1_554 S
C683 C680 1.499 . S
C683 C684 1.373 . S
C683 C685 1.389 . S
C684 H657 0.950 . S
C684 C670 1.377 . S
C684 C683 1.373 . S
C685 C669 1.377 . S
C685 C683 1.389 . S
C685 C686 1.524 . S
C686 C685 1.524 . S
C686 C687 1.397 . S
C686 C691 1.363 . S
C687 H658 0.950 . S
C687 C686 1.397 . S
C687 C688 1.334 . S
C688 H659 0.950 . S
C688 C687 1.334 . S
C688 C689 1.287 . S
C689 C688 1.287 . S
C689 C690 1.524 . S
C689 H692 0.999 . S
C690 H660 0.950 . S
C690 C689 1.524 . S
C690 C691 1.415 . S
C691 H661 0.950 . S
C691 C686 1.363 . S
C691 C690 1.415 . S
H692 C689 0.999 . S
H693 C674 0.913 . S
H694 C712 0.951 . S
H695 C714 0.951 . S
H696 C716 0.950 . S
H697 C717 0.950 . S
H698 C719 0.950 . S
H699 C722 0.950 . S
H700 C723 0.950 . S
H701 C725 0.950 . S
H702 C726 0.950 . S
H703 C727 0.951 . S
H704 C729 0.951 . S
H705 C731 0.950 . S
H706 C732 0.950 . S
H707 C734 0.950 . S
H708 C737 0.950 . S
H709 C738 0.950 . S
H710 C740 0.950 . S
H711 C741 0.950 . S
C712 H694 0.951 . S
C712 C713 1.366 . S
C712 C714 1.388 . S
C713 C712 1.366 . S
C713 C717 1.385 . S
C714 H695 0.951 . S
C714 C712 1.388 . S
C714 C715 1.366 . S
C715 C714 1.366 . S
C715 C716 1.414 . S
C715 C718 1.499 . S
C716 H696 0.950 . S
C716 C715 1.414 . S
C716 C717 1.374 . S
C717 H697 0.950 . S
C717 C713 1.385 . S
C717 C716 1.374 . S
C718 C715 1.499 . S
C718 C719 1.373 . S
C718 C720 1.389 . S
C719 H698 0.950 . S
C719 C718 1.373 . S
C719 C735 1.377 . S
C720 C718 1.389 . S
C720 C721 1.524 . S
C720 C734 1.377 . S
C721 C720 1.524 . S
C721 C722 1.397 . S
C721 C726 1.363 . S
C722 H699 0.950 . S
C722 C721 1.397 . S
C722 C723 1.334 1_554 S
C723 H700 0.950 . S
C723 C722 1.334 1_556 S
C723 C724 1.287 . S
C724 C723 1.287 . S
C724 C725 1.524 . S
C724 H743 0.913 . S
C725 H701 0.950 . S
C725 C724 1.524 . S
C725 C726 1.415 1_556 S
C726 H702 0.950 . S
C726 C721 1.363 . S
C726 C725 1.415 1_554 S
C727 H703 0.951 . S
C727 C728 1.366 . S
C727 C729 1.388 . S
C728 C727 1.366 . S
C728 C732 1.385 . S
C729 H704 0.951 . S
C729 C727 1.388 . S
C729 C730 1.366 . S
C730 C729 1.366 . S
C730 C731 1.414 . S
C730 C733 1.499 . S
C731 H705 0.950 . S
C731 C730 1.414 . S
C731 C732 1.374 . S
C732 H706 0.950 . S
C732 C728 1.385 . S
C732 C731 1.374 . S
C733 C730 1.499 . S
C733 C734 1.373 . S
C733 C735 1.389 . S
C734 H707 0.950 . S
C734 C720 1.377 . S
C734 C733 1.373 . S
C735 C719 1.377 . S
C735 C733 1.389 . S
C735 C736 1.524 . S
C736 C735 1.524 . S
C736 C737 1.397 . S
C736 C741 1.363 . S
C737 H708 0.950 . S
C737 C736 1.397 . S
C737 C738 1.334 . S
C738 H709 0.950 . S
C738 C737 1.334 . S
C738 C739 1.287 . S
C739 C738 1.287 . S
C739 C740 1.524 . S
C739 H742 0.999 . S
C740 H710 0.950 . S
C740 C739 1.524 . S
C740 C741 1.415 . S
C741 H711 0.950 . S
C741 C736 1.363 . S
C741 C740 1.415 . S
H742 C739 0.999 . S
H743 C724 0.913 . S
H744 C762 0.951 . S
H745 C764 0.951 . S
H746 C766 0.950 . S
H747 C767 0.950 . S
H748 C769 0.950 . S
H749 C772 0.950 . S
H750 C773 0.950 . S
H751 C775 0.950 . S
H752 C776 0.950 . S
H753 C777 0.951 . S
H754 C779 0.951 . S
H755 C781 0.950 . S
H756 C782 0.950 1_455 S
H757 C784 0.950 . S
H758 C787 0.950 . S
H759 C788 0.946 . S
H760 C790 0.950 . S
H761 C791 0.950 . S
C762 H744 0.951 . S
C762 C763 1.366 . S
C762 C764 1.388 . S
C763 C762 1.366 . S
C763 C767 1.385 . S
C764 H745 0.951 . S
C764 C762 1.388 . S
C764 C765 1.366 . S
C765 C764 1.366 . S
C765 C766 1.414 . S
C765 C768 1.499 . S
C766 H746 0.950 . S
C766 C765 1.414 . S
C766 C767 1.374 . S
C767 H747 0.950 . S
C767 C763 1.385 . S
C767 C766 1.374 . S
C768 C765 1.499 . S
C768 C769 1.373 . S
C768 C770 1.389 . S
C769 H748 0.950 . S
C769 C768 1.373 . S
C769 C785 1.377 . S
C770 C768 1.389 . S
C770 C771 1.524 . S
C770 C784 1.377 . S
C771 C770 1.524 . S
C771 C772 1.397 . S
C771 C776 1.363 . S
C772 H749 0.950 . S
C772 C771 1.397 . S
C772 C773 1.334 . S
C773 H750 0.950 . S
C773 C772 1.334 . S
C773 C774 1.287 . S
C774 C773 1.287 . S
C774 C775 1.524 . S
C774 H793 0.913 . S
C775 H751 0.950 . S
C775 C774 1.524 . S
C775 C776 1.415 . S
C776 H752 0.950 . S
C776 C771 1.363 . S
C776 C775 1.415 . S
C777 H753 0.951 . S
C777 C778 1.366 . S
C777 C779 1.388 . S
C778 C777 1.366 . S
C778 C782 1.385 . S
C779 H754 0.951 . S
C779 C777 1.388 . S
C779 C780 1.366 . S
C780 C779 1.366 . S
C780 C781 1.414 . S
C780 C783 1.499 . S
C781 H755 0.950 . S
C781 C780 1.414 . S
C781 C782 1.374 . S
C782 H756 0.950 1_655 S
C782 C778 1.385 . S
C782 C781 1.374 . S
C783 C780 1.499 . S
C783 C784 1.373 . S
C783 C785 1.389 . S
C784 H757 0.950 . S
C784 C770 1.377 . S
C784 C783 1.373 . S
C785 C769 1.377 . S
C785 C783 1.389 . S
C785 C786 1.524 . S
C786 C785 1.524 . S
C786 C787 1.397 . S
C786 C791 1.363 . S
C787 H758 0.950 . S
C787 C786 1.397 . S
C787 C788 1.334 . S
C788 H759 0.946 . S
C788 C787 1.334 . S
C788 C789 1.287 . S
C789 C788 1.287 . S
C789 C790 1.524 . S
C789 H792 0.999 . S
C790 H760 0.950 . S
C790 C789 1.524 . S
C790 C791 1.415 . S
C791 H761 0.950 . S
C791 C786 1.363 . S
C791 C790 1.415 . S
H792 C789 0.999 . S
H793 C774 0.913 . S
H794 C812 0.951 . S
H795 C814 0.951 . S
H796 C816 0.950 . S
H797 C817 0.950 . S
H798 C819 0.950 . S
H799 C822 0.950 . S
H800 C823 0.950 . S
H801 C825 0.950 . S
H802 C826 0.950 . S
H803 C827 0.951 . S
H804 C829 0.951 . S
H805 C831 0.950 . S
H806 C832 0.894 1_455 S
H807 C834 0.950 . S
H808 C837 0.950 . S
H809 C838 0.950 . S
H810 C840 0.950 . S
H811 C841 0.950 . S
C812 H794 0.951 . S
C812 C813 1.366 . S
C812 C814 1.388 . S
C813 C812 1.366 . S
C813 C817 1.385 . S
C814 H795 0.951 . S
C814 C812 1.388 . S
C814 C815 1.366 . S
C815 C814 1.366 . S
C815 C816 1.414 . S
C815 C818 1.499 . S
C816 H796 0.950 . S
C816 C815 1.414 . S
C816 C817 1.374 . S
C817 H797 0.950 . S
C817 C813 1.385 . S
C817 C816 1.374 . S
C818 C815 1.499 . S
C818 C819 1.373 . S
C818 C820 1.389 . S
C819 H798 0.950 . S
C819 C818 1.373 . S
C819 C835 1.377 . S
C820 C818 1.389 . S
C820 C821 1.524 . S
C820 C834 1.377 . S
C821 C820 1.524 . S
C821 C822 1.397 . S
C821 C826 1.363 . S
C822 H799 0.950 . S
C822 C821 1.397 . S
C822 C823 1.334 . S
C823 H800 0.950 . S
C823 C822 1.334 . S
C823 C824 1.287 . S
C824 C823 1.287 . S
C824 C825 1.524 . S
C824 H843 0.913 . S
C825 H801 0.950 . S
C825 C824 1.524 . S
C825 C826 1.415 . S
C826 H802 0.950 . S
C826 C821 1.363 . S
C826 C825 1.415 . S
C827 H803 0.951 . S
C827 C828 1.366 . S
C827 C829 1.388 . S
C828 C827 1.366 . S
C828 C832 1.404 . S
C829 H804 0.951 . S
C829 C827 1.388 . S
C829 C830 1.366 . S
C830 C829 1.366 . S
C830 C831 1.414 . S
C830 C833 1.499 . S
C831 H805 0.950 . S
C831 C830 1.414 . S
C831 C832 1.412 . S
C832 H806 0.894 1_655 S
C832 C828 1.404 . S
C832 C831 1.412 . S
C833 C830 1.499 . S
C833 C834 1.373 . S
C833 C835 1.389 . S
C834 H807 0.950 . S
C834 C820 1.377 . S
C834 C833 1.373 . S
C835 C819 1.377 . S
C835 C833 1.389 . S
C835 C836 1.524 . S
C836 C835 1.524 . S
C836 C837 1.397 . S
C836 C841 1.363 . S
C837 H808 0.950 . S
C837 C836 1.397 . S
C837 C838 1.334 . S
C838 H809 0.950 . S
C838 C837 1.334 . S
C838 C839 1.287 . S
C839 C838 1.287 . S
C839 C840 1.524 . S
C839 H842 0.999 . S
C840 H810 0.950 . S
C840 C839 1.524 . S
C840 C841 1.415 . S
C841 H811 0.950 . S
C841 C836 1.363 . S
C841 C840 1.415 . S
H842 C839 0.999 . S
H843 C824 0.913 . S
H844 C862 0.951 . S
H845 C864 0.951 . S
H846 C866 0.950 . S
H847 C867 0.950 . S
H848 C869 0.950 . S
H849 C872 0.950 . S
H850 C873 0.950 . S
H851 C875 0.950 . S
H852 C876 0.950 . S
H853 C877 0.951 . S
H854 C879 0.951 1_556 S
H855 C881 0.950 . S
H856 C882 0.950 . S
H857 C884 0.950 . S
H858 C887 0.950 . S
H859 C888 0.950 . S
H860 C890 0.950 1_556 S
H861 C891 0.950 . S
C862 H844 0.951 . S
C862 C863 1.366 . S
C862 C864 1.388 . S
C863 C862 1.366 . S
C863 C867 1.385 . S
C864 H845 0.951 . S
C864 C862 1.388 . S
C864 C865 1.366 . S
C865 C864 1.366 . S
C865 C866 1.414 . S
C865 C868 1.499 . S
C866 H846 0.950 . S
C866 C865 1.414 . S
C866 C867 1.374 . S
C867 H847 0.950 . S
C867 C863 1.385 . S
C867 C866 1.374 . S
C868 C865 1.499 . S
C868 C869 1.373 . S
C868 C870 1.389 . S
C869 H848 0.950 . S
C869 C868 1.373 . S
C869 C885 1.377 . S
C870 C868 1.389 . S
C870 C871 1.524 . S
C870 C884 1.377 . S
C871 C870 1.524 . S
C871 C872 1.397 . S
C871 C876 1.363 . S
C872 H849 0.950 . S
C872 C871 1.397 . S
C872 C873 1.334 . S
C873 H850 0.950 . S
C873 C872 1.334 . S
C873 C874 1.287 . S
C874 C873 1.287 . S
C874 C875 1.524 . S
C874 H893 0.913 . S
C875 H851 0.950 . S
C875 C874 1.524 . S
C875 C876 1.415 . S
C876 H852 0.950 . S
C876 C871 1.363 . S
C876 C875 1.415 . S
C877 H853 0.951 . S
C877 C878 1.366 1_556 S
C877 C879 1.388 1_556 S
C878 C877 1.366 1_554 S
C878 C882 1.385 . S
C879 H854 0.951 1_554 S
C879 C877 1.388 1_554 S
C879 C880 1.366 . S
C880 C879 1.366 . S
C880 C881 1.414 . S
C880 C883 1.499 . S
C881 H855 0.950 . S
C881 C880 1.414 . S
C881 C882 1.374 . S
C882 H856 0.950 . S
C882 C878 1.385 . S
C882 C881 1.374 . S
C883 C880 1.499 . S
C883 C884 1.373 . S
C883 C885 1.389 . S
C884 H857 0.950 . S
C884 C870 1.377 . S
C884 C883 1.373 . S
C885 C869 1.377 . S
C885 C883 1.389 . S
C885 C886 1.524 . S
C886 C885 1.524 . S
C886 C887 1.397 . S
C886 C891 1.363 . S
C887 H858 0.950 . S
C887 C886 1.397 . S
C887 C888 1.334 . S
C888 H859 0.950 . S
C888 C887 1.334 . S
C888 C889 1.287 . S
C889 C888 1.287 . S
C889 C890 1.524 . S
C889 H892 0.999 . S
C890 H860 0.950 1_554 S
C890 C889 1.524 . S
C890 C891 1.415 . S
C891 H861 0.950 . S
C891 C886 1.363 . S
C891 C890 1.415 . S
H892 C889 0.999 . S
H893 C874 0.913 . S
H894 C912 0.951 . S
H895 C914 0.951 . S
H896 C916 0.950 . S
H897 C917 0.950 . S
H898 C919 0.950 . S
H899 C922 0.950 . S
H900 C923 0.950 . S
H901 C925 0.950 . S
H902 C926 0.950 1_554 S
H903 C927 0.951 . S
H904 C929 0.951 . S
H905 C931 0.950 1_554 S
H906 C932 0.950 . S
H907 C934 0.950 . S
H908 C937 0.950 . S
H909 C938 0.950 . S
H910 C940 0.950 . S
H911 C941 0.950 . S
C912 H894 0.951 . S
C912 C913 1.366 . S
C912 C914 1.388 . S
C913 C912 1.366 . S
C913 C917 1.385 . S
C914 H895 0.951 . S
C914 C912 1.388 . S
C914 C915 1.366 . S
C915 C914 1.366 . S
C915 C916 1.414 . S
C915 C918 1.499 . S
C916 H896 0.950 . S
C916 C915 1.414 . S
C916 C917 1.374 . S
C917 H897 0.950 . S
C917 C913 1.385 . S
C917 C916 1.374 . S
C918 C915 1.499 . S
C918 C919 1.373 . S
C918 C920 1.389 . S
C919 H898 0.950 . S
C919 C918 1.373 . S
C919 C935 1.377 . S
C920 C918 1.389 . S
C920 C921 1.524 . S
C920 C934 1.377 . S
C921 C920 1.524 . S
C921 C922 1.397 . S
C921 C926 1.363 . S
C922 H899 0.950 . S
C922 C921 1.397 . S
C922 C923 1.334 . S
C923 H900 0.950 . S
C923 C922 1.334 . S
C923 C924 1.287 . S
C924 C923 1.287 . S
C924 C925 1.524 1_556 S
C924 H943 0.913 . S
C925 H901 0.950 . S
C925 C924 1.524 1_554 S
C925 C926 1.415 1_554 S
C926 H902 0.950 1_556 S
C926 C921 1.363 . S
C926 C925 1.415 1_556 S
C927 H903 0.951 . S
C927 C928 1.366 . S
C927 C929 1.388 . S
C928 C927 1.366 . S
C928 C932 1.385 1_556 S
C929 H904 0.951 . S
C929 C927 1.388 . S
C929 C930 1.366 . S
C930 C929 1.366 . S
C930 C931 1.414 . S
C930 C933 1.499 . S
C931 H905 0.950 1_556 S
C931 C930 1.414 . S
C931 C932 1.374 1_556 S
C932 H906 0.950 . S
C932 C928 1.385 1_554 S
C932 C931 1.374 1_554 S
C933 C930 1.499 . S
C933 C934 1.373 . S
C933 C935 1.389 . S
C934 H907 0.950 . S
C934 C920 1.377 . S
C934 C933 1.373 . S
C935 C919 1.377 . S
C935 C933 1.389 . S
C935 C936 1.524 . S
C936 C935 1.524 . S
C936 C937 1.397 . S
C936 C941 1.363 . S
C937 H908 0.950 . S
C937 C936 1.397 . S
C937 C938 1.334 . S
C938 H909 0.950 . S
C938 C937 1.334 . S
C938 C939 1.287 . S
C939 C938 1.287 . S
C939 C940 1.524 . S
C939 H942 0.999 . S
C940 H910 0.950 . S
C940 C939 1.524 . S
C940 C941 1.415 . S
C941 H911 0.950 . S
C941 C936 1.363 . S
C941 C940 1.415 . S
H942 C939 0.999 . S
H943 C924 0.913 . S
H944 C962 0.951 1_554 S
H945 C964 0.951 . S
H946 C966 0.950 . S
H947 C967 0.950 . S
H948 C969 0.950 . S
H949 C972 0.950 . S
H950 C973 0.950 . S
H951 C975 0.950 . S
H952 C976 0.950 . S
H953 C977 0.951 . S
H954 C979 0.951 . S
H955 C981 0.950 . S
H956 C982 0.950 . S
H957 C984 0.950 . S
H958 C987 0.950 . S
H959 C988 0.950 . S
H960 C990 0.950 . S
H961 C991 0.950 . S
C962 H944 0.951 1_556 S
C962 C963 1.366 . S
C962 C964 1.388 . S
C963 C962 1.366 . S
C963 C967 1.385 . S
C964 H945 0.951 . S
C964 C962 1.388 . S
C964 C965 1.366 . S
C965 C964 1.366 . S
C965 C966 1.414 . S
C965 C968 1.499 . S
C966 H946 0.950 . S
C966 C965 1.414 . S
C966 C967 1.374 . S
C967 H947 0.950 . S
C967 C963 1.385 . S
C967 C966 1.374 . S
C968 C965 1.499 . S
C968 C969 1.373 . S
C968 C970 1.389 . S
C969 H948 0.950 . S
C969 C968 1.373 . S
C969 C985 1.377 . S
C970 C968 1.389 . S
C970 C971 1.524 1_556 S
C970 C984 1.377 . S
C971 C970 1.524 1_554 S
C971 C972 1.397 . S
C971 C976 1.363 . S
C972 H949 0.950 . S
C972 C971 1.397 . S
C972 C973 1.334 . S
C973 H950 0.950 . S
C973 C972 1.334 . S
C973 C974 1.287 . S
C974 C973 1.287 . S
C974 C975 1.524 . S
C974 H993 0.913 . S
C975 H951 0.950 . S
C975 C974 1.524 . S
C975 C976 1.415 . S
C976 H952 0.950 . S
C976 C971 1.363 . S
C976 C975 1.415 . S
C977 H953 0.951 . S
C977 C978 1.366 . S
C977 C979 1.388 . S
C978 C977 1.366 . S
C978 C982 1.385 . S
C979 H954 0.951 . S
C979 C977 1.388 . S
C979 C980 1.366 . S
C980 C979 1.366 . S
C980 C981 1.414 . S
C980 C983 1.499 . S
C981 H955 0.950 . S
C981 C980 1.414 . S
C981 C982 1.374 . S
C982 H956 0.950 . S
C982 C978 1.385 . S
C982 C981 1.374 . S
C983 C980 1.499 . S
C983 C984 1.373 . S
C983 C985 1.389 . S
C984 H957 0.950 . S
C984 C970 1.377 . S
C984 C983 1.373 . S
C985 C969 1.377 . S
C985 C983 1.389 . S
C985 C986 1.524 . S
C986 C985 1.524 . S
C986 C987 1.397 . S
C986 C991 1.363 . S
C987 H958 0.950 . S
C987 C986 1.397 . S
C987 C988 1.334 . S
C988 H959 0.950 . S
C988 C987 1.334 . S
C988 C989 1.287 . S
C989 C988 1.287 . S
C989 C990 1.524 . S
C989 H992 0.999 . S
C990 H960 0.950 . S
C990 C989 1.524 . S
C990 C991 1.415 . S
C991 H961 0.950 . S
C991 C986 1.363 . S
C991 C990 1.415 . S
H992 C989 0.999 . S
H993 C974 0.913 . S
H994 C1012 0.951 . S
H995 C1014 0.951 . S
H996 C1016 0.950 . S
H997 C1017 0.950 . S
H998 C1019 0.950 . S
H999 C1022 0.950 . S
H1000 C1023 0.950 . S
H1001 C1025 0.950 . S
H1002 C1026 0.950 . S
H1003 C1027 0.951 . S
H1004 C1029 0.951 . S
H1005 C1031 0.950 1_556 S
H1006 C1032 0.950 . S
H1007 C1034 0.950 . S
H1008 C1037 0.950 . S
H1009 C1038 0.950 . S
H1010 C1040 0.950 . S
H1011 C1041 0.950 . S
C1012 H994 0.951 . S
C1012 C1013 1.366 . S
C1012 C1014 1.388 . S
C1013 C1012 1.366 . S
C1013 C1017 1.385 . S
C1014 H995 0.951 . S
C1014 C1012 1.388 . S
C1014 C1015 1.366 . S
C1015 C1014 1.366 . S
C1015 C1016 1.414 . S
C1015 C1018 1.499 . S
C1016 H996 0.950 . S
C1016 C1015 1.414 . S
C1016 C1017 1.374 . S
C1017 H997 0.950 . S
C1017 C1013 1.385 . S
C1017 C1016 1.374 . S
C1018 C1015 1.499 . S
C1018 C1019 1.373 . S
C1018 C1020 1.389 . S
C1019 H998 0.950 . S
C1019 C1018 1.373 . S
C1019 C1035 1.377 . S
C1020 C1018 1.389 . S
C1020 C1021 1.524 . S
C1020 C1034 1.377 . S
C1021 C1020 1.524 . S
C1021 C1022 1.397 . S
C1021 C1026 1.363 . S
C1022 H999 0.950 . S
C1022 C1021 1.397 . S
C1022 C1023 1.334 . S
C1023 H1000 0.950 . S
C1023 C1022 1.334 . S
C1023 C1024 1.287 . S
C1024 C1023 1.287 . S
C1024 C1025 1.524 . S
C1024 H1043 0.913 . S
C1025 H1001 0.950 . S
C1025 C1024 1.524 . S
C1025 C1026 1.415 . S
C1026 H1002 0.950 . S
C1026 C1021 1.363 . S
C1026 C1025 1.415 . S
C1027 H1003 0.951 . S
C1027 C1028 1.366 . S
C1027 C1029 1.388 . S
C1028 C1027 1.366 . S
C1028 C1032 1.385 1_554 S
C1029 H1004 0.951 . S
C1029 C1027 1.388 . S
C1029 C1030 1.366 . S
C1030 C1029 1.366 . S
C1030 C1031 1.414 . S
C1030 C1033 1.499 . S
C1031 H1005 0.950 1_554 S
C1031 C1030 1.414 . S
C1031 C1032 1.374 1_554 S
C1032 H1006 0.950 . S
C1032 C1028 1.385 1_556 S
C1032 C1031 1.374 1_556 S
C1033 C1030 1.499 . S
C1033 C1034 1.373 . S
C1033 C1035 1.389 . S
C1034 H1007 0.950 . S
C1034 C1020 1.377 . S
C1034 C1033 1.373 . S
C1035 C1019 1.377 . S
C1035 C1033 1.389 . S
C1035 C1036 1.524 . S
C1036 C1035 1.524 . S
C1036 C1037 1.397 . S
C1036 C1041 1.363 . S
C1037 H1008 0.950 . S
C1037 C1036 1.397 . S
C1037 C1038 1.334 . S
C1038 H1009 0.950 . S
C1038 C1037 1.334 . S
C1038 C1039 1.287 . S
C1039 C1038 1.287 . S
C1039 C1040 1.524 . S
C1039 H1042 0.999 . S
C1040 H1010 0.950 . S
C1040 C1039 1.524 . S
C1040 C1041 1.415 . S
C1041 H1011 0.950 . S
C1041 C1036 1.363 . S
C1041 C1040 1.415 . S
H1042 C1039 0.999 . S
H1043 C1024 0.913 . S
H1044 C1062 0.951 . S
H1045 C1064 0.951 . S
H1046 C1066 0.950 . S
H1047 C1067 0.950 1_455 S
H1048 C1069 0.950 . S
H1049 C1072 0.950 . S
H1050 C1073 0.950 . S
H1051 C1075 0.950 . S
H1052 C1076 0.950 . S
H1053 C1077 0.951 . S
H1054 C1079 0.951 . S
H1055 C1081 0.950 . S
H1056 C1082 0.950 . S
H1057 C1084 0.950 . S
H1058 C1087 0.950 . S
H1059 C1088 0.950 . S
H1060 C1090 0.950 . S
H1061 C1091 0.950 . S
C1062 H1044 0.951 . S
C1062 C1063 1.366 . S
C1062 C1064 1.388 . S
C1063 C1062 1.366 . S
C1063 C1067 1.385 . S
C1064 H1045 0.951 . S
C1064 C1062 1.388 . S
C1064 C1065 1.366 . S
C1065 C1064 1.366 . S
C1065 C1066 1.414 . S
C1065 C1068 1.499 . S
C1066 H1046 0.950 . S
C1066 C1065 1.414 . S
C1066 C1067 1.374 . S
C1067 H1047 0.950 1_655 S
C1067 C1063 1.385 . S
C1067 C1066 1.374 . S
C1068 C1065 1.499 . S
C1068 C1069 1.373 . S
C1068 C1070 1.389 . S
C1069 H1048 0.950 . S
C1069 C1068 1.373 . S
C1069 C1085 1.377 . S
C1070 C1068 1.389 . S
C1070 C1071 1.524 . S
C1070 C1084 1.377 . S
C1071 C1070 1.524 . S
C1071 C1072 1.397 . S
C1071 C1076 1.363 . S
C1072 H1049 0.950 . S
C1072 C1071 1.397 . S
C1072 C1073 1.334 . S
C1073 H1050 0.950 . S
C1073 C1072 1.334 . S
C1073 C1074 1.287 . S
C1074 C1073 1.287 . S
C1074 C1075 1.524 . S
C1074 H1093 0.913 . S
C1075 H1051 0.950 . S
C1075 C1074 1.524 . S
C1075 C1076 1.415 . S
C1076 H1052 0.950 . S
C1076 C1071 1.363 . S
C1076 C1075 1.415 . S
C1077 H1053 0.951 . S
C1077 C1078 1.366 . S
C1077 C1079 1.388 . S
C1078 C1077 1.366 . S
C1078 C1082 1.385 . S
C1079 H1054 0.951 . S
C1079 C1077 1.388 . S
C1079 C1080 1.366 . S
C1080 C1079 1.366 . S
C1080 C1081 1.414 . S
C1080 C1083 1.499 . S
C1081 H1055 0.950 . S
C1081 C1080 1.414 . S
C1081 C1082 1.374 . S
C1082 H1056 0.950 . S
C1082 C1078 1.385 . S
C1082 C1081 1.374 . S
C1083 C1080 1.499 . S
C1083 C1084 1.373 . S
C1083 C1085 1.389 . S
C1084 H1057 0.950 . S
C1084 C1070 1.377 . S
C1084 C1083 1.373 . S
C1085 C1069 1.377 . S
C1085 C1083 1.389 . S
C1085 C1086 1.524 . S
C1086 C1085 1.524 . S
C1086 C1087 1.397 . S
C1086 C1091 1.363 . S
C1087 H1058 0.950 . S
C1087 C1086 1.397 . S
C1087 C1088 1.334 . S
C1088 H1059 0.950 . S
C1088 C1087 1.334 . S
C1088 C1089 1.287 . S
C1089 C1088 1.287 . S
C1089 C1090 1.524 . S
C1089 H1092 0.999 . S
C1090 H1060 0.950 . S
C1090 C1089 1.524 . S
C1090 C1091 1.415 . S
C1091 H1061 0.950 . S
C1091 C1086 1.363 . S
C1091 C1090 1.415 . S
H1092 C1089 0.999 . S
H1093 C1074 0.913 . S
H1094 C1112 0.951 . S
H1095 C1114 0.951 . S
H1096 C1116 0.950 . S
H1097 C1117 0.950 . S
H1098 C1119 0.950 . S
H1099 C1122 0.950 . S
H1100 C1123 0.950 . S
H1101 C1125 0.950 . S
H1102 C1126 0.950 . S
H1103 C1127 0.951 1_455 S
H1104 C1129 0.951 . S
H1105 C1131 0.950 . S
H1106 C1132 0.950 . S
H1107 C1134 0.950 . S
H1108 C1137 0.950 . S
H1109 C1138 0.950 . S
H1110 C1140 0.950 1_455 S
H1111 C1141 0.950 . S
C1112 H1094 0.951 . S
C1112 C1113 1.366 . S
C1112 C1114 1.388 . S
C1113 C1112 1.366 . S
C1113 C1117 1.385 . S
C1114 H1095 0.951 . S
C1114 C1112 1.388 . S
C1114 C1115 1.366 . S
C1115 C1114 1.366 . S
C1115 C1116 1.414 . S
C1115 C1118 1.499 . S
C1116 H1096 0.950 . S
C1116 C1115 1.414 . S
C1116 C1117 1.374 . S
C1117 H1097 0.950 . S
C1117 C1113 1.385 . S
C1117 C1116 1.374 . S
C1118 C1115 1.499 . S
C1118 C1119 1.373 . S
C1118 C1120 1.389 . S
C1119 H1098 0.950 . S
C1119 C1118 1.373 . S
C1119 C1135 1.377 . S
C1120 C1118 1.389 . S
C1120 C1121 1.524 . S
C1120 C1134 1.377 . S
C1121 C1120 1.524 . S
C1121 C1122 1.397 . S
C1121 C1126 1.363 . S
C1122 H1099 0.950 . S
C1122 C1121 1.397 . S
C1122 C1123 1.334 . S
C1123 H1100 0.950 . S
C1123 C1122 1.334 . S
C1123 C1124 1.287 . S
C1124 C1123 1.287 . S
C1124 C1125 1.524 . S
C1124 H1143 0.913 . S
C1125 H1101 0.950 . S
C1125 C1124 1.524 . S
C1125 C1126 1.415 . S
C1126 H1102 0.950 . S
C1126 C1121 1.363 . S
C1126 C1125 1.415 . S
C1127 H1103 0.951 1_655 S
C1127 C1128 1.366 . S
C1127 C1129 1.388 . S
C1128 C1127 1.366 . S
C1128 C1132 1.385 . S
C1129 H1104 0.951 . S
C1129 C1127 1.388 . S
C1129 C1130 1.366 . S
C1130 C1129 1.366 . S
C1130 C1131 1.414 . S
C1130 C1133 1.499 . S
C1131 H1105 0.950 . S
C1131 C1130 1.414 . S
C1131 C1132 1.374 . S
C1132 H1106 0.950 . S
C1132 C1128 1.385 . S
C1132 C1131 1.374 . S
C1133 C1130 1.499 . S
C1133 C1134 1.373 . S
C1133 C1135 1.389 . S
C1134 H1107 0.950 . S
C1134 C1120 1.377 . S
C1134 C1133 1.373 . S
C1135 C1119 1.377 . S
C1135 C1133 1.389 . S
C1135 C1136 1.524 . S
C1136 C1135 1.524 . S
C1136 C1137 1.397 . S
C1136 C1141 1.363 . S
C1137 H1108 0.950 . S
C1137 C1136 1.397 . S
C1137 C1138 1.334 . S
C1138 H1109 0.950 . S
C1138 C1137 1.334 . S
C1138 C1139 1.287 . S
C1139 C1138 1.287 . S
C1139 C1140 1.524 . S
C1139 H1142 0.999 1_655 S
C1140 H1110 0.950 1_655 S
C1140 C1139 1.524 . S
C1140 C1141 1.415 . S
C1141 H1111 0.950 . S
C1141 C1136 1.363 . S
C1141 C1140 1.415 . S
H1142 C1139 0.999 1_455 S
H1143 C1124 0.913 . S
H1144 C1162 0.951 . S
H1145 C1164 0.951 1_556 S
H1146 C1166 0.950 . S
H1147 C1167 0.950 . S
H1148 C1169 0.950 . S
H1149 C1172 0.950 . S
H1150 C1173 0.950 . S
H1151 C1175 0.950 . S
H1152 C1176 0.950 . S
H1153 C1177 0.951 . S
H1154 C1179 0.951 . S
H1155 C1181 0.950 . S
H1156 C1182 0.950 . S
H1157 C1184 0.950 . S
H1158 C1187 0.950 . S
H1159 C1188 0.950 . S
H1160 C1190 0.950 . S
H1161 C1191 0.950 . S
C1162 H1144 0.951 . S
C1162 C1163 1.366 1_556 S
C1162 C1164 1.388 1_556 S
C1163 C1162 1.366 1_554 S
C1163 C1167 1.385 . S
C1164 H1145 0.951 1_554 S
C1164 C1162 1.388 1_554 S
C1164 C1165 1.366 . S
C1165 C1164 1.366 . S
C1165 C1166 1.414 . S
C1165 C1168 1.499 . S
C1166 H1146 0.950 . S
C1166 C1165 1.414 . S
C1166 C1167 1.374 . S
C1167 H1147 0.950 . S
C1167 C1163 1.385 . S
C1167 C1166 1.374 . S
C1168 C1165 1.499 . S
C1168 C1169 1.373 . S
C1168 C1170 1.389 . S
C1169 H1148 0.950 . S
C1169 C1168 1.373 . S
C1169 C1185 1.377 . S
C1170 C1168 1.389 . S
C1170 C1171 1.524 . S
C1170 C1184 1.377 . S
C1171 C1170 1.524 . S
C1171 C1172 1.397 . S
C1171 C1176 1.363 1_554 S
C1172 H1149 0.950 . S
C1172 C1171 1.397 . S
C1172 C1173 1.334 1_554 S
C1173 H1150 0.950 . S
C1173 C1172 1.334 1_556 S
C1173 C1174 1.287 . S
C1174 C1173 1.287 . S
C1174 C1175 1.524 . S
C1174 H1193 0.913 . S
C1175 H1151 0.950 . S
C1175 C1174 1.524 . S
C1175 C1176 1.415 . S
C1176 H1152 0.950 . S
C1176 C1171 1.363 1_556 S
C1176 C1175 1.415 . S
C1177 H1153 0.951 . S
C1177 C1178 1.366 . S
C1177 C1179 1.388 . S
C1178 C1177 1.366 . S
C1178 C1182 1.385 . S
C1179 H1154 0.951 . S
C1179 C1177 1.388 . S
C1179 C1180 1.366 . S
C1180 C1179 1.366 . S
C1180 C1181 1.414 . S
C1180 C1183 1.499 . S
C1181 H1155 0.950 . S
C1181 C1180 1.414 . S
C1181 C1182 1.374 . S
C1182 H1156 0.950 . S
C1182 C1178 1.385 . S
C1182 C1181 1.374 . S
C1183 C1180 1.499 . S
C1183 C1184 1.373 . S
C1183 C1185 1.389 . S
C1184 H1157 0.950 . S
C1184 C1170 1.377 . S
C1184 C1183 1.373 . S
C1185 C1169 1.377 . S
C1185 C1183 1.389 . S
C1185 C1186 1.524 . S
C1186 C1185 1.524 . S
C1186 C1187 1.397 . S
C1186 C1191 1.363 . S
C1187 H1158 0.950 . S
C1187 C1186 1.397 . S
C1187 C1188 1.334 . S
C1188 H1159 0.950 . S
C1188 C1187 1.334 . S
C1188 C1189 1.287 . S
C1189 C1188 1.287 . S
C1189 C1190 1.524 . S
C1189 H1192 0.999 . S
C1190 H1160 0.950 . S
C1190 C1189 1.524 . S
C1190 C1191 1.415 . S
C1191 H1161 0.950 . S
C1191 C1186 1.363 . S
C1191 C1190 1.415 . S
H1192 C1189 0.999 . S
H1193 C1174 0.913 . S
H1194 C1212 0.951 . S
H1195 C1214 0.951 . S
H1196 C1216 0.950 . S
H1197 C1217 0.943 1_554 S
H1198 C1219 0.950 . S
H1199 C1222 0.950 . S
H1200 C1223 0.950 . S
H1201 C1225 0.950 . S
H1202 C1226 0.950 . S
H1203 C1227 0.951 . S
H1204 C1229 0.951 . S
H1205 C1231 0.950 . S
H1206 C1232 0.950 . S
H1207 C1234 0.950 . S
H1208 C1237 0.950 . S
H1209 C1238 0.950 . S
H1210 C1240 0.950 . S
H1211 C1241 0.950 . S
C1212 H1194 0.951 . S
C1212 C1213 1.366 . S
C1212 C1214 1.388 . S
C1213 C1212 1.366 . S
C1213 C1217 1.385 . S
C1214 H1195 0.951 . S
C1214 C1212 1.388 . S
C1214 C1215 1.366 . S
C1215 C1214 1.366 . S
C1215 C1216 1.414 . S
C1215 C1218 1.499 . S
C1216 H1196 0.950 . S
C1216 C1215 1.414 . S
C1216 C1217 1.374 . S
C1217 H1197 0.943 1_556 S
C1217 C1213 1.385 . S
C1217 C1216 1.374 . S
C1218 C1215 1.499 . S
C1218 C1219 1.373 . S
C1218 C1220 1.389 . S
C1219 H1198 0.950 . S
C1219 C1218 1.373 . S
C1219 C1235 1.377 . S
C1220 C1218 1.389 . S
C1220 C1221 1.524 . S
C1220 C1234 1.377 . S
C1221 C1220 1.524 . S
C1221 C1222 1.397 1_556 S
C1221 C1226 1.363 . S
C1222 H1199 0.950 . S
C1222 C1221 1.397 1_554 S
C1222 C1223 1.334 . S
C1223 H1200 0.950 . S
C1223 C1222 1.334 . S
C1223 C1224 1.287 . S
C1224 C1223 1.287 . S
C1224 C1225 1.524 1_554 S
C1224 H1243 0.913 . S
C1225 H1201 0.950 . S
C1225 C1224 1.524 1_556 S
C1225 C1226 1.415 . S
C1226 H1202 0.950 . S
C1226 C1221 1.363 . S
C1226 C1225 1.415 . S
C1227 H1203 0.951 . S
C1227 C1228 1.366 . S
C1227 C1229 1.388 . S
C1228 C1227 1.366 . S
C1228 C1232 1.385 . S
C1229 H1204 0.951 . S
C1229 C1227 1.388 . S
C1229 C1230 1.366 . S
C1230 C1229 1.366 . S
C1230 C1231 1.414 . S
C1230 C1233 1.499 . S
C1231 H1205 0.950 . S
C1231 C1230 1.414 . S
C1231 C1232 1.374 . S
C1232 H1206 0.950 . S
C1232 C1228 1.385 . S
C1232 C1231 1.374 . S
C1233 C1230 1.499 . S
C1233 C1234 1.373 . S
C1233 C1235 1.389 . S
C1234 H1207 0.950 . S
C1234 C1220 1.377 . S
C1234 C1233 1.373 . S
C1235 C1219 1.377 . S
C1235 C1233 1.389 . S
C1235 C1236 1.524 . S
C1236 C1235 1.524 . S
C1236 C1237 1.397 . S
C1236 C1241 1.363 . S
C1237 H1208 0.950 . S
C1237 C1236 1.397 . S
C1237 C1238 1.334 . S
C1238 H1209 0.950 . S
C1238 C1237 1.334 . S
C1238 C1239 1.287 . S
C1239 C1238 1.287 . S
C1239 C1240 1.524 . S
C1239 H1242 0.999 . S
C1240 H1210 0.950 . S
C1240 C1239 1.524 . S
C1240 C1241 1.415 . S
C1241 H1211 0.950 . S
C1241 C1236 1.363 . S
C1241 C1240 1.415 . S
H1242 C1239 0.999 . S
H1243 C1224 0.913 . S
H1244 C1262 0.951 . S
H1245 C1264 0.951 . S
H1246 C1266 0.950 . S
H1247 C1267 0.950 . S
H1248 C1269 0.950 . S
H1249 C1272 0.950 . S
H1250 C1273 0.950 . S
H1251 C1275 0.950 . S
H1252 C1276 0.950 . S
H1253 C1277 0.951 . S
H1254 C1279 0.951 . S
H1255 C1281 0.950 . S
H1256 C1282 0.950 . S
H1257 C1284 0.950 . S
H1258 C1287 0.950 . S
H1259 C1288 0.950 . S
H1260 C1290 0.950 . S
H1261 C1291 0.950 . S
C1262 H1244 0.951 . S
C1262 C1263 1.366 . S
C1262 C1264 1.388 . S
C1263 C1262 1.366 . S
C1263 C1267 1.385 . S
C1264 H1245 0.951 . S
C1264 C1262 1.388 . S
C1264 C1265 1.366 . S
C1265 C1264 1.366 . S
C1265 C1266 1.414 . S
C1265 C1268 1.499 . S
C1266 H1246 0.950 . S
C1266 C1265 1.414 . S
C1266 C1267 1.374 . S
C1267 H1247 0.950 . S
C1267 C1263 1.385 . S
C1267 C1266 1.374 . S
C1268 C1265 1.499 . S
C1268 C1269 1.373 . S
C1268 C1270 1.389 . S
C1269 H1248 0.950 . S
C1269 C1268 1.373 . S
C1269 C1285 1.377 . S
C1270 C1268 1.389 . S
C1270 C1271 1.524 . S
C1270 C1284 1.377 . S
C1271 C1270 1.524 . S
C1271 C1272 1.397 . S
C1271 C1276 1.363 . S
C1272 H1249 0.950 . S
C1272 C1271 1.397 . S
C1272 C1273 1.334 . S
C1273 H1250 0.950 . S
C1273 C1272 1.334 . S
C1273 C1274 1.287 . S
C1274 C1273 1.287 . S
C1274 C1275 1.524 . S
C1274 H1293 0.913 . S
C1275 H1251 0.950 . S
C1275 C1274 1.524 . S
C1275 C1276 1.415 . S
C1276 H1252 0.950 . S
C1276 C1271 1.363 . S
C1276 C1275 1.415 . S
C1277 H1253 0.951 . S
C1277 C1278 1.366 . S
C1277 C1279 1.388 . S
C1278 C1277 1.366 . S
C1278 C1282 1.385 . S
C1279 H1254 0.951 . S
C1279 C1277 1.388 . S
C1279 C1280 1.366 . S
C1280 C1279 1.366 . S
C1280 C1281 1.414 . S
C1280 C1283 1.499 . S
C1281 H1255 0.950 . S
C1281 C1280 1.414 . S
C1281 C1282 1.374 . S
C1282 H1256 0.950 . S
C1282 C1278 1.385 . S
C1282 C1281 1.374 . S
C1283 C1280 1.499 . S
C1283 C1284 1.373 . S
C1283 C1285 1.389 . S
C1284 H1257 0.950 . S
C1284 C1270 1.377 . S
C1284 C1283 1.373 . S
C1285 C1269 1.377 . S
C1285 C1283 1.389 . S
C1285 C1286 1.524 . S
C1286 C1285 1.524 . S
C1286 C1287 1.397 . S
C1286 C1291 1.363 . S
C1287 H1258 0.950 . S
C1287 C1286 1.397 . S
C1287 C1288 1.334 . S
C1288 H1259 0.950 . S
C1288 C1287 1.334 . S
C1288 C1289 1.287 . S
C1289 C1288 1.287 . S
C1289 C1290 1.524 . S
C1289 H1292 0.999 . S
C1290 H1260 0.950 . S
C1290 C1289 1.524 . S
C1290 C1291 1.415 . S
C1291 H1261 0.950 . S
C1291 C1286 1.363 . S
C1291 C1290 1.415 . S
H1292 C1289 0.999 . S
H1293 C1274 0.913 . S
H1294 C1312 0.951 . S
H1295 C1314 0.951 . S
H1296 C1316 0.950 . S
H1297 C1317 0.950 . S
H1298 C1319 0.950 . S
H1299 C1322 0.950 . S
H1300 C1323 0.950 . S
H1301 C1325 0.950 . S
H1302 C1326 0.950 . S
H1303 C1327 0.951 . S
H1304 C1329 0.951 . S
H1305 C1331 0.950 . S
H1306 C1332 0.950 . S
H1307 C1334 0.950 . S
H1308 C1337 0.950 . S
H1309 C1338 0.950 . S
H1310 C1340 0.950 . S
H1311 C1341 0.950 . S
C1312 H1294 0.951 . S
C1312 C1313 1.366 . S
C1312 C1314 1.388 . S
C1313 C1312 1.366 . S
C1313 C1317 1.385 . S
C1314 H1295 0.951 . S
C1314 C1312 1.388 . S
C1314 C1315 1.366 . S
C1315 C1314 1.366 . S
C1315 C1316 1.414 . S
C1315 C1318 1.499 . S
C1316 H1296 0.950 . S
C1316 C1315 1.414 . S
C1316 C1317 1.374 . S
C1317 H1297 0.950 . S
C1317 C1313 1.385 . S
C1317 C1316 1.374 . S
C1318 C1315 1.499 . S
C1318 C1319 1.373 . S
C1318 C1320 1.389 . S
C1319 H1298 0.950 . S
C1319 C1318 1.373 . S
C1319 C1335 1.377 . S
C1320 C1318 1.389 . S
C1320 C1321 1.524 . S
C1320 C1334 1.377 . S
C1321 C1320 1.524 . S
C1321 C1322 1.397 . S
C1321 C1326 1.363 . S
C1322 H1299 0.950 . S
C1322 C1321 1.397 . S
C1322 C1323 1.334 . S
C1323 H1300 0.950 . S
C1323 C1322 1.334 . S
C1323 C1324 1.287 . S
C1324 C1323 1.287 . S
C1324 C1325 1.524 . S
C1324 H1343 0.913 . S
C1325 H1301 0.950 . S
C1325 C1324 1.524 . S
C1325 C1326 1.415 . S
C1326 H1302 0.950 . S
C1326 C1321 1.363 . S
C1326 C1325 1.415 . S
C1327 H1303 0.951 . S
C1327 C1328 1.366 . S
C1327 C1329 1.388 . S
C1328 C1327 1.366 . S
C1328 C1332 1.385 . S
C1329 H1304 0.951 . S
C1329 C1327 1.388 . S
C1329 C1330 1.366 . S
C1330 C1329 1.366 . S
C1330 C1331 1.414 . S
C1330 C1333 1.499 . S
C1331 H1305 0.950 . S
C1331 C1330 1.414 . S
C1331 C1332 1.374 . S
C1332 H1306 0.950 . S
C1332 C1328 1.385 . S
C1332 C1331 1.374 . S
C1333 C1330 1.499 . S
C1333 C1334 1.373 . S
C1333 C1335 1.389 . S
C1334 H1307 0.950 . S
C1334 C1320 1.377 . S
C1334 C1333 1.373 . S
C1335 C1319 1.377 . S
C1335 C1333 1.389 . S
C1335 C1336 1.524 . S
C1336 C1335 1.524 . S
C1336 C1337 1.397 . S
C1336 C1341 1.363 . S
C1337 H1308 0.950 . S
C1337 C1336 1.397 . S
C1337 C1338 1.334 . S
C1338 H1309 0.950 . S
C1338 C1337 1.334 . S
C1338 C1339 1.287 . S
C1339 C1338 1.287 . S
C1339 C1340 1.524 . S
C1339 H1342 0.999 . S
C1340 H1310 0.950 . S
C1340 C1339 1.524 . S
C1340 C1341 1.415 . S
C1341 H1311 0.950 . S
C1341 C1336 1.363 . S
C1341 C1340 1.415 . S
H1342 C1339 0.999 . S
H1343 C1324 0.913 . S
H1344 C1362 0.951 . S
H1345 C1364 0.951 . S
H1346 C1366 0.950 . S
H1347 C1367 0.950 . S
H1348 C1369 0.950 . S
H1349 C1372 0.966 . S
H1350 C1373 0.950 . S
H1351 C1375 0.950 . S
H1352 C1376 0.950 . S
H1353 C1377 0.951 . S
H1354 C1379 0.951 . S
H1355 C1381 0.950 . S
H1356 C1382 0.950 . S
H1357 C1384 0.950 . S
H1358 C1387 0.950 . S
H1359 C1388 0.950 . S
H1360 C1390 0.950 . S
H1361 C1391 0.950 . S
C1362 H1344 0.951 . S
C1362 C1363 1.366 . S
C1362 C1364 1.388 . S
C1363 C1362 1.366 . S
C1363 C1367 1.385 . S
C1364 H1345 0.951 . S
C1364 C1362 1.388 . S
C1364 C1365 1.366 . S
C1365 C1364 1.366 . S
C1365 C1366 1.414 . S
C1365 C1368 1.499 . S
C1366 H1346 0.950 . S
C1366 C1365 1.414 . S
C1366 C1367 1.374 . S
C1367 H1347 0.950 . S
C1367 C1363 1.385 . S
C1367 C1366 1.374 . S
C1368 C1365 1.499 . S
C1368 C1369 1.373 . S
C1368 C1370 1.389 1_554 S
C1369 H1348 0.950 . S
C1369 C1368 1.373 . S
C1369 C1385 1.377 1_545 S
C1370 C1368 1.389 1_556 S
C1370 C1371 1.524 . S
C1370 C1384 1.377 1_545 S
C1371 C1370 1.524 . S
C1371 C1372 1.422 1_556 S
C1371 C1376 1.363 . S
C1372 H1349 0.966 . S
C1372 C1371 1.422 1_554 S
C1372 C1373 1.295 1_455 S
C1373 H1350 0.950 . S
C1373 C1372 1.295 1_655 S
C1373 C1374 1.287 1_554 S
C1374 C1373 1.287 1_556 S
C1374 C1375 1.524 . S
C1374 H1393 0.913 . S
C1375 H1351 0.950 . S
C1375 C1374 1.524 . S
C1375 C1376 1.415 1_655 S
C1376 H1352 0.950 . S
C1376 C1371 1.363 . S
C1376 C1375 1.415 1_455 S
C1377 H1353 0.951 . S
C1377 C1378 1.366 . S
C1377 C1379 1.388 . S
C1378 C1377 1.366 . S
C1378 C1382 1.385 . S
C1379 H1354 0.951 . S
C1379 C1377 1.388 . S
C1379 C1380 1.366 . S
C1380 C1379 1.366 . S
C1380 C1381 1.414 . S
C1380 C1383 1.499 . S
C1381 H1355 0.950 . S
C1381 C1380 1.414 . S
C1381 C1382 1.374 . S
C1382 H1356 0.950 . S
C1382 C1378 1.385 . S
C1382 C1381 1.374 . S
C1383 C1380 1.499 . S
C1383 C1384 1.373 . S
C1383 C1385 1.389 1_556 S
C1384 H1357 0.950 . S
C1384 C1370 1.377 1_565 S
C1384 C1383 1.373 . S
C1385 C1369 1.377 1_565 S
C1385 C1383 1.389 1_554 S
C1385 C1386 1.524 . S
C1386 C1385 1.524 . S
C1386 C1387 1.397 1_554 S
C1386 C1391 1.363 . S
C1387 H1358 0.950 . S
C1387 C1386 1.397 1_556 S
C1387 C1388 1.334 . S
C1388 H1359 0.950 . S
C1388 C1387 1.334 . S
C1388 C1389 1.287 1_556 S
C1389 C1388 1.287 1_554 S
C1389 C1390 1.524 . S
C1389 H1392 0.999 . S
C1390 H1360 0.950 . S
C1390 C1389 1.524 . S
C1390 C1391 1.415 . S
C1391 H1361 0.950 . S
C1391 C1386 1.363 . S
C1391 C1390 1.415 . S
H1392 C1389 0.999 . S
H1393 C1374 0.913 . S
H1394 C1412 0.951 . S
H1395 C1414 0.951 . S
H1396 C1416 0.950 . S
H1397 C1417 0.950 . S
H1398 C1419 0.950 . S
H1399 C1422 0.950 . S
H1400 C1423 0.950 1_556 S
H1401 C1425 0.950 . S
H1402 C1426 0.950 . S
H1403 C1427 0.951 . S
H1404 C1429 0.951 . S
H1405 C1431 0.950 . S
H1406 C1432 0.950 . S
H1407 C1434 0.950 . S
H1408 C1437 0.950 . S
H1409 C1438 0.950 . S
H1410 C1440 0.950 . S
H1411 C1441 0.950 . S
C1412 H1394 0.951 . S
C1412 C1413 1.366 . S
C1412 C1414 1.388 . S
C1413 C1412 1.366 . S
C1413 C1417 1.385 . S
C1414 H1395 0.951 . S
C1414 C1412 1.388 . S
C1414 C1415 1.366 . S
C1415 C1414 1.366 . S
C1415 C1416 1.414 . S
C1415 C1418 1.499 . S
C1416 H1396 0.950 . S
C1416 C1415 1.414 . S
C1416 C1417 1.374 . S
C1417 H1397 0.950 . S
C1417 C1413 1.385 . S
C1417 C1416 1.374 . S
C1418 C1415 1.499 . S
C1418 C1419 1.373 . S
C1418 C1420 1.389 . S
C1419 H1398 0.950 . S
C1419 C1418 1.373 . S
C1419 C1435 1.377 . S
C1420 C1418 1.389 . S
C1420 C1421 1.524 . S
C1420 C1434 1.377 . S
C1421 C1420 1.524 . S
C1421 C1422 1.397 . S
C1421 C1426 1.363 . S
C1422 H1399 0.950 . S
C1422 C1421 1.397 . S
C1422 C1423 1.334 . S
C1423 H1400 0.950 1_554 S
C1423 C1422 1.334 . S
C1423 C1424 1.287 . S
C1424 C1423 1.287 . S
C1424 C1425 1.524 . S
C1424 H1443 0.913 1_554 S
C1425 H1401 0.950 . S
C1425 C1424 1.524 . S
C1425 C1426 1.415 . S
C1426 H1402 0.950 . S
C1426 C1421 1.363 . S
C1426 C1425 1.415 . S
C1427 H1403 0.951 . S
C1427 C1428 1.366 . S
C1427 C1429 1.388 . S
C1428 C1427 1.366 . S
C1428 C1432 1.385 . S
C1429 H1404 0.951 . S
C1429 C1427 1.388 . S
C1429 C1430 1.366 . S
C1430 C1429 1.366 . S
C1430 C1431 1.414 . S
C1430 C1433 1.499 . S
C1431 H1405 0.950 . S
C1431 C1430 1.414 . S
C1431 C1432 1.374 . S
C1432 H1406 0.950 . S
C1432 C1428 1.385 . S
C1432 C1431 1.374 . S
C1433 C1430 1.499 . S
C1433 C1434 1.373 . S
C1433 C1435 1.389 . S
C1434 H1407 0.950 . S
C1434 C1420 1.377 . S
C1434 C1433 1.373 . S
C1435 C1419 1.377 . S
C1435 C1433 1.389 . S
C1435 C1436 1.524 . S
C1436 C1435 1.524 . S
C1436 C1437 1.397 . S
C1436 C1441 1.363 . S
C1437 H1408 0.950 . S
C1437 C1436 1.397 . S
C1437 C1438 1.334 . S
C1438 H1409 0.950 . S
C1438 C1437 1.334 . S
C1438 C1439 1.287 . S
C1439 C1438 1.287 . S
C1439 C1440 1.524 . S
C1439 H1442 0.999 . S
C1440 H1410 0.950 . S
C1440 C1439 1.524 . S
C1440 C1441 1.415 . S
C1441 H1411 0.950 . S
C1441 C1436 1.363 . S
C1441 C1440 1.415 . S
H1442 C1439 0.999 . S
H1443 C1424 0.913 1_556 S
H1444 C1462 0.951 . S
H1445 C1464 0.951 . S
H1446 C1466 0.950 . S
H1447 C1467 0.950 . S
H1448 C1469 0.950 . S
H1449 C1472 0.950 . S
H1450 C1473 0.950 . S
H1451 C1475 0.950 . S
H1452 C1476 0.950 . S
H1453 C1477 0.951 . S
H1454 C1479 0.951 . S
H1455 C1481 0.950 . S
H1456 C1482 0.950 . S
H1457 C1484 0.950 . S
H1458 C1487 0.950 . S
H1459 C1488 0.950 . S
H1460 C1490 0.950 . S
H1461 C1491 0.950 . S
C1462 H1444 0.951 . S
C1462 C1463 1.366 . S
C1462 C1464 1.388 . S
C1463 C1462 1.366 . S
C1463 C1467 1.385 . S
C1464 H1445 0.951 . S
C1464 C1462 1.388 . S
C1464 C1465 1.366 . S
C1465 C1464 1.366 . S
C1465 C1466 1.414 . S
C1465 C1468 1.499 . S
C1466 H1446 0.950 . S
C1466 C1465 1.414 . S
C1466 C1467 1.374 . S
C1467 H1447 0.950 . S
C1467 C1463 1.385 . S
C1467 C1466 1.374 . S
C1468 C1465 1.499 . S
C1468 C1469 1.373 . S
C1468 C1470 1.389 . S
C1469 H1448 0.950 . S
C1469 C1468 1.373 . S
C1469 C1485 1.377 1_545 S
C1470 C1468 1.389 . S
C1470 C1471 1.524 . S
C1470 C1484 1.377 1_545 S
C1471 C1470 1.524 . S
C1471 C1472 1.397 . S
C1471 C1476 1.363 . S
C1472 H1449 0.950 . S
C1472 C1471 1.397 . S
C1472 C1473 1.334 . S
C1473 H1450 0.950 . S
C1473 C1472 1.334 . S
C1473 C1474 1.287 . S
C1474 C1473 1.287 . S
C1474 C1475 1.524 . S
C1474 H1493 0.913 . S
C1475 H1451 0.950 . S
C1475 C1474 1.524 . S
C1475 C1476 1.415 . S
C1476 H1452 0.950 . S
C1476 C1471 1.363 . S
C1476 C1475 1.415 . S
C1477 H1453 0.951 . S
C1477 C1478 1.366 . S
C1477 C1479 1.388 . S
C1478 C1477 1.366 . S
C1478 C1482 1.385 . S
C1479 H1454 0.951 . S
C1479 C1477 1.388 . S
C1479 C1480 1.366 . S
C1480 C1479 1.366 . S
C1480 C1481 1.414 . S
C1480 C1483 1.499 . S
C1481 H1455 0.950 . S
C1481 C1480 1.414 . S
C1481 C1482 1.374 . S
C1482 H1456 0.950 . S
C1482 C1478 1.385 . S
C1482 C1481 1.374 . S
C1483 C1480 1.499 . S
C1483 C1484 1.373 . S
C1483 C1485 1.389 . S
C1484 H1457 0.950 . S
C1484 C1470 1.377 1_565 S
C1484 C1483 1.373 . S
C1485 C1469 1.377 1_565 S
C1485 C1483 1.389 . S
C1485 C1486 1.524 . S
C1486 C1485 1.524 . S
C1486 C1487 1.397 . S
C1486 C1491 1.363 . S
C1487 H1458 0.950 . S
C1487 C1486 1.397 . S
C1487 C1488 1.334 . S
C1488 H1459 0.950 . S
C1488 C1487 1.334 . S
C1488 C1489 1.287 . S
C1489 C1488 1.287 . S
C1489 C1490 1.524 . S
C1489 H1492 0.999 . S
C1490 H1460 0.950 . S
C1490 C1489 1.524 . S
C1490 C1491 1.415 . S
C1491 H1461 0.950 . S
C1491 C1486 1.363 . S
C1491 C1490 1.415 . S
H1492 C1489 0.999 . S
H1493 C1474 0.913 . S
H1494 C1512 0.951 . S
H1495 C1514 0.951 . S
H1496 C1516 0.950 . S
H1497 C1517 0.950 . S
H1498 C1519 0.950 . S
H1499 C1522 0.950 . S
H1500 C1523 0.950 . S
H1501 C1525 0.950 . S
H1502 C1526 0.950 . S
H1503 C1527 0.951 . S
H1504 C1529 0.951 . S
H1505 C1531 0.950 . S
H1506 C1532 0.950 . S
H1507 C1534 0.950 . S
H1508 C1537 0.950 . S
H1509 C1538 0.950 . S
H1510 C1540 0.950 . S
H1511 C1541 0.950 . S
C1512 H1494 0.951 . S
C1512 C1513 1.366 . S
C1512 C1514 1.388 . S
C1513 C1512 1.366 . S
C1513 C1517 1.385 . S
C1514 H1495 0.951 . S
C1514 C1512 1.388 . S
C1514 C1515 1.366 . S
C1515 C1514 1.366 . S
C1515 C1516 1.414 . S
C1515 C1518 1.499 . S
C1516 H1496 0.950 . S
C1516 C1515 1.414 . S
C1516 C1517 1.374 . S
C1517 H1497 0.950 . S
C1517 C1513 1.385 . S
C1517 C1516 1.374 . S
C1518 C1515 1.499 . S
C1518 C1519 1.373 . S
C1518 C1520 1.389 . S
C1519 H1498 0.950 . S
C1519 C1518 1.373 . S
C1519 C1535 1.377 . S
C1520 C1518 1.389 . S
C1520 C1521 1.524 . S
C1520 C1534 1.377 . S
C1521 C1520 1.524 . S
C1521 C1522 1.397 . S
C1521 C1526 1.363 . S
C1522 H1499 0.950 . S
C1522 C1521 1.397 . S
C1522 C1523 1.334 . S
C1523 H1500 0.950 . S
C1523 C1522 1.334 . S
C1523 C1524 1.287 . S
C1524 C1523 1.287 . S
C1524 C1525 1.524 . S
C1524 H1543 0.913 . S
C1525 H1501 0.950 . S
C1525 C1524 1.524 . S
C1525 C1526 1.415 . S
C1526 H1502 0.950 . S
C1526 C1521 1.363 . S
C1526 C1525 1.415 . S
C1527 H1503 0.951 . S
C1527 C1528 1.366 . S
C1527 C1529 1.388 . S
C1528 C1527 1.366 . S
C1528 C1532 1.385 . S
C1529 H1504 0.951 . S
C1529 C1527 1.388 . S
C1529 C1530 1.366 . S
C1530 C1529 1.366 . S
C1530 C1531 1.414 . S
C1530 C1533 1.499 . S
C1531 H1505 0.950 . S
C1531 C1530 1.414 . S
C1531 C1532 1.374 . S
C1532 H1506 0.950 . S
C1532 C1528 1.385 . S
C1532 C1531 1.374 . S
C1533 C1530 1.499 . S
C1533 C1534 1.373 . S
C1533 C1535 1.389 . S
C1534 H1507 0.950 . S
C1534 C1520 1.377 . S
C1534 C1533 1.373 . S
C1535 C1519 1.377 . S
C1535 C1533 1.389 . S
C1535 C1536 1.524 . S
C1536 C1535 1.524 . S
C1536 C1537 1.397 . S
C1536 C1541 1.363 . S
C1537 H1508 0.950 . S
C1537 C1536 1.397 . S
C1537 C1538 1.334 . S
C1538 H1509 0.950 . S
C1538 C1537 1.334 . S
C1538 C1539 1.287 . S
C1539 C1538 1.287 . S
C1539 C1540 1.524 . S
C1539 H1542 0.999 . S
C1540 H1510 0.950 . S
C1540 C1539 1.524 . S
C1540 C1541 1.415 . S
C1541 H1511 0.950 . S
C1541 C1536 1.363 . S
C1541 C1540 1.415 . S
H1542 C1539 0.999 . S
H1543 C1524 0.913 . S
H1544 C1562 0.951 . S
H1545 C1564 0.951 . S
H1546 C1566 0.950 . S
H1547 C1567 0.950 . S
H1548 C1569 0.950 . S
H1549 C1572 0.950 . S
H1550 C1573 0.950 . S
H1551 C1575 0.950 . S
H1552 C1576 0.950 . S
H1553 C1577 0.951 . S
H1554 C1579 0.951 . S
H1555 C1581 0.950 . S
H1556 C1582 0.950 . S
H1557 C1584 0.950 . S
H1558 C1587 0.950 . S
H1559 C1588 0.950 . S
H1560 C1590 0.950 . S
H1561 C1591 0.950 . S
C1562 H1544 0.951 . S
C1562 C1563 1.366 . S
C1562 C1564 1.388 . S
C1563 C1562 1.366 . S
C1563 C1567 1.385 . S
C1564 H1545 0.951 . S
C1564 C1562 1.388 . S
C1564 C1565 1.366 . S
C1565 C1564 1.366 . S
C1565 C1566 1.414 . S
C1565 C1568 1.499 . S
C1566 H1546 0.950 . S
C1566 C1565 1.414 . S
C1566 C1567 1.374 . S
C1567 H1547 0.950 . S
C1567 C1563 1.385 . S
C1567 C1566 1.374 . S
C1568 C1565 1.499 . S
C1568 C1569 1.373 . S
C1568 C1570 1.389 . S
C1569 H1548 0.950 . S
C1569 C1568 1.373 . S
C1569 C1585 1.377 . S
C1570 C1568 1.389 . S
C1570 C1571 1.524 . S
C1570 C1584 1.377 . S
C1571 C1570 1.524 . S
C1571 C1572 1.397 . S
C1571 C1576 1.363 . S
C1572 H1549 0.950 . S
C1572 C1571 1.397 . S
C1572 C1573 1.334 . S
C1573 H1550 0.950 . S
C1573 C1572 1.334 . S
C1573 C1574 1.287 . S
C1574 C1573 1.287 . S
C1574 C1575 1.524 . S
C1574 H1593 0.913 . S
C1575 H1551 0.950 . S
C1575 C1574 1.524 . S
C1575 C1576 1.415 . S
C1576 H1552 0.950 . S
C1576 C1571 1.363 . S
C1576 C1575 1.415 . S
C1577 H1553 0.951 . S
C1577 C1578 1.366 . S
C1577 C1579 1.388 . S
C1578 C1577 1.366 . S
C1578 C1582 1.385 . S
C1579 H1554 0.951 . S
C1579 C1577 1.388 . S
C1579 C1580 1.366 . S
C1580 C1579 1.366 . S
C1580 C1581 1.414 . S
C1580 C1583 1.499 . S
C1581 H1555 0.950 . S
C1581 C1580 1.414 . S
C1581 C1582 1.374 . S
C1582 H1556 0.950 . S
C1582 C1578 1.385 . S
C1582 C1581 1.374 . S
C1583 C1580 1.499 . S
C1583 C1584 1.373 . S
C1583 C1585 1.389 . S
C1584 H1557 0.950 . S
C1584 C1570 1.377 . S
C1584 C1583 1.373 . S
C1585 C1569 1.377 . S
C1585 C1583 1.389 . S
C1585 C1586 1.524 . S
C1586 C1585 1.524 . S
C1586 C1587 1.397 . S
C1586 C1591 1.363 . S
C1587 H1558 0.950 . S
C1587 C1586 1.397 . S
C1587 C1588 1.334 . S
C1588 H1559 0.950 . S
C1588 C1587 1.334 . S
C1588 C1589 1.287 . S
C1589 C1588 1.287 . S
C1589 C1590 1.524 . S
C1589 H1592 0.999 . S
C1590 H1560 0.950 . S
C1590 C1589 1.524 . S
C1590 C1591 1.415 . S
C1591 H1561 0.950 . S
C1591 C1586 1.363 . S
C1591 C1590 1.415 . S
H1592 C1589 0.999 . S
H1593 C1574 0.913 . S
H1594 C1612 0.951 . S
H1595 C1614 0.951 . S
H1596 C1616 0.950 . S
H1597 C1617 0.950 . S
H1598 C1619 0.950 . S
H1599 C1622 0.950 . S
H1600 C1623 0.950 . S
H1601 C1625 0.950 . S
H1602 C1626 0.950 . S
H1603 C1627 0.951 . S
H1604 C1629 0.951 . S
H1605 C1631 0.950 . S
H1606 C1632 0.950 . S
H1607 C1634 0.950 . S
H1608 C1637 0.950 . S
H1609 C1638 0.950 . S
H1610 C1640 0.950 . S
H1611 C1641 0.950 . S
C1612 H1594 0.951 . S
C1612 C1613 1.366 . S
C1612 C1614 1.388 . S
C1613 C1612 1.366 . S
C1613 C1617 1.385 . S
C1614 H1595 0.951 . S
C1614 C1612 1.388 . S
C1614 C1615 1.366 . S
C1615 C1614 1.366 . S
C1615 C1616 1.414 . S
C1615 C1618 1.499 . S
C1616 H1596 0.950 . S
C1616 C1615 1.414 . S
C1616 C1617 1.374 . S
C1617 H1597 0.950 . S
C1617 C1613 1.385 . S
C1617 C1616 1.374 . S
C1618 C1615 1.499 . S
C1618 C1619 1.373 . S
C1618 C1620 1.389 . S
C1619 H1598 0.950 . S
C1619 C1618 1.373 . S
C1619 C1635 1.377 . S
C1620 C1618 1.389 . S
C1620 C1621 1.524 . S
C1620 C1634 1.377 . S
C1621 C1620 1.524 . S
C1621 C1622 1.397 . S
C1621 C1626 1.363 . S
C1622 H1599 0.950 . S
C1622 C1621 1.397 . S
C1622 C1623 1.334 . S
C1623 H1600 0.950 . S
C1623 C1622 1.334 . S
C1623 C1624 1.287 . S
C1624 C1623 1.287 . S
C1624 C1625 1.524 . S
C1624 H1643 0.913 . S
C1625 H1601 0.950 . S
C1625 C1624 1.524 . S
C1625 C1626 1.415 . S
C1626 H1602 0.950 . S
C1626 C1621 1.363 . S
C1626 C1625 1.415 . S
C1627 H1603 0.951 . S
C1627 C1628 1.366 . S
C1627 C1629 1.388 . S
C1628 C1627 1.366 . S
C1628 C1632 1.385 . S
C1629 H1604 0.951 . S
C1629 C1627 1.388 . S
C1629 C1630 1.366 . S
C1630 C1629 1.366 . S
C1630 C1631 1.414 . S
C1630 C1633 1.499 . S
C1631 H1605 0.950 . S
C1631 C1630 1.414 . S
C1631 C1632 1.374 . S
C1632 H1606 0.950 . S
C1632 C1628 1.385 . S
C1632 C1631 1.374 . S
C1633 C1630 1.499 . S
C1633 C1634 1.373 . S
C1633 C1635 1.389 . S
C1634 H1607 0.950 . S
C1634 C1620 1.377 . S
C1634 C1633 1.373 . S
C1635 C1619 1.377 . S
C1635 C1633 1.389 . S
C1635 C1636 1.524 . S
C1636 C1635 1.524 . S
C1636 C1637 1.397 . S
C1636 C1641 1.363 . S
C1637 H1608 0.950 . S
C1637 C1636 1.397 . S
C1637 C1638 1.334 . S
C1638 H1609 0.950 . S
C1638 C1637 1.334 . S
C1638 C1639 1.287 . S
C1639 C1638 1.287 . S
C1639 C1640 1.524 . S
C1639 H1642 0.999 . S
C1640 H1610 0.950 . S
C1640 C1639 1.524 . S
C1640 C1641 1.415 . S
C1641 H1611 0.950 . S
C1641 C1636 1.363 . S
C1641 C1640 1.415 . S
H1642 C1639 0.999 . S
H1643 C1624 0.913 . S
H1644 C1662 0.951 . S
H1645 C1664 0.951 . S
H1646 C1666 0.950 . S
H1647 C1667 0.950 . S
H1648 C1669 0.950 . S
H1649 C1672 0.950 . S
H1650 C1673 0.950 . S
H1651 C1675 0.950 . S
H1652 C1676 0.950 . S
H1653 C1677 0.951 . S
H1654 C1679 0.951 . S
H1655 C1681 0.950 . S
H1656 C1682 0.950 . S
H1657 C1684 0.950 . S
H1658 C1687 0.950 . S
H1659 C1688 0.950 . S
H1660 C1690 0.950 . S
H1661 C1691 0.950 . S
C1662 H1644 0.951 . S
C1662 C1663 1.366 . S
C1662 C1664 1.388 . S
C1663 C1662 1.366 . S
C1663 C1667 1.385 . S
C1664 H1645 0.951 . S
C1664 C1662 1.388 . S
C1664 C1665 1.366 . S
C1665 C1664 1.366 . S
C1665 C1666 1.414 . S
C1665 C1668 1.499 . S
C1666 H1646 0.950 . S
C1666 C1665 1.414 . S
C1666 C1667 1.374 . S
C1667 H1647 0.950 . S
C1667 C1663 1.385 . S
C1667 C1666 1.374 . S
C1668 C1665 1.499 . S
C1668 C1669 1.373 . S
C1668 C1670 1.389 . S
C1669 H1648 0.950 . S
C1669 C1668 1.373 . S
C1669 C1685 1.377 . S
C1670 C1668 1.389 . S
C1670 C1671 1.524 . S
C1670 C1684 1.377 . S
C1671 C1670 1.524 . S
C1671 C1672 1.397 . S
C1671 C1676 1.363 . S
C1672 H1649 0.950 . S
C1672 C1671 1.397 . S
C1672 C1673 1.334 . S
C1673 H1650 0.950 . S
C1673 C1672 1.334 . S
C1673 C1674 1.287 . S
C1674 C1673 1.287 . S
C1674 C1675 1.524 . S
C1674 H1693 0.913 . S
C1675 H1651 0.950 . S
C1675 C1674 1.524 . S
C1675 C1676 1.415 . S
C1676 H1652 0.950 . S
C1676 C1671 1.363 . S
C1676 C1675 1.415 . S
C1677 H1653 0.951 . S
C1677 C1678 1.366 . S
C1677 C1679 1.388 . S
C1678 C1677 1.366 . S
C1678 C1682 1.385 . S
C1679 H1654 0.951 . S
C1679 C1677 1.388 . S
C1679 C1680 1.366 . S
C1680 C1679 1.366 . S
C1680 C1681 1.414 . S
C1680 C1683 1.499 . S
C1681 H1655 0.950 . S
C1681 C1680 1.414 . S
C1681 C1682 1.374 . S
C1682 H1656 0.950 . S
C1682 C1678 1.385 . S
C1682 C1681 1.374 . S
C1683 C1680 1.499 . S
C1683 C1684 1.373 . S
C1683 C1685 1.389 . S
C1684 H1657 0.950 . S
C1684 C1670 1.377 . S
C1684 C1683 1.373 . S
C1685 C1669 1.377 . S
C1685 C1683 1.389 . S
C1685 C1686 1.524 . S
C1686 C1685 1.524 . S
C1686 C1687 1.397 . S
C1686 C1691 1.363 . S
C1687 H1658 0.950 . S
C1687 C1686 1.397 . S
C1687 C1688 1.334 . S
C1688 H1659 0.950 . S
C1688 C1687 1.334 . S
C1688 C1689 1.287 . S
C1689 C1688 1.287 . S
C1689 C1690 1.524 . S
C1689 H1692 0.999 . S
C1690 H1660 0.950 . S
C1690 C1689 1.524 . S
C1690 C1691 1.415 . S
C1691 H1661 0.950 . S
C1691 C1686 1.363 . S
C1691 C1690 1.415 . S
H1692 C1689 0.999 . S
H1693 C1674 0.913 . S
H1694 C1712 0.951 . S
H1695 C1714 0.951 . S
H1696 C1716 0.950 . S
H1697 C1717 0.950 . S
H1698 C1719 0.950 1_655 S
H1699 C1722 0.950 . S
H1700 C1723 0.950 . S
H1701 C1725 0.950 . S
H1702 C1726 0.950 . S
H1703 C1727 0.951 . S
H1704 C1729 0.951 . S
H1705 C1731 0.950 . S
H1706 C1732 0.950 . S
H1707 C1734 0.950 . S
H1708 C1737 0.950 . S
H1709 C1738 0.950 . S
H1710 C1740 0.950 . S
H1711 C1741 0.950 . S
C1712 H1694 0.951 . S
C1712 C1713 1.366 . S
C1712 C1714 1.388 . S
C1713 C1712 1.366 . S
C1713 C1717 1.385 . S
C1714 H1695 0.951 . S
C1714 C1712 1.388 . S
C1714 C1715 1.366 . S
C1715 C1714 1.366 . S
C1715 C1716 1.414 . S
C1715 C1718 1.499 . S
C1716 H1696 0.950 . S
C1716 C1715 1.414 . S
C1716 C1717 1.374 . S
C1717 H1697 0.950 . S
C1717 C1713 1.385 . S
C1717 C1716 1.374 . S
C1718 C1715 1.499 . S
C1718 C1719 1.373 . S
C1718 C1720 1.389 1_556 S
C1719 H1698 0.950 1_455 S
C1719 C1718 1.373 . S
C1719 C1735 1.377 . S
C1720 C1718 1.389 1_554 S
C1720 C1721 1.524 . S
C1720 C1734 1.377 . S
C1721 C1720 1.524 . S
C1721 C1722 1.397 1_554 S
C1721 C1726 1.363 . S
C1722 H1699 0.950 . S
C1722 C1721 1.397 1_556 S
C1722 C1723 1.334 . S
C1723 H1700 0.950 . S
C1723 C1722 1.334 . S
C1723 C1724 1.287 1_556 S
C1724 C1723 1.287 1_554 S
C1724 C1725 1.524 . S
C1724 H1743 0.913 . S
C1725 H1701 0.950 . S
C1725 C1724 1.524 . S
C1725 C1726 1.415 . S
C1726 H1702 0.950 . S
C1726 C1721 1.363 . S
C1726 C1725 1.415 . S
C1727 H1703 0.951 . S
C1727 C1728 1.366 . S
C1727 C1729 1.388 . S
C1728 C1727 1.366 . S
C1728 C1732 1.385 . S
C1729 H1704 0.951 . S
C1729 C1727 1.388 . S
C1729 C1730 1.366 . S
C1730 C1729 1.366 . S
C1730 C1731 1.414 . S
C1730 C1733 1.499 . S
C1731 H1705 0.950 . S
C1731 C1730 1.414 . S
C1731 C1732 1.374 . S
C1732 H1706 0.950 . S
C1732 C1728 1.385 . S
C1732 C1731 1.374 . S
C1733 C1730 1.499 . S
C1733 C1734 1.373 . S
C1733 C1735 1.389 1_554 S
C1734 H1707 0.950 . S
C1734 C1720 1.377 . S
C1734 C1733 1.373 . S
C1735 C1719 1.377 . S
C1735 C1733 1.389 1_556 S
C1735 C1736 1.524 1_455 S
C1736 C1735 1.524 1_655 S
C1736 C1737 1.397 1_556 S
C1736 C1741 1.363 . S
C1737 H1708 0.950 . S
C1737 C1736 1.397 1_554 S
C1737 C1738 1.334 . S
C1738 H1709 0.950 . S
C1738 C1737 1.334 . S
C1738 C1739 1.287 1_554 S
C1739 C1738 1.287 1_556 S
C1739 C1740 1.524 . S
C1739 H1742 0.999 . S
C1740 H1710 0.950 . S
C1740 C1739 1.524 . S
C1740 C1741 1.415 . S
C1741 H1711 0.950 . S
C1741 C1736 1.363 . S
C1741 C1740 1.415 . S
H1742 C1739 0.999 . S
H1743 C1724 0.913 . S
H1744 C1762 0.951 . S
H1745 C1764 0.951 . S
H1746 C1766 0.950 . S
H1747 C1767 0.950 . S
H1748 C1769 0.950 . S
H1749 C1772 0.950 . S
H1750 C1773 0.950 . S
H1751 C1775 0.950 1_455 S
H1752 C1776 0.950 . S
H1753 C1777 0.951 . S
H1754 C1779 0.951 . S
H1755 C1781 0.950 . S
H1756 C1782 0.950 . S
H1757 C1784 0.950 . S
H1758 C1787 0.950 . S
H1759 C1788 0.950 . S
H1760 C1790 0.950 . S
H1761 C1791 0.950 . S
C1762 H1744 0.951 . S
C1762 C1763 1.366 . S
C1762 C1764 1.388 . S
C1763 C1762 1.366 . S
C1763 C1767 1.385 . S
C1764 H1745 0.951 . S
C1764 C1762 1.388 . S
C1764 C1765 1.366 . S
C1765 C1764 1.366 . S
C1765 C1766 1.414 . S
C1765 C1768 1.499 . S
C1766 H1746 0.950 . S
C1766 C1765 1.414 . S
C1766 C1767 1.374 . S
C1767 H1747 0.950 . S
C1767 C1763 1.385 . S
C1767 C1766 1.374 . S
C1768 C1765 1.499 . S
C1768 C1769 1.373 . S
C1768 C1770 1.389 . S
C1769 H1748 0.950 . S
C1769 C1768 1.373 . S
C1769 C1785 1.377 . S
C1770 C1768 1.389 . S
C1770 C1771 1.524 . S
C1770 C1784 1.377 . S
C1771 C1770 1.524 . S
C1771 C1772 1.397 1_455 S
C1771 C1776 1.363 . S
C1772 H1749 0.950 . S
C1772 C1771 1.397 1_655 S
C1772 C1773 1.334 . S
C1773 H1750 0.950 . S
C1773 C1772 1.334 . S
C1773 C1774 1.287 . S
C1774 C1773 1.287 . S
C1774 C1775 1.524 . S
C1774 H1793 0.913 . S
C1775 H1751 0.950 1_655 S
C1775 C1774 1.524 . S
C1775 C1776 1.415 1_655 S
C1776 H1752 0.950 . S
C1776 C1771 1.363 . S
C1776 C1775 1.415 1_455 S
C1777 H1753 0.951 . S
C1777 C1778 1.366 . S
C1777 C1779 1.388 . S
C1778 C1777 1.366 . S
C1778 C1782 1.385 . S
C1779 H1754 0.951 . S
C1779 C1777 1.388 . S
C1779 C1780 1.366 . S
C1780 C1779 1.366 . S
C1780 C1781 1.414 . S
C1780 C1783 1.499 . S
C1781 H1755 0.950 . S
C1781 C1780 1.414 . S
C1781 C1782 1.374 . S
C1782 H1756 0.950 . S
C1782 C1778 1.385 . S
C1782 C1781 1.374 . S
C1783 C1780 1.499 . S
C1783 C1784 1.373 . S
C1783 C1785 1.389 . S
C1784 H1757 0.950 . S
C1784 C1770 1.377 . S
C1784 C1783 1.373 . S
C1785 C1769 1.377 . S
C1785 C1783 1.389 . S
C1785 C1786 1.524 . S
C1786 C1785 1.524 . S
C1786 C1787 1.397 . S
C1786 C1791 1.363 . S
C1787 H1758 0.950 . S
C1787 C1786 1.397 . S
C1787 C1788 1.334 . S
C1788 H1759 0.950 . S
C1788 C1787 1.334 . S
C1788 C1789 1.287 . S
C1789 C1788 1.287 . S
C1789 C1790 1.524 . S
C1789 H1792 0.999 . S
C1790 H1760 0.950 . S
C1790 C1789 1.524 . S
C1790 C1791 1.415 . S
C1791 H1761 0.950 . S
C1791 C1786 1.363 . S
C1791 C1790 1.415 . S
H1792 C1789 0.999 . S
H1793 C1774 0.913 . S
H1794 C1812 0.951 . S
H1795 C1814 0.951 . S
H1796 C1816 0.950 . S
H1797 C1817 0.950 . S
H1798 C1819 0.950 . S
H1799 C1822 0.950 . S
H1800 C1823 0.950 . S
H1801 C1825 0.950 . S
H1802 C1826 0.950 1_556 S
H1803 C1827 0.951 . S
H1804 C1829 0.951 . S
H1805 C1831 0.950 . S
H1806 C1832 0.950 . S
H1807 C1834 0.950 . S
H1808 C1837 0.950 . S
H1809 C1838 0.950 . S
H1810 C1840 0.950 . S
H1811 C1841 0.950 . S
C1812 H1794 0.951 . S
C1812 C1813 1.366 . S
C1812 C1814 1.388 . S
C1813 C1812 1.366 . S
C1813 C1817 1.385 . S
C1814 H1795 0.951 . S
C1814 C1812 1.388 . S
C1814 C1815 1.366 . S
C1815 C1814 1.366 . S
C1815 C1816 1.414 . S
C1815 C1818 1.499 . S
C1816 H1796 0.950 . S
C1816 C1815 1.414 . S
C1816 C1817 1.374 . S
C1817 H1797 0.950 . S
C1817 C1813 1.385 . S
C1817 C1816 1.374 . S
C1818 C1815 1.499 . S
C1818 C1819 1.373 1_554 S
C1818 C1820 1.389 1_554 S
C1819 H1798 0.950 . S
C1819 C1818 1.373 1_556 S
C1819 C1835 1.377 . S
C1820 C1818 1.389 1_556 S
C1820 C1821 1.524 1_556 S
C1820 C1834 1.377 . S
C1821 C1820 1.524 1_554 S
C1821 C1822 1.397 . S
C1821 C1826 1.363 . S
C1822 H1799 0.950 . S
C1822 C1821 1.397 . S
C1822 C1823 1.334 . S
C1823 H1800 0.950 . S
C1823 C1822 1.334 . S
C1823 C1824 1.287 . S
C1824 C1823 1.287 . S
C1824 C1825 1.524 . S
C1824 H1843 0.913 . S
C1825 H1801 0.950 . S
C1825 C1824 1.524 . S
C1825 C1826 1.415 . S
C1826 H1802 0.950 1_554 S
C1826 C1821 1.363 . S
C1826 C1825 1.415 . S
C1827 H1803 0.951 . S
C1827 C1828 1.366 . S
C1827 C1829 1.388 . S
C1828 C1827 1.366 . S
C1828 C1832 1.385 . S
C1829 H1804 0.951 . S
C1829 C1827 1.388 . S
C1829 C1830 1.366 . S
C1830 C1829 1.366 . S
C1830 C1831 1.414 . S
C1830 C1833 1.499 . S
C1831 H1805 0.950 . S
C1831 C1830 1.414 . S
C1831 C1832 1.374 . S
C1832 H1806 0.950 . S
C1832 C1828 1.385 . S
C1832 C1831 1.374 . S
C1833 C1830 1.499 . S
C1833 C1834 1.373 . S
C1833 C1835 1.389 . S
C1834 H1807 0.950 . S
C1834 C1820 1.377 . S
C1834 C1833 1.373 . S
C1835 C1819 1.377 . S
C1835 C1833 1.389 . S
C1835 C1836 1.524 . S
C1836 C1835 1.524 . S
C1836 C1837 1.397 . S
C1836 C1841 1.363 . S
C1837 H1808 0.950 . S
C1837 C1836 1.397 . S
C1837 C1838 1.334 . S
C1838 H1809 0.950 . S
C1838 C1837 1.334 . S
C1838 C1839 1.287 . S
C1839 C1838 1.287 . S
C1839 C1840 1.524 . S
C1839 H1842 0.999 . S
C1840 H1810 0.950 . S
C1840 C1839 1.524 . S
C1840 C1841 1.415 . S
C1841 H1811 0.950 . S
C1841 C1836 1.363 . S
C1841 C1840 1.415 . S
H1842 C1839 0.999 . S
H1843 C1824 0.913 . S
H1844 C1862 0.951 . S
H1845 C1864 0.951 . S
H1846 C1866 0.950 . S
H1847 C1867 0.950 . S
H1848 C1869 0.950 . S
H1849 C1872 0.950 . S
H1850 C1873 0.950 . S
H1851 C1875 0.950 . S
H1852 C1876 0.950 . S
H1853 C1877 0.951 . S
H1854 C1879 0.951 . S
H1855 C1881 0.950 . S
H1856 C1882 0.950 . S
H1857 C1884 0.950 . S
H1858 C1887 0.950 . S
H1859 C1888 0.950 . S
H1860 C1890 0.950 . S
H1861 C1891 0.950 . S
C1862 H1844 0.951 . S
C1862 C1863 1.366 . S
C1862 C1864 1.388 1_556 S
C1863 C1862 1.366 . S
C1863 C1867 1.385 . S
C1864 H1845 0.951 . S
C1864 C1862 1.388 1_554 S
C1864 C1865 1.366 . S
C1865 C1864 1.366 . S
C1865 C1866 1.414 . S
C1865 C1868 1.499 . S
C1866 H1846 0.950 . S
C1866 C1865 1.414 . S
C1866 C1867 1.374 1_554 S
C1867 H1847 0.950 . S
C1867 C1863 1.385 . S
C1867 C1866 1.374 1_556 S
C1868 C1865 1.499 . S
C1868 C1869 1.373 . S
C1868 C1870 1.389 . S
C1869 H1848 0.950 . S
C1869 C1868 1.373 . S
C1869 C1885 1.377 . S
C1870 C1868 1.389 . S
C1870 C1871 1.524 . S
C1870 C1884 1.377 . S
C1871 C1870 1.524 . S
C1871 C1872 1.397 . S
C1871 C1876 1.363 . S
C1872 H1849 0.950 . S
C1872 C1871 1.397 . S
C1872 C1873 1.334 . S
C1873 H1850 0.950 . S
C1873 C1872 1.334 . S
C1873 C1874 1.287 . S
C1874 C1873 1.287 . S
C1874 C1875 1.524 . S
C1874 H1893 0.913 . S
C1875 H1851 0.950 . S
C1875 C1874 1.524 . S
C1875 C1876 1.415 . S
C1876 H1852 0.950 . S
C1876 C1871 1.363 . S
C1876 C1875 1.415 . S
C1877 H1853 0.951 . S
C1877 C1878 1.366 . S
C1877 C1879 1.388 . S
C1878 C1877 1.366 . S
C1878 C1882 1.385 . S
C1879 H1854 0.951 . S
C1879 C1877 1.388 . S
C1879 C1880 1.366 . S
C1880 C1879 1.366 . S
C1880 C1881 1.414 . S
C1880 C1883 1.499 . S
C1881 H1855 0.950 . S
C1881 C1880 1.414 . S
C1881 C1882 1.374 . S
C1882 H1856 0.950 . S
C1882 C1878 1.385 . S
C1882 C1881 1.374 . S
C1883 C1880 1.499 . S
C1883 C1884 1.373 . S
C1883 C1885 1.389 . S
C1884 H1857 0.950 . S
C1884 C1870 1.377 . S
C1884 C1883 1.373 . S
C1885 C1869 1.377 . S
C1885 C1883 1.389 . S
C1885 C1886 1.524 . S
C1886 C1885 1.524 . S
C1886 C1887 1.397 . S
C1886 C1891 1.363 . S
C1887 H1858 0.950 . S
C1887 C1886 1.397 . S
C1887 C1888 1.334 . S
C1888 H1859 0.950 . S
C1888 C1887 1.334 . S
C1888 C1889 1.287 . S
C1889 C1888 1.287 . S
C1889 C1890 1.524 . S
C1889 H1892 0.999 . S
C1890 H1860 0.950 . S
C1890 C1889 1.524 . S
C1890 C1891 1.415 . S
C1891 H1861 0.950 . S
C1891 C1886 1.363 . S
C1891 C1890 1.415 . S
H1892 C1889 0.999 . S
H1893 C1874 0.913 . S
H1894 C1912 0.951 . S
H1895 C1914 0.951 . S
H1896 C1916 0.950 . S
H1897 C1917 0.950 . S
H1898 C1919 0.950 . S
H1899 C1922 0.950 . S
H1900 C1923 0.950 . S
H1901 C1925 0.950 . S
H1902 C1926 0.950 . S
H1903 C1927 0.951 . S
H1904 C1929 0.951 . S
H1905 C1931 0.950 . S
H1906 C1932 0.950 . S
H1907 C1934 0.950 . S
H1908 C1937 0.950 . S
H1909 C1938 0.950 . S
H1910 C1940 0.950 . S
H1911 C1941 0.950 . S
C1912 H1894 0.951 . S
C1912 C1913 1.366 . S
C1912 C1914 1.388 . S
C1913 C1912 1.366 . S
C1913 C1917 1.385 . S
C1914 H1895 0.951 . S
C1914 C1912 1.388 . S
C1914 C1915 1.366 . S
C1915 C1914 1.366 . S
C1915 C1916 1.414 . S
C1915 C1918 1.499 . S
C1916 H1896 0.950 . S
C1916 C1915 1.414 . S
C1916 C1917 1.374 . S
C1917 H1897 0.950 . S
C1917 C1913 1.385 . S
C1917 C1916 1.374 . S
C1918 C1915 1.499 . S
C1918 C1919 1.373 . S
C1918 C1920 1.389 . S
C1919 H1898 0.950 . S
C1919 C1918 1.373 . S
C1919 C1935 1.377 . S
C1920 C1918 1.389 . S
C1920 C1921 1.524 . S
C1920 C1934 1.377 . S
C1921 C1920 1.524 . S
C1921 C1922 1.397 . S
C1921 C1926 1.363 . S
C1922 H1899 0.950 . S
C1922 C1921 1.397 . S
C1922 C1923 1.334 . S
C1923 H1900 0.950 . S
C1923 C1922 1.334 . S
C1923 C1924 1.287 . S
C1924 C1923 1.287 . S
C1924 C1925 1.524 . S
C1924 H1943 0.913 . S
C1925 H1901 0.950 . S
C1925 C1924 1.524 . S
C1925 C1926 1.415 . S
C1926 H1902 0.950 . S
C1926 C1921 1.363 . S
C1926 C1925 1.415 . S
C1927 H1903 0.951 . S
C1927 C1928 1.366 . S
C1927 C1929 1.388 . S
C1928 C1927 1.366 . S
C1928 C1932 1.385 . S
C1929 H1904 0.951 . S
C1929 C1927 1.388 . S
C1929 C1930 1.366 . S
C1930 C1929 1.366 . S
C1930 C1931 1.414 . S
C1930 C1933 1.499 . S
C1931 H1905 0.950 . S
C1931 C1930 1.414 . S
C1931 C1932 1.374 . S
C1932 H1906 0.950 . S
C1932 C1928 1.385 . S
C1932 C1931 1.374 . S
C1933 C1930 1.499 . S
C1933 C1934 1.373 . S
C1933 C1935 1.389 . S
C1934 H1907 0.950 . S
C1934 C1920 1.377 . S
C1934 C1933 1.373 . S
C1935 C1919 1.377 . S
C1935 C1933 1.389 . S
C1935 C1936 1.524 . S
C1936 C1935 1.524 . S
C1936 C1937 1.397 . S
C1936 C1941 1.363 . S
C1937 H1908 0.950 . S
C1937 C1936 1.397 . S
C1937 C1938 1.334 . S
C1938 H1909 0.950 . S
C1938 C1937 1.334 . S
C1938 C1939 1.287 . S
C1939 C1938 1.287 . S
C1939 C1940 1.524 . S
C1939 H1942 0.999 . S
C1940 H1910 0.950 . S
C1940 C1939 1.524 . S
C1940 C1941 1.415 . S
C1941 H1911 0.950 . S
C1941 C1936 1.363 . S
C1941 C1940 1.415 . S
H1942 C1939 0.999 . S
H1943 C1924 0.913 . S
H1944 C1962 0.951 . S
H1945 C1964 0.951 . S
H1946 C1966 0.950 . S
H1947 C1967 0.950 . S
H1948 C1969 0.950 . S
H1949 C1972 0.950 1_455 S
H1950 C1973 0.950 . S
H1951 C1975 0.950 . S
H1952 C1976 0.950 . S
H1953 C1977 0.951 . S
H1954 C1979 0.951 . S
H1955 C1981 0.950 1_655 S
H1956 C1982 0.950 1_655 S
H1957 C1984 0.950 1_655 S
H1958 C1987 0.950 . S
H1959 C1988 0.950 . S
H1960 C1990 0.950 . S
H1961 C1991 0.950 . S
C1962 H1944 0.951 . S
C1962 C1963 1.366 . S
C1962 C1964 1.388 . S
C1963 C1962 1.366 . S
C1963 C1967 1.385 . S
C1964 H1945 0.951 . S
C1964 C1962 1.388 . S
C1964 C1965 1.366 . S
C1965 C1964 1.366 . S
C1965 C1966 1.414 . S
C1965 C1968 1.499 . S
C1966 H1946 0.950 . S
C1966 C1965 1.414 . S
C1966 C1967 1.374 . S
C1967 H1947 0.950 . S
C1967 C1963 1.385 . S
C1967 C1966 1.374 . S
C1968 C1965 1.499 . S
C1968 C1969 1.373 . S
C1968 C1970 1.389 . S
C1969 H1948 0.950 . S
C1969 C1968 1.373 . S
C1969 C1985 1.377 . S
C1970 C1968 1.389 . S
C1970 C1971 1.524 1_455 S
C1970 C1984 1.377 . S
C1971 C1970 1.524 1_655 S
C1971 C1972 1.397 . S
C1971 C1976 1.363 . S
C1972 H1949 0.950 1_655 S
C1972 C1971 1.397 . S
C1972 C1973 1.334 . S
C1973 H1950 0.950 . S
C1973 C1972 1.334 . S
C1973 C1974 1.287 . S
C1974 C1973 1.287 . S
C1974 C1975 1.524 . S
C1974 H1993 0.913 . S
C1975 H1951 0.950 . S
C1975 C1974 1.524 . S
C1975 C1976 1.415 . S
C1976 H1952 0.950 . S
C1976 C1971 1.363 . S
C1976 C1975 1.415 . S
C1977 H1953 0.951 . S
C1977 C1978 1.366 . S
C1977 C1979 1.388 . S
C1978 C1977 1.366 . S
C1978 C1982 1.385 . S
C1979 H1954 0.951 . S
C1979 C1977 1.388 . S
C1979 C1980 1.366 . S
C1980 C1979 1.366 . S
C1980 C1981 1.414 . S
C1980 C1983 1.499 . S
C1981 H1955 0.950 1_455 S
C1981 C1980 1.414 . S
C1981 C1982 1.374 . S
C1982 H1956 0.950 1_455 S
C1982 C1978 1.385 . S
C1982 C1981 1.374 . S
C1983 C1980 1.499 . S
C1983 C1984 1.373 . S
C1983 C1985 1.389 . S
C1984 H1957 0.950 1_455 S
C1984 C1970 1.377 . S
C1984 C1983 1.373 . S
C1985 C1969 1.377 . S
C1985 C1983 1.389 . S
C1985 C1986 1.524 . S
C1986 C1985 1.524 . S
C1986 C1987 1.397 . S
C1986 C1991 1.363 . S
C1987 H1958 0.950 . S
C1987 C1986 1.397 . S
C1987 C1988 1.334 . S
C1988 H1959 0.950 . S
C1988 C1987 1.334 . S
C1988 C1989 1.287 . S
C1989 C1988 1.287 . S
C1989 C1990 1.524 . S
C1989 H1992 0.999 . S
C1990 H1960 0.950 . S
C1990 C1989 1.524 . S
C1990 C1991 1.415 . S
C1991 H1961 0.950 . S
C1991 C1986 1.363 . S
C1991 C1990 1.415 . S
H1992 C1989 0.999 . S
H1993 C1974 0.913 . S
H1994 C2012 0.951 . S
H1995 C2014 0.951 . S
H1996 C2016 0.950 . S
H1997 C2017 0.950 . S
H1998 C2019 0.950 . S
H1999 C2022 0.950 . S
H2000 C2023 0.950 . S
H2001 C2025 0.950 . S
H2002 C2026 0.950 . S
H2003 C2027 0.951 . S
H2004 C2029 0.951 . S
H2005 C2031 0.950 . S
H2006 C2032 0.950 . S
H2007 C2034 0.950 . S
H2008 C2037 0.950 . S
H2009 C2038 0.950 . S
H2010 C2040 0.950 . S
H2011 C2041 0.950 . S
C2012 H1994 0.951 . S
C2012 C2013 1.366 . S
C2012 C2014 1.388 . S
C2013 C2012 1.366 . S
C2013 C2017 1.385 . S
C2014 H1995 0.951 . S
C2014 C2012 1.388 . S
C2014 C2015 1.366 . S
C2015 C2014 1.366 . S
C2015 C2016 1.414 . S
C2015 C2018 1.499 . S
C2016 H1996 0.950 . S
C2016 C2015 1.414 . S
C2016 C2017 1.374 . S
C2017 H1997 0.950 . S
C2017 C2013 1.385 . S
C2017 C2016 1.374 . S
C2018 C2015 1.499 . S
C2018 C2019 1.373 . S
C2018 C2020 1.389 . S
C2019 H1998 0.950 . S
C2019 C2018 1.373 . S
C2019 C2035 1.377 . S
C2020 C2018 1.389 . S
C2020 C2021 1.524 . S
C2020 C2034 1.377 . S
C2021 C2020 1.524 . S
C2021 C2022 1.397 . S
C2021 C2026 1.363 . S
C2022 H1999 0.950 . S
C2022 C2021 1.397 . S
C2022 C2023 1.334 . S
C2023 H2000 0.950 . S
C2023 C2022 1.334 . S
C2023 C2024 1.287 . S
C2024 C2023 1.287 . S
C2024 C2025 1.524 . S
C2024 H2043 0.913 . S
C2025 H2001 0.950 . S
C2025 C2024 1.524 . S
C2025 C2026 1.415 . S
C2026 H2002 0.950 . S
C2026 C2021 1.363 . S
C2026 C2025 1.415 . S
C2027 H2003 0.951 . S
C2027 C2028 1.366 . S
C2027 C2029 1.388 . S
C2028 C2027 1.366 . S
C2028 C2032 1.385 . S
C2029 H2004 0.951 . S
C2029 C2027 1.388 . S
C2029 C2030 1.366 . S
C2030 C2029 1.366 . S
C2030 C2031 1.414 . S
C2030 C2033 1.499 . S
C2031 H2005 0.950 . S
C2031 C2030 1.414 . S
C2031 C2032 1.374 . S
C2032 H2006 0.950 . S
C2032 C2028 1.385 . S
C2032 C2031 1.374 . S
C2033 C2030 1.499 . S
C2033 C2034 1.373 . S
C2033 C2035 1.389 . S
C2034 H2007 0.950 . S
C2034 C2020 1.377 . S
C2034 C2033 1.373 . S
C2035 C2019 1.377 . S
C2035 C2033 1.389 . S
C2035 C2036 1.524 . S
C2036 C2035 1.524 . S
C2036 C2037 1.397 . S
C2036 C2041 1.363 . S
C2037 H2008 0.950 . S
C2037 C2036 1.397 . S
C2037 C2038 1.334 . S
C2038 H2009 0.950 . S
C2038 C2037 1.334 . S
C2038 C2039 1.287 . S
C2039 C2038 1.287 . S
C2039 C2040 1.524 . S
C2039 H2042 0.999 . S
C2040 H2010 0.950 . S
C2040 C2039 1.524 . S
C2040 C2041 1.415 . S
C2041 H2011 0.950 . S
C2041 C2036 1.363 . S
C2041 C2040 1.415 . S
H2042 C2039 0.999 . S
H2043 C2024 0.913 . S
H2044 C2062 0.951 . S
H2045 C2064 0.951 . S
H2046 C2066 0.950 . S
H2047 C2067 0.950 . S
H2048 C2069 0.950 . S
H2049 C2072 0.950 . S
H2050 C2073 0.950 . S
H2051 C2075 0.950 . S
H2052 C2076 0.950 . S
H2053 C2077 0.951 . S
H2054 C2079 0.951 . S
H2055 C2081 0.950 . S
H2056 C2082 0.950 . S
H2057 C2084 0.950 . S
H2058 C2087 0.950 . S
H2059 C2088 0.950 . S
H2060 C2090 0.950 . S
H2061 C2091 0.950 . S
C2062 H2044 0.951 . S
C2062 C2063 1.366 . S
C2062 C2064 1.388 . S
C2063 C2062 1.366 . S
C2063 C2067 1.385 . S
C2064 H2045 0.951 . S
C2064 C2062 1.388 . S
C2064 C2065 1.366 . S
C2065 C2064 1.366 . S
C2065 C2066 1.414 . S
C2065 C2068 1.499 . S
C2066 H2046 0.950 . S
C2066 C2065 1.414 . S
C2066 C2067 1.374 . S
C2067 H2047 0.950 . S
C2067 C2063 1.385 . S
C2067 C2066 1.374 . S
C2068 C2065 1.499 . S
C2068 C2069 1.373 . S
C2068 C2070 1.389 . S
C2069 H2048 0.950 . S
C2069 C2068 1.373 . S
C2069 C2085 1.377 . S
C2070 C2068 1.389 . S
C2070 C2071 1.524 . S
C2070 C2084 1.377 . S
C2071 C2070 1.524 . S
C2071 C2072 1.397 . S
C2071 C2076 1.363 . S
C2072 H2049 0.950 . S
C2072 C2071 1.397 . S
C2072 C2073 1.334 . S
C2073 H2050 0.950 . S
C2073 C2072 1.334 . S
C2073 C2074 1.287 . S
C2074 C2073 1.287 . S
C2074 C2075 1.524 . S
C2074 H2093 0.913 . S
C2075 H2051 0.950 . S
C2075 C2074 1.524 . S
C2075 C2076 1.415 . S
C2076 H2052 0.950 . S
C2076 C2071 1.363 . S
C2076 C2075 1.415 . S
C2077 H2053 0.951 . S
C2077 C2078 1.366 . S
C2077 C2079 1.388 1_554 S
C2078 C2077 1.366 . S
C2078 C2082 1.385 . S
C2079 H2054 0.951 . S
C2079 C2077 1.388 1_556 S
C2079 C2080 1.366 . S
C2080 C2079 1.366 . S
C2080 C2081 1.414 . S
C2080 C2083 1.499 . S
C2081 H2055 0.950 . S
C2081 C2080 1.414 . S
C2081 C2082 1.374 1_556 S
C2082 H2056 0.950 . S
C2082 C2078 1.385 . S
C2082 C2081 1.374 1_554 S
C2083 C2080 1.499 . S
C2083 C2084 1.373 . S
C2083 C2085 1.389 . S
C2084 H2057 0.950 . S
C2084 C2070 1.377 . S
C2084 C2083 1.373 . S
C2085 C2069 1.377 . S
C2085 C2083 1.389 . S
C2085 C2086 1.524 . S
C2086 C2085 1.524 . S
C2086 C2087 1.397 . S
C2086 C2091 1.363 . S
C2087 H2058 0.950 . S
C2087 C2086 1.397 . S
C2087 C2088 1.334 . S
C2088 H2059 0.950 . S
C2088 C2087 1.334 . S
C2088 C2089 1.287 . S
C2089 C2088 1.287 . S
C2089 C2090 1.524 . S
C2089 H2092 0.999 . S
C2090 H2060 0.950 . S
C2090 C2089 1.524 . S
C2090 C2091 1.415 . S
C2091 H2061 0.950 . S
C2091 C2086 1.363 . S
C2091 C2090 1.415 . S
H2092 C2089 0.999 . S
H2093 C2074 0.913 . S
H2094 C2112 0.951 . S
H2095 C2114 0.951 . S
H2096 C2116 0.950 . S
H2097 C2117 0.950 . S
H2098 C2119 0.950 1_556 S
H2099 C2122 0.950 . S
H2100 C2123 0.950 . S
H2101 C2125 0.950 . S
H2102 C2126 0.950 . S
H2103 C2127 0.951 . S
H2104 C2129 0.951 . S
H2105 C2131 0.950 . S
H2106 C2132 0.950 . S
H2107 C2134 0.950 . S
H2108 C2137 0.950 . S
H2109 C2138 0.950 . S
H2110 C2140 0.950 . S
H2111 C2141 0.950 . S
C2112 H2094 0.951 . S
C2112 C2113 1.366 . S
C2112 C2114 1.388 . S
C2113 C2112 1.366 . S
C2113 C2117 1.385 . S
C2114 H2095 0.951 . S
C2114 C2112 1.388 . S
C2114 C2115 1.366 . S
C2115 C2114 1.366 . S
C2115 C2116 1.414 . S
C2115 C2118 1.499 . S
C2116 H2096 0.950 . S
C2116 C2115 1.414 . S
C2116 C2117 1.374 . S
C2117 H2097 0.950 . S
C2117 C2113 1.385 . S
C2117 C2116 1.374 . S
C2118 C2115 1.499 . S
C2118 C2119 1.373 1_556 S
C2118 C2120 1.389 1_556 S
C2119 H2098 0.950 1_554 S
C2119 C2118 1.373 1_554 S
C2119 C2135 1.377 . S
C2120 C2118 1.389 1_554 S
C2120 C2121 1.524 1_554 S
C2120 C2134 1.377 . S
C2121 C2120 1.524 1_556 S
C2121 C2122 1.397 . S
C2121 C2126 1.363 1_556 S
C2122 H2099 0.950 . S
C2122 C2121 1.397 . S
C2122 C2123 1.334 . S
C2123 H2100 0.950 . S
C2123 C2122 1.334 . S
C2123 C2124 1.287 . S
C2124 C2123 1.287 . S
C2124 C2125 1.524 . S
C2124 H2143 0.913 . S
C2125 H2101 0.950 . S
C2125 C2124 1.524 . S
C2125 C2126 1.415 1_556 S
C2126 H2102 0.950 . S
C2126 C2121 1.363 1_554 S
C2126 C2125 1.415 1_554 S
C2127 H2103 0.951 . S
C2127 C2128 1.366 . S
C2127 C2129 1.388 . S
C2128 C2127 1.366 . S
C2128 C2132 1.385 . S
C2129 H2104 0.951 . S
C2129 C2127 1.388 . S
C2129 C2130 1.366 . S
C2130 C2129 1.366 . S
C2130 C2131 1.414 . S
C2130 C2133 1.499 . S
C2131 H2105 0.950 . S
C2131 C2130 1.414 . S
C2131 C2132 1.374 . S
C2132 H2106 0.950 . S
C2132 C2128 1.385 . S
C2132 C2131 1.374 . S
C2133 C2130 1.499 . S
C2133 C2134 1.373 . S
C2133 C2135 1.389 . S
C2134 H2107 0.950 . S
C2134 C2120 1.377 . S
C2134 C2133 1.373 . S
C2135 C2119 1.377 . S
C2135 C2133 1.389 . S
C2135 C2136 1.524 . S
C2136 C2135 1.524 . S
C2136 C2137 1.397 . S
C2136 C2141 1.363 . S
C2137 H2108 0.950 . S
C2137 C2136 1.397 . S
C2137 C2138 1.334 . S
C2138 H2109 0.950 . S
C2138 C2137 1.334 . S
C2138 C2139 1.287 . S
C2139 C2138 1.287 . S
C2139 C2140 1.524 . S
C2139 H2142 0.999 . S
C2140 H2110 0.950 . S
C2140 C2139 1.524 . S
C2140 C2141 1.415 . S
C2141 H2111 0.950 . S
C2141 C2136 1.363 . S
C2141 C2140 1.415 . S
H2142 C2139 0.999 . S
H2143 C2124 0.913 . S
H2144 C2162 0.951 . S
H2145 C2164 0.951 . S
H2146 C2166 0.950 . S
H2147 C2167 0.950 . S
H2148 C2169 0.950 . S
H2149 C2172 0.950 . S
H2150 C2173 0.950 . S
H2151 C2175 0.950 . S
H2152 C2176 0.950 . S
H2153 C2177 0.951 . S
H2154 C2179 0.951 . S
H2155 C2181 0.950 . S
H2156 C2182 0.950 . S
H2157 C2184 0.950 . S
H2158 C2187 0.950 . S
H2159 C2188 0.950 . S
H2160 C2190 0.950 . S
H2161 C2191 0.950 . S
C2162 H2144 0.951 . S
C2162 C2163 1.366 . S
C2162 C2164 1.388 . S
C2163 C2162 1.366 . S
C2163 C2167 1.385 . S
C2164 H2145 0.951 . S
C2164 C2162 1.388 . S
C2164 C2165 1.366 . S
C2165 C2164 1.366 . S
C2165 C2166 1.414 . S
C2165 C2168 1.499 . S
C2166 H2146 0.950 . S
C2166 C2165 1.414 . S
C2166 C2167 1.374 . S
C2167 H2147 0.950 . S
C2167 C2163 1.385 . S
C2167 C2166 1.374 . S
C2168 C2165 1.499 . S
C2168 C2169 1.373 . S
C2168 C2170 1.389 . S
C2169 H2148 0.950 . S
C2169 C2168 1.373 . S
C2169 C2185 1.377 . S
C2170 C2168 1.389 . S
C2170 C2171 1.524 . S
C2170 C2184 1.377 . S
C2171 C2170 1.524 . S
C2171 C2172 1.397 . S
C2171 C2176 1.363 . S
C2172 H2149 0.950 . S
C2172 C2171 1.397 . S
C2172 C2173 1.334 . S
C2173 H2150 0.950 . S
C2173 C2172 1.334 . S
C2173 C2174 1.287 . S
C2174 C2173 1.287 . S
C2174 C2175 1.524 . S
C2174 H2193 0.913 . S
C2175 H2151 0.950 . S
C2175 C2174 1.524 . S
C2175 C2176 1.415 . S
C2176 H2152 0.950 . S
C2176 C2171 1.363 . S
C2176 C2175 1.415 . S
C2177 H2153 0.951 . S
C2177 C2178 1.366 . S
C2177 C2179 1.388 . S
C2178 C2177 1.366 . S
C2178 C2182 1.385 . S
C2179 H2154 0.951 . S
C2179 C2177 1.388 . S
C2179 C2180 1.366 . S
C2180 C2179 1.366 . S
C2180 C2181 1.414 . S
C2180 C2183 1.499 . S
C2181 H2155 0.950 . S
C2181 C2180 1.414 . S
C2181 C2182 1.374 . S
C2182 H2156 0.950 . S
C2182 C2178 1.385 . S
C2182 C2181 1.374 . S
C2183 C2180 1.499 . S
C2183 C2184 1.373 1_556 S
C2183 C2185 1.389 1_556 S
C2184 H2157 0.950 . S
C2184 C2170 1.377 . S
C2184 C2183 1.373 1_554 S
C2185 C2169 1.377 . S
C2185 C2183 1.389 1_554 S
C2185 C2186 1.524 1_554 S
C2186 C2185 1.524 1_556 S
C2186 C2187 1.397 . S
C2186 C2191 1.363 . S
C2187 H2158 0.950 . S
C2187 C2186 1.397 . S
C2187 C2188 1.334 . S
C2188 H2159 0.950 . S
C2188 C2187 1.334 . S
C2188 C2189 1.287 . S
C2189 C2188 1.287 . S
C2189 C2190 1.524 . S
C2189 H2192 0.999 . S
C2190 H2160 0.950 . S
C2190 C2189 1.524 . S
C2190 C2191 1.415 . S
C2191 H2161 0.950 . S
C2191 C2186 1.363 . S
C2191 C2190 1.415 . S
H2192 C2189 0.999 . S
H2193 C2174 0.913 . S
H2194 C2212 0.951 . S
H2195 C2214 0.951 . S
H2196 C2216 0.950 . S
H2197 C2217 0.950 . S
H2198 C2219 0.950 . S
H2199 C2222 0.950 . S
H2200 C2223 0.950 . S
H2201 C2225 0.950 . S
H2202 C2226 0.950 . S
H2203 C2227 0.951 . S
H2204 C2229 0.951 . S
H2205 C2231 0.950 . S
H2206 C2232 0.950 . S
H2207 C2234 0.950 . S
H2208 C2237 0.950 . S
H2209 C2238 0.950 . S
H2210 C2240 0.950 . S
H2211 C2241 0.950 . S
C2212 H2194 0.951 . S
C2212 C2213 1.366 . S
C2212 C2214 1.388 . S
C2213 C2212 1.366 . S
C2213 C2217 1.385 . S
C2214 H2195 0.951 . S
C2214 C2212 1.388 . S
C2214 C2215 1.366 . S
C2215 C2214 1.366 . S
C2215 C2216 1.414 . S
C2215 C2218 1.499 . S
C2216 H2196 0.950 . S
C2216 C2215 1.414 . S
C2216 C2217 1.374 . S
C2217 H2197 0.950 . S
C2217 C2213 1.385 . S
C2217 C2216 1.374 . S
C2218 C2215 1.499 . S
C2218 C2219 1.373 . S
C2218 C2220 1.389 . S
C2219 H2198 0.950 . S
C2219 C2218 1.373 . S
C2219 C2235 1.377 . S
C2220 C2218 1.389 . S
C2220 C2221 1.524 . S
C2220 C2234 1.377 . S
C2221 C2220 1.524 . S
C2221 C2222 1.397 . S
C2221 C2226 1.363 . S
C2222 H2199 0.950 . S
C2222 C2221 1.397 . S
C2222 C2223 1.334 . S
C2223 H2200 0.950 . S
C2223 C2222 1.334 . S
C2223 C2224 1.287 . S
C2224 C2223 1.287 . S
C2224 C2225 1.524 . S
C2224 H2243 0.913 . S
C2225 H2201 0.950 . S
C2225 C2224 1.524 . S
C2225 C2226 1.415 . S
C2226 H2202 0.950 . S
C2226 C2221 1.363 . S
C2226 C2225 1.415 . S
C2227 H2203 0.951 . S
C2227 C2228 1.366 . S
C2227 C2229 1.388 . S
C2228 C2227 1.366 . S
C2228 C2232 1.385 . S
C2229 H2204 0.951 . S
C2229 C2227 1.388 . S
C2229 C2230 1.366 . S
C2230 C2229 1.366 . S
C2230 C2231 1.414 . S
C2230 C2233 1.499 . S
C2231 H2205 0.950 . S
C2231 C2230 1.414 . S
C2231 C2232 1.374 . S
C2232 H2206 0.950 . S
C2232 C2228 1.385 . S
C2232 C2231 1.374 . S
C2233 C2230 1.499 . S
C2233 C2234 1.373 . S
C2233 C2235 1.389 . S
C2234 H2207 0.950 . S
C2234 C2220 1.377 . S
C2234 C2233 1.373 . S
C2235 C2219 1.377 . S
C2235 C2233 1.389 . S
C2235 C2236 1.524 . S
C2236 C2235 1.524 . S
C2236 C2237 1.397 . S
C2236 C2241 1.363 . S
C2237 H2208 0.950 . S
C2237 C2236 1.397 . S
C2237 C2238 1.334 . S
C2238 H2209 0.950 . S
C2238 C2237 1.334 . S
C2238 C2239 1.287 . S
C2239 C2238 1.287 . S
C2239 C2240 1.524 . S
C2239 H2242 0.999 . S
C2240 H2210 0.950 . S
C2240 C2239 1.524 . S
C2240 C2241 1.415 . S
C2241 H2211 0.950 . S
C2241 C2236 1.363 . S
C2241 C2240 1.415 . S
H2242 C2239 0.999 . S
H2243 C2224 0.913 . S
H2244 C2262 0.951 . S
H2245 C2264 0.951 . S
H2246 C2266 0.950 . S
H2247 C2267 0.950 . S
H2248 C2269 0.950 . S
H2249 C2272 0.950 . S
H2250 C2273 0.950 . S
H2251 C2275 0.950 . S
H2252 C2276 0.950 . S
H2253 C2277 0.951 . S
H2254 C2279 0.951 . S
H2255 C2281 0.950 . S
H2256 C2282 0.950 . S
H2257 C2284 0.950 . S
H2258 C2287 0.950 . S
H2259 C2288 0.950 . S
H2260 C2290 0.950 . S
H2261 C2291 0.950 . S
C2262 H2244 0.951 . S
C2262 C2263 1.366 . S
C2262 C2264 1.388 . S
C2263 C2262 1.366 . S
C2263 C2267 1.385 . S
C2264 H2245 0.951 . S
C2264 C2262 1.388 . S
C2264 C2265 1.366 . S
C2265 C2264 1.366 . S
C2265 C2266 1.414 . S
C2265 C2268 1.499 . S
C2266 H2246 0.950 . S
C2266 C2265 1.414 . S
C2266 C2267 1.374 . S
C2267 H2247 0.950 . S
C2267 C2263 1.385 . S
C2267 C2266 1.374 . S
C2268 C2265 1.499 . S
C2268 C2269 1.373 . S
C2268 C2270 1.389 . S
C2269 H2248 0.950 . S
C2269 C2268 1.373 . S
C2269 C2285 1.377 . S
C2270 C2268 1.389 . S
C2270 C2271 1.524 . S
C2270 C2284 1.377 . S
C2271 C2270 1.524 . S
C2271 C2272 1.397 . S
C2271 C2276 1.363 . S
C2272 H2249 0.950 . S
C2272 C2271 1.397 . S
C2272 C2273 1.334 . S
C2273 H2250 0.950 . S
C2273 C2272 1.334 . S
C2273 C2274 1.287 . S
C2274 C2273 1.287 . S
C2274 C2275 1.524 . S
C2274 H2293 0.913 . S
C2275 H2251 0.950 . S
C2275 C2274 1.524 . S
C2275 C2276 1.415 . S
C2276 H2252 0.950 . S
C2276 C2271 1.363 . S
C2276 C2275 1.415 . S
C2277 H2253 0.951 . S
C2277 C2278 1.366 . S
C2277 C2279 1.388 . S
C2278 C2277 1.366 . S
C2278 C2282 1.385 . S
C2279 H2254 0.951 . S
C2279 C2277 1.388 . S
C2279 C2280 1.366 . S
C2280 C2279 1.366 . S
C2280 C2281 1.414 . S
C2280 C2283 1.499 . S
C2281 H2255 0.950 . S
C2281 C2280 1.414 . S
C2281 C2282 1.374 . S
C2282 H2256 0.950 . S
C2282 C2278 1.385 . S
C2282 C2281 1.374 . S
C2283 C2280 1.499 . S
C2283 C2284 1.373 . S
C2283 C2285 1.389 . S
C2284 H2257 0.950 . S
C2284 C2270 1.377 . S
C2284 C2283 1.373 . S
C2285 C2269 1.377 . S
C2285 C2283 1.389 . S
C2285 C2286 1.524 . S
C2286 C2285 1.524 . S
C2286 C2287 1.397 . S
C2286 C2291 1.363 . S
C2287 H2258 0.950 . S
C2287 C2286 1.397 . S
C2287 C2288 1.334 . S
C2288 H2259 0.950 . S
C2288 C2287 1.334 . S
C2288 C2289 1.287 . S
C2289 C2288 1.287 . S
C2289 C2290 1.524 . S
C2289 H2292 0.999 . S
C2290 H2260 0.950 . S
C2290 C2289 1.524 . S
C2290 C2291 1.415 . S
C2291 H2261 0.950 . S
C2291 C2286 1.363 . S
C2291 C2290 1.415 . S
H2292 C2289 0.999 . S
H2293 C2274 0.913 . S
H2294 C2312 0.951 . S
H2295 C2314 0.951 . S
H2296 C2316 0.950 . S
H2297 C2317 0.950 . S
H2298 C2319 0.950 1_554 S
H2299 C2322 0.950 . S
H2300 C2323 0.950 . S
H2301 C2325 0.950 . S
H2302 C2326 0.950 . S
H2303 C2327 0.951 . S
H2304 C2329 0.951 . S
H2305 C2331 0.950 . S
H2306 C2332 0.950 . S
H2307 C2334 0.950 . S
H2308 C2337 0.950 . S
H2309 C2338 0.950 . S
H2310 C2340 0.950 . S
H2311 C2341 0.950 . S
C2312 H2294 0.951 . S
C2312 C2313 1.366 . S
C2312 C2314 1.388 . S
C2313 C2312 1.366 . S
C2313 C2317 1.385 . S
C2314 H2295 0.951 . S
C2314 C2312 1.388 . S
C2314 C2315 1.366 . S
C2315 C2314 1.366 . S
C2315 C2316 1.414 . S
C2315 C2318 1.499 . S
C2316 H2296 0.950 . S
C2316 C2315 1.414 . S
C2316 C2317 1.374 . S
C2317 H2297 0.950 . S
C2317 C2313 1.385 . S
C2317 C2316 1.374 . S
C2318 C2315 1.499 . S
C2318 C2319 1.373 1_554 S
C2318 C2320 1.389 1_554 S
C2319 H2298 0.950 1_556 S
C2319 C2318 1.373 1_556 S
C2319 C2335 1.377 . S
C2320 C2318 1.389 1_556 S
C2320 C2321 1.524 . S
C2320 C2334 1.377 . S
C2321 C2320 1.524 . S
C2321 C2322 1.397 1_556 S
C2321 C2326 1.363 . S
C2322 H2299 0.950 . S
C2322 C2321 1.397 1_554 S
C2322 C2323 1.334 . S
C2323 H2300 0.950 . S
C2323 C2322 1.334 . S
C2323 C2324 1.287 . S
C2324 C2323 1.287 . S
C2324 C2325 1.524 1_554 S
C2324 H2343 0.913 . S
C2325 H2301 0.950 . S
C2325 C2324 1.524 1_556 S
C2325 C2326 1.415 . S
C2326 H2302 0.950 . S
C2326 C2321 1.363 . S
C2326 C2325 1.415 . S
C2327 H2303 0.951 . S
C2327 C2328 1.366 . S
C2327 C2329 1.388 . S
C2328 C2327 1.366 . S
C2328 C2332 1.385 . S
C2329 H2304 0.951 . S
C2329 C2327 1.388 . S
C2329 C2330 1.366 . S
C2330 C2329 1.366 . S
C2330 C2331 1.414 . S
C2330 C2333 1.499 . S
C2331 H2305 0.950 . S
C2331 C2330 1.414 . S
C2331 C2332 1.374 . S
C2332 H2306 0.950 . S
C2332 C2328 1.385 . S
C2332 C2331 1.374 . S
C2333 C2330 1.499 . S
C2333 C2334 1.373 . S
C2333 C2335 1.389 . S
C2334 H2307 0.950 . S
C2334 C2320 1.377 . S
C2334 C2333 1.373 . S
C2335 C2319 1.377 . S
C2335 C2333 1.389 . S
C2335 C2336 1.524 . S
C2336 C2335 1.524 . S
C2336 C2337 1.397 . S
C2336 C2341 1.363 . S
C2337 H2308 0.950 . S
C2337 C2336 1.397 . S
C2337 C2338 1.334 . S
C2338 H2309 0.950 . S
C2338 C2337 1.334 . S
C2338 C2339 1.287 . S
C2339 C2338 1.287 . S
C2339 C2340 1.524 . S
C2339 H2342 0.999 . S
C2340 H2310 0.950 . S
C2340 C2339 1.524 . S
C2340 C2341 1.415 . S
C2341 H2311 0.950 . S
C2341 C2336 1.363 . S
C2341 C2340 1.415 . S
H2342 C2339 0.999 . S
H2343 C2324 0.913 . S
H2344 C2362 0.951 . S
H2345 C2364 0.951 . S
H2346 C2366 0.950 . S
H2347 C2367 0.950 . S
H2348 C2369 0.950 . S
H2349 C2372 0.950 . S
H2350 C2373 0.950 . S
H2351 C2375 0.950 . S
H2352 C2376 0.950 . S
H2353 C2377 0.951 . S
H2354 C2379 0.951 . S
H2355 C2381 0.950 . S
H2356 C2382 0.950 . S
H2357 C2384 0.950 . S
H2358 C2387 0.950 . S
H2359 C2388 0.950 . S
H2360 C2390 0.950 . S
H2361 C2391 0.950 . S
C2362 H2344 0.951 . S
C2362 C2363 1.366 . S
C2362 C2364 1.388 . S
C2363 C2362 1.366 . S
C2363 C2367 1.385 . S
C2364 H2345 0.951 . S
C2364 C2362 1.388 . S
C2364 C2365 1.366 . S
C2365 C2364 1.366 . S
C2365 C2366 1.414 . S
C2365 C2368 1.499 . S
C2366 H2346 0.950 . S
C2366 C2365 1.414 . S
C2366 C2367 1.374 . S
C2367 H2347 0.950 . S
C2367 C2363 1.385 . S
C2367 C2366 1.374 . S
C2368 C2365 1.499 . S
C2368 C2369 1.373 . S
C2368 C2370 1.389 . S
C2369 H2348 0.950 . S
C2369 C2368 1.373 . S
C2369 C2385 1.377 . S
C2370 C2368 1.389 . S
C2370 C2371 1.524 . S
C2370 C2384 1.377 . S
C2371 C2370 1.524 . S
C2371 C2372 1.397 . S
C2371 C2376 1.363 . S
C2372 H2349 0.950 . S
C2372 C2371 1.397 . S
C2372 C2373 1.334 . S
C2373 H2350 0.950 . S
C2373 C2372 1.334 . S
C2373 C2374 1.287 . S
C2374 C2373 1.287 . S
C2374 C2375 1.524 . S
C2374 H2393 0.913 . S
C2375 H2351 0.950 . S
C2375 C2374 1.524 . S
C2375 C2376 1.415 . S
C2376 H2352 0.950 . S
C2376 C2371 1.363 . S
C2376 C2375 1.415 . S
C2377 H2353 0.951 . S
C2377 C2378 1.366 . S
C2377 C2379 1.388 1_556 S
C2378 C2377 1.366 . S
C2378 C2382 1.385 . S
C2379 H2354 0.951 . S
C2379 C2377 1.388 1_554 S
C2379 C2380 1.366 . S
C2380 C2379 1.366 . S
C2380 C2381 1.414 . S
C2380 C2383 1.499 . S
C2381 H2355 0.950 . S
C2381 C2380 1.414 . S
C2381 C2382 1.374 1_554 S
C2382 H2356 0.950 . S
C2382 C2378 1.385 . S
C2382 C2381 1.374 1_556 S
C2383 C2380 1.499 . S
C2383 C2384 1.373 . S
C2383 C2385 1.389 . S
C2384 H2357 0.950 . S
C2384 C2370 1.377 . S
C2384 C2383 1.373 . S
C2385 C2369 1.377 . S
C2385 C2383 1.389 . S
C2385 C2386 1.524 . S
C2386 C2385 1.524 . S
C2386 C2387 1.397 . S
C2386 C2391 1.363 . S
C2387 H2358 0.950 . S
C2387 C2386 1.397 . S
C2387 C2388 1.334 . S
C2388 H2359 0.950 . S
C2388 C2387 1.334 . S
C2388 C2389 1.287 . S
C2389 C2388 1.287 . S
C2389 C2390 1.524 . S
C2389 H2392 0.999 . S
C2390 H2360 0.950 . S
C2390 C2389 1.524 . S
C2390 C2391 1.415 . S
C2391 H2361 0.950 . S
C2391 C2386 1.363 . S
C2391 C2390 1.415 . S
H2392 C2389 0.999 . S
H2393 C2374 0.913 . S
H2394 C2412 0.951 . S
H2395 C2414 0.951 . S
H2396 C2416 0.950 . S
H2397 C2417 0.950 . S
H2398 C2419 0.950 . S
H2399 C2422 0.950 . S
H2400 C2423 0.950 . S
H2401 C2425 0.950 . S
H2402 C2426 0.950 . S
H2403 C2427 0.951 . S
H2404 C2429 0.951 . S
H2405 C2431 0.950 . S
H2406 C2432 0.950 . S
H2407 C2434 0.950 . S
H2408 C2437 0.950 . S
H2409 C2438 0.950 . S
H2410 C2440 0.950 . S
H2411 C2441 0.950 . S
C2412 H2394 0.951 . S
C2412 C2413 1.366 . S
C2412 C2414 1.388 . S
C2413 C2412 1.366 . S
C2413 C2417 1.385 . S
C2414 H2395 0.951 . S
C2414 C2412 1.388 . S
C2414 C2415 1.366 . S
C2415 C2414 1.366 . S
C2415 C2416 1.414 . S
C2415 C2418 1.499 . S
C2416 H2396 0.950 . S
C2416 C2415 1.414 . S
C2416 C2417 1.374 . S
C2417 H2397 0.950 . S
C2417 C2413 1.385 . S
C2417 C2416 1.374 . S
C2418 C2415 1.499 . S
C2418 C2419 1.373 . S
C2418 C2420 1.389 . S
C2419 H2398 0.950 . S
C2419 C2418 1.373 . S
C2419 C2435 1.377 . S
C2420 C2418 1.389 . S
C2420 C2421 1.524 . S
C2420 C2434 1.377 . S
C2421 C2420 1.524 . S
C2421 C2422 1.397 . S
C2421 C2426 1.363 . S
C2422 H2399 0.950 . S
C2422 C2421 1.397 . S
C2422 C2423 1.334 . S
C2423 H2400 0.950 . S
C2423 C2422 1.334 . S
C2423 C2424 1.287 . S
C2424 C2423 1.287 . S
C2424 C2425 1.524 . S
C2424 H2443 0.913 . S
C2425 H2401 0.950 . S
C2425 C2424 1.524 . S
C2425 C2426 1.415 . S
C2426 H2402 0.950 . S
C2426 C2421 1.363 . S
C2426 C2425 1.415 . S
C2427 H2403 0.951 . S
C2427 C2428 1.366 . S
C2427 C2429 1.388 . S
C2428 C2427 1.366 . S
C2428 C2432 1.385 . S
C2429 H2404 0.951 . S
C2429 C2427 1.388 . S
C2429 C2430 1.366 . S
C2430 C2429 1.366 . S
C2430 C2431 1.414 . S
C2430 C2433 1.499 . S
C2431 H2405 0.950 . S
C2431 C2430 1.414 . S
C2431 C2432 1.374 . S
C2432 H2406 0.950 . S
C2432 C2428 1.385 . S
C2432 C2431 1.374 . S
C2433 C2430 1.499 . S
C2433 C2434 1.373 . S
C2433 C2435 1.389 . S
C2434 H2407 0.950 . S
C2434 C2420 1.377 . S
C2434 C2433 1.373 . S
C2435 C2419 1.377 . S
C2435 C2433 1.389 . S
C2435 C2436 1.524 . S
C2436 C2435 1.524 . S
C2436 C2437 1.397 . S
C2436 C2441 1.363 1_455 S
C2437 H2408 0.950 . S
C2437 C2436 1.397 . S
C2437 C2438 1.334 1_455 S
C2438 H2409 0.950 . S
C2438 C2437 1.334 1_655 S
C2438 C2439 1.287 . S
C2439 C2438 1.287 . S
C2439 C2440 1.524 . S
C2439 H2442 0.999 . S
C2440 H2410 0.950 . S
C2440 C2439 1.524 . S
C2440 C2441 1.415 . S
C2441 H2411 0.950 . S
C2441 C2436 1.363 1_655 S
C2441 C2440 1.415 . S
H2442 C2439 0.999 . S
H2443 C2424 0.913 . S
H2444 C2462 0.951 . S
H2445 C2464 0.951 . S
H2446 C2466 0.950 . S
H2447 C2467 0.950 . S
H2448 C2469 0.950 . S
H2449 C2472 0.950 . S
H2450 C2473 0.950 . S
H2451 C2475 0.950 . S
H2452 C2476 0.950 . S
H2453 C2477 0.951 . S
H2454 C2479 0.951 . S
H2455 C2481 0.950 . S
H2456 C2482 0.950 . S
H2457 C2484 0.950 . S
H2458 C2487 0.950 . S
H2459 C2488 0.950 . S
H2460 C2490 0.950 . S
H2461 C2491 0.950 . S
C2462 H2444 0.951 . S
C2462 C2463 1.366 . S
C2462 C2464 1.388 . S
C2463 C2462 1.366 . S
C2463 C2467 1.385 . S
C2464 H2445 0.951 . S
C2464 C2462 1.388 . S
C2464 C2465 1.366 . S
C2465 C2464 1.366 . S
C2465 C2466 1.414 . S
C2465 C2468 1.499 . S
C2466 H2446 0.950 . S
C2466 C2465 1.414 . S
C2466 C2467 1.374 . S
C2467 H2447 0.950 . S
C2467 C2463 1.385 . S
C2467 C2466 1.374 . S
C2468 C2465 1.499 . S
C2468 C2469 1.373 . S
C2468 C2470 1.389 . S
C2469 H2448 0.950 . S
C2469 C2468 1.373 . S
C2469 C2485 1.377 . S
C2470 C2468 1.389 . S
C2470 C2471 1.524 . S
C2470 C2484 1.377 . S
C2471 C2470 1.524 . S
C2471 C2472 1.397 . S
C2471 C2476 1.363 . S
C2472 H2449 0.950 . S
C2472 C2471 1.397 . S
C2472 C2473 1.334 . S
C2473 H2450 0.950 . S
C2473 C2472 1.334 . S
C2473 C2474 1.287 . S
C2474 C2473 1.287 . S
C2474 C2475 1.524 . S
C2474 H2493 0.913 . S
C2475 H2451 0.950 . S
C2475 C2474 1.524 . S
C2475 C2476 1.415 . S
C2476 H2452 0.950 . S
C2476 C2471 1.363 . S
C2476 C2475 1.415 . S
C2477 H2453 0.951 . S
C2477 C2478 1.366 . S
C2477 C2479 1.388 1_554 S
C2478 C2477 1.366 . S
C2478 C2482 1.385 . S
C2479 H2454 0.951 . S
C2479 C2477 1.388 1_556 S
C2479 C2480 1.366 . S
C2480 C2479 1.366 . S
C2480 C2481 1.414 . S
C2480 C2483 1.499 . S
C2481 H2455 0.950 . S
C2481 C2480 1.414 . S
C2481 C2482 1.374 1_556 S
C2482 H2456 0.950 . S
C2482 C2478 1.385 . S
C2482 C2481 1.374 1_554 S
C2483 C2480 1.499 . S
C2483 C2484 1.373 . S
C2483 C2485 1.389 . S
C2484 H2457 0.950 . S
C2484 C2470 1.377 . S
C2484 C2483 1.373 . S
C2485 C2469 1.377 . S
C2485 C2483 1.389 . S
C2485 C2486 1.524 . S
C2486 C2485 1.524 . S
C2486 C2487 1.397 . S
C2486 C2491 1.363 . S
C2487 H2458 0.950 . S
C2487 C2486 1.397 . S
C2487 C2488 1.334 . S
C2488 H2459 0.950 . S
C2488 C2487 1.334 . S
C2488 C2489 1.287 . S
C2489 C2488 1.287 . S
C2489 C2490 1.524 . S
C2489 H2492 0.999 . S
C2490 H2460 0.950 . S
C2490 C2489 1.524 . S
C2490 C2491 1.415 . S
C2491 H2461 0.950 . S
C2491 C2486 1.363 . S
C2491 C2490 1.415 . S
H2492 C2489 0.999 . S
H2493 C2474 0.913 . S
H2494 C2512 0.951 . S
H2495 C2514 0.951 . S
H2496 C2516 0.950 . S
H2497 C2517 0.950 . S
H2498 C2519 0.950 . S
H2499 C2522 0.950 . S
H2500 C2523 0.950 . S
H2501 C2525 0.950 . S
H2502 C2526 0.950 . S
H2503 C2527 0.951 . S
H2504 C2529 0.951 . S
H2505 C2531 0.950 . S
H2506 C2532 0.950 . S
H2507 C2534 0.950 . S
H2508 C2537 0.950 . S
H2509 C2538 0.950 . S
H2510 C2540 0.903 1_655 S
H2511 C2541 0.950 . S
C2512 H2494 0.951 . S
C2512 C2513 1.366 . S
C2512 C2514 1.388 . S
C2513 C2512 1.366 . S
C2513 C2517 1.385 . S
C2514 H2495 0.951 . S
C2514 C2512 1.388 . S
C2514 C2515 1.366 . S
C2515 C2514 1.366 . S
C2515 C2516 1.414 . S
C2515 C2518 1.499 . S
C2516 H2496 0.950 . S
C2516 C2515 1.414 . S
C2516 C2517 1.374 . S
C2517 H2497 0.950 . S
C2517 C2513 1.385 . S
C2517 C2516 1.374 . S
C2518 C2515 1.499 . S
C2518 C2519 1.373 . S
C2518 C2520 1.389 . S
C2519 H2498 0.950 . S
C2519 C2518 1.373 . S
C2519 C2535 1.377 . S
C2520 C2518 1.389 . S
C2520 C2521 1.524 . S
C2520 C2534 1.377 . S
C2521 C2520 1.524 . S
C2521 C2522 1.397 . S
C2521 C2526 1.363 . S
C2522 H2499 0.950 . S
C2522 C2521 1.397 . S
C2522 C2523 1.334 . S
C2523 H2500 0.950 . S
C2523 C2522 1.334 . S
C2523 C2524 1.287 . S
C2524 C2523 1.287 . S
C2524 C2525 1.524 . S
C2524 H2543 0.913 . S
C2525 H2501 0.950 . S
C2525 C2524 1.524 . S
C2525 C2526 1.415 . S
C2526 H2502 0.950 . S
C2526 C2521 1.363 . S
C2526 C2525 1.415 . S
C2527 H2503 0.951 . S
C2527 C2528 1.366 . S
C2527 C2529 1.388 . S
C2528 C2527 1.366 . S
C2528 C2532 1.385 . S
C2529 H2504 0.951 . S
C2529 C2527 1.388 . S
C2529 C2530 1.366 . S
C2530 C2529 1.366 . S
C2530 C2531 1.414 . S
C2530 C2533 1.499 . S
C2531 H2505 0.950 . S
C2531 C2530 1.414 . S
C2531 C2532 1.374 . S
C2532 H2506 0.950 . S
C2532 C2528 1.385 . S
C2532 C2531 1.374 . S
C2533 C2530 1.499 . S
C2533 C2534 1.373 . S
C2533 C2535 1.389 . S
C2534 H2507 0.950 . S
C2534 C2520 1.377 . S
C2534 C2533 1.373 . S
C2535 C2519 1.377 . S
C2535 C2533 1.389 . S
C2535 C2536 1.524 . S
C2536 C2535 1.524 . S
C2536 C2537 1.397 . S
C2536 C2541 1.363 . S
C2537 H2508 0.950 . S
C2537 C2536 1.397 . S
C2537 C2538 1.334 . S
C2538 H2509 0.950 . S
C2538 C2537 1.334 . S
C2538 C2539 1.287 . S
C2539 C2538 1.287 . S
C2539 C2540 1.524 . S
C2539 H2542 0.999 . S
C2540 H2510 0.903 1_455 S
C2540 C2539 1.524 . S
C2540 C2541 1.415 . S
C2541 H2511 0.950 . S
C2541 C2536 1.363 . S
C2541 C2540 1.415 . S
H2542 C2539 0.999 . S
H2543 C2524 0.913 . S
C563 C271 1.124 . S
C578 C33 1.125 . S
C613 C67 1.124 . S
C628 C169 1.124 . S
C663 C101 1.124 . S
C678 C203 1.124 . S
C713 C237 1.124 . S
C728 C135 1.124 . S
C763 C376 1.698 . S
C778 C138 1.698 1_655 S
C813 C274 1.698 . S
C828 C2 1.698 1_655 S
C863 C206 1.698 . S
C878 C342 1.698 . S
C913 C70 1.698 . S
C928 C308 1.698 . S
C963 C339 1.124 . S
C978 C441 1.124 . S
C1013 C509 1.124 . S
C1028 C373 1.124 . S
C1063 C475 1.124 . S
C1078 C305 1.125 . S
C1113 C407 1.124 . S
C1128 C543 1.125 . S
C1163 C104 1.698 . S
C1178 C478 1.698 . S
C1213 C172 1.698 . S
C1228 C410 1.698 . S
C1263 C36 1.698 . S
C1278 C512 1.698 . S
C1313 C240 1.698 . S
C1328 C444 1.698 . S
C1363 C20 1.585 . S
C1378 C156 1.585 . S
C1413 C190 1.585 . S
C1428 C54 1.585 . S
C1463 C224 1.585 . S
C1478 C88 1.584 . S
C1513 C122 1.586 . S
C1528 C258 1.586 . S
C1563 C360 1.586 . S
C1578 C292 1.586 . S
C1613 C326 1.585 . S
C1628 C394 1.586 . S
C1663 C428 1.585 . S
C1678 C496 1.585 . S
C1713 C530 1.585 . S
C1728 C462 1.585 . S
C1763 C9 0.625 . S
C1778 C5 0.585 . S
C1813 C43 0.628 . S
C1828 C39 0.586 . S
C1863 C73 0.586 . S
C1878 C77 0.625 . S
C1913 C107 0.584 . S
C1928 C111 0.625 . S
C1963 C141 0.587 . S
C1978 C145 0.628 . S
C2013 C175 0.585 . S
C2028 C179 0.624 . S
C2063 C213 0.628 . S
C2078 C209 0.587 . S
C2113 C247 0.625 . S
C2128 C243 0.586 . S
C2163 C277 0.586 . S
C2178 C281 0.625 . S
C2213 C311 0.586 . S
C2228 C315 0.625 . S
C2263 C349 0.628 . S
C2278 C345 0.586 . S
C2313 C383 0.625 . S
C2328 C379 0.584 . S
C2363 C417 0.628 . S
C2378 C413 0.586 . S
C2413 C451 0.626 . S
C2428 C447 0.586 . S
C2463 C485 0.628 . S
C2478 C481 0.587 . S
C2513 C515 0.587 . S
C2528 C519 0.627 . S
