# Generated by pormake.
# Topology kag, (6)-cn, num edge types: 1
# Building blocks:
#     Node 0, Type 0, BuildingBlock: BETDAH_clean_sbu_0, # of connection points: 6
#     Node 1, Type 0, BuildingBlock: BETDAH_clean_sbu_0, # of connection points: 6
#     Node 2, Type 0, BuildingBlock: BETDAH_clean_sbu_0, # of connection points: 6
#     Edge 3, Type (0, 0), BuildingBlock: ZUJKAS_clean_linker_0, # of connection points: 2
#     Edge 4, Type (0, 0), BuildingBlock: ZUJKAS_clean_linker_0, # of connection points: 2
#     Edge 5, Type (0, 0), BuildingBlock: ZUJKAS_clean_linker_0, # of connection points: 2
#     Edge 6, Type (0, 0), BuildingBlock: ZUJKAS_clean_linker_0, # of connection points: 2
#     Edge 7, Type (0, 0), BuildingBlock: ZUJKAS_clean_linker_0, # of connection points: 2
#     Edge 8, Type (0, 0), BuildingBlock: ZUJKAS_clean_linker_0, # of connection points: 2
#     Edge 9, Type (0, 0), BuildingBlock: ZUJKAS_clean_linker_0, # of connection points: 2
#     Edge 10, Type (0, 0), BuildingBlock: ZUJKAS_clean_linker_0, # of connection points: 2
#     Edge 11, Type (0, 0), BuildingBlock: ZUJKAS_clean_linker_0, # of connection points: 2
# Relax obj value: 0.053
# Max RMSD: 0.173
# Mean RMSD: 0.091
data_MOF--net-kag--node1-BETDAH_clean_sbu_0--edge1-ZUJKAS_clean_linker_0
_symmetry_space_group_name_H-M    P1
_symmetry_Int_Tables_number       1
_symmetry_cell_setting            triclinic
loop_
_symmetry_equiv_pos_as_xyz
'x, y, z'
_cell_length_a     40.818435
_cell_length_b     51.180924
_cell_length_c     19.138153
_cell_angle_alpha  95.38298
_cell_angle_beta   91.211229
_cell_angle_gamma 101.43642
loop_
_atom_site_label
_atom_site_type_symbol
_atom_site_fract_x
_atom_site_fract_y
_atom_site_fract_z
_atom_type_partial_charge
Ho0 Ho 1.03278 0.47989 0.0095 0.0
Ho1 Ho 0.0444 0.53804 0.99541 0.0
C2 C 0.96785 0.50839 0.99395 0.0
C3 C 1.01327 0.43208 0.04688 0.0
C4 C 0.98356 0.40991 0.03838 0.0
C5 C 0.96495 0.40292 0.0971 0.0
C6 C 0.93846 0.38072 0.09153 0.0
C7 C 0.93012 0.36482 0.02715 0.0
C8 C 0.94835 0.3722 0.96803 0.0
C9 C 0.97475 0.39446 0.97354 0.0
C10 C 0.03916 0.49218 0.87477 0.0
C11 C 0.10932 0.50959 0.01099 0.0
C12 C 0.06379 0.58583 0.95784 0.0
C13 C 0.0936 0.60771 0.96623 0.0
C14 C 0.10451 0.62126 0.90797 0.0
C15 C 0.1314 0.64313 0.91514 0.0
C16 C 0.1478 0.65201 0.98097 0.0
C17 C 0.13728 0.63804 0.03906 0.0
C18 C 0.11052 0.61601 0.03173 0.0
C19 C 0.03792 0.52562 0.13011 0.0
O20 O 0.97965 0.48792 0.015 0.0
O21 O 0.98853 0.52937 0.97355 0.0
O22 O 1.0305 0.43727 0.99127 0.0
O23 O 1.0103 0.45381 0.08592 0.0
O24 O 0.05043 0.47291 0.8999 0.0
O25 O 1.02329 0.5031 0.92118 0.0
O26 O 0.09748 0.52997 0.98958 0.0
O27 O 0.08865 0.48866 0.03171 0.0
O28 O 0.04698 0.58068 0.01399 0.0
O29 O 0.06667 0.56412 0.91868 0.0
O30 O 1.02661 0.54489 0.10504 0.0
O31 O 0.05392 0.51486 0.08368 0.0
H32 H 0.97126 0.41438 0.14779 0.0
H33 H 0.92468 0.37591 0.13792 0.0
H34 H 0.94297 0.36025 0.91782 0.0
H35 H 0.98868 0.39916 0.92726 0.0
H36 H 0.09179 0.61521 0.85701 0.0
H37 H 0.13868 0.65362 0.86955 0.0
H38 H 0.14968 0.6442 0.09025 0.0
H39 H 0.10279 0.60575 0.07745 0.0
Ho40 Ho 0.57547 0.01402 0.9899 0.0
Ho41 Ho 0.50306 1.00285 0.01404 0.0
C42 C 0.53645 0.06402 0.01691 0.0
C43 C 0.63424 0.03354 0.94748 0.0
C44 C 0.65533 0.06063 0.95439 0.0
C45 C 0.67836 0.06815 0.90306 0.0
C46 C 0.69817 0.09397 0.90856 0.0
C47 C 0.69537 0.11267 0.96577 0.0
C48 C 0.67203 0.1051 0.01685 0.0
C49 C 0.65203 0.07936 0.01099 0.0
C50 C 0.56071 0.00892 0.12627 0.0
C51 C 0.54221 0.95287 0.98736 0.0
C52 C 0.44421 0.98342 0.0562 0.0
C53 C 0.42247 0.95645 0.05044 0.0
C54 C 0.40985 0.9456 0.11137 0.0
C55 C 0.38976 0.91992 0.10736 0.0
C56 C 0.38166 0.90454 0.04211 0.0
C57 C 0.39441 0.91551 0.98109 0.0
C58 C 0.4147 0.94111 0.98522 0.0
C59 C 0.51801 1.00801 0.87766 0.0
O60 O 0.56201 0.055 0.98914 0.0
O61 O 0.5112 0.0474 0.04106 0.0
O62 O 0.62928 0.02196 0.00543 0.0
O63 O 0.60689 0.03044 0.90828 0.0
O64 O 0.58488 1.00013 0.09529 0.0
O65 O 0.54636 0.02117 0.08437 0.0
O66 O 0.5166 0.96186 0.01506 0.0
O67 O 0.5674 0.96949 0.96304 0.0
O68 O 0.44925 0.99507 0.99834 0.0
O69 O 0.4715 0.98655 0.09564 0.0
O70 O 0.49387 0.01687 0.90861 0.0
O71 O 0.53214 0.99564 0.9196 0.0
H72 H 0.68104 0.05403 0.85875 0.0
H73 H 0.71609 0.09917 0.86867 0.0
H74 H 0.669 0.11918 0.06099 0.0
H75 H 0.634 0.0741 0.05065 0.0
H76 H 0.41573 0.95696 0.16231 0.0
H77 H 0.38092 0.91201 0.15559 0.0
H78 H 0.38836 0.90448 0.92983 0.0
H79 H 0.42423 0.94885 0.93725 0.0
Ho80 Ho 0.54754 0.53813 0.99708 0.0
Ho81 Ho 0.52921 0.47847 0.00915 0.0
C82 C 0.46864 0.51023 0.01042 0.0
C83 C 0.55693 0.5867 0.96018 0.0
C84 C 0.54739 0.6134 0.96432 0.0
C85 C 0.54626 0.62597 0.90241 0.0
C86 C 0.54309 0.65282 0.9048 0.0
C87 C 0.54093 0.66793 0.96932 0.0
C88 C 0.54062 0.65497 0.03125 0.0
C89 C 0.54399 0.62806 0.02883 0.0
C90 C 0.54878 0.52443 0.13109 0.0
C91 C 0.60813 0.50635 0.99602 0.0
C92 C 0.51971 0.42985 0.0457 0.0
C93 C 0.52926 0.40317 0.04197 0.0
C94 C 0.52934 0.39036 0.1037 0.0
C95 C 0.53252 0.36352 0.10135 0.0
C96 C 0.53575 0.34865 0.03702 0.0
C97 C 0.53713 0.36185 0.97536 0.0
C98 C 0.53375 0.38876 0.97773 0.0
C99 C 0.52791 0.49236 0.87522 0.0
O100 O 0.49034 0.53065 0.9893 0.0
O101 O 0.47906 0.48921 0.03153 0.0
O102 O 0.57105 0.58 0.01586 0.0
O103 O 0.53772 0.5662 0.92382 0.0
O104 O 0.56888 0.5444 0.10832 0.0
O105 O 0.52732 0.51377 0.08298 0.0
O106 O 0.58638 0.48588 0.01678 0.0
O107 O 0.59777 0.52744 0.97517 0.0
O108 O 0.50593 0.43657 0.98963 0.0
O109 O 0.53869 0.45034 0.08254 0.0
O110 O 0.50767 0.47245 0.89799 0.0
O111 O 0.54945 0.50281 0.92334 0.0
H112 H 0.54911 0.61527 0.85202 0.0
H113 H 0.54284 0.66188 0.85593 0.0
H114 H 0.5392 0.66593 0.08194 0.0
H115 H 0.54508 0.61905 0.07761 0.0
H116 H 0.52566 0.40087 0.15386 0.0
H117 H 0.53191 0.35426 0.15005 0.0
H118 H 0.53941 0.35108 0.92482 0.0
H119 H 0.53349 0.39796 0.92907 0.0
H120 H 0.069 0.46685 0.77018 0.0
H121 H 0.06891 0.47302 0.64496 0.0
H122 H 1.00921 0.53329 0.68156 0.0
H123 H 1.00969 0.52744 0.80758 0.0
H124 H 1.01672 0.46541 0.54882 0.0
H125 H 0.08359 0.57146 0.56829 0.0
H126 H 0.08215 0.55135 0.64116 0.0
H127 H 0.04701 0.56587 0.61964 0.0
C128 C 0.05599 0.48155 0.75171 0.0
C129 C 0.0394 0.4967 0.79898 0.0
C130 C 0.05591 0.48503 0.67992 0.0
C131 C 0.03942 0.50385 0.65339 0.0
C132 C 1.02273 0.51902 0.70057 0.0
H133 H 1.00801 0.55083 0.23477 0.0
H134 H 1.00814 0.54462 0.35996 0.0
C135 C 1.02284 0.51556 0.77264 0.0
C136 C 0.03912 0.50697 0.57627 0.0
H137 H 0.06047 0.55228 0.45598 0.0
C138 C 1.02642 0.48441 0.52858 0.0
C139 C 0.05177 0.53171 0.5494 0.0
C140 C 0.0672 0.55644 0.59713 0.0
C141 C 1.02543 0.48599 0.4554 0.0
C142 C 0.03807 0.51073 0.42853 0.0
C143 C 0.05077 0.53329 0.47622 0.0
C144 C 0.03773 0.51385 0.35143 0.0
C145 C 1.01001 0.46125 0.40766 0.0
C146 C 0.05445 0.49874 0.3042 0.0
C147 C 0.05433 0.50223 0.23214 0.0
C148 C 0.0377 0.52106 0.20587 0.0
C149 C 1.02106 0.53615 0.25318 0.0
C150 C 1.02117 0.53265 0.32496 0.0
H151 H 0.99367 0.44621 0.4365 0.0
H152 H 0.99502 0.46634 0.36369 0.0
H153 H 1.03021 0.45186 0.38505 0.0
H154 H 0.06801 0.48448 0.32315 0.0
H155 H 0.0675 0.49039 0.19715 0.0
H156 H 0.51543 0.03095 0.20545 0.0
H157 H 0.50856 0.03111 0.33298 0.0
H158 H 0.58667 0.98598 0.34753 0.0
H159 H 0.59382 0.98602 0.22104 0.0
H160 H 0.49219 0.98911 0.41689 0.0
H161 H 0.61854 0.04816 0.49707 0.0
H162 H 0.60124 0.04572 0.40859 0.0
H163 H 0.61913 0.01899 0.43763 0.0
C164 C 0.53117 0.02114 0.23597 0.0
C165 C 0.55539 0.00869 0.20309 0.0
C166 C 0.52723 0.02122 0.30891 0.0
C167 C 0.54757 0.00903 0.35058 0.0
C168 C 0.57124 0.99613 0.3173 0.0
H169 H 0.56319 0.98582 0.79858 0.0
H170 H 0.57011 0.98561 0.67105 0.0
C171 C 0.57515 0.99603 0.24467 0.0
C172 C 0.54378 0.00931 0.42842 0.0
H173 H 0.58663 0.0277 0.58707 0.0
C174 C 0.5128 0.99772 0.45403 0.0
C175 C 0.57067 0.02039 0.47738 0.0
C176 C 0.60419 0.03425 0.45397 0.0
C177 C 0.50815 0.99643 0.52658 0.0
C178 C 0.53503 1.0075 0.57553 0.0
C179 C 0.56602 0.01909 0.54992 0.0
C180 C 0.53123 1.00781 0.65337 0.0
C181 C 0.47463 0.98259 0.55 0.0
C182 C 0.50762 0.02079 0.68659 0.0
C183 C 0.50369 0.02092 0.75923 0.0
C184 C 0.52336 1.0082 0.80085 0.0
C185 C 0.54752 0.99567 0.76802 0.0
C186 C 0.55149 0.99557 0.69509 0.0
H187 H 0.46024 0.9687 0.50689 0.0
H188 H 0.47757 0.9711 0.59535 0.0
H189 H 0.45971 0.99786 0.5664 0.0
H190 H 0.49225 0.03098 0.65632 0.0
H191 H 0.48506 0.03099 0.78281 0.0
H192 H 0.57541 0.52745 0.8113 0.0
H193 H 0.57868 0.53333 0.68522 0.0
H194 H 0.48847 0.47328 0.64252 0.0
H195 H 0.48493 0.46759 0.76766 0.0
H196 H 0.5839 0.4958 0.57232 0.0
H197 H 0.46728 0.534 0.53879 0.0
H198 H 0.48621 0.53259 0.62409 0.0
H199 H 0.46106 0.50292 0.57773 0.0
C200 C 0.55616 0.51569 0.77499 0.0
C201 C 0.52986 0.4971 0.79962 0.0
C202 C 0.55807 0.51901 0.70289 0.0
C203 C 0.53355 0.50404 0.65403 0.0
C204 C 0.50732 0.48552 0.67886 0.0
H205 H 0.50144 0.48924 0.19511 0.0
H206 H 0.49821 0.48341 0.32121 0.0
C207 C 0.50544 0.48217 0.75062 0.0
C208 C 0.53582 0.50697 0.57697 0.0
H209 H 0.4929 0.52109 0.43405 0.0
C210 C 0.5641 0.50152 0.54226 0.0
C211 C 0.50992 0.51425 0.53718 0.0
C212 C 0.47954 0.52153 0.57136 0.0
C213 C 0.56688 0.50265 0.4692 0.0
C214 C 0.54098 0.50991 0.42941 0.0
C215 C 0.51271 0.51537 0.46411 0.0
C216 C 0.54323 0.51282 0.35235 0.0
C217 C 0.59727 0.49539 0.43501 0.0
C218 C 0.56939 0.53139 0.32747 0.0
C219 C 0.57124 0.53473 0.2557 0.0
C220 C 0.54687 0.51971 0.20673 0.0
C221 C 0.52065 0.50106 0.23139 0.0
C222 C 0.51876 0.49777 0.30351 0.0
H223 H 0.6096 0.48298 0.46764 0.0
H224 H 0.59059 0.48428 0.38235 0.0
H225 H 0.61569 0.51401 0.42847 0.0
H226 H 0.5882 0.54369 0.3638 0.0
H227 H 0.59169 0.54935 0.23863 0.0
H228 H 0.14346 0.47156 0.05106 0.0
H229 H 0.20379 0.47278 0.05204 0.0
H230 H 0.22028 0.55031 0.97347 0.0
H231 H 0.16009 0.54941 0.97339 0.0
H232 H 0.24778 0.47507 0.94761 0.0
H233 H 0.28806 0.56548 0.13549 0.0
H234 H 0.24481 0.54875 0.12223 0.0
H235 H 0.26393 0.57126 0.06114 0.0
C236 C 0.15986 0.48901 0.03442 0.0
C237 C 0.1465 0.51046 0.01259 0.0
C238 C 0.19456 0.48966 0.03486 0.0
C239 C 0.21718 0.51184 0.01401 0.0
C240 C 0.20386 0.53319 0.99162 0.0
H241 H 0.43628 0.54976 0.97209 0.0
H242 H 0.37618 0.54999 0.97192 0.0
C243 C 0.16916 0.53256 0.99114 0.0
C244 C 0.25437 0.51223 0.01391 0.0
H245 H 0.33114 0.54843 0.07631 0.0
C246 C 0.2659 0.49109 0.97614 0.0
C247 C 0.27851 0.53309 0.0507 0.0
C248 C 0.26827 0.5558 0.09524 0.0
C249 C 0.30037 0.49045 0.97315 0.0
C250 C 0.32451 0.51125 0.01016 0.0
C251 C 0.313 0.53244 0.04771 0.0
C252 C 0.36159 0.51122 0.01108 0.0
C253 C 0.31058 0.46772 0.92859 0.0
C254 C 0.37412 0.48966 0.0343 0.0
C255 C 0.40859 0.48947 0.03443 0.0
C256 C 0.43187 0.51096 0.01181 0.0
C257 C 0.41938 0.53278 0.98975 0.0
C258 C 0.38483 0.53295 0.98969 0.0
H259 H 0.29091 0.45824 0.8879 0.0
H260 H 0.33422 0.4747 0.90212 0.0
H261 H 0.31456 0.45212 0.96257 0.0
H262 H 0.35722 0.47289 0.05289 0.0
H263 H 0.41695 0.47234 0.05229 0.0
H264 H 0.73015 0.13958 0.0831 0.0
H265 H 0.76764 0.18369 0.09366 0.0
H266 H 0.74767 0.19102 0.87505 0.0
H267 H 0.71003 0.14693 0.86405 0.0
H268 H 0.82626 0.19782 0.0032 0.0
H269 H 0.73243 0.26277 0.98827 0.0
H270 H 0.72193 0.22923 0.01472 0.0
H271 H 0.72799 0.23413 0.92396 0.0
C272 C 0.73343 0.15073 0.0375 0.0
C273 C 0.71715 0.13981 0.97274 0.0
C274 C 0.75492 0.17584 0.04356 0.0
C275 C 0.76015 0.19064 0.98529 0.0
C276 C 0.74367 0.17998 0.92077 0.0
H277 H 0.88344 0.34507 0.9197 0.0
H278 H 0.84241 0.30281 0.9093 0.0
C279 C 0.72241 0.15475 0.91447 0.0
C280 C 0.78411 0.21666 0.99125 0.0
H281 H 0.78943 0.28407 0.99065 0.0
C282 C 0.81827 0.21671 1.00071 0.0
C283 C 0.77351 0.24116 0.98732 0.0
C284 C 0.73696 0.24207 0.97844 0.0
C285 C 0.84229 0.24067 0.00561 0.0
C286 C 0.83172 0.2653 0.00288 0.0
C287 C 0.79749 0.2652 0.99299 0.0
C288 C 0.85587 0.29135 0.01033 0.0
C289 C 0.87881 0.23926 0.01196 0.0
C290 C 0.87661 0.29922 0.07117 0.0
C291 C 0.90033 0.32318 0.07696 0.0
C292 C 0.90359 0.34 0.02231 0.0
C293 C 0.88204 0.33242 0.96228 0.0
C294 C 0.85838 0.30836 0.95644 0.0
H295 H 0.88308 0.21905 0.99316 0.0
H296 H 0.89433 0.25424 0.98161 0.0
H297 H 0.88746 0.24356 0.06797 0.0
H298 H 0.87465 0.28668 0.11406 0.0
H299 H 0.91664 0.32819 0.12367 0.0
H300 H 0.4987 0.91412 0.04734 0.0
H301 H 0.49931 0.86644 0.04531 0.0
H302 H 0.58533 0.8769 0.9162 0.0
H303 H 0.58556 0.92489 0.91999 0.0
H304 H 0.49131 0.82713 0.94341 0.0
H305 H 0.61831 0.83721 0.06367 0.0
H306 H 0.59794 0.86534 0.06152 0.0
H307 H 0.61851 0.85399 0.98553 0.0
C308 C 0.51792 0.90638 0.01871 0.0
C309 C 0.54228 0.92357 0.98428 0.0
C310 C 0.5182 0.87898 0.01755 0.0
C311 C 0.54277 0.86788 0.98185 0.0
C312 C 0.56668 0.8849 0.94603 0.0
H313 H 0.57778 0.70551 0.89339 0.0
H314 H 0.57728 0.75333 0.89683 0.0
C315 C 0.56662 0.91241 0.94773 0.0
C316 C 0.54275 0.83851 0.98102 0.0
H317 H 0.5916 0.79349 0.01476 0.0
C318 C 0.51323 0.81986 0.95949 0.0
C319 C 0.57124 0.82873 1.00215 0.0
C320 C 0.60317 0.84735 0.0302 0.0
C321 C 0.51161 0.792 0.95721 0.0
C322 C 0.54019 0.7823 0.97745 0.0
C323 C 0.5697 0.80086 0.99902 0.0
C324 C 0.54011 0.75298 0.97574 0.0
C325 C 0.47947 0.77312 0.93169 0.0
C326 C 0.51964 0.7367 0.0195 0.0
C327 C 0.51986 0.70921 0.0177 0.0
C328 C 0.54047 0.69728 0.97181 0.0
C329 C 0.56111 0.71376 0.92849 0.0
C330 C 0.56105 0.74123 0.93072 0.0
H331 H 0.46232 0.78341 0.90383 0.0
H332 H 0.48462 0.75618 0.89583 0.0
H333 H 0.46646 0.76471 0.97737 0.0
H334 H 0.5036 0.7453 0.05548 0.0
H335 H 0.50358 0.69723 0.05171 0.0
H336 H 0.91663 0.46743 0.02416 0.0
H337 H 0.85631 0.46641 0.02238 0.0
H338 H 0.87404 0.54676 0.96117 0.0
H339 H 0.9342 0.54769 0.96137 0.0
H340 H 0.81856 0.4957 0.09658 0.0
H341 H 0.80261 0.5114 0.8168 0.0
H342 H 0.84054 0.50382 0.85231 0.0
H343 H 0.83318 0.53747 0.86384 0.0
C344 C 0.90777 0.48486 0.00977 0.0
C345 C 0.93068 0.50757 0.99232 0.0
C346 C 0.87306 0.48427 0.00893 0.0
C347 C 0.86001 0.5063 0.99031 0.0
C348 C 0.88291 0.52912 0.9738 0.0
H349 H 0.66047 0.54553 0.96245 0.0
H350 H 0.72024 0.54487 0.96262 0.0
C351 C 0.91759 0.5297 0.9744 0.0
C352 C 0.82274 0.50562 0.98992 0.0
H353 H 0.75637 0.51473 0.88823 0.0
C354 C 0.80501 0.4997 0.05073 0.0
C355 C 0.80455 0.51085 0.93045 0.0
C356 C 0.82109 0.51598 0.86194 0.0
C357 C 0.77034 0.49952 0.05434 0.0
C358 C 0.75217 0.50485 0.99494 0.0
C359 C 0.76989 0.51066 0.93405 0.0
C360 C 0.71508 0.50492 0.995 0.0
C361 C 0.7538 0.49446 0.12288 0.0
C362 C 0.69146 0.48259 0.0121 0.0
C363 C 0.65698 0.48295 0.01233 0.0
C364 C 0.64488 0.50557 0.9947 0.0
C365 C 0.66851 0.52771 0.97643 0.0
C366 C 0.70295 0.52735 0.97645 0.0
H367 H 0.77233 0.49861 0.16791 0.0
H368 H 0.73477 0.507 0.13296 0.0
H369 H 0.74115 0.47309 0.1206 0.0
H370 H 0.69961 0.46466 0.02477 0.0
H371 H 0.63978 0.46541 0.02621 0.0
H372 H 0.15646 0.6934 0.08523 0.0
H373 H 0.19881 0.73487 0.0951 0.0
H374 H 0.24271 0.70726 0.90616 0.0
H375 H 0.20013 0.66586 0.89549 0.0
H376 H 0.26696 0.74464 0.10793 0.0
H377 H 0.22689 0.77937 0.85966 0.0
H378 H 0.20218 0.75167 0.89884 0.0
H379 H 0.23766 0.74694 0.84854 0.0
C380 C 0.17532 0.69605 0.04612 0.0
C381 C 0.17481 0.67643 0.98929 0.0
C382 C 0.19943 0.71981 0.05168 0.0
C383 C 0.22354 0.72443 1.00062 0.0
C384 C 0.22381 0.70448 0.94513 0.0
H385 H 0.38673 0.85974 0.95501 0.0
H386 H 0.34957 0.8156 0.9455 0.0
C387 C 0.19954 0.68079 0.93921 0.0
C388 C 0.2482 0.75021 0.00548 0.0
H389 H 0.27613 0.80516 0.91824 0.0
C390 C 0.26893 0.75788 0.06648 0.0
C391 C 0.25071 0.76752 0.95139 0.0
C392 C 0.22798 0.76114 0.8862 0.0
C393 C 0.2922 0.78229 0.07465 0.0
C394 C 0.29464 0.79952 0.02064 0.0
C395 C 0.27424 0.79179 0.95937 0.0
C396 C 0.31753 0.82607 0.0276 0.0
C397 C 0.31423 0.78943 0.1407 0.0
C398 C 0.31158 0.84662 0.07648 0.0
C399 C 0.33244 0.87199 0.08141 0.0
C400 C 0.35977 0.87733 0.03761 0.0
C401 C 0.36568 0.85654 0.98888 0.0
C402 C 0.34463 0.83123 0.98366 0.0
H403 H 0.31425 0.77179 0.17039 0.0
H404 H 0.34036 0.79801 0.12807 0.0
H405 H 0.30494 0.80482 0.17521 0.0
H406 H 0.29044 0.84314 0.11006 0.0
H407 H 0.32668 0.88757 0.11861 0.0
H408 H 0.57477 0.31973 0.95814 0.0
H409 H 0.57471 0.27161 0.9542 0.0
H410 H 0.49787 0.26293 0.10612 0.0
H411 H 0.49745 0.31075 0.10974 0.0
H412 H 0.58663 0.24121 0.06952 0.0
H413 H 0.45991 0.20452 0.94405 0.0
H414 H 0.48244 0.23858 0.94232 0.0
H415 H 0.46198 0.22825 0.02024 0.0
C416 C 0.55767 0.30756 0.99033 0.0
C417 C 0.53615 0.31929 0.03434 0.0
C418 C 0.55778 0.28004 0.98828 0.0
C419 C 0.53603 0.26349 0.02928 0.0
C420 C 0.5146 0.27512 0.07328 0.0
H421 H 0.49204 0.0919 0.08079 0.0
H422 H 0.49289 0.14008 0.08562 0.0
C423 C 0.51465 0.30261 0.07581 0.0
C424 C 0.53608 0.23418 0.02718 0.0
H425 H 0.48711 0.1719 0.98565 0.0
C426 C 0.56494 0.22604 0.05084 0.0
C427 C 0.50771 0.21432 0.00339 0.0
C428 C 0.47629 0.22173 0.97548 0.0
C429 C 0.566 0.19873 0.05267 0.0
C430 C 0.53769 0.17877 0.02823 0.0
C431 C 0.50884 0.187 0.0045 0.0
C432 C 0.53754 0.14935 0.02618 0.0
C433 C 0.59718 0.19165 0.08292 0.0
C434 C 0.56205 0.13816 0.99052 0.0
C435 C 0.5618 0.11065 0.98829 0.0
C436 C 0.53668 0.09338 0.02064 0.0
C437 C 0.51183 0.1045 0.05543 0.0
C438 C 0.51226 0.13212 0.05813 0.0
H439 H 0.61158 0.20844 0.11913 0.0
H440 H 0.59109 0.17362 0.11194 0.0
H441 H 0.61361 0.18747 0.03956 0.0
H442 H 0.58127 0.15066 0.96352 0.0
H443 H 0.58122 0.1029 0.96039 0.0
loop_
_geom_bond_atom_site_label_1
_geom_bond_atom_site_label_2
_geom_bond_distance
_geom_bond_site_symmetry_2
_ccdc_geom_bond_type
Ho0 C3 2.811 . S
Ho0 O20 2.322 . S
Ho0 O22 2.378 . S
Ho0 O23 2.524 1_556 S
Ho0 O24 2.381 . S
Ho0 O25 2.669 1_655 S
Ho0 O27 2.346 1_655 S
Ho0 O31 2.305 1_556 S
Ho1 C12 2.811 . S
Ho1 O21 2.346 1_455 S
Ho1 O25 2.305 1_554 S
Ho1 O26 2.322 . S
Ho1 O28 2.378 . S
Ho1 O29 2.524 1_554 S
Ho1 O30 2.381 . S
Ho1 O31 2.669 1_455 S
C2 O20 1.259 . S
C2 O21 1.268 1_556 S
C3 Ho0 2.811 . S
C3 C4 1.488 . S
C3 O22 1.215 . S
C3 O23 1.289 1_556 S
C4 C3 1.488 . S
C4 C5 1.348 1_556 S
C4 C9 1.413 . S
C5 C4 1.348 1_554 S
C5 C6 1.442 . S
C5 H32 0.930 . S
C6 C5 1.442 . S
C6 C7 1.381 1_554 S
C6 H33 0.931 . S
C7 C6 1.381 1_556 S
C7 C8 1.321 . S
C8 C7 1.321 . S
C8 C9 1.403 . S
C8 H34 0.934 . S
C9 C4 1.413 . S
C9 C8 1.403 . S
C9 H35 0.930 . S
C10 O24 1.271 1_455 S
C10 O25 1.260 . S
C11 O26 1.259 . S
C11 O27 1.268 1_554 S
C12 Ho1 2.811 . S
C12 C13 1.488 . S
C12 O28 1.215 . S
C12 O29 1.289 1_554 S
C13 C12 1.488 . S
C13 C14 1.348 1_554 S
C13 C18 1.413 . S
C14 C13 1.348 1_556 S
C14 C15 1.442 . S
C14 H36 0.930 . S
C15 C14 1.442 . S
C15 C16 1.381 1_556 S
C15 H37 0.931 . S
C16 C15 1.381 1_554 S
C16 C17 1.321 . S
C17 C16 1.321 . S
C17 C18 1.403 . S
C17 H38 0.934 . S
C18 C13 1.413 . S
C18 C17 1.403 . S
C18 H39 0.930 . S
C19 O30 1.275 . S
C19 O31 1.256 1_455 S
O20 Ho0 2.322 . S
O20 C2 1.259 . S
O21 Ho1 2.346 1_655 S
O21 C2 1.268 1_554 S
O22 Ho0 2.378 . S
O22 C3 1.215 . S
O23 Ho0 2.524 1_554 S
O23 C3 1.289 1_554 S
O24 Ho0 2.381 . S
O24 C10 1.271 1_655 S
O25 Ho0 2.669 1_455 S
O25 Ho1 2.305 1_556 S
O25 C10 1.260 . S
O26 Ho1 2.322 . S
O26 C11 1.259 . S
O27 Ho0 2.346 1_455 S
O27 C11 1.268 1_556 S
O28 Ho1 2.378 . S
O28 C12 1.215 . S
O29 Ho1 2.524 1_556 S
O29 C12 1.289 1_556 S
O30 Ho1 2.381 . S
O30 C19 1.275 . S
O31 Ho0 2.305 1_554 S
O31 Ho1 2.669 1_655 S
O31 C19 1.256 1_655 S
H32 C5 0.930 . S
H33 C6 0.931 . S
H34 C8 0.934 . S
H35 C9 0.930 . S
H36 C14 0.930 . S
H37 C15 0.931 . S
H38 C17 0.934 . S
H39 C18 0.930 . S
Ho40 C43 2.812 . S
Ho40 O60 2.322 . S
Ho40 O62 2.378 . S
Ho40 O63 2.524 1_554 S
Ho40 O64 2.381 . S
Ho40 O65 2.669 1_545 S
Ho40 O67 2.346 1_545 S
Ho40 O71 2.305 1_554 S
Ho41 C52 2.811 . S
Ho41 O61 2.346 1_565 S
Ho41 O65 2.305 1_556 S
Ho41 O66 2.322 . S
Ho41 O68 2.378 . S
Ho41 O69 2.524 1_556 S
Ho41 O70 2.381 . S
Ho41 O71 2.669 1_565 S
C42 O60 1.259 . S
C42 O61 1.268 1_554 S
C43 Ho40 2.812 . S
C43 C44 1.487 1_554 S
C43 O62 1.221 . S
C43 O63 1.285 1_554 S
C44 C43 1.487 1_556 S
C44 C45 1.348 . S
C44 C49 1.413 1_556 S
C45 C44 1.348 . S
C45 C46 1.442 . S
C45 H72 0.930 . S
C46 C45 1.442 . S
C46 C47 1.381 . S
C46 H73 0.931 . S
C47 C46 1.381 . S
C47 C48 1.321 1_556 S
C48 C47 1.321 1_554 S
C48 C49 1.403 . S
C48 H74 0.934 . S
C49 C44 1.413 1_554 S
C49 C48 1.403 . S
C49 H75 0.930 . S
C50 O64 1.275 . S
C50 O65 1.256 1_545 S
C51 O66 1.259 . S
C51 O67 1.268 1_556 S
C52 Ho41 2.811 . S
C52 C53 1.488 1_556 S
C52 O68 1.214 . S
C52 O69 1.290 1_556 S
C53 C52 1.488 1_554 S
C53 C54 1.348 . S
C53 C58 1.413 1_554 S
C54 C53 1.348 . S
C54 C55 1.442 . S
C54 H76 0.930 . S
C55 C54 1.442 . S
C55 C56 1.381 . S
C55 H77 0.931 . S
C56 C55 1.381 . S
C56 C57 1.321 1_554 S
C57 C56 1.321 1_556 S
C57 C58 1.403 . S
C57 H78 0.934 . S
C58 C53 1.413 1_556 S
C58 C57 1.403 . S
C58 H79 0.930 . S
C59 O70 1.275 . S
C59 O71 1.256 1_565 S
O60 Ho40 2.322 . S
O60 C42 1.259 . S
O61 Ho41 2.346 1_545 S
O61 C42 1.268 1_556 S
O62 Ho40 2.378 . S
O62 C43 1.221 . S
O63 Ho40 2.524 1_556 S
O63 C43 1.285 1_556 S
O64 Ho40 2.381 . S
O64 C50 1.275 . S
O65 Ho40 2.669 1_565 S
O65 Ho41 2.305 1_554 S
O65 C50 1.256 1_565 S
O66 Ho41 2.322 . S
O66 C51 1.259 . S
O67 Ho40 2.346 1_565 S
O67 C51 1.268 1_554 S
O68 Ho41 2.378 . S
O68 C52 1.214 . S
O69 Ho41 2.524 1_554 S
O69 C52 1.290 1_554 S
O70 Ho41 2.381 . S
O70 C59 1.275 . S
O71 Ho40 2.305 1_556 S
O71 Ho41 2.669 1_545 S
O71 C59 1.256 1_545 S
H72 C45 0.930 . S
H73 C46 0.931 . S
H74 C48 0.934 . S
H75 C49 0.930 . S
H76 C54 0.930 . S
H77 C55 0.931 . S
H78 C57 0.934 . S
H79 C58 0.930 . S
Ho80 C83 2.811 . S
Ho80 O100 2.322 . S
Ho80 O102 2.378 . S
Ho80 O103 2.524 1_554 S
Ho80 O104 2.381 . S
Ho80 O105 2.669 . S
Ho80 O107 2.346 . S
Ho80 O111 2.305 1_554 S
Ho81 C92 2.811 . S
Ho81 O101 2.346 . S
Ho81 O105 2.305 1_556 S
Ho81 O106 2.322 . S
Ho81 O108 2.378 . S
Ho81 O109 2.524 1_556 S
Ho81 O110 2.381 . S
Ho81 O111 2.669 . S
C82 O100 1.259 . S
C82 O101 1.268 1_554 S
C83 Ho80 2.811 . S
C83 C84 1.488 . S
C83 O102 1.215 . S
C83 O103 1.289 1_554 S
C84 C83 1.488 . S
C84 C85 1.348 1_554 S
C84 C89 1.413 . S
C85 C84 1.348 1_556 S
C85 C86 1.442 . S
C85 H112 0.930 . S
C86 C85 1.442 . S
C86 C87 1.381 1_556 S
C86 H113 0.931 . S
C87 C86 1.381 1_554 S
C87 C88 1.321 . S
C88 C87 1.321 . S
C88 C89 1.403 . S
C88 H114 0.934 . S
C89 C84 1.413 . S
C89 C88 1.403 . S
C89 H115 0.930 . S
C90 O104 1.275 . S
C90 O105 1.256 . S
C91 O106 1.259 . S
C91 O107 1.268 1_556 S
C92 Ho81 2.811 . S
C92 C93 1.488 . S
C92 O108 1.215 . S
C92 O109 1.289 1_556 S
C93 C92 1.488 . S
C93 C94 1.348 1_556 S
C93 C98 1.413 . S
C94 C93 1.348 1_554 S
C94 C95 1.442 . S
C94 H116 0.930 . S
C95 C94 1.442 . S
C95 C96 1.381 1_554 S
C95 H117 0.931 . S
C96 C95 1.381 1_556 S
C96 C97 1.321 . S
C97 C96 1.321 . S
C97 C98 1.403 . S
C97 H118 0.934 . S
C98 C93 1.413 . S
C98 C97 1.403 . S
C98 H119 0.930 . S
C99 O110 1.275 . S
C99 O111 1.256 . S
O100 Ho80 2.322 . S
O100 C82 1.259 . S
O101 Ho81 2.346 . S
O101 C82 1.268 1_556 S
O102 Ho80 2.378 . S
O102 C83 1.215 . S
O103 Ho80 2.524 1_556 S
O103 C83 1.289 1_556 S
O104 Ho80 2.381 . S
O104 C90 1.275 . S
O105 Ho80 2.669 . S
O105 Ho81 2.305 1_554 S
O105 C90 1.256 . S
O106 Ho81 2.322 . S
O106 C91 1.259 . S
O107 Ho80 2.346 . S
O107 C91 1.268 1_554 S
O108 Ho81 2.378 . S
O108 C92 1.215 . S
O109 Ho81 2.524 1_554 S
O109 C92 1.289 1_554 S
O110 Ho81 2.381 . S
O110 C99 1.275 . S
O111 Ho80 2.305 1_556 S
O111 Ho81 2.669 . S
O111 C99 1.256 . S
H112 C85 0.930 . S
H113 C86 0.931 . S
H114 C88 0.934 . S
H115 C89 0.930 . S
H116 C94 0.930 . S
H117 C95 0.931 . S
H118 C97 0.934 . S
H119 C98 0.930 . S
H120 C128 0.929 . S
H121 C130 0.930 . S
H122 C132 0.930 . S
H123 C135 0.929 . S
H124 C138 0.930 . S
H125 C140 0.960 . S
H126 C140 0.960 1_455 S
H127 C140 0.960 . S
C128 H120 0.929 . S
C128 C129 1.377 . S
C128 C130 1.384 . S
C129 C128 1.377 . S
C129 C135 1.390 1_455 S
C130 H121 0.930 . S
C130 C128 1.384 . S
C130 C131 1.372 . S
C131 C130 1.372 . S
C131 C132 1.400 1_455 S
C131 C136 1.490 . S
C132 H122 0.930 . S
C132 C131 1.400 1_655 S
C132 C135 1.386 . S
H133 C149 0.930 . S
H134 C150 0.931 . S
C135 H123 0.929 . S
C135 C129 1.390 1_655 S
C135 C132 1.386 . S
C136 C131 1.490 . S
C136 C138 1.395 . S
C136 C139 1.403 1_455 S
H137 C143 0.930 . S
C138 H124 0.930 . S
C138 C136 1.395 . S
C138 C141 1.403 . S
C139 C136 1.403 1_655 S
C139 C140 1.524 . S
C139 C143 1.400 . S
C140 H125 0.960 . S
C140 H126 0.960 1_655 S
C140 H127 0.960 . S
C140 C139 1.524 . S
C141 C138 1.403 . S
C141 C142 1.392 . S
C141 C145 1.495 . S
C142 C141 1.392 . S
C142 C143 1.385 1_455 S
C142 C144 1.478 . S
C143 H137 0.930 . S
C143 C139 1.400 . S
C143 C142 1.385 1_655 S
C144 C142 1.478 . S
C144 C146 1.381 . S
C144 C150 1.383 1_455 S
C145 C141 1.495 . S
C145 H151 0.959 . S
C145 H152 0.961 1_455 S
C145 H153 0.960 . S
C146 C144 1.381 . S
C146 C147 1.394 . S
C146 H154 0.930 . S
C147 C146 1.394 . S
C147 C148 1.370 1_455 S
C147 H155 0.929 . S
C148 C147 1.370 1_655 S
C148 C149 1.389 . S
C149 H133 0.930 . S
C149 C148 1.389 . S
C149 C150 1.379 . S
C150 H134 0.931 . S
C150 C144 1.383 1_655 S
C150 C149 1.379 . S
H151 C145 0.959 . S
H152 C145 0.961 1_655 S
H153 C145 0.960 . S
H154 C146 0.930 . S
H155 C147 0.929 . S
H156 C164 0.929 . S
H157 C166 0.930 . S
H158 C168 0.930 . S
H159 C171 0.929 . S
H160 C174 0.930 . S
H161 C176 0.960 . S
H162 C176 0.960 . S
H163 C176 0.960 . S
C164 H156 0.929 . S
C164 C165 1.398 . S
C164 C166 1.384 . S
C165 C164 1.398 . S
C165 C171 1.366 1_545 S
C166 H157 0.930 . S
C166 C164 1.384 . S
C166 C167 1.372 . S
C167 C166 1.372 . S
C167 C168 1.400 1_545 S
C167 C172 1.494 . S
C168 H158 0.930 . S
C168 C167 1.400 1_565 S
C168 C171 1.386 . S
H169 C185 0.930 . S
H170 C186 0.931 . S
C171 H159 0.929 . S
C171 C165 1.366 1_565 S
C171 C168 1.386 . S
C172 C167 1.494 . S
C172 C174 1.386 1_545 S
C172 C175 1.409 . S
H173 C179 0.930 . S
C174 H160 0.930 . S
C174 C172 1.386 1_565 S
C174 C177 1.403 . S
C175 C172 1.409 . S
C175 C176 1.524 . S
C175 C179 1.400 . S
C176 H161 0.960 . S
C176 H162 0.960 . S
C176 H163 0.960 . S
C176 C175 1.524 . S
C177 C174 1.403 . S
C177 C178 1.392 . S
C177 C181 1.495 . S
C178 C177 1.392 . S
C178 C179 1.385 1_565 S
C178 C180 1.478 . S
C179 H173 0.930 . S
C179 C175 1.400 . S
C179 C178 1.385 1_545 S
C180 C178 1.478 . S
C180 C182 1.381 1_565 S
C180 C186 1.383 . S
C181 C177 1.495 . S
C181 H187 0.959 . S
C181 H188 0.961 . S
C181 H189 0.960 . S
C182 C180 1.381 1_545 S
C182 C183 1.394 . S
C182 H190 0.930 . S
C183 C182 1.394 . S
C183 C184 1.383 1_545 S
C183 H191 0.929 . S
C184 C183 1.383 1_565 S
C184 C185 1.377 . S
C185 H169 0.930 . S
C185 C184 1.377 . S
C185 C186 1.379 . S
C186 H170 0.931 . S
C186 C180 1.383 . S
C186 C185 1.379 . S
H187 C181 0.959 . S
H188 C181 0.961 . S
H189 C181 0.960 . S
H190 C182 0.930 . S
H191 C183 0.929 . S
H192 C200 0.929 . S
H193 C202 0.930 . S
H194 C204 0.930 . S
H195 C207 0.929 . S
H196 C210 0.930 . S
H197 C212 0.960 . S
H198 C212 0.960 . S
H199 C212 0.960 . S
C200 H192 0.929 . S
C200 C201 1.377 . S
C200 C202 1.384 . S
C201 C200 1.377 . S
C201 C207 1.390 . S
C202 H193 0.930 . S
C202 C200 1.384 . S
C202 C203 1.372 . S
C203 C202 1.372 . S
C203 C204 1.400 . S
C203 C208 1.490 . S
C204 H194 0.930 . S
C204 C203 1.400 . S
C204 C207 1.386 . S
H205 C221 0.930 . S
H206 C222 0.931 . S
C207 H195 0.929 . S
C207 C201 1.390 . S
C207 C204 1.386 . S
C208 C203 1.490 . S
C208 C210 1.395 . S
C208 C211 1.403 . S
H209 C215 0.930 . S
C210 H196 0.930 . S
C210 C208 1.395 . S
C210 C213 1.403 . S
C211 C208 1.403 . S
C211 C212 1.524 . S
C211 C215 1.400 . S
C212 H197 0.960 . S
C212 H198 0.960 . S
C212 H199 0.960 . S
C212 C211 1.524 . S
C213 C210 1.403 . S
C213 C214 1.392 . S
C213 C217 1.495 . S
C214 C213 1.392 . S
C214 C215 1.385 . S
C214 C216 1.478 . S
C215 H209 0.930 . S
C215 C211 1.400 . S
C215 C214 1.385 . S
C216 C214 1.478 . S
C216 C218 1.381 . S
C216 C222 1.383 . S
C217 C213 1.495 . S
C217 H223 0.959 . S
C217 H224 0.961 . S
C217 H225 0.960 . S
C218 C216 1.381 . S
C218 C219 1.394 . S
C218 H226 0.930 . S
C219 C218 1.394 . S
C219 C220 1.383 . S
C219 H227 0.929 . S
C220 C219 1.383 . S
C220 C221 1.377 . S
C221 H205 0.930 . S
C221 C220 1.377 . S
C221 C222 1.379 . S
C222 H206 0.931 . S
C222 C216 1.383 . S
C222 C221 1.379 . S
H223 C217 0.959 . S
H224 C217 0.961 . S
H225 C217 0.960 . S
H226 C218 0.930 . S
H227 C219 0.929 . S
H228 C236 0.929 . S
H229 C238 0.930 . S
H230 C240 0.930 . S
H231 C243 0.929 . S
H232 C246 0.930 . S
H233 C248 0.960 . S
H234 C248 0.960 . S
H235 C248 0.960 . S
C236 H228 0.929 . S
C236 C237 1.377 . S
C236 C238 1.384 . S
C237 C236 1.377 . S
C237 C243 1.390 1_556 S
C238 H229 0.930 . S
C238 C236 1.384 . S
C238 C239 1.372 . S
C239 C238 1.372 . S
C239 C240 1.400 1_556 S
C239 C244 1.490 . S
C240 H230 0.930 . S
C240 C239 1.400 1_554 S
C240 C243 1.386 . S
H241 C257 0.930 . S
H242 C258 0.931 . S
C243 H231 0.929 . S
C243 C237 1.390 1_554 S
C243 C240 1.386 . S
C244 C239 1.490 . S
C244 C246 1.395 . S
C244 C247 1.403 1_556 S
H245 C251 0.930 . S
C246 H232 0.930 . S
C246 C244 1.395 . S
C246 C249 1.403 . S
C247 C244 1.403 1_554 S
C247 C248 1.524 . S
C247 C251 1.400 . S
C248 H233 0.960 . S
C248 H234 0.960 . S
C248 H235 0.960 . S
C248 C247 1.524 . S
C249 C246 1.403 . S
C249 C250 1.392 . S
C249 C253 1.495 . S
C250 C249 1.392 . S
C250 C251 1.385 1_556 S
C250 C252 1.478 . S
C251 H245 0.930 . S
C251 C247 1.400 . S
C251 C250 1.385 1_554 S
C252 C250 1.478 . S
C252 C254 1.381 . S
C252 C258 1.383 1_556 S
C253 C249 1.495 . S
C253 H259 0.959 . S
C253 H260 0.961 . S
C253 H261 0.960 . S
C254 C252 1.381 . S
C254 C255 1.394 . S
C254 H262 0.930 . S
C255 C254 1.394 . S
C255 C256 1.383 . S
C255 H263 0.929 . S
C256 C255 1.383 . S
C256 C257 1.377 1_556 S
C257 H241 0.930 . S
C257 C256 1.377 1_554 S
C257 C258 1.379 . S
C258 H242 0.931 . S
C258 C252 1.383 1_554 S
C258 C257 1.379 . S
H259 C253 0.959 . S
H260 C253 0.961 . S
H261 C253 0.960 . S
H262 C254 0.930 . S
H263 C255 0.929 . S
H264 C272 0.929 . S
H265 C274 0.930 . S
H266 C276 0.930 . S
H267 C279 0.929 . S
H268 C282 0.930 . S
H269 C284 0.960 . S
H270 C284 0.960 . S
H271 C284 0.960 1_556 S
C272 H264 0.929 . S
C272 C273 1.377 1_554 S
C272 C274 1.384 . S
C273 C272 1.377 1_556 S
C273 C279 1.390 . S
C274 H265 0.930 . S
C274 C272 1.384 . S
C274 C275 1.372 1_554 S
C275 C274 1.372 1_556 S
C275 C276 1.399 . S
C275 C280 1.490 1_556 S
C276 H266 0.930 . S
C276 C275 1.399 . S
C276 C279 1.386 . S
H277 C293 0.930 . S
H278 C294 0.931 . S
C279 H267 0.929 . S
C279 C273 1.390 . S
C279 C276 1.386 . S
C280 C275 1.490 1_554 S
C280 C282 1.395 1_554 S
C280 C283 1.403 . S
H281 C287 0.930 . S
C282 H268 0.930 . S
C282 C280 1.395 1_556 S
C282 C285 1.403 . S
C283 C280 1.403 . S
C283 C284 1.524 . S
C283 C287 1.400 . S
C284 H269 0.960 . S
C284 H270 0.960 . S
C284 H271 0.960 1_554 S
C284 C283 1.524 . S
C285 C282 1.403 . S
C285 C286 1.392 . S
C285 C289 1.495 . S
C286 C285 1.392 . S
C286 C287 1.385 1_556 S
C286 C288 1.478 . S
C287 H281 0.930 . S
C287 C283 1.400 . S
C287 C286 1.385 1_554 S
C288 C286 1.478 . S
C288 C290 1.381 1_556 S
C288 C294 1.383 . S
C289 C285 1.495 . S
C289 H295 0.959 . S
C289 H296 0.961 . S
C289 H297 0.960 1_556 S
C290 C288 1.381 1_554 S
C290 C291 1.394 . S
C290 H298 0.930 . S
C291 C290 1.394 . S
C291 C292 1.383 1_554 S
C291 H299 0.929 . S
C292 C291 1.383 1_556 S
C292 C293 1.377 . S
C293 H277 0.930 . S
C293 C292 1.377 . S
C293 C294 1.379 . S
C294 H278 0.931 . S
C294 C288 1.383 . S
C294 C293 1.379 . S
H295 C289 0.959 . S
H296 C289 0.961 . S
H297 C289 0.960 1_554 S
H298 C290 0.930 . S
H299 C291 0.929 . S
H300 C308 0.929 . S
H301 C310 0.930 . S
H302 C312 0.930 . S
H303 C315 0.929 . S
H304 C318 0.930 . S
H305 C320 0.960 . S
H306 C320 0.960 . S
H307 C320 0.960 . S
C308 H300 0.929 . S
C308 C309 1.377 1_554 S
C308 C310 1.384 . S
C309 C308 1.377 1_556 S
C309 C315 1.390 . S
C310 H301 0.930 . S
C310 C308 1.384 . S
C310 C311 1.372 . S
C311 C310 1.372 . S
C311 C312 1.400 1_554 S
C311 C316 1.490 . S
C312 H302 0.930 . S
C312 C311 1.400 1_556 S
C312 C315 1.386 . S
H313 C329 0.930 . S
H314 C330 0.931 . S
C315 H303 0.929 . S
C315 C309 1.390 . S
C315 C312 1.386 . S
C316 C311 1.490 . S
C316 C318 1.395 . S
C316 C319 1.403 1_554 S
H317 C323 0.930 . S
C318 H304 0.930 . S
C318 C316 1.395 . S
C318 C321 1.403 . S
C319 C316 1.403 1_556 S
C319 C320 1.524 . S
C319 C323 1.400 . S
C320 H305 0.960 . S
C320 H306 0.960 . S
C320 H307 0.960 . S
C320 C319 1.524 . S
C321 C318 1.403 . S
C321 C322 1.392 . S
C321 C325 1.495 . S
C322 C321 1.392 . S
C322 C323 1.385 1_554 S
C322 C324 1.478 . S
C323 H317 0.930 . S
C323 C319 1.400 . S
C323 C322 1.385 1_556 S
C324 C322 1.478 . S
C324 C326 1.381 . S
C324 C330 1.383 1_554 S
C325 C321 1.495 . S
C325 H331 0.959 . S
C325 H332 0.961 . S
C325 H333 0.960 . S
C326 C324 1.381 . S
C326 C327 1.394 . S
C326 H334 0.930 . S
C327 C326 1.394 . S
C327 C328 1.383 . S
C327 H335 0.929 . S
C328 C327 1.383 . S
C328 C329 1.377 1_554 S
C329 H313 0.930 . S
C329 C328 1.377 1_556 S
C329 C330 1.379 . S
C330 H314 0.931 . S
C330 C324 1.383 1_556 S
C330 C329 1.379 . S
H331 C325 0.959 . S
H332 C325 0.961 . S
H333 C325 0.960 . S
H334 C326 0.930 . S
H335 C327 0.929 . S
H336 C344 0.929 . S
H337 C346 0.930 . S
H338 C348 0.930 . S
H339 C351 0.929 . S
H340 C354 0.930 . S
H341 C356 0.960 . S
H342 C356 0.960 1_556 S
H343 C356 0.960 . S
C344 H336 0.929 . S
C344 C345 1.377 1_556 S
C344 C346 1.384 . S
C345 C344 1.377 1_554 S
C345 C351 1.390 . S
C346 H337 0.930 . S
C346 C344 1.384 . S
C346 C347 1.372 1_556 S
C347 C346 1.372 1_554 S
C347 C348 1.400 . S
C347 C352 1.490 . S
C348 H338 0.930 . S
C348 C347 1.400 . S
C348 C351 1.386 . S
H349 C365 0.930 . S
H350 C366 0.931 . S
C351 H339 0.929 . S
C351 C345 1.390 . S
C351 C348 1.386 . S
C352 C347 1.490 . S
C352 C354 1.395 1_554 S
C352 C355 1.403 . S
H353 C359 0.930 . S
C354 H340 0.930 . S
C354 C352 1.395 1_556 S
C354 C357 1.403 . S
C355 C352 1.403 . S
C355 C356 1.524 . S
C355 C359 1.400 . S
C356 H341 0.960 . S
C356 H342 0.960 1_554 S
C356 H343 0.960 . S
C356 C355 1.524 . S
C357 C354 1.403 . S
C357 C358 1.392 1_556 S
C357 C361 1.495 . S
C358 C357 1.392 1_554 S
C358 C359 1.385 . S
C358 C360 1.478 . S
C359 H353 0.930 . S
C359 C355 1.400 . S
C359 C358 1.385 . S
C360 C358 1.478 . S
C360 C362 1.381 1_554 S
C360 C366 1.383 . S
C361 C357 1.495 . S
C361 H367 0.959 . S
C361 H368 0.961 1_556 S
C361 H369 0.960 . S
C362 C360 1.381 1_556 S
C362 C363 1.394 . S
C362 H370 0.930 . S
C363 C362 1.394 . S
C363 C364 1.383 1_556 S
C363 H371 0.929 . S
C364 C363 1.383 1_554 S
C364 C365 1.377 . S
C365 H349 0.930 . S
C365 C364 1.377 . S
C365 C366 1.379 . S
C366 H350 0.931 . S
C366 C360 1.383 . S
C366 C365 1.379 . S
H367 C361 0.959 . S
H368 C361 0.961 1_554 S
H369 C361 0.960 . S
H370 C362 0.930 . S
H371 C363 0.929 . S
H372 C380 0.929 . S
H373 C382 0.930 . S
H374 C384 0.930 . S
H375 C387 0.929 . S
H376 C390 0.930 . S
H377 C392 0.960 . S
H378 C392 0.960 . S
H379 C392 0.960 . S
C380 H372 0.929 . S
C380 C381 1.377 . S
C380 C382 1.384 . S
C381 C380 1.377 . S
C381 C387 1.390 1_554 S
C382 H373 0.930 . S
C382 C380 1.384 . S
C382 C383 1.372 . S
C383 C382 1.372 . S
C383 C384 1.400 1_554 S
C383 C388 1.490 . S
C384 H374 0.930 . S
C384 C383 1.400 1_556 S
C384 C387 1.386 . S
H385 C401 0.930 . S
H386 C402 0.931 . S
C387 H375 0.929 . S
C387 C381 1.390 1_556 S
C387 C384 1.386 . S
C388 C383 1.490 . S
C388 C390 1.395 . S
C388 C391 1.403 1_554 S
H389 C395 0.930 . S
C390 H376 0.930 . S
C390 C388 1.395 . S
C390 C393 1.403 . S
C391 C388 1.403 1_556 S
C391 C392 1.524 . S
C391 C395 1.400 . S
C392 H377 0.960 . S
C392 H378 0.960 . S
C392 H379 0.960 . S
C392 C391 1.524 . S
C393 C390 1.403 . S
C393 C394 1.392 . S
C393 C397 1.495 . S
C394 C393 1.392 . S
C394 C395 1.385 1_554 S
C394 C396 1.478 . S
C395 H389 0.930 . S
C395 C391 1.400 . S
C395 C394 1.385 1_556 S
C396 C394 1.478 . S
C396 C398 1.381 . S
C396 C402 1.383 1_554 S
C397 C393 1.495 . S
C397 H403 0.959 . S
C397 H404 0.961 . S
C397 H405 0.960 . S
C398 C396 1.381 . S
C398 C399 1.394 . S
C398 H406 0.930 . S
C399 C398 1.394 . S
C399 C400 1.383 . S
C399 H407 0.929 . S
C400 C399 1.383 . S
C400 C401 1.377 1_554 S
C401 H385 0.930 . S
C401 C400 1.377 1_556 S
C401 C402 1.379 . S
C402 H386 0.931 . S
C402 C396 1.383 1_556 S
C402 C401 1.379 . S
H403 C397 0.959 . S
H404 C397 0.961 . S
H405 C397 0.960 . S
H406 C398 0.930 . S
H407 C399 0.929 . S
H408 C416 0.929 . S
H409 C418 0.930 . S
H410 C420 0.930 . S
H411 C423 0.929 . S
H412 C426 0.930 . S
H413 C428 0.960 . S
H414 C428 0.960 . S
H415 C428 0.960 1_554 S
C416 H408 0.929 . S
C416 C417 1.377 . S
C416 C418 1.384 . S
C417 C416 1.377 . S
C417 C423 1.390 1_556 S
C418 H409 0.930 . S
C418 C416 1.384 . S
C418 C419 1.372 . S
C419 C418 1.372 . S
C419 C420 1.400 1_556 S
C419 C424 1.490 . S
C420 H410 0.930 . S
C420 C419 1.400 1_554 S
C420 C423 1.386 . S
H421 C437 0.930 . S
H422 C438 0.931 . S
C423 H411 0.929 . S
C423 C417 1.390 1_554 S
C423 C420 1.386 . S
C424 C419 1.490 . S
C424 C426 1.395 1_556 S
C424 C427 1.403 . S
H425 C431 0.930 . S
C426 H412 0.930 . S
C426 C424 1.395 1_554 S
C426 C429 1.403 . S
C427 C424 1.403 . S
C427 C428 1.524 . S
C427 C431 1.400 . S
C428 H413 0.960 . S
C428 H414 0.960 . S
C428 H415 0.960 1_556 S
C428 C427 1.524 . S
C429 C426 1.403 . S
C429 C430 1.392 . S
C429 C433 1.495 . S
C430 C429 1.392 . S
C430 C431 1.383 1_554 S
C430 C432 1.480 . S
C431 H425 0.930 . S
C431 C427 1.400 . S
C431 C430 1.383 1_556 S
C432 C430 1.480 . S
C432 C434 1.381 1_554 S
C432 C438 1.383 . S
C433 C429 1.495 . S
C433 H439 0.959 . S
C433 H440 0.961 . S
C433 H441 0.960 1_554 S
C434 C432 1.381 1_556 S
C434 C435 1.394 . S
C434 H442 0.930 . S
C435 C434 1.394 . S
C435 C436 1.383 1_556 S
C435 H443 0.929 . S
C436 C435 1.383 1_554 S
C436 C437 1.377 . S
C437 H421 0.930 . S
C437 C436 1.377 . S
C437 C438 1.379 . S
C438 H422 0.931 . S
C438 C432 1.383 . S
C438 C437 1.379 . S
H439 C433 0.959 . S
H440 C433 0.961 . S
H441 C433 0.960 1_556 S
H442 C434 0.930 . S
H443 C435 0.929 . S
C129 C10 1.468 . S
C148 C19 1.480 1_655 S
C165 C50 1.463 . S
C184 C59 1.433 . S
C201 C99 1.466 . S
C220 C90 1.445 . S
C237 C11 2.615 1_556 S
C256 C82 2.589 1_556 S
C273 C47 0.883 . S
C292 C7 0.867 . S
C309 C51 1.944 . S
C328 C87 1.922 . S
C345 C2 2.615 1_554 S
C364 C91 2.590 1_554 S
C381 C16 0.880 . S
C400 C56 0.881 . S
C417 C96 1.913 . S
C436 C42 1.932 . S
