# Generated by pormake.
# Topology ukt, (4)-cn, num edge types: 1
# Building blocks:
#     Node 0, Type 0, BuildingBlock: ICAMEG_clean_sbu_1, # of connection points: 4
#     Node 1, Type 0, BuildingBlock: ICAMEG_clean_sbu_1, # of connection points: 4
#     Node 2, Type 0, BuildingBlock: ICAMEG_clean_sbu_1, # of connection points: 4
#     Node 3, Type 0, BuildingBlock: ICAMEG_clean_sbu_1, # of connection points: 4
#     Node 4, Type 0, BuildingBlock: ICAMEG_clean_sbu_1, # of connection points: 4
#     Node 5, Type 0, BuildingBlock: ICAMEG_clean_sbu_1, # of connection points: 4
#     Node 6, Type 0, BuildingBlock: ICAMEG_clean_sbu_1, # of connection points: 4
#     Node 7, Type 0, BuildingBlock: ICAMEG_clean_sbu_1, # of connection points: 4
#     Node 8, Type 0, BuildingBlock: ICAMEG_clean_sbu_1, # of connection points: 4
#     Node 9, Type 0, BuildingBlock: ICAMEG_clean_sbu_1, # of connection points: 4
#     Node 10, Type 0, BuildingBlock: ICAMEG_clean_sbu_1, # of connection points: 4
#     Node 11, Type 0, BuildingBlock: ICAMEG_clean_sbu_1, # of connection points: 4
#     Node 12, Type 0, BuildingBlock: ICAMEG_clean_sbu_1, # of connection points: 4
#     Node 13, Type 0, BuildingBlock: ICAMEG_clean_sbu_1, # of connection points: 4
#     Node 14, Type 0, BuildingBlock: ICAMEG_clean_sbu_1, # of connection points: 4
#     Node 15, Type 0, BuildingBlock: ICAMEG_clean_sbu_1, # of connection points: 4
#     Edge 16, Type (0, 0), BuildingBlock: XUDNAN_clean_linker_2, # of connection points: 2
#     Edge 17, Type (0, 0), BuildingBlock: XUDNAN_clean_linker_2, # of connection points: 2
#     Edge 18, Type (0, 0), BuildingBlock: XUDNAN_clean_linker_2, # of connection points: 2
#     Edge 19, Type (0, 0), BuildingBlock: XUDNAN_clean_linker_2, # of connection points: 2
#     Edge 20, Type (0, 0), BuildingBlock: XUDNAN_clean_linker_2, # of connection points: 2
#     Edge 21, Type (0, 0), BuildingBlock: XUDNAN_clean_linker_2, # of connection points: 2
#     Edge 22, Type (0, 0), BuildingBlock: XUDNAN_clean_linker_2, # of connection points: 2
#     Edge 23, Type (0, 0), BuildingBlock: XUDNAN_clean_linker_2, # of connection points: 2
#     Edge 24, Type (0, 0), BuildingBlock: XUDNAN_clean_linker_2, # of connection points: 2
#     Edge 25, Type (0, 0), BuildingBlock: XUDNAN_clean_linker_2, # of connection points: 2
#     Edge 26, Type (0, 0), BuildingBlock: XUDNAN_clean_linker_2, # of connection points: 2
#     Edge 27, Type (0, 0), BuildingBlock: XUDNAN_clean_linker_2, # of connection points: 2
#     Edge 28, Type (0, 0), BuildingBlock: XUDNAN_clean_linker_2, # of connection points: 2
#     Edge 29, Type (0, 0), BuildingBlock: XUDNAN_clean_linker_2, # of connection points: 2
#     Edge 30, Type (0, 0), BuildingBlock: XUDNAN_clean_linker_2, # of connection points: 2
#     Edge 31, Type (0, 0), BuildingBlock: XUDNAN_clean_linker_2, # of connection points: 2
#     Edge 32, Type (0, 0), BuildingBlock: XUDNAN_clean_linker_2, # of connection points: 2
#     Edge 33, Type (0, 0), BuildingBlock: XUDNAN_clean_linker_2, # of connection points: 2
#     Edge 34, Type (0, 0), BuildingBlock: XUDNAN_clean_linker_2, # of connection points: 2
#     Edge 35, Type (0, 0), BuildingBlock: XUDNAN_clean_linker_2, # of connection points: 2
#     Edge 36, Type (0, 0), BuildingBlock: XUDNAN_clean_linker_2, # of connection points: 2
#     Edge 37, Type (0, 0), BuildingBlock: XUDNAN_clean_linker_2, # of connection points: 2
#     Edge 38, Type (0, 0), BuildingBlock: XUDNAN_clean_linker_2, # of connection points: 2
#     Edge 39, Type (0, 0), BuildingBlock: XUDNAN_clean_linker_2, # of connection points: 2
#     Edge 40, Type (0, 0), BuildingBlock: XUDNAN_clean_linker_2, # of connection points: 2
#     Edge 41, Type (0, 0), BuildingBlock: XUDNAN_clean_linker_2, # of connection points: 2
#     Edge 42, Type (0, 0), BuildingBlock: XUDNAN_clean_linker_2, # of connection points: 2
#     Edge 43, Type (0, 0), BuildingBlock: XUDNAN_clean_linker_2, # of connection points: 2
#     Edge 44, Type (0, 0), BuildingBlock: XUDNAN_clean_linker_2, # of connection points: 2
#     Edge 45, Type (0, 0), BuildingBlock: XUDNAN_clean_linker_2, # of connection points: 2
#     Edge 46, Type (0, 0), BuildingBlock: XUDNAN_clean_linker_2, # of connection points: 2
#     Edge 47, Type (0, 0), BuildingBlock: XUDNAN_clean_linker_2, # of connection points: 2
# Relax obj value: 0.226
# Max RMSD: 0.138
# Mean RMSD: 0.138
data_MOF--net-ukt--node1-ICAMEG_clean_sbu_1--edge1-XUDNAN_clean_linker_2
_symmetry_space_group_name_H-M    P1
_symmetry_Int_Tables_number       1
_symmetry_cell_setting            triclinic
loop_
_symmetry_equiv_pos_as_xyz
'x, y, z'
_cell_length_a     44.64307
_cell_length_b     44.567746
_cell_length_c     40.345226
_cell_angle_alpha  89.962886
_cell_angle_beta   89.976102
_cell_angle_gamma 90.024352
loop_
_atom_site_label
_atom_site_type_symbol
_atom_site_fract_x
_atom_site_fract_y
_atom_site_fract_z
_atom_type_partial_charge
Co0 Co 0.56447 0.16621 0.12313 0.0
Co1 Co 0.53839 0.16768 0.04241 0.0
O2 O 0.53329 0.16001 0.08976 0.0
C3 C 0.51534 0.20528 0.14727 0.0
O4 O 0.51244 0.21609 0.11716 0.0
C5 C 0.52334 0.10327 0.04376 0.0
O6 O 0.54212 0.10041 0.06858 0.0
O7 O 0.5776 0.14652 0.04158 0.0
O8 O 0.59494 0.14708 0.09391 0.0
H9 H 0.59497 0.19973 0.94067 0.0
H10 H 0.50771 0.13523 0.14013 0.0
O11 O 0.53463 0.18503 0.15336 0.0
H12 H 0.58774 0.06281 0.16646 0.0
H13 H 0.60454 0.16887 0.23976 0.0
H14 H 0.62787 0.18602 0.12175 0.0
H15 H 0.60009 0.11324 0.14526 0.0
H16 H 0.56633 0.15997 0.19678 0.0
O17 O 0.51799 0.12907 0.0315 0.0
H18 H 0.58823 0.18977 0.00032 0.0
H19 H 0.49881 0.16112 0.98328 0.0
H20 H 0.66692 0.19479 0.16392 0.0
H21 H 0.49431 0.08518 0.16166 0.0
H22 H 0.65532 0.18626 0.22341 0.0
H23 H 0.53448 0.04851 0.17482 0.0
O24 O 0.57489 0.20678 0.10481 0.0
H25 H 0.4294 0.17941 0.07049 0.0
H26 H 0.51704 0.22707 0.01777 0.0
H27 H 0.46892 0.25419 0.01949 0.0
H28 H 0.42465 0.23031 0.04593 0.0
H29 H 0.47806 0.15319 0.06847 0.0
H30 H 0.50468 0.17044 0.92333 0.0
H31 H 0.55299 0.19005 0.9017 0.0
O32 O 0.5592 0.20588 0.05195 0.0
C33 C 0.59744 0.14052 0.06328 0.0
C34 C 0.57377 0.1913 0.94979 0.0
C35 C 0.5231 0.17484 0.94007 0.0
N36 N 0.54304 0.17524 0.99532 0.0
C37 C 0.56978 0.18573 0.98357 0.0
C38 C 0.51993 0.16956 0.97402 0.0
C39 C 0.55021 0.18584 0.92795 0.0
C40 C 0.52532 0.11945 0.14596 0.0
N41 N 0.55467 0.12706 0.14122 0.0
C42 C 0.51759 0.09112 0.15808 0.0
C43 C 0.54014 0.07055 0.16543 0.0
C44 C 0.57002 0.07854 0.1607 0.0
C45 C 0.5769 0.10706 0.14851 0.0
C46 C 0.6099 0.1726 0.21392 0.0
C47 C 0.62275 0.18199 0.14757 0.0
C48 C 0.58832 0.16768 0.18946 0.0
N49 N 0.59493 0.17228 0.15675 0.0
C50 C 0.64491 0.18711 0.17134 0.0
C51 C 0.63838 0.18235 0.20472 0.0
C52 C 0.5722 0.21871 0.07617 0.0
C53 C 0.44851 0.19002 0.05882 0.0
C54 C 0.4979 0.21657 0.02942 0.0
C55 C 0.4707 0.23201 0.03025 0.0
C56 C 0.44587 0.21859 0.04507 0.0
N57 N 0.50028 0.18852 0.04287 0.0
C58 C 0.47606 0.17524 0.0575 0.0
Co59 Co 0.32761 0.58442 0.09511 0.0
Co60 Co 0.33917 0.53186 0.03339 0.0
O61 O 0.34163 0.54533 0.07939 0.0
C62 C 0.2916 0.54272 0.13672 0.0
O63 O 0.28334 0.52842 0.10978 0.0
C64 C 0.40492 0.52653 0.04375 0.0
O65 O 0.40572 0.5545 0.05392 0.0
O66 O 0.35645 0.57044 0.01677 0.0
O67 O 0.34598 0.60468 0.05607 0.0
H68 H 0.31391 0.54202 0.91254 0.0
H69 H 0.36323 0.54435 0.13854 0.0
O70 O 0.30936 0.56501 0.13491 0.0
H71 H 0.42096 0.63852 0.13182 0.0
H72 H 0.30664 0.66239 0.1824 0.0
H73 H 0.30042 0.63789 0.06342 0.0
H74 H 0.3725 0.63355 0.10306 0.0
H75 H 0.32482 0.61367 0.16161 0.0
O76 O 0.38011 0.5142 0.03633 0.0
H77 H 0.31691 0.55861 0.97075 0.0
H78 H 0.35689 0.47574 0.99811 0.0
H79 H 0.28228 0.68702 0.0831 0.0
H80 H 0.4114 0.54844 0.16812 0.0
H81 H 0.28531 0.69953 0.143 0.0
H82 H 0.44068 0.59575 0.16475 0.0
O83 O 0.28867 0.5805 0.07075 0.0
H84 H 0.33396 0.44196 0.10833 0.0
H85 H 0.28624 0.49449 0.01465 0.0
H86 H 0.26382 0.44769 0.03584 0.0
H87 H 0.28776 0.42105 0.08299 0.0
H88 H 0.35547 0.48901 0.08652 0.0
H89 H 0.35457 0.45837 0.94014 0.0
H90 H 0.33284 0.49157 0.89691 0.0
O91 O 0.29838 0.54865 0.02911 0.0
C92 C 0.35669 0.59725 0.02794 0.0
C93 C 0.32335 0.52732 0.93116 0.0
C94 C 0.34621 0.48039 0.94665 0.0
N95 N 0.33688 0.5181 0.98784 0.0
C96 C 0.32504 0.53656 0.96418 0.0
C97 C 0.34753 0.49038 0.97942 0.0
C98 C 0.334 0.49902 0.92241 0.0
C99 C 0.37579 0.56505 0.13704 0.0
N100 N 0.36517 0.58863 0.11886 0.0
C101 C 0.40308 0.56722 0.15381 0.0
C102 C 0.4195 0.59376 0.15189 0.0
C103 C 0.40847 0.61774 0.13339 0.0
C104 C 0.38111 0.61475 0.11696 0.0
C105 C 0.30525 0.65723 0.15624 0.0
C106 C 0.30202 0.64326 0.08948 0.0
C107 C 0.31543 0.62964 0.14433 0.0
N108 N 0.31387 0.62303 0.11129 0.0
C109 C 0.29162 0.67107 0.1005 0.0
C110 C 0.2933 0.67806 0.13411 0.0
C111 C 0.28098 0.56633 0.04461 0.0
C112 C 0.32335 0.45334 0.08775 0.0
C113 C 0.29669 0.48314 0.03527 0.0
C114 C 0.28395 0.45658 0.0471 0.0
C115 C 0.29741 0.44164 0.07354 0.0
N116 N 0.32215 0.49446 0.04931 0.0
C117 C 0.33547 0.47993 0.07524 0.0
Co118 Co 0.91973 0.32955 0.10545 0.0
Co119 Co 0.97019 0.34218 0.04232 0.0
O120 O 0.95877 0.343 0.08924 0.0
C121 C 0.96444 0.29013 0.13923 0.0
O122 O 0.98356 0.29444 0.11499 0.0
C123 C 0.9673 0.40655 0.05977 0.0
O124 O 0.94676 0.39921 0.08151 0.0
O125 O 0.92904 0.35386 0.02709 0.0
O126 O 0.89994 0.35575 0.07248 0.0
H127 H 0.95904 0.31239 0.92289 0.0
H128 H 0.96432 0.35343 0.15313 0.0
O129 O 0.93885 0.30275 0.13912 0.0
H130 H 0.8768 0.42037 0.16238 0.0
H131 H 0.84451 0.30055 0.19285 0.0
H132 H 0.86282 0.31216 0.07296 0.0
H133 H 0.87609 0.37733 0.12399 0.0
H134 H 0.89346 0.31835 0.17238 0.0
O135 O 0.98058 0.38619 0.04307 0.0
H136 H 0.94481 0.31408 0.98197 0.0
H137 H 0.02081 0.36801 0.00345 0.0
H138 H 0.81343 0.29455 0.09236 0.0
H139 H 0.96587 0.39602 0.1921 0.0
H140 H 0.80404 0.28862 0.1527 0.0
H141 H 0.92191 0.42989 0.19683 0.0
O142 O 0.91905 0.29508 0.07393 0.0
H143 H 0.06366 0.35333 0.11045 0.0
H144 H 0.01349 0.29426 0.0233 0.0
H145 H 0.06417 0.27982 0.04172 0.0
H146 H 0.0896 0.3095 0.08555 0.0
H147 H 0.01286 0.3668 0.09148 0.0
H148 H 0.0357 0.36717 0.94456 0.0
H149 H 0.00477 0.33911 0.90385 0.0
O150 O 0.95934 0.29877 0.04063 0.0
C151 C 0.905 0.36117 0.04207 0.0
C152 C 0.97276 0.32461 0.9404 0.0
C153 C 0.01577 0.35539 0.95256 0.0
N154 N 0.98209 0.34092 0.99613 0.0
C155 C 0.96487 0.32555 0.97389 0.0
C156 C 0.00719 0.35583 0.98585 0.0
C157 C 0.9984 0.33963 0.92974 0.0
C158 C 0.94498 0.36786 0.15533 0.0
N159 N 0.92005 0.36273 0.13654 0.0
C160 C 0.94604 0.39203 0.17732 0.0
C161 C 0.92138 0.41105 0.17992 0.0
C162 C 0.89607 0.40573 0.1606 0.0
C163 C 0.89581 0.38134 0.13888 0.0
C164 C 0.84829 0.30313 0.1665 0.0
C165 C 0.8588 0.30988 0.09927 0.0
C166 C 0.87598 0.31316 0.15476 0.0
N167 N 0.88089 0.31652 0.12151 0.0
C168 C 0.83084 0.2998 0.1101 0.0
C169 C 0.8256 0.29644 0.14396 0.0
C170 C 0.93698 0.28443 0.05232 0.0
C171 C 0.05284 0.34027 0.09126 0.0
C172 C 0.02439 0.30722 0.04246 0.0
C173 C 0.0531 0.29898 0.05273 0.0
C174 C 0.06737 0.31565 0.07732 0.0
N175 N 0.01033 0.33144 0.05621 0.0
C176 C 0.02415 0.34788 0.08034 0.0
Co177 Co 0.1738 0.92223 0.09541 0.0
Co178 Co 0.16036 0.97287 0.03202 0.0
O179 O 0.15604 0.95916 0.07799 0.0
C180 C 0.19835 0.97073 0.13916 0.0
O181 O 0.19562 0.99072 0.11546 0.0
C182 C 0.09582 0.96139 0.0378 0.0
O183 O 0.10283 0.93755 0.05523 0.0
O184 O 0.15437 0.93147 0.01379 0.0
O185 O 0.15845 0.89965 0.05672 0.0
H186 H 0.20127 0.96997 0.91601 0.0
H187 H 0.1336 0.95903 0.13743 0.0
O188 O 0.19 0.9437 0.1349 0.0
H189 H 0.08572 0.85946 0.13119 0.0
H190 H 0.20171 0.84852 0.18495 0.0
H191 H 0.20723 0.87153 0.06552 0.0
H192 H 0.13392 0.86898 0.10323 0.0
H193 H 0.17832 0.89439 0.16261 0.0
O194 O 0.11618 0.97953 0.02844 0.0
H195 H 0.19557 0.95272 0.97377 0.0
H196 H 0.13383 0.02309 0.99299 0.0
H197 H 0.23066 0.82527 0.08676 0.0
H198 H 0.08558 0.95041 0.16621 0.0
H199 H 0.22801 0.81353 0.14689 0.0
H200 H 0.06126 0.90036 0.16307 0.0
O201 O 0.21228 0.92974 0.07181 0.0
H202 H 0.13421 0.06197 0.10246 0.0
H203 H 0.20558 0.02114 0.02079 0.0
H204 H 0.21339 0.07209 0.04303 0.0
H205 H 0.1775 0.09284 0.08412 0.0
H206 H 0.12744 0.01099 0.07981 0.0
H207 H 0.1386 0.0409 0.93533 0.0
H208 H 0.17263 0.01435 0.89644 0.0
O209 O 0.20419 0.96592 0.0341 0.0
C210 C 0.15315 0.90521 0.02632 0.0
C211 C 0.18646 0.98179 0.93275 0.0
C212 C 0.15125 0.02158 0.94358 0.0
N213 N 0.16461 0.98704 0.9868 0.0
C214 C 0.18322 0.97219 0.96551 0.0
C215 C 0.1486 0.01135 0.97618 0.0
C216 C 0.17035 0.00668 0.92178 0.0
C217 C 0.12327 0.93713 0.13618 0.0
N218 N 0.13653 0.91453 0.11865 0.0
C219 C 0.09603 0.93241 0.15243 0.0
C220 C 0.08238 0.90433 0.15062 0.0
C221 C 0.09607 0.88138 0.13273 0.0
C222 C 0.1233 0.88693 0.11681 0.0
C223 C 0.20293 0.85334 0.15868 0.0
C224 C 0.20573 0.86644 0.09167 0.0
C225 C 0.18978 0.87931 0.14589 0.0
N226 N 0.19121 0.88553 0.11274 0.0
C227 C 0.21914 0.84026 0.10357 0.0
C228 C 0.21768 0.83371 0.13732 0.0
C229 C 0.22127 0.94752 0.04912 0.0
C230 C 0.14996 0.0532 0.08451 0.0
C231 C 0.18996 0.02996 0.03878 0.0
C232 C 0.19444 0.05886 0.05121 0.0
C233 C 0.17428 0.07049 0.07425 0.0
N234 N 0.16603 0.01317 0.04895 0.0
C235 C 0.14617 0.02441 0.07151 0.0
Co236 Co 0.55633 0.33706 0.38728 0.0
Co237 Co 0.52708 0.33116 0.46648 0.0
O238 O 0.52352 0.33981 0.41915 0.0
C239 C 0.51212 0.29483 0.3579 0.0
O240 O 0.51183 0.27942 0.38564 0.0
C241 C 0.50902 0.39399 0.46449 0.0
O242 O 0.52847 0.39673 0.44029 0.0
O243 O 0.56501 0.35445 0.47023 0.0
O244 O 0.58439 0.35696 0.4188 0.0
H245 H 0.58076 0.29994 0.57038 0.0
H246 H 0.49857 0.3652 0.36836 0.0
O247 O 0.52861 0.31792 0.35476 0.0
H248 H 0.57508 0.4434 0.35041 0.0
H249 H 0.60144 0.34185 0.27295 0.0
H250 H 0.62064 0.32097 0.39111 0.0
H251 H 0.58955 0.39299 0.36992 0.0
H252 H 0.56087 0.34635 0.31416 0.0
O253 O 0.50412 0.36836 0.47732 0.0
H254 H 0.57624 0.31132 0.51078 0.0
H255 H 0.48451 0.33367 0.52336 0.0
H256 H 0.66194 0.31646 0.35076 0.0
H257 H 0.48314 0.41518 0.3484 0.0
H258 H 0.65244 0.32691 0.2912 0.0
H259 H 0.52151 0.45475 0.3395 0.0
O260 O 0.56851 0.29669 0.40461 0.0
H261 H 0.42032 0.31392 0.43211 0.0
H262 H 0.50828 0.26992 0.48781 0.0
H263 H 0.46197 0.24007 0.48258 0.0
H264 H 0.41755 0.2621 0.45462 0.0
H265 H 0.46718 0.34289 0.43767 0.0
H266 H 0.48807 0.32292 0.58325 0.0
H267 H 0.53642 0.30573 0.60708 0.0
O268 O 0.55062 0.2946 0.45673 0.0
C269 C 0.58525 0.36246 0.44978 0.0
C270 C 0.55951 0.30724 0.56028 0.0
C271 C 0.5075 0.32016 0.56749 0.0
N272 N 0.53002 0.32259 0.51351 0.0
C273 C 0.55679 0.31355 0.52651 0.0
C274 C 0.50562 0.32623 0.53358 0.0
C275 C 0.53464 0.31053 0.58085 0.0
C276 C 0.51544 0.38222 0.36427 0.0
N277 N 0.54493 0.37622 0.37041 0.0
C278 C 0.50655 0.41051 0.35308 0.0
C279 C 0.52809 0.43271 0.34812 0.0
C280 C 0.55814 0.42637 0.35427 0.0
C281 C 0.56619 0.39783 0.36545 0.0
C282 C 0.60587 0.33729 0.29884 0.0
C283 C 0.6164 0.32577 0.36527 0.0
C284 C 0.58297 0.33973 0.32229 0.0
N285 N 0.58845 0.33415 0.35505 0.0
C286 C 0.63984 0.32308 0.34252 0.0
C287 C 0.63448 0.32892 0.3091 0.0
C288 C 0.56551 0.28367 0.43265 0.0
C289 C 0.43949 0.30411 0.44443 0.0
C290 C 0.48906 0.27962 0.47553 0.0
C291 C 0.46289 0.26264 0.4727 0.0
C292 C 0.43797 0.27502 0.45703 0.0
N293 N 0.49033 0.30818 0.46322 0.0
C294 C 0.46603 0.32044 0.44775 0.0
Co295 Co 0.16709 0.57365 0.41075 0.0
Co296 Co 0.16363 0.52188 0.47476 0.0
O297 O 0.15764 0.53391 0.42864 0.0
C298 C 0.21301 0.55973 0.36051 0.0
O299 O 0.22985 0.5796 0.3757 0.0
C300 C 0.09792 0.5142 0.46786 0.0
O301 O 0.09658 0.54066 0.45363 0.0
O302 O 0.14625 0.56036 0.49157 0.0
O303 O 0.14749 0.5933 0.44929 0.0
H304 H 0.19743 0.53655 0.59241 0.0
H305 H 0.13579 0.52868 0.36911 0.0
O306 O 0.18688 0.55385 0.37161 0.0
H307 H 0.06682 0.61485 0.37609 0.0
H308 H 0.17477 0.65118 0.32006 0.0
H309 H 0.19013 0.63052 0.43895 0.0
H310 H 0.11614 0.61653 0.40347 0.0
H311 H 0.16327 0.60126 0.3433 0.0
O312 O 0.12306 0.50313 0.47627 0.0
H313 H 0.18966 0.55117 0.53407 0.0
H314 H 0.15015 0.46646 0.51365 0.0
H315 H 0.20182 0.68077 0.41679 0.0
H316 H 0.08682 0.52619 0.34094 0.0
H317 H 0.19416 0.69135 0.35693 0.0
H318 H 0.0519 0.56945 0.34445 0.0
O319 O 0.20647 0.57486 0.43464 0.0
H320 H 0.16566 0.42956 0.40346 0.0
H321 H 0.21869 0.48647 0.49022 0.0
H322 H 0.24056 0.43933 0.4693 0.0
H323 H 0.21392 0.41047 0.42566 0.0
H324 H 0.14477 0.47699 0.42489 0.0
H325 H 0.15723 0.45103 0.57184 0.0
H326 H 0.18114 0.48615 0.61163 0.0
O327 O 0.20407 0.53992 0.47457 0.0
C328 C 0.14108 0.58619 0.47908 0.0
C329 C 0.18705 0.52101 0.57529 0.0
C330 C 0.16445 0.47303 0.56375 0.0
N331 N 0.16963 0.50963 0.52043 0.0
C332 C 0.18267 0.52914 0.5422 0.0
C333 C 0.16042 0.48193 0.53086 0.0
C334 C 0.17788 0.49275 0.58606 0.0
C335 C 0.12082 0.5477 0.37052 0.0
N336 N 0.12885 0.57274 0.3879 0.0
C337 C 0.09308 0.54611 0.35461 0.0
C338 C 0.07348 0.57038 0.35662 0.0
C339 C 0.08182 0.59584 0.3744 0.0
C340 C 0.10973 0.59662 0.38999 0.0
C341 C 0.17817 0.64685 0.34619 0.0
C342 C 0.18666 0.63498 0.41289 0.0
C343 C 0.17171 0.61864 0.35948 0.0
N344 N 0.17596 0.61301 0.39246 0.0
C345 C 0.19335 0.66347 0.40048 0.0
C346 C 0.18905 0.66938 0.36689 0.0
C347 C 0.21797 0.56027 0.45867 0.0
C348 C 0.17747 0.44192 0.42249 0.0
C349 C 0.20712 0.47418 0.47105 0.0
C350 C 0.21953 0.44743 0.45939 0.0
C351 C 0.20456 0.43124 0.43494 0.0
N352 N 0.18051 0.48448 0.45877 0.0
C353 C 0.16572 0.46875 0.43476 0.0
Co354 Co 0.92259 0.14872 0.39213 0.0
Co355 Co 0.96932 0.15779 0.45989 0.0
O356 O 0.96143 0.14529 0.41424 0.0
C357 C 0.96411 0.18391 0.35019 0.0
O358 O 0.97769 0.19275 0.37732 0.0
C359 C 0.98228 0.093 0.46054 0.0
O360 O 0.95786 0.0895 0.44287 0.0
O361 O 0.93184 0.13868 0.47618 0.0
O362 O 0.90195 0.13224 0.43198 0.0
H363 H 0.94341 0.20255 0.57052 0.0
H364 H 0.97246 0.11678 0.35896 0.0
O365 O 0.94221 0.16563 0.35165 0.0
H366 H 0.89202 0.04168 0.37091 0.0
H367 H 0.85233 0.14078 0.29493 0.0
H368 H 0.86198 0.16844 0.41278 0.0
H369 H 0.88457 0.09366 0.39011 0.0
H370 H 0.90094 0.13627 0.32356 0.0
O371 O 0.99108 0.11925 0.4685 0.0
H372 H 0.9335 0.18639 0.51311 0.0
H373 H 0.0228 0.15465 0.504 0.0
H374 H 0.81284 0.17286 0.38525 0.0
H375 H 0.98079 0.0651 0.33909 0.0
H376 H 0.80782 0.15903 0.32588 0.0
H377 H 0.94043 0.02711 0.34516 0.0
O378 O 0.91675 0.19042 0.40877 0.0
H379 H 0.06632 0.16125 0.39685 0.0
H380 H 0.99712 0.21817 0.46843 0.0
H381 H 0.04307 0.24258 0.4477 0.0
H382 H 0.07805 0.21405 0.41167 0.0
H383 H 0.01997 0.1378 0.41789 0.0
H384 H 0.03359 0.17008 0.5615 0.0
H385 H 0.99377 0.19439 0.59509 0.0
O386 O 0.94727 0.19613 0.45264 0.0
C387 C 0.9075 0.1299 0.46286 0.0
C388 C 0.96099 0.19211 0.55609 0.0
C389 C 0.01159 0.17385 0.55103 0.0
N390 N 0.97767 0.17001 0.50508 0.0
C391 C 0.95555 0.18305 0.52352 0.0
C392 C 0.00534 0.16512 0.51852 0.0
C393 C 0.98924 0.18749 0.56987 0.0
C394 C 0.9547 0.10044 0.36138 0.0
N395 N 0.92804 0.10824 0.37558 0.0
C396 C 0.95958 0.07119 0.35021 0.0
C397 C 0.93694 0.04987 0.35366 0.0
C398 C 0.90978 0.05802 0.36813 0.0
C399 C 0.90571 0.08748 0.37903 0.0
C400 C 0.85422 0.14682 0.32082 0.0
C401 C 0.8599 0.16214 0.38701 0.0
C402 C 0.8817 0.14439 0.33714 0.0
N403 N 0.88422 0.15188 0.36987 0.0
C404 C 0.83205 0.16479 0.37153 0.0
C405 C 0.82926 0.15705 0.33821 0.0
C406 C 0.92752 0.20591 0.43252 0.0
C407 C 0.05129 0.17389 0.4126 0.0
C408 C 0.01219 0.20564 0.45268 0.0
C409 C 0.03821 0.21956 0.44108 0.0
C410 C 0.05784 0.20353 0.42089 0.0
N411 N 0.00596 0.17655 0.44446 0.0
C412 C 0.02509 0.16068 0.4247 0.0
Co413 Co 0.34215 0.926 0.38617 0.0
Co414 Co 0.33887 0.9635 0.46132 0.0
O415 O 0.34519 0.96233 0.41321 0.0
C416 C 0.29841 0.96789 0.3545 0.0
O417 O 0.29191 0.97979 0.38337 0.0
C418 C 0.40155 0.98273 0.45423 0.0
O419 O 0.40472 0.96099 0.43259 0.0
O420 O 0.36305 0.92642 0.46859 0.0
O421 O 0.36604 0.9033 0.41918 0.0
H422 H 0.31246 0.92046 0.57271 0.0
H423 H 0.36448 0.98259 0.35658 0.0
O424 O 0.31825 0.94755 0.35194 0.0
H425 H 0.44649 0.90963 0.34228 0.0
H426 H 0.34185 0.86783 0.27916 0.0
H427 H 0.33071 0.86181 0.40061 0.0
H428 H 0.39896 0.89449 0.36863 0.0
H429 H 0.34681 0.91319 0.31369 0.0
O430 O 0.37602 0.98799 0.46706 0.0
H431 H 0.32102 0.91901 0.51235 0.0
H432 H 0.34382 0.01154 0.51245 0.0
H433 H 0.32598 0.81579 0.36703 0.0
H434 H 0.41152 0.99865 0.32975 0.0
H435 H 0.3315 0.81866 0.30585 0.0
H436 H 0.45298 0.96205 0.32259 0.0
O437 O 0.30403 0.91387 0.40843 0.0
H438 H 0.31863 0.0663 0.41539 0.0
H439 H 0.27847 0.98373 0.48368 0.0
H440 H 0.24783 0.02903 0.47458 0.0
H441 H 0.26792 0.07074 0.44027 0.0
H442 H 0.3484 0.02045 0.42486 0.0
H443 H 0.33588 0.01392 0.57292 0.0
H444 H 0.3199 0.96819 0.60342 0.0
O445 O 0.3022 0.93876 0.45684 0.0
C446 C 0.37212 0.90527 0.4499 0.0
C447 C 0.31929 0.94058 0.55969 0.0
C448 C 0.33246 0.99302 0.5598 0.0
N449 N 0.33252 0.96525 0.50884 0.0
C450 C 0.32405 0.93992 0.52549 0.0
C451 C 0.33698 0.99153 0.52558 0.0
C452 C 0.3235 0.96735 0.5769 0.0
C453 C 0.38235 0.9665 0.3533 0.0
N454 N 0.379 0.93765 0.36415 0.0
C455 C 0.40896 0.97574 0.3382 0.0
C456 C 0.43222 0.9552 0.33422 0.0
C457 C 0.4286 0.92579 0.34528 0.0
C458 C 0.40168 0.91737 0.36028 0.0
C459 C 0.33948 0.86628 0.30581 0.0
C460 C 0.33341 0.86317 0.37402 0.0
C461 C 0.34219 0.8919 0.32549 0.0
N462 N 0.33925 0.8901 0.35917 0.0
C463 C 0.3306 0.83707 0.35513 0.0
C464 C 0.33367 0.8387 0.32079 0.0
C465 C 0.29137 0.92038 0.43587 0.0
C466 C 0.30966 0.04831 0.43045 0.0
C467 C 0.28732 0.00174 0.46861 0.0
C468 C 0.2699 0.02737 0.46362 0.0
C469 C 0.2812 0.05077 0.44438 0.0
N470 N 0.31524 0.99952 0.4549 0.0
C471 C 0.32646 0.02236 0.43601 0.0
Co472 Co 0.42895 0.83771 0.88728 0.0
Co473 Co 0.46397 0.84201 0.96371 0.0
O474 O 0.46307 0.84737 0.91549 0.0
C475 C 0.47754 0.80069 0.85723 0.0
O476 O 0.48477 0.79005 0.88651 0.0
C477 C 0.46854 0.90653 0.95265 0.0
O478 O 0.4482 0.90175 0.92989 0.0
O479 O 0.42249 0.85748 0.96946 0.0
O480 O 0.40068 0.85645 0.91933 0.0
H481 H 0.42507 0.80749 0.07423 0.0
H482 H 0.48058 0.87136 0.85976 0.0
O483 O 0.45637 0.81955 0.85408 0.0
H484 H 0.39295 0.93684 0.84243 0.0
H485 H 0.37587 0.82605 0.77791 0.0
H486 H 0.36814 0.8133 0.89907 0.0
H487 H 0.38706 0.88702 0.86827 0.0
H488 H 0.418 0.83991 0.8143 0.0
O489 O 0.47903 0.88445 0.96916 0.0
H490 H 0.42354 0.81457 0.0136 0.0
H491 H 0.50774 0.85885 0.01616 0.0
H492 H 0.32526 0.79952 0.8636 0.0
H493 H 0.48743 0.92087 0.83344 0.0
H494 H 0.329 0.80583 0.80256 0.0
H495 H 0.44343 0.95406 0.82482 0.0
O496 O 0.4244 0.79793 0.90929 0.0
H497 H 0.56983 0.84466 0.92156 0.0
H498 H 0.49636 0.78785 0.98795 0.0
H499 H 0.54754 0.76792 0.98107 0.0
H500 H 0.58469 0.79645 0.94772 0.0
H501 H 0.51832 0.86363 0.92888 0.0
H502 H 0.51005 0.8526 0.0769 0.0
H503 H 0.46857 0.82661 0.10629 0.0
O504 O 0.44793 0.80033 0.95872 0.0
C505 C 0.40052 0.86242 0.95017 0.0
C506 C 0.44335 0.81872 0.06169 0.0
C507 C 0.49103 0.84408 0.06319 0.0
N508 N 0.4657 0.83674 0.01136 0.0
C509 C 0.44267 0.82266 0.02736 0.0
C510 C 0.48958 0.8476 0.02882 0.0
C511 C 0.46775 0.82949 0.07967 0.0
C512 C 0.46128 0.88556 0.85578 0.0
N513 N 0.43346 0.87633 0.86557 0.0
C514 C 0.46532 0.91362 0.84099 0.0
C515 C 0.44062 0.93224 0.83619 0.0
C516 C 0.4123 0.9226 0.84608 0.0
C517 C 0.40911 0.8944 0.86079 0.0
C518 C 0.37392 0.82328 0.80448 0.0
C519 C 0.3698 0.81637 0.87255 0.0
C520 C 0.39774 0.83102 0.82522 0.0
N521 N 0.39541 0.82765 0.85882 0.0
C522 C 0.34551 0.80842 0.85258 0.0
C523 C 0.34764 0.81194 0.81833 0.0
C524 C 0.43279 0.78632 0.93671 0.0
C525 C 0.55387 0.83207 0.93622 0.0
C526 C 0.51238 0.80033 0.97332 0.0
C527 C 0.54134 0.78897 0.96957 0.0
C528 C 0.56218 0.805 0.95087 0.0
N529 N 0.50445 0.82694 0.95896 0.0
C530 C 0.52472 0.84275 0.94054 0.0
Co531 Co 0.67401 0.41301 0.90303 0.0
Co532 Co 0.66375 0.46728 0.96344 0.0
O533 O 0.65784 0.45127 0.91863 0.0
C534 C 0.70054 0.45769 0.85648 0.0
O535 O 0.7031 0.47691 0.88096 0.0
C536 C 0.59888 0.45754 0.95946 0.0
O537 O 0.60538 0.43256 0.94386 0.0
O538 O 0.6569 0.42721 0.98469 0.0
O539 O 0.65997 0.39289 0.94412 0.0
H540 H 0.70762 0.46962 0.07809 0.0
H541 H 0.63288 0.44822 0.86056 0.0
O542 O 0.68867 0.43207 0.86122 0.0
H543 H 0.5831 0.35049 0.87669 0.0
H544 H 0.69615 0.33368 0.8176 0.0
H545 H 0.70786 0.36344 0.93459 0.0
H546 H 0.63274 0.36034 0.90117 0.0
H547 H 0.67481 0.3813 0.83785 0.0
O548 O 0.61973 0.47558 0.96769 0.0
H549 H 0.69993 0.44936 0.02184 0.0
H550 H 0.63964 0.52029 0.99967 0.0
H551 H 0.7293 0.31549 0.91546 0.0
H552 H 0.58341 0.43922 0.83516 0.0
H553 H 0.72352 0.30034 0.85656 0.0
H554 H 0.55813 0.3901 0.84331 0.0
O555 O 0.71356 0.42111 0.92396 0.0
H556 H 0.63925 0.55283 0.88704 0.0
H557 H 0.71057 0.51463 0.97028 0.0
H558 H 0.71966 0.56384 0.94411 0.0
H559 H 0.68381 0.58326 0.9022 0.0
H560 H 0.63118 0.5036 0.91364 0.0
H561 H 0.64644 0.54115 0.05579 0.0
H562 H 0.68074 0.51583 0.09538 0.0
O563 O 0.7074 0.45871 0.96048 0.0
C564 C 0.65521 0.40028 0.97417 0.0
C565 C 0.69269 0.48091 0.06103 0.0
C566 C 0.65832 0.52104 0.04853 0.0
N567 N 0.66955 0.48376 0.00743 0.0
C568 C 0.68833 0.4696 0.02912 0.0
C569 C 0.65451 0.50909 0.01681 0.0
C570 C 0.67758 0.50682 0.07073 0.0
C571 C 0.6221 0.42672 0.86399 0.0
N572 N 0.63562 0.40485 0.88241 0.0
C573 C 0.59406 0.42178 0.84964 0.0
C574 C 0.57988 0.39423 0.85426 0.0
C575 C 0.59386 0.372 0.873 0.0
C576 C 0.62189 0.37775 0.88696 0.0
C577 C 0.69875 0.33999 0.84334 0.0
C578 C 0.70504 0.35689 0.90899 0.0
C579 C 0.68678 0.36696 0.85493 0.0
N580 N 0.68993 0.37505 0.88742 0.0
C581 C 0.71731 0.32975 0.89827 0.0
C582 C 0.7141 0.32129 0.86521 0.0
C583 C 0.72366 0.43958 0.94535 0.0
C584 C 0.655 0.54464 0.90531 0.0
C585 C 0.69494 0.52288 0.95197 0.0
C586 C 0.70016 0.55079 0.9373 0.0
C587 C 0.68003 0.56168 0.9138 0.0
N588 N 0.67032 0.50633 0.94354 0.0
C589 C 0.65049 0.51684 0.92053 0.0
Co590 Co 0.06114 0.66453 0.89267 0.0
Co591 Co 0.03315 0.66988 0.97255 0.0
O592 O 0.02873 0.66154 0.92515 0.0
C593 C 0.01881 0.71006 0.86704 0.0
O594 O 0.01577 0.72011 0.89743 0.0
C595 C 0.01653 0.60593 0.97128 0.0
O596 O 0.03514 0.60312 0.94629 0.0
O597 O 0.072 0.64799 0.97518 0.0
O598 O 0.08867 0.64253 0.92292 0.0
H599 H 0.08796 0.70323 0.07487 0.0
H600 H 0.00219 0.63997 0.87276 0.0
O601 O 0.03444 0.68674 0.86136 0.0
H602 H 0.07472 0.55879 0.85149 0.0
H603 H 0.10439 0.66266 0.77742 0.0
H604 H 0.12617 0.67781 0.89608 0.0
H605 H 0.09165 0.60767 0.87318 0.0
H606 H 0.06434 0.65788 0.81917 0.0
O607 O 0.01173 0.63169 0.98393 0.0
H608 H 0.08242 0.69206 0.01534 0.0
H609 H 0.99225 0.66503 0.03075 0.0
H610 H 0.16702 0.68238 0.85517 0.0
H611 H 0.98429 0.59153 0.8507 0.0
H612 H 0.15622 0.67484 0.79536 0.0
H613 H 0.02067 0.5505 0.84007 0.0
O614 O 0.07506 0.70377 0.91132 0.0
H615 H 0.92497 0.68314 0.94171 0.0
H616 H 0.01261 0.73022 0.99489 0.0
H617 H 0.96509 0.75826 0.99137 0.0
H618 H 0.92082 0.73466 0.96469 0.0
H619 H 0.97303 0.65601 0.94552 0.0
H620 H 0.99691 0.67556 0.09057 0.0
H621 H 0.04498 0.69497 0.11295 0.0
O622 O 0.05507 0.70747 0.96235 0.0
C623 C 0.09101 0.63856 0.95408 0.0
C624 C 0.06685 0.69491 0.06541 0.0
C625 C 0.01576 0.67935 0.07422 0.0
N626 N 0.03693 0.6783 0.01953 0.0
C627 C 0.06354 0.68867 0.0317 0.0
C628 C 0.01327 0.67338 0.04034 0.0
C629 C 0.04274 0.69024 0.08676 0.0
C630 C 0.01816 0.62227 0.86795 0.0
N631 N 0.04791 0.6266 0.87426 0.0
C632 C 0.00789 0.59488 0.85556 0.0
C633 C 0.02832 0.57185 0.84963 0.0
C634 C 0.05864 0.57648 0.85605 0.0
C635 C 0.06809 0.60416 0.86844 0.0
C636 C 0.10941 0.66591 0.80342 0.0
C637 C 0.12137 0.67422 0.87012 0.0
C638 C 0.0868 0.6633 0.82718 0.0
N639 N 0.09297 0.66734 0.86007 0.0
C640 C 0.14456 0.67694 0.84706 0.0
C641 C 0.13848 0.67274 0.8135 0.0
C642 C 0.0709 0.71768 0.9386 0.0
C643 C 0.94407 0.69362 0.95347 0.0
C644 C 0.99347 0.71985 0.98315 0.0
C645 C 0.9666 0.7358 0.98129 0.0
C646 C 0.94177 0.72255 0.96634 0.0
N647 N 0.9955 0.69145 0.97058 0.0
C648 C 0.9713 0.67833 0.9558 0.0
Co649 Co 0.82157 0.08238 0.90657 0.0
Co650 Co 0.84087 0.02953 0.96503 0.0
O651 O 0.83784 0.04311 0.91906 0.0
C652 C 0.78676 0.03927 0.86604 0.0
O653 O 0.78524 0.0214 0.89184 0.0
C654 C 0.90379 0.02118 0.94399 0.0
O655 O 0.90399 0.04897 0.93311 0.0
O656 O 0.86268 0.06685 0.97759 0.0
O657 O 0.84167 0.10202 0.94508 0.0
H658 H 0.83429 0.04105 0.08871 0.0
H659 H 0.85477 0.0463 0.85705 0.0
O660 O 0.80088 0.06405 0.86767 0.0
H661 H 0.91126 0.14097 0.86716 0.0
H662 H 0.79227 0.16318 0.82554 0.0
H663 H 0.79412 0.13309 0.94317 0.0
H664 H 0.86517 0.13281 0.89964 0.0
H665 H 0.81369 0.11445 0.84222 0.0
O666 O 0.87979 0.00962 0.95519 0.0
H667 H 0.82984 0.05755 0.03055 0.0
H668 H 0.85994 0.97234 0.99724 0.0
H669 H 0.7728 0.18216 0.92764 0.0
H670 H 0.90062 0.05364 0.82385 0.0
H671 H 0.77176 0.19747 0.86843 0.0
H672 H 0.92924 0.10123 0.82887 0.0
O673 O 0.785 0.07568 0.93361 0.0
H674 H 0.82086 0.93903 0.89426 0.0
H675 H 0.78846 0.99607 0.99263 0.0
H676 H 0.76086 0.95044 0.97648 0.0
H677 H 0.77707 0.92154 0.92701 0.0
H678 H 0.84762 0.98502 0.91108 0.0
H679 H 0.86499 0.95502 0.05503 0.0
H680 H 0.85199 0.98945 0.10125 0.0
O681 O 0.80206 0.04882 0.97659 0.0
C682 C 0.85857 0.09406 0.96896 0.0
C683 C 0.83992 0.02581 0.06879 0.0
C684 C 0.85719 0.97754 0.04989 0.0
N685 N 0.84436 0.01586 0.01052 0.0
C686 C 0.83737 0.035 0.03581 0.0
C687 C 0.85433 0.98749 0.01721 0.0
C688 C 0.84988 0.99686 0.0758 0.0
C689 C 0.86697 0.06716 0.85915 0.0
N690 N 0.85722 0.08915 0.88011 0.0
C691 C 0.89297 0.07115 0.84038 0.0
C692 C 0.90904 0.09784 0.84324 0.0
C693 C 0.89897 0.12015 0.86473 0.0
C694 C 0.87289 0.11537 0.88311 0.0
C695 C 0.79268 0.15681 0.85143 0.0
C696 C 0.79399 0.13971 0.91739 0.0
C697 C 0.80473 0.12922 0.86101 0.0
N698 N 0.8054 0.12106 0.89367 0.0
C699 C 0.78179 0.16747 0.90873 0.0
C700 C 0.78117 0.17603 0.8755 0.0
C701 C 0.78177 0.06412 0.96225 0.0
C702 C 0.81363 0.95139 0.91591 0.0
C703 C 0.79555 0.98374 0.97095 0.0
C704 C 0.7799 0.95785 0.962 0.0
C705 C 0.78903 0.94162 0.93426 0.0
N706 N 0.81964 0.99319 0.95281 0.0
C707 C 0.82876 0.97737 0.92563 0.0
Co708 Co 0.43177 0.67801 0.59977 0.0
Co709 Co 0.47252 0.65731 0.53045 0.0
O710 O 0.46617 0.65912 0.57839 0.0
C711 C 0.46176 0.7249 0.63944 0.0
O712 O 0.44494 0.74455 0.62387 0.0
C713 C 0.46683 0.59439 0.55102 0.0
O714 O 0.4466 0.60353 0.57228 0.0
O715 O 0.42958 0.64719 0.5219 0.0
O716 O 0.40378 0.65844 0.56815 0.0
H717 H 0.44993 0.68112 0.41132 0.0
H718 H 0.47497 0.64318 0.64037 0.0
O719 O 0.45996 0.69717 0.63209 0.0
H720 H 0.3777 0.5925 0.65546 0.0
H721 H 0.37104 0.71241 0.698 0.0
H722 H 0.37733 0.70924 0.57601 0.0
H723 H 0.38169 0.6377 0.62049 0.0
H724 H 0.41363 0.68759 0.67032 0.0
O725 O 0.48096 0.61334 0.53327 0.0
H726 H 0.44209 0.68337 0.47182 0.0
H727 H 0.51729 0.62673 0.48729 0.0
H728 H 0.33434 0.7343 0.60264 0.0
H729 H 0.47188 0.59829 0.67596 0.0
H730 H 0.33102 0.73599 0.66408 0.0
H731 H 0.423 0.57254 0.68356 0.0
O732 O 0.43487 0.71361 0.57 0.0
H733 H 0.57203 0.64487 0.58686 0.0
H734 H 0.51597 0.70121 0.50192 0.0
H735 H 0.569 0.71357 0.51229 0.0
H736 H 0.59742 0.68523 0.55497 0.0
H737 H 0.51885 0.63345 0.57587 0.0
H738 H 0.52572 0.62356 0.42697 0.0
H739 H 0.49198 0.65102 0.38854 0.0
O740 O 0.46374 0.70081 0.52663 0.0
C741 C 0.40547 0.64815 0.53879 0.0
C742 C 0.46484 0.66915 0.42781 0.0
C743 C 0.50736 0.63681 0.43659 0.0
N744 N 0.47935 0.6554 0.48304 0.0
C745 C 0.46058 0.67042 0.46208 0.0
C746 C 0.50243 0.63862 0.47071 0.0
C747 C 0.48842 0.65222 0.41505 0.0
C748 C 0.45354 0.63236 0.64391 0.0
N749 N 0.42851 0.64322 0.62856 0.0
C750 C 0.45196 0.60684 0.66395 0.0
C751 C 0.42454 0.59237 0.66816 0.0
C752 C 0.39912 0.60356 0.65239 0.0
C753 C 0.40153 0.62914 0.63256 0.0
C754 C 0.37221 0.71177 0.67121 0.0
C755 C 0.37596 0.70979 0.60275 0.0
C756 C 0.39625 0.69774 0.65541 0.0
N757 N 0.39788 0.69687 0.62158 0.0
C758 C 0.3516 0.72404 0.6177 0.0
C759 C 0.34976 0.725 0.65217 0.0
C760 C 0.44839 0.71979 0.543 0.0
C761 C 0.5599 0.65735 0.56817 0.0
C762 C 0.52813 0.68892 0.52067 0.0
C763 C 0.55819 0.69595 0.52636 0.0
C764 C 0.57412 0.68002 0.55029 0.0
N765 N 0.51437 0.66661 0.53825 0.0
C766 C 0.52982 0.65093 0.56179 0.0
Co767 Co 0.81833 0.40537 0.59204 0.0
Co768 Co 0.83572 0.45846 0.53223 0.0
O769 O 0.83694 0.44298 0.57773 0.0
C770 C 0.78953 0.45187 0.63452 0.0
O771 O 0.79022 0.47079 0.60958 0.0
C772 C 0.89981 0.44835 0.54438 0.0
O773 O 0.89181 0.42354 0.55949 0.0
O774 O 0.84399 0.418 0.51283 0.0
O775 O 0.83587 0.38419 0.55326 0.0
H776 H 0.80391 0.45948 0.41277 0.0
H777 H 0.85609 0.44011 0.63866 0.0
O778 O 0.8003 0.42556 0.63152 0.0
H779 H 0.90459 0.34106 0.62957 0.0
H780 H 0.78588 0.32819 0.67594 0.0
H781 H 0.78619 0.35624 0.55767 0.0
H782 H 0.85785 0.35182 0.59926 0.0
H783 H 0.81046 0.37483 0.65736 0.0
O784 O 0.87993 0.4662 0.53327 0.0
H785 H 0.80554 0.44001 0.46999 0.0
H786 H 0.864 0.51071 0.49827 0.0
H787 H 0.76152 0.30927 0.57514 0.0
H788 H 0.90261 0.4302 0.66981 0.0
H789 H 0.76126 0.29499 0.63467 0.0
H790 H 0.92724 0.38041 0.66523 0.0
O791 O 0.78116 0.41411 0.56645 0.0
H792 H 0.85368 0.54486 0.6096 0.0
H793 H 0.79056 0.50627 0.51884 0.0
H794 H 0.77963 0.55597 0.54285 0.0
H795 H 0.81135 0.57558 0.58854 0.0
H796 H 0.86365 0.49516 0.58504 0.0
H797 H 0.86327 0.53075 0.44127 0.0
H798 H 0.83295 0.50516 0.3981 0.0
O799 O 0.79198 0.45056 0.52986 0.0
C800 C 0.84399 0.39122 0.52399 0.0
C801 C 0.81713 0.47089 0.43139 0.0
C802 C 0.85047 0.51087 0.44737 0.0
N803 N 0.83464 0.47435 0.48749 0.0
C804 C 0.81806 0.46002 0.46385 0.0
C805 C 0.85085 0.49938 0.47958 0.0
C806 C 0.83345 0.4965 0.42317 0.0
C807 C 0.86655 0.41832 0.63679 0.0
N808 N 0.85429 0.39658 0.61717 0.0
C809 C 0.89294 0.41286 0.65439 0.0
C810 C 0.90677 0.38493 0.65177 0.0
C811 C 0.89408 0.36285 0.63176 0.0
C812 C 0.86768 0.3691 0.61455 0.0
C813 C 0.78592 0.33411 0.64992 0.0
C814 C 0.78638 0.35004 0.58358 0.0
C815 C 0.79976 0.36052 0.63926 0.0
N816 N 0.79996 0.36812 0.60642 0.0
C817 C 0.77229 0.32348 0.59334 0.0
C818 C 0.77212 0.3155 0.62675 0.0
C819 C 0.77376 0.43226 0.54341 0.0
C820 C 0.83975 0.53659 0.58965 0.0
C821 C 0.80439 0.51461 0.53879 0.0
C822 C 0.79814 0.5428 0.55223 0.0
C823 C 0.81596 0.55379 0.57785 0.0
N824 N 0.82779 0.4979 0.55047 0.0
C825 C 0.84536 0.50853 0.57557 0.0
Co826 Co 0.08932 0.82869 0.61204 0.0
Co827 Co 0.04257 0.83253 0.54379 0.0
O828 O 0.05303 0.84183 0.58963 0.0
C829 C 0.04146 0.80262 0.65396 0.0
O830 O 0.03022 0.79028 0.6272 0.0
C831 C 0.04948 0.89773 0.54588 0.0
O832 O 0.0736 0.89188 0.56322 0.0
O833 O 0.08399 0.84009 0.52787 0.0
O834 O 0.11432 0.83845 0.57228 0.0
H835 H 0.05527 0.7837 0.43242 0.0
H836 H 0.0495 0.87349 0.64386 0.0
O837 O 0.06492 0.81884 0.65237 0.0
H838 H 0.14753 0.92359 0.63291 0.0
H839 H 0.15787 0.81856 0.71046 0.0
H840 H 0.14242 0.79272 0.59286 0.0
H841 H 0.14086 0.87121 0.61465 0.0
H842 H 0.11267 0.83572 0.68083 0.0
O843 O 0.03289 0.87618 0.53595 0.0
H844 H 0.06897 0.79539 0.4902 0.0
H845 H 0.99272 0.85164 0.49961 0.0
H846 H 0.18807 0.77533 0.62145 0.0
H847 H 0.05526 0.92578 0.66285 0.0
H848 H 0.19601 0.78825 0.68068 0.0
H849 H 0.10451 0.95123 0.65724 0.0
O850 O 0.08395 0.78702 0.59526 0.0
H851 H 0.94806 0.85585 0.6063 0.0
H852 H -0.00087 0.78256 0.53427 0.0
H853 H 0.94797 0.77185 0.55424 0.0
H854 H 0.92208 0.80869 0.59047 0.0
H855 H -0.00069 0.86552 0.58597 0.0
H856 H 0.97836 0.84092 0.44175 0.0
H857 H 0.00966 0.80658 0.40781 0.0
O858 O 0.05332 0.78934 0.55081 0.0
C859 C 0.10978 0.8416 0.54124 0.0
C860 C 0.04135 0.79856 0.447 0.0
C861 C 0.99821 0.83071 0.45223 0.0
N862 N 0.0314 0.82375 0.49839 0.0
C863 C 0.0489 0.80511 0.47979 0.0
C864 C 0.00646 0.83672 0.48495 0.0
C865 C 0.01578 0.81143 0.4332 0.0
C866 C 0.07109 0.88431 0.64168 0.0
N867 N 0.09483 0.86931 0.62819 0.0
C868 C 0.07418 0.91396 0.65234 0.0
C869 C 0.10181 0.92824 0.64914 0.0
C870 C 0.12595 0.91275 0.63548 0.0
C871 C 0.12203 0.88313 0.62508 0.0
C872 C 0.1547 0.81284 0.68463 0.0
C873 C 0.14583 0.7986 0.61858 0.0
C874 C 0.12912 0.82244 0.66775 0.0
N875 N 0.12506 0.81544 0.63508 0.0
C876 C 0.17167 0.78861 0.63466 0.0
C877 C 0.17609 0.79585 0.6679 0.0
C878 C 0.06989 0.77487 0.57117 0.0
C879 C 0.95907 0.83966 0.59045 0.0
C880 C 0.98802 0.79864 0.55011 0.0
C881 C 0.95904 0.79249 0.56128 0.0
C882 C 0.94452 0.81318 0.58159 0.0
N883 N 0.00207 0.82471 0.55881 0.0
C884 C 0.98803 0.84507 0.57878 0.0
Co885 Co 0.66879 0.08672 0.60201 0.0
Co886 Co 0.66165 0.03611 0.53735 0.0
O887 O 0.65406 0.0493 0.58295 0.0
C888 C 0.69308 0.03993 0.64714 0.0
O889 O 0.69745 0.02227 0.62156 0.0
C890 C 0.59687 0.04478 0.54139 0.0
O891 O 0.60355 0.06915 0.55799 0.0
O892 O 0.65457 0.07689 0.51873 0.0
O893 O 0.65746 0.10918 0.56122 0.0
H894 H 0.70753 0.04155 0.42375 0.0
H895 H 0.62524 0.04959 0.63924 0.0
O896 O 0.6808 0.06549 0.64348 0.0
H897 H 0.57596 0.14767 0.62425 0.0
H898 H 0.68478 0.16151 0.69385 0.0
H899 H 0.70461 0.13777 0.57649 0.0
H900 H 0.6272 0.13916 0.60348 0.0
H901 H 0.6652 0.11493 0.66898 0.0
O902 O 0.61774 0.02738 0.53151 0.0
H903 H 0.69787 0.05861 0.48091 0.0
H904 H 0.63996 0.98447 0.49718 0.0
H905 H 0.72426 0.18483 0.60024 0.0
H906 H 0.57409 0.0572 0.66086 0.0
H907 H 0.71441 0.19691 0.65934 0.0
H908 H 0.54905 0.10648 0.65322 0.0
O909 O 0.70939 0.0793 0.58379 0.0
H910 H 0.63723 0.94562 0.60661 0.0
H911 H 0.70996 0.99062 0.52909 0.0
H912 H 0.71966 0.94023 0.55206 0.0
H913 H 0.68311 0.9174 0.59108 0.0
H914 H 0.62856 0.99606 0.58325 0.0
H915 H 0.64862 0.96678 0.44001 0.0
H916 H 0.68277 0.99532 0.40295 0.0
O917 O 0.70519 0.04574 0.54221 0.0
C918 C 0.65335 0.10329 0.53065 0.0
C919 C 0.69275 0.02882 0.43971 0.0
C920 C 0.65965 0.98688 0.44883 0.0
N921 N 0.6688 0.02227 0.4925 0.0
C922 C 0.68734 0.03828 0.47216 0.0
C923 C 0.6548 0.99701 0.48115 0.0
C924 C 0.67881 0.0029 0.42805 0.0
C925 C 0.61459 0.07118 0.63614 0.0
N926 N 0.62916 0.09389 0.62007 0.0
C927 C 0.58559 0.07533 0.64831 0.0
C928 C 0.57154 0.10297 0.64397 0.0
C929 C 0.58661 0.12608 0.6277 0.0
C930 C 0.61558 0.1211 0.61586 0.0
C931 C 0.68916 0.15653 0.66804 0.0
C932 C 0.70001 0.14302 0.60215 0.0
C933 C 0.67819 0.13016 0.65384 0.0
N934 N 0.68357 0.12376 0.62124 0.0
C935 C 0.71128 0.16963 0.61549 0.0
C936 C 0.70578 0.17639 0.64866 0.0
C937 C 0.72055 0.06307 0.56088 0.0
C938 C 0.65329 0.9553 0.58957 0.0
C939 C 0.69401 0.98086 0.54614 0.0
C940 C 0.69958 0.9523 0.559 0.0
C941 C 0.67905 0.93949 0.58087 0.0
N942 N 0.66866 0.99617 0.55473 0.0
C943 C 0.64843 0.98379 0.57617 0.0
H944 H 0.58198 0.24356 0.01571 0.0
H945 H 0.59336 0.26122 0.12075 0.0
H946 H 0.6161 0.31064 0.10699 0.0
H947 H 0.65143 0.27452 0.98992 0.0
H948 H 0.63635 0.28876 0.95159 0.0
H949 H 0.62025 0.25585 0.9704 0.0
H950 H 0.56803 0.28126 0.97052 0.0
H951 H 0.58389 0.31425 0.95165 0.0
H952 H 0.56349 0.31735 0.99005 0.0
H953 H 0.63666 0.35959 0.07977 0.0
H954 H 0.65493 0.40031 0.0428 0.0
H955 H 0.63166 0.34623 0.95723 0.0
C956 C 0.58908 0.25764 0.03608 0.0
C957 C 0.58567 0.2485 0.06938 0.0
C958 C 0.59566 0.26778 0.09503 0.0
C959 C 0.60856 0.29586 0.08742 0.0
C960 C 0.61159 0.304 0.05411 0.0
C961 C 0.60226 0.28514 0.02898 0.0
C962 C 0.60849 0.29805 0.99514 0.0
C963 C 0.63044 0.27811 0.97563 0.0
C964 C 0.57923 0.30303 0.97572 0.0
C965 C 0.62274 0.32738 0.00488 0.0
C966 C 0.62421 0.33081 0.03889 0.0
C967 C 0.63578 0.35692 0.05313 0.0
C968 C 0.64606 0.37992 0.03198 0.0
C969 C 0.645 0.37638 0.99707 0.0
C970 C 0.63323 0.34965 0.98369 0.0
H971 H 0.12456 0.64881 0.00992 0.0
H972 H 0.11613 0.59003 0.92475 0.0
H973 H 0.16137 0.56261 0.94223 0.0
H974 H 0.20305 0.65593 0.00531 0.0
H975 H 0.20939 0.65655 0.04943 0.0
H976 H 0.17427 0.66951 0.03284 0.0
H977 H 0.14572 0.63184 0.07017 0.0
H978 H 0.18079 0.61878 0.08699 0.0
H979 H 0.15509 0.59252 0.0684 0.0
H980 H 0.20826 0.54392 0.96586 0.0
H981 H 0.25642 0.53552 0.99301 0.0
H982 H 0.23696 0.60706 0.06309 0.0
C983 C 0.13201 0.62977 0.99543 0.0
C984 C 0.1169 0.62132 0.96609 0.0
C985 C 0.12753 0.59683 0.9472 0.0
C986 C 0.15304 0.58103 0.95706 0.0
C987 C 0.16777 0.59017 0.98574 0.0
C988 C 0.15785 0.614 0.00466 0.0
C989 C 0.17947 0.62059 0.0328 0.0
C990 C 0.1923 0.65254 0.0299 0.0
C991 C 0.16436 0.61563 0.0666 0.0
C992 C 0.20331 0.59706 0.02625 0.0
C993 C 0.19571 0.57959 0.99924 0.0
C994 C 0.21439 0.55721 0.98725 0.0
C995 C 0.24183 0.55267 0.00297 0.0
C996 C 0.25063 0.57052 0.03045 0.0
C997 C 0.23083 0.59282 0.04244 0.0
H998 H 0.83746 0.14882 0.98694 0.0
H999 H 0.91721 0.09337 0.98837 0.0
H1000 H 0.94659 0.13635 0.01003 0.0
H1001 H 0.8709 0.21622 0.96158 0.0
H1002 H 0.84856 0.24003 0.98789 0.0
H1003 H 0.83378 0.20469 0.97376 0.0
H1004 H 0.82407 0.18836 0.0345 0.0
H1005 H 0.8385 0.22381 0.04883 0.0
H1006 H 0.85439 0.18925 0.06398 0.0
H1007 H 0.96793 0.18737 0.02567 0.0
H1008 H 0.97807 0.23996 0.0425 0.0
H1009 H 0.88329 0.26003 0.03557 0.0
C1010 C 0.86103 0.14567 0.99231 0.0
C1011 C 0.87521 0.11797 0.98606 0.0
C1012 C 0.906 0.11445 0.99336 0.0
C1013 C 0.92284 0.13875 0.00541 0.0
C1014 C 0.90829 0.16606 0.01065 0.0
C1015 C 0.87791 0.16937 0.00509 0.0
C1016 C 0.86745 0.20082 0.01312 0.0
C1017 C 0.85441 0.21634 0.98224 0.0
C1018 C 0.84476 0.20053 0.04182 0.0
C1019 C 0.89678 0.21493 0.02349 0.0
C1020 C 0.92019 0.1947 0.02148 0.0
C1021 C 0.9497 0.20324 0.0279 0.0
C1022 C 0.95528 0.23309 0.03719 0.0
C1023 C 0.93139 0.25371 0.04056 0.0
C1024 C 0.90185 0.24447 0.03359 0.0
H1025 H 0.36742 0.85311 0.0066 0.0
H1026 H 0.37838 0.91283 0.92258 0.0
H1027 H 0.33791 0.94516 0.94384 0.0
H1028 H 0.28803 0.85599 0.0069 0.0
H1029 H 0.28431 0.85442 0.05136 0.0
H1030 H 0.31641 0.83784 0.03158 0.0
H1031 H 0.3514 0.87022 0.06833 0.0
H1032 H 0.31928 0.88715 0.08793 0.0
H1033 H 0.34722 0.91045 0.06843 0.0
H1034 H 0.29556 0.96966 0.97217 0.0
H1035 H 0.24893 0.98155 0.00166 0.0
H1036 H 0.26306 0.90491 0.06655 0.0
C1037 C 0.36129 0.87313 0.99296 0.0
C1038 C 0.37569 0.88056 0.96293 0.0
C1039 C 0.36716 0.90665 0.94537 0.0
C1040 C 0.34453 0.92533 0.95748 0.0
C1041 C 0.33057 0.91743 0.98707 0.0
C1042 C 0.33822 0.89176 0.00439 0.0
C1043 C 0.31753 0.887 0.03373 0.0
C1044 C 0.30056 0.85705 0.03069 0.0
C1045 C 0.3349 0.88882 0.06655 0.0
C1046 C 0.29671 0.91361 0.02962 0.0
C1047 C 0.30516 0.93121 0.00302 0.0
C1048 C 0.28874 0.9562 0.99319 0.0
C1049 C 0.26225 0.96276 0.01018 0.0
C1050 C 0.25217 0.94412 0.0364 0.0
C1051 C 0.27023 0.91979 0.04685 0.0
H1052 H 0.58003 0.26051 0.49259 0.0
H1053 H 0.58629 0.24189 0.38728 0.0
H1054 H 0.6115 0.1935 0.40013 0.0
H1055 H 0.65209 0.23095 0.51458 0.0
H1056 H 0.63898 0.21686 0.55388 0.0
H1057 H 0.62173 0.24949 0.53575 0.0
H1058 H 0.5698 0.22365 0.53903 0.0
H1059 H 0.58678 0.19093 0.55719 0.0
H1060 H 0.5646 0.18739 0.52007 0.0
H1061 H 0.63349 0.14532 0.42631 0.0
H1062 H 0.65199 0.10418 0.46227 0.0
H1063 H 0.63329 0.15852 0.54908 0.0
C1064 C 0.58665 0.24647 0.47203 0.0
C1065 C 0.58099 0.25491 0.43892 0.0
C1066 C 0.59039 0.2358 0.41287 0.0
C1067 C 0.60468 0.20834 0.41996 0.0
C1068 C 0.60977 0.20079 0.45311 0.0
C1069 C 0.60123 0.21961 0.47859 0.0
C1070 C 0.60917 0.20702 0.51216 0.0
C1071 C 0.63184 0.22729 0.53013 0.0
C1072 C 0.58091 0.20194 0.53334 0.0
C1073 C 0.62318 0.17774 0.50183 0.0
C1074 C 0.62329 0.17427 0.46777 0.0
C1075 C 0.6338 0.14803 0.45296 0.0
C1076 C 0.64422 0.12479 0.47358 0.0
C1077 C 0.64424 0.12815 0.50854 0.0
C1078 C 0.63391 0.15521 0.52254 0.0
H1079 H 0.3644 0.66154 0.48966 0.0
H1080 H 0.38908 0.59484 0.56302 0.0
H1081 H 0.34643 0.56337 0.54624 0.0
H1082 H 0.28578 0.65564 0.50392 0.0
H1083 H 0.27489 0.6607 0.46127 0.0
H1084 H 0.30928 0.67694 0.47618 0.0
H1085 H 0.33875 0.6493 0.43008 0.0
H1086 H 0.30441 0.63292 0.41506 0.0
H1087 H 0.33544 0.60913 0.42629 0.0
H1088 H 0.30099 0.54045 0.52465 0.0
H1089 H 0.25208 0.52766 0.50141 0.0
H1090 H 0.25344 0.60934 0.44236 0.0
C1091 C 0.36085 0.6401 0.50167 0.0
C1092 C 0.38006 0.63019 0.52723 0.0
C1093 C 0.3747 0.60246 0.54313 0.0
C1094 C 0.3506 0.58445 0.53373 0.0
C1095 C 0.33188 0.5947 0.50862 0.0
C1096 C 0.33638 0.6219 0.4929 0.0
C1097 C 0.31119 0.62829 0.46854 0.0
C1098 C 0.29429 0.6571 0.47806 0.0
C1099 C 0.32317 0.63001 0.43287 0.0
C1100 C 0.2918 0.60062 0.47355 0.0
C1101 C 0.30456 0.58151 0.4965 0.0
C1102 C 0.29077 0.55507 0.50646 0.0
C1103 C 0.26286 0.54805 0.49305 0.0
C1104 C 0.24875 0.56741 0.46992 0.0
C1105 C 0.26371 0.5939 0.4597 0.0
H1106 H 0.87802 0.34408 0.54369 0.0
H1107 H 0.83733 0.38418 0.45679 0.0
H1108 H 0.85596 0.34182 0.42251 0.0
H1109 H 0.9449 0.31717 0.5019 0.0
H1110 H 0.94695 0.28365 0.52683 0.0
H1111 H 0.93078 0.31736 0.54377 0.0
H1112 H 0.88203 0.28833 0.55761 0.0
H1113 H 0.89804 0.25457 0.54075 0.0
H1114 H 0.86278 0.26831 0.52516 0.0
H1115 H 0.87582 0.29229 0.39922 0.0
H1116 H 0.8983 0.24249 0.3881 0.0
H1117 H 0.92863 0.23793 0.49017 0.0
C1118 C 0.87295 0.34392 0.51746 0.0
C1119 C 0.8559 0.36704 0.50286 0.0
C1120 C 0.85032 0.36652 0.46835 0.0
C1121 C 0.86076 0.34258 0.44879 0.0
C1122 C 0.87725 0.31986 0.46412 0.0
C1123 C 0.88367 0.32067 0.49762 0.0
C1124 C 0.90198 0.29385 0.50829 0.0
C1125 C 0.93299 0.3036 0.52093 0.0
C1126 C 0.88519 0.27516 0.53449 0.0
C1127 C 0.90433 0.27731 0.47572 0.0
C1128 C 0.88986 0.29249 0.4505 0.0
C1129 C 0.88759 0.28046 0.41869 0.0
C1130 C 0.90035 0.25215 0.41263 0.0
C1131 C 0.91545 0.23641 0.43818 0.0
C1132 C 0.91766 0.24949 0.46995 0.0
H1133 H 0.16251 0.86834 0.55917 0.0
H1134 H 0.11474 0.83237 0.47437 0.0
H1135 H 0.15679 0.84697 0.43789 0.0
H1136 H 0.19069 0.93254 0.51785 0.0
H1137 H 0.22602 0.93251 0.53946 0.0
H1138 H 0.1932 0.91714 0.55908 0.0
H1139 H 0.22094 0.8667 0.56823 0.0
H1140 H 0.25389 0.88201 0.54873 0.0
H1141 H 0.23756 0.84776 0.53331 0.0
H1142 H 0.20436 0.86617 0.4106 0.0
H1143 H 0.25214 0.89058 0.3947 0.0
H1144 H 0.26631 0.91612 0.49737 0.0
C1145 C 0.16103 0.86314 0.53303 0.0
C1146 C 0.13547 0.84902 0.51966 0.0
C1147 C 0.13416 0.84316 0.48515 0.0
C1148 C 0.15795 0.85128 0.46425 0.0
C1149 C 0.18271 0.8655 0.47821 0.0
C1150 C 0.18429 0.87151 0.51179 0.0
C1151 C 0.21252 0.88849 0.52043 0.0
C1152 C 0.20515 0.91951 0.53506 0.0
C1153 C 0.2324 0.87013 0.54407 0.0
C1154 C 0.22655 0.89117 0.48646 0.0
C1155 C 0.20928 0.87752 0.46242 0.0
C1156 C 0.21805 0.87699 0.42922 0.0
C1157 C 0.24519 0.89088 0.42043 0.0
C1158 C 0.26291 0.9054 0.44472 0.0
C1159 C 0.25328 0.90542 0.47809 0.0
H1160 H 0.42433 0.75997 0.99722 0.0
H1161 H 0.42052 0.74206 0.89161 0.0
H1162 H 0.40349 0.69025 0.90321 0.0
H1163 H 0.44848 0.68592 0.02418 0.0
H1164 H 0.42507 0.68649 0.06058 0.0
H1165 H 0.43951 0.72109 0.04387 0.0
H1166 H 0.38553 0.74213 0.03967 0.0
H1167 H 0.37092 0.70762 0.05631 0.0
H1168 H 0.35759 0.72137 0.01698 0.0
H1169 H 0.38583 0.64028 0.9269 0.0
H1170 H 0.36567 0.59822 0.9604 0.0
H1171 H 0.37832 0.65109 0.04957 0.0
C1172 C 0.42036 0.74505 0.97652 0.0
C1173 C 0.42398 0.75494 0.94353 0.0
C1174 C 0.41792 0.73489 0.91711 0.0
C1175 C 0.40836 0.70541 0.92345 0.0
C1176 C 0.40469 0.69647 0.95632 0.0
C1177 C 0.41029 0.71583 0.98238 0.0
C1178 C 0.40259 0.7016 0.01531 0.0
C1179 C 0.43059 0.69859 0.03727 0.0
C1180 C 0.37768 0.71923 0.0331 0.0
C1181 C 0.39159 0.67128 0.00374 0.0
C1182 C 0.39335 0.66846 0.96972 0.0
C1183 C 0.38436 0.64226 0.95359 0.0
C1184 C 0.373 0.61848 0.97279 0.0
C1185 C 0.37029 0.62135 0.00763 0.0
C1186 C 0.37993 0.64811 0.02307 0.0
H1187 H 0.76283 0.39386 0.93126 0.0
H1188 H 0.75584 0.47872 0.98363 0.0
H1189 H 0.80564 0.47038 0.00802 0.0
H1190 H 0.79268 0.35406 0.99511 0.0
H1191 H 0.81782 0.33125 0.97088 0.0
H1192 H 0.78442 0.34617 0.95225 0.0
H1193 H 0.81608 0.3715 0.90628 0.0
H1194 H 0.8497 0.35639 0.92458 0.0
H1195 H 0.84639 0.3962 0.91758 0.0
H1196 H 0.85092 0.4494 0.03414 0.0
H1197 H 0.89065 0.4178 0.05845 0.0
H1198 H 0.86998 0.34692 0.98867 0.0
C1199 C 0.77217 0.41119 0.94696 0.0
C1200 C 0.75541 0.43701 0.9554 0.0
C1201 C 0.76822 0.4588 0.97668 0.0
C1202 C 0.79657 0.45432 0.99059 0.0
C1203 C 0.81197 0.42809 0.98277 0.0
C1204 C 0.80045 0.40702 0.96115 0.0
C1205 C 0.82016 0.37935 0.95964 0.0
C1206 C 0.80272 0.35106 0.97011 0.0
C1207 C 0.8339 0.37565 0.92495 0.0
C1208 C 0.84382 0.38762 0.98494 0.0
C1209 C 0.8388 0.41602 0.99765 0.0
C1210 C 0.85562 0.42751 0.02378 0.0
C1211 C 0.87799 0.40942 0.0375 0.0
C1212 C 0.88344 0.38037 0.02488 0.0
C1213 C 0.86657 0.36946 0.99797 0.0
H1214 H 0.0816 0.7452 0.99742 0.0
H1215 H 0.09243 0.75712 0.89133 0.0
H1216 H 0.11512 0.80719 0.90137 0.0
H1217 H 0.0625 0.82007 0.01756 0.0
H1218 H 0.08298 0.81976 0.05605 0.0
H1219 H 0.06766 0.7854 0.03988 0.0
H1220 H 0.1203 0.76091 0.04178 0.0
H1221 H 0.13583 0.79519 0.05797 0.0
H1222 H 0.15116 0.77885 0.0208 0.0
H1223 H 0.13498 0.8576 0.92445 0.0
H1224 H 0.15263 0.9009 0.95794 0.0
H1225 H 0.13009 0.85226 0.04776 0.0
C1226 C 0.08869 0.75818 0.97615 0.0
C1227 C 0.08513 0.74729 0.94358 0.0
C1228 C 0.09501 0.76504 0.91654 0.0
C1229 C 0.10783 0.79349 0.92201 0.0
C1230 C 0.11088 0.80352 0.95462 0.0
C1231 C 0.10179 0.78612 0.98115 0.0
C1232 C 0.10782 0.80125 0.01388 0.0
C1233 C 0.07849 0.80696 0.03294 0.0
C1234 C 0.13011 0.78296 0.03483 0.0
C1235 C 0.12158 0.83014 0.0018 0.0
C1236 C 0.12305 0.83138 0.96762 0.0
C1237 C 0.13415 0.85668 0.95124 0.0
C1238 C 0.14404 0.88116 0.97041 0.0
C1239 C 0.14303 0.87987 0.0055 0.0
C1240 C 0.13164 0.85393 0.02108 0.0
H1241 H 0.62459 0.14203 0.00221 0.0
H1242 H 0.63195 0.10307 0.10052 0.0
H1243 H 0.67789 0.07672 0.08367 0.0
H1244 H 0.65344 0.07797 0.95579 0.0
H1245 H 0.67412 0.10091 0.92694 0.0
H1246 H 0.64037 0.11514 0.94574 0.0
H1247 H 0.66954 0.16139 0.96743 0.0
H1248 H 0.70336 0.14735 0.9487 0.0
H1249 H 0.7026 0.15584 0.99236 0.0
H1250 H 0.72315 0.05576 0.05735 0.0
H1251 H 0.76758 0.04367 0.02416 0.0
H1252 H 0.73274 0.09758 0.94295 0.0
C1253 C 0.6357 0.12766 0.02001 0.0
C1254 C 0.62462 0.12443 0.05265 0.0
C1255 C 0.64005 0.10591 0.07546 0.0
C1256 C 0.66608 0.09071 0.06606 0.0
C1257 C 0.67652 0.09448 0.03384 0.0
C1258 C 0.66205 0.11265 0.01119 0.0
C1259 C 0.67925 0.11428 0.97882 0.0
C1260 C 0.66068 0.10129 0.95013 0.0
C1261 C 0.68928 0.14663 0.97141 0.0
C1262 C 0.70571 0.09433 0.98703 0.0
C1263 C 0.7034 0.08292 0.01877 0.0
C1264 C 0.72524 0.06444 0.0324 0.0
C1265 C 0.75044 0.05773 0.01326 0.0
C1266 C 0.75377 0.06966 0.98085 0.0
C1267 C 0.73085 0.08796 0.96753 0.0
H1268 H 0.40888 0.76397 0.56184 0.0
H1269 H 0.48032 0.74441 0.49192 0.0
H1270 H 0.47233 0.79333 0.46522 0.0
H1271 H 0.36071 0.79613 0.5051 0.0
H1272 H 0.34622 0.82475 0.53228 0.0
H1273 H 0.36031 0.79023 0.54932 0.0
H1274 H 0.3972 0.82001 0.58634 0.0
H1275 H 0.38315 0.85474 0.56946 0.0
H1276 H 0.42264 0.84648 0.56758 0.0
H1277 H 0.4529 0.84041 0.44162 0.0
H1278 H 0.423 0.88362 0.42261 0.0
H1279 H 0.36445 0.87404 0.50772 0.0
C1280 C 0.42335 0.77027 0.54144 0.0
C1281 C 0.44533 0.75034 0.52911 0.0
C1282 C 0.46338 0.75924 0.50191 0.0
C1283 C 0.45912 0.78708 0.48664 0.0
C1284 C 0.43687 0.80588 0.49893 0.0
C1285 C 0.41935 0.79801 0.52581 0.0
C1286 C 0.39521 0.82125 0.53214 0.0
C1287 C 0.36376 0.80725 0.52954 0.0
C1288 C 0.39984 0.83653 0.56589 0.0
C1289 C 0.40126 0.84279 0.50385 0.0
C1290 C 0.42565 0.8336 0.48528 0.0
C1291 C 0.43413 0.84819 0.45625 0.0
C1292 C 0.41694 0.87253 0.44554 0.0
C1293 C 0.39168 0.88205 0.46387 0.0
C1294 C 0.38412 0.86747 0.49376 0.0
H1295 H 0.72855 0.39342 0.56128 0.0
H1296 H 0.74966 0.46649 0.49373 0.0
H1297 H 0.70133 0.45915 0.46572 0.0
H1298 H 0.69651 0.34639 0.5033 0.0
H1299 H 0.66727 0.33201 0.52973 0.0
H1300 H 0.70172 0.34529 0.5476 0.0
H1301 H 0.67216 0.38233 0.58472 0.0
H1302 H 0.63752 0.36896 0.56713 0.0
H1303 H 0.64639 0.40841 0.56593 0.0
H1304 H 0.65468 0.43977 0.44018 0.0
H1305 H 0.61028 0.4116 0.42124 0.0
H1306 H 0.61782 0.35234 0.50609 0.0
C1307 C 0.72273 0.4084 0.54114 0.0
C1308 C 0.74302 0.43054 0.52977 0.0
C1309 C 0.73459 0.44938 0.50302 0.0
C1310 C 0.70712 0.44544 0.48691 0.0
C1311 C 0.68812 0.42283 0.49806 0.0
C1312 C 0.69529 0.40489 0.52485 0.0
C1313 C 0.67163 0.381 0.53047 0.0
C1314 C 0.68509 0.34931 0.52759 0.0
C1315 C 0.65599 0.38546 0.56406 0.0
C1316 C 0.65061 0.38773 0.50196 0.0
C1317 C 0.66054 0.41203 0.48367 0.0
C1318 C 0.64634 0.42108 0.45462 0.0
C1319 C 0.62133 0.40482 0.4439 0.0
C1320 C 0.61071 0.37999 0.46231 0.0
C1321 C 0.62526 0.37162 0.49195 0.0
H1322 H 0.11166 0.63652 0.45829 0.0
H1323 H 0.13877 0.58881 0.54715 0.0
H1324 H 0.11844 0.6301 0.58145 0.0
H1325 H 0.13085 0.70808 0.48441 0.0
H1326 H 0.09948 0.72655 0.46505 0.0
H1327 H 0.11363 0.69205 0.44809 0.0
H1328 H 0.0608 0.66825 0.45287 0.0
H1329 H 0.04649 0.70277 0.46992 0.0
H1330 H 0.04187 0.66808 0.49236 0.0
H1331 H 0.10087 0.67966 0.60529 0.0
H1332 H 0.08558 0.732 0.6167 0.0
H1333 H 0.0672 0.74511 0.51212 0.0
C1334 C 0.113 0.63445 0.48496 0.0
C1335 C 0.12688 0.60944 0.50002 0.0
C1336 C 0.12811 0.60769 0.53506 0.0
C1337 C 0.11661 0.63103 0.55472 0.0
C1338 C 0.10349 0.6556 0.53895 0.0
C1339 C 0.1013 0.65721 0.50484 0.0
C1340 C 0.08743 0.68649 0.49374 0.0
C1341 C 0.10915 0.70434 0.47153 0.0
C1342 C 0.05735 0.68106 0.47619 0.0
C1343 C 0.08297 0.70162 0.5269 0.0
C1344 C 0.09231 0.68348 0.55273 0.0
C1345 C 0.09292 0.6938 0.58534 0.0
C1346 C 0.08426 0.72355 0.59156 0.0
C1347 C 0.07489 0.74252 0.56533 0.0
C1348 C 0.0736 0.73103 0.53278 0.0
H1349 H 0.74897 0.05732 0.5013 0.0
H1350 H 0.76441 0.0787 0.60476 0.0
H1351 H 0.81662 0.09269 0.59161 0.0
H1352 H 0.82603 0.03045 0.48079 0.0
H1353 H 0.825 0.04809 0.4406 0.0
H1354 H 0.79092 0.03428 0.45913 0.0
H1355 H 0.76698 0.08689 0.45264 0.0
H1356 H 0.80098 0.10099 0.43448 0.0
H1357 H 0.78541 0.11903 0.47055 0.0
H1358 H 0.86496 0.10974 0.56636 0.0
H1359 H 0.90534 0.12966 0.53084 0.0
H1360 H 0.85691 0.09976 0.44351 0.0
C1361 C 0.76361 0.06397 0.52135 0.0
C1362 C 0.7528 0.06663 0.55408 0.0
C1363 C 0.77238 0.07633 0.57953 0.0
C1364 C 0.80206 0.08424 0.57232 0.0
C1365 C 0.81171 0.08244 0.53954 0.0
C1366 C 0.79308 0.07249 0.51446 0.0
C1367 C 0.80763 0.07608 0.48081 0.0
C1368 C 0.8127 0.04539 0.46437 0.0
C1369 C 0.78915 0.09699 0.45832 0.0
C1370 C 0.83698 0.0904 0.49081 0.0
C1371 C 0.83917 0.09335 0.5248 0.0
C1372 C 0.86368 0.10721 0.53972 0.0
C1373 C 0.88647 0.11851 0.51932 0.0
C1374 C 0.88435 0.11628 0.48435 0.0
C1375 C 0.85934 0.10175 0.47011 0.0
H1376 H 0.50123 0.92807 0.00589 0.0
H1377 H 0.4537 0.95598 0.91705 0.0
H1378 H 0.46186 0.00876 0.93174 0.0
H1379 H 0.47328 0.98555 0.05877 0.0
H1380 H 0.50792 0.99136 0.08079 0.0
H1381 H 0.49968 0.95519 0.06311 0.0
H1382 H 0.54938 0.95664 0.02998 0.0
H1383 H 0.55797 0.99265 0.0479 0.0
H1384 H 0.55725 0.98828 0.0035 0.0
H1385 H 0.47216 0.058 0.95666 0.0
H1386 H 0.48865 0.10212 0.98819 0.0
H1387 H 0.53086 0.04375 0.06083 0.0
C1388 C 0.49294 0.94531 0.98935 0.0
C1389 C 0.47671 0.93786 0.9604 0.0
C1390 C 0.46605 0.96107 0.93946 0.0
C1391 C 0.47052 0.99118 0.94757 0.0
C1392 C 0.48585 0.99781 0.97662 0.0
C1393 C 0.49729 0.9757 0.99703 0.0
C1394 C 0.51288 0.98936 0.02684 0.0
C1395 C 0.49751 0.97979 0.0593 0.0
C1396 C 0.54636 0.98125 0.02705 0.0
C1397 C 0.50816 0.0225 0.01995 0.0
C1398 C 0.49235 0.02671 0.99091 0.0
C1399 C 0.48476 0.05509 0.97934 0.0
C1400 C 0.49415 0.08003 0.99756 0.0
C1401 C 0.51115 0.07646 0.02697 0.0
C1402 C 0.51792 0.04723 0.03846 0.0
H1403 H 0.46251 0.54876 0.03947 0.0
H1404 H 0.41009 0.46712 0.02924 0.0
H1405 H 0.45429 0.44082 0.00752 0.0
H1406 H 0.50353 0.54116 0.96611 0.0
H1407 H 0.53852 0.55496 0.98238 0.0
H1408 H 0.50367 0.56723 0.00027 0.0
H1409 H 0.52099 0.54918 0.05822 0.0
H1410 H 0.55613 0.53727 0.04061 0.0
H1411 H 0.53343 0.511 0.06352 0.0
H1412 H 0.5019 0.42463 0.98172 0.0
H1413 H 0.55254 0.41769 0.9588 0.0
H1414 H 0.57536 0.50903 0.98676 0.0
C1415 C 0.46054 0.52517 0.03344 0.0
C1416 C 0.43279 0.51006 0.03599 0.0
C1417 C 0.43105 0.47925 0.0274 0.0
C1418 C 0.45604 0.46407 0.015 0.0
C1419 C 0.48273 0.47986 0.01161 0.0
C1420 C 0.4854 0.50955 0.02106 0.0
C1421 C 0.51658 0.52136 0.01376 0.0
C1422 C 0.51549 0.54774 0.98916 0.0
C1423 C 0.53274 0.53022 0.04595 0.0
C1424 C 0.53069 0.49384 0.99815 0.0
C1425 C 0.51068 0.47022 0.99713 0.0
C1426 C 0.51796 0.4428 0.98274 0.0
C1427 C 0.54673 0.43917 0.96957 0.0
C1428 C 0.56794 0.46278 0.97106 0.0
C1429 C 0.55967 0.49052 0.98541 0.0
H1430 H 0.02816 0.54693 0.95648 0.0
H1431 H 0.97677 0.60379 0.0229 0.0
H1432 H 0.95919 0.55892 0.05299 0.0
H1433 H 0.97444 0.48546 0.95281 0.0
H1434 H 0.00312 0.45702 0.95208 0.0
H1435 H 0.01054 0.49359 0.93487 0.0
H1436 H 0.05683 0.49877 0.97318 0.0
H1437 H 0.04934 0.46238 0.99078 0.0
H1438 H 0.05228 0.49474 0.01737 0.0
H1439 H 0.94857 0.50829 0.07705 0.0
H1440 H 0.94351 0.4549 0.09192 0.0
H1441 H 0.00221 0.4308 0.01024 0.0
C1442 C 0.01291 0.54996 0.97709 0.0
C1443 C 0.00381 0.57891 0.98729 0.0
C1444 C 0.98402 0.58186 0.01457 0.0
C1445 C 0.97395 0.55651 0.03188 0.0
C1446 C 0.98386 0.52838 0.02161 0.0
C1447 C 0.0027 0.52491 0.99472 0.0
C1448 C 0.01036 0.49216 0.98916 0.0
C1449 C 0.99892 0.48143 0.95522 0.0
C1450 C 0.04421 0.48671 0.99285 0.0
C1451 C 0.99298 0.4778 0.01725 0.0
C1452 C 0.97787 0.49912 0.03565 0.0
C1453 C 0.96025 0.49137 0.0628 0.0
C1454 C 0.95761 0.46096 0.0711 0.0
C1455 C 0.97254 0.43863 0.05233 0.0
C1456 C 0.99068 0.44731 0.02523 0.0
H1457 H 0.0715 0.01091 0.00778 0.0
H1458 H 0.05129 0.91934 0.03723 0.0
H1459 H 0.00186 0.92327 0.01032 0.0
H1460 H 0.99793 0.03994 0.02244 0.0
H1461 H 0.99905 0.06542 0.98774 0.0
H1462 H 0.03325 0.05474 0.00817 0.0
H1463 H 0.05479 0.03673 0.95189 0.0
H1464 H 0.02038 0.04688 0.9314 0.0
H1465 H 0.03456 0.00914 0.92811 0.0
H1466 H 0.95491 0.93695 0.98082 0.0
H1467 H 0.91044 0.96167 0.95725 0.0
H1468 H 0.96054 0.04477 0.94762 0.0
C1469 C 0.05664 0.9917 0.00863 0.0
C1470 C 0.06524 0.96479 0.02453 0.0
C1471 C 0.04512 0.94023 0.02533 0.0
C1472 C 0.01712 0.94213 0.00983 0.0
C1473 C 0.00959 0.96877 0.9938 0.0
C1474 C 0.02852 0.99328 0.99352 0.0
C1475 C 0.01425 0.01983 0.97619 0.0
C1476 C 0.01091 0.04655 1.00006 0.0
C1477 C 0.03206 0.02866 0.94505 0.0
C1478 C 0.98413 0.00651 0.96718 0.0
C1479 C 0.98216 0.97688 0.97711 0.0
C1480 C 0.95617 0.9601 0.97283 0.0
C1481 C 0.93107 0.97434 0.95932 0.0
C1482 C 0.93206 0.00513 0.95055 0.0
C1483 C 0.95925 0.0211 0.95355 0.0
H1484 H 0.50102 0.56827 0.50287 0.0
H1485 H 0.44011 0.54756 0.58371 0.0
H1486 H 0.44274 0.49378 0.56916 0.0
H1487 H 0.47105 0.51596 0.44535 0.0
H1488 H 0.50688 0.50627 0.42774 0.0
H1489 H 0.50111 0.54298 0.44526 0.0
H1490 H 0.54644 0.53527 0.48451 0.0
H1491 H 0.55262 0.49873 0.46678 0.0
H1492 H 0.54765 0.50264 0.51091 0.0
H1493 H 0.45168 0.44233 0.54515 0.0
H1494 H 0.46822 0.39688 0.51524 0.0
H1495 H 0.522 0.45228 0.44952 0.0
C1496 C 0.48847 0.55245 0.5178 0.0
C1497 C 0.47044 0.56207 0.54449 0.0
C1498 C 0.45416 0.54065 0.56321 0.0
C1499 C 0.45541 0.51009 0.55506 0.0
C1500 C 0.47295 0.50147 0.52814 0.0
C1501 C 0.48931 0.52202 0.50993 0.0
C1502 C 0.50625 0.5071 0.48202 0.0
C1503 C 0.49567 0.51878 0.44809 0.0
C1504 C 0.54025 0.51117 0.48633 0.0
C1505 C 0.49694 0.47488 0.4874 0.0
C1506 C 0.4777 0.47204 0.51406 0.0
C1507 C 0.46669 0.44426 0.52418 0.0
C1508 C 0.47613 0.41862 0.50699 0.0
C1509 C 0.49632 0.42107 0.48001 0.0
C1510 C 0.50637 0.44965 0.46986 0.0
H1511 H 0.03965 0.53455 0.46516 0.0
H1512 H 0.0939 0.45811 0.49459 0.0
H1513 H 0.04926 0.43355 0.51782 0.0
H1514 H 0.99312 0.53569 0.53624 0.0
H1515 H 0.95931 0.5454 0.51431 0.0
H1516 H 0.99518 0.55674 0.49813 0.0
H1517 H 0.98354 0.5302 0.44247 0.0
H1518 H 0.94746 0.51911 0.45833 0.0
H1519 H 0.97293 0.49116 0.44259 0.0
H1520 H -0.0002 0.41834 0.54073 0.0
H1521 H 0.9472 0.41149 0.55776 0.0
H1522 H 0.92452 0.49727 0.51309 0.0
C1523 C 0.04205 0.51245 0.47601 0.0
C1524 C 0.07033 0.49833 0.47809 0.0
C1525 C 0.07253 0.46948 0.49275 0.0
C1526 C 0.0473 0.4553 0.5061 0.0
C1527 C 0.01995 0.47015 0.50447 0.0
C1528 C 0.01702 0.49789 0.48946 0.0
C1529 C 0.98499 0.50901 0.49146 0.0
C1530 C 0.98305 0.53845 0.51121 0.0
C1531 C 0.97143 0.51257 0.45664 0.0
C1532 C 0.97056 0.48328 0.51016 0.0
C1533 C 0.99118 0.46118 0.51749 0.0
C1534 C 0.98335 0.43539 0.53497 0.0
C1535 C 0.95343 0.43178 0.54467 0.0
C1536 C 0.93172 0.4538 0.53674 0.0
C1537 C 0.94057 0.48002 0.51954 0.0
H1538 H 0.00475 0.91943 0.50501 0.0
H1539 H 0.07991 0.94738 0.5661 0.0
H1540 H 0.07177 0.99975 0.54929 0.0
H1541 H 0.01806 0.97098 0.43798 0.0
H1542 H 0.97897 0.97855 0.43059 0.0
H1543 H 0.99029 0.94285 0.4474 0.0
H1544 H 0.95487 0.95053 0.49757 0.0
H1545 H 0.94325 0.98612 0.48076 0.0
H1546 H 0.95817 0.98411 0.52221 0.0
H1547 H 0.05639 0.04885 0.52579 0.0
H1548 H 0.03259 0.09251 0.49916 0.0
H1549 H 0.96708 0.03353 0.45331 0.0
C1550 C 0.01937 0.9366 0.51496 0.0
C1551 C 0.04303 0.92922 0.53678 0.0
C1552 C 0.0617 0.95236 0.54924 0.0
C1553 C 0.05732 0.98224 0.53982 0.0
C1554 C 0.03413 0.98872 0.51796 0.0
C1555 C 0.0153 0.96669 0.50583 0.0
C1556 C 0.99189 0.97999 0.48291 0.0
C1557 C 0.995 0.96733 0.44763 0.0
C1558 C 0.96017 0.97488 0.4967 0.0
C1559 C 0.00056 0.01288 0.48419 0.0
C1560 C 0.02508 0.01732 0.50445 0.0
C1561 C 0.03715 0.04571 0.50985 0.0
C1562 C 0.0235 0.07037 0.49454 0.0
C1563 C 0.99797 0.06649 0.47413 0.0
C1564 C 0.98663 0.03725 0.46866 0.0
H1565 H 0.57461 0.00206 0.49866 0.0
H1566 H 0.54787 0.07531 0.56325 0.0
H1567 H 0.49548 0.06887 0.54567 0.0
H1568 H 0.52413 0.01938 0.43199 0.0
H1569 H 0.51593 0.98074 0.42244 0.0
H1570 H 0.55163 0.9907 0.44013 0.0
H1571 H 0.54294 0.95322 0.48832 0.0
H1572 H 0.5074 0.94289 0.47058 0.0
H1573 H 0.50926 0.95598 0.51279 0.0
H1574 H 0.44624 0.05488 0.5215 0.0
H1575 H 0.40237 0.03212 0.49423 0.0
H1576 H 0.46069 0.96824 0.44476 0.0
C1577 C 0.5577 0.01659 0.50926 0.0
C1578 C 0.56535 0.03921 0.53228 0.0
C1579 C 0.54258 0.05787 0.54549 0.0
C1580 C 0.51274 0.05446 0.53563 0.0
C1581 C 0.50601 0.03233 0.51251 0.0
C1582 C 0.52773 0.01356 0.49962 0.0
C1583 C 0.51429 0.99138 0.47538 0.0
C1584 C 0.52727 0.99583 0.44041 0.0
C1585 C 0.51873 0.95895 0.48751 0.0
C1586 C 0.48164 0.00057 0.47685 0.0
C1587 C 0.47744 0.02432 0.49833 0.0
C1588 C 0.44921 0.03632 0.50453 0.0
C1589 C 0.42445 0.02327 0.48888 0.0
C1590 C 0.42811 0.99848 0.4673 0.0
C1591 C 0.45719 0.98737 0.46084 0.0
H1592 H 0.50953 0.23701 0.33684 0.0
H1593 H 0.48405 0.32765 0.31061 0.0
H1594 H 0.47017 0.31063 0.25447 0.0
H1595 H 0.54774 0.2241 0.26796 0.0
H1596 H 0.53855 0.185 0.26284 0.0
H1597 H 0.53729 0.20159 0.30329 0.0
H1598 H 0.48198 0.18494 0.31009 0.0
H1599 H 0.48314 0.16798 0.26953 0.0
H1600 H 0.45477 0.19539 0.27917 0.0
H1601 H 0.46996 0.2869 0.19891 0.0
H1602 H 0.48523 0.25905 0.14876 0.0
H1603 H 0.51218 0.18393 0.21033 0.0
C1604 C 0.49945 0.25281 0.31976 0.0
C1605 C 0.49715 0.2834 0.32803 0.0
C1606 C 0.48543 0.30397 0.3047 0.0
C1607 C 0.47741 0.29448 0.27283 0.0
C1608 C 0.48138 0.26436 0.26468 0.0
C1609 C 0.49198 0.24374 0.28758 0.0
C1610 C 0.4996 0.2142 0.27111 0.0
C1611 C 0.53274 0.20577 0.27662 0.0
C1612 C 0.47861 0.18915 0.2832 0.0
C1613 C 0.49345 0.22205 0.23525 0.0
C1614 C 0.4821 0.25074 0.23208 0.0
C1615 C 0.47809 0.26412 0.20108 0.0
C1616 C 0.48686 0.24815 0.1727 0.0
C1617 C 0.49992 0.21937 0.17567 0.0
C1618 C 0.50205 0.20583 0.20726 0.0
H1619 H 0.26478 0.57243 0.3273 0.0
H1620 H 0.18282 0.52046 0.31983 0.0
H1621 H 0.19696 0.50516 0.26301 0.0
H1622 H 0.2625 0.6018 0.24838 0.0
H1623 H 0.30238 0.60079 0.24146 0.0
H1624 H 0.28801 0.60384 0.28294 0.0
H1625 H 0.31774 0.55636 0.30021 0.0
H1626 H 0.33235 0.55322 0.2587 0.0
H1627 H 0.31285 0.52202 0.27725 0.0
H1628 H 0.21786 0.50007 0.20455 0.0
H1629 H 0.24288 0.50672 0.1502 0.0
H1630 H 0.31039 0.56246 0.19706 0.0
C1631 C 0.25007 0.55726 0.3141 0.0
C1632 C 0.22276 0.54753 0.32812 0.0
C1633 C 0.20397 0.52807 0.30969 0.0
C1634 C 0.21184 0.51921 0.27741 0.0
C1635 C 0.23863 0.52985 0.26403 0.0
C1636 C 0.2575 0.54835 0.28196 0.0
C1637 C 0.28369 0.55889 0.26124 0.0
C1638 C 0.28415 0.59336 0.25834 0.0
C1639 C 0.31341 0.5469 0.27518 0.0
C1640 C 0.27616 0.54429 0.22851 0.0
C1641 C 0.25038 0.52722 0.23059 0.0
C1642 C 0.23829 0.51305 0.20278 0.0
C1643 C 0.25265 0.51692 0.17202 0.0
C1644 C 0.27855 0.53512 0.16937 0.0
C1645 C 0.29065 0.54835 0.19821 0.0
H1646 H 0.92683 0.2558 0.17575 0.0
H1647 H 0.01983 0.28283 0.16754 0.0
H1648 H 0.03125 0.2558 0.21985 0.0
H1649 H 0.91926 0.2639 0.26086 0.0
H1650 H 0.89572 0.23144 0.26656 0.0
H1651 H 0.89574 0.25091 0.2275 0.0
H1652 H 0.9093 0.2015 0.1971 0.0
H1653 H 0.90915 0.1818 0.23613 0.0
H1654 H 0.94183 0.18053 0.20992 0.0
H1655 H 0.03036 0.23117 0.277 0.0
H1656 H 0.01853 0.20646 0.33058 0.0
H1657 H 0.92701 0.19281 0.29789 0.0
C1658 C 0.9497 0.25563 0.18472 0.0
C1659 C 0.97248 0.27138 0.16789 0.0
C1660 C 0.00216 0.27067 0.18014 0.0
C1661 C 0.00878 0.25549 0.20981 0.0
C1662 C 0.98557 0.24067 0.22627 0.0
C1663 C 0.95675 0.24015 0.21371 0.0
C1664 C 0.9356 0.22318 0.23616 0.0
C1665 C 0.91009 0.24358 0.24849 0.0
C1666 C 0.92325 0.19508 0.21879 0.0
C1667 C 0.95675 0.21493 0.2639 0.0
C1668 C 0.98546 0.22529 0.25796 0.0
C1669 C 0.00814 0.22239 0.28156 0.0
C1670 C 0.00122 0.20848 0.3119 0.0
C1671 C 0.97204 0.19736 0.31801 0.0
C1672 C 0.94972 0.20045 0.29353 0.0
H1673 H 0.28757 0.93164 0.30239 0.0
H1674 H 0.27037 0.02143 0.33906 0.0
H1675 H 0.24367 0.03355 0.28657 0.0
H1676 H 0.3005 0.95014 0.21795 0.0
H1677 H 0.28192 0.91707 0.20252 0.0
H1678 H 0.29974 0.91635 0.24254 0.0
H1679 H 0.24989 0.89933 0.26967 0.0
H1680 H 0.23193 0.89985 0.22974 0.0
H1681 H 0.21651 0.92138 0.26348 0.0
H1682 H 0.22037 0.03539 0.22761 0.0
H1683 H 0.19867 0.02516 0.17191 0.0
H1684 H 0.23022 0.93333 0.17807 0.0
C1685 C 0.27835 0.95397 0.29942 0.0
C1686 C 0.2813 0.97577 0.32449 0.0
C1687 C 0.26834 0.00447 0.31998 0.0
C1688 C 0.25331 0.01153 0.29026 0.0
C1689 C 0.25117 0.98944 0.26578 0.0
C1690 C 0.26305 0.96111 0.27047 0.0
C1691 C 0.25711 0.94075 0.24139 0.0
C1692 C 0.28657 0.93049 0.22515 0.0
C1693 C 0.2377 0.91375 0.25169 0.0
C1694 C 0.24007 0.96197 0.21926 0.0
C1695 C 0.23703 0.9901 0.23331 0.0
C1696 C 0.22247 0.01337 0.21657 0.0
C1697 C 0.21036 0.00745 0.18498 0.0
C1698 C 0.21257 0.97842 0.17099 0.0
C1699 C 0.22784 0.95566 0.18836 0.0
H1700 H 0.47539 0.82568 0.79623 0.0
H1701 H 0.50713 0.74699 0.84875 0.0
H1702 H 0.51704 0.722 0.79508 0.0
H1703 H 0.43327 0.78883 0.74259 0.0
H1704 H 0.43933 0.81291 0.70731 0.0
H1705 H 0.44327 0.82766 0.74841 0.0
H1706 H 0.49742 0.84494 0.73519 0.0
H1707 H 0.49359 0.83053 0.69365 0.0
H1708 H 0.52421 0.81827 0.71941 0.0
H1709 H 0.51261 0.70206 0.73711 0.0
H1710 H 0.49453 0.68902 0.6812 0.0
H1711 H 0.46433 0.78067 0.66716 0.0
C1712 C 0.4855 0.80359 0.79648 0.0
C1713 C 0.49052 0.78823 0.82656 0.0
C1714 C 0.50344 0.75927 0.82594 0.0
C1715 C 0.50912 0.74494 0.79555 0.0
C1716 C 0.50212 0.76011 0.76623 0.0
C1717 C 0.49095 0.78903 0.76655 0.0
C1718 C 0.48063 0.79886 0.73255 0.0
C1719 C 0.44716 0.80754 0.73276 0.0
C1720 C 0.50014 0.82468 0.71943 0.0
C1721 C 0.48605 0.77036 0.71326 0.0
C1722 C 0.49915 0.74847 0.73282 0.0
C1723 C 0.50308 0.71924 0.72136 0.0
C1724 C 0.49264 0.71203 0.68955 0.0
C1725 C 0.47805 0.73388 0.66976 0.0
C1726 C 0.47575 0.76359 0.68145 0.0
H1727 H 0.76726 0.41394 0.68104 0.0
H1728 H 0.77999 0.50852 0.65984 0.0
H1729 H 0.75803 0.52127 0.71464 0.0
H1730 H 0.69614 0.42179 0.72223 0.0
H1731 H 0.70403 0.39231 0.75157 0.0
H1732 H 0.7206 0.3913 0.71088 0.0
H1733 H 0.77345 0.38784 0.73721 0.0
H1734 H 0.75704 0.38888 0.77796 0.0
H1735 H 0.78515 0.41603 0.76652 0.0
H1736 H 0.73671 0.5227 0.77407 0.0
H1737 H 0.71515 0.51285 0.8298 0.0
H1738 H 0.7151 0.41741 0.80865 0.0
C1739 C 0.7655 0.43739 0.68785 0.0
C1740 C 0.77553 0.46027 0.66637 0.0
C1741 C 0.7724 0.49066 0.67601 0.0
C1742 C 0.76005 0.49806 0.70707 0.0
C1743 C 0.75061 0.4748 0.72782 0.0
C1744 C 0.75293 0.4451 0.71829 0.0
C1745 C 0.74092 0.42411 0.74451 0.0
C1746 C 0.71381 0.40634 0.73151 0.0
C1747 C 0.76562 0.40299 0.7573 0.0
C1748 C 0.73173 0.44654 0.77061 0.0
C1749 C 0.73757 0.47569 0.76083 0.0
C1750 C 0.73179 0.49996 0.78176 0.0
C1751 C 0.71964 0.49418 0.81336 0.0
C1752 C 0.71316 0.46442 0.82341 0.0
C1753 C 0.71932 0.44048 0.80158 0.0
H1754 H 0.02571 0.74747 0.67661 0.0
H1755 H 0.03153 0.84088 0.70533 0.0
H1756 H 0.01616 0.82748 0.76246 0.0
H1757 H 0.96395 0.72368 0.73387 0.0
H1758 H 0.98208 0.68843 0.74265 0.0
H1759 H 0.98684 0.70596 0.7027 0.0
H1760 H 0.04454 0.70444 0.71015 0.0
H1761 H 0.03993 0.68687 0.74992 0.0
H1762 H 0.06103 0.72121 0.7465 0.0
H1763 H 0.00586 0.80337 0.81743 0.0
H1764 H 0.00791 0.77052 0.8667 0.0
H1765 H 0.01237 0.69246 0.80271 0.0
C1766 C 0.02262 0.76514 0.69472 0.0
C1767 C 0.02897 0.79524 0.68667 0.0
C1768 C 0.02622 0.81775 0.71115 0.0
C1769 C 0.01736 0.81034 0.74351 0.0
C1770 C 0.01181 0.78028 0.75099 0.0
C1771 C 0.01464 0.75798 0.72732 0.0
C1772 C 0.01229 0.7271 0.74275 0.0
C1773 C 0.98464 0.71031 0.72971 0.0
C1774 C 0.04116 0.70886 0.73699 0.0
C1775 C 0.00857 0.73545 0.77887 0.0
C1776 C 0.00749 0.76622 0.78304 0.0
C1777 C 0.00625 0.77924 0.81444 0.0
C1778 C 0.00729 0.76039 0.84231 0.0
C1779 C 0.01019 0.72895 0.8385 0.0
C1780 C 0.00983 0.7164 0.80636 0.0
H1781 H 0.7073 0.07863 0.69645 0.0
H1782 H 0.70717 0.98391 0.67178 0.0
H1783 H 0.72897 0.97237 0.727 0.0
H1784 H 0.77746 0.07872 0.73619 0.0
H1785 H 0.76678 0.10616 0.76679 0.0
H1786 H 0.74904 0.10616 0.72675 0.0
H1787 H 0.69694 0.102 0.75475 0.0
H1788 H 0.7145 0.10205 0.79494 0.0
H1789 H 0.68975 0.07183 0.78346 0.0
H1790 H 0.75108 0.97208 0.78603 0.0
H1791 H 0.77514 0.98336 0.84017 0.0
H1792 H 0.76292 0.07849 0.82219 0.0
C1793 C 0.71138 0.05536 0.70273 0.0
C1794 C 0.70517 0.03208 0.68007 0.0
C1795 C 0.71163 0.00203 0.68895 0.0
C1796 C 0.7239 0.99531 0.72024 0.0
C1797 C 0.72983 0.01896 0.74198 0.0
C1798 C 0.72398 0.04839 0.73333 0.0
C1799 C 0.734 0.07008 0.75982 0.0
C1800 C 0.75826 0.09153 0.74659 0.0
C1801 C 0.7072 0.08751 0.77409 0.0
C1802 C 0.74664 0.04836 0.78484 0.0
C1803 C 0.74369 0.01891 0.77456 0.0
C1804 C 0.75357 0.99507 0.79419 0.0
C1805 C 0.76711 0.00163 0.82485 0.0
C1806 C 0.77107 0.03175 0.83504 0.0
C1807 C 0.76049 0.05524 0.8148 0.0
loop_
_geom_bond_atom_site_label_1
_geom_bond_atom_site_label_2
_geom_bond_distance
_geom_bond_site_symmetry_2
_ccdc_geom_bond_type
Co0 O2 2.143 . S
Co0 O8 2.074 . S
Co0 O11 2.093 . S
Co0 O24 2.097 . S
Co0 N41 2.151 . S
Co0 N49 2.214 . S
Co1 O2 2.160 . S
Co1 O7 2.058 . S
Co1 O17 2.057 . S
Co1 O32 2.037 . S
Co1 N36 2.145 1_554 S
Co1 N57 2.257 . S
O2 Co0 2.143 . S
O2 Co1 2.160 . S
C3 O4 1.278 . S
C3 O11 1.224 . S
O4 C3 1.278 . S
C5 O6 1.245 . S
C5 O17 1.232 . S
O6 C5 1.245 . S
O7 Co1 2.058 . S
O7 C33 1.269 . S
O8 Co0 2.074 . S
O8 C33 1.257 . S
H9 C34 0.930 . S
H10 C40 0.930 . S
O11 Co0 2.093 . S
O11 C3 1.224 . S
H12 C44 0.929 . S
H13 C46 0.930 . S
H14 C47 0.930 . S
H15 C45 0.929 . S
H16 C48 0.928 . S
O17 Co1 2.057 . S
O17 C5 1.232 . S
H18 C37 0.929 . S
H19 C38 0.929 . S
H20 C50 0.931 . S
H21 C42 0.929 . S
H22 C51 0.930 . S
H23 C43 0.931 . S
O24 Co0 2.097 . S
O24 C52 1.214 . S
H25 C53 0.929 . S
H26 C54 0.929 1_556 S
H27 C55 0.930 . S
H28 C56 0.929 . S
H29 C58 0.930 . S
H30 C35 0.930 . S
H31 C39 0.930 . S
O32 Co1 2.037 . S
O32 C52 1.234 . S
C33 O7 1.269 . S
C33 O8 1.257 . S
C34 H9 0.930 . S
C34 C37 1.388 . S
C34 C39 1.418 . S
C35 H30 0.930 . S
C35 C38 1.404 . S
C35 C39 1.353 . S
N36 Co1 2.145 1_556 S
N36 C37 1.397 . S
N36 C38 1.334 . S
C37 H18 0.929 . S
C37 C34 1.388 . S
C37 N36 1.397 . S
C38 H19 0.929 . S
C38 C35 1.404 . S
C38 N36 1.334 . S
C39 H31 0.930 . S
C39 C34 1.418 . S
C39 C35 1.353 . S
C40 H10 0.930 . S
C40 N41 1.330 . S
C40 C42 1.446 . S
N41 Co0 2.151 . S
N41 C40 1.330 . S
N41 C45 1.418 . S
C42 H21 0.929 . S
C42 C40 1.446 . S
C42 C43 1.332 . S
C43 H23 0.931 . S
C43 C42 1.332 . S
C43 C44 1.267 . S
C44 H12 0.929 . S
C44 C43 1.267 . S
C44 C45 1.251 . S
C45 H15 0.929 . S
C45 N41 1.418 . S
C45 C44 1.251 . S
C46 H13 0.930 . S
C46 C48 1.406 . S
C46 C51 1.261 . S
C47 H14 0.930 . S
C47 N49 1.325 . S
C47 C50 1.357 . S
C48 H16 0.928 . S
C48 C46 1.406 . S
C48 N49 1.261 . S
N49 Co0 2.214 . S
N49 C47 1.325 . S
N49 C48 1.261 . S
C50 H20 0.931 . S
C50 C47 1.357 . S
C50 C51 1.312 . S
C51 H22 0.930 . S
C51 C46 1.261 . S
C51 C50 1.312 . S
C52 O24 1.214 . S
C52 O32 1.234 . S
C53 H25 0.929 . S
C53 C56 1.391 . S
C53 C58 1.391 . S
C54 H26 0.929 1_554 S
C54 C55 1.390 . S
C54 N57 1.391 . S
C55 H27 0.930 . S
C55 C54 1.390 . S
C55 C56 1.392 . S
C56 H28 0.929 . S
C56 C53 1.391 . S
C56 C55 1.392 . S
N57 Co1 2.257 . S
N57 C54 1.391 . S
N57 C58 1.388 . S
C58 H29 0.930 . S
C58 C53 1.391 . S
C58 N57 1.388 . S
Co59 O61 2.143 . S
Co59 O67 2.074 . S
Co59 O70 2.093 . S
Co59 O83 2.097 . S
Co59 N100 2.151 . S
Co59 N108 2.214 . S
Co60 O61 2.160 . S
Co60 O66 2.058 . S
Co60 O76 2.057 . S
Co60 O91 2.037 . S
Co60 N95 2.145 1_554 S
Co60 N116 2.257 . S
O61 Co59 2.143 . S
O61 Co60 2.160 . S
C62 O63 1.278 . S
C62 O70 1.224 . S
O63 C62 1.278 . S
C64 O65 1.245 . S
C64 O76 1.232 . S
O65 C64 1.245 . S
O66 Co60 2.058 . S
O66 C92 1.269 . S
O67 Co59 2.074 . S
O67 C92 1.257 . S
H68 C93 0.930 . S
H69 C99 0.930 . S
O70 Co59 2.093 . S
O70 C62 1.224 . S
H71 C103 0.929 . S
H72 C105 0.930 . S
H73 C106 0.930 . S
H74 C104 0.929 . S
H75 C107 0.928 . S
O76 Co60 2.057 . S
O76 C64 1.232 . S
H77 C96 0.929 . S
H78 C97 0.929 . S
H79 C109 0.931 . S
H80 C101 0.929 . S
H81 C110 0.930 . S
H82 C102 0.931 . S
O83 Co59 2.097 . S
O83 C111 1.214 . S
H84 C112 0.929 . S
H85 C113 0.929 1_556 S
H86 C114 0.930 . S
H87 C115 0.929 . S
H88 C117 0.930 . S
H89 C94 0.930 . S
H90 C98 0.930 . S
O91 Co60 2.037 . S
O91 C111 1.234 . S
C92 O66 1.269 . S
C92 O67 1.257 . S
C93 H68 0.930 . S
C93 C96 1.388 . S
C93 C98 1.418 . S
C94 H89 0.930 . S
C94 C97 1.404 . S
C94 C98 1.353 . S
N95 Co60 2.145 1_556 S
N95 C96 1.397 . S
N95 C97 1.334 . S
C96 H77 0.929 . S
C96 C93 1.388 . S
C96 N95 1.397 . S
C97 H78 0.929 . S
C97 C94 1.404 . S
C97 N95 1.334 . S
C98 H90 0.930 . S
C98 C93 1.418 . S
C98 C94 1.353 . S
C99 H69 0.930 . S
C99 N100 1.330 . S
C99 C101 1.446 . S
N100 Co59 2.151 . S
N100 C99 1.330 . S
N100 C104 1.418 . S
C101 H80 0.929 . S
C101 C99 1.446 . S
C101 C102 1.332 . S
C102 H82 0.931 . S
C102 C101 1.332 . S
C102 C103 1.267 . S
C103 H71 0.929 . S
C103 C102 1.267 . S
C103 C104 1.251 . S
C104 H74 0.929 . S
C104 N100 1.418 . S
C104 C103 1.251 . S
C105 H72 0.930 . S
C105 C107 1.406 . S
C105 C110 1.261 . S
C106 H73 0.930 . S
C106 N108 1.325 . S
C106 C109 1.357 . S
C107 H75 0.928 . S
C107 C105 1.406 . S
C107 N108 1.261 . S
N108 Co59 2.214 . S
N108 C106 1.325 . S
N108 C107 1.261 . S
C109 H79 0.931 . S
C109 C106 1.357 . S
C109 C110 1.312 . S
C110 H81 0.930 . S
C110 C105 1.261 . S
C110 C109 1.312 . S
C111 O83 1.214 . S
C111 O91 1.234 . S
C112 H84 0.929 . S
C112 C115 1.391 . S
C112 C117 1.391 . S
C113 H85 0.929 1_554 S
C113 C114 1.390 . S
C113 N116 1.391 . S
C114 H86 0.930 . S
C114 C113 1.390 . S
C114 C115 1.392 . S
C115 H87 0.929 . S
C115 C112 1.391 . S
C115 C114 1.392 . S
N116 Co60 2.257 . S
N116 C113 1.391 . S
N116 C117 1.388 . S
C117 H88 0.930 . S
C117 C112 1.391 . S
C117 N116 1.388 . S
Co118 O120 2.143 . S
Co118 O126 2.074 . S
Co118 O129 2.093 . S
Co118 O142 2.097 . S
Co118 N159 2.151 . S
Co118 N167 2.214 . S
Co119 O120 2.160 . S
Co119 O125 2.058 . S
Co119 O135 2.057 . S
Co119 O150 2.037 . S
Co119 N154 2.145 1_554 S
Co119 N175 2.257 1_655 S
O120 Co118 2.143 . S
O120 Co119 2.160 . S
C121 O122 1.278 . S
C121 O129 1.224 . S
O122 C121 1.278 . S
C123 O124 1.245 . S
C123 O135 1.232 . S
O124 C123 1.245 . S
O125 Co119 2.058 . S
O125 C151 1.269 . S
O126 Co118 2.074 . S
O126 C151 1.257 . S
H127 C152 0.930 . S
H128 C158 0.930 . S
O129 Co118 2.093 . S
O129 C121 1.224 . S
H130 C162 0.929 . S
H131 C164 0.930 . S
H132 C165 0.930 . S
H133 C163 0.929 . S
H134 C166 0.928 . S
O135 Co119 2.057 . S
O135 C123 1.232 . S
H136 C155 0.929 . S
H137 C156 0.929 1_455 S
H138 C168 0.931 . S
H139 C160 0.929 . S
H140 C169 0.930 . S
H141 C161 0.931 . S
O142 Co118 2.097 . S
O142 C170 1.214 . S
H143 C171 0.929 . S
H144 C172 0.929 1_656 S
H145 C173 0.930 . S
H146 C174 0.929 . S
H147 C176 0.930 . S
H148 C153 0.930 1_455 S
H149 C157 0.930 . S
O150 Co119 2.037 . S
O150 C170 1.234 . S
C151 O125 1.269 . S
C151 O126 1.257 . S
C152 H127 0.930 . S
C152 C155 1.388 . S
C152 C157 1.418 . S
C153 H148 0.930 1_655 S
C153 C156 1.404 . S
C153 C157 1.353 . S
N154 Co119 2.145 1_556 S
N154 C155 1.397 . S
N154 C156 1.334 . S
C155 H136 0.929 . S
C155 C152 1.388 . S
C155 N154 1.397 . S
C156 H137 0.929 1_655 S
C156 C153 1.404 . S
C156 N154 1.334 . S
C157 H149 0.930 . S
C157 C152 1.418 . S
C157 C153 1.353 . S
C158 H128 0.930 . S
C158 N159 1.330 . S
C158 C160 1.446 . S
N159 Co118 2.151 . S
N159 C158 1.330 . S
N159 C163 1.418 . S
C160 H139 0.929 . S
C160 C158 1.446 . S
C160 C161 1.332 . S
C161 H141 0.931 . S
C161 C160 1.332 . S
C161 C162 1.267 . S
C162 H130 0.929 . S
C162 C161 1.267 . S
C162 C163 1.251 . S
C163 H133 0.929 . S
C163 N159 1.418 . S
C163 C162 1.251 . S
C164 H131 0.930 . S
C164 C166 1.406 . S
C164 C169 1.261 . S
C165 H132 0.930 . S
C165 N167 1.325 . S
C165 C168 1.357 . S
C166 H134 0.928 . S
C166 C164 1.406 . S
C166 N167 1.261 . S
N167 Co118 2.214 . S
N167 C165 1.325 . S
N167 C166 1.261 . S
C168 H138 0.931 . S
C168 C165 1.357 . S
C168 C169 1.312 . S
C169 H140 0.930 . S
C169 C164 1.261 . S
C169 C168 1.312 . S
C170 O142 1.214 . S
C170 O150 1.234 . S
C171 H143 0.929 . S
C171 C174 1.391 . S
C171 C176 1.391 . S
C172 H144 0.929 1_454 S
C172 C173 1.390 . S
C172 N175 1.391 . S
C173 H145 0.930 . S
C173 C172 1.390 . S
C173 C174 1.392 . S
C174 H146 0.929 . S
C174 C171 1.391 . S
C174 C173 1.392 . S
N175 Co119 2.257 1_455 S
N175 C172 1.391 . S
N175 C176 1.388 . S
C176 H147 0.930 . S
C176 C171 1.391 . S
C176 N175 1.388 . S
Co177 O179 2.143 . S
Co177 O185 2.074 . S
Co177 O188 2.093 . S
Co177 O201 2.097 . S
Co177 N218 2.151 . S
Co177 N226 2.214 . S
Co178 O179 2.160 . S
Co178 O184 2.058 . S
Co178 O194 2.057 . S
Co178 O209 2.037 . S
Co178 N213 2.145 1_554 S
Co178 N234 2.257 1_565 S
O179 Co177 2.143 . S
O179 Co178 2.160 . S
C180 O181 1.278 . S
C180 O188 1.224 . S
O181 C180 1.278 . S
C182 O183 1.245 . S
C182 O194 1.232 . S
O183 C182 1.245 . S
O184 Co178 2.058 . S
O184 C210 1.269 . S
O185 Co177 2.074 . S
O185 C210 1.257 . S
H186 C211 0.930 . S
H187 C217 0.930 . S
O188 Co177 2.093 . S
O188 C180 1.224 . S
H189 C221 0.929 . S
H190 C223 0.930 . S
H191 C224 0.930 . S
H192 C222 0.929 . S
H193 C225 0.928 . S
O194 Co178 2.057 . S
O194 C182 1.232 . S
H195 C214 0.929 . S
H196 C215 0.929 1_545 S
H197 C227 0.931 . S
H198 C219 0.929 . S
H199 C228 0.930 . S
H200 C220 0.931 . S
O201 Co177 2.097 . S
O201 C229 1.214 . S
H202 C230 0.929 . S
H203 C231 0.929 1_566 S
H204 C232 0.930 . S
H205 C233 0.929 . S
H206 C235 0.930 . S
H207 C212 0.930 1_545 S
H208 C216 0.930 . S
O209 Co178 2.037 . S
O209 C229 1.234 . S
C210 O184 1.269 . S
C210 O185 1.257 . S
C211 H186 0.930 . S
C211 C214 1.388 . S
C211 C216 1.418 . S
C212 H207 0.930 1_565 S
C212 C215 1.404 . S
C212 C216 1.353 . S
N213 Co178 2.145 1_556 S
N213 C214 1.397 . S
N213 C215 1.334 . S
C214 H195 0.929 . S
C214 C211 1.388 . S
C214 N213 1.397 . S
C215 H196 0.929 1_565 S
C215 C212 1.404 . S
C215 N213 1.334 . S
C216 H208 0.930 . S
C216 C211 1.418 . S
C216 C212 1.353 . S
C217 H187 0.930 . S
C217 N218 1.330 . S
C217 C219 1.446 . S
N218 Co177 2.151 . S
N218 C217 1.330 . S
N218 C222 1.418 . S
C219 H198 0.929 . S
C219 C217 1.446 . S
C219 C220 1.332 . S
C220 H200 0.931 . S
C220 C219 1.332 . S
C220 C221 1.267 . S
C221 H189 0.929 . S
C221 C220 1.267 . S
C221 C222 1.251 . S
C222 H192 0.929 . S
C222 N218 1.418 . S
C222 C221 1.251 . S
C223 H190 0.930 . S
C223 C225 1.406 . S
C223 C228 1.261 . S
C224 H191 0.930 . S
C224 N226 1.325 . S
C224 C227 1.357 . S
C225 H193 0.928 . S
C225 C223 1.406 . S
C225 N226 1.261 . S
N226 Co177 2.214 . S
N226 C224 1.325 . S
N226 C225 1.261 . S
C227 H197 0.931 . S
C227 C224 1.357 . S
C227 C228 1.312 . S
C228 H199 0.930 . S
C228 C223 1.261 . S
C228 C227 1.312 . S
C229 O201 1.214 . S
C229 O209 1.234 . S
C230 H202 0.929 . S
C230 C233 1.391 . S
C230 C235 1.391 . S
C231 H203 0.929 1_544 S
C231 C232 1.390 . S
C231 N234 1.391 . S
C232 H204 0.930 . S
C232 C231 1.390 . S
C232 C233 1.392 . S
C233 H205 0.929 . S
C233 C230 1.391 . S
C233 C232 1.392 . S
N234 Co178 2.257 1_545 S
N234 C231 1.391 . S
N234 C235 1.388 . S
C235 H206 0.930 . S
C235 C230 1.391 . S
C235 N234 1.388 . S
Co236 O238 2.143 . S
Co236 O244 2.074 . S
Co236 O247 2.093 . S
Co236 O260 2.097 . S
Co236 N277 2.151 . S
Co236 N285 2.214 . S
Co237 O238 2.160 . S
Co237 O243 2.058 . S
Co237 O253 2.057 . S
Co237 O268 2.037 . S
Co237 N272 2.145 . S
Co237 N293 2.257 . S
O238 Co236 2.143 . S
O238 Co237 2.160 . S
C239 O240 1.278 . S
C239 O247 1.224 . S
O240 C239 1.278 . S
C241 O242 1.245 . S
C241 O253 1.232 . S
O242 C241 1.245 . S
O243 Co237 2.058 . S
O243 C269 1.269 . S
O244 Co236 2.074 . S
O244 C269 1.257 . S
H245 C270 0.930 . S
H246 C276 0.930 . S
O247 Co236 2.093 . S
O247 C239 1.224 . S
H248 C280 0.929 . S
H249 C282 0.930 . S
H250 C283 0.930 . S
H251 C281 0.929 . S
H252 C284 0.928 . S
O253 Co237 2.057 . S
O253 C241 1.232 . S
H254 C273 0.929 . S
H255 C274 0.929 . S
H256 C286 0.931 . S
H257 C278 0.929 . S
H258 C287 0.930 . S
H259 C279 0.931 . S
O260 Co236 2.097 . S
O260 C288 1.214 . S
H261 C289 0.929 . S
H262 C290 0.929 . S
H263 C291 0.930 . S
H264 C292 0.929 . S
H265 C294 0.930 . S
H266 C271 0.930 . S
H267 C275 0.930 . S
O268 Co237 2.037 . S
O268 C288 1.234 . S
C269 O243 1.269 . S
C269 O244 1.257 . S
C270 H245 0.930 . S
C270 C273 1.388 . S
C270 C275 1.418 . S
C271 H266 0.930 . S
C271 C274 1.404 . S
C271 C275 1.353 . S
N272 Co237 2.145 . S
N272 C273 1.397 . S
N272 C274 1.334 . S
C273 H254 0.929 . S
C273 C270 1.388 . S
C273 N272 1.397 . S
C274 H255 0.929 . S
C274 C271 1.404 . S
C274 N272 1.334 . S
C275 H267 0.930 . S
C275 C270 1.418 . S
C275 C271 1.353 . S
C276 H246 0.930 . S
C276 N277 1.330 . S
C276 C278 1.446 . S
N277 Co236 2.151 . S
N277 C276 1.330 . S
N277 C281 1.418 . S
C278 H257 0.929 . S
C278 C276 1.446 . S
C278 C279 1.332 . S
C279 H259 0.931 . S
C279 C278 1.332 . S
C279 C280 1.267 . S
C280 H248 0.929 . S
C280 C279 1.267 . S
C280 C281 1.251 . S
C281 H251 0.929 . S
C281 N277 1.418 . S
C281 C280 1.251 . S
C282 H249 0.930 . S
C282 C284 1.406 . S
C282 C287 1.261 . S
C283 H250 0.930 . S
C283 N285 1.325 . S
C283 C286 1.357 . S
C284 H252 0.928 . S
C284 C282 1.406 . S
C284 N285 1.261 . S
N285 Co236 2.214 . S
N285 C283 1.325 . S
N285 C284 1.261 . S
C286 H256 0.931 . S
C286 C283 1.357 . S
C286 C287 1.312 . S
C287 H258 0.930 . S
C287 C282 1.261 . S
C287 C286 1.312 . S
C288 O260 1.214 . S
C288 O268 1.234 . S
C289 H261 0.929 . S
C289 C292 1.391 . S
C289 C294 1.391 . S
C290 H262 0.929 . S
C290 C291 1.390 . S
C290 N293 1.391 . S
C291 H263 0.930 . S
C291 C290 1.390 . S
C291 C292 1.392 . S
C292 H264 0.929 . S
C292 C289 1.391 . S
C292 C291 1.392 . S
N293 Co237 2.257 . S
N293 C290 1.391 . S
N293 C294 1.388 . S
C294 H265 0.930 . S
C294 C289 1.391 . S
C294 N293 1.388 . S
Co295 O297 2.143 . S
Co295 O303 2.074 . S
Co295 O306 2.093 . S
Co295 O319 2.097 . S
Co295 N336 2.151 . S
Co295 N344 2.214 . S
Co296 O297 2.160 . S
Co296 O302 2.058 . S
Co296 O312 2.057 . S
Co296 O327 2.037 . S
Co296 N331 2.145 . S
Co296 N352 2.257 . S
O297 Co295 2.143 . S
O297 Co296 2.160 . S
C298 O299 1.278 . S
C298 O306 1.224 . S
O299 C298 1.278 . S
C300 O301 1.245 . S
C300 O312 1.232 . S
O301 C300 1.245 . S
O302 Co296 2.058 . S
O302 C328 1.269 . S
O303 Co295 2.074 . S
O303 C328 1.257 . S
H304 C329 0.930 . S
H305 C335 0.930 . S
O306 Co295 2.093 . S
O306 C298 1.224 . S
H307 C339 0.929 . S
H308 C341 0.930 . S
H309 C342 0.930 . S
H310 C340 0.929 . S
H311 C343 0.928 . S
O312 Co296 2.057 . S
O312 C300 1.232 . S
H313 C332 0.929 . S
H314 C333 0.929 . S
H315 C345 0.931 . S
H316 C337 0.929 . S
H317 C346 0.930 . S
H318 C338 0.931 . S
O319 Co295 2.097 . S
O319 C347 1.214 . S
H320 C348 0.929 . S
H321 C349 0.929 . S
H322 C350 0.930 . S
H323 C351 0.929 . S
H324 C353 0.930 . S
H325 C330 0.930 . S
H326 C334 0.930 . S
O327 Co296 2.037 . S
O327 C347 1.234 . S
C328 O302 1.269 . S
C328 O303 1.257 . S
C329 H304 0.930 . S
C329 C332 1.388 . S
C329 C334 1.418 . S
C330 H325 0.930 . S
C330 C333 1.404 . S
C330 C334 1.353 . S
N331 Co296 2.145 . S
N331 C332 1.397 . S
N331 C333 1.334 . S
C332 H313 0.929 . S
C332 C329 1.388 . S
C332 N331 1.397 . S
C333 H314 0.929 . S
C333 C330 1.404 . S
C333 N331 1.334 . S
C334 H326 0.930 . S
C334 C329 1.418 . S
C334 C330 1.353 . S
C335 H305 0.930 . S
C335 N336 1.330 . S
C335 C337 1.446 . S
N336 Co295 2.151 . S
N336 C335 1.330 . S
N336 C340 1.418 . S
C337 H316 0.929 . S
C337 C335 1.446 . S
C337 C338 1.332 . S
C338 H318 0.931 . S
C338 C337 1.332 . S
C338 C339 1.267 . S
C339 H307 0.929 . S
C339 C338 1.267 . S
C339 C340 1.251 . S
C340 H310 0.929 . S
C340 N336 1.418 . S
C340 C339 1.251 . S
C341 H308 0.930 . S
C341 C343 1.406 . S
C341 C346 1.261 . S
C342 H309 0.930 . S
C342 N344 1.325 . S
C342 C345 1.357 . S
C343 H311 0.928 . S
C343 C341 1.406 . S
C343 N344 1.261 . S
N344 Co295 2.214 . S
N344 C342 1.325 . S
N344 C343 1.261 . S
C345 H315 0.931 . S
C345 C342 1.357 . S
C345 C346 1.312 . S
C346 H317 0.930 . S
C346 C341 1.261 . S
C346 C345 1.312 . S
C347 O319 1.214 . S
C347 O327 1.234 . S
C348 H320 0.929 . S
C348 C351 1.391 . S
C348 C353 1.391 . S
C349 H321 0.929 . S
C349 C350 1.390 . S
C349 N352 1.391 . S
C350 H322 0.930 . S
C350 C349 1.390 . S
C350 C351 1.392 . S
C351 H323 0.929 . S
C351 C348 1.391 . S
C351 C350 1.392 . S
N352 Co296 2.257 . S
N352 C349 1.391 . S
N352 C353 1.388 . S
C353 H324 0.930 . S
C353 C348 1.391 . S
C353 N352 1.388 . S
Co354 O356 2.143 . S
Co354 O362 2.074 . S
Co354 O365 2.093 . S
Co354 O378 2.097 . S
Co354 N395 2.151 . S
Co354 N403 2.214 . S
Co355 O356 2.160 . S
Co355 O361 2.058 . S
Co355 O371 2.057 . S
Co355 O386 2.037 . S
Co355 N390 2.145 . S
Co355 N411 2.257 1_655 S
O356 Co354 2.143 . S
O356 Co355 2.160 . S
C357 O358 1.278 . S
C357 O365 1.224 . S
O358 C357 1.278 . S
C359 O360 1.245 . S
C359 O371 1.232 . S
O360 C359 1.245 . S
O361 Co355 2.058 . S
O361 C387 1.269 . S
O362 Co354 2.074 . S
O362 C387 1.257 . S
H363 C388 0.930 . S
H364 C394 0.930 . S
O365 Co354 2.093 . S
O365 C357 1.224 . S
H366 C398 0.929 . S
H367 C400 0.930 . S
H368 C401 0.930 . S
H369 C399 0.929 . S
H370 C402 0.928 . S
O371 Co355 2.057 . S
O371 C359 1.232 . S
H372 C391 0.929 . S
H373 C392 0.929 1_455 S
H374 C404 0.931 . S
H375 C396 0.929 . S
H376 C405 0.930 . S
H377 C397 0.931 . S
O378 Co354 2.097 . S
O378 C406 1.214 . S
H379 C407 0.929 . S
H380 C408 0.929 1_655 S
H381 C409 0.930 . S
H382 C410 0.929 . S
H383 C412 0.930 . S
H384 C389 0.930 1_455 S
H385 C393 0.930 . S
O386 Co355 2.037 . S
O386 C406 1.234 . S
C387 O361 1.269 . S
C387 O362 1.257 . S
C388 H363 0.930 . S
C388 C391 1.388 . S
C388 C393 1.418 . S
C389 H384 0.930 1_655 S
C389 C392 1.404 . S
C389 C393 1.353 . S
N390 Co355 2.145 . S
N390 C391 1.397 . S
N390 C392 1.334 . S
C391 H372 0.929 . S
C391 C388 1.388 . S
C391 N390 1.397 . S
C392 H373 0.929 1_655 S
C392 C389 1.404 . S
C392 N390 1.334 . S
C393 H385 0.930 . S
C393 C388 1.418 . S
C393 C389 1.353 . S
C394 H364 0.930 . S
C394 N395 1.330 . S
C394 C396 1.446 . S
N395 Co354 2.151 . S
N395 C394 1.330 . S
N395 C399 1.418 . S
C396 H375 0.929 . S
C396 C394 1.446 . S
C396 C397 1.332 . S
C397 H377 0.931 . S
C397 C396 1.332 . S
C397 C398 1.267 . S
C398 H366 0.929 . S
C398 C397 1.267 . S
C398 C399 1.251 . S
C399 H369 0.929 . S
C399 N395 1.418 . S
C399 C398 1.251 . S
C400 H367 0.930 . S
C400 C402 1.406 . S
C400 C405 1.261 . S
C401 H368 0.930 . S
C401 N403 1.325 . S
C401 C404 1.357 . S
C402 H370 0.928 . S
C402 C400 1.406 . S
C402 N403 1.261 . S
N403 Co354 2.214 . S
N403 C401 1.325 . S
N403 C402 1.261 . S
C404 H374 0.931 . S
C404 C401 1.357 . S
C404 C405 1.312 . S
C405 H376 0.930 . S
C405 C400 1.261 . S
C405 C404 1.312 . S
C406 O378 1.214 . S
C406 O386 1.234 . S
C407 H379 0.929 . S
C407 C410 1.391 . S
C407 C412 1.391 . S
C408 H380 0.929 1_455 S
C408 C409 1.390 . S
C408 N411 1.391 . S
C409 H381 0.930 . S
C409 C408 1.390 . S
C409 C410 1.392 . S
C410 H382 0.929 . S
C410 C407 1.391 . S
C410 C409 1.392 . S
N411 Co355 2.257 1_455 S
N411 C408 1.391 . S
N411 C412 1.388 . S
C412 H383 0.930 . S
C412 C407 1.391 . S
C412 N411 1.388 . S
Co413 O415 2.143 . S
Co413 O421 2.074 . S
Co413 O424 2.093 . S
Co413 O437 2.097 . S
Co413 N454 2.151 . S
Co413 N462 2.214 . S
Co414 O415 2.160 . S
Co414 O420 2.058 . S
Co414 O430 2.057 . S
Co414 O445 2.037 . S
Co414 N449 2.145 . S
Co414 N470 2.257 1_565 S
O415 Co413 2.143 . S
O415 Co414 2.160 . S
C416 O417 1.278 . S
C416 O424 1.224 . S
O417 C416 1.278 . S
C418 O419 1.245 . S
C418 O430 1.232 . S
O419 C418 1.245 . S
O420 Co414 2.058 . S
O420 C446 1.269 . S
O421 Co413 2.074 . S
O421 C446 1.257 . S
H422 C447 0.930 . S
H423 C453 0.930 . S
O424 Co413 2.093 . S
O424 C416 1.224 . S
H425 C457 0.929 . S
H426 C459 0.930 . S
H427 C460 0.930 . S
H428 C458 0.929 . S
H429 C461 0.928 . S
O430 Co414 2.057 . S
O430 C418 1.232 . S
H431 C450 0.929 . S
H432 C451 0.929 1_545 S
H433 C463 0.931 . S
H434 C455 0.929 . S
H435 C464 0.930 . S
H436 C456 0.931 . S
O437 Co413 2.097 . S
O437 C465 1.214 . S
H438 C466 0.929 . S
H439 C467 0.929 1_565 S
H440 C468 0.930 . S
H441 C469 0.929 . S
H442 C471 0.930 . S
H443 C448 0.930 1_545 S
H444 C452 0.930 . S
O445 Co414 2.037 . S
O445 C465 1.234 . S
C446 O420 1.269 . S
C446 O421 1.257 . S
C447 H422 0.930 . S
C447 C450 1.388 . S
C447 C452 1.418 . S
C448 H443 0.930 1_565 S
C448 C451 1.404 . S
C448 C452 1.353 . S
N449 Co414 2.145 . S
N449 C450 1.397 . S
N449 C451 1.334 . S
C450 H431 0.929 . S
C450 C447 1.388 . S
C450 N449 1.397 . S
C451 H432 0.929 1_565 S
C451 C448 1.404 . S
C451 N449 1.334 . S
C452 H444 0.930 . S
C452 C447 1.418 . S
C452 C448 1.353 . S
C453 H423 0.930 . S
C453 N454 1.330 . S
C453 C455 1.446 . S
N454 Co413 2.151 . S
N454 C453 1.330 . S
N454 C458 1.418 . S
C455 H434 0.929 . S
C455 C453 1.446 . S
C455 C456 1.332 . S
C456 H436 0.931 . S
C456 C455 1.332 . S
C456 C457 1.267 . S
C457 H425 0.929 . S
C457 C456 1.267 . S
C457 C458 1.251 . S
C458 H428 0.929 . S
C458 N454 1.418 . S
C458 C457 1.251 . S
C459 H426 0.930 . S
C459 C461 1.406 . S
C459 C464 1.261 . S
C460 H427 0.930 . S
C460 N462 1.325 . S
C460 C463 1.357 . S
C461 H429 0.928 . S
C461 C459 1.406 . S
C461 N462 1.261 . S
N462 Co413 2.214 . S
N462 C460 1.325 . S
N462 C461 1.261 . S
C463 H433 0.931 . S
C463 C460 1.357 . S
C463 C464 1.312 . S
C464 H435 0.930 . S
C464 C459 1.261 . S
C464 C463 1.312 . S
C465 O437 1.214 . S
C465 O445 1.234 . S
C466 H438 0.929 . S
C466 C469 1.391 . S
C466 C471 1.391 . S
C467 H439 0.929 1_545 S
C467 C468 1.390 . S
C467 N470 1.391 . S
C468 H440 0.930 . S
C468 C467 1.390 . S
C468 C469 1.392 . S
C469 H441 0.929 . S
C469 C466 1.391 . S
C469 C468 1.392 . S
N470 Co414 2.257 1_545 S
N470 C467 1.391 . S
N470 C471 1.388 . S
C471 H442 0.930 . S
C471 C466 1.391 . S
C471 N470 1.388 . S
Co472 O474 2.143 . S
Co472 O480 2.074 . S
Co472 O483 2.093 . S
Co472 O496 2.097 . S
Co472 N513 2.151 . S
Co472 N521 2.214 . S
Co473 O474 2.160 . S
Co473 O479 2.058 . S
Co473 O489 2.057 . S
Co473 O504 2.037 . S
Co473 N508 2.145 1_556 S
Co473 N529 2.257 . S
O474 Co472 2.143 . S
O474 Co473 2.160 . S
C475 O476 1.278 . S
C475 O483 1.224 . S
O476 C475 1.278 . S
C477 O478 1.245 . S
C477 O489 1.232 . S
O478 C477 1.245 . S
O479 Co473 2.058 . S
O479 C505 1.269 . S
O480 Co472 2.074 . S
O480 C505 1.257 . S
H481 C506 0.930 . S
H482 C512 0.930 . S
O483 Co472 2.093 . S
O483 C475 1.224 . S
H484 C516 0.929 . S
H485 C518 0.930 . S
H486 C519 0.930 . S
H487 C517 0.929 . S
H488 C520 0.928 . S
O489 Co473 2.057 . S
O489 C477 1.232 . S
H490 C509 0.929 . S
H491 C510 0.929 . S
H492 C522 0.931 . S
H493 C514 0.929 . S
H494 C523 0.930 . S
H495 C515 0.931 . S
O496 Co472 2.097 . S
O496 C524 1.214 . S
H497 C525 0.929 . S
H498 C526 0.929 1_554 S
H499 C527 0.930 . S
H500 C528 0.929 . S
H501 C530 0.930 . S
H502 C507 0.930 . S
H503 C511 0.930 . S
O504 Co473 2.037 . S
O504 C524 1.234 . S
C505 O479 1.269 . S
C505 O480 1.257 . S
C506 H481 0.930 . S
C506 C509 1.388 . S
C506 C511 1.418 . S
C507 H502 0.930 . S
C507 C510 1.404 . S
C507 C511 1.353 . S
N508 Co473 2.145 1_554 S
N508 C509 1.397 . S
N508 C510 1.334 . S
C509 H490 0.929 . S
C509 C506 1.388 . S
C509 N508 1.397 . S
C510 H491 0.929 . S
C510 C507 1.404 . S
C510 N508 1.334 . S
C511 H503 0.930 . S
C511 C506 1.418 . S
C511 C507 1.353 . S
C512 H482 0.930 . S
C512 N513 1.330 . S
C512 C514 1.446 . S
N513 Co472 2.151 . S
N513 C512 1.330 . S
N513 C517 1.418 . S
C514 H493 0.929 . S
C514 C512 1.446 . S
C514 C515 1.332 . S
C515 H495 0.931 . S
C515 C514 1.332 . S
C515 C516 1.267 . S
C516 H484 0.929 . S
C516 C515 1.267 . S
C516 C517 1.251 . S
C517 H487 0.929 . S
C517 N513 1.418 . S
C517 C516 1.251 . S
C518 H485 0.930 . S
C518 C520 1.406 . S
C518 C523 1.261 . S
C519 H486 0.930 . S
C519 N521 1.325 . S
C519 C522 1.357 . S
C520 H488 0.928 . S
C520 C518 1.406 . S
C520 N521 1.261 . S
N521 Co472 2.214 . S
N521 C519 1.325 . S
N521 C520 1.261 . S
C522 H492 0.931 . S
C522 C519 1.357 . S
C522 C523 1.312 . S
C523 H494 0.930 . S
C523 C518 1.261 . S
C523 C522 1.312 . S
C524 O496 1.214 . S
C524 O504 1.234 . S
C525 H497 0.929 . S
C525 C528 1.391 . S
C525 C530 1.391 . S
C526 H498 0.929 1_556 S
C526 C527 1.390 . S
C526 N529 1.391 . S
C527 H499 0.930 . S
C527 C526 1.390 . S
C527 C528 1.392 . S
C528 H500 0.929 . S
C528 C525 1.391 . S
C528 C527 1.392 . S
N529 Co473 2.257 . S
N529 C526 1.391 . S
N529 C530 1.388 . S
C530 H501 0.930 . S
C530 C525 1.391 . S
C530 N529 1.388 . S
Co531 O533 2.143 . S
Co531 O539 2.074 . S
Co531 O542 2.093 . S
Co531 O555 2.097 . S
Co531 N572 2.151 . S
Co531 N580 2.214 . S
Co532 O533 2.160 . S
Co532 O538 2.058 . S
Co532 O548 2.057 . S
Co532 O563 2.037 . S
Co532 N567 2.145 1_556 S
Co532 N588 2.257 . S
O533 Co531 2.143 . S
O533 Co532 2.160 . S
C534 O535 1.278 . S
C534 O542 1.224 . S
O535 C534 1.278 . S
C536 O537 1.245 . S
C536 O548 1.232 . S
O537 C536 1.245 . S
O538 Co532 2.058 . S
O538 C564 1.269 . S
O539 Co531 2.074 . S
O539 C564 1.257 . S
H540 C565 0.930 . S
H541 C571 0.930 . S
O542 Co531 2.093 . S
O542 C534 1.224 . S
H543 C575 0.929 . S
H544 C577 0.930 . S
H545 C578 0.930 . S
H546 C576 0.929 . S
H547 C579 0.928 . S
O548 Co532 2.057 . S
O548 C536 1.232 . S
H549 C568 0.929 . S
H550 C569 0.929 . S
H551 C581 0.931 . S
H552 C573 0.929 . S
H553 C582 0.930 . S
H554 C574 0.931 . S
O555 Co531 2.097 . S
O555 C583 1.214 . S
H556 C584 0.929 . S
H557 C585 0.929 1_554 S
H558 C586 0.930 . S
H559 C587 0.929 . S
H560 C589 0.930 . S
H561 C566 0.930 . S
H562 C570 0.930 . S
O563 Co532 2.037 . S
O563 C583 1.234 . S
C564 O538 1.269 . S
C564 O539 1.257 . S
C565 H540 0.930 . S
C565 C568 1.388 . S
C565 C570 1.418 . S
C566 H561 0.930 . S
C566 C569 1.404 . S
C566 C570 1.353 . S
N567 Co532 2.145 1_554 S
N567 C568 1.397 . S
N567 C569 1.334 . S
C568 H549 0.929 . S
C568 C565 1.388 . S
C568 N567 1.397 . S
C569 H550 0.929 . S
C569 C566 1.404 . S
C569 N567 1.334 . S
C570 H562 0.930 . S
C570 C565 1.418 . S
C570 C566 1.353 . S
C571 H541 0.930 . S
C571 N572 1.330 . S
C571 C573 1.446 . S
N572 Co531 2.151 . S
N572 C571 1.330 . S
N572 C576 1.418 . S
C573 H552 0.929 . S
C573 C571 1.446 . S
C573 C574 1.332 . S
C574 H554 0.931 . S
C574 C573 1.332 . S
C574 C575 1.267 . S
C575 H543 0.929 . S
C575 C574 1.267 . S
C575 C576 1.251 . S
C576 H546 0.929 . S
C576 N572 1.418 . S
C576 C575 1.251 . S
C577 H544 0.930 . S
C577 C579 1.406 . S
C577 C582 1.261 . S
C578 H545 0.930 . S
C578 N580 1.325 . S
C578 C581 1.357 . S
C579 H547 0.928 . S
C579 C577 1.406 . S
C579 N580 1.261 . S
N580 Co531 2.214 . S
N580 C578 1.325 . S
N580 C579 1.261 . S
C581 H551 0.931 . S
C581 C578 1.357 . S
C581 C582 1.312 . S
C582 H553 0.930 . S
C582 C577 1.261 . S
C582 C581 1.312 . S
C583 O555 1.214 . S
C583 O563 1.234 . S
C584 H556 0.929 . S
C584 C587 1.391 . S
C584 C589 1.391 . S
C585 H557 0.929 1_556 S
C585 C586 1.390 . S
C585 N588 1.391 . S
C586 H558 0.930 . S
C586 C585 1.390 . S
C586 C587 1.392 . S
C587 H559 0.929 . S
C587 C584 1.391 . S
C587 C586 1.392 . S
N588 Co532 2.257 . S
N588 C585 1.391 . S
N588 C589 1.388 . S
C589 H560 0.930 . S
C589 C584 1.391 . S
C589 N588 1.388 . S
Co590 O592 2.143 . S
Co590 O598 2.074 . S
Co590 O601 2.093 . S
Co590 O614 2.097 . S
Co590 N631 2.151 . S
Co590 N639 2.214 . S
Co591 O592 2.160 . S
Co591 O597 2.058 . S
Co591 O607 2.057 . S
Co591 O622 2.037 . S
Co591 N626 2.145 1_556 S
Co591 N647 2.257 1_455 S
O592 Co590 2.143 . S
O592 Co591 2.160 . S
C593 O594 1.278 . S
C593 O601 1.224 . S
O594 C593 1.278 . S
C595 O596 1.245 . S
C595 O607 1.232 . S
O596 C595 1.245 . S
O597 Co591 2.058 . S
O597 C623 1.269 . S
O598 Co590 2.074 . S
O598 C623 1.257 . S
H599 C624 0.930 . S
H600 C630 0.930 . S
O601 Co590 2.093 . S
O601 C593 1.224 . S
H602 C634 0.929 . S
H603 C636 0.930 . S
H604 C637 0.930 . S
H605 C635 0.929 . S
H606 C638 0.928 . S
O607 Co591 2.057 . S
O607 C595 1.232 . S
H608 C627 0.929 . S
H609 C628 0.929 1_655 S
H610 C640 0.931 . S
H611 C632 0.929 . S
H612 C641 0.930 . S
H613 C633 0.931 . S
O614 Co590 2.097 . S
O614 C642 1.214 . S
H615 C643 0.929 . S
H616 C644 0.929 1_454 S
H617 C645 0.930 . S
H618 C646 0.929 . S
H619 C648 0.930 . S
H620 C625 0.930 1_655 S
H621 C629 0.930 . S
O622 Co591 2.037 . S
O622 C642 1.234 . S
C623 O597 1.269 . S
C623 O598 1.257 . S
C624 H599 0.930 . S
C624 C627 1.388 . S
C624 C629 1.418 . S
C625 H620 0.930 1_455 S
C625 C628 1.404 . S
C625 C629 1.353 . S
N626 Co591 2.145 1_554 S
N626 C627 1.397 . S
N626 C628 1.334 . S
C627 H608 0.929 . S
C627 C624 1.388 . S
C627 N626 1.397 . S
C628 H609 0.929 1_455 S
C628 C625 1.404 . S
C628 N626 1.334 . S
C629 H621 0.930 . S
C629 C624 1.418 . S
C629 C625 1.353 . S
C630 H600 0.930 . S
C630 N631 1.330 . S
C630 C632 1.446 . S
N631 Co590 2.151 . S
N631 C630 1.330 . S
N631 C635 1.418 . S
C632 H611 0.929 . S
C632 C630 1.446 . S
C632 C633 1.332 . S
C633 H613 0.931 . S
C633 C632 1.332 . S
C633 C634 1.267 . S
C634 H602 0.929 . S
C634 C633 1.267 . S
C634 C635 1.251 . S
C635 H605 0.929 . S
C635 N631 1.418 . S
C635 C634 1.251 . S
C636 H603 0.930 . S
C636 C638 1.406 . S
C636 C641 1.261 . S
C637 H604 0.930 . S
C637 N639 1.325 . S
C637 C640 1.357 . S
C638 H606 0.928 . S
C638 C636 1.406 . S
C638 N639 1.261 . S
N639 Co590 2.214 . S
N639 C637 1.325 . S
N639 C638 1.261 . S
C640 H610 0.931 . S
C640 C637 1.357 . S
C640 C641 1.312 . S
C641 H612 0.930 . S
C641 C636 1.261 . S
C641 C640 1.312 . S
C642 O614 1.214 . S
C642 O622 1.234 . S
C643 H615 0.929 . S
C643 C646 1.391 . S
C643 C648 1.391 . S
C644 H616 0.929 1_656 S
C644 C645 1.390 . S
C644 N647 1.391 . S
C645 H617 0.930 . S
C645 C644 1.390 . S
C645 C646 1.392 . S
C646 H618 0.929 . S
C646 C643 1.391 . S
C646 C645 1.392 . S
N647 Co591 2.257 1_655 S
N647 C644 1.391 . S
N647 C648 1.388 . S
C648 H619 0.930 . S
C648 C643 1.391 . S
C648 N647 1.388 . S
Co649 O651 2.143 . S
Co649 O657 2.074 . S
Co649 O660 2.093 . S
Co649 O673 2.097 . S
Co649 N690 2.151 . S
Co649 N698 2.214 . S
Co650 O651 2.160 . S
Co650 O656 2.058 . S
Co650 O666 2.057 . S
Co650 O681 2.037 . S
Co650 N685 2.145 1_556 S
Co650 N706 2.257 1_545 S
O651 Co649 2.143 . S
O651 Co650 2.160 . S
C652 O653 1.278 . S
C652 O660 1.224 . S
O653 C652 1.278 . S
C654 O655 1.245 . S
C654 O666 1.232 . S
O655 C654 1.245 . S
O656 Co650 2.058 . S
O656 C682 1.269 . S
O657 Co649 2.074 . S
O657 C682 1.257 . S
H658 C683 0.930 . S
H659 C689 0.930 . S
O660 Co649 2.093 . S
O660 C652 1.224 . S
H661 C693 0.929 . S
H662 C695 0.930 . S
H663 C696 0.930 . S
H664 C694 0.929 . S
H665 C697 0.928 . S
O666 Co650 2.057 . S
O666 C654 1.232 . S
H667 C686 0.929 . S
H668 C687 0.929 1_565 S
H669 C699 0.931 . S
H670 C691 0.929 . S
H671 C700 0.930 . S
H672 C692 0.931 . S
O673 Co649 2.097 . S
O673 C701 1.214 . S
H674 C702 0.929 . S
H675 C703 0.929 1_544 S
H676 C704 0.930 . S
H677 C705 0.929 . S
H678 C707 0.930 . S
H679 C684 0.930 1_565 S
H680 C688 0.930 . S
O681 Co650 2.037 . S
O681 C701 1.234 . S
C682 O656 1.269 . S
C682 O657 1.257 . S
C683 H658 0.930 . S
C683 C686 1.388 . S
C683 C688 1.418 . S
C684 H679 0.930 1_545 S
C684 C687 1.404 . S
C684 C688 1.353 . S
N685 Co650 2.145 1_554 S
N685 C686 1.397 . S
N685 C687 1.334 . S
C686 H667 0.929 . S
C686 C683 1.388 . S
C686 N685 1.397 . S
C687 H668 0.929 1_545 S
C687 C684 1.404 . S
C687 N685 1.334 . S
C688 H680 0.930 . S
C688 C683 1.418 . S
C688 C684 1.353 . S
C689 H659 0.930 . S
C689 N690 1.330 . S
C689 C691 1.446 . S
N690 Co649 2.151 . S
N690 C689 1.330 . S
N690 C694 1.418 . S
C691 H670 0.929 . S
C691 C689 1.446 . S
C691 C692 1.332 . S
C692 H672 0.931 . S
C692 C691 1.332 . S
C692 C693 1.267 . S
C693 H661 0.929 . S
C693 C692 1.267 . S
C693 C694 1.251 . S
C694 H664 0.929 . S
C694 N690 1.418 . S
C694 C693 1.251 . S
C695 H662 0.930 . S
C695 C697 1.406 . S
C695 C700 1.261 . S
C696 H663 0.930 . S
C696 N698 1.325 . S
C696 C699 1.357 . S
C697 H665 0.928 . S
C697 C695 1.406 . S
C697 N698 1.261 . S
N698 Co649 2.214 . S
N698 C696 1.325 . S
N698 C697 1.261 . S
C699 H669 0.931 . S
C699 C696 1.357 . S
C699 C700 1.312 . S
C700 H671 0.930 . S
C700 C695 1.261 . S
C700 C699 1.312 . S
C701 O673 1.214 . S
C701 O681 1.234 . S
C702 H674 0.929 . S
C702 C705 1.391 . S
C702 C707 1.391 . S
C703 H675 0.929 1_566 S
C703 C704 1.390 . S
C703 N706 1.391 . S
C704 H676 0.930 . S
C704 C703 1.390 . S
C704 C705 1.392 . S
C705 H677 0.929 . S
C705 C702 1.391 . S
C705 C704 1.392 . S
N706 Co650 2.257 1_565 S
N706 C703 1.391 . S
N706 C707 1.388 . S
C707 H678 0.930 . S
C707 C702 1.391 . S
C707 N706 1.388 . S
Co708 O710 2.143 . S
Co708 O716 2.074 . S
Co708 O719 2.093 . S
Co708 O732 2.097 . S
Co708 N749 2.151 . S
Co708 N757 2.214 . S
Co709 O710 2.160 . S
Co709 O715 2.058 . S
Co709 O725 2.057 . S
Co709 O740 2.037 . S
Co709 N744 2.145 . S
Co709 N765 2.257 . S
O710 Co708 2.143 . S
O710 Co709 2.160 . S
C711 O712 1.278 . S
C711 O719 1.224 . S
O712 C711 1.278 . S
C713 O714 1.245 . S
C713 O725 1.232 . S
O714 C713 1.245 . S
O715 Co709 2.058 . S
O715 C741 1.269 . S
O716 Co708 2.074 . S
O716 C741 1.257 . S
H717 C742 0.930 . S
H718 C748 0.930 . S
O719 Co708 2.093 . S
O719 C711 1.224 . S
H720 C752 0.929 . S
H721 C754 0.930 . S
H722 C755 0.930 . S
H723 C753 0.929 . S
H724 C756 0.928 . S
O725 Co709 2.057 . S
O725 C713 1.232 . S
H726 C745 0.929 . S
H727 C746 0.929 . S
H728 C758 0.931 . S
H729 C750 0.929 . S
H730 C759 0.930 . S
H731 C751 0.931 . S
O732 Co708 2.097 . S
O732 C760 1.214 . S
H733 C761 0.929 . S
H734 C762 0.929 . S
H735 C763 0.930 . S
H736 C764 0.929 . S
H737 C766 0.930 . S
H738 C743 0.930 . S
H739 C747 0.930 . S
O740 Co709 2.037 . S
O740 C760 1.234 . S
C741 O715 1.269 . S
C741 O716 1.257 . S
C742 H717 0.930 . S
C742 C745 1.388 . S
C742 C747 1.418 . S
C743 H738 0.930 . S
C743 C746 1.404 . S
C743 C747 1.353 . S
N744 Co709 2.145 . S
N744 C745 1.397 . S
N744 C746 1.334 . S
C745 H726 0.929 . S
C745 C742 1.388 . S
C745 N744 1.397 . S
C746 H727 0.929 . S
C746 C743 1.404 . S
C746 N744 1.334 . S
C747 H739 0.930 . S
C747 C742 1.418 . S
C747 C743 1.353 . S
C748 H718 0.930 . S
C748 N749 1.330 . S
C748 C750 1.446 . S
N749 Co708 2.151 . S
N749 C748 1.330 . S
N749 C753 1.418 . S
C750 H729 0.929 . S
C750 C748 1.446 . S
C750 C751 1.332 . S
C751 H731 0.931 . S
C751 C750 1.332 . S
C751 C752 1.267 . S
C752 H720 0.929 . S
C752 C751 1.267 . S
C752 C753 1.251 . S
C753 H723 0.929 . S
C753 N749 1.418 . S
C753 C752 1.251 . S
C754 H721 0.930 . S
C754 C756 1.406 . S
C754 C759 1.261 . S
C755 H722 0.930 . S
C755 N757 1.325 . S
C755 C758 1.357 . S
C756 H724 0.928 . S
C756 C754 1.406 . S
C756 N757 1.261 . S
N757 Co708 2.214 . S
N757 C755 1.325 . S
N757 C756 1.261 . S
C758 H728 0.931 . S
C758 C755 1.357 . S
C758 C759 1.312 . S
C759 H730 0.930 . S
C759 C754 1.261 . S
C759 C758 1.312 . S
C760 O732 1.214 . S
C760 O740 1.234 . S
C761 H733 0.929 . S
C761 C764 1.391 . S
C761 C766 1.391 . S
C762 H734 0.929 . S
C762 C763 1.390 . S
C762 N765 1.391 . S
C763 H735 0.930 . S
C763 C762 1.390 . S
C763 C764 1.392 . S
C764 H736 0.929 . S
C764 C761 1.391 . S
C764 C763 1.392 . S
N765 Co709 2.257 . S
N765 C762 1.391 . S
N765 C766 1.388 . S
C766 H737 0.930 . S
C766 C761 1.391 . S
C766 N765 1.388 . S
Co767 O769 2.143 . S
Co767 O775 2.074 . S
Co767 O778 2.093 . S
Co767 O791 2.097 . S
Co767 N808 2.151 . S
Co767 N816 2.214 . S
Co768 O769 2.160 . S
Co768 O774 2.058 . S
Co768 O784 2.057 . S
Co768 O799 2.037 . S
Co768 N803 2.145 . S
Co768 N824 2.257 . S
O769 Co767 2.143 . S
O769 Co768 2.160 . S
C770 O771 1.278 . S
C770 O778 1.224 . S
O771 C770 1.278 . S
C772 O773 1.245 . S
C772 O784 1.232 . S
O773 C772 1.245 . S
O774 Co768 2.058 . S
O774 C800 1.269 . S
O775 Co767 2.074 . S
O775 C800 1.257 . S
H776 C801 0.930 . S
H777 C807 0.930 . S
O778 Co767 2.093 . S
O778 C770 1.224 . S
H779 C811 0.929 . S
H780 C813 0.930 . S
H781 C814 0.930 . S
H782 C812 0.929 . S
H783 C815 0.928 . S
O784 Co768 2.057 . S
O784 C772 1.232 . S
H785 C804 0.929 . S
H786 C805 0.929 . S
H787 C817 0.931 . S
H788 C809 0.929 . S
H789 C818 0.930 . S
H790 C810 0.931 . S
O791 Co767 2.097 . S
O791 C819 1.214 . S
H792 C820 0.929 . S
H793 C821 0.929 . S
H794 C822 0.930 . S
H795 C823 0.929 . S
H796 C825 0.930 . S
H797 C802 0.930 . S
H798 C806 0.930 . S
O799 Co768 2.037 . S
O799 C819 1.234 . S
C800 O774 1.269 . S
C800 O775 1.257 . S
C801 H776 0.930 . S
C801 C804 1.388 . S
C801 C806 1.418 . S
C802 H797 0.930 . S
C802 C805 1.404 . S
C802 C806 1.353 . S
N803 Co768 2.145 . S
N803 C804 1.397 . S
N803 C805 1.334 . S
C804 H785 0.929 . S
C804 C801 1.388 . S
C804 N803 1.397 . S
C805 H786 0.929 . S
C805 C802 1.404 . S
C805 N803 1.334 . S
C806 H798 0.930 . S
C806 C801 1.418 . S
C806 C802 1.353 . S
C807 H777 0.930 . S
C807 N808 1.330 . S
C807 C809 1.446 . S
N808 Co767 2.151 . S
N808 C807 1.330 . S
N808 C812 1.418 . S
C809 H788 0.929 . S
C809 C807 1.446 . S
C809 C810 1.332 . S
C810 H790 0.931 . S
C810 C809 1.332 . S
C810 C811 1.267 . S
C811 H779 0.929 . S
C811 C810 1.267 . S
C811 C812 1.251 . S
C812 H782 0.929 . S
C812 N808 1.418 . S
C812 C811 1.251 . S
C813 H780 0.930 . S
C813 C815 1.406 . S
C813 C818 1.261 . S
C814 H781 0.930 . S
C814 N816 1.325 . S
C814 C817 1.357 . S
C815 H783 0.928 . S
C815 C813 1.406 . S
C815 N816 1.261 . S
N816 Co767 2.214 . S
N816 C814 1.325 . S
N816 C815 1.261 . S
C817 H787 0.931 . S
C817 C814 1.357 . S
C817 C818 1.312 . S
C818 H789 0.930 . S
C818 C813 1.261 . S
C818 C817 1.312 . S
C819 O791 1.214 . S
C819 O799 1.234 . S
C820 H792 0.929 . S
C820 C823 1.391 . S
C820 C825 1.391 . S
C821 H793 0.929 . S
C821 C822 1.390 . S
C821 N824 1.391 . S
C822 H794 0.930 . S
C822 C821 1.390 . S
C822 C823 1.392 . S
C823 H795 0.929 . S
C823 C820 1.391 . S
C823 C822 1.392 . S
N824 Co768 2.257 . S
N824 C821 1.391 . S
N824 C825 1.388 . S
C825 H796 0.930 . S
C825 C820 1.391 . S
C825 N824 1.388 . S
Co826 O828 2.143 . S
Co826 O834 2.074 . S
Co826 O837 2.093 . S
Co826 O850 2.097 . S
Co826 N867 2.151 . S
Co826 N875 2.214 . S
Co827 O828 2.160 . S
Co827 O833 2.058 . S
Co827 O843 2.057 . S
Co827 O858 2.037 . S
Co827 N862 2.145 . S
Co827 N883 2.257 1_455 S
O828 Co826 2.143 . S
O828 Co827 2.160 . S
C829 O830 1.278 . S
C829 O837 1.224 . S
O830 C829 1.278 . S
C831 O832 1.245 . S
C831 O843 1.232 . S
O832 C831 1.245 . S
O833 Co827 2.058 . S
O833 C859 1.269 . S
O834 Co826 2.074 . S
O834 C859 1.257 . S
H835 C860 0.930 . S
H836 C866 0.930 . S
O837 Co826 2.093 . S
O837 C829 1.224 . S
H838 C870 0.929 . S
H839 C872 0.930 . S
H840 C873 0.930 . S
H841 C871 0.929 . S
H842 C874 0.928 . S
O843 Co827 2.057 . S
O843 C831 1.232 . S
H844 C863 0.929 . S
H845 C864 0.929 1_655 S
H846 C876 0.931 . S
H847 C868 0.929 . S
H848 C877 0.930 . S
H849 C869 0.931 . S
O850 Co826 2.097 . S
O850 C878 1.214 . S
H851 C879 0.929 . S
H852 C880 0.929 1_455 S
H853 C881 0.930 . S
H854 C882 0.929 . S
H855 C884 0.930 . S
H856 C861 0.930 1_655 S
H857 C865 0.930 . S
O858 Co827 2.037 . S
O858 C878 1.234 . S
C859 O833 1.269 . S
C859 O834 1.257 . S
C860 H835 0.930 . S
C860 C863 1.388 . S
C860 C865 1.418 . S
C861 H856 0.930 1_455 S
C861 C864 1.404 . S
C861 C865 1.353 . S
N862 Co827 2.145 . S
N862 C863 1.397 . S
N862 C864 1.334 . S
C863 H844 0.929 . S
C863 C860 1.388 . S
C863 N862 1.397 . S
C864 H845 0.929 1_455 S
C864 C861 1.404 . S
C864 N862 1.334 . S
C865 H857 0.930 . S
C865 C860 1.418 . S
C865 C861 1.353 . S
C866 H836 0.930 . S
C866 N867 1.330 . S
C866 C868 1.446 . S
N867 Co826 2.151 . S
N867 C866 1.330 . S
N867 C871 1.418 . S
C868 H847 0.929 . S
C868 C866 1.446 . S
C868 C869 1.332 . S
C869 H849 0.931 . S
C869 C868 1.332 . S
C869 C870 1.267 . S
C870 H838 0.929 . S
C870 C869 1.267 . S
C870 C871 1.251 . S
C871 H841 0.929 . S
C871 N867 1.418 . S
C871 C870 1.251 . S
C872 H839 0.930 . S
C872 C874 1.406 . S
C872 C877 1.261 . S
C873 H840 0.930 . S
C873 N875 1.325 . S
C873 C876 1.357 . S
C874 H842 0.928 . S
C874 C872 1.406 . S
C874 N875 1.261 . S
N875 Co826 2.214 . S
N875 C873 1.325 . S
N875 C874 1.261 . S
C876 H846 0.931 . S
C876 C873 1.357 . S
C876 C877 1.312 . S
C877 H848 0.930 . S
C877 C872 1.261 . S
C877 C876 1.312 . S
C878 O850 1.214 . S
C878 O858 1.234 . S
C879 H851 0.929 . S
C879 C882 1.391 . S
C879 C884 1.391 . S
C880 H852 0.929 1_655 S
C880 C881 1.390 . S
C880 N883 1.391 . S
C881 H853 0.930 . S
C881 C880 1.390 . S
C881 C882 1.392 . S
C882 H854 0.929 . S
C882 C879 1.391 . S
C882 C881 1.392 . S
N883 Co827 2.257 1_655 S
N883 C880 1.391 . S
N883 C884 1.388 . S
C884 H855 0.930 . S
C884 C879 1.391 . S
C884 N883 1.388 . S
Co885 O887 2.143 . S
Co885 O893 2.074 . S
Co885 O896 2.093 . S
Co885 O909 2.097 . S
Co885 N926 2.151 . S
Co885 N934 2.214 . S
Co886 O887 2.160 . S
Co886 O892 2.058 . S
Co886 O902 2.057 . S
Co886 O917 2.037 . S
Co886 N921 2.145 . S
Co886 N942 2.257 1_545 S
O887 Co885 2.143 . S
O887 Co886 2.160 . S
C888 O889 1.278 . S
C888 O896 1.224 . S
O889 C888 1.278 . S
C890 O891 1.245 . S
C890 O902 1.232 . S
O891 C890 1.245 . S
O892 Co886 2.058 . S
O892 C918 1.269 . S
O893 Co885 2.074 . S
O893 C918 1.257 . S
H894 C919 0.930 . S
H895 C925 0.930 . S
O896 Co885 2.093 . S
O896 C888 1.224 . S
H897 C929 0.929 . S
H898 C931 0.930 . S
H899 C932 0.930 . S
H900 C930 0.929 . S
H901 C933 0.928 . S
O902 Co886 2.057 . S
O902 C890 1.232 . S
H903 C922 0.929 . S
H904 C923 0.929 1_565 S
H905 C935 0.931 . S
H906 C927 0.929 . S
H907 C936 0.930 . S
H908 C928 0.931 . S
O909 Co885 2.097 . S
O909 C937 1.214 . S
H910 C938 0.929 . S
H911 C939 0.929 1_545 S
H912 C940 0.930 . S
H913 C941 0.929 . S
H914 C943 0.930 . S
H915 C920 0.930 1_565 S
H916 C924 0.930 . S
O917 Co886 2.037 . S
O917 C937 1.234 . S
C918 O892 1.269 . S
C918 O893 1.257 . S
C919 H894 0.930 . S
C919 C922 1.388 . S
C919 C924 1.418 . S
C920 H915 0.930 1_545 S
C920 C923 1.404 . S
C920 C924 1.353 . S
N921 Co886 2.145 . S
N921 C922 1.397 . S
N921 C923 1.334 . S
C922 H903 0.929 . S
C922 C919 1.388 . S
C922 N921 1.397 . S
C923 H904 0.929 1_545 S
C923 C920 1.404 . S
C923 N921 1.334 . S
C924 H916 0.930 . S
C924 C919 1.418 . S
C924 C920 1.353 . S
C925 H895 0.930 . S
C925 N926 1.330 . S
C925 C927 1.446 . S
N926 Co885 2.151 . S
N926 C925 1.330 . S
N926 C930 1.418 . S
C927 H906 0.929 . S
C927 C925 1.446 . S
C927 C928 1.332 . S
C928 H908 0.931 . S
C928 C927 1.332 . S
C928 C929 1.267 . S
C929 H897 0.929 . S
C929 C928 1.267 . S
C929 C930 1.251 . S
C930 H900 0.929 . S
C930 N926 1.418 . S
C930 C929 1.251 . S
C931 H898 0.930 . S
C931 C933 1.406 . S
C931 C936 1.261 . S
C932 H899 0.930 . S
C932 N934 1.325 . S
C932 C935 1.357 . S
C933 H901 0.928 . S
C933 C931 1.406 . S
C933 N934 1.261 . S
N934 Co885 2.214 . S
N934 C932 1.325 . S
N934 C933 1.261 . S
C935 H905 0.931 . S
C935 C932 1.357 . S
C935 C936 1.312 . S
C936 H907 0.930 . S
C936 C931 1.261 . S
C936 C935 1.312 . S
C937 O909 1.214 . S
C937 O917 1.234 . S
C938 H910 0.929 . S
C938 C941 1.391 . S
C938 C943 1.391 . S
C939 H911 0.929 1_565 S
C939 C940 1.390 . S
C939 N942 1.391 . S
C940 H912 0.930 . S
C940 C939 1.390 . S
C940 C941 1.392 . S
C941 H913 0.929 . S
C941 C938 1.391 . S
C941 C940 1.392 . S
N942 Co886 2.257 1_565 S
N942 C939 1.391 . S
N942 C943 1.388 . S
C943 H914 0.930 . S
C943 C938 1.391 . S
C943 N942 1.388 . S
H944 C956 0.930 . S
H945 C958 0.930 . S
H946 C959 0.930 . S
H947 C963 0.959 . S
H948 C963 0.959 1_556 S
H949 C963 0.961 . S
H950 C964 0.960 . S
H951 C964 0.961 . S
H952 C964 0.959 . S
H953 C967 0.923 1_554 S
H954 C968 0.931 . S
H955 C970 0.930 . S
C956 H944 0.930 . S
C956 C957 1.399 . S
C956 C961 1.399 . S
C957 C956 1.399 . S
C957 C958 1.376 . S
C958 H945 0.930 . S
C958 C957 1.376 . S
C958 C959 1.388 . S
C959 H946 0.930 . S
C959 C958 1.388 . S
C959 C960 1.390 . S
C960 C959 1.390 . S
C960 C961 1.394 . S
C960 C966 1.465 1_554 S
C961 C956 1.399 . S
C961 C960 1.394 . S
C961 C962 1.516 1_554 S
C962 C961 1.516 1_556 S
C962 C963 1.502 1_556 S
C962 C964 1.561 . S
C962 C965 1.526 . S
C963 H947 0.959 . S
C963 H948 0.959 1_554 S
C963 H949 0.961 . S
C963 C962 1.502 1_554 S
C964 H950 0.960 . S
C964 H951 0.961 . S
C964 H952 0.959 . S
C964 C962 1.561 . S
C965 C962 1.526 . S
C965 C966 1.396 . S
C965 C970 1.390 . S
C966 C960 1.465 1_556 S
C966 C965 1.396 . S
C966 C967 1.399 . S
C967 H953 0.923 1_556 S
C967 C966 1.399 . S
C967 C968 1.392 . S
C968 H954 0.931 . S
C968 C967 1.392 . S
C968 C969 1.389 . S
C969 C968 1.389 . S
C969 C970 1.387 . S
C970 H955 0.930 . S
C970 C965 1.390 . S
C970 C969 1.387 . S
H971 C983 0.930 . S
H972 C985 0.930 . S
H973 C986 0.930 . S
H974 C990 0.959 . S
H975 C990 0.959 . S
H976 C990 0.961 . S
H977 C991 0.960 . S
H978 C991 0.961 . S
H979 C991 0.959 . S
H980 C994 0.929 . S
H981 C995 0.931 . S
H982 C997 0.930 . S
C983 H971 0.930 . S
C983 C984 1.399 1_554 S
C983 C988 1.399 . S
C984 C983 1.399 1_556 S
C984 C985 1.376 . S
C985 H972 0.930 . S
C985 C984 1.376 . S
C985 C986 1.388 . S
C986 H973 0.930 . S
C986 C985 1.388 . S
C986 C987 1.390 . S
C987 C986 1.390 . S
C987 C988 1.394 1_556 S
C987 C993 1.465 . S
C988 C983 1.399 . S
C988 C987 1.394 1_554 S
C988 C989 1.516 . S
C989 C988 1.516 . S
C989 C990 1.502 . S
C989 C991 1.561 . S
C989 C992 1.526 . S
C990 H974 0.959 . S
C990 H975 0.959 . S
C990 H976 0.961 . S
C990 C989 1.502 . S
C991 H977 0.960 . S
C991 H978 0.961 . S
C991 H979 0.959 . S
C991 C989 1.561 . S
C992 C989 1.526 . S
C992 C993 1.396 1_554 S
C992 C997 1.390 . S
C993 C987 1.465 . S
C993 C992 1.396 1_556 S
C993 C994 1.399 . S
C994 H980 0.929 . S
C994 C993 1.399 . S
C994 C995 1.385 . S
C995 H981 0.931 . S
C995 C994 1.385 . S
C995 C996 1.389 1_556 S
C996 C995 1.389 1_554 S
C996 C997 1.387 . S
C997 H982 0.930 . S
C997 C992 1.390 . S
C997 C996 1.387 . S
H998 C1010 0.930 . S
H999 C1012 0.930 . S
H1000 C1013 0.930 . S
H1001 C1017 0.959 . S
H1002 C1017 0.959 . S
H1003 C1017 0.961 . S
H1004 C1018 0.960 . S
H1005 C1018 0.961 . S
H1006 C1018 0.959 . S
H1007 C1021 0.929 . S
H1008 C1022 0.931 . S
H1009 C1024 0.930 . S
C1010 H998 0.930 . S
C1010 C1011 1.399 1_554 S
C1010 C1015 1.399 . S
C1011 C1010 1.399 1_556 S
C1011 C1012 1.376 . S
C1012 H999 0.930 . S
C1012 C1011 1.376 . S
C1012 C1013 1.388 . S
C1013 H1000 0.930 . S
C1013 C1012 1.388 . S
C1013 C1014 1.390 . S
C1014 C1013 1.390 . S
C1014 C1015 1.394 1_556 S
C1014 C1020 1.465 . S
C1015 C1010 1.399 . S
C1015 C1014 1.394 1_554 S
C1015 C1016 1.516 . S
C1016 C1015 1.516 . S
C1016 C1017 1.502 . S
C1016 C1018 1.561 . S
C1016 C1019 1.526 . S
C1017 H1001 0.959 . S
C1017 H1002 0.959 . S
C1017 H1003 0.961 . S
C1017 C1016 1.502 . S
C1018 H1004 0.960 . S
C1018 H1005 0.961 . S
C1018 H1006 0.959 . S
C1018 C1016 1.561 . S
C1019 C1016 1.526 . S
C1019 C1020 1.396 1_554 S
C1019 C1024 1.390 . S
C1020 C1014 1.465 . S
C1020 C1019 1.396 1_556 S
C1020 C1021 1.399 . S
C1021 H1007 0.929 . S
C1021 C1020 1.399 . S
C1021 C1022 1.385 . S
C1022 H1008 0.931 . S
C1022 C1021 1.385 . S
C1022 C1023 1.389 1_556 S
C1023 C1022 1.389 1_554 S
C1023 C1024 1.387 . S
C1024 H1009 0.930 . S
C1024 C1019 1.390 . S
C1024 C1023 1.387 . S
H1025 C1037 0.925 1_554 S
H1026 C1039 0.930 . S
H1027 C1040 0.930 . S
H1028 C1044 0.959 1_556 S
H1029 C1044 0.959 . S
H1030 C1044 0.961 . S
H1031 C1045 0.960 . S
H1032 C1045 0.961 . S
H1033 C1045 0.959 . S
H1034 C1048 0.929 . S
H1035 C1049 0.931 1_556 S
H1036 C1051 0.930 . S
C1037 H1025 0.925 1_556 S
C1037 C1038 1.406 . S
C1037 C1042 1.397 1_556 S
C1038 C1037 1.406 . S
C1038 C1039 1.376 . S
C1039 H1026 0.930 . S
C1039 C1038 1.376 . S
C1039 C1040 1.388 . S
C1040 H1027 0.930 . S
C1040 C1039 1.388 . S
C1040 C1041 1.390 . S
C1041 C1040 1.390 . S
C1041 C1042 1.394 1_556 S
C1041 C1047 1.460 1_556 S
C1042 C1037 1.397 1_554 S
C1042 C1041 1.394 1_554 S
C1042 C1043 1.516 . S
C1043 C1042 1.516 . S
C1043 C1044 1.502 . S
C1043 C1045 1.561 . S
C1043 C1046 1.526 . S
C1044 H1028 0.959 1_554 S
C1044 H1029 0.959 . S
C1044 H1030 0.961 . S
C1044 C1043 1.502 . S
C1045 H1031 0.960 . S
C1045 H1032 0.961 . S
C1045 H1033 0.959 . S
C1045 C1043 1.561 . S
C1046 C1043 1.526 . S
C1046 C1047 1.408 . S
C1046 C1051 1.390 . S
C1047 C1041 1.460 1_554 S
C1047 C1046 1.408 . S
C1047 C1048 1.394 1_554 S
C1048 H1034 0.929 . S
C1048 C1047 1.394 1_556 S
C1048 C1049 1.385 1_556 S
C1049 H1035 0.931 1_554 S
C1049 C1048 1.385 1_554 S
C1049 C1050 1.389 . S
C1050 C1049 1.389 . S
C1050 C1051 1.387 . S
C1051 H1036 0.930 . S
C1051 C1046 1.390 . S
C1051 C1050 1.387 . S
H1052 C1064 0.930 . S
H1053 C1066 0.930 . S
H1054 C1067 0.930 . S
H1055 C1071 0.959 . S
H1056 C1071 0.959 . S
H1057 C1071 0.961 . S
H1058 C1072 0.960 . S
H1059 C1072 0.961 . S
H1060 C1072 0.959 . S
H1061 C1075 0.929 . S
H1062 C1076 0.931 . S
H1063 C1078 0.930 . S
C1064 H1052 0.930 . S
C1064 C1065 1.399 . S
C1064 C1069 1.399 . S
C1065 C1064 1.399 . S
C1065 C1066 1.376 . S
C1066 H1053 0.930 . S
C1066 C1065 1.376 . S
C1066 C1067 1.388 . S
C1067 H1054 0.930 . S
C1067 C1066 1.388 . S
C1067 C1068 1.390 . S
C1068 C1067 1.390 . S
C1068 C1069 1.394 . S
C1068 C1074 1.465 . S
C1069 C1064 1.399 . S
C1069 C1068 1.394 . S
C1069 C1070 1.516 . S
C1070 C1069 1.516 . S
C1070 C1071 1.502 . S
C1070 C1072 1.561 . S
C1070 C1073 1.526 . S
C1071 H1055 0.959 . S
C1071 H1056 0.959 . S
C1071 H1057 0.961 . S
C1071 C1070 1.502 . S
C1072 H1058 0.960 . S
C1072 H1059 0.961 . S
C1072 H1060 0.959 . S
C1072 C1070 1.561 . S
C1073 C1070 1.526 . S
C1073 C1074 1.396 . S
C1073 C1078 1.390 . S
C1074 C1068 1.465 . S
C1074 C1073 1.396 . S
C1074 C1075 1.399 . S
C1075 H1061 0.929 . S
C1075 C1074 1.399 . S
C1075 C1076 1.385 . S
C1076 H1062 0.931 . S
C1076 C1075 1.385 . S
C1076 C1077 1.389 . S
C1077 C1076 1.389 . S
C1077 C1078 1.387 . S
C1078 H1063 0.930 . S
C1078 C1073 1.390 . S
C1078 C1077 1.387 . S
H1079 C1091 0.930 . S
H1080 C1093 0.930 . S
H1081 C1094 0.930 . S
H1082 C1098 0.959 . S
H1083 C1098 0.959 . S
H1084 C1098 0.961 . S
H1085 C1099 0.960 . S
H1086 C1099 0.961 . S
H1087 C1099 0.959 . S
H1088 C1102 0.929 . S
H1089 C1103 0.931 . S
H1090 C1105 0.930 . S
C1091 H1079 0.930 . S
C1091 C1092 1.399 . S
C1091 C1096 1.399 . S
C1092 C1091 1.399 . S
C1092 C1093 1.376 . S
C1093 H1080 0.930 . S
C1093 C1092 1.376 . S
C1093 C1094 1.388 . S
C1094 H1081 0.930 . S
C1094 C1093 1.388 . S
C1094 C1095 1.390 . S
C1095 C1094 1.390 . S
C1095 C1096 1.394 . S
C1095 C1101 1.465 . S
C1096 C1091 1.399 . S
C1096 C1095 1.394 . S
C1096 C1097 1.516 . S
C1097 C1096 1.516 . S
C1097 C1098 1.502 . S
C1097 C1099 1.561 . S
C1097 C1100 1.526 . S
C1098 H1082 0.959 . S
C1098 H1083 0.959 . S
C1098 H1084 0.961 . S
C1098 C1097 1.502 . S
C1099 H1085 0.960 . S
C1099 H1086 0.961 . S
C1099 H1087 0.959 . S
C1099 C1097 1.561 . S
C1100 C1097 1.526 . S
C1100 C1101 1.396 . S
C1100 C1105 1.390 . S
C1101 C1095 1.465 . S
C1101 C1100 1.396 . S
C1101 C1102 1.399 . S
C1102 H1088 0.929 . S
C1102 C1101 1.399 . S
C1102 C1103 1.385 . S
C1103 H1089 0.931 . S
C1103 C1102 1.385 . S
C1103 C1104 1.389 . S
C1104 C1103 1.389 . S
C1104 C1105 1.387 . S
C1105 H1090 0.930 . S
C1105 C1100 1.390 . S
C1105 C1104 1.387 . S
H1106 C1118 0.930 . S
H1107 C1120 0.930 . S
H1108 C1121 0.930 . S
H1109 C1125 0.959 . S
H1110 C1125 0.959 . S
H1111 C1125 0.961 . S
H1112 C1126 0.960 . S
H1113 C1126 0.961 . S
H1114 C1126 0.959 . S
H1115 C1129 0.929 . S
H1116 C1130 0.931 . S
H1117 C1132 0.930 . S
C1118 H1106 0.930 . S
C1118 C1119 1.399 . S
C1118 C1123 1.399 . S
C1119 C1118 1.399 . S
C1119 C1120 1.376 . S
C1120 H1107 0.930 . S
C1120 C1119 1.376 . S
C1120 C1121 1.388 . S
C1121 H1108 0.930 . S
C1121 C1120 1.388 . S
C1121 C1122 1.390 . S
C1122 C1121 1.390 . S
C1122 C1123 1.394 . S
C1122 C1128 1.465 . S
C1123 C1118 1.399 . S
C1123 C1122 1.394 . S
C1123 C1124 1.516 . S
C1124 C1123 1.516 . S
C1124 C1125 1.502 . S
C1124 C1126 1.561 . S
C1124 C1127 1.526 . S
C1125 H1109 0.959 . S
C1125 H1110 0.959 . S
C1125 H1111 0.961 . S
C1125 C1124 1.502 . S
C1126 H1112 0.960 . S
C1126 H1113 0.961 . S
C1126 H1114 0.959 . S
C1126 C1124 1.561 . S
C1127 C1124 1.526 . S
C1127 C1128 1.396 . S
C1127 C1132 1.390 . S
C1128 C1122 1.465 . S
C1128 C1127 1.396 . S
C1128 C1129 1.399 . S
C1129 H1115 0.929 . S
C1129 C1128 1.399 . S
C1129 C1130 1.385 . S
C1130 H1116 0.931 . S
C1130 C1129 1.385 . S
C1130 C1131 1.389 . S
C1131 C1130 1.389 . S
C1131 C1132 1.387 . S
C1132 H1117 0.930 . S
C1132 C1127 1.390 . S
C1132 C1131 1.387 . S
H1133 C1145 0.930 . S
H1134 C1147 0.930 . S
H1135 C1148 0.930 . S
H1136 C1152 0.959 . S
H1137 C1152 0.959 . S
H1138 C1152 0.961 . S
H1139 C1153 0.960 . S
H1140 C1153 0.961 . S
H1141 C1153 0.959 . S
H1142 C1156 0.929 . S
H1143 C1157 0.931 . S
H1144 C1159 0.930 . S
C1145 H1133 0.930 . S
C1145 C1146 1.399 . S
C1145 C1150 1.399 . S
C1146 C1145 1.399 . S
C1146 C1147 1.376 . S
C1147 H1134 0.930 . S
C1147 C1146 1.376 . S
C1147 C1148 1.388 . S
C1148 H1135 0.930 . S
C1148 C1147 1.388 . S
C1148 C1149 1.390 . S
C1149 C1148 1.390 . S
C1149 C1150 1.394 . S
C1149 C1155 1.465 . S
C1150 C1145 1.399 . S
C1150 C1149 1.394 . S
C1150 C1151 1.516 . S
C1151 C1150 1.516 . S
C1151 C1152 1.502 . S
C1151 C1153 1.561 . S
C1151 C1154 1.526 . S
C1152 H1136 0.959 . S
C1152 H1137 0.959 . S
C1152 H1138 0.961 . S
C1152 C1151 1.502 . S
C1153 H1139 0.960 . S
C1153 H1140 0.961 . S
C1153 H1141 0.959 . S
C1153 C1151 1.561 . S
C1154 C1151 1.526 . S
C1154 C1155 1.396 . S
C1154 C1159 1.390 . S
C1155 C1149 1.465 . S
C1155 C1154 1.396 . S
C1155 C1156 1.399 . S
C1156 H1142 0.929 . S
C1156 C1155 1.399 . S
C1156 C1157 1.385 . S
C1157 H1143 0.931 . S
C1157 C1156 1.385 . S
C1157 C1158 1.389 . S
C1158 C1157 1.389 . S
C1158 C1159 1.387 . S
C1159 H1144 0.930 . S
C1159 C1154 1.390 . S
C1159 C1158 1.387 . S
H1160 C1172 0.930 . S
H1161 C1174 0.930 . S
H1162 C1175 0.930 . S
H1163 C1179 0.959 . S
H1164 C1179 0.959 . S
H1165 C1179 0.961 . S
H1166 C1180 0.960 . S
H1167 C1180 0.961 . S
H1168 C1180 0.959 . S
H1169 C1183 0.929 1_556 S
H1170 C1184 0.931 . S
H1171 C1186 0.930 . S
C1172 H1160 0.930 . S
C1172 C1173 1.399 . S
C1172 C1177 1.399 . S
C1173 C1172 1.399 . S
C1173 C1174 1.376 . S
C1174 H1161 0.930 . S
C1174 C1173 1.376 . S
C1174 C1175 1.388 . S
C1175 H1162 0.930 . S
C1175 C1174 1.388 . S
C1175 C1176 1.390 . S
C1176 C1175 1.390 . S
C1176 C1177 1.394 . S
C1176 C1182 1.465 1_556 S
C1177 C1172 1.399 . S
C1177 C1176 1.394 . S
C1177 C1178 1.516 1_556 S
C1178 C1177 1.516 1_554 S
C1178 C1179 1.502 1_554 S
C1178 C1180 1.561 . S
C1178 C1181 1.526 . S
C1179 H1163 0.959 . S
C1179 H1164 0.959 . S
C1179 H1165 0.961 . S
C1179 C1178 1.502 1_556 S
C1180 H1166 0.960 . S
C1180 H1167 0.961 . S
C1180 H1168 0.959 . S
C1180 C1178 1.561 . S
C1181 C1178 1.526 . S
C1181 C1182 1.396 . S
C1181 C1186 1.390 . S
C1182 C1176 1.465 1_554 S
C1182 C1181 1.396 . S
C1182 C1183 1.399 . S
C1183 H1169 0.929 1_554 S
C1183 C1182 1.399 . S
C1183 C1184 1.385 . S
C1184 H1170 0.931 . S
C1184 C1183 1.385 . S
C1184 C1185 1.389 . S
C1185 C1184 1.389 . S
C1185 C1186 1.387 . S
C1186 H1171 0.930 . S
C1186 C1181 1.390 . S
C1186 C1185 1.387 . S
H1187 C1199 0.930 . S
H1188 C1201 0.930 . S
H1189 C1202 0.930 . S
H1190 C1206 0.959 . S
H1191 C1206 0.959 . S
H1192 C1206 0.961 . S
H1193 C1207 0.960 . S
H1194 C1207 0.961 . S
H1195 C1207 0.959 . S
H1196 C1210 0.929 . S
H1197 C1211 0.931 . S
H1198 C1213 0.930 . S
C1199 H1187 0.930 . S
C1199 C1200 1.399 . S
C1199 C1204 1.399 . S
C1200 C1199 1.399 . S
C1200 C1201 1.376 1_556 S
C1201 H1188 0.930 . S
C1201 C1200 1.376 1_554 S
C1201 C1202 1.388 . S
C1202 H1189 0.930 . S
C1202 C1201 1.388 . S
C1202 C1203 1.390 . S
C1203 C1202 1.390 . S
C1203 C1204 1.394 1_554 S
C1203 C1209 1.465 . S
C1204 C1199 1.399 . S
C1204 C1203 1.394 1_556 S
C1204 C1205 1.516 . S
C1205 C1204 1.516 . S
C1205 C1206 1.502 . S
C1205 C1207 1.561 . S
C1205 C1208 1.526 . S
C1206 H1190 0.959 . S
C1206 H1191 0.959 . S
C1206 H1192 0.961 . S
C1206 C1205 1.502 . S
C1207 H1193 0.960 . S
C1207 H1194 0.961 . S
C1207 H1195 0.959 . S
C1207 C1205 1.561 . S
C1208 C1205 1.526 . S
C1208 C1209 1.396 1_556 S
C1208 C1213 1.390 . S
C1209 C1203 1.465 . S
C1209 C1208 1.396 1_554 S
C1209 C1210 1.399 . S
C1210 H1196 0.929 . S
C1210 C1209 1.399 . S
C1210 C1211 1.385 . S
C1211 H1197 0.931 . S
C1211 C1210 1.385 . S
C1211 C1212 1.389 . S
C1212 C1211 1.389 . S
C1212 C1213 1.387 1_554 S
C1213 H1198 0.930 . S
C1213 C1208 1.390 . S
C1213 C1212 1.387 1_556 S
H1214 C1226 0.930 . S
H1215 C1228 0.930 . S
H1216 C1229 0.930 . S
H1217 C1233 0.959 . S
H1218 C1233 0.959 . S
H1219 C1233 0.961 . S
H1220 C1234 0.960 . S
H1221 C1234 0.961 . S
H1222 C1234 0.959 . S
H1223 C1237 0.929 . S
H1224 C1238 0.931 . S
H1225 C1240 0.930 . S
C1226 H1214 0.930 . S
C1226 C1227 1.399 1_554 S
C1226 C1231 1.399 . S
C1227 C1226 1.399 1_556 S
C1227 C1228 1.376 . S
C1228 H1215 0.930 . S
C1228 C1227 1.376 . S
C1228 C1229 1.388 . S
C1229 H1216 0.930 . S
C1229 C1228 1.388 . S
C1229 C1230 1.390 . S
C1230 C1229 1.390 . S
C1230 C1231 1.394 1_556 S
C1230 C1236 1.465 . S
C1231 C1226 1.399 . S
C1231 C1230 1.394 1_554 S
C1231 C1232 1.516 . S
C1232 C1231 1.516 . S
C1232 C1233 1.502 . S
C1232 C1234 1.561 . S
C1232 C1235 1.526 . S
C1233 H1217 0.959 . S
C1233 H1218 0.959 . S
C1233 H1219 0.961 . S
C1233 C1232 1.502 . S
C1234 H1220 0.960 . S
C1234 H1221 0.961 . S
C1234 H1222 0.959 . S
C1234 C1232 1.561 . S
C1235 C1232 1.526 . S
C1235 C1236 1.396 1_554 S
C1235 C1240 1.390 . S
C1236 C1230 1.465 . S
C1236 C1235 1.396 1_556 S
C1236 C1237 1.399 . S
C1237 H1223 0.929 . S
C1237 C1236 1.399 . S
C1237 C1238 1.385 . S
C1238 H1224 0.931 . S
C1238 C1237 1.385 . S
C1238 C1239 1.389 1_556 S
C1239 C1238 1.389 1_554 S
C1239 C1240 1.387 . S
C1240 H1225 0.930 . S
C1240 C1235 1.390 . S
C1240 C1239 1.387 . S
H1241 C1253 0.930 . S
H1242 C1255 0.930 . S
H1243 C1256 0.930 . S
H1244 C1260 0.959 . S
H1245 C1260 0.959 . S
H1246 C1260 0.961 . S
H1247 C1261 0.960 . S
H1248 C1261 0.961 . S
H1249 C1261 0.959 . S
H1250 C1264 0.929 . S
H1251 C1265 0.931 . S
H1252 C1267 0.930 . S
C1253 H1241 0.930 . S
C1253 C1254 1.399 1_556 S
C1253 C1258 1.399 . S
C1254 C1253 1.399 1_554 S
C1254 C1255 1.376 . S
C1255 H1242 0.930 . S
C1255 C1254 1.376 . S
C1255 C1256 1.388 . S
C1256 H1243 0.930 . S
C1256 C1255 1.388 . S
C1256 C1257 1.390 . S
C1257 C1256 1.390 . S
C1257 C1258 1.394 1_554 S
C1257 C1263 1.465 . S
C1258 C1253 1.399 . S
C1258 C1257 1.394 1_556 S
C1258 C1259 1.516 . S
C1259 C1258 1.516 . S
C1259 C1260 1.502 . S
C1259 C1261 1.561 . S
C1259 C1262 1.526 . S
C1260 H1244 0.959 . S
C1260 H1245 0.959 . S
C1260 H1246 0.961 . S
C1260 C1259 1.502 . S
C1261 H1247 0.960 . S
C1261 H1248 0.961 . S
C1261 H1249 0.959 . S
C1261 C1259 1.561 . S
C1262 C1259 1.526 . S
C1262 C1263 1.396 1_556 S
C1262 C1267 1.390 . S
C1263 C1257 1.465 . S
C1263 C1262 1.396 1_554 S
C1263 C1264 1.399 . S
C1264 H1250 0.929 . S
C1264 C1263 1.399 . S
C1264 C1265 1.385 . S
C1265 H1251 0.931 . S
C1265 C1264 1.385 . S
C1265 C1266 1.389 1_554 S
C1266 C1265 1.389 1_556 S
C1266 C1267 1.387 . S
C1267 H1252 0.930 . S
C1267 C1262 1.390 . S
C1267 C1266 1.387 . S
H1268 C1280 0.930 . S
H1269 C1282 0.930 . S
H1270 C1283 0.930 . S
H1271 C1287 0.959 . S
H1272 C1287 0.959 . S
H1273 C1287 0.961 . S
H1274 C1288 0.960 . S
H1275 C1288 0.961 . S
H1276 C1288 0.959 . S
H1277 C1291 0.929 . S
H1278 C1292 0.931 . S
H1279 C1294 0.930 . S
C1280 H1268 0.930 . S
C1280 C1281 1.399 . S
C1280 C1285 1.399 . S
C1281 C1280 1.399 . S
C1281 C1282 1.376 . S
C1282 H1269 0.930 . S
C1282 C1281 1.376 . S
C1282 C1283 1.388 . S
C1283 H1270 0.930 . S
C1283 C1282 1.388 . S
C1283 C1284 1.390 . S
C1284 C1283 1.390 . S
C1284 C1285 1.394 . S
C1284 C1290 1.465 . S
C1285 C1280 1.399 . S
C1285 C1284 1.394 . S
C1285 C1286 1.516 . S
C1286 C1285 1.516 . S
C1286 C1287 1.502 . S
C1286 C1288 1.561 . S
C1286 C1289 1.526 . S
C1287 H1271 0.959 . S
C1287 H1272 0.959 . S
C1287 H1273 0.961 . S
C1287 C1286 1.502 . S
C1288 H1274 0.960 . S
C1288 H1275 0.961 . S
C1288 H1276 0.959 . S
C1288 C1286 1.561 . S
C1289 C1286 1.526 . S
C1289 C1290 1.396 . S
C1289 C1294 1.390 . S
C1290 C1284 1.465 . S
C1290 C1289 1.396 . S
C1290 C1291 1.399 . S
C1291 H1277 0.929 . S
C1291 C1290 1.399 . S
C1291 C1292 1.385 . S
C1292 H1278 0.931 . S
C1292 C1291 1.385 . S
C1292 C1293 1.389 . S
C1293 C1292 1.389 . S
C1293 C1294 1.387 . S
C1294 H1279 0.930 . S
C1294 C1289 1.390 . S
C1294 C1293 1.387 . S
H1295 C1307 0.930 . S
H1296 C1309 0.930 . S
H1297 C1310 0.930 . S
H1298 C1314 0.959 . S
H1299 C1314 0.959 . S
H1300 C1314 0.961 . S
H1301 C1315 0.960 . S
H1302 C1315 0.961 . S
H1303 C1315 0.959 . S
H1304 C1318 0.929 . S
H1305 C1319 0.931 . S
H1306 C1321 0.930 . S
C1307 H1295 0.930 . S
C1307 C1308 1.399 . S
C1307 C1312 1.399 . S
C1308 C1307 1.399 . S
C1308 C1309 1.376 . S
C1309 H1296 0.930 . S
C1309 C1308 1.376 . S
C1309 C1310 1.388 . S
C1310 H1297 0.930 . S
C1310 C1309 1.388 . S
C1310 C1311 1.390 . S
C1311 C1310 1.390 . S
C1311 C1312 1.394 . S
C1311 C1317 1.465 . S
C1312 C1307 1.399 . S
C1312 C1311 1.394 . S
C1312 C1313 1.516 . S
C1313 C1312 1.516 . S
C1313 C1314 1.502 . S
C1313 C1315 1.561 . S
C1313 C1316 1.526 . S
C1314 H1298 0.959 . S
C1314 H1299 0.959 . S
C1314 H1300 0.961 . S
C1314 C1313 1.502 . S
C1315 H1301 0.960 . S
C1315 H1302 0.961 . S
C1315 H1303 0.959 . S
C1315 C1313 1.561 . S
C1316 C1313 1.526 . S
C1316 C1317 1.396 . S
C1316 C1321 1.390 . S
C1317 C1311 1.465 . S
C1317 C1316 1.396 . S
C1317 C1318 1.399 . S
C1318 H1304 0.929 . S
C1318 C1317 1.399 . S
C1318 C1319 1.385 . S
C1319 H1305 0.931 . S
C1319 C1318 1.385 . S
C1319 C1320 1.389 . S
C1320 C1319 1.389 . S
C1320 C1321 1.387 . S
C1321 H1306 0.930 . S
C1321 C1316 1.390 . S
C1321 C1320 1.387 . S
H1322 C1334 0.930 . S
H1323 C1336 0.930 . S
H1324 C1337 0.930 . S
H1325 C1341 0.959 . S
H1326 C1341 0.959 . S
H1327 C1341 0.961 . S
H1328 C1342 0.960 . S
H1329 C1342 0.961 . S
H1330 C1342 0.959 . S
H1331 C1345 0.929 . S
H1332 C1346 0.931 . S
H1333 C1348 0.930 . S
C1334 H1322 0.930 . S
C1334 C1335 1.399 . S
C1334 C1339 1.399 . S
C1335 C1334 1.399 . S
C1335 C1336 1.376 . S
C1336 H1323 0.930 . S
C1336 C1335 1.376 . S
C1336 C1337 1.388 . S
C1337 H1324 0.930 . S
C1337 C1336 1.388 . S
C1337 C1338 1.390 . S
C1338 C1337 1.390 . S
C1338 C1339 1.394 . S
C1338 C1344 1.465 . S
C1339 C1334 1.399 . S
C1339 C1338 1.394 . S
C1339 C1340 1.516 . S
C1340 C1339 1.516 . S
C1340 C1341 1.502 . S
C1340 C1342 1.561 . S
C1340 C1343 1.526 . S
C1341 H1325 0.959 . S
C1341 H1326 0.959 . S
C1341 H1327 0.961 . S
C1341 C1340 1.502 . S
C1342 H1328 0.960 . S
C1342 H1329 0.961 . S
C1342 H1330 0.959 . S
C1342 C1340 1.561 . S
C1343 C1340 1.526 . S
C1343 C1344 1.396 . S
C1343 C1348 1.390 . S
C1344 C1338 1.465 . S
C1344 C1343 1.396 . S
C1344 C1345 1.399 . S
C1345 H1331 0.929 . S
C1345 C1344 1.399 . S
C1345 C1346 1.385 . S
C1346 H1332 0.931 . S
C1346 C1345 1.385 . S
C1346 C1347 1.389 . S
C1347 C1346 1.389 . S
C1347 C1348 1.387 . S
C1348 H1333 0.930 . S
C1348 C1343 1.390 . S
C1348 C1347 1.387 . S
H1349 C1361 0.930 . S
H1350 C1363 0.930 . S
H1351 C1364 0.930 . S
H1352 C1368 0.959 . S
H1353 C1368 0.959 . S
H1354 C1368 0.961 . S
H1355 C1369 0.960 . S
H1356 C1369 0.961 . S
H1357 C1369 0.959 . S
H1358 C1372 0.929 . S
H1359 C1373 0.931 . S
H1360 C1375 0.930 . S
C1361 H1349 0.930 . S
C1361 C1362 1.399 . S
C1361 C1366 1.399 . S
C1362 C1361 1.399 . S
C1362 C1363 1.376 . S
C1363 H1350 0.930 . S
C1363 C1362 1.376 . S
C1363 C1364 1.388 . S
C1364 H1351 0.930 . S
C1364 C1363 1.388 . S
C1364 C1365 1.390 . S
C1365 C1364 1.390 . S
C1365 C1366 1.394 . S
C1365 C1371 1.465 . S
C1366 C1361 1.399 . S
C1366 C1365 1.394 . S
C1366 C1367 1.516 . S
C1367 C1366 1.516 . S
C1367 C1368 1.502 . S
C1367 C1369 1.561 . S
C1367 C1370 1.526 . S
C1368 H1352 0.959 . S
C1368 H1353 0.959 . S
C1368 H1354 0.961 . S
C1368 C1367 1.502 . S
C1369 H1355 0.960 . S
C1369 H1356 0.961 . S
C1369 H1357 0.959 . S
C1369 C1367 1.561 . S
C1370 C1367 1.526 . S
C1370 C1371 1.396 . S
C1370 C1375 1.390 . S
C1371 C1365 1.465 . S
C1371 C1370 1.396 . S
C1371 C1372 1.399 . S
C1372 H1358 0.929 . S
C1372 C1371 1.399 . S
C1372 C1373 1.385 . S
C1373 H1359 0.931 . S
C1373 C1372 1.385 . S
C1373 C1374 1.389 . S
C1374 C1373 1.389 . S
C1374 C1375 1.387 . S
C1375 H1360 0.930 . S
C1375 C1370 1.390 . S
C1375 C1374 1.387 . S
H1376 C1388 0.930 1_554 S
H1377 C1390 0.930 . S
H1378 C1391 0.930 . S
H1379 C1395 0.959 . S
H1380 C1395 0.959 . S
H1381 C1395 0.961 . S
H1382 C1396 0.960 . S
H1383 C1396 0.961 . S
H1384 C1396 0.959 . S
H1385 C1399 0.929 . S
H1386 C1400 0.931 . S
H1387 C1402 0.930 . S
C1388 H1376 0.930 1_556 S
C1388 C1389 1.399 . S
C1388 C1393 1.399 1_556 S
C1389 C1388 1.399 . S
C1389 C1390 1.376 . S
C1390 H1377 0.930 . S
C1390 C1389 1.376 . S
C1390 C1391 1.388 . S
C1391 H1378 0.930 . S
C1391 C1390 1.388 . S
C1391 C1392 1.390 . S
C1392 C1391 1.390 . S
C1392 C1393 1.394 1_556 S
C1392 C1398 1.465 1_565 S
C1393 C1388 1.399 1_554 S
C1393 C1392 1.394 1_554 S
C1393 C1394 1.516 . S
C1394 C1393 1.516 . S
C1394 C1395 1.502 . S
C1394 C1396 1.561 . S
C1394 C1397 1.526 1_565 S
C1395 H1379 0.959 . S
C1395 H1380 0.959 . S
C1395 H1381 0.961 . S
C1395 C1394 1.502 . S
C1396 H1382 0.960 . S
C1396 H1383 0.961 . S
C1396 H1384 0.959 . S
C1396 C1394 1.561 . S
C1397 C1394 1.526 1_545 S
C1397 C1398 1.396 1_554 S
C1397 C1402 1.390 . S
C1398 C1392 1.465 1_545 S
C1398 C1397 1.396 1_556 S
C1398 C1399 1.399 . S
C1399 H1385 0.929 . S
C1399 C1398 1.399 . S
C1399 C1400 1.385 . S
C1400 H1386 0.931 . S
C1400 C1399 1.385 . S
C1400 C1401 1.389 1_556 S
C1401 C1400 1.389 1_554 S
C1401 C1402 1.387 . S
C1402 H1387 0.930 . S
C1402 C1397 1.390 . S
C1402 C1401 1.387 . S
H1403 C1415 0.930 . S
H1404 C1417 0.930 . S
H1405 C1418 0.930 . S
H1406 C1422 0.959 . S
H1407 C1422 0.959 . S
H1408 C1422 0.961 . S
H1409 C1423 0.960 . S
H1410 C1423 0.961 1_556 S
H1411 C1423 0.959 . S
H1412 C1426 0.929 . S
H1413 C1427 0.931 . S
H1414 C1429 0.930 . S
C1415 H1403 0.930 . S
C1415 C1416 1.399 . S
C1415 C1420 1.399 . S
C1416 C1415 1.399 . S
C1416 C1417 1.376 . S
C1417 H1404 0.930 . S
C1417 C1416 1.376 . S
C1417 C1418 1.388 . S
C1418 H1405 0.930 . S
C1418 C1417 1.388 . S
C1418 C1419 1.390 . S
C1419 C1418 1.390 . S
C1419 C1420 1.394 . S
C1419 C1425 1.465 . S
C1420 C1415 1.399 . S
C1420 C1419 1.394 . S
C1420 C1421 1.516 1_554 S
C1421 C1420 1.516 1_556 S
C1421 C1422 1.502 . S
C1421 C1423 1.561 1_556 S
C1421 C1424 1.526 . S
C1422 H1406 0.959 . S
C1422 H1407 0.959 . S
C1422 H1408 0.961 . S
C1422 C1421 1.502 . S
C1423 H1409 0.960 . S
C1423 H1410 0.961 1_554 S
C1423 H1411 0.959 . S
C1423 C1421 1.561 1_554 S
C1424 C1421 1.526 . S
C1424 C1425 1.396 1_556 S
C1424 C1429 1.390 . S
C1425 C1419 1.465 . S
C1425 C1424 1.396 1_554 S
C1425 C1426 1.399 . S
C1426 H1412 0.929 . S
C1426 C1425 1.399 . S
C1426 C1427 1.385 1_554 S
C1427 H1413 0.931 . S
C1427 C1426 1.385 1_556 S
C1427 C1428 1.389 . S
C1428 C1427 1.389 . S
C1428 C1429 1.387 . S
C1429 H1414 0.930 . S
C1429 C1424 1.390 . S
C1429 C1428 1.387 . S
H1430 C1442 0.930 . S
H1431 C1444 0.930 . S
H1432 C1445 0.930 . S
H1433 C1449 0.959 . S
H1434 C1449 0.959 . S
H1435 C1449 0.961 . S
H1436 C1450 0.960 . S
H1437 C1450 0.961 . S
H1438 C1450 0.959 . S
H1439 C1453 0.929 . S
H1440 C1454 0.931 . S
H1441 C1456 0.930 1_556 S
C1442 H1430 0.930 . S
C1442 C1443 1.399 1_655 S
C1442 C1447 1.400 . S
C1443 C1442 1.399 1_455 S
C1443 C1444 1.376 1_556 S
C1444 H1431 0.930 . S
C1444 C1443 1.376 1_554 S
C1444 C1445 1.388 . S
C1445 H1432 0.930 . S
C1445 C1444 1.388 . S
C1445 C1446 1.390 . S
C1446 C1445 1.390 . S
C1446 C1447 1.390 1_454 S
C1446 C1452 1.465 . S
C1447 C1442 1.400 . S
C1447 C1446 1.390 1_656 S
C1447 C1448 1.518 . S
C1448 C1447 1.518 . S
C1448 C1449 1.502 . S
C1448 C1450 1.561 1_655 S
C1448 C1451 1.526 . S
C1449 H1433 0.959 . S
C1449 H1434 0.959 . S
C1449 H1435 0.961 . S
C1449 C1448 1.502 . S
C1450 H1436 0.960 . S
C1450 H1437 0.961 . S
C1450 H1438 0.959 . S
C1450 C1448 1.561 1_455 S
C1451 C1448 1.526 . S
C1451 C1452 1.396 1_656 S
C1451 C1456 1.390 1_556 S
C1452 C1446 1.465 . S
C1452 C1451 1.396 1_454 S
C1452 C1453 1.399 . S
C1453 H1439 0.929 . S
C1453 C1452 1.399 . S
C1453 C1454 1.385 . S
C1454 H1440 0.931 . S
C1454 C1453 1.385 . S
C1454 C1455 1.391 . S
C1455 C1454 1.391 . S
C1455 C1456 1.386 1_455 S
C1456 H1441 0.930 1_554 S
C1456 C1451 1.390 1_554 S
C1456 C1455 1.386 1_655 S
H1457 C1469 0.930 . S
H1458 C1471 0.930 . S
H1459 C1472 0.930 . S
H1460 C1476 0.959 . S
H1461 C1476 0.959 1_556 S
H1462 C1476 0.961 1_455 S
H1463 C1477 0.960 . S
H1464 C1477 0.961 . S
H1465 C1477 0.959 . S
H1466 C1480 0.929 . S
H1467 C1481 0.931 . S
H1468 C1483 0.930 . S
C1469 H1457 0.930 . S
C1469 C1470 1.399 1_545 S
C1469 C1474 1.399 . S
C1470 C1469 1.399 1_565 S
C1470 C1471 1.376 . S
C1471 H1458 0.930 . S
C1471 C1470 1.376 . S
C1471 C1472 1.388 . S
C1472 H1459 0.930 . S
C1472 C1471 1.388 . S
C1472 C1473 1.390 . S
C1473 C1472 1.390 . S
C1473 C1474 1.394 1_565 S
C1473 C1479 1.465 1_454 S
C1474 C1469 1.399 . S
C1474 C1473 1.394 1_545 S
C1474 C1475 1.516 1_554 S
C1475 C1474 1.516 1_556 S
C1475 C1476 1.502 1_456 S
C1475 C1477 1.561 . S
C1475 C1478 1.526 1_455 S
C1476 H1460 0.959 . S
C1476 H1461 0.959 1_554 S
C1476 H1462 0.961 1_655 S
C1476 C1475 1.502 1_654 S
C1477 H1463 0.960 . S
C1477 H1464 0.961 . S
C1477 H1465 0.959 . S
C1477 C1475 1.561 . S
C1478 C1475 1.526 1_655 S
C1478 C1479 1.396 1_545 S
C1478 C1483 1.390 . S
C1479 C1473 1.465 1_656 S
C1479 C1478 1.396 1_565 S
C1479 C1480 1.399 . S
C1480 H1466 0.929 . S
C1480 C1479 1.399 . S
C1480 C1481 1.385 . S
C1481 H1467 0.931 . S
C1481 C1480 1.385 . S
C1481 C1482 1.389 . S
C1482 C1481 1.389 . S
C1482 C1483 1.387 1_565 S
C1483 H1468 0.930 . S
C1483 C1478 1.390 . S
C1483 C1482 1.387 1_545 S
H1484 C1496 0.930 . S
H1485 C1498 0.930 . S
H1486 C1499 0.930 . S
H1487 C1503 0.959 . S
H1488 C1503 0.959 . S
H1489 C1503 0.961 . S
H1490 C1504 0.960 . S
H1491 C1504 0.961 . S
H1492 C1504 0.959 . S
H1493 C1507 0.929 . S
H1494 C1508 0.931 . S
H1495 C1510 0.930 . S
C1496 H1484 0.930 . S
C1496 C1497 1.399 . S
C1496 C1501 1.399 . S
C1497 C1496 1.399 . S
C1497 C1498 1.376 . S
C1498 H1485 0.930 . S
C1498 C1497 1.376 . S
C1498 C1499 1.388 . S
C1499 H1486 0.930 . S
C1499 C1498 1.388 . S
C1499 C1500 1.390 . S
C1500 C1499 1.390 . S
C1500 C1501 1.394 . S
C1500 C1506 1.465 . S
C1501 C1496 1.399 . S
C1501 C1500 1.394 . S
C1501 C1502 1.516 . S
C1502 C1501 1.516 . S
C1502 C1503 1.502 . S
C1502 C1504 1.561 . S
C1502 C1505 1.526 . S
C1503 H1487 0.959 . S
C1503 H1488 0.959 . S
C1503 H1489 0.961 . S
C1503 C1502 1.502 . S
C1504 H1490 0.960 . S
C1504 H1491 0.961 . S
C1504 H1492 0.959 . S
C1504 C1502 1.561 . S
C1505 C1502 1.526 . S
C1505 C1506 1.396 . S
C1505 C1510 1.390 . S
C1506 C1500 1.465 . S
C1506 C1505 1.396 . S
C1506 C1507 1.399 . S
C1507 H1493 0.929 . S
C1507 C1506 1.399 . S
C1507 C1508 1.385 . S
C1508 H1494 0.931 . S
C1508 C1507 1.385 . S
C1508 C1509 1.389 . S
C1509 C1508 1.389 . S
C1509 C1510 1.387 . S
C1510 H1495 0.930 . S
C1510 C1505 1.390 . S
C1510 C1509 1.387 . S
H1511 C1523 0.930 . S
H1512 C1525 0.930 . S
H1513 C1526 0.930 . S
H1514 C1530 0.959 . S
H1515 C1530 0.959 1_655 S
H1516 C1530 0.961 . S
H1517 C1531 0.960 1_455 S
H1518 C1531 0.961 . S
H1519 C1531 0.959 . S
H1520 C1534 0.929 . S
H1521 C1535 0.931 . S
H1522 C1537 0.930 . S
C1523 H1511 0.930 . S
C1523 C1524 1.399 . S
C1523 C1528 1.399 . S
C1524 C1523 1.399 . S
C1524 C1525 1.376 . S
C1525 H1512 0.930 . S
C1525 C1524 1.376 . S
C1525 C1526 1.388 . S
C1526 H1513 0.930 . S
C1526 C1525 1.388 . S
C1526 C1527 1.390 . S
C1527 C1526 1.390 . S
C1527 C1528 1.394 . S
C1527 C1533 1.465 1_455 S
C1528 C1523 1.399 . S
C1528 C1527 1.394 . S
C1528 C1529 1.513 1_455 S
C1529 C1528 1.513 1_655 S
C1529 C1530 1.500 1_655 S
C1529 C1531 1.563 . S
C1529 C1532 1.529 . S
C1530 H1514 0.959 . S
C1530 H1515 0.959 1_455 S
C1530 H1516 0.961 . S
C1530 C1529 1.500 1_455 S
C1531 H1517 0.960 1_655 S
C1531 H1518 0.961 . S
C1531 H1519 0.959 . S
C1531 C1529 1.563 . S
C1532 C1529 1.529 . S
C1532 C1533 1.396 . S
C1532 C1537 1.390 . S
C1533 C1527 1.465 1_655 S
C1533 C1532 1.396 . S
C1533 C1534 1.399 . S
C1534 H1520 0.929 . S
C1534 C1533 1.399 . S
C1534 C1535 1.385 . S
C1535 H1521 0.931 . S
C1535 C1534 1.385 . S
C1535 C1536 1.389 . S
C1536 C1535 1.389 . S
C1536 C1537 1.387 . S
C1537 H1522 0.930 . S
C1537 C1532 1.390 . S
C1537 C1536 1.387 . S
H1538 C1550 0.930 . S
H1539 C1552 0.930 . S
H1540 C1553 0.930 . S
H1541 C1557 0.959 . S
H1542 C1557 0.959 . S
H1543 C1557 0.961 1_565 S
H1544 C1558 0.960 . S
H1545 C1558 0.961 . S
H1546 C1558 0.959 1_455 S
H1547 C1561 0.929 . S
H1548 C1562 0.931 . S
H1549 C1564 0.930 . S
C1550 H1538 0.930 . S
C1550 C1551 1.399 1_655 S
C1550 C1555 1.399 . S
C1551 C1550 1.399 1_455 S
C1551 C1552 1.376 . S
C1552 H1539 0.930 . S
C1552 C1551 1.376 . S
C1552 C1553 1.388 . S
C1553 H1540 0.930 . S
C1553 C1552 1.388 . S
C1553 C1554 1.390 . S
C1554 C1553 1.390 . S
C1554 C1555 1.394 1_455 S
C1554 C1560 1.465 1_565 S
C1555 C1550 1.399 . S
C1555 C1554 1.394 1_655 S
C1555 C1556 1.516 1_565 S
C1556 C1555 1.516 1_545 S
C1556 C1557 1.502 . S
C1556 C1558 1.561 . S
C1556 C1559 1.526 . S
C1557 H1541 0.959 . S
C1557 H1542 0.959 . S
C1557 H1543 0.961 1_545 S
C1557 C1556 1.502 . S
C1558 H1544 0.960 . S
C1558 H1545 0.961 . S
C1558 H1546 0.959 1_655 S
C1558 C1556 1.561 . S
C1559 C1556 1.526 . S
C1559 C1560 1.396 1_655 S
C1559 C1564 1.390 . S
C1560 C1554 1.465 1_545 S
C1560 C1559 1.396 1_455 S
C1560 C1561 1.399 . S
C1561 H1547 0.929 . S
C1561 C1560 1.399 . S
C1561 C1562 1.385 . S
C1562 H1548 0.931 . S
C1562 C1561 1.385 . S
C1562 C1563 1.389 . S
C1563 C1562 1.389 . S
C1563 C1564 1.387 1_455 S
C1564 H1549 0.930 . S
C1564 C1559 1.390 . S
C1564 C1563 1.387 1_655 S
H1565 C1577 0.930 . S
H1566 C1579 0.930 . S
H1567 C1580 0.930 . S
H1568 C1584 0.959 . S
H1569 C1584 0.959 . S
H1570 C1584 0.961 . S
H1571 C1585 0.960 . S
H1572 C1585 0.961 . S
H1573 C1585 0.959 . S
H1574 C1588 0.929 . S
H1575 C1589 0.931 . S
H1576 C1591 0.930 . S
C1577 H1565 0.930 . S
C1577 C1578 1.399 1_565 S
C1577 C1582 1.399 . S
C1578 C1577 1.399 1_545 S
C1578 C1579 1.376 . S
C1579 H1566 0.930 . S
C1579 C1578 1.376 . S
C1579 C1580 1.388 . S
C1580 H1567 0.930 . S
C1580 C1579 1.388 . S
C1580 C1581 1.390 . S
C1581 C1580 1.390 . S
C1581 C1582 1.394 1_545 S
C1581 C1587 1.465 . S
C1582 C1577 1.399 . S
C1582 C1581 1.394 1_565 S
C1582 C1583 1.516 . S
C1583 C1582 1.516 . S
C1583 C1584 1.502 . S
C1583 C1585 1.561 . S
C1583 C1586 1.526 . S
C1584 H1568 0.959 . S
C1584 H1569 0.959 . S
C1584 H1570 0.961 . S
C1584 C1583 1.502 . S
C1585 H1571 0.960 . S
C1585 H1572 0.961 . S
C1585 H1573 0.959 . S
C1585 C1583 1.561 . S
C1586 C1583 1.526 . S
C1586 C1587 1.396 1_565 S
C1586 C1591 1.390 . S
C1587 C1581 1.465 . S
C1587 C1586 1.396 1_545 S
C1587 C1588 1.399 . S
C1588 H1574 0.929 . S
C1588 C1587 1.399 . S
C1588 C1589 1.385 . S
C1589 H1575 0.931 . S
C1589 C1588 1.385 . S
C1589 C1590 1.389 . S
C1590 C1589 1.389 . S
C1590 C1591 1.387 1_545 S
C1591 H1576 0.930 . S
C1591 C1586 1.390 . S
C1591 C1590 1.387 1_565 S
H1592 C1604 0.930 . S
H1593 C1606 0.930 . S
H1594 C1607 0.930 . S
H1595 C1611 0.959 . S
H1596 C1611 0.959 . S
H1597 C1611 0.961 . S
H1598 C1612 0.960 . S
H1599 C1612 0.961 . S
H1600 C1612 0.959 . S
H1601 C1615 0.929 . S
H1602 C1616 0.931 . S
H1603 C1618 0.930 . S
C1604 H1592 0.930 . S
C1604 C1605 1.399 . S
C1604 C1609 1.399 . S
C1605 C1604 1.399 . S
C1605 C1606 1.376 . S
C1606 H1593 0.930 . S
C1606 C1605 1.376 . S
C1606 C1607 1.388 . S
C1607 H1594 0.930 . S
C1607 C1606 1.388 . S
C1607 C1608 1.390 . S
C1608 C1607 1.390 . S
C1608 C1609 1.394 . S
C1608 C1614 1.465 . S
C1609 C1604 1.399 . S
C1609 C1608 1.394 . S
C1609 C1610 1.516 . S
C1610 C1609 1.516 . S
C1610 C1611 1.502 . S
C1610 C1612 1.561 . S
C1610 C1613 1.526 . S
C1611 H1595 0.959 . S
C1611 H1596 0.959 . S
C1611 H1597 0.961 . S
C1611 C1610 1.502 . S
C1612 H1598 0.960 . S
C1612 H1599 0.961 . S
C1612 H1600 0.959 . S
C1612 C1610 1.561 . S
C1613 C1610 1.526 . S
C1613 C1614 1.396 . S
C1613 C1618 1.390 . S
C1614 C1608 1.465 . S
C1614 C1613 1.396 . S
C1614 C1615 1.399 . S
C1615 H1601 0.929 . S
C1615 C1614 1.399 . S
C1615 C1616 1.385 . S
C1616 H1602 0.931 . S
C1616 C1615 1.385 . S
C1616 C1617 1.389 . S
C1617 C1616 1.389 . S
C1617 C1618 1.387 . S
C1618 H1603 0.930 . S
C1618 C1613 1.390 . S
C1618 C1617 1.387 . S
H1619 C1631 0.930 . S
H1620 C1633 0.930 . S
H1621 C1634 0.930 . S
H1622 C1638 0.959 . S
H1623 C1638 0.959 . S
H1624 C1638 0.961 . S
H1625 C1639 0.960 . S
H1626 C1639 0.961 . S
H1627 C1639 0.959 . S
H1628 C1642 0.929 . S
H1629 C1643 0.931 . S
H1630 C1645 0.930 . S
C1631 H1619 0.930 . S
C1631 C1632 1.399 . S
C1631 C1636 1.399 . S
C1632 C1631 1.399 . S
C1632 C1633 1.376 . S
C1633 H1620 0.930 . S
C1633 C1632 1.376 . S
C1633 C1634 1.388 . S
C1634 H1621 0.930 . S
C1634 C1633 1.388 . S
C1634 C1635 1.390 . S
C1635 C1634 1.390 . S
C1635 C1636 1.394 . S
C1635 C1641 1.465 . S
C1636 C1631 1.399 . S
C1636 C1635 1.394 . S
C1636 C1637 1.516 . S
C1637 C1636 1.516 . S
C1637 C1638 1.502 . S
C1637 C1639 1.561 . S
C1637 C1640 1.526 . S
C1638 H1622 0.959 . S
C1638 H1623 0.959 . S
C1638 H1624 0.961 . S
C1638 C1637 1.502 . S
C1639 H1625 0.960 . S
C1639 H1626 0.961 . S
C1639 H1627 0.959 . S
C1639 C1637 1.561 . S
C1640 C1637 1.526 . S
C1640 C1641 1.396 . S
C1640 C1645 1.390 . S
C1641 C1635 1.465 . S
C1641 C1640 1.396 . S
C1641 C1642 1.399 . S
C1642 H1628 0.929 . S
C1642 C1641 1.399 . S
C1642 C1643 1.385 . S
C1643 H1629 0.931 . S
C1643 C1642 1.385 . S
C1643 C1644 1.389 . S
C1644 C1643 1.389 . S
C1644 C1645 1.387 . S
C1645 H1630 0.930 . S
C1645 C1640 1.390 . S
C1645 C1644 1.387 . S
H1646 C1658 0.930 . S
H1647 C1660 0.930 1_455 S
H1648 C1661 0.930 1_455 S
H1649 C1665 0.959 . S
H1650 C1665 0.959 . S
H1651 C1665 0.961 . S
H1652 C1666 0.960 . S
H1653 C1666 0.961 . S
H1654 C1666 0.959 . S
H1655 C1669 0.929 1_455 S
H1656 C1670 0.931 . S
H1657 C1672 0.930 . S
C1658 H1646 0.930 . S
C1658 C1659 1.399 . S
C1658 C1663 1.399 . S
C1659 C1658 1.399 . S
C1659 C1660 1.376 . S
C1660 H1647 0.930 1_655 S
C1660 C1659 1.376 . S
C1660 C1661 1.388 . S
C1661 H1648 0.930 1_655 S
C1661 C1660 1.388 . S
C1661 C1662 1.390 . S
C1662 C1661 1.390 . S
C1662 C1663 1.394 . S
C1662 C1668 1.465 . S
C1663 C1658 1.399 . S
C1663 C1662 1.394 . S
C1663 C1664 1.516 . S
C1664 C1663 1.516 . S
C1664 C1665 1.502 . S
C1664 C1666 1.561 . S
C1664 C1667 1.526 . S
C1665 H1649 0.959 . S
C1665 H1650 0.959 . S
C1665 H1651 0.961 . S
C1665 C1664 1.502 . S
C1666 H1652 0.960 . S
C1666 H1653 0.961 . S
C1666 H1654 0.959 . S
C1666 C1664 1.561 . S
C1667 C1664 1.526 . S
C1667 C1668 1.396 . S
C1667 C1672 1.390 . S
C1668 C1662 1.465 . S
C1668 C1667 1.396 . S
C1668 C1669 1.399 . S
C1669 H1655 0.929 1_655 S
C1669 C1668 1.399 . S
C1669 C1670 1.385 . S
C1670 H1656 0.931 . S
C1670 C1669 1.385 . S
C1670 C1671 1.389 . S
C1671 C1670 1.389 . S
C1671 C1672 1.387 . S
C1672 H1657 0.930 . S
C1672 C1667 1.390 . S
C1672 C1671 1.387 . S
H1673 C1685 0.930 . S
H1674 C1687 0.930 1_545 S
H1675 C1688 0.930 . S
H1676 C1692 0.959 . S
H1677 C1692 0.959 . S
H1678 C1692 0.961 . S
H1679 C1693 0.960 . S
H1680 C1693 0.961 . S
H1681 C1693 0.959 . S
H1682 C1696 0.929 . S
H1683 C1697 0.930 . S
H1684 C1699 0.930 . S
C1685 H1673 0.930 . S
C1685 C1686 1.399 . S
C1685 C1690 1.399 . S
C1686 C1685 1.399 . S
C1686 C1687 1.376 . S
C1687 H1674 0.930 1_565 S
C1687 C1686 1.376 . S
C1687 C1688 1.388 1_565 S
C1688 H1675 0.930 . S
C1688 C1687 1.388 1_545 S
C1688 C1689 1.390 1_545 S
C1689 C1688 1.390 1_565 S
C1689 C1690 1.394 . S
C1689 C1695 1.465 . S
C1690 C1685 1.399 . S
C1690 C1689 1.394 . S
C1690 C1691 1.516 . S
C1691 C1690 1.516 . S
C1691 C1692 1.502 . S
C1691 C1693 1.561 . S
C1691 C1694 1.526 . S
C1692 H1676 0.959 . S
C1692 H1677 0.959 . S
C1692 H1678 0.961 . S
C1692 C1691 1.502 . S
C1693 H1679 0.960 . S
C1693 H1680 0.961 . S
C1693 H1681 0.959 . S
C1693 C1691 1.561 . S
C1694 C1691 1.526 . S
C1694 C1695 1.396 . S
C1694 C1699 1.390 . S
C1695 C1689 1.465 . S
C1695 C1694 1.396 . S
C1695 C1696 1.399 1_565 S
C1696 H1682 0.929 . S
C1696 C1695 1.399 1_545 S
C1696 C1697 1.385 . S
C1697 H1683 0.930 . S
C1697 C1696 1.385 . S
C1697 C1698 1.391 1_545 S
C1698 C1697 1.391 1_565 S
C1698 C1699 1.387 . S
C1699 H1684 0.930 . S
C1699 C1694 1.390 . S
C1699 C1698 1.387 . S
H1700 C1712 0.930 . S
H1701 C1714 0.930 . S
H1702 C1715 0.930 . S
H1703 C1719 0.959 . S
H1704 C1719 0.959 . S
H1705 C1719 0.961 . S
H1706 C1720 0.960 . S
H1707 C1720 0.961 . S
H1708 C1720 0.959 . S
H1709 C1723 0.929 . S
H1710 C1724 0.931 . S
H1711 C1726 0.930 . S
C1712 H1700 0.930 . S
C1712 C1713 1.399 . S
C1712 C1717 1.399 . S
C1713 C1712 1.399 . S
C1713 C1714 1.376 . S
C1714 H1701 0.930 . S
C1714 C1713 1.376 . S
C1714 C1715 1.388 . S
C1715 H1702 0.930 . S
C1715 C1714 1.388 . S
C1715 C1716 1.390 . S
C1716 C1715 1.390 . S
C1716 C1717 1.394 . S
C1716 C1722 1.465 . S
C1717 C1712 1.399 . S
C1717 C1716 1.394 . S
C1717 C1718 1.516 . S
C1718 C1717 1.516 . S
C1718 C1719 1.502 . S
C1718 C1720 1.561 . S
C1718 C1721 1.526 . S
C1719 H1703 0.959 . S
C1719 H1704 0.959 . S
C1719 H1705 0.961 . S
C1719 C1718 1.502 . S
C1720 H1706 0.960 . S
C1720 H1707 0.961 . S
C1720 H1708 0.959 . S
C1720 C1718 1.561 . S
C1721 C1718 1.526 . S
C1721 C1722 1.396 . S
C1721 C1726 1.390 . S
C1722 C1716 1.465 . S
C1722 C1721 1.396 . S
C1722 C1723 1.399 . S
C1723 H1709 0.929 . S
C1723 C1722 1.399 . S
C1723 C1724 1.385 . S
C1724 H1710 0.931 . S
C1724 C1723 1.385 . S
C1724 C1725 1.389 . S
C1725 C1724 1.389 . S
C1725 C1726 1.387 . S
C1726 H1711 0.930 . S
C1726 C1721 1.390 . S
C1726 C1725 1.387 . S
H1727 C1739 0.930 . S
H1728 C1741 0.930 . S
H1729 C1742 0.930 . S
H1730 C1746 0.959 . S
H1731 C1746 0.959 . S
H1732 C1746 0.961 . S
H1733 C1747 0.960 . S
H1734 C1747 0.961 . S
H1735 C1747 0.959 . S
H1736 C1750 0.929 . S
H1737 C1751 0.931 . S
H1738 C1753 0.930 . S
C1739 H1727 0.930 . S
C1739 C1740 1.399 . S
C1739 C1744 1.399 . S
C1740 C1739 1.399 . S
C1740 C1741 1.376 . S
C1741 H1728 0.930 . S
C1741 C1740 1.376 . S
C1741 C1742 1.388 . S
C1742 H1729 0.930 . S
C1742 C1741 1.388 . S
C1742 C1743 1.390 . S
C1743 C1742 1.390 . S
C1743 C1744 1.394 . S
C1743 C1749 1.465 . S
C1744 C1739 1.399 . S
C1744 C1743 1.394 . S
C1744 C1745 1.516 . S
C1745 C1744 1.516 . S
C1745 C1746 1.502 . S
C1745 C1747 1.561 . S
C1745 C1748 1.526 . S
C1746 H1730 0.959 . S
C1746 H1731 0.959 . S
C1746 H1732 0.961 . S
C1746 C1745 1.502 . S
C1747 H1733 0.960 . S
C1747 H1734 0.961 . S
C1747 H1735 0.959 . S
C1747 C1745 1.561 . S
C1748 C1745 1.526 . S
C1748 C1749 1.396 . S
C1748 C1753 1.390 . S
C1749 C1743 1.465 . S
C1749 C1748 1.396 . S
C1749 C1750 1.399 . S
C1750 H1736 0.929 . S
C1750 C1749 1.399 . S
C1750 C1751 1.385 . S
C1751 H1737 0.931 . S
C1751 C1750 1.385 . S
C1751 C1752 1.389 . S
C1752 C1751 1.389 . S
C1752 C1753 1.387 . S
C1753 H1738 0.930 . S
C1753 C1748 1.390 . S
C1753 C1752 1.387 . S
H1754 C1766 0.930 . S
H1755 C1768 0.930 . S
H1756 C1769 0.930 . S
H1757 C1773 0.959 . S
H1758 C1773 0.959 . S
H1759 C1773 0.961 . S
H1760 C1774 0.960 . S
H1761 C1774 0.961 . S
H1762 C1774 0.959 . S
H1763 C1777 0.929 . S
H1764 C1778 0.931 . S
H1765 C1780 0.930 . S
C1766 H1754 0.930 . S
C1766 C1767 1.399 . S
C1766 C1771 1.399 . S
C1767 C1766 1.399 . S
C1767 C1768 1.376 . S
C1768 H1755 0.930 . S
C1768 C1767 1.376 . S
C1768 C1769 1.388 . S
C1769 H1756 0.930 . S
C1769 C1768 1.388 . S
C1769 C1770 1.390 . S
C1770 C1769 1.390 . S
C1770 C1771 1.394 . S
C1770 C1776 1.465 . S
C1771 C1766 1.399 . S
C1771 C1770 1.394 . S
C1771 C1772 1.516 . S
C1772 C1771 1.516 . S
C1772 C1773 1.502 1_455 S
C1772 C1774 1.561 . S
C1772 C1775 1.526 . S
C1773 H1757 0.959 . S
C1773 H1758 0.959 . S
C1773 H1759 0.961 . S
C1773 C1772 1.502 1_655 S
C1774 H1760 0.960 . S
C1774 H1761 0.961 . S
C1774 H1762 0.959 . S
C1774 C1772 1.561 . S
C1775 C1772 1.526 . S
C1775 C1776 1.396 . S
C1775 C1780 1.390 . S
C1776 C1770 1.465 . S
C1776 C1775 1.396 . S
C1776 C1777 1.399 . S
C1777 H1763 0.929 . S
C1777 C1776 1.399 . S
C1777 C1778 1.385 . S
C1778 H1764 0.931 . S
C1778 C1777 1.385 . S
C1778 C1779 1.389 . S
C1779 C1778 1.389 . S
C1779 C1780 1.387 . S
C1780 H1765 0.930 . S
C1780 C1775 1.390 . S
C1780 C1779 1.387 . S
H1781 C1793 0.930 1_565 S
H1782 C1795 0.930 . S
H1783 C1796 0.930 . S
H1784 C1800 0.959 1_545 S
H1785 C1800 0.959 . S
H1786 C1800 0.961 . S
H1787 C1801 0.960 . S
H1788 C1801 0.961 . S
H1789 C1801 0.959 . S
H1790 C1804 0.929 . S
H1791 C1805 0.931 . S
H1792 C1807 0.930 1_565 S
C1793 H1781 0.930 1_545 S
C1793 C1794 1.399 . S
C1793 C1798 1.399 . S
C1794 C1793 1.399 . S
C1794 C1795 1.376 . S
C1795 H1782 0.930 . S
C1795 C1794 1.376 . S
C1795 C1796 1.388 . S
C1796 H1783 0.930 . S
C1796 C1795 1.388 . S
C1796 C1797 1.390 . S
C1797 C1796 1.390 . S
C1797 C1798 1.394 . S
C1797 C1803 1.465 . S
C1798 C1793 1.399 . S
C1798 C1797 1.394 . S
C1798 C1799 1.516 1_545 S
C1799 C1798 1.516 1_565 S
C1799 C1800 1.502 . S
C1799 C1801 1.561 . S
C1799 C1802 1.526 1_565 S
C1800 H1784 0.959 1_565 S
C1800 H1785 0.959 . S
C1800 H1786 0.961 . S
C1800 C1799 1.502 . S
C1801 H1787 0.960 . S
C1801 H1788 0.961 . S
C1801 H1789 0.959 . S
C1801 C1799 1.561 . S
C1802 C1799 1.526 1_545 S
C1802 C1803 1.396 . S
C1802 C1807 1.390 . S
C1803 C1797 1.465 . S
C1803 C1802 1.396 . S
C1803 C1804 1.399 . S
C1804 H1790 0.929 . S
C1804 C1803 1.399 . S
C1804 C1805 1.385 . S
C1805 H1791 0.931 . S
C1805 C1804 1.385 . S
C1805 C1806 1.389 . S
C1806 C1805 1.389 . S
C1806 C1807 1.387 . S
C1807 H1792 0.930 1_545 S
C1807 C1802 1.390 . S
C1807 C1806 1.387 . S
C957 C52 0.997 . S
C969 C564 0.967 . S
C984 C623 0.953 . S
C996 C111 1.000 . S
C1011 C682 0.953 . S
C1023 C170 1.000 . S
C1038 C505 0.962 . S
C1050 C229 1.001 . S
C1065 C288 0.972 . S
C1077 C918 0.985 . S
C1092 C741 0.953 . S
C1104 C347 0.994 . S
C1119 C800 0.983 . S
C1131 C406 0.941 . S
C1146 C859 0.995 . S
C1158 C465 0.937 . S
C1173 C524 0.953 . S
C1185 C92 0.985 . S
C1200 C583 1.000 . S
C1212 C151 0.955 . S
C1227 C642 0.935 . S
C1239 C210 0.995 . S
C1254 C33 0.959 . S
C1266 C701 0.994 . S
C1281 C760 1.003 . S
C1293 C446 0.953 . S
C1308 C819 0.947 . S
C1320 C269 0.988 . S
C1335 C328 0.979 . S
C1347 C878 0.962 . S
C1362 C937 0.939 . S
C1374 C387 0.993 . S
C1389 C477 1.813 . S
C1401 C5 1.772 . S
C1416 C64 1.821 . S
C1428 C536 1.748 . S
C1443 C595 1.753 . S
C1455 C123 1.809 1_455 S
C1470 C182 1.745 . S
C1482 C654 1.824 1_565 S
C1497 C713 1.747 . S
C1509 C241 1.827 . S
C1524 C300 1.826 . S
C1536 C772 1.747 . S
C1551 C831 1.745 . S
C1563 C359 1.825 1_455 S
C1578 C890 1.761 . S
C1590 C418 1.820 1_545 S
C1605 C239 1.711 . S
C1617 C3 1.672 . S
C1632 C298 1.672 . S
C1644 C62 1.649 . S
C1659 C121 1.710 . S
C1671 C357 1.674 . S
C1686 C416 1.671 . S
C1698 C180 1.710 . S
C1713 C475 1.666 . S
C1725 C711 1.704 . S
C1740 C770 1.711 . S
C1752 C534 1.683 . S
C1767 C829 1.682 . S
C1779 C593 1.648 . S
C1794 C888 1.646 . S
C1806 C652 1.681 . S
