# Generated by pormake.
# Topology sra, (4)-cn, num edge types: 1
# Building blocks:
#     Node 0, Type 0, BuildingBlock: ICAMEG_clean_sbu_1, # of connection points: 4
#     Node 1, Type 0, BuildingBlock: ICAMEG_clean_sbu_1, # of connection points: 4
#     Node 2, Type 0, BuildingBlock: ICAMEG_clean_sbu_1, # of connection points: 4
#     Node 3, Type 0, BuildingBlock: ICAMEG_clean_sbu_1, # of connection points: 4
#     Node 4, Type 0, BuildingBlock: ICAMEG_clean_sbu_1, # of connection points: 4
#     Node 5, Type 0, BuildingBlock: ICAMEG_clean_sbu_1, # of connection points: 4
#     Node 6, Type 0, BuildingBlock: ICAMEG_clean_sbu_1, # of connection points: 4
#     Node 7, Type 0, BuildingBlock: ICAMEG_clean_sbu_1, # of connection points: 4
#     Edge 8, Type (0, 0), BuildingBlock: MIFKUJ_clean_linker_0, # of connection points: 2
#     Edge 9, Type (0, 0), BuildingBlock: MIFKUJ_clean_linker_0, # of connection points: 2
#     Edge 10, Type (0, 0), BuildingBlock: MIFKUJ_clean_linker_0, # of connection points: 2
#     Edge 11, Type (0, 0), BuildingBlock: MIFKUJ_clean_linker_0, # of connection points: 2
#     Edge 12, Type (0, 0), BuildingBlock: MIFKUJ_clean_linker_0, # of connection points: 2
#     Edge 13, Type (0, 0), BuildingBlock: MIFKUJ_clean_linker_0, # of connection points: 2
#     Edge 14, Type (0, 0), BuildingBlock: MIFKUJ_clean_linker_0, # of connection points: 2
#     Edge 15, Type (0, 0), BuildingBlock: MIFKUJ_clean_linker_0, # of connection points: 2
#     Edge 16, Type (0, 0), BuildingBlock: MIFKUJ_clean_linker_0, # of connection points: 2
#     Edge 17, Type (0, 0), BuildingBlock: MIFKUJ_clean_linker_0, # of connection points: 2
#     Edge 18, Type (0, 0), BuildingBlock: MIFKUJ_clean_linker_0, # of connection points: 2
#     Edge 19, Type (0, 0), BuildingBlock: MIFKUJ_clean_linker_0, # of connection points: 2
#     Edge 20, Type (0, 0), BuildingBlock: MIFKUJ_clean_linker_0, # of connection points: 2
#     Edge 21, Type (0, 0), BuildingBlock: MIFKUJ_clean_linker_0, # of connection points: 2
#     Edge 22, Type (0, 0), BuildingBlock: MIFKUJ_clean_linker_0, # of connection points: 2
#     Edge 23, Type (0, 0), BuildingBlock: MIFKUJ_clean_linker_0, # of connection points: 2
# Relax obj value: 0.019
# Max RMSD: 0.062
# Mean RMSD: 0.062
data_MOF--net-sra--node1-ICAMEG_clean_sbu_1--edge1-MIFKUJ_clean_linker_0
_symmetry_space_group_name_H-M    P1
_symmetry_Int_Tables_number       1
_symmetry_cell_setting            triclinic
loop_
_symmetry_equiv_pos_as_xyz
'x, y, z'
_cell_length_a     38.564285
_cell_length_b     72.291235
_cell_length_c     39.634436
_cell_angle_alpha  89.978782
_cell_angle_beta   89.950432
_cell_angle_gamma 90.02063
loop_
_atom_site_label
_atom_site_type_symbol
_atom_site_fract_x
_atom_site_fract_y
_atom_site_fract_z
_atom_type_partial_charge
Co0 Co 0.02364 0.11729 0.20916 0.0
Co1 Co 0.99941 0.12289 0.12565 0.0
O2 O 0.02809 0.11163 0.16098 0.0
C3 C 0.09803 0.12467 0.19542 0.0
O4 O 0.0891 0.13242 0.16676 0.0
C5 C 0.98897 0.08246 0.11435 0.0
O6 O 0.98372 0.08055 0.14691 0.0
O7 O 0.9557 0.11766 0.15133 0.0
O8 O 0.97233 0.11716 0.20556 0.0
H9 H 0.90582 0.16453 0.08099 0.0
H10 H 0.06667 0.08568 0.18684 0.0
O11 O 0.07516 0.11756 0.2146 0.0
H12 H 0.97653 0.05852 0.25999 0.0
H13 H 0.05407 0.11112 0.33223 0.0
H14 H 0.9791 0.14245 0.24926 0.0
H15 H 0.97873 0.09219 0.25025 0.0
H16 H 0.05921 0.10403 0.27155 0.0
O17 O 0.99537 0.09839 0.10206 0.0
H18 H 0.94209 0.15016 0.12502 0.0
H19 H 0.99608 0.11915 0.05068 0.0
H20 H 0.97283 0.14979 0.30971 0.0
H21 H 0.06561 0.05193 0.19607 0.0
H22 H 0.01052 0.13408 0.35167 0.0
H23 H 0.02023 0.03814 0.2328 0.0
O24 O 0.02454 0.14445 0.20019 0.0
H25 H 0.11591 0.10693 0.07689 0.0
H26 H 0.02804 0.15592 0.08985 0.0
H27 H 0.08235 0.16273 0.05941 0.0
H28 H 0.12674 0.13811 0.05273 0.0
H29 H 0.06139 0.10081 0.1075 0.0
H30 H 0.96012 0.13301 0.00588 0.0
H31 H 0.91472 0.15595 0.02092 0.0
O32 O 0.00332 0.14771 0.14773 0.0
C33 C 0.94903 0.11668 0.18285 0.0
C34 C 0.92557 0.15458 0.07411 0.0
C35 C 0.95601 0.13687 0.03196 0.0
N36 N 0.97131 0.13392 0.09041 0.0
C37 C 0.94625 0.14644 0.09892 0.0
C38 C 0.97622 0.12902 0.05744 0.0
C39 C 0.93056 0.14975 0.04041 0.0
C40 C 0.04702 0.07979 0.20307 0.0
N41 N 0.02283 0.09089 0.21804 0.0
C42 C 0.04648 0.06066 0.20811 0.0
C43 C 0.02098 0.05294 0.22869 0.0
C44 C 0.99644 0.06436 0.24393 0.0
C45 C 0.99774 0.08342 0.23824 0.0
C46 C 0.03747 0.11803 0.3142 0.0
C47 C 0.99545 0.13547 0.26738 0.0
C48 C 0.04032 0.11412 0.2798 0.0
N49 N 0.01932 0.12274 0.25691 0.0
C50 C 0.99185 0.13973 0.30157 0.0
C51 C 0.01302 0.13092 0.32509 0.0
C52 C 0.01443 0.15442 0.1755 0.0
C53 C 0.09677 0.11777 0.07962 0.0
C54 C 0.04733 0.1452 0.0873 0.0
C55 C 0.07797 0.1491 0.06989 0.0
C56 C 0.10285 0.13527 0.06611 0.0
N57 N 0.04157 0.12802 0.10055 0.0
C58 C 0.06579 0.11437 0.09683 0.0
Co59 Co 0.02326 0.39057 0.20872 0.0
Co60 Co 0.04758 0.38509 0.12518 0.0
O61 O 0.01863 0.39618 0.16052 0.0
C62 C 0.94906 0.38265 0.19541 0.0
O63 O 0.9581 0.37478 0.16688 0.0
C64 C 0.05633 0.42562 0.11384 0.0
O65 O 0.06042 0.42762 0.14652 0.0
O66 O 0.09106 0.39071 0.15074 0.0
O67 O 0.07459 0.39088 0.20505 0.0
H68 H 0.1429 0.34451 0.08067 0.0
H69 H 0.97961 0.42202 0.18677 0.0
O70 O 0.97179 0.39009 0.21427 0.0
H71 H 0.06981 0.44949 0.25926 0.0
H72 H 0.99266 0.39667 0.33178 0.0
H73 H 0.06788 0.36545 0.24879 0.0
H74 H 0.0681 0.41583 0.24943 0.0
H75 H 0.98768 0.40381 0.27112 0.0
O76 O 0.05108 0.4096 0.10144 0.0
H77 H 0.10587 0.35842 0.12464 0.0
H78 H 0.05066 0.38868 0.05017 0.0
H79 H 0.07393 0.35801 0.30923 0.0
H80 H 0.98014 0.45575 0.19615 0.0
H81 H 0.03613 0.37367 0.35119 0.0
H82 H 0.02557 0.4697 0.23254 0.0
O83 O 0.02271 0.36344 0.19973 0.0
H84 H 0.93065 0.40004 0.07652 0.0
H85 H 0.01984 0.35176 0.08975 0.0
H86 H 0.96571 0.34446 0.05948 0.0
H87 H 0.92066 0.36873 0.05266 0.0
H88 H 0.98502 0.40665 0.10696 0.0
H89 H 0.08727 0.37522 0.00542 0.0
H90 H 0.1337 0.35291 0.02056 0.0
O91 O 0.04433 0.36024 0.14739 0.0
C92 C 0.0978 0.39162 0.18223 0.0
C93 C 0.12269 0.35417 0.07374 0.0
C94 C 0.0915 0.37143 0.03151 0.0
N95 N 0.076 0.37425 0.08996 0.0
C96 C 0.10158 0.36205 0.09852 0.0
C97 C 0.07091 0.37905 0.05697 0.0
C98 C 0.11753 0.35891 0.04003 0.0
C99 C 0.99926 0.42798 0.20287 0.0
N100 N 0.02374 0.41696 0.21759 0.0
C101 C 0.99952 0.44709 0.20799 0.0
C102 C 0.02504 0.45491 0.22837 0.0
C103 C 0.04989 0.44358 0.24335 0.0
C104 C 0.04886 0.42453 0.23761 0.0
C105 C 0.00932 0.38978 0.31375 0.0
C106 C 0.05148 0.37241 0.26692 0.0
C107 C 0.00657 0.39374 0.27936 0.0
N108 N 0.02763 0.38515 0.25646 0.0
C109 C 0.05496 0.3681 0.3011 0.0
C110 C 0.03372 0.37687 0.32462 0.0
C111 C 0.03316 0.3535 0.17514 0.0
C112 C 0.95009 0.38936 0.0793 0.0
C113 C 1.00027 0.36233 0.08711 0.0
C114 C 0.96973 0.35815 0.06981 0.0
C115 C 0.94448 0.37178 0.06596 0.0
N116 N 0.00557 0.37959 0.10018 0.0
C117 C 0.98098 0.39304 0.09641 0.0
Co118 Co 0.02084 0.89059 0.79195 0.0
Co119 Co 0.99547 0.88531 0.87522 0.0
O120 O 0.02529 0.89609 0.84018 0.0
C121 C 0.09445 0.8816 0.80578 0.0
O122 O 0.08459 0.87359 0.83393 0.0
C123 C 0.98922 0.92592 0.887 0.0
O124 O 0.98612 0.92816 0.85427 0.0
O125 O 0.95251 0.89173 0.84945 0.0
O126 O 0.9695 0.8914 0.79529 0.0
H127 H 0.89768 0.84608 0.91886 0.0
H128 H 0.06579 0.92151 0.8139 0.0
O129 O 0.07237 0.88953 0.78684 0.0
H130 H 0.9767 0.95003 0.74144 0.0
H131 H 0.05259 0.89653 0.66914 0.0
H132 H 0.97555 0.866 0.75147 0.0
H133 H 0.97694 0.91635 0.75138 0.0
H134 H 0.05744 0.9035 0.72987 0.0
O135 O 0.99316 0.90976 0.89926 0.0
H136 H 0.93561 0.85961 0.87517 0.0
H137 H 0.99233 0.8886 0.95023 0.0
H138 H 0.9696 0.85875 0.69095 0.0
H139 H 0.06672 0.95525 0.8044 0.0
H140 H 0.00832 0.87407 0.64931 0.0
H141 H 0.02186 0.96971 0.76803 0.0
O142 O 0.02021 0.86347 0.80084 0.0
H143 H 0.11309 0.89808 0.92442 0.0
H144 H 0.02121 0.85133 0.91005 0.0
H145 H 0.07496 0.84293 0.93998 0.0
H146 H 0.12136 0.86642 0.94739 0.0
H147 H 0.05909 0.90579 0.89421 0.0
H148 H 0.95484 0.87552 0.99469 0.0
H149 H 0.9072 0.85403 0.97911 0.0
O150 O 0.99735 0.8605 0.85271 0.0
C151 C 0.94611 0.89254 0.81787 0.0
C152 C 0.91841 0.85538 0.92597 0.0
C153 C 0.95046 0.87193 0.96853 0.0
N154 N 0.96627 0.87478 0.91016 0.0
C155 C 0.94002 0.86305 0.90136 0.0
C156 C 0.97155 0.87933 0.94324 0.0
C157 C 0.92375 0.85987 0.95977 0.0
C158 C 0.04639 0.9277 0.79779 0.0
N159 N 0.02143 0.91698 0.78312 0.0
C160 C 0.04696 0.94681 0.79261 0.0
C161 C 0.02175 0.95492 0.77224 0.0
C162 C 0.99639 0.94388 0.75734 0.0
C163 C 0.9966 0.92483 0.76313 0.0
C164 C 0.03553 0.8898 0.68702 0.0
C165 C 0.99236 0.8728 0.73348 0.0
C166 C 0.0382 0.89366 0.72145 0.0
N167 N 0.01663 0.88526 0.74416 0.0
C168 C 0.98893 0.86861 0.69926 0.0
C169 C 0.01068 0.87719 0.67592 0.0
C170 C 0.00863 0.85365 0.82511 0.0
C171 C 0.09304 0.88773 0.9214 0.0
C172 C 0.04135 0.86157 0.91295 0.0
C173 C 0.07168 0.85677 0.93006 0.0
C174 C 0.09769 0.86996 0.93424 0.0
N175 N 0.03702 0.87902 0.90033 0.0
C176 C 0.06235 0.89204 0.90443 0.0
Co177 Co 0.02494 0.61793 0.7942 0.0
Co178 Co 0.05143 0.62353 0.87686 0.0
O179 O 0.02146 0.61252 0.84244 0.0
C180 C 0.95147 0.62778 0.80705 0.0
O181 O 0.96208 0.63851 0.8317 0.0
C182 C 0.05983 0.58304 0.88844 0.0
O183 O 0.06419 0.58105 0.85578 0.0
O184 O 0.09415 0.61745 0.85038 0.0
O185 O 0.07643 0.61783 0.79645 0.0
H186 H 0.14867 0.66356 0.91901 0.0
H187 H 0.98191 0.58643 0.81742 0.0
O188 O 0.97316 0.61812 0.79043 0.0
H189 H 0.07115 0.55895 0.74371 0.0
H190 H 0.99061 0.61115 0.67228 0.0
H191 H 0.06812 0.64298 0.75235 0.0
H192 H 0.06929 0.59266 0.75309 0.0
H193 H 0.98752 0.60434 0.7332 0.0
O194 O 0.05456 0.59906 0.90081 0.0
H195 H 0.11048 0.64976 0.87591 0.0
H196 H 0.05591 0.62013 0.95178 0.0
H197 H 0.07226 0.65011 0.69162 0.0
H198 H 0.98266 0.55266 0.80852 0.0
H199 H 0.03331 0.63413 0.65112 0.0
H200 H 0.0276 0.53871 0.77151 0.0
O201 O 0.02485 0.6451 0.80283 0.0
H202 H 0.93479 0.6099 0.92768 0.0
H203 H 0.02555 0.65722 0.91249 0.0
H204 H 0.97222 0.66514 0.94365 0.0
H205 H 0.92639 0.64136 0.95147 0.0
H206 H 0.9884 0.60265 0.89638 0.0
H207 H 0.0937 0.63348 0.99567 0.0
H208 H 0.14038 0.65543 0.97938 0.0
O209 O 0.04851 0.6483 0.85432 0.0
C210 C 0.10017 0.61687 0.8187 0.0
C211 C 0.12836 0.65405 0.92643 0.0
C212 C 0.09754 0.63715 0.96945 0.0
N213 N 0.08087 0.63425 0.91135 0.0
C214 C 0.1066 0.64624 0.90216 0.0
C215 C 0.07628 0.6296 0.94448 0.0
C216 C 0.12371 0.64947 0.9603 0.0
C217 C 1.00133 0.58047 0.80102 0.0
N218 N 0.02542 0.59151 0.78568 0.0
C219 C 0.00171 0.56134 0.79618 0.0
C220 C 0.02697 0.55352 0.77546 0.0
C221 C 0.05143 0.56487 0.75987 0.0
C222 C 0.05028 0.58394 0.76533 0.0
C223 C 0.00777 0.61817 0.68967 0.0
C224 C 0.05123 0.63589 0.73486 0.0
C225 C 0.0061 0.61439 0.72419 0.0
N226 N 0.02783 0.62314 0.74627 0.0
C227 C 0.05363 0.64002 0.70051 0.0
C228 C 0.03174 0.63106 0.67781 0.0
C229 C 0.03655 0.65503 0.82689 0.0
C230 C 0.95458 0.62037 0.92447 0.0
C231 C 0.00565 0.64685 0.91558 0.0
C232 C 0.97556 0.65138 0.93337 0.0
C233 C 0.94987 0.63803 0.93778 0.0
N234 N 0.01009 0.6295 0.9026 0.0
C235 C 0.98503 0.61633 0.90685 0.0
Co236 Co 0.52407 0.61779 0.71038 0.0
Co237 Co 0.49491 0.62247 0.628 0.0
O238 O 0.52691 0.61235 0.66192 0.0
C239 C 0.59681 0.62836 0.69369 0.0
O240 O 0.58581 0.63605 0.66566 0.0
C241 C 0.49342 0.58154 0.61703 0.0
O242 O 0.49803 0.57915 0.64951 0.0
O243 O 0.45358 0.61586 0.65591 0.0
O244 O 0.47267 0.61561 0.70936 0.0
H245 H 0.39379 0.66054 0.58866 0.0
H246 H 0.57146 0.58814 0.68731 0.0
O247 O 0.57566 0.62017 0.71333 0.0
H248 H 0.48786 0.5573 0.76292 0.0
H249 H 0.56164 0.61284 0.83173 0.0
H250 H 0.4785 0.64126 0.75274 0.0
H251 H 0.48418 0.59087 0.75252 0.0
H252 H 0.56439 0.60588 0.77088 0.0
O253 O 0.4916 0.59777 0.60461 0.0
H254 H 0.43444 0.64769 0.63057 0.0
H255 H 0.48779 0.61854 0.55332 0.0
H256 H 0.47463 0.64849 0.81344 0.0
H257 H 0.5764 0.55456 0.69737 0.0
H258 H 0.51642 0.63424 0.85339 0.0
H259 H 0.53428 0.53892 0.73528 0.0
O260 O 0.52064 0.64485 0.70149 0.0
H261 H 0.61006 0.61026 0.57302 0.0
H262 H 0.51775 0.65638 0.59108 0.0
H263 H 0.56939 0.6649 0.5578 0.0
H264 H 0.61599 0.64174 0.54853 0.0
H265 H 0.55812 0.6024 0.60644 0.0
H266 H 0.44756 0.63097 0.51061 0.0
H267 H 0.40022 0.65219 0.52819 0.0
O268 O 0.49725 0.64745 0.6498 0.0
C269 C 0.44847 0.61449 0.68762 0.0
C270 C 0.41438 0.65136 0.58067 0.0
C271 C 0.44453 0.63474 0.53687 0.0
N272 N 0.4636 0.63249 0.59437 0.0
C273 C 0.43753 0.64408 0.60427 0.0
C274 C 0.46718 0.62771 0.56118 0.0
C275 C 0.41798 0.64665 0.54675 0.0
C276 C 0.55329 0.58146 0.70414 0.0
N277 N 0.52758 0.59146 0.71931 0.0
C278 C 0.5561 0.56243 0.70961 0.0
C279 C 0.53242 0.55366 0.73084 0.0
C280 C 0.50634 0.56396 0.74631 0.0
C281 C 0.50429 0.58296 0.74021 0.0
C282 C 0.54325 0.61912 0.81459 0.0
C283 C 0.49665 0.63492 0.77 0.0
C284 C 0.54473 0.61526 0.78009 0.0
N285 N 0.52149 0.62307 0.75831 0.0
C286 C 0.49439 0.6391 0.80433 0.0
C287 C 0.51787 0.63112 0.82672 0.0
C288 C 0.50841 0.65448 0.67728 0.0
C289 C 0.5899 0.62046 0.57682 0.0
C290 C 0.53798 0.64626 0.58731 0.0
C291 C 0.56712 0.65114 0.56834 0.0
C292 C 0.59324 0.63813 0.56313 0.0
N293 N 0.53489 0.6289 0.60064 0.0
C294 C 0.56037 0.61607 0.59561 0.0
Co295 Co 0.52295 0.89062 0.70859 0.0
Co296 Co 0.55186 0.88361 0.62715 0.0
O297 O 0.52072 0.89528 0.65999 0.0
C298 C 0.4492 0.88292 0.69295 0.0
O299 O 0.45935 0.87405 0.66579 0.0
C300 C 0.55927 0.92378 0.61281 0.0
O301 O 0.56282 0.92629 0.64543 0.0
O302 O 0.59362 0.89082 0.65382 0.0
O303 O 0.57457 0.89009 0.7073 0.0
H304 H 0.65158 0.84371 0.59036 0.0
H305 H 0.48192 0.92223 0.68302 0.0
O306 O 0.47123 0.89094 0.71184 0.0
H307 H 0.57071 0.94979 0.75705 0.0
H308 H 0.48717 0.89963 0.8297 0.0
H309 H 0.5642 0.8656 0.75214 0.0
H310 H 0.56742 0.91599 0.74949 0.0
H311 H 0.48531 0.9056 0.76845 0.0
O312 O 0.55472 0.90751 0.60119 0.0
H313 H 0.61207 0.85824 0.63152 0.0
H314 H 0.5576 0.88493 0.55216 0.0
H315 H 0.56714 0.85932 0.81325 0.0
H316 H 0.48404 0.95613 0.69011 0.0
H317 H 0.52842 0.8764 0.85248 0.0
H318 H 0.52878 0.97011 0.72725 0.0
O319 O 0.52127 0.86342 0.70099 0.0
H320 H 0.43652 0.89441 0.57165 0.0
H321 H 0.52738 0.84833 0.59607 0.0
H322 H 0.47495 0.83879 0.56508 0.0
H323 H 0.42908 0.86191 0.55261 0.0
H324 H 0.48916 0.90331 0.60303 0.0
H325 H 0.59668 0.8708 0.51014 0.0
H326 H 0.644 0.84996 0.52917 0.0
O327 O 0.54953 0.85941 0.65192 0.0
C328 C 0.59885 0.89131 0.6856 0.0
C329 C 0.631 0.85271 0.58174 0.0
C330 C 0.60021 0.86794 0.53672 0.0
N331 N 0.58242 0.8723 0.59422 0.0
C332 C 0.6085 0.86094 0.60492 0.0
C333 C 0.57821 0.87593 0.56063 0.0
C334 C 0.62675 0.85624 0.54742 0.0
C335 C 0.50123 0.92822 0.69949 0.0
N336 N 0.52446 0.91714 0.71588 0.0
C337 C 0.5024 0.94742 0.7033 0.0
C338 C 0.52754 0.95526 0.7241 0.0
C339 C 0.55109 0.94386 0.74081 0.0
C340 C 0.54917 0.92473 0.73635 0.0
C341 C 0.50421 0.89212 0.81287 0.0
C342 C 0.54741 0.87316 0.76908 0.0
C343 C 0.50323 0.89541 0.77816 0.0
N344 N 0.5248 0.88604 0.75677 0.0
C345 C 0.54913 0.86951 0.80364 0.0
C346 C 0.52737 0.87909 0.82563 0.0
C347 C 0.53504 0.85312 0.67855 0.0
C348 C 0.45637 0.88422 0.57684 0.0
C349 C 0.5075 0.85848 0.59085 0.0
C350 C 0.4779 0.85299 0.5732 0.0
C351 C 0.45219 0.86598 0.56621 0.0
N352 N 0.51139 0.87639 0.60124 0.0
C353 C 0.48631 0.8892 0.59444 0.0
Co354 Co 0.52171 0.39017 0.29371 0.0
Co355 Co 0.49034 0.38546 0.37485 0.0
O356 O 0.52282 0.39618 0.34195 0.0
C357 C 0.59537 0.38313 0.31106 0.0
O358 O 0.58505 0.3748 0.33874 0.0
C359 C 0.48716 0.42612 0.38704 0.0
O360 O 0.48911 0.42862 0.35432 0.0
O361 O 0.44972 0.39255 0.34657 0.0
O362 O 0.47005 0.38941 0.29389 0.0
H363 H 0.38842 0.34698 0.41116 0.0
H364 H 0.56268 0.42259 0.31589 0.0
O365 O 0.57344 0.39064 0.2914 0.0
H366 H 0.47432 0.44763 0.23849 0.0
H367 H 0.55981 0.39591 0.17257 0.0
H368 H 0.48199 0.3636 0.2519 0.0
H369 H 0.47722 0.41417 0.25014 0.0
H370 H 0.56022 0.40368 0.23315 0.0
O371 O 0.48712 0.40982 0.39931 0.0
H372 H 0.42962 0.36045 0.37033 0.0
H373 H 0.48215 0.38833 0.44956 0.0
H374 H 0.48051 0.3555 0.19147 0.0
H375 H 0.56103 0.45614 0.30457 0.0
H376 H 0.51963 0.37171 0.15135 0.0
H377 H 0.51649 0.46887 0.26575 0.0
O378 O 0.52358 0.36329 0.30403 0.0
H379 H 0.6042 0.39649 0.43299 0.0
H380 H 0.51238 0.35076 0.4097 0.0
H381 H 0.56301 0.34163 0.44377 0.0
H382 H 0.60939 0.36456 0.45561 0.0
H383 H 0.55317 0.40504 0.39889 0.0
H384 H 0.44135 0.37529 0.49122 0.0
H385 H 0.39416 0.35438 0.4721 0.0
O386 O 0.49276 0.36071 0.35192 0.0
C387 C 0.44527 0.39172 0.31472 0.0
C388 C 0.40894 0.35602 0.41982 0.0
C389 C 0.43862 0.37193 0.46474 0.0
N390 N 0.45841 0.37504 0.40758 0.0
C391 C 0.43239 0.36365 0.39683 0.0
C392 C 0.46159 0.37931 0.44103 0.0
C393 C 0.41216 0.3602 0.454 0.0
C394 C 0.54349 0.42801 0.29866 0.0
N395 N 0.5201 0.41643 0.28369 0.0
C396 C 0.54257 0.44702 0.29248 0.0
C397 C 0.51753 0.45416 0.27074 0.0
C398 C 0.49384 0.44226 0.25547 0.0
C399 C 0.49551 0.42332 0.26228 0.0
C400 C 0.54259 0.38877 0.18979 0.0
C401 C 0.49896 0.37078 0.23456 0.0
C402 C 0.54275 0.39309 0.22413 0.0
N403 N 0.52097 0.38419 0.246 0.0
C404 C 0.49806 0.36611 0.20039 0.0
C405 C 0.52004 0.37519 0.1779 0.0
C406 C 0.50858 0.35365 0.32669 0.0
C407 C 0.58413 0.38639 0.42807 0.0
C408 C 0.53247 0.36083 0.41467 0.0
C409 C 0.56106 0.35557 0.43403 0.0
C410 C 0.58705 0.36846 0.4407 0.0
N411 N 0.52974 0.37846 0.40245 0.0
C412 C 0.55511 0.39117 0.40889 0.0
Co413 Co 0.52636 0.11858 0.29532 0.0
Co414 Co 0.55518 0.12202 0.37715 0.0
O415 O 0.52444 0.11135 0.34288 0.0
C416 C 0.45179 0.12328 0.3112 0.0
O417 O 0.46087 0.13157 0.33931 0.0
C418 C 0.56297 0.08138 0.38777 0.0
O419 O 0.56765 0.0796 0.3551 0.0
O420 O 0.59698 0.11581 0.34965 0.0
O421 O 0.57787 0.1208 0.29702 0.0
H422 H 0.65466 0.16069 0.41861 0.0
H423 H 0.48914 0.08436 0.31464 0.0
O424 O 0.47478 0.11662 0.29163 0.0
H425 H 0.5815 0.06416 0.23679 0.0
H426 H 0.49211 0.11508 0.17288 0.0
H427 H 0.56432 0.14737 0.25692 0.0
H428 H 0.57406 0.09719 0.25047 0.0
H429 H 0.49109 0.10556 0.23265 0.0
O430 O 0.55792 0.09734 0.40047 0.0
H431 H 0.61531 0.14756 0.37581 0.0
H432 H 0.56064 0.11817 0.45191 0.0
H433 H 0.56626 0.15729 0.1974 0.0
H434 H 0.49536 0.05118 0.3013 0.0
H435 H 0.52999 0.14109 0.15491 0.0
H436 H 0.54191 0.04089 0.26223 0.0
O437 O 0.52149 0.14507 0.30779 0.0
H438 H 0.4398 0.10895 0.43113 0.0
H439 H 0.53053 0.15598 0.41273 0.0
H440 H 0.47825 0.16413 0.44534 0.0
H441 H 0.43246 0.14052 0.45478 0.0
H442 H 0.49235 0.10143 0.39837 0.0
H443 H 0.59957 0.13086 0.4955 0.0
H444 H 0.6469 0.15235 0.47895 0.0
O445 O 0.55283 0.14712 0.35535 0.0
C446 C 0.60223 0.11794 0.31808 0.0
C447 C 0.63407 0.15139 0.42615 0.0
C448 C 0.60317 0.13462 0.4693 0.0
N449 N 0.58556 0.13223 0.41139 0.0
C450 C 0.61165 0.14395 0.40204 0.0
C451 C 0.58126 0.12745 0.4445 0.0
C452 C 0.62972 0.14669 0.45999 0.0
C453 C 0.50922 0.07999 0.29734 0.0
N454 N 0.53114 0.09269 0.2833 0.0
C455 C 0.51271 0.06119 0.28999 0.0
C456 C 0.53887 0.05542 0.2681 0.0
C457 C 0.5611 0.06847 0.25383 0.0
C458 C 0.55683 0.08715 0.26177 0.0
C459 C 0.5081 0.12222 0.19114 0.0
C460 C 0.5486 0.14019 0.23855 0.0
C461 C 0.50759 0.11691 0.22503 0.0
N462 N 0.52781 0.12582 0.2482 0.0
C463 C 0.54975 0.1459 0.20489 0.0
C464 C 0.52936 0.13681 0.18107 0.0
C465 C 0.53634 0.15447 0.33082 0.0
C466 C 0.45962 0.11934 0.42727 0.0
C467 C 0.51068 0.14564 0.41662 0.0
C468 C 0.48117 0.15033 0.43518 0.0
C469 C 0.45549 0.13706 0.44049 0.0
N470 N 0.51456 0.12821 0.40377 0.0
C471 C 0.4895 0.11514 0.40886 0.0
H472 H 0.02227 0.33283 0.23251 0.0
H473 H 0.01844 0.29904 0.23707 0.0
H474 H 0.03572 0.29405 0.13002 0.0
H475 H 0.04059 0.32757 0.12526 0.0
H476 H 0.97651 0.27326 0.15751 0.0
H477 H 0.09928 0.28439 0.17569 0.0
H478 H 0.14868 0.29893 0.20491 0.0
H479 H 0.11598 0.27459 0.29853 0.0
H480 H 0.06605 0.26011 0.2699 0.0
H481 H 0.00913 0.18021 0.12528 0.0
H482 H 0.01217 0.21363 0.12995 0.0
H483 H 0.02433 0.20902 0.23783 0.0
H484 H 0.02319 0.17521 0.23309 0.0
H485 H 0.06485 0.23516 0.21622 0.0
H486 H 0.9453 0.22198 0.19967 0.0
H487 H 0.89438 0.2076 0.17271 0.0
H488 H 0.91709 0.23618 0.08029 0.0
H489 H 0.96846 0.25052 0.10654 0.0
C490 C 0.02534 0.32455 0.20993 0.0
C491 C 0.0315 0.33301 0.17845 0.0
C492 C 0.02318 0.30525 0.21261 0.0
C493 C 0.02666 0.29408 0.18385 0.0
C494 C 0.03276 0.30244 0.15249 0.0
C495 C 0.03556 0.32166 0.14986 0.0
C496 C 0.02386 0.27364 0.18612 0.0
C497 C 0.9959 0.26488 0.17013 0.0
C498 C 0.04852 0.26282 0.20362 0.0
C499 C 0.07871 0.27135 0.22074 0.0
C500 C 0.10244 0.28227 0.20256 0.0
C501 C 0.13058 0.29048 0.219 0.0
C502 C 0.1354 0.28774 0.25358 0.0
C503 C 0.11217 0.27673 0.27176 0.0
C504 C 0.08397 0.26851 0.25544 0.0
C505 C 0.01262 0.18619 0.15005 0.0
C506 C 0.0159 0.1749 0.1788 0.0
C507 C 0.01405 0.20542 0.15273 0.0
C508 C 0.01768 0.21399 0.18434 0.0
C509 C 0.02136 0.20279 0.21314 0.0
C510 C 0.0206 0.18345 0.2104 0.0
C511 C 0.01774 0.23459 0.18694 0.0
C512 C 0.04513 0.24344 0.2039 0.0
C513 C 0.99216 0.24556 0.17077 0.0
C514 C 0.96088 0.23724 0.15504 0.0
C515 C 0.93953 0.22513 0.17355 0.0
C516 C 0.91059 0.21699 0.15839 0.0
C517 C 0.90254 0.22095 0.12479 0.0
C518 C 0.92336 0.23312 0.10632 0.0
C519 C 0.95237 0.24128 0.12134 0.0
H520 H 0.88015 0.21461 0.11308 0.0
H521 H 0.15719 0.29411 0.26627 0.0
H522 H 0.99796 0.8277 0.87445 0.0
H523 H 0.00304 0.79417 0.8698 0.0
H524 H 0.02437 0.79925 0.76348 0.0
H525 H 0.0204 0.83304 0.76793 0.0
H526 H 0.97138 0.7694 0.78865 0.0
H527 H 0.08929 0.79228 0.80114 0.0
H528 H 0.13354 0.81152 0.82916 0.0
H529 H 0.11495 0.78317 0.92267 0.0
H530 H 0.07014 0.76398 0.89531 0.0
H531 H 0.02356 0.67559 0.76991 0.0
H532 H 0.01983 0.70925 0.7652 0.0
H533 H 0.04119 0.71443 0.87165 0.0
H534 H 0.04686 0.68103 0.87613 0.0
H535 H 0.07383 0.73992 0.84196 0.0
H536 H 0.95672 0.71824 0.83512 0.0
H537 H 0.90818 0.69971 0.81281 0.0
H538 H 0.91948 0.72584 0.7161 0.0
H539 H 0.96848 0.74432 0.73771 0.0
C540 C 0.00375 0.8218 0.85001 0.0
C541 C 0.00928 0.83318 0.82167 0.0
C542 C 0.00648 0.80259 0.84742 0.0
C543 C 0.01418 0.79429 0.81635 0.0
C544 C 0.01838 0.80545 0.78768 0.0
C545 C 0.01627 0.82474 0.79034 0.0
C546 C 0.0196 0.77402 0.81453 0.0
C547 C 0.99403 0.76289 0.79971 0.0
C548 C 0.04859 0.76562 0.82998 0.0
C549 C 0.07617 0.77681 0.84624 0.0
C550 C 0.09447 0.79024 0.82773 0.0
C551 C 0.11967 0.80113 0.84348 0.0
C552 C 0.127 0.7986 0.8777 0.0
C553 C 0.10923 0.78513 0.89618 0.0
C554 C 0.08395 0.77423 0.88055 0.0
C555 C 0.02757 0.6839 0.79231 0.0
C556 C 0.03511 0.6755 0.8235 0.0
C557 C 0.02522 0.70318 0.78962 0.0
C558 C 0.02951 0.71448 0.81821 0.0
C559 C 0.03767 0.70611 0.84918 0.0
C560 C 0.04069 0.6869 0.85175 0.0
C561 C 0.02543 0.73498 0.81618 0.0
C562 C 0.05126 0.74626 0.83045 0.0
C563 C 0.9962 0.74347 0.8009 0.0
C564 C 0.96653 0.73251 0.78792 0.0
C565 C 0.94901 0.71994 0.80903 0.0
C566 C 0.9214 0.70945 0.79652 0.0
C567 C 0.91082 0.71156 0.76303 0.0
C568 C 0.92775 0.7242 0.74202 0.0
C569 C 0.95544 0.73468 0.75438 0.0
H570 H 0.88944 0.70342 0.75339 0.0
H571 H 0.14649 0.80705 0.88987 0.0
H572 H 0.49495 0.68032 0.62834 0.0
H573 H 0.49813 0.71387 0.63301 0.0
H574 H 0.52168 0.70893 0.73901 0.0
H575 H 0.52008 0.67522 0.73424 0.0
H576 H 0.46454 0.73958 0.66664 0.0
H577 H 0.57397 0.74407 0.76302 0.0
H578 H 0.62046 0.7243 0.78593 0.0
H579 H 0.62981 0.69674 0.69038 0.0
H580 H 0.58373 0.71657 0.66676 0.0
H581 H 0.49128 0.83327 0.71939 0.0
H582 H 0.48588 0.79955 0.72331 0.0
H583 H 0.56922 0.79315 0.65172 0.0
H584 H 0.57452 0.82677 0.64721 0.0
H585 H 0.57263 0.76856 0.70935 0.0
H586 H 0.4929 0.7897 0.6232 0.0
H587 H 0.44483 0.80907 0.60242 0.0
H588 H 0.37654 0.78507 0.67606 0.0
H589 H 0.42445 0.76588 0.69779 0.0
C590 C 0.50092 0.68629 0.65268 0.0
C591 C 0.50792 0.67497 0.68077 0.0
C592 C 0.5025 0.70556 0.65536 0.0
C593 C 0.51077 0.71401 0.68621 0.0
C594 C 0.51609 0.70278 0.71471 0.0
C595 C 0.51507 0.68347 0.71195 0.0
C596 C 0.51507 0.73449 0.68795 0.0
C597 C 0.48814 0.74587 0.67612 0.0
C598 C 0.54586 0.74283 0.70025 0.0
C599 C 0.57521 0.73169 0.71326 0.0
C600 C 0.58621 0.73393 0.74681 0.0
C601 C 0.61241 0.72268 0.75994 0.0
C602 C 0.62792 0.7092 0.73969 0.0
C603 C 0.61767 0.70714 0.70608 0.0
C604 C 0.59155 0.7184 0.69279 0.0
C605 C 0.50871 0.82469 0.70472 0.0
C606 C 0.53325 0.83274 0.68288 0.0
C607 C 0.50553 0.80544 0.70697 0.0
C608 C 0.52711 0.79387 0.68775 0.0
C609 C 0.5524 0.80183 0.66683 0.0
C610 C 0.55525 0.82106 0.66417 0.0
C611 C 0.52218 0.7735 0.68799 0.0
C612 C 0.54898 0.7622 0.70012 0.0
C613 C 0.49134 0.76524 0.6759 0.0
C614 C 0.46236 0.7765 0.66237 0.0
C615 C 0.46771 0.78867 0.63516 0.0
C616 C 0.44049 0.79962 0.6232 0.0
C617 C 0.40767 0.79836 0.63799 0.0
C618 C 0.40199 0.78609 0.66469 0.0
C619 C 0.42917 0.77517 0.67684 0.0
H620 H 0.38664 0.80686 0.62869 0.0
H621 H 0.64783 0.70035 0.75011 0.0
H622 H 0.4683 0.32815 0.35948 0.0
H623 H 0.47335 0.29451 0.35786 0.0
H624 H 0.55907 0.29907 0.28829 0.0
H625 H 0.55325 0.33275 0.28873 0.0
H626 H 0.52192 0.27116 0.27051 0.0
H627 H 0.57124 0.2907 0.3746 0.0
H628 H 0.57336 0.30734 0.42883 0.0
H629 H 0.48631 0.27595 0.46483 0.0
H630 H 0.48345 0.25923 0.41062 0.0
H631 H 0.5768 0.17969 0.36407 0.0
H632 H 0.57359 0.21338 0.36127 0.0
H633 H 0.48691 0.20937 0.29285 0.0
H634 H 0.49096 0.17568 0.2944 0.0
H635 H 0.52908 0.23729 0.37918 0.0
H636 H 0.48341 0.24571 0.24014 0.0
H637 H 0.48973 0.22951 0.1857 0.0
H638 H 0.58568 0.20564 0.21914 0.0
H639 H 0.58023 0.22193 0.27355 0.0
C640 C 0.48812 0.32201 0.34366 0.0
C641 C 0.51051 0.33318 0.32439 0.0
C642 C 0.4911 0.30274 0.34288 0.0
C643 C 0.51707 0.29419 0.32349 0.0
C644 C 0.53886 0.30529 0.30352 0.0
C645 C 0.53554 0.32457 0.30386 0.0
C646 C 0.52197 0.27373 0.32466 0.0
C647 C 0.52347 0.26377 0.29427 0.0
C648 C 0.52501 0.26404 0.3556 0.0
C649 C 0.52695 0.27383 0.38845 0.0
C650 C 0.55244 0.28741 0.39403 0.0
C651 C 0.55377 0.29686 0.42476 0.0
C652 C 0.5299 0.29276 0.45022 0.0
C653 C 0.50475 0.27913 0.44506 0.0
C654 C 0.5033 0.26964 0.41435 0.0
C655 C 0.55716 0.18597 0.34826 0.0
C656 C 0.53432 0.17495 0.32923 0.0
C657 C 0.55527 0.20528 0.34677 0.0
C658 C 0.5303 0.21404 0.3265 0.0
C659 C 0.50699 0.20304 0.30803 0.0
C660 C 0.50924 0.18373 0.30905 0.0
C661 C 0.52845 0.23464 0.32501 0.0
C662 C 0.52753 0.24465 0.35537 0.0
C663 C 0.52728 0.24442 0.29401 0.0
C664 C 0.5312 0.23491 0.26105 0.0
C665 C 0.50595 0.23709 0.2358 0.0
C666 C 0.50937 0.22788 0.20496 0.0
C667 C 0.53803 0.21651 0.19901 0.0
C668 C 0.56343 0.21441 0.22382 0.0
C669 C 0.56019 0.22362 0.25467 0.0
H670 H 0.54058 0.20935 0.17515 0.0
H671 H 0.53095 0.30012 0.47398 0.0
H672 H 0.39355 0.12904 0.34967 0.0
H673 H 0.33302 0.12925 0.33034 0.0
H674 H 0.36696 0.11758 0.22889 0.0
H675 H 0.42711 0.11703 0.24789 0.0
H676 H 0.31802 0.1477 0.23527 0.0
H677 H 0.33452 0.08397 0.26948 0.0
H678 H 0.35027 0.0594 0.30982 0.0
H679 H 0.27138 0.07825 0.37815 0.0
H680 H 0.2555 0.10313 0.3384 0.0
H681 H 0.15687 0.12747 0.15686 0.0
H682 H 0.21708 0.12707 0.17657 0.0
H683 H 0.18128 0.1227 0.27953 0.0
H684 H 0.12149 0.12213 0.25985 0.0
H685 H 0.23201 0.10108 0.27321 0.0
H686 H 0.2143 0.16441 0.24244 0.0
H687 H 0.19826 0.19044 0.20539 0.0
H688 H 0.27806 0.17491 0.13531 0.0
H689 H 0.29429 0.14862 0.17175 0.0
C690 C 0.38805 0.12645 0.32329 0.0
C691 C 0.41509 0.12294 0.30036 0.0
C692 C 0.35353 0.12657 0.31231 0.0
C693 C 0.34564 0.12344 0.27819 0.0
C694 C 0.37257 0.12006 0.25528 0.0
C695 C 0.40691 0.11964 0.26628 0.0
C696 C 0.3093 0.12366 0.26615 0.0
C697 C 0.29919 0.13743 0.24325 0.0
C698 C 0.2847 0.11055 0.27734 0.0
C699 C 0.29408 0.09553 0.30113 0.0
C700 C 0.32074 0.08298 0.29324 0.0
C701 C 0.32965 0.06898 0.31597 0.0
C702 C 0.3119 0.0673 0.34657 0.0
C703 C 0.28514 0.07959 0.35446 0.0
C704 C 0.27616 0.09363 0.33183 0.0
C705 C 0.16196 0.12644 0.18367 0.0
C706 C 0.13452 0.12482 0.20679 0.0
C707 C 0.19636 0.12632 0.19497 0.0
C708 C 0.20387 0.12514 0.22967 0.0
C709 C 0.17633 0.12357 0.25267 0.0
C710 C 0.14209 0.12328 0.24137 0.0
C711 C 0.24029 0.12524 0.2422 0.0
C712 C 0.25057 0.11147 0.2652 0.0
C713 C 0.26489 0.13861 0.23158 0.0
C714 C 0.25527 0.15444 0.20966 0.0
C715 C 0.22826 0.16647 0.21901 0.0
C716 C 0.21916 0.18128 0.19814 0.0
C717 C 0.23707 0.1843 0.16797 0.0
C718 C 0.26418 0.17254 0.15866 0.0
C719 C 0.27336 0.15769 0.17942 0.0
H720 H 0.22998 0.19577 0.15184 0.0
H721 H 0.31883 0.05644 0.36413 0.0
H722 H 0.65279 0.37712 0.35055 0.0
H723 H 0.71368 0.37637 0.33201 0.0
H724 H 0.68147 0.38685 0.22964 0.0
H725 H 0.62109 0.38797 0.24783 0.0
H726 H 0.73082 0.35674 0.23841 0.0
H727 H 0.71186 0.421 0.26858 0.0
H728 H 0.6949 0.44605 0.30744 0.0
H729 H 0.77354 0.42896 0.37746 0.0
H730 H 0.79062 0.40362 0.33919 0.0
H731 H 0.89004 0.37847 0.15762 0.0
H732 H 0.83003 0.3781 0.17802 0.0
H733 H 0.86655 0.38437 0.28034 0.0
H734 H 0.92607 0.38567 0.25996 0.0
H735 H 0.81455 0.40514 0.27349 0.0
H736 H 0.83567 0.34174 0.24583 0.0
H737 H 0.85301 0.31541 0.21003 0.0
H738 H 0.77182 0.32848 0.13989 0.0
H739 H 0.75429 0.35504 0.17506 0.0
C740 C 0.65877 0.37928 0.32413 0.0
C741 C 0.6322 0.38271 0.3007 0.0
C742 C 0.69346 0.37886 0.31361 0.0
C743 C 0.70192 0.38155 0.27946 0.0
C744 C 0.67541 0.38471 0.25605 0.0
C745 C 0.64094 0.38546 0.26659 0.0
C746 C 0.73841 0.38138 0.2679 0.0
C747 C 0.74917 0.36736 0.24582 0.0
C748 C 0.76237 0.395 0.27833 0.0
C749 C 0.75224 0.41029 0.30122 0.0
C750 C 0.72532 0.42248 0.29241 0.0
C751 C 0.71572 0.43675 0.31429 0.0
C752 C 0.73305 0.43906 0.34495 0.0
C753 C 0.76009 0.42714 0.35373 0.0
C754 C 0.76975 0.41282 0.33195 0.0
C755 C 0.88515 0.37976 0.18443 0.0
C756 C 0.9127 0.38212 0.20716 0.0
C757 C 0.85088 0.37943 0.19614 0.0
C758 C 0.84365 0.38092 0.23086 0.0
C759 C 0.8713 0.38325 0.25347 0.0
C760 C 0.90538 0.38396 0.24176 0.0
C761 C 0.8074 0.3804 0.2438 0.0
C762 C 0.79651 0.39435 0.26614 0.0
C763 C 0.7835 0.36649 0.23407 0.0
C764 C 0.79389 0.35049 0.21292 0.0
C765 C 0.82167 0.33907 0.22265 0.0
C766 C 0.83151 0.3241 0.20249 0.0
C767 C 0.81358 0.32031 0.17266 0.0
C768 C 0.78571 0.33145 0.16298 0.0
C769 C 0.77579 0.34646 0.18303 0.0
H770 H 0.82124 0.30871 0.15709 0.0
H771 H 0.7256 0.45013 0.36186 0.0
H772 H 0.15244 0.87619 0.84456 0.0
H773 H 0.21307 0.87569 0.8253 0.0
H774 H 0.17924 0.88418 0.72281 0.0
H775 H 0.11897 0.88512 0.74178 0.0
H776 H 0.23139 0.85481 0.73346 0.0
H777 H 0.20741 0.91931 0.75792 0.0
H778 H 0.1881 0.94489 0.79452 0.0
H779 H 0.26724 0.93132 0.86653 0.0
H780 H 0.28667 0.90545 0.83056 0.0
H781 H 0.39153 0.87694 0.65395 0.0
H782 H 0.33094 0.87629 0.67269 0.0
H783 H 0.36403 0.88624 0.77516 0.0
H784 H 0.42402 0.88787 0.75632 0.0
H785 H 0.31118 0.90576 0.7651 0.0
H786 H 0.33711 0.84208 0.74303 0.0
H787 H 0.35644 0.81519 0.70969 0.0
H788 H 0.27514 0.82493 0.6379 0.0
H789 H 0.25566 0.85206 0.67053 0.0
C790 C 0.15799 0.87791 0.81794 0.0
C791 C 0.13103 0.88082 0.79471 0.0
C792 C 0.19254 0.87762 0.807 0.0
C793 C 0.20048 0.8799 0.77265 0.0
C794 C 0.17356 0.88236 0.74939 0.0
C795 C 0.13919 0.88301 0.76034 0.0
C796 C 0.23691 0.88031 0.7609 0.0
C797 C 0.24889 0.86599 0.74008 0.0
C798 C 0.25972 0.89469 0.77026 0.0
C799 C 0.24823 0.91032 0.79175 0.0
C800 C 0.22048 0.92167 0.78171 0.0
C801 C 0.20956 0.93624 0.8023 0.0
C802 C 0.22637 0.93969 0.83288 0.0
C803 C 0.25421 0.92861 0.84287 0.0
C804 C 0.2652 0.91399 0.82238 0.0
C805 C 0.38575 0.87903 0.68043 0.0
C806 C 0.41247 0.8825 0.70362 0.0
C807 C 0.35115 0.87853 0.6912 0.0
C808 C 0.3428 0.88093 0.72551 0.0
C809 C 0.36962 0.88441 0.74857 0.0
C810 C 0.40399 0.88532 0.73774 0.0
C811 C 0.30624 0.88012 0.7376 0.0
C812 C 0.29402 0.89444 0.75848 0.0
C813 C 0.28342 0.86552 0.72875 0.0
C814 C 0.29513 0.84921 0.70906 0.0
C815 C 0.32352 0.83857 0.71999 0.0
C816 C 0.33449 0.82328 0.70123 0.0
C817 C 0.31705 0.81837 0.67167 0.0
C818 C 0.28863 0.82876 0.66079 0.0
C819 C 0.27761 0.84409 0.67941 0.0
H820 H 0.32546 0.80649 0.65722 0.0
H821 H 0.21788 0.95099 0.84879 0.0
H822 H 0.62333 0.62363 0.75652 0.0
H823 H 0.68364 0.62486 0.77405 0.0
H824 H 0.71474 0.63629 0.67149 0.0
H825 H 0.65371 0.63575 0.65389 0.0
H826 H 0.73474 0.60381 0.75917 0.0
H827 H 0.7931 0.65833 0.67146 0.0
H828 H 0.77636 0.68615 0.63928 0.0
H829 H 0.69602 0.69769 0.71113 0.0
H830 H 0.71214 0.6699 0.7438 0.0
H831 H 0.91929 0.60336 0.76496 0.0
H832 H 0.85946 0.60427 0.74483 0.0
H833 H 0.84061 0.65325 0.80413 0.0
H834 H 0.90059 0.65244 0.82458 0.0
H835 H 0.81574 0.65575 0.73709 0.0
H836 H 0.81024 0.61398 0.83198 0.0
H837 H 0.82811 0.58677 0.86523 0.0
H838 H 0.80229 0.55111 0.78235 0.0
H839 H 0.78472 0.57815 0.74842 0.0
C840 C 0.64292 0.62648 0.73761 0.0
C841 C 0.63372 0.62953 0.70375 0.0
C842 C 0.67749 0.62717 0.74771 0.0
C843 C 0.7039 0.63074 0.72422 0.0
C844 C 0.69486 0.63383 0.69027 0.0
C845 C 0.66 0.63343 0.68018 0.0
C846 C 0.74069 0.63054 0.7356 0.0
C847 C 0.75236 0.61521 0.75424 0.0
C848 C 0.76396 0.64531 0.7292 0.0
C849 C 0.75364 0.66195 0.70985 0.0
C850 C 0.77182 0.6668 0.68038 0.0
C851 C 0.76238 0.68253 0.66205 0.0
C852 C 0.73496 0.69361 0.67309 0.0
C853 C 0.71698 0.68898 0.70252 0.0
C854 C 0.72621 0.67322 0.72091 0.0
C855 C 0.90241 0.61429 0.77389 0.0
C856 C 0.91465 0.62779 0.79652 0.0
C857 C 0.86823 0.61478 0.76233 0.0
C858 C 0.84563 0.6288 0.77302 0.0
C859 C 0.85772 0.64233 0.79554 0.0
C860 C 0.89188 0.64176 0.8074 0.0
C861 C 0.80928 0.6292 0.76089 0.0
C862 C 0.79793 0.64443 0.74194 0.0
C863 C 0.7862 0.61439 0.7671 0.0
C864 C 0.79648 0.5981 0.78756 0.0
C865 C 0.80863 0.60035 0.82075 0.0
C866 C 0.81866 0.58495 0.83974 0.0
C867 C 0.81642 0.56722 0.82588 0.0
C868 C 0.80405 0.56485 0.79304 0.0
C869 C 0.79402 0.58021 0.77393 0.0
H870 H 0.8242 0.55532 0.84061 0.0
H871 H 0.72773 0.70581 0.65892 0.0
H872 H 0.61922 0.89507 0.75125 0.0
H873 H 0.67783 0.89675 0.77344 0.0
H874 H 0.71917 0.89281 0.67258 0.0
H875 H 0.66014 0.89102 0.64981 0.0
H876 H 0.7521 0.86954 0.71681 0.0
H877 H 0.72055 0.93347 0.71322 0.0
H878 H 0.68336 0.96057 0.7239 0.0
H879 H 0.69305 0.95211 0.83071 0.0
H880 H 0.72987 0.92476 0.82067 0.0
H881 H 0.92359 0.89431 0.75271 0.0
H882 H 0.86439 0.89533 0.73219 0.0
H883 H 0.82619 0.89574 0.83444 0.0
H884 H 0.88603 0.89472 0.85567 0.0
H885 H 0.79151 0.92091 0.79054 0.0
H886 H 0.82298 0.85688 0.79386 0.0
H887 H 0.86054 0.82995 0.78291 0.0
H888 H 0.85107 0.83882 0.67619 0.0
H889 H 0.81387 0.866 0.68651 0.0
C890 C 0.64062 0.8947 0.73356 0.0
C891 C 0.63481 0.89302 0.6986 0.0
C892 C 0.67421 0.89571 0.7464 0.0
C893 C 0.70287 0.89511 0.72467 0.0
C894 C 0.69735 0.89337 0.68978 0.0
C895 C 0.66361 0.89242 0.67681 0.0
C896 C 0.73851 0.89581 0.73873 0.0
C897 C 0.76089 0.88091 0.7325 0.0
C898 C 0.7496 0.9104 0.76001 0.0
C899 C 0.72771 0.92695 0.76617 0.0
C900 C 0.71453 0.93729 0.73899 0.0
C901 C 0.69354 0.95272 0.74493 0.0
C902 C 0.68577 0.95803 0.77796 0.0
C903 C 0.69905 0.94796 0.80513 0.0
C904 C 0.72001 0.9325 0.79933 0.0
C905 C 0.90281 0.89472 0.77109 0.0
C906 C 0.90975 0.89432 0.80599 0.0
C907 C 0.86888 0.89527 0.75918 0.0
C908 C 0.84093 0.89538 0.78175 0.0
C909 C 0.8475 0.89561 0.81661 0.0
C910 C 0.88167 0.89499 0.82868 0.0
C911 C 0.80502 0.89469 0.76848 0.0
C912 C 0.78263 0.90956 0.77487 0.0
C913 C 0.79388 0.88008 0.74731 0.0
C914 C 0.81588 0.86358 0.74098 0.0
C915 C 0.82911 0.85317 0.76806 0.0
C916 C 0.85031 0.83785 0.76197 0.0
C917 C 0.85826 0.8327 0.72888 0.0
C918 C 0.84492 0.84284 0.70181 0.0
C919 C 0.82375 0.8582 0.70777 0.0
H920 H 0.87468 0.82084 0.72421 0.0
H921 H 0.66951 0.96997 0.78251 0.0
H922 H 0.38735 0.61564 0.6519 0.0
H923 H 0.32831 0.61441 0.67459 0.0
H924 H 0.36915 0.6075 0.77506 0.0
H925 H 0.42796 0.60856 0.75283 0.0
H926 H 0.31344 0.58529 0.76482 0.0
H927 H 0.34285 0.64923 0.74921 0.0
H928 H 0.36317 0.67638 0.71711 0.0
H929 H 0.27813 0.67033 0.64811 0.0
H930 H 0.2576 0.64294 0.67953 0.0
H931 H 0.16017 0.61247 0.85575 0.0
H932 H 0.21975 0.6107 0.83415 0.0
H933 H 0.18168 0.61623 0.73238 0.0
H934 H 0.12259 0.61799 0.75338 0.0
H935 H 0.23644 0.63911 0.74437 0.0
H936 H 0.20708 0.57504 0.76056 0.0
H937 H 0.18718 0.54793 0.79301 0.0
H938 H 0.27229 0.55451 0.86176 0.0
H939 H 0.29242 0.58186 0.82998 0.0
C940 C 0.3838 0.61365 0.67877 0.0
C941 C 0.41253 0.61228 0.70049 0.0
C942 C 0.35002 0.61303 0.69172 0.0
C943 C 0.34435 0.61107 0.72659 0.0
C944 C 0.37289 0.60902 0.7481 0.0
C945 C 0.40658 0.60969 0.73526 0.0
C946 C 0.3088 0.61195 0.74094 0.0
C947 C 0.29673 0.59714 0.76066 0.0
C948 C 0.28686 0.62733 0.73522 0.0
C949 C 0.29889 0.64392 0.71652 0.0
C950 C 0.32862 0.65361 0.72705 0.0
C951 C 0.34016 0.66904 0.70899 0.0
C952 C 0.32201 0.67504 0.68053 0.0
C953 C 0.2922 0.66564 0.67013 0.0
C954 C 0.28059 0.65017 0.68806 0.0
C955 C 0.16448 0.61324 0.82878 0.0
C956 C 0.13645 0.61535 0.80639 0.0
C957 C 0.19853 0.61219 0.81647 0.0
C958 C 0.2051 0.61328 0.78162 0.0
C959 C 0.17723 0.61542 0.75934 0.0
C960 C 0.14335 0.61635 0.7715 0.0
C961 C 0.24096 0.61239 0.76805 0.0
C962 C 0.25314 0.62725 0.74854 0.0
C963 C 0.26298 0.59709 0.77407 0.0
C964 C 0.25103 0.58061 0.79312 0.0
C965 C 0.22139 0.5708 0.78277 0.0
C966 C 0.21009 0.55538 0.80101 0.0
C967 C 0.2284 0.54953 0.82949 0.0
C968 C 0.2581 0.55908 0.83973 0.0
C969 C 0.26947 0.57453 0.8216 0.0
H970 H 0.21962 0.53758 0.84357 0.0
H971 H 0.33099 0.68699 0.66658 0.0
H972 H 0.62246 0.12172 0.25239 0.0
H973 H 0.68077 0.12079 0.22935 0.0
H974 H 0.72236 0.11193 0.32901 0.0
H975 H 0.66356 0.11299 0.35271 0.0
H976 H 0.75923 0.13799 0.29291 0.0
H977 H 0.71644 0.07647 0.27464 0.0
H978 H 0.67394 0.05338 0.25505 0.0
H979 H 0.68573 0.07276 0.15327 0.0
H980 H 0.72788 0.09621 0.17234 0.0
H981 H 0.92635 0.11112 0.24726 0.0
H982 H 0.86725 0.1105 0.26798 0.0
H983 H 0.82895 0.11892 0.16696 0.0
H984 H 0.88876 0.1192 0.14546 0.0
H985 H 0.78995 0.09333 0.20255 0.0
H986 H 0.83221 0.15475 0.22012 0.0
H987 H 0.87434 0.17819 0.23912 0.0
H988 H 0.86305 0.15943 0.34135 0.0
H989 H 0.82121 0.13568 0.32288 0.0
C990 C 0.64383 0.11949 0.26962 0.0
C991 C 0.63813 0.11727 0.30452 0.0
C992 C 0.67725 0.11893 0.25626 0.0
C993 C 0.70588 0.11603 0.27735 0.0
C994 C 0.70055 0.11409 0.31226 0.0
C995 C 0.66694 0.11464 0.32575 0.0
C996 C 0.74129 0.11517 0.2627 0.0
C997 C 0.76611 0.12804 0.27353 0.0
C998 C 0.7499 0.10257 0.23663 0.0
C999 C 0.72511 0.08821 0.22498 0.0
C1000 C 0.70982 0.07589 0.24811 0.0
C1001 C 0.68579 0.06273 0.2371 0.0
C1002 C 0.67708 0.06163 0.20295 0.0
C1003 C 0.69248 0.07365 0.17972 0.0
C1004 C 0.71646 0.08687 0.19062 0.0
C1005 C 0.90557 0.11269 0.22915 0.0
C1006 C 0.91251 0.11529 0.19457 0.0
C1007 C 0.87165 0.11241 0.2412 0.0
C1008 C 0.8437 0.11499 0.21915 0.0
C1009 C 0.85022 0.11699 0.18444 0.0
C1010 C 0.88439 0.11718 0.17221 0.0
C1011 C 0.80793 0.11606 0.23293 0.0
C1012 C 0.78305 0.10327 0.22191 0.0
C1013 C 0.79917 0.1288 0.25874 0.0
C1014 C 0.82376 0.14334 0.27007 0.0
C1015 C 0.83885 0.15555 0.24663 0.0
C1016 C 0.86267 0.1689 0.2573 0.0
C1017 C 0.87142 0.17027 0.29141 0.0
C1018 C 0.85626 0.15834 0.31493 0.0
C1019 C 0.83245 0.14495 0.30438 0.0
H1020 H 0.88991 0.1806 0.29962 0.0
H1021 H 0.65844 0.05145 0.19448 0.0
H1022 H 0.15766 0.39052 0.14412 0.0
H1023 H 0.2176 0.39205 0.16469 0.0
H1024 H 0.18024 0.39785 0.26673 0.0
H1025 H 0.12085 0.39641 0.24674 0.0
H1026 H 0.23315 0.42134 0.25465 0.0
H1027 H 0.20825 0.35671 0.2391 0.0
H1028 H 0.18962 0.32924 0.20699 0.0
H1029 H 0.27283 0.33759 0.13654 0.0
H1030 H 0.29168 0.36528 0.16802 0.0
H1031 H 0.38357 0.39607 0.34889 0.0
H1032 H 0.32513 0.39732 0.32478 0.0
H1033 H 0.368 0.39149 0.22481 0.0
H1034 H 0.42612 0.39007 0.24841 0.0
H1035 H 0.31316 0.36884 0.23379 0.0
H1036 H 0.33955 0.43303 0.25225 0.0
H1037 H 0.35762 0.46009 0.28578 0.0
H1038 H 0.27098 0.45213 0.35235 0.0
H1039 H 0.25267 0.42485 0.31948 0.0
C1040 C 0.16222 0.39226 0.17089 0.0
C1041 C 0.13431 0.39333 0.19369 0.0
C1042 C 0.19647 0.39307 0.18262 0.0
C1043 C 0.20335 0.39497 0.2173 0.0
C1044 C 0.17557 0.39646 0.23989 0.0
C1045 C 0.14151 0.39557 0.2283 0.0
C1046 C 0.23935 0.39484 0.23052 0.0
C1047 C 0.25058 0.4098 0.2503 0.0
C1048 C 0.26221 0.3799 0.22449 0.0
C1049 C 0.25113 0.36318 0.20569 0.0
C1050 C 0.22241 0.35277 0.21661 0.0
C1051 C 0.21184 0.33715 0.19856 0.0
C1052 C 0.22996 0.33171 0.16968 0.0
C1053 C 0.25878 0.34184 0.15887 0.0
C1054 C 0.26943 0.35749 0.17683 0.0
C1055 C 0.38059 0.39515 0.32177 0.0
C1056 C 0.40967 0.39304 0.30067 0.0
C1057 C 0.34717 0.39589 0.30802 0.0
C1058 C 0.34224 0.39462 0.27295 0.0
C1059 C 0.37117 0.39248 0.25191 0.0
C1060 C 0.40447 0.39175 0.26555 0.0
C1061 C 0.30697 0.39532 0.25801 0.0
C1062 C 0.29585 0.38044 0.23796 0.0
C1063 C 0.28415 0.41029 0.26396 0.0
C1064 C 0.29493 0.42679 0.28358 0.0
C1065 C 0.32449 0.43697 0.27418 0.0
C1066 C 0.33476 0.45236 0.29305 0.0
C1067 C 0.31551 0.4578 0.32123 0.0
C1068 C 0.28589 0.44789 0.33054 0.0
C1069 C 0.27554 0.43247 0.31178 0.0
H1070 H 0.3235 0.46972 0.33581 0.0
H1071 H 0.22173 0.31961 0.15572 0.0
H1072 H 0.97821 0.04594 0.13083 0.0
H1073 H 0.97708 0.0193 0.09262 0.0
H1074 H 0.99663 0.0554 0.00805 0.0
H1075 H 0.99735 0.08203 0.04583 0.0
H1076 H 0.94723 0.03067 0.99279 0.0
H1077 H 0.06114 0.02873 0.04254 0.0
H1078 H 0.1028 0.02788 0.08969 0.0
H1079 H 0.05847 0.9768 0.12444 0.0
H1080 H 0.01622 0.97749 0.07774 0.0
H1081 H 0.9936 0.9628 0.87084 0.0
H1082 H 0.99303 0.98922 0.90947 0.0
H1083 H 0.98143 0.95208 0.99399 0.0
H1084 H 0.98309 0.92568 0.95571 0.0
H1085 H 0.02603 0.97728 0.00991 0.0
H1086 H 0.91235 0.97875 0.96088 0.0
H1087 H 0.86952 0.9795 0.91472 0.0
H1088 H 0.91164 0.03105 0.87973 0.0
H1089 H 0.95503 0.03048 0.92543 0.0
C1090 C 0.98221 0.04821 0.1041 0.0
C1091 C 0.98793 0.06615 0.09148 0.0
C1092 C 0.98169 0.03295 0.08227 0.0
C1093 C 0.9871 0.03529 0.04742 0.0
C1094 C 0.99238 0.05321 0.03478 0.0
C1095 C 0.9929 0.06844 0.05652 0.0
C1096 C 0.98745 0.01913 0.02401 0.0
C1097 C 0.96474 0.01908 0.99631 0.0
C1098 C 0.00968 1.00379 0.02897 0.0
C1099 C 0.03531 1.00326 0.05684 0.0
C1100 C 0.06013 0.01738 0.06037 0.0
C1101 C 0.08387 0.01692 0.087 0.0
C1102 C 0.08322 1.00232 0.1101 0.0
C1103 C 0.05891 0.98812 0.10656 0.0
C1104 C 0.03508 0.98853 0.08 0.0
C1105 C 0.99082 0.96027 0.89764 0.0
C1106 C 0.98828 0.9421 0.91012 0.0
C1107 C 0.99034 0.97541 0.91975 0.0
C1108 C 0.98668 0.97274 0.95476 0.0
C1109 C 0.98429 0.95458 0.96718 0.0
C1110 C 0.98516 0.93946 0.94518 0.0
C1111 C 0.98577 0.98876 0.97856 0.0
C1112 C 0.00842 0.98881 0.00635 0.0
C1113 C 0.96331 0.00406 0.97379 0.0
C1114 C 0.93715 0.00448 0.94639 0.0
C1115 C 0.91264 0.99018 0.9432 0.0
C1116 C 0.88824 0.99058 0.91714 0.0
C1117 C 0.88792 0.00528 0.89426 0.0
C1118 C 0.91195 0.01965 0.89745 0.0
C1119 C 0.93643 0.01931 0.92344 0.0
H1120 H 0.86901 0.00557 0.8741 0.0
H1121 H 0.10161 1.00199 0.13071 0.0
H1122 H 0.06432 0.54627 0.87137 0.0
H1123 H 0.06467 0.51956 0.90945 0.0
H1124 H 0.05718 0.55609 0.99514 0.0
H1125 H 0.05707 0.5828 0.95741 0.0
H1126 H 0.10458 0.529 0.00601 0.0
H1127 H 0.98665 0.53283 0.96704 0.0
H1128 H 0.94055 0.53435 0.92405 0.0
H1129 H 0.97222 0.48163 0.88487 0.0
H1130 H 0.01886 0.47991 0.92734 0.0
H1131 H 0.05848 0.46246 0.13081 0.0
H1132 H 0.05964 0.48909 0.09264 0.0
H1133 H 0.05861 0.45231 0.00696 0.0
H1134 H 0.05657 0.42572 0.04484 0.0
H1135 H 0.01597 0.47958 0.99568 0.0
H1136 H 0.13365 0.47537 0.03382 0.0
H1137 H 0.18081 0.47371 0.07569 0.0
H1138 H 0.15112 0.52669 0.11519 0.0
H1139 H 0.10347 0.52856 0.07382 0.0
C1140 C 0.06283 0.54863 0.89831 0.0
C1141 C 0.06058 0.56671 0.91126 0.0
C1142 C 0.0629 0.53333 0.92007 0.0
C1143 C 0.06065 0.53579 0.95521 0.0
C1144 C 0.05894 0.55383 0.96817 0.0
C1145 C 0.05875 0.5691 0.94648 0.0
C1146 C 0.05979 0.51961 0.97853 0.0
C1147 C 0.08496 0.5183 0.00401 0.0
C1148 C 0.03469 0.5054 0.97551 0.0
C1149 C 0.00646 0.50633 0.95016 0.0
C1150 C 0.98395 0.52162 0.9491 0.0
C1151 C 0.9577 0.52251 0.92485 0.0
C1152 C 0.95352 0.50812 0.90169 0.0
C1153 C 0.97552 0.49278 0.9028 0.0
C1154 C 0.00185 0.49183 0.92697 0.0
C1155 C 0.0586 0.46004 0.10385 0.0
C1156 C 0.05756 0.44192 0.09095 0.0
C1157 C 0.0594 0.4753 0.082 0.0
C1158 C 0.05966 0.47277 0.04679 0.0
C1159 C 0.05842 0.45468 0.03395 0.0
C1160 C 0.05736 0.43946 0.05572 0.0
C1161 C 0.06084 0.48891 0.02325 0.0
C1162 C 0.03567 0.49023 0.99772 0.0
C1163 C 0.08608 0.50308 0.02611 0.0
C1164 C 0.11478 0.50202 0.05094 0.0
C1165 C 0.13702 0.48661 0.0516 0.0
C1166 C 0.16386 0.48564 0.07521 0.0
C1167 C 0.1689 0.50006 0.09814 0.0
C1168 C 0.14716 0.51552 0.09744 0.0
C1169 C 0.12024 0.51655 0.0739 0.0
H1170 H 0.1897 0.49929 0.1164 0.0
H1171 H 0.93319 0.50884 0.88292 0.0
H1172 H 0.45282 0.42891 0.44692 0.0
H1173 H 0.45073 0.45543 0.48512 0.0
H1174 H 0.51988 0.48543 0.41897 0.0
H1175 H 0.51947 0.45945 0.37948 0.0
H1176 H 0.49049 0.47133 0.52259 0.0
H1177 H 0.51438 0.53096 0.42612 0.0
H1178 H 0.50036 0.5385 0.36696 0.0
H1179 H 0.41266 0.50193 0.37062 0.0
H1180 H 0.42588 0.49436 0.42991 0.0
H1181 H 0.53311 0.55038 0.61814 0.0
H1182 H 0.5315 0.5244 0.57866 0.0
H1183 H 0.44527 0.5498 0.52674 0.0
H1184 H 0.44933 0.57655 0.56429 0.0
H1185 H 0.47931 0.536 0.48249 0.0
H1186 H 0.44034 0.50959 0.58559 0.0
H1187 H 0.44146 0.5016 0.64608 0.0
H1188 H 0.53562 0.47094 0.63147 0.0
H1189 H 0.5353 0.47894 0.57095 0.0
C1190 C 0.4672 0.44129 0.44041 0.0
C1191 C 0.48597 0.44222 0.41008 0.0
C1192 C 0.46619 0.45645 0.46237 0.0
C1193 C 0.48471 0.47275 0.45499 0.0
C1194 C 0.50431 0.47341 0.42498 0.0
C1195 C 0.50432 0.45848 0.40244 0.0
C1196 C 0.484 0.4888 0.47895 0.0
C1197 C 0.48785 0.48545 0.51371 0.0
C1198 C 0.47968 0.50733 0.46792 0.0
C1199 C 0.47136 0.51195 0.43235 0.0
C1200 C 0.49203 0.52458 0.41433 0.0
C1201 C 0.48424 0.52885 0.38077 0.0
C1202 C 0.45571 0.52065 0.36501 0.0
C1203 C 0.43483 0.50822 0.38282 0.0
C1204 C 0.44248 0.50392 0.41639 0.0
C1205 C 0.51383 0.55032 0.59827 0.0
C1206 C 0.49121 0.56537 0.59432 0.0
C1207 C 0.51265 0.53537 0.57581 0.0
C1208 C 0.48767 0.5347 0.54989 0.0
C1209 C 0.46491 0.54981 0.54625 0.0
C1210 C 0.46703 0.56508 0.56788 0.0
C1211 C 0.48564 0.51854 0.5262 0.0
C1212 C 0.48158 0.52187 0.49144 0.0
C1213 C 0.48769 0.49992 0.53744 0.0
C1214 C 0.48796 0.49501 0.5738 0.0
C1215 C 0.46139 0.50124 0.59532 0.0
C1216 C 0.46187 0.49669 0.62961 0.0
C1217 C 0.48864 0.48581 0.64263 0.0
C1218 C 0.51493 0.47939 0.62136 0.0
C1219 C 0.5146 0.48391 0.58706 0.0
H1220 H 0.48897 0.48231 0.66918 0.0
H1221 H 0.44974 0.52396 0.33902 0.0
H1222 H 0.55937 0.96072 0.62863 0.0
H1223 H 0.56018 0.98704 0.58974 0.0
H1224 H 0.56201 0.94962 0.50506 0.0
H1225 H 0.56127 0.92323 0.54372 0.0
H1226 H 0.60847 0.97817 0.49722 0.0
H1227 H 0.48823 0.97103 0.52572 0.0
H1228 H 0.43829 0.96808 0.56423 0.0
H1229 H 0.46039 0.02164 0.60581 0.0
H1230 H 0.51081 0.02479 0.56786 0.0
H1231 H 0.56859 0.04474 0.36999 0.0
H1232 H 0.56808 0.01776 0.40737 0.0
H1233 H 0.55743 0.05364 0.49369 0.0
H1234 H 0.55726 0.08057 0.45657 0.0
H1235 H 0.51507 0.02532 0.50002 0.0
H1236 H 0.63555 0.03254 0.47299 0.0
H1237 H 0.68639 0.03563 0.43563 0.0
H1238 H 0.66499 0.98236 0.39252 0.0
H1239 H 0.61371 0.97906 0.42933 0.0
C1240 C 0.56002 0.95806 0.60174 0.0
C1241 C 0.56018 0.93983 0.58934 0.0
C1242 C 0.56036 0.97314 0.57951 0.0
C1243 C 0.56089 0.97033 0.54442 0.0
C1244 C 0.56159 0.95215 0.532 0.0
C1245 C 0.56102 0.93706 0.55418 0.0
C1246 C 0.56049 0.98633 0.52068 0.0
C1247 C 0.58781 0.98836 0.49751 0.0
C1248 C 0.53395 0.99985 0.5215 0.0
C1249 C 0.5035 0.99806 0.54417 0.0
C1250 C 0.48261 0.98212 0.54325 0.0
C1251 C 0.45419 0.98042 0.56496 0.0
C1252 C 0.44623 0.99465 0.58752 0.0
C1253 C 0.46662 0.01062 0.58836 0.0
C1254 C 0.4951 0.01238 0.56674 0.0
C1255 C 0.56622 0.04689 0.39693 0.0
C1256 C 0.56311 0.06487 0.41021 0.0
C1257 C 0.56606 0.03143 0.41833 0.0
C1258 C 0.5631 0.03361 0.45349 0.0
C1259 C 0.55974 0.05154 0.46671 0.0
C1260 C 0.55977 0.06697 0.44538 0.0
C1261 C 0.56319 0.01727 0.47658 0.0
C1262 C 0.53576 0.01516 0.49965 0.0
C1263 C 0.58974 1.00372 0.47577 0.0
C1264 C 0.62058 0.00565 0.45366 0.0
C1265 C 0.64153 0.02155 0.45535 0.0
C1266 C 0.67045 0.02333 0.43431 0.0
C1267 C 0.67886 0.00923 0.41165 0.0
C1268 C 0.65841 0.99329 0.41005 0.0
C1269 C 0.62943 0.99145 0.43101 0.0
H1270 H 0.70126 0.01063 0.39538 0.0
H1271 H 0.42421 0.99331 0.6043 0.0
loop_
_geom_bond_atom_site_label_1
_geom_bond_atom_site_label_2
_geom_bond_distance
_geom_bond_site_symmetry_2
_ccdc_geom_bond_type
Co0 O2 2.143 . S
Co0 O8 2.074 1_455 S
Co0 O11 2.093 . S
Co0 O24 2.097 . S
Co0 N41 2.151 . S
Co0 N49 2.214 . S
Co1 O2 2.160 1_655 S
Co1 O7 2.058 . S
Co1 O17 2.057 1_655 S
Co1 O32 2.037 1_655 S
Co1 N36 2.145 . S
Co1 N57 2.257 1_655 S
O2 Co0 2.143 . S
O2 Co1 2.160 1_455 S
C3 O4 1.278 . S
C3 O11 1.224 . S
O4 C3 1.278 . S
C5 O6 1.245 . S
C5 O17 1.232 . S
O6 C5 1.245 . S
O7 Co1 2.058 . S
O7 C33 1.269 . S
O8 Co0 2.074 1_655 S
O8 C33 1.257 . S
H9 C34 0.930 . S
H10 C40 0.930 . S
O11 Co0 2.093 . S
O11 C3 1.224 . S
H12 C44 0.929 1_655 S
H13 C46 0.930 . S
H14 C47 0.930 . S
H15 C45 0.929 1_655 S
H16 C48 0.928 . S
O17 Co1 2.057 1_455 S
O17 C5 1.232 . S
H18 C37 0.929 . S
H19 C38 0.929 . S
H20 C50 0.931 . S
H21 C42 0.929 . S
H22 C51 0.930 . S
H23 C43 0.931 . S
O24 Co0 2.097 . S
O24 C52 1.214 . S
H25 C53 0.929 . S
H26 C54 0.929 . S
H27 C55 0.930 . S
H28 C56 0.929 . S
H29 C58 0.930 . S
H30 C35 0.930 . S
H31 C39 0.930 . S
O32 Co1 2.037 1_455 S
O32 C52 1.234 . S
C33 O7 1.269 . S
C33 O8 1.257 . S
C34 H9 0.930 . S
C34 C37 1.388 . S
C34 C39 1.418 . S
C35 H30 0.930 . S
C35 C38 1.404 . S
C35 C39 1.353 . S
N36 Co1 2.145 . S
N36 C37 1.397 . S
N36 C38 1.334 . S
C37 H18 0.929 . S
C37 C34 1.388 . S
C37 N36 1.397 . S
C38 H19 0.929 . S
C38 C35 1.404 . S
C38 N36 1.334 . S
C39 H31 0.930 . S
C39 C34 1.418 . S
C39 C35 1.353 . S
C40 H10 0.930 . S
C40 N41 1.330 . S
C40 C42 1.446 . S
N41 Co0 2.151 . S
N41 C40 1.330 . S
N41 C45 1.418 . S
C42 H21 0.929 . S
C42 C40 1.446 . S
C42 C43 1.332 . S
C43 H23 0.931 . S
C43 C42 1.332 . S
C43 C44 1.267 . S
C44 H12 0.929 1_455 S
C44 C43 1.267 . S
C44 C45 1.251 . S
C45 H15 0.929 1_455 S
C45 N41 1.418 . S
C45 C44 1.251 . S
C46 H13 0.930 . S
C46 C48 1.406 . S
C46 C51 1.261 . S
C47 H14 0.930 . S
C47 N49 1.325 1_655 S
C47 C50 1.357 . S
C48 H16 0.928 . S
C48 C46 1.406 . S
C48 N49 1.261 . S
N49 Co0 2.214 . S
N49 C47 1.325 1_455 S
N49 C48 1.261 . S
C50 H20 0.931 . S
C50 C47 1.357 . S
C50 C51 1.312 1_655 S
C51 H22 0.930 . S
C51 C46 1.261 . S
C51 C50 1.312 1_455 S
C52 O24 1.214 . S
C52 O32 1.234 . S
C53 H25 0.929 . S
C53 C56 1.391 . S
C53 C58 1.391 . S
C54 H26 0.929 . S
C54 C55 1.390 . S
C54 N57 1.391 . S
C55 H27 0.930 . S
C55 C54 1.390 . S
C55 C56 1.392 . S
C56 H28 0.929 . S
C56 C53 1.391 . S
C56 C55 1.392 . S
N57 Co1 2.257 1_455 S
N57 C54 1.391 . S
N57 C58 1.388 . S
C58 H29 0.930 . S
C58 C53 1.391 . S
C58 N57 1.388 . S
Co59 O61 2.143 . S
Co59 O67 2.074 . S
Co59 O70 2.093 1_455 S
Co59 O83 2.097 . S
Co59 N100 2.151 . S
Co59 N108 2.214 . S
Co60 O61 2.160 . S
Co60 O66 2.058 . S
Co60 O76 2.057 . S
Co60 O91 2.037 . S
Co60 N95 2.145 . S
Co60 N116 2.249 1_455 S
O61 Co59 2.143 . S
O61 Co60 2.160 . S
C62 O63 1.278 . S
C62 O70 1.224 . S
O63 C62 1.278 . S
C64 O65 1.245 . S
C64 O76 1.232 . S
O65 C64 1.245 . S
O66 Co60 2.058 . S
O66 C92 1.269 . S
O67 Co59 2.074 . S
O67 C92 1.257 . S
H68 C93 0.930 . S
H69 C99 0.930 . S
O70 Co59 2.093 1_655 S
O70 C62 1.224 . S
H71 C103 0.929 . S
H72 C105 0.944 . S
H73 C106 0.930 . S
H74 C104 0.929 . S
H75 C107 0.928 1_655 S
O76 Co60 2.057 . S
O76 C64 1.232 . S
H77 C96 0.929 . S
H78 C97 0.929 . S
H79 C109 0.931 . S
H80 C101 0.929 . S
H81 C110 0.930 . S
H82 C102 0.931 . S
O83 Co59 2.097 . S
O83 C111 1.214 . S
H84 C112 0.929 . S
H85 C113 0.929 1_455 S
H86 C114 0.930 . S
H87 C115 0.929 . S
H88 C117 0.930 . S
H89 C94 0.930 . S
H90 C98 0.930 . S
O91 Co60 2.037 . S
O91 C111 1.234 . S
C92 O66 1.269 . S
C92 O67 1.257 . S
C93 H68 0.930 . S
C93 C96 1.388 . S
C93 C98 1.418 . S
C94 H89 0.930 . S
C94 C97 1.404 . S
C94 C98 1.353 . S
N95 Co60 2.145 . S
N95 C96 1.397 . S
N95 C97 1.334 . S
C96 H77 0.929 . S
C96 C93 1.388 . S
C96 N95 1.397 . S
C97 H78 0.929 . S
C97 C94 1.404 . S
C97 N95 1.334 . S
C98 H90 0.930 . S
C98 C93 1.418 . S
C98 C94 1.353 . S
C99 H69 0.930 . S
C99 N100 1.330 1_655 S
C99 C101 1.446 . S
N100 Co59 2.151 . S
N100 C99 1.330 1_455 S
N100 C104 1.418 . S
C101 H80 0.929 . S
C101 C99 1.446 . S
C101 C102 1.332 1_655 S
C102 H82 0.931 . S
C102 C101 1.332 1_455 S
C102 C103 1.267 . S
C103 H71 0.929 . S
C103 C102 1.267 . S
C103 C104 1.251 . S
C104 H74 0.929 . S
C104 N100 1.418 . S
C104 C103 1.251 . S
C105 H72 0.944 . S
C105 C107 1.406 . S
C105 C110 1.261 . S
C106 H73 0.930 . S
C106 N108 1.325 . S
C106 C109 1.357 . S
C107 H75 0.928 1_455 S
C107 C105 1.406 . S
C107 N108 1.261 . S
N108 Co59 2.214 . S
N108 C106 1.325 . S
N108 C107 1.261 . S
C109 H79 0.931 . S
C109 C106 1.357 . S
C109 C110 1.312 . S
C110 H81 0.930 . S
C110 C105 1.261 . S
C110 C109 1.312 . S
C111 O83 1.214 . S
C111 O91 1.234 . S
C112 H84 0.929 . S
C112 C115 1.391 . S
C112 C117 1.391 . S
C113 H85 0.929 1_655 S
C113 C114 1.390 . S
C113 N116 1.392 . S
C114 H86 0.930 . S
C114 C113 1.390 . S
C114 C115 1.392 . S
C115 H87 0.929 . S
C115 C112 1.391 . S
C115 C114 1.392 . S
N116 Co60 2.249 1_655 S
N116 C113 1.392 . S
N116 C117 1.397 . S
C117 H88 0.930 . S
C117 C112 1.391 . S
C117 N116 1.397 . S
Co118 O120 2.143 . S
Co118 O126 2.074 1_455 S
Co118 O129 2.093 . S
Co118 O142 2.097 . S
Co118 N159 2.151 . S
Co118 N167 2.214 . S
Co119 O120 2.160 1_655 S
Co119 O125 2.058 . S
Co119 O135 2.057 1_655 S
Co119 O150 2.037 1_655 S
Co119 N154 2.145 . S
Co119 N175 2.257 1_655 S
O120 Co118 2.143 . S
O120 Co119 2.160 1_455 S
C121 O122 1.278 . S
C121 O129 1.224 . S
O122 C121 1.278 . S
C123 O124 1.245 . S
C123 O135 1.232 . S
O124 C123 1.245 . S
O125 Co119 2.058 . S
O125 C151 1.269 . S
O126 Co118 2.074 1_655 S
O126 C151 1.257 . S
H127 C152 0.930 . S
H128 C158 0.930 . S
O129 Co118 2.093 . S
O129 C121 1.224 . S
H130 C162 0.929 1_655 S
H131 C164 0.930 . S
H132 C165 0.930 . S
H133 C163 0.929 1_655 S
H134 C166 0.928 . S
O135 Co119 2.057 1_455 S
O135 C123 1.232 . S
H136 C155 0.929 . S
H137 C156 0.929 . S
H138 C168 0.931 . S
H139 C160 0.929 . S
H140 C169 0.930 . S
H141 C161 0.931 . S
O142 Co118 2.097 . S
O142 C170 1.214 . S
H143 C171 0.929 . S
H144 C172 0.929 . S
H145 C173 0.930 . S
H146 C174 0.929 . S
H147 C176 0.930 . S
H148 C153 0.930 . S
H149 C157 0.930 . S
O150 Co119 2.037 1_455 S
O150 C170 1.234 . S
C151 O125 1.269 . S
C151 O126 1.257 . S
C152 H127 0.930 . S
C152 C155 1.388 . S
C152 C157 1.418 . S
C153 H148 0.930 . S
C153 C156 1.404 . S
C153 C157 1.353 . S
N154 Co119 2.145 . S
N154 C155 1.397 . S
N154 C156 1.334 . S
C155 H136 0.929 . S
C155 C152 1.388 . S
C155 N154 1.397 . S
C156 H137 0.929 . S
C156 C153 1.404 . S
C156 N154 1.334 . S
C157 H149 0.930 . S
C157 C152 1.418 . S
C157 C153 1.353 . S
C158 H128 0.930 . S
C158 N159 1.330 . S
C158 C160 1.446 . S
N159 Co118 2.151 . S
N159 C158 1.330 . S
N159 C163 1.418 . S
C160 H139 0.929 . S
C160 C158 1.446 . S
C160 C161 1.332 . S
C161 H141 0.931 . S
C161 C160 1.332 . S
C161 C162 1.267 . S
C162 H130 0.929 1_455 S
C162 C161 1.267 . S
C162 C163 1.251 . S
C163 H133 0.929 1_455 S
C163 N159 1.418 . S
C163 C162 1.251 . S
C164 H131 0.930 . S
C164 C166 1.406 . S
C164 C169 1.261 . S
C165 H132 0.930 . S
C165 N167 1.325 1_655 S
C165 C168 1.357 . S
C166 H134 0.928 . S
C166 C164 1.406 . S
C166 N167 1.261 . S
N167 Co118 2.214 . S
N167 C165 1.325 1_455 S
N167 C166 1.261 . S
C168 H138 0.931 . S
C168 C165 1.357 . S
C168 C169 1.312 1_655 S
C169 H140 0.930 . S
C169 C164 1.261 . S
C169 C168 1.312 1_455 S
C170 O142 1.214 . S
C170 O150 1.234 . S
C171 H143 0.929 . S
C171 C174 1.391 . S
C171 C176 1.391 . S
C172 H144 0.929 . S
C172 C173 1.390 . S
C172 N175 1.391 . S
C173 H145 0.930 . S
C173 C172 1.390 . S
C173 C174 1.392 . S
C174 H146 0.929 . S
C174 C171 1.391 . S
C174 C173 1.392 . S
N175 Co119 2.257 1_455 S
N175 C172 1.391 . S
N175 C176 1.388 . S
C176 H147 0.930 . S
C176 C171 1.391 . S
C176 N175 1.388 . S
Co177 O179 2.143 . S
Co177 O185 2.074 . S
Co177 O188 2.093 1_455 S
Co177 O201 2.097 . S
Co177 N218 2.151 . S
Co177 N226 2.214 . S
Co178 O179 2.160 . S
Co178 O184 2.058 . S
Co178 O194 2.057 . S
Co178 O209 2.037 . S
Co178 N213 2.145 . S
Co178 N234 2.249 1_455 S
O179 Co177 2.143 . S
O179 Co178 2.160 . S
C180 O181 1.278 . S
C180 O188 1.224 . S
O181 C180 1.278 . S
C182 O183 1.245 . S
C182 O194 1.232 . S
O183 C182 1.245 . S
O184 Co178 2.058 . S
O184 C210 1.269 . S
O185 Co177 2.074 . S
O185 C210 1.257 . S
H186 C211 0.930 . S
H187 C217 0.930 . S
O188 Co177 2.093 1_655 S
O188 C180 1.224 . S
H189 C221 0.929 . S
H190 C223 0.944 . S
H191 C224 0.930 . S
H192 C222 0.929 . S
H193 C225 0.928 1_655 S
O194 Co178 2.057 . S
O194 C182 1.232 . S
H195 C214 0.929 . S
H196 C215 0.929 . S
H197 C227 0.931 . S
H198 C219 0.929 . S
H199 C228 0.930 . S
H200 C220 0.931 . S
O201 Co177 2.097 . S
O201 C229 1.214 . S
H202 C230 0.929 . S
H203 C231 0.929 1_455 S
H204 C232 0.930 . S
H205 C233 0.929 . S
H206 C235 0.930 . S
H207 C212 0.930 . S
H208 C216 0.930 . S
O209 Co178 2.037 . S
O209 C229 1.234 . S
C210 O184 1.269 . S
C210 O185 1.257 . S
C211 H186 0.930 . S
C211 C214 1.388 . S
C211 C216 1.418 . S
C212 H207 0.930 . S
C212 C215 1.404 . S
C212 C216 1.353 . S
N213 Co178 2.145 . S
N213 C214 1.397 . S
N213 C215 1.334 . S
C214 H195 0.929 . S
C214 C211 1.388 . S
C214 N213 1.397 . S
C215 H196 0.929 . S
C215 C212 1.404 . S
C215 N213 1.334 . S
C216 H208 0.930 . S
C216 C211 1.418 . S
C216 C212 1.353 . S
C217 H187 0.930 . S
C217 N218 1.330 1_655 S
C217 C219 1.446 . S
N218 Co177 2.151 . S
N218 C217 1.330 1_455 S
N218 C222 1.418 . S
C219 H198 0.929 . S
C219 C217 1.446 . S
C219 C220 1.332 1_655 S
C220 H200 0.931 . S
C220 C219 1.332 1_455 S
C220 C221 1.267 . S
C221 H189 0.929 . S
C221 C220 1.267 . S
C221 C222 1.251 . S
C222 H192 0.929 . S
C222 N218 1.418 . S
C222 C221 1.251 . S
C223 H190 0.944 . S
C223 C225 1.406 . S
C223 C228 1.261 . S
C224 H191 0.930 . S
C224 N226 1.325 . S
C224 C227 1.357 . S
C225 H193 0.928 1_455 S
C225 C223 1.406 . S
C225 N226 1.261 . S
N226 Co177 2.214 . S
N226 C224 1.325 . S
N226 C225 1.261 . S
C227 H197 0.931 . S
C227 C224 1.357 . S
C227 C228 1.312 . S
C228 H199 0.930 . S
C228 C223 1.261 . S
C228 C227 1.312 . S
C229 O201 1.214 . S
C229 O209 1.234 . S
C230 H202 0.929 . S
C230 C233 1.391 . S
C230 C235 1.391 . S
C231 H203 0.929 1_655 S
C231 C232 1.390 . S
C231 N234 1.392 . S
C232 H204 0.930 . S
C232 C231 1.390 . S
C232 C233 1.392 . S
C233 H205 0.929 . S
C233 C230 1.391 . S
C233 C232 1.392 . S
N234 Co178 2.249 1_655 S
N234 C231 1.392 . S
N234 C235 1.397 . S
C235 H206 0.930 . S
C235 C230 1.391 . S
C235 N234 1.397 . S
Co236 O238 2.143 . S
Co236 O244 2.074 . S
Co236 O247 2.093 . S
Co236 O260 2.097 . S
Co236 N277 2.151 . S
Co236 N285 2.214 . S
Co237 O238 2.160 . S
Co237 O243 2.058 . S
Co237 O253 2.057 . S
Co237 O268 2.037 . S
Co237 N272 2.145 . S
Co237 N293 2.257 . S
O238 Co236 2.143 . S
O238 Co237 2.160 . S
C239 O240 1.278 . S
C239 O247 1.224 . S
O240 C239 1.278 . S
C241 O242 1.245 . S
C241 O253 1.232 . S
O242 C241 1.245 . S
O243 Co237 2.058 . S
O243 C269 1.269 . S
O244 Co236 2.074 . S
O244 C269 1.257 . S
H245 C270 0.930 . S
H246 C276 0.930 . S
O247 Co236 2.093 . S
O247 C239 1.224 . S
H248 C280 0.929 . S
H249 C282 0.930 . S
H250 C283 0.930 . S
H251 C281 0.929 . S
H252 C284 0.928 . S
O253 Co237 2.057 . S
O253 C241 1.232 . S
H254 C273 0.929 . S
H255 C274 0.929 . S
H256 C286 0.931 . S
H257 C278 0.929 . S
H258 C287 0.930 . S
H259 C279 0.931 . S
O260 Co236 2.097 . S
O260 C288 1.214 . S
H261 C289 0.929 . S
H262 C290 0.929 . S
H263 C291 0.930 . S
H264 C292 0.929 . S
H265 C294 0.930 . S
H266 C271 0.930 . S
H267 C275 0.930 . S
O268 Co237 2.037 . S
O268 C288 1.234 . S
C269 O243 1.269 . S
C269 O244 1.257 . S
C270 H245 0.930 . S
C270 C273 1.388 . S
C270 C275 1.418 . S
C271 H266 0.930 . S
C271 C274 1.404 . S
C271 C275 1.353 . S
N272 Co237 2.145 . S
N272 C273 1.397 . S
N272 C274 1.334 . S
C273 H254 0.929 . S
C273 C270 1.388 . S
C273 N272 1.397 . S
C274 H255 0.929 . S
C274 C271 1.404 . S
C274 N272 1.334 . S
C275 H267 0.930 . S
C275 C270 1.418 . S
C275 C271 1.353 . S
C276 H246 0.930 . S
C276 N277 1.330 . S
C276 C278 1.446 . S
N277 Co236 2.151 . S
N277 C276 1.330 . S
N277 C281 1.418 . S
C278 H257 0.929 . S
C278 C276 1.446 . S
C278 C279 1.332 . S
C279 H259 0.931 . S
C279 C278 1.332 . S
C279 C280 1.267 . S
C280 H248 0.929 . S
C280 C279 1.267 . S
C280 C281 1.251 . S
C281 H251 0.929 . S
C281 N277 1.418 . S
C281 C280 1.251 . S
C282 H249 0.930 . S
C282 C284 1.406 . S
C282 C287 1.261 . S
C283 H250 0.930 . S
C283 N285 1.325 . S
C283 C286 1.357 . S
C284 H252 0.928 . S
C284 C282 1.406 . S
C284 N285 1.261 . S
N285 Co236 2.214 . S
N285 C283 1.325 . S
N285 C284 1.261 . S
C286 H256 0.931 . S
C286 C283 1.357 . S
C286 C287 1.312 . S
C287 H258 0.930 . S
C287 C282 1.261 . S
C287 C286 1.312 . S
C288 O260 1.214 . S
C288 O268 1.234 . S
C289 H261 0.929 . S
C289 C292 1.391 . S
C289 C294 1.391 . S
C290 H262 0.929 . S
C290 C291 1.390 . S
C290 N293 1.391 . S
C291 H263 0.930 . S
C291 C290 1.390 . S
C291 C292 1.392 . S
C292 H264 0.929 . S
C292 C289 1.391 . S
C292 C291 1.392 . S
N293 Co237 2.257 . S
N293 C290 1.391 . S
N293 C294 1.388 . S
C294 H265 0.930 . S
C294 C289 1.391 . S
C294 N293 1.388 . S
Co295 O297 2.143 . S
Co295 O303 2.074 . S
Co295 O306 2.093 . S
Co295 O319 2.097 . S
Co295 N336 2.151 . S
Co295 N344 2.214 . S
Co296 O297 2.160 . S
Co296 O302 2.058 . S
Co296 O312 2.057 . S
Co296 O327 2.037 . S
Co296 N331 2.145 . S
Co296 N352 2.257 . S
O297 Co295 2.143 . S
O297 Co296 2.160 . S
C298 O299 1.278 . S
C298 O306 1.224 . S
O299 C298 1.278 . S
C300 O301 1.245 . S
C300 O312 1.232 . S
O301 C300 1.245 . S
O302 Co296 2.058 . S
O302 C328 1.269 . S
O303 Co295 2.074 . S
O303 C328 1.257 . S
H304 C329 0.930 . S
H305 C335 0.930 . S
O306 Co295 2.093 . S
O306 C298 1.224 . S
H307 C339 0.929 . S
H308 C341 0.930 . S
H309 C342 0.930 . S
H310 C340 0.929 . S
H311 C343 0.928 . S
O312 Co296 2.057 . S
O312 C300 1.232 . S
H313 C332 0.929 . S
H314 C333 0.929 . S
H315 C345 0.931 . S
H316 C337 0.929 . S
H317 C346 0.930 . S
H318 C338 0.931 . S
O319 Co295 2.097 . S
O319 C347 1.214 . S
H320 C348 0.929 . S
H321 C349 0.929 . S
H322 C350 0.930 . S
H323 C351 0.929 . S
H324 C353 0.930 . S
H325 C330 0.930 . S
H326 C334 0.930 . S
O327 Co296 2.037 . S
O327 C347 1.234 . S
C328 O302 1.269 . S
C328 O303 1.257 . S
C329 H304 0.930 . S
C329 C332 1.388 . S
C329 C334 1.418 . S
C330 H325 0.930 . S
C330 C333 1.404 . S
C330 C334 1.353 . S
N331 Co296 2.145 . S
N331 C332 1.397 . S
N331 C333 1.334 . S
C332 H313 0.929 . S
C332 C329 1.388 . S
C332 N331 1.397 . S
C333 H314 0.929 . S
C333 C330 1.404 . S
C333 N331 1.334 . S
C334 H326 0.930 . S
C334 C329 1.418 . S
C334 C330 1.353 . S
C335 H305 0.930 . S
C335 N336 1.330 . S
C335 C337 1.446 . S
N336 Co295 2.151 . S
N336 C335 1.330 . S
N336 C340 1.418 . S
C337 H316 0.929 . S
C337 C335 1.446 . S
C337 C338 1.332 . S
C338 H318 0.931 . S
C338 C337 1.332 . S
C338 C339 1.267 . S
C339 H307 0.929 . S
C339 C338 1.267 . S
C339 C340 1.251 . S
C340 H310 0.929 . S
C340 N336 1.418 . S
C340 C339 1.251 . S
C341 H308 0.930 . S
C341 C343 1.406 . S
C341 C346 1.261 . S
C342 H309 0.930 . S
C342 N344 1.325 . S
C342 C345 1.357 . S
C343 H311 0.928 . S
C343 C341 1.406 . S
C343 N344 1.261 . S
N344 Co295 2.214 . S
N344 C342 1.325 . S
N344 C343 1.261 . S
C345 H315 0.931 . S
C345 C342 1.357 . S
C345 C346 1.312 . S
C346 H317 0.930 . S
C346 C341 1.261 . S
C346 C345 1.312 . S
C347 O319 1.214 . S
C347 O327 1.234 . S
C348 H320 0.929 . S
C348 C351 1.391 . S
C348 C353 1.391 . S
C349 H321 0.929 . S
C349 C350 1.390 . S
C349 N352 1.391 . S
C350 H322 0.930 . S
C350 C349 1.390 . S
C350 C351 1.392 . S
C351 H323 0.929 . S
C351 C348 1.391 . S
C351 C350 1.392 . S
N352 Co296 2.257 . S
N352 C349 1.391 . S
N352 C353 1.388 . S
C353 H324 0.930 . S
C353 C348 1.391 . S
C353 N352 1.388 . S
Co354 O356 2.143 . S
Co354 O362 2.074 . S
Co354 O365 2.093 . S
Co354 O378 2.097 . S
Co354 N395 2.151 . S
Co354 N403 2.214 . S
Co355 O356 2.160 . S
Co355 O361 2.058 . S
Co355 O371 2.057 . S
Co355 O386 2.037 . S
Co355 N390 2.145 . S
Co355 N411 2.257 . S
O356 Co354 2.143 . S
O356 Co355 2.160 . S
C357 O358 1.278 . S
C357 O365 1.224 . S
O358 C357 1.278 . S
C359 O360 1.245 . S
C359 O371 1.232 . S
O360 C359 1.245 . S
O361 Co355 2.058 . S
O361 C387 1.269 . S
O362 Co354 2.074 . S
O362 C387 1.257 . S
H363 C388 0.930 . S
H364 C394 0.930 . S
O365 Co354 2.093 . S
O365 C357 1.224 . S
H366 C398 0.929 . S
H367 C400 0.930 . S
H368 C401 0.930 . S
H369 C399 0.929 . S
H370 C402 0.928 . S
O371 Co355 2.057 . S
O371 C359 1.232 . S
H372 C391 0.929 . S
H373 C392 0.929 . S
H374 C404 0.931 . S
H375 C396 0.929 . S
H376 C405 0.930 . S
H377 C397 0.931 . S
O378 Co354 2.097 . S
O378 C406 1.214 . S
H379 C407 0.929 . S
H380 C408 0.929 . S
H381 C409 0.930 . S
H382 C410 0.929 . S
H383 C412 0.930 . S
H384 C389 0.930 . S
H385 C393 0.930 . S
O386 Co355 2.037 . S
O386 C406 1.234 . S
C387 O361 1.269 . S
C387 O362 1.257 . S
C388 H363 0.930 . S
C388 C391 1.388 . S
C388 C393 1.418 . S
C389 H384 0.930 . S
C389 C392 1.404 . S
C389 C393 1.353 . S
N390 Co355 2.145 . S
N390 C391 1.397 . S
N390 C392 1.334 . S
C391 H372 0.929 . S
C391 C388 1.388 . S
C391 N390 1.397 . S
C392 H373 0.929 . S
C392 C389 1.404 . S
C392 N390 1.334 . S
C393 H385 0.930 . S
C393 C388 1.418 . S
C393 C389 1.353 . S
C394 H364 0.930 . S
C394 N395 1.330 . S
C394 C396 1.446 . S
N395 Co354 2.151 . S
N395 C394 1.330 . S
N395 C399 1.418 . S
C396 H375 0.929 . S
C396 C394 1.446 . S
C396 C397 1.332 . S
C397 H377 0.931 . S
C397 C396 1.332 . S
C397 C398 1.267 . S
C398 H366 0.929 . S
C398 C397 1.267 . S
C398 C399 1.251 . S
C399 H369 0.929 . S
C399 N395 1.418 . S
C399 C398 1.251 . S
C400 H367 0.930 . S
C400 C402 1.406 . S
C400 C405 1.261 . S
C401 H368 0.930 . S
C401 N403 1.325 . S
C401 C404 1.357 . S
C402 H370 0.928 . S
C402 C400 1.406 . S
C402 N403 1.261 . S
N403 Co354 2.214 . S
N403 C401 1.325 . S
N403 C402 1.261 . S
C404 H374 0.931 . S
C404 C401 1.357 . S
C404 C405 1.312 . S
C405 H376 0.930 . S
C405 C400 1.261 . S
C405 C404 1.312 . S
C406 O378 1.214 . S
C406 O386 1.234 . S
C407 H379 0.929 . S
C407 C410 1.391 . S
C407 C412 1.391 . S
C408 H380 0.929 . S
C408 C409 1.390 . S
C408 N411 1.391 . S
C409 H381 0.930 . S
C409 C408 1.390 . S
C409 C410 1.392 . S
C410 H382 0.929 . S
C410 C407 1.391 . S
C410 C409 1.392 . S
N411 Co355 2.257 . S
N411 C408 1.391 . S
N411 C412 1.388 . S
C412 H383 0.930 . S
C412 C407 1.391 . S
C412 N411 1.388 . S
Co413 O415 2.143 . S
Co413 O421 2.074 . S
Co413 O424 2.093 . S
Co413 O437 2.097 . S
Co413 N454 2.151 . S
Co413 N462 2.214 . S
Co414 O415 2.160 . S
Co414 O420 2.058 . S
Co414 O430 2.057 . S
Co414 O445 2.037 . S
Co414 N449 2.145 . S
Co414 N470 2.257 . S
O415 Co413 2.143 . S
O415 Co414 2.160 . S
C416 O417 1.278 . S
C416 O424 1.224 . S
O417 C416 1.278 . S
C418 O419 1.245 . S
C418 O430 1.232 . S
O419 C418 1.245 . S
O420 Co414 2.058 . S
O420 C446 1.269 . S
O421 Co413 2.074 . S
O421 C446 1.257 . S
H422 C447 0.930 . S
H423 C453 0.930 . S
O424 Co413 2.093 . S
O424 C416 1.224 . S
H425 C457 0.929 . S
H426 C459 0.930 . S
H427 C460 0.930 . S
H428 C458 0.929 . S
H429 C461 0.928 . S
O430 Co414 2.057 . S
O430 C418 1.232 . S
H431 C450 0.929 . S
H432 C451 0.929 . S
H433 C463 0.931 . S
H434 C455 0.929 . S
H435 C464 0.930 . S
H436 C456 0.931 . S
O437 Co413 2.097 . S
O437 C465 1.214 . S
H438 C466 0.929 . S
H439 C467 0.929 . S
H440 C468 0.930 . S
H441 C469 0.929 . S
H442 C471 0.930 . S
H443 C448 0.930 . S
H444 C452 0.930 . S
O445 Co414 2.037 . S
O445 C465 1.234 . S
C446 O420 1.269 . S
C446 O421 1.257 . S
C447 H422 0.930 . S
C447 C450 1.388 . S
C447 C452 1.418 . S
C448 H443 0.930 . S
C448 C451 1.404 . S
C448 C452 1.353 . S
N449 Co414 2.145 . S
N449 C450 1.397 . S
N449 C451 1.334 . S
C450 H431 0.929 . S
C450 C447 1.388 . S
C450 N449 1.397 . S
C451 H432 0.929 . S
C451 C448 1.404 . S
C451 N449 1.334 . S
C452 H444 0.930 . S
C452 C447 1.418 . S
C452 C448 1.353 . S
C453 H423 0.930 . S
C453 N454 1.330 . S
C453 C455 1.446 . S
N454 Co413 2.151 . S
N454 C453 1.330 . S
N454 C458 1.418 . S
C455 H434 0.929 . S
C455 C453 1.446 . S
C455 C456 1.332 . S
C456 H436 0.931 . S
C456 C455 1.332 . S
C456 C457 1.267 . S
C457 H425 0.929 . S
C457 C456 1.267 . S
C457 C458 1.251 . S
C458 H428 0.929 . S
C458 N454 1.418 . S
C458 C457 1.251 . S
C459 H426 0.930 . S
C459 C461 1.406 . S
C459 C464 1.261 . S
C460 H427 0.930 . S
C460 N462 1.325 . S
C460 C463 1.357 . S
C461 H429 0.928 . S
C461 C459 1.406 . S
C461 N462 1.261 . S
N462 Co413 2.214 . S
N462 C460 1.325 . S
N462 C461 1.261 . S
C463 H433 0.931 . S
C463 C460 1.357 . S
C463 C464 1.312 . S
C464 H435 0.930 . S
C464 C459 1.261 . S
C464 C463 1.312 . S
C465 O437 1.214 . S
C465 O445 1.234 . S
C466 H438 0.929 . S
C466 C469 1.391 . S
C466 C471 1.391 . S
C467 H439 0.929 . S
C467 C468 1.390 . S
C467 N470 1.391 . S
C468 H440 0.930 . S
C468 C467 1.390 . S
C468 C469 1.392 . S
C469 H441 0.929 . S
C469 C466 1.391 . S
C469 C468 1.392 . S
N470 Co414 2.257 . S
N470 C467 1.391 . S
N470 C471 1.388 . S
C471 H442 0.930 . S
C471 C466 1.391 . S
C471 N470 1.388 . S
H472 C490 0.951 1_655 S
H473 C492 0.951 1_655 S
H474 C494 0.950 . S
H475 C495 0.950 . S
H476 C497 0.950 . S
H477 C500 0.950 . S
H478 C501 0.950 . S
H479 C503 0.950 . S
H480 C504 0.939 1_655 S
H481 C505 0.951 . S
H482 C507 0.951 . S
H483 C509 0.950 . S
H484 C510 0.950 . S
H485 C512 0.950 . S
H486 C515 0.950 . S
H487 C516 0.950 . S
H488 C518 0.950 . S
H489 C519 0.950 . S
C490 H472 0.951 1_455 S
C490 C491 1.366 . S
C490 C492 1.388 . S
C491 C490 1.366 . S
C491 C495 1.385 . S
C492 H473 0.951 1_455 S
C492 C490 1.388 . S
C492 C493 1.366 . S
C493 C492 1.366 . S
C493 C494 1.414 . S
C493 C496 1.499 . S
C494 H474 0.950 . S
C494 C493 1.414 . S
C494 C495 1.374 . S
C495 H475 0.950 . S
C495 C491 1.385 . S
C495 C494 1.374 . S
C496 C493 1.499 . S
C496 C497 1.373 . S
C496 C498 1.389 . S
C497 H476 0.950 . S
C497 C496 1.373 . S
C497 C513 1.377 . S
C498 C496 1.389 . S
C498 C499 1.524 . S
C498 C512 1.377 . S
C499 C498 1.524 . S
C499 C500 1.397 . S
C499 C504 1.363 . S
C500 H477 0.950 . S
C500 C499 1.397 . S
C500 C501 1.334 . S
C501 H478 0.950 . S
C501 C500 1.334 . S
C501 C502 1.287 . S
C502 C501 1.287 . S
C502 C503 1.524 . S
C502 H521 0.913 . S
C503 H479 0.950 . S
C503 C502 1.524 . S
C503 C504 1.415 . S
C504 H480 0.939 1_455 S
C504 C499 1.363 . S
C504 C503 1.415 . S
C505 H481 0.951 . S
C505 C506 1.366 . S
C505 C507 1.388 . S
C506 C505 1.366 . S
C506 C510 1.385 1_455 S
C507 H482 0.951 . S
C507 C505 1.388 . S
C507 C508 1.366 . S
C508 C507 1.366 . S
C508 C509 1.414 1_455 S
C508 C511 1.499 . S
C509 H483 0.950 . S
C509 C508 1.414 1_655 S
C509 C510 1.374 . S
C510 H484 0.950 . S
C510 C506 1.385 1_655 S
C510 C509 1.374 . S
C511 C508 1.499 . S
C511 C512 1.373 . S
C511 C513 1.389 . S
C512 H485 0.950 . S
C512 C498 1.377 . S
C512 C511 1.373 . S
C513 C497 1.377 . S
C513 C511 1.389 . S
C513 C514 1.524 . S
C514 C513 1.524 . S
C514 C515 1.397 1_455 S
C514 C519 1.363 . S
C515 H486 0.950 . S
C515 C514 1.397 1_655 S
C515 C516 1.334 . S
C516 H487 0.950 . S
C516 C515 1.334 . S
C516 C517 1.287 . S
C517 C516 1.287 . S
C517 C518 1.524 1_655 S
C517 H520 0.999 . S
C518 H488 0.950 . S
C518 C517 1.524 1_455 S
C518 C519 1.415 . S
C519 H489 0.950 . S
C519 C514 1.363 . S
C519 C518 1.415 . S
H520 C517 0.999 . S
H521 C502 0.913 . S
H522 C540 0.951 . S
H523 C542 0.951 . S
H524 C544 0.950 . S
H525 C545 0.950 . S
H526 C547 0.966 . S
H527 C550 0.950 . S
H528 C551 0.950 . S
H529 C553 0.950 . S
H530 C554 0.950 . S
H531 C555 0.951 . S
H532 C557 0.951 . S
H533 C559 0.950 . S
H534 C560 0.950 . S
H535 C562 0.950 . S
H536 C565 0.950 . S
H537 C566 0.950 . S
H538 C568 0.950 . S
H539 C569 0.950 . S
C540 H522 0.951 . S
C540 C541 1.366 . S
C540 C542 1.388 . S
C541 C540 1.366 . S
C541 C545 1.385 . S
C542 H523 0.951 . S
C542 C540 1.388 . S
C542 C543 1.366 . S
C543 C542 1.366 . S
C543 C544 1.414 . S
C543 C546 1.499 . S
C544 H524 0.950 . S
C544 C543 1.414 . S
C544 C545 1.374 . S
C545 H525 0.950 . S
C545 C541 1.385 . S
C545 C544 1.374 . S
C546 C543 1.499 . S
C546 C547 1.358 1_455 S
C546 C548 1.389 . S
C547 H526 0.966 . S
C547 C546 1.358 1_655 S
C547 C563 1.376 . S
C548 C546 1.389 . S
C548 C549 1.524 . S
C548 C562 1.377 . S
C549 C548 1.524 . S
C549 C550 1.397 . S
C549 C554 1.363 . S
C550 H527 0.950 . S
C550 C549 1.397 . S
C550 C551 1.334 . S
C551 H528 0.950 . S
C551 C550 1.334 . S
C551 C552 1.287 . S
C552 C551 1.287 . S
C552 C553 1.524 . S
C552 H571 0.913 . S
C553 H529 0.950 . S
C553 C552 1.524 . S
C553 C554 1.415 . S
C554 H530 0.950 . S
C554 C549 1.363 . S
C554 C553 1.415 . S
C555 H531 0.951 . S
C555 C556 1.366 . S
C555 C557 1.388 . S
C556 C555 1.366 . S
C556 C560 1.385 . S
C557 H532 0.951 . S
C557 C555 1.388 . S
C557 C558 1.366 . S
C558 C557 1.366 . S
C558 C559 1.414 . S
C558 C561 1.499 . S
C559 H533 0.950 . S
C559 C558 1.414 . S
C559 C560 1.374 . S
C560 H534 0.950 . S
C560 C556 1.385 . S
C560 C559 1.374 . S
C561 C558 1.499 . S
C561 C562 1.373 . S
C561 C563 1.371 1_455 S
C562 H535 0.950 . S
C562 C548 1.377 . S
C562 C561 1.373 . S
C563 C547 1.376 . S
C563 C561 1.371 1_655 S
C563 C564 1.546 . S
C564 C563 1.546 . S
C564 C565 1.397 . S
C564 C569 1.363 . S
C565 H536 0.950 . S
C565 C564 1.397 . S
C565 C566 1.334 . S
C566 H537 0.950 . S
C566 C565 1.334 . S
C566 C567 1.287 . S
C567 C566 1.287 . S
C567 C568 1.524 . S
C567 H570 0.999 . S
C568 H538 0.950 . S
C568 C567 1.524 . S
C568 C569 1.415 . S
C569 H539 0.950 . S
C569 C564 1.363 . S
C569 C568 1.415 . S
H570 C567 0.999 . S
H571 C552 0.913 . S
H572 C590 0.951 . S
H573 C592 0.951 . S
H574 C594 0.950 . S
H575 C595 0.950 . S
H576 C597 0.950 . S
H577 C600 0.950 . S
H578 C601 0.950 . S
H579 C603 0.950 . S
H580 C604 0.950 . S
H581 C605 0.951 . S
H582 C607 0.951 . S
H583 C609 0.950 . S
H584 C610 0.950 . S
H585 C612 0.950 . S
H586 C615 0.950 . S
H587 C616 0.950 . S
H588 C618 0.950 . S
H589 C619 0.950 . S
C590 H572 0.951 . S
C590 C591 1.366 . S
C590 C592 1.388 . S
C591 C590 1.366 . S
C591 C595 1.385 . S
C592 H573 0.951 . S
C592 C590 1.388 . S
C592 C593 1.366 . S
C593 C592 1.366 . S
C593 C594 1.414 . S
C593 C596 1.499 . S
C594 H574 0.950 . S
C594 C593 1.414 . S
C594 C595 1.374 . S
C595 H575 0.950 . S
C595 C591 1.385 . S
C595 C594 1.374 . S
C596 C593 1.499 . S
C596 C597 1.373 . S
C596 C598 1.389 . S
C597 H576 0.950 . S
C597 C596 1.373 . S
C597 C613 1.377 . S
C598 C596 1.389 . S
C598 C599 1.524 . S
C598 C612 1.377 . S
C599 C598 1.524 . S
C599 C600 1.397 . S
C599 C604 1.363 . S
C600 H577 0.950 . S
C600 C599 1.397 . S
C600 C601 1.334 . S
C601 H578 0.950 . S
C601 C600 1.334 . S
C601 C602 1.287 . S
C602 C601 1.287 . S
C602 C603 1.524 . S
C602 H621 0.913 . S
C603 H579 0.950 . S
C603 C602 1.524 . S
C603 C604 1.415 . S
C604 H580 0.950 . S
C604 C599 1.363 . S
C604 C603 1.415 . S
C605 H581 0.951 . S
C605 C606 1.366 . S
C605 C607 1.388 . S
C606 C605 1.366 . S
C606 C610 1.385 . S
C607 H582 0.951 . S
C607 C605 1.388 . S
C607 C608 1.366 . S
C608 C607 1.366 . S
C608 C609 1.414 . S
C608 C611 1.499 . S
C609 H583 0.950 . S
C609 C608 1.414 . S
C609 C610 1.374 . S
C610 H584 0.950 . S
C610 C606 1.385 . S
C610 C609 1.374 . S
C611 C608 1.499 . S
C611 C612 1.373 . S
C611 C613 1.389 . S
C612 H585 0.950 . S
C612 C598 1.377 . S
C612 C611 1.373 . S
C613 C597 1.377 . S
C613 C611 1.389 . S
C613 C614 1.524 . S
C614 C613 1.524 . S
C614 C615 1.397 . S
C614 C619 1.363 . S
C615 H586 0.950 . S
C615 C614 1.397 . S
C615 C616 1.334 . S
C616 H587 0.950 . S
C616 C615 1.334 . S
C616 C617 1.287 . S
C617 C616 1.287 . S
C617 C618 1.524 . S
C617 H620 0.999 . S
C618 H588 0.950 . S
C618 C617 1.524 . S
C618 C619 1.415 . S
C619 H589 0.950 . S
C619 C614 1.363 . S
C619 C618 1.415 . S
H620 C617 0.999 . S
H621 C602 0.913 . S
H622 C640 0.951 . S
H623 C642 0.951 . S
H624 C644 0.950 . S
H625 C645 0.950 . S
H626 C647 0.950 . S
H627 C650 0.950 . S
H628 C651 0.950 . S
H629 C653 0.950 . S
H630 C654 0.950 . S
H631 C655 0.951 . S
H632 C657 0.951 . S
H633 C659 0.950 . S
H634 C660 0.950 . S
H635 C662 0.950 . S
H636 C665 0.950 . S
H637 C666 0.950 . S
H638 C668 0.950 . S
H639 C669 0.950 . S
C640 H622 0.951 . S
C640 C641 1.366 . S
C640 C642 1.388 . S
C641 C640 1.366 . S
C641 C645 1.385 . S
C642 H623 0.951 . S
C642 C640 1.388 . S
C642 C643 1.366 . S
C643 C642 1.366 . S
C643 C644 1.414 . S
C643 C646 1.499 . S
C644 H624 0.950 . S
C644 C643 1.414 . S
C644 C645 1.374 . S
C645 H625 0.950 . S
C645 C641 1.385 . S
C645 C644 1.374 . S
C646 C643 1.499 . S
C646 C647 1.373 . S
C646 C648 1.389 . S
C647 H626 0.950 . S
C647 C646 1.373 . S
C647 C663 1.377 . S
C648 C646 1.389 . S
C648 C649 1.524 . S
C648 C662 1.377 . S
C649 C648 1.524 . S
C649 C650 1.397 . S
C649 C654 1.363 . S
C650 H627 0.950 . S
C650 C649 1.397 . S
C650 C651 1.334 . S
C651 H628 0.950 . S
C651 C650 1.334 . S
C651 C652 1.287 . S
C652 C651 1.287 . S
C652 C653 1.524 . S
C652 H671 0.913 . S
C653 H629 0.950 . S
C653 C652 1.524 . S
C653 C654 1.415 . S
C654 H630 0.950 . S
C654 C649 1.363 . S
C654 C653 1.415 . S
C655 H631 0.951 . S
C655 C656 1.366 . S
C655 C657 1.388 . S
C656 C655 1.366 . S
C656 C660 1.385 . S
C657 H632 0.951 . S
C657 C655 1.388 . S
C657 C658 1.366 . S
C658 C657 1.366 . S
C658 C659 1.414 . S
C658 C661 1.499 . S
C659 H633 0.950 . S
C659 C658 1.414 . S
C659 C660 1.374 . S
C660 H634 0.950 . S
C660 C656 1.385 . S
C660 C659 1.374 . S
C661 C658 1.499 . S
C661 C662 1.373 . S
C661 C663 1.389 . S
C662 H635 0.950 . S
C662 C648 1.377 . S
C662 C661 1.373 . S
C663 C647 1.377 . S
C663 C661 1.389 . S
C663 C664 1.524 . S
C664 C663 1.524 . S
C664 C665 1.397 . S
C664 C669 1.363 . S
C665 H636 0.950 . S
C665 C664 1.397 . S
C665 C666 1.334 . S
C666 H637 0.950 . S
C666 C665 1.334 . S
C666 C667 1.287 . S
C667 C666 1.287 . S
C667 C668 1.524 . S
C667 H670 0.999 . S
C668 H638 0.950 . S
C668 C667 1.524 . S
C668 C669 1.415 . S
C669 H639 0.950 . S
C669 C664 1.363 . S
C669 C668 1.415 . S
H670 C667 0.999 . S
H671 C652 0.913 . S
H672 C690 0.951 . S
H673 C692 0.951 . S
H674 C694 0.950 . S
H675 C695 0.950 . S
H676 C697 0.950 . S
H677 C700 0.950 . S
H678 C701 0.950 . S
H679 C703 0.950 . S
H680 C704 0.950 . S
H681 C705 0.951 . S
H682 C707 0.951 . S
H683 C709 0.950 . S
H684 C710 0.950 . S
H685 C712 0.950 . S
H686 C715 0.950 . S
H687 C716 0.950 . S
H688 C718 0.950 . S
H689 C719 0.950 . S
C690 H672 0.951 . S
C690 C691 1.366 . S
C690 C692 1.388 . S
C691 C690 1.366 . S
C691 C695 1.385 . S
C692 H673 0.951 . S
C692 C690 1.388 . S
C692 C693 1.366 . S
C693 C692 1.366 . S
C693 C694 1.414 . S
C693 C696 1.499 . S
C694 H674 0.950 . S
C694 C693 1.414 . S
C694 C695 1.374 . S
C695 H675 0.950 . S
C695 C691 1.385 . S
C695 C694 1.374 . S
C696 C693 1.499 . S
C696 C697 1.373 . S
C696 C698 1.389 . S
C697 H676 0.950 . S
C697 C696 1.373 . S
C697 C713 1.377 . S
C698 C696 1.389 . S
C698 C699 1.524 . S
C698 C712 1.377 . S
C699 C698 1.524 . S
C699 C700 1.397 . S
C699 C704 1.363 . S
C700 H677 0.950 . S
C700 C699 1.397 . S
C700 C701 1.334 . S
C701 H678 0.950 . S
C701 C700 1.334 . S
C701 C702 1.287 . S
C702 C701 1.287 . S
C702 C703 1.524 . S
C702 H721 0.913 . S
C703 H679 0.950 . S
C703 C702 1.524 . S
C703 C704 1.415 . S
C704 H680 0.950 . S
C704 C699 1.363 . S
C704 C703 1.415 . S
C705 H681 0.951 . S
C705 C706 1.366 . S
C705 C707 1.388 . S
C706 C705 1.366 . S
C706 C710 1.385 . S
C707 H682 0.951 . S
C707 C705 1.388 . S
C707 C708 1.366 . S
C708 C707 1.366 . S
C708 C709 1.414 . S
C708 C711 1.499 . S
C709 H683 0.950 . S
C709 C708 1.414 . S
C709 C710 1.374 . S
C710 H684 0.950 . S
C710 C706 1.385 . S
C710 C709 1.374 . S
C711 C708 1.499 . S
C711 C712 1.373 . S
C711 C713 1.389 . S
C712 H685 0.950 . S
C712 C698 1.377 . S
C712 C711 1.373 . S
C713 C697 1.377 . S
C713 C711 1.389 . S
C713 C714 1.524 . S
C714 C713 1.524 . S
C714 C715 1.397 . S
C714 C719 1.363 . S
C715 H686 0.950 . S
C715 C714 1.397 . S
C715 C716 1.334 . S
C716 H687 0.950 . S
C716 C715 1.334 . S
C716 C717 1.287 . S
C717 C716 1.287 . S
C717 C718 1.524 . S
C717 H720 0.999 . S
C718 H688 0.950 . S
C718 C717 1.524 . S
C718 C719 1.415 . S
C719 H689 0.950 . S
C719 C714 1.363 . S
C719 C718 1.415 . S
H720 C717 0.999 . S
H721 C702 0.913 . S
H722 C740 0.951 . S
H723 C742 0.951 . S
H724 C744 0.950 . S
H725 C745 0.950 . S
H726 C747 0.950 . S
H727 C750 0.950 . S
H728 C751 0.950 . S
H729 C753 0.950 . S
H730 C754 0.950 . S
H731 C755 0.951 . S
H732 C757 0.951 . S
H733 C759 0.950 . S
H734 C760 0.950 . S
H735 C762 0.950 . S
H736 C765 0.950 . S
H737 C766 0.950 . S
H738 C768 0.950 . S
H739 C769 0.950 . S
C740 H722 0.951 . S
C740 C741 1.366 . S
C740 C742 1.388 . S
C741 C740 1.366 . S
C741 C745 1.385 . S
C742 H723 0.951 . S
C742 C740 1.388 . S
C742 C743 1.366 . S
C743 C742 1.366 . S
C743 C744 1.414 . S
C743 C746 1.499 . S
C744 H724 0.950 . S
C744 C743 1.414 . S
C744 C745 1.374 . S
C745 H725 0.950 . S
C745 C741 1.385 . S
C745 C744 1.374 . S
C746 C743 1.499 . S
C746 C747 1.373 . S
C746 C748 1.389 . S
C747 H726 0.950 . S
C747 C746 1.373 . S
C747 C763 1.377 . S
C748 C746 1.389 . S
C748 C749 1.524 . S
C748 C762 1.377 . S
C749 C748 1.524 . S
C749 C750 1.397 . S
C749 C754 1.363 . S
C750 H727 0.950 . S
C750 C749 1.397 . S
C750 C751 1.334 . S
C751 H728 0.950 . S
C751 C750 1.334 . S
C751 C752 1.287 . S
C752 C751 1.287 . S
C752 C753 1.524 . S
C752 H771 0.913 . S
C753 H729 0.950 . S
C753 C752 1.524 . S
C753 C754 1.415 . S
C754 H730 0.950 . S
C754 C749 1.363 . S
C754 C753 1.415 . S
C755 H731 0.951 . S
C755 C756 1.366 . S
C755 C757 1.388 . S
C756 C755 1.366 . S
C756 C760 1.385 . S
C757 H732 0.951 . S
C757 C755 1.388 . S
C757 C758 1.366 . S
C758 C757 1.366 . S
C758 C759 1.414 . S
C758 C761 1.499 . S
C759 H733 0.950 . S
C759 C758 1.414 . S
C759 C760 1.374 . S
C760 H734 0.950 . S
C760 C756 1.385 . S
C760 C759 1.374 . S
C761 C758 1.499 . S
C761 C762 1.373 . S
C761 C763 1.389 . S
C762 H735 0.950 . S
C762 C748 1.377 . S
C762 C761 1.373 . S
C763 C747 1.377 . S
C763 C761 1.389 . S
C763 C764 1.524 . S
C764 C763 1.524 . S
C764 C765 1.397 . S
C764 C769 1.363 . S
C765 H736 0.950 . S
C765 C764 1.397 . S
C765 C766 1.334 . S
C766 H737 0.950 . S
C766 C765 1.334 . S
C766 C767 1.287 . S
C767 C766 1.287 . S
C767 C768 1.524 . S
C767 H770 0.999 . S
C768 H738 0.950 . S
C768 C767 1.524 . S
C768 C769 1.415 . S
C769 H739 0.950 . S
C769 C764 1.363 . S
C769 C768 1.415 . S
H770 C767 0.999 . S
H771 C752 0.913 . S
H772 C790 0.951 . S
H773 C792 0.951 . S
H774 C794 0.950 . S
H775 C795 0.950 . S
H776 C797 0.950 . S
H777 C800 0.950 . S
H778 C801 0.950 . S
H779 C803 0.950 . S
H780 C804 0.950 . S
H781 C805 0.951 . S
H782 C807 0.951 . S
H783 C809 0.950 . S
H784 C810 0.950 . S
H785 C812 0.950 . S
H786 C815 0.950 . S
H787 C816 0.950 . S
H788 C818 0.950 . S
H789 C819 0.950 . S
C790 H772 0.951 . S
C790 C791 1.366 . S
C790 C792 1.388 . S
C791 C790 1.366 . S
C791 C795 1.385 . S
C792 H773 0.951 . S
C792 C790 1.388 . S
C792 C793 1.366 . S
C793 C792 1.366 . S
C793 C794 1.414 . S
C793 C796 1.499 . S
C794 H774 0.950 . S
C794 C793 1.414 . S
C794 C795 1.374 . S
C795 H775 0.950 . S
C795 C791 1.385 . S
C795 C794 1.374 . S
C796 C793 1.499 . S
C796 C797 1.373 . S
C796 C798 1.389 . S
C797 H776 0.950 . S
C797 C796 1.373 . S
C797 C813 1.377 . S
C798 C796 1.389 . S
C798 C799 1.524 . S
C798 C812 1.377 . S
C799 C798 1.524 . S
C799 C800 1.397 . S
C799 C804 1.363 . S
C800 H777 0.950 . S
C800 C799 1.397 . S
C800 C801 1.334 . S
C801 H778 0.950 . S
C801 C800 1.334 . S
C801 C802 1.287 . S
C802 C801 1.287 . S
C802 C803 1.524 . S
C802 H821 0.913 . S
C803 H779 0.950 . S
C803 C802 1.524 . S
C803 C804 1.415 . S
C804 H780 0.950 . S
C804 C799 1.363 . S
C804 C803 1.415 . S
C805 H781 0.951 . S
C805 C806 1.366 . S
C805 C807 1.388 . S
C806 C805 1.366 . S
C806 C810 1.385 . S
C807 H782 0.951 . S
C807 C805 1.388 . S
C807 C808 1.366 . S
C808 C807 1.366 . S
C808 C809 1.414 . S
C808 C811 1.499 . S
C809 H783 0.950 . S
C809 C808 1.414 . S
C809 C810 1.374 . S
C810 H784 0.950 . S
C810 C806 1.385 . S
C810 C809 1.374 . S
C811 C808 1.499 . S
C811 C812 1.373 . S
C811 C813 1.389 . S
C812 H785 0.950 . S
C812 C798 1.377 . S
C812 C811 1.373 . S
C813 C797 1.377 . S
C813 C811 1.389 . S
C813 C814 1.524 . S
C814 C813 1.524 . S
C814 C815 1.397 . S
C814 C819 1.363 . S
C815 H786 0.950 . S
C815 C814 1.397 . S
C815 C816 1.334 . S
C816 H787 0.950 . S
C816 C815 1.334 . S
C816 C817 1.287 . S
C817 C816 1.287 . S
C817 C818 1.524 . S
C817 H820 0.999 . S
C818 H788 0.950 . S
C818 C817 1.524 . S
C818 C819 1.415 . S
C819 H789 0.950 . S
C819 C814 1.363 . S
C819 C818 1.415 . S
H820 C817 0.999 . S
H821 C802 0.913 . S
H822 C840 0.951 . S
H823 C842 0.951 . S
H824 C844 0.950 . S
H825 C845 0.950 . S
H826 C847 0.950 . S
H827 C850 0.950 . S
H828 C851 0.950 . S
H829 C853 0.950 . S
H830 C854 0.950 . S
H831 C855 0.951 . S
H832 C857 0.951 . S
H833 C859 0.950 . S
H834 C860 0.950 . S
H835 C862 0.950 . S
H836 C865 0.950 . S
H837 C866 0.950 . S
H838 C868 0.950 . S
H839 C869 0.950 . S
C840 H822 0.951 . S
C840 C841 1.366 . S
C840 C842 1.388 . S
C841 C840 1.366 . S
C841 C845 1.385 . S
C842 H823 0.951 . S
C842 C840 1.388 . S
C842 C843 1.366 . S
C843 C842 1.366 . S
C843 C844 1.414 . S
C843 C846 1.499 . S
C844 H824 0.950 . S
C844 C843 1.414 . S
C844 C845 1.374 . S
C845 H825 0.950 . S
C845 C841 1.385 . S
C845 C844 1.374 . S
C846 C843 1.499 . S
C846 C847 1.373 . S
C846 C848 1.389 . S
C847 H826 0.950 . S
C847 C846 1.373 . S
C847 C863 1.377 . S
C848 C846 1.389 . S
C848 C849 1.524 . S
C848 C862 1.377 . S
C849 C848 1.524 . S
C849 C850 1.397 . S
C849 C854 1.363 . S
C850 H827 0.950 . S
C850 C849 1.397 . S
C850 C851 1.334 . S
C851 H828 0.950 . S
C851 C850 1.334 . S
C851 C852 1.287 . S
C852 C851 1.287 . S
C852 C853 1.524 . S
C852 H871 0.913 . S
C853 H829 0.950 . S
C853 C852 1.524 . S
C853 C854 1.415 . S
C854 H830 0.950 . S
C854 C849 1.363 . S
C854 C853 1.415 . S
C855 H831 0.951 . S
C855 C856 1.366 . S
C855 C857 1.388 . S
C856 C855 1.366 . S
C856 C860 1.385 . S
C857 H832 0.951 . S
C857 C855 1.388 . S
C857 C858 1.366 . S
C858 C857 1.366 . S
C858 C859 1.414 . S
C858 C861 1.499 . S
C859 H833 0.950 . S
C859 C858 1.414 . S
C859 C860 1.374 . S
C860 H834 0.950 . S
C860 C856 1.385 . S
C860 C859 1.374 . S
C861 C858 1.499 . S
C861 C862 1.373 . S
C861 C863 1.389 . S
C862 H835 0.950 . S
C862 C848 1.377 . S
C862 C861 1.373 . S
C863 C847 1.377 . S
C863 C861 1.389 . S
C863 C864 1.524 . S
C864 C863 1.524 . S
C864 C865 1.397 . S
C864 C869 1.363 . S
C865 H836 0.950 . S
C865 C864 1.397 . S
C865 C866 1.334 . S
C866 H837 0.950 . S
C866 C865 1.334 . S
C866 C867 1.287 . S
C867 C866 1.287 . S
C867 C868 1.524 . S
C867 H870 0.999 . S
C868 H838 0.950 . S
C868 C867 1.524 . S
C868 C869 1.415 . S
C869 H839 0.950 . S
C869 C864 1.363 . S
C869 C868 1.415 . S
H870 C867 0.999 . S
H871 C852 0.913 . S
H872 C890 0.951 . S
H873 C892 0.951 . S
H874 C894 0.950 . S
H875 C895 0.950 . S
H876 C897 0.950 . S
H877 C900 0.950 . S
H878 C901 0.950 . S
H879 C903 0.950 . S
H880 C904 0.950 . S
H881 C905 0.951 . S
H882 C907 0.951 . S
H883 C909 0.950 . S
H884 C910 0.950 . S
H885 C912 0.950 . S
H886 C915 0.950 . S
H887 C916 0.950 . S
H888 C918 0.950 . S
H889 C919 0.950 . S
C890 H872 0.951 . S
C890 C891 1.366 . S
C890 C892 1.388 . S
C891 C890 1.366 . S
C891 C895 1.385 . S
C892 H873 0.951 . S
C892 C890 1.388 . S
C892 C893 1.366 . S
C893 C892 1.366 . S
C893 C894 1.414 . S
C893 C896 1.499 . S
C894 H874 0.950 . S
C894 C893 1.414 . S
C894 C895 1.374 . S
C895 H875 0.950 . S
C895 C891 1.385 . S
C895 C894 1.374 . S
C896 C893 1.499 . S
C896 C897 1.373 . S
C896 C898 1.389 . S
C897 H876 0.950 . S
C897 C896 1.373 . S
C897 C913 1.377 . S
C898 C896 1.389 . S
C898 C899 1.524 . S
C898 C912 1.377 . S
C899 C898 1.524 . S
C899 C900 1.397 . S
C899 C904 1.363 . S
C900 H877 0.950 . S
C900 C899 1.397 . S
C900 C901 1.334 . S
C901 H878 0.950 . S
C901 C900 1.334 . S
C901 C902 1.287 . S
C902 C901 1.287 . S
C902 C903 1.524 . S
C902 H921 0.913 . S
C903 H879 0.950 . S
C903 C902 1.524 . S
C903 C904 1.415 . S
C904 H880 0.950 . S
C904 C899 1.363 . S
C904 C903 1.415 . S
C905 H881 0.951 . S
C905 C906 1.366 . S
C905 C907 1.388 . S
C906 C905 1.366 . S
C906 C910 1.385 . S
C907 H882 0.951 . S
C907 C905 1.388 . S
C907 C908 1.366 . S
C908 C907 1.366 . S
C908 C909 1.414 . S
C908 C911 1.499 . S
C909 H883 0.950 . S
C909 C908 1.414 . S
C909 C910 1.374 . S
C910 H884 0.950 . S
C910 C906 1.385 . S
C910 C909 1.374 . S
C911 C908 1.499 . S
C911 C912 1.373 . S
C911 C913 1.389 . S
C912 H885 0.950 . S
C912 C898 1.377 . S
C912 C911 1.373 . S
C913 C897 1.377 . S
C913 C911 1.389 . S
C913 C914 1.524 . S
C914 C913 1.524 . S
C914 C915 1.397 . S
C914 C919 1.363 . S
C915 H886 0.950 . S
C915 C914 1.397 . S
C915 C916 1.334 . S
C916 H887 0.950 . S
C916 C915 1.334 . S
C916 C917 1.287 . S
C917 C916 1.287 . S
C917 C918 1.524 . S
C917 H920 0.999 . S
C918 H888 0.950 . S
C918 C917 1.524 . S
C918 C919 1.415 . S
C919 H889 0.950 . S
C919 C914 1.363 . S
C919 C918 1.415 . S
H920 C917 0.999 . S
H921 C902 0.913 . S
H922 C940 0.951 . S
H923 C942 0.951 . S
H924 C944 0.950 . S
H925 C945 0.950 . S
H926 C947 0.950 . S
H927 C950 0.950 . S
H928 C951 0.950 . S
H929 C953 0.950 . S
H930 C954 0.950 . S
H931 C955 0.951 . S
H932 C957 0.951 . S
H933 C959 0.950 . S
H934 C960 0.950 . S
H935 C962 0.950 . S
H936 C965 0.950 . S
H937 C966 0.950 . S
H938 C968 0.950 . S
H939 C969 0.950 . S
C940 H922 0.951 . S
C940 C941 1.366 . S
C940 C942 1.388 . S
C941 C940 1.366 . S
C941 C945 1.385 . S
C942 H923 0.951 . S
C942 C940 1.388 . S
C942 C943 1.366 . S
C943 C942 1.366 . S
C943 C944 1.414 . S
C943 C946 1.499 . S
C944 H924 0.950 . S
C944 C943 1.414 . S
C944 C945 1.374 . S
C945 H925 0.950 . S
C945 C941 1.385 . S
C945 C944 1.374 . S
C946 C943 1.499 . S
C946 C947 1.373 . S
C946 C948 1.389 . S
C947 H926 0.950 . S
C947 C946 1.373 . S
C947 C963 1.377 . S
C948 C946 1.389 . S
C948 C949 1.524 . S
C948 C962 1.377 . S
C949 C948 1.524 . S
C949 C950 1.397 . S
C949 C954 1.363 . S
C950 H927 0.950 . S
C950 C949 1.397 . S
C950 C951 1.334 . S
C951 H928 0.950 . S
C951 C950 1.334 . S
C951 C952 1.287 . S
C952 C951 1.287 . S
C952 C953 1.524 . S
C952 H971 0.913 . S
C953 H929 0.950 . S
C953 C952 1.524 . S
C953 C954 1.415 . S
C954 H930 0.950 . S
C954 C949 1.363 . S
C954 C953 1.415 . S
C955 H931 0.951 . S
C955 C956 1.366 . S
C955 C957 1.388 . S
C956 C955 1.366 . S
C956 C960 1.385 . S
C957 H932 0.951 . S
C957 C955 1.388 . S
C957 C958 1.366 . S
C958 C957 1.366 . S
C958 C959 1.414 . S
C958 C961 1.499 . S
C959 H933 0.950 . S
C959 C958 1.414 . S
C959 C960 1.374 . S
C960 H934 0.950 . S
C960 C956 1.385 . S
C960 C959 1.374 . S
C961 C958 1.499 . S
C961 C962 1.373 . S
C961 C963 1.389 . S
C962 H935 0.950 . S
C962 C948 1.377 . S
C962 C961 1.373 . S
C963 C947 1.377 . S
C963 C961 1.389 . S
C963 C964 1.524 . S
C964 C963 1.524 . S
C964 C965 1.397 . S
C964 C969 1.363 . S
C965 H936 0.950 . S
C965 C964 1.397 . S
C965 C966 1.334 . S
C966 H937 0.950 . S
C966 C965 1.334 . S
C966 C967 1.287 . S
C967 C966 1.287 . S
C967 C968 1.524 . S
C967 H970 0.999 . S
C968 H938 0.950 . S
C968 C967 1.524 . S
C968 C969 1.415 . S
C969 H939 0.950 . S
C969 C964 1.363 . S
C969 C968 1.415 . S
H970 C967 0.999 . S
H971 C952 0.913 . S
H972 C990 0.951 . S
H973 C992 0.951 . S
H974 C994 0.950 . S
H975 C995 0.950 . S
H976 C997 0.950 . S
H977 C1000 0.950 . S
H978 C1001 0.950 . S
H979 C1003 0.950 . S
H980 C1004 0.950 . S
H981 C1005 0.951 . S
H982 C1007 0.951 . S
H983 C1009 0.950 . S
H984 C1010 0.950 . S
H985 C1012 0.950 . S
H986 C1015 0.950 . S
H987 C1016 0.950 . S
H988 C1018 0.950 . S
H989 C1019 0.950 . S
C990 H972 0.951 . S
C990 C991 1.366 . S
C990 C992 1.388 . S
C991 C990 1.366 . S
C991 C995 1.385 . S
C992 H973 0.951 . S
C992 C990 1.388 . S
C992 C993 1.366 . S
C993 C992 1.366 . S
C993 C994 1.414 . S
C993 C996 1.499 . S
C994 H974 0.950 . S
C994 C993 1.414 . S
C994 C995 1.374 . S
C995 H975 0.950 . S
C995 C991 1.385 . S
C995 C994 1.374 . S
C996 C993 1.499 . S
C996 C997 1.373 . S
C996 C998 1.389 . S
C997 H976 0.950 . S
C997 C996 1.373 . S
C997 C1013 1.377 . S
C998 C996 1.389 . S
C998 C999 1.524 . S
C998 C1012 1.377 . S
C999 C998 1.524 . S
C999 C1000 1.397 . S
C999 C1004 1.363 . S
C1000 H977 0.950 . S
C1000 C999 1.397 . S
C1000 C1001 1.334 . S
C1001 H978 0.950 . S
C1001 C1000 1.334 . S
C1001 C1002 1.287 . S
C1002 C1001 1.287 . S
C1002 C1003 1.524 . S
C1002 H1021 0.913 . S
C1003 H979 0.950 . S
C1003 C1002 1.524 . S
C1003 C1004 1.415 . S
C1004 H980 0.950 . S
C1004 C999 1.363 . S
C1004 C1003 1.415 . S
C1005 H981 0.951 . S
C1005 C1006 1.366 . S
C1005 C1007 1.388 . S
C1006 C1005 1.366 . S
C1006 C1010 1.385 . S
C1007 H982 0.951 . S
C1007 C1005 1.388 . S
C1007 C1008 1.366 . S
C1008 C1007 1.366 . S
C1008 C1009 1.414 . S
C1008 C1011 1.499 . S
C1009 H983 0.950 . S
C1009 C1008 1.414 . S
C1009 C1010 1.374 . S
C1010 H984 0.950 . S
C1010 C1006 1.385 . S
C1010 C1009 1.374 . S
C1011 C1008 1.499 . S
C1011 C1012 1.373 . S
C1011 C1013 1.389 . S
C1012 H985 0.950 . S
C1012 C998 1.377 . S
C1012 C1011 1.373 . S
C1013 C997 1.377 . S
C1013 C1011 1.389 . S
C1013 C1014 1.524 . S
C1014 C1013 1.524 . S
C1014 C1015 1.397 . S
C1014 C1019 1.363 . S
C1015 H986 0.950 . S
C1015 C1014 1.397 . S
C1015 C1016 1.334 . S
C1016 H987 0.950 . S
C1016 C1015 1.334 . S
C1016 C1017 1.287 . S
C1017 C1016 1.287 . S
C1017 C1018 1.524 . S
C1017 H1020 0.999 . S
C1018 H988 0.950 . S
C1018 C1017 1.524 . S
C1018 C1019 1.415 . S
C1019 H989 0.950 . S
C1019 C1014 1.363 . S
C1019 C1018 1.415 . S
H1020 C1017 0.999 . S
H1021 C1002 0.913 . S
H1022 C1040 0.951 . S
H1023 C1042 0.951 . S
H1024 C1044 0.950 . S
H1025 C1045 0.950 . S
H1026 C1047 0.950 . S
H1027 C1050 0.950 . S
H1028 C1051 0.950 . S
H1029 C1053 0.950 . S
H1030 C1054 0.950 . S
H1031 C1055 0.951 . S
H1032 C1057 0.951 . S
H1033 C1059 0.950 . S
H1034 C1060 0.950 . S
H1035 C1062 0.950 . S
H1036 C1065 0.950 . S
H1037 C1066 0.950 . S
H1038 C1068 0.950 . S
H1039 C1069 0.950 . S
C1040 H1022 0.951 . S
C1040 C1041 1.366 . S
C1040 C1042 1.388 . S
C1041 C1040 1.366 . S
C1041 C1045 1.385 . S
C1042 H1023 0.951 . S
C1042 C1040 1.388 . S
C1042 C1043 1.366 . S
C1043 C1042 1.366 . S
C1043 C1044 1.414 . S
C1043 C1046 1.499 . S
C1044 H1024 0.950 . S
C1044 C1043 1.414 . S
C1044 C1045 1.374 . S
C1045 H1025 0.950 . S
C1045 C1041 1.385 . S
C1045 C1044 1.374 . S
C1046 C1043 1.499 . S
C1046 C1047 1.373 . S
C1046 C1048 1.389 . S
C1047 H1026 0.950 . S
C1047 C1046 1.373 . S
C1047 C1063 1.377 . S
C1048 C1046 1.389 . S
C1048 C1049 1.524 . S
C1048 C1062 1.377 . S
C1049 C1048 1.524 . S
C1049 C1050 1.397 . S
C1049 C1054 1.363 . S
C1050 H1027 0.950 . S
C1050 C1049 1.397 . S
C1050 C1051 1.334 . S
C1051 H1028 0.950 . S
C1051 C1050 1.334 . S
C1051 C1052 1.287 . S
C1052 C1051 1.287 . S
C1052 C1053 1.524 . S
C1052 H1071 0.913 . S
C1053 H1029 0.950 . S
C1053 C1052 1.524 . S
C1053 C1054 1.415 . S
C1054 H1030 0.950 . S
C1054 C1049 1.363 . S
C1054 C1053 1.415 . S
C1055 H1031 0.951 . S
C1055 C1056 1.366 . S
C1055 C1057 1.388 . S
C1056 C1055 1.366 . S
C1056 C1060 1.385 . S
C1057 H1032 0.951 . S
C1057 C1055 1.388 . S
C1057 C1058 1.366 . S
C1058 C1057 1.366 . S
C1058 C1059 1.414 . S
C1058 C1061 1.499 . S
C1059 H1033 0.950 . S
C1059 C1058 1.414 . S
C1059 C1060 1.374 . S
C1060 H1034 0.950 . S
C1060 C1056 1.385 . S
C1060 C1059 1.374 . S
C1061 C1058 1.499 . S
C1061 C1062 1.373 . S
C1061 C1063 1.389 . S
C1062 H1035 0.950 . S
C1062 C1048 1.377 . S
C1062 C1061 1.373 . S
C1063 C1047 1.377 . S
C1063 C1061 1.389 . S
C1063 C1064 1.524 . S
C1064 C1063 1.524 . S
C1064 C1065 1.397 . S
C1064 C1069 1.363 . S
C1065 H1036 0.950 . S
C1065 C1064 1.397 . S
C1065 C1066 1.334 . S
C1066 H1037 0.950 . S
C1066 C1065 1.334 . S
C1066 C1067 1.287 . S
C1067 C1066 1.287 . S
C1067 C1068 1.524 . S
C1067 H1070 0.999 . S
C1068 H1038 0.950 . S
C1068 C1067 1.524 . S
C1068 C1069 1.415 . S
C1069 H1039 0.950 . S
C1069 C1064 1.363 . S
C1069 C1068 1.415 . S
H1070 C1067 0.999 . S
H1071 C1052 0.913 . S
H1072 C1090 0.951 . S
H1073 C1092 0.951 . S
H1074 C1094 0.950 . S
H1075 C1095 0.950 . S
H1076 C1097 0.950 . S
H1077 C1100 0.950 1_545 S
H1078 C1101 0.950 . S
H1079 C1103 0.950 . S
H1080 C1104 0.950 . S
H1081 C1105 0.951 . S
H1082 C1107 0.951 . S
H1083 C1109 0.950 . S
H1084 C1110 0.950 . S
H1085 C1112 0.950 1_655 S
H1086 C1115 0.950 1_665 S
H1087 C1116 0.950 1_655 S
H1088 C1118 0.950 . S
H1089 C1119 0.950 . S
C1090 H1072 0.951 . S
C1090 C1091 1.366 1_655 S
C1090 C1092 1.388 . S
C1091 C1090 1.366 1_455 S
C1091 C1095 1.385 . S
C1092 H1073 0.951 . S
C1092 C1090 1.388 . S
C1092 C1093 1.366 1_655 S
C1093 C1092 1.366 1_455 S
C1093 C1094 1.414 . S
C1093 C1096 1.499 . S
C1094 H1074 0.950 . S
C1094 C1093 1.414 . S
C1094 C1095 1.374 . S
C1095 H1075 0.950 . S
C1095 C1091 1.385 . S
C1095 C1094 1.374 . S
C1096 C1093 1.499 . S
C1096 C1097 1.373 1_554 S
C1096 C1098 1.389 1_545 S
C1097 H1076 0.950 . S
C1097 C1096 1.373 1_556 S
C1097 C1113 1.377 . S
C1098 C1096 1.389 1_565 S
C1098 C1099 1.525 1_455 S
C1098 C1112 1.377 . S
C1099 C1098 1.525 1_655 S
C1099 C1100 1.398 1_655 S
C1099 C1104 1.361 . S
C1100 H1077 0.950 1_565 S
C1100 C1099 1.398 1_455 S
C1100 C1101 1.334 . S
C1101 H1078 0.950 . S
C1101 C1100 1.334 . S
C1101 C1102 1.287 1_455 S
C1102 C1101 1.287 1_655 S
C1102 C1103 1.524 . S
C1102 H1121 0.913 . S
C1103 H1079 0.950 . S
C1103 C1102 1.524 . S
C1103 C1104 1.415 . S
C1104 H1080 0.950 . S
C1104 C1099 1.361 . S
C1104 C1103 1.415 . S
C1105 H1081 0.951 . S
C1105 C1106 1.366 . S
C1105 C1107 1.388 . S
C1106 C1105 1.366 . S
C1106 C1110 1.385 1_455 S
C1107 H1082 0.951 . S
C1107 C1105 1.388 . S
C1107 C1108 1.366 . S
C1108 C1107 1.366 . S
C1108 C1109 1.414 1_455 S
C1108 C1111 1.499 . S
C1109 H1083 0.950 . S
C1109 C1108 1.414 1_655 S
C1109 C1110 1.374 . S
C1110 H1084 0.950 . S
C1110 C1106 1.385 1_655 S
C1110 C1109 1.374 . S
C1111 C1108 1.499 . S
C1111 C1112 1.373 1_556 S
C1111 C1113 1.389 1_565 S
C1112 H1085 0.950 1_455 S
C1112 C1098 1.377 . S
C1112 C1111 1.373 1_554 S
C1113 C1097 1.377 . S
C1113 C1111 1.389 1_545 S
C1113 C1114 1.524 . S
C1114 C1113 1.524 . S
C1114 C1115 1.397 . S
C1114 C1119 1.363 . S
C1115 H1086 0.950 1_445 S
C1115 C1114 1.397 . S
C1115 C1116 1.334 . S
C1116 H1087 0.950 1_455 S
C1116 C1115 1.334 . S
C1116 C1117 1.287 . S
C1117 C1116 1.287 . S
C1117 C1118 1.524 . S
C1117 H1120 0.999 . S
C1118 H1088 0.950 . S
C1118 C1117 1.524 . S
C1118 C1119 1.415 . S
C1119 H1089 0.950 . S
C1119 C1114 1.363 . S
C1119 C1118 1.415 . S
H1120 C1117 0.999 . S
H1121 C1102 0.913 . S
H1122 C1140 0.951 . S
H1123 C1142 0.951 . S
H1124 C1144 0.950 . S
H1125 C1145 0.950 . S
H1126 C1147 0.950 . S
H1127 C1150 0.950 . S
H1128 C1151 0.950 . S
H1129 C1153 0.950 . S
H1130 C1154 0.950 1_455 S
H1131 C1155 0.951 . S
H1132 C1157 0.951 . S
H1133 C1159 0.950 . S
H1134 C1160 0.950 . S
H1135 C1162 0.950 1_655 S
H1136 C1165 0.950 . S
H1137 C1166 0.950 . S
H1138 C1168 0.950 . S
H1139 C1169 0.950 . S
C1140 H1122 0.951 . S
C1140 C1141 1.366 . S
C1140 C1142 1.388 . S
C1141 C1140 1.366 . S
C1141 C1145 1.385 . S
C1142 H1123 0.951 . S
C1142 C1140 1.388 . S
C1142 C1143 1.366 . S
C1143 C1142 1.366 . S
C1143 C1144 1.414 . S
C1143 C1146 1.499 . S
C1144 H1124 0.950 . S
C1144 C1143 1.414 . S
C1144 C1145 1.374 . S
C1145 H1125 0.950 . S
C1145 C1141 1.385 . S
C1145 C1144 1.374 . S
C1146 C1143 1.499 . S
C1146 C1147 1.373 1_556 S
C1146 C1148 1.389 . S
C1147 H1126 0.950 . S
C1147 C1146 1.373 1_554 S
C1147 C1163 1.377 . S
C1148 C1146 1.389 . S
C1148 C1149 1.524 1_455 S
C1148 C1162 1.377 . S
C1149 C1148 1.524 1_655 S
C1149 C1150 1.397 . S
C1149 C1154 1.363 . S
C1150 H1127 0.950 . S
C1150 C1149 1.397 . S
C1150 C1151 1.334 . S
C1151 H1128 0.950 . S
C1151 C1150 1.334 . S
C1151 C1152 1.287 . S
C1152 C1151 1.287 . S
C1152 C1153 1.524 . S
C1152 H1171 0.913 . S
C1153 H1129 0.950 . S
C1153 C1152 1.524 . S
C1153 C1154 1.415 . S
C1154 H1130 0.950 1_655 S
C1154 C1149 1.363 . S
C1154 C1153 1.415 . S
C1155 H1131 0.951 . S
C1155 C1156 1.366 . S
C1155 C1157 1.388 . S
C1156 C1155 1.366 . S
C1156 C1160 1.385 . S
C1157 H1132 0.951 . S
C1157 C1155 1.388 . S
C1157 C1158 1.366 . S
C1158 C1157 1.366 . S
C1158 C1159 1.414 . S
C1158 C1161 1.499 . S
C1159 H1133 0.950 . S
C1159 C1158 1.414 . S
C1159 C1160 1.374 . S
C1160 H1134 0.950 . S
C1160 C1156 1.385 . S
C1160 C1159 1.374 . S
C1161 C1158 1.499 . S
C1161 C1162 1.373 1_554 S
C1161 C1163 1.389 . S
C1162 H1135 0.950 1_455 S
C1162 C1148 1.377 . S
C1162 C1161 1.373 1_556 S
C1163 C1147 1.377 . S
C1163 C1161 1.389 . S
C1163 C1164 1.524 . S
C1164 C1163 1.524 . S
C1164 C1165 1.397 . S
C1164 C1169 1.363 . S
C1165 H1136 0.950 . S
C1165 C1164 1.397 . S
C1165 C1166 1.334 . S
C1166 H1137 0.950 . S
C1166 C1165 1.334 . S
C1166 C1167 1.287 . S
C1167 C1166 1.287 . S
C1167 C1168 1.524 . S
C1167 H1170 0.999 . S
C1168 H1138 0.950 . S
C1168 C1167 1.524 . S
C1168 C1169 1.415 . S
C1169 H1139 0.950 . S
C1169 C1164 1.363 . S
C1169 C1168 1.415 . S
H1170 C1167 0.999 . S
H1171 C1152 0.913 . S
H1172 C1190 0.951 . S
H1173 C1192 0.951 . S
H1174 C1194 0.950 . S
H1175 C1195 0.950 . S
H1176 C1197 0.950 . S
H1177 C1200 0.950 . S
H1178 C1201 0.950 . S
H1179 C1203 0.950 . S
H1180 C1204 0.950 . S
H1181 C1205 0.951 . S
H1182 C1207 0.951 . S
H1183 C1209 0.950 . S
H1184 C1210 0.950 . S
H1185 C1212 0.950 . S
H1186 C1215 0.950 . S
H1187 C1216 0.950 . S
H1188 C1218 0.950 . S
H1189 C1219 0.950 . S
C1190 H1172 0.951 . S
C1190 C1191 1.366 . S
C1190 C1192 1.388 . S
C1191 C1190 1.366 . S
C1191 C1195 1.385 . S
C1192 H1173 0.951 . S
C1192 C1190 1.388 . S
C1192 C1193 1.366 . S
C1193 C1192 1.366 . S
C1193 C1194 1.414 . S
C1193 C1196 1.499 . S
C1194 H1174 0.950 . S
C1194 C1193 1.414 . S
C1194 C1195 1.374 . S
C1195 H1175 0.950 . S
C1195 C1191 1.385 . S
C1195 C1194 1.374 . S
C1196 C1193 1.499 . S
C1196 C1197 1.373 . S
C1196 C1198 1.389 . S
C1197 H1176 0.950 . S
C1197 C1196 1.373 . S
C1197 C1213 1.377 . S
C1198 C1196 1.389 . S
C1198 C1199 1.524 . S
C1198 C1212 1.377 . S
C1199 C1198 1.524 . S
C1199 C1200 1.397 . S
C1199 C1204 1.363 . S
C1200 H1177 0.950 . S
C1200 C1199 1.397 . S
C1200 C1201 1.334 . S
C1201 H1178 0.950 . S
C1201 C1200 1.334 . S
C1201 C1202 1.287 . S
C1202 C1201 1.287 . S
C1202 C1203 1.524 . S
C1202 H1221 0.913 . S
C1203 H1179 0.950 . S
C1203 C1202 1.524 . S
C1203 C1204 1.415 . S
C1204 H1180 0.950 . S
C1204 C1199 1.363 . S
C1204 C1203 1.415 . S
C1205 H1181 0.951 . S
C1205 C1206 1.366 . S
C1205 C1207 1.388 . S
C1206 C1205 1.366 . S
C1206 C1210 1.385 . S
C1207 H1182 0.951 . S
C1207 C1205 1.388 . S
C1207 C1208 1.366 . S
C1208 C1207 1.366 . S
C1208 C1209 1.414 . S
C1208 C1211 1.499 . S
C1209 H1183 0.950 . S
C1209 C1208 1.414 . S
C1209 C1210 1.374 . S
C1210 H1184 0.950 . S
C1210 C1206 1.385 . S
C1210 C1209 1.374 . S
C1211 C1208 1.499 . S
C1211 C1212 1.373 . S
C1211 C1213 1.389 . S
C1212 H1185 0.950 . S
C1212 C1198 1.377 . S
C1212 C1211 1.373 . S
C1213 C1197 1.377 . S
C1213 C1211 1.389 . S
C1213 C1214 1.524 . S
C1214 C1213 1.524 . S
C1214 C1215 1.397 . S
C1214 C1219 1.363 . S
C1215 H1186 0.950 . S
C1215 C1214 1.397 . S
C1215 C1216 1.334 . S
C1216 H1187 0.950 . S
C1216 C1215 1.334 . S
C1216 C1217 1.287 . S
C1217 C1216 1.287 . S
C1217 C1218 1.524 . S
C1217 H1220 0.999 . S
C1218 H1188 0.950 . S
C1218 C1217 1.524 . S
C1218 C1219 1.415 . S
C1219 H1189 0.950 . S
C1219 C1214 1.363 . S
C1219 C1218 1.415 . S
H1220 C1217 0.999 . S
H1221 C1202 0.913 . S
H1222 C1240 0.951 . S
H1223 C1242 0.951 . S
H1224 C1244 0.950 . S
H1225 C1245 0.950 . S
H1226 C1247 0.950 . S
H1227 C1250 0.950 . S
H1228 C1251 0.950 . S
H1229 C1253 0.950 . S
H1230 C1254 0.950 1_545 S
H1231 C1255 0.951 . S
H1232 C1257 0.951 . S
H1233 C1259 0.950 . S
H1234 C1260 0.950 . S
H1235 C1262 0.950 . S
H1236 C1265 0.950 . S
H1237 C1266 0.950 . S
H1238 C1268 0.950 . S
H1239 C1269 0.950 1_565 S
C1240 H1222 0.951 . S
C1240 C1241 1.366 . S
C1240 C1242 1.388 . S
C1241 C1240 1.366 . S
C1241 C1245 1.385 . S
C1242 H1223 0.951 . S
C1242 C1240 1.388 . S
C1242 C1243 1.366 . S
C1243 C1242 1.366 . S
C1243 C1244 1.414 . S
C1243 C1246 1.499 . S
C1244 H1224 0.950 . S
C1244 C1243 1.414 . S
C1244 C1245 1.374 . S
C1245 H1225 0.950 . S
C1245 C1241 1.385 . S
C1245 C1244 1.374 . S
C1246 C1243 1.499 . S
C1246 C1247 1.373 . S
C1246 C1248 1.389 . S
C1247 H1226 0.950 . S
C1247 C1246 1.373 . S
C1247 C1263 1.377 1_565 S
C1248 C1246 1.389 . S
C1248 C1249 1.524 . S
C1248 C1262 1.377 1_565 S
C1249 C1248 1.524 . S
C1249 C1250 1.397 . S
C1249 C1254 1.363 . S
C1250 H1227 0.950 . S
C1250 C1249 1.397 . S
C1250 C1251 1.334 . S
C1251 H1228 0.950 . S
C1251 C1250 1.334 . S
C1251 C1252 1.287 . S
C1252 C1251 1.287 . S
C1252 C1253 1.524 . S
C1252 H1271 0.913 . S
C1253 H1229 0.950 . S
C1253 C1252 1.524 . S
C1253 C1254 1.415 . S
C1254 H1230 0.950 1_565 S
C1254 C1249 1.363 . S
C1254 C1253 1.415 . S
C1255 H1231 0.951 . S
C1255 C1256 1.366 . S
C1255 C1257 1.388 . S
C1256 C1255 1.366 . S
C1256 C1260 1.385 . S
C1257 H1232 0.951 . S
C1257 C1255 1.388 . S
C1257 C1258 1.366 . S
C1258 C1257 1.366 . S
C1258 C1259 1.414 . S
C1258 C1261 1.499 . S
C1259 H1233 0.950 . S
C1259 C1258 1.414 . S
C1259 C1260 1.374 . S
C1260 H1234 0.950 . S
C1260 C1256 1.385 . S
C1260 C1259 1.374 . S
C1261 C1258 1.499 . S
C1261 C1262 1.373 . S
C1261 C1263 1.389 . S
C1262 H1235 0.950 . S
C1262 C1248 1.377 1_545 S
C1262 C1261 1.373 . S
C1263 C1247 1.377 1_545 S
C1263 C1261 1.389 . S
C1263 C1264 1.524 . S
C1264 C1263 1.524 . S
C1264 C1265 1.397 . S
C1264 C1269 1.363 . S
C1265 H1236 0.950 . S
C1265 C1264 1.397 . S
C1265 C1266 1.334 . S
C1266 H1237 0.950 . S
C1266 C1265 1.334 . S
C1266 C1267 1.287 . S
C1267 C1266 1.287 . S
C1267 C1268 1.524 . S
C1267 H1270 0.999 . S
C1268 H1238 0.950 . S
C1268 C1267 1.524 . S
C1268 C1269 1.415 . S
C1269 H1239 0.950 1_545 S
C1269 C1264 1.363 . S
C1269 C1268 1.415 . S
H1270 C1267 0.999 . S
H1271 C1252 0.913 . S
C491 C111 1.495 . S
C506 C52 1.495 . S
C541 C170 1.496 . S
C556 C229 1.496 . S
C591 C288 1.495 . S
C606 C347 1.495 . S
C641 C406 1.495 . S
C656 C465 1.495 . S
C691 C416 1.175 . S
C706 C3 1.176 . S
C741 C357 1.175 . S
C756 C62 1.176 . S
C791 C121 1.175 . S
C806 C298 1.176 . S
C841 C239 1.176 . S
C856 C180 1.175 . S
C891 C328 1.771 . S
C906 C151 1.771 . S
C941 C269 1.771 . S
C956 C210 1.771 . S
C991 C446 1.771 . S
C1006 C33 1.771 . S
C1041 C92 1.771 . S
C1056 C387 1.771 . S
C1091 C5 1.476 . S
C1106 C123 1.476 . S
C1141 C182 1.476 . S
C1156 C64 1.476 . S
C1191 C359 1.476 . S
C1206 C241 1.476 . S
C1241 C300 1.476 . S
C1256 C418 1.476 . S
