# Generated by pormake.
# Topology son, (6)-cn, num edge types: 1
# Building blocks:
#     Node 0, Type 0, BuildingBlock: VOLQOD_clean_sbu_1, # of connection points: 6
#     Node 1, Type 0, BuildingBlock: VOLQOD_clean_sbu_1, # of connection points: 6
#     Node 2, Type 0, BuildingBlock: VOLQOD_clean_sbu_1, # of connection points: 6
#     Node 3, Type 0, BuildingBlock: VOLQOD_clean_sbu_1, # of connection points: 6
#     Node 4, Type 0, BuildingBlock: VOLQOD_clean_sbu_1, # of connection points: 6
#     Node 5, Type 0, BuildingBlock: VOLQOD_clean_sbu_1, # of connection points: 6
#     Node 6, Type 0, BuildingBlock: VOLQOD_clean_sbu_1, # of connection points: 6
#     Node 7, Type 0, BuildingBlock: VOLQOD_clean_sbu_1, # of connection points: 6
#     Node 8, Type 0, BuildingBlock: VOLQOD_clean_sbu_1, # of connection points: 6
#     Node 9, Type 0, BuildingBlock: VOLQOD_clean_sbu_1, # of connection points: 6
#     Node 10, Type 0, BuildingBlock: VOLQOD_clean_sbu_1, # of connection points: 6
#     Node 11, Type 0, BuildingBlock: VOLQOD_clean_sbu_1, # of connection points: 6
#     Node 12, Type 0, BuildingBlock: VOLQOD_clean_sbu_1, # of connection points: 6
#     Node 13, Type 0, BuildingBlock: VOLQOD_clean_sbu_1, # of connection points: 6
#     Node 14, Type 0, BuildingBlock: VOLQOD_clean_sbu_1, # of connection points: 6
#     Node 15, Type 0, BuildingBlock: VOLQOD_clean_sbu_1, # of connection points: 6
#     Node 16, Type 0, BuildingBlock: VOLQOD_clean_sbu_1, # of connection points: 6
#     Node 17, Type 0, BuildingBlock: VOLQOD_clean_sbu_1, # of connection points: 6
#     Node 18, Type 0, BuildingBlock: VOLQOD_clean_sbu_1, # of connection points: 6
#     Node 19, Type 0, BuildingBlock: VOLQOD_clean_sbu_1, # of connection points: 6
#     Node 20, Type 0, BuildingBlock: VOLQOD_clean_sbu_1, # of connection points: 6
#     Node 21, Type 0, BuildingBlock: VOLQOD_clean_sbu_1, # of connection points: 6
#     Node 22, Type 0, BuildingBlock: VOLQOD_clean_sbu_1, # of connection points: 6
#     Node 23, Type 0, BuildingBlock: VOLQOD_clean_sbu_1, # of connection points: 6
#     Node 24, Type 0, BuildingBlock: VOLQOD_clean_sbu_1, # of connection points: 6
#     Node 25, Type 0, BuildingBlock: VOLQOD_clean_sbu_1, # of connection points: 6
#     Node 26, Type 0, BuildingBlock: VOLQOD_clean_sbu_1, # of connection points: 6
#     Node 27, Type 0, BuildingBlock: VOLQOD_clean_sbu_1, # of connection points: 6
#     Node 28, Type 0, BuildingBlock: VOLQOD_clean_sbu_1, # of connection points: 6
#     Node 29, Type 0, BuildingBlock: VOLQOD_clean_sbu_1, # of connection points: 6
#     Node 30, Type 0, BuildingBlock: VOLQOD_clean_sbu_1, # of connection points: 6
#     Node 31, Type 0, BuildingBlock: VOLQOD_clean_sbu_1, # of connection points: 6
#     Edge 32, Type (0, 0), BuildingBlock: OJICUG_clean_linker_0, # of connection points: 2
#     Edge 33, Type (0, 0), BuildingBlock: OJICUG_clean_linker_0, # of connection points: 2
#     Edge 34, Type (0, 0), BuildingBlock: OJICUG_clean_linker_0, # of connection points: 2
#     Edge 35, Type (0, 0), BuildingBlock: OJICUG_clean_linker_0, # of connection points: 2
#     Edge 36, Type (0, 0), BuildingBlock: OJICUG_clean_linker_0, # of connection points: 2
#     Edge 37, Type (0, 0), BuildingBlock: OJICUG_clean_linker_0, # of connection points: 2
#     Edge 38, Type (0, 0), BuildingBlock: OJICUG_clean_linker_0, # of connection points: 2
#     Edge 39, Type (0, 0), BuildingBlock: OJICUG_clean_linker_0, # of connection points: 2
#     Edge 40, Type (0, 0), BuildingBlock: OJICUG_clean_linker_0, # of connection points: 2
#     Edge 41, Type (0, 0), BuildingBlock: OJICUG_clean_linker_0, # of connection points: 2
#     Edge 42, Type (0, 0), BuildingBlock: OJICUG_clean_linker_0, # of connection points: 2
#     Edge 43, Type (0, 0), BuildingBlock: OJICUG_clean_linker_0, # of connection points: 2
#     Edge 44, Type (0, 0), BuildingBlock: OJICUG_clean_linker_0, # of connection points: 2
#     Edge 45, Type (0, 0), BuildingBlock: OJICUG_clean_linker_0, # of connection points: 2
#     Edge 46, Type (0, 0), BuildingBlock: OJICUG_clean_linker_0, # of connection points: 2
#     Edge 47, Type (0, 0), BuildingBlock: OJICUG_clean_linker_0, # of connection points: 2
#     Edge 48, Type (0, 0), BuildingBlock: OJICUG_clean_linker_0, # of connection points: 2
#     Edge 49, Type (0, 0), BuildingBlock: OJICUG_clean_linker_0, # of connection points: 2
#     Edge 50, Type (0, 0), BuildingBlock: OJICUG_clean_linker_0, # of connection points: 2
#     Edge 51, Type (0, 0), BuildingBlock: OJICUG_clean_linker_0, # of connection points: 2
#     Edge 52, Type (0, 0), BuildingBlock: OJICUG_clean_linker_0, # of connection points: 2
#     Edge 53, Type (0, 0), BuildingBlock: OJICUG_clean_linker_0, # of connection points: 2
#     Edge 54, Type (0, 0), BuildingBlock: OJICUG_clean_linker_0, # of connection points: 2
#     Edge 55, Type (0, 0), BuildingBlock: OJICUG_clean_linker_0, # of connection points: 2
#     Edge 56, Type (0, 0), BuildingBlock: OJICUG_clean_linker_0, # of connection points: 2
#     Edge 57, Type (0, 0), BuildingBlock: OJICUG_clean_linker_0, # of connection points: 2
#     Edge 58, Type (0, 0), BuildingBlock: OJICUG_clean_linker_0, # of connection points: 2
#     Edge 59, Type (0, 0), BuildingBlock: OJICUG_clean_linker_0, # of connection points: 2
#     Edge 60, Type (0, 0), BuildingBlock: OJICUG_clean_linker_0, # of connection points: 2
#     Edge 61, Type (0, 0), BuildingBlock: OJICUG_clean_linker_0, # of connection points: 2
#     Edge 62, Type (0, 0), BuildingBlock: OJICUG_clean_linker_0, # of connection points: 2
#     Edge 63, Type (0, 0), BuildingBlock: OJICUG_clean_linker_0, # of connection points: 2
#     Edge 64, Type (0, 0), BuildingBlock: OJICUG_clean_linker_0, # of connection points: 2
#     Edge 65, Type (0, 0), BuildingBlock: OJICUG_clean_linker_0, # of connection points: 2
#     Edge 66, Type (0, 0), BuildingBlock: OJICUG_clean_linker_0, # of connection points: 2
#     Edge 67, Type (0, 0), BuildingBlock: OJICUG_clean_linker_0, # of connection points: 2
#     Edge 68, Type (0, 0), BuildingBlock: OJICUG_clean_linker_0, # of connection points: 2
#     Edge 69, Type (0, 0), BuildingBlock: OJICUG_clean_linker_0, # of connection points: 2
#     Edge 70, Type (0, 0), BuildingBlock: OJICUG_clean_linker_0, # of connection points: 2
#     Edge 71, Type (0, 0), BuildingBlock: OJICUG_clean_linker_0, # of connection points: 2
#     Edge 72, Type (0, 0), BuildingBlock: OJICUG_clean_linker_0, # of connection points: 2
#     Edge 73, Type (0, 0), BuildingBlock: OJICUG_clean_linker_0, # of connection points: 2
#     Edge 74, Type (0, 0), BuildingBlock: OJICUG_clean_linker_0, # of connection points: 2
#     Edge 75, Type (0, 0), BuildingBlock: OJICUG_clean_linker_0, # of connection points: 2
#     Edge 76, Type (0, 0), BuildingBlock: OJICUG_clean_linker_0, # of connection points: 2
#     Edge 77, Type (0, 0), BuildingBlock: OJICUG_clean_linker_0, # of connection points: 2
#     Edge 78, Type (0, 0), BuildingBlock: OJICUG_clean_linker_0, # of connection points: 2
#     Edge 79, Type (0, 0), BuildingBlock: OJICUG_clean_linker_0, # of connection points: 2
#     Edge 80, Type (0, 0), BuildingBlock: OJICUG_clean_linker_0, # of connection points: 2
#     Edge 81, Type (0, 0), BuildingBlock: OJICUG_clean_linker_0, # of connection points: 2
#     Edge 82, Type (0, 0), BuildingBlock: OJICUG_clean_linker_0, # of connection points: 2
#     Edge 83, Type (0, 0), BuildingBlock: OJICUG_clean_linker_0, # of connection points: 2
#     Edge 84, Type (0, 0), BuildingBlock: OJICUG_clean_linker_0, # of connection points: 2
#     Edge 85, Type (0, 0), BuildingBlock: OJICUG_clean_linker_0, # of connection points: 2
#     Edge 86, Type (0, 0), BuildingBlock: OJICUG_clean_linker_0, # of connection points: 2
#     Edge 87, Type (0, 0), BuildingBlock: OJICUG_clean_linker_0, # of connection points: 2
#     Edge 88, Type (0, 0), BuildingBlock: OJICUG_clean_linker_0, # of connection points: 2
#     Edge 89, Type (0, 0), BuildingBlock: OJICUG_clean_linker_0, # of connection points: 2
#     Edge 90, Type (0, 0), BuildingBlock: OJICUG_clean_linker_0, # of connection points: 2
#     Edge 91, Type (0, 0), BuildingBlock: OJICUG_clean_linker_0, # of connection points: 2
#     Edge 92, Type (0, 0), BuildingBlock: OJICUG_clean_linker_0, # of connection points: 2
#     Edge 93, Type (0, 0), BuildingBlock: OJICUG_clean_linker_0, # of connection points: 2
#     Edge 94, Type (0, 0), BuildingBlock: OJICUG_clean_linker_0, # of connection points: 2
#     Edge 95, Type (0, 0), BuildingBlock: OJICUG_clean_linker_0, # of connection points: 2
#     Edge 96, Type (0, 0), BuildingBlock: OJICUG_clean_linker_0, # of connection points: 2
#     Edge 97, Type (0, 0), BuildingBlock: OJICUG_clean_linker_0, # of connection points: 2
#     Edge 98, Type (0, 0), BuildingBlock: OJICUG_clean_linker_0, # of connection points: 2
#     Edge 99, Type (0, 0), BuildingBlock: OJICUG_clean_linker_0, # of connection points: 2
#     Edge 100, Type (0, 0), BuildingBlock: OJICUG_clean_linker_0, # of connection points: 2
#     Edge 101, Type (0, 0), BuildingBlock: OJICUG_clean_linker_0, # of connection points: 2
#     Edge 102, Type (0, 0), BuildingBlock: OJICUG_clean_linker_0, # of connection points: 2
#     Edge 103, Type (0, 0), BuildingBlock: OJICUG_clean_linker_0, # of connection points: 2
#     Edge 104, Type (0, 0), BuildingBlock: OJICUG_clean_linker_0, # of connection points: 2
#     Edge 105, Type (0, 0), BuildingBlock: OJICUG_clean_linker_0, # of connection points: 2
#     Edge 106, Type (0, 0), BuildingBlock: OJICUG_clean_linker_0, # of connection points: 2
#     Edge 107, Type (0, 0), BuildingBlock: OJICUG_clean_linker_0, # of connection points: 2
#     Edge 108, Type (0, 0), BuildingBlock: OJICUG_clean_linker_0, # of connection points: 2
#     Edge 109, Type (0, 0), BuildingBlock: OJICUG_clean_linker_0, # of connection points: 2
#     Edge 110, Type (0, 0), BuildingBlock: OJICUG_clean_linker_0, # of connection points: 2
#     Edge 111, Type (0, 0), BuildingBlock: OJICUG_clean_linker_0, # of connection points: 2
#     Edge 112, Type (0, 0), BuildingBlock: OJICUG_clean_linker_0, # of connection points: 2
#     Edge 113, Type (0, 0), BuildingBlock: OJICUG_clean_linker_0, # of connection points: 2
#     Edge 114, Type (0, 0), BuildingBlock: OJICUG_clean_linker_0, # of connection points: 2
#     Edge 115, Type (0, 0), BuildingBlock: OJICUG_clean_linker_0, # of connection points: 2
#     Edge 116, Type (0, 0), BuildingBlock: OJICUG_clean_linker_0, # of connection points: 2
#     Edge 117, Type (0, 0), BuildingBlock: OJICUG_clean_linker_0, # of connection points: 2
#     Edge 118, Type (0, 0), BuildingBlock: OJICUG_clean_linker_0, # of connection points: 2
#     Edge 119, Type (0, 0), BuildingBlock: OJICUG_clean_linker_0, # of connection points: 2
#     Edge 120, Type (0, 0), BuildingBlock: OJICUG_clean_linker_0, # of connection points: 2
#     Edge 121, Type (0, 0), BuildingBlock: OJICUG_clean_linker_0, # of connection points: 2
#     Edge 122, Type (0, 0), BuildingBlock: OJICUG_clean_linker_0, # of connection points: 2
#     Edge 123, Type (0, 0), BuildingBlock: OJICUG_clean_linker_0, # of connection points: 2
#     Edge 124, Type (0, 0), BuildingBlock: OJICUG_clean_linker_0, # of connection points: 2
#     Edge 125, Type (0, 0), BuildingBlock: OJICUG_clean_linker_0, # of connection points: 2
#     Edge 126, Type (0, 0), BuildingBlock: OJICUG_clean_linker_0, # of connection points: 2
#     Edge 127, Type (0, 0), BuildingBlock: OJICUG_clean_linker_0, # of connection points: 2
# Relax obj value: 0.253
# Max RMSD: 0.192
# Mean RMSD: 0.192
data_MOF--net-son--node1-VOLQOD_clean_sbu_1--edge1-OJICUG_clean_linker_0
_symmetry_space_group_name_H-M    P1
_symmetry_Int_Tables_number       1
_symmetry_cell_setting            triclinic
loop_
_symmetry_equiv_pos_as_xyz
'x, y, z'
_cell_length_a     95.191399
_cell_length_b     49.520048
_cell_length_c     11.968907
_cell_angle_alpha  90.034418
_cell_angle_beta   89.892453
_cell_angle_gamma 90.002309
loop_
_atom_site_label
_atom_site_type_symbol
_atom_site_fract_x
_atom_site_fract_y
_atom_site_fract_z
_atom_type_partial_charge
O0 O 0.31078 0.20967 0.07519 0.0
Zn1 Zn 0.31477 0.21135 0.23631 0.0
O2 O 0.30203 0.23718 0.29367 0.0
Zn3 Zn 0.28568 0.2161 0.33092 0.0
Zn4 Zn 0.29815 0.26353 0.18449 0.0
Zn5 Zn 0.31093 0.25416 0.41289 0.0
O6 O 0.28486 0.21176 0.49747 0.0
O7 O 0.30391 0.23574 0.54521 0.0
O8 O 0.31034 0.17519 0.29484 0.0
O9 O 0.28777 0.17948 0.2601 0.0
O10 O 0.26839 0.23227 0.26257 0.0
O11 O 0.27787 0.26261 0.14833 0.0
O12 O 0.30275 0.30073 0.23704 0.0
O13 O 0.33462 0.22006 0.26929 0.0
O14 O 0.30629 0.29319 0.41773 0.0
O15 O 0.33187 0.25094 0.40237 0.0
C16 C 0.30821 0.22906 0.00911 0.0
C17 C 0.29373 0.22014 0.56908 0.0
C18 C 0.26726 0.24975 0.18492 0.0
C19 C 0.29883 0.16509 0.26203 0.0
C20 C 0.30446 0.3093 0.3364 0.0
C21 C 0.33967 0.23649 0.34013 0.0
O22 O 0.30735 0.25337 0.04298 0.0
O23 O 0.92763 0.02582 0.06531 0.0
Zn24 Zn 0.92333 0.02381 0.22604 0.0
O25 O 0.9364 -0.00136 0.28393 0.0
Zn26 Zn 0.95242 0.02006 0.3247 0.0
Zn27 Zn 0.94102 0.97343 0.17048 0.0
Zn28 Zn 0.92735 0.98114 0.40152 0.0
O29 O 0.95404 0.02148 0.49136 0.0
O30 O 0.93505 -0.00297 0.53684 0.0
O31 O 0.92671 0.05987 0.28877 0.0
O32 O 0.94963 0.05752 0.2667 0.0
O33 O 0.96967 0.00731 0.2457 0.0
O34 O 0.96076 0.97927 0.1193 0.0
O35 O 0.93873 0.93545 0.22401 0.0
O36 O 0.90359 0.0142 0.25627 0.0
O37 O 0.93168 0.94234 0.39886 0.0
O38 O 0.90636 0.98512 0.39576 0.0
C39 C 0.92948 0.00563 0.00161 0.0
C40 C 0.94552 0.01168 0.56273 0.0
C41 C 0.971 0.9928 0.15834 0.0
C42 C 0.93833 0.07114 0.26629 0.0
C43 C 0.93555 0.92664 0.32073 0.0
C44 C 0.89855 -0.00125 0.33073 0.0
O45 O 0.92924 0.98166 0.03966 0.0
O46 O 0.31493 0.02115 0.19036 0.0
Zn47 Zn 0.31823 0.02127 0.0281 0.0
O48 O 0.30525 0.99559 0.97017 0.0
Zn49 Zn 0.28897 0.01628 0.92845 0.0
Zn50 Zn 0.30053 0.96981 0.08191 0.0
Zn51 Zn 0.31425 0.97757 0.85271 0.0
O52 O 0.28785 0.01856 0.76163 0.0
O53 O 0.30672 0.99363 0.71765 0.0
O54 O 0.31372 0.05842 0.98064 0.0
O55 O 0.29073 0.0536 -0.00855 0.0
O56 O 0.27163 0.00187 0.00108 0.0
O57 O 0.28071 0.97536 0.13197 0.0
O58 O 0.3026 0.93181 0.02716 0.0
O59 O 0.338 0.01347 -0.01285 0.0
O60 O 0.3099 0.93854 0.85319 0.0
O61 O 0.33517 0.98194 0.85692 0.0
C62 C 0.3128 0.00094 0.25317 0.0
C63 C 0.29645 0.00868 0.69102 0.0
C64 C 0.27032 0.98779 0.08955 0.0
C65 C 0.30163 0.06826 -0.00072 0.0
C66 C 0.30585 0.92287 0.9308 0.0
C67 C 0.343 -0.00283 0.91541 0.0
O68 O 0.31224 0.9771 0.21395 0.0
O69 O 0.92286 0.21556 0.18757 0.0
Zn70 Zn 0.9196 0.21466 0.02663 0.0
O71 O 0.93283 0.23939 0.96685 0.0
Zn72 Zn 0.9488 0.21799 0.92419 0.0
Zn73 Zn 0.93817 0.26591 0.07368 0.0
Zn74 Zn 0.92372 0.2561 0.84813 0.0
O75 O 0.94956 0.21405 0.75844 0.0
O76 O 0.93024 0.2376 0.71538 0.0
O77 O 0.92383 0.17725 0.98202 0.0
O78 O 0.94684 0.18165 -0.00699 0.0
O79 O 0.96649 0.23222 -0.01047 0.0
O80 O 0.95837 0.26114 0.1158 0.0
O81 O 0.93571 0.30338 0.01327 0.0
O82 O 0.89983 0.22264 -0.01232 0.0
O83 O 0.92906 0.29428 0.83934 0.0
O84 O 0.90279 0.25387 0.85692 0.0
C85 C 0.92589 0.23522 0.25107 0.0
C86 C 0.94043 0.22232 0.68899 0.0
C87 C 0.9684 0.24764 0.07324 0.0
C88 C 0.93583 0.16737 0.00283 0.0
C89 C 0.93295 0.31089 0.91391 0.0
C90 C 0.89489 0.23911 0.91676 0.0
O91 O 0.92783 0.25899 0.21364 0.0
O92 O 0.67723 0.77738 0.91506 0.0
Zn93 Zn 0.67355 0.77669 0.7529 0.0
O94 O 0.68643 0.75094 0.69492 0.0
Zn95 Zn 0.70305 0.7712 0.65554 0.0
Zn96 Zn 0.69007 0.72481 0.80678 0.0
Zn97 Zn 0.67758 0.73347 0.57641 0.0
O98 O 0.70463 0.77293 0.4871 0.0
O99 O 0.68511 0.75004 0.44237 0.0
O100 O 0.67802 0.8133 0.69917 0.0
O101 O 0.70093 0.80866 0.71728 0.0
O102 O 0.71998 0.75686 0.73705 0.0
O103 O 0.70961 0.72932 0.85839 0.0
O104 O 0.68782 0.68693 0.75076 0.0
O105 O 0.65375 0.76827 0.7155 0.0
O106 O 0.68222 0.69464 0.57376 0.0
O107 O 0.65667 0.73728 0.58298 0.0
C108 C 0.67889 0.75714 0.97867 0.0
C109 C 0.69576 0.76414 0.41603 0.0
C110 C 0.7204 0.74191 0.8238 0.0
C111 C 0.68995 0.82321 0.72245 0.0
C112 C 0.68552 0.67854 0.6519 0.0
C113 C 0.6488 0.75198 0.64362 0.0
O114 O 0.67861 0.73319 0.94015 0.0
O115 O 0.07162 0.00325 0.03112 0.0
Zn116 Zn 0.07137 0.98864 0.87861 0.0
O117 O 0.0565 0.00681 0.80814 0.0
Zn118 Zn 0.04253 0.98374 0.74094 0.0
Zn119 Zn 0.04858 0.03624 0.88302 0.0
Zn120 Zn 0.06604 0.02026 0.68736 0.0
O121 O 0.04359 0.98965 0.57219 0.0
O122 O 0.0665 0.98927 0.58726 0.0
O123 O 0.06618 0.95011 0.88965 0.0
O124 O 0.04692 0.94564 0.78551 0.0
O125 O 0.02361 0.99133 0.81093 0.0
O126 O 0.0291 0.026 0.92049 0.0
O127 O 0.04823 0.06903 0.78365 0.0
O128 O 0.09006 0.99228 0.79834 0.0
O129 O 0.05585 0.05132 0.6239 0.0
O130 O 0.08564 0.03103 0.71555 0.0
C131 C 0.06579 0.02296 0.08159 0.0
C132 C 0.05571 0.98888 0.52643 0.0
C133 C 0.02043 0.00817 0.8876 0.0
C134 C 0.05635 0.93576 0.84903 0.0
C135 C 0.05022 0.07056 0.67827 0.0
C136 C 0.09423 0.01271 0.74297 0.0
O137 O 0.0578 0.03974 0.03167 0.0
O138 O 0.67903 0.96433 0.80043 0.0
Zn139 Zn 0.67498 0.96556 0.96216 0.0
O140 O 0.68793 0.99104 0.02042 0.0
Zn141 Zn 0.70445 0.97032 0.05825 0.0
Zn142 Zn 0.69154 0.01727 0.90875 0.0
Zn143 Zn 0.67914 0.00826 0.13988 0.0
O144 O 0.70628 0.96881 0.22669 0.0
O145 O 0.68686 0.99185 0.27341 0.0
O146 O 0.67902 0.9291 0.01909 0.0
O147 O 0.70192 0.93278 -0.00216 0.0
O148 O 0.72133 0.98409 0.97373 0.0
O149 O 0.71112 0.01296 0.85713 0.0
O150 O 0.68875 0.05512 0.96428 0.0
O151 O 0.65517 0.97467 -0.00309 0.0
O152 O 0.68342 0.04721 0.14186 0.0
O153 O 0.65824 0.00437 0.13412 0.0
C154 C 0.68075 0.98453 0.73666 0.0
C155 C 0.69754 0.97775 0.29874 0.0
C156 C 0.7218 -0.00037 0.88873 0.0
C157 C 0.69079 0.91864 -0.00532 0.0
C158 C 0.68636 0.06345 0.06321 0.0
C159 C 0.65029 0.9905 0.07101 0.0
O160 O 0.68029 0.00851 0.77481 0.0
O161 O 0.06298 0.77619 0.78097 0.0
Zn162 Zn 0.06605 0.77501 0.94633 0.0
O163 O 0.05123 0.7529 0.00452 0.0
Zn164 Zn 0.03557 0.77597 0.04574 0.0
Zn165 Zn 0.0466 0.72789 0.88948 0.0
Zn166 Zn 0.05801 0.73211 0.12318 0.0
O167 O 0.03296 0.77539 0.2156 0.0
O168 O 0.05057 0.74749 0.25887 0.0
O169 O 0.06364 0.81282 -0.00683 0.0
O170 O 0.04038 0.81417 0.00447 0.0
O171 O 0.01845 0.7666 0.95177 0.0
O172 O 0.02792 0.73707 0.83341 0.0
O173 O 0.04612 0.68957 0.93917 0.0
O174 O 0.08499 0.76267 -0.00115 0.0
O175 O 0.05193 0.69413 0.11709 0.0
O176 O 0.07876 0.73307 0.1299 0.0
C177 C 0.06011 0.75601 0.71965 0.0
C178 C 0.04072 0.76332 0.28682 0.0
C179 C 0.01773 0.75184 0.86431 0.0
C180 C 0.0522 0.82598 -0.00456 0.0
C181 C 0.0479 0.67965 0.03591 0.0
C182 C 0.08808 0.74597 0.07593 0.0
O183 O 0.05949 0.73255 0.76198 0.0
O184 O 0.31187 0.71317 0.56912 0.0
Zn185 Zn 0.31514 0.71303 0.73001 0.0
O186 O 0.30171 0.73699 0.79192 0.0
Zn187 Zn 0.28629 0.71352 0.82908 0.0
Zn188 Zn 0.29586 0.76404 0.69205 0.0
Zn189 Zn 0.31052 0.75404 0.91115 0.0
O190 O 0.28694 0.70598 -0.0079 0.0
O191 O 0.30467 0.73332 0.04097 0.0
O192 O 0.31135 0.67538 0.77446 0.0
O193 O 0.28862 0.67893 0.74417 0.0
O194 O 0.26797 0.72912 0.78069 0.0
O195 O 0.27506 0.76459 0.68255 0.0
O196 O 0.30215 0.80082 0.73957 0.0
O197 O 0.33478 0.72216 0.76725 0.0
O198 O 0.30492 0.7926 0.92072 0.0
O199 O 0.33152 0.75308 0.89906 0.0
C200 C 0.30608 0.73031 0.50549 0.0
C201 C 0.29564 0.71516 0.06312 0.0
C202 C 0.26532 0.74937 0.71876 0.0
C203 C 0.29992 0.66531 0.73941 0.0
C204 C 0.30359 0.80906 0.83981 0.0
C205 C 0.33957 0.73894 0.8377 0.0
O206 O 0.30126 0.75274 0.5406 0.0
O207 O 0.93128 0.51505 0.49945 0.0
Zn208 Zn 0.9262 0.51528 0.65844 0.0
O209 O 0.9399 0.49353 0.72877 0.0
Zn210 Zn 0.95589 0.51615 0.76265 0.0
Zn211 Zn 0.94466 0.46508 0.62738 0.0
Zn212 Zn 0.93103 0.47944 0.85508 0.0
O213 O 0.95932 0.51726 0.92979 0.0
O214 O 0.94021 0.49454 -0.01588 0.0
O215 O 0.92855 0.55331 0.70223 0.0
O216 O 0.95181 0.55367 0.70856 0.0
O217 O 0.97261 0.50375 0.67358 0.0
O218 O 0.96481 0.46685 0.58825 0.0
O219 O 0.94035 0.42876 0.69066 0.0
O220 O 0.90642 0.50394 0.69137 0.0
O221 O 0.9333 0.43993 0.86163 0.0
O222 O 0.91055 0.48749 0.86052 0.0
C223 C 0.93512 0.49536 0.43899 0.0
C224 C 0.9512 0.50801 0.00544 0.0
C225 C 0.97444 0.48402 0.60659 0.0
C226 C 0.94016 0.56586 0.69557 0.0
C227 C 0.93657 0.42229 0.78915 0.0
C228 C 0.90206 0.49526 0.78531 0.0
O229 O 0.93611 0.47162 0.47881 0.0
O230 O 0.31573 0.52233 0.67243 0.0
Zn231 Zn 0.31919 0.52195 0.50972 0.0
O232 O 0.30607 0.49642 0.45177 0.0
Zn233 Zn 0.28982 0.51699 0.40883 0.0
Zn234 Zn 0.30156 0.47113 0.56603 0.0
Zn235 Zn 0.31485 0.47756 0.33556 0.0
O236 O 0.2882 0.51741 0.24156 0.0
O237 O 0.30708 0.4924 0.1989 0.0
O238 O 0.31508 0.55913 0.46004 0.0
O239 O 0.29201 0.55495 0.46346 0.0
O240 O 0.27271 0.50402 0.48965 0.0
O241 O 0.28213 0.478 0.62105 0.0
O242 O 0.30292 0.43286 0.51417 0.0
O243 O 0.33887 0.51317 0.46963 0.0
O244 O 0.31046 0.43861 0.34039 0.0
O245 O 0.33575 0.48181 0.33882 0.0
C246 C 0.31399 0.50178 0.73414 0.0
C247 C 0.29664 0.50689 0.17123 0.0
C248 C 0.27171 0.49067 0.58039 0.0
C249 C 0.30297 0.56942 0.47235 0.0
C250 C 0.3062 0.42341 0.4188 0.0
C251 C 0.3437 0.49672 0.39771 0.0
O252 O 0.31415 0.47814 0.69293 0.0
O253 O 0.92636 0.71408 0.6728 0.0
Zn254 Zn 0.9226 0.7153 0.51055 0.0
O255 O 0.93547 0.741 0.45333 0.0
Zn256 Zn 0.95216 0.72111 0.41464 0.0
Zn257 Zn 0.93872 0.76731 0.56497 0.0
Zn258 Zn 0.92689 0.7583 0.33374 0.0
O259 O 0.95379 0.7189 0.24632 0.0
O260 O 0.93414 0.74108 0.20019 0.0
O261 O 0.92716 0.67892 0.45561 0.0
O262 O 0.95011 0.68349 0.47502 0.0
O263 O 0.96894 0.73678 0.49397 0.0
O264 O 0.95854 0.76528 0.6115 0.0
O265 O 0.93538 0.80471 0.5103 0.0
O266 O 0.9028 0.72406 0.47269 0.0
O267 O 0.93171 0.797 0.33007 0.0
O268 O 0.90606 0.7551 0.34091 0.0
C269 C 0.92819 0.73405 0.73765 0.0
C270 C 0.94481 0.72697 0.17478 0.0
C271 C 0.96943 0.75307 0.57658 0.0
C272 C 0.93912 0.66887 0.47693 0.0
C273 C 0.93392 0.81313 0.4106 0.0
C274 C 0.89803 0.74062 0.40104 0.0
O275 O 0.928 0.75815 0.70101 0.0
O276 O 0.67602 0.27576 0.423 0.0
Zn277 Zn 0.67236 0.27535 0.26057 0.0
O278 O 0.68513 0.24944 0.20194 0.0
Zn279 Zn 0.70193 0.26906 0.16154 0.0
Zn280 Zn 0.68852 0.22336 0.31477 0.0
Zn281 Zn 0.6762 0.23173 0.08419 0.0
O282 O 0.70387 0.26915 -0.00721 0.0
O283 O 0.68399 0.24731 0.94922 0.0
O284 O 0.67688 0.31202 0.20831 0.0
O285 O 0.69992 0.30729 0.21514 0.0
O286 O 0.71858 0.25541 0.24916 0.0
O287 O 0.70779 0.22843 0.37039 0.0
O288 O 0.68662 0.18538 0.25939 0.0
O289 O 0.65255 0.26721 0.2226 0.0
O290 O 0.68055 0.19276 0.08326 0.0
O291 O 0.65534 0.2362 0.08985 0.0
C292 C 0.67729 0.25524 0.48554 0.0
C293 C 0.69492 0.26046 0.92202 0.0
C294 C 0.71867 0.24099 0.33754 0.0
C295 C 0.68902 0.32202 0.22242 0.0
C296 C 0.68408 0.17681 0.16122 0.0
C297 C 0.64754 0.25107 0.15041 0.0
O298 O 0.67651 0.23151 0.44525 0.0
O299 O 0.0635 0.46903 0.36182 0.0
Zn300 Zn 0.06689 0.4703 0.19727 0.0
O301 O 0.0524 0.49283 0.13854 0.0
Zn302 Zn 0.03656 0.47034 0.09711 0.0
Zn303 Zn 0.04791 0.5177 0.25419 0.0
Zn304 Zn 0.05971 0.51345 0.02107 0.0
O305 O 0.03371 0.47246 0.92794 0.0
O306 O 0.05229 0.49815 0.88498 0.0
O307 O 0.06455 0.43279 0.14722 0.0
O308 O 0.04134 0.43178 0.13156 0.0
O309 O 0.01976 0.47854 0.19769 0.0
O310 O 0.02953 0.50797 0.31449 0.0
O311 O 0.04704 0.55587 0.20379 0.0
O312 O 0.08597 0.4827 0.15069 0.0
O313 O 0.05351 0.55144 0.02696 0.0
O314 O 0.0806 0.51255 0.01832 0.0
C315 C 0.06115 0.48952 0.42275 0.0
C316 C 0.04192 0.48358 0.85695 0.0
C317 C 0.01935 0.49292 0.28642 0.0
C318 C 0.05309 0.41977 0.14113 0.0
C319 C 0.04904 0.5658 0.10726 0.0
C320 C 0.08956 0.49948 0.07535 0.0
O321 O 0.06106 0.51294 0.37962 0.0
O322 O 0.68058 0.46729 0.28323 0.0
Zn323 Zn 0.67647 0.46835 0.44443 0.0
O324 O 0.68966 0.49307 0.50426 0.0
Zn325 Zn 0.70586 0.47124 0.54082 0.0
Zn326 Zn 0.69385 0.51964 0.39507 0.0
Zn327 Zn 0.6809 0.50993 0.62505 0.0
O328 O 0.70754 0.46861 0.70862 0.0
O329 O 0.68862 0.49289 0.75723 0.0
O330 O 0.6801 0.43163 0.49941 0.0
O331 O 0.70302 0.43415 0.47611 0.0
O332 O 0.72307 0.48506 0.46183 0.0
O333 O 0.71376 0.5159 0.34931 0.0
O334 O 0.69065 0.55726 0.45178 0.0
O335 O 0.65671 0.47762 0.47965 0.0
O336 O 0.68517 0.54889 0.62882 0.0
O337 O 0.65997 0.50604 0.62097 0.0
C338 C 0.68307 0.48715 0.21927 0.0
C339 C 0.69901 0.47792 0.78135 0.0
C340 C 0.72415 0.50177 0.38121 0.0
C341 C 0.69168 0.42063 0.47327 0.0
C342 C 0.68812 0.56534 0.55086 0.0
C343 C 0.65193 0.49277 0.55648 0.0
O344 O 0.68347 0.51123 0.25641 0.0
O345 O 0.07471 0.24925 0.15771 0.0
Zn346 Zn 0.07317 0.26101 0.31399 0.0
O347 O 0.05783 0.24197 0.37803 0.0
Zn348 Zn 0.04373 0.26619 0.43656 0.0
Zn349 Zn 0.05006 0.21414 0.29003 0.0
Zn350 Zn 0.06699 0.224 0.49133 0.0
O351 O 0.04576 0.26843 0.60413 0.0
O352 O 0.06652 0.248 0.61713 0.0
O353 O 0.06826 0.29943 0.29759 0.0
O354 O 0.04682 0.30264 0.3697 0.0
O355 O 0.02437 0.25583 0.3833 0.0
O356 O 0.03012 0.22316 0.26452 0.0
O357 O 0.05044 0.17731 0.36213 0.0
O358 O 0.09101 0.25766 0.40318 0.0
O359 O 0.05712 0.1906 0.53074 0.0
O360 O 0.08722 0.21649 0.46609 0.0
C361 C 0.06721 0.2335 0.09863 0.0
C362 C 0.05693 0.2627 0.65794 0.0
C363 C 0.02111 0.23924 0.30609 0.0
C364 C 0.05716 0.31284 0.31718 0.0
C365 C 0.05193 0.1729 0.46625 0.0
C366 C 0.09532 0.23655 0.45289 0.0
O367 O 0.0585 0.2169 0.141 0.0
O368 O 0.80744 0.21075 0.55615 0.0
Zn369 Zn 0.81147 0.21256 0.71831 0.0
O370 O 0.79854 0.23829 0.77568 0.0
Zn371 Zn 0.78198 0.21761 0.81314 0.0
Zn372 Zn 0.79522 0.26437 0.66323 0.0
Zn373 Zn 0.8071 0.25565 0.89543 0.0
O374 O 0.78023 0.21529 0.98176 0.0
O375 O 0.79925 0.23937 0.0291 0.0
O376 O 0.80718 0.17643 0.77776 0.0
O377 O 0.78444 0.18037 0.74915 0.0
O378 O 0.76515 0.23218 0.73078 0.0
O379 O 0.7755 0.26104 0.6145 0.0
O380 O 0.79869 0.30217 0.71595 0.0
O381 O 0.83126 0.22163 0.75436 0.0
O382 O 0.80306 0.29473 0.8954 0.0
O383 O 0.82794 0.25144 0.89102 0.0
C384 C 0.80569 0.23078 0.49156 0.0
C385 C 0.78877 0.22467 0.05415 0.0
C386 C 0.76473 0.24804 0.64681 0.0
C387 C 0.79556 0.16616 0.74816 0.0
C388 C 0.80079 0.31078 0.81476 0.0
C389 C 0.836 0.23749 0.82886 0.0
O390 O 0.8062 0.25485 0.52856 0.0
O391 O 0.43052 0.02685 0.5581 0.0
Zn392 Zn 0.42654 0.02562 0.71997 0.0
O393 O 0.43969 0.00047 0.77801 0.0
Zn394 Zn 0.4561 0.02157 0.81577 0.0
Zn395 Zn 0.44349 0.97425 0.66657 0.0
Zn396 Zn 0.43104 0.98313 0.89774 0.0
O397 O 0.45786 0.02347 -0.01578 0.0
O398 O 0.43864 -0.00015 0.03107 0.0
O399 O 0.43047 0.06221 0.77626 0.0
O400 O 0.45338 0.05891 0.754 0.0
O401 O 0.47311 0.00795 0.73239 0.0
O402 O 0.46311 0.97876 0.61591 0.0
O403 O 0.44083 0.93638 0.72211 0.0
O404 O 0.40677 0.01619 0.75585 0.0
O405 O 0.43558 0.9443 0.8999 0.0
O406 O 0.41011 0.98652 0.89255 0.0
C407 C 0.43249 0.00676 0.49411 0.0
C408 C 0.44918 0.01434 0.05631 0.0
C409 C 0.47371 0.99228 0.6478 0.0
C410 C 0.44217 0.07282 0.75076 0.0
C411 C 0.43855 0.92807 0.82119 0.0
C412 C 0.40203 0.00025 0.83006 0.0
O413 O 0.43233 0.98274 0.53191 0.0
O414 O 0.81043 0.02602 0.66389 0.0
Zn415 Zn 0.81422 0.02549 0.50205 0.0
O416 O 0.80145 -0.0004 0.44407 0.0
Zn417 Zn 0.78475 0.01946 0.40463 0.0
Zn418 Zn 0.79793 0.97334 0.55582 0.0
Zn419 Zn 0.81044 0.98231 0.32572 0.0
O420 O 0.78305 0.02048 0.23624 0.0
O421 O 0.803 -0.0011 0.19162 0.0
O422 O 0.80977 0.06215 0.4487 0.0
O423 O 0.78682 0.0572 0.46316 0.0
O424 O 0.76793 0.0055 0.48954 0.0
O425 O 0.77849 0.97801 0.60973 0.0
O426 O 0.80022 0.93547 0.49911 0.0
O427 O 0.83406 0.01689 0.46664 0.0
O428 O 0.80582 0.94352 0.3222 0.0
O429 O 0.83136 0.98583 0.3342 0.0
C430 C 0.80899 0.00567 0.72722 0.0
C431 C 0.79212 0.0123 0.16525 0.0
C432 C 0.76768 0.99073 0.57689 0.0
C433 C 0.79772 0.07194 0.4693 0.0
C434 C 0.80256 0.92726 0.39996 0.0
C435 C 0.83914 0.00044 0.3958 0.0
O436 O 0.80952 0.98177 0.6882 0.0
O437 O 0.42784 0.21372 0.67443 0.0
Zn438 Zn 0.42409 0.21434 0.5124 0.0
O439 O 0.43673 0.24048 0.4545 0.0
Zn440 Zn 0.45353 0.22079 0.41485 0.0
Zn441 Zn 0.44011 0.26659 0.56696 0.0
Zn442 Zn 0.42766 0.25778 0.33669 0.0
O443 O 0.45519 0.21972 0.24622 0.0
O444 O 0.4353 0.24152 0.20229 0.0
O445 O 0.42873 0.17794 0.45729 0.0
O446 O 0.45163 0.18302 0.47399 0.0
O447 O 0.47029 0.23518 0.49899 0.0
O448 O 0.45952 0.2621 0.62067 0.0
O449 O 0.43797 0.30447 0.51076 0.0
O450 O 0.40425 0.22232 0.47642 0.0
O451 O 0.43218 0.29668 0.33417 0.0
O452 O 0.40674 0.2535 0.34424 0.0
C453 C 0.42913 0.2341 0.7379 0.0
C454 C 0.44617 0.22809 0.17546 0.0
C455 C 0.47043 0.2498 0.58688 0.0
C456 C 0.44074 0.16821 0.479 0.0
C457 C 0.4356 0.31281 0.41196 0.0
C458 C 0.39907 0.23851 0.40528 0.0
O459 O 0.42844 0.25798 0.69897 0.0
O460 O 0.16873 0.76281 0.55503 0.0
Zn461 Zn 0.16631 0.76636 0.39202 0.0
O462 O 0.18066 0.74384 0.32894 0.0
Zn463 Zn 0.19648 0.76545 0.27991 0.0
Zn464 Zn 0.18642 0.71723 0.4365 0.0
Zn465 Zn 0.17261 0.72471 0.21123 0.0
O466 O 0.19964 0.76111 0.11343 0.0
O467 O 0.17921 0.741 0.07509 0.0
O468 O 0.17004 0.80496 0.36083 0.0
O469 O 0.19227 0.80451 0.30452 0.0
O470 O 0.21329 0.75822 0.37656 0.0
O471 O 0.20485 0.72822 0.49746 0.0
O472 O 0.18842 0.67951 0.37268 0.0
O473 O 0.14711 0.75771 0.33446 0.0
O474 O 0.17952 0.68758 0.20492 0.0
O475 O 0.15182 0.72565 0.20987 0.0
C476 C 0.17191 0.74207 0.61197 0.0
C477 C 0.19038 0.75281 0.04476 0.0
C478 C 0.21449 0.7442 0.46537 0.0
C479 C 0.18122 0.8172 0.33279 0.0
C480 C 0.18553 0.67199 0.27371 0.0
C481 C 0.14316 0.74072 0.26115 0.0
O482 O 0.17344 0.71919 0.56512 0.0
O483 O 0.56262 0.9676 0.42294 0.0
Zn484 Zn 0.5664 0.96825 0.26065 0.0
O485 O 0.5535 0.99388 0.20231 0.0
Zn486 Zn 0.53688 0.97361 0.16291 0.0
Zn487 Zn 0.54984 0.01989 0.31516 0.0
Zn488 Zn 0.56241 0.0116 0.08414 0.0
O489 O 0.53498 0.97311 -0.00569 0.0
O490 O 0.55453 -0.00404 0.94961 0.0
O491 O 0.56219 0.93158 0.20676 0.0
O492 O 0.53917 0.93559 0.2186 0.0
O493 O 0.52006 0.98696 0.24977 0.0
O494 O 0.53051 0.01451 0.37049 0.0
O495 O 0.55174 0.05791 0.25988 0.0
O496 O 0.58617 0.97671 0.22309 0.0
O497 O 0.55809 0.05059 0.08406 0.0
O498 O 0.58331 0.0071 0.0883 0.0
C499 C 0.56115 0.98805 0.48575 0.0
C500 C 0.54375 0.9823 0.92303 0.0
C501 C 0.51977 0.00155 0.33772 0.0
C502 C 0.55021 0.92123 0.22437 0.0
C503 C 0.55444 0.06653 0.16197 0.0
C504 C 0.59115 0.99256 0.14961 0.0
O505 O 0.56176 0.01184 0.4459 0.0
O506 O 0.16919 -0.00186 0.21585 0.0
Zn507 Zn 0.16894 0.98507 0.37022 0.0
O508 O 0.18414 0.00305 0.43784 0.0
Zn509 Zn 0.19799 0.97953 0.50372 0.0
Zn510 Zn 0.19234 0.03152 0.35948 0.0
Zn511 Zn 0.17509 0.01795 0.55849 0.0
O512 O 0.19746 0.98603 0.6718 0.0
O513 O 0.17449 0.98731 0.65948 0.0
O514 O 0.1729 0.94582 0.36888 0.0
O515 O 0.19262 0.94137 0.46729 0.0
O516 O 0.21683 0.98554 0.42957 0.0
O517 O 0.21157 0.02014 0.31909 0.0
O518 O 0.19337 0.06481 0.45499 0.0
O519 O 0.15031 0.99103 0.44796 0.0
O520 O 0.18566 0.04932 0.61818 0.0
O521 O 0.15545 0.02913 0.53356 0.0
C522 C 0.17493 0.01778 0.16431 0.0
C523 C 0.1854 0.98554 0.7185 0.0
C524 C 0.22006 0.00196 0.35156 0.0
C525 C 0.18256 0.93129 0.41088 0.0
C526 C 0.19145 0.06771 0.55993 0.0
C527 C 0.14653 0.01153 0.50455 0.0
O528 O 0.1827 0.03507 0.21336 0.0
O529 O 0.56109 0.77768 0.2937 0.0
Zn530 Zn 0.56501 0.77681 0.45516 0.0
O531 O 0.552 0.75154 0.5143 0.0
Zn532 Zn 0.53561 0.77265 0.55247 0.0
Zn533 Zn 0.54809 0.72512 0.40401 0.0
Zn534 Zn 0.56082 0.73444 0.63384 0.0
O535 O 0.53403 0.77506 0.72047 0.0
O536 O 0.55321 0.75135 0.76697 0.0
O537 O 0.56095 0.8135 0.50956 0.0
O538 O 0.53805 0.80985 0.48823 0.0
O539 O 0.51851 0.75843 0.47359 0.0
O540 O 0.52832 0.72907 0.35663 0.0
O541 O 0.55103 0.68738 0.46003 0.0
O542 O 0.58479 0.76797 0.49063 0.0
O543 O 0.55643 0.69548 0.63726 0.0
O544 O 0.58173 0.73828 0.62775 0.0
C545 C 0.55899 0.75765 0.22971 0.0
C546 C 0.54272 0.76601 0.79225 0.0
C547 C 0.51774 0.74246 0.39019 0.0
C548 C 0.54921 0.8239 0.48418 0.0
C549 C 0.55344 0.67916 0.55897 0.0
C550 C 0.58968 0.75224 0.5648 0.0
O551 O 0.55888 0.7336 0.26717 0.0
O552 O 0.8113 0.71673 0.02678 0.0
Zn553 Zn 0.81539 0.71782 0.18816 0.0
O554 O 0.80184 0.7417 0.24941 0.0
Zn555 Zn 0.78586 0.71915 0.28594 0.0
Zn556 Zn 0.79748 0.76816 0.14008 0.0
Zn557 Zn 0.81028 0.75901 0.37044 0.0
O558 O 0.78389 0.71696 0.45434 0.0
O559 O 0.80242 0.74227 0.50265 0.0
O560 O 0.8124 0.68079 0.24174 0.0
O561 O 0.78939 0.68204 0.22342 0.0
O562 O 0.7686 0.7318 0.20379 0.0
O563 O 0.77781 0.76316 0.09291 0.0
O564 O 0.79983 0.80596 0.19726 0.0
O565 O 0.83494 0.72787 0.22481 0.0
O566 O 0.80572 0.79785 0.37341 0.0
O567 O 0.83118 0.75531 0.36892 0.0
C568 C 0.80866 0.73663 0.96351 0.0
C569 C 0.79214 0.72703 0.52718 0.0
C570 C 0.76754 0.74846 0.123 0.0
C571 C 0.80092 0.66913 0.21886 0.0
C572 C 0.80234 0.81414 0.29612 0.0
C573 C 0.83944 0.74261 0.30393 0.0
O574 O 0.80819 0.76061 0.00167 0.0
O575 O 0.43138 0.52361 0.0411 0.0
Zn576 Zn 0.42716 0.52256 0.20196 0.0
O577 O 0.44043 0.49812 0.26243 0.0
Zn578 Zn 0.45655 0.52011 0.29943 0.0
Zn579 Zn 0.44467 0.47154 0.15314 0.0
Zn580 Zn 0.43169 0.4812 0.38301 0.0
O581 O 0.45844 0.52209 0.46731 0.0
O582 O 0.43942 0.49806 0.51552 0.0
O583 O 0.43045 0.55944 0.25672 0.0
O584 O 0.45346 0.55743 0.23812 0.0
O585 O 0.47371 0.50706 0.21741 0.0
O586 O 0.46446 0.47596 0.10558 0.0
O587 O 0.44172 0.43382 0.2101 0.0
O588 O 0.40745 0.51277 0.23567 0.0
O589 O 0.43599 0.44229 0.38658 0.0
O590 O 0.41076 0.48485 0.3785 0.0
C591 C 0.43379 0.50364 0.9775 0.0
C592 C 0.44991 0.51276 0.53994 0.0
C593 C 0.47476 0.4905 0.1362 0.0
C594 C 0.44206 0.57076 0.23415 0.0
C595 C 0.43908 0.4258 0.30907 0.0
C596 C 0.4027 0.49772 0.31285 0.0
O597 O 0.43406 0.47961 0.01521 0.0
O598 O 0.81534 0.52011 0.1724 0.0
Zn599 Zn 0.81924 0.52024 0.01036 0.0
O600 O 0.80541 0.49707 0.94622 0.0
Zn601 Zn 0.78928 0.51889 0.90634 0.0
Zn602 Zn 0.80067 0.47099 0.05732 0.0
Zn603 Zn 0.81374 0.47902 0.82518 0.0
O604 O 0.78663 0.51892 0.73828 0.0
O605 O 0.80505 0.49321 0.69191 0.0
O606 O 0.81612 0.55832 0.96805 0.0
O607 O 0.79291 0.5566 0.95764 0.0
O608 O 0.77219 0.50806 -0.00419 0.0
O609 O 0.7815 0.47817 0.1124 0.0
O610 O 0.80158 0.43331 0.00019 0.0
O611 O 0.83882 0.5093 0.97024 0.0
O612 O 0.80983 0.43968 0.82876 0.0
O613 O 0.83448 0.48492 0.81818 0.0
C614 C 0.8128 0.49968 0.23288 0.0
C615 C 0.79456 0.50766 0.66599 0.0
C616 C 0.7713 0.49287 0.08156 0.0
C617 C 0.80419 0.56979 0.97337 0.0
C618 C 0.80514 0.42424 0.90487 0.0
C619 C 0.84304 0.49632 0.88466 0.0
O620 O 0.81257 0.47616 0.19046 0.0
O621 O 0.42716 0.7166 0.18299 0.0
Zn622 Zn 0.42353 0.71686 0.02104 0.0
O623 O 0.43648 0.7423 0.96185 0.0
Zn624 Zn 0.45303 0.72199 0.92113 0.0
Zn625 Zn 0.44037 0.76833 0.07396 0.0
Zn626 Zn 0.42754 0.76011 0.84427 0.0
O627 O 0.45478 0.72136 0.75289 0.0
O628 O 0.43515 0.74405 0.70946 0.0
O629 O 0.42773 0.67991 0.97025 0.0
O630 O 0.4508 0.68406 0.97714 0.0
O631 O 0.46999 0.73536 0.005 0.0
O632 O 0.45973 0.7627 0.12776 0.0
O633 O 0.43873 0.80626 0.01789 0.0
O634 O 0.4038 0.72542 0.98369 0.0
O635 O 0.43222 0.79894 0.84262 0.0
O636 O 0.40659 0.75624 0.85047 0.0
C637 C 0.42876 0.73703 0.24562 0.0
C638 C 0.4459 0.73033 0.68232 0.0
C639 C 0.47043 0.74984 0.09314 0.0
C640 C 0.43979 0.66966 -0.01473 0.0
C641 C 0.43607 0.81484 0.91995 0.0
C642 C 0.39878 0.74157 0.9117 0.0
O643 O 0.42848 0.76082 0.20566 0.0
O644 O 0.17106 0.26693 -0.00367 0.0
Zn645 Zn 0.16904 0.26895 0.83057 0.0
O646 O 0.18407 0.2468 0.77347 0.0
Zn647 Zn 0.19987 0.26893 0.72742 0.0
Zn648 Zn 0.18936 0.22088 0.8848 0.0
Zn649 Zn 0.17715 0.22631 0.6554 0.0
O650 O 0.20235 0.26757 0.55771 0.0
O651 O 0.18331 0.24303 0.51915 0.0
O652 O 0.1726 0.30778 0.79824 0.0
O653 O 0.19559 0.30736 0.76489 0.0
O654 O 0.21702 0.26012 0.82049 0.0
O655 O 0.20773 0.2318 0.94454 0.0
O656 O 0.1914 0.18265 0.82814 0.0
O657 O 0.15013 0.25827 0.76663 0.0
O658 O 0.18491 0.18969 0.65304 0.0
O659 O 0.15646 0.22521 0.6513 0.0
C660 C 0.17443 0.24671 0.05581 0.0
C661 C 0.19357 0.25752 0.48875 0.0
C662 C 0.21781 0.24654 0.91094 0.0
C663 C 0.18423 0.32001 0.78503 0.0
C664 C 0.18994 0.17451 0.7281 0.0
C665 C 0.14707 0.23993 0.69577 0.0
O666 O 0.17612 0.22362 0.01136 0.0
O667 O 0.56498 0.46761 0.9197 0.0
Zn668 Zn 0.56838 0.46763 0.75696 0.0
O669 O 0.55531 0.49315 0.69896 0.0
Zn670 Zn 0.53872 0.47296 0.65841 0.0
Zn671 Zn 0.55141 0.51918 0.81143 0.0
Zn672 Zn 0.56408 0.51118 0.58098 0.0
O673 O 0.53702 0.47206 0.48991 0.0
O674 O 0.55651 0.49518 0.44622 0.0
O675 O 0.56392 0.43053 0.70853 0.0
O676 O 0.54088 0.43521 0.71603 0.0
O677 O 0.52176 0.48638 0.74286 0.0
O678 O 0.53211 0.51324 0.86671 0.0
O679 O 0.55295 0.55722 0.75572 0.0
O680 O 0.58812 0.47605 0.71595 0.0
O681 O 0.55937 0.54998 0.58004 0.0
O682 O 0.58498 0.50745 0.58557 0.0
C683 C 0.56329 0.48804 0.98227 0.0
C684 C 0.54585 0.48124 0.41914 0.0
C685 C 0.52139 0.50049 0.83206 0.0
C686 C 0.5518 0.42063 0.72519 0.0
C687 C 0.55556 0.56585 0.6577 0.0
C688 C 0.59296 0.49256 0.64429 0.0
O689 O 0.56345 0.51181 0.94208 0.0
O690 O 0.17533 0.50335 0.68804 0.0
Zn691 Zn 0.17297 0.48741 0.83632 0.0
O692 O 0.18601 0.50513 0.92846 0.0
Zn693 Zn 0.19988 0.48086 -0.00701 0.0
Zn694 Zn 0.19496 0.53544 0.86334 0.0
Zn695 Zn 0.1753 0.51603 0.05147 0.0
O696 O 0.20024 0.48905 0.1596 0.0
O697 O 0.17745 0.48535 0.15218 0.0
O698 O 0.17734 0.4484 0.83214 0.0
O699 O 0.19444 0.4425 0.95691 0.0
O700 O 0.21856 0.48681 0.91873 0.0
O701 O 0.21473 0.5257 0.83175 0.0
O702 O 0.19421 0.56706 0.96896 0.0
O703 O 0.15298 0.49127 0.88608 0.0
O704 O 0.18312 0.54976 0.11643 0.0
O705 O 0.15502 0.52103 0.02302 0.0
C706 C 0.18072 0.52487 0.64882 0.0
C707 C 0.18841 0.48884 0.20946 0.0
C708 C 0.22261 0.50573 0.85429 0.0
C709 C 0.18565 0.43318 0.8863 0.0
C710 C 0.18991 0.56883 0.0699 0.0
C711 C 0.14751 0.50696 0.95794 0.0
O712 O 0.18749 0.54162 0.70911 0.0
O713 O 0.55975 0.27903 0.80079 0.0
Zn714 Zn 0.56392 0.27748 0.96215 0.0
O715 O 0.55086 0.25235 0.02102 0.0
Zn716 Zn 0.5345 0.27376 0.0579 0.0
Zn717 Zn 0.54717 0.22602 0.91012 0.0
Zn718 Zn 0.55954 0.23524 0.14094 0.0
O719 O 0.53273 0.27596 0.22641 0.0
O720 O 0.5518 0.25204 0.2739 0.0
O721 O 0.56017 0.31385 0.02101 0.0
O722 O 0.53735 0.31102 -0.00548 0.0
O723 O 0.51751 0.25987 0.97557 0.0
O724 O 0.52745 0.22985 0.86209 0.0
O725 O 0.55022 0.18824 0.96547 0.0
O726 O 0.58367 0.26803 -0.00419 0.0
O727 O 0.55521 0.19626 0.14352 0.0
O728 O 0.58045 0.23906 0.1354 0.0
C729 C 0.55774 0.25903 0.73645 0.0
C730 C 0.5413 0.26672 0.29877 0.0
C731 C 0.51686 0.24356 0.89312 0.0
C732 C 0.54864 0.32472 -0.00686 0.0
C733 C 0.55246 0.17996 0.06459 0.0
C734 C 0.58846 0.25253 0.07118 0.0
O735 O 0.55794 0.23494 0.77352 0.0
C736 C 0.23061 0.23484 0.08582 0.0
C737 C 0.23028 0.2487 0.98321 0.0
H738 H 0.24239 0.22485 0.23155 0.0
C739 C 0.24169 0.26509 0.95316 0.0
H740 H 0.22189 0.2223 0.11253 0.0
C741 C 0.25342 0.26673 0.02247 0.0
C742 C 0.25396 0.25195 0.12287 0.0
H743 H 0.24166 0.27629 0.87553 0.0
H744 H 0.26226 0.27882 -0.00497 0.0
C745 C 0.24231 0.23646 0.15494 0.0
C746 C 0.00574 0.01883 0.05368 0.0
C747 C 0.00738 0.00466 0.95261 0.0
H748 H 0.99332 0.02553 0.19916 0.0
C749 C -0.00279 0.98553 0.9218 0.0
H750 H 0.01346 0.03347 0.08111 0.0
C751 C 0.98556 0.98088 -0.00948 0.0
C752 C 0.98398 0.99511 0.09168 0.0
H753 H -0.00174 0.9741 0.84506 0.0
H754 H 0.97773 0.9664 0.9637 0.0
C755 C 0.99425 0.01399 0.12255 0.0
C756 C 0.24363 0.98024 0.32241 0.0
C757 C 0.23308 -0.00194 0.28668 0.0
H758 H 0.26371 0.9627 0.28725 0.0
C759 C 0.23454 0.01099 0.18272 0.0
H760 H 0.24272 0.96977 0.40153 0.0
C761 C 0.24631 0.00654 0.11651 0.0
C762 C 0.25704 0.98927 0.15298 0.0
H763 H 0.2265 0.02449 0.15143 0.0
H764 H 0.24712 0.01722 0.03778 0.0
C765 C 0.25556 0.97599 0.25634 0.0
C766 C 0.00458 0.22488 0.15707 0.0
C767 C 0.00723 0.2408 0.25203 0.0
H768 H 0.99057 0.21514 0.02479 0.0
C769 C -0.0029 0.2597 0.28644 0.0
H770 H 0.01217 0.21023 0.12744 0.0
C771 C 0.98457 0.26259 0.22667 0.0
C772 C 0.98206 0.24676 0.13104 0.0
H773 H -0.00112 0.27243 0.35871 0.0
H774 H 0.97686 0.27705 0.25574 0.0
C775 C 0.99222 0.22794 0.09709 0.0
C776 C 0.73303 0.72713 -0.00413 0.0
C777 C 0.73287 0.74235 0.89651 0.0
H778 H 0.74389 0.71759 0.14694 0.0
C779 C 0.74394 0.76028 0.87482 0.0
H780 H 0.72457 0.71329 0.0158 0.0
C781 C 0.75488 0.76307 0.95109 0.0
C782 C 0.75505 0.74784 0.05039 0.0
H783 H 0.74406 0.77256 0.79995 0.0
H784 H 0.76331 0.77696 0.93106 0.0
C785 C 0.744 0.72984 0.072 0.0
C786 C 0.74443 0.00989 0.63296 0.0
C787 C 0.75548 0.9918 0.65291 0.0
H788 H 0.72541 0.02729 0.69356 0.0
C789 C 0.75569 0.97719 0.75383 0.0
H790 H 0.74405 0.02173 0.55697 0.0
C791 C 0.7451 0.98064 0.83313 0.0
C792 C 0.73404 -0.0013 0.81311 0.0
H793 H 0.76413 0.96326 0.77254 0.0
H794 H 0.74548 0.9688 0.9091 0.0
C795 C 0.73385 0.01336 0.71231 0.0
C796 C 0.98244 0.77061 0.74267 0.0
C797 C 0.9823 0.75502 0.64408 0.0
H798 H 0.99365 0.78158 0.89086 0.0
C799 C 0.99397 0.73896 0.61812 0.0
H800 H 0.97356 0.78316 0.76542 0.0
C801 C 0.00534 0.73782 0.6907 0.0
C802 C 0.00536 0.75286 0.79065 0.0
H803 H 0.99419 0.72664 0.54335 0.0
H804 H 0.01408 0.7249 0.6683 0.0
C805 C 0.99387 0.76954 0.81532 0.0
C806 C 0.23731 0.76655 0.50999 0.0
C807 C 0.22698 0.74738 0.53648 0.0
H808 H 0.25738 0.78294 0.5497 0.0
C809 C 0.22849 0.73166 0.63359 0.0
H810 H 0.23629 0.77938 0.43714 0.0
C811 C 0.24055 0.73383 0.69877 0.0
C812 C 0.25129 0.75179 0.66825 0.0
H813 H 0.22056 0.71711 0.65781 0.0
H814 H 0.24172 0.72051 0.76994 0.0
C815 C 0.24932 0.76883 0.57554 0.0
C816 C 0.98708 0.46707 0.43712 0.0
C817 C 0.98675 0.48408 0.53161 0.0
H818 H -0.00257 0.45691 0.28359 0.0
C819 C -0.00283 0.50383 0.54394 0.0
H820 H 0.97911 0.45178 0.42438 0.0
C821 C 0.00746 0.50702 0.46247 0.0
C822 C 0.00766 0.49043 0.36681 0.0
H823 H -0.00283 0.51738 0.61505 0.0
H824 H 0.01527 0.52265 0.47476 0.0
C825 C -0.00257 0.47026 0.35532 0.0
C826 C 0.24892 0.51312 0.62136 0.0
C827 C 0.25884 0.49322 0.64811 0.0
H828 H 0.23001 0.53318 0.66717 0.0
C829 C 0.25706 0.47795 0.74624 0.0
H830 H 0.25006 0.5255 0.54731 0.0
C831 C 0.24548 0.4824 0.81573 0.0
C832 C 0.23563 0.50247 0.78902 0.0
H833 H 0.26464 0.46266 0.76972 0.0
H834 H 0.24422 0.47011 0.8899 0.0
C835 C 0.23751 0.51782 0.69134 0.0
C836 C 0.74117 0.23015 0.59296 0.0
C837 C 0.75238 0.24786 0.57267 0.0
H838 H 0.72198 0.21342 0.53298 0.0
C839 C 0.7526 0.2628 0.47255 0.0
H840 H 0.74075 0.21813 0.66847 0.0
C841 C 0.74195 0.2598 0.39378 0.0
C842 C 0.7308 0.24193 0.41373 0.0
H843 H 0.76115 0.27651 0.45371 0.0
H844 H 0.74239 0.27176 0.31811 0.0
C845 C 0.73051 0.22718 0.51428 0.0
C846 C 0.74778 0.48329 0.33284 0.0
C847 C 0.73682 0.50138 0.31014 0.0
H848 H 0.76702 0.46585 0.27716 0.0
C849 C 0.7372 0.5165 0.21055 0.0
H850 H 0.74777 0.47118 0.40815 0.0
C851 C 0.74817 0.51322 0.13439 0.0
C852 C 0.75901 0.49481 0.15638 0.0
H853 H 0.72884 0.53049 0.18986 0.0
H854 H 0.74817 0.5252 0.05873 0.0
C855 C 0.75873 0.48 0.25673 0.0
C856 C 0.48594 0.97855 0.47205 0.0
C857 C 0.48603 0.99321 0.57294 0.0
H858 H 0.49625 0.97027 0.31706 0.0
C859 C 0.49707 0.01127 0.59371 0.0
H860 H 0.47751 0.96462 0.45275 0.0
C861 C 0.50772 0.01475 0.51496 0.0
C862 C 0.50759 0.00021 0.41381 0.0
H863 H 0.49738 0.0231 0.66981 0.0
H864 H 0.51614 0.02871 0.53416 0.0
C865 C 0.49657 0.98207 0.39323 0.0
C866 C 0.48254 0.26431 0.76169 0.0
C867 C 0.48271 0.24928 0.66175 0.0
H868 H 0.49296 0.27375 0.91481 0.0
C869 C 0.49387 0.23145 0.6415 0.0
H870 H 0.474 0.27805 0.78058 0.0
C871 C 0.50461 0.22867 0.71956 0.0
C872 C 0.50448 0.2438 0.81926 0.0
H873 H 0.49422 0.2193 0.56627 0.0
H874 H 0.51314 0.21492 0.70055 0.0
C875 C 0.4933 0.26158 0.83963 0.0
C876 C 0.49405 0.73136 0.1419 0.0
C877 C 0.48284 0.74876 0.16644 0.0
H878 H 0.51365 0.71503 0.195 0.0
C879 C 0.48285 0.76302 0.26825 0.0
H880 H 0.49427 0.71981 0.06504 0.0
C881 C 0.49387 0.76004 0.34366 0.0
C882 C 0.50514 0.74278 0.3188 0.0
H883 H 0.47428 0.7764 0.29049 0.0
H884 H 0.49366 0.77164 0.42036 0.0
C885 C 0.50506 0.72835 0.2174 0.0
C886 C 0.49814 0.48073 0.88435 0.0
C887 C 0.50909 0.49889 0.90684 0.0
H888 H 0.47897 0.46312 0.94091 0.0
C889 C 0.50902 0.51324 0.00843 0.0
H890 H 0.49798 0.46908 0.80777 0.0
C891 C 0.49822 0.50959 0.08565 0.0
C892 C 0.48723 0.49153 0.06296 0.0
H893 H 0.51739 0.52718 0.02909 0.0
H894 H 0.49837 0.52128 0.16215 0.0
C895 C 0.48735 0.47703 0.96173 0.0
C896 C 0.37641 0.26273 0.38067 0.0
C897 C 0.3839 0.23844 0.38835 0.0
H898 H 0.35611 0.28108 0.36214 0.0
C899 C 0.37685 0.21371 0.37893 0.0
H900 H 0.38175 0.28197 0.38792 0.0
C901 C 0.36244 0.21322 0.36055 0.0
C902 C 0.35487 0.23744 0.35518 0.0
H903 H 0.38254 0.19478 0.38403 0.0
H904 H 0.35716 0.19391 0.35285 0.0
C905 C 0.36186 0.26222 0.36625 0.0
C906 C 0.86185 0.02379 0.37337 0.0
C907 C 0.85433 -0.00046 0.38043 0.0
H908 H 0.88191 0.0423 0.34878 0.0
C909 C 0.86139 0.97476 0.37134 0.0
H910 H 0.85652 0.04308 0.37963 0.0
C911 C 0.87595 0.97431 0.3572 0.0
C912 C 0.88339 -0.00136 0.34782 0.0
H913 H 0.85568 0.95588 0.37686 0.0
H914 H 0.88136 0.95511 0.35146 0.0
C915 C 0.87627 0.02334 0.35526 0.0
C916 C 0.38015 0.97419 0.86527 0.0
C917 C 0.3869 -0.00094 0.84915 0.0
H918 H 0.36054 0.95408 0.89631 0.0
C919 C 0.37919 0.02312 0.85502 0.0
H920 H 0.386 0.95545 0.86102 0.0
C921 C 0.36489 0.02238 0.87903 0.0
C922 C 0.35808 -0.00246 0.89366 0.0
H923 H 0.38429 0.04249 0.8436 0.0
H924 H 0.3591 0.04119 0.8844 0.0
C925 C 0.3657 0.9734 0.88529 0.0
C926 C 0.85802 0.26304 0.86324 0.0
C927 C 0.85108 0.23829 0.84913 0.0
H928 H 0.87776 0.28268 0.89343 0.0
C929 C 0.85853 0.21402 0.8586 0.0
H930 H 0.85235 0.28193 0.85632 0.0
C931 C 0.87278 0.21443 0.8838 0.0
C932 C 0.8798 0.23913 0.89605 0.0
H933 H 0.85327 0.19476 0.84887 0.0
H934 H 0.87839 0.19547 0.89149 0.0
C935 C 0.87243 0.26347 0.88444 0.0
C936 C 0.61193 0.7272 0.59711 0.0
C937 C 0.6048 0.75176 0.58356 0.0
H938 H 0.63186 0.70805 0.62416 0.0
C939 C 0.61215 0.77621 0.59073 0.0
H940 H 0.60634 0.70817 0.59181 0.0
C941 C 0.62648 0.77616 0.61306 0.0
C942 C 0.63368 0.75165 0.62465 0.0
H943 H 0.60676 0.79534 0.58126 0.0
H944 H 0.632 0.79525 0.61915 0.0
C945 C 0.6264 0.72713 0.61542 0.0
C946 C 0.11404 0.98795 0.65465 0.0
C947 C 0.10807 0.01253 0.68863 0.0
H948 H 0.13065 0.96847 0.56504 0.0
C949 C 0.11446 0.0369 0.65671 0.0
H950 H 0.10914 0.96889 0.67613 0.0
C951 C 0.12677 0.03666 0.59336 0.0
C952 C 0.13266 0.01207 0.55836 0.0
H953 H 0.10992 0.05611 0.6807 0.0
H954 H 0.13172 0.05568 0.57196 0.0
C955 C 0.12615 0.98773 0.58899 0.0
C956 C 0.62823 0.0162 0.10304 0.0
C957 C 0.63515 0.99142 0.08893 0.0
H958 H 0.60845 0.03597 0.13062 0.0
C959 C 0.62757 0.96722 0.09492 0.0
H960 H 0.63399 0.03505 0.09857 0.0
C961 C 0.61323 0.96772 0.11704 0.0
C962 C 0.60625 0.99245 0.12957 0.0
H963 H 0.6328 0.94792 0.08495 0.0
H964 H 0.60753 0.94881 0.12257 0.0
C965 C 0.61375 0.01673 0.12114 0.0
C966 C 0.10835 0.71911 0.14364 0.0
C967 C 0.10251 0.74423 0.11605 0.0
H968 H 0.12617 0.69829 0.21132 0.0
C969 C 0.10982 0.76804 0.14075 0.0
H970 H 0.10271 0.70057 0.12647 0.0
C971 C 0.12279 0.76679 0.19393 0.0
C972 C 0.12876 0.74169 0.21994 0.0
H973 H 0.1053 0.78762 0.12209 0.0
H974 H 0.12834 0.7854 0.21182 0.0
C975 C 0.12158 0.71782 0.19321 0.0
C976 C 0.36233 0.71604 0.86201 0.0
C977 C 0.35472 0.74018 0.85495 0.0
H978 H 0.38239 0.69779 0.88889 0.0
C979 C 0.36161 0.76504 0.86678 0.0
H980 H 0.35713 0.69667 0.85383 0.0
C981 C 0.37613 0.76569 0.8835 0.0
C982 C 0.38366 0.74146 0.8928 0.0
H983 H 0.35583 0.78384 0.86147 0.0
H984 H 0.38142 0.78498 0.89123 0.0
C985 C 0.37669 0.71667 0.88265 0.0
C986 C 0.87707 0.49282 0.72372 0.0
C987 C 0.88695 0.49496 0.81003 0.0
H988 H 0.8553 0.49104 0.68039 0.0
C989 C 0.88231 0.49708 0.9212 0.0
H990 H 0.88042 0.49108 0.63744 0.0
C991 C 0.868 0.49754 0.94559 0.0
C992 C 0.85812 0.49526 0.85944 0.0
H993 H 0.88974 0.4989 -0.01073 0.0
H994 H 0.86468 0.49953 0.03184 0.0
C995 C 0.86275 0.49265 0.7484 0.0
C996 C 0.36575 0.52108 0.35908 0.0
C997 C 0.35877 0.49653 0.37626 0.0
H998 H 0.38529 0.54043 0.32176 0.0
C999 C 0.36621 0.47213 0.37085 0.0
H1000 H 0.3601 0.54006 0.36226 0.0
C1001 C 0.38066 0.4724 0.35106 0.0
C1002 C 0.38758 0.49698 0.33222 0.0
H1003 H 0.3609 0.45304 0.38394 0.0
H1004 H 0.38639 0.45349 0.349 0.0
C1005 C 0.38005 0.52127 0.33529 0.0
C1006 C 0.8614 0.7178 0.33914 0.0
C1007 C 0.85441 0.74256 0.32818 0.0
H1008 H 0.88083 0.69796 0.37512 0.0
C1009 C 0.86169 0.76683 0.34435 0.0
H1010 H 0.85584 0.6989 0.32796 0.0
C1011 C 0.87603 0.76631 0.36821 0.0
C1012 C 0.88296 0.74149 0.38046 0.0
H1013 H 0.85636 0.78606 0.33655 0.0
H1014 H 0.88166 0.78517 0.37811 0.0
C1015 C 0.87557 0.71727 0.36699 0.0
C1016 C 0.62541 0.27571 0.11826 0.0
C1017 C 0.63243 0.25106 0.13109 0.0
H1018 H 0.60581 0.29528 0.08543 0.0
C1019 C 0.625 0.22669 0.12291 0.0
H1020 H 0.63105 0.29468 0.12358 0.0
C1021 C 0.61054 0.22706 0.10447 0.0
C1022 C 0.60358 0.25175 0.08975 0.0
H1023 H 0.63034 0.20751 0.13261 0.0
H1024 H 0.60483 0.20816 0.10005 0.0
C1025 C 0.61109 0.27605 0.0958 0.0
C1026 C 0.11193 0.47842 0.01911 0.0
C1027 C 0.10433 0.50181 0.04505 0.0
H1028 H 0.13163 0.46203 0.96611 0.0
C1029 C 0.11071 0.52722 0.03594 0.0
H1030 H 0.10705 0.45869 0.0243 0.0
C1031 C 0.12483 0.52911 0.00521 0.0
C1032 C 0.13242 0.50567 0.97886 0.0
H1033 H 0.10488 0.54545 0.05489 0.0
H1034 H 0.12981 0.54876 0.00219 0.0
C1035 C 0.12585 0.48036 -0.01555 0.0
C1036 C 0.62973 0.51761 0.5944 0.0
C1037 C 0.63683 0.49315 0.57706 0.0
H1038 H 0.60986 0.53658 0.62678 0.0
C1039 C 0.62949 0.46866 0.58296 0.0
H1040 H 0.63531 0.53666 0.59025 0.0
C1041 C 0.61521 0.46856 0.60777 0.0
C1042 C 0.60804 0.49299 0.62314 0.0
H1043 H 0.63487 0.44959 0.57068 0.0
H1044 H 0.6097 0.44944 0.61283 0.0
C1045 C 0.6153 0.51756 0.61517 0.0
C1046 C 0.12795 0.2139 0.60435 0.0
C1047 C 0.13293 0.23847 0.64762 0.0
H1048 H 0.11207 0.19404 0.50783 0.0
C1049 C 0.12545 0.26233 0.62664 0.0
H1050 H 0.13366 0.19528 0.61854 0.0
C1051 C 0.11346 0.26176 0.55985 0.0
C1052 C 0.1086 0.23724 0.51514 0.0
H1053 H 0.12923 0.28159 0.65734 0.0
H1054 H 0.10792 0.28048 0.54422 0.0
C1055 C 0.11576 0.21324 0.53989 0.0
C1056 C 0.3024 0.19609 0.73101 0.0
C1057 C 0.29233 0.21361 0.6857 0.0
H1058 H 0.31574 0.18782 0.87094 0.0
C1059 C 0.28604 0.23332 0.75255 0.0
H1060 H 0.30751 0.1811 0.67895 0.0
C1061 C 0.2912 0.23806 0.85897 0.0
C1062 C 0.30246 0.22266 0.89981 0.0
H1063 H 0.27842 0.24723 0.71779 0.0
H1064 H 0.28677 0.2545 0.90739 0.0
C1065 C 0.30739 0.20048 0.83872 0.0
C1066 C 0.93894 0.03732 0.72691 0.0
C1067 C 0.94719 0.01676 0.68032 0.0
H1068 H 0.92635 0.04943 0.86667 0.0
C1069 C 0.95126 0.99467 0.74517 0.0
H1070 H 0.93549 0.05421 0.67633 0.0
C1071 C 0.94555 0.99127 0.8508 0.0
C1072 C 0.93595 0.01026 0.89296 0.0
H1073 H 0.95745 0.97846 0.7092 0.0
H1074 H 0.94821 0.97322 0.89732 0.0
C1075 C 0.93337 0.03415 0.83371 0.0
C1076 C 0.30971 0.02958 0.42178 0.0
C1077 C 0.30655 0.00595 0.36237 0.0
H1078 H 0.30782 0.05005 0.57847 0.0
C1079 C 0.29636 0.98803 0.40361 0.0
H1080 H 0.31718 0.04411 0.38939 0.0
C1081 C 0.29052 0.99217 0.50837 0.0
C1082 C 0.29507 0.0139 0.57341 0.0
H1083 H 0.29324 0.97028 0.35682 0.0
H1084 H 0.2838 0.97668 0.54371 0.0
C1085 C 0.30401 0.03348 0.52769 0.0
C1086 C 0.94264 0.24357 0.404 0.0
C1087 C 0.9313 0.2287 0.36119 0.0
H1088 H 0.95572 0.25083 0.54532 0.0
C1089 C 0.92637 0.20594 0.41862 0.0
H1090 H 0.9471 0.2604 0.35831 0.0
C1091 C 0.93158 0.20013 0.52425 0.0
C1092 C 0.94179 0.21693 0.57169 0.0
H1093 H 0.91798 0.19363 0.38471 0.0
H1094 H 0.92652 0.18456 0.57363 0.0
C1095 C 0.94799 0.23744 0.50852 0.0
C1096 C 0.69508 0.74287 0.12899 0.0
C1097 C 0.68541 0.76177 0.08741 0.0
H1098 H 0.70742 0.73057 0.26863 0.0
C1099 C 0.68305 0.78587 0.14609 0.0
H1100 H 0.69758 0.72465 0.08294 0.0
C1101 C 0.68894 0.78943 0.25158 0.0
C1102 C 0.69733 0.76906 0.29783 0.0
H1103 H 0.676 0.80114 0.11358 0.0
H1104 H 0.68565 0.80653 0.3018 0.0
C1105 C 0.70115 0.7467 0.23315 0.0
C1106 C 0.07438 0.0043 0.25913 0.0
C1107 C 0.06446 0.02005 0.20263 0.0
H1108 H 0.07892 0.98066 0.40298 0.0
C1109 C 0.05147 0.02575 0.25404 0.0
H1110 H 0.08438 -0.00064 0.22075 0.0
C1111 C 0.04819 0.01449 0.35765 0.0
C1112 C 0.05791 -0.00234 0.41119 0.0
H1113 H 0.0435 0.03741 0.21126 0.0
H1114 H 0.03816 0.01912 0.39597 0.0
C1115 C 0.0711 0.99306 0.36191 0.0
C1116 C 0.6852 0.95569 0.56973 0.0
C1117 C 0.68735 0.97993 0.62794 0.0
H1118 H 0.68792 0.93502 0.41409 0.0
C1119 C 0.69683 -0.00088 0.58557 0.0
H1120 H 0.6783 0.94022 0.60279 0.0
C1121 C 0.7029 0.99541 0.48114 0.0
C1122 C 0.69925 0.97289 0.41686 0.0
H1123 H 0.69916 0.01748 0.63114 0.0
H1124 H 0.709 0.01173 0.44511 0.0
C1125 C 0.69108 0.95226 0.46392 0.0
C1126 C 0.03646 0.74551 0.47156 0.0
C1127 C 0.03964 0.76812 0.40616 0.0
H1128 H 0.0411 0.7232 0.61899 0.0
C1129 C 0.04809 0.78868 0.45076 0.0
H1130 H 0.03017 0.7292 0.43769 0.0
C1131 C 0.05463 0.78511 0.55417 0.0
C1132 C 0.05285 0.76083 0.61308 0.0
H1133 H 0.05095 0.80599 0.40022 0.0
H1134 H 0.06172 0.80056 0.58464 0.0
C1135 C 0.04315 0.74168 0.57344 0.0
C1136 C 0.28534 0.72273 0.24335 0.0
C1137 C 0.29469 0.70766 0.17859 0.0
H1138 H 0.28216 0.74306 0.39818 0.0
C1139 C 0.30674 0.69632 0.22667 0.0
H1140 H 0.2761 0.73182 0.2063 0.0
C1141 C 0.3104 0.70313 0.33532 0.0
C1142 C 0.30206 0.72149 0.39464 0.0
H1143 H 0.31412 0.68493 0.17616 0.0
H1144 H 0.32015 0.6956 0.36984 0.0
C1145 C 0.28911 0.72997 0.35096 0.0
C1146 C 0.9395 0.52643 0.27907 0.0
C1147 C 0.94178 0.50143 0.33137 0.0
H1148 H 0.94226 0.54958 0.12999 0.0
C1149 C 0.95159 0.48337 0.28535 0.0
H1150 H 0.93241 0.5412 0.315 0.0
C1151 C 0.95774 0.48887 0.18235 0.0
C1152 C 0.95383 0.51205 0.12309 0.0
H1153 H 0.95411 0.46452 0.32658 0.0
H1154 H 0.964 0.47329 0.14252 0.0
C1155 C 0.94556 0.53175 0.17543 0.0
C1156 C 0.29806 0.4859 0.8837 0.0
C1157 C 0.30725 0.50574 0.84252 0.0
H1158 H 0.28609 0.47221 0.02343 0.0
C1159 C 0.30903 0.52994 0.90179 0.0
H1160 H 0.29599 0.46753 0.83732 0.0
C1161 C 0.30304 0.53279 0.00735 0.0
C1162 C 0.29519 0.51155 0.05306 0.0
H1163 H 0.31572 0.54587 0.86969 0.0
H1164 H 0.30586 0.55011 0.05795 0.0
C1165 C 0.29195 0.48895 -0.01186 0.0
C1166 C 0.94477 0.74722 0.88678 0.0
C1167 C 0.93469 0.729 0.84606 0.0
H1168 H 0.95731 0.75901 0.02606 0.0
C1169 C 0.93181 0.70527 0.90564 0.0
H1170 H 0.94766 0.76508 0.83989 0.0
C1171 C 0.93759 0.70161 0.01147 0.0
C1172 C 0.94639 0.72148 0.05699 0.0
H1173 H 0.92443 0.6905 0.87372 0.0
H1174 H 0.93392 0.68496 0.0625 0.0
C1175 C 0.95072 0.74326 -0.00876 0.0
C1176 C 0.68283 0.2835 0.65199 0.0
C1177 C 0.68411 0.25899 0.59392 0.0
H1178 H 0.6865 0.30404 0.80661 0.0
C1179 C 0.69298 0.23873 0.63575 0.0
H1180 H 0.67641 0.29975 0.61946 0.0
C1181 C 0.69932 0.24183 0.73935 0.0
C1182 C 0.69656 0.26487 0.80343 0.0
H1183 H 0.69465 0.22007 0.59038 0.0
H1184 H 0.70493 0.22486 0.77506 0.0
C1185 C 0.68899 0.28637 0.75689 0.0
C1186 C 0.03808 0.50229 0.67321 0.0
C1187 C 0.04063 0.47922 0.73756 0.0
H1188 H 0.04323 0.52429 0.52581 0.0
C1189 C 0.04839 0.45783 0.69159 0.0
H1190 H 0.03232 0.51921 0.70819 0.0
C1191 C 0.05493 0.46088 0.5878 0.0
C1192 C 0.05383 0.48542 0.52974 0.0
H1193 H 0.05075 0.44013 0.74131 0.0
H1194 H 0.06151 0.44471 0.55629 0.0
C1195 C 0.04477 0.50555 0.57075 0.0
C1196 C 0.6861 0.45774 0.05237 0.0
C1197 C 0.68935 0.48153 0.11037 0.0
H1198 H 0.68779 0.43673 0.89669 0.0
C1199 C 0.69964 0.49908 0.06785 0.0
H1200 H 0.67856 0.44345 0.08571 0.0
C1201 C 0.70544 0.49443 0.96313 0.0
C1202 C 0.70074 0.47264 0.899 0.0
H1203 H 0.70284 0.51694 0.11355 0.0
H1204 H 0.71222 0.50971 0.92681 0.0
C1205 C 0.69174 0.45337 0.94642 0.0
C1206 C 0.0707 0.27009 0.82604 0.0
C1207 C 0.05753 0.26479 0.7781 0.0
H1208 H 0.08451 0.26265 0.96325 0.0
C1209 C 0.04742 0.25035 0.83798 0.0
H1210 H 0.07872 0.28077 0.77923 0.0
C1211 C 0.05095 0.2388 0.93965 0.0
C1212 C 0.06452 0.24222 -0.01583 0.0
H1213 H 0.03733 0.24557 0.80113 0.0
H1214 H 0.04299 0.22721 0.98318 0.0
C1215 C 0.07419 0.25882 0.92857 0.0
C1216 C 0.79553 0.19884 0.21777 0.0
C1217 C 0.78715 0.21933 0.17218 0.0
H1218 H 0.80845 0.18679 0.35565 0.0
C1219 C 0.78327 0.24145 0.23804 0.0
H1220 H 0.79887 0.18191 0.16675 0.0
C1221 C 0.78931 0.245 0.34248 0.0
C1222 C 0.799 0.22604 0.38337 0.0
H1223 H 0.777 0.25766 0.20325 0.0
H1224 H 0.78681 0.26313 0.38914 0.0
C1225 C 0.80138 0.20209 0.32374 0.0
C1226 C 0.4488 0.99304 0.34311 0.0
C1227 C 0.43903 0.0117 0.38542 0.0
H1228 H 0.46117 0.98107 0.20274 0.0
C1229 C 0.43653 0.0358 0.32723 0.0
H1230 H 0.4514 0.97483 0.3887 0.0
C1231 C 0.44236 0.03952 0.22145 0.0
C1232 C 0.45084 0.01934 0.17442 0.0
H1233 H 0.42939 0.05088 0.36027 0.0
H1234 H 0.43895 0.05657 0.17161 0.0
C1235 C 0.45482 -0.00294 0.23873 0.0
C1236 C 0.79312 0.99058 0.87882 0.0
C1237 C 0.80245 0.00998 0.83629 0.0
H1238 H 0.781 0.97779 0.01932 0.0
C1239 C 0.80445 0.03431 0.89428 0.0
H1240 H 0.7909 0.97214 0.83339 0.0
C1241 C 0.79852 0.03769 -0.00011 0.0
C1242 C 0.79047 0.01691 0.047 0.0
H1243 H 0.81124 0.04994 0.86108 0.0
H1244 H 0.80154 0.05506 0.04949 0.0
C1245 C 0.787 0.99422 0.98311 0.0
C1246 C 0.43393 0.20563 0.90485 0.0
C1247 C 0.43574 0.22998 0.8467 0.0
H1248 H 0.43701 0.18503 0.06003 0.0
C1249 C 0.44493 0.24966 0.88888 0.0
H1250 H 0.42726 0.1898 0.87193 0.0
C1251 C 0.45108 0.24624 -0.00702 0.0
C1252 C 0.44781 0.22347 0.05706 0.0
H1253 H 0.447 0.26814 0.84334 0.0
H1254 H 0.45697 0.26285 0.0289 0.0
C1255 C 0.4399 0.20246 0.01027 0.0
C1256 C 0.19464 0.73207 0.86577 0.0
C1257 C 0.19188 0.75582 0.92542 0.0
H1258 H 0.18981 0.70836 0.7221 0.0
C1259 C 0.18387 0.77631 0.87626 0.0
H1260 H 0.20055 0.7158 0.90389 0.0
C1261 C 0.17727 0.77178 0.77434 0.0
C1262 C 0.17871 0.74674 0.72021 0.0
H1263 H 0.18135 0.79449 0.92268 0.0
H1264 H 0.17053 0.7874 0.74061 0.0
C1265 C 0.188 0.72742 0.76416 0.0
C1266 C 0.54534 0.004 0.63662 0.0
C1267 C 0.55439 0.98405 0.59434 0.0
H1268 H 0.53333 0.0175 0.77662 0.0
C1269 C 0.55592 0.9596 0.6523 0.0
H1270 H 0.54347 0.02258 0.59133 0.0
C1271 C 0.54984 0.95656 0.75758 0.0
C1272 C 0.54211 0.97781 0.80455 0.0
H1273 H 0.56249 0.94358 0.6194 0.0
H1274 H 0.55253 0.939 0.80718 0.0
C1275 C 0.53908 0.00071 0.7406 0.0
C1276 C 0.1705 0.98659 0.88543 0.0
C1277 C 0.18344 0.99279 0.83528 0.0
H1278 H 0.15712 0.99159 0.0267 0.0
C1279 C 0.19276 0.01048 0.88847 0.0
H1280 H 0.16299 0.97349 0.84423 0.0
C1281 C 0.18925 0.02133 -0.00772 0.0
C1282 C 0.17644 0.0144 0.04385 0.0
H1283 H 0.20256 0.01631 0.84915 0.0
H1284 H 0.1969 0.03389 0.03457 0.0
C1285 C 0.16697 -0.0025 -0.01184 0.0
C1286 C 0.53669 0.74914 0.97445 0.0
C1287 C 0.54107 0.77116 0.91014 0.0
H1288 H 0.53965 0.72679 0.12461 0.0
C1289 C 0.54984 0.79084 0.95701 0.0
H1290 H 0.5301 0.73354 0.93847 0.0
C1291 C 0.55557 0.78679 0.06271 0.0
C1292 C 0.55264 0.76287 0.12091 0.0
H1293 H 0.55355 0.80766 0.90707 0.0
H1294 H 0.56293 0.80146 0.0957 0.0
C1295 C 0.54259 0.7448 0.07882 0.0
C1296 C 0.79924 0.70253 0.69267 0.0
C1297 C 0.7904 0.72203 0.64524 0.0
H1298 H 0.8125 0.69245 0.83087 0.0
C1299 C 0.78603 0.74418 0.70904 0.0
H1300 H 0.80293 0.6856 0.6433 0.0
C1301 C 0.79204 0.74889 0.81286 0.0
C1302 C 0.80218 0.73105 0.85518 0.0
H1303 H 0.77939 0.75964 0.67278 0.0
H1304 H 0.78912 0.76702 0.85796 0.0
C1305 C 0.80508 0.70697 0.79778 0.0
C1306 C 0.45019 0.49101 0.8256 0.0
C1307 C 0.44017 0.50904 0.8687 0.0
H1308 H 0.46264 0.47998 0.68434 0.0
C1309 C 0.43728 0.53311 0.81148 0.0
H1310 H 0.4531 0.47288 0.87059 0.0
C1311 C 0.44301 0.53738 0.70579 0.0
C1312 C 0.45172 0.51772 0.65777 0.0
H1313 H 0.42995 0.54775 0.84522 0.0
H1314 H 0.43932 0.55433 0.65666 0.0
C1315 C 0.45609 0.49556 0.72116 0.0
C1316 C 0.80706 0.52902 0.39603 0.0
C1317 C 0.8057 0.50423 0.34004 0.0
H1318 H 0.80317 0.55063 0.54779 0.0
C1319 C 0.79645 0.48462 0.38233 0.0
H1320 H 0.81374 0.54485 0.36311 0.0
C1321 C 0.78988 0.48857 0.48476 0.0
C1322 C 0.79277 0.5118 0.54735 0.0
H1323 H 0.79468 0.46578 0.33849 0.0
H1324 H 0.78402 0.472 0.52134 0.0
C1325 C 0.8006 0.53279 0.49947 0.0
C1326 C 0.43946 0.705 0.51718 0.0
C1327 C 0.44751 0.7258 0.56395 0.0
H1328 H 0.42665 0.69275 0.37933 0.0
C1329 C 0.45089 0.74855 0.50014 0.0
H1330 H 0.43651 0.68758 0.56679 0.0
C1331 C 0.4447 0.7522 0.39633 0.0
C1332 C 0.43536 0.73276 0.35427 0.0
H1333 H 0.45689 0.765 0.53616 0.0
H1334 H 0.44687 0.77067 0.35096 0.0
C1335 C 0.43344 0.7084 0.41215 0.0
C1336 C 0.19148 0.23403 0.20436 0.0
C1337 C 0.18131 0.25209 0.16358 0.0
H1338 H 0.20485 0.22345 0.34064 0.0
C1339 C 0.17891 0.2764 0.22108 0.0
H1340 H 0.19402 0.21561 0.15986 0.0
C1341 C 0.18545 0.28112 0.32354 0.0
C1342 C 0.19449 0.26169 0.36914 0.0
H1343 H 0.17145 0.29107 0.18982 0.0
H1344 H 0.1822 0.29842 0.37276 0.0
C1345 C 0.19814 0.23899 0.30569 0.0
C1346 C 0.5525 0.45594 0.25409 0.0
C1347 C 0.54434 0.47665 0.30069 0.0
H1348 H 0.56545 0.44381 0.11643 0.0
C1349 C 0.54095 0.49934 0.23667 0.0
H1350 H 0.55548 0.43857 0.30382 0.0
C1351 C 0.5472 0.50304 0.13293 0.0
C1352 C 0.55663 0.4837 0.09102 0.0
H1353 H 0.53486 0.51572 0.27248 0.0
H1354 H 0.545 0.52147 0.08748 0.0
C1355 C 0.55859 0.45939 0.1491 0.0
C1356 C 0.19799 0.51286 0.37764 0.0
C1357 C 0.18658 0.50209 0.31838 0.0
H1358 H 0.20483 0.53054 0.53161 0.0
C1359 C 0.17289 0.50545 0.3608 0.0
H1360 H 0.2086 0.5112 0.34552 0.0
C1361 C 0.17073 0.51721 0.46442 0.0
C1362 C 0.1822 0.52559 0.52809 0.0
H1363 H 0.16378 0.49802 0.31615 0.0
H1364 H 0.16021 0.51741 0.49931 0.0
C1365 C 0.19579 0.52467 0.48224 0.0
C1366 C 0.54812 0.29191 0.46376 0.0
C1367 C 0.53958 0.27183 0.41681 0.0
H1368 H 0.56106 0.30312 0.60256 0.0
C1369 C 0.53546 0.24965 0.48132 0.0
H1370 H 0.55163 0.30887 0.41378 0.0
C1371 C 0.54141 0.24559 0.58576 0.0
C1372 C 0.55124 0.2641 0.62792 0.0
H1373 H 0.52906 0.23376 0.44541 0.0
H1374 H 0.53871 0.22744 0.63149 0.0
C1375 C 0.55388 0.28814 0.56962 0.0
C1376 C 0.30593 0.38433 0.2884 0.0
C1377 C 0.30525 0.39426 0.39822 0.0
H1378 H 0.30613 0.34963 0.18272 0.0
C1379 C 0.30395 0.3761 0.48758 0.0
H1380 H 0.30684 0.3979 0.21777 0.0
C1381 C 0.30364 0.3484 0.46747 0.0
C1382 C 0.30447 0.33849 0.35764 0.0
H1383 H 0.30342 0.38323 0.57307 0.0
H1384 H 0.30278 0.3348 0.53799 0.0
C1385 C 0.30548 0.3567 0.26825 0.0
C1386 C 0.9358 0.85143 0.27689 0.0
C1387 C 0.93483 0.84212 0.38753 0.0
H1388 H 0.93694 0.88569 0.16882 0.0
C1389 C 0.93468 0.86073 0.4758 0.0
H1390 H 0.93606 0.83747 0.2072 0.0
C1391 C 0.93515 0.88824 0.45377 0.0
C1392 C 0.93588 0.89759 0.34313 0.0
H1393 H 0.93399 0.8541 0.56189 0.0
H1394 H 0.93484 0.90217 0.52356 0.0
C1395 C 0.93639 0.87899 0.25487 0.0
C1396 C 0.30584 0.88429 0.79739 0.0
C1397 C 0.30497 0.89378 0.90784 0.0
H1398 H 0.30599 0.85001 0.68917 0.0
C1399 C 0.30341 0.87526 -0.00437 0.0
H1400 H 0.30697 0.89813 0.72788 0.0
C1401 C 0.30294 0.84767 0.97341 0.0
C1402 C 0.30388 0.83818 0.86297 0.0
H1403 H 0.30273 0.88201 0.08156 0.0
H1404 H 0.30182 0.8338 0.04285 0.0
C1405 C 0.30523 0.85674 0.7751 0.0
C1406 C 0.93585 0.37364 0.73889 0.0
C1407 C 0.93599 0.39378 0.82108 0.0
H1408 H 0.93472 0.33148 0.70429 0.0
C1409 C 0.93546 0.38652 0.93454 0.0
H1410 H 0.93626 0.37871 0.6509 0.0
C1411 C 0.93469 0.35947 0.96529 0.0
C1412 C 0.93427 0.33937 0.88295 0.0
H1413 H 0.93567 0.40171 -0.0003 0.0
H1414 H 0.93421 0.35437 0.05322 0.0
C1415 C 0.93492 0.34665 0.76957 0.0
C1416 C 0.68739 0.63058 0.71281 0.0
C1417 C 0.68671 0.64963 0.62638 0.0
H1418 H 0.68837 0.58886 0.75643 0.0
C1419 C 0.68705 0.64084 0.5147 0.0
H1420 H 0.68718 0.63679 0.7996 0.0
C1421 C 0.68784 0.61342 0.48986 0.0
C1422 C 0.68816 0.59434 0.5763 0.0
H1423 H 0.68667 0.65512 0.44624 0.0
H1424 H 0.68791 0.60719 0.40308 0.0
C1425 C 0.68804 0.60315 0.68798 0.0
C1426 C 0.04504 0.1197 0.6814 0.0
C1427 C 0.0476 0.09613 0.61979 0.0
H1428 H 0.04434 0.16274 0.6797 0.0
C1429 C 0.04929 0.09781 0.50309 0.0
H1430 H 0.04351 0.11903 0.77108 0.0
C1431 C 0.04968 0.12292 0.45054 0.0
C1432 C 0.0485 0.14653 0.51439 0.0
H1433 H 0.05106 0.07986 0.45318 0.0
H1434 H 0.05184 0.12388 0.36173 0.0
C1435 C 0.04556 0.14472 0.62915 0.0
C1436 C 0.68608 0.11142 0.00075 0.0
C1437 C 0.68655 0.09249 0.0877 0.0
H1438 H 0.68485 0.15306 0.95609 0.0
C1439 C 0.68668 0.10149 0.19911 0.0
H1440 H 0.68597 0.10504 0.91417 0.0
C1441 C 0.6861 0.12896 0.22322 0.0
C1442 C 0.68525 0.14786 0.13635 0.0
H1443 H 0.68713 0.08732 0.26792 0.0
H1444 H 0.68607 0.13532 0.30984 0.0
C1445 C 0.68536 0.13889 0.02489 0.0
C1446 C 0.04569 0.64016 0.16253 0.0
C1447 C 0.04623 0.65057 0.05349 0.0
H1448 H 0.04601 0.60494 0.26514 0.0
C1449 C 0.04626 0.63284 0.96209 0.0
H1450 H 0.04548 0.65344 0.23449 0.0
C1451 C 0.04666 0.6051 0.97969 0.0
C1452 C 0.04689 0.59473 0.08887 0.0
H1453 H 0.0466 0.64036 0.87715 0.0
H1454 H 0.04718 0.59183 0.90778 0.0
C1455 C 0.04595 0.61242 0.1801 0.0
C1456 C 0.80427 0.38577 0.77086 0.0
C1457 C 0.80364 0.3953 0.88136 0.0
H1458 H 0.80367 0.3514 0.66283 0.0
C1459 C 0.80151 0.37698 0.96906 0.0
H1460 H 0.80578 0.39952 0.70149 0.0
C1461 C 0.80036 0.3495 0.94694 0.0
C1462 C 0.80118 0.33992 0.83664 0.0
H1463 H 0.80094 0.38378 0.055 0.0
H1464 H 0.79891 0.33576 0.01643 0.0
C1465 C 0.80297 0.35828 0.7486 0.0
C1466 C 0.43818 0.88007 0.7589 0.0
C1467 C 0.43882 0.89904 0.84572 0.0
H1468 H 0.43671 0.83843 0.71459 0.0
C1469 C 0.43913 0.8901 0.95713 0.0
H1470 H 0.43793 0.88642 0.67231 0.0
C1471 C 0.4385 0.86266 0.98143 0.0
C1472 C 0.43741 0.84372 0.89475 0.0
H1473 H 0.43973 0.90431 0.02581 0.0
H1474 H 0.43858 0.85635 0.06807 0.0
C1475 C 0.43741 0.85263 0.78323 0.0
C1476 C 0.80134 0.86228 0.23643 0.0
C1477 C 0.80162 0.84306 0.32235 0.0
H1478 H 0.80146 0.9041 0.19389 0.0
C1479 C 0.8016 0.85171 0.43427 0.0
H1480 H 0.80133 0.85618 0.14949 0.0
C1481 C 0.80159 0.87913 0.45983 0.0
C1482 C 0.80174 0.89834 0.37387 0.0
H1483 H 0.8017 0.8373 0.50235 0.0
H1484 H 0.80176 0.88523 0.54675 0.0
C1485 C 0.80147 0.8897 0.26198 0.0
C1486 C 0.43739 0.3503 0.27403 0.0
C1487 C 0.437 0.34166 0.38588 0.0
H1488 H 0.43854 0.38379 0.16184 0.0
C1489 C 0.43793 0.36078 0.47195 0.0
H1490 H 0.43683 0.33595 0.20583 0.0
C1491 C 0.43886 0.38815 0.44664 0.0
C1492 C 0.43901 0.39682 0.33482 0.0
H1493 H 0.43771 0.35469 0.55885 0.0
H1494 H 0.43936 0.40251 0.51485 0.0
C1495 C 0.43846 0.37766 0.2487 0.0
C1496 C 0.18762 0.5966 0.24404 0.0
C1497 C 0.19153 0.59448 0.13067 0.0
H1498 H 0.18286 0.62338 0.38029 0.0
C1499 C 0.1956 0.61776 0.07243 0.0
H1500 H 0.18463 0.57888 0.2915 0.0
C1501 C 0.19448 0.64292 0.12292 0.0
C1502 C 0.1895 0.64522 0.23291 0.0
H1503 H 0.19881 0.61681 -0.01436 0.0
H1504 H 0.19688 0.66076 0.074 0.0
C1505 C 0.18669 0.62192 0.29521 0.0
C1506 C 0.55341 0.1045 0.02595 0.0
C1507 C 0.55336 0.0955 0.13734 0.0
H1508 H 0.55302 0.13836 0.91544 0.0
C1509 C 0.55247 0.1144 0.22431 0.0
H1510 H 0.55398 0.09033 0.95707 0.0
C1511 C 0.552 0.14189 0.20036 0.0
C1512 C 0.55227 0.15091 0.08902 0.0
H1513 H 0.55238 0.10803 0.31087 0.0
H1514 H 0.55149 0.15606 0.26924 0.0
C1515 C 0.5528 0.13197 0.00198 0.0
C1516 C 0.19859 0.1158 0.54478 0.0
C1517 C 0.19427 0.0941 0.61184 0.0
H1518 H 0.20066 0.15855 0.53071 0.0
C1519 C 0.191 0.09876 0.72507 0.0
H1520 H 0.20141 0.11287 0.4579 0.0
C1521 C 0.1907 0.12508 0.76713 0.0
C1522 C 0.19356 0.14685 0.69599 0.0
H1523 H 0.18783 0.08233 0.77928 0.0
H1524 H 0.18722 0.12848 0.85221 0.0
C1525 C 0.19815 0.14197 0.58638 0.0
C1526 C 0.5542 0.60368 0.52129 0.0
C1527 C 0.55431 0.59477 0.63279 0.0
H1528 H 0.5537 0.63745 0.41037 0.0
C1529 C 0.55349 0.61374 0.71958 0.0
H1530 H 0.55469 0.58946 0.45257 0.0
C1531 C 0.55301 0.64121 0.6953 0.0
C1532 C 0.55318 0.65013 0.58383 0.0
H1533 H 0.55353 0.60743 0.80623 0.0
H1534 H 0.5526 0.65544 0.76401 0.0
C1535 C 0.55356 0.63113 0.497 0.0
C1536 C 0.31233 0.1289 0.16687 0.0
C1537 C 0.29927 0.13969 0.19847 0.0
H1538 H 0.3233 0.09874 0.07522 0.0
C1539 C 0.2869 0.12782 0.15768 0.0
H1540 H 0.32208 0.13783 0.1951 0.0
C1541 C 0.2876 0.10524 0.08795 0.0
C1542 C 0.3007 0.0944 0.05714 0.0
H1543 H 0.27669 0.13598 0.17943 0.0
H1544 H 0.27791 0.09602 0.05991 0.0
C1545 C 0.31303 0.1067 0.09628 0.0
C1546 C 0.92428 0.131 0.11126 0.0
C1547 C 0.93659 0.14197 0.06527 0.0
H1548 H 0.91525 0.10088 0.21547 0.0
C1549 C 0.94965 0.13056 0.09241 0.0
H1550 H 0.91407 0.13966 0.09388 0.0
C1551 C 0.95035 0.1083 0.16328 0.0
C1552 C 0.938 0.09722 0.20839 0.0
H1553 H 0.95933 0.1389 0.05944 0.0
H1554 H 0.96052 0.09944 0.18066 0.0
C1555 C 0.92498 0.10903 0.18281 0.0
C1556 C 0.67802 0.88185 0.8974 0.0
C1557 C 0.69084 0.89303 0.93233 0.0
H1558 H 0.6677 0.852 0.79977 0.0
C1559 C 0.70348 0.88178 0.89326 0.0
H1560 H 0.66806 0.89022 0.92453 0.0
C1561 C 0.70326 0.85971 0.82061 0.0
C1562 C 0.6904 0.84875 0.78515 0.0
H1563 H 0.71352 0.8902 0.91762 0.0
H1564 H 0.71314 0.85108 0.79328 0.0
C1565 C 0.6778 0.86017 0.82391 0.0
C1566 C 0.04241 0.89369 0.87709 0.0
C1567 C 0.05521 0.90759 0.8859 0.0
H1568 H 0.03127 0.85698 0.90859 0.0
C1569 C 0.06668 0.89508 0.93823 0.0
H1570 H 0.03333 0.90305 0.83878 0.0
C1571 C 0.06547 0.86889 0.9788 0.0
C1572 C 0.05274 0.85482 0.96857 0.0
H1573 H 0.07665 0.90541 0.94709 0.0
H1574 H 0.07458 0.8595 0.01644 0.0
C1575 C 0.04115 0.86753 0.91882 0.0
C1576 C 0.31353 0.63143 0.63128 0.0
C1577 C 0.30049 0.64087 0.66997 0.0
H1578 H 0.3245 0.60227 0.5339 0.0
C1579 C 0.28812 0.62834 0.63285 0.0
H1580 H 0.32326 0.64108 0.65596 0.0
C1581 C 0.28883 0.60603 0.56178 0.0
C1582 C 0.30193 0.59605 0.52624 0.0
H1583 H 0.27791 0.63555 0.65974 0.0
H1584 H 0.27915 0.59608 0.53799 0.0
C1585 C 0.31424 0.60942 0.55954 0.0
C1586 C 0.95248 0.63084 0.56362 0.0
C1587 C 0.93967 0.64193 0.52808 0.0
H1588 H 0.96271 0.59821 0.64757 0.0
C1589 C 0.92707 0.62856 0.55404 0.0
H1590 H 0.96235 0.64091 0.54609 0.0
C1591 C 0.92725 0.60465 0.61433 0.0
C1592 C 0.94005 0.59328 0.64866 0.0
H1593 H 0.91699 0.63672 0.52939 0.0
H1594 H 0.91733 0.59478 0.63152 0.0
C1595 C 0.95268 0.60665 0.62327 0.0
C1596 C 0.67827 0.38472 0.37612 0.0
C1597 C 0.69127 0.39486 0.41235 0.0
H1598 H 0.66743 0.35469 0.28318 0.0
C1599 C 0.70369 0.38198 0.37803 0.0
H1600 H 0.66849 0.39444 0.39901 0.0
C1601 C 0.70308 0.35899 0.31057 0.0
C1602 C 0.69004 0.34872 0.2757 0.0
H1603 H 0.71387 0.38964 0.40322 0.0
H1604 H 0.71279 0.34895 0.28803 0.0
C1605 C 0.67767 0.36211 0.30781 0.0
C1606 C 0.06748 0.35177 0.21489 0.0
C1607 C 0.05585 0.33986 0.26789 0.0
H1608 H 0.07556 0.38621 0.12943 0.0
C1609 C 0.04285 0.35324 0.26681 0.0
H1610 H 0.07759 0.34175 0.21258 0.0
C1611 C 0.04164 0.37859 0.21733 0.0
C1612 C 0.05345 0.39099 0.16923 0.0
H1613 H 0.03363 0.34429 0.30501 0.0
H1614 H 0.03164 0.38898 0.22178 0.0
C1615 C 0.06629 0.3771 0.16609 0.0
C1616 C 0.80938 0.10946 0.57066 0.0
C1617 C 0.79694 0.09757 0.53124 0.0
H1618 H 0.81867 0.13948 0.67383 0.0
C1619 C 0.78393 0.10796 0.56662 0.0
H1620 H 0.81959 0.1018 0.54629 0.0
C1621 C 0.7834 0.12968 0.6409 0.0
C1622 C 0.79587 0.14118 0.6817 0.0
H1623 H 0.77417 0.09901 0.53862 0.0
H1624 H 0.77325 0.13754 0.66583 0.0
C1625 C 0.80885 0.13081 0.64576 0.0
C1626 C 0.42886 0.13036 0.57648 0.0
C1627 C 0.4414 0.1425 0.54028 0.0
H1628 H 0.41927 0.0998 0.67522 0.0
C1629 C 0.45431 0.13214 0.57759 0.0
H1630 H 0.41871 0.13799 0.5506 0.0
C1631 C 0.45463 0.11008 0.65016 0.0
C1632 C 0.44205 0.09824 0.6873 0.0
H1633 H 0.46414 0.1413 0.55218 0.0
H1634 H 0.46471 0.10219 0.67635 0.0
C1635 C 0.42918 0.10869 0.64989 0.0
C1636 C 0.16955 0.88934 0.36337 0.0
C1637 C 0.18228 0.90216 0.38945 0.0
H1638 H 0.15926 0.85215 0.32453 0.0
C1639 C 0.19477 0.88712 0.3911 0.0
H1640 H 0.15978 0.90056 0.36125 0.0
C1641 C 0.1945 0.85957 0.3677 0.0
C1642 C 0.18171 0.84663 0.34449 0.0
H1643 H 0.20474 0.89665 0.40968 0.0
H1644 H 0.20424 0.84828 0.37116 0.0
C1645 C 0.16925 0.86173 0.34208 0.0
C1646 C 0.53657 0.86163 0.38836 0.0
C1647 C 0.54922 0.84947 0.42181 0.0
H1648 H 0.52691 0.89372 0.29672 0.0
C1649 C 0.56201 0.85999 0.38277 0.0
H1650 H 0.52654 0.85366 0.41573 0.0
C1651 C 0.56221 0.88222 0.31229 0.0
C1652 C 0.54962 0.89485 0.28072 0.0
H1653 H 0.57195 0.85081 0.40495 0.0
H1654 H 0.57231 0.88993 0.28536 0.0
C1655 C 0.53678 0.88424 0.31872 0.0
C1656 C 0.81465 0.63144 0.13578 0.0
C1657 C 0.80153 0.64303 0.16037 0.0
H1658 H 0.82583 0.60001 0.05315 0.0
C1659 C 0.78931 0.63136 0.11588 0.0
H1660 H 0.8243 0.64015 0.16729 0.0
C1661 C 0.79021 0.60835 0.04905 0.0
C1662 C 0.80334 0.59665 0.0255 0.0
H1663 H 0.77907 0.6401 0.13182 0.0
H1664 H 0.78059 0.5994 0.0181 0.0
C1665 C 0.81555 0.60865 0.06852 0.0
C1666 C 0.4542 0.60928 0.1394 0.0
C1667 C 0.44173 0.59687 0.17584 0.0
H1668 H 0.4634 0.64185 0.04744 0.0
C1669 C 0.42875 0.60774 0.14314 0.0
H1670 H 0.46436 0.60111 0.16195 0.0
C1671 C 0.42821 0.63041 0.07526 0.0
C1672 C 0.44063 0.64312 0.03997 0.0
H1673 H 0.41893 0.59847 0.16816 0.0
H1674 H 0.41798 0.63834 0.05304 0.0
C1675 C 0.45365 0.6323 0.07228 0.0
C1676 C 0.19721 0.36111 0.84535 0.0
C1677 C 0.18479 0.3492 0.80543 0.0
H1678 H 0.20711 0.39713 0.90531 0.0
C1679 C 0.17266 0.36499 0.79371 0.0
H1680 H 0.20666 0.34924 0.85652 0.0
C1681 C 0.17296 0.39232 0.82085 0.0
C1682 C 0.18531 0.40415 0.86228 0.0
H1683 H 0.16295 0.35622 0.76362 0.0
H1684 H 0.16347 0.40414 0.81042 0.0
C1685 C 0.19742 0.38835 0.87468 0.0
C1686 C 0.53686 0.36194 0.88758 0.0
C1687 C 0.54918 0.3501 0.92947 0.0
H1688 H 0.52799 0.39331 0.78699 0.0
C1689 C 0.56228 0.36064 0.89738 0.0
H1690 H 0.52662 0.35399 0.90954 0.0
C1691 C 0.56307 0.38246 0.82492 0.0
C1692 C 0.55079 0.39466 0.78432 0.0
H1693 H 0.572 0.35176 0.92651 0.0
H1694 H 0.57337 0.39021 0.80351 0.0
C1695 C 0.53765 0.38413 0.81591 0.0
loop_
_geom_bond_atom_site_label_1
_geom_bond_atom_site_label_2
_geom_bond_distance
_geom_bond_site_symmetry_2
_ccdc_geom_bond_type
O0 Zn1 1.953 1_556 S
O0 C16 1.225 . S
Zn1 O0 1.953 1_554 S
Zn1 O2 1.949 . S
Zn1 O8 1.919 . S
Zn1 O13 1.924 . S
O2 Zn1 1.949 . S
O2 Zn3 1.923 . S
O2 Zn4 1.950 . S
O2 Zn5 1.945 . S
Zn3 O2 1.923 . S
Zn3 O6 1.933 . S
Zn3 O9 1.941 . S
Zn3 O10 1.965 . S
Zn4 O2 1.950 . S
Zn4 O11 1.938 . S
Zn4 O12 1.906 . S
Zn4 O22 1.953 1_554 S
Zn5 O2 1.945 . S
Zn5 O7 1.932 . S
Zn5 O14 1.977 . S
Zn5 O15 1.910 . S
O6 Zn3 1.933 . S
O6 C17 1.226 . S
O7 Zn5 1.932 . S
O7 C17 1.307 . S
O8 Zn1 1.919 . S
O8 C19 1.253 . S
O9 Zn3 1.941 . S
O9 C19 1.283 . S
O10 Zn3 1.965 . S
O10 C18 1.303 . S
O11 Zn4 1.938 . S
O11 C18 1.247 . S
O12 Zn4 1.906 . S
O12 C20 1.304 . S
O13 Zn1 1.924 . S
O13 C21 1.311 . S
O14 Zn5 1.977 . S
O14 C20 1.272 . S
O15 Zn5 1.910 . S
O15 C21 1.231 . S
C16 O0 1.225 . S
C16 O22 1.298 . S
C17 O6 1.226 . S
C17 O7 1.307 . S
C18 O10 1.303 . S
C18 O11 1.247 . S
C19 O8 1.253 . S
C19 O9 1.283 . S
C20 O12 1.304 . S
C20 O14 1.272 . S
C21 O13 1.311 . S
C21 O15 1.231 . S
O22 Zn4 1.953 1_556 S
O22 C16 1.298 . S
O23 Zn24 1.953 1_556 S
O23 C39 1.225 1_545 S
Zn24 O23 1.953 1_554 S
Zn24 O25 1.932 1_545 S
Zn24 O31 1.919 . S
Zn24 O36 1.924 . S
O25 Zn24 1.932 1_565 S
O25 Zn26 1.910 1_565 S
O25 Zn27 1.970 . S
O25 Zn28 1.955 . S
Zn26 O25 1.910 1_545 S
Zn26 O29 1.933 . S
Zn26 O32 1.941 . S
Zn26 O33 1.965 . S
Zn27 O25 1.970 . S
Zn27 O34 1.938 . S
Zn27 O35 1.906 . S
Zn27 O45 1.953 1_554 S
Zn28 O25 1.955 . S
Zn28 O30 1.932 . S
Zn28 O37 1.977 . S
Zn28 O38 1.910 . S
O29 Zn26 1.933 . S
O29 C40 1.226 . S
O30 Zn28 1.932 . S
O30 C40 1.307 1_565 S
O31 Zn24 1.919 . S
O31 C42 1.253 . S
O32 Zn26 1.941 . S
O32 C42 1.283 . S
O33 Zn26 1.965 . S
O33 C41 1.303 1_545 S
O34 Zn27 1.938 . S
O34 C41 1.247 . S
O35 Zn27 1.906 . S
O35 C43 1.304 . S
O36 Zn24 1.924 . S
O36 C44 1.338 . S
O37 Zn28 1.977 . S
O37 C43 1.272 . S
O38 Zn28 1.910 . S
O38 C44 1.212 1_565 S
C39 O23 1.225 1_565 S
C39 O45 1.298 . S
C40 O29 1.226 . S
C40 O30 1.307 1_545 S
C41 O33 1.303 1_565 S
C41 O34 1.247 . S
C42 O31 1.253 . S
C42 O32 1.283 . S
C43 O35 1.304 . S
C43 O37 1.272 . S
C44 O36 1.338 . S
C44 O38 1.212 1_545 S
O45 Zn27 1.953 1_556 S
O45 C39 1.298 . S
O46 Zn47 1.953 . S
O46 C62 1.225 1_545 S
Zn47 O46 1.953 . S
Zn47 O48 1.932 1_545 S
Zn47 O54 1.919 . S
Zn47 O59 1.924 . S
O48 Zn47 1.932 1_565 S
O48 Zn49 1.910 1_564 S
O48 Zn50 1.970 . S
O48 Zn51 1.955 1_554 S
Zn49 O48 1.910 1_546 S
Zn49 O52 1.933 . S
Zn49 O55 1.941 . S
Zn49 O56 1.965 1_556 S
Zn50 O48 1.970 . S
Zn50 O57 1.938 . S
Zn50 O58 1.906 . S
Zn50 O68 1.953 . S
Zn51 O48 1.955 1_556 S
Zn51 O53 1.932 . S
Zn51 O60 1.977 . S
Zn51 O61 1.910 . S
O52 Zn49 1.933 . S
O52 C63 1.226 . S
O53 Zn51 1.932 . S
O53 C63 1.307 1_565 S
O54 Zn47 1.919 . S
O54 C65 1.253 . S
O55 Zn49 1.941 . S
O55 C65 1.283 1_556 S
O56 Zn49 1.965 1_554 S
O56 C64 1.303 1_545 S
O57 Zn50 1.938 . S
O57 C64 1.247 . S
O58 Zn50 1.906 . S
O58 C66 1.304 1_554 S
O59 Zn47 1.924 . S
O59 C67 1.338 . S
O60 Zn51 1.977 . S
O60 C66 1.272 . S
O61 Zn51 1.910 . S
O61 C67 1.212 1_566 S
C62 O46 1.225 1_565 S
C62 O68 1.298 . S
C63 O52 1.226 . S
C63 O53 1.307 1_545 S
C64 O56 1.303 1_565 S
C64 O57 1.247 . S
C65 O54 1.253 . S
C65 O55 1.283 1_554 S
C66 O58 1.304 1_556 S
C66 O60 1.272 . S
C67 O59 1.338 . S
C67 O61 1.212 1_544 S
O68 Zn50 1.953 . S
O68 C62 1.298 . S
O69 Zn70 1.953 . S
O69 C85 1.225 . S
Zn70 O69 1.953 . S
Zn70 O71 1.949 . S
Zn70 O77 1.919 . S
Zn70 O82 1.924 . S
O71 Zn70 1.949 . S
O71 Zn72 1.923 1_554 S
O71 Zn73 1.950 . S
O71 Zn74 1.945 1_554 S
Zn72 O71 1.923 1_556 S
Zn72 O75 1.933 . S
Zn72 O78 1.941 . S
Zn72 O79 1.965 1_556 S
Zn73 O71 1.950 . S
Zn73 O80 1.938 . S
Zn73 O81 1.906 . S
Zn73 O91 1.953 . S
Zn74 O71 1.945 1_556 S
Zn74 O76 1.932 . S
Zn74 O83 1.977 . S
Zn74 O84 1.910 . S
O75 Zn72 1.933 . S
O75 C86 1.226 . S
O76 Zn74 1.932 . S
O76 C86 1.307 . S
O77 Zn70 1.919 . S
O77 C88 1.253 . S
O78 Zn72 1.941 . S
O78 C88 1.283 1_556 S
O79 Zn72 1.965 1_554 S
O79 C87 1.303 . S
O80 Zn73 1.938 . S
O80 C87 1.247 . S
O81 Zn73 1.906 . S
O81 C89 1.304 1_554 S
O82 Zn70 1.924 . S
O82 C90 1.311 . S
O83 Zn74 1.977 . S
O83 C89 1.272 . S
O84 Zn74 1.910 . S
O84 C90 1.231 1_556 S
C85 O69 1.225 . S
C85 O91 1.298 . S
C86 O75 1.226 . S
C86 O76 1.307 . S
C87 O79 1.303 . S
C87 O80 1.247 . S
C88 O77 1.253 . S
C88 O78 1.283 1_554 S
C89 O81 1.304 1_556 S
C89 O83 1.272 . S
C90 O82 1.311 . S
C90 O84 1.231 1_554 S
O91 Zn73 1.953 . S
O91 C85 1.298 . S
O92 Zn93 1.953 1_554 S
O92 C108 1.225 . S
Zn93 O92 1.953 1_556 S
Zn93 O94 1.949 . S
Zn93 O100 1.919 . S
Zn93 O105 1.924 . S
O94 Zn93 1.949 . S
O94 Zn95 1.923 . S
O94 Zn96 1.950 . S
O94 Zn97 1.945 . S
Zn95 O94 1.923 . S
Zn95 O98 1.933 . S
Zn95 O101 1.941 . S
Zn95 O102 1.965 . S
Zn96 O94 1.950 . S
Zn96 O103 1.938 . S
Zn96 O104 1.906 . S
Zn96 O114 1.953 1_556 S
Zn97 O94 1.945 . S
Zn97 O99 1.932 . S
Zn97 O106 1.977 . S
Zn97 O107 1.910 . S
O98 Zn95 1.933 . S
O98 C109 1.226 . S
O99 Zn97 1.932 . S
O99 C109 1.307 . S
O100 Zn93 1.919 . S
O100 C111 1.253 . S
O101 Zn95 1.941 . S
O101 C111 1.283 . S
O102 Zn95 1.965 . S
O102 C110 1.303 . S
O103 Zn96 1.938 . S
O103 C110 1.247 . S
O104 Zn96 1.906 . S
O104 C112 1.304 . S
O105 Zn93 1.924 . S
O105 C113 1.311 . S
O106 Zn97 1.977 . S
O106 C112 1.272 . S
O107 Zn97 1.910 . S
O107 C113 1.231 . S
C108 O92 1.225 . S
C108 O114 1.298 . S
C109 O98 1.226 . S
C109 O99 1.307 . S
C110 O102 1.303 . S
C110 O103 1.247 . S
C111 O100 1.253 . S
C111 O101 1.283 . S
C112 O104 1.304 . S
C112 O106 1.272 . S
C113 O105 1.311 . S
C113 O107 1.231 . S
O114 Zn96 1.953 1_554 S
O114 C108 1.298 . S
O115 Zn116 1.953 1_554 S
O115 C131 1.225 1_565 S
Zn116 O115 1.953 1_556 S
Zn116 O117 1.932 1_565 S
Zn116 O123 1.919 . S
Zn116 O128 1.924 . S
O117 Zn116 1.932 1_545 S
O117 Zn118 1.910 1_545 S
O117 Zn119 1.970 . S
O117 Zn120 1.955 . S
Zn118 O117 1.910 1_565 S
Zn118 O121 1.933 . S
Zn118 O124 1.941 . S
Zn118 O125 1.965 . S
Zn119 O117 1.970 . S
Zn119 O126 1.938 . S
Zn119 O127 1.906 . S
Zn119 O137 1.953 1_556 S
Zn120 O117 1.955 . S
Zn120 O122 1.932 . S
Zn120 O129 1.977 . S
Zn120 O130 1.910 . S
O121 Zn118 1.933 . S
O121 C132 1.226 . S
O122 Zn120 1.932 . S
O122 C132 1.307 1_545 S
O123 Zn116 1.919 . S
O123 C134 1.253 . S
O124 Zn118 1.941 . S
O124 C134 1.283 . S
O125 Zn118 1.965 . S
O125 C133 1.303 1_565 S
O126 Zn119 1.938 . S
O126 C133 1.247 . S
O127 Zn119 1.906 . S
O127 C135 1.304 . S
O128 Zn116 1.924 . S
O128 C136 1.338 . S
O129 Zn120 1.977 . S
O129 C135 1.272 . S
O130 Zn120 1.910 . S
O130 C136 1.212 1_545 S
C131 O115 1.225 1_545 S
C131 O137 1.298 . S
C132 O121 1.226 . S
C132 O122 1.307 1_565 S
C133 O125 1.303 1_545 S
C133 O126 1.247 . S
C134 O123 1.253 . S
C134 O124 1.283 . S
C135 O127 1.304 . S
C135 O129 1.272 . S
C136 O128 1.338 . S
C136 O130 1.212 1_565 S
O137 Zn119 1.953 1_554 S
O137 C131 1.298 . S
O138 Zn139 1.953 . S
O138 C154 1.225 1_565 S
Zn139 O138 1.953 . S
Zn139 O140 1.932 1_565 S
Zn139 O146 1.919 . S
Zn139 O151 1.924 . S
O140 Zn139 1.932 1_545 S
O140 Zn141 1.910 1_546 S
O140 Zn142 1.970 . S
O140 Zn143 1.955 1_556 S
Zn141 O140 1.910 1_564 S
Zn141 O144 1.933 . S
Zn141 O147 1.941 . S
Zn141 O148 1.965 1_554 S
Zn142 O140 1.970 . S
Zn142 O149 1.938 . S
Zn142 O150 1.906 . S
Zn142 O160 1.953 . S
Zn143 O140 1.955 1_554 S
Zn143 O145 1.932 . S
Zn143 O152 1.977 . S
Zn143 O153 1.910 . S
O144 Zn141 1.933 . S
O144 C155 1.226 . S
O145 Zn143 1.932 . S
O145 C155 1.307 1_545 S
O146 Zn139 1.919 . S
O146 C157 1.253 . S
O147 Zn141 1.941 . S
O147 C157 1.283 1_554 S
O148 Zn141 1.965 1_556 S
O148 C156 1.303 1_565 S
O149 Zn142 1.938 . S
O149 C156 1.247 . S
O150 Zn142 1.906 . S
O150 C158 1.304 1_556 S
O151 Zn139 1.924 . S
O151 C159 1.338 . S
O152 Zn143 1.977 . S
O152 C158 1.272 . S
O153 Zn143 1.910 . S
O153 C159 1.212 1_544 S
C154 O138 1.225 1_545 S
C154 O160 1.298 . S
C155 O144 1.226 . S
C155 O145 1.307 1_565 S
C156 O148 1.303 1_545 S
C156 O149 1.247 . S
C157 O146 1.253 . S
C157 O147 1.283 1_556 S
C158 O150 1.304 1_554 S
C158 O152 1.272 . S
C159 O151 1.338 . S
C159 O153 1.212 1_566 S
O160 Zn142 1.953 . S
O160 C154 1.298 . S
O161 Zn162 1.953 . S
O161 C177 1.225 . S
Zn162 O161 1.953 . S
Zn162 O163 1.949 . S
Zn162 O169 1.919 . S
Zn162 O174 1.924 . S
O163 Zn162 1.949 . S
O163 Zn164 1.923 1_556 S
O163 Zn165 1.950 . S
O163 Zn166 1.945 1_556 S
Zn164 O163 1.923 1_554 S
Zn164 O167 1.933 . S
Zn164 O170 1.941 . S
Zn164 O171 1.965 1_554 S
Zn165 O163 1.950 . S
Zn165 O172 1.938 . S
Zn165 O173 1.906 . S
Zn165 O183 1.953 . S
Zn166 O163 1.945 1_554 S
Zn166 O168 1.932 . S
Zn166 O175 1.977 . S
Zn166 O176 1.910 . S
O167 Zn164 1.933 . S
O167 C178 1.226 . S
O168 Zn166 1.932 . S
O168 C178 1.307 . S
O169 Zn162 1.919 . S
O169 C180 1.253 . S
O170 Zn164 1.941 . S
O170 C180 1.283 1_554 S
O171 Zn164 1.965 1_556 S
O171 C179 1.303 . S
O172 Zn165 1.938 . S
O172 C179 1.247 . S
O173 Zn165 1.906 . S
O173 C181 1.304 1_556 S
O174 Zn162 1.924 . S
O174 C182 1.311 . S
O175 Zn166 1.977 . S
O175 C181 1.272 . S
O176 Zn166 1.910 . S
O176 C182 1.231 1_554 S
C177 O161 1.225 . S
C177 O183 1.298 . S
C178 O167 1.226 . S
C178 O168 1.307 . S
C179 O171 1.303 . S
C179 O172 1.247 . S
C180 O169 1.253 . S
C180 O170 1.283 1_556 S
C181 O173 1.304 1_554 S
C181 O175 1.272 . S
C182 O174 1.311 . S
C182 O176 1.231 1_556 S
O183 Zn165 1.953 . S
O183 C177 1.298 . S
O184 Zn185 1.953 . S
O184 C200 1.225 . S
Zn185 O184 1.953 . S
Zn185 O186 1.949 . S
Zn185 O192 1.919 . S
Zn185 O197 1.924 . S
O186 Zn185 1.949 . S
O186 Zn187 1.923 . S
O186 Zn188 1.950 . S
O186 Zn189 1.945 . S
Zn187 O186 1.923 . S
Zn187 O190 1.933 . S
Zn187 O193 1.941 . S
Zn187 O194 1.965 . S
Zn188 O186 1.950 . S
Zn188 O195 1.938 . S
Zn188 O196 1.906 . S
Zn188 O206 1.953 . S
Zn189 O186 1.945 . S
Zn189 O191 1.932 1_556 S
Zn189 O198 1.977 . S
Zn189 O199 1.910 . S
O190 Zn187 1.933 . S
O190 C201 1.226 1_556 S
O191 Zn189 1.932 1_554 S
O191 C201 1.307 . S
O192 Zn185 1.919 . S
O192 C203 1.253 . S
O193 Zn187 1.941 . S
O193 C203 1.283 . S
O194 Zn187 1.965 . S
O194 C202 1.303 . S
O195 Zn188 1.938 . S
O195 C202 1.247 . S
O196 Zn188 1.906 . S
O196 C204 1.304 . S
O197 Zn185 1.924 . S
O197 C205 1.311 . S
O198 Zn189 1.977 . S
O198 C204 1.272 . S
O199 Zn189 1.910 . S
O199 C205 1.231 . S
C200 O184 1.225 . S
C200 O206 1.298 . S
C201 O190 1.226 1_554 S
C201 O191 1.307 . S
C202 O194 1.303 . S
C202 O195 1.247 . S
C203 O192 1.253 . S
C203 O193 1.283 . S
C204 O196 1.304 . S
C204 O198 1.272 . S
C205 O197 1.311 . S
C205 O199 1.231 . S
O206 Zn188 1.953 . S
O206 C200 1.298 . S
O207 Zn208 1.953 . S
O207 C223 1.225 . S
Zn208 O207 1.953 . S
Zn208 O209 1.949 . S
Zn208 O215 1.919 . S
Zn208 O220 1.924 . S
O209 Zn208 1.949 . S
O209 Zn210 1.923 . S
O209 Zn211 1.950 . S
O209 Zn212 1.945 . S
Zn210 O209 1.923 . S
Zn210 O213 1.933 . S
Zn210 O216 1.941 . S
Zn210 O217 1.965 . S
Zn211 O209 1.950 . S
Zn211 O218 1.938 . S
Zn211 O219 1.906 . S
Zn211 O229 1.953 . S
Zn212 O209 1.945 . S
Zn212 O214 1.932 1_556 S
Zn212 O221 1.977 . S
Zn212 O222 1.910 . S
O213 Zn210 1.933 . S
O213 C224 1.226 1_556 S
O214 Zn212 1.932 1_554 S
O214 C224 1.307 . S
O215 Zn208 1.919 . S
O215 C226 1.253 . S
O216 Zn210 1.941 . S
O216 C226 1.283 . S
O217 Zn210 1.965 . S
O217 C225 1.303 . S
O218 Zn211 1.938 . S
O218 C225 1.247 . S
O219 Zn211 1.906 . S
O219 C227 1.304 . S
O220 Zn208 1.924 . S
O220 C228 1.311 . S
O221 Zn212 1.977 . S
O221 C227 1.272 . S
O222 Zn212 1.910 . S
O222 C228 1.231 . S
C223 O207 1.225 . S
C223 O229 1.298 . S
C224 O213 1.226 1_554 S
C224 O214 1.307 . S
C225 O217 1.303 . S
C225 O218 1.247 . S
C226 O215 1.253 . S
C226 O216 1.283 . S
C227 O219 1.304 . S
C227 O221 1.272 . S
C228 O220 1.311 . S
C228 O222 1.231 . S
O229 Zn211 1.953 . S
O229 C223 1.298 . S
O230 Zn231 1.953 . S
O230 C246 1.225 . S
Zn231 O230 1.953 . S
Zn231 O232 1.949 . S
Zn231 O238 1.919 . S
Zn231 O243 1.924 . S
O232 Zn231 1.949 . S
O232 Zn233 1.923 . S
O232 Zn234 1.950 . S
O232 Zn235 1.945 . S
Zn233 O232 1.923 . S
Zn233 O236 1.933 . S
Zn233 O239 1.941 . S
Zn233 O240 1.965 . S
Zn234 O232 1.950 . S
Zn234 O241 1.938 . S
Zn234 O242 1.906 . S
Zn234 O252 1.953 . S
Zn235 O232 1.945 . S
Zn235 O237 1.932 . S
Zn235 O244 1.977 . S
Zn235 O245 1.910 . S
O236 Zn233 1.933 . S
O236 C247 1.226 . S
O237 Zn235 1.932 . S
O237 C247 1.307 . S
O238 Zn231 1.919 . S
O238 C249 1.253 . S
O239 Zn233 1.941 . S
O239 C249 1.283 . S
O240 Zn233 1.965 . S
O240 C248 1.303 . S
O241 Zn234 1.938 . S
O241 C248 1.247 . S
O242 Zn234 1.906 . S
O242 C250 1.304 . S
O243 Zn231 1.924 . S
O243 C251 1.311 . S
O244 Zn235 1.977 . S
O244 C250 1.272 . S
O245 Zn235 1.910 . S
O245 C251 1.231 . S
C246 O230 1.225 . S
C246 O252 1.298 . S
C247 O236 1.226 . S
C247 O237 1.307 . S
C248 O240 1.303 . S
C248 O241 1.247 . S
C249 O238 1.253 . S
C249 O239 1.283 . S
C250 O242 1.304 . S
C250 O244 1.272 . S
C251 O243 1.311 . S
C251 O245 1.231 . S
O252 Zn234 1.953 . S
O252 C246 1.298 . S
O253 Zn254 1.953 . S
O253 C269 1.225 . S
Zn254 O253 1.953 . S
Zn254 O255 1.949 . S
Zn254 O261 1.919 . S
Zn254 O266 1.924 . S
O255 Zn254 1.949 . S
O255 Zn256 1.923 . S
O255 Zn257 1.950 . S
O255 Zn258 1.945 . S
Zn256 O255 1.923 . S
Zn256 O259 1.933 . S
Zn256 O262 1.941 . S
Zn256 O263 1.965 . S
Zn257 O255 1.950 . S
Zn257 O264 1.938 . S
Zn257 O265 1.906 . S
Zn257 O275 1.953 . S
Zn258 O255 1.945 . S
Zn258 O260 1.932 . S
Zn258 O267 1.977 . S
Zn258 O268 1.910 . S
O259 Zn256 1.933 . S
O259 C270 1.226 . S
O260 Zn258 1.932 . S
O260 C270 1.307 . S
O261 Zn254 1.919 . S
O261 C272 1.253 . S
O262 Zn256 1.941 . S
O262 C272 1.283 . S
O263 Zn256 1.965 . S
O263 C271 1.303 . S
O264 Zn257 1.938 . S
O264 C271 1.247 . S
O265 Zn257 1.906 . S
O265 C273 1.304 . S
O266 Zn254 1.924 . S
O266 C274 1.311 . S
O267 Zn258 1.977 . S
O267 C273 1.272 . S
O268 Zn258 1.910 . S
O268 C274 1.231 . S
C269 O253 1.225 . S
C269 O275 1.298 . S
C270 O259 1.226 . S
C270 O260 1.307 . S
C271 O263 1.303 . S
C271 O264 1.247 . S
C272 O261 1.253 . S
C272 O262 1.283 . S
C273 O265 1.304 . S
C273 O267 1.272 . S
C274 O266 1.311 . S
C274 O268 1.231 . S
O275 Zn257 1.953 . S
O275 C269 1.298 . S
O276 Zn277 1.953 . S
O276 C292 1.225 . S
Zn277 O276 1.953 . S
Zn277 O278 1.949 . S
Zn277 O284 1.919 . S
Zn277 O289 1.924 . S
O278 Zn277 1.949 . S
O278 Zn279 1.923 . S
O278 Zn280 1.950 . S
O278 Zn281 1.945 . S
Zn279 O278 1.923 . S
Zn279 O282 1.933 . S
Zn279 O285 1.941 . S
Zn279 O286 1.965 . S
Zn280 O278 1.950 . S
Zn280 O287 1.938 . S
Zn280 O288 1.906 . S
Zn280 O298 1.953 . S
Zn281 O278 1.945 . S
Zn281 O283 1.932 1_554 S
Zn281 O290 1.977 . S
Zn281 O291 1.910 . S
O282 Zn279 1.933 . S
O282 C293 1.226 1_554 S
O283 Zn281 1.932 1_556 S
O283 C293 1.307 . S
O284 Zn277 1.919 . S
O284 C295 1.253 . S
O285 Zn279 1.941 . S
O285 C295 1.283 . S
O286 Zn279 1.965 . S
O286 C294 1.303 . S
O287 Zn280 1.938 . S
O287 C294 1.247 . S
O288 Zn280 1.906 . S
O288 C296 1.304 . S
O289 Zn277 1.924 . S
O289 C297 1.311 . S
O290 Zn281 1.977 . S
O290 C296 1.272 . S
O291 Zn281 1.910 . S
O291 C297 1.231 . S
C292 O276 1.225 . S
C292 O298 1.298 . S
C293 O282 1.226 1_556 S
C293 O283 1.307 . S
C294 O286 1.303 . S
C294 O287 1.247 . S
C295 O284 1.253 . S
C295 O285 1.283 . S
C296 O288 1.304 . S
C296 O290 1.272 . S
C297 O289 1.311 . S
C297 O291 1.231 . S
O298 Zn280 1.953 . S
O298 C292 1.298 . S
O299 Zn300 1.953 . S
O299 C315 1.225 . S
Zn300 O299 1.953 . S
Zn300 O301 1.949 . S
Zn300 O307 1.919 . S
Zn300 O312 1.924 . S
O301 Zn300 1.949 . S
O301 Zn302 1.923 . S
O301 Zn303 1.950 . S
O301 Zn304 1.945 . S
Zn302 O301 1.923 . S
Zn302 O305 1.933 . S
Zn302 O308 1.941 . S
Zn302 O309 1.965 . S
Zn303 O301 1.950 . S
Zn303 O310 1.938 . S
Zn303 O311 1.906 . S
Zn303 O321 1.953 . S
Zn304 O301 1.945 . S
Zn304 O306 1.932 1_554 S
Zn304 O313 1.977 . S
Zn304 O314 1.910 . S
O305 Zn302 1.933 . S
O305 C316 1.226 1_554 S
O306 Zn304 1.932 1_556 S
O306 C316 1.307 . S
O307 Zn300 1.919 . S
O307 C318 1.253 . S
O308 Zn302 1.941 . S
O308 C318 1.283 . S
O309 Zn302 1.965 . S
O309 C317 1.303 . S
O310 Zn303 1.938 . S
O310 C317 1.247 . S
O311 Zn303 1.906 . S
O311 C319 1.304 . S
O312 Zn300 1.924 . S
O312 C320 1.311 . S
O313 Zn304 1.977 . S
O313 C319 1.272 . S
O314 Zn304 1.910 . S
O314 C320 1.231 . S
C315 O299 1.225 . S
C315 O321 1.298 . S
C316 O305 1.226 1_556 S
C316 O306 1.307 . S
C317 O309 1.303 . S
C317 O310 1.247 . S
C318 O307 1.253 . S
C318 O308 1.283 . S
C319 O311 1.304 . S
C319 O313 1.272 . S
C320 O312 1.311 . S
C320 O314 1.231 . S
O321 Zn303 1.953 . S
O321 C315 1.298 . S
O322 Zn323 1.953 . S
O322 C338 1.225 . S
Zn323 O322 1.953 . S
Zn323 O324 1.949 . S
Zn323 O330 1.919 . S
Zn323 O335 1.924 . S
O324 Zn323 1.949 . S
O324 Zn325 1.923 . S
O324 Zn326 1.950 . S
O324 Zn327 1.945 . S
Zn325 O324 1.923 . S
Zn325 O328 1.933 . S
Zn325 O331 1.941 . S
Zn325 O332 1.965 . S
Zn326 O324 1.950 . S
Zn326 O333 1.938 . S
Zn326 O334 1.906 . S
Zn326 O344 1.953 . S
Zn327 O324 1.945 . S
Zn327 O329 1.932 . S
Zn327 O336 1.977 . S
Zn327 O337 1.910 . S
O328 Zn325 1.933 . S
O328 C339 1.226 . S
O329 Zn327 1.932 . S
O329 C339 1.307 . S
O330 Zn323 1.919 . S
O330 C341 1.253 . S
O331 Zn325 1.941 . S
O331 C341 1.283 . S
O332 Zn325 1.965 . S
O332 C340 1.303 . S
O333 Zn326 1.938 . S
O333 C340 1.247 . S
O334 Zn326 1.906 . S
O334 C342 1.304 . S
O335 Zn323 1.924 . S
O335 C343 1.311 . S
O336 Zn327 1.977 . S
O336 C342 1.272 . S
O337 Zn327 1.910 . S
O337 C343 1.231 . S
C338 O322 1.225 . S
C338 O344 1.298 . S
C339 O328 1.226 . S
C339 O329 1.307 . S
C340 O332 1.303 . S
C340 O333 1.247 . S
C341 O330 1.253 . S
C341 O331 1.283 . S
C342 O334 1.304 . S
C342 O336 1.272 . S
C343 O335 1.311 . S
C343 O337 1.231 . S
O344 Zn326 1.953 . S
O344 C338 1.298 . S
O345 Zn346 1.953 . S
O345 C361 1.225 . S
Zn346 O345 1.953 . S
Zn346 O347 1.949 . S
Zn346 O353 1.919 . S
Zn346 O358 1.924 . S
O347 Zn346 1.949 . S
O347 Zn348 1.923 . S
O347 Zn349 1.950 . S
O347 Zn350 1.945 . S
Zn348 O347 1.923 . S
Zn348 O351 1.933 . S
Zn348 O354 1.941 . S
Zn348 O355 1.965 . S
Zn349 O347 1.950 . S
Zn349 O356 1.938 . S
Zn349 O357 1.906 . S
Zn349 O367 1.953 . S
Zn350 O347 1.945 . S
Zn350 O352 1.932 . S
Zn350 O359 1.977 . S
Zn350 O360 1.910 . S
O351 Zn348 1.933 . S
O351 C362 1.226 . S
O352 Zn350 1.932 . S
O352 C362 1.307 . S
O353 Zn346 1.919 . S
O353 C364 1.253 . S
O354 Zn348 1.941 . S
O354 C364 1.283 . S
O355 Zn348 1.965 . S
O355 C363 1.303 . S
O356 Zn349 1.938 . S
O356 C363 1.247 . S
O357 Zn349 1.906 . S
O357 C365 1.304 . S
O358 Zn346 1.924 . S
O358 C366 1.311 . S
O359 Zn350 1.977 . S
O359 C365 1.272 . S
O360 Zn350 1.910 . S
O360 C366 1.231 . S
C361 O345 1.225 . S
C361 O367 1.298 . S
C362 O351 1.226 . S
C362 O352 1.307 . S
C363 O355 1.303 . S
C363 O356 1.247 . S
C364 O353 1.253 . S
C364 O354 1.283 . S
C365 O357 1.304 . S
C365 O359 1.272 . S
C366 O358 1.311 . S
C366 O360 1.231 . S
O367 Zn349 1.953 . S
O367 C361 1.298 . S
O368 Zn369 1.953 . S
O368 C384 1.225 . S
Zn369 O368 1.953 . S
Zn369 O370 1.949 . S
Zn369 O376 1.919 . S
Zn369 O381 1.924 . S
O370 Zn369 1.949 . S
O370 Zn371 1.923 . S
O370 Zn372 1.950 . S
O370 Zn373 1.945 . S
Zn371 O370 1.923 . S
Zn371 O374 1.933 . S
Zn371 O377 1.941 . S
Zn371 O378 1.965 . S
Zn372 O370 1.950 . S
Zn372 O379 1.938 . S
Zn372 O380 1.906 . S
Zn372 O390 1.953 . S
Zn373 O370 1.945 . S
Zn373 O375 1.932 1_556 S
Zn373 O382 1.977 . S
Zn373 O383 1.910 . S
O374 Zn371 1.933 . S
O374 C385 1.226 1_556 S
O375 Zn373 1.932 1_554 S
O375 C385 1.307 . S
O376 Zn369 1.919 . S
O376 C387 1.253 . S
O377 Zn371 1.941 . S
O377 C387 1.283 . S
O378 Zn371 1.965 . S
O378 C386 1.303 . S
O379 Zn372 1.938 . S
O379 C386 1.247 . S
O380 Zn372 1.906 . S
O380 C388 1.304 . S
O381 Zn369 1.924 . S
O381 C389 1.311 . S
O382 Zn373 1.977 . S
O382 C388 1.272 . S
O383 Zn373 1.910 . S
O383 C389 1.231 . S
C384 O368 1.225 . S
C384 O390 1.298 . S
C385 O374 1.226 1_554 S
C385 O375 1.307 . S
C386 O378 1.303 . S
C386 O379 1.247 . S
C387 O376 1.253 . S
C387 O377 1.283 . S
C388 O380 1.304 . S
C388 O382 1.272 . S
C389 O381 1.311 . S
C389 O383 1.231 . S
O390 Zn372 1.953 . S
O390 C384 1.298 . S
O391 Zn392 1.953 . S
O391 C407 1.225 1_545 S
Zn392 O391 1.953 . S
Zn392 O393 1.932 1_545 S
Zn392 O399 1.919 . S
Zn392 O404 1.924 . S
O393 Zn392 1.932 1_565 S
O393 Zn394 1.910 1_565 S
O393 Zn395 1.970 . S
O393 Zn396 1.955 . S
Zn394 O393 1.910 1_545 S
Zn394 O397 1.933 . S
Zn394 O400 1.941 . S
Zn394 O401 1.965 . S
Zn395 O393 1.970 . S
Zn395 O402 1.938 . S
Zn395 O403 1.906 . S
Zn395 O413 1.953 . S
Zn396 O393 1.955 . S
Zn396 O398 1.932 1_556 S
Zn396 O405 1.977 . S
Zn396 O406 1.910 . S
O397 Zn394 1.933 . S
O397 C408 1.226 1_556 S
O398 Zn396 1.932 1_554 S
O398 C408 1.307 1_565 S
O399 Zn392 1.919 . S
O399 C410 1.253 . S
O400 Zn394 1.941 . S
O400 C410 1.283 . S
O401 Zn394 1.965 . S
O401 C409 1.303 1_545 S
O402 Zn395 1.938 . S
O402 C409 1.247 . S
O403 Zn395 1.906 . S
O403 C411 1.304 . S
O404 Zn392 1.924 . S
O404 C412 1.338 . S
O405 Zn396 1.977 . S
O405 C411 1.272 . S
O406 Zn396 1.910 . S
O406 C412 1.212 1_565 S
C407 O391 1.225 1_565 S
C407 O413 1.298 . S
C408 O397 1.226 1_554 S
C408 O398 1.307 1_545 S
C409 O401 1.303 1_565 S
C409 O402 1.247 . S
C410 O399 1.253 . S
C410 O400 1.283 . S
C411 O403 1.304 . S
C411 O405 1.272 . S
C412 O404 1.338 . S
C412 O406 1.212 1_545 S
O413 Zn395 1.953 . S
O413 C407 1.298 . S
O414 Zn415 1.953 . S
O414 C430 1.225 1_545 S
Zn415 O414 1.953 . S
Zn415 O416 1.932 1_545 S
Zn415 O422 1.919 . S
Zn415 O427 1.924 . S
O416 Zn415 1.932 1_565 S
O416 Zn417 1.910 1_565 S
O416 Zn418 1.970 . S
O416 Zn419 1.955 . S
Zn417 O416 1.910 1_545 S
Zn417 O420 1.933 . S
Zn417 O423 1.941 . S
Zn417 O424 1.965 . S
Zn418 O416 1.970 . S
Zn418 O425 1.938 . S
Zn418 O426 1.906 . S
Zn418 O436 1.953 . S
Zn419 O416 1.955 . S
Zn419 O421 1.932 . S
Zn419 O428 1.977 . S
Zn419 O429 1.910 . S
O420 Zn417 1.933 . S
O420 C431 1.226 . S
O421 Zn419 1.932 . S
O421 C431 1.307 1_565 S
O422 Zn415 1.919 . S
O422 C433 1.253 . S
O423 Zn417 1.941 . S
O423 C433 1.283 . S
O424 Zn417 1.965 . S
O424 C432 1.303 1_545 S
O425 Zn418 1.938 . S
O425 C432 1.247 . S
O426 Zn418 1.906 . S
O426 C434 1.304 . S
O427 Zn415 1.924 . S
O427 C435 1.338 . S
O428 Zn419 1.977 . S
O428 C434 1.272 . S
O429 Zn419 1.910 . S
O429 C435 1.212 1_565 S
C430 O414 1.225 1_565 S
C430 O436 1.298 . S
C431 O420 1.226 . S
C431 O421 1.307 1_545 S
C432 O424 1.303 1_565 S
C432 O425 1.247 . S
C433 O422 1.253 . S
C433 O423 1.283 . S
C434 O426 1.304 . S
C434 O428 1.272 . S
C435 O427 1.338 . S
C435 O429 1.212 1_545 S
O436 Zn418 1.953 . S
O436 C430 1.298 . S
O437 Zn438 1.953 . S
O437 C453 1.225 . S
Zn438 O437 1.953 . S
Zn438 O439 1.949 . S
Zn438 O445 1.919 . S
Zn438 O450 1.924 . S
O439 Zn438 1.949 . S
O439 Zn440 1.923 . S
O439 Zn441 1.950 . S
O439 Zn442 1.945 . S
Zn440 O439 1.923 . S
Zn440 O443 1.933 . S
Zn440 O446 1.941 . S
Zn440 O447 1.965 . S
Zn441 O439 1.950 . S
Zn441 O448 1.938 . S
Zn441 O449 1.906 . S
Zn441 O459 1.953 . S
Zn442 O439 1.945 . S
Zn442 O444 1.932 . S
Zn442 O451 1.977 . S
Zn442 O452 1.910 . S
O443 Zn440 1.933 . S
O443 C454 1.226 . S
O444 Zn442 1.932 . S
O444 C454 1.307 . S
O445 Zn438 1.919 . S
O445 C456 1.253 . S
O446 Zn440 1.941 . S
O446 C456 1.283 . S
O447 Zn440 1.965 . S
O447 C455 1.303 . S
O448 Zn441 1.938 . S
O448 C455 1.247 . S
O449 Zn441 1.906 . S
O449 C457 1.304 . S
O450 Zn438 1.924 . S
O450 C458 1.311 . S
O451 Zn442 1.977 . S
O451 C457 1.272 . S
O452 Zn442 1.910 . S
O452 C458 1.231 . S
C453 O437 1.225 . S
C453 O459 1.298 . S
C454 O443 1.226 . S
C454 O444 1.307 . S
C455 O447 1.303 . S
C455 O448 1.247 . S
C456 O445 1.253 . S
C456 O446 1.283 . S
C457 O449 1.304 . S
C457 O451 1.272 . S
C458 O450 1.311 . S
C458 O452 1.231 . S
O459 Zn441 1.953 . S
O459 C453 1.298 . S
O460 Zn461 1.953 . S
O460 C476 1.225 . S
Zn461 O460 1.953 . S
Zn461 O462 1.949 . S
Zn461 O468 1.919 . S
Zn461 O473 1.924 . S
O462 Zn461 1.949 . S
O462 Zn463 1.923 . S
O462 Zn464 1.950 . S
O462 Zn465 1.945 . S
Zn463 O462 1.923 . S
Zn463 O466 1.933 . S
Zn463 O469 1.941 . S
Zn463 O470 1.965 . S
Zn464 O462 1.950 . S
Zn464 O471 1.938 . S
Zn464 O472 1.906 . S
Zn464 O482 1.953 . S
Zn465 O462 1.945 . S
Zn465 O467 1.932 1_554 S
Zn465 O474 1.977 . S
Zn465 O475 1.910 . S
O466 Zn463 1.933 . S
O466 C477 1.226 1_554 S
O467 Zn465 1.932 1_556 S
O467 C477 1.307 . S
O468 Zn461 1.919 . S
O468 C479 1.253 . S
O469 Zn463 1.941 . S
O469 C479 1.283 . S
O470 Zn463 1.965 . S
O470 C478 1.303 . S
O471 Zn464 1.938 . S
O471 C478 1.247 . S
O472 Zn464 1.906 . S
O472 C480 1.304 . S
O473 Zn461 1.924 . S
O473 C481 1.311 . S
O474 Zn465 1.977 . S
O474 C480 1.272 . S
O475 Zn465 1.910 . S
O475 C481 1.231 . S
C476 O460 1.225 . S
C476 O482 1.298 . S
C477 O466 1.226 1_556 S
C477 O467 1.307 . S
C478 O470 1.303 . S
C478 O471 1.247 . S
C479 O468 1.253 . S
C479 O469 1.283 . S
C480 O472 1.304 . S
C480 O474 1.272 . S
C481 O473 1.311 . S
C481 O475 1.231 . S
O482 Zn464 1.953 . S
O482 C476 1.298 . S
O483 Zn484 1.953 . S
O483 C499 1.225 1_565 S
Zn484 O483 1.953 . S
Zn484 O485 1.932 1_565 S
Zn484 O491 1.919 . S
Zn484 O496 1.924 . S
O485 Zn484 1.932 1_545 S
O485 Zn486 1.910 1_545 S
O485 Zn487 1.970 . S
O485 Zn488 1.955 . S
Zn486 O485 1.910 1_565 S
Zn486 O489 1.933 . S
Zn486 O492 1.941 . S
Zn486 O493 1.965 . S
Zn487 O485 1.970 . S
Zn487 O494 1.938 . S
Zn487 O495 1.906 . S
Zn487 O505 1.953 . S
Zn488 O485 1.955 . S
Zn488 O490 1.932 1_554 S
Zn488 O497 1.977 . S
Zn488 O498 1.910 . S
O489 Zn486 1.933 . S
O489 C500 1.226 1_554 S
O490 Zn488 1.932 1_556 S
O490 C500 1.307 1_545 S
O491 Zn484 1.919 . S
O491 C502 1.253 . S
O492 Zn486 1.941 . S
O492 C502 1.283 . S
O493 Zn486 1.965 . S
O493 C501 1.303 1_565 S
O494 Zn487 1.938 . S
O494 C501 1.247 . S
O495 Zn487 1.906 . S
O495 C503 1.304 . S
O496 Zn484 1.924 . S
O496 C504 1.338 . S
O497 Zn488 1.977 . S
O497 C503 1.272 . S
O498 Zn488 1.910 . S
O498 C504 1.212 1_545 S
C499 O483 1.225 1_545 S
C499 O505 1.298 . S
C500 O489 1.226 1_556 S
C500 O490 1.307 1_565 S
C501 O493 1.303 1_545 S
C501 O494 1.247 . S
C502 O491 1.253 . S
C502 O492 1.283 . S
C503 O495 1.304 . S
C503 O497 1.272 . S
C504 O496 1.338 . S
C504 O498 1.212 1_565 S
O505 Zn487 1.953 . S
O505 C499 1.298 . S
O506 Zn507 1.953 . S
O506 C522 1.225 1_565 S
Zn507 O506 1.953 . S
Zn507 O508 1.932 1_565 S
Zn507 O514 1.919 . S
Zn507 O519 1.924 . S
O508 Zn507 1.932 1_545 S
O508 Zn509 1.910 1_545 S
O508 Zn510 1.970 . S
O508 Zn511 1.955 . S
Zn509 O508 1.910 1_565 S
Zn509 O512 1.933 . S
Zn509 O515 1.941 . S
Zn509 O516 1.965 . S
Zn510 O508 1.970 . S
Zn510 O517 1.938 . S
Zn510 O518 1.906 . S
Zn510 O528 1.953 . S
Zn511 O508 1.955 . S
Zn511 O513 1.932 . S
Zn511 O520 1.977 . S
Zn511 O521 1.910 . S
O512 Zn509 1.933 . S
O512 C523 1.226 . S
O513 Zn511 1.932 . S
O513 C523 1.307 1_545 S
O514 Zn507 1.919 . S
O514 C525 1.253 . S
O515 Zn509 1.941 . S
O515 C525 1.283 . S
O516 Zn509 1.965 . S
O516 C524 1.303 1_565 S
O517 Zn510 1.938 . S
O517 C524 1.247 . S
O518 Zn510 1.906 . S
O518 C526 1.304 . S
O519 Zn507 1.924 . S
O519 C527 1.338 . S
O520 Zn511 1.977 . S
O520 C526 1.272 . S
O521 Zn511 1.910 . S
O521 C527 1.212 1_545 S
C522 O506 1.225 1_545 S
C522 O528 1.298 . S
C523 O512 1.226 . S
C523 O513 1.307 1_565 S
C524 O516 1.303 1_545 S
C524 O517 1.247 . S
C525 O514 1.253 . S
C525 O515 1.283 . S
C526 O518 1.304 . S
C526 O520 1.272 . S
C527 O519 1.338 . S
C527 O521 1.212 1_565 S
O528 Zn510 1.953 . S
O528 C522 1.298 . S
O529 Zn530 1.953 . S
O529 C545 1.225 . S
Zn530 O529 1.953 . S
Zn530 O531 1.949 . S
Zn530 O537 1.919 . S
Zn530 O542 1.924 . S
O531 Zn530 1.949 . S
O531 Zn532 1.923 . S
O531 Zn533 1.950 . S
O531 Zn534 1.945 . S
Zn532 O531 1.923 . S
Zn532 O535 1.933 . S
Zn532 O538 1.941 . S
Zn532 O539 1.965 . S
Zn533 O531 1.950 . S
Zn533 O540 1.938 . S
Zn533 O541 1.906 . S
Zn533 O551 1.953 . S
Zn534 O531 1.945 . S
Zn534 O536 1.932 . S
Zn534 O543 1.977 . S
Zn534 O544 1.910 . S
O535 Zn532 1.933 . S
O535 C546 1.226 . S
O536 Zn534 1.932 . S
O536 C546 1.307 . S
O537 Zn530 1.919 . S
O537 C548 1.253 . S
O538 Zn532 1.941 . S
O538 C548 1.283 . S
O539 Zn532 1.965 . S
O539 C547 1.303 . S
O540 Zn533 1.938 . S
O540 C547 1.247 . S
O541 Zn533 1.906 . S
O541 C549 1.304 . S
O542 Zn530 1.924 . S
O542 C550 1.311 . S
O543 Zn534 1.977 . S
O543 C549 1.272 . S
O544 Zn534 1.910 . S
O544 C550 1.231 . S
C545 O529 1.225 . S
C545 O551 1.298 . S
C546 O535 1.226 . S
C546 O536 1.307 . S
C547 O539 1.303 . S
C547 O540 1.247 . S
C548 O537 1.253 . S
C548 O538 1.283 . S
C549 O541 1.304 . S
C549 O543 1.272 . S
C550 O542 1.311 . S
C550 O544 1.231 . S
O551 Zn533 1.953 . S
O551 C545 1.298 . S
O552 Zn553 1.953 1_556 S
O552 C568 1.225 . S
Zn553 O552 1.953 1_554 S
Zn553 O554 1.949 . S
Zn553 O560 1.919 . S
Zn553 O565 1.924 . S
O554 Zn553 1.949 . S
O554 Zn555 1.923 . S
O554 Zn556 1.950 . S
O554 Zn557 1.945 . S
Zn555 O554 1.923 . S
Zn555 O558 1.933 . S
Zn555 O561 1.941 . S
Zn555 O562 1.965 . S
Zn556 O554 1.950 . S
Zn556 O563 1.938 . S
Zn556 O564 1.906 . S
Zn556 O574 1.953 1_554 S
Zn557 O554 1.945 . S
Zn557 O559 1.932 . S
Zn557 O566 1.977 . S
Zn557 O567 1.910 . S
O558 Zn555 1.933 . S
O558 C569 1.226 . S
O559 Zn557 1.932 . S
O559 C569 1.307 . S
O560 Zn553 1.919 . S
O560 C571 1.253 . S
O561 Zn555 1.941 . S
O561 C571 1.283 . S
O562 Zn555 1.965 . S
O562 C570 1.303 . S
O563 Zn556 1.938 . S
O563 C570 1.247 . S
O564 Zn556 1.906 . S
O564 C572 1.304 . S
O565 Zn553 1.924 . S
O565 C573 1.311 . S
O566 Zn557 1.977 . S
O566 C572 1.272 . S
O567 Zn557 1.910 . S
O567 C573 1.231 . S
C568 O552 1.225 . S
C568 O574 1.298 . S
C569 O558 1.226 . S
C569 O559 1.307 . S
C570 O562 1.303 . S
C570 O563 1.247 . S
C571 O560 1.253 . S
C571 O561 1.283 . S
C572 O564 1.304 . S
C572 O566 1.272 . S
C573 O565 1.311 . S
C573 O567 1.231 . S
O574 Zn556 1.953 1_556 S
O574 C568 1.298 . S
O575 Zn576 1.953 1_556 S
O575 C591 1.225 . S
Zn576 O575 1.953 1_554 S
Zn576 O577 1.949 . S
Zn576 O583 1.919 . S
Zn576 O588 1.924 . S
O577 Zn576 1.949 . S
O577 Zn578 1.923 . S
O577 Zn579 1.950 . S
O577 Zn580 1.945 . S
Zn578 O577 1.923 . S
Zn578 O581 1.933 . S
Zn578 O584 1.941 . S
Zn578 O585 1.965 . S
Zn579 O577 1.950 . S
Zn579 O586 1.938 . S
Zn579 O587 1.906 . S
Zn579 O597 1.953 1_554 S
Zn580 O577 1.945 . S
Zn580 O582 1.932 . S
Zn580 O589 1.977 . S
Zn580 O590 1.910 . S
O581 Zn578 1.933 . S
O581 C592 1.226 . S
O582 Zn580 1.932 . S
O582 C592 1.307 . S
O583 Zn576 1.919 . S
O583 C594 1.253 . S
O584 Zn578 1.941 . S
O584 C594 1.283 . S
O585 Zn578 1.965 . S
O585 C593 1.303 . S
O586 Zn579 1.938 . S
O586 C593 1.247 . S
O587 Zn579 1.906 . S
O587 C595 1.304 . S
O588 Zn576 1.924 . S
O588 C596 1.311 . S
O589 Zn580 1.977 . S
O589 C595 1.272 . S
O590 Zn580 1.910 . S
O590 C596 1.231 . S
C591 O575 1.225 . S
C591 O597 1.298 . S
C592 O581 1.226 . S
C592 O582 1.307 . S
C593 O585 1.303 . S
C593 O586 1.247 . S
C594 O583 1.253 . S
C594 O584 1.283 . S
C595 O587 1.304 . S
C595 O589 1.272 . S
C596 O588 1.311 . S
C596 O590 1.231 . S
O597 Zn579 1.953 1_556 S
O597 C591 1.298 . S
O598 Zn599 1.953 . S
O598 C614 1.225 . S
Zn599 O598 1.953 . S
Zn599 O600 1.949 . S
Zn599 O606 1.919 . S
Zn599 O611 1.924 . S
O600 Zn599 1.949 . S
O600 Zn601 1.923 1_554 S
O600 Zn602 1.950 . S
O600 Zn603 1.945 1_554 S
Zn601 O600 1.923 1_556 S
Zn601 O604 1.933 . S
Zn601 O607 1.941 . S
Zn601 O608 1.965 1_556 S
Zn602 O600 1.950 . S
Zn602 O609 1.938 . S
Zn602 O610 1.906 . S
Zn602 O620 1.953 . S
Zn603 O600 1.945 1_556 S
Zn603 O605 1.932 . S
Zn603 O612 1.977 . S
Zn603 O613 1.910 . S
O604 Zn601 1.933 . S
O604 C615 1.226 . S
O605 Zn603 1.932 . S
O605 C615 1.307 . S
O606 Zn599 1.919 . S
O606 C617 1.253 . S
O607 Zn601 1.941 . S
O607 C617 1.283 1_556 S
O608 Zn601 1.965 1_554 S
O608 C616 1.303 . S
O609 Zn602 1.938 . S
O609 C616 1.247 . S
O610 Zn602 1.906 . S
O610 C618 1.304 1_554 S
O611 Zn599 1.924 . S
O611 C619 1.311 . S
O612 Zn603 1.977 . S
O612 C618 1.272 . S
O613 Zn603 1.910 . S
O613 C619 1.231 1_556 S
C614 O598 1.225 . S
C614 O620 1.298 . S
C615 O604 1.226 . S
C615 O605 1.307 . S
C616 O608 1.303 . S
C616 O609 1.247 . S
C617 O606 1.253 . S
C617 O607 1.283 1_554 S
C618 O610 1.304 1_556 S
C618 O612 1.272 . S
C619 O611 1.311 . S
C619 O613 1.231 1_554 S
O620 Zn602 1.953 . S
O620 C614 1.298 . S
O621 Zn622 1.953 . S
O621 C637 1.225 . S
Zn622 O621 1.953 . S
Zn622 O623 1.949 . S
Zn622 O629 1.919 . S
Zn622 O634 1.924 . S
O623 Zn622 1.949 . S
O623 Zn624 1.923 1_554 S
O623 Zn625 1.950 . S
O623 Zn626 1.945 1_554 S
Zn624 O623 1.923 1_556 S
Zn624 O627 1.933 . S
Zn624 O630 1.941 . S
Zn624 O631 1.965 1_556 S
Zn625 O623 1.950 . S
Zn625 O632 1.938 . S
Zn625 O633 1.906 . S
Zn625 O643 1.953 . S
Zn626 O623 1.945 1_556 S
Zn626 O628 1.932 . S
Zn626 O635 1.977 . S
Zn626 O636 1.910 . S
O627 Zn624 1.933 . S
O627 C638 1.226 . S
O628 Zn626 1.932 . S
O628 C638 1.307 . S
O629 Zn622 1.919 . S
O629 C640 1.253 . S
O630 Zn624 1.941 . S
O630 C640 1.283 1_556 S
O631 Zn624 1.965 1_554 S
O631 C639 1.303 . S
O632 Zn625 1.938 . S
O632 C639 1.247 . S
O633 Zn625 1.906 . S
O633 C641 1.304 1_554 S
O634 Zn622 1.924 . S
O634 C642 1.311 . S
O635 Zn626 1.977 . S
O635 C641 1.272 . S
O636 Zn626 1.910 . S
O636 C642 1.231 1_556 S
C637 O621 1.225 . S
C637 O643 1.298 . S
C638 O627 1.226 . S
C638 O628 1.307 . S
C639 O631 1.303 . S
C639 O632 1.247 . S
C640 O629 1.253 . S
C640 O630 1.283 1_554 S
C641 O633 1.304 1_556 S
C641 O635 1.272 . S
C642 O634 1.311 . S
C642 O636 1.231 1_554 S
O643 Zn625 1.953 . S
O643 C637 1.298 . S
O644 Zn645 1.953 1_554 S
O644 C660 1.225 . S
Zn645 O644 1.953 1_556 S
Zn645 O646 1.949 . S
Zn645 O652 1.919 . S
Zn645 O657 1.924 . S
O646 Zn645 1.949 . S
O646 Zn647 1.923 . S
O646 Zn648 1.950 . S
O646 Zn649 1.945 . S
Zn647 O646 1.923 . S
Zn647 O650 1.933 . S
Zn647 O653 1.941 . S
Zn647 O654 1.965 . S
Zn648 O646 1.950 . S
Zn648 O655 1.938 . S
Zn648 O656 1.906 . S
Zn648 O666 1.953 1_556 S
Zn649 O646 1.945 . S
Zn649 O651 1.932 . S
Zn649 O658 1.977 . S
Zn649 O659 1.910 . S
O650 Zn647 1.933 . S
O650 C661 1.226 . S
O651 Zn649 1.932 . S
O651 C661 1.307 . S
O652 Zn645 1.919 . S
O652 C663 1.253 . S
O653 Zn647 1.941 . S
O653 C663 1.283 . S
O654 Zn647 1.965 . S
O654 C662 1.303 . S
O655 Zn648 1.938 . S
O655 C662 1.247 . S
O656 Zn648 1.906 . S
O656 C664 1.304 . S
O657 Zn645 1.924 . S
O657 C665 1.311 . S
O658 Zn649 1.977 . S
O658 C664 1.272 . S
O659 Zn649 1.910 . S
O659 C665 1.231 . S
C660 O644 1.225 . S
C660 O666 1.298 . S
C661 O650 1.226 . S
C661 O651 1.307 . S
C662 O654 1.303 . S
C662 O655 1.247 . S
C663 O652 1.253 . S
C663 O653 1.283 . S
C664 O656 1.304 . S
C664 O658 1.272 . S
C665 O657 1.311 . S
C665 O659 1.231 . S
O666 Zn648 1.953 1_554 S
O666 C660 1.298 . S
O667 Zn668 1.953 1_554 S
O667 C683 1.225 . S
Zn668 O667 1.953 1_556 S
Zn668 O669 1.949 . S
Zn668 O675 1.919 . S
Zn668 O680 1.924 . S
O669 Zn668 1.949 . S
O669 Zn670 1.923 . S
O669 Zn671 1.950 . S
O669 Zn672 1.945 . S
Zn670 O669 1.923 . S
Zn670 O673 1.933 . S
Zn670 O676 1.941 . S
Zn670 O677 1.965 . S
Zn671 O669 1.950 . S
Zn671 O678 1.938 . S
Zn671 O679 1.906 . S
Zn671 O689 1.953 1_556 S
Zn672 O669 1.945 . S
Zn672 O674 1.932 . S
Zn672 O681 1.977 . S
Zn672 O682 1.910 . S
O673 Zn670 1.933 . S
O673 C684 1.226 . S
O674 Zn672 1.932 . S
O674 C684 1.307 . S
O675 Zn668 1.919 . S
O675 C686 1.253 . S
O676 Zn670 1.941 . S
O676 C686 1.283 . S
O677 Zn670 1.965 . S
O677 C685 1.303 . S
O678 Zn671 1.938 . S
O678 C685 1.247 . S
O679 Zn671 1.906 . S
O679 C687 1.304 . S
O680 Zn668 1.924 . S
O680 C688 1.311 . S
O681 Zn672 1.977 . S
O681 C687 1.272 . S
O682 Zn672 1.910 . S
O682 C688 1.231 . S
C683 O667 1.225 . S
C683 O689 1.298 . S
C684 O673 1.226 . S
C684 O674 1.307 . S
C685 O677 1.303 . S
C685 O678 1.247 . S
C686 O675 1.253 . S
C686 O676 1.283 . S
C687 O679 1.304 . S
C687 O681 1.272 . S
C688 O680 1.311 . S
C688 O682 1.231 . S
O689 Zn671 1.953 1_554 S
O689 C683 1.298 . S
O690 Zn691 1.953 . S
O690 C706 1.225 . S
Zn691 O690 1.953 . S
Zn691 O692 1.949 . S
Zn691 O698 1.919 . S
Zn691 O703 1.924 . S
O692 Zn691 1.949 . S
O692 Zn693 1.923 1_556 S
O692 Zn694 1.950 . S
O692 Zn695 1.945 1_556 S
Zn693 O692 1.923 1_554 S
Zn693 O696 1.933 . S
Zn693 O699 1.941 . S
Zn693 O700 1.965 1_554 S
Zn694 O692 1.950 . S
Zn694 O701 1.938 . S
Zn694 O702 1.906 . S
Zn694 O712 1.953 . S
Zn695 O692 1.945 1_554 S
Zn695 O697 1.932 . S
Zn695 O704 1.977 . S
Zn695 O705 1.910 . S
O696 Zn693 1.933 . S
O696 C707 1.226 . S
O697 Zn695 1.932 . S
O697 C707 1.307 . S
O698 Zn691 1.919 . S
O698 C709 1.253 . S
O699 Zn693 1.941 . S
O699 C709 1.283 1_554 S
O700 Zn693 1.965 1_556 S
O700 C708 1.303 . S
O701 Zn694 1.938 . S
O701 C708 1.247 . S
O702 Zn694 1.906 . S
O702 C710 1.304 1_556 S
O703 Zn691 1.924 . S
O703 C711 1.311 . S
O704 Zn695 1.977 . S
O704 C710 1.272 . S
O705 Zn695 1.910 . S
O705 C711 1.231 1_554 S
C706 O690 1.225 . S
C706 O712 1.298 . S
C707 O696 1.226 . S
C707 O697 1.307 . S
C708 O700 1.303 . S
C708 O701 1.247 . S
C709 O698 1.253 . S
C709 O699 1.283 1_556 S
C710 O702 1.304 1_554 S
C710 O704 1.272 . S
C711 O703 1.311 . S
C711 O705 1.231 1_556 S
O712 Zn694 1.953 . S
O712 C706 1.298 . S
O713 Zn714 1.953 . S
O713 C729 1.225 . S
Zn714 O713 1.953 . S
Zn714 O715 1.949 . S
Zn714 O721 1.919 . S
Zn714 O726 1.924 . S
O715 Zn714 1.949 . S
O715 Zn716 1.923 1_556 S
O715 Zn717 1.950 . S
O715 Zn718 1.945 1_556 S
Zn716 O715 1.923 1_554 S
Zn716 O719 1.933 . S
Zn716 O722 1.941 . S
Zn716 O723 1.965 1_554 S
Zn717 O715 1.950 . S
Zn717 O724 1.938 . S
Zn717 O725 1.906 . S
Zn717 O735 1.953 . S
Zn718 O715 1.945 1_554 S
Zn718 O720 1.932 . S
Zn718 O727 1.977 . S
Zn718 O728 1.910 . S
O719 Zn716 1.933 . S
O719 C730 1.226 . S
O720 Zn718 1.932 . S
O720 C730 1.307 . S
O721 Zn714 1.919 . S
O721 C732 1.253 . S
O722 Zn716 1.941 . S
O722 C732 1.283 1_554 S
O723 Zn716 1.965 1_556 S
O723 C731 1.303 . S
O724 Zn717 1.938 . S
O724 C731 1.247 . S
O725 Zn717 1.906 . S
O725 C733 1.304 1_556 S
O726 Zn714 1.924 . S
O726 C734 1.311 . S
O727 Zn718 1.977 . S
O727 C733 1.272 . S
O728 Zn718 1.910 . S
O728 C734 1.231 1_554 S
C729 O713 1.225 . S
C729 O735 1.298 . S
C730 O719 1.226 . S
C730 O720 1.307 . S
C731 O723 1.303 . S
C731 O724 1.247 . S
C732 O721 1.253 . S
C732 O722 1.283 1_556 S
C733 O725 1.304 1_554 S
C733 O727 1.272 . S
C734 O726 1.311 . S
C734 O728 1.231 1_556 S
O735 Zn717 1.953 . S
O735 C729 1.298 . S
C736 C737 1.387 . S
C736 H740 0.950 . S
C736 C745 1.390 1_556 S
C737 C736 1.387 . S
C737 C739 1.387 . S
H738 C745 0.950 . S
C739 C737 1.387 . S
C739 C741 1.390 1_556 S
C739 H743 0.950 . S
H740 C736 0.950 . S
C741 C739 1.390 1_554 S
C741 C742 1.387 . S
C741 H744 0.950 . S
C742 C741 1.387 . S
C742 C745 1.387 . S
H743 C739 0.950 . S
H744 C741 0.950 . S
C745 C736 1.390 1_554 S
C745 H738 0.950 . S
C745 C742 1.387 . S
C746 C747 1.408 . S
C746 H750 0.950 . S
C746 C755 1.390 1_456 S
C747 C746 1.408 . S
C747 C749 1.367 1_545 S
H748 C755 0.950 . S
C749 C747 1.367 1_565 S
C749 C751 1.390 1_456 S
C749 H753 0.950 . S
H750 C746 0.950 . S
C751 C749 1.390 1_654 S
C751 C752 1.399 . S
C751 H754 0.950 . S
C752 C751 1.399 . S
C752 C755 1.376 1_565 S
H753 C749 0.950 . S
H754 C751 0.950 . S
C755 C746 1.390 1_654 S
C755 H748 0.950 . S
C755 C752 1.376 1_545 S
C756 C757 1.367 1_565 S
C756 H760 0.950 . S
C756 C765 1.390 . S
C757 C756 1.367 1_545 S
C757 C759 1.408 . S
H758 C765 0.950 . S
C759 C757 1.408 . S
C759 C761 1.390 . S
C759 H763 0.950 . S
H760 C756 0.950 . S
C761 C759 1.390 . S
C761 C762 1.375 1_545 S
C761 H764 0.950 . S
C762 C761 1.375 1_565 S
C762 C765 1.400 . S
H763 C759 0.950 . S
H764 C761 0.950 . S
C765 C756 1.390 . S
C765 H758 0.950 . S
C765 C762 1.400 . S
C766 C767 1.387 . S
C766 H770 0.950 . S
C766 C775 1.390 1_455 S
C767 C766 1.387 . S
C767 C769 1.387 . S
H768 C775 0.950 . S
C769 C767 1.387 . S
C769 C771 1.390 1_455 S
C769 H773 0.950 . S
H770 C766 0.950 . S
C771 C769 1.390 1_655 S
C771 C772 1.387 . S
C771 H774 0.950 . S
C772 C771 1.387 . S
C772 C775 1.387 . S
H773 C769 0.950 . S
H774 C771 0.950 . S
C775 C766 1.390 1_655 S
C775 H768 0.950 . S
C775 C772 1.387 . S
C776 C777 1.387 . S
C776 H780 0.950 . S
C776 C785 1.390 1_556 S
C777 C776 1.387 . S
C777 C779 1.387 . S
H778 C785 0.950 . S
C779 C777 1.387 . S
C779 C781 1.390 1_556 S
C779 H783 0.950 . S
H780 C776 0.950 . S
C781 C779 1.390 1_554 S
C781 C782 1.387 . S
C781 H784 0.950 . S
C782 C781 1.387 . S
C782 C785 1.387 . S
H783 C779 0.950 . S
H784 C781 0.950 . S
C785 C776 1.390 1_554 S
C785 H778 0.950 . S
C785 C782 1.387 . S
C786 C787 1.367 1_545 S
C786 H790 0.950 . S
C786 C795 1.390 . S
C787 C786 1.367 1_565 S
C787 C789 1.408 . S
H788 C795 0.950 . S
C789 C787 1.408 . S
C789 C791 1.390 . S
C789 H793 0.950 . S
H790 C786 0.950 . S
C791 C789 1.390 . S
C791 C792 1.375 1_565 S
C791 H794 0.950 . S
C792 C791 1.375 1_545 S
C792 C795 1.399 . S
H793 C789 0.950 . S
H794 C791 0.950 . S
C795 C786 1.390 . S
C795 H788 0.950 . S
C795 C792 1.399 . S
C796 C797 1.387 . S
C796 H800 0.950 . S
C796 C805 1.390 1_655 S
C797 C796 1.387 . S
C797 C799 1.387 . S
H798 C805 0.950 . S
C799 C797 1.387 . S
C799 C801 1.390 1_655 S
C799 H803 0.950 . S
H800 C796 0.950 . S
C801 C799 1.390 1_455 S
C801 C802 1.387 . S
C801 H804 0.950 . S
C802 C801 1.387 . S
C802 C805 1.387 . S
H803 C799 0.950 . S
H804 C801 0.950 . S
C805 C796 1.390 1_455 S
C805 H798 0.950 . S
C805 C802 1.387 . S
C806 C807 1.387 . S
C806 H810 0.950 . S
C806 C815 1.390 . S
C807 C806 1.387 . S
C807 C809 1.387 . S
H808 C815 0.950 . S
C809 C807 1.387 . S
C809 C811 1.390 . S
C809 H813 0.950 . S
H810 C806 0.950 . S
C811 C809 1.390 . S
C811 C812 1.387 . S
C811 H814 0.950 . S
C812 C811 1.387 . S
C812 C815 1.387 . S
H813 C809 0.950 . S
H814 C811 0.950 . S
C815 C806 1.390 . S
C815 H808 0.950 . S
C815 C812 1.387 . S
C816 C817 1.387 . S
C816 H820 0.950 . S
C816 C825 1.390 1_655 S
C817 C816 1.387 . S
C817 C819 1.387 . S
H818 C825 0.950 . S
C819 C817 1.387 . S
C819 C821 1.390 1_655 S
C819 H823 0.950 . S
H820 C816 0.950 . S
C821 C819 1.390 1_455 S
C821 C822 1.387 . S
C821 H824 0.950 . S
C822 C821 1.387 . S
C822 C825 1.387 . S
H823 C819 0.950 . S
H824 C821 0.950 . S
C825 C816 1.390 1_455 S
C825 H818 0.950 . S
C825 C822 1.387 . S
C826 C827 1.387 . S
C826 H830 0.950 . S
C826 C835 1.390 . S
C827 C826 1.387 . S
C827 C829 1.387 . S
H828 C835 0.950 . S
C829 C827 1.387 . S
C829 C831 1.390 . S
C829 H833 0.950 . S
H830 C826 0.950 . S
C831 C829 1.390 . S
C831 C832 1.387 . S
C831 H834 0.950 . S
C832 C831 1.387 . S
C832 C835 1.387 . S
H833 C829 0.950 . S
H834 C831 0.950 . S
C835 C826 1.390 . S
C835 H828 0.950 . S
C835 C832 1.387 . S
C836 C837 1.387 . S
C836 H840 0.950 . S
C836 C845 1.390 . S
C837 C836 1.387 . S
C837 C839 1.387 . S
H838 C845 0.950 . S
C839 C837 1.387 . S
C839 C841 1.390 . S
C839 H843 0.950 . S
H840 C836 0.950 . S
C841 C839 1.390 . S
C841 C842 1.387 . S
C841 H844 0.950 . S
C842 C841 1.387 . S
C842 C845 1.387 . S
H843 C839 0.950 . S
H844 C841 0.950 . S
C845 C836 1.390 . S
C845 H838 0.950 . S
C845 C842 1.387 . S
C846 C847 1.387 . S
C846 H850 0.950 . S
C846 C855 1.390 . S
C847 C846 1.387 . S
C847 C849 1.387 . S
H848 C855 0.950 . S
C849 C847 1.387 . S
C849 C851 1.390 . S
C849 H853 0.950 . S
H850 C846 0.950 . S
C851 C849 1.390 . S
C851 C852 1.387 . S
C851 H854 0.950 . S
C852 C851 1.387 . S
C852 C855 1.387 . S
H853 C849 0.950 . S
H854 C851 0.950 . S
C855 C846 1.390 . S
C855 H848 0.950 . S
C855 C852 1.387 . S
C856 C857 1.408 . S
C856 H860 0.950 . S
C856 C865 1.390 . S
C857 C856 1.408 . S
C857 C859 1.366 1_565 S
H858 C865 0.950 . S
C859 C857 1.366 1_545 S
C859 C861 1.390 . S
C859 H863 0.950 . S
H860 C856 0.950 . S
C861 C859 1.390 . S
C861 C862 1.400 . S
C861 H864 0.950 . S
C862 C861 1.400 . S
C862 C865 1.375 1_545 S
H863 C859 0.950 . S
H864 C861 0.950 . S
C865 C856 1.390 . S
C865 H858 0.950 . S
C865 C862 1.375 1_565 S
C866 C867 1.387 . S
C866 H870 0.950 . S
C866 C875 1.390 . S
C867 C866 1.387 . S
C867 C869 1.387 . S
H868 C875 0.950 . S
C869 C867 1.387 . S
C869 C871 1.390 . S
C869 H873 0.950 . S
H870 C866 0.950 . S
C871 C869 1.390 . S
C871 C872 1.387 . S
C871 H874 0.950 . S
C872 C871 1.387 . S
C872 C875 1.387 . S
H873 C869 0.950 . S
H874 C871 0.950 . S
C875 C866 1.390 . S
C875 H868 0.950 . S
C875 C872 1.387 . S
C876 C877 1.387 . S
C876 H880 0.950 . S
C876 C885 1.390 . S
C877 C876 1.387 . S
C877 C879 1.387 . S
H878 C885 0.950 . S
C879 C877 1.387 . S
C879 C881 1.390 . S
C879 H883 0.950 . S
H880 C876 0.950 . S
C881 C879 1.390 . S
C881 C882 1.387 . S
C881 H884 0.950 . S
C882 C881 1.387 . S
C882 C885 1.387 . S
H883 C879 0.950 . S
H884 C881 0.950 . S
C885 C876 1.390 . S
C885 H878 0.950 . S
C885 C882 1.387 . S
C886 C887 1.387 . S
C886 H890 0.950 . S
C886 C895 1.390 1_556 S
C887 C886 1.387 . S
C887 C889 1.387 . S
H888 C895 0.950 . S
C889 C887 1.387 . S
C889 C891 1.390 1_556 S
C889 H893 0.950 . S
H890 C886 0.950 . S
C891 C889 1.390 1_554 S
C891 C892 1.387 . S
C891 H894 0.950 . S
C892 C891 1.387 . S
C892 C895 1.387 . S
H893 C889 0.950 . S
H894 C891 0.950 . S
C895 C886 1.390 1_554 S
C895 H888 0.950 . S
C895 C892 1.387 . S
C896 C897 1.387 . S
C896 H900 0.950 . S
C896 C905 1.390 . S
C897 C896 1.387 . S
C897 C899 1.387 . S
H898 C905 0.950 . S
C899 C897 1.387 . S
C899 C901 1.390 . S
C899 H903 0.950 . S
H900 C896 0.950 . S
C901 C899 1.390 . S
C901 C902 1.387 . S
C901 H904 0.950 . S
C902 C901 1.387 . S
C902 C905 1.387 . S
H903 C899 0.950 . S
H904 C901 0.950 . S
C905 C896 1.390 . S
C905 H898 0.950 . S
C905 C902 1.387 . S
C906 C907 1.387 1_545 S
C906 H910 0.950 . S
C906 C915 1.390 . S
C907 C906 1.387 1_565 S
C907 C909 1.387 . S
H908 C915 0.950 . S
C909 C907 1.387 . S
C909 C911 1.390 . S
C909 H913 0.950 . S
H910 C906 0.950 . S
C911 C909 1.390 . S
C911 C912 1.387 . S
C911 H914 0.950 . S
C912 C911 1.387 . S
C912 C915 1.387 1_565 S
H913 C909 0.950 . S
H914 C911 0.950 . S
C915 C906 1.390 . S
C915 H908 0.950 . S
C915 C912 1.387 1_545 S
C916 C917 1.387 . S
C916 H920 0.950 . S
C916 C925 1.390 . S
C917 C916 1.387 . S
C917 C919 1.387 1_565 S
H918 C925 0.950 . S
C919 C917 1.387 1_545 S
C919 C921 1.390 . S
C919 H923 0.950 . S
H920 C916 0.950 . S
C921 C919 1.390 . S
C921 C922 1.387 1_545 S
C921 H924 0.950 . S
C922 C921 1.387 1_565 S
C922 C925 1.387 . S
H923 C919 0.950 . S
H924 C921 0.950 . S
C925 C916 1.390 . S
C925 H918 0.950 . S
C925 C922 1.387 . S
C926 C927 1.387 . S
C926 H930 0.950 . S
C926 C935 1.390 . S
C927 C926 1.387 . S
C927 C929 1.387 . S
H928 C935 0.950 . S
C929 C927 1.387 . S
C929 C931 1.390 . S
C929 H933 0.950 . S
H930 C926 0.950 . S
C931 C929 1.390 . S
C931 C932 1.387 . S
C931 H934 0.950 . S
C932 C931 1.387 . S
C932 C935 1.387 . S
H933 C929 0.950 . S
H934 C931 0.950 . S
C935 C926 1.390 . S
C935 H928 0.950 . S
C935 C932 1.387 . S
C936 C937 1.387 . S
C936 H940 0.950 . S
C936 C945 1.390 . S
C937 C936 1.387 . S
C937 C939 1.387 . S
H938 C945 0.950 . S
C939 C937 1.387 . S
C939 C941 1.390 . S
C939 H943 0.950 . S
H940 C936 0.950 . S
C941 C939 1.390 . S
C941 C942 1.387 . S
C941 H944 0.950 . S
C942 C941 1.387 . S
C942 C945 1.387 . S
H943 C939 0.950 . S
H944 C941 0.950 . S
C945 C936 1.390 . S
C945 H938 0.950 . S
C945 C942 1.387 . S
C946 C947 1.387 1_565 S
C946 H950 0.950 . S
C946 C955 1.390 . S
C947 C946 1.387 1_545 S
C947 C949 1.387 . S
H948 C955 0.950 . S
C949 C947 1.387 . S
C949 C951 1.390 . S
C949 H953 0.950 . S
H950 C946 0.950 . S
C951 C949 1.390 . S
C951 C952 1.387 . S
C951 H954 0.950 . S
C952 C951 1.387 . S
C952 C955 1.387 1_545 S
H953 C949 0.950 . S
H954 C951 0.950 . S
C955 C946 1.390 . S
C955 H948 0.950 . S
C955 C952 1.387 1_565 S
C956 C957 1.387 . S
C956 H960 0.950 . S
C956 C965 1.390 . S
C957 C956 1.387 . S
C957 C959 1.387 1_545 S
H958 C965 0.950 . S
C959 C957 1.387 1_565 S
C959 C961 1.390 . S
C959 H963 0.950 . S
H960 C956 0.950 . S
C961 C959 1.390 . S
C961 C962 1.387 1_565 S
C961 H964 0.950 . S
C962 C961 1.387 1_545 S
C962 C965 1.387 . S
H963 C959 0.950 . S
H964 C961 0.950 . S
C965 C956 1.390 . S
C965 H958 0.950 . S
C965 C962 1.387 . S
C966 C967 1.387 . S
C966 H970 0.950 . S
C966 C975 1.390 . S
C967 C966 1.387 . S
C967 C969 1.387 . S
H968 C975 0.950 . S
C969 C967 1.387 . S
C969 C971 1.390 . S
C969 H973 0.950 . S
H970 C966 0.950 . S
C971 C969 1.390 . S
C971 C972 1.387 . S
C971 H974 0.950 . S
C972 C971 1.387 . S
C972 C975 1.387 . S
H973 C969 0.950 . S
H974 C971 0.950 . S
C975 C966 1.390 . S
C975 H968 0.950 . S
C975 C972 1.387 . S
C976 C977 1.387 . S
C976 H980 0.950 . S
C976 C985 1.390 . S
C977 C976 1.387 . S
C977 C979 1.387 . S
H978 C985 0.950 . S
C979 C977 1.387 . S
C979 C981 1.390 . S
C979 H983 0.950 . S
H980 C976 0.950 . S
C981 C979 1.390 . S
C981 C982 1.387 . S
C981 H984 0.950 . S
C982 C981 1.387 . S
C982 C985 1.387 . S
H983 C979 0.950 . S
H984 C981 0.950 . S
C985 C976 1.390 . S
C985 H978 0.950 . S
C985 C982 1.387 . S
C986 C987 1.387 . S
C986 H990 0.950 . S
C986 C995 1.390 . S
C987 C986 1.387 . S
C987 C989 1.387 . S
H988 C995 0.950 . S
C989 C987 1.387 . S
C989 C991 1.390 . S
C989 H993 0.950 . S
H990 C986 0.950 . S
C991 C989 1.390 . S
C991 C992 1.387 . S
C991 H994 0.950 . S
C992 C991 1.387 . S
C992 C995 1.387 . S
H993 C989 0.950 . S
H994 C991 0.950 . S
C995 C986 1.390 . S
C995 H988 0.950 . S
C995 C992 1.387 . S
C996 C997 1.387 . S
C996 H1000 0.950 . S
C996 C1005 1.390 . S
C997 C996 1.387 . S
C997 C999 1.387 . S
H998 C1005 0.950 . S
C999 C997 1.387 . S
C999 C1001 1.390 . S
C999 H1003 0.950 . S
H1000 C996 0.950 . S
C1001 C999 1.390 . S
C1001 C1002 1.387 . S
C1001 H1004 0.950 . S
C1002 C1001 1.387 . S
C1002 C1005 1.387 . S
H1003 C999 0.950 . S
H1004 C1001 0.950 . S
C1005 C996 1.390 . S
C1005 H998 0.950 . S
C1005 C1002 1.387 . S
C1006 C1007 1.387 . S
C1006 H1010 0.950 . S
C1006 C1015 1.390 . S
C1007 C1006 1.387 . S
C1007 C1009 1.387 . S
H1008 C1015 0.950 . S
C1009 C1007 1.387 . S
C1009 C1011 1.390 . S
C1009 H1013 0.950 . S
H1010 C1006 0.950 . S
C1011 C1009 1.390 . S
C1011 C1012 1.387 . S
C1011 H1014 0.950 . S
C1012 C1011 1.387 . S
C1012 C1015 1.387 . S
H1013 C1009 0.950 . S
H1014 C1011 0.950 . S
C1015 C1006 1.390 . S
C1015 H1008 0.950 . S
C1015 C1012 1.387 . S
C1016 C1017 1.387 . S
C1016 H1020 0.950 . S
C1016 C1025 1.390 . S
C1017 C1016 1.387 . S
C1017 C1019 1.387 . S
H1018 C1025 0.950 . S
C1019 C1017 1.387 . S
C1019 C1021 1.390 . S
C1019 H1023 0.950 . S
H1020 C1016 0.950 . S
C1021 C1019 1.390 . S
C1021 C1022 1.387 . S
C1021 H1024 0.950 . S
C1022 C1021 1.387 . S
C1022 C1025 1.387 . S
H1023 C1019 0.950 . S
H1024 C1021 0.950 . S
C1025 C1016 1.390 . S
C1025 H1018 0.950 . S
C1025 C1022 1.387 . S
C1026 C1027 1.387 . S
C1026 H1030 0.950 . S
C1026 C1035 1.390 . S
C1027 C1026 1.387 . S
C1027 C1029 1.387 . S
H1028 C1035 0.950 . S
C1029 C1027 1.387 . S
C1029 C1031 1.390 . S
C1029 H1033 0.950 . S
H1030 C1026 0.950 . S
C1031 C1029 1.390 . S
C1031 C1032 1.387 . S
C1031 H1034 0.950 . S
C1032 C1031 1.387 . S
C1032 C1035 1.387 . S
H1033 C1029 0.950 . S
H1034 C1031 0.950 . S
C1035 C1026 1.390 . S
C1035 H1028 0.950 . S
C1035 C1032 1.387 . S
C1036 C1037 1.387 . S
C1036 H1040 0.950 . S
C1036 C1045 1.390 . S
C1037 C1036 1.387 . S
C1037 C1039 1.387 . S
H1038 C1045 0.950 . S
C1039 C1037 1.387 . S
C1039 C1041 1.390 . S
C1039 H1043 0.950 . S
H1040 C1036 0.950 . S
C1041 C1039 1.390 . S
C1041 C1042 1.387 . S
C1041 H1044 0.950 . S
C1042 C1041 1.387 . S
C1042 C1045 1.387 . S
H1043 C1039 0.950 . S
H1044 C1041 0.950 . S
C1045 C1036 1.390 . S
C1045 H1038 0.950 . S
C1045 C1042 1.387 . S
C1046 C1047 1.387 . S
C1046 H1050 0.950 . S
C1046 C1055 1.390 . S
C1047 C1046 1.387 . S
C1047 C1049 1.387 . S
H1048 C1055 0.950 . S
C1049 C1047 1.387 . S
C1049 C1051 1.390 . S
C1049 H1053 0.950 . S
H1050 C1046 0.950 . S
C1051 C1049 1.390 . S
C1051 C1052 1.387 . S
C1051 H1054 0.950 . S
C1052 C1051 1.387 . S
C1052 C1055 1.387 . S
H1053 C1049 0.950 . S
H1054 C1051 0.950 . S
C1055 C1046 1.390 . S
C1055 H1048 0.950 . S
C1055 C1052 1.387 . S
C1056 C1057 1.387 . S
C1056 H1060 0.950 . S
C1056 C1065 1.390 . S
C1057 C1056 1.387 . S
C1057 C1059 1.387 . S
H1058 C1065 0.950 . S
C1059 C1057 1.387 . S
C1059 C1061 1.390 . S
C1059 H1063 0.950 . S
H1060 C1056 0.950 . S
C1061 C1059 1.390 . S
C1061 C1062 1.387 . S
C1061 H1064 0.950 . S
C1062 C1061 1.387 . S
C1062 C1065 1.387 . S
H1063 C1059 0.950 . S
H1064 C1061 0.950 . S
C1065 C1056 1.390 . S
C1065 H1058 0.950 . S
C1065 C1062 1.387 . S
C1066 C1067 1.387 . S
C1066 H1070 0.950 . S
C1066 C1075 1.390 . S
C1067 C1066 1.387 . S
C1067 C1069 1.387 1_545 S
H1068 C1075 0.950 . S
C1069 C1067 1.387 1_565 S
C1069 C1071 1.390 . S
C1069 H1073 0.950 . S
H1070 C1066 0.950 . S
C1071 C1069 1.390 . S
C1071 C1072 1.387 . S
C1071 H1074 0.950 . S
C1072 C1071 1.387 . S
C1072 C1075 1.387 1_565 S
H1073 C1069 0.950 . S
H1074 C1071 0.950 . S
C1075 C1066 1.390 . S
C1075 H1068 0.950 . S
C1075 C1072 1.387 1_545 S
C1076 C1077 1.387 1_545 S
C1076 H1080 0.950 . S
C1076 C1085 1.390 . S
C1077 C1076 1.387 1_565 S
C1077 C1079 1.387 . S
H1078 C1085 0.950 . S
C1079 C1077 1.387 . S
C1079 C1081 1.390 . S
C1079 H1083 0.950 . S
H1080 C1076 0.950 . S
C1081 C1079 1.390 . S
C1081 C1082 1.387 1_565 S
C1081 H1084 0.950 . S
C1082 C1081 1.387 1_545 S
C1082 C1085 1.387 . S
H1083 C1079 0.950 . S
H1084 C1081 0.950 . S
C1085 C1076 1.390 . S
C1085 H1078 0.950 . S
C1085 C1082 1.387 . S
C1086 C1087 1.387 . S
C1086 H1090 0.950 . S
C1086 C1095 1.390 . S
C1087 C1086 1.387 . S
C1087 C1089 1.387 . S
H1088 C1095 0.950 . S
C1089 C1087 1.387 . S
C1089 C1091 1.390 . S
C1089 H1093 0.950 . S
H1090 C1086 0.950 . S
C1091 C1089 1.390 . S
C1091 C1092 1.387 . S
C1091 H1094 0.950 . S
C1092 C1091 1.387 . S
C1092 C1095 1.387 . S
H1093 C1089 0.950 . S
H1094 C1091 0.950 . S
C1095 C1086 1.390 . S
C1095 H1088 0.950 . S
C1095 C1092 1.387 . S
C1096 C1097 1.387 . S
C1096 H1100 0.950 . S
C1096 C1105 1.390 . S
C1097 C1096 1.387 . S
C1097 C1099 1.387 . S
H1098 C1105 0.950 . S
C1099 C1097 1.387 . S
C1099 C1101 1.390 . S
C1099 H1103 0.950 . S
H1100 C1096 0.950 . S
C1101 C1099 1.390 . S
C1101 C1102 1.387 . S
C1101 H1104 0.950 . S
C1102 C1101 1.387 . S
C1102 C1105 1.387 . S
H1103 C1099 0.950 . S
H1104 C1101 0.950 . S
C1105 C1096 1.390 . S
C1105 H1098 0.950 . S
C1105 C1102 1.387 . S
C1106 C1107 1.387 1_565 S
C1106 H1110 0.950 . S
C1106 C1115 1.390 . S
C1107 C1106 1.387 1_545 S
C1107 C1109 1.387 . S
H1108 C1115 0.950 . S
C1109 C1107 1.387 . S
C1109 C1111 1.390 . S
C1109 H1113 0.950 . S
H1110 C1106 0.950 . S
C1111 C1109 1.390 . S
C1111 C1112 1.387 1_545 S
C1111 H1114 0.950 . S
C1112 C1111 1.387 1_565 S
C1112 C1115 1.387 . S
H1113 C1109 0.950 . S
H1114 C1111 0.950 . S
C1115 C1106 1.390 . S
C1115 H1108 0.950 . S
C1115 C1112 1.387 . S
C1116 C1117 1.387 1_565 S
C1116 H1120 0.950 . S
C1116 C1125 1.390 . S
C1117 C1116 1.387 1_545 S
C1117 C1119 1.387 . S
H1118 C1125 0.950 . S
C1119 C1117 1.387 . S
C1119 C1121 1.390 . S
C1119 H1123 0.950 . S
H1120 C1116 0.950 . S
C1121 C1119 1.390 . S
C1121 C1122 1.387 1_545 S
C1121 H1124 0.950 . S
C1122 C1121 1.387 1_565 S
C1122 C1125 1.387 . S
H1123 C1119 0.950 . S
H1124 C1121 0.950 . S
C1125 C1116 1.390 . S
C1125 H1118 0.950 . S
C1125 C1122 1.387 . S
C1126 C1127 1.387 . S
C1126 H1130 0.950 . S
C1126 C1135 1.390 . S
C1127 C1126 1.387 . S
C1127 C1129 1.387 . S
H1128 C1135 0.950 . S
C1129 C1127 1.387 . S
C1129 C1131 1.390 . S
C1129 H1133 0.950 . S
H1130 C1126 0.950 . S
C1131 C1129 1.390 . S
C1131 C1132 1.387 . S
C1131 H1134 0.950 . S
C1132 C1131 1.387 . S
C1132 C1135 1.387 . S
H1133 C1129 0.950 . S
H1134 C1131 0.950 . S
C1135 C1126 1.390 . S
C1135 H1128 0.950 . S
C1135 C1132 1.387 . S
C1136 C1137 1.387 . S
C1136 H1140 0.950 . S
C1136 C1145 1.390 . S
C1137 C1136 1.387 . S
C1137 C1139 1.387 . S
H1138 C1145 0.950 . S
C1139 C1137 1.387 . S
C1139 C1141 1.390 . S
C1139 H1143 0.950 . S
H1140 C1136 0.950 . S
C1141 C1139 1.390 . S
C1141 C1142 1.387 . S
C1141 H1144 0.950 . S
C1142 C1141 1.387 . S
C1142 C1145 1.387 . S
H1143 C1139 0.950 . S
H1144 C1141 0.950 . S
C1145 C1136 1.390 . S
C1145 H1138 0.950 . S
C1145 C1142 1.387 . S
C1146 C1147 1.387 . S
C1146 H1150 0.950 . S
C1146 C1155 1.390 . S
C1147 C1146 1.387 . S
C1147 C1149 1.387 . S
H1148 C1155 0.950 . S
C1149 C1147 1.387 . S
C1149 C1151 1.390 . S
C1149 H1153 0.950 . S
H1150 C1146 0.950 . S
C1151 C1149 1.390 . S
C1151 C1152 1.387 . S
C1151 H1154 0.950 . S
C1152 C1151 1.387 . S
C1152 C1155 1.387 . S
H1153 C1149 0.950 . S
H1154 C1151 0.950 . S
C1155 C1146 1.390 . S
C1155 H1148 0.950 . S
C1155 C1152 1.387 . S
C1156 C1157 1.387 . S
C1156 H1160 0.950 . S
C1156 C1165 1.390 1_556 S
C1157 C1156 1.387 . S
C1157 C1159 1.387 . S
H1158 C1165 0.950 . S
C1159 C1157 1.387 . S
C1159 C1161 1.390 1_556 S
C1159 H1163 0.950 . S
H1160 C1156 0.950 . S
C1161 C1159 1.390 1_554 S
C1161 C1162 1.387 . S
C1161 H1164 0.950 . S
C1162 C1161 1.387 . S
C1162 C1165 1.387 . S
H1163 C1159 0.950 . S
H1164 C1161 0.950 . S
C1165 C1156 1.390 1_554 S
C1165 H1158 0.950 . S
C1165 C1162 1.387 . S
C1166 C1167 1.387 . S
C1166 H1170 0.950 . S
C1166 C1175 1.390 1_556 S
C1167 C1166 1.387 . S
C1167 C1169 1.387 . S
H1168 C1175 0.950 . S
C1169 C1167 1.387 . S
C1169 C1171 1.390 1_556 S
C1169 H1173 0.950 . S
H1170 C1166 0.950 . S
C1171 C1169 1.390 1_554 S
C1171 C1172 1.387 . S
C1171 H1174 0.950 . S
C1172 C1171 1.387 . S
C1172 C1175 1.387 . S
H1173 C1169 0.950 . S
H1174 C1171 0.950 . S
C1175 C1166 1.390 1_554 S
C1175 H1168 0.950 . S
C1175 C1172 1.387 . S
C1176 C1177 1.387 . S
C1176 H1180 0.950 . S
C1176 C1185 1.390 . S
C1177 C1176 1.387 . S
C1177 C1179 1.387 . S
H1178 C1185 0.950 . S
C1179 C1177 1.387 . S
C1179 C1181 1.390 . S
C1179 H1183 0.950 . S
H1180 C1176 0.950 . S
C1181 C1179 1.390 . S
C1181 C1182 1.387 . S
C1181 H1184 0.950 . S
C1182 C1181 1.387 . S
C1182 C1185 1.387 . S
H1183 C1179 0.950 . S
H1184 C1181 0.950 . S
C1185 C1176 1.390 . S
C1185 H1178 0.950 . S
C1185 C1182 1.387 . S
C1186 C1187 1.387 . S
C1186 H1190 0.950 . S
C1186 C1195 1.390 . S
C1187 C1186 1.387 . S
C1187 C1189 1.387 . S
H1188 C1195 0.950 . S
C1189 C1187 1.387 . S
C1189 C1191 1.390 . S
C1189 H1193 0.950 . S
H1190 C1186 0.950 . S
C1191 C1189 1.390 . S
C1191 C1192 1.387 . S
C1191 H1194 0.950 . S
C1192 C1191 1.387 . S
C1192 C1195 1.387 . S
H1193 C1189 0.950 . S
H1194 C1191 0.950 . S
C1195 C1186 1.390 . S
C1195 H1188 0.950 . S
C1195 C1192 1.387 . S
C1196 C1197 1.387 . S
C1196 H1200 0.950 . S
C1196 C1205 1.390 1_554 S
C1197 C1196 1.387 . S
C1197 C1199 1.387 1_554 S
H1198 C1205 0.950 . S
C1199 C1197 1.387 1_556 S
C1199 C1201 1.390 . S
C1199 H1203 0.950 1_556 S
H1200 C1196 0.950 . S
C1201 C1199 1.390 . S
C1201 C1202 1.387 . S
C1201 H1204 0.950 . S
C1202 C1201 1.387 . S
C1202 C1205 1.387 . S
H1203 C1199 0.950 1_554 S
H1204 C1201 0.950 . S
C1205 C1196 1.390 1_556 S
C1205 H1198 0.950 . S
C1205 C1202 1.387 . S
C1206 C1207 1.387 . S
C1206 H1210 0.950 . S
C1206 C1215 1.390 . S
C1207 C1206 1.387 . S
C1207 C1209 1.387 . S
H1208 C1215 0.950 . S
C1209 C1207 1.387 . S
C1209 C1211 1.390 1_556 S
C1209 H1213 0.950 . S
H1210 C1206 0.950 . S
C1211 C1209 1.390 1_554 S
C1211 C1212 1.387 . S
C1211 H1214 0.950 . S
C1212 C1211 1.387 . S
C1212 C1215 1.387 1_554 S
H1213 C1209 0.950 . S
H1214 C1211 0.950 . S
C1215 C1206 1.390 . S
C1215 H1208 0.950 . S
C1215 C1212 1.387 1_556 S
C1216 C1217 1.387 . S
C1216 H1220 0.950 . S
C1216 C1225 1.390 . S
C1217 C1216 1.387 . S
C1217 C1219 1.387 . S
H1218 C1225 0.950 . S
C1219 C1217 1.387 . S
C1219 C1221 1.390 . S
C1219 H1223 0.950 . S
H1220 C1216 0.950 . S
C1221 C1219 1.390 . S
C1221 C1222 1.387 . S
C1221 H1224 0.950 . S
C1222 C1221 1.387 . S
C1222 C1225 1.387 . S
H1223 C1219 0.950 . S
H1224 C1221 0.950 . S
C1225 C1216 1.390 . S
C1225 H1218 0.950 . S
C1225 C1222 1.387 . S
C1226 C1227 1.387 . S
C1226 H1230 0.950 . S
C1226 C1235 1.390 . S
C1227 C1226 1.387 . S
C1227 C1229 1.387 1_565 S
H1228 C1235 0.950 . S
C1229 C1227 1.387 1_545 S
C1229 C1231 1.390 . S
C1229 H1233 0.950 . S
H1230 C1226 0.950 . S
C1231 C1229 1.390 . S
C1231 C1232 1.387 . S
C1231 H1234 0.950 . S
C1232 C1231 1.387 . S
C1232 C1235 1.387 1_545 S
H1233 C1229 0.950 . S
H1234 C1231 0.950 . S
C1235 C1226 1.390 . S
C1235 H1228 0.950 . S
C1235 C1232 1.387 1_565 S
C1236 C1237 1.387 . S
C1236 H1240 0.950 . S
C1236 C1245 1.390 1_556 S
C1237 C1236 1.387 . S
C1237 C1239 1.387 1_565 S
H1238 C1245 0.950 . S
C1239 C1237 1.387 1_545 S
C1239 C1241 1.390 1_556 S
C1239 H1243 0.950 . S
H1240 C1236 0.950 . S
C1241 C1239 1.390 1_554 S
C1241 C1242 1.387 . S
C1241 H1244 0.950 . S
C1242 C1241 1.387 . S
C1242 C1245 1.387 1_545 S
H1243 C1239 0.950 . S
H1244 C1241 0.950 . S
C1245 C1236 1.390 1_554 S
C1245 H1238 0.950 . S
C1245 C1242 1.387 1_565 S
C1246 C1247 1.387 . S
C1246 H1250 0.950 . S
C1246 C1255 1.390 1_556 S
C1247 C1246 1.387 . S
C1247 C1249 1.387 1_556 S
H1248 C1255 0.950 . S
C1249 C1247 1.387 1_554 S
C1249 C1251 1.390 . S
C1249 H1253 0.950 . S
H1250 C1246 0.950 . S
C1251 C1249 1.390 . S
C1251 C1252 1.387 . S
C1251 H1254 0.950 . S
C1252 C1251 1.387 . S
C1252 C1255 1.387 . S
H1253 C1249 0.950 . S
H1254 C1251 0.950 . S
C1255 C1246 1.390 1_554 S
C1255 H1248 0.950 . S
C1255 C1252 1.387 . S
C1256 C1257 1.387 . S
C1256 H1260 0.950 . S
C1256 C1265 1.390 . S
C1257 C1256 1.387 . S
C1257 C1259 1.387 . S
H1258 C1265 0.950 . S
C1259 C1257 1.387 . S
C1259 C1261 1.390 . S
C1259 H1263 0.950 . S
H1260 C1256 0.950 . S
C1261 C1259 1.390 . S
C1261 C1262 1.387 . S
C1261 H1264 0.950 . S
C1262 C1261 1.387 . S
C1262 C1265 1.387 . S
H1263 C1259 0.950 . S
H1264 C1261 0.950 . S
C1265 C1256 1.390 . S
C1265 H1258 0.950 . S
C1265 C1262 1.387 . S
C1266 C1267 1.387 . S
C1266 H1270 0.950 . S
C1266 C1275 1.390 . S
C1267 C1266 1.387 . S
C1267 C1269 1.387 1_545 S
H1268 C1275 0.950 . S
C1269 C1267 1.387 1_565 S
C1269 C1271 1.390 . S
C1269 H1273 0.950 . S
H1270 C1266 0.950 . S
C1271 C1269 1.390 . S
C1271 C1272 1.387 . S
C1271 H1274 0.950 . S
C1272 C1271 1.387 . S
C1272 C1275 1.387 1_565 S
H1273 C1269 0.950 . S
H1274 C1271 0.950 . S
C1275 C1266 1.390 . S
C1275 H1268 0.950 . S
C1275 C1272 1.387 1_545 S
C1276 C1277 1.387 1_545 S
C1276 H1280 0.950 . S
C1276 C1285 1.390 . S
C1277 C1276 1.387 1_565 S
C1277 C1279 1.387 . S
H1278 C1285 0.950 . S
C1279 C1277 1.387 . S
C1279 C1281 1.390 1_556 S
C1279 H1283 0.950 . S
H1280 C1276 0.950 . S
C1281 C1279 1.390 1_554 S
C1281 C1282 1.387 1_565 S
C1281 H1284 0.950 . S
C1282 C1281 1.387 1_545 S
C1282 C1285 1.387 1_554 S
H1283 C1279 0.950 . S
H1284 C1281 0.950 . S
C1285 C1276 1.390 . S
C1285 H1278 0.950 . S
C1285 C1282 1.387 1_556 S
C1286 C1287 1.387 . S
C1286 H1290 0.950 . S
C1286 C1295 1.390 1_556 S
C1287 C1286 1.387 . S
C1287 C1289 1.387 . S
H1288 C1295 0.950 . S
C1289 C1287 1.387 . S
C1289 C1291 1.390 . S
C1289 H1293 0.950 . S
H1290 C1286 0.950 . S
C1291 C1289 1.390 . S
C1291 C1292 1.387 1_556 S
C1291 H1294 0.950 1_556 S
C1292 C1291 1.387 1_554 S
C1292 C1295 1.387 . S
H1293 C1289 0.950 . S
H1294 C1291 0.950 1_554 S
C1295 C1286 1.390 1_554 S
C1295 H1288 0.950 . S
C1295 C1292 1.387 . S
C1296 C1297 1.387 . S
C1296 H1300 0.950 . S
C1296 C1305 1.390 . S
C1297 C1296 1.387 . S
C1297 C1299 1.387 . S
H1298 C1305 0.950 . S
C1299 C1297 1.387 . S
C1299 C1301 1.390 . S
C1299 H1303 0.950 . S
H1300 C1296 0.950 . S
C1301 C1299 1.390 . S
C1301 C1302 1.387 . S
C1301 H1304 0.950 . S
C1302 C1301 1.387 . S
C1302 C1305 1.387 . S
H1303 C1299 0.950 . S
H1304 C1301 0.950 . S
C1305 C1296 1.390 . S
C1305 H1298 0.950 . S
C1305 C1302 1.387 . S
C1306 C1307 1.387 . S
C1306 H1310 0.950 . S
C1306 C1315 1.390 . S
C1307 C1306 1.387 . S
C1307 C1309 1.387 . S
H1308 C1315 0.950 . S
C1309 C1307 1.387 . S
C1309 C1311 1.390 . S
C1309 H1313 0.950 . S
H1310 C1306 0.950 . S
C1311 C1309 1.390 . S
C1311 C1312 1.387 . S
C1311 H1314 0.950 . S
C1312 C1311 1.387 . S
C1312 C1315 1.387 . S
H1313 C1309 0.950 . S
H1314 C1311 0.950 . S
C1315 C1306 1.390 . S
C1315 H1308 0.950 . S
C1315 C1312 1.387 . S
C1316 C1317 1.387 . S
C1316 H1320 0.950 . S
C1316 C1325 1.390 . S
C1317 C1316 1.387 . S
C1317 C1319 1.387 . S
H1318 C1325 0.950 . S
C1319 C1317 1.387 . S
C1319 C1321 1.390 . S
C1319 H1323 0.950 . S
H1320 C1316 0.950 . S
C1321 C1319 1.390 . S
C1321 C1322 1.387 . S
C1321 H1324 0.950 . S
C1322 C1321 1.387 . S
C1322 C1325 1.387 . S
H1323 C1319 0.950 . S
H1324 C1321 0.950 . S
C1325 C1316 1.390 . S
C1325 H1318 0.950 . S
C1325 C1322 1.387 . S
C1326 C1327 1.387 . S
C1326 H1330 0.950 . S
C1326 C1335 1.390 . S
C1327 C1326 1.387 . S
C1327 C1329 1.387 . S
H1328 C1335 0.950 . S
C1329 C1327 1.387 . S
C1329 C1331 1.390 . S
C1329 H1333 0.950 . S
H1330 C1326 0.950 . S
C1331 C1329 1.390 . S
C1331 C1332 1.387 . S
C1331 H1334 0.950 . S
C1332 C1331 1.387 . S
C1332 C1335 1.387 . S
H1333 C1329 0.950 . S
H1334 C1331 0.950 . S
C1335 C1326 1.390 . S
C1335 H1328 0.950 . S
C1335 C1332 1.387 . S
C1336 C1337 1.387 . S
C1336 H1340 0.950 . S
C1336 C1345 1.390 . S
C1337 C1336 1.387 . S
C1337 C1339 1.387 . S
H1338 C1345 0.950 . S
C1339 C1337 1.387 . S
C1339 C1341 1.390 . S
C1339 H1343 0.950 . S
H1340 C1336 0.950 . S
C1341 C1339 1.390 . S
C1341 C1342 1.387 . S
C1341 H1344 0.950 . S
C1342 C1341 1.387 . S
C1342 C1345 1.387 . S
H1343 C1339 0.950 . S
H1344 C1341 0.950 . S
C1345 C1336 1.390 . S
C1345 H1338 0.950 . S
C1345 C1342 1.387 . S
C1346 C1347 1.387 . S
C1346 H1350 0.950 . S
C1346 C1355 1.390 . S
C1347 C1346 1.387 . S
C1347 C1349 1.387 . S
H1348 C1355 0.950 . S
C1349 C1347 1.387 . S
C1349 C1351 1.390 . S
C1349 H1353 0.950 . S
H1350 C1346 0.950 . S
C1351 C1349 1.390 . S
C1351 C1352 1.387 . S
C1351 H1354 0.950 . S
C1352 C1351 1.387 . S
C1352 C1355 1.387 . S
H1353 C1349 0.950 . S
H1354 C1351 0.950 . S
C1355 C1346 1.390 . S
C1355 H1348 0.950 . S
C1355 C1352 1.387 . S
C1356 C1357 1.387 . S
C1356 H1360 0.950 . S
C1356 C1365 1.390 . S
C1357 C1356 1.387 . S
C1357 C1359 1.387 . S
H1358 C1365 0.950 . S
C1359 C1357 1.387 . S
C1359 C1361 1.390 . S
C1359 H1363 0.950 . S
H1360 C1356 0.950 . S
C1361 C1359 1.390 . S
C1361 C1362 1.387 . S
C1361 H1364 0.950 . S
C1362 C1361 1.387 . S
C1362 C1365 1.387 . S
H1363 C1359 0.950 . S
H1364 C1361 0.950 . S
C1365 C1356 1.390 . S
C1365 H1358 0.950 . S
C1365 C1362 1.387 . S
C1366 C1367 1.387 . S
C1366 H1370 0.950 . S
C1366 C1375 1.390 . S
C1367 C1366 1.387 . S
C1367 C1369 1.387 . S
H1368 C1375 0.950 . S
C1369 C1367 1.387 . S
C1369 C1371 1.390 . S
C1369 H1373 0.950 . S
H1370 C1366 0.950 . S
C1371 C1369 1.390 . S
C1371 C1372 1.387 . S
C1371 H1374 0.950 . S
C1372 C1371 1.387 . S
C1372 C1375 1.387 . S
H1373 C1369 0.950 . S
H1374 C1371 0.950 . S
C1375 C1366 1.390 . S
C1375 H1368 0.950 . S
C1375 C1372 1.387 . S
C1376 C1377 1.387 . S
C1376 H1380 0.950 . S
C1376 C1385 1.390 . S
C1377 C1376 1.387 . S
C1377 C1379 1.387 . S
H1378 C1385 0.950 . S
C1379 C1377 1.387 . S
C1379 C1381 1.390 . S
C1379 H1383 0.950 . S
H1380 C1376 0.950 . S
C1381 C1379 1.390 . S
C1381 C1382 1.387 . S
C1381 H1384 0.950 . S
C1382 C1381 1.387 . S
C1382 C1385 1.387 . S
H1383 C1379 0.950 . S
H1384 C1381 0.950 . S
C1385 C1376 1.390 . S
C1385 H1378 0.950 . S
C1385 C1382 1.387 . S
C1386 C1387 1.387 . S
C1386 H1390 0.950 . S
C1386 C1395 1.390 . S
C1387 C1386 1.387 . S
C1387 C1389 1.387 . S
H1388 C1395 0.950 . S
C1389 C1387 1.387 . S
C1389 C1391 1.390 . S
C1389 H1393 0.950 . S
H1390 C1386 0.950 . S
C1391 C1389 1.390 . S
C1391 C1392 1.387 . S
C1391 H1394 0.950 . S
C1392 C1391 1.387 . S
C1392 C1395 1.387 . S
H1393 C1389 0.950 . S
H1394 C1391 0.950 . S
C1395 C1386 1.390 . S
C1395 H1388 0.950 . S
C1395 C1392 1.387 . S
C1396 C1397 1.387 . S
C1396 H1400 0.950 . S
C1396 C1405 1.390 . S
C1397 C1396 1.387 . S
C1397 C1399 1.387 . S
H1398 C1405 0.950 . S
C1399 C1397 1.387 . S
C1399 C1401 1.390 . S
C1399 H1403 0.950 . S
H1400 C1396 0.950 . S
C1401 C1399 1.390 . S
C1401 C1402 1.387 . S
C1401 H1404 0.950 . S
C1402 C1401 1.387 . S
C1402 C1405 1.387 . S
H1403 C1399 0.950 . S
H1404 C1401 0.950 . S
C1405 C1396 1.390 . S
C1405 H1398 0.950 . S
C1405 C1402 1.387 . S
C1406 C1407 1.387 . S
C1406 H1410 0.950 . S
C1406 C1415 1.390 . S
C1407 C1406 1.387 . S
C1407 C1409 1.387 . S
H1408 C1415 0.950 . S
C1409 C1407 1.387 . S
C1409 C1411 1.390 . S
C1409 H1413 0.950 . S
H1410 C1406 0.950 . S
C1411 C1409 1.390 . S
C1411 C1412 1.387 . S
C1411 H1414 0.950 . S
C1412 C1411 1.387 . S
C1412 C1415 1.387 . S
H1413 C1409 0.950 . S
H1414 C1411 0.950 . S
C1415 C1406 1.390 . S
C1415 H1408 0.950 . S
C1415 C1412 1.387 . S
C1416 C1417 1.387 . S
C1416 H1420 0.950 . S
C1416 C1425 1.390 . S
C1417 C1416 1.387 . S
C1417 C1419 1.387 . S
H1418 C1425 0.950 . S
C1419 C1417 1.387 . S
C1419 C1421 1.390 . S
C1419 H1423 0.950 . S
H1420 C1416 0.950 . S
C1421 C1419 1.390 . S
C1421 C1422 1.387 . S
C1421 H1424 0.950 . S
C1422 C1421 1.387 . S
C1422 C1425 1.387 . S
H1423 C1419 0.950 . S
H1424 C1421 0.950 . S
C1425 C1416 1.390 . S
C1425 H1418 0.950 . S
C1425 C1422 1.387 . S
C1426 C1427 1.387 . S
C1426 H1430 0.950 . S
C1426 C1435 1.390 . S
C1427 C1426 1.387 . S
C1427 C1429 1.387 . S
H1428 C1435 0.950 . S
C1429 C1427 1.387 . S
C1429 C1431 1.390 . S
C1429 H1433 0.950 . S
H1430 C1426 0.950 . S
C1431 C1429 1.390 . S
C1431 C1432 1.387 . S
C1431 H1434 0.950 . S
C1432 C1431 1.387 . S
C1432 C1435 1.387 . S
H1433 C1429 0.950 . S
H1434 C1431 0.950 . S
C1435 C1426 1.390 . S
C1435 H1428 0.950 . S
C1435 C1432 1.387 . S
C1436 C1437 1.387 . S
C1436 H1440 0.950 . S
C1436 C1445 1.390 . S
C1437 C1436 1.387 . S
C1437 C1439 1.387 . S
H1438 C1445 0.950 . S
C1439 C1437 1.387 . S
C1439 C1441 1.390 . S
C1439 H1443 0.950 . S
H1440 C1436 0.950 . S
C1441 C1439 1.390 . S
C1441 C1442 1.387 . S
C1441 H1444 0.950 . S
C1442 C1441 1.387 . S
C1442 C1445 1.387 . S
H1443 C1439 0.950 . S
H1444 C1441 0.950 . S
C1445 C1436 1.390 . S
C1445 H1438 0.950 . S
C1445 C1442 1.387 . S
C1446 C1447 1.387 . S
C1446 H1450 0.950 . S
C1446 C1455 1.390 . S
C1447 C1446 1.387 . S
C1447 C1449 1.387 . S
H1448 C1455 0.950 . S
C1449 C1447 1.387 . S
C1449 C1451 1.390 . S
C1449 H1453 0.950 . S
H1450 C1446 0.950 . S
C1451 C1449 1.390 . S
C1451 C1452 1.387 . S
C1451 H1454 0.950 . S
C1452 C1451 1.387 . S
C1452 C1455 1.387 . S
H1453 C1449 0.950 . S
H1454 C1451 0.950 . S
C1455 C1446 1.390 . S
C1455 H1448 0.950 . S
C1455 C1452 1.387 . S
C1456 C1457 1.387 . S
C1456 H1460 0.950 . S
C1456 C1465 1.390 . S
C1457 C1456 1.387 . S
C1457 C1459 1.387 . S
H1458 C1465 0.950 . S
C1459 C1457 1.387 . S
C1459 C1461 1.390 . S
C1459 H1463 0.950 . S
H1460 C1456 0.950 . S
C1461 C1459 1.390 . S
C1461 C1462 1.387 . S
C1461 H1464 0.950 . S
C1462 C1461 1.387 . S
C1462 C1465 1.387 . S
H1463 C1459 0.950 . S
H1464 C1461 0.950 . S
C1465 C1456 1.390 . S
C1465 H1458 0.950 . S
C1465 C1462 1.387 . S
C1466 C1467 1.387 . S
C1466 H1470 0.950 . S
C1466 C1475 1.390 . S
C1467 C1466 1.387 . S
C1467 C1469 1.387 . S
H1468 C1475 0.950 . S
C1469 C1467 1.387 . S
C1469 C1471 1.390 . S
C1469 H1473 0.950 . S
H1470 C1466 0.950 . S
C1471 C1469 1.390 . S
C1471 C1472 1.387 . S
C1471 H1474 0.950 . S
C1472 C1471 1.387 . S
C1472 C1475 1.387 . S
H1473 C1469 0.950 . S
H1474 C1471 0.950 . S
C1475 C1466 1.390 . S
C1475 H1468 0.950 . S
C1475 C1472 1.387 . S
C1476 C1477 1.387 . S
C1476 H1480 0.950 . S
C1476 C1485 1.390 . S
C1477 C1476 1.387 . S
C1477 C1479 1.387 . S
H1478 C1485 0.950 . S
C1479 C1477 1.387 . S
C1479 C1481 1.390 . S
C1479 H1483 0.950 . S
H1480 C1476 0.950 . S
C1481 C1479 1.390 . S
C1481 C1482 1.387 . S
C1481 H1484 0.950 . S
C1482 C1481 1.387 . S
C1482 C1485 1.387 . S
H1483 C1479 0.950 . S
H1484 C1481 0.950 . S
C1485 C1476 1.390 . S
C1485 H1478 0.950 . S
C1485 C1482 1.387 . S
C1486 C1487 1.387 . S
C1486 H1490 0.950 . S
C1486 C1495 1.390 . S
C1487 C1486 1.387 . S
C1487 C1489 1.387 . S
H1488 C1495 0.950 . S
C1489 C1487 1.387 . S
C1489 C1491 1.390 . S
C1489 H1493 0.950 . S
H1490 C1486 0.950 . S
C1491 C1489 1.390 . S
C1491 C1492 1.387 . S
C1491 H1494 0.950 . S
C1492 C1491 1.387 . S
C1492 C1495 1.387 . S
H1493 C1489 0.950 . S
H1494 C1491 0.950 . S
C1495 C1486 1.390 . S
C1495 H1488 0.950 . S
C1495 C1492 1.387 . S
C1496 C1497 1.387 . S
C1496 H1500 0.950 . S
C1496 C1505 1.390 . S
C1497 C1496 1.387 . S
C1497 C1499 1.387 . S
H1498 C1505 0.950 . S
C1499 C1497 1.387 . S
C1499 C1501 1.390 . S
C1499 H1503 0.950 . S
H1500 C1496 0.950 . S
C1501 C1499 1.390 . S
C1501 C1502 1.387 . S
C1501 H1504 0.950 . S
C1502 C1501 1.387 . S
C1502 C1505 1.387 . S
H1503 C1499 0.950 . S
H1504 C1501 0.950 . S
C1505 C1496 1.390 . S
C1505 H1498 0.950 . S
C1505 C1502 1.387 . S
C1506 C1507 1.387 . S
C1506 H1510 0.950 . S
C1506 C1515 1.390 . S
C1507 C1506 1.387 . S
C1507 C1509 1.387 . S
H1508 C1515 0.950 . S
C1509 C1507 1.387 . S
C1509 C1511 1.390 . S
C1509 H1513 0.950 . S
H1510 C1506 0.950 . S
C1511 C1509 1.390 . S
C1511 C1512 1.387 . S
C1511 H1514 0.950 . S
C1512 C1511 1.387 . S
C1512 C1515 1.387 . S
H1513 C1509 0.950 . S
H1514 C1511 0.950 . S
C1515 C1506 1.390 . S
C1515 H1508 0.950 . S
C1515 C1512 1.387 . S
C1516 C1517 1.387 . S
C1516 H1520 0.950 . S
C1516 C1525 1.390 . S
C1517 C1516 1.387 . S
C1517 C1519 1.387 . S
H1518 C1525 0.950 . S
C1519 C1517 1.387 . S
C1519 C1521 1.390 . S
C1519 H1523 0.950 . S
H1520 C1516 0.950 . S
C1521 C1519 1.390 . S
C1521 C1522 1.387 . S
C1521 H1524 0.950 . S
C1522 C1521 1.387 . S
C1522 C1525 1.387 . S
H1523 C1519 0.950 . S
H1524 C1521 0.950 . S
C1525 C1516 1.390 . S
C1525 H1518 0.950 . S
C1525 C1522 1.387 . S
C1526 C1527 1.387 . S
C1526 H1530 0.950 . S
C1526 C1535 1.390 . S
C1527 C1526 1.387 . S
C1527 C1529 1.387 . S
H1528 C1535 0.950 . S
C1529 C1527 1.387 . S
C1529 C1531 1.390 . S
C1529 H1533 0.950 . S
H1530 C1526 0.950 . S
C1531 C1529 1.390 . S
C1531 C1532 1.387 . S
C1531 H1534 0.950 . S
C1532 C1531 1.387 . S
C1532 C1535 1.387 . S
H1533 C1529 0.950 . S
H1534 C1531 0.950 . S
C1535 C1526 1.390 . S
C1535 H1528 0.950 . S
C1535 C1532 1.387 . S
C1536 C1537 1.387 . S
C1536 H1540 0.950 . S
C1536 C1545 1.390 . S
C1537 C1536 1.387 . S
C1537 C1539 1.387 . S
H1538 C1545 0.950 . S
C1539 C1537 1.387 . S
C1539 C1541 1.390 . S
C1539 H1543 0.950 . S
H1540 C1536 0.950 . S
C1541 C1539 1.390 . S
C1541 C1542 1.387 . S
C1541 H1544 0.950 . S
C1542 C1541 1.387 . S
C1542 C1545 1.387 . S
H1543 C1539 0.950 . S
H1544 C1541 0.950 . S
C1545 C1536 1.390 . S
C1545 H1538 0.950 . S
C1545 C1542 1.387 . S
C1546 C1547 1.387 . S
C1546 H1550 0.950 . S
C1546 C1555 1.390 . S
C1547 C1546 1.387 . S
C1547 C1549 1.387 . S
H1548 C1555 0.950 . S
C1549 C1547 1.387 . S
C1549 C1551 1.390 . S
C1549 H1553 0.950 . S
H1550 C1546 0.950 . S
C1551 C1549 1.390 . S
C1551 C1552 1.387 . S
C1551 H1554 0.950 . S
C1552 C1551 1.387 . S
C1552 C1555 1.387 . S
H1553 C1549 0.950 . S
H1554 C1551 0.950 . S
C1555 C1546 1.390 . S
C1555 H1548 0.950 . S
C1555 C1552 1.387 . S
C1556 C1557 1.387 . S
C1556 H1560 0.950 . S
C1556 C1565 1.390 . S
C1557 C1556 1.387 . S
C1557 C1559 1.387 . S
H1558 C1565 0.950 . S
C1559 C1557 1.387 . S
C1559 C1561 1.390 . S
C1559 H1563 0.950 . S
H1560 C1556 0.950 . S
C1561 C1559 1.390 . S
C1561 C1562 1.387 . S
C1561 H1564 0.950 . S
C1562 C1561 1.387 . S
C1562 C1565 1.387 . S
H1563 C1559 0.950 . S
H1564 C1561 0.950 . S
C1565 C1556 1.390 . S
C1565 H1558 0.950 . S
C1565 C1562 1.387 . S
C1566 C1567 1.387 . S
C1566 H1570 0.950 . S
C1566 C1575 1.390 . S
C1567 C1566 1.387 . S
C1567 C1569 1.387 . S
H1568 C1575 0.950 . S
C1569 C1567 1.387 . S
C1569 C1571 1.390 . S
C1569 H1573 0.950 . S
H1570 C1566 0.950 . S
C1571 C1569 1.390 . S
C1571 C1572 1.387 . S
C1571 H1574 0.950 . S
C1572 C1571 1.387 . S
C1572 C1575 1.387 . S
H1573 C1569 0.950 . S
H1574 C1571 0.950 . S
C1575 C1566 1.390 . S
C1575 H1568 0.950 . S
C1575 C1572 1.387 . S
C1576 C1577 1.387 . S
C1576 H1580 0.950 . S
C1576 C1585 1.390 . S
C1577 C1576 1.387 . S
C1577 C1579 1.387 . S
H1578 C1585 0.950 . S
C1579 C1577 1.387 . S
C1579 C1581 1.390 . S
C1579 H1583 0.950 . S
H1580 C1576 0.950 . S
C1581 C1579 1.390 . S
C1581 C1582 1.387 . S
C1581 H1584 0.950 . S
C1582 C1581 1.387 . S
C1582 C1585 1.387 . S
H1583 C1579 0.950 . S
H1584 C1581 0.950 . S
C1585 C1576 1.390 . S
C1585 H1578 0.950 . S
C1585 C1582 1.387 . S
C1586 C1587 1.387 . S
C1586 H1590 0.950 . S
C1586 C1595 1.390 . S
C1587 C1586 1.387 . S
C1587 C1589 1.387 . S
H1588 C1595 0.950 . S
C1589 C1587 1.387 . S
C1589 C1591 1.390 . S
C1589 H1593 0.950 . S
H1590 C1586 0.950 . S
C1591 C1589 1.390 . S
C1591 C1592 1.387 . S
C1591 H1594 0.950 . S
C1592 C1591 1.387 . S
C1592 C1595 1.387 . S
H1593 C1589 0.950 . S
H1594 C1591 0.950 . S
C1595 C1586 1.390 . S
C1595 H1588 0.950 . S
C1595 C1592 1.387 . S
C1596 C1597 1.387 . S
C1596 H1600 0.950 . S
C1596 C1605 1.390 . S
C1597 C1596 1.387 . S
C1597 C1599 1.387 . S
H1598 C1605 0.950 . S
C1599 C1597 1.387 . S
C1599 C1601 1.390 . S
C1599 H1603 0.950 . S
H1600 C1596 0.950 . S
C1601 C1599 1.390 . S
C1601 C1602 1.387 . S
C1601 H1604 0.950 . S
C1602 C1601 1.387 . S
C1602 C1605 1.387 . S
H1603 C1599 0.950 . S
H1604 C1601 0.950 . S
C1605 C1596 1.390 . S
C1605 H1598 0.950 . S
C1605 C1602 1.387 . S
C1606 C1607 1.387 . S
C1606 H1610 0.950 . S
C1606 C1615 1.390 . S
C1607 C1606 1.387 . S
C1607 C1609 1.387 . S
H1608 C1615 0.950 . S
C1609 C1607 1.387 . S
C1609 C1611 1.390 . S
C1609 H1613 0.950 . S
H1610 C1606 0.950 . S
C1611 C1609 1.390 . S
C1611 C1612 1.387 . S
C1611 H1614 0.950 . S
C1612 C1611 1.387 . S
C1612 C1615 1.387 . S
H1613 C1609 0.950 . S
H1614 C1611 0.950 . S
C1615 C1606 1.390 . S
C1615 H1608 0.950 . S
C1615 C1612 1.387 . S
C1616 C1617 1.387 . S
C1616 H1620 0.950 . S
C1616 C1625 1.390 . S
C1617 C1616 1.387 . S
C1617 C1619 1.387 . S
H1618 C1625 0.950 . S
C1619 C1617 1.387 . S
C1619 C1621 1.390 . S
C1619 H1623 0.950 . S
H1620 C1616 0.950 . S
C1621 C1619 1.390 . S
C1621 C1622 1.387 . S
C1621 H1624 0.950 . S
C1622 C1621 1.387 . S
C1622 C1625 1.387 . S
H1623 C1619 0.950 . S
H1624 C1621 0.950 . S
C1625 C1616 1.390 . S
C1625 H1618 0.950 . S
C1625 C1622 1.387 . S
C1626 C1627 1.387 . S
C1626 H1630 0.950 . S
C1626 C1635 1.390 . S
C1627 C1626 1.387 . S
C1627 C1629 1.387 . S
H1628 C1635 0.950 . S
C1629 C1627 1.387 . S
C1629 C1631 1.390 . S
C1629 H1633 0.950 . S
H1630 C1626 0.950 . S
C1631 C1629 1.390 . S
C1631 C1632 1.387 . S
C1631 H1634 0.950 . S
C1632 C1631 1.387 . S
C1632 C1635 1.387 . S
H1633 C1629 0.950 . S
H1634 C1631 0.950 . S
C1635 C1626 1.390 . S
C1635 H1628 0.950 . S
C1635 C1632 1.387 . S
C1636 C1637 1.387 . S
C1636 H1640 0.950 . S
C1636 C1645 1.390 . S
C1637 C1636 1.387 . S
C1637 C1639 1.387 . S
H1638 C1645 0.950 . S
C1639 C1637 1.387 . S
C1639 C1641 1.390 . S
C1639 H1643 0.950 . S
H1640 C1636 0.950 . S
C1641 C1639 1.390 . S
C1641 C1642 1.387 . S
C1641 H1644 0.950 . S
C1642 C1641 1.387 . S
C1642 C1645 1.387 . S
H1643 C1639 0.950 . S
H1644 C1641 0.950 . S
C1645 C1636 1.390 . S
C1645 H1638 0.950 . S
C1645 C1642 1.387 . S
C1646 C1647 1.387 . S
C1646 H1650 0.950 . S
C1646 C1655 1.390 . S
C1647 C1646 1.387 . S
C1647 C1649 1.387 . S
H1648 C1655 0.950 . S
C1649 C1647 1.387 . S
C1649 C1651 1.390 . S
C1649 H1653 0.950 . S
H1650 C1646 0.950 . S
C1651 C1649 1.390 . S
C1651 C1652 1.387 . S
C1651 H1654 0.950 . S
C1652 C1651 1.387 . S
C1652 C1655 1.387 . S
H1653 C1649 0.950 . S
H1654 C1651 0.950 . S
C1655 C1646 1.390 . S
C1655 H1648 0.950 . S
C1655 C1652 1.387 . S
C1656 C1657 1.387 . S
C1656 H1660 0.950 . S
C1656 C1665 1.390 . S
C1657 C1656 1.387 . S
C1657 C1659 1.387 . S
H1658 C1665 0.950 . S
C1659 C1657 1.387 . S
C1659 C1661 1.390 . S
C1659 H1663 0.950 . S
H1660 C1656 0.950 . S
C1661 C1659 1.390 . S
C1661 C1662 1.387 . S
C1661 H1664 0.950 . S
C1662 C1661 1.387 . S
C1662 C1665 1.387 . S
H1663 C1659 0.950 . S
H1664 C1661 0.950 . S
C1665 C1656 1.390 . S
C1665 H1658 0.950 . S
C1665 C1662 1.387 . S
C1666 C1667 1.387 . S
C1666 H1670 0.950 . S
C1666 C1675 1.390 . S
C1667 C1666 1.387 . S
C1667 C1669 1.387 . S
H1668 C1675 0.950 . S
C1669 C1667 1.387 . S
C1669 C1671 1.390 . S
C1669 H1673 0.950 . S
H1670 C1666 0.950 . S
C1671 C1669 1.390 . S
C1671 C1672 1.387 . S
C1671 H1674 0.950 . S
C1672 C1671 1.387 . S
C1672 C1675 1.387 . S
H1673 C1669 0.950 . S
H1674 C1671 0.950 . S
C1675 C1666 1.390 . S
C1675 H1668 0.950 . S
C1675 C1672 1.387 . S
C1676 C1677 1.387 . S
C1676 H1680 0.950 . S
C1676 C1685 1.390 . S
C1677 C1676 1.387 . S
C1677 C1679 1.387 . S
H1678 C1685 0.950 . S
C1679 C1677 1.387 . S
C1679 C1681 1.390 . S
C1679 H1683 0.950 . S
H1680 C1676 0.950 . S
C1681 C1679 1.390 . S
C1681 C1682 1.387 . S
C1681 H1684 0.950 . S
C1682 C1681 1.387 . S
C1682 C1685 1.387 . S
H1683 C1679 0.950 . S
H1684 C1681 0.950 . S
C1685 C1676 1.390 . S
C1685 H1678 0.950 . S
C1685 C1682 1.387 . S
C1686 C1687 1.387 . S
C1686 H1690 0.950 . S
C1686 C1695 1.390 . S
C1687 C1686 1.387 . S
C1687 C1689 1.387 . S
H1688 C1695 0.950 . S
C1689 C1687 1.387 . S
C1689 C1691 1.390 . S
C1689 H1693 0.950 . S
H1690 C1686 0.950 . S
C1691 C1689 1.390 . S
C1691 C1692 1.387 . S
C1691 H1694 0.950 . S
C1692 C1691 1.387 . S
C1692 C1695 1.387 . S
H1693 C1689 0.950 . S
H1694 C1691 0.950 . S
C1695 C1686 1.390 . S
C1695 H1688 0.950 . S
C1695 C1692 1.387 . S
C737 C662 1.459 . S
C742 C18 1.459 . S
C747 C133 1.459 . S
C752 C41 1.459 . S
C757 C524 1.458 . S
C762 C64 1.458 . S
C767 C363 1.459 . S
C772 C87 1.459 . S
C777 C110 1.459 . S
C782 C570 1.459 . S
C787 C432 1.459 . S
C792 C156 1.459 . S
C797 C271 1.459 . S
C802 C179 1.459 . S
C807 C478 1.459 . S
C812 C202 1.459 . S
C817 C225 1.457 . S
C822 C317 1.457 . S
C827 C248 1.457 . S
C832 C708 1.457 . S
C837 C386 1.459 . S
C842 C294 1.459 . S
C847 C340 1.457 . S
C852 C616 1.457 . S
C857 C409 1.458 . S
C862 C501 1.458 . S
C867 C455 1.459 . S
C872 C731 1.459 . S
C877 C639 1.459 . S
C882 C547 1.459 . S
C887 C685 1.457 . S
C892 C593 1.457 . S
C897 C458 1.659 . S
C902 C21 1.659 . S
C907 C435 1.656 1_565 S
C912 C44 1.656 1_565 S
C917 C412 1.660 1_565 S
C922 C67 1.660 1_566 S
C927 C389 1.659 . S
C932 C90 1.659 1_556 S
C937 C550 1.655 . S
C942 C113 1.655 . S
C947 C136 1.661 1_545 S
C952 C527 1.661 1_545 S
C957 C159 1.656 1_544 S
C962 C504 1.656 1_545 S
C967 C182 1.655 1_554 S
C972 C481 1.655 . S
C977 C205 1.659 . S
C982 C642 1.659 1_556 S
C987 C228 1.660 . S
C992 C619 1.660 1_556 S
C997 C251 1.655 . S
C1002 C596 1.655 . S
C1007 C573 1.659 . S
C1012 C274 1.659 . S
C1017 C297 1.663 . S
C1022 C734 1.663 1_554 S
C1027 C320 1.660 . S
C1032 C711 1.660 1_554 S
C1037 C343 1.655 . S
C1042 C688 1.655 . S
C1047 C665 1.659 . S
C1052 C366 1.659 . S
C1057 C17 1.089 . S
C1062 C16 1.084 . S
C1067 C40 1.087 . S
C1072 C39 1.081 . S
C1077 C62 1.083 . S
C1082 C63 1.088 . S
C1087 C85 1.079 . S
C1092 C86 1.085 . S
C1097 C108 1.085 . S
C1102 C109 1.090 . S
C1107 C131 1.077 . S
C1112 C132 1.083 . S
C1117 C154 1.077 . S
C1122 C155 1.083 . S
C1127 C178 1.088 . S
C1132 C177 1.083 . S
C1137 C201 1.085 . S
C1142 C200 1.080 . S
C1147 C223 1.083 . S
C1152 C224 1.088 . S
C1157 C246 1.078 . S
C1162 C247 1.084 . S
C1167 C269 1.080 . S
C1172 C270 1.086 . S
C1177 C292 1.080 . S
C1182 C293 1.086 . S
C1187 C316 1.088 . S
C1192 C315 1.082 . S
C1197 C338 1.079 . S
C1202 C339 1.084 . S
C1207 C362 1.088 . S
C1212 C361 1.082 . S
C1217 C385 1.090 . S
C1222 C384 1.084 . S
C1227 C407 1.077 . S
C1232 C408 1.083 . S
C1237 C430 1.077 . S
C1242 C431 1.083 . S
C1247 C453 1.083 . S
C1252 C454 1.088 . S
C1257 C477 1.087 . S
C1262 C476 1.082 . S
C1267 C499 1.082 . S
C1272 C500 1.087 . S
C1277 C523 1.086 . S
C1282 C522 1.081 . S
C1287 C546 1.090 . S
C1292 C545 1.084 . S
C1297 C569 1.090 . S
C1302 C568 1.085 . S
C1307 C591 1.079 . S
C1312 C592 1.085 . S
C1317 C614 1.082 . S
C1322 C615 1.087 . S
C1327 C638 1.091 . S
C1332 C637 1.085 . S
C1337 C660 1.085 . S
C1342 C661 1.090 . S
C1347 C684 1.084 . S
C1352 C683 1.078 . S
C1357 C707 1.088 . S
C1362 C706 1.083 . S
C1367 C730 1.086 . S
C1372 C729 1.080 . S
C1377 C250 1.504 . S
C1382 C20 1.505 . S
C1387 C273 1.482 . S
C1392 C43 1.477 . S
C1397 C66 1.482 . S
C1402 C204 1.478 . S
C1407 C227 1.503 . S
C1412 C89 1.504 . S
C1417 C112 1.505 . S
C1422 C342 1.504 . S
C1427 C135 1.482 . S
C1432 C365 1.478 . S
C1437 C158 1.481 . S
C1442 C296 1.477 . S
C1447 C181 1.504 . S
C1452 C319 1.504 . S
C1457 C618 1.504 . S
C1462 C388 1.505 . S
C1467 C411 1.481 . S
C1472 C641 1.477 . S
C1477 C572 1.482 . S
C1482 C434 1.477 . S
C1487 C457 1.505 . S
C1492 C595 1.504 . S
C1497 C710 1.503 . S
C1502 C480 1.504 . S
C1507 C503 1.481 . S
C1512 C733 1.477 . S
C1517 C526 1.482 . S
C1522 C664 1.478 . S
C1527 C687 1.503 . S
C1532 C549 1.504 . S
C1537 C19 1.522 . S
C1542 C65 1.526 . S
C1547 C88 1.522 . S
C1552 C42 1.526 . S
C1557 C157 1.526 . S
C1562 C111 1.531 . S
C1567 C134 1.521 . S
C1572 C180 1.526 . S
C1577 C203 1.503 . S
C1582 C249 1.502 . S
C1587 C272 1.508 . S
C1592 C226 1.507 . S
C1597 C341 1.507 . S
C1602 C295 1.508 . S
C1607 C364 1.508 . S
C1612 C318 1.507 . S
C1617 C433 1.521 . S
C1622 C387 1.526 . S
C1627 C456 1.521 . S
C1632 C410 1.526 . S
C1637 C525 1.526 . S
C1642 C479 1.531 . S
C1647 C548 1.521 . S
C1652 C502 1.526 . S
C1657 C571 1.503 . S
C1662 C617 1.502 . S
C1667 C594 1.507 . S
C1672 C640 1.508 . S
C1677 C663 1.503 . S
C1682 C709 1.502 . S
C1687 C732 1.503 . S
C1692 C686 1.502 . S
