# Generated by pormake.
# Topology neb, (4)-cn, num edge types: 1
# Building blocks:
#     Node 0, Type 0, BuildingBlock: AZAVOO_clean_sbu_0, # of connection points: 4
#     Node 1, Type 0, BuildingBlock: AZAVOO_clean_sbu_0, # of connection points: 4
#     Node 2, Type 0, BuildingBlock: AZAVOO_clean_sbu_0, # of connection points: 4
#     Node 3, Type 0, BuildingBlock: AZAVOO_clean_sbu_0, # of connection points: 4
#     Node 4, Type 0, BuildingBlock: AZAVOO_clean_sbu_0, # of connection points: 4
#     Node 5, Type 0, BuildingBlock: AZAVOO_clean_sbu_0, # of connection points: 4
#     Node 6, Type 0, BuildingBlock: AZAVOO_clean_sbu_0, # of connection points: 4
#     Node 7, Type 0, BuildingBlock: AZAVOO_clean_sbu_0, # of connection points: 4
#     Node 8, Type 0, BuildingBlock: AZAVOO_clean_sbu_0, # of connection points: 4
#     Node 9, Type 0, BuildingBlock: AZAVOO_clean_sbu_0, # of connection points: 4
#     Node 10, Type 0, BuildingBlock: AZAVOO_clean_sbu_0, # of connection points: 4
#     Node 11, Type 0, BuildingBlock: AZAVOO_clean_sbu_0, # of connection points: 4
#     Node 12, Type 0, BuildingBlock: AZAVOO_clean_sbu_0, # of connection points: 4
#     Node 13, Type 0, BuildingBlock: AZAVOO_clean_sbu_0, # of connection points: 4
#     Node 14, Type 0, BuildingBlock: AZAVOO_clean_sbu_0, # of connection points: 4
#     Node 15, Type 0, BuildingBlock: AZAVOO_clean_sbu_0, # of connection points: 4
#     Edge 16, Type (0, 0), BuildingBlock: XIVTED_clean_linker_0, # of connection points: 2
#     Edge 17, Type (0, 0), BuildingBlock: XIVTED_clean_linker_0, # of connection points: 2
#     Edge 18, Type (0, 0), BuildingBlock: XIVTED_clean_linker_0, # of connection points: 2
#     Edge 19, Type (0, 0), BuildingBlock: XIVTED_clean_linker_0, # of connection points: 2
#     Edge 20, Type (0, 0), BuildingBlock: XIVTED_clean_linker_0, # of connection points: 2
#     Edge 21, Type (0, 0), BuildingBlock: XIVTED_clean_linker_0, # of connection points: 2
#     Edge 22, Type (0, 0), BuildingBlock: XIVTED_clean_linker_0, # of connection points: 2
#     Edge 23, Type (0, 0), BuildingBlock: XIVTED_clean_linker_0, # of connection points: 2
#     Edge 24, Type (0, 0), BuildingBlock: XIVTED_clean_linker_0, # of connection points: 2
#     Edge 25, Type (0, 0), BuildingBlock: XIVTED_clean_linker_0, # of connection points: 2
#     Edge 26, Type (0, 0), BuildingBlock: XIVTED_clean_linker_0, # of connection points: 2
#     Edge 27, Type (0, 0), BuildingBlock: XIVTED_clean_linker_0, # of connection points: 2
#     Edge 28, Type (0, 0), BuildingBlock: XIVTED_clean_linker_0, # of connection points: 2
#     Edge 29, Type (0, 0), BuildingBlock: XIVTED_clean_linker_0, # of connection points: 2
#     Edge 30, Type (0, 0), BuildingBlock: XIVTED_clean_linker_0, # of connection points: 2
#     Edge 31, Type (0, 0), BuildingBlock: XIVTED_clean_linker_0, # of connection points: 2
#     Edge 32, Type (0, 0), BuildingBlock: XIVTED_clean_linker_0, # of connection points: 2
#     Edge 33, Type (0, 0), BuildingBlock: XIVTED_clean_linker_0, # of connection points: 2
#     Edge 34, Type (0, 0), BuildingBlock: XIVTED_clean_linker_0, # of connection points: 2
#     Edge 35, Type (0, 0), BuildingBlock: XIVTED_clean_linker_0, # of connection points: 2
#     Edge 36, Type (0, 0), BuildingBlock: XIVTED_clean_linker_0, # of connection points: 2
#     Edge 37, Type (0, 0), BuildingBlock: XIVTED_clean_linker_0, # of connection points: 2
#     Edge 38, Type (0, 0), BuildingBlock: XIVTED_clean_linker_0, # of connection points: 2
#     Edge 39, Type (0, 0), BuildingBlock: XIVTED_clean_linker_0, # of connection points: 2
#     Edge 40, Type (0, 0), BuildingBlock: XIVTED_clean_linker_0, # of connection points: 2
#     Edge 41, Type (0, 0), BuildingBlock: XIVTED_clean_linker_0, # of connection points: 2
#     Edge 42, Type (0, 0), BuildingBlock: XIVTED_clean_linker_0, # of connection points: 2
#     Edge 43, Type (0, 0), BuildingBlock: XIVTED_clean_linker_0, # of connection points: 2
#     Edge 44, Type (0, 0), BuildingBlock: XIVTED_clean_linker_0, # of connection points: 2
#     Edge 45, Type (0, 0), BuildingBlock: XIVTED_clean_linker_0, # of connection points: 2
#     Edge 46, Type (0, 0), BuildingBlock: XIVTED_clean_linker_0, # of connection points: 2
#     Edge 47, Type (0, 0), BuildingBlock: XIVTED_clean_linker_0, # of connection points: 2
# Relax obj value: 0.096
# Max RMSD: 0.145
# Mean RMSD: 0.145
data_MOF--net-neb--node1-AZAVOO_clean_sbu_0--edge1-XIVTED_clean_linker_0
_symmetry_space_group_name_H-M    P1
_symmetry_Int_Tables_number       1
_symmetry_cell_setting            triclinic
loop_
_symmetry_equiv_pos_as_xyz
'x, y, z'
_cell_length_a     49.18639
_cell_length_b     20.54638
_cell_length_c     73.844674
_cell_angle_alpha  99.541045
_cell_angle_beta   89.782028
_cell_angle_gamma 90.105061
loop_
_atom_site_label
_atom_site_type_symbol
_atom_site_fract_x
_atom_site_fract_y
_atom_site_fract_z
_atom_type_partial_charge
Mg0 Mg 0.11011 0.19079 0.43994 0.0
O1 O 0.11868 0.1048 0.41641 0.0
O2 O 0.14642 0.1403 0.3961 0.0
Mg3 Mg 0.15722 0.24774 0.4074 0.0
C4 C 0.13212 0.09501 0.40138 0.0
C5 C 0.06584 0.13897 0.4621 0.0
O6 O 0.05756 0.19849 0.46048 0.0
O7 O 0.15183 0.17751 0.45244 0.0
O8 O 0.17857 0.21694 0.43216 0.0
O9 O 0.0765 0.22692 0.42365 0.0
O10 O 0.11936 0.25913 0.42338 0.0
C11 C 0.1753 0.19313 0.44695 0.0
C12 C 0.09506 0.2617 0.41724 0.0
O13 O 0.08891 0.11954 0.45557 0.0
Mg14 Mg 0.09684 0.04388 0.78957 0.0
O15 O 0.1102 0.13392 0.81073 0.0
O16 O 0.13591 0.0959 0.8316 0.0
Mg17 Mg 0.13957 0.98382 0.82366 0.0
C18 C 0.12438 0.14333 0.82542 0.0
C19 C 0.05945 0.08782 0.76238 0.0
O20 O 0.05174 0.02751 0.76371 0.0
O21 O 0.13889 0.03668 0.77644 0.0
O22 O 0.16313 -0.00538 0.79732 0.0
O23 O 0.06068 0.02995 0.80681 0.0
O24 O 0.10095 0.98344 0.80898 0.0
C25 C 0.1611 0.01402 0.7818 0.0
C26 C 0.0766 -0.00545 0.81511 0.0
O27 O 0.08053 0.1112 0.771 0.0
Mg28 Mg 0.90232 0.78666 0.54065 0.0
O29 O 0.88872 0.87575 0.56202 0.0
O30 O 0.86397 0.83661 0.5833 0.0
Mg31 Mg 0.86108 0.72433 0.57537 0.0
C32 C 0.87488 0.88456 0.57691 0.0
C33 C 0.93866 0.83391 0.51307 0.0
O34 O 0.94751 0.77466 0.5145 0.0
O35 O 0.85991 0.77734 0.5283 0.0
O36 O 0.83646 0.73445 0.54954 0.0
O37 O 0.93903 0.77433 0.55742 0.0
O38 O 0.8992 0.72571 0.55997 0.0
C39 C 0.83796 0.754 0.53401 0.0
C40 C 0.92358 0.73784 0.56582 0.0
O41 O 0.91738 0.85529 0.52186 0.0
Mg42 Mg 0.89116 0.90975 0.18306 0.0
O43 O 0.87994 0.81622 0.1624 0.0
O44 O 0.85276 0.84903 0.14143 0.0
Mg45 Mg 0.84642 0.96057 0.14846 0.0
C46 C 0.86568 0.80392 0.14777 0.0
C47 C 0.93009 0.8737 0.21077 0.0
O48 O 0.93673 0.93412 0.20881 0.0
O49 O 0.84908 0.9129 0.19623 0.0
O50 O 0.82372 0.9505 0.17512 0.0
O51 O 0.92688 0.92771 0.16582 0.0
O52 O 0.8854 0.96661 0.16291 0.0
C53 C 0.82639 0.93291 0.19082 0.0
C54 C 0.90999 0.9587 0.15693 0.0
O55 O 0.90932 0.84728 0.20238 0.0
Mg56 Mg 0.10683 0.68918 0.93993 0.0
O57 O 0.11609 0.60541 0.9161 0.0
O58 O 0.14167 0.64492 0.89535 0.0
Mg59 Mg 0.14968 0.75436 0.90658 0.0
C60 C 0.12893 0.59757 0.90084 0.0
C61 C 0.06785 0.63684 0.96525 0.0
O62 O 0.06083 0.69881 0.96577 0.0
O63 O 0.14955 0.68224 0.95123 0.0
O64 O 0.1739 0.72802 0.93093 0.0
O65 O 0.071 0.72021 0.92492 0.0
O66 O 0.11273 0.75959 0.9235 0.0
C67 C 0.17212 0.7029 0.94563 0.0
C68 C 0.08781 0.75893 0.91834 0.0
O69 O 0.08875 0.61523 0.95603 0.0
Mg70 Mg 0.11126 0.54871 0.28409 0.0
O71 O 0.11989 0.63738 0.30686 0.0
O72 O 0.14836 0.60447 0.32703 0.0
Mg73 Mg 0.15948 0.49677 0.31652 0.0
C74 C 0.13369 0.64874 0.32167 0.0
C75 C 0.06666 0.59151 0.26122 0.0
O76 O 0.06058 0.5305 0.26291 0.0
O77 O 0.15256 0.56128 0.27062 0.0
O78 O 0.17979 0.52427 0.29089 0.0
O79 O 0.07825 0.51355 0.30126 0.0
O80 O 0.12127 0.48295 0.30124 0.0
C81 C 0.17617 0.54615 0.27586 0.0
C82 C 0.09712 0.48023 0.30774 0.0
O83 O 0.08885 0.61612 0.26797 0.0
Mg84 Mg 0.89599 0.26561 0.03155 0.0
O85 O 0.88613 0.34631 0.05606 0.0
O86 O 0.85968 0.3041 0.07585 0.0
Mg87 Mg 0.85138 0.19615 0.06317 0.0
C88 C 0.8728 0.35225 0.07111 0.0
C89 C 0.93697 0.32108 0.00828 0.0
O90 O 0.94375 0.25884 0.00753 0.0
O91 O 0.85372 0.27617 0.01967 0.0
O92 O 0.82848 0.22867 0.03918 0.0
O93 O 0.93082 0.22995 0.0468 0.0
O94 O 0.88865 0.19213 0.04667 0.0
C95 C 0.83082 0.25603 0.02491 0.0
C96 C 0.91327 0.19033 0.05227 0.0
O97 O 0.91551 0.34207 0.01693 0.0
Mg98 Mg 0.88581 0.43402 0.69035 0.0
O99 O 0.87787 0.34939 0.66656 0.0
O100 O 0.85271 0.38674 0.6454 0.0
Mg101 Mg 0.84351 0.49575 0.6564 0.0
C102 C 0.8656 0.34037 0.65116 0.0
C103 C 0.92558 0.38368 0.71495 0.0
O104 O 0.93258 0.44527 0.71467 0.0
O105 O 0.84287 0.42466 0.70129 0.0
O106 O 0.8188 0.46807 0.68054 0.0
O107 O 0.92182 0.4664 0.67566 0.0
O108 O 0.87995 0.50396 0.67372 0.0
C109 C 0.82031 0.44347 0.69533 0.0
C110 C 0.90506 0.50428 0.66884 0.0
O111 O 0.90412 0.36136 0.70661 0.0
Mg112 Mg 0.60445 0.1958 0.93594 0.0
O113 O 0.61336 0.11039 0.91252 0.0
O114 O 0.63861 0.14764 0.89123 0.0
Mg115 Mg 0.64663 0.25771 0.90169 0.0
C116 C 0.62597 0.10106 0.89718 0.0
C117 C 0.56537 0.14361 0.9613 0.0
O118 O 0.55705 0.20399 0.96074 0.0
O119 O 0.64739 0.19009 0.94692 0.0
O120 O 0.67149 0.2338 0.9261 0.0
O121 O 0.56828 0.22521 0.92098 0.0
O122 O 0.60992 0.26457 0.91895 0.0
C123 C 0.66988 0.21008 0.94103 0.0
C124 C 0.58488 0.26343 0.91402 0.0
O125 O 0.58699 0.12325 0.95274 0.0
Mg126 Mg 0.61196 0.06553 0.29292 0.0
O127 O 0.62292 0.16278 0.31188 0.0
O128 O 0.6543 0.13941 0.33172 0.0
Mg129 Mg 0.66087 0.02764 0.32693 0.0
C130 C 0.63918 0.18049 0.32527 0.0
C131 C 0.56832 0.10002 0.26753 0.0
O132 O 0.56005 0.04365 0.27183 0.0
O133 O 0.65298 0.06256 0.27801 0.0
O134 O 0.68056 0.03159 0.29902 0.0
O135 O 0.57824 0.0492 0.3119 0.0
O136 O 0.62066 0.01496 0.31402 0.0
C137 C 0.67636 0.04507 0.28299 0.0
C138 C 0.59651 0.02239 0.32082 0.0
O139 O 0.59127 0.12284 0.27332 0.0
Mg140 Mg 0.39916 0.77796 0.03515 0.0
O141 O 0.38878 0.86105 0.05891 0.0
O142 O 0.3629 0.82038 0.07929 0.0
Mg143 Mg 0.35581 0.71071 0.06788 0.0
C144 C 0.37549 0.86829 0.07399 0.0
C145 C 0.43929 0.8333 0.01124 0.0
O146 O 0.44754 0.77277 0.01166 0.0
O147 O 0.35667 0.78349 0.02328 0.0
O148 O 0.33214 0.73674 0.04329 0.0
O149 O 0.43471 0.74772 0.05066 0.0
O150 O 0.39311 0.70699 0.05136 0.0
C151 C 0.33409 0.76206 0.02864 0.0
C152 C 0.41787 0.70813 0.05685 0.0
O153 O 0.41727 0.85291 0.01938 0.0
Mg154 Mg 0.38502 0.94213 0.68926 0.0
O155 O 0.37667 0.85705 0.66569 0.0
O156 O 0.35081 0.89352 0.64472 0.0
Mg157 Mg 0.34164 0.00262 0.65568 0.0
C158 C 0.36401 0.8475 0.65043 0.0
C159 C 0.42527 0.89278 0.71375 0.0
O160 O 0.43181 0.9548 0.71371 0.0
O161 O 0.34242 0.9326 0.70067 0.0
O162 O 0.31757 0.97538 0.6802 0.0
O163 O 0.42061 0.97404 0.67417 0.0
O164 O 0.37866 0.01146 0.67249 0.0
C165 C 0.31962 0.95106 0.695 0.0
C166 C 0.40367 0.01146 0.66734 0.0
O167 O 0.4039 0.86995 0.70541 0.0
Mg168 Mg 0.60982 0.70557 0.44502 0.0
O169 O 0.61824 0.62882 0.41922 0.0
O170 O 0.64835 0.67151 0.4017 0.0
Mg171 Mg 0.65735 0.77748 0.41555 0.0
C172 C 0.63316 0.62422 0.40488 0.0
C173 C 0.56561 0.64815 0.46537 0.0
O174 O 0.55899 0.71036 0.46589 0.0
O175 O 0.65157 0.68676 0.45696 0.0
O176 O 0.67825 0.73729 0.43892 0.0
O177 O 0.57634 0.74893 0.43039 0.0
O178 O 0.61923 0.78172 0.43119 0.0
C179 C 0.67498 0.70621 0.45239 0.0
C180 C 0.59488 0.78711 0.42539 0.0
O181 O 0.58806 0.62768 0.45799 0.0
Mg182 Mg 0.59456 0.54564 0.78582 0.0
O183 O 0.60735 0.63619 0.80693 0.0
O184 O 0.63178 0.59938 0.82861 0.0
Mg185 Mg 0.63531 0.48705 0.82112 0.0
C186 C 0.62081 0.6464 0.82191 0.0
C187 C 0.55929 0.58843 0.75724 0.0
O188 O 0.552 0.52727 0.75788 0.0
O189 O 0.63715 0.53718 0.77357 0.0
O190 O 0.66022 0.49613 0.79517 0.0
O191 O 0.55757 0.53311 0.80242 0.0
O192 O 0.59748 0.48599 0.80549 0.0
C193 C 0.659 0.51463 0.77949 0.0
C194 C 0.5729 0.49764 0.8111 0.0
O195 O 0.57946 0.61252 0.76676 0.0
Mg196 Mg 0.39875 0.29348 0.5388 0.0
O197 O 0.38526 0.38424 0.55967 0.0
O198 O 0.36024 0.34719 0.58119 0.0
Mg199 Mg 0.35702 0.23484 0.57393 0.0
C200 C 0.37135 0.39431 0.57454 0.0
C201 C 0.43496 0.33694 0.51033 0.0
O202 O 0.44296 0.2767 0.5114 0.0
O203 O 0.35641 0.28368 0.52625 0.0
O204 O 0.33279 0.24305 0.54782 0.0
O205 O 0.43525 0.28203 0.55586 0.0
O206 O 0.39524 0.23452 0.55861 0.0
C207 C 0.3344 0.26109 0.53209 0.0
C208 C 0.41959 0.2468 0.5645 0.0
O209 O 0.41431 0.36002 0.51959 0.0
Mg210 Mg 0.40037 0.42422 0.18495 0.0
O211 O 0.38779 0.33357 0.1638 0.0
O212 O 0.36351 0.37082 0.14212 0.0
Mg213 Mg 0.36007 0.48315 0.14947 0.0
C214 C 0.37442 0.32364 0.14878 0.0
C215 C 0.43628 0.38178 0.21289 0.0
O216 O 0.44421 0.44141 0.211 0.0
O217 O 0.35763 0.43355 0.19698 0.0
O218 O 0.33484 0.4753 0.17538 0.0
O219 O 0.43763 0.43652 0.16859 0.0
O220 O 0.39782 0.48355 0.16517 0.0
C221 C 0.33592 0.45682 0.19106 0.0
C222 C 0.42247 0.47181 0.15974 0.0
O223 O 0.41526 0.35784 0.2043 0.0
H224 H 0.28317 0.2216 0.5403 0.0
H225 H 0.22857 0.20773 0.43794 0.0
H226 H 0.33101 0.27571 0.4959 0.0
H227 H 0.17699 0.17557 0.48311 0.0
H228 H 0.26728 0.22197 0.45861 0.0
H229 H 0.24483 0.19732 0.51937 0.0
C230 C 0.28562 0.22872 0.52618 0.0
C231 C 0.31043 0.25086 0.51988 0.0
C232 C 0.24755 0.21143 0.46401 0.0
C233 C 0.26659 0.22236 0.4958 0.0
C234 C 0.22539 0.20295 0.45219 0.0
C235 C 0.19935 0.19106 0.45882 0.0
C236 C 0.24378 0.20813 0.48267 0.0
C237 C 0.19664 0.1848 0.47739 0.0
C238 C 0.2637 0.21461 0.51423 0.0
C239 C 0.31231 0.25904 0.50142 0.0
N240 N 0.21857 0.19398 0.48872 0.0
N241 N 0.29072 0.24462 0.49004 0.0
H242 H 0.92911 0.96316 0.51006 0.0
H243 H 0.07433 0.00895 0.46449 0.0
H244 H 0.98668 0.80488 0.49491 0.0
H245 H 0.01528 0.16541 0.47694 0.0
H246 H 0.04237 0.93341 0.47564 0.0
H247 H 0.95988 0.03764 0.49733 0.0
C248 C 0.94809 0.9439 0.5039 0.0
C249 C 0.95541 0.87779 0.50364 0.0
C250 C 0.03641 0.98429 0.47594 0.0
C251 C 0.99082 0.96282 0.48925 0.0
C252 C 0.05471 0.02751 0.46967 0.0
C253 C 0.04747 0.09359 0.4698 0.0
C254 C 0.01071 0.00732 0.48244 0.0
C255 C 0.02172 0.11487 0.47659 0.0
C256 C 0.9657 0.9865 0.4967 0.0
C257 C 0.98025 0.85553 0.49548 0.0
N258 N 0.00427 0.07184 0.48263 0.0
N259 N 0.99713 0.89806 0.48871 0.0
H260 H 0.26744 0.98344 0.68726 0.0
H261 H 0.21196 0.96932 0.78845 0.0
H262 H 0.31604 0.9206 0.7298 0.0
H263 H 0.16434 0.03779 0.74631 0.0
H264 H 0.24983 0.94814 0.76692 0.0
H265 H 0.22875 -0.00238 0.70821 0.0
C266 C 0.26996 0.97195 0.70095 0.0
C267 C 0.29518 0.9512 0.70679 0.0
C268 C 0.23112 0.96788 0.76239 0.0
C269 C 0.25084 0.9681 0.73096 0.0
C270 C 0.20946 0.98027 0.7747 0.0
C271 C 0.18483 0.00546 0.76922 0.0
C272 C 0.22822 0.98065 0.74441 0.0
C273 C 0.1829 0.01852 0.7512 0.0
C274 C 0.24782 0.98037 0.71294 0.0
C275 C 0.29706 0.93684 0.72468 0.0
N276 N 0.20428 0.00584 0.73944 0.0
N277 N 0.27524 0.94601 0.73617 0.0
H278 H 0.06598 0.21902 0.76053 0.0
H279 H 0.92026 0.25076 0.71487 0.0
H280 H 0.01176 0.05421 0.7444 0.0
H281 H 0.97391 0.41579 0.73218 0.0
H282 H 0.95373 0.17749 0.72529 0.0
H283 H 0.0332 0.29122 0.74901 0.0
C284 C 0.04732 0.19788 0.75439 0.0
C285 C 0.04153 0.13057 0.75351 0.0
C286 C 0.95813 0.22978 0.72685 0.0
C287 C 0.0038 0.21298 0.74051 0.0
C288 C 0.93897 0.27166 0.72099 0.0
C289 C 0.94431 0.33947 0.72265 0.0
C290 C 0.9828 0.25593 0.73439 0.0
C291 C 0.96893 0.36383 0.73062 0.0
C292 C 0.02854 0.23919 0.74791 0.0
C293 C 0.01702 0.10587 0.74543 0.0
N294 N 0.98729 0.32205 0.73615 0.0
N295 N 0.99898 0.14715 0.73933 0.0
H296 H 0.83421 0.77498 0.4984 0.0
H297 H 0.67683 0.67779 0.48757 0.0
H298 H 0.78687 0.71209 0.54179 0.0
H299 H 0.72814 0.72041 0.4434 0.0
H300 H 0.71683 0.68564 0.50755 0.0
H301 H 0.79506 0.75448 0.47814 0.0
C302 C 0.81556 0.75719 0.50372 0.0
C303 C 0.81388 0.74538 0.52186 0.0
C304 C 0.7193 0.69261 0.49342 0.0
C305 C 0.7689 0.72123 0.49863 0.0
C306 C 0.69652 0.68766 0.48199 0.0
C307 C 0.69906 0.6992 0.46385 0.0
C308 C 0.74469 0.70928 0.48663 0.0
C309 C 0.72509 0.71203 0.45736 0.0
C310 C 0.79322 0.74507 0.49209 0.0
C311 C 0.78913 0.72195 0.52792 0.0
N312 N 0.74677 0.71729 0.46877 0.0
N313 N 0.7676 0.71075 0.51633 0.0
H314 H 0.72914 0.01446 0.28931 0.0
H315 H 0.77431 0.96912 0.18391 0.0
H316 H 0.67513 0.04848 0.24585 0.0
H317 H 0.82534 0.92137 0.22734 0.0
H318 H 0.73779 -0.00136 0.20618 0.0
H319 H 0.76493 0.98393 0.26674 0.0
C320 C 0.72481 0.01603 0.27502 0.0
C321 C 0.69894 0.03389 0.2695 0.0
C322 C 0.75692 0.98135 0.21081 0.0
C323 C 0.74005 -0.00182 0.24345 0.0
C324 C 0.7778 0.9642 0.19809 0.0
C325 C 0.80307 0.94291 0.20374 0.0
C326 C 0.7613 0.97751 0.22937 0.0
C327 C 0.80627 0.93748 0.22231 0.0
C328 C 0.7453 -0.00178 0.26211 0.0
C329 C 0.69472 0.03513 0.25076 0.0
N330 N 0.7857 0.95507 0.23446 0.0
N331 N 0.71504 0.01723 0.23839 0.0
H332 H 0.97711 0.91456 0.22873 0.0
H333 H 0.01751 0.55309 0.24599 0.0
H334 H 0.92589 0.74312 0.2141 0.0
H335 H 0.06996 0.72312 0.25887 0.0
H336 H 0.98323 0.62251 0.23497 0.0
H337 H 0.01036 0.84628 0.24125 0.0
C338 C 0.97272 0.86265 0.2283 0.0
C339 C 0.94873 0.83442 0.22026 0.0
C340 C 0.00225 0.64466 0.24017 0.0
C341 C 0.98688 0.75583 0.23441 0.0
C342 C 0.0219 0.60499 0.24641 0.0
C343 C 0.04666 0.63235 0.25335 0.0
C344 C 0.00736 0.71227 0.24089 0.0
C345 C 0.05118 0.69993 0.25359 0.0
C346 C 0.99179 0.82363 0.23539 0.0
C347 C 0.94413 0.76693 0.22013 0.0
N348 N 0.03167 0.73762 0.24748 0.0
N349 N 0.96312 0.72985 0.227 0.0
H350 H 0.33042 0.7938 -0.00601 0.0
H351 H 0.17621 0.66976 0.98007 0.0
H352 H 0.28252 0.72328 0.03595 0.0
H353 H 0.22363 0.742 0.93818 0.0
H354 H 0.21542 0.68663 0.00051 0.0
H355 H 0.29133 0.77647 0.97341 0.0
C356 C 0.31164 0.77538 -0.00104 0.0
C357 C 0.30985 0.75974 0.01672 0.0
C358 C 0.21727 0.69851 0.98681 0.0
C359 C 0.26515 0.73892 -0.00686 0.0
C360 C 0.19492 0.68846 0.97508 0.0
C361 C 0.19652 0.70474 0.95738 0.0
C362 C 0.2414 0.72505 0.98082 0.0
C363 C 0.22134 0.72898 0.95172 0.0
C364 C 0.28937 0.76507 0.98715 0.0
C365 C 0.28496 0.73579 0.02236 0.0
N366 N 0.24273 0.73869 0.96342 0.0
N367 N 0.26367 0.72585 0.01059 0.0
H368 H 0.02107 0.6674 0.98483 0.0
H369 H 0.98453 0.2912 -0.01039 0.0
H370 H 0.0729 0.50304 0.96332 0.0
H371 H 0.93234 0.45525 0.01078 0.0
H372 H 0.01714 0.36816 0.97991 0.0
H373 H 0.98887 0.59072 -0.00487 0.0
C374 C 0.0258 0.6152 0.9824 0.0
C375 C 0.04968 0.59155 0.97314 0.0
C376 C 0.99853 0.38736 0.98663 0.0
C377 C 0.01274 0.50343 0.98475 0.0
C378 C 0.97983 0.34342 -0.00788 0.0
C379 C 0.95568 0.36686 0.00104 0.0
C380 C 0.99308 0.45532 -0.0099 0.0
C381 C 0.95069 0.43502 0.00392 0.0
C382 C 0.00733 0.57142 -0.01178 0.0
C383 C 0.05474 0.52344 0.97039 0.0
N384 N 0.96929 0.4769 -0.00149 0.0
N385 N 0.03635 0.48172 0.9761 0.0
H386 H 0.33196 0.44176 0.22717 0.0
H387 H 0.17699 0.55875 0.23925 0.0
H388 H 0.28519 0.49972 0.18308 0.0
H389 H 0.22951 0.53016 0.28401 0.0
H390 H 0.21589 0.53821 0.21823 0.0
H391 H 0.29353 0.47055 0.24784 0.0
C392 C 0.31355 0.46002 0.22177 0.0
C393 C 0.31189 0.46833 0.20333 0.0
C394 C 0.21887 0.53708 0.23269 0.0
C395 C 0.26776 0.50216 0.22705 0.0
C396 C 0.19672 0.54927 0.24472 0.0
C397 C 0.19988 0.54556 0.26341 0.0
C398 C 0.24424 0.52085 0.23943 0.0
C399 C 0.22595 0.53283 0.2697 0.0
C400 C 0.29164 0.47697 0.23364 0.0
C401 C 0.28745 0.49255 0.19719 0.0
N402 N 0.247 0.52036 0.25773 0.0
N403 N 0.26635 0.50862 0.20902 0.0
H404 H 0.72161 0.24613 0.93289 0.0
H405 H 0.77828 0.22914 0.03328 0.0
H406 H 0.67409 0.18123 0.9759 0.0
H407 H 0.82782 0.28449 -0.01016 0.0
H408 H 0.73944 0.21656 0.01271 0.0
H409 H 0.76056 0.26193 0.9535 0.0
C410 C 0.71938 0.23462 0.94661 0.0
C411 C 0.69442 0.21244 0.95266 0.0
C412 C 0.75875 0.23175 0.00767 0.0
C413 C 0.73898 0.23127 0.97641 0.0
C414 C 0.78098 0.23928 0.01945 0.0
C415 C 0.80649 0.2575 0.01326 0.0
C416 C 0.76193 0.24238 -0.0105 0.0
C417 C 0.80859 0.27033 -0.00479 0.0
C418 C 0.74165 0.24398 0.9584 0.0
C419 C 0.69286 0.19834 0.9706 0.0
N420 N 0.78662 0.2621 0.98392 0.0
N421 N 0.71479 0.20831 0.98185 0.0
H422 H 0.70939 0.47001 0.78734 0.0
H423 H 0.76839 0.47372 0.68648 0.0
H424 H 0.66378 0.53549 0.74383 0.0
H425 H 0.81562 0.41627 0.73044 0.0
H426 H 0.72906 0.48977 0.70684 0.0
H427 H 0.74799 0.44641 0.76649 0.0
C428 C 0.70749 0.47981 0.77344 0.0
C429 C 0.68321 0.50486 0.76736 0.0
C430 C 0.74797 0.47328 0.71202 0.0
C431 C 0.72739 0.47722 0.74334 0.0
C432 C 0.77047 0.46378 0.70037 0.0
C433 C 0.7955 0.44405 0.70678 0.0
C434 C 0.75042 0.46315 0.73027 0.0
C435 C 0.7968 0.43164 0.72489 0.0
C436 C 0.72956 0.46604 0.76151 0.0
C437 C 0.68205 0.5164 0.74917 0.0
N438 N 0.77462 0.44187 0.73604 0.0
N439 N 0.7038 0.50235 0.7378 0.0
H440 H 0.57411 0.01271 0.96251 0.0
H441 H 0.43085 0.96473 0.01053 0.0
H442 H 0.51706 0.17097 0.97926 0.0
H443 H 0.48804 0.80677 -0.00617 0.0
H444 H 0.46209 0.04116 -0.00097 0.0
H445 H 0.54315 0.93679 0.97445 0.0
C446 C 0.55517 0.0316 0.96883 0.0
C447 C 0.54812 0.09822 0.96985 0.0
C448 C 0.46776 -0.01027 -0.00216 0.0
C449 C 0.51249 0.01156 0.98337 0.0
C450 C 0.44988 0.94603 0.00434 0.0
C451 C 0.45687 0.8793 0.00316 0.0
C452 C 0.49279 0.96649 -0.00988 0.0
C453 C 0.48183 0.85782 -0.00496 0.0
C454 C 0.53745 0.98818 0.97558 0.0
C455 C 0.52331 0.11996 0.97815 0.0
N456 N 0.49891 0.90132 -0.01112 0.0
N457 N 0.50634 0.07669 0.98453 0.0
H458 H 0.42884 0.25246 0.21692 0.0
H459 H 0.57621 0.22546 0.26059 0.0
H460 H 0.48425 0.41658 0.23022 0.0
H461 H 0.51769 0.06639 0.25384 0.0
H462 H 0.54329 0.29446 0.24801 0.0
H463 H 0.46119 0.18236 0.22982 0.0
C464 C 0.44766 0.27391 0.22272 0.0
C465 C 0.45391 0.3404 0.22243 0.0
C466 C 0.53766 0.24441 0.24924 0.0
C467 C 0.49109 0.26043 0.23695 0.0
C468 C 0.55652 0.20484 0.25632 0.0
C469 C 0.54966 0.14012 0.25832 0.0
C470 C 0.51178 0.21906 0.24407 0.0
C471 C 0.52382 0.11607 0.25258 0.0
C472 C 0.46616 0.23383 0.23 0.0
C473 C 0.47861 0.36556 0.23009 0.0
N474 N 0.50578 0.15562 0.24575 0.0
N475 N 0.49635 0.32546 0.23693 0.0
H476 H 0.47306 0.92627 0.73158 0.0
H477 H 0.51331 0.55347 0.73733 0.0
H478 H 0.42176 0.75873 0.71202 0.0
H479 H 0.56402 0.72147 0.75754 0.0
H480 H 0.4805 0.6274 0.72667 0.0
H481 H 0.5069 0.85174 0.74079 0.0
C482 C 0.46881 0.87381 0.72935 0.0
C483 C 0.44455 0.84866 0.72101 0.0
C484 C 0.49887 0.64807 0.73333 0.0
C485 C 0.48337 0.76297 0.73135 0.0
C486 C 0.51771 0.60585 0.73935 0.0
C487 C 0.54136 0.6314 0.74846 0.0
C488 C 0.50371 0.71635 0.73648 0.0
C489 C 0.54602 0.69964 0.75064 0.0
C490 C 0.48822 0.83125 0.73454 0.0
C491 C 0.44016 0.78026 0.71844 0.0
N492 N 0.52724 0.73982 0.74481 0.0
N493 N 0.45944 0.73975 0.72355 0.0
H494 H 0.48167 0.30415 0.49081 0.0
H495 H 0.51596 0.6774 0.4812 0.0
H496 H 0.42807 0.46839 0.50903 0.0
H497 H 0.57049 0.51431 0.46386 0.0
H498 H 0.48279 0.6007 0.49034 0.0
H499 H 0.51318 0.37914 0.47906 0.0
C500 C 0.47637 0.35588 0.49217 0.0
C501 C 0.45229 0.38014 0.50104 0.0
C502 C 0.502 0.58161 0.48455 0.0
C503 C 0.48842 0.46633 0.48778 0.0
C504 C 0.52102 0.62543 0.47938 0.0
C505 C 0.54609 0.60224 0.4718 0.0
C506 C 0.50804 0.51399 0.48212 0.0
C507 C 0.55146 0.53436 0.46971 0.0
C508 C 0.49445 0.39871 0.48551 0.0
C509 C 0.44645 0.44757 0.50235 0.0
N510 N 0.53257 0.49258 0.47485 0.0
N511 N 0.4645 0.48839 0.49591 0.0
H512 H 0.12154 0.76695 0.31096 0.0
H513 H 0.12093 0.97597 0.41187 0.0
H514 H 0.14303 0.68149 0.35854 0.0
H515 H 0.14123 0.06372 0.36434 0.0
H516 H 0.12061 0.86701 0.39238 0.0
H517 H 0.12041 0.87627 0.33032 0.0
C518 C 0.1259 0.77113 0.32547 0.0
C519 C 0.13252 0.71508 0.33314 0.0
C520 C 0.1251 0.91023 0.38626 0.0
C521 C 0.13086 0.83953 0.35532 0.0
C522 C 0.12518 0.97237 0.39733 0.0
C523 C 0.13124 0.02898 0.38973 0.0
C524 C 0.13054 0.90478 0.36739 0.0
C525 C 0.13667 0.02133 0.3708 0.0
C526 C 0.12537 0.83346 0.33647 0.0
C527 C 0.13806 0.72343 0.35203 0.0
N528 N 0.13602 0.96042 0.36025 0.0
N529 N 0.13693 0.78439 0.3625 0.0
H530 H 0.04976 0.25864 0.39499 0.0
H531 H 0.1317 0.39581 0.32021 0.0
H532 H 0.12849 0.35044 0.40547 0.0
H533 H 0.05149 0.48022 0.32978 0.0
H534 H 0.12662 0.34448 0.34733 0.0
H535 H 0.04557 0.31288 0.36762 0.0
C536 C 0.06595 0.29051 0.39167 0.0
C537 C 0.08985 0.2987 0.40218 0.0
C538 C 0.11009 0.37401 0.3434 0.0
C539 C 0.08521 0.35925 0.37134 0.0
C540 C 0.11298 0.40367 0.32801 0.0
C541 C 0.0923 0.44405 0.32306 0.0
C542 C 0.08624 0.38379 0.35384 0.0
C543 C 0.06806 0.45024 0.33336 0.0
C544 C 0.06348 0.32133 0.37619 0.0
C545 C 0.1101 0.34098 0.39746 0.0
N546 N 0.06568 0.42061 0.3485 0.0
N547 N 0.10752 0.36871 0.38222 0.0
H548 H 0.13652 0.17758 0.8618 0.0
H549 H 0.13826 0.56615 0.86372 0.0
H550 H 0.11668 0.26256 0.81383 0.0
H551 H 0.11984 0.47809 0.9115 0.0
H552 H 0.13778 0.45579 0.84489 0.0
H553 H 0.1382 0.28838 0.87992 0.0
C554 C 0.13272 0.21956 0.85503 0.0
C555 C 0.12643 0.21071 0.83624 0.0
C556 C 0.13384 0.46086 0.8595 0.0
C557 C 0.12848 0.3378 0.85696 0.0
C558 C 0.13423 0.52366 0.87027 0.0
C559 C 0.12904 0.53138 0.88922 0.0
C560 C 0.12879 0.40533 0.86782 0.0
C561 C 0.1238 0.47456 0.89694 0.0
C562 C 0.13353 0.28274 0.86542 0.0
C563 C 0.12149 0.26708 0.82828 0.0
N564 N 0.12401 0.41398 0.88624 0.0
N565 N 0.12276 0.32834 0.83866 0.0
H566 H 0.04475 0.74192 0.8943 0.0
H567 H 0.09294 0.04966 0.8489 0.0
H568 H 0.11161 0.87213 0.91274 0.0
H569 H 0.04361 0.89269 0.82011 0.0
H570 H 0.08864 0.00125 0.87683 0.0
H571 H 0.03417 0.81098 0.87096 0.0
C572 C 0.05694 0.78535 0.89355 0.0
C573 C 0.07935 0.80095 0.90514 0.0
C574 C 0.07832 0.97786 0.86451 0.0
C575 C 0.06718 0.87998 0.87906 0.0
C576 C 0.08072 0.00563 0.84866 0.0
C577 C 0.06876 0.97446 0.8324 0.0
C578 C 0.06433 0.91786 0.86388 0.0
C579 C 0.05306 0.91772 0.83257 0.0
C580 C 0.05091 0.82459 0.88032 0.0
C581 C 0.09447 0.85774 0.9038 0.0
N582 N 0.05162 0.89031 0.84808 0.0
N583 N 0.08817 0.89501 0.89095 0.0
H584 H 0.85702 0.30692 0.61403 0.0
H585 H 0.86292 0.91918 0.61339 0.0
H586 H 0.8758 0.2222 0.66223 0.0
H587 H 0.8812 0.00359 0.56495 0.0
H588 H 0.86018 0.03032 0.63123 0.0
H589 H 0.85876 0.19609 0.59553 0.0
C590 C 0.8614 0.26507 0.62074 0.0
C591 C 0.86631 0.27388 0.63972 0.0
C592 C 0.86476 0.02448 0.6167 0.0
C593 C 0.86801 0.14726 0.61868 0.0
C594 C 0.86617 0.96109 0.60646 0.0
C595 C 0.87232 0.952 0.58763 0.0
C596 C 0.86906 0.07945 0.60802 0.0
C597 C 0.87653 0.0083 0.57945 0.0
C598 C 0.86251 0.20199 0.61016 0.0
C599 C 0.87202 0.21785 0.64764 0.0
N600 N 0.87467 0.06971 0.58968 0.0
N601 N 0.87253 0.15696 0.63712 0.0
H602 H 0.88156 0.61773 0.66332 0.0
H603 H 0.95526 0.63351 0.57022 0.0
H604 H 0.94872 0.48812 0.64517 0.0
H605 H 0.90885 0.79452 0.59988 0.0
H606 H 0.9575 0.58355 0.5982 0.0
H607 H 0.89414 0.68645 0.64086 0.0
C608 C 0.89905 0.60389 0.65457 0.0
C609 C 0.91392 0.54683 0.65584 0.0
C610 C 0.94754 0.63078 0.59873 0.0
C611 C 0.92844 0.62512 0.62999 0.0
C612 C 0.94639 0.65926 0.58284 0.0
C613 C 0.93178 0.71768 0.58298 0.0
C614 C 0.9335 0.66081 0.61453 0.0
C615 C 0.92017 0.74913 0.59938 0.0
C616 C 0.90641 0.64348 0.64186 0.0
C617 C 0.93667 0.53164 0.64444 0.0
N618 N 0.92092 0.71976 0.61449 0.0
N619 N 0.94301 0.57006 0.63168 0.0
H620 H 0.86226 0.38012 0.10817 0.0
H621 H 0.85448 0.76789 0.11136 0.0
H622 H 0.8813 0.47335 0.06141 0.0
H623 H 0.87693 0.68605 0.15939 0.0
H624 H 0.85632 0.65749 0.09312 0.0
H625 H 0.86031 0.48963 0.12748 0.0
C626 C 0.866 0.42353 0.10196 0.0
C627 C 0.87198 0.41758 0.08314 0.0
C628 C 0.86079 0.66369 0.10766 0.0
C629 C 0.86936 0.54248 0.10506 0.0
C630 C 0.85956 0.72663 0.11813 0.0
C631 C 0.86555 0.73631 0.13697 0.0
C632 C 0.86758 0.60957 0.11607 0.0
C633 C 0.87226 0.68085 0.1449 0.0
C634 C 0.86499 0.48582 0.113 0.0
C635 C 0.87676 0.4755 0.07585 0.0
N636 N 0.87293 0.61965 0.13443 0.0
N637 N 0.8751 0.53547 0.08678 0.0
H638 H 0.9539 0.03221 0.14975 0.0
H639 H 0.89103 0.07138 0.05287 0.0
H640 H 0.88328 0.93067 0.12478 0.0
H641 H 0.95126 0.20582 0.08002 0.0
H642 H 0.89716 0.00116 0.07591 0.0
H643 H 0.96161 0.07904 0.12149 0.0
C644 C 0.94037 0.01899 0.13818 0.0
C645 C 0.91761 0.97896 0.13954 0.0
C646 C 0.90926 0.04567 0.07684 0.0
C647 C 0.92628 0.03101 0.10755 0.0
C648 C 0.90573 0.08579 0.0637 0.0
C649 C 0.92025 0.14493 0.06487 0.0
C650 C 0.92702 0.06549 0.09154 0.0
C651 C 0.9395 0.16073 0.07886 0.0
C652 C 0.94469 0.0457 0.12217 0.0
C653 C 0.90062 0.96277 0.12436 0.0
N654 N 0.94199 0.12171 0.09198 0.0
N655 N 0.90521 0.98917 0.10904 0.0
H656 H 0.614 0.76407 0.80936 0.0
H657 H 0.6163 0.98349 0.9088 0.0
H658 H 0.6317 0.68363 0.85843 0.0
H659 H 0.63531 0.06578 0.86013 0.0
H660 H 0.6159 0.87325 0.89025 0.0
H661 H 0.61605 0.87559 0.82746 0.0
C662 C 0.61835 0.76982 0.82391 0.0
C663 C 0.62276 0.71439 0.83238 0.0
C664 C 0.62022 0.91544 0.88365 0.0
C665 C 0.62472 0.8415 0.85313 0.0
C666 C 0.62034 0.97843 0.8942 0.0
C667 C 0.62589 0.03402 0.88602 0.0
C668 C 0.62518 0.90788 0.86468 0.0
C669 C 0.63109 0.02429 0.86703 0.0
C670 C 0.61961 0.83341 0.83419 0.0
C671 C 0.62836 0.72485 0.85128 0.0
N672 N 0.6304 0.96246 0.85697 0.0
N673 N 0.62894 0.78703 0.86103 0.0
H674 H 0.54188 0.24393 0.88998 0.0
H675 H 0.5859 0.55642 0.84527 0.0
H676 H 0.60751 0.37796 0.90847 0.0
H677 H 0.54149 0.3924 0.81536 0.0
H678 H 0.58125 0.50789 0.87319 0.0
H679 H 0.53042 0.31258 0.86669 0.0
C680 C 0.55361 0.28811 0.88925 0.0
C681 C 0.57594 0.30494 0.90083 0.0
C682 C 0.572 0.48309 0.86062 0.0
C683 C 0.5627 0.38355 0.87486 0.0
C684 C 0.57455 0.51094 0.84479 0.0
C685 C 0.56414 0.47781 0.82823 0.0
C686 C 0.55941 0.4212 0.85968 0.0
C687 C 0.54968 0.41902 0.82806 0.0
C688 C 0.54706 0.32711 0.87606 0.0
C689 C 0.59046 0.36266 0.89952 0.0
N690 N 0.54808 0.39171 0.84358 0.0
N691 N 0.58363 0.39974 0.88673 0.0
H692 H 0.68163 0.25112 0.34237 0.0
H693 H 0.59209 0.53371 0.39749 0.0
H694 H 0.59651 0.26681 0.32993 0.0
H695 H 0.67474 0.57192 0.38244 0.0
H696 H 0.59346 0.42852 0.37614 0.0
H697 H 0.68006 0.36266 0.3604 0.0
C698 C 0.66268 0.2783 0.34332 0.0
C699 C 0.63918 0.24991 0.33462 0.0
C700 C 0.61119 0.46028 0.37747 0.0
C701 C 0.63712 0.37632 0.35555 0.0
C702 C 0.61049 0.51997 0.38969 0.0
C703 C 0.63334 0.56152 0.39172 0.0
C704 C 0.63513 0.44127 0.36761 0.0
C705 C 0.65664 0.54147 0.38122 0.0
C706 C 0.66183 0.34182 0.35356 0.0
C707 C 0.61513 0.28718 0.33631 0.0
N708 N 0.65707 0.48232 0.36979 0.0
N709 N 0.61459 0.34816 0.34683 0.0
H710 H 0.55217 0.78612 0.40136 0.0
H711 H 0.62632 0.05265 0.3517 0.0
H712 H 0.62489 0.89309 0.42066 0.0
H713 H 0.5533 0.95204 0.33051 0.0
H714 H 0.62078 0.008 0.37998 0.0
H715 H 0.54711 0.85793 0.37805 0.0
C716 C 0.56682 0.82518 0.40082 0.0
C717 C 0.5893 0.83299 0.41261 0.0
C718 C 0.60575 -0.00412 0.36927 0.0
C719 C 0.58361 0.91488 0.38634 0.0
C720 C 0.60905 0.02115 0.35311 0.0
C721 C 0.59062 0.00439 0.33875 0.0
C722 C 0.58416 0.95231 0.3709 0.0
C723 C 0.56804 0.9653 0.34135 0.0
C724 C 0.56393 0.86607 0.38758 0.0
C725 C 0.6076 0.88446 0.41153 0.0
N726 N 0.56568 0.93926 0.35706 0.0
N727 N 0.60447 0.92302 0.39853 0.0
H728 H 0.36373 0.28804 0.11221 0.0
H729 H 0.36455 0.89968 0.11092 0.0
H730 H 0.38181 0.20509 0.16082 0.0
H731 H 0.3842 0.98796 0.06337 0.0
H732 H 0.36341 0.01027 0.12961 0.0
H733 H 0.36332 0.17691 0.09427 0.0
C734 C 0.36738 0.24643 0.11917 0.0
C735 C 0.37283 0.25598 0.13808 0.0
C736 C 0.36798 0.00519 0.11509 0.0
C737 C 0.37228 0.12848 0.11755 0.0
C738 C 0.36852 0.94225 0.1044 0.0
C739 C 0.37453 0.93454 0.08555 0.0
C740 C 0.37292 0.06081 0.10679 0.0
C741 C 0.37963 -0.00853 0.07785 0.0
C742 C 0.36731 0.18306 0.10887 0.0
C743 C 0.37763 0.20004 0.14627 0.0
N744 N 0.37853 0.05214 0.08847 0.0
N745 N 0.37712 0.13858 0.13597 0.0
H746 H 0.40838 0.4164 0.12548 0.0
H747 H 0.45922 0.72657 0.08225 0.0
H748 H 0.4562 0.57335 0.15574 0.0
H749 H 0.39511 0.59219 0.06088 0.0
H750 H 0.46866 0.65685 0.10562 0.0
H751 H 0.41501 0.46438 0.09767 0.0
C752 C 0.42079 0.46031 0.12607 0.0
C753 C 0.43165 0.4916 0.14269 0.0
C754 C 0.45281 0.64243 0.09561 0.0
C755 C 0.43865 0.54785 0.11134 0.0
C756 C 0.44744 0.68204 0.08235 0.0
C757 C 0.42604 0.66549 0.06995 0.0
C758 C 0.43691 0.58581 0.0961 0.0
C759 C 0.41143 0.60732 0.07047 0.0
C760 C 0.4245 0.48785 0.11029 0.0
C761 C 0.44759 0.54823 0.143 0.0
N762 N 0.41705 0.5698 0.08338 0.0
N763 N 0.45027 0.5755 0.12752 0.0
H764 H 0.37467 0.73002 0.66171 0.0
H765 H 0.37819 0.51233 0.56208 0.0
H766 H 0.35492 0.81292 0.61338 0.0
H767 H 0.35993 0.43091 0.61101 0.0
H768 H 0.37577 0.62369 0.5803 0.0
H769 H 0.37574 0.62021 0.64294 0.0
C770 C 0.37062 0.72518 0.64714 0.0
C771 C 0.36463 0.78079 0.63911 0.0
C772 C 0.37217 0.5813 0.58697 0.0
C773 C 0.36611 0.65518 0.61753 0.0
C774 C 0.37364 0.51783 0.57662 0.0
C775 C 0.36917 0.4622 0.58502 0.0
C776 C 0.36681 0.58902 0.6059 0.0
C777 C 0.36332 0.47229 0.60391 0.0
C778 C 0.37112 0.66245 0.63646 0.0
C779 C 0.35946 0.77137 0.62015 0.0
N780 N 0.36254 0.53434 0.61373 0.0
N781 N 0.36051 0.70978 0.60996 0.0
H782 H 0.40379 0.30439 0.59826 0.0
H783 H 0.44827 -0.00339 0.6445 0.0
H784 H 0.45203 0.14467 0.56969 0.0
H785 H 0.37883 0.1216 0.66028 0.0
H786 H 0.46024 0.06595 0.62145 0.0
H787 H 0.40655 0.2554 0.62618 0.0
C788 C 0.41557 0.25983 0.59809 0.0
C789 C 0.42758 0.22796 0.58187 0.0
C790 C 0.44259 0.07831 0.63015 0.0
C791 C 0.43023 0.17083 0.61331 0.0
C792 C 0.43574 0.03889 0.64321 0.0
C793 C 0.4123 0.05301 0.654 0.0
C794 C 0.42612 0.13255 0.62829 0.0
C795 C 0.39679 0.10838 0.65197 0.0
C796 C 0.41704 0.23171 0.61392 0.0
C797 C 0.44261 0.17037 0.58212 0.0
N798 N 0.40395 0.14604 0.63933 0.0
N799 N 0.44318 0.14274 0.59761 0.0
loop_
_geom_bond_atom_site_label_1
_geom_bond_atom_site_label_2
_geom_bond_distance
_geom_bond_site_symmetry_2
_ccdc_geom_bond_type
Mg0 O1 2.028 . S
Mg0 O7 1.986 . S
Mg0 O9 2.114 . S
Mg0 O10 2.251 . S
Mg0 O13 2.010 . S
O1 Mg0 2.028 . S
O1 C4 1.250 . S
O2 Mg3 2.028 . S
O2 C4 1.248 . S
Mg3 O2 2.028 . S
Mg3 O8 2.032 . S
Mg3 O10 2.079 . S
C4 O1 1.250 . S
C4 O2 1.248 . S
C5 O6 1.264 . S
C5 O13 1.249 . S
O6 C5 1.264 . S
O7 Mg0 1.986 . S
O7 C11 1.246 . S
O8 Mg3 2.032 . S
O8 C11 1.259 . S
O9 Mg0 2.114 . S
O9 C12 1.252 . S
O10 Mg0 2.251 . S
O10 Mg3 2.079 . S
O10 C12 1.273 . S
C11 O7 1.246 . S
C11 O8 1.259 . S
C12 O9 1.252 . S
C12 O10 1.273 . S
O13 Mg0 2.010 . S
O13 C5 1.249 . S
Mg14 O15 2.028 . S
Mg14 O21 1.986 . S
Mg14 O23 2.114 . S
Mg14 O24 2.251 . S
Mg14 O27 2.010 . S
O15 Mg14 2.028 . S
O15 C18 1.250 . S
O16 Mg17 2.028 . S
O16 C18 1.248 . S
Mg17 O16 2.028 . S
Mg17 O22 2.032 . S
Mg17 O24 2.079 . S
C18 O15 1.250 . S
C18 O16 1.248 . S
C19 O20 1.264 . S
C19 O27 1.249 . S
O20 C19 1.264 . S
O21 Mg14 1.986 . S
O21 C25 1.246 . S
O22 Mg17 2.032 . S
O22 C25 1.259 . S
O23 Mg14 2.114 . S
O23 C26 1.252 . S
O24 Mg14 2.251 . S
O24 Mg17 2.079 . S
O24 C26 1.273 . S
C25 O21 1.246 . S
C25 O22 1.259 . S
C26 O23 1.252 . S
C26 O24 1.273 . S
O27 Mg14 2.010 . S
O27 C19 1.249 . S
Mg28 O29 2.028 . S
Mg28 O35 1.986 . S
Mg28 O37 2.114 . S
Mg28 O38 2.251 . S
Mg28 O41 2.010 . S
O29 Mg28 2.028 . S
O29 C32 1.250 . S
O30 Mg31 2.028 . S
O30 C32 1.248 . S
Mg31 O30 2.028 . S
Mg31 O36 2.032 . S
Mg31 O38 2.079 . S
C32 O29 1.250 . S
C32 O30 1.248 . S
C33 O34 1.264 . S
C33 O41 1.249 . S
O34 C33 1.264 . S
O35 Mg28 1.986 . S
O35 C39 1.246 . S
O36 Mg31 2.032 . S
O36 C39 1.259 . S
O37 Mg28 2.114 . S
O37 C40 1.252 . S
O38 Mg28 2.251 . S
O38 Mg31 2.079 . S
O38 C40 1.273 . S
C39 O35 1.246 . S
C39 O36 1.259 . S
C40 O37 1.252 . S
C40 O38 1.273 . S
O41 Mg28 2.010 . S
O41 C33 1.249 . S
Mg42 O43 2.028 . S
Mg42 O49 1.986 . S
Mg42 O51 2.114 . S
Mg42 O52 2.251 . S
Mg42 O55 2.010 . S
O43 Mg42 2.028 . S
O43 C46 1.250 . S
O44 Mg45 2.028 . S
O44 C46 1.248 . S
Mg45 O44 2.028 . S
Mg45 O50 2.032 . S
Mg45 O52 2.079 . S
C46 O43 1.250 . S
C46 O44 1.248 . S
C47 O48 1.264 . S
C47 O55 1.249 . S
O48 C47 1.264 . S
O49 Mg42 1.986 . S
O49 C53 1.246 . S
O50 Mg45 2.032 . S
O50 C53 1.259 . S
O51 Mg42 2.114 . S
O51 C54 1.252 . S
O52 Mg42 2.251 . S
O52 Mg45 2.079 . S
O52 C54 1.273 . S
C53 O49 1.246 . S
C53 O50 1.259 . S
C54 O51 1.252 . S
C54 O52 1.273 . S
O55 Mg42 2.010 . S
O55 C47 1.249 . S
Mg56 O57 2.028 . S
Mg56 O63 1.986 . S
Mg56 O65 2.114 . S
Mg56 O66 2.251 . S
Mg56 O69 2.010 . S
O57 Mg56 2.028 . S
O57 C60 1.250 . S
O58 Mg59 2.028 . S
O58 C60 1.248 . S
Mg59 O58 2.028 . S
Mg59 O64 2.032 . S
Mg59 O66 2.079 . S
C60 O57 1.250 . S
C60 O58 1.248 . S
C61 O62 1.264 . S
C61 O69 1.249 . S
O62 C61 1.264 . S
O63 Mg56 1.986 . S
O63 C67 1.246 . S
O64 Mg59 2.032 . S
O64 C67 1.259 . S
O65 Mg56 2.114 . S
O65 C68 1.252 . S
O66 Mg56 2.251 . S
O66 Mg59 2.079 . S
O66 C68 1.273 . S
C67 O63 1.246 . S
C67 O64 1.259 . S
C68 O65 1.252 . S
C68 O66 1.273 . S
O69 Mg56 2.010 . S
O69 C61 1.249 . S
Mg70 O71 2.028 . S
Mg70 O77 1.986 . S
Mg70 O79 2.114 . S
Mg70 O80 2.251 . S
Mg70 O83 2.010 . S
O71 Mg70 2.028 . S
O71 C74 1.250 . S
O72 Mg73 2.028 . S
O72 C74 1.248 . S
Mg73 O72 2.028 . S
Mg73 O78 2.032 . S
Mg73 O80 2.079 . S
C74 O71 1.250 . S
C74 O72 1.248 . S
C75 O76 1.264 . S
C75 O83 1.249 . S
O76 C75 1.264 . S
O77 Mg70 1.986 . S
O77 C81 1.246 . S
O78 Mg73 2.032 . S
O78 C81 1.259 . S
O79 Mg70 2.114 . S
O79 C82 1.252 . S
O80 Mg70 2.251 . S
O80 Mg73 2.079 . S
O80 C82 1.273 . S
C81 O77 1.246 . S
C81 O78 1.259 . S
C82 O79 1.252 . S
C82 O80 1.273 . S
O83 Mg70 2.010 . S
O83 C75 1.249 . S
Mg84 O85 2.028 . S
Mg84 O91 1.986 . S
Mg84 O93 2.114 . S
Mg84 O94 2.251 . S
Mg84 O97 2.010 . S
O85 Mg84 2.028 . S
O85 C88 1.250 . S
O86 Mg87 2.028 . S
O86 C88 1.248 . S
Mg87 O86 2.028 . S
Mg87 O92 2.032 . S
Mg87 O94 2.079 . S
C88 O85 1.250 . S
C88 O86 1.248 . S
C89 O90 1.264 . S
C89 O97 1.249 . S
O90 C89 1.264 . S
O91 Mg84 1.986 . S
O91 C95 1.246 . S
O92 Mg87 2.032 . S
O92 C95 1.259 . S
O93 Mg84 2.114 . S
O93 C96 1.252 . S
O94 Mg84 2.251 . S
O94 Mg87 2.079 . S
O94 C96 1.273 . S
C95 O91 1.246 . S
C95 O92 1.259 . S
C96 O93 1.252 . S
C96 O94 1.273 . S
O97 Mg84 2.010 . S
O97 C89 1.249 . S
Mg98 O99 2.028 . S
Mg98 O105 1.986 . S
Mg98 O107 2.114 . S
Mg98 O108 2.251 . S
Mg98 O111 2.010 . S
O99 Mg98 2.028 . S
O99 C102 1.250 . S
O100 Mg101 2.028 . S
O100 C102 1.248 . S
Mg101 O100 2.028 . S
Mg101 O106 2.032 . S
Mg101 O108 2.079 . S
C102 O99 1.250 . S
C102 O100 1.248 . S
C103 O104 1.264 . S
C103 O111 1.249 . S
O104 C103 1.264 . S
O105 Mg98 1.986 . S
O105 C109 1.246 . S
O106 Mg101 2.032 . S
O106 C109 1.259 . S
O107 Mg98 2.114 . S
O107 C110 1.252 . S
O108 Mg98 2.251 . S
O108 Mg101 2.079 . S
O108 C110 1.273 . S
C109 O105 1.246 . S
C109 O106 1.259 . S
C110 O107 1.252 . S
C110 O108 1.273 . S
O111 Mg98 2.010 . S
O111 C103 1.249 . S
Mg112 O113 2.028 . S
Mg112 O119 1.986 . S
Mg112 O121 2.114 . S
Mg112 O122 2.251 . S
Mg112 O125 2.010 . S
O113 Mg112 2.028 . S
O113 C116 1.250 . S
O114 Mg115 2.028 . S
O114 C116 1.248 . S
Mg115 O114 2.028 . S
Mg115 O120 2.032 . S
Mg115 O122 2.079 . S
C116 O113 1.250 . S
C116 O114 1.248 . S
C117 O118 1.264 . S
C117 O125 1.249 . S
O118 C117 1.264 . S
O119 Mg112 1.986 . S
O119 C123 1.246 . S
O120 Mg115 2.032 . S
O120 C123 1.259 . S
O121 Mg112 2.114 . S
O121 C124 1.252 . S
O122 Mg112 2.251 . S
O122 Mg115 2.079 . S
O122 C124 1.273 . S
C123 O119 1.246 . S
C123 O120 1.259 . S
C124 O121 1.252 . S
C124 O122 1.273 . S
O125 Mg112 2.010 . S
O125 C117 1.249 . S
Mg126 O127 2.028 . S
Mg126 O133 1.986 . S
Mg126 O135 2.114 . S
Mg126 O136 2.251 . S
Mg126 O139 2.010 . S
O127 Mg126 2.028 . S
O127 C130 1.250 . S
O128 Mg129 2.028 . S
O128 C130 1.248 . S
Mg129 O128 2.028 . S
Mg129 O134 2.032 . S
Mg129 O136 2.079 . S
C130 O127 1.250 . S
C130 O128 1.248 . S
C131 O132 1.264 . S
C131 O139 1.249 . S
O132 C131 1.264 . S
O133 Mg126 1.986 . S
O133 C137 1.246 . S
O134 Mg129 2.032 . S
O134 C137 1.259 . S
O135 Mg126 2.114 . S
O135 C138 1.252 . S
O136 Mg126 2.251 . S
O136 Mg129 2.079 . S
O136 C138 1.273 . S
C137 O133 1.246 . S
C137 O134 1.259 . S
C138 O135 1.252 . S
C138 O136 1.273 . S
O139 Mg126 2.010 . S
O139 C131 1.249 . S
Mg140 O141 2.028 . S
Mg140 O147 1.986 . S
Mg140 O149 2.114 . S
Mg140 O150 2.251 . S
Mg140 O153 2.010 . S
O141 Mg140 2.028 . S
O141 C144 1.250 . S
O142 Mg143 2.028 . S
O142 C144 1.248 . S
Mg143 O142 2.028 . S
Mg143 O148 2.032 . S
Mg143 O150 2.079 . S
C144 O141 1.250 . S
C144 O142 1.248 . S
C145 O146 1.264 . S
C145 O153 1.249 . S
O146 C145 1.264 . S
O147 Mg140 1.986 . S
O147 C151 1.246 . S
O148 Mg143 2.032 . S
O148 C151 1.259 . S
O149 Mg140 2.114 . S
O149 C152 1.252 . S
O150 Mg140 2.251 . S
O150 Mg143 2.079 . S
O150 C152 1.273 . S
C151 O147 1.246 . S
C151 O148 1.259 . S
C152 O149 1.252 . S
C152 O150 1.273 . S
O153 Mg140 2.010 . S
O153 C145 1.249 . S
Mg154 O155 2.028 . S
Mg154 O161 1.986 . S
Mg154 O163 2.114 . S
Mg154 O164 2.251 . S
Mg154 O167 2.010 . S
O155 Mg154 2.028 . S
O155 C158 1.250 . S
O156 Mg157 2.028 . S
O156 C158 1.248 . S
Mg157 O156 2.028 . S
Mg157 O162 2.032 . S
Mg157 O164 2.079 . S
C158 O155 1.250 . S
C158 O156 1.248 . S
C159 O160 1.264 . S
C159 O167 1.249 . S
O160 C159 1.264 . S
O161 Mg154 1.986 . S
O161 C165 1.246 . S
O162 Mg157 2.032 . S
O162 C165 1.259 . S
O163 Mg154 2.114 . S
O163 C166 1.252 . S
O164 Mg154 2.251 . S
O164 Mg157 2.079 . S
O164 C166 1.273 . S
C165 O161 1.246 . S
C165 O162 1.259 . S
C166 O163 1.252 . S
C166 O164 1.273 . S
O167 Mg154 2.010 . S
O167 C159 1.249 . S
Mg168 O169 2.028 . S
Mg168 O175 1.986 . S
Mg168 O177 2.114 . S
Mg168 O178 2.251 . S
Mg168 O181 2.010 . S
O169 Mg168 2.028 . S
O169 C172 1.250 . S
O170 Mg171 2.028 . S
O170 C172 1.248 . S
Mg171 O170 2.028 . S
Mg171 O176 2.032 . S
Mg171 O178 2.079 . S
C172 O169 1.250 . S
C172 O170 1.248 . S
C173 O174 1.264 . S
C173 O181 1.249 . S
O174 C173 1.264 . S
O175 Mg168 1.986 . S
O175 C179 1.246 . S
O176 Mg171 2.032 . S
O176 C179 1.259 . S
O177 Mg168 2.114 . S
O177 C180 1.252 . S
O178 Mg168 2.251 . S
O178 Mg171 2.079 . S
O178 C180 1.273 . S
C179 O175 1.246 . S
C179 O176 1.259 . S
C180 O177 1.252 . S
C180 O178 1.273 . S
O181 Mg168 2.010 . S
O181 C173 1.249 . S
Mg182 O183 2.028 . S
Mg182 O189 1.986 . S
Mg182 O191 2.114 . S
Mg182 O192 2.251 . S
Mg182 O195 2.010 . S
O183 Mg182 2.028 . S
O183 C186 1.250 . S
O184 Mg185 2.028 . S
O184 C186 1.248 . S
Mg185 O184 2.028 . S
Mg185 O190 2.032 . S
Mg185 O192 2.079 . S
C186 O183 1.250 . S
C186 O184 1.248 . S
C187 O188 1.264 . S
C187 O195 1.249 . S
O188 C187 1.264 . S
O189 Mg182 1.986 . S
O189 C193 1.246 . S
O190 Mg185 2.032 . S
O190 C193 1.259 . S
O191 Mg182 2.114 . S
O191 C194 1.252 . S
O192 Mg182 2.251 . S
O192 Mg185 2.079 . S
O192 C194 1.273 . S
C193 O189 1.246 . S
C193 O190 1.259 . S
C194 O191 1.252 . S
C194 O192 1.273 . S
O195 Mg182 2.010 . S
O195 C187 1.249 . S
Mg196 O197 2.028 . S
Mg196 O203 1.986 . S
Mg196 O205 2.114 . S
Mg196 O206 2.251 . S
Mg196 O209 2.010 . S
O197 Mg196 2.028 . S
O197 C200 1.250 . S
O198 Mg199 2.028 . S
O198 C200 1.248 . S
Mg199 O198 2.028 . S
Mg199 O204 2.032 . S
Mg199 O206 2.079 . S
C200 O197 1.250 . S
C200 O198 1.248 . S
C201 O202 1.264 . S
C201 O209 1.249 . S
O202 C201 1.264 . S
O203 Mg196 1.986 . S
O203 C207 1.246 . S
O204 Mg199 2.032 . S
O204 C207 1.259 . S
O205 Mg196 2.114 . S
O205 C208 1.252 . S
O206 Mg196 2.251 . S
O206 Mg199 2.079 . S
O206 C208 1.273 . S
C207 O203 1.246 . S
C207 O204 1.259 . S
C208 O205 1.252 . S
C208 O206 1.273 . S
O209 Mg196 2.010 . S
O209 C201 1.249 . S
Mg210 O211 2.028 . S
Mg210 O217 1.986 . S
Mg210 O219 2.114 . S
Mg210 O220 2.251 . S
Mg210 O223 2.010 . S
O211 Mg210 2.028 . S
O211 C214 1.250 . S
O212 Mg213 2.028 . S
O212 C214 1.248 . S
Mg213 O212 2.028 . S
Mg213 O218 2.032 . S
Mg213 O220 2.079 . S
C214 O211 1.250 . S
C214 O212 1.248 . S
C215 O216 1.264 . S
C215 O223 1.249 . S
O216 C215 1.264 . S
O217 Mg210 1.986 . S
O217 C221 1.246 . S
O218 Mg213 2.032 . S
O218 C221 1.259 . S
O219 Mg210 2.114 . S
O219 C222 1.252 . S
O220 Mg210 2.251 . S
O220 Mg213 2.079 . S
O220 C222 1.273 . S
C221 O217 1.246 . S
C221 O218 1.259 . S
C222 O219 1.252 . S
C222 O220 1.273 . S
O223 Mg210 2.010 . S
O223 C215 1.249 . S
H224 C230 0.930 . S
H225 C234 0.930 . S
H226 C239 0.929 . S
H227 C237 0.929 . S
H228 C232 0.929 . S
H229 C238 0.929 . S
C230 H224 0.930 . S
C230 C231 1.367 . S
C230 C238 1.378 . S
C231 C230 1.367 . S
C231 C239 1.433 . S
C232 H228 0.929 . S
C232 C234 1.378 . S
C232 C236 1.350 . S
C233 C236 1.463 . S
C233 C238 1.350 . S
C233 N241 1.427 . S
C234 H225 0.930 . S
C234 C232 1.378 . S
C234 C235 1.367 . S
C235 C234 1.367 . S
C235 C237 1.433 . S
C236 C232 1.350 . S
C236 C233 1.463 . S
C236 N240 1.427 . S
C237 H227 0.929 . S
C237 C235 1.433 . S
C237 N240 1.384 . S
C238 H229 0.929 . S
C238 C230 1.378 . S
C238 C233 1.350 . S
C239 H226 0.929 . S
C239 C231 1.433 . S
C239 N241 1.384 . S
N240 C236 1.427 . S
N240 C237 1.384 . S
N241 C233 1.427 . S
N241 C239 1.384 . S
H242 C248 0.930 . S
H243 C252 0.930 . S
H244 C257 0.929 . S
H245 C255 0.929 . S
H246 C250 0.929 . S
H247 C256 0.929 . S
C248 H242 0.930 . S
C248 C249 1.367 . S
C248 C256 1.378 1_565 S
C249 C248 1.367 . S
C249 C257 1.433 . S
C250 H246 0.929 . S
C250 C252 1.378 1_565 S
C250 C254 1.350 1_565 S
C251 C254 1.463 1_665 S
C251 C256 1.350 1_565 S
C251 N259 1.427 . S
C252 H243 0.930 . S
C252 C250 1.378 1_545 S
C252 C253 1.367 . S
C253 C252 1.367 . S
C253 C255 1.433 . S
C254 C250 1.350 1_545 S
C254 C251 1.463 1_445 S
C254 N258 1.427 . S
C255 H245 0.929 . S
C255 C253 1.433 . S
C255 N258 1.384 . S
C256 H247 0.929 . S
C256 C248 1.378 1_545 S
C256 C251 1.350 1_545 S
C257 H244 0.929 . S
C257 C249 1.433 . S
C257 N259 1.384 . S
N258 C254 1.427 . S
N258 C255 1.384 . S
N259 C251 1.427 . S
N259 C257 1.384 . S
H260 C266 0.930 . S
H261 C270 0.930 . S
H262 C275 0.929 . S
H263 C273 0.929 . S
H264 C268 0.929 . S
H265 C274 0.929 . S
C266 H260 0.930 . S
C266 C267 1.367 . S
C266 C274 1.378 . S
C267 C266 1.367 . S
C267 C275 1.433 . S
C268 H264 0.929 . S
C268 C270 1.378 . S
C268 C272 1.350 . S
C269 C272 1.463 1_565 S
C269 C274 1.350 . S
C269 N277 1.427 . S
C270 H261 0.930 . S
C270 C268 1.378 . S
C270 C271 1.367 . S
C271 C270 1.367 . S
C271 C273 1.433 . S
C272 C268 1.350 . S
C272 C269 1.463 1_545 S
C272 N276 1.427 . S
C273 H263 0.929 . S
C273 C271 1.433 . S
C273 N276 1.384 . S
C274 H265 0.929 . S
C274 C266 1.378 . S
C274 C269 1.350 . S
C275 H262 0.929 . S
C275 C267 1.433 . S
C275 N277 1.384 . S
N276 C272 1.427 . S
N276 C273 1.384 . S
N277 C269 1.427 . S
N277 C275 1.384 . S
H278 C284 0.930 . S
H279 C288 0.930 . S
H280 C293 0.929 . S
H281 C291 0.929 . S
H282 C286 0.929 . S
H283 C292 0.929 . S
C284 H278 0.930 . S
C284 C285 1.367 . S
C284 C292 1.378 . S
C285 C284 1.367 . S
C285 C293 1.433 . S
C286 H282 0.929 . S
C286 C288 1.378 . S
C286 C290 1.350 . S
C287 C290 1.463 1_455 S
C287 C292 1.350 . S
C287 N295 1.427 . S
C288 H279 0.930 . S
C288 C286 1.378 . S
C288 C289 1.367 . S
C289 C288 1.367 . S
C289 C291 1.433 . S
C290 C286 1.350 . S
C290 C287 1.463 1_655 S
C290 N294 1.427 . S
C291 H281 0.929 . S
C291 C289 1.433 . S
C291 N294 1.384 . S
C292 H283 0.929 . S
C292 C284 1.378 . S
C292 C287 1.350 . S
C293 H280 0.929 . S
C293 C285 1.433 . S
C293 N295 1.384 . S
N294 C290 1.427 . S
N294 C291 1.384 . S
N295 C287 1.427 . S
N295 C293 1.384 . S
H296 C302 0.930 . S
H297 C306 0.930 . S
H298 C311 0.929 . S
H299 C309 0.929 . S
H300 C304 0.929 . S
H301 C310 0.929 . S
C302 H296 0.930 . S
C302 C303 1.367 . S
C302 C310 1.378 . S
C303 C302 1.367 . S
C303 C311 1.433 . S
C304 H300 0.929 . S
C304 C306 1.378 . S
C304 C308 1.350 . S
C305 C308 1.463 . S
C305 C310 1.350 . S
C305 N313 1.427 . S
C306 H297 0.930 . S
C306 C304 1.378 . S
C306 C307 1.367 . S
C307 C306 1.367 . S
C307 C309 1.433 . S
C308 C304 1.350 . S
C308 C305 1.463 . S
C308 N312 1.427 . S
C309 H299 0.929 . S
C309 C307 1.433 . S
C309 N312 1.384 . S
C310 H301 0.929 . S
C310 C302 1.378 . S
C310 C305 1.350 . S
C311 H298 0.929 . S
C311 C303 1.433 . S
C311 N313 1.384 . S
N312 C308 1.427 . S
N312 C309 1.384 . S
N313 C305 1.427 . S
N313 C311 1.384 . S
H314 C320 0.930 . S
H315 C324 0.930 . S
H316 C329 0.929 1_565 S
H317 C327 0.929 1_545 S
H318 C322 0.929 . S
H319 C328 0.929 . S
C320 H314 0.930 . S
C320 C321 1.367 . S
C320 C328 1.378 . S
C321 C320 1.367 . S
C321 C329 1.433 . S
C322 H318 0.929 . S
C322 C324 1.378 . S
C322 C326 1.350 . S
C323 C326 1.463 1_545 S
C323 C328 1.350 . S
C323 N331 1.427 1_545 S
C324 H315 0.930 . S
C324 C322 1.378 . S
C324 C325 1.367 . S
C325 C324 1.367 . S
C325 C327 1.433 . S
C326 C322 1.350 . S
C326 C323 1.463 1_565 S
C326 N330 1.427 1_565 S
C327 H317 0.929 1_565 S
C327 C325 1.433 . S
C327 N330 1.384 1_565 S
C328 H319 0.929 . S
C328 C320 1.378 . S
C328 C323 1.350 . S
C329 H316 0.929 1_545 S
C329 C321 1.433 . S
C329 N331 1.384 1_545 S
N330 C326 1.427 1_545 S
N330 C327 1.384 1_545 S
N331 C323 1.427 1_565 S
N331 C329 1.384 1_565 S
H332 C338 0.930 . S
H333 C342 0.930 . S
H334 C347 0.929 . S
H335 C345 0.929 . S
H336 C340 0.929 . S
H337 C346 0.929 . S
C338 H332 0.930 . S
C338 C339 1.367 . S
C338 C346 1.378 . S
C339 C338 1.367 . S
C339 C347 1.433 . S
C340 H336 0.929 . S
C340 C342 1.378 . S
C340 C344 1.350 . S
C341 C344 1.463 1_655 S
C341 C346 1.350 . S
C341 N349 1.427 . S
C342 H333 0.930 . S
C342 C340 1.378 . S
C342 C343 1.367 . S
C343 C342 1.367 . S
C343 C345 1.433 . S
C344 C340 1.350 . S
C344 C341 1.463 1_455 S
C344 N348 1.427 . S
C345 H335 0.929 . S
C345 C343 1.433 . S
C345 N348 1.384 . S
C346 H337 0.929 . S
C346 C338 1.378 . S
C346 C341 1.350 . S
C347 H334 0.929 . S
C347 C339 1.433 . S
C347 N349 1.384 . S
N348 C344 1.427 . S
N348 C345 1.384 . S
N349 C341 1.427 . S
N349 C347 1.384 . S
H350 C356 0.930 . S
H351 C360 0.930 . S
H352 C365 0.929 . S
H353 C363 0.929 . S
H354 C358 0.929 1_554 S
H355 C364 0.929 1_556 S
C356 H350 0.930 . S
C356 C357 1.367 . S
C356 C364 1.378 . S
C357 C356 1.367 . S
C357 C365 1.433 . S
C358 H354 0.929 1_556 S
C358 C360 1.378 . S
C358 C362 1.350 . S
C359 C362 1.463 1_554 S
C359 C364 1.350 . S
C359 N367 1.427 . S
C360 H351 0.930 . S
C360 C358 1.378 . S
C360 C361 1.367 . S
C361 C360 1.367 . S
C361 C363 1.433 . S
C362 C358 1.350 . S
C362 C359 1.463 1_556 S
C362 N366 1.427 . S
C363 H353 0.929 . S
C363 C361 1.433 . S
C363 N366 1.384 . S
C364 H355 0.929 1_554 S
C364 C356 1.378 . S
C364 C359 1.350 . S
C365 H352 0.929 . S
C365 C357 1.433 . S
C365 N367 1.384 . S
N366 C362 1.427 . S
N366 C363 1.384 . S
N367 C359 1.427 . S
N367 C365 1.384 . S
H368 C374 0.930 . S
H369 C378 0.930 . S
H370 C383 0.929 . S
H371 C381 0.929 . S
H372 C376 0.929 . S
H373 C382 0.929 . S
C374 H368 0.930 . S
C374 C375 1.367 . S
C374 C382 1.378 1_556 S
C375 C374 1.367 . S
C375 C383 1.433 . S
C376 H372 0.929 . S
C376 C378 1.378 1_556 S
C376 C380 1.350 1_556 S
C377 C380 1.463 1_456 S
C377 C382 1.350 1_556 S
C377 N385 1.427 . S
C378 H369 0.930 . S
C378 C376 1.378 1_554 S
C378 C379 1.367 . S
C379 C378 1.367 . S
C379 C381 1.433 . S
C380 C376 1.350 1_554 S
C380 C377 1.463 1_654 S
C380 N384 1.427 . S
C381 H371 0.929 . S
C381 C379 1.433 . S
C381 N384 1.384 . S
C382 H373 0.929 . S
C382 C374 1.378 1_554 S
C382 C377 1.350 1_554 S
C383 H370 0.929 . S
C383 C375 1.433 . S
C383 N385 1.384 . S
N384 C380 1.427 . S
N384 C381 1.384 . S
N385 C377 1.427 . S
N385 C383 1.384 . S
H386 C392 0.930 . S
H387 C396 0.930 . S
H388 C401 0.929 . S
H389 C399 0.929 . S
H390 C394 0.929 . S
H391 C400 0.929 . S
C392 H386 0.930 . S
C392 C393 1.367 . S
C392 C400 1.378 . S
C393 C392 1.367 . S
C393 C401 1.433 . S
C394 H390 0.929 . S
C394 C396 1.378 . S
C394 C398 1.350 . S
C395 C398 1.463 . S
C395 C400 1.350 . S
C395 N403 1.427 . S
C396 H387 0.930 . S
C396 C394 1.378 . S
C396 C397 1.367 . S
C397 C396 1.367 . S
C397 C399 1.433 . S
C398 C394 1.350 . S
C398 C395 1.463 . S
C398 N402 1.427 . S
C399 H389 0.929 . S
C399 C397 1.433 . S
C399 N402 1.384 . S
C400 H391 0.929 . S
C400 C392 1.378 . S
C400 C395 1.350 . S
C401 H388 0.929 . S
C401 C393 1.433 . S
C401 N403 1.384 . S
N402 C398 1.427 . S
N402 C399 1.384 . S
N403 C395 1.427 . S
N403 C401 1.384 . S
H404 C410 0.930 . S
H405 C414 0.930 . S
H406 C419 0.929 . S
H407 C417 0.929 . S
H408 C412 0.929 . S
H409 C418 0.929 . S
C410 H404 0.930 . S
C410 C411 1.367 . S
C410 C418 1.378 . S
C411 C410 1.367 . S
C411 C419 1.433 . S
C412 H408 0.929 . S
C412 C414 1.378 . S
C412 C416 1.350 . S
C413 C416 1.463 1_556 S
C413 C418 1.350 . S
C413 N421 1.427 . S
C414 H405 0.930 . S
C414 C412 1.378 . S
C414 C415 1.367 . S
C415 C414 1.367 . S
C415 C417 1.433 . S
C416 C412 1.350 . S
C416 C413 1.463 1_554 S
C416 N420 1.427 . S
C417 H407 0.929 . S
C417 C415 1.433 . S
C417 N420 1.384 . S
C418 H409 0.929 . S
C418 C410 1.378 . S
C418 C413 1.350 . S
C419 H406 0.929 . S
C419 C411 1.433 . S
C419 N421 1.384 . S
N420 C416 1.427 . S
N420 C417 1.384 . S
N421 C413 1.427 . S
N421 C419 1.384 . S
H422 C428 0.930 . S
H423 C432 0.930 . S
H424 C437 0.929 . S
H425 C435 0.929 . S
H426 C430 0.929 . S
H427 C436 0.929 . S
C428 H422 0.930 . S
C428 C429 1.367 . S
C428 C436 1.378 . S
C429 C428 1.367 . S
C429 C437 1.433 . S
C430 H426 0.929 . S
C430 C432 1.378 . S
C430 C434 1.350 . S
C431 C434 1.463 . S
C431 C436 1.350 . S
C431 N439 1.427 . S
C432 H423 0.930 . S
C432 C430 1.378 . S
C432 C433 1.367 . S
C433 C432 1.367 . S
C433 C435 1.433 . S
C434 C430 1.350 . S
C434 C431 1.463 . S
C434 N438 1.427 . S
C435 H425 0.929 . S
C435 C433 1.433 . S
C435 N438 1.384 . S
C436 H427 0.929 . S
C436 C428 1.378 . S
C436 C431 1.350 . S
C437 H424 0.929 . S
C437 C429 1.433 . S
C437 N439 1.384 . S
N438 C434 1.427 . S
N438 C435 1.384 . S
N439 C431 1.427 . S
N439 C437 1.384 . S
H440 C446 0.930 1_554 S
H441 C450 0.930 1_556 S
H442 C455 0.929 . S
H443 C453 0.929 . S
H444 C448 0.929 . S
H445 C454 0.929 . S
C446 H440 0.930 1_556 S
C446 C447 1.367 . S
C446 C454 1.378 1_556 S
C447 C446 1.367 . S
C447 C455 1.433 . S
C448 H444 0.929 . S
C448 C450 1.378 1_556 S
C448 C452 1.350 1_556 S
C449 C452 1.463 1_546 S
C449 C454 1.350 1_556 S
C449 N457 1.427 . S
C450 H441 0.930 1_554 S
C450 C448 1.378 1_554 S
C450 C451 1.367 . S
C451 C450 1.367 . S
C451 C453 1.433 . S
C452 C448 1.350 1_554 S
C452 C449 1.463 1_564 S
C452 N456 1.427 . S
C453 H443 0.929 . S
C453 C451 1.433 . S
C453 N456 1.384 . S
C454 H445 0.929 . S
C454 C446 1.378 1_554 S
C454 C449 1.350 1_554 S
C455 H442 0.929 . S
C455 C447 1.433 . S
C455 N457 1.384 . S
N456 C452 1.427 . S
N456 C453 1.384 . S
N457 C449 1.427 . S
N457 C455 1.384 . S
H458 C464 0.930 . S
H459 C468 0.930 . S
H460 C473 0.929 . S
H461 C471 0.929 . S
H462 C466 0.929 . S
H463 C472 0.929 . S
C464 H458 0.930 . S
C464 C465 1.367 . S
C464 C472 1.378 . S
C465 C464 1.367 . S
C465 C473 1.433 . S
C466 H462 0.929 . S
C466 C468 1.378 . S
C466 C470 1.350 . S
C467 C470 1.463 . S
C467 C472 1.350 . S
C467 N475 1.427 . S
C468 H459 0.930 . S
C468 C466 1.378 . S
C468 C469 1.367 . S
C469 C468 1.367 . S
C469 C471 1.433 . S
C470 C466 1.350 . S
C470 C467 1.463 . S
C470 N474 1.427 . S
C471 H461 0.929 . S
C471 C469 1.433 . S
C471 N474 1.384 . S
C472 H463 0.929 . S
C472 C464 1.378 . S
C472 C467 1.350 . S
C473 H460 0.929 . S
C473 C465 1.433 . S
C473 N475 1.384 . S
N474 C470 1.427 . S
N474 C471 1.384 . S
N475 C467 1.427 . S
N475 C473 1.384 . S
H476 C482 0.930 . S
H477 C486 0.930 . S
H478 C491 0.929 . S
H479 C489 0.929 . S
H480 C484 0.929 . S
H481 C490 0.929 . S
C482 H476 0.930 . S
C482 C483 1.367 . S
C482 C490 1.378 . S
C483 C482 1.367 . S
C483 C491 1.433 . S
C484 H480 0.929 . S
C484 C486 1.378 . S
C484 C488 1.350 . S
C485 C488 1.463 . S
C485 C490 1.350 . S
C485 N493 1.427 . S
C486 H477 0.930 . S
C486 C484 1.378 . S
C486 C487 1.367 . S
C487 C486 1.367 . S
C487 C489 1.433 . S
C488 C484 1.350 . S
C488 C485 1.463 . S
C488 N492 1.427 . S
C489 H479 0.929 . S
C489 C487 1.433 . S
C489 N492 1.384 . S
C490 H481 0.929 . S
C490 C482 1.378 . S
C490 C485 1.350 . S
C491 H478 0.929 . S
C491 C483 1.433 . S
C491 N493 1.384 . S
N492 C488 1.427 . S
N492 C489 1.384 . S
N493 C485 1.427 . S
N493 C491 1.384 . S
H494 C500 0.930 . S
H495 C504 0.930 . S
H496 C509 0.929 . S
H497 C507 0.929 . S
H498 C502 0.929 . S
H499 C508 0.929 . S
C500 H494 0.930 . S
C500 C501 1.367 . S
C500 C508 1.378 . S
C501 C500 1.367 . S
C501 C509 1.433 . S
C502 H498 0.929 . S
C502 C504 1.378 . S
C502 C506 1.350 . S
C503 C506 1.463 . S
C503 C508 1.350 . S
C503 N511 1.427 . S
C504 H495 0.930 . S
C504 C502 1.378 . S
C504 C505 1.367 . S
C505 C504 1.367 . S
C505 C507 1.433 . S
C506 C502 1.350 . S
C506 C503 1.463 . S
C506 N510 1.427 . S
C507 H497 0.929 . S
C507 C505 1.433 . S
C507 N510 1.384 . S
C508 H499 0.929 . S
C508 C500 1.378 . S
C508 C503 1.350 . S
C509 H496 0.929 . S
C509 C501 1.433 . S
C509 N511 1.384 . S
N510 C506 1.427 . S
N510 C507 1.384 . S
N511 C503 1.427 . S
N511 C509 1.384 . S
H512 C518 0.930 . S
H513 C522 0.930 . S
H514 C527 0.929 . S
H515 C525 0.929 . S
H516 C520 0.929 . S
H517 C526 0.929 . S
C518 H512 0.930 . S
C518 C519 1.367 . S
C518 C526 1.378 . S
C519 C518 1.367 . S
C519 C527 1.433 . S
C520 H516 0.929 . S
C520 C522 1.378 . S
C520 C524 1.350 . S
C521 C524 1.463 . S
C521 C526 1.350 . S
C521 N529 1.427 . S
C522 H513 0.930 . S
C522 C520 1.378 . S
C522 C523 1.367 . S
C523 C522 1.367 . S
C523 C525 1.433 1_565 S
C524 C520 1.350 . S
C524 C521 1.463 . S
C524 N528 1.427 . S
C525 H515 0.929 . S
C525 C523 1.433 1_545 S
C525 N528 1.384 1_545 S
C526 H517 0.929 . S
C526 C518 1.378 . S
C526 C521 1.350 . S
C527 H514 0.929 . S
C527 C519 1.433 . S
C527 N529 1.384 . S
N528 C524 1.427 . S
N528 C525 1.384 1_565 S
N529 C521 1.427 . S
N529 C527 1.384 . S
H530 C536 0.930 . S
H531 C540 0.930 . S
H532 C545 0.929 . S
H533 C543 0.929 . S
H534 C538 0.929 . S
H535 C544 0.929 . S
C536 H530 0.930 . S
C536 C537 1.367 . S
C536 C544 1.378 . S
C537 C536 1.367 . S
C537 C545 1.433 . S
C538 H534 0.929 . S
C538 C540 1.378 . S
C538 C542 1.350 . S
C539 C542 1.463 . S
C539 C544 1.350 . S
C539 N547 1.427 . S
C540 H531 0.930 . S
C540 C538 1.378 . S
C540 C541 1.367 . S
C541 C540 1.367 . S
C541 C543 1.433 . S
C542 C538 1.350 . S
C542 C539 1.463 . S
C542 N546 1.427 . S
C543 H533 0.929 . S
C543 C541 1.433 . S
C543 N546 1.384 . S
C544 H535 0.929 . S
C544 C536 1.378 . S
C544 C539 1.350 . S
C545 H532 0.929 . S
C545 C537 1.433 . S
C545 N547 1.384 . S
N546 C542 1.427 . S
N546 C543 1.384 . S
N547 C539 1.427 . S
N547 C545 1.384 . S
H548 C554 0.930 . S
H549 C558 0.930 . S
H550 C563 0.929 . S
H551 C561 0.929 . S
H552 C556 0.929 . S
H553 C562 0.929 . S
C554 H548 0.930 . S
C554 C555 1.367 . S
C554 C562 1.378 . S
C555 C554 1.367 . S
C555 C563 1.433 . S
C556 H552 0.929 . S
C556 C558 1.378 . S
C556 C560 1.350 . S
C557 C560 1.463 . S
C557 C562 1.350 . S
C557 N565 1.427 . S
C558 H549 0.930 . S
C558 C556 1.378 . S
C558 C559 1.367 . S
C559 C558 1.367 . S
C559 C561 1.433 . S
C560 C556 1.350 . S
C560 C557 1.463 . S
C560 N564 1.427 . S
C561 H551 0.929 . S
C561 C559 1.433 . S
C561 N564 1.384 . S
C562 H553 0.929 . S
C562 C554 1.378 . S
C562 C557 1.350 . S
C563 H550 0.929 . S
C563 C555 1.433 . S
C563 N565 1.384 . S
N564 C560 1.427 . S
N564 C561 1.384 . S
N565 C557 1.427 . S
N565 C563 1.384 . S
H566 C572 0.930 . S
H567 C576 0.930 1_545 S
H568 C581 0.929 . S
H569 C579 0.929 . S
H570 C574 0.929 . S
H571 C580 0.929 . S
C572 H566 0.930 . S
C572 C573 1.367 . S
C572 C580 1.378 . S
C573 C572 1.367 . S
C573 C581 1.433 . S
C574 H570 0.929 . S
C574 C576 1.378 . S
C574 C578 1.350 . S
C575 C578 1.463 . S
C575 C580 1.350 . S
C575 N583 1.427 . S
C576 H567 0.930 1_565 S
C576 C574 1.378 . S
C576 C577 1.367 . S
C577 C576 1.367 . S
C577 C579 1.433 . S
C578 C574 1.350 . S
C578 C575 1.463 . S
C578 N582 1.427 . S
C579 H569 0.929 . S
C579 C577 1.433 . S
C579 N582 1.384 . S
C580 H571 0.929 . S
C580 C572 1.378 . S
C580 C575 1.350 . S
C581 H568 0.929 . S
C581 C573 1.433 . S
C581 N583 1.384 . S
N582 C578 1.427 . S
N582 C579 1.384 . S
N583 C575 1.427 . S
N583 C581 1.384 . S
H584 C590 0.930 . S
H585 C594 0.930 . S
H586 C599 0.929 . S
H587 C597 0.929 . S
H588 C592 0.929 . S
H589 C598 0.929 . S
C590 H584 0.930 . S
C590 C591 1.367 . S
C590 C598 1.378 . S
C591 C590 1.367 . S
C591 C599 1.433 . S
C592 H588 0.929 . S
C592 C594 1.378 1_545 S
C592 C596 1.350 . S
C593 C596 1.463 . S
C593 C598 1.350 . S
C593 N601 1.427 . S
C594 H585 0.930 . S
C594 C592 1.378 1_565 S
C594 C595 1.367 . S
C595 C594 1.367 . S
C595 C597 1.433 1_565 S
C596 C592 1.350 . S
C596 C593 1.463 . S
C596 N600 1.427 . S
C597 H587 0.929 . S
C597 C595 1.433 1_545 S
C597 N600 1.384 . S
C598 H589 0.929 . S
C598 C590 1.378 . S
C598 C593 1.350 . S
C599 H586 0.929 . S
C599 C591 1.433 . S
C599 N601 1.384 . S
N600 C596 1.427 . S
N600 C597 1.384 . S
N601 C593 1.427 . S
N601 C599 1.384 . S
H602 C608 0.930 . S
H603 C612 0.930 . S
H604 C617 0.929 . S
H605 C615 0.929 . S
H606 C610 0.929 . S
H607 C616 0.929 . S
C608 H602 0.930 . S
C608 C609 1.367 . S
C608 C616 1.378 . S
C609 C608 1.367 . S
C609 C617 1.433 . S
C610 H606 0.929 . S
C610 C612 1.378 . S
C610 C614 1.350 . S
C611 C614 1.463 . S
C611 C616 1.350 . S
C611 N619 1.427 . S
C612 H603 0.930 . S
C612 C610 1.378 . S
C612 C613 1.367 . S
C613 C612 1.367 . S
C613 C615 1.433 . S
C614 C610 1.350 . S
C614 C611 1.463 . S
C614 N618 1.427 . S
C615 H605 0.929 . S
C615 C613 1.433 . S
C615 N618 1.384 . S
C616 H607 0.929 . S
C616 C608 1.378 . S
C616 C611 1.350 . S
C617 H604 0.929 . S
C617 C609 1.433 . S
C617 N619 1.384 . S
N618 C614 1.427 . S
N618 C615 1.384 . S
N619 C611 1.427 . S
N619 C617 1.384 . S
H620 C626 0.930 . S
H621 C630 0.930 . S
H622 C635 0.929 . S
H623 C633 0.929 . S
H624 C628 0.929 . S
H625 C634 0.929 . S
C626 H620 0.930 . S
C626 C627 1.367 . S
C626 C634 1.378 . S
C627 C626 1.367 . S
C627 C635 1.433 . S
C628 H624 0.929 . S
C628 C630 1.378 . S
C628 C632 1.350 . S
C629 C632 1.463 . S
C629 C634 1.350 . S
C629 N637 1.427 . S
C630 H621 0.930 . S
C630 C628 1.378 . S
C630 C631 1.367 . S
C631 C630 1.367 . S
C631 C633 1.433 . S
C632 C628 1.350 . S
C632 C629 1.463 . S
C632 N636 1.427 . S
C633 H623 0.929 . S
C633 C631 1.433 . S
C633 N636 1.384 . S
C634 H625 0.929 . S
C634 C626 1.378 . S
C634 C629 1.350 . S
C635 H622 0.929 . S
C635 C627 1.433 . S
C635 N637 1.384 . S
N636 C632 1.427 . S
N636 C633 1.384 . S
N637 C629 1.427 . S
N637 C635 1.384 . S
H638 C644 0.930 . S
H639 C648 0.930 . S
H640 C653 0.929 . S
H641 C651 0.929 . S
H642 C646 0.929 . S
H643 C652 0.929 . S
C644 H638 0.930 . S
C644 C645 1.367 . S
C644 C652 1.378 . S
C645 C644 1.367 . S
C645 C653 1.433 . S
C646 H642 0.929 . S
C646 C648 1.378 . S
C646 C650 1.350 . S
C647 C650 1.463 . S
C647 C652 1.350 . S
C647 N655 1.427 . S
C648 H639 0.930 . S
C648 C646 1.378 . S
C648 C649 1.367 . S
C649 C648 1.367 . S
C649 C651 1.433 . S
C650 C646 1.350 . S
C650 C647 1.463 . S
C650 N654 1.427 . S
C651 H641 0.929 . S
C651 C649 1.433 . S
C651 N654 1.384 . S
C652 H643 0.929 . S
C652 C644 1.378 . S
C652 C647 1.350 . S
C653 H640 0.929 . S
C653 C645 1.433 . S
C653 N655 1.384 . S
N654 C650 1.427 . S
N654 C651 1.384 . S
N655 C647 1.427 . S
N655 C653 1.384 . S
H656 C662 0.930 . S
H657 C666 0.930 . S
H658 C671 0.929 . S
H659 C669 0.929 . S
H660 C664 0.929 . S
H661 C670 0.929 . S
C662 H656 0.930 . S
C662 C663 1.367 . S
C662 C670 1.378 . S
C663 C662 1.367 . S
C663 C671 1.433 . S
C664 H660 0.929 . S
C664 C666 1.378 . S
C664 C668 1.350 . S
C665 C668 1.463 . S
C665 C670 1.350 . S
C665 N673 1.427 . S
C666 H657 0.930 . S
C666 C664 1.378 . S
C666 C667 1.369 . S
C667 C666 1.369 . S
C667 C669 1.433 1_565 S
C668 C664 1.350 . S
C668 C665 1.463 . S
C668 N672 1.427 . S
C669 H659 0.929 . S
C669 C667 1.433 1_545 S
C669 N672 1.384 1_545 S
C670 H661 0.929 . S
C670 C662 1.378 . S
C670 C665 1.350 . S
C671 H658 0.929 . S
C671 C663 1.433 . S
C671 N673 1.384 . S
N672 C668 1.427 . S
N672 C669 1.384 1_565 S
N673 C665 1.427 . S
N673 C671 1.384 . S
H674 C680 0.930 . S
H675 C684 0.930 . S
H676 C689 0.929 . S
H677 C687 0.929 . S
H678 C682 0.929 . S
H679 C688 0.929 . S
C680 H674 0.930 . S
C680 C681 1.367 . S
C680 C688 1.378 . S
C681 C680 1.367 . S
C681 C689 1.433 . S
C682 H678 0.929 . S
C682 C684 1.378 . S
C682 C686 1.350 . S
C683 C686 1.463 . S
C683 C688 1.350 . S
C683 N691 1.427 . S
C684 H675 0.930 . S
C684 C682 1.378 . S
C684 C685 1.367 . S
C685 C684 1.367 . S
C685 C687 1.433 . S
C686 C682 1.350 . S
C686 C683 1.463 . S
C686 N690 1.427 . S
C687 H677 0.929 . S
C687 C685 1.433 . S
C687 N690 1.384 . S
C688 H679 0.929 . S
C688 C680 1.378 . S
C688 C683 1.350 . S
C689 H676 0.929 . S
C689 C681 1.433 . S
C689 N691 1.384 . S
N690 C686 1.427 . S
N690 C687 1.384 . S
N691 C683 1.427 . S
N691 C689 1.384 . S
H692 C698 0.930 . S
H693 C702 0.930 . S
H694 C707 0.929 . S
H695 C705 0.929 . S
H696 C700 0.929 . S
H697 C706 0.929 . S
C698 H692 0.930 . S
C698 C699 1.367 . S
C698 C706 1.378 . S
C699 C698 1.367 . S
C699 C707 1.433 . S
C700 H696 0.929 . S
C700 C702 1.378 . S
C700 C704 1.350 . S
C701 C704 1.463 . S
C701 C706 1.350 . S
C701 N709 1.427 . S
C702 H693 0.930 . S
C702 C700 1.378 . S
C702 C703 1.367 . S
C703 C702 1.367 . S
C703 C705 1.433 . S
C704 C700 1.350 . S
C704 C701 1.463 . S
C704 N708 1.427 . S
C705 H695 0.929 . S
C705 C703 1.433 . S
C705 N708 1.384 . S
C706 H697 0.929 . S
C706 C698 1.378 . S
C706 C701 1.350 . S
C707 H694 0.929 . S
C707 C699 1.433 . S
C707 N709 1.384 . S
N708 C704 1.427 . S
N708 C705 1.384 . S
N709 C701 1.427 . S
N709 C707 1.384 . S
H710 C716 0.930 . S
H711 C720 0.930 . S
H712 C725 0.929 . S
H713 C723 0.929 . S
H714 C718 0.929 . S
H715 C724 0.929 . S
C716 H710 0.930 . S
C716 C717 1.367 . S
C716 C724 1.378 . S
C717 C716 1.367 . S
C717 C725 1.433 . S
C718 H714 0.929 . S
C718 C720 1.378 1_565 S
C718 C722 1.350 . S
C719 C722 1.463 . S
C719 C724 1.350 . S
C719 N727 1.427 . S
C720 H711 0.930 . S
C720 C718 1.378 1_545 S
C720 C721 1.367 1_545 S
C721 C720 1.367 1_565 S
C721 C723 1.433 . S
C722 C718 1.350 . S
C722 C719 1.463 . S
C722 N726 1.427 . S
C723 H713 0.929 . S
C723 C721 1.433 . S
C723 N726 1.384 . S
C724 H715 0.929 . S
C724 C716 1.378 . S
C724 C719 1.350 . S
C725 H712 0.929 . S
C725 C717 1.433 . S
C725 N727 1.384 . S
N726 C722 1.427 . S
N726 C723 1.384 . S
N727 C719 1.427 . S
N727 C725 1.384 . S
H728 C734 0.930 . S
H729 C738 0.930 . S
H730 C743 0.929 . S
H731 C741 0.929 . S
H732 C736 0.929 . S
H733 C742 0.929 . S
C734 H728 0.930 . S
C734 C735 1.367 . S
C734 C742 1.378 . S
C735 C734 1.367 . S
C735 C743 1.433 . S
C736 H732 0.929 . S
C736 C738 1.378 1_545 S
C736 C740 1.350 . S
C737 C740 1.463 . S
C737 C742 1.350 . S
C737 N745 1.427 . S
C738 H729 0.930 . S
C738 C736 1.378 1_565 S
C738 C739 1.367 . S
C739 C738 1.367 . S
C739 C741 1.433 1_565 S
C740 C736 1.350 . S
C740 C737 1.463 . S
C740 N744 1.427 . S
C741 H731 0.929 . S
C741 C739 1.433 1_545 S
C741 N744 1.384 . S
C742 H733 0.929 . S
C742 C734 1.378 . S
C742 C737 1.350 . S
C743 H730 0.929 . S
C743 C735 1.433 . S
C743 N745 1.384 . S
N744 C740 1.427 . S
N744 C741 1.384 . S
N745 C737 1.427 . S
N745 C743 1.384 . S
H746 C752 0.930 . S
H747 C756 0.930 . S
H748 C761 0.929 . S
H749 C759 0.929 . S
H750 C754 0.929 . S
H751 C760 0.929 . S
C752 H746 0.930 . S
C752 C753 1.367 . S
C752 C760 1.378 . S
C753 C752 1.367 . S
C753 C761 1.433 . S
C754 H750 0.929 . S
C754 C756 1.378 . S
C754 C758 1.350 . S
C755 C758 1.463 . S
C755 C760 1.350 . S
C755 N763 1.427 . S
C756 H747 0.930 . S
C756 C754 1.378 . S
C756 C757 1.367 . S
C757 C756 1.367 . S
C757 C759 1.433 . S
C758 C754 1.350 . S
C758 C755 1.463 . S
C758 N762 1.427 . S
C759 H749 0.929 . S
C759 C757 1.433 . S
C759 N762 1.384 . S
C760 H751 0.929 . S
C760 C752 1.378 . S
C760 C755 1.350 . S
C761 H748 0.929 . S
C761 C753 1.433 . S
C761 N763 1.384 . S
N762 C758 1.427 . S
N762 C759 1.384 . S
N763 C755 1.427 . S
N763 C761 1.384 . S
H764 C770 0.930 . S
H765 C774 0.930 . S
H766 C779 0.929 . S
H767 C777 0.929 . S
H768 C772 0.929 . S
H769 C778 0.929 . S
C770 H764 0.930 . S
C770 C771 1.367 . S
C770 C778 1.378 . S
C771 C770 1.367 . S
C771 C779 1.433 . S
C772 H768 0.929 . S
C772 C774 1.378 . S
C772 C776 1.350 . S
C773 C776 1.463 . S
C773 C778 1.350 . S
C773 N781 1.427 . S
C774 H765 0.930 . S
C774 C772 1.378 . S
C774 C775 1.367 . S
C775 C774 1.367 . S
C775 C777 1.433 . S
C776 C772 1.350 . S
C776 C773 1.463 . S
C776 N780 1.427 . S
C777 H767 0.929 . S
C777 C775 1.433 . S
C777 N780 1.384 . S
C778 H769 0.929 . S
C778 C770 1.378 . S
C778 C773 1.350 . S
C779 H766 0.929 . S
C779 C771 1.433 . S
C779 N781 1.384 . S
N780 C776 1.427 . S
N780 C777 1.384 . S
N781 C773 1.427 . S
N781 C779 1.384 . S
H782 C788 0.930 . S
H783 C792 0.937 . S
H784 C797 0.929 . S
H785 C795 0.929 . S
H786 C790 0.929 . S
H787 C796 0.929 . S
C788 H782 0.930 . S
C788 C789 1.367 . S
C788 C796 1.378 . S
C789 C788 1.367 . S
C789 C797 1.433 . S
C790 H786 0.929 . S
C790 C792 1.373 1_545 S
C790 C794 1.350 . S
C791 C794 1.463 . S
C791 C796 1.350 . S
C791 N799 1.427 . S
C792 H783 0.937 . S
C792 C790 1.373 1_565 S
C792 C793 1.365 1_565 S
C793 C792 1.365 1_545 S
C793 C795 1.433 . S
C794 C790 1.350 . S
C794 C791 1.463 . S
C794 N798 1.427 . S
C795 H785 0.929 . S
C795 C793 1.433 . S
C795 N798 1.384 . S
C796 H787 0.929 . S
C796 C788 1.378 . S
C796 C791 1.350 . S
C797 H784 0.929 . S
C797 C789 1.433 . S
C797 N799 1.384 . S
N798 C794 1.427 . S
N798 C795 1.384 . S
N799 C791 1.427 . S
N799 C797 1.384 . S
C231 C207 1.488 . S
C235 C11 1.488 . S
C249 C33 1.397 . S
C253 C5 1.397 . S
C267 C165 1.489 . S
C271 C25 1.489 . S
C285 C19 1.391 . S
C289 C103 1.391 . S
C303 C39 1.497 . S
C307 C179 1.497 . S
C321 C137 1.496 . S
C325 C53 1.496 . S
C339 C47 1.376 . S
C343 C75 1.376 . S
C357 C151 1.499 . S
C361 C67 1.499 . S
C375 C61 1.373 . S
C379 C89 1.373 . S
C393 C221 1.500 . S
C397 C81 1.500 . S
C411 C123 1.498 . S
C415 C95 1.498 . S
C429 C193 1.488 . S
C433 C109 1.488 . S
C447 C117 1.379 . S
C451 C145 1.379 . S
C465 C215 1.397 . S
C469 C131 1.397 . S
C483 C159 1.392 . S
C487 C187 1.392 . S
C501 C201 1.375 . S
C505 C173 1.375 . S
C519 C74 1.109 . S
C523 C4 1.103 1_565 S
C537 C12 1.175 . S
C541 C82 1.170 . S
C555 C18 1.092 . S
C559 C60 1.096 . S
C573 C68 1.172 . S
C577 C26 1.169 1_565 S
C591 C102 1.098 . S
C595 C32 1.092 . S
C609 C110 1.176 . S
C613 C40 1.176 . S
C627 C88 1.095 . S
C631 C46 1.091 . S
C645 C54 1.176 1_545 S
C649 C96 1.171 . S
C663 C186 1.109 . S
C667 C116 1.103 1_565 S
C681 C124 1.170 . S
C685 C194 1.170 . S
C699 C130 1.094 . S
C703 C172 1.101 . S
C717 C180 1.171 . S
C721 C138 1.170 1_565 S
C735 C214 1.096 . S
C739 C144 1.091 . S
C753 C222 1.169 . S
C757 C152 1.172 . S
C771 C158 1.108 . S
C775 C200 1.108 . S
C789 C208 1.169 . S
C793 C166 1.172 1_545 S
