# Generated by pormake.
# Topology gsi, (4)-cn, num edge types: 1
# Building blocks:
#     Node 0, Type 0, BuildingBlock: GALJAG_clean_sbu_0, # of connection points: 4
#     Node 1, Type 0, BuildingBlock: GALJAG_clean_sbu_0, # of connection points: 4
#     Node 2, Type 0, BuildingBlock: GALJAG_clean_sbu_0, # of connection points: 4
#     Node 3, Type 0, BuildingBlock: GALJAG_clean_sbu_0, # of connection points: 4
#     Node 4, Type 0, BuildingBlock: GALJAG_clean_sbu_0, # of connection points: 4
#     Node 5, Type 0, BuildingBlock: GALJAG_clean_sbu_0, # of connection points: 4
#     Node 6, Type 0, BuildingBlock: GALJAG_clean_sbu_0, # of connection points: 4
#     Node 7, Type 0, BuildingBlock: GALJAG_clean_sbu_0, # of connection points: 4
#     Node 8, Type 0, BuildingBlock: GALJAG_clean_sbu_0, # of connection points: 4
#     Node 9, Type 0, BuildingBlock: GALJAG_clean_sbu_0, # of connection points: 4
#     Node 10, Type 0, BuildingBlock: GALJAG_clean_sbu_0, # of connection points: 4
#     Node 11, Type 0, BuildingBlock: GALJAG_clean_sbu_0, # of connection points: 4
#     Node 12, Type 0, BuildingBlock: GALJAG_clean_sbu_0, # of connection points: 4
#     Node 13, Type 0, BuildingBlock: GALJAG_clean_sbu_0, # of connection points: 4
#     Node 14, Type 0, BuildingBlock: GALJAG_clean_sbu_0, # of connection points: 4
#     Node 15, Type 0, BuildingBlock: GALJAG_clean_sbu_0, # of connection points: 4
#     Edge 16, Type (0, 0), BuildingBlock: TEMPAE_clean_linker_10, # of connection points: 2
#     Edge 17, Type (0, 0), BuildingBlock: TEMPAE_clean_linker_10, # of connection points: 2
#     Edge 18, Type (0, 0), BuildingBlock: TEMPAE_clean_linker_10, # of connection points: 2
#     Edge 19, Type (0, 0), BuildingBlock: TEMPAE_clean_linker_10, # of connection points: 2
#     Edge 20, Type (0, 0), BuildingBlock: TEMPAE_clean_linker_10, # of connection points: 2
#     Edge 21, Type (0, 0), BuildingBlock: TEMPAE_clean_linker_10, # of connection points: 2
#     Edge 22, Type (0, 0), BuildingBlock: TEMPAE_clean_linker_10, # of connection points: 2
#     Edge 23, Type (0, 0), BuildingBlock: TEMPAE_clean_linker_10, # of connection points: 2
#     Edge 24, Type (0, 0), BuildingBlock: TEMPAE_clean_linker_10, # of connection points: 2
#     Edge 25, Type (0, 0), BuildingBlock: TEMPAE_clean_linker_10, # of connection points: 2
#     Edge 26, Type (0, 0), BuildingBlock: TEMPAE_clean_linker_10, # of connection points: 2
#     Edge 27, Type (0, 0), BuildingBlock: TEMPAE_clean_linker_10, # of connection points: 2
#     Edge 28, Type (0, 0), BuildingBlock: TEMPAE_clean_linker_10, # of connection points: 2
#     Edge 29, Type (0, 0), BuildingBlock: TEMPAE_clean_linker_10, # of connection points: 2
#     Edge 30, Type (0, 0), BuildingBlock: TEMPAE_clean_linker_10, # of connection points: 2
#     Edge 31, Type (0, 0), BuildingBlock: TEMPAE_clean_linker_10, # of connection points: 2
#     Edge 32, Type (0, 0), BuildingBlock: TEMPAE_clean_linker_10, # of connection points: 2
#     Edge 33, Type (0, 0), BuildingBlock: TEMPAE_clean_linker_10, # of connection points: 2
#     Edge 34, Type (0, 0), BuildingBlock: TEMPAE_clean_linker_10, # of connection points: 2
#     Edge 35, Type (0, 0), BuildingBlock: TEMPAE_clean_linker_10, # of connection points: 2
#     Edge 36, Type (0, 0), BuildingBlock: TEMPAE_clean_linker_10, # of connection points: 2
#     Edge 37, Type (0, 0), BuildingBlock: TEMPAE_clean_linker_10, # of connection points: 2
#     Edge 38, Type (0, 0), BuildingBlock: TEMPAE_clean_linker_10, # of connection points: 2
#     Edge 39, Type (0, 0), BuildingBlock: TEMPAE_clean_linker_10, # of connection points: 2
#     Edge 40, Type (0, 0), BuildingBlock: TEMPAE_clean_linker_10, # of connection points: 2
#     Edge 41, Type (0, 0), BuildingBlock: TEMPAE_clean_linker_10, # of connection points: 2
#     Edge 42, Type (0, 0), BuildingBlock: TEMPAE_clean_linker_10, # of connection points: 2
#     Edge 43, Type (0, 0), BuildingBlock: TEMPAE_clean_linker_10, # of connection points: 2
#     Edge 44, Type (0, 0), BuildingBlock: TEMPAE_clean_linker_10, # of connection points: 2
#     Edge 45, Type (0, 0), BuildingBlock: TEMPAE_clean_linker_10, # of connection points: 2
#     Edge 46, Type (0, 0), BuildingBlock: TEMPAE_clean_linker_10, # of connection points: 2
#     Edge 47, Type (0, 0), BuildingBlock: TEMPAE_clean_linker_10, # of connection points: 2
# Relax obj value: 0.227
# Max RMSD: 0.210
# Mean RMSD: 0.172
data_MOF--net-gsi--node1-GALJAG_clean_sbu_0--edge1-TEMPAE_clean_linker_10
_symmetry_space_group_name_H-M    P1
_symmetry_Int_Tables_number       1
_symmetry_cell_setting            triclinic
loop_
_symmetry_equiv_pos_as_xyz
'x, y, z'
_cell_length_a     41.188295
_cell_length_b     40.105834
_cell_length_c     45.46717
_cell_angle_alpha  89.973384
_cell_angle_beta   89.990578
_cell_angle_gamma 105.37863
loop_
_atom_site_label
_atom_site_type_symbol
_atom_site_fract_x
_atom_site_fract_y
_atom_site_fract_z
_atom_type_partial_charge
In0 In 0.13652 0.1463 0.13429 0.0
O1 O 0.17898 0.15356 0.10123 0.0
O2 O 0.1317 0.12033 0.08877 0.0
C3 C 0.18567 0.18431 0.16888 0.0
C4 C 0.08852 0.17951 0.12279 0.0
C5 C 0.11853 0.09061 0.17017 0.0
O6 O 0.18602 0.15512 0.15891 0.0
O7 O 0.16099 0.19502 0.16061 0.0
O8 O 0.11654 0.12027 0.17764 0.0
O9 O 0.12706 0.08839 0.14372 0.0
C10 C 0.16212 0.13379 0.08195 0.0
O11 O 0.08208 0.15068 0.13585 0.0
O12 O 0.11875 0.19087 0.1148 0.0
In13 In 0.86641 0.34539 0.13485 0.0
O14 O 0.92269 0.34767 0.13713 0.0
O15 O 0.89089 0.30841 0.11108 0.0
C16 C 0.86121 0.39951 0.16803 0.0
C17 C 0.8392 0.35794 0.08332 0.0
C18 C 0.83731 0.2976 0.17501 0.0
O19 O 0.88868 0.39908 0.15569 0.0
O20 O 0.83694 0.37367 0.16258 0.0
O21 O 0.82283 0.30151 0.15124 0.0
O22 O 0.86676 0.31691 0.17785 0.0
C23 C 0.92003 0.32132 0.12111 0.0
O24 O 0.82786 0.3307 0.09812 0.0
O25 O 0.86486 0.37886 0.09425 0.0
In26 In 0.17628 0.87184 0.35212 0.0
O27 O 0.14251 0.81698 0.35489 0.0
O28 O 0.12561 0.8565 0.37605 0.0
C29 C 0.20628 0.83593 0.31576 0.0
C30 C 0.15983 0.92217 0.32014 0.0
C31 C 0.21638 0.89365 0.39945 0.0
O32 O 0.20571 0.83227 0.34332 0.0
O33 O 0.19177 0.85789 0.30641 0.0
O34 O 0.22773 0.89208 0.37391 0.0
O35 O 0.1847 0.88626 0.40089 0.0
C36 C 0.1196 0.82487 0.36947 0.0
O37 O 0.18838 0.92662 0.33203 0.0
O38 O 0.13984 0.89304 0.32502 0.0
In39 In 0.82188 0.63617 0.34211 0.0
O40 O 0.87177 0.67341 0.32987 0.0
O41 O 0.86804 0.6513 0.37252 0.0
C42 C 0.79215 0.67504 0.30887 0.0
C43 C 0.82564 0.58049 0.30956 0.0
C44 C 0.78491 0.62996 0.39201 0.0
O45 O 0.82362 0.68193 0.31236 0.0
O46 O 0.77544 0.64826 0.32213 0.0
O47 O 0.78919 0.60384 0.37862 0.0
O48 O 0.79953 0.65855 0.38046 0.0
C49 C 0.88603 0.67154 0.35407 0.0
O50 O 0.83981 0.58709 0.33424 0.0
O51 O 0.80844 0.60076 0.3022 0.0
In52 In 0.36677 0.84632 0.6334 0.0
O53 O 0.4229 0.84868 0.63778 0.0
O54 O 0.39303 0.81117 0.60906 0.0
C55 C 0.36023 0.89941 0.66718 0.0
C56 C 0.34152 0.86118 0.58169 0.0
C57 C 0.33609 0.79749 0.67221 0.0
O58 O 0.38813 0.89938 0.65543 0.0
O59 O 0.33618 0.87365 0.66088 0.0
O60 O 0.32279 0.80142 0.64784 0.0
O61 O 0.36515 0.8172 0.67622 0.0
C62 C 0.42145 0.8235 0.62069 0.0
O63 O 0.33066 0.83258 0.59473 0.0
O64 O 0.36573 0.88223 0.59443 0.0
In65 In 0.87314 0.85316 0.87454 0.0
O66 O 0.8875 0.87654 0.82916 0.0
O67 O 0.88199 0.91063 0.86334 0.0
C68 C 0.92438 0.82414 0.88628 0.0
C69 C 0.84828 0.86727 0.92671 0.0
C70 C 0.82299 0.81279 0.84229 0.0
O71 O 0.92839 0.8512 0.871 0.0
O72 O 0.89513 0.81275 0.89652 0.0
O73 O 0.82099 0.84069 0.85389 0.0
O74 O 0.84984 0.80455 0.84785 0.0
C75 C 0.88718 0.90681 0.83632 0.0
O76 O 0.83539 0.84042 0.91193 0.0
O77 O 0.87449 0.88703 0.91552 0.0
In78 In 0.13846 0.64588 0.87294 0.0
O79 O 0.17642 0.65857 0.91019 0.0
O80 O 0.13487 0.6144 0.91558 0.0
C81 C 0.18867 0.68133 0.83788 0.0
C82 C 0.12119 0.59074 0.83657 0.0
C83 C 0.08989 0.67849 0.88441 0.0
O84 O 0.18921 0.65346 0.85036 0.0
O85 O 0.16345 0.69222 0.84408 0.0
O86 O 0.0835 0.64917 0.87225 0.0
O87 O 0.1203 0.69063 0.89148 0.0
C88 C 0.16188 0.63332 0.92618 0.0
O89 O 0.11715 0.61992 0.82986 0.0
O90 O 0.13144 0.5887 0.86251 0.0
In91 In 0.83245 0.13101 0.65804 0.0
O92 O 0.87642 0.17749 0.66688 0.0
O93 O 0.87506 0.15315 0.62523 0.0
C94 C 0.80417 0.17116 0.69147 0.0
C95 C 0.7901 0.11087 0.61196 0.0
C96 C 0.84671 0.07782 0.68796 0.0
O97 O 0.81052 0.17677 0.6645 0.0
O98 O 0.81209 0.14512 0.70174 0.0
O99 O 0.81704 0.07803 0.6813 0.0
O100 O 0.8689 0.10355 0.67861 0.0
C101 C 0.89035 0.17706 0.64225 0.0
O102 O 0.82086 0.11146 0.61067 0.0
O103 O 0.7806 0.11852 0.63678 0.0
In104 In 0.17844 0.3781 0.64844 0.0
O105 O 0.1909 0.39523 0.60059 0.0
O106 O 0.23145 0.39582 0.62934 0.0
C107 C 0.16153 0.42641 0.68253 0.0
C108 C 0.12078 0.33508 0.62841 0.0
C109 C 0.20583 0.3385 0.68339 0.0
O110 O 0.18862 0.43297 0.66796 0.0
O111 O 0.1432 0.39608 0.67942 0.0
O112 O 0.19957 0.3321 0.65653 0.0
O113 O 0.19847 0.36521 0.69278 0.0
C114 C 0.22225 0.39994 0.60351 0.0
O115 O 0.1425 0.32501 0.64286 0.0
O116 O 0.12838 0.3672 0.62329 0.0
In117 In 0.64095 0.14201 0.37295 0.0
O118 O 0.61057 0.10924 0.33584 0.0
O119 O 0.63862 0.08546 0.36406 0.0
C120 C 0.59085 0.17424 0.3778 0.0
C121 C 0.6647 0.13391 0.42696 0.0
C122 C 0.69476 0.17685 0.34124 0.0
O123 O 0.60035 0.15922 0.39925 0.0
O124 O 0.60575 0.17196 0.354 0.0
O125 O 0.67612 0.19203 0.35484 0.0
O126 O 0.68698 0.14459 0.34466 0.0
C127 C 0.62066 0.08283 0.34133 0.0
O128 O 0.67717 0.16 0.41103 0.0
O129 O 0.63942 0.1124 0.41603 0.0
In130 In 0.63959 0.65102 0.63609 0.0
O131 O 0.58455 0.65316 0.63254 0.0
O132 O 0.62296 0.69763 0.61995 0.0
C133 C 0.63468 0.59019 0.66372 0.0
C134 C 0.66578 0.64022 0.58366 0.0
C135 C 0.67312 0.69145 0.67952 0.0
O136 O 0.60972 0.60276 0.66119 0.0
O137 O 0.66103 0.60728 0.65101 0.0
O138 O 0.68399 0.69358 0.65344 0.0
O139 O 0.64514 0.66972 0.68334 0.0
C140 C 0.59189 0.68405 0.62342 0.0
O141 O 0.68292 0.65795 0.60398 0.0
O142 O 0.63487 0.62803 0.58953 0.0
In143 In 0.6751 0.36531 0.84975 0.0
O144 O 0.64222 0.31534 0.86899 0.0
O145 O 0.62051 0.35753 0.8642 0.0
C146 C 0.70201 0.32591 0.81441 0.0
C147 C 0.66341 0.4135 0.81214 0.0
C148 C 0.7164 0.38277 0.89704 0.0
O149 O 0.67301 0.3153 0.82549 0.0
O150 O 0.71745 0.35663 0.82097 0.0
O151 O 0.68663 0.38567 0.89707 0.0
O152 O 0.72548 0.37268 0.87298 0.0
C153 C 0.61637 0.32634 0.87161 0.0
O154 O 0.67959 0.42183 0.83581 0.0
O155 O 0.65351 0.38146 0.80778 0.0
In156 In 0.3216 0.13465 0.8427 0.0
O157 O 0.37576 0.1612 0.83065 0.0
O158 O 0.36364 0.15689 0.87605 0.0
C159 C 0.29697 0.17765 0.80932 0.0
C160 C 0.32335 0.07866 0.80995 0.0
C161 C 0.2812 0.12486 0.89068 0.0
O162 O 0.32727 0.18483 0.81761 0.0
O163 O 0.27902 0.14854 0.8177 0.0
O164 O 0.29171 0.10063 0.87985 0.0
O165 O 0.29125 0.15332 0.87748 0.0
C166 C 0.38588 0.1677 0.85669 0.0
O167 O 0.3366 0.08398 0.83512 0.0
O168 O 0.30797 0.10045 0.80217 0.0
In169 In 0.37267 0.34788 0.37203 0.0
O170 O 0.3365 0.3352 0.4107 0.0
O171 O 0.3763 0.38137 0.41335 0.0
C172 C 0.33735 0.30586 0.33066 0.0
C173 C 0.37094 0.40424 0.34038 0.0
C174 C 0.42181 0.31614 0.3831 0.0
O175 O 0.32581 0.3077 0.35621 0.0
O176 O 0.36692 0.32439 0.32648 0.0
O177 O 0.42856 0.3478 0.37613 0.0
O178 O 0.39084 0.3015 0.38538 0.0
C179 C 0.35035 0.362 0.42522 0.0
O180 O 0.39835 0.39641 0.3451 0.0
O181 O 0.34551 0.38468 0.35268 0.0
In182 In 0.32403 0.63156 0.15926 0.0
O183 O 0.38096 0.65017 0.1637 0.0
O184 O 0.35894 0.66761 0.12657 0.0
C185 C 0.29866 0.67708 0.18901 0.0
C186 C 0.28081 0.60957 0.11407 0.0
C187 C 0.3328 0.58112 0.19578 0.0
O188 O 0.32559 0.68617 0.17437 0.0
O189 O 0.28446 0.64506 0.18851 0.0
O190 O 0.32805 0.57609 0.1685 0.0
O191 O 0.33213 0.61076 0.20427 0.0
C192 C 0.38545 0.66843 0.14075 0.0
O193 O 0.31072 0.60702 0.11363 0.0
O194 O 0.2725 0.62143 0.13771 0.0
In195 In 0.66949 0.87222 0.14798 0.0
O196 O 0.68496 0.89446 0.10185 0.0
O197 O 0.72317 0.88688 0.13009 0.0
C198 C 0.65334 0.91812 0.18496 0.0
C199 C 0.61065 0.83555 0.12454 0.0
C200 C 0.69247 0.82953 0.18345 0.0
O201 O 0.67621 0.92736 0.16575 0.0
O202 O 0.63892 0.88621 0.1852 0.0
O203 O 0.67808 0.81992 0.15927 0.0
O204 O 0.6954 0.8608 0.1898 0.0
C205 C 0.71566 0.89559 0.10493 0.0
O206 O 0.63562 0.82333 0.12784 0.0
O207 O 0.61574 0.86682 0.13198 0.0
C208 C 0.21025 0.23596 0.2001 0.0
C209 C 0.21059 0.20288 0.19051 0.0
C210 C 0.23209 0.25264 0.2224 0.0
C211 C 0.25446 0.2356 0.2355 0.0
C212 C 0.25533 0.20246 0.2255 0.0
C213 C 0.23346 0.18655 0.20299 0.0
C214 C 0.23079 0.2882 0.23232 0.0
C215 C 0.27873 0.18345 0.23909 0.0
C216 C 0.32906 0.29005 0.27774 0.0
C217 C 0.31704 0.28588 0.30673 0.0
C218 C 0.30905 0.27356 0.25432 0.0
C219 C 0.27643 0.25217 0.26014 0.0
C220 C 0.2645 0.24712 0.28945 0.0
C221 C 0.28494 0.26422 0.31244 0.0
C222 C 0.3225 0.27969 0.22331 0.0
C223 C 0.22994 0.22414 0.29645 0.0
H224 H 0.1926 0.24864 0.19046 0.0
H225 H 0.23368 0.16088 0.1957 0.0
H226 H 0.22292 0.28728 0.25571 0.0
H227 H 0.25618 0.30652 0.2308 0.0
H228 H 0.21298 0.29848 0.21901 0.0
H229 H 0.27693 0.15823 0.22822 0.0
H230 H 0.30517 0.19945 0.23769 0.0
H231 H 0.27266 0.17872 0.26276 0.0
H232 H 0.35384 0.30692 0.27323 0.0
H233 H 0.27562 0.26094 0.33484 0.0
H234 H 0.30631 0.2922 0.21017 0.0
H235 H 0.3218 0.2547 0.21255 0.0
H236 H 0.34876 0.29637 0.22263 0.0
H237 H 0.21042 0.23464 0.28597 0.0
H238 H 0.225 0.22185 0.32049 0.0
H239 H 0.22717 0.19788 0.28731 0.0
C240 C 0.83614 0.2753 0.22628 0.0
C241 C 0.81981 0.27557 0.19924 0.0
C242 C 0.81861 0.2583 0.25077 0.0
C243 C 0.784 0.24119 0.24807 0.0
C244 C 0.76775 0.24014 0.22051 0.0
C245 C 0.78589 0.25738 0.19638 0.0
C246 C 0.83678 0.25979 0.27979 0.0
C247 C 0.73088 0.2219 0.21677 0.0
C248 C 0.73887 0.17532 0.30421 0.0
C249 C 0.72099 0.19452 0.32025 0.0
C250 C 0.76048 0.1905 0.28126 0.0
C251 C 0.76425 0.22569 0.27428 0.0
C252 C 0.74751 0.24562 0.29131 0.0
C253 C 0.72602 0.22975 0.31415 0.0
C254 C 0.77805 0.16851 0.26367 0.0
C255 C 0.75114 0.28331 0.28458 0.0
H256 H 0.8624 0.28934 0.22858 0.0
H257 H 0.77319 0.25754 0.17552 0.0
H258 H 0.82626 0.27497 0.29584 0.0
H259 H 0.83292 0.23342 0.28901 0.0
H260 H 0.86426 0.2719 0.27767 0.0
H261 H 0.7225 0.22191 0.19354 0.0
H262 H 0.72574 0.19473 0.22442 0.0
H263 H 0.71548 0.23478 0.23047 0.0
H264 H 0.73509 0.14805 0.3089 0.0
H265 H 0.71226 0.24465 0.32652 0.0
H266 H 0.80538 0.18137 0.26203 0.0
H267 H 0.76787 0.16534 0.24096 0.0
H268 H 0.77473 0.14244 0.27349 0.0
H269 H 0.77814 0.2977 0.28381 0.0
H270 H 0.73825 0.29571 0.30112 0.0
H271 H 0.74027 0.28577 0.26261 0.0
C272 C 0.25309 0.6912 0.2186 0.0
C273 C 0.28517 0.70183 0.20588 0.0
C274 C 0.24032 0.71415 0.23542 0.0
C275 C 0.2603 0.74838 0.23987 0.0
C276 C 0.29259 0.75936 0.22682 0.0
C277 C 0.30458 0.73597 0.20982 0.0
C278 C 0.20562 0.70162 0.24876 0.0
C279 C 0.31472 0.79557 0.23133 0.0
C280 C 0.21631 0.81519 0.26563 0.0
C281 C 0.22149 0.815 0.29609 0.0
C282 C 0.22913 0.7939 0.24695 0.0
C283 C 0.24782 0.77225 0.25906 0.0
C284 C 0.2538 0.7726 0.28973 0.0
C285 C 0.2404 0.79386 0.3079 0.0
C286 C 0.22206 0.79398 0.21437 0.0
C287 C 0.27392 0.75013 0.30341 0.0
H288 H 0.23795 0.66487 0.21547 0.0
H289 H 0.32944 0.74425 0.20005 0.0
H290 H 0.20746 0.70263 0.2731 0.0
H291 H 0.18979 0.7188 0.24205 0.0
H292 H 0.19273 0.67471 0.24211 0.0
H293 H 0.3388 0.80032 0.219 0.0
H294 H 0.30131 0.81481 0.22421 0.0
H295 H 0.32052 0.80006 0.25506 0.0
H296 H 0.20163 0.83147 0.25644 0.0
H297 H 0.24458 0.79376 0.33144 0.0
H298 H 0.20716 0.76789 0.20739 0.0
H299 H 0.246 0.80003 0.20181 0.0
H300 H 0.20794 0.81305 0.20834 0.0
H301 H 0.26092 0.72246 0.29974 0.0
H302 H 0.27753 0.75458 0.32744 0.0
H303 H 0.29902 0.75521 0.2928 0.0
C304 C 0.74154 0.69301 0.29213 0.0
C305 C 0.77632 0.69686 0.29072 0.0
C306 C 0.72648 0.71422 0.27533 0.0
C307 C 0.7467 0.7394 0.25642 0.0
C308 C 0.78178 0.7431 0.25473 0.0
C309 C 0.79621 0.72194 0.27208 0.0
C310 C 0.68904 0.70987 0.27794 0.0
C311 C 0.80408 0.76935 0.23452 0.0
C312 C 0.70611 0.7734 0.19225 0.0
C313 C 0.70527 0.8061 0.20253 0.0
C314 C 0.71917 0.75121 0.20972 0.0
C315 C 0.73127 0.76189 0.23826 0.0
C316 C 0.72982 0.79459 0.24899 0.0
C317 C 0.717 0.81643 0.23089 0.0
C318 C 0.72066 0.71667 0.19742 0.0
C319 C 0.74217 0.80666 0.27945 0.0
H320 H 0.72614 0.67373 0.30665 0.0
H321 H 0.82311 0.72487 0.27085 0.0
H322 H 0.68419 0.73458 0.28503 0.0
H323 H 0.67684 0.70324 0.2562 0.0
H324 H 0.67697 0.68935 0.29392 0.0
H325 H 0.83082 0.76856 0.23546 0.0
H326 H 0.79511 0.7646 0.21149 0.0
H327 H 0.80275 0.79577 0.2405 0.0
H328 H 0.69708 0.76534 0.1703 0.0
H329 H 0.7162 0.84164 0.23896 0.0
H330 H 0.70711 0.69549 0.21217 0.0
H331 H 0.74723 0.71546 0.19628 0.0
H332 H 0.70947 0.71193 0.17508 0.0
H333 H 0.72935 0.78738 0.29607 0.0
H334 H 0.73774 0.83207 0.285 0.0
H335 H 0.76955 0.80898 0.28113 0.0
C336 C 0.28518 0.75384 0.69094 0.0
C337 C 0.31754 0.77534 0.69592 0.0
C338 C 0.26561 0.73644 0.71434 0.0
C339 C 0.27864 0.74111 0.74331 0.0
C340 C 0.31181 0.76165 0.74826 0.0
C341 C 0.33096 0.77835 0.72445 0.0
C342 C 0.2305 0.71422 0.70821 0.0
C343 C 0.32647 0.76742 0.77887 0.0
C344 C 0.21453 0.73078 0.80476 0.0
C345 C 0.21361 0.6978 0.81544 0.0
C346 C 0.23612 0.74544 0.78162 0.0
C347 C 0.25682 0.72637 0.76864 0.0
C348 C 0.25633 0.69324 0.77964 0.0
C349 C 0.23487 0.67944 0.80311 0.0
C350 C 0.23638 0.78111 0.77075 0.0
C351 C 0.27778 0.67204 0.76612 0.0
H352 H 0.27478 0.75139 0.6689 0.0
H353 H 0.35597 0.79501 0.72842 0.0
H354 H 0.22677 0.68838 0.71848 0.0
H355 H 0.21176 0.72631 0.71808 0.0
H356 H 0.22529 0.71076 0.68427 0.0
H357 H 0.35344 0.78214 0.77873 0.0
H358 H 0.3122 0.782 0.7921 0.0
H359 H 0.32408 0.74233 0.7901 0.0
H360 H 0.1981 0.74499 0.81429 0.0
H361 H 0.23399 0.65377 0.81117 0.0
H362 H 0.22793 0.77968 0.7475 0.0
H363 H 0.26236 0.79832 0.77145 0.0
H364 H 0.21975 0.79303 0.78399 0.0
H365 H 0.27064 0.66659 0.74273 0.0
H366 H 0.27504 0.64706 0.77772 0.0
H367 H 0.30469 0.68675 0.76651 0.0
C368 C 0.68176 0.70283 0.73317 0.0
C369 C 0.69255 0.71091 0.70415 0.0
C370 C 0.70117 0.71907 0.75701 0.0
C371 C 0.73189 0.74418 0.75162 0.0
C372 C 0.74245 0.75315 0.72235 0.0
C373 C 0.72269 0.73624 0.69891 0.0
C374 C 0.68924 0.70872 0.78793 0.0
C375 C 0.77495 0.78011 0.71581 0.0
C376 C 0.7717 0.80735 0.81166 0.0
C377 C 0.79763 0.79339 0.82135 0.0
C378 C 0.74966 0.79126 0.78929 0.0
C379 C 0.75357 0.76038 0.77657 0.0
C380 C 0.77893 0.74549 0.78703 0.0
C381 C 0.80078 0.76228 0.80926 0.0
C382 C 0.72296 0.80791 0.77861 0.0
C383 C 0.78357 0.71234 0.77417 0.0
H384 H 0.6585 0.68314 0.73731 0.0
H385 H 0.73104 0.74258 0.67649 0.0
H386 H 0.70761 0.69729 0.79925 0.0
H387 H 0.68774 0.73181 0.80073 0.0
H388 H 0.66417 0.68961 0.78834 0.0
H389 H 0.77879 0.78519 0.69187 0.0
H390 H 0.77518 0.80474 0.72702 0.0
H391 H 0.79655 0.77145 0.72448 0.0
H392 H 0.76926 0.83149 0.82089 0.0
H393 H 0.82078 0.75141 0.81675 0.0
H394 H 0.69779 0.78911 0.77958 0.0
H395 H 0.72781 0.81581 0.75528 0.0
H396 H 0.72226 0.83106 0.79175 0.0
H397 H 0.75956 0.6917 0.7752 0.0
H398 H 0.80332 0.70322 0.78583 0.0
H399 H 0.79072 0.71632 0.75065 0.0
C400 C 0.69685 0.27207 0.78537 0.0
C401 C 0.71693 0.3037 0.79584 0.0
C402 C 0.71072 0.25032 0.76815 0.0
C403 C 0.74557 0.26029 0.76163 0.0
C404 C 0.76597 0.2922 0.77218 0.0
C405 C 0.75133 0.31367 0.78903 0.0
C406 C 0.6881 0.2167 0.75693 0.0
C407 C 0.80329 0.30349 0.76589 0.0
C408 C 0.78679 0.18971 0.7401 0.0
C409 C 0.789 0.19367 0.70949 0.0
C410 C 0.77289 0.2114 0.75741 0.0
C411 C 0.76063 0.23734 0.74367 0.0
C412 C 0.7626 0.24127 0.71274 0.0
C413 C 0.77694 0.21947 0.69602 0.0
C414 C 0.77144 0.20668 0.79038 0.0
C415 C 0.74947 0.26841 0.6973 0.0
H416 H 0.6702 0.26435 0.79053 0.0
H417 H 0.76694 0.33805 0.79723 0.0
H418 H 0.68935 0.21591 0.73257 0.0
H419 H 0.69685 0.19463 0.7654 0.0
H420 H 0.66143 0.21303 0.76358 0.0
H421 H 0.81567 0.32893 0.77594 0.0
H422 H 0.81557 0.28396 0.77446 0.0
H423 H 0.80768 0.30531 0.7418 0.0
H424 H 0.79621 0.16985 0.75057 0.0
H425 H 0.77852 0.22254 0.67233 0.0
H426 H 0.74493 0.20068 0.798 0.0
H427 H 0.78525 0.23105 0.8013 0.0
H428 H 0.78246 0.18559 0.79765 0.0
H429 H 0.72235 0.26445 0.70233 0.0
H430 H 0.7526 0.26784 0.67305 0.0
H431 H 0.76287 0.2945 0.70542 0.0
C432 C 0.22886 0.28751 0.69003 0.0
C433 C 0.21985 0.31585 0.7023 0.0
C434 C 0.24155 0.26519 0.70764 0.0
C435 C 0.24513 0.2713 0.73826 0.0
C436 C 0.23616 0.29993 0.75079 0.0
C437 C 0.22368 0.32197 0.73261 0.0
C438 C 0.25104 0.23503 0.69348 0.0
C439 C 0.23955 0.30711 0.7834 0.0
C440 C 0.24893 0.19507 0.78631 0.0
C441 C 0.28361 0.20166 0.79138 0.0
C442 C 0.23597 0.21785 0.76942 0.0
C443 C 0.25832 0.24765 0.75711 0.0
C444 C 0.29336 0.25442 0.76219 0.0
C445 C 0.30558 0.23139 0.77941 0.0
C446 C 0.19842 0.20997 0.76463 0.0
C447 C 0.31796 0.28577 0.74917 0.0
H448 H 0.22596 0.2827 0.66659 0.0
H449 H 0.21666 0.34382 0.74216 0.0
H450 H 0.27789 0.23663 0.69794 0.0
H451 H 0.23587 0.21039 0.70311 0.0
H452 H 0.24707 0.23415 0.66929 0.0
H453 H 0.23142 0.33044 0.78967 0.0
H454 H 0.22417 0.2846 0.79582 0.0
H455 H 0.26611 0.31086 0.7903 0.0
H456 H 0.23187 0.17218 0.79567 0.0
H457 H 0.33243 0.23653 0.78326 0.0
H458 H 0.19268 0.2065 0.74081 0.0
H459 H 0.18904 0.23201 0.77222 0.0
H460 H 0.18441 0.18626 0.77644 0.0
H461 H 0.31613 0.28489 0.72482 0.0
H462 H 0.3444 0.2875 0.75553 0.0
H463 H 0.31163 0.30968 0.75646 0.0
C464 C 0.17528 0.97749 0.29139 0.0
C465 C 0.15093 0.94768 0.30028 0.0
C466 C 0.16755 0.00024 0.27064 0.0
C467 C 0.13464 0.99304 0.25865 0.0
C468 C 0.10974 0.96346 0.26818 0.0
C469 C 0.1182 0.94111 0.28881 0.0
C470 C 0.19481 0.03155 0.26103 0.0
C471 C 0.07433 0.95503 0.25612 0.0
C472 C 0.11074 0.06823 0.22171 0.0
C473 C 0.11721 0.06288 0.19202 0.0
C474 C 0.11525 0.04511 0.24356 0.0
C475 C 0.12661 0.016 0.23555 0.0
C476 C 0.13165 0.00961 0.20547 0.0
C477 C 0.12681 0.03309 0.18406 0.0
C478 C 0.10927 0.05265 0.27534 0.0
C479 C 0.14363 0.97879 0.19601 0.0
H480 H 0.20062 0.98265 0.30012 0.0
H481 H 0.09921 0.91812 0.29564 0.0
H482 H 0.19959 0.02989 0.23712 0.0
H483 H 0.18655 0.0554 0.26465 0.0
H484 H 0.21882 0.034 0.27303 0.0
H485 H 0.05751 0.93191 0.2668 0.0
H486 H 0.06347 0.97731 0.25928 0.0
H487 H 0.07473 0.95019 0.23212 0.0
H488 H 0.10336 0.09123 0.22804 0.0
H489 H 0.13199 0.02887 0.16118 0.0
H490 H 0.1335 0.0588 0.28747 0.0
H491 H 0.0924 0.02956 0.28594 0.0
H492 H 0.09793 0.07474 0.27772 0.0
H493 H 0.16926 0.98119 0.20487 0.0
H494 H 0.14446 0.97638 0.1717 0.0
H495 H 0.12689 0.95463 0.2051 0.0
C496 C 0.82838 0.42084 0.20621 0.0
C497 C 0.85746 0.42669 0.18876 0.0
C498 C 0.82404 0.4455 0.22659 0.0
C499 C 0.84918 0.47711 0.22937 0.0
C500 C 0.87866 0.48327 0.21182 0.0
C501 C 0.88258 0.45781 0.19183 0.0
C502 C 0.79242 0.43771 0.24508 0.0
C503 C 0.90581 0.51687 0.21395 0.0
C504 C 0.81985 0.55208 0.26035 0.0
C505 C 0.83096 0.55328 0.28958 0.0
C506 C 0.82628 0.52793 0.24041 0.0
C507 C 0.84388 0.50403 0.25 0.0
C508 C 0.85497 0.50491 0.27957 0.0
C509 C 0.84856 0.5297 0.29899 0.0
C510 C 0.8142 0.52799 0.20904 0.0
C511 C 0.87335 0.47949 0.29072 0.0
H512 H 0.80897 0.39669 0.20417 0.0
H513 H 0.9051 0.4624 0.17843 0.0
H514 H 0.79907 0.44017 0.26877 0.0
H515 H 0.77789 0.45673 0.24022 0.0
H516 H 0.77593 0.41131 0.24106 0.0
H517 H 0.92736 0.5175 0.19906 0.0
H518 H 0.89523 0.53878 0.20828 0.0
H519 H 0.9153 0.52101 0.23685 0.0
H520 H 0.80649 0.57043 0.25286 0.0
H521 H 0.8573 0.53061 0.32153 0.0
H522 H 0.79578 0.50298 0.20402 0.0
H523 H 0.83566 0.53079 0.19364 0.0
H524 H 0.80209 0.54919 0.20478 0.0
H525 H 0.85715 0.45271 0.28825 0.0
H526 H 0.88069 0.48388 0.3142 0.0
H527 H 0.89638 0.48144 0.27744 0.0
C528 C 0.25414 0.09192 0.93525 0.0
C529 C 0.25962 0.12117 0.91714 0.0
C530 C 0.23587 0.09 0.96164 0.0
C531 C 0.22266 0.11788 0.96986 0.0
C532 C 0.22694 0.14676 0.95095 0.0
C533 C 0.24545 0.1481 0.92493 0.0
C534 C 0.2319 0.05884 0.98129 0.0
C535 C 0.2131 0.17695 0.95875 0.0
C536 C 0.15727 0.11042 0.03045 0.0
C537 C 0.17729 0.12734 0.05374 0.0
C538 C 0.17175 0.10605 0.00317 0.0
C539 C 0.20703 0.11864 0.9993 0.0
C540 C 0.22739 0.13465 0.02312 0.0
C541 C 0.21227 0.13894 0.04995 0.0
C542 C 0.14922 0.08907 0.97822 0.0
C543 C 0.26512 0.14825 0.02001 0.0
H544 H 0.26499 0.07102 0.92927 0.0
H545 H 0.24932 0.17066 0.91087 0.0
H546 H 0.24651 0.0666 0.00182 0.0
H547 H 0.20513 0.04832 0.98768 0.0
H548 H 0.24081 0.03801 0.97055 0.0
H549 H 0.21621 0.19607 0.94058 0.0
H550 H 0.18595 0.16773 0.96427 0.0
H551 H 0.22627 0.19028 0.97847 0.0
H552 H 0.13023 0.10135 0.03331 0.0
H553 H 0.22792 0.15176 0.06796 0.0
H554 H 0.1586 0.06803 0.96848 0.0
H555 H 0.14964 0.10832 0.96059 0.0
H556 H 0.12275 0.07818 0.98542 0.0
H557 H 0.27606 0.12773 0.0114 0.0
H558 H 0.27757 0.15775 0.04121 0.0
H559 H 0.27108 0.16987 0.00396 0.0
C560 C 0.79657 0.33913 0.04352 0.0
C561 C 0.823 0.36488 0.05575 0.0
C562 C 0.78042 0.34517 0.01768 0.0
C563 C 0.79072 0.3779 0.0038 0.0
C564 C 0.81728 0.40412 0.01611 0.0
C565 C 0.83324 0.39724 0.0419 0.0
C566 C 0.75243 0.31638 0.00513 0.0
C567 C 0.8288 0.43939 0.00204 0.0
C568 C 0.7682 0.37743 0.92287 0.0
C569 C 0.73761 0.38657 0.92377 0.0
C570 C 0.78649 0.37591 0.94864 0.0
C571 C 0.77407 0.38406 0.97598 0.0
C572 C 0.74416 0.39518 0.97684 0.0
C573 C 0.72616 0.39612 0.95071 0.0
C574 C 0.81812 0.36373 0.94675 0.0
C575 C 0.73035 0.40453 0.00552 0.0
H576 H 0.78854 0.31406 0.05411 0.0
H577 H 0.85354 0.4173 0.05135 0.0
H578 H 0.72891 0.32479 0.00364 0.0
H579 H 0.75903 0.31015 0.9825 0.0
H580 H 0.74739 0.29246 0.01863 0.0
H581 H 0.84926 0.45721 0.01471 0.0
H582 H 0.83798 0.43699 0.97941 0.0
H583 H 0.80731 0.4511 1.0002 0.0
H584 H 0.77723 0.37002 0.90213 0.0
H585 H 0.70259 0.4033 0.95153 0.0
H586 H 0.81389 0.33823 0.95776 0.0
H587 H 0.83915 0.38199 0.95838 0.0
H588 H 0.82587 0.36109 0.92365 0.0
H589 H 0.72144 0.38097 0.01922 0.0
H590 H 0.70902 0.41622 0.00212 0.0
H591 H 0.75039 0.42297 0.01808 0.0
C592 C 0.3038 0.84334 0.53834 0.0
C593 C 0.32606 0.86962 0.55425 0.0
C594 C 0.28779 0.85085 0.51291 0.0
C595 C 0.29373 0.88559 0.50339 0.0
C596 C 0.3163 0.91227 0.5193 0.0
C597 C 0.33243 0.90392 0.54445 0.0
C598 C 0.26432 0.82156 0.49632 0.0
C599 C 0.32293 0.94962 0.51006 0.0
C600 C 0.27139 0.89584 0.4235 0.0
C601 C 0.23805 0.89802 0.42591 0.0
C602 C 0.29044 0.89339 0.44862 0.0
C603 C 0.27597 0.89364 0.47684 0.0
C604 C 0.24315 0.89823 0.47942 0.0
C605 C 0.22447 0.9001 0.4539 0.0
C606 C 0.32521 0.88823 0.44487 0.0
C607 C 0.22705 0.89929 0.50912 0.0
H608 H 0.29888 0.81678 0.54577 0.0
H609 H 0.34947 0.92435 0.55681 0.0
H610 H 0.23851 0.82511 0.4962 0.0
H611 H 0.27256 0.82162 0.47308 0.0
H612 H 0.26327 0.7959 0.50608 0.0
H613 H 0.34148 0.96726 0.52459 0.0
H614 H 0.33251 0.95291 0.48715 0.0
H615 H 0.29907 0.95752 0.51045 0.0
H616 H 0.28203 0.89412 0.40192 0.0
H617 H 0.19876 0.90191 0.4559 0.0
H618 H 0.32493 0.86159 0.4517 0.0
H619 H 0.34358 0.90634 0.45913 0.0
H620 H 0.3341 0.89206 0.42173 0.0
H621 H 0.22144 0.8733 0.51941 0.0
H622 H 0.20322 0.9072 0.5075 0.0
H623 H 0.24457 0.9175 0.52396 0.0
C624 C 0.66117 0.62189 0.53073 0.0
C625 C 0.68115 0.63438 0.55537 0.0
C626 C 0.67598 0.61814 0.50347 0.0
C627 C 0.71154 0.62661 0.50101 0.0
C628 C 0.73171 0.63806 0.52612 0.0
C629 C 0.71629 0.64206 0.5529 0.0
C630 C 0.65366 0.60627 0.47711 0.0
C631 C 0.76968 0.64698 0.52455 0.0
C632 C 0.75462 0.59729 0.43547 0.0
C633 C 0.76442 0.62789 0.41902 0.0
C634 C 0.73664 0.59613 0.46195 0.0
C635 C 0.72794 0.62614 0.47186 0.0
C636 C 0.73683 0.6567 0.45475 0.0
C637 C 0.75515 0.65726 0.42869 0.0
C638 C 0.7279 0.56319 0.47976 0.0
C639 C 0.72772 0.68914 0.46432 0.0
H640 H 0.634 0.61592 0.53256 0.0
H641 H 0.73186 0.65141 0.57196 0.0
H642 H 0.65788 0.62745 0.46066 0.0
H643 H 0.66013 0.58405 0.46637 0.0
H644 H 0.62652 0.59856 0.48305 0.0
H645 H 0.78161 0.65294 0.54652 0.0
H646 H 0.77792 0.62523 0.51478 0.0
H647 H 0.77911 0.6698 0.51011 0.0
H648 H 0.76173 0.57453 0.42804 0.0
H649 H 0.76237 0.68091 0.41591 0.0
H650 H 0.70057 0.55535 0.48477 0.0
H651 H 0.74146 0.56763 0.50109 0.0
H652 H 0.73467 0.54157 0.46821 0.0
H653 H 0.70032 0.68338 0.46884 0.0
H654 H 0.73442 0.70996 0.44751 0.0
H655 H 0.74108 0.69896 0.48504 0.0
C656 C 0.97537 0.31184 0.13611 0.0
C657 C 0.94747 0.30416 0.11724 0.0
C658 C 0.99906 0.29225 0.13545 0.0
C659 C 0.99499 0.26466 0.11512 0.0
C660 C 0.96772 0.25789 0.09508 0.0
C661 C 0.94415 0.27754 0.09654 0.0
C662 C 0.02762 0.30012 0.15736 0.0
C663 C 0.9628 0.22916 0.07273 0.0
C664 C 0.07081 0.22937 0.10125 0.0
C665 C 0.0635 0.19978 0.11913 0.0
C666 C 0.04844 0.25034 0.09922 0.0
C667 C 0.01828 0.24182 0.11583 0.0
C668 C 0.01056 0.21169 0.1336 0.0
C669 C 0.03315 0.1909 0.13486 0.0
C670 C 0.0573 0.28186 0.07963 0.0
C671 C 0.97882 0.20186 0.15187 0.0
H672 H 0.97794 0.33223 0.15229 0.0
H673 H 0.92266 0.27154 0.08184 0.0
H674 H 0.0251 0.27773 0.17235 0.0
H675 H 0.0521 0.30423 0.14582 0.0
H676 H 0.02816 0.32339 0.17079 0.0
H677 H 0.942 0.22909 0.05716 0.0
H678 H 0.98629 0.23163 0.05997 0.0
H679 H 0.957 0.20382 0.08416 0.0
H680 H 0.09421 0.23633 0.08899 0.0
H681 H 0.02746 0.16819 0.14884 0.0
H682 H 0.06043 0.30556 0.0931 0.0
H683 H 0.03654 0.28105 0.06386 0.0
H684 H 0.08088 0.28397 0.06705 0.0
H685 H 0.97863 0.22287 0.16769 0.0
H686 H 0.97638 0.1775 0.16435 0.0
H687 H 0.95642 0.19864 0.13753 0.0
C688 C 0.93819 0.71538 0.33886 0.0
C689 C 0.92074 0.69225 0.36019 0.0
C690 C 0.97091 0.73581 0.34406 0.0
C691 C 0.98668 0.733 0.37126 0.0
C692 C 0.96926 0.70966 0.39294 0.0
C693 C 0.93637 0.68953 0.38715 0.0
C694 C 0.98862 0.76042 0.32035 0.0
C695 C 0.98539 0.70597 0.42214 0.0
C696 C 0.08146 0.76529 0.36611 0.0
C697 C 0.08683 0.79976 0.37512 0.0
C698 C 0.04915 0.74243 0.36667 0.0
C699 C 0.02162 0.75439 0.37643 0.0
C700 C 0.02728 0.78846 0.38748 0.0
C701 C 0.0599 0.81079 0.38671 0.0
C702 C 0.0442 0.70623 0.35486 0.0
C703 C 0.99857 0.80212 0.39819 0.0
H704 H 0.9262 0.71766 0.318 0.0
H705 H 0.92292 0.67168 0.40371 0.0
H706 H 0.99593 0.78726 0.32896 0.0
H707 H 0.01206 0.75384 0.31363 0.0
H708 H 0.97265 0.75972 0.30055 0.0
H709 H 0.96837 0.68685 0.43673 0.0
H710 H 0.00877 0.69773 0.41857 0.0
H711 H 0.9927 0.73131 0.43355 0.0
H712 H 0.10226 0.75655 0.35733 0.0
H713 H 0.06397 0.83737 0.39384 0.0
H714 H 0.03122 0.70399 0.33328 0.0
H715 H 0.02802 0.68702 0.36986 0.0
H716 H 0.06848 0.69952 0.35182 0.0
H717 H 0.98298 0.80573 0.37915 0.0
H718 H 0.00762 0.8273 0.40972 0.0
H719 H 0.98203 0.78334 0.4133 0.0
C720 C 0.53458 0.69254 0.63197 0.0
C721 C 0.56661 0.7039 0.61924 0.0
C722 C 0.51162 0.71292 0.63063 0.0
C723 C 0.52069 0.74513 0.61573 0.0
C724 C 0.55257 0.75611 0.60195 0.0
C725 C 0.57527 0.73553 0.60412 0.0
C726 C 0.47803 0.70046 0.64594 0.0
C727 C 0.56293 0.78989 0.58534 0.0
C728 C 0.44823 0.78269 0.59472 0.0
C729 C 0.44925 0.80677 0.6173 0.0
C730 C 0.47207 0.76335 0.5933 0.0
C731 C 0.49713 0.76768 0.61534 0.0
C732 C 0.49882 0.79266 0.63774 0.0
C733 C 0.47505 0.81215 0.63828 0.0
C734 C 0.46984 0.73758 0.56869 0.0
C735 C 0.52489 0.79779 0.66185 0.0
H736 H 0.52786 0.66823 0.64384 0.0
H737 H 0.59998 0.74438 0.59415 0.0
H738 H 0.47576 0.71918 0.66327 0.0
H739 H 0.45726 0.69897 0.63006 0.0
H740 H 0.47463 0.67463 0.65623 0.0
H741 H 0.58772 0.79368 0.57431 0.0
H742 H 0.54375 0.79091 0.56848 0.0
H743 H 0.56446 0.81176 0.60066 0.0
H744 H 0.42836 0.77849 0.57841 0.0
H745 H 0.47578 0.83051 0.65591 0.0
H746 H 0.46318 0.71096 0.5778 0.0
H747 H 0.49462 0.74177 0.55764 0.0
H748 H 0.45068 0.73935 0.55199 0.0
H749 H 0.52118 0.77355 0.67473 0.0
H750 H 0.52354 0.81902 0.6771 0.0
H751 H 0.55054 0.80371 0.65225 0.0
C752 C 0.82927 0.0242 0.71876 0.0
C753 C 0.85487 0.05145 0.70733 0.0
C754 C 0.83658 0.00082 0.73911 0.0
C755 C 0.87029 0.00486 0.7483 0.0
C756 C 0.89632 0.03187 0.73632 0.0
C757 C 0.8883 0.05479 0.71596 0.0
C758 C 0.80814 0.9722 0.75124 0.0
C759 C 0.93254 0.03703 0.74552 0.0
C760 C 0.88183 0.96553 0.82244 0.0
C761 C 0.8876 0.93394 0.81409 0.0
C762 C 0.87706 0.98929 0.80123 0.0
C763 C 0.87812 0.98126 0.77096 0.0
C764 C 0.88535 0.95005 0.76242 0.0
C765 C 0.89 0.92678 0.78408 0.0
C766 C 0.86962 0.02239 0.81124 0.0
C767 C 0.88685 0.94061 0.73039 0.0
H768 H 0.8034 0.02151 0.71221 0.0
H769 H 0.90823 0.07584 0.70725 0.0
H770 H 0.81325 0.94675 0.74741 0.0
H771 H 0.80624 0.97536 0.77537 0.0
H772 H 0.7835 0.97189 0.74114 0.0
H773 H 0.94997 0.05848 0.73333 0.0
H774 H 0.93517 0.04282 0.76939 0.0
H775 H 0.94041 0.01296 0.74182 0.0
H776 H 0.87983 0.97117 0.84558 0.0
H777 H 0.89439 0.90238 0.77744 0.0
H778 H 0.84378 0.02246 0.8044 0.0
H779 H 0.88726 0.04498 0.80065 0.0
H780 H 0.87161 0.02571 0.83549 0.0
H781 H 0.86166 0.93694 0.72023 0.0
H782 H 0.89492 0.9165 0.72738 0.0
H783 H 0.90456 0.96187 0.71831 0.0
C784 C 0.13225 0.53499 0.82116 0.0
C785 C 0.12001 0.56351 0.8143 0.0
C786 C 0.13697 0.51218 0.79915 0.0
C787 C 0.12899 0.51786 0.76959 0.0
C788 C 0.11502 0.5456 0.76275 0.0
C789 C 0.11081 0.56818 0.78518 0.0
C790 C 0.15192 0.48289 0.80736 0.0
C791 C 0.10577 0.55225 0.73158 0.0
C792 C 0.17597 0.48236 0.71036 0.0
C793 C 0.15255 0.4512 0.70307 0.0
C794 C 0.1684 0.5046 0.73163 0.0
C795 C 0.13656 0.49556 0.74575 0.0
C796 C 0.11249 0.46461 0.73781 0.0
C797 C 0.12082 0.44276 0.71667 0.0
C798 C 0.19481 0.53734 0.73957 0.0
C799 C 0.07817 0.45422 0.75211 0.0
H800 H 0.13957 0.53131 0.84358 0.0
H801 H 0.10139 0.59021 0.77971 0.0
H802 H 0.13564 0.45794 0.79929 0.0
H803 H 0.17687 0.48678 0.79665 0.0
H804 H 0.15519 0.48097 0.8315 0.0
H805 H 0.09269 0.57313 0.73028 0.0
H806 H 0.12887 0.55978 0.7179 0.0
H807 H 0.08925 0.52835 0.72187 0.0
H808 H 0.20054 0.48896 0.69997 0.0
H809 H 0.10253 0.41875 0.71106 0.0
H810 H 0.20185 0.53648 0.76306 0.0
H811 H 0.18457 0.56009 0.73673 0.0
H812 H 0.21791 0.54118 0.72596 0.0
H813 H 0.08089 0.44976 0.77596 0.0
H814 H 0.06166 0.43032 0.74231 0.0
H815 H 0.06557 0.47536 0.74996 0.0
C816 C 0.77128 0.89453 0.08373 0.0
C817 C 0.73971 0.90109 0.08005 0.0
C818 C 0.79193 0.89306 0.05947 0.0
C819 C 0.78091 0.89866 0.03085 0.0
C820 C 0.75019 0.9078 0.02723 0.0
C821 C 0.72984 0.90871 0.05188 0.0
C822 C 0.82439 0.88307 0.06431 0.0
C823 C 0.73778 0.91449 0.99713 0.0
C824 C 0.8421 0.90856 0.96647 0.0
C825 C 0.83265 0.8753 0.9542 0.0
C826 C 0.82556 0.9167 0.99148 0.0
C827 C 0.79932 0.89083 0.00464 0.0
C828 C 0.79027 0.85703 0.99265 0.0
C829 C 0.80689 0.84977 0.96752 0.0
C830 C 0.8357 0.95307 0.00348 0.0
C831 C 0.76277 0.82853 0.00623 0.0
H832 H 0.77912 0.88864 0.10545 0.0
H833 H 0.70555 0.91395 0.0489 0.0
H834 H 0.82165 0.85652 0.05582 0.0
H835 H 0.84534 0.90064 0.05204 0.0
H836 H 0.83132 0.88361 0.08796 0.0
H837 H 0.71588 0.92569 0.99836 0.0
H838 H 0.75819 0.93235 0.98448 0.0
H839 H 0.73011 0.88983 0.98471 0.0
H840 H 0.86188 0.92843 0.95613 0.0
H841 H 0.79955 0.82398 0.95819 0.0
H842 H 0.84294 0.95276 0.02696 0.0
H843 H 0.81398 0.96451 0.00242 0.0
H844 H 0.85707 0.97 0.99113 0.0
H845 H 0.76862 0.82506 0.02967 0.0
H846 H 0.75944 0.80342 0.99471 0.0
H847 H 0.73852 0.83564 0.00557 0.0
C848 C 0.16428 0.59417 0.96872 0.0
C849 C 0.17627 0.62615 0.95456 0.0
C850 C 0.17907 0.58685 0.99501 0.0
C851 C 0.20613 0.61232 0.00754 0.0
C852 C 0.21796 0.6448 0.99348 0.0
C853 C 0.20305 0.65121 0.9671 0.0
C854 C 0.16603 0.55182 0.0092 0.0
C855 C 0.24643 0.67288 0.0063 0.0
C856 C 0.22845 0.61373 0.0885 0.0
C857 C 0.25883 0.60417 0.08776 0.0
C858 C 0.21002 0.61474 0.06271 0.0
C859 C 0.22208 0.60559 0.03555 0.0
C860 C 0.25151 0.59364 0.03498 0.0
C861 C 0.26967 0.59325 0.0611 0.0
C862 C 0.17891 0.62784 0.06431 0.0
C863 C 0.26489 0.58314 0.00652 0.0
H864 H 0.14371 0.57464 0.959 0.0
H865 H 0.21237 0.67601 0.95629 0.0
H866 H 0.18664 0.53887 0.01097 0.0
H867 H 0.15724 0.55479 0.03187 0.0
H868 H 0.14493 0.5348 0.99663 0.0
H869 H 0.2523 0.69688 0.99286 0.0
H870 H 0.23984 0.67928 0.02888 0.0
H871 H 0.26948 0.66364 0.00795 0.0
H872 H 0.21986 0.62215 0.10904 0.0
H873 H 0.29306 0.5857 0.0604 0.0
H874 H 0.15774 0.61024 0.05232 0.0
H875 H 0.18403 0.65355 0.05353 0.0
H876 H 0.17092 0.63044 0.08734 0.0
H877 H 0.24438 0.56536 0.99393 0.0
H878 H 0.28533 0.57029 0.01026 0.0
H879 H 0.27495 0.6064 0.99269 0.0
C880 C 0.67094 0.0954 0.46873 0.0
C881 C 0.67994 0.12807 0.4553 0.0
C882 C 0.68707 0.08893 0.49452 0.0
C883 C 0.71244 0.11591 0.50736 0.0
C884 C 0.72107 0.14913 0.49421 0.0
C885 C 0.70489 0.15473 0.46824 0.0
C886 C 0.67742 0.05311 0.50773 0.0
C887 C 0.74764 0.17875 0.50746 0.0
C888 C 0.73656 0.11372 0.58774 0.0
C889 C 0.7681 0.1067 0.58573 0.0
C890 C 0.71753 0.11549 0.56247 0.0
C891 C 0.73016 0.10969 0.53453 0.0
C892 C 0.76107 0.1006 0.53252 0.0
C893 C 0.7798 0.09942 0.55815 0.0
C894 C 0.68484 0.12548 0.56558 0.0
C895 C 0.77512 0.0937 0.50315 0.0
H896 H 0.65182 0.07463 0.45868 0.0
H897 H 0.71189 0.18004 0.45797 0.0
H898 H 0.69967 0.04244 0.50814 0.0
H899 H 0.6691 0.05423 0.53083 0.0
H900 H 0.65693 0.03507 0.49526 0.0
H901 H 0.75073 0.20322 0.49498 0.0
H902 H 0.74094 0.18308 0.53052 0.0
H903 H 0.77221 0.17229 0.50794 0.0
H904 H 0.72737 0.11943 0.60899 0.0
H905 H 0.80412 0.09392 0.55647 0.0
H906 H 0.66436 0.10697 0.55356 0.0
H907 H 0.68759 0.15138 0.55568 0.0
H908 H 0.67717 0.12635 0.58894 0.0
H909 H 0.75568 0.07487 0.49032 0.0
H910 H 0.79756 0.08349 0.50556 0.0
H911 H 0.78244 0.11801 0.49022 0.0
C912 C 0.2344 0.4084 0.54968 0.0
C913 C 0.2455 0.40381 0.57815 0.0
C914 C 0.25411 0.40581 0.52499 0.0
C915 C 0.28537 0.39788 0.52891 0.0
C916 C 0.29752 0.39517 0.55768 0.0
C917 C 0.27755 0.39845 0.58197 0.0
C918 C 0.24058 0.40959 0.49467 0.0
C919 C 0.33053 0.3864 0.56285 0.0
C920 C 0.31095 0.34578 0.46763 0.0
C921 C 0.33572 0.37094 0.45288 0.0
C922 C 0.29493 0.35416 0.49272 0.0
C923 C 0.30349 0.38871 0.50305 0.0
C924 C 0.32882 0.41419 0.48846 0.0
C925 C 0.34486 0.40492 0.46364 0.0
C926 C 0.2685 0.32606 0.50794 0.0
C927 C 0.33832 0.45135 0.49861 0.0
H928 H 0.20971 0.41269 0.54661 0.0
H929 H 0.28628 0.3948 0.60392 0.0
H930 H 0.26025 0.42693 0.48092 0.0
H931 H 0.23332 0.38398 0.4837 0.0
H932 H 0.21817 0.42005 0.49541 0.0
H933 H 0.3381 0.38888 0.58637 0.0
H934 H 0.32819 0.35939 0.55577 0.0
H935 H 0.35088 0.40341 0.54955 0.0
H936 H 0.30388 0.31946 0.45943 0.0
H937 H 0.36383 0.42451 0.45215 0.0
H938 H 0.24377 0.33215 0.50693 0.0
H939 H 0.275 0.32471 0.53151 0.0
H940 H 0.26581 0.30024 0.49786 0.0
H941 H 0.31616 0.46206 0.49691 0.0
H942 H 0.35922 0.46781 0.48543 0.0
H943 H 0.34596 0.45291 0.52206 0.0
C944 C 0.03439 0.68959 0.8722 0.0
C945 C 0.06464 0.6985 0.88806 0.0
C946 C 0.0118 0.71041 0.87326 0.0
C947 C 0.01937 0.74052 0.89104 0.0
C948 C 0.04934 0.74894 0.90789 0.0
C949 C 0.07175 0.72802 0.90598 0.0
C950 C 0.9803 0.70073 0.8547 0.0
C951 C 0.05803 0.7804 0.92754 0.0
C952 C 0.97843 0.81209 0.87065 0.0
C953 C 0.95049 0.80512 0.88949 0.0
C954 C 0.00126 0.79152 0.87116 0.0
C955 C 0.99634 0.76366 0.89134 0.0
C956 C 0.96888 0.75737 0.91117 0.0
C957 C 0.94613 0.77797 0.90984 0.0
C958 C 0.03001 0.79888 0.84943 0.0
C959 C 0.9631 0.7284 0.93339 0.0
H960 H 0.02888 0.66694 0.85816 0.0
H961 H 0.09506 0.73497 0.91837 0.0
H962 H 0.95772 0.69787 0.86876 0.0
H963 H 0.98058 0.72166 0.83865 0.0
H964 H 0.97781 0.67623 0.84243 0.0
H965 H 0.08128 0.78222 0.94053 0.0
H966 H 0.06173 0.80416 0.91404 0.0
H967 H 0.03697 0.77977 0.94293 0.0
H968 H 0.9818 0.83287 0.85475 0.0
H969 H 0.9246 0.77251 0.9245 0.0
H970 H 0.02757 0.77622 0.83477 0.0
H971 H 0.05436 0.8031 0.86119 0.0
H972 H 0.0308 0.82195 0.83563 0.0
H973 H 0.95751 0.70315 0.92185 0.0
H974 H 0.94189 0.72833 0.94851 0.0
H975 H 0.9862 0.73063 0.94665 0.0
C976 C 0.08122 0.27628 0.62838 0.0
C977 C 0.08761 0.31147 0.62136 0.0
C978 C 0.04857 0.25433 0.6269 0.0
C979 C 0.02169 0.26788 0.61807 0.0
C980 C 0.02838 0.30276 0.60877 0.0
C981 C 0.06137 0.32425 0.6106 0.0
C982 C 0.04255 0.21728 0.63698 0.0
C983 C 1.00042 0.318 0.59884 0.0
C984 C 0.93756 0.20151 0.60707 0.0
C985 C 0.9227 0.20193 0.63477 0.0
C986 C 0.96929 0.22393 0.6007 0.0
C987 C 0.9865 0.2469 0.62269 0.0
C988 C 0.97107 0.24806 0.65036 0.0
C989 C 0.93934 0.22567 0.656 0.0
C990 C 0.98482 0.22232 0.57085 0.0
C991 C 0.98864 0.27206 0.67449 0.0
H992 H 0.1015 0.26618 0.63643 0.0
H993 H 0.06625 0.3514 0.60498 0.0
H994 H 0.02885 0.21382 0.65826 0.0
H995 H 0.02664 0.19939 0.62092 0.0
H996 H 0.06644 0.20978 0.64001 0.0
H997 H 0.01028 0.34341 0.58783 0.0
H998 H 0.9832 0.30018 0.58352 0.0
H999 H 0.98534 0.32172 0.61819 0.0
H1000 H 0.92466 0.18332 0.59053 0.0
H1001 H 0.9279 0.22621 0.67741 0.0
H1002 H 0.0069 0.21158 0.57307 0.0
H1003 H 0.99402 0.24867 0.56142 0.0
H1004 H 0.96675 0.20591 0.5552 0.0
H1005 H 0.01194 0.26511 0.68111 0.0
H1006 H 0.97252 0.27088 0.69426 0.0
H1007 H 0.99618 0.29912 0.66642 0.0
C1008 C 0.55251 0.20585 0.35496 0.0
C1009 C 0.56574 0.19457 0.38037 0.0
C1010 C 0.52971 0.22631 0.35678 0.0
C1011 C 0.52025 0.23625 0.38471 0.0
C1012 C 0.53365 0.2251 0.41048 0.0
C1013 C 0.55604 0.20414 0.408 0.0
C1014 C 0.51557 0.23711 0.32877 0.0
C1015 C 0.52448 0.23546 0.44063 0.0
C1016 C 0.48201 0.31308 0.38491 0.0
C1017 C 0.44749 0.29648 0.38601 0.0
C1018 C 0.50611 0.29389 0.38552 0.0
C1019 C 0.49537 0.25727 0.38679 0.0
C1020 C 0.46057 0.2405 0.3885 0.0
C1021 C 0.43713 0.26029 0.3883 0.0
C1022 C 0.54303 0.31274 0.38411 0.0
C1023 C 0.44797 0.20155 0.38949 0.0
H1024 H 0.55991 0.19853 0.33353 0.0
H1025 H 0.56643 0.19576 0.42771 0.0
H1026 H 0.48771 0.22743 0.32883 0.0
H1027 H 0.52184 0.26572 0.3274 0.0
H1028 H 0.52544 0.22717 0.30881 0.0
H1029 H 0.53784 0.22552 0.45845 0.0
H1030 H 0.53068 0.26406 0.44227 0.0
H1031 H 0.49696 0.22549 0.44423 0.0
H1032 H 0.49018 0.34102 0.3832 0.0
H1033 H 0.41049 0.24721 0.38908 0.0
H1034 H 0.55394 0.30643 0.3632 0.0
H1035 H 0.55683 0.30416 0.40233 0.0
H1036 H 0.54735 0.34124 0.38546 0.0
H1037 H 0.4553 0.1904 0.369 0.0
H1038 H 0.42016 0.19255 0.39186 0.0
H1039 H 0.45971 0.19117 0.4081 0.0
C1040 C 0.66283 0.54679 0.68299 0.0
C1041 C 0.63495 0.56065 0.68317 0.0
C1042 C 0.66603 0.52205 0.70381 0.0
C1043 C 0.64083 0.51101 0.72552 0.0
C1044 C 0.61208 0.52411 0.72529 0.0
C1045 C 0.60941 0.54872 0.70401 0.0
C1046 C 0.69687 0.50841 0.70304 0.0
C1047 C 0.58469 0.51296 0.74808 0.0
C1048 C 0.6388 0.42692 0.76486 0.0
C1049 C 0.65666 0.43875 0.79078 0.0
C1050 C 0.63284 0.45013 0.74375 0.0
C1051 C 0.64499 0.48612 0.74865 0.0
C1052 C 0.66252 0.49828 0.77502 0.0
C1053 C 0.66819 0.47442 0.79578 0.0
C1054 C 0.61415 0.43611 0.71592 0.0
C1055 C 0.67581 0.53649 0.78104 0.0
H1056 H 0.68266 0.55591 0.66692 0.0
H1057 H 0.58793 0.55955 0.70439 0.0
H1058 H 0.71158 0.5157 0.72357 0.0
H1059 H 0.68931 0.47975 0.70187 0.0
H1060 H 0.71348 0.51858 0.68402 0.0
H1061 H 0.5633 0.52442 0.74414 0.0
H1062 H 0.575 0.48437 0.74821 0.0
H1063 H 0.59515 0.52084 0.77026 0.0
H1064 H 0.62972 0.39937 0.76086 0.0
H1065 H 0.68192 0.4837 0.81579 0.0
H1066 H 0.63088 0.44423 0.69662 0.0
H1067 H 0.59219 0.44688 0.71295 0.0
H1068 H 0.60512 0.40743 0.71602 0.0
H1069 H 0.69488 0.54844 0.76422 0.0
H1070 H 0.68755 0.54174 0.80314 0.0
H1071 H 0.65511 0.54934 0.77943 0.0
C1072 C 0.31759 0.05077 0.7605 0.0
C1073 C 0.32801 0.05121 0.7899 0.0
C1074 C 0.32384 0.02662 0.74045 0.0
C1075 C 0.34059 0.00201 0.75008 0.0
C1076 C 0.3508 0.00201 0.77984 0.0
C1077 C 0.34454 0.02676 0.79939 0.0
C1078 C 0.31266 0.02759 0.70889 0.0
C1079 C 0.36829 0.97584 0.79102 0.0
C1080 C 0.32606 0.92 0.70474 0.0
C1081 C 0.35577 0.92611 0.68811 0.0
C1082 C 0.32113 0.94419 0.72532 0.0
C1083 C 0.34633 0.97559 0.72915 0.0
C1084 C 0.37642 0.98201 0.71241 0.0
C1085 C 0.3809 0.95703 0.69219 0.0
C1086 C 0.28887 0.93615 0.74293 0.0
C1087 C 0.40368 0.01539 0.71566 0.0
H1088 H 0.305 0.06975 0.75296 0.0
H1089 H 0.35274 0.02706 0.82206 0.0
H1090 H 0.33457 0.03079 0.69393 0.0
H1091 H 0.29437 0.00276 0.70313 0.0
H1092 H 0.30073 0.04895 0.70475 0.0
H1093 H 0.37461 0.97929 0.81477 0.0
H1094 H 0.35197 0.94929 0.78757 0.0
H1095 H 0.39184 0.97799 0.77845 0.0
H1096 H 0.30663 0.89599 0.70191 0.0
H1097 H 0.4039 0.96182 0.67942 0.0
H1098 H 0.27475 0.95553 0.73808 0.0
H1099 H 0.29465 0.93778 0.7668 0.0
H1100 H 0.27232 0.91 0.73807 0.0
H1101 H 0.39347 0.0376 0.71016 0.0
H1102 H 0.42567 0.0163 0.70124 0.0
H1103 H 0.41242 0.01873 0.73881 0.0
C1104 C 0.43027 0.19775 0.89251 0.0
C1105 C 0.42041 0.18836 0.86349 0.0
C1106 C 0.46237 0.21952 0.89867 0.0
C1107 C 0.4849 0.23213 0.87521 0.0
C1108 C 0.47528 0.22202 0.84597 0.0
C1109 C 0.44319 0.20025 0.8405 0.0
C1110 C 0.47189 0.22964 0.9301 0.0
C1111 C 0.4986 0.23484 0.82032 0.0
C1112 C 0.55422 0.31561 0.87759 0.0
C1113 C 0.58294 0.30316 0.87861 0.0
C1114 C 0.52187 0.2928 0.87861 0.0
C1115 C 0.51827 0.25677 0.88068 0.0
C1116 C 0.54717 0.24433 0.88398 0.0
C1117 C 0.57921 0.26771 0.8829 0.0
C1118 C 0.49166 0.30711 0.87524 0.0
C1119 C 0.54437 0.20612 0.88643 0.0
H1120 H 0.4127 0.18861 0.91035 0.0
H1121 H 0.43573 0.19303 0.81802 0.0
H1122 H 0.49606 0.2239 0.93571 0.0
H1123 H 0.47567 0.2579 0.93282 0.0
H1124 H 0.45233 0.21596 0.94595 0.0
H1125 H 0.48757 0.22381 0.79902 0.0
H1126 H 0.50446 0.26344 0.81896 0.0
H1127 H 0.52276 0.22802 0.82359 0.0
H1128 H 0.55697 0.34302 0.87446 0.0
H1129 H 0.60135 0.25796 0.88389 0.0
H1130 H 0.47205 0.2954 0.89168 0.0
H1131 H 0.48047 0.30045 0.8531 0.0
H1132 H 0.49839 0.33568 0.87775 0.0
H1133 H 0.5246 0.1937 0.90251 0.0
H1134 H 0.56855 0.20106 0.89319 0.0
H1135 H 0.53696 0.19361 0.8648 0.0
C1136 C 0.33911 0.5218 0.20695 0.0
C1137 C 0.33994 0.5553 0.21634 0.0
C1138 C 0.34597 0.49747 0.22666 0.0
C1139 C 0.35402 0.507 0.25634 0.0
C1140 C 0.35541 0.54097 0.26574 0.0
C1141 C 0.34826 0.56462 0.24569 0.0
C1142 C 0.34401 0.4614 0.21588 0.0
C1143 C 0.36393 0.5522 0.29715 0.0
C1144 C 0.33567 0.43704 0.31486 0.0
C1145 C 0.36762 0.43197 0.31999 0.0
C1146 C 0.33096 0.46117 0.29409 0.0
C1147 C 0.35893 0.48096 0.27808 0.0
C1148 C 0.39138 0.47636 0.2834 0.0
C1149 C 0.39535 0.45181 0.30428 0.0
C1150 C 0.29595 0.46527 0.28915 0.0
C1151 C 0.42182 0.49721 0.26689 0.0
H1152 H 0.33282 0.51452 0.18429 0.0
H1153 H 0.34918 0.59055 0.25308 0.0
H1154 H 0.36797 0.45473 0.22056 0.0
H1155 H 0.32376 0.44244 0.22781 0.0
H1156 H 0.33883 0.4585 0.19191 0.0
H1157 H 0.36567 0.58005 0.30056 0.0
H1158 H 0.34439 0.5368 0.31216 0.0
H1159 H 0.38826 0.54733 0.30354 0.0
H1160 H 0.31405 0.42173 0.32682 0.0
H1161 H 0.42005 0.44787 0.30805 0.0
H1162 H 0.28864 0.46004 0.26577 0.0
H1163 H 0.29548 0.49226 0.2939 0.0
H1164 H 0.27681 0.44759 0.30319 0.0
H1165 H 0.41817 0.49259 0.24291 0.0
H1166 H 0.44532 0.49068 0.27365 0.0
H1167 H 0.42497 0.52522 0.27067 0.0
C1168 C 0.60179 0.055 0.29277 0.0
C1169 C 0.61778 0.05439 0.31992 0.0
C1170 C 0.60444 0.03197 0.27016 0.0
C1171 C 0.62373 0.00799 0.2748 0.0
C1172 C 0.63852 0.00616 0.30266 0.0
C1173 C 0.63523 0.02927 0.32491 0.0
C1174 C 0.58788 0.03435 0.24091 0.0
C1175 C 0.65926 0.98095 0.30853 0.0
C1176 C 0.61623 0.93072 0.22448 0.0
C1177 C 0.64465 0.94214 0.20641 0.0
C1178 C 0.6085 0.95224 0.24622 0.0
C1179 C 0.62991 0.98589 0.25022 0.0
C1180 C 0.65827 0.99784 0.23163 0.0
C1181 C 0.6652 0.97586 0.20982 0.0
C1182 C 0.57785 0.93868 0.26534 0.0
C1183 C 0.68184 0.0335 0.23534 0.0
H1184 H 0.58833 0.0744 0.28875 0.0
H1185 H 0.64773 0.02869 0.34581 0.0
H1186 H 0.60749 0.04395 0.22393 0.0
H1187 H 0.5728 0.00841 0.23379 0.0
H1188 H 0.57122 0.05205 0.2417 0.0
H1189 H 0.66753 0.9815 0.33182 0.0
H1190 H 0.64463 0.95425 0.30303 0.0
H1191 H 0.68194 0.98727 0.29426 0.0
H1192 H 0.60011 0.90473 0.22184 0.0
H1193 H 0.68721 0.98478 0.19594 0.0
H1194 H 0.56174 0.95689 0.26507 0.0
H1195 H 0.58577 0.93668 0.28846 0.0
H1196 H 0.56254 0.91282 0.25813 0.0
H1197 H 0.6676 0.05336 0.23396 0.0
H1198 H 0.70208 0.03933 0.21846 0.0
H1199 H 0.69368 0.03576 0.25743 0.0
C1200 C 0.54819 0.82381 0.12505 0.0
C1201 C 0.57692 0.8134 0.11722 0.0
C1202 C 0.51619 0.80033 0.12433 0.0
C1203 C 0.5129 0.7659 0.115 0.0
C1204 C 0.54147 0.75622 0.10456 0.0
C1205 C 0.57326 0.78003 0.10609 0.0
C1206 C 0.48642 0.8116 0.13594 0.0
C1207 C 0.53886 0.72002 0.09375 0.0
C1208 C 0.44503 0.69724 0.15322 0.0
C1209 C 0.41869 0.69125 0.13278 0.0
C1210 C 0.47592 0.72114 0.14743 0.0
C1211 C 0.48082 0.73907 0.12026 0.0
C1212 C 0.45475 0.7322 0.09903 0.0
C1213 C 0.42378 0.70856 0.10567 0.0
C1214 C 0.50295 0.72797 0.17082 0.0
C1215 C 0.45938 0.75029 0.06961 0.0
H1216 H 0.55094 0.8496 0.1337 0.0
H1217 H 0.59544 0.77201 0.09977 0.0
H1218 H 0.46467 0.80357 0.12077 0.0
H1219 H 0.47855 0.79886 0.15742 0.0
H1220 H 0.49238 0.84005 0.13911 0.0
H1221 H 0.56192 0.71835 0.08182 0.0
H1222 H 0.53514 0.70207 0.11278 0.0
H1223 H 0.51684 0.71104 0.07898 0.0
H1224 H 0.44118 0.684 0.17424 0.0
H1225 H 0.40346 0.70387 0.08977 0.0
H1226 H 0.50919 0.75555 0.17751 0.0
H1227 H 0.52629 0.72293 0.16196 0.0
H1228 H 0.49515 0.71168 0.19069 0.0
H1229 H 0.46223 0.77834 0.07278 0.0
H1230 H 0.43776 0.73994 0.05462 0.0
H1231 H 0.48272 0.74756 0.05885 0.0
loop_
_geom_bond_atom_site_label_1
_geom_bond_atom_site_label_2
_geom_bond_distance
_geom_bond_site_symmetry_2
_ccdc_geom_bond_type
In0 O1 2.294 . S
In0 O2 2.326 . S
In0 O6 2.266 . S
In0 O7 2.326 . S
In0 O8 2.266 . S
In0 O9 2.326 . S
In0 O11 2.294 . S
In0 O12 2.326 . S
O1 In0 2.294 . S
O1 C10 1.240 . S
O2 In0 2.326 . S
O2 C10 1.252 . S
C3 O6 1.252 . S
C3 O7 1.260 . S
C4 O11 1.240 . S
C4 O12 1.252 . S
C5 O8 1.252 . S
C5 O9 1.260 . S
O6 In0 2.266 . S
O6 C3 1.252 . S
O7 In0 2.326 . S
O7 C3 1.260 . S
O8 In0 2.266 . S
O8 C5 1.252 . S
O9 In0 2.326 . S
O9 C5 1.260 . S
C10 O1 1.240 . S
C10 O2 1.252 . S
O11 In0 2.294 . S
O11 C4 1.240 . S
O12 In0 2.326 . S
O12 C4 1.252 . S
In13 O14 2.294 . S
In13 O15 2.326 . S
In13 O19 2.266 . S
In13 O20 2.326 . S
In13 O21 2.266 . S
In13 O22 2.326 . S
In13 O24 2.294 . S
In13 O25 2.326 . S
O14 In13 2.294 . S
O14 C23 1.240 . S
O15 In13 2.326 . S
O15 C23 1.252 . S
C16 O19 1.252 . S
C16 O20 1.260 . S
C17 O24 1.240 . S
C17 O25 1.252 . S
C18 O21 1.252 . S
C18 O22 1.260 . S
O19 In13 2.266 . S
O19 C16 1.252 . S
O20 In13 2.326 . S
O20 C16 1.260 . S
O21 In13 2.266 . S
O21 C18 1.252 . S
O22 In13 2.326 . S
O22 C18 1.260 . S
C23 O14 1.240 . S
C23 O15 1.252 . S
O24 In13 2.294 . S
O24 C17 1.240 . S
O25 In13 2.326 . S
O25 C17 1.252 . S
In26 O27 2.294 . S
In26 O28 2.326 . S
In26 O32 2.266 . S
In26 O33 2.326 . S
In26 O34 2.266 . S
In26 O35 2.326 . S
In26 O37 2.294 . S
In26 O38 2.326 . S
O27 In26 2.294 . S
O27 C36 1.240 . S
O28 In26 2.326 . S
O28 C36 1.252 . S
C29 O32 1.252 . S
C29 O33 1.260 . S
C30 O37 1.240 . S
C30 O38 1.252 . S
C31 O34 1.252 . S
C31 O35 1.260 . S
O32 In26 2.266 . S
O32 C29 1.252 . S
O33 In26 2.326 . S
O33 C29 1.260 . S
O34 In26 2.266 . S
O34 C31 1.252 . S
O35 In26 2.326 . S
O35 C31 1.260 . S
C36 O27 1.240 . S
C36 O28 1.252 . S
O37 In26 2.294 . S
O37 C30 1.240 . S
O38 In26 2.326 . S
O38 C30 1.252 . S
In39 O40 2.294 . S
In39 O41 2.326 . S
In39 O45 2.266 . S
In39 O46 2.326 . S
In39 O47 2.266 . S
In39 O48 2.326 . S
In39 O50 2.294 . S
In39 O51 2.326 . S
O40 In39 2.294 . S
O40 C49 1.240 . S
O41 In39 2.326 . S
O41 C49 1.252 . S
C42 O45 1.252 . S
C42 O46 1.260 . S
C43 O50 1.240 . S
C43 O51 1.252 . S
C44 O47 1.252 . S
C44 O48 1.260 . S
O45 In39 2.266 . S
O45 C42 1.252 . S
O46 In39 2.326 . S
O46 C42 1.260 . S
O47 In39 2.266 . S
O47 C44 1.252 . S
O48 In39 2.326 . S
O48 C44 1.260 . S
C49 O40 1.240 . S
C49 O41 1.252 . S
O50 In39 2.294 . S
O50 C43 1.240 . S
O51 In39 2.326 . S
O51 C43 1.252 . S
In52 O53 2.294 . S
In52 O54 2.326 . S
In52 O58 2.266 . S
In52 O59 2.326 . S
In52 O60 2.266 . S
In52 O61 2.326 . S
In52 O63 2.294 . S
In52 O64 2.326 . S
O53 In52 2.294 . S
O53 C62 1.240 . S
O54 In52 2.326 . S
O54 C62 1.252 . S
C55 O58 1.252 . S
C55 O59 1.260 . S
C56 O63 1.240 . S
C56 O64 1.252 . S
C57 O60 1.252 . S
C57 O61 1.260 . S
O58 In52 2.266 . S
O58 C55 1.252 . S
O59 In52 2.326 . S
O59 C55 1.260 . S
O60 In52 2.266 . S
O60 C57 1.252 . S
O61 In52 2.326 . S
O61 C57 1.260 . S
C62 O53 1.240 . S
C62 O54 1.252 . S
O63 In52 2.294 . S
O63 C56 1.240 . S
O64 In52 2.326 . S
O64 C56 1.252 . S
In65 O66 2.294 . S
In65 O67 2.326 . S
In65 O71 2.266 . S
In65 O72 2.326 . S
In65 O73 2.266 . S
In65 O74 2.326 . S
In65 O76 2.294 . S
In65 O77 2.326 . S
O66 In65 2.294 . S
O66 C75 1.240 . S
O67 In65 2.326 . S
O67 C75 1.252 . S
C68 O71 1.252 . S
C68 O72 1.260 . S
C69 O76 1.240 . S
C69 O77 1.252 . S
C70 O73 1.252 . S
C70 O74 1.260 . S
O71 In65 2.266 . S
O71 C68 1.252 . S
O72 In65 2.326 . S
O72 C68 1.260 . S
O73 In65 2.266 . S
O73 C70 1.252 . S
O74 In65 2.326 . S
O74 C70 1.260 . S
C75 O66 1.240 . S
C75 O67 1.252 . S
O76 In65 2.294 . S
O76 C69 1.240 . S
O77 In65 2.326 . S
O77 C69 1.252 . S
In78 O79 2.294 . S
In78 O80 2.326 . S
In78 O84 2.266 . S
In78 O85 2.326 . S
In78 O86 2.266 . S
In78 O87 2.326 . S
In78 O89 2.294 . S
In78 O90 2.326 . S
O79 In78 2.294 . S
O79 C88 1.240 . S
O80 In78 2.326 . S
O80 C88 1.252 . S
C81 O84 1.252 . S
C81 O85 1.260 . S
C82 O89 1.240 . S
C82 O90 1.252 . S
C83 O86 1.252 . S
C83 O87 1.260 . S
O84 In78 2.266 . S
O84 C81 1.252 . S
O85 In78 2.326 . S
O85 C81 1.260 . S
O86 In78 2.266 . S
O86 C83 1.252 . S
O87 In78 2.326 . S
O87 C83 1.260 . S
C88 O79 1.240 . S
C88 O80 1.252 . S
O89 In78 2.294 . S
O89 C82 1.240 . S
O90 In78 2.326 . S
O90 C82 1.252 . S
In91 O92 2.294 . S
In91 O93 2.326 . S
In91 O97 2.266 . S
In91 O98 2.326 . S
In91 O99 2.266 . S
In91 O100 2.326 . S
In91 O102 2.294 . S
In91 O103 2.326 . S
O92 In91 2.294 . S
O92 C101 1.240 . S
O93 In91 2.326 . S
O93 C101 1.252 . S
C94 O97 1.252 . S
C94 O98 1.260 . S
C95 O102 1.240 . S
C95 O103 1.252 . S
C96 O99 1.252 . S
C96 O100 1.260 . S
O97 In91 2.266 . S
O97 C94 1.252 . S
O98 In91 2.326 . S
O98 C94 1.260 . S
O99 In91 2.266 . S
O99 C96 1.252 . S
O100 In91 2.326 . S
O100 C96 1.260 . S
C101 O92 1.240 . S
C101 O93 1.252 . S
O102 In91 2.294 . S
O102 C95 1.240 . S
O103 In91 2.326 . S
O103 C95 1.252 . S
In104 O105 2.294 . S
In104 O106 2.326 . S
In104 O110 2.266 . S
In104 O111 2.326 . S
In104 O112 2.266 . S
In104 O113 2.326 . S
In104 O115 2.294 . S
In104 O116 2.326 . S
O105 In104 2.294 . S
O105 C114 1.240 . S
O106 In104 2.326 . S
O106 C114 1.252 . S
C107 O110 1.252 . S
C107 O111 1.260 . S
C108 O115 1.240 . S
C108 O116 1.252 . S
C109 O112 1.252 . S
C109 O113 1.260 . S
O110 In104 2.266 . S
O110 C107 1.252 . S
O111 In104 2.326 . S
O111 C107 1.260 . S
O112 In104 2.266 . S
O112 C109 1.252 . S
O113 In104 2.326 . S
O113 C109 1.260 . S
C114 O105 1.240 . S
C114 O106 1.252 . S
O115 In104 2.294 . S
O115 C108 1.240 . S
O116 In104 2.326 . S
O116 C108 1.252 . S
In117 O118 2.294 . S
In117 O119 2.326 . S
In117 O123 2.266 . S
In117 O124 2.326 . S
In117 O125 2.266 . S
In117 O126 2.326 . S
In117 O128 2.294 . S
In117 O129 2.326 . S
O118 In117 2.294 . S
O118 C127 1.240 . S
O119 In117 2.326 . S
O119 C127 1.252 . S
C120 O123 1.252 . S
C120 O124 1.260 . S
C121 O128 1.240 . S
C121 O129 1.252 . S
C122 O125 1.252 . S
C122 O126 1.260 . S
O123 In117 2.266 . S
O123 C120 1.252 . S
O124 In117 2.326 . S
O124 C120 1.260 . S
O125 In117 2.266 . S
O125 C122 1.252 . S
O126 In117 2.326 . S
O126 C122 1.260 . S
C127 O118 1.240 . S
C127 O119 1.252 . S
O128 In117 2.294 . S
O128 C121 1.240 . S
O129 In117 2.326 . S
O129 C121 1.252 . S
In130 O131 2.294 . S
In130 O132 2.326 . S
In130 O136 2.266 . S
In130 O137 2.326 . S
In130 O138 2.266 . S
In130 O139 2.326 . S
In130 O141 2.294 . S
In130 O142 2.326 . S
O131 In130 2.294 . S
O131 C140 1.240 . S
O132 In130 2.326 . S
O132 C140 1.252 . S
C133 O136 1.252 . S
C133 O137 1.260 . S
C134 O141 1.240 . S
C134 O142 1.252 . S
C135 O138 1.252 . S
C135 O139 1.260 . S
O136 In130 2.266 . S
O136 C133 1.252 . S
O137 In130 2.326 . S
O137 C133 1.260 . S
O138 In130 2.266 . S
O138 C135 1.252 . S
O139 In130 2.326 . S
O139 C135 1.260 . S
C140 O131 1.240 . S
C140 O132 1.252 . S
O141 In130 2.294 . S
O141 C134 1.240 . S
O142 In130 2.326 . S
O142 C134 1.252 . S
In143 O144 2.294 . S
In143 O145 2.326 . S
In143 O149 2.266 . S
In143 O150 2.326 . S
In143 O151 2.266 . S
In143 O152 2.326 . S
In143 O154 2.294 . S
In143 O155 2.326 . S
O144 In143 2.294 . S
O144 C153 1.240 . S
O145 In143 2.326 . S
O145 C153 1.252 . S
C146 O149 1.252 . S
C146 O150 1.260 . S
C147 O154 1.240 . S
C147 O155 1.252 . S
C148 O151 1.252 . S
C148 O152 1.260 . S
O149 In143 2.266 . S
O149 C146 1.252 . S
O150 In143 2.326 . S
O150 C146 1.260 . S
O151 In143 2.266 . S
O151 C148 1.252 . S
O152 In143 2.326 . S
O152 C148 1.260 . S
C153 O144 1.240 . S
C153 O145 1.252 . S
O154 In143 2.294 . S
O154 C147 1.240 . S
O155 In143 2.326 . S
O155 C147 1.252 . S
In156 O157 2.294 . S
In156 O158 2.326 . S
In156 O162 2.266 . S
In156 O163 2.326 . S
In156 O164 2.266 . S
In156 O165 2.326 . S
In156 O167 2.294 . S
In156 O168 2.326 . S
O157 In156 2.294 . S
O157 C166 1.240 . S
O158 In156 2.326 . S
O158 C166 1.252 . S
C159 O162 1.252 . S
C159 O163 1.260 . S
C160 O167 1.240 . S
C160 O168 1.252 . S
C161 O164 1.252 . S
C161 O165 1.260 . S
O162 In156 2.266 . S
O162 C159 1.252 . S
O163 In156 2.326 . S
O163 C159 1.260 . S
O164 In156 2.266 . S
O164 C161 1.252 . S
O165 In156 2.326 . S
O165 C161 1.260 . S
C166 O157 1.240 . S
C166 O158 1.252 . S
O167 In156 2.294 . S
O167 C160 1.240 . S
O168 In156 2.326 . S
O168 C160 1.252 . S
In169 O170 2.294 . S
In169 O171 2.326 . S
In169 O175 2.266 . S
In169 O176 2.326 . S
In169 O177 2.266 . S
In169 O178 2.326 . S
In169 O180 2.294 . S
In169 O181 2.326 . S
O170 In169 2.294 . S
O170 C179 1.240 . S
O171 In169 2.326 . S
O171 C179 1.252 . S
C172 O175 1.252 . S
C172 O176 1.260 . S
C173 O180 1.240 . S
C173 O181 1.252 . S
C174 O177 1.252 . S
C174 O178 1.260 . S
O175 In169 2.266 . S
O175 C172 1.252 . S
O176 In169 2.326 . S
O176 C172 1.260 . S
O177 In169 2.266 . S
O177 C174 1.252 . S
O178 In169 2.326 . S
O178 C174 1.260 . S
C179 O170 1.240 . S
C179 O171 1.252 . S
O180 In169 2.294 . S
O180 C173 1.240 . S
O181 In169 2.326 . S
O181 C173 1.252 . S
In182 O183 2.294 . S
In182 O184 2.326 . S
In182 O188 2.266 . S
In182 O189 2.326 . S
In182 O190 2.266 . S
In182 O191 2.326 . S
In182 O193 2.294 . S
In182 O194 2.326 . S
O183 In182 2.294 . S
O183 C192 1.240 . S
O184 In182 2.326 . S
O184 C192 1.252 . S
C185 O188 1.252 . S
C185 O189 1.260 . S
C186 O193 1.240 . S
C186 O194 1.252 . S
C187 O190 1.252 . S
C187 O191 1.260 . S
O188 In182 2.266 . S
O188 C185 1.252 . S
O189 In182 2.326 . S
O189 C185 1.260 . S
O190 In182 2.266 . S
O190 C187 1.252 . S
O191 In182 2.326 . S
O191 C187 1.260 . S
C192 O183 1.240 . S
C192 O184 1.252 . S
O193 In182 2.294 . S
O193 C186 1.240 . S
O194 In182 2.326 . S
O194 C186 1.252 . S
In195 O196 2.294 . S
In195 O197 2.326 . S
In195 O201 2.266 . S
In195 O202 2.326 . S
In195 O203 2.266 . S
In195 O204 2.326 . S
In195 O206 2.294 . S
In195 O207 2.326 . S
O196 In195 2.294 . S
O196 C205 1.240 . S
O197 In195 2.326 . S
O197 C205 1.252 . S
C198 O201 1.252 . S
C198 O202 1.260 . S
C199 O206 1.240 . S
C199 O207 1.252 . S
C200 O203 1.252 . S
C200 O204 1.260 . S
O201 In195 2.266 . S
O201 C198 1.252 . S
O202 In195 2.326 . S
O202 C198 1.260 . S
O203 In195 2.266 . S
O203 C200 1.252 . S
O204 In195 2.326 . S
O204 C200 1.260 . S
C205 O196 1.240 . S
C205 O197 1.252 . S
O206 In195 2.294 . S
O206 C199 1.240 . S
O207 In195 2.326 . S
O207 C199 1.252 . S
C208 C209 1.391 . S
C208 C210 1.394 . S
C208 H224 0.931 . S
C209 C208 1.391 . S
C209 C213 1.376 . S
C210 C208 1.394 . S
C210 C211 1.369 . S
C210 C214 1.531 . S
C211 C210 1.369 . S
C211 C212 1.410 . S
C211 C219 1.503 . S
C212 C211 1.410 . S
C212 C213 1.392 . S
C212 C215 1.511 . S
C213 C209 1.376 . S
C213 C212 1.392 . S
C213 H225 0.929 . S
C214 C210 1.531 . S
C214 H226 0.960 . S
C214 H227 0.962 . S
C214 H228 0.960 . S
C215 C212 1.511 . S
C215 H229 0.961 . S
C215 H230 0.961 . S
C215 H231 0.961 . S
C216 C217 1.370 . S
C216 C218 1.363 . S
C216 H232 0.931 . S
C217 C216 1.370 . S
C217 C221 1.408 . S
C218 C216 1.363 . S
C218 C219 1.370 . S
C218 C222 1.524 . S
C219 C211 1.503 . S
C219 C218 1.370 . S
C219 C220 1.403 . S
C220 C219 1.403 . S
C220 C221 1.404 . S
C220 C223 1.539 . S
C221 C217 1.408 . S
C221 C220 1.404 . S
C221 H233 0.930 . S
C222 C218 1.524 . S
C222 H234 0.956 . S
C222 H235 0.961 . S
C222 H236 0.961 . S
C223 C220 1.539 . S
C223 H237 0.958 . S
C223 H238 0.961 . S
C223 H239 0.960 . S
H224 C208 0.931 . S
H225 C213 0.929 . S
H226 C214 0.960 . S
H227 C214 0.962 . S
H228 C214 0.960 . S
H229 C215 0.961 . S
H230 C215 0.961 . S
H231 C215 0.961 . S
H232 C216 0.931 . S
H233 C221 0.930 . S
H234 C222 0.956 . S
H235 C222 0.961 . S
H236 C222 0.961 . S
H237 C223 0.958 . S
H238 C223 0.961 . S
H239 C223 0.960 . S
C240 C241 1.391 . S
C240 C242 1.394 . S
C240 H256 0.931 . S
C241 C240 1.391 . S
C241 C245 1.376 . S
C242 C240 1.394 . S
C242 C243 1.369 . S
C242 C246 1.531 . S
C243 C242 1.369 . S
C243 C244 1.410 . S
C243 C251 1.503 . S
C244 C243 1.410 . S
C244 C245 1.392 . S
C244 C247 1.511 . S
C245 C241 1.376 . S
C245 C244 1.392 . S
C245 H257 0.929 . S
C246 C242 1.531 . S
C246 H258 0.960 . S
C246 H259 0.962 . S
C246 H260 0.960 . S
C247 C244 1.511 . S
C247 H261 0.961 . S
C247 H262 0.961 . S
C247 H263 0.961 . S
C248 C249 1.370 . S
C248 C250 1.363 . S
C248 H264 0.931 . S
C249 C248 1.370 . S
C249 C253 1.408 . S
C250 C248 1.363 . S
C250 C251 1.370 . S
C250 C254 1.524 . S
C251 C243 1.503 . S
C251 C250 1.370 . S
C251 C252 1.403 . S
C252 C251 1.403 . S
C252 C253 1.404 . S
C252 C255 1.539 . S
C253 C249 1.408 . S
C253 C252 1.404 . S
C253 H265 0.930 . S
C254 C250 1.524 . S
C254 H266 0.956 . S
C254 H267 0.961 . S
C254 H268 0.961 . S
C255 C252 1.539 . S
C255 H269 0.958 . S
C255 H270 0.961 . S
C255 H271 0.960 . S
H256 C240 0.931 . S
H257 C245 0.929 . S
H258 C246 0.960 . S
H259 C246 0.962 . S
H260 C246 0.960 . S
H261 C247 0.961 . S
H262 C247 0.961 . S
H263 C247 0.961 . S
H264 C248 0.931 . S
H265 C253 0.930 . S
H266 C254 0.956 . S
H267 C254 0.961 . S
H268 C254 0.961 . S
H269 C255 0.958 . S
H270 C255 0.961 . S
H271 C255 0.960 . S
C272 C273 1.391 . S
C272 C274 1.394 . S
C272 H288 0.931 . S
C273 C272 1.391 . S
C273 C277 1.376 . S
C274 C272 1.394 . S
C274 C275 1.369 . S
C274 C278 1.531 . S
C275 C274 1.369 . S
C275 C276 1.410 . S
C275 C283 1.503 . S
C276 C275 1.410 . S
C276 C277 1.392 . S
C276 C279 1.511 . S
C277 C273 1.376 . S
C277 C276 1.392 . S
C277 H289 0.929 . S
C278 C274 1.531 . S
C278 H290 0.960 . S
C278 H291 0.962 . S
C278 H292 0.960 . S
C279 C276 1.511 . S
C279 H293 0.961 . S
C279 H294 0.961 . S
C279 H295 0.961 . S
C280 C281 1.370 . S
C280 C282 1.363 . S
C280 H296 0.931 . S
C281 C280 1.370 . S
C281 C285 1.408 . S
C282 C280 1.363 . S
C282 C283 1.370 . S
C282 C286 1.524 . S
C283 C275 1.503 . S
C283 C282 1.370 . S
C283 C284 1.403 . S
C284 C283 1.403 . S
C284 C285 1.404 . S
C284 C287 1.539 . S
C285 C281 1.408 . S
C285 C284 1.404 . S
C285 H297 0.930 . S
C286 C282 1.524 . S
C286 H298 0.956 . S
C286 H299 0.961 . S
C286 H300 0.961 . S
C287 C284 1.539 . S
C287 H301 0.958 . S
C287 H302 0.961 . S
C287 H303 0.960 . S
H288 C272 0.931 . S
H289 C277 0.929 . S
H290 C278 0.960 . S
H291 C278 0.962 . S
H292 C278 0.960 . S
H293 C279 0.961 . S
H294 C279 0.961 . S
H295 C279 0.961 . S
H296 C280 0.931 . S
H297 C285 0.930 . S
H298 C286 0.956 . S
H299 C286 0.961 . S
H300 C286 0.961 . S
H301 C287 0.958 . S
H302 C287 0.961 . S
H303 C287 0.960 . S
C304 C305 1.391 . S
C304 C306 1.394 . S
C304 H320 0.931 . S
C305 C304 1.391 . S
C305 C309 1.376 . S
C306 C304 1.394 . S
C306 C307 1.369 . S
C306 C310 1.531 . S
C307 C306 1.369 . S
C307 C308 1.410 . S
C307 C315 1.503 . S
C308 C307 1.410 . S
C308 C309 1.392 . S
C308 C311 1.511 . S
C309 C305 1.376 . S
C309 C308 1.392 . S
C309 H321 0.929 . S
C310 C306 1.531 . S
C310 H322 0.960 . S
C310 H323 0.962 . S
C310 H324 0.960 . S
C311 C308 1.511 . S
C311 H325 0.961 . S
C311 H326 0.961 . S
C311 H327 0.961 . S
C312 C313 1.370 . S
C312 C314 1.363 . S
C312 H328 0.931 . S
C313 C312 1.370 . S
C313 C317 1.408 . S
C314 C312 1.363 . S
C314 C315 1.370 . S
C314 C318 1.524 . S
C315 C307 1.503 . S
C315 C314 1.370 . S
C315 C316 1.403 . S
C316 C315 1.403 . S
C316 C317 1.404 . S
C316 C319 1.539 . S
C317 C313 1.408 . S
C317 C316 1.404 . S
C317 H329 0.930 . S
C318 C314 1.524 . S
C318 H330 0.956 . S
C318 H331 0.961 . S
C318 H332 0.961 . S
C319 C316 1.539 . S
C319 H333 0.958 . S
C319 H334 0.961 . S
C319 H335 0.960 . S
H320 C304 0.931 . S
H321 C309 0.929 . S
H322 C310 0.960 . S
H323 C310 0.962 . S
H324 C310 0.960 . S
H325 C311 0.961 . S
H326 C311 0.961 . S
H327 C311 0.961 . S
H328 C312 0.931 . S
H329 C317 0.930 . S
H330 C318 0.956 . S
H331 C318 0.961 . S
H332 C318 0.961 . S
H333 C319 0.958 . S
H334 C319 0.961 . S
H335 C319 0.960 . S
C336 C337 1.391 . S
C336 C338 1.394 . S
C336 H352 0.931 . S
C337 C336 1.391 . S
C337 C341 1.376 . S
C338 C336 1.394 . S
C338 C339 1.369 . S
C338 C342 1.531 . S
C339 C338 1.369 . S
C339 C340 1.410 . S
C339 C347 1.503 . S
C340 C339 1.410 . S
C340 C341 1.392 . S
C340 C343 1.511 . S
C341 C337 1.376 . S
C341 C340 1.392 . S
C341 H353 0.929 . S
C342 C338 1.531 . S
C342 H354 0.960 . S
C342 H355 0.962 . S
C342 H356 0.960 . S
C343 C340 1.511 . S
C343 H357 0.961 . S
C343 H358 0.961 . S
C343 H359 0.961 . S
C344 C345 1.370 . S
C344 C346 1.363 . S
C344 H360 0.931 . S
C345 C344 1.370 . S
C345 C349 1.408 . S
C346 C344 1.363 . S
C346 C347 1.370 . S
C346 C350 1.524 . S
C347 C339 1.503 . S
C347 C346 1.370 . S
C347 C348 1.403 . S
C348 C347 1.403 . S
C348 C349 1.404 . S
C348 C351 1.539 . S
C349 C345 1.408 . S
C349 C348 1.404 . S
C349 H361 0.930 . S
C350 C346 1.524 . S
C350 H362 0.956 . S
C350 H363 0.961 . S
C350 H364 0.961 . S
C351 C348 1.539 . S
C351 H365 0.958 . S
C351 H366 0.961 . S
C351 H367 0.960 . S
H352 C336 0.931 . S
H353 C341 0.929 . S
H354 C342 0.960 . S
H355 C342 0.962 . S
H356 C342 0.960 . S
H357 C343 0.961 . S
H358 C343 0.961 . S
H359 C343 0.961 . S
H360 C344 0.931 . S
H361 C349 0.930 . S
H362 C350 0.956 . S
H363 C350 0.961 . S
H364 C350 0.961 . S
H365 C351 0.958 . S
H366 C351 0.961 . S
H367 C351 0.960 . S
C368 C369 1.391 . S
C368 C370 1.394 . S
C368 H384 0.931 . S
C369 C368 1.391 . S
C369 C373 1.376 . S
C370 C368 1.394 . S
C370 C371 1.369 . S
C370 C374 1.531 . S
C371 C370 1.369 . S
C371 C372 1.410 . S
C371 C379 1.503 . S
C372 C371 1.410 . S
C372 C373 1.392 . S
C372 C375 1.511 . S
C373 C369 1.376 . S
C373 C372 1.392 . S
C373 H385 0.929 . S
C374 C370 1.531 . S
C374 H386 0.960 . S
C374 H387 0.962 . S
C374 H388 0.960 . S
C375 C372 1.511 . S
C375 H389 0.961 . S
C375 H390 0.961 . S
C375 H391 0.961 . S
C376 C377 1.370 . S
C376 C378 1.363 . S
C376 H392 0.931 . S
C377 C376 1.370 . S
C377 C381 1.408 . S
C378 C376 1.363 . S
C378 C379 1.370 . S
C378 C382 1.524 . S
C379 C371 1.503 . S
C379 C378 1.370 . S
C379 C380 1.403 . S
C380 C379 1.403 . S
C380 C381 1.404 . S
C380 C383 1.539 . S
C381 C377 1.408 . S
C381 C380 1.404 . S
C381 H393 0.930 . S
C382 C378 1.524 . S
C382 H394 0.956 . S
C382 H395 0.961 . S
C382 H396 0.961 . S
C383 C380 1.539 . S
C383 H397 0.958 . S
C383 H398 0.961 . S
C383 H399 0.960 . S
H384 C368 0.931 . S
H385 C373 0.929 . S
H386 C374 0.960 . S
H387 C374 0.962 . S
H388 C374 0.960 . S
H389 C375 0.961 . S
H390 C375 0.961 . S
H391 C375 0.961 . S
H392 C376 0.931 . S
H393 C381 0.930 . S
H394 C382 0.956 . S
H395 C382 0.961 . S
H396 C382 0.961 . S
H397 C383 0.958 . S
H398 C383 0.961 . S
H399 C383 0.960 . S
C400 C401 1.391 . S
C400 C402 1.394 . S
C400 H416 0.931 . S
C401 C400 1.391 . S
C401 C405 1.376 . S
C402 C400 1.394 . S
C402 C403 1.369 . S
C402 C406 1.531 . S
C403 C402 1.369 . S
C403 C404 1.410 . S
C403 C411 1.503 . S
C404 C403 1.410 . S
C404 C405 1.392 . S
C404 C407 1.511 . S
C405 C401 1.376 . S
C405 C404 1.392 . S
C405 H417 0.929 . S
C406 C402 1.531 . S
C406 H418 0.960 . S
C406 H419 0.962 . S
C406 H420 0.960 . S
C407 C404 1.511 . S
C407 H421 0.961 . S
C407 H422 0.961 . S
C407 H423 0.961 . S
C408 C409 1.370 . S
C408 C410 1.363 . S
C408 H424 0.931 . S
C409 C408 1.370 . S
C409 C413 1.408 . S
C410 C408 1.363 . S
C410 C411 1.370 . S
C410 C414 1.524 . S
C411 C403 1.503 . S
C411 C410 1.370 . S
C411 C412 1.403 . S
C412 C411 1.403 . S
C412 C413 1.404 . S
C412 C415 1.539 . S
C413 C409 1.408 . S
C413 C412 1.404 . S
C413 H425 0.930 . S
C414 C410 1.524 . S
C414 H426 0.956 . S
C414 H427 0.961 . S
C414 H428 0.961 . S
C415 C412 1.539 . S
C415 H429 0.958 . S
C415 H430 0.961 . S
C415 H431 0.960 . S
H416 C400 0.931 . S
H417 C405 0.929 . S
H418 C406 0.960 . S
H419 C406 0.962 . S
H420 C406 0.960 . S
H421 C407 0.961 . S
H422 C407 0.961 . S
H423 C407 0.961 . S
H424 C408 0.931 . S
H425 C413 0.930 . S
H426 C414 0.956 . S
H427 C414 0.961 . S
H428 C414 0.961 . S
H429 C415 0.958 . S
H430 C415 0.961 . S
H431 C415 0.960 . S
C432 C433 1.391 . S
C432 C434 1.394 . S
C432 H448 0.931 . S
C433 C432 1.391 . S
C433 C437 1.376 . S
C434 C432 1.394 . S
C434 C435 1.369 . S
C434 C438 1.531 . S
C435 C434 1.369 . S
C435 C436 1.410 . S
C435 C443 1.503 . S
C436 C435 1.410 . S
C436 C437 1.392 . S
C436 C439 1.511 . S
C437 C433 1.376 . S
C437 C436 1.392 . S
C437 H449 0.929 . S
C438 C434 1.531 . S
C438 H450 0.960 . S
C438 H451 0.962 . S
C438 H452 0.960 . S
C439 C436 1.511 . S
C439 H453 0.961 . S
C439 H454 0.961 . S
C439 H455 0.961 . S
C440 C441 1.370 . S
C440 C442 1.363 . S
C440 H456 0.931 . S
C441 C440 1.370 . S
C441 C445 1.408 . S
C442 C440 1.363 . S
C442 C443 1.370 . S
C442 C446 1.524 . S
C443 C435 1.503 . S
C443 C442 1.370 . S
C443 C444 1.403 . S
C444 C443 1.403 . S
C444 C445 1.404 . S
C444 C447 1.539 . S
C445 C441 1.408 . S
C445 C444 1.404 . S
C445 H457 0.930 . S
C446 C442 1.524 . S
C446 H458 0.956 . S
C446 H459 0.961 . S
C446 H460 0.961 . S
C447 C444 1.539 . S
C447 H461 0.958 . S
C447 H462 0.961 . S
C447 H463 0.960 . S
H448 C432 0.931 . S
H449 C437 0.929 . S
H450 C438 0.960 . S
H451 C438 0.962 . S
H452 C438 0.960 . S
H453 C439 0.961 . S
H454 C439 0.961 . S
H455 C439 0.961 . S
H456 C440 0.931 . S
H457 C445 0.930 . S
H458 C446 0.956 . S
H459 C446 0.961 . S
H460 C446 0.961 . S
H461 C447 0.958 . S
H462 C447 0.961 . S
H463 C447 0.960 . S
C464 C465 1.391 . S
C464 C466 1.394 . S
C464 H480 0.931 . S
C465 C464 1.391 . S
C465 C469 1.376 . S
C466 C464 1.394 . S
C466 C467 1.369 . S
C466 C470 1.531 . S
C467 C466 1.369 . S
C467 C468 1.410 . S
C467 C475 1.503 . S
C468 C467 1.410 . S
C468 C469 1.392 . S
C468 C471 1.511 . S
C469 C465 1.376 . S
C469 C468 1.392 . S
C469 H481 0.929 . S
C470 C466 1.531 . S
C470 H482 0.960 . S
C470 H483 0.962 1_565 S
C470 H484 0.960 . S
C471 C468 1.511 . S
C471 H485 0.961 . S
C471 H486 0.961 . S
C471 H487 0.961 . S
C472 C473 1.370 . S
C472 C474 1.363 . S
C472 H488 0.931 . S
C473 C472 1.370 . S
C473 C477 1.408 . S
C474 C472 1.363 . S
C474 C475 1.370 1_545 S
C474 C478 1.524 . S
C475 C467 1.503 . S
C475 C474 1.370 1_565 S
C475 C476 1.403 . S
C476 C475 1.403 . S
C476 C477 1.404 1_565 S
C476 C479 1.539 . S
C477 C473 1.408 . S
C477 C476 1.404 1_545 S
C477 H489 0.930 . S
C478 C474 1.524 . S
C478 H490 0.956 . S
C478 H491 0.961 . S
C478 H492 0.961 . S
C479 C476 1.539 . S
C479 H493 0.958 . S
C479 H494 0.961 . S
C479 H495 0.960 . S
H480 C464 0.931 . S
H481 C469 0.929 . S
H482 C470 0.960 . S
H483 C470 0.962 1_545 S
H484 C470 0.960 . S
H485 C471 0.961 . S
H486 C471 0.961 . S
H487 C471 0.961 . S
H488 C472 0.931 . S
H489 C477 0.930 . S
H490 C478 0.956 . S
H491 C478 0.961 . S
H492 C478 0.961 . S
H493 C479 0.958 . S
H494 C479 0.961 . S
H495 C479 0.960 . S
C496 C497 1.391 . S
C496 C498 1.394 . S
C496 H512 0.931 . S
C497 C496 1.391 . S
C497 C501 1.376 . S
C498 C496 1.394 . S
C498 C499 1.369 . S
C498 C502 1.531 . S
C499 C498 1.369 . S
C499 C500 1.410 . S
C499 C507 1.503 . S
C500 C499 1.410 . S
C500 C501 1.392 . S
C500 C503 1.511 . S
C501 C497 1.376 . S
C501 C500 1.392 . S
C501 H513 0.929 . S
C502 C498 1.531 . S
C502 H514 0.960 . S
C502 H515 0.962 . S
C502 H516 0.960 . S
C503 C500 1.511 . S
C503 H517 0.961 . S
C503 H518 0.961 . S
C503 H519 0.961 . S
C504 C505 1.370 . S
C504 C506 1.363 . S
C504 H520 0.931 . S
C505 C504 1.370 . S
C505 C509 1.408 . S
C506 C504 1.363 . S
C506 C507 1.370 . S
C506 C510 1.524 . S
C507 C499 1.503 . S
C507 C506 1.370 . S
C507 C508 1.403 . S
C508 C507 1.403 . S
C508 C509 1.404 . S
C508 C511 1.539 . S
C509 C505 1.408 . S
C509 C508 1.404 . S
C509 H521 0.930 . S
C510 C506 1.524 . S
C510 H522 0.956 . S
C510 H523 0.961 . S
C510 H524 0.961 . S
C511 C508 1.539 . S
C511 H525 0.958 . S
C511 H526 0.961 . S
C511 H527 0.960 . S
H512 C496 0.931 . S
H513 C501 0.929 . S
H514 C502 0.960 . S
H515 C502 0.962 . S
H516 C502 0.960 . S
H517 C503 0.961 . S
H518 C503 0.961 . S
H519 C503 0.961 . S
H520 C504 0.931 . S
H521 C509 0.930 . S
H522 C510 0.956 . S
H523 C510 0.961 . S
H524 C510 0.961 . S
H525 C511 0.958 . S
H526 C511 0.961 . S
H527 C511 0.960 . S
C528 C529 1.391 . S
C528 C530 1.394 . S
C528 H544 0.931 . S
C529 C528 1.391 . S
C529 C533 1.376 . S
C530 C528 1.394 . S
C530 C531 1.369 . S
C530 C534 1.531 . S
C531 C530 1.369 . S
C531 C532 1.410 . S
C531 C539 1.503 . S
C532 C531 1.410 . S
C532 C533 1.392 . S
C532 C535 1.511 . S
C533 C529 1.376 . S
C533 C532 1.392 . S
C533 H545 0.929 . S
C534 C530 1.531 . S
C534 H546 0.960 . S
C534 H547 0.962 . S
C534 H548 0.960 . S
C535 C532 1.511 . S
C535 H549 0.961 . S
C535 H550 0.961 1_556 S
C535 H551 0.961 1_556 S
C536 C537 1.370 . S
C536 C538 1.363 1_554 S
C536 H552 0.931 . S
C537 C536 1.370 . S
C537 C541 1.408 . S
C538 C536 1.363 1_556 S
C538 C539 1.370 . S
C538 C542 1.524 . S
C539 C531 1.503 . S
C539 C538 1.370 . S
C539 C540 1.403 1_556 S
C540 C539 1.403 1_554 S
C540 C541 1.404 . S
C540 C543 1.539 . S
C541 C537 1.408 . S
C541 C540 1.404 . S
C541 H553 0.930 . S
C542 C538 1.524 . S
C542 H554 0.956 . S
C542 H555 0.961 . S
C542 H556 0.961 . S
C543 C540 1.539 . S
C543 H557 0.958 . S
C543 H558 0.961 . S
C543 H559 0.960 . S
H544 C528 0.931 . S
H545 C533 0.929 . S
H546 C534 0.960 . S
H547 C534 0.962 . S
H548 C534 0.960 . S
H549 C535 0.961 . S
H550 C535 0.961 1_554 S
H551 C535 0.961 1_554 S
H552 C536 0.931 . S
H553 C541 0.930 . S
H554 C542 0.956 . S
H555 C542 0.961 . S
H556 C542 0.961 . S
H557 C543 0.958 . S
H558 C543 0.961 . S
H559 C543 0.960 . S
C560 C561 1.391 . S
C560 C562 1.394 . S
C560 H576 0.931 . S
C561 C560 1.391 . S
C561 C565 1.376 . S
C562 C560 1.394 . S
C562 C563 1.369 1_554 S
C562 C566 1.531 . S
C563 C562 1.369 1_556 S
C563 C564 1.410 . S
C563 C571 1.503 . S
C564 C563 1.410 . S
C564 C565 1.392 1_556 S
C564 C567 1.511 . S
C565 C561 1.376 . S
C565 C564 1.392 1_554 S
C565 H577 0.929 . S
C566 C562 1.531 . S
C566 H578 0.960 1_554 S
C566 H579 0.962 . S
C566 H580 0.960 . S
C567 C564 1.511 . S
C567 H581 0.961 . S
C567 H582 0.961 . S
C567 H583 0.961 . S
C568 C569 1.370 . S
C568 C570 1.363 . S
C568 H584 0.931 . S
C569 C568 1.370 . S
C569 C573 1.408 . S
C570 C568 1.363 . S
C570 C571 1.370 . S
C570 C574 1.524 . S
C571 C563 1.503 . S
C571 C570 1.370 . S
C571 C572 1.403 . S
C572 C571 1.403 . S
C572 C573 1.404 . S
C572 C575 1.539 . S
C573 C569 1.408 . S
C573 C572 1.404 . S
C573 H585 0.930 . S
C574 C570 1.524 . S
C574 H586 0.956 1_556 S
C574 H587 0.961 . S
C574 H588 0.961 . S
C575 C572 1.539 . S
C575 H589 0.958 . S
C575 H590 0.961 . S
C575 H591 0.960 . S
H576 C560 0.931 . S
H577 C565 0.929 . S
H578 C566 0.960 1_556 S
H579 C566 0.962 . S
H580 C566 0.960 . S
H581 C567 0.961 . S
H582 C567 0.961 . S
H583 C567 0.961 . S
H584 C568 0.931 . S
H585 C573 0.930 . S
H586 C574 0.956 1_554 S
H587 C574 0.961 . S
H588 C574 0.961 . S
H589 C575 0.958 . S
H590 C575 0.961 . S
H591 C575 0.960 . S
C592 C593 1.391 . S
C592 C594 1.394 . S
C592 H608 0.931 . S
C593 C592 1.391 . S
C593 C597 1.376 . S
C594 C592 1.394 . S
C594 C595 1.369 . S
C594 C598 1.531 . S
C595 C594 1.369 . S
C595 C596 1.410 . S
C595 C603 1.503 . S
C596 C595 1.410 . S
C596 C597 1.392 . S
C596 C599 1.511 . S
C597 C593 1.376 . S
C597 C596 1.392 . S
C597 H609 0.929 . S
C598 C594 1.531 . S
C598 H610 0.960 . S
C598 H611 0.962 . S
C598 H612 0.960 . S
C599 C596 1.511 . S
C599 H613 0.961 . S
C599 H614 0.961 . S
C599 H615 0.961 . S
C600 C601 1.370 . S
C600 C602 1.363 . S
C600 H616 0.931 . S
C601 C600 1.370 . S
C601 C605 1.408 . S
C602 C600 1.363 . S
C602 C603 1.370 . S
C602 C606 1.524 . S
C603 C595 1.503 . S
C603 C602 1.370 . S
C603 C604 1.403 . S
C604 C603 1.403 . S
C604 C605 1.404 . S
C604 C607 1.539 . S
C605 C601 1.408 . S
C605 C604 1.404 . S
C605 H617 0.930 . S
C606 C602 1.524 . S
C606 H618 0.956 . S
C606 H619 0.961 . S
C606 H620 0.961 . S
C607 C604 1.539 . S
C607 H621 0.958 . S
C607 H622 0.961 . S
C607 H623 0.960 . S
H608 C592 0.931 . S
H609 C597 0.929 . S
H610 C598 0.960 . S
H611 C598 0.962 . S
H612 C598 0.960 . S
H613 C599 0.961 . S
H614 C599 0.961 . S
H615 C599 0.961 . S
H616 C600 0.931 . S
H617 C605 0.930 . S
H618 C606 0.956 . S
H619 C606 0.961 . S
H620 C606 0.961 . S
H621 C607 0.958 . S
H622 C607 0.961 . S
H623 C607 0.960 . S
C624 C625 1.391 . S
C624 C626 1.394 . S
C624 H640 0.931 . S
C625 C624 1.391 . S
C625 C629 1.376 . S
C626 C624 1.394 . S
C626 C627 1.369 . S
C626 C630 1.531 . S
C627 C626 1.369 . S
C627 C628 1.410 . S
C627 C635 1.503 . S
C628 C627 1.410 . S
C628 C629 1.392 . S
C628 C631 1.511 . S
C629 C625 1.376 . S
C629 C628 1.392 . S
C629 H641 0.929 . S
C630 C626 1.531 . S
C630 H642 0.960 . S
C630 H643 0.962 . S
C630 H644 0.960 . S
C631 C628 1.511 . S
C631 H645 0.961 . S
C631 H646 0.961 . S
C631 H647 0.961 . S
C632 C633 1.370 . S
C632 C634 1.363 . S
C632 H648 0.931 . S
C633 C632 1.370 . S
C633 C637 1.408 . S
C634 C632 1.363 . S
C634 C635 1.370 . S
C634 C638 1.524 . S
C635 C627 1.503 . S
C635 C634 1.370 . S
C635 C636 1.403 . S
C636 C635 1.403 . S
C636 C637 1.404 . S
C636 C639 1.539 . S
C637 C633 1.408 . S
C637 C636 1.404 . S
C637 H649 0.930 . S
C638 C634 1.524 . S
C638 H650 0.956 . S
C638 H651 0.961 . S
C638 H652 0.961 . S
C639 C636 1.539 . S
C639 H653 0.958 . S
C639 H654 0.961 . S
C639 H655 0.960 . S
H640 C624 0.931 . S
H641 C629 0.929 . S
H642 C630 0.960 . S
H643 C630 0.962 . S
H644 C630 0.960 . S
H645 C631 0.961 . S
H646 C631 0.961 . S
H647 C631 0.961 . S
H648 C632 0.931 . S
H649 C637 0.930 . S
H650 C638 0.956 . S
H651 C638 0.961 . S
H652 C638 0.961 . S
H653 C639 0.958 . S
H654 C639 0.961 . S
H655 C639 0.960 . S
C656 C657 1.391 . S
C656 C658 1.394 . S
C656 H672 0.931 . S
C657 C656 1.391 . S
C657 C661 1.376 . S
C658 C656 1.394 . S
C658 C659 1.369 . S
C658 C662 1.531 1_655 S
C659 C658 1.369 . S
C659 C660 1.410 . S
C659 C667 1.503 1_655 S
C660 C659 1.410 . S
C660 C661 1.392 . S
C660 C663 1.511 . S
C661 C657 1.376 . S
C661 C660 1.392 . S
C661 H673 0.929 . S
C662 C658 1.531 1_455 S
C662 H674 0.960 . S
C662 H675 0.962 . S
C662 H676 0.960 . S
C663 C660 1.511 . S
C663 H677 0.961 . S
C663 H678 0.961 . S
C663 H679 0.961 . S
C664 C665 1.370 . S
C664 C666 1.363 . S
C664 H680 0.931 . S
C665 C664 1.370 . S
C665 C669 1.408 . S
C666 C664 1.363 . S
C666 C667 1.370 . S
C666 C670 1.524 . S
C667 C659 1.503 1_455 S
C667 C666 1.370 . S
C667 C668 1.403 . S
C668 C667 1.403 . S
C668 C669 1.404 . S
C668 C671 1.539 1_455 S
C669 C665 1.408 . S
C669 C668 1.404 . S
C669 H681 0.930 . S
C670 C666 1.524 . S
C670 H682 0.956 . S
C670 H683 0.961 . S
C670 H684 0.961 . S
C671 C668 1.539 1_655 S
C671 H685 0.958 . S
C671 H686 0.961 . S
C671 H687 0.960 . S
H672 C656 0.931 . S
H673 C661 0.929 . S
H674 C662 0.960 . S
H675 C662 0.962 . S
H676 C662 0.960 . S
H677 C663 0.961 . S
H678 C663 0.961 . S
H679 C663 0.961 . S
H680 C664 0.931 . S
H681 C669 0.930 . S
H682 C670 0.956 . S
H683 C670 0.961 . S
H684 C670 0.961 . S
H685 C671 0.958 . S
H686 C671 0.961 . S
H687 C671 0.960 . S
C688 C689 1.391 . S
C688 C690 1.394 . S
C688 H704 0.931 . S
C689 C688 1.391 . S
C689 C693 1.376 . S
C690 C688 1.394 . S
C690 C691 1.369 . S
C690 C694 1.531 . S
C691 C690 1.369 . S
C691 C692 1.410 . S
C691 C699 1.503 1_655 S
C692 C691 1.410 . S
C692 C693 1.392 . S
C692 C695 1.511 . S
C693 C689 1.376 . S
C693 C692 1.392 . S
C693 H705 0.929 . S
C694 C690 1.531 . S
C694 H706 0.960 . S
C694 H707 0.962 . S
C694 H708 0.960 . S
C695 C692 1.511 . S
C695 H709 0.961 . S
C695 H710 0.961 1_655 S
C695 H711 0.961 . S
C696 C697 1.370 . S
C696 C698 1.363 . S
C696 H712 0.931 . S
C697 C696 1.370 . S
C697 C701 1.408 . S
C698 C696 1.363 . S
C698 C699 1.370 . S
C698 C702 1.524 . S
C699 C691 1.503 1_455 S
C699 C698 1.370 . S
C699 C700 1.403 . S
C700 C699 1.403 . S
C700 C701 1.404 . S
C700 C703 1.539 . S
C701 C697 1.408 . S
C701 C700 1.404 . S
C701 H713 0.930 . S
C702 C698 1.524 . S
C702 H714 0.956 . S
C702 H715 0.961 . S
C702 H716 0.961 . S
C703 C700 1.539 . S
C703 H717 0.958 1_455 S
C703 H718 0.961 . S
C703 H719 0.960 1_455 S
H704 C688 0.931 . S
H705 C693 0.929 . S
H706 C694 0.960 . S
H707 C694 0.962 . S
H708 C694 0.960 . S
H709 C695 0.961 . S
H710 C695 0.961 1_455 S
H711 C695 0.961 . S
H712 C696 0.931 . S
H713 C701 0.930 . S
H714 C702 0.956 . S
H715 C702 0.961 . S
H716 C702 0.961 . S
H717 C703 0.958 1_655 S
H718 C703 0.961 . S
H719 C703 0.960 1_655 S
C720 C721 1.391 . S
C720 C722 1.394 . S
C720 H736 0.931 . S
C721 C720 1.391 . S
C721 C725 1.376 . S
C722 C720 1.394 . S
C722 C723 1.369 . S
C722 C726 1.531 . S
C723 C722 1.369 . S
C723 C724 1.410 . S
C723 C731 1.503 . S
C724 C723 1.410 . S
C724 C725 1.392 . S
C724 C727 1.511 . S
C725 C721 1.376 . S
C725 C724 1.392 . S
C725 H737 0.929 . S
C726 C722 1.531 . S
C726 H738 0.960 . S
C726 H739 0.962 . S
C726 H740 0.960 . S
C727 C724 1.511 . S
C727 H741 0.961 . S
C727 H742 0.961 . S
C727 H743 0.961 . S
C728 C729 1.370 . S
C728 C730 1.363 . S
C728 H744 0.931 . S
C729 C728 1.370 . S
C729 C733 1.408 . S
C730 C728 1.363 . S
C730 C731 1.370 . S
C730 C734 1.524 . S
C731 C723 1.503 . S
C731 C730 1.370 . S
C731 C732 1.403 . S
C732 C731 1.403 . S
C732 C733 1.404 . S
C732 C735 1.539 . S
C733 C729 1.408 . S
C733 C732 1.404 . S
C733 H745 0.930 . S
C734 C730 1.524 . S
C734 H746 0.956 . S
C734 H747 0.961 . S
C734 H748 0.961 . S
C735 C732 1.539 . S
C735 H749 0.958 . S
C735 H750 0.961 . S
C735 H751 0.960 . S
H736 C720 0.931 . S
H737 C725 0.929 . S
H738 C726 0.960 . S
H739 C726 0.962 . S
H740 C726 0.960 . S
H741 C727 0.961 . S
H742 C727 0.961 . S
H743 C727 0.961 . S
H744 C728 0.931 . S
H745 C733 0.930 . S
H746 C734 0.956 . S
H747 C734 0.961 . S
H748 C734 0.961 . S
H749 C735 0.958 . S
H750 C735 0.961 . S
H751 C735 0.960 . S
C752 C753 1.391 . S
C752 C754 1.394 . S
C752 H768 0.931 . S
C753 C752 1.391 . S
C753 C757 1.376 . S
C754 C752 1.394 . S
C754 C755 1.369 . S
C754 C758 1.531 1_545 S
C755 C754 1.369 . S
C755 C756 1.410 . S
C755 C763 1.503 1_545 S
C756 C755 1.410 . S
C756 C757 1.392 . S
C756 C759 1.511 . S
C757 C753 1.376 . S
C757 C756 1.392 . S
C757 H769 0.929 . S
C758 C754 1.531 1_565 S
C758 H770 0.960 . S
C758 H771 0.962 . S
C758 H772 0.960 . S
C759 C756 1.511 . S
C759 H773 0.961 . S
C759 H774 0.961 . S
C759 H775 0.961 . S
C760 C761 1.370 . S
C760 C762 1.363 . S
C760 H776 0.931 . S
C761 C760 1.370 . S
C761 C765 1.408 . S
C762 C760 1.363 . S
C762 C763 1.370 . S
C762 C766 1.524 . S
C763 C755 1.503 1_565 S
C763 C762 1.370 . S
C763 C764 1.403 . S
C764 C763 1.403 . S
C764 C765 1.404 . S
C764 C767 1.539 . S
C765 C761 1.408 . S
C765 C764 1.404 . S
C765 H777 0.930 . S
C766 C762 1.524 . S
C766 H778 0.956 . S
C766 H779 0.980 . S
C766 H780 0.961 . S
C767 C764 1.539 . S
C767 H781 0.958 . S
C767 H782 0.961 . S
C767 H783 0.960 1_565 S
H768 C752 0.931 . S
H769 C757 0.929 . S
H770 C758 0.960 . S
H771 C758 0.962 . S
H772 C758 0.960 . S
H773 C759 0.961 . S
H774 C759 0.961 . S
H775 C759 0.961 . S
H776 C760 0.931 . S
H777 C765 0.930 . S
H778 C766 0.956 . S
H779 C766 0.980 . S
H780 C766 0.961 . S
H781 C767 0.958 . S
H782 C767 0.961 . S
H783 C767 0.960 1_545 S
C784 C785 1.391 . S
C784 C786 1.394 . S
C784 H800 0.931 . S
C785 C784 1.391 . S
C785 C789 1.376 . S
C786 C784 1.394 . S
C786 C787 1.369 . S
C786 C790 1.531 . S
C787 C786 1.369 . S
C787 C788 1.410 . S
C787 C795 1.503 . S
C788 C787 1.410 . S
C788 C789 1.392 . S
C788 C791 1.511 . S
C789 C785 1.376 . S
C789 C788 1.392 . S
C789 H801 0.929 . S
C790 C786 1.531 . S
C790 H802 0.960 . S
C790 H803 0.962 . S
C790 H804 0.960 . S
C791 C788 1.511 . S
C791 H805 0.961 . S
C791 H806 0.961 . S
C791 H807 0.961 . S
C792 C793 1.370 . S
C792 C794 1.363 . S
C792 H808 0.931 . S
C793 C792 1.370 . S
C793 C797 1.408 . S
C794 C792 1.363 . S
C794 C795 1.370 . S
C794 C798 1.524 . S
C795 C787 1.503 . S
C795 C794 1.370 . S
C795 C796 1.403 . S
C796 C795 1.403 . S
C796 C797 1.404 . S
C796 C799 1.539 . S
C797 C793 1.408 . S
C797 C796 1.404 . S
C797 H809 0.930 . S
C798 C794 1.524 . S
C798 H810 0.956 . S
C798 H811 0.961 . S
C798 H812 0.961 . S
C799 C796 1.539 . S
C799 H813 0.958 . S
C799 H814 0.961 . S
C799 H815 0.960 . S
H800 C784 0.931 . S
H801 C789 0.929 . S
H802 C790 0.960 . S
H803 C790 0.962 . S
H804 C790 0.960 . S
H805 C791 0.961 . S
H806 C791 0.961 . S
H807 C791 0.961 . S
H808 C792 0.931 . S
H809 C797 0.930 . S
H810 C798 0.956 . S
H811 C798 0.961 . S
H812 C798 0.961 . S
H813 C799 0.958 . S
H814 C799 0.961 . S
H815 C799 0.960 . S
C816 C817 1.391 . S
C816 C818 1.394 . S
C816 H832 0.931 . S
C817 C816 1.391 . S
C817 C821 1.376 . S
C818 C816 1.394 . S
C818 C819 1.369 . S
C818 C822 1.531 . S
C819 C818 1.369 . S
C819 C820 1.410 . S
C819 C827 1.475 1_554 S
C820 C819 1.410 . S
C820 C821 1.392 . S
C820 C823 1.511 . S
C821 C817 1.376 . S
C821 C820 1.392 . S
C821 H833 0.929 . S
C822 C818 1.531 . S
C822 H834 0.960 . S
C822 H835 0.962 . S
C822 H836 0.960 . S
C823 C820 1.511 . S
C823 H837 0.961 . S
C823 H838 0.961 . S
C823 H839 0.961 . S
C824 C825 1.370 . S
C824 C826 1.363 1_556 S
C824 H840 0.931 . S
C825 C824 1.370 . S
C825 C829 1.408 . S
C826 C824 1.363 1_554 S
C826 C827 1.366 1_554 S
C826 C830 1.524 . S
C827 C819 1.475 1_556 S
C827 C826 1.366 1_556 S
C827 C828 1.436 . S
C828 C827 1.436 . S
C828 C829 1.404 . S
C828 C831 1.539 . S
C829 C825 1.408 . S
C829 C828 1.404 . S
C829 H841 0.930 . S
C830 C826 1.524 . S
C830 H842 0.956 . S
C830 H843 0.961 . S
C830 H844 0.961 . S
C831 C828 1.539 . S
C831 H845 0.958 . S
C831 H846 0.961 . S
C831 H847 0.960 . S
H832 C816 0.931 . S
H833 C821 0.929 . S
H834 C822 0.960 . S
H835 C822 0.962 . S
H836 C822 0.960 . S
H837 C823 0.961 . S
H838 C823 0.961 . S
H839 C823 0.961 . S
H840 C824 0.931 . S
H841 C829 0.930 . S
H842 C830 0.956 . S
H843 C830 0.961 . S
H844 C830 0.961 . S
H845 C831 0.958 . S
H846 C831 0.961 . S
H847 C831 0.960 . S
C848 C849 1.391 . S
C848 C850 1.394 . S
C848 H864 0.931 . S
C849 C848 1.391 . S
C849 C853 1.376 . S
C850 C848 1.394 . S
C850 C851 1.371 . S
C850 C854 1.531 1_556 S
C851 C850 1.371 . S
C851 C852 1.431 . S
C851 C859 1.480 1_556 S
C852 C851 1.431 . S
C852 C853 1.392 . S
C852 C855 1.511 . S
C853 C849 1.376 . S
C853 C852 1.392 . S
C853 H865 0.929 . S
C854 C850 1.531 1_554 S
C854 H866 0.960 . S
C854 H867 0.962 . S
C854 H868 0.960 . S
C855 C852 1.511 . S
C855 H869 0.961 . S
C855 H870 0.961 . S
C855 H871 0.961 . S
C856 C857 1.370 . S
C856 C858 1.363 . S
C856 H872 0.931 . S
C857 C856 1.370 . S
C857 C861 1.408 . S
C858 C856 1.363 . S
C858 C859 1.370 . S
C858 C862 1.524 . S
C859 C851 1.480 1_554 S
C859 C858 1.370 . S
C859 C860 1.403 . S
C860 C859 1.403 . S
C860 C861 1.404 . S
C860 C863 1.539 . S
C861 C857 1.408 . S
C861 C860 1.404 . S
C861 H873 0.930 . S
C862 C858 1.524 . S
C862 H874 0.956 . S
C862 H875 0.961 . S
C862 H876 0.961 . S
C863 C860 1.539 . S
C863 H877 0.958 . S
C863 H878 0.961 . S
C863 H879 0.960 1_554 S
H864 C848 0.931 . S
H865 C853 0.929 . S
H866 C854 0.960 . S
H867 C854 0.962 . S
H868 C854 0.960 . S
H869 C855 0.961 . S
H870 C855 0.961 . S
H871 C855 0.961 . S
H872 C856 0.931 . S
H873 C861 0.930 . S
H874 C862 0.956 . S
H875 C862 0.961 . S
H876 C862 0.961 . S
H877 C863 0.958 . S
H878 C863 0.961 . S
H879 C863 0.960 1_556 S
C880 C881 1.391 . S
C880 C882 1.394 . S
C880 H896 0.931 . S
C881 C880 1.391 . S
C881 C885 1.376 . S
C882 C880 1.394 . S
C882 C883 1.369 . S
C882 C886 1.531 . S
C883 C882 1.369 . S
C883 C884 1.410 . S
C883 C891 1.503 . S
C884 C883 1.410 . S
C884 C885 1.392 . S
C884 C887 1.511 . S
C885 C881 1.376 . S
C885 C884 1.392 . S
C885 H897 0.929 . S
C886 C882 1.531 . S
C886 H898 0.960 . S
C886 H899 0.962 . S
C886 H900 0.960 . S
C887 C884 1.511 . S
C887 H901 0.961 . S
C887 H902 0.961 . S
C887 H903 0.961 . S
C888 C889 1.370 . S
C888 C890 1.363 . S
C888 H904 0.931 . S
C889 C888 1.370 . S
C889 C893 1.408 . S
C890 C888 1.363 . S
C890 C891 1.370 . S
C890 C894 1.524 . S
C891 C883 1.503 . S
C891 C890 1.370 . S
C891 C892 1.403 . S
C892 C891 1.403 . S
C892 C893 1.404 . S
C892 C895 1.539 . S
C893 C889 1.408 . S
C893 C892 1.404 . S
C893 H905 0.930 . S
C894 C890 1.524 . S
C894 H906 0.956 . S
C894 H907 0.961 . S
C894 H908 0.961 . S
C895 C892 1.539 . S
C895 H909 0.958 . S
C895 H910 0.961 . S
C895 H911 0.960 . S
H896 C880 0.931 . S
H897 C885 0.929 . S
H898 C886 0.960 . S
H899 C886 0.962 . S
H900 C886 0.960 . S
H901 C887 0.961 . S
H902 C887 0.961 . S
H903 C887 0.961 . S
H904 C888 0.931 . S
H905 C893 0.930 . S
H906 C894 0.956 . S
H907 C894 0.961 . S
H908 C894 0.961 . S
H909 C895 0.958 . S
H910 C895 0.961 . S
H911 C895 0.960 . S
C912 C913 1.391 . S
C912 C914 1.394 . S
C912 H928 0.931 . S
C913 C912 1.391 . S
C913 C917 1.376 . S
C914 C912 1.394 . S
C914 C915 1.369 . S
C914 C918 1.531 . S
C915 C914 1.369 . S
C915 C916 1.410 . S
C915 C923 1.503 . S
C916 C915 1.410 . S
C916 C917 1.392 . S
C916 C919 1.511 . S
C917 C913 1.376 . S
C917 C916 1.392 . S
C917 H929 0.929 . S
C918 C914 1.531 . S
C918 H930 0.960 . S
C918 H931 0.962 . S
C918 H932 0.960 . S
C919 C916 1.511 . S
C919 H933 0.961 . S
C919 H934 0.961 . S
C919 H935 0.961 . S
C920 C921 1.370 . S
C920 C922 1.363 . S
C920 H936 0.931 . S
C921 C920 1.370 . S
C921 C925 1.408 . S
C922 C920 1.363 . S
C922 C923 1.370 . S
C922 C926 1.524 . S
C923 C915 1.503 . S
C923 C922 1.370 . S
C923 C924 1.403 . S
C924 C923 1.403 . S
C924 C925 1.404 . S
C924 C927 1.539 . S
C925 C921 1.408 . S
C925 C924 1.404 . S
C925 H937 0.930 . S
C926 C922 1.524 . S
C926 H938 0.956 . S
C926 H939 0.961 . S
C926 H940 0.961 . S
C927 C924 1.539 . S
C927 H941 0.958 . S
C927 H942 0.961 . S
C927 H943 0.960 . S
H928 C912 0.931 . S
H929 C917 0.929 . S
H930 C918 0.960 . S
H931 C918 0.962 . S
H932 C918 0.960 . S
H933 C919 0.961 . S
H934 C919 0.961 . S
H935 C919 0.961 . S
H936 C920 0.931 . S
H937 C925 0.930 . S
H938 C926 0.956 . S
H939 C926 0.961 . S
H940 C926 0.961 . S
H941 C927 0.958 . S
H942 C927 0.961 . S
H943 C927 0.960 . S
C944 C945 1.391 . S
C944 C946 1.394 . S
C944 H960 0.931 . S
C945 C944 1.391 . S
C945 C949 1.376 . S
C946 C944 1.394 . S
C946 C947 1.369 . S
C946 C950 1.531 1_455 S
C947 C946 1.369 . S
C947 C948 1.410 . S
C947 C955 1.503 1_455 S
C948 C947 1.410 . S
C948 C949 1.392 . S
C948 C951 1.511 . S
C949 C945 1.376 . S
C949 C948 1.392 . S
C949 H961 0.929 . S
C950 C946 1.531 1_655 S
C950 H962 0.960 . S
C950 H963 0.962 . S
C950 H964 0.960 . S
C951 C948 1.511 . S
C951 H965 0.961 . S
C951 H966 0.961 . S
C951 H967 0.961 . S
C952 C953 1.370 . S
C952 C954 1.363 . S
C952 H968 0.931 . S
C953 C952 1.370 . S
C953 C957 1.408 . S
C954 C952 1.363 . S
C954 C955 1.370 . S
C954 C958 1.524 1_655 S
C955 C947 1.503 1_655 S
C955 C954 1.370 . S
C955 C956 1.403 . S
C956 C955 1.403 . S
C956 C957 1.404 . S
C956 C959 1.539 . S
C957 C953 1.408 . S
C957 C956 1.404 . S
C957 H969 0.930 . S
C958 C954 1.524 1_455 S
C958 H970 0.956 . S
C958 H971 0.961 . S
C958 H972 0.961 . S
C959 C956 1.539 . S
C959 H973 0.958 . S
C959 H974 0.961 . S
C959 H975 0.960 . S
H960 C944 0.931 . S
H961 C949 0.929 . S
H962 C950 0.960 . S
H963 C950 0.962 . S
H964 C950 0.960 . S
H965 C951 0.961 . S
H966 C951 0.961 . S
H967 C951 0.961 . S
H968 C952 0.931 . S
H969 C957 0.930 . S
H970 C958 0.956 . S
H971 C958 0.961 . S
H972 C958 0.961 . S
H973 C959 0.958 . S
H974 C959 0.961 . S
H975 C959 0.960 . S
C976 C977 1.391 . S
C976 C978 1.394 . S
C976 H992 0.931 . S
C977 C976 1.391 . S
C977 C981 1.376 . S
C978 C976 1.394 . S
C978 C979 1.369 . S
C978 C982 1.531 . S
C979 C978 1.369 . S
C979 C980 1.410 . S
C979 C987 1.503 1_455 S
C980 C979 1.410 . S
C980 C981 1.392 . S
C980 C983 1.511 1_455 S
C981 C977 1.376 . S
C981 C980 1.392 . S
C981 H993 0.929 . S
C982 C978 1.531 . S
C982 H994 0.960 . S
C982 H995 0.962 . S
C982 H996 0.960 . S
C983 C980 1.511 1_655 S
C983 H997 0.961 . S
C983 H998 0.961 . S
C983 H999 0.961 . S
C984 C985 1.370 . S
C984 C986 1.363 . S
C984 H1000 0.931 . S
C985 C984 1.370 . S
C985 C989 1.408 . S
C986 C984 1.363 . S
C986 C987 1.370 . S
C986 C990 1.524 . S
C987 C979 1.503 1_655 S
C987 C986 1.370 . S
C987 C988 1.403 . S
C988 C987 1.403 . S
C988 C989 1.404 . S
C988 C991 1.539 . S
C989 C985 1.408 . S
C989 C988 1.404 . S
C989 H1001 0.930 . S
C990 C986 1.524 . S
C990 H1002 0.956 1_655 S
C990 H1003 0.961 . S
C990 H1004 0.961 . S
C991 C988 1.539 . S
C991 H1005 0.958 . S
C991 H1006 0.961 . S
C991 H1007 0.960 . S
H992 C976 0.931 . S
H993 C981 0.929 . S
H994 C982 0.960 . S
H995 C982 0.962 . S
H996 C982 0.960 . S
H997 C983 0.961 . S
H998 C983 0.961 . S
H999 C983 0.961 . S
H1000 C984 0.931 . S
H1001 C989 0.930 . S
H1002 C990 0.956 1_455 S
H1003 C990 0.961 . S
H1004 C990 0.961 . S
H1005 C991 0.958 . S
H1006 C991 0.961 . S
H1007 C991 0.960 . S
C1008 C1009 1.391 . S
C1008 C1010 1.394 . S
C1008 H1024 0.931 . S
C1009 C1008 1.391 . S
C1009 C1013 1.376 . S
C1010 C1008 1.394 . S
C1010 C1011 1.369 . S
C1010 C1014 1.531 . S
C1011 C1010 1.369 . S
C1011 C1012 1.410 . S
C1011 C1019 1.503 . S
C1012 C1011 1.410 . S
C1012 C1013 1.392 . S
C1012 C1015 1.511 . S
C1013 C1009 1.376 . S
C1013 C1012 1.392 . S
C1013 H1025 0.929 . S
C1014 C1010 1.531 . S
C1014 H1026 0.960 . S
C1014 H1027 0.962 . S
C1014 H1028 0.960 . S
C1015 C1012 1.511 . S
C1015 H1029 0.961 . S
C1015 H1030 0.961 . S
C1015 H1031 0.961 . S
C1016 C1017 1.370 . S
C1016 C1018 1.363 . S
C1016 H1032 0.931 . S
C1017 C1016 1.370 . S
C1017 C1021 1.408 . S
C1018 C1016 1.363 . S
C1018 C1019 1.370 . S
C1018 C1022 1.524 . S
C1019 C1011 1.503 . S
C1019 C1018 1.370 . S
C1019 C1020 1.403 . S
C1020 C1019 1.403 . S
C1020 C1021 1.404 . S
C1020 C1023 1.539 . S
C1021 C1017 1.408 . S
C1021 C1020 1.404 . S
C1021 H1033 0.930 . S
C1022 C1018 1.524 . S
C1022 H1034 0.956 . S
C1022 H1035 0.961 . S
C1022 H1036 0.961 . S
C1023 C1020 1.539 . S
C1023 H1037 0.958 . S
C1023 H1038 0.961 . S
C1023 H1039 0.960 . S
H1024 C1008 0.931 . S
H1025 C1013 0.929 . S
H1026 C1014 0.960 . S
H1027 C1014 0.962 . S
H1028 C1014 0.960 . S
H1029 C1015 0.961 . S
H1030 C1015 0.961 . S
H1031 C1015 0.961 . S
H1032 C1016 0.931 . S
H1033 C1021 0.930 . S
H1034 C1022 0.956 . S
H1035 C1022 0.961 . S
H1036 C1022 0.961 . S
H1037 C1023 0.958 . S
H1038 C1023 0.961 . S
H1039 C1023 0.960 . S
C1040 C1041 1.391 . S
C1040 C1042 1.394 . S
C1040 H1056 0.931 . S
C1041 C1040 1.391 . S
C1041 C1045 1.376 . S
C1042 C1040 1.394 . S
C1042 C1043 1.369 . S
C1042 C1046 1.531 . S
C1043 C1042 1.369 . S
C1043 C1044 1.410 . S
C1043 C1051 1.503 . S
C1044 C1043 1.410 . S
C1044 C1045 1.392 . S
C1044 C1047 1.511 . S
C1045 C1041 1.376 . S
C1045 C1044 1.392 . S
C1045 H1057 0.929 . S
C1046 C1042 1.531 . S
C1046 H1058 0.960 . S
C1046 H1059 0.962 . S
C1046 H1060 0.960 . S
C1047 C1044 1.511 . S
C1047 H1061 0.961 . S
C1047 H1062 0.961 . S
C1047 H1063 0.961 . S
C1048 C1049 1.370 . S
C1048 C1050 1.363 . S
C1048 H1064 0.931 . S
C1049 C1048 1.370 . S
C1049 C1053 1.408 . S
C1050 C1048 1.363 . S
C1050 C1051 1.370 . S
C1050 C1054 1.524 . S
C1051 C1043 1.503 . S
C1051 C1050 1.370 . S
C1051 C1052 1.403 . S
C1052 C1051 1.403 . S
C1052 C1053 1.404 . S
C1052 C1055 1.539 . S
C1053 C1049 1.408 . S
C1053 C1052 1.404 . S
C1053 H1065 0.930 . S
C1054 C1050 1.524 . S
C1054 H1066 0.956 . S
C1054 H1067 0.961 . S
C1054 H1068 0.961 . S
C1055 C1052 1.539 . S
C1055 H1069 0.958 . S
C1055 H1070 0.961 . S
C1055 H1071 0.960 . S
H1056 C1040 0.931 . S
H1057 C1045 0.929 . S
H1058 C1046 0.960 . S
H1059 C1046 0.962 . S
H1060 C1046 0.960 . S
H1061 C1047 0.961 . S
H1062 C1047 0.961 . S
H1063 C1047 0.961 . S
H1064 C1048 0.931 . S
H1065 C1053 0.930 . S
H1066 C1054 0.956 . S
H1067 C1054 0.961 . S
H1068 C1054 0.961 . S
H1069 C1055 0.958 . S
H1070 C1055 0.961 . S
H1071 C1055 0.960 . S
C1072 C1073 1.391 . S
C1072 C1074 1.394 . S
C1072 H1088 0.931 . S
C1073 C1072 1.391 . S
C1073 C1077 1.376 . S
C1074 C1072 1.394 . S
C1074 C1075 1.369 . S
C1074 C1078 1.531 . S
C1075 C1074 1.369 . S
C1075 C1076 1.410 . S
C1075 C1083 1.503 . S
C1076 C1075 1.410 . S
C1076 C1077 1.392 . S
C1076 C1079 1.511 . S
C1077 C1073 1.376 . S
C1077 C1076 1.392 . S
C1077 H1089 0.929 . S
C1078 C1074 1.531 . S
C1078 H1090 0.960 . S
C1078 H1091 0.962 . S
C1078 H1092 0.960 . S
C1079 C1076 1.511 . S
C1079 H1093 0.961 . S
C1079 H1094 0.961 . S
C1079 H1095 0.961 . S
C1080 C1081 1.370 . S
C1080 C1082 1.363 . S
C1080 H1096 0.931 . S
C1081 C1080 1.370 . S
C1081 C1085 1.408 . S
C1082 C1080 1.363 . S
C1082 C1083 1.370 1_565 S
C1082 C1086 1.524 . S
C1083 C1075 1.503 . S
C1083 C1082 1.370 1_545 S
C1083 C1084 1.403 . S
C1084 C1083 1.403 . S
C1084 C1085 1.404 1_545 S
C1084 C1087 1.539 . S
C1085 C1081 1.408 . S
C1085 C1084 1.404 1_565 S
C1085 H1097 0.930 . S
C1086 C1082 1.524 . S
C1086 H1098 0.956 . S
C1086 H1099 0.961 . S
C1086 H1100 0.961 . S
C1087 C1084 1.539 . S
C1087 H1101 0.958 . S
C1087 H1102 0.961 . S
C1087 H1103 0.960 . S
H1088 C1072 0.931 . S
H1089 C1077 0.929 . S
H1090 C1078 0.960 . S
H1091 C1078 0.962 . S
H1092 C1078 0.960 . S
H1093 C1079 0.961 . S
H1094 C1079 0.961 . S
H1095 C1079 0.961 . S
H1096 C1080 0.931 . S
H1097 C1085 0.930 . S
H1098 C1086 0.956 . S
H1099 C1086 0.961 . S
H1100 C1086 0.961 . S
H1101 C1087 0.958 . S
H1102 C1087 0.961 . S
H1103 C1087 0.960 . S
C1104 C1105 1.391 . S
C1104 C1106 1.394 . S
C1104 H1120 0.931 . S
C1105 C1104 1.391 . S
C1105 C1109 1.376 . S
C1106 C1104 1.394 . S
C1106 C1107 1.369 . S
C1106 C1110 1.531 . S
C1107 C1106 1.369 . S
C1107 C1108 1.410 . S
C1107 C1115 1.503 . S
C1108 C1107 1.410 . S
C1108 C1109 1.392 . S
C1108 C1111 1.511 . S
C1109 C1105 1.376 . S
C1109 C1108 1.392 . S
C1109 H1121 0.929 . S
C1110 C1106 1.531 . S
C1110 H1122 0.960 . S
C1110 H1123 0.962 . S
C1110 H1124 0.960 . S
C1111 C1108 1.511 . S
C1111 H1125 0.961 . S
C1111 H1126 0.961 . S
C1111 H1127 0.961 . S
C1112 C1113 1.370 . S
C1112 C1114 1.363 . S
C1112 H1128 0.931 . S
C1113 C1112 1.370 . S
C1113 C1117 1.408 . S
C1114 C1112 1.363 . S
C1114 C1115 1.370 . S
C1114 C1118 1.524 . S
C1115 C1107 1.503 . S
C1115 C1114 1.370 . S
C1115 C1116 1.403 . S
C1116 C1115 1.403 . S
C1116 C1117 1.404 . S
C1116 C1119 1.539 . S
C1117 C1113 1.408 . S
C1117 C1116 1.404 . S
C1117 H1129 0.930 . S
C1118 C1114 1.524 . S
C1118 H1130 0.956 . S
C1118 H1131 0.961 . S
C1118 H1132 0.961 . S
C1119 C1116 1.539 . S
C1119 H1133 0.958 . S
C1119 H1134 0.961 . S
C1119 H1135 0.960 . S
H1120 C1104 0.931 . S
H1121 C1109 0.929 . S
H1122 C1110 0.960 . S
H1123 C1110 0.962 . S
H1124 C1110 0.960 . S
H1125 C1111 0.961 . S
H1126 C1111 0.961 . S
H1127 C1111 0.961 . S
H1128 C1112 0.931 . S
H1129 C1117 0.930 . S
H1130 C1118 0.956 . S
H1131 C1118 0.961 . S
H1132 C1118 0.961 . S
H1133 C1119 0.958 . S
H1134 C1119 0.961 . S
H1135 C1119 0.960 . S
C1136 C1137 1.391 . S
C1136 C1138 1.394 . S
C1136 H1152 0.931 . S
C1137 C1136 1.391 . S
C1137 C1141 1.376 . S
C1138 C1136 1.394 . S
C1138 C1139 1.369 . S
C1138 C1142 1.531 . S
C1139 C1138 1.369 . S
C1139 C1140 1.410 . S
C1139 C1147 1.503 . S
C1140 C1139 1.410 . S
C1140 C1141 1.392 . S
C1140 C1143 1.511 . S
C1141 C1137 1.376 . S
C1141 C1140 1.392 . S
C1141 H1153 0.929 . S
C1142 C1138 1.531 . S
C1142 H1154 0.960 . S
C1142 H1155 0.962 . S
C1142 H1156 0.960 . S
C1143 C1140 1.511 . S
C1143 H1157 0.961 . S
C1143 H1158 0.961 . S
C1143 H1159 0.961 . S
C1144 C1145 1.370 . S
C1144 C1146 1.363 . S
C1144 H1160 0.931 . S
C1145 C1144 1.370 . S
C1145 C1149 1.408 . S
C1146 C1144 1.363 . S
C1146 C1147 1.370 . S
C1146 C1150 1.524 . S
C1147 C1139 1.503 . S
C1147 C1146 1.370 . S
C1147 C1148 1.403 . S
C1148 C1147 1.403 . S
C1148 C1149 1.404 . S
C1148 C1151 1.539 . S
C1149 C1145 1.408 . S
C1149 C1148 1.404 . S
C1149 H1161 0.930 . S
C1150 C1146 1.524 . S
C1150 H1162 0.956 . S
C1150 H1163 0.961 . S
C1150 H1164 0.961 . S
C1151 C1148 1.539 . S
C1151 H1165 0.958 . S
C1151 H1166 0.961 . S
C1151 H1167 0.960 . S
H1152 C1136 0.931 . S
H1153 C1141 0.929 . S
H1154 C1142 0.960 . S
H1155 C1142 0.962 . S
H1156 C1142 0.960 . S
H1157 C1143 0.961 . S
H1158 C1143 0.961 . S
H1159 C1143 0.961 . S
H1160 C1144 0.931 . S
H1161 C1149 0.930 . S
H1162 C1150 0.956 . S
H1163 C1150 0.961 . S
H1164 C1150 0.961 . S
H1165 C1151 0.958 . S
H1166 C1151 0.961 . S
H1167 C1151 0.960 . S
C1168 C1169 1.391 . S
C1168 C1170 1.394 . S
C1168 H1184 0.931 . S
C1169 C1168 1.391 . S
C1169 C1173 1.376 . S
C1170 C1168 1.394 . S
C1170 C1171 1.369 . S
C1170 C1174 1.531 . S
C1171 C1170 1.369 . S
C1171 C1172 1.410 . S
C1171 C1179 1.503 1_545 S
C1172 C1171 1.410 . S
C1172 C1173 1.392 . S
C1172 C1175 1.511 1_545 S
C1173 C1169 1.376 . S
C1173 C1172 1.392 . S
C1173 H1185 0.929 . S
C1174 C1170 1.531 . S
C1174 H1186 0.960 . S
C1174 H1187 0.962 . S
C1174 H1188 0.960 . S
C1175 C1172 1.511 1_565 S
C1175 H1189 0.961 . S
C1175 H1190 0.961 . S
C1175 H1191 0.961 1_565 S
C1176 C1177 1.370 . S
C1176 C1178 1.363 . S
C1176 H1192 0.931 . S
C1177 C1176 1.370 . S
C1177 C1181 1.408 . S
C1178 C1176 1.363 . S
C1178 C1179 1.370 . S
C1178 C1182 1.524 . S
C1179 C1171 1.503 1_565 S
C1179 C1178 1.370 . S
C1179 C1180 1.403 . S
C1180 C1179 1.403 . S
C1180 C1181 1.404 . S
C1180 C1183 1.539 1_565 S
C1181 C1177 1.408 . S
C1181 C1180 1.404 . S
C1181 H1193 0.930 . S
C1182 C1178 1.524 . S
C1182 H1194 0.956 . S
C1182 H1195 0.961 . S
C1182 H1196 0.961 . S
C1183 C1180 1.539 1_545 S
C1183 H1197 0.958 . S
C1183 H1198 0.961 . S
C1183 H1199 0.960 . S
H1184 C1168 0.931 . S
H1185 C1173 0.929 . S
H1186 C1174 0.960 . S
H1187 C1174 0.962 . S
H1188 C1174 0.960 . S
H1189 C1175 0.961 . S
H1190 C1175 0.961 . S
H1191 C1175 0.961 1_545 S
H1192 C1176 0.931 . S
H1193 C1181 0.930 . S
H1194 C1182 0.956 . S
H1195 C1182 0.961 . S
H1196 C1182 0.961 . S
H1197 C1183 0.958 . S
H1198 C1183 0.961 . S
H1199 C1183 0.960 . S
C1200 C1201 1.391 . S
C1200 C1202 1.394 . S
C1200 H1216 0.931 . S
C1201 C1200 1.391 . S
C1201 C1205 1.376 . S
C1202 C1200 1.394 . S
C1202 C1203 1.369 . S
C1202 C1206 1.531 . S
C1203 C1202 1.369 . S
C1203 C1204 1.410 . S
C1203 C1211 1.503 . S
C1204 C1203 1.410 . S
C1204 C1205 1.392 . S
C1204 C1207 1.511 . S
C1205 C1201 1.376 . S
C1205 C1204 1.392 . S
C1205 H1217 0.929 . S
C1206 C1202 1.531 . S
C1206 H1218 0.960 . S
C1206 H1219 0.962 . S
C1206 H1220 0.960 . S
C1207 C1204 1.511 . S
C1207 H1221 0.961 . S
C1207 H1222 0.961 . S
C1207 H1223 0.961 . S
C1208 C1209 1.370 . S
C1208 C1210 1.363 . S
C1208 H1224 0.931 . S
C1209 C1208 1.370 . S
C1209 C1213 1.408 . S
C1210 C1208 1.363 . S
C1210 C1211 1.370 . S
C1210 C1214 1.524 . S
C1211 C1203 1.503 . S
C1211 C1210 1.370 . S
C1211 C1212 1.403 . S
C1212 C1211 1.403 . S
C1212 C1213 1.404 . S
C1212 C1215 1.539 . S
C1213 C1209 1.408 . S
C1213 C1212 1.404 . S
C1213 H1225 0.930 . S
C1214 C1210 1.524 . S
C1214 H1226 0.956 . S
C1214 H1227 0.961 . S
C1214 H1228 0.961 . S
C1215 C1212 1.539 . S
C1215 H1229 0.958 . S
C1215 H1230 0.961 . S
C1215 H1231 0.960 . S
H1216 C1200 0.931 . S
H1217 C1205 0.929 . S
H1218 C1206 0.960 . S
H1219 C1206 0.962 . S
H1220 C1206 0.960 . S
H1221 C1207 0.961 . S
H1222 C1207 0.961 . S
H1223 C1207 0.961 . S
H1224 C1208 0.931 . S
H1225 C1213 0.930 . S
H1226 C1214 0.956 . S
H1227 C1214 0.961 . S
H1228 C1214 0.961 . S
H1229 C1215 0.958 . S
H1230 C1215 0.961 . S
H1231 C1215 0.960 . S
C209 C3 1.223 . S
C217 C172 1.208 . S
C241 C18 1.211 . S
C249 C122 1.217 . S
C273 C185 0.819 . S
C281 C29 0.847 . S
C305 C42 0.803 . S
C313 C200 0.851 . S
C337 C57 1.226 . S
C345 C81 1.204 . S
C369 C135 1.206 . S
C377 C70 1.210 . S
C401 C146 0.841 . S
C409 C94 0.816 . S
C433 C109 0.832 . S
C441 C159 0.821 . S
C465 C30 1.866 . S
C473 C5 1.860 . S
C497 C16 1.844 . S
C505 C43 1.872 . S
C529 C161 1.636 . S
C537 C10 1.613 . S
C561 C17 1.630 . S
C569 C148 1.638 . S
C593 C56 1.589 . S
C601 C31 1.647 . S
C625 C134 1.598 . S
C633 C44 1.648 . S
C657 C23 2.092 . S
C665 C4 2.107 . S
C689 C49 1.034 . S
C697 C36 1.047 . S
C721 C140 2.093 . S
C729 C62 2.109 . S
C753 C96 1.617 . S
C761 C75 1.599 . S
C785 C82 1.614 . S
C793 C107 1.621 . S
C817 C205 1.736 . S
C825 C69 1.709 . S
C849 C88 1.707 . S
C857 C186 1.731 . S
C881 C121 1.711 . S
C889 C95 1.730 . S
C913 C114 1.711 . S
C921 C179 1.722 . S
C945 C83 2.115 . S
C953 C68 2.122 . S
C977 C108 1.114 . S
C985 C101 1.121 . S
C1009 C120 2.108 . S
C1017 C174 2.120 . S
C1041 C133 1.840 . S
C1049 C147 1.872 . S
C1073 C160 1.865 . S
C1081 C55 1.859 . S
C1105 C166 1.060 . S
C1113 C153 1.032 . S
C1137 C187 1.614 . S
C1145 C173 1.603 . S
C1169 C127 1.585 . S
C1177 C198 1.625 . S
C1201 C199 1.144 . S
C1209 C192 1.142 . S
