# Generated by pormake.
# Topology umq, (4)-cn, num edge types: 1
# Building blocks:
#     Node 0, Type 0, BuildingBlock: KUFVIS_clean_sbu_0, # of connection points: 4
#     Node 1, Type 0, BuildingBlock: KUFVIS_clean_sbu_0, # of connection points: 4
#     Node 2, Type 0, BuildingBlock: KUFVIS_clean_sbu_0, # of connection points: 4
#     Node 3, Type 0, BuildingBlock: KUFVIS_clean_sbu_0, # of connection points: 4
#     Node 4, Type 0, BuildingBlock: KUFVIS_clean_sbu_0, # of connection points: 4
#     Node 5, Type 0, BuildingBlock: KUFVIS_clean_sbu_0, # of connection points: 4
#     Node 6, Type 0, BuildingBlock: KUFVIS_clean_sbu_0, # of connection points: 4
#     Node 7, Type 0, BuildingBlock: KUFVIS_clean_sbu_0, # of connection points: 4
#     Node 8, Type 0, BuildingBlock: KUFVIS_clean_sbu_0, # of connection points: 4
#     Node 9, Type 0, BuildingBlock: KUFVIS_clean_sbu_0, # of connection points: 4
#     Node 10, Type 0, BuildingBlock: KUFVIS_clean_sbu_0, # of connection points: 4
#     Node 11, Type 0, BuildingBlock: KUFVIS_clean_sbu_0, # of connection points: 4
#     Node 12, Type 0, BuildingBlock: KUFVIS_clean_sbu_0, # of connection points: 4
#     Node 13, Type 0, BuildingBlock: KUFVIS_clean_sbu_0, # of connection points: 4
#     Node 14, Type 0, BuildingBlock: KUFVIS_clean_sbu_0, # of connection points: 4
#     Node 15, Type 0, BuildingBlock: KUFVIS_clean_sbu_0, # of connection points: 4
#     Node 16, Type 0, BuildingBlock: KUFVIS_clean_sbu_0, # of connection points: 4
#     Node 17, Type 0, BuildingBlock: KUFVIS_clean_sbu_0, # of connection points: 4
#     Node 18, Type 0, BuildingBlock: KUFVIS_clean_sbu_0, # of connection points: 4
#     Node 19, Type 0, BuildingBlock: KUFVIS_clean_sbu_0, # of connection points: 4
#     Node 20, Type 0, BuildingBlock: KUFVIS_clean_sbu_0, # of connection points: 4
#     Node 21, Type 0, BuildingBlock: KUFVIS_clean_sbu_0, # of connection points: 4
#     Node 22, Type 0, BuildingBlock: KUFVIS_clean_sbu_0, # of connection points: 4
#     Node 23, Type 0, BuildingBlock: KUFVIS_clean_sbu_0, # of connection points: 4
#     Node 24, Type 0, BuildingBlock: KUFVIS_clean_sbu_0, # of connection points: 4
#     Node 25, Type 0, BuildingBlock: KUFVIS_clean_sbu_0, # of connection points: 4
#     Node 26, Type 0, BuildingBlock: KUFVIS_clean_sbu_0, # of connection points: 4
#     Node 27, Type 0, BuildingBlock: KUFVIS_clean_sbu_0, # of connection points: 4
#     Node 28, Type 0, BuildingBlock: KUFVIS_clean_sbu_0, # of connection points: 4
#     Node 29, Type 0, BuildingBlock: KUFVIS_clean_sbu_0, # of connection points: 4
#     Node 30, Type 0, BuildingBlock: KUFVIS_clean_sbu_0, # of connection points: 4
#     Node 31, Type 0, BuildingBlock: KUFVIS_clean_sbu_0, # of connection points: 4
#     Edge 32, Type (0, 0), BuildingBlock: CIFDUS_clean_linker_0, # of connection points: 2
#     Edge 33, Type (0, 0), BuildingBlock: CIFDUS_clean_linker_0, # of connection points: 2
#     Edge 34, Type (0, 0), BuildingBlock: CIFDUS_clean_linker_0, # of connection points: 2
#     Edge 35, Type (0, 0), BuildingBlock: CIFDUS_clean_linker_0, # of connection points: 2
#     Edge 36, Type (0, 0), BuildingBlock: CIFDUS_clean_linker_0, # of connection points: 2
#     Edge 37, Type (0, 0), BuildingBlock: CIFDUS_clean_linker_0, # of connection points: 2
#     Edge 38, Type (0, 0), BuildingBlock: CIFDUS_clean_linker_0, # of connection points: 2
#     Edge 39, Type (0, 0), BuildingBlock: CIFDUS_clean_linker_0, # of connection points: 2
#     Edge 40, Type (0, 0), BuildingBlock: CIFDUS_clean_linker_0, # of connection points: 2
#     Edge 41, Type (0, 0), BuildingBlock: CIFDUS_clean_linker_0, # of connection points: 2
#     Edge 42, Type (0, 0), BuildingBlock: CIFDUS_clean_linker_0, # of connection points: 2
#     Edge 43, Type (0, 0), BuildingBlock: CIFDUS_clean_linker_0, # of connection points: 2
#     Edge 44, Type (0, 0), BuildingBlock: CIFDUS_clean_linker_0, # of connection points: 2
#     Edge 45, Type (0, 0), BuildingBlock: CIFDUS_clean_linker_0, # of connection points: 2
#     Edge 46, Type (0, 0), BuildingBlock: CIFDUS_clean_linker_0, # of connection points: 2
#     Edge 47, Type (0, 0), BuildingBlock: CIFDUS_clean_linker_0, # of connection points: 2
#     Edge 48, Type (0, 0), BuildingBlock: CIFDUS_clean_linker_0, # of connection points: 2
#     Edge 49, Type (0, 0), BuildingBlock: CIFDUS_clean_linker_0, # of connection points: 2
#     Edge 50, Type (0, 0), BuildingBlock: CIFDUS_clean_linker_0, # of connection points: 2
#     Edge 51, Type (0, 0), BuildingBlock: CIFDUS_clean_linker_0, # of connection points: 2
#     Edge 52, Type (0, 0), BuildingBlock: CIFDUS_clean_linker_0, # of connection points: 2
#     Edge 53, Type (0, 0), BuildingBlock: CIFDUS_clean_linker_0, # of connection points: 2
#     Edge 54, Type (0, 0), BuildingBlock: CIFDUS_clean_linker_0, # of connection points: 2
#     Edge 55, Type (0, 0), BuildingBlock: CIFDUS_clean_linker_0, # of connection points: 2
#     Edge 56, Type (0, 0), BuildingBlock: CIFDUS_clean_linker_0, # of connection points: 2
#     Edge 57, Type (0, 0), BuildingBlock: CIFDUS_clean_linker_0, # of connection points: 2
#     Edge 58, Type (0, 0), BuildingBlock: CIFDUS_clean_linker_0, # of connection points: 2
#     Edge 59, Type (0, 0), BuildingBlock: CIFDUS_clean_linker_0, # of connection points: 2
#     Edge 60, Type (0, 0), BuildingBlock: CIFDUS_clean_linker_0, # of connection points: 2
#     Edge 61, Type (0, 0), BuildingBlock: CIFDUS_clean_linker_0, # of connection points: 2
#     Edge 62, Type (0, 0), BuildingBlock: CIFDUS_clean_linker_0, # of connection points: 2
#     Edge 63, Type (0, 0), BuildingBlock: CIFDUS_clean_linker_0, # of connection points: 2
#     Edge 64, Type (0, 0), BuildingBlock: CIFDUS_clean_linker_0, # of connection points: 2
#     Edge 65, Type (0, 0), BuildingBlock: CIFDUS_clean_linker_0, # of connection points: 2
#     Edge 66, Type (0, 0), BuildingBlock: CIFDUS_clean_linker_0, # of connection points: 2
#     Edge 67, Type (0, 0), BuildingBlock: CIFDUS_clean_linker_0, # of connection points: 2
#     Edge 68, Type (0, 0), BuildingBlock: CIFDUS_clean_linker_0, # of connection points: 2
#     Edge 69, Type (0, 0), BuildingBlock: CIFDUS_clean_linker_0, # of connection points: 2
#     Edge 70, Type (0, 0), BuildingBlock: CIFDUS_clean_linker_0, # of connection points: 2
#     Edge 71, Type (0, 0), BuildingBlock: CIFDUS_clean_linker_0, # of connection points: 2
#     Edge 72, Type (0, 0), BuildingBlock: CIFDUS_clean_linker_0, # of connection points: 2
#     Edge 73, Type (0, 0), BuildingBlock: CIFDUS_clean_linker_0, # of connection points: 2
#     Edge 74, Type (0, 0), BuildingBlock: CIFDUS_clean_linker_0, # of connection points: 2
#     Edge 75, Type (0, 0), BuildingBlock: CIFDUS_clean_linker_0, # of connection points: 2
#     Edge 76, Type (0, 0), BuildingBlock: CIFDUS_clean_linker_0, # of connection points: 2
#     Edge 77, Type (0, 0), BuildingBlock: CIFDUS_clean_linker_0, # of connection points: 2
#     Edge 78, Type (0, 0), BuildingBlock: CIFDUS_clean_linker_0, # of connection points: 2
#     Edge 79, Type (0, 0), BuildingBlock: CIFDUS_clean_linker_0, # of connection points: 2
#     Edge 80, Type (0, 0), BuildingBlock: CIFDUS_clean_linker_0, # of connection points: 2
#     Edge 81, Type (0, 0), BuildingBlock: CIFDUS_clean_linker_0, # of connection points: 2
#     Edge 82, Type (0, 0), BuildingBlock: CIFDUS_clean_linker_0, # of connection points: 2
#     Edge 83, Type (0, 0), BuildingBlock: CIFDUS_clean_linker_0, # of connection points: 2
#     Edge 84, Type (0, 0), BuildingBlock: CIFDUS_clean_linker_0, # of connection points: 2
#     Edge 85, Type (0, 0), BuildingBlock: CIFDUS_clean_linker_0, # of connection points: 2
#     Edge 86, Type (0, 0), BuildingBlock: CIFDUS_clean_linker_0, # of connection points: 2
#     Edge 87, Type (0, 0), BuildingBlock: CIFDUS_clean_linker_0, # of connection points: 2
#     Edge 88, Type (0, 0), BuildingBlock: CIFDUS_clean_linker_0, # of connection points: 2
#     Edge 89, Type (0, 0), BuildingBlock: CIFDUS_clean_linker_0, # of connection points: 2
#     Edge 90, Type (0, 0), BuildingBlock: CIFDUS_clean_linker_0, # of connection points: 2
#     Edge 91, Type (0, 0), BuildingBlock: CIFDUS_clean_linker_0, # of connection points: 2
#     Edge 92, Type (0, 0), BuildingBlock: CIFDUS_clean_linker_0, # of connection points: 2
#     Edge 93, Type (0, 0), BuildingBlock: CIFDUS_clean_linker_0, # of connection points: 2
#     Edge 94, Type (0, 0), BuildingBlock: CIFDUS_clean_linker_0, # of connection points: 2
#     Edge 95, Type (0, 0), BuildingBlock: CIFDUS_clean_linker_0, # of connection points: 2
# Relax obj value: 0.075
# Max RMSD: 0.055
# Mean RMSD: 0.055
data_MOF--net-umq--node1-KUFVIS_clean_sbu_0--edge1-CIFDUS_clean_linker_0
_symmetry_space_group_name_H-M    P1
_symmetry_Int_Tables_number       1
_symmetry_cell_setting            triclinic
loop_
_symmetry_equiv_pos_as_xyz
'x, y, z'
_cell_length_a     57.932734
_cell_length_b     57.961274
_cell_length_c     37.850171
_cell_angle_alpha  89.987464
_cell_angle_beta   90.068481
_cell_angle_gamma 90.052457
loop_
_atom_site_label
_atom_site_type_symbol
_atom_site_fract_x
_atom_site_fract_y
_atom_site_fract_z
_atom_type_partial_charge
Mn0 Mn 0.24578 0.10289 0.19939 0.0
Mn1 Mn 0.21717 0.14294 0.15054 0.0
C2 C 0.2241 0.13151 0.22759 0.0
C3 C 0.24853 0.06572 0.22447 0.0
C4 C 0.26883 0.14498 0.16501 0.0
O5 O 0.24659 0.08936 0.14909 0.0
O6 O 0.22349 0.1151 0.12202 0.0
C7 C 0.1738 0.11624 0.14366 0.0
N8 N 0.18492 0.13607 0.15284 0.0
C9 C 0.14929 0.15374 0.17098 0.0
C10 C 0.13742 0.1336 0.16134 0.0
C11 C 0.14976 0.11473 0.14778 0.0
C12 C 0.1733 0.15408 0.16679 0.0
H13 H 0.18325 0.10166 0.13352 0.0
C14 C 0.23528 0.09652 0.12227 0.0
O15 O 0.26658 0.07789 0.21662 0.0
O16 O 0.22862 0.07507 0.21762 0.0
N17 N 0.20932 0.17144 0.17309 0.0
C18 C 0.22301 0.19039 0.17746 0.0
C19 C 0.21317 0.2113 0.1886 0.0
C20 C 0.18929 0.21269 0.19444 0.0
C21 C 0.17539 0.19329 0.1883 0.0
C22 C 0.18614 0.17304 0.17659 0.0
H23 H 0.24132 0.18964 0.17232 0.0
O24 O 0.23947 0.11979 0.24489 0.0
O25 O 0.22111 0.12554 0.19482 0.0
O26 O 0.26953 0.12742 0.18539 0.0
O27 O 0.25048 0.15146 0.14883 0.0
C28 C 0.15124 0.19338 0.1927 0.0
C29 C 0.13823 0.17351 0.18445 0.0
H30 H 0.11886 0.13243 0.16426 0.0
H31 H 0.14076 0.09907 0.14049 0.0
H32 H 0.22398 0.2263 0.19266 0.0
H33 H 0.18178 0.22878 0.20333 0.0
H34 H 0.14251 0.20865 0.20232 0.0
H35 H 0.11968 0.17375 0.18805 0.0
Mn36 Mn 0.90769 0.24483 0.19075 0.0
Mn37 Mn 0.87524 0.21169 0.13633 0.0
C38 C 0.88377 0.21646 0.21473 0.0
C39 C 0.94433 0.25071 0.21699 0.0
C40 C 0.8622 0.2609 0.15726 0.0
O41 O 0.92005 0.25255 0.14141 0.0
O42 O 0.901 0.22587 0.1096 0.0
C43 C 0.91088 0.17603 0.12432 0.0
N44 N 0.88918 0.18185 0.13488 0.0
C45 C 0.88034 0.14243 0.14949 0.0
C46 C 0.90253 0.13597 0.13857 0.0
C47 C 0.91789 0.15287 0.12604 0.0
C48 C 0.87446 0.16582 0.14767 0.0
H49 H 0.92276 0.18899 0.11483 0.0
C50 C 0.91571 0.24217 0.11242 0.0
O51 O 0.92983 0.2676 0.21272 0.0
O52 O 0.93768 0.23072 0.20558 0.0
N53 N 0.84916 0.19643 0.15664 0.0
C54 C 0.82748 0.20506 0.16124 0.0
C55 C 0.80944 0.19017 0.17097 0.0
C56 C 0.81376 0.16651 0.17543 0.0
C57 C 0.83592 0.15784 0.16886 0.0
C58 C 0.85307 0.17345 0.15838 0.0
H59 H 0.82395 0.22317 0.15734 0.0
O60 O 0.8926 0.23236 0.23466 0.0
O61 O 0.89028 0.21687 0.18187 0.0
O62 O 0.87878 0.26434 0.17921 0.0
O63 O 0.86 0.24233 0.13897 0.0
C64 C 0.84148 0.13423 0.17118 0.0
C65 C 0.86376 0.12656 0.16184 0.0
H66 H 0.90795 0.1181 0.13962 0.0
H67 H 0.93508 0.14804 0.11767 0.0
H68 H 0.79226 0.19694 0.1752 0.0
H69 H 0.79986 0.15512 0.18334 0.0
H70 H 0.82867 0.1218 0.17971 0.0
H71 H 0.86781 0.10835 0.16359 0.0
Mn72 Mn 0.77176 0.90802 0.19234 0.0
Mn73 Mn 0.79684 0.86715 0.14144 0.0
C74 C 0.79536 0.87998 0.218 0.0
C75 C 0.77318 0.9455 0.21643 0.0
C76 C 0.7461 0.86585 0.16281 0.0
O77 O 0.76811 0.92094 0.14206 0.0
O78 O 0.78935 0.89465 0.11259 0.0
C79 C 0.84017 0.89248 0.12655 0.0
N80 N 0.82923 0.87332 0.13895 0.0
C81 C 0.86543 0.85543 0.15385 0.0
C82 C 0.87708 0.87489 0.14095 0.0
C83 C 0.86438 0.89353 0.12736 0.0
C84 C 0.84127 0.85549 0.15271 0.0
H85 H 0.83049 0.90687 0.1163 0.0
C86 C 0.77785 0.91344 0.11407 0.0
O87 O 0.75375 0.93454 0.21265 0.0
O88 O 0.79155 0.93481 0.20584 0.0
N89 N 0.80543 0.83931 0.1653 0.0
C90 C 0.79161 0.82135 0.17506 0.0
C91 C 0.80164 0.80085 0.18752 0.0
C92 C 0.82577 0.79889 0.18943 0.0
C93 C 0.83965 0.81742 0.1787 0.0
C94 C 0.82868 0.83725 0.16588 0.0
H95 H 0.77307 0.82254 0.17314 0.0
O96 O 0.78109 0.89174 0.23724 0.0
O97 O 0.79572 0.88537 0.1848 0.0
O98 O 0.74651 0.88364 0.1829 0.0
O99 O 0.76351 0.85928 0.14453 0.0
C100 C 0.86395 0.81691 0.17995 0.0
C101 C 0.87683 0.836 0.16785 0.0
H102 H 0.89576 0.87573 0.14141 0.0
H103 H 0.87324 0.90867 0.11752 0.0
H104 H 0.7908 0.78659 0.19561 0.0
H105 H 0.83344 0.78311 0.19929 0.0
H106 H 0.8729 0.80193 0.19023 0.0
H107 H 0.8955 0.83547 0.16913 0.0
Mn108 Mn 0.10455 0.76732 0.1897 0.0
Mn109 Mn 0.14662 0.79338 0.14184 0.0
C110 C 0.13432 0.78696 0.21855 0.0
C111 C 0.06722 0.76921 0.21445 0.0
C112 C 0.14543 0.74168 0.15633 0.0
O113 O 0.09148 0.76697 0.13915 0.0
O114 O 0.1188 0.7884 0.11247 0.0
C115 C 0.12238 0.83803 0.13401 0.0
N116 N 0.14143 0.82591 0.14404 0.0
C117 C 0.16042 0.8605 0.1639 0.0
C118 C 0.1411 0.87338 0.15346 0.0
C119 C 0.12196 0.86207 0.13858 0.0
C120 C 0.1597 0.83656 0.15913 0.0
H121 H 0.10758 0.82937 0.12286 0.0
C122 C 0.0996 0.77756 0.11233 0.0
O123 O 0.07704 0.74956 0.20769 0.0
O124 O 0.0789 0.78754 0.20626 0.0
N125 N 0.17519 0.79974 0.16536 0.0
C126 C 0.19334 0.78513 0.17044 0.0
C127 C 0.21444 0.79386 0.18299 0.0
C128 C 0.21684 0.81759 0.18955 0.0
C129 C 0.19828 0.83244 0.18269 0.0
C130 C 0.17782 0.82277 0.16956 0.0
H131 H 0.19178 0.76693 0.16485 0.0
O132 O 0.12134 0.77257 0.23563 0.0
O133 O 0.12891 0.79019 0.18561 0.0
O134 O 0.12756 0.74171 0.17629 0.0
O135 O 0.15312 0.75975 0.14064 0.0
C136 C 0.19941 0.85649 0.18776 0.0
C137 C 0.18039 0.87049 0.17874 0.0
H138 H 0.14077 0.89194 0.15677 0.0
H139 H 0.10693 0.87186 0.13064 0.0
H140 H 0.2288 0.78232 0.18763 0.0
H141 H 0.23306 0.82424 0.19954 0.0
H142 H 0.21486 0.86441 0.19847 0.0
H143 H 0.18143 0.88896 0.18284 0.0
Mn144 Mn 0.2454 0.90227 0.33763 0.0
Mn145 Mn 0.22291 0.86037 0.38939 0.0
C146 C 0.22207 0.87351 0.31269 0.0
C147 C 0.24226 0.93995 0.31437 0.0
C148 C 0.27315 0.86098 0.36526 0.0
O149 O 0.25014 0.91483 0.38804 0.0
O150 O 0.22996 0.88802 0.41815 0.0
C151 C 0.17901 0.88407 0.40612 0.0
N152 N 0.19039 0.86533 0.39327 0.0
C153 C 0.1546 0.84617 0.37964 0.0
C154 C 0.1425 0.86519 0.39303 0.0
C155 C 0.15477 0.88427 0.40619 0.0
C156 C 0.17875 0.84712 0.37983 0.0
H157 H 0.18837 0.89881 0.41603 0.0
C158 C 0.24115 0.907 0.41644 0.0
O159 O 0.26205 0.92955 0.31679 0.0
O160 O 0.2245 0.92862 0.32588 0.0
N161 N 0.21491 0.83223 0.36593 0.0
C162 C 0.22919 0.81464 0.35627 0.0
C163 C 0.21969 0.79367 0.34462 0.0
C164 C 0.19562 0.79086 0.34352 0.0
C165 C 0.18127 0.80901 0.35422 0.0
C166 C 0.19174 0.82933 0.36624 0.0
H167 H 0.24771 0.81645 0.35773 0.0
O168 O 0.23537 0.88609 0.29296 0.0
O169 O 0.2224 0.87866 0.34602 0.0
O170 O 0.27156 0.87861 0.34499 0.0
O171 O 0.25648 0.85386 0.38473 0.0
C172 C 0.15699 0.80762 0.35384 0.0
C173 C 0.14366 0.8263 0.36619 0.0
H174 H 0.1238 0.86535 0.39331 0.0
H175 H 0.14556 0.89907 0.4164 0.0
H176 H 0.23089 0.77969 0.33662 0.0
H177 H 0.18835 0.77471 0.33434 0.0
H178 H 0.14841 0.79226 0.34415 0.0
H179 H 0.125 0.82508 0.36566 0.0
Mn180 Mn 0.10645 0.24512 0.33581 0.0
Mn181 Mn 0.14677 0.22179 0.38996 0.0
C182 C 0.13426 0.21972 0.31301 0.0
C183 C 0.06876 0.24346 0.31171 0.0
C184 C 0.14918 0.27125 0.36234 0.0
O185 O 0.09395 0.25215 0.38566 0.0
O186 O 0.11959 0.23164 0.41753 0.0
C187 C 0.11974 0.18032 0.40934 0.0
N188 N 0.13942 0.18989 0.39624 0.0
C189 C 0.15607 0.15247 0.38608 0.0
C190 C 0.13607 0.14221 0.39977 0.0
C191 C 0.11778 0.1562 0.41131 0.0
C192 C 0.15687 0.17659 0.38426 0.0
H193 H 0.1056 0.19101 0.41801 0.0
C194 C 0.10129 0.24375 0.41482 0.0
O195 O 0.08022 0.26271 0.31329 0.0
O196 O 0.079 0.22546 0.32466 0.0
N197 N 0.17456 0.21111 0.36822 0.0
C198 C 0.19347 0.22378 0.35905 0.0
C199 C 0.21395 0.21248 0.34944 0.0
C200 C 0.21494 0.18827 0.34987 0.0
C201 C 0.19549 0.17559 0.36029 0.0
C202 C 0.17573 0.18783 0.37035 0.0
H203 H 0.19304 0.2424 0.35941 0.0
O204 O 0.12245 0.23299 0.29216 0.0
O205 O 0.12885 0.22115 0.34617 0.0
O206 O 0.13145 0.27009 0.34215 0.0
O207 O 0.15555 0.25469 0.38269 0.0
C208 C 0.19511 0.15131 0.36184 0.0
C209 C 0.1753 0.13974 0.37434 0.0
H210 H 0.13456 0.12361 0.40156 0.0
H211 H 0.10222 0.14842 0.42174 0.0
H212 H 0.22897 0.2224 0.34178 0.0
H213 H 0.23072 0.17961 0.34224 0.0
H214 H 0.21001 0.14137 0.35367 0.0
H215 H 0.17519 0.12107 0.37538 0.0
Mn216 Mn 0.76478 0.10823 0.32987 0.0
Mn217 Mn 0.7932 0.14839 0.37861 0.0
C218 C 0.78808 0.13554 0.30189 0.0
C219 C 0.76228 0.0708 0.30598 0.0
C220 C 0.74208 0.15169 0.36067 0.0
O221 O 0.76215 0.09565 0.38046 0.0
O222 O 0.78477 0.12153 0.40833 0.0
C223 C 0.83521 0.12045 0.39091 0.0
N224 N 0.82519 0.14032 0.37938 0.0
C225 C 0.86205 0.15612 0.3628 0.0
C226 C 0.87278 0.13592 0.37485 0.0
C227 C 0.85928 0.11797 0.38883 0.0
C228 C 0.83797 0.15748 0.36516 0.0
H229 H 0.82488 0.10656 0.40137 0.0
C230 C 0.77251 0.1032 0.40791 0.0
O231 O 0.74408 0.0832 0.31203 0.0
O232 O 0.78202 0.08003 0.31414 0.0
N233 N 0.80291 0.17584 0.35467 0.0
C234 C 0.79007 0.19488 0.3468 0.0
C235 C 0.80105 0.21487 0.33421 0.0
C236 C 0.82515 0.21526 0.33041 0.0
C237 C 0.8381 0.1958 0.33993 0.0
C238 C 0.82622 0.17652 0.35289 0.0
H239 H 0.77158 0.19486 0.35014 0.0
O240 O 0.77272 0.12406 0.28417 0.0
O241 O 0.78999 0.13016 0.3351 0.0
O242 O 0.74126 0.13357 0.34145 0.0
O243 O 0.7603 0.15815 0.37722 0.0
C244 C 0.86235 0.19489 0.33744 0.0
C245 C 0.8743 0.17496 0.34854 0.0
H246 H 0.89135 0.13399 0.37343 0.0
H247 H 0.86741 0.10225 0.39797 0.0
H248 H 0.79094 0.22992 0.3274 0.0
H249 H 0.83355 0.23062 0.32038 0.0
H250 H 0.87196 0.20939 0.327 0.0
H251 H 0.89293 0.1744 0.34631 0.0
Mn252 Mn 0.90752 0.76696 0.33805 0.0
Mn253 Mn 0.87315 0.80129 0.38791 0.0
C254 C 0.88126 0.79139 0.31051 0.0
C255 C 0.94394 0.76153 0.31146 0.0
C256 C 0.86291 0.7505 0.37421 0.0
O257 O 0.92133 0.76375 0.38763 0.0
O258 O 0.89975 0.79008 0.41592 0.0
C259 C 0.90716 0.83921 0.39409 0.0
N260 N 0.88564 0.83177 0.38508 0.0
C261 C 0.87469 0.86977 0.36579 0.0
C262 C 0.89667 0.87789 0.37514 0.0
C263 C 0.913 0.86251 0.38924 0.0
C264 C 0.86999 0.8463 0.37076 0.0
H265 H 0.9198 0.82741 0.40472 0.0
C266 C 0.91616 0.77541 0.41503 0.0
O267 O 0.93061 0.74418 0.3191 0.0
O268 O 0.93625 0.78179 0.31973 0.0
N269 N 0.84617 0.81407 0.36629 0.0
C270 C 0.82489 0.80416 0.36333 0.0
C271 C 0.80606 0.81752 0.35203 0.0
C272 C 0.80915 0.84106 0.34463 0.0
C273 C 0.83088 0.85117 0.34972 0.0
C274 C 0.84889 0.83706 0.36167 0.0
H275 H 0.8223 0.78617 0.36955 0.0
O276 O 0.89104 0.77486 0.29306 0.0
O277 O 0.88823 0.79413 0.34293 0.0
O278 O 0.88009 0.7466 0.35363 0.0
O279 O 0.85936 0.76996 0.38954 0.0
C280 C 0.83524 0.87483 0.34429 0.0
C281 C 0.85721 0.88408 0.35197 0.0
H282 H 0.90119 0.89589 0.37165 0.0
H283 H 0.93004 0.86862 0.39638 0.0
H284 H 0.78922 0.80967 0.34894 0.0
H285 H 0.79464 0.85127 0.33562 0.0
H286 H 0.82176 0.88609 0.3345 0.0
H287 H 0.86035 0.9023 0.34775 0.0
Mn288 Mn 0.77605 0.909 0.83716 0.0
Mn289 Mn 0.80583 0.87409 0.89218 0.0
C290 C 0.80162 0.88199 0.81389 0.0
C291 C 0.77528 0.94553 0.80935 0.0
C292 C 0.75519 0.86632 0.87267 0.0
O293 O 0.77015 0.92297 0.88603 0.0
O294 O 0.79516 0.90181 0.91799 0.0
C295 C 0.84575 0.90529 0.90224 0.0
N296 N 0.83719 0.88433 0.89258 0.0
C297 C 0.8751 0.87052 0.87769 0.0
C298 C 0.88435 0.89191 0.8877 0.0
C299 C 0.8696 0.90939 0.89992 0.0
C300 C 0.85117 0.86756 0.88015 0.0
H301 H 0.83443 0.91881 0.91147 0.0
C302 C 0.78051 0.91815 0.91486 0.0
O303 O 0.75645 0.93361 0.81379 0.0
O304 O 0.79399 0.93648 0.82175 0.0
N305 N 0.81755 0.84616 0.87217 0.0
C306 C 0.80613 0.82585 0.86712 0.0
C307 C 0.81854 0.80609 0.85718 0.0
C308 C 0.8426 0.80732 0.85301 0.0
C309 C 0.85408 0.82819 0.85956 0.0
C310 C 0.84084 0.84716 0.87015 0.0
H311 H 0.78769 0.82468 0.8708 0.0
O312 O 0.78657 0.89197 0.79372 0.0
O313 O 0.80192 0.88894 0.84646 0.0
O314 O 0.75333 0.88267 0.84985 0.0
O315 O 0.77359 0.8626 0.89079 0.0
C316 C 0.87819 0.83077 0.85676 0.0
C317 C 0.88868 0.852 0.8655 0.0
H318 H 0.90275 0.89509 0.88613 0.0
H319 H 0.87659 0.92598 0.90757 0.0
H320 H 0.80958 0.78997 0.85265 0.0
H321 H 0.8521 0.7921 0.84502 0.0
H322 H 0.88884 0.81649 0.84814 0.0
H323 H 0.90723 0.85379 0.86325 0.0
Mn324 Mn 0.11001 0.76909 0.8338 0.0
Mn325 Mn 0.14419 0.8018 0.88638 0.0
C326 C 0.13496 0.79623 0.80854 0.0
C327 C 0.07338 0.76338 0.80773 0.0
C328 C 0.1547 0.75159 0.86792 0.0
O329 O 0.09694 0.76346 0.88356 0.0
O330 O 0.11758 0.78989 0.91358 0.0
C331 C 0.11075 0.83981 0.89641 0.0
N332 N 0.1321 0.83247 0.88643 0.0
C333 C 0.14356 0.87106 0.87089 0.0
C334 C 0.12177 0.87907 0.88128 0.0
C335 C 0.10526 0.86335 0.89396 0.0
C336 C 0.1479 0.84736 0.87343 0.0
H337 H 0.09798 0.82777 0.90597 0.0
C338 C 0.10163 0.77472 0.91167 0.0
O339 O 0.0875 0.74634 0.81318 0.0
O340 O 0.08046 0.78359 0.81771 0.0
N341 N 0.17107 0.81503 0.86512 0.0
C342 C 0.19201 0.80485 0.85998 0.0
C343 C 0.21099 0.8184 0.84981 0.0
C344 C 0.20835 0.84231 0.84544 0.0
C345 C 0.18687 0.85253 0.85211 0.0
C346 C 0.16874 0.83821 0.863 0.0
H347 H 0.1943 0.78655 0.86386 0.0
O348 O 0.12578 0.7801 0.78937 0.0
O349 O 0.12844 0.79662 0.84134 0.0
O350 O 0.13794 0.74867 0.84625 0.0
O351 O 0.1578 0.77029 0.88554 0.0
C352 C 0.18291 0.87644 0.84925 0.0
C353 C 0.16118 0.88567 0.85828 0.0
H354 H 0.11753 0.89724 0.87966 0.0
H355 H 0.08837 0.86938 0.90188 0.0
H356 H 0.2276 0.81042 0.84525 0.0
H357 H 0.22296 0.85268 0.83725 0.0
H358 H 0.19651 0.88789 0.84039 0.0
H359 H 0.15833 0.90408 0.85598 0.0
Mn360 Mn 0.23915 0.10364 0.84363 0.0
Mn361 Mn 0.20792 0.13891 0.89607 0.0
C362 C 0.21297 0.1294 0.8183 0.0
C363 C 0.24122 0.0665 0.81777 0.0
C364 C 0.25845 0.14782 0.87709 0.0
O365 O 0.24488 0.09078 0.89337 0.0
O366 O 0.21919 0.1121 0.92365 0.0
C367 C 0.16888 0.10676 0.90705 0.0
N368 N 0.17688 0.12774 0.89643 0.0
C369 C 0.13869 0.14003 0.87999 0.0
C370 C 0.13 0.11861 0.891 0.0
C371 C 0.14519 0.10188 0.90448 0.0
C372 C 0.16249 0.14378 0.88279 0.0
H373 H 0.18052 0.09381 0.91722 0.0
C374 C 0.2341 0.09592 0.92168 0.0
O375 O 0.25966 0.07905 0.82196 0.0
O376 O 0.22218 0.07533 0.82924 0.0
N377 N 0.19551 0.16599 0.87428 0.0
C378 C 0.20636 0.1865 0.86825 0.0
C379 C 0.19343 0.20561 0.85689 0.0
C380 C 0.16946 0.20354 0.85229 0.0
C381 C 0.15856 0.18252 0.85985 0.0
C382 C 0.17229 0.16423 0.87184 0.0
H383 H 0.22472 0.18833 0.87223 0.0
O384 O 0.22853 0.11944 0.79907 0.0
O385 O 0.2126 0.12316 0.85123 0.0
O386 O 0.261 0.13093 0.85539 0.0
O387 O 0.23981 0.15138 0.89465 0.0
C388 C 0.13456 0.17913 0.85671 0.0
C389 C 0.12466 0.15782 0.86646 0.0
H390 H 0.11172 0.11483 0.88922 0.0
H391 H 0.13864 0.08528 0.91289 0.0
H392 H 0.20194 0.22188 0.85158 0.0
H393 H 0.15957 0.21825 0.84319 0.0
H394 H 0.12356 0.19285 0.84704 0.0
H395 H 0.10618 0.15541 0.86393 0.0
Mn396 Mn 0.9053 0.24249 0.83398 0.0
Mn397 Mn 0.85957 0.23373 0.88886 0.0
C398 C 0.87636 0.21683 0.81564 0.0
C399 C 0.94319 0.23651 0.81311 0.0
C400 C 0.86654 0.27736 0.84607 0.0
O401 O 0.91737 0.25303 0.88248 0.0
O402 O 0.88712 0.24281 0.91648 0.0
C403 C 0.87472 0.19389 0.93201 0.0
N404 N 0.85854 0.20434 0.91141 0.0
C405 C 0.83047 0.17496 0.9246 0.0
C406 C 0.8468 0.16389 0.94611 0.0
C407 C 0.86904 0.17336 0.94972 0.0
C408 C 0.83697 0.19558 0.90815 0.0
H409 H 0.89173 0.20128 0.93504 0.0
C410 C 0.90766 0.2504 0.91253 0.0
O411 O 0.93258 0.256 0.80997 0.0
O412 O 0.93195 0.22013 0.82921 0.0
N413 N 0.83135 0.22476 0.86677 0.0
C414 C 0.81933 0.23541 0.8405 0.0
C415 C 0.79745 0.22697 0.83104 0.0
C416 C 0.78813 0.20783 0.84889 0.0
C417 C 0.80091 0.19712 0.87579 0.0
C418 C 0.82253 0.2064 0.88425 0.0
H419 H 0.82641 0.25022 0.82698 0.0
O420 O 0.88984 0.2273 0.79339 0.0
O421 O 0.87966 0.22199 0.84913 0.0
O422 O 0.8841 0.27079 0.82878 0.0
O423 O 0.85703 0.2651 0.86968 0.0
C424 C 0.79354 0.17699 0.89338 0.0
C425 C 0.80831 0.16591 0.91775 0.0
H426 H 0.84259 0.14791 0.95948 0.0
H427 H 0.88175 0.16486 0.96615 0.0
H428 H 0.78776 0.2352 0.81008 0.0
H429 H 0.77136 0.20123 0.84123 0.0
H430 H 0.77686 0.16945 0.88751 0.0
H431 H 0.80273 0.15006 0.93027 0.0
Mn432 Mn 0.76495 0.10552 0.68737 0.0
Mn433 Mn 0.78836 0.1465 0.6342 0.0
C434 C 0.79335 0.13012 0.71088 0.0
C435 C 0.76289 0.06748 0.70941 0.0
C436 C 0.73947 0.14847 0.66358 0.0
O437 O 0.75625 0.0952 0.63689 0.0
O438 O 0.77841 0.11984 0.60546 0.0
C439 C 0.82989 0.12385 0.60492 0.0
N440 N 0.81987 0.14207 0.62156 0.0
C441 C 0.85471 0.16454 0.61749 0.0
C442 C 0.86545 0.14601 0.60024 0.0
C443 C 0.85302 0.12555 0.59407 0.0
C444 C 0.8316 0.16191 0.62738 0.0
H445 H 0.82024 0.10825 0.59979 0.0
C446 C 0.76508 0.10233 0.60787 0.0
O447 O 0.7451 0.08097 0.70849 0.0
O448 O 0.782 0.07583 0.69669 0.0
N449 N 0.79882 0.17363 0.65791 0.0
C450 C 0.78701 0.18819 0.67955 0.0
C451 C 0.79757 0.20873 0.69085 0.0
C452 C 0.81999 0.2142 0.67938 0.0
C453 C 0.83179 0.19891 0.65708 0.0
C454 C 0.8204 0.17869 0.64676 0.0
H455 H 0.76968 0.18414 0.68804 0.0
O456 O 0.77899 0.11904 0.73105 0.0
O457 O 0.79089 0.1265 0.67693 0.0
O458 O 0.74082 0.13159 0.68497 0.0
O459 O 0.75591 0.15424 0.64317 0.0
C460 C 0.85475 0.2024 0.64599 0.0
C461 C 0.86621 0.18522 0.62623 0.0
H462 H 0.88332 0.14719 0.59205 0.0
H463 H 0.86121 0.11118 0.58086 0.0
H464 H 0.78842 0.22038 0.70825 0.0
H465 H 0.82813 0.22998 0.68837 0.0
H466 H 0.86399 0.21791 0.65346 0.0
H467 H 0.88406 0.18782 0.61875 0.0
Mn468 Mn 0.91005 0.76722 0.69296 0.0
Mn469 Mn 0.86821 0.79467 0.64668 0.0
C470 C 0.88143 0.7877 0.72276 0.0
C471 C 0.94786 0.76892 0.71648 0.0
C472 C 0.86808 0.74279 0.66032 0.0
O473 O 0.92236 0.76682 0.64205 0.0
O474 O 0.89573 0.78978 0.61668 0.0
C475 C 0.89286 0.83919 0.63949 0.0
N476 N 0.87375 0.82715 0.64942 0.0
C477 C 0.85498 0.86179 0.66935 0.0
C478 C 0.87434 0.8746 0.6589 0.0
C479 C 0.89341 0.86323 0.64406 0.0
C480 C 0.85554 0.83785 0.6645 0.0
H481 H 0.90761 0.83048 0.62842 0.0
C482 C 0.91456 0.77833 0.61589 0.0
O483 O 0.93779 0.74926 0.71029 0.0
O484 O 0.93616 0.7872 0.70845 0.0
N485 N 0.84008 0.80104 0.67135 0.0
C486 C 0.82225 0.78633 0.67824 0.0
C487 C 0.80147 0.79507 0.69184 0.0
C488 C 0.79904 0.81887 0.69765 0.0
C489 C 0.81732 0.83377 0.68931 0.0
C490 C 0.83749 0.82409 0.67534 0.0
H491 H 0.8238 0.76807 0.6733 0.0
O492 O 0.89412 0.77286 0.73945 0.0
O493 O 0.88643 0.79071 0.68969 0.0
O494 O 0.88604 0.7421 0.68021 0.0
O495 O 0.86115 0.76118 0.6447 0.0
C496 C 0.81626 0.85785 0.69413 0.0
C497 C 0.83517 0.87183 0.6845 0.0
H498 H 0.8748 0.89316 0.66228 0.0
H499 H 0.9085 0.87296 0.63619 0.0
H500 H 0.78735 0.78347 0.69782 0.0
H501 H 0.78307 0.82552 0.70843 0.0
H502 H 0.80102 0.86578 0.70537 0.0
H503 H 0.83425 0.8903 0.68864 0.0
Mn504 Mn 0.25335 0.90665 0.6953 0.0
Mn505 Mn 0.22464 0.86777 0.6445 0.0
C506 C 0.2287 0.87984 0.72183 0.0
C507 C 0.25599 0.94405 0.71975 0.0
C508 C 0.27523 0.86263 0.6651 0.0
O509 O 0.25809 0.9189 0.64483 0.0
O510 O 0.23481 0.89432 0.6156 0.0
C511 C 0.18414 0.89748 0.63042 0.0
N512 N 0.19306 0.87718 0.64232 0.0
C513 C 0.15528 0.86297 0.65728 0.0
C514 C 0.14566 0.88366 0.64494 0.0
C515 C 0.16017 0.90101 0.63157 0.0
C516 C 0.17931 0.86058 0.65592 0.0
H517 H 0.19525 0.9109 0.6203 0.0
C518 C 0.24809 0.9119 0.61672 0.0
O519 O 0.27412 0.93132 0.71474 0.0
O520 O 0.23639 0.93524 0.70993 0.0
N521 N 0.21332 0.84051 0.66718 0.0
C522 C 0.2251 0.82067 0.67418 0.0
C523 C 0.21303 0.80101 0.68558 0.0
C524 C 0.1889 0.80178 0.68899 0.0
C525 C 0.17703 0.82202 0.68005 0.0
C526 C 0.18998 0.84092 0.66823 0.0
H527 H 0.2436 0.8198 0.67101 0.0
O528 O 0.24377 0.89107 0.74046 0.0
O529 O 0.2277 0.88538 0.68857 0.0
O530 O 0.27629 0.8805 0.68492 0.0
O531 O 0.25714 0.85691 0.64752 0.0
C532 C 0.15282 0.82404 0.68174 0.0
C533 C 0.14197 0.8446 0.67071 0.0
H534 H 0.12717 0.88639 0.64558 0.0
H535 H 0.15289 0.91707 0.62212 0.0
H536 H 0.22229 0.78532 0.69178 0.0
H537 H 0.17966 0.78666 0.6981 0.0
H538 H 0.14239 0.80984 0.69133 0.0
H539 H 0.12335 0.84596 0.67217 0.0
Mn540 Mn 0.10389 0.24241 0.69254 0.0
Mn541 Mn 0.14474 0.21377 0.64579 0.0
C542 C 0.13175 0.22079 0.72204 0.0
C543 C 0.06652 0.24435 0.71684 0.0
C544 C 0.14705 0.26531 0.66061 0.0
O545 O 0.09129 0.24352 0.64176 0.0
O546 O 0.11793 0.22119 0.61524 0.0
C547 C 0.1173 0.17117 0.63561 0.0
N548 N 0.137 0.1817 0.64684 0.0
C549 C 0.15291 0.14555 0.66646 0.0
C550 C 0.13289 0.13429 0.65473 0.0
C551 C 0.11497 0.14718 0.63937 0.0
C552 C 0.15412 0.16953 0.66236 0.0
H553 H 0.10341 0.18104 0.62413 0.0
C554 C 0.09931 0.233 0.6148 0.0
O555 O 0.07835 0.26272 0.70925 0.0
O556 O 0.07619 0.22471 0.70962 0.0
N557 N 0.17219 0.20501 0.67057 0.0
C558 C 0.19114 0.21822 0.67761 0.0
C559 C 0.21113 0.20782 0.69133 0.0
C560 C 0.21161 0.18389 0.69708 0.0
C561 C 0.19227 0.17051 0.68831 0.0
C562 C 0.17299 0.1818 0.67414 0.0
H563 H 0.19105 0.23657 0.67276 0.0
O564 O 0.11985 0.23627 0.7387 0.0
O565 O 0.12641 0.21773 0.689 0.0
O566 O 0.12873 0.26627 0.67941 0.0
O567 O 0.15403 0.2468 0.64548 0.0
C568 C 0.19147 0.14638 0.69263 0.0
C569 C 0.1717 0.13393 0.68204 0.0
H570 H 0.13107 0.11577 0.65746 0.0
H571 H 0.09939 0.13864 0.63046 0.0
H572 H 0.22611 0.21824 0.69751 0.0
H573 H 0.22697 0.17596 0.70799 0.0
H574 H 0.20596 0.13723 0.70405 0.0
H575 H 0.17124 0.1154 0.68563 0.0
Mn576 Mn 0.74132 0.61242 0.68455 0.0
Mn577 Mn 0.71022 0.64879 0.63327 0.0
C578 C 0.71715 0.6399 0.71057 0.0
C579 C 0.74486 0.57617 0.71247 0.0
C580 C 0.76177 0.65484 0.64753 0.0
O581 O 0.74365 0.59782 0.635 0.0
O582 O 0.71853 0.62082 0.60626 0.0
C583 C 0.66874 0.61917 0.62735 0.0
N584 N 0.6785 0.63983 0.63578 0.0
C585 C 0.64175 0.65538 0.65328 0.0
C586 C 0.63126 0.63436 0.64436 0.0
C587 C 0.64484 0.61614 0.63151 0.0
C588 C 0.66568 0.65726 0.64901 0.0
H589 H 0.67915 0.60508 0.61779 0.0
C590 C 0.73189 0.60332 0.60767 0.0
O591 O 0.76275 0.58866 0.70461 0.0
O592 O 0.72492 0.58453 0.70357 0.0
N593 N 0.70049 0.67699 0.65488 0.0
C594 C 0.71304 0.69666 0.65977 0.0
C595 C 0.70186 0.71696 0.67051 0.0
C596 C 0.67785 0.71697 0.67566 0.0
C597 C 0.66522 0.69671 0.66968 0.0
C598 C 0.67724 0.67714 0.65827 0.0
H599 H 0.73142 0.69694 0.65523 0.0
O600 O 0.73321 0.62994 0.72894 0.0
O601 O 0.71523 0.63291 0.67817 0.0
O602 O 0.76384 0.63815 0.66945 0.0
O603 O 0.74287 0.65936 0.63119 0.0
C604 C 0.64111 0.69528 0.67405 0.0
C605 C 0.62941 0.67454 0.66622 0.0
H606 H 0.61281 0.632 0.64736 0.0
H607 H 0.63691 0.5998 0.62481 0.0
H608 H 0.71172 0.73258 0.67478 0.0
H609 H 0.66931 0.73262 0.6842 0.0
H610 H 0.6314 0.71003 0.68336 0.0
H611 H 0.61089 0.6736 0.66982 0.0
Mn612 Mn 0.4091 0.73863 0.68522 0.0
Mn613 Mn 0.37242 0.70793 0.63383 0.0
C614 C 0.38141 0.71525 0.71178 0.0
C615 C 0.44618 0.73996 0.71117 0.0
C616 C 0.36615 0.75917 0.64973 0.0
O617 O 0.42263 0.74223 0.63556 0.0
O618 O 0.40011 0.717 0.60643 0.0
C619 C 0.4027 0.66711 0.62676 0.0
N620 N 0.38197 0.6764 0.63593 0.0
C621 C 0.36754 0.63941 0.6545 0.0
C622 C 0.38867 0.6294 0.64501 0.0
C623 C 0.40635 0.64333 0.63118 0.0
C624 C 0.36503 0.66324 0.64992 0.0
H625 H 0.41638 0.67779 0.61634 0.0
C626 C 0.41711 0.731 0.60786 0.0
O627 O 0.43443 0.75872 0.70544 0.0
O628 O 0.43651 0.72086 0.70144 0.0
N629 N 0.34432 0.69746 0.65502 0.0
C630 C 0.32412 0.70931 0.6585 0.0
C631 C 0.30416 0.69765 0.66972 0.0
C632 C 0.30503 0.67385 0.67655 0.0
C633 C 0.32569 0.66181 0.67105 0.0
C634 C 0.34489 0.6743 0.65919 0.0
H635 H 0.32322 0.72752 0.65274 0.0
O636 O 0.39248 0.73056 0.7301 0.0
O637 O 0.38785 0.71315 0.67905 0.0
O638 O 0.38311 0.76138 0.67143 0.0
O639 O 0.36164 0.7404 0.63298 0.0
C640 C 0.32784 0.63782 0.67608 0.0
C641 C 0.34884 0.62666 0.66815 0.0
H642 H 0.39151 0.61104 0.6482 0.0
H643 H 0.42274 0.63575 0.62393 0.0
H644 H 0.28816 0.707 0.67318 0.0
H645 H 0.28967 0.66495 0.68553 0.0
H646 H 0.31341 0.62777 0.6858 0.0
H647 H 0.35029 0.60821 0.67209 0.0
Mn648 Mn 0.26356 0.40496 0.68277 0.0
Mn649 Mn 0.29775 0.3717 0.63126 0.0
C650 C 0.29005 0.37989 0.70882 0.0
C651 C 0.25782 0.44123 0.70959 0.0
C652 C 0.24732 0.36031 0.64689 0.0
O653 O 0.25899 0.4187 0.63333 0.0
O654 O 0.2859 0.39832 0.60406 0.0
C655 C 0.33535 0.40597 0.62383 0.0
N656 N 0.3282 0.38439 0.63299 0.0
C657 C 0.36666 0.37359 0.65039 0.0
C658 C 0.37448 0.39562 0.64082 0.0
C659 C 0.35873 0.41191 0.62762 0.0
C660 C 0.3431 0.36878 0.64648 0.0
H661 H 0.32327 0.41858 0.6139 0.0
C662 C 0.27074 0.41426 0.60568 0.0
O663 O 0.2406 0.42746 0.70302 0.0
O664 O 0.27805 0.43402 0.70019 0.0
N665 N 0.31104 0.34489 0.65265 0.0
C666 C 0.30115 0.32371 0.65693 0.0
C667 C 0.31483 0.30496 0.66756 0.0
C668 C 0.33859 0.30806 0.6733 0.0
C669 C 0.34854 0.32977 0.66747 0.0
C670 C 0.33412 0.34768 0.65606 0.0
H671 H 0.28299 0.32109 0.65206 0.0
O672 O 0.27345 0.38872 0.72731 0.0
O673 O 0.29127 0.38681 0.67627 0.0
O674 O 0.24354 0.37704 0.66833 0.0
O675 O 0.2665 0.35752 0.63044 0.0
C676 C 0.3723 0.3342 0.67168 0.0
C677 C 0.38132 0.35618 0.6635 0.0
H678 H 0.39252 0.40022 0.64351 0.0
H679 H 0.3646 0.42899 0.62035 0.0
H680 H 0.30706 0.28816 0.67145 0.0
H681 H 0.34904 0.29361 0.68186 0.0
H682 H 0.38381 0.32078 0.68097 0.0
H683 H 0.39961 0.35939 0.66684 0.0
Mn684 Mn 0.60131 0.2745 0.69298 0.0
Mn685 Mn 0.6477 0.2902 0.64391 0.0
C686 C 0.6287 0.29892 0.71918 0.0
C687 C 0.56274 0.27815 0.7117 0.0
C688 C 0.64132 0.24257 0.6759 0.0
O689 O 0.59126 0.26748 0.64204 0.0
O690 O 0.62092 0.28383 0.61283 0.0
C691 C 0.63333 0.3338 0.60958 0.0
N692 N 0.64897 0.3215 0.62866 0.0
C693 C 0.67842 0.3502 0.6194 0.0
C694 C 0.66258 0.3633 0.59976 0.0
C695 C 0.63989 0.35515 0.59509 0.0
C696 C 0.6708 0.32924 0.63347 0.0
H697 H 0.61615 0.32716 0.60506 0.0
C698 C 0.60107 0.27424 0.61368 0.0
O699 O 0.57353 0.25861 0.71196 0.0
O700 O 0.57416 0.29579 0.69958 0.0
N701 N 0.67537 0.29696 0.66926 0.0
C702 C 0.68704 0.28392 0.69326 0.0
C703 C 0.70932 0.29068 0.7037 0.0
C704 C 0.71955 0.31037 0.6886 0.0
C705 C 0.70716 0.32346 0.66382 0.0
C706 C 0.68485 0.31617 0.65512 0.0
H707 H 0.67945 0.26841 0.70403 0.0
O708 O 0.61475 0.28608 0.73745 0.0
O709 O 0.62658 0.29723 0.68466 0.0
O710 O 0.62342 0.24671 0.69413 0.0
O711 O 0.65035 0.25737 0.65546 0.0
C712 C 0.71573 0.34382 0.64817 0.0
C713 C 0.70134 0.35723 0.62605 0.0
H714 H 0.6676 0.37969 0.58837 0.0
H715 H 0.62762 0.36513 0.57989 0.0
H716 H 0.71874 0.28056 0.72294 0.0
H717 H 0.73678 0.31545 0.69658 0.0
H718 H 0.73304 0.34979 0.65403 0.0
H719 H 0.70786 0.37323 0.61513 0.0
Mn720 Mn 0.74209 0.41534 0.83141 0.0
Mn721 Mn 0.7258 0.36696 0.87588 0.0
C722 C 0.71959 0.38766 0.80217 0.0
C723 C 0.73753 0.45387 0.81234 0.0
C724 C 0.77433 0.37515 0.84891 0.0
O725 O 0.7461 0.42474 0.88337 0.0
O726 O 0.73214 0.39254 0.90933 0.0
C727 C 0.68196 0.38063 0.91009 0.0
N728 N 0.69417 0.36573 0.88959 0.0
C729 C 0.66445 0.3368 0.89395 0.0
C730 C 0.65148 0.35188 0.91503 0.0
C731 C 0.66019 0.37397 0.92286 0.0
C732 C 0.68586 0.34453 0.88165 0.0
H733 H 0.68898 0.39729 0.91702 0.0
C734 C 0.74015 0.4131 0.91058 0.0
O735 O 0.75757 0.4441 0.81448 0.0
O736 O 0.72001 0.44158 0.82271 0.0
N737 N 0.71899 0.34057 0.8476 0.0
C738 C 0.73236 0.32963 0.82326 0.0
C739 C 0.72507 0.30829 0.80958 0.0
C740 C 0.70451 0.29818 0.82187 0.0
C741 C 0.69114 0.30976 0.84717 0.0
C742 C 0.69896 0.33124 0.85904 0.0
H743 H 0.74847 0.33712 0.81459 0.0
O744 O 0.73296 0.40189 0.78533 0.0
O745 O 0.7199 0.38941 0.83671 0.0
O746 O 0.7709 0.39437 0.83359 0.0
O747 O 0.75873 0.36434 0.86549 0.0
C748 C 0.67014 0.3011 0.86058 0.0
C749 C 0.65686 0.31457 0.88412 0.0
H750 H 0.63475 0.34677 0.92511 0.0
H751 H 0.6503 0.38567 0.93917 0.0
H752 H 0.73544 0.29949 0.79002 0.0
H753 H 0.69905 0.28164 0.81148 0.0
H754 H 0.66375 0.2844 0.85223 0.0
H755 H 0.64047 0.308 0.89352 0.0
Mn756 Mn 0.60676 0.75412 0.83126 0.0
Mn757 Mn 0.64737 0.72564 0.87908 0.0
C758 C 0.63488 0.73224 0.80254 0.0
C759 C 0.56938 0.75583 0.80666 0.0
C760 C 0.64968 0.77713 0.86352 0.0
O761 O 0.59382 0.75522 0.88187 0.0
O762 O 0.62013 0.7326 0.90871 0.0
C763 C 0.62041 0.68264 0.88837 0.0
N764 N 0.64013 0.69345 0.8779 0.0
C765 C 0.65701 0.65747 0.85961 0.0
C766 C 0.63698 0.64592 0.87058 0.0
C767 C 0.61856 0.65859 0.88488 0.0
C768 C 0.65772 0.68149 0.86334 0.0
H769 H 0.60616 0.69233 0.89906 0.0
C770 C 0.60149 0.74435 0.90879 0.0
O771 O 0.58112 0.77433 0.81383 0.0
O772 O 0.5792 0.73632 0.81429 0.0
N773 N 0.67526 0.71724 0.8552 0.0
C774 C 0.69407 0.73075 0.84865 0.0
C775 C 0.71447 0.72062 0.83602 0.0
C776 C 0.71551 0.69665 0.83085 0.0
C777 C 0.69628 0.68299 0.83908 0.0
C778 C 0.67655 0.69403 0.85215 0.0
H779 H 0.69358 0.74913 0.85311 0.0
O780 O 0.62304 0.74759 0.7854 0.0
O781 O 0.62933 0.72944 0.8355 0.0
O782 O 0.63158 0.77806 0.84417 0.0
O783 O 0.65626 0.75876 0.8795 0.0
C784 C 0.69601 0.65881 0.83522 0.0
C785 C 0.67628 0.64608 0.84513 0.0
H786 H 0.63553 0.62736 0.86808 0.0
H787 H 0.60297 0.64984 0.89318 0.0
H788 H 0.72935 0.73127 0.83024 0.0
H789 H 0.73119 0.68892 0.82079 0.0
H790 H 0.71086 0.64984 0.82464 0.0
H791 H 0.67622 0.62752 0.84186 0.0
Mn792 Mn 0.26745 0.60237 0.82909 0.0
Mn793 Mn 0.29494 0.64132 0.88069 0.0
C794 C 0.29352 0.62835 0.80396 0.0
C795 C 0.26714 0.56459 0.80578 0.0
C796 C 0.24488 0.64666 0.85677 0.0
O797 O 0.26107 0.59064 0.87933 0.0
O798 O 0.28411 0.61497 0.9096 0.0
C799 C 0.33515 0.61196 0.89815 0.0
N800 N 0.32647 0.63202 0.88494 0.0
C801 C 0.36455 0.64602 0.87133 0.0
C802 C 0.37391 0.6256 0.8851 0.0
C803 C 0.35914 0.60847 0.89844 0.0
C804 C 0.3405 0.6484 0.87138 0.0
H805 H 0.32385 0.59869 0.90819 0.0
C806 C 0.27066 0.59752 0.90784 0.0
O807 O 0.24827 0.57664 0.80798 0.0
O808 O 0.28569 0.5743 0.81777 0.0
N809 N 0.30673 0.6681 0.85724 0.0
C810 C 0.29503 0.68749 0.84751 0.0
C811 C 0.30732 0.70685 0.83551 0.0
C812 C 0.33154 0.70622 0.83407 0.0
C813 C 0.34325 0.68632 0.84509 0.0
C814 C 0.33008 0.66774 0.85748 0.0
H815 H 0.27644 0.68826 0.84908 0.0
O816 O 0.27891 0.61729 0.7843 0.0
O817 O 0.29292 0.62328 0.83731 0.0
O818 O 0.2441 0.62875 0.83685 0.0
O819 O 0.26255 0.65209 0.8755 0.0
C820 C 0.36748 0.68434 0.8448 0.0
C821 C 0.37812 0.6641 0.8576 0.0
H822 H 0.39241 0.62289 0.88551 0.0
H823 H 0.36622 0.59261 0.90894 0.0
H824 H 0.29816 0.72222 0.82737 0.0
H825 H 0.34096 0.72111 0.82453 0.0
H826 H 0.3781 0.6983 0.83488 0.0
H827 H 0.39676 0.66275 0.85717 0.0
Mn828 Mn 0.40107 0.26612 0.82764 0.0
Mn829 Mn 0.36015 0.2936 0.87576 0.0
C830 C 0.37223 0.28707 0.79921 0.0
C831 C 0.43821 0.26526 0.80261 0.0
C832 C 0.35946 0.24188 0.86144 0.0
O833 O 0.41445 0.26569 0.87798 0.0
O834 O 0.38806 0.28818 0.90485 0.0
C835 C 0.38531 0.33783 0.88317 0.0
N836 N 0.36594 0.32606 0.87364 0.0
C837 C 0.34714 0.36108 0.85526 0.0
C838 C 0.36678 0.37362 0.86538 0.0
C839 C 0.38599 0.36191 0.87922 0.0
C840 C 0.34759 0.33708 0.85947 0.0
H841 H 0.40018 0.32887 0.8934 0.0
C842 C 0.40701 0.27689 0.90469 0.0
O843 O 0.42695 0.24654 0.81025 0.0
O844 O 0.42802 0.28461 0.80994 0.0
N845 N 0.33174 0.30048 0.85207 0.0
C846 C 0.31371 0.28599 0.84528 0.0
C847 C 0.29282 0.29503 0.8325 0.0
C848 C 0.29051 0.31892 0.8274 0.0
C849 C 0.30899 0.33358 0.83567 0.0
C850 C 0.32927 0.32359 0.84882 0.0
H851 H 0.31519 0.26765 0.84964 0.0
O852 O 0.38424 0.27192 0.78199 0.0
O853 O 0.37796 0.29014 0.83203 0.0
O854 O 0.37715 0.2415 0.84129 0.0
O855 O 0.3526 0.26012 0.87747 0.0
C856 C 0.30805 0.35772 0.83154 0.0
C857 C 0.32721 0.37144 0.841 0.0
H858 H 0.36734 0.3922 0.86246 0.0
H859 H 0.4013 0.37143 0.8868 0.0
H860 H 0.27855 0.28361 0.82658 0.0
H861 H 0.27445 0.32581 0.81723 0.0
H862 H 0.29273 0.36589 0.82094 0.0
H863 H 0.32637 0.38996 0.83738 0.0
Mn864 Mn 0.27124 0.40802 0.33046 0.0
Mn865 Mn 0.30211 0.37075 0.38007 0.0
C866 C 0.29504 0.38086 0.3031 0.0
C867 C 0.27053 0.44536 0.30514 0.0
C868 C 0.25029 0.36572 0.36653 0.0
O869 O 0.26877 0.42134 0.38064 0.0
O870 O 0.29504 0.39879 0.40777 0.0
C871 C 0.34466 0.39883 0.3857 0.0
N872 N 0.33407 0.37865 0.37685 0.0
C873 C 0.37007 0.36195 0.35827 0.0
C874 C 0.3814 0.38247 0.36751 0.0
C875 C 0.36861 0.40103 0.38114 0.0
C876 C 0.34613 0.36088 0.36303 0.0
H877 H 0.33486 0.41316 0.39599 0.0
C878 C 0.28123 0.41597 0.40725 0.0
O879 O 0.25152 0.43394 0.3107 0.0
O880 O 0.2894 0.43522 0.31465 0.0
N881 N 0.31058 0.3425 0.35737 0.0
C882 C 0.2972 0.32353 0.35141 0.0
C883 C 0.30749 0.30306 0.33937 0.0
C884 C 0.33145 0.30218 0.33403 0.0
C885 C 0.34494 0.32176 0.34093 0.0
C886 C 0.33377 0.34154 0.35349 0.0
H887 H 0.27883 0.3239 0.3561 0.0
O888 O 0.27931 0.39156 0.28508 0.0
O889 O 0.29675 0.38696 0.33588 0.0
O890 O 0.24809 0.38221 0.34407 0.0
O891 O 0.26924 0.36136 0.38286 0.0
C892 C 0.36904 0.32237 0.33613 0.0
C893 C 0.38158 0.34253 0.34447 0.0
H894 H 0.39989 0.38419 0.36416 0.0
H895 H 0.37721 0.41697 0.38814 0.0
H896 H 0.29697 0.28798 0.33428 0.0
H897 H 0.33931 0.28641 0.3245 0.0
H898 H 0.3781 0.30744 0.32598 0.0
H899 H 0.40008 0.34284 0.34046 0.0
Mn900 Mn 0.60175 0.26722 0.33441 0.0
Mn901 Mn 0.6348 0.3027 0.38448 0.0
C902 C 0.62537 0.29457 0.30719 0.0
C903 C 0.56519 0.26013 0.30873 0.0
C904 C 0.64769 0.25275 0.36837 0.0
O905 O 0.58939 0.26197 0.38456 0.0
O906 O 0.60944 0.28953 0.41306 0.0
C907 C 0.59908 0.33861 0.39404 0.0
N908 N 0.6207 0.33249 0.38356 0.0
C909 C 0.6293 0.37138 0.36564 0.0
C910 C 0.60718 0.37815 0.37647 0.0
C911 C 0.59197 0.36166 0.39061 0.0
C912 C 0.63526 0.34809 0.36919 0.0
H913 H 0.58731 0.32597 0.40478 0.0
C914 C 0.59423 0.27358 0.41224 0.0
O915 O 0.57965 0.24345 0.31484 0.0
O916 O 0.5718 0.28056 0.31824 0.0
N917 N 0.66053 0.31725 0.36199 0.0
C918 C 0.68214 0.30848 0.3573 0.0
C919 C 0.70006 0.32306 0.34603 0.0
C920 C 0.69566 0.34657 0.34006 0.0
C921 C 0.67356 0.35541 0.34653 0.0
C922 C 0.65656 0.34014 0.35861 0.0
H923 H 0.68575 0.29052 0.36235 0.0
O924 O 0.61669 0.27766 0.28915 0.0
O925 O 0.61909 0.2956 0.34008 0.0
O926 O 0.63066 0.2483 0.3477 0.0
O927 O 0.65027 0.27212 0.38441 0.0
C928 C 0.66793 0.37891 0.34251 0.0
C929 C 0.64572 0.38685 0.35172 0.0
H930 H 0.6017 0.39594 0.37411 0.0
H931 H 0.57484 0.36673 0.39891 0.0
H932 H 0.71719 0.31618 0.3418 0.0
H933 H 0.70946 0.35771 0.33099 0.0
H934 H 0.68062 0.39106 0.33272 0.0
H935 H 0.6416 0.40496 0.34861 0.0
Mn936 Mn 0.74693 0.60554 0.32939 0.0
Mn937 Mn 0.71795 0.64469 0.37915 0.0
C938 C 0.72284 0.63242 0.30193 0.0
C939 C 0.75006 0.56809 0.30548 0.0
C940 C 0.76872 0.64963 0.35991 0.0
O941 O 0.751 0.59329 0.37994 0.0
O942 O 0.72794 0.61826 0.40857 0.0
C943 C 0.67739 0.61489 0.39258 0.0
N944 N 0.68637 0.63517 0.38069 0.0
C945 C 0.6487 0.64914 0.36459 0.0
C946 C 0.63902 0.62847 0.37692 0.0
C947 C 0.65344 0.61125 0.39086 0.0
C948 C 0.67271 0.65165 0.36653 0.0
H949 H 0.68843 0.60156 0.40312 0.0
C950 C 0.74098 0.60053 0.40783 0.0
O951 O 0.76801 0.58099 0.31103 0.0
O952 O 0.73022 0.57682 0.31421 0.0
N953 N 0.70676 0.67183 0.35599 0.0
C954 C 0.71855 0.69172 0.34924 0.0
C955 C 0.70653 0.71129 0.33738 0.0
C956 C 0.68245 0.71038 0.33326 0.0
C957 C 0.67056 0.6901 0.342 0.0
C958 C 0.68345 0.6713 0.35431 0.0
H959 H 0.73701 0.69269 0.35293 0.0
O960 O 0.73807 0.62106 0.28388 0.0
O961 O 0.72131 0.62693 0.33519 0.0
O962 O 0.76982 0.63159 0.34051 0.0
O963 O 0.75048 0.65565 0.37676 0.0
C964 C 0.64637 0.68796 0.33968 0.0
C965 C 0.63547 0.66739 0.35062 0.0
H966 H 0.62054 0.62566 0.37584 0.0
H967 H 0.64612 0.59521 0.4003 0.0
H968 H 0.71581 0.72702 0.33136 0.0
H969 H 0.67325 0.72542 0.32379 0.0
H970 H 0.63599 0.70207 0.3297 0.0
H971 H 0.61687 0.66594 0.34871 0.0
Mn972 Mn 0.40836 0.73808 0.33194 0.0
Mn973 Mn 0.37033 0.70784 0.38134 0.0
C974 C 0.38011 0.7152 0.30448 0.0
C975 C 0.44557 0.73875 0.30583 0.0
C976 C 0.36711 0.75991 0.36951 0.0
O977 O 0.42222 0.73927 0.38213 0.0
O978 O 0.39895 0.71326 0.40848 0.0
C979 C 0.39651 0.66405 0.38466 0.0
N980 N 0.37669 0.67562 0.37693 0.0
C981 C 0.35788 0.6406 0.3585 0.0
C982 C 0.37801 0.62827 0.36662 0.0
C983 C 0.39745 0.64007 0.37959 0.0
C984 C 0.35809 0.66452 0.36368 0.0
H985 H 0.4115 0.67309 0.39445 0.0
C986 C 0.41666 0.7264 0.40823 0.0
O987 O 0.43446 0.75772 0.31262 0.0
O988 O 0.4352 0.71981 0.31456 0.0
N989 N 0.34145 0.70094 0.35908 0.0
C990 C 0.32312 0.71527 0.35375 0.0
C991 C 0.30196 0.70606 0.34232 0.0
C992 C 0.29973 0.68219 0.33697 0.0
C993 C 0.3187 0.66773 0.34311 0.0
C994 C 0.33924 0.67785 0.35504 0.0
H995 H 0.32451 0.73357 0.35851 0.0
O996 O 0.39109 0.73084 0.28664 0.0
O997 O 0.38652 0.71307 0.33706 0.0
O998 O 0.38336 0.76174 0.34665 0.0
O999 O 0.36236 0.74101 0.38562 0.0
C1000 C 0.31799 0.64366 0.33803 0.0
C1001 C 0.33765 0.63013 0.34537 0.0
H1002 H 0.37876 0.60975 0.36289 0.0
H1003 H 0.4131 0.6307 0.3857 0.0
H1004 H 0.28738 0.71734 0.33776 0.0
H1005 H 0.28342 0.67517 0.32796 0.0
H1006 H 0.30244 0.6354 0.32833 0.0
H1007 H 0.33697 0.61167 0.34107 0.0
Mn1008 Mn 0.2647 0.60576 0.18319 0.0
Mn1009 Mn 0.29801 0.64235 0.13541 0.0
C1010 C 0.28727 0.63339 0.21203 0.0
C1011 C 0.26026 0.56909 0.20956 0.0
C1012 C 0.24606 0.64824 0.14447 0.0
O1013 O 0.26431 0.59161 0.13337 0.0
O1014 O 0.29108 0.61427 0.10774 0.0
C1015 C 0.33986 0.61311 0.13402 0.0
N1016 N 0.32962 0.63372 0.14117 0.0
C1017 C 0.36558 0.64998 0.16109 0.0
C1018 C 0.37657 0.629 0.1536 0.0
C1019 C 0.36362 0.61045 0.14016 0.0
C1020 C 0.34181 0.65149 0.15485 0.0
H1021 H 0.32993 0.5988 0.12388 0.0
C1022 C 0.27742 0.59696 0.10754 0.0
O1023 O 0.24257 0.58153 0.20051 0.0
O1024 O 0.28041 0.57787 0.203 0.0
N1025 N 0.30663 0.67079 0.15755 0.0
C1026 C 0.29369 0.69028 0.1613 0.0
C1027 C 0.30421 0.71073 0.17306 0.0
C1028 C 0.328 0.71109 0.18021 0.0
C1029 C 0.34112 0.69108 0.17495 0.0
C1030 C 0.32973 0.6713 0.16272 0.0
H1031 H 0.27548 0.69029 0.15528 0.0
O1032 O 0.27065 0.62299 0.22854 0.0
O1033 O 0.2909 0.62658 0.17985 0.0
O1034 O 0.24296 0.63158 0.16622 0.0
O1035 O 0.26554 0.65263 0.12986 0.0
C1036 C 0.36509 0.69004 0.18112 0.0
C1037 C 0.37727 0.66942 0.17453 0.0
H1038 H 0.39491 0.62691 0.15815 0.0
H1039 H 0.37195 0.59416 0.13452 0.0
H1040 H 0.294 0.72618 0.17661 0.0
H1041 H 0.33602 0.72684 0.18957 0.0
H1042 H 0.3743 0.70496 0.19108 0.0
H1043 H 0.39566 0.66876 0.17966 0.0
Mn1044 Mn 0.40536 0.26675 0.18252 0.0
Mn1045 Mn 0.36814 0.29727 0.1319 0.0
C1046 C 0.37776 0.29001 0.20947 0.0
C1047 C 0.44263 0.26648 0.20839 0.0
C1048 C 0.36236 0.2459 0.14752 0.0
O1049 O 0.41852 0.2633 0.13258 0.0
O1050 O 0.39568 0.28854 0.10403 0.0
C1051 C 0.39792 0.33847 0.12437 0.0
N1052 N 0.37735 0.32891 0.1338 0.0
C1053 C 0.36249 0.36577 0.15206 0.0
C1054 C 0.38345 0.37605 0.14229 0.0
C1055 C 0.40127 0.36232 0.12849 0.0
C1056 C 0.36027 0.34188 0.14772 0.0
H1057 H 0.4117 0.32794 0.11396 0.0
C1058 C 0.4127 0.27456 0.10502 0.0
O1059 O 0.43139 0.24735 0.20295 0.0
O1060 O 0.43245 0.28514 0.19812 0.0
N1061 N 0.34015 0.30733 0.15381 0.0
C1062 C 0.32031 0.29507 0.15872 0.0
C1063 C 0.30035 0.30642 0.17053 0.0
C1064 C 0.30084 0.33032 0.17655 0.0
C1065 C 0.32114 0.34275 0.16984 0.0
C1066 C 0.34037 0.33054 0.1575 0.0
H1067 H 0.3197 0.27676 0.15363 0.0
O1068 O 0.38893 0.27473 0.22766 0.0
O1069 O 0.38397 0.29207 0.17667 0.0
O1070 O 0.37942 0.24366 0.16908 0.0
O1071 O 0.35771 0.26473 0.13108 0.0
C1072 C 0.32296 0.3668 0.17443 0.0
C1073 C 0.3437 0.37828 0.16587 0.0
H1074 H 0.38606 0.39446 0.14529 0.0
H1075 H 0.41754 0.37011 0.12104 0.0
H1076 H 0.28464 0.29675 0.17507 0.0
H1077 H 0.28548 0.33899 0.186 0.0
H1078 H 0.3085 0.37665 0.18447 0.0
H1079 H 0.34492 0.39676 0.16962 0.0
Mn1080 Mn 0.74219 0.40495 0.1919 0.0
Mn1081 Mn 0.71714 0.36428 0.14013 0.0
C1082 C 0.71812 0.37735 0.21729 0.0
C1083 C 0.74081 0.44281 0.21484 0.0
C1084 C 0.76714 0.36154 0.16514 0.0
O1085 O 0.74822 0.4168 0.1417 0.0
O1086 O 0.72729 0.39087 0.11112 0.0
C1087 C 0.67606 0.39213 0.12167 0.0
N1088 N 0.68534 0.37242 0.13517 0.0
C1089 C 0.64768 0.35728 0.14868 0.0
C1090 C 0.63771 0.37734 0.13468 0.0
C1091 C 0.65198 0.39486 0.12121 0.0
C1092 C 0.67179 0.35565 0.1488 0.0
H1093 H 0.68697 0.4057 0.11153 0.0
C1094 C 0.73968 0.40907 0.11297 0.0
O1095 O 0.76015 0.43154 0.21256 0.0
O1096 O 0.7226 0.43226 0.20321 0.0
N1097 N 0.70612 0.33695 0.16295 0.0
C1098 C 0.71836 0.31767 0.17161 0.0
C1099 C 0.70664 0.2979 0.18342 0.0
C1100 C 0.68244 0.29798 0.18556 0.0
C1101 C 0.67015 0.31761 0.17489 0.0
C1102 C 0.68277 0.33663 0.16271 0.0
H1103 H 0.73694 0.31737 0.16952 0.0
O1104 O 0.73184 0.38963 0.23676 0.0
O1105 O 0.71805 0.38234 0.1838 0.0
O1106 O 0.76693 0.37979 0.18438 0.0
O1107 O 0.74986 0.35491 0.1464 0.0
C1108 C 0.64587 0.31887 0.17518 0.0
C1109 C 0.63464 0.3388 0.1624 0.0
H1110 H 0.61914 0.37946 0.13413 0.0
H1111 H 0.64443 0.41044 0.1105 0.0
H1112 H 0.71625 0.28267 0.19096 0.0
H1113 H 0.67347 0.28278 0.19501 0.0
H1114 H 0.63566 0.30458 0.18499 0.0
H1115 H 0.61596 0.33958 0.16276 0.0
Mn1116 Mn 0.60752 0.74604 0.18809 0.0
Mn1117 Mn 0.64138 0.71367 0.13491 0.0
C1118 C 0.63205 0.7183 0.21285 0.0
C1119 C 0.57052 0.75082 0.21376 0.0
C1120 C 0.65239 0.76368 0.15467 0.0
O1121 O 0.59498 0.7527 0.1383 0.0
O1122 O 0.61495 0.72609 0.1077 0.0
C1123 C 0.60774 0.67596 0.12343 0.0
N1124 N 0.62907 0.68308 0.13399 0.0
C1125 C 0.64016 0.64429 0.1489 0.0
C1126 C 0.61838 0.6365 0.13796 0.0
C1127 C 0.60207 0.65243 0.12528 0.0
C1128 C 0.6447 0.66798 0.1469 0.0
H1129 H 0.59514 0.68816 0.11382 0.0
C1130 C 0.59954 0.74178 0.10985 0.0
O1131 O 0.58451 0.76816 0.20951 0.0
O1132 O 0.57791 0.73102 0.20271 0.0
N1133 N 0.66809 0.7001 0.15619 0.0
C1134 C 0.68903 0.71013 0.16211 0.0
C1135 C 0.70781 0.69641 0.17253 0.0
C1136 C 0.70497 0.67246 0.1763 0.0
C1137 C 0.68349 0.66241 0.16888 0.0
C1138 C 0.66556 0.67692 0.15783 0.0
H1139 H 0.69146 0.72846 0.15869 0.0
O1140 O 0.62287 0.73416 0.23243 0.0
O1141 O 0.62575 0.71855 0.17993 0.0
O1142 O 0.6358 0.76659 0.17671 0.0
O1143 O 0.65512 0.74509 0.13666 0.0
C1144 C 0.67933 0.63851 0.1712 0.0
C1145 C 0.65759 0.62948 0.16156 0.0
H1146 H 0.61399 0.61835 0.13915 0.0
H1147 H 0.58518 0.64657 0.11692 0.0
H1148 H 0.72443 0.70426 0.17771 0.0
H1149 H 0.71943 0.66195 0.18466 0.0
H1150 H 0.69277 0.62691 0.18015 0.0
H1151 H 0.65458 0.61107 0.16345 0.0
H1152 H 0.35908 0.20532 0.18505 0.0
H1153 H 0.32758 0.24292 0.09904 0.0
H1154 H 0.29687 0.21451 0.09547 0.0
H1155 H 0.277 0.18066 0.11946 0.0
H1156 H 0.30822 0.14257 0.20508 0.0
H1157 H 0.3408 0.16922 0.20565 0.0
C1158 C 0.34571 0.20713 0.16517 0.0
C1159 C 0.34569 0.22651 0.14269 0.0
C1160 C 0.3278 0.19065 0.16323 0.0
C1161 C 0.32811 0.22841 0.11705 0.0
C1162 C 0.3104 0.21213 0.11493 0.0
C1163 C 0.29102 0.178 0.13803 0.0
C1164 C 0.28991 0.15964 0.16233 0.0
C1165 C 0.30976 0.19346 0.13837 0.0
C1166 C 0.30845 0.15649 0.186 0.0
C1167 C 0.32714 0.17182 0.18648 0.0
H1168 H 0.8574 0.3021 0.19292 0.0
H1169 H 0.82552 0.26023 0.1119 0.0
H1170 H 0.79436 0.28795 0.10632 0.0
H1171 H 0.77511 0.32314 0.12549 0.0
H1172 H 0.80609 0.36546 0.20658 0.0
H1173 H 0.83857 0.33867 0.21061 0.0
C1174 C 0.84373 0.29908 0.17388 0.0
C1175 C 0.84395 0.27887 0.15306 0.0
C1176 C 0.82558 0.3152 0.17072 0.0
C1177 C 0.82597 0.27544 0.12851 0.0
C1178 C 0.80803 0.29134 0.12521 0.0
C1179 C 0.78898 0.32669 0.14398 0.0
C1180 C 0.78794 0.34637 0.16578 0.0
C1181 C 0.80752 0.31114 0.14638 0.0
C1182 C 0.80629 0.35053 0.18939 0.0
C1183 C 0.82489 0.33514 0.19182 0.0
H1184 H 0.6565 0.80512 0.19023 0.0
H1185 H 0.6885 0.76418 0.10841 0.0
H1186 H 0.719 0.79262 0.10239 0.0
H1187 H 0.73796 0.82799 0.12183 0.0
H1188 H 0.70697 0.86936 0.20385 0.0
H1189 H 0.6748 0.84212 0.20776 0.0
C1190 C 0.67003 0.80248 0.1709 0.0
C1191 C 0.67006 0.78227 0.15004 0.0
C1192 C 0.68785 0.81903 0.16749 0.0
C1193 C 0.68787 0.77935 0.12509 0.0
C1194 C 0.70544 0.79567 0.12153 0.0
C1195 C 0.72412 0.83127 0.14042 0.0
C1196 C 0.72512 0.8508 0.16259 0.0
C1197 C 0.70578 0.81542 0.14284 0.0
C1198 C 0.70681 0.85458 0.18635 0.0
C1199 C 0.68839 0.83891 0.18874 0.0
H1200 H 0.20427 0.65104 0.17838 0.0
H1201 H 0.24458 0.68303 0.0958 0.0
H1202 H 0.21598 0.7135 0.09014 0.0
H1203 H 0.18149 0.73309 0.11202 0.0
H1204 H 0.14117 0.70184 0.19515 0.0
H1205 H 0.16759 0.66904 0.19666 0.0
C1206 C 0.20665 0.66445 0.15874 0.0
C1207 C 0.2268 0.66472 0.13784 0.0
C1208 C 0.19017 0.68223 0.15578 0.0
C1209 C 0.22944 0.68234 0.11253 0.0
C1210 C 0.21307 0.69987 0.10925 0.0
C1211 C 0.17825 0.71901 0.13024 0.0
C1212 C 0.1594 0.72017 0.15366 0.0
C1213 C 0.19367 0.70031 0.13132 0.0
C1214 C 0.15549 0.70155 0.17679 0.0
C1215 C 0.17069 0.68278 0.17782 0.0
H1216 H 0.28629 0.82736 0.41146 0.0
H1217 H 0.30829 0.86205 0.3164 0.0
H1218 H 0.3406 0.83516 0.31067 0.0
H1219 H 0.36068 0.79943 0.3299 0.0
H1220 H 0.33783 0.76526 0.42509 0.0
H1221 H 0.30811 0.79428 0.43339 0.0
C1222 C 0.29825 0.82928 0.38964 0.0
C1223 C 0.29461 0.84671 0.36429 0.0
C1224 C 0.31671 0.81365 0.38633 0.0
C1225 C 0.31055 0.84889 0.33641 0.0
C1226 C 0.32903 0.83339 0.33299 0.0
C1227 C 0.34948 0.79856 0.35279 0.0
C1228 C 0.35151 0.7799 0.37658 0.0
C1229 C 0.33203 0.81537 0.3574 0.0
C1230 C 0.33667 0.77916 0.40604 0.0
C1231 C 0.31956 0.7958 0.41088 0.0
H1232 H 0.21076 0.35899 0.32696 0.0
H1233 H 0.24586 0.33538 0.421 0.0
H1234 H 0.21726 0.30517 0.42885 0.0
H1235 H 0.18395 0.2835 0.40725 0.0
H1236 H 0.14824 0.3064 0.31349 0.0
H1237 H 0.17514 0.33871 0.3077 0.0
C1238 C 0.21195 0.34748 0.34947 0.0
C1239 C 0.2307 0.34951 0.37311 0.0
C1240 C 0.19537 0.32978 0.35386 0.0
C1241 C 0.23186 0.33426 0.40208 0.0
C1242 C 0.21547 0.31687 0.40667 0.0
C1243 C 0.18186 0.29562 0.38565 0.0
C1244 C 0.16408 0.29227 0.36075 0.0
C1245 C 0.19744 0.31414 0.38237 0.0
C1246 C 0.16169 0.30841 0.33314 0.0
C1247 C 0.17716 0.32692 0.32971 0.0
H1248 H 0.73656 0.19214 0.39696 0.0
H1249 H 0.70068 0.14566 0.32658 0.0
H1250 H 0.66808 0.17217 0.32385 0.0
H1251 H 0.65048 0.20958 0.33877 0.0
H1252 H 0.68669 0.25596 0.409 0.0
H1253 H 0.71819 0.22847 0.41427 0.0
C1254 C 0.72157 0.18764 0.38122 0.0
C1255 C 0.72131 0.16686 0.36188 0.0
C1256 C 0.70286 0.20308 0.37947 0.0
C1257 C 0.70155 0.16147 0.34175 0.0
C1258 C 0.68284 0.17669 0.34006 0.0
C1259 C 0.66516 0.21366 0.35544 0.0
C1260 C 0.66609 0.23502 0.3732 0.0
C1261 C 0.68343 0.19772 0.35839 0.0
C1262 C 0.68536 0.2398 0.39477 0.0
C1263 C 0.70349 0.22405 0.39786 0.0
H1264 H 0.77481 0.68838 0.40013 0.0
H1265 H 0.80928 0.64555 0.32318 0.0
H1266 H 0.84195 0.67205 0.32243 0.0
H1267 H 0.85993 0.70857 0.34096 0.0
H1268 H 0.82526 0.75132 0.41783 0.0
H1269 H 0.79378 0.72362 0.42124 0.0
C1270 C 0.78951 0.68469 0.38334 0.0
C1271 C 0.78936 0.66496 0.36161 0.0
C1272 C 0.80831 0.70008 0.38287 0.0
C1273 C 0.80874 0.66056 0.3402 0.0
C1274 C 0.8275 0.67576 0.33967 0.0
C1275 C 0.84565 0.71175 0.35879 0.0
C1276 C 0.84507 0.73221 0.37889 0.0
C1277 C 0.82736 0.69575 0.36054 0.0
C1278 C 0.82628 0.73588 0.40182 0.0
C1279 C 0.80815 0.72002 0.4038 0.0
H1280 H 0.71344 0.86438 0.83761 0.0
H1281 H 0.75285 0.8308 0.91987 0.0
H1282 H 0.72314 0.80158 0.92595 0.0
H1283 H 0.68727 0.78381 0.90574 0.0
H1284 H 0.64732 0.81671 0.82365 0.0
H1285 H 0.67565 0.84787 0.82029 0.0
C1286 C 0.71545 0.85082 0.8571 0.0
C1287 C 0.73565 0.84986 0.87791 0.0
C1288 C 0.69815 0.83378 0.86059 0.0
C1289 C 0.73773 0.83208 0.90314 0.0
C1290 C 0.72068 0.81524 0.90674 0.0
C1291 C 0.68454 0.79789 0.88734 0.0
C1292 C 0.66515 0.79769 0.86487 0.0
C1293 C 0.70101 0.81568 0.88524 0.0
C1294 C 0.66201 0.81629 0.84138 0.0
C1295 C 0.67831 0.83412 0.83926 0.0
H1296 H 0.157 0.7101 0.83284 0.0
H1297 H 0.19207 0.75075 0.91218 0.0
H1298 H 0.22209 0.7216 0.91669 0.0
H1299 H 0.23947 0.68549 0.8967 0.0
H1300 H 0.20507 0.64461 0.81708 0.0
H1301 H 0.17377 0.67281 0.81449 0.0
C1302 C 0.1711 0.71255 0.85133 0.0
C1303 C 0.17214 0.73281 0.872 0.0
C1304 C 0.18856 0.69566 0.85377 0.0
C1305 C 0.19067 0.7355 0.89578 0.0
C1306 C 0.20795 0.71879 0.89841 0.0
C1307 C 0.2251 0.68256 0.87887 0.0
C1308 C 0.22483 0.66284 0.85703 0.0
C1309 C 0.20722 0.69894 0.87729 0.0
C1310 C 0.20588 0.65953 0.83425 0.0
C1311 C 0.18795 0.67573 0.83267 0.0
H1312 H 0.32258 0.23422 0.90479 0.0
H1313 H 0.3631 0.20178 0.82309 0.0
H1314 H 0.33636 0.16921 0.82189 0.0
H1315 H 0.29971 0.15111 0.84102 0.0
H1316 H 0.25969 0.18416 0.92291 0.0
H1317 H 0.28793 0.21497 0.92685 0.0
C1318 C 0.32579 0.21995 0.88694 0.0
C1319 C 0.34487 0.22069 0.86394 0.0
C1320 C 0.31023 0.20129 0.88613 0.0
C1321 C 0.34863 0.20183 0.84118 0.0
C1322 C 0.33324 0.18316 0.84032 0.0
C1323 C 0.29727 0.1649 0.86 0.0
C1324 C 0.27731 0.16521 0.88132 0.0
C1325 C 0.3137 0.18288 0.86223 0.0
C1326 C 0.27465 0.18334 0.90583 0.0
C1327 C 0.29085 0.2011 0.90819 0.0
H1328 H 0.85462 0.31042 0.89232 0.0
H1329 H 0.85242 0.29341 0.78168 0.0
H1330 H 0.82572 0.32556 0.77088 0.0
H1331 H 0.79821 0.35452 0.79532 0.0
H1332 H 0.80091 0.37063 0.90635 0.0
H1333 H 0.83254 0.34336 0.9146 0.0
C1334 C 0.84878 0.31422 0.8657 0.0
C1335 C 0.85534 0.29964 0.83785 0.0
C1336 C 0.83343 0.33257 0.85986 0.0
C1337 C 0.84771 0.30458 0.80345 0.0
C1338 C 0.83229 0.32284 0.79736 0.0
C1339 C 0.80645 0.35269 0.82091 0.0
C1340 C 0.7975 0.36469 0.85017 0.0
C1341 C 0.82438 0.33647 0.82561 0.0
C1342 C 0.8078 0.36177 0.88345 0.0
C1343 C 0.8257 0.346 0.88824 0.0
H1344 H 0.66262 0.21973 0.62389 0.0
H1345 H 0.64845 0.21608 0.73541 0.0
H1346 H 0.67628 0.18429 0.74155 0.0
H1347 H 0.70848 0.16097 0.7157 0.0
H1348 H 0.72228 0.16684 0.60398 0.0
H1349 H 0.6908 0.19411 0.59742 0.0
C1350 C 0.6653 0.21168 0.64947 0.0
C1351 C 0.65367 0.22031 0.67916 0.0
C1352 C 0.68155 0.19395 0.6528 0.0
C1353 C 0.65712 0.20962 0.71209 0.0
C1354 C 0.67321 0.19161 0.71563 0.0
C1355 C 0.70423 0.16793 0.68991 0.0
C1356 C 0.71796 0.16215 0.66047 0.0
C1357 C 0.68611 0.18411 0.6863 0.0
C1358 C 0.71228 0.17131 0.62717 0.0
C1359 C 0.69423 0.18689 0.62332 0.0
H1360 H 0.80356 0.65565 0.68236 0.0
H1361 H 0.76495 0.69049 0.60048 0.0
H1362 H 0.79532 0.71925 0.59515 0.0
H1363 H 0.83127 0.73636 0.61643 0.0
H1364 H 0.87001 0.70255 0.69902 0.0
H1365 H 0.84142 0.67149 0.70074 0.0
C1366 C 0.80187 0.66935 0.66303 0.0
C1367 C 0.78171 0.67083 0.64209 0.0
C1368 C 0.81946 0.68615 0.66019 0.0
C1369 C 0.78004 0.68882 0.6172 0.0
C1370 C 0.79746 0.70538 0.61409 0.0
C1371 C 0.83372 0.72209 0.63459 0.0
C1372 C 0.85284 0.72203 0.65773 0.0
C1373 C 0.81702 0.70447 0.63588 0.0
C1374 C 0.85559 0.70318 0.68082 0.0
C1375 C 0.83911 0.68543 0.68199 0.0
H1376 H 0.28233 0.82612 0.62091 0.0
H1377 H 0.31408 0.86366 0.7067 0.0
H1378 H 0.34582 0.836 0.70805 0.0
H1379 H 0.36337 0.79961 0.68747 0.0
H1380 H 0.33118 0.76245 0.60155 0.0
H1381 H 0.30112 0.79153 0.59773 0.0
C1382 C 0.29625 0.82842 0.63979 0.0
C1383 C 0.29559 0.84696 0.6638 0.0
C1384 C 0.31446 0.8124 0.64055 0.0
C1385 C 0.31399 0.84961 0.68785 0.0
C1386 C 0.33218 0.83373 0.68874 0.0
C1387 C 0.34997 0.798 0.66759 0.0
C1388 C 0.34961 0.77862 0.64508 0.0
C1389 C 0.33244 0.81483 0.66556 0.0
C1390 C 0.33198 0.77698 0.6195 0.0
C1391 C 0.31466 0.79364 0.61726 0.0
H1392 H 0.18605 0.27152 0.62104 0.0
H1393 H 0.14172 0.30652 0.69535 0.0
H1394 H 0.168 0.33942 0.69623 0.0
H1395 H 0.20486 0.35736 0.67888 0.0
H1396 H 0.24897 0.32211 0.60445 0.0
H1397 H 0.22147 0.29049 0.60074 0.0
C1398 C 0.18196 0.2864 0.63723 0.0
C1399 C 0.16188 0.28631 0.65824 0.0
C1400 C 0.19723 0.3053 0.63782 0.0
C1401 C 0.15698 0.30593 0.67887 0.0
C1402 C 0.17207 0.3248 0.67951 0.0
C1403 C 0.2084 0.3429 0.66155 0.0
C1404 C 0.2292 0.34223 0.64225 0.0
C1405 C 0.19246 0.32454 0.65952 0.0
C1406 C 0.23328 0.32323 0.61987 0.0
C1407 C 0.21753 0.30502 0.6177 0.0
H1408 H 0.27034 0.09236 0.07502 0.0
H1409 H 0.19939 0.07376 0.09343 0.0
H1410 H 0.19359 0.06726 0.03038 0.0
H1411 H 0.20628 0.07583 0.96987 0.0
H1412 H 0.27701 0.0947 0.95048 0.0
H1413 H 0.28559 0.09161 0.0137 0.0
C1414 C 0.254 0.08573 0.06531 0.0
C1415 C 0.23528 0.08356 0.08874 0.0
C1416 C 0.25065 0.08256 0.02868 0.0
C1417 C 0.21402 0.07549 0.07586 0.0
C1418 C 0.21064 0.07199 0.03973 0.0
C1419 C 0.22379 0.07824 0.97939 0.0
C1420 C 0.24098 0.08552 0.95572 0.0
C1421 C 0.22844 0.07679 0.01578 0.0
C1422 C 0.26357 0.08882 0.96823 0.0
C1423 C 0.2684 0.08735 1.00447 0.0
H1424 H 0.90593 0.28334 0.96355 0.0
H1425 H 0.9381 0.21897 0.9357 0.0
H1426 H 0.94787 0.21196 0.99761 0.0
H1427 H 0.93906 0.22021 0.06021 0.0
H1428 H 0.9084 0.28532 0.08822 0.0
H1429 H 0.90681 0.2964 0.02591 0.0
C1430 C 0.91614 0.26842 0.97092 0.0
C1431 C 0.92143 0.25174 0.94522 0.0
C1432 C 0.92162 0.26448 1.00672 0.0
C1433 C 0.93423 0.2322 0.95503 0.0
C1434 C 0.93952 0.22804 0.99052 0.0
C1435 C 0.93312 0.23728 0.0527 0.0
C1436 C 0.92387 0.25194 0.07865 0.0
C1437 C 0.93219 0.24347 0.01676 0.0
C1438 C 0.91592 0.27389 0.06871 0.0
C1439 C 0.91469 0.28009 0.033 0.0
H1440 H 0.80681 0.93955 0.96386 0.0
H1441 H 0.73728 0.91764 0.94172 0.0
H1442 H 0.72804 0.91876 1.00477 0.0
H1443 H 0.743 0.91674 0.06619 0.0
H1444 H 0.81255 0.93896 0.08761 0.0
H1445 H 0.81848 0.94751 0.02515 0.0
C1446 C 0.78934 0.93617 0.97279 0.0
C1447 C 0.77276 0.92849 0.94837 0.0
C1448 C 0.78432 0.93646 1.0091 0.0
C1449 C 0.75022 0.92388 0.96008 0.0
C1450 C 0.74505 0.92417 0.99622 0.0
C1451 C 0.759 0.92455 0.05732 0.0
C1452 C 0.7774 0.92708 0.08125 0.0
C1453 C 0.76237 0.92912 0.02109 0.0
C1454 C 0.79822 0.93681 0.06952 0.0
C1455 C 0.80166 0.94155 0.03376 0.0
H1456 H 0.08159 0.80385 0.95776 0.0
H1457 H 0.09888 0.73235 0.94245 0.0
H1458 H 0.09467 0.72525 1.00597 0.0
H1459 H 0.09496 0.74179 0.06655 0.0
H1460 H 0.07897 0.81373 0.08078 0.0
H1461 H 0.07317 0.81824 0.01729 0.0
C1462 C 0.08344 0.78652 0.96821 0.0
C1463 C 0.09058 0.76866 0.94561 0.0
C1464 C 0.08154 0.78277 1.00477 0.0
C1465 C 0.09312 0.74629 0.95933 0.0
C1466 C 0.09102 0.74233 0.99575 0.0
C1467 C 0.08906 0.75811 0.0558 0.0
C1468 C 0.0873 0.77741 0.07821 0.0
C1469 C 0.08647 0.76072 0.01893 0.0
C1470 C 0.08026 0.79864 0.06401 0.0
C1471 C 0.07718 0.80127 0.02765 0.0
H1472 H 0.27798 0.91124 0.46069 0.0
H1473 H 0.20666 0.9303 0.44774 0.0
H1474 H 0.20359 0.93858 0.51077 0.0
H1475 H 0.21876 0.93172 0.57051 0.0
H1476 H 0.28983 0.91221 0.58444 0.0
H1477 H 0.29578 0.91341 0.52038 0.0
C1478 C 0.26216 0.91828 0.4715 0.0
C1479 C 0.24254 0.92016 0.44973 0.0
C1480 C 0.26042 0.92257 0.50812 0.0
C1481 C 0.22195 0.92879 0.46405 0.0
C1482 C 0.22015 0.93335 0.50017 0.0
C1483 C 0.23581 0.92885 0.55953 0.0
C1484 C 0.25385 0.92198 0.58202 0.0
C1485 C 0.23889 0.92907 0.52269 0.0
C1486 C 0.2758 0.91791 0.56762 0.0
C1487 C 0.27909 0.91824 0.53092 0.0
H1488 H 0.09581 0.27049 0.57198 0.0
H1489 H 0.07858 0.19836 0.57932 0.0
H1490 H 0.07205 0.19671 0.51567 0.0
H1491 H 0.07984 0.21354 0.45747 0.0
H1492 H 0.09941 0.28494 0.44896 0.0
H1493 H 0.09576 0.28949 0.51312 0.0
C1494 C 0.08959 0.25475 0.55974 0.0
C1495 C 0.08758 0.23457 0.58023 0.0
C1496 C 0.08662 0.25377 0.52272 0.0
C1497 C 0.0801 0.21409 0.56406 0.0
C1498 C 0.07654 0.21311 0.5276 0.0
C1499 C 0.08224 0.23034 0.46957 0.0
C1500 C 0.08972 0.24891 0.44862 0.0
C1501 C 0.08096 0.23251 0.50651 0.0
C1502 C 0.0932 0.27052 0.46452 0.0
C1503 C 0.09148 0.273 0.5013 0.0
H1504 H 0.79337 0.08008 0.56332 0.0
H1505 H 0.72331 0.10332 0.57538 0.0
H1506 H 0.71747 0.10101 0.51132 0.0
H1507 H 0.73552 0.10113 0.45183 0.0
H1508 H 0.80625 0.07953 0.44088 0.0
H1509 H 0.80861 0.07194 0.50419 0.0
C1510 C 0.77651 0.08352 0.55197 0.0
C1511 C 0.75874 0.09168 0.57387 0.0
C1512 C 0.77361 0.08288 0.51512 0.0
C1513 C 0.73708 0.09657 0.55901 0.0
C1514 C 0.73389 0.09562 0.52231 0.0
C1515 C 0.75103 0.09373 0.46319 0.0
C1516 C 0.7707 0.09086 0.44186 0.0
C1517 C 0.75244 0.09003 0.49998 0.0
C1518 C 0.79092 0.08179 0.45684 0.0
C1519 C 0.79232 0.07762 0.4931 0.0
H1520 H 0.92149 0.74282 0.5701 0.0
H1521 H 0.93369 0.8155 0.5849 0.0
H1522 H 0.94042 0.82033 0.52177 0.0
H1523 H 0.93382 0.80558 0.46194 0.0
H1524 H 0.92056 0.73325 0.4459 0.0
H1525 H 0.92386 0.72634 0.50959 0.0
C1526 C 0.9267 0.75944 0.55959 0.0
C1527 C 0.92701 0.77882 0.58196 0.0
C1528 C 0.92993 0.7622 0.52288 0.0
C1529 C 0.93333 0.80038 0.5681 0.0
C1530 C 0.93701 0.80318 0.53194 0.0
C1531 C 0.93266 0.78817 0.47232 0.0
C1532 C 0.92686 0.76998 0.44945 0.0
C1533 C 0.93403 0.78449 0.50893 0.0
C1534 C 0.92525 0.74748 0.46304 0.0
C1535 C 0.92681 0.7436 0.49953 0.0
H1536 H 0.76934 0.59878 0.56488 0.0
H1537 H 0.69768 0.58012 0.57503 0.0
H1538 H 0.69529 0.57262 0.51177 0.0
H1539 H 0.71105 0.58042 0.45276 0.0
H1540 H 0.78234 0.59991 0.44146 0.0
H1541 H 0.78769 0.59755 0.5056 0.0
C1542 C 0.75359 0.59194 0.55342 0.0
C1543 C 0.73369 0.59002 0.57452 0.0
C1544 C 0.75217 0.58829 0.51658 0.0
C1545 C 0.71321 0.58166 0.5593 0.0
C1546 C 0.71177 0.57759 0.52302 0.0
C1547 C 0.728 0.58308 0.4643 0.0
C1548 C 0.74628 0.59025 0.44257 0.0
C1549 C 0.73075 0.58216 0.50119 0.0
C1550 C 0.76811 0.59401 0.45769 0.0
C1551 C 0.77107 0.59298 0.49444 0.0
H1552 H 0.42344 0.76267 0.45271 0.0
H1553 H 0.43759 0.69026 0.43927 0.0
H1554 H 0.44404 0.68602 0.50258 0.0
H1555 H 0.43599 0.70086 0.56202 0.0
H1556 H 0.42109 0.77296 0.57658 0.0
H1557 H 0.42505 0.7796 0.51294 0.0
C1558 C 0.42913 0.74629 0.46352 0.0
C1559 C 0.42996 0.72676 0.44148 0.0
C1560 C 0.43211 0.74384 0.50035 0.0
C1561 C 0.43689 0.7055 0.45579 0.0
C1562 C 0.44032 0.70302 0.49208 0.0
C1563 C 0.43467 0.71819 0.55136 0.0
C1564 C 0.42819 0.73638 0.57374 0.0
C1565 C 0.43655 0.72174 0.51475 0.0
C1566 C 0.42631 0.75875 0.5598 0.0
C1567 C 0.42828 0.76248 0.52333 0.0
H1568 H 0.2434 0.42023 0.44901 0.0
H1569 H 0.31538 0.43823 0.44147 0.0
H1570 H 0.31703 0.445 0.50501 0.0
H1571 H 0.30064 0.43617 0.56304 0.0
H1572 H 0.22936 0.41604 0.57182 0.0
H1573 H 0.22446 0.42027 0.50781 0.0
C1574 C 0.25907 0.42676 0.46116 0.0
C1575 C 0.27927 0.42872 0.44077 0.0
C1576 C 0.2601 0.42973 0.49811 0.0
C1577 C 0.29965 0.4367 0.45674 0.0
C1578 C 0.30065 0.44033 0.49313 0.0
C1579 C 0.28379 0.43375 0.55104 0.0
C1580 C 0.26542 0.42573 0.57188 0.0
C1581 C 0.28139 0.4355 0.51424 0.0
C1582 C 0.24367 0.42246 0.55624 0.0
C1583 C 0.24099 0.42455 0.51956 0.0
H1584 H 0.59835 0.23903 0.56621 0.0
H1585 H 0.57744 0.30925 0.58484 0.0
H1586 H 0.56841 0.3141 0.52223 0.0
H1587 H 0.57459 0.30093 0.46133 0.0
H1588 H 0.59574 0.23092 0.44177 0.0
H1589 H 0.59585 0.22305 0.50537 0.0
C1590 C 0.59082 0.25498 0.55667 0.0
C1591 C 0.58843 0.27376 0.57991 0.0
C1592 C 0.58599 0.25774 0.52037 0.0
C1593 C 0.57917 0.29455 0.56734 0.0
C1594 C 0.5742 0.29739 0.5315 0.0
C1595 C 0.57817 0.28367 0.471 0.0
C1596 C 0.58516 0.26653 0.44704 0.0
C1597 C 0.57866 0.27948 0.50757 0.0
C1598 C 0.59001 0.24429 0.45974 0.0
C1599 C 0.59043 0.23991 0.49617 0.0
H1600 H 0.77486 0.41384 0.9589 0.0
H1601 H 0.70438 0.43445 0.94157 0.0
H1602 H 0.69869 0.43913 1.00512 0.0
H1603 H 0.71159 0.42951 0.06539 0.0
H1604 H 0.78213 0.40941 0.08335 0.0
H1605 H 0.79031 0.41292 0.02008 0.0
C1606 C 0.75865 0.42041 0.96908 0.0
C1607 C 0.74006 0.42391 0.94578 0.0
C1608 C 0.75546 0.42281 1.00583 0.0
C1609 C 0.71894 0.43188 0.95912 0.0
C1610 C 0.71563 0.43434 0.99548 0.0
C1611 C 0.72898 0.42692 0.05554 0.0
C1612 C 0.74628 0.41933 0.07881 0.0
C1613 C 0.73342 0.42874 0.01912 0.0
C1614 C 0.76867 0.41563 0.06589 0.0
C1615 C 0.77325 0.41735 0.02964 0.0
H1616 H 0.57873 0.71509 0.0608 0.0
H1617 H 0.60012 0.7849 0.08178 0.0
H1618 H 0.59808 0.79392 0.01861 0.0
H1619 H 0.59879 0.77903 0.95703 0.0
H1620 H 0.57762 0.709 0.93702 0.0
H1621 H 0.57043 0.70305 0.99986 0.0
C1622 C 0.58191 0.73255 0.05162 0.0
C1623 C 0.58958 0.7493 0.07578 0.0
C1624 C 0.5811 0.73743 0.01525 0.0
C1625 C 0.5939 0.77181 0.06368 0.0
C1626 C 0.59305 0.77686 0.02747 0.0
C1627 C 0.59152 0.76288 0.96634 0.0
C1628 C 0.58876 0.74444 0.94253 0.0
C1629 C 0.58787 0.75945 1.00285 0.0
C1630 C 0.57983 0.72342 0.9549 0.0
C1631 C 0.5759 0.71995 0.9909 0.0
H1632 H 0.24054 0.59221 0.06376 0.0
H1633 H 0.31255 0.57526 0.07499 0.0
H1634 H 0.31559 0.5686 1.01155 0.0
H1635 H 0.30019 0.5769 0.95259 0.0
H1636 H 0.22884 0.59581 0.94017 0.0
H1637 H 0.22282 0.59193 1.00401 0.0
C1638 C 0.25653 0.58592 0.05243 0.0
C1639 C 0.27631 0.5842 0.07389 0.0
C1640 C 0.25836 0.58299 0.01553 0.0
C1641 C 0.29711 0.57658 0.05892 0.0
C1642 C 0.29891 0.57301 0.02258 0.0
C1643 C 0.28311 0.57916 0.96377 0.0
C1644 C 0.26498 0.58662 0.94193 0.0
C1645 C 0.28003 0.57753 1.00048 0.0
C1646 C 0.24295 0.58976 0.95654 0.0
C1647 C 0.23961 0.58785 0.99311 0.0
H1648 H 0.41492 0.24151 0.95045 0.0
H1649 H 0.42706 0.31407 0.93438 0.0
H1650 H 0.43517 0.31913 0.99709 0.0
H1651 H 0.42969 0.30464 0.05738 0.0
H1652 H 0.41695 0.23234 0.07464 0.0
H1653 H 0.41885 0.22521 1.01091 0.0
C1654 C 0.42042 0.25815 0.96053 0.0
C1655 C 0.42024 0.27745 0.93799 0.0
C1656 C 0.42456 0.26103 0.99702 0.0
C1657 C 0.42698 0.29903 0.95132 0.0
C1658 C 0.43148 0.30196 0.98725 0.0
C1659 C 0.42841 0.28717 0.04721 0.0
C1660 C 0.42312 0.26906 0.07049 0.0
C1661 C 0.42899 0.28336 1.01058 0.0
C1662 C 0.42129 0.24651 0.05718 0.0
C1663 C 0.42203 0.2425 0.02067 0.0
H1664 H 0.21439 0.03714 0.24947 0.0
H1665 H 0.28819 0.04154 0.23573 0.0
H1666 H 0.29288 1.00346 0.26213 0.0
H1667 H 0.27618 0.96858 0.28931 0.0
H1668 H 0.20246 0.96423 0.30381 0.0
H1669 H 0.19769 1.00231 0.27721 0.0
C1670 C 0.23149 0.02975 0.2522 0.0
C1671 C 0.25088 0.04231 0.24049 0.0
C1672 C 0.23414 0.00773 0.26771 0.0
C1673 C 0.27291 0.0324 0.24445 0.0
C1674 C 0.27565 0.01054 0.25959 0.0
C1675 C 0.25908 0.97596 0.28671 0.0
C1676 C 0.23974 0.96343 0.29863 0.0
C1677 C 0.25641 0.99801 0.27137 0.0
C1678 C 0.2177 0.97339 0.29498 0.0
C1679 C 0.21493 0.99522 0.27968 0.0
H1680 H 0.97338 0.21708 0.2401 0.0
H1681 H 0.96685 0.29106 0.2338 0.0
H1682 H 1.00464 0.2956 0.26228 0.0
H1683 H 0.03994 0.27833 0.2889 0.0
H1684 H 0.04503 0.20421 0.29653 0.0
H1685 H 0.00761 0.20004 0.26784 0.0
C1686 C 0.98019 0.23424 0.24486 0.0
C1687 C 0.96725 0.2537 0.23456 0.0
C1688 C 1.00179 0.23671 0.26165 0.0
C1689 C 0.97637 0.27576 0.24136 0.0
C1690 C 0.99803 0.27836 0.25766 0.0
C1691 C 0.03283 0.26128 0.28432 0.0
C1692 C 0.04547 0.24162 0.29492 0.0
C1693 C 0.01096 0.25894 0.26793 0.0
C1694 C 0.03583 0.21968 0.28883 0.0
C1695 C 0.01437 0.21724 0.27231 0.0
H1696 H 0.79728 0.04277 0.28369 0.0
H1697 H 0.72311 0.04607 0.2922 0.0
H1698 H 0.71976 0.00785 0.26546 0.0
H1699 H 0.73789 0.97327 0.2393 0.0
H1700 H 0.81207 0.97044 0.23008 0.0
H1701 H 0.81533 0.00846 0.2572 0.0
C1702 C 0.78038 0.03512 0.27979 0.0
C1703 C 0.76049 0.04735 0.29007 0.0
C1704 C 0.77854 0.01312 0.2641 0.0
C1705 C 0.73874 0.03713 0.28458 0.0
C1706 C 0.73679 0.01522 0.26925 0.0
C1707 C 0.75476 0.98098 0.24319 0.0
C1708 C 0.77469 0.9689 0.23259 0.0
C1709 C 0.75657 1.00303 0.25882 0.0
C1710 C 0.79641 0.97925 0.23787 0.0
C1711 C 0.79832 1.00105 0.25347 0.0
H1712 H 0.03837 0.73428 0.23664 0.0
H1713 H 0.044 0.80847 0.23113 0.0
H1714 H 0.00688 0.81249 0.26055 0.0
H1715 H 0.97282 0.7953 0.28836 0.0
H1716 H 0.96626 0.72127 0.29399 0.0
H1717 H 1.00355 0.71689 0.26423 0.0
C1718 C 0.03144 0.75131 0.24179 0.0
C1719 C 0.04411 0.77103 0.23158 0.0
C1720 C 0.00986 0.75358 0.25891 0.0
C1721 C 0.03476 0.79296 0.23857 0.0
C1722 C 0.01347 0.79532 0.2555 0.0
C1723 C 0.97951 0.77817 0.28317 0.0
C1724 C 0.96669 0.75865 0.29357 0.0
C1725 C 1.0009 0.77579 0.26589 0.0
C1726 C 0.9757 0.73662 0.28637 0.0
C1727 C 0.99706 0.7341 0.2693 0.0
H1728 H 0.73931 0.97225 0.78457 0.0
H1729 H 0.81365 0.96949 0.79061 0.0
H1730 H 0.81653 1.00594 0.75907 0.0
H1731 H 0.7982 0.03932 0.7304 0.0
H1732 H 0.72394 0.04324 0.72593 0.0
H1733 H 0.72086 1.00595 0.75569 0.0
C1734 C 0.75611 0.97963 0.77896 0.0
C1735 C 0.77619 0.96801 0.79014 0.0
C1736 C 0.75773 1.00094 0.76087 0.0
C1737 C 0.79783 0.97796 0.78258 0.0
C1738 C 0.79956 0.99887 0.76439 0.0
C1739 C 0.78135 0.03193 0.73567 0.0
C1740 C 0.76136 0.04411 0.72575 0.0
C1741 C 0.77966 0.01059 0.75345 0.0
C1742 C 0.73965 0.03431 0.73321 0.0
C1743 C 0.73785 0.01294 0.75033 0.0
H1744 H 0.97814 0.73436 0.73612 0.0
H1745 H 0.97034 0.80842 0.73391 0.0
H1746 H 0.00787 0.81313 0.76181 0.0
H1747 H 0.04301 0.79662 0.78737 0.0
H1748 H 0.05196 0.72279 0.78935 0.0
H1749 H 0.01417 0.71767 0.76126 0.0
C1750 C 0.98469 0.75151 0.74168 0.0
C1751 C 0.97125 0.77098 0.73281 0.0
C1752 C 0.00659 0.7542 0.75785 0.0
C1753 C 0.98014 0.79307 0.74028 0.0
C1754 C 1.00168 0.79583 0.75635 0.0
C1755 C 0.03673 0.77937 0.78173 0.0
C1756 C 0.05038 0.76013 0.79063 0.0
C1757 C 0.01505 0.77656 0.76535 0.0
C1758 C 0.04189 0.73795 0.78286 0.0
C1759 C 0.02023 0.735 0.76675 0.0
H1760 H 0.22059 0.97092 0.74294 0.0
H1761 H 0.29481 0.96923 0.73556 0.0
H1762 H 0.29721 0.00684 0.76485 0.0
H1763 H 0.27799 0.04048 0.79329 0.0
H1764 H 0.20365 0.04071 0.80145 0.0
H1765 H 0.20166 1.00372 0.77148 0.0
C1766 C 0.23731 0.97878 0.74758 0.0
C1767 C 0.25746 0.9672 0.73686 0.0
C1768 C 0.23858 1.0003 0.76485 0.0
C1769 C 0.27898 0.97769 0.74345 0.0
C1770 C 0.28037 0.99925 0.76026 0.0
C1771 C 0.26139 0.03241 0.78853 0.0
C1772 C 0.24103 0.04355 0.79979 0.0
C1773 C 0.26027 0.01075 0.77123 0.0
C1774 C 0.21967 0.03269 0.79332 0.0
C1775 C 0.21845 0.01145 0.77604 0.0
H1776 H 0.97 0.26963 0.78388 0.0
H1777 H 0.96924 0.19681 0.80726 0.0
H1778 H 0.00715 0.19254 0.779 0.0
H1779 H 0.04048 0.20974 0.74681 0.0
H1780 H 0.04041 0.28286 0.72504 0.0
H1781 H 1.00286 0.28667 0.75327 0.0
C1782 C 0.97807 0.25276 0.78295 0.0
C1783 C 0.96668 0.23355 0.7977 0.0
C1784 C 0.99976 0.25048 0.7667 0.0
C1785 C 0.97758 0.2119 0.79624 0.0
C1786 C 0.99924 0.20946 0.77995 0.0
C1787 C 0.03219 0.22647 0.74815 0.0
C1788 C 0.04332 0.24598 0.7336 0.0
C1789 C 0.01048 0.22864 0.76489 0.0
C1790 C 0.03236 0.26755 0.7359 0.0
C1791 C 0.01083 0.26977 0.7521 0.0
H1792 H 0.71044 0.54872 0.73911 0.0
H1793 H 0.78448 0.55292 0.72839 0.0
H1794 H 0.78869 0.51615 0.75917 0.0
H1795 H 0.77151 0.4824 0.7884 0.0
H1796 H 0.69756 0.47793 0.79974 0.0
H1797 H 0.69321 0.51515 0.76985 0.0
C1798 C 0.7275 0.54158 0.74346 0.0
C1799 C 0.74711 0.55363 0.73121 0.0
C1800 C 0.72984 0.52036 0.7615 0.0
C1801 C 0.76907 0.54411 0.73738 0.0
C1802 C 0.77151 0.52303 0.75506 0.0
C1803 C 0.75441 0.4896 0.78457 0.0
C1804 C 0.73488 0.47728 0.79641 0.0
C1805 C 0.75204 0.51098 0.76718 0.0
C1806 C 0.71291 0.48698 0.79108 0.0
C1807 C 0.71041 0.50827 0.77383 0.0
H1808 H 0.54289 0.72004 0.78323 0.0
H1809 H 0.54354 0.79423 0.79183 0.0
H1810 H 0.5057 0.79618 0.76318 0.0
H1811 H 0.47217 0.77669 0.73518 0.0
H1812 H 0.47241 0.70243 0.72639 0.0
H1813 H 0.50988 0.70075 0.75531 0.0
C1814 C 0.53476 0.73666 0.77896 0.0
C1815 C 0.54612 0.75694 0.78982 0.0
C1816 C 0.51303 0.73768 0.76222 0.0
C1817 C 0.53526 0.7783 0.78382 0.0
C1818 C 0.51357 0.77945 0.76738 0.0
C1819 C 0.48044 0.76017 0.73956 0.0
C1820 C 0.46933 0.73974 0.7285 0.0
C1821 C 0.50226 0.75925 0.75635 0.0
C1822 C 0.48042 0.71848 0.73449 0.0
C1823 C 0.50193 0.71745 0.75113 0.0
H1824 H 0.29158 0.46879 0.73553 0.0
H1825 H 0.21764 0.46483 0.72403 0.0
H1826 H 0.21363 0.50256 0.75283 0.0
H1827 H 0.2315 0.53717 0.78099 0.0
H1828 H 0.30561 0.53942 0.79304 0.0
H1829 H 0.30906 0.50206 0.76454 0.0
C1830 C 0.27454 0.47613 0.73923 0.0
C1831 C 0.25495 0.46398 0.7274 0.0
C1832 C 0.27237 0.49765 0.75606 0.0
C1833 C 0.23303 0.47377 0.73281 0.0
C1834 C 0.23073 0.49539 0.74928 0.0
C1835 C 0.24837 0.52943 0.77745 0.0
C1836 C 0.26825 0.54127 0.78922 0.0
C1837 C 0.25032 0.50757 0.761 0.0
C1838 C 0.28997 0.53086 0.78441 0.0
C1839 C 0.29201 0.50941 0.76799 0.0
H1840 H 0.46424 0.30106 0.77649 0.0
H1841 H 0.46453 0.22718 0.79105 0.0
H1842 H 0.50247 0.22477 0.76363 0.0
H1843 H 0.53577 0.24335 0.73605 0.0
H1844 H 0.53619 0.31708 0.72053 0.0
H1845 H 0.49781 0.31978 0.74746 0.0
C1846 C 0.47263 0.28445 0.7737 0.0
C1847 C 0.46147 0.26433 0.786 0.0
C1848 C 0.49457 0.28312 0.75758 0.0
C1849 C 0.47261 0.24295 0.78193 0.0
C1850 C 0.49436 0.24153 0.76619 0.0
C1851 C 0.52749 0.26005 0.73838 0.0
C1852 C 0.53893 0.27999 0.72624 0.0
C1853 C 0.50551 0.26147 0.75396 0.0
C1854 C 0.52781 0.30144 0.72953 0.0
C1855 C 0.50587 0.30299 0.74505 0.0
H1856 H 0.29441 0.54154 0.23488 0.0
H1857 H 0.22044 0.54483 0.22343 0.0
H1858 H 0.21667 0.50706 0.25204 0.0
H1859 H 0.23467 0.47264 0.28043 0.0
H1860 H 0.30885 0.47065 0.29158 0.0
H1861 H 0.3121 0.50808 0.26326 0.0
C1862 C 0.27742 0.53403 0.23856 0.0
C1863 C 0.25776 0.54608 0.22687 0.0
C1864 C 0.27538 0.51238 0.25516 0.0
C1865 C 0.23591 0.536 0.2321 0.0
C1866 C 0.23374 0.51435 0.2485 0.0
C1867 C 0.25151 0.48044 0.27671 0.0
C1868 C 0.27145 0.46864 0.28825 0.0
C1869 C 0.25337 0.50231 0.26019 0.0
C1870 C 0.29313 0.47913 0.2831 0.0
C1871 C 0.29508 0.50064 0.2668 0.0
H1872 H 0.53592 0.29308 0.28506 0.0
H1873 H 0.54348 0.21922 0.29129 0.0
H1874 H 0.50631 0.21419 0.26091 0.0
H1875 H 0.47126 0.23119 0.23219 0.0
H1876 H 0.46572 0.3054 0.2258 0.0
H1877 H 0.50225 0.30971 0.25631 0.0
C1878 C 0.52948 0.27582 0.27994 0.0
C1879 C 0.54252 0.25658 0.29069 0.0
C1880 C 0.50831 0.27309 0.26218 0.0
C1881 C 0.53385 0.23438 0.28342 0.0
C1882 C 0.51255 0.2315 0.266 0.0
C1883 C 0.4781 0.24826 0.23744 0.0
C1884 C 0.46553 0.26791 0.22653 0.0
C1885 C 0.49956 0.25077 0.25515 0.0
C1886 C 0.4748 0.2899 0.23364 0.0
C1887 C 0.4958 0.29246 0.25124 0.0
H1888 H 0.71553 0.53985 0.28182 0.0
H1889 H 0.78955 0.54369 0.29273 0.0
H1890 H 0.79344 0.50555 0.26584 0.0
H1891 H 0.7758 0.47081 0.23894 0.0
H1892 H 0.70177 0.46768 0.22699 0.0
H1893 H 0.69801 0.50557 0.25427 0.0
C1894 C 0.73252 0.53233 0.27841 0.0
C1895 C 0.75219 0.54469 0.28945 0.0
C1896 C 0.73467 0.51041 0.26255 0.0
C1897 C 0.77407 0.53465 0.28454 0.0
C1898 C 0.77633 0.51278 0.26912 0.0
C1899 C 0.75886 0.47844 0.24225 0.0
C1900 C 0.73912 0.46627 0.23084 0.0
C1901 C 0.75676 0.50047 0.25794 0.0
C1902 C 0.71731 0.47654 0.23538 0.0
C1903 C 0.7151 0.49827 0.25109 0.0
H1904 H 0.47459 0.77498 0.28776 0.0
H1905 H 0.4689 0.70073 0.2844 0.0
H1906 H 0.50628 0.69809 0.25567 0.0
H1907 H 0.54085 0.71636 0.23141 0.0
H1908 H 0.54803 0.79035 0.23503 0.0
H1909 H 0.51012 0.79353 0.26347 0.0
C1910 C 0.48155 0.75825 0.28073 0.0
C1911 C 0.46873 0.73809 0.28839 0.0
C1912 C 0.50344 0.75675 0.26414 0.0
C1913 C 0.47819 0.71657 0.27905 0.0
C1914 C 0.49967 0.715 0.26249 0.0
C1915 C 0.53417 0.73324 0.23831 0.0
C1916 C 0.54738 0.75308 0.2309 0.0
C1917 C 0.51246 0.73491 0.2549 0.0
C1918 C 0.53833 0.77475 0.24033 0.0
C1919 C 0.5166 0.77658 0.25664 0.0
H1920 H 0.17939 0.12977 0.24859 0.0
H1921 H 0.2394 0.1736 0.24795 0.0
H1922 H 0.21646 0.20571 0.27119 0.0
H1923 H 0.17853 0.2218 0.28903 0.0
H1924 H 0.12111 0.17556 0.30302 0.0
H1925 H 0.14332 0.14402 0.2764 0.0
C1926 C 0.18738 0.14634 0.2539 0.0
C1927 C 0.21069 0.14984 0.24513 0.0
C1928 C 0.17442 0.16425 0.26934 0.0
C1929 C 0.22126 0.17089 0.25358 0.0
C1930 C 0.20816 0.1892 0.26684 0.0
C1931 C 0.17115 0.20467 0.28697 0.0
C1932 C 0.14843 0.20081 0.29844 0.0
C1933 C 0.18461 0.18621 0.27428 0.0
C1934 C 0.13873 0.17875 0.29475 0.0
C1935 C 0.15142 0.16074 0.27966 0.0
H1936 H 0.83874 0.22045 0.2322 0.0
H1937 H 0.89575 0.17291 0.23324 0.0
H1938 H 0.87153 0.14368 0.26216 0.0
H1939 H 0.83372 0.13181 0.28716 0.0
H1940 H 0.77509 0.17666 0.27465 0.0
H1941 H 0.79989 0.20657 0.24897 0.0
C1942 C 0.84568 0.20354 0.23834 0.0
C1943 C 0.86875 0.19856 0.23014 0.0
C1944 C 0.83127 0.18639 0.25269 0.0
C1945 C 0.87784 0.17685 0.23879 0.0
C1946 C 0.86401 0.16018 0.25524 0.0
C1947 C 0.82648 0.14814 0.27864 0.0
C1948 C 0.80291 0.15263 0.28411 0.0
C1949 C 0.84065 0.16474 0.26223 0.0
C1950 C 0.79336 0.17327 0.27154 0.0
C1951 C 0.80753 0.19032 0.25697 0.0
H1952 H 0.88419 0.83516 0.28598 0.0
H1953 H 0.83804 0.77725 0.2952 0.0
H1954 H 0.80648 0.80013 0.27 0.0
H1955 H 0.79177 0.8373 0.24705 0.0
H1956 H 0.8398 0.89241 0.22673 0.0
H1957 H 0.87078 0.87048 0.2554 0.0
C1958 C 0.86717 0.82769 0.2824 0.0
C1959 C 0.8629 0.80507 0.29386 0.0
C1960 C 0.8495 0.84057 0.26625 0.0
C1961 C 0.8413 0.79496 0.2875 0.0
C1962 C 0.82332 0.80802 0.27316 0.0
C1963 C 0.8091 0.84429 0.24862 0.0
C1964 C 0.81371 0.86621 0.23465 0.0
C1965 C 0.82712 0.83096 0.2629 0.0
C1966 C 0.83607 0.87539 0.23712 0.0
C1967 C 0.85375 0.86286 0.25337 0.0
H1968 H 0.2241 0.82965 0.28684 0.0
H1969 H 0.17849 0.88749 0.30083 0.0
H1970 H 0.14732 0.86645 0.27101 0.0
H1971 H 0.13318 0.83129 0.24064 0.0
H1972 H 0.17573 0.77048 0.24016 0.0
H1973 H 0.20776 0.79237 0.26621 0.0
C1974 C 0.20715 0.83734 0.28414 0.0
C1975 C 0.20336 0.85984 0.29652 0.0
C1976 C 0.18882 0.8245 0.26955 0.0
C1977 C 0.18159 0.87001 0.2919 0.0
C1978 C 0.1638 0.85799 0.27495 0.0
C1979 C 0.14948 0.82291 0.2465 0.0
C1980 C 0.15274 0.79973 0.23695 0.0
C1981 C 0.16721 0.8352 0.26367 0.0
C1982 C 0.17332 0.78859 0.24624 0.0
C1983 C 0.19154 0.80107 0.26119 0.0
H1984 H 0.88563 0.83258 0.74014 0.0
H1985 H 0.84041 0.77398 0.75 0.0
H1986 H 0.81071 0.79841 0.77705 0.0
H1987 H 0.79704 0.83717 0.795 0.0
H1988 H 0.84525 0.89371 0.79673 0.0
H1989 H 0.8743 0.86977 0.76711 0.0
C1990 C 0.86927 0.82526 0.74846 0.0
C1991 C 0.86455 0.8019 0.7418 0.0
C1992 C 0.85288 0.83913 0.76564 0.0
C1993 C 0.84392 0.79215 0.75403 0.0
C1994 C 0.82701 0.80609 0.76941 0.0
C1995 C 0.81409 0.844 0.78946 0.0
C1996 C 0.81931 0.8669 0.79844 0.0
C1997 C 0.83115 0.82971 0.77475 0.0
C1998 C 0.84116 0.87593 0.79048 0.0
C1999 C 0.85771 0.86227 0.77364 0.0
H2000 H 0.18304 0.88262 0.73744 0.0
H2001 H 0.24223 0.83811 0.74584 0.0
H2002 H 0.21803 0.80731 0.77031 0.0
H2003 H 0.17962 0.79273 0.7881 0.0
H2004 H 0.12223 0.83976 0.79145 0.0
H2005 H 0.14565 0.86972 0.7628 0.0
C2006 C 0.19051 0.86614 0.74473 0.0
C2007 C 0.21408 0.86206 0.73845 0.0
C2008 C 0.17671 0.84898 0.76055 0.0
C2009 C 0.22395 0.84121 0.74953 0.0
C2010 C 0.21013 0.82364 0.76343 0.0
C2011 C 0.17241 0.80965 0.78282 0.0
C2012 C 0.14944 0.81426 0.7922 0.0
C2013 C 0.18642 0.82722 0.76868 0.0
C2014 C 0.14003 0.83605 0.78484 0.0
C2015 C 0.15342 0.85314 0.76857 0.0
H2016 H 0.12835 0.17588 0.74082 0.0
H2017 H 0.17278 0.23526 0.74808 0.0
H2018 H 0.2028 0.21181 0.77636 0.0
H2019 H 0.21691 0.17377 0.79675 0.0
H2020 H 0.16954 0.1166 0.80108 0.0
H2021 H 0.14026 0.13937 0.76971 0.0
C2022 C 0.14463 0.18357 0.74873 0.0
C2023 C 0.14901 0.20687 0.74101 0.0
C2024 C 0.16123 0.17028 0.76671 0.0
C2025 C 0.16952 0.21711 0.75286 0.0
C2026 C 0.18662 0.20373 0.76896 0.0
C2027 C 0.2 0.16653 0.79131 0.0
C2028 C 0.1951 0.1438 0.80162 0.0
C2029 C 0.18281 0.1802 0.77552 0.0
C2030 C 0.17341 0.13427 0.79384 0.0
C2031 C 0.15673 0.14726 0.77597 0.0
H2032 H 0.87229 0.20051 0.74764 0.0
H2033 H 0.85444 0.18236 0.85252 0.0
H2034 H 0.82177 0.15862 0.83173 0.0
H2035 H 0.79801 0.14479 0.77969 0.0
H2036 H 0.83627 0.13889 0.68398 0.0
H2037 H 0.86322 0.16926 0.70346 0.0
C2038 C 0.86097 0.19178 0.7661 0.0
C2039 C 0.86149 0.19751 0.80239 0.0
C2040 C 0.84633 0.17405 0.7538 0.0
C2041 C 0.84963 0.18286 0.82536 0.0
C2042 C 0.83221 0.16815 0.81301 0.0
C2043 C 0.81197 0.15049 0.76274 0.0
C2044 C 0.8126 0.14363 0.72698 0.0
C2045 C 0.82968 0.16452 0.77667 0.0
C2046 C 0.83287 0.14807 0.70808 0.0
C2047 C 0.84873 0.16457 0.72002 0.0
H2048 H 0.72118 0.68441 0.73221 0.0
H2049 H 0.67397 0.62708 0.72854 0.0
H2050 H 0.64436 0.65016 0.75838 0.0
H2051 H 0.63188 0.68709 0.78514 0.0
H2052 H 0.67619 0.74651 0.7772 0.0
H2053 H 0.70675 0.72268 0.7512 0.0
C2054 C 0.70429 0.67716 0.73766 0.0
C2055 C 0.69954 0.65427 0.72798 0.0
C2056 C 0.68686 0.69102 0.75245 0.0
C2057 C 0.6778 0.6448 0.73552 0.0
C2058 C 0.66089 0.658 0.75242 0.0
C2059 C 0.64824 0.69472 0.77751 0.0
C2060 C 0.65237 0.71818 0.78434 0.0
C2061 C 0.66518 0.68118 0.76085 0.0
C2062 C 0.67306 0.72828 0.77298 0.0
C2063 C 0.69048 0.71467 0.75823 0.0
H2064 H 0.29112 0.67132 0.77597 0.0
H2065 H 0.33763 0.61475 0.7946 0.0
H2066 H 0.36895 0.63593 0.76535 0.0
H2067 H 0.38309 0.67107 0.73487 0.0
H2068 H 0.33876 0.73046 0.72824 0.0
H2069 H 0.30674 0.70824 0.75348 0.0
C2070 C 0.30822 0.66386 0.77398 0.0
C2071 C 0.31231 0.64177 0.78771 0.0
C2072 C 0.32647 0.67674 0.75942 0.0
C2073 C 0.33433 0.63194 0.78456 0.0
C2074 C 0.35218 0.64403 0.76792 0.0
C2075 C 0.36635 0.67899 0.73897 0.0
C2076 C 0.36269 0.70187 0.72816 0.0
C2077 C 0.34848 0.6665 0.75535 0.0
C2078 C 0.34151 0.71255 0.73529 0.0
C2079 C 0.32328 0.69988 0.7497 0.0
H2080 H 0.37508 0.33238 0.78345 0.0
H2081 H 0.33125 0.27279 0.77249 0.0
H2082 H 0.30077 0.29678 0.74648 0.0
H2083 H 0.28633 0.33515 0.72831 0.0
H2084 H 0.333 0.39298 0.72819 0.0
H2085 H 0.36254 0.36965 0.75795 0.0
C2086 C 0.35884 0.32475 0.77517 0.0
C2087 C 0.35481 0.30118 0.78104 0.0
C2088 C 0.34195 0.33843 0.75866 0.0
C2089 C 0.33429 0.29109 0.76894 0.0
C2090 C 0.31691 0.30479 0.75422 0.0
C2091 C 0.30309 0.34247 0.73456 0.0
C2092 C 0.30777 0.36551 0.7258 0.0
C2093 C 0.32044 0.32855 0.74937 0.0
C2094 C 0.3293 0.3751 0.73435 0.0
C2095 C 0.34614 0.36178 0.75122 0.0
H2096 H 0.65397 0.33587 0.69361 0.0
H2097 H 0.62851 0.30722 0.79011 0.0
H2098 H 0.64868 0.33722 0.82279 0.0
H2099 H 0.67941 0.36726 0.82499 0.0
H2100 H 0.71697 0.38292 0.73053 0.0
H2101 H 0.68743 0.36316 0.69596 0.0
C2102 C 0.65519 0.33407 0.72156 0.0
C2103 C 0.64192 0.3172 0.73858 0.0
C2104 C 0.6699 0.34871 0.74101 0.0
C2105 C 0.63976 0.31879 0.77566 0.0
C2106 C 0.6516 0.33572 0.79477 0.0
C2107 C 0.6828 0.36409 0.79757 0.0
C2108 C 0.70204 0.37439 0.78155 0.0
C2109 C 0.66803 0.3496 0.77805 0.0
C2110 C 0.70332 0.37391 0.74436 0.0
C2111 C 0.68666 0.36226 0.72435 0.0
H2112 H 0.38085 0.33476 0.22881 0.0
H2113 H 0.33544 0.27597 0.23036 0.0
H2114 H 0.30471 0.29949 0.25647 0.0
H2115 H 0.29066 0.3372 0.2782 0.0
H2116 H 0.33853 0.39374 0.28732 0.0
H2117 H 0.36829 0.37116 0.25695 0.0
C2118 C 0.36417 0.32725 0.23489 0.0
C2119 C 0.35982 0.30409 0.22634 0.0
C2120 C 0.34707 0.34057 0.25153 0.0
C2121 C 0.33871 0.29403 0.23582 0.0
C2122 C 0.32121 0.30745 0.25067 0.0
C2123 C 0.3077 0.3444 0.2737 0.0
C2124 C 0.31265 0.36686 0.28516 0.0
C2125 C 0.32511 0.33082 0.25835 0.0
C2126 C 0.33458 0.3763 0.27894 0.0
C2127 C 0.35155 0.36341 0.26172 0.0
H2128 H 0.66997 0.29106 0.28718 0.0
H2129 H 0.61185 0.33724 0.28672 0.0
H2130 H 0.63484 0.36658 0.25582 0.0
H2131 H 0.67221 0.37941 0.23048 0.0
H2132 H 0.73209 0.33627 0.24314 0.0
H2133 H 0.70815 0.30561 0.26861 0.0
C2134 C 0.66249 0.30766 0.2805 0.0
C2135 C 0.6395 0.31229 0.28958 0.0
C2136 C 0.67624 0.32493 0.26506 0.0
C2137 C 0.62971 0.3336 0.28043 0.0
C2138 C 0.64284 0.35032 0.26284 0.0
C2139 C 0.67987 0.36322 0.23878 0.0
C2140 C 0.70357 0.35944 0.23349 0.0
C2141 C 0.66622 0.34627 0.25532 0.0
C2142 C 0.71369 0.33906 0.24596 0.0
C2143 C 0.70003 0.32159 0.26047 0.0
H2144 H 0.67735 0.63056 0.2844 0.0
H2145 H 0.73763 0.67386 0.27849 0.0
H2146 H 0.71453 0.70513 0.25298 0.0
H2147 H 0.67667 0.72061 0.23419 0.0
H2148 H 0.61826 0.67485 0.22857 0.0
H2149 H 0.64065 0.64426 0.25757 0.0
C2150 C 0.68531 0.64688 0.27743 0.0
C2151 C 0.70884 0.65049 0.28476 0.0
C2152 C 0.67214 0.66432 0.26104 0.0
C2153 C 0.71935 0.67112 0.27403 0.0
C2154 C 0.70616 0.68896 0.25951 0.0
C2155 C 0.66903 0.70381 0.23895 0.0
C2156 C 0.64605 0.69976 0.22889 0.0
C2157 C 0.68246 0.68589 0.25336 0.0
C2158 C 0.63608 0.67814 0.23568 0.0
C2159 C 0.64888 0.66068 0.25217 0.0
H2160 H 0.33185 0.62955 0.23238 0.0
H2161 H 0.27381 0.67585 0.2336 0.0
H2162 H 0.29799 0.70636 0.25919 0.0
H2163 H 0.33619 0.72008 0.28003 0.0
H2164 H 0.39212 0.67155 0.28863 0.0
H2165 H 0.36868 0.64182 0.25964 0.0
C2166 C 0.32459 0.64633 0.23846 0.0
C2167 C 0.30145 0.65094 0.22998 0.0
C2168 C 0.33833 0.66337 0.25456 0.0
C2169 C 0.2918 0.67227 0.23921 0.0
C2170 C 0.30562 0.68968 0.25368 0.0
C2171 C 0.34308 0.70294 0.27566 0.0
C2172 C 0.36567 0.69782 0.28656 0.0
C2173 C 0.32901 0.68554 0.26108 0.0
C2174 C 0.37465 0.67569 0.28059 0.0
C2175 C 0.36124 0.6587 0.26422 0.0
loop_
_geom_bond_atom_site_label_1
_geom_bond_atom_site_label_2
_geom_bond_distance
_geom_bond_site_symmetry_2
_ccdc_geom_bond_type
Mn0 O5 2.095 . S
Mn0 O15 2.162 . S
Mn0 O16 2.297 . S
Mn0 O24 2.385 . S
Mn0 O25 2.209 . S
Mn0 O26 2.094 . S
Mn1 O6 2.121 . S
Mn1 N8 2.257 . S
Mn1 N17 2.282 . S
Mn1 O25 2.215 . S
Mn1 O27 2.117 . S
C2 O24 1.234 . S
C2 O25 1.283 . S
C3 O15 1.281 . S
C3 O16 1.236 . S
C4 O26 1.240 . S
C4 O27 1.264 . S
O5 Mn0 2.095 . S
O5 C14 1.250 . S
O6 Mn1 2.121 . S
O6 C14 1.258 . S
C7 N8 1.326 . S
C7 C11 1.460 . S
C7 H13 0.929 . S
N8 Mn1 2.257 . S
N8 C7 1.326 . S
N8 C12 1.362 . S
C9 C10 1.258 . S
C9 C12 1.431 . S
C9 C29 1.449 . S
C10 C9 1.258 . S
C10 C11 1.477 . S
C10 H30 0.931 . S
C11 C7 1.460 . S
C11 C10 1.477 . S
C11 H31 0.930 . S
C12 N8 1.362 . S
C12 C9 1.431 . S
C12 C22 1.476 . S
H13 C7 0.929 . S
C14 O5 1.250 . S
C14 O6 1.258 . S
O15 Mn0 2.162 . S
O15 C3 1.281 . S
O16 Mn0 2.297 . S
O16 C3 1.236 . S
N17 Mn1 2.282 . S
N17 C18 1.328 . S
N17 C22 1.318 . S
C18 N17 1.328 . S
C18 C19 1.457 . S
C18 H23 0.929 . S
C19 C18 1.457 . S
C19 C20 1.291 . S
C19 H32 0.931 . S
C20 C19 1.291 . S
C20 C21 1.373 . S
C20 H33 0.929 . S
C21 C20 1.373 . S
C21 C22 1.396 . S
C21 C28 1.403 . S
C22 C12 1.476 . S
C22 N17 1.318 . S
C22 C21 1.396 . S
H23 C18 0.929 . S
O24 Mn0 2.385 . S
O24 C2 1.234 . S
O25 Mn0 2.209 . S
O25 Mn1 2.215 . S
O25 C2 1.283 . S
O26 Mn0 2.094 . S
O26 C4 1.240 . S
O27 Mn1 2.117 . S
O27 C4 1.264 . S
C28 C21 1.403 . S
C28 C29 1.399 . S
C28 H34 0.929 . S
C29 C9 1.449 . S
C29 C28 1.399 . S
C29 H35 0.930 . S
H30 C10 0.931 . S
H31 C11 0.930 . S
H32 C19 0.931 . S
H33 C20 0.929 . S
H34 C28 0.929 . S
H35 C29 0.930 . S
Mn36 O41 2.095 . S
Mn36 O51 2.162 . S
Mn36 O52 2.297 . S
Mn36 O60 2.385 . S
Mn36 O61 2.209 . S
Mn36 O62 2.094 . S
Mn37 O42 2.121 . S
Mn37 N44 2.257 . S
Mn37 N53 2.282 . S
Mn37 O61 2.215 . S
Mn37 O63 2.117 . S
C38 O60 1.234 . S
C38 O61 1.283 . S
C39 O51 1.281 . S
C39 O52 1.236 . S
C40 O62 1.240 . S
C40 O63 1.264 . S
O41 Mn36 2.095 . S
O41 C50 1.250 . S
O42 Mn37 2.121 . S
O42 C50 1.258 . S
C43 N44 1.326 . S
C43 C47 1.460 . S
C43 H49 0.929 . S
N44 Mn37 2.257 . S
N44 C43 1.326 . S
N44 C48 1.362 . S
C45 C46 1.258 . S
C45 C48 1.431 . S
C45 C65 1.449 . S
C46 C45 1.258 . S
C46 C47 1.477 . S
C46 H66 0.931 . S
C47 C43 1.460 . S
C47 C46 1.477 . S
C47 H67 0.930 . S
C48 N44 1.362 . S
C48 C45 1.431 . S
C48 C58 1.476 . S
H49 C43 0.929 . S
C50 O41 1.250 . S
C50 O42 1.258 . S
O51 Mn36 2.162 . S
O51 C39 1.281 . S
O52 Mn36 2.297 . S
O52 C39 1.236 . S
N53 Mn37 2.282 . S
N53 C54 1.328 . S
N53 C58 1.318 . S
C54 N53 1.328 . S
C54 C55 1.457 . S
C54 H59 0.929 . S
C55 C54 1.457 . S
C55 C56 1.291 . S
C55 H68 0.931 . S
C56 C55 1.291 . S
C56 C57 1.373 . S
C56 H69 0.929 . S
C57 C56 1.373 . S
C57 C58 1.396 . S
C57 C64 1.403 . S
C58 C48 1.476 . S
C58 N53 1.318 . S
C58 C57 1.396 . S
H59 C54 0.929 . S
O60 Mn36 2.385 . S
O60 C38 1.234 . S
O61 Mn36 2.209 . S
O61 Mn37 2.215 . S
O61 C38 1.283 . S
O62 Mn36 2.094 . S
O62 C40 1.240 . S
O63 Mn37 2.117 . S
O63 C40 1.264 . S
C64 C57 1.403 . S
C64 C65 1.399 . S
C64 H70 0.929 . S
C65 C45 1.449 . S
C65 C64 1.399 . S
C65 H71 0.930 . S
H66 C46 0.931 . S
H67 C47 0.930 . S
H68 C55 0.931 . S
H69 C56 0.929 . S
H70 C64 0.929 . S
H71 C65 0.930 . S
Mn72 O77 2.095 . S
Mn72 O87 2.162 . S
Mn72 O88 2.297 . S
Mn72 O96 2.385 . S
Mn72 O97 2.209 . S
Mn72 O98 2.094 . S
Mn73 O78 2.121 . S
Mn73 N80 2.257 . S
Mn73 N89 2.282 . S
Mn73 O97 2.215 . S
Mn73 O99 2.117 . S
C74 O96 1.234 . S
C74 O97 1.283 . S
C75 O87 1.281 . S
C75 O88 1.236 . S
C76 O98 1.240 . S
C76 O99 1.264 . S
O77 Mn72 2.095 . S
O77 C86 1.250 . S
O78 Mn73 2.121 . S
O78 C86 1.258 . S
C79 N80 1.326 . S
C79 C83 1.460 . S
C79 H85 0.929 . S
N80 Mn73 2.257 . S
N80 C79 1.326 . S
N80 C84 1.362 . S
C81 C82 1.258 . S
C81 C84 1.431 . S
C81 C101 1.449 . S
C82 C81 1.258 . S
C82 C83 1.477 . S
C82 H102 0.931 . S
C83 C79 1.460 . S
C83 C82 1.477 . S
C83 H103 0.930 . S
C84 N80 1.362 . S
C84 C81 1.431 . S
C84 C94 1.476 . S
H85 C79 0.929 . S
C86 O77 1.250 . S
C86 O78 1.258 . S
O87 Mn72 2.162 . S
O87 C75 1.281 . S
O88 Mn72 2.297 . S
O88 C75 1.236 . S
N89 Mn73 2.282 . S
N89 C90 1.328 . S
N89 C94 1.318 . S
C90 N89 1.328 . S
C90 C91 1.457 . S
C90 H95 0.929 . S
C91 C90 1.457 . S
C91 C92 1.291 . S
C91 H104 0.931 . S
C92 C91 1.291 . S
C92 C93 1.373 . S
C92 H105 0.929 . S
C93 C92 1.373 . S
C93 C94 1.396 . S
C93 C100 1.403 . S
C94 C84 1.476 . S
C94 N89 1.318 . S
C94 C93 1.396 . S
H95 C90 0.929 . S
O96 Mn72 2.385 . S
O96 C74 1.234 . S
O97 Mn72 2.209 . S
O97 Mn73 2.215 . S
O97 C74 1.283 . S
O98 Mn72 2.094 . S
O98 C76 1.240 . S
O99 Mn73 2.117 . S
O99 C76 1.264 . S
C100 C93 1.403 . S
C100 C101 1.399 . S
C100 H106 0.929 . S
C101 C81 1.449 . S
C101 C100 1.399 . S
C101 H107 0.930 . S
H102 C82 0.931 . S
H103 C83 0.930 . S
H104 C91 0.931 . S
H105 C92 0.929 . S
H106 C100 0.929 . S
H107 C101 0.930 . S
Mn108 O113 2.095 . S
Mn108 O123 2.162 . S
Mn108 O124 2.297 . S
Mn108 O132 2.385 . S
Mn108 O133 2.209 . S
Mn108 O134 2.094 . S
Mn109 O114 2.121 . S
Mn109 N116 2.257 . S
Mn109 N125 2.282 . S
Mn109 O133 2.215 . S
Mn109 O135 2.117 . S
C110 O132 1.234 . S
C110 O133 1.283 . S
C111 O123 1.281 . S
C111 O124 1.236 . S
C112 O134 1.240 . S
C112 O135 1.264 . S
O113 Mn108 2.095 . S
O113 C122 1.250 . S
O114 Mn109 2.121 . S
O114 C122 1.258 . S
C115 N116 1.326 . S
C115 C119 1.460 . S
C115 H121 0.929 . S
N116 Mn109 2.257 . S
N116 C115 1.326 . S
N116 C120 1.362 . S
C117 C118 1.258 . S
C117 C120 1.431 . S
C117 C137 1.449 . S
C118 C117 1.258 . S
C118 C119 1.477 . S
C118 H138 0.931 . S
C119 C115 1.460 . S
C119 C118 1.477 . S
C119 H139 0.930 . S
C120 N116 1.362 . S
C120 C117 1.431 . S
C120 C130 1.476 . S
H121 C115 0.929 . S
C122 O113 1.250 . S
C122 O114 1.258 . S
O123 Mn108 2.162 . S
O123 C111 1.281 . S
O124 Mn108 2.297 . S
O124 C111 1.236 . S
N125 Mn109 2.282 . S
N125 C126 1.328 . S
N125 C130 1.318 . S
C126 N125 1.328 . S
C126 C127 1.457 . S
C126 H131 0.929 . S
C127 C126 1.457 . S
C127 C128 1.291 . S
C127 H140 0.931 . S
C128 C127 1.291 . S
C128 C129 1.373 . S
C128 H141 0.929 . S
C129 C128 1.373 . S
C129 C130 1.396 . S
C129 C136 1.403 . S
C130 C120 1.476 . S
C130 N125 1.318 . S
C130 C129 1.396 . S
H131 C126 0.929 . S
O132 Mn108 2.385 . S
O132 C110 1.234 . S
O133 Mn108 2.209 . S
O133 Mn109 2.215 . S
O133 C110 1.283 . S
O134 Mn108 2.094 . S
O134 C112 1.240 . S
O135 Mn109 2.117 . S
O135 C112 1.264 . S
C136 C129 1.403 . S
C136 C137 1.399 . S
C136 H142 0.929 . S
C137 C117 1.449 . S
C137 C136 1.399 . S
C137 H143 0.930 . S
H138 C118 0.931 . S
H139 C119 0.930 . S
H140 C127 0.931 . S
H141 C128 0.929 . S
H142 C136 0.929 . S
H143 C137 0.930 . S
Mn144 O149 2.095 . S
Mn144 O159 2.162 . S
Mn144 O160 2.297 . S
Mn144 O168 2.385 . S
Mn144 O169 2.209 . S
Mn144 O170 2.094 . S
Mn145 O150 2.121 . S
Mn145 N152 2.257 . S
Mn145 N161 2.282 . S
Mn145 O169 2.215 . S
Mn145 O171 2.117 . S
C146 O168 1.234 . S
C146 O169 1.283 . S
C147 O159 1.281 . S
C147 O160 1.236 . S
C148 O170 1.240 . S
C148 O171 1.264 . S
O149 Mn144 2.095 . S
O149 C158 1.250 . S
O150 Mn145 2.121 . S
O150 C158 1.258 . S
C151 N152 1.326 . S
C151 C155 1.460 . S
C151 H157 0.929 . S
N152 Mn145 2.257 . S
N152 C151 1.326 . S
N152 C156 1.362 . S
C153 C154 1.258 . S
C153 C156 1.431 . S
C153 C173 1.449 . S
C154 C153 1.258 . S
C154 C155 1.477 . S
C154 H174 0.931 . S
C155 C151 1.460 . S
C155 C154 1.477 . S
C155 H175 0.930 . S
C156 N152 1.362 . S
C156 C153 1.431 . S
C156 C166 1.476 . S
H157 C151 0.929 . S
C158 O149 1.250 . S
C158 O150 1.258 . S
O159 Mn144 2.162 . S
O159 C147 1.281 . S
O160 Mn144 2.297 . S
O160 C147 1.236 . S
N161 Mn145 2.282 . S
N161 C162 1.328 . S
N161 C166 1.318 . S
C162 N161 1.328 . S
C162 C163 1.457 . S
C162 H167 0.929 . S
C163 C162 1.457 . S
C163 C164 1.291 . S
C163 H176 0.931 . S
C164 C163 1.291 . S
C164 C165 1.373 . S
C164 H177 0.929 . S
C165 C164 1.373 . S
C165 C166 1.396 . S
C165 C172 1.403 . S
C166 C156 1.476 . S
C166 N161 1.318 . S
C166 C165 1.396 . S
H167 C162 0.929 . S
O168 Mn144 2.385 . S
O168 C146 1.234 . S
O169 Mn144 2.209 . S
O169 Mn145 2.215 . S
O169 C146 1.283 . S
O170 Mn144 2.094 . S
O170 C148 1.240 . S
O171 Mn145 2.117 . S
O171 C148 1.264 . S
C172 C165 1.403 . S
C172 C173 1.399 . S
C172 H178 0.929 . S
C173 C153 1.449 . S
C173 C172 1.399 . S
C173 H179 0.930 . S
H174 C154 0.931 . S
H175 C155 0.930 . S
H176 C163 0.931 . S
H177 C164 0.929 . S
H178 C172 0.929 . S
H179 C173 0.930 . S
Mn180 O185 2.095 . S
Mn180 O195 2.162 . S
Mn180 O196 2.297 . S
Mn180 O204 2.385 . S
Mn180 O205 2.209 . S
Mn180 O206 2.094 . S
Mn181 O186 2.121 . S
Mn181 N188 2.257 . S
Mn181 N197 2.282 . S
Mn181 O205 2.215 . S
Mn181 O207 2.117 . S
C182 O204 1.234 . S
C182 O205 1.283 . S
C183 O195 1.281 . S
C183 O196 1.236 . S
C184 O206 1.240 . S
C184 O207 1.264 . S
O185 Mn180 2.095 . S
O185 C194 1.250 . S
O186 Mn181 2.121 . S
O186 C194 1.258 . S
C187 N188 1.326 . S
C187 C191 1.460 . S
C187 H193 0.929 . S
N188 Mn181 2.257 . S
N188 C187 1.326 . S
N188 C192 1.362 . S
C189 C190 1.258 . S
C189 C192 1.431 . S
C189 C209 1.449 . S
C190 C189 1.258 . S
C190 C191 1.477 . S
C190 H210 0.931 . S
C191 C187 1.460 . S
C191 C190 1.477 . S
C191 H211 0.930 . S
C192 N188 1.362 . S
C192 C189 1.431 . S
C192 C202 1.476 . S
H193 C187 0.929 . S
C194 O185 1.250 . S
C194 O186 1.258 . S
O195 Mn180 2.162 . S
O195 C183 1.281 . S
O196 Mn180 2.297 . S
O196 C183 1.236 . S
N197 Mn181 2.282 . S
N197 C198 1.328 . S
N197 C202 1.318 . S
C198 N197 1.328 . S
C198 C199 1.457 . S
C198 H203 0.929 . S
C199 C198 1.457 . S
C199 C200 1.291 . S
C199 H212 0.931 . S
C200 C199 1.291 . S
C200 C201 1.373 . S
C200 H213 0.929 . S
C201 C200 1.373 . S
C201 C202 1.396 . S
C201 C208 1.403 . S
C202 C192 1.476 . S
C202 N197 1.318 . S
C202 C201 1.396 . S
H203 C198 0.929 . S
O204 Mn180 2.385 . S
O204 C182 1.234 . S
O205 Mn180 2.209 . S
O205 Mn181 2.215 . S
O205 C182 1.283 . S
O206 Mn180 2.094 . S
O206 C184 1.240 . S
O207 Mn181 2.117 . S
O207 C184 1.264 . S
C208 C201 1.403 . S
C208 C209 1.399 . S
C208 H214 0.929 . S
C209 C189 1.449 . S
C209 C208 1.399 . S
C209 H215 0.930 . S
H210 C190 0.931 . S
H211 C191 0.930 . S
H212 C199 0.931 . S
H213 C200 0.929 . S
H214 C208 0.929 . S
H215 C209 0.930 . S
Mn216 O221 2.095 . S
Mn216 O231 2.162 . S
Mn216 O232 2.297 . S
Mn216 O240 2.385 . S
Mn216 O241 2.209 . S
Mn216 O242 2.094 . S
Mn217 O222 2.121 . S
Mn217 N224 2.257 . S
Mn217 N233 2.282 . S
Mn217 O241 2.215 . S
Mn217 O243 2.117 . S
C218 O240 1.234 . S
C218 O241 1.283 . S
C219 O231 1.281 . S
C219 O232 1.236 . S
C220 O242 1.240 . S
C220 O243 1.264 . S
O221 Mn216 2.095 . S
O221 C230 1.250 . S
O222 Mn217 2.121 . S
O222 C230 1.258 . S
C223 N224 1.326 . S
C223 C227 1.460 . S
C223 H229 0.929 . S
N224 Mn217 2.257 . S
N224 C223 1.326 . S
N224 C228 1.362 . S
C225 C226 1.258 . S
C225 C228 1.431 . S
C225 C245 1.449 . S
C226 C225 1.258 . S
C226 C227 1.477 . S
C226 H246 0.931 . S
C227 C223 1.460 . S
C227 C226 1.477 . S
C227 H247 0.930 . S
C228 N224 1.362 . S
C228 C225 1.431 . S
C228 C238 1.476 . S
H229 C223 0.929 . S
C230 O221 1.250 . S
C230 O222 1.258 . S
O231 Mn216 2.162 . S
O231 C219 1.281 . S
O232 Mn216 2.297 . S
O232 C219 1.236 . S
N233 Mn217 2.282 . S
N233 C234 1.328 . S
N233 C238 1.318 . S
C234 N233 1.328 . S
C234 C235 1.457 . S
C234 H239 0.929 . S
C235 C234 1.457 . S
C235 C236 1.291 . S
C235 H248 0.931 . S
C236 C235 1.291 . S
C236 C237 1.373 . S
C236 H249 0.929 . S
C237 C236 1.373 . S
C237 C238 1.396 . S
C237 C244 1.403 . S
C238 C228 1.476 . S
C238 N233 1.318 . S
C238 C237 1.396 . S
H239 C234 0.929 . S
O240 Mn216 2.385 . S
O240 C218 1.234 . S
O241 Mn216 2.209 . S
O241 Mn217 2.215 . S
O241 C218 1.283 . S
O242 Mn216 2.094 . S
O242 C220 1.240 . S
O243 Mn217 2.117 . S
O243 C220 1.264 . S
C244 C237 1.403 . S
C244 C245 1.399 . S
C244 H250 0.929 . S
C245 C225 1.449 . S
C245 C244 1.399 . S
C245 H251 0.930 . S
H246 C226 0.931 . S
H247 C227 0.930 . S
H248 C235 0.931 . S
H249 C236 0.929 . S
H250 C244 0.929 . S
H251 C245 0.930 . S
Mn252 O257 2.095 . S
Mn252 O267 2.162 . S
Mn252 O268 2.297 . S
Mn252 O276 2.385 . S
Mn252 O277 2.209 . S
Mn252 O278 2.094 . S
Mn253 O258 2.121 . S
Mn253 N260 2.257 . S
Mn253 N269 2.282 . S
Mn253 O277 2.215 . S
Mn253 O279 2.117 . S
C254 O276 1.234 . S
C254 O277 1.283 . S
C255 O267 1.281 . S
C255 O268 1.236 . S
C256 O278 1.240 . S
C256 O279 1.264 . S
O257 Mn252 2.095 . S
O257 C266 1.250 . S
O258 Mn253 2.121 . S
O258 C266 1.258 . S
C259 N260 1.326 . S
C259 C263 1.460 . S
C259 H265 0.929 . S
N260 Mn253 2.257 . S
N260 C259 1.326 . S
N260 C264 1.362 . S
C261 C262 1.258 . S
C261 C264 1.431 . S
C261 C281 1.449 . S
C262 C261 1.258 . S
C262 C263 1.477 . S
C262 H282 0.931 . S
C263 C259 1.460 . S
C263 C262 1.477 . S
C263 H283 0.930 . S
C264 N260 1.362 . S
C264 C261 1.431 . S
C264 C274 1.476 . S
H265 C259 0.929 . S
C266 O257 1.250 . S
C266 O258 1.258 . S
O267 Mn252 2.162 . S
O267 C255 1.281 . S
O268 Mn252 2.297 . S
O268 C255 1.236 . S
N269 Mn253 2.282 . S
N269 C270 1.328 . S
N269 C274 1.318 . S
C270 N269 1.328 . S
C270 C271 1.457 . S
C270 H275 0.929 . S
C271 C270 1.457 . S
C271 C272 1.291 . S
C271 H284 0.931 . S
C272 C271 1.291 . S
C272 C273 1.373 . S
C272 H285 0.929 . S
C273 C272 1.373 . S
C273 C274 1.396 . S
C273 C280 1.403 . S
C274 C264 1.476 . S
C274 N269 1.318 . S
C274 C273 1.396 . S
H275 C270 0.929 . S
O276 Mn252 2.385 . S
O276 C254 1.234 . S
O277 Mn252 2.209 . S
O277 Mn253 2.215 . S
O277 C254 1.283 . S
O278 Mn252 2.094 . S
O278 C256 1.240 . S
O279 Mn253 2.117 . S
O279 C256 1.264 . S
C280 C273 1.403 . S
C280 C281 1.399 . S
C280 H286 0.929 . S
C281 C261 1.449 . S
C281 C280 1.399 . S
C281 H287 0.930 . S
H282 C262 0.931 . S
H283 C263 0.930 . S
H284 C271 0.931 . S
H285 C272 0.929 . S
H286 C280 0.929 . S
H287 C281 0.930 . S
Mn288 O293 2.095 . S
Mn288 O303 2.162 . S
Mn288 O304 2.297 . S
Mn288 O312 2.385 . S
Mn288 O313 2.209 . S
Mn288 O314 2.094 . S
Mn289 O294 2.121 . S
Mn289 N296 2.257 . S
Mn289 N305 2.282 . S
Mn289 O313 2.215 . S
Mn289 O315 2.117 . S
C290 O312 1.234 . S
C290 O313 1.283 . S
C291 O303 1.281 . S
C291 O304 1.236 . S
C292 O314 1.240 . S
C292 O315 1.264 . S
O293 Mn288 2.095 . S
O293 C302 1.250 . S
O294 Mn289 2.121 . S
O294 C302 1.258 . S
C295 N296 1.326 . S
C295 C299 1.460 . S
C295 H301 0.929 . S
N296 Mn289 2.257 . S
N296 C295 1.326 . S
N296 C300 1.362 . S
C297 C298 1.258 . S
C297 C300 1.431 . S
C297 C317 1.449 . S
C298 C297 1.258 . S
C298 C299 1.477 . S
C298 H318 0.931 . S
C299 C295 1.460 . S
C299 C298 1.477 . S
C299 H319 0.930 . S
C300 N296 1.362 . S
C300 C297 1.431 . S
C300 C310 1.476 . S
H301 C295 0.929 . S
C302 O293 1.250 . S
C302 O294 1.258 . S
O303 Mn288 2.162 . S
O303 C291 1.281 . S
O304 Mn288 2.297 . S
O304 C291 1.236 . S
N305 Mn289 2.282 . S
N305 C306 1.328 . S
N305 C310 1.318 . S
C306 N305 1.328 . S
C306 C307 1.457 . S
C306 H311 0.929 . S
C307 C306 1.457 . S
C307 C308 1.291 . S
C307 H320 0.931 . S
C308 C307 1.291 . S
C308 C309 1.373 . S
C308 H321 0.929 . S
C309 C308 1.373 . S
C309 C310 1.396 . S
C309 C316 1.403 . S
C310 C300 1.476 . S
C310 N305 1.318 . S
C310 C309 1.396 . S
H311 C306 0.929 . S
O312 Mn288 2.385 . S
O312 C290 1.234 . S
O313 Mn288 2.209 . S
O313 Mn289 2.215 . S
O313 C290 1.283 . S
O314 Mn288 2.094 . S
O314 C292 1.240 . S
O315 Mn289 2.117 . S
O315 C292 1.264 . S
C316 C309 1.403 . S
C316 C317 1.399 . S
C316 H322 0.929 . S
C317 C297 1.449 . S
C317 C316 1.399 . S
C317 H323 0.930 . S
H318 C298 0.931 . S
H319 C299 0.930 . S
H320 C307 0.931 . S
H321 C308 0.929 . S
H322 C316 0.929 . S
H323 C317 0.930 . S
Mn324 O329 2.095 . S
Mn324 O339 2.162 . S
Mn324 O340 2.297 . S
Mn324 O348 2.385 . S
Mn324 O349 2.209 . S
Mn324 O350 2.094 . S
Mn325 O330 2.121 . S
Mn325 N332 2.257 . S
Mn325 N341 2.282 . S
Mn325 O349 2.215 . S
Mn325 O351 2.117 . S
C326 O348 1.234 . S
C326 O349 1.283 . S
C327 O339 1.281 . S
C327 O340 1.236 . S
C328 O350 1.240 . S
C328 O351 1.264 . S
O329 Mn324 2.095 . S
O329 C338 1.250 . S
O330 Mn325 2.121 . S
O330 C338 1.258 . S
C331 N332 1.326 . S
C331 C335 1.460 . S
C331 H337 0.929 . S
N332 Mn325 2.257 . S
N332 C331 1.326 . S
N332 C336 1.362 . S
C333 C334 1.258 . S
C333 C336 1.431 . S
C333 C353 1.449 . S
C334 C333 1.258 . S
C334 C335 1.477 . S
C334 H354 0.931 . S
C335 C331 1.460 . S
C335 C334 1.477 . S
C335 H355 0.930 . S
C336 N332 1.362 . S
C336 C333 1.431 . S
C336 C346 1.476 . S
H337 C331 0.929 . S
C338 O329 1.250 . S
C338 O330 1.258 . S
O339 Mn324 2.162 . S
O339 C327 1.281 . S
O340 Mn324 2.297 . S
O340 C327 1.236 . S
N341 Mn325 2.282 . S
N341 C342 1.328 . S
N341 C346 1.318 . S
C342 N341 1.328 . S
C342 C343 1.457 . S
C342 H347 0.929 . S
C343 C342 1.457 . S
C343 C344 1.291 . S
C343 H356 0.931 . S
C344 C343 1.291 . S
C344 C345 1.373 . S
C344 H357 0.929 . S
C345 C344 1.373 . S
C345 C346 1.396 . S
C345 C352 1.403 . S
C346 C336 1.476 . S
C346 N341 1.318 . S
C346 C345 1.396 . S
H347 C342 0.929 . S
O348 Mn324 2.385 . S
O348 C326 1.234 . S
O349 Mn324 2.209 . S
O349 Mn325 2.215 . S
O349 C326 1.283 . S
O350 Mn324 2.094 . S
O350 C328 1.240 . S
O351 Mn325 2.117 . S
O351 C328 1.264 . S
C352 C345 1.403 . S
C352 C353 1.399 . S
C352 H358 0.929 . S
C353 C333 1.449 . S
C353 C352 1.399 . S
C353 H359 0.930 . S
H354 C334 0.931 . S
H355 C335 0.930 . S
H356 C343 0.931 . S
H357 C344 0.929 . S
H358 C352 0.929 . S
H359 C353 0.930 . S
Mn360 O365 2.095 . S
Mn360 O375 2.162 . S
Mn360 O376 2.297 . S
Mn360 O384 2.385 . S
Mn360 O385 2.209 . S
Mn360 O386 2.094 . S
Mn361 O366 2.121 . S
Mn361 N368 2.257 . S
Mn361 N377 2.282 . S
Mn361 O385 2.215 . S
Mn361 O387 2.117 . S
C362 O384 1.234 . S
C362 O385 1.283 . S
C363 O375 1.281 . S
C363 O376 1.236 . S
C364 O386 1.240 . S
C364 O387 1.264 . S
O365 Mn360 2.095 . S
O365 C374 1.250 . S
O366 Mn361 2.121 . S
O366 C374 1.258 . S
C367 N368 1.326 . S
C367 C371 1.460 . S
C367 H373 0.929 . S
N368 Mn361 2.257 . S
N368 C367 1.326 . S
N368 C372 1.362 . S
C369 C370 1.258 . S
C369 C372 1.431 . S
C369 C389 1.449 . S
C370 C369 1.258 . S
C370 C371 1.477 . S
C370 H390 0.931 . S
C371 C367 1.460 . S
C371 C370 1.477 . S
C371 H391 0.930 . S
C372 N368 1.362 . S
C372 C369 1.431 . S
C372 C382 1.476 . S
H373 C367 0.929 . S
C374 O365 1.250 . S
C374 O366 1.258 . S
O375 Mn360 2.162 . S
O375 C363 1.281 . S
O376 Mn360 2.297 . S
O376 C363 1.236 . S
N377 Mn361 2.282 . S
N377 C378 1.328 . S
N377 C382 1.318 . S
C378 N377 1.328 . S
C378 C379 1.457 . S
C378 H383 0.929 . S
C379 C378 1.457 . S
C379 C380 1.291 . S
C379 H392 0.931 . S
C380 C379 1.291 . S
C380 C381 1.373 . S
C380 H393 0.929 . S
C381 C380 1.373 . S
C381 C382 1.396 . S
C381 C388 1.403 . S
C382 C372 1.476 . S
C382 N377 1.318 . S
C382 C381 1.396 . S
H383 C378 0.929 . S
O384 Mn360 2.385 . S
O384 C362 1.234 . S
O385 Mn360 2.209 . S
O385 Mn361 2.215 . S
O385 C362 1.283 . S
O386 Mn360 2.094 . S
O386 C364 1.240 . S
O387 Mn361 2.117 . S
O387 C364 1.264 . S
C388 C381 1.403 . S
C388 C389 1.399 . S
C388 H394 0.929 . S
C389 C369 1.449 . S
C389 C388 1.399 . S
C389 H395 0.930 . S
H390 C370 0.931 . S
H391 C371 0.930 . S
H392 C379 0.931 . S
H393 C380 0.929 . S
H394 C388 0.929 . S
H395 C389 0.930 . S
Mn396 O401 2.095 . S
Mn396 O411 2.162 . S
Mn396 O412 2.297 . S
Mn396 O420 2.385 . S
Mn396 O421 2.209 . S
Mn396 O422 2.094 . S
Mn397 O402 2.121 . S
Mn397 N404 2.257 . S
Mn397 N413 2.282 . S
Mn397 O421 2.215 . S
Mn397 O423 2.117 . S
C398 O420 1.234 . S
C398 O421 1.283 . S
C399 O411 1.281 . S
C399 O412 1.236 . S
C400 O422 1.240 . S
C400 O423 1.264 . S
O401 Mn396 2.095 . S
O401 C410 1.250 . S
O402 Mn397 2.121 . S
O402 C410 1.258 . S
C403 N404 1.326 . S
C403 C407 1.460 . S
C403 H409 0.929 . S
N404 Mn397 2.257 . S
N404 C403 1.326 . S
N404 C408 1.362 . S
C405 C406 1.258 . S
C405 C408 1.431 . S
C405 C425 1.449 . S
C406 C405 1.258 . S
C406 C407 1.477 . S
C406 H426 0.931 . S
C407 C403 1.460 . S
C407 C406 1.477 . S
C407 H427 0.930 . S
C408 N404 1.362 . S
C408 C405 1.431 . S
C408 C418 1.476 . S
H409 C403 0.929 . S
C410 O401 1.250 . S
C410 O402 1.258 . S
O411 Mn396 2.162 . S
O411 C399 1.281 . S
O412 Mn396 2.297 . S
O412 C399 1.236 . S
N413 Mn397 2.282 . S
N413 C414 1.328 . S
N413 C418 1.318 . S
C414 N413 1.328 . S
C414 C415 1.457 . S
C414 H419 0.929 . S
C415 C414 1.457 . S
C415 C416 1.291 . S
C415 H428 0.931 . S
C416 C415 1.291 . S
C416 C417 1.373 . S
C416 H429 0.929 . S
C417 C416 1.373 . S
C417 C418 1.396 . S
C417 C424 1.403 . S
C418 C408 1.476 . S
C418 N413 1.318 . S
C418 C417 1.396 . S
H419 C414 0.929 . S
O420 Mn396 2.385 . S
O420 C398 1.234 . S
O421 Mn396 2.209 . S
O421 Mn397 2.215 . S
O421 C398 1.283 . S
O422 Mn396 2.094 . S
O422 C400 1.240 . S
O423 Mn397 2.117 . S
O423 C400 1.264 . S
C424 C417 1.403 . S
C424 C425 1.399 . S
C424 H430 0.929 . S
C425 C405 1.449 . S
C425 C424 1.399 . S
C425 H431 0.930 . S
H426 C406 0.931 . S
H427 C407 0.930 . S
H428 C415 0.931 . S
H429 C416 0.929 . S
H430 C424 0.929 . S
H431 C425 0.930 . S
Mn432 O437 2.095 . S
Mn432 O447 2.162 . S
Mn432 O448 2.297 . S
Mn432 O456 2.385 . S
Mn432 O457 2.209 . S
Mn432 O458 2.094 . S
Mn433 O438 2.121 . S
Mn433 N440 2.257 . S
Mn433 N449 2.282 . S
Mn433 O457 2.215 . S
Mn433 O459 2.117 . S
C434 O456 1.234 . S
C434 O457 1.283 . S
C435 O447 1.281 . S
C435 O448 1.236 . S
C436 O458 1.240 . S
C436 O459 1.264 . S
O437 Mn432 2.095 . S
O437 C446 1.250 . S
O438 Mn433 2.121 . S
O438 C446 1.258 . S
C439 N440 1.326 . S
C439 C443 1.460 . S
C439 H445 0.929 . S
N440 Mn433 2.257 . S
N440 C439 1.326 . S
N440 C444 1.362 . S
C441 C442 1.258 . S
C441 C444 1.431 . S
C441 C461 1.449 . S
C442 C441 1.258 . S
C442 C443 1.477 . S
C442 H462 0.931 . S
C443 C439 1.460 . S
C443 C442 1.477 . S
C443 H463 0.930 . S
C444 N440 1.362 . S
C444 C441 1.431 . S
C444 C454 1.476 . S
H445 C439 0.929 . S
C446 O437 1.250 . S
C446 O438 1.258 . S
O447 Mn432 2.162 . S
O447 C435 1.281 . S
O448 Mn432 2.297 . S
O448 C435 1.236 . S
N449 Mn433 2.282 . S
N449 C450 1.328 . S
N449 C454 1.318 . S
C450 N449 1.328 . S
C450 C451 1.457 . S
C450 H455 0.929 . S
C451 C450 1.457 . S
C451 C452 1.291 . S
C451 H464 0.931 . S
C452 C451 1.291 . S
C452 C453 1.373 . S
C452 H465 0.929 . S
C453 C452 1.373 . S
C453 C454 1.396 . S
C453 C460 1.403 . S
C454 C444 1.476 . S
C454 N449 1.318 . S
C454 C453 1.396 . S
H455 C450 0.929 . S
O456 Mn432 2.385 . S
O456 C434 1.234 . S
O457 Mn432 2.209 . S
O457 Mn433 2.215 . S
O457 C434 1.283 . S
O458 Mn432 2.094 . S
O458 C436 1.240 . S
O459 Mn433 2.117 . S
O459 C436 1.264 . S
C460 C453 1.403 . S
C460 C461 1.399 . S
C460 H466 0.929 . S
C461 C441 1.449 . S
C461 C460 1.399 . S
C461 H467 0.930 . S
H462 C442 0.931 . S
H463 C443 0.930 . S
H464 C451 0.931 . S
H465 C452 0.929 . S
H466 C460 0.929 . S
H467 C461 0.930 . S
Mn468 O473 2.095 . S
Mn468 O483 2.162 . S
Mn468 O484 2.297 . S
Mn468 O492 2.385 . S
Mn468 O493 2.209 . S
Mn468 O494 2.094 . S
Mn469 O474 2.121 . S
Mn469 N476 2.257 . S
Mn469 N485 2.282 . S
Mn469 O493 2.215 . S
Mn469 O495 2.117 . S
C470 O492 1.234 . S
C470 O493 1.283 . S
C471 O483 1.281 . S
C471 O484 1.236 . S
C472 O494 1.240 . S
C472 O495 1.264 . S
O473 Mn468 2.095 . S
O473 C482 1.250 . S
O474 Mn469 2.121 . S
O474 C482 1.258 . S
C475 N476 1.326 . S
C475 C479 1.460 . S
C475 H481 0.929 . S
N476 Mn469 2.257 . S
N476 C475 1.326 . S
N476 C480 1.362 . S
C477 C478 1.258 . S
C477 C480 1.431 . S
C477 C497 1.449 . S
C478 C477 1.258 . S
C478 C479 1.477 . S
C478 H498 0.931 . S
C479 C475 1.460 . S
C479 C478 1.477 . S
C479 H499 0.930 . S
C480 N476 1.362 . S
C480 C477 1.431 . S
C480 C490 1.476 . S
H481 C475 0.929 . S
C482 O473 1.250 . S
C482 O474 1.258 . S
O483 Mn468 2.162 . S
O483 C471 1.281 . S
O484 Mn468 2.297 . S
O484 C471 1.236 . S
N485 Mn469 2.282 . S
N485 C486 1.328 . S
N485 C490 1.318 . S
C486 N485 1.328 . S
C486 C487 1.457 . S
C486 H491 0.929 . S
C487 C486 1.457 . S
C487 C488 1.291 . S
C487 H500 0.931 . S
C488 C487 1.291 . S
C488 C489 1.373 . S
C488 H501 0.929 . S
C489 C488 1.373 . S
C489 C490 1.396 . S
C489 C496 1.403 . S
C490 C480 1.476 . S
C490 N485 1.318 . S
C490 C489 1.396 . S
H491 C486 0.929 . S
O492 Mn468 2.385 . S
O492 C470 1.234 . S
O493 Mn468 2.209 . S
O493 Mn469 2.215 . S
O493 C470 1.283 . S
O494 Mn468 2.094 . S
O494 C472 1.240 . S
O495 Mn469 2.117 . S
O495 C472 1.264 . S
C496 C489 1.403 . S
C496 C497 1.399 . S
C496 H502 0.929 . S
C497 C477 1.449 . S
C497 C496 1.399 . S
C497 H503 0.930 . S
H498 C478 0.931 . S
H499 C479 0.930 . S
H500 C487 0.931 . S
H501 C488 0.929 . S
H502 C496 0.929 . S
H503 C497 0.930 . S
Mn504 O509 2.095 . S
Mn504 O519 2.162 . S
Mn504 O520 2.297 . S
Mn504 O528 2.385 . S
Mn504 O529 2.209 . S
Mn504 O530 2.094 . S
Mn505 O510 2.121 . S
Mn505 N512 2.257 . S
Mn505 N521 2.282 . S
Mn505 O529 2.215 . S
Mn505 O531 2.117 . S
C506 O528 1.234 . S
C506 O529 1.283 . S
C507 O519 1.281 . S
C507 O520 1.236 . S
C508 O530 1.240 . S
C508 O531 1.264 . S
O509 Mn504 2.095 . S
O509 C518 1.250 . S
O510 Mn505 2.121 . S
O510 C518 1.258 . S
C511 N512 1.326 . S
C511 C515 1.460 . S
C511 H517 0.929 . S
N512 Mn505 2.257 . S
N512 C511 1.326 . S
N512 C516 1.362 . S
C513 C514 1.258 . S
C513 C516 1.431 . S
C513 C533 1.449 . S
C514 C513 1.258 . S
C514 C515 1.477 . S
C514 H534 0.931 . S
C515 C511 1.460 . S
C515 C514 1.477 . S
C515 H535 0.930 . S
C516 N512 1.362 . S
C516 C513 1.431 . S
C516 C526 1.476 . S
H517 C511 0.929 . S
C518 O509 1.250 . S
C518 O510 1.258 . S
O519 Mn504 2.162 . S
O519 C507 1.281 . S
O520 Mn504 2.297 . S
O520 C507 1.236 . S
N521 Mn505 2.282 . S
N521 C522 1.328 . S
N521 C526 1.318 . S
C522 N521 1.328 . S
C522 C523 1.457 . S
C522 H527 0.929 . S
C523 C522 1.457 . S
C523 C524 1.291 . S
C523 H536 0.931 . S
C524 C523 1.291 . S
C524 C525 1.373 . S
C524 H537 0.929 . S
C525 C524 1.373 . S
C525 C526 1.396 . S
C525 C532 1.403 . S
C526 C516 1.476 . S
C526 N521 1.318 . S
C526 C525 1.396 . S
H527 C522 0.929 . S
O528 Mn504 2.385 . S
O528 C506 1.234 . S
O529 Mn504 2.209 . S
O529 Mn505 2.215 . S
O529 C506 1.283 . S
O530 Mn504 2.094 . S
O530 C508 1.240 . S
O531 Mn505 2.117 . S
O531 C508 1.264 . S
C532 C525 1.403 . S
C532 C533 1.399 . S
C532 H538 0.929 . S
C533 C513 1.449 . S
C533 C532 1.399 . S
C533 H539 0.930 . S
H534 C514 0.931 . S
H535 C515 0.930 . S
H536 C523 0.931 . S
H537 C524 0.929 . S
H538 C532 0.929 . S
H539 C533 0.930 . S
Mn540 O545 2.095 . S
Mn540 O555 2.162 . S
Mn540 O556 2.297 . S
Mn540 O564 2.385 . S
Mn540 O565 2.209 . S
Mn540 O566 2.094 . S
Mn541 O546 2.121 . S
Mn541 N548 2.257 . S
Mn541 N557 2.282 . S
Mn541 O565 2.215 . S
Mn541 O567 2.117 . S
C542 O564 1.234 . S
C542 O565 1.283 . S
C543 O555 1.281 . S
C543 O556 1.236 . S
C544 O566 1.240 . S
C544 O567 1.264 . S
O545 Mn540 2.095 . S
O545 C554 1.250 . S
O546 Mn541 2.121 . S
O546 C554 1.258 . S
C547 N548 1.326 . S
C547 C551 1.460 . S
C547 H553 0.929 . S
N548 Mn541 2.257 . S
N548 C547 1.326 . S
N548 C552 1.362 . S
C549 C550 1.258 . S
C549 C552 1.431 . S
C549 C569 1.449 . S
C550 C549 1.258 . S
C550 C551 1.477 . S
C550 H570 0.931 . S
C551 C547 1.460 . S
C551 C550 1.477 . S
C551 H571 0.930 . S
C552 N548 1.362 . S
C552 C549 1.431 . S
C552 C562 1.476 . S
H553 C547 0.929 . S
C554 O545 1.250 . S
C554 O546 1.258 . S
O555 Mn540 2.162 . S
O555 C543 1.281 . S
O556 Mn540 2.297 . S
O556 C543 1.236 . S
N557 Mn541 2.282 . S
N557 C558 1.328 . S
N557 C562 1.318 . S
C558 N557 1.328 . S
C558 C559 1.457 . S
C558 H563 0.929 . S
C559 C558 1.457 . S
C559 C560 1.291 . S
C559 H572 0.931 . S
C560 C559 1.291 . S
C560 C561 1.373 . S
C560 H573 0.929 . S
C561 C560 1.373 . S
C561 C562 1.396 . S
C561 C568 1.403 . S
C562 C552 1.476 . S
C562 N557 1.318 . S
C562 C561 1.396 . S
H563 C558 0.929 . S
O564 Mn540 2.385 . S
O564 C542 1.234 . S
O565 Mn540 2.209 . S
O565 Mn541 2.215 . S
O565 C542 1.283 . S
O566 Mn540 2.094 . S
O566 C544 1.240 . S
O567 Mn541 2.117 . S
O567 C544 1.264 . S
C568 C561 1.403 . S
C568 C569 1.399 . S
C568 H574 0.929 . S
C569 C549 1.449 . S
C569 C568 1.399 . S
C569 H575 0.930 . S
H570 C550 0.931 . S
H571 C551 0.930 . S
H572 C559 0.931 . S
H573 C560 0.929 . S
H574 C568 0.929 . S
H575 C569 0.930 . S
Mn576 O581 2.095 . S
Mn576 O591 2.162 . S
Mn576 O592 2.297 . S
Mn576 O600 2.385 . S
Mn576 O601 2.209 . S
Mn576 O602 2.094 . S
Mn577 O582 2.121 . S
Mn577 N584 2.257 . S
Mn577 N593 2.282 . S
Mn577 O601 2.215 . S
Mn577 O603 2.117 . S
C578 O600 1.234 . S
C578 O601 1.283 . S
C579 O591 1.281 . S
C579 O592 1.236 . S
C580 O602 1.240 . S
C580 O603 1.264 . S
O581 Mn576 2.095 . S
O581 C590 1.250 . S
O582 Mn577 2.121 . S
O582 C590 1.258 . S
C583 N584 1.326 . S
C583 C587 1.460 . S
C583 H589 0.929 . S
N584 Mn577 2.257 . S
N584 C583 1.326 . S
N584 C588 1.362 . S
C585 C586 1.258 . S
C585 C588 1.431 . S
C585 C605 1.449 . S
C586 C585 1.258 . S
C586 C587 1.477 . S
C586 H606 0.931 . S
C587 C583 1.460 . S
C587 C586 1.477 . S
C587 H607 0.930 . S
C588 N584 1.362 . S
C588 C585 1.431 . S
C588 C598 1.476 . S
H589 C583 0.929 . S
C590 O581 1.250 . S
C590 O582 1.258 . S
O591 Mn576 2.162 . S
O591 C579 1.281 . S
O592 Mn576 2.297 . S
O592 C579 1.236 . S
N593 Mn577 2.282 . S
N593 C594 1.328 . S
N593 C598 1.318 . S
C594 N593 1.328 . S
C594 C595 1.457 . S
C594 H599 0.929 . S
C595 C594 1.457 . S
C595 C596 1.291 . S
C595 H608 0.931 . S
C596 C595 1.291 . S
C596 C597 1.373 . S
C596 H609 0.929 . S
C597 C596 1.373 . S
C597 C598 1.396 . S
C597 C604 1.403 . S
C598 C588 1.476 . S
C598 N593 1.318 . S
C598 C597 1.396 . S
H599 C594 0.929 . S
O600 Mn576 2.385 . S
O600 C578 1.234 . S
O601 Mn576 2.209 . S
O601 Mn577 2.215 . S
O601 C578 1.283 . S
O602 Mn576 2.094 . S
O602 C580 1.240 . S
O603 Mn577 2.117 . S
O603 C580 1.264 . S
C604 C597 1.403 . S
C604 C605 1.399 . S
C604 H610 0.929 . S
C605 C585 1.449 . S
C605 C604 1.399 . S
C605 H611 0.930 . S
H606 C586 0.931 . S
H607 C587 0.930 . S
H608 C595 0.931 . S
H609 C596 0.929 . S
H610 C604 0.929 . S
H611 C605 0.930 . S
Mn612 O617 2.095 . S
Mn612 O627 2.162 . S
Mn612 O628 2.297 . S
Mn612 O636 2.385 . S
Mn612 O637 2.209 . S
Mn612 O638 2.094 . S
Mn613 O618 2.121 . S
Mn613 N620 2.257 . S
Mn613 N629 2.282 . S
Mn613 O637 2.215 . S
Mn613 O639 2.117 . S
C614 O636 1.234 . S
C614 O637 1.283 . S
C615 O627 1.281 . S
C615 O628 1.236 . S
C616 O638 1.240 . S
C616 O639 1.264 . S
O617 Mn612 2.095 . S
O617 C626 1.250 . S
O618 Mn613 2.121 . S
O618 C626 1.258 . S
C619 N620 1.326 . S
C619 C623 1.460 . S
C619 H625 0.929 . S
N620 Mn613 2.257 . S
N620 C619 1.326 . S
N620 C624 1.362 . S
C621 C622 1.258 . S
C621 C624 1.431 . S
C621 C641 1.449 . S
C622 C621 1.258 . S
C622 C623 1.477 . S
C622 H642 0.931 . S
C623 C619 1.460 . S
C623 C622 1.477 . S
C623 H643 0.930 . S
C624 N620 1.362 . S
C624 C621 1.431 . S
C624 C634 1.476 . S
H625 C619 0.929 . S
C626 O617 1.250 . S
C626 O618 1.258 . S
O627 Mn612 2.162 . S
O627 C615 1.281 . S
O628 Mn612 2.297 . S
O628 C615 1.236 . S
N629 Mn613 2.282 . S
N629 C630 1.328 . S
N629 C634 1.318 . S
C630 N629 1.328 . S
C630 C631 1.457 . S
C630 H635 0.929 . S
C631 C630 1.457 . S
C631 C632 1.291 . S
C631 H644 0.931 . S
C632 C631 1.291 . S
C632 C633 1.373 . S
C632 H645 0.929 . S
C633 C632 1.373 . S
C633 C634 1.396 . S
C633 C640 1.403 . S
C634 C624 1.476 . S
C634 N629 1.318 . S
C634 C633 1.396 . S
H635 C630 0.929 . S
O636 Mn612 2.385 . S
O636 C614 1.234 . S
O637 Mn612 2.209 . S
O637 Mn613 2.215 . S
O637 C614 1.283 . S
O638 Mn612 2.094 . S
O638 C616 1.240 . S
O639 Mn613 2.117 . S
O639 C616 1.264 . S
C640 C633 1.403 . S
C640 C641 1.399 . S
C640 H646 0.929 . S
C641 C621 1.449 . S
C641 C640 1.399 . S
C641 H647 0.930 . S
H642 C622 0.931 . S
H643 C623 0.930 . S
H644 C631 0.931 . S
H645 C632 0.929 . S
H646 C640 0.929 . S
H647 C641 0.930 . S
Mn648 O653 2.095 . S
Mn648 O663 2.162 . S
Mn648 O664 2.297 . S
Mn648 O672 2.385 . S
Mn648 O673 2.209 . S
Mn648 O674 2.094 . S
Mn649 O654 2.121 . S
Mn649 N656 2.257 . S
Mn649 N665 2.282 . S
Mn649 O673 2.215 . S
Mn649 O675 2.117 . S
C650 O672 1.234 . S
C650 O673 1.283 . S
C651 O663 1.281 . S
C651 O664 1.236 . S
C652 O674 1.240 . S
C652 O675 1.264 . S
O653 Mn648 2.095 . S
O653 C662 1.250 . S
O654 Mn649 2.121 . S
O654 C662 1.258 . S
C655 N656 1.326 . S
C655 C659 1.460 . S
C655 H661 0.929 . S
N656 Mn649 2.257 . S
N656 C655 1.326 . S
N656 C660 1.362 . S
C657 C658 1.258 . S
C657 C660 1.431 . S
C657 C677 1.449 . S
C658 C657 1.258 . S
C658 C659 1.477 . S
C658 H678 0.931 . S
C659 C655 1.460 . S
C659 C658 1.477 . S
C659 H679 0.930 . S
C660 N656 1.362 . S
C660 C657 1.431 . S
C660 C670 1.476 . S
H661 C655 0.929 . S
C662 O653 1.250 . S
C662 O654 1.258 . S
O663 Mn648 2.162 . S
O663 C651 1.281 . S
O664 Mn648 2.297 . S
O664 C651 1.236 . S
N665 Mn649 2.282 . S
N665 C666 1.328 . S
N665 C670 1.318 . S
C666 N665 1.328 . S
C666 C667 1.457 . S
C666 H671 0.929 . S
C667 C666 1.457 . S
C667 C668 1.291 . S
C667 H680 0.931 . S
C668 C667 1.291 . S
C668 C669 1.373 . S
C668 H681 0.929 . S
C669 C668 1.373 . S
C669 C670 1.396 . S
C669 C676 1.403 . S
C670 C660 1.476 . S
C670 N665 1.318 . S
C670 C669 1.396 . S
H671 C666 0.929 . S
O672 Mn648 2.385 . S
O672 C650 1.234 . S
O673 Mn648 2.209 . S
O673 Mn649 2.215 . S
O673 C650 1.283 . S
O674 Mn648 2.094 . S
O674 C652 1.240 . S
O675 Mn649 2.117 . S
O675 C652 1.264 . S
C676 C669 1.403 . S
C676 C677 1.399 . S
C676 H682 0.929 . S
C677 C657 1.449 . S
C677 C676 1.399 . S
C677 H683 0.930 . S
H678 C658 0.931 . S
H679 C659 0.930 . S
H680 C667 0.931 . S
H681 C668 0.929 . S
H682 C676 0.929 . S
H683 C677 0.930 . S
Mn684 O689 2.095 . S
Mn684 O699 2.162 . S
Mn684 O700 2.297 . S
Mn684 O708 2.385 . S
Mn684 O709 2.209 . S
Mn684 O710 2.094 . S
Mn685 O690 2.121 . S
Mn685 N692 2.257 . S
Mn685 N701 2.282 . S
Mn685 O709 2.215 . S
Mn685 O711 2.117 . S
C686 O708 1.234 . S
C686 O709 1.283 . S
C687 O699 1.281 . S
C687 O700 1.236 . S
C688 O710 1.240 . S
C688 O711 1.264 . S
O689 Mn684 2.095 . S
O689 C698 1.250 . S
O690 Mn685 2.121 . S
O690 C698 1.258 . S
C691 N692 1.326 . S
C691 C695 1.460 . S
C691 H697 0.929 . S
N692 Mn685 2.257 . S
N692 C691 1.326 . S
N692 C696 1.362 . S
C693 C694 1.258 . S
C693 C696 1.431 . S
C693 C713 1.449 . S
C694 C693 1.258 . S
C694 C695 1.477 . S
C694 H714 0.931 . S
C695 C691 1.460 . S
C695 C694 1.477 . S
C695 H715 0.930 . S
C696 N692 1.362 . S
C696 C693 1.431 . S
C696 C706 1.476 . S
H697 C691 0.929 . S
C698 O689 1.250 . S
C698 O690 1.258 . S
O699 Mn684 2.162 . S
O699 C687 1.281 . S
O700 Mn684 2.297 . S
O700 C687 1.236 . S
N701 Mn685 2.282 . S
N701 C702 1.328 . S
N701 C706 1.318 . S
C702 N701 1.328 . S
C702 C703 1.457 . S
C702 H707 0.929 . S
C703 C702 1.457 . S
C703 C704 1.291 . S
C703 H716 0.931 . S
C704 C703 1.291 . S
C704 C705 1.373 . S
C704 H717 0.929 . S
C705 C704 1.373 . S
C705 C706 1.396 . S
C705 C712 1.403 . S
C706 C696 1.476 . S
C706 N701 1.318 . S
C706 C705 1.396 . S
H707 C702 0.929 . S
O708 Mn684 2.385 . S
O708 C686 1.234 . S
O709 Mn684 2.209 . S
O709 Mn685 2.215 . S
O709 C686 1.283 . S
O710 Mn684 2.094 . S
O710 C688 1.240 . S
O711 Mn685 2.117 . S
O711 C688 1.264 . S
C712 C705 1.403 . S
C712 C713 1.399 . S
C712 H718 0.929 . S
C713 C693 1.449 . S
C713 C712 1.399 . S
C713 H719 0.930 . S
H714 C694 0.931 . S
H715 C695 0.930 . S
H716 C703 0.931 . S
H717 C704 0.929 . S
H718 C712 0.929 . S
H719 C713 0.930 . S
Mn720 O725 2.095 . S
Mn720 O735 2.162 . S
Mn720 O736 2.297 . S
Mn720 O744 2.385 . S
Mn720 O745 2.209 . S
Mn720 O746 2.094 . S
Mn721 O726 2.121 . S
Mn721 N728 2.257 . S
Mn721 N737 2.282 . S
Mn721 O745 2.215 . S
Mn721 O747 2.117 . S
C722 O744 1.234 . S
C722 O745 1.283 . S
C723 O735 1.281 . S
C723 O736 1.236 . S
C724 O746 1.240 . S
C724 O747 1.264 . S
O725 Mn720 2.095 . S
O725 C734 1.250 . S
O726 Mn721 2.121 . S
O726 C734 1.258 . S
C727 N728 1.326 . S
C727 C731 1.460 . S
C727 H733 0.929 . S
N728 Mn721 2.257 . S
N728 C727 1.326 . S
N728 C732 1.362 . S
C729 C730 1.258 . S
C729 C732 1.431 . S
C729 C749 1.449 . S
C730 C729 1.258 . S
C730 C731 1.477 . S
C730 H750 0.931 . S
C731 C727 1.460 . S
C731 C730 1.477 . S
C731 H751 0.930 . S
C732 N728 1.362 . S
C732 C729 1.431 . S
C732 C742 1.476 . S
H733 C727 0.929 . S
C734 O725 1.250 . S
C734 O726 1.258 . S
O735 Mn720 2.162 . S
O735 C723 1.281 . S
O736 Mn720 2.297 . S
O736 C723 1.236 . S
N737 Mn721 2.282 . S
N737 C738 1.328 . S
N737 C742 1.318 . S
C738 N737 1.328 . S
C738 C739 1.457 . S
C738 H743 0.929 . S
C739 C738 1.457 . S
C739 C740 1.291 . S
C739 H752 0.931 . S
C740 C739 1.291 . S
C740 C741 1.373 . S
C740 H753 0.929 . S
C741 C740 1.373 . S
C741 C742 1.396 . S
C741 C748 1.403 . S
C742 C732 1.476 . S
C742 N737 1.318 . S
C742 C741 1.396 . S
H743 C738 0.929 . S
O744 Mn720 2.385 . S
O744 C722 1.234 . S
O745 Mn720 2.209 . S
O745 Mn721 2.215 . S
O745 C722 1.283 . S
O746 Mn720 2.094 . S
O746 C724 1.240 . S
O747 Mn721 2.117 . S
O747 C724 1.264 . S
C748 C741 1.403 . S
C748 C749 1.399 . S
C748 H754 0.929 . S
C749 C729 1.449 . S
C749 C748 1.399 . S
C749 H755 0.930 . S
H750 C730 0.931 . S
H751 C731 0.930 . S
H752 C739 0.931 . S
H753 C740 0.929 . S
H754 C748 0.929 . S
H755 C749 0.930 . S
Mn756 O761 2.095 . S
Mn756 O771 2.162 . S
Mn756 O772 2.297 . S
Mn756 O780 2.385 . S
Mn756 O781 2.209 . S
Mn756 O782 2.094 . S
Mn757 O762 2.121 . S
Mn757 N764 2.257 . S
Mn757 N773 2.282 . S
Mn757 O781 2.215 . S
Mn757 O783 2.117 . S
C758 O780 1.234 . S
C758 O781 1.283 . S
C759 O771 1.281 . S
C759 O772 1.236 . S
C760 O782 1.240 . S
C760 O783 1.264 . S
O761 Mn756 2.095 . S
O761 C770 1.250 . S
O762 Mn757 2.121 . S
O762 C770 1.258 . S
C763 N764 1.326 . S
C763 C767 1.460 . S
C763 H769 0.929 . S
N764 Mn757 2.257 . S
N764 C763 1.326 . S
N764 C768 1.362 . S
C765 C766 1.258 . S
C765 C768 1.431 . S
C765 C785 1.449 . S
C766 C765 1.258 . S
C766 C767 1.477 . S
C766 H786 0.931 . S
C767 C763 1.460 . S
C767 C766 1.477 . S
C767 H787 0.930 . S
C768 N764 1.362 . S
C768 C765 1.431 . S
C768 C778 1.476 . S
H769 C763 0.929 . S
C770 O761 1.250 . S
C770 O762 1.258 . S
O771 Mn756 2.162 . S
O771 C759 1.281 . S
O772 Mn756 2.297 . S
O772 C759 1.236 . S
N773 Mn757 2.282 . S
N773 C774 1.328 . S
N773 C778 1.318 . S
C774 N773 1.328 . S
C774 C775 1.457 . S
C774 H779 0.929 . S
C775 C774 1.457 . S
C775 C776 1.291 . S
C775 H788 0.931 . S
C776 C775 1.291 . S
C776 C777 1.373 . S
C776 H789 0.929 . S
C777 C776 1.373 . S
C777 C778 1.396 . S
C777 C784 1.403 . S
C778 C768 1.476 . S
C778 N773 1.318 . S
C778 C777 1.396 . S
H779 C774 0.929 . S
O780 Mn756 2.385 . S
O780 C758 1.234 . S
O781 Mn756 2.209 . S
O781 Mn757 2.215 . S
O781 C758 1.283 . S
O782 Mn756 2.094 . S
O782 C760 1.240 . S
O783 Mn757 2.117 . S
O783 C760 1.264 . S
C784 C777 1.403 . S
C784 C785 1.399 . S
C784 H790 0.929 . S
C785 C765 1.449 . S
C785 C784 1.399 . S
C785 H791 0.930 . S
H786 C766 0.931 . S
H787 C767 0.930 . S
H788 C775 0.931 . S
H789 C776 0.929 . S
H790 C784 0.929 . S
H791 C785 0.930 . S
Mn792 O797 2.095 . S
Mn792 O807 2.162 . S
Mn792 O808 2.297 . S
Mn792 O816 2.385 . S
Mn792 O817 2.209 . S
Mn792 O818 2.094 . S
Mn793 O798 2.121 . S
Mn793 N800 2.257 . S
Mn793 N809 2.282 . S
Mn793 O817 2.215 . S
Mn793 O819 2.117 . S
C794 O816 1.234 . S
C794 O817 1.283 . S
C795 O807 1.281 . S
C795 O808 1.236 . S
C796 O818 1.240 . S
C796 O819 1.264 . S
O797 Mn792 2.095 . S
O797 C806 1.250 . S
O798 Mn793 2.121 . S
O798 C806 1.258 . S
C799 N800 1.326 . S
C799 C803 1.460 . S
C799 H805 0.929 . S
N800 Mn793 2.257 . S
N800 C799 1.326 . S
N800 C804 1.362 . S
C801 C802 1.258 . S
C801 C804 1.431 . S
C801 C821 1.449 . S
C802 C801 1.258 . S
C802 C803 1.477 . S
C802 H822 0.931 . S
C803 C799 1.460 . S
C803 C802 1.477 . S
C803 H823 0.930 . S
C804 N800 1.362 . S
C804 C801 1.431 . S
C804 C814 1.476 . S
H805 C799 0.929 . S
C806 O797 1.250 . S
C806 O798 1.258 . S
O807 Mn792 2.162 . S
O807 C795 1.281 . S
O808 Mn792 2.297 . S
O808 C795 1.236 . S
N809 Mn793 2.282 . S
N809 C810 1.328 . S
N809 C814 1.318 . S
C810 N809 1.328 . S
C810 C811 1.457 . S
C810 H815 0.929 . S
C811 C810 1.457 . S
C811 C812 1.291 . S
C811 H824 0.931 . S
C812 C811 1.291 . S
C812 C813 1.373 . S
C812 H825 0.929 . S
C813 C812 1.373 . S
C813 C814 1.396 . S
C813 C820 1.403 . S
C814 C804 1.476 . S
C814 N809 1.318 . S
C814 C813 1.396 . S
H815 C810 0.929 . S
O816 Mn792 2.385 . S
O816 C794 1.234 . S
O817 Mn792 2.209 . S
O817 Mn793 2.215 . S
O817 C794 1.283 . S
O818 Mn792 2.094 . S
O818 C796 1.240 . S
O819 Mn793 2.117 . S
O819 C796 1.264 . S
C820 C813 1.403 . S
C820 C821 1.399 . S
C820 H826 0.929 . S
C821 C801 1.449 . S
C821 C820 1.399 . S
C821 H827 0.930 . S
H822 C802 0.931 . S
H823 C803 0.930 . S
H824 C811 0.931 . S
H825 C812 0.929 . S
H826 C820 0.929 . S
H827 C821 0.930 . S
Mn828 O833 2.095 . S
Mn828 O843 2.162 . S
Mn828 O844 2.297 . S
Mn828 O852 2.385 . S
Mn828 O853 2.209 . S
Mn828 O854 2.094 . S
Mn829 O834 2.121 . S
Mn829 N836 2.257 . S
Mn829 N845 2.282 . S
Mn829 O853 2.215 . S
Mn829 O855 2.117 . S
C830 O852 1.234 . S
C830 O853 1.283 . S
C831 O843 1.281 . S
C831 O844 1.236 . S
C832 O854 1.240 . S
C832 O855 1.264 . S
O833 Mn828 2.095 . S
O833 C842 1.250 . S
O834 Mn829 2.121 . S
O834 C842 1.258 . S
C835 N836 1.326 . S
C835 C839 1.460 . S
C835 H841 0.929 . S
N836 Mn829 2.257 . S
N836 C835 1.326 . S
N836 C840 1.362 . S
C837 C838 1.258 . S
C837 C840 1.431 . S
C837 C857 1.449 . S
C838 C837 1.258 . S
C838 C839 1.477 . S
C838 H858 0.931 . S
C839 C835 1.460 . S
C839 C838 1.477 . S
C839 H859 0.930 . S
C840 N836 1.362 . S
C840 C837 1.431 . S
C840 C850 1.476 . S
H841 C835 0.929 . S
C842 O833 1.250 . S
C842 O834 1.258 . S
O843 Mn828 2.162 . S
O843 C831 1.281 . S
O844 Mn828 2.297 . S
O844 C831 1.236 . S
N845 Mn829 2.282 . S
N845 C846 1.328 . S
N845 C850 1.318 . S
C846 N845 1.328 . S
C846 C847 1.457 . S
C846 H851 0.929 . S
C847 C846 1.457 . S
C847 C848 1.291 . S
C847 H860 0.931 . S
C848 C847 1.291 . S
C848 C849 1.373 . S
C848 H861 0.929 . S
C849 C848 1.373 . S
C849 C850 1.396 . S
C849 C856 1.403 . S
C850 C840 1.476 . S
C850 N845 1.318 . S
C850 C849 1.396 . S
H851 C846 0.929 . S
O852 Mn828 2.385 . S
O852 C830 1.234 . S
O853 Mn828 2.209 . S
O853 Mn829 2.215 . S
O853 C830 1.283 . S
O854 Mn828 2.094 . S
O854 C832 1.240 . S
O855 Mn829 2.117 . S
O855 C832 1.264 . S
C856 C849 1.403 . S
C856 C857 1.399 . S
C856 H862 0.929 . S
C857 C837 1.449 . S
C857 C856 1.399 . S
C857 H863 0.930 . S
H858 C838 0.931 . S
H859 C839 0.930 . S
H860 C847 0.931 . S
H861 C848 0.929 . S
H862 C856 0.929 . S
H863 C857 0.930 . S
Mn864 O869 2.095 . S
Mn864 O879 2.162 . S
Mn864 O880 2.297 . S
Mn864 O888 2.385 . S
Mn864 O889 2.209 . S
Mn864 O890 2.094 . S
Mn865 O870 2.121 . S
Mn865 N872 2.257 . S
Mn865 N881 2.282 . S
Mn865 O889 2.215 . S
Mn865 O891 2.117 . S
C866 O888 1.234 . S
C866 O889 1.283 . S
C867 O879 1.281 . S
C867 O880 1.236 . S
C868 O890 1.240 . S
C868 O891 1.264 . S
O869 Mn864 2.095 . S
O869 C878 1.250 . S
O870 Mn865 2.121 . S
O870 C878 1.258 . S
C871 N872 1.326 . S
C871 C875 1.460 . S
C871 H877 0.929 . S
N872 Mn865 2.257 . S
N872 C871 1.326 . S
N872 C876 1.362 . S
C873 C874 1.258 . S
C873 C876 1.431 . S
C873 C893 1.449 . S
C874 C873 1.258 . S
C874 C875 1.477 . S
C874 H894 0.931 . S
C875 C871 1.460 . S
C875 C874 1.477 . S
C875 H895 0.930 . S
C876 N872 1.362 . S
C876 C873 1.431 . S
C876 C886 1.476 . S
H877 C871 0.929 . S
C878 O869 1.250 . S
C878 O870 1.258 . S
O879 Mn864 2.162 . S
O879 C867 1.281 . S
O880 Mn864 2.297 . S
O880 C867 1.236 . S
N881 Mn865 2.282 . S
N881 C882 1.328 . S
N881 C886 1.318 . S
C882 N881 1.328 . S
C882 C883 1.457 . S
C882 H887 0.929 . S
C883 C882 1.457 . S
C883 C884 1.291 . S
C883 H896 0.931 . S
C884 C883 1.291 . S
C884 C885 1.373 . S
C884 H897 0.929 . S
C885 C884 1.373 . S
C885 C886 1.396 . S
C885 C892 1.403 . S
C886 C876 1.476 . S
C886 N881 1.318 . S
C886 C885 1.396 . S
H887 C882 0.929 . S
O888 Mn864 2.385 . S
O888 C866 1.234 . S
O889 Mn864 2.209 . S
O889 Mn865 2.215 . S
O889 C866 1.283 . S
O890 Mn864 2.094 . S
O890 C868 1.240 . S
O891 Mn865 2.117 . S
O891 C868 1.264 . S
C892 C885 1.403 . S
C892 C893 1.399 . S
C892 H898 0.929 . S
C893 C873 1.449 . S
C893 C892 1.399 . S
C893 H899 0.930 . S
H894 C874 0.931 . S
H895 C875 0.930 . S
H896 C883 0.931 . S
H897 C884 0.929 . S
H898 C892 0.929 . S
H899 C893 0.930 . S
Mn900 O905 2.095 . S
Mn900 O915 2.162 . S
Mn900 O916 2.297 . S
Mn900 O924 2.385 . S
Mn900 O925 2.209 . S
Mn900 O926 2.094 . S
Mn901 O906 2.121 . S
Mn901 N908 2.257 . S
Mn901 N917 2.282 . S
Mn901 O925 2.215 . S
Mn901 O927 2.117 . S
C902 O924 1.234 . S
C902 O925 1.283 . S
C903 O915 1.281 . S
C903 O916 1.236 . S
C904 O926 1.240 . S
C904 O927 1.264 . S
O905 Mn900 2.095 . S
O905 C914 1.250 . S
O906 Mn901 2.121 . S
O906 C914 1.258 . S
C907 N908 1.326 . S
C907 C911 1.460 . S
C907 H913 0.929 . S
N908 Mn901 2.257 . S
N908 C907 1.326 . S
N908 C912 1.362 . S
C909 C910 1.258 . S
C909 C912 1.431 . S
C909 C929 1.449 . S
C910 C909 1.258 . S
C910 C911 1.477 . S
C910 H930 0.931 . S
C911 C907 1.460 . S
C911 C910 1.477 . S
C911 H931 0.930 . S
C912 N908 1.362 . S
C912 C909 1.431 . S
C912 C922 1.476 . S
H913 C907 0.929 . S
C914 O905 1.250 . S
C914 O906 1.258 . S
O915 Mn900 2.162 . S
O915 C903 1.281 . S
O916 Mn900 2.297 . S
O916 C903 1.236 . S
N917 Mn901 2.282 . S
N917 C918 1.328 . S
N917 C922 1.318 . S
C918 N917 1.328 . S
C918 C919 1.457 . S
C918 H923 0.929 . S
C919 C918 1.457 . S
C919 C920 1.291 . S
C919 H932 0.931 . S
C920 C919 1.291 . S
C920 C921 1.373 . S
C920 H933 0.929 . S
C921 C920 1.373 . S
C921 C922 1.396 . S
C921 C928 1.403 . S
C922 C912 1.476 . S
C922 N917 1.318 . S
C922 C921 1.396 . S
H923 C918 0.929 . S
O924 Mn900 2.385 . S
O924 C902 1.234 . S
O925 Mn900 2.209 . S
O925 Mn901 2.215 . S
O925 C902 1.283 . S
O926 Mn900 2.094 . S
O926 C904 1.240 . S
O927 Mn901 2.117 . S
O927 C904 1.264 . S
C928 C921 1.403 . S
C928 C929 1.399 . S
C928 H934 0.929 . S
C929 C909 1.449 . S
C929 C928 1.399 . S
C929 H935 0.930 . S
H930 C910 0.931 . S
H931 C911 0.930 . S
H932 C919 0.931 . S
H933 C920 0.929 . S
H934 C928 0.929 . S
H935 C929 0.930 . S
Mn936 O941 2.095 . S
Mn936 O951 2.162 . S
Mn936 O952 2.297 . S
Mn936 O960 2.385 . S
Mn936 O961 2.209 . S
Mn936 O962 2.094 . S
Mn937 O942 2.121 . S
Mn937 N944 2.257 . S
Mn937 N953 2.282 . S
Mn937 O961 2.215 . S
Mn937 O963 2.117 . S
C938 O960 1.234 . S
C938 O961 1.283 . S
C939 O951 1.281 . S
C939 O952 1.236 . S
C940 O962 1.240 . S
C940 O963 1.264 . S
O941 Mn936 2.095 . S
O941 C950 1.250 . S
O942 Mn937 2.121 . S
O942 C950 1.258 . S
C943 N944 1.326 . S
C943 C947 1.460 . S
C943 H949 0.929 . S
N944 Mn937 2.257 . S
N944 C943 1.326 . S
N944 C948 1.362 . S
C945 C946 1.258 . S
C945 C948 1.431 . S
C945 C965 1.449 . S
C946 C945 1.258 . S
C946 C947 1.477 . S
C946 H966 0.931 . S
C947 C943 1.460 . S
C947 C946 1.477 . S
C947 H967 0.930 . S
C948 N944 1.362 . S
C948 C945 1.431 . S
C948 C958 1.476 . S
H949 C943 0.929 . S
C950 O941 1.250 . S
C950 O942 1.258 . S
O951 Mn936 2.162 . S
O951 C939 1.281 . S
O952 Mn936 2.297 . S
O952 C939 1.236 . S
N953 Mn937 2.282 . S
N953 C954 1.328 . S
N953 C958 1.318 . S
C954 N953 1.328 . S
C954 C955 1.457 . S
C954 H959 0.929 . S
C955 C954 1.457 . S
C955 C956 1.291 . S
C955 H968 0.931 . S
C956 C955 1.291 . S
C956 C957 1.373 . S
C956 H969 0.929 . S
C957 C956 1.373 . S
C957 C958 1.396 . S
C957 C964 1.403 . S
C958 C948 1.476 . S
C958 N953 1.318 . S
C958 C957 1.396 . S
H959 C954 0.929 . S
O960 Mn936 2.385 . S
O960 C938 1.234 . S
O961 Mn936 2.209 . S
O961 Mn937 2.215 . S
O961 C938 1.283 . S
O962 Mn936 2.094 . S
O962 C940 1.240 . S
O963 Mn937 2.117 . S
O963 C940 1.264 . S
C964 C957 1.403 . S
C964 C965 1.399 . S
C964 H970 0.929 . S
C965 C945 1.449 . S
C965 C964 1.399 . S
C965 H971 0.930 . S
H966 C946 0.931 . S
H967 C947 0.930 . S
H968 C955 0.931 . S
H969 C956 0.929 . S
H970 C964 0.929 . S
H971 C965 0.930 . S
Mn972 O977 2.095 . S
Mn972 O987 2.162 . S
Mn972 O988 2.297 . S
Mn972 O996 2.385 . S
Mn972 O997 2.209 . S
Mn972 O998 2.094 . S
Mn973 O978 2.121 . S
Mn973 N980 2.257 . S
Mn973 N989 2.282 . S
Mn973 O997 2.215 . S
Mn973 O999 2.117 . S
C974 O996 1.234 . S
C974 O997 1.283 . S
C975 O987 1.281 . S
C975 O988 1.236 . S
C976 O998 1.240 . S
C976 O999 1.264 . S
O977 Mn972 2.095 . S
O977 C986 1.250 . S
O978 Mn973 2.121 . S
O978 C986 1.258 . S
C979 N980 1.326 . S
C979 C983 1.460 . S
C979 H985 0.929 . S
N980 Mn973 2.257 . S
N980 C979 1.326 . S
N980 C984 1.362 . S
C981 C982 1.258 . S
C981 C984 1.431 . S
C981 C1001 1.449 . S
C982 C981 1.258 . S
C982 C983 1.477 . S
C982 H1002 0.931 . S
C983 C979 1.460 . S
C983 C982 1.477 . S
C983 H1003 0.930 . S
C984 N980 1.362 . S
C984 C981 1.431 . S
C984 C994 1.476 . S
H985 C979 0.929 . S
C986 O977 1.250 . S
C986 O978 1.258 . S
O987 Mn972 2.162 . S
O987 C975 1.281 . S
O988 Mn972 2.297 . S
O988 C975 1.236 . S
N989 Mn973 2.282 . S
N989 C990 1.328 . S
N989 C994 1.318 . S
C990 N989 1.328 . S
C990 C991 1.457 . S
C990 H995 0.929 . S
C991 C990 1.457 . S
C991 C992 1.291 . S
C991 H1004 0.931 . S
C992 C991 1.291 . S
C992 C993 1.373 . S
C992 H1005 0.929 . S
C993 C992 1.373 . S
C993 C994 1.396 . S
C993 C1000 1.403 . S
C994 C984 1.476 . S
C994 N989 1.318 . S
C994 C993 1.396 . S
H995 C990 0.929 . S
O996 Mn972 2.385 . S
O996 C974 1.234 . S
O997 Mn972 2.209 . S
O997 Mn973 2.215 . S
O997 C974 1.283 . S
O998 Mn972 2.094 . S
O998 C976 1.240 . S
O999 Mn973 2.117 . S
O999 C976 1.264 . S
C1000 C993 1.403 . S
C1000 C1001 1.399 . S
C1000 H1006 0.929 . S
C1001 C981 1.449 . S
C1001 C1000 1.399 . S
C1001 H1007 0.930 . S
H1002 C982 0.931 . S
H1003 C983 0.930 . S
H1004 C991 0.931 . S
H1005 C992 0.929 . S
H1006 C1000 0.929 . S
H1007 C1001 0.930 . S
Mn1008 O1013 2.095 . S
Mn1008 O1023 2.162 . S
Mn1008 O1024 2.297 . S
Mn1008 O1032 2.385 . S
Mn1008 O1033 2.209 . S
Mn1008 O1034 2.094 . S
Mn1009 O1014 2.121 . S
Mn1009 N1016 2.257 . S
Mn1009 N1025 2.282 . S
Mn1009 O1033 2.215 . S
Mn1009 O1035 2.117 . S
C1010 O1032 1.234 . S
C1010 O1033 1.283 . S
C1011 O1023 1.281 . S
C1011 O1024 1.236 . S
C1012 O1034 1.240 . S
C1012 O1035 1.264 . S
O1013 Mn1008 2.095 . S
O1013 C1022 1.250 . S
O1014 Mn1009 2.121 . S
O1014 C1022 1.258 . S
C1015 N1016 1.326 . S
C1015 C1019 1.460 . S
C1015 H1021 0.929 . S
N1016 Mn1009 2.257 . S
N1016 C1015 1.326 . S
N1016 C1020 1.362 . S
C1017 C1018 1.258 . S
C1017 C1020 1.431 . S
C1017 C1037 1.449 . S
C1018 C1017 1.258 . S
C1018 C1019 1.477 . S
C1018 H1038 0.931 . S
C1019 C1015 1.460 . S
C1019 C1018 1.477 . S
C1019 H1039 0.930 . S
C1020 N1016 1.362 . S
C1020 C1017 1.431 . S
C1020 C1030 1.476 . S
H1021 C1015 0.929 . S
C1022 O1013 1.250 . S
C1022 O1014 1.258 . S
O1023 Mn1008 2.162 . S
O1023 C1011 1.281 . S
O1024 Mn1008 2.297 . S
O1024 C1011 1.236 . S
N1025 Mn1009 2.282 . S
N1025 C1026 1.328 . S
N1025 C1030 1.318 . S
C1026 N1025 1.328 . S
C1026 C1027 1.457 . S
C1026 H1031 0.929 . S
C1027 C1026 1.457 . S
C1027 C1028 1.291 . S
C1027 H1040 0.931 . S
C1028 C1027 1.291 . S
C1028 C1029 1.373 . S
C1028 H1041 0.929 . S
C1029 C1028 1.373 . S
C1029 C1030 1.396 . S
C1029 C1036 1.403 . S
C1030 C1020 1.476 . S
C1030 N1025 1.318 . S
C1030 C1029 1.396 . S
H1031 C1026 0.929 . S
O1032 Mn1008 2.385 . S
O1032 C1010 1.234 . S
O1033 Mn1008 2.209 . S
O1033 Mn1009 2.215 . S
O1033 C1010 1.283 . S
O1034 Mn1008 2.094 . S
O1034 C1012 1.240 . S
O1035 Mn1009 2.117 . S
O1035 C1012 1.264 . S
C1036 C1029 1.403 . S
C1036 C1037 1.399 . S
C1036 H1042 0.929 . S
C1037 C1017 1.449 . S
C1037 C1036 1.399 . S
C1037 H1043 0.930 . S
H1038 C1018 0.931 . S
H1039 C1019 0.930 . S
H1040 C1027 0.931 . S
H1041 C1028 0.929 . S
H1042 C1036 0.929 . S
H1043 C1037 0.930 . S
Mn1044 O1049 2.095 . S
Mn1044 O1059 2.162 . S
Mn1044 O1060 2.297 . S
Mn1044 O1068 2.385 . S
Mn1044 O1069 2.209 . S
Mn1044 O1070 2.094 . S
Mn1045 O1050 2.121 . S
Mn1045 N1052 2.257 . S
Mn1045 N1061 2.282 . S
Mn1045 O1069 2.215 . S
Mn1045 O1071 2.117 . S
C1046 O1068 1.234 . S
C1046 O1069 1.283 . S
C1047 O1059 1.281 . S
C1047 O1060 1.236 . S
C1048 O1070 1.240 . S
C1048 O1071 1.264 . S
O1049 Mn1044 2.095 . S
O1049 C1058 1.250 . S
O1050 Mn1045 2.121 . S
O1050 C1058 1.258 . S
C1051 N1052 1.326 . S
C1051 C1055 1.460 . S
C1051 H1057 0.929 . S
N1052 Mn1045 2.257 . S
N1052 C1051 1.326 . S
N1052 C1056 1.362 . S
C1053 C1054 1.258 . S
C1053 C1056 1.431 . S
C1053 C1073 1.449 . S
C1054 C1053 1.258 . S
C1054 C1055 1.477 . S
C1054 H1074 0.931 . S
C1055 C1051 1.460 . S
C1055 C1054 1.477 . S
C1055 H1075 0.930 . S
C1056 N1052 1.362 . S
C1056 C1053 1.431 . S
C1056 C1066 1.476 . S
H1057 C1051 0.929 . S
C1058 O1049 1.250 . S
C1058 O1050 1.258 . S
O1059 Mn1044 2.162 . S
O1059 C1047 1.281 . S
O1060 Mn1044 2.297 . S
O1060 C1047 1.236 . S
N1061 Mn1045 2.282 . S
N1061 C1062 1.328 . S
N1061 C1066 1.318 . S
C1062 N1061 1.328 . S
C1062 C1063 1.457 . S
C1062 H1067 0.929 . S
C1063 C1062 1.457 . S
C1063 C1064 1.291 . S
C1063 H1076 0.931 . S
C1064 C1063 1.291 . S
C1064 C1065 1.373 . S
C1064 H1077 0.929 . S
C1065 C1064 1.373 . S
C1065 C1066 1.396 . S
C1065 C1072 1.403 . S
C1066 C1056 1.476 . S
C1066 N1061 1.318 . S
C1066 C1065 1.396 . S
H1067 C1062 0.929 . S
O1068 Mn1044 2.385 . S
O1068 C1046 1.234 . S
O1069 Mn1044 2.209 . S
O1069 Mn1045 2.215 . S
O1069 C1046 1.283 . S
O1070 Mn1044 2.094 . S
O1070 C1048 1.240 . S
O1071 Mn1045 2.117 . S
O1071 C1048 1.264 . S
C1072 C1065 1.403 . S
C1072 C1073 1.399 . S
C1072 H1078 0.929 . S
C1073 C1053 1.449 . S
C1073 C1072 1.399 . S
C1073 H1079 0.930 . S
H1074 C1054 0.931 . S
H1075 C1055 0.930 . S
H1076 C1063 0.931 . S
H1077 C1064 0.929 . S
H1078 C1072 0.929 . S
H1079 C1073 0.930 . S
Mn1080 O1085 2.095 . S
Mn1080 O1095 2.162 . S
Mn1080 O1096 2.297 . S
Mn1080 O1104 2.385 . S
Mn1080 O1105 2.209 . S
Mn1080 O1106 2.094 . S
Mn1081 O1086 2.121 . S
Mn1081 N1088 2.257 . S
Mn1081 N1097 2.282 . S
Mn1081 O1105 2.215 . S
Mn1081 O1107 2.117 . S
C1082 O1104 1.234 . S
C1082 O1105 1.283 . S
C1083 O1095 1.281 . S
C1083 O1096 1.236 . S
C1084 O1106 1.240 . S
C1084 O1107 1.264 . S
O1085 Mn1080 2.095 . S
O1085 C1094 1.250 . S
O1086 Mn1081 2.121 . S
O1086 C1094 1.258 . S
C1087 N1088 1.326 . S
C1087 C1091 1.460 . S
C1087 H1093 0.929 . S
N1088 Mn1081 2.257 . S
N1088 C1087 1.326 . S
N1088 C1092 1.362 . S
C1089 C1090 1.258 . S
C1089 C1092 1.431 . S
C1089 C1109 1.449 . S
C1090 C1089 1.258 . S
C1090 C1091 1.477 . S
C1090 H1110 0.931 . S
C1091 C1087 1.460 . S
C1091 C1090 1.477 . S
C1091 H1111 0.930 . S
C1092 N1088 1.362 . S
C1092 C1089 1.431 . S
C1092 C1102 1.476 . S
H1093 C1087 0.929 . S
C1094 O1085 1.250 . S
C1094 O1086 1.258 . S
O1095 Mn1080 2.162 . S
O1095 C1083 1.281 . S
O1096 Mn1080 2.297 . S
O1096 C1083 1.236 . S
N1097 Mn1081 2.282 . S
N1097 C1098 1.328 . S
N1097 C1102 1.318 . S
C1098 N1097 1.328 . S
C1098 C1099 1.457 . S
C1098 H1103 0.929 . S
C1099 C1098 1.457 . S
C1099 C1100 1.291 . S
C1099 H1112 0.931 . S
C1100 C1099 1.291 . S
C1100 C1101 1.373 . S
C1100 H1113 0.929 . S
C1101 C1100 1.373 . S
C1101 C1102 1.396 . S
C1101 C1108 1.403 . S
C1102 C1092 1.476 . S
C1102 N1097 1.318 . S
C1102 C1101 1.396 . S
H1103 C1098 0.929 . S
O1104 Mn1080 2.385 . S
O1104 C1082 1.234 . S
O1105 Mn1080 2.209 . S
O1105 Mn1081 2.215 . S
O1105 C1082 1.283 . S
O1106 Mn1080 2.094 . S
O1106 C1084 1.240 . S
O1107 Mn1081 2.117 . S
O1107 C1084 1.264 . S
C1108 C1101 1.403 . S
C1108 C1109 1.399 . S
C1108 H1114 0.929 . S
C1109 C1089 1.449 . S
C1109 C1108 1.399 . S
C1109 H1115 0.930 . S
H1110 C1090 0.931 . S
H1111 C1091 0.930 . S
H1112 C1099 0.931 . S
H1113 C1100 0.929 . S
H1114 C1108 0.929 . S
H1115 C1109 0.930 . S
Mn1116 O1121 2.095 . S
Mn1116 O1131 2.162 . S
Mn1116 O1132 2.297 . S
Mn1116 O1140 2.385 . S
Mn1116 O1141 2.209 . S
Mn1116 O1142 2.094 . S
Mn1117 O1122 2.121 . S
Mn1117 N1124 2.257 . S
Mn1117 N1133 2.282 . S
Mn1117 O1141 2.215 . S
Mn1117 O1143 2.117 . S
C1118 O1140 1.234 . S
C1118 O1141 1.283 . S
C1119 O1131 1.281 . S
C1119 O1132 1.236 . S
C1120 O1142 1.240 . S
C1120 O1143 1.264 . S
O1121 Mn1116 2.095 . S
O1121 C1130 1.250 . S
O1122 Mn1117 2.121 . S
O1122 C1130 1.258 . S
C1123 N1124 1.326 . S
C1123 C1127 1.460 . S
C1123 H1129 0.929 . S
N1124 Mn1117 2.257 . S
N1124 C1123 1.326 . S
N1124 C1128 1.362 . S
C1125 C1126 1.258 . S
C1125 C1128 1.431 . S
C1125 C1145 1.449 . S
C1126 C1125 1.258 . S
C1126 C1127 1.477 . S
C1126 H1146 0.931 . S
C1127 C1123 1.460 . S
C1127 C1126 1.477 . S
C1127 H1147 0.930 . S
C1128 N1124 1.362 . S
C1128 C1125 1.431 . S
C1128 C1138 1.476 . S
H1129 C1123 0.929 . S
C1130 O1121 1.250 . S
C1130 O1122 1.258 . S
O1131 Mn1116 2.162 . S
O1131 C1119 1.281 . S
O1132 Mn1116 2.297 . S
O1132 C1119 1.236 . S
N1133 Mn1117 2.282 . S
N1133 C1134 1.328 . S
N1133 C1138 1.318 . S
C1134 N1133 1.328 . S
C1134 C1135 1.457 . S
C1134 H1139 0.929 . S
C1135 C1134 1.457 . S
C1135 C1136 1.291 . S
C1135 H1148 0.931 . S
C1136 C1135 1.291 . S
C1136 C1137 1.373 . S
C1136 H1149 0.929 . S
C1137 C1136 1.373 . S
C1137 C1138 1.396 . S
C1137 C1144 1.403 . S
C1138 C1128 1.476 . S
C1138 N1133 1.318 . S
C1138 C1137 1.396 . S
H1139 C1134 0.929 . S
O1140 Mn1116 2.385 . S
O1140 C1118 1.234 . S
O1141 Mn1116 2.209 . S
O1141 Mn1117 2.215 . S
O1141 C1118 1.283 . S
O1142 Mn1116 2.094 . S
O1142 C1120 1.240 . S
O1143 Mn1117 2.117 . S
O1143 C1120 1.264 . S
C1144 C1137 1.403 . S
C1144 C1145 1.399 . S
C1144 H1150 0.929 . S
C1145 C1125 1.449 . S
C1145 C1144 1.399 . S
C1145 H1151 0.930 . S
H1146 C1126 0.931 . S
H1147 C1127 0.930 . S
H1148 C1135 0.931 . S
H1149 C1136 0.929 . S
H1150 C1144 0.929 . S
H1151 C1145 0.930 . S
H1152 C1158 0.930 . S
H1153 C1161 0.930 . S
H1154 C1162 0.930 . S
H1155 C1163 0.930 . S
H1156 C1166 0.930 . S
H1157 C1167 0.930 . S
C1158 H1152 0.930 . S
C1158 C1159 1.355 . S
C1158 C1160 1.415 . S
C1159 C1158 1.355 . S
C1159 C1161 1.419 . S
C1160 C1158 1.415 . S
C1160 C1165 1.425 . S
C1160 C1167 1.409 . S
C1161 H1153 0.930 . S
C1161 C1159 1.419 . S
C1161 C1162 1.362 . S
C1162 H1154 0.930 . S
C1162 C1161 1.362 . S
C1162 C1165 1.409 . S
C1163 H1155 0.930 . S
C1163 C1164 1.355 . S
C1163 C1165 1.415 . S
C1164 C1163 1.355 . S
C1164 C1166 1.419 . S
C1165 C1160 1.425 . S
C1165 C1162 1.409 . S
C1165 C1163 1.415 . S
C1166 H1156 0.930 . S
C1166 C1164 1.419 . S
C1166 C1167 1.362 . S
C1167 H1157 0.930 . S
C1167 C1160 1.409 . S
C1167 C1166 1.362 . S
H1168 C1174 0.930 . S
H1169 C1177 0.930 . S
H1170 C1178 0.930 . S
H1171 C1179 0.930 . S
H1172 C1182 0.930 . S
H1173 C1183 0.930 . S
C1174 H1168 0.930 . S
C1174 C1175 1.355 . S
C1174 C1176 1.415 . S
C1175 C1174 1.355 . S
C1175 C1177 1.419 . S
C1176 C1174 1.415 . S
C1176 C1181 1.425 . S
C1176 C1183 1.409 . S
C1177 H1169 0.930 . S
C1177 C1175 1.419 . S
C1177 C1178 1.362 . S
C1178 H1170 0.930 . S
C1178 C1177 1.362 . S
C1178 C1181 1.409 . S
C1179 H1171 0.930 . S
C1179 C1180 1.355 . S
C1179 C1181 1.415 . S
C1180 C1179 1.355 . S
C1180 C1182 1.419 . S
C1181 C1176 1.425 . S
C1181 C1178 1.409 . S
C1181 C1179 1.415 . S
C1182 H1172 0.930 . S
C1182 C1180 1.419 . S
C1182 C1183 1.362 . S
C1183 H1173 0.930 . S
C1183 C1176 1.409 . S
C1183 C1182 1.362 . S
H1184 C1190 0.930 . S
H1185 C1193 0.930 . S
H1186 C1194 0.930 . S
H1187 C1195 0.930 . S
H1188 C1198 0.930 . S
H1189 C1199 0.930 . S
C1190 H1184 0.930 . S
C1190 C1191 1.355 . S
C1190 C1192 1.415 . S
C1191 C1190 1.355 . S
C1191 C1193 1.419 . S
C1192 C1190 1.415 . S
C1192 C1197 1.425 . S
C1192 C1199 1.409 . S
C1193 H1185 0.930 . S
C1193 C1191 1.419 . S
C1193 C1194 1.362 . S
C1194 H1186 0.930 . S
C1194 C1193 1.362 . S
C1194 C1197 1.409 . S
C1195 H1187 0.930 . S
C1195 C1196 1.355 . S
C1195 C1197 1.415 . S
C1196 C1195 1.355 . S
C1196 C1198 1.419 . S
C1197 C1192 1.425 . S
C1197 C1194 1.409 . S
C1197 C1195 1.415 . S
C1198 H1188 0.930 . S
C1198 C1196 1.419 . S
C1198 C1199 1.362 . S
C1199 H1189 0.930 . S
C1199 C1192 1.409 . S
C1199 C1198 1.362 . S
H1200 C1206 0.930 . S
H1201 C1209 0.930 . S
H1202 C1210 0.930 . S
H1203 C1211 0.930 . S
H1204 C1214 0.930 . S
H1205 C1215 0.930 . S
C1206 H1200 0.930 . S
C1206 C1207 1.355 . S
C1206 C1208 1.415 . S
C1207 C1206 1.355 . S
C1207 C1209 1.419 . S
C1208 C1206 1.415 . S
C1208 C1213 1.425 . S
C1208 C1215 1.409 . S
C1209 H1201 0.930 . S
C1209 C1207 1.419 . S
C1209 C1210 1.362 . S
C1210 H1202 0.930 . S
C1210 C1209 1.362 . S
C1210 C1213 1.409 . S
C1211 H1203 0.930 . S
C1211 C1212 1.355 . S
C1211 C1213 1.415 . S
C1212 C1211 1.355 . S
C1212 C1214 1.419 . S
C1213 C1208 1.425 . S
C1213 C1210 1.409 . S
C1213 C1211 1.415 . S
C1214 H1204 0.930 . S
C1214 C1212 1.419 . S
C1214 C1215 1.362 . S
C1215 H1205 0.930 . S
C1215 C1208 1.409 . S
C1215 C1214 1.362 . S
H1216 C1222 0.930 . S
H1217 C1225 0.930 . S
H1218 C1226 0.930 . S
H1219 C1227 0.930 . S
H1220 C1230 0.930 . S
H1221 C1231 0.930 . S
C1222 H1216 0.930 . S
C1222 C1223 1.355 . S
C1222 C1224 1.415 . S
C1223 C1222 1.355 . S
C1223 C1225 1.419 . S
C1224 C1222 1.415 . S
C1224 C1229 1.425 . S
C1224 C1231 1.409 . S
C1225 H1217 0.930 . S
C1225 C1223 1.419 . S
C1225 C1226 1.362 . S
C1226 H1218 0.930 . S
C1226 C1225 1.362 . S
C1226 C1229 1.409 . S
C1227 H1219 0.930 . S
C1227 C1228 1.355 . S
C1227 C1229 1.415 . S
C1228 C1227 1.355 . S
C1228 C1230 1.419 . S
C1229 C1224 1.425 . S
C1229 C1226 1.409 . S
C1229 C1227 1.415 . S
C1230 H1220 0.930 . S
C1230 C1228 1.419 . S
C1230 C1231 1.362 . S
C1231 H1221 0.930 . S
C1231 C1224 1.409 . S
C1231 C1230 1.362 . S
H1232 C1238 0.930 . S
H1233 C1241 0.930 . S
H1234 C1242 0.930 . S
H1235 C1243 0.930 . S
H1236 C1246 0.930 . S
H1237 C1247 0.930 . S
C1238 H1232 0.930 . S
C1238 C1239 1.355 . S
C1238 C1240 1.415 . S
C1239 C1238 1.355 . S
C1239 C1241 1.419 . S
C1240 C1238 1.415 . S
C1240 C1245 1.425 . S
C1240 C1247 1.409 . S
C1241 H1233 0.930 . S
C1241 C1239 1.419 . S
C1241 C1242 1.362 . S
C1242 H1234 0.930 . S
C1242 C1241 1.362 . S
C1242 C1245 1.409 . S
C1243 H1235 0.930 . S
C1243 C1244 1.355 . S
C1243 C1245 1.415 . S
C1244 C1243 1.355 . S
C1244 C1246 1.419 . S
C1245 C1240 1.425 . S
C1245 C1242 1.409 . S
C1245 C1243 1.415 . S
C1246 H1236 0.930 . S
C1246 C1244 1.419 . S
C1246 C1247 1.362 . S
C1247 H1237 0.930 . S
C1247 C1240 1.409 . S
C1247 C1246 1.362 . S
H1248 C1254 0.930 . S
H1249 C1257 0.930 . S
H1250 C1258 0.930 . S
H1251 C1259 0.930 . S
H1252 C1262 0.930 . S
H1253 C1263 0.930 . S
C1254 H1248 0.930 . S
C1254 C1255 1.355 . S
C1254 C1256 1.415 . S
C1255 C1254 1.355 . S
C1255 C1257 1.419 . S
C1256 C1254 1.415 . S
C1256 C1261 1.425 . S
C1256 C1263 1.409 . S
C1257 H1249 0.930 . S
C1257 C1255 1.419 . S
C1257 C1258 1.362 . S
C1258 H1250 0.930 . S
C1258 C1257 1.362 . S
C1258 C1261 1.409 . S
C1259 H1251 0.930 . S
C1259 C1260 1.355 . S
C1259 C1261 1.415 . S
C1260 C1259 1.355 . S
C1260 C1262 1.419 . S
C1261 C1256 1.425 . S
C1261 C1258 1.409 . S
C1261 C1259 1.415 . S
C1262 H1252 0.930 . S
C1262 C1260 1.419 . S
C1262 C1263 1.362 . S
C1263 H1253 0.930 . S
C1263 C1256 1.409 . S
C1263 C1262 1.362 . S
H1264 C1270 0.930 . S
H1265 C1273 0.930 . S
H1266 C1274 0.930 . S
H1267 C1275 0.930 . S
H1268 C1278 0.930 . S
H1269 C1279 0.930 . S
C1270 H1264 0.930 . S
C1270 C1271 1.355 . S
C1270 C1272 1.415 . S
C1271 C1270 1.355 . S
C1271 C1273 1.419 . S
C1272 C1270 1.415 . S
C1272 C1277 1.425 . S
C1272 C1279 1.409 . S
C1273 H1265 0.930 . S
C1273 C1271 1.419 . S
C1273 C1274 1.362 . S
C1274 H1266 0.930 . S
C1274 C1273 1.362 . S
C1274 C1277 1.409 . S
C1275 H1267 0.930 . S
C1275 C1276 1.355 . S
C1275 C1277 1.415 . S
C1276 C1275 1.355 . S
C1276 C1278 1.419 . S
C1277 C1272 1.425 . S
C1277 C1274 1.409 . S
C1277 C1275 1.415 . S
C1278 H1268 0.930 . S
C1278 C1276 1.419 . S
C1278 C1279 1.362 . S
C1279 H1269 0.930 . S
C1279 C1272 1.409 . S
C1279 C1278 1.362 . S
H1280 C1286 0.930 . S
H1281 C1289 0.930 . S
H1282 C1290 0.930 . S
H1283 C1291 0.930 . S
H1284 C1294 0.930 . S
H1285 C1295 0.930 . S
C1286 H1280 0.930 . S
C1286 C1287 1.355 . S
C1286 C1288 1.415 . S
C1287 C1286 1.355 . S
C1287 C1289 1.419 . S
C1288 C1286 1.415 . S
C1288 C1293 1.425 . S
C1288 C1295 1.409 . S
C1289 H1281 0.930 . S
C1289 C1287 1.419 . S
C1289 C1290 1.362 . S
C1290 H1282 0.930 . S
C1290 C1289 1.362 . S
C1290 C1293 1.409 . S
C1291 H1283 0.930 . S
C1291 C1292 1.355 . S
C1291 C1293 1.415 . S
C1292 C1291 1.355 . S
C1292 C1294 1.419 . S
C1293 C1288 1.425 . S
C1293 C1290 1.409 . S
C1293 C1291 1.415 . S
C1294 H1284 0.930 . S
C1294 C1292 1.419 . S
C1294 C1295 1.362 . S
C1295 H1285 0.930 . S
C1295 C1288 1.409 . S
C1295 C1294 1.362 . S
H1296 C1302 0.930 . S
H1297 C1305 0.930 . S
H1298 C1306 0.930 . S
H1299 C1307 0.930 . S
H1300 C1310 0.930 . S
H1301 C1311 0.930 . S
C1302 H1296 0.930 . S
C1302 C1303 1.355 . S
C1302 C1304 1.415 . S
C1303 C1302 1.355 . S
C1303 C1305 1.419 . S
C1304 C1302 1.415 . S
C1304 C1309 1.425 . S
C1304 C1311 1.409 . S
C1305 H1297 0.930 . S
C1305 C1303 1.419 . S
C1305 C1306 1.362 . S
C1306 H1298 0.930 . S
C1306 C1305 1.362 . S
C1306 C1309 1.409 . S
C1307 H1299 0.930 . S
C1307 C1308 1.355 . S
C1307 C1309 1.415 . S
C1308 C1307 1.355 . S
C1308 C1310 1.419 . S
C1309 C1304 1.425 . S
C1309 C1306 1.409 . S
C1309 C1307 1.415 . S
C1310 H1300 0.930 . S
C1310 C1308 1.419 . S
C1310 C1311 1.362 . S
C1311 H1301 0.930 . S
C1311 C1304 1.409 . S
C1311 C1310 1.362 . S
H1312 C1318 0.930 . S
H1313 C1321 0.930 . S
H1314 C1322 0.930 . S
H1315 C1323 0.930 . S
H1316 C1326 0.930 . S
H1317 C1327 0.930 . S
C1318 H1312 0.930 . S
C1318 C1319 1.355 . S
C1318 C1320 1.415 . S
C1319 C1318 1.355 . S
C1319 C1321 1.419 . S
C1320 C1318 1.415 . S
C1320 C1325 1.425 . S
C1320 C1327 1.409 . S
C1321 H1313 0.930 . S
C1321 C1319 1.419 . S
C1321 C1322 1.362 . S
C1322 H1314 0.930 . S
C1322 C1321 1.362 . S
C1322 C1325 1.409 . S
C1323 H1315 0.930 . S
C1323 C1324 1.355 . S
C1323 C1325 1.415 . S
C1324 C1323 1.355 . S
C1324 C1326 1.419 . S
C1325 C1320 1.425 . S
C1325 C1322 1.409 . S
C1325 C1323 1.415 . S
C1326 H1316 0.930 . S
C1326 C1324 1.419 . S
C1326 C1327 1.362 . S
C1327 H1317 0.930 . S
C1327 C1320 1.409 . S
C1327 C1326 1.362 . S
H1328 C1334 0.930 . S
H1329 C1337 0.930 . S
H1330 C1338 0.930 . S
H1331 C1339 0.930 . S
H1332 C1342 0.930 . S
H1333 C1343 0.930 . S
C1334 H1328 0.930 . S
C1334 C1335 1.355 . S
C1334 C1336 1.415 . S
C1335 C1334 1.355 . S
C1335 C1337 1.419 . S
C1336 C1334 1.415 . S
C1336 C1341 1.425 . S
C1336 C1343 1.409 . S
C1337 H1329 0.930 . S
C1337 C1335 1.419 . S
C1337 C1338 1.362 . S
C1338 H1330 0.930 . S
C1338 C1337 1.362 . S
C1338 C1341 1.409 . S
C1339 H1331 0.930 . S
C1339 C1340 1.355 . S
C1339 C1341 1.415 . S
C1340 C1339 1.355 . S
C1340 C1342 1.419 . S
C1341 C1336 1.425 . S
C1341 C1338 1.409 . S
C1341 C1339 1.415 . S
C1342 H1332 0.930 . S
C1342 C1340 1.419 . S
C1342 C1343 1.362 . S
C1343 H1333 0.930 . S
C1343 C1336 1.409 . S
C1343 C1342 1.362 . S
H1344 C1350 0.930 . S
H1345 C1353 0.930 . S
H1346 C1354 0.930 . S
H1347 C1355 0.930 . S
H1348 C1358 0.930 . S
H1349 C1359 0.930 . S
C1350 H1344 0.930 . S
C1350 C1351 1.355 . S
C1350 C1352 1.415 . S
C1351 C1350 1.355 . S
C1351 C1353 1.419 . S
C1352 C1350 1.415 . S
C1352 C1357 1.425 . S
C1352 C1359 1.409 . S
C1353 H1345 0.930 . S
C1353 C1351 1.419 . S
C1353 C1354 1.362 . S
C1354 H1346 0.930 . S
C1354 C1353 1.362 . S
C1354 C1357 1.409 . S
C1355 H1347 0.930 . S
C1355 C1356 1.355 . S
C1355 C1357 1.415 . S
C1356 C1355 1.355 . S
C1356 C1358 1.419 . S
C1357 C1352 1.425 . S
C1357 C1354 1.409 . S
C1357 C1355 1.415 . S
C1358 H1348 0.930 . S
C1358 C1356 1.419 . S
C1358 C1359 1.362 . S
C1359 H1349 0.930 . S
C1359 C1352 1.409 . S
C1359 C1358 1.362 . S
H1360 C1366 0.930 . S
H1361 C1369 0.930 . S
H1362 C1370 0.930 . S
H1363 C1371 0.930 . S
H1364 C1374 0.930 . S
H1365 C1375 0.930 . S
C1366 H1360 0.930 . S
C1366 C1367 1.355 . S
C1366 C1368 1.415 . S
C1367 C1366 1.355 . S
C1367 C1369 1.419 . S
C1368 C1366 1.415 . S
C1368 C1373 1.425 . S
C1368 C1375 1.409 . S
C1369 H1361 0.930 . S
C1369 C1367 1.419 . S
C1369 C1370 1.362 . S
C1370 H1362 0.930 . S
C1370 C1369 1.362 . S
C1370 C1373 1.409 . S
C1371 H1363 0.930 . S
C1371 C1372 1.355 . S
C1371 C1373 1.415 . S
C1372 C1371 1.355 . S
C1372 C1374 1.419 . S
C1373 C1368 1.425 . S
C1373 C1370 1.409 . S
C1373 C1371 1.415 . S
C1374 H1364 0.930 . S
C1374 C1372 1.419 . S
C1374 C1375 1.362 . S
C1375 H1365 0.930 . S
C1375 C1368 1.409 . S
C1375 C1374 1.362 . S
H1376 C1382 0.930 . S
H1377 C1385 0.930 . S
H1378 C1386 0.930 . S
H1379 C1387 0.930 . S
H1380 C1390 0.930 . S
H1381 C1391 0.930 . S
C1382 H1376 0.930 . S
C1382 C1383 1.355 . S
C1382 C1384 1.415 . S
C1383 C1382 1.355 . S
C1383 C1385 1.419 . S
C1384 C1382 1.415 . S
C1384 C1389 1.425 . S
C1384 C1391 1.409 . S
C1385 H1377 0.930 . S
C1385 C1383 1.419 . S
C1385 C1386 1.362 . S
C1386 H1378 0.930 . S
C1386 C1385 1.362 . S
C1386 C1389 1.409 . S
C1387 H1379 0.930 . S
C1387 C1388 1.355 . S
C1387 C1389 1.415 . S
C1388 C1387 1.355 . S
C1388 C1390 1.419 . S
C1389 C1384 1.425 . S
C1389 C1386 1.409 . S
C1389 C1387 1.415 . S
C1390 H1380 0.930 . S
C1390 C1388 1.419 . S
C1390 C1391 1.362 . S
C1391 H1381 0.930 . S
C1391 C1384 1.409 . S
C1391 C1390 1.362 . S
H1392 C1398 0.930 . S
H1393 C1401 0.930 . S
H1394 C1402 0.930 . S
H1395 C1403 0.930 . S
H1396 C1406 0.930 . S
H1397 C1407 0.930 . S
C1398 H1392 0.930 . S
C1398 C1399 1.355 . S
C1398 C1400 1.415 . S
C1399 C1398 1.355 . S
C1399 C1401 1.419 . S
C1400 C1398 1.415 . S
C1400 C1405 1.425 . S
C1400 C1407 1.409 . S
C1401 H1393 0.930 . S
C1401 C1399 1.419 . S
C1401 C1402 1.362 . S
C1402 H1394 0.930 . S
C1402 C1401 1.362 . S
C1402 C1405 1.409 . S
C1403 H1395 0.930 . S
C1403 C1404 1.355 . S
C1403 C1405 1.415 . S
C1404 C1403 1.355 . S
C1404 C1406 1.419 . S
C1405 C1400 1.425 . S
C1405 C1402 1.409 . S
C1405 C1403 1.415 . S
C1406 H1396 0.930 . S
C1406 C1404 1.419 . S
C1406 C1407 1.362 . S
C1407 H1397 0.930 . S
C1407 C1400 1.409 . S
C1407 C1406 1.362 . S
H1408 C1414 0.930 . S
H1409 C1417 0.930 . S
H1410 C1418 0.930 . S
H1411 C1419 0.930 . S
H1412 C1422 0.930 . S
H1413 C1423 0.930 . S
C1414 H1408 0.930 . S
C1414 C1415 1.355 . S
C1414 C1416 1.415 . S
C1415 C1414 1.355 . S
C1415 C1417 1.419 . S
C1416 C1414 1.415 . S
C1416 C1421 1.425 1_554 S
C1416 C1423 1.409 1_554 S
C1417 H1409 0.930 . S
C1417 C1415 1.419 . S
C1417 C1418 1.362 . S
C1418 H1410 0.930 . S
C1418 C1417 1.362 . S
C1418 C1421 1.409 1_554 S
C1419 H1411 0.930 . S
C1419 C1420 1.355 . S
C1419 C1421 1.415 . S
C1420 C1419 1.355 . S
C1420 C1422 1.419 . S
C1421 C1416 1.425 1_556 S
C1421 C1418 1.409 1_556 S
C1421 C1419 1.415 . S
C1422 H1412 0.930 . S
C1422 C1420 1.419 . S
C1422 C1423 1.362 . S
C1423 H1413 0.930 . S
C1423 C1416 1.409 1_556 S
C1423 C1422 1.362 . S
H1424 C1430 0.930 . S
H1425 C1433 0.930 . S
H1426 C1434 0.930 . S
H1427 C1435 0.930 . S
H1428 C1438 0.930 . S
H1429 C1439 0.930 . S
C1430 H1424 0.930 . S
C1430 C1431 1.355 . S
C1430 C1432 1.415 . S
C1431 C1430 1.355 . S
C1431 C1433 1.419 . S
C1432 C1430 1.415 . S
C1432 C1437 1.425 1_556 S
C1432 C1439 1.409 1_556 S
C1433 H1425 0.930 . S
C1433 C1431 1.419 . S
C1433 C1434 1.362 . S
C1434 H1426 0.930 . S
C1434 C1433 1.362 . S
C1434 C1437 1.409 1_556 S
C1435 H1427 0.930 . S
C1435 C1436 1.355 . S
C1435 C1437 1.415 . S
C1436 C1435 1.355 . S
C1436 C1438 1.419 . S
C1437 C1432 1.425 1_554 S
C1437 C1434 1.409 1_554 S
C1437 C1435 1.415 . S
C1438 H1428 0.930 . S
C1438 C1436 1.419 . S
C1438 C1439 1.362 . S
C1439 H1429 0.930 . S
C1439 C1432 1.409 1_554 S
C1439 C1438 1.362 . S
H1440 C1446 0.930 . S
H1441 C1449 0.930 . S
H1442 C1450 0.930 . S
H1443 C1451 0.930 . S
H1444 C1454 0.930 . S
H1445 C1455 0.930 . S
C1446 H1440 0.930 . S
C1446 C1447 1.355 . S
C1446 C1448 1.415 . S
C1447 C1446 1.355 . S
C1447 C1449 1.419 . S
C1448 C1446 1.415 . S
C1448 C1453 1.425 1_556 S
C1448 C1455 1.409 1_556 S
C1449 H1441 0.930 . S
C1449 C1447 1.419 . S
C1449 C1450 1.362 . S
C1450 H1442 0.930 . S
C1450 C1449 1.362 . S
C1450 C1453 1.409 1_556 S
C1451 H1443 0.930 . S
C1451 C1452 1.355 . S
C1451 C1453 1.415 . S
C1452 C1451 1.355 . S
C1452 C1454 1.419 . S
C1453 C1448 1.425 1_554 S
C1453 C1450 1.409 1_554 S
C1453 C1451 1.415 . S
C1454 H1444 0.930 . S
C1454 C1452 1.419 . S
C1454 C1455 1.362 . S
C1455 H1445 0.930 . S
C1455 C1448 1.409 1_554 S
C1455 C1454 1.362 . S
H1456 C1462 0.930 . S
H1457 C1465 0.930 . S
H1458 C1466 0.930 . S
H1459 C1467 0.930 . S
H1460 C1470 0.930 . S
H1461 C1471 0.930 . S
C1462 H1456 0.930 . S
C1462 C1463 1.355 . S
C1462 C1464 1.415 . S
C1463 C1462 1.355 . S
C1463 C1465 1.419 . S
C1464 C1462 1.415 . S
C1464 C1469 1.425 1_556 S
C1464 C1471 1.409 1_556 S
C1465 H1457 0.930 . S
C1465 C1463 1.419 . S
C1465 C1466 1.362 . S
C1466 H1458 0.930 . S
C1466 C1465 1.362 . S
C1466 C1469 1.409 1_556 S
C1467 H1459 0.930 . S
C1467 C1468 1.355 . S
C1467 C1469 1.415 . S
C1468 C1467 1.355 . S
C1468 C1470 1.419 . S
C1469 C1464 1.425 1_554 S
C1469 C1466 1.409 1_554 S
C1469 C1467 1.415 . S
C1470 H1460 0.930 . S
C1470 C1468 1.419 . S
C1470 C1471 1.362 . S
C1471 H1461 0.930 . S
C1471 C1464 1.409 1_554 S
C1471 C1470 1.362 . S
H1472 C1478 0.930 . S
H1473 C1481 0.930 . S
H1474 C1482 0.930 . S
H1475 C1483 0.930 . S
H1476 C1486 0.930 . S
H1477 C1487 0.930 . S
C1478 H1472 0.930 . S
C1478 C1479 1.355 . S
C1478 C1480 1.415 . S
C1479 C1478 1.355 . S
C1479 C1481 1.419 . S
C1480 C1478 1.415 . S
C1480 C1485 1.425 . S
C1480 C1487 1.409 . S
C1481 H1473 0.930 . S
C1481 C1479 1.419 . S
C1481 C1482 1.362 . S
C1482 H1474 0.930 . S
C1482 C1481 1.362 . S
C1482 C1485 1.409 . S
C1483 H1475 0.930 . S
C1483 C1484 1.355 . S
C1483 C1485 1.415 . S
C1484 C1483 1.355 . S
C1484 C1486 1.419 . S
C1485 C1480 1.425 . S
C1485 C1482 1.409 . S
C1485 C1483 1.415 . S
C1486 H1476 0.930 . S
C1486 C1484 1.419 . S
C1486 C1487 1.362 . S
C1487 H1477 0.930 . S
C1487 C1480 1.409 . S
C1487 C1486 1.362 . S
H1488 C1494 0.930 . S
H1489 C1497 0.930 . S
H1490 C1498 0.930 . S
H1491 C1499 0.930 . S
H1492 C1502 0.930 . S
H1493 C1503 0.930 . S
C1494 H1488 0.930 . S
C1494 C1495 1.355 . S
C1494 C1496 1.415 . S
C1495 C1494 1.355 . S
C1495 C1497 1.419 . S
C1496 C1494 1.415 . S
C1496 C1501 1.425 . S
C1496 C1503 1.409 . S
C1497 H1489 0.930 . S
C1497 C1495 1.419 . S
C1497 C1498 1.362 . S
C1498 H1490 0.930 . S
C1498 C1497 1.362 . S
C1498 C1501 1.409 . S
C1499 H1491 0.930 . S
C1499 C1500 1.355 . S
C1499 C1501 1.415 . S
C1500 C1499 1.355 . S
C1500 C1502 1.419 . S
C1501 C1496 1.425 . S
C1501 C1498 1.409 . S
C1501 C1499 1.415 . S
C1502 H1492 0.930 . S
C1502 C1500 1.419 . S
C1502 C1503 1.362 . S
C1503 H1493 0.930 . S
C1503 C1496 1.409 . S
C1503 C1502 1.362 . S
H1504 C1510 0.930 . S
H1505 C1513 0.930 . S
H1506 C1514 0.930 . S
H1507 C1515 0.930 . S
H1508 C1518 0.930 . S
H1509 C1519 0.930 . S
C1510 H1504 0.930 . S
C1510 C1511 1.355 . S
C1510 C1512 1.415 . S
C1511 C1510 1.355 . S
C1511 C1513 1.419 . S
C1512 C1510 1.415 . S
C1512 C1517 1.425 . S
C1512 C1519 1.409 . S
C1513 H1505 0.930 . S
C1513 C1511 1.419 . S
C1513 C1514 1.362 . S
C1514 H1506 0.930 . S
C1514 C1513 1.362 . S
C1514 C1517 1.409 . S
C1515 H1507 0.930 . S
C1515 C1516 1.355 . S
C1515 C1517 1.415 . S
C1516 C1515 1.355 . S
C1516 C1518 1.419 . S
C1517 C1512 1.425 . S
C1517 C1514 1.409 . S
C1517 C1515 1.415 . S
C1518 H1508 0.930 . S
C1518 C1516 1.419 . S
C1518 C1519 1.362 . S
C1519 H1509 0.930 . S
C1519 C1512 1.409 . S
C1519 C1518 1.362 . S
H1520 C1526 0.930 . S
H1521 C1529 0.930 . S
H1522 C1530 0.930 . S
H1523 C1531 0.930 . S
H1524 C1534 0.930 . S
H1525 C1535 0.930 . S
C1526 H1520 0.930 . S
C1526 C1527 1.355 . S
C1526 C1528 1.415 . S
C1527 C1526 1.355 . S
C1527 C1529 1.419 . S
C1528 C1526 1.415 . S
C1528 C1533 1.425 . S
C1528 C1535 1.409 . S
C1529 H1521 0.930 . S
C1529 C1527 1.419 . S
C1529 C1530 1.362 . S
C1530 H1522 0.930 . S
C1530 C1529 1.362 . S
C1530 C1533 1.409 . S
C1531 H1523 0.930 . S
C1531 C1532 1.355 . S
C1531 C1533 1.415 . S
C1532 C1531 1.355 . S
C1532 C1534 1.419 . S
C1533 C1528 1.425 . S
C1533 C1530 1.409 . S
C1533 C1531 1.415 . S
C1534 H1524 0.930 . S
C1534 C1532 1.419 . S
C1534 C1535 1.362 . S
C1535 H1525 0.930 . S
C1535 C1528 1.409 . S
C1535 C1534 1.362 . S
H1536 C1542 0.930 . S
H1537 C1545 0.930 . S
H1538 C1546 0.930 . S
H1539 C1547 0.930 . S
H1540 C1550 0.930 . S
H1541 C1551 0.930 . S
C1542 H1536 0.930 . S
C1542 C1543 1.355 . S
C1542 C1544 1.415 . S
C1543 C1542 1.355 . S
C1543 C1545 1.419 . S
C1544 C1542 1.415 . S
C1544 C1549 1.425 . S
C1544 C1551 1.409 . S
C1545 H1537 0.930 . S
C1545 C1543 1.419 . S
C1545 C1546 1.362 . S
C1546 H1538 0.930 . S
C1546 C1545 1.362 . S
C1546 C1549 1.409 . S
C1547 H1539 0.930 . S
C1547 C1548 1.355 . S
C1547 C1549 1.415 . S
C1548 C1547 1.355 . S
C1548 C1550 1.419 . S
C1549 C1544 1.425 . S
C1549 C1546 1.409 . S
C1549 C1547 1.415 . S
C1550 H1540 0.930 . S
C1550 C1548 1.419 . S
C1550 C1551 1.362 . S
C1551 H1541 0.930 . S
C1551 C1544 1.409 . S
C1551 C1550 1.362 . S
H1552 C1558 0.930 . S
H1553 C1561 0.930 . S
H1554 C1562 0.930 . S
H1555 C1563 0.930 . S
H1556 C1566 0.930 . S
H1557 C1567 0.930 . S
C1558 H1552 0.930 . S
C1558 C1559 1.355 . S
C1558 C1560 1.415 . S
C1559 C1558 1.355 . S
C1559 C1561 1.419 . S
C1560 C1558 1.415 . S
C1560 C1565 1.425 . S
C1560 C1567 1.409 . S
C1561 H1553 0.930 . S
C1561 C1559 1.419 . S
C1561 C1562 1.362 . S
C1562 H1554 0.930 . S
C1562 C1561 1.362 . S
C1562 C1565 1.409 . S
C1563 H1555 0.930 . S
C1563 C1564 1.355 . S
C1563 C1565 1.415 . S
C1564 C1563 1.355 . S
C1564 C1566 1.419 . S
C1565 C1560 1.425 . S
C1565 C1562 1.409 . S
C1565 C1563 1.415 . S
C1566 H1556 0.930 . S
C1566 C1564 1.419 . S
C1566 C1567 1.362 . S
C1567 H1557 0.930 . S
C1567 C1560 1.409 . S
C1567 C1566 1.362 . S
H1568 C1574 0.930 . S
H1569 C1577 0.930 . S
H1570 C1578 0.930 . S
H1571 C1579 0.930 . S
H1572 C1582 0.930 . S
H1573 C1583 0.930 . S
C1574 H1568 0.930 . S
C1574 C1575 1.355 . S
C1574 C1576 1.415 . S
C1575 C1574 1.355 . S
C1575 C1577 1.419 . S
C1576 C1574 1.415 . S
C1576 C1581 1.425 . S
C1576 C1583 1.409 . S
C1577 H1569 0.930 . S
C1577 C1575 1.419 . S
C1577 C1578 1.362 . S
C1578 H1570 0.930 . S
C1578 C1577 1.362 . S
C1578 C1581 1.409 . S
C1579 H1571 0.930 . S
C1579 C1580 1.355 . S
C1579 C1581 1.415 . S
C1580 C1579 1.355 . S
C1580 C1582 1.419 . S
C1581 C1576 1.425 . S
C1581 C1578 1.409 . S
C1581 C1579 1.415 . S
C1582 H1572 0.930 . S
C1582 C1580 1.419 . S
C1582 C1583 1.362 . S
C1583 H1573 0.930 . S
C1583 C1576 1.409 . S
C1583 C1582 1.362 . S
H1584 C1590 0.930 . S
H1585 C1593 0.930 . S
H1586 C1594 0.930 . S
H1587 C1595 0.930 . S
H1588 C1598 0.930 . S
H1589 C1599 0.930 . S
C1590 H1584 0.930 . S
C1590 C1591 1.355 . S
C1590 C1592 1.415 . S
C1591 C1590 1.355 . S
C1591 C1593 1.419 . S
C1592 C1590 1.415 . S
C1592 C1597 1.425 . S
C1592 C1599 1.409 . S
C1593 H1585 0.930 . S
C1593 C1591 1.419 . S
C1593 C1594 1.362 . S
C1594 H1586 0.930 . S
C1594 C1593 1.362 . S
C1594 C1597 1.409 . S
C1595 H1587 0.930 . S
C1595 C1596 1.355 . S
C1595 C1597 1.415 . S
C1596 C1595 1.355 . S
C1596 C1598 1.419 . S
C1597 C1592 1.425 . S
C1597 C1594 1.409 . S
C1597 C1595 1.415 . S
C1598 H1588 0.930 . S
C1598 C1596 1.419 . S
C1598 C1599 1.362 . S
C1599 H1589 0.930 . S
C1599 C1592 1.409 . S
C1599 C1598 1.362 . S
H1600 C1606 0.930 . S
H1601 C1609 0.930 . S
H1602 C1610 0.930 . S
H1603 C1611 0.930 . S
H1604 C1614 0.930 . S
H1605 C1615 0.930 . S
C1606 H1600 0.930 . S
C1606 C1607 1.355 . S
C1606 C1608 1.415 . S
C1607 C1606 1.355 . S
C1607 C1609 1.419 . S
C1608 C1606 1.415 . S
C1608 C1613 1.425 1_556 S
C1608 C1615 1.409 1_556 S
C1609 H1601 0.930 . S
C1609 C1607 1.419 . S
C1609 C1610 1.362 . S
C1610 H1602 0.930 . S
C1610 C1609 1.362 . S
C1610 C1613 1.409 1_556 S
C1611 H1603 0.930 . S
C1611 C1612 1.355 . S
C1611 C1613 1.415 . S
C1612 C1611 1.355 . S
C1612 C1614 1.419 . S
C1613 C1608 1.425 1_554 S
C1613 C1610 1.409 1_554 S
C1613 C1611 1.415 . S
C1614 H1604 0.930 . S
C1614 C1612 1.419 . S
C1614 C1615 1.362 . S
C1615 H1605 0.930 . S
C1615 C1608 1.409 1_554 S
C1615 C1614 1.362 . S
H1616 C1622 0.930 . S
H1617 C1625 0.930 . S
H1618 C1626 0.930 . S
H1619 C1627 0.930 . S
H1620 C1630 0.930 . S
H1621 C1631 0.930 . S
C1622 H1616 0.930 . S
C1622 C1623 1.355 . S
C1622 C1624 1.415 . S
C1623 C1622 1.355 . S
C1623 C1625 1.419 . S
C1624 C1622 1.415 . S
C1624 C1629 1.425 1_554 S
C1624 C1631 1.409 1_554 S
C1625 H1617 0.930 . S
C1625 C1623 1.419 . S
C1625 C1626 1.362 . S
C1626 H1618 0.930 . S
C1626 C1625 1.362 . S
C1626 C1629 1.409 1_554 S
C1627 H1619 0.930 . S
C1627 C1628 1.355 . S
C1627 C1629 1.415 . S
C1628 C1627 1.355 . S
C1628 C1630 1.419 . S
C1629 C1624 1.425 1_556 S
C1629 C1626 1.409 1_556 S
C1629 C1627 1.415 . S
C1630 H1620 0.930 . S
C1630 C1628 1.419 . S
C1630 C1631 1.362 . S
C1631 H1621 0.930 . S
C1631 C1624 1.409 1_556 S
C1631 C1630 1.362 . S
H1632 C1638 0.930 . S
H1633 C1641 0.930 . S
H1634 C1642 0.930 . S
H1635 C1643 0.930 . S
H1636 C1646 0.930 . S
H1637 C1647 0.930 . S
C1638 H1632 0.930 . S
C1638 C1639 1.355 . S
C1638 C1640 1.415 . S
C1639 C1638 1.355 . S
C1639 C1641 1.419 . S
C1640 C1638 1.415 . S
C1640 C1645 1.425 1_554 S
C1640 C1647 1.409 1_554 S
C1641 H1633 0.930 . S
C1641 C1639 1.419 . S
C1641 C1642 1.362 . S
C1642 H1634 0.930 . S
C1642 C1641 1.362 . S
C1642 C1645 1.409 1_554 S
C1643 H1635 0.930 . S
C1643 C1644 1.355 . S
C1643 C1645 1.415 . S
C1644 C1643 1.355 . S
C1644 C1646 1.419 . S
C1645 C1640 1.425 1_556 S
C1645 C1642 1.409 1_556 S
C1645 C1643 1.415 . S
C1646 H1636 0.930 . S
C1646 C1644 1.419 . S
C1646 C1647 1.362 . S
C1647 H1637 0.930 . S
C1647 C1640 1.409 1_556 S
C1647 C1646 1.362 . S
H1648 C1654 0.930 . S
H1649 C1657 0.930 . S
H1650 C1658 0.930 . S
H1651 C1659 0.930 . S
H1652 C1662 0.930 . S
H1653 C1663 0.930 . S
C1654 H1648 0.930 . S
C1654 C1655 1.355 . S
C1654 C1656 1.415 . S
C1655 C1654 1.355 . S
C1655 C1657 1.419 . S
C1656 C1654 1.415 . S
C1656 C1661 1.425 1_556 S
C1656 C1663 1.409 1_556 S
C1657 H1649 0.930 . S
C1657 C1655 1.419 . S
C1657 C1658 1.362 . S
C1658 H1650 0.930 . S
C1658 C1657 1.362 . S
C1658 C1661 1.409 1_556 S
C1659 H1651 0.930 . S
C1659 C1660 1.355 . S
C1659 C1661 1.415 . S
C1660 C1659 1.355 . S
C1660 C1662 1.419 . S
C1661 C1656 1.425 1_554 S
C1661 C1658 1.409 1_554 S
C1661 C1659 1.415 . S
C1662 H1652 0.930 . S
C1662 C1660 1.419 . S
C1662 C1663 1.362 . S
C1663 H1653 0.930 . S
C1663 C1656 1.409 1_554 S
C1663 C1662 1.362 . S
H1664 C1670 0.930 . S
H1665 C1673 0.930 . S
H1666 C1674 0.930 . S
H1667 C1675 0.930 . S
H1668 C1678 0.930 . S
H1669 C1679 0.930 . S
C1670 H1664 0.930 . S
C1670 C1671 1.355 . S
C1670 C1672 1.415 . S
C1671 C1670 1.355 . S
C1671 C1673 1.419 . S
C1672 C1670 1.415 . S
C1672 C1677 1.425 1_545 S
C1672 C1679 1.409 . S
C1673 H1665 0.930 . S
C1673 C1671 1.419 . S
C1673 C1674 1.362 1_545 S
C1674 H1666 0.930 . S
C1674 C1673 1.362 1_565 S
C1674 C1677 1.409 . S
C1675 H1667 0.930 . S
C1675 C1676 1.355 . S
C1675 C1677 1.415 . S
C1676 C1675 1.355 . S
C1676 C1678 1.419 . S
C1677 C1672 1.425 1_565 S
C1677 C1674 1.409 . S
C1677 C1675 1.415 . S
C1678 H1668 0.930 . S
C1678 C1676 1.419 . S
C1678 C1679 1.362 1_565 S
C1679 H1669 0.930 . S
C1679 C1672 1.409 . S
C1679 C1678 1.362 1_545 S
H1680 C1686 0.930 . S
H1681 C1689 0.930 . S
H1682 C1690 0.930 . S
H1683 C1691 0.930 . S
H1684 C1694 0.930 . S
H1685 C1695 0.930 . S
C1686 H1680 0.930 . S
C1686 C1687 1.355 . S
C1686 C1688 1.419 . S
C1687 C1686 1.355 . S
C1687 C1689 1.419 . S
C1688 C1686 1.419 . S
C1688 C1693 1.425 1_655 S
C1688 C1695 1.404 1_655 S
C1689 H1681 0.930 . S
C1689 C1687 1.419 . S
C1689 C1690 1.362 . S
C1690 H1682 0.930 . S
C1690 C1689 1.362 . S
C1690 C1693 1.404 1_655 S
C1691 H1683 0.930 . S
C1691 C1692 1.355 . S
C1691 C1693 1.419 . S
C1692 C1691 1.355 . S
C1692 C1694 1.419 . S
C1693 C1688 1.425 1_455 S
C1693 C1690 1.404 1_455 S
C1693 C1691 1.419 . S
C1694 H1684 0.930 . S
C1694 C1692 1.419 . S
C1694 C1695 1.362 . S
C1695 H1685 0.930 . S
C1695 C1688 1.404 1_455 S
C1695 C1694 1.362 . S
H1696 C1702 0.930 . S
H1697 C1705 0.930 . S
H1698 C1706 0.930 . S
H1699 C1707 0.930 . S
H1700 C1710 0.930 . S
H1701 C1711 0.930 . S
C1702 H1696 0.930 . S
C1702 C1703 1.355 . S
C1702 C1704 1.415 1_545 S
C1703 C1702 1.355 . S
C1703 C1705 1.419 . S
C1704 C1702 1.415 1_565 S
C1704 C1709 1.425 1_565 S
C1704 C1711 1.409 . S
C1705 H1697 0.930 . S
C1705 C1703 1.419 . S
C1705 C1706 1.362 . S
C1706 H1698 0.930 . S
C1706 C1705 1.362 . S
C1706 C1709 1.409 . S
C1707 H1699 0.930 . S
C1707 C1708 1.355 . S
C1707 C1709 1.415 1_565 S
C1708 C1707 1.355 . S
C1708 C1710 1.419 . S
C1709 C1704 1.425 1_545 S
C1709 C1706 1.409 . S
C1709 C1707 1.415 1_545 S
C1710 H1700 0.930 . S
C1710 C1708 1.419 . S
C1710 C1711 1.362 . S
C1711 H1701 0.930 . S
C1711 C1704 1.409 . S
C1711 C1710 1.362 . S
H1712 C1718 0.930 . S
H1713 C1721 0.930 . S
H1714 C1722 0.930 . S
H1715 C1723 0.930 . S
H1716 C1726 0.930 . S
H1717 C1727 0.930 . S
C1718 H1712 0.930 . S
C1718 C1719 1.355 . S
C1718 C1720 1.398 1_455 S
C1719 C1718 1.355 . S
C1719 C1721 1.419 . S
C1720 C1718 1.398 1_655 S
C1720 C1725 1.424 1_655 S
C1720 C1727 1.427 . S
C1721 H1713 0.930 . S
C1721 C1719 1.419 . S
C1721 C1722 1.362 . S
C1722 H1714 0.930 . S
C1722 C1721 1.362 . S
C1722 C1725 1.427 . S
C1723 H1715 0.930 . S
C1723 C1724 1.355 . S
C1723 C1725 1.398 1_655 S
C1724 C1723 1.355 . S
C1724 C1726 1.419 . S
C1725 C1720 1.424 1_455 S
C1725 C1722 1.427 . S
C1725 C1723 1.398 1_455 S
C1726 H1716 0.930 . S
C1726 C1724 1.419 . S
C1726 C1727 1.362 . S
C1727 H1717 0.930 . S
C1727 C1720 1.427 . S
C1727 C1726 1.362 . S
H1728 C1734 0.930 . S
H1729 C1737 0.930 . S
H1730 C1738 0.930 . S
H1731 C1739 0.930 . S
H1732 C1742 0.930 . S
H1733 C1743 0.930 . S
C1734 H1728 0.930 . S
C1734 C1735 1.355 . S
C1734 C1736 1.395 1_565 S
C1735 C1734 1.355 . S
C1735 C1737 1.419 . S
C1736 C1734 1.395 1_545 S
C1736 C1741 1.424 1_545 S
C1736 C1743 1.430 . S
C1737 H1729 0.930 . S
C1737 C1735 1.419 . S
C1737 C1738 1.362 . S
C1738 H1730 0.930 . S
C1738 C1737 1.362 . S
C1738 C1741 1.430 . S
C1739 H1731 0.930 . S
C1739 C1740 1.355 . S
C1739 C1741 1.395 1_545 S
C1740 C1739 1.355 . S
C1740 C1742 1.419 . S
C1741 C1736 1.424 1_565 S
C1741 C1738 1.430 . S
C1741 C1739 1.395 1_565 S
C1742 H1732 0.930 . S
C1742 C1740 1.419 . S
C1742 C1743 1.362 . S
C1743 H1733 0.930 . S
C1743 C1736 1.430 . S
C1743 C1742 1.362 . S
H1744 C1750 0.930 . S
H1745 C1753 0.930 . S
H1746 C1754 0.930 . S
H1747 C1755 0.930 . S
H1748 C1758 0.930 . S
H1749 C1759 0.930 . S
C1750 H1744 0.930 . S
C1750 C1751 1.355 . S
C1750 C1752 1.415 . S
C1751 C1750 1.355 . S
C1751 C1753 1.419 . S
C1752 C1750 1.415 . S
C1752 C1757 1.425 1_655 S
C1752 C1759 1.409 . S
C1753 H1745 0.930 . S
C1753 C1751 1.419 . S
C1753 C1754 1.362 1_655 S
C1754 H1746 0.930 . S
C1754 C1753 1.362 1_455 S
C1754 C1757 1.409 . S
C1755 H1747 0.930 . S
C1755 C1756 1.355 . S
C1755 C1757 1.415 . S
C1756 C1755 1.355 . S
C1756 C1758 1.419 . S
C1757 C1752 1.425 1_455 S
C1757 C1754 1.409 . S
C1757 C1755 1.415 . S
C1758 H1748 0.930 . S
C1758 C1756 1.419 . S
C1758 C1759 1.362 1_455 S
C1759 H1749 0.930 . S
C1759 C1752 1.409 . S
C1759 C1758 1.362 1_655 S
H1760 C1766 0.930 . S
H1761 C1769 0.930 . S
H1762 C1770 0.930 . S
H1763 C1771 0.930 . S
H1764 C1774 0.930 . S
H1765 C1775 0.930 . S
C1766 H1760 0.930 . S
C1766 C1767 1.355 . S
C1766 C1768 1.415 . S
C1767 C1766 1.355 . S
C1767 C1769 1.419 . S
C1768 C1766 1.415 . S
C1768 C1773 1.425 1_565 S
C1768 C1775 1.409 . S
C1769 H1761 0.930 . S
C1769 C1767 1.419 . S
C1769 C1770 1.362 1_565 S
C1770 H1762 0.930 . S
C1770 C1769 1.362 1_545 S
C1770 C1773 1.409 . S
C1771 H1763 0.930 . S
C1771 C1772 1.355 . S
C1771 C1773 1.415 . S
C1772 C1771 1.355 . S
C1772 C1774 1.419 . S
C1773 C1768 1.425 1_545 S
C1773 C1770 1.409 . S
C1773 C1771 1.415 . S
C1774 H1764 0.930 . S
C1774 C1772 1.419 . S
C1774 C1775 1.362 1_545 S
C1775 H1765 0.930 . S
C1775 C1768 1.409 . S
C1775 C1774 1.362 1_565 S
H1776 C1782 0.930 . S
H1777 C1785 0.930 . S
H1778 C1786 0.930 . S
H1779 C1787 0.930 . S
H1780 C1790 0.930 . S
H1781 C1791 0.930 . S
C1782 H1776 0.930 . S
C1782 C1783 1.355 . S
C1782 C1784 1.415 . S
C1783 C1782 1.355 . S
C1783 C1785 1.419 . S
C1784 C1782 1.415 . S
C1784 C1789 1.425 1_655 S
C1784 C1791 1.409 . S
C1785 H1777 0.930 . S
C1785 C1783 1.419 . S
C1785 C1786 1.362 1_655 S
C1786 H1778 0.930 . S
C1786 C1785 1.362 1_455 S
C1786 C1789 1.409 . S
C1787 H1779 0.930 . S
C1787 C1788 1.355 . S
C1787 C1789 1.415 . S
C1788 C1787 1.355 . S
C1788 C1790 1.419 . S
C1789 C1784 1.425 1_455 S
C1789 C1786 1.409 . S
C1789 C1787 1.415 . S
C1790 H1780 0.930 . S
C1790 C1788 1.419 . S
C1790 C1791 1.362 1_455 S
C1791 H1781 0.930 . S
C1791 C1784 1.409 . S
C1791 C1790 1.362 1_655 S
H1792 C1798 0.930 . S
H1793 C1801 0.930 . S
H1794 C1802 0.930 . S
H1795 C1803 0.930 . S
H1796 C1806 0.930 . S
H1797 C1807 0.930 . S
C1798 H1792 0.930 . S
C1798 C1799 1.355 . S
C1798 C1800 1.415 . S
C1799 C1798 1.355 . S
C1799 C1801 1.419 . S
C1800 C1798 1.415 . S
C1800 C1805 1.425 . S
C1800 C1807 1.409 . S
C1801 H1793 0.930 . S
C1801 C1799 1.419 . S
C1801 C1802 1.362 . S
C1802 H1794 0.930 . S
C1802 C1801 1.362 . S
C1802 C1805 1.409 . S
C1803 H1795 0.930 . S
C1803 C1804 1.355 . S
C1803 C1805 1.415 . S
C1804 C1803 1.355 . S
C1804 C1806 1.419 . S
C1805 C1800 1.425 . S
C1805 C1802 1.409 . S
C1805 C1803 1.415 . S
C1806 H1796 0.930 . S
C1806 C1804 1.419 . S
C1806 C1807 1.362 . S
C1807 H1797 0.930 . S
C1807 C1800 1.409 . S
C1807 C1806 1.362 . S
H1808 C1814 0.930 . S
H1809 C1817 0.930 . S
H1810 C1818 0.930 . S
H1811 C1819 0.930 . S
H1812 C1822 0.930 . S
H1813 C1823 0.930 . S
C1814 H1808 0.930 . S
C1814 C1815 1.355 . S
C1814 C1816 1.415 . S
C1815 C1814 1.355 . S
C1815 C1817 1.419 . S
C1816 C1814 1.415 . S
C1816 C1821 1.425 . S
C1816 C1823 1.409 . S
C1817 H1809 0.930 . S
C1817 C1815 1.419 . S
C1817 C1818 1.362 . S
C1818 H1810 0.930 . S
C1818 C1817 1.362 . S
C1818 C1821 1.409 . S
C1819 H1811 0.930 . S
C1819 C1820 1.355 . S
C1819 C1821 1.415 . S
C1820 C1819 1.355 . S
C1820 C1822 1.419 . S
C1821 C1816 1.425 . S
C1821 C1818 1.409 . S
C1821 C1819 1.415 . S
C1822 H1812 0.930 . S
C1822 C1820 1.419 . S
C1822 C1823 1.362 . S
C1823 H1813 0.930 . S
C1823 C1816 1.409 . S
C1823 C1822 1.362 . S
H1824 C1830 0.930 . S
H1825 C1833 0.930 . S
H1826 C1834 0.930 . S
H1827 C1835 0.930 . S
H1828 C1838 0.930 . S
H1829 C1839 0.930 . S
C1830 H1824 0.930 . S
C1830 C1831 1.355 . S
C1830 C1832 1.415 . S
C1831 C1830 1.355 . S
C1831 C1833 1.419 . S
C1832 C1830 1.415 . S
C1832 C1837 1.425 . S
C1832 C1839 1.409 . S
C1833 H1825 0.930 . S
C1833 C1831 1.419 . S
C1833 C1834 1.362 . S
C1834 H1826 0.930 . S
C1834 C1833 1.362 . S
C1834 C1837 1.409 . S
C1835 H1827 0.930 . S
C1835 C1836 1.355 . S
C1835 C1837 1.415 . S
C1836 C1835 1.355 . S
C1836 C1838 1.419 . S
C1837 C1832 1.425 . S
C1837 C1834 1.409 . S
C1837 C1835 1.415 . S
C1838 H1828 0.930 . S
C1838 C1836 1.419 . S
C1838 C1839 1.362 . S
C1839 H1829 0.930 . S
C1839 C1832 1.409 . S
C1839 C1838 1.362 . S
H1840 C1846 0.930 . S
H1841 C1849 0.930 . S
H1842 C1850 0.930 . S
H1843 C1851 0.930 . S
H1844 C1854 0.930 . S
H1845 C1855 0.930 . S
C1846 H1840 0.930 . S
C1846 C1847 1.355 . S
C1846 C1848 1.415 . S
C1847 C1846 1.355 . S
C1847 C1849 1.419 . S
C1848 C1846 1.415 . S
C1848 C1853 1.425 . S
C1848 C1855 1.409 . S
C1849 H1841 0.930 . S
C1849 C1847 1.419 . S
C1849 C1850 1.362 . S
C1850 H1842 0.930 . S
C1850 C1849 1.362 . S
C1850 C1853 1.409 . S
C1851 H1843 0.930 . S
C1851 C1852 1.355 . S
C1851 C1853 1.415 . S
C1852 C1851 1.355 . S
C1852 C1854 1.419 . S
C1853 C1848 1.425 . S
C1853 C1850 1.409 . S
C1853 C1851 1.415 . S
C1854 H1844 0.930 . S
C1854 C1852 1.419 . S
C1854 C1855 1.362 . S
C1855 H1845 0.930 . S
C1855 C1848 1.409 . S
C1855 C1854 1.362 . S
H1856 C1862 0.930 . S
H1857 C1865 0.930 . S
H1858 C1866 0.930 . S
H1859 C1867 0.930 . S
H1860 C1870 0.930 . S
H1861 C1871 0.930 . S
C1862 H1856 0.930 . S
C1862 C1863 1.355 . S
C1862 C1864 1.415 . S
C1863 C1862 1.355 . S
C1863 C1865 1.419 . S
C1864 C1862 1.415 . S
C1864 C1869 1.425 . S
C1864 C1871 1.409 . S
C1865 H1857 0.930 . S
C1865 C1863 1.419 . S
C1865 C1866 1.362 . S
C1866 H1858 0.930 . S
C1866 C1865 1.362 . S
C1866 C1869 1.409 . S
C1867 H1859 0.930 . S
C1867 C1868 1.355 . S
C1867 C1869 1.415 . S
C1868 C1867 1.355 . S
C1868 C1870 1.419 . S
C1869 C1864 1.425 . S
C1869 C1866 1.409 . S
C1869 C1867 1.415 . S
C1870 H1860 0.930 . S
C1870 C1868 1.419 . S
C1870 C1871 1.362 . S
C1871 H1861 0.930 . S
C1871 C1864 1.409 . S
C1871 C1870 1.362 . S
H1872 C1878 0.930 . S
H1873 C1881 0.930 . S
H1874 C1882 0.930 . S
H1875 C1883 0.930 . S
H1876 C1886 0.930 . S
H1877 C1887 0.930 . S
C1878 H1872 0.930 . S
C1878 C1879 1.355 . S
C1878 C1880 1.415 . S
C1879 C1878 1.355 . S
C1879 C1881 1.419 . S
C1880 C1878 1.415 . S
C1880 C1885 1.425 . S
C1880 C1887 1.409 . S
C1881 H1873 0.930 . S
C1881 C1879 1.419 . S
C1881 C1882 1.362 . S
C1882 H1874 0.930 . S
C1882 C1881 1.362 . S
C1882 C1885 1.409 . S
C1883 H1875 0.930 . S
C1883 C1884 1.355 . S
C1883 C1885 1.415 . S
C1884 C1883 1.355 . S
C1884 C1886 1.419 . S
C1885 C1880 1.425 . S
C1885 C1882 1.409 . S
C1885 C1883 1.415 . S
C1886 H1876 0.930 . S
C1886 C1884 1.419 . S
C1886 C1887 1.362 . S
C1887 H1877 0.930 . S
C1887 C1880 1.409 . S
C1887 C1886 1.362 . S
H1888 C1894 0.930 . S
H1889 C1897 0.930 . S
H1890 C1898 0.930 . S
H1891 C1899 0.930 . S
H1892 C1902 0.930 . S
H1893 C1903 0.930 . S
C1894 H1888 0.930 . S
C1894 C1895 1.355 . S
C1894 C1896 1.415 . S
C1895 C1894 1.355 . S
C1895 C1897 1.419 . S
C1896 C1894 1.415 . S
C1896 C1901 1.425 . S
C1896 C1903 1.409 . S
C1897 H1889 0.930 . S
C1897 C1895 1.419 . S
C1897 C1898 1.362 . S
C1898 H1890 0.930 . S
C1898 C1897 1.362 . S
C1898 C1901 1.409 . S
C1899 H1891 0.930 . S
C1899 C1900 1.355 . S
C1899 C1901 1.415 . S
C1900 C1899 1.355 . S
C1900 C1902 1.419 . S
C1901 C1896 1.425 . S
C1901 C1898 1.409 . S
C1901 C1899 1.415 . S
C1902 H1892 0.930 . S
C1902 C1900 1.419 . S
C1902 C1903 1.362 . S
C1903 H1893 0.930 . S
C1903 C1896 1.409 . S
C1903 C1902 1.362 . S
H1904 C1910 0.930 . S
H1905 C1913 0.930 . S
H1906 C1914 0.930 . S
H1907 C1915 0.930 . S
H1908 C1918 0.930 . S
H1909 C1919 0.930 . S
C1910 H1904 0.930 . S
C1910 C1911 1.355 . S
C1910 C1912 1.415 . S
C1911 C1910 1.355 . S
C1911 C1913 1.419 . S
C1912 C1910 1.415 . S
C1912 C1917 1.425 . S
C1912 C1919 1.409 . S
C1913 H1905 0.930 . S
C1913 C1911 1.419 . S
C1913 C1914 1.362 . S
C1914 H1906 0.930 . S
C1914 C1913 1.362 . S
C1914 C1917 1.409 . S
C1915 H1907 0.930 . S
C1915 C1916 1.355 . S
C1915 C1917 1.415 . S
C1916 C1915 1.355 . S
C1916 C1918 1.419 . S
C1917 C1912 1.425 . S
C1917 C1914 1.409 . S
C1917 C1915 1.415 . S
C1918 H1908 0.930 . S
C1918 C1916 1.419 . S
C1918 C1919 1.362 . S
C1919 H1909 0.930 . S
C1919 C1912 1.409 . S
C1919 C1918 1.362 . S
H1920 C1926 0.930 . S
H1921 C1929 0.930 . S
H1922 C1930 0.930 . S
H1923 C1931 0.930 . S
H1924 C1934 0.930 . S
H1925 C1935 0.930 . S
C1926 H1920 0.930 . S
C1926 C1927 1.355 . S
C1926 C1928 1.415 . S
C1927 C1926 1.355 . S
C1927 C1929 1.419 . S
C1928 C1926 1.415 . S
C1928 C1933 1.425 . S
C1928 C1935 1.409 . S
C1929 H1921 0.930 . S
C1929 C1927 1.419 . S
C1929 C1930 1.362 . S
C1930 H1922 0.930 . S
C1930 C1929 1.362 . S
C1930 C1933 1.409 . S
C1931 H1923 0.930 . S
C1931 C1932 1.355 . S
C1931 C1933 1.415 . S
C1932 C1931 1.355 . S
C1932 C1934 1.419 . S
C1933 C1928 1.425 . S
C1933 C1930 1.409 . S
C1933 C1931 1.415 . S
C1934 H1924 0.930 . S
C1934 C1932 1.419 . S
C1934 C1935 1.362 . S
C1935 H1925 0.930 . S
C1935 C1928 1.409 . S
C1935 C1934 1.362 . S
H1936 C1942 0.930 . S
H1937 C1945 0.930 . S
H1938 C1946 0.930 . S
H1939 C1947 0.930 . S
H1940 C1950 0.930 . S
H1941 C1951 0.930 . S
C1942 H1936 0.930 . S
C1942 C1943 1.355 . S
C1942 C1944 1.415 . S
C1943 C1942 1.355 . S
C1943 C1945 1.419 . S
C1944 C1942 1.415 . S
C1944 C1949 1.425 . S
C1944 C1951 1.409 . S
C1945 H1937 0.930 . S
C1945 C1943 1.419 . S
C1945 C1946 1.362 . S
C1946 H1938 0.930 . S
C1946 C1945 1.362 . S
C1946 C1949 1.409 . S
C1947 H1939 0.930 . S
C1947 C1948 1.355 . S
C1947 C1949 1.415 . S
C1948 C1947 1.355 . S
C1948 C1950 1.419 . S
C1949 C1944 1.425 . S
C1949 C1946 1.409 . S
C1949 C1947 1.415 . S
C1950 H1940 0.930 . S
C1950 C1948 1.419 . S
C1950 C1951 1.362 . S
C1951 H1941 0.930 . S
C1951 C1944 1.409 . S
C1951 C1950 1.362 . S
H1952 C1958 0.930 . S
H1953 C1961 0.930 . S
H1954 C1962 0.930 . S
H1955 C1963 0.930 . S
H1956 C1966 0.930 . S
H1957 C1967 0.930 . S
C1958 H1952 0.930 . S
C1958 C1959 1.355 . S
C1958 C1960 1.415 . S
C1959 C1958 1.355 . S
C1959 C1961 1.419 . S
C1960 C1958 1.415 . S
C1960 C1965 1.425 . S
C1960 C1967 1.409 . S
C1961 H1953 0.930 . S
C1961 C1959 1.419 . S
C1961 C1962 1.362 . S
C1962 H1954 0.930 . S
C1962 C1961 1.362 . S
C1962 C1965 1.409 . S
C1963 H1955 0.930 . S
C1963 C1964 1.355 . S
C1963 C1965 1.415 . S
C1964 C1963 1.355 . S
C1964 C1966 1.419 . S
C1965 C1960 1.425 . S
C1965 C1962 1.409 . S
C1965 C1963 1.415 . S
C1966 H1956 0.930 . S
C1966 C1964 1.419 . S
C1966 C1967 1.362 . S
C1967 H1957 0.930 . S
C1967 C1960 1.409 . S
C1967 C1966 1.362 . S
H1968 C1974 0.930 . S
H1969 C1977 0.930 . S
H1970 C1978 0.930 . S
H1971 C1979 0.930 . S
H1972 C1982 0.930 . S
H1973 C1983 0.930 . S
C1974 H1968 0.930 . S
C1974 C1975 1.355 . S
C1974 C1976 1.415 . S
C1975 C1974 1.355 . S
C1975 C1977 1.419 . S
C1976 C1974 1.415 . S
C1976 C1981 1.425 . S
C1976 C1983 1.409 . S
C1977 H1969 0.930 . S
C1977 C1975 1.419 . S
C1977 C1978 1.362 . S
C1978 H1970 0.930 . S
C1978 C1977 1.362 . S
C1978 C1981 1.409 . S
C1979 H1971 0.930 . S
C1979 C1980 1.355 . S
C1979 C1981 1.415 . S
C1980 C1979 1.355 . S
C1980 C1982 1.419 . S
C1981 C1976 1.425 . S
C1981 C1978 1.409 . S
C1981 C1979 1.415 . S
C1982 H1972 0.930 . S
C1982 C1980 1.419 . S
C1982 C1983 1.362 . S
C1983 H1973 0.930 . S
C1983 C1976 1.409 . S
C1983 C1982 1.362 . S
H1984 C1990 0.930 . S
H1985 C1993 0.930 . S
H1986 C1994 0.930 . S
H1987 C1995 0.930 . S
H1988 C1998 0.930 . S
H1989 C1999 0.930 . S
C1990 H1984 0.930 . S
C1990 C1991 1.355 . S
C1990 C1992 1.415 . S
C1991 C1990 1.355 . S
C1991 C1993 1.419 . S
C1992 C1990 1.415 . S
C1992 C1997 1.425 . S
C1992 C1999 1.409 . S
C1993 H1985 0.930 . S
C1993 C1991 1.419 . S
C1993 C1994 1.362 . S
C1994 H1986 0.930 . S
C1994 C1993 1.362 . S
C1994 C1997 1.409 . S
C1995 H1987 0.930 . S
C1995 C1996 1.355 . S
C1995 C1997 1.415 . S
C1996 C1995 1.355 . S
C1996 C1998 1.419 . S
C1997 C1992 1.425 . S
C1997 C1994 1.409 . S
C1997 C1995 1.415 . S
C1998 H1988 0.930 . S
C1998 C1996 1.419 . S
C1998 C1999 1.362 . S
C1999 H1989 0.930 . S
C1999 C1992 1.409 . S
C1999 C1998 1.362 . S
H2000 C2006 0.930 . S
H2001 C2009 0.930 . S
H2002 C2010 0.930 . S
H2003 C2011 0.930 . S
H2004 C2014 0.930 . S
H2005 C2015 0.930 . S
C2006 H2000 0.930 . S
C2006 C2007 1.355 . S
C2006 C2008 1.415 . S
C2007 C2006 1.355 . S
C2007 C2009 1.419 . S
C2008 C2006 1.415 . S
C2008 C2013 1.425 . S
C2008 C2015 1.409 . S
C2009 H2001 0.930 . S
C2009 C2007 1.419 . S
C2009 C2010 1.362 . S
C2010 H2002 0.930 . S
C2010 C2009 1.362 . S
C2010 C2013 1.409 . S
C2011 H2003 0.930 . S
C2011 C2012 1.355 . S
C2011 C2013 1.415 . S
C2012 C2011 1.355 . S
C2012 C2014 1.419 . S
C2013 C2008 1.425 . S
C2013 C2010 1.409 . S
C2013 C2011 1.415 . S
C2014 H2004 0.930 . S
C2014 C2012 1.419 . S
C2014 C2015 1.362 . S
C2015 H2005 0.930 . S
C2015 C2008 1.409 . S
C2015 C2014 1.362 . S
H2016 C2022 0.930 . S
H2017 C2025 0.930 . S
H2018 C2026 0.930 . S
H2019 C2027 0.930 . S
H2020 C2030 0.930 . S
H2021 C2031 0.930 . S
C2022 H2016 0.930 . S
C2022 C2023 1.355 . S
C2022 C2024 1.415 . S
C2023 C2022 1.355 . S
C2023 C2025 1.419 . S
C2024 C2022 1.415 . S
C2024 C2029 1.425 . S
C2024 C2031 1.409 . S
C2025 H2017 0.930 . S
C2025 C2023 1.419 . S
C2025 C2026 1.362 . S
C2026 H2018 0.930 . S
C2026 C2025 1.362 . S
C2026 C2029 1.409 . S
C2027 H2019 0.930 . S
C2027 C2028 1.355 . S
C2027 C2029 1.415 . S
C2028 C2027 1.355 . S
C2028 C2030 1.419 . S
C2029 C2024 1.425 . S
C2029 C2026 1.409 . S
C2029 C2027 1.415 . S
C2030 H2020 0.930 . S
C2030 C2028 1.419 . S
C2030 C2031 1.362 . S
C2031 H2021 0.930 . S
C2031 C2024 1.409 . S
C2031 C2030 1.362 . S
H2032 C2038 0.930 . S
H2033 C2041 0.930 . S
H2034 C2042 0.930 . S
H2035 C2043 0.930 . S
H2036 C2046 0.930 . S
H2037 C2047 0.930 . S
C2038 H2032 0.930 . S
C2038 C2039 1.355 . S
C2038 C2040 1.415 . S
C2039 C2038 1.355 . S
C2039 C2041 1.419 . S
C2040 C2038 1.415 . S
C2040 C2045 1.425 . S
C2040 C2047 1.409 . S
C2041 H2033 0.930 . S
C2041 C2039 1.419 . S
C2041 C2042 1.362 . S
C2042 H2034 0.930 . S
C2042 C2041 1.362 . S
C2042 C2045 1.409 . S
C2043 H2035 0.930 . S
C2043 C2044 1.355 . S
C2043 C2045 1.415 . S
C2044 C2043 1.355 . S
C2044 C2046 1.419 . S
C2045 C2040 1.425 . S
C2045 C2042 1.409 . S
C2045 C2043 1.415 . S
C2046 H2036 0.930 . S
C2046 C2044 1.419 . S
C2046 C2047 1.362 . S
C2047 H2037 0.930 . S
C2047 C2040 1.409 . S
C2047 C2046 1.362 . S
H2048 C2054 0.930 . S
H2049 C2057 0.930 . S
H2050 C2058 0.930 . S
H2051 C2059 0.930 . S
H2052 C2062 0.930 . S
H2053 C2063 0.930 . S
C2054 H2048 0.930 . S
C2054 C2055 1.355 . S
C2054 C2056 1.415 . S
C2055 C2054 1.355 . S
C2055 C2057 1.419 . S
C2056 C2054 1.415 . S
C2056 C2061 1.425 . S
C2056 C2063 1.409 . S
C2057 H2049 0.930 . S
C2057 C2055 1.419 . S
C2057 C2058 1.362 . S
C2058 H2050 0.930 . S
C2058 C2057 1.362 . S
C2058 C2061 1.409 . S
C2059 H2051 0.930 . S
C2059 C2060 1.355 . S
C2059 C2061 1.415 . S
C2060 C2059 1.355 . S
C2060 C2062 1.419 . S
C2061 C2056 1.425 . S
C2061 C2058 1.409 . S
C2061 C2059 1.415 . S
C2062 H2052 0.930 . S
C2062 C2060 1.419 . S
C2062 C2063 1.362 . S
C2063 H2053 0.930 . S
C2063 C2056 1.409 . S
C2063 C2062 1.362 . S
H2064 C2070 0.930 . S
H2065 C2073 0.930 . S
H2066 C2074 0.930 . S
H2067 C2075 0.930 . S
H2068 C2078 0.930 . S
H2069 C2079 0.930 . S
C2070 H2064 0.930 . S
C2070 C2071 1.355 . S
C2070 C2072 1.415 . S
C2071 C2070 1.355 . S
C2071 C2073 1.419 . S
C2072 C2070 1.415 . S
C2072 C2077 1.425 . S
C2072 C2079 1.409 . S
C2073 H2065 0.930 . S
C2073 C2071 1.419 . S
C2073 C2074 1.362 . S
C2074 H2066 0.930 . S
C2074 C2073 1.362 . S
C2074 C2077 1.409 . S
C2075 H2067 0.930 . S
C2075 C2076 1.355 . S
C2075 C2077 1.415 . S
C2076 C2075 1.355 . S
C2076 C2078 1.419 . S
C2077 C2072 1.425 . S
C2077 C2074 1.409 . S
C2077 C2075 1.415 . S
C2078 H2068 0.930 . S
C2078 C2076 1.419 . S
C2078 C2079 1.362 . S
C2079 H2069 0.930 . S
C2079 C2072 1.409 . S
C2079 C2078 1.362 . S
H2080 C2086 0.930 . S
H2081 C2089 0.930 . S
H2082 C2090 0.930 . S
H2083 C2091 0.930 . S
H2084 C2094 0.930 . S
H2085 C2095 0.930 . S
C2086 H2080 0.930 . S
C2086 C2087 1.355 . S
C2086 C2088 1.415 . S
C2087 C2086 1.355 . S
C2087 C2089 1.419 . S
C2088 C2086 1.415 . S
C2088 C2093 1.425 . S
C2088 C2095 1.409 . S
C2089 H2081 0.930 . S
C2089 C2087 1.419 . S
C2089 C2090 1.362 . S
C2090 H2082 0.930 . S
C2090 C2089 1.362 . S
C2090 C2093 1.409 . S
C2091 H2083 0.930 . S
C2091 C2092 1.355 . S
C2091 C2093 1.415 . S
C2092 C2091 1.355 . S
C2092 C2094 1.419 . S
C2093 C2088 1.425 . S
C2093 C2090 1.409 . S
C2093 C2091 1.415 . S
C2094 H2084 0.930 . S
C2094 C2092 1.419 . S
C2094 C2095 1.362 . S
C2095 H2085 0.930 . S
C2095 C2088 1.409 . S
C2095 C2094 1.362 . S
H2096 C2102 0.930 . S
H2097 C2105 0.930 . S
H2098 C2106 0.930 . S
H2099 C2107 0.930 . S
H2100 C2110 0.930 . S
H2101 C2111 0.930 . S
C2102 H2096 0.930 . S
C2102 C2103 1.355 . S
C2102 C2104 1.415 . S
C2103 C2102 1.355 . S
C2103 C2105 1.419 . S
C2104 C2102 1.415 . S
C2104 C2109 1.425 . S
C2104 C2111 1.409 . S
C2105 H2097 0.930 . S
C2105 C2103 1.419 . S
C2105 C2106 1.362 . S
C2106 H2098 0.930 . S
C2106 C2105 1.362 . S
C2106 C2109 1.409 . S
C2107 H2099 0.930 . S
C2107 C2108 1.355 . S
C2107 C2109 1.415 . S
C2108 C2107 1.355 . S
C2108 C2110 1.419 . S
C2109 C2104 1.425 . S
C2109 C2106 1.409 . S
C2109 C2107 1.415 . S
C2110 H2100 0.930 . S
C2110 C2108 1.419 . S
C2110 C2111 1.362 . S
C2111 H2101 0.930 . S
C2111 C2104 1.409 . S
C2111 C2110 1.362 . S
H2112 C2118 0.930 . S
H2113 C2121 0.930 . S
H2114 C2122 0.930 . S
H2115 C2123 0.930 . S
H2116 C2126 0.930 . S
H2117 C2127 0.930 . S
C2118 H2112 0.930 . S
C2118 C2119 1.355 . S
C2118 C2120 1.415 . S
C2119 C2118 1.355 . S
C2119 C2121 1.419 . S
C2120 C2118 1.415 . S
C2120 C2125 1.425 . S
C2120 C2127 1.409 . S
C2121 H2113 0.930 . S
C2121 C2119 1.419 . S
C2121 C2122 1.362 . S
C2122 H2114 0.930 . S
C2122 C2121 1.362 . S
C2122 C2125 1.409 . S
C2123 H2115 0.930 . S
C2123 C2124 1.355 . S
C2123 C2125 1.415 . S
C2124 C2123 1.355 . S
C2124 C2126 1.419 . S
C2125 C2120 1.425 . S
C2125 C2122 1.409 . S
C2125 C2123 1.415 . S
C2126 H2116 0.930 . S
C2126 C2124 1.419 . S
C2126 C2127 1.362 . S
C2127 H2117 0.930 . S
C2127 C2120 1.409 . S
C2127 C2126 1.362 . S
H2128 C2134 0.930 . S
H2129 C2137 0.930 . S
H2130 C2138 0.930 . S
H2131 C2139 0.930 . S
H2132 C2142 0.930 . S
H2133 C2143 0.930 . S
C2134 H2128 0.930 . S
C2134 C2135 1.355 . S
C2134 C2136 1.415 . S
C2135 C2134 1.355 . S
C2135 C2137 1.419 . S
C2136 C2134 1.415 . S
C2136 C2141 1.425 . S
C2136 C2143 1.409 . S
C2137 H2129 0.930 . S
C2137 C2135 1.419 . S
C2137 C2138 1.362 . S
C2138 H2130 0.930 . S
C2138 C2137 1.362 . S
C2138 C2141 1.409 . S
C2139 H2131 0.930 . S
C2139 C2140 1.355 . S
C2139 C2141 1.415 . S
C2140 C2139 1.355 . S
C2140 C2142 1.419 . S
C2141 C2136 1.425 . S
C2141 C2138 1.409 . S
C2141 C2139 1.415 . S
C2142 H2132 0.930 . S
C2142 C2140 1.419 . S
C2142 C2143 1.362 . S
C2143 H2133 0.930 . S
C2143 C2136 1.409 . S
C2143 C2142 1.362 . S
H2144 C2150 0.930 . S
H2145 C2153 0.930 . S
H2146 C2154 0.930 . S
H2147 C2155 0.930 . S
H2148 C2158 0.930 . S
H2149 C2159 0.930 . S
C2150 H2144 0.930 . S
C2150 C2151 1.355 . S
C2150 C2152 1.415 . S
C2151 C2150 1.355 . S
C2151 C2153 1.419 . S
C2152 C2150 1.415 . S
C2152 C2157 1.425 . S
C2152 C2159 1.409 . S
C2153 H2145 0.930 . S
C2153 C2151 1.419 . S
C2153 C2154 1.362 . S
C2154 H2146 0.930 . S
C2154 C2153 1.362 . S
C2154 C2157 1.409 . S
C2155 H2147 0.930 . S
C2155 C2156 1.355 . S
C2155 C2157 1.415 . S
C2156 C2155 1.355 . S
C2156 C2158 1.419 . S
C2157 C2152 1.425 . S
C2157 C2154 1.409 . S
C2157 C2155 1.415 . S
C2158 H2148 0.930 . S
C2158 C2156 1.419 . S
C2158 C2159 1.362 . S
C2159 H2149 0.930 . S
C2159 C2152 1.409 . S
C2159 C2158 1.362 . S
H2160 C2166 0.930 . S
H2161 C2169 0.930 . S
H2162 C2170 0.930 . S
H2163 C2171 0.930 . S
H2164 C2174 0.930 . S
H2165 C2175 0.930 . S
C2166 H2160 0.930 . S
C2166 C2167 1.355 . S
C2166 C2168 1.415 . S
C2167 C2166 1.355 . S
C2167 C2169 1.419 . S
C2168 C2166 1.415 . S
C2168 C2173 1.425 . S
C2168 C2175 1.409 . S
C2169 H2161 0.930 . S
C2169 C2167 1.419 . S
C2169 C2170 1.362 . S
C2170 H2162 0.930 . S
C2170 C2169 1.362 . S
C2170 C2173 1.409 . S
C2171 H2163 0.930 . S
C2171 C2172 1.355 . S
C2171 C2173 1.415 . S
C2172 C2171 1.355 . S
C2172 C2174 1.419 . S
C2173 C2168 1.425 . S
C2173 C2170 1.409 . S
C2173 C2171 1.415 . S
C2174 H2164 0.930 . S
C2174 C2172 1.419 . S
C2174 C2175 1.362 . S
C2175 H2165 0.930 . S
C2175 C2168 1.409 . S
C2175 C2174 1.362 . S
C1159 C1048 1.498 . S
C1164 C4 1.530 . S
C1175 C40 1.499 . S
C1180 C1084 1.529 . S
C1191 C1120 1.506 . S
C1196 C76 1.522 . S
C1207 C1012 1.511 . S
C1212 C112 1.518 . S
C1223 C148 1.507 . S
C1228 C976 1.522 . S
C1239 C868 1.496 . S
C1244 C184 1.532 . S
C1255 C220 1.531 . S
C1260 C904 1.497 . S
C1271 C940 1.531 . S
C1276 C256 1.497 . S
C1287 C292 1.497 . S
C1292 C760 1.531 . S
C1303 C328 1.501 . S
C1308 C796 1.527 . S
C1319 C832 1.504 . S
C1324 C364 1.524 . S
C1335 C400 1.496 . S
C1340 C724 1.532 . S
C1351 C688 1.530 . S
C1356 C436 1.498 . S
C1367 C580 1.497 . S
C1372 C472 1.531 . S
C1383 C508 1.509 . S
C1388 C616 1.519 . S
C1399 C544 1.532 . S
C1404 C652 1.496 . S
C1415 C14 1.327 . S
C1420 C374 1.313 . S
C1431 C410 1.368 . S
C1436 C50 1.270 . S
C1447 C302 1.315 . S
C1452 C86 1.325 . S
C1463 C338 1.276 . S
C1468 C122 1.363 . S
C1479 C158 1.296 . S
C1484 C518 1.344 . S
C1495 C554 1.365 . S
C1500 C194 1.273 . S
C1511 C446 1.284 . S
C1516 C230 1.355 . S
C1527 C482 1.364 . S
C1532 C266 1.275 . S
C1543 C590 1.347 . S
C1548 C950 1.292 . S
C1559 C986 1.361 . S
C1564 C626 1.278 . S
C1575 C878 1.366 . S
C1580 C662 1.272 . S
C1591 C698 1.312 . S
C1596 C914 1.328 . S
C1607 C734 1.308 . S
C1612 C1094 1.333 . S
C1623 C1130 1.270 . S
C1628 C770 1.368 . S
C1639 C1022 1.326 . S
C1644 C806 1.314 . S
C1655 C842 1.322 . S
C1660 C1058 1.318 . S
C1671 C3 1.444 . S
C1676 C147 1.453 . S
C1687 C39 1.429 . S
C1692 C183 1.440 . S
C1703 C219 1.433 . S
C1708 C75 1.432 . S
C1719 C111 1.447 . S
C1724 C255 1.430 . S
C1735 C291 1.438 . S
C1740 C435 1.429 . S
C1751 C471 1.453 . S
C1756 C327 1.438 . S
C1767 C507 1.450 . S
C1772 C363 1.450 . S
C1783 C399 1.453 . S
C1788 C543 1.438 . S
C1799 C579 1.439 . S
C1804 C723 1.453 . S
C1815 C759 1.433 . S
C1820 C615 1.432 . S
C1831 C651 1.438 . S
C1836 C795 1.453 . S
C1847 C831 1.441 . S
C1852 C687 1.454 . S
C1863 C1011 1.452 . S
C1868 C867 1.448 . S
C1879 C903 1.429 . S
C1884 C1047 1.441 . S
C1895 C939 1.429 . S
C1900 C1083 1.440 . S
C1911 C975 1.431 . S
C1916 C1119 1.435 . S
C1927 C2 1.362 . S
C1932 C182 1.396 . S
C1943 C38 1.362 . S
C1948 C218 1.364 . S
C1959 C254 1.356 . S
C1964 C74 1.392 . S
C1975 C146 1.356 . S
C1980 C110 1.374 . S
C1991 C470 1.373 . S
C1996 C290 1.356 . S
C2007 C506 1.355 . S
C2012 C326 1.377 . S
C2023 C542 1.354 . S
C2028 C362 1.380 . S
C2039 C398 1.372 . S
C2044 C434 1.395 . S
C2055 C578 1.383 . S
C2060 C758 1.353 . S
C2071 C794 1.391 . S
C2076 C614 1.355 . S
C2087 C830 1.362 . S
C2092 C650 1.396 . S
C2103 C686 1.356 . S
C2108 C722 1.374 . S
C2119 C1046 1.358 . S
C2124 C866 1.369 . S
C2135 C902 1.395 . S
C2140 C1082 1.361 . S
C2151 C938 1.381 . S
C2156 C1118 1.354 . S
C2167 C1010 1.360 . S
C2172 C974 1.367 . S
