# Generated by pormake.
# Topology wlb, (5)-cn, num edge types: 1
# Building blocks:
#     Node 0, Type 0, BuildingBlock: XOMCOT_clean_sbu_1, # of connection points: 5
#     Node 1, Type 0, BuildingBlock: XOMCOT_clean_sbu_1, # of connection points: 5
#     Node 2, Type 0, BuildingBlock: XOMCOT_clean_sbu_1, # of connection points: 5
#     Node 3, Type 0, BuildingBlock: XOMCOT_clean_sbu_1, # of connection points: 5
#     Node 4, Type 0, BuildingBlock: XOMCOT_clean_sbu_1, # of connection points: 5
#     Node 5, Type 0, BuildingBlock: XOMCOT_clean_sbu_1, # of connection points: 5
#     Node 6, Type 0, BuildingBlock: XOMCOT_clean_sbu_1, # of connection points: 5
#     Node 7, Type 0, BuildingBlock: XOMCOT_clean_sbu_1, # of connection points: 5
#     Node 8, Type 0, BuildingBlock: XOMCOT_clean_sbu_1, # of connection points: 5
#     Node 9, Type 0, BuildingBlock: XOMCOT_clean_sbu_1, # of connection points: 5
#     Node 10, Type 0, BuildingBlock: XOMCOT_clean_sbu_1, # of connection points: 5
#     Node 11, Type 0, BuildingBlock: XOMCOT_clean_sbu_1, # of connection points: 5
#     Node 12, Type 0, BuildingBlock: XOMCOT_clean_sbu_1, # of connection points: 5
#     Node 13, Type 0, BuildingBlock: XOMCOT_clean_sbu_1, # of connection points: 5
#     Node 14, Type 0, BuildingBlock: XOMCOT_clean_sbu_1, # of connection points: 5
#     Node 15, Type 0, BuildingBlock: XOMCOT_clean_sbu_1, # of connection points: 5
#     Node 16, Type 0, BuildingBlock: XOMCOT_clean_sbu_1, # of connection points: 5
#     Node 17, Type 0, BuildingBlock: XOMCOT_clean_sbu_1, # of connection points: 5
#     Edge 18, Type (0, 0), BuildingBlock: AJUNOK_clean_linker_0, # of connection points: 2
#     Edge 19, Type (0, 0), BuildingBlock: AJUNOK_clean_linker_0, # of connection points: 2
#     Edge 20, Type (0, 0), BuildingBlock: AJUNOK_clean_linker_0, # of connection points: 2
#     Edge 21, Type (0, 0), BuildingBlock: AJUNOK_clean_linker_0, # of connection points: 2
#     Edge 22, Type (0, 0), BuildingBlock: AJUNOK_clean_linker_0, # of connection points: 2
#     Edge 23, Type (0, 0), BuildingBlock: AJUNOK_clean_linker_0, # of connection points: 2
#     Edge 24, Type (0, 0), BuildingBlock: AJUNOK_clean_linker_0, # of connection points: 2
#     Edge 25, Type (0, 0), BuildingBlock: AJUNOK_clean_linker_0, # of connection points: 2
#     Edge 26, Type (0, 0), BuildingBlock: AJUNOK_clean_linker_0, # of connection points: 2
#     Edge 27, Type (0, 0), BuildingBlock: AJUNOK_clean_linker_0, # of connection points: 2
#     Edge 28, Type (0, 0), BuildingBlock: AJUNOK_clean_linker_0, # of connection points: 2
#     Edge 29, Type (0, 0), BuildingBlock: AJUNOK_clean_linker_0, # of connection points: 2
#     Edge 30, Type (0, 0), BuildingBlock: AJUNOK_clean_linker_0, # of connection points: 2
#     Edge 31, Type (0, 0), BuildingBlock: AJUNOK_clean_linker_0, # of connection points: 2
#     Edge 32, Type (0, 0), BuildingBlock: AJUNOK_clean_linker_0, # of connection points: 2
#     Edge 33, Type (0, 0), BuildingBlock: AJUNOK_clean_linker_0, # of connection points: 2
#     Edge 34, Type (0, 0), BuildingBlock: AJUNOK_clean_linker_0, # of connection points: 2
#     Edge 35, Type (0, 0), BuildingBlock: AJUNOK_clean_linker_0, # of connection points: 2
#     Edge 36, Type (0, 0), BuildingBlock: AJUNOK_clean_linker_0, # of connection points: 2
#     Edge 37, Type (0, 0), BuildingBlock: AJUNOK_clean_linker_0, # of connection points: 2
#     Edge 38, Type (0, 0), BuildingBlock: AJUNOK_clean_linker_0, # of connection points: 2
#     Edge 39, Type (0, 0), BuildingBlock: AJUNOK_clean_linker_0, # of connection points: 2
#     Edge 40, Type (0, 0), BuildingBlock: AJUNOK_clean_linker_0, # of connection points: 2
#     Edge 41, Type (0, 0), BuildingBlock: AJUNOK_clean_linker_0, # of connection points: 2
#     Edge 42, Type (0, 0), BuildingBlock: AJUNOK_clean_linker_0, # of connection points: 2
#     Edge 43, Type (0, 0), BuildingBlock: AJUNOK_clean_linker_0, # of connection points: 2
#     Edge 44, Type (0, 0), BuildingBlock: AJUNOK_clean_linker_0, # of connection points: 2
#     Edge 45, Type (0, 0), BuildingBlock: AJUNOK_clean_linker_0, # of connection points: 2
#     Edge 46, Type (0, 0), BuildingBlock: AJUNOK_clean_linker_0, # of connection points: 2
#     Edge 47, Type (0, 0), BuildingBlock: AJUNOK_clean_linker_0, # of connection points: 2
#     Edge 48, Type (0, 0), BuildingBlock: AJUNOK_clean_linker_0, # of connection points: 2
#     Edge 49, Type (0, 0), BuildingBlock: AJUNOK_clean_linker_0, # of connection points: 2
#     Edge 50, Type (0, 0), BuildingBlock: AJUNOK_clean_linker_0, # of connection points: 2
#     Edge 51, Type (0, 0), BuildingBlock: AJUNOK_clean_linker_0, # of connection points: 2
#     Edge 52, Type (0, 0), BuildingBlock: AJUNOK_clean_linker_0, # of connection points: 2
#     Edge 53, Type (0, 0), BuildingBlock: AJUNOK_clean_linker_0, # of connection points: 2
#     Edge 54, Type (0, 0), BuildingBlock: AJUNOK_clean_linker_0, # of connection points: 2
#     Edge 55, Type (0, 0), BuildingBlock: AJUNOK_clean_linker_0, # of connection points: 2
#     Edge 56, Type (0, 0), BuildingBlock: AJUNOK_clean_linker_0, # of connection points: 2
#     Edge 57, Type (0, 0), BuildingBlock: AJUNOK_clean_linker_0, # of connection points: 2
#     Edge 58, Type (0, 0), BuildingBlock: AJUNOK_clean_linker_0, # of connection points: 2
#     Edge 59, Type (0, 0), BuildingBlock: AJUNOK_clean_linker_0, # of connection points: 2
#     Edge 60, Type (0, 0), BuildingBlock: AJUNOK_clean_linker_0, # of connection points: 2
#     Edge 61, Type (0, 0), BuildingBlock: AJUNOK_clean_linker_0, # of connection points: 2
#     Edge 62, Type (0, 0), BuildingBlock: AJUNOK_clean_linker_0, # of connection points: 2
# Relax obj value: 0.358
# Max RMSD: 0.211
# Mean RMSD: 0.211
data_MOF--net-wlb--node1-XOMCOT_clean_sbu_1--edge1-AJUNOK_clean_linker_0
_symmetry_space_group_name_H-M    P1
_symmetry_Int_Tables_number       1
_symmetry_cell_setting            triclinic
loop_
_symmetry_equiv_pos_as_xyz
'x, y, z'
_cell_length_a     38.991912
_cell_length_b     38.558253
_cell_length_c     30.444404
_cell_angle_alpha  89.840211
_cell_angle_beta   89.551791
_cell_angle_gamma 119.73429
loop_
_atom_site_label
_atom_site_type_symbol
_atom_site_fract_x
_atom_site_fract_y
_atom_site_fract_z
_atom_type_partial_charge
C0 C 0.17641 0.23729 0.24265 0.0
C1 C 0.19485 0.21499 0.2472 0.0
N2 N 0.16734 0.17587 0.24645 0.0
N3 N 0.13717 0.21277 0.23975 0.0
C4 C 0.13249 0.17548 0.24247 0.0
H5 H 0.19078 0.26952 0.24254 0.0
Co6 Co 0.10058 0.23111 0.23649 0.0
C7 C 1.02169 0.16015 0.24959 0.0
O8 O 1.00961 0.17546 0.21884 0.0
N9 N 0.06428 0.25056 0.23548 0.0
C10 C 1.01867 0.26384 0.26198 0.0
C11 C 0.04035 0.24554 0.27017 0.0
C12 C 0.05797 0.27422 0.20759 0.0
N13 N 1.03006 0.2825 0.22273 0.0
O14 O 0.11754 0.25699 0.29349 0.0
H15 H 0.03829 0.22885 0.29964 0.0
H16 H 0.0741 0.28625 0.17731 0.0
O17 O 0.05807 0.17881 0.26152 0.0
C18 C 0.13826 0.29459 0.285 0.0
O19 O 0.14702 0.30554 0.24365 0.0
N20 N 0.08822 0.21154 0.17819 0.0
C21 C 0.06921 0.19378 0.08964 0.0
C22 C 0.05923 0.16313 0.12066 0.0
C23 C 0.06961 0.17266 0.16471 0.0
C24 C 0.10276 0.24139 0.14755 0.0
C25 C 0.09272 0.23337 0.10336 0.0
H26 H 0.06189 0.14861 0.18772 0.0
H27 H 0.12137 0.27194 0.15776 0.0
H28 H 0.10407 0.1485 0.24181 0.0
H29 H 0.22613 0.22713 0.25232 0.0
H30 H 0.99541 0.26205 0.28303 0.0
H31 H 0.0434 0.13205 0.1111 0.0
H32 H 0.10243 0.2581 0.08047 0.0
C33 C 0.83736 0.95778 0.21643 0.0
C34 C 0.86122 0.9975 0.22601 0.0
N35 N 0.89373 1.00197 0.24636 0.0
N36 N 0.85462 0.93703 0.23044 0.0
C37 C 0.88918 0.96485 0.24829 0.0
H38 H 0.80949 0.9449 0.19947 0.0
Co39 Co 0.83215 0.88184 0.22338 0.0
C40 C 0.89663 0.86404 0.23553 0.0
O41 O 0.88182 0.84042 0.20152 0.0
N42 N 0.80826 0.82527 0.21816 0.0
C43 C 0.7887 0.76328 0.241 0.0
C44 C 0.80964 0.80282 0.25151 0.0
C45 C 0.78411 0.79796 0.18861 0.0
N46 N 0.77232 0.75984 0.20132 0.0
O47 O 0.8041 0.87236 0.27847 0.0
H48 H 0.82506 0.81457 0.28201 0.0
H49 H 0.7737 0.80568 0.15963 0.0
O50 O 0.88 0.88361 0.2496 0.0
C51 C 0.76917 0.86333 0.26651 0.0
O52 O 0.76375 0.868 0.22486 0.0
N53 N 0.85454 0.89131 0.16664 0.0
C54 C 0.87734 0.9036 0.07837 0.0
C55 C 0.90585 0.91728 0.11147 0.0
C56 C 0.89382 0.91187 0.15562 0.0
C57 C 0.8269 0.88123 0.13486 0.0
C58 C 0.83744 0.88598 0.09059 0.0
H59 H 0.9161 0.92435 0.18067 0.0
H60 H 0.7963 0.86959 0.14398 0.0
H61 H 0.91074 0.95825 0.26223 0.0
H62 H 0.8557 1.02149 0.21712 0.0
H63 H 0.78608 0.73901 0.26131 0.0
H64 H 0.93705 0.93221 0.10328 0.0
H65 H 0.8144 0.87529 0.06621 0.0
C66 C 0.10977 0.89091 0.25735 0.0
C67 C 0.07077 0.87248 0.27042 0.0
N68 N 0.05581 0.89617 0.25943 0.0
N69 N 0.12 0.92656 0.23867 0.0
C70 C 0.08647 0.92895 0.24099 0.0
H71 H 0.12903 0.87848 0.26094 0.0
Co72 Co 0.16972 0.96364 0.21436 0.0
C73 C 0.19208 0.0392 0.26061 0.0
O74 O 0.22704 0.04366 0.26893 0.0
N75 N 0.21991 1.00188 0.18948 0.0
C76 C 0.26484 0.0565 0.15383 0.0
C77 C 0.22586 0.03383 0.16498 0.0
C78 C 0.25673 1.00654 0.19289 0.0
N79 N 0.28445 0.03961 0.17159 0.0
O80 O 0.19569 0.9545 0.26428 0.0
H81 H 0.2039 0.04201 0.15737 0.0
H82 H 0.26384 0.98771 0.21255 0.0
O83 O 0.16596 1.00706 0.24286 0.0
C84 C 0.20656 0.92884 0.25516 0.0
O85 O 0.20029 0.91416 0.21525 0.0
N86 N 0.14494 0.96888 0.1639 0.0
C87 C 0.13595 0.99086 0.07969 0.0
C88 C 0.12444 1.00474 0.11632 0.0
C89 C 0.12917 0.99338 0.15845 0.0
C90 C 0.15102 0.95091 0.12861 0.0
C91 C 0.14696 0.9617 0.08601 0.0
H92 H 0.12405 1.00775 0.18608 0.0
H93 H 0.16318 0.93136 0.13354 0.0
H94 H 0.08402 0.95377 0.22839 0.0
H95 H 0.05487 0.84371 0.28666 0.0
H96 H 0.27804 0.08439 0.13559 0.0
H97 H 0.11493 0.02663 0.11258 0.0
H98 H 0.15585 0.95006 0.05852 0.0
C99 C 0.2425 0.17422 0.75868 0.0
C100 C 0.21939 0.19008 0.74519 0.0
N101 N 0.18358 0.15976 0.73395 0.0
N102 N 0.22155 0.13412 0.75588 0.0
C103 C 0.18625 0.12652 0.74039 0.0
H104 H 0.27283 0.19094 0.76927 0.0
Co105 Co 0.23931 0.09797 0.76664 0.0
C106 C 0.17052 1.0167 0.7524 0.0
O107 O 0.18305 1.00562 0.78674 0.0
N108 N 0.2589 0.06238 0.77512 0.0
C109 C 0.27621 1.01739 0.75648 0.0
C110 C 0.25688 0.03699 0.74339 0.0
C111 C 0.28203 0.05934 0.80604 0.0
N112 N 0.29219 0.03143 0.79601 0.0
O113 O 0.26994 0.11477 0.71294 0.0
H114 H 0.24247 0.03321 0.71215 0.0
H115 H 0.29349 0.07897 0.83369 0.0
O116 O 0.19029 0.05314 0.73845 0.0
C117 C 0.30529 0.13859 0.72551 0.0
O118 O 0.31085 0.1481 0.76729 0.0
N119 N 0.21361 0.08573 0.82241 0.0
C120 C 0.18274 0.0646 0.90744 0.0
C121 C 0.15762 0.05607 0.87158 0.0
C122 C 0.17375 0.06806 0.82944 0.0
C123 C 0.23828 0.09885 0.85744 0.0
C124 C 0.22362 0.08763 0.90022 0.0
H125 H 0.15398 0.06214 0.80264 0.0
H126 H 0.26966 0.11761 0.85215 0.0
H127 H 0.16267 0.097 0.7343 0.0
H128 H 0.22892 0.22155 0.74335 0.0
H129 H 0.27831 0.99458 0.738 0.0
H130 H 0.12583 0.03986 0.876 0.0
H131 H 0.24418 0.09578 0.92709 0.0
C132 C 0.91516 0.09036 0.79272 0.0
C133 C 0.89806 0.05093 0.78114 0.0
N134 N 0.91078 0.04861 0.74057 0.0
N135 N 0.93982 0.11343 0.76033 0.0
C136 C 0.93502 0.08708 0.72815 0.0
H137 H 0.91079 0.10091 0.82383 0.0
Co138 Co 0.97522 0.16929 0.76266 0.0
C139 C 1.02867 0.13784 0.73121 0.0
O140 O 1.00869 0.10416 0.75319 0.0
N141 N 1.00949 0.22408 0.76386 0.0
C142 C 0.05762 0.28481 0.74617 0.0
C143 C 0.03694 0.24579 0.73304 0.0
C144 C 1.01289 0.25077 0.79445 0.0
N145 N 0.04266 0.288 0.78504 0.0
O146 O 0.95521 0.17662 0.70781 0.0
H147 H 0.04201 0.23397 0.70306 0.0
H148 H 0.99327 0.24294 0.82248 0.0
O149 O 1.01756 0.16397 0.73262 0.0
C150 C 0.93177 0.19025 0.71534 0.0
O151 O 0.9223 0.19216 0.75645 0.0
N152 N 0.99302 0.16475 0.81961 0.0
C153 C 1.01525 0.1687 0.90781 0.0
C154 C 0.03881 0.16711 0.87381 0.0
C155 C 1.0276 0.16587 0.83011 0.0
C156 C 0.97012 0.16698 0.8524 0.0
C157 C 0.9805 0.16881 0.89657 0.0
H158 H 0.04806 0.16758 0.80557 0.0
H159 H 0.94414 0.1688 0.84403 0.0
H160 H 0.95117 0.0958 0.69728 0.0
H161 H 0.87997 0.02588 0.80261 0.0
H162 H 0.08244 0.30874 0.72882 0.0
H163 H 0.06632 0.16775 0.88081 0.0
H164 H 0.96218 0.1718 0.92147 0.0
C165 C 0.96222 0.83096 0.76911 0.0
C166 C 1.00256 0.85385 0.76456 0.0
N167 N 1.01124 0.8888 0.74516 0.0
N168 N 0.94515 0.85108 0.75263 0.0
C169 C 0.97577 0.88619 0.73828 0.0
H170 H 0.94634 0.8018 0.78449 0.0
Co171 Co 0.89057 0.8315 0.75429 0.0
C172 C 0.90675 0.90254 0.69107 0.0
O173 O 0.92443 0.89728 0.65694 0.0
N174 N 0.83593 0.81138 0.75555 0.0
C175 C 0.77607 0.79701 0.73414 0.0
C176 C 0.8154 0.81653 0.72326 0.0
C177 C 0.80811 0.78716 0.785 0.0
N178 N 0.77117 0.77782 0.77276 0.0
O179 O 0.88428 0.8018 0.70167 0.0
H180 H 0.82811 0.83328 0.69329 0.0
H181 H 0.81473 0.77588 0.81437 0.0
O182 O 0.89629 0.87858 0.72377 0.0
C183 C 0.87378 0.76608 0.71402 0.0
O184 O 0.87165 0.7587 0.75643 0.0
N185 N 0.89591 0.85649 0.8083 0.0
C186 C 0.90021 0.88248 0.89449 0.0
C187 C 0.90678 0.90846 0.85902 0.0
C188 C 0.90447 0.89488 0.81598 0.0
C189 C 0.89118 0.83154 0.84236 0.0
C190 C 0.89287 0.84374 0.88566 0.0
H191 H 0.90968 0.91548 0.78939 0.0
H192 H 0.88533 0.80156 0.83571 0.0
H193 H 0.97221 0.90948 0.72335 0.0
H194 H 1.02389 0.84585 0.7762 0.0
H195 H 0.75329 0.79806 0.7152 0.0
H196 H 0.91365 0.93898 0.86442 0.0
H197 H 0.88753 0.82265 0.91199 0.0
C198 C 0.84173 0.5595 0.53676 0.0
C199 C 0.85865 0.53553 0.5398 0.0
N200 N 0.83532 0.50374 0.56542 0.0
N201 N 0.80794 0.54313 0.56053 0.0
C202 C 0.80516 0.50947 0.57797 0.0
H203 H 0.8525 0.58629 0.51695 0.0
Co204 Co 0.77163 0.56171 0.56091 0.0
C205 C 0.71734 0.49027 0.62506 0.0
O206 O 0.73621 0.49649 0.66232 0.0
N207 N 0.73509 0.58037 0.56196 0.0
C208 C 0.68733 0.59131 0.58614 0.0
C209 C 0.70882 0.57287 0.59484 0.0
C210 C 0.72995 0.60505 0.53446 0.0
N211 N 0.70089 0.61215 0.54836 0.0
O212 O 0.79503 0.59272 0.61237 0.0
H213 H 0.70528 0.55514 0.62381 0.0
H214 H 0.7476 0.6182 0.50519 0.0
O215 O 0.73314 0.51484 0.59321 0.0
C216 C 0.81792 0.62823 0.59801 0.0
O217 O 0.82376 0.63332 0.55536 0.0
N218 N 0.7514 0.53538 0.50796 0.0
C219 C 0.72359 0.50641 0.42461 0.0
C220 C 0.71252 0.4802 0.46062 0.0
C221 C 0.72747 0.49525 0.50213 0.0
C222 C 0.76472 0.56062 0.47273 0.0
C223 C 0.75091 0.54686 0.43075 0.0
H224 H 0.71959 0.47451 0.52919 0.0
H225 H 0.78578 0.59187 0.47746 0.0
H226 H 0.78126 0.48908 0.59895 0.0
H227 H 0.8851 0.54021 0.52275 0.0
H228 H 0.66278 0.58827 0.60579 0.0
H229 H 0.69251 0.4485 0.45672 0.0
H230 H 0.76064 0.5679 0.40355 0.0
C231 C 0.5135 0.2966 0.56847 0.0
C232 C 0.53802 0.33653 0.5765 0.0
N233 N 0.57354 0.34201 0.58869 0.0
N234 N 0.53309 0.27665 0.576 0.0
C235 C 0.56955 0.30509 0.58864 0.0
H236 H 0.48317 0.28294 0.55794 0.0
Co237 Co 0.5106 0.22148 0.56949 0.0
C238 C 0.57173 0.20107 0.59463 0.0
O239 O 0.55862 0.17514 0.56248 0.0
N240 N 0.48612 0.16516 0.56448 0.0
C241 C 0.46141 0.10217 0.5869 0.0
C242 C 0.48225 0.14136 0.59906 0.0
C243 C 0.46521 0.13921 0.53231 0.0
N244 N 0.45054 0.10059 0.54476 0.0
O245 O 0.47881 0.2127 0.62149 0.0
H246 H 0.49406 0.15197 0.63138 0.0
H247 H 0.45893 0.14822 0.50135 0.0
O248 O 0.55545 0.22243 0.60248 0.0
C249 C 0.44379 0.20303 0.60939 0.0
O250 O 0.43758 0.20415 0.56717 0.0
N251 N 0.53815 0.23044 0.51551 0.0
C252 C 0.57094 0.24096 0.43134 0.0
C253 C 0.59514 0.25302 0.46832 0.0
C254 C 0.57823 0.24844 0.51005 0.0
C255 C 0.51477 0.22214 0.47965 0.0
C256 C 0.53027 0.22596 0.43733 0.0
H257 H 0.59761 0.25984 0.5376 0.0
H258 H 0.48374 0.21231 0.48395 0.0
H259 H 0.593 0.29912 0.59702 0.0
H260 H 0.52992 0.35954 0.57418 0.0
H261 H 0.455 0.07683 0.60772 0.0
H262 H 0.62687 0.26614 0.46497 0.0
H263 H 0.5104 0.21658 0.40971 0.0
C264 C 0.76897 0.21286 0.56207 0.0
C265 C 0.73137 0.19594 0.57941 0.0
N266 N 0.72625 0.22492 0.59783 0.0
N267 N 0.7877 0.25247 0.56894 0.0
C268 C 0.76119 0.25886 0.59122 0.0
H269 H 0.78074 0.19778 0.54242 0.0
Co270 Co 0.83502 0.28841 0.5411 0.0
C271 C 0.85841 0.36675 0.58261 0.0
O272 O 0.89379 0.37215 0.59056 0.0
N273 N 0.88328 0.32548 0.51178 0.0
C274 C 0.92446 0.37502 0.46722 0.0
C275 C 0.88597 0.35108 0.47958 0.0
C276 C 0.92152 0.33552 0.51877 0.0
N277 N 0.94704 0.36593 0.49242 0.0
O278 O 0.86373 0.28406 0.59023 0.0
H279 H 0.86185 0.35383 0.46645 0.0
H280 H 0.93094 0.32261 0.54424 0.0
O281 O 0.83243 0.3339 0.56585 0.0
C282 C 0.87241 0.25666 0.58248 0.0
O283 O 0.86314 0.23917 0.544 0.0
N284 N 0.80614 0.28807 0.49214 0.0
C285 C 0.78426 0.29964 0.40939 0.0
C286 C 0.77453 0.31443 0.44663 0.0
C287 C 0.78515 0.30764 0.48817 0.0
C288 C 0.81095 0.26898 0.45711 0.0
C289 C 0.80046 0.27461 0.41516 0.0
H290 H 0.77926 0.32079 0.51629 0.0
H291 H 0.82665 0.25264 0.4612 0.0
H292 H 0.76645 0.28813 0.60003 0.0
H293 H 0.70857 0.16528 0.57472 0.0
H294 H 0.9351 0.39831 0.44239 0.0
H295 H 0.76148 0.33341 0.44337 0.0
H296 H 0.80858 0.26277 0.38722 0.0
C297 C 0.88553 0.48174 0.10975 0.0
C298 C 0.86128 0.49728 0.10119 0.0
N299 N 0.82959 0.46991 0.07906 0.0
N300 N 0.86943 0.44472 0.09309 0.0
C301 C 0.83547 0.43835 0.07422 0.0
H302 H 0.9126 0.49599 0.12826 0.0
Co303 Co 0.89187 0.41243 0.10065 0.0
C304 C 0.83115 0.33052 0.07962 0.0
O305 O 0.84419 0.32022 0.11415 0.0
N306 N 0.91665 0.38096 0.10675 0.0
C307 C 0.94012 0.34157 0.0852 0.0
C308 C 0.91951 0.36003 0.07276 0.0
C309 C 0.9382 0.3766 0.13872 0.0
N310 N 0.95204 0.35187 0.12687 0.0
O311 O 0.92369 0.43491 0.04879 0.0
H312 H 0.90706 0.35809 0.04063 0.0
H313 H 0.94548 0.39286 0.16898 0.0
O314 O 0.84739 0.36759 0.06829 0.0
C315 C 0.9584 0.46147 0.06038 0.0
O316 O 0.96426 0.47099 0.10215 0.0
N317 N 0.86345 0.39398 0.15433 0.0
C318 C 0.82703 0.36858 0.23643 0.0
C319 C 0.80429 0.36048 0.19853 0.0
C320 C 0.82309 0.37438 0.15786 0.0
C321 C 0.88556 0.40635 0.19136 0.0
C322 C 0.86812 0.39313 0.23272 0.0
H323 H 0.80496 0.36897 0.12931 0.0
H324 H 0.91693 0.42679 0.18887 0.0
H325 H 0.81518 0.41095 0.05794 0.0
H326 H 0.8657 0.52584 0.11234 0.0
H327 H 0.94551 0.32176 0.06488 0.0
H328 H 0.77233 0.34363 0.20028 0.0
H329 H 0.88675 0.40147 0.2614 0.0
C330 C 0.55239 0.41142 0.13209 0.0
C331 C 0.53487 0.37074 0.12667 0.0
N332 N 0.55773 0.36318 0.09939 0.0
N333 N 0.58631 0.42958 0.10861 0.0
C334 C 0.58877 0.39941 0.08899 0.0
H335 H 0.54168 0.42683 0.15281 0.0
Co336 Co 0.62062 0.4847 0.10786 0.0
C337 C 0.69993 0.49714 0.08668 0.0
O338 O 0.71282 0.52535 0.11644 0.0
N339 N 0.65445 0.54117 0.10538 0.0
C340 C 0.69516 0.59996 0.07401 0.0
C341 C 0.67428 0.55954 0.06808 0.0
C342 C 0.66245 0.57182 0.1329 0.0
N343 N 0.68743 0.60801 0.11472 0.0
O344 O 0.59836 0.48954 0.05384 0.0
H345 H 0.67421 0.54426 0.0383 0.0
H346 H 0.64981 0.5681 0.16534 0.0
O347 O 0.66278 0.47726 0.07823 0.0
C348 C 0.57415 0.50121 0.06564 0.0
O349 O 0.56626 0.50054 0.10777 0.0
N350 N 0.63832 0.48012 0.16375 0.0
C351 C 0.65868 0.47518 0.25004 0.0
C352 C 0.66836 0.45701 0.21614 0.0
C353 C 0.65668 0.45868 0.17332 0.0
C354 C 0.62547 0.49452 0.19698 0.0
C355 C 0.63606 0.49322 0.24033 0.0
H356 H 0.66219 0.44247 0.14816 0.0
H357 H 0.60665 0.50696 0.1898 0.0
H358 H 0.61296 0.40371 0.06779 0.0
H359 H 0.50831 0.34841 0.14318 0.0
H360 H 0.71559 0.62126 0.05036 0.0
H361 H 0.68451 0.44145 0.22278 0.0
H362 H 0.62727 0.50685 0.26583 0.0
C363 C 0.62129 0.14201 0.07395 0.0
C364 C 0.6584 0.1627 0.05531 0.0
N365 N 0.6737 0.20183 0.06421 0.0
N366 N 0.6125 0.1678 0.09407 0.0
C367 C 0.64493 0.20401 0.08702 0.0
H368 H 0.60229 0.11003 0.07307 0.0
Co369 Co 0.56542 0.15513 0.12461 0.0
C370 C 0.53829 0.20531 0.08076 0.0
O371 O 0.50405 0.17353 0.07292 0.0
N372 N 0.51741 0.14305 0.15552 0.0
C373 C 0.47573 0.15155 0.19888 0.0
C374 C 0.51421 0.16684 0.18607 0.0
C375 C 0.47939 0.11346 0.15014 0.0
N376 N 0.45366 0.11808 0.17613 0.0
O377 O 0.53564 0.11988 0.07728 0.0
H378 H 0.53773 0.19501 0.19727 0.0
H379 H 0.46998 0.09053 0.12555 0.0
O380 O 0.56565 0.20111 0.09818 0.0
C381 C 0.5252 0.0835 0.08644 0.0
O382 O 0.53318 0.07518 0.12565 0.0
N383 N 0.59497 0.18592 0.17242 0.0
C384 C 0.61337 0.21864 0.25583 0.0
C385 C 0.62191 0.24344 0.21881 0.0
C386 C 0.612 0.2264 0.17715 0.0
C387 C 0.59251 0.16246 0.20715 0.0
C388 C 0.60113 0.17814 0.24942 0.0
H389 H 0.61442 0.2454 0.14992 0.0
H390 H 0.57949 0.13058 0.20268 0.0
H391 H 0.64803 0.23159 0.09927 0.0
H392 H 0.67276 0.14953 0.03677 0.0
H393 H 0.46457 0.16514 0.22177 0.0
H394 H 0.63271 0.27514 0.22232 0.0
H395 H 0.59449 0.15793 0.27702 0.0
C396 C 0.49431 0.89107 0.88775 0.0
C397 C 0.51133 0.86782 0.8947 0.0
N398 N 0.48612 0.83556 0.91866 0.0
N399 N 0.45831 0.87363 0.90686 0.0
C400 C 0.45385 0.83954 0.92527 0.0
H401 H 0.50715 0.91888 0.86949 0.0
Co402 Co 0.42747 0.89802 0.90487 0.0
C403 C 0.34476 0.83554 0.91405 0.0
O404 O 0.33898 0.85607 0.88333 0.0
N405 N 0.39768 0.92473 0.90485 0.0
C406 C 0.35753 0.94498 0.93233 0.0
C407 C 0.37559 0.92298 0.94017 0.0
C408 C 0.39411 0.95008 0.87691 0.0
N409 N 0.36941 0.96246 0.89257 0.0
O410 O 0.44563 0.92067 0.96205 0.0
H411 H 0.37179 0.90555 0.96955 0.0
H412 H 0.40937 0.95978 0.84582 0.0
O413 O 0.38002 0.84859 0.92859 0.0
C414 C 0.47218 0.95717 0.9558 0.0
O415 O 0.48497 0.96861 0.91535 0.0
N416 N 0.41336 0.87916 0.84637 0.0
C417 C 0.39109 0.85659 0.75974 0.0
C418 C 0.38051 0.82763 0.79272 0.0
C419 C 0.39341 0.83951 0.8356 0.0
C420 C 0.42805 0.90719 0.81368 0.0
C421 C 0.41659 0.89669 0.77009 0.0
H422 H 0.38633 0.8167 0.86027 0.0
H423 H 0.44854 0.93797 0.82148 0.0
H424 H 0.42775 0.81823 0.94324 0.0
H425 H 0.53972 0.87368 0.88195 0.0
H426 H 0.3358 0.94605 0.95366 0.0
H427 H 0.36238 0.79618 0.78541 0.0
H428 H 0.42673 0.91973 0.74498 0.0
C429 C 0.15656 0.62171 0.91036 0.0
C430 C 0.17659 0.66199 0.91806 0.0
N431 N 0.21475 0.67346 0.92576 0.0
N432 N 0.18164 0.60732 0.91334 0.0
C433 C 0.21689 0.63956 0.92299 0.0
H434 H 0.12557 0.60409 0.90272 0.0
Co435 Co 0.16521 0.55321 0.90679 0.0
C436 C 0.23288 0.54198 0.92706 0.0
O437 O 0.22061 0.51717 0.89381 0.0
N438 N 0.14636 0.49758 0.90241 0.0
C439 C 0.12857 0.43637 0.92671 0.0
C440 C 0.14698 0.47596 0.93715 0.0
C441 C 0.12522 0.46971 0.87197 0.0
N442 N 0.11418 0.43219 0.88585 0.0
O443 O 0.13334 0.54134 0.95955 0.0
H444 H 0.16024 0.48837 0.96846 0.0
H445 H 0.11646 0.47623 0.84094 0.0
O446 O 0.21376 0.56004 0.9381 0.0
C447 C 0.09783 0.52699 0.94592 0.0
O448 O 0.09227 0.52668 0.90336 0.0
N449 N 0.19213 0.56466 0.85173 0.0
C450 C 0.22478 0.57366 0.76776 0.0
C451 C 0.24911 0.59101 0.80398 0.0
C452 C 0.23213 0.58707 0.84551 0.0
C453 C 0.16814 0.55205 0.81609 0.0
C454 C 0.18376 0.55545 0.7738 0.0
H455 H 0.25147 0.60146 0.87248 0.0
H456 H 0.13659 0.5388 0.82053 0.0
H457 H 0.24375 0.63852 0.92655 0.0
H458 H 0.16402 0.68149 0.91719 0.0
H459 H 0.12689 0.41288 0.94763 0.0
H460 H 0.28098 0.60719 0.8003 0.0
H461 H 0.16391 0.54295 0.74633 0.0
C462 C 0.43159 0.56052 0.88207 0.0
C463 C 0.39222 0.54444 0.89263 0.0
N464 N 0.38807 0.56989 0.91949 0.0
N465 N 0.45227 0.59598 0.90212 0.0
C466 C 0.42502 0.60083 0.92494 0.0
H467 H 0.44437 0.5475 0.86066 0.0
Co468 Co 0.50665 0.62862 0.89742 0.0
C469 C 0.52267 0.71073 0.91678 0.0
O470 O 0.55055 0.72364 0.88647 0.0
N471 N 0.56241 0.66105 0.89416 0.0
C472 C 0.6235 0.70355 0.91584 0.0
C473 C 0.58456 0.68229 0.92847 0.0
C474 C 0.58919 0.66825 0.86181 0.0
N475 N 0.62658 0.69501 0.8736 0.0
O476 O 0.513 0.60785 0.95204 0.0
H477 H 0.57286 0.6833 0.96049 0.0
H478 H 0.5817 0.65323 0.83079 0.0
O479 O 0.50248 0.6732 0.92556 0.0
C480 C 0.52019 0.57981 0.94219 0.0
O481 O 0.51916 0.5705 0.90053 0.0
N482 N 0.49992 0.64438 0.84102 0.0
C483 C 0.49377 0.66107 0.75325 0.0
C484 C 0.48056 0.67654 0.78679 0.0
C485 C 0.48277 0.66678 0.83058 0.0
C486 C 0.50905 0.62598 0.80859 0.0
C487 C 0.50732 0.63474 0.76454 0.0
H488 H 0.47028 0.67693 0.85564 0.0
H489 H 0.51858 0.60486 0.81712 0.0
H490 H 0.43205 0.62635 0.94534 0.0
H491 H 0.36828 0.51673 0.8803 0.0
H492 H 0.64746 0.72456 0.93609 0.0
H493 H 0.46838 0.69569 0.77919 0.0
H494 H 0.51736 0.62168 0.73966 0.0
C495 C 0.56496 0.81951 0.41303 0.0
C496 C 0.53909 0.83365 0.40666 0.0
N497 N 0.50211 0.80251 0.40897 0.0
N498 N 0.54441 0.77955 0.41921 0.0
C499 C 0.50612 0.77017 0.41649 0.0
H500 H 0.59678 0.83747 0.41356 0.0
Co501 Co 0.56645 0.74632 0.42713 0.0
C502 C 0.50228 0.6637 0.4073 0.0
O503 O 0.51695 0.65101 0.43804 0.0
N504 N 0.5899 0.7136 0.43302 0.0
C505 C 0.61227 0.67325 0.41156 0.0
C506 C 0.59211 0.69222 0.39911 0.0
C507 C 0.61097 0.70859 0.46513 0.0
N508 N 0.62432 0.68346 0.45323 0.0
O509 O 0.59601 0.76623 0.37297 0.0
H510 H 0.57942 0.69028 0.36712 0.0
H511 H 0.61806 0.72456 0.49566 0.0
O512 O 0.51897 0.70129 0.39838 0.0
C513 C 0.63146 0.79133 0.38423 0.0
O514 O 0.63828 0.79968 0.42618 0.0
N515 N 0.54234 0.73134 0.48334 0.0
C516 C 0.51879 0.71285 0.57105 0.0
C517 C 0.49099 0.69709 0.53738 0.0
C518 C 0.5033 0.70711 0.49372 0.0
C519 C 0.56874 0.75041 0.51596 0.0
C520 C 0.55788 0.74102 0.56002 0.0
H521 H 0.48119 0.69503 0.46882 0.0
H522 H 0.59893 0.77214 0.50758 0.0
H523 H 0.48141 0.74034 0.42016 0.0
H524 H 0.54675 0.86458 0.40257 0.0
H525 H 0.61726 0.65313 0.39132 0.0
H526 H 0.46006 0.67691 0.54467 0.0
H527 H 0.58018 0.75471 0.58505 0.0
C528 C 0.22457 0.75702 0.45371 0.0
C529 C 0.20849 0.71631 0.449 0.0
N530 N 0.23438 0.70929 0.42659 0.0
N531 N 0.26047 0.77582 0.43426 0.0
C532 C 0.26534 0.74598 0.41744 0.0
H533 H 0.21171 0.77193 0.47184 0.0
Co534 Co 0.29682 0.83079 0.43756 0.0
C535 C 0.37503 0.83527 0.43344 0.0
O536 O 0.38554 0.8609 0.46581 0.0
N537 N 0.3338 0.88649 0.43872 0.0
C538 C 0.38326 0.94417 0.41346 0.0
C539 C 0.36052 0.90414 0.40582 0.0
C540 C 0.33976 0.91741 0.46477 0.0
N541 N 0.37001 0.95279 0.45046 0.0
O542 O 0.28272 0.83959 0.37915 0.0
H543 H 0.36376 0.88865 0.37792 0.0
H544 H 0.322 0.91475 0.49319 0.0
O545 O 0.3404 0.82088 0.41673 0.0
C546 C 0.25881 0.85298 0.3857 0.0
O547 O 0.2467 0.85236 0.42627 0.0
N548 N 0.30606 0.82318 0.49694 0.0
C549 C 0.3246 0.82178 0.58477 0.0
C550 C 0.32906 0.79716 0.55426 0.0
C551 C 0.31823 0.79728 0.51055 0.0
C552 C 0.29517 0.84167 0.52759 0.0
C553 C 0.30524 0.84242 0.57166 0.0
H554 H 0.32071 0.77754 0.48736 0.0
H555 H 0.27898 0.85633 0.51775 0.0
H556 H 0.29144 0.75099 0.39951 0.0
H557 H 0.18067 0.69357 0.46289 0.0
H558 H 0.40851 0.96473 0.39385 0.0
H559 H 0.34133 0.77856 0.56403 0.0
H560 H 0.29911 0.85995 0.59486 0.0
C561 C 0.29827 0.48242 0.44507 0.0
C562 C 0.3367 0.5025 0.43004 0.0
N563 N 0.34365 0.53705 0.4109 0.0
N564 N 0.28074 0.50406 0.43591 0.0
C565 C 0.30906 0.53712 0.41497 0.0
H566 H 0.2848 0.45508 0.46421 0.0
Co567 Co 0.23118 0.49216 0.45815 0.0
C568 C 0.21271 0.54928 0.412 0.0
O569 O 0.17803 0.51966 0.4008 0.0
N570 N 0.18108 0.48078 0.48153 0.0
C571 C 0.13697 0.49041 0.51844 0.0
C572 C 0.17605 0.50579 0.50853 0.0
C573 C 0.14373 0.4503 0.4751 0.0
N574 N 0.11642 0.45589 0.49682 0.0
O575 O 0.20622 0.45971 0.40681 0.0
H576 H 0.19907 0.53445 0.51952 0.0
H577 H 0.1363 0.42544 0.45347 0.0
O578 O 0.2368 0.54153 0.43207 0.0
C579 C 0.19806 0.42362 0.41447 0.0
O580 O 0.20584 0.4152 0.45373 0.0
N581 N 0.25542 0.5191 0.50975 0.0
C582 C 0.26903 0.54857 0.59459 0.0
C583 C 0.28218 0.57489 0.55852 0.0
C584 C 0.27585 0.55946 0.51595 0.0
C585 C 0.24665 0.49349 0.5443 0.0
C586 C 0.25305 0.5076 0.58719 0.0
H587 H 0.28447 0.57979 0.48848 0.0
H588 H 0.23127 0.46164 0.53857 0.0
H589 H 0.30511 0.56171 0.40475 0.0
H590 H 0.35858 0.49366 0.43618 0.0
H591 H 0.12454 0.5042 0.53925 0.0
H592 H 0.29507 0.60677 0.56318 0.0
H593 H 0.24242 0.48637 0.61422 0.0
C594 C 0.99655 0.32341 0.13065 0.0
C595 C 0.97453 0.33836 0.1523 0.0
C596 C 1.01522 0.3062 0.15383 0.0
C597 C 1.01369 0.3039 0.19995 0.0
H598 H 0.99902 0.32429 0.09522 0.0
H599 H 1.02994 0.29351 0.13507 0.0
S600 S 0.96468 0.34355 0.27338 0.0
N601 N 0.95414 0.35148 0.22331 0.0
N602 N 0.9925 0.32276 0.26686 0.0
C603 C 0.99404 0.32111 0.22236 0.0
C604 C 0.97383 0.33756 0.19862 0.0
C605 C 0.70875 0.64935 0.18167 0.0
C606 C 0.70499 0.64669 0.13575 0.0
C607 C 0.7291 0.6863 0.2026 0.0
C608 C 0.74766 0.72259 0.1787 0.0
H609 H 0.69699 0.62267 0.20183 0.0
H610 H 0.73073 0.68607 0.23801 0.0
S611 S 0.74242 0.73257 0.05774 0.0
N612 N 0.71696 0.68406 0.0673 0.0
N613 N 0.75838 0.75323 0.10611 0.0
C614 C 0.74277 0.72053 0.13277 0.0
C615 C 0.72085 0.68274 0.11148 0.0
C616 C 0.39098 0.11875 0.17741 0.0
C617 C 0.41114 0.09706 0.17445 0.0
C618 C 0.34983 0.09961 0.17691 0.0
C619 C 0.32684 0.05787 0.17334 0.0
H620 H 0.4072 0.15099 0.17973 0.0
H621 H 0.33586 0.11777 0.17971 0.0
S622 S 0.365 0.98711 0.16468 0.0
N623 N 0.40514 0.03145 0.16811 0.0
N624 N 0.32718 0.99523 0.1666 0.0
C625 C 0.34644 0.0356 0.17044 0.0
C626 C 0.3887 0.05526 0.17084 0.0
C627 C 0.33474 1.00091 0.79953 0.0
C628 C 0.31542 1.01878 0.82108 0.0
C629 C 0.35345 0.98393 0.82297 0.0
C630 C 0.35452 0.98479 0.86911 0.0
H631 H 0.33477 0.9991 0.76409 0.0
H632 H 0.36576 0.96866 0.80455 0.0
S633 S 0.3138 0.03339 0.94156 0.0
N634 N 0.30087 0.03863 0.89159 0.0
N635 N 0.3393 1.01004 0.93536 0.0
C636 C 0.33795 1.00523 0.8911 0.0
C637 C 0.31775 1.02152 0.86721 0.0
C638 C 0.09546 0.39662 0.81519 0.0
C639 C 0.09295 0.39565 0.86131 0.0
C640 C 0.0778 0.36148 0.79069 0.0
C641 C 0.05736 0.32369 0.81117 0.0
H642 H 0.11218 0.42469 0.79772 0.0
H643 H 0.08074 0.36407 0.75529 0.0
S644 S 0.03964 0.30455 0.93122 0.0
N645 N 0.06487 0.35363 0.92642 0.0
N646 N 0.03484 0.28755 0.8807 0.0
C647 C 0.05374 0.32221 0.8573 0.0
C648 C 0.07084 0.35815 0.88225 0.0
C649 C 0.6996 0.73034 0.86723 0.0
C650 C 0.66236 0.71279 0.84694 0.0
C651 C 0.73479 0.75074 0.84283 0.0
C652 C 0.73455 0.75401 0.79683 0.0
H653 H 0.70182 0.72882 0.90248 0.0
H654 H 0.76234 0.76493 0.86049 0.0
S655 S 0.64534 0.71005 0.72654 0.0
N656 N 0.62782 0.69937 0.77721 0.0
N657 N 0.69379 0.73419 0.73137 0.0
C658 C 0.69766 0.73482 0.77573 0.0
C659 C 0.66168 0.71502 0.8007 0.0
C660 C 0.68762 0.63768 0.47977 0.0
C661 C 0.6852 0.63429 0.5258 0.0
C662 C 0.66908 0.65521 0.45675 0.0
C663 C 0.64658 0.66956 0.47853 0.0
H664 H 0.70285 0.62552 0.46104 0.0
H665 H 0.67202 0.65682 0.42135 0.0
S666 S 0.63465 0.67202 0.59958 0.0
N667 N 0.66266 0.65144 0.59289 0.0
N668 N 0.62499 0.68111 0.54958 0.0
C669 C 0.64517 0.6678 0.5248 0.0
C670 C 0.66502 0.65088 0.54837 0.0
C671 C 0.38401 0.992 0.51857 0.0
C672 C 0.38713 0.99082 0.47263 0.0
C673 C 0.40351 0.02802 0.5414 0.0
C674 C 0.42775 0.06459 0.51955 0.0
H675 H 0.36739 0.96475 0.53747 0.0
H676 H 0.39988 0.02687 0.57672 0.0
S677 S 0.44282 0.07854 0.39864 0.0
N678 N 0.41272 0.03017 0.40544 0.0
N679 N 0.45217 0.09736 0.44854 0.0
C680 C 0.43012 0.0641 0.47335 0.0
C681 C 0.40928 0.0274 0.44992 0.0
C682 C 0.05368 0.39106 0.49715 0.0
C683 C 0.07396 0.43305 0.49407 0.0
C684 C 1.01204 0.36905 0.49758 0.0
C685 C 0.98956 0.3884 0.49439 0.0
H686 H 0.07011 0.37533 0.50004 0.0
H687 H 0.99731 0.33679 0.49981 0.0
S688 S 1.02869 0.49773 0.48533 0.0
N689 N 0.06834 0.4928 0.48648 0.0
N690 N 0.99083 0.45196 0.48932 0.0
C691 C 1.00968 0.43033 0.49139 0.0
C692 C 0.05167 0.4525 0.49064 0.0
C693 C 0.17251 0.35188 0.39283 0.0
C694 C 0.1803 0.3908 0.38133 0.0
C695 C 0.15763 0.32041 0.36233 0.0
C696 C 0.1502 0.32652 0.3188 0.0
H697 H 0.17849 0.34558 0.42569 0.0
H698 H 0.1531 0.2915 0.37259 0.0
S699 S 0.16132 0.42117 0.27267 0.0
N700 N 0.17642 0.43236 0.32382 0.0
N701 N 0.14863 0.37378 0.26662 0.0
C702 C 0.15646 0.36485 0.30724 0.0
C703 C 0.17143 0.39678 0.33836 0.0
C704 C 0.70433 0.83283 0.36949 0.0
C705 C 0.66569 0.80909 0.35301 0.0
C706 C 0.73775 0.84973 0.34174 0.0
C707 C 0.73399 0.84405 0.29621 0.0
H708 H 0.70904 0.83847 0.40436 0.0
H709 H 0.76663 0.86787 0.356 0.0
S710 S 0.64002 0.78264 0.23632 0.0
N711 N 0.62615 0.7796 0.2882 0.0
N712 N 0.68852 0.8113 0.23587 0.0
C713 C 0.6956 0.81993 0.27926 0.0
C714 C 0.66162 0.8025 0.30763 0.0
C715 C 0.21186 0.90933 0.33269 0.0
C716 C 0.22328 0.91287 0.28838 0.0
C717 C 0.22337 0.88969 0.36324 0.0
C718 C 0.24722 0.87295 0.35114 0.0
H719 H 0.19278 0.92064 0.34365 0.0
H720 H 0.21308 0.88749 0.39682 0.0
S721 S 0.28817 0.87753 0.23957 0.0
N722 N 0.2618 0.90006 0.23413 0.0
N723 N 0.28373 0.86375 0.29168 0.0
C724 C 0.25991 0.87746 0.30712 0.0
C725 C 0.24789 0.89721 0.27583 0.0
C726 C 0.37146 0.17632 0.62378 0.0
C727 C 0.40928 0.18705 0.64018 0.0
C728 C 0.3377 0.15976 0.65105 0.0
C729 C 0.34041 0.15361 0.69599 0.0
H730 H 0.36767 0.18069 0.58938 0.0
H731 H 0.30949 0.15247 0.63699 0.0
S732 S 0.43157 0.1737 0.75511 0.0
N733 N 0.44668 0.18827 0.70413 0.0
N734 N 0.38363 0.15748 0.75546 0.0
C735 C 0.37787 0.16358 0.71278 0.0
C736 C 0.41217 0.18022 0.68494 0.0
C737 C 0.88466 0.24549 0.66077 0.0
C738 C 0.89074 0.24266 0.61575 0.0
C739 C 0.8979 0.22825 0.69233 0.0
C740 C 0.91821 0.20778 0.68033 0.0
H741 H 0.86849 0.26006 0.67174 0.0
H742 H 0.8919 0.23097 0.72655 0.0
S743 S 0.94457 0.19493 0.56658 0.0
N744 N 0.92036 0.21965 0.56064 0.0
N745 N 0.94549 0.18775 0.61994 0.0
C746 C 0.92557 0.20586 0.63541 0.0
C747 C 0.91179 0.22314 0.6032 0.0
C748 C 0.84667 0.69307 0.70014 0.0
C749 C 0.86132 0.73212 0.68311 0.0
C750 C 0.83303 0.65974 0.67265 0.0
C751 C 0.83379 0.66397 0.62682 0.0
H752 H 0.84518 0.68788 0.73526 0.0
H753 H 0.82173 0.63046 0.68749 0.0
S754 S 0.86911 0.75959 0.56525 0.0
N755 N 0.87558 0.77287 0.61734 0.0
N756 N 0.85041 0.71068 0.56542 0.0
C757 C 0.84873 0.70293 0.60922 0.0
C758 C 0.86235 0.73684 0.63735 0.0
C759 C 1.03045 0.50791 0.04498 0.0
C760 C 0.99313 0.47812 0.02994 0.0
C761 C 0.06454 0.52294 0.01835 0.0
C762 C 0.06263 0.50904 0.97544 0.0
H763 H 0.03355 0.51984 0.07778 0.0
H764 H 0.09235 0.54613 0.03114 0.0
S765 S 0.97313 0.42934 0.92107 0.0
N766 N 0.95713 0.43405 0.96982 0.0
N767 N 1.0208 0.46219 0.91974 0.0
C768 C 1.02569 0.47886 0.96015 0.0
C769 C 0.99107 0.46348 0.98732 0.0
C770 C 0.54295 0.53109 0.96058 0.0
C771 C 0.53268 0.55964 0.97496 0.0
C772 C 0.55647 0.51239 0.98981 0.0
C773 C 0.55978 0.52101 0.03478 0.0
H774 H 0.54091 0.5232 0.92621 0.0
H775 H 0.56409 0.49083 0.97711 0.0
S776 S 0.53841 0.59461 0.08937 0.0
N777 N 0.528 0.59631 0.03724 0.0
N778 N 0.55299 0.56115 0.09233 0.0
C779 C 0.54972 0.54955 0.04971 0.0
C780 C 0.53627 0.56884 0.01983 0.0
C781 C 0.52028 0.05972 0.0092 0.0
C782 C 0.50815 0.0513 0.05327 0.0
C783 C 0.50882 0.02892 0.97851 0.0
C784 C 0.48428 0.98833 0.99037 0.0
H785 H 0.53994 0.09021 0.9986 0.0
H786 H 0.51955 0.03725 0.94508 0.0
S787 S 0.44159 0.95093 0.1013 0.0
N788 N 0.46858 0.99981 0.10714 0.0
N789 N 0.44641 0.942 0.04924 0.0
C790 C 0.4709 0.97967 0.03417 0.0
C791 C 0.48297 1.01109 0.0656 0.0
C792 C 0.08099 0.20627 0.00837 0.0
C793 C 0.05516 0.18498 0.04338 0.0
C794 C 0.06792 0.20046 0.96481 0.0
C795 C 1.02845 0.17304 0.95431 0.0
H796 H 0.11161 0.22782 0.01463 0.0
H797 H 0.08881 0.21825 0.93924 0.0
S798 S 0.94905 0.10887 0.03352 0.0
N799 N 0.98807 0.13519 0.06442 0.0
N800 N 0.96398 0.12323 0.98243 0.0
C801 C 1.00245 0.151 0.98886 0.0
C802 C 1.0157 0.15709 0.03331 0.0
C803 C 0.91811 0.88453 0.97367 0.0
C804 C 0.89933 0.8945 0.94064 0.0
C805 C 0.91283 0.88993 0.0182 0.0
C806 C 0.88848 0.90542 0.03136 0.0
H807 H 0.936 0.87118 0.9651 0.0
H808 H 0.92621 0.87992 0.04253 0.0
S809 S 0.8364 0.94064 0.95788 0.0
N810 N 0.85777 0.92341 0.9242 0.0
N811 N 0.84888 0.93469 0.00786 0.0
C812 C 0.87162 0.91793 0.99864 0.0
C813 C 0.87685 0.91228 0.9533 0.0
C814 C 0.14055 1.00615 0.95615 0.0
C815 C 0.16661 0.04749 0.95152 0.0
C816 C 0.12903 0.98812 0.99778 0.0
C817 C 0.14273 1.01087 0.03624 0.0
H818 H 0.13049 0.98728 0.92742 0.0
H819 H 0.11027 0.95599 -7e-05 0.0
S820 S 0.2091 0.12065 0.04186 0.0
N821 N 0.20363 0.11101 0.98876 0.0
N822 N 0.18251 0.07719 0.067 0.0
C823 C 0.16735 0.0525 0.032 0.0
C824 C 0.17921 0.07078 0.98965 0.0
C825 C 0.71472 0.49461 0.3012 0.0
C826 C 0.67382 0.47729 0.29489 0.0
C827 C 0.73056 0.50235 0.34349 0.0
C828 C 0.70598 0.49252 0.38086 0.0
H829 H 0.73476 0.50397 0.27322 0.0
H830 H 0.76235 0.51718 0.34699 0.0
S831 S 0.59665 0.44326 0.38196 0.0
N832 N 0.60883 0.44791 0.3293 0.0
N833 N 0.63864 0.46242 0.40899 0.0
C834 C 0.66489 0.47327 0.37504 0.0
C835 C 0.64879 0.46574 0.33197 0.0
C836 C 0.61211 0.22572 0.37997 0.0
C837 C 0.5876 0.24244 0.38691 0.0
C838 C 0.62291 0.22072 0.3374 0.0
C839 C 0.60971 0.2324 0.30028 0.0
H840 H 0.6212 0.21438 0.40745 0.0
H841 H 0.64021 0.20596 0.33342 0.0
S842 S 0.54913 0.28241 0.30133 0.0
N843 N 0.55436 0.27495 0.35366 0.0
N844 N 0.57321 0.26427 0.27367 0.0
C845 C 0.58734 0.25158 0.30704 0.0
C846 C 0.57658 0.25683 0.35034 0.0
C847 C 0.82025 0.37514 0.31726 0.0
C848 C 0.80863 0.35104 0.27964 0.0
C849 C 0.80899 0.35829 0.35933 0.0
C850 C 0.78591 0.3167 0.3653 0.0
H851 H 0.83966 0.40711 0.31426 0.0
H852 H 0.82083 0.37776 0.38743 0.0
S853 S 0.74324 0.241 0.27756 0.0
N854 N 0.76934 0.28379 0.25093 0.0
N855 N 0.74809 0.25224 0.33029 0.0
C856 C 0.77164 0.29255 0.32797 0.0
C857 C 0.78295 0.3097 0.28504 0.0
C858 C 0.3337 0.82928 0.70901 0.0
C859 C 0.37448 0.84516 0.71516 0.0
C860 C 0.31747 0.82096 0.66676 0.0
C861 C 0.3414 0.82742 0.62941 0.0
H862 H 0.31441 0.82436 0.73698 0.0
H863 H 0.28608 0.80975 0.66323 0.0
S864 S 0.44967 0.86707 0.62827 0.0
N865 N 0.43826 0.86626 0.6808 0.0
N866 N 0.40774 0.84977 0.6014 0.0
C867 C 0.38205 0.84221 0.63532 0.0
C868 C 0.39863 0.85136 0.67822 0.0
C869 C 0.24144 0.57986 0.64441 0.0
C870 C 0.26523 0.56218 0.63882 0.0
C871 C 0.22969 0.58499 0.68639 0.0
C872 C 0.24176 0.5731 0.7242 0.0
H873 H 0.22986 0.58755 0.61606 0.0
H874 H 0.21003 0.5972 0.68923 0.0
S875 S 0.30706 0.52861 0.7272 0.0
N876 N 0.3026 0.53526 0.67437 0.0
N877 N 0.28084 0.54516 0.75345 0.0
C878 C 0.26741 0.5575 0.71911 0.0
C879 C 0.27902 0.55192 0.67635 0.0
C880 C 0.51445 0.71423 0.6957 0.0
C881 C 0.49507 0.6734 0.70684 0.0
C882 C 0.52085 0.72681 0.65167 0.0
C883 C 0.50781 0.69901 0.61723 0.0
H884 H 0.52623 0.73663 0.72116 0.0
H885 H 0.53683 0.75856 0.64453 0.0
S886 S 0.45276 0.58859 0.62924 0.0
N887 N 0.4604 0.60521 0.68016 0.0
N888 N 0.4731 0.62873 0.59741 0.0
C889 C 0.48692 0.65807 0.62802 0.0
C890 C 0.48045 0.6453 0.67282 0.0
C891 C 0.15041 0.07193 0.2715 0.0
C892 C 0.18667 0.0748 0.25949 0.0
C893 C 0.14432 0.10495 0.26746 0.0
C894 C 0.17391 0.14193 0.25015 0.0
H895 H 0.12663 0.04399 0.2843 0.0
H896 H 0.11624 0.10142 0.27819 0.0
S897 S 0.27194 0.16248 0.20718 0.0
N898 N 0.2514 0.11641 0.22652 0.0
N899 N 0.23942 0.17726 0.21633 0.0
C900 C 0.20979 0.14445 0.23646 0.0
C901 C 0.21626 0.11124 0.24172 0.0
C902 C 0.99866 0.08692 0.25126 0.0
C903 C 0.99321 0.11896 0.26396 0.0
C904 C 0.9663 0.04773 0.24868 0.0
C905 C 0.92759 0.03953 0.25862 0.0
H906 H 1.0273 0.09259 0.23955 0.0
H907 H 0.97116 1.02442 0.23558 0.0
S908 S 0.89942 0.11185 0.30185 0.0
N909 N 0.94739 0.13896 0.29226 0.0
N910 N 0.88708 0.06563 0.28857 0.0
C911 C 0.9227 0.0707 0.27555 0.0
C912 C 0.9554 0.11033 0.27795 0.0
C913 C 0.96614 0.90975 0.26055 0.0
C914 C 0.93523 0.87097 0.2519 0.0
C915 C 1.00529 0.91752 0.26498 0.0
C916 C 1.01489 0.88681 0.26113 0.0
H917 H 0.96055 0.93459 0.26111 0.0
H918 H 1.0284 0.94804 0.27002 0.0
S919 S 0.94337 0.77943 0.24253 0.0
N920 N 0.91603 0.80112 0.24342 0.0
N921 N 0.98906 0.81555 0.25057 0.0
C922 C 0.98363 0.84756 0.25502 0.0
C923 C 0.944 0.83974 0.25068 0.0
C924 C 0.07807 0.12096 0.70175 0.0
C925 C 0.06988 0.14987 0.71869 0.0
C926 C 0.11636 0.12648 0.70258 0.0
C927 C 0.14778 0.1603 0.72238 0.0
H928 H 0.05425 0.09281 0.69006 0.0
H929 H 0.12064 0.10274 0.68986 0.0
S930 S 0.14277 0.24842 0.76368 0.0
N931 N 0.0974 0.21693 0.74795 0.0
N932 N 0.16863 0.22605 0.75317 0.0
C933 C 0.14064 0.19128 0.73538 0.0
C934 C 0.10181 0.18627 0.73274 0.0
C935 C 0.9387 1.01307 0.69812 0.0
C936 C 0.90667 1.01264 0.72061 0.0
C937 C 0.93767 0.97732 0.6859 0.0
C938 C 0.90475 0.93986 0.69608 0.0
H939 H 0.96561 0.04104 0.6921 0.0
H940 H 0.96373 0.97901 0.67084 0.0
S941 S 0.81109 0.92232 0.74812 0.0
N942 N 0.83916 0.9714 0.74691 0.0
N943 N 0.83801 0.90471 0.72582 0.0
C944 C 0.87182 0.93915 0.71612 0.0
C945 C 0.87256 0.97536 0.72784 0.0
C946 C 0.12186 0.94747 0.73156 0.0
C947 C 0.13062 0.98731 0.73628 0.0
C948 C 0.08277 0.91578 0.73156 0.0
C949 C 0.05055 0.92236 0.73722 0.0
H950 H 0.14558 0.94049 0.73062 0.0
H951 H 0.07791 0.88568 0.72917 0.0
S952 S 0.05718 1.02158 0.74693 0.0
N953 N 0.10342 0.03175 0.74222 0.0
N954 N 1.03031 0.97253 0.74446 0.0
C955 C 0.05876 0.9623 0.73896 0.0
C956 C 0.0987 0.99467 0.73797 0.0
C957 C 0.88365 0.44072 0.58198 0.0
C958 C 0.85137 0.40147 0.58405 0.0
C959 C 0.87813 0.47388 0.57689 0.0
C960 C 0.8401 0.46936 0.57389 0.0
H961 H 0.91361 0.44593 0.58264 0.0
H962 H 0.90394 0.50333 0.57472 0.0
S963 S 0.74543 0.37328 0.58023 0.0
N964 N 0.77978 0.3605 0.58577 0.0
N965 N 0.76947 0.42229 0.57438 0.0
C966 C 0.8075 0.43041 0.57731 0.0
C967 C 0.81313 0.39668 0.5828 0.0
C968 C 0.6698 0.41746 0.64023 0.0
C969 C 0.67901 0.45309 0.61787 0.0
C970 C 0.63536 0.38131 0.63062 0.0
C971 C 0.60864 0.37947 0.59853 0.0
H972 H 0.68983 0.41722 0.66454 0.0
H973 H 0.62956 0.35461 0.64851 0.0
S974 S 0.61893 0.46453 0.53088 0.0
N975 N 0.65772 0.48437 0.56318 0.0
N976 N 0.59441 0.41662 0.5439 0.0
C977 C 0.6174 0.41501 0.57627 0.0
C978 C 0.65215 0.45173 0.58628 0.0
C979 C 0.6819 0.25396 0.60306 0.0
C980 C 0.68878 0.22173 0.61035 0.0
C981 C 0.64356 0.24869 0.60467 0.0
C982 C 0.61061 0.21079 0.61254 0.0
H983 H 0.70567 0.28272 0.59252 0.0
H984 H 0.63965 0.2736 0.59546 0.0
S985 S 0.61303 0.11953 0.64562 0.0
N986 N 0.6598 0.15299 0.63622 0.0
N987 N 0.58768 0.14256 0.63586 0.0
C988 C 0.61741 0.17963 0.62483 0.0
C989 C 0.65646 0.18518 0.62445 0.0
C990 C 0.79951 0.51075 0.05899 0.0
C991 C 0.79508 0.4731 0.06898 0.0
C992 C 0.76712 0.5171 0.05964 0.0
C993 C 0.72884 0.48598 0.06976 0.0
H994 H 0.82867 0.53615 0.05339 0.0
H995 H 0.77256 0.54735 0.05541 0.0
S996 S 0.70033 0.38042 0.09204 0.0
N997 N 0.74867 0.40322 0.08485 0.0
N998 N 0.68759 0.41498 0.08467 0.0
C999 C 0.72328 0.44729 0.07532 0.0
C1000 C 0.75649 0.44088 0.07526 0.0
C1001 C 0.58058 0.27998 0.08308 0.0
C1002 C 0.5429 0.24606 0.07834 0.0
C1003 C 0.58527 0.31827 0.08817 0.0
C1004 C 0.55262 0.32438 0.08874 0.0
H1005 H 0.60668 0.27688 0.08423 0.0
H1006 H 0.61448 0.34305 0.09379 0.0
S1007 S 0.44811 0.24681 0.07223 0.0
N1008 N 0.47249 0.22197 0.07083 0.0
N1009 N 0.48171 0.29404 0.07982 0.0
C1010 C 0.51504 0.29122 0.08162 0.0
C1011 C 0.51013 0.25213 0.07638 0.0
C1012 C 0.76127 0.30621 0.05682 0.0
C1013 C 0.79326 0.29936 0.06145 0.0
C1014 C 0.72228 0.27408 0.05485 0.0
C1015 C 0.71392 0.23402 0.05742 0.0
H1016 H 0.76599 0.33632 0.05832 0.0
H1017 H 0.6984 0.28071 0.05347 0.0
S1018 S 0.78871 0.20107 0.06376 0.0
N1019 N 0.81485 0.25027 0.06319 0.0
N1020 N 0.74218 0.1901 0.06071 0.0
C1021 C 0.74621 0.22714 0.05839 0.0
C1022 C 0.7857 0.25978 0.06007 0.0
C1023 C 0.46252 0.76288 0.9241 0.0
C1024 C 0.49232 0.80276 0.93048 0.0
C1025 C 0.47133 0.73153 0.92491 0.0
C1026 C 0.51017 0.73927 0.93188 0.0
H1027 H 0.43311 0.75629 0.91503 0.0
H1028 H 0.44845 0.70183 0.91618 0.0
S1029 S 0.59628 0.83691 0.96024 0.0
N1030 N 0.5602 0.84687 0.95212 0.0
N1031 N 0.57685 0.78845 0.95215 0.0
C1032 C 0.539 0.77829 0.94271 0.0
C1033 C 0.53005 0.80992 0.94237 0.0
C1034 C 0.27485 0.78345 0.90361 0.0
C1035 C 0.3113 0.7948 0.92379 0.0
C1036 C 0.24369 0.74428 0.90536 0.0
C1037 C 0.24687 0.71424 0.92798 0.0
H1038 H 0.2704 0.80468 0.88465 0.0
H1039 H 0.21734 0.73735 0.88722 0.0
S1040 S 0.33331 0.72917 0.99309 0.0
N1041 N 0.34742 0.77354 0.97116 0.0
N1042 N 0.28786 0.69949 0.97582 0.0
C1043 C 0.28223 0.72536 0.95072 0.0
C1044 C 0.31453 0.76569 0.94849 0.0
C1045 C 0.28062 0.52111 0.94883 0.0
C1046 C 0.27239 0.55256 0.94395 0.0
C1047 C 0.31913 0.52755 0.94434 0.0
C1048 C 0.35103 0.56573 0.93475 0.0
H1049 H 0.25658 0.4906 0.95186 0.0
H1050 H 0.32361 0.502 0.9454 0.0
S1051 S 0.34644 0.65931 0.92634 0.0
N1052 N 0.30032 0.62427 0.93605 0.0
N1053 N 0.37254 0.63627 0.92598 0.0
C1054 C 0.3439 0.59812 0.93456 0.0
C1055 C 0.30457 0.59156 0.93973 0.0
C1056 C 0.42582 0.83275 0.3846 0.0
C1057 C 0.40171 0.81941 0.42247 0.0
C1058 C 0.45794 0.82588 0.37935 0.0
C1059 C 0.46638 0.80481 0.41139 0.0
H1060 H 0.42128 0.85056 0.36023 0.0
H1061 H 0.47703 0.83806 0.35077 0.0
S1062 S 0.41243 0.76378 0.51626 0.0
N1063 N 0.3891 0.78456 0.4925 0.0
N1064 N 0.44797 0.7704 0.48162 0.0
C1065 C 0.44157 0.79003 0.44835 0.0
C1066 C 0.40965 0.79774 0.45418 0.0
C1067 C 0.1882 0.59845 0.40655 0.0
C1068 C 0.22025 0.59135 0.41006 0.0
C1069 C 0.19328 0.63704 0.41079 0.0
C1070 C 0.23066 0.67048 0.41843 0.0
H1071 H 0.15852 0.57379 0.4021 0.0
H1072 H 0.16752 0.64065 0.40872 0.0
S1073 S 0.32491 0.669 0.42752 0.0
N1074 N 0.29137 0.62198 0.41868 0.0
N1075 N 0.30065 0.69395 0.42813 0.0
C1076 C 0.26325 0.66414 0.4205 0.0
C1077 C 0.25809 0.6248 0.41599 0.0
C1078 C 0.43026 0.64183 0.40201 0.0
C1079 C 0.46176 0.63487 0.3928 0.0
C1080 C 0.39112 0.60999 0.40503 0.0
C1081 C 0.38199 0.57012 0.39817 0.0
H1082 H 0.43602 0.67136 0.41083 0.0
H1083 H 0.36849 0.61649 0.41601 0.0
S1084 S 0.45294 0.53803 0.36148 0.0
N1085 N 0.48061 0.58651 0.36964 0.0
N1086 N 0.40712 0.52716 0.3725 0.0
C1087 C 0.41277 0.56371 0.38357 0.0
C1088 C 0.45257 0.59595 0.3815 0.0
loop_
_geom_bond_atom_site_label_1
_geom_bond_atom_site_label_2
_geom_bond_distance
_geom_bond_site_symmetry_2
_ccdc_geom_bond_type
C0 C1 1.351 . S
C0 N3 1.368 . S
C0 H5 0.931 . S
C1 C0 1.351 . S
C1 N2 1.373 . S
C1 H29 0.930 . S
N2 C1 1.373 . S
N2 C4 1.340 . S
N3 C0 1.368 . S
N3 C4 1.321 . S
N3 Co6 2.135 . S
C4 N2 1.340 . S
C4 N3 1.321 . S
C4 H28 0.930 . S
H5 C0 0.931 . S
Co6 N3 2.135 . S
Co6 N9 2.121 1_455 S
Co6 O14 2.055 . S
Co6 O17 2.039 1_455 S
Co6 N20 2.140 . S
C7 O8 1.227 . S
C7 O17 1.265 . S
O8 C7 1.227 . S
N9 Co6 2.121 1_655 S
N9 C11 1.375 . S
N9 C12 1.313 . S
C10 C11 1.338 . S
C10 N13 1.377 . S
C10 H30 0.930 . S
C11 N9 1.375 . S
C11 C10 1.338 . S
C11 H15 0.931 . S
C12 N9 1.313 . S
C12 N13 1.344 . S
C12 H16 0.924 1_655 S
N13 C10 1.377 . S
N13 C12 1.344 . S
O14 Co6 2.055 . S
O14 C18 1.253 . S
H15 C11 0.931 . S
H16 C12 0.924 1_455 S
O17 Co6 2.039 1_655 S
O17 C7 1.265 . S
C18 O14 1.253 . S
C18 O19 1.227 . S
O19 C18 1.227 . S
N20 Co6 2.140 . S
N20 C23 1.346 . S
N20 C24 1.345 . S
C21 C22 1.387 . S
C21 C25 1.391 . S
C22 C21 1.387 . S
C22 C23 1.369 . S
C22 H31 0.929 . S
C23 N20 1.346 . S
C23 C22 1.369 . S
C23 H26 0.928 . S
C24 N20 1.345 . S
C24 C25 1.371 . S
C24 H27 0.931 . S
C25 C21 1.391 . S
C25 C24 1.371 . S
C25 H32 0.930 . S
H26 C23 0.928 . S
H27 C24 0.931 . S
H28 C4 0.930 . S
H29 C1 0.930 . S
H30 C10 0.930 . S
H31 C22 0.929 . S
H32 C25 0.930 . S
C33 C34 1.351 . S
C33 N36 1.368 . S
C33 H38 0.931 . S
C34 C33 1.351 . S
C34 N35 1.373 . S
C34 H62 0.930 . S
N35 C34 1.373 . S
N35 C37 1.340 . S
N36 C33 1.368 . S
N36 C37 1.321 . S
N36 Co39 2.135 . S
C37 N35 1.340 . S
C37 N36 1.321 . S
C37 H61 0.930 . S
H38 C33 0.931 . S
Co39 N36 2.135 . S
Co39 N42 2.121 . S
Co39 O47 2.055 . S
Co39 O50 2.039 . S
Co39 N53 2.140 . S
C40 O41 1.227 . S
C40 O50 1.265 . S
O41 C40 1.227 . S
N42 Co39 2.121 . S
N42 C44 1.375 . S
N42 C45 1.313 . S
C43 C44 1.338 . S
C43 N46 1.377 . S
C43 H63 0.930 . S
C44 N42 1.375 . S
C44 C43 1.338 . S
C44 H48 0.931 . S
C45 N42 1.313 . S
C45 N46 1.344 . S
C45 H49 0.930 . S
N46 C43 1.377 . S
N46 C45 1.344 . S
O47 Co39 2.055 . S
O47 C51 1.253 . S
H48 C44 0.931 . S
H49 C45 0.930 . S
O50 Co39 2.039 . S
O50 C40 1.265 . S
C51 O47 1.253 . S
C51 O52 1.227 . S
O52 C51 1.227 . S
N53 Co39 2.140 . S
N53 C56 1.346 . S
N53 C57 1.345 . S
C54 C55 1.387 . S
C54 C58 1.391 . S
C55 C54 1.387 . S
C55 C56 1.369 . S
C55 H64 0.929 . S
C56 N53 1.346 . S
C56 C55 1.369 . S
C56 H59 0.928 . S
C57 N53 1.345 . S
C57 C58 1.371 . S
C57 H60 0.931 . S
C58 C54 1.391 . S
C58 C57 1.371 . S
C58 H65 0.930 . S
H59 C56 0.928 . S
H60 C57 0.931 . S
H61 C37 0.930 . S
H62 C34 0.930 . S
H63 C43 0.930 . S
H64 C55 0.929 . S
H65 C58 0.930 . S
C66 C67 1.351 . S
C66 N69 1.368 . S
C66 H71 0.931 . S
C67 C66 1.351 . S
C67 N68 1.373 . S
C67 H95 0.930 . S
N68 C67 1.373 . S
N68 C70 1.340 . S
N69 C66 1.368 . S
N69 C70 1.321 . S
N69 Co72 2.135 . S
C70 N68 1.340 . S
C70 N69 1.321 . S
C70 H94 0.930 . S
H71 C66 0.931 . S
Co72 N69 2.135 . S
Co72 N75 2.121 1_565 S
Co72 O80 2.055 . S
Co72 O83 2.039 1_565 S
Co72 N86 2.140 . S
C73 O74 1.227 . S
C73 O83 1.265 . S
O74 C73 1.227 . S
N75 Co72 2.121 1_545 S
N75 C77 1.375 . S
N75 C78 1.313 . S
C76 C77 1.338 . S
C76 N79 1.377 . S
C76 H96 0.930 . S
C77 N75 1.375 . S
C77 C76 1.338 . S
C77 H81 0.931 . S
C78 N75 1.313 . S
C78 N79 1.344 . S
C78 H82 0.918 1_545 S
N79 C76 1.377 . S
N79 C78 1.344 . S
O80 Co72 2.055 . S
O80 C84 1.253 . S
H81 C77 0.931 . S
H82 C78 0.918 1_565 S
O83 Co72 2.039 1_545 S
O83 C73 1.265 . S
C84 O80 1.253 . S
C84 O85 1.227 . S
O85 C84 1.227 . S
N86 Co72 2.140 . S
N86 C89 1.346 . S
N86 C90 1.345 . S
C87 C88 1.387 . S
C87 C91 1.391 . S
C88 C87 1.387 . S
C88 C89 1.369 . S
C88 H97 0.929 . S
C89 N86 1.346 . S
C89 C88 1.369 . S
C89 H92 0.928 . S
C90 N86 1.345 . S
C90 C91 1.371 . S
C90 H93 0.931 . S
C91 C87 1.391 . S
C91 C90 1.371 . S
C91 H98 0.930 . S
H92 C89 0.928 . S
H93 C90 0.931 . S
H94 C70 0.930 . S
H95 C67 0.930 . S
H96 C76 0.930 . S
H97 C88 0.929 . S
H98 C91 0.930 . S
C99 C100 1.351 . S
C99 N102 1.368 . S
C99 H104 0.931 . S
C100 C99 1.351 . S
C100 N101 1.373 . S
C100 H128 0.930 . S
N101 C100 1.373 . S
N101 C103 1.340 . S
N102 C99 1.368 . S
N102 C103 1.321 . S
N102 Co105 2.135 . S
C103 N101 1.340 . S
C103 N102 1.321 . S
C103 H127 0.930 . S
H104 C99 0.931 . S
Co105 N102 2.135 . S
Co105 N108 2.121 1_545 S
Co105 O113 2.055 . S
Co105 O116 2.039 1_545 S
Co105 N119 2.140 . S
C106 O107 1.227 . S
C106 O116 1.265 . S
O107 C106 1.227 . S
N108 Co105 2.121 1_565 S
N108 C110 1.375 . S
N108 C111 1.313 . S
C109 C110 1.338 . S
C109 N112 1.377 . S
C109 H129 0.930 . S
C110 N108 1.375 . S
C110 C109 1.338 . S
C110 H114 0.931 . S
C111 N108 1.313 . S
C111 N112 1.344 . S
C111 H115 0.924 1_565 S
N112 C109 1.377 . S
N112 C111 1.344 . S
O113 Co105 2.055 . S
O113 C117 1.253 . S
H114 C110 0.931 . S
H115 C111 0.924 1_545 S
O116 Co105 2.039 1_565 S
O116 C106 1.265 . S
C117 O113 1.253 . S
C117 O118 1.227 . S
O118 C117 1.227 . S
N119 Co105 2.140 . S
N119 C122 1.346 . S
N119 C123 1.345 . S
C120 C121 1.387 . S
C120 C124 1.391 . S
C121 C120 1.387 . S
C121 C122 1.369 . S
C121 H130 0.929 . S
C122 N119 1.346 . S
C122 C121 1.369 . S
C122 H125 0.928 . S
C123 N119 1.345 . S
C123 C124 1.371 . S
C123 H126 0.931 . S
C124 C120 1.391 . S
C124 C123 1.371 . S
C124 H131 0.930 . S
H125 C122 0.928 . S
H126 C123 0.931 . S
H127 C103 0.930 . S
H128 C100 0.930 . S
H129 C109 0.930 . S
H130 C121 0.929 . S
H131 C124 0.930 . S
C132 C133 1.351 . S
C132 N135 1.368 . S
C132 H137 0.931 . S
C133 C132 1.351 . S
C133 N134 1.373 . S
C133 H161 0.930 . S
N134 C133 1.373 . S
N134 C136 1.340 . S
N135 C132 1.368 . S
N135 C136 1.321 . S
N135 Co138 2.135 . S
C136 N134 1.340 . S
C136 N135 1.321 . S
C136 H160 0.930 . S
H137 C132 0.931 . S
Co138 N135 2.135 . S
Co138 N141 2.121 1_655 S
Co138 O146 2.055 . S
Co138 O149 2.039 1_655 S
Co138 N152 2.140 . S
C139 O140 1.227 . S
C139 O149 1.265 . S
O140 C139 1.227 . S
N141 Co138 2.121 1_455 S
N141 C143 1.375 . S
N141 C144 1.313 . S
C142 C143 1.338 . S
C142 N145 1.377 . S
C142 H162 0.930 . S
C143 N141 1.375 . S
C143 C142 1.338 . S
C143 H147 0.931 . S
C144 N141 1.313 . S
C144 N145 1.344 . S
C144 H148 0.918 1_455 S
N145 C142 1.377 . S
N145 C144 1.344 . S
O146 Co138 2.055 . S
O146 C150 1.253 . S
H147 C143 0.931 . S
H148 C144 0.918 1_655 S
O149 Co138 2.039 1_455 S
O149 C139 1.265 . S
C150 O146 1.253 . S
C150 O151 1.227 . S
O151 C150 1.227 . S
N152 Co138 2.140 . S
N152 C155 1.346 . S
N152 C156 1.345 . S
C153 C154 1.387 . S
C153 C157 1.391 . S
C154 C153 1.387 . S
C154 C155 1.369 . S
C154 H163 0.929 . S
C155 N152 1.346 . S
C155 C154 1.369 . S
C155 H158 0.928 . S
C156 N152 1.345 . S
C156 C157 1.371 . S
C156 H159 0.931 . S
C157 C153 1.391 . S
C157 C156 1.371 . S
C157 H164 0.930 . S
H158 C155 0.928 . S
H159 C156 0.931 . S
H160 C136 0.930 . S
H161 C133 0.930 . S
H162 C142 0.930 . S
H163 C154 0.929 . S
H164 C157 0.930 . S
C165 C166 1.351 . S
C165 N168 1.368 . S
C165 H170 0.931 . S
C166 C165 1.351 . S
C166 N167 1.373 . S
C166 H194 0.930 . S
N167 C166 1.373 . S
N167 C169 1.340 . S
N168 C165 1.368 . S
N168 C169 1.321 . S
N168 Co171 2.135 . S
C169 N167 1.340 . S
C169 N168 1.321 . S
C169 H193 0.930 . S
H170 C165 0.931 . S
Co171 N168 2.135 . S
Co171 N174 2.121 . S
Co171 O179 2.055 . S
Co171 O182 2.039 . S
Co171 N185 2.140 . S
C172 O173 1.227 . S
C172 O182 1.265 . S
O173 C172 1.227 . S
N174 Co171 2.121 . S
N174 C176 1.375 . S
N174 C177 1.313 . S
C175 C176 1.338 . S
C175 N178 1.377 . S
C175 H195 0.930 . S
C176 N174 1.375 . S
C176 C175 1.338 . S
C176 H180 0.931 . S
C177 N174 1.313 . S
C177 N178 1.344 . S
C177 H181 0.930 . S
N178 C175 1.377 . S
N178 C177 1.344 . S
O179 Co171 2.055 . S
O179 C183 1.253 . S
H180 C176 0.931 . S
H181 C177 0.930 . S
O182 Co171 2.039 . S
O182 C172 1.265 . S
C183 O179 1.253 . S
C183 O184 1.227 . S
O184 C183 1.227 . S
N185 Co171 2.140 . S
N185 C188 1.346 . S
N185 C189 1.345 . S
C186 C187 1.387 . S
C186 C190 1.391 . S
C187 C186 1.387 . S
C187 C188 1.369 . S
C187 H196 0.929 . S
C188 N185 1.346 . S
C188 C187 1.369 . S
C188 H191 0.928 . S
C189 N185 1.345 . S
C189 C190 1.371 . S
C189 H192 0.931 . S
C190 C186 1.391 . S
C190 C189 1.371 . S
C190 H197 0.930 . S
H191 C188 0.928 . S
H192 C189 0.931 . S
H193 C169 0.930 . S
H194 C166 0.930 . S
H195 C175 0.930 . S
H196 C187 0.929 . S
H197 C190 0.930 . S
C198 C199 1.351 . S
C198 N201 1.368 . S
C198 H203 0.931 . S
C199 C198 1.351 . S
C199 N200 1.373 . S
C199 H227 0.930 . S
N200 C199 1.373 . S
N200 C202 1.340 . S
N201 C198 1.368 . S
N201 C202 1.321 . S
N201 Co204 2.135 . S
C202 N200 1.340 . S
C202 N201 1.321 . S
C202 H226 0.930 . S
H203 C198 0.931 . S
Co204 N201 2.135 . S
Co204 N207 2.121 . S
Co204 O212 2.055 . S
Co204 O215 2.039 . S
Co204 N218 2.140 . S
C205 O206 1.227 . S
C205 O215 1.265 . S
O206 C205 1.227 . S
N207 Co204 2.121 . S
N207 C209 1.375 . S
N207 C210 1.313 . S
C208 C209 1.338 . S
C208 N211 1.377 . S
C208 H228 0.930 . S
C209 N207 1.375 . S
C209 C208 1.338 . S
C209 H213 0.931 . S
C210 N207 1.313 . S
C210 N211 1.344 . S
C210 H214 0.930 . S
N211 C208 1.377 . S
N211 C210 1.344 . S
O212 Co204 2.055 . S
O212 C216 1.253 . S
H213 C209 0.931 . S
H214 C210 0.930 . S
O215 Co204 2.039 . S
O215 C205 1.265 . S
C216 O212 1.253 . S
C216 O217 1.227 . S
O217 C216 1.227 . S
N218 Co204 2.140 . S
N218 C221 1.346 . S
N218 C222 1.345 . S
C219 C220 1.387 . S
C219 C223 1.391 . S
C220 C219 1.387 . S
C220 C221 1.369 . S
C220 H229 0.929 . S
C221 N218 1.346 . S
C221 C220 1.369 . S
C221 H224 0.928 . S
C222 N218 1.345 . S
C222 C223 1.371 . S
C222 H225 0.931 . S
C223 C219 1.391 . S
C223 C222 1.371 . S
C223 H230 0.930 . S
H224 C221 0.928 . S
H225 C222 0.931 . S
H226 C202 0.930 . S
H227 C199 0.930 . S
H228 C208 0.930 . S
H229 C220 0.929 . S
H230 C223 0.930 . S
C231 C232 1.351 . S
C231 N234 1.368 . S
C231 H236 0.931 . S
C232 C231 1.351 . S
C232 N233 1.373 . S
C232 H260 0.930 . S
N233 C232 1.373 . S
N233 C235 1.340 . S
N234 C231 1.368 . S
N234 C235 1.321 . S
N234 Co237 2.135 . S
C235 N233 1.340 . S
C235 N234 1.321 . S
C235 H259 0.930 . S
H236 C231 0.931 . S
Co237 N234 2.135 . S
Co237 N240 2.121 . S
Co237 O245 2.055 . S
Co237 O248 2.039 . S
Co237 N251 2.140 . S
C238 O239 1.227 . S
C238 O248 1.265 . S
O239 C238 1.227 . S
N240 Co237 2.121 . S
N240 C242 1.375 . S
N240 C243 1.313 . S
C241 C242 1.338 . S
C241 N244 1.377 . S
C241 H261 0.930 . S
C242 N240 1.375 . S
C242 C241 1.338 . S
C242 H246 0.931 . S
C243 N240 1.313 . S
C243 N244 1.344 . S
C243 H247 0.930 . S
N244 C241 1.377 . S
N244 C243 1.344 . S
O245 Co237 2.055 . S
O245 C249 1.253 . S
H246 C242 0.931 . S
H247 C243 0.930 . S
O248 Co237 2.039 . S
O248 C238 1.265 . S
C249 O245 1.253 . S
C249 O250 1.227 . S
O250 C249 1.227 . S
N251 Co237 2.140 . S
N251 C254 1.346 . S
N251 C255 1.345 . S
C252 C253 1.387 . S
C252 C256 1.391 . S
C253 C252 1.387 . S
C253 C254 1.369 . S
C253 H262 0.929 . S
C254 N251 1.346 . S
C254 C253 1.369 . S
C254 H257 0.928 . S
C255 N251 1.345 . S
C255 C256 1.371 . S
C255 H258 0.931 . S
C256 C252 1.391 . S
C256 C255 1.371 . S
C256 H263 0.930 . S
H257 C254 0.928 . S
H258 C255 0.931 . S
H259 C235 0.930 . S
H260 C232 0.930 . S
H261 C241 0.930 . S
H262 C253 0.929 . S
H263 C256 0.930 . S
C264 C265 1.351 . S
C264 N267 1.368 . S
C264 H269 0.931 . S
C265 C264 1.351 . S
C265 N266 1.373 . S
C265 H293 0.930 . S
N266 C265 1.373 . S
N266 C268 1.340 . S
N267 C264 1.368 . S
N267 C268 1.321 . S
N267 Co270 2.135 . S
C268 N266 1.340 . S
C268 N267 1.321 . S
C268 H292 0.930 . S
H269 C264 0.931 . S
Co270 N267 2.135 . S
Co270 N273 2.121 . S
Co270 O278 2.055 . S
Co270 O281 2.039 . S
Co270 N284 2.140 . S
C271 O272 1.227 . S
C271 O281 1.265 . S
O272 C271 1.227 . S
N273 Co270 2.121 . S
N273 C275 1.375 . S
N273 C276 1.313 . S
C274 C275 1.338 . S
C274 N277 1.377 . S
C274 H294 0.930 . S
C275 N273 1.375 . S
C275 C274 1.338 . S
C275 H279 0.931 . S
C276 N273 1.313 . S
C276 N277 1.344 . S
C276 H280 0.930 . S
N277 C274 1.377 . S
N277 C276 1.344 . S
O278 Co270 2.055 . S
O278 C282 1.253 . S
H279 C275 0.931 . S
H280 C276 0.930 . S
O281 Co270 2.039 . S
O281 C271 1.265 . S
C282 O278 1.253 . S
C282 O283 1.227 . S
O283 C282 1.227 . S
N284 Co270 2.140 . S
N284 C287 1.346 . S
N284 C288 1.345 . S
C285 C286 1.387 . S
C285 C289 1.391 . S
C286 C285 1.387 . S
C286 C287 1.369 . S
C286 H295 0.929 . S
C287 N284 1.346 . S
C287 C286 1.369 . S
C287 H290 0.928 . S
C288 N284 1.345 . S
C288 C289 1.371 . S
C288 H291 0.931 . S
C289 C285 1.391 . S
C289 C288 1.371 . S
C289 H296 0.930 . S
H290 C287 0.928 . S
H291 C288 0.931 . S
H292 C268 0.930 . S
H293 C265 0.930 . S
H294 C274 0.930 . S
H295 C286 0.929 . S
H296 C289 0.930 . S
C297 C298 1.351 . S
C297 N300 1.368 . S
C297 H302 0.931 . S
C298 C297 1.351 . S
C298 N299 1.373 . S
C298 H326 0.930 . S
N299 C298 1.373 . S
N299 C301 1.340 . S
N300 C297 1.368 . S
N300 C301 1.321 . S
N300 Co303 2.135 . S
C301 N299 1.340 . S
C301 N300 1.321 . S
C301 H325 0.930 . S
H302 C297 0.931 . S
Co303 N300 2.135 . S
Co303 N306 2.121 . S
Co303 O311 2.055 . S
Co303 O314 2.039 . S
Co303 N317 2.140 . S
C304 O305 1.227 . S
C304 O314 1.265 . S
O305 C304 1.227 . S
N306 Co303 2.121 . S
N306 C308 1.375 . S
N306 C309 1.313 . S
C307 C308 1.338 . S
C307 N310 1.377 . S
C307 H327 0.930 . S
C308 N306 1.375 . S
C308 C307 1.338 . S
C308 H312 0.931 . S
C309 N306 1.313 . S
C309 N310 1.344 . S
C309 H313 0.930 . S
N310 C307 1.377 . S
N310 C309 1.344 . S
O311 Co303 2.055 . S
O311 C315 1.253 . S
H312 C308 0.931 . S
H313 C309 0.930 . S
O314 Co303 2.039 . S
O314 C304 1.265 . S
C315 O311 1.253 . S
C315 O316 1.227 . S
O316 C315 1.227 . S
N317 Co303 2.140 . S
N317 C320 1.346 . S
N317 C321 1.345 . S
C318 C319 1.387 . S
C318 C322 1.391 . S
C319 C318 1.387 . S
C319 C320 1.369 . S
C319 H328 0.929 . S
C320 N317 1.346 . S
C320 C319 1.369 . S
C320 H323 0.928 . S
C321 N317 1.345 . S
C321 C322 1.371 . S
C321 H324 0.931 . S
C322 C318 1.391 . S
C322 C321 1.371 . S
C322 H329 0.930 . S
H323 C320 0.928 . S
H324 C321 0.931 . S
H325 C301 0.930 . S
H326 C298 0.930 . S
H327 C307 0.930 . S
H328 C319 0.929 . S
H329 C322 0.930 . S
C330 C331 1.351 . S
C330 N333 1.368 . S
C330 H335 0.931 . S
C331 C330 1.351 . S
C331 N332 1.373 . S
C331 H359 0.930 . S
N332 C331 1.373 . S
N332 C334 1.340 . S
N333 C330 1.368 . S
N333 C334 1.321 . S
N333 Co336 2.135 . S
C334 N332 1.340 . S
C334 N333 1.321 . S
C334 H358 0.930 . S
H335 C330 0.931 . S
Co336 N333 2.135 . S
Co336 N339 2.121 . S
Co336 O344 2.055 . S
Co336 O347 2.039 . S
Co336 N350 2.140 . S
C337 O338 1.227 . S
C337 O347 1.265 . S
O338 C337 1.227 . S
N339 Co336 2.121 . S
N339 C341 1.375 . S
N339 C342 1.313 . S
C340 C341 1.338 . S
C340 N343 1.377 . S
C340 H360 0.930 . S
C341 N339 1.375 . S
C341 C340 1.338 . S
C341 H345 0.931 . S
C342 N339 1.313 . S
C342 N343 1.344 . S
C342 H346 0.930 . S
N343 C340 1.377 . S
N343 C342 1.344 . S
O344 Co336 2.055 . S
O344 C348 1.253 . S
H345 C341 0.931 . S
H346 C342 0.930 . S
O347 Co336 2.039 . S
O347 C337 1.265 . S
C348 O344 1.253 . S
C348 O349 1.227 . S
O349 C348 1.227 . S
N350 Co336 2.140 . S
N350 C353 1.346 . S
N350 C354 1.345 . S
C351 C352 1.387 . S
C351 C355 1.391 . S
C352 C351 1.387 . S
C352 C353 1.369 . S
C352 H361 0.929 . S
C353 N350 1.346 . S
C353 C352 1.369 . S
C353 H356 0.928 . S
C354 N350 1.345 . S
C354 C355 1.371 . S
C354 H357 0.931 . S
C355 C351 1.391 . S
C355 C354 1.371 . S
C355 H362 0.930 . S
H356 C353 0.928 . S
H357 C354 0.931 . S
H358 C334 0.930 . S
H359 C331 0.930 . S
H360 C340 0.930 . S
H361 C352 0.929 . S
H362 C355 0.930 . S
C363 C364 1.351 . S
C363 N366 1.368 . S
C363 H368 0.931 . S
C364 C363 1.351 . S
C364 N365 1.373 . S
C364 H392 0.930 . S
N365 C364 1.373 . S
N365 C367 1.340 . S
N366 C363 1.368 . S
N366 C367 1.321 . S
N366 Co369 2.135 . S
C367 N365 1.340 . S
C367 N366 1.321 . S
C367 H391 0.930 . S
H368 C363 0.931 . S
Co369 N366 2.135 . S
Co369 N372 2.121 . S
Co369 O377 2.055 . S
Co369 O380 2.039 . S
Co369 N383 2.140 . S
C370 O371 1.227 . S
C370 O380 1.265 . S
O371 C370 1.227 . S
N372 Co369 2.121 . S
N372 C374 1.375 . S
N372 C375 1.313 . S
C373 C374 1.338 . S
C373 N376 1.377 . S
C373 H393 0.930 . S
C374 N372 1.375 . S
C374 C373 1.338 . S
C374 H378 0.931 . S
C375 N372 1.313 . S
C375 N376 1.344 . S
C375 H379 0.930 . S
N376 C373 1.377 . S
N376 C375 1.344 . S
O377 Co369 2.055 . S
O377 C381 1.253 . S
H378 C374 0.931 . S
H379 C375 0.930 . S
O380 Co369 2.039 . S
O380 C370 1.265 . S
C381 O377 1.253 . S
C381 O382 1.227 . S
O382 C381 1.227 . S
N383 Co369 2.140 . S
N383 C386 1.346 . S
N383 C387 1.345 . S
C384 C385 1.387 . S
C384 C388 1.391 . S
C385 C384 1.387 . S
C385 C386 1.369 . S
C385 H394 0.929 . S
C386 N383 1.346 . S
C386 C385 1.369 . S
C386 H389 0.928 . S
C387 N383 1.345 . S
C387 C388 1.371 . S
C387 H390 0.931 . S
C388 C384 1.391 . S
C388 C387 1.371 . S
C388 H395 0.930 . S
H389 C386 0.928 . S
H390 C387 0.931 . S
H391 C367 0.930 . S
H392 C364 0.930 . S
H393 C373 0.930 . S
H394 C385 0.929 . S
H395 C388 0.930 . S
C396 C397 1.351 . S
C396 N399 1.368 . S
C396 H401 0.931 . S
C397 C396 1.351 . S
C397 N398 1.373 . S
C397 H425 0.930 . S
N398 C397 1.373 . S
N398 C400 1.340 . S
N399 C396 1.368 . S
N399 C400 1.321 . S
N399 Co402 2.135 . S
C400 N398 1.340 . S
C400 N399 1.321 . S
C400 H424 0.930 . S
H401 C396 0.931 . S
Co402 N399 2.135 . S
Co402 N405 2.121 . S
Co402 O410 2.055 . S
Co402 O413 2.039 . S
Co402 N416 2.140 . S
C403 O404 1.227 . S
C403 O413 1.265 . S
O404 C403 1.227 . S
N405 Co402 2.121 . S
N405 C407 1.375 . S
N405 C408 1.313 . S
C406 C407 1.338 . S
C406 N409 1.377 . S
C406 H426 0.930 . S
C407 N405 1.375 . S
C407 C406 1.338 . S
C407 H411 0.931 . S
C408 N405 1.313 . S
C408 N409 1.344 . S
C408 H412 0.930 . S
N409 C406 1.377 . S
N409 C408 1.344 . S
O410 Co402 2.055 . S
O410 C414 1.253 . S
H411 C407 0.931 . S
H412 C408 0.930 . S
O413 Co402 2.039 . S
O413 C403 1.265 . S
C414 O410 1.253 . S
C414 O415 1.227 . S
O415 C414 1.227 . S
N416 Co402 2.140 . S
N416 C419 1.346 . S
N416 C420 1.345 . S
C417 C418 1.387 . S
C417 C421 1.391 . S
C418 C417 1.387 . S
C418 C419 1.369 . S
C418 H427 0.929 . S
C419 N416 1.346 . S
C419 C418 1.369 . S
C419 H422 0.928 . S
C420 N416 1.345 . S
C420 C421 1.371 . S
C420 H423 0.931 . S
C421 C417 1.391 . S
C421 C420 1.371 . S
C421 H428 0.930 . S
H422 C419 0.928 . S
H423 C420 0.931 . S
H424 C400 0.930 . S
H425 C397 0.930 . S
H426 C406 0.930 . S
H427 C418 0.929 . S
H428 C421 0.930 . S
C429 C430 1.351 . S
C429 N432 1.368 . S
C429 H434 0.931 . S
C430 C429 1.351 . S
C430 N431 1.373 . S
C430 H458 0.930 . S
N431 C430 1.373 . S
N431 C433 1.340 . S
N432 C429 1.368 . S
N432 C433 1.321 . S
N432 Co435 2.135 . S
C433 N431 1.340 . S
C433 N432 1.321 . S
C433 H457 0.930 . S
H434 C429 0.931 . S
Co435 N432 2.135 . S
Co435 N438 2.121 . S
Co435 O443 2.055 . S
Co435 O446 2.039 . S
Co435 N449 2.140 . S
C436 O437 1.227 . S
C436 O446 1.265 . S
O437 C436 1.227 . S
N438 Co435 2.121 . S
N438 C440 1.375 . S
N438 C441 1.313 . S
C439 C440 1.338 . S
C439 N442 1.377 . S
C439 H459 0.930 . S
C440 N438 1.375 . S
C440 C439 1.338 . S
C440 H444 0.931 . S
C441 N438 1.313 . S
C441 N442 1.344 . S
C441 H445 0.930 . S
N442 C439 1.377 . S
N442 C441 1.344 . S
O443 Co435 2.055 . S
O443 C447 1.253 . S
H444 C440 0.931 . S
H445 C441 0.930 . S
O446 Co435 2.039 . S
O446 C436 1.265 . S
C447 O443 1.253 . S
C447 O448 1.227 . S
O448 C447 1.227 . S
N449 Co435 2.140 . S
N449 C452 1.346 . S
N449 C453 1.345 . S
C450 C451 1.387 . S
C450 C454 1.391 . S
C451 C450 1.387 . S
C451 C452 1.369 . S
C451 H460 0.929 . S
C452 N449 1.346 . S
C452 C451 1.369 . S
C452 H455 0.928 . S
C453 N449 1.345 . S
C453 C454 1.371 . S
C453 H456 0.931 . S
C454 C450 1.391 . S
C454 C453 1.371 . S
C454 H461 0.930 . S
H455 C452 0.928 . S
H456 C453 0.931 . S
H457 C433 0.930 . S
H458 C430 0.930 . S
H459 C439 0.930 . S
H460 C451 0.929 . S
H461 C454 0.930 . S
C462 C463 1.351 . S
C462 N465 1.368 . S
C462 H467 0.931 . S
C463 C462 1.351 . S
C463 N464 1.373 . S
C463 H491 0.930 . S
N464 C463 1.373 . S
N464 C466 1.340 . S
N465 C462 1.368 . S
N465 C466 1.321 . S
N465 Co468 2.135 . S
C466 N464 1.340 . S
C466 N465 1.321 . S
C466 H490 0.930 . S
H467 C462 0.931 . S
Co468 N465 2.135 . S
Co468 N471 2.121 . S
Co468 O476 2.055 . S
Co468 O479 2.039 . S
Co468 N482 2.140 . S
C469 O470 1.227 . S
C469 O479 1.265 . S
O470 C469 1.227 . S
N471 Co468 2.121 . S
N471 C473 1.375 . S
N471 C474 1.313 . S
C472 C473 1.338 . S
C472 N475 1.377 . S
C472 H492 0.930 . S
C473 N471 1.375 . S
C473 C472 1.338 . S
C473 H477 0.931 . S
C474 N471 1.313 . S
C474 N475 1.344 . S
C474 H478 0.930 . S
N475 C472 1.377 . S
N475 C474 1.344 . S
O476 Co468 2.055 . S
O476 C480 1.253 . S
H477 C473 0.931 . S
H478 C474 0.930 . S
O479 Co468 2.039 . S
O479 C469 1.265 . S
C480 O476 1.253 . S
C480 O481 1.227 . S
O481 C480 1.227 . S
N482 Co468 2.140 . S
N482 C485 1.346 . S
N482 C486 1.345 . S
C483 C484 1.387 . S
C483 C487 1.391 . S
C484 C483 1.387 . S
C484 C485 1.369 . S
C484 H493 0.929 . S
C485 N482 1.346 . S
C485 C484 1.369 . S
C485 H488 0.928 . S
C486 N482 1.345 . S
C486 C487 1.371 . S
C486 H489 0.931 . S
C487 C483 1.391 . S
C487 C486 1.371 . S
C487 H494 0.930 . S
H488 C485 0.928 . S
H489 C486 0.931 . S
H490 C466 0.930 . S
H491 C463 0.930 . S
H492 C472 0.930 . S
H493 C484 0.929 . S
H494 C487 0.930 . S
C495 C496 1.351 . S
C495 N498 1.368 . S
C495 H500 0.931 . S
C496 C495 1.351 . S
C496 N497 1.373 . S
C496 H524 0.930 . S
N497 C496 1.373 . S
N497 C499 1.340 . S
N498 C495 1.368 . S
N498 C499 1.321 . S
N498 Co501 2.135 . S
C499 N497 1.340 . S
C499 N498 1.321 . S
C499 H523 0.930 . S
H500 C495 0.931 . S
Co501 N498 2.135 . S
Co501 N504 2.121 . S
Co501 O509 2.055 . S
Co501 O512 2.039 . S
Co501 N515 2.140 . S
C502 O503 1.227 . S
C502 O512 1.265 . S
O503 C502 1.227 . S
N504 Co501 2.121 . S
N504 C506 1.375 . S
N504 C507 1.313 . S
C505 C506 1.338 . S
C505 N508 1.377 . S
C505 H525 0.930 . S
C506 N504 1.375 . S
C506 C505 1.338 . S
C506 H510 0.931 . S
C507 N504 1.313 . S
C507 N508 1.344 . S
C507 H511 0.930 . S
N508 C505 1.377 . S
N508 C507 1.344 . S
O509 Co501 2.055 . S
O509 C513 1.253 . S
H510 C506 0.931 . S
H511 C507 0.930 . S
O512 Co501 2.039 . S
O512 C502 1.265 . S
C513 O509 1.253 . S
C513 O514 1.227 . S
O514 C513 1.227 . S
N515 Co501 2.140 . S
N515 C518 1.346 . S
N515 C519 1.345 . S
C516 C517 1.387 . S
C516 C520 1.391 . S
C517 C516 1.387 . S
C517 C518 1.369 . S
C517 H526 0.929 . S
C518 N515 1.346 . S
C518 C517 1.369 . S
C518 H521 0.928 . S
C519 N515 1.345 . S
C519 C520 1.371 . S
C519 H522 0.931 . S
C520 C516 1.391 . S
C520 C519 1.371 . S
C520 H527 0.930 . S
H521 C518 0.928 . S
H522 C519 0.931 . S
H523 C499 0.930 . S
H524 C496 0.930 . S
H525 C505 0.930 . S
H526 C517 0.929 . S
H527 C520 0.930 . S
C528 C529 1.351 . S
C528 N531 1.368 . S
C528 H533 0.931 . S
C529 C528 1.351 . S
C529 N530 1.373 . S
C529 H557 0.930 . S
N530 C529 1.373 . S
N530 C532 1.340 . S
N531 C528 1.368 . S
N531 C532 1.321 . S
N531 Co534 2.135 . S
C532 N530 1.340 . S
C532 N531 1.321 . S
C532 H556 0.930 . S
H533 C528 0.931 . S
Co534 N531 2.135 . S
Co534 N537 2.121 . S
Co534 O542 2.055 . S
Co534 O545 2.039 . S
Co534 N548 2.140 . S
C535 O536 1.227 . S
C535 O545 1.265 . S
O536 C535 1.227 . S
N537 Co534 2.121 . S
N537 C539 1.375 . S
N537 C540 1.313 . S
C538 C539 1.338 . S
C538 N541 1.377 . S
C538 H558 0.930 . S
C539 N537 1.375 . S
C539 C538 1.338 . S
C539 H543 0.931 . S
C540 N537 1.313 . S
C540 N541 1.344 . S
C540 H544 0.930 . S
N541 C538 1.377 . S
N541 C540 1.344 . S
O542 Co534 2.055 . S
O542 C546 1.253 . S
H543 C539 0.931 . S
H544 C540 0.930 . S
O545 Co534 2.039 . S
O545 C535 1.265 . S
C546 O542 1.253 . S
C546 O547 1.227 . S
O547 C546 1.227 . S
N548 Co534 2.140 . S
N548 C551 1.346 . S
N548 C552 1.345 . S
C549 C550 1.387 . S
C549 C553 1.391 . S
C550 C549 1.387 . S
C550 C551 1.369 . S
C550 H559 0.929 . S
C551 N548 1.346 . S
C551 C550 1.369 . S
C551 H554 0.928 . S
C552 N548 1.345 . S
C552 C553 1.371 . S
C552 H555 0.931 . S
C553 C549 1.391 . S
C553 C552 1.371 . S
C553 H560 0.930 . S
H554 C551 0.928 . S
H555 C552 0.931 . S
H556 C532 0.930 . S
H557 C529 0.930 . S
H558 C538 0.930 . S
H559 C550 0.929 . S
H560 C553 0.930 . S
C561 C562 1.351 . S
C561 N564 1.368 . S
C561 H566 0.931 . S
C562 C561 1.351 . S
C562 N563 1.373 . S
C562 H590 0.930 . S
N563 C562 1.373 . S
N563 C565 1.340 . S
N564 C561 1.368 . S
N564 C565 1.321 . S
N564 Co567 2.135 . S
C565 N563 1.340 . S
C565 N564 1.321 . S
C565 H589 0.930 . S
H566 C561 0.931 . S
Co567 N564 2.135 . S
Co567 N570 2.121 . S
Co567 O575 2.055 . S
Co567 O578 2.039 . S
Co567 N581 2.140 . S
C568 O569 1.227 . S
C568 O578 1.265 . S
O569 C568 1.227 . S
N570 Co567 2.121 . S
N570 C572 1.375 . S
N570 C573 1.313 . S
C571 C572 1.338 . S
C571 N574 1.377 . S
C571 H591 0.930 . S
C572 N570 1.375 . S
C572 C571 1.338 . S
C572 H576 0.931 . S
C573 N570 1.313 . S
C573 N574 1.344 . S
C573 H577 0.930 . S
N574 C571 1.377 . S
N574 C573 1.344 . S
O575 Co567 2.055 . S
O575 C579 1.253 . S
H576 C572 0.931 . S
H577 C573 0.930 . S
O578 Co567 2.039 . S
O578 C568 1.265 . S
C579 O575 1.253 . S
C579 O580 1.227 . S
O580 C579 1.227 . S
N581 Co567 2.140 . S
N581 C584 1.346 . S
N581 C585 1.345 . S
C582 C583 1.387 . S
C582 C586 1.391 . S
C583 C582 1.387 . S
C583 C584 1.369 . S
C583 H592 0.929 . S
C584 N581 1.346 . S
C584 C583 1.369 . S
C584 H587 0.928 . S
C585 N581 1.345 . S
C585 C586 1.371 . S
C585 H588 0.931 . S
C586 C582 1.391 . S
C586 C585 1.371 . S
C586 H593 0.930 . S
H587 C584 0.928 . S
H588 C585 0.931 . S
H589 C565 0.930 . S
H590 C562 0.930 . S
H591 C571 0.930 . S
H592 C583 0.929 . S
H593 C586 0.930 . S
C594 C595 1.369 . S
C594 C596 1.419 . S
C594 H598 0.930 . S
C595 C594 1.369 . S
C595 C604 1.429 . S
C596 C594 1.419 . S
C596 C597 1.363 . S
C596 H599 0.929 . S
C597 C596 1.363 . S
C597 C603 1.428 . S
H598 C594 0.930 . S
H599 C596 0.929 . S
S600 N601 1.613 . S
S600 N602 1.610 . S
N601 S600 1.613 . S
N601 C604 1.350 . S
N602 S600 1.610 . S
N602 C603 1.351 . S
C603 C597 1.428 . S
C603 N602 1.351 . S
C603 C604 1.434 . S
C604 C595 1.429 . S
C604 N601 1.350 . S
C604 C603 1.434 . S
C605 C606 1.369 . S
C605 C607 1.419 . S
C605 H609 0.930 . S
C606 C605 1.369 . S
C606 C615 1.429 . S
C607 C605 1.419 . S
C607 C608 1.363 . S
C607 H610 0.929 . S
C608 C607 1.363 . S
C608 C614 1.428 . S
H609 C605 0.930 . S
H610 C607 0.929 . S
S611 N612 1.613 . S
S611 N613 1.610 . S
N612 S611 1.613 . S
N612 C615 1.350 . S
N613 S611 1.610 . S
N613 C614 1.351 . S
C614 C608 1.428 . S
C614 N613 1.351 . S
C614 C615 1.434 . S
C615 C606 1.429 . S
C615 N612 1.350 . S
C615 C614 1.434 . S
C616 C617 1.369 . S
C616 C618 1.419 . S
C616 H620 0.930 . S
C617 C616 1.369 . S
C617 C626 1.429 . S
C618 C616 1.419 . S
C618 C619 1.363 . S
C618 H621 0.929 . S
C619 C618 1.363 . S
C619 C625 1.428 . S
H620 C616 0.930 . S
H621 C618 0.929 . S
S622 N623 1.613 1_565 S
S622 N624 1.610 1_565 S
N623 S622 1.613 1_545 S
N623 C626 1.350 . S
N624 S622 1.610 1_545 S
N624 C625 1.351 . S
C625 C619 1.428 . S
C625 N624 1.351 . S
C625 C626 1.434 . S
C626 C617 1.429 . S
C626 N623 1.350 . S
C626 C625 1.434 . S
C627 C628 1.369 . S
C627 C629 1.419 . S
C627 H631 0.930 . S
C628 C627 1.369 . S
C628 C637 1.429 . S
C629 C627 1.419 . S
C629 C630 1.363 . S
C629 H632 0.929 . S
C630 C629 1.363 . S
C630 C636 1.428 . S
H631 C627 0.930 . S
H632 C629 0.929 . S
S633 N634 1.613 . S
S633 N635 1.610 . S
N634 S633 1.613 . S
N634 C637 1.350 . S
N635 S633 1.610 . S
N635 C636 1.351 . S
C636 C630 1.428 . S
C636 N635 1.351 . S
C636 C637 1.434 . S
C637 C628 1.429 . S
C637 N634 1.350 . S
C637 C636 1.434 . S
C638 C639 1.369 . S
C638 C640 1.419 . S
C638 H642 0.930 . S
C639 C638 1.369 . S
C639 C648 1.429 . S
C640 C638 1.419 . S
C640 C641 1.363 . S
C640 H643 0.929 . S
C641 C640 1.363 . S
C641 C647 1.428 . S
H642 C638 0.930 . S
H643 C640 0.929 . S
S644 N645 1.613 . S
S644 N646 1.610 . S
N645 S644 1.613 . S
N645 C648 1.350 . S
N646 S644 1.610 . S
N646 C647 1.351 . S
C647 C641 1.428 . S
C647 N646 1.351 . S
C647 C648 1.434 . S
C648 C639 1.429 . S
C648 N645 1.350 . S
C648 C647 1.434 . S
C649 C650 1.369 . S
C649 C651 1.419 . S
C649 H653 0.930 . S
C650 C649 1.369 . S
C650 C659 1.429 . S
C651 C649 1.419 . S
C651 C652 1.363 . S
C651 H654 0.929 . S
C652 C651 1.363 . S
C652 C658 1.428 . S
H653 C649 0.930 . S
H654 C651 0.929 . S
S655 N656 1.613 . S
S655 N657 1.610 . S
N656 S655 1.613 . S
N656 C659 1.350 . S
N657 S655 1.610 . S
N657 C658 1.351 . S
C658 C652 1.428 . S
C658 N657 1.351 . S
C658 C659 1.434 . S
C659 C650 1.429 . S
C659 N656 1.350 . S
C659 C658 1.434 . S
C660 C661 1.369 . S
C660 C662 1.419 . S
C660 H664 0.930 . S
C661 C660 1.369 . S
C661 C670 1.429 . S
C662 C660 1.419 . S
C662 C663 1.363 . S
C662 H665 0.929 . S
C663 C662 1.363 . S
C663 C669 1.428 . S
H664 C660 0.930 . S
H665 C662 0.929 . S
S666 N667 1.613 . S
S666 N668 1.610 . S
N667 S666 1.613 . S
N667 C670 1.350 . S
N668 S666 1.610 . S
N668 C669 1.351 . S
C669 C663 1.428 . S
C669 N668 1.351 . S
C669 C670 1.434 . S
C670 C661 1.429 . S
C670 N667 1.350 . S
C670 C669 1.434 . S
C671 C672 1.369 . S
C671 C673 1.419 . S
C671 H675 0.930 . S
C672 C671 1.369 . S
C672 C681 1.429 1_565 S
C673 C671 1.419 . S
C673 C674 1.363 1_565 S
C673 H676 0.929 . S
C674 C673 1.363 1_545 S
C674 C680 1.428 . S
H675 C671 0.930 . S
H676 C673 0.929 . S
S677 N678 1.613 . S
S677 N679 1.610 . S
N678 S677 1.613 . S
N678 C681 1.350 . S
N679 S677 1.610 . S
N679 C680 1.351 . S
C680 C674 1.428 . S
C680 N679 1.351 . S
C680 C681 1.434 . S
C681 C672 1.429 1_545 S
C681 N678 1.350 . S
C681 C680 1.434 . S
C682 C683 1.369 . S
C682 C684 1.419 1_455 S
C682 H686 0.930 . S
C683 C682 1.369 . S
C683 C692 1.429 . S
C684 C682 1.419 1_655 S
C684 C685 1.363 . S
C684 H687 0.929 . S
C685 C684 1.363 . S
C685 C691 1.428 . S
H686 C682 0.930 . S
H687 C684 0.929 . S
S688 N689 1.613 . S
S688 N690 1.610 1_455 S
N689 S688 1.613 . S
N689 C692 1.350 . S
N690 S688 1.610 1_655 S
N690 C691 1.351 . S
C691 C685 1.428 . S
C691 N690 1.351 . S
C691 C692 1.434 1_655 S
C692 C683 1.429 . S
C692 N689 1.350 . S
C692 C691 1.434 1_455 S
C693 C694 1.369 . S
C693 C695 1.419 . S
C693 H697 0.930 . S
C694 C693 1.369 . S
C694 C703 1.429 . S
C695 C693 1.419 . S
C695 C696 1.363 . S
C695 H698 0.929 . S
C696 C695 1.363 . S
C696 C702 1.428 . S
H697 C693 0.930 . S
H698 C695 0.929 . S
S699 N700 1.613 . S
S699 N701 1.610 . S
N700 S699 1.613 . S
N700 C703 1.350 . S
N701 S699 1.610 . S
N701 C702 1.351 . S
C702 C696 1.428 . S
C702 N701 1.351 . S
C702 C703 1.434 . S
C703 C694 1.429 . S
C703 N700 1.350 . S
C703 C702 1.434 . S
C704 C705 1.369 . S
C704 C706 1.419 . S
C704 H708 0.930 . S
C705 C704 1.369 . S
C705 C714 1.429 . S
C706 C704 1.419 . S
C706 C707 1.363 . S
C706 H709 0.929 . S
C707 C706 1.363 . S
C707 C713 1.428 . S
H708 C704 0.930 . S
H709 C706 0.929 . S
S710 N711 1.613 . S
S710 N712 1.610 . S
N711 S710 1.613 . S
N711 C714 1.350 . S
N712 S710 1.610 . S
N712 C713 1.351 . S
C713 C707 1.428 . S
C713 N712 1.351 . S
C713 C714 1.434 . S
C714 C705 1.429 . S
C714 N711 1.350 . S
C714 C713 1.434 . S
C715 C716 1.369 . S
C715 C717 1.419 . S
C715 H719 0.930 . S
C716 C715 1.369 . S
C716 C725 1.429 . S
C717 C715 1.419 . S
C717 C718 1.363 . S
C717 H720 0.929 . S
C718 C717 1.363 . S
C718 C724 1.428 . S
H719 C715 0.930 . S
H720 C717 0.929 . S
S721 N722 1.613 . S
S721 N723 1.610 . S
N722 S721 1.613 . S
N722 C725 1.350 . S
N723 S721 1.610 . S
N723 C724 1.351 . S
C724 C718 1.428 . S
C724 N723 1.351 . S
C724 C725 1.434 . S
C725 C716 1.429 . S
C725 N722 1.350 . S
C725 C724 1.434 . S
C726 C727 1.369 . S
C726 C728 1.419 . S
C726 H730 0.930 . S
C727 C726 1.369 . S
C727 C736 1.429 . S
C728 C726 1.419 . S
C728 C729 1.363 . S
C728 H731 0.929 . S
C729 C728 1.363 . S
C729 C735 1.428 . S
H730 C726 0.930 . S
H731 C728 0.929 . S
S732 N733 1.613 . S
S732 N734 1.610 . S
N733 S732 1.613 . S
N733 C736 1.350 . S
N734 S732 1.610 . S
N734 C735 1.351 . S
C735 C729 1.428 . S
C735 N734 1.351 . S
C735 C736 1.434 . S
C736 C727 1.429 . S
C736 N733 1.350 . S
C736 C735 1.434 . S
C737 C738 1.369 . S
C737 C739 1.419 . S
C737 H741 0.930 . S
C738 C737 1.369 . S
C738 C747 1.429 . S
C739 C737 1.419 . S
C739 C740 1.363 . S
C739 H742 0.929 . S
C740 C739 1.363 . S
C740 C746 1.428 . S
H741 C737 0.930 . S
H742 C739 0.929 . S
S743 N744 1.613 . S
S743 N745 1.610 . S
N744 S743 1.613 . S
N744 C747 1.350 . S
N745 S743 1.610 . S
N745 C746 1.351 . S
C746 C740 1.428 . S
C746 N745 1.351 . S
C746 C747 1.434 . S
C747 C738 1.429 . S
C747 N744 1.350 . S
C747 C746 1.434 . S
C748 C749 1.369 . S
C748 C750 1.419 . S
C748 H752 0.930 . S
C749 C748 1.369 . S
C749 C758 1.429 . S
C750 C748 1.419 . S
C750 C751 1.363 . S
C750 H753 0.929 . S
C751 C750 1.363 . S
C751 C757 1.428 . S
H752 C748 0.930 . S
H753 C750 0.929 . S
S754 N755 1.613 . S
S754 N756 1.610 . S
N755 S754 1.613 . S
N755 C758 1.350 . S
N756 S754 1.610 . S
N756 C757 1.351 . S
C757 C751 1.428 . S
C757 N756 1.351 . S
C757 C758 1.434 . S
C758 C749 1.429 . S
C758 N755 1.350 . S
C758 C757 1.434 . S
C759 C760 1.369 . S
C759 C761 1.419 1_655 S
C759 H763 0.930 . S
C760 C759 1.369 . S
C760 C769 1.429 1_554 S
C761 C759 1.419 1_455 S
C761 C762 1.363 1_554 S
C761 H764 0.929 . S
C762 C761 1.363 1_556 S
C762 C768 1.428 . S
H763 C759 0.930 . S
H764 C761 0.929 . S
S765 N766 1.613 . S
S765 N767 1.610 . S
N766 S765 1.613 . S
N766 C769 1.350 . S
N767 S765 1.610 . S
N767 C768 1.351 1_655 S
C768 C762 1.428 . S
C768 N767 1.351 1_455 S
C768 C769 1.434 1_455 S
C769 C760 1.429 1_556 S
C769 N766 1.350 . S
C769 C768 1.434 1_655 S
C770 C771 1.369 . S
C770 C772 1.419 . S
C770 H774 0.930 . S
C771 C770 1.369 . S
C771 C780 1.429 1_556 S
C772 C770 1.419 . S
C772 C773 1.363 1_556 S
C772 H775 0.929 . S
C773 C772 1.363 1_554 S
C773 C779 1.428 . S
H774 C770 0.930 . S
H775 C772 0.929 . S
S776 N777 1.613 . S
S776 N778 1.610 . S
N777 S776 1.613 . S
N777 C780 1.350 . S
N778 S776 1.610 . S
N778 C779 1.351 . S
C779 C773 1.428 . S
C779 N778 1.351 . S
C779 C780 1.434 . S
C780 C771 1.429 1_554 S
C780 N777 1.350 . S
C780 C779 1.434 . S
C781 C782 1.369 1_556 S
C781 C783 1.419 1_545 S
C781 H785 0.930 . S
C782 C781 1.369 1_554 S
C782 C791 1.429 . S
C783 C781 1.419 1_565 S
C783 C784 1.363 . S
C783 H786 0.929 . S
C784 C783 1.363 . S
C784 C790 1.428 1_556 S
H785 C781 0.930 . S
H786 C783 0.929 . S
S787 N788 1.613 1_565 S
S787 N789 1.610 . S
N788 S787 1.613 1_545 S
N788 C791 1.350 . S
N789 S787 1.610 . S
N789 C790 1.351 . S
C790 C784 1.428 1_554 S
C790 N789 1.351 . S
C790 C791 1.434 1_565 S
C791 C782 1.429 . S
C791 N788 1.350 . S
C791 C790 1.434 1_545 S
C792 C793 1.369 1_556 S
C792 C794 1.419 . S
C792 H796 0.930 . S
C793 C792 1.369 1_554 S
C793 C802 1.429 1_455 S
C794 C792 1.419 . S
C794 C795 1.363 1_455 S
C794 H797 0.929 . S
C795 C794 1.363 1_655 S
C795 C801 1.428 1_556 S
H796 C792 0.930 . S
H797 C794 0.929 . S
S798 N799 1.613 . S
S798 N800 1.610 . S
N799 S798 1.613 . S
N799 C802 1.350 . S
N800 S798 1.610 . S
N800 C801 1.351 . S
C801 C795 1.428 1_554 S
C801 N800 1.351 . S
C801 C802 1.434 . S
C802 C793 1.429 1_655 S
C802 N799 1.350 . S
C802 C801 1.434 . S
C803 C804 1.369 1_554 S
C803 C805 1.419 . S
C803 H807 0.930 . S
C804 C803 1.369 1_556 S
C804 C813 1.429 . S
C805 C803 1.419 . S
C805 C806 1.363 . S
C805 H808 0.929 . S
C806 C805 1.363 . S
C806 C812 1.428 1_554 S
H807 C803 0.930 . S
H808 C805 0.929 . S
S809 N810 1.613 . S
S809 N811 1.610 . S
N810 S809 1.613 . S
N810 C813 1.350 . S
N811 S809 1.610 . S
N811 C812 1.351 . S
C812 C806 1.428 1_556 S
C812 N811 1.351 . S
C812 C813 1.434 . S
C813 C804 1.429 . S
C813 N810 1.350 . S
C813 C812 1.434 . S
C814 C815 1.369 1_565 S
C814 C816 1.419 . S
C814 H818 0.930 . S
C815 C814 1.369 1_545 S
C815 C824 1.429 1_556 S
C816 C814 1.419 . S
C816 C817 1.363 1_556 S
C816 H819 0.929 . S
C817 C816 1.363 1_554 S
C817 C823 1.428 1_565 S
H818 C814 0.930 . S
H819 C816 0.929 . S
S820 N821 1.613 . S
S820 N822 1.610 . S
N821 S820 1.613 . S
N821 C824 1.350 . S
N822 S820 1.610 . S
N822 C823 1.351 . S
C823 C817 1.428 1_545 S
C823 N822 1.351 . S
C823 C824 1.434 . S
C824 C815 1.429 1_554 S
C824 N821 1.350 . S
C824 C823 1.434 . S
C825 C826 1.369 . S
C825 C827 1.419 . S
C825 H829 0.930 . S
C826 C825 1.369 . S
C826 C835 1.429 . S
C827 C825 1.419 . S
C827 C828 1.363 . S
C827 H830 0.929 . S
C828 C827 1.363 . S
C828 C834 1.428 . S
H829 C825 0.930 . S
H830 C827 0.929 . S
S831 N832 1.613 . S
S831 N833 1.610 . S
N832 S831 1.613 . S
N832 C835 1.350 . S
N833 S831 1.610 . S
N833 C834 1.351 . S
C834 C828 1.428 . S
C834 N833 1.351 . S
C834 C835 1.434 . S
C835 C826 1.429 . S
C835 N832 1.350 . S
C835 C834 1.434 . S
C836 C837 1.369 . S
C836 C838 1.419 . S
C836 H840 0.930 . S
C837 C836 1.369 . S
C837 C846 1.429 . S
C838 C836 1.419 . S
C838 C839 1.363 . S
C838 H841 0.929 . S
C839 C838 1.363 . S
C839 C845 1.428 . S
H840 C836 0.930 . S
H841 C838 0.929 . S
S842 N843 1.613 . S
S842 N844 1.610 . S
N843 S842 1.613 . S
N843 C846 1.350 . S
N844 S842 1.610 . S
N844 C845 1.351 . S
C845 C839 1.428 . S
C845 N844 1.351 . S
C845 C846 1.434 . S
C846 C837 1.429 . S
C846 N843 1.350 . S
C846 C845 1.434 . S
C847 C848 1.369 . S
C847 C849 1.419 . S
C847 H851 0.930 . S
C848 C847 1.369 . S
C848 C857 1.429 . S
C849 C847 1.419 . S
C849 C850 1.363 . S
C849 H852 0.929 . S
C850 C849 1.363 . S
C850 C856 1.428 . S
H851 C847 0.930 . S
H852 C849 0.929 . S
S853 N854 1.613 . S
S853 N855 1.610 . S
N854 S853 1.613 . S
N854 C857 1.350 . S
N855 S853 1.610 . S
N855 C856 1.351 . S
C856 C850 1.428 . S
C856 N855 1.351 . S
C856 C857 1.434 . S
C857 C848 1.429 . S
C857 N854 1.350 . S
C857 C856 1.434 . S
C858 C859 1.369 . S
C858 C860 1.419 . S
C858 H862 0.930 . S
C859 C858 1.369 . S
C859 C868 1.429 . S
C860 C858 1.419 . S
C860 C861 1.363 . S
C860 H863 0.929 . S
C861 C860 1.363 . S
C861 C867 1.428 . S
H862 C858 0.930 . S
H863 C860 0.929 . S
S864 N865 1.613 . S
S864 N866 1.610 . S
N865 S864 1.613 . S
N865 C868 1.350 . S
N866 S864 1.610 . S
N866 C867 1.351 . S
C867 C861 1.428 . S
C867 N866 1.351 . S
C867 C868 1.434 . S
C868 C859 1.429 . S
C868 N865 1.350 . S
C868 C867 1.434 . S
C869 C870 1.369 . S
C869 C871 1.419 . S
C869 H873 0.930 . S
C870 C869 1.369 . S
C870 C879 1.429 . S
C871 C869 1.419 . S
C871 C872 1.363 . S
C871 H874 0.929 . S
C872 C871 1.363 . S
C872 C878 1.428 . S
H873 C869 0.930 . S
H874 C871 0.929 . S
S875 N876 1.613 . S
S875 N877 1.610 . S
N876 S875 1.613 . S
N876 C879 1.350 . S
N877 S875 1.610 . S
N877 C878 1.351 . S
C878 C872 1.428 . S
C878 N877 1.351 . S
C878 C879 1.434 . S
C879 C870 1.429 . S
C879 N876 1.350 . S
C879 C878 1.434 . S
C880 C881 1.369 . S
C880 C882 1.419 . S
C880 H884 0.930 . S
C881 C880 1.369 . S
C881 C890 1.429 . S
C882 C880 1.419 . S
C882 C883 1.363 . S
C882 H885 0.929 . S
C883 C882 1.363 . S
C883 C889 1.428 . S
H884 C880 0.930 . S
H885 C882 0.929 . S
S886 N887 1.613 . S
S886 N888 1.610 . S
N887 S886 1.613 . S
N887 C890 1.350 . S
N888 S886 1.610 . S
N888 C889 1.351 . S
C889 C883 1.428 . S
C889 N888 1.351 . S
C889 C890 1.434 . S
C890 C881 1.429 . S
C890 N887 1.350 . S
C890 C889 1.434 . S
C891 C892 1.369 . S
C891 C893 1.419 . S
C891 H895 0.930 . S
C892 C891 1.369 . S
C892 C901 1.429 . S
C893 C891 1.419 . S
C893 C894 1.363 . S
C893 H896 0.929 . S
C894 C893 1.363 . S
C894 C900 1.428 . S
H895 C891 0.930 . S
H896 C893 0.929 . S
S897 N898 1.613 . S
S897 N899 1.610 . S
N898 S897 1.613 . S
N898 C901 1.350 . S
N899 S897 1.610 . S
N899 C900 1.351 . S
C900 C894 1.428 . S
C900 N899 1.351 . S
C900 C901 1.434 . S
C901 C892 1.429 . S
C901 N898 1.350 . S
C901 C900 1.434 . S
C902 C903 1.369 . S
C902 C904 1.419 . S
C902 H906 0.930 . S
C903 C902 1.369 . S
C903 C912 1.429 . S
C904 C902 1.419 . S
C904 C905 1.363 1_545 S
C904 H907 0.929 1_545 S
C905 C904 1.363 1_565 S
C905 C911 1.428 1_565 S
H906 C902 0.930 . S
H907 C904 0.929 1_565 S
S908 N909 1.613 . S
S908 N910 1.610 . S
N909 S908 1.613 . S
N909 C912 1.350 . S
N910 S908 1.610 . S
N910 C911 1.351 . S
C911 C905 1.428 1_545 S
C911 N910 1.351 . S
C911 C912 1.434 . S
C912 C903 1.429 . S
C912 N909 1.350 . S
C912 C911 1.434 . S
C913 C914 1.369 . S
C913 C915 1.419 . S
C913 H917 0.930 . S
C914 C913 1.369 . S
C914 C923 1.429 . S
C915 C913 1.419 . S
C915 C916 1.363 1_655 S
C915 H918 0.929 1_655 S
C916 C915 1.363 1_455 S
C916 C922 1.428 1_455 S
H917 C913 0.930 . S
H918 C915 0.929 1_455 S
S919 N920 1.613 . S
S919 N921 1.610 . S
N920 S919 1.613 . S
N920 C923 1.350 . S
N921 S919 1.610 . S
N921 C922 1.351 . S
C922 C916 1.428 1_655 S
C922 N921 1.351 . S
C922 C923 1.434 . S
C923 C914 1.429 . S
C923 N920 1.350 . S
C923 C922 1.434 . S
C924 C925 1.369 . S
C924 C926 1.419 . S
C924 H928 0.930 . S
C925 C924 1.369 . S
C925 C934 1.429 . S
C926 C924 1.419 . S
C926 C927 1.363 . S
C926 H929 0.929 . S
C927 C926 1.363 . S
C927 C933 1.428 . S
H928 C924 0.930 . S
H929 C926 0.929 . S
S930 N931 1.613 . S
S930 N932 1.610 . S
N931 S930 1.613 . S
N931 C934 1.350 . S
N932 S930 1.610 . S
N932 C933 1.351 . S
C933 C927 1.428 . S
C933 N932 1.351 . S
C933 C934 1.434 . S
C934 C925 1.429 . S
C934 N931 1.350 . S
C934 C933 1.434 . S
C935 C936 1.369 1_565 S
C935 C937 1.419 . S
C935 H939 0.930 1_565 S
C936 C935 1.369 1_545 S
C936 C945 1.429 1_545 S
C937 C935 1.419 . S
C937 C938 1.363 . S
C937 H940 0.929 . S
C938 C937 1.363 . S
C938 C944 1.428 . S
H939 C935 0.930 1_545 S
H940 C937 0.929 . S
S941 N942 1.613 . S
S941 N943 1.610 . S
N942 S941 1.613 . S
N942 C945 1.350 . S
N943 S941 1.610 . S
N943 C944 1.351 . S
C944 C938 1.428 . S
C944 N943 1.351 . S
C944 C945 1.434 . S
C945 C936 1.429 1_565 S
C945 N942 1.350 . S
C945 C944 1.434 . S
C946 C947 1.369 . S
C946 C948 1.419 . S
C946 H950 0.930 . S
C947 C946 1.369 . S
C947 C956 1.429 . S
C948 C946 1.419 . S
C948 C949 1.363 1_455 S
C948 H951 0.929 . S
C949 C948 1.363 1_655 S
C949 C955 1.428 1_655 S
H950 C946 0.930 . S
H951 C948 0.929 . S
S952 N953 1.613 . S
S952 N954 1.610 1_455 S
N953 S952 1.613 . S
N953 C956 1.350 . S
N954 S952 1.610 1_655 S
N954 C955 1.351 1_655 S
C955 C949 1.428 1_455 S
C955 N954 1.351 1_455 S
C955 C956 1.434 . S
C956 C947 1.429 . S
C956 N953 1.350 . S
C956 C955 1.434 . S
C957 C958 1.369 . S
C957 C959 1.419 . S
C957 H961 0.930 . S
C958 C957 1.369 . S
C958 C967 1.429 . S
C959 C957 1.419 . S
C959 C960 1.363 . S
C959 H962 0.929 . S
C960 C959 1.363 . S
C960 C966 1.428 . S
H961 C957 0.930 . S
H962 C959 0.929 . S
S963 N964 1.613 . S
S963 N965 1.610 . S
N964 S963 1.613 . S
N964 C967 1.350 . S
N965 S963 1.610 . S
N965 C966 1.351 . S
C966 C960 1.428 . S
C966 N965 1.351 . S
C966 C967 1.434 . S
C967 C958 1.429 . S
C967 N964 1.350 . S
C967 C966 1.434 . S
C968 C969 1.369 . S
C968 C970 1.419 . S
C968 H972 0.930 . S
C969 C968 1.369 . S
C969 C978 1.429 . S
C970 C968 1.419 . S
C970 C971 1.363 . S
C970 H973 0.929 . S
C971 C970 1.363 . S
C971 C977 1.428 . S
H972 C968 0.930 . S
H973 C970 0.929 . S
S974 N975 1.613 . S
S974 N976 1.610 . S
N975 S974 1.613 . S
N975 C978 1.350 . S
N976 S974 1.610 . S
N976 C977 1.351 . S
C977 C971 1.428 . S
C977 N976 1.351 . S
C977 C978 1.434 . S
C978 C969 1.429 . S
C978 N975 1.350 . S
C978 C977 1.434 . S
C979 C980 1.369 . S
C979 C981 1.419 . S
C979 H983 0.930 . S
C980 C979 1.369 . S
C980 C989 1.429 . S
C981 C979 1.419 . S
C981 C982 1.363 . S
C981 H984 0.929 . S
C982 C981 1.363 . S
C982 C988 1.428 . S
H983 C979 0.930 . S
H984 C981 0.929 . S
S985 N986 1.613 . S
S985 N987 1.610 . S
N986 S985 1.613 . S
N986 C989 1.350 . S
N987 S985 1.610 . S
N987 C988 1.351 . S
C988 C982 1.428 . S
C988 N987 1.351 . S
C988 C989 1.434 . S
C989 C980 1.429 . S
C989 N986 1.350 . S
C989 C988 1.434 . S
C990 C991 1.369 . S
C990 C992 1.419 . S
C990 H994 0.930 . S
C991 C990 1.369 . S
C991 C1000 1.429 . S
C992 C990 1.419 . S
C992 C993 1.363 . S
C992 H995 0.929 . S
C993 C992 1.363 . S
C993 C999 1.428 . S
H994 C990 0.930 . S
H995 C992 0.929 . S
S996 N997 1.613 . S
S996 N998 1.610 . S
N997 S996 1.613 . S
N997 C1000 1.350 . S
N998 S996 1.610 . S
N998 C999 1.351 . S
C999 C993 1.428 . S
C999 N998 1.351 . S
C999 C1000 1.434 . S
C1000 C991 1.429 . S
C1000 N997 1.350 . S
C1000 C999 1.434 . S
C1001 C1002 1.369 . S
C1001 C1003 1.419 . S
C1001 H1005 0.930 . S
C1002 C1001 1.369 . S
C1002 C1011 1.429 . S
C1003 C1001 1.419 . S
C1003 C1004 1.363 . S
C1003 H1006 0.929 . S
C1004 C1003 1.363 . S
C1004 C1010 1.428 . S
H1005 C1001 0.930 . S
H1006 C1003 0.929 . S
S1007 N1008 1.613 . S
S1007 N1009 1.610 . S
N1008 S1007 1.613 . S
N1008 C1011 1.350 . S
N1009 S1007 1.610 . S
N1009 C1010 1.351 . S
C1010 C1004 1.428 . S
C1010 N1009 1.351 . S
C1010 C1011 1.434 . S
C1011 C1002 1.429 . S
C1011 N1008 1.350 . S
C1011 C1010 1.434 . S
C1012 C1013 1.369 . S
C1012 C1014 1.419 . S
C1012 H1016 0.930 . S
C1013 C1012 1.369 . S
C1013 C1022 1.429 . S
C1014 C1012 1.419 . S
C1014 C1015 1.363 . S
C1014 H1017 0.929 . S
C1015 C1014 1.363 . S
C1015 C1021 1.428 . S
H1016 C1012 0.930 . S
H1017 C1014 0.929 . S
S1018 N1019 1.613 . S
S1018 N1020 1.610 . S
N1019 S1018 1.613 . S
N1019 C1022 1.350 . S
N1020 S1018 1.610 . S
N1020 C1021 1.351 . S
C1021 C1015 1.428 . S
C1021 N1020 1.351 . S
C1021 C1022 1.434 . S
C1022 C1013 1.429 . S
C1022 N1019 1.350 . S
C1022 C1021 1.434 . S
C1023 C1024 1.369 . S
C1023 C1025 1.419 . S
C1023 H1027 0.930 . S
C1024 C1023 1.369 . S
C1024 C1033 1.429 . S
C1025 C1023 1.419 . S
C1025 C1026 1.363 . S
C1025 H1028 0.929 . S
C1026 C1025 1.363 . S
C1026 C1032 1.428 . S
H1027 C1023 0.930 . S
H1028 C1025 0.929 . S
S1029 N1030 1.613 . S
S1029 N1031 1.610 . S
N1030 S1029 1.613 . S
N1030 C1033 1.350 . S
N1031 S1029 1.610 . S
N1031 C1032 1.351 . S
C1032 C1026 1.428 . S
C1032 N1031 1.351 . S
C1032 C1033 1.434 . S
C1033 C1024 1.429 . S
C1033 N1030 1.350 . S
C1033 C1032 1.434 . S
C1034 C1035 1.369 . S
C1034 C1036 1.419 . S
C1034 H1038 0.930 . S
C1035 C1034 1.369 . S
C1035 C1044 1.429 . S
C1036 C1034 1.419 . S
C1036 C1037 1.363 . S
C1036 H1039 0.929 . S
C1037 C1036 1.363 . S
C1037 C1043 1.428 . S
H1038 C1034 0.930 . S
H1039 C1036 0.929 . S
S1040 N1041 1.619 . S
S1040 N1042 1.610 1_554 S
N1041 S1040 1.619 . S
N1041 C1044 1.340 1_554 S
N1042 S1040 1.610 1_556 S
N1042 C1043 1.351 . S
C1043 C1037 1.428 . S
C1043 N1042 1.351 . S
C1043 C1044 1.434 . S
C1044 C1035 1.429 . S
C1044 N1041 1.340 1_556 S
C1044 C1043 1.434 . S
C1045 C1046 1.369 . S
C1045 C1047 1.419 . S
C1045 H1049 0.930 . S
C1046 C1045 1.369 . S
C1046 C1055 1.429 . S
C1047 C1045 1.419 . S
C1047 C1048 1.363 . S
C1047 H1050 0.929 . S
C1048 C1047 1.363 . S
C1048 C1054 1.428 . S
H1049 C1045 0.930 . S
H1050 C1047 0.929 . S
S1051 N1052 1.613 . S
S1051 N1053 1.610 . S
N1052 S1051 1.613 . S
N1052 C1055 1.350 . S
N1053 S1051 1.610 . S
N1053 C1054 1.351 . S
C1054 C1048 1.428 . S
C1054 N1053 1.351 . S
C1054 C1055 1.434 . S
C1055 C1046 1.429 . S
C1055 N1052 1.350 . S
C1055 C1054 1.434 . S
C1056 C1057 1.369 . S
C1056 C1058 1.419 . S
C1056 H1060 0.930 . S
C1057 C1056 1.369 . S
C1057 C1066 1.429 . S
C1058 C1056 1.419 . S
C1058 C1059 1.363 . S
C1058 H1061 0.929 . S
C1059 C1058 1.363 . S
C1059 C1065 1.428 . S
H1060 C1056 0.930 . S
H1061 C1058 0.929 . S
S1062 N1063 1.613 . S
S1062 N1064 1.610 . S
N1063 S1062 1.613 . S
N1063 C1066 1.350 . S
N1064 S1062 1.610 . S
N1064 C1065 1.351 . S
C1065 C1059 1.428 . S
C1065 N1064 1.351 . S
C1065 C1066 1.434 . S
C1066 C1057 1.429 . S
C1066 N1063 1.350 . S
C1066 C1065 1.434 . S
C1067 C1068 1.369 . S
C1067 C1069 1.419 . S
C1067 H1071 0.930 . S
C1068 C1067 1.369 . S
C1068 C1077 1.429 . S
C1069 C1067 1.419 . S
C1069 C1070 1.363 . S
C1069 H1072 0.929 . S
C1070 C1069 1.363 . S
C1070 C1076 1.428 . S
H1071 C1067 0.930 . S
H1072 C1069 0.929 . S
S1073 N1074 1.613 . S
S1073 N1075 1.610 . S
N1074 S1073 1.613 . S
N1074 C1077 1.350 . S
N1075 S1073 1.610 . S
N1075 C1076 1.351 . S
C1076 C1070 1.428 . S
C1076 N1075 1.351 . S
C1076 C1077 1.434 . S
C1077 C1068 1.429 . S
C1077 N1074 1.350 . S
C1077 C1076 1.434 . S
C1078 C1079 1.369 . S
C1078 C1080 1.419 . S
C1078 H1082 0.930 . S
C1079 C1078 1.369 . S
C1079 C1088 1.429 . S
C1080 C1078 1.419 . S
C1080 C1081 1.363 . S
C1080 H1083 0.929 . S
C1081 C1080 1.363 . S
C1081 C1087 1.428 . S
H1082 C1078 0.930 . S
H1083 C1080 0.929 . S
S1084 N1085 1.613 . S
S1084 N1086 1.610 . S
N1085 S1084 1.613 . S
N1085 C1088 1.350 . S
N1086 S1084 1.610 . S
N1086 C1087 1.351 . S
C1087 C1081 1.428 . S
C1087 N1086 1.351 . S
C1087 C1088 1.434 . S
C1088 C1079 1.429 . S
C1088 N1085 1.350 . S
C1088 C1087 1.434 . S
C595 N310 1.344 . S
C597 N13 1.345 . S
C606 N343 1.345 . S
C608 N46 1.335 . S
C617 N376 1.346 . S
C619 N79 1.342 . S
C628 N112 1.333 . S
C630 N409 1.347 . S
C639 N442 1.348 . S
C641 N145 1.334 . S
C650 N475 1.345 . S
C652 N178 1.343 . S
C661 N211 1.350 . S
C663 N508 1.337 . S
C672 N541 1.350 . S
C674 N244 1.336 . S
C683 N574 1.335 . S
C685 N277 1.341 . S
C694 C579 1.891 . S
C696 C18 1.889 . S
C705 C513 1.892 . S
C707 C51 1.890 . S
C716 C84 1.889 . S
C718 C546 1.891 . S
C727 C249 1.890 . S
C729 C117 1.888 . S
C738 C282 1.889 . S
C740 C150 1.891 . S
C749 C183 1.891 . S
C751 C216 1.889 . S
C760 C315 1.891 . S
C762 C447 1.889 . S
C771 C480 1.891 . S
C773 C348 1.889 . S
C782 C381 1.890 . S
C784 C414 1.891 . S
C793 C21 1.467 . S
C795 C153 1.479 . S
C804 C186 1.467 . S
C806 C54 1.479 . S
C815 C120 1.478 . S
C817 C87 1.471 . S
C826 C351 1.479 . S
C828 C219 1.470 . S
C837 C252 1.477 . S
C839 C384 1.471 . S
C848 C318 1.467 . S
C850 C285 1.479 . S
C859 C417 1.481 . S
C861 C549 1.469 . S
C870 C582 1.481 . S
C872 C450 1.469 . S
C881 C483 1.478 . S
C883 C516 1.471 . S
C892 C73 1.209 . S
C894 N2 1.243 . S
C903 C7 1.212 . S
C905 N35 1.242 . S
C914 C40 1.207 . S
C916 N68 1.244 . S
C925 C139 1.207 . S
C927 N101 1.244 . S
C936 N134 1.245 . S
C938 C172 1.204 . S
C947 C106 1.207 . S
C949 N167 1.243 . S
C958 C271 1.202 . S
C960 N200 1.245 . S
C969 C205 1.203 . S
C971 N233 1.244 . S
C980 N266 1.242 . S
C982 C238 1.211 . S
C991 N299 1.244 . S
C993 C337 1.206 . S
C1002 C370 1.210 . S
C1004 N332 1.242 . S
C1013 C304 1.208 . S
C1015 N365 1.243 . S
C1024 N398 1.242 . S
C1026 C469 1.210 . S
C1035 C403 1.211 . S
C1037 N431 1.242 . S
C1046 C436 1.201 . S
C1048 N464 1.245 . S
C1057 C535 1.202 . S
C1059 N497 1.245 . S
C1068 C568 1.201 . S
C1070 N530 1.245 . S
C1079 C502 1.212 . S
C1081 N563 1.242 . S
