# Generated by pormake.
# Topology umo, (4)-cn, num edge types: 1
# Building blocks:
#     Node 0, Type 0, BuildingBlock: ICAMEG_clean_sbu_1, # of connection points: 4
#     Node 1, Type 0, BuildingBlock: ICAMEG_clean_sbu_1, # of connection points: 4
#     Node 2, Type 0, BuildingBlock: ICAMEG_clean_sbu_1, # of connection points: 4
#     Node 3, Type 0, BuildingBlock: ICAMEG_clean_sbu_1, # of connection points: 4
#     Node 4, Type 0, BuildingBlock: ICAMEG_clean_sbu_1, # of connection points: 4
#     Node 5, Type 0, BuildingBlock: ICAMEG_clean_sbu_1, # of connection points: 4
#     Node 6, Type 0, BuildingBlock: ICAMEG_clean_sbu_1, # of connection points: 4
#     Node 7, Type 0, BuildingBlock: ICAMEG_clean_sbu_1, # of connection points: 4
#     Node 8, Type 0, BuildingBlock: ICAMEG_clean_sbu_1, # of connection points: 4
#     Node 9, Type 0, BuildingBlock: ICAMEG_clean_sbu_1, # of connection points: 4
#     Node 10, Type 0, BuildingBlock: ICAMEG_clean_sbu_1, # of connection points: 4
#     Node 11, Type 0, BuildingBlock: ICAMEG_clean_sbu_1, # of connection points: 4
#     Edge 12, Type (0, 0), BuildingBlock: KIFKEQ_clean_linker_1, # of connection points: 2
#     Edge 13, Type (0, 0), BuildingBlock: KIFKEQ_clean_linker_1, # of connection points: 2
#     Edge 14, Type (0, 0), BuildingBlock: KIFKEQ_clean_linker_1, # of connection points: 2
#     Edge 15, Type (0, 0), BuildingBlock: KIFKEQ_clean_linker_1, # of connection points: 2
#     Edge 16, Type (0, 0), BuildingBlock: KIFKEQ_clean_linker_1, # of connection points: 2
#     Edge 17, Type (0, 0), BuildingBlock: KIFKEQ_clean_linker_1, # of connection points: 2
#     Edge 18, Type (0, 0), BuildingBlock: KIFKEQ_clean_linker_1, # of connection points: 2
#     Edge 19, Type (0, 0), BuildingBlock: KIFKEQ_clean_linker_1, # of connection points: 2
#     Edge 20, Type (0, 0), BuildingBlock: KIFKEQ_clean_linker_1, # of connection points: 2
#     Edge 21, Type (0, 0), BuildingBlock: KIFKEQ_clean_linker_1, # of connection points: 2
#     Edge 22, Type (0, 0), BuildingBlock: KIFKEQ_clean_linker_1, # of connection points: 2
#     Edge 23, Type (0, 0), BuildingBlock: KIFKEQ_clean_linker_1, # of connection points: 2
#     Edge 24, Type (0, 0), BuildingBlock: KIFKEQ_clean_linker_1, # of connection points: 2
#     Edge 25, Type (0, 0), BuildingBlock: KIFKEQ_clean_linker_1, # of connection points: 2
#     Edge 26, Type (0, 0), BuildingBlock: KIFKEQ_clean_linker_1, # of connection points: 2
#     Edge 27, Type (0, 0), BuildingBlock: KIFKEQ_clean_linker_1, # of connection points: 2
#     Edge 28, Type (0, 0), BuildingBlock: KIFKEQ_clean_linker_1, # of connection points: 2
#     Edge 29, Type (0, 0), BuildingBlock: KIFKEQ_clean_linker_1, # of connection points: 2
#     Edge 30, Type (0, 0), BuildingBlock: KIFKEQ_clean_linker_1, # of connection points: 2
#     Edge 31, Type (0, 0), BuildingBlock: KIFKEQ_clean_linker_1, # of connection points: 2
#     Edge 32, Type (0, 0), BuildingBlock: KIFKEQ_clean_linker_1, # of connection points: 2
#     Edge 33, Type (0, 0), BuildingBlock: KIFKEQ_clean_linker_1, # of connection points: 2
#     Edge 34, Type (0, 0), BuildingBlock: KIFKEQ_clean_linker_1, # of connection points: 2
#     Edge 35, Type (0, 0), BuildingBlock: KIFKEQ_clean_linker_1, # of connection points: 2
# Relax obj value: 0.091
# Max RMSD: 0.156
# Mean RMSD: 0.156
data_MOF--net-umo--node1-ICAMEG_clean_sbu_1--edge1-KIFKEQ_clean_linker_1
_symmetry_space_group_name_H-M    P1
_symmetry_Int_Tables_number       1
_symmetry_cell_setting            triclinic
loop_
_symmetry_equiv_pos_as_xyz
'x, y, z'
_cell_length_a     53.149996
_cell_length_b     53.040366
_cell_length_c     40.397963
_cell_angle_alpha  89.997844
_cell_angle_beta   89.949778
_cell_angle_gamma 120.09888
loop_
_atom_site_label
_atom_site_type_symbol
_atom_site_fract_x
_atom_site_fract_y
_atom_site_fract_z
_atom_type_partial_charge
Co0 Co 0.15032 0.56931 0.40461 0.0
Co1 Co 0.18267 0.52895 0.42548 0.0
O2 O 0.15696 0.53664 0.39816 0.0
C3 C 0.09188 0.51687 0.403 0.0
O4 O 0.10157 0.50381 0.42248 0.0
C5 C 0.20481 0.53478 0.35746 0.0
O6 O 0.20118 0.55743 0.35554 0.0
O7 O 0.2144 0.57004 0.42209 0.0
O8 O 0.19209 0.59611 0.41475 0.0
H9 H 0.25333 0.54798 0.51778 0.0
H10 H 0.1301 0.53476 0.34262 0.0
O11 O 0.10837 0.54328 0.39443 0.0
H12 H 0.19933 0.63523 0.30714 0.0
H13 H 0.10506 0.63042 0.37711 0.0
H14 H 0.16969 0.6171 0.45367 0.0
H15 H 0.18801 0.62358 0.36631 0.0
H16 H 0.1149 0.59006 0.3691 0.0
O17 O 0.19824 0.51989 0.38419 0.0
H18 H 0.22051 0.55746 0.48358 0.0
H19 H 0.20004 0.48361 0.42409 0.0
H20 H 0.16063 0.65789 0.46245 0.0
H21 H 0.14055 0.54553 0.28318 0.0
H22 H 0.1281 0.66475 0.42399 0.0
H23 H 0.1755 0.59605 0.26512 0.0
O24 O 0.14245 0.56022 0.45246 0.0
H25 H 0.10374 0.43344 0.38071 0.0
H26 H 0.15495 0.48727 0.48137 0.0
H27 H 0.11483 0.43644 0.48617 0.0
H28 H 0.08895 0.40918 0.43558 0.0
H29 H 0.14386 0.48439 0.37709 0.0
H30 H 0.23283 0.47346 0.45745 0.0
H31 H 0.25965 0.50572 0.50476 0.0
O32 O 0.16821 0.53882 0.46704 0.0
C33 C 0.2147 0.59411 0.41961 0.0
C34 C 0.24168 0.53371 0.4973 0.0
C35 C 0.23021 0.4919 0.46342 0.0
N36 N 0.20819 0.52095 0.45209 0.0
C37 C 0.223 0.53891 0.47793 0.0
C38 C 0.21171 0.49778 0.44458 0.0
C39 C 0.24524 0.51001 0.48996 0.0
C40 C 0.14504 0.55687 0.33494 0.0
N41 N 0.1583 0.57854 0.35792 0.0
C42 C 0.15099 0.56281 0.30125 0.0
C43 C 0.17064 0.59115 0.29114 0.0
C44 C 0.18404 0.61314 0.31471 0.0
C45 C 0.1776 0.60639 0.34819 0.0
C46 C 0.11932 0.6277 0.39399 0.0
C47 C 0.15567 0.62007 0.4367 0.0
C48 C 0.12493 0.60485 0.38962 0.0
N49 N 0.14304 0.60137 0.41075 0.0
C50 C 0.15055 0.64315 0.44186 0.0
C51 C 0.13227 0.64696 0.42029 0.0
C52 C 0.15265 0.55031 0.4742 0.0
C53 C 0.11492 0.44506 0.40292 0.0
C54 C 0.14374 0.47556 0.45927 0.0
C55 C 0.12109 0.44677 0.46213 0.0
C56 C 0.10659 0.43148 0.43372 0.0
N57 N 0.15179 0.48871 0.42896 0.0
C58 C 0.13772 0.47386 0.401 0.0
Co59 Co 0.65722 0.18536 0.59507 0.0
Co60 Co 0.5838 0.14621 0.57777 0.0
O61 O 0.62402 0.15544 0.57015 0.0
C62 C 0.67646 0.19105 0.52346 0.0
O63 O 0.65173 0.16815 0.51511 0.0
C64 C 0.58206 0.08964 0.57717 0.0
O65 O 0.60665 0.10173 0.59357 0.0
O66 O 0.58726 0.14015 0.62546 0.0
O67 O 0.63333 0.1742 0.63714 0.0
H68 H 0.50424 0.1523 0.63794 0.0
H69 H 0.66543 0.14189 0.55601 0.0
O70 O 0.68212 0.19907 0.55368 0.0
H71 H 0.6891 0.13164 0.67122 0.0
H72 H 0.76279 0.24515 0.62679 0.0
H73 H 0.66408 0.22904 0.6454 0.0
H74 H 0.67435 0.16751 0.65684 0.0
H75 H 0.72086 0.20665 0.59634 0.0
O76 O 0.56982 0.10418 0.56953 0.0
H77 H 0.55477 0.16438 0.62727 0.0
H78 H 0.52704 0.10665 0.54513 0.0
H79 H 0.70532 0.26761 0.6766 0.0
H80 H 0.6805 0.1062 0.56915 0.0
H81 H 0.75511 0.27585 0.66737 0.0
H82 H 0.69239 0.10075 0.62719 0.0
O83 O 0.64525 0.2141 0.58457 0.0
H84 H 0.59117 0.13085 0.45608 0.0
H85 H 0.56378 0.18092 0.53917 0.0
H86 H 0.55952 0.18891 0.47987 0.0
H87 H 0.5732 0.16374 0.43782 0.0
H88 H 0.59552 0.12381 0.51564 0.0
H89 H 0.47617 0.09381 0.55503 0.0
H90 H 0.46452 0.11678 0.60165 0.0
O91 O 0.59653 0.18808 0.58625 0.0
C92 C 0.60739 0.15548 0.64595 0.0
C93 C 0.50905 0.14223 0.61746 0.0
C94 C 0.49329 0.10937 0.57096 0.0
N95 N 0.54389 0.13646 0.58541 0.0
C96 C 0.53764 0.14905 0.61125 0.0
C97 C 0.52213 0.11671 0.5655 0.0
C98 C 0.48677 0.12228 0.59712 0.0
C99 C 0.67103 0.1402 0.58114 0.0
N100 N 0.66931 0.15718 0.60544 0.0
C101 C 0.67935 0.11968 0.58853 0.0
C102 C 0.68594 0.11657 0.6211 0.0
C103 C 0.68406 0.13387 0.64581 0.0
C104 C 0.67561 0.1541 0.6375 0.0
C105 C 0.74119 0.24169 0.63113 0.0
C106 C 0.68564 0.23232 0.64149 0.0
C107 C 0.71738 0.21996 0.61394 0.0
N108 N 0.69001 0.21536 0.61944 0.0
C109 C 0.70893 0.25427 0.65912 0.0
C110 C 0.73686 0.25891 0.65389 0.0
C111 C 0.62045 0.2122 0.58503 0.0
C112 C 0.58518 0.14199 0.47416 0.0
C113 C 0.57015 0.17016 0.52109 0.0
C114 C 0.56751 0.17463 0.48751 0.0
C115 C 0.57513 0.16046 0.46393 0.0
N116 N 0.5802 0.15213 0.53095 0.0
C117 C 0.58751 0.13801 0.50796 0.0
Co118 Co 0.46641 0.65416 0.76008 0.0
Co119 Co 0.42195 0.5814 0.74126 0.0
O120 O 0.45505 0.61992 0.7326 0.0
C121 C 0.45535 0.66998 0.69439 0.0
O122 O 0.43135 0.64461 0.69595 0.0
C123 C 0.47223 0.57273 0.73457 0.0
O124 O 0.48636 0.59485 0.75477 0.0
O125 O 0.43422 0.58275 0.78785 0.0
O126 O 0.4584 0.63026 0.80184 0.0
H127 H 0.3363 0.50599 0.8059 0.0
H128 H 0.50603 0.65672 0.70681 0.0
O129 O 0.47341 0.67813 0.71842 0.0
H130 H 0.5614 0.67477 0.8105 0.0
H131 H 0.52872 0.76032 0.7886 0.0
H132 H 0.44411 0.6665 0.82174 0.0
H133 H 0.51152 0.66685 0.81128 0.0
H134 H 0.51363 0.71606 0.75518 0.0
O135 O 0.44578 0.56384 0.72735 0.0
H136 H 0.37771 0.55505 0.79451 0.0
H137 H 0.39658 0.52444 0.70606 0.0
H138 H 0.45856 0.71013 0.85604 0.0
H139 H 0.55592 0.66472 0.70484 0.0
H140 H 0.50115 0.75747 0.83951 0.0
H141 H 0.58391 0.67374 0.75697 0.0
O142 O 0.42595 0.64679 0.76152 0.0
H143 H 0.43684 0.59383 0.61813 0.0
H144 H 0.36578 0.56667 0.70896 0.0
H145 H 0.35017 0.56656 0.65147 0.0
H146 H 0.38582 0.58021 0.60558 0.0
H147 H 0.45161 0.59393 0.676 0.0
H148 H 0.35549 0.47497 0.71661 0.0
H149 H 0.32496 0.46553 0.76678 0.0
O150 O 0.39762 0.5983 0.75528 0.0
C151 C 0.44617 0.60311 0.80922 0.0
C152 C 0.34937 0.50985 0.78389 0.0
C153 C 0.36017 0.49243 0.7338 0.0
N154 N 0.38937 0.54266 0.7495 0.0
C155 C 0.37278 0.53761 0.77725 0.0
C156 C 0.38343 0.52047 0.72799 0.0
C157 C 0.34304 0.48715 0.76195 0.0
C158 C 0.5182 0.66093 0.72954 0.0
N159 N 0.50597 0.66148 0.7591 0.0
C160 C 0.54638 0.66532 0.7283 0.0
C161 C 0.56206 0.67033 0.75757 0.0
C162 C 0.54943 0.67089 0.78761 0.0
C163 C 0.52117 0.66634 0.78792 0.0
C164 C 0.51016 0.73981 0.7961 0.0
C165 C 0.46279 0.68698 0.81452 0.0
C166 C 0.5015 0.7147 0.77725 0.0
N167 N 0.47819 0.6887 0.78669 0.0
C168 C 0.47081 0.71163 0.83398 0.0
C169 C 0.49469 0.73819 0.82467 0.0
C170 C 0.40125 0.62352 0.76113 0.0
C171 C 0.42108 0.58775 0.63791 0.0
C172 C 0.38144 0.57266 0.68914 0.0
C173 C 0.37245 0.57251 0.65662 0.0
C174 C 0.39247 0.58015 0.63088 0.0
N175 N 0.40955 0.58013 0.69583 0.0
C176 C 0.42928 0.58762 0.67071 0.0
Co177 Co 0.8391 0.42652 0.91341 0.0
Co178 Co 0.80671 0.46777 0.92712 0.0
O179 O 0.83144 0.45761 0.90151 0.0
C180 C 0.89667 0.47834 0.90221 0.0
O181 O 0.88865 0.49296 0.92155 0.0
C182 C 0.78161 0.45516 0.86058 0.0
O183 O 0.7839 0.43173 0.863 0.0
O184 O 0.77499 0.42663 0.92801 0.0
O185 O 0.79828 0.40108 0.92909 0.0
H186 H 0.73725 0.45627 0.0182 0.0
H187 H 0.85341 0.45156 0.84563 0.0
O188 O 0.87984 0.45118 0.89757 0.0
H189 H 0.78297 0.34706 0.83023 0.0
H190 H 0.88366 0.3632 0.8962 0.0
H191 H 0.82463 0.38658 0.97068 0.0
H192 H 0.79917 0.36726 0.8862 0.0
H193 H 0.87229 0.40151 0.88135 0.0
O194 O 0.79043 0.47348 0.88438 0.0
H195 H 0.76912 0.44369 0.98647 0.0
H196 H 0.79032 0.51353 0.91994 0.0
H197 H 0.83531 0.34798 0.98641 0.0
H198 H 0.83805 0.43217 0.78922 0.0
H199 H 0.86502 0.33607 0.94902 0.0
H200 H 0.80247 0.3796 0.78125 0.0
O201 O 0.85081 0.44257 0.95872 0.0
H202 H 0.88484 0.559 0.87319 0.0
H203 H 0.83607 0.51372 0.97851 0.0
H204 H 0.87656 0.56461 0.97828 0.0
H205 H 0.9012 0.58756 0.92532 0.0
H206 H 0.84442 0.5081 0.87461 0.0
H207 H 0.75847 0.52675 0.95075 0.0
H208 H 0.73179 0.49809 1.00036 0.0
O209 O 0.82175 0.46101 0.97016 0.0
C210 C 0.77531 0.40291 0.93128 0.0
C211 C 0.7489 0.46903 0.99674 0.0
C212 C 0.76078 0.50857 0.95886 0.0
N213 N 0.78191 0.47815 0.95174 0.0
C214 C 0.76708 0.4621 0.97879 0.0
C215 C 0.77876 0.50098 0.94151 0.0
C216 C 0.74581 0.49248 0.98669 0.0
C217 C 0.83821 0.42858 0.84237 0.0
N218 N 0.82732 0.41055 0.8692 0.0
C219 C 0.82947 0.41776 0.81036 0.0
C220 C 0.80947 0.38827 0.80591 0.0
C221 C 0.7985 0.37001 0.83339 0.0
C222 C 0.8077 0.38159 0.86503 0.0
C223 C 0.87063 0.36814 0.91266 0.0
C224 C 0.83742 0.38139 0.95419 0.0
C225 C 0.86417 0.38984 0.90441 0.0
N226 N 0.8476 0.39609 0.925 0.0
C227 C 0.84347 0.35958 0.96327 0.0
C228 C 0.86016 0.35292 0.94229 0.0
C229 C 0.83936 0.45237 0.97898 0.0
C230 C 0.87421 0.54927 0.8964 0.0
C231 C 0.84675 0.52356 0.95539 0.0
C232 C 0.86961 0.55239 0.9554 0.0
C233 C 0.88341 0.56526 0.92567 0.0
N234 N 0.83784 0.50804 0.92657 0.0
C235 C 0.85123 0.52051 0.89733 0.0
Co236 Co 0.33492 0.80822 0.09346 0.0
Co237 Co 0.40804 0.84639 0.07488 0.0
O238 O 0.36791 0.8369 0.0674 0.0
C239 C 0.31951 0.78969 0.0242 0.0
O240 O 0.34625 0.79474 0.0215 0.0
C241 C 0.40953 0.90276 0.0721 0.0
O242 O 0.38532 0.89109 0.08928 0.0
O243 O 0.40508 0.85372 0.12238 0.0
O244 O 0.35884 0.82085 0.13555 0.0
H245 H 0.48847 0.84247 0.13559 0.0
H246 H 0.32594 0.84776 0.04953 0.0
O247 O 0.31068 0.79423 0.05179 0.0
H248 H 0.30513 0.86802 0.1623 0.0
H249 H 0.22909 0.75099 0.12485 0.0
H250 H 0.32712 0.76658 0.14696 0.0
H251 H 0.31917 0.83076 0.15284 0.0
H252 H 0.2715 0.78775 0.09334 0.0
O253 O 0.42175 0.88811 0.06489 0.0
H254 H 0.43776 0.82986 0.12522 0.0
H255 H 0.46436 0.88508 0.04081 0.0
H256 H 0.28538 0.72977 0.17925 0.0
H257 H 0.31164 0.88496 0.05779 0.0
H258 H 0.23592 0.72179 0.16826 0.0
H259 H 0.30122 0.89536 0.11454 0.0
O260 O 0.34663 0.77874 0.0862 0.0
H261 H 0.3958 0.85571 0.95293 0.0
H262 H 0.42879 0.8117 0.03754 0.0
H263 H 0.43141 0.80137 0.97852 0.0
H264 H 0.41487 0.82348 0.93575 0.0
H265 H 0.39323 0.86518 1.01224 0.0
H266 H 0.51541 0.89845 0.05041 0.0
H267 H 0.52771 0.87699 0.09801 0.0
O268 O 0.39545 0.80482 0.08504 0.0
C269 C 0.38511 0.83939 0.14354 0.0
C270 C 0.48337 0.85187 0.11468 0.0
C271 C 0.49849 0.88332 0.0669 0.0
N272 N 0.44807 0.85647 0.08224 0.0
C273 C 0.45468 0.84473 0.10862 0.0
C274 C 0.46956 0.87569 0.06161 0.0
C275 C 0.50538 0.87127 0.09361 0.0
C276 C 0.32111 0.85194 0.07423 0.0
N277 N 0.3233 0.83708 0.10065 0.0
C278 C 0.31317 0.87313 0.07879 0.0
C279 C 0.30739 0.879 0.11065 0.0
C280 C 0.30962 0.86369 0.13746 0.0
C281 C 0.31768 0.8427 0.13197 0.0
C282 C 0.25054 0.75434 0.12996 0.0
C283 C 0.30571 0.76342 0.14227 0.0
C284 C 0.27462 0.77511 0.11219 0.0
N285 N 0.30179 0.77956 0.11864 0.0
C286 C 0.28214 0.74246 0.16052 0.0
C287 C 0.25439 0.73797 0.15431 0.0
C288 C 0.37149 0.78072 0.08625 0.0
C289 C 0.40317 0.84603 0.97133 0.0
C290 C 0.42145 0.82133 0.0191 0.0
C291 C 0.42307 0.81546 0.9857 0.0
C292 C 0.41382 0.8279 0.96171 0.0
N293 N 0.41096 0.83912 0.02834 0.0
C294 C 0.40191 0.85145 1.00495 0.0
Co295 Co 0.5207 0.33623 0.26159 0.0
Co296 Co 0.55823 0.40975 0.24348 0.0
O297 O 0.52662 0.36995 0.23577 0.0
C298 C 0.52489 0.32146 0.1925 0.0
O299 O 0.54702 0.3481 0.19038 0.0
C300 C 0.50441 0.413 0.24204 0.0
O301 O 0.49129 0.38848 0.25868 0.0
O302 O 0.54841 0.40675 0.29115 0.0
O303 O 0.53137 0.35959 0.3039 0.0
H304 H 0.64467 0.48835 0.30384 0.0
H305 H 0.47388 0.32923 0.21614 0.0
O306 O 0.51089 0.31247 0.21969 0.0
H307 H 0.42982 0.30755 0.32747 0.0
H308 H 0.46865 0.22971 0.2913 0.0
H309 H 0.5524 0.32669 0.31605 0.0
H310 H 0.48093 0.32039 0.31968 0.0
H311 H 0.47636 0.27302 0.26006 0.0
O312 O 0.53119 0.4247 0.23451 0.0
H313 H 0.60521 0.43806 0.29331 0.0
H314 H 0.57732 0.46678 0.21028 0.0
H315 H 0.5454 0.28405 0.3481 0.0
H316 H 0.42259 0.31617 0.22274 0.0
H317 H 0.50326 0.23512 0.33578 0.0
H318 H 0.40028 0.30532 0.27876 0.0
O319 O 0.56181 0.34699 0.25566 0.0
H320 H 0.53549 0.39875 0.12181 0.0
H321 H 0.61309 0.42945 0.20528 0.0
H322 H 0.62535 0.43208 0.14602 0.0
H323 H 0.5864 0.41669 0.10383 0.0
H324 H 0.52413 0.39615 0.18134 0.0
H325 H 0.61635 0.51742 0.22006 0.0
H326 H 0.65043 0.52844 0.26704 0.0
O327 O 0.58622 0.39588 0.2526 0.0
C328 C 0.54056 0.38614 0.31206 0.0
C329 C 0.63004 0.48381 0.2832 0.0
C330 C 0.61412 0.50013 0.2362 0.0
N331 N 0.58919 0.44946 0.25101 0.0
C332 C 0.60771 0.45536 0.27705 0.0
C333 C 0.59204 0.47142 0.23082 0.0
C334 C 0.63323 0.5063 0.26257 0.0
C335 C 0.46421 0.32421 0.24053 0.0
N336 N 0.48033 0.32548 0.26747 0.0
C337 C 0.43521 0.31698 0.24414 0.0
C338 C 0.42272 0.31095 0.27559 0.0
C339 C 0.4393 0.31223 0.30294 0.0
C340 C 0.46825 0.31961 0.29839 0.0
C341 C 0.48702 0.25093 0.29699 0.0
C342 C 0.53386 0.30552 0.31078 0.0
C343 C 0.49151 0.27552 0.27938 0.0
N344 N 0.51458 0.30239 0.28657 0.0
C345 C 0.53008 0.28143 0.3289 0.0
C346 C 0.50645 0.25398 0.32194 0.0
C347 C 0.58531 0.37145 0.2547 0.0
C348 C 0.55267 0.40561 0.13996 0.0
C349 C 0.596 0.42263 0.18709 0.0
C350 C 0.60309 0.42424 0.15356 0.0
C351 C 0.58123 0.41563 0.12989 0.0
N352 N 0.56793 0.41277 0.19678 0.0
C353 C 0.54639 0.40434 0.1737 0.0
Co354 Co 0.47023 0.81086 0.43018 0.0
Co355 Co 0.43273 0.84736 0.44398 0.0
O356 O 0.46337 0.83864 0.45448 0.0
C357 C 0.46065 0.79038 0.49893 0.0
O358 O 0.43836 0.79456 0.49747 0.0
C359 C 0.48704 0.90396 0.44775 0.0
O360 O 0.49992 0.89233 0.43116 0.0
O361 O 0.44497 0.85443 0.39702 0.0
O362 O 0.46198 0.82397 0.38642 0.0
H363 H 0.35029 0.84128 0.37693 0.0
H364 H 0.51461 0.8501 0.47848 0.0
O365 O 0.47725 0.7964 0.4737 0.0
H366 H 0.5648 0.87344 0.37057 0.0
H367 H 0.52284 0.75593 0.40746 0.0
H368 H 0.44146 0.77003 0.37432 0.0
H369 H 0.51319 0.8352 0.37504 0.0
H370 H 0.51376 0.7915 0.43662 0.0
O371 O 0.45996 0.88926 0.45412 0.0
H372 H 0.38848 0.82963 0.39096 0.0
H373 H 0.41299 0.88572 0.47443 0.0
H374 H 0.44987 0.73443 0.34428 0.0
H375 H 0.56632 0.88826 0.47523 0.0
H376 H 0.49083 0.7272 0.36083 0.0
H377 H 0.59171 0.90021 0.42094 0.0
O378 O 0.42874 0.78069 0.43314 0.0
H379 H 0.44897 0.85731 0.56698 0.0
H380 H 0.3758 0.81235 0.47847 0.0
H381 H 0.36033 0.80203 0.53684 0.0
H382 H 0.39705 0.82461 0.58157 0.0
H383 H 0.46355 0.86679 0.50829 0.0
H384 H 0.3752 0.89815 0.46117 0.0
H385 H 0.34345 0.87577 0.41218 0.0
O386 O 0.40475 0.80557 0.43369 0.0
C387 C 0.45324 0.84142 0.37705 0.0
C388 C 0.3639 0.85108 0.39842 0.0
C389 C 0.37791 0.88303 0.44568 0.0
N390 N 0.40273 0.85675 0.43367 0.0
C391 C 0.3855 0.8445 0.40655 0.0
C392 C 0.3993 0.87595 0.45304 0.0
C393 C 0.3601 0.87046 0.41819 0.0
C394 C 0.52562 0.85495 0.45485 0.0
N395 N 0.51097 0.84039 0.42701 0.0
C396 C 0.55485 0.87668 0.45313 0.0
C397 C 0.56907 0.88341 0.42265 0.0
C398 C 0.55397 0.86842 0.39437 0.0
C399 C 0.52474 0.84686 0.39702 0.0
C400 C 0.505 0.75897 0.39993 0.0
C401 C 0.45949 0.76722 0.38142 0.0
C402 C 0.49975 0.77906 0.41635 0.0
N403 N 0.47737 0.78312 0.40683 0.0
C404 C 0.46407 0.74693 0.36443 0.0
C405 C 0.48703 0.74286 0.37376 0.0
C406 C 0.40545 0.78191 0.43213 0.0
C407 C 0.43276 0.84742 0.54772 0.0
C408 C 0.39192 0.82222 0.49779 0.0
C409 C 0.38302 0.81634 0.5308 0.0
C410 C 0.40363 0.82903 0.55588 0.0
N411 N 0.42054 0.84028 0.48997 0.0
C412 C 0.44087 0.85284 0.51443 0.0
Co413 Co 0.57481 0.42237 0.61445 0.0
Co414 Co 0.64849 0.46393 0.60003 0.0
O415 O 0.61352 0.45413 0.6254 0.0
C416 C 0.56845 0.47417 0.62116 0.0
O417 O 0.59151 0.48819 0.60223 0.0
C418 C 0.66113 0.45294 0.66729 0.0
O419 O 0.63537 0.42946 0.66544 0.0
O420 O 0.63933 0.42285 0.60039 0.0
O421 O 0.59049 0.39667 0.60109 0.0
H422 H 0.70667 0.45107 0.51031 0.0
H423 H 0.58543 0.45023 0.6806 0.0
O424 O 0.55836 0.44733 0.62774 0.0
H425 H 0.55236 0.34675 0.70251 0.0
H426 H 0.46701 0.35894 0.63265 0.0
H427 H 0.54949 0.38012 0.55921 0.0
H428 H 0.55604 0.36446 0.64528 0.0
H429 H 0.51661 0.39815 0.64638 0.0
O430 O 0.67056 0.47065 0.64289 0.0
H431 H 0.66215 0.43888 0.54173 0.0
H432 H 0.71061 0.51008 0.60662 0.0
H433 H 0.5003 0.34057 0.54465 0.0
H434 H 0.58176 0.43336 0.73822 0.0
H435 H 0.45864 0.32976 0.58152 0.0
H436 H 0.56526 0.38131 0.74946 0.0
O437 O 0.57892 0.43646 0.56822 0.0
H438 H 0.66103 0.55596 0.65089 0.0
H439 H 0.66491 0.50881 0.54731 0.0
H440 H 0.67504 0.55958 0.54589 0.0
H441 H 0.67315 0.58348 0.59797 0.0
H442 H 0.65084 0.50517 0.65112 0.0
H443 H 0.75573 0.52293 0.57611 0.0
H444 H 0.75389 0.49339 0.52748 0.0
O445 O 0.62665 0.45621 0.5569 0.0
C446 C 0.6154 0.39883 0.59846 0.0
C447 C 0.70772 0.46422 0.53134 0.0
C448 C 0.73527 0.50452 0.5683 0.0
N449 N 0.68373 0.47403 0.57562 0.0
C450 C 0.68257 0.4575 0.54911 0.0
C451 C 0.70966 0.49714 0.58548 0.0
C452 C 0.73422 0.48794 0.54101 0.0
C453 C 0.57788 0.42747 0.6853 0.0
N454 N 0.57082 0.40834 0.6596 0.0
C455 C 0.576 0.41808 0.71798 0.0
C456 C 0.56678 0.38888 0.72426 0.0
C457 C 0.55956 0.36948 0.69793 0.0
C458 C 0.56175 0.37966 0.66557 0.0
C459 C 0.485 0.36339 0.61643 0.0
C460 C 0.5315 0.37541 0.57549 0.0
C461 C 0.51312 0.38559 0.62405 0.0
N462 N 0.53595 0.39122 0.60377 0.0
C463 C 0.50368 0.35305 0.56706 0.0
C464 C 0.48032 0.34702 0.58774 0.0
C465 C 0.60024 0.44661 0.54803 0.0
C466 C 0.66201 0.54582 0.62806 0.0
C467 C 0.66398 0.51906 0.57005 0.0
C468 C 0.6698 0.54782 0.56911 0.0
C469 C 0.66876 0.56123 0.59835 0.0
N470 N 0.65743 0.50413 0.5993 0.0
C471 C 0.6564 0.51712 0.62806 0.0
Co472 Co 0.17975 0.65552 0.76326 0.0
Co473 Co 0.14841 0.58268 0.78408 0.0
O474 O 0.15405 0.62168 0.79028 0.0
C475 C 0.20082 0.67181 0.83155 0.0
O476 O 0.19749 0.64563 0.83344 0.0
C477 C 0.0893 0.57486 0.78429 0.0
O478 O 0.09883 0.59777 0.76498 0.0
O479 O 0.14131 0.58384 0.73603 0.0
O480 O 0.1662 0.63123 0.72159 0.0
H481 H 0.16196 0.50598 0.72738 0.0
H482 H 0.13976 0.65997 0.81095 0.0
O483 O 0.19444 0.68012 0.80473 0.0
H484 H 0.11146 0.67833 0.70128 0.0
H485 H 0.22863 0.7615 0.73169 0.0
H486 H 0.21852 0.66598 0.70574 0.0
H487 H 0.1522 0.66883 0.70683 0.0
H488 H 0.19597 0.71801 0.76469 0.0
O489 O 0.10615 0.56561 0.79329 0.0
H490 H 0.16961 0.55539 0.73581 0.0
H491 H 0.11337 0.52604 0.81926 0.0
H492 H 0.25122 0.70883 0.6719 0.0
H493 H 0.09902 0.66959 0.80658 0.0
H494 H 0.25644 0.75701 0.68483 0.0
H495 H 0.08459 0.67877 0.75141 0.0
O496 O 0.21204 0.64718 0.76726 0.0
H497 H 0.13584 0.59575 0.90506 0.0
H498 H 0.18627 0.56734 0.82359 0.0
H499 H 0.19659 0.56713 0.88306 0.0
H500 H 0.17126 0.58138 0.92425 0.0
H501 H 0.1264 0.59597 0.84534 0.0
H502 H 0.10491 0.47624 0.81158 0.0
H503 H 0.1294 0.46598 0.76543 0.0
O504 O 0.19048 0.59878 0.77494 0.0
C505 C 0.1513 0.60407 0.71434 0.0
C506 C 0.15125 0.51019 0.74765 0.0
C507 C 0.1192 0.4935 0.79487 0.0
N508 N 0.14216 0.54365 0.77816 0.0
C509 C 0.15558 0.53815 0.75261 0.0
C510 C 0.12403 0.52172 0.79906 0.0
C511 C 0.13295 0.48776 0.76898 0.0
C512 C 0.13378 0.66424 0.78691 0.0
N513 N 0.14839 0.66398 0.7592 0.0
C514 C 0.11062 0.66954 0.78457 0.0
C515 C 0.1025 0.67464 0.7536 0.0
C516 C 0.11756 0.67438 0.72545 0.0
C517 C 0.14056 0.66892 0.72874 0.0
C518 C 0.22649 0.74061 0.72576 0.0
C519 C 0.22052 0.68684 0.71135 0.0
C520 C 0.20808 0.71594 0.7444 0.0
N521 N 0.20518 0.68947 0.73694 0.0
C522 C 0.23914 0.71104 0.69218 0.0
C523 C 0.24208 0.73808 0.69947 0.0
C524 C 0.21285 0.62371 0.77021 0.0
C525 C 0.14693 0.58939 0.88735 0.0
C526 C 0.1752 0.57363 0.84135 0.0
C527 C 0.18109 0.57341 0.875 0.0
C528 C 0.16685 0.58138 0.8981 0.0
N529 N 0.15563 0.58152 0.83099 0.0
C530 C 0.14155 0.58932 0.85351 0.0
Co531 Co 0.5214 0.18522 0.93085 0.0
Co532 Co 0.55738 0.14795 0.9497 0.0
O533 O 0.52588 0.15635 0.95628 0.0
C534 C 0.5239 0.20254 1.00037 0.0
O535 O 0.54537 0.19718 1.00307 0.0
C536 C 0.50293 0.09107 0.94756 0.0
O537 O 0.49079 0.10337 0.93086 0.0
O538 O 0.54979 0.14312 0.90146 0.0
O539 O 0.53295 0.17329 0.88863 0.0
H540 H 0.64592 0.15711 0.89339 0.0
H541 H 0.47293 0.14463 0.97429 0.0
O542 O 0.51079 0.19849 0.97272 0.0
H543 H 0.43219 0.12551 0.86143 0.0
H544 H 0.47198 0.24187 0.90076 0.0
H545 H 0.55522 0.22768 0.87801 0.0
H546 H 0.4833 0.16317 0.8713 0.0
H547 H 0.47793 0.20501 0.93155 0.0
O548 O 0.52945 0.10561 0.9563 0.0
H549 H 0.60655 0.16815 0.90254 0.0
H550 H 0.57407 0.10809 0.98252 0.0
H551 H 0.55 0.26461 0.84642 0.0
H552 H 0.42162 0.10698 0.96561 0.0
H553 H 0.50812 0.27188 0.85774 0.0
H554 H 0.40097 0.09717 0.90882 0.0
O555 O 0.56248 0.21506 0.9385 0.0
H556 H 0.52902 0.13169 0.06986 0.0
H557 H 0.61054 0.18108 0.9912 0.0
H558 H 0.6201 0.18828 0.05117 0.0
H559 H 0.57917 0.16346 0.09096 0.0
H560 H 0.52037 0.12535 1.0097 0.0
H561 H 0.61296 0.09623 0.97408 0.0
H562 H 0.6493 0.12092 0.92933 0.0
O563 O 0.58623 0.19014 0.94307 0.0
C564 C 0.54253 0.15629 0.8805 0.0
C565 C 0.63029 0.1463 0.91306 0.0
C566 C 0.61177 0.1121 0.95832 0.0
N567 N 0.58823 0.13901 0.94325 0.0
C568 C 0.60801 0.15253 0.91842 0.0
C569 C 0.58977 0.11887 0.96295 0.0
C570 C 0.63215 0.12596 0.93321 0.0
C571 C 0.46399 0.14069 0.94957 0.0
N572 N 0.48103 0.15612 0.92335 0.0
C573 C 0.43497 0.11926 0.94478 0.0
C574 C 0.42342 0.11372 0.9129 0.0
C575 C 0.44094 0.12959 0.88629 0.0
C576 C 0.46988 0.15082 0.89201 0.0
C577 C 0.49025 0.23883 0.89551 0.0
C578 C 0.5368 0.23054 0.88283 0.0
C579 C 0.49374 0.21801 0.91287 0.0
N580 N 0.51668 0.21395 0.90623 0.0
C581 C 0.53402 0.25156 0.86497 0.0
C582 C 0.51054 0.25566 0.87137 0.0
C583 C 0.58571 0.21386 0.94102 0.0
C584 C 0.54705 0.14254 0.05278 0.0
C585 C 0.59259 0.17026 1.00834 0.0
C586 C 0.59815 0.17437 0.04228 0.0
C587 C 0.57518 0.16041 0.06459 0.0
N588 N 0.56493 0.1527 0.99694 0.0
C589 C 0.54231 0.1389 0.01867 0.0
Co590 Co 0.41318 0.56677 0.11913 0.0
Co591 Co 0.34036 0.52857 0.09765 0.0
O592 O 0.37329 0.53485 0.12497 0.0
C593 C 0.41601 0.51269 0.11821 0.0
O594 O 0.39224 0.50065 0.10031 0.0
C595 C 0.32439 0.53444 0.16591 0.0
O596 O 0.35115 0.55625 0.16832 0.0
O597 O 0.35133 0.57006 0.10133 0.0
O598 O 0.3995 0.59496 0.11088 0.0
H599 H 0.291 0.55087 1.00557 0.0
H600 H 0.39758 0.53002 0.17952 0.0
O601 O 0.42773 0.53921 0.12715 0.0
H602 H 0.43225 0.62991 0.2197 0.0
H603 H 0.51983 0.62376 0.14685 0.0
H604 H 0.443 0.61609 0.07209 0.0
H605 H 0.4316 0.62008 0.15994 0.0
H606 H 0.46901 0.58431 0.15397 0.0
O607 O 0.31573 0.5201 0.13888 0.0
H608 H 0.33266 0.55848 0.03981 0.0
H609 H 0.27704 0.48498 0.09874 0.0
H610 H 0.49347 0.65601 0.06424 0.0
H611 H 0.39813 0.53894 0.23948 0.0
H612 H 0.53231 0.66002 0.10179 0.0
H613 H 0.41544 0.58916 0.25992 0.0
O614 O 0.41177 0.5592 0.07093 0.0
H615 H 0.31921 0.43133 0.14186 0.0
H616 H 0.32512 0.48698 0.04147 0.0
H617 H 0.31216 0.4355 0.03637 0.0
H618 H 0.30909 0.40731 0.08683 0.0
H619 H 0.33236 0.48294 0.14578 0.0
H620 H 0.23471 0.4767 0.06533 0.0
H621 H 0.24159 0.50973 0.01828 0.0
O622 O 0.36466 0.53784 0.05613 0.0
C623 C 0.37532 0.59372 0.10523 0.0
C624 C 0.28774 0.53626 0.02593 0.0
C625 C 0.25614 0.49466 0.0595 0.0
N626 N 0.3073 0.52203 0.07102 0.0
C627 C 0.31126 0.54041 0.04532 0.0
C628 C 0.28016 0.49948 0.07836 0.0
C629 C 0.26002 0.51319 0.0331 0.0
C630 C 0.40549 0.55199 0.18822 0.0
N631 N 0.41471 0.57452 0.16625 0.0
C632 C 0.40561 0.55689 0.22221 0.0
C633 C 0.41528 0.58507 0.23365 0.0
C634 C 0.42468 0.60793 0.2111 0.0
C635 C 0.42421 0.60222 0.17728 0.0
C636 C 0.50309 0.62229 0.13038 0.0
C637 C 0.45973 0.61783 0.08869 0.0
C638 C 0.47429 0.59997 0.13426 0.0
N639 N 0.45302 0.59808 0.11366 0.0
C640 C 0.4883 0.64041 0.08405 0.0
C641 C 0.51008 0.64263 0.1051 0.0
C642 C 0.39175 0.54942 0.04911 0.0
C643 C 0.32037 0.44335 0.11971 0.0
C644 C 0.32393 0.47488 0.06352 0.0
C645 C 0.3165 0.44572 0.06049 0.0
C646 C 0.31476 0.42991 0.08882 0.0
N647 N 0.32937 0.48789 0.09391 0.0
C648 C 0.32767 0.47253 0.1218 0.0
Co649 Co 0.80562 0.33868 0.26314 0.0
Co650 Co 0.83904 0.41143 0.28269 0.0
O651 O 0.83173 0.37199 0.29051 0.0
C652 C 0.78559 0.32121 0.33151 0.0
O653 O 0.78883 0.34727 0.33473 0.0
C654 C 0.89719 0.41763 0.28997 0.0
O655 O 0.88912 0.39574 0.26939 0.0
O656 O 0.84997 0.40984 0.23611 0.0
O657 O 0.81864 0.36344 0.22176 0.0
H658 H 0.83365 0.48991 0.21892 0.0
H659 H 0.84596 0.33291 0.30893 0.0
O660 O 0.79142 0.31345 0.30399 0.0
H661 H 0.87214 0.31567 0.19745 0.0
H662 H 0.75562 0.23325 0.22904 0.0
H663 H 0.76532 0.32928 0.20768 0.0
H664 H 0.83201 0.32584 0.20503 0.0
H665 H 0.78921 0.2761 0.26228 0.0
O666 O 0.88009 0.42716 0.29678 0.0
H667 H 0.82346 0.43989 0.22976 0.0
H668 H 0.87251 0.46784 0.31869 0.0
H669 H 0.73166 0.2871 0.17365 0.0
H670 H 0.88608 0.32256 0.30253 0.0
H671 H 0.72666 0.23865 0.18426 0.0
H672 H 0.89944 0.31393 0.24644 0.0
O673 O 0.77406 0.34771 0.26896 0.0
H674 H 0.84161 0.39887 0.40578 0.0
H675 H 0.79926 0.42825 0.31553 0.0
H676 H 0.78465 0.42935 0.3732 0.0
H677 H 0.80592 0.41465 0.41881 0.0
H678 H 0.85531 0.39767 0.34773 0.0
H679 H 0.88341 0.51821 0.30869 0.0
H680 H 0.86382 0.52949 0.25856 0.0
O681 O 0.79789 0.39662 0.26874 0.0
C682 C 0.837 0.38997 0.21444 0.0
C683 C 0.84222 0.48526 0.24091 0.0
C684 C 0.87018 0.50115 0.29127 0.0
N685 N 0.84716 0.45091 0.27497 0.0
C686 C 0.83646 0.45696 0.24723 0.0
C687 C 0.86398 0.47259 0.29677 0.0
C688 C 0.85918 0.50746 0.26315 0.0
C689 C 0.85147 0.32888 0.28449 0.0
N690 N 0.8366 0.32984 0.25741 0.0
C691 C 0.87428 0.32316 0.281 0.0
C692 C 0.8818 0.31838 0.24952 0.0
C693 C 0.86651 0.31938 0.22201 0.0
C694 C 0.84386 0.32522 0.22645 0.0
C695 C 0.75769 0.25427 0.2241 0.0
C696 C 0.76345 0.30833 0.21222 0.0
C697 C 0.77665 0.27859 0.24285 0.0
N698 N 0.77948 0.30522 0.23661 0.0
C699 C 0.74427 0.2845 0.19297 0.0
C700 C 0.74145 0.25731 0.19897 0.0
C701 C 0.77458 0.37193 0.26749 0.0
C702 C 0.83227 0.40541 0.38613 0.0
C703 C 0.8085 0.42165 0.3352 0.0
C704 C 0.80022 0.42242 0.36783 0.0
C705 C 0.81219 0.41421 0.39342 0.0
N706 N 0.82818 0.41295 0.32823 0.0
C707 C 0.84007 0.40495 0.35321 0.0
H708 H 0.2687 0.60174 0.40849 0.0
H709 H 0.22401 0.64794 0.43566 0.0
H710 H 0.31499 0.64725 0.41037 0.0
H711 H 0.27024 0.6931 0.43914 0.0
H712 H 0.35363 0.77379 0.40947 0.0
H713 H 0.30777 0.7281 0.40559 0.0
H714 H 0.34858 0.68238 0.44741 0.0
H715 H 0.39471 0.72788 0.44975 0.0
C716 C 0.26883 0.62158 0.41526 0.0
C717 C 0.24279 0.62135 0.42186 0.0
C718 C 0.29534 0.64763 0.41649 0.0
C719 C 0.29634 0.67385 0.42486 0.0
C720 C 0.27024 0.67344 0.43192 0.0
C721 C 0.24373 0.64751 0.43016 0.0
C722 C 0.35276 0.75394 0.41774 0.0
C723 C 0.3777 0.75434 0.42983 0.0
C724 C 0.32646 0.72777 0.41572 0.0
C725 C 0.32446 0.70156 0.4263 0.0
C726 C 0.34946 0.70206 0.4385 0.0
C727 C 0.37586 0.72815 0.44001 0.0
H728 H 0.66356 0.26631 0.56676 0.0
H729 H 0.57498 0.21958 0.60268 0.0
H730 H 0.66221 0.31146 0.56726 0.0
H731 H 0.57405 0.26491 0.60456 0.0
H732 H 0.57185 0.34611 0.57704 0.0
H733 H 0.57314 0.30115 0.57115 0.0
H734 H 0.66221 0.3453 0.60548 0.0
H735 H 0.66128 0.39053 0.60999 0.0
C736 C 0.64386 0.26572 0.57496 0.0
C737 C 0.6194 0.23943 0.58477 0.0
C738 C 0.64314 0.29163 0.57541 0.0
C739 C 0.61808 0.29185 0.58609 0.0
C740 C 0.59354 0.26546 0.59567 0.0
C741 C 0.59413 0.23949 0.5948 0.0
C742 C 0.59175 0.34623 0.58316 0.0
C743 C 0.61646 0.37183 0.594 0.0
C744 C 0.59244 0.32042 0.57997 0.0
C745 C 0.61773 0.31957 0.58799 0.0
C746 C 0.64252 0.34528 0.59857 0.0
C747 C 0.64195 0.37119 0.60133 0.0
H748 H 0.26637 0.67092 0.7826 0.0
H749 H 0.22333 0.57997 0.75498 0.0
H750 H 0.31299 0.67233 0.78332 0.0
H751 H 0.26972 0.58166 0.75419 0.0
H752 H 0.34974 0.58248 0.787 0.0
H753 H 0.30505 0.58419 0.7912 0.0
H754 H 0.34858 0.67077 0.74872 0.0
H755 H 0.3938 0.66948 0.74609 0.0
C756 C 0.26695 0.65136 0.7763 0.0
C757 C 0.24125 0.62529 0.76893 0.0
C758 C 0.29363 0.65218 0.77662 0.0
C759 C 0.29505 0.62703 0.76916 0.0
C760 C 0.26934 0.60122 0.76097 0.0
C761 C 0.24274 0.60029 0.76114 0.0
C762 C 0.34979 0.60196 0.77884 0.0
C763 C 0.37507 0.62576 0.76601 0.0
C764 C 0.32416 0.60289 0.78102 0.0
C765 C 0.3231 0.62742 0.76973 0.0
C766 C 0.34871 0.65164 0.75786 0.0
C767 C 0.37456 0.65089 0.75625 0.0
H768 H 0.72104 0.39322 0.91732 0.0
H769 H 0.76669 0.35127 0.9559 0.0
H770 H 0.67534 0.34747 0.92122 0.0
H771 H 0.72078 0.30574 0.96125 0.0
H772 H 0.6398 0.22254 0.92754 0.0
H773 H 0.68553 0.26854 0.92722 0.0
H774 H 0.64034 0.31342 0.95804 0.0
H775 H 0.59447 0.2676 0.95684 0.0
C776 C 0.72122 0.37433 0.9272 0.0
C777 C 0.74743 0.37578 0.93618 0.0
C778 C 0.695 0.3481 0.92959 0.0
C779 C 0.69437 0.32287 0.94148 0.0
C780 C 0.72055 0.3246 0.95137 0.0
C781 C 0.74683 0.35073 0.94852 0.0
C782 C 0.63968 0.24224 0.93428 0.0
C783 C 0.61356 0.24153 0.94194 0.0
C784 C 0.66592 0.2686 0.93435 0.0
C785 C 0.66663 0.29472 0.94258 0.0
C786 C 0.64052 0.29382 0.95094 0.0
C787 C 0.61424 0.26754 0.95039 0.0
H788 H 0.32948 0.72635 0.06783 0.0
H789 H 0.41591 0.77401 0.10938 0.0
H790 H 0.3309 0.68135 0.07183 0.0
H791 H 0.41683 0.72883 0.11503 0.0
H792 H 0.42086 0.64752 0.09056 0.0
H793 H 0.42012 0.69276 0.08481 0.0
H794 H 0.32883 0.64756 0.11088 0.0
H795 H 0.32931 0.60207 0.11489 0.0
C796 C 0.34868 0.72712 0.07809 0.0
C797 C 0.37258 0.75362 0.0883 0.0
C798 C 0.34944 0.70132 0.08061 0.0
C799 C 0.37391 0.70141 0.09395 0.0
C800 C 0.39783 0.72801 0.10413 0.0
C801 C 0.39727 0.7539 0.10106 0.0
C802 C 0.40065 0.6473 0.09506 0.0
C803 C 0.37511 0.62128 0.103 0.0
C804 C 0.40025 0.67326 0.09196 0.0
C805 C 0.3744 0.67383 0.09732 0.0
C806 C 0.34897 0.64782 0.10585 0.0
C807 C 0.34926 0.62177 0.10837 0.0
H808 H 0.72035 0.32729 0.28254 0.0
H809 H 0.7661 0.41574 0.2457 0.0
H810 H 0.67466 0.32732 0.27947 0.0
H811 H 0.72031 0.41535 0.24116 0.0
H812 H 0.63875 0.41661 0.27136 0.0
H813 H 0.68431 0.41639 0.27435 0.0
H814 H 0.64024 0.32654 0.242 0.0
H815 H 0.59443 0.32642 0.24052 0.0
C816 C 0.72058 0.34661 0.2734 0.0
C817 C 0.74678 0.37154 0.26446 0.0
C818 C 0.69437 0.34658 0.27146 0.0
C819 C 0.69379 0.37134 0.26008 0.0
C820 C 0.72002 0.39611 0.25065 0.0
C821 C 0.74626 0.39628 0.25305 0.0
C822 C 0.63881 0.39682 0.2649 0.0
C823 C 0.61302 0.3715 0.25584 0.0
C824 C 0.66497 0.39673 0.2664 0.0
C825 C 0.66597 0.37145 0.25837 0.0
C826 C 0.64017 0.34622 0.24894 0.0
C827 C 0.61394 0.34619 0.24792 0.0
H828 H 0.12926 0.54898 0.6892 0.0
H829 H 0.16515 0.63874 0.6588 0.0
H830 H 0.12746 0.53456 0.63169 0.0
H831 H 0.16303 0.62402 0.60102 0.0
H832 H 0.12892 0.58176 0.49932 0.0
H833 H 0.12653 0.59401 0.55684 0.0
H834 H 0.16438 0.54236 0.58752 0.0
H835 H 0.1671 0.53015 0.52974 0.0
C836 C 0.1365 0.56568 0.67031 0.0
C837 C 0.14741 0.59514 0.67886 0.0
C838 C 0.13563 0.55734 0.63728 0.0
C839 C 0.14525 0.57812 0.61179 0.0
C840 C 0.15529 0.60744 0.6201 0.0
C841 C 0.15653 0.61589 0.65325 0.0
C842 C 0.13653 0.5727 0.51822 0.0
C843 C 0.14827 0.55492 0.50967 0.0
C844 C 0.13532 0.57996 0.55125 0.0
C845 C 0.14542 0.56934 0.57675 0.0
C846 C 0.15626 0.55078 0.56844 0.0
C847 C 0.15784 0.54379 0.53529 0.0
H848 H 0.56143 0.11007 0.67742 0.0
H849 H 0.63395 0.19667 0.69434 0.0
H850 H 0.54421 0.10909 0.73381 0.0
H851 H 0.6163 0.19577 0.75053 0.0
H852 H 0.55239 0.19485 0.83023 0.0
H853 H 0.56886 0.19373 0.77395 0.0
H854 H 0.56287 0.11106 0.79443 0.0
H855 H 0.54695 0.11232 0.85089 0.0
C856 C 0.57387 0.12877 0.69326 0.0
C857 C 0.59913 0.15343 0.68137 0.0
C858 C 0.56396 0.12818 0.72551 0.0
C859 C 0.57874 0.15246 0.74636 0.0
C860 C 0.60431 0.17688 0.7348 0.0
C861 C 0.61457 0.17726 0.70275 0.0
C862 C 0.55418 0.17624 0.82263 0.0
C863 C 0.54835 0.15368 0.84509 0.0
C864 C 0.5639 0.17576 0.79052 0.0
C865 C 0.5674 0.15244 0.77999 0.0
C866 C 0.56037 0.12929 0.80192 0.0
C867 C 0.55123 0.13004 0.83421 0.0
H868 H 0.35758 0.52913 0.99324 0.0
H869 H 0.44708 0.58145 0.02456 0.0
H870 H 0.37303 0.54136 0.93557 0.0
H871 H 0.46221 0.59375 0.96717 0.0
H872 H 0.4676 0.63809 0.86447 0.0
H873 H 0.45542 0.62345 0.92238 0.0
H874 H 0.40322 0.53363 0.89234 0.0
H875 H 0.41547 0.54791 0.83477 0.0
C876 C 0.38052 0.54295 0.98792 0.0
C877 C 0.40099 0.55424 0.01374 0.0
C878 C 0.38938 0.54994 0.95485 0.0
C879 C 0.41885 0.56868 0.94684 0.0
C880 C 0.43934 0.57953 0.97255 0.0
C881 C 0.43059 0.57225 1.00549 0.0
C882 C 0.45393 0.61517 0.8702 0.0
C883 C 0.4425 0.59429 0.84473 0.0
C884 C 0.44693 0.60678 0.90341 0.0
C885 C 0.42808 0.5774 0.91188 0.0
C886 C 0.41743 0.55647 0.88658 0.0
C887 C 0.42471 0.56474 0.85352 0.0
H888 H 0.79935 0.36317 0.1632 0.0
H889 H 0.883 0.43795 0.18609 0.0
H890 H 0.80243 0.38182 0.10715 0.0
H891 H 0.88627 0.45609 0.12949 0.0
H892 H 0.88375 0.44874 1.0088 0.0
H893 H 0.88554 0.43462 0.06613 0.0
H894 H 0.80511 0.43287 0.08698 0.0
H895 H 0.80358 0.44775 0.03015 0.0
C896 C 0.81865 0.38326 0.15613 0.0
C897 C 0.84094 0.39905 0.17917 0.0
C898 C 0.82026 0.39404 0.12413 0.0
C899 C 0.84445 0.4205 0.11421 0.0
C900 C 0.86737 0.43567 0.13662 0.0
C901 C 0.86548 0.42523 0.16893 0.0
C902 C 0.86681 0.44603 0.02581 0.0
C903 C 0.84351 0.44939 0.01482 0.0
C904 C 0.86783 0.43788 0.05856 0.0
C905 C 0.84527 0.43232 0.08072 0.0
C906 C 0.82262 0.43679 0.07021 0.0
C907 C 0.82192 0.44556 0.03773 0.0
H908 H 0.35919 0.79957 0.19356 0.0
H909 H 0.43228 0.88504 0.17299 0.0
H910 H 0.37842 0.80127 0.24904 0.0
H911 H 0.45114 0.88682 0.22863 0.0
H912 H 0.45227 0.88655 0.34569 0.0
H913 H 0.43575 0.8872 0.28944 0.0
H914 H 0.42502 0.80215 0.27162 0.0
H915 H 0.44203 0.80162 0.32778 0.0
C916 C 0.37902 0.81894 0.20104 0.0
C917 C 0.39412 0.8422 0.1788 0.0
C918 C 0.39022 0.81975 0.23268 0.0
C919 C 0.41646 0.84404 0.24302 0.0
C920 C 0.4309 0.8678 0.22134 0.0
C921 C 0.42003 0.86678 0.18951 0.0
C922 C 0.44699 0.86824 0.32957 0.0
C923 C 0.44859 0.84407 0.34125 0.0
C924 C 0.43744 0.8686 0.29738 0.0
C925 C 0.42873 0.84457 0.2763 0.0
C926 C 0.43125 0.82082 0.28751 0.0
C927 C 0.44135 0.82069 0.31953 0.0
H928 H 0.54215 0.43327 0.34175 0.0
H929 H 0.55124 0.35829 0.36234 0.0
H930 H 0.55691 0.45043 0.39858 0.0
H931 H 0.56671 0.37597 0.41877 0.0
H932 H 0.63095 0.44071 0.49728 0.0
H933 H 0.6145 0.42577 0.44044 0.0
H934 H 0.53662 0.42922 0.46077 0.0
H935 H 0.55258 0.44344 0.51802 0.0
C936 C 0.54696 0.42029 0.35848 0.0
C937 C 0.54544 0.39435 0.34753 0.0
C938 C 0.55546 0.43017 0.39093 0.0
C939 C 0.56326 0.41469 0.4128 0.0
C940 C 0.56108 0.38843 0.4022 0.0
C941 C 0.55195 0.37819 0.37001 0.0
C942 C 0.6106 0.43885 0.48955 0.0
C943 C 0.59308 0.44326 0.51224 0.0
C944 C 0.60107 0.43 0.4571 0.0
C945 C 0.57417 0.42605 0.44645 0.0
C946 C 0.55741 0.43207 0.46846 0.0
C947 C 0.56661 0.44027 0.50114 0.0
H948 H 0.93871 0.40121 0.28679 0.0
H949 H 0.91937 0.46324 0.33273 0.0
H950 H 0.98544 0.4236 0.31603 0.0
H951 H 0.96531 0.48494 0.36189 0.0
H952 H 0.06331 0.53988 0.37083 0.0
H953 H 0.01636 0.51425 0.34379 0.0
H954 H 0.00655 0.43184 0.37479 0.0
H955 H 0.05429 0.4577 0.40185 0.0
C956 C 0.94439 0.41954 0.30304 0.0
C957 C 0.92551 0.43068 0.3071 0.0
C958 C 0.97095 0.43213 0.31998 0.0
C959 C 0.979 0.45609 0.34103 0.0
C960 C 0.95986 0.46678 0.34544 0.0
C961 C 0.93348 0.45427 0.3287 0.0
C962 C 0.05119 0.5163 0.37209 0.0
C963 C 0.06245 0.5008 0.38862 0.0
C964 C 0.02422 0.50163 0.35666 0.0
C965 C 0.00779 0.47108 0.35731 0.0
C966 C 0.01892 0.45542 0.3738 0.0
C967 C 0.04603 0.4702 0.38952 0.0
H968 H 0.47093 0.94435 0.45648 0.0
H969 H 0.541 0.92738 0.4751 0.0
H970 H 0.49579 0.98892 0.48868 0.0
H971 H 0.56525 0.97108 0.50951 0.0
H972 H 0.61157 0.06639 0.54699 0.0
H973 H 0.59048 0.02198 0.5136 0.0
H974 H 0.50435 0.00264 0.54347 0.0
H975 H 0.52556 0.04793 0.57455 0.0
C976 C 0.49179 0.95034 0.46749 0.0
C977 C 0.50414 0.93263 0.46338 0.0
C978 C 0.50588 0.97564 0.4864 0.0
C979 C 0.53223 0.98332 0.50256 0.0
C980 C 0.5451 0.96601 0.49738 0.0
C981 C 0.53127 0.941 0.47766 0.0
C982 C 0.58817 0.05223 0.54671 0.0
C983 C 0.57007 0.06038 0.56309 0.0
C984 C 0.57603 0.02682 0.52758 0.0
C985 C 0.54562 0.00895 0.52512 0.0
C986 C 0.52779 0.01634 0.54364 0.0
C987 C 0.53987 0.04202 0.56193 0.0
H988 H 0.53029 0.59003 0.73618 0.0
H989 H 0.44785 0.52444 0.69563 0.0
H990 H 0.55447 0.56713 0.70786 0.0
H991 H 0.47198 0.5021 0.66724 0.0
H992 H 0.51799 0.45006 0.65616 0.0
H993 H 0.49604 0.47482 0.68398 0.0
H994 H 0.56585 0.55782 0.64981 0.0
H995 H 0.58834 0.53295 0.62206 0.0
C996 C 0.51735 0.57074 0.72135 0.0
C997 C 0.48714 0.5589 0.71837 0.0
C998 C 0.53122 0.55783 0.70493 0.0
C999 C 0.51506 0.5328 0.68547 0.0
C1000 C 0.48493 0.52114 0.68243 0.0
C1001 C 0.47113 0.53403 0.69865 0.0
C1002 C 0.52871 0.47359 0.65441 0.0
C1003 C 0.55484 0.48955 0.63673 0.0
C1004 C 0.51604 0.48775 0.67029 0.0
C1005 C 0.52918 0.51822 0.66893 0.0
C1006 C 0.55539 0.5343 0.65141 0.0
C1007 C 0.56808 0.52006 0.63531 0.0
H1008 H 0.05101 0.59539 0.78549 0.0
H1009 H 0.06099 0.52265 0.81557 0.0
H1010 H 0.00339 0.57278 0.81291 0.0
H1011 H 0.01419 0.50062 0.84308 0.0
H1012 H 0.91788 0.45399 0.85941 0.0
H1013 H 0.96286 0.47797 0.82814 0.0
H1014 H 0.98344 0.56066 0.87125 0.0
H1015 H 0.93772 0.53662 0.90243 0.0
C1016 C 0.04295 0.57452 0.79764 0.0
C1017 C 0.05968 0.56075 0.7983 0.0
C1018 C 0.0159 0.56176 0.81357 0.0
C1019 C 0.00511 0.53494 0.83007 0.0
C1020 C 0.02173 0.5211 0.83022 0.0
C1021 C 0.04865 0.53383 0.81455 0.0
C1022 C 0.93192 0.47729 0.86237 0.0
C1023 C 0.92438 0.49335 0.88377 0.0
C1024 C 0.95774 0.49101 0.84441 0.0
C1025 C 0.97674 0.52113 0.84743 0.0
C1026 C 0.96906 0.53742 0.8683 0.0
C1027 C 0.94307 0.52362 0.88637 0.0
H1028 H 0.5178 0.04944 0.95016 0.0
H1029 H 0.44932 0.06704 0.97589 0.0
H1030 H 0.49296 0.0035 0.97999 0.0
H1031 H 0.42519 0.02194 1.0081 0.0
H1032 H 0.37937 0.92651 0.04448 0.0
H1033 H 0.39953 0.97094 1.01111 0.0
H1034 H 0.48644 0.98879 0.03444 0.0
H1035 H 0.46608 0.94355 0.06549 0.0
C1036 C 0.49722 0.04321 0.9621 0.0
C1037 C 0.48534 0.06151 0.96079 0.0
C1038 C 0.48317 0.01714 0.97969 0.0
C1039 C 0.45743 0.00929 0.99739 0.0
C1040 C 0.44487 0.02713 0.99475 0.0
C1041 C 0.45862 0.05294 0.97629 0.0
C1042 C 0.40277 0.94029 0.04268 0.0
C1043 C 0.42128 0.93177 0.05729 0.0
C1044 C 0.41437 0.96572 0.02357 0.0
C1045 C 0.44467 0.98324 0.01936 0.0
C1046 C 0.46301 0.97537 0.03594 0.0
C1047 C 0.45143 0.94969 0.0542 0.0
H1048 H 0.47238 0.52816 0.12556 0.0
H1049 H 0.38507 0.45791 0.14359 0.0
H1050 H 0.49183 0.5021 0.15574 0.0
H1051 H 0.40421 0.43247 0.17619 0.0
H1052 H 0.45168 0.38459 0.21167 0.0
H1053 H 0.42911 0.40676 0.17906 0.0
H1054 H 0.49733 0.49224 0.20969 0.0
H1055 H 0.52068 0.46994 0.23985 0.0
C1056 C 0.45741 0.50699 0.13598 0.0
C1057 C 0.42735 0.49491 0.13231 0.0
C1058 C 0.46845 0.4922 0.15376 0.0
C1059 C 0.44962 0.46545 0.16931 0.0
C1060 C 0.41943 0.45289 0.1645 0.0
C1061 C 0.40841 0.4674 0.14583 0.0
C1062 C 0.46144 0.40809 0.21166 0.0
C1063 C 0.48784 0.42569 0.22802 0.0
C1064 C 0.44858 0.42085 0.19299 0.0
C1065 C 0.46168 0.4514 0.19103 0.0
C1066 C 0.48715 0.46873 0.20944 0.0
C1067 C 0.50034 0.45602 0.22722 0.0
H1068 H 0.2036 0.54813 0.29275 0.0
H1069 H 0.23642 0.50676 0.35797 0.0
H1070 H 0.22974 0.54227 0.24642 0.0
H1071 H 0.26314 0.50139 0.31145 0.0
H1072 H 0.33869 0.54673 0.23088 0.0
H1073 H 0.30661 0.54097 0.27712 0.0
H1074 H 0.23271 0.50263 0.21138 0.0
H1075 H 0.26485 0.50791 0.16495 0.0
C1076 C 0.21615 0.53747 0.2971 0.0
C1077 C 0.21807 0.52802 0.32903 0.0
C1078 C 0.23097 0.53397 0.2705 0.0
C1079 C 0.24851 0.52142 0.27532 0.0
C1080 C 0.24982 0.5112 0.30707 0.0
C1081 C 0.23446 0.51417 0.33362 0.0
C1082 C 0.31553 0.53668 0.22634 0.0
C1083 C 0.30429 0.52791 0.19424 0.0
C1084 C 0.29716 0.53321 0.25289 0.0
C1085 C 0.26718 0.52139 0.24786 0.0
C1086 C 0.25577 0.51188 0.21593 0.0
C1087 C 0.27412 0.5148 0.18942 0.0
H1088 H 0.74514 0.26338 0.32983 0.0
H1089 H 0.79933 0.33329 0.39635 0.0
H1090 H 0.72105 0.2315 0.37679 0.0
H1091 H 0.77752 0.30101 0.44349 0.0
H1092 H 0.70993 0.25003 0.52213 0.0
H1093 H 0.73813 0.28048 0.47613 0.0
H1094 H 0.71841 0.20321 0.41976 0.0
H1095 H 0.68801 0.17302 0.46511 0.0
C1096 C 0.7524 0.2716 0.35463 0.0
C1097 C 0.77386 0.30075 0.35959 0.0
C1098 C 0.73874 0.25327 0.38175 0.0
C1099 C 0.7469 0.26344 0.4145 0.0
C1100 C 0.76969 0.29236 0.41903 0.0
C1101 C 0.78256 0.3109 0.39196 0.0
C1102 C 0.71193 0.23966 0.49996 0.0
C1103 C 0.69678 0.20921 0.49712 0.0
C1104 C 0.72834 0.25713 0.47344 0.0
C1105 C 0.73081 0.24462 0.44364 0.0
C1106 C 0.71659 0.21395 0.44164 0.0
C1107 C 0.69939 0.1965 0.46782 0.0
H1108 H 0.41661 0.66092 0.64565 0.0
H1109 H 0.50416 0.72219 0.67733 0.0
H1110 H 0.42176 0.69247 0.59955 0.0
H1111 H 0.50933 0.75388 0.63008 0.0
H1112 H 0.50309 0.77616 0.51224 0.0
H1113 H 0.50548 0.749 0.56044 0.0
H1114 H 0.429 0.74602 0.60119 0.0
H1115 H 0.4267 0.77315 0.55402 0.0
C1116 C 0.4371 0.68105 0.64272 0.0
C1117 C 0.45991 0.68911 0.66546 0.0
C1118 C 0.43997 0.69914 0.61623 0.0
C1119 C 0.46585 0.72565 0.61139 0.0
C1120 C 0.48917 0.73348 0.63331 0.0
C1121 C 0.48614 0.71544 0.66035 0.0
C1122 C 0.48706 0.77003 0.53174 0.0
C1123 C 0.46451 0.77656 0.52902 0.0
C1124 C 0.48852 0.75463 0.55932 0.0
C1125 C 0.46727 0.74526 0.58432 0.0
C1126 C 0.4455 0.75276 0.58212 0.0
C1127 C 0.44422 0.76832 0.55498 0.0
H1128 H 0.75617 0.41672 0.81014 0.0
H1129 H 0.77346 0.50118 0.8444 0.0
H1130 H 0.72837 0.41952 0.76408 0.0
H1131 H 0.74556 0.50398 0.79735 0.0
H1132 H 0.71567 0.49907 0.68192 0.0
H1133 H 0.74673 0.50294 0.72905 0.0
H1134 H 0.67909 0.41992 0.7656 0.0
H1135 H 0.64814 0.41608 0.71944 0.0
C1136 C 0.75428 0.43605 0.80776 0.0
C1137 C 0.76683 0.45861 0.83124 0.0
C1138 C 0.73827 0.43757 0.78132 0.0
C1139 C 0.73462 0.46182 0.77737 0.0
C1140 C 0.74811 0.48505 0.79991 0.0
C1141 C 0.76395 0.48338 0.82682 0.0
C1142 C 0.70737 0.48184 0.70025 0.0
C1143 C 0.67953 0.45714 0.6967 0.0
C1144 C 0.72509 0.48412 0.7272 0.0
C1145 C 0.71535 0.46158 0.75069 0.0
C1146 C 0.68724 0.43744 0.74762 0.0
C1147 C 0.66951 0.43532 0.72113 0.0
H1148 H 0.25993 0.757 0.0249 0.0
H1149 H 0.33398 0.79295 0.95908 0.0
H1150 H 0.22787 0.73094 0.97818 0.0
H1151 H 0.30198 0.76737 0.91255 0.0
H1152 H 0.2325 0.73161 0.83137 0.0
H1153 H 0.25895 0.76354 0.87816 0.0
H1154 H 0.22457 0.6887 0.94279 0.0
H1155 H 0.1987 0.65691 0.89623 0.0
C1156 C 0.26927 0.75978 1.0004 0.0
C1157 C 0.29949 0.77684 0.9957 0.0
C1158 C 0.25096 0.7448 0.97371 0.0
C1159 C 0.26244 0.74711 0.94172 0.0
C1160 C 0.29246 0.76536 0.93682 0.0
C1161 C 0.3108 0.77985 0.96353 0.0
C1162 C 0.23025 0.72211 0.8557 0.0
C1163 C 0.21369 0.69177 0.86012 0.0
C1164 C 0.24546 0.74033 0.8824 0.0
C1165 C 0.24383 0.72859 0.91412 0.0
C1166 C 0.22606 0.69842 0.91875 0.0
C1167 C 0.21139 0.6802 0.89202 0.0
H1168 H 0.53817 0.33642 0.12779 0.0
H1169 H 0.49631 0.26176 0.1927 0.0
H1170 H 0.53178 0.30439 0.08126 0.0
H1171 H 0.49029 0.22967 0.14599 0.0
H1172 H 0.53486 0.19904 0.06544 0.0
H1173 H 0.52906 0.22516 0.11185 0.0
H1174 H 0.49234 0.26236 0.0461 0.0
H1175 H 0.49776 0.23582 0.9995 0.0
C1176 C 0.52729 0.31311 0.13202 0.0
C1177 C 0.51789 0.3016 0.16392 0.0
C1178 C 0.52346 0.29478 0.10532 0.0
C1179 C 0.51059 0.26456 0.11003 0.0
C1180 C 0.50037 0.25291 0.14173 0.0
C1181 C 0.50371 0.27124 0.16838 0.0
C1182 C 0.52511 0.21242 0.06095 0.0
C1183 C 0.51692 0.21553 0.02881 0.0
C1184 C 0.52163 0.22722 0.08757 0.0
C1185 C 0.51032 0.24584 0.08255 0.0
C1186 C 0.50121 0.24822 0.0506 0.0
C1187 C 0.5042 0.23296 0.02401 0.0
loop_
_geom_bond_atom_site_label_1
_geom_bond_atom_site_label_2
_geom_bond_distance
_geom_bond_site_symmetry_2
_ccdc_geom_bond_type
Co0 O2 2.143 . S
Co0 O8 2.074 . S
Co0 O11 2.093 . S
Co0 O24 2.097 . S
Co0 N41 2.151 . S
Co0 N49 2.214 . S
Co1 O2 2.160 . S
Co1 O7 2.058 . S
Co1 O17 2.057 . S
Co1 O32 2.037 . S
Co1 N36 2.145 . S
Co1 N57 2.257 . S
O2 Co0 2.143 . S
O2 Co1 2.160 . S
C3 O4 1.278 . S
C3 O11 1.224 . S
O4 C3 1.278 . S
C5 O6 1.245 . S
C5 O17 1.232 . S
O6 C5 1.245 . S
O7 Co1 2.058 . S
O7 C33 1.269 . S
O8 Co0 2.074 . S
O8 C33 1.257 . S
H9 C34 0.930 . S
H10 C40 0.930 . S
O11 Co0 2.093 . S
O11 C3 1.224 . S
H12 C44 0.929 . S
H13 C46 0.930 . S
H14 C47 0.930 . S
H15 C45 0.929 . S
H16 C48 0.928 . S
O17 Co1 2.057 . S
O17 C5 1.232 . S
H18 C37 0.929 . S
H19 C38 0.929 . S
H20 C50 0.931 . S
H21 C42 0.929 . S
H22 C51 0.930 . S
H23 C43 0.931 . S
O24 Co0 2.097 . S
O24 C52 1.214 . S
H25 C53 0.929 . S
H26 C54 0.929 . S
H27 C55 0.930 . S
H28 C56 0.929 . S
H29 C58 0.930 . S
H30 C35 0.930 . S
H31 C39 0.930 . S
O32 Co1 2.037 . S
O32 C52 1.234 . S
C33 O7 1.269 . S
C33 O8 1.257 . S
C34 H9 0.930 . S
C34 C37 1.388 . S
C34 C39 1.418 . S
C35 H30 0.930 . S
C35 C38 1.404 . S
C35 C39 1.353 . S
N36 Co1 2.145 . S
N36 C37 1.397 . S
N36 C38 1.334 . S
C37 H18 0.929 . S
C37 C34 1.388 . S
C37 N36 1.397 . S
C38 H19 0.929 . S
C38 C35 1.404 . S
C38 N36 1.334 . S
C39 H31 0.930 . S
C39 C34 1.418 . S
C39 C35 1.353 . S
C40 H10 0.930 . S
C40 N41 1.330 . S
C40 C42 1.446 . S
N41 Co0 2.151 . S
N41 C40 1.330 . S
N41 C45 1.418 . S
C42 H21 0.929 . S
C42 C40 1.446 . S
C42 C43 1.332 . S
C43 H23 0.931 . S
C43 C42 1.332 . S
C43 C44 1.267 . S
C44 H12 0.929 . S
C44 C43 1.267 . S
C44 C45 1.251 . S
C45 H15 0.929 . S
C45 N41 1.418 . S
C45 C44 1.251 . S
C46 H13 0.930 . S
C46 C48 1.406 . S
C46 C51 1.261 . S
C47 H14 0.930 . S
C47 N49 1.325 . S
C47 C50 1.357 . S
C48 H16 0.928 . S
C48 C46 1.406 . S
C48 N49 1.261 . S
N49 Co0 2.214 . S
N49 C47 1.325 . S
N49 C48 1.261 . S
C50 H20 0.931 . S
C50 C47 1.357 . S
C50 C51 1.312 . S
C51 H22 0.930 . S
C51 C46 1.261 . S
C51 C50 1.312 . S
C52 O24 1.214 . S
C52 O32 1.234 . S
C53 H25 0.929 . S
C53 C56 1.391 . S
C53 C58 1.391 . S
C54 H26 0.929 . S
C54 C55 1.390 . S
C54 N57 1.391 . S
C55 H27 0.930 . S
C55 C54 1.390 . S
C55 C56 1.392 . S
C56 H28 0.929 . S
C56 C53 1.391 . S
C56 C55 1.392 . S
N57 Co1 2.257 . S
N57 C54 1.391 . S
N57 C58 1.388 . S
C58 H29 0.930 . S
C58 C53 1.391 . S
C58 N57 1.388 . S
Co59 O61 2.143 . S
Co59 O67 2.074 . S
Co59 O70 2.093 . S
Co59 O83 2.097 . S
Co59 N100 2.151 . S
Co59 N108 2.214 . S
Co60 O61 2.160 . S
Co60 O66 2.058 . S
Co60 O76 2.057 . S
Co60 O91 2.037 . S
Co60 N95 2.145 . S
Co60 N116 2.257 . S
O61 Co59 2.143 . S
O61 Co60 2.160 . S
C62 O63 1.278 . S
C62 O70 1.224 . S
O63 C62 1.278 . S
C64 O65 1.245 . S
C64 O76 1.232 . S
O65 C64 1.245 . S
O66 Co60 2.058 . S
O66 C92 1.269 . S
O67 Co59 2.074 . S
O67 C92 1.257 . S
H68 C93 0.930 . S
H69 C99 0.930 . S
O70 Co59 2.093 . S
O70 C62 1.224 . S
H71 C103 0.929 . S
H72 C105 0.930 . S
H73 C106 0.930 . S
H74 C104 0.929 . S
H75 C107 0.928 . S
O76 Co60 2.057 . S
O76 C64 1.232 . S
H77 C96 0.929 . S
H78 C97 0.929 . S
H79 C109 0.931 . S
H80 C101 0.929 . S
H81 C110 0.930 . S
H82 C102 0.931 . S
O83 Co59 2.097 . S
O83 C111 1.214 . S
H84 C112 0.929 . S
H85 C113 0.929 . S
H86 C114 0.930 . S
H87 C115 0.929 . S
H88 C117 0.930 . S
H89 C94 0.930 . S
H90 C98 0.930 . S
O91 Co60 2.037 . S
O91 C111 1.234 . S
C92 O66 1.269 . S
C92 O67 1.257 . S
C93 H68 0.930 . S
C93 C96 1.388 . S
C93 C98 1.418 . S
C94 H89 0.930 . S
C94 C97 1.404 . S
C94 C98 1.353 . S
N95 Co60 2.145 . S
N95 C96 1.397 . S
N95 C97 1.334 . S
C96 H77 0.929 . S
C96 C93 1.388 . S
C96 N95 1.397 . S
C97 H78 0.929 . S
C97 C94 1.404 . S
C97 N95 1.334 . S
C98 H90 0.930 . S
C98 C93 1.418 . S
C98 C94 1.353 . S
C99 H69 0.930 . S
C99 N100 1.330 . S
C99 C101 1.446 . S
N100 Co59 2.151 . S
N100 C99 1.330 . S
N100 C104 1.418 . S
C101 H80 0.929 . S
C101 C99 1.446 . S
C101 C102 1.332 . S
C102 H82 0.931 . S
C102 C101 1.332 . S
C102 C103 1.267 . S
C103 H71 0.929 . S
C103 C102 1.267 . S
C103 C104 1.251 . S
C104 H74 0.929 . S
C104 N100 1.418 . S
C104 C103 1.251 . S
C105 H72 0.930 . S
C105 C107 1.406 . S
C105 C110 1.261 . S
C106 H73 0.930 . S
C106 N108 1.325 . S
C106 C109 1.357 . S
C107 H75 0.928 . S
C107 C105 1.406 . S
C107 N108 1.261 . S
N108 Co59 2.214 . S
N108 C106 1.325 . S
N108 C107 1.261 . S
C109 H79 0.931 . S
C109 C106 1.357 . S
C109 C110 1.312 . S
C110 H81 0.930 . S
C110 C105 1.261 . S
C110 C109 1.312 . S
C111 O83 1.214 . S
C111 O91 1.234 . S
C112 H84 0.929 . S
C112 C115 1.391 . S
C112 C117 1.391 . S
C113 H85 0.929 . S
C113 C114 1.390 . S
C113 N116 1.391 . S
C114 H86 0.930 . S
C114 C113 1.390 . S
C114 C115 1.392 . S
C115 H87 0.929 . S
C115 C112 1.391 . S
C115 C114 1.392 . S
N116 Co60 2.257 . S
N116 C113 1.391 . S
N116 C117 1.388 . S
C117 H88 0.930 . S
C117 C112 1.391 . S
C117 N116 1.388 . S
Co118 O120 2.143 . S
Co118 O126 2.074 . S
Co118 O129 2.093 . S
Co118 O142 2.097 . S
Co118 N159 2.151 . S
Co118 N167 2.214 . S
Co119 O120 2.160 . S
Co119 O125 2.058 . S
Co119 O135 2.057 . S
Co119 O150 2.037 . S
Co119 N154 2.145 . S
Co119 N175 2.257 . S
O120 Co118 2.143 . S
O120 Co119 2.160 . S
C121 O122 1.278 . S
C121 O129 1.224 . S
O122 C121 1.278 . S
C123 O124 1.245 . S
C123 O135 1.232 . S
O124 C123 1.245 . S
O125 Co119 2.058 . S
O125 C151 1.269 . S
O126 Co118 2.074 . S
O126 C151 1.257 . S
H127 C152 0.930 . S
H128 C158 0.930 . S
O129 Co118 2.093 . S
O129 C121 1.224 . S
H130 C162 0.929 . S
H131 C164 0.930 . S
H132 C165 0.930 . S
H133 C163 0.929 . S
H134 C166 0.928 . S
O135 Co119 2.057 . S
O135 C123 1.232 . S
H136 C155 0.929 . S
H137 C156 0.929 . S
H138 C168 0.931 . S
H139 C160 0.929 . S
H140 C169 0.930 . S
H141 C161 0.931 . S
O142 Co118 2.097 . S
O142 C170 1.214 . S
H143 C171 0.929 . S
H144 C172 0.929 . S
H145 C173 0.930 . S
H146 C174 0.929 . S
H147 C176 0.930 . S
H148 C153 0.930 . S
H149 C157 0.930 . S
O150 Co119 2.037 . S
O150 C170 1.234 . S
C151 O125 1.269 . S
C151 O126 1.257 . S
C152 H127 0.930 . S
C152 C155 1.388 . S
C152 C157 1.418 . S
C153 H148 0.930 . S
C153 C156 1.404 . S
C153 C157 1.353 . S
N154 Co119 2.145 . S
N154 C155 1.397 . S
N154 C156 1.334 . S
C155 H136 0.929 . S
C155 C152 1.388 . S
C155 N154 1.397 . S
C156 H137 0.929 . S
C156 C153 1.404 . S
C156 N154 1.334 . S
C157 H149 0.930 . S
C157 C152 1.418 . S
C157 C153 1.353 . S
C158 H128 0.930 . S
C158 N159 1.330 . S
C158 C160 1.446 . S
N159 Co118 2.151 . S
N159 C158 1.330 . S
N159 C163 1.418 . S
C160 H139 0.929 . S
C160 C158 1.446 . S
C160 C161 1.332 . S
C161 H141 0.931 . S
C161 C160 1.332 . S
C161 C162 1.267 . S
C162 H130 0.929 . S
C162 C161 1.267 . S
C162 C163 1.251 . S
C163 H133 0.929 . S
C163 N159 1.418 . S
C163 C162 1.251 . S
C164 H131 0.930 . S
C164 C166 1.406 . S
C164 C169 1.261 . S
C165 H132 0.930 . S
C165 N167 1.325 . S
C165 C168 1.357 . S
C166 H134 0.928 . S
C166 C164 1.406 . S
C166 N167 1.261 . S
N167 Co118 2.214 . S
N167 C165 1.325 . S
N167 C166 1.261 . S
C168 H138 0.931 . S
C168 C165 1.357 . S
C168 C169 1.312 . S
C169 H140 0.930 . S
C169 C164 1.261 . S
C169 C168 1.312 . S
C170 O142 1.214 . S
C170 O150 1.234 . S
C171 H143 0.929 . S
C171 C174 1.391 . S
C171 C176 1.391 . S
C172 H144 0.929 . S
C172 C173 1.390 . S
C172 N175 1.391 . S
C173 H145 0.930 . S
C173 C172 1.390 . S
C173 C174 1.392 . S
C174 H146 0.929 . S
C174 C171 1.391 . S
C174 C173 1.392 . S
N175 Co119 2.257 . S
N175 C172 1.391 . S
N175 C176 1.388 . S
C176 H147 0.930 . S
C176 C171 1.391 . S
C176 N175 1.388 . S
Co177 O179 2.143 . S
Co177 O185 2.074 . S
Co177 O188 2.093 . S
Co177 O201 2.097 . S
Co177 N218 2.151 . S
Co177 N226 2.214 . S
Co178 O179 2.160 . S
Co178 O184 2.058 . S
Co178 O194 2.057 . S
Co178 O209 2.037 . S
Co178 N213 2.145 . S
Co178 N234 2.257 . S
O179 Co177 2.143 . S
O179 Co178 2.160 . S
C180 O181 1.278 . S
C180 O188 1.224 . S
O181 C180 1.278 . S
C182 O183 1.245 . S
C182 O194 1.232 . S
O183 C182 1.245 . S
O184 Co178 2.058 . S
O184 C210 1.269 . S
O185 Co177 2.074 . S
O185 C210 1.257 . S
H186 C211 0.943 . S
H187 C217 0.930 . S
O188 Co177 2.093 . S
O188 C180 1.224 . S
H189 C221 0.929 . S
H190 C223 0.930 . S
H191 C224 0.930 . S
H192 C222 0.929 . S
H193 C225 0.928 . S
O194 Co178 2.057 . S
O194 C182 1.232 . S
H195 C214 0.929 . S
H196 C215 0.929 . S
H197 C227 0.931 . S
H198 C219 0.929 . S
H199 C228 0.930 . S
H200 C220 0.931 . S
O201 Co177 2.097 . S
O201 C229 1.214 . S
H202 C230 0.929 . S
H203 C231 0.929 . S
H204 C232 0.930 . S
H205 C233 0.929 . S
H206 C235 0.930 . S
H207 C212 0.930 . S
H208 C216 0.930 . S
O209 Co178 2.037 . S
O209 C229 1.234 . S
C210 O184 1.269 . S
C210 O185 1.257 . S
C211 H186 0.943 . S
C211 C214 1.388 . S
C211 C216 1.418 . S
C212 H207 0.930 . S
C212 C215 1.404 . S
C212 C216 1.353 . S
N213 Co178 2.145 . S
N213 C214 1.397 . S
N213 C215 1.334 . S
C214 H195 0.929 . S
C214 C211 1.388 . S
C214 N213 1.397 . S
C215 H196 0.929 . S
C215 C212 1.404 . S
C215 N213 1.334 . S
C216 H208 0.930 . S
C216 C211 1.418 . S
C216 C212 1.353 . S
C217 H187 0.930 . S
C217 N218 1.330 . S
C217 C219 1.446 . S
N218 Co177 2.151 . S
N218 C217 1.330 . S
N218 C222 1.418 . S
C219 H198 0.929 . S
C219 C217 1.446 . S
C219 C220 1.332 . S
C220 H200 0.931 . S
C220 C219 1.332 . S
C220 C221 1.267 . S
C221 H189 0.929 . S
C221 C220 1.267 . S
C221 C222 1.251 . S
C222 H192 0.929 . S
C222 N218 1.418 . S
C222 C221 1.251 . S
C223 H190 0.930 . S
C223 C225 1.406 . S
C223 C228 1.261 . S
C224 H191 0.930 . S
C224 N226 1.325 . S
C224 C227 1.357 . S
C225 H193 0.928 . S
C225 C223 1.406 . S
C225 N226 1.261 . S
N226 Co177 2.214 . S
N226 C224 1.325 . S
N226 C225 1.261 . S
C227 H197 0.931 . S
C227 C224 1.357 . S
C227 C228 1.312 . S
C228 H199 0.930 . S
C228 C223 1.261 . S
C228 C227 1.312 . S
C229 O201 1.214 . S
C229 O209 1.234 . S
C230 H202 0.929 . S
C230 C233 1.391 . S
C230 C235 1.391 . S
C231 H203 0.929 . S
C231 C232 1.390 . S
C231 N234 1.391 . S
C232 H204 0.930 . S
C232 C231 1.390 . S
C232 C233 1.392 . S
C233 H205 0.929 . S
C233 C230 1.391 . S
C233 C232 1.392 . S
N234 Co178 2.257 . S
N234 C231 1.391 . S
N234 C235 1.388 . S
C235 H206 0.930 . S
C235 C230 1.391 . S
C235 N234 1.388 . S
Co236 O238 2.143 . S
Co236 O244 2.074 . S
Co236 O247 2.093 . S
Co236 O260 2.097 . S
Co236 N277 2.151 . S
Co236 N285 2.214 . S
Co237 O238 2.160 . S
Co237 O243 2.058 . S
Co237 O253 2.057 . S
Co237 O268 2.037 . S
Co237 N272 2.145 . S
Co237 N293 2.257 . S
O238 Co236 2.143 . S
O238 Co237 2.160 . S
C239 O240 1.272 1_554 S
C239 O247 1.224 . S
O240 C239 1.272 1_556 S
C241 O242 1.245 . S
C241 O253 1.232 . S
O242 C241 1.245 . S
O243 Co237 2.058 . S
O243 C269 1.269 . S
O244 Co236 2.074 . S
O244 C269 1.257 . S
H245 C270 0.930 . S
H246 C276 0.930 . S
O247 Co236 2.093 . S
O247 C239 1.224 . S
H248 C280 0.929 . S
H249 C282 0.930 . S
H250 C283 0.930 . S
H251 C281 0.929 . S
H252 C284 0.928 . S
O253 Co237 2.057 . S
O253 C241 1.232 . S
H254 C273 0.929 . S
H255 C274 0.929 . S
H256 C286 0.931 . S
H257 C278 0.929 . S
H258 C287 0.930 . S
H259 C279 0.931 . S
O260 Co236 2.097 . S
O260 C288 1.214 . S
H261 C289 0.929 . S
H262 C290 0.929 . S
H263 C291 0.930 . S
H264 C292 0.929 . S
H265 C294 0.930 . S
H266 C271 0.930 . S
H267 C275 0.930 . S
O268 Co237 2.037 . S
O268 C288 1.234 . S
C269 O243 1.269 . S
C269 O244 1.257 . S
C270 H245 0.930 . S
C270 C273 1.388 . S
C270 C275 1.418 . S
C271 H266 0.930 . S
C271 C274 1.404 . S
C271 C275 1.353 . S
N272 Co237 2.145 . S
N272 C273 1.397 . S
N272 C274 1.334 . S
C273 H254 0.929 . S
C273 C270 1.388 . S
C273 N272 1.397 . S
C274 H255 0.929 . S
C274 C271 1.404 . S
C274 N272 1.334 . S
C275 H267 0.930 . S
C275 C270 1.418 . S
C275 C271 1.353 . S
C276 H246 0.930 . S
C276 N277 1.330 . S
C276 C278 1.446 . S
N277 Co236 2.151 . S
N277 C276 1.330 . S
N277 C281 1.418 . S
C278 H257 0.929 . S
C278 C276 1.446 . S
C278 C279 1.332 . S
C279 H259 0.931 . S
C279 C278 1.332 . S
C279 C280 1.267 . S
C280 H248 0.929 . S
C280 C279 1.267 . S
C280 C281 1.251 . S
C281 H251 0.929 . S
C281 N277 1.418 . S
C281 C280 1.251 . S
C282 H249 0.930 . S
C282 C284 1.406 . S
C282 C287 1.261 . S
C283 H250 0.930 . S
C283 N285 1.325 . S
C283 C286 1.357 . S
C284 H252 0.928 . S
C284 C282 1.406 . S
C284 N285 1.261 . S
N285 Co236 2.214 . S
N285 C283 1.325 . S
N285 C284 1.261 . S
C286 H256 0.931 . S
C286 C283 1.357 . S
C286 C287 1.312 . S
C287 H258 0.930 . S
C287 C282 1.261 . S
C287 C286 1.312 . S
C288 O260 1.214 . S
C288 O268 1.234 . S
C289 H261 0.929 . S
C289 C292 1.391 . S
C289 C294 1.391 . S
C290 H262 0.929 . S
C290 C291 1.390 1_554 S
C290 N293 1.391 . S
C291 H263 0.930 . S
C291 C290 1.390 1_556 S
C291 C292 1.392 . S
C292 H264 0.929 . S
C292 C289 1.391 . S
C292 C291 1.392 . S
N293 Co237 2.257 . S
N293 C290 1.391 . S
N293 C294 1.388 1_554 S
C294 H265 0.930 . S
C294 C289 1.391 . S
C294 N293 1.388 1_556 S
Co295 O297 2.143 . S
Co295 O303 2.074 . S
Co295 O306 2.093 . S
Co295 O319 2.097 . S
Co295 N336 2.151 . S
Co295 N344 2.214 . S
Co296 O297 2.160 . S
Co296 O302 2.058 . S
Co296 O312 2.057 . S
Co296 O327 2.037 . S
Co296 N331 2.145 . S
Co296 N352 2.257 . S
O297 Co295 2.143 . S
O297 Co296 2.160 . S
C298 O299 1.278 . S
C298 O306 1.224 . S
O299 C298 1.278 . S
C300 O301 1.245 . S
C300 O312 1.232 . S
O301 C300 1.245 . S
O302 Co296 2.058 . S
O302 C328 1.269 . S
O303 Co295 2.074 . S
O303 C328 1.257 . S
H304 C329 0.930 . S
H305 C335 0.930 . S
O306 Co295 2.093 . S
O306 C298 1.224 . S
H307 C339 0.929 . S
H308 C341 0.930 . S
H309 C342 0.930 . S
H310 C340 0.929 . S
H311 C343 0.928 . S
O312 Co296 2.057 . S
O312 C300 1.232 . S
H313 C332 0.929 . S
H314 C333 0.929 . S
H315 C345 0.931 . S
H316 C337 0.929 . S
H317 C346 0.930 . S
H318 C338 0.931 . S
O319 Co295 2.097 . S
O319 C347 1.214 . S
H320 C348 0.929 . S
H321 C349 0.929 . S
H322 C350 0.930 . S
H323 C351 0.929 . S
H324 C353 0.930 . S
H325 C330 0.930 . S
H326 C334 0.930 . S
O327 Co296 2.037 . S
O327 C347 1.234 . S
C328 O302 1.269 . S
C328 O303 1.257 . S
C329 H304 0.930 . S
C329 C332 1.388 . S
C329 C334 1.418 . S
C330 H325 0.930 . S
C330 C333 1.404 . S
C330 C334 1.353 . S
N331 Co296 2.145 . S
N331 C332 1.397 . S
N331 C333 1.334 . S
C332 H313 0.929 . S
C332 C329 1.388 . S
C332 N331 1.397 . S
C333 H314 0.929 . S
C333 C330 1.404 . S
C333 N331 1.334 . S
C334 H326 0.930 . S
C334 C329 1.418 . S
C334 C330 1.353 . S
C335 H305 0.930 . S
C335 N336 1.330 . S
C335 C337 1.446 . S
N336 Co295 2.151 . S
N336 C335 1.330 . S
N336 C340 1.418 . S
C337 H316 0.929 . S
C337 C335 1.446 . S
C337 C338 1.332 . S
C338 H318 0.931 . S
C338 C337 1.332 . S
C338 C339 1.267 . S
C339 H307 0.929 . S
C339 C338 1.267 . S
C339 C340 1.251 . S
C340 H310 0.929 . S
C340 N336 1.418 . S
C340 C339 1.251 . S
C341 H308 0.930 . S
C341 C343 1.406 . S
C341 C346 1.261 . S
C342 H309 0.930 . S
C342 N344 1.325 . S
C342 C345 1.357 . S
C343 H311 0.928 . S
C343 C341 1.406 . S
C343 N344 1.261 . S
N344 Co295 2.214 . S
N344 C342 1.325 . S
N344 C343 1.261 . S
C345 H315 0.931 . S
C345 C342 1.357 . S
C345 C346 1.312 . S
C346 H317 0.930 . S
C346 C341 1.261 . S
C346 C345 1.312 . S
C347 O319 1.214 . S
C347 O327 1.234 . S
C348 H320 0.929 . S
C348 C351 1.391 . S
C348 C353 1.391 . S
C349 H321 0.929 . S
C349 C350 1.390 . S
C349 N352 1.391 . S
C350 H322 0.930 . S
C350 C349 1.390 . S
C350 C351 1.392 . S
C351 H323 0.929 . S
C351 C348 1.391 . S
C351 C350 1.392 . S
N352 Co296 2.257 . S
N352 C349 1.391 . S
N352 C353 1.388 . S
C353 H324 0.930 . S
C353 C348 1.391 . S
C353 N352 1.388 . S
Co354 O356 2.143 . S
Co354 O362 2.074 . S
Co354 O365 2.093 . S
Co354 O378 2.097 . S
Co354 N395 2.151 . S
Co354 N403 2.214 . S
Co355 O356 2.160 . S
Co355 O361 2.058 . S
Co355 O371 2.057 . S
Co355 O386 2.037 . S
Co355 N390 2.145 . S
Co355 N411 2.257 . S
O356 Co354 2.143 . S
O356 Co355 2.160 . S
C357 O358 1.278 . S
C357 O365 1.224 . S
O358 C357 1.278 . S
C359 O360 1.245 . S
C359 O371 1.232 . S
O360 C359 1.245 . S
O361 Co355 2.058 . S
O361 C387 1.269 . S
O362 Co354 2.074 . S
O362 C387 1.257 . S
H363 C388 0.930 . S
H364 C394 0.930 . S
O365 Co354 2.093 . S
O365 C357 1.224 . S
H366 C398 0.929 . S
H367 C400 0.930 . S
H368 C401 0.930 . S
H369 C399 0.929 . S
H370 C402 0.928 . S
O371 Co355 2.057 . S
O371 C359 1.232 . S
H372 C391 0.929 . S
H373 C392 0.929 . S
H374 C404 0.931 . S
H375 C396 0.929 . S
H376 C405 0.930 . S
H377 C397 0.931 . S
O378 Co354 2.097 . S
O378 C406 1.214 . S
H379 C407 0.929 . S
H380 C408 0.929 . S
H381 C409 0.930 . S
H382 C410 0.929 . S
H383 C412 0.930 . S
H384 C389 0.930 . S
H385 C393 0.930 . S
O386 Co355 2.037 . S
O386 C406 1.234 . S
C387 O361 1.269 . S
C387 O362 1.257 . S
C388 H363 0.930 . S
C388 C391 1.388 . S
C388 C393 1.418 . S
C389 H384 0.930 . S
C389 C392 1.404 . S
C389 C393 1.353 . S
N390 Co355 2.145 . S
N390 C391 1.397 . S
N390 C392 1.334 . S
C391 H372 0.929 . S
C391 C388 1.388 . S
C391 N390 1.397 . S
C392 H373 0.929 . S
C392 C389 1.404 . S
C392 N390 1.334 . S
C393 H385 0.930 . S
C393 C388 1.418 . S
C393 C389 1.353 . S
C394 H364 0.930 . S
C394 N395 1.330 . S
C394 C396 1.446 . S
N395 Co354 2.151 . S
N395 C394 1.330 . S
N395 C399 1.418 . S
C396 H375 0.929 . S
C396 C394 1.446 . S
C396 C397 1.332 . S
C397 H377 0.931 . S
C397 C396 1.332 . S
C397 C398 1.267 . S
C398 H366 0.929 . S
C398 C397 1.267 . S
C398 C399 1.251 . S
C399 H369 0.929 . S
C399 N395 1.418 . S
C399 C398 1.251 . S
C400 H367 0.930 . S
C400 C402 1.406 . S
C400 C405 1.261 . S
C401 H368 0.930 . S
C401 N403 1.325 . S
C401 C404 1.357 . S
C402 H370 0.928 . S
C402 C400 1.406 . S
C402 N403 1.261 . S
N403 Co354 2.214 . S
N403 C401 1.325 . S
N403 C402 1.261 . S
C404 H374 0.931 . S
C404 C401 1.357 . S
C404 C405 1.312 . S
C405 H376 0.930 . S
C405 C400 1.261 . S
C405 C404 1.312 . S
C406 O378 1.214 . S
C406 O386 1.234 . S
C407 H379 0.929 . S
C407 C410 1.391 . S
C407 C412 1.391 . S
C408 H380 0.929 . S
C408 C409 1.390 . S
C408 N411 1.391 . S
C409 H381 0.930 . S
C409 C408 1.390 . S
C409 C410 1.392 . S
C410 H382 0.929 . S
C410 C407 1.391 . S
C410 C409 1.392 . S
N411 Co355 2.257 . S
N411 C408 1.391 . S
N411 C412 1.388 . S
C412 H383 0.930 . S
C412 C407 1.391 . S
C412 N411 1.388 . S
Co413 O415 2.143 . S
Co413 O421 2.074 . S
Co413 O424 2.093 . S
Co413 O437 2.097 . S
Co413 N454 2.151 . S
Co413 N462 2.214 . S
Co414 O415 2.160 . S
Co414 O420 2.058 . S
Co414 O430 2.057 . S
Co414 O445 2.037 . S
Co414 N449 2.145 . S
Co414 N470 2.257 . S
O415 Co413 2.143 . S
O415 Co414 2.160 . S
C416 O417 1.278 . S
C416 O424 1.224 . S
O417 C416 1.278 . S
C418 O419 1.245 . S
C418 O430 1.232 . S
O419 C418 1.245 . S
O420 Co414 2.058 . S
O420 C446 1.269 . S
O421 Co413 2.074 . S
O421 C446 1.257 . S
H422 C447 0.930 . S
H423 C453 0.930 . S
O424 Co413 2.093 . S
O424 C416 1.224 . S
H425 C457 0.929 . S
H426 C459 0.930 . S
H427 C460 0.930 . S
H428 C458 0.929 . S
H429 C461 0.928 . S
O430 Co414 2.057 . S
O430 C418 1.232 . S
H431 C450 0.929 . S
H432 C451 0.929 . S
H433 C463 0.931 . S
H434 C455 0.929 . S
H435 C464 0.930 . S
H436 C456 0.931 . S
O437 Co413 2.097 . S
O437 C465 1.214 . S
H438 C466 0.929 . S
H439 C467 0.929 . S
H440 C468 0.930 . S
H441 C469 0.929 . S
H442 C471 0.930 . S
H443 C448 0.930 . S
H444 C452 0.930 . S
O445 Co414 2.037 . S
O445 C465 1.234 . S
C446 O420 1.269 . S
C446 O421 1.257 . S
C447 H422 0.930 . S
C447 C450 1.388 . S
C447 C452 1.418 . S
C448 H443 0.930 . S
C448 C451 1.404 . S
C448 C452 1.353 . S
N449 Co414 2.145 . S
N449 C450 1.397 . S
N449 C451 1.334 . S
C450 H431 0.929 . S
C450 C447 1.388 . S
C450 N449 1.397 . S
C451 H432 0.929 . S
C451 C448 1.404 . S
C451 N449 1.334 . S
C452 H444 0.930 . S
C452 C447 1.418 . S
C452 C448 1.353 . S
C453 H423 0.930 . S
C453 N454 1.330 . S
C453 C455 1.446 . S
N454 Co413 2.151 . S
N454 C453 1.330 . S
N454 C458 1.418 . S
C455 H434 0.929 . S
C455 C453 1.446 . S
C455 C456 1.332 . S
C456 H436 0.931 . S
C456 C455 1.332 . S
C456 C457 1.267 . S
C457 H425 0.929 . S
C457 C456 1.267 . S
C457 C458 1.251 . S
C458 H428 0.929 . S
C458 N454 1.418 . S
C458 C457 1.251 . S
C459 H426 0.930 . S
C459 C461 1.406 . S
C459 C464 1.261 . S
C460 H427 0.930 . S
C460 N462 1.325 . S
C460 C463 1.357 . S
C461 H429 0.928 . S
C461 C459 1.406 . S
C461 N462 1.261 . S
N462 Co413 2.214 . S
N462 C460 1.325 . S
N462 C461 1.261 . S
C463 H433 0.931 . S
C463 C460 1.357 . S
C463 C464 1.312 . S
C464 H435 0.930 . S
C464 C459 1.261 . S
C464 C463 1.312 . S
C465 O437 1.214 . S
C465 O445 1.234 . S
C466 H438 0.929 . S
C466 C469 1.391 . S
C466 C471 1.391 . S
C467 H439 0.929 . S
C467 C468 1.390 . S
C467 N470 1.391 . S
C468 H440 0.930 . S
C468 C467 1.390 . S
C468 C469 1.392 . S
C469 H441 0.929 . S
C469 C466 1.391 . S
C469 C468 1.392 . S
N470 Co414 2.257 . S
N470 C467 1.391 . S
N470 C471 1.388 . S
C471 H442 0.930 . S
C471 C466 1.391 . S
C471 N470 1.388 . S
Co472 O474 2.143 . S
Co472 O480 2.074 . S
Co472 O483 2.093 . S
Co472 O496 2.097 . S
Co472 N513 2.151 . S
Co472 N521 2.214 . S
Co473 O474 2.160 . S
Co473 O479 2.058 . S
Co473 O489 2.057 . S
Co473 O504 2.037 . S
Co473 N508 2.145 . S
Co473 N529 2.257 . S
O474 Co472 2.143 . S
O474 Co473 2.160 . S
C475 O476 1.278 . S
C475 O483 1.224 . S
O476 C475 1.278 . S
C477 O478 1.245 . S
C477 O489 1.232 . S
O478 C477 1.245 . S
O479 Co473 2.058 . S
O479 C505 1.269 . S
O480 Co472 2.074 . S
O480 C505 1.257 . S
H481 C506 0.930 . S
H482 C512 0.930 . S
O483 Co472 2.093 . S
O483 C475 1.224 . S
H484 C516 0.929 . S
H485 C518 0.930 . S
H486 C519 0.930 . S
H487 C517 0.929 . S
H488 C520 0.928 . S
O489 Co473 2.057 . S
O489 C477 1.232 . S
H490 C509 0.929 . S
H491 C510 0.929 . S
H492 C522 0.931 . S
H493 C514 0.929 . S
H494 C523 0.930 . S
H495 C515 0.931 . S
O496 Co472 2.097 . S
O496 C524 1.214 . S
H497 C525 0.929 . S
H498 C526 0.929 . S
H499 C527 0.930 . S
H500 C528 0.929 . S
H501 C530 0.930 . S
H502 C507 0.930 . S
H503 C511 0.930 . S
O504 Co473 2.037 . S
O504 C524 1.234 . S
C505 O479 1.269 . S
C505 O480 1.257 . S
C506 H481 0.930 . S
C506 C509 1.388 . S
C506 C511 1.418 . S
C507 H502 0.930 . S
C507 C510 1.404 . S
C507 C511 1.353 . S
N508 Co473 2.145 . S
N508 C509 1.397 . S
N508 C510 1.334 . S
C509 H490 0.929 . S
C509 C506 1.388 . S
C509 N508 1.397 . S
C510 H491 0.929 . S
C510 C507 1.404 . S
C510 N508 1.334 . S
C511 H503 0.930 . S
C511 C506 1.418 . S
C511 C507 1.353 . S
C512 H482 0.930 . S
C512 N513 1.330 . S
C512 C514 1.446 . S
N513 Co472 2.151 . S
N513 C512 1.330 . S
N513 C517 1.418 . S
C514 H493 0.929 . S
C514 C512 1.446 . S
C514 C515 1.332 . S
C515 H495 0.931 . S
C515 C514 1.332 . S
C515 C516 1.267 . S
C516 H484 0.929 . S
C516 C515 1.267 . S
C516 C517 1.251 . S
C517 H487 0.929 . S
C517 N513 1.418 . S
C517 C516 1.251 . S
C518 H485 0.930 . S
C518 C520 1.406 . S
C518 C523 1.261 . S
C519 H486 0.930 . S
C519 N521 1.325 . S
C519 C522 1.357 . S
C520 H488 0.928 . S
C520 C518 1.406 . S
C520 N521 1.261 . S
N521 Co472 2.214 . S
N521 C519 1.325 . S
N521 C520 1.261 . S
C522 H492 0.931 . S
C522 C519 1.357 . S
C522 C523 1.312 . S
C523 H494 0.930 . S
C523 C518 1.261 . S
C523 C522 1.312 . S
C524 O496 1.214 . S
C524 O504 1.234 . S
C525 H497 0.929 . S
C525 C528 1.391 . S
C525 C530 1.391 . S
C526 H498 0.929 . S
C526 C527 1.390 . S
C526 N529 1.391 . S
C527 H499 0.930 . S
C527 C526 1.390 . S
C527 C528 1.392 . S
C528 H500 0.929 . S
C528 C525 1.391 . S
C528 C527 1.392 . S
N529 Co473 2.257 . S
N529 C526 1.391 . S
N529 C530 1.388 . S
C530 H501 0.930 . S
C530 C525 1.391 . S
C530 N529 1.388 . S
Co531 O533 2.143 . S
Co531 O539 2.074 . S
Co531 O542 2.093 . S
Co531 O555 2.097 . S
Co531 N572 2.151 . S
Co531 N580 2.214 . S
Co532 O533 2.160 . S
Co532 O538 2.058 . S
Co532 O548 2.057 . S
Co532 O563 2.037 . S
Co532 N567 2.145 . S
Co532 N588 2.257 . S
O533 Co531 2.143 . S
O533 Co532 2.160 . S
C534 O535 1.272 1_556 S
C534 O542 1.224 . S
O535 C534 1.272 1_554 S
C536 O537 1.245 . S
C536 O548 1.232 . S
O537 C536 1.245 . S
O538 Co532 2.058 . S
O538 C564 1.269 . S
O539 Co531 2.074 . S
O539 C564 1.257 . S
H540 C565 0.930 . S
H541 C571 0.930 . S
O542 Co531 2.093 . S
O542 C534 1.224 . S
H543 C575 0.929 . S
H544 C577 0.930 . S
H545 C578 0.930 . S
H546 C576 0.929 . S
H547 C579 0.928 . S
O548 Co532 2.057 . S
O548 C536 1.232 . S
H549 C568 0.929 . S
H550 C569 0.929 . S
H551 C581 0.931 . S
H552 C573 0.929 . S
H553 C582 0.930 . S
H554 C574 0.931 . S
O555 Co531 2.097 . S
O555 C583 1.214 . S
H556 C584 0.929 . S
H557 C585 0.929 . S
H558 C586 0.930 . S
H559 C587 0.929 . S
H560 C589 0.930 . S
H561 C566 0.930 . S
H562 C570 0.930 . S
O563 Co532 2.037 . S
O563 C583 1.234 . S
C564 O538 1.269 . S
C564 O539 1.257 . S
C565 H540 0.930 . S
C565 C568 1.388 . S
C565 C570 1.418 . S
C566 H561 0.930 . S
C566 C569 1.404 . S
C566 C570 1.353 . S
N567 Co532 2.145 . S
N567 C568 1.397 . S
N567 C569 1.334 . S
C568 H549 0.929 . S
C568 C565 1.388 . S
C568 N567 1.397 . S
C569 H550 0.929 . S
C569 C566 1.404 . S
C569 N567 1.334 . S
C570 H562 0.930 . S
C570 C565 1.418 . S
C570 C566 1.353 . S
C571 H541 0.930 . S
C571 N572 1.330 . S
C571 C573 1.446 . S
N572 Co531 2.151 . S
N572 C571 1.330 . S
N572 C576 1.418 . S
C573 H552 0.929 . S
C573 C571 1.446 . S
C573 C574 1.332 . S
C574 H554 0.931 . S
C574 C573 1.332 . S
C574 C575 1.267 . S
C575 H543 0.929 . S
C575 C574 1.267 . S
C575 C576 1.251 . S
C576 H546 0.929 . S
C576 N572 1.418 . S
C576 C575 1.251 . S
C577 H544 0.930 . S
C577 C579 1.406 . S
C577 C582 1.261 . S
C578 H545 0.930 . S
C578 N580 1.325 . S
C578 C581 1.357 . S
C579 H547 0.928 . S
C579 C577 1.406 . S
C579 N580 1.261 . S
N580 Co531 2.214 . S
N580 C578 1.325 . S
N580 C579 1.261 . S
C581 H551 0.931 . S
C581 C578 1.357 . S
C581 C582 1.312 . S
C582 H553 0.930 . S
C582 C577 1.261 . S
C582 C581 1.312 . S
C583 O555 1.214 . S
C583 O563 1.234 . S
C584 H556 0.929 . S
C584 C587 1.391 . S
C584 C589 1.391 . S
C585 H557 0.929 . S
C585 C586 1.390 1_556 S
C585 N588 1.391 . S
C586 H558 0.930 . S
C586 C585 1.390 1_554 S
C586 C587 1.392 . S
C587 H559 0.929 . S
C587 C584 1.391 . S
C587 C586 1.392 . S
N588 Co532 2.257 . S
N588 C585 1.391 . S
N588 C589 1.388 1_556 S
C589 H560 0.930 . S
C589 C584 1.391 . S
C589 N588 1.388 1_554 S
Co590 O592 2.143 . S
Co590 O598 2.074 . S
Co590 O601 2.093 . S
Co590 O614 2.097 . S
Co590 N631 2.151 . S
Co590 N639 2.214 . S
Co591 O592 2.160 . S
Co591 O597 2.058 . S
Co591 O607 2.057 . S
Co591 O622 2.037 . S
Co591 N626 2.145 . S
Co591 N647 2.257 . S
O592 Co590 2.143 . S
O592 Co591 2.160 . S
C593 O594 1.278 . S
C593 O601 1.224 . S
O594 C593 1.278 . S
C595 O596 1.245 . S
C595 O607 1.232 . S
O596 C595 1.245 . S
O597 Co591 2.058 . S
O597 C623 1.269 . S
O598 Co590 2.074 . S
O598 C623 1.257 . S
H599 C624 0.943 . S
H600 C630 0.930 . S
O601 Co590 2.093 . S
O601 C593 1.224 . S
H602 C634 0.929 . S
H603 C636 0.930 . S
H604 C637 0.930 . S
H605 C635 0.929 . S
H606 C638 0.928 . S
O607 Co591 2.057 . S
O607 C595 1.232 . S
H608 C627 0.929 . S
H609 C628 0.929 . S
H610 C640 0.931 . S
H611 C632 0.929 . S
H612 C641 0.930 . S
H613 C633 0.931 . S
O614 Co590 2.097 . S
O614 C642 1.214 . S
H615 C643 0.929 . S
H616 C644 0.929 . S
H617 C645 0.930 . S
H618 C646 0.929 . S
H619 C648 0.930 . S
H620 C625 0.930 . S
H621 C629 0.930 . S
O622 Co591 2.037 . S
O622 C642 1.234 . S
C623 O597 1.269 . S
C623 O598 1.257 . S
C624 H599 0.943 . S
C624 C627 1.388 . S
C624 C629 1.418 . S
C625 H620 0.930 . S
C625 C628 1.404 . S
C625 C629 1.353 . S
N626 Co591 2.145 . S
N626 C627 1.397 . S
N626 C628 1.334 . S
C627 H608 0.929 . S
C627 C624 1.388 . S
C627 N626 1.397 . S
C628 H609 0.929 . S
C628 C625 1.404 . S
C628 N626 1.334 . S
C629 H621 0.930 . S
C629 C624 1.418 . S
C629 C625 1.353 . S
C630 H600 0.930 . S
C630 N631 1.330 . S
C630 C632 1.446 . S
N631 Co590 2.151 . S
N631 C630 1.330 . S
N631 C635 1.418 . S
C632 H611 0.929 . S
C632 C630 1.446 . S
C632 C633 1.332 . S
C633 H613 0.931 . S
C633 C632 1.332 . S
C633 C634 1.267 . S
C634 H602 0.929 . S
C634 C633 1.267 . S
C634 C635 1.251 . S
C635 H605 0.929 . S
C635 N631 1.418 . S
C635 C634 1.251 . S
C636 H603 0.930 . S
C636 C638 1.406 . S
C636 C641 1.261 . S
C637 H604 0.930 . S
C637 N639 1.325 . S
C637 C640 1.357 . S
C638 H606 0.928 . S
C638 C636 1.406 . S
C638 N639 1.261 . S
N639 Co590 2.214 . S
N639 C637 1.325 . S
N639 C638 1.261 . S
C640 H610 0.931 . S
C640 C637 1.357 . S
C640 C641 1.312 . S
C641 H612 0.930 . S
C641 C636 1.261 . S
C641 C640 1.312 . S
C642 O614 1.214 . S
C642 O622 1.234 . S
C643 H615 0.929 . S
C643 C646 1.391 . S
C643 C648 1.391 . S
C644 H616 0.929 . S
C644 C645 1.390 . S
C644 N647 1.391 . S
C645 H617 0.930 . S
C645 C644 1.390 . S
C645 C646 1.392 . S
C646 H618 0.929 . S
C646 C643 1.391 . S
C646 C645 1.392 . S
N647 Co591 2.257 . S
N647 C644 1.391 . S
N647 C648 1.388 . S
C648 H619 0.930 . S
C648 C643 1.391 . S
C648 N647 1.388 . S
Co649 O651 2.143 . S
Co649 O657 2.074 . S
Co649 O660 2.093 . S
Co649 O673 2.097 . S
Co649 N690 2.151 . S
Co649 N698 2.214 . S
Co650 O651 2.160 . S
Co650 O656 2.058 . S
Co650 O666 2.057 . S
Co650 O681 2.037 . S
Co650 N685 2.145 . S
Co650 N706 2.257 . S
O651 Co649 2.143 . S
O651 Co650 2.160 . S
C652 O653 1.278 . S
C652 O660 1.224 . S
O653 C652 1.278 . S
C654 O655 1.245 . S
C654 O666 1.232 . S
O655 C654 1.245 . S
O656 Co650 2.058 . S
O656 C682 1.269 . S
O657 Co649 2.074 . S
O657 C682 1.257 . S
H658 C683 0.930 . S
H659 C689 0.930 . S
O660 Co649 2.093 . S
O660 C652 1.224 . S
H661 C693 0.929 . S
H662 C695 0.930 . S
H663 C696 0.930 . S
H664 C694 0.929 . S
H665 C697 0.928 . S
O666 Co650 2.057 . S
O666 C654 1.232 . S
H667 C686 0.929 . S
H668 C687 0.929 . S
H669 C699 0.931 . S
H670 C691 0.929 . S
H671 C700 0.930 . S
H672 C692 0.931 . S
O673 Co649 2.097 . S
O673 C701 1.214 . S
H674 C702 0.929 . S
H675 C703 0.929 . S
H676 C704 0.930 . S
H677 C705 0.929 . S
H678 C707 0.930 . S
H679 C684 0.930 . S
H680 C688 0.930 . S
O681 Co650 2.037 . S
O681 C701 1.234 . S
C682 O656 1.269 . S
C682 O657 1.257 . S
C683 H658 0.930 . S
C683 C686 1.388 . S
C683 C688 1.418 . S
C684 H679 0.930 . S
C684 C687 1.404 . S
C684 C688 1.353 . S
N685 Co650 2.145 . S
N685 C686 1.397 . S
N685 C687 1.334 . S
C686 H667 0.929 . S
C686 C683 1.388 . S
C686 N685 1.397 . S
C687 H668 0.929 . S
C687 C684 1.404 . S
C687 N685 1.334 . S
C688 H680 0.930 . S
C688 C683 1.418 . S
C688 C684 1.353 . S
C689 H659 0.930 . S
C689 N690 1.330 . S
C689 C691 1.446 . S
N690 Co649 2.151 . S
N690 C689 1.330 . S
N690 C694 1.418 . S
C691 H670 0.929 . S
C691 C689 1.446 . S
C691 C692 1.332 . S
C692 H672 0.931 . S
C692 C691 1.332 . S
C692 C693 1.267 . S
C693 H661 0.929 . S
C693 C692 1.267 . S
C693 C694 1.251 . S
C694 H664 0.929 . S
C694 N690 1.418 . S
C694 C693 1.251 . S
C695 H662 0.930 . S
C695 C697 1.406 . S
C695 C700 1.261 . S
C696 H663 0.930 . S
C696 N698 1.325 . S
C696 C699 1.357 . S
C697 H665 0.928 . S
C697 C695 1.406 . S
C697 N698 1.261 . S
N698 Co649 2.214 . S
N698 C696 1.325 . S
N698 C697 1.261 . S
C699 H669 0.931 . S
C699 C696 1.357 . S
C699 C700 1.312 . S
C700 H671 0.930 . S
C700 C695 1.261 . S
C700 C699 1.312 . S
C701 O673 1.214 . S
C701 O681 1.234 . S
C702 H674 0.929 . S
C702 C705 1.391 . S
C702 C707 1.391 . S
C703 H675 0.929 . S
C703 C704 1.390 . S
C703 N706 1.391 . S
C704 H676 0.930 . S
C704 C703 1.390 . S
C704 C705 1.392 . S
C705 H677 0.929 . S
C705 C702 1.391 . S
C705 C704 1.392 . S
N706 Co650 2.257 . S
N706 C703 1.391 . S
N706 C707 1.388 . S
C707 H678 0.930 . S
C707 C702 1.391 . S
C707 N706 1.388 . S
H708 C716 0.950 . S
H709 C721 0.950 . S
H710 C718 0.950 . S
H711 C720 0.950 . S
H712 C722 0.950 . S
H713 C724 0.950 . S
H714 C726 0.950 . S
H715 C727 0.950 . S
C716 H708 0.950 . S
C716 C717 1.386 . S
C716 C718 1.391 . S
C717 C716 1.386 . S
C717 C721 1.393 . S
C718 H710 0.950 . S
C718 C716 1.391 . S
C718 C719 1.400 . S
C719 C718 1.400 . S
C719 C720 1.398 . S
C719 C725 1.491 . S
C720 H711 0.950 . S
C720 C719 1.398 . S
C720 C721 1.391 . S
C721 H709 0.950 . S
C721 C717 1.393 . S
C721 C720 1.391 . S
C722 H712 0.950 . S
C722 C723 1.386 . S
C722 C724 1.391 . S
C723 C722 1.386 . S
C723 C727 1.393 . S
C724 H713 0.950 . S
C724 C722 1.391 . S
C724 C725 1.400 . S
C725 C719 1.491 . S
C725 C724 1.400 . S
C725 C726 1.398 . S
C726 H714 0.950 . S
C726 C725 1.398 . S
C726 C727 1.391 . S
C727 H715 0.950 . S
C727 C723 1.393 . S
C727 C726 1.391 . S
H728 C736 0.950 . S
H729 C741 0.950 . S
H730 C738 0.950 . S
H731 C740 0.950 . S
H732 C742 0.950 . S
H733 C744 0.950 . S
H734 C746 0.950 . S
H735 C747 0.950 . S
C736 H728 0.950 . S
C736 C737 1.386 . S
C736 C738 1.391 . S
C737 C736 1.386 . S
C737 C741 1.393 . S
C738 H730 0.950 . S
C738 C736 1.391 . S
C738 C739 1.400 . S
C739 C738 1.400 . S
C739 C740 1.398 . S
C739 C745 1.491 . S
C740 H731 0.950 . S
C740 C739 1.398 . S
C740 C741 1.391 . S
C741 H729 0.950 . S
C741 C737 1.393 . S
C741 C740 1.391 . S
C742 H732 0.950 . S
C742 C743 1.386 . S
C742 C744 1.391 . S
C743 C742 1.386 . S
C743 C747 1.393 . S
C744 H733 0.950 . S
C744 C742 1.391 . S
C744 C745 1.400 . S
C745 C739 1.491 . S
C745 C744 1.400 . S
C745 C746 1.398 . S
C746 H734 0.950 . S
C746 C745 1.398 . S
C746 C747 1.391 . S
C747 H735 0.950 . S
C747 C743 1.393 . S
C747 C746 1.391 . S
H748 C756 0.950 . S
H749 C761 0.950 . S
H750 C758 0.950 . S
H751 C760 0.950 . S
H752 C762 0.950 . S
H753 C764 0.950 . S
H754 C766 0.950 . S
H755 C767 0.950 . S
C756 H748 0.950 . S
C756 C757 1.386 . S
C756 C758 1.391 . S
C757 C756 1.386 . S
C757 C761 1.393 . S
C758 H750 0.950 . S
C758 C756 1.391 . S
C758 C759 1.400 . S
C759 C758 1.400 . S
C759 C760 1.398 . S
C759 C765 1.491 . S
C760 H751 0.950 . S
C760 C759 1.398 . S
C760 C761 1.391 . S
C761 H749 0.950 . S
C761 C757 1.393 . S
C761 C760 1.391 . S
C762 H752 0.950 . S
C762 C763 1.386 . S
C762 C764 1.391 . S
C763 C762 1.386 . S
C763 C767 1.393 . S
C764 H753 0.950 . S
C764 C762 1.391 . S
C764 C765 1.400 . S
C765 C759 1.491 . S
C765 C764 1.400 . S
C765 C766 1.398 . S
C766 H754 0.950 . S
C766 C765 1.398 . S
C766 C767 1.391 . S
C767 H755 0.950 . S
C767 C763 1.393 . S
C767 C766 1.391 . S
H768 C776 0.950 . S
H769 C781 0.950 . S
H770 C778 0.950 . S
H771 C780 0.950 . S
H772 C782 0.950 . S
H773 C784 0.950 . S
H774 C786 0.950 . S
H775 C787 0.950 . S
C776 H768 0.950 . S
C776 C777 1.386 . S
C776 C778 1.391 . S
C777 C776 1.386 . S
C777 C781 1.393 . S
C778 H770 0.950 . S
C778 C776 1.391 . S
C778 C779 1.400 . S
C779 C778 1.400 . S
C779 C780 1.398 . S
C779 C785 1.491 . S
C780 H771 0.950 . S
C780 C779 1.398 . S
C780 C781 1.391 . S
C781 H769 0.950 . S
C781 C777 1.393 . S
C781 C780 1.391 . S
C782 H772 0.950 . S
C782 C783 1.386 . S
C782 C784 1.391 . S
C783 C782 1.386 . S
C783 C787 1.393 . S
C784 H773 0.950 . S
C784 C782 1.391 . S
C784 C785 1.400 . S
C785 C779 1.491 . S
C785 C784 1.400 . S
C785 C786 1.398 . S
C786 H774 0.950 . S
C786 C785 1.398 . S
C786 C787 1.391 . S
C787 H775 0.950 . S
C787 C783 1.393 . S
C787 C786 1.391 . S
H788 C796 0.950 . S
H789 C801 0.950 . S
H790 C798 0.950 . S
H791 C800 0.950 . S
H792 C802 0.950 . S
H793 C804 0.950 . S
H794 C806 0.950 . S
H795 C807 0.950 . S
C796 H788 0.950 . S
C796 C797 1.386 . S
C796 C798 1.391 . S
C797 C796 1.386 . S
C797 C801 1.393 . S
C798 H790 0.950 . S
C798 C796 1.391 . S
C798 C799 1.400 . S
C799 C798 1.400 . S
C799 C800 1.398 . S
C799 C805 1.491 . S
C800 H791 0.950 . S
C800 C799 1.398 . S
C800 C801 1.391 . S
C801 H789 0.950 . S
C801 C797 1.393 . S
C801 C800 1.391 . S
C802 H792 0.950 . S
C802 C803 1.386 . S
C802 C804 1.391 . S
C803 C802 1.386 . S
C803 C807 1.393 . S
C804 H793 0.950 . S
C804 C802 1.391 . S
C804 C805 1.400 . S
C805 C799 1.491 . S
C805 C804 1.400 . S
C805 C806 1.398 . S
C806 H794 0.950 . S
C806 C805 1.398 . S
C806 C807 1.391 . S
C807 H795 0.950 . S
C807 C803 1.393 . S
C807 C806 1.391 . S
H808 C816 0.950 . S
H809 C821 0.950 . S
H810 C818 0.950 . S
H811 C820 0.950 . S
H812 C822 0.950 . S
H813 C824 0.950 . S
H814 C826 0.950 . S
H815 C827 0.950 . S
C816 H808 0.950 . S
C816 C817 1.386 . S
C816 C818 1.391 . S
C817 C816 1.386 . S
C817 C821 1.393 . S
C818 H810 0.950 . S
C818 C816 1.391 . S
C818 C819 1.400 . S
C819 C818 1.400 . S
C819 C820 1.398 . S
C819 C825 1.491 . S
C820 H811 0.950 . S
C820 C819 1.398 . S
C820 C821 1.391 . S
C821 H809 0.950 . S
C821 C817 1.393 . S
C821 C820 1.391 . S
C822 H812 0.950 . S
C822 C823 1.386 . S
C822 C824 1.391 . S
C823 C822 1.386 . S
C823 C827 1.393 . S
C824 H813 0.950 . S
C824 C822 1.391 . S
C824 C825 1.400 . S
C825 C819 1.491 . S
C825 C824 1.400 . S
C825 C826 1.398 . S
C826 H814 0.950 . S
C826 C825 1.398 . S
C826 C827 1.391 . S
C827 H815 0.950 . S
C827 C823 1.393 . S
C827 C826 1.391 . S
H828 C836 0.950 . S
H829 C841 0.950 . S
H830 C838 0.950 . S
H831 C840 0.950 . S
H832 C842 0.950 . S
H833 C844 0.950 . S
H834 C846 0.950 . S
H835 C847 0.950 . S
C836 H828 0.950 . S
C836 C837 1.386 . S
C836 C838 1.391 . S
C837 C836 1.386 . S
C837 C841 1.393 . S
C838 H830 0.950 . S
C838 C836 1.391 . S
C838 C839 1.400 . S
C839 C838 1.400 . S
C839 C840 1.398 . S
C839 C845 1.491 . S
C840 H831 0.950 . S
C840 C839 1.398 . S
C840 C841 1.391 . S
C841 H829 0.950 . S
C841 C837 1.393 . S
C841 C840 1.391 . S
C842 H832 0.950 . S
C842 C843 1.386 . S
C842 C844 1.391 . S
C843 C842 1.386 . S
C843 C847 1.393 . S
C844 H833 0.950 . S
C844 C842 1.391 . S
C844 C845 1.400 . S
C845 C839 1.491 . S
C845 C844 1.400 . S
C845 C846 1.398 . S
C846 H834 0.950 . S
C846 C845 1.398 . S
C846 C847 1.391 . S
C847 H835 0.950 . S
C847 C843 1.393 . S
C847 C846 1.391 . S
H848 C856 0.950 . S
H849 C861 0.950 . S
H850 C858 0.950 . S
H851 C860 0.950 . S
H852 C862 0.950 . S
H853 C864 0.950 . S
H854 C866 0.950 . S
H855 C867 0.950 . S
C856 H848 0.950 . S
C856 C857 1.386 . S
C856 C858 1.391 . S
C857 C856 1.386 . S
C857 C861 1.393 . S
C858 H850 0.950 . S
C858 C856 1.391 . S
C858 C859 1.400 . S
C859 C858 1.400 . S
C859 C860 1.398 . S
C859 C865 1.491 . S
C860 H851 0.950 . S
C860 C859 1.398 . S
C860 C861 1.391 . S
C861 H849 0.950 . S
C861 C857 1.393 . S
C861 C860 1.391 . S
C862 H852 0.950 . S
C862 C863 1.386 . S
C862 C864 1.391 . S
C863 C862 1.386 . S
C863 C867 1.393 . S
C864 H853 0.950 . S
C864 C862 1.391 . S
C864 C865 1.400 . S
C865 C859 1.491 . S
C865 C864 1.400 . S
C865 C866 1.398 . S
C866 H854 0.950 . S
C866 C865 1.398 . S
C866 C867 1.391 . S
C867 H855 0.950 . S
C867 C863 1.393 . S
C867 C866 1.391 . S
H868 C876 0.950 . S
H869 C881 0.950 1_554 S
H870 C878 0.950 . S
H871 C880 0.950 . S
H872 C882 0.950 . S
H873 C884 0.950 . S
H874 C886 0.950 . S
H875 C887 0.950 . S
C876 H868 0.950 . S
C876 C877 1.386 . S
C876 C878 1.391 . S
C877 C876 1.386 . S
C877 C881 1.393 . S
C878 H870 0.950 . S
C878 C876 1.391 . S
C878 C879 1.400 . S
C879 C878 1.400 . S
C879 C880 1.398 . S
C879 C885 1.491 . S
C880 H871 0.950 . S
C880 C879 1.398 . S
C880 C881 1.391 . S
C881 H869 0.950 1_556 S
C881 C877 1.393 . S
C881 C880 1.391 . S
C882 H872 0.950 . S
C882 C883 1.386 . S
C882 C884 1.391 . S
C883 C882 1.386 . S
C883 C887 1.393 . S
C884 H873 0.950 . S
C884 C882 1.391 . S
C884 C885 1.400 . S
C885 C879 1.491 . S
C885 C884 1.400 . S
C885 C886 1.398 . S
C886 H874 0.950 . S
C886 C885 1.398 . S
C886 C887 1.391 . S
C887 H875 0.950 . S
C887 C883 1.393 . S
C887 C886 1.391 . S
H888 C896 0.950 . S
H889 C901 0.950 . S
H890 C898 0.950 . S
H891 C900 0.950 . S
H892 C902 0.950 . S
H893 C904 0.950 . S
H894 C906 0.950 . S
H895 C907 0.950 . S
C896 H888 0.950 . S
C896 C897 1.386 . S
C896 C898 1.391 . S
C897 C896 1.386 . S
C897 C901 1.393 . S
C898 H890 0.950 . S
C898 C896 1.391 . S
C898 C899 1.400 . S
C899 C898 1.400 . S
C899 C900 1.398 . S
C899 C905 1.491 . S
C900 H891 0.950 . S
C900 C899 1.398 . S
C900 C901 1.391 . S
C901 H889 0.950 . S
C901 C897 1.393 . S
C901 C900 1.391 . S
C902 H892 0.950 . S
C902 C903 1.386 . S
C902 C904 1.391 . S
C903 C902 1.386 . S
C903 C907 1.393 . S
C904 H893 0.950 . S
C904 C902 1.391 . S
C904 C905 1.400 . S
C905 C899 1.491 . S
C905 C904 1.400 . S
C905 C906 1.398 . S
C906 H894 0.950 . S
C906 C905 1.398 . S
C906 C907 1.391 . S
C907 H895 0.950 . S
C907 C903 1.393 . S
C907 C906 1.391 . S
H908 C916 0.950 . S
H909 C921 0.950 . S
H910 C918 0.950 . S
H911 C920 0.950 . S
H912 C922 0.950 . S
H913 C924 0.950 . S
H914 C926 0.950 . S
H915 C927 0.950 . S
C916 H908 0.950 . S
C916 C917 1.386 . S
C916 C918 1.391 . S
C917 C916 1.386 . S
C917 C921 1.393 . S
C918 H910 0.950 . S
C918 C916 1.391 . S
C918 C919 1.400 . S
C919 C918 1.400 . S
C919 C920 1.398 . S
C919 C925 1.491 . S
C920 H911 0.950 . S
C920 C919 1.398 . S
C920 C921 1.391 . S
C921 H909 0.950 . S
C921 C917 1.393 . S
C921 C920 1.391 . S
C922 H912 0.950 . S
C922 C923 1.386 . S
C922 C924 1.391 . S
C923 C922 1.386 . S
C923 C927 1.393 . S
C924 H913 0.950 . S
C924 C922 1.391 . S
C924 C925 1.400 . S
C925 C919 1.491 . S
C925 C924 1.400 . S
C925 C926 1.398 . S
C926 H914 0.950 . S
C926 C925 1.398 . S
C926 C927 1.391 . S
C927 H915 0.950 . S
C927 C923 1.393 . S
C927 C926 1.391 . S
H928 C936 0.950 . S
H929 C941 0.950 . S
H930 C938 0.950 . S
H931 C940 0.950 . S
H932 C942 0.950 . S
H933 C944 0.950 . S
H934 C946 0.950 . S
H935 C947 0.950 . S
C936 H928 0.950 . S
C936 C937 1.386 . S
C936 C938 1.391 . S
C937 C936 1.386 . S
C937 C941 1.393 . S
C938 H930 0.950 . S
C938 C936 1.391 . S
C938 C939 1.400 . S
C939 C938 1.400 . S
C939 C940 1.398 . S
C939 C945 1.491 . S
C940 H931 0.950 . S
C940 C939 1.398 . S
C940 C941 1.391 . S
C941 H929 0.950 . S
C941 C937 1.393 . S
C941 C940 1.391 . S
C942 H932 0.950 . S
C942 C943 1.386 . S
C942 C944 1.391 . S
C943 C942 1.386 . S
C943 C947 1.393 . S
C944 H933 0.950 . S
C944 C942 1.391 . S
C944 C945 1.400 . S
C945 C939 1.491 . S
C945 C944 1.400 . S
C945 C946 1.398 . S
C946 H934 0.950 . S
C946 C945 1.398 . S
C946 C947 1.391 . S
C947 H935 0.950 . S
C947 C943 1.393 . S
C947 C946 1.391 . S
H948 C956 0.950 . S
H949 C961 0.950 . S
H950 C958 0.950 . S
H951 C960 0.950 . S
H952 C962 0.950 . S
H953 C964 0.950 . S
H954 C966 0.950 . S
H955 C967 0.950 . S
C956 H948 0.950 . S
C956 C957 1.386 . S
C956 C958 1.391 . S
C957 C956 1.386 . S
C957 C961 1.393 . S
C958 H950 0.950 . S
C958 C956 1.391 . S
C958 C959 1.400 . S
C959 C958 1.400 . S
C959 C960 1.398 . S
C959 C965 1.491 1_655 S
C960 H951 0.950 . S
C960 C959 1.398 . S
C960 C961 1.391 . S
C961 H949 0.950 . S
C961 C957 1.393 . S
C961 C960 1.391 . S
C962 H952 0.950 . S
C962 C963 1.386 . S
C962 C964 1.391 . S
C963 C962 1.386 . S
C963 C967 1.393 . S
C964 H953 0.950 . S
C964 C962 1.391 . S
C964 C965 1.400 . S
C965 C959 1.491 1_455 S
C965 C964 1.400 . S
C965 C966 1.398 . S
C966 H954 0.950 . S
C966 C965 1.398 . S
C966 C967 1.391 . S
C967 H955 0.950 . S
C967 C963 1.393 . S
C967 C966 1.391 . S
H968 C976 0.950 . S
H969 C981 0.950 . S
H970 C978 0.950 . S
H971 C980 0.950 . S
H972 C982 0.950 . S
H973 C984 0.950 . S
H974 C986 0.950 . S
H975 C987 0.950 . S
C976 H968 0.950 . S
C976 C977 1.386 . S
C976 C978 1.391 . S
C977 C976 1.386 . S
C977 C981 1.393 . S
C978 H970 0.950 . S
C978 C976 1.391 . S
C978 C979 1.400 . S
C979 C978 1.400 . S
C979 C980 1.398 . S
C979 C985 1.491 1_565 S
C980 H971 0.950 . S
C980 C979 1.398 . S
C980 C981 1.391 . S
C981 H969 0.950 . S
C981 C977 1.393 . S
C981 C980 1.391 . S
C982 H972 0.950 . S
C982 C983 1.386 . S
C982 C984 1.391 . S
C983 C982 1.386 . S
C983 C987 1.393 . S
C984 H973 0.950 . S
C984 C982 1.391 . S
C984 C985 1.400 . S
C985 C979 1.491 1_545 S
C985 C984 1.400 . S
C985 C986 1.398 . S
C986 H974 0.950 . S
C986 C985 1.398 . S
C986 C987 1.391 . S
C987 H975 0.950 . S
C987 C983 1.393 . S
C987 C986 1.391 . S
H988 C996 0.950 . S
H989 C1001 0.950 . S
H990 C998 0.950 . S
H991 C1000 0.950 . S
H992 C1002 0.950 . S
H993 C1004 0.950 . S
H994 C1006 0.950 . S
H995 C1007 0.950 . S
C996 H988 0.950 . S
C996 C997 1.386 . S
C996 C998 1.391 . S
C997 C996 1.386 . S
C997 C1001 1.393 . S
C998 H990 0.950 . S
C998 C996 1.391 . S
C998 C999 1.400 . S
C999 C998 1.400 . S
C999 C1000 1.398 . S
C999 C1005 1.491 . S
C1000 H991 0.950 . S
C1000 C999 1.398 . S
C1000 C1001 1.391 . S
C1001 H989 0.950 . S
C1001 C997 1.393 . S
C1001 C1000 1.391 . S
C1002 H992 0.950 . S
C1002 C1003 1.386 . S
C1002 C1004 1.391 . S
C1003 C1002 1.386 . S
C1003 C1007 1.393 . S
C1004 H993 0.950 . S
C1004 C1002 1.391 . S
C1004 C1005 1.400 . S
C1005 C999 1.491 . S
C1005 C1004 1.400 . S
C1005 C1006 1.398 . S
C1006 H994 0.950 . S
C1006 C1005 1.398 . S
C1006 C1007 1.391 . S
C1007 H995 0.950 . S
C1007 C1003 1.393 . S
C1007 C1006 1.391 . S
H1008 C1016 0.950 . S
H1009 C1021 0.950 . S
H1010 C1018 0.950 . S
H1011 C1020 0.950 . S
H1012 C1022 0.950 . S
H1013 C1024 0.950 . S
H1014 C1026 0.950 . S
H1015 C1027 0.950 . S
C1016 H1008 0.950 . S
C1016 C1017 1.386 . S
C1016 C1018 1.391 . S
C1017 C1016 1.386 . S
C1017 C1021 1.393 . S
C1018 H1010 0.950 . S
C1018 C1016 1.391 . S
C1018 C1019 1.400 . S
C1019 C1018 1.400 . S
C1019 C1020 1.398 . S
C1019 C1025 1.491 1_455 S
C1020 H1011 0.950 . S
C1020 C1019 1.398 . S
C1020 C1021 1.391 . S
C1021 H1009 0.950 . S
C1021 C1017 1.393 . S
C1021 C1020 1.391 . S
C1022 H1012 0.950 . S
C1022 C1023 1.386 . S
C1022 C1024 1.391 . S
C1023 C1022 1.386 . S
C1023 C1027 1.393 . S
C1024 H1013 0.950 . S
C1024 C1022 1.391 . S
C1024 C1025 1.400 . S
C1025 C1019 1.491 1_655 S
C1025 C1024 1.400 . S
C1025 C1026 1.398 . S
C1026 H1014 0.950 . S
C1026 C1025 1.398 . S
C1026 C1027 1.391 . S
C1027 H1015 0.950 . S
C1027 C1023 1.393 . S
C1027 C1026 1.391 . S
H1028 C1036 0.941 1_554 S
H1029 C1041 0.950 . S
H1030 C1038 0.950 . S
H1031 C1040 0.950 . S
H1032 C1042 0.940 1_556 S
H1033 C1044 0.950 . S
H1034 C1046 0.950 . S
H1035 C1047 0.950 . S
C1036 H1028 0.941 1_556 S
C1036 C1037 1.386 . S
C1036 C1038 1.391 1_556 S
C1037 C1036 1.386 . S
C1037 C1041 1.393 . S
C1038 H1030 0.950 . S
C1038 C1036 1.391 1_554 S
C1038 C1039 1.400 1_554 S
C1039 C1038 1.400 1_556 S
C1039 C1040 1.398 . S
C1039 C1045 1.491 1_546 S
C1040 H1031 0.950 . S
C1040 C1039 1.398 . S
C1040 C1041 1.391 . S
C1041 H1029 0.950 . S
C1041 C1037 1.393 . S
C1041 C1040 1.391 . S
C1042 H1032 0.940 1_554 S
C1042 C1043 1.386 . S
C1042 C1044 1.391 1_554 S
C1043 C1042 1.386 . S
C1043 C1047 1.393 . S
C1044 H1033 0.950 . S
C1044 C1042 1.391 1_556 S
C1044 C1045 1.400 1_556 S
C1045 C1039 1.491 1_564 S
C1045 C1044 1.400 1_554 S
C1045 C1046 1.398 . S
C1046 H1034 0.950 . S
C1046 C1045 1.398 . S
C1046 C1047 1.391 . S
C1047 H1035 0.950 . S
C1047 C1043 1.393 . S
C1047 C1046 1.391 . S
H1048 C1056 0.950 . S
H1049 C1061 0.950 . S
H1050 C1058 0.950 . S
H1051 C1060 0.950 . S
H1052 C1062 0.950 . S
H1053 C1064 0.950 . S
H1054 C1066 0.950 . S
H1055 C1067 0.950 . S
C1056 H1048 0.950 . S
C1056 C1057 1.386 . S
C1056 C1058 1.391 . S
C1057 C1056 1.386 . S
C1057 C1061 1.393 . S
C1058 H1050 0.950 . S
C1058 C1056 1.391 . S
C1058 C1059 1.400 . S
C1059 C1058 1.400 . S
C1059 C1060 1.398 . S
C1059 C1065 1.491 . S
C1060 H1051 0.950 . S
C1060 C1059 1.398 . S
C1060 C1061 1.391 . S
C1061 H1049 0.950 . S
C1061 C1057 1.393 . S
C1061 C1060 1.391 . S
C1062 H1052 0.950 . S
C1062 C1063 1.386 . S
C1062 C1064 1.391 . S
C1063 C1062 1.386 . S
C1063 C1067 1.393 . S
C1064 H1053 0.950 . S
C1064 C1062 1.391 . S
C1064 C1065 1.400 . S
C1065 C1059 1.491 . S
C1065 C1064 1.400 . S
C1065 C1066 1.398 . S
C1066 H1054 0.950 . S
C1066 C1065 1.398 . S
C1066 C1067 1.391 . S
C1067 H1055 0.950 . S
C1067 C1063 1.393 . S
C1067 C1066 1.391 . S
H1068 C1076 0.950 . S
H1069 C1081 0.950 . S
H1070 C1078 0.950 . S
H1071 C1080 0.950 . S
H1072 C1082 0.950 . S
H1073 C1084 0.950 . S
H1074 C1086 0.950 . S
H1075 C1087 0.950 . S
C1076 H1068 0.950 . S
C1076 C1077 1.386 . S
C1076 C1078 1.391 . S
C1077 C1076 1.386 . S
C1077 C1081 1.393 . S
C1078 H1070 0.950 . S
C1078 C1076 1.391 . S
C1078 C1079 1.400 . S
C1079 C1078 1.400 . S
C1079 C1080 1.398 . S
C1079 C1085 1.491 . S
C1080 H1071 0.950 . S
C1080 C1079 1.398 . S
C1080 C1081 1.391 . S
C1081 H1069 0.950 . S
C1081 C1077 1.393 . S
C1081 C1080 1.391 . S
C1082 H1072 0.950 . S
C1082 C1083 1.386 . S
C1082 C1084 1.391 . S
C1083 C1082 1.386 . S
C1083 C1087 1.393 . S
C1084 H1073 0.950 . S
C1084 C1082 1.391 . S
C1084 C1085 1.400 . S
C1085 C1079 1.491 . S
C1085 C1084 1.400 . S
C1085 C1086 1.398 . S
C1086 H1074 0.950 . S
C1086 C1085 1.398 . S
C1086 C1087 1.391 . S
C1087 H1075 0.950 . S
C1087 C1083 1.393 . S
C1087 C1086 1.391 . S
H1088 C1096 0.950 . S
H1089 C1101 0.950 . S
H1090 C1098 0.950 . S
H1091 C1100 0.950 . S
H1092 C1102 0.950 . S
H1093 C1104 0.950 . S
H1094 C1106 0.950 . S
H1095 C1107 0.950 . S
C1096 H1088 0.950 . S
C1096 C1097 1.386 . S
C1096 C1098 1.391 . S
C1097 C1096 1.386 . S
C1097 C1101 1.393 . S
C1098 H1090 0.950 . S
C1098 C1096 1.391 . S
C1098 C1099 1.400 . S
C1099 C1098 1.400 . S
C1099 C1100 1.398 . S
C1099 C1105 1.491 . S
C1100 H1091 0.950 . S
C1100 C1099 1.398 . S
C1100 C1101 1.391 . S
C1101 H1089 0.950 . S
C1101 C1097 1.393 . S
C1101 C1100 1.391 . S
C1102 H1092 0.950 . S
C1102 C1103 1.386 . S
C1102 C1104 1.391 . S
C1103 C1102 1.386 . S
C1103 C1107 1.393 . S
C1104 H1093 0.950 . S
C1104 C1102 1.391 . S
C1104 C1105 1.400 . S
C1105 C1099 1.491 . S
C1105 C1104 1.400 . S
C1105 C1106 1.398 . S
C1106 H1094 0.950 . S
C1106 C1105 1.398 . S
C1106 C1107 1.391 . S
C1107 H1095 0.950 . S
C1107 C1103 1.393 . S
C1107 C1106 1.391 . S
H1108 C1116 0.950 . S
H1109 C1121 0.950 . S
H1110 C1118 0.950 . S
H1111 C1120 0.950 . S
H1112 C1122 0.950 . S
H1113 C1124 0.950 . S
H1114 C1126 0.950 . S
H1115 C1127 0.950 . S
C1116 H1108 0.950 . S
C1116 C1117 1.386 . S
C1116 C1118 1.391 . S
C1117 C1116 1.386 . S
C1117 C1121 1.393 . S
C1118 H1110 0.950 . S
C1118 C1116 1.391 . S
C1118 C1119 1.400 . S
C1119 C1118 1.400 . S
C1119 C1120 1.398 . S
C1119 C1125 1.491 . S
C1120 H1111 0.950 . S
C1120 C1119 1.398 . S
C1120 C1121 1.391 . S
C1121 H1109 0.950 . S
C1121 C1117 1.393 . S
C1121 C1120 1.391 . S
C1122 H1112 0.950 . S
C1122 C1123 1.386 . S
C1122 C1124 1.391 . S
C1123 C1122 1.386 . S
C1123 C1127 1.393 . S
C1124 H1113 0.950 . S
C1124 C1122 1.391 . S
C1124 C1125 1.400 . S
C1125 C1119 1.491 . S
C1125 C1124 1.400 . S
C1125 C1126 1.398 . S
C1126 H1114 0.950 . S
C1126 C1125 1.398 . S
C1126 C1127 1.391 . S
C1127 H1115 0.950 . S
C1127 C1123 1.393 . S
C1127 C1126 1.391 . S
H1128 C1136 0.950 . S
H1129 C1141 0.950 . S
H1130 C1138 0.950 . S
H1131 C1140 0.950 . S
H1132 C1142 0.950 . S
H1133 C1144 0.950 . S
H1134 C1146 0.950 . S
H1135 C1147 0.950 . S
C1136 H1128 0.950 . S
C1136 C1137 1.386 . S
C1136 C1138 1.391 . S
C1137 C1136 1.386 . S
C1137 C1141 1.393 . S
C1138 H1130 0.950 . S
C1138 C1136 1.391 . S
C1138 C1139 1.400 . S
C1139 C1138 1.400 . S
C1139 C1140 1.398 . S
C1139 C1145 1.491 . S
C1140 H1131 0.950 . S
C1140 C1139 1.398 . S
C1140 C1141 1.391 . S
C1141 H1129 0.950 . S
C1141 C1137 1.393 . S
C1141 C1140 1.391 . S
C1142 H1132 0.950 . S
C1142 C1143 1.386 . S
C1142 C1144 1.391 . S
C1143 C1142 1.386 . S
C1143 C1147 1.393 . S
C1144 H1133 0.950 . S
C1144 C1142 1.391 . S
C1144 C1145 1.400 . S
C1145 C1139 1.491 . S
C1145 C1144 1.400 . S
C1145 C1146 1.398 . S
C1146 H1134 0.950 . S
C1146 C1145 1.398 . S
C1146 C1147 1.391 . S
C1147 H1135 0.950 . S
C1147 C1143 1.393 . S
C1147 C1146 1.391 . S
H1148 C1156 0.950 1_554 S
H1149 C1161 0.950 . S
H1150 C1158 0.950 . S
H1151 C1160 0.950 . S
H1152 C1162 0.950 . S
H1153 C1164 0.950 . S
H1154 C1166 0.950 . S
H1155 C1167 0.950 . S
C1156 H1148 0.950 1_556 S
C1156 C1157 1.386 . S
C1156 C1158 1.391 . S
C1157 C1156 1.386 . S
C1157 C1161 1.393 . S
C1158 H1150 0.950 . S
C1158 C1156 1.391 . S
C1158 C1159 1.400 . S
C1159 C1158 1.400 . S
C1159 C1160 1.398 . S
C1159 C1165 1.491 . S
C1160 H1151 0.950 . S
C1160 C1159 1.398 . S
C1160 C1161 1.391 . S
C1161 H1149 0.950 . S
C1161 C1157 1.393 . S
C1161 C1160 1.391 . S
C1162 H1152 0.950 . S
C1162 C1163 1.386 . S
C1162 C1164 1.391 . S
C1163 C1162 1.386 . S
C1163 C1167 1.393 . S
C1164 H1153 0.950 . S
C1164 C1162 1.391 . S
C1164 C1165 1.400 . S
C1165 C1159 1.491 . S
C1165 C1164 1.400 . S
C1165 C1166 1.398 . S
C1166 H1154 0.950 . S
C1166 C1165 1.398 . S
C1166 C1167 1.391 . S
C1167 H1155 0.950 . S
C1167 C1163 1.393 . S
C1167 C1166 1.391 . S
H1168 C1176 0.950 . S
H1169 C1181 0.950 . S
H1170 C1178 0.950 . S
H1171 C1180 0.950 . S
H1172 C1182 0.950 . S
H1173 C1184 0.950 . S
H1174 C1186 0.950 . S
H1175 C1187 0.950 . S
C1176 H1168 0.950 . S
C1176 C1177 1.386 . S
C1176 C1178 1.391 . S
C1177 C1176 1.386 . S
C1177 C1181 1.393 . S
C1178 H1170 0.950 . S
C1178 C1176 1.391 . S
C1178 C1179 1.400 . S
C1179 C1178 1.400 . S
C1179 C1180 1.398 . S
C1179 C1185 1.491 . S
C1180 H1171 0.950 . S
C1180 C1179 1.398 . S
C1180 C1181 1.391 . S
C1181 H1169 0.950 . S
C1181 C1177 1.393 . S
C1181 C1180 1.391 . S
C1182 H1172 0.950 . S
C1182 C1183 1.386 . S
C1182 C1184 1.391 . S
C1183 C1182 1.386 . S
C1183 C1187 1.393 . S
C1184 H1173 0.950 . S
C1184 C1182 1.391 . S
C1184 C1185 1.400 . S
C1185 C1179 1.491 . S
C1185 C1184 1.400 . S
C1185 C1186 1.398 . S
C1186 H1174 0.950 . S
C1186 C1185 1.398 . S
C1186 C1187 1.391 . S
C1187 H1175 0.950 . S
C1187 C1183 1.393 . S
C1187 C1186 1.391 . S
C717 C33 1.024 . S
C723 C406 1.012 . S
C737 C111 1.024 . S
C743 C446 1.015 . S
C757 C524 1.019 . S
C763 C170 1.013 . S
C777 C210 1.025 . S
C783 C583 1.012 . S
C797 C288 1.016 . S
C803 C623 1.019 . S
C817 C701 1.013 . S
C823 C347 1.020 . S
C837 C505 1.706 . S
C843 C52 1.720 . S
C857 C92 1.717 . S
C863 C564 1.718 . S
C877 C642 1.719 1_556 S
C883 C151 1.705 . S
C897 C682 1.698 . S
C903 C229 1.717 1_554 S
C917 C269 1.700 . S
C923 C387 1.698 . S
C937 C328 1.718 . S
C943 C465 1.731 . S
C957 C654 1.451 . S
C963 C3 1.447 . S
C977 C359 1.447 . S
C983 C64 1.447 . S
C997 C123 1.451 . S
C1003 C416 1.448 . S
C1017 C477 1.449 . S
C1023 C180 1.447 . S
C1037 C536 1.447 . S
C1043 C241 1.448 . S
C1057 C593 1.450 . S
C1063 C300 1.450 . S
C1077 C5 1.249 . S
C1083 C595 1.269 . S
C1097 C652 1.253 . S
C1103 C62 1.241 . S
C1117 C121 1.244 . S
C1123 C357 1.243 . S
C1137 C182 1.260 . S
C1143 C418 1.260 . S
C1157 C239 1.259 1_556 S
C1163 C475 1.231 . S
C1177 C298 1.237 . S
C1183 C534 1.250 1_554 S
