# Generated by pormake.
# Topology ooa, (5)-cn, num edge types: 1
# Building blocks:
#     Node 0, Type 0, BuildingBlock: XOMCOT_clean_sbu_0, # of connection points: 5
#     Node 1, Type 0, BuildingBlock: XOMCOT_clean_sbu_0, # of connection points: 5
#     Node 2, Type 0, BuildingBlock: XOMCOT_clean_sbu_0, # of connection points: 5
#     Node 3, Type 0, BuildingBlock: XOMCOT_clean_sbu_0, # of connection points: 5
#     Node 4, Type 0, BuildingBlock: XOMCOT_clean_sbu_0, # of connection points: 5
#     Node 5, Type 0, BuildingBlock: XOMCOT_clean_sbu_0, # of connection points: 5
#     Node 6, Type 0, BuildingBlock: XOMCOT_clean_sbu_0, # of connection points: 5
#     Node 7, Type 0, BuildingBlock: XOMCOT_clean_sbu_0, # of connection points: 5
#     Edge 8, Type (0, 0), BuildingBlock: ZUJKAS_clean_linker_0, # of connection points: 2
#     Edge 9, Type (0, 0), BuildingBlock: ZUJKAS_clean_linker_0, # of connection points: 2
#     Edge 10, Type (0, 0), BuildingBlock: ZUJKAS_clean_linker_0, # of connection points: 2
#     Edge 11, Type (0, 0), BuildingBlock: ZUJKAS_clean_linker_0, # of connection points: 2
#     Edge 12, Type (0, 0), BuildingBlock: ZUJKAS_clean_linker_0, # of connection points: 2
#     Edge 13, Type (0, 0), BuildingBlock: ZUJKAS_clean_linker_0, # of connection points: 2
#     Edge 14, Type (0, 0), BuildingBlock: ZUJKAS_clean_linker_0, # of connection points: 2
#     Edge 15, Type (0, 0), BuildingBlock: ZUJKAS_clean_linker_0, # of connection points: 2
#     Edge 16, Type (0, 0), BuildingBlock: ZUJKAS_clean_linker_0, # of connection points: 2
#     Edge 17, Type (0, 0), BuildingBlock: ZUJKAS_clean_linker_0, # of connection points: 2
#     Edge 18, Type (0, 0), BuildingBlock: ZUJKAS_clean_linker_0, # of connection points: 2
#     Edge 19, Type (0, 0), BuildingBlock: ZUJKAS_clean_linker_0, # of connection points: 2
#     Edge 20, Type (0, 0), BuildingBlock: ZUJKAS_clean_linker_0, # of connection points: 2
#     Edge 21, Type (0, 0), BuildingBlock: ZUJKAS_clean_linker_0, # of connection points: 2
#     Edge 22, Type (0, 0), BuildingBlock: ZUJKAS_clean_linker_0, # of connection points: 2
#     Edge 23, Type (0, 0), BuildingBlock: ZUJKAS_clean_linker_0, # of connection points: 2
#     Edge 24, Type (0, 0), BuildingBlock: ZUJKAS_clean_linker_0, # of connection points: 2
#     Edge 25, Type (0, 0), BuildingBlock: ZUJKAS_clean_linker_0, # of connection points: 2
#     Edge 26, Type (0, 0), BuildingBlock: ZUJKAS_clean_linker_0, # of connection points: 2
#     Edge 27, Type (0, 0), BuildingBlock: ZUJKAS_clean_linker_0, # of connection points: 2
# Relax obj value: 0.356
# Max RMSD: 0.213
# Mean RMSD: 0.213
data_MOF--net-ooa--node1-XOMCOT_clean_sbu_0--edge1-ZUJKAS_clean_linker_0
_symmetry_space_group_name_H-M    P1
_symmetry_Int_Tables_number       1
_symmetry_cell_setting            triclinic
loop_
_symmetry_equiv_pos_as_xyz
'x, y, z'
_cell_length_a     37.429773
_cell_length_b     40.327058
_cell_length_c     59.805332
_cell_angle_alpha  90.022255
_cell_angle_beta   89.948037
_cell_angle_gamma 89.99131
loop_
_atom_site_label
_atom_site_type_symbol
_atom_site_fract_x
_atom_site_fract_y
_atom_site_fract_z
_atom_type_partial_charge
Co0 Co 0.07481 0.1976 0.06554 0.0
C1 C 1.00964 0.23326 0.05101 0.0
C2 C 0.05561 0.24973 0.03292 0.0
C3 C 0.02567 0.26384 0.0235 0.0
N4 N 0.04574 0.23094 0.05051 0.0
N5 N 0.99659 0.25329 0.03479 0.0
H6 H 0.99302 0.2187 0.06199 0.0
H7 H 0.08225 0.25098 0.02603 0.0
C8 C 0.13272 0.25006 0.05828 0.0
O9 O 0.11324 0.27376 0.06719 0.0
N10 N 0.10286 0.16381 0.07998 0.0
C11 C 0.09485 0.14844 0.09933 0.0
C12 C 0.11999 0.1243 0.10318 0.0
C13 C 0.13228 0.14859 0.07207 0.0
N14 N 0.1434 0.12438 0.08601 0.0
C15 C 0.03915 0.22295 0.10466 0.0
C16 C 0.10077 0.23483 0.12881 0.0
C17 C 0.06784 0.23597 0.13996 0.0
C18 C 0.03667 0.23097 0.12739 0.0
C19 C 0.10207 0.22677 0.10611 0.0
N20 N 0.07155 0.22048 0.09427 0.0
H21 H 0.0151 0.21603 0.09603 0.0
H22 H 0.12797 0.22273 0.09867 0.0
H23 H 0.07185 0.15393 0.10966 0.0
H24 H 0.14491 0.15481 0.05633 0.0
O25 O 0.03388 0.16817 0.06783 0.0
O26 O 0.0718 0.1703 0.03935 0.0
O27 O 0.12061 0.22056 0.05687 0.0
C28 C 0.0444 0.15617 0.04865 0.0
H29 H 0.02532 0.2786 1.0084 0.0
H30 H 0.12023 0.10717 0.11711 0.0
H31 H 0.12557 0.23851 0.13779 0.0
H32 H 1.01068 0.23088 0.13536 0.0
Co33 Co 0.45564 0.7849 0.06703 0.0
C34 C 0.51917 0.74867 0.05078 0.0
C35 C 0.47251 0.73444 0.03259 0.0
C36 C 0.50197 0.72044 0.0224 0.0
N37 N 0.48314 0.75162 0.05078 0.0
N38 N 0.53139 0.72973 0.03377 0.0
H39 H 0.53651 0.76226 0.06186 0.0
H40 H 0.44572 0.73441 0.02588 0.0
C41 C 0.3973 0.73278 0.0599 0.0
O42 O 0.41854 0.70794 0.06491 0.0
N43 N 0.42929 0.81877 0.08264 0.0
C44 C 0.43844 0.83307 0.10217 0.0
C45 C 0.41588 0.85933 0.10604 0.0
C46 C 0.40171 0.83667 0.0747 0.0
N47 N 0.39296 0.86167 0.0887 0.0
C48 C 0.49426 0.75995 0.10504 0.0
C49 C 0.43461 0.74538 0.13047 0.0
C50 C 0.46821 0.74505 0.14083 0.0
C51 C 0.49837 0.7514 0.12755 0.0
C52 C 0.43168 0.75385 0.10788 0.0
N53 N 0.46123 0.76153 0.09543 0.0
H54 H 0.51753 0.76792 0.09599 0.0
H55 H 0.40523 0.7573 0.10115 0.0
H56 H 0.46098 0.82588 0.11237 0.0
H57 H 0.38925 0.83213 0.05867 0.0
O58 O 0.49701 0.81394 0.06798 0.0
O59 O 0.4566 0.81247 0.0409 0.0
O60 O 0.40878 0.76256 0.06014 0.0
C61 C 0.48496 0.82622 0.04927 0.0
H62 H 0.50196 0.7069 1.00677 0.0
H63 H 0.41756 0.87649 0.11992 0.0
H64 H 0.4104 0.74157 0.14005 0.0
H65 H 0.52493 0.75135 0.13472 0.0
Co66 Co 0.073 0.28476 0.45489 0.0
C67 C 1.00947 0.24842 0.47098 0.0
C68 C 0.05598 0.23476 0.48954 0.0
C69 C 0.02649 0.22067 0.49961 0.0
N70 N 0.04547 0.25163 0.47119 0.0
N71 N 0.99717 0.22959 0.48802 0.0
H72 H 0.99219 0.26172 0.45972 0.0
H73 H 0.08268 0.23499 0.49638 0.0
C74 C 0.13101 0.23225 0.46214 0.0
O75 O 0.10954 0.20742 0.45751 0.0
N76 N 0.09943 0.31842 0.43919 0.0
C77 C 0.09013 0.33283 0.41973 0.0
C78 C 0.11329 0.35853 0.41558 0.0
C79 C 0.12768 0.33568 0.4468 0.0
N80 N 0.13674 0.36039 0.43267 0.0
C81 C 0.03389 0.26076 0.41677 0.0
C82 C 0.09323 0.2445 0.39152 0.0
C83 C 0.05969 0.24485 0.38108 0.0
C84 C 0.02966 0.25214 0.39426 0.0
C85 C 0.09628 0.25311 0.41408 0.0
N86 N 0.06689 0.26152 0.42646 0.0
H87 H 1.01082 0.26944 0.42573 0.0
H88 H 0.1228 0.256 0.42081 0.0
H89 H 0.0672 0.32606 0.40974 0.0
H90 H 0.14052 0.33085 0.46268 0.0
O91 O 0.03183 0.31416 0.4543 0.0
O92 O 0.07268 0.3122 0.48109 0.0
O93 O 0.11976 0.2621 0.46156 0.0
C94 C 0.04427 0.3262 0.47298 0.0
H95 H 0.02638 0.2073 0.51531 0.0
H96 H 0.11173 0.37564 0.40168 0.0
H97 H 0.11738 0.24002 0.382 0.0
H98 H 1.00316 0.25271 0.38703 0.0
Co99 Co 0.45358 0.6972 0.45621 0.0
C100 C 0.51802 0.73307 0.47138 0.0
C101 C 0.4719 0.74835 0.48982 0.0
C102 C 0.5017 0.76242 0.49948 0.0
N103 N 0.48197 0.73043 0.47182 0.0
N104 N 0.53077 0.7525 0.48798 0.0
H105 H 0.53496 0.719 0.46028 0.0
H106 H 0.44529 0.74887 0.4968 0.0
C107 C 0.39592 0.7498 0.46379 0.0
O108 O 0.41685 0.77413 0.45732 0.0
N109 N 0.42627 0.66349 0.44117 0.0
C110 C 0.43465 0.64877 0.42164 0.0
C111 C 0.41009 0.62422 0.4175 0.0
C112 C 0.39725 0.64746 0.4489 0.0
N113 N 0.38671 0.62338 0.43467 0.0
C114 C 0.49047 0.72186 0.41736 0.0
C115 C 0.42947 0.73575 0.39309 0.0
C116 C 0.46246 0.73571 0.382 0.0
C117 C 0.49337 0.72979 0.39462 0.0
C118 C 0.42774 0.72772 0.41577 0.0
N119 N 0.45793 0.72035 0.42765 0.0
H120 H 0.5142 0.71412 0.42603 0.0
H121 H 0.40163 0.7244 0.42305 0.0
H122 H 0.45756 0.65489 0.41142 0.0
H123 H 0.38459 0.65294 0.46475 0.0
O124 O 0.49467 0.66785 0.45453 0.0
O125 O 0.45555 0.66972 0.48236 0.0
O126 O 0.40729 0.71997 0.46406 0.0
C127 C 0.48341 0.65572 0.47349 0.0
H128 H 0.50216 0.77642 0.51493 0.0
H129 H 0.41029 0.6074 0.40339 0.0
H130 H 0.40487 0.74019 0.38405 0.0
H131 H 0.51938 0.72882 0.3867 0.0
Co132 Co 0.95604 0.78461 0.95679 0.0
C133 C 0.01931 0.74702 0.97235 0.0
C134 C 0.97216 0.73261 0.99009 0.0
C135 C 1.00127 0.71801 1.0002 0.0
N136 N 0.98331 0.7505 0.97233 0.0
N137 N 0.03093 0.72719 0.98902 0.0
H138 H 0.03716 0.76142 0.962 0.0
H139 H 0.94523 0.73236 0.99659 0.0
C140 C 0.89674 0.73336 0.96285 0.0
O141 O 0.91634 0.70936 0.95444 0.0
N142 N 0.92981 0.81921 0.94189 0.0
C143 C 0.93928 0.83439 0.92273 0.0
C144 C 0.91632 0.86039 0.91907 0.0
C145 C 0.90165 0.83633 0.94984 0.0
N146 N 0.89279 0.86168 0.93617 0.0
C147 C 0.99306 0.75832 0.91848 0.0
C148 C 0.93256 0.74781 0.89297 0.0
C149 C 0.9661 0.74546 0.88261 0.0
C150 C 0.99662 0.74987 0.89589 0.0
C151 C 0.93019 0.7562 0.91559 0.0
N152 N 0.96019 0.76175 0.9281 0.0
H153 H 0.01681 0.76454 0.92765 0.0
H154 H 0.90403 0.76112 0.92243 0.0
H155 H 0.96213 0.82778 0.91259 0.0
H156 H 0.88867 0.83086 0.96559 0.0
O157 O 0.9979 0.81302 0.95543 0.0
O158 O 0.95846 0.81167 0.98311 0.0
O159 O 0.90921 0.76271 0.96443 0.0
C160 C 0.98671 0.8252 0.9744 0.0
H161 H 1.0008 0.70335 0.01535 0.0
H162 H 0.91799 0.87799 0.90545 0.0
H163 H 0.90817 0.74556 0.88337 0.0
H164 H 0.02313 0.74825 0.88871 0.0
Co165 Co 0.57447 0.19743 0.95515 0.0
C166 C 0.51031 0.23438 0.96968 0.0
C167 C 0.556 0.248 0.98905 0.0
C168 C 0.52613 0.26227 0.99854 0.0
N169 N 0.54627 0.23099 0.9706 0.0
N170 N 0.49731 0.25339 0.98645 0.0
H171 H 0.49355 0.2211 0.9581 0.0
H172 H 0.58237 0.2477 0.99638 0.0
C173 C 0.63222 0.24992 0.96293 0.0
O174 O 0.61104 0.2745 0.95727 0.0
N175 N 0.6016 0.16333 0.94033 0.0
C176 C 0.59316 0.14833 0.92091 0.0
C177 C 0.61569 0.1218 0.91788 0.0
C178 C 0.62883 0.14571 0.94897 0.0
N179 N 0.63791 0.12005 0.93561 0.0
C180 C 0.53742 0.2202 0.91597 0.0
C181 C 0.59792 0.23669 0.89193 0.0
C182 C 0.56507 0.23541 0.8807 0.0
C183 C 0.53439 0.22801 0.89325 0.0
C184 C 0.59982 0.22851 0.91459 0.0
N185 N 0.56986 0.22005 0.9264 0.0
H186 H 0.51398 0.2114 0.92451 0.0
H187 H 0.62598 0.22618 0.92193 0.0
H188 H 0.57119 0.1553 0.91018 0.0
H189 H 0.6402 0.15038 0.9653 0.0
O190 O 0.53326 0.16823 0.95388 0.0
O191 O 0.57255 0.17045 0.98155 0.0
O192 O 0.62095 0.22007 0.96264 0.0
C193 C 0.54463 0.15636 0.97287 0.0
H194 H 0.52539 0.27571 0.0142 0.0
H195 H 0.61512 0.10466 0.90396 0.0
H196 H 0.62239 0.24235 0.88304 0.0
H197 H 0.50852 0.22588 0.88529 0.0
Co198 Co 0.95443 0.69734 0.56673 0.0
C199 C 0.01898 0.73414 0.55253 0.0
C200 C 0.97289 0.74991 0.53431 0.0
C201 C 1.00267 0.76441 0.52493 0.0
N202 N 0.98294 0.7313 0.55194 0.0
N203 N 0.03181 0.75428 0.53629 0.0
H204 H 0.03575 0.71978 0.56351 0.0
H205 H 0.94631 0.75068 0.52732 0.0
C206 C 0.89584 0.74927 0.55969 0.0
O207 O 0.91512 0.77331 0.56831 0.0
N208 N 0.92691 0.66294 0.58092 0.0
C209 C 0.93492 0.64751 0.60024 0.0
C210 C 0.91075 0.62234 0.60355 0.0
C211 C 0.89847 0.64677 0.57251 0.0
N212 N 0.88798 0.62185 0.58608 0.0
C213 C 0.98977 0.72195 0.60613 0.0
C214 C 0.92796 0.73382 0.63016 0.0
C215 C 0.96078 0.7347 0.64141 0.0
C216 C 0.99205 0.72969 0.62891 0.0
C217 C 0.92685 0.72595 0.60743 0.0
N218 N 0.95747 0.71972 0.59564 0.0
H219 H 1.01388 0.71504 0.59752 0.0
H220 H 0.90101 0.72201 0.59994 0.0
H221 H 0.95741 0.65351 0.61083 0.0
H222 H 0.88627 0.65273 0.55661 0.0
O223 O 0.99576 0.6683 0.56862 0.0
O224 O 0.95767 0.67064 0.54029 0.0
O225 O 0.9083 0.71988 0.5584 0.0
C226 C 0.98525 0.65655 0.54938 0.0
H227 H 1.00294 0.77904 0.50977 0.0
H228 H 0.91089 0.60487 0.61729 0.0
H229 H 0.90308 0.73754 0.63907 0.0
H230 H 0.01797 0.72938 0.63695 0.0
Co231 Co 0.57296 0.28389 0.56511 0.0
C232 C 0.50933 0.2464 0.55001 0.0
C233 C 0.55597 0.23283 0.53142 0.0
C234 C 0.52663 0.21841 0.52148 0.0
N235 N 0.5453 0.25008 0.54958 0.0
N236 N 0.49727 0.22711 0.53314 0.0
H237 H 0.49178 0.26032 0.56085 0.0
H238 H 0.58266 0.23299 0.52456 0.0
C239 C 0.63161 0.23222 0.55804 0.0
O240 O 0.61177 0.20814 0.56609 0.0
N241 N 0.59963 0.31817 0.58004 0.0
C242 C 0.59058 0.33301 0.59941 0.0
C243 C 0.61363 0.35891 0.60311 0.0
C244 C 0.62766 0.33539 0.57202 0.0
N245 N 0.63684 0.36048 0.58585 0.0
C246 C 0.53647 0.25883 0.60395 0.0
C247 C 0.59756 0.24613 0.62842 0.0
C248 C 0.5645 0.24567 0.63946 0.0
C249 C 0.53358 0.25107 0.62671 0.0
C250 C 0.5993 0.25423 0.60575 0.0
N251 N 0.56905 0.26088 0.59374 0.0
H252 H 0.51265 0.26602 0.59516 0.0
H253 H 0.62537 0.25805 0.59852 0.0
H254 H 0.56789 0.32631 0.60966 0.0
H255 H 0.64029 0.33021 0.55611 0.0
O256 O 0.5313 0.31256 0.56677 0.0
O257 O 0.5704 0.31119 0.5389 0.0
O258 O 0.61955 0.26179 0.55708 0.0
C259 C 0.54234 0.32482 0.54779 0.0
H260 H 0.52673 0.20427 0.5061 0.0
H261 H 0.61219 0.37629 0.61688 0.0
H262 H 0.62221 0.24197 0.63746 0.0
H263 H 0.50748 0.2517 0.63452 0.0
H264 H 0.0552 0.1313 1.00698 0.0
H265 H 0.04379 0.07477 0.99436 0.0
H266 H 0.99219 0.05266 0.0571 0.0
H267 H 1.00382 0.10941 0.07 0.0
H268 H 0.04827 0.00897 0.04559 0.0
H269 H 0.95394 0.02451 0.97487 0.0
H270 H 0.99245 0.05097 0.97335 0.0
H271 H 0.96086 0.05625 0.99573 0.0
C272 C 0.04057 0.1147 0.01789 0.0
C273 C 0.03037 0.12477 0.03948 0.0
C274 C 0.03399 0.0824 1.01061 0.0
C275 C 0.01699 0.05958 0.02474 0.0
C276 C 1.00523 0.06999 0.04592 0.0
H277 H 0.97528 0.84975 0.01608 0.0
H278 H 0.98661 0.90621 0.02893 0.0
C279 C 1.01165 0.10245 0.0532 0.0
C280 C 0.01481 0.02421 0.01817 0.0
H281 H 0.98266 0.97202 0.978 0.0
C282 C 0.03367 0.00081 0.03092 0.0
C283 C 0.99611 0.01375 0.99889 0.0
C284 C 0.97442 0.03761 0.985 0.0
C285 C 0.03477 0.96724 0.02472 0.0
C286 C 0.01613 0.9568 1.00542 0.0
C287 C 0.99724 0.98019 0.99267 0.0
C288 C 1.01407 0.92146 0.9988 0.0
C289 C 0.05638 0.94334 0.03862 0.0
C290 C 0.0263 0.9111 0.97771 0.0
C291 C 0.01998 0.87868 0.97032 0.0
C292 C 1.00086 0.85636 0.98383 0.0
C293 C 0.99022 0.86637 1.00535 0.0
C294 C 0.99674 0.89862 0.01275 0.0
H295 H 0.0766 0.95641 0.04897 0.0
H296 H 0.03823 0.92971 0.05006 0.0
H297 H 0.07023 0.92491 0.02786 0.0
H298 H 0.03961 0.92845 0.96667 0.0
H299 H 0.02812 0.87178 0.95357 0.0
H300 H 0.55749 0.1314 0.01428 0.0
H301 H 0.5466 0.07474 0.02703 0.0
H302 H 0.49168 0.05306 0.96539 0.0
H303 H 0.50263 0.10987 0.95241 0.0
H304 H 0.48274 0.03526 0.03168 0.0
H305 H 0.57727 0.98663 0.96774 0.0
H306 H 0.5751 0.02999 0.97515 0.0
H307 H 0.54166 0.01222 0.95729 0.0
C308 C 0.54242 0.1148 1.00362 0.0
C309 C 0.53107 0.12498 0.98229 0.0
C310 C 0.53631 0.08243 0.01091 0.0
C311 C 0.51902 0.05962 0.99695 0.0
C312 C 0.50561 0.07025 0.97623 0.0
H313 H 0.47111 0.85152 1.00808 0.0
H314 H 0.48248 0.90807 0.99526 0.0
C315 C 0.51154 0.10277 0.96895 0.0
C316 C 0.51689 0.02437 1.00366 0.0
H317 H 0.54768 0.94708 0.99034 0.0
C318 C 0.49693 0.01595 0.02269 0.0
C319 C 0.53576 -0.00062 0.99196 0.0
C320 C 0.55893 0.00737 0.972 0.0
C321 C 0.49473 0.98298 0.03008 0.0
C322 C 0.51353 0.95799 0.01835 0.0
C323 C 0.53351 0.9664 0.99934 0.0
C324 C 0.5112 0.92273 0.02501 0.0
C325 C 0.47167 0.97498 0.05009 0.0
C326 C 0.52503 0.9119 0.04557 0.0
C327 C 0.51882 0.87945 0.05289 0.0
C328 C 0.49857 0.85752 0.03976 0.0
C329 C 0.48673 0.8679 0.01858 0.0
C330 C 0.49313 0.9002 0.01124 0.0
H331 H 0.45371 -0.00412 0.05459 0.0
H332 H 0.45514 0.95263 0.04682 0.0
H333 H 0.48904 0.96962 0.06467 0.0
H334 H 0.53948 0.9289 0.05628 0.0
H335 H 0.52812 0.87218 0.06932 0.0
H336 H 0.02746 0.61025 0.56997 0.0
H337 H 0.03872 0.5535 0.55705 0.0
H338 H 0.98447 0.57502 0.49515 0.0
H339 H 0.9729 0.63148 0.50796 0.0
H340 H 0.95733 0.51969 0.51799 0.0
H341 H 0.10498 0.51295 0.50933 0.0
H342 H 0.08922 0.52896 0.5356 0.0
H343 H 0.0811 0.55185 0.51035 0.0
C344 C 0.01892 0.60317 0.55334 0.0
C345 C 0.99928 0.62528 0.53999 0.0
C346 C 0.0253 0.57072 0.546 0.0
C347 C 1.01241 0.56009 0.52513 0.0
C348 C 0.99455 0.58272 0.51132 0.0
H349 H 1.00074 0.37268 0.45374 0.0
H350 H 0.98982 0.42911 0.46738 0.0
C351 C 0.98812 0.61502 0.51864 0.0
C352 C 0.01463 0.52477 0.51845 0.0
H353 H 0.07307 0.46246 0.50618 0.0
C354 C 0.98262 0.50715 0.51532 0.0
C355 C 0.04763 0.50852 0.51511 0.0
C356 C 0.08274 0.52653 0.51757 0.0
C357 C 0.98274 0.47356 0.50916 0.0
C358 C 0.01576 0.45734 0.5057 0.0
C359 C 0.04776 0.47495 0.5089 0.0
C360 C 0.01801 0.42215 0.49864 0.0
C361 C 0.94759 0.45557 0.50687 0.0
C362 C 0.03697 0.39942 0.5118 0.0
C363 C 0.04333 0.36733 0.50402 0.0
C364 C 0.0309 0.35736 0.48289 0.0
C365 C 1.01026 0.37955 0.4702 0.0
C366 C 1.00404 0.4118 0.47798 0.0
H367 H 0.92571 0.46869 0.5158 0.0
H368 H 0.9403 0.45415 0.48891 0.0
H369 H 0.94952 0.42989 0.51345 0.0
H370 H 0.04792 0.40687 0.5278 0.0
H371 H 0.05933 0.35079 0.51418 0.0
H372 H 0.47126 0.63081 0.515 0.0
H373 H 0.48279 0.57439 0.52783 0.0
H374 H 0.5367 0.55252 0.4658 0.0
H375 H 0.52502 0.60916 0.45272 0.0
H376 H 0.48018 0.50847 0.47683 0.0
H377 H 0.57297 0.52491 0.54831 0.0
H378 H 0.5343 0.55125 0.54924 0.0
H379 H 0.5665 0.55638 0.5272 0.0
C380 C 0.4864 0.61428 0.5043 0.0
C381 C 0.49727 0.62439 0.48285 0.0
C382 C 0.49304 0.58205 0.5117 0.0
C383 C 0.51074 0.55933 0.49782 0.0
C384 C 0.52312 0.56978 0.47679 0.0
H385 H 0.55389 0.3498 0.50625 0.0
H386 H 0.54231 0.40628 0.49359 0.0
C387 C 0.51666 0.60218 0.46941 0.0
C388 C 0.51307 0.524 0.50445 0.0
H389 H 0.54516 0.47212 0.54479 0.0
C390 C 0.49462 0.50044 0.49158 0.0
C391 C 0.53155 0.51372 0.52385 0.0
C392 C 0.55273 0.53781 0.53787 0.0
C393 C 0.49377 0.46688 0.49778 0.0
C394 C 0.51227 0.45659 0.51716 0.0
C395 C 0.53071 0.48015 0.53004 0.0
C396 C 0.51468 0.42123 0.52374 0.0
C397 C 0.47256 0.44281 0.48375 0.0
C398 C 0.5025 0.41071 0.5448 0.0
C399 C 0.50899 0.37826 0.55208 0.0
C400 C 0.52821 0.35609 0.53851 0.0
C401 C 0.53886 0.36628 0.51704 0.0
C402 C 0.5322 0.39856 0.50974 0.0
H403 H 0.45219 0.45572 0.47343 0.0
H404 H 0.49094 0.42952 0.47227 0.0
H405 H 0.45894 0.42412 0.4944 0.0
H406 H 0.48905 0.42793 0.55588 0.0
H407 H 0.50083 0.37122 0.5688 0.0
H408 H 0.35781 0.89681 0.12022 0.0
H409 H 0.31784 0.94385 0.11418 0.0
H410 H 0.33027 0.93312 0.04286 0.0
H411 H 0.37073 0.88619 0.04877 0.0
H412 H 0.33692 0.00369 0.08961 0.0
H413 H 0.21984 0.93681 0.0538 0.0
H414 H 0.25385 0.9158 0.06985 0.0
H415 H 0.26305 0.92872 0.04174 0.0
C416 C 0.35206 0.90444 0.10326 0.0
C417 C 0.36745 0.88779 0.08499 0.0
C418 C 0.32917 0.93121 0.09984 0.0
C419 C 0.32107 0.94175 0.0781 0.0
C420 C 0.33588 0.925 0.05976 0.0
H421 H 0.1692 0.10125 0.04659 0.0
H422 H 0.21619 0.05946 0.04156 0.0
C423 C 0.35886 0.89814 0.06317 0.0
C424 C 0.29794 0.97101 0.07493 0.0
H425 H 0.21403 -0.0057 0.05924 0.0
C426 C 0.31017 0.00176 0.08276 0.0
C427 C 0.26329 0.96835 0.06576 0.0
C428 C 0.24894 0.93567 0.05738 0.0
C429 C 0.28813 0.02983 0.08236 0.0
C430 C 0.25281 0.0268 0.07429 0.0
C431 C 0.24115 -0.00357 0.06545 0.0
C432 C 0.22652 0.05383 0.07694 0.0
C433 C 0.30261 0.06235 0.09092 0.0
C434 C 0.2169 0.06436 0.09846 0.0
C435 C 0.19024 0.08809 0.10136 0.0
C436 C 0.17257 0.10167 0.08279 0.0
C437 C 0.18267 0.09152 0.06118 0.0
C438 C 0.20931 0.06757 0.05829 0.0
H439 H 0.33224 0.06316 0.08986 0.0
H440 H 0.29148 0.0836 0.0814 0.0
H441 H 0.29502 0.06533 0.10875 0.0
H442 H 0.22944 0.05362 0.11308 0.0
H443 H 0.18321 0.09565 0.11817 0.0
H444 H 0.1719 0.39456 0.40068 0.0
H445 H 0.2129 0.44095 0.40619 0.0
H446 H 0.20241 0.43068 0.47766 0.0
H447 H 0.16093 0.3844 0.4723 0.0
H448 H 0.19478 0.50091 0.43082 0.0
H449 H 0.31252 0.43386 0.4656 0.0
H450 H 0.278 0.4129 0.44994 0.0
H451 H 0.26963 0.42592 0.47814 0.0
C452 C 0.17832 0.40212 0.41757 0.0
C453 C 0.1631 0.38587 0.43604 0.0
C454 C 0.20182 0.42852 0.42069 0.0
C455 C 0.2107 0.43903 0.44231 0.0
C456 C 0.19618 0.42255 0.46084 0.0
H457 H 0.36151 0.59907 0.4739 0.0
H458 H 0.3153 0.55651 0.47861 0.0
C459 C 0.17261 0.39608 0.45774 0.0
C460 C 0.23402 0.4682 0.44519 0.0
H461 H 0.31816 0.49146 0.46042 0.0
C462 C 0.22166 0.49896 0.43747 0.0
C463 C 0.26883 0.46549 0.45411 0.0
C464 C 0.28332 0.4328 0.46234 0.0
C465 C 0.24367 0.52703 0.4378 0.0
C466 C 0.27909 0.52399 0.44569 0.0
C467 C 0.29095 0.49358 0.45435 0.0
C468 C 0.30517 0.55119 0.44319 0.0
C469 C 0.22902 0.55959 0.42943 0.0
C470 C 0.31466 0.56211 0.42174 0.0
C471 C 0.34086 0.58631 0.41902 0.0
C472 C 0.35818 0.59995 0.4377 0.0
C473 C 0.34828 0.58931 0.45923 0.0
C474 C 0.3221 0.56492 0.46194 0.0
H475 H 0.19939 0.56028 0.43048 0.0
H476 H 0.24004 0.58077 0.43909 0.0
H477 H 0.23663 0.56283 0.41162 0.0
H478 H 0.30229 0.55139 0.40705 0.0
H479 H 0.34774 0.59422 0.40227 0.0
H480 H 0.8581 0.89703 0.90459 0.0
H481 H 0.81615 0.9425 0.91063 0.0
H482 H 0.82467 0.92905 0.98195 0.0
H483 H 0.86716 0.88363 0.97605 0.0
H484 H 0.75335 0.93704 0.96569 0.0
H485 H 0.84434 0.03514 0.93462 0.0
H486 H 0.83999 0.00088 0.91563 0.0
H487 H 0.85988 -0.00556 0.94265 0.0
C488 C 0.85127 0.90385 0.92156 0.0
C489 C 0.86623 0.88692 0.93983 0.0
C490 C 0.82732 0.92982 0.92499 0.0
C491 C 0.81795 0.93947 0.94673 0.0
C492 C 0.83185 0.92203 0.96504 0.0
H493 H 0.69809 0.12532 0.96051 0.0
H494 H 0.74202 0.08156 0.96782 0.0
C495 C 0.85591 0.89598 0.96163 0.0
C496 C 0.79335 0.96766 0.95008 0.0
H497 H 0.78215 0.04911 0.93655 0.0
C498 C 0.75975 0.96169 0.95965 0.0
C499 C 0.80214 -0.0001 0.94261 0.0
C500 C 0.83869 0.00814 0.93351 0.0
C501 C 0.73382 0.98677 0.96067 0.0
C502 C 0.74168 0.01832 0.95157 0.0
C503 C 0.77605 0.02479 0.94328 0.0
C504 C 0.71395 0.04409 0.94878 0.0
C505 C 0.69809 0.9791 0.97116 0.0
C506 C 0.68386 0.03754 0.93556 0.0
C507 C 0.65882 0.06236 0.93142 0.0
C508 C 0.66352 0.09436 0.94026 0.0
C509 C 0.69359 0.10084 0.95365 0.0
C510 C 0.71871 0.07593 0.95778 0.0
H511 H 0.70032 0.95875 0.9836 0.0
H512 H 0.68661 0.00127 0.97952 0.0
H513 H 0.67925 0.97088 0.95795 0.0
H514 H 0.68009 0.01336 0.92803 0.0
H515 H 0.63574 0.0564 0.92132 0.0
H516 H 0.67158 0.39577 0.61745 0.0
H517 H 0.71225 0.44219 0.61145 0.0
H518 H 0.7034 0.42925 0.54012 0.0
H519 H 0.66195 0.38296 0.54594 0.0
H520 H 0.77637 0.43897 0.55867 0.0
H521 H 0.67827 0.53398 0.58585 0.0
H522 H 0.68242 0.4994 0.60461 0.0
H523 H 0.66528 0.49292 0.57688 0.0
C524 C 0.67808 0.40284 0.60048 0.0
C525 C 0.66319 0.3859 0.58219 0.0
C526 C 0.70136 0.42931 0.59709 0.0
C527 C 0.71021 0.43938 0.57536 0.0
C528 C 0.6966 0.42186 0.55701 0.0
H529 H 0.86421 0.59928 0.54599 0.0
H530 H 0.81896 0.55626 0.5398 0.0
C531 C 0.67314 0.39532 0.56039 0.0
C532 C 0.73355 0.46846 0.57215 0.0
H533 H 0.73955 0.55069 0.58486 0.0
C534 C 0.76826 0.46358 0.56396 0.0
C535 C 0.72259 0.50043 0.57897 0.0
C536 C 0.68499 0.50719 0.58688 0.0
C537 C 0.79317 0.48961 0.56378 0.0
C538 C 0.7827 0.52118 0.57175 0.0
C539 C 0.74744 0.52638 0.57885 0.0
C540 C 0.80876 0.54821 0.57499 0.0
C541 C 0.83097 0.48279 0.55628 0.0
C542 C 0.81716 0.55839 0.59677 0.0
C543 C 0.84269 0.58296 0.60034 0.0
C544 C 0.86017 0.59796 0.58218 0.0
C545 C 0.851 0.58834 0.5603 0.0
C546 C 0.82546 0.56359 0.55674 0.0
H547 H 0.83595 0.45592 0.55359 0.0
H548 H 0.83615 0.49598 0.54032 0.0
H549 H 0.85031 0.49219 0.56885 0.0
H550 H 0.80434 0.54689 0.61105 0.0
H551 H 0.84881 0.59021 0.61733 0.0
H552 H 0.17545 0.20819 0.03451 0.0
H553 H 0.2367 0.21699 0.02213 0.0
H554 H 0.23574 0.31496 0.05095 0.0
H555 H 0.17386 0.30636 0.0636 0.0
H556 H 0.26402 0.26945 0.99358 0.0
H557 H 0.32576 0.26806 0.07829 0.0
H558 H 0.28165 0.25161 0.07313 0.0
H559 H 0.28861 0.2956 0.07379 0.0
C560 C 0.18807 0.23171 0.03828 0.0
C561 C 0.16964 0.25656 0.05017 0.0
C562 C 0.22317 0.23668 0.03111 0.0
C563 C 0.24092 0.26647 0.03578 0.0
C564 C 0.22264 0.29161 0.04739 0.0
H565 H 0.46901 0.30475 1.00992 0.0
H566 H 0.40647 0.312 0.02122 0.0
C567 C 0.18723 0.28672 0.0545 0.0
C568 C 0.27858 0.27064 0.02837 0.0
H569 H 0.36458 0.27216 0.04752 0.0
C570 C 0.28602 0.27039 1.00536 0.0
C571 C 0.30722 0.27199 0.04376 0.0
C572 C 0.3007 0.27166 0.06865 0.0
C573 C 0.32131 0.27082 0.99732 0.0
C574 C 0.35005 0.27067 0.0127 0.0
C575 C 0.34259 0.27215 0.03572 0.0
C576 C 0.38788 0.26702 1.0053 0.0
C577 C 0.32742 0.27138 0.97238 0.0
C578 C 0.39841 0.23917 0.99282 0.0
C579 C 0.43404 0.23499 0.98636 0.0
C580 C 0.4602 0.25841 0.9924 0.0
C581 C 0.44963 0.2862 1.00504 0.0
C582 C 0.41387 0.29042 0.01146 0.0
H583 H 0.30419 0.28222 0.96343 0.0
H584 H 0.3517 0.28581 0.968 0.0
H585 H 0.33096 0.24559 0.96628 0.0
H586 H 0.37913 0.22024 0.98843 0.0
H587 H 0.44115 0.21284 0.97717 0.0
H588 H 0.05678 0.72139 0.03123 0.0
H589 H 0.11947 0.71734 0.0424 0.0
H590 H 0.15113 0.71657 0.97304 0.0
H591 H 0.08839 0.72157 0.96183 0.0
H592 H 0.17206 0.67352 0.03583 0.0
H593 H 0.20936 0.79262 0.99587 0.0
H594 H 0.16357 0.77945 0.99863 0.0
H595 H 0.19114 0.76318 0.97651 0.0
C596 C 0.07705 0.72003 0.01835 0.0
C597 C 0.06764 0.72207 0.99563 0.0
C598 C 0.11295 0.71778 0.02476 0.0
C599 C 0.14023 0.71735 1.00861 0.0
C600 C 0.13075 0.71786 0.98587 0.0
H601 H 0.36592 0.6764 0.04279 0.0
H602 H 0.30389 0.6701 0.03003 0.0
C603 C 0.09488 0.72057 0.97946 0.0
C604 C 0.17846 0.71733 0.01565 0.0
H605 H 0.25649 0.76072 0.0109 0.0
C606 C 0.19055 0.69259 0.03038 0.0
C607 C 0.20256 0.74245 1.00881 0.0
C608 C 0.19098 0.77111 0.99427 0.0
C609 C 0.22587 0.69236 0.03851 0.0
C610 C 0.25013 0.71709 0.03127 0.0
C611 C 0.23807 0.7416 0.01637 0.0
C612 C 0.28749 0.71955 0.03985 0.0
C613 C 0.23637 0.66634 0.05539 0.0
C614 C 0.29924 0.74947 0.04932 0.0
C615 C 0.33465 0.75328 0.05616 0.0
C616 C 0.3593 0.72716 0.0539 0.0
C617 C 0.34748 0.69685 0.04493 0.0
C618 C 0.31196 0.6932 0.03774 0.0
H619 H 0.21263 0.65522 0.06366 0.0
H620 H 0.25104 0.64614 0.04676 0.0
H621 H 0.25407 0.6769 0.06847 0.0
H622 H 0.28102 0.77016 0.05124 0.0
H623 H 0.34276 0.77691 0.06313 0.0
H624 H 0.47071 0.2219 0.49107 0.0
H625 H 0.40796 0.21766 0.48024 0.0
H626 H 0.37723 0.21623 0.54976 0.0
H627 H 0.44013 0.22131 0.56066 0.0
H628 H 0.35602 0.17318 0.48704 0.0
H629 H 0.31794 0.29197 0.52729 0.0
H630 H 0.36383 0.27921 0.52428 0.0
H631 H 0.33667 0.26253 0.54644 0.0
C632 C 0.45067 0.22034 0.50407 0.0
C633 C 0.46042 0.22217 0.52676 0.0
C634 C 0.41471 0.218 0.49785 0.0
C635 C 0.38766 0.21728 0.51414 0.0
C636 C 0.39744 0.2177 0.53683 0.0
H637 H 0.16204 0.17596 0.47965 0.0
H638 H 0.22389 0.16966 0.49273 0.0
C639 C 0.4334 0.22047 0.54307 0.0
C640 C 0.34937 0.21697 0.50724 0.0
H641 H 0.27114 0.2601 0.5119 0.0
C642 C 0.33742 0.19216 0.4925 0.0
C643 C 0.32513 0.24197 0.5141 0.0
C644 C 0.33655 0.27061 0.52872 0.0
C645 C 0.30214 0.19182 0.48432 0.0
C646 C 0.27778 0.2165 0.49151 0.0
C647 C 0.28966 0.24102 0.50647 0.0
C648 C 0.24054 0.21895 0.48275 0.0
C649 C 0.29178 0.16575 0.46743 0.0
C650 C 0.22901 0.24877 0.47304 0.0
C651 C 0.19372 0.25257 0.46598 0.0
C652 C 0.16895 0.22655 0.46827 0.0
C653 C 0.18057 0.19633 0.47746 0.0
C654 C 0.21598 0.19268 0.48486 0.0
H655 H 0.31558 0.15448 0.45931 0.0
H656 H 0.27686 0.14567 0.47601 0.0
H657 H 0.27432 0.17633 0.45423 0.0
H658 H 0.24732 0.26938 0.47112 0.0
H659 H 0.18578 0.27613 0.45883 0.0
H660 H 0.05888 0.80415 0.51068 0.0
H661 H 0.12064 0.81072 0.498 0.0
H662 H 0.15118 0.72388 0.53529 0.0
H663 H 0.08971 0.71647 0.54759 0.0
H664 H 0.19892 0.78245 0.53927 0.0
H665 H 0.16822 0.7452 0.45167 0.0
H666 H 0.14079 0.77704 0.46396 0.0
H667 H 0.13881 0.73557 0.47472 0.0
C668 C 0.07859 0.7863 0.51615 0.0
C669 C 0.06884 0.75961 0.5301 0.0
C670 C 0.11397 0.79022 0.50893 0.0
C671 C 0.14042 0.76764 0.51557 0.0
C672 C 0.13117 0.74163 0.53 0.0
H673 H 0.34296 0.70412 0.46872 0.0
H674 H 0.28155 0.71294 0.48078 0.0
C675 C 0.09582 0.73755 0.53712 0.0
C676 C 0.17753 0.77022 0.50692 0.0
H677 H 0.22809 0.75767 0.46006 0.0
C678 C 0.20533 0.77747 0.5219 0.0
C679 C 0.18576 0.76342 0.48428 0.0
C680 C 0.15698 0.75465 0.46765 0.0
C681 C 0.24123 0.77758 0.51489 0.0
C682 C 0.24947 0.77029 0.49233 0.0
C683 C 0.22163 0.76359 0.47729 0.0
C684 C 0.28689 0.766 0.48459 0.0
C685 C 0.27028 0.78415 0.53177 0.0
C686 C 0.31032 0.79306 0.48247 0.0
C687 C 0.34574 0.78814 0.4754 0.0
C688 C 0.35828 0.75604 0.47052 0.0
C689 C 0.33444 0.72917 0.47249 0.0
C690 C 0.29919 0.73413 0.47932 0.0
H691 H 0.25967 0.78598 0.54909 0.0
H692 H 0.2906 0.7641 0.53117 0.0
H693 H 0.28392 0.80778 0.5276 0.0
H694 H 0.30121 0.81792 0.48629 0.0
H695 H 0.36337 0.80934 0.47405 0.0
H696 H 0.58729 0.77131 0.04131 0.0
H697 H 0.64896 0.76418 0.02917 0.0
H698 H 0.62148 0.67085 0.99849 0.0
H699 H 0.5593 0.6779 1.01062 0.0
H700 H 0.69756 0.7154 0.03887 0.0
H701 H 0.67115 0.71894 0.94742 0.0
H702 H 0.63803 0.73092 0.96783 0.0
H703 H 0.64689 0.68781 0.96262 0.0
C704 C 0.59426 0.74905 0.03221 0.0
C705 C 0.56819 0.7251 0.02701 0.0
C706 C 0.62962 0.7451 0.02514 0.0
C707 C 0.63988 0.7172 0.01264 0.0
C708 C 0.61411 0.69296 1.00767 0.0
H709 H 0.85527 0.67732 0.9573 0.0
H710 H 0.79318 0.66903 0.96971 0.0
C711 C 0.57858 0.69696 0.01467 0.0
C712 C 0.67766 0.71376 1.00511 0.0
H713 H 0.73096 0.71111 0.95862 0.0
C714 C 0.7048 0.71423 0.02132 0.0
C715 C 0.6872 0.7121 0.9822 0.0
C716 C 0.65938 0.71267 0.96395 0.0
C717 C 0.74108 0.71379 0.01526 0.0
C718 C 0.75059 0.71317 0.99238 0.0
C719 C 0.72357 0.71147 0.97616 0.0
C720 C 0.78826 0.71744 0.98501 0.0
C721 C 0.76901 0.71443 0.03342 0.0
C722 C 0.80585 0.74745 0.98927 0.0
C723 C 0.84098 0.75231 0.98216 0.0
C724 C 0.85954 0.72722 0.97057 0.0
C725 C 0.84187 0.69707 0.96628 0.0
C726 C 0.8064 0.69232 0.9733 0.0
H727 H 0.75804 0.70584 0.04969 0.0
H728 H 0.79225 0.69864 0.0289 0.0
H729 H 0.77869 0.74023 0.03564 0.0
H730 H 0.79221 0.76736 0.99796 0.0
H731 H 0.85357 0.7759 0.98575 0.0
H732 H 0.66447 0.30876 0.97505 0.0
H733 H 0.72686 0.31688 0.98688 0.0
H734 H 0.74747 0.21274 0.97708 0.0
H735 H 0.68575 0.20434 0.96548 0.0
H736 H 0.76368 0.27945 0.02422 0.0
H737 H 0.82747 0.26389 0.94099 0.0
H738 H 0.78113 0.27553 0.94432 0.0
H739 H 0.79456 0.23315 0.94809 0.0
C740 C 0.68239 0.28767 0.97529 0.0
C741 C 0.67004 0.25592 0.96932 0.0
C742 C 0.71795 0.29233 0.9821 0.0
C743 C 0.74183 0.26544 0.98267 0.0
C744 C 0.72961 0.23388 0.97655 0.0
H745 H 0.93876 0.21565 0.0466 0.0
H746 H 0.8771 0.22318 0.03484 0.0
C747 C 0.69418 0.22914 0.97 0.0
C748 C 0.77935 0.26966 0.99023 0.0
H749 H 0.86576 0.26081 0.97272 0.0
C750 C 0.78605 0.27584 0.01294 0.0
C751 C 0.80847 0.26506 0.97546 0.0
C752 C 0.80274 0.25929 0.9508 0.0
C753 C 0.82111 0.27619 0.02141 0.0
C754 C 0.85015 0.27006 1.00681 0.0
C755 C 0.84349 0.2653 0.98393 0.0
C756 C 0.88748 0.26699 0.01506 0.0
C757 C 0.82683 0.28278 0.04597 0.0
C758 C 0.91405 0.28901 1.00775 0.0
C759 C 0.94957 0.28499 0.01463 0.0
C760 C 0.95948 0.25853 0.02873 0.0
C761 C 0.93253 0.23666 0.0361 0.0
C762 C 0.89703 0.24087 0.02934 0.0
H763 H 0.80332 0.29514 0.05368 0.0
H764 H 0.83117 0.25887 0.05474 0.0
H765 H 0.8508 0.29851 0.04866 0.0
H766 H 0.9073 0.3093 0.99667 0.0
H767 H 0.96924 0.30263 1.00879 0.0
H768 H 0.85266 0.70579 0.53776 0.0
H769 H 0.79083 0.71318 0.52644 0.0
H770 H 0.79159 0.81258 0.55303 0.0
H771 H 0.85431 0.80555 0.56427 0.0
H772 H 0.73363 0.72569 0.5541 0.0
H773 H 0.74819 0.82569 0.49067 0.0
H774 H 0.78582 0.80205 0.50079 0.0
H775 H 0.76674 0.83421 0.51779 0.0
C776 C 0.83995 0.72941 0.54113 0.0
C777 C 0.8586 0.7551 0.55199 0.0
C778 C 0.80446 0.73355 0.53461 0.0
C779 C 0.78655 0.76348 0.53871 0.0
C780 C 0.80503 0.78943 0.54934 0.0
H781 H 0.55974 0.80473 0.51012 0.0
H782 H 0.62158 0.81008 0.52339 0.0
C783 C 0.84083 0.78533 0.55585 0.0
C784 C 0.74813 0.76635 0.53259 0.0
H785 H 0.68979 0.80608 0.49766 0.0
C786 C 0.72406 0.74342 0.54185 0.0
C787 C 0.73556 0.78957 0.51667 0.0
C788 C 0.76036 0.81417 0.50572 0.0
C789 C 0.68805 0.7426 0.53533 0.0
C790 C 0.67574 0.76507 0.51892 0.0
C791 C 0.69939 0.78881 0.51019 0.0
C792 C 0.63884 0.76296 0.50991 0.0
C793 C 0.66346 0.71746 0.54594 0.0
C794 C 0.62827 0.73503 0.49759 0.0
C795 C 0.59311 0.73192 0.49 0.0
C796 C 0.56766 0.75673 0.49457 0.0
C797 C 0.57857 0.78507 0.50651 0.0
C798 C 0.6139 0.78824 0.514 0.0
H799 H 0.67451 0.7077 0.56187 0.0
H800 H 0.63677 0.72844 0.54929 0.0
H801 H 0.65984 0.69627 0.53431 0.0
H802 H 0.64718 0.71535 0.4941 0.0
H803 H 0.58571 0.70956 0.48116 0.0
H804 H 0.94106 0.27074 0.48009 0.0
H805 H 0.8793 0.26329 0.49197 0.0
H806 H 0.90712 0.17026 0.52291 0.0
H807 H 0.96939 0.17766 0.51107 0.0
H808 H 0.83107 0.21436 0.4822 0.0
H809 H 0.85675 0.21818 0.57372 0.0
H810 H 0.88999 0.23019 0.55341 0.0
H811 H 0.88126 0.18707 0.55865 0.0
C812 C 0.93414 0.24847 0.48919 0.0
C813 C 0.96033 0.22472 0.49457 0.0
C814 C 0.89873 0.24434 0.49611 0.0
C815 C 0.88854 0.21644 0.50861 0.0
C816 C 0.91443 0.19237 0.51372 0.0
H817 H 0.67283 0.17596 0.56322 0.0
H818 H 0.73493 0.16765 0.55084 0.0
C819 C 0.95 0.19657 0.50689 0.0
C820 C 0.85073 0.21283 0.51602 0.0
H821 H 0.79708 0.21002 0.56234 0.0
C822 C 0.82371 0.21318 0.49973 0.0
C823 C 0.84102 0.21115 0.5389 0.0
C824 C 0.86868 0.21189 0.55724 0.0
C825 C 0.78739 0.21262 0.50567 0.0
C826 C 0.77771 0.21197 0.52853 0.0
C827 C 0.80461 0.21039 0.54483 0.0
C828 C 0.74 0.21619 0.53579 0.0
C829 C 0.75957 0.21319 0.48744 0.0
C830 C 0.72249 0.24628 0.53164 0.0
C831 C 0.68735 0.25115 0.53876 0.0
C832 C 0.66873 0.22601 0.55021 0.0
C833 C 0.68629 0.19575 0.55435 0.0
C834 C 0.72176 0.19099 0.54733 0.0
H835 H 0.77072 0.20475 0.47118 0.0
H836 H 0.73643 0.19725 0.49186 0.0
H837 H 0.74972 0.23895 0.48529 0.0
H838 H 0.7362 0.26624 0.52306 0.0
H839 H 0.67483 0.27481 0.53527 0.0
H840 H 0.016 0.2791 0.35241 0.0
H841 H 1.01418 0.27617 0.31168 0.0
H842 H 0.09663 0.2015 0.31247 0.0
H843 H 0.09747 0.20311 0.35333 0.0
H844 H 0.0675 0.29074 0.28277 0.0
H845 H 0.02533 0.16037 0.27014 0.0
H846 H 0.02221 0.18081 0.29692 0.0
H847 H 0.06421 0.16417 0.28748 0.0
C848 C 0.03308 0.26133 0.34404 0.0
C849 C 0.05669 0.24112 0.3563 0.0
C850 C 0.03226 0.25997 0.32067 0.0
C851 C 0.05494 0.23834 0.30896 0.0
C852 C 0.07832 0.2179 0.3211 0.0
H853 H 0.11112 0.20569 0.17055 0.0
H854 H 0.10735 0.20794 0.21129 0.0
C855 C 0.07906 0.21914 0.3445 0.0
C856 C 0.05545 0.23854 0.28407 0.0
H857 H 0.04722 0.18892 0.23801 0.0
C858 C 0.06275 0.26853 0.27298 0.0
C859 C 0.04926 0.20957 0.27126 0.0
C860 C 0.03947 0.17698 0.28203 0.0
C861 C 0.06488 0.27015 0.24954 0.0
C862 C 0.05921 0.24108 0.2368 0.0
C863 C 0.05164 0.21116 0.24783 0.0
C864 C 0.06186 0.24098 0.21201 0.0
C865 C 0.07414 0.30273 0.23858 0.0
C866 C 0.03748 0.25883 0.19883 0.0
C867 C 0.03965 0.25773 0.17544 0.0
C868 C 0.06631 0.23882 0.1648 0.0
C869 C 0.09072 0.22109 0.17813 0.0
C870 C 0.08842 0.22208 0.20145 0.0
H871 H 0.08494 0.32094 0.25077 0.0
H872 H 0.0941 0.29902 0.22506 0.0
H873 H 0.04972 0.31347 0.23098 0.0
H874 H 0.01647 0.27323 0.20663 0.0
H875 H 0.02045 0.27166 0.16568 0.0
H876 H 0.42957 0.70463 0.169 0.0
H877 H 0.43068 0.70376 0.20991 0.0
H878 H 0.51535 0.77621 0.20983 0.0
H879 H 0.51336 0.77843 0.16911 0.0
H880 H 0.48371 0.68862 0.23999 0.0
H881 H 0.44217 0.81983 0.25022 0.0
H882 H 0.43952 0.79844 0.22377 0.0
H883 H 0.48153 0.8147 0.23341 0.0
C884 C 0.44833 0.72052 0.17766 0.0
C885 C 0.47124 0.74172 0.16563 0.0
C886 C 0.44905 0.71985 0.20107 0.0
C887 C 0.47259 0.74043 0.21298 0.0
C888 C 0.49639 0.76067 0.20105 0.0
H889 H 0.5108 0.76989 0.35605 0.0
H890 H 0.5146 0.77093 0.31504 0.0
C891 C 0.49559 0.76147 0.17767 0.0
C892 C 0.47211 0.74081 0.23786 0.0
H893 H 0.45973 0.79139 0.28314 0.0
C894 C 0.47838 0.71107 0.24941 0.0
C895 C 0.46514 0.77014 0.25018 0.0
C896 C 0.45636 0.80253 0.2388 0.0
C897 C 0.47824 0.70993 0.2729 0.0
C898 C 0.47126 0.73923 0.28518 0.0
C899 C 0.46526 0.76902 0.27368 0.0
C900 C 0.46878 0.73913 0.30996 0.0
C901 C 0.4859 0.67744 0.28444 0.0
C902 C 0.44142 0.72143 0.32063 0.0
C903 C 0.43913 0.72087 0.34394 0.0
C904 C 0.46412 0.73811 0.35715 0.0
C905 C 0.49128 0.75622 0.34639 0.0
C906 C 0.49343 0.75691 0.32298 0.0
H907 H 0.49911 0.65943 0.27304 0.0
H908 H 0.50319 0.68128 0.2993 0.0
H909 H 0.46038 0.66635 0.29021 0.0
H910 H 0.42186 0.70789 0.3109 0.0
H911 H 0.4182 0.70624 0.35163 0.0
H912 H 1.00841 0.76948 0.66749 0.0
H913 H 1.0119 0.7706 0.70847 0.0
H914 H 0.91953 0.70705 0.71247 0.0
H915 H 0.91634 0.7051 0.67175 0.0
H916 H 0.959 0.79114 0.74024 0.0
H917 H 0.99474 0.65846 0.75059 0.0
H918 H 0.99838 0.67975 0.72413 0.0
H919 H 0.9556 0.66563 0.73392 0.0
C920 C 0.98893 0.75566 0.6771 0.0
C921 C 0.96206 0.73727 0.66628 0.0
C922 C 0.99088 0.75642 0.70051 0.0
C923 C 0.9663 0.7385 0.71351 0.0
C924 C 0.93913 0.72063 0.70278 0.0
H925 H 0.9252 0.70689 0.8546 0.0
H926 H 0.92627 0.7057 0.81367 0.0
C927 C 0.93707 0.71993 0.67945 0.0
C928 C 0.96868 0.73864 0.7383 0.0
H929 H 0.97944 0.688 0.78362 0.0
C930 C 0.96376 0.76867 0.74975 0.0
C931 C 0.97472 0.70924 0.75065 0.0
C932 C 0.98149 0.67646 0.73924 0.0
C933 C 0.96378 0.76997 0.77324 0.0
C934 C 0.96969 0.74052 0.78562 0.0
C935 C 0.97489 0.71054 0.77414 0.0
C936 C 0.97016 0.74029 0.81049 0.0
C937 C 0.95635 0.80269 0.78459 0.0
C938 C 0.99505 0.75946 0.82234 0.0
C939 C 0.99434 0.7604 0.84572 0.0
C940 C 0.96892 0.74191 0.85782 0.0
C941 C 0.94483 0.72179 0.84587 0.0
C942 C 0.94551 0.72094 0.82246 0.0
H943 H 0.9431 0.82053 0.77312 0.0
H944 H 0.93915 0.79926 0.79955 0.0
H945 H 0.98197 0.81385 0.79009 0.0
H946 H 0.0148 0.77406 0.8135 0.0
H947 H 1.01305 0.77649 0.85425 0.0
H948 H 0.51457 0.21315 0.66534 0.0
H949 H 0.51032 0.21229 0.70626 0.0
H950 H 0.60638 0.27087 0.71078 0.0
H951 H 0.61006 0.27303 0.67015 0.0
H952 H 0.55681 0.18849 0.73799 0.0
H953 H 0.53772 0.32355 0.74946 0.0
H954 H 0.53367 0.30363 0.72254 0.0
H955 H 0.57703 0.31394 0.73353 0.0
C956 C 0.53465 0.22606 0.67504 0.0
C957 C 0.56268 0.24312 0.66435 0.0
C958 C 0.53226 0.22542 0.69844 0.0
C959 C 0.55766 0.24204 0.7116 0.0
C960 C 0.58603 0.25846 0.701 0.0
H961 H 0.61285 0.21146 0.84993 0.0
H962 H 0.60903 0.21359 0.8093 0.0
C963 C 0.5884 0.25918 0.67769 0.0
C964 C 0.55508 0.2418 0.73643 0.0
H965 H 0.55307 0.29258 0.7822 0.0
C966 C 0.55568 0.21123 0.74765 0.0
C967 C 0.55299 0.27145 0.74907 0.0
C968 C 0.54993 0.30498 0.73804 0.0
C969 C 0.55555 0.20957 0.77113 0.0
C970 C 0.55553 0.2393 0.78376 0.0
C971 C 0.55358 0.26981 0.77254 0.0
C972 C 0.55827 0.23924 0.80858 0.0
C973 C 0.55525 0.17593 0.78216 0.0
C974 C 0.53174 0.2542 0.8218 0.0
C975 C 0.53417 0.25361 0.84518 0.0
C976 C 0.56334 0.23824 0.85583 0.0
C977 C 0.59023 0.22396 0.84243 0.0
C978 C 0.58782 0.22465 0.81912 0.0
H979 H 0.54442 0.15658 0.77081 0.0
H980 H 0.58302 0.16882 0.78654 0.0
H981 H 0.53907 0.17619 0.79774 0.0
H982 H 0.50887 0.26593 0.81403 0.0
H983 H 0.51317 0.26516 0.85492 0.0
loop_
_geom_bond_atom_site_label_1
_geom_bond_atom_site_label_2
_geom_bond_distance
_geom_bond_site_symmetry_2
_ccdc_geom_bond_type
Co0 N4 2.148 . S
Co0 N10 2.128 . S
Co0 N20 2.194 . S
Co0 O25 2.351 . S
Co0 O26 2.155 . S
Co0 O27 2.096 . S
C1 N4 1.301 . S
C1 N5 1.328 1_455 S
C1 H6 0.930 1_455 S
C2 C3 1.333 . S
C2 N4 1.317 . S
C2 H7 0.930 . S
C3 C2 1.333 . S
C3 N5 1.350 1_455 S
C3 H29 0.931 . S
N4 Co0 2.148 . S
N4 C1 1.301 . S
N4 C2 1.317 . S
N5 C1 1.328 1_655 S
N5 C3 1.350 1_655 S
H6 C1 0.930 1_655 S
H7 C2 0.930 . S
C8 O9 1.224 . S
C8 O27 1.247 . S
O9 C8 1.224 . S
N10 Co0 2.128 . S
N10 C11 1.355 . S
N10 C13 1.311 . S
C11 N10 1.355 . S
C11 C12 1.363 . S
C11 H23 0.929 . S
C12 C11 1.363 . S
C12 N14 1.375 . S
C12 H30 0.931 . S
C13 N10 1.311 . S
C13 N14 1.347 . S
C13 H24 0.929 . S
N14 C12 1.375 . S
N14 C13 1.347 . S
C15 C18 1.365 . S
C15 N20 1.328 . S
C15 H21 0.929 . S
C16 C17 1.362 . S
C16 C19 1.378 . S
C16 H31 0.929 . S
C17 C16 1.362 . S
C17 C18 1.366 . S
C18 C15 1.365 . S
C18 C17 1.366 . S
C18 H32 0.930 . S
C19 C16 1.378 . S
C19 N20 1.315 . S
C19 H22 0.930 . S
N20 Co0 2.194 . S
N20 C15 1.328 . S
N20 C19 1.315 . S
H21 C15 0.929 . S
H22 C19 0.930 . S
H23 C11 0.929 . S
H24 C13 0.929 . S
O25 Co0 2.351 . S
O25 C28 1.244 . S
O26 Co0 2.155 . S
O26 C28 1.240 . S
O27 Co0 2.096 . S
O27 C8 1.247 . S
C28 O25 1.244 . S
C28 O26 1.240 . S
H29 C3 0.931 . S
H30 C12 0.931 . S
H31 C16 0.929 . S
H32 C18 0.930 . S
Co33 N37 2.148 . S
Co33 N43 2.128 . S
Co33 N53 2.194 . S
Co33 O58 2.351 . S
Co33 O59 2.155 . S
Co33 O60 2.096 . S
C34 N37 1.301 . S
C34 N38 1.328 . S
C34 H39 0.930 . S
C35 C36 1.333 . S
C35 N37 1.317 . S
C35 H40 0.930 . S
C36 C35 1.333 . S
C36 N38 1.350 . S
C36 H62 0.931 . S
N37 Co33 2.148 . S
N37 C34 1.301 . S
N37 C35 1.317 . S
N38 C34 1.328 . S
N38 C36 1.350 . S
H39 C34 0.930 . S
H40 C35 0.930 . S
C41 O42 1.224 . S
C41 O60 1.247 . S
O42 C41 1.224 . S
N43 Co33 2.128 . S
N43 C44 1.355 . S
N43 C46 1.311 . S
C44 N43 1.355 . S
C44 C45 1.363 . S
C44 H56 0.929 . S
C45 C44 1.363 . S
C45 N47 1.375 . S
C45 H63 0.931 . S
C46 N43 1.311 . S
C46 N47 1.347 . S
C46 H57 0.929 . S
N47 C45 1.375 . S
N47 C46 1.347 . S
C48 C51 1.365 . S
C48 N53 1.328 . S
C48 H54 0.929 . S
C49 C50 1.362 . S
C49 C52 1.378 . S
C49 H64 0.929 . S
C50 C49 1.362 . S
C50 C51 1.366 . S
C51 C48 1.365 . S
C51 C50 1.366 . S
C51 H65 0.930 . S
C52 C49 1.378 . S
C52 N53 1.315 . S
C52 H55 0.930 . S
N53 Co33 2.194 . S
N53 C48 1.328 . S
N53 C52 1.315 . S
H54 C48 0.929 . S
H55 C52 0.930 . S
H56 C44 0.929 . S
H57 C46 0.929 . S
O58 Co33 2.351 . S
O58 C61 1.244 . S
O59 Co33 2.155 . S
O59 C61 1.240 . S
O60 Co33 2.096 . S
O60 C41 1.247 . S
C61 O58 1.244 . S
C61 O59 1.240 . S
H62 C36 0.931 . S
H63 C45 0.931 . S
H64 C49 0.929 . S
H65 C51 0.930 . S
Co66 N70 2.148 . S
Co66 N76 2.128 . S
Co66 N86 2.194 . S
Co66 O91 2.351 . S
Co66 O92 2.155 . S
Co66 O93 2.096 . S
C67 N70 1.301 . S
C67 N71 1.328 1_455 S
C67 H72 0.930 1_455 S
C68 C69 1.333 . S
C68 N70 1.317 . S
C68 H73 0.930 . S
C69 C68 1.333 . S
C69 N71 1.350 1_455 S
C69 H95 0.931 . S
N70 Co66 2.148 . S
N70 C67 1.301 . S
N70 C68 1.317 . S
N71 C67 1.328 1_655 S
N71 C69 1.350 1_655 S
H72 C67 0.930 1_655 S
H73 C68 0.930 . S
C74 O75 1.224 . S
C74 O93 1.247 . S
O75 C74 1.224 . S
N76 Co66 2.128 . S
N76 C77 1.355 . S
N76 C79 1.311 . S
C77 N76 1.355 . S
C77 C78 1.363 . S
C77 H89 0.929 . S
C78 C77 1.363 . S
C78 N80 1.375 . S
C78 H96 0.931 . S
C79 N76 1.311 . S
C79 N80 1.347 . S
C79 H90 0.929 . S
N80 C78 1.375 . S
N80 C79 1.347 . S
C81 C84 1.365 . S
C81 N86 1.328 . S
C81 H87 0.929 . S
C82 C83 1.362 . S
C82 C85 1.378 . S
C82 H97 0.929 . S
C83 C82 1.362 . S
C83 C84 1.366 . S
C84 C81 1.365 . S
C84 C83 1.366 . S
C84 H98 0.930 . S
C85 C82 1.378 . S
C85 N86 1.315 . S
C85 H88 0.930 . S
N86 Co66 2.194 . S
N86 C81 1.328 . S
N86 C85 1.315 . S
H87 C81 0.929 . S
H88 C85 0.930 . S
H89 C77 0.929 . S
H90 C79 0.929 . S
O91 Co66 2.351 . S
O91 C94 1.244 . S
O92 Co66 2.155 . S
O92 C94 1.240 . S
O93 Co66 2.096 . S
O93 C74 1.247 . S
C94 O91 1.244 . S
C94 O92 1.240 . S
H95 C69 0.931 . S
H96 C78 0.931 . S
H97 C82 0.929 . S
H98 C84 0.930 . S
Co99 N103 2.148 . S
Co99 N109 2.128 . S
Co99 N119 2.194 . S
Co99 O124 2.351 . S
Co99 O125 2.155 . S
Co99 O126 2.096 . S
C100 N103 1.301 . S
C100 N104 1.328 . S
C100 H105 0.930 . S
C101 C102 1.333 . S
C101 N103 1.317 . S
C101 H106 0.930 . S
C102 C101 1.333 . S
C102 N104 1.350 . S
C102 H128 0.931 . S
N103 Co99 2.148 . S
N103 C100 1.301 . S
N103 C101 1.317 . S
N104 C100 1.328 . S
N104 C102 1.350 . S
H105 C100 0.930 . S
H106 C101 0.930 . S
C107 O108 1.224 . S
C107 O126 1.247 . S
O108 C107 1.224 . S
N109 Co99 2.128 . S
N109 C110 1.355 . S
N109 C112 1.311 . S
C110 N109 1.355 . S
C110 C111 1.363 . S
C110 H122 0.929 . S
C111 C110 1.363 . S
C111 N113 1.375 . S
C111 H129 0.931 . S
C112 N109 1.311 . S
C112 N113 1.347 . S
C112 H123 0.929 . S
N113 C111 1.375 . S
N113 C112 1.347 . S
C114 C117 1.365 . S
C114 N119 1.328 . S
C114 H120 0.929 . S
C115 C116 1.362 . S
C115 C118 1.378 . S
C115 H130 0.929 . S
C116 C115 1.362 . S
C116 C117 1.366 . S
C117 C114 1.365 . S
C117 C116 1.366 . S
C117 H131 0.930 . S
C118 C115 1.378 . S
C118 N119 1.315 . S
C118 H121 0.930 . S
N119 Co99 2.194 . S
N119 C114 1.328 . S
N119 C118 1.315 . S
H120 C114 0.929 . S
H121 C118 0.930 . S
H122 C110 0.929 . S
H123 C112 0.929 . S
O124 Co99 2.351 . S
O124 C127 1.244 . S
O125 Co99 2.155 . S
O125 C127 1.240 . S
O126 Co99 2.096 . S
O126 C107 1.247 . S
C127 O124 1.244 . S
C127 O125 1.240 . S
H128 C102 0.931 . S
H129 C111 0.931 . S
H130 C115 0.929 . S
H131 C117 0.930 . S
Co132 N136 2.148 . S
Co132 N142 2.128 . S
Co132 N152 2.194 . S
Co132 O157 2.351 . S
Co132 O158 2.155 . S
Co132 O159 2.096 . S
C133 N136 1.301 . S
C133 N137 1.328 1_655 S
C133 H138 0.930 1_655 S
C134 C135 1.333 . S
C134 N136 1.317 . S
C134 H139 0.930 . S
C135 C134 1.333 . S
C135 N137 1.350 1_655 S
C135 H161 0.931 . S
N136 Co132 2.148 . S
N136 C133 1.301 . S
N136 C134 1.317 . S
N137 C133 1.328 1_455 S
N137 C135 1.350 1_455 S
H138 C133 0.930 1_455 S
H139 C134 0.930 . S
C140 O141 1.224 . S
C140 O159 1.247 . S
O141 C140 1.224 . S
N142 Co132 2.128 . S
N142 C143 1.355 . S
N142 C145 1.311 . S
C143 N142 1.355 . S
C143 C144 1.363 . S
C143 H155 0.929 . S
C144 C143 1.363 . S
C144 N146 1.375 . S
C144 H162 0.931 . S
C145 N142 1.311 . S
C145 N146 1.347 . S
C145 H156 0.929 . S
N146 C144 1.375 . S
N146 C145 1.347 . S
C147 C150 1.365 . S
C147 N152 1.328 . S
C147 H153 0.929 . S
C148 C149 1.362 . S
C148 C151 1.378 . S
C148 H163 0.929 . S
C149 C148 1.362 . S
C149 C150 1.366 . S
C150 C147 1.365 . S
C150 C149 1.366 . S
C150 H164 0.930 . S
C151 C148 1.378 . S
C151 N152 1.315 . S
C151 H154 0.930 . S
N152 Co132 2.194 . S
N152 C147 1.328 . S
N152 C151 1.315 . S
H153 C147 0.929 . S
H154 C151 0.930 . S
H155 C143 0.929 . S
H156 C145 0.929 . S
O157 Co132 2.351 . S
O157 C160 1.244 . S
O158 Co132 2.155 . S
O158 C160 1.240 . S
O159 Co132 2.096 . S
O159 C140 1.247 . S
C160 O157 1.244 . S
C160 O158 1.240 . S
H161 C135 0.931 . S
H162 C144 0.931 . S
H163 C148 0.929 . S
H164 C150 0.930 . S
Co165 N169 2.148 . S
Co165 N175 2.128 . S
Co165 N185 2.194 . S
Co165 O190 2.351 . S
Co165 O191 2.155 . S
Co165 O192 2.096 . S
C166 N169 1.301 . S
C166 N170 1.328 . S
C166 H171 0.930 . S
C167 C168 1.333 . S
C167 N169 1.317 . S
C167 H172 0.930 . S
C168 C167 1.333 . S
C168 N170 1.350 . S
C168 H194 0.931 . S
N169 Co165 2.148 . S
N169 C166 1.301 . S
N169 C167 1.317 . S
N170 C166 1.328 . S
N170 C168 1.350 . S
H171 C166 0.930 . S
H172 C167 0.930 . S
C173 O174 1.224 . S
C173 O192 1.247 . S
O174 C173 1.224 . S
N175 Co165 2.128 . S
N175 C176 1.355 . S
N175 C178 1.311 . S
C176 N175 1.355 . S
C176 C177 1.363 . S
C176 H188 0.929 . S
C177 C176 1.363 . S
C177 N179 1.375 . S
C177 H195 0.931 . S
C178 N175 1.311 . S
C178 N179 1.347 . S
C178 H189 0.929 . S
N179 C177 1.375 . S
N179 C178 1.347 . S
C180 C183 1.365 . S
C180 N185 1.328 . S
C180 H186 0.929 . S
C181 C182 1.362 . S
C181 C184 1.378 . S
C181 H196 0.929 . S
C182 C181 1.362 . S
C182 C183 1.366 . S
C183 C180 1.365 . S
C183 C182 1.366 . S
C183 H197 0.930 . S
C184 C181 1.378 . S
C184 N185 1.315 . S
C184 H187 0.930 . S
N185 Co165 2.194 . S
N185 C180 1.328 . S
N185 C184 1.315 . S
H186 C180 0.929 . S
H187 C184 0.930 . S
H188 C176 0.929 . S
H189 C178 0.929 . S
O190 Co165 2.351 . S
O190 C193 1.244 . S
O191 Co165 2.155 . S
O191 C193 1.240 . S
O192 Co165 2.096 . S
O192 C173 1.247 . S
C193 O190 1.244 . S
C193 O191 1.240 . S
H194 C168 0.931 . S
H195 C177 0.931 . S
H196 C181 0.929 . S
H197 C183 0.930 . S
Co198 N202 2.148 . S
Co198 N208 2.128 . S
Co198 N218 2.194 . S
Co198 O223 2.351 . S
Co198 O224 2.155 . S
Co198 O225 2.096 . S
C199 N202 1.301 . S
C199 N203 1.328 1_655 S
C199 H204 0.930 1_655 S
C200 C201 1.333 . S
C200 N202 1.317 . S
C200 H205 0.930 . S
C201 C200 1.333 . S
C201 N203 1.350 1_655 S
C201 H227 0.931 . S
N202 Co198 2.148 . S
N202 C199 1.301 . S
N202 C200 1.317 . S
N203 C199 1.328 1_455 S
N203 C201 1.350 1_455 S
H204 C199 0.930 1_455 S
H205 C200 0.930 . S
C206 O207 1.224 . S
C206 O225 1.247 . S
O207 C206 1.224 . S
N208 Co198 2.128 . S
N208 C209 1.355 . S
N208 C211 1.311 . S
C209 N208 1.355 . S
C209 C210 1.363 . S
C209 H221 0.929 . S
C210 C209 1.363 . S
C210 N212 1.375 . S
C210 H228 0.931 . S
C211 N208 1.311 . S
C211 N212 1.347 . S
C211 H222 0.929 . S
N212 C210 1.375 . S
N212 C211 1.347 . S
C213 C216 1.365 . S
C213 N218 1.328 . S
C213 H219 0.929 . S
C214 C215 1.362 . S
C214 C217 1.378 . S
C214 H229 0.929 . S
C215 C214 1.362 . S
C215 C216 1.366 . S
C216 C213 1.365 . S
C216 C215 1.366 . S
C216 H230 0.930 . S
C217 C214 1.378 . S
C217 N218 1.315 . S
C217 H220 0.930 . S
N218 Co198 2.194 . S
N218 C213 1.328 . S
N218 C217 1.315 . S
H219 C213 0.929 . S
H220 C217 0.930 . S
H221 C209 0.929 . S
H222 C211 0.929 . S
O223 Co198 2.351 . S
O223 C226 1.244 . S
O224 Co198 2.155 . S
O224 C226 1.240 . S
O225 Co198 2.096 . S
O225 C206 1.247 . S
C226 O223 1.244 . S
C226 O224 1.240 . S
H227 C201 0.931 . S
H228 C210 0.931 . S
H229 C214 0.929 . S
H230 C216 0.930 . S
Co231 N235 2.148 . S
Co231 N241 2.128 . S
Co231 N251 2.194 . S
Co231 O256 2.351 . S
Co231 O257 2.155 . S
Co231 O258 2.096 . S
C232 N235 1.301 . S
C232 N236 1.328 . S
C232 H237 0.930 . S
C233 C234 1.333 . S
C233 N235 1.317 . S
C233 H238 0.930 . S
C234 C233 1.333 . S
C234 N236 1.350 . S
C234 H260 0.931 . S
N235 Co231 2.148 . S
N235 C232 1.301 . S
N235 C233 1.317 . S
N236 C232 1.328 . S
N236 C234 1.350 . S
H237 C232 0.930 . S
H238 C233 0.930 . S
C239 O240 1.224 . S
C239 O258 1.247 . S
O240 C239 1.224 . S
N241 Co231 2.128 . S
N241 C242 1.355 . S
N241 C244 1.311 . S
C242 N241 1.355 . S
C242 C243 1.363 . S
C242 H254 0.929 . S
C243 C242 1.363 . S
C243 N245 1.375 . S
C243 H261 0.931 . S
C244 N241 1.311 . S
C244 N245 1.347 . S
C244 H255 0.929 . S
N245 C243 1.375 . S
N245 C244 1.347 . S
C246 C249 1.365 . S
C246 N251 1.328 . S
C246 H252 0.929 . S
C247 C248 1.362 . S
C247 C250 1.378 . S
C247 H262 0.929 . S
C248 C247 1.362 . S
C248 C249 1.366 . S
C249 C246 1.365 . S
C249 C248 1.366 . S
C249 H263 0.930 . S
C250 C247 1.378 . S
C250 N251 1.315 . S
C250 H253 0.930 . S
N251 Co231 2.194 . S
N251 C246 1.328 . S
N251 C250 1.315 . S
H252 C246 0.929 . S
H253 C250 0.930 . S
H254 C242 0.929 . S
H255 C244 0.929 . S
O256 Co231 2.351 . S
O256 C259 1.244 . S
O257 Co231 2.155 . S
O257 C259 1.240 . S
O258 Co231 2.096 . S
O258 C239 1.247 . S
C259 O256 1.244 . S
C259 O257 1.240 . S
H260 C234 0.931 . S
H261 C243 0.931 . S
H262 C247 0.929 . S
H263 C249 0.930 . S
H264 C272 0.929 . S
H265 C274 0.930 . S
H266 C276 0.930 . S
H267 C279 0.929 . S
H268 C282 0.930 . S
H269 C284 0.960 . S
H270 C284 0.960 . S
H271 C284 0.960 1_554 S
C272 H264 0.929 . S
C272 C273 1.377 . S
C272 C274 1.384 . S
C273 C272 1.377 . S
C273 C279 1.390 1_455 S
C274 H265 0.930 . S
C274 C272 1.384 . S
C274 C275 1.372 . S
C275 C274 1.372 . S
C275 C276 1.400 1_455 S
C275 C280 1.490 . S
C276 H266 0.930 . S
C276 C275 1.400 1_655 S
C276 C279 1.386 . S
H277 C293 0.930 . S
H278 C294 0.931 . S
C279 H267 0.929 . S
C279 C273 1.390 1_655 S
C279 C276 1.386 . S
C280 C275 1.490 . S
C280 C282 1.395 . S
C280 C283 1.383 1_454 S
H281 C287 0.930 . S
C282 H268 0.930 . S
C282 C280 1.395 . S
C282 C285 1.403 1_545 S
C283 C280 1.383 1_656 S
C283 C284 1.528 . S
C283 C287 1.419 1_545 S
C284 H269 0.960 . S
C284 H270 0.960 . S
C284 H271 0.960 1_556 S
C284 C283 1.528 . S
C285 C282 1.403 1_565 S
C285 C286 1.393 1_554 S
C285 C289 1.495 . S
C286 C285 1.393 1_556 S
C286 C287 1.385 1_455 S
C286 C288 1.478 1_455 S
C287 H281 0.930 . S
C287 C283 1.419 1_565 S
C287 C286 1.385 1_655 S
C288 C286 1.478 1_655 S
C288 C290 1.381 1_655 S
C288 C294 1.383 . S
C289 C285 1.495 . S
C289 H295 0.959 . S
C289 H296 0.961 . S
C289 H297 0.960 1_554 S
C290 C288 1.381 1_455 S
C290 C291 1.394 . S
C290 H298 0.930 . S
C291 C290 1.394 . S
C291 C292 1.383 1_455 S
C291 H299 0.929 . S
C292 C291 1.383 1_655 S
C292 C293 1.377 . S
C293 H277 0.930 . S
C293 C292 1.377 . S
C293 C294 1.379 . S
C294 H278 0.931 . S
C294 C288 1.383 . S
C294 C293 1.379 . S
H295 C289 0.959 . S
H296 C289 0.961 . S
H297 C289 0.960 1_556 S
H298 C290 0.930 . S
H299 C291 0.929 . S
H300 C308 0.929 . S
H301 C310 0.930 . S
H302 C312 0.930 . S
H303 C315 0.929 . S
H304 C318 0.930 . S
H305 C320 0.960 . S
H306 C320 0.960 1_545 S
H307 C320 0.960 1_545 S
C308 H300 0.929 . S
C308 C309 1.377 . S
C308 C310 1.384 . S
C309 C308 1.377 . S
C309 C315 1.390 . S
C310 H301 0.930 . S
C310 C308 1.384 . S
C310 C311 1.372 . S
C311 C310 1.372 . S
C311 C312 1.400 . S
C311 C316 1.490 . S
C312 H302 0.930 . S
C312 C311 1.400 . S
C312 C315 1.386 . S
H313 C329 0.930 . S
H314 C330 0.931 . S
C315 H303 0.929 . S
C315 C309 1.390 . S
C315 C312 1.386 . S
C316 C311 1.490 . S
C316 C318 1.395 1_556 S
C316 C319 1.421 . S
H317 C323 0.930 . S
C318 H304 0.930 . S
C318 C316 1.395 1_554 S
C318 C321 1.403 . S
C319 C316 1.421 . S
C319 C320 1.522 1_545 S
C319 C323 1.383 1_545 S
C320 H305 0.960 . S
C320 H306 0.960 1_565 S
C320 H307 0.960 1_565 S
C320 C319 1.522 1_565 S
C321 C318 1.403 . S
C321 C322 1.392 1_545 S
C321 C325 1.495 . S
C322 C321 1.392 1_565 S
C322 C323 1.385 1_554 S
C322 C324 1.478 . S
C323 H317 0.930 . S
C323 C319 1.383 1_565 S
C323 C322 1.385 1_556 S
C324 C322 1.478 . S
C324 C326 1.381 . S
C324 C330 1.383 . S
C325 C321 1.495 . S
C325 H331 0.959 . S
C325 H332 0.961 1_545 S
C325 H333 0.960 1_545 S
C326 C324 1.381 . S
C326 C327 1.394 . S
C326 H334 0.930 . S
C327 C326 1.394 . S
C327 C328 1.383 . S
C327 H335 0.929 . S
C328 C327 1.383 . S
C328 C329 1.377 . S
C329 H313 0.930 . S
C329 C328 1.377 . S
C329 C330 1.379 . S
C330 H314 0.931 . S
C330 C324 1.383 . S
C330 C329 1.379 . S
H331 C325 0.959 . S
H332 C325 0.961 1_565 S
H333 C325 0.960 1_565 S
H334 C326 0.930 . S
H335 C327 0.929 . S
H336 C344 0.929 . S
H337 C346 0.930 . S
H338 C348 0.930 . S
H339 C351 0.929 . S
H340 C354 0.930 . S
H341 C356 0.960 . S
H342 C356 0.960 . S
H343 C356 0.960 . S
C344 H336 0.929 . S
C344 C345 1.377 . S
C344 C346 1.384 . S
C345 C344 1.377 . S
C345 C351 1.390 1_655 S
C346 H337 0.930 . S
C346 C344 1.384 . S
C346 C347 1.372 . S
C347 C346 1.372 . S
C347 C348 1.400 1_655 S
C347 C352 1.490 . S
C348 H338 0.930 . S
C348 C347 1.400 1_455 S
C348 C351 1.386 . S
H349 C365 0.930 . S
H350 C366 0.931 . S
C351 H339 0.929 . S
C351 C345 1.390 1_455 S
C351 C348 1.386 . S
C352 C347 1.490 . S
C352 C354 1.395 . S
C352 C355 1.403 1_655 S
H353 C359 0.930 . S
C354 H340 0.930 . S
C354 C352 1.395 . S
C354 C357 1.403 . S
C355 C352 1.403 1_455 S
C355 C356 1.524 . S
C355 C359 1.400 . S
C356 H341 0.960 . S
C356 H342 0.960 . S
C356 H343 0.960 . S
C356 C355 1.524 . S
C357 C354 1.403 . S
C357 C358 1.392 . S
C357 C361 1.495 . S
C358 C357 1.392 . S
C358 C359 1.385 1_655 S
C358 C360 1.478 1_655 S
C359 H353 0.930 . S
C359 C355 1.400 . S
C359 C358 1.385 1_455 S
C360 C358 1.478 1_455 S
C360 C362 1.381 1_455 S
C360 C366 1.383 . S
C361 C357 1.495 . S
C361 H367 0.959 . S
C361 H368 0.961 . S
C361 H369 0.960 . S
C362 C360 1.381 1_655 S
C362 C363 1.394 . S
C362 H370 0.930 . S
C363 C362 1.394 . S
C363 C364 1.383 1_655 S
C363 H371 0.929 . S
C364 C363 1.383 1_455 S
C364 C365 1.377 . S
C365 H349 0.930 . S
C365 C364 1.377 . S
C365 C366 1.379 . S
C366 H350 0.931 . S
C366 C360 1.383 . S
C366 C365 1.379 . S
H367 C361 0.959 . S
H368 C361 0.961 . S
H369 C361 0.960 . S
H370 C362 0.930 . S
H371 C363 0.929 . S
H372 C380 0.929 . S
H373 C382 0.930 . S
H374 C384 0.930 . S
H375 C387 0.929 . S
H376 C390 0.930 . S
H377 C392 0.960 . S
H378 C392 0.960 . S
H379 C392 0.960 . S
C380 H372 0.929 . S
C380 C381 1.377 . S
C380 C382 1.384 . S
C381 C380 1.377 . S
C381 C387 1.390 . S
C382 H373 0.930 . S
C382 C380 1.384 . S
C382 C383 1.372 . S
C383 C382 1.372 . S
C383 C384 1.400 . S
C383 C388 1.490 . S
C384 H374 0.930 . S
C384 C383 1.400 . S
C384 C387 1.386 . S
H385 C401 0.930 . S
H386 C402 0.931 . S
C387 H375 0.929 . S
C387 C381 1.390 . S
C387 C384 1.386 . S
C388 C383 1.490 . S
C388 C390 1.395 . S
C388 C391 1.403 . S
H389 C395 0.930 . S
C390 H376 0.930 . S
C390 C388 1.395 . S
C390 C393 1.403 . S
C391 C388 1.403 . S
C391 C392 1.524 . S
C391 C395 1.400 . S
C392 H377 0.960 . S
C392 H378 0.960 . S
C392 H379 0.960 . S
C392 C391 1.524 . S
C393 C390 1.403 . S
C393 C394 1.392 . S
C393 C397 1.495 . S
C394 C393 1.392 . S
C394 C395 1.385 . S
C394 C396 1.478 . S
C395 H389 0.930 . S
C395 C391 1.400 . S
C395 C394 1.385 . S
C396 C394 1.478 . S
C396 C398 1.381 . S
C396 C402 1.383 . S
C397 C393 1.495 . S
C397 H403 0.959 . S
C397 H404 0.961 . S
C397 H405 0.960 . S
C398 C396 1.381 . S
C398 C399 1.394 . S
C398 H406 0.930 . S
C399 C398 1.394 . S
C399 C400 1.383 . S
C399 H407 0.929 . S
C400 C399 1.383 . S
C400 C401 1.377 . S
C401 H385 0.930 . S
C401 C400 1.377 . S
C401 C402 1.379 . S
C402 H386 0.931 . S
C402 C396 1.383 . S
C402 C401 1.379 . S
H403 C397 0.959 . S
H404 C397 0.961 . S
H405 C397 0.960 . S
H406 C398 0.930 . S
H407 C399 0.929 . S
H408 C416 0.929 . S
H409 C418 0.930 . S
H410 C420 0.930 . S
H411 C423 0.929 . S
H412 C426 0.931 . S
H413 C428 0.960 . S
H414 C428 0.960 . S
H415 C428 0.960 . S
C416 H408 0.929 . S
C416 C417 1.377 . S
C416 C418 1.384 . S
C417 C416 1.377 . S
C417 C423 1.390 . S
C418 H409 0.930 . S
C418 C416 1.384 . S
C418 C419 1.372 . S
C419 C418 1.372 . S
C419 C420 1.400 . S
C419 C424 1.490 . S
C420 H410 0.930 . S
C420 C419 1.400 . S
C420 C423 1.386 . S
H421 C437 0.930 . S
H422 C438 0.931 . S
C423 H411 0.929 . S
C423 C417 1.390 . S
C423 C420 1.386 . S
C424 C419 1.490 . S
C424 C426 1.395 1_565 S
C424 C427 1.403 . S
H425 C431 0.930 . S
C426 H412 0.931 . S
C426 C424 1.395 1_545 S
C426 C429 1.403 . S
C427 C424 1.403 . S
C427 C428 1.524 . S
C427 C431 1.400 1_565 S
C428 H413 0.960 . S
C428 H414 0.960 . S
C428 H415 0.960 . S
C428 C427 1.524 . S
C429 C426 1.403 . S
C429 C430 1.392 . S
C429 C433 1.495 . S
C430 C429 1.392 . S
C430 C431 1.385 . S
C430 C432 1.478 . S
C431 H425 0.930 . S
C431 C427 1.400 1_545 S
C431 C430 1.385 . S
C432 C430 1.478 . S
C432 C434 1.381 . S
C432 C438 1.383 . S
C433 C429 1.495 . S
C433 H439 0.959 . S
C433 H440 0.961 . S
C433 H441 0.960 . S
C434 C432 1.381 . S
C434 C435 1.394 . S
C434 H442 0.930 . S
C435 C434 1.394 . S
C435 C436 1.383 . S
C435 H443 0.929 . S
C436 C435 1.383 . S
C436 C437 1.377 . S
C437 H421 0.930 . S
C437 C436 1.377 . S
C437 C438 1.379 . S
C438 H422 0.931 . S
C438 C432 1.383 . S
C438 C437 1.379 . S
H439 C433 0.959 . S
H440 C433 0.961 . S
H441 C433 0.960 . S
H442 C434 0.930 . S
H443 C435 0.929 . S
H444 C452 0.929 . S
H445 C454 0.930 . S
H446 C456 0.930 . S
H447 C459 0.929 . S
H448 C462 0.930 . S
H449 C464 0.960 . S
H450 C464 0.960 . S
H451 C464 0.960 . S
C452 H444 0.929 . S
C452 C453 1.377 . S
C452 C454 1.384 . S
C453 C452 1.377 . S
C453 C459 1.390 . S
C454 H445 0.930 . S
C454 C452 1.384 . S
C454 C455 1.372 . S
C455 C454 1.372 . S
C455 C456 1.400 . S
C455 C460 1.490 . S
C456 H446 0.930 . S
C456 C455 1.400 . S
C456 C459 1.386 . S
H457 C473 0.930 . S
H458 C474 0.931 . S
C459 H447 0.929 . S
C459 C453 1.390 . S
C459 C456 1.386 . S
C460 C455 1.490 . S
C460 C462 1.395 . S
C460 C463 1.403 . S
H461 C467 0.930 . S
C462 H448 0.930 . S
C462 C460 1.395 . S
C462 C465 1.403 . S
C463 C460 1.403 . S
C463 C464 1.524 . S
C463 C467 1.400 . S
C464 H449 0.960 . S
C464 H450 0.960 . S
C464 H451 0.960 . S
C464 C463 1.524 . S
C465 C462 1.403 . S
C465 C466 1.392 . S
C465 C469 1.495 . S
C466 C465 1.392 . S
C466 C467 1.385 . S
C466 C468 1.478 . S
C467 H461 0.930 . S
C467 C463 1.400 . S
C467 C466 1.385 . S
C468 C466 1.478 . S
C468 C470 1.381 . S
C468 C474 1.383 . S
C469 C465 1.495 . S
C469 H475 0.959 . S
C469 H476 0.961 . S
C469 H477 0.960 . S
C470 C468 1.381 . S
C470 C471 1.394 . S
C470 H478 0.930 . S
C471 C470 1.394 . S
C471 C472 1.383 . S
C471 H479 0.929 . S
C472 C471 1.383 . S
C472 C473 1.377 . S
C473 H457 0.930 . S
C473 C472 1.377 . S
C473 C474 1.379 . S
C474 H458 0.931 . S
C474 C468 1.383 . S
C474 C473 1.379 . S
H475 C469 0.959 . S
H476 C469 0.961 . S
H477 C469 0.960 . S
H478 C470 0.930 . S
H479 C471 0.929 . S
H480 C488 0.929 . S
H481 C490 0.930 . S
H482 C492 0.930 . S
H483 C495 0.929 . S
H484 C498 0.930 . S
H485 C500 0.960 1_545 S
H486 C500 0.960 . S
H487 C500 0.960 . S
C488 H480 0.929 . S
C488 C489 1.377 . S
C488 C490 1.384 . S
C489 C488 1.377 . S
C489 C495 1.390 . S
C490 H481 0.930 . S
C490 C488 1.384 . S
C490 C491 1.372 . S
C491 C490 1.372 . S
C491 C492 1.400 . S
C491 C496 1.490 . S
C492 H482 0.930 . S
C492 C491 1.400 . S
C492 C495 1.386 . S
H493 C509 0.930 . S
H494 C510 0.931 . S
C495 H483 0.929 . S
C495 C489 1.390 . S
C495 C492 1.386 . S
C496 C491 1.490 . S
C496 C498 1.395 . S
C496 C499 1.403 . S
H497 C503 0.930 . S
C498 H484 0.930 . S
C498 C496 1.395 . S
C498 C501 1.410 . S
C499 C496 1.403 . S
C499 C500 1.524 . S
C499 C503 1.400 1_565 S
C500 H485 0.960 1_565 S
C500 H486 0.960 . S
C500 H487 0.960 . S
C500 C499 1.524 . S
C501 C498 1.410 . S
C501 C502 1.386 1_565 S
C501 C505 1.495 1_565 S
C502 C501 1.386 1_545 S
C502 C503 1.385 . S
C502 C504 1.478 . S
C503 H497 0.930 . S
C503 C499 1.400 1_545 S
C503 C502 1.385 . S
C504 C502 1.478 . S
C504 C506 1.381 . S
C504 C510 1.383 . S
C505 C501 1.495 1_545 S
C505 H511 0.957 1_545 S
C505 H512 0.963 . S
C505 H513 0.960 . S
C506 C504 1.381 . S
C506 C507 1.394 . S
C506 H514 0.930 . S
C507 C506 1.394 . S
C507 C508 1.383 . S
C507 H515 0.929 . S
C508 C507 1.383 . S
C508 C509 1.377 . S
C509 H493 0.930 . S
C509 C508 1.377 . S
C509 C510 1.379 . S
C510 H494 0.931 . S
C510 C504 1.383 . S
C510 C509 1.379 . S
H511 C505 0.957 1_565 S
H512 C505 0.963 . S
H513 C505 0.960 . S
H514 C506 0.930 . S
H515 C507 0.929 . S
H516 C524 0.929 . S
H517 C526 0.930 . S
H518 C528 0.930 . S
H519 C531 0.929 . S
H520 C534 0.930 . S
H521 C536 0.960 . S
H522 C536 0.960 . S
H523 C536 0.960 . S
C524 H516 0.929 . S
C524 C525 1.377 . S
C524 C526 1.384 . S
C525 C524 1.377 . S
C525 C531 1.390 . S
C526 H517 0.930 . S
C526 C524 1.384 . S
C526 C527 1.372 . S
C527 C526 1.372 . S
C527 C528 1.400 . S
C527 C532 1.490 . S
C528 H518 0.930 . S
C528 C527 1.400 . S
C528 C531 1.386 . S
H529 C545 0.930 . S
H530 C546 0.931 . S
C531 H519 0.929 . S
C531 C525 1.390 . S
C531 C528 1.386 . S
C532 C527 1.490 . S
C532 C534 1.395 . S
C532 C535 1.403 . S
H533 C539 0.930 . S
C534 H520 0.930 . S
C534 C532 1.395 . S
C534 C537 1.403 . S
C535 C532 1.403 . S
C535 C536 1.524 . S
C535 C539 1.400 . S
C536 H521 0.960 . S
C536 H522 0.960 . S
C536 H523 0.960 . S
C536 C535 1.524 . S
C537 C534 1.403 . S
C537 C538 1.392 . S
C537 C541 1.495 . S
C538 C537 1.392 . S
C538 C539 1.385 . S
C538 C540 1.478 . S
C539 H533 0.930 . S
C539 C535 1.400 . S
C539 C538 1.385 . S
C540 C538 1.478 . S
C540 C542 1.381 . S
C540 C546 1.383 . S
C541 C537 1.495 . S
C541 H547 0.959 . S
C541 H548 0.961 . S
C541 H549 0.960 . S
C542 C540 1.381 . S
C542 C543 1.394 . S
C542 H550 0.930 . S
C543 C542 1.394 . S
C543 C544 1.383 . S
C543 H551 0.929 . S
C544 C543 1.383 . S
C544 C545 1.377 . S
C545 H529 0.930 . S
C545 C544 1.377 . S
C545 C546 1.379 . S
C546 H530 0.931 . S
C546 C540 1.383 . S
C546 C545 1.379 . S
H547 C541 0.959 . S
H548 C541 0.961 . S
H549 C541 0.960 . S
H550 C542 0.930 . S
H551 C543 0.929 . S
H552 C560 0.929 . S
H553 C562 0.930 . S
H554 C564 0.930 . S
H555 C567 0.929 . S
H556 C570 0.930 . S
H557 C572 0.960 . S
H558 C572 0.960 . S
H559 C572 0.960 . S
C560 H552 0.929 . S
C560 C561 1.377 . S
C560 C562 1.384 . S
C561 C560 1.377 . S
C561 C567 1.390 . S
C562 H553 0.930 . S
C562 C560 1.384 . S
C562 C563 1.372 . S
C563 C562 1.372 . S
C563 C564 1.400 . S
C563 C568 1.490 . S
C564 H554 0.930 . S
C564 C563 1.400 . S
C564 C567 1.386 . S
H565 C581 0.930 . S
H566 C582 0.931 . S
C567 H555 0.929 . S
C567 C561 1.390 . S
C567 C564 1.386 . S
C568 C563 1.490 . S
C568 C570 1.395 1_554 S
C568 C571 1.403 . S
H569 C575 0.930 . S
C570 H556 0.930 . S
C570 C568 1.395 1_556 S
C570 C573 1.403 . S
C571 C568 1.403 . S
C571 C572 1.524 . S
C571 C575 1.400 . S
C572 H557 0.960 . S
C572 H558 0.960 . S
C572 H559 0.960 . S
C572 C571 1.524 . S
C573 C570 1.403 . S
C573 C574 1.392 . S
C573 C577 1.495 . S
C574 C573 1.392 . S
C574 C575 1.385 1_556 S
C574 C576 1.478 . S
C575 H569 0.930 . S
C575 C571 1.400 . S
C575 C574 1.385 1_554 S
C576 C574 1.478 . S
C576 C578 1.381 . S
C576 C582 1.383 . S
C577 C573 1.495 . S
C577 H583 0.959 . S
C577 H584 0.961 . S
C577 H585 0.960 . S
C578 C576 1.381 . S
C578 C579 1.394 . S
C578 H586 0.930 . S
C579 C578 1.394 . S
C579 C580 1.383 . S
C579 H587 0.929 . S
C580 C579 1.383 . S
C580 C581 1.377 . S
C581 H565 0.930 . S
C581 C580 1.377 . S
C581 C582 1.379 . S
C582 H566 0.931 . S
C582 C576 1.383 . S
C582 C581 1.379 . S
H583 C577 0.959 . S
H584 C577 0.961 . S
H585 C577 0.960 . S
H586 C578 0.930 . S
H587 C579 0.929 . S
H588 C596 0.929 . S
H589 C598 0.930 1_554 S
H590 C600 0.930 . S
H591 C603 0.929 . S
H592 C606 0.930 . S
H593 C608 0.960 . S
H594 C608 0.960 . S
H595 C608 0.960 . S
C596 H588 0.929 . S
C596 C597 1.377 . S
C596 C598 1.384 . S
C597 C596 1.377 . S
C597 C603 1.390 . S
C598 H589 0.930 1_556 S
C598 C596 1.384 . S
C598 C599 1.372 . S
C599 C598 1.372 . S
C599 C600 1.400 . S
C599 C604 1.490 . S
C600 H590 0.930 . S
C600 C599 1.400 . S
C600 C603 1.386 . S
H601 C617 0.930 . S
H602 C618 0.931 1_556 S
C603 H591 0.929 . S
C603 C597 1.390 . S
C603 C600 1.386 . S
C604 C599 1.490 . S
C604 C606 1.395 1_556 S
C604 C607 1.403 . S
H605 C611 0.930 . S
C606 H592 0.930 . S
C606 C604 1.395 1_554 S
C606 C609 1.403 . S
C607 C604 1.403 . S
C607 C608 1.524 . S
C607 C611 1.400 . S
C608 H593 0.960 . S
C608 H594 0.960 . S
C608 H595 0.960 . S
C608 C607 1.524 . S
C609 C606 1.403 . S
C609 C610 1.392 . S
C609 C613 1.495 . S
C610 C609 1.392 . S
C610 C611 1.385 1_554 S
C610 C612 1.478 . S
C611 H605 0.930 . S
C611 C607 1.400 . S
C611 C610 1.385 1_556 S
C612 C610 1.478 . S
C612 C614 1.381 . S
C612 C618 1.383 . S
C613 C609 1.495 . S
C613 H619 0.959 . S
C613 H620 0.961 . S
C613 H621 0.960 . S
C614 C612 1.381 . S
C614 C615 1.394 . S
C614 H622 0.930 . S
C615 C614 1.394 . S
C615 C616 1.383 . S
C615 H623 0.929 . S
C616 C615 1.383 . S
C616 C617 1.377 . S
C617 H601 0.930 . S
C617 C616 1.377 . S
C617 C618 1.379 . S
C618 H602 0.931 1_554 S
C618 C612 1.383 . S
C618 C617 1.379 . S
H619 C613 0.959 . S
H620 C613 0.961 . S
H621 C613 0.960 . S
H622 C614 0.930 . S
H623 C615 0.929 . S
H624 C632 0.929 . S
H625 C634 0.930 . S
H626 C636 0.930 . S
H627 C639 0.929 . S
H628 C642 0.930 . S
H629 C644 0.960 . S
H630 C644 0.960 . S
H631 C644 0.960 . S
C632 H624 0.929 . S
C632 C633 1.377 . S
C632 C634 1.384 . S
C633 C632 1.377 . S
C633 C639 1.390 . S
C634 H625 0.930 . S
C634 C632 1.384 . S
C634 C635 1.372 . S
C635 C634 1.372 . S
C635 C636 1.400 . S
C635 C640 1.490 . S
C636 H626 0.930 . S
C636 C635 1.400 . S
C636 C639 1.386 . S
H637 C653 0.930 . S
H638 C654 0.931 . S
C639 H627 0.929 . S
C639 C633 1.390 . S
C639 C636 1.386 . S
C640 C635 1.490 . S
C640 C642 1.395 . S
C640 C643 1.403 . S
H641 C647 0.930 . S
C642 H628 0.930 . S
C642 C640 1.395 . S
C642 C645 1.403 . S
C643 C640 1.403 . S
C643 C644 1.524 . S
C643 C647 1.400 . S
C644 H629 0.960 . S
C644 H630 0.960 . S
C644 H631 0.960 . S
C644 C643 1.524 . S
C645 C642 1.403 . S
C645 C646 1.392 . S
C645 C649 1.495 . S
C646 C645 1.392 . S
C646 C647 1.385 . S
C646 C648 1.478 . S
C647 H641 0.930 . S
C647 C643 1.400 . S
C647 C646 1.385 . S
C648 C646 1.478 . S
C648 C650 1.381 . S
C648 C654 1.383 . S
C649 C645 1.495 . S
C649 H655 0.959 . S
C649 H656 0.961 . S
C649 H657 0.960 . S
C650 C648 1.381 . S
C650 C651 1.394 . S
C650 H658 0.930 . S
C651 C650 1.394 . S
C651 C652 1.383 . S
C651 H659 0.929 . S
C652 C651 1.383 . S
C652 C653 1.377 . S
C653 H637 0.930 . S
C653 C652 1.377 . S
C653 C654 1.379 . S
C654 H638 0.931 . S
C654 C648 1.383 . S
C654 C653 1.379 . S
H655 C649 0.959 . S
H656 C649 0.961 . S
H657 C649 0.960 . S
H658 C650 0.930 . S
H659 C651 0.929 . S
H660 C668 0.929 . S
H661 C670 0.930 . S
H662 C672 0.930 . S
H663 C675 0.929 . S
H664 C678 0.930 . S
H665 C680 0.960 . S
H666 C680 0.960 . S
H667 C680 0.960 . S
C668 H660 0.929 . S
C668 C669 1.377 . S
C668 C670 1.384 . S
C669 C668 1.377 . S
C669 C675 1.390 . S
C670 H661 0.930 . S
C670 C668 1.384 . S
C670 C671 1.372 . S
C671 C670 1.372 . S
C671 C672 1.400 . S
C671 C676 1.490 . S
C672 H662 0.930 . S
C672 C671 1.400 . S
C672 C675 1.386 . S
H673 C689 0.930 . S
H674 C690 0.931 . S
C675 H663 0.929 . S
C675 C669 1.390 . S
C675 C672 1.386 . S
C676 C671 1.490 . S
C676 C678 1.395 . S
C676 C679 1.403 . S
H677 C683 0.930 . S
C678 H664 0.930 . S
C678 C676 1.395 . S
C678 C681 1.403 . S
C679 C676 1.403 . S
C679 C680 1.524 . S
C679 C683 1.400 . S
C680 H665 0.960 . S
C680 H666 0.960 . S
C680 H667 0.960 . S
C680 C679 1.524 . S
C681 C678 1.403 . S
C681 C682 1.392 . S
C681 C685 1.495 . S
C682 C681 1.392 . S
C682 C683 1.385 . S
C682 C684 1.478 . S
C683 H677 0.930 . S
C683 C679 1.400 . S
C683 C682 1.385 . S
C684 C682 1.478 . S
C684 C686 1.381 . S
C684 C690 1.383 . S
C685 C681 1.495 . S
C685 H691 0.959 . S
C685 H692 0.961 . S
C685 H693 0.960 . S
C686 C684 1.381 . S
C686 C687 1.394 . S
C686 H694 0.930 . S
C687 C686 1.394 . S
C687 C688 1.383 . S
C687 H695 0.929 . S
C688 C687 1.383 . S
C688 C689 1.377 . S
C689 H673 0.930 . S
C689 C688 1.377 . S
C689 C690 1.379 . S
C690 H674 0.931 . S
C690 C684 1.383 . S
C690 C689 1.379 . S
H691 C685 0.959 . S
H692 C685 0.961 . S
H693 C685 0.960 . S
H694 C686 0.930 . S
H695 C687 0.929 . S
H696 C704 0.929 . S
H697 C706 0.930 . S
H698 C708 0.930 1_556 S
H699 C711 0.929 . S
H700 C714 0.930 . S
H701 C716 0.960 . S
H702 C716 0.960 . S
H703 C716 0.960 . S
C704 H696 0.929 . S
C704 C705 1.377 . S
C704 C706 1.384 . S
C705 C704 1.377 . S
C705 C711 1.390 . S
C706 H697 0.930 . S
C706 C704 1.384 . S
C706 C707 1.372 . S
C707 C706 1.372 . S
C707 C708 1.400 . S
C707 C712 1.490 . S
C708 H698 0.930 1_554 S
C708 C707 1.400 . S
C708 C711 1.386 . S
H709 C725 0.930 . S
H710 C726 0.931 . S
C711 H699 0.929 . S
C711 C705 1.390 . S
C711 C708 1.386 . S
C712 C707 1.490 . S
C712 C714 1.395 . S
C712 C715 1.403 1_554 S
H713 C719 0.930 . S
C714 H700 0.930 . S
C714 C712 1.395 . S
C714 C717 1.403 . S
C715 C712 1.403 1_556 S
C715 C716 1.524 . S
C715 C719 1.400 . S
C716 H701 0.960 . S
C716 H702 0.960 . S
C716 H703 0.960 . S
C716 C715 1.524 . S
C717 C714 1.403 . S
C717 C718 1.392 1_554 S
C717 C721 1.495 . S
C718 C717 1.392 1_556 S
C718 C719 1.385 . S
C718 C720 1.478 . S
C719 H713 0.930 . S
C719 C715 1.400 . S
C719 C718 1.385 . S
C720 C718 1.478 . S
C720 C722 1.381 . S
C720 C726 1.383 . S
C721 C717 1.495 . S
C721 H727 0.959 . S
C721 H728 0.961 . S
C721 H729 0.960 . S
C722 C720 1.381 . S
C722 C723 1.394 . S
C722 H730 0.930 1_556 S
C723 C722 1.394 . S
C723 C724 1.383 . S
C723 H731 0.929 . S
C724 C723 1.383 . S
C724 C725 1.377 . S
C725 H709 0.930 . S
C725 C724 1.377 . S
C725 C726 1.379 . S
C726 H710 0.931 . S
C726 C720 1.383 . S
C726 C725 1.379 . S
H727 C721 0.959 . S
H728 C721 0.961 . S
H729 C721 0.960 . S
H730 C722 0.930 1_554 S
H731 C723 0.929 . S
H732 C740 0.929 . S
H733 C742 0.930 1_554 S
H734 C744 0.930 . S
H735 C747 0.929 . S
H736 C750 0.930 . S
H737 C752 0.960 . S
H738 C752 0.960 . S
H739 C752 0.960 . S
C740 H732 0.929 . S
C740 C741 1.377 . S
C740 C742 1.384 . S
C741 C740 1.377 . S
C741 C747 1.390 . S
C742 H733 0.930 1_556 S
C742 C740 1.384 . S
C742 C743 1.372 . S
C743 C742 1.372 . S
C743 C744 1.400 . S
C743 C748 1.490 . S
C744 H734 0.930 . S
C744 C743 1.400 . S
C744 C747 1.386 . S
H745 C761 0.930 . S
H746 C762 0.931 . S
C747 H735 0.929 . S
C747 C741 1.390 . S
C747 C744 1.386 . S
C748 C743 1.490 . S
C748 C750 1.395 1_556 S
C748 C751 1.403 . S
H749 C755 0.930 . S
C750 H736 0.930 . S
C750 C748 1.395 1_554 S
C750 C753 1.403 . S
C751 C748 1.403 . S
C751 C752 1.524 . S
C751 C755 1.400 . S
C752 H737 0.960 . S
C752 H738 0.960 . S
C752 H739 0.960 . S
C752 C751 1.524 . S
C753 C750 1.403 . S
C753 C754 1.392 . S
C753 C757 1.495 . S
C754 C753 1.392 . S
C754 C755 1.385 1_554 S
C754 C756 1.478 . S
C755 H749 0.930 . S
C755 C751 1.400 . S
C755 C754 1.385 1_556 S
C756 C754 1.478 . S
C756 C758 1.381 . S
C756 C762 1.383 . S
C757 C753 1.495 . S
C757 H763 0.959 . S
C757 H764 0.961 . S
C757 H765 0.960 . S
C758 C756 1.381 . S
C758 C759 1.394 . S
C758 H766 0.930 . S
C759 C758 1.394 . S
C759 C760 1.383 . S
C759 H767 0.929 . S
C760 C759 1.383 . S
C760 C761 1.377 . S
C761 H745 0.930 . S
C761 C760 1.377 . S
C761 C762 1.379 . S
C762 H746 0.931 . S
C762 C756 1.383 . S
C762 C761 1.379 . S
H763 C757 0.959 . S
H764 C757 0.961 . S
H765 C757 0.960 . S
H766 C758 0.930 . S
H767 C759 0.929 . S
H768 C776 0.929 . S
H769 C778 0.930 . S
H770 C780 0.930 . S
H771 C783 0.929 . S
H772 C786 0.930 . S
H773 C788 0.960 . S
H774 C788 0.960 . S
H775 C788 0.960 . S
C776 H768 0.929 . S
C776 C777 1.377 . S
C776 C778 1.384 . S
C777 C776 1.377 . S
C777 C783 1.390 . S
C778 H769 0.930 . S
C778 C776 1.384 . S
C778 C779 1.372 . S
C779 C778 1.372 . S
C779 C780 1.400 . S
C779 C784 1.490 . S
C780 H770 0.930 . S
C780 C779 1.400 . S
C780 C783 1.386 . S
H781 C797 0.930 . S
H782 C798 0.931 . S
C783 H771 0.929 . S
C783 C777 1.390 . S
C783 C780 1.386 . S
C784 C779 1.490 . S
C784 C786 1.395 . S
C784 C787 1.403 . S
H785 C791 0.930 . S
C786 H772 0.930 . S
C786 C784 1.395 . S
C786 C789 1.403 . S
C787 C784 1.403 . S
C787 C788 1.524 . S
C787 C791 1.400 . S
C788 H773 0.960 . S
C788 H774 0.960 . S
C788 H775 0.960 . S
C788 C787 1.524 . S
C789 C786 1.403 . S
C789 C790 1.392 . S
C789 C793 1.495 . S
C790 C789 1.392 . S
C790 C791 1.385 . S
C790 C792 1.478 . S
C791 H785 0.930 . S
C791 C787 1.400 . S
C791 C790 1.385 . S
C792 C790 1.478 . S
C792 C794 1.381 . S
C792 C798 1.383 . S
C793 C789 1.495 . S
C793 H799 0.959 . S
C793 H800 0.961 . S
C793 H801 0.960 . S
C794 C792 1.381 . S
C794 C795 1.394 . S
C794 H802 0.930 . S
C795 C794 1.394 . S
C795 C796 1.383 . S
C795 H803 0.929 . S
C796 C795 1.383 . S
C796 C797 1.377 . S
C797 H781 0.930 . S
C797 C796 1.377 . S
C797 C798 1.379 . S
C798 H782 0.931 . S
C798 C792 1.383 . S
C798 C797 1.379 . S
H799 C793 0.959 . S
H800 C793 0.961 . S
H801 C793 0.960 . S
H802 C794 0.930 . S
H803 C795 0.929 . S
H804 C812 0.929 . S
H805 C814 0.930 . S
H806 C816 0.930 . S
H807 C819 0.929 . S
H808 C822 0.930 . S
H809 C824 0.960 . S
H810 C824 0.960 . S
H811 C824 0.960 . S
C812 H804 0.929 . S
C812 C813 1.377 . S
C812 C814 1.384 . S
C813 C812 1.377 . S
C813 C819 1.390 . S
C814 H805 0.930 . S
C814 C812 1.384 . S
C814 C815 1.372 . S
C815 C814 1.372 . S
C815 C816 1.400 . S
C815 C820 1.490 . S
C816 H806 0.930 . S
C816 C815 1.400 . S
C816 C819 1.386 . S
H817 C833 0.930 . S
H818 C834 0.931 . S
C819 H807 0.929 . S
C819 C813 1.390 . S
C819 C816 1.386 . S
C820 C815 1.490 . S
C820 C822 1.395 . S
C820 C823 1.403 . S
H821 C827 0.930 . S
C822 H808 0.930 . S
C822 C820 1.395 . S
C822 C825 1.403 . S
C823 C820 1.403 . S
C823 C824 1.524 . S
C823 C827 1.400 . S
C824 H809 0.960 . S
C824 H810 0.960 . S
C824 H811 0.960 . S
C824 C823 1.524 . S
C825 C822 1.403 . S
C825 C826 1.392 . S
C825 C829 1.495 . S
C826 C825 1.392 . S
C826 C827 1.385 . S
C826 C828 1.478 . S
C827 H821 0.930 . S
C827 C823 1.400 . S
C827 C826 1.385 . S
C828 C826 1.478 . S
C828 C830 1.381 . S
C828 C834 1.383 . S
C829 C825 1.495 . S
C829 H835 0.959 . S
C829 H836 0.961 . S
C829 H837 0.960 . S
C830 C828 1.381 . S
C830 C831 1.394 . S
C830 H838 0.930 . S
C831 C830 1.394 . S
C831 C832 1.383 . S
C831 H839 0.929 . S
C832 C831 1.383 . S
C832 C833 1.377 . S
C833 H817 0.930 . S
C833 C832 1.377 . S
C833 C834 1.379 . S
C834 H818 0.931 . S
C834 C828 1.383 . S
C834 C833 1.379 . S
H835 C829 0.959 . S
H836 C829 0.961 . S
H837 C829 0.960 . S
H838 C830 0.930 . S
H839 C831 0.929 . S
H840 C848 0.929 . S
H841 C850 0.930 . S
H842 C852 0.930 . S
H843 C855 0.929 . S
H844 C858 0.930 . S
H845 C860 0.960 . S
H846 C860 0.960 1_655 S
H847 C860 0.960 . S
C848 H840 0.929 . S
C848 C849 1.377 . S
C848 C850 1.384 . S
C849 C848 1.377 . S
C849 C855 1.390 . S
C850 H841 0.930 . S
C850 C848 1.384 . S
C850 C851 1.372 . S
C851 C850 1.372 . S
C851 C852 1.400 . S
C851 C856 1.490 . S
C852 H842 0.930 . S
C852 C851 1.400 . S
C852 C855 1.386 . S
H853 C869 0.930 . S
H854 C870 0.931 . S
C855 H843 0.929 . S
C855 C849 1.390 . S
C855 C852 1.386 . S
C856 C851 1.490 . S
C856 C858 1.395 . S
C856 C859 1.403 . S
H857 C863 0.930 . S
C858 H844 0.930 . S
C858 C856 1.395 . S
C858 C861 1.403 . S
C859 C856 1.403 . S
C859 C860 1.524 . S
C859 C863 1.400 . S
C860 H845 0.960 . S
C860 H846 0.960 1_455 S
C860 H847 0.960 . S
C860 C859 1.524 . S
C861 C858 1.403 . S
C861 C862 1.392 . S
C861 C865 1.495 . S
C862 C861 1.392 . S
C862 C863 1.385 . S
C862 C864 1.478 . S
C863 H857 0.930 . S
C863 C859 1.400 . S
C863 C862 1.385 . S
C864 C862 1.478 . S
C864 C866 1.381 . S
C864 C870 1.383 . S
C865 C861 1.495 . S
C865 H871 0.959 . S
C865 H872 0.961 . S
C865 H873 0.960 . S
C866 C864 1.381 . S
C866 C867 1.394 . S
C866 H874 0.930 . S
C867 C866 1.394 . S
C867 C868 1.383 . S
C867 H875 0.929 . S
C868 C867 1.383 . S
C868 C869 1.377 . S
C869 H853 0.930 . S
C869 C868 1.377 . S
C869 C870 1.379 . S
C870 H854 0.931 . S
C870 C864 1.383 . S
C870 C869 1.379 . S
H871 C865 0.959 . S
H872 C865 0.961 . S
H873 C865 0.960 . S
H874 C866 0.930 . S
H875 C867 0.929 . S
H876 C884 0.929 . S
H877 C886 0.930 . S
H878 C888 0.930 . S
H879 C891 0.929 . S
H880 C894 0.930 . S
H881 C896 0.960 . S
H882 C896 0.960 . S
H883 C896 0.960 . S
C884 H876 0.929 . S
C884 C885 1.377 . S
C884 C886 1.384 . S
C885 C884 1.377 . S
C885 C891 1.390 . S
C886 H877 0.930 . S
C886 C884 1.384 . S
C886 C887 1.372 . S
C887 C886 1.372 . S
C887 C888 1.400 . S
C887 C892 1.490 . S
C888 H878 0.930 . S
C888 C887 1.400 . S
C888 C891 1.386 . S
H889 C905 0.930 . S
H890 C906 0.931 . S
C891 H879 0.929 . S
C891 C885 1.390 . S
C891 C888 1.386 . S
C892 C887 1.490 . S
C892 C894 1.395 . S
C892 C895 1.403 . S
H893 C899 0.930 . S
C894 H880 0.930 . S
C894 C892 1.395 . S
C894 C897 1.403 . S
C895 C892 1.403 . S
C895 C896 1.524 . S
C895 C899 1.400 . S
C896 H881 0.960 . S
C896 H882 0.960 . S
C896 H883 0.960 . S
C896 C895 1.524 . S
C897 C894 1.403 . S
C897 C898 1.392 . S
C897 C901 1.495 . S
C898 C897 1.392 . S
C898 C899 1.385 . S
C898 C900 1.478 . S
C899 H893 0.930 . S
C899 C895 1.400 . S
C899 C898 1.385 . S
C900 C898 1.478 . S
C900 C902 1.381 . S
C900 C906 1.383 . S
C901 C897 1.495 . S
C901 H907 0.959 . S
C901 H908 0.961 . S
C901 H909 0.960 . S
C902 C900 1.381 . S
C902 C903 1.394 . S
C902 H910 0.930 . S
C903 C902 1.394 . S
C903 C904 1.383 . S
C903 H911 0.929 . S
C904 C903 1.383 . S
C904 C905 1.377 . S
C905 H889 0.930 . S
C905 C904 1.377 . S
C905 C906 1.379 . S
C906 H890 0.931 . S
C906 C900 1.383 . S
C906 C905 1.379 . S
H907 C901 0.959 . S
H908 C901 0.961 . S
H909 C901 0.960 . S
H910 C902 0.930 . S
H911 C903 0.929 . S
H912 C920 0.929 . S
H913 C922 0.930 . S
H914 C924 0.930 . S
H915 C927 0.929 . S
H916 C930 0.930 . S
H917 C932 0.960 . S
H918 C932 0.960 . S
H919 C932 0.960 . S
C920 H912 0.929 . S
C920 C921 1.377 . S
C920 C922 1.384 . S
C921 C920 1.377 . S
C921 C927 1.390 . S
C922 H913 0.930 . S
C922 C920 1.384 . S
C922 C923 1.372 . S
C923 C922 1.372 . S
C923 C924 1.400 . S
C923 C928 1.490 . S
C924 H914 0.930 . S
C924 C923 1.400 . S
C924 C927 1.386 . S
H925 C941 0.930 . S
H926 C942 0.931 . S
C927 H915 0.929 . S
C927 C921 1.390 . S
C927 C924 1.386 . S
C928 C923 1.490 . S
C928 C930 1.395 . S
C928 C931 1.403 . S
H929 C935 0.930 . S
C930 H916 0.930 . S
C930 C928 1.395 . S
C930 C933 1.403 . S
C931 C928 1.403 . S
C931 C932 1.524 . S
C931 C935 1.400 . S
C932 H917 0.960 . S
C932 H918 0.960 . S
C932 H919 0.960 . S
C932 C931 1.524 . S
C933 C930 1.403 . S
C933 C934 1.392 . S
C933 C937 1.495 . S
C934 C933 1.392 . S
C934 C935 1.385 . S
C934 C936 1.478 . S
C935 H929 0.930 . S
C935 C931 1.400 . S
C935 C934 1.385 . S
C936 C934 1.478 . S
C936 C938 1.381 . S
C936 C942 1.383 . S
C937 C933 1.495 . S
C937 H943 0.959 . S
C937 H944 0.961 . S
C937 H945 0.960 . S
C938 C936 1.381 . S
C938 C939 1.394 . S
C938 H946 0.930 . S
C939 C938 1.394 . S
C939 C940 1.383 . S
C939 H947 0.929 . S
C940 C939 1.383 . S
C940 C941 1.377 . S
C941 H925 0.930 . S
C941 C940 1.377 . S
C941 C942 1.379 . S
C942 H926 0.931 . S
C942 C936 1.383 . S
C942 C941 1.379 . S
H943 C937 0.959 . S
H944 C937 0.961 . S
H945 C937 0.960 . S
H946 C938 0.930 . S
H947 C939 0.929 . S
H948 C956 0.929 . S
H949 C958 0.930 . S
H950 C960 0.930 . S
H951 C963 0.929 . S
H952 C966 0.930 . S
H953 C968 0.960 . S
H954 C968 0.960 . S
H955 C968 0.960 . S
C956 H948 0.929 . S
C956 C957 1.377 . S
C956 C958 1.384 . S
C957 C956 1.377 . S
C957 C963 1.390 . S
C958 H949 0.930 . S
C958 C956 1.384 . S
C958 C959 1.372 . S
C959 C958 1.372 . S
C959 C960 1.400 . S
C959 C964 1.490 . S
C960 H950 0.930 . S
C960 C959 1.400 . S
C960 C963 1.386 . S
H961 C977 0.930 . S
H962 C978 0.931 . S
C963 H951 0.929 . S
C963 C957 1.390 . S
C963 C960 1.386 . S
C964 C959 1.490 . S
C964 C966 1.395 . S
C964 C967 1.403 . S
H965 C971 0.930 . S
C966 H952 0.930 . S
C966 C964 1.395 . S
C966 C969 1.403 . S
C967 C964 1.403 . S
C967 C968 1.524 . S
C967 C971 1.400 . S
C968 H953 0.960 . S
C968 H954 0.960 . S
C968 H955 0.960 . S
C968 C967 1.524 . S
C969 C966 1.403 . S
C969 C970 1.392 . S
C969 C973 1.495 . S
C970 C969 1.392 . S
C970 C971 1.385 . S
C970 C972 1.478 . S
C971 H965 0.930 . S
C971 C967 1.400 . S
C971 C970 1.385 . S
C972 C970 1.478 . S
C972 C974 1.381 . S
C972 C978 1.383 . S
C973 C969 1.495 . S
C973 H979 0.959 . S
C973 H980 0.961 . S
C973 H981 0.960 . S
C974 C972 1.381 . S
C974 C975 1.394 . S
C974 H982 0.930 . S
C975 C974 1.394 . S
C975 C976 1.383 . S
C975 H983 0.929 . S
C976 C975 1.383 . S
C976 C977 1.377 . S
C977 H961 0.930 . S
C977 C976 1.377 . S
C977 C978 1.379 . S
C978 H962 0.931 . S
C978 C972 1.383 . S
C978 C977 1.379 . S
H979 C973 0.959 . S
H980 C973 0.961 . S
H981 C973 0.960 . S
H982 C974 0.930 . S
H983 C975 0.929 . S
C273 C28 0.553 . S
C292 C160 0.616 . S
C309 C193 0.543 . S
C328 C61 0.578 . S
C345 C226 0.558 . S
C364 C94 0.624 . S
C381 C127 0.553 . S
C400 C259 0.616 . S
C417 N47 0.649 . S
C436 N14 0.719 . S
C453 N80 0.649 . S
C472 N113 0.719 . S
C489 N146 0.647 . S
C508 N179 0.591 . S
C525 N245 0.636 . S
C544 N212 0.562 . S
C561 C8 1.757 . S
C580 N170 1.774 . S
C597 N137 1.766 . S
C616 C41 1.759 . S
C633 N236 1.766 . S
C652 C74 1.756 . S
C669 N203 1.771 . S
C688 C107 1.769 . S
C705 N38 1.766 . S
C724 C140 1.775 . S
C741 C173 1.764 . S
C760 N5 1.774 . S
C777 C206 1.761 . S
C796 N104 1.751 . S
C813 N71 1.766 . S
C832 C239 1.776 . S
C849 C83 1.417 . S
C868 C17 1.417 . S
C885 C50 1.415 . S
C904 C116 1.409 . S
C921 C215 1.417 . S
C940 C149 1.406 . S
C957 C248 1.416 . S
C976 C182 1.407 . S
