# Generated by pormake.
# Topology bcu-k, (6)-cn, num edge types: 1
# Building blocks:
#     Node 0, Type 0, BuildingBlock: IZENUY_clean_sbu_0, # of connection points: 6
#     Node 1, Type 0, BuildingBlock: IZENUY_clean_sbu_0, # of connection points: 6
#     Node 2, Type 0, BuildingBlock: IZENUY_clean_sbu_0, # of connection points: 6
#     Node 3, Type 0, BuildingBlock: IZENUY_clean_sbu_0, # of connection points: 6
#     Node 4, Type 0, BuildingBlock: IZENUY_clean_sbu_0, # of connection points: 6
#     Node 5, Type 0, BuildingBlock: IZENUY_clean_sbu_0, # of connection points: 6
#     Node 6, Type 0, BuildingBlock: IZENUY_clean_sbu_0, # of connection points: 6
#     Node 7, Type 0, BuildingBlock: IZENUY_clean_sbu_0, # of connection points: 6
#     Node 8, Type 0, BuildingBlock: IZENUY_clean_sbu_0, # of connection points: 6
#     Node 9, Type 0, BuildingBlock: IZENUY_clean_sbu_0, # of connection points: 6
#     Node 10, Type 0, BuildingBlock: IZENUY_clean_sbu_0, # of connection points: 6
#     Node 11, Type 0, BuildingBlock: IZENUY_clean_sbu_0, # of connection points: 6
#     Node 12, Type 0, BuildingBlock: IZENUY_clean_sbu_0, # of connection points: 6
#     Node 13, Type 0, BuildingBlock: IZENUY_clean_sbu_0, # of connection points: 6
#     Node 14, Type 0, BuildingBlock: IZENUY_clean_sbu_0, # of connection points: 6
#     Node 15, Type 0, BuildingBlock: IZENUY_clean_sbu_0, # of connection points: 6
#     Node 16, Type 0, BuildingBlock: IZENUY_clean_sbu_0, # of connection points: 6
#     Node 17, Type 0, BuildingBlock: IZENUY_clean_sbu_0, # of connection points: 6
#     Node 18, Type 0, BuildingBlock: IZENUY_clean_sbu_0, # of connection points: 6
#     Node 19, Type 0, BuildingBlock: IZENUY_clean_sbu_0, # of connection points: 6
#     Node 20, Type 0, BuildingBlock: IZENUY_clean_sbu_0, # of connection points: 6
#     Node 21, Type 0, BuildingBlock: IZENUY_clean_sbu_0, # of connection points: 6
#     Node 22, Type 0, BuildingBlock: IZENUY_clean_sbu_0, # of connection points: 6
#     Node 23, Type 0, BuildingBlock: IZENUY_clean_sbu_0, # of connection points: 6
#     Node 24, Type 0, BuildingBlock: IZENUY_clean_sbu_0, # of connection points: 6
#     Node 25, Type 0, BuildingBlock: IZENUY_clean_sbu_0, # of connection points: 6
#     Node 26, Type 0, BuildingBlock: IZENUY_clean_sbu_0, # of connection points: 6
#     Node 27, Type 0, BuildingBlock: IZENUY_clean_sbu_0, # of connection points: 6
#     Node 28, Type 0, BuildingBlock: IZENUY_clean_sbu_0, # of connection points: 6
#     Node 29, Type 0, BuildingBlock: IZENUY_clean_sbu_0, # of connection points: 6
#     Node 30, Type 0, BuildingBlock: IZENUY_clean_sbu_0, # of connection points: 6
#     Node 31, Type 0, BuildingBlock: IZENUY_clean_sbu_0, # of connection points: 6
#     Node 32, Type 0, BuildingBlock: IZENUY_clean_sbu_0, # of connection points: 6
#     Node 33, Type 0, BuildingBlock: IZENUY_clean_sbu_0, # of connection points: 6
#     Node 34, Type 0, BuildingBlock: IZENUY_clean_sbu_0, # of connection points: 6
#     Node 35, Type 0, BuildingBlock: IZENUY_clean_sbu_0, # of connection points: 6
#     Node 36, Type 0, BuildingBlock: IZENUY_clean_sbu_0, # of connection points: 6
#     Node 37, Type 0, BuildingBlock: IZENUY_clean_sbu_0, # of connection points: 6
#     Node 38, Type 0, BuildingBlock: IZENUY_clean_sbu_0, # of connection points: 6
#     Node 39, Type 0, BuildingBlock: IZENUY_clean_sbu_0, # of connection points: 6
#     Node 40, Type 0, BuildingBlock: IZENUY_clean_sbu_0, # of connection points: 6
#     Node 41, Type 0, BuildingBlock: IZENUY_clean_sbu_0, # of connection points: 6
#     Node 42, Type 0, BuildingBlock: IZENUY_clean_sbu_0, # of connection points: 6
#     Node 43, Type 0, BuildingBlock: IZENUY_clean_sbu_0, # of connection points: 6
#     Node 44, Type 0, BuildingBlock: IZENUY_clean_sbu_0, # of connection points: 6
#     Node 45, Type 0, BuildingBlock: IZENUY_clean_sbu_0, # of connection points: 6
#     Node 46, Type 0, BuildingBlock: IZENUY_clean_sbu_0, # of connection points: 6
#     Node 47, Type 0, BuildingBlock: IZENUY_clean_sbu_0, # of connection points: 6
#     Edge 48, Type (0, 0), BuildingBlock: KIFKEQ_clean_linker_1, # of connection points: 2
#     Edge 49, Type (0, 0), BuildingBlock: KIFKEQ_clean_linker_1, # of connection points: 2
#     Edge 50, Type (0, 0), BuildingBlock: KIFKEQ_clean_linker_1, # of connection points: 2
#     Edge 51, Type (0, 0), BuildingBlock: KIFKEQ_clean_linker_1, # of connection points: 2
#     Edge 52, Type (0, 0), BuildingBlock: KIFKEQ_clean_linker_1, # of connection points: 2
#     Edge 53, Type (0, 0), BuildingBlock: KIFKEQ_clean_linker_1, # of connection points: 2
#     Edge 54, Type (0, 0), BuildingBlock: KIFKEQ_clean_linker_1, # of connection points: 2
#     Edge 55, Type (0, 0), BuildingBlock: KIFKEQ_clean_linker_1, # of connection points: 2
#     Edge 56, Type (0, 0), BuildingBlock: KIFKEQ_clean_linker_1, # of connection points: 2
#     Edge 57, Type (0, 0), BuildingBlock: KIFKEQ_clean_linker_1, # of connection points: 2
#     Edge 58, Type (0, 0), BuildingBlock: KIFKEQ_clean_linker_1, # of connection points: 2
#     Edge 59, Type (0, 0), BuildingBlock: KIFKEQ_clean_linker_1, # of connection points: 2
#     Edge 60, Type (0, 0), BuildingBlock: KIFKEQ_clean_linker_1, # of connection points: 2
#     Edge 61, Type (0, 0), BuildingBlock: KIFKEQ_clean_linker_1, # of connection points: 2
#     Edge 62, Type (0, 0), BuildingBlock: KIFKEQ_clean_linker_1, # of connection points: 2
#     Edge 63, Type (0, 0), BuildingBlock: KIFKEQ_clean_linker_1, # of connection points: 2
#     Edge 64, Type (0, 0), BuildingBlock: KIFKEQ_clean_linker_1, # of connection points: 2
#     Edge 65, Type (0, 0), BuildingBlock: KIFKEQ_clean_linker_1, # of connection points: 2
#     Edge 66, Type (0, 0), BuildingBlock: KIFKEQ_clean_linker_1, # of connection points: 2
#     Edge 67, Type (0, 0), BuildingBlock: KIFKEQ_clean_linker_1, # of connection points: 2
#     Edge 68, Type (0, 0), BuildingBlock: KIFKEQ_clean_linker_1, # of connection points: 2
#     Edge 69, Type (0, 0), BuildingBlock: KIFKEQ_clean_linker_1, # of connection points: 2
#     Edge 70, Type (0, 0), BuildingBlock: KIFKEQ_clean_linker_1, # of connection points: 2
#     Edge 71, Type (0, 0), BuildingBlock: KIFKEQ_clean_linker_1, # of connection points: 2
#     Edge 72, Type (0, 0), BuildingBlock: KIFKEQ_clean_linker_1, # of connection points: 2
#     Edge 73, Type (0, 0), BuildingBlock: KIFKEQ_clean_linker_1, # of connection points: 2
#     Edge 74, Type (0, 0), BuildingBlock: KIFKEQ_clean_linker_1, # of connection points: 2
#     Edge 75, Type (0, 0), BuildingBlock: KIFKEQ_clean_linker_1, # of connection points: 2
#     Edge 76, Type (0, 0), BuildingBlock: KIFKEQ_clean_linker_1, # of connection points: 2
#     Edge 77, Type (0, 0), BuildingBlock: KIFKEQ_clean_linker_1, # of connection points: 2
#     Edge 78, Type (0, 0), BuildingBlock: KIFKEQ_clean_linker_1, # of connection points: 2
#     Edge 79, Type (0, 0), BuildingBlock: KIFKEQ_clean_linker_1, # of connection points: 2
#     Edge 80, Type (0, 0), BuildingBlock: KIFKEQ_clean_linker_1, # of connection points: 2
#     Edge 81, Type (0, 0), BuildingBlock: KIFKEQ_clean_linker_1, # of connection points: 2
#     Edge 82, Type (0, 0), BuildingBlock: KIFKEQ_clean_linker_1, # of connection points: 2
#     Edge 83, Type (0, 0), BuildingBlock: KIFKEQ_clean_linker_1, # of connection points: 2
#     Edge 84, Type (0, 0), BuildingBlock: KIFKEQ_clean_linker_1, # of connection points: 2
#     Edge 85, Type (0, 0), BuildingBlock: KIFKEQ_clean_linker_1, # of connection points: 2
#     Edge 86, Type (0, 0), BuildingBlock: KIFKEQ_clean_linker_1, # of connection points: 2
#     Edge 87, Type (0, 0), BuildingBlock: KIFKEQ_clean_linker_1, # of connection points: 2
#     Edge 88, Type (0, 0), BuildingBlock: KIFKEQ_clean_linker_1, # of connection points: 2
#     Edge 89, Type (0, 0), BuildingBlock: KIFKEQ_clean_linker_1, # of connection points: 2
#     Edge 90, Type (0, 0), BuildingBlock: KIFKEQ_clean_linker_1, # of connection points: 2
#     Edge 91, Type (0, 0), BuildingBlock: KIFKEQ_clean_linker_1, # of connection points: 2
#     Edge 92, Type (0, 0), BuildingBlock: KIFKEQ_clean_linker_1, # of connection points: 2
#     Edge 93, Type (0, 0), BuildingBlock: KIFKEQ_clean_linker_1, # of connection points: 2
#     Edge 94, Type (0, 0), BuildingBlock: KIFKEQ_clean_linker_1, # of connection points: 2
#     Edge 95, Type (0, 0), BuildingBlock: KIFKEQ_clean_linker_1, # of connection points: 2
#     Edge 96, Type (0, 0), BuildingBlock: KIFKEQ_clean_linker_1, # of connection points: 2
#     Edge 97, Type (0, 0), BuildingBlock: KIFKEQ_clean_linker_1, # of connection points: 2
#     Edge 98, Type (0, 0), BuildingBlock: KIFKEQ_clean_linker_1, # of connection points: 2
#     Edge 99, Type (0, 0), BuildingBlock: KIFKEQ_clean_linker_1, # of connection points: 2
#     Edge 100, Type (0, 0), BuildingBlock: KIFKEQ_clean_linker_1, # of connection points: 2
#     Edge 101, Type (0, 0), BuildingBlock: KIFKEQ_clean_linker_1, # of connection points: 2
#     Edge 102, Type (0, 0), BuildingBlock: KIFKEQ_clean_linker_1, # of connection points: 2
#     Edge 103, Type (0, 0), BuildingBlock: KIFKEQ_clean_linker_1, # of connection points: 2
#     Edge 104, Type (0, 0), BuildingBlock: KIFKEQ_clean_linker_1, # of connection points: 2
#     Edge 105, Type (0, 0), BuildingBlock: KIFKEQ_clean_linker_1, # of connection points: 2
#     Edge 106, Type (0, 0), BuildingBlock: KIFKEQ_clean_linker_1, # of connection points: 2
#     Edge 107, Type (0, 0), BuildingBlock: KIFKEQ_clean_linker_1, # of connection points: 2
#     Edge 108, Type (0, 0), BuildingBlock: KIFKEQ_clean_linker_1, # of connection points: 2
#     Edge 109, Type (0, 0), BuildingBlock: KIFKEQ_clean_linker_1, # of connection points: 2
#     Edge 110, Type (0, 0), BuildingBlock: KIFKEQ_clean_linker_1, # of connection points: 2
#     Edge 111, Type (0, 0), BuildingBlock: KIFKEQ_clean_linker_1, # of connection points: 2
#     Edge 112, Type (0, 0), BuildingBlock: KIFKEQ_clean_linker_1, # of connection points: 2
#     Edge 113, Type (0, 0), BuildingBlock: KIFKEQ_clean_linker_1, # of connection points: 2
#     Edge 114, Type (0, 0), BuildingBlock: KIFKEQ_clean_linker_1, # of connection points: 2
#     Edge 115, Type (0, 0), BuildingBlock: KIFKEQ_clean_linker_1, # of connection points: 2
#     Edge 116, Type (0, 0), BuildingBlock: KIFKEQ_clean_linker_1, # of connection points: 2
#     Edge 117, Type (0, 0), BuildingBlock: KIFKEQ_clean_linker_1, # of connection points: 2
#     Edge 118, Type (0, 0), BuildingBlock: KIFKEQ_clean_linker_1, # of connection points: 2
#     Edge 119, Type (0, 0), BuildingBlock: KIFKEQ_clean_linker_1, # of connection points: 2
#     Edge 120, Type (0, 0), BuildingBlock: KIFKEQ_clean_linker_1, # of connection points: 2
#     Edge 121, Type (0, 0), BuildingBlock: KIFKEQ_clean_linker_1, # of connection points: 2
#     Edge 122, Type (0, 0), BuildingBlock: KIFKEQ_clean_linker_1, # of connection points: 2
#     Edge 123, Type (0, 0), BuildingBlock: KIFKEQ_clean_linker_1, # of connection points: 2
#     Edge 124, Type (0, 0), BuildingBlock: KIFKEQ_clean_linker_1, # of connection points: 2
#     Edge 125, Type (0, 0), BuildingBlock: KIFKEQ_clean_linker_1, # of connection points: 2
#     Edge 126, Type (0, 0), BuildingBlock: KIFKEQ_clean_linker_1, # of connection points: 2
#     Edge 127, Type (0, 0), BuildingBlock: KIFKEQ_clean_linker_1, # of connection points: 2
#     Edge 128, Type (0, 0), BuildingBlock: KIFKEQ_clean_linker_1, # of connection points: 2
#     Edge 129, Type (0, 0), BuildingBlock: KIFKEQ_clean_linker_1, # of connection points: 2
#     Edge 130, Type (0, 0), BuildingBlock: KIFKEQ_clean_linker_1, # of connection points: 2
#     Edge 131, Type (0, 0), BuildingBlock: KIFKEQ_clean_linker_1, # of connection points: 2
#     Edge 132, Type (0, 0), BuildingBlock: KIFKEQ_clean_linker_1, # of connection points: 2
#     Edge 133, Type (0, 0), BuildingBlock: KIFKEQ_clean_linker_1, # of connection points: 2
#     Edge 134, Type (0, 0), BuildingBlock: KIFKEQ_clean_linker_1, # of connection points: 2
#     Edge 135, Type (0, 0), BuildingBlock: KIFKEQ_clean_linker_1, # of connection points: 2
#     Edge 136, Type (0, 0), BuildingBlock: KIFKEQ_clean_linker_1, # of connection points: 2
#     Edge 137, Type (0, 0), BuildingBlock: KIFKEQ_clean_linker_1, # of connection points: 2
#     Edge 138, Type (0, 0), BuildingBlock: KIFKEQ_clean_linker_1, # of connection points: 2
#     Edge 139, Type (0, 0), BuildingBlock: KIFKEQ_clean_linker_1, # of connection points: 2
#     Edge 140, Type (0, 0), BuildingBlock: KIFKEQ_clean_linker_1, # of connection points: 2
#     Edge 141, Type (0, 0), BuildingBlock: KIFKEQ_clean_linker_1, # of connection points: 2
#     Edge 142, Type (0, 0), BuildingBlock: KIFKEQ_clean_linker_1, # of connection points: 2
#     Edge 143, Type (0, 0), BuildingBlock: KIFKEQ_clean_linker_1, # of connection points: 2
#     Edge 144, Type (0, 0), BuildingBlock: KIFKEQ_clean_linker_1, # of connection points: 2
#     Edge 145, Type (0, 0), BuildingBlock: KIFKEQ_clean_linker_1, # of connection points: 2
#     Edge 146, Type (0, 0), BuildingBlock: KIFKEQ_clean_linker_1, # of connection points: 2
#     Edge 147, Type (0, 0), BuildingBlock: KIFKEQ_clean_linker_1, # of connection points: 2
#     Edge 148, Type (0, 0), BuildingBlock: KIFKEQ_clean_linker_1, # of connection points: 2
#     Edge 149, Type (0, 0), BuildingBlock: KIFKEQ_clean_linker_1, # of connection points: 2
#     Edge 150, Type (0, 0), BuildingBlock: KIFKEQ_clean_linker_1, # of connection points: 2
#     Edge 151, Type (0, 0), BuildingBlock: KIFKEQ_clean_linker_1, # of connection points: 2
#     Edge 152, Type (0, 0), BuildingBlock: KIFKEQ_clean_linker_1, # of connection points: 2
#     Edge 153, Type (0, 0), BuildingBlock: KIFKEQ_clean_linker_1, # of connection points: 2
#     Edge 154, Type (0, 0), BuildingBlock: KIFKEQ_clean_linker_1, # of connection points: 2
#     Edge 155, Type (0, 0), BuildingBlock: KIFKEQ_clean_linker_1, # of connection points: 2
#     Edge 156, Type (0, 0), BuildingBlock: KIFKEQ_clean_linker_1, # of connection points: 2
#     Edge 157, Type (0, 0), BuildingBlock: KIFKEQ_clean_linker_1, # of connection points: 2
#     Edge 158, Type (0, 0), BuildingBlock: KIFKEQ_clean_linker_1, # of connection points: 2
#     Edge 159, Type (0, 0), BuildingBlock: KIFKEQ_clean_linker_1, # of connection points: 2
#     Edge 160, Type (0, 0), BuildingBlock: KIFKEQ_clean_linker_1, # of connection points: 2
#     Edge 161, Type (0, 0), BuildingBlock: KIFKEQ_clean_linker_1, # of connection points: 2
#     Edge 162, Type (0, 0), BuildingBlock: KIFKEQ_clean_linker_1, # of connection points: 2
#     Edge 163, Type (0, 0), BuildingBlock: KIFKEQ_clean_linker_1, # of connection points: 2
#     Edge 164, Type (0, 0), BuildingBlock: KIFKEQ_clean_linker_1, # of connection points: 2
#     Edge 165, Type (0, 0), BuildingBlock: KIFKEQ_clean_linker_1, # of connection points: 2
#     Edge 166, Type (0, 0), BuildingBlock: KIFKEQ_clean_linker_1, # of connection points: 2
#     Edge 167, Type (0, 0), BuildingBlock: KIFKEQ_clean_linker_1, # of connection points: 2
#     Edge 168, Type (0, 0), BuildingBlock: KIFKEQ_clean_linker_1, # of connection points: 2
#     Edge 169, Type (0, 0), BuildingBlock: KIFKEQ_clean_linker_1, # of connection points: 2
#     Edge 170, Type (0, 0), BuildingBlock: KIFKEQ_clean_linker_1, # of connection points: 2
#     Edge 171, Type (0, 0), BuildingBlock: KIFKEQ_clean_linker_1, # of connection points: 2
#     Edge 172, Type (0, 0), BuildingBlock: KIFKEQ_clean_linker_1, # of connection points: 2
#     Edge 173, Type (0, 0), BuildingBlock: KIFKEQ_clean_linker_1, # of connection points: 2
#     Edge 174, Type (0, 0), BuildingBlock: KIFKEQ_clean_linker_1, # of connection points: 2
#     Edge 175, Type (0, 0), BuildingBlock: KIFKEQ_clean_linker_1, # of connection points: 2
#     Edge 176, Type (0, 0), BuildingBlock: KIFKEQ_clean_linker_1, # of connection points: 2
#     Edge 177, Type (0, 0), BuildingBlock: KIFKEQ_clean_linker_1, # of connection points: 2
#     Edge 178, Type (0, 0), BuildingBlock: KIFKEQ_clean_linker_1, # of connection points: 2
#     Edge 179, Type (0, 0), BuildingBlock: KIFKEQ_clean_linker_1, # of connection points: 2
#     Edge 180, Type (0, 0), BuildingBlock: KIFKEQ_clean_linker_1, # of connection points: 2
#     Edge 181, Type (0, 0), BuildingBlock: KIFKEQ_clean_linker_1, # of connection points: 2
#     Edge 182, Type (0, 0), BuildingBlock: KIFKEQ_clean_linker_1, # of connection points: 2
#     Edge 183, Type (0, 0), BuildingBlock: KIFKEQ_clean_linker_1, # of connection points: 2
#     Edge 184, Type (0, 0), BuildingBlock: KIFKEQ_clean_linker_1, # of connection points: 2
#     Edge 185, Type (0, 0), BuildingBlock: KIFKEQ_clean_linker_1, # of connection points: 2
#     Edge 186, Type (0, 0), BuildingBlock: KIFKEQ_clean_linker_1, # of connection points: 2
#     Edge 187, Type (0, 0), BuildingBlock: KIFKEQ_clean_linker_1, # of connection points: 2
#     Edge 188, Type (0, 0), BuildingBlock: KIFKEQ_clean_linker_1, # of connection points: 2
#     Edge 189, Type (0, 0), BuildingBlock: KIFKEQ_clean_linker_1, # of connection points: 2
#     Edge 190, Type (0, 0), BuildingBlock: KIFKEQ_clean_linker_1, # of connection points: 2
#     Edge 191, Type (0, 0), BuildingBlock: KIFKEQ_clean_linker_1, # of connection points: 2
# Relax obj value: 0.432
# Max RMSD: 0.167
# Mean RMSD: 0.166
data_MOF--net-bcu-k--node1-IZENUY_clean_sbu_0--edge1-KIFKEQ_clean_linker_1
_symmetry_space_group_name_H-M    P1
_symmetry_Int_Tables_number       1
_symmetry_cell_setting            triclinic
loop_
_symmetry_equiv_pos_as_xyz
'x, y, z'
_cell_length_a     59.990767
_cell_length_b     59.95453
_cell_length_c     59.943982
_cell_angle_alpha  89.988172
_cell_angle_beta   90.017135
_cell_angle_gamma 90.009697
loop_
_atom_site_label
_atom_site_type_symbol
_atom_site_fract_x
_atom_site_fract_y
_atom_site_fract_z
_atom_type_partial_charge
Fe0 Fe 0.11824 0.11804 0.28956 0.0
Fe1 Fe 0.1553 0.14995 0.3037 0.0
O2 O 0.134 0.13098 0.31094 0.0
Fe3 Fe 0.12852 0.12511 0.33953 0.0
O4 O 0.13448 0.09564 0.33553 0.0
O5 O 0.11443 0.09189 0.30497 0.0
O6 O 0.1428 0.10538 0.27721 0.0
C7 C 0.15974 0.11621 0.27123 0.0
C8 C 0.08535 0.1268 0.31984 0.0
O9 O 0.16281 0.13606 0.27755 0.0
C10 C 0.13487 0.17028 0.34075 0.0
O11 O 0.11922 0.14204 0.27029 0.0
O12 O 0.13576 0.16815 0.28991 0.0
O13 O 0.09825 0.12069 0.33551 0.0
O14 O 0.09272 0.12971 0.30038 0.0
C15 C 0.17585 0.12743 0.33734 0.0
O16 O 0.15174 0.16754 0.32842 0.0
O17 O 0.12207 0.15423 0.34533 0.0
C18 C 0.12325 0.16247 0.27403 0.0
O19 O 0.17604 0.13278 0.31703 0.0
O20 O 0.15793 0.12851 0.34861 0.0
C21 C 0.12532 0.08343 0.321 0.0
Fe22 Fe 0.85218 0.15798 0.31935 0.0
Fe23 Fe 0.87723 0.12732 0.35152 0.0
O24 O 0.87 0.135 0.32382 0.0
Fe25 Fe 0.88038 0.11979 0.30079 0.0
O26 O 0.8936 0.14429 0.28868 0.0
O27 O 0.8645 0.16613 0.29273 0.0
O28 O 0.87198 0.17642 0.33233 0.0
C29 C 0.87879 0.17445 0.35206 0.0
C30 C 0.83541 0.12889 0.28873 0.0
O31 O 0.87626 0.15625 0.36261 0.0
C32 C 0.87159 0.08568 0.32977 0.0
O33 O 0.83645 0.15429 0.34535 0.0
O34 O 0.84806 0.12211 0.35836 0.0
O35 O 0.85521 0.12344 0.28363 0.0
O36 O 0.83151 0.14072 0.30571 0.0
C37 C 0.91738 0.12302 0.3302 0.0
O38 O 0.87973 0.09721 0.34552 0.0
O39 O 0.86784 0.09431 0.31099 0.0
C40 C 0.83302 0.13669 0.35646 0.0
O41 O 0.90664 0.13191 0.346 0.0
O42 O 0.90731 0.11361 0.31411 0.0
C43 C 0.88351 0.16227 0.28461 0.0
Fe44 Fe 0.87917 0.88215 0.29918 0.0
Fe45 Fe 0.84863 0.8461 0.31791 0.0
O46 O 0.86757 0.86812 0.32242 0.0
Fe47 Fe 0.87467 0.87576 0.35013 0.0
O48 O 0.87789 0.90574 0.34381 0.0
O49 O 0.86812 0.90857 0.3085 0.0
O50 O 0.85392 0.8794 0.28178 0.0
C51 C 0.83374 0.87572 0.28708 0.0
C52 C 0.91548 0.87831 0.32932 0.0
O53 O 0.82903 0.86468 0.3044 0.0
C54 C 0.87442 0.82843 0.35066 0.0
O55 O 0.89125 0.85656 0.28804 0.0
O56 O 0.86037 0.83741 0.29126 0.0
O57 O 0.90405 0.87033 0.34513 0.0
O58 O 0.90616 0.88735 0.31262 0.0
C59 C 0.83023 0.86761 0.3552 0.0
O60 O 0.86745 0.82668 0.33094 0.0
O61 O 0.87286 0.8468 0.36119 0.0
C62 C 0.87995 0.83934 0.28383 0.0
O63 O 0.83314 0.85017 0.34382 0.0
O64 O 0.84558 0.88187 0.35695 0.0
C65 C 0.87145 0.91737 0.32731 0.0
Fe66 Fe 0.1255 0.87468 0.349 0.0
Fe67 Fe 0.11928 0.87803 0.29807 0.0
O68 O 0.13296 0.8666 0.32156 0.0
Fe69 Fe 0.15429 0.84675 0.31759 0.0
O70 O 0.14958 0.83201 0.34391 0.0
O71 O 0.11821 0.846 0.35625 0.0
O72 O 0.0957 0.87891 0.34249 0.0
C73 C 0.08387 0.87209 0.32629 0.0
C74 C 0.17266 0.87291 0.34968 0.0
O75 O 0.09258 0.86784 0.30763 0.0
C76 C 0.16206 0.8771 0.28271 0.0
O77 O 0.13205 0.90375 0.3433 0.0
O78 O 0.11471 0.90544 0.31093 0.0
O79 O 0.1743 0.86519 0.33023 0.0
O80 O 0.15429 0.87208 0.36024 0.0
C81 C 0.12425 0.83222 0.28698 0.0
O82 O 0.14525 0.8891 0.2867 0.0
O83 O 0.16339 0.85767 0.2907 0.0
C84 C 0.12395 0.91496 0.3274 0.0
O85 O 0.12135 0.85241 0.28125 0.0
O86 O 0.13508 0.82746 0.30442 0.0
C87 C 0.13175 0.82999 0.35486 0.0
Fe88 Fe 0.12147 0.88449 0.70454 0.0
Fe89 Fe 0.15683 0.85245 0.68703 0.0
O90 O 0.13528 0.87177 0.68176 0.0
Fe91 Fe 0.12767 0.87804 0.65381 0.0
O92 O 0.13373 0.90757 0.6577 0.0
O93 O 0.11674 0.91094 0.69008 0.0
O94 O 0.14719 0.89653 0.71523 0.0
C95 C 0.16424 0.88514 0.71972 0.0
C96 C 0.08614 0.87626 0.67674 0.0
O97 O 0.16598 0.86525 0.7131 0.0
C98 C 0.13474 0.83313 0.65046 0.0
O99 O 0.12371 0.86008 0.72295 0.0
O100 O 0.13773 0.83389 0.70145 0.0
O101 O 0.09779 0.88216 0.66007 0.0
O102 O 0.09496 0.87343 0.69561 0.0
C103 C 0.17497 0.87651 0.65311 0.0
O104 O 0.15221 0.83595 0.66183 0.0
O105 O 0.12092 0.84881 0.64805 0.0
C106 C 0.12639 0.83964 0.71825 0.0
O107 O 0.17672 0.87014 0.67306 0.0
O108 O 0.15649 0.87517 0.64277 0.0
C109 C 0.12615 0.91959 0.67327 0.0
Fe110 Fe 0.12077 0.12375 0.70521 0.0
Fe111 Fe 0.15376 0.15743 0.68611 0.0
O112 O 0.13325 0.13675 0.68178 0.0
Fe113 Fe 0.12549 0.12943 0.65418 0.0
O114 O 0.096 0.1243 0.66103 0.0
O115 O 0.09329 0.13281 0.69671 0.0
O116 O 0.12194 0.14886 0.72284 0.0
C117 C 0.12322 0.16932 0.71751 0.0
C118 C 0.1256 0.08817 0.67422 0.0
O119 O 0.13373 0.17528 0.70021 0.0
C120 C 0.17255 0.13288 0.65289 0.0
O121 O 0.14766 0.11361 0.71551 0.0
O122 O 0.16378 0.14618 0.7125 0.0
O123 O 0.13281 0.10028 0.65858 0.0
O124 O 0.11709 0.09667 0.69157 0.0
C125 C 0.13057 0.17445 0.64917 0.0
O126 O 0.17446 0.14039 0.67244 0.0
O127 O 0.15394 0.13315 0.64277 0.0
C128 C 0.16392 0.12636 0.71953 0.0
O129 O 0.14822 0.17287 0.66043 0.0
O130 O 0.11737 0.15815 0.64769 0.0
C131 C 0.08437 0.12952 0.67792 0.0
Fe132 Fe 0.88214 0.11857 0.70468 0.0
Fe133 Fe 0.84556 0.14945 0.68764 0.0
O134 O 0.8673 0.13052 0.68214 0.0
Fe135 Fe 0.87423 0.12381 0.65408 0.0
O136 O 0.86828 0.09444 0.65885 0.0
O137 O 0.88717 0.09202 0.69027 0.0
O138 O 0.85716 0.10594 0.7163 0.0
C139 C 0.83981 0.11685 0.72092 0.0
C140 C 0.91619 0.12723 0.67568 0.0
O141 O 0.83712 0.13651 0.71388 0.0
C142 C 0.86767 0.16891 0.65149 0.0
O143 O 0.87967 0.1431 0.72306 0.0
O144 O 0.86438 0.1685 0.70156 0.0
O145 O 0.90431 0.11986 0.65976 0.0
O146 O 0.9079 0.13048 0.69471 0.0
C147 C 0.82698 0.12506 0.65424 0.0
O148 O 0.84989 0.16589 0.66235 0.0
O149 O 0.8808 0.15289 0.64782 0.0
C150 C 0.87596 0.16337 0.71832 0.0
O151 O 0.82573 0.13137 0.67421 0.0
O152 O 0.8452 0.12656 0.6435 0.0
C153 C 0.87693 0.08283 0.67419 0.0
Fe154 Fe 0.88311 0.88165 0.70984 0.0
Fe155 Fe 0.8763 0.87224 0.65978 0.0
O156 O 0.8713 0.86546 0.68817 0.0
Fe157 Fe 0.85427 0.84238 0.69474 0.0
O158 O 0.83442 0.85993 0.70909 0.0
O159 O 0.8592 0.87843 0.7289 0.0
O160 O 0.86965 0.90664 0.6997 0.0
C161 C 0.87205 0.9147 0.68045 0.0
C162 C 0.88807 0.83991 0.72736 0.0
O163 O 0.87878 0.90257 0.66448 0.0
C164 C 0.87838 0.82503 0.66061 0.0
O165 O 0.90891 0.88759 0.69441 0.0
O166 O 0.90612 0.86824 0.66325 0.0
O167 O 0.8686 0.83541 0.72077 0.0
O168 O 0.89754 0.8578 0.7218 0.0
C169 C 0.83203 0.86201 0.65835 0.0
O170 O 0.87492 0.84293 0.6498 0.0
O171 O 0.87336 0.82369 0.68095 0.0
C172 C 0.91788 0.87781 0.67791 0.0
O173 O 0.84663 0.87678 0.65493 0.0
O174 O 0.83656 0.8449 0.66984 0.0
C175 C 0.83917 0.87271 0.72514 0.0
Fe176 Fe 0.34783 0.12514 0.12679 0.0
Fe177 Fe 0.29697 0.12136 0.12082 0.0
O178 O 0.32034 0.13201 0.13531 0.0
Fe179 Fe 0.31647 0.14973 0.15848 0.0
O180 O 0.34218 0.16575 0.15395 0.0
O181 O 0.35406 0.1544 0.12123 0.0
O182 O 0.34099 0.12232 0.0969 0.0
C183 C 0.32474 0.12987 0.08568 0.0
C184 C 0.35017 0.12402 0.174 0.0
O185 O 0.30628 0.13364 0.09491 0.0
C186 C 0.28168 0.11838 0.16366 0.0
O187 O 0.34284 0.09567 0.13173 0.0
O188 O 0.3103 0.09445 0.11458 0.0
O189 O 0.33024 0.12998 0.17654 0.0
O190 O 0.35981 0.12658 0.15532 0.0
C191 C 0.28508 0.16638 0.13008 0.0
O192 O 0.28559 0.10823 0.14569 0.0
O193 O 0.29017 0.13728 0.16742 0.0
C194 C 0.32686 0.08466 0.12347 0.0
O195 O 0.27985 0.14657 0.12471 0.0
O196 O 0.30221 0.17029 0.14166 0.0
C197 C 0.35259 0.16937 0.13596 0.0
Fe198 Fe 0.88292 0.28965 0.12102 0.0
Fe199 Fe 0.84706 0.30705 0.15262 0.0
O200 O 0.8684 0.31234 0.13311 0.0
Fe201 Fe 0.87492 0.34029 0.12588 0.0
O202 O 0.86865 0.33517 0.09666 0.0
O203 O 0.88707 0.3035 0.09398 0.0
O204 O 0.85739 0.27774 0.10945 0.0
C205 C 0.8405 0.27309 0.12107 0.0
C206 C 0.91726 0.31893 0.1279 0.0
O207 O 0.83883 0.2803 0.14077 0.0
C208 C 0.86813 0.34497 0.1706 0.0
O209 O 0.88148 0.27197 0.14621 0.0
O210 O 0.86647 0.29384 0.17158 0.0
O211 O 0.9049 0.33491 0.12158 0.0
O212 O 0.90922 0.29985 0.13158 0.0
C213 C 0.82771 0.33964 0.12779 0.0
O214 O 0.85101 0.33293 0.16831 0.0
O215 O 0.88179 0.3472 0.15477 0.0
C216 C 0.87811 0.27704 0.16652 0.0
O217 O 0.82672 0.31976 0.1345 0.0
O218 O 0.84585 0.35055 0.12879 0.0
C219 C 0.87735 0.31997 0.08495 0.0
Fe220 Fe 0.6531 0.87393 0.12793 0.0
Fe221 Fe 0.70379 0.88089 0.12384 0.0
O222 O 0.68079 0.86564 0.13428 0.0
Fe223 Fe 0.68518 0.84204 0.15129 0.0
O224 O 0.67126 0.82436 0.1313 0.0
O225 O 0.64143 0.8453 0.12896 0.0
O226 O 0.65788 0.86964 0.09835 0.0
C227 C 0.67359 0.87844 0.08737 0.0
C228 C 0.64912 0.86376 0.17206 0.0
O229 O 0.68998 0.88762 0.09722 0.0
C230 C 0.71641 0.87047 0.1684 0.0
O231 O 0.65949 0.90394 0.12557 0.0
O232 O 0.69408 0.90617 0.13714 0.0
O233 O 0.65971 0.84597 0.1679 0.0
O234 O 0.64718 0.87876 0.15739 0.0
C235 C 0.71948 0.83833 0.11919 0.0
O236 O 0.72131 0.87657 0.14871 0.0
O237 O 0.69961 0.85838 0.17211 0.0
C238 C 0.67542 0.91513 0.13374 0.0
O239 O 0.71554 0.85672 0.10983 0.0
O240 O 0.7113 0.83372 0.13804 0.0
C241 C 0.65121 0.82681 0.12574 0.0
Fe242 Fe 0.12593 0.65435 0.12506 0.0
Fe243 Fe 0.11898 0.70526 0.12231 0.0
O244 O 0.13369 0.6819 0.13265 0.0
Fe245 Fe 0.15648 0.68595 0.15078 0.0
O246 O 0.17505 0.67343 0.13082 0.0
O247 O 0.15489 0.64323 0.12608 0.0
O248 O 0.13074 0.66016 0.09575 0.0
C249 C 0.12236 0.67622 0.08498 0.0
C250 C 0.13509 0.64856 0.16921 0.0
O251 O 0.11329 0.69253 0.09498 0.0
C252 C 0.12708 0.71594 0.1679 0.0
O253 O 0.09583 0.66052 0.12243 0.0
O254 O 0.09318 0.69521 0.13391 0.0
O255 O 0.15271 0.65963 0.16587 0.0
O256 O 0.12048 0.64706 0.15414 0.0
C257 C 0.16145 0.72143 0.12038 0.0
O258 O 0.12217 0.7218 0.14811 0.0
O259 O 0.13893 0.69894 0.1715 0.0
C260 C 0.08427 0.67667 0.12972 0.0
O261 O 0.14381 0.7173 0.10978 0.0
O262 O 0.16476 0.71295 0.13936 0.0
C263 C 0.17326 0.65366 0.12404 0.0
Fe264 Fe 0.34704 0.87538 0.87318 0.0
Fe265 Fe 0.29716 0.88603 0.87839 0.0
O266 O 0.31873 0.86954 0.86693 0.0
Fe267 Fe 0.31203 0.84714 0.84914 0.0
O268 O 0.32477 0.82753 0.86804 0.0
O269 O 0.35626 0.84585 0.87163 0.0
O270 O 0.34219 0.87082 0.90277 0.0
C271 C 0.32767 0.88106 0.91407 0.0
C272 C 0.35 0.86597 0.82877 0.0
O273 O 0.31206 0.8917 0.90457 0.0
C274 C 0.28263 0.87832 0.83403 0.0
O275 O 0.34289 0.90583 0.87595 0.0
O276 O 0.3082 0.91073 0.86518 0.0
O277 O 0.3374 0.84943 0.8323 0.0
O278 O 0.35341 0.8803 0.84382 0.0
C279 C 0.27908 0.84454 0.88236 0.0
O280 O 0.27848 0.88336 0.85415 0.0
O281 O 0.29869 0.86559 0.82929 0.0
C282 C 0.32757 0.91823 0.86822 0.0
O283 O 0.28462 0.86218 0.89232 0.0
O284 O 0.28556 0.84061 0.86271 0.0
C285 C 0.34496 0.82804 0.87374 0.0
Fe286 Fe 0.12565 0.34775 0.87478 0.0
Fe287 Fe 0.12134 0.29672 0.88001 0.0
O288 O 0.1333 0.32027 0.86684 0.0
Fe289 Fe 0.15312 0.31631 0.84548 0.0
O290 O 0.16839 0.3421 0.85086 0.0
O291 O 0.15443 0.35468 0.88221 0.0
O292 O 0.12119 0.34078 0.90438 0.0
C293 C 0.12818 0.32442 0.91582 0.0
C294 C 0.128 0.34953 0.82761 0.0
O295 O 0.13168 0.30568 0.90694 0.0
C296 C 0.12204 0.28263 0.83664 0.0
O297 O 0.09651 0.34265 0.86803 0.0
O298 O 0.09412 0.30995 0.8846 0.0
O299 O 0.1351 0.32988 0.82556 0.0
O300 O 0.12869 0.35945 0.84632 0.0
C301 C 0.16694 0.28482 0.87511 0.0
O302 O 0.11017 0.28606 0.85368 0.0
O303 O 0.14172 0.28993 0.8358 0.0
C304 C 0.08494 0.32671 0.87552 0.0
O305 O 0.14665 0.27944 0.87791 0.0
O306 O 0.17205 0.30225 0.8644 0.0
C307 C 0.17038 0.35331 0.86856 0.0
Fe308 Fe 0.71148 0.11807 0.88313 0.0
Fe309 Fe 0.69614 0.157 0.85405 0.0
O310 O 0.68967 0.13422 0.8715 0.0
Fe311 Fe 0.66134 0.12768 0.8771 0.0
O312 O 0.66541 0.1317 0.90685 0.0
O313 O 0.69654 0.11231 0.90918 0.0
O314 O 0.72365 0.14202 0.8972 0.0
C315 C 0.72906 0.15978 0.88743 0.0
C316 C 0.68181 0.08511 0.87265 0.0
O317 O 0.72238 0.16393 0.8679 0.0
C318 C 0.65877 0.13785 0.83281 0.0
O319 O 0.73017 0.12103 0.85896 0.0
O320 O 0.70997 0.13901 0.83419 0.0
O321 O 0.66595 0.09731 0.87951 0.0
O322 O 0.70105 0.09307 0.87001 0.0
C323 C 0.66244 0.17519 0.87817 0.0
O324 O 0.67103 0.15453 0.83684 0.0
O325 O 0.65557 0.12313 0.84753 0.0
C326 C 0.72599 0.12621 0.83888 0.0
O327 O 0.68277 0.17614 0.87302 0.0
O328 O 0.65163 0.15708 0.87583 0.0
C329 C 0.68025 0.12216 0.91837 0.0
Fe330 Fe 0.87789 0.65579 0.87597 0.0
Fe331 Fe 0.88269 0.70668 0.88131 0.0
O332 O 0.87173 0.68331 0.86701 0.0
Fe333 Fe 0.85433 0.68721 0.84359 0.0
O334 O 0.83789 0.66179 0.84812 0.0
O335 O 0.8484 0.65024 0.88122 0.0
O336 O 0.88048 0.66289 0.90584 0.0
C337 C 0.8732 0.67945 0.91678 0.0
C338 C 0.87967 0.65292 0.82881 0.0
O339 O 0.87009 0.69792 0.90728 0.0
C340 C 0.8862 0.72145 0.83825 0.0
O341 O 0.90749 0.66013 0.87128 0.0
O342 O 0.90933 0.69293 0.88794 0.0
O343 O 0.87405 0.67292 0.8259 0.0
O344 O 0.87659 0.64354 0.84756 0.0
C345 C 0.8379 0.71898 0.87173 0.0
O346 O 0.89619 0.7176 0.85635 0.0
O347 O 0.86718 0.71326 0.83456 0.0
C348 C 0.91878 0.67599 0.87941 0.0
O349 O 0.85775 0.72413 0.87705 0.0
O350 O 0.83386 0.70189 0.86011 0.0
C351 C 0.83371 0.65181 0.86621 0.0
Fe352 Fe 0.14951 0.31371 0.15657 0.0
Fe353 Fe 0.12111 0.29609 0.11822 0.0
O354 O 0.13212 0.31882 0.13346 0.0
Fe355 Fe 0.12594 0.34673 0.12577 0.0
O356 O 0.15537 0.35286 0.12104 0.0
O357 O 0.16598 0.33923 0.15329 0.0
O358 O 0.16991 0.29982 0.13923 0.0
C359 C 0.16564 0.28294 0.12741 0.0
C360 C 0.12403 0.34718 0.17308 0.0
O361 O 0.1457 0.27807 0.12227 0.0
C362 C 0.08515 0.32659 0.12103 0.0
O363 O 0.13637 0.28732 0.16439 0.0
O364 O 0.10718 0.28462 0.14251 0.0
O365 O 0.12684 0.35765 0.15484 0.0
O366 O 0.12991 0.32713 0.17491 0.0
C367 C 0.13092 0.3245 0.08406 0.0
O368 O 0.09477 0.31026 0.11164 0.0
O369 O 0.09631 0.34209 0.12995 0.0
C370 C 0.11703 0.28002 0.16045 0.0
O371 O 0.13414 0.30574 0.09293 0.0
O372 O 0.12378 0.3408 0.09555 0.0
C373 C 0.17004 0.35053 0.13595 0.0
Fe374 Fe 0.12872 0.66149 0.87447 0.0
Fe375 Fe 0.12263 0.71228 0.88137 0.0
O376 O 0.13582 0.6895 0.86798 0.0
Fe377 Fe 0.15642 0.69501 0.84767 0.0
O378 O 0.13942 0.6823 0.82646 0.0
O379 O 0.13221 0.6515 0.84528 0.0
O380 O 0.09944 0.66594 0.86772 0.0
C381 C 0.08727 0.68141 0.8752 0.0
C382 C 0.17374 0.65704 0.86883 0.0
O383 O 0.09567 0.69842 0.88441 0.0
C384 C 0.16814 0.72508 0.87942 0.0
O385 O 0.12383 0.66706 0.90435 0.0
O386 O 0.13176 0.70277 0.90846 0.0
O387 O 0.17196 0.66925 0.85186 0.0
O388 O 0.15755 0.65471 0.88203 0.0
C389 C 0.12496 0.72789 0.83868 0.0
O390 O 0.14763 0.73011 0.881 0.0
O391 O 0.1742 0.70824 0.86825 0.0
C392 C 0.12872 0.68361 0.91664 0.0
O393 O 0.11233 0.72341 0.85487 0.0
O394 O 0.14501 0.72171 0.83901 0.0
C395 C 0.13219 0.66257 0.82712 0.0
Fe396 Fe 0.2947 0.12079 0.88082 0.0
Fe397 Fe 0.31322 0.15545 0.84846 0.0
O398 O 0.31786 0.13451 0.86863 0.0
Fe399 Fe 0.34557 0.12748 0.87642 0.0
O400 O 0.33947 0.09765 0.88088 0.0
O401 O 0.30431 0.09408 0.87083 0.0
O402 O 0.2772 0.12228 0.85558 0.0
C403 C 0.28245 0.12479 0.83522 0.0
C404 C 0.32457 0.1264 0.91713 0.0
O405 O 0.29963 0.13576 0.82989 0.0
C406 C 0.34581 0.17469 0.87355 0.0
O407 O 0.28341 0.14678 0.89172 0.0
O408 O 0.28663 0.16479 0.86002 0.0
O409 O 0.34022 0.13425 0.90546 0.0
O410 O 0.30809 0.11677 0.90807 0.0
C411 C 0.35117 0.13332 0.83167 0.0
O412 O 0.32626 0.17599 0.86606 0.0
O413 O 0.35643 0.15634 0.87334 0.0
C414 C 0.27933 0.16355 0.87972 0.0
O415 O 0.33913 0.15052 0.8331 0.0
O416 O 0.35293 0.12004 0.84784 0.0
C417 C 0.32325 0.08567 0.87439 0.0
Fe418 Fe 0.88198 0.29484 0.87933 0.0
Fe419 Fe 0.84478 0.31305 0.84974 0.0
O420 O 0.86708 0.31778 0.86833 0.0
Fe421 Fe 0.87431 0.34556 0.87566 0.0
O422 O 0.90444 0.33981 0.87888 0.0
O423 O 0.90787 0.30504 0.86781 0.0
O424 O 0.87932 0.27765 0.85399 0.0
C425 C 0.87478 0.2829 0.83397 0.0
C426 C 0.87752 0.32429 0.91611 0.0
O427 O 0.86299 0.2998 0.82969 0.0
C428 C 0.82694 0.34558 0.87555 0.0
O429 O 0.85707 0.28278 0.89176 0.0
O430 O 0.83664 0.28622 0.86167 0.0
O431 O 0.86909 0.34016 0.90506 0.0
O432 O 0.88715 0.30815 0.90641 0.0
C433 C 0.866 0.35044 0.83117 0.0
O434 O 0.82554 0.32573 0.86894 0.0
O435 O 0.84519 0.35628 0.87388 0.0
C436 C 0.83963 0.27828 0.88095 0.0
O437 O 0.84849 0.33913 0.83415 0.0
O438 O 0.8802 0.35241 0.84657 0.0
C439 C 0.91636 0.32387 0.87166 0.0
Fe440 Fe 0.68771 0.84945 0.84817 0.0
Fe441 Fe 0.65542 0.87649 0.877 0.0
O442 O 0.68314 0.86898 0.86968 0.0
Fe443 Fe 0.70624 0.88084 0.88374 0.0
O444 O 0.71769 0.89242 0.85815 0.0
O445 O 0.71407 0.86152 0.83884 0.0
O446 O 0.67431 0.86746 0.82822 0.0
C447 C 0.65457 0.87437 0.82974 0.0
C448 C 0.71883 0.8355 0.87804 0.0
O449 O 0.64425 0.87357 0.84824 0.0
C450 C 0.67787 0.8742 0.91882 0.0
O451 O 0.66212 0.83362 0.85325 0.0
O452 O 0.64851 0.84774 0.88417 0.0
O453 O 0.72384 0.85575 0.88158 0.0
O454 O 0.70162 0.83046 0.86706 0.0
C455 C 0.67635 0.91713 0.87847 0.0
O456 O 0.6617 0.88087 0.90687 0.0
O457 O 0.69661 0.87015 0.91022 0.0
C458 C 0.65092 0.83158 0.87094 0.0
O459 O 0.66066 0.9056 0.87045 0.0
O460 O 0.69268 0.90793 0.88826 0.0
C461 C 0.7218 0.88098 0.84102 0.0
Fe462 Fe 0.87357 0.66164 0.12656 0.0
Fe463 Fe 0.883 0.71199 0.12085 0.0
O464 O 0.86879 0.68986 0.13436 0.0
Fe465 Fe 0.84988 0.69628 0.15592 0.0
O466 O 0.85458 0.67078 0.17186 0.0
O467 O 0.88219 0.65395 0.15475 0.0
O468 O 0.90349 0.66602 0.12043 0.0
C469 C 0.91651 0.68149 0.12684 0.0
C470 C 0.82661 0.6643 0.13325 0.0
O471 O 0.90948 0.70106 0.13011 0.0
C472 C 0.84119 0.72939 0.12388 0.0
O473 O 0.86551 0.66708 0.09775 0.0
O474 O 0.88521 0.69772 0.09391 0.0
O475 O 0.82722 0.68398 0.14057 0.0
O476 O 0.84432 0.65272 0.13152 0.0
C477 C 0.88288 0.72563 0.16597 0.0
O478 O 0.85694 0.72415 0.11092 0.0
O479 O 0.84136 0.72301 0.14399 0.0
C480 C 0.87405 0.68191 0.08547 0.0
O481 O 0.88371 0.7305 0.14542 0.0
O482 O 0.87173 0.70904 0.17247 0.0
C483 C 0.87102 0.65769 0.17215 0.0
Fe484 Fe 0.30323 0.84612 0.14836 0.0
Fe485 Fe 0.33852 0.87356 0.12385 0.0
O486 O 0.31011 0.86776 0.1297 0.0
Fe487 Fe 0.28851 0.88357 0.11723 0.0
O488 O 0.26959 0.88186 0.14144 0.0
O489 O 0.29 0.86562 0.16721 0.0
O490 O 0.32846 0.84882 0.16536 0.0
C491 C 0.34105 0.86543 0.16854 0.0
C492 C 0.27042 0.84206 0.11504 0.0
O493 O 0.34442 0.87936 0.15315 0.0
C494 C 0.31989 0.87773 0.08229 0.0
O495 O 0.31609 0.82571 0.13042 0.0
O496 O 0.34763 0.84399 0.12637 0.0
O497 O 0.27631 0.85907 0.10425 0.0
O498 O 0.27673 0.83907 0.13491 0.0
C499 C 0.31857 0.91658 0.12652 0.0
O500 O 0.33445 0.86835 0.09428 0.0
O501 O 0.30363 0.88806 0.091 0.0
C502 C 0.33637 0.82602 0.12498 0.0
O503 O 0.33433 0.90392 0.12022 0.0
O504 O 0.29916 0.90901 0.12924 0.0
C505 C 0.274 0.87815 0.16181 0.0
Fe506 Fe 0.65743 0.1246 0.12757 0.0
Fe507 Fe 0.708 0.11735 0.12232 0.0
O508 O 0.68528 0.13266 0.13332 0.0
Fe509 Fe 0.6902 0.15615 0.15026 0.0
O510 O 0.66504 0.15247 0.1673 0.0
O511 O 0.65184 0.11989 0.15708 0.0
O512 O 0.66359 0.09453 0.12538 0.0
C513 C 0.6798 0.08317 0.13282 0.0
C514 C 0.65585 0.17185 0.12555 0.0
O515 O 0.6986 0.09206 0.13577 0.0
C516 C 0.72367 0.1598 0.11735 0.0
O517 O 0.6617 0.1288 0.09791 0.0
O518 O 0.69353 0.11043 0.09614 0.0
O519 O 0.67607 0.1741 0.13062 0.0
O520 O 0.64605 0.15335 0.1287 0.0
C521 C 0.72145 0.12744 0.16662 0.0
O522 O 0.71931 0.14153 0.10797 0.0
O523 O 0.7162 0.16425 0.13654 0.0
C524 C 0.67696 0.1196 0.08667 0.0
O525 O 0.72621 0.12181 0.14676 0.0
O526 O 0.70468 0.13942 0.17072 0.0
C527 C 0.65413 0.13492 0.17163 0.0
Fe528 Fe 0.65185 0.65511 0.80533 0.0
Fe529 Fe 0.62851 0.6278 0.84158 0.0
O530 O 0.63422 0.63286 0.81299 0.0
Fe531 Fe 0.62253 0.61566 0.79209 0.0
O532 O 0.64652 0.61777 0.77301 0.0
O533 O 0.67151 0.63627 0.79239 0.0
O534 O 0.66914 0.65374 0.8306 0.0
C535 C 0.67294 0.63744 0.84346 0.0
C536 C 0.61826 0.65637 0.77244 0.0
O537 O 0.65798 0.6232 0.84746 0.0
C538 C 0.5873 0.62154 0.82301 0.0
O539 O 0.63311 0.67506 0.81771 0.0
O540 O 0.63007 0.65766 0.84983 0.0
O541 O 0.60837 0.63904 0.77899 0.0
O542 O 0.63789 0.66073 0.77871 0.0
C543 C 0.63335 0.58439 0.82335 0.0
O544 O 0.59884 0.632 0.83721 0.0
O545 O 0.59656 0.61051 0.80752 0.0
C546 C 0.6278 0.67516 0.83803 0.0
O547 O 0.62581 0.59719 0.83844 0.0
O548 O 0.63593 0.59133 0.80369 0.0
C549 C 0.66666 0.62297 0.77684 0.0
Fe550 Fe 0.35004 0.6556 0.81093 0.0
Fe551 Fe 0.37761 0.62752 0.84372 0.0
O552 O 0.37032 0.63483 0.81587 0.0
Fe553 Fe 0.38332 0.62159 0.79287 0.0
O554 O 0.3823 0.64612 0.7745 0.0
O555 O 0.37002 0.6729 0.79623 0.0
O556 O 0.35645 0.67183 0.83594 0.0
C557 C 0.37412 0.67284 0.84733 0.0
C558 C 0.34043 0.62342 0.77803 0.0
O559 O 0.38624 0.65592 0.85012 0.0
C560 C 0.37697 0.5864 0.82374 0.0
O561 O 0.3291 0.63941 0.8252 0.0
O562 O 0.34919 0.63207 0.85508 0.0
O563 O 0.35693 0.61113 0.78224 0.0
O564 O 0.33961 0.64327 0.78503 0.0
C565 C 0.41909 0.62742 0.82064 0.0
O566 O 0.36969 0.59858 0.83929 0.0
O567 O 0.38675 0.59478 0.80702 0.0
C568 C 0.33058 0.6325 0.84497 0.0
O569 O 0.40714 0.6217 0.83717 0.0
O570 O 0.41044 0.63112 0.80182 0.0
C571 C 0.38069 0.66664 0.77921 0.0
Fe572 Fe 0.38044 0.38258 0.79589 0.0
Fe573 Fe 0.34263 0.35359 0.81393 0.0
O574 O 0.36563 0.37122 0.81877 0.0
Fe575 Fe 0.37365 0.37724 0.84662 0.0
O576 O 0.36896 0.40682 0.84229 0.0
O577 O 0.38677 0.40896 0.81017 0.0
O578 O 0.35575 0.3962 0.78467 0.0
C579 C 0.33783 0.38615 0.78032 0.0
C580 C 0.41517 0.37319 0.82388 0.0
O581 O 0.3342 0.36679 0.78777 0.0
C582 C 0.36408 0.333 0.85026 0.0
O583 O 0.37655 0.35799 0.77784 0.0
O584 O 0.36 0.3335 0.79963 0.0
O585 O 0.40368 0.37999 0.84031 0.0
O586 O 0.40617 0.36991 0.80517 0.0
C587 C 0.32645 0.37868 0.84789 0.0
O588 O 0.34653 0.33697 0.83928 0.0
O589 O 0.37888 0.3478 0.85241 0.0
C590 C 0.37172 0.33797 0.78275 0.0
O591 O 0.32425 0.37288 0.82784 0.0
O592 O 0.34485 0.37585 0.858 0.0
C593 C 0.37772 0.41824 0.82691 0.0
Fe594 Fe 0.62498 0.3747 0.84267 0.0
Fe595 Fe 0.61897 0.38332 0.79228 0.0
O596 O 0.63058 0.36765 0.81447 0.0
Fe597 Fe 0.64805 0.34479 0.80854 0.0
O598 O 0.629 0.32592 0.82214 0.0
O599 O 0.6264 0.34548 0.85298 0.0
O600 O 0.59529 0.37036 0.83859 0.0
C601 C 0.58365 0.37946 0.82356 0.0
C602 C 0.66928 0.36484 0.84539 0.0
O603 O 0.59277 0.38924 0.80714 0.0
C604 C 0.66336 0.37477 0.77807 0.0
O605 O 0.62246 0.40499 0.83748 0.0
O606 O 0.63196 0.40858 0.80226 0.0
O607 O 0.66516 0.34776 0.83372 0.0
O608 O 0.65452 0.37956 0.8483 0.0
C609 C 0.61486 0.34136 0.77539 0.0
O610 O 0.6433 0.37994 0.77363 0.0
O611 O 0.66794 0.36258 0.79457 0.0
C612 C 0.62935 0.41689 0.82138 0.0
O613 O 0.60503 0.35915 0.78052 0.0
O614 O 0.63433 0.33732 0.78231 0.0
C615 C 0.62394 0.3272 0.84247 0.0
Fe616 Fe 0.61942 0.38069 0.21106 0.0
Fe617 Fe 0.64862 0.34242 0.19423 0.0
O618 O 0.63155 0.36571 0.18866 0.0
Fe619 Fe 0.62677 0.37377 0.16054 0.0
O620 O 0.62418 0.40384 0.16659 0.0
O621 O 0.63244 0.40634 0.2022 0.0
O622 O 0.64341 0.37696 0.22995 0.0
C623 C 0.66349 0.37163 0.22587 0.0
C624 C 0.58498 0.378 0.17866 0.0
O625 O 0.66831 0.35946 0.20938 0.0
C626 C 0.62502 0.32648 0.15913 0.0
O627 O 0.60526 0.35614 0.22193 0.0
O628 O 0.63441 0.33419 0.21982 0.0
O629 O 0.597 0.36949 0.1636 0.0
O630 O 0.59358 0.38693 0.19582 0.0
C631 C 0.67087 0.3634 0.15844 0.0
O632 O 0.62966 0.32422 0.17948 0.0
O633 O 0.62834 0.34497 0.14933 0.0
C634 C 0.61489 0.33808 0.22655 0.0
O635 O 0.66631 0.34609 0.16961 0.0
O636 O 0.65648 0.37854 0.15586 0.0
C637 C 0.63023 0.41527 0.18332 0.0
Fe638 Fe 0.61924 0.61894 0.20937 0.0
Fe639 Fe 0.65043 0.65469 0.19071 0.0
O640 O 0.63132 0.63274 0.18623 0.0
Fe641 Fe 0.62453 0.62457 0.15854 0.0
O642 O 0.5952 0.63087 0.16296 0.0
O643 O 0.59258 0.61366 0.19532 0.0
O644 O 0.60703 0.64461 0.22014 0.0
C645 C 0.6181 0.66209 0.22399 0.0
C646 C 0.62753 0.58353 0.18174 0.0
O647 O 0.63762 0.66445 0.21653 0.0
C648 C 0.66946 0.63115 0.15496 0.0
O649 O 0.64382 0.62172 0.22739 0.0
O650 O 0.66937 0.63647 0.20563 0.0
O651 O 0.62033 0.59486 0.1654 0.0
O652 O 0.63072 0.5925 0.20048 0.0
C653 C 0.62611 0.67172 0.1564 0.0
O654 O 0.66692 0.64912 0.16564 0.0
O655 O 0.65353 0.61763 0.15252 0.0
C656 C 0.66409 0.62518 0.2226 0.0
O657 O 0.6325 0.67408 0.17625 0.0
O658 O 0.62749 0.65295 0.14671 0.0
C659 C 0.58351 0.62291 0.17859 0.0
Fe660 Fe 0.38006 0.61993 0.21005 0.0
Fe661 Fe 0.34571 0.65284 0.1921 0.0
O662 O 0.36645 0.63256 0.18706 0.0
Fe663 Fe 0.37338 0.62521 0.15917 0.0
O664 O 0.36662 0.59604 0.16396 0.0
O665 O 0.38368 0.59286 0.19633 0.0
O666 O 0.35394 0.60913 0.22133 0.0
C667 C 0.33739 0.62131 0.22576 0.0
C668 C 0.41526 0.62641 0.18152 0.0
O669 O 0.33654 0.64109 0.21861 0.0
C670 C 0.36819 0.6704 0.15508 0.0
O671 O 0.37907 0.645 0.22781 0.0
O672 O 0.36553 0.67099 0.20577 0.0
O673 O 0.40322 0.62047 0.16513 0.0
O674 O 0.40686 0.62972 0.20051 0.0
C675 C 0.32612 0.62836 0.15918 0.0
O676 O 0.35068 0.66867 0.16655 0.0
O677 O 0.38091 0.65391 0.15231 0.0
C678 C 0.37675 0.66541 0.22267 0.0
O679 O 0.325 0.63559 0.17888 0.0
O680 O 0.34448 0.62857 0.14855 0.0
C681 C 0.37431 0.58412 0.17953 0.0
Fe682 Fe 0.34613 0.34939 0.18883 0.0
Fe683 Fe 0.38313 0.38006 0.20564 0.0
O684 O 0.3682 0.36801 0.18323 0.0
Fe685 Fe 0.37521 0.37446 0.15521 0.0
O686 O 0.34618 0.3721 0.14463 0.0
O687 O 0.32659 0.36775 0.17531 0.0
O688 O 0.33793 0.36258 0.21501 0.0
C689 C 0.34072 0.38236 0.22165 0.0
C690 C 0.36734 0.32976 0.15186 0.0
O691 O 0.35821 0.39299 0.21702 0.0
C692 C 0.41726 0.37127 0.17692 0.0
O693 O 0.36462 0.33013 0.20302 0.0
O694 O 0.38051 0.35563 0.22406 0.0
O695 O 0.38132 0.34526 0.14923 0.0
O696 O 0.35001 0.33275 0.16347 0.0
C697 C 0.37861 0.41561 0.17478 0.0
O698 O 0.40885 0.368 0.19588 0.0
O699 O 0.40531 0.37809 0.16081 0.0
C700 C 0.37646 0.33533 0.21965 0.0
O701 O 0.3885 0.40649 0.19109 0.0
O702 O 0.36962 0.40395 0.15969 0.0
C703 C 0.32802 0.37403 0.15535 0.0
Fe704 Fe 0.81763 0.64725 0.65786 0.0
Fe705 Fe 0.85019 0.62337 0.62675 0.0
O706 O 0.82237 0.62963 0.6348 0.0
Fe707 Fe 0.79943 0.61853 0.61992 0.0
O708 O 0.78156 0.6432 0.62381 0.0
O709 O 0.8033 0.66754 0.64062 0.0
O710 O 0.84301 0.66371 0.65397 0.0
C711 C 0.8542 0.66759 0.63654 0.0
C712 C 0.78391 0.61494 0.66254 0.0
O713 O 0.85625 0.65284 0.62163 0.0
C714 C 0.82986 0.58254 0.62309 0.0
O715 O 0.8315 0.62783 0.67624 0.0
O716 O 0.86152 0.62473 0.65553 0.0
O717 O 0.78803 0.60496 0.64453 0.0
O718 O 0.79149 0.63419 0.66627 0.0
C719 C 0.82774 0.62823 0.58542 0.0
O720 O 0.8457 0.59375 0.63131 0.0
O721 O 0.81337 0.59198 0.61376 0.0
C722 C 0.85155 0.62208 0.67403 0.0
O723 O 0.84391 0.6207 0.59676 0.0
O724 O 0.80893 0.6313 0.59425 0.0
C725 C 0.78629 0.66316 0.62901 0.0
Fe726 Fe 0.38012 0.79515 0.61748 0.0
Fe727 Fe 0.349 0.81425 0.65282 0.0
O728 O 0.36856 0.81858 0.63126 0.0
Fe729 Fe 0.37631 0.84621 0.62391 0.0
O730 O 0.37973 0.84005 0.59398 0.0
O731 O 0.37001 0.80474 0.5908 0.0
O732 O 0.35444 0.77835 0.61932 0.0
C733 C 0.33428 0.78412 0.62234 0.0
C734 C 0.41688 0.82466 0.62193 0.0
O735 O 0.32958 0.80127 0.63367 0.0
C736 C 0.37528 0.84624 0.67125 0.0
O737 O 0.39133 0.78379 0.64345 0.0
O738 O 0.35988 0.7873 0.66143 0.0
O739 O 0.40562 0.84074 0.62958 0.0
O740 O 0.40746 0.80797 0.61304 0.0
C741 C 0.33179 0.85213 0.63143 0.0
O742 O 0.36766 0.82672 0.67275 0.0
O743 O 0.37436 0.85698 0.65296 0.0
C744 C 0.37951 0.77996 0.6604 0.0
O745 O 0.33417 0.84051 0.64878 0.0
O746 O 0.34741 0.85367 0.61745 0.0
C747 C 0.37342 0.82363 0.5822 0.0
Fe748 Fe 0.15851 0.37686 0.62478 0.0
Fe749 Fe 0.20942 0.38222 0.61934 0.0
O750 O 0.18615 0.36969 0.63249 0.0
Fe751 Fe 0.19061 0.3496 0.65353 0.0
O752 O 0.1649 0.33397 0.64842 0.0
O753 O 0.15201 0.348 0.61727 0.0
O754 O 0.16513 0.38151 0.59513 0.0
C755 C 0.18172 0.37549 0.58348 0.0
C756 C 0.15735 0.37421 0.67198 0.0
O757 O 0.20054 0.37227 0.5923 0.0
C758 C 0.2244 0.38094 0.66228 0.0
O759 O 0.16307 0.40609 0.63155 0.0
O760 O 0.19578 0.40926 0.61519 0.0
O761 O 0.17705 0.36716 0.67389 0.0
O762 O 0.14724 0.37356 0.65336 0.0
C763 C 0.22159 0.33677 0.62291 0.0
O764 O 0.22012 0.39314 0.64568 0.0
O765 O 0.21708 0.36121 0.6631 0.0
C766 C 0.17878 0.41802 0.62415 0.0
O767 O 0.22705 0.35713 0.621 0.0
O768 O 0.20449 0.33121 0.63391 0.0
C769 C 0.15353 0.332 0.63083 0.0
Fe770 Fe 0.62512 0.15797 0.62838 0.0
Fe771 Fe 0.62073 0.20846 0.61938 0.0
O772 O 0.63222 0.18601 0.63471 0.0
Fe773 Fe 0.65104 0.19157 0.65656 0.0
O774 O 0.66676 0.1656 0.65346 0.0
O775 O 0.65419 0.15099 0.6224 0.0
O776 O 0.62157 0.16289 0.59813 0.0
C777 C 0.62892 0.17851 0.58588 0.0
C778 C 0.62576 0.15932 0.67573 0.0
O779 O 0.63222 0.19773 0.59371 0.0
C780 C 0.61945 0.22579 0.66145 0.0
O781 O 0.59581 0.16329 0.63382 0.0
O782 O 0.59375 0.19464 0.61475 0.0
O783 O 0.63227 0.17926 0.6765 0.0
O784 O 0.62727 0.14813 0.65776 0.0
C785 C 0.66602 0.2209 0.62533 0.0
O786 O 0.60842 0.22092 0.64423 0.0
O787 O 0.63901 0.21849 0.66402 0.0
C788 C 0.5844 0.17862 0.62494 0.0
O789 O 0.64589 0.22606 0.62127 0.0
O790 O 0.67063 0.20439 0.63757 0.0
C791 C 0.66965 0.1535 0.63646 0.0
Fe792 Fe 0.8507 0.37603 0.37388 0.0
Fe793 Fe 0.79986 0.37957 0.38107 0.0
O794 O 0.82302 0.36866 0.36637 0.0
Fe795 Fe 0.81864 0.3502 0.34387 0.0
O796 O 0.84465 0.33469 0.34795 0.0
O797 O 0.8577 0.34704 0.37979 0.0
O798 O 0.84471 0.37912 0.40394 0.0
C799 C 0.82852 0.3723 0.41572 0.0
C800 C 0.85132 0.37628 0.3266 0.0
O801 O 0.80981 0.36827 0.4071 0.0
C802 C 0.78375 0.38114 0.33852 0.0
O803 O 0.84521 0.40537 0.36862 0.0
O804 O 0.81305 0.40672 0.38644 0.0
O805 O 0.83155 0.36954 0.32486 0.0
O806 O 0.86178 0.37441 0.34494 0.0
C807 C 0.78816 0.33413 0.37344 0.0
O808 O 0.78785 0.39189 0.35608 0.0
O809 O 0.79197 0.36205 0.33534 0.0
C810 C 0.8295 0.41641 0.3773 0.0
O811 O 0.78286 0.35408 0.37825 0.0
O812 O 0.80517 0.33001 0.36176 0.0
C813 C 0.85591 0.33169 0.36553 0.0
Fe814 Fe 0.62596 0.84519 0.37782 0.0
Fe815 Fe 0.6192 0.7945 0.38336 0.0
O816 O 0.63352 0.81731 0.37127 0.0
Fe817 Fe 0.6556 0.81236 0.35241 0.0
O818 O 0.675 0.82613 0.37078 0.0
O819 O 0.65473 0.85636 0.37526 0.0
O820 O 0.63184 0.84083 0.40729 0.0
C821 C 0.62389 0.82527 0.41909 0.0
C822 C 0.63344 0.84884 0.33306 0.0
O823 O 0.61438 0.80861 0.41013 0.0
C824 C 0.62561 0.78116 0.33826 0.0
O825 O 0.59605 0.83909 0.38176 0.0
O826 O 0.5929 0.8039 0.37208 0.0
O827 O 0.65111 0.83778 0.33603 0.0
O828 O 0.61946 0.85107 0.34863 0.0
C829 C 0.66195 0.77894 0.38466 0.0
O830 O 0.62156 0.77653 0.35854 0.0
O831 O 0.63724 0.79798 0.33316 0.0
C832 C 0.58425 0.82276 0.37532 0.0
O833 O 0.64456 0.78319 0.39561 0.0
O834 O 0.6645 0.78619 0.36509 0.0
C835 C 0.67314 0.84604 0.37714 0.0
Fe836 Fe 0.20346 0.62174 0.38115 0.0
Fe837 Fe 0.18497 0.64996 0.34286 0.0
O838 O 0.18046 0.63237 0.36602 0.0
Fe839 Fe 0.15274 0.62559 0.3739 0.0
O840 O 0.1589 0.62305 0.40402 0.0
O841 O 0.1936 0.63433 0.40667 0.0
O842 O 0.22089 0.64684 0.37738 0.0
C843 C 0.21592 0.66664 0.37168 0.0
C844 C 0.17352 0.58512 0.37802 0.0
O845 O 0.19896 0.67053 0.35986 0.0
C846 C 0.1517 0.62396 0.3267 0.0
O847 O 0.21529 0.60829 0.35671 0.0
O848 O 0.21134 0.63717 0.33453 0.0
O849 O 0.15781 0.59614 0.36932 0.0
O850 O 0.18986 0.59489 0.38734 0.0
C851 C 0.14828 0.66979 0.3644 0.0
O852 O 0.17157 0.63025 0.32463 0.0
O853 O 0.1414 0.62668 0.34501 0.0
C854 C 0.21934 0.61811 0.33861 0.0
O855 O 0.15925 0.66617 0.34674 0.0
O856 O 0.14635 0.65482 0.37907 0.0
C857 C 0.17494 0.63065 0.41554 0.0
Fe858 Fe 0.37696 0.15698 0.37658 0.0
Fe859 Fe 0.38375 0.20768 0.38282 0.0
O860 O 0.37072 0.18498 0.36902 0.0
Fe861 Fe 0.35135 0.1903 0.34744 0.0
O862 O 0.33427 0.16562 0.35286 0.0
O863 O 0.34795 0.15133 0.3837 0.0
O864 O 0.38143 0.16322 0.40638 0.0
C865 C 0.37588 0.17989 0.41817 0.0
C866 C 0.37469 0.15577 0.32941 0.0
O867 O 0.37294 0.19883 0.40951 0.0
C868 C 0.3844 0.22269 0.3398 0.0
O869 O 0.40639 0.16082 0.37011 0.0
O870 O 0.41009 0.19296 0.38751 0.0
O871 O 0.36854 0.17574 0.32747 0.0
O872 O 0.37351 0.14577 0.34802 0.0
C873 C 0.33903 0.22216 0.37748 0.0
O874 O 0.39569 0.21833 0.35699 0.0
O875 O 0.36459 0.21594 0.33783 0.0
C876 C 0.41856 0.17591 0.37838 0.0
O877 O 0.35949 0.22635 0.38075 0.0
O878 O 0.33317 0.20536 0.36623 0.0
C879 C 0.33184 0.15452 0.37059 0.0
Fe880 Fe 0.62619 0.84354 0.62973 0.0
Fe881 Fe 0.65005 0.81072 0.66041 0.0
O882 O 0.63279 0.81566 0.6371 0.0
Fe883 Fe 0.62238 0.79296 0.62138 0.0
O884 O 0.63506 0.80339 0.59608 0.0
O885 O 0.62401 0.83811 0.59946 0.0
O886 O 0.65561 0.84991 0.6251 0.0
C887 C 0.67025 0.84767 0.64006 0.0
C888 C 0.58572 0.823 0.62446 0.0
O889 O 0.66608 0.83665 0.65754 0.0
C890 C 0.61858 0.77593 0.66353 0.0
O891 O 0.62682 0.85417 0.65888 0.0
O892 O 0.62994 0.82353 0.67863 0.0
O893 O 0.59552 0.80663 0.61521 0.0
O894 O 0.59667 0.83843 0.63376 0.0
C895 C 0.66731 0.78066 0.63105 0.0
O896 O 0.63752 0.78401 0.66784 0.0
O897 O 0.6088 0.7805 0.6455 0.0
C898 C 0.62388 0.84355 0.67702 0.0
O899 O 0.67091 0.79736 0.64333 0.0
O900 O 0.64762 0.77564 0.62499 0.0
C901 C 0.6314 0.82225 0.58758 0.0
Fe902 Fe 0.62782 0.15484 0.3763 0.0
Fe903 Fe 0.6232 0.20579 0.38202 0.0
O904 O 0.6349 0.18245 0.36831 0.0
Fe905 Fe 0.65402 0.18669 0.34636 0.0
O906 O 0.63536 0.17333 0.32703 0.0
O907 O 0.63013 0.14335 0.34756 0.0
O908 O 0.5985 0.15955 0.37042 0.0
C909 C 0.58699 0.17549 0.37799 0.0
C910 C 0.67243 0.15016 0.36899 0.0
O911 O 0.59616 0.19233 0.38694 0.0
C912 C 0.66868 0.2178 0.37588 0.0
O913 O 0.62405 0.16149 0.40612 0.0
O914 O 0.634 0.19672 0.40865 0.0
O915 O 0.66962 0.16082 0.35105 0.0
O916 O 0.65684 0.14856 0.38298 0.0
C917 C 0.62273 0.22097 0.33914 0.0
O918 O 0.64849 0.22317 0.37938 0.0
O919 O 0.67345 0.2005 0.36487 0.0
C920 C 0.63044 0.17806 0.41764 0.0
O921 O 0.61136 0.21672 0.35628 0.0
O922 O 0.64221 0.21325 0.33713 0.0
C923 C 0.62849 0.1536 0.32906 0.0
Fe924 Fe 0.81077 0.65141 0.34617 0.0
Fe925 Fe 0.84479 0.62641 0.37485 0.0
O926 O 0.81663 0.63263 0.36807 0.0
Fe927 Fe 0.79433 0.6203 0.38298 0.0
O928 O 0.78269 0.60778 0.35793 0.0
O929 O 0.78445 0.63846 0.33811 0.0
O930 O 0.82406 0.63322 0.3263 0.0
C931 C 0.84416 0.62726 0.32733 0.0
C932 C 0.78042 0.66518 0.37703 0.0
O933 O 0.85495 0.62877 0.34557 0.0
C934 C 0.8233 0.62892 0.4172 0.0
O935 O 0.83611 0.66803 0.34978 0.0
O936 O 0.85079 0.65565 0.38088 0.0
O937 O 0.77599 0.64485 0.38095 0.0
O938 O 0.7969 0.67047 0.36503 0.0
C939 C 0.82541 0.585 0.37798 0.0
O940 O 0.83956 0.62286 0.40507 0.0
O941 O 0.8042 0.63178 0.40895 0.0
C942 C 0.84801 0.6711 0.36689 0.0
O943 O 0.8406 0.59686 0.36949 0.0
O944 O 0.80883 0.59381 0.38768 0.0
C945 C 0.77776 0.6187 0.34071 0.0
Fe946 Fe 0.37941 0.79758 0.38084 0.0
Fe947 Fe 0.35005 0.81471 0.34301 0.0
O948 O 0.36831 0.82009 0.36537 0.0
Fe949 Fe 0.37528 0.84804 0.37221 0.0
O950 O 0.40469 0.84277 0.36718 0.0
O951 O 0.40607 0.81159 0.38657 0.0
O952 O 0.39263 0.78555 0.35637 0.0
C953 C 0.38226 0.78091 0.3387 0.0
C954 C 0.37041 0.82705 0.41433 0.0
O955 O 0.36279 0.78813 0.33529 0.0
C956 C 0.33082 0.85222 0.36363 0.0
O957 O 0.35465 0.77961 0.3777 0.0
O958 O 0.33008 0.80129 0.36128 0.0
O959 O 0.37834 0.84265 0.40241 0.0
O960 O 0.36689 0.80801 0.40617 0.0
C961 C 0.37542 0.84753 0.3249 0.0
O962 O 0.33396 0.84047 0.3464 0.0
O963 O 0.34615 0.85476 0.37782 0.0
C964 C 0.33459 0.78443 0.37304 0.0
O965 O 0.36908 0.82757 0.3237 0.0
O966 O 0.37353 0.8584 0.343 0.0
C967 C 0.4158 0.82746 0.37648 0.0
Fe968 Fe 0.19283 0.34604 0.34893 0.0
Fe969 Fe 0.15862 0.37423 0.37413 0.0
O970 O 0.18678 0.36794 0.36759 0.0
Fe971 Fe 0.20886 0.38339 0.37956 0.0
O972 O 0.2271 0.3814 0.35499 0.0
O973 O 0.20628 0.36498 0.32965 0.0
O974 O 0.16733 0.34932 0.33245 0.0
C975 C 0.15508 0.36622 0.32948 0.0
C976 C 0.2262 0.34143 0.3815 0.0
O977 O 0.15223 0.38022 0.34494 0.0
C978 C 0.17838 0.37788 0.41522 0.0
O979 O 0.17993 0.32605 0.36732 0.0
O980 O 0.14882 0.34489 0.37166 0.0
O981 O 0.22104 0.35869 0.39228 0.0
O982 O 0.21935 0.33846 0.36183 0.0
C983 C 0.17925 0.41694 0.37123 0.0
O984 O 0.16335 0.36874 0.4036 0.0
O985 O 0.19441 0.38815 0.40607 0.0
C986 C 0.15979 0.32679 0.37314 0.0
O987 O 0.16343 0.40449 0.37783 0.0
O988 O 0.19838 0.409 0.36777 0.0
C989 C 0.22257 0.37731 0.33474 0.0
Fe990 Fe 0.34349 0.18496 0.65259 0.0
Fe991 Fe 0.37529 0.15393 0.62774 0.0
O992 O 0.36611 0.18145 0.63413 0.0
Fe993 Fe 0.37913 0.20523 0.62249 0.0
O994 O 0.37599 0.22236 0.64787 0.0
O995 O 0.3608 0.19958 0.67245 0.0
O996 O 0.34875 0.15942 0.66816 0.0
C997 C 0.36737 0.15078 0.67254 0.0
C998 C 0.33557 0.21885 0.62148 0.0
O999 O 0.38164 0.14846 0.65723 0.0
C1000 C 0.3763 0.17441 0.5866 0.0
O1001 O 0.32527 0.1708 0.63334 0.0
O1002 O 0.34699 0.14148 0.62972 0.0
O1003 O 0.35311 0.21557 0.61043 0.0
O1004 O 0.33366 0.21106 0.64086 0.0
C1005 C 0.41574 0.17865 0.6301 0.0
O1006 O 0.36987 0.15797 0.59816 0.0
O1007 O 0.3843 0.19186 0.59551 0.0
C1008 C 0.32822 0.15099 0.62704 0.0
O1009 O 0.40479 0.16155 0.62422 0.0
O1010 O 0.40612 0.19706 0.6333 0.0
C1011 C 0.37172 0.21702 0.66796 0.0
Fe1012 Fe 0.85007 0.37273 0.62563 0.0
Fe1013 Fe 0.79911 0.37803 0.61949 0.0
O1014 O 0.82227 0.36432 0.63171 0.0
Fe1015 Fe 0.81784 0.34182 0.65026 0.0
O1016 O 0.84308 0.34675 0.66683 0.0
O1017 O 0.85529 0.37907 0.65496 0.0
O1018 O 0.84337 0.40246 0.62188 0.0
C1019 C 0.82643 0.41386 0.62725 0.0
C1020 C 0.85208 0.32552 0.62559 0.0
O1021 O 0.80774 0.4048 0.63027 0.0
C1022 C 0.78433 0.33494 0.61819 0.0
O1023 O 0.84639 0.3672 0.59606 0.0
O1024 O 0.81311 0.38274 0.59273 0.0
O1025 O 0.83213 0.32312 0.63158 0.0
O1026 O 0.86188 0.34417 0.62803 0.0
C1027 C 0.78586 0.37079 0.66466 0.0
O1028 O 0.78828 0.35245 0.60737 0.0
O1029 O 0.79193 0.33227 0.63758 0.0
C1030 C 0.83044 0.37416 0.58417 0.0
O1031 O 0.78134 0.3754 0.64446 0.0
O1032 O 0.80293 0.35948 0.66966 0.0
C1033 C 0.8534 0.36478 0.67027 0.0
Fe1034 Fe 0.18761 0.6573 0.65162 0.0
Fe1035 Fe 0.15514 0.62793 0.62518 0.0
O1036 O 0.18291 0.63572 0.63213 0.0
Fe1037 Fe 0.20594 0.622 0.61975 0.0
O1038 O 0.22412 0.62425 0.64445 0.0
O1039 O 0.20248 0.63877 0.67021 0.0
O1040 O 0.16261 0.65152 0.66814 0.0
C1041 C 0.15181 0.63356 0.67027 0.0
C1042 C 0.22057 0.66511 0.61913 0.0
O1043 O 0.14905 0.62054 0.65401 0.0
C1044 C 0.17514 0.62682 0.58406 0.0
O1045 O 0.1733 0.67705 0.63411 0.0
O1046 O 0.14348 0.65647 0.62848 0.0
O1047 O 0.2167 0.64777 0.60792 0.0
O1048 O 0.21338 0.66718 0.63881 0.0
C1049 C 0.17822 0.58654 0.62724 0.0
O1050 O 0.15961 0.63464 0.59594 0.0
O1051 O 0.19182 0.61729 0.59294 0.0
C1052 C 0.15348 0.67513 0.62758 0.0
O1053 O 0.1618 0.59816 0.6206 0.0
O1054 O 0.19693 0.59544 0.6307 0.0
C1055 C 0.21957 0.62779 0.66481 0.0
H1056 H 0.11776 0.05307 0.28832 0.0
H1057 H 0.13483 0.05809 0.35814 0.0
H1058 H 0.11809 0.01276 0.29098 0.0
H1059 H 0.13425 0.01737 0.36112 0.0
H1060 H 0.1514 0.94247 0.35165 0.0
H1061 H 0.15245 0.98327 0.35096 0.0
H1062 H 0.09652 0.98367 0.30545 0.0
H1063 H 0.09616 0.94324 0.30543 0.0
C1064 C 0.12136 0.04553 0.30435 0.0
C1065 C 0.12603 0.05881 0.32307 0.0
C1066 C 0.12142 0.02234 0.30592 0.0
C1067 C 0.12582 0.01168 0.32636 0.0
C1068 C 0.13091 0.02496 0.34508 0.0
C1069 C 0.13113 0.0483 0.34341 0.0
C1070 C 0.13931 0.95136 0.34159 0.0
C1071 C 0.12385 0.93964 0.32842 0.0
C1072 C 0.13984 0.97475 0.34125 0.0
C1073 C 0.12476 0.98686 0.32791 0.0
C1074 C 0.10883 0.975 0.31542 0.0
C1075 C 0.10851 0.95174 0.31551 0.0
H1076 H 0.05375 0.13927 0.28964 0.0
H1077 H 0.06133 0.11692 0.35781 0.0
H1078 H 0.01354 0.13838 0.29373 0.0
H1079 H 0.02066 0.11597 0.3618 0.0
H1080 H 0.94545 0.10651 0.29845 0.0
H1081 H 0.98589 0.10799 0.29765 0.0
H1082 H 0.98628 0.14093 0.36169 0.0
H1083 H 0.94548 0.13936 0.36266 0.0
C1084 C 0.04688 0.13421 0.30557 0.0
C1085 C 0.06086 0.12791 0.32333 0.0
C1086 C 0.02376 0.13362 0.30785 0.0
C1087 C 0.01392 0.12679 0.32797 0.0
C1088 C 0.02779 0.12131 0.34609 0.0
C1089 C 0.05107 0.12181 0.34378 0.0
C1090 C 0.95405 0.11397 0.31247 0.0
C1091 C 0.94213 0.1229 0.33058 0.0
C1092 C 0.97728 0.11493 0.31194 0.0
C1093 C 0.98927 0.12479 0.3295 0.0
C1094 C 0.97748 0.13317 0.34795 0.0
C1095 C 0.95413 0.13233 0.34844 0.0
H1096 H 0.89239 0.05778 0.35951 0.0
H1097 H 0.8448 0.05832 0.30547 0.0
H1098 H 0.89102 0.01706 0.36029 0.0
H1099 H 0.84263 0.01786 0.30684 0.0
H1100 H 0.86643 0.94755 0.29367 0.0
H1101 H 0.86511 0.9878 0.29615 0.0
H1102 H 0.87058 0.98373 0.36794 0.0
H1103 H 0.87279 0.94308 0.36534 0.0
C1104 C 0.88132 0.04921 0.34809 0.0
C1105 C 0.86893 0.06123 0.33223 0.0
C1106 C 0.88045 0.02585 0.34859 0.0
C1107 C 0.86696 0.01404 0.3334 0.0
C1108 C 0.8537 0.02626 0.31836 0.0
C1109 C 0.85482 0.04951 0.31766 0.0
C1110 C 0.86726 0.95514 0.31005 0.0
C1111 C 0.86973 0.942 0.32931 0.0
C1112 C 0.86633 0.97834 0.31149 0.0
C1113 C 0.86754 0.98916 0.33227 0.0
C1114 C 0.86983 0.97603 0.35163 0.0
C1115 C 0.87097 0.9527 0.35016 0.0
H1116 H 0.94486 0.89263 0.29766 0.0
H1117 H 0.94223 0.86246 0.36313 0.0
H1118 H 0.98528 0.89044 0.29824 0.0
H1119 H 0.98297 0.86011 0.36354 0.0
H1120 H 0.05381 0.85959 0.29445 0.0
H1121 H 0.01339 0.86073 0.29643 0.0
H1122 H 0.01716 0.88431 0.36438 0.0
H1123 H 0.05791 0.88302 0.36254 0.0
C1124 C 0.95287 0.88556 0.31224 0.0
C1125 C 0.94021 0.87768 0.33034 0.0
C1126 C 0.97609 0.88418 0.31249 0.0
C1127 C 0.98734 0.87492 0.33085 0.0
C1128 C 0.97479 0.86743 0.34919 0.0
C1129 C 0.95145 0.86871 0.34891 0.0
C1130 C 0.04612 0.86495 0.3099 0.0
C1131 C 0.0592 0.87142 0.32828 0.0
C1132 C 0.0229 0.8657 0.31097 0.0
C1133 C 0.01206 0.87287 0.33047 0.0
C1134 C 0.02503 0.87865 0.34914 0.0
C1135 C 0.04837 0.87798 0.34805 0.0
H1136 H 0.13294 0.94619 0.63626 0.0
H1137 H 0.12231 0.94882 0.70748 0.0
H1138 H 0.13283 0.98709 0.63488 0.0
H1139 H 0.12303 0.98915 0.70629 0.0
H1140 H 0.09942 0.05869 0.69646 0.0
H1141 H 0.09974 0.01835 0.69441 0.0
H1142 H 0.15239 0.02108 0.64528 0.0
H1143 H 0.15143 0.06194 0.64675 0.0
C1144 C 0.13075 0.95547 0.65161 0.0
C1145 C 0.12725 0.94426 0.67192 0.0
C1146 C 0.13079 0.97889 0.65085 0.0
C1147 C 0.12754 0.99149 0.67042 0.0
C1148 C 0.12488 0.98011 0.69076 0.0
C1149 C 0.12458 0.95689 0.69147 0.0
C1150 C 0.11107 0.05076 0.68517 0.0
C1151 C 0.12556 0.06355 0.67194 0.0
C1152 C 0.11135 0.02754 0.68407 0.0
C1153 C 0.12639 0.01635 0.66999 0.0
C1154 C 0.14053 0.02912 0.65625 0.0
C1155 C 0.14005 0.05252 0.65716 0.0
H1156 H 0.0542 0.13225 0.71186 0.0
H1157 H 0.0586 0.12817 0.64002 0.0
H1158 H 0.01389 0.13261 0.70944 0.0
H1159 H 0.01794 0.12932 0.63753 0.0
H1160 H 0.94353 0.15368 0.70013 0.0
H1161 H 0.98394 0.15573 0.69892 0.0
H1162 H 0.98476 0.10798 0.6449 0.0
H1163 H 0.94399 0.10664 0.6456 0.0
C1164 C 0.04658 0.13166 0.69549 0.0
C1165 C 0.0597 0.13021 0.67614 0.0
C1166 C 0.02337 0.13202 0.69408 0.0
C1167 C 0.01256 0.13122 0.67326 0.0
C1168 C 0.02567 0.12977 0.65385 0.0
C1169 C 0.04898 0.12922 0.65527 0.0
C1170 C 0.95232 0.14374 0.68786 0.0
C1171 C 0.9406 0.12981 0.67312 0.0
C1172 C 0.97553 0.1448 0.68726 0.0
C1173 C 0.98772 0.13169 0.67212 0.0
C1174 C 0.97595 0.11839 0.65672 0.0
C1175 C 0.95258 0.11756 0.65714 0.0
H1176 H 0.85963 0.05603 0.64103 0.0
H1177 H 0.89175 0.0535 0.70557 0.0
H1178 H 0.85675 0.01523 0.64108 0.0
H1179 H 0.88895 0.01313 0.70546 0.0
H1180 H 0.85824 0.94516 0.71131 0.0
H1181 H 0.85839 0.98556 0.70827 0.0
H1182 H 0.88135 0.98065 0.64021 0.0
H1183 H 0.8811 0.9399 0.64312 0.0
C1184 C 0.86617 0.04683 0.65514 0.0
C1185 C 0.87589 0.0581 0.67331 0.0
C1186 C 0.86456 0.02348 0.65512 0.0
C1187 C 0.87241 0.011 0.67337 0.0
C1188 C 0.88239 0.02228 0.69132 0.0
C1189 C 0.88413 0.04547 0.69128 0.0
C1190 C 0.86318 0.95258 0.69559 0.0
C1191 C 0.86995 0.93922 0.67754 0.0
C1192 C 0.86334 0.97579 0.6939 0.0
C1193 C 0.8702 0.9863 0.67412 0.0
C1194 C 0.87596 0.97302 0.65567 0.0
C1195 C 0.87588 0.94968 0.65738 0.0
H1196 H 0.94387 0.86038 0.64428 0.0
H1197 H 0.94783 0.89619 0.70676 0.0
H1198 H 0.98466 0.8594 0.64245 0.0
H1199 H 0.98823 0.89528 0.70478 0.0
H1200 H 0.05948 0.88453 0.64018 0.0
H1201 H 0.01862 0.88491 0.63891 0.0
H1202 H 0.01641 0.86523 0.70815 0.0
H1203 H 0.05681 0.86491 0.70955 0.0
C1204 C 0.95338 0.86818 0.65751 0.0
C1205 C 0.94252 0.87826 0.67573 0.0
C1206 C 0.97672 0.86768 0.6564 0.0
C1207 C 0.98963 0.87706 0.67359 0.0
C1208 C 0.97875 0.88757 0.69147 0.0
C1209 C 0.95554 0.88819 0.69252 0.0
C1210 C 0.05025 0.88014 0.65507 0.0
C1211 C 0.06148 0.87495 0.67503 0.0
C1212 C 0.02687 0.8803 0.65431 0.0
C1213 C 0.01434 0.8754 0.67353 0.0
C1214 C 0.0256 0.86952 0.6932 0.0
C1215 C 0.04882 0.86925 0.69394 0.0
H1216 H 0.36022 0.11938 0.05856 0.0
H1217 H 0.29266 0.14439 0.0568 0.0
H1218 H 0.36112 0.11938 0.01774 0.0
H1219 H 0.29371 0.14454 0.01627 0.0
H1220 H 0.29284 0.11333 0.94701 0.0
H1221 H 0.29413 0.11544 0.98746 0.0
H1222 H 0.36002 0.14424 0.98411 0.0
H1223 H 0.35888 0.14198 0.94335 0.0
C1224 C 0.34566 0.12508 0.04952 0.0
C1225 C 0.32629 0.13165 0.06101 0.0
C1226 C 0.34622 0.12516 0.02614 0.0
C1227 C 0.32739 0.13171 0.01378 0.0
C1228 C 0.30834 0.13899 0.02529 0.0
C1229 C 0.3078 0.139 0.04857 0.0
C1230 C 0.30767 0.12009 0.9548 0.0
C1231 C 0.32576 0.12748 0.94185 0.0
C1232 C 0.30833 0.12143 0.97804 0.0
C1233 C 0.32711 0.13016 0.98901 0.0
C1234 C 0.34536 0.13733 0.97615 0.0
C1235 C 0.34465 0.13611 0.9528 0.0
H1236 H 0.8691 0.3598 0.94402 0.0
H1237 H 0.88472 0.28947 0.94423 0.0
H1238 H 0.86941 0.35988 0.98483 0.0
H1239 H 0.88413 0.28929 0.98464 0.0
H1240 H 0.90476 0.29856 0.05575 0.0
H1241 H 0.90509 0.30098 0.01536 0.0
H1242 H 0.85034 0.34782 0.01761 0.0
H1243 H 0.8507 0.34606 0.05836 0.0
C1244 C 0.87247 0.34435 0.95276 0.0
C1245 C 0.87715 0.3247 0.94085 0.0
C1246 C 0.87252 0.34435 0.97617 0.0
C1247 C 0.87702 0.32464 0.98815 0.0
C1248 C 0.8812 0.30494 0.97611 0.0
C1249 C 0.88142 0.30501 0.95284 0.0
C1250 C 0.8928 0.30942 0.04767 0.0
C1251 C 0.87762 0.32202 0.0603 0.0
C1252 C 0.89288 0.31072 0.02442 0.0
C1253 C 0.87754 0.32438 0.01306 0.0
C1254 C 0.86254 0.33728 0.02573 0.0
C1255 C 0.86266 0.33619 0.0491 0.0
H1256 H 0.64124 0.88428 0.94457 0.0
H1257 H 0.70988 0.86276 0.94912 0.0
H1258 H 0.63914 0.8856 0.98533 0.0
H1259 H 0.70764 0.86393 0.98955 0.0
H1260 H 0.70495 0.89462 0.05857 0.0
H1261 H 0.70474 0.89329 0.01804 0.0
H1262 H 0.64037 0.86108 0.0192 0.0
H1263 H 0.64041 0.86256 0.05998 0.0
C1264 C 0.65581 0.87969 0.95421 0.0
C1265 C 0.67578 0.8736 0.9435 0.0
C1266 C 0.65457 0.88037 0.97755 0.0
C1267 C 0.6733 0.87512 0.99066 0.0
C1268 C 0.69304 0.8685 0.97994 0.0
C1269 C 0.69426 0.86771 0.95671 0.0
C1270 C 0.69065 0.88737 0.05027 0.0
C1271 C 0.67271 0.87866 0.06261 0.0
C1272 C 0.69061 0.88647 0.02699 0.0
C1273 C 0.67263 0.87689 0.0154 0.0
C1274 C 0.65441 0.86866 0.02765 0.0
C1275 C 0.65449 0.86946 0.05102 0.0
H1276 H 0.11953 0.64622 0.94167 0.0
H1277 H 0.13846 0.71557 0.94758 0.0
H1278 H 0.11771 0.64341 0.98236 0.0
H1279 H 0.13687 0.71261 0.98794 0.0
H1280 H 0.1059 0.70781 0.05657 0.0
H1281 H 0.10769 0.70837 0.01608 0.0
H1282 H 0.14139 0.64473 0.01649 0.0
H1283 H 0.13938 0.64396 0.05721 0.0
C1284 C 0.12346 0.6608 0.95159 0.0
C1285 C 0.12894 0.68117 0.94129 0.0
C1286 C 0.12248 0.65915 0.9749 0.0
C1287 C 0.1269 0.67786 0.98836 0.0
C1288 C 0.13293 0.69801 0.97805 0.0
C1289 C 0.13396 0.69965 0.95485 0.0
C1290 C 0.1136 0.69384 0.04811 0.0
C1291 C 0.12255 0.67586 0.06022 0.0
C1292 C 0.11475 0.69425 0.02485 0.0
C1293 C 0.12487 0.6767 0.01306 0.0
C1294 C 0.13338 0.65845 0.02508 0.0
C1295 C 0.13229 0.65806 0.04843 0.0
H1296 H 0.34983 0.85203 0.94161 0.0
H1297 H 0.30869 0.91114 0.94223 0.0
H1298 H 0.34898 0.85106 0.98237 0.0
H1299 H 0.30855 0.91074 0.98273 0.0
H1300 H 0.2884 0.88896 0.05166 0.0
H1301 H 0.29179 0.88975 0.01138 0.0
H1302 H 0.36042 0.8684 0.01662 0.0
H1303 H 0.35671 0.86682 0.05721 0.0
C1304 C 0.34093 0.86502 0.95046 0.0
C1305 C 0.32915 0.88153 0.93871 0.0
C1306 C 0.34049 0.86452 0.97383 0.0
C1307 C 0.32844 0.88065 0.9859 0.0
C1308 C 0.31749 0.89768 0.97404 0.0
C1309 C 0.31769 0.89801 0.95078 0.0
C1310 C 0.30426 0.88447 0.04428 0.0
C1311 C 0.32233 0.87798 0.05769 0.0
C1312 C 0.30626 0.88506 0.02111 0.0
C1313 C 0.32648 0.87944 0.01066 0.0
C1314 C 0.34455 0.8727 0.02406 0.0
C1315 C 0.34246 0.87189 0.04734 0.0
H1316 H 0.10759 0.3542 0.94372 0.0
H1317 H 0.15474 0.29981 0.94306 0.0
H1318 H 0.10985 0.35568 0.98437 0.0
H1319 H 0.15797 0.30198 0.98341 0.0
H1320 H 0.13629 0.2905 0.05451 0.0
H1321 H 0.13678 0.29216 0.0143 0.0
H1322 H 0.13082 0.36399 0.01697 0.0
H1323 H 0.12928 0.36217 0.05774 0.0
C1324 C 0.11869 0.34279 0.95226 0.0
C1325 C 0.13072 0.32665 0.94026 0.0
C1326 C 0.12013 0.34373 0.97557 0.0
C1327 C 0.13389 0.32876 0.98732 0.0
C1328 C 0.14669 0.31335 0.97508 0.0
C1329 C 0.14494 0.31216 0.95189 0.0
C1330 C 0.13522 0.30673 0.04664 0.0
C1331 C 0.13273 0.32622 0.05944 0.0
C1332 C 0.13568 0.3077 0.02343 0.0
C1333 C 0.13402 0.32823 0.01221 0.0
C1334 C 0.13188 0.34784 0.02499 0.0
C1335 C 0.13115 0.34684 0.04837 0.0
H1336 H 0.71297 0.11216 0.94804 0.0
H1337 H 0.6435 0.1308 0.94439 0.0
H1338 H 0.71077 0.11121 0.98838 0.0
H1339 H 0.64098 0.12894 0.98506 0.0
H1340 H 0.65249 0.1467 0.05929 0.0
H1341 H 0.65221 0.14706 0.01857 0.0
H1342 H 0.69645 0.09013 0.01798 0.0
H1343 H 0.69747 0.09047 0.0585 0.0
C1344 C 0.6971 0.11578 0.95587 0.0
C1345 C 0.67838 0.12142 0.94298 0.0
C1346 C 0.69579 0.11509 0.97907 0.0
C1347 C 0.67562 0.11973 0.99008 0.0
C1348 C 0.65684 0.12547 0.97719 0.0
C1349 C 0.65824 0.12642 0.95387 0.0
C1350 C 0.66201 0.13418 0.0504 0.0
C1351 C 0.67516 0.11868 0.06208 0.0
C1352 C 0.66178 0.13432 0.02705 0.0
C1353 C 0.6745 0.11878 0.0149 0.0
C1354 C 0.68692 0.10274 0.02671 0.0
C1355 C 0.6874 0.10282 0.04998 0.0
H1356 H 0.85804 0.71192 0.94489 0.0
H1357 H 0.88251 0.64411 0.94467 0.0
H1358 H 0.85655 0.71129 0.98538 0.0
H1359 H 0.88118 0.64364 0.98551 0.0
H1360 H 0.85774 0.64732 0.05978 0.0
H1361 H 0.85573 0.64548 0.01894 0.0
H1362 H 0.88501 0.71114 0.01468 0.0
H1363 H 0.88686 0.7131 0.05505 0.0
C1364 C 0.86304 0.69681 0.95344 0.0
C1365 C 0.87066 0.67815 0.94143 0.0
C1366 C 0.86225 0.6965 0.97672 0.0
C1367 C 0.86901 0.67752 0.98871 0.0
C1368 C 0.87578 0.6585 0.97676 0.0
C1369 C 0.87664 0.65882 0.95336 0.0
C1370 C 0.86369 0.66136 0.05009 0.0
C1371 C 0.87246 0.68035 0.06076 0.0
C1372 C 0.86263 0.66026 0.02671 0.0
C1373 C 0.87009 0.67822 0.01355 0.0
C1374 C 0.8788 0.69714 0.02428 0.0
C1375 C 0.88 0.69819 0.0475 0.0
H1376 H 0.94183 0.35653 0.11849 0.0
H1377 H 0.94845 0.28759 0.13865 0.0
H1378 H 0.98247 0.35978 0.11674 0.0
H1379 H 0.98876 0.29097 0.13702 0.0
H1380 H 0.05638 0.29576 0.10402 0.0
H1381 H 0.01598 0.29538 0.10632 0.0
H1382 H 0.01711 0.35851 0.14094 0.0
H1383 H 0.05785 0.35906 0.13855 0.0
C1384 C 0.9519 0.34215 0.12272 0.0
C1385 C 0.94183 0.32173 0.12848 0.0
C1386 C 0.97516 0.34405 0.12179 0.0
C1387 C 0.98878 0.32555 0.12646 0.0
C1388 C 0.97871 0.3054 0.1329 0.0
C1389 C 0.95556 0.30352 0.13394 0.0
C1390 C 0.04811 0.30968 0.11201 0.0
C1391 C 0.06044 0.32741 0.12117 0.0
C1392 C 0.02492 0.30937 0.11345 0.0
C1393 C 0.01338 0.32679 0.12404 0.0
C1394 C 0.02556 0.34489 0.13263 0.0
C1395 C 0.04888 0.34516 0.1313 0.0
H1396 H 0.05703 0.7148 0.87967 0.0
H1397 H 0.06168 0.64366 0.8693 0.0
H1398 H 0.01673 0.7122 0.88048 0.0
H1399 H 0.02099 0.64087 0.87094 0.0
H1400 H 0.94586 0.64916 0.85411 0.0
H1401 H 0.98657 0.64952 0.85242 0.0
H1402 H 0.98805 0.69977 0.9041 0.0
H1403 H 0.9476 0.69999 0.90513 0.0
C1404 C 0.04943 0.69852 0.87771 0.0
C1405 C 0.06262 0.67941 0.87461 0.0
C1406 C 0.02624 0.697 0.87834 0.0
C1407 C 0.01549 0.67626 0.87618 0.0
C1408 C 0.02865 0.65714 0.87256 0.0
C1409 C 0.05199 0.65871 0.87169 0.0
C1410 C 0.95494 0.66016 0.8652 0.0
C1411 C 0.94347 0.67468 0.87962 0.0
C1412 C 0.9783 0.66032 0.86429 0.0
C1413 C 0.99069 0.67488 0.87791 0.0
C1414 C 0.97913 0.68876 0.89291 0.0
C1415 C 0.95587 0.68878 0.89363 0.0
H1416 H 0.29053 0.05483 0.86803 0.0
H1417 H 0.36187 0.06096 0.87613 0.0
H1418 H 0.2942 0.01477 0.86488 0.0
H1419 H 0.36565 0.0205 0.87222 0.0
H1420 H 0.35697 0.94495 0.89092 0.0
H1421 H 0.35775 0.98575 0.8912 0.0
H1422 H 0.30691 0.98688 0.84009 0.0
H1423 H 0.30555 0.94636 0.84053 0.0
C1424 C 0.30707 0.04765 0.86894 0.0
C1425 C 0.32591 0.06117 0.87233 0.0
C1426 C 0.30921 0.0246 0.86693 0.0
C1427 C 0.33026 0.01434 0.86801 0.0
C1428 C 0.34917 0.02782 0.87145 0.0
C1429 C 0.34701 0.05101 0.87362 0.0
C1430 C 0.34624 0.95398 0.87952 0.0
C1431 C 0.33097 0.94253 0.86593 0.0
C1432 C 0.3467 0.97736 0.87964 0.0
C1433 C 0.33207 0.98965 0.86599 0.0
C1434 C 0.31793 0.97801 0.85132 0.0
C1435 C 0.31726 0.95477 0.85144 0.0
H1436 H 0.94617 0.29302 0.85655 0.0
H1437 H 0.94253 0.35987 0.88329 0.0
H1438 H 0.98658 0.29508 0.85672 0.0
H1439 H 0.98334 0.3618 0.8836 0.0
H1440 H 0.05541 0.29447 0.8881 0.0
H1441 H 0.01501 0.29534 0.88617 0.0
H1442 H 0.01745 0.36196 0.85892 0.0
H1443 H 0.05824 0.36124 0.861 0.0
C1444 C 0.95396 0.30823 0.86242 0.0
C1445 C 0.941 0.3262 0.87015 0.0
C1446 C 0.97719 0.30935 0.8626 0.0
C1447 C 0.98821 0.32847 0.87047 0.0
C1448 C 0.97535 0.34684 0.87739 0.0
C1449 C 0.95197 0.3457 0.87728 0.0
C1450 C 0.04745 0.30939 0.88173 0.0
C1451 C 0.06018 0.32778 0.87467 0.0
C1452 C 0.02422 0.30981 0.8805 0.0
C1453 C 0.01298 0.32864 0.87221 0.0
C1454 C 0.02561 0.34724 0.86548 0.0
C1455 C 0.04898 0.34677 0.86658 0.0
H1456 H 0.70838 0.94655 0.89165 0.0
H1457 H 0.64251 0.94375 0.86247 0.0
H1458 H 0.70801 0.98693 0.88872 0.0
H1459 H 0.6423 0.9845 0.85943 0.0
H1460 H 0.71208 0.0548 0.85747 0.0
H1461 H 0.70927 0.01439 0.85793 0.0
H1462 H 0.64234 0.01906 0.88395 0.0
H1463 H 0.64501 0.05983 0.88339 0.0
C1464 C 0.69377 0.95452 0.88464 0.0
C1465 C 0.67549 0.94183 0.87727 0.0
C1466 C 0.69364 0.97771 0.88282 0.0
C1467 C 0.67522 0.98888 0.87364 0.0
C1468 C 0.6567 0.97633 0.86664 0.0
C1469 C 0.65688 0.95301 0.86832 0.0
C1470 C 0.69665 0.04732 0.86315 0.0
C1471 C 0.67886 0.06062 0.87068 0.0
C1472 C 0.6951 0.02411 0.8635 0.0
C1473 C 0.67572 0.01355 0.87131 0.0
C1474 C 0.65748 0.02676 0.87783 0.0
C1475 C 0.65905 0.05009 0.87755 0.0
H1476 H 0.05501 0.71047 0.13707 0.0
H1477 H 0.05756 0.63947 0.12484 0.0
H1478 H 0.01485 0.70919 0.13727 0.0
H1479 H 0.01672 0.638 0.12598 0.0
H1480 H 0.94294 0.65197 0.10376 0.0
H1481 H 0.98363 0.64874 0.10575 0.0
H1482 H 0.9846 0.69761 0.15878 0.0
H1483 H 0.94445 0.70157 0.1559 0.0
C1484 C 0.047 0.69444 0.13475 0.0
C1485 C 0.05961 0.67505 0.13099 0.0
C1486 C 0.02382 0.69368 0.13504 0.0
C1487 C 0.0124 0.67344 0.13193 0.0
C1488 C 0.02494 0.65391 0.12829 0.0
C1489 C 0.04834 0.65472 0.12777 0.0
C1490 C 0.95195 0.66185 0.1159 0.0
C1491 C 0.94065 0.67733 0.12937 0.0
C1492 C 0.97524 0.65994 0.11714 0.0
C1493 C 0.98753 0.67324 0.13214 0.0
C1494 C 0.97586 0.68764 0.14652 0.0
C1495 C 0.9528 0.68985 0.14497 0.0
H1496 H 0.28852 0.94761 0.14055 0.0
H1497 H 0.356 0.94113 0.11605 0.0
H1498 H 0.29214 0.98791 0.14008 0.0
H1499 H 0.3595 0.98188 0.11549 0.0
H1500 H 0.36016 0.05701 0.13885 0.0
H1501 H 0.35974 0.01618 0.14051 0.0
H1502 H 0.29468 0.0157 0.10971 0.0
H1503 H 0.29492 0.05615 0.10816 0.0
C1504 C 0.3042 0.95475 0.13512 0.0
C1505 C 0.32189 0.94106 0.12807 0.0
C1506 C 0.30621 0.97791 0.13477 0.0
C1507 C 0.32597 0.98807 0.12741 0.0
C1508 C 0.34406 0.97449 0.12125 0.0
C1509 C 0.34203 0.95118 0.12152 0.0
C1510 C 0.34583 0.04817 0.13232 0.0
C1511 C 0.32753 0.05991 0.12346 0.0
C1512 C 0.34565 0.02479 0.13321 0.0
C1513 C 0.32709 0.01276 0.12546 0.0
C1514 C 0.30906 0.02451 0.11618 0.0
C1515 C 0.30928 0.04774 0.11518 0.0
H1516 H 0.64162 0.05786 0.13239 0.0
H1517 H 0.71316 0.0529 0.13907 0.0
H1518 H 0.63861 0.01733 0.1353 0.0
H1519 H 0.71031 0.01267 0.14102 0.0
H1520 H 0.7003 0.94195 0.1606 0.0
H1521 H 0.69946 0.98243 0.16307 0.0
H1522 H 0.6458 0.9842 0.11492 0.0
H1523 H 0.64601 0.94353 0.11332 0.0
C1524 C 0.65669 0.04814 0.13446 0.0
C1525 C 0.67762 0.05866 0.13549 0.0
C1526 C 0.655 0.02488 0.13599 0.0
C1527 C 0.67421 0.01159 0.13842 0.0
C1528 C 0.69507 0.02225 0.13965 0.0
C1529 C 0.69674 0.04542 0.13836 0.0
C1530 C 0.68817 0.95099 0.15072 0.0
C1531 C 0.67336 0.93957 0.13662 0.0
C1532 C 0.68777 0.97424 0.152 0.0
C1533 C 0.67282 0.98673 0.13891 0.0
C1534 C 0.65742 0.97521 0.12541 0.0
C1535 C 0.6576 0.95187 0.1244 0.0
H1536 H 0.63839 0.44738 0.78893 0.0
H1537 H 0.62658 0.44197 0.85985 0.0
H1538 H 0.64128 0.48742 0.79231 0.0
H1539 H 0.63031 0.48249 0.8634 0.0
H1540 H 0.61055 0.55763 0.8527 0.0
H1541 H 0.61144 0.51684 0.85439 0.0
H1542 H 0.66431 0.51622 0.8054 0.0
H1543 H 0.66261 0.55666 0.80303 0.0
C1544 C 0.63669 0.4547 0.80536 0.0
C1545 C 0.63221 0.44135 0.82412 0.0
C1546 C 0.63855 0.47779 0.80734 0.0
C1547 C 0.63626 0.48832 0.82818 0.0
C1548 C 0.632 0.47499 0.84706 0.0
C1549 C 0.62997 0.45175 0.84504 0.0
C1550 C 0.62257 0.54871 0.84259 0.0
C1551 C 0.63628 0.56025 0.82749 0.0
C1552 C 0.62314 0.52533 0.84358 0.0
C1553 C 0.63764 0.51313 0.82969 0.0
C1554 C 0.65243 0.52495 0.81582 0.0
C1555 C 0.65159 0.54817 0.81457 0.0
H1556 H 0.44927 0.63544 0.78757 0.0
H1557 H 0.44492 0.61982 0.85786 0.0
H1558 H 0.48964 0.6339 0.78968 0.0
H1559 H 0.48569 0.61819 0.85985 0.0
H1560 H 0.56081 0.64116 0.85497 0.0
H1561 H 0.52002 0.64289 0.8557 0.0
H1562 H 0.51733 0.6037 0.79535 0.0
H1563 H 0.55777 0.60204 0.79445 0.0
C1564 C 0.45689 0.63171 0.80352 0.0
C1565 C 0.44376 0.62756 0.82252 0.0
C1566 C 0.48008 0.63072 0.80468 0.0
C1567 C 0.49083 0.62567 0.82487 0.0
C1568 C 0.47784 0.62216 0.84407 0.0
C1569 C 0.45451 0.62301 0.84289 0.0
C1570 C 0.55149 0.63279 0.84195 0.0
C1571 C 0.56261 0.62154 0.8246 0.0
C1572 C 0.52815 0.63372 0.84243 0.0
C1573 C 0.5155 0.62361 0.82547 0.0
C1574 C 0.52662 0.61196 0.80846 0.0
C1575 C 0.54985 0.61091 0.80804 0.0
H1576 H 0.36974 0.56067 0.86111 0.0
H1577 H 0.38135 0.55653 0.7901 0.0
H1578 H 0.37038 0.51989 0.86348 0.0
H1579 H 0.38123 0.51618 0.79229 0.0
H1580 H 0.40501 0.44686 0.80463 0.0
H1581 H 0.40469 0.48733 0.80551 0.0
H1582 H 0.35085 0.486 0.8534 0.0
H1583 H 0.35174 0.44522 0.8531 0.0
C1584 C 0.3722 0.55107 0.84601 0.0
C1585 C 0.37579 0.56181 0.82548 0.0
C1586 C 0.3725 0.52772 0.84734 0.0
C1587 C 0.37622 0.51473 0.82812 0.0
C1588 C 0.379 0.5256 0.80754 0.0
C1589 C 0.37892 0.54879 0.80626 0.0
C1590 C 0.39317 0.45517 0.81545 0.0
C1591 C 0.3783 0.44284 0.82868 0.0
C1592 C 0.39288 0.47841 0.81586 0.0
C1593 C 0.37749 0.48997 0.82926 0.0
C1594 C 0.36301 0.47764 0.843 0.0
C1595 C 0.36347 0.45429 0.84277 0.0
H1596 H 0.55764 0.36279 0.8575 0.0
H1597 H 0.55353 0.39504 0.79312 0.0
H1598 H 0.51695 0.36031 0.85873 0.0
H1599 H 0.51309 0.39268 0.79451 0.0
H1600 H 0.44186 0.38271 0.86003 0.0
H1601 H 0.48262 0.3842 0.86107 0.0
H1602 H 0.48508 0.3627 0.79238 0.0
H1603 H 0.44462 0.36133 0.79122 0.0
C1604 C 0.5481 0.3695 0.8437 0.0
C1605 C 0.55892 0.37908 0.82518 0.0
C1606 C 0.52478 0.36813 0.84446 0.0
C1607 C 0.51179 0.37612 0.82663 0.0
C1608 C 0.52261 0.38603 0.80835 0.0
C1609 C 0.54584 0.38753 0.80764 0.0
C1610 C 0.4511 0.37811 0.84522 0.0
C1611 C 0.43988 0.3721 0.82549 0.0
C1612 C 0.47446 0.37892 0.84584 0.0
C1613 C 0.48707 0.37386 0.82671 0.0
C1614 C 0.47585 0.36714 0.80727 0.0
C1615 C 0.4526 0.36623 0.80667 0.0
H1616 H 0.63019 0.44133 0.14551 0.0
H1617 H 0.6343 0.44508 0.21739 0.0
H1618 H 0.63179 0.48203 0.14341 0.0
H1619 H 0.63491 0.48535 0.2154 0.0
H1620 H 0.65343 0.55659 0.20739 0.0
H1621 H 0.6566 0.51622 0.20592 0.0
H1622 H 0.6103 0.5146 0.15064 0.0
H1623 H 0.60802 0.55526 0.15151 0.0
C1624 C 0.63143 0.4508 0.16084 0.0
C1625 C 0.63215 0.43989 0.1816 0.0
C1626 C 0.6322 0.47415 0.15966 0.0
C1627 C 0.63354 0.4871 0.17923 0.0
C1628 C 0.6344 0.47606 0.19992 0.0
C1629 C 0.63387 0.45284 0.20108 0.0
C1630 C 0.64404 0.54762 0.19482 0.0
C1631 C 0.63029 0.55909 0.17972 0.0
C1632 C 0.64574 0.52441 0.19404 0.0
C1633 C 0.63343 0.51198 0.17839 0.0
C1634 C 0.62019 0.52355 0.1628 0.0
C1635 C 0.61876 0.54687 0.16337 0.0
H1636 H 0.554 0.60758 0.20952 0.0
H1637 H 0.55694 0.63917 0.14473 0.0
H1638 H 0.51364 0.60919 0.20855 0.0
H1639 H 0.5161 0.64091 0.14393 0.0
H1640 H 0.4453 0.63943 0.21304 0.0
H1641 H 0.48566 0.63918 0.21072 0.0
H1642 H 0.4819 0.61581 0.14271 0.0
H1643 H 0.4411 0.61619 0.14488 0.0
C1644 C 0.54607 0.61486 0.19501 0.0
C1645 C 0.5588 0.62332 0.17722 0.0
C1646 C 0.52287 0.61588 0.19453 0.0
C1647 C 0.51168 0.62539 0.17627 0.0
C1648 C 0.52428 0.63343 0.1582 0.0
C1649 C 0.54765 0.6325 0.15871 0.0
C1650 C 0.45295 0.63428 0.19751 0.0
C1651 C 0.43988 0.62755 0.17923 0.0
C1652 C 0.47615 0.63407 0.19623 0.0
C1653 C 0.48697 0.62718 0.17664 0.0
C1654 C 0.47401 0.62124 0.15802 0.0
C1655 C 0.45066 0.62137 0.15931 0.0
H1656 H 0.3814 0.554 0.21271 0.0
H1657 H 0.36607 0.55833 0.14241 0.0
H1658 H 0.38202 0.51366 0.21022 0.0
H1659 H 0.36745 0.51763 0.13971 0.0
H1660 H 0.35105 0.44242 0.14984 0.0
H1661 H 0.34931 0.48321 0.15009 0.0
H1662 H 0.40494 0.48508 0.1959 0.0
H1663 H 0.40611 0.44464 0.19624 0.0
C1664 C 0.37832 0.54633 0.19664 0.0
C1665 C 0.37389 0.55944 0.17772 0.0
C1666 C 0.37881 0.52312 0.19517 0.0
C1667 C 0.37515 0.51229 0.17468 0.0
C1668 C 0.37024 0.52537 0.15579 0.0
C1669 C 0.36954 0.54871 0.15731 0.0
C1670 C 0.36298 0.45162 0.15982 0.0
C1671 C 0.37858 0.44028 0.17317 0.0
C1672 C 0.36203 0.47499 0.15992 0.0
C1673 C 0.37678 0.4875 0.17326 0.0
C1674 C 0.3929 0.47606 0.1859 0.0
C1675 C 0.39368 0.45281 0.18598 0.0
H1676 H 0.5599 0.36279 0.14336 0.0
H1677 H 0.55427 0.3927 0.20877 0.0
H1678 H 0.5192 0.36028 0.14115 0.0
H1679 H 0.51393 0.39023 0.20641 0.0
H1680 H 0.4469 0.35653 0.208 0.0
H1681 H 0.48728 0.35819 0.20664 0.0
H1682 H 0.48424 0.38506 0.1399 0.0
H1683 H 0.44341 0.38341 0.14113 0.0
C1684 C 0.55003 0.36899 0.15716 0.0
C1685 C 0.56038 0.37784 0.1763 0.0
C1686 C 0.52675 0.3676 0.15583 0.0
C1687 C 0.51345 0.37483 0.17371 0.0
C1688 C 0.52379 0.38418 0.19253 0.0
C1689 C 0.54694 0.38571 0.19381 0.0
C1690 C 0.45472 0.3627 0.19293 0.0
C1691 C 0.44185 0.37013 0.17477 0.0
C1692 C 0.47791 0.36372 0.19222 0.0
C1693 C 0.48888 0.3721 0.17332 0.0
C1694 C 0.47617 0.37855 0.15469 0.0
C1695 C 0.45283 0.37763 0.15543 0.0
H1696 H 0.7902 0.63335 0.44793 0.0
H1697 H 0.86183 0.62812 0.44231 0.0
H1698 H 0.79327 0.63466 0.48807 0.0
H1699 H 0.86502 0.63036 0.48298 0.0
H1700 H 0.85763 0.60818 0.5572 0.0
H1701 H 0.85814 0.60984 0.51648 0.0
H1702 H 0.80388 0.65728 0.51794 0.0
H1703 H 0.80276 0.65475 0.5584 0.0
C1704 C 0.80671 0.63277 0.45524 0.0
C1705 C 0.82579 0.63062 0.44179 0.0
C1706 C 0.80848 0.63372 0.4784 0.0
C1707 C 0.82941 0.63286 0.48892 0.0
C1708 C 0.8486 0.63087 0.4755 0.0
C1709 C 0.8468 0.6297 0.45218 0.0
C1710 C 0.84596 0.6191 0.54877 0.0
C1711 C 0.82993 0.63108 0.56097 0.0
C1712 C 0.84631 0.62014 0.52541 0.0
C1713 C 0.83082 0.63343 0.51379 0.0
C1714 C 0.81564 0.64634 0.5262 0.0
C1715 C 0.81507 0.64502 0.54944 0.0
H1716 H 0.37482 0.86197 0.55699 0.0
H1717 H 0.36784 0.79041 0.55171 0.0
H1718 H 0.37178 0.86514 0.51641 0.0
H1719 H 0.36564 0.79346 0.51154 0.0
H1720 H 0.34321 0.80381 0.44204 0.0
H1721 H 0.34188 0.80517 0.48254 0.0
H1722 H 0.39167 0.85732 0.48245 0.0
H1723 H 0.39224 0.85654 0.44167 0.0
C1724 C 0.37271 0.84693 0.5472 0.0
C1725 C 0.37152 0.82595 0.55764 0.0
C1726 C 0.37107 0.84873 0.52394 0.0
C1727 C 0.36829 0.82958 0.51064 0.0
C1728 C 0.36721 0.80865 0.52118 0.0
C1729 C 0.36866 0.80688 0.54432 0.0
C1730 C 0.35369 0.81574 0.45066 0.0
C1731 C 0.36801 0.82989 0.43871 0.0
C1732 C 0.35305 0.81643 0.47391 0.0
C1733 C 0.36701 0.83103 0.48585 0.0
C1734 C 0.38061 0.84594 0.47383 0.0
C1735 C 0.381 0.84546 0.45046 0.0
H1736 H 0.20845 0.39519 0.44448 0.0
H1737 H 0.14576 0.35965 0.44201 0.0
H1738 H 0.20785 0.39363 0.48488 0.0
H1739 H 0.14534 0.35798 0.48288 0.0
H1740 H 0.21419 0.36428 0.55366 0.0
H1741 H 0.21193 0.36404 0.51321 0.0
H1742 H 0.14269 0.38337 0.51667 0.0
H1743 H 0.1448 0.38344 0.55745 0.0
C1744 C 0.19447 0.38706 0.45253 0.0
C1745 C 0.17716 0.37749 0.43992 0.0
C1746 C 0.19423 0.38605 0.47574 0.0
C1747 C 0.17667 0.37548 0.48705 0.0
C1748 C 0.15906 0.3663 0.47458 0.0
C1749 C 0.15935 0.3672 0.45121 0.0
C1750 C 0.19841 0.36841 0.5459 0.0
C1751 C 0.17974 0.37414 0.55886 0.0
C1752 C 0.19716 0.36834 0.52267 0.0
C1753 C 0.1772 0.37394 0.51176 0.0
C1754 C 0.15827 0.37892 0.52463 0.0
C1755 C 0.15953 0.37907 0.54798 0.0
H1756 H 0.62807 0.14038 0.44382 0.0
H1757 H 0.63556 0.21198 0.44746 0.0
H1758 H 0.62972 0.13825 0.48456 0.0
H1759 H 0.63635 0.20998 0.48774 0.0
H1760 H 0.65643 0.20137 0.55822 0.0
H1761 H 0.65879 0.19912 0.51785 0.0
H1762 H 0.60914 0.14683 0.51782 0.0
H1763 H 0.60758 0.14849 0.55859 0.0
C1764 C 0.63002 0.15565 0.45328 0.0
C1765 C 0.63177 0.17633 0.44232 0.0
C1766 C 0.63085 0.15445 0.47664 0.0
C1767 C 0.63333 0.17392 0.48954 0.0
C1768 C 0.63498 0.19455 0.47847 0.0
C1769 C 0.63436 0.19572 0.45524 0.0
C1770 C 0.64616 0.18924 0.54962 0.0
C1771 C 0.63163 0.17528 0.56155 0.0
C1772 C 0.64739 0.18804 0.52641 0.0
C1773 C 0.63381 0.17312 0.51442 0.0
C1774 C 0.61993 0.15846 0.52645 0.0
C1775 C 0.61896 0.15944 0.54982 0.0
H1776 H 0.86465 0.36163 0.44179 0.0
H1777 H 0.79616 0.3833 0.44502 0.0
H1778 H 0.86621 0.36057 0.48263 0.0
H1779 H 0.79797 0.38387 0.4853 0.0
H1780 H 0.79692 0.36358 0.55618 0.0
H1781 H 0.79769 0.36141 0.51582 0.0
H1782 H 0.86736 0.38024 0.5162 0.0
H1783 H 0.86674 0.38067 0.55704 0.0
C1784 C 0.85004 0.36636 0.45128 0.0
C1785 C 0.8302 0.37221 0.4403 0.0
C1786 C 0.85091 0.36591 0.47468 0.0
C1787 C 0.8321 0.37182 0.48751 0.0
C1788 C 0.81258 0.37839 0.47625 0.0
C1789 C 0.81155 0.37825 0.45304 0.0
C1790 C 0.81241 0.36718 0.54759 0.0
C1791 C 0.83169 0.37253 0.55965 0.0
C1792 C 0.81286 0.36614 0.52437 0.0
C1793 C 0.83247 0.37117 0.51246 0.0
C1794 C 0.85197 0.3761 0.52465 0.0
C1795 C 0.85163 0.37651 0.54806 0.0
H1796 H 0.63992 0.85946 0.44535 0.0
H1797 H 0.61075 0.79363 0.44904 0.0
H1798 H 0.64318 0.86012 0.4861 0.0
H1799 H 0.6139 0.79443 0.48941 0.0
H1800 H 0.64547 0.79114 0.55743 0.0
H1801 H 0.6444 0.79327 0.51697 0.0
H1802 H 0.61935 0.86065 0.52091 0.0
H1803 H 0.62051 0.85864 0.5617 0.0
C1804 C 0.6341 0.84521 0.4548 0.0
C1805 C 0.62509 0.82648 0.44384 0.0
C1806 C 0.63591 0.84563 0.47814 0.0
C1807 C 0.629 0.82725 0.49098 0.0
C1808 C 0.61975 0.80871 0.48001 0.0
C1809 C 0.61779 0.80834 0.45681 0.0
C1810 C 0.63987 0.80652 0.54978 0.0
C1811 C 0.63284 0.82464 0.56292 0.0
C1812 C 0.63916 0.80768 0.52652 0.0
C1813 C 0.63149 0.82701 0.51571 0.0
C1814 C 0.62538 0.84553 0.52875 0.0
C1815 C 0.62599 0.84434 0.55212 0.0
H1816 H 0.14032 0.64184 0.5581 0.0
H1817 H 0.20666 0.614 0.55391 0.0
H1818 H 0.13887 0.64415 0.51731 0.0
H1819 H 0.20507 0.61618 0.5135 0.0
H1820 H 0.2063 0.64606 0.4447 0.0
H1821 H 0.20498 0.646 0.48519 0.0
H1822 H 0.13819 0.61926 0.48321 0.0
H1823 H 0.13936 0.61942 0.44236 0.0
C1824 C 0.15454 0.63614 0.54853 0.0
C1825 C 0.17362 0.62776 0.55934 0.0
C1826 C 0.15365 0.63739 0.52518 0.0
C1827 C 0.17192 0.63051 0.51218 0.0
C1828 C 0.19085 0.62196 0.52302 0.0
C1829 C 0.19169 0.62057 0.54624 0.0
C1830 C 0.19122 0.64027 0.45279 0.0
C1831 C 0.17301 0.63249 0.44019 0.0
C1832 C 0.19053 0.64015 0.47605 0.0
C1833 C 0.17161 0.63233 0.48742 0.0
C1834 C 0.15299 0.62543 0.47492 0.0
C1835 C 0.1537 0.62546 0.45152 0.0
H1836 H 0.3653 0.14332 0.44352 0.0
H1837 H 0.38582 0.21214 0.44825 0.0
H1838 H 0.36386 0.14096 0.48424 0.0
H1839 H 0.38594 0.20956 0.48854 0.0
H1840 H 0.36506 0.20838 0.55939 0.0
H1841 H 0.36327 0.20862 0.519 0.0
H1842 H 0.38355 0.13935 0.51776 0.0
H1843 H 0.38369 0.13891 0.55861 0.0
C1844 C 0.3697 0.15786 0.45331 0.0
C1845 C 0.37541 0.17798 0.44275 0.0
C1846 C 0.36903 0.1565 0.47666 0.0
C1847 C 0.37454 0.17513 0.48992 0.0
C1848 C 0.38083 0.19503 0.47912 0.0
C1849 C 0.38095 0.19651 0.45591 0.0
C1850 C 0.36905 0.19318 0.55044 0.0
C1851 C 0.37474 0.17369 0.56205 0.0
C1852 C 0.36823 0.19333 0.52721 0.0
C1853 C 0.37375 0.17414 0.51484 0.0
C1854 C 0.37902 0.15443 0.52658 0.0
C1855 C 0.37925 0.15415 0.54998 0.0
H1856 H 0.44429 0.86074 0.6294 0.0
H1857 H 0.44551 0.79 0.61578 0.0
H1858 H 0.48503 0.8614 0.62917 0.0
H1859 H 0.4859 0.79043 0.61644 0.0
H1860 H 0.55748 0.8001 0.59697 0.0
H1861 H 0.51701 0.80179 0.59579 0.0
H1862 H 0.51746 0.85041 0.64904 0.0
H1863 H 0.5581 0.84936 0.64953 0.0
C1864 C 0.45323 0.84532 0.6265 0.0
C1865 C 0.44161 0.82537 0.6224 0.0
C1866 C 0.47661 0.84565 0.62649 0.0
C1867 C 0.4889 0.82599 0.62261 0.0
C1868 C 0.47715 0.80602 0.61891 0.0
C1869 C 0.45388 0.80575 0.61868 0.0
C1870 C 0.54896 0.81122 0.60838 0.0
C1871 C 0.56105 0.82455 0.62338 0.0
C1872 C 0.52568 0.8121 0.60781 0.0
C1873 C 0.5138 0.82608 0.62248 0.0
C1874 C 0.52596 0.83964 0.6373 0.0
C1875 C 0.54929 0.83896 0.63767 0.0
H1876 H 0.44751 0.19607 0.40673 0.0
H1877 H 0.44515 0.15011 0.3513 0.0
H1878 H 0.48785 0.19432 0.40672 0.0
H1879 H 0.48599 0.14896 0.3507 0.0
H1880 H 0.56039 0.13903 0.36949 0.0
H1881 H 0.51963 0.13744 0.36986 0.0
H1882 H 0.5173 0.20798 0.38457 0.0
H1883 H 0.55767 0.20935 0.38498 0.0
C1884 C 0.45565 0.18563 0.39443 0.0
C1885 C 0.44312 0.17339 0.37887 0.0
C1886 C 0.47885 0.18473 0.39433 0.0
C1887 C 0.49028 0.17183 0.37844 0.0
C1888 C 0.47776 0.159 0.36325 0.0
C1889 C 0.45437 0.1597 0.36352 0.0
C1890 C 0.55112 0.15415 0.37285 0.0
C1891 C 0.5623 0.17425 0.3775 0.0
C1892 C 0.52775 0.15328 0.37294 0.0
C1893 C 0.51511 0.17252 0.37752 0.0
C1894 C 0.52641 0.19268 0.38158 0.0
C1895 C 0.54964 0.1935 0.38171 0.0
H1896 H 0.79225 0.55505 0.38548 0.0
H1897 H 0.86231 0.55912 0.36933 0.0
H1898 H 0.79433 0.5147 0.38504 0.0
H1899 H 0.86467 0.51839 0.36978 0.0
H1900 H 0.85429 0.44427 0.35081 0.0
H1901 H 0.85414 0.48504 0.35069 0.0
H1902 H 0.80799 0.48477 0.40608 0.0
H1903 H 0.80744 0.44431 0.4055 0.0
C1904 C 0.80821 0.54731 0.38209 0.0
C1905 C 0.82715 0.56034 0.37762 0.0
C1906 C 0.80944 0.52408 0.38196 0.0
C1907 C 0.82974 0.51316 0.37768 0.0
C1908 C 0.84871 0.52619 0.37298 0.0
C1909 C 0.8474 0.54954 0.37284 0.0
C1910 C 0.8442 0.45299 0.36299 0.0
C1911 C 0.83072 0.44107 0.37802 0.0
C1912 C 0.84419 0.47637 0.36301 0.0
C1913 C 0.83086 0.4883 0.37822 0.0
C1914 C 0.818 0.47624 0.39371 0.0
C1915 C 0.81778 0.45298 0.39349 0.0
H1916 H 0.44327 0.86007 0.35938 0.0
H1917 H 0.44449 0.79657 0.39356 0.0
H1918 H 0.48408 0.86007 0.35823 0.0
H1919 H 0.48496 0.79674 0.39253 0.0
H1920 H 0.55837 0.85978 0.38355 0.0
H1921 H 0.51761 0.86206 0.38354 0.0
H1922 H 0.51381 0.79297 0.36359 0.0
H1923 H 0.55422 0.79056 0.36374 0.0
C1924 C 0.45219 0.8462 0.36676 0.0
C1925 C 0.44055 0.82829 0.37651 0.0
C1926 C 0.47556 0.84626 0.36616 0.0
C1927 C 0.48774 0.82832 0.37513 0.0
C1928 C 0.47608 0.81064 0.38515 0.0
C1929 C 0.45283 0.81063 0.38586 0.0
C1930 C 0.54882 0.84512 0.37904 0.0
C1931 C 0.55962 0.82493 0.37388 0.0
C1932 C 0.52549 0.84647 0.37895 0.0
C1933 C 0.51249 0.82762 0.37382 0.0
C1934 C 0.52332 0.80767 0.36804 0.0
C1935 C 0.54655 0.80634 0.36803 0.0
H1936 H 0.21006 0.4478 0.35837 0.0
H1937 H 0.14237 0.44194 0.38243 0.0
H1938 H 0.20731 0.48814 0.36018 0.0
H1939 H 0.13973 0.48269 0.38431 0.0
H1940 H 0.14004 0.55798 0.3624 0.0
H1941 H 0.14005 0.51725 0.3601 0.0
H1942 H 0.20511 0.51562 0.39087 0.0
H1943 H 0.20526 0.55613 0.39306 0.0
C1944 C 0.19452 0.45508 0.36398 0.0
C1945 C 0.1765 0.44154 0.37048 0.0
C1946 C 0.19302 0.47826 0.36512 0.0
C1947 C 0.17343 0.48859 0.3727 0.0
C1948 C 0.15504 0.47518 0.37839 0.0
C1949 C 0.15658 0.45186 0.37735 0.0
C1950 C 0.15428 0.54893 0.36881 0.0
C1951 C 0.17269 0.56038 0.37785 0.0
C1952 C 0.15423 0.52559 0.36756 0.0
C1953 C 0.17265 0.51325 0.37512 0.0
C1954 C 0.19081 0.52468 0.38457 0.0
C1955 C 0.19082 0.54792 0.38595 0.0
H1956 H 0.44467 0.21259 0.63979 0.0
H1957 H 0.44299 0.14261 0.62252 0.0
H1958 H 0.48522 0.2118 0.63912 0.0
H1959 H 0.48369 0.14195 0.6216 0.0
H1960 H 0.55786 0.14593 0.64314 0.0
H1961 H 0.51719 0.14533 0.64548 0.0
H1962 H 0.51431 0.20841 0.6108 0.0
H1963 H 0.55478 0.2092 0.60867 0.0
C1964 C 0.45292 0.197 0.6359 0.0
C1965 C 0.44049 0.1777 0.63106 0.0
C1966 C 0.4762 0.19659 0.63539 0.0
C1967 C 0.48772 0.17687 0.63009 0.0
C1968 C 0.47535 0.15739 0.62586 0.0
C1969 C 0.452 0.1578 0.6263 0.0
C1970 C 0.54855 0.15964 0.63595 0.0
C1971 C 0.55965 0.17762 0.62572 0.0
C1972 C 0.52523 0.15925 0.63723 0.0
C1973 C 0.51249 0.17688 0.62844 0.0
C1974 C 0.52361 0.19472 0.61805 0.0
C1975 C 0.54685 0.19508 0.61669 0.0
H1976 H 0.86594 0.55462 0.61978 0.0
H1977 H 0.7947 0.55512 0.62931 0.0
H1978 H 0.86578 0.51386 0.6205 0.0
H1979 H 0.79451 0.5148 0.63189 0.0
H1980 H 0.79457 0.44272 0.61351 0.0
H1981 H 0.79637 0.48302 0.61182 0.0
H1982 H 0.86264 0.48117 0.64041 0.0
H1983 H 0.86125 0.44042 0.64032 0.0
C1984 C 0.8503 0.54594 0.62228 0.0
C1985 C 0.8303 0.55794 0.62415 0.0
C1986 C 0.85017 0.52256 0.6229 0.0
C1987 C 0.83008 0.5107 0.62603 0.0
C1988 C 0.81024 0.52301 0.62865 0.0
C1989 C 0.81032 0.54624 0.62736 0.0
C1990 C 0.8095 0.45096 0.61947 0.0
C1991 C 0.82771 0.43848 0.62718 0.0
C1992 C 0.81053 0.47419 0.61869 0.0
C1993 C 0.82955 0.48572 0.62628 0.0
C1994 C 0.8478 0.47309 0.6341 0.0
C1995 C 0.84698 0.4497 0.63426 0.0
H1996 H 0.20987 0.55743 0.64196 0.0
H1997 H 0.14266 0.55965 0.616 0.0
H1998 H 0.20856 0.51698 0.6421 0.0
H1999 H 0.14151 0.51878 0.61596 0.0
H2000 H 0.14389 0.44401 0.63906 0.0
H2001 H 0.14234 0.48482 0.64093 0.0
H2002 H 0.20846 0.48852 0.61274 0.0
H2003 H 0.21017 0.44814 0.61105 0.0
C2004 C 0.19476 0.54932 0.6363 0.0
C2005 C 0.17646 0.56187 0.6287 0.0
C2006 C 0.19406 0.52606 0.63631 0.0
C2007 C 0.17506 0.51465 0.62875 0.0
C2008 C 0.15638 0.52711 0.62194 0.0
C2009 C 0.15709 0.55051 0.62187 0.0
C2010 C 0.15807 0.45356 0.63324 0.0
C2011 C 0.17718 0.44273 0.62496 0.0
C2012 C 0.15713 0.47692 0.63423 0.0
C2013 C 0.17535 0.48989 0.62716 0.0
C2014 C 0.19429 0.47903 0.61868 0.0
C2015 C 0.19519 0.45581 0.61759 0.0
H2016 H 0.13256 0.20687 0.27544 0.0
H2017 H 0.09735 0.15749 0.23644 0.0
H2018 H 0.12404 0.23493 0.24794 0.0
H2019 H 0.08815 0.18612 0.20882 0.0
H2020 H 0.11256 0.23577 0.15251 0.0
H2021 H 0.10808 0.20677 0.18082 0.0
H2022 H 0.09704 0.25763 0.2308 0.0
H2023 H 0.10282 0.28642 0.20257 0.0
C2024 C 0.12258 0.20205 0.26118 0.0
C2025 C 0.11582 0.17983 0.2581 0.0
C2026 C 0.11747 0.21829 0.24541 0.0
C2027 C 0.10529 0.21288 0.22612 0.0
C2028 C 0.09774 0.19082 0.22338 0.0
C2029 C 0.10295 0.17444 0.23923 0.0
C2030 C 0.10843 0.24057 0.16945 0.0
C2031 C 0.108 0.26312 0.17555 0.0
C2032 C 0.10584 0.22402 0.18569 0.0
C2033 C 0.10263 0.22986 0.20821 0.0
C2034 C 0.10007 0.25254 0.21374 0.0
C2035 C 0.10311 0.26903 0.1976 0.0
H2036 H 0.71227 0.12562 0.21103 0.0
H2037 H 0.7661 0.11881 0.16372 0.0
H2038 H 0.73858 0.12172 0.24171 0.0
H2039 H 0.79264 0.11595 0.19434 0.0
H2040 H 0.83576 0.10013 0.25331 0.0
H2041 H 0.80719 0.0956 0.22475 0.0
H2042 H 0.76585 0.14389 0.25878 0.0
H2043 H 0.79391 0.14764 0.28769 0.0
C2044 C 0.72976 0.12324 0.20721 0.0
C2045 C 0.73718 0.12273 0.18499 0.0
C2046 C 0.74488 0.12113 0.2248 0.0
C2047 C 0.76784 0.11884 0.2206 0.0
C2048 C 0.7751 0.11743 0.19829 0.0
C2049 C 0.7599 0.11919 0.18068 0.0
C2050 C 0.82042 0.10955 0.25482 0.0
C2051 C 0.81719 0.12438 0.27269 0.0
C2052 C 0.80409 0.10706 0.23835 0.0
C2053 C 0.78424 0.11952 0.23926 0.0
C2054 C 0.78073 0.13375 0.25761 0.0
C2055 C 0.79693 0.13603 0.27418 0.0
H2056 H 0.86809 0.7961 0.28378 0.0
H2057 H 0.90959 0.84347 0.24886 0.0
H2058 H 0.87557 0.76832 0.25558 0.0
H2059 H 0.9176 0.81512 0.22033 0.0
H2060 H 0.88924 0.77055 0.16102 0.0
H2061 H 0.8954 0.79774 0.19066 0.0
H2062 H 0.90188 0.7441 0.2384 0.0
H2063 H 0.89483 0.71709 0.20894 0.0
C2064 C 0.87921 0.80042 0.2702 0.0
C2065 C 0.88802 0.82202 0.26833 0.0
C2066 C 0.88372 0.78437 0.2541 0.0
C2067 C 0.89719 0.78944 0.23562 0.0
C2068 C 0.90701 0.81076 0.23429 0.0
C2069 C 0.90257 0.82692 0.25065 0.0
C2070 C 0.89244 0.76457 0.17778 0.0
C2071 C 0.89101 0.74171 0.18279 0.0
C2072 C 0.89613 0.78016 0.19476 0.0
C2073 C 0.89871 0.77312 0.217 0.0
C2074 C 0.89937 0.75012 0.22154 0.0
C2075 C 0.89535 0.73461 0.20467 0.0
H2076 H 0.15918 0.9076 0.24824 0.0
H2077 H 0.20426 0.86197 0.281 0.0
H2078 H 0.18734 0.9143 0.21921 0.0
H2079 H 0.23173 0.86805 0.25223 0.0
H2080 H 0.28359 0.88607 0.20536 0.0
H2081 H 0.25739 0.89291 0.23561 0.0
H2082 H 0.20291 0.8927 0.1884 0.0
H2083 H 0.22937 0.88688 0.15799 0.0
C2084 C 0.17518 0.89932 0.24943 0.0
C2085 C 0.17945 0.88407 0.26671 0.0
C2086 C 0.19122 0.90301 0.23276 0.0
C2087 C 0.21181 0.89169 0.23333 0.0
C2088 C 0.21629 0.87736 0.25133 0.0
C2089 C 0.20038 0.87366 0.26776 0.0
C2090 C 0.26605 0.88789 0.20142 0.0
C2091 C 0.25845 0.88553 0.17941 0.0
C2092 C 0.25102 0.89176 0.21874 0.0
C2093 C 0.22797 0.89286 0.21452 0.0
C2094 C 0.22053 0.89205 0.19227 0.0
C2095 C 0.23567 0.88856 0.17484 0.0
H2096 H 0.1203 0.79511 0.71087 0.0
H2097 H 0.11567 0.84554 0.76211 0.0
H2098 H 0.11221 0.76638 0.73849 0.0
H2099 H 0.10864 0.81683 0.78989 0.0
H2100 H 0.09323 0.76133 0.83742 0.0
H2101 H 0.0868 0.78739 0.80639 0.0
H2102 H 0.13492 0.75129 0.76661 0.0
H2103 H 0.14064 0.72543 0.79688 0.0
C2104 C 0.11746 0.80005 0.72802 0.0
C2105 C 0.11908 0.82251 0.7344 0.0
C2106 C 0.11283 0.78361 0.74387 0.0
C2107 C 0.11016 0.78922 0.76653 0.0
C2108 C 0.1104 0.81186 0.77261 0.0
C2109 C 0.11467 0.82833 0.75669 0.0
C2110 C 0.10192 0.7588 0.82179 0.0
C2111 C 0.11771 0.74167 0.81964 0.0
C2112 C 0.0984 0.77375 0.8041 0.0
C2113 C 0.11047 0.77158 0.78401 0.0
C2114 C 0.12508 0.75345 0.78159 0.0
C2115 C 0.1286 0.73872 0.79913 0.0
H2116 H 0.2384 0.11389 0.8401 0.0
H2117 H 0.29014 0.12074 0.79046 0.0
H2118 H 0.21085 0.10867 0.81071 0.0
H2119 H 0.26274 0.11464 0.76107 0.0
H2120 H 0.20523 0.14389 0.71984 0.0
H2121 H 0.23461 0.13821 0.74677 0.0
H2122 H 0.19491 0.08789 0.7798 0.0
H2123 H 0.16479 0.09416 0.75268 0.0
C2124 C 0.24399 0.11377 0.82292 0.0
C2125 C 0.26641 0.11821 0.81759 0.0
C2126 C 0.22818 0.11059 0.80604 0.0
C2127 C 0.23447 0.11156 0.78346 0.0
C2128 C 0.2572 0.11433 0.77826 0.0
C2129 C 0.27294 0.11779 0.7951 0.0
C2130 C 0.20277 0.1314 0.73269 0.0
C2131 C 0.18254 0.1197 0.73432 0.0
C2132 C 0.21981 0.12794 0.74805 0.0
C2133 C 0.21722 0.11259 0.76556 0.0
C2134 C 0.19736 0.10002 0.76664 0.0
C2135 C 0.18018 0.10346 0.75105 0.0
H2136 H 0.88313 0.20741 0.70977 0.0
H2137 H 0.88176 0.15924 0.76328 0.0
H2138 H 0.88787 0.2374 0.73676 0.0
H2139 H 0.88561 0.18919 0.79041 0.0
H2140 H 0.90171 0.24607 0.83579 0.0
H2141 H 0.90712 0.21793 0.80694 0.0
H2142 H 0.86446 0.25549 0.76254 0.0
H2143 H 0.85983 0.28389 0.79093 0.0
C2144 C 0.88391 0.20325 0.72732 0.0
C2145 C 0.88176 0.18105 0.73445 0.0
C2146 C 0.88655 0.22043 0.74282 0.0
C2147 C 0.88677 0.21582 0.76583 0.0
C2148 C 0.88575 0.19342 0.77285 0.0
C2149 C 0.88343 0.17621 0.7573 0.0
C2150 C 0.89376 0.24844 0.81974 0.0
C2151 C 0.88014 0.26711 0.81576 0.0
C2152 C 0.89675 0.23224 0.80324 0.0
C2153 C 0.88606 0.23426 0.78244 0.0
C2154 C 0.87323 0.25344 0.7782 0.0
C2155 C 0.87041 0.26971 0.7946 0.0
H2156 H 0.71454 0.8873 0.79722 0.0
H2157 H 0.76575 0.89005 0.84755 0.0
H2158 H 0.74262 0.89093 0.76808 0.0
H2159 H 0.79426 0.89231 0.81846 0.0
H2160 H 0.84177 0.90163 0.76058 0.0
H2161 H 0.81283 0.90991 0.78804 0.0
H2162 H 0.76795 0.86509 0.7537 0.0
H2163 H 0.79632 0.85761 0.72606 0.0
C2164 C 0.73186 0.8892 0.80196 0.0
C2165 C 0.73811 0.88854 0.82446 0.0
C2166 C 0.748 0.89096 0.78532 0.0
C2167 C 0.77081 0.89134 0.79084 0.0
C2168 C 0.7769 0.89219 0.81354 0.0
C2169 C 0.76062 0.89092 0.83024 0.0
C2170 C 0.82562 0.89376 0.75882 0.0
C2171 C 0.82142 0.87886 0.74118 0.0
C2172 C 0.80905 0.89844 0.7746 0.0
C2173 C 0.78797 0.88825 0.77314 0.0
C2174 C 0.78375 0.8737 0.7552 0.0
C2175 C 0.80017 0.8692 0.73938 0.0
H2176 H 0.24471 0.09263 0.15512 0.0
H2177 H 0.28068 0.12558 0.20809 0.0
H2178 H 0.21413 0.0845 0.18113 0.0
H2179 H 0.2505 0.1176 0.23382 0.0
H2180 H 0.15619 0.11657 0.22617 0.0
H2181 H 0.18642 0.10987 0.19956 0.0
H2182 H 0.22917 0.08906 0.25375 0.0
H2183 H 0.19895 0.09623 0.28023 0.0
C2184 C 0.2463 0.09764 0.1724 0.0
C2185 C 0.26493 0.10991 0.17959 0.0
C2186 C 0.22879 0.09311 0.18724 0.0
C2187 C 0.22988 0.10043 0.20952 0.0
C2188 C 0.2492 0.11146 0.21688 0.0
C2189 C 0.26644 0.11622 0.20208 0.0
C2190 C 0.17183 0.1098 0.23216 0.0
C2191 C 0.17541 0.10677 0.25506 0.0
C2192 C 0.18912 0.10591 0.21698 0.0
C2193 C 0.21026 0.09913 0.22459 0.0
C2194 C 0.21315 0.09452 0.24742 0.0
C2195 C 0.1959 0.09846 0.26255 0.0
H2196 H 0.86688 0.27861 0.2106 0.0
H2197 H 0.90445 0.23975 0.16296 0.0
H2198 H 0.87414 0.25095 0.23905 0.0
H2199 H 0.91257 0.21225 0.1919 0.0
H2200 H 0.88997 0.15499 0.24033 0.0
H2201 H 0.89355 0.18375 0.21165 0.0
H2202 H 0.8995 0.23397 0.26313 0.0
H2203 H 0.89455 0.20523 0.29151 0.0
C2204 C 0.87708 0.26435 0.20628 0.0
C2205 C 0.88485 0.26131 0.18439 0.0
C2206 C 0.88146 0.24849 0.22274 0.0
C2207 C 0.894 0.22924 0.21789 0.0
C2208 C 0.90259 0.22666 0.19619 0.0
C2209 C 0.89802 0.24249 0.17961 0.0
C2210 C 0.89275 0.17212 0.24537 0.0
C2211 C 0.89204 0.17804 0.26797 0.0
C2212 C 0.8948 0.18865 0.22898 0.0
C2213 C 0.89638 0.21133 0.23501 0.0
C2214 C 0.89766 0.21681 0.25781 0.0
C2215 C 0.89515 0.20037 0.2741 0.0
H2216 H 0.71665 0.85204 0.21005 0.0
H2217 H 0.75145 0.89977 0.16876 0.0
H2218 H 0.7441 0.85716 0.23929 0.0
H2219 H 0.77855 0.90567 0.19852 0.0
H2220 H 0.83813 0.88443 0.24259 0.0
H2221 H 0.80869 0.88645 0.21485 0.0
H2222 H 0.75924 0.88039 0.26698 0.0
H2223 H 0.78885 0.87734 0.29465 0.0
C2224 C 0.72997 0.86394 0.20735 0.0
C2225 C 0.732 0.8753 0.18694 0.0
C2226 C 0.74567 0.86704 0.22426 0.0
C2227 C 0.76367 0.8818 0.22133 0.0
C2228 C 0.76517 0.89385 0.20123 0.0
C2229 C 0.74957 0.89055 0.18419 0.0
C2230 C 0.82097 0.88385 0.24818 0.0
C2231 C 0.81582 0.88042 0.27078 0.0
C2232 C 0.80402 0.88513 0.23224 0.0
C2233 C 0.7815 0.88332 0.23857 0.0
C2234 C 0.77638 0.88127 0.2614 0.0
C2235 C 0.79335 0.87967 0.2773 0.0
H2236 H 0.14452 0.71478 0.20993 0.0
H2237 H 0.09786 0.75104 0.16869 0.0
H2238 H 0.1395 0.74175 0.23957 0.0
H2239 H 0.09194 0.77763 0.1989 0.0
H2240 H 0.11498 0.83655 0.24268 0.0
H2241 H 0.11173 0.80712 0.21516 0.0
H2242 H 0.11723 0.75765 0.26741 0.0
H2243 H 0.12158 0.78732 0.29491 0.0
C2244 C 0.13282 0.72829 0.20735 0.0
C2245 C 0.12184 0.73094 0.1868 0.0
C2246 C 0.12977 0.74372 0.22449 0.0
C2247 C 0.1154 0.76205 0.22168 0.0
C2248 C 0.10351 0.76402 0.20152 0.0
C2249 C 0.1068 0.74872 0.18421 0.0
C2250 C 0.11519 0.8194 0.24837 0.0
C2251 C 0.11888 0.81426 0.27094 0.0
C2252 C 0.11316 0.80244 0.23255 0.0
C2253 C 0.11443 0.7799 0.23895 0.0
C2254 C 0.11672 0.7748 0.26177 0.0
C2255 C 0.11908 0.79179 0.27757 0.0
H2256 H 0.15912 0.89463 0.76373 0.0
H2257 H 0.20755 0.89237 0.7107 0.0
H2258 H 0.18914 0.8976 0.79116 0.0
H2259 H 0.23764 0.89659 0.73776 0.0
H2260 H 0.28149 0.86367 0.79092 0.0
H2261 H 0.25336 0.87118 0.76293 0.0
H2262 H 0.21976 0.91586 0.80847 0.0
H2263 H 0.24764 0.90759 0.83695 0.0
C2264 C 0.1762 0.89579 0.75797 0.0
C2265 C 0.18119 0.89336 0.73527 0.0
C2266 C 0.19344 0.89747 0.77362 0.0
C2267 C 0.21591 0.89692 0.76674 0.0
C2268 C 0.22061 0.89644 0.74374 0.0
C2269 C 0.20342 0.89435 0.7282 0.0
C2270 C 0.26825 0.87527 0.79495 0.0
C2271 C 0.2667 0.88482 0.81629 0.0
C2272 C 0.25215 0.87978 0.77877 0.0
C2273 C 0.23419 0.89419 0.78336 0.0
C2274 C 0.23314 0.90445 0.80444 0.0
C2275 C 0.24919 0.89976 0.82074 0.0
H2276 H 0.13586 0.28528 0.79411 0.0
H2277 H 0.09165 0.2479 0.83691 0.0
H2278 H 0.13004 0.25884 0.76438 0.0
H2279 H 0.08505 0.22127 0.80644 0.0
H2280 H 0.11397 0.1637 0.76176 0.0
H2281 H 0.107 0.19252 0.78938 0.0
H2282 H 0.10723 0.24239 0.73727 0.0
H2283 H 0.1153 0.21356 0.70974 0.0
C2284 C 0.12447 0.27155 0.79699 0.0
C2285 C 0.11454 0.26841 0.81798 0.0
C2286 C 0.12088 0.25646 0.77977 0.0
C2287 C 0.10715 0.23775 0.78294 0.0
C2288 C 0.09599 0.23534 0.80353 0.0
C2289 C 0.09959 0.25064 0.82092 0.0
C2290 C 0.11225 0.18078 0.75614 0.0
C2291 C 0.11572 0.18643 0.73363 0.0
C2292 C 0.10801 0.19733 0.772 0.0
C2293 C 0.10687 0.21988 0.76567 0.0
C2294 C 0.10858 0.22526 0.74285 0.0
C2295 C 0.11317 0.20875 0.72704 0.0
H2296 H 0.72593 0.13969 0.79542 0.0
H2297 H 0.76125 0.09723 0.84177 0.0
H2298 H 0.75302 0.13112 0.76677 0.0
H2299 H 0.78814 0.08794 0.81265 0.0
H2300 H 0.84695 0.10855 0.76485 0.0
H2301 H 0.81811 0.10595 0.79353 0.0
H2302 H 0.76753 0.10431 0.7421 0.0
H2303 H 0.79643 0.10815 0.71373 0.0
C2304 C 0.7393 0.12822 0.79941 0.0
C2305 C 0.74154 0.11936 0.82098 0.0
C2306 C 0.75478 0.12308 0.78285 0.0
C2307 C 0.77281 0.10874 0.78732 0.0
C2308 C 0.77463 0.09924 0.8087 0.0
C2309 C 0.75918 0.10453 0.82537 0.0
C2310 C 0.82969 0.10685 0.75981 0.0
C2311 C 0.82374 0.10849 0.73727 0.0
C2312 C 0.81313 0.10538 0.77618 0.0
C2313 C 0.79042 0.10537 0.77016 0.0
C2314 C 0.78478 0.1049 0.74737 0.0
C2315 C 0.80129 0.10679 0.7311 0.0
H2316 H 0.87906 0.72127 0.79388 0.0
H2317 H 0.91277 0.75826 0.84565 0.0
H2318 H 0.88728 0.75051 0.76729 0.0
H2319 H 0.92138 0.7879 0.81864 0.0
H2320 H 0.89103 0.84546 0.7722 0.0
H2321 H 0.89805 0.81597 0.79959 0.0
H2322 H 0.91452 0.77056 0.74607 0.0
H2323 H 0.90661 0.79988 0.71888 0.0
C2324 C 0.88868 0.73553 0.79945 0.0
C2325 C 0.89507 0.7376 0.82188 0.0
C2326 C 0.89361 0.75226 0.78412 0.0
C2327 C 0.905 0.77163 0.79078 0.0
C2328 C 0.91246 0.77323 0.81302 0.0
C2329 C 0.90768 0.75624 0.82843 0.0
C2330 C 0.89694 0.82937 0.76648 0.0
C2331 C 0.89838 0.82479 0.74359 0.0
C2332 C 0.901 0.81248 0.78212 0.0
C2333 C 0.90653 0.79078 0.77501 0.0
C2334 C 0.9099 0.78695 0.75209 0.0
C2335 C 0.90558 0.80374 0.73651 0.0
H2336 H 0.24961 0.16641 0.10135 0.0
H2337 H 0.28475 0.20797 0.1486 0.0
H2338 H 0.22184 0.19569 0.09632 0.0
H2339 H 0.25663 0.23668 0.14441 0.0
H2340 H 0.21029 0.29126 0.12576 0.0
H2341 H 0.24037 0.26422 0.12205 0.0
H2342 H 0.19182 0.21119 0.11623 0.0
H2343 H 0.16187 0.23839 0.11886 0.0
C2344 C 0.25143 0.18181 0.11062 0.0
C2345 C 0.26929 0.18478 0.1255 0.0
C2346 C 0.23544 0.19856 0.10784 0.0
C2347 C 0.23682 0.21855 0.12008 0.0
C2348 C 0.25513 0.22172 0.13441 0.0
C2349 C 0.27123 0.20513 0.13696 0.0
C2350 C 0.2061 0.27384 0.12338 0.0
C2351 C 0.18375 0.2669 0.12279 0.0
C2352 C 0.22333 0.2583 0.12139 0.0
C2353 C 0.2186 0.23541 0.11915 0.0
C2354 C 0.19618 0.22865 0.11766 0.0
C2355 C 0.17895 0.24425 0.11929 0.0
H2356 H 0.16137 0.76301 0.90384 0.0
H2357 H 0.21322 0.724 0.87248 0.0
H2358 H 0.18836 0.79222 0.91221 0.0
H2359 H 0.23998 0.75336 0.88032 0.0
H2360 H 0.28773 0.80454 0.90078 0.0
H2361 H 0.26087 0.77451 0.907 0.0
H2362 H 0.20726 0.81943 0.88938 0.0
H2363 H 0.23427 0.84943 0.88392 0.0
C2364 C 0.17856 0.76055 0.89892 0.0
C2365 C 0.18506 0.74132 0.88715 0.0
C2366 C 0.19401 0.77734 0.90367 0.0
C2367 C 0.21629 0.77527 0.89677 0.0
C2368 C 0.22303 0.75545 0.88614 0.0
C2369 C 0.20761 0.73864 0.88145 0.0
C2370 C 0.27011 0.80807 0.89914 0.0
C2371 C 0.26289 0.82915 0.89214 0.0
C2372 C 0.25475 0.79088 0.90242 0.0
C2373 C 0.23193 0.79445 0.89834 0.0
C2374 C 0.22465 0.81612 0.89291 0.0
C2375 C 0.24005 0.83335 0.8898 0.0
H2376 H 0.23508 0.15958 0.8887 0.0
H2377 H 0.28909 0.20689 0.88609 0.0
H2378 H 0.20835 0.19018 0.89179 0.0
H2379 H 0.26277 0.23757 0.89055 0.0
H2380 H 0.21009 0.28394 0.86058 0.0
H2381 H 0.23764 0.25505 0.86681 0.0
H2382 H 0.19177 0.22044 0.91042 0.0
H2383 H 0.16374 0.24902 0.90326 0.0
C2384 C 0.2412 0.17655 0.88971 0.0
C2385 C 0.26398 0.18104 0.88724 0.0
C2386 C 0.22595 0.19414 0.89149 0.0
C2387 C 0.2333 0.2165 0.89106 0.0
C2388 C 0.25639 0.22068 0.89031 0.0
C2389 C 0.27152 0.20314 0.88807 0.0
C2390 C 0.20594 0.27032 0.87171 0.0
C2391 C 0.18462 0.26868 0.88122 0.0
C2392 C 0.22186 0.25374 0.87546 0.0
C2393 C 0.21702 0.23523 0.88912 0.0
C2394 C 0.196 0.23417 0.89947 0.0
C2395 C 0.17995 0.25064 0.89547 0.0
H2396 H 0.77368 0.15391 0.89272 0.0
H2397 H 0.72031 0.20089 0.90295 0.0
H2398 H 0.80104 0.18377 0.89823 0.0
H2399 H 0.74742 0.23061 0.90925 0.0
H2400 H 0.79603 0.27614 0.87028 0.0
H2401 H 0.76946 0.24727 0.87974 0.0
H2402 H 0.81914 0.21438 0.9203 0.0
H2403 H 0.84615 0.24367 0.91055 0.0
C2404 C 0.76791 0.17044 0.8972 0.0
C2405 C 0.74505 0.17529 0.89746 0.0
C2406 C 0.78352 0.18753 0.90037 0.0
C2407 C 0.77637 0.20964 0.9038 0.0
C2408 C 0.75343 0.21385 0.90624 0.0
C2409 C 0.73791 0.19686 0.90282 0.0
C2410 C 0.80126 0.26293 0.88146 0.0
C2411 C 0.82322 0.26201 0.88947 0.0
C2412 C 0.78593 0.24647 0.88711 0.0
C2413 C 0.79214 0.22853 0.90086 0.0
C2414 C 0.81391 0.22798 0.90962 0.0
C2415 C 0.8293 0.24475 0.90413 0.0
H2416 H 0.7958 0.71872 0.85447 0.0
H2417 H 0.83824 0.75449 0.90046 0.0
H2418 H 0.76659 0.74606 0.86003 0.0
H2419 H 0.8085 0.78149 0.90685 0.0
H2420 H 0.71162 0.79061 0.88083 0.0
H2421 H 0.73954 0.76127 0.88383 0.0
H2422 H 0.79139 0.81126 0.88772 0.0
H2423 H 0.76339 0.84046 0.88581 0.0
C2424 C 0.79877 0.73224 0.86609 0.0
C2425 C 0.81947 0.73457 0.87681 0.0
C2426 C 0.78188 0.74787 0.86945 0.0
C2427 C 0.78512 0.7661 0.88388 0.0
C2428 C 0.80554 0.76792 0.8953 0.0
C2429 C 0.82257 0.75239 0.89172 0.0
C2430 C 0.72896 0.79529 0.88273 0.0
C2431 C 0.73532 0.81783 0.88288 0.0
C2432 C 0.74501 0.77847 0.88428 0.0
C2433 C 0.76782 0.78382 0.88565 0.0
C2434 C 0.77402 0.80643 0.88693 0.0
C2435 C 0.75794 0.82323 0.88571 0.0
H2436 H 0.84052 0.76075 0.08992 0.0
H2437 H 0.80016 0.73123 0.14178 0.0
H2438 H 0.80998 0.78687 0.08132 0.0
H2439 H 0.77036 0.75696 0.13359 0.0
H2440 H 0.71372 0.79436 0.11245 0.0
H2441 H 0.74276 0.76662 0.10624 0.0
H2442 H 0.79172 0.81922 0.10075 0.0
H2443 H 0.76218 0.84706 0.10591 0.0
C2444 C 0.8251 0.75967 0.09925 0.0
C2445 C 0.82279 0.74413 0.11667 0.0
C2446 C 0.8077 0.77463 0.09441 0.0
C2447 C 0.78766 0.77391 0.10665 0.0
C2448 C 0.78531 0.75779 0.1235 0.0
C2449 C 0.80257 0.74316 0.12841 0.0
C2450 C 0.73058 0.79995 0.10912 0.0
C2451 C 0.73586 0.8227 0.10981 0.0
C2452 C 0.74723 0.78412 0.10571 0.0
C2453 C 0.76965 0.79069 0.1036 0.0
C2454 C 0.77463 0.81361 0.10228 0.0
C2455 C 0.75777 0.82955 0.10527 0.0
H2456 H 0.27931 0.80158 0.0979 0.0
H2457 H 0.22551 0.8468 0.11273 0.0
H2458 H 0.25253 0.77148 0.09168 0.0
H2459 H 0.19853 0.81663 0.10706 0.0
H2460 H 0.15401 0.75709 0.0924 0.0
H2461 H 0.18048 0.78705 0.08337 0.0
H2462 H 0.23145 0.75294 0.1212 0.0
H2463 H 0.20534 0.72337 0.13002 0.0
C2464 C 0.26165 0.80515 0.0991 0.0
C2465 C 0.2543 0.82632 0.10565 0.0
C2466 C 0.24634 0.78797 0.09569 0.0
C2467 C 0.22344 0.7916 0.09919 0.0
C2468 C 0.21602 0.81334 0.10404 0.0
C2469 C 0.2314 0.83059 0.10732 0.0
C2470 C 0.17101 0.75588 0.09835 0.0
C2471 C 0.17759 0.73807 0.1121 0.0
C2472 C 0.1861 0.77303 0.09327 0.0
C2473 C 0.20805 0.77235 0.10154 0.0
C2474 C 0.21479 0.75387 0.11428 0.0
C2475 C 0.19975 0.737 0.11954 0.0
H2476 H 0.76744 0.15224 0.10794 0.0
H2477 H 0.71617 0.20255 0.10593 0.0
H2478 H 0.79589 0.18095 0.10189 0.0
H2479 H 0.74422 0.23111 0.09868 0.0
H2480 H 0.79764 0.27284 0.13404 0.0
H2481 H 0.76918 0.24566 0.12573 0.0
H2482 H 0.81441 0.21142 0.08124 0.0
H2483 H 0.84353 0.23899 0.09011 0.0
C2484 C 0.76226 0.16933 0.1052 0.0
C2485 C 0.73979 0.17537 0.10752 0.0
C2486 C 0.7785 0.18578 0.10169 0.0
C2487 C 0.77238 0.20842 0.10027 0.0
C2488 C 0.74956 0.21392 0.10027 0.0
C2489 C 0.73347 0.19761 0.10424 0.0
C2490 C 0.80152 0.25968 0.12227 0.0
C2491 C 0.8229 0.25787 0.11295 0.0
C2492 C 0.78505 0.24418 0.11725 0.0
C2493 C 0.78941 0.22632 0.10271 0.0
C2494 C 0.81057 0.22494 0.09259 0.0
C2495 C 0.82717 0.24074 0.09754 0.0
H2496 H 0.6218 0.77632 0.70832 0.0
H2497 H 0.59565 0.7375 0.65362 0.0
H2498 H 0.61364 0.74606 0.73398 0.0
H2499 H 0.58745 0.70677 0.67953 0.0
H2500 H 0.62192 0.65242 0.72764 0.0
H2501 H 0.61403 0.68156 0.70014 0.0
H2502 H 0.58531 0.72247 0.75205 0.0
H2503 H 0.59357 0.69332 0.77947 0.0
C2504 C 0.61382 0.76141 0.70191 0.0
C2505 C 0.60952 0.75912 0.67902 0.0
C2506 C 0.60896 0.74412 0.71664 0.0
C2507 C 0.59993 0.72397 0.70879 0.0
C2508 C 0.59448 0.72209 0.68601 0.0
C2509 C 0.59904 0.73967 0.67124 0.0
C2510 C 0.61315 0.66732 0.73288 0.0
C2511 C 0.60818 0.67075 0.75546 0.0
C2512 C 0.60857 0.68398 0.71719 0.0
C2513 C 0.5992 0.70439 0.72397 0.0
C2514 C 0.5927 0.70699 0.74638 0.0
C2515 C 0.59727 0.69033 0.76203 0.0
H2516 H 0.29707 0.61629 0.78728 0.0
H2517 H 0.34485 0.61566 0.73364 0.0
H2518 H 0.26673 0.61174 0.76054 0.0
H2519 H 0.31459 0.61255 0.70653 0.0
H2520 H 0.25634 0.60085 0.66102 0.0
H2521 H 0.28494 0.59381 0.68913 0.0
H2522 H 0.24898 0.63546 0.73576 0.0
H2523 H 0.22013 0.6415 0.70821 0.0
C2524 C 0.301 0.61476 0.7697 0.0
C2525 C 0.32312 0.61613 0.76238 0.0
C2526 C 0.28365 0.61246 0.75432 0.0
C2527 C 0.28806 0.61224 0.73124 0.0
C2528 C 0.31046 0.61242 0.7241 0.0
C2529 C 0.32785 0.61422 0.73958 0.0
C2530 C 0.25446 0.60824 0.6774 0.0
C2531 C 0.23603 0.62189 0.68229 0.0
C2532 C 0.27092 0.60431 0.6935 0.0
C2533 C 0.26946 0.61412 0.71479 0.0
C2534 C 0.25062 0.62721 0.71978 0.0
C2535 C 0.23407 0.63088 0.70384 0.0
H2536 H 0.37933 0.3415 0.738 0.0
H2537 H 0.37566 0.29361 0.79169 0.0
H2538 H 0.38299 0.31127 0.7112 0.0
H2539 H 0.38051 0.26331 0.76507 0.0
H2540 H 0.39904 0.25361 0.66675 0.0
H2541 H 0.40373 0.28195 0.69557 0.0
H2542 H 0.35851 0.24554 0.73839 0.0
H2543 H 0.35472 0.21694 0.71016 0.0
C2544 C 0.37984 0.3245 0.74411 0.0
C2545 C 0.3769 0.31987 0.76688 0.0
C2546 C 0.38208 0.30711 0.72875 0.0
C2547 C 0.38181 0.28474 0.73587 0.0
C2548 C 0.3802 0.28027 0.75887 0.0
C2549 C 0.37755 0.29763 0.77417 0.0
C2550 C 0.39037 0.25156 0.68246 0.0
C2551 C 0.37637 0.23311 0.68608 0.0
C2552 C 0.39294 0.26787 0.69895 0.0
C2553 C 0.38136 0.26622 0.71931 0.0
C2554 C 0.36801 0.24731 0.72314 0.0
C2555 C 0.36568 0.2309 0.70681 0.0
H2556 H 0.78487 0.35493 0.70737 0.0
H2557 H 0.74912 0.39783 0.6618 0.0
H2558 H 0.75567 0.35962 0.73487 0.0
H2559 H 0.72017 0.40338 0.68983 0.0
H2560 H 0.70752 0.37942 0.787 0.0
H2561 H 0.73796 0.383 0.7604 0.0
H2562 H 0.69035 0.38365 0.70619 0.0
H2563 H 0.65991 0.38123 0.73303 0.0
C2564 C 0.77097 0.36574 0.70336 0.0
C2565 C 0.76926 0.37583 0.68227 0.0
C2566 C 0.75421 0.36859 0.71926 0.0
C2567 C 0.73541 0.38187 0.71465 0.0
C2568 C 0.73416 0.3927 0.69386 0.0
C2569 C 0.75084 0.38964 0.67782 0.0
C2570 C 0.70359 0.38069 0.7694 0.0
C2571 C 0.68138 0.37985 0.76206 0.0
C2572 C 0.72104 0.38257 0.75411 0.0
C2573 C 0.71673 0.3832 0.73104 0.0
C2574 C 0.69438 0.38342 0.72379 0.0
C2575 C 0.67688 0.38194 0.73917 0.0
H2576 H 0.59031 0.25341 0.34304 0.0
H2577 H 0.63704 0.22434 0.29658 0.0
H2578 H 0.58039 0.28172 0.31507 0.0
H2579 H 0.62748 0.25231 0.26913 0.0
H2580 H 0.60415 0.29555 0.21746 0.0
H2581 H 0.59856 0.26576 0.24461 0.0
H2582 H 0.60027 0.31419 0.29797 0.0
H2583 H 0.60493 0.3441 0.27047 0.0
C2584 C 0.5982 0.25288 0.3268 0.0
C2585 C 0.61461 0.23681 0.32206 0.0
C2586 C 0.59259 0.2691 0.31085 0.0
C2587 C 0.60304 0.26922 0.28982 0.0
C2588 C 0.61876 0.25253 0.28495 0.0
C2589 C 0.62446 0.2366 0.30083 0.0
C2590 C 0.60236 0.29984 0.23494 0.0
C2591 C 0.60491 0.32196 0.242 0.0
C2592 C 0.59938 0.28282 0.2505 0.0
C2593 C 0.59951 0.28755 0.27349 0.0
C2594 C 0.60001 0.30999 0.2804 0.0
C2595 C 0.60266 0.32713 0.26471 0.0
H2596 H 0.65957 0.59806 0.25901 0.0
H2597 H 0.70815 0.63677 0.22244 0.0
H2598 H 0.68759 0.58942 0.28718 0.0
H2599 H 0.73581 0.62888 0.25087 0.0
H2600 H 0.78639 0.60721 0.29826 0.0
H2601 H 0.75917 0.60255 0.26837 0.0
H2602 H 0.70584 0.60911 0.3165 0.0
H2603 H 0.73335 0.61258 0.34637 0.0
C2604 C 0.67625 0.60466 0.25694 0.0
C2605 C 0.68156 0.61835 0.23863 0.0
C2606 C 0.69229 0.59976 0.27313 0.0
C2607 C 0.71396 0.60851 0.27142 0.0
C2608 C 0.71943 0.6215 0.25262 0.0
C2609 C 0.70347 0.62624 0.23636 0.0
C2610 C 0.76883 0.60673 0.30241 0.0
C2611 C 0.76181 0.61 0.32444 0.0
C2612 C 0.75323 0.60439 0.28532 0.0
C2613 C 0.73029 0.60592 0.28992 0.0
C2614 C 0.72334 0.60764 0.31232 0.0
C2615 C 0.73902 0.60961 0.32947 0.0
H2616 H 0.39586 0.78859 0.29662 0.0
H2617 H 0.3868 0.73644 0.34524 0.0
H2618 H 0.40145 0.76072 0.26747 0.0
H2619 H 0.39109 0.70834 0.31606 0.0
H2620 H 0.40237 0.66045 0.26023 0.0
H2621 H 0.41113 0.68876 0.28813 0.0
H2622 H 0.37576 0.73791 0.24892 0.0
H2623 H 0.36787 0.71002 0.22085 0.0
C2624 C 0.39567 0.77106 0.30106 0.0
C2625 C 0.39111 0.76448 0.323 0.0
C2626 C 0.39856 0.75509 0.28439 0.0
C2627 C 0.39625 0.73224 0.28927 0.0
C2628 C 0.3932 0.72573 0.31166 0.0
C2629 C 0.39073 0.74176 0.32842 0.0
C2630 C 0.39676 0.6774 0.25746 0.0
C2631 C 0.38415 0.6829 0.23846 0.0
C2632 C 0.40172 0.69361 0.2735 0.0
C2633 C 0.39406 0.71564 0.27093 0.0
C2634 C 0.3823 0.72126 0.2514 0.0
C2635 C 0.37754 0.70515 0.23532 0.0
H2636 H 0.25811 0.40572 0.33866 0.0
H2637 H 0.22282 0.36475 0.29097 0.0
H2638 H 0.28615 0.41431 0.31047 0.0
H2639 H 0.25108 0.3726 0.26322 0.0
H2640 H 0.2982 0.3929 0.21225 0.0
H2641 H 0.26813 0.39839 0.2391 0.0
H2642 H 0.31599 0.39476 0.293 0.0
H2643 H 0.34604 0.39051 0.26584 0.0
C2644 C 0.25626 0.39865 0.32213 0.0
C2645 C 0.23836 0.38433 0.31714 0.0
C2646 C 0.27238 0.40352 0.306 0.0
C2647 C 0.271 0.3941 0.28457 0.0
C2648 C 0.25256 0.38052 0.27939 0.0
C2649 C 0.2364 0.3758 0.29542 0.0
C2650 C 0.30224 0.39418 0.22983 0.0
C2651 C 0.32425 0.39145 0.23715 0.0
C2652 C 0.28506 0.39702 0.24523 0.0
C2653 C 0.28954 0.3965 0.26827 0.0
C2654 C 0.31189 0.39542 0.27543 0.0
C2655 C 0.32915 0.39299 0.25993 0.0
H2656 H 0.66297 0.59493 0.7408 0.0
H2657 H 0.71053 0.63488 0.77741 0.0
H2658 H 0.69178 0.58571 0.71352 0.0
H2659 H 0.73884 0.6264 0.74999 0.0
H2660 H 0.79108 0.60416 0.7055 0.0
H2661 H 0.76278 0.5996 0.73436 0.0
H2662 H 0.71124 0.60435 0.68409 0.0
H2663 H 0.73984 0.60764 0.65523 0.0
C2664 C 0.67958 0.60165 0.7431 0.0
C2665 C 0.68438 0.61582 0.76119 0.0
C2666 C 0.69606 0.59642 0.72742 0.0
C2667 C 0.71768 0.60528 0.72949 0.0
C2668 C 0.72256 0.61886 0.748 0.0
C2669 C 0.70619 0.62396 0.76368 0.0
C2670 C 0.77369 0.60332 0.70066 0.0
C2671 C 0.76749 0.60611 0.67831 0.0
C2672 C 0.75746 0.60102 0.71715 0.0
C2673 C 0.73468 0.60218 0.71165 0.0
C2674 C 0.72858 0.60324 0.68897 0.0
C2675 C 0.74491 0.6051 0.67239 0.0
H2676 H 0.38922 0.71071 0.78656 0.0
H2677 H 0.38915 0.66059 0.73483 0.0
H2678 H 0.39685 0.73935 0.75882 0.0
H2679 H 0.39563 0.68934 0.70689 0.0
H2680 H 0.41006 0.74544 0.65926 0.0
H2681 H 0.41737 0.71855 0.68938 0.0
H2682 H 0.37252 0.75514 0.7324 0.0
H2683 H 0.36591 0.78178 0.70301 0.0
C2684 C 0.39101 0.7058 0.76928 0.0
C2685 C 0.38817 0.68348 0.76284 0.0
C2686 C 0.39534 0.7222 0.75334 0.0
C2687 C 0.39641 0.71674 0.73053 0.0
C2688 C 0.39507 0.69417 0.72428 0.0
C2689 C 0.39114 0.67769 0.7403 0.0
C2690 C 0.40226 0.74787 0.67537 0.0
C2691 C 0.38715 0.76543 0.67872 0.0
C2692 C 0.4063 0.73246 0.69255 0.0
C2693 C 0.39546 0.73459 0.71332 0.0
C2694 C 0.38146 0.75303 0.71685 0.0
C2695 C 0.37741 0.76821 0.69983 0.0
H2696 H 0.34504 0.39821 0.73697 0.0
H2697 H 0.29423 0.3935 0.78759 0.0
H2698 H 0.31617 0.40303 0.70837 0.0
H2699 H 0.26546 0.39938 0.75946 0.0
H2700 H 0.22669 0.36427 0.70396 0.0
H2701 H 0.25363 0.37233 0.73276 0.0
H2702 H 0.28395 0.42248 0.69078 0.0
H2703 H 0.25668 0.41396 0.66128 0.0
C2704 C 0.32773 0.39919 0.74203 0.0
C2705 C 0.32171 0.39537 0.76433 0.0
C2706 C 0.31119 0.40197 0.7257 0.0
C2707 C 0.28847 0.40111 0.73157 0.0
C2708 C 0.28276 0.39956 0.75429 0.0
C2709 C 0.2992 0.39638 0.77044 0.0
C2710 C 0.23894 0.37719 0.70084 0.0
C2711 C 0.23967 0.38832 0.68024 0.0
C2712 C 0.2543 0.38202 0.71752 0.0
C2713 C 0.27093 0.39819 0.71421 0.0
C2714 C 0.27137 0.40989 0.69382 0.0
C2715 C 0.25573 0.40511 0.677 0.0
H2716 H 0.60923 0.34815 0.73094 0.0
H2717 H 0.59996 0.29977 0.78329 0.0
H2718 H 0.60304 0.31908 0.70288 0.0
H2719 H 0.59273 0.27087 0.75552 0.0
H2720 H 0.62948 0.22592 0.70513 0.0
H2721 H 0.62067 0.25401 0.73264 0.0
H2722 H 0.58107 0.28957 0.68399 0.0
H2723 H 0.59032 0.26105 0.65595 0.0
C2724 C 0.60488 0.33146 0.73636 0.0
C2725 C 0.60509 0.326 0.7591 0.0
C2726 C 0.60127 0.31483 0.72035 0.0
C2727 C 0.59777 0.29256 0.72696 0.0
C2728 C 0.59584 0.28775 0.74987 0.0
C2729 C 0.59981 0.30426 0.76578 0.0
C2730 C 0.61862 0.23955 0.70032 0.0
C2731 C 0.61082 0.24147 0.67834 0.0
C2732 C 0.61333 0.25558 0.71621 0.0
C2733 C 0.60009 0.27408 0.71058 0.0
C2734 C 0.59139 0.27555 0.68879 0.0
C2735 C 0.59656 0.25922 0.67281 0.0
H2736 H 0.6609 0.39976 0.26198 0.0
H2737 H 0.70664 0.35742 0.2258 0.0
H2738 H 0.69033 0.40853 0.2888 0.0
H2739 H 0.73551 0.36542 0.25277 0.0
H2740 H 0.78954 0.38892 0.29471 0.0
H2741 H 0.76042 0.39219 0.26653 0.0
H2742 H 0.7104 0.39104 0.31849 0.0
H2743 H 0.73987 0.38909 0.34664 0.0
C2744 C 0.67721 0.39234 0.25973 0.0
C2745 C 0.68137 0.3778 0.24179 0.0
C2746 C 0.69406 0.39732 0.27514 0.0
C2747 C 0.71539 0.3878 0.27296 0.0
C2748 C 0.71952 0.37354 0.25479 0.0
C2749 C 0.70281 0.36872 0.23937 0.0
C2750 C 0.77232 0.39021 0.30003 0.0
C2751 C 0.76681 0.38886 0.32269 0.0
C2752 C 0.7556 0.39177 0.28393 0.0
C2753 C 0.73299 0.39128 0.29016 0.0
C2754 C 0.7276 0.39157 0.31304 0.0
C2755 C 0.74443 0.39048 0.3292 0.0
H2756 H 0.60925 0.65697 0.2682 0.0
H2757 H 0.61067 0.70547 0.21517 0.0
H2758 H 0.60683 0.68698 0.29568 0.0
H2759 H 0.60695 0.73555 0.24229 0.0
H2760 H 0.63949 0.78025 0.29485 0.0
H2761 H 0.63211 0.75187 0.26704 0.0
H2762 H 0.58907 0.71733 0.31348 0.0
H2763 H 0.59729 0.74544 0.34174 0.0
C2764 C 0.60801 0.67406 0.26245 0.0
C2765 C 0.61004 0.67904 0.2397 0.0
C2766 C 0.60667 0.69132 0.27815 0.0
C2767 C 0.60712 0.71383 0.2713 0.0
C2768 C 0.60721 0.71852 0.24828 0.0
C2769 C 0.60899 0.70132 0.23269 0.0
C2770 C 0.62828 0.76674 0.29911 0.0
C2771 C 0.61919 0.76503 0.32063 0.0
C2772 C 0.62385 0.75047 0.28304 0.0
C2773 C 0.60993 0.73217 0.28791 0.0
C2774 C 0.60014 0.73095 0.3092 0.0
C2775 C 0.60477 0.74713 0.32539 0.0
H2776 H 0.29534 0.63679 0.22662 0.0
H2777 H 0.33867 0.58913 0.25886 0.0
H2778 H 0.26643 0.62907 0.25347 0.0
H2779 H 0.30903 0.58085 0.28603 0.0
H2780 H 0.26273 0.60665 0.34604 0.0
H2781 H 0.29123 0.60091 0.3173 0.0
H2782 H 0.24004 0.6027 0.26654 0.0
H2783 H 0.21202 0.60966 0.29516 0.0
C2784 C 0.29856 0.62436 0.23935 0.0
C2785 C 0.31938 0.61378 0.2408 0.0
C2786 C 0.28181 0.61969 0.25465 0.0
C2787 C 0.28529 0.60422 0.27192 0.0
C2788 C 0.30587 0.59292 0.27297 0.0
C2789 C 0.32276 0.59755 0.25739 0.0
C2790 C 0.25764 0.60514 0.32876 0.0
C2791 C 0.23537 0.6088 0.32263 0.0
C2792 C 0.2739 0.60179 0.3123 0.0
C2793 C 0.26798 0.60183 0.28956 0.0
C2794 C 0.24526 0.60319 0.28383 0.0
C2795 C 0.22918 0.60701 0.30017 0.0
H2796 H 0.39295 0.26694 0.3444 0.0
H2797 H 0.39246 0.21322 0.29668 0.0
H2798 H 0.39547 0.29401 0.31401 0.0
H2799 H 0.3962 0.23995 0.26621 0.0
H2800 H 0.36286 0.29183 0.22098 0.0
H2801 H 0.37061 0.26432 0.2496 0.0
H2802 H 0.41353 0.31138 0.28344 0.0
H2803 H 0.40501 0.3393 0.2551 0.0
C2804 C 0.39443 0.26096 0.3274 0.0
C2805 C 0.39266 0.23814 0.32273 0.0
C2806 C 0.39583 0.27642 0.30994 0.0
C2807 C 0.39563 0.26923 0.28753 0.0
C2808 C 0.39578 0.24616 0.28317 0.0
C2809 C 0.39399 0.2308 0.30058 0.0
C2810 C 0.37413 0.29628 0.23439 0.0
C2811 C 0.38309 0.31787 0.23586 0.0
C2812 C 0.37877 0.28039 0.25078 0.0
C2813 C 0.39274 0.28555 0.26896 0.0
C2814 C 0.40243 0.30689 0.26992 0.0
C2815 C 0.39761 0.32288 0.2536 0.0
H2816 H 0.66807 0.7449 0.60247 0.0
H2817 H 0.7088 0.78104 0.64969 0.0
H2818 H 0.69792 0.71766 0.59769 0.0
H2819 H 0.73799 0.75348 0.64581 0.0
H2820 H 0.74191 0.65864 0.62013 0.0
H2821 H 0.71413 0.688 0.61739 0.0
H2822 H 0.76602 0.73766 0.62408 0.0
H2823 H 0.79364 0.70812 0.62798 0.0
C2824 C 0.68339 0.74706 0.61179 0.0
C2825 C 0.68595 0.76507 0.62658 0.0
C2826 C 0.70048 0.73137 0.60917 0.0
C2827 C 0.72041 0.73318 0.62147 0.0
C2828 C 0.72313 0.75162 0.63573 0.0
C2829 C 0.70622 0.76741 0.63812 0.0
C2830 C 0.74741 0.67584 0.62076 0.0
C2831 C 0.76993 0.68107 0.62454 0.0
C2832 C 0.73147 0.69274 0.61904 0.0
C2833 C 0.7377 0.71532 0.62071 0.0
C2834 C 0.76046 0.7205 0.62328 0.0
C2835 C 0.77635 0.70358 0.62538 0.0
H2836 H 0.66486 0.26254 0.38348 0.0
H2837 H 0.71321 0.20929 0.3798 0.0
H2838 H 0.69482 0.28965 0.38656 0.0
H2839 H 0.74328 0.23631 0.38396 0.0
H2840 H 0.78853 0.29175 0.35675 0.0
H2841 H 0.7604 0.26311 0.36131 0.0
H2842 H 0.72426 0.30577 0.40685 0.0
H2843 H 0.75207 0.33495 0.40144 0.0
C2844 C 0.6819 0.25658 0.38388 0.0
C2845 C 0.68669 0.23382 0.38109 0.0
C2846 C 0.69914 0.27214 0.38578 0.0
C2847 C 0.72158 0.26527 0.38527 0.0
C2848 C 0.72625 0.24231 0.38384 0.0
C2849 C 0.70902 0.22678 0.3816 0.0
C2850 C 0.77472 0.29498 0.36794 0.0
C2851 C 0.77243 0.31577 0.37852 0.0
C2852 C 0.7586 0.27842 0.3707 0.0
C2853 C 0.73988 0.28208 0.38437 0.0
C2854 C 0.73817 0.30251 0.39583 0.0
C2855 C 0.7542 0.3192 0.39284 0.0
H2856 H 0.77988 0.70897 0.36449 0.0
H2857 H 0.74459 0.66098 0.40508 0.0
H2858 H 0.75156 0.73663 0.37243 0.0
H2859 H 0.71649 0.68909 0.41381 0.0
H2860 H 0.65657 0.73462 0.39225 0.0
H2861 H 0.68651 0.70715 0.39524 0.0
H2862 H 0.73487 0.76061 0.39837 0.0
H2863 H 0.70488 0.78777 0.39412 0.0
C2864 C 0.76627 0.70443 0.37547 0.0
C2865 C 0.76438 0.68266 0.38392 0.0
C2866 C 0.75006 0.72041 0.38023 0.0
C2867 C 0.73163 0.71517 0.39381 0.0
C2868 C 0.73025 0.69363 0.40303 0.0
C2869 C 0.74641 0.67755 0.39809 0.0
C2870 C 0.67357 0.74036 0.39434 0.0
C2871 C 0.67858 0.76314 0.39305 0.0
C2872 C 0.69077 0.72468 0.39603 0.0
C2873 C 0.71323 0.73162 0.39663 0.0
C2874 C 0.71787 0.75462 0.39733 0.0
C2875 C 0.70073 0.7702 0.39522 0.0
H2876 H 0.28981 0.79223 0.37521 0.0
H2877 H 0.33888 0.73993 0.3817 0.0
H2878 H 0.26008 0.76484 0.37928 0.0
H2879 H 0.30929 0.71238 0.38464 0.0
H2880 H 0.25205 0.66671 0.39976 0.0
H2881 H 0.27968 0.69621 0.40452 0.0
H2882 H 0.24375 0.73722 0.35729 0.0
H2883 H 0.21581 0.70834 0.3534 0.0
C2884 C 0.29422 0.77486 0.37758 0.0
C2885 C 0.31666 0.76821 0.37795 0.0
C2886 C 0.27719 0.75911 0.37977 0.0
C2887 C 0.28218 0.73626 0.38197 0.0
C2888 C 0.3047 0.72979 0.38325 0.0
C2889 C 0.32173 0.7456 0.38144 0.0
C2890 C 0.24995 0.68216 0.39063 0.0
C2891 C 0.23179 0.68508 0.37609 0.0
C2892 C 0.26587 0.69904 0.39324 0.0
C2893 C 0.26413 0.71914 0.38119 0.0
C2894 C 0.24556 0.72222 0.36717 0.0
C2895 C 0.22955 0.7055 0.36479 0.0
H2896 H 0.2709 0.34698 0.38468 0.0
H2897 H 0.21793 0.29984 0.39618 0.0
H2898 H 0.2984 0.31721 0.38886 0.0
H2899 H 0.24525 0.27009 0.40146 0.0
H2900 H 0.29445 0.22156 0.36816 0.0
H2901 H 0.26732 0.25062 0.37535 0.0
H2902 H 0.31749 0.28924 0.40985 0.0
H2903 H 0.34499 0.26034 0.40191 0.0
C2904 C 0.26529 0.33038 0.38911 0.0
C2905 C 0.24249 0.32555 0.39031 0.0
C2906 C 0.28098 0.31328 0.3915 0.0
C2907 C 0.27404 0.29113 0.39518 0.0
C2908 C 0.25117 0.28683 0.39815 0.0
C2909 C 0.23553 0.30385 0.39544 0.0
C2910 C 0.2997 0.23613 0.37747 0.0
C2911 C 0.32199 0.23874 0.38416 0.0
C2912 C 0.28404 0.25277 0.38182 0.0
C2913 C 0.29018 0.27238 0.39317 0.0
C2914 C 0.31226 0.27453 0.40077 0.0
C2915 C 0.328 0.25791 0.39629 0.0
H2916 H 0.33826 0.2543 0.59211 0.0
H2917 H 0.29241 0.21712 0.63334 0.0
H2918 H 0.30918 0.28235 0.58539 0.0
H2919 H 0.26404 0.24498 0.62748 0.0
H2920 H 0.26623 0.34082 0.61506 0.0
H2921 H 0.29275 0.31102 0.60774 0.0
H2922 H 0.2385 0.26359 0.6048 0.0
H2923 H 0.21214 0.29332 0.61333 0.0
C2924 C 0.32188 0.25191 0.59934 0.0
C2925 C 0.31768 0.23377 0.61354 0.0
C2926 C 0.30529 0.26803 0.59569 0.0
C2927 C 0.28427 0.26611 0.60608 0.0
C2928 C 0.27981 0.24704 0.61893 0.0
C2929 C 0.29624 0.23111 0.62254 0.0
C2930 C 0.25996 0.32406 0.61256 0.0
C2931 C 0.23718 0.31928 0.61529 0.0
C2932 C 0.27516 0.30697 0.60813 0.0
C2933 C 0.26787 0.28477 0.606 0.0
C2934 C 0.24481 0.28038 0.60695 0.0
C2935 C 0.22967 0.2974 0.6118 0.0
H2936 H 0.79173 0.29127 0.61082 0.0
H2937 H 0.7406 0.3417 0.60864 0.0
H2938 H 0.76362 0.26225 0.60616 0.0
H2939 H 0.7121 0.31276 0.60544 0.0
H2940 H 0.66386 0.25624 0.59632 0.0
H2941 H 0.69329 0.28303 0.58766 0.0
H2942 H 0.73822 0.24716 0.63125 0.0
H2943 H 0.70936 0.22014 0.639 0.0
C2944 C 0.77442 0.29607 0.60884 0.0
C2945 C 0.76817 0.31854 0.61 0.0
C2946 C 0.75827 0.2795 0.60648 0.0
C2947 C 0.73547 0.28506 0.60601 0.0
C2948 C 0.72944 0.30778 0.60559 0.0
C2949 C 0.74572 0.32441 0.60744 0.0
C2950 C 0.68015 0.25397 0.60378 0.0
C2951 C 0.6842 0.23615 0.6185 0.0
C2952 C 0.697 0.26938 0.59889 0.0
C2953 C 0.71821 0.26738 0.60875 0.0
C2954 C 0.72233 0.24911 0.62291 0.0
C2955 C 0.70563 0.23364 0.62758 0.0
H2956 H 0.29118 0.78396 0.63694 0.0
H2957 H 0.33659 0.74893 0.59337 0.0
H2958 H 0.26306 0.75574 0.63042 0.0
H2959 H 0.30795 0.72101 0.58592 0.0
H2960 H 0.26439 0.66055 0.60865 0.0
H2961 H 0.29132 0.69083 0.60461 0.0
H2962 H 0.23744 0.73879 0.60687 0.0
H2963 H 0.21095 0.70841 0.61233 0.0
C2964 C 0.29499 0.77048 0.62554 0.0
C2965 C 0.31623 0.76855 0.61591 0.0
C2966 C 0.27874 0.75429 0.62161 0.0
C2967 C 0.28316 0.73592 0.60765 0.0
C2968 C 0.30406 0.73465 0.59709 0.0
C2969 C 0.32045 0.75072 0.60127 0.0
C2970 C 0.2584 0.67757 0.60763 0.0
C2971 C 0.23577 0.68232 0.61079 0.0
C2972 C 0.27377 0.69498 0.6053 0.0
C2973 C 0.26666 0.7174 0.60582 0.0
C2974 C 0.24365 0.72183 0.60706 0.0
C2975 C 0.22841 0.70447 0.60989 0.0
H2976 H 0.13267 0.1838 0.38441 0.0
H2977 H 0.12836 0.20741 0.31663 0.0
H2978 H 0.13223 0.22265 0.39784 0.0
H2979 H 0.12743 0.24585 0.32979 0.0
H2980 H 0.11935 0.31361 0.35679 0.0
H2981 H 0.10652 0.27496 0.35295 0.0
H2982 H 0.16268 0.25246 0.39198 0.0
H2983 H 0.17553 0.2909 0.39556 0.0
C2984 C 0.13095 0.19729 0.3725 0.0
C2985 C 0.13059 0.1928 0.34953 0.0
C2986 C 0.13076 0.21943 0.38012 0.0
C2987 C 0.12969 0.23729 0.36487 0.0
C2988 C 0.12792 0.23252 0.34199 0.0
C2989 C 0.12861 0.21054 0.33442 0.0
C2990 C 0.1284 0.30047 0.36528 0.0
C2991 C 0.14848 0.30516 0.37637 0.0
C2992 C 0.12117 0.27836 0.36295 0.0
C2993 C 0.1337 0.26068 0.37202 0.0
C2994 C 0.15257 0.26569 0.38496 0.0
C2995 C 0.15998 0.28769 0.38694 0.0
H2996 H 0.69764 0.12672 0.33981 0.0
H2997 H 0.69722 0.15245 0.407 0.0
H2998 H 0.73729 0.1181 0.34323 0.0
H2999 H 0.73727 0.14442 0.41024 0.0
H3000 H 0.80753 0.16799 0.37679 0.0
H3001 H 0.76793 0.16525 0.38578 0.0
H3002 H 0.76821 0.09598 0.3662 0.0
H3003 H 0.80821 0.09859 0.35777 0.0
C3004 C 0.70594 0.12987 0.35555 0.0
C3005 C 0.69446 0.14015 0.37317 0.0
C3006 C 0.72859 0.12488 0.35755 0.0
C3007 C 0.74032 0.13061 0.377 0.0
C3008 C 0.72855 0.13975 0.39512 0.0
C3009 C 0.70569 0.14422 0.39332 0.0
C3010 C 0.7993 0.15199 0.37516 0.0
C3011 C 0.81085 0.1335 0.36661 0.0
C3012 C 0.77667 0.15039 0.38039 0.0
C3013 C 0.76503 0.1304 0.37667 0.0
C3014 C 0.77686 0.11154 0.3693 0.0
C3015 C 0.7997 0.113 0.36458 0.0
H3016 H 0.86421 0.69661 0.33356 0.0
H3017 H 0.85721 0.6946 0.40519 0.0
H3018 H 0.87738 0.73474 0.33568 0.0
H3019 H 0.87056 0.73338 0.40744 0.0
H3020 H 0.85353 0.80981 0.38646 0.0
H3021 H 0.85342 0.76989 0.39523 0.0
H3022 H 0.90694 0.75961 0.34814 0.0
H3023 H 0.90637 0.79924 0.33893 0.0
C3024 C 0.86596 0.70425 0.34986 0.0
C3025 C 0.85962 0.6927 0.3692 0.0
C3026 C 0.87371 0.7261 0.35112 0.0
C3027 C 0.87513 0.73714 0.37177 0.0
C3028 C 0.86964 0.72531 0.39131 0.0
C3029 C 0.86216 0.70313 0.39005 0.0
C3030 C 0.86595 0.79912 0.37884 0.0
C3031 C 0.87996 0.80744 0.36205 0.0
C3032 C 0.86587 0.77625 0.38379 0.0
C3033 C 0.87986 0.76152 0.37201 0.0
C3034 C 0.89567 0.77046 0.35718 0.0
C3035 C 0.89552 0.79315 0.35205 0.0
H3036 H 0.19275 0.85234 0.38485 0.0
H3037 H 0.2003 0.90609 0.33771 0.0
H3038 H 0.23274 0.85386 0.393 0.0
H3039 H 0.24 0.90827 0.3463 0.0
H3040 H 0.30467 0.86832 0.3307 0.0
H3041 H 0.26614 0.88014 0.33333 0.0
H3042 H 0.26842 0.87238 0.40498 0.0
H3043 H 0.30755 0.86039 0.4022 0.0
C3044 C 0.20279 0.86528 0.37719 0.0
C3045 C 0.19362 0.87913 0.36071 0.0
C3046 C 0.22569 0.86614 0.38179 0.0
C3047 C 0.23962 0.8809 0.36995 0.0
C3048 C 0.2298 0.89644 0.35538 0.0
C3049 C 0.20706 0.89537 0.35061 0.0
C3050 C 0.29714 0.86963 0.34708 0.0
C3051 C 0.30904 0.86338 0.36623 0.0
C3052 C 0.27506 0.87659 0.34864 0.0
C3053 C 0.26416 0.87728 0.3694 0.0
C3054 C 0.27637 0.872 0.38876 0.0
C3055 C 0.29875 0.8653 0.3872 0.0
H3056 H 0.16269 0.70385 0.59434 0.0
H3057 H 0.11917 0.69396 0.65065 0.0
H3058 H 0.15236 0.74317 0.593 0.0
H3059 H 0.10944 0.73364 0.6501 0.0
H3060 H 0.09667 0.80799 0.64557 0.0
H3061 H 0.09487 0.76872 0.63368 0.0
H3062 H 0.1654 0.77043 0.61902 0.0
H3063 H 0.16699 0.80907 0.63061 0.0
C3064 C 0.15024 0.71 0.6059 0.0
C3065 C 0.1416 0.69598 0.6225 0.0
C3066 C 0.14449 0.73256 0.60533 0.0
C3067 C 0.13047 0.74172 0.62177 0.0
C3068 C 0.12018 0.72718 0.63711 0.0
C3069 C 0.12569 0.70443 0.63743 0.0
C3070 C 0.11153 0.80003 0.6391 0.0
C3071 C 0.13197 0.81149 0.639 0.0
C3072 C 0.11058 0.77754 0.6325 0.0
C3073 C 0.12998 0.76635 0.62536 0.0
C3074 C 0.15002 0.77846 0.62402 0.0
C3075 C 0.151 0.80064 0.63082 0.0
H3076 H 0.3003 0.15476 0.59182 0.0
H3077 H 0.30991 0.1199 0.6539 0.0
H3078 H 0.26132 0.14311 0.59109 0.0
H3079 H 0.27079 0.10957 0.65437 0.0
H3080 H 0.1925 0.15908 0.62226 0.0
H3081 H 0.23102 0.15664 0.61003 0.0
H3082 H 0.23769 0.09331 0.64417 0.0
H3083 H 0.1994 0.09691 0.6576 0.0
C3084 C 0.29414 0.14393 0.60492 0.0
C3085 C 0.30796 0.13801 0.62281 0.0
C3086 C 0.27172 0.13756 0.60477 0.0
C3087 C 0.26252 0.12591 0.62299 0.0
C3088 C 0.27704 0.11834 0.6399 0.0
C3089 C 0.29959 0.12422 0.6397 0.0
C3090 C 0.2021 0.14436 0.62651 0.0
C3091 C 0.1932 0.12817 0.64074 0.0
C3092 C 0.22424 0.14282 0.61944 0.0
C3093 C 0.23783 0.12485 0.62627 0.0
C3094 C 0.22805 0.10767 0.639 0.0
C3095 C 0.20605 0.10952 0.64648 0.0
H3096 H 0.84125 0.29285 0.59653 0.0
H3097 H 0.88974 0.31119 0.64639 0.0
H3098 H 0.85348 0.25401 0.59875 0.0
H3099 H 0.90153 0.27211 0.64912 0.0
H3100 H 0.86121 0.20607 0.67544 0.0
H3101 H 0.86692 0.24459 0.66433 0.0
H3102 H 0.8902 0.2228 0.59982 0.0
H3103 H 0.88565 0.18352 0.6116 0.0
C3104 C 0.85528 0.2887 0.60716 0.0
C3105 C 0.86463 0.3049 0.62126 0.0
C3106 C 0.8623 0.26651 0.60837 0.0
C3107 C 0.8784 0.26015 0.62411 0.0
C3108 C 0.88924 0.27672 0.6367 0.0
C3109 C 0.88255 0.29904 0.63511 0.0
C3110 C 0.86812 0.20939 0.65909 0.0
C3111 C 0.87301 0.19186 0.64438 0.0
C3112 C 0.87153 0.23145 0.6528 0.0
C3113 C 0.87927 0.2366 0.63136 0.0
C3114 C 0.88453 0.21914 0.61657 0.0
C3115 C 0.88185 0.1968 0.62324 0.0
H3116 H 0.80626 0.89945 0.6558 0.0
H3117 H 0.80655 0.82909 0.6406 0.0
H3118 H 0.76627 0.90108 0.64693 0.0
H3119 H 0.76696 0.8309 0.63104 0.0
H3120 H 0.69417 0.87011 0.67116 0.0
H3121 H 0.73415 0.87812 0.67024 0.0
H3122 H 0.73775 0.8524 0.60312 0.0
H3123 H 0.69742 0.84511 0.60377 0.0
C3124 C 0.79794 0.88455 0.64984 0.0
C3125 C 0.80941 0.86414 0.64888 0.0
C3126 C 0.77512 0.88547 0.64486 0.0
C3127 C 0.76363 0.86614 0.6382 0.0
C3128 C 0.77549 0.84609 0.63587 0.0
C3129 C 0.79808 0.84504 0.64143 0.0
C3130 C 0.70337 0.86696 0.65593 0.0
C3131 C 0.69278 0.85716 0.63748 0.0
C3132 C 0.7262 0.87156 0.65539 0.0
C3133 C 0.73897 0.86587 0.63661 0.0
C3134 C 0.7282 0.85705 0.61773 0.0
C3135 C 0.70518 0.85301 0.61805 0.0
H3136 H 0.38131 0.15186 0.19051 0.0
H3137 H 0.34644 0.09061 0.20429 0.0
H3138 H 0.39267 0.15436 0.22923 0.0
H3139 H 0.35933 0.09172 0.24289 0.0
H3140 H 0.40841 0.16103 0.29982 0.0
H3141 H 0.40995 0.14654 0.26182 0.0
H3142 H 0.34843 0.11057 0.27372 0.0
H3143 H 0.34834 0.12365 0.31204 0.0
C3144 C 0.37715 0.13827 0.20169 0.0
C3145 C 0.36314 0.12102 0.19455 0.0
C3146 C 0.38365 0.13963 0.22405 0.0
C3147 C 0.3766 0.12347 0.23967 0.0
C3148 C 0.3645 0.10493 0.23172 0.0
C3149 C 0.35743 0.10398 0.20949 0.0
C3150 C 0.39578 0.14931 0.29437 0.0
C3151 C 0.37836 0.14325 0.3087 0.0
C3152 C 0.3964 0.14123 0.27249 0.0
C3153 C 0.37905 0.12768 0.2642 0.0
C3154 C 0.36235 0.12063 0.27923 0.0
C3155 C 0.36215 0.12818 0.3013 0.0
H3156 H 0.88717 0.35488 0.30879 0.0
H3157 H 0.83995 0.40764 0.29651 0.0
H3158 H 0.89625 0.35375 0.269 0.0
H3159 H 0.84956 0.40729 0.25698 0.0
H3160 H 0.83511 0.36326 0.19493 0.0
H3161 H 0.83718 0.37778 0.23254 0.0
H3162 H 0.90871 0.36914 0.23223 0.0
H3163 H 0.90648 0.35435 0.19397 0.0
C3164 C 0.87969 0.36708 0.29774 0.0
C3165 C 0.86287 0.38133 0.30557 0.0
C3166 C 0.88483 0.36642 0.27492 0.0
C3167 C 0.87324 0.3801 0.25973 0.0
C3168 C 0.85842 0.39621 0.26816 0.0
C3169 C 0.85307 0.3966 0.29082 0.0
C3170 C 0.85136 0.36492 0.20266 0.0
C3171 C 0.87062 0.3576 0.1916 0.0
C3172 C 0.85261 0.37344 0.22422 0.0
C3173 C 0.87315 0.37472 0.23547 0.0
C3174 C 0.89265 0.36835 0.22402 0.0
C3175 C 0.89141 0.36004 0.20213 0.0
H3176 H 0.59626 0.84626 0.30706 0.0
H3177 H 0.66309 0.87273 0.30887 0.0
H3178 H 0.59424 0.85435 0.26689 0.0
H3179 H 0.66087 0.88142 0.26911 0.0
H3180 H 0.64769 0.90142 0.19762 0.0
H3181 H 0.63872 0.90346 0.23757 0.0
H3182 H 0.6197 0.83404 0.23677 0.0
H3183 H 0.62921 0.83185 0.19721 0.0
C3184 C 0.61011 0.85466 0.29905 0.0
C3185 C 0.6298 0.85895 0.31095 0.0
C3186 C 0.60901 0.85916 0.27611 0.0
C3187 C 0.6274 0.86853 0.26494 0.0
C3188 C 0.64637 0.87445 0.27732 0.0
C3189 C 0.64766 0.86944 0.30005 0.0
C3190 C 0.64096 0.88682 0.20589 0.0
C3191 C 0.63918 0.86647 0.19442 0.0
C3192 C 0.63592 0.88796 0.2287 0.0
C3193 C 0.62847 0.86892 0.24021 0.0
C3194 C 0.62514 0.84903 0.22828 0.0
C3195 C 0.6307 0.84775 0.20568 0.0
H3196 H 0.16245 0.59115 0.29802 0.0
H3197 H 0.11626 0.64529 0.3079 0.0
H3198 H 0.15299 0.59007 0.25847 0.0
H3199 H 0.1073 0.64493 0.26805 0.0
H3200 H 0.09678 0.64086 0.19315 0.0
H3201 H 0.09447 0.62799 0.23207 0.0
H3202 H 0.16585 0.61826 0.23265 0.0
H3203 H 0.16801 0.6309 0.19433 0.0
C3204 C 0.14956 0.60219 0.29182 0.0
C3205 C 0.14001 0.61824 0.3059 0.0
C3206 C 0.14431 0.60177 0.26915 0.0
C3207 C 0.12981 0.61778 0.25999 0.0
C3208 C 0.11846 0.63231 0.27455 0.0
C3209 C 0.12352 0.6325 0.29741 0.0
C3210 C 0.1118 0.63533 0.20152 0.0
C3211 C 0.13258 0.63692 0.1908 0.0
C3212 C 0.11052 0.62814 0.2238 0.0
C3213 C 0.12995 0.62204 0.2355 0.0
C3214 C 0.15047 0.62243 0.22415 0.0
C3215 C 0.15177 0.62986 0.20218 0.0
H3216 H 0.36119 0.90327 0.80453 0.0
H3217 H 0.36415 0.83135 0.80379 0.0
H3218 H 0.37448 0.90409 0.76568 0.0
H3219 H 0.37718 0.83205 0.76558 0.0
H3220 H 0.40602 0.83255 0.7009 0.0
H3221 H 0.40713 0.84217 0.74041 0.0
H3222 H 0.35675 0.89248 0.72943 0.0
H3223 H 0.35641 0.88331 0.6896 0.0
C3224 C 0.36523 0.88773 0.79626 0.0
C3225 C 0.36158 0.86724 0.80707 0.0
C3226 C 0.37268 0.88817 0.77404 0.0
C3227 C 0.37698 0.86815 0.76254 0.0
C3228 C 0.37444 0.84782 0.77396 0.0
C3229 C 0.36677 0.84738 0.79586 0.0
C3230 C 0.39599 0.84638 0.70681 0.0
C3231 C 0.38116 0.85723 0.69236 0.0
C3232 C 0.39645 0.85176 0.72944 0.0
C3233 C 0.38164 0.86771 0.73816 0.0
C3234 C 0.36843 0.88018 0.72325 0.0
C3235 C 0.36824 0.87498 0.70043 0.0
H3236 H 0.09432 0.34524 0.79782 0.0
H3237 H 0.15557 0.38053 0.81042 0.0
H3238 H 0.09459 0.35817 0.75919 0.0
H3239 H 0.15717 0.39203 0.77165 0.0
H3240 H 0.16191 0.40842 0.70115 0.0
H3241 H 0.14788 0.40973 0.73937 0.0
H3242 H 0.11352 0.34715 0.72821 0.0
H3243 H 0.12617 0.34717 0.68975 0.0
C3244 C 0.10752 0.35631 0.79234 0.0
C3245 C 0.12481 0.36214 0.80692 0.0
C3246 C 0.10795 0.36343 0.77013 0.0
C3247 C 0.1262 0.37575 0.76187 0.0
C3248 C 0.14264 0.38286 0.77714 0.0
C3249 C 0.14183 0.37625 0.79947 0.0
C3250 C 0.1506 0.3955 0.70682 0.0
C3251 C 0.1449 0.3778 0.6927 0.0
C3252 C 0.1428 0.39601 0.7288 0.0
C3253 C 0.12987 0.3783 0.73731 0.0
C3254 C 0.1231 0.36132 0.72248 0.0
C3255 C 0.1304 0.3612 0.70035 0.0
H3256 H 0.64547 0.17308 0.80814 0.0
H3257 H 0.64607 0.10108 0.80832 0.0
H3258 H 0.63108 0.17311 0.77043 0.0
H3259 H 0.63137 0.10104 0.76994 0.0
H3260 H 0.64506 0.12177 0.69284 0.0
H3261 H 0.64729 0.11247 0.7326 0.0
H3262 H 0.59921 0.16408 0.74715 0.0
H3263 H 0.59772 0.17378 0.70768 0.0
C3264 C 0.64214 0.1572 0.80019 0.0
C3265 C 0.64698 0.13708 0.81114 0.0
C3266 C 0.63367 0.15719 0.77857 0.0
C3267 C 0.62992 0.13706 0.76715 0.0
C3268 C 0.63408 0.11681 0.77832 0.0
C3269 C 0.64235 0.11683 0.80027 0.0
C3270 C 0.63428 0.1304 0.70448 0.0
C3271 C 0.62129 0.14852 0.69733 0.0
C3272 C 0.63558 0.12514 0.72726 0.0
C3273 C 0.62379 0.13788 0.74308 0.0
C3274 C 0.60886 0.15427 0.73544 0.0
C3275 C 0.60783 0.15971 0.71284 0.0
H3276 H 0.884 0.64856 0.69043 0.0
H3277 H 0.84618 0.58919 0.70465 0.0
H3278 H 0.89624 0.65025 0.72892 0.0
H3279 H 0.85995 0.58934 0.74294 0.0
H3280 H 0.91354 0.65621 0.79899 0.0
H3281 H 0.91376 0.64154 0.76103 0.0
H3282 H 0.85116 0.60801 0.77433 0.0
H3283 H 0.85239 0.62111 0.81254 0.0
C3284 C 0.87928 0.6352 0.70166 0.0
C3285 C 0.86424 0.61875 0.69472 0.0
C3286 C 0.88632 0.63606 0.72387 0.0
C3287 C 0.87882 0.62015 0.73956 0.0
C3288 C 0.86552 0.60237 0.73177 0.0
C3289 C 0.85791 0.60198 0.70971 0.0
C3290 C 0.90043 0.64487 0.79387 0.0
C3291 C 0.88306 0.63956 0.80856 0.0
C3292 C 0.90026 0.63675 0.77199 0.0
C3293 C 0.88217 0.62397 0.76406 0.0
C3294 C 0.86561 0.61748 0.7795 0.0
C3295 C 0.8662 0.62502 0.80155 0.0
H3296 H 0.19485 0.35907 0.09836 0.0
H3297 H 0.19485 0.36642 0.16999 0.0
H3298 H 0.23393 0.37154 0.09723 0.0
H3299 H 0.23331 0.37859 0.16899 0.0
H3300 H 0.29879 0.40583 0.16744 0.0
H3301 H 0.25936 0.4071 0.15763 0.0
H3302 H 0.26958 0.35399 0.11001 0.0
H3303 H 0.30935 0.35346 0.11934 0.0
C3304 C 0.20302 0.36391 0.11374 0.0
C3305 C 0.19191 0.36172 0.13427 0.0
C3306 C 0.22537 0.37087 0.11312 0.0
C3307 C 0.23675 0.37612 0.133 0.0
C3308 C 0.22506 0.37508 0.1533 0.0
C3309 C 0.203 0.3679 0.15392 0.0
C3310 C 0.29274 0.39516 0.15416 0.0
C3311 C 0.30695 0.37956 0.14412 0.0
C3312 C 0.27015 0.39572 0.14867 0.0
C3313 C 0.26122 0.38027 0.13344 0.0
C3314 C 0.27592 0.36617 0.12174 0.0
C3315 C 0.2987 0.36587 0.12703 0.0
H3316 H 0.19498 0.63431 0.83668 0.0
H3317 H 0.20016 0.65258 0.90605 0.0
H3318 H 0.23345 0.62233 0.83663 0.0
H3319 H 0.23923 0.64006 0.90632 0.0
H3320 H 0.31238 0.65593 0.87934 0.0
H3321 H 0.27312 0.65532 0.89043 0.0
H3322 H 0.2622 0.59825 0.84771 0.0
H3323 H 0.30106 0.59988 0.83582 0.0
C3324 C 0.20425 0.63498 0.8522 0.0
C3325 C 0.19465 0.64433 0.87135 0.0
C3326 C 0.22639 0.62799 0.85225 0.0
C3327 C 0.23966 0.63026 0.87147 0.0
C3328 C 0.22957 0.63825 0.89117 0.0
C3329 C 0.20716 0.64515 0.89114 0.0
C3330 C 0.30167 0.64282 0.87301 0.0
C3331 C 0.30957 0.62796 0.85677 0.0
C3332 C 0.27916 0.64241 0.87936 0.0
C3333 C 0.26429 0.62699 0.86965 0.0
C3334 C 0.27298 0.61071 0.85512 0.0
C3335 C 0.29528 0.61144 0.84846 0.0
H3336 H 0.33357 0.20383 0.90535 0.0
H3337 H 0.38146 0.19366 0.85275 0.0
H3338 H 0.34319 0.24333 0.90672 0.0
H3339 H 0.39054 0.2335 0.8533 0.0
H3340 H 0.40186 0.30823 0.85816 0.0
H3341 H 0.40325 0.26911 0.87054 0.0
H3342 H 0.33167 0.26962 0.87877 0.0
H3343 H 0.33043 0.30812 0.86675 0.0
C3344 C 0.34677 0.20999 0.89465 0.0
C3345 C 0.35686 0.19586 0.87901 0.0
C3346 C 0.35214 0.23263 0.89525 0.0
C3347 C 0.36724 0.24169 0.87975 0.0
C3348 C 0.37891 0.22708 0.86554 0.0
C3349 C 0.37377 0.20426 0.86521 0.0
C3350 C 0.38659 0.30003 0.86325 0.0
C3351 C 0.36603 0.31112 0.86142 0.0
C3352 C 0.38735 0.27764 0.87016 0.0
C3353 C 0.36759 0.2662 0.8757 0.0
C3354 C 0.34728 0.27789 0.87503 0.0
C3355 C 0.34651 0.29998 0.86793 0.0
H3356 H 0.8094 0.38218 0.85489 0.0
H3357 H 0.79598 0.33284 0.90545 0.0
H3358 H 0.76957 0.39116 0.8531 0.0
H3359 H 0.75645 0.3422 0.9043 0.0
H3360 H 0.69453 0.33039 0.85969 0.0
H3361 H 0.73258 0.3313 0.87318 0.0
H3362 H 0.73247 0.40327 0.86953 0.0
H3363 H 0.69377 0.40228 0.85583 0.0
C3364 C 0.79808 0.37415 0.86646 0.0
C3365 C 0.80565 0.35684 0.88031 0.0
C3366 C 0.77525 0.37921 0.86539 0.0
C3367 C 0.75979 0.36704 0.87822 0.0
C3368 C 0.76787 0.35156 0.89388 0.0
C3369 C 0.79052 0.34635 0.89474 0.0
C3370 C 0.70243 0.34646 0.86212 0.0
C3371 C 0.69119 0.36625 0.85666 0.0
C3372 C 0.72424 0.34702 0.87005 0.0
C3373 C 0.73559 0.36738 0.87259 0.0
C3374 C 0.72416 0.38733 0.86777 0.0
C3375 C 0.70202 0.38678 0.86008 0.0
H3376 H 0.60996 0.81749 0.85776 0.0
H3377 H 0.66953 0.7966 0.892 0.0
H3378 H 0.59766 0.77861 0.8553 0.0
H3379 H 0.65787 0.75774 0.88902 0.0
H3380 H 0.63396 0.68807 0.88168 0.0
H3381 H 0.63346 0.72633 0.89605 0.0
H3382 H 0.61172 0.75001 0.8315 0.0
H3383 H 0.61179 0.71212 0.8175 0.0
C3384 C 0.61997 0.80458 0.86548 0.0
C3385 C 0.64049 0.80987 0.8753 0.0
C3386 C 0.61312 0.78231 0.86386 0.0
C3387 C 0.62691 0.76494 0.87168 0.0
C3388 C 0.64667 0.77057 0.88305 0.0
C3389 C 0.65341 0.79284 0.88476 0.0
C3390 C 0.62845 0.70142 0.87082 0.0
C3391 C 0.62319 0.69712 0.84838 0.0
C3392 C 0.62832 0.72336 0.87899 0.0
C3393 C 0.62276 0.74135 0.8649 0.0
C3394 C 0.61588 0.73669 0.84297 0.0
C3395 C 0.61611 0.7149 0.83484 0.0
H3396 H 0.68424 0.64644 0.11509 0.0
H3397 H 0.70403 0.60874 0.17298 0.0
H3398 H 0.72327 0.64938 0.10355 0.0
H3399 H 0.74312 0.61211 0.162 0.0
H3400 H 0.81341 0.62041 0.13726 0.0
H3401 H 0.77494 0.60634 0.13671 0.0
H3402 H 0.75135 0.67249 0.12045 0.0
H3403 H 0.78931 0.68623 0.12077 0.0
C3404 C 0.69695 0.63805 0.12484 0.0
C3405 C 0.69128 0.62709 0.14468 0.0
C3406 C 0.71929 0.63993 0.11843 0.0
C3407 C 0.7364 0.63125 0.13201 0.0
C3408 C 0.73044 0.61878 0.151 0.0
C3409 C 0.70806 0.61681 0.15731 0.0
C3410 C 0.79999 0.63172 0.13302 0.0
C3411 C 0.80433 0.65445 0.12927 0.0
C3412 C 0.77797 0.62373 0.13284 0.0
C3413 C 0.76 0.63828 0.12859 0.0
C3414 C 0.76467 0.66068 0.12348 0.0
C3415 C 0.78649 0.66864 0.12387 0.0
H3416 H 0.31803 0.78866 0.10738 0.0
H3417 H 0.3792 0.8138 0.13574 0.0
H3418 H 0.33229 0.75083 0.10961 0.0
H3419 H 0.39373 0.77563 0.13789 0.0
H3420 H 0.38433 0.70661 0.17599 0.0
H3421 H 0.38238 0.7451 0.16298 0.0
H3422 H 0.35905 0.72209 0.09876 0.0
H3423 H 0.36088 0.68343 0.11214 0.0
C3424 C 0.33482 0.78612 0.11352 0.0
C3425 C 0.3474 0.80418 0.12158 0.0
C3426 C 0.34309 0.76439 0.11467 0.0
C3427 C 0.36412 0.76011 0.12409 0.0
C3428 C 0.37738 0.77835 0.13071 0.0
C3429 C 0.36915 0.80022 0.12933 0.0
C3430 C 0.37964 0.7098 0.15882 0.0
C3431 C 0.37299 0.69219 0.14494 0.0
C3432 C 0.37854 0.73185 0.15132 0.0
C3433 C 0.37043 0.73675 0.12985 0.0
C3434 C 0.36523 0.7189 0.11544 0.0
C3435 C 0.36646 0.69678 0.12296 0.0
H3436 H 0.66035 0.20344 0.09339 0.0
H3437 H 0.62379 0.18725 0.15305 0.0
H3438 H 0.64612 0.24151 0.09474 0.0
H3439 H 0.61118 0.2255 0.15596 0.0
H3440 H 0.59256 0.29523 0.16352 0.0
H3441 H 0.59307 0.25741 0.14858 0.0
H3442 H 0.65438 0.27282 0.11357 0.0
H3443 H 0.6523 0.3109 0.12691 0.0
C3444 C 0.64882 0.20803 0.10652 0.0
C3445 C 0.64295 0.19252 0.12299 0.0
C3446 C 0.64095 0.22997 0.10762 0.0
C3447 C 0.62787 0.23714 0.12582 0.0
C3448 C 0.62089 0.22097 0.14147 0.0
C3449 C 0.62815 0.19887 0.13989 0.0
C3450 C 0.60556 0.29058 0.15187 0.0
C3451 C 0.62228 0.30586 0.14617 0.0
C3452 C 0.60615 0.26878 0.14357 0.0
C3453 C 0.6241 0.2615 0.1302 0.0
C3454 C 0.64005 0.27747 0.12347 0.0
C3455 C 0.63898 0.29945 0.13117 0.0
H3456 H 0.85752 0.80713 0.62437 0.0
H3457 H 0.90988 0.79506 0.67212 0.0
H3458 H 0.85809 0.76773 0.61373 0.0
H3459 H 0.91142 0.75604 0.66081 0.0
H3460 H 0.87245 0.69038 0.67065 0.0
H3461 H 0.88467 0.72877 0.67094 0.0
H3462 H 0.87433 0.73286 0.59967 0.0
H3463 H 0.86159 0.69383 0.59957 0.0
C3464 C 0.86989 0.79624 0.63176 0.0
C3465 C 0.88355 0.80395 0.64914 0.0
C3466 C 0.87026 0.77365 0.62569 0.0
C3467 C 0.88446 0.75856 0.63679 0.0
C3468 C 0.89987 0.76704 0.65234 0.0
C3469 C 0.89916 0.78942 0.6587 0.0
C3470 C 0.87326 0.69927 0.65492 0.0
C3471 C 0.86596 0.68918 0.63511 0.0
C3472 C 0.88047 0.72133 0.65503 0.0
C3473 C 0.88053 0.73404 0.6353 0.0
C3474 C 0.87437 0.72357 0.61516 0.0
C3475 C 0.86729 0.70122 0.61504 0.0
H3476 H 0.30625 0.85782 0.59377 0.0
H3477 H 0.30943 0.87339 0.66394 0.0
H3478 H 0.26727 0.87057 0.59282 0.0
H3479 H 0.27105 0.88567 0.66326 0.0
H3480 H 0.20414 0.90924 0.66291 0.0
H3481 H 0.24317 0.91096 0.65165 0.0
H3482 H 0.23273 0.85478 0.60766 0.0
H3483 H 0.19333 0.85403 0.61818 0.0
C3484 C 0.29883 0.86466 0.60876 0.0
C3485 C 0.31075 0.86462 0.62894 0.0
C3486 C 0.27649 0.87173 0.60831 0.0
C3487 C 0.2659 0.8791 0.62797 0.0
C3488 C 0.27856 0.88049 0.64768 0.0
C3489 C 0.30062 0.87329 0.64815 0.0
C3490 C 0.21005 0.89794 0.65009 0.0
C3491 C 0.19587 0.88156 0.64133 0.0
C3492 C 0.23244 0.89873 0.64379 0.0
C3493 C 0.24129 0.88264 0.62916 0.0
C3494 C 0.22654 0.86751 0.61886 0.0
C3495 C 0.20394 0.86704 0.62486 0.0
H3496 H 0.09394 0.2013 0.65168 0.0
H3497 H 0.15899 0.19586 0.62165 0.0
H3498 H 0.09268 0.24098 0.64151 0.0
H3499 H 0.15771 0.23513 0.61121 0.0
H3500 H 0.15136 0.30667 0.59292 0.0
H3501 H 0.13937 0.26751 0.59069 0.0
H3502 H 0.11731 0.27056 0.65919 0.0
H3503 H 0.12955 0.30924 0.66142 0.0
C3504 C 0.10747 0.20836 0.64201 0.0
C3505 C 0.12652 0.19562 0.63735 0.0
C3506 C 0.10686 0.23107 0.63635 0.0
C3507 C 0.12514 0.24122 0.62564 0.0
C3508 C 0.14325 0.22783 0.6192 0.0
C3509 C 0.14403 0.20533 0.62521 0.0
C3510 C 0.14321 0.29912 0.60717 0.0
C3511 C 0.1414 0.31086 0.62734 0.0
C3512 C 0.13647 0.27672 0.60596 0.0
C3513 C 0.12742 0.26593 0.62478 0.0
C3514 C 0.12394 0.2784 0.64432 0.0
C3515 C 0.13106 0.30053 0.64565 0.0
H3516 H 0.79691 0.09408 0.66644 0.0
H3517 H 0.80865 0.14618 0.6183 0.0
H3518 H 0.75738 0.09402 0.65698 0.0
H3519 H 0.76879 0.14689 0.60935 0.0
H3520 H 0.69371 0.14427 0.5985 0.0
H3521 H 0.7324 0.13064 0.5969 0.0
H3522 H 0.73225 0.12315 0.66862 0.0
H3523 H 0.69419 0.13648 0.67006 0.0
C3524 C 0.79108 0.10494 0.6532 0.0
C3525 C 0.80571 0.1201 0.64306 0.0
C3526 C 0.76842 0.10509 0.64793 0.0
C3527 C 0.75981 0.12084 0.63282 0.0
C3528 C 0.77486 0.13449 0.62101 0.0
C3529 C 0.7977 0.13408 0.62607 0.0
C3530 C 0.70187 0.13907 0.61376 0.0
C3531 C 0.69104 0.14146 0.6344 0.0
C3532 C 0.72403 0.13145 0.61288 0.0
C3533 C 0.73545 0.12573 0.63261 0.0
C3534 C 0.72397 0.12699 0.65303 0.0
C3535 C 0.70214 0.13482 0.6539 0.0
H3536 H 0.91208 0.2022 0.34053 0.0
H3537 H 0.85835 0.19404 0.38754 0.0
H3538 H 0.91398 0.24187 0.34932 0.0
H3539 H 0.85954 0.234 0.39583 0.0
H3540 H 0.86431 0.30891 0.40437 0.0
H3541 H 0.87722 0.27009 0.40758 0.0
H3542 H 0.88556 0.26743 0.33601 0.0
H3543 H 0.87287 0.30565 0.33295 0.0
C3544 C 0.90133 0.2088 0.35347 0.0
C3545 C 0.88511 0.19521 0.36341 0.0
C3546 C 0.90223 0.23153 0.35835 0.0
C3547 C 0.88654 0.24119 0.37284 0.0
C3548 C 0.87192 0.22709 0.38464 0.0
C3549 C 0.87125 0.20418 0.37997 0.0
C3550 C 0.86954 0.3001 0.38948 0.0
C3551 C 0.8675 0.31017 0.3684 0.0
C3552 C 0.87677 0.2779 0.39129 0.0
C3553 C 0.88248 0.26566 0.37208 0.0
C3554 C 0.88169 0.27638 0.35122 0.0
C3555 C 0.87421 0.29828 0.34941 0.0
H3556 H 0.70175 0.83601 0.41028 0.0
H3557 H 0.69176 0.88123 0.35529 0.0
H3558 H 0.74077 0.84721 0.41262 0.0
H3559 H 0.73117 0.89171 0.3567 0.0
H3560 H 0.80475 0.90527 0.36098 0.0
H3561 H 0.76562 0.90627 0.37326 0.0
H3562 H 0.76871 0.83557 0.38721 0.0
H3563 H 0.80722 0.83482 0.37538 0.0
C3564 C 0.70783 0.84893 0.39918 0.0
C3565 C 0.69391 0.85782 0.38265 0.0
C3566 C 0.73021 0.8552 0.40034 0.0
C3567 C 0.7393 0.86994 0.38448 0.0
C3568 C 0.72477 0.88041 0.36925 0.0
C3569 C 0.70218 0.87444 0.36841 0.0
C3570 C 0.79713 0.89021 0.36743 0.0
C3571 C 0.80889 0.86995 0.36719 0.0
C3572 C 0.77472 0.89071 0.37425 0.0
C3573 C 0.76392 0.871 0.38119 0.0
C3574 C 0.7764 0.85118 0.38236 0.0
C3575 C 0.79852 0.85067 0.3754 0.0
H3576 H 0.15887 0.80589 0.38162 0.0
H3577 H 0.09489 0.80437 0.34886 0.0
H3578 H 0.15629 0.76587 0.38883 0.0
H3579 H 0.09252 0.76401 0.3555 0.0
H3580 H 0.13064 0.69655 0.3324 0.0
H3581 H 0.12006 0.73568 0.33608 0.0
H3582 H 0.13331 0.73272 0.40679 0.0
H3583 H 0.14342 0.69318 0.40319 0.0
C3584 C 0.14386 0.79708 0.37677 0.0
C3585 C 0.12699 0.80812 0.36489 0.0
C3586 C 0.14236 0.7742 0.38089 0.0
C3587 C 0.12424 0.76186 0.37266 0.0
C3588 C 0.10663 0.77319 0.36208 0.0
C3589 C 0.10789 0.79625 0.35844 0.0
C3590 C 0.13067 0.70408 0.34884 0.0
C3591 C 0.13791 0.69191 0.3675 0.0
C3592 C 0.12447 0.72643 0.35097 0.0
C3593 C 0.12584 0.73719 0.37173 0.0
C3594 C 0.13202 0.72474 0.39063 0.0
C3595 C 0.13773 0.70217 0.38858 0.0
H3596 H 0.18806 0.13727 0.38043 0.0
H3597 H 0.21318 0.11035 0.31857 0.0
H3598 H 0.2262 0.13872 0.39516 0.0
H3599 H 0.25094 0.11185 0.33306 0.0
H3600 H 0.31798 0.11211 0.36233 0.0
H3601 H 0.27911 0.09956 0.36 0.0
H3602 H 0.25723 0.16378 0.38433 0.0
H3603 H 0.29597 0.176 0.38675 0.0
C3604 C 0.20162 0.13106 0.37025 0.0
C3605 C 0.19769 0.12391 0.34828 0.0
C3606 C 0.22346 0.13202 0.37861 0.0
C3607 C 0.24166 0.12554 0.36524 0.0
C3608 C 0.23739 0.11676 0.34393 0.0
C3609 C 0.21571 0.11606 0.33553 0.0
C3610 C 0.30482 0.1231 0.36801 0.0
C3611 C 0.30979 0.14485 0.37496 0.0
C3612 C 0.2826 0.11605 0.3665 0.0
C3613 C 0.26503 0.13072 0.37185 0.0
C3614 C 0.27028 0.15194 0.38037 0.0
C3615 C 0.29245 0.15898 0.38174 0.0
H3616 H 0.6724 0.89313 0.79288 0.0
H3617 H 0.6108 0.86646 0.81872 0.0
H3618 H 0.6573 0.89243 0.75539 0.0
H3619 H 0.59526 0.86607 0.78088 0.0
H3620 H 0.60444 0.82564 0.71361 0.0
H3621 H 0.60503 0.84058 0.75118 0.0
H3622 H 0.63165 0.90269 0.72608 0.0
H3623 H 0.63144 0.88736 0.68821 0.0
C3624 C 0.65531 0.88777 0.79057 0.0
C3625 C 0.64292 0.87945 0.80862 0.0
C3626 C 0.64653 0.88756 0.76904 0.0
C3627 C 0.62513 0.8789 0.76499 0.0
C3628 C 0.61192 0.87257 0.78339 0.0
C3629 C 0.62073 0.87291 0.80508 0.0
C3630 C 0.60979 0.84274 0.71601 0.0
C3631 C 0.61832 0.85518 0.69806 0.0
C3632 C 0.60996 0.85141 0.73759 0.0
C3633 C 0.61875 0.87274 0.74177 0.0
C3634 C 0.62511 0.88606 0.72346 0.0
C3635 C 0.62485 0.87736 0.70174 0.0
H3636 H 0.17376 0.6149 0.70459 0.0
H3637 H 0.11009 0.64227 0.6857 0.0
H3638 H 0.16282 0.61586 0.74377 0.0
H3639 H 0.09873 0.64295 0.725 0.0
H3640 H 0.1135 0.68226 0.79128 0.0
H3641 H 0.11261 0.66845 0.75327 0.0
H3642 H 0.13903 0.60519 0.77557 0.0
H3643 H 0.14002 0.61932 0.81402 0.0
C3644 C 0.15703 0.62022 0.70887 0.0
C3645 C 0.14264 0.62835 0.69233 0.0
C3646 C 0.1507 0.62072 0.73129 0.0
C3647 C 0.12994 0.62964 0.73757 0.0
C3648 C 0.11491 0.63617 0.72072 0.0
C3649 C 0.12127 0.63563 0.69825 0.0
C3650 C 0.11855 0.66518 0.78817 0.0
C3651 C 0.12704 0.65192 0.80552 0.0
C3652 C 0.11788 0.65717 0.76636 0.0
C3653 C 0.12588 0.63573 0.7613 0.0
C3654 C 0.13291 0.62185 0.77893 0.0
C3655 C 0.13334 0.62984 0.80093 0.0
H3656 H 0.39263 0.11631 0.69084 0.0
H3657 H 0.35219 0.17348 0.70778 0.0
H3658 H 0.39672 0.10783 0.73113 0.0
H3659 H 0.35677 0.16556 0.74693 0.0
H3660 H 0.35114 0.09769 0.80327 0.0
H3661 H 0.3628 0.09887 0.76395 0.0
H3662 H 0.3916 0.16393 0.77465 0.0
H3663 H 0.37953 0.16297 0.8135 0.0
C3664 C 0.38498 0.12718 0.70307 0.0
C3665 C 0.37206 0.14552 0.69618 0.0
C3666 C 0.38727 0.12233 0.72598 0.0
C3667 C 0.37727 0.13623 0.74206 0.0
C3668 C 0.36495 0.15476 0.73497 0.0
C3669 C 0.36225 0.15922 0.71244 0.0
C3670 C 0.3609 0.11171 0.79739 0.0
C3671 C 0.36434 0.13032 0.8112 0.0
C3672 C 0.36763 0.11235 0.77496 0.0
C3673 C 0.37795 0.13156 0.76631 0.0
C3674 C 0.38367 0.14895 0.78094 0.0
C3675 C 0.37673 0.14843 0.80312 0.0
H3676 H 0.8352 0.37177 0.80591 0.0
H3677 H 0.90412 0.35123 0.80639 0.0
H3678 H 0.83809 0.38104 0.76634 0.0
H3679 H 0.90687 0.35993 0.76641 0.0
H3680 H 0.85146 0.40254 0.69559 0.0
H3681 H 0.85931 0.40523 0.73576 0.0
H3682 H 0.88436 0.33775 0.73529 0.0
H3683 H 0.87593 0.33488 0.69553 0.0
C3684 C 0.85115 0.36988 0.79764 0.0
C3685 C 0.86945 0.36084 0.80913 0.0
C3686 C 0.85284 0.37526 0.77503 0.0
C3687 C 0.8727 0.37118 0.76333 0.0
C3688 C 0.8914 0.36331 0.77511 0.0
C3689 C 0.88987 0.35845 0.79794 0.0
C3690 C 0.85932 0.3886 0.70399 0.0
C3691 C 0.8631 0.36851 0.69258 0.0
C3692 C 0.86371 0.3901 0.72692 0.0
C3693 C 0.87247 0.37171 0.73858 0.0
C3694 C 0.87787 0.35227 0.72669 0.0
C3695 C 0.87297 0.35059 0.70398 0.0
H3696 H 0.63873 0.16884 0.19698 0.0
H3697 H 0.64529 0.09714 0.19602 0.0
H3698 H 0.62587 0.16734 0.23526 0.0
H3699 H 0.63224 0.09554 0.2349 0.0
H3700 H 0.64945 0.11758 0.31101 0.0
H3701 H 0.64962 0.10829 0.27121 0.0
H3702 H 0.59605 0.15516 0.26019 0.0
H3703 H 0.59653 0.16487 0.2997 0.0
C3704 C 0.63701 0.15268 0.20489 0.0
C3705 C 0.6431 0.13313 0.19358 0.0
C3706 C 0.62942 0.15177 0.22681 0.0
C3707 C 0.62791 0.13128 0.23814 0.0
C3708 C 0.63322 0.11155 0.22659 0.0
C3709 C 0.64055 0.11245 0.20436 0.0
C3710 C 0.63703 0.12503 0.30019 0.0
C3711 C 0.62299 0.14192 0.30825 0.0
C3712 C 0.63715 0.11979 0.27739 0.0
C3713 C 0.62316 0.13136 0.26249 0.0
C3714 C 0.60731 0.14629 0.27118 0.0
C3715 C 0.60741 0.1517 0.29381 0.0
H3716 H 0.86627 0.61403 0.1847 0.0
H3717 H 0.88719 0.67857 0.20818 0.0
H3718 H 0.86658 0.59998 0.22322 0.0
H3719 H 0.88738 0.665 0.24641 0.0
H3720 H 0.88653 0.63922 0.31471 0.0
H3721 H 0.90059 0.64094 0.27634 0.0
H3722 H 0.84058 0.60854 0.25307 0.0
H3723 H 0.82694 0.60659 0.29115 0.0
C3724 C 0.87173 0.62493 0.19804 0.0
C3725 C 0.87682 0.64732 0.19364 0.0
C3726 C 0.87174 0.61701 0.22009 0.0
C3727 C 0.87686 0.63139 0.238 0.0
C3728 C 0.88364 0.65331 0.23315 0.0
C3729 C 0.88345 0.66119 0.21124 0.0
C3730 C 0.8768 0.63174 0.30145 0.0
C3731 C 0.85552 0.62303 0.30584 0.0
C3732 C 0.88473 0.63288 0.27945 0.0
C3733 C 0.87159 0.62516 0.26153 0.0
C3734 C 0.85127 0.61453 0.26635 0.0
C3735 C 0.84333 0.61355 0.28821 0.0
H3736 H 0.40464 0.8343 0.2935 0.0
H3737 H 0.35509 0.88441 0.30764 0.0
H3738 H 0.40277 0.84342 0.2539 0.0
H3739 H 0.35262 0.89319 0.26778 0.0
H3740 H 0.35337 0.90307 0.19173 0.0
H3741 H 0.36855 0.90452 0.2299 0.0
H3742 H 0.37025 0.83249 0.23151 0.0
H3743 H 0.35522 0.83113 0.19401 0.0
C3744 C 0.39402 0.84793 0.28817 0.0
C3745 C 0.38 0.85866 0.3035 0.0
C3746 C 0.39278 0.85302 0.2655 0.0
C3747 C 0.37715 0.86864 0.25766 0.0
C3748 C 0.36487 0.88112 0.2733 0.0
C3749 C 0.36632 0.87617 0.29614 0.0
C3750 C 0.35749 0.88765 0.20019 0.0
C3751 C 0.35306 0.86699 0.19 0.0
C3752 C 0.36604 0.88846 0.22201 0.0
C3753 C 0.37075 0.86864 0.23368 0.0
C3754 C 0.36722 0.8481 0.22292 0.0
C3755 C 0.3584 0.8473 0.20146 0.0
H3756 H 0.14498 0.40406 0.30554 0.0
H3757 H 0.13856 0.33237 0.30492 0.0
H3758 H 0.13052 0.40555 0.26711 0.0
H3759 H 0.1243 0.33374 0.26714 0.0
H3760 H 0.09315 0.33565 0.20359 0.0
H3761 H 0.09384 0.34549 0.24305 0.0
H3762 H 0.14648 0.39295 0.23019 0.0
H3763 H 0.14511 0.38355 0.19045 0.0
C3764 C 0.13994 0.38874 0.2974 0.0
C3765 C 0.14295 0.36809 0.30811 0.0
C3766 C 0.13182 0.38956 0.27542 0.0
C3767 C 0.12615 0.36979 0.26407 0.0
C3768 C 0.12809 0.34935 0.27541 0.0
C3769 C 0.13647 0.34852 0.29706 0.0
C3770 C 0.10407 0.34897 0.20907 0.0
C3771 C 0.11906 0.35887 0.19409 0.0
C3772 C 0.10465 0.35446 0.23168 0.0
C3773 C 0.12061 0.36959 0.23985 0.0
C3774 C 0.13395 0.38128 0.22445 0.0
C3775 C 0.13314 0.37597 0.20166 0.0
H3776 H 0.81091 0.62598 0.83705 0.0
H3777 H 0.80552 0.65803 0.90123 0.0
H3778 H 0.77088 0.61826 0.83739 0.0
H3779 H 0.76515 0.65097 0.90124 0.0
H3780 H 0.69796 0.59995 0.84998 0.0
H3781 H 0.73751 0.59846 0.86071 0.0
H3782 H 0.73734 0.66969 0.871 0.0
H3783 H 0.69824 0.67128 0.85964 0.0
C3784 C 0.80122 0.63071 0.85155 0.0
C3785 C 0.81122 0.6424 0.8692 0.0
C3786 C 0.77835 0.62628 0.85176 0.0
C3787 C 0.76497 0.63404 0.86934 0.0
C3788 C 0.77516 0.64473 0.88757 0.0
C3789 C 0.79821 0.64863 0.88763 0.0
C3790 C 0.70628 0.61516 0.85511 0.0
C3791 C 0.69514 0.63573 0.85397 0.0
C3792 C 0.72885 0.61431 0.86116 0.0
C3793 C 0.74038 0.63395 0.86678 0.0
C3794 C 0.72877 0.65428 0.86702 0.0
C3795 C 0.70646 0.6552 0.86041 0.0
H3796 H 0.81089 0.3768 0.14788 0.0
H3797 H 0.79608 0.32641 0.09877 0.0
H3798 H 0.77138 0.38698 0.14936 0.0
H3799 H 0.75689 0.33715 0.09934 0.0
H3800 H 0.69443 0.32828 0.14321 0.0
H3801 H 0.73227 0.32784 0.12945 0.0
H3802 H 0.735 0.39976 0.13374 0.0
H3803 H 0.6965 0.4001 0.14798 0.0
C3804 C 0.79932 0.36871 0.13659 0.0
C3805 C 0.80635 0.35078 0.1233 0.0
C3806 C 0.77668 0.37451 0.13743 0.0
C3807 C 0.76089 0.36252 0.12483 0.0
C3808 C 0.76853 0.34634 0.10964 0.0
C3809 C 0.79098 0.34031 0.10914 0.0
C3810 C 0.70291 0.34408 0.1409 0.0
C3811 C 0.69257 0.36422 0.14682 0.0
C3812 C 0.72461 0.34386 0.13275 0.0
C3813 C 0.73672 0.36379 0.13035 0.0
C3814 C 0.72612 0.38413 0.13544 0.0
C3815 C 0.70409 0.38435 0.14344 0.0
H3816 H 0.59184 0.70089 0.16028 0.0
H3817 H 0.65316 0.68901 0.12493 0.0
H3818 H 0.59056 0.73888 0.1457 0.0
H3819 H 0.65329 0.72728 0.11181 0.0
H3820 H 0.65603 0.79669 0.09237 0.0
H3821 H 0.64296 0.75816 0.09274 0.0
H3822 H 0.60758 0.77144 0.15432 0.0
H3823 H 0.61915 0.81014 0.15251 0.0
C3824 C 0.60478 0.7064 0.14893 0.0
C3825 C 0.62248 0.69218 0.14349 0.0
C3826 C 0.60431 0.72827 0.14083 0.0
C3827 C 0.62207 0.73665 0.12789 0.0
C3828 C 0.63906 0.7217 0.12138 0.0
C3829 C 0.63912 0.69965 0.12895 0.0
C3830 C 0.6446 0.79142 0.10534 0.0
C3831 C 0.63839 0.80625 0.1223 0.0
C3832 C 0.6374 0.76924 0.10585 0.0
C3833 C 0.62466 0.7612 0.12392 0.0
C3834 C 0.61712 0.77671 0.13995 0.0
C3835 C 0.62375 0.79904 0.139 0.0
H3836 H 0.20925 0.6706 0.10292 0.0
H3837 H 0.18509 0.61084 0.13494 0.0
H3838 H 0.24721 0.65681 0.10537 0.0
H3839 H 0.22334 0.5967 0.1372 0.0
H3840 H 0.28863 0.61249 0.17854 0.0
H3841 H 0.25145 0.61119 0.16274 0.0
H3842 H 0.27785 0.63082 0.09861 0.0
H3843 H 0.31541 0.63234 0.11471 0.0
C3844 C 0.21203 0.65406 0.10969 0.0
C3845 C 0.19431 0.64192 0.11904 0.0
C3846 C 0.23383 0.64607 0.11099 0.0
C3847 C 0.2384 0.6258 0.12184 0.0
C3848 C 0.22037 0.61254 0.12902 0.0
C3849 C 0.19845 0.62052 0.12757 0.0
C3850 C 0.2866 0.61601 0.16091 0.0
C3851 C 0.30485 0.62293 0.14795 0.0
C3852 C 0.26526 0.61502 0.15176 0.0
C3853 C 0.26157 0.62108 0.12942 0.0
C3854 C 0.28012 0.62625 0.11594 0.0
C3855 C 0.30163 0.62705 0.12511 0.0
H3856 H 0.35196 0.195 0.09839 0.0
H3857 H 0.37485 0.19397 0.16663 0.0
H3858 H 0.36055 0.23502 0.09621 0.0
H3859 H 0.38403 0.2336 0.16426 0.0
H3860 H 0.40515 0.30456 0.15147 0.0
H3861 H 0.40755 0.26462 0.14251 0.0
H3862 H 0.33903 0.26551 0.12056 0.0
H3863 H 0.33647 0.30503 0.13013 0.0
C3864 C 0.35964 0.20314 0.11258 0.0
C3865 C 0.36273 0.19152 0.13269 0.0
C3866 C 0.36446 0.22599 0.11137 0.0
C3867 C 0.37298 0.23734 0.13005 0.0
C3868 C 0.37773 0.22522 0.14953 0.0
C3869 C 0.3724 0.20259 0.15092 0.0
C3870 C 0.3909 0.29632 0.14403 0.0
C3871 C 0.37063 0.30774 0.14147 0.0
C3872 C 0.39223 0.27352 0.13901 0.0
C3873 C 0.37349 0.26205 0.1308 0.0
C3874 C 0.3538 0.27399 0.1266 0.0
C3875 C 0.3523 0.29655 0.13215 0.0
H3876 H 0.19273 0.37587 0.83694 0.0
H3877 H 0.19554 0.35811 0.90661 0.0
H3878 H 0.23091 0.38863 0.83832 0.0
H3879 H 0.23434 0.37135 0.90829 0.0
H3880 H 0.30834 0.35568 0.88255 0.0
H3881 H 0.26902 0.35629 0.89324 0.0
H3882 H 0.25861 0.41368 0.85082 0.0
H3883 H 0.29759 0.4121 0.83932 0.0
C3884 C 0.20141 0.37539 0.8528 0.0
C3885 C 0.19125 0.36596 0.87164 0.0
C3886 C 0.22335 0.38288 0.85368 0.0
C3887 C 0.23588 0.38102 0.87344 0.0
C3888 C 0.22523 0.37288 0.89277 0.0
C3889 C 0.20299 0.36553 0.89191 0.0
C3890 C 0.29777 0.36894 0.87629 0.0
C3891 C 0.30582 0.38381 0.86011 0.0
C3892 C 0.27521 0.36933 0.88239 0.0
C3893 C 0.26047 0.38473 0.8725 0.0
C3894 C 0.26934 0.40122 0.85832 0.0
C3895 C 0.2917 0.40052 0.8519 0.0
H3896 H 0.68029 0.21379 0.89377 0.0
H3897 H 0.61842 0.18526 0.87051 0.0
H3898 H 0.66433 0.25089 0.89131 0.0
H3899 H 0.60215 0.22264 0.86836 0.0
H3900 H 0.60662 0.28892 0.82573 0.0
H3901 H 0.61027 0.25171 0.84126 0.0
H3902 H 0.63768 0.27961 0.9018 0.0
H3903 H 0.63431 0.31709 0.88593 0.0
C3904 C 0.66302 0.21541 0.88874 0.0
C3905 C 0.65075 0.19662 0.88196 0.0
C3906 C 0.65376 0.23674 0.88751 0.0
C3907 C 0.63201 0.23983 0.87937 0.0
C3908 C 0.61906 0.22085 0.87442 0.0
C3909 C 0.62832 0.19942 0.87579 0.0
C3910 C 0.61283 0.28718 0.84262 0.0
C3911 C 0.62051 0.30589 0.85447 0.0
C3912 C 0.61478 0.2658 0.85162 0.0
C3913 C 0.62457 0.26259 0.87269 0.0
C3914 C 0.63036 0.2815 0.88539 0.0
C3915 C 0.62826 0.30299 0.87639 0.0
H3916 H 0.39331 0.70804 0.82737 0.0
H3917 H 0.36579 0.686 0.88994 0.0
H3918 H 0.39238 0.74658 0.84024 0.0
H3919 H 0.36528 0.72463 0.90336 0.0
H3920 H 0.32599 0.79151 0.89225 0.0
H3921 H 0.34005 0.75364 0.89169 0.0
H3922 H 0.40262 0.77725 0.86484 0.0
H3923 H 0.38816 0.81549 0.86513 0.0
C3924 C 0.38794 0.71148 0.84427 0.0
C3925 C 0.3797 0.69426 0.85774 0.0
C3926 C 0.38748 0.73354 0.85174 0.0
C3927 C 0.37854 0.73879 0.87279 0.0
C3928 C 0.37203 0.72119 0.88697 0.0
C3929 C 0.3725 0.69908 0.87943 0.0
C3930 C 0.34296 0.78872 0.88677 0.0
C3931 C 0.35584 0.80641 0.87843 0.0
C3932 C 0.35114 0.76696 0.88663 0.0
C3933 C 0.37243 0.7623 0.87801 0.0
C3934 C 0.38605 0.78026 0.87135 0.0
C3935 C 0.37786 0.80217 0.87166 0.0
loop_
_geom_bond_atom_site_label_1
_geom_bond_atom_site_label_2
_geom_bond_distance
_geom_bond_site_symmetry_2
_ccdc_geom_bond_type
Fe0 O2 1.918 . S
Fe0 O5 1.997 . S
Fe0 O6 2.002 . S
Fe0 O11 1.976 . S
Fe0 O14 1.996 . S
Fe1 O2 1.918 . S
Fe1 O9 1.997 . S
Fe1 O12 1.996 . S
Fe1 O16 1.976 . S
Fe1 O19 2.002 . S
O2 Fe0 1.918 . S
O2 Fe1 1.918 . S
O2 Fe3 1.918 . S
Fe3 O2 1.918 . S
Fe3 O4 2.002 . S
Fe3 O13 1.976 . S
Fe3 O17 1.996 . S
Fe3 O20 1.997 . S
O4 Fe3 2.002 . S
O4 C21 1.295 . S
O5 Fe0 1.997 . S
O5 C21 1.235 . S
O6 Fe0 2.002 . S
O6 C7 1.295 . S
C7 O6 1.295 . S
C7 O9 1.235 . S
C8 O13 1.287 . S
C8 O14 1.255 . S
O9 Fe1 1.997 . S
O9 C7 1.235 . S
C10 O16 1.287 . S
C10 O17 1.255 . S
O11 Fe0 1.976 . S
O11 C18 1.287 . S
O12 Fe1 1.996 . S
O12 C18 1.255 . S
O13 Fe3 1.976 . S
O13 C8 1.287 . S
O14 Fe0 1.996 . S
O14 C8 1.255 . S
C15 O19 1.295 . S
C15 O20 1.235 . S
O16 Fe1 1.976 . S
O16 C10 1.287 . S
O17 Fe3 1.996 . S
O17 C10 1.255 . S
C18 O11 1.287 . S
C18 O12 1.255 . S
O19 Fe1 2.002 . S
O19 C15 1.295 . S
O20 Fe3 1.997 . S
O20 C15 1.235 . S
C21 O4 1.295 . S
C21 O5 1.235 . S
Fe22 O24 1.918 . S
Fe22 O27 1.997 . S
Fe22 O28 2.002 . S
Fe22 O33 1.976 . S
Fe22 O36 1.996 . S
Fe23 O24 1.918 . S
Fe23 O31 1.997 . S
Fe23 O34 1.996 . S
Fe23 O38 1.976 . S
Fe23 O41 2.002 . S
O24 Fe22 1.918 . S
O24 Fe23 1.918 . S
O24 Fe25 1.918 . S
Fe25 O24 1.918 . S
Fe25 O26 2.002 . S
Fe25 O35 1.976 . S
Fe25 O39 1.996 . S
Fe25 O42 1.997 . S
O26 Fe25 2.002 . S
O26 C43 1.295 . S
O27 Fe22 1.997 . S
O27 C43 1.235 . S
O28 Fe22 2.002 . S
O28 C29 1.295 . S
C29 O28 1.295 . S
C29 O31 1.235 . S
C30 O35 1.287 . S
C30 O36 1.255 . S
O31 Fe23 1.997 . S
O31 C29 1.235 . S
C32 O38 1.287 . S
C32 O39 1.255 . S
O33 Fe22 1.976 . S
O33 C40 1.287 . S
O34 Fe23 1.996 . S
O34 C40 1.255 . S
O35 Fe25 1.976 . S
O35 C30 1.287 . S
O36 Fe22 1.996 . S
O36 C30 1.255 . S
C37 O41 1.295 . S
C37 O42 1.235 . S
O38 Fe23 1.976 . S
O38 C32 1.287 . S
O39 Fe25 1.996 . S
O39 C32 1.255 . S
C40 O33 1.287 . S
C40 O34 1.255 . S
O41 Fe23 2.002 . S
O41 C37 1.295 . S
O42 Fe25 1.997 . S
O42 C37 1.235 . S
C43 O26 1.295 . S
C43 O27 1.235 . S
Fe44 O46 1.918 . S
Fe44 O49 1.997 . S
Fe44 O50 2.002 . S
Fe44 O55 1.976 . S
Fe44 O58 1.996 . S
Fe45 O46 1.918 . S
Fe45 O53 1.997 . S
Fe45 O56 1.996 . S
Fe45 O60 1.976 . S
Fe45 O63 2.002 . S
O46 Fe44 1.918 . S
O46 Fe45 1.918 . S
O46 Fe47 1.918 . S
Fe47 O46 1.918 . S
Fe47 O48 2.002 . S
Fe47 O57 1.976 . S
Fe47 O61 1.996 . S
Fe47 O64 1.997 . S
O48 Fe47 2.002 . S
O48 C65 1.295 . S
O49 Fe44 1.997 . S
O49 C65 1.235 . S
O50 Fe44 2.002 . S
O50 C51 1.295 . S
C51 O50 1.295 . S
C51 O53 1.235 . S
C52 O57 1.287 . S
C52 O58 1.255 . S
O53 Fe45 1.997 . S
O53 C51 1.235 . S
C54 O60 1.287 . S
C54 O61 1.255 . S
O55 Fe44 1.976 . S
O55 C62 1.287 . S
O56 Fe45 1.996 . S
O56 C62 1.255 . S
O57 Fe47 1.976 . S
O57 C52 1.287 . S
O58 Fe44 1.996 . S
O58 C52 1.255 . S
C59 O63 1.295 . S
C59 O64 1.235 . S
O60 Fe45 1.976 . S
O60 C54 1.287 . S
O61 Fe47 1.996 . S
O61 C54 1.255 . S
C62 O55 1.287 . S
C62 O56 1.255 . S
O63 Fe45 2.002 . S
O63 C59 1.295 . S
O64 Fe47 1.997 . S
O64 C59 1.235 . S
C65 O48 1.295 . S
C65 O49 1.235 . S
Fe66 O68 1.918 . S
Fe66 O71 1.997 . S
Fe66 O72 2.002 . S
Fe66 O77 1.976 . S
Fe66 O80 1.996 . S
Fe67 O68 1.918 . S
Fe67 O75 1.997 . S
Fe67 O78 1.996 . S
Fe67 O82 1.976 . S
Fe67 O85 2.002 . S
O68 Fe66 1.918 . S
O68 Fe67 1.918 . S
O68 Fe69 1.918 . S
Fe69 O68 1.918 . S
Fe69 O70 2.002 . S
Fe69 O79 1.976 . S
Fe69 O83 1.996 . S
Fe69 O86 1.997 . S
O70 Fe69 2.002 . S
O70 C87 1.295 . S
O71 Fe66 1.997 . S
O71 C87 1.235 . S
O72 Fe66 2.002 . S
O72 C73 1.295 . S
C73 O72 1.295 . S
C73 O75 1.235 . S
C74 O79 1.287 . S
C74 O80 1.255 . S
O75 Fe67 1.997 . S
O75 C73 1.235 . S
C76 O82 1.287 . S
C76 O83 1.255 . S
O77 Fe66 1.976 . S
O77 C84 1.287 . S
O78 Fe67 1.996 . S
O78 C84 1.255 . S
O79 Fe69 1.976 . S
O79 C74 1.287 . S
O80 Fe66 1.996 . S
O80 C74 1.255 . S
C81 O85 1.295 . S
C81 O86 1.235 . S
O82 Fe67 1.976 . S
O82 C76 1.287 . S
O83 Fe69 1.996 . S
O83 C76 1.255 . S
C84 O77 1.287 . S
C84 O78 1.255 . S
O85 Fe67 2.002 . S
O85 C81 1.295 . S
O86 Fe69 1.997 . S
O86 C81 1.235 . S
C87 O70 1.295 . S
C87 O71 1.235 . S
Fe88 O90 1.918 . S
Fe88 O93 1.997 . S
Fe88 O94 2.002 . S
Fe88 O99 1.976 . S
Fe88 O102 1.996 . S
Fe89 O90 1.918 . S
Fe89 O97 1.997 . S
Fe89 O100 1.996 . S
Fe89 O104 1.976 . S
Fe89 O107 2.002 . S
O90 Fe88 1.918 . S
O90 Fe89 1.918 . S
O90 Fe91 1.918 . S
Fe91 O90 1.918 . S
Fe91 O92 2.002 . S
Fe91 O101 1.976 . S
Fe91 O105 1.996 . S
Fe91 O108 1.997 . S
O92 Fe91 2.002 . S
O92 C109 1.295 . S
O93 Fe88 1.997 . S
O93 C109 1.235 . S
O94 Fe88 2.002 . S
O94 C95 1.295 . S
C95 O94 1.295 . S
C95 O97 1.235 . S
C96 O101 1.287 . S
C96 O102 1.255 . S
O97 Fe89 1.997 . S
O97 C95 1.235 . S
C98 O104 1.287 . S
C98 O105 1.255 . S
O99 Fe88 1.976 . S
O99 C106 1.287 . S
O100 Fe89 1.996 . S
O100 C106 1.255 . S
O101 Fe91 1.976 . S
O101 C96 1.287 . S
O102 Fe88 1.996 . S
O102 C96 1.255 . S
C103 O107 1.295 . S
C103 O108 1.235 . S
O104 Fe89 1.976 . S
O104 C98 1.287 . S
O105 Fe91 1.996 . S
O105 C98 1.255 . S
C106 O99 1.287 . S
C106 O100 1.255 . S
O107 Fe89 2.002 . S
O107 C103 1.295 . S
O108 Fe91 1.997 . S
O108 C103 1.235 . S
C109 O92 1.295 . S
C109 O93 1.235 . S
Fe110 O112 1.918 . S
Fe110 O115 1.997 . S
Fe110 O116 2.002 . S
Fe110 O121 1.976 . S
Fe110 O124 1.996 . S
Fe111 O112 1.918 . S
Fe111 O119 1.997 . S
Fe111 O122 1.996 . S
Fe111 O126 1.976 . S
Fe111 O129 2.002 . S
O112 Fe110 1.918 . S
O112 Fe111 1.918 . S
O112 Fe113 1.918 . S
Fe113 O112 1.918 . S
Fe113 O114 2.002 . S
Fe113 O123 1.976 . S
Fe113 O127 1.996 . S
Fe113 O130 1.997 . S
O114 Fe113 2.002 . S
O114 C131 1.295 . S
O115 Fe110 1.997 . S
O115 C131 1.235 . S
O116 Fe110 2.002 . S
O116 C117 1.295 . S
C117 O116 1.295 . S
C117 O119 1.235 . S
C118 O123 1.287 . S
C118 O124 1.255 . S
O119 Fe111 1.997 . S
O119 C117 1.235 . S
C120 O126 1.287 . S
C120 O127 1.255 . S
O121 Fe110 1.976 . S
O121 C128 1.287 . S
O122 Fe111 1.996 . S
O122 C128 1.255 . S
O123 Fe113 1.976 . S
O123 C118 1.287 . S
O124 Fe110 1.996 . S
O124 C118 1.255 . S
C125 O129 1.295 . S
C125 O130 1.235 . S
O126 Fe111 1.976 . S
O126 C120 1.287 . S
O127 Fe113 1.996 . S
O127 C120 1.255 . S
C128 O121 1.287 . S
C128 O122 1.255 . S
O129 Fe111 2.002 . S
O129 C125 1.295 . S
O130 Fe113 1.997 . S
O130 C125 1.235 . S
C131 O114 1.295 . S
C131 O115 1.235 . S
Fe132 O134 1.918 . S
Fe132 O137 1.997 . S
Fe132 O138 2.002 . S
Fe132 O143 1.976 . S
Fe132 O146 1.996 . S
Fe133 O134 1.918 . S
Fe133 O141 1.997 . S
Fe133 O144 1.996 . S
Fe133 O148 1.976 . S
Fe133 O151 2.002 . S
O134 Fe132 1.918 . S
O134 Fe133 1.918 . S
O134 Fe135 1.918 . S
Fe135 O134 1.918 . S
Fe135 O136 2.002 . S
Fe135 O145 1.976 . S
Fe135 O149 1.996 . S
Fe135 O152 1.997 . S
O136 Fe135 2.002 . S
O136 C153 1.295 . S
O137 Fe132 1.997 . S
O137 C153 1.235 . S
O138 Fe132 2.002 . S
O138 C139 1.295 . S
C139 O138 1.295 . S
C139 O141 1.235 . S
C140 O145 1.287 . S
C140 O146 1.255 . S
O141 Fe133 1.997 . S
O141 C139 1.235 . S
C142 O148 1.287 . S
C142 O149 1.255 . S
O143 Fe132 1.976 . S
O143 C150 1.287 . S
O144 Fe133 1.996 . S
O144 C150 1.255 . S
O145 Fe135 1.976 . S
O145 C140 1.287 . S
O146 Fe132 1.996 . S
O146 C140 1.255 . S
C147 O151 1.295 . S
C147 O152 1.235 . S
O148 Fe133 1.976 . S
O148 C142 1.287 . S
O149 Fe135 1.996 . S
O149 C142 1.255 . S
C150 O143 1.287 . S
C150 O144 1.255 . S
O151 Fe133 2.002 . S
O151 C147 1.295 . S
O152 Fe135 1.997 . S
O152 C147 1.235 . S
C153 O136 1.295 . S
C153 O137 1.235 . S
Fe154 O156 1.918 . S
Fe154 O159 1.997 . S
Fe154 O160 2.002 . S
Fe154 O165 1.976 . S
Fe154 O168 1.996 . S
Fe155 O156 1.918 . S
Fe155 O163 1.997 . S
Fe155 O166 1.996 . S
Fe155 O170 1.976 . S
Fe155 O173 2.002 . S
O156 Fe154 1.918 . S
O156 Fe155 1.918 . S
O156 Fe157 1.918 . S
Fe157 O156 1.918 . S
Fe157 O158 2.002 . S
Fe157 O167 1.976 . S
Fe157 O171 1.996 . S
Fe157 O174 1.997 . S
O158 Fe157 2.002 . S
O158 C175 1.295 . S
O159 Fe154 1.997 . S
O159 C175 1.235 . S
O160 Fe154 2.002 . S
O160 C161 1.295 . S
C161 O160 1.295 . S
C161 O163 1.235 . S
C162 O167 1.287 . S
C162 O168 1.255 . S
O163 Fe155 1.997 . S
O163 C161 1.235 . S
C164 O170 1.287 . S
C164 O171 1.255 . S
O165 Fe154 1.976 . S
O165 C172 1.287 . S
O166 Fe155 1.996 . S
O166 C172 1.255 . S
O167 Fe157 1.976 . S
O167 C162 1.287 . S
O168 Fe154 1.996 . S
O168 C162 1.255 . S
C169 O173 1.295 . S
C169 O174 1.235 . S
O170 Fe155 1.976 . S
O170 C164 1.287 . S
O171 Fe157 1.996 . S
O171 C164 1.255 . S
C172 O165 1.287 . S
C172 O166 1.255 . S
O173 Fe155 2.002 . S
O173 C169 1.295 . S
O174 Fe157 1.997 . S
O174 C169 1.235 . S
C175 O158 1.295 . S
C175 O159 1.235 . S
Fe176 O178 1.918 . S
Fe176 O181 1.997 . S
Fe176 O182 2.002 . S
Fe176 O187 1.976 . S
Fe176 O190 1.996 . S
Fe177 O178 1.918 . S
Fe177 O185 1.997 . S
Fe177 O188 1.996 . S
Fe177 O192 1.976 . S
Fe177 O195 2.002 . S
O178 Fe176 1.918 . S
O178 Fe177 1.918 . S
O178 Fe179 1.918 . S
Fe179 O178 1.918 . S
Fe179 O180 2.002 . S
Fe179 O189 1.976 . S
Fe179 O193 1.996 . S
Fe179 O196 1.997 . S
O180 Fe179 2.002 . S
O180 C197 1.295 . S
O181 Fe176 1.997 . S
O181 C197 1.235 . S
O182 Fe176 2.002 . S
O182 C183 1.295 . S
C183 O182 1.295 . S
C183 O185 1.235 . S
C184 O189 1.287 . S
C184 O190 1.255 . S
O185 Fe177 1.997 . S
O185 C183 1.235 . S
C186 O192 1.287 . S
C186 O193 1.255 . S
O187 Fe176 1.976 . S
O187 C194 1.287 . S
O188 Fe177 1.996 . S
O188 C194 1.255 . S
O189 Fe179 1.976 . S
O189 C184 1.287 . S
O190 Fe176 1.996 . S
O190 C184 1.255 . S
C191 O195 1.295 . S
C191 O196 1.235 . S
O192 Fe177 1.976 . S
O192 C186 1.287 . S
O193 Fe179 1.996 . S
O193 C186 1.255 . S
C194 O187 1.287 . S
C194 O188 1.255 . S
O195 Fe177 2.002 . S
O195 C191 1.295 . S
O196 Fe179 1.997 . S
O196 C191 1.235 . S
C197 O180 1.295 . S
C197 O181 1.235 . S
Fe198 O200 1.918 . S
Fe198 O203 1.997 . S
Fe198 O204 2.002 . S
Fe198 O209 1.976 . S
Fe198 O212 1.996 . S
Fe199 O200 1.918 . S
Fe199 O207 1.997 . S
Fe199 O210 1.996 . S
Fe199 O214 1.976 . S
Fe199 O217 2.002 . S
O200 Fe198 1.918 . S
O200 Fe199 1.918 . S
O200 Fe201 1.918 . S
Fe201 O200 1.918 . S
Fe201 O202 2.002 . S
Fe201 O211 1.976 . S
Fe201 O215 1.996 . S
Fe201 O218 1.997 . S
O202 Fe201 2.002 . S
O202 C219 1.295 . S
O203 Fe198 1.997 . S
O203 C219 1.235 . S
O204 Fe198 2.002 . S
O204 C205 1.295 . S
C205 O204 1.295 . S
C205 O207 1.235 . S
C206 O211 1.287 . S
C206 O212 1.255 . S
O207 Fe199 1.997 . S
O207 C205 1.235 . S
C208 O214 1.287 . S
C208 O215 1.255 . S
O209 Fe198 1.976 . S
O209 C216 1.287 . S
O210 Fe199 1.996 . S
O210 C216 1.255 . S
O211 Fe201 1.976 . S
O211 C206 1.287 . S
O212 Fe198 1.996 . S
O212 C206 1.255 . S
C213 O217 1.295 . S
C213 O218 1.235 . S
O214 Fe199 1.976 . S
O214 C208 1.287 . S
O215 Fe201 1.996 . S
O215 C208 1.255 . S
C216 O209 1.287 . S
C216 O210 1.255 . S
O217 Fe199 2.002 . S
O217 C213 1.295 . S
O218 Fe201 1.997 . S
O218 C213 1.235 . S
C219 O202 1.295 . S
C219 O203 1.235 . S
Fe220 O222 1.918 . S
Fe220 O225 1.997 . S
Fe220 O226 2.002 . S
Fe220 O231 1.976 . S
Fe220 O234 1.996 . S
Fe221 O222 1.918 . S
Fe221 O229 1.997 . S
Fe221 O232 1.996 . S
Fe221 O236 1.976 . S
Fe221 O239 2.002 . S
O222 Fe220 1.918 . S
O222 Fe221 1.918 . S
O222 Fe223 1.918 . S
Fe223 O222 1.918 . S
Fe223 O224 2.002 . S
Fe223 O233 1.976 . S
Fe223 O237 1.996 . S
Fe223 O240 1.997 . S
O224 Fe223 2.002 . S
O224 C241 1.295 . S
O225 Fe220 1.997 . S
O225 C241 1.235 . S
O226 Fe220 2.002 . S
O226 C227 1.295 . S
C227 O226 1.295 . S
C227 O229 1.235 . S
C228 O233 1.287 . S
C228 O234 1.255 . S
O229 Fe221 1.997 . S
O229 C227 1.235 . S
C230 O236 1.287 . S
C230 O237 1.255 . S
O231 Fe220 1.976 . S
O231 C238 1.287 . S
O232 Fe221 1.996 . S
O232 C238 1.255 . S
O233 Fe223 1.976 . S
O233 C228 1.287 . S
O234 Fe220 1.996 . S
O234 C228 1.255 . S
C235 O239 1.295 . S
C235 O240 1.235 . S
O236 Fe221 1.976 . S
O236 C230 1.287 . S
O237 Fe223 1.996 . S
O237 C230 1.255 . S
C238 O231 1.287 . S
C238 O232 1.255 . S
O239 Fe221 2.002 . S
O239 C235 1.295 . S
O240 Fe223 1.997 . S
O240 C235 1.235 . S
C241 O224 1.295 . S
C241 O225 1.235 . S
Fe242 O244 1.918 . S
Fe242 O247 1.997 . S
Fe242 O248 2.002 . S
Fe242 O253 1.976 . S
Fe242 O256 1.996 . S
Fe243 O244 1.918 . S
Fe243 O251 1.997 . S
Fe243 O254 1.996 . S
Fe243 O258 1.976 . S
Fe243 O261 2.002 . S
O244 Fe242 1.918 . S
O244 Fe243 1.918 . S
O244 Fe245 1.918 . S
Fe245 O244 1.918 . S
Fe245 O246 2.002 . S
Fe245 O255 1.976 . S
Fe245 O259 1.996 . S
Fe245 O262 1.997 . S
O246 Fe245 2.002 . S
O246 C263 1.295 . S
O247 Fe242 1.997 . S
O247 C263 1.235 . S
O248 Fe242 2.002 . S
O248 C249 1.295 . S
C249 O248 1.295 . S
C249 O251 1.235 . S
C250 O255 1.287 . S
C250 O256 1.255 . S
O251 Fe243 1.997 . S
O251 C249 1.235 . S
C252 O258 1.287 . S
C252 O259 1.255 . S
O253 Fe242 1.976 . S
O253 C260 1.287 . S
O254 Fe243 1.996 . S
O254 C260 1.255 . S
O255 Fe245 1.976 . S
O255 C250 1.287 . S
O256 Fe242 1.996 . S
O256 C250 1.255 . S
C257 O261 1.295 . S
C257 O262 1.235 . S
O258 Fe243 1.976 . S
O258 C252 1.287 . S
O259 Fe245 1.996 . S
O259 C252 1.255 . S
C260 O253 1.287 . S
C260 O254 1.255 . S
O261 Fe243 2.002 . S
O261 C257 1.295 . S
O262 Fe245 1.997 . S
O262 C257 1.235 . S
C263 O246 1.295 . S
C263 O247 1.235 . S
Fe264 O266 1.918 . S
Fe264 O269 1.997 . S
Fe264 O270 2.002 . S
Fe264 O275 1.976 . S
Fe264 O278 1.996 . S
Fe265 O266 1.918 . S
Fe265 O273 1.997 . S
Fe265 O276 1.996 . S
Fe265 O280 1.976 . S
Fe265 O283 2.002 . S
O266 Fe264 1.918 . S
O266 Fe265 1.918 . S
O266 Fe267 1.918 . S
Fe267 O266 1.918 . S
Fe267 O268 2.002 . S
Fe267 O277 1.976 . S
Fe267 O281 1.996 . S
Fe267 O284 1.997 . S
O268 Fe267 2.002 . S
O268 C285 1.295 . S
O269 Fe264 1.997 . S
O269 C285 1.235 . S
O270 Fe264 2.002 . S
O270 C271 1.295 . S
C271 O270 1.295 . S
C271 O273 1.235 . S
C272 O277 1.287 . S
C272 O278 1.255 . S
O273 Fe265 1.997 . S
O273 C271 1.235 . S
C274 O280 1.287 . S
C274 O281 1.255 . S
O275 Fe264 1.976 . S
O275 C282 1.287 . S
O276 Fe265 1.996 . S
O276 C282 1.255 . S
O277 Fe267 1.976 . S
O277 C272 1.287 . S
O278 Fe264 1.996 . S
O278 C272 1.255 . S
C279 O283 1.295 . S
C279 O284 1.235 . S
O280 Fe265 1.976 . S
O280 C274 1.287 . S
O281 Fe267 1.996 . S
O281 C274 1.255 . S
C282 O275 1.287 . S
C282 O276 1.255 . S
O283 Fe265 2.002 . S
O283 C279 1.295 . S
O284 Fe267 1.997 . S
O284 C279 1.235 . S
C285 O268 1.295 . S
C285 O269 1.235 . S
Fe286 O288 1.918 . S
Fe286 O291 1.997 . S
Fe286 O292 2.002 . S
Fe286 O297 1.976 . S
Fe286 O300 1.996 . S
Fe287 O288 1.918 . S
Fe287 O295 1.997 . S
Fe287 O298 1.996 . S
Fe287 O302 1.976 . S
Fe287 O305 2.002 . S
O288 Fe286 1.918 . S
O288 Fe287 1.918 . S
O288 Fe289 1.918 . S
Fe289 O288 1.918 . S
Fe289 O290 2.002 . S
Fe289 O299 1.976 . S
Fe289 O303 1.996 . S
Fe289 O306 1.997 . S
O290 Fe289 2.002 . S
O290 C307 1.295 . S
O291 Fe286 1.997 . S
O291 C307 1.235 . S
O292 Fe286 2.002 . S
O292 C293 1.295 . S
C293 O292 1.295 . S
C293 O295 1.235 . S
C294 O299 1.287 . S
C294 O300 1.255 . S
O295 Fe287 1.997 . S
O295 C293 1.235 . S
C296 O302 1.287 . S
C296 O303 1.255 . S
O297 Fe286 1.976 . S
O297 C304 1.287 . S
O298 Fe287 1.996 . S
O298 C304 1.255 . S
O299 Fe289 1.976 . S
O299 C294 1.287 . S
O300 Fe286 1.996 . S
O300 C294 1.255 . S
C301 O305 1.295 . S
C301 O306 1.235 . S
O302 Fe287 1.976 . S
O302 C296 1.287 . S
O303 Fe289 1.996 . S
O303 C296 1.255 . S
C304 O297 1.287 . S
C304 O298 1.255 . S
O305 Fe287 2.002 . S
O305 C301 1.295 . S
O306 Fe289 1.997 . S
O306 C301 1.235 . S
C307 O290 1.295 . S
C307 O291 1.235 . S
Fe308 O310 1.918 . S
Fe308 O313 1.997 . S
Fe308 O314 2.002 . S
Fe308 O319 1.976 . S
Fe308 O322 1.996 . S
Fe309 O310 1.918 . S
Fe309 O317 1.997 . S
Fe309 O320 1.996 . S
Fe309 O324 1.976 . S
Fe309 O327 2.002 . S
O310 Fe308 1.918 . S
O310 Fe309 1.918 . S
O310 Fe311 1.918 . S
Fe311 O310 1.918 . S
Fe311 O312 2.002 . S
Fe311 O321 1.976 . S
Fe311 O325 1.996 . S
Fe311 O328 1.997 . S
O312 Fe311 2.002 . S
O312 C329 1.295 . S
O313 Fe308 1.997 . S
O313 C329 1.235 . S
O314 Fe308 2.002 . S
O314 C315 1.295 . S
C315 O314 1.295 . S
C315 O317 1.235 . S
C316 O321 1.287 . S
C316 O322 1.255 . S
O317 Fe309 1.997 . S
O317 C315 1.235 . S
C318 O324 1.287 . S
C318 O325 1.255 . S
O319 Fe308 1.976 . S
O319 C326 1.287 . S
O320 Fe309 1.996 . S
O320 C326 1.255 . S
O321 Fe311 1.976 . S
O321 C316 1.287 . S
O322 Fe308 1.996 . S
O322 C316 1.255 . S
C323 O327 1.295 . S
C323 O328 1.235 . S
O324 Fe309 1.976 . S
O324 C318 1.287 . S
O325 Fe311 1.996 . S
O325 C318 1.255 . S
C326 O319 1.287 . S
C326 O320 1.255 . S
O327 Fe309 2.002 . S
O327 C323 1.295 . S
O328 Fe311 1.997 . S
O328 C323 1.235 . S
C329 O312 1.295 . S
C329 O313 1.235 . S
Fe330 O332 1.918 . S
Fe330 O335 1.997 . S
Fe330 O336 2.002 . S
Fe330 O341 1.976 . S
Fe330 O344 1.996 . S
Fe331 O332 1.918 . S
Fe331 O339 1.997 . S
Fe331 O342 1.996 . S
Fe331 O346 1.976 . S
Fe331 O349 2.002 . S
O332 Fe330 1.918 . S
O332 Fe331 1.918 . S
O332 Fe333 1.918 . S
Fe333 O332 1.918 . S
Fe333 O334 2.002 . S
Fe333 O343 1.976 . S
Fe333 O347 1.996 . S
Fe333 O350 1.997 . S
O334 Fe333 2.002 . S
O334 C351 1.295 . S
O335 Fe330 1.997 . S
O335 C351 1.235 . S
O336 Fe330 2.002 . S
O336 C337 1.295 . S
C337 O336 1.295 . S
C337 O339 1.235 . S
C338 O343 1.287 . S
C338 O344 1.255 . S
O339 Fe331 1.997 . S
O339 C337 1.235 . S
C340 O346 1.287 . S
C340 O347 1.255 . S
O341 Fe330 1.976 . S
O341 C348 1.287 . S
O342 Fe331 1.996 . S
O342 C348 1.255 . S
O343 Fe333 1.976 . S
O343 C338 1.287 . S
O344 Fe330 1.996 . S
O344 C338 1.255 . S
C345 O349 1.295 . S
C345 O350 1.235 . S
O346 Fe331 1.976 . S
O346 C340 1.287 . S
O347 Fe333 1.996 . S
O347 C340 1.255 . S
C348 O341 1.287 . S
C348 O342 1.255 . S
O349 Fe331 2.002 . S
O349 C345 1.295 . S
O350 Fe333 1.997 . S
O350 C345 1.235 . S
C351 O334 1.295 . S
C351 O335 1.235 . S
Fe352 O354 1.918 . S
Fe352 O357 1.997 . S
Fe352 O358 2.002 . S
Fe352 O363 1.976 . S
Fe352 O366 1.996 . S
Fe353 O354 1.918 . S
Fe353 O361 1.997 . S
Fe353 O364 1.996 . S
Fe353 O368 1.976 . S
Fe353 O371 2.002 . S
O354 Fe352 1.918 . S
O354 Fe353 1.918 . S
O354 Fe355 1.918 . S
Fe355 O354 1.918 . S
Fe355 O356 2.002 . S
Fe355 O365 1.976 . S
Fe355 O369 1.996 . S
Fe355 O372 1.997 . S
O356 Fe355 2.002 . S
O356 C373 1.295 . S
O357 Fe352 1.997 . S
O357 C373 1.235 . S
O358 Fe352 2.002 . S
O358 C359 1.295 . S
C359 O358 1.295 . S
C359 O361 1.235 . S
C360 O365 1.287 . S
C360 O366 1.255 . S
O361 Fe353 1.997 . S
O361 C359 1.235 . S
C362 O368 1.287 . S
C362 O369 1.255 . S
O363 Fe352 1.976 . S
O363 C370 1.287 . S
O364 Fe353 1.996 . S
O364 C370 1.255 . S
O365 Fe355 1.976 . S
O365 C360 1.287 . S
O366 Fe352 1.996 . S
O366 C360 1.255 . S
C367 O371 1.295 . S
C367 O372 1.235 . S
O368 Fe353 1.976 . S
O368 C362 1.287 . S
O369 Fe355 1.996 . S
O369 C362 1.255 . S
C370 O363 1.287 . S
C370 O364 1.255 . S
O371 Fe353 2.002 . S
O371 C367 1.295 . S
O372 Fe355 1.997 . S
O372 C367 1.235 . S
C373 O356 1.295 . S
C373 O357 1.235 . S
Fe374 O376 1.918 . S
Fe374 O379 1.997 . S
Fe374 O380 2.002 . S
Fe374 O385 1.976 . S
Fe374 O388 1.996 . S
Fe375 O376 1.918 . S
Fe375 O383 1.997 . S
Fe375 O386 1.996 . S
Fe375 O390 1.976 . S
Fe375 O393 2.002 . S
O376 Fe374 1.918 . S
O376 Fe375 1.918 . S
O376 Fe377 1.918 . S
Fe377 O376 1.918 . S
Fe377 O378 2.002 . S
Fe377 O387 1.976 . S
Fe377 O391 1.996 . S
Fe377 O394 1.997 . S
O378 Fe377 2.002 . S
O378 C395 1.295 . S
O379 Fe374 1.997 . S
O379 C395 1.235 . S
O380 Fe374 2.002 . S
O380 C381 1.295 . S
C381 O380 1.295 . S
C381 O383 1.235 . S
C382 O387 1.287 . S
C382 O388 1.255 . S
O383 Fe375 1.997 . S
O383 C381 1.235 . S
C384 O390 1.287 . S
C384 O391 1.255 . S
O385 Fe374 1.976 . S
O385 C392 1.287 . S
O386 Fe375 1.996 . S
O386 C392 1.255 . S
O387 Fe377 1.976 . S
O387 C382 1.287 . S
O388 Fe374 1.996 . S
O388 C382 1.255 . S
C389 O393 1.295 . S
C389 O394 1.235 . S
O390 Fe375 1.976 . S
O390 C384 1.287 . S
O391 Fe377 1.996 . S
O391 C384 1.255 . S
C392 O385 1.287 . S
C392 O386 1.255 . S
O393 Fe375 2.002 . S
O393 C389 1.295 . S
O394 Fe377 1.997 . S
O394 C389 1.235 . S
C395 O378 1.295 . S
C395 O379 1.235 . S
Fe396 O398 1.918 . S
Fe396 O401 1.997 . S
Fe396 O402 2.002 . S
Fe396 O407 1.976 . S
Fe396 O410 1.996 . S
Fe397 O398 1.918 . S
Fe397 O405 1.997 . S
Fe397 O408 1.996 . S
Fe397 O412 1.976 . S
Fe397 O415 2.002 . S
O398 Fe396 1.918 . S
O398 Fe397 1.918 . S
O398 Fe399 1.918 . S
Fe399 O398 1.918 . S
Fe399 O400 2.002 . S
Fe399 O409 1.976 . S
Fe399 O413 1.996 . S
Fe399 O416 1.997 . S
O400 Fe399 2.002 . S
O400 C417 1.295 . S
O401 Fe396 1.997 . S
O401 C417 1.235 . S
O402 Fe396 2.002 . S
O402 C403 1.295 . S
C403 O402 1.295 . S
C403 O405 1.235 . S
C404 O409 1.287 . S
C404 O410 1.255 . S
O405 Fe397 1.997 . S
O405 C403 1.235 . S
C406 O412 1.287 . S
C406 O413 1.255 . S
O407 Fe396 1.976 . S
O407 C414 1.287 . S
O408 Fe397 1.996 . S
O408 C414 1.255 . S
O409 Fe399 1.976 . S
O409 C404 1.287 . S
O410 Fe396 1.996 . S
O410 C404 1.255 . S
C411 O415 1.295 . S
C411 O416 1.235 . S
O412 Fe397 1.976 . S
O412 C406 1.287 . S
O413 Fe399 1.996 . S
O413 C406 1.255 . S
C414 O407 1.287 . S
C414 O408 1.255 . S
O415 Fe397 2.002 . S
O415 C411 1.295 . S
O416 Fe399 1.997 . S
O416 C411 1.235 . S
C417 O400 1.295 . S
C417 O401 1.235 . S
Fe418 O420 1.918 . S
Fe418 O423 1.997 . S
Fe418 O424 2.002 . S
Fe418 O429 1.976 . S
Fe418 O432 1.996 . S
Fe419 O420 1.918 . S
Fe419 O427 1.997 . S
Fe419 O430 1.996 . S
Fe419 O434 1.976 . S
Fe419 O437 2.002 . S
O420 Fe418 1.918 . S
O420 Fe419 1.918 . S
O420 Fe421 1.918 . S
Fe421 O420 1.918 . S
Fe421 O422 2.002 . S
Fe421 O431 1.976 . S
Fe421 O435 1.996 . S
Fe421 O438 1.997 . S
O422 Fe421 2.002 . S
O422 C439 1.295 . S
O423 Fe418 1.997 . S
O423 C439 1.235 . S
O424 Fe418 2.002 . S
O424 C425 1.295 . S
C425 O424 1.295 . S
C425 O427 1.235 . S
C426 O431 1.287 . S
C426 O432 1.255 . S
O427 Fe419 1.997 . S
O427 C425 1.235 . S
C428 O434 1.287 . S
C428 O435 1.255 . S
O429 Fe418 1.976 . S
O429 C436 1.287 . S
O430 Fe419 1.996 . S
O430 C436 1.255 . S
O431 Fe421 1.976 . S
O431 C426 1.287 . S
O432 Fe418 1.996 . S
O432 C426 1.255 . S
C433 O437 1.295 . S
C433 O438 1.235 . S
O434 Fe419 1.976 . S
O434 C428 1.287 . S
O435 Fe421 1.996 . S
O435 C428 1.255 . S
C436 O429 1.287 . S
C436 O430 1.255 . S
O437 Fe419 2.002 . S
O437 C433 1.295 . S
O438 Fe421 1.997 . S
O438 C433 1.235 . S
C439 O422 1.295 . S
C439 O423 1.235 . S
Fe440 O442 1.918 . S
Fe440 O445 1.997 . S
Fe440 O446 2.002 . S
Fe440 O451 1.976 . S
Fe440 O454 1.996 . S
Fe441 O442 1.918 . S
Fe441 O449 1.997 . S
Fe441 O452 1.996 . S
Fe441 O456 1.976 . S
Fe441 O459 2.002 . S
O442 Fe440 1.918 . S
O442 Fe441 1.918 . S
O442 Fe443 1.918 . S
Fe443 O442 1.918 . S
Fe443 O444 2.002 . S
Fe443 O453 1.976 . S
Fe443 O457 1.996 . S
Fe443 O460 1.997 . S
O444 Fe443 2.002 . S
O444 C461 1.295 . S
O445 Fe440 1.997 . S
O445 C461 1.235 . S
O446 Fe440 2.002 . S
O446 C447 1.295 . S
C447 O446 1.295 . S
C447 O449 1.235 . S
C448 O453 1.287 . S
C448 O454 1.255 . S
O449 Fe441 1.997 . S
O449 C447 1.235 . S
C450 O456 1.287 . S
C450 O457 1.255 . S
O451 Fe440 1.976 . S
O451 C458 1.287 . S
O452 Fe441 1.996 . S
O452 C458 1.255 . S
O453 Fe443 1.976 . S
O453 C448 1.287 . S
O454 Fe440 1.996 . S
O454 C448 1.255 . S
C455 O459 1.295 . S
C455 O460 1.235 . S
O456 Fe441 1.976 . S
O456 C450 1.287 . S
O457 Fe443 1.996 . S
O457 C450 1.255 . S
C458 O451 1.287 . S
C458 O452 1.255 . S
O459 Fe441 2.002 . S
O459 C455 1.295 . S
O460 Fe443 1.997 . S
O460 C455 1.235 . S
C461 O444 1.295 . S
C461 O445 1.235 . S
Fe462 O464 1.918 . S
Fe462 O467 1.997 . S
Fe462 O468 2.002 . S
Fe462 O473 1.976 . S
Fe462 O476 1.996 . S
Fe463 O464 1.918 . S
Fe463 O471 1.997 . S
Fe463 O474 1.996 . S
Fe463 O478 1.976 . S
Fe463 O481 2.002 . S
O464 Fe462 1.918 . S
O464 Fe463 1.918 . S
O464 Fe465 1.918 . S
Fe465 O464 1.918 . S
Fe465 O466 2.002 . S
Fe465 O475 1.976 . S
Fe465 O479 1.996 . S
Fe465 O482 1.997 . S
O466 Fe465 2.002 . S
O466 C483 1.295 . S
O467 Fe462 1.997 . S
O467 C483 1.235 . S
O468 Fe462 2.002 . S
O468 C469 1.295 . S
C469 O468 1.295 . S
C469 O471 1.235 . S
C470 O475 1.287 . S
C470 O476 1.255 . S
O471 Fe463 1.997 . S
O471 C469 1.235 . S
C472 O478 1.287 . S
C472 O479 1.255 . S
O473 Fe462 1.976 . S
O473 C480 1.287 . S
O474 Fe463 1.996 . S
O474 C480 1.255 . S
O475 Fe465 1.976 . S
O475 C470 1.287 . S
O476 Fe462 1.996 . S
O476 C470 1.255 . S
C477 O481 1.295 . S
C477 O482 1.235 . S
O478 Fe463 1.976 . S
O478 C472 1.287 . S
O479 Fe465 1.996 . S
O479 C472 1.255 . S
C480 O473 1.287 . S
C480 O474 1.255 . S
O481 Fe463 2.002 . S
O481 C477 1.295 . S
O482 Fe465 1.997 . S
O482 C477 1.235 . S
C483 O466 1.295 . S
C483 O467 1.235 . S
Fe484 O486 1.918 . S
Fe484 O489 1.997 . S
Fe484 O490 2.002 . S
Fe484 O495 1.976 . S
Fe484 O498 1.996 . S
Fe485 O486 1.918 . S
Fe485 O493 1.997 . S
Fe485 O496 1.996 . S
Fe485 O500 1.976 . S
Fe485 O503 2.002 . S
O486 Fe484 1.918 . S
O486 Fe485 1.918 . S
O486 Fe487 1.918 . S
Fe487 O486 1.918 . S
Fe487 O488 2.002 . S
Fe487 O497 1.976 . S
Fe487 O501 1.996 . S
Fe487 O504 1.997 . S
O488 Fe487 2.002 . S
O488 C505 1.295 . S
O489 Fe484 1.997 . S
O489 C505 1.235 . S
O490 Fe484 2.002 . S
O490 C491 1.295 . S
C491 O490 1.295 . S
C491 O493 1.235 . S
C492 O497 1.287 . S
C492 O498 1.255 . S
O493 Fe485 1.997 . S
O493 C491 1.235 . S
C494 O500 1.287 . S
C494 O501 1.255 . S
O495 Fe484 1.976 . S
O495 C502 1.287 . S
O496 Fe485 1.996 . S
O496 C502 1.255 . S
O497 Fe487 1.976 . S
O497 C492 1.287 . S
O498 Fe484 1.996 . S
O498 C492 1.255 . S
C499 O503 1.295 . S
C499 O504 1.235 . S
O500 Fe485 1.976 . S
O500 C494 1.287 . S
O501 Fe487 1.996 . S
O501 C494 1.255 . S
C502 O495 1.287 . S
C502 O496 1.255 . S
O503 Fe485 2.002 . S
O503 C499 1.295 . S
O504 Fe487 1.997 . S
O504 C499 1.235 . S
C505 O488 1.295 . S
C505 O489 1.235 . S
Fe506 O508 1.918 . S
Fe506 O511 1.997 . S
Fe506 O512 2.002 . S
Fe506 O517 1.976 . S
Fe506 O520 1.996 . S
Fe507 O508 1.918 . S
Fe507 O515 1.997 . S
Fe507 O518 1.996 . S
Fe507 O522 1.976 . S
Fe507 O525 2.002 . S
O508 Fe506 1.918 . S
O508 Fe507 1.918 . S
O508 Fe509 1.918 . S
Fe509 O508 1.918 . S
Fe509 O510 2.002 . S
Fe509 O519 1.976 . S
Fe509 O523 1.996 . S
Fe509 O526 1.997 . S
O510 Fe509 2.002 . S
O510 C527 1.295 . S
O511 Fe506 1.997 . S
O511 C527 1.235 . S
O512 Fe506 2.002 . S
O512 C513 1.295 . S
C513 O512 1.295 . S
C513 O515 1.235 . S
C514 O519 1.287 . S
C514 O520 1.255 . S
O515 Fe507 1.997 . S
O515 C513 1.235 . S
C516 O522 1.287 . S
C516 O523 1.255 . S
O517 Fe506 1.976 . S
O517 C524 1.287 . S
O518 Fe507 1.996 . S
O518 C524 1.255 . S
O519 Fe509 1.976 . S
O519 C514 1.287 . S
O520 Fe506 1.996 . S
O520 C514 1.255 . S
C521 O525 1.295 . S
C521 O526 1.235 . S
O522 Fe507 1.976 . S
O522 C516 1.287 . S
O523 Fe509 1.996 . S
O523 C516 1.255 . S
C524 O517 1.287 . S
C524 O518 1.255 . S
O525 Fe507 2.002 . S
O525 C521 1.295 . S
O526 Fe509 1.997 . S
O526 C521 1.235 . S
C527 O510 1.295 . S
C527 O511 1.235 . S
Fe528 O530 1.918 . S
Fe528 O533 1.997 . S
Fe528 O534 2.002 . S
Fe528 O539 1.976 . S
Fe528 O542 1.996 . S
Fe529 O530 1.918 . S
Fe529 O537 1.997 . S
Fe529 O540 1.996 . S
Fe529 O544 1.976 . S
Fe529 O547 2.002 . S
O530 Fe528 1.918 . S
O530 Fe529 1.918 . S
O530 Fe531 1.918 . S
Fe531 O530 1.918 . S
Fe531 O532 2.002 . S
Fe531 O541 1.976 . S
Fe531 O545 1.996 . S
Fe531 O548 1.997 . S
O532 Fe531 2.002 . S
O532 C549 1.295 . S
O533 Fe528 1.997 . S
O533 C549 1.235 . S
O534 Fe528 2.002 . S
O534 C535 1.295 . S
C535 O534 1.295 . S
C535 O537 1.235 . S
C536 O541 1.287 . S
C536 O542 1.255 . S
O537 Fe529 1.997 . S
O537 C535 1.235 . S
C538 O544 1.287 . S
C538 O545 1.255 . S
O539 Fe528 1.976 . S
O539 C546 1.287 . S
O540 Fe529 1.996 . S
O540 C546 1.255 . S
O541 Fe531 1.976 . S
O541 C536 1.287 . S
O542 Fe528 1.996 . S
O542 C536 1.255 . S
C543 O547 1.295 . S
C543 O548 1.235 . S
O544 Fe529 1.976 . S
O544 C538 1.287 . S
O545 Fe531 1.996 . S
O545 C538 1.255 . S
C546 O539 1.287 . S
C546 O540 1.255 . S
O547 Fe529 2.002 . S
O547 C543 1.295 . S
O548 Fe531 1.997 . S
O548 C543 1.235 . S
C549 O532 1.295 . S
C549 O533 1.235 . S
Fe550 O552 1.918 . S
Fe550 O555 1.997 . S
Fe550 O556 2.002 . S
Fe550 O561 1.976 . S
Fe550 O564 1.996 . S
Fe551 O552 1.918 . S
Fe551 O559 1.997 . S
Fe551 O562 1.996 . S
Fe551 O566 1.976 . S
Fe551 O569 2.002 . S
O552 Fe550 1.918 . S
O552 Fe551 1.918 . S
O552 Fe553 1.918 . S
Fe553 O552 1.918 . S
Fe553 O554 2.002 . S
Fe553 O563 1.976 . S
Fe553 O567 1.996 . S
Fe553 O570 1.997 . S
O554 Fe553 2.002 . S
O554 C571 1.295 . S
O555 Fe550 1.997 . S
O555 C571 1.235 . S
O556 Fe550 2.002 . S
O556 C557 1.295 . S
C557 O556 1.295 . S
C557 O559 1.235 . S
C558 O563 1.287 . S
C558 O564 1.255 . S
O559 Fe551 1.997 . S
O559 C557 1.235 . S
C560 O566 1.287 . S
C560 O567 1.255 . S
O561 Fe550 1.976 . S
O561 C568 1.287 . S
O562 Fe551 1.996 . S
O562 C568 1.255 . S
O563 Fe553 1.976 . S
O563 C558 1.287 . S
O564 Fe550 1.996 . S
O564 C558 1.255 . S
C565 O569 1.295 . S
C565 O570 1.235 . S
O566 Fe551 1.976 . S
O566 C560 1.287 . S
O567 Fe553 1.996 . S
O567 C560 1.255 . S
C568 O561 1.287 . S
C568 O562 1.255 . S
O569 Fe551 2.002 . S
O569 C565 1.295 . S
O570 Fe553 1.997 . S
O570 C565 1.235 . S
C571 O554 1.295 . S
C571 O555 1.235 . S
Fe572 O574 1.918 . S
Fe572 O577 1.997 . S
Fe572 O578 2.002 . S
Fe572 O583 1.976 . S
Fe572 O586 1.996 . S
Fe573 O574 1.918 . S
Fe573 O581 1.997 . S
Fe573 O584 1.996 . S
Fe573 O588 1.976 . S
Fe573 O591 2.002 . S
O574 Fe572 1.918 . S
O574 Fe573 1.918 . S
O574 Fe575 1.918 . S
Fe575 O574 1.918 . S
Fe575 O576 2.002 . S
Fe575 O585 1.976 . S
Fe575 O589 1.996 . S
Fe575 O592 1.997 . S
O576 Fe575 2.002 . S
O576 C593 1.295 . S
O577 Fe572 1.997 . S
O577 C593 1.235 . S
O578 Fe572 2.002 . S
O578 C579 1.295 . S
C579 O578 1.295 . S
C579 O581 1.235 . S
C580 O585 1.287 . S
C580 O586 1.255 . S
O581 Fe573 1.997 . S
O581 C579 1.235 . S
C582 O588 1.287 . S
C582 O589 1.255 . S
O583 Fe572 1.976 . S
O583 C590 1.287 . S
O584 Fe573 1.996 . S
O584 C590 1.255 . S
O585 Fe575 1.976 . S
O585 C580 1.287 . S
O586 Fe572 1.996 . S
O586 C580 1.255 . S
C587 O591 1.295 . S
C587 O592 1.235 . S
O588 Fe573 1.976 . S
O588 C582 1.287 . S
O589 Fe575 1.996 . S
O589 C582 1.255 . S
C590 O583 1.287 . S
C590 O584 1.255 . S
O591 Fe573 2.002 . S
O591 C587 1.295 . S
O592 Fe575 1.997 . S
O592 C587 1.235 . S
C593 O576 1.295 . S
C593 O577 1.235 . S
Fe594 O596 1.918 . S
Fe594 O599 1.997 . S
Fe594 O600 2.002 . S
Fe594 O605 1.976 . S
Fe594 O608 1.996 . S
Fe595 O596 1.918 . S
Fe595 O603 1.997 . S
Fe595 O606 1.996 . S
Fe595 O610 1.976 . S
Fe595 O613 2.002 . S
O596 Fe594 1.918 . S
O596 Fe595 1.918 . S
O596 Fe597 1.918 . S
Fe597 O596 1.918 . S
Fe597 O598 2.002 . S
Fe597 O607 1.976 . S
Fe597 O611 1.996 . S
Fe597 O614 1.997 . S
O598 Fe597 2.002 . S
O598 C615 1.295 . S
O599 Fe594 1.997 . S
O599 C615 1.235 . S
O600 Fe594 2.002 . S
O600 C601 1.295 . S
C601 O600 1.295 . S
C601 O603 1.235 . S
C602 O607 1.287 . S
C602 O608 1.255 . S
O603 Fe595 1.997 . S
O603 C601 1.235 . S
C604 O610 1.287 . S
C604 O611 1.255 . S
O605 Fe594 1.976 . S
O605 C612 1.287 . S
O606 Fe595 1.996 . S
O606 C612 1.255 . S
O607 Fe597 1.976 . S
O607 C602 1.287 . S
O608 Fe594 1.996 . S
O608 C602 1.255 . S
C609 O613 1.295 . S
C609 O614 1.235 . S
O610 Fe595 1.976 . S
O610 C604 1.287 . S
O611 Fe597 1.996 . S
O611 C604 1.255 . S
C612 O605 1.287 . S
C612 O606 1.255 . S
O613 Fe595 2.002 . S
O613 C609 1.295 . S
O614 Fe597 1.997 . S
O614 C609 1.235 . S
C615 O598 1.295 . S
C615 O599 1.235 . S
Fe616 O618 1.918 . S
Fe616 O621 1.997 . S
Fe616 O622 2.002 . S
Fe616 O627 1.976 . S
Fe616 O630 1.996 . S
Fe617 O618 1.918 . S
Fe617 O625 1.997 . S
Fe617 O628 1.996 . S
Fe617 O632 1.976 . S
Fe617 O635 2.002 . S
O618 Fe616 1.918 . S
O618 Fe617 1.918 . S
O618 Fe619 1.918 . S
Fe619 O618 1.918 . S
Fe619 O620 2.002 . S
Fe619 O629 1.976 . S
Fe619 O633 1.996 . S
Fe619 O636 1.997 . S
O620 Fe619 2.002 . S
O620 C637 1.295 . S
O621 Fe616 1.997 . S
O621 C637 1.235 . S
O622 Fe616 2.002 . S
O622 C623 1.295 . S
C623 O622 1.295 . S
C623 O625 1.235 . S
C624 O629 1.287 . S
C624 O630 1.255 . S
O625 Fe617 1.997 . S
O625 C623 1.235 . S
C626 O632 1.287 . S
C626 O633 1.255 . S
O627 Fe616 1.976 . S
O627 C634 1.287 . S
O628 Fe617 1.996 . S
O628 C634 1.255 . S
O629 Fe619 1.976 . S
O629 C624 1.287 . S
O630 Fe616 1.996 . S
O630 C624 1.255 . S
C631 O635 1.295 . S
C631 O636 1.235 . S
O632 Fe617 1.976 . S
O632 C626 1.287 . S
O633 Fe619 1.996 . S
O633 C626 1.255 . S
C634 O627 1.287 . S
C634 O628 1.255 . S
O635 Fe617 2.002 . S
O635 C631 1.295 . S
O636 Fe619 1.997 . S
O636 C631 1.235 . S
C637 O620 1.295 . S
C637 O621 1.235 . S
Fe638 O640 1.918 . S
Fe638 O643 1.997 . S
Fe638 O644 2.002 . S
Fe638 O649 1.976 . S
Fe638 O652 1.996 . S
Fe639 O640 1.918 . S
Fe639 O647 1.997 . S
Fe639 O650 1.996 . S
Fe639 O654 1.976 . S
Fe639 O657 2.002 . S
O640 Fe638 1.918 . S
O640 Fe639 1.918 . S
O640 Fe641 1.918 . S
Fe641 O640 1.918 . S
Fe641 O642 2.002 . S
Fe641 O651 1.976 . S
Fe641 O655 1.996 . S
Fe641 O658 1.997 . S
O642 Fe641 2.002 . S
O642 C659 1.295 . S
O643 Fe638 1.997 . S
O643 C659 1.235 . S
O644 Fe638 2.002 . S
O644 C645 1.295 . S
C645 O644 1.295 . S
C645 O647 1.235 . S
C646 O651 1.287 . S
C646 O652 1.255 . S
O647 Fe639 1.997 . S
O647 C645 1.235 . S
C648 O654 1.287 . S
C648 O655 1.255 . S
O649 Fe638 1.976 . S
O649 C656 1.287 . S
O650 Fe639 1.996 . S
O650 C656 1.255 . S
O651 Fe641 1.976 . S
O651 C646 1.287 . S
O652 Fe638 1.996 . S
O652 C646 1.255 . S
C653 O657 1.295 . S
C653 O658 1.235 . S
O654 Fe639 1.976 . S
O654 C648 1.287 . S
O655 Fe641 1.996 . S
O655 C648 1.255 . S
C656 O649 1.287 . S
C656 O650 1.255 . S
O657 Fe639 2.002 . S
O657 C653 1.295 . S
O658 Fe641 1.997 . S
O658 C653 1.235 . S
C659 O642 1.295 . S
C659 O643 1.235 . S
Fe660 O662 1.918 . S
Fe660 O665 1.997 . S
Fe660 O666 2.002 . S
Fe660 O671 1.976 . S
Fe660 O674 1.996 . S
Fe661 O662 1.918 . S
Fe661 O669 1.997 . S
Fe661 O672 1.996 . S
Fe661 O676 1.976 . S
Fe661 O679 2.002 . S
O662 Fe660 1.918 . S
O662 Fe661 1.918 . S
O662 Fe663 1.918 . S
Fe663 O662 1.918 . S
Fe663 O664 2.002 . S
Fe663 O673 1.976 . S
Fe663 O677 1.996 . S
Fe663 O680 1.997 . S
O664 Fe663 2.002 . S
O664 C681 1.295 . S
O665 Fe660 1.997 . S
O665 C681 1.235 . S
O666 Fe660 2.002 . S
O666 C667 1.295 . S
C667 O666 1.295 . S
C667 O669 1.235 . S
C668 O673 1.287 . S
C668 O674 1.255 . S
O669 Fe661 1.997 . S
O669 C667 1.235 . S
C670 O676 1.287 . S
C670 O677 1.255 . S
O671 Fe660 1.976 . S
O671 C678 1.287 . S
O672 Fe661 1.996 . S
O672 C678 1.255 . S
O673 Fe663 1.976 . S
O673 C668 1.287 . S
O674 Fe660 1.996 . S
O674 C668 1.255 . S
C675 O679 1.295 . S
C675 O680 1.235 . S
O676 Fe661 1.976 . S
O676 C670 1.287 . S
O677 Fe663 1.996 . S
O677 C670 1.255 . S
C678 O671 1.287 . S
C678 O672 1.255 . S
O679 Fe661 2.002 . S
O679 C675 1.295 . S
O680 Fe663 1.997 . S
O680 C675 1.235 . S
C681 O664 1.295 . S
C681 O665 1.235 . S
Fe682 O684 1.918 . S
Fe682 O687 1.997 . S
Fe682 O688 2.002 . S
Fe682 O693 1.976 . S
Fe682 O696 1.996 . S
Fe683 O684 1.918 . S
Fe683 O691 1.997 . S
Fe683 O694 1.996 . S
Fe683 O698 1.976 . S
Fe683 O701 2.002 . S
O684 Fe682 1.918 . S
O684 Fe683 1.918 . S
O684 Fe685 1.918 . S
Fe685 O684 1.918 . S
Fe685 O686 2.002 . S
Fe685 O695 1.976 . S
Fe685 O699 1.996 . S
Fe685 O702 1.997 . S
O686 Fe685 2.002 . S
O686 C703 1.295 . S
O687 Fe682 1.997 . S
O687 C703 1.235 . S
O688 Fe682 2.002 . S
O688 C689 1.295 . S
C689 O688 1.295 . S
C689 O691 1.235 . S
C690 O695 1.287 . S
C690 O696 1.255 . S
O691 Fe683 1.997 . S
O691 C689 1.235 . S
C692 O698 1.287 . S
C692 O699 1.255 . S
O693 Fe682 1.976 . S
O693 C700 1.287 . S
O694 Fe683 1.996 . S
O694 C700 1.255 . S
O695 Fe685 1.976 . S
O695 C690 1.287 . S
O696 Fe682 1.996 . S
O696 C690 1.255 . S
C697 O701 1.295 . S
C697 O702 1.235 . S
O698 Fe683 1.976 . S
O698 C692 1.287 . S
O699 Fe685 1.996 . S
O699 C692 1.255 . S
C700 O693 1.287 . S
C700 O694 1.255 . S
O701 Fe683 2.002 . S
O701 C697 1.295 . S
O702 Fe685 1.997 . S
O702 C697 1.235 . S
C703 O686 1.295 . S
C703 O687 1.235 . S
Fe704 O706 1.918 . S
Fe704 O709 1.997 . S
Fe704 O710 2.002 . S
Fe704 O715 1.976 . S
Fe704 O718 1.996 . S
Fe705 O706 1.918 . S
Fe705 O713 1.997 . S
Fe705 O716 1.996 . S
Fe705 O720 1.976 . S
Fe705 O723 2.002 . S
O706 Fe704 1.918 . S
O706 Fe705 1.918 . S
O706 Fe707 1.918 . S
Fe707 O706 1.918 . S
Fe707 O708 2.002 . S
Fe707 O717 1.976 . S
Fe707 O721 1.996 . S
Fe707 O724 1.997 . S
O708 Fe707 2.002 . S
O708 C725 1.295 . S
O709 Fe704 1.997 . S
O709 C725 1.235 . S
O710 Fe704 2.002 . S
O710 C711 1.295 . S
C711 O710 1.295 . S
C711 O713 1.235 . S
C712 O717 1.287 . S
C712 O718 1.255 . S
O713 Fe705 1.997 . S
O713 C711 1.235 . S
C714 O720 1.287 . S
C714 O721 1.255 . S
O715 Fe704 1.976 . S
O715 C722 1.287 . S
O716 Fe705 1.996 . S
O716 C722 1.255 . S
O717 Fe707 1.976 . S
O717 C712 1.287 . S
O718 Fe704 1.996 . S
O718 C712 1.255 . S
C719 O723 1.295 . S
C719 O724 1.235 . S
O720 Fe705 1.976 . S
O720 C714 1.287 . S
O721 Fe707 1.996 . S
O721 C714 1.255 . S
C722 O715 1.287 . S
C722 O716 1.255 . S
O723 Fe705 2.002 . S
O723 C719 1.295 . S
O724 Fe707 1.997 . S
O724 C719 1.235 . S
C725 O708 1.295 . S
C725 O709 1.235 . S
Fe726 O728 1.918 . S
Fe726 O731 1.997 . S
Fe726 O732 2.002 . S
Fe726 O737 1.976 . S
Fe726 O740 1.996 . S
Fe727 O728 1.918 . S
Fe727 O735 1.997 . S
Fe727 O738 1.996 . S
Fe727 O742 1.976 . S
Fe727 O745 2.002 . S
O728 Fe726 1.918 . S
O728 Fe727 1.918 . S
O728 Fe729 1.918 . S
Fe729 O728 1.918 . S
Fe729 O730 2.002 . S
Fe729 O739 1.976 . S
Fe729 O743 1.996 . S
Fe729 O746 1.997 . S
O730 Fe729 2.002 . S
O730 C747 1.295 . S
O731 Fe726 1.997 . S
O731 C747 1.235 . S
O732 Fe726 2.002 . S
O732 C733 1.295 . S
C733 O732 1.295 . S
C733 O735 1.235 . S
C734 O739 1.287 . S
C734 O740 1.255 . S
O735 Fe727 1.997 . S
O735 C733 1.235 . S
C736 O742 1.287 . S
C736 O743 1.255 . S
O737 Fe726 1.976 . S
O737 C744 1.287 . S
O738 Fe727 1.996 . S
O738 C744 1.255 . S
O739 Fe729 1.976 . S
O739 C734 1.287 . S
O740 Fe726 1.996 . S
O740 C734 1.255 . S
C741 O745 1.295 . S
C741 O746 1.235 . S
O742 Fe727 1.976 . S
O742 C736 1.287 . S
O743 Fe729 1.996 . S
O743 C736 1.255 . S
C744 O737 1.287 . S
C744 O738 1.255 . S
O745 Fe727 2.002 . S
O745 C741 1.295 . S
O746 Fe729 1.997 . S
O746 C741 1.235 . S
C747 O730 1.295 . S
C747 O731 1.235 . S
Fe748 O750 1.918 . S
Fe748 O753 1.997 . S
Fe748 O754 2.002 . S
Fe748 O759 1.976 . S
Fe748 O762 1.996 . S
Fe749 O750 1.918 . S
Fe749 O757 1.997 . S
Fe749 O760 1.996 . S
Fe749 O764 1.976 . S
Fe749 O767 2.002 . S
O750 Fe748 1.918 . S
O750 Fe749 1.918 . S
O750 Fe751 1.918 . S
Fe751 O750 1.918 . S
Fe751 O752 2.002 . S
Fe751 O761 1.976 . S
Fe751 O765 1.996 . S
Fe751 O768 1.997 . S
O752 Fe751 2.002 . S
O752 C769 1.295 . S
O753 Fe748 1.997 . S
O753 C769 1.235 . S
O754 Fe748 2.002 . S
O754 C755 1.295 . S
C755 O754 1.295 . S
C755 O757 1.235 . S
C756 O761 1.287 . S
C756 O762 1.255 . S
O757 Fe749 1.997 . S
O757 C755 1.235 . S
C758 O764 1.287 . S
C758 O765 1.255 . S
O759 Fe748 1.976 . S
O759 C766 1.287 . S
O760 Fe749 1.996 . S
O760 C766 1.255 . S
O761 Fe751 1.976 . S
O761 C756 1.287 . S
O762 Fe748 1.996 . S
O762 C756 1.255 . S
C763 O767 1.295 . S
C763 O768 1.235 . S
O764 Fe749 1.976 . S
O764 C758 1.287 . S
O765 Fe751 1.996 . S
O765 C758 1.255 . S
C766 O759 1.287 . S
C766 O760 1.255 . S
O767 Fe749 2.002 . S
O767 C763 1.295 . S
O768 Fe751 1.997 . S
O768 C763 1.235 . S
C769 O752 1.295 . S
C769 O753 1.235 . S
Fe770 O772 1.918 . S
Fe770 O775 1.997 . S
Fe770 O776 2.002 . S
Fe770 O781 1.976 . S
Fe770 O784 1.996 . S
Fe771 O772 1.918 . S
Fe771 O779 1.997 . S
Fe771 O782 1.996 . S
Fe771 O786 1.976 . S
Fe771 O789 2.002 . S
O772 Fe770 1.918 . S
O772 Fe771 1.918 . S
O772 Fe773 1.918 . S
Fe773 O772 1.918 . S
Fe773 O774 2.002 . S
Fe773 O783 1.976 . S
Fe773 O787 1.996 . S
Fe773 O790 1.997 . S
O774 Fe773 2.002 . S
O774 C791 1.295 . S
O775 Fe770 1.997 . S
O775 C791 1.235 . S
O776 Fe770 2.002 . S
O776 C777 1.295 . S
C777 O776 1.295 . S
C777 O779 1.235 . S
C778 O783 1.287 . S
C778 O784 1.255 . S
O779 Fe771 1.997 . S
O779 C777 1.235 . S
C780 O786 1.287 . S
C780 O787 1.255 . S
O781 Fe770 1.976 . S
O781 C788 1.287 . S
O782 Fe771 1.996 . S
O782 C788 1.255 . S
O783 Fe773 1.976 . S
O783 C778 1.287 . S
O784 Fe770 1.996 . S
O784 C778 1.255 . S
C785 O789 1.295 . S
C785 O790 1.235 . S
O786 Fe771 1.976 . S
O786 C780 1.287 . S
O787 Fe773 1.996 . S
O787 C780 1.255 . S
C788 O781 1.287 . S
C788 O782 1.255 . S
O789 Fe771 2.002 . S
O789 C785 1.295 . S
O790 Fe773 1.997 . S
O790 C785 1.235 . S
C791 O774 1.295 . S
C791 O775 1.235 . S
Fe792 O794 1.918 . S
Fe792 O797 1.997 . S
Fe792 O798 2.002 . S
Fe792 O803 1.976 . S
Fe792 O806 1.996 . S
Fe793 O794 1.918 . S
Fe793 O801 1.997 . S
Fe793 O804 1.996 . S
Fe793 O808 1.976 . S
Fe793 O811 2.002 . S
O794 Fe792 1.918 . S
O794 Fe793 1.918 . S
O794 Fe795 1.918 . S
Fe795 O794 1.918 . S
Fe795 O796 2.002 . S
Fe795 O805 1.976 . S
Fe795 O809 1.996 . S
Fe795 O812 1.997 . S
O796 Fe795 2.002 . S
O796 C813 1.295 . S
O797 Fe792 1.997 . S
O797 C813 1.235 . S
O798 Fe792 2.002 . S
O798 C799 1.295 . S
C799 O798 1.295 . S
C799 O801 1.235 . S
C800 O805 1.287 . S
C800 O806 1.255 . S
O801 Fe793 1.997 . S
O801 C799 1.235 . S
C802 O808 1.287 . S
C802 O809 1.255 . S
O803 Fe792 1.976 . S
O803 C810 1.287 . S
O804 Fe793 1.996 . S
O804 C810 1.255 . S
O805 Fe795 1.976 . S
O805 C800 1.287 . S
O806 Fe792 1.996 . S
O806 C800 1.255 . S
C807 O811 1.295 . S
C807 O812 1.235 . S
O808 Fe793 1.976 . S
O808 C802 1.287 . S
O809 Fe795 1.996 . S
O809 C802 1.255 . S
C810 O803 1.287 . S
C810 O804 1.255 . S
O811 Fe793 2.002 . S
O811 C807 1.295 . S
O812 Fe795 1.997 . S
O812 C807 1.235 . S
C813 O796 1.295 . S
C813 O797 1.235 . S
Fe814 O816 1.918 . S
Fe814 O819 1.997 . S
Fe814 O820 2.002 . S
Fe814 O825 1.976 . S
Fe814 O828 1.996 . S
Fe815 O816 1.918 . S
Fe815 O823 1.997 . S
Fe815 O826 1.996 . S
Fe815 O830 1.976 . S
Fe815 O833 2.002 . S
O816 Fe814 1.918 . S
O816 Fe815 1.918 . S
O816 Fe817 1.918 . S
Fe817 O816 1.918 . S
Fe817 O818 2.002 . S
Fe817 O827 1.976 . S
Fe817 O831 1.996 . S
Fe817 O834 1.997 . S
O818 Fe817 2.002 . S
O818 C835 1.295 . S
O819 Fe814 1.997 . S
O819 C835 1.235 . S
O820 Fe814 2.002 . S
O820 C821 1.295 . S
C821 O820 1.295 . S
C821 O823 1.235 . S
C822 O827 1.287 . S
C822 O828 1.255 . S
O823 Fe815 1.997 . S
O823 C821 1.235 . S
C824 O830 1.287 . S
C824 O831 1.255 . S
O825 Fe814 1.976 . S
O825 C832 1.287 . S
O826 Fe815 1.996 . S
O826 C832 1.255 . S
O827 Fe817 1.976 . S
O827 C822 1.287 . S
O828 Fe814 1.996 . S
O828 C822 1.255 . S
C829 O833 1.295 . S
C829 O834 1.235 . S
O830 Fe815 1.976 . S
O830 C824 1.287 . S
O831 Fe817 1.996 . S
O831 C824 1.255 . S
C832 O825 1.287 . S
C832 O826 1.255 . S
O833 Fe815 2.002 . S
O833 C829 1.295 . S
O834 Fe817 1.997 . S
O834 C829 1.235 . S
C835 O818 1.295 . S
C835 O819 1.235 . S
Fe836 O838 1.918 . S
Fe836 O841 1.997 . S
Fe836 O842 2.002 . S
Fe836 O847 1.976 . S
Fe836 O850 1.996 . S
Fe837 O838 1.918 . S
Fe837 O845 1.997 . S
Fe837 O848 1.996 . S
Fe837 O852 1.976 . S
Fe837 O855 2.002 . S
O838 Fe836 1.918 . S
O838 Fe837 1.918 . S
O838 Fe839 1.918 . S
Fe839 O838 1.918 . S
Fe839 O840 2.002 . S
Fe839 O849 1.976 . S
Fe839 O853 1.996 . S
Fe839 O856 1.997 . S
O840 Fe839 2.002 . S
O840 C857 1.295 . S
O841 Fe836 1.997 . S
O841 C857 1.235 . S
O842 Fe836 2.002 . S
O842 C843 1.295 . S
C843 O842 1.295 . S
C843 O845 1.235 . S
C844 O849 1.287 . S
C844 O850 1.255 . S
O845 Fe837 1.997 . S
O845 C843 1.235 . S
C846 O852 1.287 . S
C846 O853 1.255 . S
O847 Fe836 1.976 . S
O847 C854 1.287 . S
O848 Fe837 1.996 . S
O848 C854 1.255 . S
O849 Fe839 1.976 . S
O849 C844 1.287 . S
O850 Fe836 1.996 . S
O850 C844 1.255 . S
C851 O855 1.295 . S
C851 O856 1.235 . S
O852 Fe837 1.976 . S
O852 C846 1.287 . S
O853 Fe839 1.996 . S
O853 C846 1.255 . S
C854 O847 1.287 . S
C854 O848 1.255 . S
O855 Fe837 2.002 . S
O855 C851 1.295 . S
O856 Fe839 1.997 . S
O856 C851 1.235 . S
C857 O840 1.295 . S
C857 O841 1.235 . S
Fe858 O860 1.918 . S
Fe858 O863 1.997 . S
Fe858 O864 2.002 . S
Fe858 O869 1.976 . S
Fe858 O872 1.996 . S
Fe859 O860 1.918 . S
Fe859 O867 1.997 . S
Fe859 O870 1.996 . S
Fe859 O874 1.976 . S
Fe859 O877 2.002 . S
O860 Fe858 1.918 . S
O860 Fe859 1.918 . S
O860 Fe861 1.918 . S
Fe861 O860 1.918 . S
Fe861 O862 2.002 . S
Fe861 O871 1.976 . S
Fe861 O875 1.996 . S
Fe861 O878 1.997 . S
O862 Fe861 2.002 . S
O862 C879 1.295 . S
O863 Fe858 1.997 . S
O863 C879 1.235 . S
O864 Fe858 2.002 . S
O864 C865 1.295 . S
C865 O864 1.295 . S
C865 O867 1.235 . S
C866 O871 1.287 . S
C866 O872 1.255 . S
O867 Fe859 1.997 . S
O867 C865 1.235 . S
C868 O874 1.287 . S
C868 O875 1.255 . S
O869 Fe858 1.976 . S
O869 C876 1.287 . S
O870 Fe859 1.996 . S
O870 C876 1.255 . S
O871 Fe861 1.976 . S
O871 C866 1.287 . S
O872 Fe858 1.996 . S
O872 C866 1.255 . S
C873 O877 1.295 . S
C873 O878 1.235 . S
O874 Fe859 1.976 . S
O874 C868 1.287 . S
O875 Fe861 1.996 . S
O875 C868 1.255 . S
C876 O869 1.287 . S
C876 O870 1.255 . S
O877 Fe859 2.002 . S
O877 C873 1.295 . S
O878 Fe861 1.997 . S
O878 C873 1.235 . S
C879 O862 1.295 . S
C879 O863 1.235 . S
Fe880 O882 1.918 . S
Fe880 O885 1.997 . S
Fe880 O886 2.002 . S
Fe880 O891 1.976 . S
Fe880 O894 1.996 . S
Fe881 O882 1.918 . S
Fe881 O889 1.997 . S
Fe881 O892 1.996 . S
Fe881 O896 1.976 . S
Fe881 O899 2.002 . S
O882 Fe880 1.918 . S
O882 Fe881 1.918 . S
O882 Fe883 1.918 . S
Fe883 O882 1.918 . S
Fe883 O884 2.002 . S
Fe883 O893 1.976 . S
Fe883 O897 1.996 . S
Fe883 O900 1.997 . S
O884 Fe883 2.002 . S
O884 C901 1.295 . S
O885 Fe880 1.997 . S
O885 C901 1.235 . S
O886 Fe880 2.002 . S
O886 C887 1.295 . S
C887 O886 1.295 . S
C887 O889 1.235 . S
C888 O893 1.287 . S
C888 O894 1.255 . S
O889 Fe881 1.997 . S
O889 C887 1.235 . S
C890 O896 1.287 . S
C890 O897 1.255 . S
O891 Fe880 1.976 . S
O891 C898 1.287 . S
O892 Fe881 1.996 . S
O892 C898 1.255 . S
O893 Fe883 1.976 . S
O893 C888 1.287 . S
O894 Fe880 1.996 . S
O894 C888 1.255 . S
C895 O899 1.295 . S
C895 O900 1.235 . S
O896 Fe881 1.976 . S
O896 C890 1.287 . S
O897 Fe883 1.996 . S
O897 C890 1.255 . S
C898 O891 1.287 . S
C898 O892 1.255 . S
O899 Fe881 2.002 . S
O899 C895 1.295 . S
O900 Fe883 1.997 . S
O900 C895 1.235 . S
C901 O884 1.295 . S
C901 O885 1.235 . S
Fe902 O904 1.918 . S
Fe902 O907 1.997 . S
Fe902 O908 2.002 . S
Fe902 O913 1.976 . S
Fe902 O916 1.996 . S
Fe903 O904 1.918 . S
Fe903 O911 1.997 . S
Fe903 O914 1.996 . S
Fe903 O918 1.976 . S
Fe903 O921 2.002 . S
O904 Fe902 1.918 . S
O904 Fe903 1.918 . S
O904 Fe905 1.918 . S
Fe905 O904 1.918 . S
Fe905 O906 2.002 . S
Fe905 O915 1.976 . S
Fe905 O919 1.996 . S
Fe905 O922 1.997 . S
O906 Fe905 2.002 . S
O906 C923 1.295 . S
O907 Fe902 1.997 . S
O907 C923 1.235 . S
O908 Fe902 2.002 . S
O908 C909 1.295 . S
C909 O908 1.295 . S
C909 O911 1.235 . S
C910 O915 1.287 . S
C910 O916 1.255 . S
O911 Fe903 1.997 . S
O911 C909 1.235 . S
C912 O918 1.287 . S
C912 O919 1.255 . S
O913 Fe902 1.976 . S
O913 C920 1.287 . S
O914 Fe903 1.996 . S
O914 C920 1.255 . S
O915 Fe905 1.976 . S
O915 C910 1.287 . S
O916 Fe902 1.996 . S
O916 C910 1.255 . S
C917 O921 1.295 . S
C917 O922 1.235 . S
O918 Fe903 1.976 . S
O918 C912 1.287 . S
O919 Fe905 1.996 . S
O919 C912 1.255 . S
C920 O913 1.287 . S
C920 O914 1.255 . S
O921 Fe903 2.002 . S
O921 C917 1.295 . S
O922 Fe905 1.997 . S
O922 C917 1.235 . S
C923 O906 1.295 . S
C923 O907 1.235 . S
Fe924 O926 1.918 . S
Fe924 O929 1.997 . S
Fe924 O930 2.002 . S
Fe924 O935 1.976 . S
Fe924 O938 1.996 . S
Fe925 O926 1.918 . S
Fe925 O933 1.997 . S
Fe925 O936 1.996 . S
Fe925 O940 1.976 . S
Fe925 O943 2.002 . S
O926 Fe924 1.918 . S
O926 Fe925 1.918 . S
O926 Fe927 1.918 . S
Fe927 O926 1.918 . S
Fe927 O928 2.002 . S
Fe927 O937 1.976 . S
Fe927 O941 1.996 . S
Fe927 O944 1.997 . S
O928 Fe927 2.002 . S
O928 C945 1.295 . S
O929 Fe924 1.997 . S
O929 C945 1.235 . S
O930 Fe924 2.002 . S
O930 C931 1.295 . S
C931 O930 1.295 . S
C931 O933 1.235 . S
C932 O937 1.287 . S
C932 O938 1.255 . S
O933 Fe925 1.997 . S
O933 C931 1.235 . S
C934 O940 1.287 . S
C934 O941 1.255 . S
O935 Fe924 1.976 . S
O935 C942 1.287 . S
O936 Fe925 1.996 . S
O936 C942 1.255 . S
O937 Fe927 1.976 . S
O937 C932 1.287 . S
O938 Fe924 1.996 . S
O938 C932 1.255 . S
C939 O943 1.295 . S
C939 O944 1.235 . S
O940 Fe925 1.976 . S
O940 C934 1.287 . S
O941 Fe927 1.996 . S
O941 C934 1.255 . S
C942 O935 1.287 . S
C942 O936 1.255 . S
O943 Fe925 2.002 . S
O943 C939 1.295 . S
O944 Fe927 1.997 . S
O944 C939 1.235 . S
C945 O928 1.295 . S
C945 O929 1.235 . S
Fe946 O948 1.918 . S
Fe946 O951 1.997 . S
Fe946 O952 2.002 . S
Fe946 O957 1.976 . S
Fe946 O960 1.996 . S
Fe947 O948 1.918 . S
Fe947 O955 1.997 . S
Fe947 O958 1.996 . S
Fe947 O962 1.976 . S
Fe947 O965 2.002 . S
O948 Fe946 1.918 . S
O948 Fe947 1.918 . S
O948 Fe949 1.918 . S
Fe949 O948 1.918 . S
Fe949 O950 2.002 . S
Fe949 O959 1.976 . S
Fe949 O963 1.996 . S
Fe949 O966 1.997 . S
O950 Fe949 2.002 . S
O950 C967 1.295 . S
O951 Fe946 1.997 . S
O951 C967 1.235 . S
O952 Fe946 2.002 . S
O952 C953 1.295 . S
C953 O952 1.295 . S
C953 O955 1.235 . S
C954 O959 1.287 . S
C954 O960 1.255 . S
O955 Fe947 1.997 . S
O955 C953 1.235 . S
C956 O962 1.287 . S
C956 O963 1.255 . S
O957 Fe946 1.976 . S
O957 C964 1.287 . S
O958 Fe947 1.996 . S
O958 C964 1.255 . S
O959 Fe949 1.976 . S
O959 C954 1.287 . S
O960 Fe946 1.996 . S
O960 C954 1.255 . S
C961 O965 1.295 . S
C961 O966 1.235 . S
O962 Fe947 1.976 . S
O962 C956 1.287 . S
O963 Fe949 1.996 . S
O963 C956 1.255 . S
C964 O957 1.287 . S
C964 O958 1.255 . S
O965 Fe947 2.002 . S
O965 C961 1.295 . S
O966 Fe949 1.997 . S
O966 C961 1.235 . S
C967 O950 1.295 . S
C967 O951 1.235 . S
Fe968 O970 1.918 . S
Fe968 O973 1.997 . S
Fe968 O974 2.002 . S
Fe968 O979 1.976 . S
Fe968 O982 1.996 . S
Fe969 O970 1.918 . S
Fe969 O977 1.997 . S
Fe969 O980 1.996 . S
Fe969 O984 1.976 . S
Fe969 O987 2.002 . S
O970 Fe968 1.918 . S
O970 Fe969 1.918 . S
O970 Fe971 1.918 . S
Fe971 O970 1.918 . S
Fe971 O972 2.002 . S
Fe971 O981 1.976 . S
Fe971 O985 1.996 . S
Fe971 O988 1.997 . S
O972 Fe971 2.002 . S
O972 C989 1.295 . S
O973 Fe968 1.997 . S
O973 C989 1.235 . S
O974 Fe968 2.002 . S
O974 C975 1.295 . S
C975 O974 1.295 . S
C975 O977 1.235 . S
C976 O981 1.287 . S
C976 O982 1.255 . S
O977 Fe969 1.997 . S
O977 C975 1.235 . S
C978 O984 1.287 . S
C978 O985 1.255 . S
O979 Fe968 1.976 . S
O979 C986 1.287 . S
O980 Fe969 1.996 . S
O980 C986 1.255 . S
O981 Fe971 1.976 . S
O981 C976 1.287 . S
O982 Fe968 1.996 . S
O982 C976 1.255 . S
C983 O987 1.295 . S
C983 O988 1.235 . S
O984 Fe969 1.976 . S
O984 C978 1.287 . S
O985 Fe971 1.996 . S
O985 C978 1.255 . S
C986 O979 1.287 . S
C986 O980 1.255 . S
O987 Fe969 2.002 . S
O987 C983 1.295 . S
O988 Fe971 1.997 . S
O988 C983 1.235 . S
C989 O972 1.295 . S
C989 O973 1.235 . S
Fe990 O992 1.918 . S
Fe990 O995 1.997 . S
Fe990 O996 2.002 . S
Fe990 O1001 1.976 . S
Fe990 O1004 1.996 . S
Fe991 O992 1.918 . S
Fe991 O999 1.997 . S
Fe991 O1002 1.996 . S
Fe991 O1006 1.976 . S
Fe991 O1009 2.002 . S
O992 Fe990 1.918 . S
O992 Fe991 1.918 . S
O992 Fe993 1.918 . S
Fe993 O992 1.918 . S
Fe993 O994 2.002 . S
Fe993 O1003 1.976 . S
Fe993 O1007 1.996 . S
Fe993 O1010 1.997 . S
O994 Fe993 2.002 . S
O994 C1011 1.295 . S
O995 Fe990 1.997 . S
O995 C1011 1.235 . S
O996 Fe990 2.002 . S
O996 C997 1.295 . S
C997 O996 1.295 . S
C997 O999 1.235 . S
C998 O1003 1.287 . S
C998 O1004 1.255 . S
O999 Fe991 1.997 . S
O999 C997 1.235 . S
C1000 O1006 1.287 . S
C1000 O1007 1.255 . S
O1001 Fe990 1.976 . S
O1001 C1008 1.287 . S
O1002 Fe991 1.996 . S
O1002 C1008 1.255 . S
O1003 Fe993 1.976 . S
O1003 C998 1.287 . S
O1004 Fe990 1.996 . S
O1004 C998 1.255 . S
C1005 O1009 1.295 . S
C1005 O1010 1.235 . S
O1006 Fe991 1.976 . S
O1006 C1000 1.287 . S
O1007 Fe993 1.996 . S
O1007 C1000 1.255 . S
C1008 O1001 1.287 . S
C1008 O1002 1.255 . S
O1009 Fe991 2.002 . S
O1009 C1005 1.295 . S
O1010 Fe993 1.997 . S
O1010 C1005 1.235 . S
C1011 O994 1.295 . S
C1011 O995 1.235 . S
Fe1012 O1014 1.918 . S
Fe1012 O1017 1.997 . S
Fe1012 O1018 2.002 . S
Fe1012 O1023 1.976 . S
Fe1012 O1026 1.996 . S
Fe1013 O1014 1.918 . S
Fe1013 O1021 1.997 . S
Fe1013 O1024 1.996 . S
Fe1013 O1028 1.976 . S
Fe1013 O1031 2.002 . S
O1014 Fe1012 1.918 . S
O1014 Fe1013 1.918 . S
O1014 Fe1015 1.918 . S
Fe1015 O1014 1.918 . S
Fe1015 O1016 2.002 . S
Fe1015 O1025 1.976 . S
Fe1015 O1029 1.996 . S
Fe1015 O1032 1.997 . S
O1016 Fe1015 2.002 . S
O1016 C1033 1.295 . S
O1017 Fe1012 1.997 . S
O1017 C1033 1.235 . S
O1018 Fe1012 2.002 . S
O1018 C1019 1.295 . S
C1019 O1018 1.295 . S
C1019 O1021 1.235 . S
C1020 O1025 1.287 . S
C1020 O1026 1.255 . S
O1021 Fe1013 1.997 . S
O1021 C1019 1.235 . S
C1022 O1028 1.287 . S
C1022 O1029 1.255 . S
O1023 Fe1012 1.976 . S
O1023 C1030 1.287 . S
O1024 Fe1013 1.996 . S
O1024 C1030 1.255 . S
O1025 Fe1015 1.976 . S
O1025 C1020 1.287 . S
O1026 Fe1012 1.996 . S
O1026 C1020 1.255 . S
C1027 O1031 1.295 . S
C1027 O1032 1.235 . S
O1028 Fe1013 1.976 . S
O1028 C1022 1.287 . S
O1029 Fe1015 1.996 . S
O1029 C1022 1.255 . S
C1030 O1023 1.287 . S
C1030 O1024 1.255 . S
O1031 Fe1013 2.002 . S
O1031 C1027 1.295 . S
O1032 Fe1015 1.997 . S
O1032 C1027 1.235 . S
C1033 O1016 1.295 . S
C1033 O1017 1.235 . S
Fe1034 O1036 1.918 . S
Fe1034 O1039 1.997 . S
Fe1034 O1040 2.002 . S
Fe1034 O1045 1.976 . S
Fe1034 O1048 1.996 . S
Fe1035 O1036 1.918 . S
Fe1035 O1043 1.997 . S
Fe1035 O1046 1.996 . S
Fe1035 O1050 1.976 . S
Fe1035 O1053 2.002 . S
O1036 Fe1034 1.918 . S
O1036 Fe1035 1.918 . S
O1036 Fe1037 1.918 . S
Fe1037 O1036 1.918 . S
Fe1037 O1038 2.002 . S
Fe1037 O1047 1.976 . S
Fe1037 O1051 1.996 . S
Fe1037 O1054 1.997 . S
O1038 Fe1037 2.002 . S
O1038 C1055 1.295 . S
O1039 Fe1034 1.997 . S
O1039 C1055 1.235 . S
O1040 Fe1034 2.002 . S
O1040 C1041 1.295 . S
C1041 O1040 1.295 . S
C1041 O1043 1.235 . S
C1042 O1047 1.287 . S
C1042 O1048 1.255 . S
O1043 Fe1035 1.997 . S
O1043 C1041 1.235 . S
C1044 O1050 1.287 . S
C1044 O1051 1.255 . S
O1045 Fe1034 1.976 . S
O1045 C1052 1.287 . S
O1046 Fe1035 1.996 . S
O1046 C1052 1.255 . S
O1047 Fe1037 1.976 . S
O1047 C1042 1.287 . S
O1048 Fe1034 1.996 . S
O1048 C1042 1.255 . S
C1049 O1053 1.295 . S
C1049 O1054 1.235 . S
O1050 Fe1035 1.976 . S
O1050 C1044 1.287 . S
O1051 Fe1037 1.996 . S
O1051 C1044 1.255 . S
C1052 O1045 1.287 . S
C1052 O1046 1.255 . S
O1053 Fe1035 2.002 . S
O1053 C1049 1.295 . S
O1054 Fe1037 1.997 . S
O1054 C1049 1.235 . S
C1055 O1038 1.295 . S
C1055 O1039 1.235 . S
H1056 C1064 0.950 . S
H1057 C1069 0.950 . S
H1058 C1066 0.950 . S
H1059 C1068 0.950 . S
H1060 C1070 0.950 . S
H1061 C1072 0.950 . S
H1062 C1074 0.950 . S
H1063 C1075 0.950 . S
C1064 H1056 0.950 . S
C1064 C1065 1.386 . S
C1064 C1066 1.391 . S
C1065 C1064 1.386 . S
C1065 C1069 1.393 . S
C1066 H1058 0.950 . S
C1066 C1064 1.391 . S
C1066 C1067 1.400 . S
C1067 C1066 1.400 . S
C1067 C1068 1.398 . S
C1067 C1073 1.491 1_545 S
C1068 H1059 0.950 . S
C1068 C1067 1.398 . S
C1068 C1069 1.391 . S
C1069 H1057 0.950 . S
C1069 C1065 1.393 . S
C1069 C1068 1.391 . S
C1070 H1060 0.950 . S
C1070 C1071 1.386 . S
C1070 C1072 1.391 . S
C1071 C1070 1.386 . S
C1071 C1075 1.393 . S
C1072 H1061 0.950 . S
C1072 C1070 1.391 . S
C1072 C1073 1.400 . S
C1073 C1067 1.491 1_565 S
C1073 C1072 1.400 . S
C1073 C1074 1.398 . S
C1074 H1062 0.950 . S
C1074 C1073 1.398 . S
C1074 C1075 1.391 . S
C1075 H1063 0.950 . S
C1075 C1071 1.393 . S
C1075 C1074 1.391 . S
H1076 C1084 0.950 . S
H1077 C1089 0.950 . S
H1078 C1086 0.950 . S
H1079 C1088 0.950 . S
H1080 C1090 0.950 . S
H1081 C1092 0.950 . S
H1082 C1094 0.950 . S
H1083 C1095 0.950 . S
C1084 H1076 0.950 . S
C1084 C1085 1.386 . S
C1084 C1086 1.391 . S
C1085 C1084 1.386 . S
C1085 C1089 1.393 . S
C1086 H1078 0.950 . S
C1086 C1084 1.391 . S
C1086 C1087 1.400 . S
C1087 C1086 1.400 . S
C1087 C1088 1.398 . S
C1087 C1093 1.491 1_455 S
C1088 H1079 0.950 . S
C1088 C1087 1.398 . S
C1088 C1089 1.391 . S
C1089 H1077 0.950 . S
C1089 C1085 1.393 . S
C1089 C1088 1.391 . S
C1090 H1080 0.950 . S
C1090 C1091 1.386 . S
C1090 C1092 1.391 . S
C1091 C1090 1.386 . S
C1091 C1095 1.393 . S
C1092 H1081 0.950 . S
C1092 C1090 1.391 . S
C1092 C1093 1.400 . S
C1093 C1087 1.491 1_655 S
C1093 C1092 1.400 . S
C1093 C1094 1.398 . S
C1094 H1082 0.950 . S
C1094 C1093 1.398 . S
C1094 C1095 1.391 . S
C1095 H1083 0.950 . S
C1095 C1091 1.393 . S
C1095 C1094 1.391 . S
H1096 C1104 0.950 . S
H1097 C1109 0.950 . S
H1098 C1106 0.950 . S
H1099 C1108 0.950 . S
H1100 C1110 0.950 . S
H1101 C1112 0.950 . S
H1102 C1114 0.950 . S
H1103 C1115 0.950 . S
C1104 H1096 0.950 . S
C1104 C1105 1.386 . S
C1104 C1106 1.391 . S
C1105 C1104 1.386 . S
C1105 C1109 1.393 . S
C1106 H1098 0.950 . S
C1106 C1104 1.391 . S
C1106 C1107 1.400 . S
C1107 C1106 1.400 . S
C1107 C1108 1.398 . S
C1107 C1113 1.491 1_545 S
C1108 H1099 0.950 . S
C1108 C1107 1.398 . S
C1108 C1109 1.391 . S
C1109 H1097 0.950 . S
C1109 C1105 1.393 . S
C1109 C1108 1.391 . S
C1110 H1100 0.950 . S
C1110 C1111 1.386 . S
C1110 C1112 1.391 . S
C1111 C1110 1.386 . S
C1111 C1115 1.393 . S
C1112 H1101 0.950 . S
C1112 C1110 1.391 . S
C1112 C1113 1.400 . S
C1113 C1107 1.491 1_565 S
C1113 C1112 1.400 . S
C1113 C1114 1.398 . S
C1114 H1102 0.950 . S
C1114 C1113 1.398 . S
C1114 C1115 1.391 . S
C1115 H1103 0.950 . S
C1115 C1111 1.393 . S
C1115 C1114 1.391 . S
H1116 C1124 0.950 . S
H1117 C1129 0.950 . S
H1118 C1126 0.950 . S
H1119 C1128 0.950 . S
H1120 C1130 0.950 . S
H1121 C1132 0.950 . S
H1122 C1134 0.950 . S
H1123 C1135 0.950 . S
C1124 H1116 0.950 . S
C1124 C1125 1.386 . S
C1124 C1126 1.391 . S
C1125 C1124 1.386 . S
C1125 C1129 1.393 . S
C1126 H1118 0.950 . S
C1126 C1124 1.391 . S
C1126 C1127 1.400 . S
C1127 C1126 1.400 . S
C1127 C1128 1.398 . S
C1127 C1133 1.491 1_655 S
C1128 H1119 0.950 . S
C1128 C1127 1.398 . S
C1128 C1129 1.391 . S
C1129 H1117 0.950 . S
C1129 C1125 1.393 . S
C1129 C1128 1.391 . S
C1130 H1120 0.950 . S
C1130 C1131 1.386 . S
C1130 C1132 1.391 . S
C1131 C1130 1.386 . S
C1131 C1135 1.393 . S
C1132 H1121 0.950 . S
C1132 C1130 1.391 . S
C1132 C1133 1.400 . S
C1133 C1127 1.491 1_455 S
C1133 C1132 1.400 . S
C1133 C1134 1.398 . S
C1134 H1122 0.950 . S
C1134 C1133 1.398 . S
C1134 C1135 1.391 . S
C1135 H1123 0.950 . S
C1135 C1131 1.393 . S
C1135 C1134 1.391 . S
H1136 C1144 0.950 . S
H1137 C1149 0.950 . S
H1138 C1146 0.950 . S
H1139 C1148 0.950 . S
H1140 C1150 0.950 . S
H1141 C1152 0.950 . S
H1142 C1154 0.950 . S
H1143 C1155 0.950 . S
C1144 H1136 0.950 . S
C1144 C1145 1.386 . S
C1144 C1146 1.391 . S
C1145 C1144 1.386 . S
C1145 C1149 1.393 . S
C1146 H1138 0.950 . S
C1146 C1144 1.391 . S
C1146 C1147 1.400 . S
C1147 C1146 1.400 . S
C1147 C1148 1.398 . S
C1147 C1153 1.491 1_565 S
C1148 H1139 0.950 . S
C1148 C1147 1.398 . S
C1148 C1149 1.391 . S
C1149 H1137 0.950 . S
C1149 C1145 1.393 . S
C1149 C1148 1.391 . S
C1150 H1140 0.950 . S
C1150 C1151 1.386 . S
C1150 C1152 1.391 . S
C1151 C1150 1.386 . S
C1151 C1155 1.393 . S
C1152 H1141 0.950 . S
C1152 C1150 1.391 . S
C1152 C1153 1.400 . S
C1153 C1147 1.491 1_545 S
C1153 C1152 1.400 . S
C1153 C1154 1.398 . S
C1154 H1142 0.950 . S
C1154 C1153 1.398 . S
C1154 C1155 1.391 . S
C1155 H1143 0.950 . S
C1155 C1151 1.393 . S
C1155 C1154 1.391 . S
H1156 C1164 0.950 . S
H1157 C1169 0.950 . S
H1158 C1166 0.950 . S
H1159 C1168 0.950 . S
H1160 C1170 0.950 . S
H1161 C1172 0.950 . S
H1162 C1174 0.950 . S
H1163 C1175 0.950 . S
C1164 H1156 0.950 . S
C1164 C1165 1.386 . S
C1164 C1166 1.391 . S
C1165 C1164 1.386 . S
C1165 C1169 1.393 . S
C1166 H1158 0.950 . S
C1166 C1164 1.391 . S
C1166 C1167 1.400 . S
C1167 C1166 1.400 . S
C1167 C1168 1.398 . S
C1167 C1173 1.491 1_455 S
C1168 H1159 0.950 . S
C1168 C1167 1.398 . S
C1168 C1169 1.391 . S
C1169 H1157 0.950 . S
C1169 C1165 1.393 . S
C1169 C1168 1.391 . S
C1170 H1160 0.950 . S
C1170 C1171 1.386 . S
C1170 C1172 1.391 . S
C1171 C1170 1.386 . S
C1171 C1175 1.393 . S
C1172 H1161 0.950 . S
C1172 C1170 1.391 . S
C1172 C1173 1.400 . S
C1173 C1167 1.491 1_655 S
C1173 C1172 1.400 . S
C1173 C1174 1.398 . S
C1174 H1162 0.950 . S
C1174 C1173 1.398 . S
C1174 C1175 1.391 . S
C1175 H1163 0.950 . S
C1175 C1171 1.393 . S
C1175 C1174 1.391 . S
H1176 C1184 0.950 . S
H1177 C1189 0.950 . S
H1178 C1186 0.950 . S
H1179 C1188 0.950 . S
H1180 C1190 0.950 . S
H1181 C1192 0.950 . S
H1182 C1194 0.950 . S
H1183 C1195 0.950 . S
C1184 H1176 0.950 . S
C1184 C1185 1.386 . S
C1184 C1186 1.391 . S
C1185 C1184 1.386 . S
C1185 C1189 1.393 . S
C1186 H1178 0.950 . S
C1186 C1184 1.391 . S
C1186 C1187 1.400 . S
C1187 C1186 1.400 . S
C1187 C1188 1.398 . S
C1187 C1193 1.491 1_545 S
C1188 H1179 0.950 . S
C1188 C1187 1.398 . S
C1188 C1189 1.391 . S
C1189 H1177 0.950 . S
C1189 C1185 1.393 . S
C1189 C1188 1.391 . S
C1190 H1180 0.950 . S
C1190 C1191 1.386 . S
C1190 C1192 1.391 . S
C1191 C1190 1.386 . S
C1191 C1195 1.393 . S
C1192 H1181 0.950 . S
C1192 C1190 1.391 . S
C1192 C1193 1.400 . S
C1193 C1187 1.491 1_565 S
C1193 C1192 1.400 . S
C1193 C1194 1.398 . S
C1194 H1182 0.950 . S
C1194 C1193 1.398 . S
C1194 C1195 1.391 . S
C1195 H1183 0.950 . S
C1195 C1191 1.393 . S
C1195 C1194 1.391 . S
H1196 C1204 0.950 . S
H1197 C1209 0.950 . S
H1198 C1206 0.950 . S
H1199 C1208 0.950 . S
H1200 C1210 0.950 . S
H1201 C1212 0.950 . S
H1202 C1214 0.950 . S
H1203 C1215 0.950 . S
C1204 H1196 0.950 . S
C1204 C1205 1.386 . S
C1204 C1206 1.391 . S
C1205 C1204 1.386 . S
C1205 C1209 1.393 . S
C1206 H1198 0.950 . S
C1206 C1204 1.391 . S
C1206 C1207 1.400 . S
C1207 C1206 1.400 . S
C1207 C1208 1.398 . S
C1207 C1213 1.491 1_655 S
C1208 H1199 0.950 . S
C1208 C1207 1.398 . S
C1208 C1209 1.391 . S
C1209 H1197 0.950 . S
C1209 C1205 1.393 . S
C1209 C1208 1.391 . S
C1210 H1200 0.950 . S
C1210 C1211 1.386 . S
C1210 C1212 1.391 . S
C1211 C1210 1.386 . S
C1211 C1215 1.393 . S
C1212 H1201 0.950 . S
C1212 C1210 1.391 . S
C1212 C1213 1.400 . S
C1213 C1207 1.491 1_455 S
C1213 C1212 1.400 . S
C1213 C1214 1.398 . S
C1214 H1202 0.950 . S
C1214 C1213 1.398 . S
C1214 C1215 1.391 . S
C1215 H1203 0.950 . S
C1215 C1211 1.393 . S
C1215 C1214 1.391 . S
H1216 C1224 0.950 . S
H1217 C1229 0.950 . S
H1218 C1226 0.950 . S
H1219 C1228 0.950 . S
H1220 C1230 0.950 . S
H1221 C1232 0.950 . S
H1222 C1234 0.950 . S
H1223 C1235 0.950 . S
C1224 H1216 0.950 . S
C1224 C1225 1.386 . S
C1224 C1226 1.391 . S
C1225 C1224 1.386 . S
C1225 C1229 1.393 . S
C1226 H1218 0.950 . S
C1226 C1224 1.391 . S
C1226 C1227 1.400 . S
C1227 C1226 1.400 . S
C1227 C1228 1.398 . S
C1227 C1233 1.491 1_554 S
C1228 H1219 0.950 . S
C1228 C1227 1.398 . S
C1228 C1229 1.391 . S
C1229 H1217 0.950 . S
C1229 C1225 1.393 . S
C1229 C1228 1.391 . S
C1230 H1220 0.950 . S
C1230 C1231 1.386 . S
C1230 C1232 1.391 . S
C1231 C1230 1.386 . S
C1231 C1235 1.393 . S
C1232 H1221 0.950 . S
C1232 C1230 1.391 . S
C1232 C1233 1.400 . S
C1233 C1227 1.491 1_556 S
C1233 C1232 1.400 . S
C1233 C1234 1.398 . S
C1234 H1222 0.950 . S
C1234 C1233 1.398 . S
C1234 C1235 1.391 . S
C1235 H1223 0.950 . S
C1235 C1231 1.393 . S
C1235 C1234 1.391 . S
H1236 C1244 0.950 . S
H1237 C1249 0.950 . S
H1238 C1246 0.950 . S
H1239 C1248 0.950 . S
H1240 C1250 0.950 . S
H1241 C1252 0.950 . S
H1242 C1254 0.950 . S
H1243 C1255 0.950 . S
C1244 H1236 0.950 . S
C1244 C1245 1.386 . S
C1244 C1246 1.391 . S
C1245 C1244 1.386 . S
C1245 C1249 1.393 . S
C1246 H1238 0.950 . S
C1246 C1244 1.391 . S
C1246 C1247 1.400 . S
C1247 C1246 1.400 . S
C1247 C1248 1.398 . S
C1247 C1253 1.491 1_556 S
C1248 H1239 0.950 . S
C1248 C1247 1.398 . S
C1248 C1249 1.391 . S
C1249 H1237 0.950 . S
C1249 C1245 1.393 . S
C1249 C1248 1.391 . S
C1250 H1240 0.950 . S
C1250 C1251 1.386 . S
C1250 C1252 1.391 . S
C1251 C1250 1.386 . S
C1251 C1255 1.393 . S
C1252 H1241 0.950 . S
C1252 C1250 1.391 . S
C1252 C1253 1.400 . S
C1253 C1247 1.491 1_554 S
C1253 C1252 1.400 . S
C1253 C1254 1.398 . S
C1254 H1242 0.950 . S
C1254 C1253 1.398 . S
C1254 C1255 1.391 . S
C1255 H1243 0.950 . S
C1255 C1251 1.393 . S
C1255 C1254 1.391 . S
H1256 C1264 0.950 . S
H1257 C1269 0.950 . S
H1258 C1266 0.950 . S
H1259 C1268 0.950 . S
H1260 C1270 0.950 . S
H1261 C1272 0.950 . S
H1262 C1274 0.950 . S
H1263 C1275 0.950 . S
C1264 H1256 0.950 . S
C1264 C1265 1.386 . S
C1264 C1266 1.391 . S
C1265 C1264 1.386 . S
C1265 C1269 1.393 . S
C1266 H1258 0.950 . S
C1266 C1264 1.391 . S
C1266 C1267 1.400 . S
C1267 C1266 1.400 . S
C1267 C1268 1.398 . S
C1267 C1273 1.491 1_556 S
C1268 H1259 0.950 . S
C1268 C1267 1.398 . S
C1268 C1269 1.391 . S
C1269 H1257 0.950 . S
C1269 C1265 1.393 . S
C1269 C1268 1.391 . S
C1270 H1260 0.950 . S
C1270 C1271 1.386 . S
C1270 C1272 1.391 . S
C1271 C1270 1.386 . S
C1271 C1275 1.393 . S
C1272 H1261 0.950 . S
C1272 C1270 1.391 . S
C1272 C1273 1.400 . S
C1273 C1267 1.491 1_554 S
C1273 C1272 1.400 . S
C1273 C1274 1.398 . S
C1274 H1262 0.950 . S
C1274 C1273 1.398 . S
C1274 C1275 1.391 . S
C1275 H1263 0.950 . S
C1275 C1271 1.393 . S
C1275 C1274 1.391 . S
H1276 C1284 0.950 . S
H1277 C1289 0.950 . S
H1278 C1286 0.950 . S
H1279 C1288 0.950 . S
H1280 C1290 0.950 . S
H1281 C1292 0.950 . S
H1282 C1294 0.950 . S
H1283 C1295 0.950 . S
C1284 H1276 0.950 . S
C1284 C1285 1.386 . S
C1284 C1286 1.391 . S
C1285 C1284 1.386 . S
C1285 C1289 1.393 . S
C1286 H1278 0.950 . S
C1286 C1284 1.391 . S
C1286 C1287 1.400 . S
C1287 C1286 1.400 . S
C1287 C1288 1.398 . S
C1287 C1293 1.491 1_556 S
C1288 H1279 0.950 . S
C1288 C1287 1.398 . S
C1288 C1289 1.391 . S
C1289 H1277 0.950 . S
C1289 C1285 1.393 . S
C1289 C1288 1.391 . S
C1290 H1280 0.950 . S
C1290 C1291 1.386 . S
C1290 C1292 1.391 . S
C1291 C1290 1.386 . S
C1291 C1295 1.393 . S
C1292 H1281 0.950 . S
C1292 C1290 1.391 . S
C1292 C1293 1.400 . S
C1293 C1287 1.491 1_554 S
C1293 C1292 1.400 . S
C1293 C1294 1.398 . S
C1294 H1282 0.950 . S
C1294 C1293 1.398 . S
C1294 C1295 1.391 . S
C1295 H1283 0.950 . S
C1295 C1291 1.393 . S
C1295 C1294 1.391 . S
H1296 C1304 0.950 . S
H1297 C1309 0.950 . S
H1298 C1306 0.950 . S
H1299 C1308 0.950 . S
H1300 C1310 0.950 . S
H1301 C1312 0.950 . S
H1302 C1314 0.950 . S
H1303 C1315 0.950 . S
C1304 H1296 0.950 . S
C1304 C1305 1.386 . S
C1304 C1306 1.391 . S
C1305 C1304 1.386 . S
C1305 C1309 1.393 . S
C1306 H1298 0.950 . S
C1306 C1304 1.391 . S
C1306 C1307 1.400 . S
C1307 C1306 1.400 . S
C1307 C1308 1.398 . S
C1307 C1313 1.491 1_556 S
C1308 H1299 0.950 . S
C1308 C1307 1.398 . S
C1308 C1309 1.391 . S
C1309 H1297 0.950 . S
C1309 C1305 1.393 . S
C1309 C1308 1.391 . S
C1310 H1300 0.950 . S
C1310 C1311 1.386 . S
C1310 C1312 1.391 . S
C1311 C1310 1.386 . S
C1311 C1315 1.393 . S
C1312 H1301 0.950 . S
C1312 C1310 1.391 . S
C1312 C1313 1.400 . S
C1313 C1307 1.491 1_554 S
C1313 C1312 1.400 . S
C1313 C1314 1.398 . S
C1314 H1302 0.950 . S
C1314 C1313 1.398 . S
C1314 C1315 1.391 . S
C1315 H1303 0.950 . S
C1315 C1311 1.393 . S
C1315 C1314 1.391 . S
H1316 C1324 0.950 . S
H1317 C1329 0.950 . S
H1318 C1326 0.950 . S
H1319 C1328 0.950 . S
H1320 C1330 0.950 . S
H1321 C1332 0.950 . S
H1322 C1334 0.950 . S
H1323 C1335 0.950 . S
C1324 H1316 0.950 . S
C1324 C1325 1.386 . S
C1324 C1326 1.391 . S
C1325 C1324 1.386 . S
C1325 C1329 1.393 . S
C1326 H1318 0.950 . S
C1326 C1324 1.391 . S
C1326 C1327 1.400 . S
C1327 C1326 1.400 . S
C1327 C1328 1.398 . S
C1327 C1333 1.491 1_556 S
C1328 H1319 0.950 . S
C1328 C1327 1.398 . S
C1328 C1329 1.391 . S
C1329 H1317 0.950 . S
C1329 C1325 1.393 . S
C1329 C1328 1.391 . S
C1330 H1320 0.950 . S
C1330 C1331 1.386 . S
C1330 C1332 1.391 . S
C1331 C1330 1.386 . S
C1331 C1335 1.393 . S
C1332 H1321 0.950 . S
C1332 C1330 1.391 . S
C1332 C1333 1.400 . S
C1333 C1327 1.491 1_554 S
C1333 C1332 1.400 . S
C1333 C1334 1.398 . S
C1334 H1322 0.950 . S
C1334 C1333 1.398 . S
C1334 C1335 1.391 . S
C1335 H1323 0.950 . S
C1335 C1331 1.393 . S
C1335 C1334 1.391 . S
H1336 C1344 0.950 . S
H1337 C1349 0.950 . S
H1338 C1346 0.950 . S
H1339 C1348 0.950 . S
H1340 C1350 0.950 . S
H1341 C1352 0.950 . S
H1342 C1354 0.950 . S
H1343 C1355 0.950 . S
C1344 H1336 0.950 . S
C1344 C1345 1.386 . S
C1344 C1346 1.391 . S
C1345 C1344 1.386 . S
C1345 C1349 1.393 . S
C1346 H1338 0.950 . S
C1346 C1344 1.391 . S
C1346 C1347 1.400 . S
C1347 C1346 1.400 . S
C1347 C1348 1.398 . S
C1347 C1353 1.491 1_556 S
C1348 H1339 0.950 . S
C1348 C1347 1.398 . S
C1348 C1349 1.391 . S
C1349 H1337 0.950 . S
C1349 C1345 1.393 . S
C1349 C1348 1.391 . S
C1350 H1340 0.950 . S
C1350 C1351 1.386 . S
C1350 C1352 1.391 . S
C1351 C1350 1.386 . S
C1351 C1355 1.393 . S
C1352 H1341 0.950 . S
C1352 C1350 1.391 . S
C1352 C1353 1.400 . S
C1353 C1347 1.491 1_554 S
C1353 C1352 1.400 . S
C1353 C1354 1.398 . S
C1354 H1342 0.950 . S
C1354 C1353 1.398 . S
C1354 C1355 1.391 . S
C1355 H1343 0.950 . S
C1355 C1351 1.393 . S
C1355 C1354 1.391 . S
H1356 C1364 0.950 . S
H1357 C1369 0.950 . S
H1358 C1366 0.950 . S
H1359 C1368 0.950 . S
H1360 C1370 0.950 . S
H1361 C1372 0.950 . S
H1362 C1374 0.950 . S
H1363 C1375 0.950 . S
C1364 H1356 0.950 . S
C1364 C1365 1.386 . S
C1364 C1366 1.391 . S
C1365 C1364 1.386 . S
C1365 C1369 1.393 . S
C1366 H1358 0.950 . S
C1366 C1364 1.391 . S
C1366 C1367 1.400 . S
C1367 C1366 1.400 . S
C1367 C1368 1.398 . S
C1367 C1373 1.491 1_556 S
C1368 H1359 0.950 . S
C1368 C1367 1.398 . S
C1368 C1369 1.391 . S
C1369 H1357 0.950 . S
C1369 C1365 1.393 . S
C1369 C1368 1.391 . S
C1370 H1360 0.950 . S
C1370 C1371 1.386 . S
C1370 C1372 1.391 . S
C1371 C1370 1.386 . S
C1371 C1375 1.393 . S
C1372 H1361 0.950 . S
C1372 C1370 1.391 . S
C1372 C1373 1.400 . S
C1373 C1367 1.491 1_554 S
C1373 C1372 1.400 . S
C1373 C1374 1.398 . S
C1374 H1362 0.950 . S
C1374 C1373 1.398 . S
C1374 C1375 1.391 . S
C1375 H1363 0.950 . S
C1375 C1371 1.393 . S
C1375 C1374 1.391 . S
H1376 C1384 0.950 . S
H1377 C1389 0.950 . S
H1378 C1386 0.950 . S
H1379 C1388 0.950 . S
H1380 C1390 0.950 . S
H1381 C1392 0.950 . S
H1382 C1394 0.950 . S
H1383 C1395 0.950 . S
C1384 H1376 0.950 . S
C1384 C1385 1.386 . S
C1384 C1386 1.391 . S
C1385 C1384 1.386 . S
C1385 C1389 1.393 . S
C1386 H1378 0.950 . S
C1386 C1384 1.391 . S
C1386 C1387 1.400 . S
C1387 C1386 1.400 . S
C1387 C1388 1.398 . S
C1387 C1393 1.491 1_655 S
C1388 H1379 0.950 . S
C1388 C1387 1.398 . S
C1388 C1389 1.391 . S
C1389 H1377 0.950 . S
C1389 C1385 1.393 . S
C1389 C1388 1.391 . S
C1390 H1380 0.950 . S
C1390 C1391 1.386 . S
C1390 C1392 1.391 . S
C1391 C1390 1.386 . S
C1391 C1395 1.393 . S
C1392 H1381 0.950 . S
C1392 C1390 1.391 . S
C1392 C1393 1.400 . S
C1393 C1387 1.491 1_455 S
C1393 C1392 1.400 . S
C1393 C1394 1.398 . S
C1394 H1382 0.950 . S
C1394 C1393 1.398 . S
C1394 C1395 1.391 . S
C1395 H1383 0.950 . S
C1395 C1391 1.393 . S
C1395 C1394 1.391 . S
H1396 C1404 0.950 . S
H1397 C1409 0.950 . S
H1398 C1406 0.950 . S
H1399 C1408 0.950 . S
H1400 C1410 0.950 . S
H1401 C1412 0.950 . S
H1402 C1414 0.950 . S
H1403 C1415 0.950 . S
C1404 H1396 0.950 . S
C1404 C1405 1.386 . S
C1404 C1406 1.391 . S
C1405 C1404 1.386 . S
C1405 C1409 1.393 . S
C1406 H1398 0.950 . S
C1406 C1404 1.391 . S
C1406 C1407 1.400 . S
C1407 C1406 1.400 . S
C1407 C1408 1.398 . S
C1407 C1413 1.491 1_455 S
C1408 H1399 0.950 . S
C1408 C1407 1.398 . S
C1408 C1409 1.391 . S
C1409 H1397 0.950 . S
C1409 C1405 1.393 . S
C1409 C1408 1.391 . S
C1410 H1400 0.950 . S
C1410 C1411 1.386 . S
C1410 C1412 1.391 . S
C1411 C1410 1.386 . S
C1411 C1415 1.393 . S
C1412 H1401 0.950 . S
C1412 C1410 1.391 . S
C1412 C1413 1.400 . S
C1413 C1407 1.491 1_655 S
C1413 C1412 1.400 . S
C1413 C1414 1.398 . S
C1414 H1402 0.950 . S
C1414 C1413 1.398 . S
C1414 C1415 1.391 . S
C1415 H1403 0.950 . S
C1415 C1411 1.393 . S
C1415 C1414 1.391 . S
H1416 C1424 0.950 . S
H1417 C1429 0.950 . S
H1418 C1426 0.950 . S
H1419 C1428 0.950 . S
H1420 C1430 0.950 . S
H1421 C1432 0.950 . S
H1422 C1434 0.950 . S
H1423 C1435 0.950 . S
C1424 H1416 0.950 . S
C1424 C1425 1.386 . S
C1424 C1426 1.391 . S
C1425 C1424 1.386 . S
C1425 C1429 1.393 . S
C1426 H1418 0.950 . S
C1426 C1424 1.391 . S
C1426 C1427 1.400 . S
C1427 C1426 1.400 . S
C1427 C1428 1.398 . S
C1427 C1433 1.491 1_545 S
C1428 H1419 0.950 . S
C1428 C1427 1.398 . S
C1428 C1429 1.391 . S
C1429 H1417 0.950 . S
C1429 C1425 1.393 . S
C1429 C1428 1.391 . S
C1430 H1420 0.950 . S
C1430 C1431 1.386 . S
C1430 C1432 1.391 . S
C1431 C1430 1.386 . S
C1431 C1435 1.393 . S
C1432 H1421 0.950 . S
C1432 C1430 1.391 . S
C1432 C1433 1.400 . S
C1433 C1427 1.491 1_565 S
C1433 C1432 1.400 . S
C1433 C1434 1.398 . S
C1434 H1422 0.950 . S
C1434 C1433 1.398 . S
C1434 C1435 1.391 . S
C1435 H1423 0.950 . S
C1435 C1431 1.393 . S
C1435 C1434 1.391 . S
H1436 C1444 0.950 . S
H1437 C1449 0.950 . S
H1438 C1446 0.950 . S
H1439 C1448 0.950 . S
H1440 C1450 0.950 . S
H1441 C1452 0.950 . S
H1442 C1454 0.950 . S
H1443 C1455 0.950 . S
C1444 H1436 0.950 . S
C1444 C1445 1.386 . S
C1444 C1446 1.391 . S
C1445 C1444 1.386 . S
C1445 C1449 1.393 . S
C1446 H1438 0.950 . S
C1446 C1444 1.391 . S
C1446 C1447 1.400 . S
C1447 C1446 1.400 . S
C1447 C1448 1.398 . S
C1447 C1453 1.491 1_655 S
C1448 H1439 0.950 . S
C1448 C1447 1.398 . S
C1448 C1449 1.391 . S
C1449 H1437 0.950 . S
C1449 C1445 1.393 . S
C1449 C1448 1.391 . S
C1450 H1440 0.950 . S
C1450 C1451 1.386 . S
C1450 C1452 1.391 . S
C1451 C1450 1.386 . S
C1451 C1455 1.393 . S
C1452 H1441 0.950 . S
C1452 C1450 1.391 . S
C1452 C1453 1.400 . S
C1453 C1447 1.491 1_455 S
C1453 C1452 1.400 . S
C1453 C1454 1.398 . S
C1454 H1442 0.950 . S
C1454 C1453 1.398 . S
C1454 C1455 1.391 . S
C1455 H1443 0.950 . S
C1455 C1451 1.393 . S
C1455 C1454 1.391 . S
H1456 C1464 0.950 . S
H1457 C1469 0.950 . S
H1458 C1466 0.950 . S
H1459 C1468 0.950 . S
H1460 C1470 0.950 . S
H1461 C1472 0.950 . S
H1462 C1474 0.950 . S
H1463 C1475 0.950 . S
C1464 H1456 0.950 . S
C1464 C1465 1.386 . S
C1464 C1466 1.391 . S
C1465 C1464 1.386 . S
C1465 C1469 1.393 . S
C1466 H1458 0.950 . S
C1466 C1464 1.391 . S
C1466 C1467 1.400 . S
C1467 C1466 1.400 . S
C1467 C1468 1.398 . S
C1467 C1473 1.491 1_565 S
C1468 H1459 0.950 . S
C1468 C1467 1.398 . S
C1468 C1469 1.391 . S
C1469 H1457 0.950 . S
C1469 C1465 1.393 . S
C1469 C1468 1.391 . S
C1470 H1460 0.950 . S
C1470 C1471 1.386 . S
C1470 C1472 1.391 . S
C1471 C1470 1.386 . S
C1471 C1475 1.393 . S
C1472 H1461 0.950 . S
C1472 C1470 1.391 . S
C1472 C1473 1.400 . S
C1473 C1467 1.491 1_545 S
C1473 C1472 1.400 . S
C1473 C1474 1.398 . S
C1474 H1462 0.950 . S
C1474 C1473 1.398 . S
C1474 C1475 1.391 . S
C1475 H1463 0.950 . S
C1475 C1471 1.393 . S
C1475 C1474 1.391 . S
H1476 C1484 0.950 . S
H1477 C1489 0.950 . S
H1478 C1486 0.950 . S
H1479 C1488 0.950 . S
H1480 C1490 0.950 . S
H1481 C1492 0.950 . S
H1482 C1494 0.950 . S
H1483 C1495 0.950 . S
C1484 H1476 0.950 . S
C1484 C1485 1.386 . S
C1484 C1486 1.391 . S
C1485 C1484 1.386 . S
C1485 C1489 1.393 . S
C1486 H1478 0.950 . S
C1486 C1484 1.391 . S
C1486 C1487 1.400 . S
C1487 C1486 1.400 . S
C1487 C1488 1.398 . S
C1487 C1493 1.491 1_455 S
C1488 H1479 0.950 . S
C1488 C1487 1.398 . S
C1488 C1489 1.391 . S
C1489 H1477 0.950 . S
C1489 C1485 1.393 . S
C1489 C1488 1.391 . S
C1490 H1480 0.950 . S
C1490 C1491 1.386 . S
C1490 C1492 1.391 . S
C1491 C1490 1.386 . S
C1491 C1495 1.393 . S
C1492 H1481 0.950 . S
C1492 C1490 1.391 . S
C1492 C1493 1.400 . S
C1493 C1487 1.491 1_655 S
C1493 C1492 1.400 . S
C1493 C1494 1.398 . S
C1494 H1482 0.950 . S
C1494 C1493 1.398 . S
C1494 C1495 1.391 . S
C1495 H1483 0.950 . S
C1495 C1491 1.393 . S
C1495 C1494 1.391 . S
H1496 C1504 0.950 . S
H1497 C1509 0.950 . S
H1498 C1506 0.950 . S
H1499 C1508 0.950 . S
H1500 C1510 0.950 . S
H1501 C1512 0.950 . S
H1502 C1514 0.950 . S
H1503 C1515 0.950 . S
C1504 H1496 0.950 . S
C1504 C1505 1.386 . S
C1504 C1506 1.391 . S
C1505 C1504 1.386 . S
C1505 C1509 1.393 . S
C1506 H1498 0.950 . S
C1506 C1504 1.391 . S
C1506 C1507 1.400 . S
C1507 C1506 1.400 . S
C1507 C1508 1.398 . S
C1507 C1513 1.491 1_565 S
C1508 H1499 0.950 . S
C1508 C1507 1.398 . S
C1508 C1509 1.391 . S
C1509 H1497 0.950 . S
C1509 C1505 1.393 . S
C1509 C1508 1.391 . S
C1510 H1500 0.950 . S
C1510 C1511 1.386 . S
C1510 C1512 1.391 . S
C1511 C1510 1.386 . S
C1511 C1515 1.393 . S
C1512 H1501 0.950 . S
C1512 C1510 1.391 . S
C1512 C1513 1.400 . S
C1513 C1507 1.491 1_545 S
C1513 C1512 1.400 . S
C1513 C1514 1.398 . S
C1514 H1502 0.950 . S
C1514 C1513 1.398 . S
C1514 C1515 1.391 . S
C1515 H1503 0.950 . S
C1515 C1511 1.393 . S
C1515 C1514 1.391 . S
H1516 C1524 0.950 . S
H1517 C1529 0.950 . S
H1518 C1526 0.950 . S
H1519 C1528 0.950 . S
H1520 C1530 0.950 . S
H1521 C1532 0.950 . S
H1522 C1534 0.950 . S
H1523 C1535 0.950 . S
C1524 H1516 0.950 . S
C1524 C1525 1.386 . S
C1524 C1526 1.391 . S
C1525 C1524 1.386 . S
C1525 C1529 1.393 . S
C1526 H1518 0.950 . S
C1526 C1524 1.391 . S
C1526 C1527 1.400 . S
C1527 C1526 1.400 . S
C1527 C1528 1.398 . S
C1527 C1533 1.491 1_545 S
C1528 H1519 0.950 . S
C1528 C1527 1.398 . S
C1528 C1529 1.391 . S
C1529 H1517 0.950 . S
C1529 C1525 1.393 . S
C1529 C1528 1.391 . S
C1530 H1520 0.950 . S
C1530 C1531 1.386 . S
C1530 C1532 1.391 . S
C1531 C1530 1.386 . S
C1531 C1535 1.393 . S
C1532 H1521 0.950 . S
C1532 C1530 1.391 . S
C1532 C1533 1.400 . S
C1533 C1527 1.491 1_565 S
C1533 C1532 1.400 . S
C1533 C1534 1.398 . S
C1534 H1522 0.950 . S
C1534 C1533 1.398 . S
C1534 C1535 1.391 . S
C1535 H1523 0.950 . S
C1535 C1531 1.393 . S
C1535 C1534 1.391 . S
H1536 C1544 0.950 . S
H1537 C1549 0.950 . S
H1538 C1546 0.950 . S
H1539 C1548 0.950 . S
H1540 C1550 0.950 . S
H1541 C1552 0.950 . S
H1542 C1554 0.950 . S
H1543 C1555 0.950 . S
C1544 H1536 0.950 . S
C1544 C1545 1.386 . S
C1544 C1546 1.391 . S
C1545 C1544 1.386 . S
C1545 C1549 1.393 . S
C1546 H1538 0.950 . S
C1546 C1544 1.391 . S
C1546 C1547 1.400 . S
C1547 C1546 1.400 . S
C1547 C1548 1.398 . S
C1547 C1553 1.491 . S
C1548 H1539 0.950 . S
C1548 C1547 1.398 . S
C1548 C1549 1.391 . S
C1549 H1537 0.950 . S
C1549 C1545 1.393 . S
C1549 C1548 1.391 . S
C1550 H1540 0.950 . S
C1550 C1551 1.386 . S
C1550 C1552 1.391 . S
C1551 C1550 1.386 . S
C1551 C1555 1.393 . S
C1552 H1541 0.950 . S
C1552 C1550 1.391 . S
C1552 C1553 1.400 . S
C1553 C1547 1.491 . S
C1553 C1552 1.400 . S
C1553 C1554 1.398 . S
C1554 H1542 0.950 . S
C1554 C1553 1.398 . S
C1554 C1555 1.391 . S
C1555 H1543 0.950 . S
C1555 C1551 1.393 . S
C1555 C1554 1.391 . S
H1556 C1564 0.950 . S
H1557 C1569 0.950 . S
H1558 C1566 0.950 . S
H1559 C1568 0.950 . S
H1560 C1570 0.950 . S
H1561 C1572 0.950 . S
H1562 C1574 0.950 . S
H1563 C1575 0.950 . S
C1564 H1556 0.950 . S
C1564 C1565 1.386 . S
C1564 C1566 1.391 . S
C1565 C1564 1.386 . S
C1565 C1569 1.393 . S
C1566 H1558 0.950 . S
C1566 C1564 1.391 . S
C1566 C1567 1.400 . S
C1567 C1566 1.400 . S
C1567 C1568 1.398 . S
C1567 C1573 1.491 . S
C1568 H1559 0.950 . S
C1568 C1567 1.398 . S
C1568 C1569 1.391 . S
C1569 H1557 0.950 . S
C1569 C1565 1.393 . S
C1569 C1568 1.391 . S
C1570 H1560 0.950 . S
C1570 C1571 1.386 . S
C1570 C1572 1.391 . S
C1571 C1570 1.386 . S
C1571 C1575 1.393 . S
C1572 H1561 0.950 . S
C1572 C1570 1.391 . S
C1572 C1573 1.400 . S
C1573 C1567 1.491 . S
C1573 C1572 1.400 . S
C1573 C1574 1.398 . S
C1574 H1562 0.950 . S
C1574 C1573 1.398 . S
C1574 C1575 1.391 . S
C1575 H1563 0.950 . S
C1575 C1571 1.393 . S
C1575 C1574 1.391 . S
H1576 C1584 0.950 . S
H1577 C1589 0.950 . S
H1578 C1586 0.950 . S
H1579 C1588 0.950 . S
H1580 C1590 0.950 . S
H1581 C1592 0.950 . S
H1582 C1594 0.950 . S
H1583 C1595 0.950 . S
C1584 H1576 0.950 . S
C1584 C1585 1.386 . S
C1584 C1586 1.391 . S
C1585 C1584 1.386 . S
C1585 C1589 1.393 . S
C1586 H1578 0.950 . S
C1586 C1584 1.391 . S
C1586 C1587 1.400 . S
C1587 C1586 1.400 . S
C1587 C1588 1.398 . S
C1587 C1593 1.491 . S
C1588 H1579 0.950 . S
C1588 C1587 1.398 . S
C1588 C1589 1.391 . S
C1589 H1577 0.950 . S
C1589 C1585 1.393 . S
C1589 C1588 1.391 . S
C1590 H1580 0.950 . S
C1590 C1591 1.386 . S
C1590 C1592 1.391 . S
C1591 C1590 1.386 . S
C1591 C1595 1.393 . S
C1592 H1581 0.950 . S
C1592 C1590 1.391 . S
C1592 C1593 1.400 . S
C1593 C1587 1.491 . S
C1593 C1592 1.400 . S
C1593 C1594 1.398 . S
C1594 H1582 0.950 . S
C1594 C1593 1.398 . S
C1594 C1595 1.391 . S
C1595 H1583 0.950 . S
C1595 C1591 1.393 . S
C1595 C1594 1.391 . S
H1596 C1604 0.950 . S
H1597 C1609 0.950 . S
H1598 C1606 0.950 . S
H1599 C1608 0.950 . S
H1600 C1610 0.950 . S
H1601 C1612 0.950 . S
H1602 C1614 0.950 . S
H1603 C1615 0.950 . S
C1604 H1596 0.950 . S
C1604 C1605 1.386 . S
C1604 C1606 1.391 . S
C1605 C1604 1.386 . S
C1605 C1609 1.393 . S
C1606 H1598 0.950 . S
C1606 C1604 1.391 . S
C1606 C1607 1.400 . S
C1607 C1606 1.400 . S
C1607 C1608 1.398 . S
C1607 C1613 1.491 . S
C1608 H1599 0.950 . S
C1608 C1607 1.398 . S
C1608 C1609 1.391 . S
C1609 H1597 0.950 . S
C1609 C1605 1.393 . S
C1609 C1608 1.391 . S
C1610 H1600 0.950 . S
C1610 C1611 1.386 . S
C1610 C1612 1.391 . S
C1611 C1610 1.386 . S
C1611 C1615 1.393 . S
C1612 H1601 0.950 . S
C1612 C1610 1.391 . S
C1612 C1613 1.400 . S
C1613 C1607 1.491 . S
C1613 C1612 1.400 . S
C1613 C1614 1.398 . S
C1614 H1602 0.950 . S
C1614 C1613 1.398 . S
C1614 C1615 1.391 . S
C1615 H1603 0.950 . S
C1615 C1611 1.393 . S
C1615 C1614 1.391 . S
H1616 C1624 0.950 . S
H1617 C1629 0.950 . S
H1618 C1626 0.950 . S
H1619 C1628 0.950 . S
H1620 C1630 0.950 . S
H1621 C1632 0.950 . S
H1622 C1634 0.950 . S
H1623 C1635 0.950 . S
C1624 H1616 0.950 . S
C1624 C1625 1.386 . S
C1624 C1626 1.391 . S
C1625 C1624 1.386 . S
C1625 C1629 1.393 . S
C1626 H1618 0.950 . S
C1626 C1624 1.391 . S
C1626 C1627 1.400 . S
C1627 C1626 1.400 . S
C1627 C1628 1.398 . S
C1627 C1633 1.491 . S
C1628 H1619 0.950 . S
C1628 C1627 1.398 . S
C1628 C1629 1.391 . S
C1629 H1617 0.950 . S
C1629 C1625 1.393 . S
C1629 C1628 1.391 . S
C1630 H1620 0.950 . S
C1630 C1631 1.386 . S
C1630 C1632 1.391 . S
C1631 C1630 1.386 . S
C1631 C1635 1.393 . S
C1632 H1621 0.950 . S
C1632 C1630 1.391 . S
C1632 C1633 1.400 . S
C1633 C1627 1.491 . S
C1633 C1632 1.400 . S
C1633 C1634 1.398 . S
C1634 H1622 0.950 . S
C1634 C1633 1.398 . S
C1634 C1635 1.391 . S
C1635 H1623 0.950 . S
C1635 C1631 1.393 . S
C1635 C1634 1.391 . S
H1636 C1644 0.950 . S
H1637 C1649 0.950 . S
H1638 C1646 0.950 . S
H1639 C1648 0.950 . S
H1640 C1650 0.950 . S
H1641 C1652 0.950 . S
H1642 C1654 0.950 . S
H1643 C1655 0.950 . S
C1644 H1636 0.950 . S
C1644 C1645 1.386 . S
C1644 C1646 1.391 . S
C1645 C1644 1.386 . S
C1645 C1649 1.393 . S
C1646 H1638 0.950 . S
C1646 C1644 1.391 . S
C1646 C1647 1.400 . S
C1647 C1646 1.400 . S
C1647 C1648 1.398 . S
C1647 C1653 1.491 . S
C1648 H1639 0.950 . S
C1648 C1647 1.398 . S
C1648 C1649 1.391 . S
C1649 H1637 0.950 . S
C1649 C1645 1.393 . S
C1649 C1648 1.391 . S
C1650 H1640 0.950 . S
C1650 C1651 1.386 . S
C1650 C1652 1.391 . S
C1651 C1650 1.386 . S
C1651 C1655 1.393 . S
C1652 H1641 0.950 . S
C1652 C1650 1.391 . S
C1652 C1653 1.400 . S
C1653 C1647 1.491 . S
C1653 C1652 1.400 . S
C1653 C1654 1.398 . S
C1654 H1642 0.950 . S
C1654 C1653 1.398 . S
C1654 C1655 1.391 . S
C1655 H1643 0.950 . S
C1655 C1651 1.393 . S
C1655 C1654 1.391 . S
H1656 C1664 0.950 . S
H1657 C1669 0.950 . S
H1658 C1666 0.950 . S
H1659 C1668 0.950 . S
H1660 C1670 0.950 . S
H1661 C1672 0.950 . S
H1662 C1674 0.950 . S
H1663 C1675 0.950 . S
C1664 H1656 0.950 . S
C1664 C1665 1.386 . S
C1664 C1666 1.391 . S
C1665 C1664 1.386 . S
C1665 C1669 1.393 . S
C1666 H1658 0.950 . S
C1666 C1664 1.391 . S
C1666 C1667 1.400 . S
C1667 C1666 1.400 . S
C1667 C1668 1.398 . S
C1667 C1673 1.491 . S
C1668 H1659 0.950 . S
C1668 C1667 1.398 . S
C1668 C1669 1.391 . S
C1669 H1657 0.950 . S
C1669 C1665 1.393 . S
C1669 C1668 1.391 . S
C1670 H1660 0.950 . S
C1670 C1671 1.386 . S
C1670 C1672 1.391 . S
C1671 C1670 1.386 . S
C1671 C1675 1.393 . S
C1672 H1661 0.950 . S
C1672 C1670 1.391 . S
C1672 C1673 1.400 . S
C1673 C1667 1.491 . S
C1673 C1672 1.400 . S
C1673 C1674 1.398 . S
C1674 H1662 0.950 . S
C1674 C1673 1.398 . S
C1674 C1675 1.391 . S
C1675 H1663 0.950 . S
C1675 C1671 1.393 . S
C1675 C1674 1.391 . S
H1676 C1684 0.950 . S
H1677 C1689 0.950 . S
H1678 C1686 0.950 . S
H1679 C1688 0.950 . S
H1680 C1690 0.950 . S
H1681 C1692 0.950 . S
H1682 C1694 0.950 . S
H1683 C1695 0.950 . S
C1684 H1676 0.950 . S
C1684 C1685 1.386 . S
C1684 C1686 1.391 . S
C1685 C1684 1.386 . S
C1685 C1689 1.393 . S
C1686 H1678 0.950 . S
C1686 C1684 1.391 . S
C1686 C1687 1.400 . S
C1687 C1686 1.400 . S
C1687 C1688 1.398 . S
C1687 C1693 1.491 . S
C1688 H1679 0.950 . S
C1688 C1687 1.398 . S
C1688 C1689 1.391 . S
C1689 H1677 0.950 . S
C1689 C1685 1.393 . S
C1689 C1688 1.391 . S
C1690 H1680 0.950 . S
C1690 C1691 1.386 . S
C1690 C1692 1.391 . S
C1691 C1690 1.386 . S
C1691 C1695 1.393 . S
C1692 H1681 0.950 . S
C1692 C1690 1.391 . S
C1692 C1693 1.400 . S
C1693 C1687 1.491 . S
C1693 C1692 1.400 . S
C1693 C1694 1.398 . S
C1694 H1682 0.950 . S
C1694 C1693 1.398 . S
C1694 C1695 1.391 . S
C1695 H1683 0.950 . S
C1695 C1691 1.393 . S
C1695 C1694 1.391 . S
H1696 C1704 0.950 . S
H1697 C1709 0.950 . S
H1698 C1706 0.950 . S
H1699 C1708 0.950 . S
H1700 C1710 0.950 . S
H1701 C1712 0.950 . S
H1702 C1714 0.950 . S
H1703 C1715 0.950 . S
C1704 H1696 0.950 . S
C1704 C1705 1.386 . S
C1704 C1706 1.391 . S
C1705 C1704 1.386 . S
C1705 C1709 1.393 . S
C1706 H1698 0.950 . S
C1706 C1704 1.391 . S
C1706 C1707 1.400 . S
C1707 C1706 1.400 . S
C1707 C1708 1.398 . S
C1707 C1713 1.491 . S
C1708 H1699 0.950 . S
C1708 C1707 1.398 . S
C1708 C1709 1.391 . S
C1709 H1697 0.950 . S
C1709 C1705 1.393 . S
C1709 C1708 1.391 . S
C1710 H1700 0.950 . S
C1710 C1711 1.386 . S
C1710 C1712 1.391 . S
C1711 C1710 1.386 . S
C1711 C1715 1.393 . S
C1712 H1701 0.950 . S
C1712 C1710 1.391 . S
C1712 C1713 1.400 . S
C1713 C1707 1.491 . S
C1713 C1712 1.400 . S
C1713 C1714 1.398 . S
C1714 H1702 0.950 . S
C1714 C1713 1.398 . S
C1714 C1715 1.391 . S
C1715 H1703 0.950 . S
C1715 C1711 1.393 . S
C1715 C1714 1.391 . S
H1716 C1724 0.950 . S
H1717 C1729 0.950 . S
H1718 C1726 0.950 . S
H1719 C1728 0.950 . S
H1720 C1730 0.950 . S
H1721 C1732 0.950 . S
H1722 C1734 0.950 . S
H1723 C1735 0.950 . S
C1724 H1716 0.950 . S
C1724 C1725 1.386 . S
C1724 C1726 1.391 . S
C1725 C1724 1.386 . S
C1725 C1729 1.393 . S
C1726 H1718 0.950 . S
C1726 C1724 1.391 . S
C1726 C1727 1.400 . S
C1727 C1726 1.400 . S
C1727 C1728 1.398 . S
C1727 C1733 1.491 . S
C1728 H1719 0.950 . S
C1728 C1727 1.398 . S
C1728 C1729 1.391 . S
C1729 H1717 0.950 . S
C1729 C1725 1.393 . S
C1729 C1728 1.391 . S
C1730 H1720 0.950 . S
C1730 C1731 1.386 . S
C1730 C1732 1.391 . S
C1731 C1730 1.386 . S
C1731 C1735 1.393 . S
C1732 H1721 0.950 . S
C1732 C1730 1.391 . S
C1732 C1733 1.400 . S
C1733 C1727 1.491 . S
C1733 C1732 1.400 . S
C1733 C1734 1.398 . S
C1734 H1722 0.950 . S
C1734 C1733 1.398 . S
C1734 C1735 1.391 . S
C1735 H1723 0.950 . S
C1735 C1731 1.393 . S
C1735 C1734 1.391 . S
H1736 C1744 0.950 . S
H1737 C1749 0.950 . S
H1738 C1746 0.950 . S
H1739 C1748 0.950 . S
H1740 C1750 0.950 . S
H1741 C1752 0.950 . S
H1742 C1754 0.950 . S
H1743 C1755 0.950 . S
C1744 H1736 0.950 . S
C1744 C1745 1.386 . S
C1744 C1746 1.391 . S
C1745 C1744 1.386 . S
C1745 C1749 1.393 . S
C1746 H1738 0.950 . S
C1746 C1744 1.391 . S
C1746 C1747 1.400 . S
C1747 C1746 1.400 . S
C1747 C1748 1.398 . S
C1747 C1753 1.491 . S
C1748 H1739 0.950 . S
C1748 C1747 1.398 . S
C1748 C1749 1.391 . S
C1749 H1737 0.950 . S
C1749 C1745 1.393 . S
C1749 C1748 1.391 . S
C1750 H1740 0.950 . S
C1750 C1751 1.386 . S
C1750 C1752 1.391 . S
C1751 C1750 1.386 . S
C1751 C1755 1.393 . S
C1752 H1741 0.950 . S
C1752 C1750 1.391 . S
C1752 C1753 1.400 . S
C1753 C1747 1.491 . S
C1753 C1752 1.400 . S
C1753 C1754 1.398 . S
C1754 H1742 0.950 . S
C1754 C1753 1.398 . S
C1754 C1755 1.391 . S
C1755 H1743 0.950 . S
C1755 C1751 1.393 . S
C1755 C1754 1.391 . S
H1756 C1764 0.950 . S
H1757 C1769 0.950 . S
H1758 C1766 0.950 . S
H1759 C1768 0.950 . S
H1760 C1770 0.950 . S
H1761 C1772 0.950 . S
H1762 C1774 0.950 . S
H1763 C1775 0.950 . S
C1764 H1756 0.950 . S
C1764 C1765 1.386 . S
C1764 C1766 1.391 . S
C1765 C1764 1.386 . S
C1765 C1769 1.393 . S
C1766 H1758 0.950 . S
C1766 C1764 1.391 . S
C1766 C1767 1.400 . S
C1767 C1766 1.400 . S
C1767 C1768 1.398 . S
C1767 C1773 1.491 . S
C1768 H1759 0.950 . S
C1768 C1767 1.398 . S
C1768 C1769 1.391 . S
C1769 H1757 0.950 . S
C1769 C1765 1.393 . S
C1769 C1768 1.391 . S
C1770 H1760 0.950 . S
C1770 C1771 1.386 . S
C1770 C1772 1.391 . S
C1771 C1770 1.386 . S
C1771 C1775 1.393 . S
C1772 H1761 0.950 . S
C1772 C1770 1.391 . S
C1772 C1773 1.400 . S
C1773 C1767 1.491 . S
C1773 C1772 1.400 . S
C1773 C1774 1.398 . S
C1774 H1762 0.950 . S
C1774 C1773 1.398 . S
C1774 C1775 1.391 . S
C1775 H1763 0.950 . S
C1775 C1771 1.393 . S
C1775 C1774 1.391 . S
H1776 C1784 0.950 . S
H1777 C1789 0.950 . S
H1778 C1786 0.950 . S
H1779 C1788 0.950 . S
H1780 C1790 0.950 . S
H1781 C1792 0.950 . S
H1782 C1794 0.950 . S
H1783 C1795 0.950 . S
C1784 H1776 0.950 . S
C1784 C1785 1.386 . S
C1784 C1786 1.391 . S
C1785 C1784 1.386 . S
C1785 C1789 1.393 . S
C1786 H1778 0.950 . S
C1786 C1784 1.391 . S
C1786 C1787 1.400 . S
C1787 C1786 1.400 . S
C1787 C1788 1.398 . S
C1787 C1793 1.491 . S
C1788 H1779 0.950 . S
C1788 C1787 1.398 . S
C1788 C1789 1.391 . S
C1789 H1777 0.950 . S
C1789 C1785 1.393 . S
C1789 C1788 1.391 . S
C1790 H1780 0.950 . S
C1790 C1791 1.386 . S
C1790 C1792 1.391 . S
C1791 C1790 1.386 . S
C1791 C1795 1.393 . S
C1792 H1781 0.950 . S
C1792 C1790 1.391 . S
C1792 C1793 1.400 . S
C1793 C1787 1.491 . S
C1793 C1792 1.400 . S
C1793 C1794 1.398 . S
C1794 H1782 0.950 . S
C1794 C1793 1.398 . S
C1794 C1795 1.391 . S
C1795 H1783 0.950 . S
C1795 C1791 1.393 . S
C1795 C1794 1.391 . S
H1796 C1804 0.950 . S
H1797 C1809 0.950 . S
H1798 C1806 0.950 . S
H1799 C1808 0.950 . S
H1800 C1810 0.950 . S
H1801 C1812 0.950 . S
H1802 C1814 0.950 . S
H1803 C1815 0.950 . S
C1804 H1796 0.950 . S
C1804 C1805 1.386 . S
C1804 C1806 1.391 . S
C1805 C1804 1.386 . S
C1805 C1809 1.393 . S
C1806 H1798 0.950 . S
C1806 C1804 1.391 . S
C1806 C1807 1.400 . S
C1807 C1806 1.400 . S
C1807 C1808 1.398 . S
C1807 C1813 1.491 . S
C1808 H1799 0.950 . S
C1808 C1807 1.398 . S
C1808 C1809 1.391 . S
C1809 H1797 0.950 . S
C1809 C1805 1.393 . S
C1809 C1808 1.391 . S
C1810 H1800 0.950 . S
C1810 C1811 1.386 . S
C1810 C1812 1.391 . S
C1811 C1810 1.386 . S
C1811 C1815 1.393 . S
C1812 H1801 0.950 . S
C1812 C1810 1.391 . S
C1812 C1813 1.400 . S
C1813 C1807 1.491 . S
C1813 C1812 1.400 . S
C1813 C1814 1.398 . S
C1814 H1802 0.950 . S
C1814 C1813 1.398 . S
C1814 C1815 1.391 . S
C1815 H1803 0.950 . S
C1815 C1811 1.393 . S
C1815 C1814 1.391 . S
H1816 C1824 0.950 . S
H1817 C1829 0.950 . S
H1818 C1826 0.950 . S
H1819 C1828 0.950 . S
H1820 C1830 0.950 . S
H1821 C1832 0.950 . S
H1822 C1834 0.950 . S
H1823 C1835 0.950 . S
C1824 H1816 0.950 . S
C1824 C1825 1.386 . S
C1824 C1826 1.391 . S
C1825 C1824 1.386 . S
C1825 C1829 1.393 . S
C1826 H1818 0.950 . S
C1826 C1824 1.391 . S
C1826 C1827 1.400 . S
C1827 C1826 1.400 . S
C1827 C1828 1.398 . S
C1827 C1833 1.491 . S
C1828 H1819 0.950 . S
C1828 C1827 1.398 . S
C1828 C1829 1.391 . S
C1829 H1817 0.950 . S
C1829 C1825 1.393 . S
C1829 C1828 1.391 . S
C1830 H1820 0.950 . S
C1830 C1831 1.386 . S
C1830 C1832 1.391 . S
C1831 C1830 1.386 . S
C1831 C1835 1.393 . S
C1832 H1821 0.950 . S
C1832 C1830 1.391 . S
C1832 C1833 1.400 . S
C1833 C1827 1.491 . S
C1833 C1832 1.400 . S
C1833 C1834 1.398 . S
C1834 H1822 0.950 . S
C1834 C1833 1.398 . S
C1834 C1835 1.391 . S
C1835 H1823 0.950 . S
C1835 C1831 1.393 . S
C1835 C1834 1.391 . S
H1836 C1844 0.950 . S
H1837 C1849 0.950 . S
H1838 C1846 0.950 . S
H1839 C1848 0.950 . S
H1840 C1850 0.950 . S
H1841 C1852 0.950 . S
H1842 C1854 0.950 . S
H1843 C1855 0.950 . S
C1844 H1836 0.950 . S
C1844 C1845 1.386 . S
C1844 C1846 1.391 . S
C1845 C1844 1.386 . S
C1845 C1849 1.393 . S
C1846 H1838 0.950 . S
C1846 C1844 1.391 . S
C1846 C1847 1.400 . S
C1847 C1846 1.400 . S
C1847 C1848 1.398 . S
C1847 C1853 1.491 . S
C1848 H1839 0.950 . S
C1848 C1847 1.398 . S
C1848 C1849 1.391 . S
C1849 H1837 0.950 . S
C1849 C1845 1.393 . S
C1849 C1848 1.391 . S
C1850 H1840 0.950 . S
C1850 C1851 1.386 . S
C1850 C1852 1.391 . S
C1851 C1850 1.386 . S
C1851 C1855 1.393 . S
C1852 H1841 0.950 . S
C1852 C1850 1.391 . S
C1852 C1853 1.400 . S
C1853 C1847 1.491 . S
C1853 C1852 1.400 . S
C1853 C1854 1.398 . S
C1854 H1842 0.950 . S
C1854 C1853 1.398 . S
C1854 C1855 1.391 . S
C1855 H1843 0.950 . S
C1855 C1851 1.393 . S
C1855 C1854 1.391 . S
H1856 C1864 0.950 . S
H1857 C1869 0.950 . S
H1858 C1866 0.950 . S
H1859 C1868 0.950 . S
H1860 C1870 0.950 . S
H1861 C1872 0.950 . S
H1862 C1874 0.950 . S
H1863 C1875 0.950 . S
C1864 H1856 0.950 . S
C1864 C1865 1.386 . S
C1864 C1866 1.391 . S
C1865 C1864 1.386 . S
C1865 C1869 1.393 . S
C1866 H1858 0.950 . S
C1866 C1864 1.391 . S
C1866 C1867 1.400 . S
C1867 C1866 1.400 . S
C1867 C1868 1.398 . S
C1867 C1873 1.491 . S
C1868 H1859 0.950 . S
C1868 C1867 1.398 . S
C1868 C1869 1.391 . S
C1869 H1857 0.950 . S
C1869 C1865 1.393 . S
C1869 C1868 1.391 . S
C1870 H1860 0.950 . S
C1870 C1871 1.386 . S
C1870 C1872 1.391 . S
C1871 C1870 1.386 . S
C1871 C1875 1.393 . S
C1872 H1861 0.950 . S
C1872 C1870 1.391 . S
C1872 C1873 1.400 . S
C1873 C1867 1.491 . S
C1873 C1872 1.400 . S
C1873 C1874 1.398 . S
C1874 H1862 0.950 . S
C1874 C1873 1.398 . S
C1874 C1875 1.391 . S
C1875 H1863 0.950 . S
C1875 C1871 1.393 . S
C1875 C1874 1.391 . S
H1876 C1884 0.950 . S
H1877 C1889 0.950 . S
H1878 C1886 0.950 . S
H1879 C1888 0.950 . S
H1880 C1890 0.950 . S
H1881 C1892 0.950 . S
H1882 C1894 0.950 . S
H1883 C1895 0.950 . S
C1884 H1876 0.950 . S
C1884 C1885 1.386 . S
C1884 C1886 1.391 . S
C1885 C1884 1.386 . S
C1885 C1889 1.393 . S
C1886 H1878 0.950 . S
C1886 C1884 1.391 . S
C1886 C1887 1.400 . S
C1887 C1886 1.400 . S
C1887 C1888 1.398 . S
C1887 C1893 1.491 . S
C1888 H1879 0.950 . S
C1888 C1887 1.398 . S
C1888 C1889 1.391 . S
C1889 H1877 0.950 . S
C1889 C1885 1.393 . S
C1889 C1888 1.391 . S
C1890 H1880 0.950 . S
C1890 C1891 1.386 . S
C1890 C1892 1.391 . S
C1891 C1890 1.386 . S
C1891 C1895 1.393 . S
C1892 H1881 0.950 . S
C1892 C1890 1.391 . S
C1892 C1893 1.400 . S
C1893 C1887 1.491 . S
C1893 C1892 1.400 . S
C1893 C1894 1.398 . S
C1894 H1882 0.950 . S
C1894 C1893 1.398 . S
C1894 C1895 1.391 . S
C1895 H1883 0.950 . S
C1895 C1891 1.393 . S
C1895 C1894 1.391 . S
H1896 C1904 0.950 . S
H1897 C1909 0.950 . S
H1898 C1906 0.950 . S
H1899 C1908 0.950 . S
H1900 C1910 0.950 . S
H1901 C1912 0.950 . S
H1902 C1914 0.950 . S
H1903 C1915 0.950 . S
C1904 H1896 0.950 . S
C1904 C1905 1.386 . S
C1904 C1906 1.391 . S
C1905 C1904 1.386 . S
C1905 C1909 1.393 . S
C1906 H1898 0.950 . S
C1906 C1904 1.391 . S
C1906 C1907 1.400 . S
C1907 C1906 1.400 . S
C1907 C1908 1.398 . S
C1907 C1913 1.491 . S
C1908 H1899 0.950 . S
C1908 C1907 1.398 . S
C1908 C1909 1.391 . S
C1909 H1897 0.950 . S
C1909 C1905 1.393 . S
C1909 C1908 1.391 . S
C1910 H1900 0.950 . S
C1910 C1911 1.386 . S
C1910 C1912 1.391 . S
C1911 C1910 1.386 . S
C1911 C1915 1.393 . S
C1912 H1901 0.950 . S
C1912 C1910 1.391 . S
C1912 C1913 1.400 . S
C1913 C1907 1.491 . S
C1913 C1912 1.400 . S
C1913 C1914 1.398 . S
C1914 H1902 0.950 . S
C1914 C1913 1.398 . S
C1914 C1915 1.391 . S
C1915 H1903 0.950 . S
C1915 C1911 1.393 . S
C1915 C1914 1.391 . S
H1916 C1924 0.950 . S
H1917 C1929 0.950 . S
H1918 C1926 0.950 . S
H1919 C1928 0.950 . S
H1920 C1930 0.950 . S
H1921 C1932 0.950 . S
H1922 C1934 0.950 . S
H1923 C1935 0.950 . S
C1924 H1916 0.950 . S
C1924 C1925 1.386 . S
C1924 C1926 1.391 . S
C1925 C1924 1.386 . S
C1925 C1929 1.393 . S
C1926 H1918 0.950 . S
C1926 C1924 1.391 . S
C1926 C1927 1.400 . S
C1927 C1926 1.400 . S
C1927 C1928 1.398 . S
C1927 C1933 1.491 . S
C1928 H1919 0.950 . S
C1928 C1927 1.398 . S
C1928 C1929 1.391 . S
C1929 H1917 0.950 . S
C1929 C1925 1.393 . S
C1929 C1928 1.391 . S
C1930 H1920 0.950 . S
C1930 C1931 1.386 . S
C1930 C1932 1.391 . S
C1931 C1930 1.386 . S
C1931 C1935 1.393 . S
C1932 H1921 0.950 . S
C1932 C1930 1.391 . S
C1932 C1933 1.400 . S
C1933 C1927 1.491 . S
C1933 C1932 1.400 . S
C1933 C1934 1.398 . S
C1934 H1922 0.950 . S
C1934 C1933 1.398 . S
C1934 C1935 1.391 . S
C1935 H1923 0.950 . S
C1935 C1931 1.393 . S
C1935 C1934 1.391 . S
H1936 C1944 0.950 . S
H1937 C1949 0.950 . S
H1938 C1946 0.950 . S
H1939 C1948 0.950 . S
H1940 C1950 0.950 . S
H1941 C1952 0.950 . S
H1942 C1954 0.950 . S
H1943 C1955 0.950 . S
C1944 H1936 0.950 . S
C1944 C1945 1.386 . S
C1944 C1946 1.391 . S
C1945 C1944 1.386 . S
C1945 C1949 1.393 . S
C1946 H1938 0.950 . S
C1946 C1944 1.391 . S
C1946 C1947 1.400 . S
C1947 C1946 1.400 . S
C1947 C1948 1.398 . S
C1947 C1953 1.491 . S
C1948 H1939 0.950 . S
C1948 C1947 1.398 . S
C1948 C1949 1.391 . S
C1949 H1937 0.950 . S
C1949 C1945 1.393 . S
C1949 C1948 1.391 . S
C1950 H1940 0.950 . S
C1950 C1951 1.386 . S
C1950 C1952 1.391 . S
C1951 C1950 1.386 . S
C1951 C1955 1.393 . S
C1952 H1941 0.950 . S
C1952 C1950 1.391 . S
C1952 C1953 1.400 . S
C1953 C1947 1.491 . S
C1953 C1952 1.400 . S
C1953 C1954 1.398 . S
C1954 H1942 0.950 . S
C1954 C1953 1.398 . S
C1954 C1955 1.391 . S
C1955 H1943 0.950 . S
C1955 C1951 1.393 . S
C1955 C1954 1.391 . S
H1956 C1964 0.950 . S
H1957 C1969 0.950 . S
H1958 C1966 0.950 . S
H1959 C1968 0.950 . S
H1960 C1970 0.950 . S
H1961 C1972 0.950 . S
H1962 C1974 0.950 . S
H1963 C1975 0.950 . S
C1964 H1956 0.950 . S
C1964 C1965 1.386 . S
C1964 C1966 1.391 . S
C1965 C1964 1.386 . S
C1965 C1969 1.393 . S
C1966 H1958 0.950 . S
C1966 C1964 1.391 . S
C1966 C1967 1.400 . S
C1967 C1966 1.400 . S
C1967 C1968 1.398 . S
C1967 C1973 1.491 . S
C1968 H1959 0.950 . S
C1968 C1967 1.398 . S
C1968 C1969 1.391 . S
C1969 H1957 0.950 . S
C1969 C1965 1.393 . S
C1969 C1968 1.391 . S
C1970 H1960 0.950 . S
C1970 C1971 1.386 . S
C1970 C1972 1.391 . S
C1971 C1970 1.386 . S
C1971 C1975 1.393 . S
C1972 H1961 0.950 . S
C1972 C1970 1.391 . S
C1972 C1973 1.400 . S
C1973 C1967 1.491 . S
C1973 C1972 1.400 . S
C1973 C1974 1.398 . S
C1974 H1962 0.950 . S
C1974 C1973 1.398 . S
C1974 C1975 1.391 . S
C1975 H1963 0.950 . S
C1975 C1971 1.393 . S
C1975 C1974 1.391 . S
H1976 C1984 0.950 . S
H1977 C1989 0.950 . S
H1978 C1986 0.950 . S
H1979 C1988 0.950 . S
H1980 C1990 0.950 . S
H1981 C1992 0.950 . S
H1982 C1994 0.950 . S
H1983 C1995 0.950 . S
C1984 H1976 0.950 . S
C1984 C1985 1.386 . S
C1984 C1986 1.391 . S
C1985 C1984 1.386 . S
C1985 C1989 1.393 . S
C1986 H1978 0.950 . S
C1986 C1984 1.391 . S
C1986 C1987 1.400 . S
C1987 C1986 1.400 . S
C1987 C1988 1.398 . S
C1987 C1993 1.491 . S
C1988 H1979 0.950 . S
C1988 C1987 1.398 . S
C1988 C1989 1.391 . S
C1989 H1977 0.950 . S
C1989 C1985 1.393 . S
C1989 C1988 1.391 . S
C1990 H1980 0.950 . S
C1990 C1991 1.386 . S
C1990 C1992 1.391 . S
C1991 C1990 1.386 . S
C1991 C1995 1.393 . S
C1992 H1981 0.950 . S
C1992 C1990 1.391 . S
C1992 C1993 1.400 . S
C1993 C1987 1.491 . S
C1993 C1992 1.400 . S
C1993 C1994 1.398 . S
C1994 H1982 0.950 . S
C1994 C1993 1.398 . S
C1994 C1995 1.391 . S
C1995 H1983 0.950 . S
C1995 C1991 1.393 . S
C1995 C1994 1.391 . S
H1996 C2004 0.950 . S
H1997 C2009 0.950 . S
H1998 C2006 0.950 . S
H1999 C2008 0.950 . S
H2000 C2010 0.950 . S
H2001 C2012 0.950 . S
H2002 C2014 0.950 . S
H2003 C2015 0.950 . S
C2004 H1996 0.950 . S
C2004 C2005 1.386 . S
C2004 C2006 1.391 . S
C2005 C2004 1.386 . S
C2005 C2009 1.393 . S
C2006 H1998 0.950 . S
C2006 C2004 1.391 . S
C2006 C2007 1.400 . S
C2007 C2006 1.400 . S
C2007 C2008 1.398 . S
C2007 C2013 1.491 . S
C2008 H1999 0.950 . S
C2008 C2007 1.398 . S
C2008 C2009 1.391 . S
C2009 H1997 0.950 . S
C2009 C2005 1.393 . S
C2009 C2008 1.391 . S
C2010 H2000 0.950 . S
C2010 C2011 1.386 . S
C2010 C2012 1.391 . S
C2011 C2010 1.386 . S
C2011 C2015 1.393 . S
C2012 H2001 0.950 . S
C2012 C2010 1.391 . S
C2012 C2013 1.400 . S
C2013 C2007 1.491 . S
C2013 C2012 1.400 . S
C2013 C2014 1.398 . S
C2014 H2002 0.950 . S
C2014 C2013 1.398 . S
C2014 C2015 1.391 . S
C2015 H2003 0.950 . S
C2015 C2011 1.393 . S
C2015 C2014 1.391 . S
H2016 C2024 0.950 . S
H2017 C2029 0.950 . S
H2018 C2026 0.950 . S
H2019 C2028 0.950 . S
H2020 C2030 0.950 . S
H2021 C2032 0.950 . S
H2022 C2034 0.950 . S
H2023 C2035 0.950 . S
C2024 H2016 0.950 . S
C2024 C2025 1.386 . S
C2024 C2026 1.391 . S
C2025 C2024 1.386 . S
C2025 C2029 1.393 . S
C2026 H2018 0.950 . S
C2026 C2024 1.391 . S
C2026 C2027 1.400 . S
C2027 C2026 1.400 . S
C2027 C2028 1.398 . S
C2027 C2033 1.491 . S
C2028 H2019 0.950 . S
C2028 C2027 1.398 . S
C2028 C2029 1.391 . S
C2029 H2017 0.950 . S
C2029 C2025 1.393 . S
C2029 C2028 1.391 . S
C2030 H2020 0.950 . S
C2030 C2031 1.386 . S
C2030 C2032 1.391 . S
C2031 C2030 1.386 . S
C2031 C2035 1.393 . S
C2032 H2021 0.950 . S
C2032 C2030 1.391 . S
C2032 C2033 1.400 . S
C2033 C2027 1.491 . S
C2033 C2032 1.400 . S
C2033 C2034 1.398 . S
C2034 H2022 0.950 . S
C2034 C2033 1.398 . S
C2034 C2035 1.391 . S
C2035 H2023 0.950 . S
C2035 C2031 1.393 . S
C2035 C2034 1.391 . S
H2036 C2044 0.950 . S
H2037 C2049 0.950 . S
H2038 C2046 0.950 . S
H2039 C2048 0.950 . S
H2040 C2050 0.950 . S
H2041 C2052 0.950 . S
H2042 C2054 0.950 . S
H2043 C2055 0.950 . S
C2044 H2036 0.950 . S
C2044 C2045 1.386 . S
C2044 C2046 1.391 . S
C2045 C2044 1.386 . S
C2045 C2049 1.393 . S
C2046 H2038 0.950 . S
C2046 C2044 1.391 . S
C2046 C2047 1.400 . S
C2047 C2046 1.400 . S
C2047 C2048 1.398 . S
C2047 C2053 1.491 . S
C2048 H2039 0.950 . S
C2048 C2047 1.398 . S
C2048 C2049 1.391 . S
C2049 H2037 0.950 . S
C2049 C2045 1.393 . S
C2049 C2048 1.391 . S
C2050 H2040 0.950 . S
C2050 C2051 1.386 . S
C2050 C2052 1.391 . S
C2051 C2050 1.386 . S
C2051 C2055 1.393 . S
C2052 H2041 0.950 . S
C2052 C2050 1.391 . S
C2052 C2053 1.400 . S
C2053 C2047 1.491 . S
C2053 C2052 1.400 . S
C2053 C2054 1.398 . S
C2054 H2042 0.950 . S
C2054 C2053 1.398 . S
C2054 C2055 1.391 . S
C2055 H2043 0.950 . S
C2055 C2051 1.393 . S
C2055 C2054 1.391 . S
H2056 C2064 0.950 . S
H2057 C2069 0.950 . S
H2058 C2066 0.950 . S
H2059 C2068 0.950 . S
H2060 C2070 0.950 . S
H2061 C2072 0.950 . S
H2062 C2074 0.950 . S
H2063 C2075 0.950 . S
C2064 H2056 0.950 . S
C2064 C2065 1.386 . S
C2064 C2066 1.391 . S
C2065 C2064 1.386 . S
C2065 C2069 1.393 . S
C2066 H2058 0.950 . S
C2066 C2064 1.391 . S
C2066 C2067 1.400 . S
C2067 C2066 1.400 . S
C2067 C2068 1.398 . S
C2067 C2073 1.491 . S
C2068 H2059 0.950 . S
C2068 C2067 1.398 . S
C2068 C2069 1.391 . S
C2069 H2057 0.950 . S
C2069 C2065 1.393 . S
C2069 C2068 1.391 . S
C2070 H2060 0.950 . S
C2070 C2071 1.386 . S
C2070 C2072 1.391 . S
C2071 C2070 1.386 . S
C2071 C2075 1.393 . S
C2072 H2061 0.950 . S
C2072 C2070 1.391 . S
C2072 C2073 1.400 . S
C2073 C2067 1.491 . S
C2073 C2072 1.400 . S
C2073 C2074 1.398 . S
C2074 H2062 0.950 . S
C2074 C2073 1.398 . S
C2074 C2075 1.391 . S
C2075 H2063 0.950 . S
C2075 C2071 1.393 . S
C2075 C2074 1.391 . S
H2076 C2084 0.950 . S
H2077 C2089 0.950 . S
H2078 C2086 0.950 . S
H2079 C2088 0.950 . S
H2080 C2090 0.950 . S
H2081 C2092 0.950 . S
H2082 C2094 0.950 . S
H2083 C2095 0.950 . S
C2084 H2076 0.950 . S
C2084 C2085 1.386 . S
C2084 C2086 1.391 . S
C2085 C2084 1.386 . S
C2085 C2089 1.393 . S
C2086 H2078 0.950 . S
C2086 C2084 1.391 . S
C2086 C2087 1.400 . S
C2087 C2086 1.400 . S
C2087 C2088 1.398 . S
C2087 C2093 1.491 . S
C2088 H2079 0.950 . S
C2088 C2087 1.398 . S
C2088 C2089 1.391 . S
C2089 H2077 0.950 . S
C2089 C2085 1.393 . S
C2089 C2088 1.391 . S
C2090 H2080 0.950 . S
C2090 C2091 1.386 . S
C2090 C2092 1.391 . S
C2091 C2090 1.386 . S
C2091 C2095 1.393 . S
C2092 H2081 0.950 . S
C2092 C2090 1.391 . S
C2092 C2093 1.400 . S
C2093 C2087 1.491 . S
C2093 C2092 1.400 . S
C2093 C2094 1.398 . S
C2094 H2082 0.950 . S
C2094 C2093 1.398 . S
C2094 C2095 1.391 . S
C2095 H2083 0.950 . S
C2095 C2091 1.393 . S
C2095 C2094 1.391 . S
H2096 C2104 0.950 . S
H2097 C2109 0.950 . S
H2098 C2106 0.950 . S
H2099 C2108 0.950 . S
H2100 C2110 0.950 . S
H2101 C2112 0.950 . S
H2102 C2114 0.950 . S
H2103 C2115 0.950 . S
C2104 H2096 0.950 . S
C2104 C2105 1.386 . S
C2104 C2106 1.391 . S
C2105 C2104 1.386 . S
C2105 C2109 1.393 . S
C2106 H2098 0.950 . S
C2106 C2104 1.391 . S
C2106 C2107 1.400 . S
C2107 C2106 1.400 . S
C2107 C2108 1.398 . S
C2107 C2113 1.491 . S
C2108 H2099 0.950 . S
C2108 C2107 1.398 . S
C2108 C2109 1.391 . S
C2109 H2097 0.950 . S
C2109 C2105 1.393 . S
C2109 C2108 1.391 . S
C2110 H2100 0.950 . S
C2110 C2111 1.386 . S
C2110 C2112 1.391 . S
C2111 C2110 1.386 . S
C2111 C2115 1.393 . S
C2112 H2101 0.950 . S
C2112 C2110 1.391 . S
C2112 C2113 1.400 . S
C2113 C2107 1.491 . S
C2113 C2112 1.400 . S
C2113 C2114 1.398 . S
C2114 H2102 0.950 . S
C2114 C2113 1.398 . S
C2114 C2115 1.391 . S
C2115 H2103 0.950 . S
C2115 C2111 1.393 . S
C2115 C2114 1.391 . S
H2116 C2124 0.950 . S
H2117 C2129 0.950 . S
H2118 C2126 0.950 . S
H2119 C2128 0.950 . S
H2120 C2130 0.950 . S
H2121 C2132 0.950 . S
H2122 C2134 0.950 . S
H2123 C2135 0.950 . S
C2124 H2116 0.950 . S
C2124 C2125 1.386 . S
C2124 C2126 1.391 . S
C2125 C2124 1.386 . S
C2125 C2129 1.393 . S
C2126 H2118 0.950 . S
C2126 C2124 1.391 . S
C2126 C2127 1.400 . S
C2127 C2126 1.400 . S
C2127 C2128 1.398 . S
C2127 C2133 1.491 . S
C2128 H2119 0.950 . S
C2128 C2127 1.398 . S
C2128 C2129 1.391 . S
C2129 H2117 0.950 . S
C2129 C2125 1.393 . S
C2129 C2128 1.391 . S
C2130 H2120 0.950 . S
C2130 C2131 1.386 . S
C2130 C2132 1.391 . S
C2131 C2130 1.386 . S
C2131 C2135 1.393 . S
C2132 H2121 0.950 . S
C2132 C2130 1.391 . S
C2132 C2133 1.400 . S
C2133 C2127 1.491 . S
C2133 C2132 1.400 . S
C2133 C2134 1.398 . S
C2134 H2122 0.950 . S
C2134 C2133 1.398 . S
C2134 C2135 1.391 . S
C2135 H2123 0.950 . S
C2135 C2131 1.393 . S
C2135 C2134 1.391 . S
H2136 C2144 0.950 . S
H2137 C2149 0.950 . S
H2138 C2146 0.950 . S
H2139 C2148 0.950 . S
H2140 C2150 0.950 . S
H2141 C2152 0.950 . S
H2142 C2154 0.950 . S
H2143 C2155 0.950 . S
C2144 H2136 0.950 . S
C2144 C2145 1.386 . S
C2144 C2146 1.391 . S
C2145 C2144 1.386 . S
C2145 C2149 1.393 . S
C2146 H2138 0.950 . S
C2146 C2144 1.391 . S
C2146 C2147 1.400 . S
C2147 C2146 1.400 . S
C2147 C2148 1.398 . S
C2147 C2153 1.491 . S
C2148 H2139 0.950 . S
C2148 C2147 1.398 . S
C2148 C2149 1.391 . S
C2149 H2137 0.950 . S
C2149 C2145 1.393 . S
C2149 C2148 1.391 . S
C2150 H2140 0.950 . S
C2150 C2151 1.386 . S
C2150 C2152 1.391 . S
C2151 C2150 1.386 . S
C2151 C2155 1.393 . S
C2152 H2141 0.950 . S
C2152 C2150 1.391 . S
C2152 C2153 1.400 . S
C2153 C2147 1.491 . S
C2153 C2152 1.400 . S
C2153 C2154 1.398 . S
C2154 H2142 0.950 . S
C2154 C2153 1.398 . S
C2154 C2155 1.391 . S
C2155 H2143 0.950 . S
C2155 C2151 1.393 . S
C2155 C2154 1.391 . S
H2156 C2164 0.950 . S
H2157 C2169 0.950 . S
H2158 C2166 0.950 . S
H2159 C2168 0.950 . S
H2160 C2170 0.950 . S
H2161 C2172 0.950 . S
H2162 C2174 0.950 . S
H2163 C2175 0.950 . S
C2164 H2156 0.950 . S
C2164 C2165 1.386 . S
C2164 C2166 1.391 . S
C2165 C2164 1.386 . S
C2165 C2169 1.393 . S
C2166 H2158 0.950 . S
C2166 C2164 1.391 . S
C2166 C2167 1.400 . S
C2167 C2166 1.400 . S
C2167 C2168 1.398 . S
C2167 C2173 1.491 . S
C2168 H2159 0.950 . S
C2168 C2167 1.398 . S
C2168 C2169 1.391 . S
C2169 H2157 0.950 . S
C2169 C2165 1.393 . S
C2169 C2168 1.391 . S
C2170 H2160 0.950 . S
C2170 C2171 1.386 . S
C2170 C2172 1.391 . S
C2171 C2170 1.386 . S
C2171 C2175 1.393 . S
C2172 H2161 0.950 . S
C2172 C2170 1.391 . S
C2172 C2173 1.400 . S
C2173 C2167 1.491 . S
C2173 C2172 1.400 . S
C2173 C2174 1.398 . S
C2174 H2162 0.950 . S
C2174 C2173 1.398 . S
C2174 C2175 1.391 . S
C2175 H2163 0.950 . S
C2175 C2171 1.393 . S
C2175 C2174 1.391 . S
H2176 C2184 0.950 . S
H2177 C2189 0.950 . S
H2178 C2186 0.950 . S
H2179 C2188 0.950 . S
H2180 C2190 0.950 . S
H2181 C2192 0.950 . S
H2182 C2194 0.950 . S
H2183 C2195 0.950 . S
C2184 H2176 0.950 . S
C2184 C2185 1.386 . S
C2184 C2186 1.391 . S
C2185 C2184 1.386 . S
C2185 C2189 1.393 . S
C2186 H2178 0.950 . S
C2186 C2184 1.391 . S
C2186 C2187 1.400 . S
C2187 C2186 1.400 . S
C2187 C2188 1.398 . S
C2187 C2193 1.491 . S
C2188 H2179 0.950 . S
C2188 C2187 1.398 . S
C2188 C2189 1.391 . S
C2189 H2177 0.950 . S
C2189 C2185 1.393 . S
C2189 C2188 1.391 . S
C2190 H2180 0.950 . S
C2190 C2191 1.386 . S
C2190 C2192 1.391 . S
C2191 C2190 1.386 . S
C2191 C2195 1.393 . S
C2192 H2181 0.950 . S
C2192 C2190 1.391 . S
C2192 C2193 1.400 . S
C2193 C2187 1.491 . S
C2193 C2192 1.400 . S
C2193 C2194 1.398 . S
C2194 H2182 0.950 . S
C2194 C2193 1.398 . S
C2194 C2195 1.391 . S
C2195 H2183 0.950 . S
C2195 C2191 1.393 . S
C2195 C2194 1.391 . S
H2196 C2204 0.950 . S
H2197 C2209 0.950 . S
H2198 C2206 0.950 . S
H2199 C2208 0.950 . S
H2200 C2210 0.950 . S
H2201 C2212 0.950 . S
H2202 C2214 0.950 . S
H2203 C2215 0.950 . S
C2204 H2196 0.950 . S
C2204 C2205 1.386 . S
C2204 C2206 1.391 . S
C2205 C2204 1.386 . S
C2205 C2209 1.393 . S
C2206 H2198 0.950 . S
C2206 C2204 1.391 . S
C2206 C2207 1.400 . S
C2207 C2206 1.400 . S
C2207 C2208 1.398 . S
C2207 C2213 1.491 . S
C2208 H2199 0.950 . S
C2208 C2207 1.398 . S
C2208 C2209 1.391 . S
C2209 H2197 0.950 . S
C2209 C2205 1.393 . S
C2209 C2208 1.391 . S
C2210 H2200 0.950 . S
C2210 C2211 1.386 . S
C2210 C2212 1.391 . S
C2211 C2210 1.386 . S
C2211 C2215 1.393 . S
C2212 H2201 0.950 . S
C2212 C2210 1.391 . S
C2212 C2213 1.400 . S
C2213 C2207 1.491 . S
C2213 C2212 1.400 . S
C2213 C2214 1.398 . S
C2214 H2202 0.950 . S
C2214 C2213 1.398 . S
C2214 C2215 1.391 . S
C2215 H2203 0.950 . S
C2215 C2211 1.393 . S
C2215 C2214 1.391 . S
H2216 C2224 0.950 . S
H2217 C2229 0.950 . S
H2218 C2226 0.950 . S
H2219 C2228 0.950 . S
H2220 C2230 0.950 . S
H2221 C2232 0.950 . S
H2222 C2234 0.950 . S
H2223 C2235 0.950 . S
C2224 H2216 0.950 . S
C2224 C2225 1.386 . S
C2224 C2226 1.391 . S
C2225 C2224 1.386 . S
C2225 C2229 1.393 . S
C2226 H2218 0.950 . S
C2226 C2224 1.391 . S
C2226 C2227 1.400 . S
C2227 C2226 1.400 . S
C2227 C2228 1.398 . S
C2227 C2233 1.491 . S
C2228 H2219 0.950 . S
C2228 C2227 1.398 . S
C2228 C2229 1.391 . S
C2229 H2217 0.950 . S
C2229 C2225 1.393 . S
C2229 C2228 1.391 . S
C2230 H2220 0.950 . S
C2230 C2231 1.386 . S
C2230 C2232 1.391 . S
C2231 C2230 1.386 . S
C2231 C2235 1.393 . S
C2232 H2221 0.950 . S
C2232 C2230 1.391 . S
C2232 C2233 1.400 . S
C2233 C2227 1.491 . S
C2233 C2232 1.400 . S
C2233 C2234 1.398 . S
C2234 H2222 0.950 . S
C2234 C2233 1.398 . S
C2234 C2235 1.391 . S
C2235 H2223 0.950 . S
C2235 C2231 1.393 . S
C2235 C2234 1.391 . S
H2236 C2244 0.950 . S
H2237 C2249 0.950 . S
H2238 C2246 0.950 . S
H2239 C2248 0.950 . S
H2240 C2250 0.950 . S
H2241 C2252 0.950 . S
H2242 C2254 0.950 . S
H2243 C2255 0.950 . S
C2244 H2236 0.950 . S
C2244 C2245 1.386 . S
C2244 C2246 1.391 . S
C2245 C2244 1.386 . S
C2245 C2249 1.393 . S
C2246 H2238 0.950 . S
C2246 C2244 1.391 . S
C2246 C2247 1.400 . S
C2247 C2246 1.400 . S
C2247 C2248 1.398 . S
C2247 C2253 1.491 . S
C2248 H2239 0.950 . S
C2248 C2247 1.398 . S
C2248 C2249 1.391 . S
C2249 H2237 0.950 . S
C2249 C2245 1.393 . S
C2249 C2248 1.391 . S
C2250 H2240 0.950 . S
C2250 C2251 1.386 . S
C2250 C2252 1.391 . S
C2251 C2250 1.386 . S
C2251 C2255 1.393 . S
C2252 H2241 0.950 . S
C2252 C2250 1.391 . S
C2252 C2253 1.400 . S
C2253 C2247 1.491 . S
C2253 C2252 1.400 . S
C2253 C2254 1.398 . S
C2254 H2242 0.950 . S
C2254 C2253 1.398 . S
C2254 C2255 1.391 . S
C2255 H2243 0.950 . S
C2255 C2251 1.393 . S
C2255 C2254 1.391 . S
H2256 C2264 0.950 . S
H2257 C2269 0.950 . S
H2258 C2266 0.950 . S
H2259 C2268 0.950 . S
H2260 C2270 0.950 . S
H2261 C2272 0.950 . S
H2262 C2274 0.950 . S
H2263 C2275 0.950 . S
C2264 H2256 0.950 . S
C2264 C2265 1.386 . S
C2264 C2266 1.391 . S
C2265 C2264 1.386 . S
C2265 C2269 1.393 . S
C2266 H2258 0.950 . S
C2266 C2264 1.391 . S
C2266 C2267 1.400 . S
C2267 C2266 1.400 . S
C2267 C2268 1.398 . S
C2267 C2273 1.491 . S
C2268 H2259 0.950 . S
C2268 C2267 1.398 . S
C2268 C2269 1.391 . S
C2269 H2257 0.950 . S
C2269 C2265 1.393 . S
C2269 C2268 1.391 . S
C2270 H2260 0.950 . S
C2270 C2271 1.386 . S
C2270 C2272 1.391 . S
C2271 C2270 1.386 . S
C2271 C2275 1.393 . S
C2272 H2261 0.950 . S
C2272 C2270 1.391 . S
C2272 C2273 1.400 . S
C2273 C2267 1.491 . S
C2273 C2272 1.400 . S
C2273 C2274 1.398 . S
C2274 H2262 0.950 . S
C2274 C2273 1.398 . S
C2274 C2275 1.391 . S
C2275 H2263 0.950 . S
C2275 C2271 1.393 . S
C2275 C2274 1.391 . S
H2276 C2284 0.950 . S
H2277 C2289 0.950 . S
H2278 C2286 0.950 . S
H2279 C2288 0.950 . S
H2280 C2290 0.950 . S
H2281 C2292 0.950 . S
H2282 C2294 0.950 . S
H2283 C2295 0.950 . S
C2284 H2276 0.950 . S
C2284 C2285 1.386 . S
C2284 C2286 1.391 . S
C2285 C2284 1.386 . S
C2285 C2289 1.393 . S
C2286 H2278 0.950 . S
C2286 C2284 1.391 . S
C2286 C2287 1.400 . S
C2287 C2286 1.400 . S
C2287 C2288 1.398 . S
C2287 C2293 1.491 . S
C2288 H2279 0.950 . S
C2288 C2287 1.398 . S
C2288 C2289 1.391 . S
C2289 H2277 0.950 . S
C2289 C2285 1.393 . S
C2289 C2288 1.391 . S
C2290 H2280 0.950 . S
C2290 C2291 1.386 . S
C2290 C2292 1.391 . S
C2291 C2290 1.386 . S
C2291 C2295 1.393 . S
C2292 H2281 0.950 . S
C2292 C2290 1.391 . S
C2292 C2293 1.400 . S
C2293 C2287 1.491 . S
C2293 C2292 1.400 . S
C2293 C2294 1.398 . S
C2294 H2282 0.950 . S
C2294 C2293 1.398 . S
C2294 C2295 1.391 . S
C2295 H2283 0.950 . S
C2295 C2291 1.393 . S
C2295 C2294 1.391 . S
H2296 C2304 0.950 . S
H2297 C2309 0.950 . S
H2298 C2306 0.950 . S
H2299 C2308 0.950 . S
H2300 C2310 0.950 . S
H2301 C2312 0.950 . S
H2302 C2314 0.950 . S
H2303 C2315 0.950 . S
C2304 H2296 0.950 . S
C2304 C2305 1.386 . S
C2304 C2306 1.391 . S
C2305 C2304 1.386 . S
C2305 C2309 1.393 . S
C2306 H2298 0.950 . S
C2306 C2304 1.391 . S
C2306 C2307 1.400 . S
C2307 C2306 1.400 . S
C2307 C2308 1.398 . S
C2307 C2313 1.491 . S
C2308 H2299 0.950 . S
C2308 C2307 1.398 . S
C2308 C2309 1.391 . S
C2309 H2297 0.950 . S
C2309 C2305 1.393 . S
C2309 C2308 1.391 . S
C2310 H2300 0.950 . S
C2310 C2311 1.386 . S
C2310 C2312 1.391 . S
C2311 C2310 1.386 . S
C2311 C2315 1.393 . S
C2312 H2301 0.950 . S
C2312 C2310 1.391 . S
C2312 C2313 1.400 . S
C2313 C2307 1.491 . S
C2313 C2312 1.400 . S
C2313 C2314 1.398 . S
C2314 H2302 0.950 . S
C2314 C2313 1.398 . S
C2314 C2315 1.391 . S
C2315 H2303 0.950 . S
C2315 C2311 1.393 . S
C2315 C2314 1.391 . S
H2316 C2324 0.950 . S
H2317 C2329 0.950 . S
H2318 C2326 0.950 . S
H2319 C2328 0.950 . S
H2320 C2330 0.950 . S
H2321 C2332 0.950 . S
H2322 C2334 0.950 . S
H2323 C2335 0.950 . S
C2324 H2316 0.950 . S
C2324 C2325 1.386 . S
C2324 C2326 1.391 . S
C2325 C2324 1.386 . S
C2325 C2329 1.393 . S
C2326 H2318 0.950 . S
C2326 C2324 1.391 . S
C2326 C2327 1.400 . S
C2327 C2326 1.400 . S
C2327 C2328 1.398 . S
C2327 C2333 1.491 . S
C2328 H2319 0.950 . S
C2328 C2327 1.398 . S
C2328 C2329 1.391 . S
C2329 H2317 0.950 . S
C2329 C2325 1.393 . S
C2329 C2328 1.391 . S
C2330 H2320 0.950 . S
C2330 C2331 1.386 . S
C2330 C2332 1.391 . S
C2331 C2330 1.386 . S
C2331 C2335 1.393 . S
C2332 H2321 0.950 . S
C2332 C2330 1.391 . S
C2332 C2333 1.400 . S
C2333 C2327 1.491 . S
C2333 C2332 1.400 . S
C2333 C2334 1.398 . S
C2334 H2322 0.950 . S
C2334 C2333 1.398 . S
C2334 C2335 1.391 . S
C2335 H2323 0.950 . S
C2335 C2331 1.393 . S
C2335 C2334 1.391 . S
H2336 C2344 0.950 . S
H2337 C2349 0.950 . S
H2338 C2346 0.950 . S
H2339 C2348 0.950 . S
H2340 C2350 0.950 . S
H2341 C2352 0.950 . S
H2342 C2354 0.950 . S
H2343 C2355 0.950 . S
C2344 H2336 0.950 . S
C2344 C2345 1.386 . S
C2344 C2346 1.391 . S
C2345 C2344 1.386 . S
C2345 C2349 1.393 . S
C2346 H2338 0.950 . S
C2346 C2344 1.391 . S
C2346 C2347 1.400 . S
C2347 C2346 1.400 . S
C2347 C2348 1.398 . S
C2347 C2353 1.491 . S
C2348 H2339 0.950 . S
C2348 C2347 1.398 . S
C2348 C2349 1.391 . S
C2349 H2337 0.950 . S
C2349 C2345 1.393 . S
C2349 C2348 1.391 . S
C2350 H2340 0.950 . S
C2350 C2351 1.386 . S
C2350 C2352 1.391 . S
C2351 C2350 1.386 . S
C2351 C2355 1.393 . S
C2352 H2341 0.950 . S
C2352 C2350 1.391 . S
C2352 C2353 1.400 . S
C2353 C2347 1.491 . S
C2353 C2352 1.400 . S
C2353 C2354 1.398 . S
C2354 H2342 0.950 . S
C2354 C2353 1.398 . S
C2354 C2355 1.391 . S
C2355 H2343 0.950 . S
C2355 C2351 1.393 . S
C2355 C2354 1.391 . S
H2356 C2364 0.950 . S
H2357 C2369 0.950 . S
H2358 C2366 0.950 . S
H2359 C2368 0.950 . S
H2360 C2370 0.950 . S
H2361 C2372 0.950 . S
H2362 C2374 0.950 . S
H2363 C2375 0.950 . S
C2364 H2356 0.950 . S
C2364 C2365 1.386 . S
C2364 C2366 1.391 . S
C2365 C2364 1.386 . S
C2365 C2369 1.393 . S
C2366 H2358 0.950 . S
C2366 C2364 1.391 . S
C2366 C2367 1.400 . S
C2367 C2366 1.400 . S
C2367 C2368 1.398 . S
C2367 C2373 1.491 . S
C2368 H2359 0.950 . S
C2368 C2367 1.398 . S
C2368 C2369 1.391 . S
C2369 H2357 0.950 . S
C2369 C2365 1.393 . S
C2369 C2368 1.391 . S
C2370 H2360 0.950 . S
C2370 C2371 1.386 . S
C2370 C2372 1.391 . S
C2371 C2370 1.386 . S
C2371 C2375 1.393 . S
C2372 H2361 0.950 . S
C2372 C2370 1.391 . S
C2372 C2373 1.400 . S
C2373 C2367 1.491 . S
C2373 C2372 1.400 . S
C2373 C2374 1.398 . S
C2374 H2362 0.950 . S
C2374 C2373 1.398 . S
C2374 C2375 1.391 . S
C2375 H2363 0.950 . S
C2375 C2371 1.393 . S
C2375 C2374 1.391 . S
H2376 C2384 0.950 . S
H2377 C2389 0.950 . S
H2378 C2386 0.950 . S
H2379 C2388 0.950 . S
H2380 C2390 0.950 . S
H2381 C2392 0.950 . S
H2382 C2394 0.950 . S
H2383 C2395 0.950 . S
C2384 H2376 0.950 . S
C2384 C2385 1.386 . S
C2384 C2386 1.391 . S
C2385 C2384 1.386 . S
C2385 C2389 1.393 . S
C2386 H2378 0.950 . S
C2386 C2384 1.391 . S
C2386 C2387 1.400 . S
C2387 C2386 1.400 . S
C2387 C2388 1.398 . S
C2387 C2393 1.491 . S
C2388 H2379 0.950 . S
C2388 C2387 1.398 . S
C2388 C2389 1.391 . S
C2389 H2377 0.950 . S
C2389 C2385 1.393 . S
C2389 C2388 1.391 . S
C2390 H2380 0.950 . S
C2390 C2391 1.386 . S
C2390 C2392 1.391 . S
C2391 C2390 1.386 . S
C2391 C2395 1.393 . S
C2392 H2381 0.950 . S
C2392 C2390 1.391 . S
C2392 C2393 1.400 . S
C2393 C2387 1.491 . S
C2393 C2392 1.400 . S
C2393 C2394 1.398 . S
C2394 H2382 0.950 . S
C2394 C2393 1.398 . S
C2394 C2395 1.391 . S
C2395 H2383 0.950 . S
C2395 C2391 1.393 . S
C2395 C2394 1.391 . S
H2396 C2404 0.950 . S
H2397 C2409 0.950 . S
H2398 C2406 0.950 . S
H2399 C2408 0.950 . S
H2400 C2410 0.950 . S
H2401 C2412 0.950 . S
H2402 C2414 0.950 . S
H2403 C2415 0.950 . S
C2404 H2396 0.950 . S
C2404 C2405 1.386 . S
C2404 C2406 1.391 . S
C2405 C2404 1.386 . S
C2405 C2409 1.393 . S
C2406 H2398 0.950 . S
C2406 C2404 1.391 . S
C2406 C2407 1.400 . S
C2407 C2406 1.400 . S
C2407 C2408 1.398 . S
C2407 C2413 1.491 . S
C2408 H2399 0.950 . S
C2408 C2407 1.398 . S
C2408 C2409 1.391 . S
C2409 H2397 0.950 . S
C2409 C2405 1.393 . S
C2409 C2408 1.391 . S
C2410 H2400 0.950 . S
C2410 C2411 1.386 . S
C2410 C2412 1.391 . S
C2411 C2410 1.386 . S
C2411 C2415 1.393 . S
C2412 H2401 0.950 . S
C2412 C2410 1.391 . S
C2412 C2413 1.400 . S
C2413 C2407 1.491 . S
C2413 C2412 1.400 . S
C2413 C2414 1.398 . S
C2414 H2402 0.950 . S
C2414 C2413 1.398 . S
C2414 C2415 1.391 . S
C2415 H2403 0.950 . S
C2415 C2411 1.393 . S
C2415 C2414 1.391 . S
H2416 C2424 0.950 . S
H2417 C2429 0.950 . S
H2418 C2426 0.950 . S
H2419 C2428 0.950 . S
H2420 C2430 0.950 . S
H2421 C2432 0.950 . S
H2422 C2434 0.950 . S
H2423 C2435 0.950 . S
C2424 H2416 0.950 . S
C2424 C2425 1.386 . S
C2424 C2426 1.391 . S
C2425 C2424 1.386 . S
C2425 C2429 1.393 . S
C2426 H2418 0.950 . S
C2426 C2424 1.391 . S
C2426 C2427 1.400 . S
C2427 C2426 1.400 . S
C2427 C2428 1.398 . S
C2427 C2433 1.491 . S
C2428 H2419 0.950 . S
C2428 C2427 1.398 . S
C2428 C2429 1.391 . S
C2429 H2417 0.950 . S
C2429 C2425 1.393 . S
C2429 C2428 1.391 . S
C2430 H2420 0.950 . S
C2430 C2431 1.386 . S
C2430 C2432 1.391 . S
C2431 C2430 1.386 . S
C2431 C2435 1.393 . S
C2432 H2421 0.950 . S
C2432 C2430 1.391 . S
C2432 C2433 1.400 . S
C2433 C2427 1.491 . S
C2433 C2432 1.400 . S
C2433 C2434 1.398 . S
C2434 H2422 0.950 . S
C2434 C2433 1.398 . S
C2434 C2435 1.391 . S
C2435 H2423 0.950 . S
C2435 C2431 1.393 . S
C2435 C2434 1.391 . S
H2436 C2444 0.950 . S
H2437 C2449 0.950 . S
H2438 C2446 0.950 . S
H2439 C2448 0.950 . S
H2440 C2450 0.950 . S
H2441 C2452 0.950 . S
H2442 C2454 0.950 . S
H2443 C2455 0.950 . S
C2444 H2436 0.950 . S
C2444 C2445 1.386 . S
C2444 C2446 1.391 . S
C2445 C2444 1.386 . S
C2445 C2449 1.393 . S
C2446 H2438 0.950 . S
C2446 C2444 1.391 . S
C2446 C2447 1.400 . S
C2447 C2446 1.400 . S
C2447 C2448 1.398 . S
C2447 C2453 1.491 . S
C2448 H2439 0.950 . S
C2448 C2447 1.398 . S
C2448 C2449 1.391 . S
C2449 H2437 0.950 . S
C2449 C2445 1.393 . S
C2449 C2448 1.391 . S
C2450 H2440 0.950 . S
C2450 C2451 1.386 . S
C2450 C2452 1.391 . S
C2451 C2450 1.386 . S
C2451 C2455 1.393 . S
C2452 H2441 0.950 . S
C2452 C2450 1.391 . S
C2452 C2453 1.400 . S
C2453 C2447 1.491 . S
C2453 C2452 1.400 . S
C2453 C2454 1.398 . S
C2454 H2442 0.950 . S
C2454 C2453 1.398 . S
C2454 C2455 1.391 . S
C2455 H2443 0.950 . S
C2455 C2451 1.393 . S
C2455 C2454 1.391 . S
H2456 C2464 0.950 . S
H2457 C2469 0.950 . S
H2458 C2466 0.950 . S
H2459 C2468 0.950 . S
H2460 C2470 0.950 . S
H2461 C2472 0.950 . S
H2462 C2474 0.950 . S
H2463 C2475 0.950 . S
C2464 H2456 0.950 . S
C2464 C2465 1.386 . S
C2464 C2466 1.391 . S
C2465 C2464 1.386 . S
C2465 C2469 1.393 . S
C2466 H2458 0.950 . S
C2466 C2464 1.391 . S
C2466 C2467 1.400 . S
C2467 C2466 1.400 . S
C2467 C2468 1.398 . S
C2467 C2473 1.491 . S
C2468 H2459 0.950 . S
C2468 C2467 1.398 . S
C2468 C2469 1.391 . S
C2469 H2457 0.950 . S
C2469 C2465 1.393 . S
C2469 C2468 1.391 . S
C2470 H2460 0.950 . S
C2470 C2471 1.386 . S
C2470 C2472 1.391 . S
C2471 C2470 1.386 . S
C2471 C2475 1.393 . S
C2472 H2461 0.950 . S
C2472 C2470 1.391 . S
C2472 C2473 1.400 . S
C2473 C2467 1.491 . S
C2473 C2472 1.400 . S
C2473 C2474 1.398 . S
C2474 H2462 0.950 . S
C2474 C2473 1.398 . S
C2474 C2475 1.391 . S
C2475 H2463 0.950 . S
C2475 C2471 1.393 . S
C2475 C2474 1.391 . S
H2476 C2484 0.950 . S
H2477 C2489 0.950 . S
H2478 C2486 0.950 . S
H2479 C2488 0.950 . S
H2480 C2490 0.950 . S
H2481 C2492 0.950 . S
H2482 C2494 0.950 . S
H2483 C2495 0.950 . S
C2484 H2476 0.950 . S
C2484 C2485 1.386 . S
C2484 C2486 1.391 . S
C2485 C2484 1.386 . S
C2485 C2489 1.393 . S
C2486 H2478 0.950 . S
C2486 C2484 1.391 . S
C2486 C2487 1.400 . S
C2487 C2486 1.400 . S
C2487 C2488 1.398 . S
C2487 C2493 1.491 . S
C2488 H2479 0.950 . S
C2488 C2487 1.398 . S
C2488 C2489 1.391 . S
C2489 H2477 0.950 . S
C2489 C2485 1.393 . S
C2489 C2488 1.391 . S
C2490 H2480 0.950 . S
C2490 C2491 1.386 . S
C2490 C2492 1.391 . S
C2491 C2490 1.386 . S
C2491 C2495 1.393 . S
C2492 H2481 0.950 . S
C2492 C2490 1.391 . S
C2492 C2493 1.400 . S
C2493 C2487 1.491 . S
C2493 C2492 1.400 . S
C2493 C2494 1.398 . S
C2494 H2482 0.950 . S
C2494 C2493 1.398 . S
C2494 C2495 1.391 . S
C2495 H2483 0.950 . S
C2495 C2491 1.393 . S
C2495 C2494 1.391 . S
H2496 C2504 0.950 . S
H2497 C2509 0.950 . S
H2498 C2506 0.950 . S
H2499 C2508 0.950 . S
H2500 C2510 0.950 . S
H2501 C2512 0.950 . S
H2502 C2514 0.950 . S
H2503 C2515 0.950 . S
C2504 H2496 0.950 . S
C2504 C2505 1.386 . S
C2504 C2506 1.391 . S
C2505 C2504 1.386 . S
C2505 C2509 1.393 . S
C2506 H2498 0.950 . S
C2506 C2504 1.391 . S
C2506 C2507 1.400 . S
C2507 C2506 1.400 . S
C2507 C2508 1.398 . S
C2507 C2513 1.491 . S
C2508 H2499 0.950 . S
C2508 C2507 1.398 . S
C2508 C2509 1.391 . S
C2509 H2497 0.950 . S
C2509 C2505 1.393 . S
C2509 C2508 1.391 . S
C2510 H2500 0.950 . S
C2510 C2511 1.386 . S
C2510 C2512 1.391 . S
C2511 C2510 1.386 . S
C2511 C2515 1.393 . S
C2512 H2501 0.950 . S
C2512 C2510 1.391 . S
C2512 C2513 1.400 . S
C2513 C2507 1.491 . S
C2513 C2512 1.400 . S
C2513 C2514 1.398 . S
C2514 H2502 0.950 . S
C2514 C2513 1.398 . S
C2514 C2515 1.391 . S
C2515 H2503 0.950 . S
C2515 C2511 1.393 . S
C2515 C2514 1.391 . S
H2516 C2524 0.950 . S
H2517 C2529 0.950 . S
H2518 C2526 0.950 . S
H2519 C2528 0.950 . S
H2520 C2530 0.950 . S
H2521 C2532 0.950 . S
H2522 C2534 0.950 . S
H2523 C2535 0.950 . S
C2524 H2516 0.950 . S
C2524 C2525 1.386 . S
C2524 C2526 1.391 . S
C2525 C2524 1.386 . S
C2525 C2529 1.393 . S
C2526 H2518 0.950 . S
C2526 C2524 1.391 . S
C2526 C2527 1.400 . S
C2527 C2526 1.400 . S
C2527 C2528 1.398 . S
C2527 C2533 1.491 . S
C2528 H2519 0.950 . S
C2528 C2527 1.398 . S
C2528 C2529 1.391 . S
C2529 H2517 0.950 . S
C2529 C2525 1.393 . S
C2529 C2528 1.391 . S
C2530 H2520 0.950 . S
C2530 C2531 1.386 . S
C2530 C2532 1.391 . S
C2531 C2530 1.386 . S
C2531 C2535 1.393 . S
C2532 H2521 0.950 . S
C2532 C2530 1.391 . S
C2532 C2533 1.400 . S
C2533 C2527 1.491 . S
C2533 C2532 1.400 . S
C2533 C2534 1.398 . S
C2534 H2522 0.950 . S
C2534 C2533 1.398 . S
C2534 C2535 1.391 . S
C2535 H2523 0.950 . S
C2535 C2531 1.393 . S
C2535 C2534 1.391 . S
H2536 C2544 0.950 . S
H2537 C2549 0.950 . S
H2538 C2546 0.950 . S
H2539 C2548 0.950 . S
H2540 C2550 0.950 . S
H2541 C2552 0.950 . S
H2542 C2554 0.950 . S
H2543 C2555 0.950 . S
C2544 H2536 0.950 . S
C2544 C2545 1.386 . S
C2544 C2546 1.391 . S
C2545 C2544 1.386 . S
C2545 C2549 1.393 . S
C2546 H2538 0.950 . S
C2546 C2544 1.391 . S
C2546 C2547 1.400 . S
C2547 C2546 1.400 . S
C2547 C2548 1.398 . S
C2547 C2553 1.491 . S
C2548 H2539 0.950 . S
C2548 C2547 1.398 . S
C2548 C2549 1.391 . S
C2549 H2537 0.950 . S
C2549 C2545 1.393 . S
C2549 C2548 1.391 . S
C2550 H2540 0.950 . S
C2550 C2551 1.386 . S
C2550 C2552 1.391 . S
C2551 C2550 1.386 . S
C2551 C2555 1.393 . S
C2552 H2541 0.950 . S
C2552 C2550 1.391 . S
C2552 C2553 1.400 . S
C2553 C2547 1.491 . S
C2553 C2552 1.400 . S
C2553 C2554 1.398 . S
C2554 H2542 0.950 . S
C2554 C2553 1.398 . S
C2554 C2555 1.391 . S
C2555 H2543 0.950 . S
C2555 C2551 1.393 . S
C2555 C2554 1.391 . S
H2556 C2564 0.950 . S
H2557 C2569 0.950 . S
H2558 C2566 0.950 . S
H2559 C2568 0.950 . S
H2560 C2570 0.950 . S
H2561 C2572 0.950 . S
H2562 C2574 0.950 . S
H2563 C2575 0.950 . S
C2564 H2556 0.950 . S
C2564 C2565 1.386 . S
C2564 C2566 1.391 . S
C2565 C2564 1.386 . S
C2565 C2569 1.393 . S
C2566 H2558 0.950 . S
C2566 C2564 1.391 . S
C2566 C2567 1.400 . S
C2567 C2566 1.400 . S
C2567 C2568 1.398 . S
C2567 C2573 1.491 . S
C2568 H2559 0.950 . S
C2568 C2567 1.398 . S
C2568 C2569 1.391 . S
C2569 H2557 0.950 . S
C2569 C2565 1.393 . S
C2569 C2568 1.391 . S
C2570 H2560 0.950 . S
C2570 C2571 1.386 . S
C2570 C2572 1.391 . S
C2571 C2570 1.386 . S
C2571 C2575 1.393 . S
C2572 H2561 0.950 . S
C2572 C2570 1.391 . S
C2572 C2573 1.400 . S
C2573 C2567 1.491 . S
C2573 C2572 1.400 . S
C2573 C2574 1.398 . S
C2574 H2562 0.950 . S
C2574 C2573 1.398 . S
C2574 C2575 1.391 . S
C2575 H2563 0.950 . S
C2575 C2571 1.393 . S
C2575 C2574 1.391 . S
H2576 C2584 0.950 . S
H2577 C2589 0.950 . S
H2578 C2586 0.950 . S
H2579 C2588 0.950 . S
H2580 C2590 0.950 . S
H2581 C2592 0.950 . S
H2582 C2594 0.950 . S
H2583 C2595 0.950 . S
C2584 H2576 0.950 . S
C2584 C2585 1.386 . S
C2584 C2586 1.391 . S
C2585 C2584 1.386 . S
C2585 C2589 1.393 . S
C2586 H2578 0.950 . S
C2586 C2584 1.391 . S
C2586 C2587 1.400 . S
C2587 C2586 1.400 . S
C2587 C2588 1.398 . S
C2587 C2593 1.491 . S
C2588 H2579 0.950 . S
C2588 C2587 1.398 . S
C2588 C2589 1.391 . S
C2589 H2577 0.950 . S
C2589 C2585 1.393 . S
C2589 C2588 1.391 . S
C2590 H2580 0.950 . S
C2590 C2591 1.386 . S
C2590 C2592 1.391 . S
C2591 C2590 1.386 . S
C2591 C2595 1.393 . S
C2592 H2581 0.950 . S
C2592 C2590 1.391 . S
C2592 C2593 1.400 . S
C2593 C2587 1.491 . S
C2593 C2592 1.400 . S
C2593 C2594 1.398 . S
C2594 H2582 0.950 . S
C2594 C2593 1.398 . S
C2594 C2595 1.391 . S
C2595 H2583 0.950 . S
C2595 C2591 1.393 . S
C2595 C2594 1.391 . S
H2596 C2604 0.950 . S
H2597 C2609 0.950 . S
H2598 C2606 0.950 . S
H2599 C2608 0.950 . S
H2600 C2610 0.950 . S
H2601 C2612 0.950 . S
H2602 C2614 0.950 . S
H2603 C2615 0.950 . S
C2604 H2596 0.950 . S
C2604 C2605 1.386 . S
C2604 C2606 1.391 . S
C2605 C2604 1.386 . S
C2605 C2609 1.393 . S
C2606 H2598 0.950 . S
C2606 C2604 1.391 . S
C2606 C2607 1.400 . S
C2607 C2606 1.400 . S
C2607 C2608 1.398 . S
C2607 C2613 1.491 . S
C2608 H2599 0.950 . S
C2608 C2607 1.398 . S
C2608 C2609 1.391 . S
C2609 H2597 0.950 . S
C2609 C2605 1.393 . S
C2609 C2608 1.391 . S
C2610 H2600 0.950 . S
C2610 C2611 1.386 . S
C2610 C2612 1.391 . S
C2611 C2610 1.386 . S
C2611 C2615 1.393 . S
C2612 H2601 0.950 . S
C2612 C2610 1.391 . S
C2612 C2613 1.400 . S
C2613 C2607 1.491 . S
C2613 C2612 1.400 . S
C2613 C2614 1.398 . S
C2614 H2602 0.950 . S
C2614 C2613 1.398 . S
C2614 C2615 1.391 . S
C2615 H2603 0.950 . S
C2615 C2611 1.393 . S
C2615 C2614 1.391 . S
H2616 C2624 0.950 . S
H2617 C2629 0.950 . S
H2618 C2626 0.950 . S
H2619 C2628 0.950 . S
H2620 C2630 0.950 . S
H2621 C2632 0.950 . S
H2622 C2634 0.950 . S
H2623 C2635 0.950 . S
C2624 H2616 0.950 . S
C2624 C2625 1.386 . S
C2624 C2626 1.391 . S
C2625 C2624 1.386 . S
C2625 C2629 1.393 . S
C2626 H2618 0.950 . S
C2626 C2624 1.391 . S
C2626 C2627 1.400 . S
C2627 C2626 1.400 . S
C2627 C2628 1.398 . S
C2627 C2633 1.491 . S
C2628 H2619 0.950 . S
C2628 C2627 1.398 . S
C2628 C2629 1.391 . S
C2629 H2617 0.950 . S
C2629 C2625 1.393 . S
C2629 C2628 1.391 . S
C2630 H2620 0.950 . S
C2630 C2631 1.386 . S
C2630 C2632 1.391 . S
C2631 C2630 1.386 . S
C2631 C2635 1.393 . S
C2632 H2621 0.950 . S
C2632 C2630 1.391 . S
C2632 C2633 1.400 . S
C2633 C2627 1.491 . S
C2633 C2632 1.400 . S
C2633 C2634 1.398 . S
C2634 H2622 0.950 . S
C2634 C2633 1.398 . S
C2634 C2635 1.391 . S
C2635 H2623 0.950 . S
C2635 C2631 1.393 . S
C2635 C2634 1.391 . S
H2636 C2644 0.950 . S
H2637 C2649 0.950 . S
H2638 C2646 0.950 . S
H2639 C2648 0.950 . S
H2640 C2650 0.950 . S
H2641 C2652 0.950 . S
H2642 C2654 0.950 . S
H2643 C2655 0.950 . S
C2644 H2636 0.950 . S
C2644 C2645 1.386 . S
C2644 C2646 1.391 . S
C2645 C2644 1.386 . S
C2645 C2649 1.393 . S
C2646 H2638 0.950 . S
C2646 C2644 1.391 . S
C2646 C2647 1.400 . S
C2647 C2646 1.400 . S
C2647 C2648 1.398 . S
C2647 C2653 1.491 . S
C2648 H2639 0.950 . S
C2648 C2647 1.398 . S
C2648 C2649 1.391 . S
C2649 H2637 0.950 . S
C2649 C2645 1.393 . S
C2649 C2648 1.391 . S
C2650 H2640 0.950 . S
C2650 C2651 1.386 . S
C2650 C2652 1.391 . S
C2651 C2650 1.386 . S
C2651 C2655 1.393 . S
C2652 H2641 0.950 . S
C2652 C2650 1.391 . S
C2652 C2653 1.400 . S
C2653 C2647 1.491 . S
C2653 C2652 1.400 . S
C2653 C2654 1.398 . S
C2654 H2642 0.950 . S
C2654 C2653 1.398 . S
C2654 C2655 1.391 . S
C2655 H2643 0.950 . S
C2655 C2651 1.393 . S
C2655 C2654 1.391 . S
H2656 C2664 0.950 . S
H2657 C2669 0.950 . S
H2658 C2666 0.950 . S
H2659 C2668 0.950 . S
H2660 C2670 0.950 . S
H2661 C2672 0.950 . S
H2662 C2674 0.950 . S
H2663 C2675 0.950 . S
C2664 H2656 0.950 . S
C2664 C2665 1.386 . S
C2664 C2666 1.391 . S
C2665 C2664 1.386 . S
C2665 C2669 1.393 . S
C2666 H2658 0.950 . S
C2666 C2664 1.391 . S
C2666 C2667 1.400 . S
C2667 C2666 1.400 . S
C2667 C2668 1.398 . S
C2667 C2673 1.491 . S
C2668 H2659 0.950 . S
C2668 C2667 1.398 . S
C2668 C2669 1.391 . S
C2669 H2657 0.950 . S
C2669 C2665 1.393 . S
C2669 C2668 1.391 . S
C2670 H2660 0.950 . S
C2670 C2671 1.386 . S
C2670 C2672 1.391 . S
C2671 C2670 1.386 . S
C2671 C2675 1.393 . S
C2672 H2661 0.950 . S
C2672 C2670 1.391 . S
C2672 C2673 1.400 . S
C2673 C2667 1.491 . S
C2673 C2672 1.400 . S
C2673 C2674 1.398 . S
C2674 H2662 0.950 . S
C2674 C2673 1.398 . S
C2674 C2675 1.391 . S
C2675 H2663 0.950 . S
C2675 C2671 1.393 . S
C2675 C2674 1.391 . S
H2676 C2684 0.950 . S
H2677 C2689 0.950 . S
H2678 C2686 0.950 . S
H2679 C2688 0.950 . S
H2680 C2690 0.950 . S
H2681 C2692 0.950 . S
H2682 C2694 0.950 . S
H2683 C2695 0.950 . S
C2684 H2676 0.950 . S
C2684 C2685 1.386 . S
C2684 C2686 1.391 . S
C2685 C2684 1.386 . S
C2685 C2689 1.393 . S
C2686 H2678 0.950 . S
C2686 C2684 1.391 . S
C2686 C2687 1.400 . S
C2687 C2686 1.400 . S
C2687 C2688 1.398 . S
C2687 C2693 1.491 . S
C2688 H2679 0.950 . S
C2688 C2687 1.398 . S
C2688 C2689 1.391 . S
C2689 H2677 0.950 . S
C2689 C2685 1.393 . S
C2689 C2688 1.391 . S
C2690 H2680 0.950 . S
C2690 C2691 1.386 . S
C2690 C2692 1.391 . S
C2691 C2690 1.386 . S
C2691 C2695 1.393 . S
C2692 H2681 0.950 . S
C2692 C2690 1.391 . S
C2692 C2693 1.400 . S
C2693 C2687 1.491 . S
C2693 C2692 1.400 . S
C2693 C2694 1.398 . S
C2694 H2682 0.950 . S
C2694 C2693 1.398 . S
C2694 C2695 1.391 . S
C2695 H2683 0.950 . S
C2695 C2691 1.393 . S
C2695 C2694 1.391 . S
H2696 C2704 0.950 . S
H2697 C2709 0.950 . S
H2698 C2706 0.950 . S
H2699 C2708 0.950 . S
H2700 C2710 0.950 . S
H2701 C2712 0.950 . S
H2702 C2714 0.950 . S
H2703 C2715 0.950 . S
C2704 H2696 0.950 . S
C2704 C2705 1.386 . S
C2704 C2706 1.391 . S
C2705 C2704 1.386 . S
C2705 C2709 1.393 . S
C2706 H2698 0.950 . S
C2706 C2704 1.391 . S
C2706 C2707 1.400 . S
C2707 C2706 1.400 . S
C2707 C2708 1.398 . S
C2707 C2713 1.491 . S
C2708 H2699 0.950 . S
C2708 C2707 1.398 . S
C2708 C2709 1.391 . S
C2709 H2697 0.950 . S
C2709 C2705 1.393 . S
C2709 C2708 1.391 . S
C2710 H2700 0.950 . S
C2710 C2711 1.386 . S
C2710 C2712 1.391 . S
C2711 C2710 1.386 . S
C2711 C2715 1.393 . S
C2712 H2701 0.950 . S
C2712 C2710 1.391 . S
C2712 C2713 1.400 . S
C2713 C2707 1.491 . S
C2713 C2712 1.400 . S
C2713 C2714 1.398 . S
C2714 H2702 0.950 . S
C2714 C2713 1.398 . S
C2714 C2715 1.391 . S
C2715 H2703 0.950 . S
C2715 C2711 1.393 . S
C2715 C2714 1.391 . S
H2716 C2724 0.950 . S
H2717 C2729 0.950 . S
H2718 C2726 0.950 . S
H2719 C2728 0.950 . S
H2720 C2730 0.950 . S
H2721 C2732 0.950 . S
H2722 C2734 0.950 . S
H2723 C2735 0.950 . S
C2724 H2716 0.950 . S
C2724 C2725 1.386 . S
C2724 C2726 1.391 . S
C2725 C2724 1.386 . S
C2725 C2729 1.393 . S
C2726 H2718 0.950 . S
C2726 C2724 1.391 . S
C2726 C2727 1.400 . S
C2727 C2726 1.400 . S
C2727 C2728 1.398 . S
C2727 C2733 1.491 . S
C2728 H2719 0.950 . S
C2728 C2727 1.398 . S
C2728 C2729 1.391 . S
C2729 H2717 0.950 . S
C2729 C2725 1.393 . S
C2729 C2728 1.391 . S
C2730 H2720 0.950 . S
C2730 C2731 1.386 . S
C2730 C2732 1.391 . S
C2731 C2730 1.386 . S
C2731 C2735 1.393 . S
C2732 H2721 0.950 . S
C2732 C2730 1.391 . S
C2732 C2733 1.400 . S
C2733 C2727 1.491 . S
C2733 C2732 1.400 . S
C2733 C2734 1.398 . S
C2734 H2722 0.950 . S
C2734 C2733 1.398 . S
C2734 C2735 1.391 . S
C2735 H2723 0.950 . S
C2735 C2731 1.393 . S
C2735 C2734 1.391 . S
H2736 C2744 0.950 . S
H2737 C2749 0.950 . S
H2738 C2746 0.950 . S
H2739 C2748 0.950 . S
H2740 C2750 0.950 . S
H2741 C2752 0.950 . S
H2742 C2754 0.950 . S
H2743 C2755 0.950 . S
C2744 H2736 0.950 . S
C2744 C2745 1.386 . S
C2744 C2746 1.391 . S
C2745 C2744 1.386 . S
C2745 C2749 1.393 . S
C2746 H2738 0.950 . S
C2746 C2744 1.391 . S
C2746 C2747 1.400 . S
C2747 C2746 1.400 . S
C2747 C2748 1.398 . S
C2747 C2753 1.491 . S
C2748 H2739 0.950 . S
C2748 C2747 1.398 . S
C2748 C2749 1.391 . S
C2749 H2737 0.950 . S
C2749 C2745 1.393 . S
C2749 C2748 1.391 . S
C2750 H2740 0.950 . S
C2750 C2751 1.386 . S
C2750 C2752 1.391 . S
C2751 C2750 1.386 . S
C2751 C2755 1.393 . S
C2752 H2741 0.950 . S
C2752 C2750 1.391 . S
C2752 C2753 1.400 . S
C2753 C2747 1.491 . S
C2753 C2752 1.400 . S
C2753 C2754 1.398 . S
C2754 H2742 0.950 . S
C2754 C2753 1.398 . S
C2754 C2755 1.391 . S
C2755 H2743 0.950 . S
C2755 C2751 1.393 . S
C2755 C2754 1.391 . S
H2756 C2764 0.950 . S
H2757 C2769 0.950 . S
H2758 C2766 0.950 . S
H2759 C2768 0.950 . S
H2760 C2770 0.950 . S
H2761 C2772 0.950 . S
H2762 C2774 0.950 . S
H2763 C2775 0.950 . S
C2764 H2756 0.950 . S
C2764 C2765 1.386 . S
C2764 C2766 1.391 . S
C2765 C2764 1.386 . S
C2765 C2769 1.393 . S
C2766 H2758 0.950 . S
C2766 C2764 1.391 . S
C2766 C2767 1.400 . S
C2767 C2766 1.400 . S
C2767 C2768 1.398 . S
C2767 C2773 1.491 . S
C2768 H2759 0.950 . S
C2768 C2767 1.398 . S
C2768 C2769 1.391 . S
C2769 H2757 0.950 . S
C2769 C2765 1.393 . S
C2769 C2768 1.391 . S
C2770 H2760 0.950 . S
C2770 C2771 1.386 . S
C2770 C2772 1.391 . S
C2771 C2770 1.386 . S
C2771 C2775 1.393 . S
C2772 H2761 0.950 . S
C2772 C2770 1.391 . S
C2772 C2773 1.400 . S
C2773 C2767 1.491 . S
C2773 C2772 1.400 . S
C2773 C2774 1.398 . S
C2774 H2762 0.950 . S
C2774 C2773 1.398 . S
C2774 C2775 1.391 . S
C2775 H2763 0.950 . S
C2775 C2771 1.393 . S
C2775 C2774 1.391 . S
H2776 C2784 0.950 . S
H2777 C2789 0.950 . S
H2778 C2786 0.950 . S
H2779 C2788 0.950 . S
H2780 C2790 0.950 . S
H2781 C2792 0.950 . S
H2782 C2794 0.950 . S
H2783 C2795 0.950 . S
C2784 H2776 0.950 . S
C2784 C2785 1.386 . S
C2784 C2786 1.391 . S
C2785 C2784 1.386 . S
C2785 C2789 1.393 . S
C2786 H2778 0.950 . S
C2786 C2784 1.391 . S
C2786 C2787 1.400 . S
C2787 C2786 1.400 . S
C2787 C2788 1.398 . S
C2787 C2793 1.491 . S
C2788 H2779 0.950 . S
C2788 C2787 1.398 . S
C2788 C2789 1.391 . S
C2789 H2777 0.950 . S
C2789 C2785 1.393 . S
C2789 C2788 1.391 . S
C2790 H2780 0.950 . S
C2790 C2791 1.386 . S
C2790 C2792 1.391 . S
C2791 C2790 1.386 . S
C2791 C2795 1.393 . S
C2792 H2781 0.950 . S
C2792 C2790 1.391 . S
C2792 C2793 1.400 . S
C2793 C2787 1.491 . S
C2793 C2792 1.400 . S
C2793 C2794 1.398 . S
C2794 H2782 0.950 . S
C2794 C2793 1.398 . S
C2794 C2795 1.391 . S
C2795 H2783 0.950 . S
C2795 C2791 1.393 . S
C2795 C2794 1.391 . S
H2796 C2804 0.950 . S
H2797 C2809 0.950 . S
H2798 C2806 0.950 . S
H2799 C2808 0.950 . S
H2800 C2810 0.950 . S
H2801 C2812 0.950 . S
H2802 C2814 0.950 . S
H2803 C2815 0.950 . S
C2804 H2796 0.950 . S
C2804 C2805 1.386 . S
C2804 C2806 1.391 . S
C2805 C2804 1.386 . S
C2805 C2809 1.393 . S
C2806 H2798 0.950 . S
C2806 C2804 1.391 . S
C2806 C2807 1.400 . S
C2807 C2806 1.400 . S
C2807 C2808 1.398 . S
C2807 C2813 1.491 . S
C2808 H2799 0.950 . S
C2808 C2807 1.398 . S
C2808 C2809 1.391 . S
C2809 H2797 0.950 . S
C2809 C2805 1.393 . S
C2809 C2808 1.391 . S
C2810 H2800 0.950 . S
C2810 C2811 1.386 . S
C2810 C2812 1.391 . S
C2811 C2810 1.386 . S
C2811 C2815 1.393 . S
C2812 H2801 0.950 . S
C2812 C2810 1.391 . S
C2812 C2813 1.400 . S
C2813 C2807 1.491 . S
C2813 C2812 1.400 . S
C2813 C2814 1.398 . S
C2814 H2802 0.950 . S
C2814 C2813 1.398 . S
C2814 C2815 1.391 . S
C2815 H2803 0.950 . S
C2815 C2811 1.393 . S
C2815 C2814 1.391 . S
H2816 C2824 0.950 . S
H2817 C2829 0.950 . S
H2818 C2826 0.950 . S
H2819 C2828 0.950 . S
H2820 C2830 0.950 . S
H2821 C2832 0.950 . S
H2822 C2834 0.950 . S
H2823 C2835 0.950 . S
C2824 H2816 0.950 . S
C2824 C2825 1.386 . S
C2824 C2826 1.391 . S
C2825 C2824 1.386 . S
C2825 C2829 1.393 . S
C2826 H2818 0.950 . S
C2826 C2824 1.391 . S
C2826 C2827 1.400 . S
C2827 C2826 1.400 . S
C2827 C2828 1.398 . S
C2827 C2833 1.491 . S
C2828 H2819 0.950 . S
C2828 C2827 1.398 . S
C2828 C2829 1.391 . S
C2829 H2817 0.950 . S
C2829 C2825 1.393 . S
C2829 C2828 1.391 . S
C2830 H2820 0.950 . S
C2830 C2831 1.386 . S
C2830 C2832 1.391 . S
C2831 C2830 1.386 . S
C2831 C2835 1.393 . S
C2832 H2821 0.950 . S
C2832 C2830 1.391 . S
C2832 C2833 1.400 . S
C2833 C2827 1.491 . S
C2833 C2832 1.400 . S
C2833 C2834 1.398 . S
C2834 H2822 0.950 . S
C2834 C2833 1.398 . S
C2834 C2835 1.391 . S
C2835 H2823 0.950 . S
C2835 C2831 1.393 . S
C2835 C2834 1.391 . S
H2836 C2844 0.950 . S
H2837 C2849 0.950 . S
H2838 C2846 0.950 . S
H2839 C2848 0.950 . S
H2840 C2850 0.950 . S
H2841 C2852 0.950 . S
H2842 C2854 0.950 . S
H2843 C2855 0.950 . S
C2844 H2836 0.950 . S
C2844 C2845 1.386 . S
C2844 C2846 1.391 . S
C2845 C2844 1.386 . S
C2845 C2849 1.393 . S
C2846 H2838 0.950 . S
C2846 C2844 1.391 . S
C2846 C2847 1.400 . S
C2847 C2846 1.400 . S
C2847 C2848 1.398 . S
C2847 C2853 1.491 . S
C2848 H2839 0.950 . S
C2848 C2847 1.398 . S
C2848 C2849 1.391 . S
C2849 H2837 0.950 . S
C2849 C2845 1.393 . S
C2849 C2848 1.391 . S
C2850 H2840 0.950 . S
C2850 C2851 1.386 . S
C2850 C2852 1.391 . S
C2851 C2850 1.386 . S
C2851 C2855 1.393 . S
C2852 H2841 0.950 . S
C2852 C2850 1.391 . S
C2852 C2853 1.400 . S
C2853 C2847 1.491 . S
C2853 C2852 1.400 . S
C2853 C2854 1.398 . S
C2854 H2842 0.950 . S
C2854 C2853 1.398 . S
C2854 C2855 1.391 . S
C2855 H2843 0.950 . S
C2855 C2851 1.393 . S
C2855 C2854 1.391 . S
H2856 C2864 0.950 . S
H2857 C2869 0.950 . S
H2858 C2866 0.950 . S
H2859 C2868 0.950 . S
H2860 C2870 0.950 . S
H2861 C2872 0.950 . S
H2862 C2874 0.950 . S
H2863 C2875 0.950 . S
C2864 H2856 0.950 . S
C2864 C2865 1.386 . S
C2864 C2866 1.391 . S
C2865 C2864 1.386 . S
C2865 C2869 1.393 . S
C2866 H2858 0.950 . S
C2866 C2864 1.391 . S
C2866 C2867 1.400 . S
C2867 C2866 1.400 . S
C2867 C2868 1.398 . S
C2867 C2873 1.491 . S
C2868 H2859 0.950 . S
C2868 C2867 1.398 . S
C2868 C2869 1.391 . S
C2869 H2857 0.950 . S
C2869 C2865 1.393 . S
C2869 C2868 1.391 . S
C2870 H2860 0.950 . S
C2870 C2871 1.386 . S
C2870 C2872 1.391 . S
C2871 C2870 1.386 . S
C2871 C2875 1.393 . S
C2872 H2861 0.950 . S
C2872 C2870 1.391 . S
C2872 C2873 1.400 . S
C2873 C2867 1.491 . S
C2873 C2872 1.400 . S
C2873 C2874 1.398 . S
C2874 H2862 0.950 . S
C2874 C2873 1.398 . S
C2874 C2875 1.391 . S
C2875 H2863 0.950 . S
C2875 C2871 1.393 . S
C2875 C2874 1.391 . S
H2876 C2884 0.950 . S
H2877 C2889 0.950 . S
H2878 C2886 0.950 . S
H2879 C2888 0.950 . S
H2880 C2890 0.950 . S
H2881 C2892 0.950 . S
H2882 C2894 0.950 . S
H2883 C2895 0.950 . S
C2884 H2876 0.950 . S
C2884 C2885 1.386 . S
C2884 C2886 1.391 . S
C2885 C2884 1.386 . S
C2885 C2889 1.393 . S
C2886 H2878 0.950 . S
C2886 C2884 1.391 . S
C2886 C2887 1.400 . S
C2887 C2886 1.400 . S
C2887 C2888 1.398 . S
C2887 C2893 1.491 . S
C2888 H2879 0.950 . S
C2888 C2887 1.398 . S
C2888 C2889 1.391 . S
C2889 H2877 0.950 . S
C2889 C2885 1.393 . S
C2889 C2888 1.391 . S
C2890 H2880 0.950 . S
C2890 C2891 1.386 . S
C2890 C2892 1.391 . S
C2891 C2890 1.386 . S
C2891 C2895 1.393 . S
C2892 H2881 0.950 . S
C2892 C2890 1.391 . S
C2892 C2893 1.400 . S
C2893 C2887 1.491 . S
C2893 C2892 1.400 . S
C2893 C2894 1.398 . S
C2894 H2882 0.950 . S
C2894 C2893 1.398 . S
C2894 C2895 1.391 . S
C2895 H2883 0.950 . S
C2895 C2891 1.393 . S
C2895 C2894 1.391 . S
H2896 C2904 0.950 . S
H2897 C2909 0.950 . S
H2898 C2906 0.950 . S
H2899 C2908 0.950 . S
H2900 C2910 0.950 . S
H2901 C2912 0.950 . S
H2902 C2914 0.950 . S
H2903 C2915 0.950 . S
C2904 H2896 0.950 . S
C2904 C2905 1.386 . S
C2904 C2906 1.391 . S
C2905 C2904 1.386 . S
C2905 C2909 1.393 . S
C2906 H2898 0.950 . S
C2906 C2904 1.391 . S
C2906 C2907 1.400 . S
C2907 C2906 1.400 . S
C2907 C2908 1.398 . S
C2907 C2913 1.491 . S
C2908 H2899 0.950 . S
C2908 C2907 1.398 . S
C2908 C2909 1.391 . S
C2909 H2897 0.950 . S
C2909 C2905 1.393 . S
C2909 C2908 1.391 . S
C2910 H2900 0.950 . S
C2910 C2911 1.386 . S
C2910 C2912 1.391 . S
C2911 C2910 1.386 . S
C2911 C2915 1.393 . S
C2912 H2901 0.950 . S
C2912 C2910 1.391 . S
C2912 C2913 1.400 . S
C2913 C2907 1.491 . S
C2913 C2912 1.400 . S
C2913 C2914 1.398 . S
C2914 H2902 0.950 . S
C2914 C2913 1.398 . S
C2914 C2915 1.391 . S
C2915 H2903 0.950 . S
C2915 C2911 1.393 . S
C2915 C2914 1.391 . S
H2916 C2924 0.950 . S
H2917 C2929 0.950 . S
H2918 C2926 0.950 . S
H2919 C2928 0.950 . S
H2920 C2930 0.950 . S
H2921 C2932 0.950 . S
H2922 C2934 0.950 . S
H2923 C2935 0.950 . S
C2924 H2916 0.950 . S
C2924 C2925 1.386 . S
C2924 C2926 1.391 . S
C2925 C2924 1.386 . S
C2925 C2929 1.393 . S
C2926 H2918 0.950 . S
C2926 C2924 1.391 . S
C2926 C2927 1.400 . S
C2927 C2926 1.400 . S
C2927 C2928 1.398 . S
C2927 C2933 1.491 . S
C2928 H2919 0.950 . S
C2928 C2927 1.398 . S
C2928 C2929 1.391 . S
C2929 H2917 0.950 . S
C2929 C2925 1.393 . S
C2929 C2928 1.391 . S
C2930 H2920 0.950 . S
C2930 C2931 1.386 . S
C2930 C2932 1.391 . S
C2931 C2930 1.386 . S
C2931 C2935 1.393 . S
C2932 H2921 0.950 . S
C2932 C2930 1.391 . S
C2932 C2933 1.400 . S
C2933 C2927 1.491 . S
C2933 C2932 1.400 . S
C2933 C2934 1.398 . S
C2934 H2922 0.950 . S
C2934 C2933 1.398 . S
C2934 C2935 1.391 . S
C2935 H2923 0.950 . S
C2935 C2931 1.393 . S
C2935 C2934 1.391 . S
H2936 C2944 0.950 . S
H2937 C2949 0.950 . S
H2938 C2946 0.950 . S
H2939 C2948 0.950 . S
H2940 C2950 0.950 . S
H2941 C2952 0.950 . S
H2942 C2954 0.950 . S
H2943 C2955 0.950 . S
C2944 H2936 0.950 . S
C2944 C2945 1.386 . S
C2944 C2946 1.391 . S
C2945 C2944 1.386 . S
C2945 C2949 1.393 . S
C2946 H2938 0.950 . S
C2946 C2944 1.391 . S
C2946 C2947 1.400 . S
C2947 C2946 1.400 . S
C2947 C2948 1.398 . S
C2947 C2953 1.491 . S
C2948 H2939 0.950 . S
C2948 C2947 1.398 . S
C2948 C2949 1.391 . S
C2949 H2937 0.950 . S
C2949 C2945 1.393 . S
C2949 C2948 1.391 . S
C2950 H2940 0.950 . S
C2950 C2951 1.386 . S
C2950 C2952 1.391 . S
C2951 C2950 1.386 . S
C2951 C2955 1.393 . S
C2952 H2941 0.950 . S
C2952 C2950 1.391 . S
C2952 C2953 1.400 . S
C2953 C2947 1.491 . S
C2953 C2952 1.400 . S
C2953 C2954 1.398 . S
C2954 H2942 0.950 . S
C2954 C2953 1.398 . S
C2954 C2955 1.391 . S
C2955 H2943 0.950 . S
C2955 C2951 1.393 . S
C2955 C2954 1.391 . S
H2956 C2964 0.950 . S
H2957 C2969 0.950 . S
H2958 C2966 0.950 . S
H2959 C2968 0.950 . S
H2960 C2970 0.950 . S
H2961 C2972 0.950 . S
H2962 C2974 0.950 . S
H2963 C2975 0.950 . S
C2964 H2956 0.950 . S
C2964 C2965 1.386 . S
C2964 C2966 1.391 . S
C2965 C2964 1.386 . S
C2965 C2969 1.393 . S
C2966 H2958 0.950 . S
C2966 C2964 1.391 . S
C2966 C2967 1.400 . S
C2967 C2966 1.400 . S
C2967 C2968 1.398 . S
C2967 C2973 1.491 . S
C2968 H2959 0.950 . S
C2968 C2967 1.398 . S
C2968 C2969 1.391 . S
C2969 H2957 0.950 . S
C2969 C2965 1.393 . S
C2969 C2968 1.391 . S
C2970 H2960 0.950 . S
C2970 C2971 1.386 . S
C2970 C2972 1.391 . S
C2971 C2970 1.386 . S
C2971 C2975 1.393 . S
C2972 H2961 0.950 . S
C2972 C2970 1.391 . S
C2972 C2973 1.400 . S
C2973 C2967 1.491 . S
C2973 C2972 1.400 . S
C2973 C2974 1.398 . S
C2974 H2962 0.950 . S
C2974 C2973 1.398 . S
C2974 C2975 1.391 . S
C2975 H2963 0.950 . S
C2975 C2971 1.393 . S
C2975 C2974 1.391 . S
H2976 C2984 0.950 . S
H2977 C2989 0.950 . S
H2978 C2986 0.950 . S
H2979 C2988 0.950 . S
H2980 C2990 0.950 . S
H2981 C2992 0.950 . S
H2982 C2994 0.950 . S
H2983 C2995 0.950 . S
C2984 H2976 0.950 . S
C2984 C2985 1.386 . S
C2984 C2986 1.391 . S
C2985 C2984 1.386 . S
C2985 C2989 1.393 . S
C2986 H2978 0.950 . S
C2986 C2984 1.391 . S
C2986 C2987 1.400 . S
C2987 C2986 1.400 . S
C2987 C2988 1.398 . S
C2987 C2993 1.491 . S
C2988 H2979 0.950 . S
C2988 C2987 1.398 . S
C2988 C2989 1.391 . S
C2989 H2977 0.950 . S
C2989 C2985 1.393 . S
C2989 C2988 1.391 . S
C2990 H2980 0.950 . S
C2990 C2991 1.386 . S
C2990 C2992 1.391 . S
C2991 C2990 1.386 . S
C2991 C2995 1.393 . S
C2992 H2981 0.950 . S
C2992 C2990 1.391 . S
C2992 C2993 1.400 . S
C2993 C2987 1.491 . S
C2993 C2992 1.400 . S
C2993 C2994 1.398 . S
C2994 H2982 0.950 . S
C2994 C2993 1.398 . S
C2994 C2995 1.391 . S
C2995 H2983 0.950 . S
C2995 C2991 1.393 . S
C2995 C2994 1.391 . S
H2996 C3004 0.950 . S
H2997 C3009 0.950 . S
H2998 C3006 0.950 . S
H2999 C3008 0.950 . S
H3000 C3010 0.950 . S
H3001 C3012 0.950 . S
H3002 C3014 0.950 . S
H3003 C3015 0.950 . S
C3004 H2996 0.950 . S
C3004 C3005 1.386 . S
C3004 C3006 1.391 . S
C3005 C3004 1.386 . S
C3005 C3009 1.393 . S
C3006 H2998 0.950 . S
C3006 C3004 1.391 . S
C3006 C3007 1.400 . S
C3007 C3006 1.400 . S
C3007 C3008 1.398 . S
C3007 C3013 1.491 . S
C3008 H2999 0.950 . S
C3008 C3007 1.398 . S
C3008 C3009 1.391 . S
C3009 H2997 0.950 . S
C3009 C3005 1.393 . S
C3009 C3008 1.391 . S
C3010 H3000 0.950 . S
C3010 C3011 1.386 . S
C3010 C3012 1.391 . S
C3011 C3010 1.386 . S
C3011 C3015 1.393 . S
C3012 H3001 0.950 . S
C3012 C3010 1.391 . S
C3012 C3013 1.400 . S
C3013 C3007 1.491 . S
C3013 C3012 1.400 . S
C3013 C3014 1.398 . S
C3014 H3002 0.950 . S
C3014 C3013 1.398 . S
C3014 C3015 1.391 . S
C3015 H3003 0.950 . S
C3015 C3011 1.393 . S
C3015 C3014 1.391 . S
H3016 C3024 0.950 . S
H3017 C3029 0.950 . S
H3018 C3026 0.950 . S
H3019 C3028 0.950 . S
H3020 C3030 0.950 . S
H3021 C3032 0.950 . S
H3022 C3034 0.950 . S
H3023 C3035 0.950 . S
C3024 H3016 0.950 . S
C3024 C3025 1.386 . S
C3024 C3026 1.391 . S
C3025 C3024 1.386 . S
C3025 C3029 1.393 . S
C3026 H3018 0.950 . S
C3026 C3024 1.391 . S
C3026 C3027 1.400 . S
C3027 C3026 1.400 . S
C3027 C3028 1.398 . S
C3027 C3033 1.491 . S
C3028 H3019 0.950 . S
C3028 C3027 1.398 . S
C3028 C3029 1.391 . S
C3029 H3017 0.950 . S
C3029 C3025 1.393 . S
C3029 C3028 1.391 . S
C3030 H3020 0.950 . S
C3030 C3031 1.386 . S
C3030 C3032 1.391 . S
C3031 C3030 1.386 . S
C3031 C3035 1.393 . S
C3032 H3021 0.950 . S
C3032 C3030 1.391 . S
C3032 C3033 1.400 . S
C3033 C3027 1.491 . S
C3033 C3032 1.400 . S
C3033 C3034 1.398 . S
C3034 H3022 0.950 . S
C3034 C3033 1.398 . S
C3034 C3035 1.391 . S
C3035 H3023 0.950 . S
C3035 C3031 1.393 . S
C3035 C3034 1.391 . S
H3036 C3044 0.950 . S
H3037 C3049 0.950 . S
H3038 C3046 0.950 . S
H3039 C3048 0.950 . S
H3040 C3050 0.950 . S
H3041 C3052 0.950 . S
H3042 C3054 0.950 . S
H3043 C3055 0.950 . S
C3044 H3036 0.950 . S
C3044 C3045 1.386 . S
C3044 C3046 1.391 . S
C3045 C3044 1.386 . S
C3045 C3049 1.393 . S
C3046 H3038 0.950 . S
C3046 C3044 1.391 . S
C3046 C3047 1.400 . S
C3047 C3046 1.400 . S
C3047 C3048 1.398 . S
C3047 C3053 1.491 . S
C3048 H3039 0.950 . S
C3048 C3047 1.398 . S
C3048 C3049 1.391 . S
C3049 H3037 0.950 . S
C3049 C3045 1.393 . S
C3049 C3048 1.391 . S
C3050 H3040 0.950 . S
C3050 C3051 1.386 . S
C3050 C3052 1.391 . S
C3051 C3050 1.386 . S
C3051 C3055 1.393 . S
C3052 H3041 0.950 . S
C3052 C3050 1.391 . S
C3052 C3053 1.400 . S
C3053 C3047 1.491 . S
C3053 C3052 1.400 . S
C3053 C3054 1.398 . S
C3054 H3042 0.950 . S
C3054 C3053 1.398 . S
C3054 C3055 1.391 . S
C3055 H3043 0.950 . S
C3055 C3051 1.393 . S
C3055 C3054 1.391 . S
H3056 C3064 0.950 . S
H3057 C3069 0.950 . S
H3058 C3066 0.950 . S
H3059 C3068 0.950 . S
H3060 C3070 0.950 . S
H3061 C3072 0.950 . S
H3062 C3074 0.950 . S
H3063 C3075 0.950 . S
C3064 H3056 0.950 . S
C3064 C3065 1.386 . S
C3064 C3066 1.391 . S
C3065 C3064 1.386 . S
C3065 C3069 1.393 . S
C3066 H3058 0.950 . S
C3066 C3064 1.391 . S
C3066 C3067 1.400 . S
C3067 C3066 1.400 . S
C3067 C3068 1.398 . S
C3067 C3073 1.491 . S
C3068 H3059 0.950 . S
C3068 C3067 1.398 . S
C3068 C3069 1.391 . S
C3069 H3057 0.950 . S
C3069 C3065 1.393 . S
C3069 C3068 1.391 . S
C3070 H3060 0.950 . S
C3070 C3071 1.386 . S
C3070 C3072 1.391 . S
C3071 C3070 1.386 . S
C3071 C3075 1.393 . S
C3072 H3061 0.950 . S
C3072 C3070 1.391 . S
C3072 C3073 1.400 . S
C3073 C3067 1.491 . S
C3073 C3072 1.400 . S
C3073 C3074 1.398 . S
C3074 H3062 0.950 . S
C3074 C3073 1.398 . S
C3074 C3075 1.391 . S
C3075 H3063 0.950 . S
C3075 C3071 1.393 . S
C3075 C3074 1.391 . S
H3076 C3084 0.950 . S
H3077 C3089 0.950 . S
H3078 C3086 0.950 . S
H3079 C3088 0.950 . S
H3080 C3090 0.950 . S
H3081 C3092 0.950 . S
H3082 C3094 0.950 . S
H3083 C3095 0.950 . S
C3084 H3076 0.950 . S
C3084 C3085 1.386 . S
C3084 C3086 1.391 . S
C3085 C3084 1.386 . S
C3085 C3089 1.393 . S
C3086 H3078 0.950 . S
C3086 C3084 1.391 . S
C3086 C3087 1.400 . S
C3087 C3086 1.400 . S
C3087 C3088 1.398 . S
C3087 C3093 1.491 . S
C3088 H3079 0.950 . S
C3088 C3087 1.398 . S
C3088 C3089 1.391 . S
C3089 H3077 0.950 . S
C3089 C3085 1.393 . S
C3089 C3088 1.391 . S
C3090 H3080 0.950 . S
C3090 C3091 1.386 . S
C3090 C3092 1.391 . S
C3091 C3090 1.386 . S
C3091 C3095 1.393 . S
C3092 H3081 0.950 . S
C3092 C3090 1.391 . S
C3092 C3093 1.400 . S
C3093 C3087 1.491 . S
C3093 C3092 1.400 . S
C3093 C3094 1.398 . S
C3094 H3082 0.950 . S
C3094 C3093 1.398 . S
C3094 C3095 1.391 . S
C3095 H3083 0.950 . S
C3095 C3091 1.393 . S
C3095 C3094 1.391 . S
H3096 C3104 0.950 . S
H3097 C3109 0.950 . S
H3098 C3106 0.950 . S
H3099 C3108 0.950 . S
H3100 C3110 0.950 . S
H3101 C3112 0.950 . S
H3102 C3114 0.950 . S
H3103 C3115 0.950 . S
C3104 H3096 0.950 . S
C3104 C3105 1.386 . S
C3104 C3106 1.391 . S
C3105 C3104 1.386 . S
C3105 C3109 1.393 . S
C3106 H3098 0.950 . S
C3106 C3104 1.391 . S
C3106 C3107 1.400 . S
C3107 C3106 1.400 . S
C3107 C3108 1.398 . S
C3107 C3113 1.491 . S
C3108 H3099 0.950 . S
C3108 C3107 1.398 . S
C3108 C3109 1.391 . S
C3109 H3097 0.950 . S
C3109 C3105 1.393 . S
C3109 C3108 1.391 . S
C3110 H3100 0.950 . S
C3110 C3111 1.386 . S
C3110 C3112 1.391 . S
C3111 C3110 1.386 . S
C3111 C3115 1.393 . S
C3112 H3101 0.950 . S
C3112 C3110 1.391 . S
C3112 C3113 1.400 . S
C3113 C3107 1.491 . S
C3113 C3112 1.400 . S
C3113 C3114 1.398 . S
C3114 H3102 0.950 . S
C3114 C3113 1.398 . S
C3114 C3115 1.391 . S
C3115 H3103 0.950 . S
C3115 C3111 1.393 . S
C3115 C3114 1.391 . S
H3116 C3124 0.950 . S
H3117 C3129 0.950 . S
H3118 C3126 0.950 . S
H3119 C3128 0.950 . S
H3120 C3130 0.950 . S
H3121 C3132 0.950 . S
H3122 C3134 0.950 . S
H3123 C3135 0.950 . S
C3124 H3116 0.950 . S
C3124 C3125 1.386 . S
C3124 C3126 1.391 . S
C3125 C3124 1.386 . S
C3125 C3129 1.393 . S
C3126 H3118 0.950 . S
C3126 C3124 1.391 . S
C3126 C3127 1.400 . S
C3127 C3126 1.400 . S
C3127 C3128 1.398 . S
C3127 C3133 1.491 . S
C3128 H3119 0.950 . S
C3128 C3127 1.398 . S
C3128 C3129 1.391 . S
C3129 H3117 0.950 . S
C3129 C3125 1.393 . S
C3129 C3128 1.391 . S
C3130 H3120 0.950 . S
C3130 C3131 1.386 . S
C3130 C3132 1.391 . S
C3131 C3130 1.386 . S
C3131 C3135 1.393 . S
C3132 H3121 0.950 . S
C3132 C3130 1.391 . S
C3132 C3133 1.400 . S
C3133 C3127 1.491 . S
C3133 C3132 1.400 . S
C3133 C3134 1.398 . S
C3134 H3122 0.950 . S
C3134 C3133 1.398 . S
C3134 C3135 1.391 . S
C3135 H3123 0.950 . S
C3135 C3131 1.393 . S
C3135 C3134 1.391 . S
H3136 C3144 0.950 . S
H3137 C3149 0.950 . S
H3138 C3146 0.950 . S
H3139 C3148 0.950 . S
H3140 C3150 0.950 . S
H3141 C3152 0.950 . S
H3142 C3154 0.950 . S
H3143 C3155 0.950 . S
C3144 H3136 0.950 . S
C3144 C3145 1.386 . S
C3144 C3146 1.391 . S
C3145 C3144 1.386 . S
C3145 C3149 1.393 . S
C3146 H3138 0.950 . S
C3146 C3144 1.391 . S
C3146 C3147 1.400 . S
C3147 C3146 1.400 . S
C3147 C3148 1.398 . S
C3147 C3153 1.491 . S
C3148 H3139 0.950 . S
C3148 C3147 1.398 . S
C3148 C3149 1.391 . S
C3149 H3137 0.950 . S
C3149 C3145 1.393 . S
C3149 C3148 1.391 . S
C3150 H3140 0.950 . S
C3150 C3151 1.386 . S
C3150 C3152 1.391 . S
C3151 C3150 1.386 . S
C3151 C3155 1.393 . S
C3152 H3141 0.950 . S
C3152 C3150 1.391 . S
C3152 C3153 1.400 . S
C3153 C3147 1.491 . S
C3153 C3152 1.400 . S
C3153 C3154 1.398 . S
C3154 H3142 0.950 . S
C3154 C3153 1.398 . S
C3154 C3155 1.391 . S
C3155 H3143 0.950 . S
C3155 C3151 1.393 . S
C3155 C3154 1.391 . S
H3156 C3164 0.950 . S
H3157 C3169 0.950 . S
H3158 C3166 0.950 . S
H3159 C3168 0.950 . S
H3160 C3170 0.950 . S
H3161 C3172 0.950 . S
H3162 C3174 0.950 . S
H3163 C3175 0.950 . S
C3164 H3156 0.950 . S
C3164 C3165 1.386 . S
C3164 C3166 1.391 . S
C3165 C3164 1.386 . S
C3165 C3169 1.393 . S
C3166 H3158 0.950 . S
C3166 C3164 1.391 . S
C3166 C3167 1.400 . S
C3167 C3166 1.400 . S
C3167 C3168 1.398 . S
C3167 C3173 1.491 . S
C3168 H3159 0.950 . S
C3168 C3167 1.398 . S
C3168 C3169 1.391 . S
C3169 H3157 0.950 . S
C3169 C3165 1.393 . S
C3169 C3168 1.391 . S
C3170 H3160 0.950 . S
C3170 C3171 1.386 . S
C3170 C3172 1.391 . S
C3171 C3170 1.386 . S
C3171 C3175 1.393 . S
C3172 H3161 0.950 . S
C3172 C3170 1.391 . S
C3172 C3173 1.400 . S
C3173 C3167 1.491 . S
C3173 C3172 1.400 . S
C3173 C3174 1.398 . S
C3174 H3162 0.950 . S
C3174 C3173 1.398 . S
C3174 C3175 1.391 . S
C3175 H3163 0.950 . S
C3175 C3171 1.393 . S
C3175 C3174 1.391 . S
H3176 C3184 0.950 . S
H3177 C3189 0.950 . S
H3178 C3186 0.950 . S
H3179 C3188 0.950 . S
H3180 C3190 0.950 . S
H3181 C3192 0.950 . S
H3182 C3194 0.950 . S
H3183 C3195 0.950 . S
C3184 H3176 0.950 . S
C3184 C3185 1.386 . S
C3184 C3186 1.391 . S
C3185 C3184 1.386 . S
C3185 C3189 1.393 . S
C3186 H3178 0.950 . S
C3186 C3184 1.391 . S
C3186 C3187 1.400 . S
C3187 C3186 1.400 . S
C3187 C3188 1.398 . S
C3187 C3193 1.491 . S
C3188 H3179 0.950 . S
C3188 C3187 1.398 . S
C3188 C3189 1.391 . S
C3189 H3177 0.950 . S
C3189 C3185 1.393 . S
C3189 C3188 1.391 . S
C3190 H3180 0.950 . S
C3190 C3191 1.386 . S
C3190 C3192 1.391 . S
C3191 C3190 1.386 . S
C3191 C3195 1.393 . S
C3192 H3181 0.950 . S
C3192 C3190 1.391 . S
C3192 C3193 1.400 . S
C3193 C3187 1.491 . S
C3193 C3192 1.400 . S
C3193 C3194 1.398 . S
C3194 H3182 0.950 . S
C3194 C3193 1.398 . S
C3194 C3195 1.391 . S
C3195 H3183 0.950 . S
C3195 C3191 1.393 . S
C3195 C3194 1.391 . S
H3196 C3204 0.950 . S
H3197 C3209 0.950 . S
H3198 C3206 0.950 . S
H3199 C3208 0.950 . S
H3200 C3210 0.950 . S
H3201 C3212 0.950 . S
H3202 C3214 0.950 . S
H3203 C3215 0.950 . S
C3204 H3196 0.950 . S
C3204 C3205 1.386 . S
C3204 C3206 1.391 . S
C3205 C3204 1.386 . S
C3205 C3209 1.393 . S
C3206 H3198 0.950 . S
C3206 C3204 1.391 . S
C3206 C3207 1.400 . S
C3207 C3206 1.400 . S
C3207 C3208 1.398 . S
C3207 C3213 1.491 . S
C3208 H3199 0.950 . S
C3208 C3207 1.398 . S
C3208 C3209 1.391 . S
C3209 H3197 0.950 . S
C3209 C3205 1.393 . S
C3209 C3208 1.391 . S
C3210 H3200 0.950 . S
C3210 C3211 1.386 . S
C3210 C3212 1.391 . S
C3211 C3210 1.386 . S
C3211 C3215 1.393 . S
C3212 H3201 0.950 . S
C3212 C3210 1.391 . S
C3212 C3213 1.400 . S
C3213 C3207 1.491 . S
C3213 C3212 1.400 . S
C3213 C3214 1.398 . S
C3214 H3202 0.950 . S
C3214 C3213 1.398 . S
C3214 C3215 1.391 . S
C3215 H3203 0.950 . S
C3215 C3211 1.393 . S
C3215 C3214 1.391 . S
H3216 C3224 0.950 . S
H3217 C3229 0.950 . S
H3218 C3226 0.950 . S
H3219 C3228 0.950 . S
H3220 C3230 0.950 . S
H3221 C3232 0.950 . S
H3222 C3234 0.950 . S
H3223 C3235 0.950 . S
C3224 H3216 0.950 . S
C3224 C3225 1.386 . S
C3224 C3226 1.391 . S
C3225 C3224 1.386 . S
C3225 C3229 1.393 . S
C3226 H3218 0.950 . S
C3226 C3224 1.391 . S
C3226 C3227 1.400 . S
C3227 C3226 1.400 . S
C3227 C3228 1.398 . S
C3227 C3233 1.491 . S
C3228 H3219 0.950 . S
C3228 C3227 1.398 . S
C3228 C3229 1.391 . S
C3229 H3217 0.950 . S
C3229 C3225 1.393 . S
C3229 C3228 1.391 . S
C3230 H3220 0.950 . S
C3230 C3231 1.386 . S
C3230 C3232 1.391 . S
C3231 C3230 1.386 . S
C3231 C3235 1.393 . S
C3232 H3221 0.950 . S
C3232 C3230 1.391 . S
C3232 C3233 1.400 . S
C3233 C3227 1.491 . S
C3233 C3232 1.400 . S
C3233 C3234 1.398 . S
C3234 H3222 0.950 . S
C3234 C3233 1.398 . S
C3234 C3235 1.391 . S
C3235 H3223 0.950 . S
C3235 C3231 1.393 . S
C3235 C3234 1.391 . S
H3236 C3244 0.950 . S
H3237 C3249 0.950 . S
H3238 C3246 0.950 . S
H3239 C3248 0.950 . S
H3240 C3250 0.950 . S
H3241 C3252 0.950 . S
H3242 C3254 0.950 . S
H3243 C3255 0.950 . S
C3244 H3236 0.950 . S
C3244 C3245 1.386 . S
C3244 C3246 1.391 . S
C3245 C3244 1.386 . S
C3245 C3249 1.393 . S
C3246 H3238 0.950 . S
C3246 C3244 1.391 . S
C3246 C3247 1.400 . S
C3247 C3246 1.400 . S
C3247 C3248 1.398 . S
C3247 C3253 1.491 . S
C3248 H3239 0.950 . S
C3248 C3247 1.398 . S
C3248 C3249 1.391 . S
C3249 H3237 0.950 . S
C3249 C3245 1.393 . S
C3249 C3248 1.391 . S
C3250 H3240 0.950 . S
C3250 C3251 1.386 . S
C3250 C3252 1.391 . S
C3251 C3250 1.386 . S
C3251 C3255 1.393 . S
C3252 H3241 0.950 . S
C3252 C3250 1.391 . S
C3252 C3253 1.400 . S
C3253 C3247 1.491 . S
C3253 C3252 1.400 . S
C3253 C3254 1.398 . S
C3254 H3242 0.950 . S
C3254 C3253 1.398 . S
C3254 C3255 1.391 . S
C3255 H3243 0.950 . S
C3255 C3251 1.393 . S
C3255 C3254 1.391 . S
H3256 C3264 0.950 . S
H3257 C3269 0.950 . S
H3258 C3266 0.950 . S
H3259 C3268 0.950 . S
H3260 C3270 0.950 . S
H3261 C3272 0.950 . S
H3262 C3274 0.950 . S
H3263 C3275 0.950 . S
C3264 H3256 0.950 . S
C3264 C3265 1.386 . S
C3264 C3266 1.391 . S
C3265 C3264 1.386 . S
C3265 C3269 1.393 . S
C3266 H3258 0.950 . S
C3266 C3264 1.391 . S
C3266 C3267 1.400 . S
C3267 C3266 1.400 . S
C3267 C3268 1.398 . S
C3267 C3273 1.491 . S
C3268 H3259 0.950 . S
C3268 C3267 1.398 . S
C3268 C3269 1.391 . S
C3269 H3257 0.950 . S
C3269 C3265 1.393 . S
C3269 C3268 1.391 . S
C3270 H3260 0.950 . S
C3270 C3271 1.386 . S
C3270 C3272 1.391 . S
C3271 C3270 1.386 . S
C3271 C3275 1.393 . S
C3272 H3261 0.950 . S
C3272 C3270 1.391 . S
C3272 C3273 1.400 . S
C3273 C3267 1.491 . S
C3273 C3272 1.400 . S
C3273 C3274 1.398 . S
C3274 H3262 0.950 . S
C3274 C3273 1.398 . S
C3274 C3275 1.391 . S
C3275 H3263 0.950 . S
C3275 C3271 1.393 . S
C3275 C3274 1.391 . S
H3276 C3284 0.950 . S
H3277 C3289 0.950 . S
H3278 C3286 0.950 . S
H3279 C3288 0.950 . S
H3280 C3290 0.950 . S
H3281 C3292 0.950 . S
H3282 C3294 0.950 . S
H3283 C3295 0.950 . S
C3284 H3276 0.950 . S
C3284 C3285 1.386 . S
C3284 C3286 1.391 . S
C3285 C3284 1.386 . S
C3285 C3289 1.393 . S
C3286 H3278 0.950 . S
C3286 C3284 1.391 . S
C3286 C3287 1.400 . S
C3287 C3286 1.400 . S
C3287 C3288 1.398 . S
C3287 C3293 1.491 . S
C3288 H3279 0.950 . S
C3288 C3287 1.398 . S
C3288 C3289 1.391 . S
C3289 H3277 0.950 . S
C3289 C3285 1.393 . S
C3289 C3288 1.391 . S
C3290 H3280 0.950 . S
C3290 C3291 1.386 . S
C3290 C3292 1.391 . S
C3291 C3290 1.386 . S
C3291 C3295 1.393 . S
C3292 H3281 0.950 . S
C3292 C3290 1.391 . S
C3292 C3293 1.400 . S
C3293 C3287 1.491 . S
C3293 C3292 1.400 . S
C3293 C3294 1.398 . S
C3294 H3282 0.950 . S
C3294 C3293 1.398 . S
C3294 C3295 1.391 . S
C3295 H3283 0.950 . S
C3295 C3291 1.393 . S
C3295 C3294 1.391 . S
H3296 C3304 0.950 . S
H3297 C3309 0.950 . S
H3298 C3306 0.950 . S
H3299 C3308 0.950 . S
H3300 C3310 0.950 . S
H3301 C3312 0.950 . S
H3302 C3314 0.950 . S
H3303 C3315 0.950 . S
C3304 H3296 0.950 . S
C3304 C3305 1.386 . S
C3304 C3306 1.391 . S
C3305 C3304 1.386 . S
C3305 C3309 1.393 . S
C3306 H3298 0.950 . S
C3306 C3304 1.391 . S
C3306 C3307 1.400 . S
C3307 C3306 1.400 . S
C3307 C3308 1.398 . S
C3307 C3313 1.491 . S
C3308 H3299 0.950 . S
C3308 C3307 1.398 . S
C3308 C3309 1.391 . S
C3309 H3297 0.950 . S
C3309 C3305 1.393 . S
C3309 C3308 1.391 . S
C3310 H3300 0.950 . S
C3310 C3311 1.386 . S
C3310 C3312 1.391 . S
C3311 C3310 1.386 . S
C3311 C3315 1.393 . S
C3312 H3301 0.950 . S
C3312 C3310 1.391 . S
C3312 C3313 1.400 . S
C3313 C3307 1.491 . S
C3313 C3312 1.400 . S
C3313 C3314 1.398 . S
C3314 H3302 0.950 . S
C3314 C3313 1.398 . S
C3314 C3315 1.391 . S
C3315 H3303 0.950 . S
C3315 C3311 1.393 . S
C3315 C3314 1.391 . S
H3316 C3324 0.950 . S
H3317 C3329 0.950 . S
H3318 C3326 0.950 . S
H3319 C3328 0.950 . S
H3320 C3330 0.950 . S
H3321 C3332 0.950 . S
H3322 C3334 0.950 . S
H3323 C3335 0.950 . S
C3324 H3316 0.950 . S
C3324 C3325 1.386 . S
C3324 C3326 1.391 . S
C3325 C3324 1.386 . S
C3325 C3329 1.393 . S
C3326 H3318 0.950 . S
C3326 C3324 1.391 . S
C3326 C3327 1.400 . S
C3327 C3326 1.400 . S
C3327 C3328 1.398 . S
C3327 C3333 1.491 . S
C3328 H3319 0.950 . S
C3328 C3327 1.398 . S
C3328 C3329 1.391 . S
C3329 H3317 0.950 . S
C3329 C3325 1.393 . S
C3329 C3328 1.391 . S
C3330 H3320 0.950 . S
C3330 C3331 1.386 . S
C3330 C3332 1.391 . S
C3331 C3330 1.386 . S
C3331 C3335 1.393 . S
C3332 H3321 0.950 . S
C3332 C3330 1.391 . S
C3332 C3333 1.400 . S
C3333 C3327 1.491 . S
C3333 C3332 1.400 . S
C3333 C3334 1.398 . S
C3334 H3322 0.950 . S
C3334 C3333 1.398 . S
C3334 C3335 1.391 . S
C3335 H3323 0.950 . S
C3335 C3331 1.393 . S
C3335 C3334 1.391 . S
H3336 C3344 0.950 . S
H3337 C3349 0.950 . S
H3338 C3346 0.950 . S
H3339 C3348 0.950 . S
H3340 C3350 0.950 . S
H3341 C3352 0.950 . S
H3342 C3354 0.950 . S
H3343 C3355 0.950 . S
C3344 H3336 0.950 . S
C3344 C3345 1.386 . S
C3344 C3346 1.391 . S
C3345 C3344 1.386 . S
C3345 C3349 1.393 . S
C3346 H3338 0.950 . S
C3346 C3344 1.391 . S
C3346 C3347 1.400 . S
C3347 C3346 1.400 . S
C3347 C3348 1.398 . S
C3347 C3353 1.491 . S
C3348 H3339 0.950 . S
C3348 C3347 1.398 . S
C3348 C3349 1.391 . S
C3349 H3337 0.950 . S
C3349 C3345 1.393 . S
C3349 C3348 1.391 . S
C3350 H3340 0.950 . S
C3350 C3351 1.386 . S
C3350 C3352 1.391 . S
C3351 C3350 1.386 . S
C3351 C3355 1.393 . S
C3352 H3341 0.950 . S
C3352 C3350 1.391 . S
C3352 C3353 1.400 . S
C3353 C3347 1.491 . S
C3353 C3352 1.400 . S
C3353 C3354 1.398 . S
C3354 H3342 0.950 . S
C3354 C3353 1.398 . S
C3354 C3355 1.391 . S
C3355 H3343 0.950 . S
C3355 C3351 1.393 . S
C3355 C3354 1.391 . S
H3356 C3364 0.950 . S
H3357 C3369 0.950 . S
H3358 C3366 0.950 . S
H3359 C3368 0.950 . S
H3360 C3370 0.950 . S
H3361 C3372 0.950 . S
H3362 C3374 0.950 . S
H3363 C3375 0.950 . S
C3364 H3356 0.950 . S
C3364 C3365 1.386 . S
C3364 C3366 1.391 . S
C3365 C3364 1.386 . S
C3365 C3369 1.393 . S
C3366 H3358 0.950 . S
C3366 C3364 1.391 . S
C3366 C3367 1.400 . S
C3367 C3366 1.400 . S
C3367 C3368 1.398 . S
C3367 C3373 1.491 . S
C3368 H3359 0.950 . S
C3368 C3367 1.398 . S
C3368 C3369 1.391 . S
C3369 H3357 0.950 . S
C3369 C3365 1.393 . S
C3369 C3368 1.391 . S
C3370 H3360 0.950 . S
C3370 C3371 1.386 . S
C3370 C3372 1.391 . S
C3371 C3370 1.386 . S
C3371 C3375 1.393 . S
C3372 H3361 0.950 . S
C3372 C3370 1.391 . S
C3372 C3373 1.400 . S
C3373 C3367 1.491 . S
C3373 C3372 1.400 . S
C3373 C3374 1.398 . S
C3374 H3362 0.950 . S
C3374 C3373 1.398 . S
C3374 C3375 1.391 . S
C3375 H3363 0.950 . S
C3375 C3371 1.393 . S
C3375 C3374 1.391 . S
H3376 C3384 0.950 . S
H3377 C3389 0.950 . S
H3378 C3386 0.950 . S
H3379 C3388 0.950 . S
H3380 C3390 0.950 . S
H3381 C3392 0.950 . S
H3382 C3394 0.950 . S
H3383 C3395 0.950 . S
C3384 H3376 0.950 . S
C3384 C3385 1.386 . S
C3384 C3386 1.391 . S
C3385 C3384 1.386 . S
C3385 C3389 1.393 . S
C3386 H3378 0.950 . S
C3386 C3384 1.391 . S
C3386 C3387 1.400 . S
C3387 C3386 1.400 . S
C3387 C3388 1.398 . S
C3387 C3393 1.491 . S
C3388 H3379 0.950 . S
C3388 C3387 1.398 . S
C3388 C3389 1.391 . S
C3389 H3377 0.950 . S
C3389 C3385 1.393 . S
C3389 C3388 1.391 . S
C3390 H3380 0.950 . S
C3390 C3391 1.386 . S
C3390 C3392 1.391 . S
C3391 C3390 1.386 . S
C3391 C3395 1.393 . S
C3392 H3381 0.950 . S
C3392 C3390 1.391 . S
C3392 C3393 1.400 . S
C3393 C3387 1.491 . S
C3393 C3392 1.400 . S
C3393 C3394 1.398 . S
C3394 H3382 0.950 . S
C3394 C3393 1.398 . S
C3394 C3395 1.391 . S
C3395 H3383 0.950 . S
C3395 C3391 1.393 . S
C3395 C3394 1.391 . S
H3396 C3404 0.950 . S
H3397 C3409 0.950 . S
H3398 C3406 0.950 . S
H3399 C3408 0.950 . S
H3400 C3410 0.950 . S
H3401 C3412 0.950 . S
H3402 C3414 0.950 . S
H3403 C3415 0.950 . S
C3404 H3396 0.950 . S
C3404 C3405 1.386 . S
C3404 C3406 1.391 . S
C3405 C3404 1.386 . S
C3405 C3409 1.393 . S
C3406 H3398 0.950 . S
C3406 C3404 1.391 . S
C3406 C3407 1.400 . S
C3407 C3406 1.400 . S
C3407 C3408 1.398 . S
C3407 C3413 1.491 . S
C3408 H3399 0.950 . S
C3408 C3407 1.398 . S
C3408 C3409 1.391 . S
C3409 H3397 0.950 . S
C3409 C3405 1.393 . S
C3409 C3408 1.391 . S
C3410 H3400 0.950 . S
C3410 C3411 1.386 . S
C3410 C3412 1.391 . S
C3411 C3410 1.386 . S
C3411 C3415 1.393 . S
C3412 H3401 0.950 . S
C3412 C3410 1.391 . S
C3412 C3413 1.400 . S
C3413 C3407 1.491 . S
C3413 C3412 1.400 . S
C3413 C3414 1.398 . S
C3414 H3402 0.950 . S
C3414 C3413 1.398 . S
C3414 C3415 1.391 . S
C3415 H3403 0.950 . S
C3415 C3411 1.393 . S
C3415 C3414 1.391 . S
H3416 C3424 0.950 . S
H3417 C3429 0.950 . S
H3418 C3426 0.950 . S
H3419 C3428 0.950 . S
H3420 C3430 0.950 . S
H3421 C3432 0.950 . S
H3422 C3434 0.950 . S
H3423 C3435 0.950 . S
C3424 H3416 0.950 . S
C3424 C3425 1.386 . S
C3424 C3426 1.391 . S
C3425 C3424 1.386 . S
C3425 C3429 1.393 . S
C3426 H3418 0.950 . S
C3426 C3424 1.391 . S
C3426 C3427 1.400 . S
C3427 C3426 1.400 . S
C3427 C3428 1.398 . S
C3427 C3433 1.491 . S
C3428 H3419 0.950 . S
C3428 C3427 1.398 . S
C3428 C3429 1.391 . S
C3429 H3417 0.950 . S
C3429 C3425 1.393 . S
C3429 C3428 1.391 . S
C3430 H3420 0.950 . S
C3430 C3431 1.386 . S
C3430 C3432 1.391 . S
C3431 C3430 1.386 . S
C3431 C3435 1.393 . S
C3432 H3421 0.950 . S
C3432 C3430 1.391 . S
C3432 C3433 1.400 . S
C3433 C3427 1.491 . S
C3433 C3432 1.400 . S
C3433 C3434 1.398 . S
C3434 H3422 0.950 . S
C3434 C3433 1.398 . S
C3434 C3435 1.391 . S
C3435 H3423 0.950 . S
C3435 C3431 1.393 . S
C3435 C3434 1.391 . S
H3436 C3444 0.950 . S
H3437 C3449 0.950 . S
H3438 C3446 0.950 . S
H3439 C3448 0.950 . S
H3440 C3450 0.950 . S
H3441 C3452 0.950 . S
H3442 C3454 0.950 . S
H3443 C3455 0.950 . S
C3444 H3436 0.950 . S
C3444 C3445 1.386 . S
C3444 C3446 1.391 . S
C3445 C3444 1.386 . S
C3445 C3449 1.393 . S
C3446 H3438 0.950 . S
C3446 C3444 1.391 . S
C3446 C3447 1.400 . S
C3447 C3446 1.400 . S
C3447 C3448 1.398 . S
C3447 C3453 1.491 . S
C3448 H3439 0.950 . S
C3448 C3447 1.398 . S
C3448 C3449 1.391 . S
C3449 H3437 0.950 . S
C3449 C3445 1.393 . S
C3449 C3448 1.391 . S
C3450 H3440 0.950 . S
C3450 C3451 1.386 . S
C3450 C3452 1.391 . S
C3451 C3450 1.386 . S
C3451 C3455 1.393 . S
C3452 H3441 0.950 . S
C3452 C3450 1.391 . S
C3452 C3453 1.400 . S
C3453 C3447 1.491 . S
C3453 C3452 1.400 . S
C3453 C3454 1.398 . S
C3454 H3442 0.950 . S
C3454 C3453 1.398 . S
C3454 C3455 1.391 . S
C3455 H3443 0.950 . S
C3455 C3451 1.393 . S
C3455 C3454 1.391 . S
H3456 C3464 0.950 . S
H3457 C3469 0.950 . S
H3458 C3466 0.950 . S
H3459 C3468 0.950 . S
H3460 C3470 0.950 . S
H3461 C3472 0.950 . S
H3462 C3474 0.950 . S
H3463 C3475 0.950 . S
C3464 H3456 0.950 . S
C3464 C3465 1.386 . S
C3464 C3466 1.391 . S
C3465 C3464 1.386 . S
C3465 C3469 1.393 . S
C3466 H3458 0.950 . S
C3466 C3464 1.391 . S
C3466 C3467 1.400 . S
C3467 C3466 1.400 . S
C3467 C3468 1.398 . S
C3467 C3473 1.491 . S
C3468 H3459 0.950 . S
C3468 C3467 1.398 . S
C3468 C3469 1.391 . S
C3469 H3457 0.950 . S
C3469 C3465 1.393 . S
C3469 C3468 1.391 . S
C3470 H3460 0.950 . S
C3470 C3471 1.386 . S
C3470 C3472 1.391 . S
C3471 C3470 1.386 . S
C3471 C3475 1.393 . S
C3472 H3461 0.950 . S
C3472 C3470 1.391 . S
C3472 C3473 1.400 . S
C3473 C3467 1.491 . S
C3473 C3472 1.400 . S
C3473 C3474 1.398 . S
C3474 H3462 0.950 . S
C3474 C3473 1.398 . S
C3474 C3475 1.391 . S
C3475 H3463 0.950 . S
C3475 C3471 1.393 . S
C3475 C3474 1.391 . S
H3476 C3484 0.950 . S
H3477 C3489 0.950 . S
H3478 C3486 0.950 . S
H3479 C3488 0.950 . S
H3480 C3490 0.950 . S
H3481 C3492 0.950 . S
H3482 C3494 0.950 . S
H3483 C3495 0.950 . S
C3484 H3476 0.950 . S
C3484 C3485 1.386 . S
C3484 C3486 1.391 . S
C3485 C3484 1.386 . S
C3485 C3489 1.393 . S
C3486 H3478 0.950 . S
C3486 C3484 1.391 . S
C3486 C3487 1.400 . S
C3487 C3486 1.400 . S
C3487 C3488 1.398 . S
C3487 C3493 1.491 . S
C3488 H3479 0.950 . S
C3488 C3487 1.398 . S
C3488 C3489 1.391 . S
C3489 H3477 0.950 . S
C3489 C3485 1.393 . S
C3489 C3488 1.391 . S
C3490 H3480 0.950 . S
C3490 C3491 1.386 . S
C3490 C3492 1.391 . S
C3491 C3490 1.386 . S
C3491 C3495 1.393 . S
C3492 H3481 0.950 . S
C3492 C3490 1.391 . S
C3492 C3493 1.400 . S
C3493 C3487 1.491 . S
C3493 C3492 1.400 . S
C3493 C3494 1.398 . S
C3494 H3482 0.950 . S
C3494 C3493 1.398 . S
C3494 C3495 1.391 . S
C3495 H3483 0.950 . S
C3495 C3491 1.393 . S
C3495 C3494 1.391 . S
H3496 C3504 0.950 . S
H3497 C3509 0.950 . S
H3498 C3506 0.950 . S
H3499 C3508 0.950 . S
H3500 C3510 0.950 . S
H3501 C3512 0.950 . S
H3502 C3514 0.950 . S
H3503 C3515 0.950 . S
C3504 H3496 0.950 . S
C3504 C3505 1.386 . S
C3504 C3506 1.391 . S
C3505 C3504 1.386 . S
C3505 C3509 1.393 . S
C3506 H3498 0.950 . S
C3506 C3504 1.391 . S
C3506 C3507 1.400 . S
C3507 C3506 1.400 . S
C3507 C3508 1.398 . S
C3507 C3513 1.491 . S
C3508 H3499 0.950 . S
C3508 C3507 1.398 . S
C3508 C3509 1.391 . S
C3509 H3497 0.950 . S
C3509 C3505 1.393 . S
C3509 C3508 1.391 . S
C3510 H3500 0.950 . S
C3510 C3511 1.386 . S
C3510 C3512 1.391 . S
C3511 C3510 1.386 . S
C3511 C3515 1.393 . S
C3512 H3501 0.950 . S
C3512 C3510 1.391 . S
C3512 C3513 1.400 . S
C3513 C3507 1.491 . S
C3513 C3512 1.400 . S
C3513 C3514 1.398 . S
C3514 H3502 0.950 . S
C3514 C3513 1.398 . S
C3514 C3515 1.391 . S
C3515 H3503 0.950 . S
C3515 C3511 1.393 . S
C3515 C3514 1.391 . S
H3516 C3524 0.950 . S
H3517 C3529 0.950 . S
H3518 C3526 0.950 . S
H3519 C3528 0.950 . S
H3520 C3530 0.950 . S
H3521 C3532 0.950 . S
H3522 C3534 0.950 . S
H3523 C3535 0.950 . S
C3524 H3516 0.950 . S
C3524 C3525 1.386 . S
C3524 C3526 1.391 . S
C3525 C3524 1.386 . S
C3525 C3529 1.393 . S
C3526 H3518 0.950 . S
C3526 C3524 1.391 . S
C3526 C3527 1.400 . S
C3527 C3526 1.400 . S
C3527 C3528 1.398 . S
C3527 C3533 1.491 . S
C3528 H3519 0.950 . S
C3528 C3527 1.398 . S
C3528 C3529 1.391 . S
C3529 H3517 0.950 . S
C3529 C3525 1.393 . S
C3529 C3528 1.391 . S
C3530 H3520 0.950 . S
C3530 C3531 1.386 . S
C3530 C3532 1.391 . S
C3531 C3530 1.386 . S
C3531 C3535 1.393 . S
C3532 H3521 0.950 . S
C3532 C3530 1.391 . S
C3532 C3533 1.400 . S
C3533 C3527 1.491 . S
C3533 C3532 1.400 . S
C3533 C3534 1.398 . S
C3534 H3522 0.950 . S
C3534 C3533 1.398 . S
C3534 C3535 1.391 . S
C3535 H3523 0.950 . S
C3535 C3531 1.393 . S
C3535 C3534 1.391 . S
H3536 C3544 0.950 . S
H3537 C3549 0.950 . S
H3538 C3546 0.950 . S
H3539 C3548 0.950 . S
H3540 C3550 0.950 . S
H3541 C3552 0.950 . S
H3542 C3554 0.950 . S
H3543 C3555 0.950 . S
C3544 H3536 0.950 . S
C3544 C3545 1.386 . S
C3544 C3546 1.391 . S
C3545 C3544 1.386 . S
C3545 C3549 1.393 . S
C3546 H3538 0.950 . S
C3546 C3544 1.391 . S
C3546 C3547 1.400 . S
C3547 C3546 1.400 . S
C3547 C3548 1.398 . S
C3547 C3553 1.491 . S
C3548 H3539 0.950 . S
C3548 C3547 1.398 . S
C3548 C3549 1.391 . S
C3549 H3537 0.950 . S
C3549 C3545 1.393 . S
C3549 C3548 1.391 . S
C3550 H3540 0.950 . S
C3550 C3551 1.386 . S
C3550 C3552 1.391 . S
C3551 C3550 1.386 . S
C3551 C3555 1.393 . S
C3552 H3541 0.950 . S
C3552 C3550 1.391 . S
C3552 C3553 1.400 . S
C3553 C3547 1.491 . S
C3553 C3552 1.400 . S
C3553 C3554 1.398 . S
C3554 H3542 0.950 . S
C3554 C3553 1.398 . S
C3554 C3555 1.391 . S
C3555 H3543 0.950 . S
C3555 C3551 1.393 . S
C3555 C3554 1.391 . S
H3556 C3564 0.950 . S
H3557 C3569 0.950 . S
H3558 C3566 0.950 . S
H3559 C3568 0.950 . S
H3560 C3570 0.950 . S
H3561 C3572 0.950 . S
H3562 C3574 0.950 . S
H3563 C3575 0.950 . S
C3564 H3556 0.950 . S
C3564 C3565 1.386 . S
C3564 C3566 1.391 . S
C3565 C3564 1.386 . S
C3565 C3569 1.393 . S
C3566 H3558 0.950 . S
C3566 C3564 1.391 . S
C3566 C3567 1.400 . S
C3567 C3566 1.400 . S
C3567 C3568 1.398 . S
C3567 C3573 1.491 . S
C3568 H3559 0.950 . S
C3568 C3567 1.398 . S
C3568 C3569 1.391 . S
C3569 H3557 0.950 . S
C3569 C3565 1.393 . S
C3569 C3568 1.391 . S
C3570 H3560 0.950 . S
C3570 C3571 1.386 . S
C3570 C3572 1.391 . S
C3571 C3570 1.386 . S
C3571 C3575 1.393 . S
C3572 H3561 0.950 . S
C3572 C3570 1.391 . S
C3572 C3573 1.400 . S
C3573 C3567 1.491 . S
C3573 C3572 1.400 . S
C3573 C3574 1.398 . S
C3574 H3562 0.950 . S
C3574 C3573 1.398 . S
C3574 C3575 1.391 . S
C3575 H3563 0.950 . S
C3575 C3571 1.393 . S
C3575 C3574 1.391 . S
H3576 C3584 0.950 . S
H3577 C3589 0.950 . S
H3578 C3586 0.950 . S
H3579 C3588 0.950 . S
H3580 C3590 0.950 . S
H3581 C3592 0.950 . S
H3582 C3594 0.950 . S
H3583 C3595 0.950 . S
C3584 H3576 0.950 . S
C3584 C3585 1.386 . S
C3584 C3586 1.391 . S
C3585 C3584 1.386 . S
C3585 C3589 1.393 . S
C3586 H3578 0.950 . S
C3586 C3584 1.391 . S
C3586 C3587 1.400 . S
C3587 C3586 1.400 . S
C3587 C3588 1.398 . S
C3587 C3593 1.491 . S
C3588 H3579 0.950 . S
C3588 C3587 1.398 . S
C3588 C3589 1.391 . S
C3589 H3577 0.950 . S
C3589 C3585 1.393 . S
C3589 C3588 1.391 . S
C3590 H3580 0.950 . S
C3590 C3591 1.386 . S
C3590 C3592 1.391 . S
C3591 C3590 1.386 . S
C3591 C3595 1.393 . S
C3592 H3581 0.950 . S
C3592 C3590 1.391 . S
C3592 C3593 1.400 . S
C3593 C3587 1.491 . S
C3593 C3592 1.400 . S
C3593 C3594 1.398 . S
C3594 H3582 0.950 . S
C3594 C3593 1.398 . S
C3594 C3595 1.391 . S
C3595 H3583 0.950 . S
C3595 C3591 1.393 . S
C3595 C3594 1.391 . S
H3596 C3604 0.950 . S
H3597 C3609 0.950 . S
H3598 C3606 0.950 . S
H3599 C3608 0.950 . S
H3600 C3610 0.950 . S
H3601 C3612 0.950 . S
H3602 C3614 0.950 . S
H3603 C3615 0.950 . S
C3604 H3596 0.950 . S
C3604 C3605 1.386 . S
C3604 C3606 1.391 . S
C3605 C3604 1.386 . S
C3605 C3609 1.393 . S
C3606 H3598 0.950 . S
C3606 C3604 1.391 . S
C3606 C3607 1.400 . S
C3607 C3606 1.400 . S
C3607 C3608 1.398 . S
C3607 C3613 1.491 . S
C3608 H3599 0.950 . S
C3608 C3607 1.398 . S
C3608 C3609 1.391 . S
C3609 H3597 0.950 . S
C3609 C3605 1.393 . S
C3609 C3608 1.391 . S
C3610 H3600 0.950 . S
C3610 C3611 1.386 . S
C3610 C3612 1.391 . S
C3611 C3610 1.386 . S
C3611 C3615 1.393 . S
C3612 H3601 0.950 . S
C3612 C3610 1.391 . S
C3612 C3613 1.400 . S
C3613 C3607 1.491 . S
C3613 C3612 1.400 . S
C3613 C3614 1.398 . S
C3614 H3602 0.950 . S
C3614 C3613 1.398 . S
C3614 C3615 1.391 . S
C3615 H3603 0.950 . S
C3615 C3611 1.393 . S
C3615 C3614 1.391 . S
H3616 C3624 0.950 . S
H3617 C3629 0.950 . S
H3618 C3626 0.950 . S
H3619 C3628 0.950 . S
H3620 C3630 0.950 . S
H3621 C3632 0.950 . S
H3622 C3634 0.950 . S
H3623 C3635 0.950 . S
C3624 H3616 0.950 . S
C3624 C3625 1.386 . S
C3624 C3626 1.391 . S
C3625 C3624 1.386 . S
C3625 C3629 1.393 . S
C3626 H3618 0.950 . S
C3626 C3624 1.391 . S
C3626 C3627 1.400 . S
C3627 C3626 1.400 . S
C3627 C3628 1.398 . S
C3627 C3633 1.491 . S
C3628 H3619 0.950 . S
C3628 C3627 1.398 . S
C3628 C3629 1.391 . S
C3629 H3617 0.950 . S
C3629 C3625 1.393 . S
C3629 C3628 1.391 . S
C3630 H3620 0.950 . S
C3630 C3631 1.386 . S
C3630 C3632 1.391 . S
C3631 C3630 1.386 . S
C3631 C3635 1.393 . S
C3632 H3621 0.950 . S
C3632 C3630 1.391 . S
C3632 C3633 1.400 . S
C3633 C3627 1.491 . S
C3633 C3632 1.400 . S
C3633 C3634 1.398 . S
C3634 H3622 0.950 . S
C3634 C3633 1.398 . S
C3634 C3635 1.391 . S
C3635 H3623 0.950 . S
C3635 C3631 1.393 . S
C3635 C3634 1.391 . S
H3636 C3644 0.950 . S
H3637 C3649 0.950 . S
H3638 C3646 0.950 . S
H3639 C3648 0.950 . S
H3640 C3650 0.950 . S
H3641 C3652 0.950 . S
H3642 C3654 0.950 . S
H3643 C3655 0.950 . S
C3644 H3636 0.950 . S
C3644 C3645 1.386 . S
C3644 C3646 1.391 . S
C3645 C3644 1.386 . S
C3645 C3649 1.393 . S
C3646 H3638 0.950 . S
C3646 C3644 1.391 . S
C3646 C3647 1.400 . S
C3647 C3646 1.400 . S
C3647 C3648 1.398 . S
C3647 C3653 1.491 . S
C3648 H3639 0.950 . S
C3648 C3647 1.398 . S
C3648 C3649 1.391 . S
C3649 H3637 0.950 . S
C3649 C3645 1.393 . S
C3649 C3648 1.391 . S
C3650 H3640 0.950 . S
C3650 C3651 1.386 . S
C3650 C3652 1.391 . S
C3651 C3650 1.386 . S
C3651 C3655 1.393 . S
C3652 H3641 0.950 . S
C3652 C3650 1.391 . S
C3652 C3653 1.400 . S
C3653 C3647 1.491 . S
C3653 C3652 1.400 . S
C3653 C3654 1.398 . S
C3654 H3642 0.950 . S
C3654 C3653 1.398 . S
C3654 C3655 1.391 . S
C3655 H3643 0.950 . S
C3655 C3651 1.393 . S
C3655 C3654 1.391 . S
H3656 C3664 0.950 . S
H3657 C3669 0.950 . S
H3658 C3666 0.950 . S
H3659 C3668 0.950 . S
H3660 C3670 0.950 . S
H3661 C3672 0.950 . S
H3662 C3674 0.950 . S
H3663 C3675 0.950 . S
C3664 H3656 0.950 . S
C3664 C3665 1.386 . S
C3664 C3666 1.391 . S
C3665 C3664 1.386 . S
C3665 C3669 1.393 . S
C3666 H3658 0.950 . S
C3666 C3664 1.391 . S
C3666 C3667 1.400 . S
C3667 C3666 1.400 . S
C3667 C3668 1.398 . S
C3667 C3673 1.491 . S
C3668 H3659 0.950 . S
C3668 C3667 1.398 . S
C3668 C3669 1.391 . S
C3669 H3657 0.950 . S
C3669 C3665 1.393 . S
C3669 C3668 1.391 . S
C3670 H3660 0.950 . S
C3670 C3671 1.386 . S
C3670 C3672 1.391 . S
C3671 C3670 1.386 . S
C3671 C3675 1.393 . S
C3672 H3661 0.950 . S
C3672 C3670 1.391 . S
C3672 C3673 1.400 . S
C3673 C3667 1.491 . S
C3673 C3672 1.400 . S
C3673 C3674 1.398 . S
C3674 H3662 0.950 . S
C3674 C3673 1.398 . S
C3674 C3675 1.391 . S
C3675 H3663 0.950 . S
C3675 C3671 1.393 . S
C3675 C3674 1.391 . S
H3676 C3684 0.950 . S
H3677 C3689 0.950 . S
H3678 C3686 0.950 . S
H3679 C3688 0.950 . S
H3680 C3690 0.950 . S
H3681 C3692 0.950 . S
H3682 C3694 0.950 . S
H3683 C3695 0.950 . S
C3684 H3676 0.950 . S
C3684 C3685 1.386 . S
C3684 C3686 1.391 . S
C3685 C3684 1.386 . S
C3685 C3689 1.393 . S
C3686 H3678 0.950 . S
C3686 C3684 1.391 . S
C3686 C3687 1.400 . S
C3687 C3686 1.400 . S
C3687 C3688 1.398 . S
C3687 C3693 1.491 . S
C3688 H3679 0.950 . S
C3688 C3687 1.398 . S
C3688 C3689 1.391 . S
C3689 H3677 0.950 . S
C3689 C3685 1.393 . S
C3689 C3688 1.391 . S
C3690 H3680 0.950 . S
C3690 C3691 1.386 . S
C3690 C3692 1.391 . S
C3691 C3690 1.386 . S
C3691 C3695 1.393 . S
C3692 H3681 0.950 . S
C3692 C3690 1.391 . S
C3692 C3693 1.400 . S
C3693 C3687 1.491 . S
C3693 C3692 1.400 . S
C3693 C3694 1.398 . S
C3694 H3682 0.950 . S
C3694 C3693 1.398 . S
C3694 C3695 1.391 . S
C3695 H3683 0.950 . S
C3695 C3691 1.393 . S
C3695 C3694 1.391 . S
H3696 C3704 0.950 . S
H3697 C3709 0.950 . S
H3698 C3706 0.950 . S
H3699 C3708 0.950 . S
H3700 C3710 0.950 . S
H3701 C3712 0.950 . S
H3702 C3714 0.950 . S
H3703 C3715 0.950 . S
C3704 H3696 0.950 . S
C3704 C3705 1.386 . S
C3704 C3706 1.391 . S
C3705 C3704 1.386 . S
C3705 C3709 1.393 . S
C3706 H3698 0.950 . S
C3706 C3704 1.391 . S
C3706 C3707 1.400 . S
C3707 C3706 1.400 . S
C3707 C3708 1.398 . S
C3707 C3713 1.491 . S
C3708 H3699 0.950 . S
C3708 C3707 1.398 . S
C3708 C3709 1.391 . S
C3709 H3697 0.950 . S
C3709 C3705 1.393 . S
C3709 C3708 1.391 . S
C3710 H3700 0.950 . S
C3710 C3711 1.386 . S
C3710 C3712 1.391 . S
C3711 C3710 1.386 . S
C3711 C3715 1.393 . S
C3712 H3701 0.950 . S
C3712 C3710 1.391 . S
C3712 C3713 1.400 . S
C3713 C3707 1.491 . S
C3713 C3712 1.400 . S
C3713 C3714 1.398 . S
C3714 H3702 0.950 . S
C3714 C3713 1.398 . S
C3714 C3715 1.391 . S
C3715 H3703 0.950 . S
C3715 C3711 1.393 . S
C3715 C3714 1.391 . S
H3716 C3724 0.950 . S
H3717 C3729 0.950 . S
H3718 C3726 0.950 . S
H3719 C3728 0.950 . S
H3720 C3730 0.950 . S
H3721 C3732 0.950 . S
H3722 C3734 0.950 . S
H3723 C3735 0.950 . S
C3724 H3716 0.950 . S
C3724 C3725 1.386 . S
C3724 C3726 1.391 . S
C3725 C3724 1.386 . S
C3725 C3729 1.393 . S
C3726 H3718 0.950 . S
C3726 C3724 1.391 . S
C3726 C3727 1.400 . S
C3727 C3726 1.400 . S
C3727 C3728 1.398 . S
C3727 C3733 1.491 . S
C3728 H3719 0.950 . S
C3728 C3727 1.398 . S
C3728 C3729 1.391 . S
C3729 H3717 0.950 . S
C3729 C3725 1.393 . S
C3729 C3728 1.391 . S
C3730 H3720 0.950 . S
C3730 C3731 1.386 . S
C3730 C3732 1.391 . S
C3731 C3730 1.386 . S
C3731 C3735 1.393 . S
C3732 H3721 0.950 . S
C3732 C3730 1.391 . S
C3732 C3733 1.400 . S
C3733 C3727 1.491 . S
C3733 C3732 1.400 . S
C3733 C3734 1.398 . S
C3734 H3722 0.950 . S
C3734 C3733 1.398 . S
C3734 C3735 1.391 . S
C3735 H3723 0.950 . S
C3735 C3731 1.393 . S
C3735 C3734 1.391 . S
H3736 C3744 0.950 . S
H3737 C3749 0.950 . S
H3738 C3746 0.950 . S
H3739 C3748 0.950 . S
H3740 C3750 0.950 . S
H3741 C3752 0.950 . S
H3742 C3754 0.950 . S
H3743 C3755 0.950 . S
C3744 H3736 0.950 . S
C3744 C3745 1.386 . S
C3744 C3746 1.391 . S
C3745 C3744 1.386 . S
C3745 C3749 1.393 . S
C3746 H3738 0.950 . S
C3746 C3744 1.391 . S
C3746 C3747 1.400 . S
C3747 C3746 1.400 . S
C3747 C3748 1.398 . S
C3747 C3753 1.491 . S
C3748 H3739 0.950 . S
C3748 C3747 1.398 . S
C3748 C3749 1.391 . S
C3749 H3737 0.950 . S
C3749 C3745 1.393 . S
C3749 C3748 1.391 . S
C3750 H3740 0.950 . S
C3750 C3751 1.386 . S
C3750 C3752 1.391 . S
C3751 C3750 1.386 . S
C3751 C3755 1.393 . S
C3752 H3741 0.950 . S
C3752 C3750 1.391 . S
C3752 C3753 1.400 . S
C3753 C3747 1.491 . S
C3753 C3752 1.400 . S
C3753 C3754 1.398 . S
C3754 H3742 0.950 . S
C3754 C3753 1.398 . S
C3754 C3755 1.391 . S
C3755 H3743 0.950 . S
C3755 C3751 1.393 . S
C3755 C3754 1.391 . S
H3756 C3764 0.950 . S
H3757 C3769 0.950 . S
H3758 C3766 0.950 . S
H3759 C3768 0.950 . S
H3760 C3770 0.950 . S
H3761 C3772 0.950 . S
H3762 C3774 0.950 . S
H3763 C3775 0.950 . S
C3764 H3756 0.950 . S
C3764 C3765 1.386 . S
C3764 C3766 1.391 . S
C3765 C3764 1.386 . S
C3765 C3769 1.393 . S
C3766 H3758 0.950 . S
C3766 C3764 1.391 . S
C3766 C3767 1.400 . S
C3767 C3766 1.400 . S
C3767 C3768 1.398 . S
C3767 C3773 1.491 . S
C3768 H3759 0.950 . S
C3768 C3767 1.398 . S
C3768 C3769 1.391 . S
C3769 H3757 0.950 . S
C3769 C3765 1.393 . S
C3769 C3768 1.391 . S
C3770 H3760 0.950 . S
C3770 C3771 1.386 . S
C3770 C3772 1.391 . S
C3771 C3770 1.386 . S
C3771 C3775 1.393 . S
C3772 H3761 0.950 . S
C3772 C3770 1.391 . S
C3772 C3773 1.400 . S
C3773 C3767 1.491 . S
C3773 C3772 1.400 . S
C3773 C3774 1.398 . S
C3774 H3762 0.950 . S
C3774 C3773 1.398 . S
C3774 C3775 1.391 . S
C3775 H3763 0.950 . S
C3775 C3771 1.393 . S
C3775 C3774 1.391 . S
H3776 C3784 0.950 . S
H3777 C3789 0.950 . S
H3778 C3786 0.950 . S
H3779 C3788 0.950 . S
H3780 C3790 0.950 . S
H3781 C3792 0.950 . S
H3782 C3794 0.950 . S
H3783 C3795 0.950 . S
C3784 H3776 0.950 . S
C3784 C3785 1.386 . S
C3784 C3786 1.391 . S
C3785 C3784 1.386 . S
C3785 C3789 1.393 . S
C3786 H3778 0.950 . S
C3786 C3784 1.391 . S
C3786 C3787 1.400 . S
C3787 C3786 1.400 . S
C3787 C3788 1.398 . S
C3787 C3793 1.491 . S
C3788 H3779 0.950 . S
C3788 C3787 1.398 . S
C3788 C3789 1.391 . S
C3789 H3777 0.950 . S
C3789 C3785 1.393 . S
C3789 C3788 1.391 . S
C3790 H3780 0.950 . S
C3790 C3791 1.386 . S
C3790 C3792 1.391 . S
C3791 C3790 1.386 . S
C3791 C3795 1.393 . S
C3792 H3781 0.950 . S
C3792 C3790 1.391 . S
C3792 C3793 1.400 . S
C3793 C3787 1.491 . S
C3793 C3792 1.400 . S
C3793 C3794 1.398 . S
C3794 H3782 0.950 . S
C3794 C3793 1.398 . S
C3794 C3795 1.391 . S
C3795 H3783 0.950 . S
C3795 C3791 1.393 . S
C3795 C3794 1.391 . S
H3796 C3804 0.950 . S
H3797 C3809 0.950 . S
H3798 C3806 0.950 . S
H3799 C3808 0.950 . S
H3800 C3810 0.950 . S
H3801 C3812 0.950 . S
H3802 C3814 0.950 . S
H3803 C3815 0.950 . S
C3804 H3796 0.950 . S
C3804 C3805 1.386 . S
C3804 C3806 1.391 . S
C3805 C3804 1.386 . S
C3805 C3809 1.393 . S
C3806 H3798 0.950 . S
C3806 C3804 1.391 . S
C3806 C3807 1.400 . S
C3807 C3806 1.400 . S
C3807 C3808 1.398 . S
C3807 C3813 1.491 . S
C3808 H3799 0.950 . S
C3808 C3807 1.398 . S
C3808 C3809 1.391 . S
C3809 H3797 0.950 . S
C3809 C3805 1.393 . S
C3809 C3808 1.391 . S
C3810 H3800 0.950 . S
C3810 C3811 1.386 . S
C3810 C3812 1.391 . S
C3811 C3810 1.386 . S
C3811 C3815 1.393 . S
C3812 H3801 0.950 . S
C3812 C3810 1.391 . S
C3812 C3813 1.400 . S
C3813 C3807 1.491 . S
C3813 C3812 1.400 . S
C3813 C3814 1.398 . S
C3814 H3802 0.950 . S
C3814 C3813 1.398 . S
C3814 C3815 1.391 . S
C3815 H3803 0.950 . S
C3815 C3811 1.393 . S
C3815 C3814 1.391 . S
H3816 C3824 0.950 . S
H3817 C3829 0.950 . S
H3818 C3826 0.950 . S
H3819 C3828 0.950 . S
H3820 C3830 0.950 . S
H3821 C3832 0.950 . S
H3822 C3834 0.950 . S
H3823 C3835 0.950 . S
C3824 H3816 0.950 . S
C3824 C3825 1.386 . S
C3824 C3826 1.391 . S
C3825 C3824 1.386 . S
C3825 C3829 1.393 . S
C3826 H3818 0.950 . S
C3826 C3824 1.391 . S
C3826 C3827 1.400 . S
C3827 C3826 1.400 . S
C3827 C3828 1.398 . S
C3827 C3833 1.491 . S
C3828 H3819 0.950 . S
C3828 C3827 1.398 . S
C3828 C3829 1.391 . S
C3829 H3817 0.950 . S
C3829 C3825 1.393 . S
C3829 C3828 1.391 . S
C3830 H3820 0.950 . S
C3830 C3831 1.386 . S
C3830 C3832 1.391 . S
C3831 C3830 1.386 . S
C3831 C3835 1.393 . S
C3832 H3821 0.950 . S
C3832 C3830 1.391 . S
C3832 C3833 1.400 . S
C3833 C3827 1.491 . S
C3833 C3832 1.400 . S
C3833 C3834 1.398 . S
C3834 H3822 0.950 . S
C3834 C3833 1.398 . S
C3834 C3835 1.391 . S
C3835 H3823 0.950 . S
C3835 C3831 1.393 . S
C3835 C3834 1.391 . S
H3836 C3844 0.950 . S
H3837 C3849 0.950 . S
H3838 C3846 0.950 . S
H3839 C3848 0.950 . S
H3840 C3850 0.950 . S
H3841 C3852 0.950 . S
H3842 C3854 0.950 . S
H3843 C3855 0.950 . S
C3844 H3836 0.950 . S
C3844 C3845 1.386 . S
C3844 C3846 1.391 . S
C3845 C3844 1.386 . S
C3845 C3849 1.393 . S
C3846 H3838 0.950 . S
C3846 C3844 1.391 . S
C3846 C3847 1.400 . S
C3847 C3846 1.400 . S
C3847 C3848 1.398 . S
C3847 C3853 1.491 . S
C3848 H3839 0.950 . S
C3848 C3847 1.398 . S
C3848 C3849 1.391 . S
C3849 H3837 0.950 . S
C3849 C3845 1.393 . S
C3849 C3848 1.391 . S
C3850 H3840 0.950 . S
C3850 C3851 1.386 . S
C3850 C3852 1.391 . S
C3851 C3850 1.386 . S
C3851 C3855 1.393 . S
C3852 H3841 0.950 . S
C3852 C3850 1.391 . S
C3852 C3853 1.400 . S
C3853 C3847 1.491 . S
C3853 C3852 1.400 . S
C3853 C3854 1.398 . S
C3854 H3842 0.950 . S
C3854 C3853 1.398 . S
C3854 C3855 1.391 . S
C3855 H3843 0.950 . S
C3855 C3851 1.393 . S
C3855 C3854 1.391 . S
H3856 C3864 0.950 . S
H3857 C3869 0.950 . S
H3858 C3866 0.950 . S
H3859 C3868 0.950 . S
H3860 C3870 0.950 . S
H3861 C3872 0.950 . S
H3862 C3874 0.950 . S
H3863 C3875 0.950 . S
C3864 H3856 0.950 . S
C3864 C3865 1.386 . S
C3864 C3866 1.391 . S
C3865 C3864 1.386 . S
C3865 C3869 1.393 . S
C3866 H3858 0.950 . S
C3866 C3864 1.391 . S
C3866 C3867 1.400 . S
C3867 C3866 1.400 . S
C3867 C3868 1.398 . S
C3867 C3873 1.491 . S
C3868 H3859 0.950 . S
C3868 C3867 1.398 . S
C3868 C3869 1.391 . S
C3869 H3857 0.950 . S
C3869 C3865 1.393 . S
C3869 C3868 1.391 . S
C3870 H3860 0.950 . S
C3870 C3871 1.386 . S
C3870 C3872 1.391 . S
C3871 C3870 1.386 . S
C3871 C3875 1.393 . S
C3872 H3861 0.950 . S
C3872 C3870 1.391 . S
C3872 C3873 1.400 . S
C3873 C3867 1.491 . S
C3873 C3872 1.400 . S
C3873 C3874 1.398 . S
C3874 H3862 0.950 . S
C3874 C3873 1.398 . S
C3874 C3875 1.391 . S
C3875 H3863 0.950 . S
C3875 C3871 1.393 . S
C3875 C3874 1.391 . S
H3876 C3884 0.950 . S
H3877 C3889 0.950 . S
H3878 C3886 0.950 . S
H3879 C3888 0.950 . S
H3880 C3890 0.950 . S
H3881 C3892 0.950 . S
H3882 C3894 0.950 . S
H3883 C3895 0.950 . S
C3884 H3876 0.950 . S
C3884 C3885 1.386 . S
C3884 C3886 1.391 . S
C3885 C3884 1.386 . S
C3885 C3889 1.393 . S
C3886 H3878 0.950 . S
C3886 C3884 1.391 . S
C3886 C3887 1.400 . S
C3887 C3886 1.400 . S
C3887 C3888 1.398 . S
C3887 C3893 1.491 . S
C3888 H3879 0.950 . S
C3888 C3887 1.398 . S
C3888 C3889 1.391 . S
C3889 H3877 0.950 . S
C3889 C3885 1.393 . S
C3889 C3888 1.391 . S
C3890 H3880 0.950 . S
C3890 C3891 1.386 . S
C3890 C3892 1.391 . S
C3891 C3890 1.386 . S
C3891 C3895 1.393 . S
C3892 H3881 0.950 . S
C3892 C3890 1.391 . S
C3892 C3893 1.400 . S
C3893 C3887 1.491 . S
C3893 C3892 1.400 . S
C3893 C3894 1.398 . S
C3894 H3882 0.950 . S
C3894 C3893 1.398 . S
C3894 C3895 1.391 . S
C3895 H3883 0.950 . S
C3895 C3891 1.393 . S
C3895 C3894 1.391 . S
H3896 C3904 0.950 . S
H3897 C3909 0.950 . S
H3898 C3906 0.950 . S
H3899 C3908 0.950 . S
H3900 C3910 0.950 . S
H3901 C3912 0.950 . S
H3902 C3914 0.950 . S
H3903 C3915 0.950 . S
C3904 H3896 0.950 . S
C3904 C3905 1.386 . S
C3904 C3906 1.391 . S
C3905 C3904 1.386 . S
C3905 C3909 1.393 . S
C3906 H3898 0.950 . S
C3906 C3904 1.391 . S
C3906 C3907 1.400 . S
C3907 C3906 1.400 . S
C3907 C3908 1.398 . S
C3907 C3913 1.491 . S
C3908 H3899 0.950 . S
C3908 C3907 1.398 . S
C3908 C3909 1.391 . S
C3909 H3897 0.950 . S
C3909 C3905 1.393 . S
C3909 C3908 1.391 . S
C3910 H3900 0.950 . S
C3910 C3911 1.386 . S
C3910 C3912 1.391 . S
C3911 C3910 1.386 . S
C3911 C3915 1.393 . S
C3912 H3901 0.950 . S
C3912 C3910 1.391 . S
C3912 C3913 1.400 . S
C3913 C3907 1.491 . S
C3913 C3912 1.400 . S
C3913 C3914 1.398 . S
C3914 H3902 0.950 . S
C3914 C3913 1.398 . S
C3914 C3915 1.391 . S
C3915 H3903 0.950 . S
C3915 C3911 1.393 . S
C3915 C3914 1.391 . S
H3916 C3924 0.950 . S
H3917 C3929 0.950 . S
H3918 C3926 0.950 . S
H3919 C3928 0.950 . S
H3920 C3930 0.950 . S
H3921 C3932 0.950 . S
H3922 C3934 0.950 . S
H3923 C3935 0.950 . S
C3924 H3916 0.950 . S
C3924 C3925 1.386 . S
C3924 C3926 1.391 . S
C3925 C3924 1.386 . S
C3925 C3929 1.393 . S
C3926 H3918 0.950 . S
C3926 C3924 1.391 . S
C3926 C3927 1.400 . S
C3927 C3926 1.400 . S
C3927 C3928 1.398 . S
C3927 C3933 1.491 . S
C3928 H3919 0.950 . S
C3928 C3927 1.398 . S
C3928 C3929 1.391 . S
C3929 H3917 0.950 . S
C3929 C3925 1.393 . S
C3929 C3928 1.391 . S
C3930 H3920 0.950 . S
C3930 C3931 1.386 . S
C3930 C3932 1.391 . S
C3931 C3930 1.386 . S
C3931 C3935 1.393 . S
C3932 H3921 0.950 . S
C3932 C3930 1.391 . S
C3932 C3933 1.400 . S
C3933 C3927 1.491 . S
C3933 C3932 1.400 . S
C3933 C3934 1.398 . S
C3934 H3922 0.950 . S
C3934 C3933 1.398 . S
C3934 C3935 1.391 . S
C3935 H3923 0.950 . S
C3935 C3931 1.393 . S
C3935 C3934 1.391 . S
C1065 C21 1.304 . S
C1071 C84 1.306 . S
C1085 C8 1.312 . S
C1091 C37 1.323 . S
C1105 C32 1.305 . S
C1111 C65 1.303 . S
C1125 C52 1.316 . S
C1131 C73 1.309 . S
C1145 C109 1.288 . S
C1151 C118 1.297 . S
C1165 C131 1.325 . S
C1171 C140 1.329 . S
C1185 C153 1.344 . S
C1191 C161 1.344 . S
C1205 C172 1.282 . S
C1211 C96 1.271 . S
C1225 C183 1.280 . S
C1231 C404 1.284 . S
C1245 C426 1.286 . S
C1251 C219 1.296 . S
C1265 C450 1.307 . S
C1271 C227 1.304 . S
C1285 C392 1.300 . S
C1291 C249 1.309 . S
C1305 C271 1.302 . S
C1311 C494 1.296 . S
C1325 C293 1.343 . S
C1331 C367 1.348 . S
C1345 C329 1.303 . S
C1351 C524 1.293 . S
C1365 C337 1.303 . S
C1371 C480 1.307 . S
C1385 C206 1.273 . S
C1391 C362 1.281 . S
C1405 C381 1.319 . S
C1411 C348 1.323 . S
C1425 C417 1.303 . S
C1431 C282 1.292 . S
C1445 C439 1.326 . S
C1451 C304 1.319 . S
C1465 C455 1.282 . S
C1471 C316 1.288 . S
C1485 C260 1.315 . S
C1491 C469 1.312 . S
C1505 C499 1.312 . S
C1511 C194 1.307 . S
C1525 C513 1.302 . S
C1531 C238 1.296 . S
C1545 C612 1.307 . S
C1551 C543 1.301 . S
C1565 C565 1.324 . S
C1571 C538 1.319 . S
C1585 C560 1.300 . S
C1591 C593 1.311 . S
C1605 C601 1.313 . S
C1611 C580 1.305 . S
C1625 C637 1.293 . S
C1631 C646 1.287 . S
C1645 C659 1.325 . S
C1651 C668 1.329 . S
C1665 C681 1.348 . S
C1671 C697 1.341 . S
C1685 C624 1.277 . S
C1691 C692 1.278 . S
C1705 C934 1.287 . S
C1711 C719 1.284 . S
C1725 C747 1.290 . S
C1731 C954 1.297 . S
C1745 C978 1.313 . S
C1751 C755 1.305 . S
C1765 C920 1.310 . S
C1771 C777 1.302 . S
C1785 C799 1.298 . S
C1791 C1030 1.301 . S
C1805 C821 1.347 . S
C1811 C901 1.340 . S
C1825 C1044 1.292 . S
C1831 C857 1.298 . S
C1845 C865 1.300 . S
C1851 C1000 1.301 . S
C1865 C734 1.273 . S
C1871 C888 1.281 . S
C1885 C876 1.319 . S
C1891 C909 1.324 . S
C1905 C939 1.301 . S
C1911 C810 1.299 . S
C1925 C967 1.329 . S
C1931 C832 1.319 . S
C1945 C983 1.285 . S
C1951 C844 1.287 . S
C1965 C1005 1.311 . S
C1971 C788 1.315 . S
C1985 C714 1.303 . S
C1991 C1019 1.308 . S
C2005 C1049 1.307 . S
C2011 C766 1.297 . S
C2025 C18 1.020 . S
C2031 C370 1.033 . S
C2045 C521 1.066 . S
C2051 C30 1.060 . S
C2065 C62 1.070 . S
C2071 C477 1.069 . S
C2085 C76 1.078 . S
C2091 C505 1.047 . S
C2105 C106 1.081 . S
C2111 C389 1.073 . S
C2125 C403 1.056 . S
C2131 C128 1.077 . S
C2145 C150 1.059 . S
C2151 C425 1.080 . S
C2165 C461 1.127 . S
C2171 C175 1.097 . S
C2185 C186 1.058 . S
C2191 C7 1.051 . S
C2205 C216 1.071 . S
C2211 C43 1.074 . S
C2225 C230 1.062 . S
C2231 C51 1.073 . S
C2245 C252 1.071 . S
C2251 C81 1.067 . S
C2265 C95 1.050 . S
C2271 C274 1.074 . S
C2285 C296 1.061 . S
C2291 C117 1.074 . S
C2305 C326 1.063 . S
C2311 C139 1.060 . S
C2325 C340 1.011 . S
C2331 C162 1.040 . S
C2345 C191 1.108 . S
C2351 C359 1.118 . S
C2365 C384 1.080 . S
C2371 C279 1.049 . S
C2385 C414 1.070 . S
C2391 C301 1.043 . S
C2405 C315 1.063 . S
C2411 C436 1.073 . S
C2425 C345 1.056 . S
C2431 C448 1.065 . S
C2445 C472 1.079 . S
C2451 C235 1.048 . S
C2465 C492 1.055 . S
C2471 C257 1.077 . S
C2485 C516 1.074 . S
C2491 C205 1.050 . S
C2505 C890 1.033 . S
C2511 C536 1.018 . S
C2525 C558 1.057 . S
C2531 C1055 1.077 . S
C2545 C590 1.075 . S
C2551 C1011 1.062 . S
C2565 C1027 1.060 . S
C2571 C604 1.072 . S
C2585 C917 1.067 . S
C2591 C634 1.086 . S
C2605 C656 1.080 . S
C2611 C945 1.050 . S
C2625 C953 1.080 . S
C2631 C678 1.059 . S
C2645 C989 1.105 . S
C2651 C689 1.122 . S
C2665 C549 1.041 . S
C2671 C712 1.072 . S
C2685 C571 1.073 . S
C2691 C744 1.082 . S
C2705 C579 1.050 . S
C2711 C758 1.079 . S
C2725 C609 1.064 . S
C2731 C780 1.073 . S
C2745 C623 1.055 . S
C2751 C802 1.077 . S
C2765 C645 1.053 . S
C2771 C824 1.084 . S
C2785 C667 1.065 . S
C2791 C854 1.051 . S
C2805 C868 1.024 . S
C2811 C700 1.029 . S
C2825 C895 1.106 . S
C2831 C725 1.118 . S
C2845 C912 1.067 . S
C2851 C807 1.058 . S
C2865 C932 1.061 . S
C2871 C829 1.062 . S
C2885 C964 1.056 . S
C2891 C843 1.077 . S
C2905 C976 1.068 . S
C2911 C873 1.042 . S
C2925 C998 1.062 . S
C2931 C763 1.061 . S
C2945 C1022 1.056 . S
C2951 C785 1.070 . S
C2965 C733 1.072 . S
C2971 C1042 1.056 . S
C2985 C10 0.983 . S
C2991 C986 1.009 . S
C3005 C910 0.962 . S
C3011 C40 0.985 . S
C3025 C942 0.965 . S
C3031 C54 0.993 . S
C3045 C74 0.961 . S
C3051 C956 0.995 . S
C3065 C1052 0.995 . S
C3071 C98 0.971 . S
C3085 C1008 0.982 . S
C3091 C120 0.982 . S
C3105 C1020 0.991 . S
C3111 C142 0.985 . S
C3125 C169 1.032 . S
C3131 C887 1.061 . S
C3145 C184 0.993 . S
C3151 C866 0.987 . S
C3165 C800 0.970 . S
C3171 C208 0.983 . S
C3185 C822 1.000 . S
C3191 C228 0.967 . S
C3205 C846 0.993 . S
C3211 C250 0.965 . S
C3225 C272 0.997 . S
C3231 C736 0.965 . S
C3245 C294 1.001 . S
C3251 C756 0.967 . S
C3265 C318 0.964 . S
C3271 C778 0.993 . S
C3285 C722 0.993 . S
C3291 C338 0.986 . S
C3305 C373 1.064 . S
C3311 C703 1.032 . S
C3325 C382 0.959 . S
C3331 C568 0.992 . S
C3345 C406 0.993 . S
C3351 C582 0.965 . S
C3365 C428 0.963 . S
C3371 C602 0.987 . S
C3385 C458 0.986 . S
C3391 C546 1.007 . S
C3405 C648 0.969 . S
C3411 C470 0.992 . S
C3425 C502 0.994 . S
C3431 C670 0.982 . S
C3445 C514 0.997 . S
C3451 C626 0.964 . S
C3465 C164 1.071 . S
C3471 C711 1.036 . S
C3485 C741 1.079 . S
C3491 C103 1.095 . S
C3505 C125 1.083 . S
C3511 C769 1.118 . S
C3525 C147 1.086 . S
C3531 C791 1.121 . S
C3545 C29 1.082 . S
C3551 C813 1.110 . S
C3565 C835 1.090 . S
C3571 C59 1.118 . S
C3585 C87 1.116 . S
C3591 C851 1.085 . S
C3605 C15 1.107 . S
C3611 C879 1.080 . S
C3625 C447 1.052 . S
C3631 C898 1.058 . S
C3645 C1041 1.086 . S
C3651 C395 1.106 . S
C3665 C997 1.095 . S
C3671 C411 1.109 . S
C3685 C433 1.093 . S
C3691 C1033 1.107 . S
C3705 C527 1.108 . S
C3711 C923 1.088 . S
C3725 C483 1.109 . S
C3731 C931 1.091 . S
C3745 C961 1.083 . S
C3751 C491 1.118 . S
C3765 C975 1.037 . S
C3771 C360 1.071 . S
C3785 C351 1.105 . S
C3791 C535 1.082 . S
C3805 C213 1.103 . S
C3811 C631 1.071 . S
C3825 C653 1.090 . S
C3831 C241 1.110 . S
C3845 C263 1.100 . S
C3851 C675 1.109 . S
C3865 C197 1.036 . S
C3871 C690 1.070 . S
C3885 C307 1.115 . S
C3891 C587 1.093 . S
C3905 C323 1.084 . S
C3911 C615 1.118 . S
C3925 C557 1.094 . S
C3931 C285 1.098 . S
