# Generated by pormake.
# Topology yfu, (5)-cn, num edge types: 1
# Building blocks:
#     Node 0, Type 0, BuildingBlock: XOMCOT_clean_sbu_0, # of connection points: 5
#     Node 1, Type 0, BuildingBlock: XOMCOT_clean_sbu_0, # of connection points: 5
#     Node 2, Type 0, BuildingBlock: XOMCOT_clean_sbu_0, # of connection points: 5
#     Node 3, Type 0, BuildingBlock: XOMCOT_clean_sbu_0, # of connection points: 5
#     Node 4, Type 0, BuildingBlock: XOMCOT_clean_sbu_0, # of connection points: 5
#     Node 5, Type 0, BuildingBlock: XOMCOT_clean_sbu_0, # of connection points: 5
#     Node 6, Type 0, BuildingBlock: XOMCOT_clean_sbu_0, # of connection points: 5
#     Node 7, Type 0, BuildingBlock: XOMCOT_clean_sbu_0, # of connection points: 5
#     Node 8, Type 0, BuildingBlock: XOMCOT_clean_sbu_0, # of connection points: 5
#     Node 9, Type 0, BuildingBlock: XOMCOT_clean_sbu_0, # of connection points: 5
#     Node 10, Type 0, BuildingBlock: XOMCOT_clean_sbu_0, # of connection points: 5
#     Node 11, Type 0, BuildingBlock: XOMCOT_clean_sbu_0, # of connection points: 5
#     Node 12, Type 0, BuildingBlock: XOMCOT_clean_sbu_0, # of connection points: 5
#     Node 13, Type 0, BuildingBlock: XOMCOT_clean_sbu_0, # of connection points: 5
#     Node 14, Type 0, BuildingBlock: XOMCOT_clean_sbu_0, # of connection points: 5
#     Node 15, Type 0, BuildingBlock: XOMCOT_clean_sbu_0, # of connection points: 5
#     Node 16, Type 0, BuildingBlock: XOMCOT_clean_sbu_0, # of connection points: 5
#     Node 17, Type 0, BuildingBlock: XOMCOT_clean_sbu_0, # of connection points: 5
#     Node 18, Type 0, BuildingBlock: XOMCOT_clean_sbu_0, # of connection points: 5
#     Node 19, Type 0, BuildingBlock: XOMCOT_clean_sbu_0, # of connection points: 5
#     Node 20, Type 0, BuildingBlock: XOMCOT_clean_sbu_0, # of connection points: 5
#     Node 21, Type 0, BuildingBlock: XOMCOT_clean_sbu_0, # of connection points: 5
#     Node 22, Type 0, BuildingBlock: XOMCOT_clean_sbu_0, # of connection points: 5
#     Node 23, Type 0, BuildingBlock: XOMCOT_clean_sbu_0, # of connection points: 5
#     Node 24, Type 0, BuildingBlock: XOMCOT_clean_sbu_0, # of connection points: 5
#     Node 25, Type 0, BuildingBlock: XOMCOT_clean_sbu_0, # of connection points: 5
#     Node 26, Type 0, BuildingBlock: XOMCOT_clean_sbu_0, # of connection points: 5
#     Node 27, Type 0, BuildingBlock: XOMCOT_clean_sbu_0, # of connection points: 5
#     Node 28, Type 0, BuildingBlock: XOMCOT_clean_sbu_0, # of connection points: 5
#     Node 29, Type 0, BuildingBlock: XOMCOT_clean_sbu_0, # of connection points: 5
#     Node 30, Type 0, BuildingBlock: XOMCOT_clean_sbu_0, # of connection points: 5
#     Node 31, Type 0, BuildingBlock: XOMCOT_clean_sbu_0, # of connection points: 5
#     Edge 32, Type (0, 0), BuildingBlock: XIVTED_clean_linker_0, # of connection points: 2
#     Edge 33, Type (0, 0), BuildingBlock: XIVTED_clean_linker_0, # of connection points: 2
#     Edge 34, Type (0, 0), BuildingBlock: XIVTED_clean_linker_0, # of connection points: 2
#     Edge 35, Type (0, 0), BuildingBlock: XIVTED_clean_linker_0, # of connection points: 2
#     Edge 36, Type (0, 0), BuildingBlock: XIVTED_clean_linker_0, # of connection points: 2
#     Edge 37, Type (0, 0), BuildingBlock: XIVTED_clean_linker_0, # of connection points: 2
#     Edge 38, Type (0, 0), BuildingBlock: XIVTED_clean_linker_0, # of connection points: 2
#     Edge 39, Type (0, 0), BuildingBlock: XIVTED_clean_linker_0, # of connection points: 2
#     Edge 40, Type (0, 0), BuildingBlock: XIVTED_clean_linker_0, # of connection points: 2
#     Edge 41, Type (0, 0), BuildingBlock: XIVTED_clean_linker_0, # of connection points: 2
#     Edge 42, Type (0, 0), BuildingBlock: XIVTED_clean_linker_0, # of connection points: 2
#     Edge 43, Type (0, 0), BuildingBlock: XIVTED_clean_linker_0, # of connection points: 2
#     Edge 44, Type (0, 0), BuildingBlock: XIVTED_clean_linker_0, # of connection points: 2
#     Edge 45, Type (0, 0), BuildingBlock: XIVTED_clean_linker_0, # of connection points: 2
#     Edge 46, Type (0, 0), BuildingBlock: XIVTED_clean_linker_0, # of connection points: 2
#     Edge 47, Type (0, 0), BuildingBlock: XIVTED_clean_linker_0, # of connection points: 2
#     Edge 48, Type (0, 0), BuildingBlock: XIVTED_clean_linker_0, # of connection points: 2
#     Edge 49, Type (0, 0), BuildingBlock: XIVTED_clean_linker_0, # of connection points: 2
#     Edge 50, Type (0, 0), BuildingBlock: XIVTED_clean_linker_0, # of connection points: 2
#     Edge 51, Type (0, 0), BuildingBlock: XIVTED_clean_linker_0, # of connection points: 2
#     Edge 52, Type (0, 0), BuildingBlock: XIVTED_clean_linker_0, # of connection points: 2
#     Edge 53, Type (0, 0), BuildingBlock: XIVTED_clean_linker_0, # of connection points: 2
#     Edge 54, Type (0, 0), BuildingBlock: XIVTED_clean_linker_0, # of connection points: 2
#     Edge 55, Type (0, 0), BuildingBlock: XIVTED_clean_linker_0, # of connection points: 2
#     Edge 56, Type (0, 0), BuildingBlock: XIVTED_clean_linker_0, # of connection points: 2
#     Edge 57, Type (0, 0), BuildingBlock: XIVTED_clean_linker_0, # of connection points: 2
#     Edge 58, Type (0, 0), BuildingBlock: XIVTED_clean_linker_0, # of connection points: 2
#     Edge 59, Type (0, 0), BuildingBlock: XIVTED_clean_linker_0, # of connection points: 2
#     Edge 60, Type (0, 0), BuildingBlock: XIVTED_clean_linker_0, # of connection points: 2
#     Edge 61, Type (0, 0), BuildingBlock: XIVTED_clean_linker_0, # of connection points: 2
#     Edge 62, Type (0, 0), BuildingBlock: XIVTED_clean_linker_0, # of connection points: 2
#     Edge 63, Type (0, 0), BuildingBlock: XIVTED_clean_linker_0, # of connection points: 2
#     Edge 64, Type (0, 0), BuildingBlock: XIVTED_clean_linker_0, # of connection points: 2
#     Edge 65, Type (0, 0), BuildingBlock: XIVTED_clean_linker_0, # of connection points: 2
#     Edge 66, Type (0, 0), BuildingBlock: XIVTED_clean_linker_0, # of connection points: 2
#     Edge 67, Type (0, 0), BuildingBlock: XIVTED_clean_linker_0, # of connection points: 2
#     Edge 68, Type (0, 0), BuildingBlock: XIVTED_clean_linker_0, # of connection points: 2
#     Edge 69, Type (0, 0), BuildingBlock: XIVTED_clean_linker_0, # of connection points: 2
#     Edge 70, Type (0, 0), BuildingBlock: XIVTED_clean_linker_0, # of connection points: 2
#     Edge 71, Type (0, 0), BuildingBlock: XIVTED_clean_linker_0, # of connection points: 2
#     Edge 72, Type (0, 0), BuildingBlock: XIVTED_clean_linker_0, # of connection points: 2
#     Edge 73, Type (0, 0), BuildingBlock: XIVTED_clean_linker_0, # of connection points: 2
#     Edge 74, Type (0, 0), BuildingBlock: XIVTED_clean_linker_0, # of connection points: 2
#     Edge 75, Type (0, 0), BuildingBlock: XIVTED_clean_linker_0, # of connection points: 2
#     Edge 76, Type (0, 0), BuildingBlock: XIVTED_clean_linker_0, # of connection points: 2
#     Edge 77, Type (0, 0), BuildingBlock: XIVTED_clean_linker_0, # of connection points: 2
#     Edge 78, Type (0, 0), BuildingBlock: XIVTED_clean_linker_0, # of connection points: 2
#     Edge 79, Type (0, 0), BuildingBlock: XIVTED_clean_linker_0, # of connection points: 2
#     Edge 80, Type (0, 0), BuildingBlock: XIVTED_clean_linker_0, # of connection points: 2
#     Edge 81, Type (0, 0), BuildingBlock: XIVTED_clean_linker_0, # of connection points: 2
#     Edge 82, Type (0, 0), BuildingBlock: XIVTED_clean_linker_0, # of connection points: 2
#     Edge 83, Type (0, 0), BuildingBlock: XIVTED_clean_linker_0, # of connection points: 2
#     Edge 84, Type (0, 0), BuildingBlock: XIVTED_clean_linker_0, # of connection points: 2
#     Edge 85, Type (0, 0), BuildingBlock: XIVTED_clean_linker_0, # of connection points: 2
#     Edge 86, Type (0, 0), BuildingBlock: XIVTED_clean_linker_0, # of connection points: 2
#     Edge 87, Type (0, 0), BuildingBlock: XIVTED_clean_linker_0, # of connection points: 2
#     Edge 88, Type (0, 0), BuildingBlock: XIVTED_clean_linker_0, # of connection points: 2
#     Edge 89, Type (0, 0), BuildingBlock: XIVTED_clean_linker_0, # of connection points: 2
#     Edge 90, Type (0, 0), BuildingBlock: XIVTED_clean_linker_0, # of connection points: 2
#     Edge 91, Type (0, 0), BuildingBlock: XIVTED_clean_linker_0, # of connection points: 2
#     Edge 92, Type (0, 0), BuildingBlock: XIVTED_clean_linker_0, # of connection points: 2
#     Edge 93, Type (0, 0), BuildingBlock: XIVTED_clean_linker_0, # of connection points: 2
#     Edge 94, Type (0, 0), BuildingBlock: XIVTED_clean_linker_0, # of connection points: 2
#     Edge 95, Type (0, 0), BuildingBlock: XIVTED_clean_linker_0, # of connection points: 2
#     Edge 96, Type (0, 0), BuildingBlock: XIVTED_clean_linker_0, # of connection points: 2
#     Edge 97, Type (0, 0), BuildingBlock: XIVTED_clean_linker_0, # of connection points: 2
#     Edge 98, Type (0, 0), BuildingBlock: XIVTED_clean_linker_0, # of connection points: 2
#     Edge 99, Type (0, 0), BuildingBlock: XIVTED_clean_linker_0, # of connection points: 2
#     Edge 100, Type (0, 0), BuildingBlock: XIVTED_clean_linker_0, # of connection points: 2
#     Edge 101, Type (0, 0), BuildingBlock: XIVTED_clean_linker_0, # of connection points: 2
#     Edge 102, Type (0, 0), BuildingBlock: XIVTED_clean_linker_0, # of connection points: 2
#     Edge 103, Type (0, 0), BuildingBlock: XIVTED_clean_linker_0, # of connection points: 2
#     Edge 104, Type (0, 0), BuildingBlock: XIVTED_clean_linker_0, # of connection points: 2
#     Edge 105, Type (0, 0), BuildingBlock: XIVTED_clean_linker_0, # of connection points: 2
#     Edge 106, Type (0, 0), BuildingBlock: XIVTED_clean_linker_0, # of connection points: 2
#     Edge 107, Type (0, 0), BuildingBlock: XIVTED_clean_linker_0, # of connection points: 2
#     Edge 108, Type (0, 0), BuildingBlock: XIVTED_clean_linker_0, # of connection points: 2
#     Edge 109, Type (0, 0), BuildingBlock: XIVTED_clean_linker_0, # of connection points: 2
#     Edge 110, Type (0, 0), BuildingBlock: XIVTED_clean_linker_0, # of connection points: 2
#     Edge 111, Type (0, 0), BuildingBlock: XIVTED_clean_linker_0, # of connection points: 2
# Relax obj value: 0.359
# Max RMSD: 0.246
# Mean RMSD: 0.246
data_MOF--net-yfu--node1-XOMCOT_clean_sbu_0--edge1-XIVTED_clean_linker_0
_symmetry_space_group_name_H-M    P1
_symmetry_Int_Tables_number       1
_symmetry_cell_setting            triclinic
loop_
_symmetry_equiv_pos_as_xyz
'x, y, z'
_cell_length_a     44.016158
_cell_length_b     44.019641
_cell_length_c     98.273323
_cell_angle_alpha  89.994211
_cell_angle_beta   89.995333
_cell_angle_gamma 90.005254
loop_
_atom_site_label
_atom_site_type_symbol
_atom_site_fract_x
_atom_site_fract_y
_atom_site_fract_z
_atom_type_partial_charge
Co0 Co 0.05842 0.05981 0.34834 0.0
C1 C 0.07516 0.99688 0.35615 0.0
C2 C 0.0408 0.01556 0.36911 0.0
C3 C 0.04971 0.98804 0.37438 0.0
N4 N 0.05638 0.02092 0.35753 0.0
N5 N 0.07146 0.97639 0.36625 0.0
H6 H 0.09303 0.9955 0.34868 0.0
H7 H 0.02521 0.03139 0.37381 0.0
C8 C 0.99107 0.04541 0.34941 0.0
O9 O 0.99594 0.01621 0.34774 0.0
N10 N 0.06078 0.09883 0.33959 0.0
C11 C 0.07977 0.10693 0.32948 0.0
C12 C 0.07472 0.13699 0.32637 0.0
C13 C 0.04476 0.12398 0.34266 0.0
N14 N 0.05276 0.14764 0.33468 0.0
C15 C 0.08325 0.02816 0.32528 0.0
C16 C 0.03342 0.03514 0.30847 0.0
C17 C 0.0598 0.02194 0.30317 0.0
C18 C 0.08496 0.01847 0.31174 0.0
C19 C 0.03286 0.04507 0.32195 0.0
N20 N 0.05729 0.0409 0.33036 0.0
H21 H 0.10346 0.02684 0.33145 0.0
H22 H 0.01326 0.05771 0.3252 0.0
H23 H 0.09635 0.09214 0.32479 0.0
H24 H 0.02749 0.12484 0.35049 0.0
O25 O 0.10206 0.06131 0.35146 0.0
O26 O 0.06673 0.07865 0.36554 0.0
O27 O 0.01298 0.06442 0.34926 0.0
C28 C 0.09536 0.07475 0.36289 0.0
H29 H 0.04174 0.97808 0.3838 0.0
H30 H 0.08666 0.15012 0.31875 0.0
H31 H 0.01386 0.03922 0.30203 0.0
H32 H 0.10597 0.00886 0.30795 0.0
Co33 Co 0.19058 0.8035 0.59718 0.0
C34 C 0.25048 0.82746 0.60526 0.0
C35 C 0.24646 0.78086 0.6111 0.0
C36 C 0.27384 0.79177 0.61583 0.0
N37 N 0.23198 0.80311 0.60418 0.0
N38 N 0.2761 0.82113 0.61219 0.0
H39 H 0.24486 0.84988 0.60155 0.0
H40 H 0.23731 0.75882 0.61349 0.0
C41 C 0.20136 0.73511 0.59533 0.0
O42 O 0.22424 0.73792 0.58686 0.0
N43 N 0.14952 0.80473 0.59043 0.0
C44 C 0.13911 0.82436 0.581 0.0
C45 C 0.1093 0.81756 0.57827 0.0
C46 C 0.1259 0.78653 0.59352 0.0
N47 N 0.10109 0.79381 0.58612 0.0
C48 C 0.22464 0.82045 0.57323 0.0
C49 C 0.19728 0.77894 0.55603 0.0
C50 C 0.21785 0.79991 0.55056 0.0
C51 C 0.23192 0.82061 0.55937 0.0
C52 C 0.19089 0.77936 0.56993 0.0
N53 N 0.20466 0.79976 0.57842 0.0
H54 H 0.23406 0.83793 0.57961 0.0
H55 H 0.17393 0.76385 0.5738 0.0
H56 H 0.15253 0.84201 0.57625 0.0
H57 H 0.12705 0.76791 0.60069 0.0
O58 O 0.18869 0.84753 0.59895 0.0
O59 O 0.1762 0.81424 0.61493 0.0
O60 O 0.18705 0.75827 0.59979 0.0
C61 C 0.17801 0.84243 0.61113 0.0
H62 H 0.28982 0.7797 0.62222 0.0
H63 H 0.09477 0.82914 0.57106 0.0
H64 H 0.18583 0.76258 0.54959 0.0
H65 H 0.24739 0.83769 0.55551 0.0
Co66 Co 0.44604 0.93873 0.8465 0.0
C67 C 0.41975 0.99547 0.85624 0.0
C68 C 0.46416 0.98886 0.86475 0.0
C69 C 0.4522 0.01544 0.86993 0.0
N70 N 0.44369 0.97655 0.85618 0.0
N71 N 0.42421 0.0193 0.86461 0.0
H72 H 0.39927 0.9916 0.8504 0.0
H73 H 0.48583 0.9789 0.86737 0.0
C74 C 0.51196 0.93056 0.83918 0.0
O75 O 0.50418 0.92039 0.8271 0.0
N76 N 0.44798 0.90028 0.83688 0.0
C77 C 0.43167 0.89125 0.82597 0.0
C78 C 0.43933 0.86189 0.82281 0.0
C79 C 0.4645 0.87572 0.8405 0.0
N80 N 0.46 0.85221 0.83192 0.0
C81 C 0.41671 0.96177 0.82252 0.0
C82 C 0.46691 0.99 0.81143 0.0
C83 C 0.44083 0.98652 0.80337 0.0
C84 C 0.415 0.97351 0.80934 0.0
C85 C 0.46755 0.9779 0.82458 0.0
N86 N 0.44359 0.96142 0.82945 0.0
H87 H 0.39673 0.95129 0.82682 0.0
H88 H 0.48757 0.98154 0.83067 0.0
H89 H 0.41458 0.90421 0.82075 0.0
H90 H 0.47981 0.87526 0.84912 0.0
O91 O 0.4031 0.93129 0.84994 0.0
O92 O 0.44097 0.91696 0.8633 0.0
O93 O 0.49179 0.94071 0.84734 0.0
C94 C 0.41193 0.91748 0.86098 0.0
H95 H 0.46269 0.03005 0.87744 0.0
H96 H 0.42981 0.8484 0.81465 0.0
H97 H 0.48684 0.00153 0.80754 0.0
H98 H 0.39404 0.97095 0.80369 0.0
Co99 Co 0.30909 0.19324 0.09703 0.0
C100 C 0.2472 0.17402 0.1056 0.0
C101 C 0.26499 0.20984 0.11799 0.0
C102 C 0.23817 0.20004 0.12365 0.0
N103 N 0.27045 0.19394 0.10651 0.0
N104 N 0.22708 0.1774 0.11588 0.0
H105 H 0.24623 0.15563 0.09839 0.0
H106 H 0.28038 0.22628 0.12239 0.0
C107 C 0.29271 0.25994 0.0981 0.0
O108 O 0.26372 0.25418 0.09628 0.0
N109 N 0.34797 0.19237 0.08806 0.0
C110 C 0.35625 0.17456 0.07755 0.0
C111 C 0.38601 0.1809 0.0743 0.0
C112 C 0.3727 0.20895 0.09121 0.0
N113 N 0.39628 0.20245 0.08292 0.0
C114 C 0.27606 0.16961 0.07405 0.0
C115 C 0.28591 0.21896 0.05723 0.0
C116 C 0.2716 0.19324 0.05185 0.0
C117 C 0.26649 0.16838 0.06047 0.0
C118 C 0.29526 0.21917 0.07078 0.0
N119 N 0.28981 0.19497 0.07917 0.0
H120 H 0.2741 0.14936 0.08014 0.0
H121 H 0.30885 0.23811 0.07409 0.0
H122 H 0.34174 0.15803 0.07265 0.0
H123 H 0.3733 0.22557 0.09932 0.0
O124 O 0.31173 0.14952 0.09964 0.0
O125 O 0.32858 0.18452 0.11402 0.0
O126 O 0.31239 0.23866 0.09828 0.0
C127 C 0.32533 0.15596 0.11107 0.0
H128 H 0.22834 0.20806 0.13308 0.0
H129 H 0.39923 0.17009 0.06637 0.0
H130 H 0.29152 0.23819 0.05083 0.0
H131 H 0.25598 0.14781 0.05669 0.0
Co132 Co 0.05554 0.94063 0.15751 0.0
C133 C 0.07391 0.00262 0.14902 0.0
C134 C 0.03924 0.98399 0.13621 0.0
C135 C 0.04904 0.01082 0.13057 0.0
N136 N 0.05444 0.97905 0.14792 0.0
N137 N 0.071 0.02241 0.13859 0.0
H138 H 0.09171 0.00397 0.15653 0.0
H139 H 0.02339 0.96821 0.13165 0.0
C140 C 0.9882 0.95531 0.1556 0.0
O141 O 0.99287 0.98465 0.15682 0.0
N142 N 0.05691 0.90201 0.16664 0.0
C143 C 0.0746 0.89416 0.17726 0.0
C144 C 0.06898 0.86422 0.18044 0.0
C145 C 0.04115 0.87686 0.16336 0.0
N146 N 0.04803 0.85343 0.17166 0.0
C147 C 0.07954 0.97283 0.18064 0.0
C148 C 0.02915 0.96551 0.19706 0.0
C149 C 0.05569 0.97745 0.20284 0.0
C150 C 0.08098 0.98163 0.19433 0.0
C151 C 0.02886 0.95647 0.18347 0.0
N152 N 0.05372 0.96035 0.17531 0.0
H153 H 0.09999 0.9741 0.17462 0.0
H154 H 0.00909 0.94445 0.17999 0.0
H155 H 0.09069 0.909 0.18224 0.0
H156 H 0.0249 0.87582 0.1551 0.0
O157 O 0.09934 0.93827 0.15477 0.0
O158 O 0.06425 0.92086 0.14059 0.0
O159 O 0.01015 0.93641 0.1562 0.0
C160 C 0.09283 0.92433 0.14342 0.0
H161 H 0.04156 0.02024 0.12097 0.0
H162 H 0.07993 0.85122 0.1884 0.0
H163 H 0.00886 0.962 0.20309 0.0
H164 H 0.10229 0.99004 0.19833 0.0
Co165 Co 0.30736 0.8028 0.4061 0.0
C166 C 0.24559 0.82176 0.39726 0.0
C167 C 0.26438 0.78715 0.38449 0.0
C168 C 0.23754 0.79688 0.3788 0.0
N169 N 0.26922 0.80235 0.39622 0.0
N170 N 0.22582 0.81873 0.38684 0.0
H171 H 0.24401 0.83959 0.40472 0.0
H172 H 0.28014 0.77118 0.38 0.0
C173 C 0.29104 0.7361 0.40442 0.0
O174 O 0.26193 0.74184 0.40582 0.0
N175 N 0.34572 0.80345 0.41549 0.0
C176 C 0.35343 0.82091 0.4262 0.0
C177 C 0.38309 0.81464 0.42966 0.0
C178 C 0.37068 0.78715 0.41244 0.0
N179 N 0.39386 0.79349 0.42097 0.0
C180 C 0.27288 0.82594 0.42879 0.0
C181 C 0.28158 0.77622 0.44551 0.0
C182 C 0.26647 0.80164 0.45073 0.0
C183 C 0.26183 0.82663 0.44215 0.0
C184 C 0.292 0.77636 0.43211 0.0
N185 N 0.2871 0.80074 0.42376 0.0
H186 H 0.27161 0.84644 0.42283 0.0
H187 H 0.30571 0.75744 0.42887 0.0
H188 H 0.33862 0.8372 0.43108 0.0
H189 H 0.37175 0.77088 0.40419 0.0
O190 O 0.31028 0.84659 0.40364 0.0
O191 O 0.32782 0.81176 0.38936 0.0
O192 O 0.31072 0.75738 0.40471 0.0
C193 C 0.32453 0.84029 0.39235 0.0
H194 H 0.2281 0.78935 0.36921 0.0
H195 H 0.39591 0.82527 0.43776 0.0
H196 H 0.28608 0.75659 0.45185 0.0
H197 H 0.25122 0.84716 0.44593 0.0
Co198 Co 0.44304 0.06021 0.65688 0.0
C199 C 0.42418 0.99824 0.64943 0.0
C200 C 0.4606 0.01389 0.63683 0.0
C201 C 0.45023 0.98667 0.63169 0.0
N202 N 0.44461 0.02085 0.64813 0.0
N203 N 0.4271 0.97712 0.63958 0.0
H204 H 0.40591 0.99829 0.6567 0.0
H205 H 0.47713 0.02865 0.63207 0.0
C206 C 0.51048 0.0458 0.65595 0.0
O207 O 0.50588 0.01666 0.65794 0.0
N208 N 0.44092 0.09951 0.6653 0.0
C209 C 0.42228 0.10791 0.6755 0.0
C210 C 0.42765 0.13796 0.67847 0.0
C211 C 0.45702 0.12443 0.66203 0.0
N212 N 0.4494 0.14823 0.66997 0.0
C213 C 0.41927 0.02914 0.68042 0.0
C214 C 0.4692 0.03884 0.6969 0.0
C215 C 0.44353 0.02483 0.70249 0.0
C216 C 0.41832 0.01992 0.69405 0.0
C217 C 0.46912 0.04786 0.6833 0.0
N218 N 0.44471 0.0423 0.67506 0.0
H219 H 0.39882 0.02727 0.67446 0.0
H220 H 0.48813 0.06112 0.67983 0.0
H221 H 0.40582 0.09328 0.68037 0.0
H222 H 0.47409 0.12502 0.6541 0.0
O223 O 0.39926 0.06199 0.65391 0.0
O224 O 0.43455 0.07823 0.63955 0.0
O225 O 0.48843 0.06461 0.65574 0.0
C226 C 0.40593 0.07492 0.64234 0.0
H227 H 0.4573 0.97617 0.62225 0.0
H228 H 0.4161 0.15135 0.68612 0.0
H229 H 0.48868 0.04435 0.70316 0.0
H230 H 0.39775 0.00971 0.698 0.0
Co231 Co 0.18928 0.19546 0.90735 0.0
C232 C 0.24667 0.16999 0.89788 0.0
C233 C 0.23945 0.21419 0.88926 0.0
C234 C 0.26629 0.20263 0.88418 0.0
N235 N 0.22735 0.19361 0.89784 0.0
N236 N 0.27055 0.17478 0.88957 0.0
H237 H 0.24303 0.14948 0.90374 0.0
H238 H 0.22914 0.23564 0.88655 0.0
C239 C 0.17985 0.26138 0.91437 0.0
O240 O 0.16966 0.25371 0.92646 0.0
N241 N 0.15057 0.19691 0.91678 0.0
C242 C 0.14136 0.18027 0.92757 0.0
C243 C 0.11188 0.18771 0.93062 0.0
C244 C 0.12599 0.21334 0.9131 0.0
N245 N 0.10232 0.20854 0.92156 0.0
C246 C 0.21202 0.16707 0.9316 0.0
C247 C 0.23914 0.21795 0.9426 0.0
C248 C 0.23562 0.19209 0.9508 0.0
C249 C 0.22321 0.16591 0.94487 0.0
C250 C 0.22756 0.21805 0.92935 0.0
N251 N 0.21157 0.19374 0.92451 0.0
H252 H 0.20202 0.14682 0.92733 0.0
H253 H 0.23114 0.23794 0.92317 0.0
H254 H 0.1543 0.16312 0.93275 0.0
H255 H 0.12565 0.22885 0.90456 0.0
O256 O 0.18265 0.15235 0.90407 0.0
O257 O 0.16796 0.18968 0.89048 0.0
O258 O 0.19049 0.24121 0.90634 0.0
C259 C 0.16886 0.16072 0.89295 0.0
H260 H 0.2808 0.21327 0.87667 0.0
H261 H 0.09826 0.17797 0.93869 0.0
H262 H 0.25025 0.23815 0.94645 0.0
H263 H 0.22067 0.14508 0.95063 0.0
Co264 Co 0.94832 0.93971 0.65577 0.0
C265 C 0.92882 0.0011 0.64678 0.0
C266 C 0.96345 0.98223 0.63401 0.0
C267 C 0.95329 0.00868 0.62815 0.0
N268 N 0.9485 0.97767 0.64581 0.0
N269 N 0.93136 0.02043 0.63615 0.0
H270 H 0.91122 0.00272 0.65437 0.0
H271 H 0.97949 0.96646 0.62957 0.0
C272 C 0.01501 0.9569 0.654 0.0
O273 O 0.0089 0.98603 0.65491 0.0
N274 N 0.94785 0.90151 0.66527 0.0
C275 C 0.93008 0.89367 0.67586 0.0
C276 C 0.93606 0.86391 0.67921 0.0
C277 C 0.96404 0.87652 0.66216 0.0
N278 N 0.95731 0.8532 0.67055 0.0
C279 C 0.92237 0.97191 0.67847 0.0
C280 C 0.97215 0.96651 0.6954 0.0
C281 C 0.94487 0.9774 0.70092 0.0
C282 C 0.91992 0.98071 0.69214 0.0
C283 C 0.97349 0.95752 0.68181 0.0
N284 N 0.94887 0.9603 0.67341 0.0
H285 H 0.90218 0.97237 0.67227 0.0
H286 H 0.99391 0.94633 0.67852 0.0
H287 H 0.91356 0.90832 0.68066 0.0
H288 H 0.98032 0.87547 0.65392 0.0
O289 O 0.90471 0.93586 0.65279 0.0
O290 O 0.94067 0.91882 0.63899 0.0
O291 O 0.99396 0.937 0.65478 0.0
C292 C 0.91191 0.92158 0.64162 0.0
H293 H 0.96054 0.01778 0.61845 0.0
H294 H 0.92504 0.85091 0.68715 0.0
H295 H 0.99221 0.96375 0.70166 0.0
H296 H 0.89812 0.98832 0.69592 0.0
Co297 Co 0.80649 0.19382 0.40728 0.0
C298 C 0.74669 0.1719 0.39852 0.0
C299 C 0.75959 0.21234 0.38775 0.0
C300 C 0.73242 0.20205 0.38253 0.0
N301 N 0.76838 0.19338 0.39774 0.0
N302 N 0.72442 0.17661 0.38931 0.0
H303 H 0.74804 0.15239 0.40519 0.0
H304 H 0.77254 0.23162 0.38416 0.0
C305 C 0.81857 0.25927 0.41438 0.0
O306 O 0.82944 0.25112 0.42629 0.0
N307 N 0.84534 0.19389 0.41664 0.0
C308 C 0.85391 0.1773 0.42754 0.0
C309 C 0.88378 0.18344 0.43043 0.0
C310 C 0.87063 0.20898 0.41275 0.0
N311 N 0.89422 0.2034 0.42116 0.0
C312 C 0.78269 0.16506 0.43127 0.0
C313 C 0.76029 0.21694 0.44346 0.0
C314 C 0.76244 0.19025 0.45118 0.0
C315 C 0.77229 0.16368 0.44469 0.0
C316 C 0.7706 0.21715 0.43 0.0
N317 N 0.78441 0.19215 0.42454 0.0
H318 H 0.79132 0.14458 0.42664 0.0
H319 H 0.76793 0.23771 0.42419 0.0
H320 H 0.84018 0.16109 0.43293 0.0
H321 H 0.87153 0.22417 0.40409 0.0
O322 O 0.81196 0.15065 0.40364 0.0
O323 O 0.82747 0.1882 0.39035 0.0
O324 O 0.80645 0.23961 0.40651 0.0
C325 C 0.82593 0.15919 0.39259 0.0
H326 H 0.71987 0.21214 0.3742 0.0
H327 H 0.89702 0.17342 0.43856 0.0
H328 H 0.75123 0.2376 0.44786 0.0
H329 H 0.77363 0.14234 0.45015 0.0
Co330 Co 0.55252 0.06046 0.15699 0.0
C331 C 0.57388 -7e-05 0.14756 0.0
C332 C 0.53813 0.01795 0.13517 0.0
C333 C 0.54908 0.99216 0.12903 0.0
N334 N 0.55326 0.02262 0.14692 0.0
N335 N 0.5717 0.98096 0.13678 0.0
H336 H 0.59188 0.99874 0.15497 0.0
H337 H 0.5215 0.03333 0.13091 0.0
C338 C 0.48635 0.04225 0.15499 0.0
O339 O 0.49293 0.0133 0.15631 0.0
N340 N 0.55196 0.09865 0.16654 0.0
C341 C 0.56894 0.10658 0.17737 0.0
C342 C 0.56213 0.13613 0.18081 0.0
C343 C 0.5354 0.12341 0.16339 0.0
N344 N 0.54113 0.14665 0.17198 0.0
C345 C 0.5768 0.02734 0.1798 0.0
C346 C 0.52653 0.03423 0.19633 0.0
C347 C 0.55323 0.02248 0.20203 0.0
C348 C 0.57842 0.0184 0.19346 0.0
C349 C 0.52605 0.04337 0.18277 0.0
N350 N 0.55087 0.03977 0.17456 0.0
H351 H 0.59723 0.0264 0.17377 0.0
H352 H 0.50623 0.05546 0.17936 0.0
H353 H 0.58539 0.09207 0.18232 0.0
H354 H 0.5195 0.12431 0.155 0.0
O355 O 0.59623 0.06455 0.15469 0.0
O356 O 0.5612 0.0815 0.14036 0.0
O357 O 0.50702 0.06258 0.15545 0.0
C358 C 0.58977 0.07877 0.14342 0.0
H359 H 0.54189 0.98321 0.1193 0.0
H360 H 0.5724 0.1491 0.18896 0.0
H361 H 0.50634 0.03765 0.20244 0.0
H362 H 0.59982 0.01012 0.19742 0.0
Co363 Co 0.69186 0.79935 0.90425 0.0
C364 C 0.75364 0.8193 0.89616 0.0
C365 C 0.73724 0.78277 0.8838 0.0
C366 C 0.76396 0.79321 0.87827 0.0
N367 N 0.73097 0.79874 0.89518 0.0
N368 N 0.77416 0.81633 0.88602 0.0
H369 H 0.75375 0.8379 0.90328 0.0
H370 H 0.72237 0.76595 0.87933 0.0
C371 C 0.70812 0.73232 0.90339 0.0
O372 O 0.7372 0.73772 0.90514 0.0
N373 N 0.65266 0.80035 0.91288 0.0
C374 C 0.64393 0.81888 0.92306 0.0
C375 C 0.61427 0.81229 0.92636 0.0
C376 C 0.62828 0.7831 0.90995 0.0
N377 N 0.60453 0.78986 0.91808 0.0
C378 C 0.72298 0.82413 0.92759 0.0
C379 C 0.71266 0.77502 0.94449 0.0
C380 C 0.7253 0.80139 0.95009 0.0
C381 C 0.73099 0.82601 0.94138 0.0
C382 C 0.70486 0.77415 0.93075 0.0
N383 N 0.71026 0.79834 0.92235 0.0
H384 H 0.72502 0.84427 0.92142 0.0
H385 H 0.69241 0.75459 0.92728 0.0
H386 H 0.65809 0.83601 0.92774 0.0
H387 H 0.62807 0.76575 0.90214 0.0
O388 O 0.68877 0.84299 0.90121 0.0
O389 O 0.67309 0.80713 0.887 0.0
O390 O 0.68872 0.75385 0.90323 0.0
C391 C 0.67573 0.83584 0.88972 0.0
H392 H 0.77423 0.78535 0.86891 0.0
H393 H 0.60078 0.82344 0.93409 0.0
H394 H 0.70775 0.75541 0.95077 0.0
H395 H 0.73992 0.84719 0.9453 0.0
Co396 Co 0.93989 0.05938 0.84619 0.0
C397 C 0.92206 0.9974 0.85504 0.0
C398 C 0.95646 0.01681 0.86777 0.0
C399 C 0.94707 0.98995 0.87352 0.0
N400 N 0.94118 0.02129 0.85604 0.0
N401 N 0.92527 0.97785 0.86555 0.0
H402 H 0.90437 0.99556 0.8475 0.0
H403 H 0.97221 0.03284 0.87222 0.0
C404 C 0.00729 0.04456 0.84787 0.0
O405 O 0.00253 0.01516 0.84709 0.0
N406 N 0.93833 0.09766 0.83679 0.0
C407 C 0.92053 0.10519 0.82616 0.0
C408 C 0.926 0.13508 0.82283 0.0
C409 C 0.95399 0.12295 0.83993 0.0
N410 N 0.94694 0.14616 0.83154 0.0
C411 C 0.9146 0.02646 0.82351 0.0
C412 C 0.96504 0.03078 0.80688 0.0
C413 C 0.93843 0.01805 0.8016 0.0
C414 C 0.91294 0.0159 0.81008 0.0
C415 C 0.96554 0.04164 0.82021 0.0
N416 N 0.94077 0.0389 0.82853 0.0
H417 H 0.89425 0.02608 0.82963 0.0
H418 H 0.98546 0.0539 0.82336 0.0
H419 H 0.90444 0.09018 0.82127 0.0
H420 H 0.97026 0.12426 0.84817 0.0
O421 O 0.89621 0.06214 0.84937 0.0
O422 O 0.93215 0.07982 0.86304 0.0
O423 O 0.98536 0.06345 0.84706 0.0
C424 C 0.90342 0.07638 0.86056 0.0
H425 H 0.9548 0.98076 0.88313 0.0
H426 H 0.91493 0.14787 0.81484 0.0
H427 H 0.9849 0.03386 0.80051 0.0
H428 H 0.89176 0.00666 0.80629 0.0
Co429 Co 0.69356 0.1939 0.59711 0.0
C430 C 0.7533 0.17201 0.60599 0.0
C431 C 0.74059 0.21285 0.6165 0.0
C432 C 0.76763 0.2025 0.62184 0.0
N433 N 0.73175 0.19367 0.60659 0.0
N434 N 0.7755 0.17681 0.61522 0.0
H435 H 0.75185 0.15229 0.59945 0.0
H436 H 0.72771 0.23227 0.61997 0.0
C437 C 0.68148 0.25937 0.58982 0.0
O438 O 0.6705 0.25107 0.57796 0.0
N439 N 0.65463 0.19371 0.5878 0.0
C440 C 0.646 0.17645 0.57713 0.0
C441 C 0.61616 0.18253 0.57414 0.0
C442 C 0.62939 0.20914 0.59149 0.0
N443 N 0.60579 0.20315 0.58313 0.0
C444 C 0.71734 0.16459 0.57329 0.0
C445 C 0.73854 0.21617 0.56046 0.0
C446 C 0.73631 0.18914 0.55293 0.0
C447 C 0.72723 0.16274 0.55982 0.0
C448 C 0.72877 0.21682 0.57401 0.0
N449 N 0.71545 0.19193 0.57979 0.0
H450 H 0.70931 0.14415 0.57817 0.0
H451 H 0.73132 0.23769 0.57961 0.0
H452 H 0.6597 0.15981 0.57198 0.0
H453 H 0.62855 0.22487 0.59995 0.0
O454 O 0.6883 0.1508 0.60084 0.0
O455 O 0.67268 0.18835 0.61409 0.0
O456 O 0.69353 0.23975 0.59774 0.0
C457 C 0.67437 0.15932 0.61189 0.0
H458 H 0.78014 0.21272 0.63014 0.0
H459 H 0.60291 0.17208 0.56614 0.0
H460 H 0.74647 0.23703 0.55584 0.0
H461 H 0.7268 0.14092 0.55474 0.0
Co462 Co 0.55223 0.94092 0.34701 0.0
C463 C 0.57107 0.00227 0.35629 0.0
C464 C 0.53738 0.98237 0.36925 0.0
C465 C 0.54732 0.00885 0.37517 0.0
N466 N 0.55191 0.97843 0.35729 0.0
N467 N 0.56863 0.02125 0.36703 0.0
H468 H 0.58829 0.00448 0.34855 0.0
H469 H 0.52176 0.96622 0.37371 0.0
C470 C 0.48553 0.95759 0.3491 0.0
O471 O 0.49142 0.9868 0.34854 0.0
N472 N 0.5528 0.90314 0.33716 0.0
C473 C 0.57037 0.89592 0.32641 0.0
C474 C 0.56438 0.86632 0.32277 0.0
C475 C 0.53674 0.87793 0.34006 0.0
N476 N 0.54334 0.85508 0.33139 0.0
C477 C 0.57774 0.97438 0.32464 0.0
C478 C 0.52732 0.97118 0.30796 0.0
C479 C 0.55428 0.98325 0.30272 0.0
C480 C 0.5797 0.98498 0.31125 0.0
C481 C 0.52649 0.96028 0.32128 0.0
N482 N 0.55133 0.96235 0.3296 0.0
H483 H 0.59811 0.97422 0.33073 0.0
H484 H 0.50632 0.94838 0.3244 0.0
H485 H 0.58671 0.91089 0.32168 0.0
H486 H 0.52058 0.8764 0.34834 0.0
O487 O 0.59586 0.93738 0.34979 0.0
O488 O 0.5603 0.91935 0.36357 0.0
O489 O 0.50669 0.93787 0.34808 0.0
C490 C 0.58898 0.92261 0.36087 0.0
H491 H 0.54035 0.01756 0.38498 0.0
H492 H 0.57525 0.8538 0.31463 0.0
H493 H 0.50747 0.96851 0.30155 0.0
H494 H 0.60112 0.99373 0.30749 0.0
Co495 Co 0.80802 0.80546 0.09503 0.0
C496 C 0.74911 0.82952 0.10413 0.0
C497 C 0.76017 0.78762 0.11416 0.0
C498 C 0.73368 0.79878 0.11967 0.0
N499 N 0.76973 0.80693 0.10443 0.0
N500 N 0.72684 0.82517 0.11338 0.0
H501 H 0.75132 0.84953 0.0978 0.0
H502 H 0.77226 0.76754 0.11743 0.0
C503 C 0.81824 0.73958 0.08804 0.0
O504 O 0.82938 0.74731 0.07613 0.0
N505 N 0.84715 0.80414 0.08588 0.0
C506 C 0.8566 0.82013 0.07495 0.0
C507 C 0.88639 0.81299 0.0723 0.0
C508 C 0.87182 0.78834 0.09001 0.0
N509 N 0.89589 0.79296 0.08174 0.0
C510 C 0.7859 0.83485 0.07094 0.0
C511 C 0.76079 0.78423 0.05877 0.0
C512 C 0.76411 0.81086 0.05105 0.0
C513 C 0.77548 0.8368 0.05755 0.0
C514 C 0.77153 0.78335 0.07218 0.0
N515 N 0.78641 0.80771 0.07766 0.0
H516 H 0.79531 0.85497 0.07558 0.0
H517 H 0.76828 0.7628 0.07794 0.0
H518 H 0.84355 0.83657 0.06936 0.0
H519 H 0.87192 0.77335 0.09874 0.0
O520 O 0.8144 0.84846 0.09856 0.0
O521 O 0.82878 0.81087 0.11207 0.0
O522 O 0.80672 0.75968 0.09587 0.0
C523 C 0.82783 0.83988 0.10972 0.0
H524 H 0.72086 0.78862 0.1279 0.0
H525 H 0.90021 0.82238 0.06422 0.0
H526 H 0.75114 0.76386 0.05437 0.0
H527 H 0.77708 0.8583 0.05224 0.0
Co528 Co 0.55244 0.55593 0.84629 0.0
C529 C 0.57265 0.49492 0.85452 0.0
C530 C 0.5356 0.51026 0.86682 0.0
C531 C 0.5462 0.4833 0.87214 0.0
N532 N 0.55178 0.51717 0.85556 0.0
N533 N 0.56965 0.47398 0.86442 0.0
H534 H 0.59129 0.49513 0.84741 0.0
H535 H 0.51863 0.52483 0.87139 0.0
C536 C 0.48567 0.53913 0.84717 0.0
O537 O 0.4916 0.51016 0.84543 0.0
N538 N 0.55367 0.59473 0.83736 0.0
C539 C 0.57246 0.60289 0.82718 0.0
C540 C 0.5673 0.63291 0.82411 0.0
C541 C 0.53765 0.6198 0.84051 0.0
N542 N 0.5455 0.64347 0.83252 0.0
C543 C 0.57845 0.52463 0.82339 0.0
C544 C 0.52845 0.52941 0.80654 0.0
C545 C 0.55522 0.51683 0.80135 0.0
C546 C 0.58049 0.5145 0.80993 0.0
C547 C 0.52755 0.53979 0.81994 0.0
N548 N 0.55206 0.53663 0.82839 0.0
H549 H 0.59876 0.52438 0.82951 0.0
H550 H 0.50759 0.55201 0.82309 0.0
H551 H 0.58915 0.58825 0.82249 0.0
H552 H 0.52071 0.62065 0.84848 0.0
O553 O 0.59599 0.55905 0.84944 0.0
O554 O 0.56007 0.57541 0.86343 0.0
O555 O 0.50685 0.55896 0.84714 0.0
C556 C 0.58884 0.57256 0.8608 0.0
H557 H 0.53907 0.47284 0.88159 0.0
H558 H 0.57923 0.64615 0.81652 0.0
H559 H 0.50879 0.53269 0.80007 0.0
H560 H 0.60182 0.50549 0.8062 0.0
Co561 Co 0.68921 0.30593 0.0978 0.0
C562 C 0.75066 0.32645 0.10638 0.0
C563 C 0.73251 0.29195 0.11943 0.0
C564 C 0.7591 0.30241 0.12504 0.0
N565 N 0.72743 0.30659 0.10759 0.0
N566 N 0.77042 0.32428 0.11687 0.0
H567 H 0.75188 0.34387 0.09869 0.0
H568 H 0.71705 0.27586 0.12404 0.0
C569 C 0.70673 0.23948 0.10012 0.0
O570 O 0.73584 0.24549 0.09894 0.0
N571 N 0.65076 0.30553 0.08845 0.0
C572 C 0.64262 0.3229 0.07777 0.0
C573 C 0.61329 0.31564 0.07417 0.0
C574 C 0.62632 0.28828 0.09135 0.0
N575 N 0.6031 0.29394 0.08273 0.0
C576 C 0.7213 0.32999 0.07464 0.0
C577 C 0.71506 0.27901 0.0585 0.0
C578 C 0.72639 0.30566 0.05257 0.0
C579 C 0.73009 0.33124 0.06094 0.0
C580 C 0.70604 0.2789 0.07208 0.0
N581 N 0.70937 0.30405 0.0801 0.0
H582 H 0.72205 0.35064 0.08053 0.0
H583 H 0.69435 0.259 0.07565 0.0
H584 H 0.6569 0.33979 0.073 0.0
H585 H 0.62566 0.2718 0.09952 0.0
O586 O 0.68537 0.34969 0.10011 0.0
O587 O 0.66874 0.31472 0.11455 0.0
O588 O 0.68679 0.26048 0.09944 0.0
C589 C 0.67147 0.34327 0.11147 0.0
H590 H 0.76865 0.2953 0.13467 0.0
H591 H 0.60026 0.32595 0.06605 0.0
H592 H 0.71193 0.25853 0.05256 0.0
H593 H 0.73803 0.35261 0.05681 0.0
Co594 Co 0.94602 0.44134 0.34557 0.0
C595 C 0.92107 0.50003 0.35446 0.0
C596 C 0.96332 0.48994 0.36441 0.0
C597 C 0.95185 0.51644 0.36979 0.0
N598 N 0.94399 0.47977 0.35483 0.0
N599 N 0.92526 0.52268 0.36354 0.0
H600 H 0.90103 0.49734 0.3482 0.0
H601 H 0.98369 0.47829 0.36766 0.0
C602 C 0.0117 0.43277 0.33788 0.0
O603 O 0.00364 0.42137 0.32606 0.0
N604 N 0.94791 0.40209 0.33654 0.0
C605 C 0.93154 0.39203 0.32583 0.0
C606 C 0.9396 0.36255 0.32307 0.0
C607 C 0.96484 0.37799 0.34046 0.0
N608 N 0.96058 0.3538 0.33223 0.0
C609 C 0.91498 0.46213 0.32158 0.0
C610 C 0.96424 0.4894 0.30922 0.0
C611 C 0.93754 0.48528 0.30163 0.0
C612 C 0.91226 0.47267 0.30822 0.0
C613 C 0.96592 0.47845 0.32257 0.0
N614 N 0.9423 0.46259 0.32815 0.0
H615 H 0.89535 0.452 0.32635 0.0
H616 H 0.98649 0.48243 0.32823 0.0
H617 H 0.91428 0.40445 0.32046 0.0
H618 H 0.98041 0.37842 0.34898 0.0
O619 O 0.90342 0.43377 0.34964 0.0
O620 O 0.94228 0.42087 0.36275 0.0
O621 O 0.99174 0.44393 0.34588 0.0
C622 C 0.91312 0.42098 0.36078 0.0
H623 H 0.96198 0.52973 0.37787 0.0
H624 H 0.93024 0.3484 0.3151 0.0
H625 H 0.98412 0.49994 0.30476 0.0
H626 H 0.89069 0.47038 0.30303 0.0
Co627 Co 0.80793 0.6946 0.59651 0.0
C628 C 0.74646 0.67504 0.60447 0.0
C629 C 0.76225 0.71153 0.61701 0.0
C630 C 0.73497 0.70133 0.62216 0.0
N631 N 0.76908 0.69548 0.6057 0.0
N632 N 0.72534 0.67824 0.61429 0.0
H633 H 0.74641 0.65666 0.59723 0.0
H634 H 0.77701 0.72816 0.62169 0.0
C635 C 0.79251 0.76194 0.59782 0.0
O636 O 0.76328 0.75704 0.59632 0.0
N637 N 0.8468 0.6932 0.58763 0.0
C638 C 0.85496 0.675 0.57724 0.0
C639 C 0.88499 0.68039 0.57421 0.0
C640 C 0.87186 0.70905 0.59096 0.0
N641 N 0.89551 0.7017 0.58287 0.0
C642 C 0.77695 0.66895 0.57345 0.0
C643 C 0.78143 0.71936 0.55682 0.0
C644 C 0.76924 0.69256 0.55147 0.0
C645 C 0.76703 0.6671 0.55995 0.0
C646 C 0.79164 0.72008 0.57026 0.0
N647 N 0.78873 0.69531 0.57857 0.0
H648 H 0.77668 0.64855 0.57951 0.0
H649 H 0.8035 0.74014 0.57353 0.0
H650 H 0.8403 0.65864 0.57233 0.0
H651 H 0.87269 0.72563 0.59908 0.0
O652 O 0.81076 0.65097 0.59961 0.0
O653 O 0.82722 0.68674 0.61365 0.0
O654 O 0.81161 0.74012 0.59747 0.0
C655 C 0.82429 0.65802 0.61098 0.0
H656 H 0.72439 0.70853 0.63157 0.0
H657 H 0.89824 0.66904 0.56645 0.0
H658 H 0.78454 0.73921 0.55045 0.0
H659 H 0.75823 0.64578 0.55611 0.0
Co660 Co 0.55097 0.44142 0.65513 0.0
C661 C 0.57229 0.50253 0.64768 0.0
C662 C 0.5355 0.48832 0.63495 0.0
C663 C 0.54663 0.51543 0.63 0.0
N664 N 0.55118 0.48061 0.64624 0.0
N665 N 0.56992 0.52405 0.63799 0.0
H666 H 0.59056 0.50175 0.65497 0.0
H667 H 0.51846 0.47425 0.63013 0.0
C668 C 0.48407 0.45885 0.65411 0.0
O669 O 0.48968 0.48799 0.65549 0.0
N670 N 0.55138 0.4023 0.66379 0.0
C671 C 0.57033 0.39328 0.67376 0.0
C672 C 0.56325 0.36389 0.67725 0.0
C673 C 0.53336 0.37832 0.66115 0.0
N674 N 0.54008 0.35459 0.6693 0.0
C675 C 0.57765 0.47045 0.67854 0.0
C676 C 0.52736 0.46524 0.69518 0.0
C677 C 0.55465 0.47555 0.70088 0.0
C678 C 0.57993 0.47862 0.69228 0.0
C679 C 0.5262 0.45688 0.68152 0.0
N680 N 0.55097 0.45986 0.67323 0.0
H681 H 0.59802 0.47069 0.67245 0.0
H682 H 0.50569 0.44612 0.67808 0.0
H683 H 0.58816 0.40702 0.67814 0.0
H684 H 0.51557 0.37835 0.65354 0.0
O685 O 0.59444 0.43727 0.65183 0.0
O686 O 0.55784 0.42252 0.63782 0.0
O687 O 0.50539 0.43922 0.6543 0.0
C688 C 0.58669 0.42438 0.64039 0.0
H689 H 0.53991 0.52653 0.62065 0.0
H690 H 0.57462 0.35021 0.68486 0.0
H691 H 0.50711 0.46255 0.70132 0.0
H692 H 0.60176 0.48568 0.69625 0.0
Co693 Co 0.80731 0.30434 0.90698 0.0
C694 C 0.74566 0.32371 0.89916 0.0
C695 C 0.76159 0.28747 0.88651 0.0
C696 C 0.73419 0.2975 0.88144 0.0
N697 N 0.76842 0.30349 0.89783 0.0
N698 N 0.72447 0.32044 0.88938 0.0
H699 H 0.7455 0.34201 0.90644 0.0
H700 H 0.7764 0.27094 0.88179 0.0
C701 C 0.79081 0.2375 0.90596 0.0
O702 O 0.76185 0.24329 0.90786 0.0
N703 N 0.84621 0.30569 0.91581 0.0
C704 C 0.85456 0.32455 0.92593 0.0
C705 C 0.88454 0.31916 0.929 0.0
C706 C 0.87113 0.28941 0.91269 0.0
N707 N 0.89489 0.29715 0.92065 0.0
C708 C 0.7765 0.33018 0.93004 0.0
C709 C 0.78175 0.28018 0.94686 0.0
C710 C 0.76954 0.30704 0.95216 0.0
C711 C 0.7669 0.33227 0.94357 0.0
C712 C 0.7916 0.27923 0.93337 0.0
N713 N 0.78828 0.30378 0.92496 0.0
H714 H 0.77603 0.35048 0.92391 0.0
H715 H 0.80357 0.25921 0.93012 0.0
H716 H 0.84004 0.34138 0.9306 0.0
H717 H 0.8718 0.27229 0.9048 0.0
O718 O 0.81014 0.34793 0.90387 0.0
O719 O 0.82654 0.31221 0.8898 0.0
O720 O 0.81056 0.25876 0.90604 0.0
C721 C 0.8236 0.34094 0.89248 0.0
H722 H 0.72357 0.29029 0.87204 0.0
H723 H 0.89789 0.33103 0.93658 0.0
H724 H 0.78521 0.26052 0.95331 0.0
H725 H 0.75809 0.35363 0.94735 0.0
Co726 Co 0.94847 0.5595 0.15519 0.0
C727 C 0.92766 0.49831 0.14658 0.0
C728 C 0.96341 0.51541 0.13395 0.0
C729 C 0.95264 0.48898 0.12826 0.0
N730 N 0.94812 0.52105 0.14557 0.0
N731 N 0.93003 0.47833 0.13619 0.0
H732 H 0.90965 0.49766 0.15399 0.0
H733 H 0.98012 0.53044 0.12949 0.0
C734 C 0.0148 0.54093 0.15412 0.0
O735 O 0.00818 0.51196 0.15529 0.0
N736 N 0.94841 0.59806 0.1644 0.0
C737 C 0.92989 0.60647 0.17464 0.0
C738 C 0.93703 0.63572 0.17837 0.0
C739 C 0.96624 0.62227 0.16187 0.0
N740 N 0.95982 0.64557 0.17032 0.0
C741 C 0.92191 0.52803 0.17807 0.0
C742 C 0.97118 0.53498 0.1952 0.0
C743 C 0.94411 0.52342 0.20059 0.0
C744 C 0.9194 0.51936 0.19175 0.0
C745 C 0.97269 0.54345 0.18155 0.0
N746 N 0.94837 0.53979 0.17303 0.0
H747 H 0.90179 0.52733 0.17181 0.0
H748 H 0.99292 0.55505 0.17829 0.0
H749 H 0.91228 0.59242 0.17902 0.0
H750 H 0.98364 0.62271 0.15409 0.0
O751 O 0.90502 0.56412 0.15191 0.0
O752 O 0.94182 0.57971 0.13818 0.0
O753 O 0.99409 0.56122 0.15442 0.0
C754 C 0.91295 0.57764 0.14064 0.0
H755 H 0.96001 0.47913 0.11873 0.0
H756 H 0.9259 0.64893 0.18621 0.0
H757 H 0.99088 0.5386 0.2016 0.0
H758 H 0.89775 0.51126 0.19553 0.0
Co759 Co 0.68799 0.69481 0.40604 0.0
C760 C 0.74893 0.67459 0.39674 0.0
C761 C 0.73036 0.70982 0.38422 0.0
C762 C 0.7564 0.69923 0.37815 0.0
N763 N 0.72587 0.69476 0.396 0.0
N764 N 0.76795 0.67693 0.38599 0.0
H765 H 0.75039 0.65674 0.40422 0.0
H766 H 0.71472 0.72614 0.37989 0.0
C767 C 0.70521 0.76138 0.40417 0.0
O768 O 0.73435 0.75536 0.40516 0.0
N769 N 0.64983 0.69463 0.41561 0.0
C770 C 0.64208 0.67702 0.42627 0.0
C771 C 0.61267 0.68377 0.42994 0.0
C772 C 0.62511 0.71152 0.4128 0.0
N773 N 0.60207 0.70539 0.42145 0.0
C774 C 0.72098 0.66996 0.42878 0.0
C775 C 0.71483 0.72016 0.44541 0.0
C776 C 0.72654 0.69335 0.45102 0.0
C777 C 0.7302 0.66817 0.44241 0.0
C778 C 0.70541 0.72081 0.43189 0.0
N779 N 0.70868 0.69604 0.42362 0.0
H780 H 0.7217 0.64958 0.4227 0.0
H781 H 0.69347 0.74077 0.42856 0.0
H782 H 0.65665 0.66025 0.43095 0.0
H783 H 0.6241 0.72802 0.40465 0.0
O784 O 0.68426 0.65112 0.40336 0.0
O785 O 0.66707 0.68666 0.38934 0.0
O786 O 0.68532 0.74032 0.40479 0.0
C787 C 0.67008 0.658 0.39212 0.0
H788 H 0.7653 0.7064 0.3684 0.0
H789 H 0.59987 0.67312 0.43805 0.0
H790 H 0.71172 0.74035 0.45155 0.0
H791 H 0.73844 0.6467 0.4463 0.0
Co792 Co 0.44335 0.44094 0.15571 0.0
C793 C 0.42411 0.50251 0.1467 0.0
C794 C 0.45736 0.48278 0.13346 0.0
C795 C 0.44768 0.50967 0.12781 0.0
N796 N 0.44295 0.47848 0.14542 0.0
N797 N 0.42666 0.52199 0.13613 0.0
H798 H 0.40723 0.50472 0.15457 0.0
H799 H 0.47295 0.46677 0.12888 0.0
C800 C 0.50948 0.45941 0.15381 0.0
O801 O 0.5027 0.48842 0.15447 0.0
N802 N 0.44353 0.40314 0.16558 0.0
C803 C 0.42588 0.39559 0.17625 0.0
C804 C 0.43263 0.36627 0.18006 0.0
C805 C 0.46044 0.37834 0.16289 0.0
N806 N 0.45428 0.35547 0.17163 0.0
C807 C 0.41681 0.4739 0.17796 0.0
C808 C 0.46712 0.47213 0.19475 0.0
C809 C 0.43988 0.48384 0.19986 0.0
C810 C 0.41451 0.48481 0.19128 0.0
C811 C 0.46831 0.46095 0.18149 0.0
N812 N 0.44354 0.46239 0.1731 0.0
H813 H 0.39651 0.47318 0.17183 0.0
H814 H 0.48873 0.44938 0.17846 0.0
H815 H 0.40899 0.41018 0.18084 0.0
H816 H 0.47689 0.37713 0.15472 0.0
O817 O 0.39986 0.43646 0.15282 0.0
O818 O 0.43598 0.41919 0.13913 0.0
O819 O 0.48894 0.43904 0.15474 0.0
C820 C 0.4072 0.42188 0.14175 0.0
H821 H 0.45482 0.51885 0.11811 0.0
H822 H 0.42188 0.35361 0.18819 0.0
H823 H 0.48694 0.46996 0.20122 0.0
H824 H 0.39288 0.49325 0.19494 0.0
Co825 Co 0.31084 0.6887 0.90711 0.0
C826 C 0.25036 0.66732 0.89842 0.0
C827 C 0.26174 0.70922 0.88867 0.0
C828 C 0.23477 0.69879 0.88327 0.0
N829 N 0.27108 0.68993 0.89853 0.0
N830 N 0.22792 0.67231 0.88937 0.0
H831 H 0.25272 0.64634 0.90398 0.0
H832 H 0.27465 0.72833 0.8849 0.0
C833 C 0.29736 0.75657 0.90735 0.0
O834 O 0.2687 0.75266 0.91063 0.0
N835 N 0.35048 0.68687 0.91531 0.0
C836 C 0.35919 0.66844 0.92553 0.0
C837 C 0.38909 0.67448 0.92856 0.0
C838 C 0.37511 0.70352 0.91209 0.0
N839 N 0.399 0.69648 0.92009 0.0
C840 C 0.27666 0.66714 0.93028 0.0
C841 C 0.29286 0.71405 0.94752 0.0
C842 C 0.27503 0.69033 0.95263 0.0
C843 C 0.26672 0.66675 0.94381 0.0
C844 C 0.30198 0.71375 0.93392 0.0
N845 N 0.29337 0.69084 0.92534 0.0
H846 H 0.27228 0.64753 0.92407 0.0
H847 H 0.31739 0.73126 0.93057 0.0
H848 H 0.34473 0.65189 0.93045 0.0
H849 H 0.37537 0.72072 0.90422 0.0
O850 O 0.3127 0.64489 0.90439 0.0
O851 O 0.32836 0.67988 0.88974 0.0
O852 O 0.31528 0.73405 0.90588 0.0
C853 C 0.32529 0.65132 0.89271 0.0
H854 H 0.22255 0.70853 0.87476 0.0
H855 H 0.4026 0.66335 0.9363 0.0
H856 H 0.30018 0.7325 0.95404 0.0
H857 H 0.25382 0.64746 0.94748 0.0
Co858 Co 0.05327 0.55749 0.65564 0.0
C859 C 0.07469 0.49655 0.64763 0.0
C860 C 0.03733 0.51104 0.6353 0.0
C861 C 0.04821 0.48406 0.63014 0.0
N862 N 0.05344 0.51848 0.64651 0.0
N863 N 0.07185 0.47524 0.63787 0.0
H864 H 0.09333 0.49717 0.65473 0.0
H865 H 0.02017 0.52524 0.63065 0.0
C866 C 0.98625 0.54146 0.65382 0.0
O867 O 0.99142 0.51249 0.65603 0.0
N868 N 0.05371 0.59646 0.66449 0.0
C869 C 0.0718 0.60466 0.67492 0.0
C870 C 0.0652 0.63414 0.67843 0.0
C871 C 0.03665 0.62104 0.66163 0.0
N872 N 0.04315 0.64437 0.67007 0.0
C873 C 0.07619 0.52603 0.67919 0.0
C874 C 0.02559 0.53491 0.69532 0.0
C875 C 0.05171 0.52245 0.70127 0.0
C876 C 0.07711 0.51758 0.69292 0.0
C877 C 0.02579 0.54347 0.68166 0.0
N878 N 0.0507 0.53866 0.67362 0.0
H879 H 0.09686 0.52445 0.67337 0.0
H880 H 0.00643 0.5559 0.67797 0.0
H881 H 0.08871 0.59024 0.6796 0.0
H882 H 0.01969 0.62171 0.65367 0.0
O883 O 0.09708 0.56038 0.65353 0.0
O884 O 0.06298 0.57657 0.63859 0.0
O885 O 0.00786 0.5608 0.6538 0.0
C886 C 0.09135 0.57371 0.64196 0.0
H887 H 0.04102 0.47316 0.6208 0.0
H888 H 0.07613 0.64723 0.68636 0.0
H889 H 0.00531 0.53914 0.70126 0.0
H890 H 0.09817 0.50893 0.69709 0.0
Co891 Co 0.18986 0.30108 0.40542 0.0
C892 C 0.2499 0.32404 0.39701 0.0
C893 C 0.23729 0.28459 0.38561 0.0
C894 C 0.26387 0.29602 0.38024 0.0
N895 N 0.22896 0.30174 0.39638 0.0
N896 N 0.27148 0.32096 0.38739 0.0
H897 H 0.24835 0.34347 0.40364 0.0
H898 H 0.22397 0.26622 0.38139 0.0
C899 C 0.2095 0.23503 0.40573 0.0
O900 O 0.23815 0.24216 0.40767 0.0
N901 N 0.15075 0.30104 0.41413 0.0
C902 C 0.1417 0.31987 0.42414 0.0
C903 C 0.11202 0.31335 0.42732 0.0
C904 C 0.12647 0.28361 0.41118 0.0
N905 N 0.10249 0.29062 0.41916 0.0
C906 C 0.22037 0.32905 0.42823 0.0
C907 C 0.21665 0.27946 0.44539 0.0
C908 C 0.22948 0.30634 0.45031 0.0
C909 C 0.23105 0.33151 0.44161 0.0
C910 C 0.20568 0.27818 0.4321 0.0
N911 N 0.20861 0.30236 0.42345 0.0
H912 H 0.22018 0.34914 0.42196 0.0
H913 H 0.19336 0.25811 0.42918 0.0
H914 H 0.15558 0.33742 0.42868 0.0
H915 H 0.12642 0.26618 0.40341 0.0
O916 O 0.18477 0.34426 0.4017 0.0
O917 O 0.17071 0.30664 0.38808 0.0
O918 O 0.18893 0.25543 0.40511 0.0
C919 C 0.17218 0.33565 0.39031 0.0
H920 H 0.27529 0.28815 0.37114 0.0
H921 H 0.09827 0.32492 0.43485 0.0
H922 H 0.21378 0.25993 0.45198 0.0
H923 H 0.24006 0.35298 0.44518 0.0
Co924 Co 0.4441 0.55964 0.34602 0.0
C925 C 0.42256 0.49825 0.35339 0.0
C926 C 0.45918 0.51268 0.36619 0.0
C927 C 0.44834 0.48541 0.37105 0.0
N928 N 0.4435 0.52036 0.35489 0.0
N929 N 0.42517 0.47661 0.36303 0.0
H930 H 0.40438 0.49885 0.34606 0.0
H931 H 0.47609 0.52682 0.37105 0.0
C932 C 0.5107 0.54204 0.34758 0.0
O933 O 0.50482 0.51317 0.34548 0.0
N934 N 0.44419 0.59895 0.33745 0.0
C935 C 0.42606 0.608 0.32718 0.0
C936 C 0.43316 0.63754 0.32394 0.0
C937 C 0.46176 0.62307 0.34048 0.0
N938 N 0.45555 0.64695 0.33231 0.0
C939 C 0.41948 0.52997 0.32237 0.0
C940 C 0.47014 0.5373 0.30612 0.0
C941 C 0.44342 0.52614 0.3002 0.0
C942 C 0.41798 0.52202 0.3086 0.0
C943 C 0.47053 0.54541 0.31982 0.0
N944 N 0.44557 0.54137 0.32791 0.0
H945 H 0.39889 0.52899 0.32829 0.0
H946 H 0.49048 0.55688 0.3235 0.0
H947 H 0.40877 0.59416 0.32243 0.0
H948 H 0.47886 0.62304 0.34839 0.0
O949 O 0.40039 0.56325 0.34856 0.0
O950 O 0.43556 0.57833 0.36322 0.0
O951 O 0.4896 0.56193 0.34755 0.0
C952 C 0.40696 0.57607 0.36015 0.0
H953 H 0.45526 0.47421 0.38036 0.0
H954 H 0.4223 0.65123 0.31619 0.0
H955 H 0.49046 0.54088 0.30012 0.0
H956 H 0.39651 0.51435 0.30446 0.0
Co957 Co 0.19071 0.69592 0.09783 0.0
C958 C 0.25314 0.67779 0.10592 0.0
C959 C 0.23513 0.71285 0.11867 0.0
C960 C 0.26234 0.70333 0.12409 0.0
N961 N 0.22957 0.69723 0.10712 0.0
N962 N 0.27356 0.68119 0.11606 0.0
H963 H 0.25416 0.65959 0.09863 0.0
H964 H 0.2196 0.72887 0.12328 0.0
C965 C 0.20619 0.76278 0.09894 0.0
O966 O 0.23516 0.75725 0.09693 0.0
N967 N 0.15171 0.69423 0.08899 0.0
C968 C 0.14372 0.67541 0.0788 0.0
C969 C 0.11395 0.68107 0.0754 0.0
C970 C 0.12675 0.71078 0.09182 0.0
N971 N 0.10334 0.70326 0.0836 0.0
C972 C 0.22381 0.67308 0.07464 0.0
C973 C 0.2113 0.72171 0.05776 0.0
C974 C 0.22618 0.69638 0.05234 0.0
C975 C 0.23294 0.67204 0.061 0.0
C976 C 0.20291 0.72198 0.07145 0.0
N977 N 0.20949 0.69807 0.07984 0.0
H978 H 0.22635 0.65284 0.0807 0.0
H979 H 0.18913 0.74067 0.07489 0.0
H980 H 0.15848 0.65867 0.07421 0.0
H981 H 0.12587 0.72812 0.09962 0.0
O982 O 0.18884 0.65213 0.10045 0.0
O983 O 0.17172 0.68684 0.1149 0.0
O984 O 0.18668 0.74133 0.09914 0.0
C985 C 0.17532 0.65833 0.11193 0.0
H986 H 0.27233 0.71113 0.13352 0.0
H987 H 0.10097 0.66942 0.06764 0.0
H988 H 0.20519 0.74079 0.05136 0.0
H989 H 0.24349 0.65161 0.05708 0.0
Co990 Co 0.04879 0.4399 0.84667 0.0
C991 C 0.0712 0.50057 0.85444 0.0
C992 C 0.0345 0.48637 0.86724 0.0
C993 C 0.04612 0.51314 0.87233 0.0
N994 N 0.0498 0.47886 0.85583 0.0
N995 N 0.06937 0.52179 0.86431 0.0
H996 H 0.08917 0.49991 0.84701 0.0
H997 H 0.01733 0.47239 0.87202 0.0
C998 C 0.98211 0.4585 0.84787 0.0
O999 O 0.98817 0.48764 0.84701 0.0
N1000 N 0.0484 0.40098 0.83777 0.0
C1001 C 0.06702 0.39189 0.82768 0.0
C1002 C 0.05945 0.36267 0.8241 0.0
C1003 C 0.03008 0.37717 0.84036 0.0
N1004 N 0.03628 0.35349 0.83209 0.0
C1005 C 0.07684 0.469 0.82363 0.0
C1006 C 0.02632 0.46827 0.80696 0.0
C1007 C 0.05392 0.47862 0.80165 0.0
C1008 C 0.07944 0.47894 0.81016 0.0
C1009 C 0.02482 0.45802 0.82037 0.0
N1010 N 0.04967 0.45907 0.82872 0.0
H1011 H 0.09715 0.46784 0.82974 0.0
H1012 H 0.00392 0.44764 0.82358 0.0
H1013 H 0.08501 0.40544 0.8233 0.0
H1014 H 0.01248 0.37727 0.84806 0.0
O1015 O 0.09207 0.43478 0.85015 0.0
O1016 O 0.05486 0.42032 0.86389 0.0
O1017 O 0.00314 0.43859 0.8473 0.0
C1018 C 0.0838 0.42188 0.86151 0.0
H1019 H 0.03964 0.52403 0.88177 0.0
H1020 H 0.07054 0.349 0.81641 0.0
H1021 H 0.00632 0.4666 0.80057 0.0
H1022 H 0.10135 0.48628 0.80636 0.0
Co1023 Co 0.31013 0.30223 0.59616 0.0
C1024 C 0.24913 0.32423 0.60376 0.0
C1025 C 0.26277 0.28658 0.61611 0.0
C1026 C 0.23578 0.29778 0.62114 0.0
N1027 N 0.27075 0.3027 0.60497 0.0
N1028 N 0.22751 0.32161 0.61341 0.0
H1029 H 0.25019 0.34293 0.5967 0.0
H1030 H 0.2766 0.2692 0.6208 0.0
C1031 C 0.29267 0.23553 0.59743 0.0
O1032 O 0.26387 0.24145 0.59515 0.0
N1033 N 0.34954 0.3023 0.5877 0.0
C1034 C 0.35865 0.3204 0.57743 0.0
C1035 C 0.38853 0.314 0.57454 0.0
C1036 C 0.37395 0.28546 0.59108 0.0
N1037 N 0.39809 0.29209 0.58314 0.0
C1038 C 0.28019 0.3271 0.57265 0.0
C1039 C 0.28739 0.27688 0.55613 0.0
C1040 C 0.27555 0.30357 0.55042 0.0
C1041 C 0.27165 0.32881 0.55896 0.0
C1042 C 0.29604 0.27628 0.56979 0.0
N1043 N 0.29195 0.30099 0.57802 0.0
H1044 H 0.27923 0.34757 0.57864 0.0
H1045 H 0.30774 0.25636 0.57335 0.0
H1046 H 0.34467 0.3373 0.57249 0.0
H1047 H 0.37396 0.26864 0.59912 0.0
O1048 O 0.31361 0.34589 0.59876 0.0
O1049 O 0.32867 0.31073 0.61343 0.0
O1050 O 0.31253 0.25666 0.59758 0.0
C1051 C 0.32634 0.33934 0.61037 0.0
H1052 H 0.22453 0.29067 0.63041 0.0
H1053 H 0.40233 0.32505 0.56688 0.0
H1054 H 0.2909 0.25672 0.55002 0.0
H1055 H 0.26359 0.35028 0.55499 0.0
H1056 H 0.23857 0.19202 0.39035 0.0
H1057 H 0.08848 0.09048 0.38937 0.0
H1058 H 0.15879 0.2071 0.41488 0.0
H1059 H 0.15463 0.08951 0.35699 0.0
H1060 H 0.12254 0.12194 0.40289 0.0
H1061 H 0.2161 0.14417 0.38213 0.0
C1062 C 0.21679 0.18473 0.39432 0.0
C1063 C 0.2003 0.20344 0.4032 0.0
C1064 C 0.12989 0.11449 0.39292 0.0
C1065 C 0.17465 0.14929 0.39391 0.0
C1066 C 0.11046 0.09649 0.3852 0.0
C1067 C 0.11855 0.08792 0.37195 0.0
C1068 C 0.15749 0.12438 0.3873 0.0
C1069 C 0.14748 0.09591 0.36713 0.0
C1070 C 0.20391 0.15764 0.38956 0.0
C1071 C 0.17206 0.19334 0.40794 0.0
N1072 N 0.16576 0.11426 0.37471 0.0
N1073 N 0.16003 0.16709 0.40316 0.0
H1074 H 0.04211 0.90558 0.66317 0.0
H1075 H 0.16109 0.9003 0.60368 0.0
H1076 H 0.05765 0.98345 0.63749 0.0
H1077 H 0.16242 0.83869 0.63781 0.0
H1078 H 0.12721 0.93403 0.61658 0.0
H1079 H 0.08928 0.88315 0.65495 0.0
C1080 C 0.05585 0.91819 0.65596 0.0
C1081 C 0.04604 0.94631 0.65096 0.0
C1082 C 0.13552 0.91346 0.62134 0.0
C1083 C 0.09974 0.92044 0.64117 0.0
C1084 C 0.15494 0.89428 0.614 0.0
C1085 C 0.16415 0.86644 0.61961 0.0
C1086 C 0.12518 0.90448 0.63428 0.0
C1087 C 0.15546 0.8597 0.63301 0.0
C1088 C 0.08281 0.90541 0.65126 0.0
C1089 C 0.06461 0.96174 0.64163 0.0
N1090 N 0.13609 0.87829 0.63978 0.0
N1091 N 0.09033 0.9483 0.6368 0.0
H1092 H 0.35234 0.77874 0.91434 0.0
H1093 H 0.35114 0.90537 0.85706 0.0
H1094 H 0.27069 0.80228 0.89256 0.0
H1095 H 0.42468 0.89171 0.88544 0.0
H1096 H 0.31917 0.87165 0.87093 0.0
H1097 H 0.37708 0.82386 0.90525 0.0
C1098 C 0.33945 0.79389 0.90783 0.0
C1099 C 0.30952 0.7869 0.90417 0.0
C1100 C 0.34215 0.87647 0.87422 0.0
C1101 C 0.33796 0.8382 0.89331 0.0
C1102 C 0.36039 0.89569 0.86631 0.0
C1103 C 0.39074 0.90098 0.87001 0.0
C1104 C 0.3545 0.86243 0.88583 0.0
C1105 C 0.40156 0.88795 0.88209 0.0
C1106 C 0.35358 0.81962 0.9026 0.0
C1107 C 0.29378 0.80712 0.89568 0.0
N1108 N 0.3836 0.86907 0.88946 0.0
N1109 N 0.30841 0.83164 0.8903 0.0
H1110 H 0.33986 0.09686 0.10469 0.0
H1111 H 0.45818 0.09217 0.1648 0.0
H1112 H 0.34314 0.16234 0.13731 0.0
H1113 H 0.44447 0.01563 0.13815 0.0
H1114 H 0.41109 0.11453 0.15654 0.0
H1115 H 0.37264 0.06301 0.11809 0.0
C1116 C 0.34687 0.10377 0.11479 0.0
C1117 C 0.33932 0.13263 0.11982 0.0
C1118 C 0.41791 0.09257 0.15263 0.0
C1119 C 0.37681 0.09439 0.13508 0.0
C1120 C 0.44481 0.07982 0.15737 0.0
C1121 C 0.45515 0.05219 0.15207 0.0
C1122 C 0.40163 0.07802 0.1422 0.0
C1123 C 0.43708 0.037 0.14249 0.0
C1124 C 0.36562 0.08451 0.12242 0.0
C1125 C 0.34893 0.14052 0.13294 0.0
N1126 N 0.41142 0.05045 0.13761 0.0
N1127 N 0.36749 0.12172 0.14002 0.0
H1128 H 0.154 0.78896 0.09044 0.0
H1129 H 0.15194 0.90919 0.14967 0.0
H1130 H 0.23344 0.80593 0.11493 0.0
H1131 H 0.086 0.90655 0.11723 0.0
H1132 H 0.18517 0.8758 0.13622 0.0
H1133 H 0.13138 0.83574 0.09893 0.0
C1134 C 0.16688 0.80296 0.09744 0.0
C1135 C 0.1955 0.79368 0.10204 0.0
C1136 C 0.16371 0.88312 0.13194 0.0
C1137 C 0.16945 0.84688 0.11218 0.0
C1138 C 0.14482 0.90222 0.1396 0.0
C1139 C 0.116 0.91014 0.13464 0.0
C1140 C 0.15348 0.87191 0.11934 0.0
C1141 C 0.10781 0.9005 0.12154 0.0
C1142 C 0.154 0.82969 0.10231 0.0
C1143 C 0.21132 0.81252 0.11112 0.0
N1144 N 0.12622 0.88158 0.11445 0.0
N1145 N 0.1978 0.83801 0.11614 0.0
H1146 H 0.45895 0.90654 0.33942 0.0
H1147 H 0.33839 0.89955 0.39887 0.0
H1148 H 0.44273 0.98284 0.36593 0.0
H1149 H 0.34441 0.83388 0.36641 0.0
H1150 H 0.37159 0.9337 0.38581 0.0
H1151 H 0.41253 0.88281 0.34769 0.0
C1152 C 0.4452 0.91853 0.34683 0.0
C1153 C 0.45466 0.94655 0.35207 0.0
C1154 C 0.36511 0.91206 0.38144 0.0
C1155 C 0.40182 0.91915 0.36193 0.0
C1156 C 0.34612 0.89263 0.38888 0.0
C1157 C 0.33912 0.86368 0.3838 0.0
C1158 C 0.37712 0.90228 0.36892 0.0
C1159 C 0.3497 0.8558 0.37082 0.0
C1160 C 0.41868 0.90499 0.35157 0.0
C1161 C 0.43606 0.96121 0.36163 0.0
N1162 N 0.36845 0.87477 0.36393 0.0
N1163 N 0.41076 0.94704 0.36649 0.0
H1164 H 0.41285 0.08991 0.61579 0.0
H1165 H 0.26347 0.19287 0.61303 0.0
H1166 H 0.34709 0.09162 0.64832 0.0
H1167 H 0.34541 0.20859 0.59005 0.0
H1168 H 0.28604 0.14582 0.62214 0.0
H1169 H 0.37978 0.12239 0.60226 0.0
C1170 C 0.39114 0.0967 0.62 0.0
C1171 C 0.3829 0.08853 0.63328 0.0
C1172 C 0.29873 0.1593 0.61488 0.0
C1173 C 0.34508 0.12614 0.6179 0.0
C1174 C 0.28582 0.18594 0.60962 0.0
C1175 C 0.30276 0.20456 0.60086 0.0
C1176 C 0.32845 0.15121 0.61111 0.0
C1177 C 0.33173 0.19491 0.59686 0.0
C1178 C 0.3723 0.11532 0.61228 0.0
C1179 C 0.35432 0.09761 0.63814 0.0
N1180 N 0.34369 0.16901 0.60206 0.0
N1181 N 0.33657 0.11645 0.63053 0.0
H1182 H 0.15689 0.10014 0.89741 0.0
H1183 H 0.03088 0.0984 0.83971 0.0
H1184 H 0.1432 0.17232 0.86834 0.0
H1185 H 0.05204 0.01908 0.86364 0.0
H1186 H 0.07625 0.12325 0.84848 0.0
H1187 H 0.12304 0.06759 0.88391 0.0
C1188 C 0.1472 0.10895 0.88808 0.0
C1189 C 0.15251 0.1391 0.88408 0.0
C1190 C 0.07139 0.10022 0.85169 0.0
C1191 C 0.11376 0.10221 0.86869 0.0
C1192 C 0.04548 0.08602 0.84665 0.0
C1193 C 0.03768 0.05675 0.85103 0.0
C1194 C 0.08938 0.08536 0.86144 0.0
C1195 C 0.05738 0.04166 0.86 0.0
C1196 C 0.12787 0.09039 0.88039 0.0
C1197 C 0.13943 0.14936 0.87191 0.0
N1198 N 0.08209 0.05637 0.86513 0.0
N1199 N 0.12044 0.1311 0.86475 0.0
H1200 H 0.7657 0.80636 0.61333 0.0
H1201 H 0.92043 0.90134 0.61585 0.0
H1202 H 0.84641 0.7862 0.59016 0.0
H1203 H 0.8522 0.90738 0.64725 0.0
H1204 H 0.88677 0.86881 0.60267 0.0
H1205 H 0.79073 0.85233 0.62221 0.0
C1206 C 0.78833 0.81208 0.60984 0.0
C1207 C 0.80416 0.79249 0.60108 0.0
C1208 C 0.87893 0.8775 0.61237 0.0
C1209 C 0.83273 0.84458 0.61114 0.0
C1210 C 0.89814 0.89613 0.6199 0.0
C1211 C 0.88928 0.90665 0.63277 0.0
C1212 C 0.85065 0.86901 0.61775 0.0
C1213 C 0.85996 0.89954 0.63741 0.0
C1214 C 0.80265 0.8381 0.61498 0.0
C1215 C 0.83353 0.80063 0.59698 0.0
N1216 N 0.84178 0.88071 0.62998 0.0
N1217 N 0.8469 0.82592 0.60209 0.0
H1218 H 0.94522 0.01705 0.36347 0.0
H1219 H 0.84902 0.17086 0.36752 0.0
H1220 H 0.96784 0.10054 0.34285 0.0
H1221 H 0.84037 0.09916 0.39722 0.0
H1222 H 0.88352 0.13909 0.35441 0.0
H1223 H 0.8984 0.04103 0.372 0.0
C1224 C 0.93994 0.04013 0.36047 0.0
C1225 C 0.96042 0.05697 0.35255 0.0
C1226 C 0.87383 0.13009 0.3637 0.0
C1227 C 0.90731 0.08434 0.36219 0.0
C1228 C 0.85405 0.1482 0.37119 0.0
C1229 C 0.84219 0.1378 0.38359 0.0
C1230 C 0.88205 0.10134 0.36865 0.0
C1231 C 0.84921 0.1081 0.38775 0.0
C1232 C 0.91341 0.05383 0.36541 0.0
C1233 C 0.95275 0.08687 0.34905 0.0
N1234 N 0.86909 0.09099 0.38038 0.0
N1235 N 0.92693 0.09962 0.35395 0.0
H1236 H 0.64899 0.09264 0.14994 0.0
H1237 H 0.65644 0.21229 0.09013 0.0
H1238 H 0.58322 0.09887 0.11752 0.0
H1239 H 0.73207 0.19716 0.11715 0.0
H1240 H 0.63286 0.1658 0.09838 0.0
H1241 H 0.68328 0.12556 0.13682 0.0
C1242 C 0.64206 0.1004 0.13995 0.0
C1243 C 0.61305 0.09353 0.13489 0.0
C1244 C 0.65487 0.17219 0.10239 0.0
C1245 C 0.65184 0.13113 0.11994 0.0
C1246 C 0.66833 0.19873 0.09764 0.0
C1247 C 0.69608 0.20851 0.10304 0.0
C1248 C 0.66883 0.15567 0.11291 0.0
C1249 C 0.71064 0.1902 0.11273 0.0
C1250 C 0.66158 0.1192 0.13248 0.0
C1251 C 0.60517 0.10408 0.12191 0.0
N1252 N 0.69652 0.16489 0.11759 0.0
N1253 N 0.62425 0.12263 0.11498 0.0
H1254 H 0.65384 0.8924 0.89624 0.0
H1255 H 0.55855 0.89906 0.82716 0.0
H1256 H 0.66408 0.82991 0.86276 0.0
H1257 H 0.53663 0.95106 0.86309 0.0
H1258 H 0.60605 0.88334 0.8379 0.0
H1259 H 0.61993 0.92351 0.88209 0.0
C1260 C 0.64961 0.8857 0.8858 0.0
C1261 C 0.66137 0.8584 0.88069 0.0
C1262 C 0.59107 0.89859 0.84335 0.0
C1263 C 0.6226 0.8935 0.86456 0.0
C1264 C 0.56396 0.90769 0.83719 0.0
C1265 C 0.54326 0.92595 0.84432 0.0
C1266 C 0.59751 0.90777 0.85675 0.0
C1267 C 0.55165 0.93654 0.85729 0.0
C1268 C 0.63012 0.90331 0.87776 0.0
C1269 C 0.65509 0.85061 0.86714 0.0
N1270 N 0.57791 0.92695 0.86316 0.0
N1271 N 0.63588 0.86786 0.8596 0.0
H1272 H 0.91168 0.09281 0.88683 0.0
H1273 H 0.7616 0.19457 0.89053 0.0
H1274 H 0.84431 0.09299 0.85495 0.0
H1275 H 0.84412 0.21105 0.91299 0.0
H1276 H 0.7843 0.14777 0.88127 0.0
H1277 H 0.87913 0.12559 0.90044 0.0
C1278 C 0.88974 0.09938 0.88278 0.0
C1279 C 0.88087 0.09064 0.86965 0.0
C1280 C 0.79711 0.16138 0.88844 0.0
C1281 C 0.84361 0.12858 0.88515 0.0
C1282 C 0.78413 0.18787 0.89379 0.0
C1283 C 0.80116 0.20664 0.90246 0.0
C1284 C 0.82702 0.15357 0.89201 0.0
C1285 C 0.83035 0.19726 0.90626 0.0
C1286 C 0.8712 0.11816 0.89056 0.0
C1287 C 0.85203 0.09943 0.865 0.0
N1288 N 0.84239 0.1715 0.90096 0.0
N1289 N 0.83454 0.11843 0.87267 0.0
H1290 H 0.66233 0.09872 0.60759 0.0
H1291 H 0.53347 0.10013 0.66364 0.0
H1292 H 0.64938 0.17113 0.63661 0.0
H1293 H 0.55634 0.01899 0.64132 0.0
H1294 H 0.57977 0.1241 0.65539 0.0
H1295 H 0.62792 0.06666 0.62104 0.0
C1296 C 0.65274 0.10765 0.61692 0.0
C1297 C 0.65832 0.13777 0.62089 0.0
C1298 C 0.57509 0.10087 0.65243 0.0
C1299 C 0.61891 0.10147 0.6362 0.0
C1300 C 0.54863 0.08719 0.65716 0.0
C1301 C 0.5411 0.05766 0.65307 0.0
C1302 C 0.59387 0.08521 0.64324 0.0
C1303 C 0.56149 0.04181 0.64471 0.0
C1304 C 0.63309 0.08937 0.62458 0.0
C1305 C 0.64536 0.1482 0.63306 0.0
N1306 N 0.58675 0.05602 0.63983 0.0
N1307 N 0.62601 0.13024 0.64017 0.0
H1308 H 0.65449 0.7881 0.41401 0.0
H1309 H 0.64868 0.90964 0.35487 0.0
H1310 H 0.73084 0.8043 0.38752 0.0
H1311 H 0.5813 0.90141 0.38654 0.0
H1312 H 0.68263 0.87656 0.36808 0.0
H1313 H 0.63093 0.83468 0.40586 0.0
C1314 C 0.66653 0.8019 0.40664 0.0
C1315 C 0.69449 0.79239 0.40135 0.0
C1316 C 0.66064 0.88251 0.37224 0.0
C1317 C 0.66728 0.84536 0.3916 0.0
C1318 C 0.64131 0.90142 0.36472 0.0
C1319 C 0.61198 0.90777 0.36952 0.0
C1320 C 0.65037 0.86998 0.38458 0.0
C1321 C 0.60353 0.89662 0.38233 0.0
C1322 C 0.65308 0.8285 0.40195 0.0
C1323 C 0.70925 0.81103 0.39185 0.0
N1324 N 0.62245 0.878 0.38932 0.0
N1325 N 0.69515 0.8364 0.38703 0.0
H1326 H 0.96459 0.90139 0.16357 0.0
H1327 H 0.83949 0.9006 0.1056 0.0
H1328 H 0.94351 0.98119 0.13994 0.0
H1329 H 0.8528 0.82789 0.13444 0.0
H1330 H 0.87283 0.93303 0.11939 0.0
H1331 H 0.91921 0.87675 0.15472 0.0
C1332 C 0.95 0.91391 0.15668 0.0
C1333 C 0.95782 0.94324 0.1524 0.0
C1334 C 0.86801 0.91014 0.1228 0.0
C1335 C 0.90614 0.91489 0.14188 0.0
C1336 C 0.84899 0.89164 0.11495 0.0
C1337 C 0.84376 0.86138 0.11879 0.0
C1338 C 0.88191 0.89814 0.13451 0.0
C1339 C 0.85654 0.85094 0.13099 0.0
C1340 C 0.92408 0.89983 0.15159 0.0
C1341 C 0.93815 0.95854 0.1435 0.0
N1342 N 0.87526 0.86915 0.13831 0.0
N1343 N 0.91344 0.94394 0.13831 0.0
H1344 H 0.7352 0.68748 0.88823 0.0
H1345 H 0.58055 0.59251 0.88666 0.0
H1346 H 0.65505 0.70767 0.91177 0.0
H1347 H 0.6487 0.58571 0.85526 0.0
H1348 H 0.61464 0.62462 0.89985 0.0
H1349 H 0.71044 0.64084 0.87993 0.0
C1350 C 0.71278 0.68162 0.89194 0.0
C1351 C 0.69696 0.70141 0.90059 0.0
C1352 C 0.62238 0.61581 0.89016 0.0
C1353 C 0.6687 0.64859 0.8912 0.0
C1354 C 0.60292 0.59743 0.88263 0.0
C1355 C 0.61163 0.5869 0.86974 0.0
C1356 C 0.65071 0.62405 0.88474 0.0
C1357 C 0.64105 0.59361 0.86511 0.0
C1358 C 0.69861 0.6552 0.88713 0.0
C1359 C 0.66787 0.69308 0.905 0.0
N1360 N 0.65943 0.61223 0.87251 0.0
N1361 N 0.65462 0.66744 0.90019 0.0
H1362 H 0.65433 0.33728 0.13781 0.0
H1363 H 0.55182 0.48691 0.13744 0.0
H1364 H 0.65515 0.40176 0.10475 0.0
H1365 H 0.53735 0.40852 0.16295 0.0
H1366 H 0.59908 0.46367 0.129 0.0
H1367 H 0.62173 0.37133 0.15075 0.0
C1368 C 0.64798 0.35888 0.13335 0.0
C1369 C 0.65696 0.36651 0.1201 0.0
C1370 C 0.58583 0.45193 0.13666 0.0
C1371 C 0.61921 0.40548 0.13481 0.0
C1372 C 0.55906 0.46524 0.14154 0.0
C1373 C 0.54068 0.44941 0.1508 0.0
C1374 C 0.59425 0.42289 0.14126 0.0
C1375 C 0.55079 0.4213 0.1557 0.0
C1376 C 0.62932 0.3783 0.14075 0.0
C1377 C 0.64848 0.39497 0.11491 0.0
N1378 N 0.57675 0.40887 0.15081 0.0
N1379 N 0.62956 0.41329 0.1222 0.0
H1380 H 0.8557 0.3032 0.42508 0.0
H1381 H 0.85492 0.40077 0.35641 0.0
H1382 H 0.79596 0.2853 0.39117 0.0
H1383 H 0.92542 0.40446 0.38686 0.0
H1384 H 0.82545 0.36717 0.37137 0.0
H1385 H 0.87326 0.34922 0.41362 0.0
C1386 C 0.84579 0.30924 0.41536 0.0
C1387 C 0.82469 0.29006 0.40898 0.0
C1388 C 0.84717 0.37574 0.37484 0.0
C1389 C 0.84495 0.34257 0.39574 0.0
C1390 C 0.8639 0.39499 0.36634 0.0
C1391 C 0.89278 0.40502 0.37035 0.0
C1392 C 0.8594 0.36674 0.38744 0.0
C1393 C 0.90341 0.39687 0.3833 0.0
C1394 C 0.85596 0.33545 0.40878 0.0
C1395 C 0.81261 0.29916 0.39638 0.0
N1396 N 0.88685 0.37801 0.39133 0.0
N1397 N 0.8232 0.32454 0.39009 0.0
H1398 H 0.84327 0.66599 0.63699 0.0
H1399 H 0.9418 0.51352 0.63873 0.0
H1400 H 0.83902 0.59861 0.60517 0.0
H1401 H 0.96141 0.59505 0.66141 0.0
H1402 H 0.89482 0.53742 0.63025 0.0
H1403 H 0.87635 0.6326 0.65004 0.0
C1404 C 0.84892 0.6439 0.63284 0.0
C1405 C 0.83884 0.63525 0.61987 0.0
C1406 C 0.90918 0.54975 0.63729 0.0
C1407 C 0.87711 0.59701 0.63472 0.0
C1408 C 0.93578 0.5361 0.64219 0.0
C1409 C 0.95547 0.55251 0.65067 0.0
C1410 C 0.90222 0.57972 0.64113 0.0
C1411 C 0.94693 0.58177 0.65477 0.0
C1412 C 0.86788 0.62486 0.64029 0.0
C1413 C 0.84652 0.6062 0.61509 0.0
N1414 N 0.92106 0.59446 0.64991 0.0
N1415 N 0.86568 0.58823 0.62243 0.0
H1416 H 0.6479 0.3048 0.57807 0.0
H1417 H 0.64345 0.40249 0.64658 0.0
H1418 H 0.70229 0.28485 0.61352 0.0
H1419 H 0.57929 0.41106 0.61364 0.0
H1420 H 0.67389 0.36793 0.63246 0.0
H1421 H 0.63157 0.3521 0.5888 0.0
C1422 C 0.65688 0.3106 0.588 0.0
C1423 C 0.67609 0.29052 0.59499 0.0
C1424 C 0.65344 0.37786 0.62825 0.0
C1425 C 0.65722 0.34457 0.60741 0.0
C1426 C 0.63621 0.39772 0.63626 0.0
C1427 C 0.60867 0.40927 0.63131 0.0
C1428 C 0.64304 0.36974 0.6152 0.0
C1429 C 0.60021 0.40228 0.61791 0.0
C1430 C 0.64744 0.33759 0.59415 0.0
C1431 C 0.68709 0.2994 0.60783 0.0
N1432 N 0.61712 0.38274 0.61038 0.0
N1433 N 0.67718 0.32555 0.6137 0.0
H1434 H 0.9554 0.4077 0.83804 0.0
H1435 H 0.83559 0.40107 0.89797 0.0
H1436 H 0.93924 0.48384 0.86465 0.0
H1437 H 0.84455 0.33277 0.86675 0.0
H1438 H 0.86775 0.43518 0.88442 0.0
H1439 H 0.90939 0.38357 0.84653 0.0
C1440 C 0.94169 0.41961 0.84549 0.0
C1441 C 0.9511 0.44767 0.85072 0.0
C1442 C 0.86217 0.41294 0.88043 0.0
C1443 C 0.8988 0.41976 0.86087 0.0
C1444 C 0.84377 0.3935 0.88815 0.0
C1445 C 0.83784 0.36389 0.88357 0.0
C1446 C 0.87468 0.40253 0.86811 0.0
C1447 C 0.84896 0.35523 0.87078 0.0
C1448 C 0.91543 0.40581 0.85038 0.0
C1449 C 0.93259 0.46219 0.86035 0.0
N1450 N 0.86712 0.37428 0.8636 0.0
N1451 N 0.90758 0.44776 0.86535 0.0
H1452 H 0.85194 0.69351 0.07686 0.0
H1453 H 0.85609 0.59985 0.14653 0.0
H1454 H 0.79687 0.71523 0.11188 0.0
H1455 H 0.92069 0.58993 0.11384 0.0
H1456 H 0.82561 0.6335 0.13195 0.0
H1457 H 0.86832 0.64693 0.08819 0.0
C1458 C 0.8428 0.68824 0.08681 0.0
C1459 C 0.82342 0.70863 0.09351 0.0
C1460 C 0.84617 0.62347 0.1279 0.0
C1461 C 0.84238 0.65545 0.10663 0.0
C1462 C 0.86343 0.60415 0.13618 0.0
C1463 C 0.89108 0.59249 0.13141 0.0
C1464 C 0.85667 0.63089 0.11478 0.0
C1465 C 0.89969 0.59884 0.11797 0.0
C1466 C 0.85229 0.66167 0.09332 0.0
C1467 C 0.81223 0.70043 0.10641 0.0
N1468 N 0.88274 0.61783 0.11018 0.0
N1469 N 0.8222 0.6747 0.11262 0.0
H1470 H 0.6533 0.66523 0.36582 0.0
H1471 H 0.55322 0.51393 0.36364 0.0
H1472 H 0.65414 0.59899 0.39817 0.0
H1473 H 0.53761 0.59418 0.33948 0.0
H1474 H 0.59984 0.53743 0.3727 0.0
H1475 H 0.62141 0.63151 0.35236 0.0
C1476 C 0.64708 0.64333 0.37002 0.0
C1477 C 0.65586 0.63508 0.38322 0.0
C1478 C 0.5865 0.54954 0.36519 0.0
C1479 C 0.61895 0.59647 0.36791 0.0
C1480 C 0.56012 0.53609 0.35996 0.0
C1481 C 0.54162 0.55233 0.35089 0.0
C1482 C 0.5944 0.57911 0.36112 0.0
C1483 C 0.5512 0.58106 0.34654 0.0
C1484 C 0.62885 0.62409 0.36233 0.0
C1485 C 0.6476 0.60625 0.38806 0.0
N1486 N 0.5768 0.59359 0.35176 0.0
N1487 N 0.62909 0.58809 0.38048 0.0
H1488 H 0.34739 0.40863 0.14739 0.0
H1489 H 0.34423 0.28597 0.08881 0.0
H1490 H 0.41587 0.40038 0.1162 0.0
H1491 H 0.26616 0.30349 0.11409 0.0
H1492 H 0.36753 0.33267 0.09698 0.0
H1493 H 0.314 0.37534 0.134 0.0
C1494 C 0.35512 0.40033 0.13761 0.0
C1495 C 0.3846 0.40675 0.13299 0.0
C1496 C 0.34506 0.32677 0.10061 0.0
C1497 C 0.34684 0.36875 0.11774 0.0
C1498 C 0.33177 0.30011 0.09591 0.0
C1499 C 0.3034 0.29096 0.10086 0.0
C1500 C 0.33026 0.34403 0.11065 0.0
C1501 C 0.28809 0.30997 0.11003 0.0
C1502 C 0.33611 0.38134 0.12998 0.0
C1503 C 0.39352 0.39553 0.12026 0.0
N1504 N 0.30203 0.33539 0.11488 0.0
N1505 N 0.3749 0.37681 0.11318 0.0
H1506 H 0.45866 0.59101 0.83871 0.0
H1507 H 0.34097 0.59231 0.89885 0.0
H1508 H 0.44313 0.51144 0.86331 0.0
H1509 H 0.34121 0.65792 0.86624 0.0
H1510 H 0.37386 0.55923 0.8851 0.0
H1511 H 0.41186 0.61317 0.84746 0.0
C1512 C 0.44496 0.57798 0.84578 0.0
C1513 C 0.45467 0.54948 0.85035 0.0
C1514 C 0.36611 0.58057 0.88085 0.0
C1515 C 0.40148 0.57501 0.86077 0.0
C1516 C 0.34728 0.59938 0.88868 0.0
C1517 C 0.33886 0.62809 0.88376 0.0
C1518 C 0.37657 0.59078 0.86811 0.0
C1519 C 0.34766 0.6362 0.87053 0.0
C1520 C 0.41823 0.59061 0.85079 0.0
C1521 C 0.43621 0.53347 0.85952 0.0
N1522 N 0.36638 0.61789 0.86328 0.0
N1523 N 0.41073 0.54676 0.86468 0.0
H1524 H 0.19974 0.72178 0.62212 0.0
H1525 H 0.09013 0.58609 0.61481 0.0
H1526 H 0.1853 0.68211 0.58257 0.0
H1527 H 0.14608 0.59577 0.65057 0.0
H1528 H 0.12468 0.61981 0.6024 0.0
H1529 H 0.18048 0.67544 0.63271 0.0
C1530 C 0.19302 0.70297 0.61568 0.0
C1531 C 0.19415 0.70554 0.60149 0.0
C1532 C 0.1298 0.61395 0.61286 0.0
C1533 C 0.17122 0.65289 0.6135 0.0
C1534 C 0.11008 0.59481 0.61995 0.0
C1535 C 0.11521 0.5884 0.63375 0.0
C1536 C 0.15426 0.6274 0.61974 0.0
C1537 C 0.14136 0.60018 0.63994 0.0
C1538 C 0.18211 0.67653 0.62172 0.0
C1539 C 0.18492 0.68075 0.59356 0.0
N1540 N 0.15956 0.61973 0.63298 0.0
N1541 N 0.17314 0.65557 0.59968 0.0
H1542 H 0.16084 0.32645 0.36351 0.0
H1543 H 0.03755 0.45699 0.3608 0.0
H1544 H 0.14987 0.39282 0.3954 0.0
H1545 H 0.05629 0.39611 0.32741 0.0
H1546 H 0.08381 0.43962 0.37207 0.0
H1547 H 0.12847 0.35695 0.34875 0.0
C1548 C 0.15196 0.34777 0.36732 0.0
C1549 C 0.15769 0.35698 0.38074 0.0
C1550 C 0.07814 0.43046 0.36217 0.0
C1551 C 0.12007 0.39183 0.36396 0.0
C1552 C 0.0517 0.44039 0.3557 0.0
C1553 C 0.04272 0.42761 0.34323 0.0
C1554 C 0.0956 0.40735 0.35619 0.0
C1555 C 0.06214 0.40643 0.33706 0.0
C1556 C 0.13347 0.36521 0.35888 0.0
C1557 C 0.1459 0.3849 0.38512 0.0
N1558 N 0.08736 0.39659 0.34371 0.0
N1559 N 0.12714 0.4011 0.37683 0.0
H1560 H 0.34759 0.59012 0.35401 0.0
H1561 H 0.34248 0.70972 0.41367 0.0
H1562 H 0.41399 0.59505 0.38623 0.0
H1563 H 0.26492 0.69314 0.38795 0.0
H1564 H 0.36591 0.66328 0.40525 0.0
H1565 H 0.31375 0.62285 0.36744 0.0
C1566 C 0.35475 0.59752 0.36402 0.0
C1567 C 0.38382 0.59036 0.36892 0.0
C1568 C 0.34352 0.66934 0.40158 0.0
C1569 C 0.34555 0.62783 0.38422 0.0
C1570 C 0.33015 0.69585 0.40642 0.0
C1571 C 0.30187 0.7052 0.40143 0.0
C1572 C 0.3289 0.65241 0.39138 0.0
C1573 C 0.28677 0.68652 0.39205 0.0
C1574 C 0.33547 0.61622 0.37167 0.0
C1575 C 0.39198 0.60047 0.38195 0.0
N1576 N 0.30077 0.66125 0.38708 0.0
N1577 N 0.37316 0.619 0.38904 0.0
H1578 H 0.15873 0.66407 0.13836 0.0
H1579 H 0.05772 0.5134 0.13808 0.0
H1580 H 0.1602 0.59944 0.10538 0.0
H1581 H 0.04219 0.59196 0.16333 0.0
H1582 H 0.10502 0.53689 0.12978 0.0
H1583 H 0.1267 0.6296 0.1514 0.0
C1584 C 0.1527 0.64234 0.13395 0.0
C1585 C 0.16164 0.63479 0.12068 0.0
C1586 C 0.09154 0.5486 0.13736 0.0
C1587 C 0.12453 0.59536 0.13549 0.0
C1588 C 0.06476 0.53515 0.14216 0.0
C1589 C 0.04608 0.55096 0.1513 0.0
C1590 C 0.09966 0.57776 0.14192 0.0
C1591 C 0.0559 0.57919 0.15619 0.0
C1592 C 0.13436 0.62268 0.14139 0.0
C1593 C 0.15356 0.60616 0.11555 0.0
N1594 N 0.08188 0.59176 0.15137 0.0
N1595 N 0.13493 0.58762 0.12288 0.0
H1596 H 0.14542 0.30684 0.92559 0.0
H1597 H 0.1414 0.40112 0.8561 0.0
H1598 H 0.2013 0.28627 0.89069 0.0
H1599 H 0.07491 0.40855 0.88817 0.0
H1600 H 0.17211 0.36813 0.87085 0.0
H1601 H 0.12843 0.35324 0.91427 0.0
C1602 C 0.15463 0.31236 0.91568 0.0
C1603 C 0.17439 0.29232 0.90898 0.0
C1604 C 0.15105 0.37745 0.87473 0.0
C1605 C 0.15478 0.34526 0.8959 0.0
C1606 C 0.13364 0.39638 0.86635 0.0
C1607 C 0.10543 0.40715 0.87088 0.0
C1608 C 0.14015 0.36952 0.88771 0.0
C1609 C 0.09634 0.40031 0.88422 0.0
C1610 C 0.14479 0.33881 0.90918 0.0
C1611 C 0.18564 0.30079 0.89614 0.0
N1612 N 0.11348 0.38171 0.89211 0.0
N1613 N 0.17536 0.32639 0.88994 0.0
H1614 H 0.33826 0.39926 0.60447 0.0
H1615 H 0.45813 0.40788 0.6641 0.0
H1616 H 0.3468 0.33217 0.63624 0.0
H1617 H 0.44061 0.48384 0.63756 0.0
H1618 H 0.41209 0.38334 0.65588 0.0
H1619 H 0.37006 0.43395 0.61787 0.0
C1620 C 0.34629 0.39208 0.61438 0.0
C1621 C 0.34037 0.36263 0.61916 0.0
C1622 C 0.41783 0.40563 0.65199 0.0
C1623 C 0.37678 0.40193 0.63445 0.0
C1624 C 0.4441 0.41965 0.65672 0.0
C1625 C 0.45312 0.44777 0.65143 0.0
C1626 C 0.40083 0.41943 0.64158 0.0
C1627 C 0.43425 0.46214 0.6419 0.0
C1628 C 0.36446 0.41186 0.62201 0.0
C1629 C 0.35124 0.35448 0.63206 0.0
N1630 N 0.40924 0.44749 0.63704 0.0
N1631 N 0.36921 0.37384 0.63915 0.0
H1632 H 0.10151 0.94176 0.3478 0.0
H1633 H 0.19004 0.84787 0.40508 0.0
H1634 H 0.08495 0.95152 0.39085 0.0
H1635 H 0.20318 0.8341 0.36202 0.0
H1636 H 0.14938 0.88393 0.40002 0.0
H1637 H 0.13681 0.90027 0.3527 0.0
C1638 C 0.10522 0.93512 0.35827 0.0
C1639 C 0.09036 0.95031 0.36892 0.0
C1640 C 0.161 0.87286 0.39167 0.0
C1641 C 0.13066 0.90278 0.37462 0.0
C1642 C 0.18431 0.85238 0.39456 0.0
C1643 C 0.2002 0.83809 0.38397 0.0
C1644 C 0.15361 0.87931 0.37807 0.0
C1645 C 0.19145 0.84439 0.37052 0.0
C1646 C 0.12526 0.91134 0.36107 0.0
C1647 C 0.09564 0.94039 0.3823 0.0
N1648 N 0.16893 0.86471 0.36795 0.0
N1649 N 0.11552 0.91744 0.38477 0.0
H1650 H 0.3664 0.97791 0.64387 0.0
H1651 H 0.33646 0.81094 0.61526 0.0
H1652 H 0.43895 0.92258 0.62786 0.0
H1653 H 0.26744 0.87993 0.61898 0.0
H1654 H 0.37479 0.8483 0.62253 0.0
H1655 H 0.33012 0.93858 0.63775 0.0
C1656 C 0.37477 0.95726 0.63923 0.0
C1657 C 0.40578 0.95338 0.63645 0.0
C1658 C 0.35124 0.85517 0.6217 0.0
C1659 C 0.36418 0.90834 0.62919 0.0
C1660 C 0.32945 0.83391 0.61763 0.0
C1661 C 0.29888 0.84251 0.61642 0.0
C1662 C 0.34215 0.88496 0.62479 0.0
C1663 C 0.29083 0.87251 0.61955 0.0
C1664 C 0.35398 0.93492 0.6356 0.0
C1665 C 0.41519 0.92641 0.63011 0.0
N1666 N 0.3123 0.8926 0.62363 0.0
N1667 N 0.39444 0.90478 0.6267 0.0
H1668 H 0.32908 0.1865 0.88263 0.0
H1669 H 0.36331 0.01256 0.86579 0.0
H1670 H 0.26469 0.11377 0.88842 0.0
H1671 H 0.4351 0.07802 0.87152 0.0
H1672 H 0.32616 0.05126 0.87178 0.0
H1673 H 0.36786 0.14877 0.87641 0.0
C1674 C 0.32316 0.16263 0.88258 0.0
C1675 C 0.29376 0.15317 0.88611 0.0
C1676 C 0.35003 0.05724 0.87174 0.0
C1677 C 0.3376 0.1102 0.87899 0.0
C1678 C 0.37123 0.03521 0.86821 0.0
C1679 C 0.40229 0.04219 0.8681 0.0
C1680 C 0.35987 0.08661 0.8751 0.0
C1681 C 0.41134 0.07175 0.87158 0.0
C1682 C 0.34525 0.14117 0.87911 0.0
C1683 C 0.2872 0.12201 0.88598 0.0
N1684 N 0.39016 0.09302 0.87489 0.0
N1685 N 0.30889 0.10168 0.88242 0.0
H1686 H 0.19242 0.14583 0.09799 0.0
H1687 H 0.10183 0.0577 0.15653 0.0
H1688 H 0.20407 0.16381 0.14083 0.0
H1689 H 0.08568 0.04462 0.11362 0.0
H1690 H 0.13805 0.09802 0.15103 0.0
H1691 H 0.15185 0.10994 0.10351 0.0
C1692 C 0.1864 0.14227 0.10855 0.0
C1693 C 0.20178 0.15777 0.11895 0.0
C1694 C 0.12641 0.08647 0.14282 0.0
C1695 C 0.15531 0.11678 0.12538 0.0
C1696 C 0.10583 0.06336 0.14596 0.0
C1697 C 0.09075 0.04765 0.13554 0.0
C1698 C 0.13212 0.0938 0.12914 0.0
C1699 C 0.0965 0.05625 0.12201 0.0
C1700 C 0.16315 0.1219 0.1117 0.0
C1701 C 0.19271 0.15263 0.13247 0.0
N1702 N 0.11686 0.07857 0.11921 0.0
N1703 N 0.17024 0.13242 0.13529 0.0
H1704 H 0.91546 0.04077 0.61105 0.0
H1705 H 0.80288 0.16827 0.6397 0.0
H1706 H 0.90145 0.05701 0.65389 0.0
H1707 H 0.8051 0.13954 0.59774 0.0
H1708 H 0.84343 0.13209 0.64485 0.0
H1709 H 0.87966 0.08135 0.60582 0.0
C1710 C 0.90515 0.0531 0.61937 0.0
C1711 C 0.91147 0.04543 0.63295 0.0
C1712 C 0.83512 0.13379 0.63451 0.0
C1713 C 0.87007 0.09179 0.627 0.0
C1714 C 0.81213 0.1546 0.63154 0.0
C1715 C 0.80051 0.15684 0.61827 0.0
C1716 C 0.84675 0.11523 0.62412 0.0
C1717 C 0.8131 0.13825 0.60814 0.0
C1718 C 0.88449 0.07614 0.61637 0.0
C1719 C 0.89697 0.06195 0.64329 0.0
N1720 N 0.83551 0.11822 0.61127 0.0
N1721 N 0.87691 0.08435 0.64011 0.0
H1722 H 0.69478 0.14014 0.4071 0.0
H1723 H 0.59679 0.05882 0.34917 0.0
H1724 H 0.69662 0.16758 0.36497 0.0
H1725 H 0.58565 0.04116 0.39206 0.0
H1726 H 0.63295 0.09924 0.35467 0.0
H1727 H 0.65425 0.1041 0.40178 0.0
C1728 C 0.6866 0.1386 0.39674 0.0
C1729 C 0.69919 0.15678 0.38646 0.0
C1730 C 0.6224 0.08667 0.36288 0.0
C1731 C 0.65279 0.11562 0.38027 0.0
C1732 C 0.60188 0.06352 0.35973 0.0
C1733 C 0.58824 0.04652 0.37015 0.0
C1734 C 0.62955 0.09268 0.37655 0.0
C1735 C 0.59535 0.05383 0.38369 0.0
C1736 C 0.66336 0.11814 0.39371 0.0
C1737 C 0.68742 0.15419 0.37323 0.0
N1738 N 0.61567 0.07618 0.38649 0.0
N1739 N 0.66505 0.13381 0.37049 0.0
H1740 H 0.58799 0.96282 0.1114 0.0
H1741 H 0.70034 0.83313 0.13808 0.0
H1742 H 0.60294 0.94424 0.15398 0.0
H1743 H 0.69844 0.86484 0.09655 0.0
H1744 H 0.66074 0.86984 0.14383 0.0
H1745 H 0.62437 0.92316 0.10557 0.0
C1746 C 0.59867 0.95018 0.11954 0.0
C1747 C 0.59235 0.95684 0.13322 0.0
C1748 C 0.66894 0.86872 0.13345 0.0
C1749 C 0.63438 0.91152 0.12659 0.0
C1750 C 0.69139 0.8476 0.13013 0.0
C1751 C 0.70273 0.84593 0.1168 0.0
C1752 C 0.65756 0.88817 0.12335 0.0
C1753 C 0.69058 0.8656 0.10698 0.0
C1754 C 0.61965 0.92767 0.11619 0.0
C1755 C 0.60736 0.94002 0.14332 0.0
N1756 N 0.66864 0.88588 0.11044 0.0
N1757 N 0.62766 0.9181 0.1398 0.0
H1758 H 0.79734 0.82999 0.86109 0.0
H1759 H 0.91161 0.95505 0.89054 0.0
H1760 H 0.80706 0.84993 0.90385 0.0
H1761 H 0.89503 0.94183 0.84767 0.0
H1762 H 0.87722 0.91315 0.89558 0.0
H1763 H 0.83681 0.86723 0.85603 0.0
C1764 C 0.80801 0.8419 0.86944 0.0
C1765 C 0.79876 0.83685 0.88294 0.0
C1766 C 0.88119 0.9193 0.88506 0.0
C1767 C 0.84381 0.8799 0.87717 0.0
C1768 C 0.90105 0.94314 0.88216 0.0
C1769 C 0.90622 0.95209 0.86863 0.0
C1770 C 0.86638 0.90417 0.87439 0.0
C1771 C 0.89142 0.93599 0.85824 0.0
C1772 C 0.83042 0.86336 0.86653 0.0
C1773 C 0.81318 0.85338 0.89331 0.0
N1774 N 0.87213 0.91287 0.86133 0.0
N1775 N 0.83491 0.8742 0.89021 0.0
H1776 H 0.668 0.30737 0.88014 0.0
H1777 H 0.63052 0.47933 0.86358 0.0
H1778 H 0.72706 0.38143 0.89125 0.0
H1779 H 0.55832 0.41683 0.87326 0.0
H1780 H 0.66771 0.44068 0.8699 0.0
H1781 H 0.62825 0.34453 0.8741 0.0
C1782 C 0.67244 0.33141 0.88134 0.0
C1783 C 0.70058 0.34149 0.88628 0.0
C1784 C 0.64373 0.43537 0.87062 0.0
C1785 C 0.65602 0.38363 0.87923 0.0
C1786 C 0.62257 0.45727 0.86691 0.0
C1787 C 0.59144 0.45102 0.86785 0.0
C1788 C 0.63372 0.40684 0.87511 0.0
C1789 C 0.58222 0.42232 0.87246 0.0
C1790 C 0.64988 0.35247 0.87797 0.0
C1791 C 0.70548 0.37278 0.88767 0.0
N1792 N 0.60334 0.40105 0.87585 0.0
N1793 N 0.68352 0.39276 0.88405 0.0
H1794 H 0.79353 0.33899 0.14168 0.0
H1795 H 0.91507 0.45581 0.11129 0.0
H1796 H 0.80504 0.35533 0.09868 0.0
H1797 H 0.89793 0.44447 0.15422 0.0
H1798 H 0.8781 0.41593 0.10645 0.0
H1799 H 0.83478 0.37431 0.14638 0.0
C1800 C 0.80492 0.34971 0.13319 0.0
C1801 C 0.7957 0.34414 0.11974 0.0
C1802 C 0.88252 0.42207 0.11693 0.0
C1803 C 0.84289 0.3851 0.1251 0.0
C1804 C 0.90382 0.44472 0.11972 0.0
C1805 C 0.90958 0.45362 0.1332 0.0
C1806 C 0.86687 0.4081 0.1277 0.0
C1807 C 0.89391 0.43865 0.14368 0.0
C1808 C 0.8284 0.3701 0.1359 0.0
C1809 C 0.81111 0.35921 0.10921 0.0
N1810 N 0.87324 0.4167 0.14071 0.0
N1811 N 0.8339 0.37904 0.11211 0.0
H1812 H 0.91726 0.55008 0.38803 0.0
H1813 H 0.78644 0.66036 0.3607 0.0
H1814 H 0.88518 0.55002 0.34655 0.0
H1815 H 0.80507 0.64669 0.40336 0.0
H1816 H 0.82653 0.62423 0.35507 0.0
H1817 H 0.88025 0.5896 0.39352 0.0
C1818 C 0.90264 0.55859 0.38004 0.0
C1819 C 0.90429 0.54671 0.3668 0.0
C1820 C 0.82193 0.62918 0.36567 0.0
C1821 C 0.86172 0.5918 0.37305 0.0
C1822 C 0.79919 0.65003 0.36889 0.0
C1823 C 0.79241 0.6566 0.38254 0.0
C1824 C 0.83819 0.61488 0.37615 0.0
C1825 C 0.80938 0.64205 0.39272 0.0
C1826 C 0.88136 0.58099 0.38321 0.0
C1827 C 0.88443 0.55829 0.35691 0.0
N1828 N 0.83152 0.62189 0.38932 0.0
N1829 N 0.86399 0.58021 0.36024 0.0
H1830 H 0.63079 0.519 0.6398 0.0
H1831 H 0.66863 0.69114 0.62324 0.0
H1832 H 0.5591 0.58137 0.62922 0.0
H1833 H 0.72846 0.61721 0.61285 0.0
H1834 H 0.6289 0.65388 0.62922 0.0
H1835 H 0.66829 0.55782 0.63403 0.0
C1836 C 0.623 0.54106 0.63641 0.0
C1837 C 0.59192 0.54719 0.63503 0.0
C1838 C 0.65071 0.64598 0.62554 0.0
C1839 C 0.63457 0.59157 0.62839 0.0
C1840 C 0.67325 0.66709 0.6222 0.0
C1841 C 0.70158 0.65708 0.61746 0.0
C1842 C 0.65704 0.61482 0.62445 0.0
C1843 C 0.70673 0.62578 0.61627 0.0
C1844 C 0.64435 0.56306 0.633 0.0
C1845 C 0.58295 0.57593 0.63035 0.0
N1846 N 0.68476 0.60574 0.61986 0.0
N1847 N 0.60424 0.59727 0.62726 0.0
H1848 H 0.30805 0.65109 0.09765 0.0
H1849 H 0.39858 0.55815 0.15463 0.0
H1850 H 0.29738 0.66645 0.14074 0.0
H1851 H 0.41137 0.54547 0.11147 0.0
H1852 H 0.3637 0.60001 0.14981 0.0
H1853 H 0.34836 0.61453 0.10252 0.0
C1854 C 0.31427 0.64684 0.10813 0.0
C1855 C 0.29915 0.6617 0.11879 0.0
C1856 C 0.37431 0.5882 0.14139 0.0
C1857 C 0.34533 0.6199 0.12448 0.0
C1858 C 0.39411 0.5642 0.14415 0.0
C1859 C 0.40781 0.5481 0.13345 0.0
C1860 C 0.36801 0.5961 0.12784 0.0
C1861 C 0.40158 0.5573 0.12005 0.0
C1862 C 0.33737 0.62606 0.11092 0.0
C1863 C 0.30851 0.65571 0.13219 0.0
N1864 N 0.38199 0.58052 0.11763 0.0
N1865 N 0.33081 0.63509 0.13466 0.0
H1866 H 0.05885 0.57788 0.87464 0.0
H1867 H 0.23399 0.6116 0.88678 0.0
H1868 H 0.13018 0.51821 0.8609 0.0
H1869 H 0.16944 0.68467 0.8828 0.0
H1870 H 0.19451 0.57547 0.88018 0.0
H1871 H 0.09748 0.6163 0.8804 0.0
C1872 C 0.08261 0.573 0.8728 0.0
C1873 C 0.0914 0.54502 0.86722 0.0
C1874 C 0.18895 0.59941 0.88073 0.0
C1875 C 0.1354 0.58827 0.87391 0.0
C1876 C 0.21137 0.61996 0.8846 0.0
C1877 C 0.20479 0.65106 0.8854 0.0
C1878 C 0.15955 0.60993 0.87784 0.0
C1879 C 0.17528 0.66082 0.88224 0.0
C1880 C 0.10453 0.59486 0.87602 0.0
C1881 C 0.12241 0.53966 0.865 0.0
N1882 N 0.15356 0.64025 0.8787 0.0
N1883 N 0.1433 0.56096 0.86846 0.0
H1884 H 0.23247 0.38262 0.61211 0.0
H1885 H 0.05981 0.41836 0.62892 0.0
H1886 H 0.17018 0.31038 0.62202 0.0
H1887 H 0.13293 0.47926 0.63923 0.0
H1888 H 0.09756 0.3793 0.62279 0.0
H1889 H 0.1935 0.4198 0.61818 0.0
C1890 C 0.2104 0.37464 0.61542 0.0
C1891 C 0.20433 0.34349 0.61652 0.0
C1892 C 0.10521 0.40119 0.62648 0.0
C1893 C 0.15979 0.38577 0.62349 0.0
C1894 C 0.0838 0.42337 0.62991 0.0
C1895 C 0.0934 0.45182 0.63467 0.0
C1896 C 0.13629 0.40796 0.62751 0.0
C1897 C 0.12465 0.45743 0.6358 0.0
C1898 C 0.18832 0.39581 0.619 0.0
C1899 C 0.17559 0.33427 0.6211 0.0
N1900 N 0.145 0.43578 0.63213 0.0
N1901 N 0.15418 0.35537 0.62435 0.0
H1902 H 0.43762 0.42001 0.37223 0.0
H1903 H 0.26485 0.38183 0.38722 0.0
H1904 H 0.36415 0.47921 0.36051 0.0
H1905 H 0.32926 0.31028 0.37925 0.0
H1906 H 0.30321 0.41936 0.38081 0.0
H1907 H 0.40022 0.38036 0.37796 0.0
C1908 C 0.41365 0.42451 0.37083 0.0
C1909 C 0.40386 0.4527 0.36583 0.0
C1910 C 0.30898 0.39545 0.38046 0.0
C1911 C 0.36132 0.40812 0.37251 0.0
C1912 C 0.28723 0.37411 0.38423 0.0
C1913 C 0.29411 0.34304 0.38382 0.0
C1914 C 0.33798 0.3857 0.37647 0.0
C1915 C 0.32323 0.3341 0.37964 0.0
C1916 C 0.39243 0.40198 0.37402 0.0
C1917 C 0.37261 0.45761 0.36415 0.0
N1918 N 0.34432 0.3554 0.37622 0.0
N1919 N 0.35243 0.43565 0.36761 0.0
H1920 H 0.10377 0.03715 0.28466 0.0
H1921 H 0.02831 0.94542 0.22349 0.0
H1922 H 0.01911 0.98858 0.28845 0.0
H1923 H 0.08765 0.02211 0.21657 0.0
H1924 H 0.03022 0.95552 0.24779 0.0
H1925 H 0.10405 0.02596 0.26016 0.0
C1926 C 0.08544 0.02384 0.28035 0.0
C1927 C 0.06138 0.01371 0.28856 0.0
C1928 C 0.04275 0.97019 0.24095 0.0
C1929 C 0.06158 0.00089 0.26067 0.0
C1930 C 0.04149 0.96464 0.227 0.0
C1931 C 0.0574 0.98327 0.2178 0.0
C1932 C 0.06046 0.99423 0.24588 0.0
C1933 C 0.07508 0.00703 0.2232 0.0
C1934 C 0.0855 0.0177 0.26639 0.0
C1935 C 0.03799 0.99691 0.28245 0.0
N1936 N 0.07615 0.01181 0.23688 0.0
N1937 N 0.03873 0.99092 0.26889 0.0
H1938 H 0.176 0.79679 0.53 0.0
H1939 H 0.21295 0.82199 0.4618 0.0
H1940 H 0.27229 0.80556 0.5372 0.0
H1941 H 0.30005 0.78441 0.47283 0.0
H1942 H 0.199 0.82331 0.48592 0.0
H1943 H 0.18549 0.79805 0.50553 0.0
C1944 C 0.19916 0.79905 0.52642 0.0
C1945 C 0.22341 0.80107 0.53566 0.0
C1946 C 0.22097 0.81432 0.48306 0.0
C1947 C 0.23442 0.80332 0.50761 0.0
C1948 C 0.22906 0.8139 0.46931 0.0
C1949 C 0.25753 0.80271 0.4653 0.0
C1950 C 0.24162 0.80362 0.49288 0.0
C1951 C 0.27762 0.79264 0.47545 0.0
C1952 C 0.20453 0.80022 0.51243 0.0
C1953 C 0.25292 0.80422 0.53043 0.0
N1954 N 0.26933 0.79347 0.48876 0.0
N1955 N 0.25762 0.80499 0.51676 0.0
H1956 H 0.48861 5e-05 0.71817 0.0
H1957 H 0.3953 0.01247 0.78799 0.0
H1958 H 0.39662 0.03357 0.72052 0.0
H1959 H 0.48691 0.97805 0.78509 0.0
H1960 H 0.39531 0.02098 0.76339 0.0
H1961 H 0.48822 0.99198 0.74275 0.0
C1962 C 0.46829 0.00567 0.72386 0.0
C1963 C 0.44262 0.01755 0.71726 0.0
C1964 C 0.41544 0.01168 0.76815 0.0
C1965 C 0.44199 0.00834 0.74547 0.0
C1966 C 0.41544 0.00676 0.7822 0.0
C1967 C 0.44115 0.9945 0.78866 0.0
C1968 C 0.4413 0.00422 0.76047 0.0
C1969 C 0.46673 0.98794 0.78063 0.0
C1970 C 0.46806 0.00101 0.7379 0.0
C1971 C 0.41679 0.02403 0.72514 0.0
N1972 N 0.4661 0.99277 0.76698 0.0
N1973 N 0.41718 0.01946 0.73883 0.0
H1974 H 0.2261 0.23879 0.96866 0.0
H1975 H 0.28016 0.14545 0.0343 0.0
H1976 H 0.26095 0.14721 0.96678 0.0
H1977 H 0.24757 0.23788 0.03564 0.0
H1978 H 0.27213 0.14503 0.00968 0.0
H1979 H 0.23424 0.23881 0.99319 0.0
C1980 C 0.23587 0.2188 0.97336 0.0
C1981 C 0.24289 0.19297 0.96558 0.0
C1982 C 0.26664 0.16536 0.01537 0.0
C1983 C 0.25165 0.19261 0.99383 0.0
C1984 C 0.27094 0.16553 0.02945 0.0
C1985 C 0.26452 0.19175 0.03707 0.0
C1986 C 0.25581 0.1916 0.00883 0.0
C1987 C 0.25315 0.21727 0.03017 0.0
C1988 C 0.24022 0.21872 0.98742 0.0
C1989 C 0.25486 0.16751 0.97235 0.0
N1990 N 0.24921 0.21657 0.01646 0.0
N1991 N 0.2588 0.16796 0.98608 0.0
H1992 H 0.91088 0.021 0.71434 0.0
H1993 H 0.97866 0.98278 0.78756 0.0
H1994 H 0.97191 0.94597 0.72184 0.0
H1995 H 0.89579 0.03375 0.78251 0.0
H1996 H 0.97887 0.97202 0.76313 0.0
H1997 H 0.907 0.02901 0.73896 0.0
C1998 C 0.92339 0.00614 0.7211 0.0
C1999 C 0.94207 0.98298 0.71587 0.0
C2000 C 0.96048 0.98535 0.76736 0.0
C2001 C 0.93798 0.99237 0.74409 0.0
C2002 C 0.96039 0.99151 0.78129 0.0
C2003 C 0.93714 0.00909 0.78705 0.0
C2004 C 0.93743 0.9973 0.75904 0.0
C2005 C 0.91397 0.01985 0.77848 0.0
C2006 C 0.92119 0.0108 0.73516 0.0
C2007 C 0.95791 0.96469 0.72524 0.0
N2008 N 0.91485 0.01404 0.76487 0.0
N2009 N 0.95565 0.9699 0.73882 0.0
H2010 H 0.77762 0.22237 0.53779 0.0
H2011 H 0.73086 0.14853 0.46645 0.0
H2012 H 0.70644 0.15541 0.53361 0.0
H2013 H 0.7813 0.23222 0.46982 0.0
H2014 H 0.72503 0.1478 0.49125 0.0
H2015 H 0.78287 0.22336 0.51303 0.0
C2016 C 0.76307 0.20788 0.53173 0.0
C2017 C 0.74155 0.18875 0.53792 0.0
C2018 C 0.73722 0.16642 0.48655 0.0
C2019 C 0.74779 0.18955 0.5095 0.0
C2020 C 0.74059 0.1668 0.47241 0.0
C2021 C 0.75648 0.19053 0.46606 0.0
C2022 C 0.75022 0.18969 0.49442 0.0
C2023 C 0.76853 0.21371 0.47427 0.0
C2024 C 0.76616 0.20842 0.51757 0.0
C2025 C 0.72377 0.17012 0.52942 0.0
N2026 N 0.76533 0.2126 0.48803 0.0
N2027 N 0.72732 0.17098 0.51569 0.0
H2028 H 0.58485 0.97767 0.21576 0.0
H2029 H 0.51528 0.01901 0.28824 0.0
H2030 H 0.5268 0.05532 0.22261 0.0
H2031 H 0.59706 0.9659 0.28406 0.0
H2032 H 0.51635 0.02927 0.26377 0.0
H2033 H 0.58728 0.96972 0.24043 0.0
C2034 C 0.57269 0.99309 0.22239 0.0
C2035 C 0.55525 0.01697 0.21699 0.0
C2036 C 0.53422 0.01557 0.26821 0.0
C2037 C 0.55766 0.0077 0.24521 0.0
C2038 C 0.53357 0.00969 0.28215 0.0
C2039 C 0.55617 0.99171 0.28815 0.0
C2040 C 0.55734 0.00293 0.26015 0.0
C2041 C 0.5794 0.98016 0.27983 0.0
C2042 C 0.57406 0.98848 0.23647 0.0
C2043 C 0.53981 0.03605 0.22617 0.0
N2044 N 0.57924 0.98573 0.2662 0.0
N2045 N 0.54123 0.03087 0.23976 0.0
H2046 H 0.79645 0.83879 0.0308 0.0
H2047 H 0.68907 0.77971 0.97062 0.0
H2048 H 0.71674 0.78354 0.03732 0.0
H2049 H 0.77256 0.82887 0.96379 0.0
H2050 H 0.69776 0.78277 0.99507 0.0
H2051 H 0.78656 0.83782 0.00637 0.0
C2052 C 0.77664 0.82672 0.02712 0.0
C2053 C 0.75733 0.81131 0.03619 0.0
C2054 C 0.71423 0.79286 0.98824 0.0
C2055 C 0.74615 0.80973 0.00809 0.0
C2056 C 0.70941 0.79094 0.97424 0.0
C2057 C 0.73032 0.80372 0.96506 0.0
C2058 C 0.7401 0.80781 0.99322 0.0
C2059 C 0.75576 0.81877 0.97045 0.0
C2060 C 0.77116 0.82598 0.01313 0.0
C2061 C 0.73241 0.79551 0.03074 0.0
N2062 N 0.75997 0.82031 0.98416 0.0
N2063 N 0.72755 0.79515 0.01707 0.0
H2064 H 0.51546 0.48199 0.78686 0.0
H2065 H 0.58802 0.51911 0.71453 0.0
H2066 H 0.59881 0.53267 0.78277 0.0
H2067 H 0.52703 0.44378 0.72148 0.0
H2068 H 0.59035 0.52747 0.73917 0.0
H2069 H 0.51685 0.47093 0.76247 0.0
C2070 C 0.53413 0.49064 0.78081 0.0
C2071 C 0.55708 0.50818 0.78681 0.0
C2072 C 0.57652 0.50911 0.73524 0.0
C2073 C 0.55868 0.49598 0.7589 0.0
C2074 C 0.57523 0.50425 0.72118 0.0
C2075 C 0.55696 0.48095 0.71582 0.0
C2076 C 0.55924 0.49072 0.744 0.0
C2077 C 0.54072 0.4626 0.72502 0.0
C2078 C 0.53498 0.48428 0.76691 0.0
C2079 C 0.58083 0.5188 0.77853 0.0
N2080 N 0.54208 0.46802 0.7386 0.0
N2081 N 0.58089 0.51278 0.76495 0.0
H2082 H 0.69414 0.27772 0.0322 0.0
H2083 H 0.78593 0.35101 0.97045 0.0
H2084 H 0.77062 0.33759 0.03858 0.0
H2085 H 0.73551 0.26734 0.96713 0.0
H2086 H 0.77496 0.35209 0.99495 0.0
H2087 H 0.70386 0.27906 0.00786 0.0
C2088 C 0.71324 0.2909 0.02855 0.0
C2089 C 0.73195 0.30711 0.0376 0.0
C2090 C 0.76625 0.33357 0.98883 0.0
C2091 C 0.74251 0.30946 0.00949 0.0
C2092 C 0.77227 0.33307 0.97487 0.0
C2093 C 0.76155 0.30905 0.96678 0.0
C2094 C 0.74902 0.31014 0.99469 0.0
C2095 C 0.74431 0.28616 0.97302 0.0
C2096 C 0.71858 0.29183 0.01459 0.0
C2097 C 0.75553 0.32477 0.03206 0.0
N2098 N 0.73849 0.28732 0.98659 0.0
N2099 N 0.76015 0.32548 0.01835 0.0
H2100 H 0.96284 0.5342 0.28829 0.0
H2101 H 0.91477 0.47661 0.21384 0.0
H2102 H 0.91007 0.4531 0.28115 0.0
H2103 H 0.96649 0.55817 0.22144 0.0
H2104 H 0.91126 0.46829 0.23846 0.0
H2105 H 0.96323 0.54392 0.26381 0.0
C2106 C 0.95131 0.51843 0.2816 0.0
C2107 C 0.93643 0.49277 0.28684 0.0
C2108 C 0.92338 0.488 0.23472 0.0
C2109 C 0.93669 0.50382 0.25871 0.0
C2110 C 0.9253 0.49281 0.22066 0.0
C2111 C 0.94125 0.51794 0.21551 0.0
C2112 C 0.93741 0.50852 0.24372 0.0
C2113 C 0.95455 0.5381 0.22488 0.0
C2114 C 0.95144 0.52406 0.2676 0.0
C2115 C 0.92151 0.47339 0.27763 0.0
N2116 N 0.95239 0.53292 0.23847 0.0
N2117 N 0.92214 0.47924 0.26404 0.0
H2118 H 0.73401 0.73218 0.53708 0.0
H2119 H 0.77163 0.66141 0.46443 0.0
H2120 H 0.78586 0.64964 0.53271 0.0
H2121 H 0.69467 0.72005 0.47184 0.0
H2122 H 0.78067 0.6592 0.48903 0.0
H2123 H 0.72297 0.73106 0.51268 0.0
C2124 C 0.74294 0.71375 0.53097 0.0
C2125 C 0.76077 0.69093 0.53689 0.0
C2126 C 0.76182 0.67251 0.48521 0.0
C2127 C 0.7486 0.68966 0.50897 0.0
C2128 C 0.75658 0.67374 0.47117 0.0
C2129 C 0.73259 0.6913 0.46594 0.0
C2130 C 0.74313 0.68916 0.49407 0.0
C2131 C 0.71402 0.70694 0.47525 0.0
C2132 C 0.7366 0.71306 0.51706 0.0
C2133 C 0.77175 0.6675 0.52853 0.0
N2134 N 0.71982 0.70567 0.4888 0.0
N2135 N 0.76573 0.6676 0.51495 0.0
H2136 H 0.4706 0.55922 0.27987 0.0
H2137 H 0.39659 0.46692 0.21835 0.0
H2138 H 0.41154 0.48209 0.28618 0.0
H2139 H 0.47848 0.52 0.21441 0.0
H2140 H 0.39587 0.47812 0.24281 0.0
H2141 H 0.46832 0.55037 0.25546 0.0
C2142 C 0.45739 0.54019 0.27618 0.0
C2143 C 0.44164 0.52106 0.28522 0.0
C2144 C 0.41388 0.48742 0.23657 0.0
C2145 C 0.43822 0.51146 0.25707 0.0
C2146 C 0.41416 0.48128 0.22262 0.0
C2147 C 0.43763 0.4926 0.21438 0.0
C2148 C 0.43702 0.50532 0.24226 0.0
C2149 C 0.46009 0.51072 0.22043 0.0
C2150 C 0.45591 0.53534 0.26219 0.0
C2151 C 0.42397 0.49752 0.27966 0.0
N2152 N 0.4592 0.51657 0.234 0.0
N2153 N 0.42275 0.49337 0.26594 0.0
H2154 H 0.21939 0.67737 0.9637 0.0
H2155 H 0.18702 0.70918 0.0316 0.0
H2156 H 0.31123 0.70102 0.97476 0.0
H2157 H 0.27869 0.67921 0.03935 0.0
H2158 H 0.19695 0.70668 0.00718 0.0
H2159 H 0.20561 0.6771 0.98785 0.0
C2160 C 0.23661 0.68255 0.97122 0.0
C2161 C 0.26638 0.6896 0.96723 0.0
C2162 C 0.21478 0.7002 0.01419 0.0
C2163 C 0.25076 0.68977 0.99483 0.0
C2164 C 0.20926 0.70202 0.02814 0.0
C2165 C 0.23211 0.69444 0.0375 0.0
C2166 C 0.24346 0.6909 0.00953 0.0
C2167 C 0.26042 0.68506 0.03245 0.0
C2168 C 0.22868 0.68272 0.98499 0.0
C2169 C 0.28787 0.69603 0.9774 0.0
N2170 N 0.26542 0.68385 0.01879 0.0
N2171 N 0.27967 0.69583 0.99074 0.0
H2172 H 0.02515 0.55564 0.72176 0.0
H2173 H 0.09633 0.46011 0.783 0.0
H2174 H 0.08192 0.47694 0.71515 0.0
H2175 H 0.01624 0.51578 0.78712 0.0
H2176 H 0.09714 0.47135 0.75853 0.0
H2177 H 0.02691 0.54604 0.74613 0.0
C2178 C 0.03773 0.5361 0.72536 0.0
C2179 C 0.05302 0.5168 0.71624 0.0
C2180 C 0.07948 0.48117 0.76481 0.0
C2181 C 0.05587 0.50631 0.74437 0.0
C2182 C 0.07916 0.475 0.77877 0.0
C2183 C 0.05617 0.48706 0.78707 0.0
C2184 C 0.0569 0.49987 0.75918 0.0
C2185 C 0.03424 0.50589 0.78106 0.0
C2186 C 0.03892 0.53083 0.73934 0.0
C2187 C 0.06988 0.49256 0.72172 0.0
N2188 N 0.03518 0.51177 0.76749 0.0
N2189 N 0.07086 0.48802 0.73542 0.0
H2190 H 0.26631 0.26715 0.46406 0.0
H2191 H 0.23032 0.33561 0.53724 0.0
H2192 H 0.21419 0.34923 0.46933 0.0
H2193 H 0.30677 0.27658 0.52939 0.0
H2194 H 0.22112 0.33867 0.51272 0.0
H2195 H 0.27856 0.26774 0.48835 0.0
C2196 C 0.25765 0.28541 0.47035 0.0
C2197 C 0.23928 0.3082 0.46471 0.0
C2198 C 0.23992 0.32511 0.51641 0.0
C2199 C 0.25277 0.30881 0.49253 0.0
C2200 C 0.24527 0.32339 0.53042 0.0
C2201 C 0.26924 0.30558 0.53552 0.0
C2202 C 0.25845 0.30868 0.50741 0.0
C2203 C 0.28753 0.28997 0.52608 0.0
C2204 C 0.26466 0.28578 0.48419 0.0
C2205 C 0.22865 0.3314 0.47328 0.0
N2206 N 0.28164 0.29174 0.51254 0.0
N2207 N 0.23528 0.33095 0.48681 0.0
H2208 H 0.02986 0.17838 0.35636 0.0
H2209 H 0.97549 0.31831 0.31089 0.0
H2210 H 0.04725 0.18593 0.3133 0.0
H2211 H 0.9798 0.3232 0.35466 0.0
H2212 H 0.99891 0.26815 0.31172 0.0
H2213 H 0.00842 0.22983 0.35615 0.0
C2214 C 0.02908 0.19082 0.34687 0.0
C2215 C 0.04033 0.17788 0.33482 0.0
C2216 C 0.99487 0.28017 0.32117 0.0
C2217 C 0.01597 0.23656 0.33451 0.0
C2218 C 0.98133 0.30872 0.32069 0.0
C2219 C 0.97554 0.32479 0.33273 0.0
C2220 C 0.00245 0.26735 0.33379 0.0
C2221 C 0.98404 0.31156 0.34516 0.0
C2222 C 0.01707 0.22022 0.34678 0.0
C2223 C 0.03913 0.19513 0.32283 0.0
N2224 N 0.99688 0.28343 0.34539 0.0
N2225 N 0.02702 0.22348 0.32297 0.0
H2226 H 0.93363 0.71024 0.56168 0.0
H2227 H 0.07183 0.76817 0.60751 0.0
H2228 H 0.92632 0.72075 0.60519 0.0
H2229 H 0.06468 0.78503 0.56441 0.0
H2230 H 0.02146 0.74409 0.607 0.0
H2231 H 0.98502 0.73111 0.56263 0.0
C2232 C 0.94296 0.7168 0.57144 0.0
C2233 C 0.92576 0.71387 0.58337 0.0
C2234 C 0.03099 0.75308 0.59767 0.0
C2235 C 0.98441 0.73775 0.58455 0.0
C2236 C 0.0597 0.7666 0.59795 0.0
C2237 C 0.07219 0.77872 0.586 0.0
C2238 C 0.01505 0.75134 0.58531 0.0
C2239 C 0.0556 0.77635 0.57387 0.0
C2240 C 0.97217 0.72886 0.57197 0.0
C2241 C 0.93876 0.72301 0.59575 0.0
N2242 N 0.02792 0.76286 0.57383 0.0
N2243 N 0.96742 0.73448 0.59604 0.0
H2244 H 0.47456 0.81769 0.81025 0.0
H2245 H 0.52384 0.67396 0.85451 0.0
H2246 H 0.4776 0.81983 0.85409 0.0
H2247 H 0.54005 0.68232 0.81138 0.0
H2248 H 0.50401 0.72602 0.85476 0.0
H2249 H 0.49609 0.76672 0.81061 0.0
C2250 C 0.47975 0.80732 0.81996 0.0
C2251 C 0.47414 0.82283 0.83216 0.0
C2252 C 0.51202 0.71644 0.84527 0.0
C2253 C 0.49887 0.76447 0.83269 0.0
C2254 C 0.52309 0.6867 0.8451 0.0
C2255 C 0.53358 0.67386 0.8329 0.0
C2256 C 0.51116 0.73321 0.83312 0.0
C2257 C 0.53251 0.69146 0.82102 0.0
C2258 C 0.4922 0.7783 0.82017 0.0
C2259 C 0.48176 0.80862 0.84447 0.0
N2260 N 0.52138 0.72017 0.82142 0.0
N2261 N 0.49355 0.78005 0.84444 0.0
H2262 H 0.42696 0.22356 0.10493 0.0
H2263 H 0.56725 0.28342 0.06087 0.0
H2264 H 0.43391 0.21144 0.06149 0.0
H2265 H 0.57135 0.27288 0.10446 0.0
H2266 H 0.51647 0.26095 0.06096 0.0
H2267 H 0.47803 0.24573 0.10506 0.0
C2268 C 0.43918 0.22571 0.09542 0.0
C2269 C 0.42621 0.21563 0.08318 0.0
C2270 C 0.5285 0.26347 0.07051 0.0
C2271 C 0.48454 0.24087 0.08325 0.0
C2272 C 0.55739 0.27645 0.07047 0.0
C2273 C 0.57349 0.28006 0.08268 0.0
C2274 C 0.51541 0.25431 0.08288 0.0
C2275 C 0.55982 0.27025 0.09481 0.0
C2276 C 0.46838 0.23815 0.09551 0.0
C2277 C 0.44319 0.2186 0.07117 0.0
N2278 N 0.53146 0.25798 0.09462 0.0
N2279 N 0.4714 0.23108 0.07149 0.0
H2280 H 0.96868 0.68117 0.19238 0.0
H2281 H 0.02916 0.82246 0.14936 0.0
H2282 H 0.98272 0.67726 0.14899 0.0
H2283 H 0.03912 0.81533 0.1929 0.0
H2284 H 0.00828 0.77089 0.14887 0.0
H2285 H 0.99085 0.73206 0.19268 0.0
C2286 C 0.97639 0.6911 0.18291 0.0
C2287 C 0.97381 0.67507 0.17064 0.0
C2288 C 0.01514 0.7806 0.15852 0.0
C2289 C -0.00082 0.73323 0.17088 0.0
C2290 C 0.02682 0.81007 0.15881 0.0
C2291 C 0.03584 0.82314 0.17119 0.0
C2292 C 0.01211 0.76427 0.17072 0.0
C2293 C 0.03272 0.80597 0.18313 0.0
C2294 C 0.9892 0.72004 0.18309 0.0
C2295 C 0.98455 0.68878 0.15868 0.0
N2296 N 0.02096 0.77748 0.18261 0.0
N2297 N 0.99659 0.71721 0.15907 0.0
H2298 H 0.56578 0.71479 0.44328 0.0
H2299 H 0.42537 0.77352 0.39899 0.0
H2300 H 0.5701 0.72609 0.39973 0.0
H2301 H 0.43101 0.78422 0.44254 0.0
H2302 H 0.47668 0.75202 0.39897 0.0
H2303 H 0.51459 0.73632 0.44315 0.0
C2304 C 0.55589 0.72172 0.43369 0.0
C2305 C 0.57218 0.71863 0.4215 0.0
C2306 C 0.46669 0.75914 0.40853 0.0
C2307 C 0.51365 0.7433 0.42126 0.0
C2308 C 0.43735 0.77119 0.40855 0.0
C2309 C 0.42394 0.78067 0.42079 0.0
C2310 C 0.48258 0.75623 0.42085 0.0
C2311 C 0.44063 0.77751 0.43287 0.0
C2312 C 0.52676 0.73417 0.43362 0.0
C2313 C 0.55844 0.72836 0.40937 0.0
N2314 N 0.46902 0.76544 0.43261 0.0
N2315 N 0.52988 0.74011 0.40954 0.0
H2316 H 0.46986 0.17859 0.6478 0.0
H2317 H 0.53117 0.31861 0.69118 0.0
H2318 H 0.45753 0.18635 0.6912 0.0
H2319 H 0.51669 0.32381 0.64785 0.0
H2320 H 0.50836 0.268 0.69128 0.0
H2321 H 0.49142 0.22992 0.64744 0.0
C2322 C 0.47182 0.19109 0.65725 0.0
C2323 C 0.46194 0.17832 0.66955 0.0
C2324 C 0.51006 0.28025 0.68175 0.0
C2325 C 0.48644 0.23675 0.66923 0.0
C2326 C 0.52322 0.309 0.68169 0.0
C2327 C 0.52584 0.32527 0.66948 0.0
C2328 C 0.49979 0.26753 0.66949 0.0
C2329 C 0.51483 0.31203 0.65747 0.0
C2330 C 0.48388 0.22039 0.65703 0.0
C2331 C 0.4646 0.19553 0.68149 0.0
N2332 N 0.50245 0.28377 0.65775 0.0
N2333 N 0.47677 0.22383 0.68105 0.0
H2334 H 0.06738 0.22249 0.9432 0.0
H2335 H 0.92517 0.27493 0.89874 0.0
H2336 H 0.07048 0.22705 0.89939 0.0
H2337 H 0.93348 0.29122 0.94186 0.0
H2338 H 0.97684 0.25411 0.89859 0.0
H2339 H 0.01669 0.24472 0.94277 0.0
C2340 C 0.05728 0.22813 0.93348 0.0
C2341 C 0.07298 0.22278 0.92131 0.0
C2342 C 0.96734 0.26236 0.90806 0.0
C2343 C 0.01499 0.24832 0.92071 0.0
C2344 C 0.93783 0.274 0.90817 0.0
C2345 C 0.92509 0.28479 0.92034 0.0
C2346 C 0.98398 0.26121 0.92024 0.0
C2347 C 0.94257 0.28345 0.93224 0.0
C2348 C 0.02843 0.24098 0.93324 0.0
C2349 C 0.05912 0.23099 0.90899 0.0
N2350 N 0.97105 0.27174 0.9319 0.0
N2351 N 0.03072 0.24319 0.90899 0.0
H2352 H 0.97664 0.82202 0.64837 0.0
H2353 H 0.0339 0.68023 0.69199 0.0
H2354 H 0.96589 0.81535 0.69189 0.0
H2355 H 0.02183 0.67632 0.64848 0.0
H2356 H 0.01266 0.73147 0.69204 0.0
H2357 H 0.99714 0.77029 0.64805 0.0
C2358 C 0.97875 0.80971 0.65786 0.0
C2359 C 0.96958 0.82294 0.67018 0.0
C2360 C 0.01454 0.7194 0.68248 0.0
C2361 C 0.99284 0.7639 0.6699 0.0
C2362 C 0.02683 0.69024 0.68244 0.0
C2363 C 0.02969 0.67411 0.6702 0.0
C2364 C 0.00534 0.73269 0.67017 0.0
C2365 C 0.01976 0.68794 0.65813 0.0
C2366 C 0.99022 0.78015 0.65766 0.0
C2367 C 0.97241 0.80587 0.68216 0.0
N2368 N 0.00819 0.71657 0.6584 0.0
N2369 N 0.98392 0.77729 0.68173 0.0
H2370 H 0.07233 0.26715 0.39745 0.0
H2371 H 0.93036 0.21596 0.4426 0.0
H2372 H 0.06475 0.28352 0.44059 0.0
H2373 H 0.92632 0.22048 0.3988 0.0
H2374 H 0.98167 0.23667 0.4419 0.0
H2375 H 0.02083 0.24569 0.39756 0.0
C2376 C 0.05989 0.26604 0.40694 0.0
C2377 C 0.07272 0.27718 0.41903 0.0
C2378 C 0.96961 0.23321 0.43242 0.0
C2379 C 0.01407 0.25287 0.41923 0.0
C2380 C 0.94039 0.2212 0.43282 0.0
C2381 C 0.92418 0.21637 0.42074 0.0
C2382 C 0.98293 0.24025 0.41984 0.0
C2383 C 0.93804 0.22407 0.40835 0.0
C2384 C 0.03049 0.25404 0.40698 0.0
C2385 C 0.05556 0.27554 0.43102 0.0
N2386 N 0.96677 0.23549 0.4082 0.0
N2387 N 0.02719 0.26354 0.43083 0.0
H2388 H 0.46325 0.31943 0.19357 0.0
H2389 H 0.52172 0.17796 0.14983 0.0
H2390 H 0.47498 0.32302 0.15003 0.0
H2391 H 0.53105 0.18393 0.19343 0.0
H2392 H 0.50048 0.22939 0.14958 0.0
H2393 H 0.48423 0.26803 0.19363 0.0
C2394 C 0.47017 0.30934 0.18402 0.0
C2395 C 0.46735 0.32549 0.17178 0.0
C2396 C 0.50722 0.21944 0.1592 0.0
C2397 C 0.4914 0.26668 0.17175 0.0
C2398 C 0.51912 0.19002 0.15935 0.0
C2399 C 0.52818 0.17668 0.17167 0.0
C2400 C 0.50405 0.23547 0.17147 0.0
C2401 C 0.52468 0.19349 0.1837 0.0
C2402 C 0.4823 0.28008 0.18406 0.0
C2403 C 0.47705 0.31148 0.15971 0.0
N2404 N 0.51278 0.22194 0.18331 0.0
N2405 N 0.4885 0.28279 0.15998 0.0
H2406 H 0.57393 0.76724 0.89639 0.0
H2407 H 0.43644 0.70547 0.94152 0.0
H2408 H 0.5678 0.78082 0.93976 0.0
H2409 H 0.42936 0.7181 0.89812 0.0
H2410 H 0.48717 0.72801 0.94095 0.0
H2411 H 0.52329 0.74403 0.89668 0.0
C2412 C 0.56196 0.76519 0.90597 0.0
C2413 C 0.57497 0.77599 0.91807 0.0
C2414 C 0.47451 0.7259 0.93155 0.0
C2415 C 0.51728 0.74957 0.91848 0.0
C2416 C 0.44567 0.71287 0.93187 0.0
C2417 C 0.42876 0.70991 0.91985 0.0
C2418 C 0.48669 0.73573 0.91911 0.0
C2419 C 0.44159 0.72024 0.90762 0.0
C2420 C 0.53304 0.75216 0.90611 0.0
C2421 C 0.55841 0.7731 0.93019 0.0
N2422 N 0.46991 0.73257 0.90754 0.0
N2423 N 0.53048 0.76004 0.9301 0.0
H2424 H 0.96554 0.17768 0.85373 0.0
H2425 H 0.02722 0.3175 0.81019 0.0
H2426 H 0.95573 0.18387 0.81016 0.0
H2427 H 0.01245 0.32275 0.8535 0.0
H2428 H 0.00445 0.26687 0.81008 0.0
H2429 H 0.98638 0.22927 0.85401 0.0
C2430 C 0.9679 0.18987 0.84423 0.0
C2431 C 0.95897 0.17652 0.8319 0.0
C2432 C 0.00606 0.27913 0.8196 0.0
C2433 C 0.98265 0.23541 0.83213 0.0
C2434 C 0.0192 0.30792 0.81968 0.0
C2435 C 0.02178 0.32423 0.83188 0.0
C2436 C 0.99575 0.26637 0.83185 0.0
C2437 C 0.01065 0.31099 0.84387 0.0
C2438 C 0.97955 0.21936 0.8444 0.0
C2439 C 0.96209 0.19345 0.81989 0.0
N2440 N 0.99831 0.28268 0.84358 0.0
N2441 N 0.97385 0.22195 0.82029 0.0
H2442 H 0.57004 0.21453 0.56143 0.0
H2443 H 0.42779 0.27013 0.6053 0.0
H2444 H 0.57356 0.2222 0.60515 0.0
H2445 H 0.43646 0.28372 0.56201 0.0
H2446 H 0.47917 0.24839 0.60571 0.0
H2447 H 0.519 0.23589 0.56168 0.0
C2448 C 0.55995 0.2206 0.5711 0.0
C2449 C 0.57596 0.21646 0.58329 0.0
C2450 C 0.46978 0.25622 0.59614 0.0
C2451 C 0.51747 0.24111 0.58367 0.0
C2452 C 0.44045 0.26839 0.59589 0.0
C2453 C 0.42793 0.2788 0.5836 0.0
C2454 C 0.48645 0.25413 0.58399 0.0
C2455 C 0.44538 0.27634 0.57172 0.0
C2456 C 0.53088 0.23298 0.57124 0.0
C2457 C 0.56201 0.22523 0.59553 0.0
N2458 N 0.47367 0.26417 0.5722 0.0
N2459 N 0.53342 0.23701 0.59542 0.0
H2460 H 0.53436 0.81847 0.30966 0.0
H2461 H 0.47811 0.6772 0.35415 0.0
H2462 H 0.52446 0.82257 0.35328 0.0
H2463 H 0.46485 0.68403 0.31078 0.0
H2464 H 0.50043 0.72825 0.35411 0.0
H2465 H 0.51397 0.76683 0.30994 0.0
C2466 C 0.52801 0.80842 0.3193 0.0
C2467 C 0.53106 0.8248 0.33146 0.0
C2468 C 0.49261 0.71854 0.34461 0.0
C2469 C 0.5077 0.76577 0.33187 0.0
C2470 C 0.4801 0.68938 0.34462 0.0
C2471 C 0.46953 0.67648 0.33245 0.0
C2472 C 0.4949 0.73468 0.33232 0.0
C2473 C 0.47235 0.69331 0.3204 0.0
C2474 C 0.51621 0.77904 0.31945 0.0
C2475 C 0.52213 0.81083 0.34366 0.0
N2476 N 0.48483 0.7215 0.32063 0.0
N2477 N 0.51096 0.78204 0.34358 0.0
H2478 H 0.92633 0.77514 0.10446 0.0
H2479 H 0.06648 0.70963 0.06179 0.0
H2480 H 0.93288 0.77917 0.06071 0.0
H2481 H 0.07165 0.72634 0.10497 0.0
H2482 H 0.01525 0.7307 0.06159 0.0
H2483 H 0.97743 0.75274 0.10528 0.0
C2484 C 0.93846 0.77116 0.09504 0.0
C2485 C 0.92548 0.77916 0.0825 0.0
C2486 C 0.02755 0.72982 0.07113 0.0
C2487 C 0.98364 0.75367 0.08334 0.0
C2488 C 0.05674 0.71762 0.07125 0.0
C2489 C 0.07331 0.71619 0.08342 0.0
C2490 C 0.01462 0.74048 0.08328 0.0
C2491 C 0.05973 0.7273 0.09536 0.0
C2492 C 0.96763 0.7586 0.09551 0.0
C2493 C 0.94222 0.77377 0.0706 0.0
N2494 N 0.03107 0.73887 0.09501 0.0
N2495 N 0.97035 0.7613 0.07131 0.0
loop_
_geom_bond_atom_site_label_1
_geom_bond_atom_site_label_2
_geom_bond_distance
_geom_bond_site_symmetry_2
_ccdc_geom_bond_type
Co0 N4 2.148 . S
Co0 N10 2.128 . S
Co0 N20 2.194 . S
Co0 O25 2.351 . S
Co0 O26 2.155 . S
Co0 O27 2.096 . S
C1 N4 1.301 . S
C1 N5 1.328 1_545 S
C1 H6 0.930 . S
C2 C3 1.333 1_545 S
C2 N4 1.317 . S
C2 H7 0.930 . S
C3 C2 1.333 1_565 S
C3 N5 1.350 . S
C3 H29 0.931 . S
N4 Co0 2.148 . S
N4 C1 1.301 . S
N4 C2 1.317 . S
N5 C1 1.328 1_565 S
N5 C3 1.350 . S
H6 C1 0.930 . S
H7 C2 0.930 . S
C8 O9 1.224 . S
C8 O27 1.247 1_655 S
O9 C8 1.224 . S
N10 Co0 2.128 . S
N10 C11 1.355 . S
N10 C13 1.311 . S
C11 N10 1.355 . S
C11 C12 1.363 . S
C11 H23 0.929 . S
C12 C11 1.363 . S
C12 N14 1.375 . S
C12 H30 0.931 . S
C13 N10 1.311 . S
C13 N14 1.347 . S
C13 H24 0.926 1_455 S
N14 C12 1.375 . S
N14 C13 1.347 . S
C15 C18 1.365 . S
C15 N20 1.328 . S
C15 H21 0.929 . S
C16 C17 1.362 . S
C16 C19 1.378 . S
C16 H31 0.929 . S
C17 C16 1.362 . S
C17 C18 1.366 . S
C18 C15 1.365 . S
C18 C17 1.366 . S
C18 H32 0.930 . S
C19 C16 1.378 . S
C19 N20 1.315 . S
C19 H22 0.930 . S
N20 Co0 2.194 . S
N20 C15 1.328 . S
N20 C19 1.315 . S
H21 C15 0.929 . S
H22 C19 0.930 . S
H23 C11 0.929 . S
H24 C13 0.926 1_655 S
O25 Co0 2.351 . S
O25 C28 1.244 . S
O26 Co0 2.155 . S
O26 C28 1.240 . S
O27 Co0 2.096 . S
O27 C8 1.247 1_455 S
C28 O25 1.244 . S
C28 O26 1.240 . S
H29 C3 0.931 . S
H30 C12 0.931 . S
H31 C16 0.929 . S
H32 C18 0.930 . S
Co33 N37 2.148 . S
Co33 N43 2.128 . S
Co33 N53 2.194 . S
Co33 O58 2.351 . S
Co33 O59 2.155 . S
Co33 O60 2.096 . S
C34 N37 1.301 . S
C34 N38 1.328 . S
C34 H39 0.930 . S
C35 C36 1.333 . S
C35 N37 1.317 . S
C35 H40 0.930 . S
C36 C35 1.333 . S
C36 N38 1.350 . S
C36 H62 0.931 . S
N37 Co33 2.148 . S
N37 C34 1.301 . S
N37 C35 1.317 . S
N38 C34 1.328 . S
N38 C36 1.350 . S
H39 C34 0.930 . S
H40 C35 0.930 . S
C41 O42 1.224 . S
C41 O60 1.247 . S
O42 C41 1.224 . S
N43 Co33 2.128 . S
N43 C44 1.355 . S
N43 C46 1.311 . S
C44 N43 1.355 . S
C44 C45 1.363 . S
C44 H56 0.929 . S
C45 C44 1.363 . S
C45 N47 1.375 . S
C45 H63 0.931 . S
C46 N43 1.311 . S
C46 N47 1.347 . S
C46 H57 0.929 . S
N47 C45 1.375 . S
N47 C46 1.347 . S
C48 C51 1.365 . S
C48 N53 1.328 . S
C48 H54 0.929 . S
C49 C50 1.362 . S
C49 C52 1.378 . S
C49 H64 0.929 . S
C50 C49 1.362 . S
C50 C51 1.366 . S
C51 C48 1.365 . S
C51 C50 1.366 . S
C51 H65 0.930 . S
C52 C49 1.378 . S
C52 N53 1.315 . S
C52 H55 0.930 . S
N53 Co33 2.194 . S
N53 C48 1.328 . S
N53 C52 1.315 . S
H54 C48 0.929 . S
H55 C52 0.930 . S
H56 C44 0.929 . S
H57 C46 0.929 . S
O58 Co33 2.351 . S
O58 C61 1.244 . S
O59 Co33 2.155 . S
O59 C61 1.240 . S
O60 Co33 2.096 . S
O60 C41 1.247 . S
C61 O58 1.244 . S
C61 O59 1.240 . S
H62 C36 0.931 . S
H63 C45 0.931 . S
H64 C49 0.929 . S
H65 C51 0.930 . S
Co66 N70 2.148 . S
Co66 N76 2.128 . S
Co66 N86 2.194 . S
Co66 O91 2.351 . S
Co66 O92 2.155 . S
Co66 O93 2.096 . S
C67 N70 1.301 . S
C67 N71 1.328 1_565 S
C67 H72 0.930 . S
C68 C69 1.333 1_565 S
C68 N70 1.317 . S
C68 H73 0.930 . S
C69 C68 1.333 1_545 S
C69 N71 1.350 . S
C69 H95 0.931 . S
N70 Co66 2.148 . S
N70 C67 1.301 . S
N70 C68 1.317 . S
N71 C67 1.328 1_545 S
N71 C69 1.350 . S
H72 C67 0.930 . S
H73 C68 0.930 . S
C74 O75 1.224 . S
C74 O93 1.247 . S
O75 C74 1.224 . S
N76 Co66 2.128 . S
N76 C77 1.355 . S
N76 C79 1.311 . S
C77 N76 1.355 . S
C77 C78 1.363 . S
C77 H89 0.929 . S
C78 C77 1.363 . S
C78 N80 1.375 . S
C78 H96 0.931 . S
C79 N76 1.311 . S
C79 N80 1.347 . S
C79 H90 0.929 . S
N80 C78 1.375 . S
N80 C79 1.347 . S
C81 C84 1.365 . S
C81 N86 1.328 . S
C81 H87 0.929 . S
C82 C83 1.362 . S
C82 C85 1.378 . S
C82 H97 0.929 . S
C83 C82 1.362 . S
C83 C84 1.366 . S
C84 C81 1.365 . S
C84 C83 1.366 . S
C84 H98 0.930 . S
C85 C82 1.378 . S
C85 N86 1.315 . S
C85 H88 0.930 . S
N86 Co66 2.194 . S
N86 C81 1.328 . S
N86 C85 1.315 . S
H87 C81 0.929 . S
H88 C85 0.930 . S
H89 C77 0.929 . S
H90 C79 0.929 . S
O91 Co66 2.351 . S
O91 C94 1.244 . S
O92 Co66 2.155 . S
O92 C94 1.240 . S
O93 Co66 2.096 . S
O93 C74 1.247 . S
C94 O91 1.244 . S
C94 O92 1.240 . S
H95 C69 0.931 . S
H96 C78 0.931 . S
H97 C82 0.929 . S
H98 C84 0.930 . S
Co99 N103 2.148 . S
Co99 N109 2.128 . S
Co99 N119 2.194 . S
Co99 O124 2.351 . S
Co99 O125 2.155 . S
Co99 O126 2.096 . S
C100 N103 1.301 . S
C100 N104 1.328 . S
C100 H105 0.930 . S
C101 C102 1.333 . S
C101 N103 1.317 . S
C101 H106 0.930 . S
C102 C101 1.333 . S
C102 N104 1.350 . S
C102 H128 0.931 . S
N103 Co99 2.148 . S
N103 C100 1.301 . S
N103 C101 1.317 . S
N104 C100 1.328 . S
N104 C102 1.350 . S
H105 C100 0.930 . S
H106 C101 0.930 . S
C107 O108 1.224 . S
C107 O126 1.247 . S
O108 C107 1.224 . S
N109 Co99 2.128 . S
N109 C110 1.355 . S
N109 C112 1.311 . S
C110 N109 1.355 . S
C110 C111 1.363 . S
C110 H122 0.929 . S
C111 C110 1.363 . S
C111 N113 1.375 . S
C111 H129 0.931 . S
C112 N109 1.311 . S
C112 N113 1.347 . S
C112 H123 0.929 . S
N113 C111 1.375 . S
N113 C112 1.347 . S
C114 C117 1.365 . S
C114 N119 1.328 . S
C114 H120 0.929 . S
C115 C116 1.362 . S
C115 C118 1.378 . S
C115 H130 0.929 . S
C116 C115 1.362 . S
C116 C117 1.366 . S
C117 C114 1.365 . S
C117 C116 1.366 . S
C117 H131 0.930 . S
C118 C115 1.378 . S
C118 N119 1.315 . S
C118 H121 0.930 . S
N119 Co99 2.194 . S
N119 C114 1.328 . S
N119 C118 1.315 . S
H120 C114 0.929 . S
H121 C118 0.930 . S
H122 C110 0.929 . S
H123 C112 0.929 . S
O124 Co99 2.351 . S
O124 C127 1.244 . S
O125 Co99 2.155 . S
O125 C127 1.240 . S
O126 Co99 2.096 . S
O126 C107 1.247 . S
C127 O124 1.244 . S
C127 O125 1.240 . S
H128 C102 0.931 . S
H129 C111 0.931 . S
H130 C115 0.929 . S
H131 C117 0.930 . S
Co132 N136 2.148 . S
Co132 N142 2.128 . S
Co132 N152 2.194 . S
Co132 O157 2.351 . S
Co132 O158 2.155 . S
Co132 O159 2.096 . S
C133 N136 1.301 . S
C133 N137 1.328 1_565 S
C133 H138 0.930 . S
C134 C135 1.333 1_565 S
C134 N136 1.317 . S
C134 H139 0.930 . S
C135 C134 1.333 1_545 S
C135 N137 1.350 . S
C135 H161 0.931 . S
N136 Co132 2.148 . S
N136 C133 1.301 . S
N136 C134 1.317 . S
N137 C133 1.328 1_545 S
N137 C135 1.350 . S
H138 C133 0.930 . S
H139 C134 0.930 . S
C140 O141 1.224 . S
C140 O159 1.247 1_655 S
O141 C140 1.224 . S
N142 Co132 2.128 . S
N142 C143 1.355 . S
N142 C145 1.311 . S
C143 N142 1.355 . S
C143 C144 1.363 . S
C143 H155 0.929 . S
C144 C143 1.363 . S
C144 N146 1.375 . S
C144 H162 0.931 . S
C145 N142 1.311 . S
C145 N146 1.347 . S
C145 H156 0.925 1_455 S
N146 C144 1.375 . S
N146 C145 1.347 . S
C147 C150 1.365 . S
C147 N152 1.328 . S
C147 H153 0.929 . S
C148 C149 1.362 . S
C148 C151 1.378 . S
C148 H163 0.929 . S
C149 C148 1.362 . S
C149 C150 1.366 . S
C150 C147 1.365 . S
C150 C149 1.366 . S
C150 H164 0.930 . S
C151 C148 1.378 . S
C151 N152 1.315 . S
C151 H154 0.930 . S
N152 Co132 2.194 . S
N152 C147 1.328 . S
N152 C151 1.315 . S
H153 C147 0.929 . S
H154 C151 0.930 . S
H155 C143 0.929 . S
H156 C145 0.925 1_655 S
O157 Co132 2.351 . S
O157 C160 1.244 . S
O158 Co132 2.155 . S
O158 C160 1.240 . S
O159 Co132 2.096 . S
O159 C140 1.247 1_455 S
C160 O157 1.244 . S
C160 O158 1.240 . S
H161 C135 0.931 . S
H162 C144 0.931 . S
H163 C148 0.929 . S
H164 C150 0.930 . S
Co165 N169 2.148 . S
Co165 N175 2.128 . S
Co165 N185 2.194 . S
Co165 O190 2.351 . S
Co165 O191 2.155 . S
Co165 O192 2.096 . S
C166 N169 1.301 . S
C166 N170 1.328 . S
C166 H171 0.930 . S
C167 C168 1.333 . S
C167 N169 1.317 . S
C167 H172 0.930 . S
C168 C167 1.333 . S
C168 N170 1.350 . S
C168 H194 0.931 . S
N169 Co165 2.148 . S
N169 C166 1.301 . S
N169 C167 1.317 . S
N170 C166 1.328 . S
N170 C168 1.350 . S
H171 C166 0.930 . S
H172 C167 0.930 . S
C173 O174 1.224 . S
C173 O192 1.247 . S
O174 C173 1.224 . S
N175 Co165 2.128 . S
N175 C176 1.355 . S
N175 C178 1.311 . S
C176 N175 1.355 . S
C176 C177 1.363 . S
C176 H188 0.929 . S
C177 C176 1.363 . S
C177 N179 1.375 . S
C177 H195 0.931 . S
C178 N175 1.311 . S
C178 N179 1.347 . S
C178 H189 0.929 . S
N179 C177 1.375 . S
N179 C178 1.347 . S
C180 C183 1.365 . S
C180 N185 1.328 . S
C180 H186 0.929 . S
C181 C182 1.362 . S
C181 C184 1.378 . S
C181 H196 0.929 . S
C182 C181 1.362 . S
C182 C183 1.366 . S
C183 C180 1.365 . S
C183 C182 1.366 . S
C183 H197 0.930 . S
C184 C181 1.378 . S
C184 N185 1.315 . S
C184 H187 0.930 . S
N185 Co165 2.194 . S
N185 C180 1.328 . S
N185 C184 1.315 . S
H186 C180 0.929 . S
H187 C184 0.930 . S
H188 C176 0.929 . S
H189 C178 0.929 . S
O190 Co165 2.351 . S
O190 C193 1.244 . S
O191 Co165 2.155 . S
O191 C193 1.240 . S
O192 Co165 2.096 . S
O192 C173 1.247 . S
C193 O190 1.244 . S
C193 O191 1.240 . S
H194 C168 0.931 . S
H195 C177 0.931 . S
H196 C181 0.929 . S
H197 C183 0.930 . S
Co198 N202 2.148 . S
Co198 N208 2.128 . S
Co198 N218 2.194 . S
Co198 O223 2.351 . S
Co198 O224 2.155 . S
Co198 O225 2.096 . S
C199 N202 1.301 . S
C199 N203 1.328 1_545 S
C199 H204 0.930 . S
C200 C201 1.333 1_545 S
C200 N202 1.317 . S
C200 H205 0.930 . S
C201 C200 1.333 1_565 S
C201 N203 1.350 . S
C201 H227 0.931 . S
N202 Co198 2.148 . S
N202 C199 1.301 . S
N202 C200 1.317 . S
N203 C199 1.328 1_565 S
N203 C201 1.350 . S
H204 C199 0.930 . S
H205 C200 0.930 . S
C206 O207 1.224 . S
C206 O225 1.247 . S
O207 C206 1.224 . S
N208 Co198 2.128 . S
N208 C209 1.355 . S
N208 C211 1.311 . S
C209 N208 1.355 . S
C209 C210 1.363 . S
C209 H221 0.929 . S
C210 C209 1.363 . S
C210 N212 1.375 . S
C210 H228 0.931 . S
C211 N208 1.311 . S
C211 N212 1.347 . S
C211 H222 0.929 . S
N212 C210 1.375 . S
N212 C211 1.347 . S
C213 C216 1.365 . S
C213 N218 1.328 . S
C213 H219 0.929 . S
C214 C215 1.362 . S
C214 C217 1.378 . S
C214 H229 0.929 . S
C215 C214 1.362 . S
C215 C216 1.366 . S
C216 C213 1.365 . S
C216 C215 1.366 . S
C216 H230 0.930 . S
C217 C214 1.378 . S
C217 N218 1.315 . S
C217 H220 0.930 . S
N218 Co198 2.194 . S
N218 C213 1.328 . S
N218 C217 1.315 . S
H219 C213 0.929 . S
H220 C217 0.930 . S
H221 C209 0.929 . S
H222 C211 0.929 . S
O223 Co198 2.351 . S
O223 C226 1.244 . S
O224 Co198 2.155 . S
O224 C226 1.240 . S
O225 Co198 2.096 . S
O225 C206 1.247 . S
C226 O223 1.244 . S
C226 O224 1.240 . S
H227 C201 0.931 . S
H228 C210 0.931 . S
H229 C214 0.929 . S
H230 C216 0.930 . S
Co231 N235 2.148 . S
Co231 N241 2.128 . S
Co231 N251 2.194 . S
Co231 O256 2.351 . S
Co231 O257 2.155 . S
Co231 O258 2.096 . S
C232 N235 1.301 . S
C232 N236 1.328 . S
C232 H237 0.930 . S
C233 C234 1.333 . S
C233 N235 1.317 . S
C233 H238 0.930 . S
C234 C233 1.333 . S
C234 N236 1.350 . S
C234 H260 0.931 . S
N235 Co231 2.148 . S
N235 C232 1.301 . S
N235 C233 1.317 . S
N236 C232 1.328 . S
N236 C234 1.350 . S
H237 C232 0.930 . S
H238 C233 0.930 . S
C239 O240 1.224 . S
C239 O258 1.247 . S
O240 C239 1.224 . S
N241 Co231 2.128 . S
N241 C242 1.355 . S
N241 C244 1.311 . S
C242 N241 1.355 . S
C242 C243 1.363 . S
C242 H254 0.929 . S
C243 C242 1.363 . S
C243 N245 1.375 . S
C243 H261 0.931 . S
C244 N241 1.311 . S
C244 N245 1.347 . S
C244 H255 0.929 . S
N245 C243 1.375 . S
N245 C244 1.347 . S
C246 C249 1.365 . S
C246 N251 1.328 . S
C246 H252 0.929 . S
C247 C248 1.362 . S
C247 C250 1.378 . S
C247 H262 0.929 . S
C248 C247 1.362 . S
C248 C249 1.366 . S
C249 C246 1.365 . S
C249 C248 1.366 . S
C249 H263 0.930 . S
C250 C247 1.378 . S
C250 N251 1.315 . S
C250 H253 0.930 . S
N251 Co231 2.194 . S
N251 C246 1.328 . S
N251 C250 1.315 . S
H252 C246 0.929 . S
H253 C250 0.930 . S
H254 C242 0.929 . S
H255 C244 0.929 . S
O256 Co231 2.351 . S
O256 C259 1.244 . S
O257 Co231 2.155 . S
O257 C259 1.240 . S
O258 Co231 2.096 . S
O258 C239 1.247 . S
C259 O256 1.244 . S
C259 O257 1.240 . S
H260 C234 0.931 . S
H261 C243 0.931 . S
H262 C247 0.929 . S
H263 C249 0.930 . S
Co264 N268 2.148 . S
Co264 N274 2.128 . S
Co264 N284 2.194 . S
Co264 O289 2.351 . S
Co264 O290 2.155 . S
Co264 O291 2.096 . S
C265 N268 1.301 . S
C265 N269 1.328 1_565 S
C265 H270 0.930 . S
C266 C267 1.333 1_565 S
C266 N268 1.317 . S
C266 H271 0.930 . S
C267 C266 1.333 1_545 S
C267 N269 1.350 . S
C267 H293 0.931 . S
N268 Co264 2.148 . S
N268 C265 1.301 . S
N268 C266 1.317 . S
N269 C265 1.328 1_545 S
N269 C267 1.350 . S
H270 C265 0.930 . S
H271 C266 0.930 . S
C272 O273 1.224 . S
C272 O291 1.247 1_455 S
O273 C272 1.224 . S
N274 Co264 2.128 . S
N274 C275 1.355 . S
N274 C277 1.311 . S
C275 N274 1.355 . S
C275 C276 1.363 . S
C275 H287 0.929 . S
C276 C275 1.363 . S
C276 N278 1.375 . S
C276 H294 0.931 . S
C277 N274 1.311 . S
C277 N278 1.347 . S
C277 H288 0.926 1_655 S
N278 C276 1.375 . S
N278 C277 1.347 . S
C279 C282 1.365 . S
C279 N284 1.328 . S
C279 H285 0.929 . S
C280 C281 1.362 . S
C280 C283 1.378 . S
C280 H295 0.929 . S
C281 C280 1.362 . S
C281 C282 1.366 . S
C282 C279 1.365 . S
C282 C281 1.366 . S
C282 H296 0.930 . S
C283 C280 1.378 . S
C283 N284 1.315 . S
C283 H286 0.930 . S
N284 Co264 2.194 . S
N284 C279 1.328 . S
N284 C283 1.315 . S
H285 C279 0.929 . S
H286 C283 0.930 . S
H287 C275 0.929 . S
H288 C277 0.926 1_455 S
O289 Co264 2.351 . S
O289 C292 1.244 . S
O290 Co264 2.155 . S
O290 C292 1.240 . S
O291 Co264 2.096 . S
O291 C272 1.247 1_655 S
C292 O289 1.244 . S
C292 O290 1.240 . S
H293 C267 0.931 . S
H294 C276 0.931 . S
H295 C280 0.929 . S
H296 C282 0.930 . S
Co297 N301 2.148 . S
Co297 N307 2.128 . S
Co297 N317 2.194 . S
Co297 O322 2.351 . S
Co297 O323 2.155 . S
Co297 O324 2.096 . S
C298 N301 1.301 . S
C298 N302 1.328 . S
C298 H303 0.930 . S
C299 C300 1.333 . S
C299 N301 1.317 . S
C299 H304 0.930 . S
C300 C299 1.333 . S
C300 N302 1.350 . S
C300 H326 0.931 . S
N301 Co297 2.148 . S
N301 C298 1.301 . S
N301 C299 1.317 . S
N302 C298 1.328 . S
N302 C300 1.350 . S
H303 C298 0.930 . S
H304 C299 0.930 . S
C305 O306 1.224 . S
C305 O324 1.247 . S
O306 C305 1.224 . S
N307 Co297 2.128 . S
N307 C308 1.355 . S
N307 C310 1.311 . S
C308 N307 1.355 . S
C308 C309 1.363 . S
C308 H320 0.929 . S
C309 C308 1.363 . S
C309 N311 1.375 . S
C309 H327 0.931 . S
C310 N307 1.311 . S
C310 N311 1.347 . S
C310 H321 0.929 . S
N311 C309 1.375 . S
N311 C310 1.347 . S
C312 C315 1.365 . S
C312 N317 1.328 . S
C312 H318 0.929 . S
C313 C314 1.362 . S
C313 C316 1.378 . S
C313 H328 0.929 . S
C314 C313 1.362 . S
C314 C315 1.366 . S
C315 C312 1.365 . S
C315 C314 1.366 . S
C315 H329 0.930 . S
C316 C313 1.378 . S
C316 N317 1.315 . S
C316 H319 0.930 . S
N317 Co297 2.194 . S
N317 C312 1.328 . S
N317 C316 1.315 . S
H318 C312 0.929 . S
H319 C316 0.930 . S
H320 C308 0.929 . S
H321 C310 0.929 . S
O322 Co297 2.351 . S
O322 C325 1.244 . S
O323 Co297 2.155 . S
O323 C325 1.240 . S
O324 Co297 2.096 . S
O324 C305 1.247 . S
C325 O322 1.244 . S
C325 O323 1.240 . S
H326 C300 0.931 . S
H327 C309 0.931 . S
H328 C313 0.929 . S
H329 C315 0.930 . S
Co330 N334 2.148 . S
Co330 N340 2.128 . S
Co330 N350 2.194 . S
Co330 O355 2.351 . S
Co330 O356 2.155 . S
Co330 O357 2.096 . S
C331 N334 1.301 . S
C331 N335 1.328 1_545 S
C331 H336 0.930 . S
C332 C333 1.333 1_545 S
C332 N334 1.317 . S
C332 H337 0.930 . S
C333 C332 1.333 1_565 S
C333 N335 1.350 . S
C333 H359 0.931 . S
N334 Co330 2.148 . S
N334 C331 1.301 . S
N334 C332 1.317 . S
N335 C331 1.328 1_565 S
N335 C333 1.350 . S
H336 C331 0.930 . S
H337 C332 0.930 . S
C338 O339 1.224 . S
C338 O357 1.247 . S
O339 C338 1.224 . S
N340 Co330 2.128 . S
N340 C341 1.355 . S
N340 C343 1.311 . S
C341 N340 1.355 . S
C341 C342 1.363 . S
C341 H353 0.929 . S
C342 C341 1.363 . S
C342 N344 1.375 . S
C342 H360 0.931 . S
C343 N340 1.311 . S
C343 N344 1.347 . S
C343 H354 0.929 . S
N344 C342 1.375 . S
N344 C343 1.347 . S
C345 C348 1.365 . S
C345 N350 1.328 . S
C345 H351 0.929 . S
C346 C347 1.362 . S
C346 C349 1.378 . S
C346 H361 0.929 . S
C347 C346 1.362 . S
C347 C348 1.366 . S
C348 C345 1.365 . S
C348 C347 1.366 . S
C348 H362 0.930 . S
C349 C346 1.378 . S
C349 N350 1.315 . S
C349 H352 0.930 . S
N350 Co330 2.194 . S
N350 C345 1.328 . S
N350 C349 1.315 . S
H351 C345 0.929 . S
H352 C349 0.930 . S
H353 C341 0.929 . S
H354 C343 0.929 . S
O355 Co330 2.351 . S
O355 C358 1.244 . S
O356 Co330 2.155 . S
O356 C358 1.240 . S
O357 Co330 2.096 . S
O357 C338 1.247 . S
C358 O355 1.244 . S
C358 O356 1.240 . S
H359 C333 0.931 . S
H360 C342 0.931 . S
H361 C346 0.929 . S
H362 C348 0.930 . S
Co363 N367 2.148 . S
Co363 N373 2.128 . S
Co363 N383 2.194 . S
Co363 O388 2.351 . S
Co363 O389 2.155 . S
Co363 O390 2.096 . S
C364 N367 1.301 . S
C364 N368 1.328 . S
C364 H369 0.930 . S
C365 C366 1.333 . S
C365 N367 1.317 . S
C365 H370 0.930 . S
C366 C365 1.333 . S
C366 N368 1.350 . S
C366 H392 0.931 . S
N367 Co363 2.148 . S
N367 C364 1.301 . S
N367 C365 1.317 . S
N368 C364 1.328 . S
N368 C366 1.350 . S
H369 C364 0.930 . S
H370 C365 0.930 . S
C371 O372 1.224 . S
C371 O390 1.247 . S
O372 C371 1.224 . S
N373 Co363 2.128 . S
N373 C374 1.355 . S
N373 C376 1.311 . S
C374 N373 1.355 . S
C374 C375 1.363 . S
C374 H386 0.929 . S
C375 C374 1.363 . S
C375 N377 1.375 . S
C375 H393 0.931 . S
C376 N373 1.311 . S
C376 N377 1.347 . S
C376 H387 0.929 . S
N377 C375 1.375 . S
N377 C376 1.347 . S
C378 C381 1.365 . S
C378 N383 1.328 . S
C378 H384 0.929 . S
C379 C380 1.362 . S
C379 C382 1.378 . S
C379 H394 0.929 . S
C380 C379 1.362 . S
C380 C381 1.366 . S
C381 C378 1.365 . S
C381 C380 1.366 . S
C381 H395 0.930 . S
C382 C379 1.378 . S
C382 N383 1.315 . S
C382 H385 0.930 . S
N383 Co363 2.194 . S
N383 C378 1.328 . S
N383 C382 1.315 . S
H384 C378 0.929 . S
H385 C382 0.930 . S
H386 C374 0.929 . S
H387 C376 0.929 . S
O388 Co363 2.351 . S
O388 C391 1.244 . S
O389 Co363 2.155 . S
O389 C391 1.240 . S
O390 Co363 2.096 . S
O390 C371 1.247 . S
C391 O388 1.244 . S
C391 O389 1.240 . S
H392 C366 0.931 . S
H393 C375 0.931 . S
H394 C379 0.929 . S
H395 C381 0.930 . S
Co396 N400 2.148 . S
Co396 N406 2.128 . S
Co396 N416 2.194 . S
Co396 O421 2.351 . S
Co396 O422 2.155 . S
Co396 O423 2.096 . S
C397 N400 1.301 . S
C397 N401 1.328 1_545 S
C397 H402 0.930 . S
C398 C399 1.333 1_545 S
C398 N400 1.317 . S
C398 H403 0.930 . S
C399 C398 1.333 1_565 S
C399 N401 1.350 . S
C399 H425 0.931 . S
N400 Co396 2.148 . S
N400 C397 1.301 . S
N400 C398 1.317 . S
N401 C397 1.328 1_565 S
N401 C399 1.350 . S
H402 C397 0.930 . S
H403 C398 0.930 . S
C404 O405 1.224 . S
C404 O423 1.247 1_455 S
O405 C404 1.224 . S
N406 Co396 2.128 . S
N406 C407 1.355 . S
N406 C409 1.311 . S
C407 N406 1.355 . S
C407 C408 1.363 . S
C407 H419 0.929 . S
C408 C407 1.363 . S
C408 N410 1.375 . S
C408 H426 0.931 . S
C409 N406 1.311 . S
C409 N410 1.347 . S
C409 H420 0.925 1_655 S
N410 C408 1.375 . S
N410 C409 1.347 . S
C411 C414 1.365 . S
C411 N416 1.328 . S
C411 H417 0.929 . S
C412 C413 1.362 . S
C412 C415 1.378 . S
C412 H427 0.929 . S
C413 C412 1.362 . S
C413 C414 1.366 . S
C414 C411 1.365 . S
C414 C413 1.366 . S
C414 H428 0.930 . S
C415 C412 1.378 . S
C415 N416 1.315 . S
C415 H418 0.930 . S
N416 Co396 2.194 . S
N416 C411 1.328 . S
N416 C415 1.315 . S
H417 C411 0.929 . S
H418 C415 0.930 . S
H419 C407 0.929 . S
H420 C409 0.925 1_455 S
O421 Co396 2.351 . S
O421 C424 1.244 . S
O422 Co396 2.155 . S
O422 C424 1.240 . S
O423 Co396 2.096 . S
O423 C404 1.247 1_655 S
C424 O421 1.244 . S
C424 O422 1.240 . S
H425 C399 0.931 . S
H426 C408 0.931 . S
H427 C412 0.929 . S
H428 C414 0.930 . S
Co429 N433 2.148 . S
Co429 N439 2.128 . S
Co429 N449 2.194 . S
Co429 O454 2.351 . S
Co429 O455 2.155 . S
Co429 O456 2.096 . S
C430 N433 1.301 . S
C430 N434 1.328 . S
C430 H435 0.930 . S
C431 C432 1.333 . S
C431 N433 1.317 . S
C431 H436 0.930 . S
C432 C431 1.333 . S
C432 N434 1.350 . S
C432 H458 0.931 . S
N433 Co429 2.148 . S
N433 C430 1.301 . S
N433 C431 1.317 . S
N434 C430 1.328 . S
N434 C432 1.350 . S
H435 C430 0.930 . S
H436 C431 0.930 . S
C437 O438 1.224 . S
C437 O456 1.247 . S
O438 C437 1.224 . S
N439 Co429 2.128 . S
N439 C440 1.355 . S
N439 C442 1.311 . S
C440 N439 1.355 . S
C440 C441 1.363 . S
C440 H452 0.929 . S
C441 C440 1.363 . S
C441 N443 1.375 . S
C441 H459 0.931 . S
C442 N439 1.311 . S
C442 N443 1.347 . S
C442 H453 0.929 . S
N443 C441 1.375 . S
N443 C442 1.347 . S
C444 C447 1.365 . S
C444 N449 1.328 . S
C444 H450 0.929 . S
C445 C446 1.362 . S
C445 C448 1.378 . S
C445 H460 0.929 . S
C446 C445 1.362 . S
C446 C447 1.366 . S
C447 C444 1.365 . S
C447 C446 1.366 . S
C447 H461 0.930 . S
C448 C445 1.378 . S
C448 N449 1.315 . S
C448 H451 0.930 . S
N449 Co429 2.194 . S
N449 C444 1.328 . S
N449 C448 1.315 . S
H450 C444 0.929 . S
H451 C448 0.930 . S
H452 C440 0.929 . S
H453 C442 0.929 . S
O454 Co429 2.351 . S
O454 C457 1.244 . S
O455 Co429 2.155 . S
O455 C457 1.240 . S
O456 Co429 2.096 . S
O456 C437 1.247 . S
C457 O454 1.244 . S
C457 O455 1.240 . S
H458 C432 0.931 . S
H459 C441 0.931 . S
H460 C445 0.929 . S
H461 C447 0.930 . S
Co462 N466 2.148 . S
Co462 N472 2.128 . S
Co462 N482 2.194 . S
Co462 O487 2.351 . S
Co462 O488 2.155 . S
Co462 O489 2.096 . S
C463 N466 1.301 . S
C463 N467 1.328 1_565 S
C463 H468 0.930 . S
C464 C465 1.333 1_565 S
C464 N466 1.317 . S
C464 H469 0.930 . S
C465 C464 1.333 1_545 S
C465 N467 1.350 . S
C465 H491 0.931 . S
N466 Co462 2.148 . S
N466 C463 1.301 . S
N466 C464 1.317 . S
N467 C463 1.328 1_545 S
N467 C465 1.350 . S
H468 C463 0.930 . S
H469 C464 0.930 . S
C470 O471 1.224 . S
C470 O489 1.247 . S
O471 C470 1.224 . S
N472 Co462 2.128 . S
N472 C473 1.355 . S
N472 C475 1.311 . S
C473 N472 1.355 . S
C473 C474 1.363 . S
C473 H485 0.929 . S
C474 C473 1.363 . S
C474 N476 1.375 . S
C474 H492 0.931 . S
C475 N472 1.311 . S
C475 N476 1.347 . S
C475 H486 0.929 . S
N476 C474 1.375 . S
N476 C475 1.347 . S
C477 C480 1.365 . S
C477 N482 1.328 . S
C477 H483 0.929 . S
C478 C479 1.362 . S
C478 C481 1.378 . S
C478 H493 0.929 . S
C479 C478 1.362 . S
C479 C480 1.366 . S
C480 C477 1.365 . S
C480 C479 1.366 . S
C480 H494 0.930 . S
C481 C478 1.378 . S
C481 N482 1.315 . S
C481 H484 0.930 . S
N482 Co462 2.194 . S
N482 C477 1.328 . S
N482 C481 1.315 . S
H483 C477 0.929 . S
H484 C481 0.930 . S
H485 C473 0.929 . S
H486 C475 0.929 . S
O487 Co462 2.351 . S
O487 C490 1.244 . S
O488 Co462 2.155 . S
O488 C490 1.240 . S
O489 Co462 2.096 . S
O489 C470 1.247 . S
C490 O487 1.244 . S
C490 O488 1.240 . S
H491 C465 0.931 . S
H492 C474 0.931 . S
H493 C478 0.929 . S
H494 C480 0.930 . S
Co495 N499 2.148 . S
Co495 N505 2.128 . S
Co495 N515 2.194 . S
Co495 O520 2.351 . S
Co495 O521 2.155 . S
Co495 O522 2.096 . S
C496 N499 1.301 . S
C496 N500 1.328 . S
C496 H501 0.930 . S
C497 C498 1.333 . S
C497 N499 1.317 . S
C497 H502 0.930 . S
C498 C497 1.333 . S
C498 N500 1.350 . S
C498 H524 0.931 . S
N499 Co495 2.148 . S
N499 C496 1.301 . S
N499 C497 1.317 . S
N500 C496 1.328 . S
N500 C498 1.350 . S
H501 C496 0.930 . S
H502 C497 0.930 . S
C503 O504 1.224 . S
C503 O522 1.247 . S
O504 C503 1.224 . S
N505 Co495 2.128 . S
N505 C506 1.355 . S
N505 C508 1.311 . S
C506 N505 1.355 . S
C506 C507 1.363 . S
C506 H518 0.929 . S
C507 C506 1.363 . S
C507 N509 1.375 . S
C507 H525 0.931 . S
C508 N505 1.311 . S
C508 N509 1.347 . S
C508 H519 0.929 . S
N509 C507 1.375 . S
N509 C508 1.347 . S
C510 C513 1.365 . S
C510 N515 1.328 . S
C510 H516 0.929 . S
C511 C512 1.362 . S
C511 C514 1.378 . S
C511 H526 0.929 . S
C512 C511 1.362 . S
C512 C513 1.366 . S
C513 C510 1.365 . S
C513 C512 1.366 . S
C513 H527 0.930 . S
C514 C511 1.378 . S
C514 N515 1.315 . S
C514 H517 0.930 . S
N515 Co495 2.194 . S
N515 C510 1.328 . S
N515 C514 1.315 . S
H516 C510 0.929 . S
H517 C514 0.930 . S
H518 C506 0.929 . S
H519 C508 0.929 . S
O520 Co495 2.351 . S
O520 C523 1.244 . S
O521 Co495 2.155 . S
O521 C523 1.240 . S
O522 Co495 2.096 . S
O522 C503 1.247 . S
C523 O520 1.244 . S
C523 O521 1.240 . S
H524 C498 0.931 . S
H525 C507 0.931 . S
H526 C511 0.929 . S
H527 C513 0.930 . S
Co528 N532 2.148 . S
Co528 N538 2.128 . S
Co528 N548 2.194 . S
Co528 O553 2.351 . S
Co528 O554 2.155 . S
Co528 O555 2.096 . S
C529 N532 1.301 . S
C529 N533 1.328 . S
C529 H534 0.930 . S
C530 C531 1.333 . S
C530 N532 1.317 . S
C530 H535 0.930 . S
C531 C530 1.333 . S
C531 N533 1.350 . S
C531 H557 0.931 . S
N532 Co528 2.148 . S
N532 C529 1.301 . S
N532 C530 1.317 . S
N533 C529 1.328 . S
N533 C531 1.350 . S
H534 C529 0.930 . S
H535 C530 0.930 . S
C536 O537 1.224 . S
C536 O555 1.247 . S
O537 C536 1.224 . S
N538 Co528 2.128 . S
N538 C539 1.355 . S
N538 C541 1.311 . S
C539 N538 1.355 . S
C539 C540 1.363 . S
C539 H551 0.929 . S
C540 C539 1.363 . S
C540 N542 1.375 . S
C540 H558 0.931 . S
C541 N538 1.311 . S
C541 N542 1.347 . S
C541 H552 0.929 . S
N542 C540 1.375 . S
N542 C541 1.347 . S
C543 C546 1.365 . S
C543 N548 1.328 . S
C543 H549 0.929 . S
C544 C545 1.362 . S
C544 C547 1.378 . S
C544 H559 0.929 . S
C545 C544 1.362 . S
C545 C546 1.366 . S
C546 C543 1.365 . S
C546 C545 1.366 . S
C546 H560 0.930 . S
C547 C544 1.378 . S
C547 N548 1.315 . S
C547 H550 0.930 . S
N548 Co528 2.194 . S
N548 C543 1.328 . S
N548 C547 1.315 . S
H549 C543 0.929 . S
H550 C547 0.930 . S
H551 C539 0.929 . S
H552 C541 0.929 . S
O553 Co528 2.351 . S
O553 C556 1.244 . S
O554 Co528 2.155 . S
O554 C556 1.240 . S
O555 Co528 2.096 . S
O555 C536 1.247 . S
C556 O553 1.244 . S
C556 O554 1.240 . S
H557 C531 0.931 . S
H558 C540 0.931 . S
H559 C544 0.929 . S
H560 C546 0.930 . S
Co561 N565 2.148 . S
Co561 N571 2.128 . S
Co561 N581 2.194 . S
Co561 O586 2.351 . S
Co561 O587 2.155 . S
Co561 O588 2.096 . S
C562 N565 1.301 . S
C562 N566 1.328 . S
C562 H567 0.930 . S
C563 C564 1.333 . S
C563 N565 1.317 . S
C563 H568 0.930 . S
C564 C563 1.333 . S
C564 N566 1.350 . S
C564 H590 0.931 . S
N565 Co561 2.148 . S
N565 C562 1.301 . S
N565 C563 1.317 . S
N566 C562 1.328 . S
N566 C564 1.350 . S
H567 C562 0.930 . S
H568 C563 0.930 . S
C569 O570 1.224 . S
C569 O588 1.247 . S
O570 C569 1.224 . S
N571 Co561 2.128 . S
N571 C572 1.355 . S
N571 C574 1.311 . S
C572 N571 1.355 . S
C572 C573 1.363 . S
C572 H584 0.929 . S
C573 C572 1.363 . S
C573 N575 1.375 . S
C573 H591 0.931 . S
C574 N571 1.311 . S
C574 N575 1.347 . S
C574 H585 0.929 . S
N575 C573 1.375 . S
N575 C574 1.347 . S
C576 C579 1.365 . S
C576 N581 1.328 . S
C576 H582 0.929 . S
C577 C578 1.362 . S
C577 C580 1.378 . S
C577 H592 0.929 . S
C578 C577 1.362 . S
C578 C579 1.366 . S
C579 C576 1.365 . S
C579 C578 1.366 . S
C579 H593 0.930 . S
C580 C577 1.378 . S
C580 N581 1.315 . S
C580 H583 0.930 . S
N581 Co561 2.194 . S
N581 C576 1.328 . S
N581 C580 1.315 . S
H582 C576 0.929 . S
H583 C580 0.930 . S
H584 C572 0.929 . S
H585 C574 0.929 . S
O586 Co561 2.351 . S
O586 C589 1.244 . S
O587 Co561 2.155 . S
O587 C589 1.240 . S
O588 Co561 2.096 . S
O588 C569 1.247 . S
C589 O586 1.244 . S
C589 O587 1.240 . S
H590 C564 0.931 . S
H591 C573 0.931 . S
H592 C577 0.929 . S
H593 C579 0.930 . S
Co594 N598 2.148 . S
Co594 N604 2.128 . S
Co594 N614 2.194 . S
Co594 O619 2.351 . S
Co594 O620 2.155 . S
Co594 O621 2.096 . S
C595 N598 1.301 . S
C595 N599 1.328 . S
C595 H600 0.930 . S
C596 C597 1.333 . S
C596 N598 1.317 . S
C596 H601 0.930 . S
C597 C596 1.333 . S
C597 N599 1.350 . S
C597 H623 0.931 . S
N598 Co594 2.148 . S
N598 C595 1.301 . S
N598 C596 1.317 . S
N599 C595 1.328 . S
N599 C597 1.350 . S
H600 C595 0.930 . S
H601 C596 0.930 . S
C602 O603 1.224 . S
C602 O621 1.247 1_455 S
O603 C602 1.224 . S
N604 Co594 2.128 . S
N604 C605 1.355 . S
N604 C607 1.311 . S
C605 N604 1.355 . S
C605 C606 1.363 . S
C605 H617 0.929 . S
C606 C605 1.363 . S
C606 N608 1.375 . S
C606 H624 0.931 . S
C607 N604 1.311 . S
C607 N608 1.347 . S
C607 H618 0.925 1_655 S
N608 C606 1.375 . S
N608 C607 1.347 . S
C609 C612 1.365 . S
C609 N614 1.328 . S
C609 H615 0.929 . S
C610 C611 1.362 . S
C610 C613 1.378 . S
C610 H625 0.929 . S
C611 C610 1.362 . S
C611 C612 1.366 . S
C612 C609 1.365 . S
C612 C611 1.366 . S
C612 H626 0.930 . S
C613 C610 1.378 . S
C613 N614 1.315 . S
C613 H616 0.930 . S
N614 Co594 2.194 . S
N614 C609 1.328 . S
N614 C613 1.315 . S
H615 C609 0.929 . S
H616 C613 0.930 . S
H617 C605 0.929 . S
H618 C607 0.925 1_455 S
O619 Co594 2.351 . S
O619 C622 1.244 . S
O620 Co594 2.155 . S
O620 C622 1.240 . S
O621 Co594 2.096 . S
O621 C602 1.247 1_655 S
C622 O619 1.244 . S
C622 O620 1.240 . S
H623 C597 0.931 . S
H624 C606 0.931 . S
H625 C610 0.929 . S
H626 C612 0.930 . S
Co627 N631 2.148 . S
Co627 N637 2.128 . S
Co627 N647 2.194 . S
Co627 O652 2.351 . S
Co627 O653 2.155 . S
Co627 O654 2.096 . S
C628 N631 1.301 . S
C628 N632 1.328 . S
C628 H633 0.930 . S
C629 C630 1.333 . S
C629 N631 1.317 . S
C629 H634 0.930 . S
C630 C629 1.333 . S
C630 N632 1.350 . S
C630 H656 0.931 . S
N631 Co627 2.148 . S
N631 C628 1.301 . S
N631 C629 1.317 . S
N632 C628 1.328 . S
N632 C630 1.350 . S
H633 C628 0.930 . S
H634 C629 0.930 . S
C635 O636 1.224 . S
C635 O654 1.247 . S
O636 C635 1.224 . S
N637 Co627 2.128 . S
N637 C638 1.355 . S
N637 C640 1.311 . S
C638 N637 1.355 . S
C638 C639 1.363 . S
C638 H650 0.929 . S
C639 C638 1.363 . S
C639 N641 1.375 . S
C639 H657 0.931 . S
C640 N637 1.311 . S
C640 N641 1.347 . S
C640 H651 0.929 . S
N641 C639 1.375 . S
N641 C640 1.347 . S
C642 C645 1.365 . S
C642 N647 1.328 . S
C642 H648 0.929 . S
C643 C644 1.362 . S
C643 C646 1.378 . S
C643 H658 0.929 . S
C644 C643 1.362 . S
C644 C645 1.366 . S
C645 C642 1.365 . S
C645 C644 1.366 . S
C645 H659 0.930 . S
C646 C643 1.378 . S
C646 N647 1.315 . S
C646 H649 0.930 . S
N647 Co627 2.194 . S
N647 C642 1.328 . S
N647 C646 1.315 . S
H648 C642 0.929 . S
H649 C646 0.930 . S
H650 C638 0.929 . S
H651 C640 0.929 . S
O652 Co627 2.351 . S
O652 C655 1.244 . S
O653 Co627 2.155 . S
O653 C655 1.240 . S
O654 Co627 2.096 . S
O654 C635 1.247 . S
C655 O652 1.244 . S
C655 O653 1.240 . S
H656 C630 0.931 . S
H657 C639 0.931 . S
H658 C643 0.929 . S
H659 C645 0.930 . S
Co660 N664 2.148 . S
Co660 N670 2.128 . S
Co660 N680 2.194 . S
Co660 O685 2.351 . S
Co660 O686 2.155 . S
Co660 O687 2.096 . S
C661 N664 1.301 . S
C661 N665 1.328 . S
C661 H666 0.930 . S
C662 C663 1.333 . S
C662 N664 1.317 . S
C662 H667 0.930 . S
C663 C662 1.333 . S
C663 N665 1.350 . S
C663 H689 0.931 . S
N664 Co660 2.148 . S
N664 C661 1.301 . S
N664 C662 1.317 . S
N665 C661 1.328 . S
N665 C663 1.350 . S
H666 C661 0.930 . S
H667 C662 0.930 . S
C668 O669 1.224 . S
C668 O687 1.247 . S
O669 C668 1.224 . S
N670 Co660 2.128 . S
N670 C671 1.355 . S
N670 C673 1.311 . S
C671 N670 1.355 . S
C671 C672 1.363 . S
C671 H683 0.929 . S
C672 C671 1.363 . S
C672 N674 1.375 . S
C672 H690 0.931 . S
C673 N670 1.311 . S
C673 N674 1.347 . S
C673 H684 0.929 . S
N674 C672 1.375 . S
N674 C673 1.347 . S
C675 C678 1.365 . S
C675 N680 1.328 . S
C675 H681 0.929 . S
C676 C677 1.362 . S
C676 C679 1.378 . S
C676 H691 0.929 . S
C677 C676 1.362 . S
C677 C678 1.366 . S
C678 C675 1.365 . S
C678 C677 1.366 . S
C678 H692 0.930 . S
C679 C676 1.378 . S
C679 N680 1.315 . S
C679 H682 0.930 . S
N680 Co660 2.194 . S
N680 C675 1.328 . S
N680 C679 1.315 . S
H681 C675 0.929 . S
H682 C679 0.930 . S
H683 C671 0.929 . S
H684 C673 0.929 . S
O685 Co660 2.351 . S
O685 C688 1.244 . S
O686 Co660 2.155 . S
O686 C688 1.240 . S
O687 Co660 2.096 . S
O687 C668 1.247 . S
C688 O685 1.244 . S
C688 O686 1.240 . S
H689 C663 0.931 . S
H690 C672 0.931 . S
H691 C676 0.929 . S
H692 C678 0.930 . S
Co693 N697 2.148 . S
Co693 N703 2.128 . S
Co693 N713 2.194 . S
Co693 O718 2.351 . S
Co693 O719 2.155 . S
Co693 O720 2.096 . S
C694 N697 1.301 . S
C694 N698 1.328 . S
C694 H699 0.930 . S
C695 C696 1.333 . S
C695 N697 1.317 . S
C695 H700 0.930 . S
C696 C695 1.333 . S
C696 N698 1.350 . S
C696 H722 0.931 . S
N697 Co693 2.148 . S
N697 C694 1.301 . S
N697 C695 1.317 . S
N698 C694 1.328 . S
N698 C696 1.350 . S
H699 C694 0.930 . S
H700 C695 0.930 . S
C701 O702 1.224 . S
C701 O720 1.247 . S
O702 C701 1.224 . S
N703 Co693 2.128 . S
N703 C704 1.355 . S
N703 C706 1.311 . S
C704 N703 1.355 . S
C704 C705 1.363 . S
C704 H716 0.929 . S
C705 C704 1.363 . S
C705 N707 1.375 . S
C705 H723 0.931 . S
C706 N703 1.311 . S
C706 N707 1.347 . S
C706 H717 0.929 . S
N707 C705 1.375 . S
N707 C706 1.347 . S
C708 C711 1.365 . S
C708 N713 1.328 . S
C708 H714 0.929 . S
C709 C710 1.362 . S
C709 C712 1.378 . S
C709 H724 0.929 . S
C710 C709 1.362 . S
C710 C711 1.366 . S
C711 C708 1.365 . S
C711 C710 1.366 . S
C711 H725 0.930 . S
C712 C709 1.378 . S
C712 N713 1.315 . S
C712 H715 0.930 . S
N713 Co693 2.194 . S
N713 C708 1.328 . S
N713 C712 1.315 . S
H714 C708 0.929 . S
H715 C712 0.930 . S
H716 C704 0.929 . S
H717 C706 0.929 . S
O718 Co693 2.351 . S
O718 C721 1.244 . S
O719 Co693 2.155 . S
O719 C721 1.240 . S
O720 Co693 2.096 . S
O720 C701 1.247 . S
C721 O718 1.244 . S
C721 O719 1.240 . S
H722 C696 0.931 . S
H723 C705 0.931 . S
H724 C709 0.929 . S
H725 C711 0.930 . S
Co726 N730 2.148 . S
Co726 N736 2.128 . S
Co726 N746 2.194 . S
Co726 O751 2.351 . S
Co726 O752 2.155 . S
Co726 O753 2.096 . S
C727 N730 1.301 . S
C727 N731 1.328 . S
C727 H732 0.930 . S
C728 C729 1.333 . S
C728 N730 1.317 . S
C728 H733 0.930 . S
C729 C728 1.333 . S
C729 N731 1.350 . S
C729 H755 0.931 . S
N730 Co726 2.148 . S
N730 C727 1.301 . S
N730 C728 1.317 . S
N731 C727 1.328 . S
N731 C729 1.350 . S
H732 C727 0.930 . S
H733 C728 0.930 . S
C734 O735 1.224 . S
C734 O753 1.247 1_455 S
O735 C734 1.224 . S
N736 Co726 2.128 . S
N736 C737 1.355 . S
N736 C739 1.311 . S
C737 N736 1.355 . S
C737 C738 1.363 . S
C737 H749 0.929 . S
C738 C737 1.363 . S
C738 N740 1.375 . S
C738 H756 0.931 . S
C739 N736 1.311 . S
C739 N740 1.347 . S
C739 H750 0.925 1_655 S
N740 C738 1.375 . S
N740 C739 1.347 . S
C741 C744 1.365 . S
C741 N746 1.328 . S
C741 H747 0.929 . S
C742 C743 1.362 . S
C742 C745 1.378 . S
C742 H757 0.929 . S
C743 C742 1.362 . S
C743 C744 1.366 . S
C744 C741 1.365 . S
C744 C743 1.366 . S
C744 H758 0.930 . S
C745 C742 1.378 . S
C745 N746 1.315 . S
C745 H748 0.930 . S
N746 Co726 2.194 . S
N746 C741 1.328 . S
N746 C745 1.315 . S
H747 C741 0.929 . S
H748 C745 0.930 . S
H749 C737 0.929 . S
H750 C739 0.925 1_455 S
O751 Co726 2.351 . S
O751 C754 1.244 . S
O752 Co726 2.155 . S
O752 C754 1.240 . S
O753 Co726 2.096 . S
O753 C734 1.247 1_655 S
C754 O751 1.244 . S
C754 O752 1.240 . S
H755 C729 0.931 . S
H756 C738 0.931 . S
H757 C742 0.929 . S
H758 C744 0.930 . S
Co759 N763 2.148 . S
Co759 N769 2.128 . S
Co759 N779 2.194 . S
Co759 O784 2.351 . S
Co759 O785 2.155 . S
Co759 O786 2.096 . S
C760 N763 1.301 . S
C760 N764 1.328 . S
C760 H765 0.930 . S
C761 C762 1.333 . S
C761 N763 1.317 . S
C761 H766 0.930 . S
C762 C761 1.333 . S
C762 N764 1.350 . S
C762 H788 0.931 . S
N763 Co759 2.148 . S
N763 C760 1.301 . S
N763 C761 1.317 . S
N764 C760 1.328 . S
N764 C762 1.350 . S
H765 C760 0.930 . S
H766 C761 0.930 . S
C767 O768 1.224 . S
C767 O786 1.247 . S
O768 C767 1.224 . S
N769 Co759 2.128 . S
N769 C770 1.355 . S
N769 C772 1.311 . S
C770 N769 1.355 . S
C770 C771 1.363 . S
C770 H782 0.929 . S
C771 C770 1.363 . S
C771 N773 1.375 . S
C771 H789 0.931 . S
C772 N769 1.311 . S
C772 N773 1.347 . S
C772 H783 0.929 . S
N773 C771 1.375 . S
N773 C772 1.347 . S
C774 C777 1.365 . S
C774 N779 1.328 . S
C774 H780 0.929 . S
C775 C776 1.362 . S
C775 C778 1.378 . S
C775 H790 0.929 . S
C776 C775 1.362 . S
C776 C777 1.366 . S
C777 C774 1.365 . S
C777 C776 1.366 . S
C777 H791 0.930 . S
C778 C775 1.378 . S
C778 N779 1.315 . S
C778 H781 0.930 . S
N779 Co759 2.194 . S
N779 C774 1.328 . S
N779 C778 1.315 . S
H780 C774 0.929 . S
H781 C778 0.930 . S
H782 C770 0.929 . S
H783 C772 0.929 . S
O784 Co759 2.351 . S
O784 C787 1.244 . S
O785 Co759 2.155 . S
O785 C787 1.240 . S
O786 Co759 2.096 . S
O786 C767 1.247 . S
C787 O784 1.244 . S
C787 O785 1.240 . S
H788 C762 0.931 . S
H789 C771 0.931 . S
H790 C775 0.929 . S
H791 C777 0.930 . S
Co792 N796 2.148 . S
Co792 N802 2.128 . S
Co792 N812 2.194 . S
Co792 O817 2.351 . S
Co792 O818 2.155 . S
Co792 O819 2.096 . S
C793 N796 1.301 . S
C793 N797 1.328 . S
C793 H798 0.930 . S
C794 C795 1.333 . S
C794 N796 1.317 . S
C794 H799 0.930 . S
C795 C794 1.333 . S
C795 N797 1.350 . S
C795 H821 0.931 . S
N796 Co792 2.148 . S
N796 C793 1.301 . S
N796 C794 1.317 . S
N797 C793 1.328 . S
N797 C795 1.350 . S
H798 C793 0.930 . S
H799 C794 0.930 . S
C800 O801 1.224 . S
C800 O819 1.247 . S
O801 C800 1.224 . S
N802 Co792 2.128 . S
N802 C803 1.355 . S
N802 C805 1.311 . S
C803 N802 1.355 . S
C803 C804 1.363 . S
C803 H815 0.929 . S
C804 C803 1.363 . S
C804 N806 1.375 . S
C804 H822 0.931 . S
C805 N802 1.311 . S
C805 N806 1.347 . S
C805 H816 0.929 . S
N806 C804 1.375 . S
N806 C805 1.347 . S
C807 C810 1.365 . S
C807 N812 1.328 . S
C807 H813 0.929 . S
C808 C809 1.362 . S
C808 C811 1.378 . S
C808 H823 0.929 . S
C809 C808 1.362 . S
C809 C810 1.366 . S
C810 C807 1.365 . S
C810 C809 1.366 . S
C810 H824 0.930 . S
C811 C808 1.378 . S
C811 N812 1.315 . S
C811 H814 0.930 . S
N812 Co792 2.194 . S
N812 C807 1.328 . S
N812 C811 1.315 . S
H813 C807 0.929 . S
H814 C811 0.930 . S
H815 C803 0.929 . S
H816 C805 0.929 . S
O817 Co792 2.351 . S
O817 C820 1.244 . S
O818 Co792 2.155 . S
O818 C820 1.240 . S
O819 Co792 2.096 . S
O819 C800 1.247 . S
C820 O817 1.244 . S
C820 O818 1.240 . S
H821 C795 0.931 . S
H822 C804 0.931 . S
H823 C808 0.929 . S
H824 C810 0.930 . S
Co825 N829 2.148 . S
Co825 N835 2.128 . S
Co825 N845 2.194 . S
Co825 O850 2.351 . S
Co825 O851 2.155 . S
Co825 O852 2.096 . S
C826 N829 1.301 . S
C826 N830 1.328 . S
C826 H831 0.930 . S
C827 C828 1.333 . S
C827 N829 1.317 . S
C827 H832 0.930 . S
C828 C827 1.333 . S
C828 N830 1.350 . S
C828 H854 0.931 . S
N829 Co825 2.148 . S
N829 C826 1.301 . S
N829 C827 1.317 . S
N830 C826 1.328 . S
N830 C828 1.350 . S
H831 C826 0.930 . S
H832 C827 0.930 . S
C833 O834 1.224 . S
C833 O852 1.247 . S
O834 C833 1.224 . S
N835 Co825 2.128 . S
N835 C836 1.355 . S
N835 C838 1.311 . S
C836 N835 1.355 . S
C836 C837 1.363 . S
C836 H848 0.929 . S
C837 C836 1.363 . S
C837 N839 1.375 . S
C837 H855 0.931 . S
C838 N835 1.311 . S
C838 N839 1.347 . S
C838 H849 0.929 . S
N839 C837 1.375 . S
N839 C838 1.347 . S
C840 C843 1.365 . S
C840 N845 1.328 . S
C840 H846 0.929 . S
C841 C842 1.362 . S
C841 C844 1.378 . S
C841 H856 0.929 . S
C842 C841 1.362 . S
C842 C843 1.366 . S
C843 C840 1.365 . S
C843 C842 1.366 . S
C843 H857 0.930 . S
C844 C841 1.378 . S
C844 N845 1.315 . S
C844 H847 0.930 . S
N845 Co825 2.194 . S
N845 C840 1.328 . S
N845 C844 1.315 . S
H846 C840 0.929 . S
H847 C844 0.930 . S
H848 C836 0.929 . S
H849 C838 0.929 . S
O850 Co825 2.351 . S
O850 C853 1.244 . S
O851 Co825 2.155 . S
O851 C853 1.240 . S
O852 Co825 2.096 . S
O852 C833 1.247 . S
C853 O850 1.244 . S
C853 O851 1.240 . S
H854 C828 0.931 . S
H855 C837 0.931 . S
H856 C841 0.929 . S
H857 C843 0.930 . S
Co858 N862 2.148 . S
Co858 N868 2.128 . S
Co858 N878 2.194 . S
Co858 O883 2.351 . S
Co858 O884 2.155 . S
Co858 O885 2.096 . S
C859 N862 1.301 . S
C859 N863 1.328 . S
C859 H864 0.930 . S
C860 C861 1.333 . S
C860 N862 1.317 . S
C860 H865 0.930 . S
C861 C860 1.333 . S
C861 N863 1.350 . S
C861 H887 0.931 . S
N862 Co858 2.148 . S
N862 C859 1.301 . S
N862 C860 1.317 . S
N863 C859 1.328 . S
N863 C861 1.350 . S
H864 C859 0.930 . S
H865 C860 0.930 . S
C866 O867 1.224 . S
C866 O885 1.247 1_655 S
O867 C866 1.224 . S
N868 Co858 2.128 . S
N868 C869 1.355 . S
N868 C871 1.311 . S
C869 N868 1.355 . S
C869 C870 1.363 . S
C869 H881 0.929 . S
C870 C869 1.363 . S
C870 N872 1.375 . S
C870 H888 0.931 . S
C871 N868 1.311 . S
C871 N872 1.347 . S
C871 H882 0.925 1_455 S
N872 C870 1.375 . S
N872 C871 1.347 . S
C873 C876 1.365 . S
C873 N878 1.328 . S
C873 H879 0.929 . S
C874 C875 1.362 . S
C874 C877 1.378 . S
C874 H889 0.929 . S
C875 C874 1.362 . S
C875 C876 1.366 . S
C876 C873 1.365 . S
C876 C875 1.366 . S
C876 H890 0.930 . S
C877 C874 1.378 . S
C877 N878 1.315 . S
C877 H880 0.930 . S
N878 Co858 2.194 . S
N878 C873 1.328 . S
N878 C877 1.315 . S
H879 C873 0.929 . S
H880 C877 0.930 . S
H881 C869 0.929 . S
H882 C871 0.925 1_655 S
O883 Co858 2.351 . S
O883 C886 1.244 . S
O884 Co858 2.155 . S
O884 C886 1.240 . S
O885 Co858 2.096 . S
O885 C866 1.247 1_455 S
C886 O883 1.244 . S
C886 O884 1.240 . S
H887 C861 0.931 . S
H888 C870 0.931 . S
H889 C874 0.929 . S
H890 C876 0.930 . S
Co891 N895 2.148 . S
Co891 N901 2.128 . S
Co891 N911 2.194 . S
Co891 O916 2.351 . S
Co891 O917 2.155 . S
Co891 O918 2.096 . S
C892 N895 1.301 . S
C892 N896 1.328 . S
C892 H897 0.930 . S
C893 C894 1.333 . S
C893 N895 1.317 . S
C893 H898 0.930 . S
C894 C893 1.333 . S
C894 N896 1.350 . S
C894 H920 0.931 . S
N895 Co891 2.148 . S
N895 C892 1.301 . S
N895 C893 1.317 . S
N896 C892 1.328 . S
N896 C894 1.350 . S
H897 C892 0.930 . S
H898 C893 0.930 . S
C899 O900 1.224 . S
C899 O918 1.247 . S
O900 C899 1.224 . S
N901 Co891 2.128 . S
N901 C902 1.355 . S
N901 C904 1.311 . S
C902 N901 1.355 . S
C902 C903 1.363 . S
C902 H914 0.929 . S
C903 C902 1.363 . S
C903 N905 1.375 . S
C903 H921 0.931 . S
C904 N901 1.311 . S
C904 N905 1.347 . S
C904 H915 0.929 . S
N905 C903 1.375 . S
N905 C904 1.347 . S
C906 C909 1.365 . S
C906 N911 1.328 . S
C906 H912 0.929 . S
C907 C908 1.362 . S
C907 C910 1.378 . S
C907 H922 0.929 . S
C908 C907 1.362 . S
C908 C909 1.366 . S
C909 C906 1.365 . S
C909 C908 1.366 . S
C909 H923 0.930 . S
C910 C907 1.378 . S
C910 N911 1.315 . S
C910 H913 0.930 . S
N911 Co891 2.194 . S
N911 C906 1.328 . S
N911 C910 1.315 . S
H912 C906 0.929 . S
H913 C910 0.930 . S
H914 C902 0.929 . S
H915 C904 0.929 . S
O916 Co891 2.351 . S
O916 C919 1.244 . S
O917 Co891 2.155 . S
O917 C919 1.240 . S
O918 Co891 2.096 . S
O918 C899 1.247 . S
C919 O916 1.244 . S
C919 O917 1.240 . S
H920 C894 0.931 . S
H921 C903 0.931 . S
H922 C907 0.929 . S
H923 C909 0.930 . S
Co924 N928 2.148 . S
Co924 N934 2.128 . S
Co924 N944 2.194 . S
Co924 O949 2.351 . S
Co924 O950 2.155 . S
Co924 O951 2.096 . S
C925 N928 1.301 . S
C925 N929 1.328 . S
C925 H930 0.930 . S
C926 C927 1.333 . S
C926 N928 1.317 . S
C926 H931 0.930 . S
C927 C926 1.333 . S
C927 N929 1.350 . S
C927 H953 0.931 . S
N928 Co924 2.148 . S
N928 C925 1.301 . S
N928 C926 1.317 . S
N929 C925 1.328 . S
N929 C927 1.350 . S
H930 C925 0.930 . S
H931 C926 0.930 . S
C932 O933 1.224 . S
C932 O951 1.247 . S
O933 C932 1.224 . S
N934 Co924 2.128 . S
N934 C935 1.355 . S
N934 C937 1.311 . S
C935 N934 1.355 . S
C935 C936 1.363 . S
C935 H947 0.929 . S
C936 C935 1.363 . S
C936 N938 1.375 . S
C936 H954 0.931 . S
C937 N934 1.311 . S
C937 N938 1.347 . S
C937 H948 0.929 . S
N938 C936 1.375 . S
N938 C937 1.347 . S
C939 C942 1.365 . S
C939 N944 1.328 . S
C939 H945 0.929 . S
C940 C941 1.362 . S
C940 C943 1.378 . S
C940 H955 0.929 . S
C941 C940 1.362 . S
C941 C942 1.366 . S
C942 C939 1.365 . S
C942 C941 1.366 . S
C942 H956 0.930 . S
C943 C940 1.378 . S
C943 N944 1.315 . S
C943 H946 0.930 . S
N944 Co924 2.194 . S
N944 C939 1.328 . S
N944 C943 1.315 . S
H945 C939 0.929 . S
H946 C943 0.930 . S
H947 C935 0.929 . S
H948 C937 0.929 . S
O949 Co924 2.351 . S
O949 C952 1.244 . S
O950 Co924 2.155 . S
O950 C952 1.240 . S
O951 Co924 2.096 . S
O951 C932 1.247 . S
C952 O949 1.244 . S
C952 O950 1.240 . S
H953 C927 0.931 . S
H954 C936 0.931 . S
H955 C940 0.929 . S
H956 C942 0.930 . S
Co957 N961 2.148 . S
Co957 N967 2.128 . S
Co957 N977 2.194 . S
Co957 O982 2.351 . S
Co957 O983 2.155 . S
Co957 O984 2.096 . S
C958 N961 1.301 . S
C958 N962 1.328 . S
C958 H963 0.930 . S
C959 C960 1.333 . S
C959 N961 1.317 . S
C959 H964 0.930 . S
C960 C959 1.333 . S
C960 N962 1.350 . S
C960 H986 0.931 . S
N961 Co957 2.148 . S
N961 C958 1.301 . S
N961 C959 1.317 . S
N962 C958 1.328 . S
N962 C960 1.350 . S
H963 C958 0.930 . S
H964 C959 0.930 . S
C965 O966 1.224 . S
C965 O984 1.247 . S
O966 C965 1.224 . S
N967 Co957 2.128 . S
N967 C968 1.355 . S
N967 C970 1.311 . S
C968 N967 1.355 . S
C968 C969 1.363 . S
C968 H980 0.929 . S
C969 C968 1.363 . S
C969 N971 1.375 . S
C969 H987 0.931 . S
C970 N967 1.311 . S
C970 N971 1.347 . S
C970 H981 0.929 . S
N971 C969 1.375 . S
N971 C970 1.347 . S
C972 C975 1.365 . S
C972 N977 1.328 . S
C972 H978 0.929 . S
C973 C974 1.362 . S
C973 C976 1.378 . S
C973 H988 0.929 . S
C974 C973 1.362 . S
C974 C975 1.366 . S
C975 C972 1.365 . S
C975 C974 1.366 . S
C975 H989 0.930 . S
C976 C973 1.378 . S
C976 N977 1.315 . S
C976 H979 0.930 . S
N977 Co957 2.194 . S
N977 C972 1.328 . S
N977 C976 1.315 . S
H978 C972 0.929 . S
H979 C976 0.930 . S
H980 C968 0.929 . S
H981 C970 0.929 . S
O982 Co957 2.351 . S
O982 C985 1.244 . S
O983 Co957 2.155 . S
O983 C985 1.240 . S
O984 Co957 2.096 . S
O984 C965 1.247 . S
C985 O982 1.244 . S
C985 O983 1.240 . S
H986 C960 0.931 . S
H987 C969 0.931 . S
H988 C973 0.929 . S
H989 C975 0.930 . S
Co990 N994 2.148 . S
Co990 N1000 2.128 . S
Co990 N1010 2.194 . S
Co990 O1015 2.351 . S
Co990 O1016 2.155 . S
Co990 O1017 2.096 . S
C991 N994 1.301 . S
C991 N995 1.328 . S
C991 H996 0.930 . S
C992 C993 1.333 . S
C992 N994 1.317 . S
C992 H997 0.930 . S
C993 C992 1.333 . S
C993 N995 1.350 . S
C993 H1019 0.931 . S
N994 Co990 2.148 . S
N994 C991 1.301 . S
N994 C992 1.317 . S
N995 C991 1.328 . S
N995 C993 1.350 . S
H996 C991 0.930 . S
H997 C992 0.930 . S
C998 O999 1.224 . S
C998 O1017 1.247 1_655 S
O999 C998 1.224 . S
N1000 Co990 2.128 . S
N1000 C1001 1.355 . S
N1000 C1003 1.311 . S
C1001 N1000 1.355 . S
C1001 C1002 1.363 . S
C1001 H1013 0.929 . S
C1002 C1001 1.363 . S
C1002 N1004 1.375 . S
C1002 H1020 0.931 . S
C1003 N1000 1.311 . S
C1003 N1004 1.347 . S
C1003 H1014 0.925 1_455 S
N1004 C1002 1.375 . S
N1004 C1003 1.347 . S
C1005 C1008 1.365 . S
C1005 N1010 1.328 . S
C1005 H1011 0.929 . S
C1006 C1007 1.362 . S
C1006 C1009 1.378 . S
C1006 H1021 0.929 . S
C1007 C1006 1.362 . S
C1007 C1008 1.366 . S
C1008 C1005 1.365 . S
C1008 C1007 1.366 . S
C1008 H1022 0.930 . S
C1009 C1006 1.378 . S
C1009 N1010 1.315 . S
C1009 H1012 0.930 . S
N1010 Co990 2.194 . S
N1010 C1005 1.328 . S
N1010 C1009 1.315 . S
H1011 C1005 0.929 . S
H1012 C1009 0.930 . S
H1013 C1001 0.929 . S
H1014 C1003 0.925 1_655 S
O1015 Co990 2.351 . S
O1015 C1018 1.244 . S
O1016 Co990 2.155 . S
O1016 C1018 1.240 . S
O1017 Co990 2.096 . S
O1017 C998 1.247 1_455 S
C1018 O1015 1.244 . S
C1018 O1016 1.240 . S
H1019 C993 0.931 . S
H1020 C1002 0.931 . S
H1021 C1006 0.929 . S
H1022 C1008 0.930 . S
Co1023 N1027 2.148 . S
Co1023 N1033 2.128 . S
Co1023 N1043 2.194 . S
Co1023 O1048 2.351 . S
Co1023 O1049 2.155 . S
Co1023 O1050 2.096 . S
C1024 N1027 1.301 . S
C1024 N1028 1.328 . S
C1024 H1029 0.930 . S
C1025 C1026 1.333 . S
C1025 N1027 1.317 . S
C1025 H1030 0.930 . S
C1026 C1025 1.333 . S
C1026 N1028 1.350 . S
C1026 H1052 0.931 . S
N1027 Co1023 2.148 . S
N1027 C1024 1.301 . S
N1027 C1025 1.317 . S
N1028 C1024 1.328 . S
N1028 C1026 1.350 . S
H1029 C1024 0.930 . S
H1030 C1025 0.930 . S
C1031 O1032 1.224 . S
C1031 O1050 1.247 . S
O1032 C1031 1.224 . S
N1033 Co1023 2.128 . S
N1033 C1034 1.355 . S
N1033 C1036 1.311 . S
C1034 N1033 1.355 . S
C1034 C1035 1.363 . S
C1034 H1046 0.929 . S
C1035 C1034 1.363 . S
C1035 N1037 1.375 . S
C1035 H1053 0.931 . S
C1036 N1033 1.311 . S
C1036 N1037 1.347 . S
C1036 H1047 0.929 . S
N1037 C1035 1.375 . S
N1037 C1036 1.347 . S
C1038 C1041 1.365 . S
C1038 N1043 1.328 . S
C1038 H1044 0.929 . S
C1039 C1040 1.362 . S
C1039 C1042 1.378 . S
C1039 H1054 0.929 . S
C1040 C1039 1.362 . S
C1040 C1041 1.366 . S
C1041 C1038 1.365 . S
C1041 C1040 1.366 . S
C1041 H1055 0.930 . S
C1042 C1039 1.378 . S
C1042 N1043 1.315 . S
C1042 H1045 0.930 . S
N1043 Co1023 2.194 . S
N1043 C1038 1.328 . S
N1043 C1042 1.315 . S
H1044 C1038 0.929 . S
H1045 C1042 0.930 . S
H1046 C1034 0.929 . S
H1047 C1036 0.929 . S
O1048 Co1023 2.351 . S
O1048 C1051 1.244 . S
O1049 Co1023 2.155 . S
O1049 C1051 1.240 . S
O1050 Co1023 2.096 . S
O1050 C1031 1.247 . S
C1051 O1048 1.244 . S
C1051 O1049 1.240 . S
H1052 C1026 0.931 . S
H1053 C1035 0.931 . S
H1054 C1039 0.929 . S
H1055 C1041 0.930 . S
H1056 C1062 0.930 . S
H1057 C1066 0.930 . S
H1058 C1071 0.929 . S
H1059 C1069 0.929 . S
H1060 C1064 0.929 . S
H1061 C1070 0.929 . S
C1062 H1056 0.930 . S
C1062 C1063 1.367 . S
C1062 C1070 1.378 . S
C1063 C1062 1.367 . S
C1063 C1071 1.433 . S
C1064 H1060 0.929 . S
C1064 C1066 1.378 . S
C1064 C1068 1.350 . S
C1065 C1068 1.463 . S
C1065 C1070 1.350 . S
C1065 N1073 1.427 . S
C1066 H1057 0.930 . S
C1066 C1064 1.378 . S
C1066 C1067 1.367 . S
C1067 C1066 1.367 . S
C1067 C1069 1.433 . S
C1068 C1064 1.350 . S
C1068 C1065 1.463 . S
C1068 N1072 1.427 . S
C1069 H1059 0.929 . S
C1069 C1067 1.433 . S
C1069 N1072 1.384 . S
C1070 H1061 0.929 . S
C1070 C1062 1.378 . S
C1070 C1065 1.350 . S
C1071 H1058 0.929 . S
C1071 C1063 1.433 . S
C1071 N1073 1.384 . S
N1072 C1068 1.427 . S
N1072 C1069 1.384 . S
N1073 C1065 1.427 . S
N1073 C1071 1.384 . S
H1074 C1080 0.930 . S
H1075 C1084 0.930 . S
H1076 C1089 0.929 . S
H1077 C1087 0.929 . S
H1078 C1082 0.929 . S
H1079 C1088 0.929 . S
C1080 H1074 0.930 . S
C1080 C1081 1.367 . S
C1080 C1088 1.378 . S
C1081 C1080 1.367 . S
C1081 C1089 1.433 . S
C1082 H1078 0.929 . S
C1082 C1084 1.378 . S
C1082 C1086 1.350 . S
C1083 C1086 1.463 . S
C1083 C1088 1.350 . S
C1083 N1091 1.427 . S
C1084 H1075 0.930 . S
C1084 C1082 1.378 . S
C1084 C1085 1.367 . S
C1085 C1084 1.367 . S
C1085 C1087 1.433 . S
C1086 C1082 1.350 . S
C1086 C1083 1.463 . S
C1086 N1090 1.427 . S
C1087 H1077 0.929 . S
C1087 C1085 1.433 . S
C1087 N1090 1.384 . S
C1088 H1079 0.929 . S
C1088 C1080 1.378 . S
C1088 C1083 1.350 . S
C1089 H1076 0.929 . S
C1089 C1081 1.433 . S
C1089 N1091 1.384 . S
N1090 C1086 1.427 . S
N1090 C1087 1.384 . S
N1091 C1083 1.427 . S
N1091 C1089 1.384 . S
H1092 C1098 0.930 . S
H1093 C1102 0.930 . S
H1094 C1107 0.929 . S
H1095 C1105 0.929 . S
H1096 C1100 0.929 . S
H1097 C1106 0.929 . S
C1098 H1092 0.930 . S
C1098 C1099 1.367 . S
C1098 C1106 1.378 . S
C1099 C1098 1.367 . S
C1099 C1107 1.433 . S
C1100 H1096 0.929 . S
C1100 C1102 1.378 . S
C1100 C1104 1.350 . S
C1101 C1104 1.463 . S
C1101 C1106 1.350 . S
C1101 N1109 1.427 . S
C1102 H1093 0.930 . S
C1102 C1100 1.378 . S
C1102 C1103 1.367 . S
C1103 C1102 1.367 . S
C1103 C1105 1.433 . S
C1104 C1100 1.350 . S
C1104 C1101 1.463 . S
C1104 N1108 1.427 . S
C1105 H1095 0.929 . S
C1105 C1103 1.433 . S
C1105 N1108 1.384 . S
C1106 H1097 0.929 . S
C1106 C1098 1.378 . S
C1106 C1101 1.350 . S
C1107 H1094 0.929 . S
C1107 C1099 1.433 . S
C1107 N1109 1.384 . S
N1108 C1104 1.427 . S
N1108 C1105 1.384 . S
N1109 C1101 1.427 . S
N1109 C1107 1.384 . S
H1110 C1116 0.930 . S
H1111 C1120 0.930 . S
H1112 C1125 0.929 . S
H1113 C1123 0.929 . S
H1114 C1118 0.929 . S
H1115 C1124 0.929 . S
C1116 H1110 0.930 . S
C1116 C1117 1.367 . S
C1116 C1124 1.378 . S
C1117 C1116 1.367 . S
C1117 C1125 1.433 . S
C1118 H1114 0.929 . S
C1118 C1120 1.378 . S
C1118 C1122 1.350 . S
C1119 C1122 1.463 . S
C1119 C1124 1.350 . S
C1119 N1127 1.427 . S
C1120 H1111 0.930 . S
C1120 C1118 1.378 . S
C1120 C1121 1.367 . S
C1121 C1120 1.367 . S
C1121 C1123 1.433 . S
C1122 C1118 1.350 . S
C1122 C1119 1.463 . S
C1122 N1126 1.427 . S
C1123 H1113 0.929 . S
C1123 C1121 1.433 . S
C1123 N1126 1.384 . S
C1124 H1115 0.929 . S
C1124 C1116 1.378 . S
C1124 C1119 1.350 . S
C1125 H1112 0.929 . S
C1125 C1117 1.433 . S
C1125 N1127 1.384 . S
N1126 C1122 1.427 . S
N1126 C1123 1.384 . S
N1127 C1119 1.427 . S
N1127 C1125 1.384 . S
H1128 C1134 0.930 . S
H1129 C1138 0.930 . S
H1130 C1143 0.929 . S
H1131 C1141 0.929 . S
H1132 C1136 0.929 . S
H1133 C1142 0.929 . S
C1134 H1128 0.930 . S
C1134 C1135 1.367 . S
C1134 C1142 1.378 . S
C1135 C1134 1.367 . S
C1135 C1143 1.433 . S
C1136 H1132 0.929 . S
C1136 C1138 1.378 . S
C1136 C1140 1.350 . S
C1137 C1140 1.463 . S
C1137 C1142 1.350 . S
C1137 N1145 1.427 . S
C1138 H1129 0.930 . S
C1138 C1136 1.378 . S
C1138 C1139 1.367 . S
C1139 C1138 1.367 . S
C1139 C1141 1.433 . S
C1140 C1136 1.350 . S
C1140 C1137 1.463 . S
C1140 N1144 1.427 . S
C1141 H1131 0.929 . S
C1141 C1139 1.433 . S
C1141 N1144 1.384 . S
C1142 H1133 0.929 . S
C1142 C1134 1.378 . S
C1142 C1137 1.350 . S
C1143 H1130 0.929 . S
C1143 C1135 1.433 . S
C1143 N1145 1.384 . S
N1144 C1140 1.427 . S
N1144 C1141 1.384 . S
N1145 C1137 1.427 . S
N1145 C1143 1.384 . S
H1146 C1152 0.930 . S
H1147 C1156 0.930 . S
H1148 C1161 0.929 . S
H1149 C1159 0.929 . S
H1150 C1154 0.929 . S
H1151 C1160 0.929 . S
C1152 H1146 0.930 . S
C1152 C1153 1.367 . S
C1152 C1160 1.378 . S
C1153 C1152 1.367 . S
C1153 C1161 1.433 . S
C1154 H1150 0.929 . S
C1154 C1156 1.378 . S
C1154 C1158 1.350 . S
C1155 C1158 1.463 . S
C1155 C1160 1.350 . S
C1155 N1163 1.427 . S
C1156 H1147 0.930 . S
C1156 C1154 1.378 . S
C1156 C1157 1.367 . S
C1157 C1156 1.367 . S
C1157 C1159 1.433 . S
C1158 C1154 1.350 . S
C1158 C1155 1.463 . S
C1158 N1162 1.427 . S
C1159 H1149 0.929 . S
C1159 C1157 1.433 . S
C1159 N1162 1.384 . S
C1160 H1151 0.929 . S
C1160 C1152 1.378 . S
C1160 C1155 1.350 . S
C1161 H1148 0.929 . S
C1161 C1153 1.433 . S
C1161 N1163 1.384 . S
N1162 C1158 1.427 . S
N1162 C1159 1.384 . S
N1163 C1155 1.427 . S
N1163 C1161 1.384 . S
H1164 C1170 0.930 . S
H1165 C1174 0.930 . S
H1166 C1179 0.929 . S
H1167 C1177 0.929 . S
H1168 C1172 0.929 . S
H1169 C1178 0.929 . S
C1170 H1164 0.930 . S
C1170 C1171 1.367 . S
C1170 C1178 1.378 . S
C1171 C1170 1.367 . S
C1171 C1179 1.433 . S
C1172 H1168 0.929 . S
C1172 C1174 1.378 . S
C1172 C1176 1.350 . S
C1173 C1176 1.463 . S
C1173 C1178 1.350 . S
C1173 N1181 1.427 . S
C1174 H1165 0.930 . S
C1174 C1172 1.378 . S
C1174 C1175 1.367 . S
C1175 C1174 1.367 . S
C1175 C1177 1.433 . S
C1176 C1172 1.350 . S
C1176 C1173 1.463 . S
C1176 N1180 1.427 . S
C1177 H1167 0.929 . S
C1177 C1175 1.433 . S
C1177 N1180 1.384 . S
C1178 H1169 0.929 . S
C1178 C1170 1.378 . S
C1178 C1173 1.350 . S
C1179 H1166 0.929 . S
C1179 C1171 1.433 . S
C1179 N1181 1.384 . S
N1180 C1176 1.427 . S
N1180 C1177 1.384 . S
N1181 C1173 1.427 . S
N1181 C1179 1.384 . S
H1182 C1188 0.930 . S
H1183 C1192 0.930 . S
H1184 C1197 0.929 . S
H1185 C1195 0.929 . S
H1186 C1190 0.929 . S
H1187 C1196 0.929 . S
C1188 H1182 0.930 . S
C1188 C1189 1.367 . S
C1188 C1196 1.378 . S
C1189 C1188 1.367 . S
C1189 C1197 1.433 . S
C1190 H1186 0.929 . S
C1190 C1192 1.378 . S
C1190 C1194 1.350 . S
C1191 C1194 1.463 . S
C1191 C1196 1.350 . S
C1191 N1199 1.427 . S
C1192 H1183 0.930 . S
C1192 C1190 1.378 . S
C1192 C1193 1.367 . S
C1193 C1192 1.367 . S
C1193 C1195 1.433 . S
C1194 C1190 1.350 . S
C1194 C1191 1.463 . S
C1194 N1198 1.427 . S
C1195 H1185 0.929 . S
C1195 C1193 1.433 . S
C1195 N1198 1.384 . S
C1196 H1187 0.929 . S
C1196 C1188 1.378 . S
C1196 C1191 1.350 . S
C1197 H1184 0.929 . S
C1197 C1189 1.433 . S
C1197 N1199 1.384 . S
N1198 C1194 1.427 . S
N1198 C1195 1.384 . S
N1199 C1191 1.427 . S
N1199 C1197 1.384 . S
H1200 C1206 0.930 . S
H1201 C1210 0.930 . S
H1202 C1215 0.929 . S
H1203 C1213 0.929 . S
H1204 C1208 0.929 . S
H1205 C1214 0.929 . S
C1206 H1200 0.930 . S
C1206 C1207 1.367 . S
C1206 C1214 1.378 . S
C1207 C1206 1.367 . S
C1207 C1215 1.433 . S
C1208 H1204 0.929 . S
C1208 C1210 1.378 . S
C1208 C1212 1.350 . S
C1209 C1212 1.463 . S
C1209 C1214 1.350 . S
C1209 N1217 1.427 . S
C1210 H1201 0.930 . S
C1210 C1208 1.378 . S
C1210 C1211 1.367 . S
C1211 C1210 1.367 . S
C1211 C1213 1.433 . S
C1212 C1208 1.350 . S
C1212 C1209 1.463 . S
C1212 N1216 1.427 . S
C1213 H1203 0.929 . S
C1213 C1211 1.433 . S
C1213 N1216 1.384 . S
C1214 H1205 0.929 . S
C1214 C1206 1.378 . S
C1214 C1209 1.350 . S
C1215 H1202 0.929 . S
C1215 C1207 1.433 . S
C1215 N1217 1.384 . S
N1216 C1212 1.427 . S
N1216 C1213 1.384 . S
N1217 C1209 1.427 . S
N1217 C1215 1.384 . S
H1218 C1224 0.930 . S
H1219 C1228 0.930 . S
H1220 C1233 0.929 . S
H1221 C1231 0.929 . S
H1222 C1226 0.929 . S
H1223 C1232 0.929 . S
C1224 H1218 0.930 . S
C1224 C1225 1.367 . S
C1224 C1232 1.378 . S
C1225 C1224 1.367 . S
C1225 C1233 1.433 . S
C1226 H1222 0.929 . S
C1226 C1228 1.378 . S
C1226 C1230 1.350 . S
C1227 C1230 1.463 . S
C1227 C1232 1.350 . S
C1227 N1235 1.427 . S
C1228 H1219 0.930 . S
C1228 C1226 1.378 . S
C1228 C1229 1.367 . S
C1229 C1228 1.367 . S
C1229 C1231 1.433 . S
C1230 C1226 1.350 . S
C1230 C1227 1.463 . S
C1230 N1234 1.427 . S
C1231 H1221 0.929 . S
C1231 C1229 1.433 . S
C1231 N1234 1.384 . S
C1232 H1223 0.929 . S
C1232 C1224 1.378 . S
C1232 C1227 1.350 . S
C1233 H1220 0.929 . S
C1233 C1225 1.433 . S
C1233 N1235 1.384 . S
N1234 C1230 1.427 . S
N1234 C1231 1.384 . S
N1235 C1227 1.427 . S
N1235 C1233 1.384 . S
H1236 C1242 0.930 . S
H1237 C1246 0.930 . S
H1238 C1251 0.929 . S
H1239 C1249 0.929 . S
H1240 C1244 0.929 . S
H1241 C1250 0.929 . S
C1242 H1236 0.930 . S
C1242 C1243 1.367 . S
C1242 C1250 1.378 . S
C1243 C1242 1.367 . S
C1243 C1251 1.433 . S
C1244 H1240 0.929 . S
C1244 C1246 1.378 . S
C1244 C1248 1.350 . S
C1245 C1248 1.463 . S
C1245 C1250 1.350 . S
C1245 N1253 1.427 . S
C1246 H1237 0.930 . S
C1246 C1244 1.378 . S
C1246 C1247 1.367 . S
C1247 C1246 1.367 . S
C1247 C1249 1.433 . S
C1248 C1244 1.350 . S
C1248 C1245 1.463 . S
C1248 N1252 1.427 . S
C1249 H1239 0.929 . S
C1249 C1247 1.433 . S
C1249 N1252 1.384 . S
C1250 H1241 0.929 . S
C1250 C1242 1.378 . S
C1250 C1245 1.350 . S
C1251 H1238 0.929 . S
C1251 C1243 1.433 . S
C1251 N1253 1.384 . S
N1252 C1248 1.427 . S
N1252 C1249 1.384 . S
N1253 C1245 1.427 . S
N1253 C1251 1.384 . S
H1254 C1260 0.930 . S
H1255 C1264 0.930 . S
H1256 C1269 0.929 . S
H1257 C1267 0.929 . S
H1258 C1262 0.929 . S
H1259 C1268 0.929 . S
C1260 H1254 0.930 . S
C1260 C1261 1.367 . S
C1260 C1268 1.378 . S
C1261 C1260 1.367 . S
C1261 C1269 1.433 . S
C1262 H1258 0.929 . S
C1262 C1264 1.378 . S
C1262 C1266 1.350 . S
C1263 C1266 1.463 . S
C1263 C1268 1.350 . S
C1263 N1271 1.427 . S
C1264 H1255 0.930 . S
C1264 C1262 1.378 . S
C1264 C1265 1.367 . S
C1265 C1264 1.367 . S
C1265 C1267 1.433 . S
C1266 C1262 1.350 . S
C1266 C1263 1.463 . S
C1266 N1270 1.427 . S
C1267 H1257 0.929 . S
C1267 C1265 1.433 . S
C1267 N1270 1.384 . S
C1268 H1259 0.929 . S
C1268 C1260 1.378 . S
C1268 C1263 1.350 . S
C1269 H1256 0.929 . S
C1269 C1261 1.433 . S
C1269 N1271 1.384 . S
N1270 C1266 1.427 . S
N1270 C1267 1.384 . S
N1271 C1263 1.427 . S
N1271 C1269 1.384 . S
H1272 C1278 0.930 . S
H1273 C1282 0.930 . S
H1274 C1287 0.929 . S
H1275 C1285 0.929 . S
H1276 C1280 0.929 . S
H1277 C1286 0.929 . S
C1278 H1272 0.930 . S
C1278 C1279 1.367 . S
C1278 C1286 1.378 . S
C1279 C1278 1.367 . S
C1279 C1287 1.433 . S
C1280 H1276 0.929 . S
C1280 C1282 1.378 . S
C1280 C1284 1.350 . S
C1281 C1284 1.463 . S
C1281 C1286 1.350 . S
C1281 N1289 1.427 . S
C1282 H1273 0.930 . S
C1282 C1280 1.378 . S
C1282 C1283 1.367 . S
C1283 C1282 1.367 . S
C1283 C1285 1.433 . S
C1284 C1280 1.350 . S
C1284 C1281 1.463 . S
C1284 N1288 1.427 . S
C1285 H1275 0.929 . S
C1285 C1283 1.433 . S
C1285 N1288 1.384 . S
C1286 H1277 0.929 . S
C1286 C1278 1.378 . S
C1286 C1281 1.350 . S
C1287 H1274 0.929 . S
C1287 C1279 1.433 . S
C1287 N1289 1.384 . S
N1288 C1284 1.427 . S
N1288 C1285 1.384 . S
N1289 C1281 1.427 . S
N1289 C1287 1.384 . S
H1290 C1296 0.930 . S
H1291 C1300 0.930 . S
H1292 C1305 0.929 . S
H1293 C1303 0.929 . S
H1294 C1298 0.929 . S
H1295 C1304 0.929 . S
C1296 H1290 0.930 . S
C1296 C1297 1.367 . S
C1296 C1304 1.378 . S
C1297 C1296 1.367 . S
C1297 C1305 1.433 . S
C1298 H1294 0.929 . S
C1298 C1300 1.378 . S
C1298 C1302 1.350 . S
C1299 C1302 1.463 . S
C1299 C1304 1.350 . S
C1299 N1307 1.427 . S
C1300 H1291 0.930 . S
C1300 C1298 1.378 . S
C1300 C1301 1.367 . S
C1301 C1300 1.367 . S
C1301 C1303 1.433 . S
C1302 C1298 1.350 . S
C1302 C1299 1.463 . S
C1302 N1306 1.427 . S
C1303 H1293 0.929 . S
C1303 C1301 1.433 . S
C1303 N1306 1.384 . S
C1304 H1295 0.929 . S
C1304 C1296 1.378 . S
C1304 C1299 1.350 . S
C1305 H1292 0.929 . S
C1305 C1297 1.433 . S
C1305 N1307 1.384 . S
N1306 C1302 1.427 . S
N1306 C1303 1.384 . S
N1307 C1299 1.427 . S
N1307 C1305 1.384 . S
H1308 C1314 0.930 . S
H1309 C1318 0.930 . S
H1310 C1323 0.929 . S
H1311 C1321 0.929 . S
H1312 C1316 0.929 . S
H1313 C1322 0.929 . S
C1314 H1308 0.930 . S
C1314 C1315 1.367 . S
C1314 C1322 1.378 . S
C1315 C1314 1.367 . S
C1315 C1323 1.433 . S
C1316 H1312 0.929 . S
C1316 C1318 1.378 . S
C1316 C1320 1.350 . S
C1317 C1320 1.463 . S
C1317 C1322 1.350 . S
C1317 N1325 1.427 . S
C1318 H1309 0.930 . S
C1318 C1316 1.378 . S
C1318 C1319 1.367 . S
C1319 C1318 1.367 . S
C1319 C1321 1.433 . S
C1320 C1316 1.350 . S
C1320 C1317 1.463 . S
C1320 N1324 1.427 . S
C1321 H1311 0.929 . S
C1321 C1319 1.433 . S
C1321 N1324 1.384 . S
C1322 H1313 0.929 . S
C1322 C1314 1.378 . S
C1322 C1317 1.350 . S
C1323 H1310 0.929 . S
C1323 C1315 1.433 . S
C1323 N1325 1.384 . S
N1324 C1320 1.427 . S
N1324 C1321 1.384 . S
N1325 C1317 1.427 . S
N1325 C1323 1.384 . S
H1326 C1332 0.930 . S
H1327 C1336 0.930 . S
H1328 C1341 0.929 . S
H1329 C1339 0.929 . S
H1330 C1334 0.929 . S
H1331 C1340 0.929 . S
C1332 H1326 0.930 . S
C1332 C1333 1.367 . S
C1332 C1340 1.378 . S
C1333 C1332 1.367 . S
C1333 C1341 1.433 . S
C1334 H1330 0.929 . S
C1334 C1336 1.378 . S
C1334 C1338 1.350 . S
C1335 C1338 1.463 . S
C1335 C1340 1.350 . S
C1335 N1343 1.427 . S
C1336 H1327 0.930 . S
C1336 C1334 1.378 . S
C1336 C1337 1.367 . S
C1337 C1336 1.367 . S
C1337 C1339 1.433 . S
C1338 C1334 1.350 . S
C1338 C1335 1.463 . S
C1338 N1342 1.427 . S
C1339 H1329 0.929 . S
C1339 C1337 1.433 . S
C1339 N1342 1.384 . S
C1340 H1331 0.929 . S
C1340 C1332 1.378 . S
C1340 C1335 1.350 . S
C1341 H1328 0.929 . S
C1341 C1333 1.433 . S
C1341 N1343 1.384 . S
N1342 C1338 1.427 . S
N1342 C1339 1.384 . S
N1343 C1335 1.427 . S
N1343 C1341 1.384 . S
H1344 C1350 0.930 . S
H1345 C1354 0.930 . S
H1346 C1359 0.929 . S
H1347 C1357 0.929 . S
H1348 C1352 0.929 . S
H1349 C1358 0.929 . S
C1350 H1344 0.930 . S
C1350 C1351 1.367 . S
C1350 C1358 1.378 . S
C1351 C1350 1.367 . S
C1351 C1359 1.433 . S
C1352 H1348 0.929 . S
C1352 C1354 1.378 . S
C1352 C1356 1.350 . S
C1353 C1356 1.463 . S
C1353 C1358 1.350 . S
C1353 N1361 1.427 . S
C1354 H1345 0.930 . S
C1354 C1352 1.378 . S
C1354 C1355 1.367 . S
C1355 C1354 1.367 . S
C1355 C1357 1.433 . S
C1356 C1352 1.350 . S
C1356 C1353 1.463 . S
C1356 N1360 1.427 . S
C1357 H1347 0.929 . S
C1357 C1355 1.433 . S
C1357 N1360 1.384 . S
C1358 H1349 0.929 . S
C1358 C1350 1.378 . S
C1358 C1353 1.350 . S
C1359 H1346 0.929 . S
C1359 C1351 1.433 . S
C1359 N1361 1.384 . S
N1360 C1356 1.427 . S
N1360 C1357 1.384 . S
N1361 C1353 1.427 . S
N1361 C1359 1.384 . S
H1362 C1368 0.930 . S
H1363 C1372 0.930 . S
H1364 C1377 0.929 . S
H1365 C1375 0.929 . S
H1366 C1370 0.929 . S
H1367 C1376 0.929 . S
C1368 H1362 0.930 . S
C1368 C1369 1.367 . S
C1368 C1376 1.378 . S
C1369 C1368 1.367 . S
C1369 C1377 1.433 . S
C1370 H1366 0.929 . S
C1370 C1372 1.378 . S
C1370 C1374 1.350 . S
C1371 C1374 1.463 . S
C1371 C1376 1.350 . S
C1371 N1379 1.427 . S
C1372 H1363 0.930 . S
C1372 C1370 1.378 . S
C1372 C1373 1.367 . S
C1373 C1372 1.367 . S
C1373 C1375 1.433 . S
C1374 C1370 1.350 . S
C1374 C1371 1.463 . S
C1374 N1378 1.427 . S
C1375 H1365 0.929 . S
C1375 C1373 1.433 . S
C1375 N1378 1.384 . S
C1376 H1367 0.929 . S
C1376 C1368 1.378 . S
C1376 C1371 1.350 . S
C1377 H1364 0.929 . S
C1377 C1369 1.433 . S
C1377 N1379 1.384 . S
N1378 C1374 1.427 . S
N1378 C1375 1.384 . S
N1379 C1371 1.427 . S
N1379 C1377 1.384 . S
H1380 C1386 0.930 . S
H1381 C1390 0.930 . S
H1382 C1395 0.929 . S
H1383 C1393 0.929 . S
H1384 C1388 0.929 . S
H1385 C1394 0.929 . S
C1386 H1380 0.930 . S
C1386 C1387 1.367 . S
C1386 C1394 1.378 . S
C1387 C1386 1.367 . S
C1387 C1395 1.433 . S
C1388 H1384 0.929 . S
C1388 C1390 1.378 . S
C1388 C1392 1.350 . S
C1389 C1392 1.463 . S
C1389 C1394 1.350 . S
C1389 N1397 1.427 . S
C1390 H1381 0.930 . S
C1390 C1388 1.378 . S
C1390 C1391 1.367 . S
C1391 C1390 1.367 . S
C1391 C1393 1.433 . S
C1392 C1388 1.350 . S
C1392 C1389 1.463 . S
C1392 N1396 1.427 . S
C1393 H1383 0.929 . S
C1393 C1391 1.433 . S
C1393 N1396 1.384 . S
C1394 H1385 0.929 . S
C1394 C1386 1.378 . S
C1394 C1389 1.350 . S
C1395 H1382 0.929 . S
C1395 C1387 1.433 . S
C1395 N1397 1.384 . S
N1396 C1392 1.427 . S
N1396 C1393 1.384 . S
N1397 C1389 1.427 . S
N1397 C1395 1.384 . S
H1398 C1404 0.930 . S
H1399 C1408 0.930 . S
H1400 C1413 0.929 . S
H1401 C1411 0.929 . S
H1402 C1406 0.929 . S
H1403 C1412 0.929 . S
C1404 H1398 0.930 . S
C1404 C1405 1.367 . S
C1404 C1412 1.378 . S
C1405 C1404 1.367 . S
C1405 C1413 1.433 . S
C1406 H1402 0.929 . S
C1406 C1408 1.378 . S
C1406 C1410 1.350 . S
C1407 C1410 1.463 . S
C1407 C1412 1.350 . S
C1407 N1415 1.427 . S
C1408 H1399 0.930 . S
C1408 C1406 1.378 . S
C1408 C1409 1.367 . S
C1409 C1408 1.367 . S
C1409 C1411 1.433 . S
C1410 C1406 1.350 . S
C1410 C1407 1.463 . S
C1410 N1414 1.427 . S
C1411 H1401 0.929 . S
C1411 C1409 1.433 . S
C1411 N1414 1.384 . S
C1412 H1403 0.929 . S
C1412 C1404 1.378 . S
C1412 C1407 1.350 . S
C1413 H1400 0.929 . S
C1413 C1405 1.433 . S
C1413 N1415 1.384 . S
N1414 C1410 1.427 . S
N1414 C1411 1.384 . S
N1415 C1407 1.427 . S
N1415 C1413 1.384 . S
H1416 C1422 0.930 . S
H1417 C1426 0.930 . S
H1418 C1431 0.929 . S
H1419 C1429 0.929 . S
H1420 C1424 0.929 . S
H1421 C1430 0.929 . S
C1422 H1416 0.930 . S
C1422 C1423 1.367 . S
C1422 C1430 1.378 . S
C1423 C1422 1.367 . S
C1423 C1431 1.433 . S
C1424 H1420 0.929 . S
C1424 C1426 1.378 . S
C1424 C1428 1.350 . S
C1425 C1428 1.463 . S
C1425 C1430 1.350 . S
C1425 N1433 1.427 . S
C1426 H1417 0.930 . S
C1426 C1424 1.378 . S
C1426 C1427 1.367 . S
C1427 C1426 1.367 . S
C1427 C1429 1.433 . S
C1428 C1424 1.350 . S
C1428 C1425 1.463 . S
C1428 N1432 1.427 . S
C1429 H1419 0.929 . S
C1429 C1427 1.433 . S
C1429 N1432 1.384 . S
C1430 H1421 0.929 . S
C1430 C1422 1.378 . S
C1430 C1425 1.350 . S
C1431 H1418 0.929 . S
C1431 C1423 1.433 . S
C1431 N1433 1.384 . S
N1432 C1428 1.427 . S
N1432 C1429 1.384 . S
N1433 C1425 1.427 . S
N1433 C1431 1.384 . S
H1434 C1440 0.930 . S
H1435 C1444 0.930 . S
H1436 C1449 0.929 . S
H1437 C1447 0.929 . S
H1438 C1442 0.929 . S
H1439 C1448 0.929 . S
C1440 H1434 0.930 . S
C1440 C1441 1.367 . S
C1440 C1448 1.378 . S
C1441 C1440 1.367 . S
C1441 C1449 1.433 . S
C1442 H1438 0.929 . S
C1442 C1444 1.378 . S
C1442 C1446 1.350 . S
C1443 C1446 1.463 . S
C1443 C1448 1.350 . S
C1443 N1451 1.427 . S
C1444 H1435 0.930 . S
C1444 C1442 1.378 . S
C1444 C1445 1.367 . S
C1445 C1444 1.367 . S
C1445 C1447 1.433 . S
C1446 C1442 1.350 . S
C1446 C1443 1.463 . S
C1446 N1450 1.427 . S
C1447 H1437 0.929 . S
C1447 C1445 1.433 . S
C1447 N1450 1.384 . S
C1448 H1439 0.929 . S
C1448 C1440 1.378 . S
C1448 C1443 1.350 . S
C1449 H1436 0.929 . S
C1449 C1441 1.433 . S
C1449 N1451 1.384 . S
N1450 C1446 1.427 . S
N1450 C1447 1.384 . S
N1451 C1443 1.427 . S
N1451 C1449 1.384 . S
H1452 C1458 0.930 . S
H1453 C1462 0.930 . S
H1454 C1467 0.929 . S
H1455 C1465 0.929 . S
H1456 C1460 0.929 . S
H1457 C1466 0.929 . S
C1458 H1452 0.930 . S
C1458 C1459 1.367 . S
C1458 C1466 1.378 . S
C1459 C1458 1.367 . S
C1459 C1467 1.433 . S
C1460 H1456 0.929 . S
C1460 C1462 1.378 . S
C1460 C1464 1.350 . S
C1461 C1464 1.463 . S
C1461 C1466 1.350 . S
C1461 N1469 1.427 . S
C1462 H1453 0.930 . S
C1462 C1460 1.378 . S
C1462 C1463 1.367 . S
C1463 C1462 1.367 . S
C1463 C1465 1.433 . S
C1464 C1460 1.350 . S
C1464 C1461 1.463 . S
C1464 N1468 1.427 . S
C1465 H1455 0.929 . S
C1465 C1463 1.433 . S
C1465 N1468 1.384 . S
C1466 H1457 0.929 . S
C1466 C1458 1.378 . S
C1466 C1461 1.350 . S
C1467 H1454 0.929 . S
C1467 C1459 1.433 . S
C1467 N1469 1.384 . S
N1468 C1464 1.427 . S
N1468 C1465 1.384 . S
N1469 C1461 1.427 . S
N1469 C1467 1.384 . S
H1470 C1476 0.930 . S
H1471 C1480 0.930 . S
H1472 C1485 0.929 . S
H1473 C1483 0.929 . S
H1474 C1478 0.929 . S
H1475 C1484 0.929 . S
C1476 H1470 0.930 . S
C1476 C1477 1.367 . S
C1476 C1484 1.378 . S
C1477 C1476 1.367 . S
C1477 C1485 1.433 . S
C1478 H1474 0.929 . S
C1478 C1480 1.378 . S
C1478 C1482 1.350 . S
C1479 C1482 1.463 . S
C1479 C1484 1.350 . S
C1479 N1487 1.427 . S
C1480 H1471 0.930 . S
C1480 C1478 1.378 . S
C1480 C1481 1.367 . S
C1481 C1480 1.367 . S
C1481 C1483 1.433 . S
C1482 C1478 1.350 . S
C1482 C1479 1.463 . S
C1482 N1486 1.427 . S
C1483 H1473 0.929 . S
C1483 C1481 1.433 . S
C1483 N1486 1.384 . S
C1484 H1475 0.929 . S
C1484 C1476 1.378 . S
C1484 C1479 1.350 . S
C1485 H1472 0.929 . S
C1485 C1477 1.433 . S
C1485 N1487 1.384 . S
N1486 C1482 1.427 . S
N1486 C1483 1.384 . S
N1487 C1479 1.427 . S
N1487 C1485 1.384 . S
H1488 C1494 0.930 . S
H1489 C1498 0.930 . S
H1490 C1503 0.929 . S
H1491 C1501 0.929 . S
H1492 C1496 0.929 . S
H1493 C1502 0.929 . S
C1494 H1488 0.930 . S
C1494 C1495 1.367 . S
C1494 C1502 1.378 . S
C1495 C1494 1.367 . S
C1495 C1503 1.433 . S
C1496 H1492 0.929 . S
C1496 C1498 1.378 . S
C1496 C1500 1.350 . S
C1497 C1500 1.463 . S
C1497 C1502 1.350 . S
C1497 N1505 1.427 . S
C1498 H1489 0.930 . S
C1498 C1496 1.378 . S
C1498 C1499 1.367 . S
C1499 C1498 1.367 . S
C1499 C1501 1.433 . S
C1500 C1496 1.350 . S
C1500 C1497 1.463 . S
C1500 N1504 1.427 . S
C1501 H1491 0.929 . S
C1501 C1499 1.433 . S
C1501 N1504 1.384 . S
C1502 H1493 0.929 . S
C1502 C1494 1.378 . S
C1502 C1497 1.350 . S
C1503 H1490 0.929 . S
C1503 C1495 1.433 . S
C1503 N1505 1.384 . S
N1504 C1500 1.427 . S
N1504 C1501 1.384 . S
N1505 C1497 1.427 . S
N1505 C1503 1.384 . S
H1506 C1512 0.930 . S
H1507 C1516 0.930 . S
H1508 C1521 0.929 . S
H1509 C1519 0.929 . S
H1510 C1514 0.929 . S
H1511 C1520 0.929 . S
C1512 H1506 0.930 . S
C1512 C1513 1.367 . S
C1512 C1520 1.378 . S
C1513 C1512 1.367 . S
C1513 C1521 1.433 . S
C1514 H1510 0.929 . S
C1514 C1516 1.378 . S
C1514 C1518 1.350 . S
C1515 C1518 1.463 . S
C1515 C1520 1.350 . S
C1515 N1523 1.427 . S
C1516 H1507 0.930 . S
C1516 C1514 1.378 . S
C1516 C1517 1.367 . S
C1517 C1516 1.367 . S
C1517 C1519 1.433 . S
C1518 C1514 1.350 . S
C1518 C1515 1.463 . S
C1518 N1522 1.427 . S
C1519 H1509 0.929 . S
C1519 C1517 1.433 . S
C1519 N1522 1.384 . S
C1520 H1511 0.929 . S
C1520 C1512 1.378 . S
C1520 C1515 1.350 . S
C1521 H1508 0.929 . S
C1521 C1513 1.433 . S
C1521 N1523 1.384 . S
N1522 C1518 1.427 . S
N1522 C1519 1.384 . S
N1523 C1515 1.427 . S
N1523 C1521 1.384 . S
H1524 C1530 0.930 . S
H1525 C1534 0.930 . S
H1526 C1539 0.929 . S
H1527 C1537 0.929 . S
H1528 C1532 0.929 . S
H1529 C1538 0.929 . S
C1530 H1524 0.930 . S
C1530 C1531 1.367 . S
C1530 C1538 1.378 . S
C1531 C1530 1.367 . S
C1531 C1539 1.433 . S
C1532 H1528 0.929 . S
C1532 C1534 1.378 . S
C1532 C1536 1.350 . S
C1533 C1536 1.463 . S
C1533 C1538 1.350 . S
C1533 N1541 1.427 . S
C1534 H1525 0.930 . S
C1534 C1532 1.378 . S
C1534 C1535 1.367 . S
C1535 C1534 1.367 . S
C1535 C1537 1.433 . S
C1536 C1532 1.350 . S
C1536 C1533 1.463 . S
C1536 N1540 1.427 . S
C1537 H1527 0.929 . S
C1537 C1535 1.433 . S
C1537 N1540 1.384 . S
C1538 H1529 0.929 . S
C1538 C1530 1.378 . S
C1538 C1533 1.350 . S
C1539 H1526 0.929 . S
C1539 C1531 1.433 . S
C1539 N1541 1.384 . S
N1540 C1536 1.427 . S
N1540 C1537 1.384 . S
N1541 C1533 1.427 . S
N1541 C1539 1.384 . S
H1542 C1548 0.930 . S
H1543 C1552 0.930 . S
H1544 C1557 0.929 . S
H1545 C1555 0.929 . S
H1546 C1550 0.929 . S
H1547 C1556 0.929 . S
C1548 H1542 0.930 . S
C1548 C1549 1.367 . S
C1548 C1556 1.378 . S
C1549 C1548 1.367 . S
C1549 C1557 1.433 . S
C1550 H1546 0.929 . S
C1550 C1552 1.378 . S
C1550 C1554 1.350 . S
C1551 C1554 1.463 . S
C1551 C1556 1.350 . S
C1551 N1559 1.427 . S
C1552 H1543 0.930 . S
C1552 C1550 1.378 . S
C1552 C1553 1.367 . S
C1553 C1552 1.367 . S
C1553 C1555 1.433 . S
C1554 C1550 1.350 . S
C1554 C1551 1.463 . S
C1554 N1558 1.427 . S
C1555 H1545 0.929 . S
C1555 C1553 1.433 . S
C1555 N1558 1.384 . S
C1556 H1547 0.929 . S
C1556 C1548 1.378 . S
C1556 C1551 1.350 . S
C1557 H1544 0.929 . S
C1557 C1549 1.433 . S
C1557 N1559 1.384 . S
N1558 C1554 1.427 . S
N1558 C1555 1.384 . S
N1559 C1551 1.427 . S
N1559 C1557 1.384 . S
H1560 C1566 0.930 . S
H1561 C1570 0.930 . S
H1562 C1575 0.929 . S
H1563 C1573 0.929 . S
H1564 C1568 0.929 . S
H1565 C1574 0.929 . S
C1566 H1560 0.930 . S
C1566 C1567 1.367 . S
C1566 C1574 1.378 . S
C1567 C1566 1.367 . S
C1567 C1575 1.433 . S
C1568 H1564 0.929 . S
C1568 C1570 1.378 . S
C1568 C1572 1.350 . S
C1569 C1572 1.463 . S
C1569 C1574 1.350 . S
C1569 N1577 1.427 . S
C1570 H1561 0.930 . S
C1570 C1568 1.378 . S
C1570 C1571 1.367 . S
C1571 C1570 1.367 . S
C1571 C1573 1.433 . S
C1572 C1568 1.350 . S
C1572 C1569 1.463 . S
C1572 N1576 1.427 . S
C1573 H1563 0.929 . S
C1573 C1571 1.433 . S
C1573 N1576 1.384 . S
C1574 H1565 0.929 . S
C1574 C1566 1.378 . S
C1574 C1569 1.350 . S
C1575 H1562 0.929 . S
C1575 C1567 1.433 . S
C1575 N1577 1.384 . S
N1576 C1572 1.427 . S
N1576 C1573 1.384 . S
N1577 C1569 1.427 . S
N1577 C1575 1.384 . S
H1578 C1584 0.930 . S
H1579 C1588 0.930 . S
H1580 C1593 0.929 . S
H1581 C1591 0.929 . S
H1582 C1586 0.929 . S
H1583 C1592 0.929 . S
C1584 H1578 0.930 . S
C1584 C1585 1.367 . S
C1584 C1592 1.378 . S
C1585 C1584 1.367 . S
C1585 C1593 1.433 . S
C1586 H1582 0.929 . S
C1586 C1588 1.378 . S
C1586 C1590 1.350 . S
C1587 C1590 1.463 . S
C1587 C1592 1.350 . S
C1587 N1595 1.427 . S
C1588 H1579 0.930 . S
C1588 C1586 1.378 . S
C1588 C1589 1.367 . S
C1589 C1588 1.367 . S
C1589 C1591 1.433 . S
C1590 C1586 1.350 . S
C1590 C1587 1.463 . S
C1590 N1594 1.427 . S
C1591 H1581 0.929 . S
C1591 C1589 1.433 . S
C1591 N1594 1.384 . S
C1592 H1583 0.929 . S
C1592 C1584 1.378 . S
C1592 C1587 1.350 . S
C1593 H1580 0.929 . S
C1593 C1585 1.433 . S
C1593 N1595 1.384 . S
N1594 C1590 1.427 . S
N1594 C1591 1.384 . S
N1595 C1587 1.427 . S
N1595 C1593 1.384 . S
H1596 C1602 0.930 . S
H1597 C1606 0.930 . S
H1598 C1611 0.929 . S
H1599 C1609 0.929 . S
H1600 C1604 0.929 . S
H1601 C1610 0.929 . S
C1602 H1596 0.930 . S
C1602 C1603 1.367 . S
C1602 C1610 1.378 . S
C1603 C1602 1.367 . S
C1603 C1611 1.433 . S
C1604 H1600 0.929 . S
C1604 C1606 1.378 . S
C1604 C1608 1.350 . S
C1605 C1608 1.463 . S
C1605 C1610 1.350 . S
C1605 N1613 1.427 . S
C1606 H1597 0.930 . S
C1606 C1604 1.378 . S
C1606 C1607 1.367 . S
C1607 C1606 1.367 . S
C1607 C1609 1.433 . S
C1608 C1604 1.350 . S
C1608 C1605 1.463 . S
C1608 N1612 1.427 . S
C1609 H1599 0.929 . S
C1609 C1607 1.433 . S
C1609 N1612 1.384 . S
C1610 H1601 0.929 . S
C1610 C1602 1.378 . S
C1610 C1605 1.350 . S
C1611 H1598 0.929 . S
C1611 C1603 1.433 . S
C1611 N1613 1.384 . S
N1612 C1608 1.427 . S
N1612 C1609 1.384 . S
N1613 C1605 1.427 . S
N1613 C1611 1.384 . S
H1614 C1620 0.930 . S
H1615 C1624 0.930 . S
H1616 C1629 0.929 . S
H1617 C1627 0.929 . S
H1618 C1622 0.929 . S
H1619 C1628 0.929 . S
C1620 H1614 0.930 . S
C1620 C1621 1.367 . S
C1620 C1628 1.378 . S
C1621 C1620 1.367 . S
C1621 C1629 1.433 . S
C1622 H1618 0.929 . S
C1622 C1624 1.378 . S
C1622 C1626 1.350 . S
C1623 C1626 1.463 . S
C1623 C1628 1.350 . S
C1623 N1631 1.427 . S
C1624 H1615 0.930 . S
C1624 C1622 1.378 . S
C1624 C1625 1.367 . S
C1625 C1624 1.367 . S
C1625 C1627 1.433 . S
C1626 C1622 1.350 . S
C1626 C1623 1.463 . S
C1626 N1630 1.427 . S
C1627 H1617 0.929 . S
C1627 C1625 1.433 . S
C1627 N1630 1.384 . S
C1628 H1619 0.929 . S
C1628 C1620 1.378 . S
C1628 C1623 1.350 . S
C1629 H1616 0.929 . S
C1629 C1621 1.433 . S
C1629 N1631 1.384 . S
N1630 C1626 1.427 . S
N1630 C1627 1.384 . S
N1631 C1623 1.427 . S
N1631 C1629 1.384 . S
H1632 C1638 0.930 . S
H1633 C1642 0.930 . S
H1634 C1647 0.929 . S
H1635 C1645 0.929 . S
H1636 C1640 0.929 . S
H1637 C1646 0.929 . S
C1638 H1632 0.930 . S
C1638 C1639 1.367 . S
C1638 C1646 1.378 . S
C1639 C1638 1.367 . S
C1639 C1647 1.433 . S
C1640 H1636 0.929 . S
C1640 C1642 1.378 . S
C1640 C1644 1.350 . S
C1641 C1644 1.463 . S
C1641 C1646 1.350 . S
C1641 N1649 1.427 . S
C1642 H1633 0.930 . S
C1642 C1640 1.378 . S
C1642 C1643 1.367 . S
C1643 C1642 1.367 . S
C1643 C1645 1.433 . S
C1644 C1640 1.350 . S
C1644 C1641 1.463 . S
C1644 N1648 1.427 . S
C1645 H1635 0.929 . S
C1645 C1643 1.433 . S
C1645 N1648 1.384 . S
C1646 H1637 0.929 . S
C1646 C1638 1.378 . S
C1646 C1641 1.350 . S
C1647 H1634 0.929 . S
C1647 C1639 1.433 . S
C1647 N1649 1.384 . S
N1648 C1644 1.427 . S
N1648 C1645 1.384 . S
N1649 C1641 1.427 . S
N1649 C1647 1.384 . S
H1650 C1656 0.930 . S
H1651 C1660 0.930 . S
H1652 C1665 0.929 . S
H1653 C1663 0.929 . S
H1654 C1658 0.929 . S
H1655 C1664 0.929 . S
C1656 H1650 0.930 . S
C1656 C1657 1.367 . S
C1656 C1664 1.378 . S
C1657 C1656 1.367 . S
C1657 C1665 1.433 . S
C1658 H1654 0.929 . S
C1658 C1660 1.378 . S
C1658 C1662 1.350 . S
C1659 C1662 1.463 . S
C1659 C1664 1.350 . S
C1659 N1667 1.427 . S
C1660 H1651 0.930 . S
C1660 C1658 1.378 . S
C1660 C1661 1.367 . S
C1661 C1660 1.367 . S
C1661 C1663 1.433 . S
C1662 C1658 1.350 . S
C1662 C1659 1.463 . S
C1662 N1666 1.427 . S
C1663 H1653 0.929 . S
C1663 C1661 1.433 . S
C1663 N1666 1.384 . S
C1664 H1655 0.929 . S
C1664 C1656 1.378 . S
C1664 C1659 1.350 . S
C1665 H1652 0.929 . S
C1665 C1657 1.433 . S
C1665 N1667 1.384 . S
N1666 C1662 1.427 . S
N1666 C1663 1.384 . S
N1667 C1659 1.427 . S
N1667 C1665 1.384 . S
H1668 C1674 0.930 . S
H1669 C1678 0.934 . S
H1670 C1683 0.929 . S
H1671 C1681 0.929 . S
H1672 C1676 0.929 . S
H1673 C1682 0.929 . S
C1674 H1668 0.930 . S
C1674 C1675 1.367 . S
C1674 C1682 1.378 . S
C1675 C1674 1.367 . S
C1675 C1683 1.433 . S
C1676 H1672 0.929 . S
C1676 C1678 1.378 . S
C1676 C1680 1.350 . S
C1677 C1680 1.463 . S
C1677 C1682 1.350 . S
C1677 N1685 1.427 . S
C1678 H1669 0.934 . S
C1678 C1676 1.378 . S
C1678 C1679 1.367 . S
C1679 C1678 1.367 . S
C1679 C1681 1.433 . S
C1680 C1676 1.350 . S
C1680 C1677 1.463 . S
C1680 N1684 1.427 . S
C1681 H1671 0.929 . S
C1681 C1679 1.433 . S
C1681 N1684 1.384 . S
C1682 H1673 0.929 . S
C1682 C1674 1.378 . S
C1682 C1677 1.350 . S
C1683 H1670 0.929 . S
C1683 C1675 1.433 . S
C1683 N1685 1.384 . S
N1684 C1680 1.427 . S
N1684 C1681 1.384 . S
N1685 C1677 1.427 . S
N1685 C1683 1.384 . S
H1686 C1692 0.930 . S
H1687 C1696 0.930 . S
H1688 C1701 0.929 . S
H1689 C1699 0.929 . S
H1690 C1694 0.929 . S
H1691 C1700 0.929 . S
C1692 H1686 0.930 . S
C1692 C1693 1.367 . S
C1692 C1700 1.378 . S
C1693 C1692 1.367 . S
C1693 C1701 1.433 . S
C1694 H1690 0.929 . S
C1694 C1696 1.378 . S
C1694 C1698 1.350 . S
C1695 C1698 1.463 . S
C1695 C1700 1.350 . S
C1695 N1703 1.427 . S
C1696 H1687 0.930 . S
C1696 C1694 1.378 . S
C1696 C1697 1.367 . S
C1697 C1696 1.367 . S
C1697 C1699 1.433 . S
C1698 C1694 1.350 . S
C1698 C1695 1.463 . S
C1698 N1702 1.427 . S
C1699 H1689 0.929 . S
C1699 C1697 1.433 . S
C1699 N1702 1.384 . S
C1700 H1691 0.929 . S
C1700 C1692 1.378 . S
C1700 C1695 1.350 . S
C1701 H1688 0.929 . S
C1701 C1693 1.433 . S
C1701 N1703 1.384 . S
N1702 C1698 1.427 . S
N1702 C1699 1.384 . S
N1703 C1695 1.427 . S
N1703 C1701 1.384 . S
H1704 C1710 0.930 . S
H1705 C1714 0.930 . S
H1706 C1719 0.929 . S
H1707 C1717 0.929 . S
H1708 C1712 0.929 . S
H1709 C1718 0.929 . S
C1710 H1704 0.930 . S
C1710 C1711 1.367 . S
C1710 C1718 1.378 . S
C1711 C1710 1.367 . S
C1711 C1719 1.433 . S
C1712 H1708 0.929 . S
C1712 C1714 1.378 . S
C1712 C1716 1.350 . S
C1713 C1716 1.463 . S
C1713 C1718 1.350 . S
C1713 N1721 1.427 . S
C1714 H1705 0.930 . S
C1714 C1712 1.378 . S
C1714 C1715 1.367 . S
C1715 C1714 1.367 . S
C1715 C1717 1.433 . S
C1716 C1712 1.350 . S
C1716 C1713 1.463 . S
C1716 N1720 1.427 . S
C1717 H1707 0.929 . S
C1717 C1715 1.433 . S
C1717 N1720 1.384 . S
C1718 H1709 0.929 . S
C1718 C1710 1.378 . S
C1718 C1713 1.350 . S
C1719 H1706 0.929 . S
C1719 C1711 1.433 . S
C1719 N1721 1.384 . S
N1720 C1716 1.427 . S
N1720 C1717 1.384 . S
N1721 C1713 1.427 . S
N1721 C1719 1.384 . S
H1722 C1728 0.930 . S
H1723 C1732 0.930 . S
H1724 C1737 0.929 . S
H1725 C1735 0.929 . S
H1726 C1730 0.929 . S
H1727 C1736 0.929 . S
C1728 H1722 0.930 . S
C1728 C1729 1.367 . S
C1728 C1736 1.378 . S
C1729 C1728 1.367 . S
C1729 C1737 1.433 . S
C1730 H1726 0.929 . S
C1730 C1732 1.378 . S
C1730 C1734 1.350 . S
C1731 C1734 1.463 . S
C1731 C1736 1.350 . S
C1731 N1739 1.427 . S
C1732 H1723 0.930 . S
C1732 C1730 1.378 . S
C1732 C1733 1.367 . S
C1733 C1732 1.367 . S
C1733 C1735 1.433 . S
C1734 C1730 1.350 . S
C1734 C1731 1.463 . S
C1734 N1738 1.427 . S
C1735 H1725 0.929 . S
C1735 C1733 1.433 . S
C1735 N1738 1.384 . S
C1736 H1727 0.929 . S
C1736 C1728 1.378 . S
C1736 C1731 1.350 . S
C1737 H1724 0.929 . S
C1737 C1729 1.433 . S
C1737 N1739 1.384 . S
N1738 C1734 1.427 . S
N1738 C1735 1.384 . S
N1739 C1731 1.427 . S
N1739 C1737 1.384 . S
H1740 C1746 0.930 . S
H1741 C1750 0.930 . S
H1742 C1755 0.929 . S
H1743 C1753 0.929 . S
H1744 C1748 0.929 . S
H1745 C1754 0.929 . S
C1746 H1740 0.930 . S
C1746 C1747 1.367 . S
C1746 C1754 1.378 . S
C1747 C1746 1.367 . S
C1747 C1755 1.433 . S
C1748 H1744 0.929 . S
C1748 C1750 1.378 . S
C1748 C1752 1.350 . S
C1749 C1752 1.463 . S
C1749 C1754 1.350 . S
C1749 N1757 1.427 . S
C1750 H1741 0.930 . S
C1750 C1748 1.378 . S
C1750 C1751 1.367 . S
C1751 C1750 1.367 . S
C1751 C1753 1.433 . S
C1752 C1748 1.350 . S
C1752 C1749 1.463 . S
C1752 N1756 1.427 . S
C1753 H1743 0.929 . S
C1753 C1751 1.433 . S
C1753 N1756 1.384 . S
C1754 H1745 0.929 . S
C1754 C1746 1.378 . S
C1754 C1749 1.350 . S
C1755 H1742 0.929 . S
C1755 C1747 1.433 . S
C1755 N1757 1.384 . S
N1756 C1752 1.427 . S
N1756 C1753 1.384 . S
N1757 C1749 1.427 . S
N1757 C1755 1.384 . S
H1758 C1764 0.930 . S
H1759 C1768 0.930 . S
H1760 C1773 0.929 . S
H1761 C1771 0.929 . S
H1762 C1766 0.929 . S
H1763 C1772 0.929 . S
C1764 H1758 0.930 . S
C1764 C1765 1.367 . S
C1764 C1772 1.378 . S
C1765 C1764 1.367 . S
C1765 C1773 1.433 . S
C1766 H1762 0.929 . S
C1766 C1768 1.378 . S
C1766 C1770 1.350 . S
C1767 C1770 1.463 . S
C1767 C1772 1.350 . S
C1767 N1775 1.427 . S
C1768 H1759 0.930 . S
C1768 C1766 1.378 . S
C1768 C1769 1.367 . S
C1769 C1768 1.367 . S
C1769 C1771 1.433 . S
C1770 C1766 1.350 . S
C1770 C1767 1.463 . S
C1770 N1774 1.427 . S
C1771 H1761 0.929 . S
C1771 C1769 1.433 . S
C1771 N1774 1.384 . S
C1772 H1763 0.929 . S
C1772 C1764 1.378 . S
C1772 C1767 1.350 . S
C1773 H1760 0.929 . S
C1773 C1765 1.433 . S
C1773 N1775 1.384 . S
N1774 C1770 1.427 . S
N1774 C1771 1.384 . S
N1775 C1767 1.427 . S
N1775 C1773 1.384 . S
H1776 C1782 0.930 . S
H1777 C1786 0.930 . S
H1778 C1791 0.929 . S
H1779 C1789 0.929 . S
H1780 C1784 0.929 . S
H1781 C1790 0.929 . S
C1782 H1776 0.930 . S
C1782 C1783 1.367 . S
C1782 C1790 1.378 . S
C1783 C1782 1.367 . S
C1783 C1791 1.433 . S
C1784 H1780 0.929 . S
C1784 C1786 1.378 . S
C1784 C1788 1.350 . S
C1785 C1788 1.463 . S
C1785 C1790 1.350 . S
C1785 N1793 1.427 . S
C1786 H1777 0.930 . S
C1786 C1784 1.378 . S
C1786 C1787 1.367 . S
C1787 C1786 1.367 . S
C1787 C1789 1.433 . S
C1788 C1784 1.350 . S
C1788 C1785 1.463 . S
C1788 N1792 1.427 . S
C1789 H1779 0.929 . S
C1789 C1787 1.433 . S
C1789 N1792 1.384 . S
C1790 H1781 0.929 . S
C1790 C1782 1.378 . S
C1790 C1785 1.350 . S
C1791 H1778 0.929 . S
C1791 C1783 1.433 . S
C1791 N1793 1.384 . S
N1792 C1788 1.427 . S
N1792 C1789 1.384 . S
N1793 C1785 1.427 . S
N1793 C1791 1.384 . S
H1794 C1800 0.930 . S
H1795 C1804 0.930 . S
H1796 C1809 0.929 . S
H1797 C1807 0.929 . S
H1798 C1802 0.929 . S
H1799 C1808 0.929 . S
C1800 H1794 0.930 . S
C1800 C1801 1.367 . S
C1800 C1808 1.378 . S
C1801 C1800 1.367 . S
C1801 C1809 1.433 . S
C1802 H1798 0.929 . S
C1802 C1804 1.378 . S
C1802 C1806 1.350 . S
C1803 C1806 1.463 . S
C1803 C1808 1.350 . S
C1803 N1811 1.427 . S
C1804 H1795 0.930 . S
C1804 C1802 1.378 . S
C1804 C1805 1.367 . S
C1805 C1804 1.367 . S
C1805 C1807 1.433 . S
C1806 C1802 1.350 . S
C1806 C1803 1.463 . S
C1806 N1810 1.427 . S
C1807 H1797 0.929 . S
C1807 C1805 1.433 . S
C1807 N1810 1.384 . S
C1808 H1799 0.929 . S
C1808 C1800 1.378 . S
C1808 C1803 1.350 . S
C1809 H1796 0.929 . S
C1809 C1801 1.433 . S
C1809 N1811 1.384 . S
N1810 C1806 1.427 . S
N1810 C1807 1.384 . S
N1811 C1803 1.427 . S
N1811 C1809 1.384 . S
H1812 C1818 0.930 . S
H1813 C1822 0.930 . S
H1814 C1827 0.929 . S
H1815 C1825 0.929 . S
H1816 C1820 0.929 . S
H1817 C1826 0.929 . S
C1818 H1812 0.930 . S
C1818 C1819 1.367 . S
C1818 C1826 1.378 . S
C1819 C1818 1.367 . S
C1819 C1827 1.433 . S
C1820 H1816 0.929 . S
C1820 C1822 1.378 . S
C1820 C1824 1.350 . S
C1821 C1824 1.463 . S
C1821 C1826 1.350 . S
C1821 N1829 1.427 . S
C1822 H1813 0.930 . S
C1822 C1820 1.378 . S
C1822 C1823 1.367 . S
C1823 C1822 1.367 . S
C1823 C1825 1.433 . S
C1824 C1820 1.350 . S
C1824 C1821 1.463 . S
C1824 N1828 1.427 . S
C1825 H1815 0.929 . S
C1825 C1823 1.433 . S
C1825 N1828 1.384 . S
C1826 H1817 0.929 . S
C1826 C1818 1.378 . S
C1826 C1821 1.350 . S
C1827 H1814 0.929 . S
C1827 C1819 1.433 . S
C1827 N1829 1.384 . S
N1828 C1824 1.427 . S
N1828 C1825 1.384 . S
N1829 C1821 1.427 . S
N1829 C1827 1.384 . S
H1830 C1836 0.930 . S
H1831 C1840 0.930 . S
H1832 C1845 0.929 . S
H1833 C1843 0.929 . S
H1834 C1838 0.929 . S
H1835 C1844 0.929 . S
C1836 H1830 0.930 . S
C1836 C1837 1.367 . S
C1836 C1844 1.378 . S
C1837 C1836 1.367 . S
C1837 C1845 1.433 . S
C1838 H1834 0.929 . S
C1838 C1840 1.378 . S
C1838 C1842 1.350 . S
C1839 C1842 1.463 . S
C1839 C1844 1.350 . S
C1839 N1847 1.427 . S
C1840 H1831 0.930 . S
C1840 C1838 1.378 . S
C1840 C1841 1.367 . S
C1841 C1840 1.367 . S
C1841 C1843 1.433 . S
C1842 C1838 1.350 . S
C1842 C1839 1.463 . S
C1842 N1846 1.427 . S
C1843 H1833 0.929 . S
C1843 C1841 1.433 . S
C1843 N1846 1.384 . S
C1844 H1835 0.929 . S
C1844 C1836 1.378 . S
C1844 C1839 1.350 . S
C1845 H1832 0.929 . S
C1845 C1837 1.433 . S
C1845 N1847 1.384 . S
N1846 C1842 1.427 . S
N1846 C1843 1.384 . S
N1847 C1839 1.427 . S
N1847 C1845 1.384 . S
H1848 C1854 0.930 . S
H1849 C1858 0.930 . S
H1850 C1863 0.929 . S
H1851 C1861 0.929 . S
H1852 C1856 0.929 . S
H1853 C1862 0.929 . S
C1854 H1848 0.930 . S
C1854 C1855 1.367 . S
C1854 C1862 1.378 . S
C1855 C1854 1.367 . S
C1855 C1863 1.433 . S
C1856 H1852 0.929 . S
C1856 C1858 1.378 . S
C1856 C1860 1.350 . S
C1857 C1860 1.463 . S
C1857 C1862 1.350 . S
C1857 N1865 1.427 . S
C1858 H1849 0.930 . S
C1858 C1856 1.378 . S
C1858 C1859 1.367 . S
C1859 C1858 1.367 . S
C1859 C1861 1.433 . S
C1860 C1856 1.350 . S
C1860 C1857 1.463 . S
C1860 N1864 1.427 . S
C1861 H1851 0.929 . S
C1861 C1859 1.433 . S
C1861 N1864 1.384 . S
C1862 H1853 0.929 . S
C1862 C1854 1.378 . S
C1862 C1857 1.350 . S
C1863 H1850 0.929 . S
C1863 C1855 1.433 . S
C1863 N1865 1.384 . S
N1864 C1860 1.427 . S
N1864 C1861 1.384 . S
N1865 C1857 1.427 . S
N1865 C1863 1.384 . S
H1866 C1872 0.930 . S
H1867 C1876 0.930 . S
H1868 C1881 0.929 . S
H1869 C1879 0.929 . S
H1870 C1874 0.929 . S
H1871 C1880 0.929 . S
C1872 H1866 0.930 . S
C1872 C1873 1.367 . S
C1872 C1880 1.378 . S
C1873 C1872 1.367 . S
C1873 C1881 1.433 . S
C1874 H1870 0.929 . S
C1874 C1876 1.378 . S
C1874 C1878 1.350 . S
C1875 C1878 1.463 . S
C1875 C1880 1.350 . S
C1875 N1883 1.427 . S
C1876 H1867 0.930 . S
C1876 C1874 1.378 . S
C1876 C1877 1.367 . S
C1877 C1876 1.367 . S
C1877 C1879 1.433 . S
C1878 C1874 1.350 . S
C1878 C1875 1.463 . S
C1878 N1882 1.427 . S
C1879 H1869 0.929 . S
C1879 C1877 1.433 . S
C1879 N1882 1.384 . S
C1880 H1871 0.929 . S
C1880 C1872 1.378 . S
C1880 C1875 1.350 . S
C1881 H1868 0.929 . S
C1881 C1873 1.433 . S
C1881 N1883 1.384 . S
N1882 C1878 1.427 . S
N1882 C1879 1.384 . S
N1883 C1875 1.427 . S
N1883 C1881 1.384 . S
H1884 C1890 0.930 . S
H1885 C1894 0.930 . S
H1886 C1899 0.929 . S
H1887 C1897 0.929 . S
H1888 C1892 0.929 . S
H1889 C1898 0.929 . S
C1890 H1884 0.930 . S
C1890 C1891 1.367 . S
C1890 C1898 1.378 . S
C1891 C1890 1.367 . S
C1891 C1899 1.433 . S
C1892 H1888 0.929 . S
C1892 C1894 1.378 . S
C1892 C1896 1.350 . S
C1893 C1896 1.463 . S
C1893 C1898 1.350 . S
C1893 N1901 1.427 . S
C1894 H1885 0.930 . S
C1894 C1892 1.378 . S
C1894 C1895 1.367 . S
C1895 C1894 1.367 . S
C1895 C1897 1.433 . S
C1896 C1892 1.350 . S
C1896 C1893 1.463 . S
C1896 N1900 1.427 . S
C1897 H1887 0.929 . S
C1897 C1895 1.433 . S
C1897 N1900 1.384 . S
C1898 H1889 0.929 . S
C1898 C1890 1.378 . S
C1898 C1893 1.350 . S
C1899 H1886 0.929 . S
C1899 C1891 1.433 . S
C1899 N1901 1.384 . S
N1900 C1896 1.427 . S
N1900 C1897 1.384 . S
N1901 C1893 1.427 . S
N1901 C1899 1.384 . S
H1902 C1908 0.930 . S
H1903 C1912 0.930 . S
H1904 C1917 0.929 . S
H1905 C1915 0.929 . S
H1906 C1910 0.929 . S
H1907 C1916 0.929 . S
C1908 H1902 0.930 . S
C1908 C1909 1.367 . S
C1908 C1916 1.378 . S
C1909 C1908 1.367 . S
C1909 C1917 1.433 . S
C1910 H1906 0.929 . S
C1910 C1912 1.378 . S
C1910 C1914 1.350 . S
C1911 C1914 1.463 . S
C1911 C1916 1.350 . S
C1911 N1919 1.427 . S
C1912 H1903 0.930 . S
C1912 C1910 1.378 . S
C1912 C1913 1.367 . S
C1913 C1912 1.367 . S
C1913 C1915 1.433 . S
C1914 C1910 1.350 . S
C1914 C1911 1.463 . S
C1914 N1918 1.427 . S
C1915 H1905 0.929 . S
C1915 C1913 1.433 . S
C1915 N1918 1.384 . S
C1916 H1907 0.929 . S
C1916 C1908 1.378 . S
C1916 C1911 1.350 . S
C1917 H1904 0.929 . S
C1917 C1909 1.433 . S
C1917 N1919 1.384 . S
N1918 C1914 1.427 . S
N1918 C1915 1.384 . S
N1919 C1911 1.427 . S
N1919 C1917 1.384 . S
H1920 C1926 0.930 . S
H1921 C1930 0.930 . S
H1922 C1935 0.931 . S
H1923 C1933 0.931 . S
H1924 C1928 0.929 . S
H1925 C1934 0.929 . S
C1926 H1920 0.930 . S
C1926 C1927 1.367 . S
C1926 C1934 1.378 . S
C1927 C1926 1.367 . S
C1927 C1935 1.429 1_545 S
C1928 H1924 0.929 . S
C1928 C1930 1.378 . S
C1928 C1932 1.350 . S
C1929 C1932 1.463 1_545 S
C1929 C1934 1.350 . S
C1929 N1937 1.427 1_545 S
C1930 H1921 0.930 . S
C1930 C1928 1.378 . S
C1930 C1931 1.367 . S
C1931 C1930 1.367 . S
C1931 C1933 1.429 1_565 S
C1932 C1928 1.350 . S
C1932 C1929 1.463 1_565 S
C1932 N1936 1.427 1_565 S
C1933 H1923 0.931 . S
C1933 C1931 1.429 1_545 S
C1933 N1936 1.385 . S
C1934 H1925 0.929 . S
C1934 C1926 1.378 . S
C1934 C1929 1.350 . S
C1935 H1922 0.931 . S
C1935 C1927 1.429 1_565 S
C1935 N1937 1.385 . S
N1936 C1932 1.427 1_545 S
N1936 C1933 1.385 . S
N1937 C1929 1.427 1_565 S
N1937 C1935 1.385 . S
H1938 C1944 0.930 . S
H1939 C1948 0.930 . S
H1940 C1953 0.929 . S
H1941 C1951 0.929 . S
H1942 C1946 0.929 . S
H1943 C1952 0.929 . S
C1944 H1938 0.930 . S
C1944 C1945 1.367 . S
C1944 C1952 1.378 . S
C1945 C1944 1.367 . S
C1945 C1953 1.433 . S
C1946 H1942 0.929 . S
C1946 C1948 1.378 . S
C1946 C1950 1.350 . S
C1947 C1950 1.463 . S
C1947 C1952 1.350 . S
C1947 N1955 1.427 . S
C1948 H1939 0.930 . S
C1948 C1946 1.378 . S
C1948 C1949 1.367 . S
C1949 C1948 1.367 . S
C1949 C1951 1.433 . S
C1950 C1946 1.350 . S
C1950 C1947 1.463 . S
C1950 N1954 1.427 . S
C1951 H1941 0.929 . S
C1951 C1949 1.433 . S
C1951 N1954 1.384 . S
C1952 H1943 0.929 . S
C1952 C1944 1.378 . S
C1952 C1947 1.350 . S
C1953 H1940 0.929 . S
C1953 C1945 1.433 . S
C1953 N1955 1.384 . S
N1954 C1950 1.427 . S
N1954 C1951 1.384 . S
N1955 C1947 1.427 . S
N1955 C1953 1.384 . S
H1956 C1962 0.930 . S
H1957 C1966 0.930 . S
H1958 C1971 0.929 . S
H1959 C1969 0.929 . S
H1960 C1964 0.929 . S
H1961 C1970 0.929 . S
C1962 H1956 0.930 . S
C1962 C1963 1.367 1_565 S
C1962 C1970 1.378 . S
C1963 C1962 1.367 1_545 S
C1963 C1971 1.433 . S
C1964 H1960 0.929 . S
C1964 C1966 1.378 . S
C1964 C1968 1.350 1_545 S
C1965 C1968 1.463 1_545 S
C1965 C1970 1.350 1_545 S
C1965 N1973 1.427 . S
C1966 H1957 0.930 . S
C1966 C1964 1.378 . S
C1966 C1967 1.367 1_545 S
C1967 C1966 1.367 1_565 S
C1967 C1969 1.433 . S
C1968 C1964 1.350 1_565 S
C1968 C1965 1.463 1_565 S
C1968 N1972 1.427 . S
C1969 H1959 0.929 . S
C1969 C1967 1.433 . S
C1969 N1972 1.384 . S
C1970 H1961 0.929 . S
C1970 C1962 1.378 . S
C1970 C1965 1.350 1_565 S
C1971 H1958 0.929 . S
C1971 C1963 1.433 . S
C1971 N1973 1.384 . S
N1972 C1968 1.427 . S
N1972 C1969 1.384 . S
N1973 C1965 1.427 . S
N1973 C1971 1.384 . S
H1974 C1980 0.930 . S
H1975 C1984 0.930 . S
H1976 C1989 0.929 . S
H1977 C1987 0.929 . S
H1978 C1982 0.929 . S
H1979 C1988 0.929 . S
C1980 H1974 0.930 . S
C1980 C1981 1.367 . S
C1980 C1988 1.378 . S
C1981 C1980 1.367 . S
C1981 C1989 1.433 . S
C1982 H1978 0.929 . S
C1982 C1984 1.378 . S
C1982 C1986 1.350 . S
C1983 C1986 1.463 1_556 S
C1983 C1988 1.350 . S
C1983 N1991 1.427 . S
C1984 H1975 0.930 . S
C1984 C1982 1.378 . S
C1984 C1985 1.367 . S
C1985 C1984 1.367 . S
C1985 C1987 1.433 . S
C1986 C1982 1.350 . S
C1986 C1983 1.463 1_554 S
C1986 N1990 1.427 . S
C1987 H1977 0.929 . S
C1987 C1985 1.433 . S
C1987 N1990 1.384 . S
C1988 H1979 0.929 . S
C1988 C1980 1.378 . S
C1988 C1983 1.350 . S
C1989 H1976 0.929 . S
C1989 C1981 1.433 . S
C1989 N1991 1.384 . S
N1990 C1986 1.427 . S
N1990 C1987 1.384 . S
N1991 C1983 1.427 . S
N1991 C1989 1.384 . S
H1992 C1998 0.930 . S
H1993 C2002 0.930 . S
H1994 C2007 0.929 . S
H1995 C2005 0.929 . S
H1996 C2000 0.929 . S
H1997 C2006 0.929 . S
C1998 H1992 0.930 . S
C1998 C1999 1.367 1_545 S
C1998 C2006 1.378 . S
C1999 C1998 1.367 1_565 S
C1999 C2007 1.433 . S
C2000 H1996 0.929 . S
C2000 C2002 1.378 . S
C2000 C2004 1.350 1_565 S
C2001 C2004 1.463 1_565 S
C2001 C2006 1.350 1_565 S
C2001 N2009 1.427 . S
C2002 H1993 0.930 . S
C2002 C2000 1.378 . S
C2002 C2003 1.367 1_565 S
C2003 C2002 1.367 1_545 S
C2003 C2005 1.433 . S
C2004 C2000 1.350 1_545 S
C2004 C2001 1.463 1_545 S
C2004 N2008 1.427 . S
C2005 H1995 0.929 . S
C2005 C2003 1.433 . S
C2005 N2008 1.384 . S
C2006 H1997 0.929 . S
C2006 C1998 1.378 . S
C2006 C2001 1.350 1_545 S
C2007 H1994 0.929 . S
C2007 C1999 1.433 . S
C2007 N2009 1.384 . S
N2008 C2004 1.427 . S
N2008 C2005 1.384 . S
N2009 C2001 1.427 . S
N2009 C2007 1.384 . S
H2010 C2016 0.930 . S
H2011 C2020 0.930 . S
H2012 C2025 0.929 . S
H2013 C2023 0.929 . S
H2014 C2018 0.929 . S
H2015 C2024 0.929 . S
C2016 H2010 0.930 . S
C2016 C2017 1.367 . S
C2016 C2024 1.378 . S
C2017 C2016 1.367 . S
C2017 C2025 1.433 . S
C2018 H2014 0.929 . S
C2018 C2020 1.378 . S
C2018 C2022 1.350 . S
C2019 C2022 1.463 . S
C2019 C2024 1.350 . S
C2019 N2027 1.427 . S
C2020 H2011 0.930 . S
C2020 C2018 1.378 . S
C2020 C2021 1.367 . S
C2021 C2020 1.367 . S
C2021 C2023 1.433 . S
C2022 C2018 1.350 . S
C2022 C2019 1.463 . S
C2022 N2026 1.427 . S
C2023 H2013 0.929 . S
C2023 C2021 1.433 . S
C2023 N2026 1.384 . S
C2024 H2015 0.929 . S
C2024 C2016 1.378 . S
C2024 C2019 1.350 . S
C2025 H2012 0.929 . S
C2025 C2017 1.433 . S
C2025 N2027 1.384 . S
N2026 C2022 1.427 . S
N2026 C2023 1.384 . S
N2027 C2019 1.427 . S
N2027 C2025 1.384 . S
H2028 C2034 0.930 . S
H2029 C2038 0.930 . S
H2030 C2043 0.929 . S
H2031 C2041 0.929 . S
H2032 C2036 0.929 . S
H2033 C2042 0.929 . S
C2034 H2028 0.930 . S
C2034 C2035 1.367 1_565 S
C2034 C2042 1.378 . S
C2035 C2034 1.367 1_545 S
C2035 C2043 1.433 . S
C2036 H2032 0.929 . S
C2036 C2038 1.378 . S
C2036 C2040 1.350 1_545 S
C2037 C2040 1.463 1_545 S
C2037 C2042 1.350 1_545 S
C2037 N2045 1.427 . S
C2038 H2029 0.930 . S
C2038 C2036 1.378 . S
C2038 C2039 1.367 1_545 S
C2039 C2038 1.367 1_565 S
C2039 C2041 1.433 . S
C2040 C2036 1.350 1_565 S
C2040 C2037 1.463 1_565 S
C2040 N2044 1.427 . S
C2041 H2031 0.929 . S
C2041 C2039 1.433 . S
C2041 N2044 1.384 . S
C2042 H2033 0.929 . S
C2042 C2034 1.378 . S
C2042 C2037 1.350 1_565 S
C2043 H2030 0.929 . S
C2043 C2035 1.433 . S
C2043 N2045 1.384 . S
N2044 C2040 1.427 . S
N2044 C2041 1.384 . S
N2045 C2037 1.427 . S
N2045 C2043 1.384 . S
H2046 C2052 0.930 . S
H2047 C2056 0.930 . S
H2048 C2061 0.929 . S
H2049 C2059 0.929 . S
H2050 C2054 0.929 . S
H2051 C2060 0.929 . S
C2052 H2046 0.930 . S
C2052 C2053 1.367 . S
C2052 C2060 1.378 . S
C2053 C2052 1.367 . S
C2053 C2061 1.433 . S
C2054 H2050 0.929 . S
C2054 C2056 1.378 . S
C2054 C2058 1.350 . S
C2055 C2058 1.463 1_554 S
C2055 C2060 1.350 . S
C2055 N2063 1.427 . S
C2056 H2047 0.930 . S
C2056 C2054 1.378 . S
C2056 C2057 1.367 . S
C2057 C2056 1.367 . S
C2057 C2059 1.433 . S
C2058 C2054 1.350 . S
C2058 C2055 1.463 1_556 S
C2058 N2062 1.427 . S
C2059 H2049 0.929 . S
C2059 C2057 1.433 . S
C2059 N2062 1.384 . S
C2060 H2051 0.929 . S
C2060 C2052 1.378 . S
C2060 C2055 1.350 . S
C2061 H2048 0.929 . S
C2061 C2053 1.433 . S
C2061 N2063 1.384 . S
N2062 C2058 1.427 . S
N2062 C2059 1.384 . S
N2063 C2055 1.427 . S
N2063 C2061 1.384 . S
H2064 C2070 0.930 . S
H2065 C2074 0.930 . S
H2066 C2079 0.929 . S
H2067 C2077 0.929 . S
H2068 C2072 0.929 . S
H2069 C2078 0.929 . S
C2070 H2064 0.930 . S
C2070 C2071 1.367 . S
C2070 C2078 1.378 . S
C2071 C2070 1.367 . S
C2071 C2079 1.433 . S
C2072 H2068 0.929 . S
C2072 C2074 1.378 . S
C2072 C2076 1.350 . S
C2073 C2076 1.463 . S
C2073 C2078 1.350 . S
C2073 N2081 1.427 . S
C2074 H2065 0.930 . S
C2074 C2072 1.378 . S
C2074 C2075 1.367 . S
C2075 C2074 1.367 . S
C2075 C2077 1.433 . S
C2076 C2072 1.350 . S
C2076 C2073 1.463 . S
C2076 N2080 1.427 . S
C2077 H2067 0.929 . S
C2077 C2075 1.433 . S
C2077 N2080 1.384 . S
C2078 H2069 0.929 . S
C2078 C2070 1.378 . S
C2078 C2073 1.350 . S
C2079 H2066 0.929 . S
C2079 C2071 1.433 . S
C2079 N2081 1.384 . S
N2080 C2076 1.427 . S
N2080 C2077 1.384 . S
N2081 C2073 1.427 . S
N2081 C2079 1.384 . S
H2082 C2088 0.930 . S
H2083 C2092 0.930 . S
H2084 C2097 0.929 . S
H2085 C2095 0.929 . S
H2086 C2090 0.929 . S
H2087 C2096 0.929 . S
C2088 H2082 0.930 . S
C2088 C2089 1.367 . S
C2088 C2096 1.378 . S
C2089 C2088 1.367 . S
C2089 C2097 1.433 . S
C2090 H2086 0.929 . S
C2090 C2092 1.378 . S
C2090 C2094 1.350 . S
C2091 C2094 1.463 1_554 S
C2091 C2096 1.350 . S
C2091 N2099 1.427 . S
C2092 H2083 0.930 . S
C2092 C2090 1.378 . S
C2092 C2093 1.367 . S
C2093 C2092 1.367 . S
C2093 C2095 1.433 . S
C2094 C2090 1.350 . S
C2094 C2091 1.463 1_556 S
C2094 N2098 1.427 . S
C2095 H2085 0.929 . S
C2095 C2093 1.433 . S
C2095 N2098 1.384 . S
C2096 H2087 0.929 . S
C2096 C2088 1.378 . S
C2096 C2091 1.350 . S
C2097 H2084 0.929 . S
C2097 C2089 1.433 . S
C2097 N2099 1.384 . S
N2098 C2094 1.427 . S
N2098 C2095 1.384 . S
N2099 C2091 1.427 . S
N2099 C2097 1.384 . S
H2100 C2106 0.930 . S
H2101 C2110 0.930 . S
H2102 C2115 0.929 . S
H2103 C2113 0.929 . S
H2104 C2108 0.929 . S
H2105 C2114 0.929 . S
C2106 H2100 0.930 . S
C2106 C2107 1.367 . S
C2106 C2114 1.378 . S
C2107 C2106 1.367 . S
C2107 C2115 1.433 . S
C2108 H2104 0.929 . S
C2108 C2110 1.378 . S
C2108 C2112 1.350 . S
C2109 C2112 1.463 . S
C2109 C2114 1.350 . S
C2109 N2117 1.427 . S
C2110 H2101 0.930 . S
C2110 C2108 1.378 . S
C2110 C2111 1.367 . S
C2111 C2110 1.367 . S
C2111 C2113 1.433 . S
C2112 C2108 1.350 . S
C2112 C2109 1.463 . S
C2112 N2116 1.427 . S
C2113 H2103 0.929 . S
C2113 C2111 1.433 . S
C2113 N2116 1.384 . S
C2114 H2105 0.929 . S
C2114 C2106 1.378 . S
C2114 C2109 1.350 . S
C2115 H2102 0.929 . S
C2115 C2107 1.433 . S
C2115 N2117 1.384 . S
N2116 C2112 1.427 . S
N2116 C2113 1.384 . S
N2117 C2109 1.427 . S
N2117 C2115 1.384 . S
H2118 C2124 0.930 . S
H2119 C2128 0.930 . S
H2120 C2133 0.929 . S
H2121 C2131 0.929 . S
H2122 C2126 0.929 . S
H2123 C2132 0.929 . S
C2124 H2118 0.930 . S
C2124 C2125 1.367 . S
C2124 C2132 1.378 . S
C2125 C2124 1.367 . S
C2125 C2133 1.433 . S
C2126 H2122 0.929 . S
C2126 C2128 1.378 . S
C2126 C2130 1.350 . S
C2127 C2130 1.463 . S
C2127 C2132 1.350 . S
C2127 N2135 1.427 . S
C2128 H2119 0.930 . S
C2128 C2126 1.378 . S
C2128 C2129 1.367 . S
C2129 C2128 1.367 . S
C2129 C2131 1.433 . S
C2130 C2126 1.350 . S
C2130 C2127 1.463 . S
C2130 N2134 1.427 . S
C2131 H2121 0.929 . S
C2131 C2129 1.433 . S
C2131 N2134 1.384 . S
C2132 H2123 0.929 . S
C2132 C2124 1.378 . S
C2132 C2127 1.350 . S
C2133 H2120 0.929 . S
C2133 C2125 1.433 . S
C2133 N2135 1.384 . S
N2134 C2130 1.427 . S
N2134 C2131 1.384 . S
N2135 C2127 1.427 . S
N2135 C2133 1.384 . S
H2136 C2142 0.930 . S
H2137 C2146 0.930 . S
H2138 C2151 0.929 . S
H2139 C2149 0.929 . S
H2140 C2144 0.929 . S
H2141 C2150 0.929 . S
C2142 H2136 0.930 . S
C2142 C2143 1.367 . S
C2142 C2150 1.378 . S
C2143 C2142 1.367 . S
C2143 C2151 1.433 . S
C2144 H2140 0.929 . S
C2144 C2146 1.378 . S
C2144 C2148 1.350 . S
C2145 C2148 1.463 . S
C2145 C2150 1.350 . S
C2145 N2153 1.427 . S
C2146 H2137 0.930 . S
C2146 C2144 1.378 . S
C2146 C2147 1.367 . S
C2147 C2146 1.367 . S
C2147 C2149 1.433 . S
C2148 C2144 1.350 . S
C2148 C2145 1.463 . S
C2148 N2152 1.427 . S
C2149 H2139 0.929 . S
C2149 C2147 1.433 . S
C2149 N2152 1.384 . S
C2150 H2141 0.929 . S
C2150 C2142 1.378 . S
C2150 C2145 1.350 . S
C2151 H2138 0.929 . S
C2151 C2143 1.433 . S
C2151 N2153 1.384 . S
N2152 C2148 1.427 . S
N2152 C2149 1.384 . S
N2153 C2145 1.427 . S
N2153 C2151 1.384 . S
H2154 C2160 0.930 . S
H2155 C2164 0.930 . S
H2156 C2169 0.929 . S
H2157 C2167 0.929 . S
H2158 C2162 0.929 . S
H2159 C2168 0.929 . S
C2160 H2154 0.930 . S
C2160 C2161 1.367 . S
C2160 C2168 1.378 . S
C2161 C2160 1.367 . S
C2161 C2169 1.433 . S
C2162 H2158 0.929 . S
C2162 C2164 1.378 . S
C2162 C2166 1.350 . S
C2163 C2166 1.463 1_556 S
C2163 C2168 1.350 . S
C2163 N2171 1.427 . S
C2164 H2155 0.930 . S
C2164 C2162 1.378 . S
C2164 C2165 1.367 . S
C2165 C2164 1.367 . S
C2165 C2167 1.433 . S
C2166 C2162 1.350 . S
C2166 C2163 1.463 1_554 S
C2166 N2170 1.427 . S
C2167 H2157 0.929 . S
C2167 C2165 1.433 . S
C2167 N2170 1.384 . S
C2168 H2159 0.929 . S
C2168 C2160 1.378 . S
C2168 C2163 1.350 . S
C2169 H2156 0.929 . S
C2169 C2161 1.433 . S
C2169 N2171 1.384 . S
N2170 C2166 1.427 . S
N2170 C2167 1.384 . S
N2171 C2163 1.427 . S
N2171 C2169 1.384 . S
H2172 C2178 0.930 . S
H2173 C2182 0.930 . S
H2174 C2187 0.929 . S
H2175 C2185 0.929 . S
H2176 C2180 0.929 . S
H2177 C2186 0.929 . S
C2178 H2172 0.930 . S
C2178 C2179 1.367 . S
C2178 C2186 1.378 . S
C2179 C2178 1.367 . S
C2179 C2187 1.433 . S
C2180 H2176 0.929 . S
C2180 C2182 1.378 . S
C2180 C2184 1.350 . S
C2181 C2184 1.463 . S
C2181 C2186 1.350 . S
C2181 N2189 1.427 . S
C2182 H2173 0.930 . S
C2182 C2180 1.378 . S
C2182 C2183 1.367 . S
C2183 C2182 1.367 . S
C2183 C2185 1.433 . S
C2184 C2180 1.350 . S
C2184 C2181 1.463 . S
C2184 N2188 1.427 . S
C2185 H2175 0.929 . S
C2185 C2183 1.433 . S
C2185 N2188 1.384 . S
C2186 H2177 0.929 . S
C2186 C2178 1.378 . S
C2186 C2181 1.350 . S
C2187 H2174 0.929 . S
C2187 C2179 1.433 . S
C2187 N2189 1.384 . S
N2188 C2184 1.427 . S
N2188 C2185 1.384 . S
N2189 C2181 1.427 . S
N2189 C2187 1.384 . S
H2190 C2196 0.930 . S
H2191 C2200 0.930 . S
H2192 C2205 0.929 . S
H2193 C2203 0.929 . S
H2194 C2198 0.929 . S
H2195 C2204 0.929 . S
C2196 H2190 0.930 . S
C2196 C2197 1.367 . S
C2196 C2204 1.378 . S
C2197 C2196 1.367 . S
C2197 C2205 1.433 . S
C2198 H2194 0.929 . S
C2198 C2200 1.378 . S
C2198 C2202 1.350 . S
C2199 C2202 1.463 . S
C2199 C2204 1.350 . S
C2199 N2207 1.427 . S
C2200 H2191 0.930 . S
C2200 C2198 1.378 . S
C2200 C2201 1.367 . S
C2201 C2200 1.367 . S
C2201 C2203 1.433 . S
C2202 C2198 1.350 . S
C2202 C2199 1.463 . S
C2202 N2206 1.427 . S
C2203 H2193 0.929 . S
C2203 C2201 1.433 . S
C2203 N2206 1.384 . S
C2204 H2195 0.929 . S
C2204 C2196 1.378 . S
C2204 C2199 1.350 . S
C2205 H2192 0.929 . S
C2205 C2197 1.433 . S
C2205 N2207 1.384 . S
N2206 C2202 1.427 . S
N2206 C2203 1.384 . S
N2207 C2199 1.427 . S
N2207 C2205 1.384 . S
H2208 C2214 0.930 . S
H2209 C2218 0.930 . S
H2210 C2223 0.929 . S
H2211 C2221 0.929 . S
H2212 C2216 0.929 . S
H2213 C2222 0.929 . S
C2214 H2208 0.930 . S
C2214 C2215 1.367 1_455 S
C2214 C2222 1.378 . S
C2215 C2214 1.367 1_655 S
C2215 C2223 1.433 . S
C2216 H2212 0.929 . S
C2216 C2218 1.378 . S
C2216 C2220 1.346 1_655 S
C2217 C2220 1.462 1_655 S
C2217 C2222 1.346 1_655 S
C2217 N2225 1.432 . S
C2218 H2209 0.930 . S
C2218 C2216 1.378 . S
C2218 C2219 1.367 1_655 S
C2219 C2218 1.367 1_455 S
C2219 C2221 1.433 . S
C2220 C2216 1.346 1_455 S
C2220 C2217 1.462 1_455 S
C2220 N2224 1.432 . S
C2221 H2211 0.929 . S
C2221 C2219 1.433 . S
C2221 N2224 1.384 . S
C2222 H2213 0.929 . S
C2222 C2214 1.378 . S
C2222 C2217 1.346 1_455 S
C2223 H2210 0.929 . S
C2223 C2215 1.433 . S
C2223 N2225 1.384 . S
N2224 C2220 1.432 . S
N2224 C2221 1.384 . S
N2225 C2217 1.432 . S
N2225 C2223 1.384 . S
H2226 C2232 0.930 . S
H2227 C2236 0.930 . S
H2228 C2241 0.929 . S
H2229 C2239 0.929 . S
H2230 C2234 0.929 . S
H2231 C2240 0.929 . S
C2232 H2226 0.930 . S
C2232 C2233 1.367 . S
C2232 C2240 1.378 . S
C2233 C2232 1.367 . S
C2233 C2241 1.433 . S
C2234 H2230 0.929 . S
C2234 C2236 1.378 . S
C2234 C2238 1.350 . S
C2235 C2238 1.463 1_655 S
C2235 C2240 1.350 . S
C2235 N2243 1.427 . S
C2236 H2227 0.930 . S
C2236 C2234 1.378 . S
C2236 C2237 1.367 . S
C2237 C2236 1.367 . S
C2237 C2239 1.433 . S
C2238 C2234 1.350 . S
C2238 C2235 1.463 1_455 S
C2238 N2242 1.427 . S
C2239 H2229 0.929 . S
C2239 C2237 1.433 . S
C2239 N2242 1.384 . S
C2240 H2231 0.929 . S
C2240 C2232 1.378 . S
C2240 C2235 1.350 . S
C2241 H2228 0.929 . S
C2241 C2233 1.433 . S
C2241 N2243 1.384 . S
N2242 C2238 1.427 . S
N2242 C2239 1.384 . S
N2243 C2235 1.427 . S
N2243 C2241 1.384 . S
H2244 C2250 0.930 . S
H2245 C2254 0.930 . S
H2246 C2259 0.929 . S
H2247 C2257 0.929 . S
H2248 C2252 0.929 . S
H2249 C2258 0.929 . S
C2250 H2244 0.930 . S
C2250 C2251 1.367 . S
C2250 C2258 1.378 . S
C2251 C2250 1.367 . S
C2251 C2259 1.433 . S
C2252 H2248 0.929 . S
C2252 C2254 1.378 . S
C2252 C2256 1.350 . S
C2253 C2256 1.463 . S
C2253 C2258 1.350 . S
C2253 N2261 1.427 . S
C2254 H2245 0.930 . S
C2254 C2252 1.378 . S
C2254 C2255 1.367 . S
C2255 C2254 1.367 . S
C2255 C2257 1.433 . S
C2256 C2252 1.350 . S
C2256 C2253 1.463 . S
C2256 N2260 1.427 . S
C2257 H2247 0.929 . S
C2257 C2255 1.433 . S
C2257 N2260 1.384 . S
C2258 H2249 0.929 . S
C2258 C2250 1.378 . S
C2258 C2253 1.350 . S
C2259 H2246 0.929 . S
C2259 C2251 1.433 . S
C2259 N2261 1.384 . S
N2260 C2256 1.427 . S
N2260 C2257 1.384 . S
N2261 C2253 1.427 . S
N2261 C2259 1.384 . S
H2262 C2268 0.930 . S
H2263 C2272 0.930 . S
H2264 C2277 0.929 . S
H2265 C2275 0.929 . S
H2266 C2270 0.929 . S
H2267 C2276 0.929 . S
C2268 H2262 0.930 . S
C2268 C2269 1.367 . S
C2268 C2276 1.378 . S
C2269 C2268 1.367 . S
C2269 C2277 1.433 . S
C2270 H2266 0.929 . S
C2270 C2272 1.378 . S
C2270 C2274 1.350 . S
C2271 C2274 1.463 . S
C2271 C2276 1.350 . S
C2271 N2279 1.427 . S
C2272 H2263 0.930 . S
C2272 C2270 1.378 . S
C2272 C2273 1.367 . S
C2273 C2272 1.367 . S
C2273 C2275 1.433 . S
C2274 C2270 1.350 . S
C2274 C2271 1.463 . S
C2274 N2278 1.427 . S
C2275 H2265 0.929 . S
C2275 C2273 1.433 . S
C2275 N2278 1.384 . S
C2276 H2267 0.929 . S
C2276 C2268 1.378 . S
C2276 C2271 1.350 . S
C2277 H2264 0.929 . S
C2277 C2269 1.433 . S
C2277 N2279 1.384 . S
N2278 C2274 1.427 . S
N2278 C2275 1.384 . S
N2279 C2271 1.427 . S
N2279 C2277 1.384 . S
H2280 C2286 0.930 . S
H2281 C2290 0.930 . S
H2282 C2295 0.929 . S
H2283 C2293 0.929 . S
H2284 C2288 0.929 . S
H2285 C2294 0.929 . S
C2286 H2280 0.930 . S
C2286 C2287 1.367 . S
C2286 C2294 1.378 . S
C2287 C2286 1.367 . S
C2287 C2295 1.433 1_455 S
C2288 H2284 0.929 . S
C2288 C2290 1.378 . S
C2288 C2292 1.350 . S
C2289 C2292 1.463 1_455 S
C2289 C2294 1.350 . S
C2289 N2297 1.427 1_455 S
C2290 H2281 0.930 . S
C2290 C2288 1.378 . S
C2290 C2291 1.367 . S
C2291 C2290 1.367 . S
C2291 C2293 1.433 1_655 S
C2292 C2288 1.350 . S
C2292 C2289 1.463 1_655 S
C2292 N2296 1.427 1_655 S
C2293 H2283 0.929 . S
C2293 C2291 1.433 1_455 S
C2293 N2296 1.384 . S
C2294 H2285 0.929 . S
C2294 C2286 1.378 . S
C2294 C2289 1.350 . S
C2295 H2282 0.929 . S
C2295 C2287 1.433 1_655 S
C2295 N2297 1.384 . S
N2296 C2292 1.427 1_455 S
N2296 C2293 1.384 . S
N2297 C2289 1.427 1_655 S
N2297 C2295 1.384 . S
H2298 C2304 0.930 . S
H2299 C2308 0.930 . S
H2300 C2313 0.929 . S
H2301 C2311 0.929 . S
H2302 C2306 0.929 . S
H2303 C2312 0.929 . S
C2304 H2298 0.930 . S
C2304 C2305 1.367 . S
C2304 C2312 1.378 . S
C2305 C2304 1.367 . S
C2305 C2313 1.433 . S
C2306 H2302 0.929 . S
C2306 C2308 1.378 . S
C2306 C2310 1.350 . S
C2307 C2310 1.463 . S
C2307 C2312 1.350 . S
C2307 N2315 1.427 . S
C2308 H2299 0.930 . S
C2308 C2306 1.378 . S
C2308 C2309 1.367 . S
C2309 C2308 1.367 . S
C2309 C2311 1.433 . S
C2310 C2306 1.350 . S
C2310 C2307 1.463 . S
C2310 N2314 1.427 . S
C2311 H2301 0.929 . S
C2311 C2309 1.433 . S
C2311 N2314 1.384 . S
C2312 H2303 0.929 . S
C2312 C2304 1.378 . S
C2312 C2307 1.350 . S
C2313 H2300 0.929 . S
C2313 C2305 1.433 . S
C2313 N2315 1.384 . S
N2314 C2310 1.427 . S
N2314 C2311 1.384 . S
N2315 C2307 1.427 . S
N2315 C2313 1.384 . S
H2316 C2322 0.930 . S
H2317 C2326 0.930 . S
H2318 C2331 0.929 . S
H2319 C2329 0.929 . S
H2320 C2324 0.929 . S
H2321 C2330 0.929 . S
C2322 H2316 0.930 . S
C2322 C2323 1.367 . S
C2322 C2330 1.378 . S
C2323 C2322 1.367 . S
C2323 C2331 1.433 . S
C2324 H2320 0.929 . S
C2324 C2326 1.378 . S
C2324 C2328 1.350 . S
C2325 C2328 1.463 . S
C2325 C2330 1.350 . S
C2325 N2333 1.427 . S
C2326 H2317 0.930 . S
C2326 C2324 1.378 . S
C2326 C2327 1.367 . S
C2327 C2326 1.367 . S
C2327 C2329 1.433 . S
C2328 C2324 1.350 . S
C2328 C2325 1.463 . S
C2328 N2332 1.427 . S
C2329 H2319 0.929 . S
C2329 C2327 1.433 . S
C2329 N2332 1.384 . S
C2330 H2321 0.929 . S
C2330 C2322 1.378 . S
C2330 C2325 1.350 . S
C2331 H2318 0.929 . S
C2331 C2323 1.433 . S
C2331 N2333 1.384 . S
N2332 C2328 1.427 . S
N2332 C2329 1.384 . S
N2333 C2325 1.427 . S
N2333 C2331 1.384 . S
H2334 C2340 0.930 . S
H2335 C2344 0.930 . S
H2336 C2349 0.929 . S
H2337 C2347 0.929 . S
H2338 C2342 0.929 . S
H2339 C2348 0.929 . S
C2340 H2334 0.930 . S
C2340 C2341 1.367 . S
C2340 C2348 1.378 . S
C2341 C2340 1.367 . S
C2341 C2349 1.433 . S
C2342 H2338 0.929 . S
C2342 C2344 1.378 . S
C2342 C2346 1.350 . S
C2343 C2346 1.463 1_455 S
C2343 C2348 1.350 . S
C2343 N2351 1.427 . S
C2344 H2335 0.930 . S
C2344 C2342 1.378 . S
C2344 C2345 1.367 . S
C2345 C2344 1.367 . S
C2345 C2347 1.433 . S
C2346 C2342 1.350 . S
C2346 C2343 1.463 1_655 S
C2346 N2350 1.427 . S
C2347 H2337 0.929 . S
C2347 C2345 1.433 . S
C2347 N2350 1.384 . S
C2348 H2339 0.929 . S
C2348 C2340 1.378 . S
C2348 C2343 1.350 . S
C2349 H2336 0.929 . S
C2349 C2341 1.433 . S
C2349 N2351 1.384 . S
N2350 C2346 1.427 . S
N2350 C2347 1.384 . S
N2351 C2343 1.427 . S
N2351 C2349 1.384 . S
H2352 C2358 0.930 . S
H2353 C2362 0.930 . S
H2354 C2367 0.929 . S
H2355 C2365 0.929 . S
H2356 C2360 0.929 . S
H2357 C2366 0.929 . S
C2358 H2352 0.930 . S
C2358 C2359 1.367 . S
C2358 C2366 1.378 . S
C2359 C2358 1.367 . S
C2359 C2367 1.433 1_455 S
C2360 H2356 0.929 . S
C2360 C2362 1.378 . S
C2360 C2364 1.350 . S
C2361 C2364 1.463 1_455 S
C2361 C2366 1.350 . S
C2361 N2369 1.427 1_455 S
C2362 H2353 0.930 . S
C2362 C2360 1.378 . S
C2362 C2363 1.367 . S
C2363 C2362 1.367 . S
C2363 C2365 1.433 1_655 S
C2364 C2360 1.350 . S
C2364 C2361 1.463 1_655 S
C2364 N2368 1.427 1_655 S
C2365 H2355 0.929 . S
C2365 C2363 1.433 1_455 S
C2365 N2368 1.384 . S
C2366 H2357 0.929 . S
C2366 C2358 1.378 . S
C2366 C2361 1.350 . S
C2367 H2354 0.929 . S
C2367 C2359 1.433 1_655 S
C2367 N2369 1.384 . S
N2368 C2364 1.427 1_455 S
N2368 C2365 1.384 . S
N2369 C2361 1.427 1_655 S
N2369 C2367 1.384 . S
H2370 C2376 0.930 . S
H2371 C2380 0.930 . S
H2372 C2385 0.929 . S
H2373 C2383 0.929 . S
H2374 C2378 0.929 . S
H2375 C2384 0.929 . S
C2376 H2370 0.930 . S
C2376 C2377 1.367 . S
C2376 C2384 1.378 . S
C2377 C2376 1.367 . S
C2377 C2385 1.433 . S
C2378 H2374 0.929 . S
C2378 C2380 1.378 . S
C2378 C2382 1.350 . S
C2379 C2382 1.463 1_455 S
C2379 C2384 1.350 . S
C2379 N2387 1.427 . S
C2380 H2371 0.930 . S
C2380 C2378 1.378 . S
C2380 C2381 1.367 . S
C2381 C2380 1.367 . S
C2381 C2383 1.433 . S
C2382 C2378 1.350 . S
C2382 C2379 1.463 1_655 S
C2382 N2386 1.427 . S
C2383 H2373 0.929 . S
C2383 C2381 1.433 . S
C2383 N2386 1.384 . S
C2384 H2375 0.929 . S
C2384 C2376 1.378 . S
C2384 C2379 1.350 . S
C2385 H2372 0.929 . S
C2385 C2377 1.433 . S
C2385 N2387 1.384 . S
N2386 C2382 1.427 . S
N2386 C2383 1.384 . S
N2387 C2379 1.427 . S
N2387 C2385 1.384 . S
H2388 C2394 0.930 . S
H2389 C2398 0.930 . S
H2390 C2403 0.929 . S
H2391 C2401 0.929 . S
H2392 C2396 0.929 . S
H2393 C2402 0.929 . S
C2394 H2388 0.930 . S
C2394 C2395 1.367 . S
C2394 C2402 1.378 . S
C2395 C2394 1.367 . S
C2395 C2403 1.433 . S
C2396 H2392 0.929 . S
C2396 C2398 1.378 . S
C2396 C2400 1.350 . S
C2397 C2400 1.463 . S
C2397 C2402 1.350 . S
C2397 N2405 1.427 . S
C2398 H2389 0.930 . S
C2398 C2396 1.378 . S
C2398 C2399 1.367 . S
C2399 C2398 1.367 . S
C2399 C2401 1.433 . S
C2400 C2396 1.350 . S
C2400 C2397 1.463 . S
C2400 N2404 1.427 . S
C2401 H2391 0.929 . S
C2401 C2399 1.433 . S
C2401 N2404 1.384 . S
C2402 H2393 0.929 . S
C2402 C2394 1.378 . S
C2402 C2397 1.350 . S
C2403 H2390 0.929 . S
C2403 C2395 1.433 . S
C2403 N2405 1.384 . S
N2404 C2400 1.427 . S
N2404 C2401 1.384 . S
N2405 C2397 1.427 . S
N2405 C2403 1.384 . S
H2406 C2412 0.930 . S
H2407 C2416 0.930 . S
H2408 C2421 0.929 . S
H2409 C2419 0.929 . S
H2410 C2414 0.929 . S
H2411 C2420 0.929 . S
C2412 H2406 0.930 . S
C2412 C2413 1.367 . S
C2412 C2420 1.378 . S
C2413 C2412 1.367 . S
C2413 C2421 1.433 . S
C2414 H2410 0.929 . S
C2414 C2416 1.378 . S
C2414 C2418 1.350 . S
C2415 C2418 1.463 . S
C2415 C2420 1.350 . S
C2415 N2423 1.427 . S
C2416 H2407 0.930 . S
C2416 C2414 1.378 . S
C2416 C2417 1.367 . S
C2417 C2416 1.367 . S
C2417 C2419 1.433 . S
C2418 C2414 1.350 . S
C2418 C2415 1.463 . S
C2418 N2422 1.427 . S
C2419 H2409 0.929 . S
C2419 C2417 1.433 . S
C2419 N2422 1.384 . S
C2420 H2411 0.929 . S
C2420 C2412 1.378 . S
C2420 C2415 1.350 . S
C2421 H2408 0.929 . S
C2421 C2413 1.433 . S
C2421 N2423 1.384 . S
N2422 C2418 1.427 . S
N2422 C2419 1.384 . S
N2423 C2415 1.427 . S
N2423 C2421 1.384 . S
H2424 C2430 0.930 . S
H2425 C2434 0.930 . S
H2426 C2439 0.929 . S
H2427 C2437 0.929 . S
H2428 C2432 0.929 . S
H2429 C2438 0.929 . S
C2430 H2424 0.930 . S
C2430 C2431 1.367 1_655 S
C2430 C2438 1.378 . S
C2431 C2430 1.367 1_455 S
C2431 C2439 1.433 . S
C2432 H2428 0.929 . S
C2432 C2434 1.378 . S
C2432 C2436 1.352 . S
C2433 C2436 1.462 1_655 S
C2433 C2438 1.352 . S
C2433 N2441 1.426 1_655 S
C2434 H2425 0.930 . S
C2434 C2432 1.378 . S
C2434 C2435 1.367 1_455 S
C2435 C2434 1.367 1_655 S
C2435 C2437 1.433 . S
C2436 C2432 1.352 . S
C2436 C2433 1.462 1_455 S
C2436 N2440 1.425 1_455 S
C2437 H2427 0.929 . S
C2437 C2435 1.433 . S
C2437 N2440 1.384 . S
C2438 H2429 0.929 . S
C2438 C2430 1.378 . S
C2438 C2433 1.352 . S
C2439 H2426 0.929 . S
C2439 C2431 1.433 . S
C2439 N2441 1.384 . S
N2440 C2436 1.425 1_655 S
N2440 C2437 1.384 . S
N2441 C2433 1.426 1_455 S
N2441 C2439 1.384 . S
H2442 C2448 0.930 . S
H2443 C2452 0.930 . S
H2444 C2457 0.929 . S
H2445 C2455 0.929 . S
H2446 C2450 0.929 . S
H2447 C2456 0.929 . S
C2448 H2442 0.930 . S
C2448 C2449 1.367 . S
C2448 C2456 1.378 . S
C2449 C2448 1.367 . S
C2449 C2457 1.433 . S
C2450 H2446 0.929 . S
C2450 C2452 1.378 . S
C2450 C2454 1.350 . S
C2451 C2454 1.463 . S
C2451 C2456 1.350 . S
C2451 N2459 1.427 . S
C2452 H2443 0.930 . S
C2452 C2450 1.378 . S
C2452 C2453 1.367 . S
C2453 C2452 1.367 . S
C2453 C2455 1.433 . S
C2454 C2450 1.350 . S
C2454 C2451 1.463 . S
C2454 N2458 1.427 . S
C2455 H2445 0.929 . S
C2455 C2453 1.433 . S
C2455 N2458 1.384 . S
C2456 H2447 0.929 . S
C2456 C2448 1.378 . S
C2456 C2451 1.350 . S
C2457 H2444 0.929 . S
C2457 C2449 1.433 . S
C2457 N2459 1.384 . S
N2458 C2454 1.427 . S
N2458 C2455 1.384 . S
N2459 C2451 1.427 . S
N2459 C2457 1.384 . S
H2460 C2466 0.930 . S
H2461 C2470 0.930 . S
H2462 C2475 0.929 . S
H2463 C2473 0.929 . S
H2464 C2468 0.929 . S
H2465 C2474 0.929 . S
C2466 H2460 0.930 . S
C2466 C2467 1.367 . S
C2466 C2474 1.378 . S
C2467 C2466 1.367 . S
C2467 C2475 1.433 . S
C2468 H2464 0.929 . S
C2468 C2470 1.378 . S
C2468 C2472 1.350 . S
C2469 C2472 1.463 . S
C2469 C2474 1.350 . S
C2469 N2477 1.427 . S
C2470 H2461 0.930 . S
C2470 C2468 1.378 . S
C2470 C2471 1.367 . S
C2471 C2470 1.367 . S
C2471 C2473 1.433 . S
C2472 C2468 1.350 . S
C2472 C2469 1.463 . S
C2472 N2476 1.427 . S
C2473 H2463 0.929 . S
C2473 C2471 1.433 . S
C2473 N2476 1.384 . S
C2474 H2465 0.929 . S
C2474 C2466 1.378 . S
C2474 C2469 1.350 . S
C2475 H2462 0.929 . S
C2475 C2467 1.433 . S
C2475 N2477 1.384 . S
N2476 C2472 1.427 . S
N2476 C2473 1.384 . S
N2477 C2469 1.427 . S
N2477 C2475 1.384 . S
H2478 C2484 0.930 . S
H2479 C2488 0.930 . S
H2480 C2493 0.929 . S
H2481 C2491 0.929 . S
H2482 C2486 0.929 . S
H2483 C2492 0.929 . S
C2484 H2478 0.930 . S
C2484 C2485 1.367 . S
C2484 C2492 1.378 . S
C2485 C2484 1.367 . S
C2485 C2493 1.433 . S
C2486 H2482 0.929 . S
C2486 C2488 1.378 . S
C2486 C2490 1.350 . S
C2487 C2490 1.463 1_655 S
C2487 C2492 1.350 . S
C2487 N2495 1.427 . S
C2488 H2479 0.930 . S
C2488 C2486 1.378 . S
C2488 C2489 1.367 . S
C2489 C2488 1.367 . S
C2489 C2491 1.433 . S
C2490 C2486 1.350 . S
C2490 C2487 1.463 1_455 S
C2490 N2494 1.427 . S
C2491 H2481 0.929 . S
C2491 C2489 1.433 . S
C2491 N2494 1.384 . S
C2492 H2483 0.929 . S
C2492 C2484 1.378 . S
C2492 C2487 1.350 . S
C2493 H2480 0.929 . S
C2493 C2485 1.433 . S
C2493 N2495 1.384 . S
N2494 C2490 1.427 . S
N2494 C2491 1.384 . S
N2495 C2487 1.427 . S
N2495 C2493 1.384 . S
C1063 C899 0.966 . S
C1067 C28 0.947 . S
C1081 C272 0.955 . S
C1085 C61 0.962 . S
C1099 C833 0.964 . S
C1103 C94 0.951 . S
C1117 C127 0.956 . S
C1121 C338 0.959 . S
C1135 C965 0.966 . S
C1139 C160 0.948 . S
C1153 C470 0.965 . S
C1157 C193 0.950 . S
C1171 C226 0.948 . S
C1175 C1031 0.966 . S
C1189 C259 0.961 . S
C1193 C404 0.956 . S
C1207 C635 0.965 . S
C1211 C292 0.948 . S
C1225 C8 0.973 . S
C1229 C325 0.939 . S
C1243 C358 0.947 . S
C1247 C569 0.967 . S
C1261 C391 0.942 . S
C1265 C74 0.970 . S
C1279 C424 0.950 . S
C1283 C701 0.964 . S
C1297 C457 0.963 . S
C1301 C206 0.954 . S
C1315 C767 0.955 . S
C1319 C490 0.963 . S
C1333 C140 0.964 . S
C1337 C523 0.951 . S
C1351 C371 0.968 . S
C1355 C556 0.945 . S
C1369 C589 0.948 . S
C1373 C800 0.966 . S
C1387 C305 0.972 . S
C1391 C622 0.941 . S
C1405 C655 0.945 . S
C1409 C866 0.967 . S
C1423 C437 0.970 . S
C1427 C688 0.943 . S
C1441 C998 0.957 . S
C1445 C721 0.959 . S
C1459 C503 0.971 . S
C1463 C754 0.943 . S
C1477 C787 0.946 . S
C1481 C932 0.967 . S
C1495 C820 0.956 . S
C1499 C107 0.960 . S
C1513 C536 0.960 . S
C1517 C853 0.956 . S
C1531 C41 0.958 . S
C1535 C886 0.957 . S
C1549 C919 0.963 . S
C1553 C602 0.954 . S
C1567 C952 0.954 . S
C1571 C173 0.961 . S
C1585 C985 0.939 . S
C1589 C734 0.973 . S
C1603 C239 0.971 . S
C1607 C1018 0.942 . S
C1621 C1051 0.951 . S
C1625 C668 0.964 . S
C1639 N5 1.553 . S
C1643 N170 1.553 . S
C1657 N203 1.552 . S
C1661 N38 1.550 . S
C1675 N236 1.547 . S
C1679 N71 1.549 . S
C1693 N104 1.553 . S
C1697 N137 1.553 . S
C1711 N269 1.546 . S
C1715 N434 1.546 . S
C1729 N302 1.552 . S
C1733 N467 1.553 . S
C1747 N335 1.548 . S
C1751 N500 1.547 . S
C1765 N368 1.547 . S
C1769 N401 1.546 . S
C1783 N698 1.548 . S
C1787 N533 1.550 . S
C1801 N566 1.547 . S
C1805 N731 1.548 . S
C1819 N599 1.547 . S
C1823 N764 1.546 . S
C1837 N665 1.550 . S
C1841 N632 1.548 . S
C1855 N962 1.553 . S
C1859 N797 1.552 . S
C1873 N995 1.549 . S
C1877 N830 1.551 . S
C1891 N1028 1.552 . S
C1895 N863 1.550 . S
C1909 N929 1.548 . S
C1913 N896 1.550 . S
C1927 C17 1.289 . S
C1931 C149 1.289 . S
C1945 C50 1.289 . S
C1949 C182 1.290 . S
C1963 C215 1.290 . S
C1967 C83 1.290 . S
C1981 C248 1.289 . S
C1985 C116 1.289 . S
C1999 C281 1.290 . S
C2003 C413 1.290 . S
C2017 C446 1.290 . S
C2021 C314 1.290 . S
C2035 C347 1.290 . S
C2039 C479 1.290 . S
C2053 C512 1.289 . S
C2057 C380 1.289 . S
C2071 C545 1.289 . S
C2075 C677 1.290 . S
C2089 C578 1.289 . S
C2093 C710 1.289 . S
C2107 C611 1.290 . S
C2111 C743 1.290 . S
C2125 C644 1.289 . S
C2129 C776 1.290 . S
C2143 C941 1.289 . S
C2147 C809 1.289 . S
C2161 C842 1.290 . S
C2165 C974 1.289 . S
C2179 C875 1.289 . S
C2183 C1007 1.289 . S
C2197 C908 1.290 . S
C2201 C1040 1.290 . S
C2215 N14 1.009 1_655 S
C2219 N608 1.011 1_455 S
C2233 N641 1.000 . S
C2237 N47 0.999 . S
C2251 N80 1.013 . S
C2255 N542 1.010 . S
C2269 N113 1.007 . S
C2273 N575 1.010 . S
C2287 N740 1.027 1_455 S
C2291 N146 1.025 1_655 S
C2305 N773 1.024 . S
C2309 N179 1.021 . S
C2323 N212 1.004 . S
C2327 N674 1.006 . S
C2341 N245 1.024 . S
C2345 N707 1.021 . S
C2359 N278 1.021 1_455 S
C2363 N872 1.024 1_655 S
C2377 N905 1.024 . S
C2381 N311 1.026 . S
C2395 N806 1.012 . S
C2399 N344 1.009 . S
C2413 N377 1.028 . S
C2417 N839 1.029 . S
C2431 N410 0.999 1_455 S
C2435 N1004 1.000 1_655 S
C2449 N443 1.023 . S
C2453 N1037 1.021 . S
C2467 N476 1.014 . S
C2471 N938 1.011 . S
C2485 N509 1.007 . S
C2489 N971 1.009 . S
