# Generated by pormake.
# Topology ske, (6)-cn, num edge types: 1
# Building blocks:
#     Node 0, Type 0, BuildingBlock: KUMJIN_clean_sbu_1, # of connection points: 6
#     Node 1, Type 0, BuildingBlock: KUMJIN_clean_sbu_1, # of connection points: 6
#     Node 2, Type 0, BuildingBlock: KUMJIN_clean_sbu_1, # of connection points: 6
#     Node 3, Type 0, BuildingBlock: KUMJIN_clean_sbu_1, # of connection points: 6
#     Node 4, Type 0, BuildingBlock: KUMJIN_clean_sbu_1, # of connection points: 6
#     Node 5, Type 0, BuildingBlock: KUMJIN_clean_sbu_1, # of connection points: 6
#     Node 6, Type 0, BuildingBlock: KUMJIN_clean_sbu_1, # of connection points: 6
#     Node 7, Type 0, BuildingBlock: KUMJIN_clean_sbu_1, # of connection points: 6
#     Edge 8, Type (0, 0), BuildingBlock: OJICUG_clean_linker_0, # of connection points: 2
#     Edge 9, Type (0, 0), BuildingBlock: OJICUG_clean_linker_0, # of connection points: 2
#     Edge 10, Type (0, 0), BuildingBlock: OJICUG_clean_linker_0, # of connection points: 2
#     Edge 11, Type (0, 0), BuildingBlock: OJICUG_clean_linker_0, # of connection points: 2
#     Edge 12, Type (0, 0), BuildingBlock: OJICUG_clean_linker_0, # of connection points: 2
#     Edge 13, Type (0, 0), BuildingBlock: OJICUG_clean_linker_0, # of connection points: 2
#     Edge 14, Type (0, 0), BuildingBlock: OJICUG_clean_linker_0, # of connection points: 2
#     Edge 15, Type (0, 0), BuildingBlock: OJICUG_clean_linker_0, # of connection points: 2
#     Edge 16, Type (0, 0), BuildingBlock: OJICUG_clean_linker_0, # of connection points: 2
#     Edge 17, Type (0, 0), BuildingBlock: OJICUG_clean_linker_0, # of connection points: 2
#     Edge 18, Type (0, 0), BuildingBlock: OJICUG_clean_linker_0, # of connection points: 2
#     Edge 19, Type (0, 0), BuildingBlock: OJICUG_clean_linker_0, # of connection points: 2
#     Edge 20, Type (0, 0), BuildingBlock: OJICUG_clean_linker_0, # of connection points: 2
#     Edge 21, Type (0, 0), BuildingBlock: OJICUG_clean_linker_0, # of connection points: 2
#     Edge 22, Type (0, 0), BuildingBlock: OJICUG_clean_linker_0, # of connection points: 2
#     Edge 23, Type (0, 0), BuildingBlock: OJICUG_clean_linker_0, # of connection points: 2
#     Edge 24, Type (0, 0), BuildingBlock: OJICUG_clean_linker_0, # of connection points: 2
#     Edge 25, Type (0, 0), BuildingBlock: OJICUG_clean_linker_0, # of connection points: 2
#     Edge 26, Type (0, 0), BuildingBlock: OJICUG_clean_linker_0, # of connection points: 2
#     Edge 27, Type (0, 0), BuildingBlock: OJICUG_clean_linker_0, # of connection points: 2
#     Edge 28, Type (0, 0), BuildingBlock: OJICUG_clean_linker_0, # of connection points: 2
#     Edge 29, Type (0, 0), BuildingBlock: OJICUG_clean_linker_0, # of connection points: 2
#     Edge 30, Type (0, 0), BuildingBlock: OJICUG_clean_linker_0, # of connection points: 2
#     Edge 31, Type (0, 0), BuildingBlock: OJICUG_clean_linker_0, # of connection points: 2
# Relax obj value: 0.212
# Max RMSD: 0.239
# Mean RMSD: 0.236
data_MOF--net-ske--node1-KUMJIN_clean_sbu_1--edge1-OJICUG_clean_linker_0
_symmetry_space_group_name_H-M    P1
_symmetry_Int_Tables_number       1
_symmetry_cell_setting            triclinic
loop_
_symmetry_equiv_pos_as_xyz
'x, y, z'
_cell_length_a     83.60215
_cell_length_b     21.609941
_cell_length_c     11.157072
_cell_angle_alpha  99.239614
_cell_angle_beta   89.996773
_cell_angle_gamma 89.96137
loop_
_atom_site_label
_atom_site_type_symbol
_atom_site_fract_x
_atom_site_fract_y
_atom_site_fract_z
_atom_type_partial_charge
Eu0 Eu 0.15525 0.24568 0.57934 0.0
C1 C 0.09318 0.2458 0.8526 0.0
N2 N 0.10059 0.20603 0.76225 0.0
C3 C 0.09876 0.12232 0.87821 0.0
C4 C 0.08882 0.22534 0.96188 0.0
C5 C 0.10254 0.14436 0.77066 0.0
C6 C 0.09218 0.16332 0.97506 0.0
C7 C 0.08354 0.35059 0.93244 0.0
C8 C 0.09073 0.30826 0.83858 0.0
C9 C 0.07891 0.32983 0.04028 0.0
C10 C 0.08165 0.26761 0.05529 0.0
Eu11 Eu 0.10693 0.2498 0.58808 0.0
N12 N 0.0961 0.32828 0.73602 0.0
C13 C 0.08153 0.41301 0.91628 0.0
C14 C 0.09404 0.38888 0.71912 0.0
C15 C 0.08679 0.43226 0.80928 0.0
H16 H 0.10664 0.1119 0.69398 0.0
H17 H 0.08518 0.48039 0.79595 0.0
H18 H 0.16089 0.37608 0.45886 0.0
H19 H 0.17756 0.00757 0.42672 0.0
H20 H 0.09767 0.40364 0.63529 0.0
H21 H 0.07593 0.44657 0.98591 0.0
H22 H 0.16508 0.09281 0.57021 0.0
H23 H 0.1008 0.07366 0.88598 0.0
H24 H 0.07346 0.36188 0.11362 0.0
H25 H 0.07833 0.25291 0.1401 0.0
H26 H 0.1725 0.40739 0.27392 0.0
H27 H 0.08969 0.14648 0.05917 0.0
H28 H 0.18907 0.02946 0.2342 0.0
N29 N 0.16642 0.2798 0.40688 0.0
C30 C 0.17434 0.23596 0.3274 0.0
C31 C 0.17293 0.35887 0.28709 0.0
C32 C 0.18127 0.25163 0.22103 0.0
C33 C 0.16614 0.34097 0.39081 0.0
C34 C 0.18037 0.31389 0.2011 0.0
N35 N 0.16818 0.16123 0.4546 0.0
C36 C 0.16952 0.10258 0.48433 0.0
C37 C 0.18268 0.12784 0.2684 0.0
C38 C 0.175 0.17478 0.351 0.0
C39 C 0.18336 0.06691 0.29563 0.0
C40 C 0.17685 0.05437 0.40438 0.0
H41 H 0.18556 0.32784 0.12053 0.0
H42 H 0.1941 0.2159 0.05556 0.0
H43 H 0.19535 0.10755 0.09697 0.0
O44 O 0.17874 0.22271 0.64723 0.0
O45 O 0.14346 0.23584 0.39134 0.0
O46 O 0.11597 0.25496 0.39594 0.0
O47 O 0.16963 0.31718 0.69126 0.0
O48 O 0.14196 0.16167 0.62613 0.0
O49 O 0.11896 0.15661 0.5126 0.0
O50 O 0.08414 0.28344 0.52332 0.0
O51 O 0.12194 0.28515 0.76131 0.0
O52 O 0.14326 0.21868 0.7465 0.0
O53 O 0.08666 0.18684 0.54748 0.0
O54 O 0.11793 0.333 0.52065 0.0
O55 O 0.14221 0.34014 0.6223 0.0
C56 C 0.12973 0.244 0.33752 0.0
C57 C 0.1979 0.30421 0.67041 0.0
C58 C 0.22712 0.29811 0.68697 0.0
C59 C 0.22843 0.34891 0.62284 0.0
C60 C 0.1996 0.35485 0.60674 0.0
C61 C 0.21477 0.37688 0.58316 0.0
C62 C 0.21171 0.27609 0.71044 0.0
C63 C 0.13133 0.12951 0.55561 0.0
C64 C 0.18189 0.28016 0.696 0.0
C65 C 0.18878 0.20483 0.1381 0.0
C66 C 0.18947 0.14311 0.16166 0.0
C67 C 0.13273 0.25361 0.81373 0.0
C68 C 0.06686 0.20836 0.40881 0.0
C69 C 0.04017 0.20177 0.31691 0.0
C70 C 0.04635 0.16036 0.21748 0.0
C71 C 0.07269 0.16692 0.3086 0.0
C72 C 0.05056 0.22553 0.41293 0.0
C73 C 0.06241 0.14276 0.21411 0.0
C74 C 0.13095 0.36378 0.55995 0.0
C75 C 0.07719 0.229 0.51474 0.0
H76 H 0.24001 0.36785 0.60492 0.0
H77 H 0.18923 0.37771 0.57565 0.0
H78 H 0.21596 0.41611 0.53446 0.0
H79 H 0.21042 0.23665 0.75866 0.0
H80 H 0.03863 0.13981 0.14373 0.0
H81 H 0.08511 0.15228 0.30462 0.0
H82 H 0.04597 0.25659 0.49137 0.0
H83 H 0.06678 0.1093 0.13868 0.0
Eu84 Eu 0.90239 0.2487 0.54621 0.0
C85 C 0.83538 0.25569 0.28668 0.0
N86 N 0.84363 0.29877 0.36517 0.0
C87 C 0.83839 0.37734 0.24114 0.0
C88 C 0.82887 0.27131 0.17891 0.0
C89 C 0.8447 0.35953 0.34658 0.0
C90 C 0.8306 0.33287 0.15618 0.0
C91 C 0.82516 0.14986 0.23493 0.0
C92 C 0.83365 0.19571 0.31429 0.0
C93 C 0.81893 0.16474 0.12602 0.0
C94 C 0.82078 0.2253 0.09807 0.0
Eu95 Eu 0.8542 0.26489 0.54014 0.0
N96 N 0.83982 0.18279 0.42038 0.0
C97 C 0.82293 0.09077 0.26846 0.0
C98 C 0.83685 0.12647 0.45663 0.0
C99 C 0.82863 0.07931 0.38049 0.0
H100 H 0.85054 0.39391 0.41295 0.0
H101 H 0.82656 0.03438 0.40883 0.0
H102 H 0.90425 0.09173 0.55986 0.0
H103 H 0.92549 0.44454 0.86771 0.0
H104 H 0.84065 0.11792 0.54503 0.0
H105 H 0.81648 0.05425 0.20999 0.0
H106 H 0.91373 0.39268 0.673 0.0
H107 H 0.83952 0.42532 0.22563 0.0
H108 H 0.81247 0.12997 0.0636 0.0
H109 H 0.81577 0.23626 1.01438 0.0
H110 H 0.90713 0.02483 0.71731 0.0
H111 H 0.82576 0.34673 0.07438 0.0
H112 H 0.93068 0.38288 0.03247 0.0
N113 N 0.90642 0.17729 0.68327 0.0
C114 C 0.91213 0.20384 0.79415 0.0
C115 C 0.9081 0.07527 0.74113 0.0
C116 C 0.91467 0.1671 0.88586 0.0
C117 C 0.90585 0.11356 0.65283 0.0
C118 C 0.91205 0.10239 0.85933 0.0
N119 N 0.91231 0.30361 0.72933 0.0
C120 C 0.91603 0.3658 0.74499 0.0
C121 C 0.92223 0.29563 0.92874 0.0
C122 C 0.91578 0.26788 0.81607 0.0
C123 C 0.92576 0.35986 0.94699 0.0
C124 C 0.92273 0.39498 0.85446 0.0
H125 H 0.91389 0.07264 0.92762 0.0
H126 H 0.92109 0.16829 0.07246 0.0
H127 H 0.92865 0.27999 0.10976 0.0
O128 O 0.92401 0.29012 0.47744 0.0
O129 O 0.88758 0.29249 0.71604 0.0
O130 O 0.86537 0.23174 0.70513 0.0
O131 O 0.92481 0.19728 0.5225 0.0
O132 O 0.89393 0.33985 0.49151 0.0
O133 O 0.8689 0.35539 0.58296 0.0
O134 O 0.83025 0.25144 0.61051 0.0
O135 O 0.86636 0.26387 0.35516 0.0
O136 O 0.89371 0.24146 0.34878 0.0
O137 O 0.84164 0.34176 0.65431 0.0
O138 O 0.8659 0.17555 0.57946 0.0
O139 O 0.88819 0.16238 0.45924 0.0
C140 C 0.87669 0.26256 0.7709 0.0
C141 C 0.94391 0.21936 0.38185 0.0
C142 C 0.97126 0.20858 0.30197 0.0
C143 C 0.96551 0.16695 0.20124 0.0
C144 C 0.93861 0.1767 0.28195 0.0
C145 C 0.94937 0.15083 0.19206 0.0
C146 C 0.9603 0.23485 0.39241 0.0
C147 C 0.88134 0.37494 0.52614 0.0
C148 C 0.93287 0.24105 0.48271 0.0
C149 C 0.92006 0.1956 1.00023 0.0
C150 C 0.92422 0.25919 0.02112 0.0
C151 C 0.88 0.25251 0.29616 0.0
C152 C 0.8131 0.33927 0.64049 0.0
C153 C 0.78404 0.3448 0.67103 0.0
C154 C 0.78325 0.39135 0.59652 0.0
C155 C 0.812 0.38633 0.5676 0.0
C156 C 0.79909 0.31904 0.6926 0.0
C157 C 0.79716 0.4121 0.54586 0.0
C158 C 0.87531 0.13942 0.50415 0.0
C159 C 0.82858 0.3095 0.66135 0.0
H160 H 0.97361 0.1448 0.13151 0.0
H161 H 0.92619 0.16224 0.27551 0.0
H162 H 0.94527 0.11705 0.11604 0.0
H163 H 0.96455 0.2661 0.47182 0.0
H164 H 0.7719 0.41238 0.57893 0.0
H165 H 0.82257 0.40311 0.52728 0.0
H166 H 0.79989 0.28242 0.74836 0.0
H167 H 0.79643 0.44836 0.48946 0.0
Eu168 Eu 0.15439 0.7427 0.49602 0.0
C169 C 0.09223 0.74386 0.22172 0.0
N170 N 0.10002 0.78344 0.31005 0.0
C171 C 0.0986 0.86601 0.191 0.0
C172 C 0.08784 0.76376 0.11194 0.0
C173 C 0.10235 0.84462 0.29924 0.0
C174 C 0.09162 0.82501 0.09607 0.0
C175 C 0.08172 0.63992 0.14681 0.0
C176 C 0.08939 0.68209 0.23835 0.0
C177 C 0.07707 0.66014 0.03847 0.0
C178 C 0.08023 0.72166 0.0207 0.0
Eu179 Eu 0.10623 0.74109 0.48615 0.0
N180 N 0.09474 0.66258 0.34149 0.0
C181 C 0.0792 0.57826 0.16598 0.0
C182 C 0.09231 0.60257 0.36082 0.0
C183 C 0.08454 0.55945 0.27319 0.0
H184 H 0.10675 0.87722 0.37452 0.0
H185 H 0.08256 0.51188 0.28873 0.0
H186 H 0.15737 0.61705 0.63634 0.0
H187 H 0.17933 0.97824 0.62466 0.0
H188 H 0.09601 0.58815 0.44484 0.0
H189 H 0.07309 0.54502 0.09867 0.0
H190 H 0.16567 0.8925 0.49014 0.0
H191 H 0.10097 0.91418 0.18122 0.0
H192 H 0.07124 0.62821 0.96691 0.0
H193 H 0.07684 0.736 0.93561 0.0
H194 H 0.16815 0.58985 0.8272 0.0
H195 H 0.08918 0.84125 1.01136 0.0
H196 H 0.19058 0.95977 0.8203 0.0
N197 N 0.16452 0.71218 0.67551 0.0
C198 C 0.17305 0.75616 0.75023 0.0
C199 C 0.16945 0.63699 0.80734 0.0
C200 C 0.17958 0.74266 0.85967 0.0
C201 C 0.16311 0.65267 0.7002 0.0
C202 C 0.1776 0.68232 0.88802 0.0
N203 N 0.16814 0.82729 0.61311 0.0
C204 C 0.17009 0.88431 0.57719 0.0
C205 C 0.18291 0.86288 0.79693 0.0
C206 C 0.17467 0.81561 0.71904 0.0
C207 C 0.1844 0.92213 0.76269 0.0
C208 C 0.17803 0.93276 0.65216 0.0
H209 H 0.18244 0.67011 0.97126 0.0
H210 H 0.19278 0.78031 0.02221 0.0
H211 H 0.1957 0.88552 0.96734 0.0
O212 O 0.17802 0.76154 0.42476 0.0
O213 O 0.14223 0.76065 0.68362 0.0
O214 O 0.11545 0.73018 0.67522 0.0
O215 O 0.16875 0.66713 0.39519 0.0
O216 O 0.14167 0.82691 0.4447 0.0
O217 O 0.11879 0.83344 0.55986 0.0
O218 O 0.0829 0.71172 0.54993 0.0
O219 O 0.12097 0.70546 0.31165 0.0
O220 O 0.14296 0.76884 0.32576 0.0
O221 O 0.0869 0.80829 0.5311 0.0
O222 O 0.1169 0.65708 0.55384 0.0
O223 O 0.14102 0.64932 0.45068 0.0
C224 C 0.12882 0.74647 0.73577 0.0
C225 C 0.19701 0.67966 0.41475 0.0
C226 C 0.22615 0.67858 0.38753 0.0
C227 C 0.22745 0.6376 0.47303 0.0
C228 C 0.19867 0.63827 0.49896 0.0
C229 C 0.21379 0.61757 0.52789 0.0
C230 C 0.2108 0.69945 0.35896 0.0
C231 C 0.13106 0.85988 0.51415 0.0
C232 C 0.18108 0.70288 0.38456 0.0
C233 C 0.18773 0.78974 0.93751 0.0
C234 C 0.18938 0.84968 0.90629 0.0
C235 C 0.13206 0.73557 0.25917 0.0
C236 C 0.06614 0.78933 0.6644 0.0
C237 C 0.03898 0.80416 0.74789 0.0
C238 C 0.04544 0.8415 0.85157 0.0
C239 C 0.0722 0.82663 0.76892 0.0
C240 C 0.04951 0.77821 0.65403 0.0
C241 C 0.06183 0.85281 0.86142 0.0
C242 C 0.12976 0.62561 0.5126 0.0
C243 C 0.07672 0.76762 0.56024 0.0
H244 H 0.23901 0.62016 0.49606 0.0
H245 H 0.1883 0.62166 0.5421 0.0
H246 H 0.21493 0.58559 0.59281 0.0
H247 H 0.20957 0.73167 0.29439 0.0
H248 H 0.03774 0.86388 0.92389 0.0
H249 H 0.08488 0.83672 0.77759 0.0
H250 H 0.04479 0.75026 0.57233 0.0
H251 H 0.06643 0.88325 0.94029 0.0
Eu252 Eu 0.90313 0.76593 0.46064 0.0
C253 C 0.83851 0.67145 0.66008 0.0
N254 N 0.8456 0.65266 0.55041 0.0
C255 C 0.83945 0.54548 0.56179 0.0
C256 C 0.832 0.62725 0.72669 0.0
C257 C 0.84569 0.591 0.49897 0.0
C258 C 0.83267 0.56358 0.67651 0.0
C259 C 0.83085 0.75603 0.82055 0.0
C260 C 0.83782 0.73523 0.70612 0.0
C261 C 0.82448 0.71206 0.88753 0.0
C262 C 0.82504 0.6479 0.84068 0.0
Eu263 Eu 0.85567 0.73295 0.45084 0.0
N264 N 0.8446 0.77663 0.64096 0.0
C265 C 0.8306 0.82044 0.86462 0.0
C266 C 0.84389 0.83951 0.68158 0.0
C267 C 0.83704 0.86233 0.79443 0.0
H268 H 0.85034 0.577 0.40836 0.0
H269 H 0.83666 0.91228 0.82688 0.0
H270 H 0.90809 0.9076 0.38278 0.0
H271 H 0.92177 0.53475 0.21696 0.0
H272 H 0.84839 0.87229 0.62683 0.0
H273 H 0.82536 0.83831 0.95218 0.0
H274 H 0.91372 0.60968 0.39474 0.0
H275 H 0.83974 0.49658 0.5212 0.0
H276 H 0.81911 0.7272 0.97578 0.0
H277 H 0.82003 0.61461 0.89335 0.0
H278 H 0.91752 0.95363 0.20592 0.0
H279 H 0.8278 0.52814 0.72474 0.0
H280 H 0.92785 0.5716 0.0236 0.0
N281 N 0.9117 0.81366 0.29632 0.0
C282 C 0.91733 0.77452 0.19745 0.0
C283 C 0.91751 0.90329 0.2025 0.0
C284 C 0.92272 0.79875 0.09461 0.0
C285 C 0.91211 0.87725 0.3018 0.0
C286 C 0.92263 0.86384 0.09802 0.0
N287 N 0.91211 0.68765 0.29922 0.0
C288 C 0.9149 0.62628 0.30921 0.0
C289 C 0.9227 0.66876 0.09492 0.0
C290 C 0.91711 0.70996 0.19768 0.0
C291 C 0.92364 0.60469 0.10054 0.0
C292 C 0.9201 0.58363 0.20917 0.0
H293 H 0.92624 0.88411 0.02008 0.0
H294 H 0.93168 0.7751 0.91079 0.0
H295 H 0.93183 0.66166 0.91134 0.0
O296 O 0.92576 0.73473 0.53524 0.0
O297 O 0.88812 0.78728 0.29724 0.0
O298 O 0.86889 0.71146 0.26969 0.0
O299 O 0.92274 0.83071 0.51172 0.0
O300 O 0.89427 0.67306 0.50974 0.0
O301 O 0.87282 0.65409 0.38146 0.0
O302 O 0.83432 0.78248 0.39885 0.0
O303 O 0.86839 0.72536 0.63127 0.0
O304 O 0.8915 0.78566 0.65021 0.0
O305 O 0.83674 0.68307 0.3407 0.0
O306 O 0.86376 0.83297 0.43483 0.0
O307 O 0.88792 0.84971 0.53879 0.0
C308 C 0.87847 0.75015 0.22487 0.0
C309 C 0.94298 0.81192 0.64885 0.0
C310 C 0.96999 0.8198 0.73582 0.0
C311 C 0.96439 0.86619 0.82936 0.0
C312 C 0.93776 0.85855 0.74309 0.0
C313 C 0.94849 0.88586 0.83181 0.0
C314 C 0.95916 0.79293 0.64508 0.0
C315 C 0.88345 0.63456 0.45353 0.0
C316 C 0.9324 0.78974 0.54489 0.0
C317 C 0.92769 0.75749 0.99117 0.0
C318 C 0.92767 0.69276 0.99126 0.0
C319 C 0.87972 0.75657 0.69793 0.0
C320 C 0.81037 0.72135 0.37962 0.0
C321 C 0.78169 0.74351 0.36227 0.0
C322 C 0.77837 0.69734 0.43462 0.0
C323 C 0.8065 0.67536 0.45071 0.0
C324 C 0.79786 0.75536 0.33516 0.0
C325 C 0.79068 0.66388 0.47859 0.0
C326 C 0.87496 0.87029 0.49065 0.0
C327 C 0.82729 0.73132 0.34684 0.0
H328 H 0.97247 0.88901 0.8985 0.0
H329 H 0.9255 0.87512 0.74614 0.0
H330 H 0.9446 0.92358 0.9014 0.0
H331 H 0.96339 0.7584 0.57044 0.0
H332 H 0.76618 0.68565 0.45491 0.0
H333 H 0.81562 0.64697 0.48289 0.0
H334 H 0.80071 0.79056 0.27945 0.0
H335 H 0.78792 0.62797 0.5328 0.0
Eu336 Eu 0.65443 0.76725 0.03244 0.0
C337 C 0.59741 0.68977 0.27834 0.0
N338 N 0.60165 0.66846 0.16107 0.0
C339 C 0.59857 0.56226 0.19505 0.0
C340 C 0.59508 0.64773 0.36109 0.0
C341 C 0.60085 0.60585 0.11651 0.0
C342 C 0.59621 0.58329 0.31873 0.0
C343 C 0.58966 0.77669 0.43433 0.0
C344 C 0.59469 0.7537 0.31495 0.0
C345 C 0.58838 0.73527 0.51869 0.0
C346 C 0.59131 0.67111 0.48242 0.0
Eu347 Eu 0.60691 0.74774 0.04207 0.0
N348 N 0.59742 0.79373 0.23459 0.0
C349 C 0.58649 0.84094 0.466 0.0
C350 C 0.59362 0.85583 0.2625 0.0
C351 C 0.58824 0.88049 0.37916 0.0
H352 H 0.60192 0.58915 0.0203 0.0
H353 H 0.58562 0.93001 0.40245 0.0
H354 H 0.66001 0.90038 0.92238 0.0
H355 H 0.67746 0.53277 0.85343 0.0
H356 H 0.59516 0.88629 0.19538 0.0
H357 H 0.58262 0.86038 0.55696 0.0
H358 H 0.66778 0.61725 1.01175 0.0
H359 H 0.59855 0.51254 0.15998 0.0
H360 H 0.58516 0.75252 0.61209 0.0
H361 H 0.59045 0.63961 0.54817 0.0
H362 H 0.66825 0.93468 0.72986 0.0
H363 H 0.59447 0.54947 0.37951 0.0
H364 H 0.68265 0.55425 0.64566 0.0
N365 N 0.66345 0.80379 0.85527 0.0
C366 C 0.66886 0.7601 0.76302 0.0
C367 C 0.66839 0.8854 0.73769 0.0
C368 C 0.67357 0.7772 0.65151 0.0
C369 C 0.66379 0.86607 0.84637 0.0
C370 C 0.67307 0.84067 0.63913 0.0
N371 N 0.66578 0.68434 0.89198 0.0
C372 C 0.66934 0.62669 0.92029 0.0
C373 C 0.67584 0.652 0.68885 0.0
C374 C 0.66982 0.69836 0.78138 0.0
C375 C 0.67807 0.59124 0.71422 0.0
C376 C 0.67512 0.5789 0.83129 0.0
H377 H 0.67657 0.8557 0.55482 0.0
H378 H 0.68227 0.7427 0.47004 0.0
H379 H 0.68437 0.63303 0.50299 0.0
O380 O 0.67936 0.75099 0.07879 0.0
O381 O 0.63936 0.78714 0.86812 0.0
O382 O 0.61787 0.72026 0.84953 0.0
O383 O 0.66821 0.83909 0.1501 0.0
O384 O 0.64368 0.67682 0.07616 0.0
O385 O 0.62122 0.66178 0.95774 0.0
O386 O 0.58802 0.79049 0.94382 0.0
O387 O 0.62158 0.79037 0.21403 0.0
O388 O 0.64448 0.73365 0.20353 0.0
O389 O 0.58256 0.7119 0.03173 0.0
O390 O 0.61502 0.84326 1.00499 0.0
O391 O 0.64038 0.85801 0.09228 0.0
C392 C 0.62908 0.75115 0.79924 0.0
C393 C 0.6966 0.83814 0.12432 0.0
C394 C 0.72558 0.84593 0.15725 0.0
C395 C 0.7261 0.8949 0.08831 0.0
C396 C 0.69739 0.88779 0.05752 0.0
C397 C 0.71206 0.91584 0.03954 0.0
C398 C 0.71072 0.81777 0.17469 0.0
C399 C 0.63379 0.63955 1.00751 0.0
C400 C 0.68136 0.80627 0.14227 0.0
C401 C 0.67878 0.73067 0.55699 0.0
C402 C 0.67993 0.66819 0.57565 0.0
C403 C 0.6325 0.76045 0.26881 0.0
C404 C 0.5664 0.72353 0.86641 0.0
C405 C 0.53933 0.70689 0.78304 0.0
C406 C 0.54548 0.66039 0.69185 0.0
C407 C 0.57213 0.67627 0.77579 0.0
C408 C 0.54995 0.73842 0.87058 0.0
C409 C 0.56168 0.64497 0.68907 0.0
C410 C 0.62719 0.87918 0.04713 0.0
C411 C 0.57701 0.75123 0.966 0.0
H412 H 0.73731 0.9177 0.07396 0.0
H413 H 0.68671 0.90492 0.01938 0.0
H414 H 0.71256 0.95409 0.98778 0.0
H415 H 0.71015 0.77936 0.22628 0.0
H416 H 0.53763 0.63415 0.62496 0.0
H417 H 0.58462 0.66273 0.77394 0.0
H418 H 0.5454 0.7735 0.94301 0.0
H419 H 0.56604 0.60752 0.62077 0.0
Eu420 Eu 0.40365 0.75696 0.06362 0.0
C421 C 0.33906 0.8443 0.85625 0.0
N422 N 0.34576 0.86412 0.96703 0.0
C423 C 0.33913 0.97059 0.95271 0.0
C424 C 0.33256 0.88761 0.7876 0.0
C425 C 0.3454 0.92591 0.01753 0.0
C426 C 0.33278 0.95146 0.83686 0.0
C427 C 0.33216 0.75848 0.69609 0.0
C428 C 0.33875 0.78032 0.81141 0.0
C429 C 0.32582 0.80158 0.62695 0.0
C430 C 0.326 0.86591 0.67263 0.0
Eu431 Eu 0.35596 0.78525 0.06991 0.0
N432 N 0.34548 0.73977 0.87882 0.0
C433 C 0.33223 0.69393 0.65339 0.0
C434 C 0.34503 0.67673 0.83954 0.0
C435 C 0.33858 0.6529 0.72585 0.0
H436 H 0.34977 0.9407 0.10871 0.0
H437 H 0.33841 0.60283 0.6945 0.0
H438 H 0.40923 0.61564 0.14212 0.0
H439 H 0.42115 0.98942 0.30784 0.0
H440 H 0.34942 0.64453 0.89601 0.0
H441 H 0.32728 0.67527 0.56521 0.0
H442 H 0.41359 0.91383 0.12955 0.0
H443 H 0.3391 0.01965 0.99257 0.0
H444 H 0.32074 0.78564 0.53799 0.0
H445 H 0.321 0.89851 0.61835 0.0
H446 H 0.41874 0.57042 0.31976 0.0
H447 H 0.3279 0.98623 0.78703 0.0
H448 H 0.42713 0.95312 0.50194 0.0
N449 N 0.41233 0.70986 0.22855 0.0
C450 C 0.41768 0.74947 0.32776 0.0
C451 C 0.41849 0.62074 0.32304 0.0
C452 C 0.4231 0.72569 0.43105 0.0
C453 C 0.41304 0.6463 0.2233 0.0
C454 C 0.42333 0.66062 0.42776 0.0
N455 N 0.41219 0.83591 0.22533 0.0
C456 C 0.41476 0.8974 0.21528 0.0
C457 C 0.42247 0.85563 0.43046 0.0
C458 C 0.41717 0.81399 0.32736 0.0
C459 C 0.42316 0.91972 0.42471 0.0
C460 C 0.41967 0.94046 0.31565 0.0
H461 H 0.42697 0.64069 0.50598 0.0
H462 H 0.43177 0.75003 0.61554 0.0
H463 H 0.43137 0.86347 0.61479 0.0
O464 O 0.42578 0.78974 0.9845 0.0
O465 O 0.38863 0.73381 0.22564 0.0
O466 O 0.36877 0.80731 0.25283 0.0
O467 O 0.42397 0.69501 0.01825 0.0
O468 O 0.39421 0.84925 0.01668 0.0
O469 O 0.37247 0.86565 0.14303 0.0
O470 O 0.33483 0.73423 0.12084 0.0
O471 O 0.36902 0.79579 0.89214 0.0
O472 O 0.39212 0.73554 0.87364 0.0
O473 O 0.3365 0.834 0.17629 0.0
O474 O 0.36479 0.6859 0.08532 0.0
O475 O 0.38903 0.67252 0.98183 0.0
C476 C 0.37874 0.76995 0.29787 0.0
C477 C 0.44338 0.71265 0.87495 0.0
C478 C 0.47031 0.70135 0.78696 0.0
C479 C 0.46443 0.65427 0.69582 0.0
C480 C 0.43787 0.66553 0.78285 0.0
C481 C 0.44843 0.63617 0.69484 0.0
C482 C 0.45963 0.73037 0.87688 0.0
C483 C 0.38317 0.88652 0.0732 0.0
C484 C 0.43304 0.73612 0.97958 0.0
C485 C 0.42777 0.76733 0.53483 0.0
C486 C 0.42744 0.83204 0.53461 0.0
C487 C 0.38035 0.76451 0.82543 0.0
C488 C 0.31044 0.79278 0.1366 0.0
C489 C 0.28179 0.7714 0.15862 0.0
C490 C 0.27837 0.81278 0.07661 0.0
C491 C 0.30646 0.83438 0.05659 0.0
C492 C 0.29799 0.76144 0.18808 0.0
C493 C 0.29061 0.84377 0.0261 0.0
C494 C 0.37628 0.65014 0.02923 0.0
C495 C 0.3274 0.78487 0.17108 0.0
H496 H 0.47237 0.62951 0.62767 0.0
H497 H 0.42554 0.64998 0.78141 0.0
H498 H 0.44433 0.59791 0.62729 0.0
H499 H 0.46403 0.7654 0.94996 0.0
H500 H 0.26615 0.8228 0.05386 0.0
H501 H 0.31551 0.86104 0.01939 0.0
H502 H 0.30091 0.72983 0.2511 0.0
H503 H 0.28778 0.87626 0.96471 0.0
Eu504 Eu 0.65405 0.23537 0.97091 0.0
C505 C 0.59254 0.27915 0.71709 0.0
N506 N 0.59827 0.31818 0.81575 0.0
C507 C 0.59278 0.40786 0.72115 0.0
C508 C 0.5873 0.30345 0.61389 0.0
C509 C 0.59804 0.38177 0.82081 0.0
C510 C 0.58761 0.36849 0.61678 0.0
C511 C 0.58691 0.17353 0.61507 0.0
C512 C 0.59255 0.2146 0.71777 0.0
C513 C 0.58209 0.19759 0.51107 0.0
C514 C 0.58227 0.26228 0.51055 0.0
Eu515 Eu 0.60656 0.27027 0.9806 0.0
N516 N 0.59743 0.19219 0.81957 0.0
C517 C 0.58579 0.10955 0.62098 0.0
C518 C 0.59449 0.13097 0.82975 0.0
C519 C 0.58922 0.08846 0.72978 0.0
H520 H 0.60209 0.41205 0.90171 0.0
H521 H 0.58743 0.03968 0.73774 0.0
H522 H 0.65908 0.0795 0.93427 0.0
H523 H 0.67317 0.41736 0.34221 0.0
H524 H 0.5956 0.11438 0.91534 0.0
H525 H 0.58154 0.07656 0.54408 0.0
H526 H 0.66145 0.37609 0.14303 0.0
H527 H 0.59293 0.45818 0.72421 0.0
H528 H 0.57791 0.16657 0.43119 0.0
H529 H 0.5784 0.27994 0.42989 0.0
H530 H 0.66949 1.00006 0.05059 0.0
H531 H 0.58413 0.38876 0.5385 0.0
H532 H 0.68438 0.34448 0.47022 0.0
N533 N 0.664 0.15612 0.07367 0.0
C534 C 0.67112 0.17576 0.18288 0.0
C535 C 0.66991 0.04922 0.08924 0.0
C536 C 0.67754 0.13217 0.25129 0.0
C537 C 0.66375 0.09416 0.02454 0.0
C538 C 0.67675 0.06822 0.20343 0.0
N539 N 0.66511 0.28063 0.16015 0.0
C540 C 0.66588 0.34368 0.19888 0.0
C541 C 0.67883 0.2614 0.34092 0.0
C542 C 0.67185 0.23978 0.22686 0.0
C543 C 0.67913 0.326 0.38302 0.0
C544 C 0.67273 0.36728 0.31129 0.0
H545 H 0.68155 0.03324 0.25313 0.0
H546 H 0.68948 0.12086 0.41886 0.0
H547 H 0.69053 0.23383 0.49755 0.0
O548 O 0.67545 0.28362 0.91649 0.0
O549 O 0.64131 0.22809 0.15134 0.0
O550 O 0.61815 0.28842 0.17053 0.0
O551 O 0.67293 0.18396 0.86234 0.0
O552 O 0.64604 0.33504 0.9529 0.0
O553 O 0.62222 0.35205 0.06059 0.0
O554 O 0.58365 0.24104 0.05381 0.0
O555 O 0.62169 0.29046 0.81696 0.0
O556 O 0.64079 0.21388 0.78985 0.0
O557 O 0.58738 0.33701 0.03244 0.0
O558 O 0.61508 0.17726 0.03024 0.0
O559 O 0.63663 0.15737 0.90285 0.0
C560 C 0.62995 0.25922 0.218 0.0
C561 C 0.69935 0.22212 0.89922 0.0
C562 C 0.72803 0.24381 0.88065 0.0
C563 C 0.73135 0.19879 0.95556 0.0
C564 C 0.70321 0.17723 0.97279 0.0
C565 C 0.71904 0.16608 1.00128 0.0
C566 C 0.71187 0.25531 0.85284 0.0
C567 C 0.63496 0.37248 1.00972 0.0
C568 C 0.68242 0.23193 0.86627 0.0
C569 C 0.68453 0.15367 0.36484 0.0
C570 C 0.68515 0.21805 0.40958 0.0
C571 C 0.63127 0.25277 0.74477 0.0
C572 C 0.56678 0.3196 0.16755 0.0
C573 C 0.53958 0.33143 0.25055 0.0
C574 C 0.54539 0.37606 0.34631 0.0
C575 C 0.57222 0.3645 0.26391 0.0
C576 C 0.55041 0.30338 0.16089 0.0
C577 C 0.56151 0.39285 0.35191 0.0
C578 C 0.62593 0.13849 0.97523 0.0
C579 C 0.57739 0.29679 0.06418 0.0
H580 H 0.74354 0.18744 0.97658 0.0
H581 H 0.69408 0.14948 1.00658 0.0
H582 H 0.7218 0.13103 0.05748 0.0
H583 H 0.70902 0.28966 0.79522 0.0
H584 H 0.53735 0.39987 0.41472 0.0
H585 H 0.58464 0.37901 0.26911 0.0
H586 H 0.54606 0.27019 0.0846 0.0
H587 H 0.56558 0.42932 0.4232 0.0
Eu588 Eu 0.40394 0.26478 0.97307 0.0
C589 C 0.33586 0.26765 0.22581 0.0
N590 N 0.34456 0.22473 0.15019 0.0
C591 C 0.33872 0.14628 0.27299 0.0
C592 C 0.3288 0.25199 0.33169 0.0
C593 C 0.34557 0.16414 0.16944 0.0
C594 C 0.33046 0.19057 0.35527 0.0
C595 C 0.32559 0.37365 0.2754 0.0
C596 C 0.33434 0.32776 0.19797 0.0
C597 C 0.31872 0.35855 0.38202 0.0
C598 C 0.32032 0.2979 0.41008 0.0
Eu599 Eu 0.35573 0.25856 0.97755 0.0
N600 N 0.34119 0.34106 0.0944 0.0
C601 C 0.32385 0.43318 0.24269 0.0
C602 C 0.33888 0.39808 0.05931 0.0
C603 C 0.3304 0.44522 0.13361 0.0
H604 H 0.35152 0.12954 0.10428 0.0
H605 H 0.32879 0.49063 0.10611 0.0
H606 H 0.40184 0.40213 0.86401 0.0
H607 H 0.42756 0.03722 0.76382 0.0
H608 H 0.34336 0.40719 0.97307 0.0
H609 H 0.31723 0.46974 0.29978 0.0
H610 H 0.41455 0.11202 0.92479 0.0
H611 H 0.33974 0.09831 0.28883 0.0
H612 H 0.31202 0.39332 0.44286 0.0
H613 H 0.31487 0.28687 0.49221 0.0
H614 H 0.40766 0.4412 0.67326 0.0
H615 H 0.3252 0.17665 0.43563 0.0
H616 H 0.43653 0.07238 0.57451 0.0
N617 N 0.40968 0.30954 0.7988 0.0
C618 C 0.41768 0.27118 0.70942 0.0
C619 C 0.41042 0.39318 0.68196 0.0
C620 C 0.42189 0.29241 0.60054 0.0
C621 C 0.40674 0.37053 0.78905 0.0
C622 C 0.41779 0.35367 0.58666 0.0
N623 N 0.41554 0.18804 0.82532 0.0
C624 C 0.41808 0.12759 0.84152 0.0
C625 C 0.42837 0.16787 0.62958 0.0
C626 C 0.42079 0.20908 0.72343 0.0
C627 C 0.43078 0.10544 0.64468 0.0
C628 C 0.42564 0.08529 0.75114 0.0
H629 H 0.42021 0.37096 0.50289 0.0
H630 H 0.43283 0.26685 0.4234 0.0
H631 H 0.43866 0.15851 0.44931 0.0
O632 O 0.42708 0.23518 0.03962 0.0
O633 O 0.3894 0.22626 0.79892 0.0
O634 O 0.3674 0.28893 0.81264 0.0
O635 O 0.42361 0.33084 1.01244 0.0
O636 O 0.39415 0.17966 0.04205 0.0
O637 O 0.3701 0.16686 0.93818 0.0
O638 O 0.33218 0.27461 0.90281 0.0
O639 O 0.36707 0.26992 0.16714 0.0
O640 O 0.39489 0.25996 0.1654 0.0
O641 O 0.34281 0.18242 0.86527 0.0
O642 O 0.36795 0.34573 0.93367 0.0
O643 O 0.39088 0.35618 0.04779 0.0
C644 C 0.37825 0.2558 0.74579 0.0
C645 C 0.44367 0.31358 0.15242 0.0
C646 C 0.47041 0.32694 0.24348 0.0
C647 C 0.46372 0.36696 0.34284 0.0
C648 C 0.43735 0.35355 0.25272 0.0
C649 C 0.44739 0.38035 0.34679 0.0
C650 C 0.46022 0.30042 0.14794 0.0
C651 C 0.38151 0.14612 1.00343 0.0
C652 C 0.4335 0.29051 0.04666 0.0
C653 C 0.42959 0.25147 0.50779 0.0
C654 C 0.43289 0.1896 0.52249 0.0
C655 C 0.38094 0.26644 0.22235 0.0
C656 C 0.31431 0.18891 0.87848 0.0
C657 C 0.28509 0.19016 0.85796 0.0
C658 C 0.2842 0.13921 0.92196 0.0
C659 C 0.31306 0.13806 0.94201 0.0
C660 C 0.30029 0.21462 0.83643 0.0
C661 C 0.29809 0.11345 0.96336 0.0
C662 C 0.37804 0.38054 1.00519 0.0
C663 C 0.33004 0.21617 0.8558 0.0
H664 H 0.47119 0.38966 0.4162 0.0
H665 H 0.42472 0.36507 0.257 0.0
H666 H 0.44259 0.41267 0.42232 0.0
H667 H 0.46515 0.27033 0.06955 0.0
H668 H 0.27278 0.1186 0.93864 0.0
H669 H 0.32361 0.11727 0.97513 0.0
H670 H 0.30124 0.2543 0.78848 0.0
H671 H 0.29724 0.07409 1.01205 0.0
C672 C 0.24235 0.25037 0.84497 0.0
C673 C 0.24184 0.26899 0.72986 0.0
H674 H 0.25635 0.21222 0.97638 0.0
C675 C 0.25568 0.261 0.65701 0.0
H676 H 0.23203 0.25668 0.90441 0.0
C677 C 0.26967 0.2357 0.69849 0.0
C678 C 0.2702 0.21744 0.81385 0.0
H679 H 0.25569 0.27377 0.56704 0.0
H680 H 0.28001 0.22961 0.63926 0.0
C681 C 0.25633 0.22496 0.88638 0.0
C682 C 0.74161 0.286 0.70788 0.0
C683 C 0.74166 0.276 0.82944 0.0
H684 H 0.75497 0.31496 0.56219 0.0
C685 C 0.75548 0.29239 0.89972 0.0
H686 H 0.73128 0.2734 0.65061 0.0
C687 C 0.7691 0.31516 0.84862 0.0
C688 C 0.76924 0.32312 0.7262 0.0
H689 H 0.75588 0.28681 0.99442 0.0
H690 H 0.77957 0.3265 0.90512 0.0
C691 C 0.75523 0.30949 0.65699 0.0
C692 C 0.26831 0.73768 0.34024 0.0
C693 C 0.26823 0.74171 0.21568 0.0
H694 H 0.25505 0.71564 0.49248 0.0
C695 C 0.25444 0.72197 0.14749 0.0
H696 H 0.27861 0.75311 0.39592 0.0
C697 C 0.24089 0.70132 0.203 0.0
C698 C 0.24078 0.69911 0.32811 0.0
H699 H 0.25404 0.72314 0.05086 0.0
H700 H 0.23048 0.68692 0.1477 0.0
C701 C 0.25475 0.71653 0.39572 0.0
C702 C 0.74054 0.81469 0.33297 0.0
C703 C 0.74044 0.82436 0.21157 0.0
H704 H 0.75376 0.78465 0.47706 0.0
C705 C 0.75452 0.81231 0.1425 0.0
H706 H 0.73001 0.82482 0.3893 0.0
C707 C 0.76816 0.78836 0.19234 0.0
C708 C 0.76806 0.77646 0.31272 0.0
H709 H 0.75479 0.81926 0.04852 0.0
H710 H 0.77854 0.77684 0.13499 0.0
C711 C 0.75419 0.7916 0.38313 0.0
C712 C 0.13207 0.95743 0.42026 0.0
C713 C 0.1315 0.92883 0.52488 0.0
H714 H 0.1316 0.04397 0.34832 0.0
C715 C 0.13152 0.96653 0.63947 0.0
H716 H 0.1324 0.92912 0.33086 0.0
C717 C 0.13204 0.0319 0.64926 0.0
C718 C 0.13154 0.06053 0.54465 0.0
H719 H 0.13143 0.9454 0.72121 0.0
H720 H 0.13236 0.06018 0.73869 0.0
C721 C 0.1316 0.02282 0.43004 0.0
C722 C 0.88071 0.45675 0.39129 0.0
C723 C 0.88194 0.44139 0.5086 0.0
H724 H 0.87993 0.53011 0.28208 0.0
C725 C 0.88404 0.48977 0.60752 0.0
H726 H 0.87905 0.42022 0.31374 0.0
C727 C 0.885 0.55248 0.58912 0.0
C728 C 0.8834 0.56797 0.47192 0.0
H729 H 0.88511 0.47898 0.69872 0.0
H730 H 0.88661 0.58903 0.66681 0.0
C731 C 0.88119 0.51947 0.37325 0.0
C732 C 0.87046 0.97948 0.59989 0.0
C733 C 0.8736 0.93869 0.49143 0.0
H734 H 0.86795 0.07489 0.68753 0.0
C735 C 0.87651 0.96411 0.38509 0.0
H736 H 0.86833 0.96106 0.68323 0.0
C737 C 0.87698 0.02937 0.38842 0.0
C738 C 0.87389 0.07027 0.49713 0.0
H739 H 0.87898 0.93348 0.30035 0.0
H740 H 0.87979 0.04788 0.30626 0.0
C741 C 0.87024 0.04453 0.60212 0.0
C742 C 0.1326 0.51248 0.42209 0.0
C743 C 0.13053 0.55865 0.52471 0.0
H744 H 0.13387 0.41382 0.35321 0.0
C745 C 0.12897 0.54042 0.63952 0.0
H746 H 0.13369 0.52551 0.33264 0.0
C747 C 0.12974 0.47698 0.65181 0.0
C748 C 0.13148 0.43079 0.5489 0.0
H749 H 0.12738 0.57537 0.71982 0.0
H750 H 0.12854 0.46386 0.74112 0.0
C751 C 0.13271 0.4489 0.43384 0.0
C752 C 0.63305 0.52864 0.89765 0.0
C753 C 0.63514 0.57102 1.00582 0.0
H754 H 0.63214 0.4319 0.81372 0.0
C755 C 0.63811 0.54749 0.11416 0.0
H756 H 0.63084 0.54567 0.81297 0.0
C757 C 0.63817 0.48278 0.11545 0.0
C758 C 0.63605 0.44047 1.00743 0.0
H759 H 0.63968 0.57924 0.19886 0.0
H760 H 0.63978 0.46577 0.20087 0.0
C761 C 0.63385 0.46382 0.89807 0.0
C762 C 0.38132 1.00139 0.15537 0.0
C763 C 0.38279 0.95303 0.05563 0.0
H764 H 0.38016 0.10083 0.21639 0.0
C765 C 0.38362 0.96856 0.9381 0.0
H766 H 0.38069 0.99058 0.24677 0.0
C767 C 0.38268 0.03131 0.92047 0.0
C768 C 0.3815 0.07964 0.02042 0.0
H769 H 0.38468 0.93204 0.85976 0.0
H770 H 0.38324 0.04219 0.8291 0.0
C771 C 0.38101 0.06422 0.13802 0.0
C772 C 0.37362 0.47631 0.90903 0.0
C773 C 0.37696 0.44971 1.01349 0.0
H774 H 0.3713 0.56081 0.83174 0.0
C775 C 0.37923 0.4897 0.12451 0.0
H776 H 0.37184 0.44656 0.82219 0.0
C777 C 0.37817 0.55504 0.13077 0.0
C778 C 0.37546 0.58145 0.02531 0.0
H779 H 0.3817 0.4704 0.20641 0.0
H780 H 0.38001 0.58503 0.21726 0.0
C781 C 0.37325 0.54153 0.91439 0.0
C782 C 0.62868 0.02373 0.89609 0.0
C783 C 0.62576 0.07205 0.99372 0.0
H784 H 0.63125 0.92479 0.83752 0.0
C785 C 0.62315 0.05647 0.10991 0.0
H786 H 0.6307 0.03442 0.8057 0.0
C787 C 0.62381 0.99372 0.12842 0.0
C788 C 0.6267 0.94561 0.03043 0.0
H789 H 0.62097 0.09294 0.18684 0.0
H790 H 0.62196 0.98274 0.21879 0.0
C791 C 0.62897 0.96112 0.91418 0.0
C792 C 0.1219 0.2924 0.15323 0.0
C793 C 0.13025 0.24608 0.20352 0.0
H794 H 0.11699 0.33403 0.99456 0.0
C795 C 0.13991 0.20406 0.12529 0.0
H796 H 0.11468 0.32663 0.21099 0.0
C797 C 0.14075 0.20682 1.00002 0.0
C798 C 0.13224 0.25265 0.94891 0.0
H799 H 0.14668 0.16824 0.16076 0.0
H800 H 0.14803 0.1725 0.943 0.0
C801 C 0.12317 0.29646 0.02854 0.0
C802 C 0.88675 0.30363 0.11254 0.0
C803 C 0.87965 0.25414 0.16159 0.0
H804 H 0.89055 0.34749 0.95441 0.0
C805 C 0.87095 0.20924 0.08195 0.0
H806 H 0.89322 0.33992 0.17123 0.0
C807 C 0.86997 0.21222 0.95646 0.0
C808 C 0.87734 0.26108 0.90642 0.0
H809 H 0.86497 0.17136 0.11675 0.0
H810 H 0.86349 0.17573 0.89829 0.0
C811 C 0.88532 0.30772 0.98764 0.0
C812 C 0.14013 0.78238 0.07309 0.0
C813 C 0.13149 0.73695 0.12421 0.0
H814 H 0.14604 0.82121 0.91278 0.0
C815 C 0.12214 0.6941 0.04491 0.0
H816 H 0.14757 0.81609 0.12997 0.0
C817 C 0.12083 0.69848 0.92042 0.0
C818 C 0.12936 0.74425 0.86989 0.0
H819 H 0.11575 0.65708 0.07905 0.0
H820 H 0.11338 0.66498 0.86309 0.0
C821 C 0.13919 0.78561 0.94807 0.0
C822 C 0.87257 0.70455 0.87961 0.0
C823 C 0.87938 0.75559 0.833 0.0
H824 H 0.86711 0.66218 0.03672 0.0
C825 C 0.88533 0.80579 0.91729 0.0
H826 H 0.86778 0.66498 0.81829 0.0
C827 C 0.88448 0.80489 0.0435 0.0
C828 C 0.8783 0.75278 0.09003 0.0
H829 H 0.89036 0.84649 0.88587 0.0
H830 H 0.88863 0.84543 0.10503 0.0
C831 C 0.87213 0.70298 1.00561 0.0
C832 C 0.63516 0.70253 0.45209 0.0
C833 C 0.63161 0.75799 0.40495 0.0
H834 H 0.63667 0.656 0.60975 0.0
C835 C 0.62697 0.81062 0.48981 0.0
H836 H 0.6388 0.66085 0.39094 0.0
C837 C 0.62593 0.80794 0.61595 0.0
C838 C 0.62916 0.75225 0.66281 0.0
H839 H 0.6242 0.85433 0.45862 0.0
H840 H 0.62239 0.84968 0.67704 0.0
C841 C 0.63377 0.69949 0.57812 0.0
C842 C 0.37308 0.81614 0.64333 0.0
C843 C 0.37998 0.76531 0.69019 0.0
H844 H 0.36743 0.85806 0.48599 0.0
C845 C 0.38592 0.71501 0.60594 0.0
H846 H 0.36828 0.85576 0.7045 0.0
C847 C 0.38497 0.71563 0.47961 0.0
C848 C 0.37868 0.76753 0.43286 0.0
H849 H 0.39102 0.67443 0.6375 0.0
H850 H 0.38913 0.67505 0.41814 0.0
C851 C 0.37253 0.81741 0.51724 0.0
C852 C 0.62462 0.30879 0.43742 0.0
C853 C 0.63031 0.25813 0.35297 0.0
H854 H 0.62157 0.34873 0.6252 0.0
C855 C 0.63691 0.20659 0.39932 0.0
H856 H 0.61977 0.34986 0.40615 0.0
C857 C 0.63738 0.20501 0.52533 0.0
C858 C 0.63146 0.2553 0.60992 0.0
H859 H 0.6415 0.16666 0.33777 0.0
H860 H 0.64222 0.16385 0.55632 0.0
C861 C 0.62551 0.30786 0.56357 0.0
C862 C 0.37015 0.30355 0.43388 0.0
C863 C 0.38047 0.26415 0.35625 0.0
H864 H 0.36162 0.33297 0.61573 0.0
C865 C 0.38959 0.21999 0.40695 0.0
H866 H 0.36278 0.33755 0.398 0.0
C867 C 0.38839 0.21542 0.53143 0.0
C868 C 0.37868 0.2569 0.61063 0.0
H869 H 0.39736 0.18776 0.34962 0.0
H870 H 0.39514 0.17929 0.56557 0.0
C871 C 0.36942 0.30057 0.5591 0.0
C872 C 0.01464 0.22698 0.21643 0.0
C873 C 0.02269 0.21591 0.32164 0.0
H874 H 0.99212 0.23485 0.12878 0.0
C875 C 0.01363 0.21156 0.42631 0.0
H876 H 0.02127 0.23179 0.135 0.0
C877 C 0.99685 0.21345 0.42278 0.0
C878 C 0.98882 0.2197 0.3145 0.0
H879 H 0.01945 0.20274 0.50864 0.0
H880 H 0.99017 0.20596 0.5024 0.0
C881 C 0.99794 0.22882 0.2129 0.0
C882 C 0.99533 0.79353 0.8368 0.0
C883 C 0.98735 0.80379 0.73092 0.0
H884 H 0.01775 0.78347 0.92398 0.0
C885 C 0.99641 0.80602 0.62544 0.0
H886 H 0.98867 0.79072 0.91905 0.0
C887 C 0.01319 0.80256 0.62848 0.0
C888 C 0.02123 0.79654 0.73699 0.0
H889 H 0.99061 0.81429 0.54266 0.0
H890 H 0.01987 0.80833 0.54784 0.0
C891 C 0.01202 0.78965 0.83965 0.0
C892 C 0.51295 0.72025 0.68276 0.0
C893 C 0.52171 0.71809 0.78956 0.0
H894 H 0.48988 0.71827 0.59887 0.0
C895 C 0.51331 0.71925 0.8992 0.0
H896 H 0.51905 0.72053 0.59719 0.0
C897 C 0.49651 0.71788 0.90017 0.0
C898 C 0.4878 0.71535 0.7915 0.0
H899 H 0.5197 0.71723 0.98293 0.0
H900 H 0.49041 0.71481 0.98463 0.0
C901 C 0.49623 0.71894 0.68373 0.0
C902 C 0.4966 0.31008 0.34443 0.0
C903 C 0.48811 0.31689 0.23843 0.0
H904 H 0.51944 0.30818 0.43062 0.0
C905 C 0.49683 0.32024 0.1317 0.0
H906 H 0.49029 0.30598 0.42759 0.0
C907 C 0.51364 0.32107 0.13334 0.0
C908 C 0.52204 0.31873 0.24179 0.0
H909 H 0.49071 0.32588 0.04862 0.0
H910 H 0.52 0.32731 0.05157 0.0
C911 C 0.51332 0.31116 0.34616 0.0
loop_
_geom_bond_atom_site_label_1
_geom_bond_atom_site_label_2
_geom_bond_distance
_geom_bond_site_symmetry_2
_ccdc_geom_bond_type
Eu0 N29 2.600 . S
Eu0 N35 2.562 . S
Eu0 O44 2.462 . S
Eu0 O45 2.373 . S
Eu0 O47 2.432 . S
Eu0 O48 2.291 . S
Eu0 O52 2.335 . S
Eu0 O55 2.372 . S
Eu0 C64 2.787 . S
C1 N2 1.365 . S
C1 C4 1.405 . S
C1 C8 1.448 . S
N2 C1 1.365 . S
N2 C5 1.319 . S
N2 Eu11 2.600 . S
C3 C5 1.397 . S
C3 C6 1.367 . S
C3 H23 0.931 . S
C4 C1 1.405 . S
C4 C6 1.403 . S
C4 C10 1.439 . S
C5 N2 1.319 . S
C5 C3 1.397 . S
C5 H16 0.930 . S
C6 C3 1.367 . S
C6 C4 1.403 . S
C6 H27 0.929 . S
C7 C8 1.430 . S
C7 C9 1.387 . S
C7 C13 1.404 . S
C8 C1 1.448 . S
C8 C7 1.430 . S
C8 N12 1.351 . S
C9 C7 1.387 . S
C9 C10 1.374 . S
C9 H24 0.931 1_556 S
C10 C4 1.439 . S
C10 C9 1.374 . S
C10 H25 0.931 . S
Eu11 N2 2.600 . S
Eu11 N12 2.562 . S
Eu11 O46 2.335 . S
Eu11 O49 2.372 . S
Eu11 O50 2.462 . S
Eu11 O51 2.373 . S
Eu11 O53 2.432 . S
Eu11 O54 2.291 . S
Eu11 C75 2.787 . S
N12 C8 1.351 . S
N12 Eu11 2.562 . S
N12 C14 1.325 . S
C13 C7 1.404 . S
C13 C15 1.366 . S
C13 H21 0.930 . S
C14 N12 1.325 . S
C14 C15 1.416 . S
C14 H20 0.929 . S
C15 C13 1.366 . S
C15 C14 1.416 . S
C15 H17 0.930 . S
H16 C5 0.930 . S
H17 C15 0.930 . S
H18 C33 0.930 . S
H19 C40 0.930 . S
H20 C14 0.929 . S
H21 C13 0.930 . S
H22 C36 0.929 . S
H23 C3 0.931 . S
H24 C9 0.931 1_554 S
H25 C10 0.931 . S
H26 C31 0.931 . S
H27 C6 0.929 . S
H28 C39 0.930 1_556 S
N29 Eu0 2.600 . S
N29 C30 1.365 . S
N29 C33 1.319 . S
C30 N29 1.365 . S
C30 C32 1.405 . S
C30 C38 1.448 . S
C31 H26 0.931 . S
C31 C33 1.397 . S
C31 C34 1.367 . S
C32 C30 1.405 . S
C32 C34 1.403 . S
C32 C65 1.439 . S
C33 H18 0.930 . S
C33 N29 1.319 . S
C33 C31 1.397 . S
C34 C31 1.367 . S
C34 C32 1.403 . S
C34 H41 0.929 . S
N35 Eu0 2.562 . S
N35 C36 1.325 . S
N35 C38 1.351 . S
C36 H22 0.929 . S
C36 N35 1.325 . S
C36 C40 1.416 . S
C37 C38 1.430 . S
C37 C39 1.404 . S
C37 C66 1.387 1_554 S
C38 C30 1.448 . S
C38 N35 1.351 . S
C38 C37 1.430 . S
C39 H28 0.930 1_554 S
C39 C37 1.404 . S
C39 C40 1.366 . S
C40 H19 0.930 . S
C40 C36 1.416 . S
C40 C39 1.366 . S
H41 C34 0.929 . S
H42 C65 0.931 1_556 S
H43 C66 0.931 . S
O44 Eu0 2.462 . S
O44 C64 1.252 . S
O45 Eu0 2.373 . S
O45 C56 1.249 . S
O46 Eu11 2.335 . S
O46 C56 1.264 . S
O47 Eu0 2.432 . S
O47 C64 1.268 . S
O48 Eu0 2.291 . S
O48 C63 1.255 . S
O49 Eu11 2.372 . S
O49 C63 1.257 . S
O50 Eu11 2.462 . S
O50 C75 1.252 . S
O51 Eu11 2.373 . S
O51 C67 1.249 . S
O52 Eu0 2.335 . S
O52 C67 1.264 . S
O53 Eu11 2.432 . S
O53 C75 1.268 . S
O54 Eu11 2.291 . S
O54 C74 1.255 . S
O55 Eu0 2.372 . S
O55 C74 1.257 . S
C56 O45 1.249 . S
C56 O46 1.264 . S
C57 C60 1.382 . S
C57 C62 1.390 . S
C57 C64 1.506 . S
C58 C59 1.398 . S
C58 C62 1.392 . S
C59 C58 1.398 . S
C59 C61 1.372 . S
C59 H76 0.931 . S
C60 C57 1.382 . S
C60 C61 1.390 . S
C60 H77 0.931 . S
C61 C59 1.372 . S
C61 C60 1.390 . S
C61 H78 0.929 . S
C62 C57 1.390 . S
C62 C58 1.392 . S
C62 H79 0.930 . S
C63 O48 1.255 . S
C63 O49 1.257 . S
C64 Eu0 2.787 . S
C64 O44 1.252 . S
C64 O47 1.268 . S
C64 C57 1.506 . S
C65 C32 1.439 . S
C65 H42 0.931 1_554 S
C65 C66 1.374 1_554 S
C66 C37 1.387 1_556 S
C66 H43 0.931 . S
C66 C65 1.374 1_556 S
C67 O51 1.249 . S
C67 O52 1.264 . S
C68 C71 1.382 . S
C68 C72 1.390 . S
C68 C75 1.506 . S
C69 C70 1.398 . S
C69 C72 1.392 . S
C70 C69 1.398 . S
C70 C73 1.372 . S
C70 H80 0.931 . S
C71 C68 1.382 . S
C71 C73 1.390 . S
C71 H81 0.931 . S
C72 C68 1.390 . S
C72 C69 1.392 . S
C72 H82 0.930 . S
C73 C70 1.372 . S
C73 C71 1.390 . S
C73 H83 0.929 . S
C74 O54 1.255 . S
C74 O55 1.257 . S
C75 Eu11 2.787 . S
C75 O50 1.252 . S
C75 O53 1.268 . S
C75 C68 1.506 . S
H76 C59 0.931 . S
H77 C60 0.931 . S
H78 C61 0.929 . S
H79 C62 0.930 . S
H80 C70 0.931 . S
H81 C71 0.931 . S
H82 C72 0.930 . S
H83 C73 0.929 . S
Eu84 N113 2.600 . S
Eu84 N119 2.562 . S
Eu84 O128 2.462 . S
Eu84 O129 2.373 . S
Eu84 O131 2.432 . S
Eu84 O132 2.291 . S
Eu84 O136 2.335 . S
Eu84 O139 2.372 . S
Eu84 C148 2.787 . S
C85 N86 1.365 . S
C85 C88 1.405 . S
C85 C92 1.448 . S
N86 C85 1.365 . S
N86 C89 1.319 . S
N86 Eu95 2.600 . S
C87 C89 1.397 . S
C87 C90 1.367 . S
C87 H107 0.931 . S
C88 C85 1.405 . S
C88 C90 1.403 . S
C88 C94 1.439 . S
C89 N86 1.319 . S
C89 C87 1.397 . S
C89 H100 0.930 . S
C90 C87 1.367 . S
C90 C88 1.403 . S
C90 H111 0.929 . S
C91 C92 1.430 . S
C91 C93 1.387 1_554 S
C91 C97 1.404 . S
C92 C85 1.448 . S
C92 C91 1.430 . S
C92 N96 1.351 . S
C93 C91 1.387 1_556 S
C93 C94 1.374 1_556 S
C93 H108 0.931 . S
C94 C88 1.439 . S
C94 C93 1.374 1_554 S
C94 H109 0.931 1_554 S
Eu95 N86 2.600 . S
Eu95 N96 2.562 . S
Eu95 O130 2.335 . S
Eu95 O133 2.372 . S
Eu95 O134 2.462 . S
Eu95 O135 2.373 . S
Eu95 O137 2.432 . S
Eu95 O138 2.291 . S
Eu95 C159 2.787 . S
N96 C92 1.351 . S
N96 Eu95 2.562 . S
N96 C98 1.325 . S
C97 C91 1.404 . S
C97 C99 1.366 . S
C97 H105 0.930 1_554 S
C98 N96 1.325 . S
C98 C99 1.416 . S
C98 H104 0.929 . S
C99 C97 1.366 . S
C99 C98 1.416 . S
C99 H101 0.930 . S
H100 C89 0.930 . S
H101 C99 0.930 . S
H102 C117 0.930 . S
H103 C124 0.930 . S
H104 C98 0.929 . S
H105 C97 0.930 1_556 S
H106 C120 0.929 . S
H107 C87 0.931 . S
H108 C93 0.931 . S
H109 C94 0.931 1_556 S
H110 C115 0.931 . S
H111 C90 0.929 . S
H112 C123 0.930 . S
N113 Eu84 2.600 . S
N113 C114 1.365 . S
N113 C117 1.319 . S
C114 N113 1.365 . S
C114 C116 1.405 . S
C114 C122 1.448 . S
C115 H110 0.931 . S
C115 C117 1.397 . S
C115 C118 1.367 . S
C116 C114 1.405 . S
C116 C118 1.403 . S
C116 C149 1.439 . S
C117 H102 0.930 . S
C117 N113 1.319 . S
C117 C115 1.397 . S
C118 C115 1.367 . S
C118 C116 1.403 . S
C118 H125 0.929 . S
N119 Eu84 2.562 . S
N119 C120 1.325 . S
N119 C122 1.351 . S
C120 H106 0.929 . S
C120 N119 1.325 . S
C120 C124 1.416 . S
C121 C122 1.430 . S
C121 C123 1.404 . S
C121 C150 1.387 . S
C122 C114 1.448 . S
C122 N119 1.351 . S
C122 C121 1.430 . S
C123 H112 0.930 . S
C123 C121 1.404 . S
C123 C124 1.366 . S
C124 H103 0.930 . S
C124 C120 1.416 . S
C124 C123 1.366 . S
H125 C118 0.929 . S
H126 C149 0.931 . S
H127 C150 0.931 1_554 S
O128 Eu84 2.462 . S
O128 C148 1.252 . S
O129 Eu84 2.373 . S
O129 C140 1.249 . S
O130 Eu95 2.335 . S
O130 C140 1.264 . S
O131 Eu84 2.432 . S
O131 C148 1.268 . S
O132 Eu84 2.291 . S
O132 C147 1.255 . S
O133 Eu95 2.372 . S
O133 C147 1.257 . S
O134 Eu95 2.462 . S
O134 C159 1.252 . S
O135 Eu95 2.373 . S
O135 C151 1.249 . S
O136 Eu84 2.335 . S
O136 C151 1.264 . S
O137 Eu95 2.432 . S
O137 C159 1.268 . S
O138 Eu95 2.291 . S
O138 C158 1.255 . S
O139 Eu84 2.372 . S
O139 C158 1.257 . S
C140 O129 1.249 . S
C140 O130 1.264 . S
C141 C144 1.382 . S
C141 C146 1.390 . S
C141 C148 1.506 . S
C142 C143 1.398 . S
C142 C146 1.392 . S
C143 C142 1.398 . S
C143 C145 1.372 . S
C143 H160 0.931 . S
C144 C141 1.382 . S
C144 C145 1.390 . S
C144 H161 0.931 . S
C145 C143 1.372 . S
C145 C144 1.390 . S
C145 H162 0.929 . S
C146 C141 1.390 . S
C146 C142 1.392 . S
C146 H163 0.930 . S
C147 O132 1.255 . S
C147 O133 1.257 . S
C148 Eu84 2.787 . S
C148 O128 1.252 . S
C148 O131 1.268 . S
C148 C141 1.506 . S
C149 C116 1.439 . S
C149 H126 0.931 . S
C149 C150 1.374 . S
C150 C121 1.387 . S
C150 H127 0.931 1_556 S
C150 C149 1.374 . S
C151 O135 1.249 . S
C151 O136 1.264 . S
C152 C155 1.382 . S
C152 C156 1.390 . S
C152 C159 1.506 . S
C153 C154 1.398 . S
C153 C156 1.392 . S
C154 C153 1.398 . S
C154 C157 1.372 . S
C154 H164 0.931 . S
C155 C152 1.382 . S
C155 C157 1.390 . S
C155 H165 0.931 . S
C156 C152 1.390 . S
C156 C153 1.392 . S
C156 H166 0.930 . S
C157 C154 1.372 . S
C157 C155 1.390 . S
C157 H167 0.929 . S
C158 O138 1.255 . S
C158 O139 1.257 . S
C159 Eu95 2.787 . S
C159 O134 1.252 . S
C159 O137 1.268 . S
C159 C152 1.506 . S
H160 C143 0.931 . S
H161 C144 0.931 . S
H162 C145 0.929 . S
H163 C146 0.930 . S
H164 C154 0.931 . S
H165 C155 0.931 . S
H166 C156 0.930 . S
H167 C157 0.929 . S
Eu168 N197 2.600 . S
Eu168 N203 2.562 . S
Eu168 O212 2.462 . S
Eu168 O213 2.373 . S
Eu168 O215 2.432 . S
Eu168 O216 2.291 . S
Eu168 O220 2.335 . S
Eu168 O223 2.372 . S
Eu168 C232 2.787 . S
C169 N170 1.365 . S
C169 C172 1.405 . S
C169 C176 1.448 . S
N170 C169 1.365 . S
N170 C173 1.319 . S
N170 Eu179 2.600 . S
C171 C173 1.397 . S
C171 C174 1.367 . S
C171 H191 0.931 . S
C172 C169 1.405 . S
C172 C174 1.403 . S
C172 C178 1.439 . S
C173 N170 1.319 . S
C173 C171 1.397 . S
C173 H184 0.930 . S
C174 C171 1.367 . S
C174 C172 1.403 . S
C174 H195 0.929 . S
C175 C176 1.430 . S
C175 C177 1.387 . S
C175 C181 1.404 . S
C176 C169 1.448 . S
C176 C175 1.430 . S
C176 N180 1.351 . S
C177 C175 1.387 . S
C177 C178 1.374 . S
C177 H192 0.931 1_554 S
C178 C172 1.439 . S
C178 C177 1.374 . S
C178 H193 0.931 . S
Eu179 N170 2.600 . S
Eu179 N180 2.562 . S
Eu179 O214 2.335 . S
Eu179 O217 2.372 . S
Eu179 O218 2.462 . S
Eu179 O219 2.373 . S
Eu179 O221 2.432 . S
Eu179 O222 2.291 . S
Eu179 C243 2.787 . S
N180 C176 1.351 . S
N180 Eu179 2.562 . S
N180 C182 1.325 . S
C181 C175 1.404 . S
C181 C183 1.366 . S
C181 H189 0.930 . S
C182 N180 1.325 . S
C182 C183 1.416 . S
C182 H188 0.929 . S
C183 C181 1.366 . S
C183 C182 1.416 . S
C183 H185 0.930 . S
H184 C173 0.930 . S
H185 C183 0.930 . S
H186 C201 0.930 . S
H187 C208 0.930 . S
H188 C182 0.929 . S
H189 C181 0.930 . S
H190 C204 0.929 . S
H191 C171 0.931 . S
H192 C177 0.931 1_556 S
H193 C178 0.931 . S
H194 C199 0.931 . S
H195 C174 0.929 . S
H196 C207 0.930 1_554 S
N197 Eu168 2.600 . S
N197 C198 1.365 . S
N197 C201 1.319 . S
C198 N197 1.365 . S
C198 C200 1.405 . S
C198 C206 1.448 . S
C199 H194 0.931 . S
C199 C201 1.397 . S
C199 C202 1.367 . S
C200 C198 1.405 . S
C200 C202 1.403 . S
C200 C233 1.439 . S
C201 H186 0.930 . S
C201 N197 1.319 . S
C201 C199 1.397 . S
C202 C199 1.367 . S
C202 C200 1.403 . S
C202 H209 0.929 . S
N203 Eu168 2.562 . S
N203 C204 1.325 . S
N203 C206 1.351 . S
C204 H190 0.929 . S
C204 N203 1.325 . S
C204 C208 1.416 . S
C205 C206 1.430 . S
C205 C207 1.404 . S
C205 C234 1.387 1_556 S
C206 C198 1.448 . S
C206 N203 1.351 . S
C206 C205 1.430 . S
C207 H196 0.930 1_556 S
C207 C205 1.404 . S
C207 C208 1.366 . S
C208 H187 0.930 . S
C208 C204 1.416 . S
C208 C207 1.366 . S
H209 C202 0.929 . S
H210 C233 0.931 1_554 S
H211 C234 0.931 . S
O212 Eu168 2.462 . S
O212 C232 1.252 . S
O213 Eu168 2.373 . S
O213 C224 1.249 . S
O214 Eu179 2.335 . S
O214 C224 1.264 . S
O215 Eu168 2.432 . S
O215 C232 1.268 . S
O216 Eu168 2.291 . S
O216 C231 1.255 . S
O217 Eu179 2.372 . S
O217 C231 1.257 . S
O218 Eu179 2.462 . S
O218 C243 1.252 . S
O219 Eu179 2.373 . S
O219 C235 1.249 . S
O220 Eu168 2.335 . S
O220 C235 1.264 . S
O221 Eu179 2.432 . S
O221 C243 1.268 . S
O222 Eu179 2.291 . S
O222 C242 1.255 . S
O223 Eu168 2.372 . S
O223 C242 1.257 . S
C224 O213 1.249 . S
C224 O214 1.264 . S
C225 C228 1.382 . S
C225 C230 1.390 . S
C225 C232 1.506 . S
C226 C227 1.398 . S
C226 C230 1.392 . S
C227 C226 1.398 . S
C227 C229 1.372 . S
C227 H244 0.931 . S
C228 C225 1.382 . S
C228 C229 1.390 . S
C228 H245 0.931 . S
C229 C227 1.372 . S
C229 C228 1.390 . S
C229 H246 0.929 . S
C230 C225 1.390 . S
C230 C226 1.392 . S
C230 H247 0.930 . S
C231 O216 1.255 . S
C231 O217 1.257 . S
C232 Eu168 2.787 . S
C232 O212 1.252 . S
C232 O215 1.268 . S
C232 C225 1.506 . S
C233 C200 1.439 . S
C233 H210 0.931 1_556 S
C233 C234 1.374 1_556 S
C234 C205 1.387 1_554 S
C234 H211 0.931 . S
C234 C233 1.374 1_554 S
C235 O219 1.249 . S
C235 O220 1.264 . S
C236 C239 1.382 . S
C236 C240 1.390 . S
C236 C243 1.506 . S
C237 C238 1.398 . S
C237 C240 1.392 . S
C238 C237 1.398 . S
C238 C241 1.372 . S
C238 H248 0.931 . S
C239 C236 1.382 . S
C239 C241 1.390 . S
C239 H249 0.931 . S
C240 C236 1.390 . S
C240 C237 1.392 . S
C240 H250 0.930 . S
C241 C238 1.372 . S
C241 C239 1.390 . S
C241 H251 0.929 . S
C242 O222 1.255 . S
C242 O223 1.257 . S
C243 Eu179 2.787 . S
C243 O218 1.252 . S
C243 O221 1.268 . S
C243 C236 1.506 . S
H244 C227 0.931 . S
H245 C228 0.931 . S
H246 C229 0.929 . S
H247 C230 0.930 . S
H248 C238 0.931 . S
H249 C239 0.931 . S
H250 C240 0.930 . S
H251 C241 0.929 . S
Eu252 N281 2.600 . S
Eu252 N287 2.562 . S
Eu252 O296 2.462 . S
Eu252 O297 2.373 . S
Eu252 O299 2.432 . S
Eu252 O300 2.291 . S
Eu252 O304 2.335 . S
Eu252 O307 2.372 . S
Eu252 C316 2.787 . S
C253 N254 1.365 . S
C253 C256 1.405 . S
C253 C260 1.448 . S
N254 C253 1.365 . S
N254 C257 1.319 . S
N254 Eu263 2.600 . S
C255 C257 1.397 . S
C255 C258 1.367 . S
C255 H275 0.931 . S
C256 C253 1.405 . S
C256 C258 1.403 . S
C256 C262 1.439 . S
C257 N254 1.319 . S
C257 C255 1.397 . S
C257 H268 0.930 . S
C258 C255 1.367 . S
C258 C256 1.403 . S
C258 H279 0.929 . S
C259 C260 1.430 . S
C259 C261 1.387 1_556 S
C259 C265 1.404 . S
C260 C253 1.448 . S
C260 C259 1.430 . S
C260 N264 1.351 . S
C261 C259 1.387 1_554 S
C261 C262 1.374 1_554 S
C261 H276 0.931 . S
C262 C256 1.439 . S
C262 C261 1.374 1_556 S
C262 H277 0.931 1_556 S
Eu263 N254 2.600 . S
Eu263 N264 2.562 . S
Eu263 O298 2.335 . S
Eu263 O301 2.372 . S
Eu263 O302 2.462 . S
Eu263 O303 2.373 . S
Eu263 O305 2.432 . S
Eu263 O306 2.291 . S
Eu263 C327 2.787 . S
N264 C260 1.351 . S
N264 Eu263 2.562 . S
N264 C266 1.325 . S
C265 C259 1.404 . S
C265 C267 1.366 . S
C265 H273 0.930 1_556 S
C266 N264 1.325 . S
C266 C267 1.416 . S
C266 H272 0.929 . S
C267 C265 1.366 . S
C267 C266 1.416 . S
C267 H269 0.930 . S
H268 C257 0.930 . S
H269 C267 0.930 . S
H270 C285 0.930 . S
H271 C292 0.930 . S
H272 C266 0.929 . S
H273 C265 0.930 1_554 S
H274 C288 0.929 . S
H275 C255 0.931 . S
H276 C261 0.931 . S
H277 C262 0.931 1_554 S
H278 C283 0.931 . S
H279 C258 0.929 . S
H280 C291 0.930 . S
N281 Eu252 2.600 . S
N281 C282 1.365 . S
N281 C285 1.319 . S
C282 N281 1.365 . S
C282 C284 1.405 . S
C282 C290 1.448 . S
C283 H278 0.931 . S
C283 C285 1.397 . S
C283 C286 1.367 . S
C284 C282 1.405 . S
C284 C286 1.403 . S
C284 C317 1.439 . S
C285 H270 0.930 . S
C285 N281 1.319 . S
C285 C283 1.397 . S
C286 C283 1.367 . S
C286 C284 1.403 . S
C286 H293 0.929 . S
N287 Eu252 2.562 . S
N287 C288 1.325 . S
N287 C290 1.351 . S
C288 H274 0.929 . S
C288 N287 1.325 . S
C288 C292 1.416 . S
C289 C290 1.430 . S
C289 C291 1.404 . S
C289 C318 1.387 . S
C290 C282 1.448 . S
C290 N287 1.351 . S
C290 C289 1.430 . S
C291 H280 0.930 . S
C291 C289 1.404 . S
C291 C292 1.366 . S
C292 H271 0.930 . S
C292 C288 1.416 . S
C292 C291 1.366 . S
H293 C286 0.929 . S
H294 C317 0.931 . S
H295 C318 0.931 1_556 S
O296 Eu252 2.462 . S
O296 C316 1.252 . S
O297 Eu252 2.373 . S
O297 C308 1.249 . S
O298 Eu263 2.335 . S
O298 C308 1.264 . S
O299 Eu252 2.432 . S
O299 C316 1.268 . S
O300 Eu252 2.291 . S
O300 C315 1.255 . S
O301 Eu263 2.372 . S
O301 C315 1.257 . S
O302 Eu263 2.462 . S
O302 C327 1.252 . S
O303 Eu263 2.373 . S
O303 C319 1.249 . S
O304 Eu252 2.335 . S
O304 C319 1.264 . S
O305 Eu263 2.432 . S
O305 C327 1.268 . S
O306 Eu263 2.291 . S
O306 C326 1.255 . S
O307 Eu252 2.372 . S
O307 C326 1.257 . S
C308 O297 1.249 . S
C308 O298 1.264 . S
C309 C312 1.382 . S
C309 C314 1.390 . S
C309 C316 1.506 . S
C310 C311 1.398 . S
C310 C314 1.392 . S
C311 C310 1.398 . S
C311 C313 1.372 . S
C311 H328 0.931 . S
C312 C309 1.382 . S
C312 C313 1.390 . S
C312 H329 0.931 . S
C313 C311 1.372 . S
C313 C312 1.390 . S
C313 H330 0.929 . S
C314 C309 1.390 . S
C314 C310 1.392 . S
C314 H331 0.930 . S
C315 O300 1.255 . S
C315 O301 1.257 . S
C316 Eu252 2.787 . S
C316 O296 1.252 . S
C316 O299 1.268 . S
C316 C309 1.506 . S
C317 C284 1.439 . S
C317 H294 0.931 . S
C317 C318 1.374 . S
C318 C289 1.387 . S
C318 H295 0.931 1_554 S
C318 C317 1.374 . S
C319 O303 1.249 . S
C319 O304 1.264 . S
C320 C323 1.382 . S
C320 C324 1.390 . S
C320 C327 1.506 . S
C321 C322 1.398 . S
C321 C324 1.392 . S
C322 C321 1.398 . S
C322 C325 1.372 . S
C322 H332 0.931 . S
C323 C320 1.382 . S
C323 C325 1.390 . S
C323 H333 0.931 . S
C324 C320 1.390 . S
C324 C321 1.392 . S
C324 H334 0.930 . S
C325 C322 1.372 . S
C325 C323 1.390 . S
C325 H335 0.929 . S
C326 O306 1.255 . S
C326 O307 1.257 . S
C327 Eu263 2.787 . S
C327 O302 1.252 . S
C327 O305 1.268 . S
C327 C320 1.506 . S
H328 C311 0.931 . S
H329 C312 0.931 . S
H330 C313 0.929 . S
H331 C314 0.930 . S
H332 C322 0.931 . S
H333 C323 0.931 . S
H334 C324 0.930 . S
H335 C325 0.929 . S
Eu336 N365 2.600 . S
Eu336 N371 2.562 . S
Eu336 O380 2.462 1_556 S
Eu336 O381 2.373 . S
Eu336 O383 2.432 1_556 S
Eu336 O384 2.291 . S
Eu336 O388 2.335 1_556 S
Eu336 O391 2.372 1_556 S
Eu336 C400 2.787 1_556 S
C337 N338 1.365 . S
C337 C340 1.405 . S
C337 C344 1.448 . S
N338 C337 1.365 . S
N338 C341 1.319 . S
N338 Eu347 2.600 . S
C339 C341 1.397 . S
C339 C342 1.367 . S
C339 H359 0.931 . S
C340 C337 1.405 . S
C340 C342 1.403 . S
C340 C346 1.439 . S
C341 N338 1.319 . S
C341 C339 1.397 . S
C341 H352 0.930 . S
C342 C339 1.367 . S
C342 C340 1.403 . S
C342 H363 0.929 . S
C343 C344 1.430 . S
C343 C345 1.387 . S
C343 C349 1.404 . S
C344 C337 1.448 . S
C344 C343 1.430 . S
C344 N348 1.351 . S
C345 C343 1.387 . S
C345 C346 1.374 . S
C345 H360 0.931 . S
C346 C340 1.439 . S
C346 C345 1.374 . S
C346 H361 0.931 . S
Eu347 N338 2.600 . S
Eu347 N348 2.562 . S
Eu347 O382 2.335 1_554 S
Eu347 O385 2.372 1_554 S
Eu347 O386 2.462 1_554 S
Eu347 O387 2.373 . S
Eu347 O389 2.432 1_554 S
Eu347 O390 2.291 . S
Eu347 C411 2.787 1_554 S
N348 C344 1.351 . S
N348 Eu347 2.562 . S
N348 C350 1.325 . S
C349 C343 1.404 . S
C349 C351 1.366 . S
C349 H357 0.930 . S
C350 N348 1.325 . S
C350 C351 1.416 . S
C350 H356 0.929 . S
C351 C349 1.366 . S
C351 C350 1.416 . S
C351 H353 0.930 . S
H352 C341 0.930 . S
H353 C351 0.930 . S
H354 C369 0.930 . S
H355 C376 0.930 . S
H356 C350 0.929 . S
H357 C349 0.930 . S
H358 C372 0.929 . S
H359 C339 0.931 . S
H360 C345 0.931 . S
H361 C346 0.931 . S
H362 C367 0.931 1_545 S
H363 C342 0.929 . S
H364 C375 0.930 . S
N365 Eu336 2.600 . S
N365 C366 1.365 . S
N365 C369 1.319 . S
C366 N365 1.365 . S
C366 C368 1.405 . S
C366 C374 1.448 . S
C367 H362 0.931 1_565 S
C367 C369 1.397 . S
C367 C370 1.367 . S
C368 C366 1.405 . S
C368 C370 1.403 . S
C368 C401 1.439 . S
C369 H354 0.930 . S
C369 N365 1.319 . S
C369 C367 1.397 . S
C370 C367 1.367 . S
C370 C368 1.403 . S
C370 H377 0.929 . S
N371 Eu336 2.562 . S
N371 C372 1.325 . S
N371 C374 1.351 . S
C372 H358 0.929 . S
C372 N371 1.325 . S
C372 C376 1.416 . S
C373 C374 1.430 . S
C373 C375 1.404 . S
C373 C402 1.387 . S
C374 C366 1.448 . S
C374 N371 1.351 . S
C374 C373 1.430 . S
C375 H364 0.930 . S
C375 C373 1.404 . S
C375 C376 1.366 . S
C376 H355 0.930 . S
C376 C372 1.416 . S
C376 C375 1.366 . S
H377 C370 0.929 . S
H378 C401 0.931 . S
H379 C402 0.931 . S
O380 Eu336 2.462 1_554 S
O380 C400 1.252 . S
O381 Eu336 2.373 . S
O381 C392 1.249 . S
O382 Eu347 2.335 1_556 S
O382 C392 1.264 . S
O383 Eu336 2.432 1_554 S
O383 C400 1.268 . S
O384 Eu336 2.291 . S
O384 C399 1.255 . S
O385 Eu347 2.372 1_556 S
O385 C399 1.257 . S
O386 Eu347 2.462 1_556 S
O386 C411 1.252 . S
O387 Eu347 2.373 . S
O387 C403 1.249 . S
O388 Eu336 2.335 1_554 S
O388 C403 1.264 . S
O389 Eu347 2.432 1_556 S
O389 C411 1.268 . S
O390 Eu347 2.291 . S
O390 C410 1.255 . S
O391 Eu336 2.372 1_554 S
O391 C410 1.257 . S
C392 O381 1.249 . S
C392 O382 1.264 . S
C393 C396 1.382 . S
C393 C398 1.390 . S
C393 C400 1.506 . S
C394 C395 1.398 . S
C394 C398 1.392 . S
C395 C394 1.398 . S
C395 C397 1.372 . S
C395 H412 0.931 . S
C396 C393 1.382 . S
C396 C397 1.390 . S
C396 H413 0.931 . S
C397 C395 1.372 . S
C397 C396 1.390 . S
C397 H414 0.929 . S
C398 C393 1.390 . S
C398 C394 1.392 . S
C398 H415 0.930 . S
C399 O384 1.255 . S
C399 O385 1.257 . S
C400 Eu336 2.787 1_554 S
C400 O380 1.252 . S
C400 O383 1.268 . S
C400 C393 1.506 . S
C401 C368 1.439 . S
C401 H378 0.931 . S
C401 C402 1.374 . S
C402 C373 1.387 . S
C402 H379 0.931 . S
C402 C401 1.374 . S
C403 O387 1.249 . S
C403 O388 1.264 . S
C404 C407 1.382 . S
C404 C408 1.390 . S
C404 C411 1.506 . S
C405 C406 1.398 . S
C405 C408 1.392 . S
C406 C405 1.398 . S
C406 C409 1.372 . S
C406 H416 0.931 . S
C407 C404 1.382 . S
C407 C409 1.390 . S
C407 H417 0.931 . S
C408 C404 1.390 . S
C408 C405 1.392 . S
C408 H418 0.930 . S
C409 C406 1.372 . S
C409 C407 1.390 . S
C409 H419 0.929 . S
C410 O390 1.255 . S
C410 O391 1.257 . S
C411 Eu347 2.787 1_556 S
C411 O386 1.252 . S
C411 O389 1.268 . S
C411 C404 1.506 . S
H412 C395 0.931 . S
H413 C396 0.931 . S
H414 C397 0.929 . S
H415 C398 0.930 . S
H416 C406 0.931 . S
H417 C407 0.931 . S
H418 C408 0.930 . S
H419 C409 0.929 . S
Eu420 N449 2.600 . S
Eu420 N455 2.562 . S
Eu420 O464 2.462 1_554 S
Eu420 O465 2.373 . S
Eu420 O467 2.432 1_554 S
Eu420 O468 2.291 . S
Eu420 O472 2.335 1_554 S
Eu420 O475 2.372 1_554 S
Eu420 C484 2.787 1_554 S
C421 N422 1.365 . S
C421 C424 1.405 . S
C421 C428 1.448 . S
N422 C421 1.365 . S
N422 C425 1.319 . S
N422 Eu431 2.600 . S
C423 C425 1.397 . S
C423 C426 1.367 . S
C423 H443 0.931 1_565 S
C424 C421 1.405 . S
C424 C426 1.403 . S
C424 C430 1.439 . S
C425 N422 1.319 . S
C425 C423 1.397 . S
C425 H436 0.930 . S
C426 C423 1.367 . S
C426 C424 1.403 . S
C426 H447 0.929 . S
C427 C428 1.430 . S
C427 C429 1.387 . S
C427 C433 1.404 . S
C428 C421 1.448 . S
C428 C427 1.430 . S
C428 N432 1.351 . S
C429 C427 1.387 . S
C429 C430 1.374 . S
C429 H444 0.931 . S
C430 C424 1.439 . S
C430 C429 1.374 . S
C430 H445 0.931 . S
Eu431 N422 2.600 . S
Eu431 N432 2.562 . S
Eu431 O466 2.335 1_556 S
Eu431 O469 2.372 1_556 S
Eu431 O470 2.462 1_556 S
Eu431 O471 2.373 . S
Eu431 O473 2.432 1_556 S
Eu431 O474 2.291 . S
Eu431 C495 2.787 1_556 S
N432 C428 1.351 . S
N432 Eu431 2.562 . S
N432 C434 1.325 . S
C433 C427 1.404 . S
C433 C435 1.366 . S
C433 H441 0.930 . S
C434 N432 1.325 . S
C434 C435 1.416 . S
C434 H440 0.929 . S
C435 C433 1.366 . S
C435 C434 1.416 . S
C435 H437 0.930 . S
H436 C425 0.930 . S
H437 C435 0.930 . S
H438 C453 0.930 . S
H439 C460 0.930 . S
H440 C434 0.929 . S
H441 C433 0.930 . S
H442 C456 0.929 . S
H443 C423 0.931 1_545 S
H444 C429 0.931 . S
H445 C430 0.931 . S
H446 C451 0.931 . S
H447 C426 0.929 . S
H448 C459 0.930 . S
N449 Eu420 2.600 . S
N449 C450 1.365 . S
N449 C453 1.319 . S
C450 N449 1.365 . S
C450 C452 1.405 . S
C450 C458 1.448 . S
C451 H446 0.931 . S
C451 C453 1.397 . S
C451 C454 1.367 . S
C452 C450 1.405 . S
C452 C454 1.403 . S
C452 C485 1.439 . S
C453 H438 0.930 . S
C453 N449 1.319 . S
C453 C451 1.397 . S
C454 C451 1.367 . S
C454 C452 1.403 . S
C454 H461 0.929 . S
N455 Eu420 2.562 . S
N455 C456 1.325 . S
N455 C458 1.351 . S
C456 H442 0.929 . S
C456 N455 1.325 . S
C456 C460 1.416 . S
C457 C458 1.430 . S
C457 C459 1.404 . S
C457 C486 1.387 . S
C458 C450 1.448 . S
C458 N455 1.351 . S
C458 C457 1.430 . S
C459 H448 0.930 . S
C459 C457 1.404 . S
C459 C460 1.366 . S
C460 H439 0.930 . S
C460 C456 1.416 . S
C460 C459 1.366 . S
H461 C454 0.929 . S
H462 C485 0.931 . S
H463 C486 0.931 . S
O464 Eu420 2.462 1_556 S
O464 C484 1.252 . S
O465 Eu420 2.373 . S
O465 C476 1.249 . S
O466 Eu431 2.335 1_554 S
O466 C476 1.264 . S
O467 Eu420 2.432 1_556 S
O467 C484 1.268 . S
O468 Eu420 2.291 . S
O468 C483 1.255 . S
O469 Eu431 2.372 1_554 S
O469 C483 1.257 . S
O470 Eu431 2.462 1_554 S
O470 C495 1.252 . S
O471 Eu431 2.373 . S
O471 C487 1.249 . S
O472 Eu420 2.335 1_556 S
O472 C487 1.264 . S
O473 Eu431 2.432 1_554 S
O473 C495 1.268 . S
O474 Eu431 2.291 . S
O474 C494 1.255 . S
O475 Eu420 2.372 1_556 S
O475 C494 1.257 . S
C476 O465 1.249 . S
C476 O466 1.264 . S
C477 C480 1.382 . S
C477 C482 1.390 . S
C477 C484 1.506 . S
C478 C479 1.398 . S
C478 C482 1.392 . S
C479 C478 1.398 . S
C479 C481 1.372 . S
C479 H496 0.931 . S
C480 C477 1.382 . S
C480 C481 1.390 . S
C480 H497 0.931 . S
C481 C479 1.372 . S
C481 C480 1.390 . S
C481 H498 0.929 . S
C482 C477 1.390 . S
C482 C478 1.392 . S
C482 H499 0.930 . S
C483 O468 1.255 . S
C483 O469 1.257 . S
C484 Eu420 2.787 1_556 S
C484 O464 1.252 . S
C484 O467 1.268 . S
C484 C477 1.506 . S
C485 C452 1.439 . S
C485 H462 0.931 . S
C485 C486 1.374 . S
C486 C457 1.387 . S
C486 H463 0.931 . S
C486 C485 1.374 . S
C487 O471 1.249 . S
C487 O472 1.264 . S
C488 C491 1.382 . S
C488 C492 1.390 . S
C488 C495 1.506 . S
C489 C490 1.398 . S
C489 C492 1.392 . S
C490 C489 1.398 . S
C490 C493 1.372 . S
C490 H500 0.931 . S
C491 C488 1.382 . S
C491 C493 1.390 . S
C491 H501 0.931 . S
C492 C488 1.390 . S
C492 C489 1.392 . S
C492 H502 0.930 . S
C493 C490 1.372 . S
C493 C491 1.390 . S
C493 H503 0.929 . S
C494 O474 1.255 . S
C494 O475 1.257 . S
C495 Eu431 2.787 1_554 S
C495 O470 1.252 . S
C495 O473 1.268 . S
C495 C488 1.506 . S
H496 C479 0.931 . S
H497 C480 0.931 . S
H498 C481 0.929 . S
H499 C482 0.930 . S
H500 C490 0.931 . S
H501 C491 0.931 . S
H502 C492 0.930 . S
H503 C493 0.929 . S
Eu504 N533 2.600 . S
Eu504 N539 2.562 . S
Eu504 O548 2.462 1_554 S
Eu504 O549 2.373 . S
Eu504 O551 2.432 1_554 S
Eu504 O552 2.291 . S
Eu504 O556 2.335 1_554 S
Eu504 O559 2.372 1_554 S
Eu504 C568 2.787 1_554 S
C505 N506 1.365 . S
C505 C508 1.405 . S
C505 C512 1.448 . S
N506 C505 1.365 . S
N506 C509 1.319 . S
N506 Eu515 2.600 . S
C507 C509 1.397 . S
C507 C510 1.367 . S
C507 H527 0.931 . S
C508 C505 1.405 . S
C508 C510 1.403 . S
C508 C514 1.439 . S
C509 N506 1.319 . S
C509 C507 1.397 . S
C509 H520 0.930 . S
C510 C507 1.367 . S
C510 C508 1.403 . S
C510 H531 0.929 . S
C511 C512 1.430 . S
C511 C513 1.387 . S
C511 C517 1.404 . S
C512 C505 1.448 . S
C512 C511 1.430 . S
C512 N516 1.351 . S
C513 C511 1.387 . S
C513 C514 1.374 . S
C513 H528 0.931 . S
C514 C508 1.439 . S
C514 C513 1.374 . S
C514 H529 0.931 . S
Eu515 N506 2.600 . S
Eu515 N516 2.562 . S
Eu515 O550 2.335 1_556 S
Eu515 O553 2.372 1_556 S
Eu515 O554 2.462 1_556 S
Eu515 O555 2.373 . S
Eu515 O557 2.432 1_556 S
Eu515 O558 2.291 . S
Eu515 C579 2.787 1_556 S
N516 C512 1.351 . S
N516 Eu515 2.562 . S
N516 C518 1.325 . S
C517 C511 1.404 . S
C517 C519 1.366 . S
C517 H525 0.930 . S
C518 N516 1.325 . S
C518 C519 1.416 . S
C518 H524 0.929 . S
C519 C517 1.366 . S
C519 C518 1.416 . S
C519 H521 0.930 . S
H520 C509 0.930 . S
H521 C519 0.930 . S
H522 C537 0.930 . S
H523 C544 0.930 . S
H524 C518 0.929 . S
H525 C517 0.930 . S
H526 C540 0.929 . S
H527 C507 0.931 . S
H528 C513 0.931 . S
H529 C514 0.931 . S
H530 C535 0.931 1_565 S
H531 C510 0.929 . S
H532 C543 0.930 . S
N533 Eu504 2.600 . S
N533 C534 1.365 . S
N533 C537 1.319 . S
C534 N533 1.365 . S
C534 C536 1.405 . S
C534 C542 1.448 . S
C535 H530 0.931 1_545 S
C535 C537 1.397 . S
C535 C538 1.367 . S
C536 C534 1.405 . S
C536 C538 1.403 . S
C536 C569 1.439 . S
C537 H522 0.930 . S
C537 N533 1.319 . S
C537 C535 1.397 . S
C538 C535 1.367 . S
C538 C536 1.403 . S
C538 H545 0.929 . S
N539 Eu504 2.562 . S
N539 C540 1.325 . S
N539 C542 1.351 . S
C540 H526 0.929 . S
C540 N539 1.325 . S
C540 C544 1.416 . S
C541 C542 1.430 . S
C541 C543 1.404 . S
C541 C570 1.387 . S
C542 C534 1.448 . S
C542 N539 1.351 . S
C542 C541 1.430 . S
C543 H532 0.930 . S
C543 C541 1.404 . S
C543 C544 1.366 . S
C544 H523 0.930 . S
C544 C540 1.416 . S
C544 C543 1.366 . S
H545 C538 0.929 . S
H546 C569 0.931 . S
H547 C570 0.931 . S
O548 Eu504 2.462 1_556 S
O548 C568 1.252 . S
O549 Eu504 2.373 . S
O549 C560 1.249 . S
O550 Eu515 2.335 1_554 S
O550 C560 1.264 . S
O551 Eu504 2.432 1_556 S
O551 C568 1.268 . S
O552 Eu504 2.291 . S
O552 C567 1.255 . S
O553 Eu515 2.372 1_554 S
O553 C567 1.257 . S
O554 Eu515 2.462 1_554 S
O554 C579 1.252 . S
O555 Eu515 2.373 . S
O555 C571 1.249 . S
O556 Eu504 2.335 1_556 S
O556 C571 1.264 . S
O557 Eu515 2.432 1_554 S
O557 C579 1.268 . S
O558 Eu515 2.291 . S
O558 C578 1.255 . S
O559 Eu504 2.372 1_556 S
O559 C578 1.257 . S
C560 O549 1.249 . S
C560 O550 1.264 . S
C561 C564 1.382 . S
C561 C566 1.390 . S
C561 C568 1.506 . S
C562 C563 1.398 . S
C562 C566 1.392 . S
C563 C562 1.398 . S
C563 C565 1.372 . S
C563 H580 0.931 . S
C564 C561 1.382 . S
C564 C565 1.390 . S
C564 H581 0.931 . S
C565 C563 1.372 . S
C565 C564 1.390 . S
C565 H582 0.929 . S
C566 C561 1.390 . S
C566 C562 1.392 . S
C566 H583 0.930 . S
C567 O552 1.255 . S
C567 O553 1.257 . S
C568 Eu504 2.787 1_556 S
C568 O548 1.252 . S
C568 O551 1.268 . S
C568 C561 1.506 . S
C569 C536 1.439 . S
C569 H546 0.931 . S
C569 C570 1.374 . S
C570 C541 1.387 . S
C570 H547 0.931 . S
C570 C569 1.374 . S
C571 O555 1.249 . S
C571 O556 1.264 . S
C572 C575 1.382 . S
C572 C576 1.390 . S
C572 C579 1.506 . S
C573 C574 1.398 . S
C573 C576 1.392 . S
C574 C573 1.398 . S
C574 C577 1.372 . S
C574 H584 0.931 . S
C575 C572 1.382 . S
C575 C577 1.390 . S
C575 H585 0.931 . S
C576 C572 1.390 . S
C576 C573 1.392 . S
C576 H586 0.930 . S
C577 C574 1.372 . S
C577 C575 1.390 . S
C577 H587 0.929 . S
C578 O558 1.255 . S
C578 O559 1.257 . S
C579 Eu515 2.787 1_554 S
C579 O554 1.252 . S
C579 O557 1.268 . S
C579 C572 1.506 . S
H580 C563 0.931 . S
H581 C564 0.931 . S
H582 C565 0.929 . S
H583 C566 0.930 . S
H584 C574 0.931 . S
H585 C575 0.931 . S
H586 C576 0.930 . S
H587 C577 0.929 . S
Eu588 N617 2.600 . S
Eu588 N623 2.562 . S
Eu588 O632 2.462 1_556 S
Eu588 O633 2.373 . S
Eu588 O635 2.432 1_556 S
Eu588 O636 2.291 . S
Eu588 O640 2.335 1_556 S
Eu588 O643 2.372 1_556 S
Eu588 C652 2.787 1_556 S
C589 N590 1.365 . S
C589 C592 1.405 . S
C589 C596 1.448 . S
N590 C589 1.365 . S
N590 C593 1.319 . S
N590 Eu599 2.600 . S
C591 C593 1.397 . S
C591 C594 1.367 . S
C591 H611 0.931 1_545 S
C592 C589 1.405 . S
C592 C594 1.403 . S
C592 C598 1.439 . S
C593 N590 1.319 . S
C593 C591 1.397 . S
C593 H604 0.930 . S
C594 C591 1.367 . S
C594 C592 1.403 . S
C594 H615 0.929 . S
C595 C596 1.430 . S
C595 C597 1.387 . S
C595 C601 1.404 . S
C596 C589 1.448 . S
C596 C595 1.430 . S
C596 N600 1.351 . S
C597 C595 1.387 . S
C597 C598 1.374 . S
C597 H612 0.931 . S
C598 C592 1.439 . S
C598 C597 1.374 . S
C598 H613 0.931 . S
Eu599 N590 2.600 . S
Eu599 N600 2.562 . S
Eu599 O634 2.335 1_554 S
Eu599 O637 2.372 1_554 S
Eu599 O638 2.462 1_554 S
Eu599 O639 2.373 . S
Eu599 O641 2.432 1_554 S
Eu599 O642 2.291 . S
Eu599 C663 2.787 1_554 S
N600 C596 1.351 . S
N600 Eu599 2.562 . S
N600 C602 1.325 . S
C601 C595 1.404 . S
C601 C603 1.366 . S
C601 H609 0.930 . S
C602 N600 1.325 . S
C602 C603 1.416 . S
C602 H608 0.929 . S
C603 C601 1.366 . S
C603 C602 1.416 . S
C603 H605 0.930 . S
H604 C593 0.930 . S
H605 C603 0.930 . S
H606 C621 0.930 . S
H607 C628 0.930 . S
H608 C602 0.929 . S
H609 C601 0.930 . S
H610 C624 0.929 . S
H611 C591 0.931 1_565 S
H612 C597 0.931 . S
H613 C598 0.931 . S
H614 C619 0.931 . S
H615 C594 0.929 . S
H616 C627 0.930 . S
N617 Eu588 2.600 . S
N617 C618 1.365 . S
N617 C621 1.319 . S
C618 N617 1.365 . S
C618 C620 1.405 . S
C618 C626 1.448 . S
C619 H614 0.931 . S
C619 C621 1.397 . S
C619 C622 1.367 . S
C620 C618 1.405 . S
C620 C622 1.403 . S
C620 C653 1.439 . S
C621 H606 0.930 . S
C621 N617 1.319 . S
C621 C619 1.397 . S
C622 C619 1.367 . S
C622 C620 1.403 . S
C622 H629 0.929 . S
N623 Eu588 2.562 . S
N623 C624 1.325 . S
N623 C626 1.351 . S
C624 H610 0.929 . S
C624 N623 1.325 . S
C624 C628 1.416 . S
C625 C626 1.430 . S
C625 C627 1.404 . S
C625 C654 1.387 . S
C626 C618 1.448 . S
C626 N623 1.351 . S
C626 C625 1.430 . S
C627 H616 0.930 . S
C627 C625 1.404 . S
C627 C628 1.366 . S
C628 H607 0.930 . S
C628 C624 1.416 . S
C628 C627 1.366 . S
H629 C622 0.929 . S
H630 C653 0.931 . S
H631 C654 0.931 . S
O632 Eu588 2.462 1_554 S
O632 C652 1.252 . S
O633 Eu588 2.373 . S
O633 C644 1.249 . S
O634 Eu599 2.335 1_556 S
O634 C644 1.264 . S
O635 Eu588 2.432 1_554 S
O635 C652 1.268 . S
O636 Eu588 2.291 . S
O636 C651 1.255 . S
O637 Eu599 2.372 1_556 S
O637 C651 1.257 . S
O638 Eu599 2.462 1_556 S
O638 C663 1.252 . S
O639 Eu599 2.373 . S
O639 C655 1.249 . S
O640 Eu588 2.335 1_554 S
O640 C655 1.264 . S
O641 Eu599 2.432 1_556 S
O641 C663 1.268 . S
O642 Eu599 2.291 . S
O642 C662 1.255 . S
O643 Eu588 2.372 1_554 S
O643 C662 1.257 . S
C644 O633 1.249 . S
C644 O634 1.264 . S
C645 C648 1.382 . S
C645 C650 1.390 . S
C645 C652 1.506 . S
C646 C647 1.398 . S
C646 C650 1.392 . S
C647 C646 1.398 . S
C647 C649 1.372 . S
C647 H664 0.931 . S
C648 C645 1.382 . S
C648 C649 1.390 . S
C648 H665 0.931 . S
C649 C647 1.372 . S
C649 C648 1.390 . S
C649 H666 0.929 . S
C650 C645 1.390 . S
C650 C646 1.392 . S
C650 H667 0.930 . S
C651 O636 1.255 . S
C651 O637 1.257 . S
C652 Eu588 2.787 1_554 S
C652 O632 1.252 . S
C652 O635 1.268 . S
C652 C645 1.506 . S
C653 C620 1.439 . S
C653 H630 0.931 . S
C653 C654 1.374 . S
C654 C625 1.387 . S
C654 H631 0.931 . S
C654 C653 1.374 . S
C655 O639 1.249 . S
C655 O640 1.264 . S
C656 C659 1.382 . S
C656 C660 1.390 . S
C656 C663 1.506 . S
C657 C658 1.398 . S
C657 C660 1.392 . S
C658 C657 1.398 . S
C658 C661 1.372 . S
C658 H668 0.931 . S
C659 C656 1.382 . S
C659 C661 1.390 . S
C659 H669 0.931 . S
C660 C656 1.390 . S
C660 C657 1.392 . S
C660 H670 0.930 . S
C661 C658 1.372 . S
C661 C659 1.390 . S
C661 H671 0.929 . S
C662 O642 1.255 . S
C662 O643 1.257 . S
C663 Eu599 2.787 1_556 S
C663 O638 1.252 . S
C663 O641 1.268 . S
C663 C656 1.506 . S
H664 C647 0.931 . S
H665 C648 0.931 . S
H666 C649 0.929 . S
H667 C650 0.930 . S
H668 C658 0.931 . S
H669 C659 0.931 . S
H670 C660 0.930 . S
H671 C661 0.929 . S
C672 C673 1.387 . S
C672 H676 0.950 . S
C672 C681 1.390 . S
C673 C672 1.387 . S
C673 C675 1.387 . S
H674 C681 0.950 . S
C675 C673 1.387 . S
C675 C677 1.390 . S
C675 H679 0.950 . S
H676 C672 0.950 . S
C677 C675 1.390 . S
C677 C678 1.387 . S
C677 H680 0.950 . S
C678 C677 1.387 . S
C678 C681 1.387 . S
H679 C675 0.950 . S
H680 C677 0.950 . S
C681 C672 1.390 . S
C681 H674 0.950 . S
C681 C678 1.387 . S
C682 C683 1.387 . S
C682 H686 0.950 . S
C682 C691 1.390 . S
C683 C682 1.387 . S
C683 C685 1.387 . S
H684 C691 0.950 . S
C685 C683 1.387 . S
C685 C687 1.390 . S
C685 H689 0.950 . S
H686 C682 0.950 . S
C687 C685 1.390 . S
C687 C688 1.387 . S
C687 H690 0.950 . S
C688 C687 1.387 . S
C688 C691 1.387 . S
H689 C685 0.950 . S
H690 C687 0.950 . S
C691 C682 1.390 . S
C691 H684 0.950 . S
C691 C688 1.387 . S
C692 C693 1.387 . S
C692 H696 0.950 . S
C692 C701 1.390 . S
C693 C692 1.387 . S
C693 C695 1.387 . S
H694 C701 0.950 . S
C695 C693 1.387 . S
C695 C697 1.390 . S
C695 H699 0.950 . S
H696 C692 0.950 . S
C697 C695 1.390 . S
C697 C698 1.387 . S
C697 H700 0.950 . S
C698 C697 1.387 . S
C698 C701 1.387 . S
H699 C695 0.950 . S
H700 C697 0.950 . S
C701 C692 1.390 . S
C701 H694 0.950 . S
C701 C698 1.387 . S
C702 C703 1.387 . S
C702 H706 0.950 . S
C702 C711 1.390 . S
C703 C702 1.387 . S
C703 C705 1.387 . S
H704 C711 0.950 . S
C705 C703 1.387 . S
C705 C707 1.390 . S
C705 H709 0.950 . S
H706 C702 0.950 . S
C707 C705 1.390 . S
C707 C708 1.387 . S
C707 H710 0.950 . S
C708 C707 1.387 . S
C708 C711 1.387 . S
H709 C705 0.950 . S
H710 C707 0.950 . S
C711 C702 1.390 . S
C711 H704 0.950 . S
C711 C708 1.387 . S
C712 C713 1.387 . S
C712 H716 0.950 . S
C712 C721 1.390 1_565 S
C713 C712 1.387 . S
C713 C715 1.387 . S
H714 C721 0.950 . S
C715 C713 1.387 . S
C715 C717 1.390 1_565 S
C715 H719 0.950 . S
H716 C712 0.950 . S
C717 C715 1.390 1_545 S
C717 C718 1.387 . S
C717 H720 0.950 . S
C718 C717 1.387 . S
C718 C721 1.387 . S
H719 C715 0.950 . S
H720 C717 0.950 . S
C721 C712 1.390 1_545 S
C721 H714 0.950 . S
C721 C718 1.387 . S
C722 C723 1.387 . S
C722 H726 0.950 . S
C722 C731 1.390 . S
C723 C722 1.387 . S
C723 C725 1.387 . S
H724 C731 0.950 . S
C725 C723 1.387 . S
C725 C727 1.390 . S
C725 H729 0.950 . S
H726 C722 0.950 . S
C727 C725 1.390 . S
C727 C728 1.387 . S
C727 H730 0.950 . S
C728 C727 1.387 . S
C728 C731 1.387 . S
H729 C725 0.950 . S
H730 C727 0.950 . S
C731 C722 1.390 . S
C731 H724 0.950 . S
C731 C728 1.387 . S
C732 C733 1.387 . S
C732 H736 0.950 . S
C732 C741 1.390 1_565 S
C733 C732 1.387 . S
C733 C735 1.387 . S
H734 C741 0.950 . S
C735 C733 1.387 . S
C735 C737 1.390 1_565 S
C735 H739 0.950 . S
H736 C732 0.950 . S
C737 C735 1.390 1_545 S
C737 C738 1.387 . S
C737 H740 0.950 . S
C738 C737 1.387 . S
C738 C741 1.387 . S
H739 C735 0.950 . S
H740 C737 0.950 . S
C741 C732 1.390 1_545 S
C741 H734 0.950 . S
C741 C738 1.387 . S
C742 C743 1.387 . S
C742 H746 0.950 . S
C742 C751 1.390 . S
C743 C742 1.387 . S
C743 C745 1.387 . S
H744 C751 0.950 . S
C745 C743 1.387 . S
C745 C747 1.390 . S
C745 H749 0.950 . S
H746 C742 0.950 . S
C747 C745 1.390 . S
C747 C748 1.387 . S
C747 H750 0.950 . S
C748 C747 1.387 . S
C748 C751 1.387 . S
H749 C745 0.950 . S
H750 C747 0.950 . S
C751 C742 1.390 . S
C751 H744 0.950 . S
C751 C748 1.387 . S
C752 C753 1.387 . S
C752 H756 0.950 . S
C752 C761 1.390 1_556 S
C753 C752 1.387 . S
C753 C755 1.387 . S
H754 C761 0.950 . S
C755 C753 1.387 . S
C755 C757 1.390 1_556 S
C755 H759 0.950 . S
H756 C752 0.950 . S
C757 C755 1.390 1_554 S
C757 C758 1.387 . S
C757 H760 0.950 . S
C758 C757 1.387 . S
C758 C761 1.387 . S
H759 C755 0.950 . S
H760 C757 0.950 . S
C761 C752 1.390 1_554 S
C761 H754 0.950 . S
C761 C758 1.387 . S
C762 C763 1.387 . S
C762 H766 0.950 . S
C762 C771 1.390 1_564 S
C763 C762 1.387 . S
C763 C765 1.387 . S
H764 C771 0.950 . S
C765 C763 1.387 . S
C765 C767 1.390 1_564 S
C765 H769 0.950 . S
H766 C762 0.950 . S
C767 C765 1.390 1_546 S
C767 C768 1.387 . S
C767 H770 0.950 . S
C768 C767 1.387 . S
C768 C771 1.387 . S
H769 C765 0.950 . S
H770 C767 0.950 . S
C771 C762 1.390 1_546 S
C771 H764 0.950 . S
C771 C768 1.387 . S
C772 C773 1.387 . S
C772 H776 0.950 . S
C772 C781 1.390 1_554 S
C773 C772 1.387 . S
C773 C775 1.387 . S
H774 C781 0.950 . S
C775 C773 1.387 . S
C775 C777 1.390 1_554 S
C775 H779 0.950 . S
H776 C772 0.950 . S
C777 C775 1.390 1_556 S
C777 C778 1.387 . S
C777 H780 0.950 . S
C778 C777 1.387 . S
C778 C781 1.387 . S
H779 C775 0.950 . S
H780 C777 0.950 . S
C781 C772 1.390 1_556 S
C781 H774 0.950 . S
C781 C778 1.387 . S
C782 C783 1.387 . S
C782 H786 0.950 . S
C782 C791 1.390 1_546 S
C783 C782 1.387 . S
C783 C785 1.387 . S
H784 C791 0.950 . S
C785 C783 1.387 . S
C785 C787 1.390 1_546 S
C785 H789 0.950 . S
H786 C782 0.950 . S
C787 C785 1.390 1_564 S
C787 C788 1.387 . S
C787 H790 0.950 . S
C788 C787 1.387 . S
C788 C791 1.387 . S
H789 C785 0.950 . S
H790 C787 0.950 . S
C791 C782 1.390 1_564 S
C791 H784 0.950 . S
C791 C788 1.387 . S
C792 C793 1.387 . S
C792 H796 0.950 . S
C792 C801 1.390 1_554 S
C793 C792 1.387 . S
C793 C795 1.387 1_554 S
H794 C801 0.950 . S
C795 C793 1.387 1_556 S
C795 C797 1.390 . S
C795 H799 0.950 1_556 S
H796 C792 0.950 . S
C797 C795 1.390 . S
C797 C798 1.387 . S
C797 H800 0.950 . S
C798 C797 1.387 . S
C798 C801 1.387 . S
H799 C795 0.950 1_554 S
H800 C797 0.950 . S
C801 C792 1.390 1_556 S
C801 H794 0.950 . S
C801 C798 1.387 . S
C802 C803 1.387 . S
C802 H806 0.950 . S
C802 C811 1.390 1_554 S
C803 C802 1.387 . S
C803 C805 1.387 1_554 S
H804 C811 0.950 . S
C805 C803 1.387 1_556 S
C805 C807 1.390 . S
C805 H809 0.950 1_556 S
H806 C802 0.950 . S
C807 C805 1.390 . S
C807 C808 1.387 . S
C807 H810 0.950 . S
C808 C807 1.387 . S
C808 C811 1.387 . S
H809 C805 0.950 1_554 S
H810 C807 0.950 . S
C811 C802 1.390 1_556 S
C811 H804 0.950 . S
C811 C808 1.387 . S
C812 C813 1.387 . S
C812 H816 0.950 . S
C812 C821 1.390 . S
C813 C812 1.387 . S
C813 C815 1.387 . S
H814 C821 0.950 1_556 S
C815 C813 1.387 . S
C815 C817 1.390 1_554 S
C815 H819 0.950 . S
H816 C812 0.950 . S
C817 C815 1.390 1_556 S
C817 C818 1.387 . S
C817 H820 0.950 . S
C818 C817 1.387 . S
C818 C821 1.387 1_556 S
H819 C815 0.950 . S
H820 C817 0.950 . S
C821 C812 1.390 . S
C821 H814 0.950 1_554 S
C821 C818 1.387 1_554 S
C822 C823 1.387 . S
C822 H826 0.950 . S
C822 C831 1.390 1_556 S
C823 C822 1.387 . S
C823 C825 1.387 1_556 S
H824 C831 0.950 . S
C825 C823 1.387 1_554 S
C825 C827 1.390 . S
C825 H829 0.950 . S
H826 C822 0.950 . S
C827 C825 1.390 . S
C827 C828 1.387 . S
C827 H830 0.950 . S
C828 C827 1.387 . S
C828 C831 1.387 . S
H829 C825 0.950 . S
H830 C827 0.950 . S
C831 C822 1.390 1_554 S
C831 H824 0.950 . S
C831 C828 1.387 . S
C832 C833 1.387 . S
C832 H836 0.950 . S
C832 C841 1.390 . S
C833 C832 1.387 . S
C833 C835 1.387 . S
H834 C841 0.950 . S
C835 C833 1.387 . S
C835 C837 1.390 . S
C835 H839 0.950 . S
H836 C832 0.950 . S
C837 C835 1.390 . S
C837 C838 1.387 . S
C837 H840 0.950 . S
C838 C837 1.387 . S
C838 C841 1.387 . S
H839 C835 0.950 . S
H840 C837 0.950 . S
C841 C832 1.390 . S
C841 H834 0.950 . S
C841 C838 1.387 . S
C842 C843 1.387 . S
C842 H846 0.950 . S
C842 C851 1.390 . S
C843 C842 1.387 . S
C843 C845 1.387 . S
H844 C851 0.950 . S
C845 C843 1.387 . S
C845 C847 1.390 . S
C845 H849 0.950 . S
H846 C842 0.950 . S
C847 C845 1.390 . S
C847 C848 1.387 . S
C847 H850 0.950 . S
C848 C847 1.387 . S
C848 C851 1.387 . S
H849 C845 0.950 . S
H850 C847 0.950 . S
C851 C842 1.390 . S
C851 H844 0.950 . S
C851 C848 1.387 . S
C852 C853 1.387 . S
C852 H856 0.950 . S
C852 C861 1.390 . S
C853 C852 1.387 . S
C853 C855 1.387 . S
H854 C861 0.950 . S
C855 C853 1.387 . S
C855 C857 1.390 . S
C855 H859 0.950 . S
H856 C852 0.950 . S
C857 C855 1.390 . S
C857 C858 1.387 . S
C857 H860 0.950 . S
C858 C857 1.387 . S
C858 C861 1.387 . S
H859 C855 0.950 . S
H860 C857 0.950 . S
C861 C852 1.390 . S
C861 H854 0.950 . S
C861 C858 1.387 . S
C862 C863 1.387 . S
C862 H866 0.950 . S
C862 C871 1.390 . S
C863 C862 1.387 . S
C863 C865 1.387 . S
H864 C871 0.950 . S
C865 C863 1.387 . S
C865 C867 1.390 . S
C865 H869 0.950 . S
H866 C862 0.950 . S
C867 C865 1.390 . S
C867 C868 1.387 . S
C867 H870 0.950 . S
C868 C867 1.387 . S
C868 C871 1.387 . S
H869 C865 0.950 . S
H870 C867 0.950 . S
C871 C862 1.390 . S
C871 H864 0.950 . S
C871 C868 1.387 . S
C872 C873 1.387 . S
C872 H876 0.950 . S
C872 C881 1.390 1_455 S
C873 C872 1.387 . S
C873 C875 1.387 . S
H874 C881 0.950 . S
C875 C873 1.387 . S
C875 C877 1.390 1_455 S
C875 H879 0.950 . S
H876 C872 0.950 . S
C877 C875 1.390 1_655 S
C877 C878 1.387 . S
C877 H880 0.950 . S
C878 C877 1.387 . S
C878 C881 1.387 . S
H879 C875 0.950 . S
H880 C877 0.950 . S
C881 C872 1.390 1_655 S
C881 H874 0.950 . S
C881 C878 1.387 . S
C882 C883 1.387 . S
C882 H886 0.950 . S
C882 C891 1.390 1_655 S
C883 C882 1.387 . S
C883 C885 1.387 . S
H884 C891 0.950 . S
C885 C883 1.387 . S
C885 C887 1.390 1_655 S
C885 H889 0.950 . S
H886 C882 0.950 . S
C887 C885 1.390 1_455 S
C887 C888 1.387 . S
C887 H890 0.950 . S
C888 C887 1.387 . S
C888 C891 1.387 . S
H889 C885 0.950 . S
H890 C887 0.950 . S
C891 C882 1.390 1_455 S
C891 H884 0.950 . S
C891 C888 1.387 . S
C892 C893 1.387 . S
C892 H896 0.950 . S
C892 C901 1.390 . S
C893 C892 1.387 . S
C893 C895 1.387 . S
H894 C901 0.950 . S
C895 C893 1.387 . S
C895 C897 1.390 . S
C895 H899 0.950 . S
H896 C892 0.950 . S
C897 C895 1.390 . S
C897 C898 1.387 . S
C897 H900 0.950 . S
C898 C897 1.387 . S
C898 C901 1.387 . S
H899 C895 0.950 . S
H900 C897 0.950 . S
C901 C892 1.390 . S
C901 H894 0.950 . S
C901 C898 1.387 . S
C902 C903 1.387 . S
C902 H906 0.950 . S
C902 C911 1.390 . S
C903 C902 1.387 . S
C903 C905 1.387 . S
H904 C911 0.950 . S
C905 C903 1.387 . S
C905 C907 1.390 . S
C905 H909 0.950 . S
H906 C902 0.950 . S
C907 C905 1.390 . S
C907 C908 1.387 . S
C907 H910 0.950 . S
C908 C907 1.387 . S
C908 C911 1.387 . S
H909 C905 0.950 . S
H910 C907 0.950 . S
C911 C902 1.390 . S
C911 H904 0.950 . S
C911 C908 1.387 . S
C673 C58 1.524 . S
C678 C657 1.523 . S
C683 C562 1.524 . S
C688 C153 1.524 . S
C693 C489 1.530 . S
C698 C226 1.529 . S
C703 C394 1.523 . S
C708 C321 1.523 . S
C713 C231 2.331 . S
C718 C63 2.331 . S
C723 C147 0.779 . S
C728 C315 0.779 . S
C733 C326 2.331 . S
C738 C158 2.331 . S
C743 C242 0.779 . S
C748 C74 0.779 . S
C753 C399 2.323 . S
C758 C567 2.322 . S
C763 C483 0.753 . S
C768 C651 0.754 . S
C773 C662 2.323 . S
C778 C494 2.323 . S
C783 C578 0.753 . S
C788 C410 0.754 . S
C793 C56 1.802 . S
C798 C67 1.802 . S
C803 C151 1.800 . S
C808 C140 1.800 . S
C813 C235 1.800 . S
C818 C224 1.800 . S
C823 C319 1.800 . S
C828 C308 1.800 . S
C833 C403 1.800 . S
C838 C392 1.800 . S
C843 C487 1.801 . S
C848 C476 1.801 . S
C853 C560 1.800 . S
C858 C571 1.800 . S
C863 C655 1.802 . S
C868 C644 1.802 . S
C873 C69 1.955 . S
C878 C142 1.951 . S
C883 C310 1.951 . S
C888 C237 1.955 . S
C893 C405 1.955 . S
C898 C478 1.952 . S
C903 C646 1.953 . S
C908 C573 1.956 . S
