# Generated by pormake.
# Topology unl, (4)-cn, num edge types: 1
# Building blocks:
#     Node 0, Type 0, BuildingBlock: QUQFOY_clean_sbu_1, # of connection points: 4
#     Node 1, Type 0, BuildingBlock: QUQFOY_clean_sbu_1, # of connection points: 4
#     Node 2, Type 0, BuildingBlock: QUQFOY_clean_sbu_1, # of connection points: 4
#     Node 3, Type 0, BuildingBlock: QUQFOY_clean_sbu_1, # of connection points: 4
#     Node 4, Type 0, BuildingBlock: QUQFOY_clean_sbu_1, # of connection points: 4
#     Node 5, Type 0, BuildingBlock: QUQFOY_clean_sbu_1, # of connection points: 4
#     Node 6, Type 0, BuildingBlock: QUQFOY_clean_sbu_1, # of connection points: 4
#     Node 7, Type 0, BuildingBlock: QUQFOY_clean_sbu_1, # of connection points: 4
#     Node 8, Type 0, BuildingBlock: QUQFOY_clean_sbu_1, # of connection points: 4
#     Node 9, Type 0, BuildingBlock: QUQFOY_clean_sbu_1, # of connection points: 4
#     Node 10, Type 0, BuildingBlock: QUQFOY_clean_sbu_1, # of connection points: 4
#     Node 11, Type 0, BuildingBlock: QUQFOY_clean_sbu_1, # of connection points: 4
#     Node 12, Type 0, BuildingBlock: QUQFOY_clean_sbu_1, # of connection points: 4
#     Node 13, Type 0, BuildingBlock: QUQFOY_clean_sbu_1, # of connection points: 4
#     Node 14, Type 0, BuildingBlock: QUQFOY_clean_sbu_1, # of connection points: 4
#     Node 15, Type 0, BuildingBlock: QUQFOY_clean_sbu_1, # of connection points: 4
#     Node 16, Type 0, BuildingBlock: QUQFOY_clean_sbu_1, # of connection points: 4
#     Node 17, Type 0, BuildingBlock: QUQFOY_clean_sbu_1, # of connection points: 4
#     Node 18, Type 0, BuildingBlock: QUQFOY_clean_sbu_1, # of connection points: 4
#     Node 19, Type 0, BuildingBlock: QUQFOY_clean_sbu_1, # of connection points: 4
#     Node 20, Type 0, BuildingBlock: QUQFOY_clean_sbu_1, # of connection points: 4
#     Node 21, Type 0, BuildingBlock: QUQFOY_clean_sbu_1, # of connection points: 4
#     Node 22, Type 0, BuildingBlock: QUQFOY_clean_sbu_1, # of connection points: 4
#     Node 23, Type 0, BuildingBlock: QUQFOY_clean_sbu_1, # of connection points: 4
#     Node 24, Type 0, BuildingBlock: QUQFOY_clean_sbu_1, # of connection points: 4
#     Node 25, Type 0, BuildingBlock: QUQFOY_clean_sbu_1, # of connection points: 4
#     Node 26, Type 0, BuildingBlock: QUQFOY_clean_sbu_1, # of connection points: 4
#     Node 27, Type 0, BuildingBlock: QUQFOY_clean_sbu_1, # of connection points: 4
#     Node 28, Type 0, BuildingBlock: QUQFOY_clean_sbu_1, # of connection points: 4
#     Node 29, Type 0, BuildingBlock: QUQFOY_clean_sbu_1, # of connection points: 4
#     Node 30, Type 0, BuildingBlock: QUQFOY_clean_sbu_1, # of connection points: 4
#     Node 31, Type 0, BuildingBlock: QUQFOY_clean_sbu_1, # of connection points: 4
#     Node 32, Type 0, BuildingBlock: QUQFOY_clean_sbu_1, # of connection points: 4
#     Node 33, Type 0, BuildingBlock: QUQFOY_clean_sbu_1, # of connection points: 4
#     Node 34, Type 0, BuildingBlock: QUQFOY_clean_sbu_1, # of connection points: 4
#     Node 35, Type 0, BuildingBlock: QUQFOY_clean_sbu_1, # of connection points: 4
#     Edge 36, Type (0, 0), BuildingBlock: KIFKEQ_clean_linker_1, # of connection points: 2
#     Edge 37, Type (0, 0), BuildingBlock: KIFKEQ_clean_linker_1, # of connection points: 2
#     Edge 38, Type (0, 0), BuildingBlock: KIFKEQ_clean_linker_1, # of connection points: 2
#     Edge 39, Type (0, 0), BuildingBlock: KIFKEQ_clean_linker_1, # of connection points: 2
#     Edge 40, Type (0, 0), BuildingBlock: KIFKEQ_clean_linker_1, # of connection points: 2
#     Edge 41, Type (0, 0), BuildingBlock: KIFKEQ_clean_linker_1, # of connection points: 2
#     Edge 42, Type (0, 0), BuildingBlock: KIFKEQ_clean_linker_1, # of connection points: 2
#     Edge 43, Type (0, 0), BuildingBlock: KIFKEQ_clean_linker_1, # of connection points: 2
#     Edge 44, Type (0, 0), BuildingBlock: KIFKEQ_clean_linker_1, # of connection points: 2
#     Edge 45, Type (0, 0), BuildingBlock: KIFKEQ_clean_linker_1, # of connection points: 2
#     Edge 46, Type (0, 0), BuildingBlock: KIFKEQ_clean_linker_1, # of connection points: 2
#     Edge 47, Type (0, 0), BuildingBlock: KIFKEQ_clean_linker_1, # of connection points: 2
#     Edge 48, Type (0, 0), BuildingBlock: KIFKEQ_clean_linker_1, # of connection points: 2
#     Edge 49, Type (0, 0), BuildingBlock: KIFKEQ_clean_linker_1, # of connection points: 2
#     Edge 50, Type (0, 0), BuildingBlock: KIFKEQ_clean_linker_1, # of connection points: 2
#     Edge 51, Type (0, 0), BuildingBlock: KIFKEQ_clean_linker_1, # of connection points: 2
#     Edge 52, Type (0, 0), BuildingBlock: KIFKEQ_clean_linker_1, # of connection points: 2
#     Edge 53, Type (0, 0), BuildingBlock: KIFKEQ_clean_linker_1, # of connection points: 2
#     Edge 54, Type (0, 0), BuildingBlock: KIFKEQ_clean_linker_1, # of connection points: 2
#     Edge 55, Type (0, 0), BuildingBlock: KIFKEQ_clean_linker_1, # of connection points: 2
#     Edge 56, Type (0, 0), BuildingBlock: KIFKEQ_clean_linker_1, # of connection points: 2
#     Edge 57, Type (0, 0), BuildingBlock: KIFKEQ_clean_linker_1, # of connection points: 2
#     Edge 58, Type (0, 0), BuildingBlock: KIFKEQ_clean_linker_1, # of connection points: 2
#     Edge 59, Type (0, 0), BuildingBlock: KIFKEQ_clean_linker_1, # of connection points: 2
#     Edge 60, Type (0, 0), BuildingBlock: KIFKEQ_clean_linker_1, # of connection points: 2
#     Edge 61, Type (0, 0), BuildingBlock: KIFKEQ_clean_linker_1, # of connection points: 2
#     Edge 62, Type (0, 0), BuildingBlock: KIFKEQ_clean_linker_1, # of connection points: 2
#     Edge 63, Type (0, 0), BuildingBlock: KIFKEQ_clean_linker_1, # of connection points: 2
#     Edge 64, Type (0, 0), BuildingBlock: KIFKEQ_clean_linker_1, # of connection points: 2
#     Edge 65, Type (0, 0), BuildingBlock: KIFKEQ_clean_linker_1, # of connection points: 2
#     Edge 66, Type (0, 0), BuildingBlock: KIFKEQ_clean_linker_1, # of connection points: 2
#     Edge 67, Type (0, 0), BuildingBlock: KIFKEQ_clean_linker_1, # of connection points: 2
#     Edge 68, Type (0, 0), BuildingBlock: KIFKEQ_clean_linker_1, # of connection points: 2
#     Edge 69, Type (0, 0), BuildingBlock: KIFKEQ_clean_linker_1, # of connection points: 2
#     Edge 70, Type (0, 0), BuildingBlock: KIFKEQ_clean_linker_1, # of connection points: 2
#     Edge 71, Type (0, 0), BuildingBlock: KIFKEQ_clean_linker_1, # of connection points: 2
#     Edge 72, Type (0, 0), BuildingBlock: KIFKEQ_clean_linker_1, # of connection points: 2
#     Edge 73, Type (0, 0), BuildingBlock: KIFKEQ_clean_linker_1, # of connection points: 2
#     Edge 74, Type (0, 0), BuildingBlock: KIFKEQ_clean_linker_1, # of connection points: 2
#     Edge 75, Type (0, 0), BuildingBlock: KIFKEQ_clean_linker_1, # of connection points: 2
#     Edge 76, Type (0, 0), BuildingBlock: KIFKEQ_clean_linker_1, # of connection points: 2
#     Edge 77, Type (0, 0), BuildingBlock: KIFKEQ_clean_linker_1, # of connection points: 2
#     Edge 78, Type (0, 0), BuildingBlock: KIFKEQ_clean_linker_1, # of connection points: 2
#     Edge 79, Type (0, 0), BuildingBlock: KIFKEQ_clean_linker_1, # of connection points: 2
#     Edge 80, Type (0, 0), BuildingBlock: KIFKEQ_clean_linker_1, # of connection points: 2
#     Edge 81, Type (0, 0), BuildingBlock: KIFKEQ_clean_linker_1, # of connection points: 2
#     Edge 82, Type (0, 0), BuildingBlock: KIFKEQ_clean_linker_1, # of connection points: 2
#     Edge 83, Type (0, 0), BuildingBlock: KIFKEQ_clean_linker_1, # of connection points: 2
#     Edge 84, Type (0, 0), BuildingBlock: KIFKEQ_clean_linker_1, # of connection points: 2
#     Edge 85, Type (0, 0), BuildingBlock: KIFKEQ_clean_linker_1, # of connection points: 2
#     Edge 86, Type (0, 0), BuildingBlock: KIFKEQ_clean_linker_1, # of connection points: 2
#     Edge 87, Type (0, 0), BuildingBlock: KIFKEQ_clean_linker_1, # of connection points: 2
#     Edge 88, Type (0, 0), BuildingBlock: KIFKEQ_clean_linker_1, # of connection points: 2
#     Edge 89, Type (0, 0), BuildingBlock: KIFKEQ_clean_linker_1, # of connection points: 2
#     Edge 90, Type (0, 0), BuildingBlock: KIFKEQ_clean_linker_1, # of connection points: 2
#     Edge 91, Type (0, 0), BuildingBlock: KIFKEQ_clean_linker_1, # of connection points: 2
#     Edge 92, Type (0, 0), BuildingBlock: KIFKEQ_clean_linker_1, # of connection points: 2
#     Edge 93, Type (0, 0), BuildingBlock: KIFKEQ_clean_linker_1, # of connection points: 2
#     Edge 94, Type (0, 0), BuildingBlock: KIFKEQ_clean_linker_1, # of connection points: 2
#     Edge 95, Type (0, 0), BuildingBlock: KIFKEQ_clean_linker_1, # of connection points: 2
#     Edge 96, Type (0, 0), BuildingBlock: KIFKEQ_clean_linker_1, # of connection points: 2
#     Edge 97, Type (0, 0), BuildingBlock: KIFKEQ_clean_linker_1, # of connection points: 2
#     Edge 98, Type (0, 0), BuildingBlock: KIFKEQ_clean_linker_1, # of connection points: 2
#     Edge 99, Type (0, 0), BuildingBlock: KIFKEQ_clean_linker_1, # of connection points: 2
#     Edge 100, Type (0, 0), BuildingBlock: KIFKEQ_clean_linker_1, # of connection points: 2
#     Edge 101, Type (0, 0), BuildingBlock: KIFKEQ_clean_linker_1, # of connection points: 2
#     Edge 102, Type (0, 0), BuildingBlock: KIFKEQ_clean_linker_1, # of connection points: 2
#     Edge 103, Type (0, 0), BuildingBlock: KIFKEQ_clean_linker_1, # of connection points: 2
#     Edge 104, Type (0, 0), BuildingBlock: KIFKEQ_clean_linker_1, # of connection points: 2
#     Edge 105, Type (0, 0), BuildingBlock: KIFKEQ_clean_linker_1, # of connection points: 2
#     Edge 106, Type (0, 0), BuildingBlock: KIFKEQ_clean_linker_1, # of connection points: 2
#     Edge 107, Type (0, 0), BuildingBlock: KIFKEQ_clean_linker_1, # of connection points: 2
# Relax obj value: 0.015
# Max RMSD: 0.070
# Mean RMSD: 0.070
data_MOF--net-unl--node1-QUQFOY_clean_sbu_1--edge1-KIFKEQ_clean_linker_1
_symmetry_space_group_name_H-M    P1
_symmetry_Int_Tables_number       1
_symmetry_cell_setting            triclinic
loop_
_symmetry_equiv_pos_as_xyz
'x, y, z'
_cell_length_a     69.973166
_cell_length_b     69.94744
_cell_length_c     41.359128
_cell_angle_alpha  89.95579
_cell_angle_beta   90.026307
_cell_angle_gamma 120.05302
loop_
_atom_site_label
_atom_site_type_symbol
_atom_site_fract_x
_atom_site_fract_y
_atom_site_fract_z
_atom_type_partial_charge
O0 O 0.22784 0.16469 0.15504 0.0
Cd1 Cd 0.24477 0.16351 0.11504 0.0
Cd2 Cd 0.20709 0.12315 0.10956 0.0
O3 O 0.19892 0.13098 0.1538 0.0
O4 O 0.27627 0.18566 0.12469 0.0
O5 O 0.26405 0.14986 0.12028 0.0
C6 C 0.28008 0.16947 0.12689 0.0
C7 C 0.19962 0.08726 0.09749 0.0
C8 C 0.20979 0.1498 0.16723 0.0
C9 C 0.21677 0.15809 0.05789 0.0
O10 O 0.20378 0.13934 0.07032 0.0
O11 O 0.23548 0.17073 0.07083 0.0
O12 O 0.18409 0.09191 0.10067 0.0
O13 O 0.21962 0.10284 0.10294 0.0
O14 O 0.86246 0.06887 0.14363 0.0
Cd15 Cd 0.8674 0.08962 0.10531 0.0
Cd16 Cd 0.90694 0.09251 0.10568 0.0
O17 O 0.89702 0.07712 0.15045 0.0
O18 O 0.84705 0.10163 0.11175 0.0
O19 O 0.88344 0.12213 0.11517 0.0
C20 C 0.86426 0.12048 0.11811 0.0
C21 C 0.94275 0.12175 0.09524 0.0
C22 C 0.87694 0.06694 0.15958 0.0
C23 C 0.87539 0.06788 0.05032 0.0
O24 O 0.8927 0.07228 0.06617 0.0
O25 O 0.863 0.07521 0.05997 0.0
O26 O 0.93883 0.10193 0.10039 0.0
O27 O 0.92645 0.12538 0.09804 0.0
O28 O 0.9647 0.80203 0.14471 0.0
Cd29 Cd 0.94361 0.78588 0.10684 0.0
Cd30 Cd 0.94102 0.82276 0.10655 0.0
O31 O 0.95682 0.82865 0.15097 0.0
O32 O 0.93137 0.75349 0.11396 0.0
O33 O 0.91115 0.76966 0.11708 0.0
C34 C 0.91262 0.75204 0.1203 0.0
C35 C 0.91213 0.82985 0.09653 0.0
C36 C 0.96693 0.81871 0.16024 0.0
C37 C 0.96492 0.815 0.05099 0.0
O38 O 0.96074 0.82813 0.06659 0.0
O39 O 0.95765 0.79537 0.06117 0.0
O40 O 0.93213 0.84559 0.10097 0.0
O41 O 0.90816 0.80982 0.09978 0.0
O42 O 0.1708 0.22296 0.36362 0.0
Cd43 Cd 0.16794 0.23897 0.40352 0.0
Cd44 Cd 0.12795 0.20247 0.40661 0.0
O45 O 0.13627 0.19564 0.36172 0.0
O46 O 0.18897 0.27122 0.39662 0.0
O47 O 0.15264 0.25646 0.39632 0.0
C48 C 0.17199 0.27358 0.3922 0.0
C49 C 0.09319 0.19815 0.41796 0.0
C50 C 0.15563 0.20582 0.34982 0.0
C51 C 0.16076 0.2093 0.45942 0.0
O52 O 0.14255 0.19644 0.44548 0.0
O53 O 0.17339 0.22859 0.44814 0.0
O54 O 0.09567 0.18142 0.41213 0.0
O55 O 0.11036 0.21762 0.41575 0.0
O56 O 0.80719 0.95797 0.3638 0.0
Cd57 Cd 0.79155 0.93682 0.40182 0.0
Cd58 Cd 0.82806 0.93395 0.4007 0.0
O59 O 0.83289 0.94904 0.35581 0.0
O60 O 0.75906 0.92454 0.39575 0.0
O61 O 0.77528 0.90443 0.3912 0.0
C62 C 0.75761 0.90587 0.38875 0.0
C63 C 0.83351 0.90404 0.41076 0.0
C64 C 0.82326 0.95959 0.34729 0.0
C65 C 0.82176 0.95825 0.45668 0.0
O66 O 0.83478 0.95436 0.4402 0.0
O67 O 0.80188 0.95063 0.44747 0.0
O68 O 0.84978 0.92341 0.40417 0.0
O69 O 0.81382 0.90125 0.40976 0.0
O70 O 0.07529 0.85775 0.36455 0.0
Cd71 Cd 0.09529 0.86187 0.40349 0.0
Cd72 Cd 0.0986 0.90178 0.40302 0.0
O73 O 0.08382 0.89238 0.35784 0.0
O74 O 0.10498 0.83973 0.39637 0.0
O75 O 0.12803 0.87582 0.39577 0.0
C76 C 0.12468 0.85605 0.39163 0.0
C77 C 0.1284 0.93717 0.4136 0.0
C78 C 0.07365 0.87236 0.34851 0.0
C79 C 0.0732 0.87013 0.45793 0.0
O80 O 0.0779 0.88758 0.44218 0.0
O81 O 0.08036 0.85755 0.44837 0.0
O82 O 0.10899 0.93398 0.40725 0.0
O83 O 0.13129 0.92033 0.41227 0.0
O84 O 0.80579 0.85585 0.86513 0.0
Cd85 Cd 0.78911 0.85903 0.90359 0.0
Cd86 Cd 0.82609 0.89932 0.90665 0.0
O87 O 0.83342 0.89014 0.86251 0.0
O88 O 0.75743 0.83698 0.89488 0.0
O89 O 0.77032 0.87302 0.89622 0.0
C90 C 0.754 0.85333 0.89097 0.0
C91 C 0.83173 0.9349 0.91545 0.0
C92 C 0.82323 0.87055 0.85138 0.0
C93 C 0.81745 0.86643 0.96086 0.0
O94 O 0.83046 0.88487 0.94756 0.0
O95 O 0.79875 0.85334 0.94829 0.0
O96 O 0.84801 0.93143 0.91151 0.0
O97 O 0.81197 0.9182 0.9129 0.0
O98 O 0.177 0.95673 0.86585 0.0
Cd99 Cd 0.17219 0.93601 0.90396 0.0
Cd100 Cd 0.13227 0.93287 0.90511 0.0
O101 O 0.1426 0.94945 0.86105 0.0
O102 O 0.19266 0.92415 0.89747 0.0
O103 O 0.15627 0.90347 0.89437 0.0
C104 C 0.17548 0.90521 0.8914 0.0
C105 C 0.09664 0.90282 0.91328 0.0
C106 C 0.1625 0.95926 0.85106 0.0
C107 C 0.16375 0.95652 0.96071 0.0
O108 O 0.14584 0.95167 0.94624 0.0
O109 O 0.17677 0.95052 0.94913 0.0
O110 O 0.10004 0.92249 0.90857 0.0
O111 O 0.11342 0.89987 0.9116 0.0
O112 O 0.0774 0.2265 0.86199 0.0
Cd113 Cd 0.09615 0.24331 0.90139 0.0
Cd114 Cd 0.09955 0.20663 0.90818 0.0
O115 O 0.08273 0.19798 0.86431 0.0
O116 O 0.1076 0.27544 0.8929 0.0
O117 O 0.129 0.26051 0.89446 0.0
C118 C 0.12691 0.27761 0.88918 0.0
C119 C 0.13002 0.20212 0.91823 0.0
C120 C 0.07432 0.20832 0.85052 0.0
C121 C 0.07461 0.21579 0.95994 0.0
O122 O 0.08066 0.20278 0.94854 0.0
O123 O 0.07986 0.23393 0.9457 0.0
O124 O 0.11047 0.18541 0.91452 0.0
O125 O 0.1326 0.22162 0.91474 0.0
O126 O 0.8637 0.80287 0.64691 0.0
Cd127 Cd 0.86799 0.78685 0.60831 0.0
Cd128 Cd 0.90768 0.82342 0.60872 0.0
O129 O 0.8983 0.82903 0.65374 0.0
O130 O 0.84611 0.7549 0.61569 0.0
O131 O 0.88225 0.76839 0.61635 0.0
C132 C 0.86258 0.75178 0.62051 0.0
C133 C 0.9428 0.82834 0.59846 0.0
C134 C 0.87825 0.81921 0.6629 0.0
C135 C 0.87627 0.81704 0.55352 0.0
O136 O 0.89365 0.82991 0.56933 0.0
O137 O 0.86376 0.79729 0.56318 0.0
O138 O 0.93997 0.84483 0.60454 0.0
O139 O 0.92573 0.80874 0.59987 0.0
O140 O 0.23113 0.06868 0.64728 0.0
Cd141 Cd 0.24657 0.08964 0.60902 0.0
Cd142 Cd 0.21012 0.09251 0.61045 0.0
O143 O 0.20547 0.07763 0.6555 0.0
O144 O 0.27907 0.10175 0.61472 0.0
O145 O 0.2631 0.12209 0.61927 0.0
C146 C 0.2807 0.12052 0.62158 0.0
C147 C 0.20511 0.1227 0.60025 0.0
C148 C 0.21514 0.0671 0.66396 0.0
C149 C 0.21597 0.0678 0.55467 0.0
O150 O 0.20305 0.07182 0.57119 0.0
O151 O 0.23592 0.07551 0.56362 0.0
O152 O 0.18871 0.10346 0.60717 0.0
O153 O 0.22469 0.12519 0.60093 0.0
O154 O 0.9594 0.1641 0.65733 0.0
Cd155 Cd 0.94109 0.16199 0.61706 0.0
Cd156 Cd 0.9381 0.12181 0.61365 0.0
O157 O 0.95342 0.13 0.65844 0.0
O158 O 0.9318 0.18435 0.62512 0.0
O159 O 0.90817 0.14845 0.62254 0.0
C160 C 0.9118 0.1682 0.628 0.0
C161 C 0.90836 0.08661 0.60197 0.0
C162 C 0.96196 0.14919 0.67078 0.0
C163 C 0.9639 0.15539 0.56116 0.0
O164 O 0.95843 0.13703 0.57471 0.0
O165 O 0.9574 0.16803 0.57282 0.0
O166 O 0.92789 0.08981 0.60737 0.0
O167 O 0.90534 0.10329 0.60485 0.0
O168 O 0.89696 0.49928 0.48299 0.0
Cd169 Cd 0.91307 0.49711 0.44292 0.0
Cd170 Cd 0.87552 0.45729 0.43683 0.0
O171 O 0.86778 0.46578 0.48113 0.0
O172 O 0.94521 0.51796 0.45068 0.0
O173 O 0.93054 0.48164 0.44895 0.0
C174 C 0.94759 0.50091 0.45397 0.0
C175 C 0.86967 0.42182 0.42647 0.0
C176 C 0.87877 0.48448 0.49491 0.0
C177 C 0.88522 0.49172 0.38509 0.0
O178 O 0.87198 0.47274 0.39666 0.0
O179 O 0.90354 0.50434 0.39902 0.0
O180 O 0.85344 0.42538 0.43039 0.0
O181 O 0.88945 0.43831 0.42998 0.0
O182 O 0.53174 0.40458 0.48308 0.0
Cd183 Cd 0.53521 0.42377 0.44327 0.0
Cd184 Cd 0.57522 0.42742 0.44121 0.0
O185 O 0.56626 0.41185 0.48579 0.0
O186 O 0.51446 0.43536 0.44951 0.0
O187 O 0.55085 0.45651 0.45106 0.0
C188 C 0.53157 0.45454 0.45456 0.0
C189 C 0.61009 0.45814 0.43112 0.0
C190 C 0.54676 0.40253 0.4972 0.0
C191 C 0.54306 0.40163 0.38762 0.0
O192 O 0.56114 0.40702 0.40196 0.0
O193 O 0.53029 0.40819 0.39856 0.0
O194 O 0.6076 0.43889 0.43669 0.0
O195 O 0.59282 0.46028 0.43278 0.0
O196 O 0.63072 0.13419 0.47774 0.0
Cd197 Cd 0.61049 0.11769 0.43926 0.0
Cd198 Cd 0.60779 0.15494 0.43806 0.0
O199 O 0.62346 0.1613 0.48263 0.0
O200 O 0.60035 0.0859 0.44797 0.0
O201 O 0.57773 0.0994 0.44732 0.0
C202 C 0.58077 0.08288 0.45246 0.0
C203 C 0.57936 0.16268 0.42768 0.0
C204 C 0.63309 0.15109 0.49273 0.0
C205 C 0.63214 0.14662 0.38331 0.0
O206 O 0.62743 0.15963 0.39819 0.0
O207 O 0.62531 0.1272 0.39409 0.0
O208 O 0.59952 0.17815 0.43166 0.0
O209 O 0.57496 0.14253 0.43142 0.0
O210 O 0.83991 0.55843 0.69019 0.0
Cd211 Cd 0.83766 0.57487 0.72984 0.0
Cd212 Cd 0.79768 0.53728 0.73619 0.0
O213 O 0.80637 0.52932 0.69226 0.0
O214 O 0.85837 0.60705 0.72183 0.0
O215 O 0.82204 0.59213 0.72311 0.0
C216 C 0.84126 0.60927 0.71818 0.0
C217 C 0.76187 0.53061 0.74608 0.0
C218 C 0.82509 0.54015 0.67851 0.0
C219 C 0.83197 0.54739 0.78831 0.0
O220 O 0.81303 0.53412 0.77674 0.0
O221 O 0.84471 0.56559 0.77412 0.0
O222 O 0.76593 0.51469 0.74256 0.0
O223 O 0.77806 0.55056 0.74242 0.0
O224 O 0.47438 0.28885 0.69238 0.0
Cd225 Cd 0.45821 0.27036 0.73255 0.0
Cd226 Cd 0.49534 0.26724 0.73591 0.0
O227 O 0.5025 0.28287 0.69141 0.0
O228 O 0.42648 0.26075 0.72442 0.0
O229 O 0.43909 0.23742 0.72671 0.0
C230 C 0.42285 0.24085 0.72124 0.0
C231 C 0.50121 0.23768 0.74671 0.0
C232 C 0.49189 0.29144 0.67905 0.0
C233 C 0.48761 0.2928 0.78876 0.0
O234 O 0.50043 0.28727 0.77521 0.0
O235 O 0.46853 0.28651 0.77696 0.0
O236 O 0.51739 0.25736 0.74166 0.0
O237 O 0.4814 0.23442 0.74408 0.0
O238 O 0.74026 0.18972 0.69881 0.0
Cd239 Cd 0.76121 0.19519 0.73705 0.0
Cd240 Cd 0.76478 0.23486 0.73522 0.0
O241 O 0.74959 0.22445 0.69048 0.0
O242 O 0.77301 0.17454 0.73171 0.0
O243 O 0.79363 0.21084 0.72673 0.0
C244 C 0.79187 0.19157 0.72473 0.0
C245 C 0.79527 0.2701 0.74399 0.0
C246 C 0.73887 0.20424 0.6821 0.0
C247 C 0.74014 0.20479 0.79159 0.0
O248 O 0.74441 0.2218 0.77498 0.0
O249 O 0.74736 0.19218 0.78253 0.0
O250 O 0.776 0.26732 0.73764 0.0
O251 O 0.79757 0.2529 0.74373 0.0
O252 O 0.47214 0.18964 0.20026 0.0
Cd253 Cd 0.45611 0.19396 0.23858 0.0
Cd254 Cd 0.49303 0.23379 0.2408 0.0
O255 O 0.49942 0.22406 0.19636 0.0
O256 O 0.42381 0.17345 0.23153 0.0
O257 O 0.43942 0.20987 0.22955 0.0
C258 C 0.42201 0.19065 0.22597 0.0
C259 C 0.49867 0.26933 0.25006 0.0
C260 C 0.48928 0.20429 0.18582 0.0
C261 C 0.48487 0.20145 0.29532 0.0
O262 O 0.49805 0.21957 0.28138 0.0
O263 O 0.46584 0.18867 0.28348 0.0
O264 O 0.51495 0.26599 0.24514 0.0
O265 O 0.47892 0.25257 0.24802 0.0
O266 O 0.84087 0.28967 0.1933 0.0
Cd267 Cd 0.83665 0.26944 0.232 0.0
Cd268 Cd 0.79674 0.26558 0.23116 0.0
O269 O 0.80612 0.28053 0.18606 0.0
O270 O 0.85868 0.25959 0.22495 0.0
O271 O 0.82257 0.23676 0.22382 0.0
C272 C 0.8423 0.23997 0.21987 0.0
C273 C 0.76188 0.23494 0.24165 0.0
C274 C 0.82621 0.2911 0.17706 0.0
C275 C 0.82784 0.29114 0.28636 0.0
O276 O 0.81048 0.28637 0.27034 0.0
O277 O 0.84054 0.28408 0.27705 0.0
O278 O 0.76432 0.25407 0.23515 0.0
O279 O 0.77918 0.23283 0.24051 0.0
O280 O 0.7417 0.55961 0.19738 0.0
Cd281 Cd 0.76197 0.57642 0.2357 0.0
Cd282 Cd 0.76502 0.53941 0.2373 0.0
O283 O 0.74927 0.53269 0.19272 0.0
O284 O 0.77209 0.60819 0.22683 0.0
O285 O 0.79473 0.59471 0.22764 0.0
C286 C 0.79169 0.61124 0.22247 0.0
C287 C 0.79359 0.532 0.2485 0.0
C288 C 0.73941 0.54267 0.18257 0.0
C289 C 0.74045 0.54763 0.29177 0.0
O290 O 0.74524 0.53465 0.27697 0.0
O291 O 0.74721 0.56702 0.28092 0.0
O292 O 0.77353 0.51641 0.24411 0.0
O293 O 0.79784 0.55208 0.24455 0.0
O294 O 0.5308 0.13673 0.98183 0.0
Cd295 Cd 0.53638 0.12125 0.94375 0.0
Cd296 Cd 0.5756 0.15799 0.94502 0.0
O297 O 0.56534 0.16274 0.98993 0.0
O298 O 0.51593 0.08878 0.94963 0.0
O299 O 0.55226 0.10471 0.95402 0.0
C300 C 0.53306 0.08712 0.95639 0.0
C301 C 0.61094 0.16345 0.93487 0.0
C302 C 0.54513 0.15288 0.99838 0.0
C303 C 0.54488 0.15149 0.88906 0.0
O304 O 0.56178 0.1646 0.90554 0.0
O305 O 0.53274 0.13156 0.89821 0.0
O306 O 0.60788 0.17973 0.94141 0.0
O307 O 0.59402 0.14375 0.93598 0.0
O308 O 0.8967 0.40154 0.97483 0.0
Cd309 Cd 0.91298 0.42278 0.93717 0.0
Cd310 Cd 0.87622 0.42544 0.93686 0.0
O311 O 0.87017 0.40951 0.98128 0.0
O312 O 0.94531 0.43488 0.94452 0.0
O313 O 0.92924 0.4552 0.94764 0.0
C314 C 0.94679 0.45364 0.95097 0.0
C315 C 0.86957 0.4546 0.92647 0.0
C316 C 0.88003 0.39929 0.9904 0.0
C317 C 0.88399 0.40162 0.88126 0.0
O318 O 0.87083 0.40573 0.89692 0.0
O319 O 0.90361 0.4089 0.89143 0.0
O320 O 0.85368 0.4347 0.93117 0.0
O321 O 0.88951 0.45834 0.92979 0.0
O322 O 0.63044 0.5017 0.97839 0.0
Cd323 Cd 0.60944 0.49622 0.94024 0.0
Cd324 Cd 0.60606 0.45678 0.94215 0.0
O325 O 0.62096 0.46697 0.9872 0.0
O326 O 0.5976 0.51683 0.94568 0.0
O327 O 0.57707 0.48052 0.95067 0.0
C328 C 0.57878 0.49976 0.95271 0.0
C329 C 0.57524 0.42202 0.9318 0.0
C330 C 0.63178 0.48724 0.99533 0.0
C331 C 0.63094 0.48696 0.88612 0.0
O332 O 0.62688 0.4701 0.90295 0.0
O333 O 0.6233 0.4993 0.89478 0.0
O334 O 0.59418 0.42421 0.93895 0.0
O335 O 0.57341 0.4395 0.9324 0.0
O336 O 0.56063 0.83041 0.82223 0.0
Cd337 Cd 0.57649 0.82698 0.78255 0.0
Cd338 Cd 0.53959 0.78724 0.78018 0.0
O339 O 0.53306 0.79602 0.82493 0.0
O340 O 0.60881 0.84786 0.78908 0.0
O341 O 0.59375 0.81149 0.79026 0.0
C342 C 0.611 0.83082 0.79389 0.0
C343 C 0.53471 0.75224 0.76891 0.0
C344 C 0.54345 0.81551 0.83636 0.0
C345 C 0.54689 0.81984 0.72673 0.0
O346 O 0.53383 0.80189 0.74112 0.0
O347 O 0.56629 0.83228 0.73771 0.0
O348 O 0.51817 0.75504 0.77469 0.0
O349 O 0.5543 0.76922 0.77129 0.0
O350 O 0.19926 0.73504 0.81732 0.0
Cd351 Cd 0.2028 0.75548 0.77916 0.0
Cd352 Cd 0.24266 0.75854 0.77803 0.0
O353 O 0.23379 0.74292 0.82278 0.0
O354 O 0.18086 0.76521 0.78784 0.0
O355 O 0.21695 0.78819 0.78734 0.0
C356 C 0.19728 0.78491 0.79226 0.0
C357 C 0.27823 0.78782 0.76648 0.0
C358 C 0.21384 0.73283 0.83248 0.0
C359 C 0.21011 0.73399 0.72334 0.0
O360 O 0.22772 0.73855 0.73848 0.0
O361 O 0.19761 0.74096 0.73386 0.0
O362 O 0.2744 0.76798 0.77112 0.0
O363 O 0.262 0.79145 0.77045 0.0
O364 O 0.29796 0.47008 0.81096 0.0
Cd365 Cd 0.27746 0.45304 0.77298 0.0
Cd366 Cd 0.27458 0.48991 0.77118 0.0
O367 O 0.29025 0.49687 0.81585 0.0
O368 O 0.26741 0.42134 0.78239 0.0
O369 O 0.24473 0.43478 0.78134 0.0
C370 C 0.24782 0.41831 0.7868 0.0
C371 C 0.24548 0.49642 0.75963 0.0
C372 C 0.30026 0.487 0.82582 0.0
C373 C 0.29904 0.48156 0.71679 0.0
O374 O 0.29447 0.49469 0.73161 0.0
O375 O 0.29205 0.46213 0.72764 0.0
O376 O 0.26538 0.51236 0.76405 0.0
O377 O 0.2417 0.47651 0.76377 0.0
O378 O 0.50472 0.89202 0.02709 0.0
Cd379 Cd 0.50457 0.90926 0.06714 0.0
Cd380 Cd 0.46418 0.87212 0.07576 0.0
O381 O 0.47141 0.86284 0.03172 0.0
O382 O 0.52693 0.94059 0.05681 0.0
O383 O 0.49137 0.929 0.06276 0.0
C384 C 0.51095 0.94475 0.0554 0.0
C385 C 0.42898 0.8668 0.0869 0.0
C386 C 0.48962 0.87349 0.0166 0.0
C387 C 0.49982 0.88213 0.12571 0.0
O388 O 0.48032 0.86924 0.11558 0.0
O389 O 0.5126 0.89989 0.11055 0.0
O390 O 0.43234 0.8504 0.08361 0.0
O391 O 0.44552 0.88646 0.08255 0.0
O392 O 0.13947 0.62303 0.03325 0.0
Cd393 Cd 0.12143 0.60292 0.07081 0.0
Cd394 Cd 0.15846 0.59965 0.07678 0.0
O395 O 0.16739 0.61678 0.03299 0.0
O396 O 0.09009 0.59335 0.05967 0.0
O397 O 0.10282 0.57015 0.06288 0.0
C398 C 0.08672 0.57357 0.05615 0.0
C399 C 0.16508 0.57048 0.08757 0.0
C400 C 0.15741 0.62612 0.02086 0.0
C401 C 0.14772 0.62332 0.12972 0.0
O402 O 0.16101 0.61788 0.11758 0.0
O403 O 0.12951 0.618 0.11577 0.0
O404 O 0.18092 0.59063 0.08523 0.0
O405 O 0.14528 0.56656 0.08193 0.0
O406 O 0.40988 0.52479 0.02759 0.0
Cd407 Cd 0.42995 0.528 0.06581 0.0
Cd408 Cd 0.43354 0.56822 0.06867 0.0
O409 O 0.41708 0.55923 0.02443 0.0
O410 O 0.43952 0.50595 0.05703 0.0
O411 O 0.46268 0.54201 0.05803 0.0
C412 C 0.45927 0.52231 0.05285 0.0
C413 C 0.46388 0.60347 0.07804 0.0
C414 C 0.40735 0.53955 0.01361 0.0
C415 C 0.40919 0.53549 0.12297 0.0
O416 O 0.41452 0.55383 0.1094 0.0
O417 O 0.41491 0.52244 0.11065 0.0
O418 O 0.44431 0.60043 0.07376 0.0
O419 O 0.46656 0.58655 0.07538 0.0
O420 O 0.14307 0.52887 0.52238 0.0
Cd421 Cd 0.12583 0.52913 0.56237 0.0
Cd422 Cd 0.16286 0.56954 0.57025 0.0
O423 O 0.172 0.56239 0.52607 0.0
O424 O 0.09452 0.50675 0.55208 0.0
O425 O 0.10611 0.54234 0.55796 0.0
C426 C 0.09036 0.52274 0.55066 0.0
C427 C 0.16795 0.60464 0.58126 0.0
C428 C 0.1614 0.54402 0.51137 0.0
C429 C 0.15303 0.53422 0.62081 0.0
O430 O 0.16593 0.5536 0.61022 0.0
O431 O 0.13518 0.52134 0.60595 0.0
O432 O 0.18443 0.6014 0.57795 0.0
O433 O 0.14834 0.58801 0.57696 0.0
O434 O 0.50849 0.62462 0.52942 0.0
Cd435 Cd 0.504 0.60388 0.56757 0.0
Cd436 Cd 0.46418 0.60018 0.56677 0.0
O437 O 0.47381 0.61565 0.52205 0.0
O438 O 0.52591 0.59393 0.56016 0.0
O439 O 0.48977 0.57126 0.55867 0.0
C440 C 0.50947 0.57439 0.55474 0.0
C441 C 0.42921 0.5695 0.57636 0.0
C442 C 0.49393 0.62628 0.51327 0.0
C443 C 0.49497 0.62487 0.62267 0.0
O444 O 0.47771 0.62038 0.60658 0.0
O445 O 0.5077 0.61793 0.61303 0.0
O446 O 0.43177 0.58874 0.57041 0.0
O447 O 0.44648 0.56732 0.57517 0.0
O448 O 0.41046 0.89152 0.52876 0.0
Cd449 Cd 0.42935 0.90818 0.56813 0.0
Cd450 Cd 0.43206 0.8709 0.57471 0.0
O451 O 0.41528 0.86266 0.53082 0.0
O452 O 0.44091 0.94031 0.55962 0.0
O453 O 0.46219 0.92525 0.56092 0.0
C454 C 0.46017 0.94238 0.5557 0.0
C455 C 0.46164 0.86496 0.58489 0.0
C456 C 0.40714 0.87329 0.51713 0.0
C457 C 0.40783 0.88087 0.6268 0.0
O458 O 0.41349 0.86761 0.61522 0.0
O459 O 0.41324 0.89905 0.61259 0.0
O460 O 0.44179 0.84876 0.58119 0.0
O461 O 0.46503 0.88476 0.58119 0.0
O462 O 0.20183 0.46986 0.32051 0.0
Cd463 Cd 0.201 0.45173 0.28093 0.0
Cd464 Cd 0.24129 0.48977 0.27029 0.0
O465 O 0.23445 0.49976 0.31399 0.0
O466 O 0.17869 0.42073 0.29309 0.0
O467 O 0.21397 0.43174 0.28523 0.0
C468 C 0.19451 0.41631 0.2938 0.0
C469 C 0.27729 0.49783 0.25775 0.0
C470 C 0.21668 0.48883 0.33002 0.0
C471 C 0.20414 0.47728 0.2214 0.0
O472 O 0.22379 0.49046 0.23061 0.0
O473 O 0.19168 0.45993 0.23762 0.0
O474 O 0.272 0.51299 0.25916 0.0
O475 O 0.26228 0.47791 0.26504 0.0
O476 O 0.56517 0.73593 0.31077 0.0
Cd477 Cd 0.5819 0.75621 0.27242 0.0
Cd478 Cd 0.54519 0.75945 0.27121 0.0
O479 O 0.53853 0.74383 0.31591 0.0
O480 O 0.61366 0.76619 0.28111 0.0
O481 O 0.6003 0.78895 0.28063 0.0
C482 C 0.61678 0.78581 0.28567 0.0
C483 C 0.53869 0.78864 0.2602 0.0
C484 C 0.54839 0.73381 0.32584 0.0
C485 C 0.55285 0.73458 0.21669 0.0
O486 O 0.53996 0.73941 0.23167 0.0
O487 O 0.57232 0.74143 0.22724 0.0
O488 O 0.52276 0.76875 0.2647 0.0
O489 O 0.55861 0.79235 0.26384 0.0
O490 O 0.29375 0.83151 0.32176 0.0
Cd491 Cd 0.27487 0.82885 0.28192 0.0
Cd492 Cd 0.27187 0.78886 0.27845 0.0
O493 O 0.2876 0.79731 0.32295 0.0
O494 O 0.26367 0.84981 0.28916 0.0
O495 O 0.24205 0.81346 0.28907 0.0
C496 C 0.24431 0.8328 0.29339 0.0
C497 C 0.2425 0.75332 0.26698 0.0
C498 C 0.29631 0.81658 0.33516 0.0
C499 C 0.29732 0.82239 0.22563 0.0
O500 O 0.29189 0.80406 0.23923 0.0
O501 O 0.29082 0.835 0.23734 0.0
O502 O 0.26237 0.75714 0.27109 0.0
O503 O 0.23893 0.76957 0.27124 0.0
H504 H 0.22742 0.07018 0.09187 0.0
H505 H 0.16038 0.05482 0.07423 0.0
H506 H 0.2194 0.03551 0.066 0.0
H507 H 0.15268 0.02119 0.04706 0.0
H508 H 0.13714 0.95714 0.00807 0.0
H509 H 0.14635 0.98578 0.04842 0.0
H510 H 0.21404 0.01963 0.01492 0.0
H511 H 0.20493 0.98999 0.97627 0.0
C512 C 0.21094 0.05934 0.08269 0.0
C513 C 0.19456 0.0653 0.0851 0.0
C514 C 0.20636 0.03952 0.06758 0.0
C515 C 0.18536 0.02535 0.05417 0.0
C516 C 0.1689 0.03118 0.05758 0.0
C517 C 0.17338 0.05072 0.07302 0.0
C518 C 0.1541 0.97043 0.01002 0.0
C519 C 0.17029 0.97143 0.98897 0.0
C520 C 0.15939 0.98705 0.03289 0.0
C521 C 0.18086 1.00553 0.03454 0.0
C522 C 0.19736 1.00572 0.01473 0.0
C523 C 0.19215 0.98873 0.99241 0.0
H524 H 0.97726 0.11643 0.07783 0.0
H525 H 0.95785 0.16595 0.08481 0.0
H526 H 1.01096 0.14253 0.05083 0.0
H527 H 0.99249 0.19282 0.05907 0.0
H528 H 0.03932 0.22166 0.97001 0.0
H529 H 1.00927 0.20166 0.00833 0.0
H530 H 0.04556 0.17308 0.05162 0.0
H531 H 0.07472 0.19193 0.01176 0.0
C532 C 0.98046 0.13313 0.07434 0.0
C533 C 0.96474 0.13901 0.08335 0.0
C534 C 1.00002 0.1483 0.05897 0.0
C535 C 1.00471 0.17 0.05255 0.0
C536 C 0.9894 0.17621 0.063 0.0
C537 C 0.96959 0.16085 0.07805 0.0
C538 C 0.04102 0.21146 0.98822 0.0
C539 C 0.05922 0.20815 0.98773 0.0
C540 C 0.02378 0.19997 0.01034 0.0
C541 C 0.02458 0.18523 0.03286 0.0
C542 C 0.04384 0.18359 0.03402 0.0
C543 C 0.06075 0.19461 0.01142 0.0
H544 H 0.8106 0.82526 0.97417 0.0
H545 H 0.84333 0.89209 0.01009 0.0
H546 H 0.8309 0.81583 0.01275 0.0
H547 H 0.86249 0.88248 0.05037 0.0
H548 H 0.91822 0.86956 0.07667 0.0
H549 H 0.89219 0.87724 0.04978 0.0
H550 H 0.84071 0.80932 0.06348 0.0
H551 H 0.86751 0.80139 0.08898 0.0
C552 C 0.82155 0.83772 0.99119 0.0
C553 C 0.82558 0.85946 0.98894 0.0
C554 C 0.83322 0.83233 0.01348 0.0
C555 C 0.84885 0.84848 0.03447 0.0
C556 C 0.85128 0.86974 0.03394 0.0
C557 C 0.84008 0.87524 0.01111 0.0
C558 C 0.90129 0.85628 0.0744 0.0
C559 C 0.89502 0.83482 0.08482 0.0
C560 C 0.88616 0.86074 0.0591 0.0
C561 C 0.86412 0.84394 0.0542 0.0
C562 C 0.85757 0.82264 0.06615 0.0
C563 C 0.87289 0.8181 0.08108 0.0
H564 H 0.98544 0.19595 0.53054 0.0
H565 H 0.97781 0.13072 0.52893 0.0
H566 H 1.01425 0.20795 0.48915 0.0
H567 H 1.00672 0.14271 0.48904 0.0
H568 H 0.08565 0.22571 0.45592 0.0
H569 H 0.05179 0.21634 0.48522 0.0
H570 H 1.01829 0.15346 0.43586 0.0
H571 H 0.05243 0.16245 0.40802 0.0
C572 C 0.98968 0.18411 0.52112 0.0
C573 C 0.97936 0.1624 0.53326 0.0
C574 C 1.00632 0.19102 0.49757 0.0
C575 C 1.01295 0.17636 0.48564 0.0
C576 C 1.00193 0.15446 0.497 0.0
C577 C 0.98537 0.14758 0.52029 0.0
C578 C 0.0709 0.21009 0.45088 0.0
C579 C 0.07176 0.19467 0.43007 0.0
C580 C 0.05141 0.20471 0.46762 0.0
C581 C 0.03231 0.1839 0.46352 0.0
C582 C 0.0328 0.16934 0.44046 0.0
C583 C 0.05234 0.17455 0.42426 0.0
H584 H 0.8709 0.90154 0.40316 0.0
H585 H 0.80594 0.86722 0.44597 0.0
H586 H 0.88059 0.87687 0.43094 0.0
H587 H 0.81589 0.84307 0.47498 0.0
H588 H 0.83738 0.79761 0.51875 0.0
H589 H 0.826 0.81497 0.47741 0.0
H590 H 0.88941 0.87471 0.48518 0.0
H591 H 0.90087 0.85732 0.52523 0.0
C592 C 0.85857 0.88852 0.41821 0.0
C593 C 0.83774 0.8865 0.42265 0.0
C594 C 0.86418 0.87445 0.43437 0.0
C595 C 0.84923 0.85823 0.45587 0.0
C596 C 0.82783 0.85525 0.45856 0.0
C597 C 0.82212 0.86916 0.44198 0.0
C598 C 0.84901 0.8143 0.5111 0.0
C599 C 0.87 0.82608 0.52551 0.0
C600 C 0.84242 0.82432 0.48758 0.0
C601 C 0.85672 0.84632 0.4779 0.0
C602 C 0.87801 0.85767 0.49145 0.0
C603 C 0.88456 0.84769 0.51478 0.0
H604 H 0.16541 0.9467 0.44852 0.0
H605 H 0.13067 0.97694 0.40591 0.0
H606 H 0.18967 0.98102 0.47706 0.0
H607 H 0.1554 1.01149 0.43324 0.0
H608 H 0.17544 0.05174 0.52716 0.0
H609 H 0.15783 0.02261 0.48754 0.0
H610 H 0.21773 0.01946 0.47861 0.0
H611 H 0.23533 0.04851 0.51948 0.0
C612 C 0.16338 0.96088 0.44449 0.0
C613 C 0.14592 0.95901 0.42535 0.0
C614 C 0.17735 0.98063 0.46079 0.0
C615 C 0.17428 0.99899 0.45801 0.0
C616 C 0.1579 0.99754 0.43672 0.0
C617 C 0.14379 0.97777 0.42083 0.0
C618 C 0.18505 0.04511 0.51652 0.0
C619 C 0.20679 0.0524 0.52678 0.0
C620 C 0.17495 0.02843 0.49345 0.0
C621 C 0.18629 0.01855 0.47974 0.0
C622 C 0.2084 0.02649 0.48892 0.0
C623 C 0.21856 0.04327 0.51216 0.0
H624 H 0.83604 0.04753 0.01661 0.0
H625 H 0.90002 0.05244 0.02184 0.0
H626 H 0.82428 0.01788 0.97669 0.0
H627 H 0.88821 0.02268 0.9834 0.0
H628 H 0.86885 0.97461 0.90544 0.0
H629 H 0.8786 1.00981 0.93051 0.0
H630 H 0.81439 0.97985 0.97602 0.0
H631 H 0.80432 0.94491 0.94943 0.0
C632 C 0.8477 0.04254 0.00893 0.0
C633 C 0.86894 0.05231 0.02264 0.0
C634 C 0.8409 0.0254 0.98625 0.0
C635 C 0.85521 0.01769 0.97678 0.0
C636 C 0.87675 0.02826 0.98949 0.0
C637 C 0.88352 0.04533 0.01192 0.0
C638 C 0.85664 0.97569 0.92021 0.0
C639 C 0.83592 0.95694 0.92577 0.0
C640 C 0.86228 0.99585 0.93484 0.0
C641 C 0.84752 0.99766 0.95602 0.0
C642 C 0.8262 0.97922 0.95979 0.0
C643 C 0.82041 0.95911 0.94463 0.0
H644 H 0.98005 0.85471 0.02133 0.0
H645 H 0.98482 0.79552 0.01743 0.0
H646 H 1.00937 0.87216 0.98207 0.0
H647 H 1.01401 0.81289 0.97671 0.0
H648 H 0.08675 0.86562 0.94787 0.0
H649 H 0.052 0.841 0.97509 0.0
H650 H 0.02182 0.87485 0.92901 0.0
H651 H 0.05686 0.90007 0.90325 0.0
C652 C 0.98704 0.84519 0.01154 0.0
C653 C 0.98016 0.82375 0.02287 0.0
C654 C 1.00384 0.85519 0.98863 0.0
C655 C 1.01424 0.84404 0.97606 0.0
C656 C 1.00661 0.82213 0.98614 0.0
C657 C 0.98974 0.81208 0.00929 0.0
C658 C 0.07254 0.86747 0.94305 0.0
C659 C 0.07462 0.88499 0.92383 0.0
C660 C 0.05253 0.85328 0.95859 0.0
C661 C 0.0341 0.85614 0.95487 0.0
C662 C 0.03579 0.87252 0.93331 0.0
C663 C 0.05585 0.8869 0.91828 0.0
H664 H 0.1653 0.22941 0.95608 0.0
H665 H 0.13534 0.16684 0.90634 0.0
H666 H 0.19009 0.2199 0.9842 0.0
H667 H 0.16091 0.15779 0.9327 0.0
H668 H 0.17901 0.1336 0.02371 0.0
H669 H 0.16219 0.14606 0.98449 0.0
H670 H 0.21914 0.21182 0.98822 0.0
H671 H 0.23576 0.19932 0.02919 0.0
C672 C 0.16455 0.21394 0.95034 0.0
C673 C 0.14819 0.19871 0.92942 0.0
C674 C 0.17883 0.20847 0.96639 0.0
C675 C 0.17727 0.1878 0.9614 0.0
C676 C 0.16217 0.17353 0.9381 0.0
C677 C 0.1476 0.17877 0.92269 0.0
C678 C 0.18819 0.15069 0.016 0.0
C679 C 0.2087 0.16549 0.02997 0.0
C680 C 0.17856 0.15785 0.99305 0.0
C681 C 0.1892 0.18003 0.98294 0.0
C682 C 0.21027 0.19468 0.9957 0.0
C683 C 0.21992 0.18748 0.01899 0.0
H684 H 0.983 0.86518 0.60704 0.0
H685 H 0.95158 0.80055 0.5631 0.0
H686 H 1.01746 0.87447 0.57993 0.0
H687 H 0.9858 0.81012 0.53471 0.0
H688 H 0.05291 0.83093 0.49203 0.0
H689 H 0.02389 0.81962 0.53289 0.0
H690 H 0.0289 0.88364 0.52595 0.0
H691 H 0.05802 0.89502 0.4864 0.0
C692 C 0.98354 0.85284 0.59187 0.0
C693 C 0.9645 0.83223 0.5869 0.0
C694 C 1.00327 0.85821 0.5761 0.0
C695 C 1.00437 0.84327 0.55446 0.0
C696 C 0.98569 0.82206 0.55126 0.0
C697 C 0.966 0.81656 0.56746 0.0
C698 C 0.04808 0.8427 0.49978 0.0
C699 C 0.05774 0.86384 0.48574 0.0
C700 C 0.03132 0.83615 0.52302 0.0
C701 C 0.02391 0.85065 0.53277 0.0
C702 C 0.0343 0.87207 0.51962 0.0
C703 C 0.05097 0.87858 0.49657 0.0
H704 H 0.20103 0.22848 0.49071 0.0
H705 H 0.13631 0.17008 0.49052 0.0
H706 H 0.21317 0.21144 0.5315 0.0
H707 H 0.14847 0.15295 0.52988 0.0
H708 H 0.16872 0.12659 0.61029 0.0
H709 H 0.15909 0.15147 0.58302 0.0
H710 H 0.2222 0.18273 0.53423 0.0
H711 H 0.23218 0.15846 0.56285 0.0
C712 C 0.18932 0.21216 0.49962 0.0
C713 C 0.16772 0.20063 0.48714 0.0
C714 C 0.19632 0.2023 0.52283 0.0
C715 C 0.18187 0.18072 0.53406 0.0
C716 C 0.16005 0.16969 0.52242 0.0
C717 C 0.15308 0.1795 0.49946 0.0
C718 C 0.18073 0.13912 0.5943 0.0
C719 C 0.20111 0.1404 0.58845 0.0
C720 C 0.17515 0.1533 0.57841 0.0
C721 C 0.18962 0.16884 0.55573 0.0
C722 C 0.21064 0.17109 0.55158 0.0
C723 C 0.21636 0.15711 0.56793 0.0
H724 H 0.87153 0.07771 0.5671 0.0
H725 H 0.90598 0.04672 0.60823 0.0
H726 H 0.84742 0.04388 0.53736 0.0
H727 H 0.88137 1.01264 0.57977 0.0
H728 H 0.80213 0.97708 0.49237 0.0
H729 H 0.8194 1.00549 0.53421 0.0
H730 H 0.87939 1.00251 0.52514 0.0
H731 H 0.8621 0.97401 0.4846 0.0
C732 C 0.87351 0.06345 0.57056 0.0
C733 C 0.89086 0.06498 0.58961 0.0
C734 C 0.85963 0.04398 0.55357 0.0
C735 C 0.86268 0.02558 0.55559 0.0
C736 C 0.87891 0.02664 0.57684 0.0
C737 C 0.89294 0.04615 0.59338 0.0
C738 C 0.81885 0.98222 0.49985 0.0
C739 C 0.83074 0.97331 0.48495 0.0
C740 C 0.82882 0.99864 0.52365 0.0
C741 C 0.85086 1.00642 0.53312 0.0
C742 C 0.86232 0.99678 0.51904 0.0
C743 C 0.85241 0.98047 0.49544 0.0
H744 H 0.8664 0.31072 0.32196 0.0
H745 H 0.80312 0.30707 0.31321 0.0
H746 H 0.87747 0.33971 0.3628 0.0
H747 H 0.8143 0.3362 0.35264 0.0
H748 H 0.83196 0.38215 0.4334 0.0
H749 H 0.82245 0.34756 0.40653 0.0
H750 H 0.88785 0.37791 0.36484 0.0
H751 H 0.89762 0.41222 0.39316 0.0
C752 C 0.85475 0.31587 0.329 0.0
C753 C 0.83391 0.30661 0.31411 0.0
C754 C 0.86116 0.33263 0.35223 0.0
C755 C 0.84685 0.34045 0.36109 0.0
C756 C 0.82571 0.33047 0.34704 0.0
C757 C 0.81932 0.31379 0.32405 0.0
C758 C 0.84446 0.38127 0.41907 0.0
C759 C 0.86545 0.39997 0.41509 0.0
C760 C 0.83896 0.36147 0.40342 0.0
C761 C 0.85417 0.35999 0.38279 0.0
C762 C 0.87569 0.37831 0.38059 0.0
C763 C 0.88131 0.39805 0.39675 0.0
H764 H 0.61812 0.49398 0.39444 0.0
H765 H 0.65075 0.46318 0.44189 0.0
H766 H 0.65243 0.51924 0.36668 0.0
H767 H 0.68531 0.48908 0.4156 0.0
H768 H 0.72699 0.50886 0.32334 0.0
H769 H 0.69784 0.49117 0.36275 0.0
H770 H 0.68991 0.54861 0.36436 0.0
H771 H 0.71894 0.5662 0.32344 0.0
C772 C 0.63282 0.49308 0.39973 0.0
C773 C 0.63168 0.47638 0.41993 0.0
C774 C 0.65256 0.50765 0.38389 0.0
C775 C 0.67165 0.50599 0.38829 0.0
C776 C 0.67084 0.49046 0.41078 0.0
C777 C 0.65105 0.47569 0.42609 0.0
C778 C 0.71931 0.51795 0.33232 0.0
C779 C 0.72522 0.53891 0.31989 0.0
C780 C 0.70261 0.50782 0.35532 0.0
C781 C 0.69134 0.51836 0.36691 0.0
C782 C 0.69799 0.53985 0.35571 0.0
C783 C 0.71478 0.55003 0.33245 0.0
H784 H 0.58624 0.20249 0.40693 0.0
H785 H 0.53446 0.13502 0.42156 0.0
H786 H 0.56038 0.2108 0.38092 0.0
H787 H 0.50787 0.14363 0.39695 0.0
H788 H 0.47697 0.15997 0.30899 0.0
H789 H 0.49739 0.15008 0.34667 0.0
H790 H 0.53138 0.21711 0.38292 0.0
H791 H 0.51207 0.22714 0.34348 0.0
C792 C 0.56913 0.18951 0.40534 0.0
C793 C 0.56248 0.16804 0.41618 0.0
C794 C 0.55411 0.19434 0.39056 0.0
C795 C 0.53181 0.17794 0.38664 0.0
C796 C 0.52493 0.15664 0.39891 0.0
C797 C 0.54013 0.15171 0.41331 0.0
C798 C 0.48849 0.17242 0.32554 0.0
C799 C 0.49313 0.19436 0.32311 0.0
C800 C 0.50022 0.16677 0.3473 0.0
C801 C 0.51654 0.18287 0.36759 0.0
C802 C 0.51961 0.20438 0.36698 0.0
C803 C 0.50834 0.21013 0.34465 0.0
H804 H 0.64922 0.5249 0.84915 0.0
H805 H 0.64792 0.46284 0.86039 0.0
H806 H 0.67818 0.53622 0.8082 0.0
H807 H 0.67701 0.47429 0.82078 0.0
H808 H 0.75124 0.55818 0.77834 0.0
H809 H 0.71673 0.54775 0.80652 0.0
H810 H 0.68802 0.48198 0.76653 0.0
H811 H 0.72281 0.49218 0.73974 0.0
C812 C 0.65488 0.51356 0.84262 0.0
C813 C 0.6463 0.493 0.85824 0.0
C814 C 0.67161 0.52012 0.81933 0.0
C815 C 0.68008 0.50624 0.81113 0.0
C816 C 0.67076 0.48534 0.82588 0.0
C817 C 0.65411 0.47881 0.84896 0.0
C818 C 0.73738 0.54164 0.77506 0.0
C819 C 0.73982 0.5259 0.75725 0.0
C820 C 0.71752 0.53564 0.79115 0.0
C821 C 0.69963 0.51385 0.7894 0.0
C822 C 0.70161 0.49871 0.76927 0.0
C823 C 0.72152 0.5046 0.75367 0.0
H824 H 0.53889 0.23582 0.7393 0.0
H825 H 0.4737 0.20043 0.78118 0.0
H826 H 0.54887 0.21127 0.76678 0.0
H827 H 0.48393 0.17639 0.80996 0.0
H828 H 0.5691 0.19196 0.86127 0.0
H829 H 0.55743 0.20913 0.82117 0.0
H830 H 0.49473 0.1487 0.81217 0.0
H831 H 0.50632 0.13154 0.85356 0.0
C832 C 0.52659 0.22259 0.75409 0.0
C833 C 0.5056 0.22022 0.75839 0.0
C834 C 0.53235 0.20859 0.77007 0.0
C835 C 0.51741 0.19212 0.79127 0.0
C836 C 0.49587 0.18878 0.79377 0.0
C837 C 0.48999 0.20263 0.77733 0.0
C838 C 0.55291 0.18214 0.85053 0.0
C839 C 0.5386 0.16039 0.86092 0.0
C840 C 0.54624 0.19199 0.82717 0.0
C841 C 0.52507 0.18037 0.81328 0.0
C842 C 0.51104 0.15824 0.82261 0.0
C843 C 0.51775 0.14834 0.84615 0.0
H844 H 0.90309 0.38106 0.84854 0.0
H845 H 0.84474 0.38732 0.85069 0.0
H846 H 0.88558 0.35182 0.80792 0.0
H847 H 0.82716 0.35799 0.81147 0.0
H848 H 0.83172 0.27925 0.77991 0.0
H849 H 0.85672 0.31397 0.80689 0.0
H850 H 0.82484 0.34531 0.75842 0.0
H851 H 0.79926 0.31034 0.73278 0.0
C852 C 0.88671 0.37647 0.84001 0.0
C853 C 0.87528 0.38645 0.8531 0.0
C854 C 0.87658 0.35957 0.81693 0.0
C855 C 0.85485 0.35235 0.80641 0.0
C856 C 0.84398 0.36319 0.81842 0.0
C857 C 0.85406 0.38 0.84129 0.0
C858 C 0.83038 0.29369 0.77453 0.0
C859 C 0.8133 0.29198 0.75464 0.0
C860 C 0.84479 0.31368 0.78991 0.0
C861 C 0.84258 0.33244 0.7854 0.0
C862 C 0.82666 0.33109 0.76326 0.0
C863 C 0.81207 0.31106 0.74834 0.0
H864 H 0.56755 0.38644 0.3579 0.0
H865 H 0.50318 0.38077 0.35525 0.0
H866 H 0.55551 0.35683 0.31917 0.0
H867 H 0.49119 0.3513 0.315 0.0
H868 H 0.47147 0.27887 0.28546 0.0
H869 H 0.4816 0.31348 0.31308 0.0
H870 H 0.54544 0.34415 0.26638 0.0
H871 H 0.53564 0.30925 0.24026 0.0
C872 C 0.5509 0.37919 0.34852 0.0
C873 C 0.5363 0.38594 0.36002 0.0
C874 C 0.544 0.36221 0.3259 0.0
C875 C 0.5223 0.35149 0.31376 0.0
C876 C 0.50793 0.35892 0.3241 0.0
C877 C 0.51485 0.37596 0.34699 0.0
C878 C 0.48749 0.29316 0.28063 0.0
C879 C 0.50288 0.29126 0.26108 0.0
C880 C 0.49331 0.31308 0.2964 0.0
C881 C 0.51456 0.33163 0.29258 0.0
C882 C 0.5292 0.3301 0.27077 0.0
C883 C 0.52352 0.31012 0.25553 0.0
H884 H 0.75389 0.19927 0.27876 0.0
H885 H 0.72123 0.23018 0.23174 0.0
H886 H 0.7198 0.17442 0.30733 0.0
H887 H 0.68688 0.20473 0.25895 0.0
H888 H 0.65327 0.1278 0.35126 0.0
H889 H 0.68216 0.14519 0.31008 0.0
H890 H 0.67492 0.20303 0.31223 0.0
H891 H 0.64593 0.18556 0.35197 0.0
C892 C 0.73923 0.20029 0.27376 0.0
C893 C 0.74032 0.2169 0.25339 0.0
C894 C 0.71961 0.18597 0.29007 0.0
C895 C 0.70059 0.18779 0.28603 0.0
C896 C 0.70132 0.20323 0.26347 0.0
C897 C 0.72098 0.21774 0.24763 0.0
C898 C 0.65756 0.14403 0.34234 0.0
C899 C 0.64735 0.15531 0.35513 0.0
C900 C 0.67426 0.15409 0.31893 0.0
C901 C 0.68105 0.17561 0.30778 0.0
C902 C 0.67004 0.18635 0.31964 0.0
C903 C 0.65343 0.17634 0.34282 0.0
H904 H 0.89212 0.53325 0.37457 0.0
H905 H 0.86082 0.46779 0.33365 0.0
H906 H 0.87268 0.54385 0.336 0.0
H907 H 0.84253 0.47861 0.29358 0.0
H908 H 0.78711 0.4919 0.26704 0.0
H909 H 0.81257 0.48364 0.29445 0.0
H910 H 0.86422 0.55186 0.28487 0.0
H911 H 0.838 0.56034 0.25864 0.0
C912 C 0.88168 0.52138 0.35651 0.0
C913 C 0.87777 0.49964 0.3573 0.0
C914 C 0.87052 0.52744 0.33426 0.0
C915 C 0.85553 0.51198 0.3119 0.0
C916 C 0.85326 0.4908 0.31105 0.0
C917 C 0.86395 0.48461 0.33378 0.0
C918 C 0.80397 0.50514 0.27032 0.0
C919 C 0.81044 0.52683 0.26076 0.0
C920 C 0.81876 0.50035 0.28593 0.0
C921 C 0.84067 0.51703 0.29207 0.0
C922 C 0.84745 0.5386 0.28113 0.0
C923 C 0.83247 0.54347 0.26581 0.0
H924 H 0.65082 0.20109 0.94149 0.0
H925 H 0.62016 0.13558 0.90051 0.0
H926 H 0.68509 0.21061 0.91358 0.0
H927 H 0.65417 0.14533 0.87143 0.0
H928 H 0.72104 0.1665 0.82778 0.0
H929 H 0.69247 0.15561 0.86924 0.0
H930 H 0.69581 0.21872 0.85903 0.0
H931 H 0.7245 0.22971 0.8188 0.0
C932 C 0.6515 0.18861 0.92682 0.0
C933 C 0.6327 0.16766 0.92292 0.0
C934 C 0.67112 0.19411 0.91059 0.0
C935 C 0.67235 0.17893 0.8896 0.0
C936 C 0.65396 0.15745 0.88746 0.0
C937 C 0.63438 0.15185 0.90408 0.0
C938 C 0.71595 0.17818 0.83492 0.0
C939 C 0.72501 0.19894 0.81976 0.0
C940 C 0.69944 0.17187 0.85851 0.0
C941 C 0.69168 0.18621 0.86752 0.0
C942 C 0.7015 0.20729 0.85326 0.0
C943 C 0.71792 0.21357 0.82984 0.0
H944 H 0.82974 0.44919 0.90876 0.0
H945 H 0.89871 0.49878 0.9158 0.0
H946 H 0.82222 0.4751 0.88109 0.0
H947 H 0.89102 0.52547 0.88933 0.0
H948 H 0.87315 0.55343 0.79896 0.0
H949 H 0.88317 0.53384 0.83811 0.0
H950 H 0.81823 0.50568 0.88107 0.0
H951 H 0.80795 0.52407 0.8404 0.0
C952 C 0.84327 0.46587 0.90515 0.0
C953 C 0.86487 0.47182 0.91436 0.0
C954 C 0.83891 0.48093 0.88938 0.0
C955 C 0.85597 0.5026 0.88274 0.0
C956 C 0.87747 0.50889 0.89343 0.0
C957 C 0.88189 0.49363 0.9089 0.0
C958 C 0.86124 0.54341 0.81727 0.0
C959 C 0.83971 0.54006 0.81647 0.0
C960 C 0.86696 0.53216 0.83986 0.0
C961 C 0.85138 0.51765 0.86254 0.0
C962 C 0.83047 0.51601 0.86337 0.0
C963 C 0.82461 0.52677 0.8403 0.0
H964 H 0.54031 0.41467 0.89355 0.0
H965 H 0.56968 0.38104 0.94211 0.0
H966 H 0.51557 0.38083 0.86442 0.0
H967 H 0.54427 0.34691 0.91436 0.0
H968 H 0.46901 0.31473 0.81922 0.0
H969 H 0.48608 0.34349 0.86063 0.0
H970 H 0.54316 0.33497 0.86136 0.0
H971 H 0.52597 0.30609 0.82144 0.0
C972 C 0.54099 0.39985 0.89877 0.0
C973 C 0.55716 0.4006 0.91975 0.0
C974 C 0.52672 0.38036 0.88212 0.0
C975 C 0.52815 0.36113 0.88644 0.0
C976 C 0.5431 0.36152 0.9096 0.0
C977 C 0.55758 0.38106 0.92577 0.0
C978 C 0.485 0.31873 0.82879 0.0
C979 C 0.49614 0.30816 0.81679 0.0
C980 C 0.49489 0.33535 0.85235 0.0
C981 C 0.5161 0.34172 0.86443 0.0
C982 C 0.5267 0.3304 0.85327 0.0
C983 C 0.51685 0.31386 0.82997 0.0
H984 H 0.46977 0.63973 0.65104 0.0
H985 H 0.53353 0.6443 0.65822 0.0
H986 H 0.48054 0.66798 0.69187 0.0
H987 H 0.54421 0.67242 0.70036 0.0
H988 H 0.56305 0.74409 0.73387 0.0
H989 H 0.55386 0.71051 0.70392 0.0
H990 H 0.48868 0.6781 0.74649 0.0
H991 H 0.49761 0.71195 0.77517 0.0
C992 C 0.486 0.64647 0.6618 0.0
C993 C 0.50083 0.63981 0.65106 0.0
C994 C 0.49214 0.66263 0.68559 0.0
C995 C 0.5133 0.67261 0.69959 0.0
C996 C 0.52788 0.66531 0.68986 0.0
C997 C 0.5217 0.64905 0.66588 0.0
C998 C 0.54693 0.72963 0.73733 0.0
C999 C 0.53094 0.73076 0.75649 0.0
C1000 C 0.54165 0.7103 0.72021 0.0
C1001 C 0.52034 0.69163 0.72221 0.0
C1002 C 0.50503 0.69231 0.74357 0.0
C1003 C 0.5102 0.71168 0.76025 0.0
H1004 H 0.40887 0.85784 0.679 0.0
H1005 H 0.37251 0.88661 0.6375 0.0
H1006 H 0.38033 0.83938 0.71982 0.0
H1007 H 0.34304 0.86696 0.67685 0.0
H1008 H 0.29285 0.83187 0.75531 0.0
H1009 H 0.32701 0.85864 0.7283 0.0
H1010 H 0.34582 0.80861 0.71991 0.0
H1011 H 0.31264 0.78264 0.74808 0.0
C1012 C 0.39482 0.8604 0.67892 0.0
C1013 C 0.39283 0.87355 0.65503 0.0
C1014 C 0.37827 0.8496 0.70208 0.0
C1015 C 0.3589 0.85105 0.7013 0.0
C1016 C 0.35765 0.86542 0.67855 0.0
C1017 C 0.37455 0.87671 0.65586 0.0
C1018 C 0.30457 0.82682 0.74824 0.0
C1019 C 0.29997 0.80509 0.75384 0.0
C1020 C 0.3241 0.84212 0.73247 0.0
C1021 C 0.33936 0.83594 0.72163 0.0
C1022 C 0.33493 0.81436 0.72833 0.0
C1023 C 0.31565 0.79926 0.74438 0.0
H1024 H 0.17579 0.55777 0.67353 0.0
H1025 H 0.14756 0.49312 0.6304 0.0
H1026 H 0.19408 0.54731 0.71409 0.0
H1027 H 0.16702 0.48294 0.66958 0.0
H1028 H 0.20148 0.46708 0.74808 0.0
H1029 H 0.17486 0.47471 0.72116 0.0
H1030 H 0.22496 0.54368 0.71388 0.0
H1031 H 0.2508 0.53622 0.7419 0.0
C1032 C 0.17332 0.54119 0.67301 0.0
C1033 C 0.16039 0.52631 0.64873 0.0
C1034 C 0.18402 0.53523 0.69604 0.0
C1035 C 0.18263 0.51444 0.69478 0.0
C1036 C 0.16848 0.49905 0.67163 0.0
C1037 C 0.15731 0.50487 0.64904 0.0
C1038 C 0.20657 0.48393 0.74128 0.0
C1039 C 0.22829 0.50102 0.7471 0.0
C1040 C 0.19137 0.4883 0.72556 0.0
C1041 C 0.19762 0.50983 0.71505 0.0
C1042 C 0.21918 0.52695 0.72203 0.0
C1043 C 0.23419 0.52264 0.73799 0.0
H1044 H 0.38884 0.8304 0.07674 0.0
H1045 H 0.42017 0.89414 0.12327 0.0
H1046 H 0.35409 0.82092 0.10304 0.0
H1047 H 0.38572 0.88426 0.1513 0.0
H1048 H 0.31876 0.86291 0.19483 0.0
H1049 H 0.34815 0.87518 0.15436 0.0
H1050 H 0.34137 0.81025 0.15535 0.0
H1051 H 0.31184 0.79797 0.19415 0.0
C1052 C 0.3882 0.84248 0.0924 0.0
C1053 C 0.40725 0.8629 0.09823 0.0
C1054 C 0.36832 0.83699 0.10775 0.0
C1055 C 0.3671 0.85155 0.13009 0.0
C1056 C 0.38587 0.87261 0.13423 0.0
C1057 C 0.4057 0.87829 0.11824 0.0
C1058 C 0.32327 0.85119 0.18579 0.0
C1059 C 0.31297 0.82948 0.19795 0.0
C1060 C 0.34027 0.85826 0.16279 0.0
C1061 C 0.34733 0.84379 0.15148 0.0
C1062 C 0.33629 0.82187 0.16279 0.0
C1063 C 0.31935 0.81483 0.18547 0.0
H1064 H 0.20485 0.57524 0.10403 0.0
H1065 H 0.13555 0.52639 0.09846 0.0
H1066 H 0.21224 0.54881 0.13046 0.0
H1067 H 0.14309 0.49927 0.12402 0.0
H1068 H 0.16287 0.47184 0.21399 0.0
H1069 H 0.1521 0.49134 0.17568 0.0
H1070 H 0.21516 0.51726 0.1276 0.0
H1071 H 0.22622 0.49883 0.16709 0.0
C1072 C 0.1912 0.55864 0.10778 0.0
C1073 C 0.16958 0.55302 0.09925 0.0
C1074 C 0.19548 0.5433 0.1228 0.0
C1075 C 0.17829 0.52172 0.1295 0.0
C1076 C 0.15672 0.51578 0.11969 0.0
C1077 C 0.15241 0.53128 0.10478 0.0
C1078 C 0.17415 0.48127 0.19469 0.0
C1079 C 0.19546 0.48404 0.19371 0.0
C1080 C 0.168 0.49247 0.17264 0.0
C1081 C 0.18294 0.5064 0.14885 0.0
C1082 C 0.20347 0.50736 0.14618 0.0
C1083 C 0.20975 0.49658 0.16859 0.0
H1084 H 0.5134 0.72004 0.1866 0.0
H1085 H 0.57171 0.71373 0.18399 0.0
H1086 H 0.4957 0.69075 0.14742 0.0
H1087 H 0.55411 0.68455 0.14329 0.0
H1088 H 0.50051 0.61234 0.11333 0.0
H1089 H 0.52544 0.64678 0.14107 0.0
H1090 H 0.4932 0.67842 0.09442 0.0
H1091 H 0.46765 0.64369 0.06821 0.0
C1092 C 0.52269 0.71271 0.17712 0.0
C1093 C 0.54395 0.71917 0.18877 0.0
C1094 C 0.51254 0.69592 0.15426 0.0
C1095 C 0.52338 0.68511 0.142 0.0
C1096 C 0.54511 0.69227 0.15247 0.0
C1097 C 0.5553 0.70914 0.1756 0.0
C1098 C 0.49909 0.6268 0.10853 0.0
C1099 C 0.48192 0.62524 0.089 0.0
C1100 C 0.51345 0.64663 0.12436 0.0
C1101 C 0.51112 0.66539 0.12061 0.0
C1102 C 0.49511 0.66419 0.09876 0.0
C1103 C 0.48054 0.64432 0.08348 0.0
H1104 H 0.20464 0.6448 0.57263 0.0
H1105 H 0.14 0.61324 0.61642 0.0
H1106 H 0.21385 0.67924 0.59972 0.0
H1107 H 0.14954 0.64738 0.64509 0.0
H1108 H 0.17063 0.71395 0.68991 0.0
H1109 H 0.15908 0.6853 0.64836 0.0
H1110 H 0.22325 0.69051 0.65325 0.0
H1111 H 0.23485 0.71928 0.69328 0.0
C1112 C 0.1923 0.64533 0.5878 0.0
C1113 C 0.17171 0.62628 0.59272 0.0
C1114 C 0.19762 0.66504 0.60358 0.0
C1115 C 0.18269 0.66605 0.62535 0.0
C1116 C 0.16147 0.64735 0.62846 0.0
C1117 C 0.15599 0.6277 0.61211 0.0
C1118 C 0.18237 0.70925 0.68152 0.0
C1119 C 0.20362 0.71885 0.69513 0.0
C1120 C 0.17569 0.6927 0.6579 0.0
C1121 C 0.19016 0.68544 0.64737 0.0
C1122 C 0.21168 0.6958 0.66012 0.0
C1123 C 0.21832 0.71228 0.68348 0.0
H1124 H 0.32001 0.46248 0.68502 0.0
H1125 H 0.31298 0.52042 0.6852 0.0
H1126 H 0.34896 0.47966 0.64389 0.0
H1127 H 0.34202 0.53769 0.64551 0.0
H1128 H 0.38866 0.56477 0.56564 0.0
H1129 H 0.35412 0.53928 0.59236 0.0
H1130 H 0.38665 0.50878 0.64134 0.0
H1131 H 0.42094 0.53366 0.61322 0.0
C1132 C 0.32438 0.4787 0.67599 0.0
C1133 C 0.31425 0.4901 0.68863 0.0
C1134 C 0.34111 0.48865 0.65261 0.0
C1135 C 0.348 0.51016 0.64133 0.0
C1136 C 0.33706 0.52101 0.65301 0.0
C1137 C 0.32042 0.51112 0.67616 0.0
C1138 C 0.38829 0.55227 0.58154 0.0
C1139 C 0.40757 0.55139 0.58763 0.0
C1140 C 0.36851 0.53773 0.5971 0.0
C1141 C 0.36762 0.52225 0.61972 0.0
C1142 C 0.38658 0.52036 0.62403 0.0
C1143 C 0.40632 0.5347 0.60798 0.0
H1144 H 0.56683 0.85959 0.69386 0.0
H1145 H 0.50723 0.79583 0.69671 0.0
H1146 H 0.55015 0.87176 0.65254 0.0
H1147 H 0.49046 0.80806 0.65693 0.0
H1148 H 0.49842 0.89229 0.62021 0.0
H1149 H 0.52239 0.88199 0.64903 0.0
H1150 H 0.48873 0.81773 0.60355 0.0
H1151 H 0.46413 0.82771 0.57628 0.0
C1152 C 0.55032 0.84809 0.68543 0.0
C1153 C 0.53836 0.82676 0.6988 0.0
C1154 C 0.54067 0.85512 0.66193 0.0
C1155 C 0.51887 0.84097 0.65128 0.0
C1156 C 0.50738 0.81939 0.66386 0.0
C1157 C 0.51699 0.81238 0.68709 0.0
C1158 C 0.49649 0.87614 0.61589 0.0
C1159 C 0.4792 0.86068 0.5964 0.0
C1160 C 0.5103 0.87022 0.63236 0.0
C1161 C 0.50726 0.84881 0.62926 0.0
C1162 C 0.49116 0.83411 0.60741 0.0
C1163 C 0.47714 0.83988 0.59151 0.0
H1164 H 0.30939 0.53712 0.23402 0.0
H1165 H 0.29499 0.4705 0.25314 0.0
H1166 H 0.34334 0.54518 0.20752 0.0
H1167 H 0.32992 0.47889 0.22773 0.0
H1168 H 0.37582 0.49403 0.13781 0.0
H1169 H 0.34589 0.48444 0.17616 0.0
H1170 H 0.37905 0.55189 0.2106 0.0
H1171 H 0.40808 0.56158 0.17074 0.0
C1172 C 0.31373 0.52429 0.23324 0.0
C1173 C 0.29936 0.50312 0.24557 0.0
C1174 C 0.33345 0.52898 0.21819 0.0
C1175 C 0.33963 0.51274 0.21538 0.0
C1176 C 0.32564 0.49176 0.22895 0.0
C1177 C 0.30567 0.48697 0.24376 0.0
C1178 C 0.37689 0.50665 0.15411 0.0
C1179 C 0.3941 0.5286 0.15106 0.0
C1180 C 0.35972 0.50116 0.17623 0.0
C1181 C 0.35966 0.51747 0.19617 0.0
C1182 C 0.37803 0.53901 0.19496 0.0
C1183 C 0.39485 0.54457 0.17235 0.0
H1184 H 0.56801 0.8327 0.24885 0.0
H1185 H 0.4988 0.78353 0.24362 0.0
H1186 H 0.56023 0.85958 0.22311 0.0
H1187 H 0.49118 0.80965 0.21677 0.0
H1188 H 0.47686 0.85924 0.17878 0.0
H1189 H 0.48767 0.84063 0.21832 0.0
H1190 H 0.55151 0.86783 0.17212 0.0
H1191 H 0.541 0.88758 0.13398 0.0
C1192 C 0.55112 0.82769 0.2425 0.0
C1193 C 0.53405 0.80594 0.24825 0.0
C1194 C 0.54666 0.84304 0.22747 0.0
C1195 C 0.52505 0.83693 0.2176 0.0
C1196 C 0.50796 0.81533 0.22447 0.0
C1197 C 0.51238 0.80015 0.23974 0.0
C1198 C 0.49341 0.86168 0.17769 0.0
C1199 C 0.50804 0.87473 0.15322 0.0
C1200 C 0.49957 0.8508 0.20013 0.0
C1201 C 0.5203 0.85212 0.19806 0.0
C1202 C 0.53546 0.86641 0.17478 0.0
C1203 C 0.52945 0.87775 0.15278 0.0
H1204 H 0.19829 0.7386 0.25759 0.0
H1205 H 0.24743 0.71887 0.24792 0.0
H1206 H 0.17106 0.70424 0.23155 0.0
H1207 H 0.22096 0.68547 0.22071 0.0
H1208 H 0.17125 0.62226 0.18124 0.0
H1209 H 0.1902 0.65091 0.22176 0.0
H1210 H 0.16191 0.68798 0.18029 0.0
H1211 H 0.1418 0.65842 0.14128 0.0
C1212 C 0.20323 0.72686 0.25018 0.0
C1213 C 0.22506 0.73153 0.2548 0.0
C1214 C 0.18766 0.70721 0.23498 0.0
C1215 C 0.19365 0.6919 0.22375 0.0
C1216 C 0.21537 0.69641 0.22948 0.0
C1217 C 0.23075 0.71581 0.24495 0.0
C1218 C 0.16862 0.63626 0.18147 0.0
C1219 C 0.15517 0.63819 0.15806 0.0
C1220 C 0.17971 0.65288 0.20445 0.0
C1221 C 0.17821 0.67223 0.20392 0.0
C1222 C 0.16349 0.67339 0.18176 0.0
C1223 C 0.15193 0.65643 0.15927 0.0
H1224 H 0.13486 0.16316 0.32775 0.0
H1225 H 0.18936 0.22841 0.30752 0.0
H1226 H 0.14731 0.14798 0.28485 0.0
H1227 H 0.20119 0.2136 0.26376 0.0
H1228 H 0.233 0.18064 0.21305 0.0
H1229 H 0.21869 0.19297 0.25683 0.0
H1230 H 0.152 0.1449 0.22882 0.0
H1231 H 0.16657 0.13182 0.18585 0.0
C1232 C 0.14923 0.17432 0.31367 0.0
C1233 C 0.16124 0.19695 0.32116 0.0
C1234 C 0.15638 0.16563 0.28903 0.0
C1235 C 0.17553 0.17946 0.27108 0.0
C1236 C 0.18682 0.20227 0.27767 0.0
C1237 C 0.1799 0.21085 0.30257 0.0
C1238 C 0.21528 0.17253 0.21649 0.0
C1239 C 0.20091 0.15534 0.19594 0.0
C1240 C 0.20702 0.17976 0.2414 0.0
C1241 C 0.18412 0.17032 0.24605 0.0
C1242 C 0.16972 0.15253 0.22615 0.0
C1243 C 0.17805 0.14502 0.20148 0.0
H1244 H 0.85643 0.96707 0.30445 0.0
H1245 H 0.80867 0.9871 0.32687 0.0
H1246 H 0.87004 0.99322 0.25932 0.0
H1247 H 0.82262 0.01346 0.28281 0.0
H1248 H 0.83498 0.04043 0.18131 0.0
H1249 H 0.82256 0.01416 0.22547 0.0
H1250 H 0.89013 0.03257 0.24657 0.0
H1251 H 0.90265 0.05863 0.20131 0.0
C1252 C 0.84883 0.97701 0.29979 0.0
C1253 C 0.83133 0.97483 0.31917 0.0
C1254 C 0.85677 0.99214 0.2741 0.0
C1255 C 0.84739 1.00542 0.26733 0.0
C1256 C 0.82998 1.00325 0.28687 0.0
C1257 C 0.82201 0.98812 0.31231 0.0
C1258 C 0.84728 0.03903 0.19536 0.0
C1259 C 0.86986 0.05177 0.18778 0.0
C1260 C 0.84013 0.02396 0.22087 0.0
C1261 C 0.85533 0.02129 0.23977 0.0
C1262 C 0.87795 0.03404 0.23229 0.0
C1263 C 0.88514 0.04911 0.20654 0.0
H1264 H 0.97471 0.85234 0.20239 0.0
H1265 H 0.99449 0.80427 0.18081 0.0
H1266 H 1.00087 0.86611 0.24749 0.0
H1267 H 0.02087 0.81838 0.22477 0.0
H1268 H 0.04719 0.83051 0.32647 0.0
H1269 H 0.02123 0.8183 0.28201 0.0
H1270 H 0.04013 0.88602 0.26083 0.0
H1271 H 0.06588 0.89834 0.30648 0.0
C1272 C 0.98462 0.84473 0.20721 0.0
C1273 C 0.98232 0.82706 0.18814 0.0
C1274 C 0.99975 0.85275 0.23288 0.0
C1275 C 1.01293 0.8433 0.23991 0.0
C1276 C 1.01071 0.82579 0.22055 0.0
C1277 C 0.99557 0.81772 0.19517 0.0
C1278 C 0.04597 0.8429 0.31234 0.0
C1279 C 0.05876 0.86545 0.32003 0.0
C1280 C 0.03109 0.83586 0.28665 0.0
C1281 C 0.02865 0.85116 0.26762 0.0
C1282 C 0.04143 0.87377 0.27519 0.0
C1283 C 0.05633 0.88085 0.30116 0.0
H1284 H 0.90417 0.85191 0.70644 0.0
H1285 H 0.83623 0.80522 0.68265 0.0
H1286 H 0.89167 0.86525 0.752 0.0
H1287 H 0.8239 0.81892 0.72693 0.0
H1288 H 0.85844 0.89711 0.81174 0.0
H1289 H 0.87266 0.88543 0.76629 0.0
H1290 H 0.82274 0.81754 0.78399 0.0
H1291 H 0.80823 0.82911 0.82811 0.0
C1292 C 0.88661 0.84451 0.71088 0.0
C1293 C 0.87123 0.82733 0.69107 0.0
C1294 C 0.87945 0.85228 0.7368 0.0
C1295 C 0.85677 0.84306 0.74332 0.0
C1296 C 0.84149 0.8261 0.72317 0.0
C1297 C 0.8486 0.81827 0.69759 0.0
C1298 C 0.85046 0.87972 0.8057 0.0
C1299 C 0.83203 0.8641 0.82338 0.0
C1300 C 0.85872 0.87301 0.77985 0.0
C1301 C 0.84875 0.85055 0.77128 0.0
C1302 C 0.83055 0.83502 0.78934 0.0
C1303 C 0.82225 0.84169 0.81484 0.0
H1304 H 0.18239 0.0599 0.7075 0.0
H1305 H 0.22957 0.03937 0.68373 0.0
H1306 H 0.16899 0.03374 0.75267 0.0
H1307 H 0.21583 0.01301 0.72775 0.0
H1308 H 0.20427 0.98577 0.82874 0.0
H1309 H 0.21642 1.01227 0.78494 0.0
H1310 H 0.14879 0.99443 0.76566 0.0
H1311 H 0.13655 0.96814 0.81064 0.0
C1312 C 0.1899 0.04985 0.71188 0.0
C1313 C 0.20719 0.0519 0.69211 0.0
C1314 C 0.18209 0.03472 0.73758 0.0
C1315 C 0.19137 0.0213 0.74398 0.0
C1316 C 0.20855 0.02334 0.72402 0.0
C1317 C 0.21641 0.03847 0.6986 0.0
C1318 C 0.19189 0.98735 0.81517 0.0
C1319 C 0.16938 0.97467 0.82316 0.0
C1320 C 0.19889 1.00255 0.78987 0.0
C1321 C 0.1836 1.00542 0.77153 0.0
C1322 C 0.16104 0.9928 0.77948 0.0
C1323 C 0.15401 0.97759 0.80507 0.0
H1324 H 0.98547 0.12992 0.69215 0.0
H1325 H 0.97161 0.18214 0.71379 0.0
H1326 H 1.01353 0.14347 0.73463 0.0
H1327 H 0.99873 0.19506 0.75701 0.0
H1328 H 0.06456 0.23005 0.80482 0.0
H1329 H 0.03722 0.21431 0.76205 0.0
H1330 H 0.02195 0.14871 0.79085 0.0
H1331 H 0.05023 0.16472 0.83293 0.0
C1332 C 0.98808 0.14399 0.70647 0.0
C1333 C 0.97649 0.1551 0.69946 0.0
C1334 C 1.00417 0.15178 0.73084 0.0
C1335 C 1.00879 0.17067 0.74893 0.0
C1336 C 0.99623 0.18094 0.74294 0.0
C1337 C 0.98046 0.17339 0.71835 0.0
C1338 C 0.05554 0.21228 0.80181 0.0
C1339 C 0.05947 0.19863 0.82235 0.0
C1340 C 0.03965 0.20319 0.77746 0.0
C1341 C 0.02692 0.18015 0.77335 0.0
C1342 C 0.03144 0.16651 0.79317 0.0
C1343 C 0.04765 0.17567 0.81732 0.0
H1344 H 0.8054 0.49695 0.65871 0.0
H1345 H 0.85722 0.56272 0.63394 0.0
H1346 H 0.81767 0.48178 0.61545 0.0
H1347 H 0.86886 0.54782 0.59012 0.0
H1348 H 0.90196 0.51601 0.53989 0.0
H1349 H 0.88766 0.52808 0.58399 0.0
H1350 H 0.82111 0.47824 0.55847 0.0
H1351 H 0.83568 0.46552 0.51494 0.0
C1352 C 0.81914 0.50819 0.64364 0.0
C1353 C 0.83048 0.53101 0.64992 0.0
C1354 C 0.82617 0.4995 0.61882 0.0
C1355 C 0.84454 0.51351 0.59959 0.0
C1356 C 0.85512 0.53643 0.60502 0.0
C1357 C 0.8483 0.54503 0.63 0.0
C1358 C 0.88429 0.50747 0.54388 0.0
C1359 C 0.86995 0.48992 0.5238 0.0
C1360 C 0.87603 0.51453 0.56901 0.0
C1361 C 0.85315 0.5045 0.57443 0.0
C1362 C 0.83881 0.48633 0.55511 0.0
C1363 C 0.84715 0.47904 0.53013 0.0
H1364 H 0.46858 0.30005 0.63458 0.0
H1365 H 0.53488 0.31601 0.65937 0.0
H1366 H 0.48286 0.32681 0.59082 0.0
H1367 H 0.54946 0.34383 0.61664 0.0
H1368 H 0.56679 0.37988 0.51868 0.0
H1369 H 0.55394 0.35196 0.56121 0.0
H1370 H 0.50089 0.36472 0.58308 0.0
H1371 H 0.51307 0.39159 0.5395 0.0
C1372 C 0.48625 0.30933 0.63061 0.0
C1373 C 0.50061 0.30598 0.65043 0.0
C1374 C 0.49451 0.3249 0.60574 0.0
C1375 C 0.51741 0.33794 0.60046 0.0
C1376 C 0.53174 0.33406 0.61972 0.0
C1377 C 0.5234 0.31812 0.64428 0.0
C1378 C 0.55251 0.37681 0.53284 0.0
C1379 C 0.54084 0.3878 0.52564 0.0
C1380 C 0.54513 0.3608 0.55729 0.0
C1381 C 0.52611 0.35571 0.57541 0.0
C1382 C 0.51515 0.36758 0.56905 0.0
C1383 C 0.52227 0.38322 0.54427 0.0
H1384 H 0.64189 0.18584 0.53327 0.0
H1385 H 0.6587 0.13507 0.51604 0.0
H1386 H 0.66752 0.19929 0.57905 0.0
H1387 H 0.68453 0.14881 0.56067 0.0
H1388 H 0.71055 0.16214 0.66245 0.0
H1389 H 0.68453 0.14994 0.61798 0.0
H1390 H 0.70671 0.21785 0.59274 0.0
H1391 H 0.73251 0.23019 0.63827 0.0
C1392 C 0.65102 0.17756 0.5392 0.0
C1393 C 0.64809 0.15926 0.52109 0.0
C1394 C 0.66584 0.18538 0.56526 0.0
C1395 C 0.67803 0.17508 0.57368 0.0
C1396 C 0.67512 0.1569 0.55536 0.0
C1397 C 0.66032 0.14905 0.52958 0.0
C1398 C 0.71002 0.17455 0.64742 0.0
C1399 C 0.72376 0.19717 0.65387 0.0
C1400 C 0.6951 0.16753 0.62176 0.0
C1401 C 0.69359 0.1829 0.60157 0.0
C1402 C 0.70728 0.20556 0.608 0.0
C1403 C 0.7222 0.21263 0.63392 0.0
H1404 H 0.50286 0.13859 0.01741 0.0
H1405 H 0.57053 0.18541 0.04236 0.0
H1406 H 0.49007 0.15214 0.06137 0.0
H1407 H 0.5576 0.1986 0.08749 0.0
H1408 H 0.5244 0.23062 0.14602 0.0
H1409 H 0.53859 0.21878 0.1008 0.0
H1410 H 0.48834 0.151 0.11846 0.0
H1411 H 0.47386 0.16276 0.16246 0.0
C1412 C 0.51507 0.15163 0.03252 0.0
C1413 C 0.53776 0.16079 0.02641 0.0
C1414 C 0.5077 0.15938 0.05791 0.0
C1415 C 0.52278 0.17637 0.07821 0.0
C1416 C 0.54552 0.18563 0.07214 0.0
C1417 C 0.55293 0.17794 0.04646 0.0
C1418 C 0.51632 0.21322 0.14003 0.0
C1419 C 0.49786 0.19769 0.15773 0.0
C1420 C 0.52457 0.20641 0.1143 0.0
C1421 C 0.51456 0.18393 0.10583 0.0
C1422 C 0.49622 0.16849 0.12378 0.0
C1423 C 0.48794 0.17526 0.1492 0.0
H1424 H 0.89465 0.37185 0.0108 0.0
H1425 H 0.84607 0.39095 0.03229 0.0
H1426 H 0.88048 0.34515 0.05436 0.0
H1427 H 0.83222 0.36443 0.07703 0.0
H1428 H 0.80021 0.29882 0.135 0.0
H1429 H 0.81254 0.32498 0.08981 0.0
H1430 H 0.88029 0.34448 0.11162 0.0
H1431 H 0.86809 0.31815 0.15561 0.0
C1432 C 0.88107 0.37055 0.02506 0.0
C1433 C 0.87162 0.38371 0.01811 0.0
C1434 C 0.87297 0.35522 0.05022 0.0
C1435 C 0.8553 0.35271 0.06945 0.0
C1436 C 0.84571 0.36579 0.06251 0.0
C1437 C 0.85378 0.38112 0.03706 0.0
C1438 C 0.81771 0.30859 0.12991 0.0
C1439 C 0.83312 0.30622 0.14881 0.0
C1440 C 0.82479 0.32372 0.1042 0.0
C1441 C 0.84742 0.33679 0.09694 0.0
C1442 C 0.86273 0.33441 0.11602 0.0
C1443 C 0.85569 0.31931 0.14144 0.0
H1444 H 0.66 0.52947 0.01441 0.0
H1445 H 0.63864 0.46167 0.03936 0.0
H1446 H 0.68639 0.54211 0.05836 0.0
H1447 H 0.66485 0.47447 0.08446 0.0
H1448 H 0.71329 0.55813 0.15945 0.0
H1449 H 0.68692 0.54371 0.11556 0.0
H1450 H 0.70423 0.49342 0.09754 0.0
H1451 H 0.73042 0.50756 0.14264 0.0
C1452 C 0.66074 0.51719 0.02952 0.0
C1453 C 0.64705 0.49451 0.02341 0.0
C1454 C 0.67588 0.52448 0.0549 0.0
C1455 C 0.67769 0.50933 0.07518 0.0
C1456 C 0.66404 0.4866 0.06912 0.0
C1457 C 0.64889 0.47926 0.04346 0.0
C1458 C 0.71163 0.54405 0.14614 0.0
C1459 C 0.72414 0.53411 0.15453 0.0
C1460 C 0.6965 0.53581 0.12078 0.0
C1461 C 0.69352 0.51748 0.10277 0.0
C1462 C 0.70596 0.50743 0.1111 0.0
C1463 C 0.72111 0.51566 0.13675 0.0
H1464 H 0.47178 0.82972 1.00094 0.0
H1465 H 0.51858 0.8955 0.96813 0.0
H1466 H 0.48418 0.81417 0.9584 0.0
H1467 H 0.53025 0.88015 0.92494 0.0
H1468 H 0.56618 0.85043 0.87672 0.0
H1469 H 0.55161 0.86308 0.91974 0.0
H1470 H 0.48618 0.80788 0.90215 0.0
H1471 H 0.5011 0.79468 0.85985 0.0
C1472 C 0.48435 0.84083 0.98417 0.0
C1473 C 0.49436 0.86382 0.98803 0.0
C1474 C 0.49148 0.83193 0.95978 0.0
C1475 C 0.50858 0.84588 0.93855 0.0
C1476 C 0.5176 0.86886 0.94144 0.0
C1477 C 0.51073 0.8777 0.96601 0.0
C1478 C 0.54872 0.84086 0.88225 0.0
C1479 C 0.53478 0.82163 0.86477 0.0
C1480 C 0.54028 0.84824 0.90673 0.0
C1481 C 0.51758 0.83681 0.91404 0.0
C1482 C 0.50374 0.81709 0.89732 0.0
C1483 C 0.51229 0.80951 0.87304 0.0
H1484 H 0.17188 0.70429 0.85179 0.0
H1485 H 0.23983 0.72594 0.87591 0.0
H1486 H 0.15955 0.67827 0.89609 0.0
H1487 H 0.2273 0.70005 0.92158 0.0
H1488 H 0.19314 0.63472 0.98231 0.0
H1489 H 0.20799 0.66067 0.93679 0.0
H1490 H 0.15851 0.67931 0.95315 0.0
H1491 H 0.14341 0.65324 0.99723 0.0
C1492 C 0.18427 0.7037 0.8668 0.0
C1493 C 0.20689 0.71744 0.86042 0.0
C1494 C 0.17715 0.68876 0.8924 0.0
C1495 C 0.19241 0.68722 0.91277 0.0
C1496 C 0.2151 0.70072 0.90626 0.0
C1497 C 0.22228 0.71567 0.88027 0.0
C1498 C 0.18542 0.64431 0.97598 0.0
C1499 C 0.16689 0.64164 0.99318 0.0
C1500 C 0.19402 0.6593 0.95008 0.0
C1501 C 0.1843 0.67192 0.94103 0.0
C1502 C 0.16611 0.6695 0.95881 0.0
C1503 C 0.15747 0.65453 0.9843 0.0
H1504 H 0.38013 0.498 0.99137 0.0
H1505 H 0.39918 0.56613 0.97323 0.0
H1506 H 0.35395 0.48637 0.94736 0.0
H1507 H 0.37314 0.55436 0.92785 0.0
H1508 H 0.30771 0.52062 0.86804 0.0
H1509 H 0.33377 0.53441 0.91343 0.0
H1510 H 0.35445 0.48728 0.89024 0.0
H1511 H 0.32825 0.47317 0.8462 0.0
C1512 C 0.37894 0.51059 0.97773 0.0
C1513 C 0.39197 0.53306 0.98573 0.0
C1514 C 0.3639 0.50388 0.9523 0.0
C1515 C 0.36157 0.51942 0.93372 0.0
C1516 C 0.37442 0.54194 0.94179 0.0
C1517 C 0.38947 0.5487 0.96761 0.0
C1518 C 0.31776 0.51317 0.87285 0.0
C1519 C 0.31566 0.4956 0.85369 0.0
C1520 C 0.33281 0.52118 0.89868 0.0
C1521 C 0.34609 0.51183 0.90571 0.0
C1522 C 0.34416 0.49456 0.8861 0.0
C1523 C 0.32912 0.48649 0.86065 0.0
H1524 H 0.13936 0.51229 0.46622 0.0
H1525 H 0.20476 0.56459 0.4916 0.0
H1526 H 0.15475 0.50073 0.423 0.0
H1527 H 0.22039 0.55253 0.44852 0.0
H1528 H 0.23534 0.53264 0.34678 0.0
H1529 H 0.22314 0.54817 0.38984 0.0
H1530 H 0.17565 0.48215 0.42118 0.0
H1531 H 0.1873 0.46682 0.378 0.0
C1532 C 0.15707 0.52139 0.46247 0.0
C1533 C 0.17085 0.53921 0.48256 0.0
C1534 C 0.16593 0.51465 0.43782 0.0
C1535 C 0.18887 0.52534 0.43278 0.0
C1536 C 0.20265 0.54391 0.4518 0.0
C1537 C 0.1937 0.55082 0.47645 0.0
C1538 C 0.22252 0.52151 0.36321 0.0
C1539 C 0.21208 0.49851 0.35874 0.0
C1540 C 0.21552 0.5304 0.38785 0.0
C1541 C 0.19806 0.51641 0.40849 0.0
C1542 C 0.18865 0.49343 0.40509 0.0
C1543 C 0.19546 0.48462 0.38046 0.0
H1544 H 0.53598 0.65439 0.49349 0.0
H1545 H 0.46806 0.63352 0.47028 0.0
H1546 H 0.54834 0.68081 0.44959 0.0
H1547 H 0.48058 0.65977 0.42518 0.0
H1548 H 0.51377 0.72532 0.36654 0.0
H1549 H 0.49979 0.69921 0.41182 0.0
H1550 H 0.54925 0.681 0.39235 0.0
H1551 H 0.56351 0.70726 0.34831 0.0
C1552 C 0.52361 0.65524 0.47878 0.0
C1553 C 0.50099 0.64166 0.48534 0.0
C1554 C 0.53074 0.6704 0.45342 0.0
C1555 C 0.51548 0.67233 0.43359 0.0
C1556 C 0.49279 0.65885 0.44015 0.0
C1557 C 0.48562 0.64368 0.46581 0.0
C1558 C 0.52172 0.71583 0.37215 0.0
C1559 C 0.5399 0.71857 0.35394 0.0
C1560 C 0.51359 0.70073 0.39791 0.0
C1561 C 0.52347 0.68807 0.40589 0.0
C1562 C 0.5415 0.69076 0.38741 0.0
C1563 C 0.54965 0.70583 0.36196 0.0
H1564 H 0.38246 0.82985 0.499 0.0
H1565 H 0.39845 0.89575 0.47134 0.0
H1566 H 0.35466 0.81456 0.4562 0.0
H1567 H 0.37161 0.88073 0.42783 0.0
H1568 H 0.30654 0.84986 0.37784 0.0
H1569 H 0.33327 0.86223 0.42154 0.0
H1570 H 0.3469 0.80975 0.39988 0.0
H1571 H 0.3192 0.79675 0.35691 0.0
C1572 C 0.38034 0.84107 0.48335 0.0
C1573 C 0.39248 0.86399 0.4887 0.0
C1574 C 0.36441 0.83233 0.45878 0.0
C1575 C 0.36051 0.84636 0.43883 0.0
C1576 C 0.37355 0.86933 0.44331 0.0
C1577 C 0.38915 0.878 0.46808 0.0
C1578 C 0.31507 0.84082 0.38262 0.0
C1579 C 0.31085 0.82241 0.36382 0.0
C1580 C 0.33061 0.84804 0.4075 0.0
C1581 C 0.3427 0.83733 0.4139 0.0
C1582 C 0.33789 0.81839 0.3958 0.0
C1583 C 0.32202 0.81093 0.37113 0.0
H1584 H 0.31309 0.20683 0.15466 0.0
H1585 H 0.29565 0.14042 0.12773 0.0
H1586 H 0.34679 0.2121 0.17972 0.0
H1587 H 0.32999 0.14598 0.15148 0.0
H1588 H 0.38118 0.15352 0.22538 0.0
H1589 H 0.34737 0.14879 0.20108 0.0
H1590 H 0.38203 0.21734 0.17166 0.0
H1591 H 0.41549 0.22221 0.19735 0.0
C1592 C 0.31665 0.19345 0.15356 0.0
C1593 C 0.30164 0.17319 0.13916 0.0
C1594 C 0.33611 0.19651 0.16789 0.0
C1595 C 0.34127 0.17947 0.1679 0.0
C1596 C 0.32646 0.15937 0.15267 0.0
C1597 C 0.30683 0.15622 0.13869 0.0
C1598 C 0.38149 0.16764 0.21403 0.0
C1599 C 0.40103 0.18826 0.21344 0.0
C1600 C 0.36213 0.16487 0.19971 0.0
C1601 C 0.36183 0.1826 0.18399 0.0
C1602 C 0.38138 0.20333 0.18385 0.0
C1603 C 0.40067 0.20615 0.19856 0.0
H1604 H 0.88046 0.24438 0.1952 0.0
H1605 H 0.81261 0.19561 0.21511 0.0
H1606 H 0.88601 0.21637 0.16934 0.0
H1607 H 0.81838 0.16717 0.19068 0.0
H1608 H 0.8277 0.12507 0.1164 0.0
H1609 H 0.8228 0.15388 0.14123 0.0
H1610 H 0.89012 0.1857 0.17597 0.0
H1611 H 0.89523 0.15746 0.14966 0.0
C1612 C 0.8668 0.22754 0.19462 0.0
C1613 C 0.84608 0.22225 0.20726 0.0
C1614 C 0.87001 0.21138 0.17982 0.0
C1615 C 0.85265 0.18935 0.17762 0.0
C1616 C 0.83205 0.18398 0.19114 0.0
C1617 C 0.82877 0.20025 0.20553 0.0
C1618 C 0.84153 0.13838 0.12902 0.0
C1619 C 0.86188 0.139 0.13091 0.0
C1620 C 0.83865 0.15482 0.14366 0.0
C1621 C 0.85596 0.17217 0.16106 0.0
C1622 C 0.87644 0.17288 0.16249 0.0
C1623 C 0.8794 0.15662 0.14742 0.0
H1624 H 0.7878 0.64495 0.19631 0.0
H1625 H 0.83601 0.62557 0.21852 0.0
H1626 H 0.8162 0.67832 0.17039 0.0
H1627 H 0.86482 0.65959 0.19399 0.0
H1628 H 0.90783 0.71076 0.11965 0.0
H1629 H 0.87871 0.67718 0.14448 0.0
H1630 H 0.84695 0.7131 0.17738 0.0
H1631 H 0.87553 0.74633 0.15111 0.0
C1632 C 0.80459 0.64802 0.19619 0.0
C1633 C 0.80961 0.63255 0.20953 0.0
C1634 C 0.82098 0.66729 0.18137 0.0
C1635 C 0.84297 0.67183 0.17983 0.0
C1636 C 0.84806 0.65655 0.19396 0.0
C1637 C 0.83157 0.6371 0.2084 0.0
C1638 C 0.89448 0.7114 0.13188 0.0
C1639 C 0.89398 0.73122 0.13326 0.0
C1640 C 0.87785 0.69216 0.14651 0.0
C1641 C 0.86041 0.69227 0.16336 0.0
C1642 C 0.85983 0.71212 0.16431 0.0
C1643 C 0.8763 0.73128 0.14927 0.0
H1644 H 0.22254 0.39951 0.2924 0.0
H1645 H 0.15781 0.38453 0.32462 0.0
H1646 H 0.21672 0.36509 0.31633 0.0
H1647 H 0.15234 0.35077 0.34978 0.0
H1648 H 0.14042 0.28125 0.36649 0.0
H1649 H 0.14561 0.31498 0.34129 0.0
H1650 H 0.21497 0.34794 0.3659 0.0
H1651 H 0.20985 0.31384 0.38975 0.0
C1652 C 0.20706 0.38886 0.30458 0.0
C1653 C 0.19063 0.39476 0.30644 0.0
C1654 C 0.20378 0.36919 0.31865 0.0
C1655 C 0.18408 0.35504 0.33532 0.0
C1656 C 0.16758 0.36093 0.3368 0.0
C1657 C 0.17076 0.38042 0.32241 0.0
C1658 C 0.15674 0.29576 0.36678 0.0
C1659 C 0.17471 0.29482 0.38017 0.0
C1660 C 0.15974 0.3152 0.35235 0.0
C1661 C 0.18078 0.33435 0.35126 0.0
C1662 C 0.19862 0.33349 0.36551 0.0
C1663 C 0.19565 0.31397 0.37958 0.0
H1664 H 0.63113 0.83012 0.29051 0.0
H1665 H 0.65044 0.78166 0.31135 0.0
H1666 H 0.66512 0.8587 0.3154 0.0
H1667 H 0.68378 0.80982 0.33759 0.0
H1668 H 0.7518 0.86899 0.35719 0.0
H1669 H 0.71855 0.84063 0.33078 0.0
H1670 H 0.6827 0.87212 0.3651 0.0
H1671 H 0.71632 0.90105 0.39012 0.0
C1672 C 0.64264 0.82557 0.30039 0.0
C1673 C 0.63809 0.80362 0.29877 0.0
C1674 C 0.66207 0.84192 0.31504 0.0
C1675 C 0.67732 0.8367 0.32888 0.0
C1676 C 0.67276 0.81471 0.32686 0.0
C1677 C 0.65352 0.79846 0.31184 0.0
C1678 C 0.73677 0.86975 0.35933 0.0
C1679 C 0.73674 0.8873 0.3758 0.0
C1680 C 0.71759 0.8534 0.34421 0.0
C1681 C 0.69775 0.85398 0.3455 0.0
C1682 C 0.69767 0.87128 0.36281 0.0
C1683 C 0.71693 0.88779 0.37755 0.0
H1684 H 0.2061 0.80174 0.32221 0.0
H1685 H 0.24099 0.87012 0.29273 0.0
H1686 H 0.17779 0.80716 0.34755 0.0
H1687 H 0.21213 0.87539 0.31647 0.0
H1688 H 0.16926 0.8852 0.38882 0.0
H1689 H 0.19773 0.87917 0.36511 0.0
H1690 H 0.14799 0.81238 0.34027 0.0
H1691 H 0.11995 0.81814 0.36552 0.0
C1692 C 0.20747 0.81784 0.32055 0.0
C1693 C 0.2258 0.83548 0.30543 0.0
C1694 C 0.19117 0.82099 0.33506 0.0
C1695 C 0.19255 0.8418 0.33439 0.0
C1696 C 0.21063 0.85926 0.31832 0.0
C1697 C 0.22711 0.85619 0.3043 0.0
C1698 C 0.16451 0.86916 0.37862 0.0
C1699 C 0.14236 0.85213 0.37924 0.0
C1700 C 0.1808 0.86573 0.36463 0.0
C1701 C 0.17531 0.84529 0.35038 0.0
C1702 C 0.15309 0.82823 0.35138 0.0
C1703 C 0.13691 0.83156 0.36582 0.0
H1704 H 0.72088 0.81574 0.86393 0.0
H1705 H 0.73866 0.88255 0.88884 0.0
H1706 H 0.68708 0.81022 0.83893 0.0
H1707 H 0.70419 0.87675 0.86528 0.0
H1708 H 0.65172 0.86814 0.79322 0.0
H1709 H 0.68594 0.87328 0.81656 0.0
H1710 H 0.65202 0.80495 0.84712 0.0
H1711 H 0.61819 0.79966 0.82227 0.0
C1712 C 0.71737 0.82916 0.8646 0.0
C1713 C 0.73249 0.84959 0.87845 0.0
C1714 C 0.69785 0.82596 0.85031 0.0
C1715 C 0.6927 0.84301 0.84986 0.0
C1716 C 0.70767 0.86333 0.86443 0.0
C1717 C 0.72739 0.86662 0.87831 0.0
C1718 C 0.65167 0.85416 0.80459 0.0
C1719 C 0.63223 0.83346 0.80574 0.0
C1720 C 0.67128 0.85716 0.81837 0.0
C1721 C 0.67191 0.83962 0.83415 0.0
C1722 C 0.65244 0.81883 0.83484 0.0
C1723 C 0.63293 0.81576 0.82062 0.0
H1724 H 0.15944 0.78056 0.8181 0.0
H1725 H 0.22688 0.82936 0.79582 0.0
H1726 H 0.154 0.80881 0.84337 0.0
H1727 H 0.2212 0.858 0.8197 0.0
H1728 H 0.21227 0.901 0.89291 0.0
H1729 H 0.21719 0.87198 0.86889 0.0
H1730 H 0.14953 0.83922 0.83554 0.0
H1731 H 0.14442 0.86771 0.861 0.0
C1732 C 0.17303 0.79744 0.81808 0.0
C1733 C 0.19361 0.80268 0.8049 0.0
C1734 C 0.16988 0.81374 0.83252 0.0
C1735 C 0.18714 0.83585 0.83383 0.0
C1736 C 0.20761 0.84114 0.81989 0.0
C1737 C 0.21084 0.82475 0.80583 0.0
C1738 C 0.19838 0.88745 0.88075 0.0
C1739 C 0.17793 0.88664 0.879 0.0
C1740 C 0.20126 0.87088 0.86659 0.0
C1741 C 0.18385 0.8532 0.84985 0.0
C1742 C 0.16328 0.8523 0.84854 0.0
C1743 C 0.16033 0.86871 0.86312 0.0
H1744 H 0.25206 0.38552 0.81544 0.0
H1745 H 0.20333 0.40336 0.78911 0.0
H1746 H 0.22372 0.35233 0.84176 0.0
H1747 H 0.17456 0.36944 0.81392 0.0
H1748 H 0.13056 0.3184 0.88753 0.0
H1749 H 0.15974 0.35208 0.86297 0.0
H1750 H 0.19377 0.31727 0.83536 0.0
H1751 H 0.16515 0.28405 0.86151 0.0
C1752 C 0.23517 0.38213 0.81474 0.0
C1753 C 0.22997 0.39711 0.80011 0.0
C1754 C 0.2188 0.36296 0.82979 0.0
C1755 C 0.19665 0.35799 0.83022 0.0
C1756 C 0.19142 0.3728 0.81485 0.0
C1757 C 0.20789 0.39219 0.80024 0.0
C1758 C 0.14444 0.31806 0.87655 0.0
C1759 C 0.14557 0.29856 0.87663 0.0
C1760 C 0.1611 0.33734 0.86206 0.0
C1761 C 0.1792 0.33757 0.84673 0.0
C1762 C 0.18039 0.31803 0.84726 0.0
C1763 C 0.1639 0.29886 0.86223 0.0
H1764 H 0.89204 0.73677 0.62281 0.0
H1765 H 0.825 0.71834 0.64712 0.0
H1766 H 0.88647 0.70237 0.64633 0.0
H1767 H 0.81971 0.68463 0.67223 0.0
H1768 H 0.80978 0.61608 0.69011 0.0
H1769 H 0.81473 0.64972 0.66494 0.0
H1770 H 0.8832 0.68414 0.69469 0.0
H1771 H 0.8784 0.65009 0.71821 0.0
C1772 C 0.87611 0.72536 0.63322 0.0
C1773 C 0.85894 0.73027 0.63291 0.0
C1774 C 0.87294 0.70569 0.64709 0.0
C1775 C 0.85264 0.69056 0.66158 0.0
C1776 C 0.83545 0.69551 0.66093 0.0
C1777 C 0.83851 0.71497 0.64658 0.0
C1778 C 0.82584 0.6309 0.6915 0.0
C1779 C 0.84368 0.63039 0.70618 0.0
C1780 C 0.82871 0.6503 0.6771 0.0
C1781 C 0.84945 0.66986 0.67745 0.0
C1782 C 0.86712 0.66941 0.69308 0.0
C1783 C 0.86432 0.6499 0.70698 0.0
H1784 H 0.32177 0.12481 0.62044 0.0
H1785 H 0.28705 0.1579 0.65221 0.0
H1786 H 0.35562 0.15375 0.64492 0.0
H1787 H 0.32056 0.18633 0.67805 0.0
H1788 H 0.38926 0.24511 0.69551 0.0
H1789 H 0.35553 0.21681 0.67028 0.0
H1790 H 0.37339 0.16764 0.69449 0.0
H1791 H 0.40775 0.19632 0.7184 0.0
C1792 C 0.32137 0.1383 0.63264 0.0
C1793 C 0.30171 0.13907 0.63422 0.0
C1794 C 0.34077 0.15482 0.64707 0.0
C1795 C 0.34097 0.17244 0.66387 0.0
C1796 C 0.32128 0.17329 0.66501 0.0
C1797 C 0.30197 0.15692 0.65022 0.0
C1798 C 0.38592 0.22822 0.69571 0.0
C1799 C 0.40124 0.223 0.70902 0.0
C1800 C 0.36645 0.2119 0.68127 0.0
C1801 C 0.36157 0.18978 0.68007 0.0
C1802 C 0.37669 0.1845 0.69422 0.0
C1803 C 0.39633 0.20091 0.70831 0.0
H1804 H 0.86718 0.13907 0.63023 0.0
H1805 H 0.91631 0.20625 0.65334 0.0
H1806 H 0.83857 0.14512 0.65337 0.0
H1807 H 0.88807 0.21205 0.67779 0.0
H1808 H 0.82951 0.22233 0.69424 0.0
H1809 H 0.85786 0.21687 0.66907 0.0
H1810 H 0.82452 0.14923 0.70267 0.0
H1811 H 0.79567 0.15451 0.72649 0.0
C1812 C 0.87187 0.15514 0.64021 0.0
C1813 C 0.89403 0.17218 0.63979 0.0
C1814 C 0.85549 0.15858 0.65384 0.0
C1815 C 0.86089 0.17906 0.66782 0.0
C1816 C 0.88308 0.19616 0.66691 0.0
C1817 C 0.89937 0.1928 0.65293 0.0
C1818 C 0.82834 0.20635 0.69647 0.0
C1819 C 0.81031 0.18887 0.71241 0.0
C1820 C 0.84467 0.20319 0.68207 0.0
C1821 C 0.84357 0.18253 0.68355 0.0
C1822 C 0.82577 0.16523 0.70028 0.0
C1823 C 0.8093 0.16832 0.71431 0.0
H1824 H 0.0738 0.55095 0.55223 0.0
H1825 H 0.05817 0.48587 0.52074 0.0
H1826 H 0.03931 0.54522 0.52882 0.0
H1827 H 0.02434 0.48049 0.49597 0.0
H1828 H 0.95504 0.4691 0.47933 0.0
H1829 H 0.98874 0.47404 0.50429 0.0
H1830 H 0.022 0.54346 0.47968 0.0
H1831 H 0.98794 0.53859 0.45618 0.0
C1832 C 0.06299 0.53541 0.54032 0.0
C1833 C 0.06872 0.51886 0.5385 0.0
C1834 C 0.04328 0.53218 0.52653 0.0
C1835 C 0.02893 0.51241 0.51013 0.0
C1836 C 0.03465 0.49578 0.50874 0.0
C1837 C 0.05418 0.49891 0.5229 0.0
C1838 C 0.96962 0.48537 0.479 0.0
C1839 C 0.96878 0.50344 0.46575 0.0
C1840 C 0.98904 0.48824 0.49329 0.0
C1841 C 1.00826 0.50922 0.49433 0.0
C1842 C 1.0075 0.52715 0.48015 0.0
C1843 C 0.988 0.52432 0.46628 0.0
H1844 H 0.54737 0.57889 0.52896 0.0
H1845 H 0.47986 0.52998 0.55057 0.0
H1846 H 0.55284 0.55084 0.50312 0.0
H1847 H 0.48558 0.50148 0.52624 0.0
H1848 H 0.49462 0.45851 0.45326 0.0
H1849 H 0.48961 0.48746 0.47735 0.0
H1850 H 0.55744 0.52061 0.51002 0.0
H1851 H 0.56264 0.49226 0.48437 0.0
C1852 C 0.53378 0.56201 0.52875 0.0
C1853 C 0.51317 0.55669 0.54189 0.0
C1854 C 0.53694 0.54582 0.51396 0.0
C1855 C 0.51968 0.52371 0.51233 0.0
C1856 C 0.49919 0.51834 0.52626 0.0
C1857 C 0.49593 0.53464 0.5406 0.0
C1858 C 0.50853 0.47216 0.46524 0.0
C1859 C 0.52906 0.47312 0.46674 0.0
C1860 C 0.5056 0.48868 0.47946 0.0
C1861 C 0.52302 0.50645 0.49608 0.0
C1862 C 0.54366 0.50749 0.4971 0.0
C1863 C 0.54667 0.49115 0.48242 0.0
H1864 H 0.585 0.0499 0.48046 0.0
H1865 H 0.5363 0.06802 0.45521 0.0
H1866 H 0.55673 0.01673 0.5069 0.0
H1867 H 0.50759 0.03411 0.48013 0.0
H1868 H 0.46401 0.98325 0.55425 0.0
H1869 H 0.49308 0.01682 0.52933 0.0
H1870 H 0.52664 0.98173 0.50083 0.0
H1871 H 0.49814 0.9486 0.52735 0.0
C1872 C 0.56813 0.04657 0.48 0.0
C1873 C 0.56293 0.06163 0.46566 0.0
C1874 C 0.5518 0.02741 0.49512 0.0
C1875 C 0.52969 0.02253 0.49592 0.0
C1876 C 0.52444 0.0374 0.48078 0.0
C1877 C 0.54087 0.05678 0.4661 0.0
C1878 C 0.47776 0.98282 0.543 0.0
C1879 C 0.4788 0.96327 0.54295 0.0
C1880 C 0.49436 1.00205 0.5283 0.0
C1881 C 0.5123 1.00216 0.51261 0.0
C1882 C 0.5134 0.98257 0.513 0.0
C1883 C 0.49698 0.96346 0.52819 0.0
H1884 H 0.49592 0.04626 0.95636 0.0
H1885 H 0.56435 0.08046 0.9856 0.0
H1886 H 0.49098 1.01235 0.98068 0.0
H1887 H 0.55926 0.04686 0.01117 0.0
H1888 H 0.54843 0.97766 0.02763 0.0
H1889 H 0.55393 1.01148 1.00258 0.0
H1890 H 0.48793 0.99503 0.03073 0.0
H1891 H 0.48215 0.96062 0.05458 0.0
C1892 C 0.50994 0.04653 0.96796 0.0
C1893 C 0.53055 0.06607 0.96891 0.0
C1894 C 0.50705 0.0271 0.98228 0.0
C1895 C 0.52464 0.02674 0.99829 0.0
C1896 C 0.54536 0.04629 0.99877 0.0
C1897 C 0.5483 0.06565 0.98412 0.0
C1898 C 0.53513 0.98132 0.02872 0.0
C1899 C 0.51484 0.96639 0.04315 0.0
C1900 C 0.53832 1.00084 0.0144 0.0
C1901 C 0.52138 1.00612 0.01437 0.0
C1902 C 0.50124 0.9914 0.02959 0.0
C1903 C 0.49797 0.97173 0.04362 0.0
H1904 H 0.98786 0.45795 0.95163 0.0
H1905 H 0.95259 0.49098 0.98111 0.0
H1906 H 0.02128 0.48687 0.97709 0.0
H1907 H 0.98565 0.51938 0.00792 0.0
H1908 H 0.05391 0.57803 0.02795 0.0
H1909 H 0.02079 0.54988 1.00123 0.0
H1910 H 0.03809 0.50057 0.02729 0.0
H1911 H 0.07186 0.52911 0.05272 0.0
C1912 C 0.98725 0.47142 0.96354 0.0
C1913 C 0.96756 0.47218 0.96421 0.0
C1914 C 1.00639 0.48793 0.97852 0.0
C1915 C 1.0063 0.50551 0.99498 0.0
C1916 C 0.9866 0.50637 0.99518 0.0
C1917 C 0.96754 0.49001 0.97983 0.0
C1918 C 0.05059 0.56115 0.02819 0.0
C1919 C 0.06557 0.55584 0.04253 0.0
C1920 C 0.03146 0.5449 0.0129 0.0
C1921 C 0.0266 0.52279 0.01185 0.0
C1922 C 0.0414 0.51743 0.0269 0.0
C1923 C 0.0607 0.53377 0.04185 0.0
H1924 H 0.54151 0.46899 0.98383 0.0
H1925 H 0.57466 0.53664 0.95084 0.0
H1926 H 0.51325 0.47432 0.00952 0.0
H1927 H 0.54585 0.54178 0.97516 0.0
H1928 H 0.45475 0.48437 0.02715 0.0
H1929 H 0.48283 0.4788 1.0016 0.0
H1930 H 0.5322 0.54605 0.02468 0.0
H1931 H 0.50372 0.55185 0.04889 0.0
C1932 C 0.54253 0.4849 0.98153 0.0
C1933 C 0.56035 0.50238 0.96526 0.0
C1934 C 0.52625 0.48798 0.99623 0.0
C1935 C 0.52717 0.50856 0.99469 0.0
C1936 C 0.54474 0.52585 0.9776 0.0
C1937 C 0.56118 0.52284 0.96328 0.0
C1938 C 0.47163 0.49794 0.027 0.0
C1939 C 0.47697 0.51856 0.04011 0.0
C1940 C 0.48783 0.49472 0.01239 0.0
C1941 C 0.50993 0.51195 0.01084 0.0
C1942 C 0.51534 0.53247 0.02471 0.0
C1943 C 0.49904 0.53577 0.03895 0.0
loop_
_geom_bond_atom_site_label_1
_geom_bond_atom_site_label_2
_geom_bond_distance
_geom_bond_site_symmetry_2
_ccdc_geom_bond_type
O0 Cd1 2.223 . S
O0 C8 1.315 . S
Cd1 O0 2.223 . S
Cd1 O4 2.297 . S
Cd1 O5 2.439 . S
Cd1 O11 2.240 . S
Cd2 O3 2.240 . S
Cd2 O10 2.223 . S
Cd2 O12 2.297 . S
Cd2 O13 2.439 . S
O3 Cd2 2.240 . S
O3 C8 1.279 . S
O4 Cd1 2.297 . S
O4 C6 1.247 . S
O5 Cd1 2.439 . S
O5 C6 1.208 . S
C6 O4 1.247 . S
C6 O5 1.208 . S
C7 O12 1.247 . S
C7 O13 1.208 . S
C8 O0 1.315 . S
C8 O3 1.279 . S
C9 O10 1.315 . S
C9 O11 1.279 . S
O10 Cd2 2.223 . S
O10 C9 1.315 . S
O11 Cd1 2.240 . S
O11 C9 1.279 . S
O12 Cd2 2.297 . S
O12 C7 1.247 . S
O13 Cd2 2.439 . S
O13 C7 1.208 . S
O14 Cd15 2.223 . S
O14 C22 1.315 . S
Cd15 O14 2.223 . S
Cd15 O18 2.297 . S
Cd15 O19 2.439 . S
Cd15 O25 2.240 . S
Cd16 O17 2.240 . S
Cd16 O24 2.223 . S
Cd16 O26 2.297 . S
Cd16 O27 2.439 . S
O17 Cd16 2.240 . S
O17 C22 1.279 . S
O18 Cd15 2.297 . S
O18 C20 1.247 . S
O19 Cd15 2.439 . S
O19 C20 1.208 . S
C20 O18 1.247 . S
C20 O19 1.208 . S
C21 O26 1.247 . S
C21 O27 1.208 . S
C22 O14 1.315 . S
C22 O17 1.279 . S
C23 O24 1.315 . S
C23 O25 1.279 . S
O24 Cd16 2.223 . S
O24 C23 1.315 . S
O25 Cd15 2.240 . S
O25 C23 1.279 . S
O26 Cd16 2.297 . S
O26 C21 1.247 . S
O27 Cd16 2.439 . S
O27 C21 1.208 . S
O28 Cd29 2.223 . S
O28 C36 1.315 . S
Cd29 O28 2.223 . S
Cd29 O32 2.297 . S
Cd29 O33 2.439 . S
Cd29 O39 2.240 . S
Cd30 O31 2.240 . S
Cd30 O38 2.223 . S
Cd30 O40 2.297 . S
Cd30 O41 2.439 . S
O31 Cd30 2.240 . S
O31 C36 1.279 . S
O32 Cd29 2.297 . S
O32 C34 1.247 . S
O33 Cd29 2.439 . S
O33 C34 1.208 . S
C34 O32 1.247 . S
C34 O33 1.208 . S
C35 O40 1.247 . S
C35 O41 1.208 . S
C36 O28 1.315 . S
C36 O31 1.279 . S
C37 O38 1.315 . S
C37 O39 1.279 . S
O38 Cd30 2.223 . S
O38 C37 1.315 . S
O39 Cd29 2.240 . S
O39 C37 1.279 . S
O40 Cd30 2.297 . S
O40 C35 1.247 . S
O41 Cd30 2.439 . S
O41 C35 1.208 . S
O42 Cd43 2.223 . S
O42 C50 1.315 . S
Cd43 O42 2.223 . S
Cd43 O46 2.297 . S
Cd43 O47 2.439 . S
Cd43 O53 2.240 . S
Cd44 O45 2.240 . S
Cd44 O52 2.223 . S
Cd44 O54 2.297 . S
Cd44 O55 2.439 . S
O45 Cd44 2.240 . S
O45 C50 1.279 . S
O46 Cd43 2.297 . S
O46 C48 1.247 . S
O47 Cd43 2.439 . S
O47 C48 1.208 . S
C48 O46 1.247 . S
C48 O47 1.208 . S
C49 O54 1.247 . S
C49 O55 1.208 . S
C50 O42 1.315 . S
C50 O45 1.279 . S
C51 O52 1.315 . S
C51 O53 1.279 . S
O52 Cd44 2.223 . S
O52 C51 1.315 . S
O53 Cd43 2.240 . S
O53 C51 1.279 . S
O54 Cd44 2.297 . S
O54 C49 1.247 . S
O55 Cd44 2.439 . S
O55 C49 1.208 . S
O56 Cd57 2.223 . S
O56 C64 1.315 . S
Cd57 O56 2.223 . S
Cd57 O60 2.297 . S
Cd57 O61 2.439 . S
Cd57 O67 2.240 . S
Cd58 O59 2.240 . S
Cd58 O66 2.223 . S
Cd58 O68 2.297 . S
Cd58 O69 2.439 . S
O59 Cd58 2.240 . S
O59 C64 1.279 . S
O60 Cd57 2.297 . S
O60 C62 1.247 . S
O61 Cd57 2.439 . S
O61 C62 1.208 . S
C62 O60 1.247 . S
C62 O61 1.208 . S
C63 O68 1.247 . S
C63 O69 1.208 . S
C64 O56 1.315 . S
C64 O59 1.279 . S
C65 O66 1.315 . S
C65 O67 1.279 . S
O66 Cd58 2.223 . S
O66 C65 1.315 . S
O67 Cd57 2.240 . S
O67 C65 1.279 . S
O68 Cd58 2.297 . S
O68 C63 1.247 . S
O69 Cd58 2.439 . S
O69 C63 1.208 . S
O70 Cd71 2.223 . S
O70 C78 1.315 . S
Cd71 O70 2.223 . S
Cd71 O74 2.297 . S
Cd71 O75 2.439 . S
Cd71 O81 2.240 . S
Cd72 O73 2.240 . S
Cd72 O80 2.223 . S
Cd72 O82 2.297 . S
Cd72 O83 2.439 . S
O73 Cd72 2.240 . S
O73 C78 1.279 . S
O74 Cd71 2.297 . S
O74 C76 1.247 . S
O75 Cd71 2.439 . S
O75 C76 1.208 . S
C76 O74 1.247 . S
C76 O75 1.208 . S
C77 O82 1.247 . S
C77 O83 1.208 . S
C78 O70 1.315 . S
C78 O73 1.279 . S
C79 O80 1.315 . S
C79 O81 1.279 . S
O80 Cd72 2.223 . S
O80 C79 1.315 . S
O81 Cd71 2.240 . S
O81 C79 1.279 . S
O82 Cd72 2.297 . S
O82 C77 1.247 . S
O83 Cd72 2.439 . S
O83 C77 1.208 . S
O84 Cd85 2.223 . S
O84 C92 1.315 . S
Cd85 O84 2.223 . S
Cd85 O88 2.297 . S
Cd85 O89 2.439 . S
Cd85 O95 2.240 . S
Cd86 O87 2.240 . S
Cd86 O94 2.223 . S
Cd86 O96 2.297 . S
Cd86 O97 2.439 . S
O87 Cd86 2.240 . S
O87 C92 1.279 . S
O88 Cd85 2.297 . S
O88 C90 1.247 . S
O89 Cd85 2.439 . S
O89 C90 1.208 . S
C90 O88 1.247 . S
C90 O89 1.208 . S
C91 O96 1.247 . S
C91 O97 1.208 . S
C92 O84 1.315 . S
C92 O87 1.279 . S
C93 O94 1.315 . S
C93 O95 1.279 . S
O94 Cd86 2.223 . S
O94 C93 1.315 . S
O95 Cd85 2.240 . S
O95 C93 1.279 . S
O96 Cd86 2.297 . S
O96 C91 1.247 . S
O97 Cd86 2.439 . S
O97 C91 1.208 . S
O98 Cd99 2.223 . S
O98 C106 1.315 . S
Cd99 O98 2.223 . S
Cd99 O102 2.297 . S
Cd99 O103 2.439 . S
Cd99 O109 2.240 . S
Cd100 O101 2.240 . S
Cd100 O108 2.223 . S
Cd100 O110 2.297 . S
Cd100 O111 2.439 . S
O101 Cd100 2.240 . S
O101 C106 1.279 . S
O102 Cd99 2.297 . S
O102 C104 1.247 . S
O103 Cd99 2.439 . S
O103 C104 1.208 . S
C104 O102 1.247 . S
C104 O103 1.208 . S
C105 O110 1.247 . S
C105 O111 1.208 . S
C106 O98 1.315 . S
C106 O101 1.279 . S
C107 O108 1.315 . S
C107 O109 1.279 . S
O108 Cd100 2.223 . S
O108 C107 1.315 . S
O109 Cd99 2.240 . S
O109 C107 1.279 . S
O110 Cd100 2.297 . S
O110 C105 1.247 . S
O111 Cd100 2.439 . S
O111 C105 1.208 . S
O112 Cd113 2.223 . S
O112 C120 1.315 . S
Cd113 O112 2.223 . S
Cd113 O116 2.297 . S
Cd113 O117 2.439 . S
Cd113 O123 2.240 . S
Cd114 O115 2.240 . S
Cd114 O122 2.223 . S
Cd114 O124 2.297 . S
Cd114 O125 2.439 . S
O115 Cd114 2.240 . S
O115 C120 1.279 . S
O116 Cd113 2.297 . S
O116 C118 1.247 . S
O117 Cd113 2.439 . S
O117 C118 1.208 . S
C118 O116 1.247 . S
C118 O117 1.208 . S
C119 O124 1.247 . S
C119 O125 1.208 . S
C120 O112 1.315 . S
C120 O115 1.279 . S
C121 O122 1.315 . S
C121 O123 1.279 . S
O122 Cd114 2.223 . S
O122 C121 1.315 . S
O123 Cd113 2.240 . S
O123 C121 1.279 . S
O124 Cd114 2.297 . S
O124 C119 1.247 . S
O125 Cd114 2.439 . S
O125 C119 1.208 . S
O126 Cd127 2.223 . S
O126 C134 1.315 . S
Cd127 O126 2.223 . S
Cd127 O130 2.297 . S
Cd127 O131 2.439 . S
Cd127 O137 2.240 . S
Cd128 O129 2.240 . S
Cd128 O136 2.223 . S
Cd128 O138 2.297 . S
Cd128 O139 2.439 . S
O129 Cd128 2.240 . S
O129 C134 1.279 . S
O130 Cd127 2.297 . S
O130 C132 1.247 . S
O131 Cd127 2.439 . S
O131 C132 1.208 . S
C132 O130 1.247 . S
C132 O131 1.208 . S
C133 O138 1.247 . S
C133 O139 1.208 . S
C134 O126 1.315 . S
C134 O129 1.279 . S
C135 O136 1.315 . S
C135 O137 1.279 . S
O136 Cd128 2.223 . S
O136 C135 1.315 . S
O137 Cd127 2.240 . S
O137 C135 1.279 . S
O138 Cd128 2.297 . S
O138 C133 1.247 . S
O139 Cd128 2.439 . S
O139 C133 1.208 . S
O140 Cd141 2.223 . S
O140 C148 1.315 . S
Cd141 O140 2.223 . S
Cd141 O144 2.297 . S
Cd141 O145 2.439 . S
Cd141 O151 2.240 . S
Cd142 O143 2.240 . S
Cd142 O150 2.223 . S
Cd142 O152 2.297 . S
Cd142 O153 2.439 . S
O143 Cd142 2.240 . S
O143 C148 1.279 . S
O144 Cd141 2.297 . S
O144 C146 1.247 . S
O145 Cd141 2.439 . S
O145 C146 1.208 . S
C146 O144 1.247 . S
C146 O145 1.208 . S
C147 O152 1.247 . S
C147 O153 1.208 . S
C148 O140 1.315 . S
C148 O143 1.279 . S
C149 O150 1.315 . S
C149 O151 1.279 . S
O150 Cd142 2.223 . S
O150 C149 1.315 . S
O151 Cd141 2.240 . S
O151 C149 1.279 . S
O152 Cd142 2.297 . S
O152 C147 1.247 . S
O153 Cd142 2.439 . S
O153 C147 1.208 . S
O154 Cd155 2.223 . S
O154 C162 1.315 . S
Cd155 O154 2.223 . S
Cd155 O158 2.297 . S
Cd155 O159 2.439 . S
Cd155 O165 2.240 . S
Cd156 O157 2.240 . S
Cd156 O164 2.223 . S
Cd156 O166 2.297 . S
Cd156 O167 2.439 . S
O157 Cd156 2.240 . S
O157 C162 1.279 . S
O158 Cd155 2.297 . S
O158 C160 1.247 . S
O159 Cd155 2.439 . S
O159 C160 1.208 . S
C160 O158 1.247 . S
C160 O159 1.208 . S
C161 O166 1.247 . S
C161 O167 1.208 . S
C162 O154 1.315 . S
C162 O157 1.279 . S
C163 O164 1.315 . S
C163 O165 1.279 . S
O164 Cd156 2.223 . S
O164 C163 1.315 . S
O165 Cd155 2.240 . S
O165 C163 1.279 . S
O166 Cd156 2.297 . S
O166 C161 1.247 . S
O167 Cd156 2.439 . S
O167 C161 1.208 . S
O168 Cd169 2.223 . S
O168 C176 1.315 . S
Cd169 O168 2.223 . S
Cd169 O172 2.297 . S
Cd169 O173 2.439 . S
Cd169 O179 2.240 . S
Cd170 O171 2.240 . S
Cd170 O178 2.223 . S
Cd170 O180 2.297 . S
Cd170 O181 2.439 . S
O171 Cd170 2.240 . S
O171 C176 1.279 . S
O172 Cd169 2.297 . S
O172 C174 1.247 . S
O173 Cd169 2.439 . S
O173 C174 1.208 . S
C174 O172 1.247 . S
C174 O173 1.208 . S
C175 O180 1.247 . S
C175 O181 1.208 . S
C176 O168 1.315 . S
C176 O171 1.279 . S
C177 O178 1.315 . S
C177 O179 1.279 . S
O178 Cd170 2.223 . S
O178 C177 1.315 . S
O179 Cd169 2.240 . S
O179 C177 1.279 . S
O180 Cd170 2.297 . S
O180 C175 1.247 . S
O181 Cd170 2.439 . S
O181 C175 1.208 . S
O182 Cd183 2.223 . S
O182 C190 1.315 . S
Cd183 O182 2.223 . S
Cd183 O186 2.297 . S
Cd183 O187 2.439 . S
Cd183 O193 2.240 . S
Cd184 O185 2.240 . S
Cd184 O192 2.223 . S
Cd184 O194 2.297 . S
Cd184 O195 2.439 . S
O185 Cd184 2.240 . S
O185 C190 1.279 . S
O186 Cd183 2.297 . S
O186 C188 1.247 . S
O187 Cd183 2.439 . S
O187 C188 1.208 . S
C188 O186 1.247 . S
C188 O187 1.208 . S
C189 O194 1.247 . S
C189 O195 1.208 . S
C190 O182 1.315 . S
C190 O185 1.279 . S
C191 O192 1.315 . S
C191 O193 1.279 . S
O192 Cd184 2.223 . S
O192 C191 1.315 . S
O193 Cd183 2.240 . S
O193 C191 1.279 . S
O194 Cd184 2.297 . S
O194 C189 1.247 . S
O195 Cd184 2.439 . S
O195 C189 1.208 . S
O196 Cd197 2.223 . S
O196 C204 1.315 . S
Cd197 O196 2.223 . S
Cd197 O200 2.297 . S
Cd197 O201 2.439 . S
Cd197 O207 2.240 . S
Cd198 O199 2.240 . S
Cd198 O206 2.223 . S
Cd198 O208 2.297 . S
Cd198 O209 2.439 . S
O199 Cd198 2.240 . S
O199 C204 1.279 . S
O200 Cd197 2.297 . S
O200 C202 1.247 . S
O201 Cd197 2.439 . S
O201 C202 1.208 . S
C202 O200 1.247 . S
C202 O201 1.208 . S
C203 O208 1.247 . S
C203 O209 1.208 . S
C204 O196 1.315 . S
C204 O199 1.279 . S
C205 O206 1.315 . S
C205 O207 1.279 . S
O206 Cd198 2.223 . S
O206 C205 1.315 . S
O207 Cd197 2.240 . S
O207 C205 1.279 . S
O208 Cd198 2.297 . S
O208 C203 1.247 . S
O209 Cd198 2.439 . S
O209 C203 1.208 . S
O210 Cd211 2.223 . S
O210 C218 1.315 . S
Cd211 O210 2.223 . S
Cd211 O214 2.297 . S
Cd211 O215 2.439 . S
Cd211 O221 2.240 . S
Cd212 O213 2.240 . S
Cd212 O220 2.223 . S
Cd212 O222 2.297 . S
Cd212 O223 2.439 . S
O213 Cd212 2.240 . S
O213 C218 1.279 . S
O214 Cd211 2.297 . S
O214 C216 1.247 . S
O215 Cd211 2.439 . S
O215 C216 1.208 . S
C216 O214 1.247 . S
C216 O215 1.208 . S
C217 O222 1.247 . S
C217 O223 1.208 . S
C218 O210 1.315 . S
C218 O213 1.279 . S
C219 O220 1.315 . S
C219 O221 1.279 . S
O220 Cd212 2.223 . S
O220 C219 1.315 . S
O221 Cd211 2.240 . S
O221 C219 1.279 . S
O222 Cd212 2.297 . S
O222 C217 1.247 . S
O223 Cd212 2.439 . S
O223 C217 1.208 . S
O224 Cd225 2.223 . S
O224 C232 1.315 . S
Cd225 O224 2.223 . S
Cd225 O228 2.297 . S
Cd225 O229 2.439 . S
Cd225 O235 2.240 . S
Cd226 O227 2.240 . S
Cd226 O234 2.223 . S
Cd226 O236 2.297 . S
Cd226 O237 2.439 . S
O227 Cd226 2.240 . S
O227 C232 1.279 . S
O228 Cd225 2.297 . S
O228 C230 1.247 . S
O229 Cd225 2.439 . S
O229 C230 1.208 . S
C230 O228 1.247 . S
C230 O229 1.208 . S
C231 O236 1.247 . S
C231 O237 1.208 . S
C232 O224 1.315 . S
C232 O227 1.279 . S
C233 O234 1.315 . S
C233 O235 1.279 . S
O234 Cd226 2.223 . S
O234 C233 1.315 . S
O235 Cd225 2.240 . S
O235 C233 1.279 . S
O236 Cd226 2.297 . S
O236 C231 1.247 . S
O237 Cd226 2.439 . S
O237 C231 1.208 . S
O238 Cd239 2.223 . S
O238 C246 1.315 . S
Cd239 O238 2.223 . S
Cd239 O242 2.297 . S
Cd239 O243 2.439 . S
Cd239 O249 2.240 . S
Cd240 O241 2.240 . S
Cd240 O248 2.223 . S
Cd240 O250 2.297 . S
Cd240 O251 2.439 . S
O241 Cd240 2.240 . S
O241 C246 1.279 . S
O242 Cd239 2.297 . S
O242 C244 1.247 . S
O243 Cd239 2.439 . S
O243 C244 1.208 . S
C244 O242 1.247 . S
C244 O243 1.208 . S
C245 O250 1.247 . S
C245 O251 1.208 . S
C246 O238 1.315 . S
C246 O241 1.279 . S
C247 O248 1.315 . S
C247 O249 1.279 . S
O248 Cd240 2.223 . S
O248 C247 1.315 . S
O249 Cd239 2.240 . S
O249 C247 1.279 . S
O250 Cd240 2.297 . S
O250 C245 1.247 . S
O251 Cd240 2.439 . S
O251 C245 1.208 . S
O252 Cd253 2.223 . S
O252 C260 1.315 . S
Cd253 O252 2.223 . S
Cd253 O256 2.297 . S
Cd253 O257 2.439 . S
Cd253 O263 2.240 . S
Cd254 O255 2.240 . S
Cd254 O262 2.223 . S
Cd254 O264 2.297 . S
Cd254 O265 2.439 . S
O255 Cd254 2.240 . S
O255 C260 1.279 . S
O256 Cd253 2.297 . S
O256 C258 1.247 . S
O257 Cd253 2.439 . S
O257 C258 1.208 . S
C258 O256 1.247 . S
C258 O257 1.208 . S
C259 O264 1.247 . S
C259 O265 1.208 . S
C260 O252 1.315 . S
C260 O255 1.279 . S
C261 O262 1.315 . S
C261 O263 1.279 . S
O262 Cd254 2.223 . S
O262 C261 1.315 . S
O263 Cd253 2.240 . S
O263 C261 1.279 . S
O264 Cd254 2.297 . S
O264 C259 1.247 . S
O265 Cd254 2.439 . S
O265 C259 1.208 . S
O266 Cd267 2.223 . S
O266 C274 1.315 . S
Cd267 O266 2.223 . S
Cd267 O270 2.297 . S
Cd267 O271 2.439 . S
Cd267 O277 2.240 . S
Cd268 O269 2.240 . S
Cd268 O276 2.223 . S
Cd268 O278 2.297 . S
Cd268 O279 2.439 . S
O269 Cd268 2.240 . S
O269 C274 1.279 . S
O270 Cd267 2.297 . S
O270 C272 1.247 . S
O271 Cd267 2.439 . S
O271 C272 1.208 . S
C272 O270 1.247 . S
C272 O271 1.208 . S
C273 O278 1.247 . S
C273 O279 1.208 . S
C274 O266 1.315 . S
C274 O269 1.279 . S
C275 O276 1.315 . S
C275 O277 1.279 . S
O276 Cd268 2.223 . S
O276 C275 1.315 . S
O277 Cd267 2.240 . S
O277 C275 1.279 . S
O278 Cd268 2.297 . S
O278 C273 1.247 . S
O279 Cd268 2.439 . S
O279 C273 1.208 . S
O280 Cd281 2.223 . S
O280 C288 1.315 . S
Cd281 O280 2.223 . S
Cd281 O284 2.297 . S
Cd281 O285 2.439 . S
Cd281 O291 2.240 . S
Cd282 O283 2.240 . S
Cd282 O290 2.223 . S
Cd282 O292 2.297 . S
Cd282 O293 2.439 . S
O283 Cd282 2.240 . S
O283 C288 1.279 . S
O284 Cd281 2.297 . S
O284 C286 1.247 . S
O285 Cd281 2.439 . S
O285 C286 1.208 . S
C286 O284 1.247 . S
C286 O285 1.208 . S
C287 O292 1.247 . S
C287 O293 1.208 . S
C288 O280 1.315 . S
C288 O283 1.279 . S
C289 O290 1.315 . S
C289 O291 1.279 . S
O290 Cd282 2.223 . S
O290 C289 1.315 . S
O291 Cd281 2.240 . S
O291 C289 1.279 . S
O292 Cd282 2.297 . S
O292 C287 1.247 . S
O293 Cd282 2.439 . S
O293 C287 1.208 . S
O294 Cd295 2.223 . S
O294 C302 1.315 . S
Cd295 O294 2.223 . S
Cd295 O298 2.297 . S
Cd295 O299 2.439 . S
Cd295 O305 2.240 . S
Cd296 O297 2.240 . S
Cd296 O304 2.223 . S
Cd296 O306 2.297 . S
Cd296 O307 2.439 . S
O297 Cd296 2.240 . S
O297 C302 1.279 . S
O298 Cd295 2.297 . S
O298 C300 1.247 . S
O299 Cd295 2.439 . S
O299 C300 1.208 . S
C300 O298 1.247 . S
C300 O299 1.208 . S
C301 O306 1.247 . S
C301 O307 1.208 . S
C302 O294 1.315 . S
C302 O297 1.279 . S
C303 O304 1.315 . S
C303 O305 1.279 . S
O304 Cd296 2.223 . S
O304 C303 1.315 . S
O305 Cd295 2.240 . S
O305 C303 1.279 . S
O306 Cd296 2.297 . S
O306 C301 1.247 . S
O307 Cd296 2.439 . S
O307 C301 1.208 . S
O308 Cd309 2.223 . S
O308 C316 1.315 . S
Cd309 O308 2.223 . S
Cd309 O312 2.297 . S
Cd309 O313 2.439 . S
Cd309 O319 2.240 . S
Cd310 O311 2.240 . S
Cd310 O318 2.223 . S
Cd310 O320 2.297 . S
Cd310 O321 2.439 . S
O311 Cd310 2.240 . S
O311 C316 1.279 . S
O312 Cd309 2.297 . S
O312 C314 1.247 . S
O313 Cd309 2.439 . S
O313 C314 1.208 . S
C314 O312 1.247 . S
C314 O313 1.208 . S
C315 O320 1.247 . S
C315 O321 1.208 . S
C316 O308 1.315 . S
C316 O311 1.279 . S
C317 O318 1.315 . S
C317 O319 1.279 . S
O318 Cd310 2.223 . S
O318 C317 1.315 . S
O319 Cd309 2.240 . S
O319 C317 1.279 . S
O320 Cd310 2.297 . S
O320 C315 1.247 . S
O321 Cd310 2.439 . S
O321 C315 1.208 . S
O322 Cd323 2.223 . S
O322 C330 1.315 . S
Cd323 O322 2.223 . S
Cd323 O326 2.297 . S
Cd323 O327 2.439 . S
Cd323 O333 2.240 . S
Cd324 O325 2.240 . S
Cd324 O332 2.223 . S
Cd324 O334 2.297 . S
Cd324 O335 2.439 . S
O325 Cd324 2.240 . S
O325 C330 1.279 . S
O326 Cd323 2.297 . S
O326 C328 1.247 . S
O327 Cd323 2.439 . S
O327 C328 1.208 . S
C328 O326 1.247 . S
C328 O327 1.208 . S
C329 O334 1.247 . S
C329 O335 1.208 . S
C330 O322 1.315 . S
C330 O325 1.279 . S
C331 O332 1.315 . S
C331 O333 1.279 . S
O332 Cd324 2.223 . S
O332 C331 1.315 . S
O333 Cd323 2.240 . S
O333 C331 1.279 . S
O334 Cd324 2.297 . S
O334 C329 1.247 . S
O335 Cd324 2.439 . S
O335 C329 1.208 . S
O336 Cd337 2.223 . S
O336 C344 1.315 . S
Cd337 O336 2.223 . S
Cd337 O340 2.297 . S
Cd337 O341 2.439 . S
Cd337 O347 2.240 . S
Cd338 O339 2.240 . S
Cd338 O346 2.223 . S
Cd338 O348 2.297 . S
Cd338 O349 2.439 . S
O339 Cd338 2.240 . S
O339 C344 1.279 . S
O340 Cd337 2.297 . S
O340 C342 1.247 . S
O341 Cd337 2.439 . S
O341 C342 1.208 . S
C342 O340 1.247 . S
C342 O341 1.208 . S
C343 O348 1.247 . S
C343 O349 1.208 . S
C344 O336 1.315 . S
C344 O339 1.279 . S
C345 O346 1.315 . S
C345 O347 1.279 . S
O346 Cd338 2.223 . S
O346 C345 1.315 . S
O347 Cd337 2.240 . S
O347 C345 1.279 . S
O348 Cd338 2.297 . S
O348 C343 1.247 . S
O349 Cd338 2.439 . S
O349 C343 1.208 . S
O350 Cd351 2.223 . S
O350 C358 1.315 . S
Cd351 O350 2.223 . S
Cd351 O354 2.297 . S
Cd351 O355 2.439 . S
Cd351 O361 2.240 . S
Cd352 O353 2.240 . S
Cd352 O360 2.223 . S
Cd352 O362 2.297 . S
Cd352 O363 2.439 . S
O353 Cd352 2.240 . S
O353 C358 1.279 . S
O354 Cd351 2.297 . S
O354 C356 1.247 . S
O355 Cd351 2.439 . S
O355 C356 1.208 . S
C356 O354 1.247 . S
C356 O355 1.208 . S
C357 O362 1.247 . S
C357 O363 1.208 . S
C358 O350 1.315 . S
C358 O353 1.279 . S
C359 O360 1.315 . S
C359 O361 1.279 . S
O360 Cd352 2.223 . S
O360 C359 1.315 . S
O361 Cd351 2.240 . S
O361 C359 1.279 . S
O362 Cd352 2.297 . S
O362 C357 1.247 . S
O363 Cd352 2.439 . S
O363 C357 1.208 . S
O364 Cd365 2.223 . S
O364 C372 1.315 . S
Cd365 O364 2.223 . S
Cd365 O368 2.297 . S
Cd365 O369 2.439 . S
Cd365 O375 2.240 . S
Cd366 O367 2.240 . S
Cd366 O374 2.223 . S
Cd366 O376 2.297 . S
Cd366 O377 2.439 . S
O367 Cd366 2.240 . S
O367 C372 1.279 . S
O368 Cd365 2.297 . S
O368 C370 1.247 . S
O369 Cd365 2.439 . S
O369 C370 1.208 . S
C370 O368 1.247 . S
C370 O369 1.208 . S
C371 O376 1.247 . S
C371 O377 1.208 . S
C372 O364 1.315 . S
C372 O367 1.279 . S
C373 O374 1.315 . S
C373 O375 1.279 . S
O374 Cd366 2.223 . S
O374 C373 1.315 . S
O375 Cd365 2.240 . S
O375 C373 1.279 . S
O376 Cd366 2.297 . S
O376 C371 1.247 . S
O377 Cd366 2.439 . S
O377 C371 1.208 . S
O378 Cd379 2.223 . S
O378 C386 1.315 . S
Cd379 O378 2.223 . S
Cd379 O382 2.297 . S
Cd379 O383 2.439 . S
Cd379 O389 2.240 . S
Cd380 O381 2.240 . S
Cd380 O388 2.223 . S
Cd380 O390 2.297 . S
Cd380 O391 2.439 . S
O381 Cd380 2.240 . S
O381 C386 1.279 . S
O382 Cd379 2.297 . S
O382 C384 1.247 . S
O383 Cd379 2.439 . S
O383 C384 1.208 . S
C384 O382 1.247 . S
C384 O383 1.208 . S
C385 O390 1.247 . S
C385 O391 1.208 . S
C386 O378 1.315 . S
C386 O381 1.279 . S
C387 O388 1.315 . S
C387 O389 1.279 . S
O388 Cd380 2.223 . S
O388 C387 1.315 . S
O389 Cd379 2.240 . S
O389 C387 1.279 . S
O390 Cd380 2.297 . S
O390 C385 1.247 . S
O391 Cd380 2.439 . S
O391 C385 1.208 . S
O392 Cd393 2.223 . S
O392 C400 1.315 . S
Cd393 O392 2.223 . S
Cd393 O396 2.297 . S
Cd393 O397 2.439 . S
Cd393 O403 2.240 . S
Cd394 O395 2.240 . S
Cd394 O402 2.223 . S
Cd394 O404 2.297 . S
Cd394 O405 2.439 . S
O395 Cd394 2.240 . S
O395 C400 1.279 . S
O396 Cd393 2.297 . S
O396 C398 1.247 . S
O397 Cd393 2.439 . S
O397 C398 1.208 . S
C398 O396 1.247 . S
C398 O397 1.208 . S
C399 O404 1.247 . S
C399 O405 1.208 . S
C400 O392 1.315 . S
C400 O395 1.279 . S
C401 O402 1.315 . S
C401 O403 1.279 . S
O402 Cd394 2.223 . S
O402 C401 1.315 . S
O403 Cd393 2.240 . S
O403 C401 1.279 . S
O404 Cd394 2.297 . S
O404 C399 1.247 . S
O405 Cd394 2.439 . S
O405 C399 1.208 . S
O406 Cd407 2.223 . S
O406 C414 1.315 . S
Cd407 O406 2.223 . S
Cd407 O410 2.297 . S
Cd407 O411 2.439 . S
Cd407 O417 2.240 . S
Cd408 O409 2.240 . S
Cd408 O416 2.223 . S
Cd408 O418 2.297 . S
Cd408 O419 2.439 . S
O409 Cd408 2.240 . S
O409 C414 1.279 . S
O410 Cd407 2.297 . S
O410 C412 1.247 . S
O411 Cd407 2.439 . S
O411 C412 1.208 . S
C412 O410 1.247 . S
C412 O411 1.208 . S
C413 O418 1.247 . S
C413 O419 1.208 . S
C414 O406 1.315 . S
C414 O409 1.279 . S
C415 O416 1.315 . S
C415 O417 1.279 . S
O416 Cd408 2.223 . S
O416 C415 1.315 . S
O417 Cd407 2.240 . S
O417 C415 1.279 . S
O418 Cd408 2.297 . S
O418 C413 1.247 . S
O419 Cd408 2.439 . S
O419 C413 1.208 . S
O420 Cd421 2.223 . S
O420 C428 1.315 . S
Cd421 O420 2.223 . S
Cd421 O424 2.297 . S
Cd421 O425 2.439 . S
Cd421 O431 2.240 . S
Cd422 O423 2.240 . S
Cd422 O430 2.223 . S
Cd422 O432 2.297 . S
Cd422 O433 2.439 . S
O423 Cd422 2.240 . S
O423 C428 1.279 . S
O424 Cd421 2.297 . S
O424 C426 1.247 . S
O425 Cd421 2.439 . S
O425 C426 1.208 . S
C426 O424 1.247 . S
C426 O425 1.208 . S
C427 O432 1.247 . S
C427 O433 1.208 . S
C428 O420 1.315 . S
C428 O423 1.279 . S
C429 O430 1.315 . S
C429 O431 1.279 . S
O430 Cd422 2.223 . S
O430 C429 1.315 . S
O431 Cd421 2.240 . S
O431 C429 1.279 . S
O432 Cd422 2.297 . S
O432 C427 1.247 . S
O433 Cd422 2.439 . S
O433 C427 1.208 . S
O434 Cd435 2.223 . S
O434 C442 1.315 . S
Cd435 O434 2.223 . S
Cd435 O438 2.297 . S
Cd435 O439 2.439 . S
Cd435 O445 2.240 . S
Cd436 O437 2.240 . S
Cd436 O444 2.223 . S
Cd436 O446 2.297 . S
Cd436 O447 2.439 . S
O437 Cd436 2.240 . S
O437 C442 1.279 . S
O438 Cd435 2.297 . S
O438 C440 1.247 . S
O439 Cd435 2.439 . S
O439 C440 1.208 . S
C440 O438 1.247 . S
C440 O439 1.208 . S
C441 O446 1.247 . S
C441 O447 1.208 . S
C442 O434 1.315 . S
C442 O437 1.279 . S
C443 O444 1.315 . S
C443 O445 1.279 . S
O444 Cd436 2.223 . S
O444 C443 1.315 . S
O445 Cd435 2.240 . S
O445 C443 1.279 . S
O446 Cd436 2.297 . S
O446 C441 1.247 . S
O447 Cd436 2.439 . S
O447 C441 1.208 . S
O448 Cd449 2.223 . S
O448 C456 1.315 . S
Cd449 O448 2.223 . S
Cd449 O452 2.297 . S
Cd449 O453 2.439 . S
Cd449 O459 2.240 . S
Cd450 O451 2.240 . S
Cd450 O458 2.223 . S
Cd450 O460 2.297 . S
Cd450 O461 2.439 . S
O451 Cd450 2.240 . S
O451 C456 1.279 . S
O452 Cd449 2.297 . S
O452 C454 1.247 . S
O453 Cd449 2.439 . S
O453 C454 1.208 . S
C454 O452 1.247 . S
C454 O453 1.208 . S
C455 O460 1.247 . S
C455 O461 1.208 . S
C456 O448 1.315 . S
C456 O451 1.279 . S
C457 O458 1.315 . S
C457 O459 1.279 . S
O458 Cd450 2.223 . S
O458 C457 1.315 . S
O459 Cd449 2.240 . S
O459 C457 1.279 . S
O460 Cd450 2.297 . S
O460 C455 1.247 . S
O461 Cd450 2.439 . S
O461 C455 1.208 . S
O462 Cd463 2.223 . S
O462 C470 1.315 . S
Cd463 O462 2.223 . S
Cd463 O466 2.297 . S
Cd463 O467 2.439 . S
Cd463 O473 2.240 . S
Cd464 O465 2.240 . S
Cd464 O472 2.223 . S
Cd464 O474 2.297 . S
Cd464 O475 2.439 . S
O465 Cd464 2.240 . S
O465 C470 1.279 . S
O466 Cd463 2.297 . S
O466 C468 1.247 . S
O467 Cd463 2.439 . S
O467 C468 1.208 . S
C468 O466 1.247 . S
C468 O467 1.208 . S
C469 O474 1.247 . S
C469 O475 1.208 . S
C470 O462 1.315 . S
C470 O465 1.279 . S
C471 O472 1.315 . S
C471 O473 1.279 . S
O472 Cd464 2.223 . S
O472 C471 1.315 . S
O473 Cd463 2.240 . S
O473 C471 1.279 . S
O474 Cd464 2.297 . S
O474 C469 1.247 . S
O475 Cd464 2.439 . S
O475 C469 1.208 . S
O476 Cd477 2.223 . S
O476 C484 1.315 . S
Cd477 O476 2.223 . S
Cd477 O480 2.297 . S
Cd477 O481 2.439 . S
Cd477 O487 2.240 . S
Cd478 O479 2.240 . S
Cd478 O486 2.223 . S
Cd478 O488 2.297 . S
Cd478 O489 2.439 . S
O479 Cd478 2.240 . S
O479 C484 1.279 . S
O480 Cd477 2.297 . S
O480 C482 1.247 . S
O481 Cd477 2.439 . S
O481 C482 1.208 . S
C482 O480 1.247 . S
C482 O481 1.208 . S
C483 O488 1.247 . S
C483 O489 1.208 . S
C484 O476 1.315 . S
C484 O479 1.279 . S
C485 O486 1.315 . S
C485 O487 1.279 . S
O486 Cd478 2.223 . S
O486 C485 1.315 . S
O487 Cd477 2.240 . S
O487 C485 1.279 . S
O488 Cd478 2.297 . S
O488 C483 1.247 . S
O489 Cd478 2.439 . S
O489 C483 1.208 . S
O490 Cd491 2.223 . S
O490 C498 1.315 . S
Cd491 O490 2.223 . S
Cd491 O494 2.297 . S
Cd491 O495 2.439 . S
Cd491 O501 2.240 . S
Cd492 O493 2.240 . S
Cd492 O500 2.223 . S
Cd492 O502 2.297 . S
Cd492 O503 2.439 . S
O493 Cd492 2.240 . S
O493 C498 1.279 . S
O494 Cd491 2.297 . S
O494 C496 1.247 . S
O495 Cd491 2.439 . S
O495 C496 1.208 . S
C496 O494 1.247 . S
C496 O495 1.208 . S
C497 O502 1.247 . S
C497 O503 1.208 . S
C498 O490 1.315 . S
C498 O493 1.279 . S
C499 O500 1.315 . S
C499 O501 1.279 . S
O500 Cd492 2.223 . S
O500 C499 1.315 . S
O501 Cd491 2.240 . S
O501 C499 1.279 . S
O502 Cd492 2.297 . S
O502 C497 1.247 . S
O503 Cd492 2.439 . S
O503 C497 1.208 . S
H504 C512 0.950 . S
H505 C517 0.950 . S
H506 C514 0.950 . S
H507 C516 0.950 . S
H508 C518 0.950 . S
H509 C520 0.950 1_554 S
H510 C522 0.950 . S
H511 C523 0.950 . S
C512 H504 0.950 . S
C512 C513 1.386 . S
C512 C514 1.391 1_554 S
C513 C512 1.386 . S
C513 C517 1.393 . S
C514 H506 0.950 . S
C514 C512 1.391 1_556 S
C514 C515 1.400 1_556 S
C515 C514 1.400 1_554 S
C515 C516 1.398 . S
C515 C521 1.491 1_554 S
C516 H507 0.950 . S
C516 C515 1.398 . S
C516 C517 1.391 . S
C517 H505 0.950 . S
C517 C513 1.393 . S
C517 C516 1.391 . S
C518 H508 0.950 . S
C518 C519 1.386 . S
C518 C520 1.391 . S
C519 C518 1.386 . S
C519 C523 1.393 . S
C520 H509 0.950 1_556 S
C520 C518 1.391 . S
C520 C521 1.400 1_565 S
C521 C515 1.491 1_556 S
C521 C520 1.400 1_545 S
C521 C522 1.398 . S
C522 H510 0.950 . S
C522 C521 1.398 . S
C522 C523 1.391 1_545 S
C523 H511 0.950 . S
C523 C519 1.393 . S
C523 C522 1.391 1_565 S
H524 C532 0.950 . S
H525 C537 0.950 . S
H526 C534 0.950 . S
H527 C536 0.950 . S
H528 C538 0.950 . S
H529 C540 0.950 . S
H530 C542 0.950 1_554 S
H531 C543 0.950 . S
C532 H524 0.950 . S
C532 C533 1.386 . S
C532 C534 1.391 . S
C533 C532 1.386 . S
C533 C537 1.393 . S
C534 H526 0.950 . S
C534 C532 1.391 . S
C534 C535 1.400 . S
C535 C534 1.400 . S
C535 C536 1.398 1_554 S
C535 C541 1.491 1_554 S
C536 H527 0.950 . S
C536 C535 1.398 1_556 S
C536 C537 1.391 1_556 S
C537 H525 0.950 . S
C537 C533 1.393 . S
C537 C536 1.391 1_554 S
C538 H528 0.950 . S
C538 C539 1.386 . S
C538 C540 1.391 1_455 S
C539 C538 1.386 . S
C539 C543 1.393 . S
C540 H529 0.950 . S
C540 C538 1.391 1_655 S
C540 C541 1.400 . S
C541 C535 1.491 1_556 S
C541 C540 1.400 . S
C541 C542 1.398 1_655 S
C542 H530 0.950 1_556 S
C542 C541 1.398 1_455 S
C542 C543 1.391 . S
C543 H531 0.950 . S
C543 C539 1.393 . S
C543 C542 1.391 . S
H544 C552 0.950 . S
H545 C557 0.950 . S
H546 C554 0.950 . S
H547 C556 0.950 1_554 S
H548 C558 0.950 . S
H549 C560 0.950 . S
H550 C562 0.950 . S
H551 C563 0.950 . S
C552 H544 0.950 . S
C552 C553 1.386 . S
C552 C554 1.391 . S
C553 C552 1.386 . S
C553 C557 1.393 . S
C554 H546 0.950 . S
C554 C552 1.391 . S
C554 C555 1.400 . S
C555 C554 1.400 . S
C555 C556 1.398 . S
C555 C561 1.491 1_556 S
C556 H547 0.950 1_556 S
C556 C555 1.398 . S
C556 C557 1.391 . S
C557 H545 0.950 . S
C557 C553 1.393 . S
C557 C556 1.391 . S
C558 H548 0.950 . S
C558 C559 1.386 . S
C558 C560 1.391 . S
C559 C558 1.386 . S
C559 C563 1.393 . S
C560 H549 0.950 . S
C560 C558 1.391 . S
C560 C561 1.400 . S
C561 C555 1.491 1_554 S
C561 C560 1.400 . S
C561 C562 1.398 1_554 S
C562 H550 0.950 . S
C562 C561 1.398 1_556 S
C562 C563 1.391 1_556 S
C563 H551 0.950 . S
C563 C559 1.393 . S
C563 C562 1.391 1_554 S
H564 C572 0.950 . S
H565 C577 0.950 . S
H566 C574 0.950 . S
H567 C576 0.950 . S
H568 C578 0.950 . S
H569 C580 0.950 . S
H570 C582 0.950 . S
H571 C583 0.950 . S
C572 H564 0.950 . S
C572 C573 1.386 . S
C572 C574 1.391 . S
C573 C572 1.386 . S
C573 C577 1.393 . S
C574 H566 0.950 . S
C574 C572 1.391 . S
C574 C575 1.400 1_655 S
C575 C574 1.400 1_455 S
C575 C576 1.398 . S
C575 C581 1.491 . S
C576 H567 0.950 . S
C576 C575 1.398 . S
C576 C577 1.391 1_455 S
C577 H565 0.950 . S
C577 C573 1.393 . S
C577 C576 1.391 1_655 S
C578 H568 0.950 . S
C578 C579 1.386 . S
C578 C580 1.391 . S
C579 C578 1.386 . S
C579 C583 1.393 . S
C580 H569 0.950 . S
C580 C578 1.391 . S
C580 C581 1.400 . S
C581 C575 1.491 . S
C581 C580 1.400 . S
C581 C582 1.398 . S
C582 H570 0.950 . S
C582 C581 1.398 . S
C582 C583 1.391 . S
C583 H571 0.950 . S
C583 C579 1.393 . S
C583 C582 1.391 . S
H584 C592 0.950 . S
H585 C597 0.950 . S
H586 C594 0.950 . S
H587 C596 0.950 . S
H588 C598 0.950 . S
H589 C600 0.950 . S
H590 C602 0.950 . S
H591 C603 0.950 . S
C592 H584 0.950 . S
C592 C593 1.386 . S
C592 C594 1.391 . S
C593 C592 1.386 . S
C593 C597 1.393 . S
C594 H586 0.950 . S
C594 C592 1.391 . S
C594 C595 1.400 . S
C595 C594 1.400 . S
C595 C596 1.398 . S
C595 C601 1.491 . S
C596 H587 0.950 . S
C596 C595 1.398 . S
C596 C597 1.391 . S
C597 H585 0.950 . S
C597 C593 1.393 . S
C597 C596 1.391 . S
C598 H588 0.950 . S
C598 C599 1.386 . S
C598 C600 1.391 . S
C599 C598 1.386 . S
C599 C603 1.393 . S
C600 H589 0.950 . S
C600 C598 1.391 . S
C600 C601 1.400 . S
C601 C595 1.491 . S
C601 C600 1.400 . S
C601 C602 1.398 . S
C602 H590 0.950 . S
C602 C601 1.398 . S
C602 C603 1.391 . S
C603 H591 0.950 . S
C603 C599 1.393 . S
C603 C602 1.391 . S
H604 C612 0.950 . S
H605 C617 0.950 . S
H606 C614 0.950 . S
H607 C616 0.950 . S
H608 C618 0.950 . S
H609 C620 0.950 . S
H610 C622 0.950 . S
H611 C623 0.950 . S
C612 H604 0.950 . S
C612 C613 1.386 . S
C612 C614 1.391 . S
C613 C612 1.386 . S
C613 C617 1.393 . S
C614 H606 0.950 . S
C614 C612 1.391 . S
C614 C615 1.400 . S
C615 C614 1.400 . S
C615 C616 1.398 . S
C615 C621 1.491 . S
C616 H607 0.950 . S
C616 C615 1.398 . S
C616 C617 1.391 . S
C617 H605 0.950 . S
C617 C613 1.393 . S
C617 C616 1.391 . S
C618 H608 0.950 . S
C618 C619 1.386 . S
C618 C620 1.391 . S
C619 C618 1.386 . S
C619 C623 1.393 . S
C620 H609 0.950 . S
C620 C618 1.391 . S
C620 C621 1.400 1_545 S
C621 C615 1.491 . S
C621 C620 1.400 1_565 S
C621 C622 1.398 . S
C622 H610 0.950 . S
C622 C621 1.398 . S
C622 C623 1.391 1_565 S
C623 H611 0.950 . S
C623 C619 1.393 . S
C623 C622 1.391 1_545 S
H624 C632 0.950 . S
H625 C637 0.950 . S
H626 C634 0.950 1_556 S
H627 C636 0.950 . S
H628 C638 0.950 . S
H629 C640 0.950 . S
H630 C642 0.950 . S
H631 C643 0.950 . S
C632 H624 0.950 . S
C632 C633 1.386 . S
C632 C634 1.391 . S
C633 C632 1.386 . S
C633 C637 1.393 . S
C634 H626 0.950 1_554 S
C634 C632 1.391 . S
C634 C635 1.400 1_545 S
C635 C634 1.400 1_565 S
C635 C636 1.398 . S
C635 C641 1.491 1_554 S
C636 H627 0.950 . S
C636 C635 1.398 . S
C636 C637 1.391 1_565 S
C637 H625 0.950 . S
C637 C633 1.393 . S
C637 C636 1.391 1_545 S
C638 H628 0.950 . S
C638 C639 1.386 . S
C638 C640 1.391 1_556 S
C639 C638 1.386 . S
C639 C643 1.393 . S
C640 H629 0.950 . S
C640 C638 1.391 1_554 S
C640 C641 1.400 1_554 S
C641 C635 1.491 1_556 S
C641 C640 1.400 1_556 S
C641 C642 1.398 . S
C642 H630 0.950 . S
C642 C641 1.398 . S
C642 C643 1.391 . S
C643 H631 0.950 . S
C643 C639 1.393 . S
C643 C642 1.391 . S
H644 C652 0.950 . S
H645 C657 0.950 . S
H646 C654 0.950 . S
H647 C656 0.950 1_556 S
H648 C658 0.950 . S
H649 C660 0.950 . S
H650 C662 0.950 1_554 S
H651 C663 0.950 . S
C652 H644 0.950 . S
C652 C653 1.386 . S
C652 C654 1.391 1_655 S
C653 C652 1.386 . S
C653 C657 1.393 . S
C654 H646 0.950 . S
C654 C652 1.391 1_455 S
C654 C655 1.400 . S
C655 C654 1.400 . S
C655 C656 1.398 1_455 S
C655 C661 1.491 1_554 S
C656 H647 0.950 1_554 S
C656 C655 1.398 1_655 S
C656 C657 1.391 . S
C657 H645 0.950 . S
C657 C653 1.393 . S
C657 C656 1.391 . S
C658 H648 0.950 . S
C658 C659 1.386 . S
C658 C660 1.391 . S
C659 C658 1.386 . S
C659 C663 1.393 . S
C660 H649 0.950 . S
C660 C658 1.391 . S
C660 C661 1.400 . S
C661 C655 1.491 1_556 S
C661 C660 1.400 . S
C661 C662 1.398 . S
C662 H650 0.950 1_556 S
C662 C661 1.398 . S
C662 C663 1.391 . S
C663 H651 0.950 . S
C663 C659 1.393 . S
C663 C662 1.391 . S
H664 C672 0.950 . S
H665 C677 0.950 . S
H666 C674 0.950 . S
H667 C676 0.979 . S
H668 C678 0.950 . S
H669 C680 0.950 . S
H670 C682 0.950 1_556 S
H671 C683 0.950 . S
C672 H664 0.950 . S
C672 C673 1.386 . S
C672 C674 1.391 . S
C673 C672 1.386 . S
C673 C677 1.393 . S
C674 H666 0.950 . S
C674 C672 1.391 . S
C674 C675 1.400 . S
C675 C674 1.400 . S
C675 C676 1.393 1_556 S
C675 C681 1.491 1_556 S
C676 H667 0.979 . S
C676 C675 1.393 1_554 S
C676 C677 1.369 1_554 S
C677 H665 0.950 . S
C677 C673 1.393 . S
C677 C676 1.369 1_556 S
C678 H668 0.950 . S
C678 C679 1.386 . S
C678 C680 1.391 . S
C679 C678 1.386 . S
C679 C683 1.393 . S
C680 H669 0.950 . S
C680 C678 1.391 . S
C680 C681 1.400 . S
C681 C675 1.491 1_554 S
C681 C680 1.400 . S
C681 C682 1.398 . S
C682 H670 0.950 1_554 S
C682 C681 1.398 . S
C682 C683 1.391 . S
C683 H671 0.950 . S
C683 C679 1.393 . S
C683 C682 1.391 . S
H684 C692 0.950 . S
H685 C697 0.950 . S
H686 C694 0.950 . S
H687 C696 0.950 . S
H688 C698 0.950 . S
H689 C700 0.950 . S
H690 C702 0.950 . S
H691 C703 0.950 . S
C692 H684 0.950 . S
C692 C693 1.386 . S
C692 C694 1.391 . S
C693 C692 1.386 . S
C693 C697 1.393 . S
C694 H686 0.950 . S
C694 C692 1.391 . S
C694 C695 1.400 . S
C695 C694 1.400 . S
C695 C696 1.398 . S
C695 C701 1.491 . S
C696 H687 0.950 . S
C696 C695 1.398 . S
C696 C697 1.391 . S
C697 H685 0.950 . S
C697 C693 1.393 . S
C697 C696 1.391 . S
C698 H688 0.950 . S
C698 C699 1.386 . S
C698 C700 1.391 1_455 S
C699 C698 1.386 . S
C699 C703 1.393 . S
C700 H689 0.950 . S
C700 C698 1.391 1_655 S
C700 C701 1.400 . S
C701 C695 1.491 . S
C701 C700 1.400 . S
C701 C702 1.398 1_655 S
C702 H690 0.950 . S
C702 C701 1.398 1_455 S
C702 C703 1.391 . S
C703 H691 0.950 . S
C703 C699 1.393 . S
C703 C702 1.391 . S
H704 C712 0.950 . S
H705 C717 0.950 . S
H706 C714 0.950 . S
H707 C716 0.950 . S
H708 C718 0.950 . S
H709 C720 0.950 . S
H710 C722 0.950 . S
H711 C723 0.950 . S
C712 H704 0.950 . S
C712 C713 1.386 . S
C712 C714 1.391 . S
C713 C712 1.386 . S
C713 C717 1.393 . S
C714 H706 0.950 . S
C714 C712 1.391 . S
C714 C715 1.400 . S
C715 C714 1.400 . S
C715 C716 1.398 . S
C715 C721 1.491 . S
C716 H707 0.950 . S
C716 C715 1.398 . S
C716 C717 1.391 . S
C717 H705 0.950 . S
C717 C713 1.393 . S
C717 C716 1.391 . S
C718 H708 0.950 . S
C718 C719 1.386 . S
C718 C720 1.391 . S
C719 C718 1.386 . S
C719 C723 1.393 . S
C720 H709 0.950 . S
C720 C718 1.391 . S
C720 C721 1.400 . S
C721 C715 1.491 . S
C721 C720 1.400 . S
C721 C722 1.398 . S
C722 H710 0.950 . S
C722 C721 1.398 . S
C722 C723 1.391 . S
C723 H711 0.950 . S
C723 C719 1.393 . S
C723 C722 1.391 . S
H724 C732 0.950 . S
H725 C737 0.950 . S
H726 C734 0.950 . S
H727 C736 0.950 . S
H728 C738 0.950 . S
H729 C740 0.950 . S
H730 C742 0.950 . S
H731 C743 0.950 . S
C732 H724 0.950 . S
C732 C733 1.386 . S
C732 C734 1.391 . S
C733 C732 1.386 . S
C733 C737 1.393 . S
C734 H726 0.950 . S
C734 C732 1.391 . S
C734 C735 1.400 . S
C735 C734 1.400 . S
C735 C736 1.398 . S
C735 C741 1.491 . S
C736 H727 0.950 . S
C736 C735 1.398 . S
C736 C737 1.391 . S
C737 H725 0.950 . S
C737 C733 1.393 . S
C737 C736 1.391 . S
C738 H728 0.950 . S
C738 C739 1.386 . S
C738 C740 1.391 . S
C739 C738 1.386 . S
C739 C743 1.393 . S
C740 H729 0.950 . S
C740 C738 1.391 . S
C740 C741 1.400 1_565 S
C741 C735 1.491 . S
C741 C740 1.400 1_545 S
C741 C742 1.398 . S
C742 H730 0.950 . S
C742 C741 1.398 . S
C742 C743 1.391 1_545 S
C743 H731 0.950 . S
C743 C739 1.393 . S
C743 C742 1.391 1_565 S
H744 C752 0.950 . S
H745 C757 0.950 . S
H746 C754 0.950 . S
H747 C756 0.950 . S
H748 C758 0.950 . S
H749 C760 0.950 . S
H750 C762 0.950 . S
H751 C763 0.950 . S
C752 H744 0.950 . S
C752 C753 1.386 . S
C752 C754 1.391 . S
C753 C752 1.386 . S
C753 C757 1.393 . S
C754 H746 0.950 . S
C754 C752 1.391 . S
C754 C755 1.400 . S
C755 C754 1.400 . S
C755 C756 1.398 . S
C755 C761 1.491 . S
C756 H747 0.950 . S
C756 C755 1.398 . S
C756 C757 1.391 . S
C757 H745 0.950 . S
C757 C753 1.393 . S
C757 C756 1.391 . S
C758 H748 0.950 . S
C758 C759 1.386 . S
C758 C760 1.391 . S
C759 C758 1.386 . S
C759 C763 1.393 . S
C760 H749 0.950 . S
C760 C758 1.391 . S
C760 C761 1.400 . S
C761 C755 1.491 . S
C761 C760 1.400 . S
C761 C762 1.398 . S
C762 H750 0.950 . S
C762 C761 1.398 . S
C762 C763 1.391 . S
C763 H751 0.950 . S
C763 C759 1.393 . S
C763 C762 1.391 . S
H764 C772 0.950 . S
H765 C777 0.950 . S
H766 C774 0.950 . S
H767 C776 0.950 . S
H768 C778 0.950 . S
H769 C780 0.950 . S
H770 C782 0.950 . S
H771 C783 0.950 . S
C772 H764 0.950 . S
C772 C773 1.386 . S
C772 C774 1.391 . S
C773 C772 1.386 . S
C773 C777 1.393 . S
C774 H766 0.950 . S
C774 C772 1.391 . S
C774 C775 1.400 . S
C775 C774 1.400 . S
C775 C776 1.398 . S
C775 C781 1.491 . S
C776 H767 0.950 . S
C776 C775 1.398 . S
C776 C777 1.391 . S
C777 H765 0.950 . S
C777 C773 1.393 . S
C777 C776 1.391 . S
C778 H768 0.950 . S
C778 C779 1.386 . S
C778 C780 1.391 . S
C779 C778 1.386 . S
C779 C783 1.393 . S
C780 H769 0.950 . S
C780 C778 1.391 . S
C780 C781 1.400 . S
C781 C775 1.491 . S
C781 C780 1.400 . S
C781 C782 1.398 . S
C782 H770 0.950 . S
C782 C781 1.398 . S
C782 C783 1.391 . S
C783 H771 0.950 . S
C783 C779 1.393 . S
C783 C782 1.391 . S
H784 C792 0.950 . S
H785 C797 0.950 . S
H786 C794 0.950 . S
H787 C796 0.950 . S
H788 C798 0.950 . S
H789 C800 0.950 . S
H790 C802 0.950 . S
H791 C803 0.950 . S
C792 H784 0.950 . S
C792 C793 1.386 . S
C792 C794 1.391 . S
C793 C792 1.386 . S
C793 C797 1.393 . S
C794 H786 0.950 . S
C794 C792 1.391 . S
C794 C795 1.400 . S
C795 C794 1.400 . S
C795 C796 1.398 . S
C795 C801 1.491 . S
C796 H787 0.950 . S
C796 C795 1.398 . S
C796 C797 1.391 . S
C797 H785 0.950 . S
C797 C793 1.393 . S
C797 C796 1.391 . S
C798 H788 0.950 . S
C798 C799 1.386 . S
C798 C800 1.391 . S
C799 C798 1.386 . S
C799 C803 1.393 . S
C800 H789 0.950 . S
C800 C798 1.391 . S
C800 C801 1.400 . S
C801 C795 1.491 . S
C801 C800 1.400 . S
C801 C802 1.398 . S
C802 H790 0.950 . S
C802 C801 1.398 . S
C802 C803 1.391 . S
C803 H791 0.950 . S
C803 C799 1.393 . S
C803 C802 1.391 . S
H804 C812 0.950 . S
H805 C817 0.950 . S
H806 C814 0.950 . S
H807 C816 0.950 . S
H808 C818 0.950 . S
H809 C820 0.950 . S
H810 C822 0.950 . S
H811 C823 0.950 . S
C812 H804 0.950 . S
C812 C813 1.386 . S
C812 C814 1.391 . S
C813 C812 1.386 . S
C813 C817 1.393 . S
C814 H806 0.950 . S
C814 C812 1.391 . S
C814 C815 1.400 . S
C815 C814 1.400 . S
C815 C816 1.398 . S
C815 C821 1.491 . S
C816 H807 0.950 . S
C816 C815 1.398 . S
C816 C817 1.391 . S
C817 H805 0.950 . S
C817 C813 1.393 . S
C817 C816 1.391 . S
C818 H808 0.950 . S
C818 C819 1.386 . S
C818 C820 1.391 . S
C819 C818 1.386 . S
C819 C823 1.393 . S
C820 H809 0.950 . S
C820 C818 1.391 . S
C820 C821 1.400 . S
C821 C815 1.491 . S
C821 C820 1.400 . S
C821 C822 1.398 . S
C822 H810 0.950 . S
C822 C821 1.398 . S
C822 C823 1.391 . S
C823 H811 0.950 . S
C823 C819 1.393 . S
C823 C822 1.391 . S
H824 C832 0.950 . S
H825 C837 0.950 . S
H826 C834 0.950 . S
H827 C836 0.950 . S
H828 C838 0.950 . S
H829 C840 0.950 . S
H830 C842 0.950 . S
H831 C843 0.950 . S
C832 H824 0.950 . S
C832 C833 1.386 . S
C832 C834 1.391 . S
C833 C832 1.386 . S
C833 C837 1.393 . S
C834 H826 0.950 . S
C834 C832 1.391 . S
C834 C835 1.400 . S
C835 C834 1.400 . S
C835 C836 1.398 . S
C835 C841 1.491 . S
C836 H827 0.950 . S
C836 C835 1.398 . S
C836 C837 1.391 . S
C837 H825 0.950 . S
C837 C833 1.393 . S
C837 C836 1.391 . S
C838 H828 0.950 . S
C838 C839 1.386 . S
C838 C840 1.391 . S
C839 C838 1.386 . S
C839 C843 1.393 . S
C840 H829 0.950 . S
C840 C838 1.391 . S
C840 C841 1.400 . S
C841 C835 1.491 . S
C841 C840 1.400 . S
C841 C842 1.398 . S
C842 H830 0.950 . S
C842 C841 1.398 . S
C842 C843 1.391 . S
C843 H831 0.950 . S
C843 C839 1.393 . S
C843 C842 1.391 . S
H844 C852 0.950 . S
H845 C857 0.950 . S
H846 C854 0.950 . S
H847 C856 0.950 . S
H848 C858 0.950 . S
H849 C860 0.950 . S
H850 C862 0.950 . S
H851 C863 0.950 . S
C852 H844 0.950 . S
C852 C853 1.386 . S
C852 C854 1.391 . S
C853 C852 1.386 . S
C853 C857 1.393 . S
C854 H846 0.950 . S
C854 C852 1.391 . S
C854 C855 1.400 . S
C855 C854 1.400 . S
C855 C856 1.398 . S
C855 C861 1.491 . S
C856 H847 0.950 . S
C856 C855 1.398 . S
C856 C857 1.391 . S
C857 H845 0.950 . S
C857 C853 1.393 . S
C857 C856 1.391 . S
C858 H848 0.950 . S
C858 C859 1.386 . S
C858 C860 1.391 . S
C859 C858 1.386 . S
C859 C863 1.393 . S
C860 H849 0.950 . S
C860 C858 1.391 . S
C860 C861 1.400 . S
C861 C855 1.491 . S
C861 C860 1.400 . S
C861 C862 1.398 . S
C862 H850 0.950 . S
C862 C861 1.398 . S
C862 C863 1.391 . S
C863 H851 0.950 . S
C863 C859 1.393 . S
C863 C862 1.391 . S
H864 C872 0.950 . S
H865 C877 0.950 . S
H866 C874 0.950 . S
H867 C876 0.950 . S
H868 C878 0.950 . S
H869 C880 0.950 . S
H870 C882 0.950 . S
H871 C883 0.950 . S
C872 H864 0.950 . S
C872 C873 1.386 . S
C872 C874 1.391 . S
C873 C872 1.386 . S
C873 C877 1.393 . S
C874 H866 0.950 . S
C874 C872 1.391 . S
C874 C875 1.400 . S
C875 C874 1.400 . S
C875 C876 1.398 . S
C875 C881 1.491 . S
C876 H867 0.950 . S
C876 C875 1.398 . S
C876 C877 1.391 . S
C877 H865 0.950 . S
C877 C873 1.393 . S
C877 C876 1.391 . S
C878 H868 0.950 . S
C878 C879 1.386 . S
C878 C880 1.391 . S
C879 C878 1.386 . S
C879 C883 1.393 . S
C880 H869 0.950 . S
C880 C878 1.391 . S
C880 C881 1.400 . S
C881 C875 1.491 . S
C881 C880 1.400 . S
C881 C882 1.398 . S
C882 H870 0.950 . S
C882 C881 1.398 . S
C882 C883 1.391 . S
C883 H871 0.950 . S
C883 C879 1.393 . S
C883 C882 1.391 . S
H884 C892 0.950 . S
H885 C897 0.950 . S
H886 C894 0.950 . S
H887 C896 0.950 . S
H888 C898 0.950 . S
H889 C900 0.950 . S
H890 C902 0.950 . S
H891 C903 0.950 . S
C892 H884 0.950 . S
C892 C893 1.386 . S
C892 C894 1.391 . S
C893 C892 1.386 . S
C893 C897 1.393 . S
C894 H886 0.950 . S
C894 C892 1.391 . S
C894 C895 1.400 . S
C895 C894 1.400 . S
C895 C896 1.398 . S
C895 C901 1.491 . S
C896 H887 0.950 . S
C896 C895 1.398 . S
C896 C897 1.391 . S
C897 H885 0.950 . S
C897 C893 1.393 . S
C897 C896 1.391 . S
C898 H888 0.950 . S
C898 C899 1.386 . S
C898 C900 1.391 . S
C899 C898 1.386 . S
C899 C903 1.393 . S
C900 H889 0.950 . S
C900 C898 1.391 . S
C900 C901 1.400 . S
C901 C895 1.491 . S
C901 C900 1.400 . S
C901 C902 1.398 . S
C902 H890 0.950 . S
C902 C901 1.398 . S
C902 C903 1.391 . S
C903 H891 0.950 . S
C903 C899 1.393 . S
C903 C902 1.391 . S
H904 C912 0.950 . S
H905 C917 0.950 . S
H906 C914 0.950 . S
H907 C916 0.950 . S
H908 C918 0.950 . S
H909 C920 0.950 . S
H910 C922 0.950 . S
H911 C923 0.950 . S
C912 H904 0.950 . S
C912 C913 1.386 . S
C912 C914 1.391 . S
C913 C912 1.386 . S
C913 C917 1.393 . S
C914 H906 0.950 . S
C914 C912 1.391 . S
C914 C915 1.400 . S
C915 C914 1.400 . S
C915 C916 1.398 . S
C915 C921 1.491 . S
C916 H907 0.950 . S
C916 C915 1.398 . S
C916 C917 1.391 . S
C917 H905 0.950 . S
C917 C913 1.393 . S
C917 C916 1.391 . S
C918 H908 0.950 . S
C918 C919 1.386 . S
C918 C920 1.391 . S
C919 C918 1.386 . S
C919 C923 1.393 . S
C920 H909 0.950 . S
C920 C918 1.391 . S
C920 C921 1.400 . S
C921 C915 1.491 . S
C921 C920 1.400 . S
C921 C922 1.398 . S
C922 H910 0.950 . S
C922 C921 1.398 . S
C922 C923 1.391 . S
C923 H911 0.950 . S
C923 C919 1.393 . S
C923 C922 1.391 . S
H924 C932 0.950 . S
H925 C937 0.950 . S
H926 C934 0.950 . S
H927 C936 0.950 . S
H928 C938 0.950 . S
H929 C940 0.950 . S
H930 C942 0.950 . S
H931 C943 0.950 . S
C932 H924 0.950 . S
C932 C933 1.386 . S
C932 C934 1.391 . S
C933 C932 1.386 . S
C933 C937 1.393 . S
C934 H926 0.950 . S
C934 C932 1.391 . S
C934 C935 1.400 . S
C935 C934 1.400 . S
C935 C936 1.398 . S
C935 C941 1.491 . S
C936 H927 0.950 . S
C936 C935 1.398 . S
C936 C937 1.391 . S
C937 H925 0.950 . S
C937 C933 1.393 . S
C937 C936 1.391 . S
C938 H928 0.950 . S
C938 C939 1.386 . S
C938 C940 1.391 . S
C939 C938 1.386 . S
C939 C943 1.393 . S
C940 H929 0.950 . S
C940 C938 1.391 . S
C940 C941 1.400 . S
C941 C935 1.491 . S
C941 C940 1.400 . S
C941 C942 1.398 . S
C942 H930 0.950 . S
C942 C941 1.398 . S
C942 C943 1.391 . S
C943 H931 0.950 . S
C943 C939 1.393 . S
C943 C942 1.391 . S
H944 C952 0.950 . S
H945 C957 0.950 . S
H946 C954 0.950 . S
H947 C956 0.950 . S
H948 C958 0.950 . S
H949 C960 0.950 . S
H950 C962 0.950 . S
H951 C963 0.950 . S
C952 H944 0.950 . S
C952 C953 1.386 . S
C952 C954 1.391 . S
C953 C952 1.386 . S
C953 C957 1.393 . S
C954 H946 0.950 . S
C954 C952 1.391 . S
C954 C955 1.400 . S
C955 C954 1.400 . S
C955 C956 1.398 . S
C955 C961 1.491 . S
C956 H947 0.950 . S
C956 C955 1.398 . S
C956 C957 1.391 . S
C957 H945 0.950 . S
C957 C953 1.393 . S
C957 C956 1.391 . S
C958 H948 0.950 . S
C958 C959 1.386 . S
C958 C960 1.391 . S
C959 C958 1.386 . S
C959 C963 1.393 . S
C960 H949 0.950 . S
C960 C958 1.391 . S
C960 C961 1.400 . S
C961 C955 1.491 . S
C961 C960 1.400 . S
C961 C962 1.398 . S
C962 H950 0.950 . S
C962 C961 1.398 . S
C962 C963 1.391 . S
C963 H951 0.950 . S
C963 C959 1.393 . S
C963 C962 1.391 . S
H964 C972 0.950 . S
H965 C977 0.950 . S
H966 C974 0.950 . S
H967 C976 0.950 . S
H968 C978 0.950 . S
H969 C980 0.950 . S
H970 C982 0.950 . S
H971 C983 0.950 . S
C972 H964 0.950 . S
C972 C973 1.386 . S
C972 C974 1.391 . S
C973 C972 1.386 . S
C973 C977 1.393 . S
C974 H966 0.950 . S
C974 C972 1.391 . S
C974 C975 1.400 . S
C975 C974 1.400 . S
C975 C976 1.398 . S
C975 C981 1.491 . S
C976 H967 0.950 . S
C976 C975 1.398 . S
C976 C977 1.391 . S
C977 H965 0.950 . S
C977 C973 1.393 . S
C977 C976 1.391 . S
C978 H968 0.950 . S
C978 C979 1.386 . S
C978 C980 1.391 . S
C979 C978 1.386 . S
C979 C983 1.393 . S
C980 H969 0.950 . S
C980 C978 1.391 . S
C980 C981 1.400 . S
C981 C975 1.491 . S
C981 C980 1.400 . S
C981 C982 1.398 . S
C982 H970 0.950 . S
C982 C981 1.398 . S
C982 C983 1.391 . S
C983 H971 0.950 . S
C983 C979 1.393 . S
C983 C982 1.391 . S
H984 C992 0.950 . S
H985 C997 0.950 . S
H986 C994 0.950 . S
H987 C996 0.950 . S
H988 C998 0.950 . S
H989 C1000 0.950 . S
H990 C1002 0.950 . S
H991 C1003 0.950 . S
C992 H984 0.950 . S
C992 C993 1.386 . S
C992 C994 1.391 . S
C993 C992 1.386 . S
C993 C997 1.393 . S
C994 H986 0.950 . S
C994 C992 1.391 . S
C994 C995 1.400 . S
C995 C994 1.400 . S
C995 C996 1.398 . S
C995 C1001 1.491 . S
C996 H987 0.950 . S
C996 C995 1.398 . S
C996 C997 1.391 . S
C997 H985 0.950 . S
C997 C993 1.393 . S
C997 C996 1.391 . S
C998 H988 0.950 . S
C998 C999 1.386 . S
C998 C1000 1.391 . S
C999 C998 1.386 . S
C999 C1003 1.393 . S
C1000 H989 0.950 . S
C1000 C998 1.391 . S
C1000 C1001 1.400 . S
C1001 C995 1.491 . S
C1001 C1000 1.400 . S
C1001 C1002 1.398 . S
C1002 H990 0.950 . S
C1002 C1001 1.398 . S
C1002 C1003 1.391 . S
C1003 H991 0.950 . S
C1003 C999 1.393 . S
C1003 C1002 1.391 . S
H1004 C1012 0.950 . S
H1005 C1017 0.950 . S
H1006 C1014 0.950 . S
H1007 C1016 0.950 . S
H1008 C1018 0.950 . S
H1009 C1020 0.950 . S
H1010 C1022 0.950 . S
H1011 C1023 0.950 . S
C1012 H1004 0.950 . S
C1012 C1013 1.386 . S
C1012 C1014 1.391 . S
C1013 C1012 1.386 . S
C1013 C1017 1.393 . S
C1014 H1006 0.950 . S
C1014 C1012 1.391 . S
C1014 C1015 1.400 . S
C1015 C1014 1.400 . S
C1015 C1016 1.398 . S
C1015 C1021 1.491 . S
C1016 H1007 0.950 . S
C1016 C1015 1.398 . S
C1016 C1017 1.391 . S
C1017 H1005 0.950 . S
C1017 C1013 1.393 . S
C1017 C1016 1.391 . S
C1018 H1008 0.950 . S
C1018 C1019 1.386 . S
C1018 C1020 1.391 . S
C1019 C1018 1.386 . S
C1019 C1023 1.393 . S
C1020 H1009 0.950 . S
C1020 C1018 1.391 . S
C1020 C1021 1.400 . S
C1021 C1015 1.491 . S
C1021 C1020 1.400 . S
C1021 C1022 1.398 . S
C1022 H1010 0.950 . S
C1022 C1021 1.398 . S
C1022 C1023 1.391 . S
C1023 H1011 0.950 . S
C1023 C1019 1.393 . S
C1023 C1022 1.391 . S
H1024 C1032 0.950 . S
H1025 C1037 0.950 . S
H1026 C1034 0.950 . S
H1027 C1036 0.950 . S
H1028 C1038 0.950 . S
H1029 C1040 0.950 . S
H1030 C1042 0.950 . S
H1031 C1043 0.950 . S
C1032 H1024 0.950 . S
C1032 C1033 1.386 . S
C1032 C1034 1.391 . S
C1033 C1032 1.386 . S
C1033 C1037 1.393 . S
C1034 H1026 0.950 . S
C1034 C1032 1.391 . S
C1034 C1035 1.400 . S
C1035 C1034 1.400 . S
C1035 C1036 1.398 . S
C1035 C1041 1.491 . S
C1036 H1027 0.950 . S
C1036 C1035 1.398 . S
C1036 C1037 1.391 . S
C1037 H1025 0.950 . S
C1037 C1033 1.393 . S
C1037 C1036 1.391 . S
C1038 H1028 0.950 . S
C1038 C1039 1.386 . S
C1038 C1040 1.391 . S
C1039 C1038 1.386 . S
C1039 C1043 1.393 . S
C1040 H1029 0.950 . S
C1040 C1038 1.391 . S
C1040 C1041 1.400 . S
C1041 C1035 1.491 . S
C1041 C1040 1.400 . S
C1041 C1042 1.398 . S
C1042 H1030 0.950 . S
C1042 C1041 1.398 . S
C1042 C1043 1.391 . S
C1043 H1031 0.950 . S
C1043 C1039 1.393 . S
C1043 C1042 1.391 . S
H1044 C1052 0.950 . S
H1045 C1057 0.950 . S
H1046 C1054 0.950 . S
H1047 C1056 0.950 . S
H1048 C1058 0.950 . S
H1049 C1060 0.950 . S
H1050 C1062 0.950 . S
H1051 C1063 0.950 . S
C1052 H1044 0.950 . S
C1052 C1053 1.386 . S
C1052 C1054 1.391 . S
C1053 C1052 1.386 . S
C1053 C1057 1.393 . S
C1054 H1046 0.950 . S
C1054 C1052 1.391 . S
C1054 C1055 1.400 . S
C1055 C1054 1.400 . S
C1055 C1056 1.398 . S
C1055 C1061 1.491 . S
C1056 H1047 0.950 . S
C1056 C1055 1.398 . S
C1056 C1057 1.391 . S
C1057 H1045 0.950 . S
C1057 C1053 1.393 . S
C1057 C1056 1.391 . S
C1058 H1048 0.950 . S
C1058 C1059 1.386 . S
C1058 C1060 1.391 . S
C1059 C1058 1.386 . S
C1059 C1063 1.393 . S
C1060 H1049 0.950 . S
C1060 C1058 1.391 . S
C1060 C1061 1.400 . S
C1061 C1055 1.491 . S
C1061 C1060 1.400 . S
C1061 C1062 1.398 . S
C1062 H1050 0.950 . S
C1062 C1061 1.398 . S
C1062 C1063 1.391 . S
C1063 H1051 0.950 . S
C1063 C1059 1.393 . S
C1063 C1062 1.391 . S
H1064 C1072 0.950 . S
H1065 C1077 0.950 . S
H1066 C1074 0.950 . S
H1067 C1076 0.950 . S
H1068 C1078 0.950 . S
H1069 C1080 0.950 . S
H1070 C1082 0.950 . S
H1071 C1083 0.950 . S
C1072 H1064 0.950 . S
C1072 C1073 1.386 . S
C1072 C1074 1.391 . S
C1073 C1072 1.386 . S
C1073 C1077 1.393 . S
C1074 H1066 0.950 . S
C1074 C1072 1.391 . S
C1074 C1075 1.400 . S
C1075 C1074 1.400 . S
C1075 C1076 1.398 . S
C1075 C1081 1.491 . S
C1076 H1067 0.950 . S
C1076 C1075 1.398 . S
C1076 C1077 1.391 . S
C1077 H1065 0.950 . S
C1077 C1073 1.393 . S
C1077 C1076 1.391 . S
C1078 H1068 0.950 . S
C1078 C1079 1.386 . S
C1078 C1080 1.391 . S
C1079 C1078 1.386 . S
C1079 C1083 1.393 . S
C1080 H1069 0.950 . S
C1080 C1078 1.391 . S
C1080 C1081 1.400 . S
C1081 C1075 1.491 . S
C1081 C1080 1.400 . S
C1081 C1082 1.398 . S
C1082 H1070 0.950 . S
C1082 C1081 1.398 . S
C1082 C1083 1.391 . S
C1083 H1071 0.950 . S
C1083 C1079 1.393 . S
C1083 C1082 1.391 . S
H1084 C1092 0.950 . S
H1085 C1097 0.950 . S
H1086 C1094 0.950 . S
H1087 C1096 0.950 . S
H1088 C1098 0.950 . S
H1089 C1100 0.950 . S
H1090 C1102 0.950 . S
H1091 C1103 0.950 . S
C1092 H1084 0.950 . S
C1092 C1093 1.386 . S
C1092 C1094 1.391 . S
C1093 C1092 1.386 . S
C1093 C1097 1.393 . S
C1094 H1086 0.950 . S
C1094 C1092 1.391 . S
C1094 C1095 1.400 . S
C1095 C1094 1.400 . S
C1095 C1096 1.398 . S
C1095 C1101 1.491 . S
C1096 H1087 0.950 . S
C1096 C1095 1.398 . S
C1096 C1097 1.391 . S
C1097 H1085 0.950 . S
C1097 C1093 1.393 . S
C1097 C1096 1.391 . S
C1098 H1088 0.950 . S
C1098 C1099 1.386 . S
C1098 C1100 1.391 . S
C1099 C1098 1.386 . S
C1099 C1103 1.393 . S
C1100 H1089 0.950 . S
C1100 C1098 1.391 . S
C1100 C1101 1.400 . S
C1101 C1095 1.491 . S
C1101 C1100 1.400 . S
C1101 C1102 1.398 . S
C1102 H1090 0.950 . S
C1102 C1101 1.398 . S
C1102 C1103 1.391 . S
C1103 H1091 0.950 . S
C1103 C1099 1.393 . S
C1103 C1102 1.391 . S
H1104 C1112 0.950 . S
H1105 C1117 0.950 . S
H1106 C1114 0.950 . S
H1107 C1116 0.950 . S
H1108 C1118 0.950 . S
H1109 C1120 0.950 . S
H1110 C1122 0.950 . S
H1111 C1123 0.950 . S
C1112 H1104 0.950 . S
C1112 C1113 1.386 . S
C1112 C1114 1.391 . S
C1113 C1112 1.386 . S
C1113 C1117 1.393 . S
C1114 H1106 0.950 . S
C1114 C1112 1.391 . S
C1114 C1115 1.400 . S
C1115 C1114 1.400 . S
C1115 C1116 1.398 . S
C1115 C1121 1.491 . S
C1116 H1107 0.950 . S
C1116 C1115 1.398 . S
C1116 C1117 1.391 . S
C1117 H1105 0.950 . S
C1117 C1113 1.393 . S
C1117 C1116 1.391 . S
C1118 H1108 0.950 . S
C1118 C1119 1.386 . S
C1118 C1120 1.391 . S
C1119 C1118 1.386 . S
C1119 C1123 1.393 . S
C1120 H1109 0.950 . S
C1120 C1118 1.391 . S
C1120 C1121 1.400 . S
C1121 C1115 1.491 . S
C1121 C1120 1.400 . S
C1121 C1122 1.398 . S
C1122 H1110 0.950 . S
C1122 C1121 1.398 . S
C1122 C1123 1.391 . S
C1123 H1111 0.950 . S
C1123 C1119 1.393 . S
C1123 C1122 1.391 . S
H1124 C1132 0.950 . S
H1125 C1137 0.950 . S
H1126 C1134 0.950 . S
H1127 C1136 0.950 . S
H1128 C1138 0.950 . S
H1129 C1140 0.950 . S
H1130 C1142 0.950 . S
H1131 C1143 0.950 . S
C1132 H1124 0.950 . S
C1132 C1133 1.386 . S
C1132 C1134 1.391 . S
C1133 C1132 1.386 . S
C1133 C1137 1.393 . S
C1134 H1126 0.950 . S
C1134 C1132 1.391 . S
C1134 C1135 1.400 . S
C1135 C1134 1.400 . S
C1135 C1136 1.398 . S
C1135 C1141 1.491 . S
C1136 H1127 0.950 . S
C1136 C1135 1.398 . S
C1136 C1137 1.391 . S
C1137 H1125 0.950 . S
C1137 C1133 1.393 . S
C1137 C1136 1.391 . S
C1138 H1128 0.950 . S
C1138 C1139 1.386 . S
C1138 C1140 1.391 . S
C1139 C1138 1.386 . S
C1139 C1143 1.393 . S
C1140 H1129 0.950 . S
C1140 C1138 1.391 . S
C1140 C1141 1.400 . S
C1141 C1135 1.491 . S
C1141 C1140 1.400 . S
C1141 C1142 1.398 . S
C1142 H1130 0.950 . S
C1142 C1141 1.398 . S
C1142 C1143 1.391 . S
C1143 H1131 0.950 . S
C1143 C1139 1.393 . S
C1143 C1142 1.391 . S
H1144 C1152 0.950 . S
H1145 C1157 0.950 . S
H1146 C1154 0.950 . S
H1147 C1156 0.950 . S
H1148 C1158 0.950 . S
H1149 C1160 0.950 . S
H1150 C1162 0.950 . S
H1151 C1163 0.950 . S
C1152 H1144 0.950 . S
C1152 C1153 1.386 . S
C1152 C1154 1.391 . S
C1153 C1152 1.386 . S
C1153 C1157 1.393 . S
C1154 H1146 0.950 . S
C1154 C1152 1.391 . S
C1154 C1155 1.400 . S
C1155 C1154 1.400 . S
C1155 C1156 1.398 . S
C1155 C1161 1.491 . S
C1156 H1147 0.950 . S
C1156 C1155 1.398 . S
C1156 C1157 1.391 . S
C1157 H1145 0.950 . S
C1157 C1153 1.393 . S
C1157 C1156 1.391 . S
C1158 H1148 0.950 . S
C1158 C1159 1.386 . S
C1158 C1160 1.391 . S
C1159 C1158 1.386 . S
C1159 C1163 1.393 . S
C1160 H1149 0.950 . S
C1160 C1158 1.391 . S
C1160 C1161 1.400 . S
C1161 C1155 1.491 . S
C1161 C1160 1.400 . S
C1161 C1162 1.398 . S
C1162 H1150 0.950 . S
C1162 C1161 1.398 . S
C1162 C1163 1.391 . S
C1163 H1151 0.950 . S
C1163 C1159 1.393 . S
C1163 C1162 1.391 . S
H1164 C1172 0.950 . S
H1165 C1177 0.950 . S
H1166 C1174 0.950 . S
H1167 C1176 0.950 . S
H1168 C1178 0.950 . S
H1169 C1180 0.950 . S
H1170 C1182 0.950 . S
H1171 C1183 0.950 . S
C1172 H1164 0.950 . S
C1172 C1173 1.386 . S
C1172 C1174 1.391 . S
C1173 C1172 1.386 . S
C1173 C1177 1.393 . S
C1174 H1166 0.950 . S
C1174 C1172 1.391 . S
C1174 C1175 1.400 . S
C1175 C1174 1.400 . S
C1175 C1176 1.398 . S
C1175 C1181 1.491 . S
C1176 H1167 0.950 . S
C1176 C1175 1.398 . S
C1176 C1177 1.391 . S
C1177 H1165 0.950 . S
C1177 C1173 1.393 . S
C1177 C1176 1.391 . S
C1178 H1168 0.950 . S
C1178 C1179 1.386 . S
C1178 C1180 1.391 . S
C1179 C1178 1.386 . S
C1179 C1183 1.393 . S
C1180 H1169 0.950 . S
C1180 C1178 1.391 . S
C1180 C1181 1.400 . S
C1181 C1175 1.491 . S
C1181 C1180 1.400 . S
C1181 C1182 1.398 . S
C1182 H1170 0.950 . S
C1182 C1181 1.398 . S
C1182 C1183 1.391 . S
C1183 H1171 0.950 . S
C1183 C1179 1.393 . S
C1183 C1182 1.391 . S
H1184 C1192 0.950 . S
H1185 C1197 0.950 . S
H1186 C1194 0.950 . S
H1187 C1196 0.950 . S
H1188 C1198 0.950 . S
H1189 C1200 0.950 . S
H1190 C1202 0.950 . S
H1191 C1203 0.950 . S
C1192 H1184 0.950 . S
C1192 C1193 1.386 . S
C1192 C1194 1.391 . S
C1193 C1192 1.386 . S
C1193 C1197 1.393 . S
C1194 H1186 0.950 . S
C1194 C1192 1.391 . S
C1194 C1195 1.400 . S
C1195 C1194 1.400 . S
C1195 C1196 1.398 . S
C1195 C1201 1.491 . S
C1196 H1187 0.950 . S
C1196 C1195 1.398 . S
C1196 C1197 1.391 . S
C1197 H1185 0.950 . S
C1197 C1193 1.393 . S
C1197 C1196 1.391 . S
C1198 H1188 0.950 . S
C1198 C1199 1.386 . S
C1198 C1200 1.391 . S
C1199 C1198 1.386 . S
C1199 C1203 1.393 . S
C1200 H1189 0.950 . S
C1200 C1198 1.391 . S
C1200 C1201 1.400 . S
C1201 C1195 1.491 . S
C1201 C1200 1.400 . S
C1201 C1202 1.398 . S
C1202 H1190 0.950 . S
C1202 C1201 1.398 . S
C1202 C1203 1.391 . S
C1203 H1191 0.950 . S
C1203 C1199 1.393 . S
C1203 C1202 1.391 . S
H1204 C1212 0.950 . S
H1205 C1217 0.950 . S
H1206 C1214 0.950 . S
H1207 C1216 0.950 . S
H1208 C1218 0.950 . S
H1209 C1220 0.950 . S
H1210 C1222 0.950 . S
H1211 C1223 0.950 . S
C1212 H1204 0.950 . S
C1212 C1213 1.386 . S
C1212 C1214 1.391 . S
C1213 C1212 1.386 . S
C1213 C1217 1.393 . S
C1214 H1206 0.950 . S
C1214 C1212 1.391 . S
C1214 C1215 1.400 . S
C1215 C1214 1.400 . S
C1215 C1216 1.398 . S
C1215 C1221 1.491 . S
C1216 H1207 0.950 . S
C1216 C1215 1.398 . S
C1216 C1217 1.391 . S
C1217 H1205 0.950 . S
C1217 C1213 1.393 . S
C1217 C1216 1.391 . S
C1218 H1208 0.950 . S
C1218 C1219 1.386 . S
C1218 C1220 1.391 . S
C1219 C1218 1.386 . S
C1219 C1223 1.393 . S
C1220 H1209 0.950 . S
C1220 C1218 1.391 . S
C1220 C1221 1.400 . S
C1221 C1215 1.491 . S
C1221 C1220 1.400 . S
C1221 C1222 1.398 . S
C1222 H1210 0.950 . S
C1222 C1221 1.398 . S
C1222 C1223 1.391 . S
C1223 H1211 0.950 . S
C1223 C1219 1.393 . S
C1223 C1222 1.391 . S
H1224 C1232 0.950 . S
H1225 C1237 0.950 . S
H1226 C1234 0.950 . S
H1227 C1236 0.950 . S
H1228 C1238 0.950 . S
H1229 C1240 0.950 . S
H1230 C1242 0.950 . S
H1231 C1243 0.950 . S
C1232 H1224 0.950 . S
C1232 C1233 1.386 . S
C1232 C1234 1.391 . S
C1233 C1232 1.386 . S
C1233 C1237 1.393 . S
C1234 H1226 0.950 . S
C1234 C1232 1.391 . S
C1234 C1235 1.400 . S
C1235 C1234 1.400 . S
C1235 C1236 1.398 . S
C1235 C1241 1.491 . S
C1236 H1227 0.950 . S
C1236 C1235 1.398 . S
C1236 C1237 1.391 . S
C1237 H1225 0.950 . S
C1237 C1233 1.393 . S
C1237 C1236 1.391 . S
C1238 H1228 0.950 . S
C1238 C1239 1.386 . S
C1238 C1240 1.391 . S
C1239 C1238 1.386 . S
C1239 C1243 1.393 . S
C1240 H1229 0.950 . S
C1240 C1238 1.391 . S
C1240 C1241 1.400 . S
C1241 C1235 1.491 . S
C1241 C1240 1.400 . S
C1241 C1242 1.398 . S
C1242 H1230 0.950 . S
C1242 C1241 1.398 . S
C1242 C1243 1.391 . S
C1243 H1231 0.950 . S
C1243 C1239 1.393 . S
C1243 C1242 1.391 . S
H1244 C1252 0.950 . S
H1245 C1257 0.950 . S
H1246 C1254 0.950 . S
H1247 C1256 0.950 . S
H1248 C1258 0.950 . S
H1249 C1260 0.950 . S
H1250 C1262 0.950 . S
H1251 C1263 0.950 . S
C1252 H1244 0.950 . S
C1252 C1253 1.386 . S
C1252 C1254 1.391 . S
C1253 C1252 1.386 . S
C1253 C1257 1.393 . S
C1254 H1246 0.950 . S
C1254 C1252 1.391 . S
C1254 C1255 1.400 . S
C1255 C1254 1.400 . S
C1255 C1256 1.398 . S
C1255 C1261 1.491 1_565 S
C1256 H1247 0.950 . S
C1256 C1255 1.398 . S
C1256 C1257 1.391 . S
C1257 H1245 0.950 . S
C1257 C1253 1.393 . S
C1257 C1256 1.391 . S
C1258 H1248 0.950 . S
C1258 C1259 1.386 . S
C1258 C1260 1.391 . S
C1259 C1258 1.386 . S
C1259 C1263 1.393 . S
C1260 H1249 0.950 . S
C1260 C1258 1.391 . S
C1260 C1261 1.400 . S
C1261 C1255 1.491 1_545 S
C1261 C1260 1.400 . S
C1261 C1262 1.398 . S
C1262 H1250 0.950 . S
C1262 C1261 1.398 . S
C1262 C1263 1.391 . S
C1263 H1251 0.950 . S
C1263 C1259 1.393 . S
C1263 C1262 1.391 . S
H1264 C1272 0.950 . S
H1265 C1277 0.950 . S
H1266 C1274 0.950 . S
H1267 C1276 0.950 . S
H1268 C1278 0.950 . S
H1269 C1280 0.950 . S
H1270 C1282 0.950 . S
H1271 C1283 0.950 . S
C1272 H1264 0.950 . S
C1272 C1273 1.386 . S
C1272 C1274 1.391 . S
C1273 C1272 1.386 . S
C1273 C1277 1.393 . S
C1274 H1266 0.950 . S
C1274 C1272 1.391 . S
C1274 C1275 1.400 . S
C1275 C1274 1.400 . S
C1275 C1276 1.398 . S
C1275 C1281 1.491 1_655 S
C1276 H1267 0.950 . S
C1276 C1275 1.398 . S
C1276 C1277 1.391 . S
C1277 H1265 0.950 . S
C1277 C1273 1.393 . S
C1277 C1276 1.391 . S
C1278 H1268 0.950 . S
C1278 C1279 1.386 . S
C1278 C1280 1.391 . S
C1279 C1278 1.386 . S
C1279 C1283 1.393 . S
C1280 H1269 0.950 . S
C1280 C1278 1.391 . S
C1280 C1281 1.400 . S
C1281 C1275 1.491 1_455 S
C1281 C1280 1.400 . S
C1281 C1282 1.398 . S
C1282 H1270 0.950 . S
C1282 C1281 1.398 . S
C1282 C1283 1.391 . S
C1283 H1271 0.950 . S
C1283 C1279 1.393 . S
C1283 C1282 1.391 . S
H1284 C1292 0.950 . S
H1285 C1297 0.950 . S
H1286 C1294 0.950 . S
H1287 C1296 0.950 . S
H1288 C1298 0.950 . S
H1289 C1300 0.950 . S
H1290 C1302 0.950 . S
H1291 C1303 0.950 . S
C1292 H1284 0.950 . S
C1292 C1293 1.386 . S
C1292 C1294 1.391 . S
C1293 C1292 1.386 . S
C1293 C1297 1.393 . S
C1294 H1286 0.950 . S
C1294 C1292 1.391 . S
C1294 C1295 1.400 . S
C1295 C1294 1.400 . S
C1295 C1296 1.398 . S
C1295 C1301 1.491 . S
C1296 H1287 0.950 . S
C1296 C1295 1.398 . S
C1296 C1297 1.391 . S
C1297 H1285 0.950 . S
C1297 C1293 1.393 . S
C1297 C1296 1.391 . S
C1298 H1288 0.950 . S
C1298 C1299 1.386 . S
C1298 C1300 1.391 . S
C1299 C1298 1.386 . S
C1299 C1303 1.393 . S
C1300 H1289 0.950 . S
C1300 C1298 1.391 . S
C1300 C1301 1.400 . S
C1301 C1295 1.491 . S
C1301 C1300 1.400 . S
C1301 C1302 1.398 . S
C1302 H1290 0.950 . S
C1302 C1301 1.398 . S
C1302 C1303 1.391 . S
C1303 H1291 0.950 . S
C1303 C1299 1.393 . S
C1303 C1302 1.391 . S
H1304 C1312 0.950 . S
H1305 C1317 0.950 . S
H1306 C1314 0.950 . S
H1307 C1316 0.950 . S
H1308 C1318 0.950 . S
H1309 C1320 0.950 . S
H1310 C1322 0.950 . S
H1311 C1323 0.950 . S
C1312 H1304 0.950 . S
C1312 C1313 1.386 . S
C1312 C1314 1.391 . S
C1313 C1312 1.386 . S
C1313 C1317 1.393 . S
C1314 H1306 0.950 . S
C1314 C1312 1.391 . S
C1314 C1315 1.400 . S
C1315 C1314 1.400 . S
C1315 C1316 1.398 . S
C1315 C1321 1.491 1_545 S
C1316 H1307 0.950 . S
C1316 C1315 1.398 . S
C1316 C1317 1.391 . S
C1317 H1305 0.950 . S
C1317 C1313 1.393 . S
C1317 C1316 1.391 . S
C1318 H1308 0.950 . S
C1318 C1319 1.386 . S
C1318 C1320 1.391 . S
C1319 C1318 1.386 . S
C1319 C1323 1.393 . S
C1320 H1309 0.950 . S
C1320 C1318 1.391 . S
C1320 C1321 1.400 . S
C1321 C1315 1.491 1_565 S
C1321 C1320 1.400 . S
C1321 C1322 1.398 . S
C1322 H1310 0.950 . S
C1322 C1321 1.398 . S
C1322 C1323 1.391 . S
C1323 H1311 0.950 . S
C1323 C1319 1.393 . S
C1323 C1322 1.391 . S
H1324 C1332 0.950 . S
H1325 C1337 0.950 . S
H1326 C1334 0.950 1_455 S
H1327 C1336 0.950 . S
H1328 C1338 0.950 . S
H1329 C1340 0.950 1_655 S
H1330 C1342 0.950 . S
H1331 C1343 0.950 . S
C1332 H1324 0.950 . S
C1332 C1333 1.386 . S
C1332 C1334 1.391 . S
C1333 C1332 1.386 . S
C1333 C1337 1.393 . S
C1334 H1326 0.950 1_655 S
C1334 C1332 1.391 . S
C1334 C1335 1.400 . S
C1335 C1334 1.400 . S
C1335 C1336 1.398 . S
C1335 C1341 1.491 1_655 S
C1336 H1327 0.950 . S
C1336 C1335 1.398 . S
C1336 C1337 1.391 . S
C1337 H1325 0.950 . S
C1337 C1333 1.393 . S
C1337 C1336 1.391 . S
C1338 H1328 0.950 . S
C1338 C1339 1.386 . S
C1338 C1340 1.391 . S
C1339 C1338 1.386 . S
C1339 C1343 1.393 . S
C1340 H1329 0.950 1_455 S
C1340 C1338 1.391 . S
C1340 C1341 1.400 . S
C1341 C1335 1.491 1_455 S
C1341 C1340 1.400 . S
C1341 C1342 1.398 . S
C1342 H1330 0.950 . S
C1342 C1341 1.398 . S
C1342 C1343 1.391 . S
C1343 H1331 0.950 . S
C1343 C1339 1.393 . S
C1343 C1342 1.391 . S
H1344 C1352 0.950 . S
H1345 C1357 0.950 . S
H1346 C1354 0.950 . S
H1347 C1356 0.950 . S
H1348 C1358 0.950 . S
H1349 C1360 0.950 . S
H1350 C1362 0.950 . S
H1351 C1363 0.950 . S
C1352 H1344 0.950 . S
C1352 C1353 1.386 . S
C1352 C1354 1.391 . S
C1353 C1352 1.386 . S
C1353 C1357 1.393 . S
C1354 H1346 0.950 . S
C1354 C1352 1.391 . S
C1354 C1355 1.400 . S
C1355 C1354 1.400 . S
C1355 C1356 1.398 . S
C1355 C1361 1.491 . S
C1356 H1347 0.950 . S
C1356 C1355 1.398 . S
C1356 C1357 1.391 . S
C1357 H1345 0.950 . S
C1357 C1353 1.393 . S
C1357 C1356 1.391 . S
C1358 H1348 0.950 . S
C1358 C1359 1.386 . S
C1358 C1360 1.391 . S
C1359 C1358 1.386 . S
C1359 C1363 1.393 . S
C1360 H1349 0.950 . S
C1360 C1358 1.391 . S
C1360 C1361 1.400 . S
C1361 C1355 1.491 . S
C1361 C1360 1.400 . S
C1361 C1362 1.398 . S
C1362 H1350 0.950 . S
C1362 C1361 1.398 . S
C1362 C1363 1.391 . S
C1363 H1351 0.950 . S
C1363 C1359 1.393 . S
C1363 C1362 1.391 . S
H1364 C1372 0.950 . S
H1365 C1377 0.950 . S
H1366 C1374 0.950 . S
H1367 C1376 0.950 . S
H1368 C1378 0.950 . S
H1369 C1380 0.950 . S
H1370 C1382 0.950 . S
H1371 C1383 0.950 . S
C1372 H1364 0.950 . S
C1372 C1373 1.386 . S
C1372 C1374 1.391 . S
C1373 C1372 1.386 . S
C1373 C1377 1.393 . S
C1374 H1366 0.950 . S
C1374 C1372 1.391 . S
C1374 C1375 1.400 . S
C1375 C1374 1.400 . S
C1375 C1376 1.398 . S
C1375 C1381 1.491 . S
C1376 H1367 0.950 . S
C1376 C1375 1.398 . S
C1376 C1377 1.391 . S
C1377 H1365 0.950 . S
C1377 C1373 1.393 . S
C1377 C1376 1.391 . S
C1378 H1368 0.950 . S
C1378 C1379 1.386 . S
C1378 C1380 1.391 . S
C1379 C1378 1.386 . S
C1379 C1383 1.393 . S
C1380 H1369 0.950 . S
C1380 C1378 1.391 . S
C1380 C1381 1.400 . S
C1381 C1375 1.491 . S
C1381 C1380 1.400 . S
C1381 C1382 1.398 . S
C1382 H1370 0.950 . S
C1382 C1381 1.398 . S
C1382 C1383 1.391 . S
C1383 H1371 0.950 . S
C1383 C1379 1.393 . S
C1383 C1382 1.391 . S
H1384 C1392 0.950 . S
H1385 C1397 0.950 . S
H1386 C1394 0.950 . S
H1387 C1396 0.950 . S
H1388 C1398 0.950 . S
H1389 C1400 0.950 . S
H1390 C1402 0.950 . S
H1391 C1403 0.950 . S
C1392 H1384 0.950 . S
C1392 C1393 1.386 . S
C1392 C1394 1.391 . S
C1393 C1392 1.386 . S
C1393 C1397 1.393 . S
C1394 H1386 0.950 . S
C1394 C1392 1.391 . S
C1394 C1395 1.400 . S
C1395 C1394 1.400 . S
C1395 C1396 1.398 . S
C1395 C1401 1.491 . S
C1396 H1387 0.950 . S
C1396 C1395 1.398 . S
C1396 C1397 1.391 . S
C1397 H1385 0.950 . S
C1397 C1393 1.393 . S
C1397 C1396 1.391 . S
C1398 H1388 0.950 . S
C1398 C1399 1.386 . S
C1398 C1400 1.391 . S
C1399 C1398 1.386 . S
C1399 C1403 1.393 . S
C1400 H1389 0.950 . S
C1400 C1398 1.391 . S
C1400 C1401 1.400 . S
C1401 C1395 1.491 . S
C1401 C1400 1.400 . S
C1401 C1402 1.398 . S
C1402 H1390 0.950 . S
C1402 C1401 1.398 . S
C1402 C1403 1.391 . S
C1403 H1391 0.950 . S
C1403 C1399 1.393 . S
C1403 C1402 1.391 . S
H1404 C1412 0.950 . S
H1405 C1417 0.950 . S
H1406 C1414 0.950 . S
H1407 C1416 0.950 . S
H1408 C1418 0.950 . S
H1409 C1420 0.950 . S
H1410 C1422 0.950 . S
H1411 C1423 0.950 . S
C1412 H1404 0.950 . S
C1412 C1413 1.386 . S
C1412 C1414 1.391 . S
C1413 C1412 1.386 . S
C1413 C1417 1.393 . S
C1414 H1406 0.950 . S
C1414 C1412 1.391 . S
C1414 C1415 1.400 . S
C1415 C1414 1.400 . S
C1415 C1416 1.398 . S
C1415 C1421 1.491 . S
C1416 H1407 0.950 . S
C1416 C1415 1.398 . S
C1416 C1417 1.391 . S
C1417 H1405 0.950 . S
C1417 C1413 1.393 . S
C1417 C1416 1.391 . S
C1418 H1408 0.950 . S
C1418 C1419 1.386 . S
C1418 C1420 1.391 . S
C1419 C1418 1.386 . S
C1419 C1423 1.393 . S
C1420 H1409 0.950 . S
C1420 C1418 1.391 . S
C1420 C1421 1.400 . S
C1421 C1415 1.491 . S
C1421 C1420 1.400 . S
C1421 C1422 1.398 . S
C1422 H1410 0.950 . S
C1422 C1421 1.398 . S
C1422 C1423 1.391 . S
C1423 H1411 0.950 . S
C1423 C1419 1.393 . S
C1423 C1422 1.391 . S
H1424 C1432 0.950 . S
H1425 C1437 0.950 . S
H1426 C1434 0.950 . S
H1427 C1436 0.950 . S
H1428 C1438 0.950 . S
H1429 C1440 0.950 . S
H1430 C1442 0.950 . S
H1431 C1443 0.950 . S
C1432 H1424 0.950 . S
C1432 C1433 1.386 . S
C1432 C1434 1.391 . S
C1433 C1432 1.386 . S
C1433 C1437 1.393 . S
C1434 H1426 0.950 . S
C1434 C1432 1.391 . S
C1434 C1435 1.400 . S
C1435 C1434 1.400 . S
C1435 C1436 1.398 . S
C1435 C1441 1.491 . S
C1436 H1427 0.950 . S
C1436 C1435 1.398 . S
C1436 C1437 1.391 . S
C1437 H1425 0.950 . S
C1437 C1433 1.393 . S
C1437 C1436 1.391 . S
C1438 H1428 0.950 . S
C1438 C1439 1.386 . S
C1438 C1440 1.391 . S
C1439 C1438 1.386 . S
C1439 C1443 1.393 . S
C1440 H1429 0.950 . S
C1440 C1438 1.391 . S
C1440 C1441 1.400 . S
C1441 C1435 1.491 . S
C1441 C1440 1.400 . S
C1441 C1442 1.398 . S
C1442 H1430 0.950 . S
C1442 C1441 1.398 . S
C1442 C1443 1.391 . S
C1443 H1431 0.950 . S
C1443 C1439 1.393 . S
C1443 C1442 1.391 . S
H1444 C1452 0.950 1_556 S
H1445 C1457 0.950 . S
H1446 C1454 0.950 . S
H1447 C1456 0.950 . S
H1448 C1458 0.950 . S
H1449 C1460 0.950 . S
H1450 C1462 0.950 . S
H1451 C1463 0.950 . S
C1452 H1444 0.950 1_554 S
C1452 C1453 1.386 . S
C1452 C1454 1.391 . S
C1453 C1452 1.386 . S
C1453 C1457 1.393 . S
C1454 H1446 0.950 . S
C1454 C1452 1.391 . S
C1454 C1455 1.400 . S
C1455 C1454 1.400 . S
C1455 C1456 1.398 . S
C1455 C1461 1.491 . S
C1456 H1447 0.950 . S
C1456 C1455 1.398 . S
C1456 C1457 1.391 . S
C1457 H1445 0.950 . S
C1457 C1453 1.393 . S
C1457 C1456 1.391 . S
C1458 H1448 0.950 . S
C1458 C1459 1.386 . S
C1458 C1460 1.391 . S
C1459 C1458 1.386 . S
C1459 C1463 1.393 . S
C1460 H1449 0.950 . S
C1460 C1458 1.391 . S
C1460 C1461 1.400 . S
C1461 C1455 1.491 . S
C1461 C1460 1.400 . S
C1461 C1462 1.398 . S
C1462 H1450 0.950 . S
C1462 C1461 1.398 . S
C1462 C1463 1.391 . S
C1463 H1451 0.950 . S
C1463 C1459 1.393 . S
C1463 C1462 1.391 . S
H1464 C1472 0.950 1_554 S
H1465 C1477 0.950 . S
H1466 C1474 0.950 . S
H1467 C1476 0.950 . S
H1468 C1478 0.950 . S
H1469 C1480 0.950 . S
H1470 C1482 0.950 . S
H1471 C1483 0.950 . S
C1472 H1464 0.950 1_556 S
C1472 C1473 1.386 . S
C1472 C1474 1.391 . S
C1473 C1472 1.386 . S
C1473 C1477 1.393 . S
C1474 H1466 0.950 . S
C1474 C1472 1.391 . S
C1474 C1475 1.400 . S
C1475 C1474 1.400 . S
C1475 C1476 1.398 . S
C1475 C1481 1.491 . S
C1476 H1467 0.950 . S
C1476 C1475 1.398 . S
C1476 C1477 1.391 . S
C1477 H1465 0.950 . S
C1477 C1473 1.393 . S
C1477 C1476 1.391 . S
C1478 H1468 0.950 . S
C1478 C1479 1.386 . S
C1478 C1480 1.391 . S
C1479 C1478 1.386 . S
C1479 C1483 1.393 . S
C1480 H1469 0.950 . S
C1480 C1478 1.391 . S
C1480 C1481 1.400 . S
C1481 C1475 1.491 . S
C1481 C1480 1.400 . S
C1481 C1482 1.398 . S
C1482 H1470 0.950 . S
C1482 C1481 1.398 . S
C1482 C1483 1.391 . S
C1483 H1471 0.950 . S
C1483 C1479 1.393 . S
C1483 C1482 1.391 . S
H1484 C1492 0.950 . S
H1485 C1497 0.950 . S
H1486 C1494 0.950 . S
H1487 C1496 0.950 . S
H1488 C1498 0.950 . S
H1489 C1500 0.950 . S
H1490 C1502 0.950 . S
H1491 C1503 0.950 . S
C1492 H1484 0.950 . S
C1492 C1493 1.386 . S
C1492 C1494 1.391 . S
C1493 C1492 1.386 . S
C1493 C1497 1.393 . S
C1494 H1486 0.950 . S
C1494 C1492 1.391 . S
C1494 C1495 1.400 . S
C1495 C1494 1.400 . S
C1495 C1496 1.398 . S
C1495 C1501 1.491 . S
C1496 H1487 0.950 . S
C1496 C1495 1.398 . S
C1496 C1497 1.391 . S
C1497 H1485 0.950 . S
C1497 C1493 1.393 . S
C1497 C1496 1.391 . S
C1498 H1488 0.950 . S
C1498 C1499 1.386 . S
C1498 C1500 1.391 . S
C1499 C1498 1.386 . S
C1499 C1503 1.393 . S
C1500 H1489 0.950 . S
C1500 C1498 1.391 . S
C1500 C1501 1.400 . S
C1501 C1495 1.491 . S
C1501 C1500 1.400 . S
C1501 C1502 1.398 . S
C1502 H1490 0.950 . S
C1502 C1501 1.398 . S
C1502 C1503 1.391 . S
C1503 H1491 0.950 . S
C1503 C1499 1.393 . S
C1503 C1502 1.391 . S
H1504 C1512 0.950 . S
H1505 C1517 0.950 . S
H1506 C1514 0.950 . S
H1507 C1516 0.950 . S
H1508 C1518 0.950 . S
H1509 C1520 0.950 . S
H1510 C1522 0.950 . S
H1511 C1523 0.950 . S
C1512 H1504 0.950 . S
C1512 C1513 1.386 . S
C1512 C1514 1.391 . S
C1513 C1512 1.386 . S
C1513 C1517 1.393 . S
C1514 H1506 0.950 . S
C1514 C1512 1.391 . S
C1514 C1515 1.400 . S
C1515 C1514 1.400 . S
C1515 C1516 1.398 . S
C1515 C1521 1.491 . S
C1516 H1507 0.950 . S
C1516 C1515 1.398 . S
C1516 C1517 1.391 . S
C1517 H1505 0.950 . S
C1517 C1513 1.393 . S
C1517 C1516 1.391 . S
C1518 H1508 0.950 . S
C1518 C1519 1.386 . S
C1518 C1520 1.391 . S
C1519 C1518 1.386 . S
C1519 C1523 1.393 . S
C1520 H1509 0.950 . S
C1520 C1518 1.391 . S
C1520 C1521 1.400 . S
C1521 C1515 1.491 . S
C1521 C1520 1.400 . S
C1521 C1522 1.398 . S
C1522 H1510 0.950 . S
C1522 C1521 1.398 . S
C1522 C1523 1.391 . S
C1523 H1511 0.950 . S
C1523 C1519 1.393 . S
C1523 C1522 1.391 . S
H1524 C1532 0.950 . S
H1525 C1537 0.950 . S
H1526 C1534 0.950 . S
H1527 C1536 0.950 . S
H1528 C1538 0.950 . S
H1529 C1540 0.950 . S
H1530 C1542 0.950 . S
H1531 C1543 0.950 . S
C1532 H1524 0.950 . S
C1532 C1533 1.386 . S
C1532 C1534 1.391 . S
C1533 C1532 1.386 . S
C1533 C1537 1.393 . S
C1534 H1526 0.950 . S
C1534 C1532 1.391 . S
C1534 C1535 1.400 . S
C1535 C1534 1.400 . S
C1535 C1536 1.398 . S
C1535 C1541 1.491 . S
C1536 H1527 0.950 . S
C1536 C1535 1.398 . S
C1536 C1537 1.391 . S
C1537 H1525 0.950 . S
C1537 C1533 1.393 . S
C1537 C1536 1.391 . S
C1538 H1528 0.950 . S
C1538 C1539 1.386 . S
C1538 C1540 1.391 . S
C1539 C1538 1.386 . S
C1539 C1543 1.393 . S
C1540 H1529 0.950 . S
C1540 C1538 1.391 . S
C1540 C1541 1.400 . S
C1541 C1535 1.491 . S
C1541 C1540 1.400 . S
C1541 C1542 1.398 . S
C1542 H1530 0.950 . S
C1542 C1541 1.398 . S
C1542 C1543 1.391 . S
C1543 H1531 0.950 . S
C1543 C1539 1.393 . S
C1543 C1542 1.391 . S
H1544 C1552 0.950 . S
H1545 C1557 0.950 . S
H1546 C1554 0.950 . S
H1547 C1556 0.950 . S
H1548 C1558 0.950 . S
H1549 C1560 0.950 . S
H1550 C1562 0.950 . S
H1551 C1563 0.950 . S
C1552 H1544 0.950 . S
C1552 C1553 1.386 . S
C1552 C1554 1.391 . S
C1553 C1552 1.386 . S
C1553 C1557 1.393 . S
C1554 H1546 0.950 . S
C1554 C1552 1.391 . S
C1554 C1555 1.400 . S
C1555 C1554 1.400 . S
C1555 C1556 1.398 . S
C1555 C1561 1.491 . S
C1556 H1547 0.950 . S
C1556 C1555 1.398 . S
C1556 C1557 1.391 . S
C1557 H1545 0.950 . S
C1557 C1553 1.393 . S
C1557 C1556 1.391 . S
C1558 H1548 0.950 . S
C1558 C1559 1.386 . S
C1558 C1560 1.391 . S
C1559 C1558 1.386 . S
C1559 C1563 1.393 . S
C1560 H1549 0.950 . S
C1560 C1558 1.391 . S
C1560 C1561 1.400 . S
C1561 C1555 1.491 . S
C1561 C1560 1.400 . S
C1561 C1562 1.398 . S
C1562 H1550 0.950 . S
C1562 C1561 1.398 . S
C1562 C1563 1.391 . S
C1563 H1551 0.950 . S
C1563 C1559 1.393 . S
C1563 C1562 1.391 . S
H1564 C1572 0.950 . S
H1565 C1577 0.950 . S
H1566 C1574 0.950 . S
H1567 C1576 0.950 . S
H1568 C1578 0.950 . S
H1569 C1580 0.950 . S
H1570 C1582 0.950 . S
H1571 C1583 0.950 . S
C1572 H1564 0.950 . S
C1572 C1573 1.386 . S
C1572 C1574 1.391 . S
C1573 C1572 1.386 . S
C1573 C1577 1.393 . S
C1574 H1566 0.950 . S
C1574 C1572 1.391 . S
C1574 C1575 1.400 . S
C1575 C1574 1.400 . S
C1575 C1576 1.398 . S
C1575 C1581 1.491 . S
C1576 H1567 0.950 . S
C1576 C1575 1.398 . S
C1576 C1577 1.391 . S
C1577 H1565 0.950 . S
C1577 C1573 1.393 . S
C1577 C1576 1.391 . S
C1578 H1568 0.950 . S
C1578 C1579 1.386 . S
C1578 C1580 1.391 . S
C1579 C1578 1.386 . S
C1579 C1583 1.393 . S
C1580 H1569 0.950 . S
C1580 C1578 1.391 . S
C1580 C1581 1.400 . S
C1581 C1575 1.491 . S
C1581 C1580 1.400 . S
C1581 C1582 1.398 . S
C1582 H1570 0.950 . S
C1582 C1581 1.398 . S
C1582 C1583 1.391 . S
C1583 H1571 0.950 . S
C1583 C1579 1.393 . S
C1583 C1582 1.391 . S
H1584 C1592 0.950 . S
H1585 C1597 0.950 . S
H1586 C1594 0.950 . S
H1587 C1596 0.950 . S
H1588 C1598 0.950 . S
H1589 C1600 0.950 . S
H1590 C1602 0.950 . S
H1591 C1603 0.950 . S
C1592 H1584 0.950 . S
C1592 C1593 1.386 . S
C1592 C1594 1.391 . S
C1593 C1592 1.386 . S
C1593 C1597 1.393 . S
C1594 H1586 0.950 . S
C1594 C1592 1.391 . S
C1594 C1595 1.400 . S
C1595 C1594 1.400 . S
C1595 C1596 1.398 . S
C1595 C1601 1.491 . S
C1596 H1587 0.950 . S
C1596 C1595 1.398 . S
C1596 C1597 1.391 . S
C1597 H1585 0.950 . S
C1597 C1593 1.393 . S
C1597 C1596 1.391 . S
C1598 H1588 0.950 . S
C1598 C1599 1.386 . S
C1598 C1600 1.391 . S
C1599 C1598 1.386 . S
C1599 C1603 1.393 . S
C1600 H1589 0.950 . S
C1600 C1598 1.391 . S
C1600 C1601 1.400 . S
C1601 C1595 1.491 . S
C1601 C1600 1.400 . S
C1601 C1602 1.398 . S
C1602 H1590 0.950 . S
C1602 C1601 1.398 . S
C1602 C1603 1.391 . S
C1603 H1591 0.950 . S
C1603 C1599 1.393 . S
C1603 C1602 1.391 . S
H1604 C1612 0.950 . S
H1605 C1617 0.950 . S
H1606 C1614 0.950 . S
H1607 C1616 0.950 . S
H1608 C1618 0.950 . S
H1609 C1620 0.950 . S
H1610 C1622 0.950 . S
H1611 C1623 0.950 . S
C1612 H1604 0.950 . S
C1612 C1613 1.386 . S
C1612 C1614 1.391 . S
C1613 C1612 1.386 . S
C1613 C1617 1.393 . S
C1614 H1606 0.950 . S
C1614 C1612 1.391 . S
C1614 C1615 1.400 . S
C1615 C1614 1.400 . S
C1615 C1616 1.398 . S
C1615 C1621 1.491 . S
C1616 H1607 0.950 . S
C1616 C1615 1.398 . S
C1616 C1617 1.391 . S
C1617 H1605 0.950 . S
C1617 C1613 1.393 . S
C1617 C1616 1.391 . S
C1618 H1608 0.950 . S
C1618 C1619 1.386 . S
C1618 C1620 1.391 . S
C1619 C1618 1.386 . S
C1619 C1623 1.393 . S
C1620 H1609 0.950 . S
C1620 C1618 1.391 . S
C1620 C1621 1.400 . S
C1621 C1615 1.491 . S
C1621 C1620 1.400 . S
C1621 C1622 1.398 . S
C1622 H1610 0.950 . S
C1622 C1621 1.398 . S
C1622 C1623 1.391 . S
C1623 H1611 0.950 . S
C1623 C1619 1.393 . S
C1623 C1622 1.391 . S
H1624 C1632 0.950 . S
H1625 C1637 0.950 . S
H1626 C1634 0.950 . S
H1627 C1636 0.950 . S
H1628 C1638 0.950 . S
H1629 C1640 0.950 . S
H1630 C1642 0.950 . S
H1631 C1643 0.950 . S
C1632 H1624 0.950 . S
C1632 C1633 1.386 . S
C1632 C1634 1.391 . S
C1633 C1632 1.386 . S
C1633 C1637 1.393 . S
C1634 H1626 0.950 . S
C1634 C1632 1.391 . S
C1634 C1635 1.400 . S
C1635 C1634 1.400 . S
C1635 C1636 1.398 . S
C1635 C1641 1.491 . S
C1636 H1627 0.950 . S
C1636 C1635 1.398 . S
C1636 C1637 1.391 . S
C1637 H1625 0.950 . S
C1637 C1633 1.393 . S
C1637 C1636 1.391 . S
C1638 H1628 0.950 . S
C1638 C1639 1.386 . S
C1638 C1640 1.391 . S
C1639 C1638 1.386 . S
C1639 C1643 1.393 . S
C1640 H1629 0.950 . S
C1640 C1638 1.391 . S
C1640 C1641 1.400 . S
C1641 C1635 1.491 . S
C1641 C1640 1.400 . S
C1641 C1642 1.398 . S
C1642 H1630 0.950 . S
C1642 C1641 1.398 . S
C1642 C1643 1.391 . S
C1643 H1631 0.950 . S
C1643 C1639 1.393 . S
C1643 C1642 1.391 . S
H1644 C1652 0.950 . S
H1645 C1657 0.950 . S
H1646 C1654 0.950 . S
H1647 C1656 0.950 . S
H1648 C1658 0.950 . S
H1649 C1660 0.950 . S
H1650 C1662 0.950 . S
H1651 C1663 0.950 . S
C1652 H1644 0.950 . S
C1652 C1653 1.386 . S
C1652 C1654 1.391 . S
C1653 C1652 1.386 . S
C1653 C1657 1.393 . S
C1654 H1646 0.950 . S
C1654 C1652 1.391 . S
C1654 C1655 1.400 . S
C1655 C1654 1.400 . S
C1655 C1656 1.398 . S
C1655 C1661 1.491 . S
C1656 H1647 0.950 . S
C1656 C1655 1.398 . S
C1656 C1657 1.391 . S
C1657 H1645 0.950 . S
C1657 C1653 1.393 . S
C1657 C1656 1.391 . S
C1658 H1648 0.950 . S
C1658 C1659 1.386 . S
C1658 C1660 1.391 . S
C1659 C1658 1.386 . S
C1659 C1663 1.393 . S
C1660 H1649 0.950 . S
C1660 C1658 1.391 . S
C1660 C1661 1.400 . S
C1661 C1655 1.491 . S
C1661 C1660 1.400 . S
C1661 C1662 1.398 . S
C1662 H1650 0.950 . S
C1662 C1661 1.398 . S
C1662 C1663 1.391 . S
C1663 H1651 0.950 . S
C1663 C1659 1.393 . S
C1663 C1662 1.391 . S
H1664 C1672 0.950 . S
H1665 C1677 0.950 . S
H1666 C1674 0.950 . S
H1667 C1676 0.950 . S
H1668 C1678 0.950 . S
H1669 C1680 0.950 . S
H1670 C1682 0.950 . S
H1671 C1683 0.950 . S
C1672 H1664 0.950 . S
C1672 C1673 1.386 . S
C1672 C1674 1.391 . S
C1673 C1672 1.386 . S
C1673 C1677 1.393 . S
C1674 H1666 0.950 . S
C1674 C1672 1.391 . S
C1674 C1675 1.400 . S
C1675 C1674 1.400 . S
C1675 C1676 1.398 . S
C1675 C1681 1.491 . S
C1676 H1667 0.950 . S
C1676 C1675 1.398 . S
C1676 C1677 1.391 . S
C1677 H1665 0.950 . S
C1677 C1673 1.393 . S
C1677 C1676 1.391 . S
C1678 H1668 0.950 . S
C1678 C1679 1.386 . S
C1678 C1680 1.391 . S
C1679 C1678 1.386 . S
C1679 C1683 1.393 . S
C1680 H1669 0.950 . S
C1680 C1678 1.391 . S
C1680 C1681 1.400 . S
C1681 C1675 1.491 . S
C1681 C1680 1.400 . S
C1681 C1682 1.398 . S
C1682 H1670 0.950 . S
C1682 C1681 1.398 . S
C1682 C1683 1.391 . S
C1683 H1671 0.950 . S
C1683 C1679 1.393 . S
C1683 C1682 1.391 . S
H1684 C1692 0.950 . S
H1685 C1697 0.950 . S
H1686 C1694 0.950 . S
H1687 C1696 0.950 . S
H1688 C1698 0.950 . S
H1689 C1700 0.950 . S
H1690 C1702 0.950 . S
H1691 C1703 0.950 . S
C1692 H1684 0.950 . S
C1692 C1693 1.386 . S
C1692 C1694 1.391 . S
C1693 C1692 1.386 . S
C1693 C1697 1.393 . S
C1694 H1686 0.950 . S
C1694 C1692 1.391 . S
C1694 C1695 1.400 . S
C1695 C1694 1.400 . S
C1695 C1696 1.398 . S
C1695 C1701 1.491 . S
C1696 H1687 0.950 . S
C1696 C1695 1.398 . S
C1696 C1697 1.391 . S
C1697 H1685 0.950 . S
C1697 C1693 1.393 . S
C1697 C1696 1.391 . S
C1698 H1688 0.950 . S
C1698 C1699 1.386 . S
C1698 C1700 1.391 . S
C1699 C1698 1.386 . S
C1699 C1703 1.393 . S
C1700 H1689 0.950 . S
C1700 C1698 1.391 . S
C1700 C1701 1.400 . S
C1701 C1695 1.491 . S
C1701 C1700 1.400 . S
C1701 C1702 1.398 . S
C1702 H1690 0.950 . S
C1702 C1701 1.398 . S
C1702 C1703 1.391 . S
C1703 H1691 0.950 . S
C1703 C1699 1.393 . S
C1703 C1702 1.391 . S
H1704 C1712 0.950 . S
H1705 C1717 0.950 . S
H1706 C1714 0.950 . S
H1707 C1716 0.950 . S
H1708 C1718 0.950 . S
H1709 C1720 0.950 . S
H1710 C1722 0.950 . S
H1711 C1723 0.950 . S
C1712 H1704 0.950 . S
C1712 C1713 1.386 . S
C1712 C1714 1.391 . S
C1713 C1712 1.386 . S
C1713 C1717 1.393 . S
C1714 H1706 0.950 . S
C1714 C1712 1.391 . S
C1714 C1715 1.400 . S
C1715 C1714 1.400 . S
C1715 C1716 1.398 . S
C1715 C1721 1.491 . S
C1716 H1707 0.950 . S
C1716 C1715 1.398 . S
C1716 C1717 1.391 . S
C1717 H1705 0.950 . S
C1717 C1713 1.393 . S
C1717 C1716 1.391 . S
C1718 H1708 0.950 . S
C1718 C1719 1.386 . S
C1718 C1720 1.391 . S
C1719 C1718 1.386 . S
C1719 C1723 1.393 . S
C1720 H1709 0.950 . S
C1720 C1718 1.391 . S
C1720 C1721 1.400 . S
C1721 C1715 1.491 . S
C1721 C1720 1.400 . S
C1721 C1722 1.398 . S
C1722 H1710 0.950 . S
C1722 C1721 1.398 . S
C1722 C1723 1.391 . S
C1723 H1711 0.950 . S
C1723 C1719 1.393 . S
C1723 C1722 1.391 . S
H1724 C1732 0.950 . S
H1725 C1737 0.950 . S
H1726 C1734 0.950 . S
H1727 C1736 0.950 . S
H1728 C1738 0.950 . S
H1729 C1740 0.950 . S
H1730 C1742 0.950 . S
H1731 C1743 0.950 . S
C1732 H1724 0.950 . S
C1732 C1733 1.386 . S
C1732 C1734 1.391 . S
C1733 C1732 1.386 . S
C1733 C1737 1.393 . S
C1734 H1726 0.950 . S
C1734 C1732 1.391 . S
C1734 C1735 1.400 . S
C1735 C1734 1.400 . S
C1735 C1736 1.398 . S
C1735 C1741 1.491 . S
C1736 H1727 0.950 . S
C1736 C1735 1.398 . S
C1736 C1737 1.391 . S
C1737 H1725 0.950 . S
C1737 C1733 1.393 . S
C1737 C1736 1.391 . S
C1738 H1728 0.950 . S
C1738 C1739 1.386 . S
C1738 C1740 1.391 . S
C1739 C1738 1.386 . S
C1739 C1743 1.393 . S
C1740 H1729 0.950 . S
C1740 C1738 1.391 . S
C1740 C1741 1.400 . S
C1741 C1735 1.491 . S
C1741 C1740 1.400 . S
C1741 C1742 1.398 . S
C1742 H1730 0.950 . S
C1742 C1741 1.398 . S
C1742 C1743 1.391 . S
C1743 H1731 0.950 . S
C1743 C1739 1.393 . S
C1743 C1742 1.391 . S
H1744 C1752 0.950 . S
H1745 C1757 0.950 . S
H1746 C1754 0.950 . S
H1747 C1756 0.950 . S
H1748 C1758 0.950 . S
H1749 C1760 0.950 . S
H1750 C1762 0.950 . S
H1751 C1763 0.950 . S
C1752 H1744 0.950 . S
C1752 C1753 1.386 . S
C1752 C1754 1.391 . S
C1753 C1752 1.386 . S
C1753 C1757 1.393 . S
C1754 H1746 0.950 . S
C1754 C1752 1.391 . S
C1754 C1755 1.400 . S
C1755 C1754 1.400 . S
C1755 C1756 1.398 . S
C1755 C1761 1.491 . S
C1756 H1747 0.950 . S
C1756 C1755 1.398 . S
C1756 C1757 1.391 . S
C1757 H1745 0.950 . S
C1757 C1753 1.393 . S
C1757 C1756 1.391 . S
C1758 H1748 0.950 . S
C1758 C1759 1.386 . S
C1758 C1760 1.391 . S
C1759 C1758 1.386 . S
C1759 C1763 1.393 . S
C1760 H1749 0.950 . S
C1760 C1758 1.391 . S
C1760 C1761 1.400 . S
C1761 C1755 1.491 . S
C1761 C1760 1.400 . S
C1761 C1762 1.398 . S
C1762 H1750 0.950 . S
C1762 C1761 1.398 . S
C1762 C1763 1.391 . S
C1763 H1751 0.950 . S
C1763 C1759 1.393 . S
C1763 C1762 1.391 . S
H1764 C1772 0.950 . S
H1765 C1777 0.950 . S
H1766 C1774 0.950 . S
H1767 C1776 0.950 . S
H1768 C1778 0.950 . S
H1769 C1780 0.950 . S
H1770 C1782 0.950 . S
H1771 C1783 0.950 . S
C1772 H1764 0.950 . S
C1772 C1773 1.386 . S
C1772 C1774 1.391 . S
C1773 C1772 1.386 . S
C1773 C1777 1.393 . S
C1774 H1766 0.950 . S
C1774 C1772 1.391 . S
C1774 C1775 1.400 . S
C1775 C1774 1.400 . S
C1775 C1776 1.398 . S
C1775 C1781 1.491 . S
C1776 H1767 0.950 . S
C1776 C1775 1.398 . S
C1776 C1777 1.391 . S
C1777 H1765 0.950 . S
C1777 C1773 1.393 . S
C1777 C1776 1.391 . S
C1778 H1768 0.950 . S
C1778 C1779 1.386 . S
C1778 C1780 1.391 . S
C1779 C1778 1.386 . S
C1779 C1783 1.393 . S
C1780 H1769 0.950 . S
C1780 C1778 1.391 . S
C1780 C1781 1.400 . S
C1781 C1775 1.491 . S
C1781 C1780 1.400 . S
C1781 C1782 1.398 . S
C1782 H1770 0.950 . S
C1782 C1781 1.398 . S
C1782 C1783 1.391 . S
C1783 H1771 0.950 . S
C1783 C1779 1.393 . S
C1783 C1782 1.391 . S
H1784 C1792 0.950 . S
H1785 C1797 0.950 . S
H1786 C1794 0.950 . S
H1787 C1796 0.950 . S
H1788 C1798 0.950 . S
H1789 C1800 0.950 . S
H1790 C1802 0.950 . S
H1791 C1803 0.950 . S
C1792 H1784 0.950 . S
C1792 C1793 1.386 . S
C1792 C1794 1.391 . S
C1793 C1792 1.386 . S
C1793 C1797 1.393 . S
C1794 H1786 0.950 . S
C1794 C1792 1.391 . S
C1794 C1795 1.400 . S
C1795 C1794 1.400 . S
C1795 C1796 1.398 . S
C1795 C1801 1.491 . S
C1796 H1787 0.950 . S
C1796 C1795 1.398 . S
C1796 C1797 1.391 . S
C1797 H1785 0.950 . S
C1797 C1793 1.393 . S
C1797 C1796 1.391 . S
C1798 H1788 0.950 . S
C1798 C1799 1.386 . S
C1798 C1800 1.391 . S
C1799 C1798 1.386 . S
C1799 C1803 1.393 . S
C1800 H1789 0.950 . S
C1800 C1798 1.391 . S
C1800 C1801 1.400 . S
C1801 C1795 1.491 . S
C1801 C1800 1.400 . S
C1801 C1802 1.398 . S
C1802 H1790 0.950 . S
C1802 C1801 1.398 . S
C1802 C1803 1.391 . S
C1803 H1791 0.950 . S
C1803 C1799 1.393 . S
C1803 C1802 1.391 . S
H1804 C1812 0.950 . S
H1805 C1817 0.950 . S
H1806 C1814 0.950 . S
H1807 C1816 0.950 . S
H1808 C1818 0.950 . S
H1809 C1820 0.950 . S
H1810 C1822 0.950 . S
H1811 C1823 0.950 . S
C1812 H1804 0.950 . S
C1812 C1813 1.386 . S
C1812 C1814 1.391 . S
C1813 C1812 1.386 . S
C1813 C1817 1.393 . S
C1814 H1806 0.950 . S
C1814 C1812 1.391 . S
C1814 C1815 1.400 . S
C1815 C1814 1.400 . S
C1815 C1816 1.398 . S
C1815 C1821 1.491 . S
C1816 H1807 0.950 . S
C1816 C1815 1.398 . S
C1816 C1817 1.391 . S
C1817 H1805 0.950 . S
C1817 C1813 1.393 . S
C1817 C1816 1.391 . S
C1818 H1808 0.950 . S
C1818 C1819 1.386 . S
C1818 C1820 1.391 . S
C1819 C1818 1.386 . S
C1819 C1823 1.393 . S
C1820 H1809 0.950 . S
C1820 C1818 1.391 . S
C1820 C1821 1.400 . S
C1821 C1815 1.491 . S
C1821 C1820 1.400 . S
C1821 C1822 1.398 . S
C1822 H1810 0.950 . S
C1822 C1821 1.398 . S
C1822 C1823 1.391 . S
C1823 H1811 0.950 . S
C1823 C1819 1.393 . S
C1823 C1822 1.391 . S
H1824 C1832 0.950 . S
H1825 C1837 0.950 . S
H1826 C1834 0.950 . S
H1827 C1836 0.950 . S
H1828 C1838 0.950 . S
H1829 C1840 0.950 . S
H1830 C1842 0.950 . S
H1831 C1843 0.950 . S
C1832 H1824 0.950 . S
C1832 C1833 1.386 . S
C1832 C1834 1.391 . S
C1833 C1832 1.386 . S
C1833 C1837 1.393 . S
C1834 H1826 0.950 . S
C1834 C1832 1.391 . S
C1834 C1835 1.400 . S
C1835 C1834 1.400 . S
C1835 C1836 1.398 . S
C1835 C1841 1.491 1_455 S
C1836 H1827 0.950 . S
C1836 C1835 1.398 . S
C1836 C1837 1.391 . S
C1837 H1825 0.950 . S
C1837 C1833 1.393 . S
C1837 C1836 1.391 . S
C1838 H1828 0.950 . S
C1838 C1839 1.386 . S
C1838 C1840 1.391 . S
C1839 C1838 1.386 . S
C1839 C1843 1.393 . S
C1840 H1829 0.950 . S
C1840 C1838 1.391 . S
C1840 C1841 1.400 . S
C1841 C1835 1.491 1_655 S
C1841 C1840 1.400 . S
C1841 C1842 1.398 . S
C1842 H1830 0.950 . S
C1842 C1841 1.398 . S
C1842 C1843 1.391 . S
C1843 H1831 0.950 . S
C1843 C1839 1.393 . S
C1843 C1842 1.391 . S
H1844 C1852 0.950 . S
H1845 C1857 0.950 . S
H1846 C1854 0.950 . S
H1847 C1856 0.950 . S
H1848 C1858 0.950 . S
H1849 C1860 0.950 . S
H1850 C1862 0.950 . S
H1851 C1863 0.950 . S
C1852 H1844 0.950 . S
C1852 C1853 1.386 . S
C1852 C1854 1.391 . S
C1853 C1852 1.386 . S
C1853 C1857 1.393 . S
C1854 H1846 0.950 . S
C1854 C1852 1.391 . S
C1854 C1855 1.400 . S
C1855 C1854 1.400 . S
C1855 C1856 1.398 . S
C1855 C1861 1.491 . S
C1856 H1847 0.950 . S
C1856 C1855 1.398 . S
C1856 C1857 1.391 . S
C1857 H1845 0.950 . S
C1857 C1853 1.393 . S
C1857 C1856 1.391 . S
C1858 H1848 0.950 . S
C1858 C1859 1.386 . S
C1858 C1860 1.391 . S
C1859 C1858 1.386 . S
C1859 C1863 1.393 . S
C1860 H1849 0.950 . S
C1860 C1858 1.391 . S
C1860 C1861 1.400 . S
C1861 C1855 1.491 . S
C1861 C1860 1.400 . S
C1861 C1862 1.398 . S
C1862 H1850 0.950 . S
C1862 C1861 1.398 . S
C1862 C1863 1.391 . S
C1863 H1851 0.950 . S
C1863 C1859 1.393 . S
C1863 C1862 1.391 . S
H1864 C1872 0.950 . S
H1865 C1877 0.950 . S
H1866 C1874 0.950 . S
H1867 C1876 0.950 . S
H1868 C1878 0.950 . S
H1869 C1880 0.950 . S
H1870 C1882 0.950 . S
H1871 C1883 0.950 . S
C1872 H1864 0.950 . S
C1872 C1873 1.386 . S
C1872 C1874 1.391 . S
C1873 C1872 1.386 . S
C1873 C1877 1.393 . S
C1874 H1866 0.950 . S
C1874 C1872 1.391 . S
C1874 C1875 1.400 . S
C1875 C1874 1.400 . S
C1875 C1876 1.398 . S
C1875 C1881 1.491 1_545 S
C1876 H1867 0.950 . S
C1876 C1875 1.398 . S
C1876 C1877 1.391 . S
C1877 H1865 0.950 . S
C1877 C1873 1.393 . S
C1877 C1876 1.391 . S
C1878 H1868 0.950 . S
C1878 C1879 1.386 . S
C1878 C1880 1.391 . S
C1879 C1878 1.386 . S
C1879 C1883 1.393 . S
C1880 H1869 0.950 . S
C1880 C1878 1.391 . S
C1880 C1881 1.400 . S
C1881 C1875 1.491 1_565 S
C1881 C1880 1.400 . S
C1881 C1882 1.398 . S
C1882 H1870 0.950 . S
C1882 C1881 1.398 . S
C1882 C1883 1.391 . S
C1883 H1871 0.950 . S
C1883 C1879 1.393 . S
C1883 C1882 1.391 . S
H1884 C1892 0.950 . S
H1885 C1897 0.950 1_554 S
H1886 C1894 0.950 . S
H1887 C1896 0.950 . S
H1888 C1898 0.950 . S
H1889 C1900 0.950 . S
H1890 C1902 0.950 . S
H1891 C1903 0.950 1_556 S
C1892 H1884 0.950 . S
C1892 C1893 1.386 . S
C1892 C1894 1.391 . S
C1893 C1892 1.386 . S
C1893 C1897 1.393 . S
C1894 H1886 0.950 . S
C1894 C1892 1.391 . S
C1894 C1895 1.400 . S
C1895 C1894 1.400 . S
C1895 C1896 1.398 1_556 S
C1895 C1901 1.491 1_546 S
C1896 H1887 0.950 . S
C1896 C1895 1.398 1_554 S
C1896 C1897 1.391 1_554 S
C1897 H1885 0.950 1_556 S
C1897 C1893 1.393 . S
C1897 C1896 1.391 1_556 S
C1898 H1888 0.950 . S
C1898 C1899 1.386 . S
C1898 C1900 1.391 . S
C1899 C1898 1.386 . S
C1899 C1903 1.393 . S
C1900 H1889 0.950 . S
C1900 C1898 1.391 . S
C1900 C1901 1.400 . S
C1901 C1895 1.491 1_564 S
C1901 C1900 1.400 . S
C1901 C1902 1.398 1_554 S
C1902 H1890 0.950 . S
C1902 C1901 1.398 1_556 S
C1902 C1903 1.391 1_556 S
C1903 H1891 0.950 1_554 S
C1903 C1899 1.393 . S
C1903 C1902 1.391 1_554 S
H1904 C1912 0.950 . S
H1905 C1917 0.950 1_554 S
H1906 C1914 0.950 . S
H1907 C1916 0.950 . S
H1908 C1918 0.950 . S
H1909 C1920 0.950 . S
H1910 C1922 0.950 . S
H1911 C1923 0.950 1_556 S
C1912 H1904 0.950 . S
C1912 C1913 1.386 . S
C1912 C1914 1.391 . S
C1913 C1912 1.386 . S
C1913 C1917 1.393 . S
C1914 H1906 0.950 . S
C1914 C1912 1.391 . S
C1914 C1915 1.400 . S
C1915 C1914 1.400 . S
C1915 C1916 1.398 1_556 S
C1915 C1921 1.491 1_656 S
C1916 H1907 0.950 . S
C1916 C1915 1.398 1_554 S
C1916 C1917 1.391 1_554 S
C1917 H1905 0.950 1_556 S
C1917 C1913 1.393 . S
C1917 C1916 1.391 1_556 S
C1918 H1908 0.950 . S
C1918 C1919 1.386 . S
C1918 C1920 1.391 . S
C1919 C1918 1.386 . S
C1919 C1923 1.393 . S
C1920 H1909 0.950 . S
C1920 C1918 1.391 . S
C1920 C1921 1.400 . S
C1921 C1915 1.491 1_454 S
C1921 C1920 1.400 . S
C1921 C1922 1.398 1_554 S
C1922 H1910 0.950 . S
C1922 C1921 1.398 1_556 S
C1922 C1923 1.391 1_556 S
C1923 H1911 0.950 1_554 S
C1923 C1919 1.393 . S
C1923 C1922 1.391 1_554 S
H1924 C1932 0.950 . S
H1925 C1937 0.950 . S
H1926 C1934 0.950 . S
H1927 C1936 0.950 . S
H1928 C1938 0.950 . S
H1929 C1940 0.950 . S
H1930 C1942 0.950 . S
H1931 C1943 0.950 . S
C1932 H1924 0.950 . S
C1932 C1933 1.386 1_554 S
C1932 C1934 1.391 . S
C1933 C1932 1.386 1_556 S
C1933 C1937 1.393 . S
C1934 H1926 0.950 . S
C1934 C1932 1.391 . S
C1934 C1935 1.400 1_554 S
C1935 C1934 1.400 1_556 S
C1935 C1936 1.398 . S
C1935 C1941 1.491 1_556 S
C1936 H1927 0.950 . S
C1936 C1935 1.398 . S
C1936 C1937 1.391 . S
C1937 H1925 0.950 . S
C1937 C1933 1.393 . S
C1937 C1936 1.391 . S
C1938 H1928 0.950 . S
C1938 C1939 1.386 1_556 S
C1938 C1940 1.391 . S
C1939 C1938 1.386 1_554 S
C1939 C1943 1.393 . S
C1940 H1929 0.950 . S
C1940 C1938 1.391 . S
C1940 C1941 1.400 1_556 S
C1941 C1935 1.491 1_554 S
C1941 C1940 1.400 1_554 S
C1941 C1942 1.398 . S
C1942 H1930 0.950 . S
C1942 C1941 1.398 . S
C1942 C1943 1.391 . S
C1943 H1931 0.950 . S
C1943 C1939 1.393 . S
C1943 C1942 1.391 . S
C513 C7 1.315 . S
C519 C107 1.287 . S
C533 C21 1.304 . S
C539 C121 1.305 . S
C553 C93 1.287 . S
C559 C35 1.315 . S
C573 C163 1.308 . S
C579 C49 1.300 . S
C593 C63 1.314 . S
C599 C135 1.293 . S
C613 C77 1.308 . S
C619 C149 1.295 . S
C633 C23 1.287 . S
C639 C91 1.317 . S
C653 C37 1.306 . S
C659 C105 1.300 . S
C673 C119 1.315 . S
C679 C9 1.290 . S
C693 C133 1.313 . S
C699 C79 1.290 . S
C713 C51 1.293 . S
C719 C147 1.313 . S
C733 C161 1.299 . S
C739 C65 1.308 . S
C753 C275 1.296 . S
C759 C175 1.308 . S
C773 C189 1.301 . S
C779 C289 1.306 . S
C793 C203 1.304 . S
C799 C261 1.305 . S
C813 C331 1.309 . S
C819 C217 1.299 . S
C833 C231 1.300 . S
C839 C303 1.309 . S
C853 C317 1.309 . S
C859 C245 1.299 . S
C873 C191 1.299 . S
C879 C259 1.305 . S
C893 C273 1.299 . S
C899 C205 1.308 . S
C913 C177 1.302 . S
C919 C287 1.307 . S
C933 C301 1.312 . S
C939 C247 1.290 . S
C953 C315 1.317 . S
C959 C219 1.286 . S
C973 C329 1.299 . S
C979 C233 1.309 . S
C993 C443 1.296 . S
C999 C343 1.312 . S
C1013 C457 1.305 . S
C1019 C357 1.304 . S
C1033 C429 1.302 . S
C1039 C371 1.307 . S
C1053 C385 1.318 . S
C1059 C499 1.286 . S
C1073 C399 1.305 . S
C1079 C471 1.304 . S
C1093 C485 1.287 . S
C1099 C413 1.317 . S
C1113 C427 1.310 . S
C1119 C359 1.293 . S
C1133 C373 1.291 . S
C1139 C441 1.315 . S
C1153 C345 1.286 . S
C1159 C455 1.317 . S
C1173 C469 1.317 . S
C1179 C415 1.286 . S
C1193 C483 1.304 . S
C1199 C387 1.306 . S
C1213 C497 1.300 . S
C1219 C401 1.309 . S
C1233 C50 1.749 . S
C1239 C8 1.763 . S
C1253 C64 1.756 . S
C1259 C22 1.759 . S
C1273 C36 1.753 . S
C1279 C78 1.761 . S
C1293 C134 1.763 . S
C1299 C92 1.748 . S
C1313 C148 1.752 . S
C1319 C106 1.755 . S
C1333 C162 1.748 . S
C1339 C120 1.762 . S
C1353 C218 1.749 . S
C1359 C176 1.763 . S
C1373 C232 1.748 . S
C1379 C190 1.762 . S
C1393 C204 1.761 . S
C1399 C246 1.753 . S
C1413 C302 1.753 1_554 S
C1419 C260 1.761 . S
C1433 C316 1.752 1_554 S
C1439 C274 1.761 . S
C1453 C330 1.749 1_554 S
C1459 C288 1.763 . S
C1473 C386 1.763 1_556 S
C1479 C344 1.749 . S
C1493 C358 1.756 . S
C1499 C400 1.752 1_556 S
C1513 C414 1.753 1_556 S
C1519 C372 1.755 . S
C1533 C428 1.750 . S
C1539 C470 1.763 . S
C1553 C442 1.754 . S
C1559 C484 1.760 . S
C1573 C456 1.748 . S
C1579 C498 1.763 . S
C1593 C6 1.468 . S
C1599 C258 1.468 . S
C1613 C272 1.468 . S
C1619 C20 1.468 . S
C1633 C286 1.469 . S
C1639 C34 1.469 . S
C1653 C468 1.477 . S
C1659 C48 1.477 . S
C1673 C482 1.480 . S
C1679 C62 1.480 . S
C1693 C496 1.479 . S
C1699 C76 1.479 . S
C1713 C90 1.471 . S
C1719 C342 1.471 . S
C1733 C356 1.479 . S
C1739 C104 1.479 . S
C1753 C370 1.468 . S
C1759 C118 1.468 . S
C1773 C132 1.474 . S
C1779 C216 1.474 . S
C1793 C146 1.480 . S
C1799 C230 1.480 . S
C1813 C160 1.479 . S
C1819 C244 1.479 . S
C1833 C426 1.467 . S
C1839 C174 1.467 . S
C1853 C440 1.478 . S
C1859 C188 1.478 . S
C1873 C202 1.475 . S
C1879 C454 1.475 . S
C1893 C300 1.475 . S
C1899 C384 1.475 . S
C1913 C314 1.475 . S
C1919 C398 1.475 . S
C1933 C328 1.466 . S
C1939 C412 1.466 . S
