# Generated by pormake.
# Topology wjq, (5)-cn, num edge types: 1
# Building blocks:
#     Node 0, Type 0, BuildingBlock: BEQFEK_clean_sbu_0, # of connection points: 5
#     Node 1, Type 0, BuildingBlock: BEQFEK_clean_sbu_0, # of connection points: 5
#     Node 2, Type 0, BuildingBlock: BEQFEK_clean_sbu_0, # of connection points: 5
#     Node 3, Type 0, BuildingBlock: BEQFEK_clean_sbu_0, # of connection points: 5
#     Node 4, Type 0, BuildingBlock: BEQFEK_clean_sbu_0, # of connection points: 5
#     Node 5, Type 0, BuildingBlock: BEQFEK_clean_sbu_0, # of connection points: 5
#     Node 6, Type 0, BuildingBlock: BEQFEK_clean_sbu_0, # of connection points: 5
#     Node 7, Type 0, BuildingBlock: BEQFEK_clean_sbu_0, # of connection points: 5
#     Node 8, Type 0, BuildingBlock: BEQFEK_clean_sbu_0, # of connection points: 5
#     Node 9, Type 0, BuildingBlock: BEQFEK_clean_sbu_0, # of connection points: 5
#     Node 10, Type 0, BuildingBlock: BEQFEK_clean_sbu_0, # of connection points: 5
#     Node 11, Type 0, BuildingBlock: BEQFEK_clean_sbu_0, # of connection points: 5
#     Edge 12, Type (0, 0), BuildingBlock: MIFKUJ_clean_linker_0, # of connection points: 2
#     Edge 13, Type (0, 0), BuildingBlock: MIFKUJ_clean_linker_0, # of connection points: 2
#     Edge 14, Type (0, 0), BuildingBlock: MIFKUJ_clean_linker_0, # of connection points: 2
#     Edge 15, Type (0, 0), BuildingBlock: MIFKUJ_clean_linker_0, # of connection points: 2
#     Edge 16, Type (0, 0), BuildingBlock: MIFKUJ_clean_linker_0, # of connection points: 2
#     Edge 17, Type (0, 0), BuildingBlock: MIFKUJ_clean_linker_0, # of connection points: 2
#     Edge 18, Type (0, 0), BuildingBlock: MIFKUJ_clean_linker_0, # of connection points: 2
#     Edge 19, Type (0, 0), BuildingBlock: MIFKUJ_clean_linker_0, # of connection points: 2
#     Edge 20, Type (0, 0), BuildingBlock: MIFKUJ_clean_linker_0, # of connection points: 2
#     Edge 21, Type (0, 0), BuildingBlock: MIFKUJ_clean_linker_0, # of connection points: 2
#     Edge 22, Type (0, 0), BuildingBlock: MIFKUJ_clean_linker_0, # of connection points: 2
#     Edge 23, Type (0, 0), BuildingBlock: MIFKUJ_clean_linker_0, # of connection points: 2
#     Edge 24, Type (0, 0), BuildingBlock: MIFKUJ_clean_linker_0, # of connection points: 2
#     Edge 25, Type (0, 0), BuildingBlock: MIFKUJ_clean_linker_0, # of connection points: 2
#     Edge 26, Type (0, 0), BuildingBlock: MIFKUJ_clean_linker_0, # of connection points: 2
#     Edge 27, Type (0, 0), BuildingBlock: MIFKUJ_clean_linker_0, # of connection points: 2
#     Edge 28, Type (0, 0), BuildingBlock: MIFKUJ_clean_linker_0, # of connection points: 2
#     Edge 29, Type (0, 0), BuildingBlock: MIFKUJ_clean_linker_0, # of connection points: 2
#     Edge 30, Type (0, 0), BuildingBlock: MIFKUJ_clean_linker_0, # of connection points: 2
#     Edge 31, Type (0, 0), BuildingBlock: MIFKUJ_clean_linker_0, # of connection points: 2
#     Edge 32, Type (0, 0), BuildingBlock: MIFKUJ_clean_linker_0, # of connection points: 2
#     Edge 33, Type (0, 0), BuildingBlock: MIFKUJ_clean_linker_0, # of connection points: 2
#     Edge 34, Type (0, 0), BuildingBlock: MIFKUJ_clean_linker_0, # of connection points: 2
#     Edge 35, Type (0, 0), BuildingBlock: MIFKUJ_clean_linker_0, # of connection points: 2
#     Edge 36, Type (0, 0), BuildingBlock: MIFKUJ_clean_linker_0, # of connection points: 2
#     Edge 37, Type (0, 0), BuildingBlock: MIFKUJ_clean_linker_0, # of connection points: 2
#     Edge 38, Type (0, 0), BuildingBlock: MIFKUJ_clean_linker_0, # of connection points: 2
#     Edge 39, Type (0, 0), BuildingBlock: MIFKUJ_clean_linker_0, # of connection points: 2
#     Edge 40, Type (0, 0), BuildingBlock: MIFKUJ_clean_linker_0, # of connection points: 2
#     Edge 41, Type (0, 0), BuildingBlock: MIFKUJ_clean_linker_0, # of connection points: 2
# Relax obj value: 0.357
# Max RMSD: 0.171
# Mean RMSD: 0.171
data_MOF--net-wjq--node1-BEQFEK_clean_sbu_0--edge1-MIFKUJ_clean_linker_0
_symmetry_space_group_name_H-M    P1
_symmetry_Int_Tables_number       1
_symmetry_cell_setting            triclinic
loop_
_symmetry_equiv_pos_as_xyz
'x, y, z'
_cell_length_a     43.130188
_cell_length_b     43.143229
_cell_length_c     98.353787
_cell_angle_alpha  89.965935
_cell_angle_beta   89.950593
_cell_angle_gamma 120.01129
loop_
_atom_site_label
_atom_site_type_symbol
_atom_site_fract_x
_atom_site_fract_y
_atom_site_fract_z
_atom_type_partial_charge
Co0 Co 0.21772 0.16004 0.07934 0.0
Co1 Co 0.29111 0.21311 0.06639 0.0
C2 C 0.22118 0.21158 0.05897 0.0
O3 O 0.2032 0.18881 0.06815 0.0
O4 O 0.25433 0.22214 0.05725 0.0
C5 C 0.15513 0.1337 0.09634 0.0
O6 O 0.15791 0.16518 0.0946 0.0
C7 C 0.34832 0.28693 0.06375 0.0
C8 C 0.39222 0.2823 0.05425 0.0
C9 C 0.38355 0.30707 0.05929 0.0
N10 N 0.33708 0.25212 0.06163 0.0
N11 N 0.36339 0.24947 0.05592 0.0
C12 C 0.32494 0.30018 0.06955 0.0
H13 H 0.33068 0.30567 0.08055 0.0
H14 H 0.33013 0.32523 0.0644 0.0
H15 H 0.29631 0.27975 0.06856 0.0
C16 C 0.25997 0.18403 0.10464 0.0
N17 N 0.25645 0.18722 0.09117 0.0
N18 N 0.2879 0.20949 0.08591 0.0
C19 C 0.31263 0.22122 0.09599 0.0
C20 C 0.29556 0.20583 0.10825 0.0
C21 C 0.23124 0.15586 0.11341 0.0
H22 H 0.21939 0.12969 0.10816 0.0
H23 H 0.21008 0.16282 0.1152 0.0
H24 H 0.24148 0.15291 0.12337 0.0
O25 O 0.22965 0.13122 0.06693 0.0
O26 O 0.28394 0.16728 0.05848 0.0
H27 H 0.36083 0.23383 0.0853 0.0
H28 H 0.36758 0.24692 0.10306 0.0
C29 C 0.35204 0.24463 0.09376 0.0
H30 H 0.35778 0.27181 0.09086 0.0
H31 H 0.36171 0.22528 0.05322 0.0
O32 O 0.17671 0.12633 0.09034 0.0
C33 C 0.25602 0.13636 0.05946 0.0
Co34 Co 0.06385 0.2246 0.41014 0.0
Co35 Co 0.08279 0.29801 0.39742 0.0
C36 C 0.01498 0.22803 0.38999 0.0
O37 O 0.02099 0.21008 0.39879 0.0
O38 O 0.03668 0.26142 0.38835 0.0
C39 C 0.02569 0.1599 0.42531 0.0
O40 O 0.99727 0.1615 0.42159 0.0
C41 C 0.06649 0.35553 0.39595 0.0
C42 C 0.11396 0.39934 0.38587 0.0
C43 C 0.08117 0.39083 0.39158 0.0
N44 N 0.08964 0.34417 0.3931 0.0
N45 N 0.118 0.37044 0.38707 0.0
C46 C 0.03064 0.33206 0.40234 0.0
H47 H 0.0227 0.30348 0.40138 0.0
H48 H 0.03214 0.33821 0.41335 0.0
H49 H 0.00998 0.33671 0.39759 0.0
C50 C 0.07903 0.26545 0.43559 0.0
N51 N 0.07337 0.26246 0.42206 0.0
N52 N 0.08365 0.29422 0.41688 0.0
C53 C 0.09735 0.3187 0.42703 0.0
C54 C 0.09441 0.30108 0.43924 0.0
C55 C 0.074 0.23549 0.4447 0.0
H56 H 0.09235 0.22582 0.44148 0.0
H57 H 0.04604 0.21319 0.44391 0.0
H58 H 0.07946 0.24407 0.45547 0.0
O59 O 0.10585 0.23792 0.39801 0.0
O60 O 0.12113 0.2912 0.38918 0.0
H61 H 0.13419 0.36525 0.41573 0.0
H62 H 0.13328 0.37274 0.43385 0.0
C63 C 0.11684 0.35832 0.42486 0.0
H64 H 0.09707 0.36718 0.42308 0.0
H65 H 0.14008 0.36866 0.3838 0.0
O66 O 0.05643 0.1835 0.42114 0.0
C67 C 0.12594 0.26443 0.39037 0.0
Co68 Co 0.82848 0.05399 0.74428 0.0
Co69 Co 0.78062 0.08099 0.73143 0.0
C70 C 0.77427 0.0097 0.72369 0.0
O71 O 0.7972 0.01324 0.73254 0.0
O72 O 0.76576 0.03383 0.72212 0.0
C73 C 0.84093 0.0076 0.7605 0.0
O74 O 0.80638 0.98624 0.75875 0.0
C75 C 0.70949 0.06951 0.72733 0.0
C76 C 0.71767 0.12274 0.7219 0.0
C77 C 0.69133 0.08748 0.72417 0.0
N78 N 0.74481 0.09281 0.72684 0.0
N79 N 0.74966 0.12463 0.72351 0.0
C80 C 0.6938 0.03161 0.73207 0.0
H81 H 0.71296 0.02886 0.73879 0.0
H82 H 0.66826 0.02275 0.7376 0.0
H83 H 0.68834 0.014 0.72311 0.0
C84 C 0.80725 0.07458 0.76969 0.0
N85 N 0.80364 0.06805 0.75621 0.0
N86 N 0.78388 0.08035 0.75095 0.0
C87 C 0.77447 0.09541 0.76104 0.0
C88 C 0.78875 0.09191 0.77325 0.0
C89 C 0.83166 0.06854 0.77875 0.0
H90 H 0.85851 0.08008 0.774 0.0
H91 H 0.82059 0.03938 0.78011 0.0
H92 H 0.83444 0.08067 0.78894 0.0
O93 O 0.86144 0.09512 0.73261 0.0
O94 O 0.82838 0.11633 0.72362 0.0
H95 H 0.77073 0.1375 0.75112 0.0
H96 H 0.7537 0.12876 0.76839 0.0
C97 C 0.75584 0.11634 0.75881 0.0
H98 H 0.72859 0.09829 0.7548 0.0
H99 H 0.77467 0.1477 0.72263 0.0
O100 O 0.85633 0.03836 0.75498 0.0
C101 C 0.85843 0.11751 0.72503 0.0
Co102 Co 0.77421 0.83359 0.07447 0.0
Co103 Co 0.69759 0.78172 0.0639 0.0
C104 C 0.76237 0.7763 0.05517 0.0
O105 O 0.78283 0.80066 0.06338 0.0
O106 O 0.72946 0.76713 0.05408 0.0
C107 C 0.83717 0.85245 0.08927 0.0
O108 O 0.82551 0.81794 0.08851 0.0
C109 C 0.6388 0.70959 0.06053 0.0
C110 C 0.59171 0.71613 0.05737 0.0
C111 C 0.60219 0.69063 0.05841 0.0
N112 N 0.64966 0.74466 0.06061 0.0
N113 N 0.62146 0.74853 0.05866 0.0
C114 C 0.66274 0.69473 0.06374 0.0
H115 H 0.68495 0.71339 0.07046 0.0
H116 H 0.64755 0.66817 0.06875 0.0
H117 H 0.67443 0.69156 0.05415 0.0
C118 C 0.73753 0.81461 0.10107 0.0
N119 N 0.73783 0.81007 0.08752 0.0
N120 N 0.7051 0.78809 0.08329 0.0
C121 C 0.68279 0.77789 0.09416 0.0
C122 C 0.70275 0.79413 0.10581 0.0
C123 C 0.76903 0.84184 0.10904 0.0
H124 H 0.78315 0.86724 0.10325 0.0
H125 H 0.78777 0.8317 0.11082 0.0
H126 H 0.76096 0.8475 0.11902 0.0
O127 O 0.7626 0.86305 0.0623 0.0
O128 O 0.70686 0.82738 0.05511 0.0
H129 H 0.63194 0.76733 0.0867 0.0
H130 H 0.63034 0.74941 0.10352 0.0
C131 C 0.64304 0.75444 0.09333 0.0
H132 H 0.63656 0.72851 0.08865 0.0
H133 H 0.6224 0.77317 0.05844 0.0
O134 O 0.81935 0.86514 0.08369 0.0
C135 C 0.73548 0.85789 0.05534 0.0
Co136 Co 0.93215 0.77891 0.41205 0.0
Co137 Co 0.91906 0.70612 0.40063 0.0
C138 C 0.98476 0.77569 0.39298 0.0
O139 O 0.97496 0.79282 0.4007 0.0
O140 O 0.96606 0.74172 0.39204 0.0
C141 C 0.97153 0.83846 0.42858 0.0
O142 O 0.99397 0.82625 0.42808 0.0
C143 C 0.93673 0.64998 0.39678 0.0
C144 C 0.88442 0.60219 0.39238 0.0
C145 C 0.9205 0.61367 0.39403 0.0
N146 N 0.91155 0.6596 0.39668 0.0
N147 N 0.88033 0.63099 0.39396 0.0
C148 C 0.97491 0.67466 0.40066 0.0
H149 H 0.97682 0.69594 0.40754 0.0
H150 H 0.98651 0.65977 0.40573 0.0
H151 H 0.9907 0.68757 0.39136 0.0
C152 C 0.91353 0.73899 0.43791 0.0
N153 N 0.92202 0.74193 0.42459 0.0
N154 N 0.91646 0.71092 0.42004 0.0
C155 C 0.90444 0.68721 0.43049 0.0
C156 C 0.90225 0.70434 0.44215 0.0
C157 C 0.91334 0.76803 0.44621 0.0
H158 H 0.90021 0.78041 0.44045 0.0
H159 H 0.94132 0.7888 0.44843 0.0
H160 H 0.89946 0.7581 0.45608 0.0
O161 O 0.89076 0.76453 0.3998 0.0
O162 O 0.8816 0.71282 0.39124 0.0
H163 H 0.8686 0.63628 0.42178 0.0
H164 H 0.88249 0.63396 0.43892 0.0
C165 C 0.89133 0.6481 0.42902 0.0
H166 H 0.91305 0.64432 0.42479 0.0
H167 H 0.85616 0.63098 0.39344 0.0
O168 O 0.94219 0.82215 0.42209 0.0
C169 C 0.87376 0.7377 0.39195 0.0
Co170 Co 0.15607 0.94288 0.74696 0.0
Co171 Co 0.21132 0.92439 0.73478 0.0
C172 C 0.20944 0.99319 0.72775 0.0
O173 O 0.18482 0.98673 0.73632 0.0
O174 O 0.2213 0.97153 0.72627 0.0
C175 C 0.12119 0.9745 0.762 0.0
O176 O 0.14956 0.00565 0.75934 0.0
C177 C 0.28597 0.94259 0.7335 0.0
C178 C 0.28352 0.89581 0.72338 0.0
C179 C 0.30743 0.92894 0.72894 0.0
N180 N 0.25156 0.91868 0.73077 0.0
N181 N 0.25021 0.8907 0.72476 0.0
C182 C 0.29722 0.97801 0.74002 0.0
H183 H 0.27492 0.98374 0.74015 0.0
H184 H 0.30484 0.97733 0.75074 0.0
H185 H 0.32044 -0.00026 0.73454 0.0
C186 C 0.17864 0.92505 0.77255 0.0
N187 N 0.18303 0.93205 0.75912 0.0
N188 N 0.20474 0.9218 0.75417 0.0
C189 C 0.21414 0.90696 0.76436 0.0
C190 C 0.19771 0.90845 0.77637 0.0
C191 C 0.15445 0.93172 0.78147 0.0
H192 H 0.15993 0.95943 0.77988 0.0
H193 H 0.15853 0.92834 0.79239 0.0
H194 H 0.12618 0.91276 0.77876 0.0
O195 O 0.12987 0.90324 0.73394 0.0
O196 O 0.16696 0.8862 0.72569 0.0
H197 H 0.22438 0.87051 0.75311 0.0
H198 H 0.23243 0.87118 0.77125 0.0
C199 C 0.23453 0.88771 0.76227 0.0
H200 H 0.26314 0.90765 0.76051 0.0
H201 H 0.22663 0.86825 0.72153 0.0
O202 O 0.11907 0.94609 0.75737 0.0
C203 C 0.13589 0.88297 0.72631 0.0
Co204 Co 0.83811 0.77518 0.60857 0.0
Co205 Co 0.78339 0.70071 0.6205 0.0
C206 C 0.7807 0.76851 0.62686 0.0
O207 O 0.80562 0.78698 0.61848 0.0
O208 O 0.77031 0.73552 0.62881 0.0
C209 C 0.85972 0.83347 0.59055 0.0
O210 O 0.825 0.81962 0.58904 0.0
C211 C 0.7098 0.64148 0.62123 0.0
C212 C 0.71416 0.59863 0.63176 0.0
C213 C 0.68962 0.6062 0.6257 0.0
N214 N 0.74437 0.65376 0.62437 0.0
N215 N 0.74684 0.62802 0.63066 0.0
C216 C 0.6967 0.66405 0.6146 0.0
H217 H 0.71691 0.69282 0.61532 0.0
H218 H 0.69195 0.65727 0.60364 0.0
H219 H 0.67123 0.65908 0.61933 0.0
C220 C 0.82013 0.73382 0.58292 0.0
N221 N 0.81451 0.73686 0.59623 0.0
N222 N 0.79134 0.70513 0.6011 0.0
C223 C 0.78157 0.68085 0.59092 0.0
C224 C 0.7991 0.69848 0.57906 0.0
C225 C 0.84856 0.76296 0.57437 0.0
H226 H 0.87323 0.77876 0.58042 0.0
H227 H 0.83876 0.78079 0.57066 0.0
H228 H 0.85529 0.75198 0.56536 0.0
O229 O 0.86568 0.76396 0.62191 0.0
O230 O 0.82823 0.70956 0.63001 0.0
H231 H 0.76703 0.63274 0.60204 0.0
H232 H 0.76077 0.62659 0.58381 0.0
C233 C 0.75878 0.64125 0.59273 0.0
H234 H 0.73047 0.63426 0.59396 0.0
H235 H 0.77077 0.63055 0.63424 0.0
O236 O 0.87142 0.81871 0.59864 0.0
C237 C 0.85928 0.73756 0.6296 0.0
Co238 Co 0.07952 0.84781 0.94508 0.0
Co239 Co 0.08769 0.7839 0.95514 0.0
C240 C 0.02368 0.7914 0.96294 0.0
O241 O 0.03519 0.81974 0.95585 0.0
O242 O 0.04107 0.77468 0.96355 0.0
C243 C 0.04744 0.88176 0.93097 0.0
O244 O 0.01839 0.85025 0.93212 0.0
C245 C 0.06501 0.70815 0.95786 0.0
C246 C 0.11617 0.70885 0.96067 0.0
C247 C 0.07954 0.68612 0.95954 0.0
N248 N 0.09174 0.74235 0.95806 0.0
N249 N 0.12225 0.74263 0.95985 0.0
C250 C 0.02684 0.69706 0.95485 0.0
H251 H 0.02557 0.71714 0.94817 0.0
H252 H 0.01285 0.67037 0.9499 0.0
H253 H 0.01291 0.6956 0.96452 0.0
C254 C 0.09253 0.82545 0.9184 0.0
N255 N 0.08648 0.82036 0.93187 0.0
N256 N 0.09098 0.79378 0.93586 0.0
C257 C 0.1003 0.78121 0.92489 0.0
C258 C 0.10127 0.80077 0.91347 0.0
C259 C 0.09377 0.85585 0.91058 0.0
H260 H 0.11069 0.88137 0.91602 0.0
H261 H 0.06629 0.85161 0.90969 0.0
H262 H 0.10477 0.85799 0.90021 0.0
O263 O 0.12112 0.87012 0.95734 0.0
O264 O 0.12717 0.82514 0.96528 0.0
H265 H 0.13319 0.76085 0.93226 0.0
H266 H 0.11665 0.74671 0.91516 0.0
C267 C 0.10992 0.75242 0.92541 0.0
H268 H 0.08712 0.72767 0.92965 0.0
H269 H 0.1473 0.76586 0.96018 0.0
O270 O 0.07656 0.88671 0.93607 0.0
C271 C 0.1371 0.85839 0.96481 0.0
Co272 Co 0.2257 0.07838 0.27531 0.0
Co273 Co 0.29582 0.08114 0.28504 0.0
C274 C 0.22346 0.0197 0.29269 0.0
O275 O 0.20813 0.03363 0.28607 0.0
O276 O 0.25751 0.0347 0.29297 0.0
C277 C 0.16326 0.04729 0.2594 0.0
O278 O 0.16875 0.01995 0.25941 0.0
C279 C 0.35003 0.06001 0.29054 0.0
C280 C 0.40031 0.11094 0.28708 0.0
C281 C 0.38703 0.07498 0.28987 0.0
N282 N 0.34194 0.08573 0.28785 0.0
N283 N 0.37217 0.11622 0.28603 0.0
C284 C 0.32282 0.0227 0.29465 0.0
H285 H 0.30467 0.02381 0.30235 0.0
H286 H 0.30664 0.00791 0.28567 0.0
H287 H 0.33531 0.00814 0.29925 0.0
C288 C 0.26169 0.0928 0.24874 0.0
N289 N 0.26013 0.08522 0.2621 0.0
N290 N 0.28943 0.0852 0.26575 0.0
C291 C 0.31013 0.0916 0.25453 0.0
C292 C 0.29303 0.09642 0.24338 0.0
C293 C 0.23635 0.10168 0.24163 0.0
H294 H 0.22712 0.11539 0.24869 0.0
H295 H 0.21293 0.07663 0.23794 0.0
H296 H 0.24926 0.11952 0.23278 0.0
O297 O 0.24532 0.11933 0.28773 0.0
O298 O 0.29417 0.12036 0.29567 0.0
H299 H 0.36643 0.11972 0.2581 0.0
H300 H 0.35275 0.08927 0.24394 0.0
C301 C 0.34552 0.09312 0.25438 0.0
H302 H 0.34469 0.0722 0.26117 0.0
H303 H 0.37353 0.14045 0.28365 0.0
O304 O 0.18409 0.07524 0.26608 0.0
C305 C 0.27263 0.13259 0.29543 0.0
Co306 Co 0.14923 0.21921 0.60625 0.0
Co307 Co 0.21034 0.29225 0.6171 0.0
C308 C 0.20648 0.22251 0.62452 0.0
O309 O 0.1788 0.2052 0.61716 0.0
O310 O 0.2221 0.25653 0.62526 0.0
C311 C 0.12244 0.15906 0.58868 0.0
O312 O 0.15654 0.17116 0.58619 0.0
C313 C 0.28495 0.34806 0.62055 0.0
C314 C 0.28123 0.39655 0.62431 0.0
C315 C 0.30546 0.38455 0.62291 0.0
N316 N 0.25021 0.33882 0.62064 0.0
N317 N 0.24811 0.36789 0.62299 0.0
C318 C 0.29807 0.32285 0.61703 0.0
H319 H 0.27876 0.30149 0.61017 0.0
H320 H 0.32478 0.33724 0.61208 0.0
H321 H 0.30037 0.31011 0.62648 0.0
C322 C 0.16885 0.2589 0.58017 0.0
N323 N 0.17502 0.25596 0.59343 0.0
N324 N 0.20149 0.28674 0.59775 0.0
C325 C 0.21358 0.30998 0.58716 0.0
C326 C 0.19333 0.29295 0.57569 0.0
C327 C 0.13773 0.23106 0.57222 0.0
H328 H 0.11366 0.21751 0.57878 0.0
H329 H 0.14443 0.21102 0.56832 0.0
H330 H 0.13148 0.24279 0.56333 0.0
O331 O 0.12415 0.23441 0.61888 0.0
O332 O 0.16683 0.2863 0.6272 0.0
H333 H 0.23223 0.36223 0.59528 0.0
H334 H 0.24757 0.36206 0.57818 0.0
C335 C 0.24163 0.34859 0.58824 0.0
H336 H 0.26647 0.35084 0.59249 0.0
H337 H 0.22416 0.3683 0.62341 0.0
O338 O 0.11338 0.17563 0.597 0.0
C339 C 0.1341 0.26126 0.62671 0.0
Co340 Co 0.93774 0.16103 0.93677 0.0
Co341 Co 0.91437 0.21141 0.95003 0.0
C342 C 0.98412 0.21374 0.95747 0.0
O343 O 0.97945 0.19082 0.94843 0.0
O344 O 0.96111 0.22368 0.95924 0.0
C345 C 0.98091 0.14696 0.91954 0.0
O346 O 0.0017 0.18182 0.92054 0.0
C347 C 0.92604 0.28347 0.95218 0.0
C348 C 0.87792 0.27648 0.96286 0.0
C349 C 0.90991 0.30224 0.95706 0.0
N350 N 0.90445 0.24849 0.9548 0.0
N351 N 0.87568 0.2444 0.96119 0.0
C352 C 0.96213 0.29826 0.94566 0.0
H353 H 0.96014 0.30337 0.93473 0.0
H354 H 0.98178 0.32381 0.95056 0.0
H355 H 0.97175 0.27885 0.94629 0.0
C356 C 0.91814 0.18419 0.91156 0.0
N357 N 0.92502 0.18736 0.92502 0.0
N358 N 0.91386 0.20788 0.93047 0.0
C359 C 0.8989 0.21794 0.92055 0.0
C360 C 0.90181 0.20379 0.90821 0.0
C361 C 0.92183 0.15848 0.90239 0.0
H362 H 0.91083 0.13209 0.90745 0.0
H363 H 0.95056 0.16899 0.90014 0.0
H364 H 0.90767 0.15477 0.89259 0.0
O365 O 0.89643 0.12938 0.94866 0.0
O366 O 0.87803 0.16448 0.95797 0.0
H367 H 0.86127 0.22572 0.93216 0.0
H368 H 0.86168 0.23488 0.91414 0.0
C369 C 0.87846 0.23699 0.92304 0.0
H370 H 0.89758 0.2657 0.92495 0.0
H371 H 0.85461 0.21977 0.96444 0.0
O372 O 0.95129 0.13167 0.9259 0.0
C373 C 0.87527 0.13377 0.95647 0.0
Co374 Co 0.77722 0.9316 0.27231 0.0
Co375 Co 0.70348 0.91409 0.28421 0.0
C376 C 0.77181 0.98131 0.29208 0.0
O377 O 0.78987 0.97366 0.28396 0.0
O378 O 0.73811 0.96078 0.29321 0.0
C379 C 0.8324 0.97425 0.25499 0.0
O380 O 0.81592 0.99284 0.25592 0.0
C381 C 0.6446 0.92845 0.2858 0.0
C382 C 0.60143 0.88006 0.29568 0.0
C383 C 0.60933 0.91293 0.29025 0.0
N384 N 0.65664 0.90568 0.28833 0.0
N385 N 0.63073 0.87677 0.29423 0.0
C386 C 0.6674 0.96504 0.27985 0.0
H387 H 0.69615 0.97357 0.28059 0.0
H388 H 0.66105 0.96463 0.26891 0.0
H389 H 0.66217 0.98478 0.28507 0.0
C390 C 0.73713 0.91319 0.24657 0.0
N391 N 0.73964 0.92035 0.25999 0.0
N392 N 0.70804 0.91258 0.26472 0.0
C393 C 0.6843 0.90013 0.25429 0.0
C394 C 0.7023 0.90093 0.2424 0.0
C395 C 0.76559 0.91177 0.23827 0.0
H396 H 0.78431 0.93882 0.23421 0.0
H397 H 0.75386 0.89331 0.22953 0.0
H398 H 0.78052 0.90233 0.24456 0.0
O399 O 0.7648 0.8897 0.28415 0.0
O400 O 0.71217 0.87726 0.29307 0.0
H401 H 0.63493 0.86648 0.26469 0.0
H402 H 0.63017 0.87031 0.24654 0.0
C403 C 0.64479 0.88486 0.25583 0.0
H404 H 0.63915 0.90688 0.25771 0.0
H405 H 0.63311 0.85489 0.29732 0.0
O406 O 0.82061 0.94536 0.26173 0.0
C407 C 0.7382 0.87116 0.292 0.0
H408 H 0.61282 0.64297 0.04397 0.0
H409 H 0.57546 0.57755 0.04394 0.0
H410 H 0.50177 0.58457 0.07171 0.0
H411 H 0.53891 0.65021 0.07161 0.0
H412 H 0.52719 0.53412 0.07897 0.0
H413 H 0.47452 0.56584 0.04194 0.0
H414 H 0.47647 0.59588 0.02036 0.0
H415 H 0.52 0.53804 1.00002 0.0
H416 H 0.51879 0.50802 0.02154 0.0
H417 H 0.38686 0.35573 0.07824 0.0
H418 H 0.42364 0.42041 0.0775 0.0
H419 H 0.47544 0.41281 0.04111 0.0
H420 H 0.4362 0.34776 0.04116 0.0
H421 H 0.46283 0.46451 0.03804 0.0
H422 H 0.51623 0.4322 0.07355 0.0
H423 H 0.51878 0.40283 0.0947 0.0
H424 H 0.4805 0.46189 0.11746 0.0
H425 H 0.47724 0.49127 0.09641 0.0
C426 C 0.58865 0.6305 0.05006 0.0
C427 C 0.57879 0.65141 0.05789 0.0
C428 C 0.56732 0.59325 0.04999 0.0
C429 C 0.53599 0.57638 0.05785 0.0
C430 C 0.52594 0.59722 0.06561 0.0
C431 C 0.54697 0.63456 0.06549 0.0
C432 C 0.51404 0.53688 0.05808 0.0
C433 C 0.51265 0.51879 0.07011 0.0
C434 C 0.49638 0.5171 0.04634 0.0
C435 C 0.49691 0.53497 0.03338 0.0
C436 C 0.48481 0.55977 0.03289 0.0
C437 C 0.48572 0.57674 0.02067 0.0
C438 C 0.49845 0.56895 1.00883 0.0
C439 C 0.51019 0.54409 0.0092 0.0
C440 C 0.50937 0.52706 0.0214 0.0
C441 C 0.40516 0.36765 0.06982 0.0
C442 C 0.40752 0.34649 0.05946 0.0
C443 C 0.42696 0.40481 0.06961 0.0
C444 C 0.45264 0.42165 0.05931 0.0
C445 C 0.45574 0.40052 0.04914 0.0
C446 C 0.43345 0.36332 0.04922 0.0
C447 C 0.47556 0.4613 0.05902 0.0
C448 C 0.47731 0.47958 0.04696 0.0
C449 C 0.49417 0.48124 0.07068 0.0
C450 C 0.49618 0.4637 0.08338 0.0
C451 C 0.5081 0.43873 0.08305 0.0
C452 C 0.50972 0.42212 0.09502 0.0
C453 C 0.49973 0.43042 0.10741 0.0
C454 C 0.48819 0.45545 0.10785 0.0
C455 C 0.48649 0.47212 0.09591 0.0
H456 H 0.501 0.41753 0.11667 0.0
H457 H 0.49912 0.58212 0.99938 0.0
H458 H 0.09442 0.44564 0.37436 0.0
H459 H 0.0686 0.48493 0.3749 0.0
H460 H 0.00773 0.4303 0.41059 0.0
H461 H 0.03505 0.39277 0.41074 0.0
H462 H 0.96838 0.43942 0.38637 0.0
H463 H 0.06838 0.50234 0.41723 0.0
H464 H 0.13212 0.53132 0.42361 0.0
H465 H 0.15939 0.60573 0.39059 0.0
H466 H 0.09581 0.5768 0.38389 0.0
H467 H 0.89578 0.548 0.40536 0.0
H468 H 0.92398 0.51091 0.40495 0.0
H469 H 0.01016 0.59061 0.38042 0.0
H470 H 0.98261 0.62826 0.3813 0.0
H471 H 0.03736 0.5683 0.39833 0.0
H472 H 0.94033 0.50894 0.36716 0.0
H473 H 0.87785 0.4803 0.35917 0.0
H474 H 0.84608 0.39978 0.39013 0.0
H475 H 0.90832 0.42822 0.39843 0.0
C476 C 0.07568 0.44206 0.38238 0.0
C477 C 0.06583 0.41495 0.3922 0.0
C478 C 0.06092 0.46447 0.38264 0.0
C479 C 0.03593 0.46005 0.39267 0.0
C480 C 0.02651 0.4336 0.40262 0.0
C481 C 0.04179 0.41169 0.40254 0.0
C482 C 0.01936 0.48288 0.39276 0.0
C483 C 0.98323 0.46752 0.38913 0.0
C484 C 0.03922 0.51969 0.39593 0.0
C485 C 0.07741 0.53712 0.39996 0.0
C486 C 0.08801 0.52463 0.41124 0.0
C487 C 0.1241 0.5411 0.41493 0.0
C488 C 0.14981 0.57028 0.40748 0.0
C489 C 0.13946 0.58309 0.39634 0.0
C490 C 0.1034 0.56667 0.39259 0.0
C491 C 0.92072 0.55748 0.39987 0.0
C492 C 0.93723 0.59104 0.39346 0.0
C493 C 0.93675 0.53623 0.39957 0.0
C494 C 0.96902 0.54766 0.39248 0.0
C495 C 0.98538 0.5812 0.386 0.0
C496 C 0.96967 0.60273 0.38652 0.0
C497 C 0.98597 0.52494 0.39199 0.0
C498 C 0.02229 0.54026 0.39552 0.0
C499 C 0.96639 0.48816 0.38847 0.0
C500 C 0.92894 0.47092 0.3835 0.0
C501 C 0.91997 0.48528 0.37233 0.0
C502 C 0.88461 0.46905 0.36774 0.0
C503 C 0.85799 0.43829 0.37416 0.0
C504 C 0.86671 0.42363 0.38518 0.0
C505 C 0.90204 0.43977 0.38982 0.0
H506 H 0.83063 0.42577 0.37059 0.0
H507 H 0.17773 0.58301 0.41036 0.0
H508 H 0.64039 0.02508 0.71273 0.0
H509 H 0.57531 -0.00059 0.71348 0.0
H510 H 0.58888 0.09129 0.73588 0.0
H511 H 0.6542 0.1172 0.7351 0.0
H512 H 0.53744 0.02224 0.74721 0.0
H513 H 0.56679 0.08659 0.70458 0.0
H514 H 0.59439 0.10273 0.68181 0.0
H515 H 0.53089 0.9934 0.66897 0.0
H516 H 0.50326 0.9765 0.69173 0.0
H517 H 0.35839 0.98234 0.74573 0.0
H518 H 0.42269 0.01064 0.74419 0.0
H519 H 0.41241 0.93767 0.71221 0.0
H520 H 0.3476 0.9116 0.71265 0.0
H521 H 0.46345 0.99824 0.70575 0.0
H522 H 0.43489 0.93135 0.74716 0.0
H523 H 0.40803 0.91098 0.76988 0.0
H524 H 0.47009 0.01817 0.78515 0.0
H525 H 0.49699 0.03927 0.76247 0.0
C526 C 0.62947 0.03972 0.71785 0.0
C527 C 0.65219 0.07289 0.72401 0.0
C528 C 0.59236 0.02516 0.7182 0.0
C529 C 0.57735 0.04345 0.72475 0.0
C530 C 0.6 0.07676 0.7308 0.0
C531 C 0.6372 0.09158 0.73029 0.0
C532 C 0.53795 0.02744 0.72545 0.0
C533 C 0.52118 0.01741 0.73819 0.0
C534 C 0.51685 0.02002 0.71362 0.0
C535 C 0.5332 0.03023 0.69989 0.0
C536 C 0.55892 0.06594 0.69693 0.0
C537 C 0.57453 0.07524 0.68402 0.0
C538 C 0.56447 0.04909 0.67396 0.0
C539 C 0.53869 0.01361 0.67677 0.0
C540 C 0.52302 0.00417 0.68967 0.0
C541 C 0.36931 0.9729 0.73799 0.0
C542 C 0.34721 0.94535 0.72895 0.0
C543 C 0.40655 0.98864 0.7374 0.0
C544 C 0.42272 0.97614 0.7282 0.0
C545 C 0.40077 0.94804 0.71938 0.0
C546 C 0.36355 0.93293 0.71973 0.0
C547 C 0.46245 0.99276 0.72758 0.0
C548 C 0.47944 0.00294 0.71483 0.0
C549 C 0.48371 -0.00042 0.73941 0.0
C550 C 0.4677 0.98694 0.75308 0.0
C551 C 0.44263 0.95062 0.75534 0.0
C552 C 0.42742 0.93894 0.76821 0.0
C553 C 0.43728 0.96328 0.77894 0.0
C554 C 0.46245 -0.00065 0.77683 0.0
C555 C 0.47771 0.01118 0.76397 0.0
H556 H 0.42547 0.95418 0.7889 0.0
H557 H 0.57659 0.05634 0.66397 0.0
H558 H 0.64194 0.60175 0.60592 0.0
H559 H 0.57706 0.56384 0.60598 0.0
H560 H 0.58282 0.51313 0.64289 0.0
H561 H 0.64794 0.55267 0.6434 0.0
H562 H 0.53658 0.46569 0.62008 0.0
H563 H 0.55849 0.5681 0.64757 0.0
H564 H 0.58515 0.63282 0.65177 0.0
H565 H 0.53023 0.64217 0.617 0.0
H566 H 0.50368 0.57756 0.61246 0.0
H567 H 0.35238 0.37105 0.63661 0.0
H568 H 0.41766 0.40786 0.6372 0.0
H569 H 0.41264 0.48467 0.61047 0.0
H570 H 0.34715 0.44858 0.61044 0.0
H571 H 0.45981 0.51937 0.62817 0.0
H572 H 0.43789 0.421 0.59974 0.0
H573 H 0.41242 0.35771 0.59321 0.0
H574 H 0.46791 0.34165 0.62625 0.0
H575 H 0.49329 0.40476 0.63311 0.0
C576 C 0.62961 0.58349 0.61431 0.0
C577 C 0.65024 0.58151 0.62499 0.0
C578 C 0.59243 0.56131 0.61418 0.0
C579 C 0.57519 0.53607 0.62453 0.0
C580 C 0.5957 0.53264 0.63484 0.0
C581 C 0.63288 0.55526 0.63511 0.0
C582 C 0.53564 0.51391 0.62471 0.0
C583 C 0.51966 0.47718 0.62203 0.0
C584 C 0.51381 0.52933 0.62677 0.0
C585 C 0.52939 0.56807 0.6296 0.0
C586 C 0.55234 0.58401 0.64075 0.0
C587 C 0.56739 0.62067 0.64321 0.0
C588 C 0.55947 0.64162 0.63464 0.0
C589 C 0.53638 0.62592 0.62362 0.0
C590 C 0.5213 0.58928 0.62111 0.0
C591 C 0.36532 0.39571 0.63081 0.0
C592 C 0.3449 0.4068 0.62332 0.0
C593 C 0.40264 0.4167 0.63111 0.0
C594 C 0.42035 0.44875 0.62362 0.0
C595 C 0.39977 0.46006 0.6163 0.0
C596 C 0.36238 0.43943 0.61625 0.0
C597 C 0.46021 0.47068 0.62355 0.0
C598 C 0.47643 0.50754 0.62622 0.0
C599 C 0.48226 0.45546 0.62115 0.0
C600 C 0.46721 0.41753 0.61702 0.0
C601 C 0.44446 0.40392 0.60567 0.0
C602 C 0.43006 0.36808 0.60191 0.0
C603 C 0.43847 0.34565 0.60933 0.0
C604 C 0.46138 0.35905 0.62052 0.0
C605 C 0.4758 0.39485 0.62435 0.0
H606 H 0.4273 0.31791 0.6064 0.0
H607 H 0.57115 0.66999 0.63656 0.0
H608 H 0.95045 0.35131 0.93731 0.0
H609 H 0.97743 0.41618 0.93829 0.0
H610 H 0.92461 0.40702 0.97653 0.0
H611 H 0.89889 0.34183 0.97601 0.0
H612 H 0.92266 0.45667 0.95546 0.0
H613 H 0.00427 0.42929 0.97952 0.0
H614 H 0.04126 0.40069 0.98164 0.0
H615 H 0.10229 0.45829 0.94656 0.0
H616 H 0.06524 0.48679 0.9441 0.0
H617 H 0.01978 0.63995 0.97377 0.0
H618 H 0.98901 0.57448 0.97363 0.0
H619 H 0.06589 0.57819 0.94453 0.0
H620 H 0.09768 0.64369 0.94528 0.0
H621 H 0.05431 0.52988 0.96144 0.0
H622 H 0.97612 0.55681 0.93619 0.0
H623 H 0.93893 0.58434 0.93173 0.0
H624 H 0.87147 0.52751 0.96564 0.0
H625 H 0.90859 0.50003 0.97043 0.0
C626 C 0.94524 0.36294 0.94612 0.0
C627 C 0.92378 0.34142 0.95689 0.0
C628 C 0.96022 0.40006 0.94654 0.0
C629 C 0.95337 0.41631 0.95757 0.0
C630 C 0.93032 0.39488 0.96796 0.0
C631 C 0.91571 0.35771 0.96765 0.0
C632 C 0.97159 0.4558 0.95845 0.0
C633 C 0.95136 0.47282 0.95696 0.0
C634 C 0.00914 0.47662 0.95995 0.0
C635 C 0.03177 0.45991 0.96155 0.0
C636 C 0.02539 0.43564 0.97219 0.0
C637 C 0.04639 0.41948 0.97346 0.0
C638 C 0.07405 0.4276 0.96422 0.0
C639 C 0.08083 0.45199 0.9537 0.0
C640 C 0.05985 0.46817 0.95237 0.0
C641 C 0.02991 0.62665 0.96732 0.0
C642 C 0.06078 0.64665 0.95942 0.0
C643 C 0.01226 0.58926 0.96718 0.0
C644 C 0.02458 0.57119 0.95883 0.0
C645 C 0.05573 0.59136 0.95104 0.0
C646 C 0.07386 0.62875 0.95144 0.0
C647 C 0.00551 0.53134 0.95839 0.0
C648 C 0.02558 0.51406 0.95996 0.0
C649 C 0.96788 0.51034 0.95664 0.0
C650 C 0.94536 0.52665 0.95375 0.0
C651 C 0.9535 0.55038 0.94275 0.0
C652 C 0.93242 0.56595 0.94016 0.0
C653 C 0.90292 0.55775 0.94842 0.0
C654 C 0.89437 0.53388 0.95927 0.0
C655 C 0.91541 0.51828 0.96192 0.0
H656 H 0.88663 0.56984 0.9464 0.0
H657 H 0.09028 0.41505 0.96522 0.0
H658 H 0.60423 0.95597 0.27074 0.0
H659 H 0.56763 0.98414 0.27137 0.0
H660 H 0.5184 0.92796 0.30862 0.0
H661 H 0.55741 0.9019 0.30861 0.0
H662 H 0.50192 0.96241 0.26969 0.0
H663 H 0.49283 0.97549 0.32818 0.0
H664 H 0.52922 0.98384 0.34866 0.0
H665 H 0.62504 0.03326 0.32449 0.0
H666 H 0.58928 0.02565 0.30392 0.0
H667 H 0.36925 0.00761 0.28106 0.0
H668 H 0.40554 0.97906 0.28216 0.0
H669 H 0.49287 0.07557 0.29912 0.0
H670 H 0.45516 0.10307 0.29928 0.0
H671 H 0.49236 0.0232 0.31095 0.0
H672 H 0.48772 0.05089 0.26434 0.0
H673 H 0.45963 0.0517 0.24261 0.0
H674 H 0.40636 0.93698 0.24074 0.0
H675 H 0.43376 0.93545 0.26256 0.0
C676 C 0.58664 0.95051 0.27933 0.0
C677 C 0.58504 0.92798 0.28996 0.0
C678 C 0.56504 0.9661 0.27953 0.0
C679 C 0.54075 0.9589 0.29021 0.0
C680 C 0.53767 0.93483 0.30047 0.0
C681 C 0.55975 0.91967 0.30039 0.0
C682 C 0.51868 0.97656 0.2905 0.0
C683 C 0.49984 0.97567 0.27873 0.0
C684 C 0.51655 0.99468 0.30216 0.0
C685 C 0.53831 -0.00039 0.3145 0.0
C686 C 0.52167 0.98823 0.32725 0.0
C687 C 0.54218 0.99282 0.33887 0.0
C688 C 0.5794 0.00895 0.33787 0.0
C689 C 0.5962 0.02064 0.32525 0.0
C690 C 0.57581 0.01616 0.3136 0.0
C691 C 0.39559 0.02229 0.28557 0.0
C692 C 0.40878 0.05716 0.2906 0.0
C693 C 0.41675 0.00621 0.28586 0.0
C694 C 0.4522 0.02524 0.29057 0.0
C695 C 0.46556 0.0602 0.2955 0.0
C696 C 0.44407 0.07599 0.29551 0.0
C697 C 0.47549 0.00891 0.29016 0.0
C698 C 0.49443 0.00993 0.30192 0.0
C699 C 0.47898 0.99225 0.2783 0.0
C700 C 0.46254 0.99305 0.26515 0.0
C701 C 0.46983 0.02582 0.25934 0.0
C702 C 0.45405 0.02641 0.247 0.0
C703 C 0.43115 0.99441 0.24032 0.0
C704 C 0.42406 0.96174 0.24594 0.0
C705 C 0.43973 0.961 0.25828 0.0
H706 H 0.41896 0.99492 0.23077 0.0
H707 H 0.59523 0.01246 0.34688 0.0
H708 H 0.14681 0.84885 0.99159 0.0
H709 H 0.18047 0.89672 1.00812 0.0
H710 H 0.22391 0.97359 0.97544 0.0
H711 H 0.18904 0.92626 0.95902 0.0
H712 H 0.25006 0.9552 0.01406 0.0
H713 H 0.21109 0.03742 0.98159 0.0
H714 H 0.16993 0.02811 0.96262 0.0
H715 H 0.09156 0.92749 0.97987 0.0
H716 H 0.13263 0.93605 0.99882 0.0
H717 H 0.30685 0.13303 0.0434 0.0
H718 H 0.2974 0.08456 0.02777 0.0
H719 H 0.18707 0.02376 0.04042 0.0
H720 H 0.19616 0.07117 0.05609 0.0
H721 H 0.19911 0.03589 0.01145 0.0
H722 H 0.23617 0.9948 0.05069 0.0
H723 H 0.27782 0.00066 0.06898 0.0
H724 H 0.35764 0.01673 0.03931 0.0
H725 H 0.3166 0.01149 0.02084 0.0
C726 C 0.16455 0.87577 0.98792 0.0
C727 C 0.16502 0.88405 0.97408 0.0
C728 C 0.18382 0.90309 0.99737 0.0
C729 C 0.20409 0.93883 0.99303 0.0
C730 C 0.20795 0.94629 0.97903 0.0
C731 C 0.18807 0.91925 0.96966 0.0
C732 C 0.21524 0.96847 1.00296 0.0
C733 C 0.23923 0.97306 0.01345 0.0
C734 C 0.20077 0.99153 1.00227 0.0
C735 C 0.1748 0.98745 0.9916 0.0
C736 C 0.18488 0.01357 0.98141 0.0
C737 C 0.16165 0.00831 0.97063 0.0
C738 C 0.12802 0.97732 0.97008 0.0
C739 C 0.11755 0.95152 0.98033 0.0
C740 C 0.14083 0.95651 0.99106 0.0
C741 C 0.28073 0.10911 0.04299 0.0
C742 C 0.25225 0.10616 0.05098 0.0
C743 C 0.27542 0.08147 0.03407 0.0
C744 C 0.24149 0.0507 0.03293 0.0
C745 C 0.21341 0.04733 0.04114 0.0
C746 C 0.21877 0.07454 0.05013 0.0
C747 C 0.2341 0.02286 0.02259 0.0
C748 C 0.21051 0.01849 0.012 0.0
C749 C 0.24885 6e-05 0.0233 0.0
C750 C 0.27349 0.00321 0.03439 0.0
C751 C 0.26274 -3e-05 0.04807 0.0
C752 C 0.2862 0.00308 0.05847 0.0
C753 C 0.3204 0.00918 0.05531 0.0
C754 C 0.33117 0.01208 0.04174 0.0
C755 C 0.30782 0.00902 0.03131 0.0
H756 H 0.33852 0.01157 0.06338 0.0
H757 H 0.11016 0.9732 0.96168 0.0
H758 H 0.15294 0.21948 0.39357 0.0
H759 H 0.19121 0.20993 0.37784 0.0
H760 H 0.19809 0.29367 0.35185 0.0
H761 H 0.15989 0.30361 0.36761 0.0
H762 H 0.17629 0.22991 0.3383 0.0
H763 H 0.27117 0.30692 0.36804 0.0
H764 H 0.30187 0.3288 0.39002 0.0
H765 H 0.30029 0.22951 0.39627 0.0
H766 H 0.2691 0.20681 0.3744 0.0
H767 H 0.27334 0.19484 0.29045 0.0
H768 H 0.26349 0.23125 0.30709 0.0
H769 H 0.26455 0.1641 0.33944 0.0
H770 H 0.27715 0.12947 0.32285 0.0
H771 H 0.2876 0.22785 0.34914 0.0
H772 H 0.18492 0.14749 0.32171 0.0
H773 H 0.15467 0.12418 0.2997 0.0
H774 H 0.16893 0.22743 0.28973 0.0
H775 H 0.19967 0.25147 0.3116 0.0
C776 C 0.16307 0.23633 0.38464 0.0
C777 C 0.15319 0.26222 0.38183 0.0
C778 C 0.18511 0.23093 0.37567 0.0
C779 C 0.1976 0.25115 0.36368 0.0
C780 C 0.1888 0.27783 0.36106 0.0
C781 C 0.16707 0.28356 0.37011 0.0
C782 C 0.21697 0.24205 0.35336 0.0
C783 C 0.20104 0.23018 0.34057 0.0
C784 C 0.24875 0.24151 0.35645 0.0
C785 C 0.26753 0.25506 0.36961 0.0
C786 C 0.27709 0.28962 0.37415 0.0
C787 C 0.29464 0.30221 0.38658 0.0
C788 C 0.30296 0.28054 0.39455 0.0
C789 C 0.29381 0.24626 0.39008 0.0
C790 C 0.27623 0.23354 0.37766 0.0
C791 C 0.27284 0.18884 0.30118 0.0
C792 C 0.27601 0.15949 0.30543 0.0
C793 C 0.2668 0.20934 0.31067 0.0
C794 C 0.26191 0.19965 0.3245 0.0
C795 C 0.26792 0.17202 0.32884 0.0
C796 C 0.2752 0.15227 0.31937 0.0
C797 C 0.24669 0.21532 0.33411 0.0
C798 C 0.26317 0.22813 0.34679 0.0
C799 C 0.21505 0.2163 0.33102 0.0
C800 C 0.19493 0.20136 0.31821 0.0
C801 C 0.1816 0.1652 0.31482 0.0
C802 C 0.16446 0.1519 0.30236 0.0
C803 C 0.16015 0.17441 0.29329 0.0
C804 C 0.17246 0.2101 0.29674 0.0
C805 C 0.18971 0.22357 0.30917 0.0
H806 H 0.14725 0.16421 0.28359 0.0
H807 H 0.31655 0.29033 0.40417 0.0
H808 H 0.14565 0.29714 0.65101 0.0
H809 H 0.10102 0.28404 0.66895 0.0
H810 H 0.01759 0.20987 0.64228 0.0
H811 H 0.06159 0.22259 0.62444 0.0
H812 H 0.03055 0.28044 0.67192 0.0
H813 H 0.97545 0.13166 0.65972 0.0
H814 H 0.99587 0.09312 0.64912 0.0
H815 H 0.10396 0.16675 0.66122 0.0
H816 H 0.08407 0.20537 0.67208 0.0
H817 H 0.86152 0.1623 0.70443 0.0
H818 H 0.91213 0.19798 0.6892 0.0
H819 H 0.97735 0.16659 0.712 0.0
H820 H 0.92715 0.13081 0.72713 0.0
H821 H 0.97859 0.15339 0.68584 0.0
H822 H 0.9944 0.25269 0.71254 0.0
H823 H 0.97647 0.29254 0.72365 0.0
H824 H 0.95149 0.31981 0.68477 0.0
H825 H 0.9688 0.27971 0.67343 0.0
C826 C 0.11765 0.2789 0.64884 0.0
C827 C 0.10726 0.26047 0.63637 0.0
C828 C 0.09219 0.27148 0.65909 0.0
C829 C 0.05611 0.24561 0.65699 0.0
C830 C 0.04534 0.22968 0.64415 0.0
C831 C 0.07062 0.23694 0.63397 0.0
C832 C 0.03056 0.23117 0.66854 0.0
C833 C 0.01915 0.25272 0.67502 0.0
C834 C 0.01623 0.19517 0.67272 0.0
C835 C 0.02829 0.17154 0.6666 0.0
C836 C 0.00353 0.13949 0.66019 0.0
C837 C 0.01501 0.11765 0.65413 0.0
C838 C 0.0512 0.12754 0.65446 0.0
C839 C 0.07595 0.15918 0.66093 0.0
C840 C 0.06459 0.18106 0.66703 0.0
C841 C 0.88683 0.16351 0.70635 0.0
C842 C 0.89007 0.14333 0.71694 0.0
C843 C 0.9158 0.18403 0.69765 0.0
C844 C 0.94857 0.18493 0.69943 0.0
C845 C 0.9523 0.16618 0.71038 0.0
C846 C 0.92348 0.1457 0.71903 0.0
C847 C 0.97786 0.20239 0.68922 0.0
C848 C 0.98996 0.18122 0.68289 0.0
C849 C 0.99302 0.23879 0.68537 0.0
C850 C 0.98259 0.26293 0.69215 0.0
C851 C 0.98479 0.26694 0.70637 0.0
C852 C 0.9748 0.28963 0.71271 0.0
C853 C 0.96276 0.30863 0.70493 0.0
C854 C 0.96078 0.30504 0.69079 0.0
C855 C 0.97071 0.28237 0.6844 0.0
H856 H 0.95504 0.32618 0.70985 0.0
H857 H 0.06005 0.11065 0.64973 0.0
H858 H 0.69297 0.85379 0.03377 0.0
H859 H 0.70695 0.89984 0.01641 0.0
H860 H 0.80065 0.97392 0.039 0.0
H861 H 0.7872 0.92831 0.05625 0.0
H862 H 0.72163 0.97222 0.01499 0.0
H863 H 0.87 0.00915 0.017 0.0
H864 H 0.90576 0.98138 0.02365 0.0
H865 H 0.81689 0.87726 0.01465 0.0
H866 H 0.78084 0.90446 1.00774 0.0
H867 H 0.83872 0.13486 0.9792 0.0
H868 H 0.80467 0.08556 0.99508 0.0
H869 H 0.81957 0.01398 0.96882 0.0
H870 H 0.85417 0.06313 0.95309 0.0
H871 H 0.83907 0.00947 0.99328 0.0
H872 H 0.73617 0.00624 0.97388 0.0
H873 H 0.69791 0.03039 0.96634 0.0
H874 H 0.69146 0.06079 1.00735 0.0
H875 H 0.7301 0.03727 0.01512 0.0
C876 C 0.71606 0.88015 0.03521 0.0
C877 C 0.7393 0.88716 0.04629 0.0
C878 C 0.72396 0.90646 0.02529 0.0
C879 C 0.75515 0.94007 0.02632 0.0
C880 C 0.7767 0.94798 0.03792 0.0
C881 C 0.76896 0.9218 0.04777 0.0
C882 C 0.76775 0.96538 0.01467 0.0
C883 C 0.74727 0.98045 0.0102 0.0
C884 C 0.8008 0.97538 1.00823 0.0
C885 C 0.82264 0.95885 0.01197 0.0
C886 C 0.85818 0.98036 0.01637 0.0
C887 C 0.87848 0.96471 0.02019 0.0
C888 C 0.86357 0.92757 0.01961 0.0
C889 C 0.82838 0.90601 0.01514 0.0
C890 C 0.808 0.92153 0.01127 0.0
C891 C 0.83411 0.10846 0.97666 0.0
C892 C 0.84949 0.10306 0.96492 0.0
C893 C 0.81452 0.08022 0.98575 0.0
C894 C 0.80955 0.04597 0.98318 0.0
C895 C 0.82323 0.04018 0.97109 0.0
C896 C 0.84298 0.06835 0.96208 0.0
C897 C 0.79335 0.01713 0.99363 0.0
C898 C 0.81331 0.00133 0.99794 0.0
C899 C 0.75956 0.0061 0.99969 0.0
C900 C 0.7363 0.02026 0.99506 0.0
C901 C 0.72684 0.01834 0.98128 0.0
C902 C 0.70503 0.03186 0.97696 0.0
C903 C 0.69233 0.04719 0.98635 0.0
C904 C 0.70135 0.04894 1.00008 0.0
C905 C 0.72317 0.03548 1.00445 0.0
H906 H 0.67545 0.05764 0.98299 0.0
H907 H 0.8793 0.91551 0.02261 0.0
H908 H 0.76726 0.82904 0.28659 0.0
H909 H 0.77823 0.79241 0.30271 0.0
H910 H 0.72772 0.82076 0.33447 0.0
H911 H 0.71457 0.85519 0.31814 0.0
H912 H 0.81961 0.81249 0.3222 0.0
H913 H 0.70316 0.767 0.36145 0.0
H914 H 0.63836 0.74558 0.36161 0.0
H915 H 0.62989 0.70909 0.32045 0.0
H916 H 0.69454 0.72985 0.3201 0.0
H917 H 0.83613 0.7728 0.39472 0.0
H918 H 0.80159 0.78237 0.37715 0.0
H919 H 0.81873 0.7145 0.34971 0.0
H920 H 0.85275 0.70417 0.36731 0.0
H921 H 0.73996 0.73442 0.35896 0.0
H922 H 0.85064 0.76785 0.32041 0.0
H923 H 0.9147 0.7858 0.31971 0.0
H924 H 0.9316 0.8404 0.35784 0.0
H925 H 0.86782 0.82326 0.35864 0.0
C926 C 0.75761 0.82653 0.29694 0.0
C927 C 0.73991 0.84477 0.30111 0.0
C928 C 0.76405 0.80575 0.30618 0.0
C929 C 0.75373 0.80347 0.31989 0.0
C930 C 0.73514 0.82102 0.32394 0.0
C931 C 0.72776 0.84093 0.31459 0.0
C932 C 0.76563 0.78599 0.33013 0.0
C933 C 0.80173 0.79473 0.32999 0.0
C934 C 0.74281 0.7632 0.34056 0.0
C935 C 0.7038 0.75027 0.34072 0.0
C936 C 0.68745 0.75425 0.35246 0.0
C937 C 0.65075 0.74226 0.35257 0.0
C938 C 0.63004 0.72607 0.34103 0.0
C939 C 0.64599 0.72175 0.32936 0.0
C940 C 0.68268 0.73367 0.32919 0.0
C941 C 0.83177 0.75916 0.38506 0.0
C942 C 0.84738 0.73792 0.38237 0.0
C943 C 0.81189 0.76453 0.37507 0.0
C944 C 0.80784 0.74933 0.36213 0.0
C945 C 0.82158 0.72644 0.35965 0.0
C946 C 0.84095 0.72054 0.36973 0.0
C947 C 0.79342 0.76113 0.35084 0.0
C948 C 0.7572 0.75157 0.3509 0.0
C949 C 0.81582 0.78262 0.34017 0.0
C950 C 0.8544 0.79387 0.33966 0.0
C951 C 0.86809 0.78379 0.32861 0.0
C952 C 0.90433 0.79382 0.3282 0.0
C953 C 0.92717 0.8141 0.33875 0.0
C954 C 0.91385 0.82457 0.3497 0.0
C955 C 0.87765 0.81466 0.35015 0.0
H956 H 0.95521 0.82179 0.33842 0.0
H957 H 0.60164 0.71683 0.34114 0.0
H958 H 0.0734 0.88155 0.72096 0.0
H959 H 0.02658 0.84361 0.70523 0.0
H960 H 0.08326 0.78762 0.69554 0.0
H961 H 0.13178 0.82723 0.71101 0.0
H962 H 0.05968 0.79894 0.67341 0.0
H963 H 0.00233 0.74805 0.71511 0.0
H964 H 0.98316 0.74718 0.7388 0.0
H965 H 0.92104 0.7948 0.72626 0.0
H966 H 0.94023 0.79648 0.70252 0.0
H967 H 0.85583 0.6912 0.64967 0.0
H968 H 0.9025 0.70107 0.66618 0.0
H969 H 0.97405 0.80251 0.64726 0.0
H970 H 0.92835 0.79257 0.63068 0.0
H971 H 0.9314 0.74966 0.68484 0.0
H972 H 0.05919 0.82703 0.65074 0.0
H973 H 0.07831 0.82347 0.62744 0.0
H974 H 0.99834 0.71214 0.6255 0.0
H975 H 0.97906 0.71485 0.64886 0.0
C976 C 0.07596 0.86095 0.71564 0.0
C977 C 0.10642 0.85737 0.71735 0.0
C978 C 0.04882 0.83895 0.70667 0.0
C979 C 0.0507 0.81197 0.69939 0.0
C980 C 0.08096 0.80803 0.70111 0.0
C981 C 0.10865 0.83061 0.70998 0.0
C982 C 0.02195 0.78979 0.68943 0.0
C983 C 0.03162 0.78781 0.67595 0.0
C984 C 0.9851 0.77405 0.69277 0.0
C985 C 0.97283 0.77245 0.70702 0.0
C986 C 0.98468 0.75845 0.71741 0.0
C987 C 0.97381 0.75783 0.73085 0.0
C988 C 0.95092 0.77095 0.73404 0.0
C989 C 0.93872 0.78459 0.72377 0.0
C990 C 0.94954 0.78532 0.71031 0.0
C991 C 0.88174 0.71528 0.64888 0.0
C992 C 0.88821 0.74109 0.63882 0.0
C993 C 0.90838 0.72095 0.65836 0.0
C994 C 0.94204 0.75238 0.65792 0.0
C995 C 0.9487 0.77766 0.64769 0.0
C996 C 0.92228 0.77202 0.63823 0.0
C997 C 0.96935 0.76064 0.66872 0.0
C998 C 0.95939 0.76002 0.68235 0.0
C999 C 0.0058 0.77311 0.66558 0.0
C1000 C 0.01755 0.77121 0.65156 0.0
C1001 C 0.04582 0.80172 0.64539 0.0
C1002 C 0.05666 0.79987 0.63216 0.0
C1003 C 0.03951 0.76762 0.62499 0.0
C1004 C 0.01153 0.73713 0.63105 0.0
C1005 C 0.00061 0.73882 0.64428 0.0
H1006 H 0.04793 0.76625 0.61474 0.0
H1007 H 0.94262 0.77054 0.74445 0.0
H1008 H 0.09044 0.12654 0.10311 0.0
H1009 H 0.04007 0.07397 0.11347 0.0
H1010 H 0.10748 0.02796 0.12043 0.0
H1011 H 0.15735 0.07967 0.10961 0.0
H1012 H 0.05696 0.98936 0.10375 0.0
H1013 H 0.059 0.03551 0.14703 0.0
H1014 H 0.06382 0.07807 0.16474 0.0
H1015 H 0.96929 0.07533 0.14945 0.0
H1016 H 0.96415 0.03321 0.1315 0.0
H1017 H 0.88475 0.83601 0.10099 0.0
H1018 H 0.94103 0.87736 0.11238 0.0
H1019 H 0.91915 0.96366 0.10623 0.0
H1020 H 0.86299 0.9227 0.09512 0.0
H1021 H 0.95145 0.9704 0.1305 0.0
H1022 H 0.96822 0.94715 0.08293 0.0
H1023 H 0.96779 0.91119 0.06334 0.0
H1024 H 0.02961 0.87606 0.08604 0.0
H1025 H 0.03027 0.91177 0.10578 0.0
C1026 C 0.09471 0.10567 0.10722 0.0
C1027 C 0.12733 0.10655 0.10521 0.0
C1028 C 0.06606 0.07582 0.11332 0.0
C1029 C 0.06999 0.04692 0.11768 0.0
C1030 C 0.10385 0.04989 0.1171 0.0
C1031 C 0.1322 0.0793 0.11078 0.0
C1032 C 0.0378 0.01118 0.11921 0.0
C1033 C 0.03434 0.98473 0.11004 0.0
C1034 C 0.00811 0.00532 0.12721 0.0
C1035 C 0.01124 0.03114 0.13787 0.0
C1036 C 0.03938 0.04418 0.14736 0.0
C1037 C 0.04214 0.0682 0.15746 0.0
C1038 C 0.01688 0.07939 0.15822 0.0
C1039 C 0.98881 0.0666 0.14886 0.0
C1040 C 0.98592 0.04257 0.13873 0.0
C1041 C 0.89177 0.8637 0.10224 0.0
C1042 C 0.86982 0.87629 0.09696 0.0
C1043 C 0.92379 0.8872 0.10879 0.0
C1044 C 0.93425 0.92354 0.11007 0.0
C1045 C 0.91144 0.93565 0.10542 0.0
C1046 C 0.87955 0.91228 0.09892 0.0
C1047 C 0.97067 0.9502 0.11452 0.0
C1048 C 0.97476 0.97464 0.12478 0.0
C1049 C 0.0011 0.95473 0.10739 0.0
C1050 C 0.99879 0.93159 0.09587 0.0
C1051 C 0.98131 0.93137 0.08378 0.0
C1052 C 0.98122 0.91124 0.07264 0.0
C1053 C 0.99871 0.8914 0.07345 0.0
C1054 C 0.01609 0.89144 0.08544 0.0
C1055 C 0.01632 0.9116 0.0966 0.0
H1056 H 0.99878 0.87597 0.06479 0.0
H1057 H 0.01904 0.09796 0.16606 0.0
H1058 H 0.07678 0.16137 0.44202 0.0
H1059 H 0.07385 0.11117 0.45462 0.0
H1060 H 0.96469 0.04378 0.44138 0.0
H1061 H 0.96699 0.09428 0.42924 0.0
H1062 H 0.97568 0.02275 0.46627 0.0
H1063 H 0.03656 0.05554 0.42128 0.0
H1064 H 0.08438 0.09819 0.40599 0.0
H1065 H 0.16408 0.10788 0.43453 0.0
H1066 H 0.11662 0.06551 0.45003 0.0
H1067 H 0.92921 0.8678 0.43266 0.0
H1068 H 0.94519 0.92372 0.44403 0.0
H1069 H 0.04762 0.93614 0.45514 0.0
H1070 H 0.03196 0.88012 0.44345 0.0
H1071 H 0.05626 0.99109 0.44152 0.0
H1072 H 0.99026 0.93449 0.48043 0.0
H1073 H 0.94088 0.88971 0.49455 0.0
H1074 H 0.86964 0.92198 0.47764 0.0
H1075 H 0.91836 0.96658 0.46326 0.0
C1076 C 0.05191 0.13603 0.44204 0.0
C1077 C 0.02234 0.13131 0.43438 0.0
C1078 C 0.05022 0.10749 0.44933 0.0
C1079 C 0.01932 0.07364 0.4487 0.0
C1080 C 0.98881 0.06973 0.442 0.0
C1081 C 0.99025 0.09846 0.43495 0.0
C1082 C 0.02043 0.04113 0.45258 0.0
C1083 C 0.99343 0.01571 0.46103 0.0
C1084 C 0.04472 0.03271 0.44621 0.0
C1085 C 0.07316 0.05779 0.43685 0.0
C1086 C 0.0643 0.0669 0.42429 0.0
C1087 C 0.09131 0.091 0.4156 0.0
C1088 C 0.12724 0.10582 0.4193 0.0
C1089 C 0.13624 0.09646 0.43169 0.0
C1090 C 0.10931 0.07242 0.44043 0.0
C1091 C 0.95491 0.88205 0.43771 0.0
C1092 C 0.97964 0.87 0.43691 0.0
C1093 C 0.96381 0.91379 0.44444 0.0
C1094 C 0.99748 0.93397 0.4506 0.0
C1095 C 0.02141 0.92084 0.45053 0.0
C1096 C 0.01252 0.88902 0.44376 0.0
C1097 C 0.00971 0.97148 0.45443 0.0
C1098 C 0.03944 0.99817 0.44742 0.0
C1099 C 0.98779 0.98079 0.4621 0.0
C1100 C 0.95814 0.95403 0.47075 0.0
C1101 C 0.96403 0.93195 0.47966 0.0
C1102 C 0.93614 0.90659 0.48772 0.0
C1103 C 0.90216 0.90302 0.487 0.0
C1104 C 0.89601 0.92484 0.47822 0.0
C1105 C 0.92381 0.95026 0.47013 0.0
H1106 H 0.88059 0.88335 0.49325 0.0
H1107 H 0.14812 0.12448 0.41256 0.0
H1108 H 0.81994 0.94081 0.77065 0.0
H1109 H 0.85794 0.92146 0.78205 0.0
H1110 H 0.94691 0.02973 0.78025 0.0
H1111 H 0.90932 0.04914 0.7692 0.0
H1112 H 0.91263 0.92382 0.76963 0.0
H1113 H 0.00764 0.04877 0.80355 0.0
H1114 H 0.00046 0.08748 0.82012 0.0
H1115 H 0.89196 0.00517 0.82763 0.0
H1116 H 0.89872 0.9654 0.81145 0.0
H1117 H 0.10695 0.02772 0.76843 0.0
H1118 H 0.05234 0.02037 0.77898 0.0
H1119 H 0.0149 0.90819 0.78549 0.0
H1120 H 0.06885 0.91508 0.77462 0.0
H1121 H 0.01032 0.99388 0.80248 0.0
H1122 H 0.92977 0.86363 0.7744 0.0
H1123 H 0.93639 0.82794 0.75616 0.0
H1124 H 0.01312 0.92447 0.73594 0.0
H1125 H 0.00658 0.9606 0.75396 0.0
C1126 C 0.8474 0.96055 0.77299 0.0
C1127 C 0.86191 0.99634 0.76883 0.0
C1128 C 0.86897 0.94949 0.77955 0.0
C1129 C 0.90512 0.97418 0.78214 0.0
C1130 C 0.9189 0.01029 0.77867 0.0
C1131 C 0.89749 0.02129 0.77213 0.0
C1132 C 0.93044 0.96207 0.78603 0.0
C1133 C 0.93319 0.938 0.77723 0.0
C1134 C 0.95729 0.98061 0.79593 0.0
C1135 C 0.95371 0.00398 0.80621 0.0
C1136 C 0.98239 0.03861 0.80887 0.0
C1137 C 0.97836 0.06082 0.81818 0.0
C1138 C 0.94575 0.04884 0.82488 0.0
C1139 C 0.91718 0.01447 0.82239 0.0
C1140 C 0.92114 0.99204 0.81317 0.0
C1141 C 0.08744 0.00169 0.77236 0.0
C1142 C 0.09163 0.97181 0.77037 0.0
C1143 C 0.05644 0.99758 0.77853 0.0
C1144 C 0.02946 0.96362 0.78284 0.0
C1145 C 0.03529 0.93451 0.7821 0.0
C1146 C 0.06599 0.93849 0.77578 0.0
C1147 C 0.99325 0.95785 0.78544 0.0
C1148 C 0.98863 0.97833 0.79546 0.0
C1149 C 0.96454 0.93612 0.77664 0.0
C1150 C 0.96802 0.9147 0.76559 0.0
C1151 C 0.94795 0.87716 0.76603 0.0
C1152 C 0.95169 0.85688 0.75574 0.0
C1153 C 0.97528 0.87393 0.74494 0.0
C1154 C 0.99496 0.91129 0.74434 0.0
C1155 C 0.99123 0.93167 0.75458 0.0
H1156 H 0.97828 0.85823 0.73702 0.0
H1157 H 0.94264 0.06614 0.83204 0.0
H1158 H 0.84563 0.86256 0.56823 0.0
H1159 H 0.88841 0.91583 0.55545 0.0
H1160 H 0.97318 0.92765 0.58212 0.0
H1161 H 0.93127 0.87439 0.59446 0.0
H1162 H 0.92217 0.9799 0.56293 0.0
H1163 H 0.05122 0.96525 0.56999 0.0
H1164 H 0.06704 0.91864 0.56574 0.0
H1165 H 0.97844 0.86555 0.53824 0.0
H1166 H 0.96241 0.91221 0.54209 0.0
H1167 H 0.05345 0.11676 0.59635 0.0
H1168 H 0.00748 0.06377 0.58504 0.0
H1169 H 0.0815 0.07828 0.55272 0.0
H1170 H 0.12858 0.13088 0.56454 0.0
H1171 H 0.04988 0.01388 0.55856 0.0
H1172 H 0.00285 0.08445 0.54627 0.0
H1173 H 0.98571 0.13099 0.5472 0.0
H1174 H 0.90886 0.07252 0.57849 0.0
H1175 H 0.92587 0.02591 0.57795 0.0
C1176 C 0.87354 0.8764 0.57121 0.0
C1177 C 0.88513 0.86455 0.5824 0.0
C1178 C 0.89795 0.90664 0.56385 0.0
C1179 C 0.9342 0.92544 0.56761 0.0
C1180 C 0.94568 0.91305 0.57866 0.0
C1181 C 0.92153 0.88278 0.58587 0.0
C1182 C 0.95956 0.96069 0.56157 0.0
C1183 C 0.95002 0.98737 0.56168 0.0
C1184 C 0.99546 0.97024 0.55882 0.0
C1185 C 0.00566 0.94248 0.5563 0.0
C1186 C 0.03534 0.94397 0.56289 0.0
C1187 C 0.04429 0.91741 0.56059 0.0
C1188 C 0.0238 0.88918 0.55172 0.0
C1189 C 0.99431 0.88744 0.54512 0.0
C1190 C 0.98527 0.91394 0.54736 0.0
C1191 C 0.05989 0.10891 0.58677 0.0
C1192 C 0.09457 0.12777 0.58136 0.0
C1193 C 0.03338 0.07884 0.58016 0.0
C1194 C 0.04057 0.06745 0.56777 0.0
C1195 C 0.07516 0.08668 0.56219 0.0
C1196 C 0.10205 0.11656 0.56898 0.0
C1197 C 0.01287 0.03298 0.56185 0.0
C1198 C 0.02195 0.00652 0.55923 0.0
C1199 C 0.97639 0.02368 0.56159 0.0
C1200 C 0.96559 0.05148 0.562 0.0
C1201 C 0.98236 0.08152 0.55339 0.0
C1202 C 0.97267 0.10796 0.55385 0.0
C1203 C 0.94617 0.10468 0.56288 0.0
C1204 C 0.92929 0.07495 0.57146 0.0
C1205 C 0.93888 0.04843 0.57105 0.0
H1206 H 0.93873 0.12519 0.56323 0.0
H1207 H 0.03074 0.86863 0.54997 0.0
H1208 H 0.10468 0.94439 0.92237 0.0
H1209 H 0.10369 0.99465 0.91137 0.0
H1210 H 0.98812 0.93554 0.91173 0.0
H1211 H 0.98891 0.88485 0.92243 0.0
H1212 H 0.01148 0.97437 0.88915 0.0
H1213 H 0.03496 0.99369 0.93723 0.0
H1214 H 0.06574 0.00303 0.95925 0.0
H1215 H 0.16124 0.09064 0.94231 0.0
H1216 H 0.13106 0.08159 0.92013 0.0
H1217 H 0.94106 0.07632 0.91316 0.0
H1218 H 0.96295 0.03823 0.90435 0.0
H1219 H 0.06806 0.13053 0.89889 0.0
H1220 H 0.04632 0.169 0.90793 0.0
H1221 H 0.06722 0.08476 0.91706 0.0
H1222 H 0.02631 0.07373 0.87175 0.0
H1223 H 0.98403 0.06606 0.85345 0.0
H1224 H 0.90941 0.96113 0.86843 0.0
H1225 H 0.95094 0.96828 0.88692 0.0
C1226 C 0.07905 0.94198 0.91999 0.0
C1227 C 0.04681 0.91098 0.92347 0.0
C1228 C 0.07856 0.97065 0.91366 0.0
C1229 C 0.04586 0.96895 0.91089 0.0
C1230 C 0.01367 0.93733 0.91374 0.0
C1231 C 0.01413 0.90851 0.91995 0.0
C1232 C 0.04485 0.00113 0.90644 0.0
C1233 C 0.02376 0.99868 0.89516 0.0
C1234 C 0.06179 0.03316 0.91408 0.0
C1235 C 0.08099 0.03655 0.92698 0.0
C1236 C 0.06273 0.0145 0.93813 0.0
C1237 C 0.07998 0.01989 0.95066 0.0
C1238 C 0.11539 0.04743 0.95217 0.0
C1239 C 0.13382 0.0693 0.94111 0.0
C1240 C 0.11668 0.06403 0.92856 0.0
C1241 C 0.96862 0.08869 0.90976 0.0
C1242 C 0.99229 0.12544 0.91161 0.0
C1243 C 0.98097 0.06692 0.90448 0.0
C1244 C 0.01715 0.08156 0.90092 0.0
C1245 C 0.03999 0.11878 0.90151 0.0
C1246 C 0.02761 0.14064 0.9068 0.0
C1247 C 0.03219 0.05747 0.90022 0.0
C1248 C 0.0562 0.06132 0.91055 0.0
C1249 C 0.01676 0.02637 0.89204 0.0
C1250 C 0.99187 0.02159 0.88075 0.0
C1251 C 0.00085 0.04905 0.87117 0.0
C1252 C 0.97699 0.04478 0.86076 0.0
C1253 C 0.94405 0.01313 0.85979 0.0
C1254 C 0.93497 0.98561 0.86918 0.0
C1255 C 0.95872 0.98972 0.87961 0.0
H1256 H 0.92548 0.00993 0.8518 0.0
H1257 H 0.12845 0.052 0.96194 0.0
H1258 H 0.15687 0.10401 0.25115 0.0
H1259 H 0.10521 0.10224 0.24022 0.0
H1260 H 0.05215 0.98692 0.23871 0.0
H1261 H 0.10424 0.98855 0.24929 0.0
H1262 H 0.03219 0.01347 0.21721 0.0
H1263 H 0.04168 0.02533 0.26599 0.0
H1264 H 0.06851 0.052 0.28813 0.0
H1265 H 0.07357 0.15033 0.27644 0.0
H1266 H 0.04717 0.12432 0.25411 0.0
H1267 H 0.863 0.93595 0.24619 0.0
H1268 H 0.92167 0.95965 0.23565 0.0
H1269 H 0.93226 0.06443 0.23354 0.0
H1270 H 0.87333 0.04081 0.2441 0.0
H1271 H 0.97929 0.05995 0.25064 0.0
H1272 H 0.94454 0.03067 0.20499 0.0
H1273 H 0.90794 0.99336 0.18591 0.0
H1274 H 0.9416 0.91693 0.19415 0.0
H1275 H 0.97788 0.95335 0.21345 0.0
C1276 C 0.13442 0.0783 0.24828 0.0
C1277 C 0.13403 0.04631 0.25138 0.0
C1278 C 0.10514 0.07738 0.24192 0.0
C1279 C 0.07475 0.04445 0.23886 0.0
C1280 C 0.07543 0.01262 0.24097 0.0
C1281 C 0.10499 0.01355 0.24716 0.0
C1282 C 0.04038 0.04268 0.23588 0.0
C1283 C 0.02052 0.02377 0.22441 0.0
C1284 C 0.02564 0.05679 0.24519 0.0
C1285 C 0.04302 0.07311 0.25832 0.0
C1286 C 0.04899 0.0528 0.26807 0.0
C1287 C 0.06397 0.06773 0.28066 0.0
C1288 C 0.07269 0.10281 0.28369 0.0
C1289 C 0.06677 0.12315 0.27407 0.0
C1290 C 0.05187 0.10836 0.26144 0.0
C1291 C 0.87743 0.96384 0.24317 0.0
C1292 C 0.86427 0.98685 0.24634 0.0
C1293 C 0.91068 0.97722 0.23691 0.0
C1294 C 0.93124 0.0138 0.23382 0.0
C1295 C 0.91661 0.03608 0.23578 0.0
C1296 C 0.88316 0.02262 0.24194 0.0
C1297 C 0.97024 0.02953 0.23224 0.0
C1298 C 0.99127 0.05108 0.24297 0.0
C1299 C 0.98526 0.01671 0.22251 0.0
C1300 C 0.964 0.99485 0.21072 0.0
C1301 C 0.94404 0.00582 0.2028 0.0
C1302 C 0.92333 0.98482 0.19193 0.0
C1303 C 0.92246 0.95281 0.18882 0.0
C1304 C 0.94236 0.94177 0.19656 0.0
C1305 C 0.96308 0.96265 0.20745 0.0
H1306 H 0.90635 0.93655 0.18042 0.0
H1307 H 0.08389 0.11416 0.29351 0.0
H1308 H 0.04864 0.21782 0.95295 0.0
H1309 H 0.09385 0.22632 0.96979 0.0
H1310 H 0.03151 0.23985 1.00113 0.0
H1311 H 0.9873 0.23347 0.98412 0.0
H1312 H 0.0967 0.27983 1.00737 0.0
H1313 H 0.02993 0.15682 0.99407 0.0
H1314 H 0.00434 0.10526 0.97843 0.0
H1315 H 0.11002 0.13181 0.96563 0.0
H1316 H 0.13624 0.18388 0.98106 0.0
H1317 H 0.1568 0.20922 0.06222 0.0
H1318 H 0.12175 0.21868 0.04476 0.0
H1319 H 0.20594 0.24505 0.01558 0.0
H1320 H 0.2416 0.23667 0.03304 0.0
H1321 H 0.13223 0.18683 1.00826 0.0
H1322 H 0.19731 0.30905 0.02377 0.0
H1323 H 0.2192 0.35684 0.04101 0.0
H1324 H 0.11095 0.32599 0.05164 0.0
H1325 H 0.08838 0.27762 0.03459 0.0
C1326 C 0.04495 0.22335 0.96339 0.0
C1327 C 0.01427 0.22482 0.96719 0.0
C1328 C 0.07066 0.22781 0.97307 0.0
C1329 C 0.06572 0.23255 0.98691 0.0
C1330 C 0.03603 0.23598 0.99059 0.0
C1331 C 0.01072 0.2324 0.98083 0.0
C1332 C 0.09051 0.23236 0.99756 0.0
C1333 C 0.10409 0.25922 1.00759 0.0
C1334 C 0.10071 0.20573 0.99793 0.0
C1335 C 0.08502 0.1745 0.98861 0.0
C1336 C 0.0477 0.15183 0.98784 0.0
C1337 C 0.03309 0.1225 0.97903 0.0
C1338 C 0.05554 0.11533 0.97101 0.0
C1339 C 0.09267 0.13745 0.97182 0.0
C1340 C 0.10742 0.16687 0.9806 0.0
C1341 C 0.16819 0.21774 0.05216 0.0
C1342 C 0.20209 0.22224 0.04906 0.0
C1343 C 0.1481 0.22311 0.04219 0.0
C1344 C 0.16118 0.23247 0.02886 0.0
C1345 C 0.19534 0.23786 0.0258 0.0
C1346 C 0.21578 0.23326 0.03583 0.0
C1347 C 0.13824 0.23421 0.01791 0.0
C1348 C 0.1249 0.20749 1.00791 0.0
C1349 C 0.12765 0.26039 0.01776 0.0
C1350 C 0.14116 0.28946 0.02801 0.0
C1351 C 0.17816 0.3122 0.02988 0.0
C1352 C 0.1907 0.33946 0.0396 0.0
C1353 C 0.16648 0.34438 0.04744 0.0
C1354 C 0.12967 0.32211 0.04557 0.0
C1355 C 0.117 0.29479 0.03587 0.0
H1356 H 0.17624 0.36551 0.05496 0.0
H1357 H 0.04419 0.09259 0.9642 0.0
H1358 H 0.94858 0.17145 0.39558 0.0
H1359 H 0.90171 0.13419 0.37932 0.0
H1360 H 0.96777 0.20095 0.34643 0.0
H1361 H 0.0133 0.2398 0.36283 0.0
H1362 H 0.90502 0.17985 0.33941 0.0
H1363 H 0.96013 0.11568 0.357 0.0
H1364 H 0.9808 0.08948 0.37462 0.0
H1365 H 0.8725 0.0226 0.38823 0.0
H1366 H 0.85123 0.04875 0.37079 0.0
H1367 H 0.83815 0.0402 0.28853 0.0
H1368 H 0.87393 0.08629 0.30532 0.0
H1369 H 0.78665 0.03751 0.33394 0.0
H1370 H 0.7503 0.99171 0.31708 0.0
H1371 H 0.85642 0.04892 0.3433 0.0
H1372 H 0.80382 0.11301 0.32229 0.0
H1373 H 0.78844 0.13879 0.30282 0.0
H1374 H 0.89999 0.2051 0.29325 0.0
H1375 H 0.91602 0.17933 0.31255 0.0
C1376 C 0.95269 0.17855 0.3849 0.0
C1377 C 0.98461 0.2085 0.38047 0.0
C1378 C 0.92606 0.15696 0.37555 0.0
C1379 C 0.93145 0.16378 0.36149 0.0
C1380 C 0.96274 0.19474 0.35715 0.0
C1381 C 0.98884 0.21705 0.36655 0.0
C1382 C 0.90543 0.13802 0.3513 0.0
C1383 C 0.89475 0.15128 0.34026 0.0
C1384 C 0.8915 0.10047 0.35228 0.0
C1385 C 0.90415 0.08445 0.36269 0.0
C1386 C 0.94075 0.09553 0.3638 0.0
C1387 C 0.95257 0.08068 0.37375 0.0
C1388 C 0.92799 0.05448 0.38257 0.0
C1389 C 0.89152 0.04296 0.38141 0.0
C1390 C 0.87956 0.05776 0.3715 0.0
C1391 C 0.82626 0.03967 0.2983 0.0
C1392 C 0.7913 0.01225 0.30144 0.0
C1393 C 0.84678 0.06605 0.30789 0.0
C1394 C 0.83301 0.06531 0.3209 0.0
C1395 C 0.79779 0.0386 0.32396 0.0
C1396 C 0.77697 0.01258 0.31427 0.0
C1397 C 0.85629 0.09089 0.33156 0.0
C1398 C 0.86656 0.07751 0.34261 0.0
C1399 C 0.8707 0.12829 0.33034 0.0
C1400 C 0.86109 0.14401 0.3188 0.0
C1401 C 0.82506 0.13287 0.31597 0.0
C1402 C 0.81623 0.14753 0.30498 0.0
C1403 C 0.84322 0.17351 0.29679 0.0
C1404 C 0.87911 0.18495 0.29959 0.0
C1405 C 0.88808 0.17036 0.31057 0.0
H1406 H 0.83632 0.18481 0.28828 0.0
H1407 H 0.9372 0.04304 0.39027 0.0
H1408 H 0.77511 0.82723 0.62062 0.0
H1409 H 0.76256 0.86376 0.63619 0.0
H1410 H 0.74674 0.79055 0.66892 0.0
H1411 H 0.75705 0.75279 0.65313 0.0
H1412 H 0.70491 0.81481 0.67335 0.0
H1413 H 0.82967 0.87219 0.66246 0.0
H1414 H 0.88295 0.89756 0.64762 0.0
H1415 H 0.85611 0.97399 0.63183 0.0
H1416 H 0.80238 0.94874 0.64645 0.0
H1417 H 0.7702 0.94503 0.72762 0.0
H1418 H 0.7597 0.89982 0.71041 0.0
H1419 H 0.74129 0.96142 0.68029 0.0
H1420 H 0.75094 0.00644 0.69754 0.0
H1421 H 0.79683 0.94376 0.67398 0.0
H1422 H 0.67374 0.88674 0.68833 0.0
H1423 H 0.6247 0.86115 0.70513 0.0
H1424 H 0.65456 0.78382 0.71695 0.0
H1425 H 0.70414 0.80929 0.70036 0.0
C1426 C 0.76817 0.81854 0.63108 0.0
C1427 C 0.76726 0.78722 0.63566 0.0
C1428 C 0.76136 0.83966 0.64003 0.0
C1429 C 0.75485 0.83074 0.65391 0.0
C1430 C 0.75191 0.79833 0.65832 0.0
C1431 C 0.75777 0.77666 0.64927 0.0
C1432 C 0.7532 0.85603 0.66392 0.0
C1433 C 0.72522 0.84293 0.67351 0.0
C1434 C 0.77945 0.89297 0.6642 0.0
C1435 C 0.8118 0.90831 0.65543 0.0
C1436 C 0.83501 0.89425 0.65575 0.0
C1437 C 0.8653 0.90862 0.64739 0.0
C1438 C 0.87285 0.93729 0.63876 0.0
C1439 C 0.85019 0.95173 0.6385 0.0
C1440 C 0.81982 0.93741 0.64683 0.0
C1441 C 0.76304 0.94854 0.71741 0.0
C1442 C 0.7614 0.97937 0.71396 0.0
C1443 C 0.75705 0.92266 0.70758 0.0
C1444 C 0.7498 0.92727 0.69406 0.0
C1445 C 0.74679 0.95731 0.69068 0.0
C1446 C 0.75209 0.9829 0.70057 0.0
C1447 C 0.74865 0.90247 0.68329 0.0
C1448 C 0.77633 0.9157 0.67365 0.0
C1449 C 0.72276 0.86559 0.68324 0.0
C1450 C 0.69286 0.85013 0.69318 0.0
C1451 C 0.67006 0.86448 0.69459 0.0
C1452 C 0.64211 0.84995 0.70406 0.0
C1453 C 0.63656 0.82093 0.71212 0.0
C1454 C 0.6589 0.80632 0.71071 0.0
C1455 C 0.6869 0.82076 0.70126 0.0
H1456 H 0.61492 0.80972 0.71945 0.0
H1457 H 0.89631 0.94838 0.63229 0.0
H1458 H 0.80236 0.74491 0.06062 0.0
H1459 H 0.83948 0.73435 0.04451 0.0
H1460 H 0.80088 0.77264 0.01174 0.0
H1461 H 0.76144 0.78003 0.02769 0.0
H1462 H 0.81464 0.72664 1.00163 0.0
H1463 H 0.88246 0.82854 0.03095 0.0
H1464 H 0.89797 0.8552 0.05388 0.0
H1465 H 0.93972 0.78642 0.06426 0.0
H1466 H 0.924 0.75899 0.04145 0.0
H1467 H 0.97187 0.8098 0.96001 0.0
H1468 H 0.92211 0.79643 0.97538 0.0
H1469 H 0.95257 0.73484 1.0009 0.0
H1470 H 0.00226 0.74765 0.98542 0.0
H1471 H 0.94261 0.78732 0.01508 0.0
H1472 H 0.87969 0.69114 0.98332 0.0
H1473 H 0.86006 0.66452 0.96056 0.0
H1474 H 0.80945 0.72735 0.95408 0.0
H1475 H 0.82922 0.75474 0.97673 0.0
C1476 C 0.80101 0.74987 0.04989 0.0
C1477 C 0.779 0.76309 0.04535 0.0
C1478 C 0.82259 0.74433 0.0407 0.0
C1479 C 0.82419 0.75397 0.02692 0.0
C1480 C 0.80049 0.76517 0.02228 0.0
C1481 C 0.77787 0.76936 0.0314 0.0
C1482 C 0.85238 0.75534 0.01761 0.0
C1483 C 0.84261 0.74015 1.00457 0.0
C1484 C 0.88908 0.77265 0.02137 0.0
C1485 C 0.90172 0.79147 0.03456 0.0
C1486 C 0.89513 0.81925 0.03811 0.0
C1487 C 0.90379 0.83437 0.05109 0.0
C1488 C 0.91943 0.8222 0.06056 0.0
C1489 C 0.92734 0.79559 0.05694 0.0
C1490 C 0.91863 0.7803 0.04398 0.0
C1491 C 0.96775 0.79298 0.96878 0.0
C1492 C 0.99112 0.7798 0.97146 0.0
C1493 C 0.93922 0.78534 0.97757 0.0
C1494 C 0.93357 0.76464 0.98931 0.0
C1495 C 0.95642 0.75088 0.99191 0.0
C1496 C 0.98468 0.75805 0.983 0.0
C1497 C 0.90478 0.75886 0.99912 0.0
C1498 C 0.91457 0.77351 0.01222 0.0
C1499 C 0.86827 0.74177 0.99529 0.0
C1500 C 0.8562 0.72521 0.98169 0.0
C1501 C 0.86462 0.6995 0.977 0.0
C1502 C 0.85342 0.68422 0.96412 0.0
C1503 C 0.83359 0.69429 0.95587 0.0
C1504 C 0.82484 0.71959 0.96048 0.0
C1505 C 0.836 0.73497 0.97335 0.0
H1506 H 0.82494 0.68244 0.9459 0.0
H1507 H 0.92539 0.83337 0.0707 0.0
H1508 H 0.15058 0.97621 0.29237 0.0
H1509 H 0.11331 0.9302 0.30888 0.0
H1510 H 0.20794 0.94562 0.32969 0.0
H1511 H 0.24551 0.99136 0.31306 0.0
H1512 H 0.15664 0.87572 0.33027 0.0
H1513 H 0.16411 0.98793 0.34062 0.0
H1514 H 0.15962 0.04161 0.33568 0.0
H1515 H 0.04746 0.97541 0.32723 0.0
H1516 H 0.0514 0.92128 0.33192 0.0
H1517 H 0.03731 0.8456 0.39539 0.0
H1518 H 0.0818 0.88282 0.37845 0.0
H1519 H 0.04562 0.79119 0.35213 0.0
H1520 H 0.00153 0.75349 0.36927 0.0
H1521 H 0.07022 0.89979 0.35471 0.0
H1522 H 0.11205 0.80488 0.32953 0.0
H1523 H 0.1208 0.75442 0.33585 0.0
H1524 H 0.14174 0.79157 0.37714 0.0
H1525 H 0.13359 0.84249 0.37103 0.0
C1526 C 0.16358 0.96947 0.30031 0.0
C1527 C 0.20117 0.98785 0.30141 0.0
C1528 C 0.14217 0.94315 0.30979 0.0
C1529 C 0.15773 0.93486 0.32072 0.0
C1530 C 0.19524 0.95157 0.32139 0.0
C1531 C 0.21674 0.97779 0.31184 0.0
C1532 C 0.13497 0.91098 0.33196 0.0
C1533 C 0.13765 0.88089 0.33559 0.0
C1534 C 0.1107 0.91804 0.33915 0.0
C1535 C 0.10813 0.95055 0.3365 0.0
C1536 C 0.13853 0.98482 0.33762 0.0
C1537 C 0.13609 0.01532 0.33488 0.0
C1538 C 0.1033 0.01192 0.33111 0.0
C1539 C 0.07285 0.978 0.33013 0.0
C1540 C 0.07517 0.9474 0.33284 0.0
C1541 C 0.03926 0.83313 0.38613 0.0
C1542 C 0.01572 0.7965 0.38371 0.0
C1543 C 0.06465 0.85455 0.37638 0.0
C1544 C 0.06716 0.84003 0.36392 0.0
C1545 C 0.04468 0.8031 0.3617 0.0
C1546 C 0.01941 0.78151 0.37153 0.0
C1547 C 0.09148 0.86413 0.35301 0.0
C1548 C 0.08906 0.89438 0.3494 0.0
C1549 C 0.11646 0.85755 0.34608 0.0
C1550 C 0.12184 0.82728 0.34984 0.0
C1551 C 0.11865 0.80234 0.33995 0.0
C1552 C 0.12348 0.77365 0.34349 0.0
C1553 C 0.1317 0.76973 0.3569 0.0
C1554 C 0.13523 0.79456 0.36677 0.0
C1555 C 0.13046 0.82331 0.36327 0.0
H1556 H 0.1354 0.74748 0.35963 0.0
H1557 H 0.10146 0.03556 0.32898 0.0
H1558 H 0.26119 0.01664 0.70776 0.0
H1559 H 0.27396 0.06212 0.69033 0.0
H1560 H 0.19483 0.08305 0.70816 0.0
H1561 H 0.18292 0.03887 0.72576 0.0
H1562 H 0.23475 0.06334 0.67118 0.0
H1563 H 0.20907 0.1645 0.70172 0.0
H1564 H 0.22036 0.19081 0.72469 0.0
H1565 H 0.307 0.16983 0.72992 0.0
H1566 H 0.29659 0.14385 0.70692 0.0
H1567 H 0.17158 0.1503 0.62891 0.0
H1568 H 0.18425 0.11748 0.64598 0.0
H1569 H 0.27904 0.21486 0.65808 0.0
H1570 H 0.26559 0.24842 0.64125 0.0
H1571 H 0.24619 0.18195 0.67962 0.0
H1572 H 0.28216 0.14399 0.64061 0.0
H1573 H 0.27825 0.12093 0.61737 0.0
H1574 H 0.18525 0.02178 0.62862 0.0
H1575 H 0.18829 0.04441 0.65189 0.0
C1576 C 0.24707 0.03149 0.70814 0.0
C1577 C 0.22105 0.02399 0.71823 0.0
C1578 C 0.25426 0.0574 0.6981 0.0
C1579 C 0.23561 0.07642 0.6979 0.0
C1580 C 0.21028 0.06953 0.70818 0.0
C1581 C 0.20334 0.04397 0.71826 0.0
C1582 C 0.2405 0.10151 0.68651 0.0
C1583 C 0.23754 0.08939 0.67305 0.0
C1584 C 0.24519 0.13605 0.6888 0.0
C1585 C 0.25186 0.15199 0.70261 0.0
C1586 C 0.23066 0.16567 0.70774 0.0
C1587 C 0.23688 0.18049 0.72078 0.0
C1588 C 0.26432 0.18191 0.72877 0.0
C1589 C 0.28568 0.16861 0.72373 0.0
C1590 C 0.27959 0.15379 0.7107 0.0
C1591 C 0.19551 0.16483 0.63501 0.0
C1592 C 0.2176 0.20214 0.63362 0.0
C1593 C 0.20285 0.14585 0.64479 0.0
C1594 C 0.23293 0.1634 0.65329 0.0
C1595 C 0.25566 0.20055 0.65168 0.0
C1596 C 0.24806 0.21972 0.64198 0.0
C1597 C 0.23904 0.14317 0.66434 0.0
C1598 C 0.24396 0.15615 0.67774 0.0
C1599 C 0.23723 0.10988 0.66196 0.0
C1600 C 0.23536 0.09601 0.64799 0.0
C1601 C 0.26075 0.11735 0.63811 0.0
C1602 C 0.2587 0.10434 0.62493 0.0
C1603 C 0.23149 0.06993 0.62152 0.0
C1604 C 0.20631 0.04843 0.63129 0.0
C1605 C 0.20822 0.06131 0.64448 0.0
H1606 H 0.22994 0.05992 0.61131 0.0
H1607 H 0.26907 0.19337 0.73887 0.0
H1608 H 0.34657 0.18813 0.1149 0.0
H1609 H 0.36083 0.17627 0.13778 0.0
H1610 H 0.28982 0.20928 0.15501 0.0
H1611 H 0.27735 0.223 0.13226 0.0
H1612 H 0.3395 0.22534 0.17216 0.0
H1613 H 0.26292 0.11942 0.14667 0.0
H1614 H 0.24612 0.07782 0.1273 0.0
H1615 H 0.33529 0.06248 0.13559 0.0
H1616 H 0.35293 0.10447 0.15491 0.0
H1617 H 0.25585 0.06399 0.22056 0.0
H1618 H 0.26907 0.08698 0.19733 0.0
H1619 H 0.37113 0.17394 0.21052 0.0
H1620 H 0.35711 0.15146 0.234 0.0
H1621 H 0.31414 0.10058 0.17804 0.0
H1622 H 0.38849 0.25016 0.19332 0.0
H1623 H 0.39253 0.2878 0.2129 0.0
H1624 H 0.28672 0.20861 0.22559 0.0
H1625 H 0.28187 0.17082 0.20599 0.0
C1626 C 0.33525 0.19423 0.12362 0.0
C1627 C 0.31093 0.20656 0.12184 0.0
C1628 C 0.34295 0.18693 0.13671 0.0
C1629 C 0.3257 0.19093 0.14819 0.0
C1630 C 0.30347 0.20579 0.1464 0.0
C1631 C 0.29631 0.21365 0.13338 0.0
C1632 C 0.32778 0.17665 0.16183 0.0
C1633 C 0.33443 0.19821 0.1734 0.0
C1634 C 0.32021 0.14089 0.16362 0.0
C1635 C 0.30948 0.11538 0.15212 0.0
C1636 C 0.27905 0.10733 0.14431 0.0
C1637 C 0.26938 0.08368 0.13334 0.0
C1638 C 0.28968 0.06759 0.13019 0.0
C1639 C 0.31964 0.07503 0.13803 0.0
C1640 C 0.3295 0.09876 0.14898 0.0
C1641 C 0.28141 0.08766 0.21844 0.0
C1642 C 0.30531 0.10614 0.22908 0.0
C1643 C 0.28903 0.10076 0.20514 0.0
C1644 C 0.32084 0.13265 0.20213 0.0
C1645 C 0.34609 0.14966 0.21259 0.0
C1646 C 0.3383 0.1366 0.22598 0.0
C1647 C 0.32569 0.14922 0.18836 0.0
C1648 C 0.32019 0.12803 0.17677 0.0
C1649 C 0.33258 0.18474 0.18659 0.0
C1650 C 0.33507 0.2075 0.1983 0.0
C1651 C 0.36609 0.24086 0.20028 0.0
C1652 C 0.3685 0.26221 0.21137 0.0
C1653 C 0.33996 0.25054 0.22051 0.0
C1654 C 0.30886 0.21757 0.21853 0.0
C1655 C 0.30628 0.19618 0.20744 0.0
H1656 H 0.34191 0.26709 0.2291 0.0
H1657 H 0.28215 0.04929 0.1217 0.0
H1658 H 0.16089 0.31598 0.44659 0.0
H1659 H 0.18486 0.32505 0.46978 0.0
H1660 H 0.09104 0.32519 0.48491 0.0
H1661 H 0.06705 0.31597 0.46165 0.0
H1662 H 0.15473 0.37491 0.4985 0.0
H1663 H 0.09157 0.24944 0.48667 0.0
H1664 H 0.07762 0.19687 0.47249 0.0
H1665 H 0.18608 0.21934 0.47633 0.0
H1666 H 0.20064 0.27201 0.49057 0.0
H1667 H 0.14934 0.31687 0.56695 0.0
H1668 H 0.13992 0.32904 0.54343 0.0
H1669 H 0.22637 0.31297 0.53028 0.0
H1670 H 0.23507 0.29997 0.55385 0.0
H1671 H 0.17016 0.27491 0.51519 0.0
H1672 H 0.23157 0.39718 0.52931 0.0
H1673 H 0.24449 0.44881 0.54385 0.0
H1674 H 0.13983 0.43324 0.53575 0.0
H1675 H 0.12607 0.38117 0.52131 0.0
C1676 C 0.14608 0.31925 0.45483 0.0
C1677 C 0.11249 0.31593 0.45238 0.0
C1678 C 0.15956 0.32405 0.46808 0.0
C1679 C 0.13958 0.32541 0.47912 0.0
C1680 C 0.10698 0.32431 0.47656 0.0
C1681 C 0.09338 0.31928 0.46329 0.0
C1682 C 0.15119 0.3248 0.49335 0.0
C1683 C 0.15786 0.35296 0.50221 0.0
C1684 C 0.15595 0.29648 0.49812 0.0
C1685 C 0.14728 0.26486 0.48956 0.0
C1686 C 0.11249 0.24328 0.48442 0.0
C1687 C 0.10445 0.21342 0.47641 0.0
C1688 C 0.13099 0.20489 0.47345 0.0
C1689 C 0.16556 0.22604 0.4786 0.0
C1690 C 0.1737 0.25582 0.48668 0.0
C1691 C 0.16698 0.31707 0.55905 0.0
C1692 C 0.19324 0.30803 0.56216 0.0
C1693 C 0.1616 0.32398 0.5456 0.0
C1694 C 0.18258 0.32223 0.53499 0.0
C1695 C 0.20984 0.31457 0.53824 0.0
C1696 C 0.21508 0.3075 0.5517 0.0
C1697 C 0.17399 0.3252 0.52048 0.0
C1698 C 0.16758 0.29723 0.51152 0.0
C1699 C 0.16948 0.35371 0.51567 0.0
C1700 C 0.17769 0.38507 0.52431 0.0
C1701 C 0.2112 0.40459 0.53071 0.0
C1702 C 0.2187 0.43397 0.53892 0.0
C1703 C 0.19297 0.44425 0.54074 0.0
C1704 C 0.15972 0.42522 0.53433 0.0
C1705 C 0.15208 0.3958 0.52612 0.0
H1706 H 0.19883 0.467 0.5471 0.0
H1707 H 0.12472 0.18184 0.4672 0.0
H1708 H 0.93313 0.23974 0.88494 0.0
H1709 H 0.90731 0.22592 0.86198 0.0
H1710 H 0.80601 0.14601 0.87873 0.0
H1711 H 0.83182 0.16029 0.90171 0.0
H1712 H 0.83277 0.12028 0.8582 0.0
H1713 H 0.81202 0.21901 0.86499 0.0
H1714 H 0.82953 0.28127 0.87074 0.0
H1715 H 0.90553 0.31958 0.83794 0.0
H1716 H 0.88884 0.25755 0.83211 0.0
H1717 H 0.7451 0.06527 0.79529 0.0
H1718 H 0.75801 0.08944 0.81851 0.0
H1719 H 0.85501 0.18157 0.80421 0.0
H1720 H 0.84145 0.1577 0.78098 0.0
H1721 H 0.82726 0.20176 0.82391 0.0
H1722 H 0.85622 0.10952 0.81812 0.0
H1723 H 0.84619 0.04971 0.81211 0.0
H1724 H 0.76397 0.002 0.84253 0.0
H1725 H 0.77324 0.06155 0.84862 0.0
C1726 C 0.90501 0.22021 0.88371 0.0
C1727 C 0.88417 0.20161 0.89505 0.0
C1728 C 0.89032 0.21217 0.87061 0.0
C1729 C 0.85465 0.18498 0.86861 0.0
C1730 C 0.8335 0.16719 0.88002 0.0
C1731 C 0.8481 0.17557 0.89313 0.0
C1732 C 0.84057 0.17293 0.85461 0.0
C1733 C 0.8308 0.13786 0.85079 0.0
C1734 C 0.8395 0.19632 0.84475 0.0
C1735 C 0.84937 0.23362 0.84818 0.0
C1736 C 0.83266 0.24071 0.85906 0.0
C1737 C 0.8424 0.27597 0.86233 0.0
C1738 C 0.86868 0.30437 0.85473 0.0
C1739 C 0.8852 0.29756 0.84383 0.0
C1740 C 0.87557 0.26235 0.84053 0.0
C1741 C 0.7685 0.09122 0.7971 0.0
C1742 C 0.79207 0.10993 0.78641 0.0
C1743 C 0.77613 0.10486 0.81036 0.0
C1744 C 0.80788 0.1371 0.8132 0.0
C1745 C 0.83038 0.15672 0.80233 0.0
C1746 C 0.82259 0.14318 0.78906 0.0
C1747 C 0.81903 0.14891 0.82754 0.0
C1748 C 0.82862 0.18397 0.83138 0.0
C1749 C 0.82088 0.12583 0.83736 0.0
C1750 C 0.81513 0.08994 0.83372 0.0
C1751 C 0.8358 0.08624 0.82345 0.0
C1752 C 0.8303 0.0524 0.82005 0.0
C1753 C 0.80438 0.02206 0.82691 0.0
C1754 C 0.78398 0.02552 0.83721 0.0
C1755 C 0.78936 0.05931 0.84065 0.0
H1756 H 0.80017 0.99589 0.82426 0.0
H1757 H 0.87619 0.33164 0.85727 0.0
H1758 H 0.65578 0.83205 0.23448 0.0
H1759 H 0.64723 0.80864 0.21115 0.0
H1760 H 0.71202 0.9162 0.19589 0.0
H1761 H 0.72084 0.93935 0.21914 0.0
H1762 H 0.62215 0.81673 0.18655 0.0
H1763 H 0.76881 0.91769 0.17232 0.0
H1764 H 0.82804 0.95273 0.18319 0.0
H1765 H 0.79483 0.8757 0.21552 0.0
H1766 H 0.73542 0.84023 0.20486 0.0
H1767 H 0.65649 0.81598 0.11464 0.0
H1768 H 0.64717 0.82826 0.13823 0.0
H1769 H 0.71408 0.78674 0.1523 0.0
H1770 H 0.72375 0.77512 0.12876 0.0
H1771 H 0.73613 0.84949 0.16288 0.0
H1772 H 0.62215 0.74309 0.1584 0.0
H1773 H 0.56358 0.70282 0.14791 0.0
H1774 H 0.53178 0.7816 0.15386 0.0
H1775 H 0.59039 0.82257 0.16422 0.0
C1776 C 0.66699 0.85066 0.22607 0.0
C1777 C 0.68858 0.8875 0.22855 0.0
C1778 C 0.66238 0.8373 0.21276 0.0
C1779 C 0.67953 0.86059 0.20176 0.0
C1780 C 0.69897 0.89762 0.2042 0.0
C1781 C 0.70365 0.91089 0.21746 0.0
C1782 C 0.67967 0.84629 0.18795 0.0
C1783 C 0.64705 0.82393 0.18135 0.0
C1784 C 0.71213 0.85504 0.18122 0.0
C1785 C 0.74756 0.87651 0.18786 0.0
C1786 C 0.77415 0.90827 0.18176 0.0
C1787 C 0.80772 0.92822 0.1879 0.0
C1788 C 0.81513 0.91654 0.20008 0.0
C1789 C 0.78899 0.88482 0.20613 0.0
C1790 C 0.7553 0.86487 0.20008 0.0
C1791 C 0.66824 0.80852 0.12283 0.0
C1792 C 0.69063 0.7944 0.11993 0.0
C1793 C 0.66303 0.81563 0.13631 0.0
C1794 C 0.67995 0.8085 0.14712 0.0
C1795 C 0.70085 0.79269 0.14419 0.0
C1796 C 0.70615 0.78576 0.13076 0.0
C1797 C 0.67859 0.8202 0.16131 0.0
C1798 C 0.71112 0.84225 0.16801 0.0
C1799 C 0.64607 0.81062 0.16816 0.0
C1800 C 0.61079 0.78603 0.16197 0.0
C1801 C 0.60278 0.75195 0.15737 0.0
C1802 C 0.56955 0.72897 0.15147 0.0
C1803 C 0.54401 0.73968 0.15019 0.0
C1804 C 0.55161 0.77336 0.15485 0.0
C1805 C 0.58482 0.79645 0.16075 0.0
H1806 H 0.5183 0.72185 0.14562 0.0
H1807 H 0.84114 0.93198 0.2048 0.0
H1808 H 0.9283 0.68284 0.46326 0.0
H1809 H 0.90529 0.67058 0.48675 0.0
H1810 H 0.81523 0.68129 0.47433 0.0
H1811 H 0.83788 0.69292 0.45093 0.0
H1812 H 0.85678 0.72773 0.49575 0.0
H1813 H 0.80038 0.60246 0.48365 0.0
H1814 H 0.79998 0.54849 0.47518 0.0
H1815 H 0.87175 0.5572 0.5071 0.0
H1816 H 0.87299 0.61156 0.51566 0.0
H1817 H 0.76361 0.69875 0.55646 0.0
H1818 H 0.77616 0.68918 0.53301 0.0
H1819 H 0.85242 0.65999 0.54764 0.0
H1820 H 0.83895 0.66868 0.57116 0.0
H1821 H 0.81991 0.62177 0.52536 0.0
H1822 H 0.88056 0.74497 0.53726 0.0
H1823 H 0.88816 0.80196 0.54598 0.0
H1824 H 0.81766 0.80124 0.51503 0.0
H1825 H 0.80939 0.74407 0.50618 0.0
C1826 C 0.90298 0.68131 0.46552 0.0
C1827 C 0.88474 0.68868 0.45535 0.0
C1828 C 0.88994 0.67451 0.47892 0.0
C1829 C 0.85862 0.67524 0.48232 0.0
C1830 C 0.83945 0.68067 0.47196 0.0
C1831 C 0.85224 0.68704 0.45859 0.0
C1832 C 0.8476 0.67395 0.49676 0.0
C1833 C 0.84815 0.70433 0.50216 0.0
C1834 C 0.83795 0.64407 0.50531 0.0
C1835 C 0.83706 0.6113 0.50021 0.0
C1836 C 0.81633 0.59306 0.48879 0.0
C1837 C 0.8159 0.56236 0.48399 0.0
C1838 C 0.8359 0.54948 0.49058 0.0
C1839 C 0.8563 0.56723 0.502 0.0
C1840 C 0.85685 0.59797 0.50684 0.0
C1841 C 0.78204 0.68901 0.55465 0.0
C1842 C 0.79992 0.68387 0.56554 0.0
C1843 C 0.78957 0.68398 0.54126 0.0
C1844 C 0.81582 0.67456 0.5385 0.0
C1845 C 0.83211 0.66727 0.54947 0.0
C1846 C 0.8243 0.67203 0.5629 0.0
C1847 C 0.82816 0.67527 0.52425 0.0
C1848 C 0.82827 0.64507 0.51893 0.0
C1849 C 0.83937 0.70572 0.51581 0.0
C1850 C 0.84405 0.74001 0.52114 0.0
C1851 C 0.86644 0.75681 0.53238 0.0
C1852 C 0.87092 0.78917 0.53733 0.0
C1853 C 0.85328 0.80512 0.5311 0.0
C1854 C 0.83123 0.7888 0.51987 0.0
C1855 C 0.82669 0.75645 0.51486 0.0
H1856 H 0.85677 0.83016 0.53496 0.0
H1857 H 0.83553 0.5257 0.48684 0.0
H1858 H 0.24752 0.91965 0.79601 0.0
H1859 H 0.23509 0.89481 0.81926 0.0
H1860 H 0.1233 0.82935 0.80913 0.0
H1861 H 0.13573 0.85382 0.78606 0.0
H1862 H 0.13463 0.87187 0.83162 0.0
H1863 H 0.1732 0.7914 0.81483 0.0
H1864 H 0.21577 0.77643 0.80414 0.0
H1865 H 0.29238 0.83303 0.83564 0.0
H1866 H 0.25043 0.84879 0.84642 0.0
H1867 H 0.06001 0.77571 0.89096 0.0
H1868 H 0.08016 0.78773 0.86726 0.0
H1869 H 0.1901 0.84019 0.88065 0.0
H1870 H 0.16967 0.82704 0.90441 0.0
H1871 H 0.1839 0.80665 0.85693 0.0
H1872 H 0.15005 0.88972 0.87332 0.0
H1873 H 0.11148 0.90981 0.8841 0.0
H1874 H 0.0308 0.85418 0.85378 0.0
H1875 H 0.0689 0.83373 0.84281 0.0
C1876 C 0.22057 0.8992 0.7987 0.0
C1877 C 0.19254 0.88868 0.78931 0.0
C1878 C 0.21342 0.88511 0.81197 0.0
C1879 C 0.17816 0.86035 0.81599 0.0
C1880 C 0.15064 0.84852 0.80632 0.0
C1881 C 0.15778 0.86238 0.79313 0.0
C1882 C 0.16898 0.84906 0.83046 0.0
C1883 C 0.14505 0.85716 0.83708 0.0
C1884 C 0.18366 0.83118 0.83779 0.0
C1885 C 0.20882 0.8216 0.83135 0.0
C1886 C 0.19925 0.80094 0.81941 0.0
C1887 C 0.22324 0.79225 0.81335 0.0
C1888 C 0.2568 0.80386 0.81919 0.0
C1889 C 0.2664 0.8241 0.83112 0.0
C1890 C 0.24251 0.83289 0.83722 0.0
C1891 C 0.08841 0.78865 0.88878 0.0
C1892 C 0.11332 0.80005 0.89943 0.0
C1893 C 0.09998 0.79595 0.87526 0.0
C1894 C 0.13672 0.81563 0.87213 0.0
C1895 C 0.16165 0.82507 0.88276 0.0
C1896 C 0.15001 0.8174 0.89632 0.0
C1897 C 0.14878 0.82865 0.85796 0.0
C1898 C 0.17341 0.82124 0.85145 0.0
C1899 C 0.13527 0.84781 0.85073 0.0
C1900 C 0.11219 0.85992 0.85732 0.0
C1901 C 0.124 0.8816 0.869 0.0
C1902 C 0.10226 0.89313 0.87512 0.0
C1903 C 0.06865 0.88315 0.86967 0.0
C1904 C 0.05681 0.86182 0.85802 0.0
C1905 C 0.0785 0.85034 0.85182 0.0
H1906 H 0.05183 0.89202 0.87445 0.0
H1907 H 0.27534 0.7971 0.81448 0.0
loop_
_geom_bond_atom_site_label_1
_geom_bond_atom_site_label_2
_geom_bond_distance
_geom_bond_site_symmetry_2
_ccdc_geom_bond_type
Co0 O3 1.970 . S
Co0 N17 1.989 . S
Co0 O25 1.967 . S
Co0 O32 1.920 . S
Co1 O4 1.966 . S
Co1 N10 2.022 . S
Co1 N18 1.993 . S
Co1 O26 1.941 . S
C2 O3 1.258 . S
C2 O4 1.263 . S
O3 Co0 1.970 . S
O3 C2 1.258 . S
O4 Co1 1.966 . S
O4 C2 1.263 . S
C5 O6 1.235 . S
C5 O32 1.289 . S
O6 C5 1.235 . S
C7 C9 1.400 . S
C7 N10 1.351 . S
C7 C12 1.501 . S
C8 C9 1.387 . S
C8 N11 1.341 . S
C9 C7 1.400 . S
C9 C8 1.387 . S
N10 Co1 2.022 . S
N10 C7 1.351 . S
N10 N11 1.365 . S
N11 C8 1.341 . S
N11 N10 1.365 . S
N11 H31 0.862 . S
C12 C7 1.501 . S
C12 H13 0.961 . S
C12 H14 0.961 . S
C12 H15 0.960 . S
H13 C12 0.961 . S
H14 C12 0.961 . S
H15 C12 0.960 . S
C16 N17 1.342 . S
C16 C20 1.401 . S
C16 C21 1.499 . S
N17 Co0 1.989 . S
N17 C16 1.342 . S
N17 N18 1.388 . S
N18 Co1 1.993 . S
N18 N17 1.388 . S
N18 C19 1.346 . S
C19 N18 1.346 . S
C19 C20 1.396 . S
C19 C29 1.510 . S
C20 C16 1.401 . S
C20 C19 1.396 . S
C21 C16 1.499 . S
C21 H22 0.959 . S
C21 H23 0.960 . S
C21 H24 0.961 . S
H22 C21 0.959 . S
H23 C21 0.960 . S
H24 C21 0.961 . S
O25 Co0 1.967 . S
O25 C33 1.258 . S
O26 Co1 1.941 . S
O26 C33 1.266 . S
H27 C29 0.959 . S
H28 C29 0.961 . S
C29 C19 1.510 . S
C29 H27 0.959 . S
C29 H28 0.961 . S
C29 H30 0.960 . S
H30 C29 0.960 . S
H31 N11 0.862 . S
O32 Co0 1.920 . S
O32 C5 1.289 . S
C33 O25 1.258 . S
C33 O26 1.266 . S
Co34 O37 1.970 . S
Co34 N51 1.989 . S
Co34 O59 1.967 . S
Co34 O66 1.920 . S
Co35 O38 1.966 . S
Co35 N44 2.022 . S
Co35 N52 1.993 . S
Co35 O60 1.941 . S
C36 O37 1.258 . S
C36 O38 1.263 . S
O37 Co34 1.970 . S
O37 C36 1.258 . S
O38 Co35 1.966 . S
O38 C36 1.263 . S
C39 O40 1.235 . S
C39 O66 1.289 . S
O40 C39 1.235 . S
C41 C43 1.400 . S
C41 N44 1.351 . S
C41 C46 1.501 . S
C42 C43 1.387 . S
C42 N45 1.341 . S
C43 C41 1.400 . S
C43 C42 1.387 . S
N44 Co35 2.022 . S
N44 C41 1.351 . S
N44 N45 1.365 . S
N45 C42 1.341 . S
N45 N44 1.365 . S
N45 H65 0.862 . S
C46 C41 1.501 . S
C46 H47 0.961 . S
C46 H48 0.961 . S
C46 H49 0.960 . S
H47 C46 0.961 . S
H48 C46 0.961 . S
H49 C46 0.960 . S
C50 N51 1.342 . S
C50 C54 1.401 . S
C50 C55 1.499 . S
N51 Co34 1.989 . S
N51 C50 1.342 . S
N51 N52 1.388 . S
N52 Co35 1.993 . S
N52 N51 1.388 . S
N52 C53 1.346 . S
C53 N52 1.346 . S
C53 C54 1.396 . S
C53 C63 1.510 . S
C54 C50 1.401 . S
C54 C53 1.396 . S
C55 C50 1.499 . S
C55 H56 0.959 . S
C55 H57 0.960 . S
C55 H58 0.961 . S
H56 C55 0.959 . S
H57 C55 0.960 . S
H58 C55 0.961 . S
O59 Co34 1.967 . S
O59 C67 1.258 . S
O60 Co35 1.941 . S
O60 C67 1.266 . S
H61 C63 0.959 . S
H62 C63 0.961 . S
C63 C53 1.510 . S
C63 H61 0.959 . S
C63 H62 0.961 . S
C63 H64 0.960 . S
H64 C63 0.960 . S
H65 N45 0.862 . S
O66 Co34 1.920 . S
O66 C39 1.289 . S
C67 O59 1.258 . S
C67 O60 1.266 . S
Co68 O71 1.970 . S
Co68 N85 1.989 . S
Co68 O93 1.967 . S
Co68 O100 1.920 . S
Co69 O72 1.966 . S
Co69 N78 2.022 . S
Co69 N86 1.993 . S
Co69 O94 1.941 . S
C70 O71 1.258 . S
C70 O72 1.263 . S
O71 Co68 1.970 . S
O71 C70 1.258 . S
O72 Co69 1.966 . S
O72 C70 1.263 . S
C73 O74 1.235 . S
C73 O100 1.289 . S
O74 C73 1.235 . S
C75 C77 1.400 . S
C75 N78 1.351 . S
C75 C80 1.501 . S
C76 C77 1.387 . S
C76 N79 1.341 . S
C77 C75 1.400 . S
C77 C76 1.387 . S
N78 Co69 2.022 . S
N78 C75 1.351 . S
N78 N79 1.365 . S
N79 C76 1.341 . S
N79 N78 1.365 . S
N79 H99 0.862 . S
C80 C75 1.501 . S
C80 H81 0.961 . S
C80 H82 0.961 . S
C80 H83 0.960 . S
H81 C80 0.961 . S
H82 C80 0.961 . S
H83 C80 0.960 . S
C84 N85 1.342 . S
C84 C88 1.401 . S
C84 C89 1.499 . S
N85 Co68 1.989 . S
N85 C84 1.342 . S
N85 N86 1.388 . S
N86 Co69 1.993 . S
N86 N85 1.388 . S
N86 C87 1.346 . S
C87 N86 1.346 . S
C87 C88 1.396 . S
C87 C97 1.510 . S
C88 C84 1.401 . S
C88 C87 1.396 . S
C89 C84 1.499 . S
C89 H90 0.959 . S
C89 H91 0.960 . S
C89 H92 0.961 . S
H90 C89 0.959 . S
H91 C89 0.960 . S
H92 C89 0.961 . S
O93 Co68 1.967 . S
O93 C101 1.258 . S
O94 Co69 1.941 . S
O94 C101 1.266 . S
H95 C97 0.959 . S
H96 C97 0.961 . S
C97 C87 1.510 . S
C97 H95 0.959 . S
C97 H96 0.961 . S
C97 H98 0.960 . S
H98 C97 0.960 . S
H99 N79 0.862 . S
O100 Co68 1.920 . S
O100 C73 1.289 . S
C101 O93 1.258 . S
C101 O94 1.266 . S
Co102 O105 1.970 . S
Co102 N119 1.989 . S
Co102 O127 1.967 . S
Co102 O134 1.920 . S
Co103 O106 1.966 . S
Co103 N112 2.022 . S
Co103 N120 1.993 . S
Co103 O128 1.941 . S
C104 O105 1.258 . S
C104 O106 1.263 . S
O105 Co102 1.970 . S
O105 C104 1.258 . S
O106 Co103 1.966 . S
O106 C104 1.263 . S
C107 O108 1.235 . S
C107 O134 1.289 . S
O108 C107 1.235 . S
C109 C111 1.400 . S
C109 N112 1.351 . S
C109 C114 1.501 . S
C110 C111 1.387 . S
C110 N113 1.341 . S
C111 C109 1.400 . S
C111 C110 1.387 . S
N112 Co103 2.022 . S
N112 C109 1.351 . S
N112 N113 1.365 . S
N113 C110 1.341 . S
N113 N112 1.365 . S
N113 H133 0.862 . S
C114 C109 1.501 . S
C114 H115 0.961 . S
C114 H116 0.961 . S
C114 H117 0.960 . S
H115 C114 0.961 . S
H116 C114 0.961 . S
H117 C114 0.960 . S
C118 N119 1.342 . S
C118 C122 1.401 . S
C118 C123 1.499 . S
N119 Co102 1.989 . S
N119 C118 1.342 . S
N119 N120 1.388 . S
N120 Co103 1.993 . S
N120 N119 1.388 . S
N120 C121 1.346 . S
C121 N120 1.346 . S
C121 C122 1.396 . S
C121 C131 1.510 . S
C122 C118 1.401 . S
C122 C121 1.396 . S
C123 C118 1.499 . S
C123 H124 0.959 . S
C123 H125 0.960 . S
C123 H126 0.961 . S
H124 C123 0.959 . S
H125 C123 0.960 . S
H126 C123 0.961 . S
O127 Co102 1.967 . S
O127 C135 1.258 . S
O128 Co103 1.941 . S
O128 C135 1.266 . S
H129 C131 0.959 . S
H130 C131 0.961 . S
C131 C121 1.510 . S
C131 H129 0.959 . S
C131 H130 0.961 . S
C131 H132 0.960 . S
H132 C131 0.960 . S
H133 N113 0.862 . S
O134 Co102 1.920 . S
O134 C107 1.289 . S
C135 O127 1.258 . S
C135 O128 1.266 . S
Co136 O139 1.970 . S
Co136 N153 1.989 . S
Co136 O161 1.967 . S
Co136 O168 1.920 . S
Co137 O140 1.966 . S
Co137 N146 2.022 . S
Co137 N154 1.993 . S
Co137 O162 1.941 . S
C138 O139 1.258 . S
C138 O140 1.263 . S
O139 Co136 1.970 . S
O139 C138 1.258 . S
O140 Co137 1.966 . S
O140 C138 1.263 . S
C141 O142 1.235 . S
C141 O168 1.289 . S
O142 C141 1.235 . S
C143 C145 1.400 . S
C143 N146 1.351 . S
C143 C148 1.501 . S
C144 C145 1.387 . S
C144 N147 1.341 . S
C145 C143 1.400 . S
C145 C144 1.387 . S
N146 Co137 2.022 . S
N146 C143 1.351 . S
N146 N147 1.365 . S
N147 C144 1.341 . S
N147 N146 1.365 . S
N147 H167 0.862 . S
C148 C143 1.501 . S
C148 H149 0.961 . S
C148 H150 0.961 . S
C148 H151 0.960 . S
H149 C148 0.961 . S
H150 C148 0.961 . S
H151 C148 0.960 . S
C152 N153 1.342 . S
C152 C156 1.401 . S
C152 C157 1.499 . S
N153 Co136 1.989 . S
N153 C152 1.342 . S
N153 N154 1.388 . S
N154 Co137 1.993 . S
N154 N153 1.388 . S
N154 C155 1.346 . S
C155 N154 1.346 . S
C155 C156 1.396 . S
C155 C165 1.510 . S
C156 C152 1.401 . S
C156 C155 1.396 . S
C157 C152 1.499 . S
C157 H158 0.959 . S
C157 H159 0.960 . S
C157 H160 0.961 . S
H158 C157 0.959 . S
H159 C157 0.960 . S
H160 C157 0.961 . S
O161 Co136 1.967 . S
O161 C169 1.258 . S
O162 Co137 1.941 . S
O162 C169 1.266 . S
H163 C165 0.959 . S
H164 C165 0.961 . S
C165 C155 1.510 . S
C165 H163 0.959 . S
C165 H164 0.961 . S
C165 H166 0.960 . S
H166 C165 0.960 . S
H167 N147 0.862 . S
O168 Co136 1.920 . S
O168 C141 1.289 . S
C169 O161 1.258 . S
C169 O162 1.266 . S
Co170 O173 1.970 . S
Co170 N187 1.989 . S
Co170 O195 1.967 . S
Co170 O202 1.920 . S
Co171 O174 1.966 . S
Co171 N180 2.022 . S
Co171 N188 1.993 . S
Co171 O196 1.941 . S
C172 O173 1.258 . S
C172 O174 1.263 . S
O173 Co170 1.970 . S
O173 C172 1.258 . S
O174 Co171 1.966 . S
O174 C172 1.263 . S
C175 O176 1.235 . S
C175 O202 1.289 . S
O176 C175 1.235 . S
C177 C179 1.400 . S
C177 N180 1.351 . S
C177 C182 1.501 . S
C178 C179 1.387 . S
C178 N181 1.341 . S
C179 C177 1.400 . S
C179 C178 1.387 . S
N180 Co171 2.022 . S
N180 C177 1.351 . S
N180 N181 1.365 . S
N181 C178 1.341 . S
N181 N180 1.365 . S
N181 H201 0.862 . S
C182 C177 1.501 . S
C182 H183 0.961 . S
C182 H184 0.961 . S
C182 H185 0.960 . S
H183 C182 0.961 . S
H184 C182 0.961 . S
H185 C182 0.960 . S
C186 N187 1.342 . S
C186 C190 1.401 . S
C186 C191 1.499 . S
N187 Co170 1.989 . S
N187 C186 1.342 . S
N187 N188 1.388 . S
N188 Co171 1.993 . S
N188 N187 1.388 . S
N188 C189 1.346 . S
C189 N188 1.346 . S
C189 C190 1.396 . S
C189 C199 1.510 . S
C190 C186 1.401 . S
C190 C189 1.396 . S
C191 C186 1.499 . S
C191 H192 0.959 . S
C191 H193 0.960 . S
C191 H194 0.961 . S
H192 C191 0.959 . S
H193 C191 0.960 . S
H194 C191 0.961 . S
O195 Co170 1.967 . S
O195 C203 1.258 . S
O196 Co171 1.941 . S
O196 C203 1.266 . S
H197 C199 0.959 . S
H198 C199 0.961 . S
C199 C189 1.510 . S
C199 H197 0.959 . S
C199 H198 0.961 . S
C199 H200 0.960 . S
H200 C199 0.960 . S
H201 N181 0.862 . S
O202 Co170 1.920 . S
O202 C175 1.289 . S
C203 O195 1.258 . S
C203 O196 1.266 . S
Co204 O207 1.970 . S
Co204 N221 1.989 . S
Co204 O229 1.967 . S
Co204 O236 1.920 . S
Co205 O208 1.966 . S
Co205 N214 2.022 . S
Co205 N222 1.993 . S
Co205 O230 1.941 . S
C206 O207 1.258 . S
C206 O208 1.263 . S
O207 Co204 1.970 . S
O207 C206 1.258 . S
O208 Co205 1.966 . S
O208 C206 1.263 . S
C209 O210 1.235 . S
C209 O236 1.289 . S
O210 C209 1.235 . S
C211 C213 1.400 . S
C211 N214 1.351 . S
C211 C216 1.501 . S
C212 C213 1.387 . S
C212 N215 1.341 . S
C213 C211 1.400 . S
C213 C212 1.387 . S
N214 Co205 2.022 . S
N214 C211 1.351 . S
N214 N215 1.365 . S
N215 C212 1.341 . S
N215 N214 1.365 . S
N215 H235 0.862 . S
C216 C211 1.501 . S
C216 H217 0.961 . S
C216 H218 0.961 . S
C216 H219 0.960 . S
H217 C216 0.961 . S
H218 C216 0.961 . S
H219 C216 0.960 . S
C220 N221 1.342 . S
C220 C224 1.401 . S
C220 C225 1.499 . S
N221 Co204 1.989 . S
N221 C220 1.342 . S
N221 N222 1.388 . S
N222 Co205 1.993 . S
N222 N221 1.388 . S
N222 C223 1.346 . S
C223 N222 1.346 . S
C223 C224 1.396 . S
C223 C233 1.510 . S
C224 C220 1.401 . S
C224 C223 1.396 . S
C225 C220 1.499 . S
C225 H226 0.959 . S
C225 H227 0.960 . S
C225 H228 0.961 . S
H226 C225 0.959 . S
H227 C225 0.960 . S
H228 C225 0.961 . S
O229 Co204 1.967 . S
O229 C237 1.258 . S
O230 Co205 1.941 . S
O230 C237 1.266 . S
H231 C233 0.959 . S
H232 C233 0.961 . S
C233 C223 1.510 . S
C233 H231 0.959 . S
C233 H232 0.961 . S
C233 H234 0.960 . S
H234 C233 0.960 . S
H235 N215 0.862 . S
O236 Co204 1.920 . S
O236 C209 1.289 . S
C237 O229 1.258 . S
C237 O230 1.266 . S
Co238 O241 1.970 . S
Co238 N255 1.989 . S
Co238 O263 1.967 . S
Co238 O270 1.920 . S
Co239 O242 1.966 . S
Co239 N248 2.022 . S
Co239 N256 1.993 . S
Co239 O264 1.941 . S
C240 O241 1.258 . S
C240 O242 1.263 . S
O241 Co238 1.970 . S
O241 C240 1.258 . S
O242 Co239 1.966 . S
O242 C240 1.263 . S
C243 O244 1.235 . S
C243 O270 1.289 . S
O244 C243 1.235 . S
C245 C247 1.400 . S
C245 N248 1.351 . S
C245 C250 1.501 . S
C246 C247 1.387 . S
C246 N249 1.341 . S
C247 C245 1.400 . S
C247 C246 1.387 . S
N248 Co239 2.022 . S
N248 C245 1.351 . S
N248 N249 1.365 . S
N249 C246 1.341 . S
N249 N248 1.365 . S
N249 H269 0.862 . S
C250 C245 1.501 . S
C250 H251 0.961 . S
C250 H252 0.961 . S
C250 H253 0.960 . S
H251 C250 0.961 . S
H252 C250 0.961 . S
H253 C250 0.960 . S
C254 N255 1.342 . S
C254 C258 1.401 . S
C254 C259 1.499 . S
N255 Co238 1.989 . S
N255 C254 1.342 . S
N255 N256 1.388 . S
N256 Co239 1.993 . S
N256 N255 1.388 . S
N256 C257 1.346 . S
C257 N256 1.346 . S
C257 C258 1.396 . S
C257 C267 1.510 . S
C258 C254 1.401 . S
C258 C257 1.396 . S
C259 C254 1.499 . S
C259 H260 0.959 . S
C259 H261 0.960 . S
C259 H262 0.961 . S
H260 C259 0.959 . S
H261 C259 0.960 . S
H262 C259 0.961 . S
O263 Co238 1.967 . S
O263 C271 1.258 . S
O264 Co239 1.941 . S
O264 C271 1.266 . S
H265 C267 0.959 . S
H266 C267 0.961 . S
C267 C257 1.510 . S
C267 H265 0.959 . S
C267 H266 0.961 . S
C267 H268 0.960 . S
H268 C267 0.960 . S
H269 N249 0.862 . S
O270 Co238 1.920 . S
O270 C243 1.289 . S
C271 O263 1.258 . S
C271 O264 1.266 . S
Co272 O275 1.970 . S
Co272 N289 1.989 . S
Co272 O297 1.967 . S
Co272 O304 1.920 . S
Co273 O276 1.966 . S
Co273 N282 2.022 . S
Co273 N290 1.993 . S
Co273 O298 1.941 . S
C274 O275 1.258 . S
C274 O276 1.263 . S
O275 Co272 1.970 . S
O275 C274 1.258 . S
O276 Co273 1.966 . S
O276 C274 1.263 . S
C277 O278 1.235 . S
C277 O304 1.289 . S
O278 C277 1.235 . S
C279 C281 1.400 . S
C279 N282 1.351 . S
C279 C284 1.501 . S
C280 C281 1.387 . S
C280 N283 1.341 . S
C281 C279 1.400 . S
C281 C280 1.387 . S
N282 Co273 2.022 . S
N282 C279 1.351 . S
N282 N283 1.365 . S
N283 C280 1.341 . S
N283 N282 1.365 . S
N283 H303 0.862 . S
C284 C279 1.501 . S
C284 H285 0.961 . S
C284 H286 0.961 . S
C284 H287 0.960 . S
H285 C284 0.961 . S
H286 C284 0.961 . S
H287 C284 0.960 . S
C288 N289 1.342 . S
C288 C292 1.401 . S
C288 C293 1.499 . S
N289 Co272 1.989 . S
N289 C288 1.342 . S
N289 N290 1.388 . S
N290 Co273 1.993 . S
N290 N289 1.388 . S
N290 C291 1.346 . S
C291 N290 1.346 . S
C291 C292 1.396 . S
C291 C301 1.510 . S
C292 C288 1.401 . S
C292 C291 1.396 . S
C293 C288 1.499 . S
C293 H294 0.959 . S
C293 H295 0.960 . S
C293 H296 0.961 . S
H294 C293 0.959 . S
H295 C293 0.960 . S
H296 C293 0.961 . S
O297 Co272 1.967 . S
O297 C305 1.258 . S
O298 Co273 1.941 . S
O298 C305 1.266 . S
H299 C301 0.959 . S
H300 C301 0.961 . S
C301 C291 1.510 . S
C301 H299 0.959 . S
C301 H300 0.961 . S
C301 H302 0.960 . S
H302 C301 0.960 . S
H303 N283 0.862 . S
O304 Co272 1.920 . S
O304 C277 1.289 . S
C305 O297 1.258 . S
C305 O298 1.266 . S
Co306 O309 1.970 . S
Co306 N323 1.989 . S
Co306 O331 1.967 . S
Co306 O338 1.920 . S
Co307 O310 1.966 . S
Co307 N316 2.022 . S
Co307 N324 1.993 . S
Co307 O332 1.941 . S
C308 O309 1.258 . S
C308 O310 1.263 . S
O309 Co306 1.970 . S
O309 C308 1.258 . S
O310 Co307 1.966 . S
O310 C308 1.263 . S
C311 O312 1.235 . S
C311 O338 1.289 . S
O312 C311 1.235 . S
C313 C315 1.400 . S
C313 N316 1.351 . S
C313 C318 1.501 . S
C314 C315 1.387 . S
C314 N317 1.341 . S
C315 C313 1.400 . S
C315 C314 1.387 . S
N316 Co307 2.022 . S
N316 C313 1.351 . S
N316 N317 1.365 . S
N317 C314 1.341 . S
N317 N316 1.365 . S
N317 H337 0.862 . S
C318 C313 1.501 . S
C318 H319 0.961 . S
C318 H320 0.961 . S
C318 H321 0.960 . S
H319 C318 0.961 . S
H320 C318 0.961 . S
H321 C318 0.960 . S
C322 N323 1.342 . S
C322 C326 1.401 . S
C322 C327 1.499 . S
N323 Co306 1.989 . S
N323 C322 1.342 . S
N323 N324 1.388 . S
N324 Co307 1.993 . S
N324 N323 1.388 . S
N324 C325 1.346 . S
C325 N324 1.346 . S
C325 C326 1.396 . S
C325 C335 1.510 . S
C326 C322 1.401 . S
C326 C325 1.396 . S
C327 C322 1.499 . S
C327 H328 0.959 . S
C327 H329 0.960 . S
C327 H330 0.961 . S
H328 C327 0.959 . S
H329 C327 0.960 . S
H330 C327 0.961 . S
O331 Co306 1.967 . S
O331 C339 1.258 . S
O332 Co307 1.941 . S
O332 C339 1.266 . S
H333 C335 0.959 . S
H334 C335 0.961 . S
C335 C325 1.510 . S
C335 H333 0.959 . S
C335 H334 0.961 . S
C335 H336 0.960 . S
H336 C335 0.960 . S
H337 N317 0.862 . S
O338 Co306 1.920 . S
O338 C311 1.289 . S
C339 O331 1.258 . S
C339 O332 1.266 . S
Co340 O343 1.970 . S
Co340 N357 1.989 . S
Co340 O365 1.967 . S
Co340 O372 1.920 . S
Co341 O344 1.966 . S
Co341 N350 2.022 . S
Co341 N358 1.993 . S
Co341 O366 1.941 . S
C342 O343 1.258 . S
C342 O344 1.263 . S
O343 Co340 1.970 . S
O343 C342 1.258 . S
O344 Co341 1.966 . S
O344 C342 1.263 . S
C345 O346 1.235 . S
C345 O372 1.289 . S
O346 C345 1.235 . S
C347 C349 1.400 . S
C347 N350 1.351 . S
C347 C352 1.501 . S
C348 C349 1.387 . S
C348 N351 1.341 . S
C349 C347 1.400 . S
C349 C348 1.387 . S
N350 Co341 2.022 . S
N350 C347 1.351 . S
N350 N351 1.365 . S
N351 C348 1.341 . S
N351 N350 1.365 . S
N351 H371 0.862 . S
C352 C347 1.501 . S
C352 H353 0.961 . S
C352 H354 0.961 . S
C352 H355 0.960 . S
H353 C352 0.961 . S
H354 C352 0.961 . S
H355 C352 0.960 . S
C356 N357 1.342 . S
C356 C360 1.401 . S
C356 C361 1.499 . S
N357 Co340 1.989 . S
N357 C356 1.342 . S
N357 N358 1.388 . S
N358 Co341 1.993 . S
N358 N357 1.388 . S
N358 C359 1.346 . S
C359 N358 1.346 . S
C359 C360 1.396 . S
C359 C369 1.510 . S
C360 C356 1.401 . S
C360 C359 1.396 . S
C361 C356 1.499 . S
C361 H362 0.959 . S
C361 H363 0.960 . S
C361 H364 0.961 . S
H362 C361 0.959 . S
H363 C361 0.960 . S
H364 C361 0.961 . S
O365 Co340 1.967 . S
O365 C373 1.258 . S
O366 Co341 1.941 . S
O366 C373 1.266 . S
H367 C369 0.959 . S
H368 C369 0.961 . S
C369 C359 1.510 . S
C369 H367 0.959 . S
C369 H368 0.961 . S
C369 H370 0.960 . S
H370 C369 0.960 . S
H371 N351 0.862 . S
O372 Co340 1.920 . S
O372 C345 1.289 . S
C373 O365 1.258 . S
C373 O366 1.266 . S
Co374 O377 1.970 . S
Co374 N391 1.989 . S
Co374 O399 1.967 . S
Co374 O406 1.920 . S
Co375 O378 1.966 . S
Co375 N384 2.022 . S
Co375 N392 1.993 . S
Co375 O400 1.941 . S
C376 O377 1.258 . S
C376 O378 1.263 . S
O377 Co374 1.970 . S
O377 C376 1.258 . S
O378 Co375 1.966 . S
O378 C376 1.263 . S
C379 O380 1.235 . S
C379 O406 1.289 . S
O380 C379 1.235 . S
C381 C383 1.400 . S
C381 N384 1.351 . S
C381 C386 1.501 . S
C382 C383 1.387 . S
C382 N385 1.341 . S
C383 C381 1.400 . S
C383 C382 1.387 . S
N384 Co375 2.022 . S
N384 C381 1.351 . S
N384 N385 1.365 . S
N385 C382 1.341 . S
N385 N384 1.365 . S
N385 H405 0.862 . S
C386 C381 1.501 . S
C386 H387 0.961 . S
C386 H388 0.961 . S
C386 H389 0.960 . S
H387 C386 0.961 . S
H388 C386 0.961 . S
H389 C386 0.960 . S
C390 N391 1.342 . S
C390 C394 1.401 . S
C390 C395 1.499 . S
N391 Co374 1.989 . S
N391 C390 1.342 . S
N391 N392 1.388 . S
N392 Co375 1.993 . S
N392 N391 1.388 . S
N392 C393 1.346 . S
C393 N392 1.346 . S
C393 C394 1.396 . S
C393 C403 1.510 . S
C394 C390 1.401 . S
C394 C393 1.396 . S
C395 C390 1.499 . S
C395 H396 0.959 . S
C395 H397 0.960 . S
C395 H398 0.961 . S
H396 C395 0.959 . S
H397 C395 0.960 . S
H398 C395 0.961 . S
O399 Co374 1.967 . S
O399 C407 1.258 . S
O400 Co375 1.941 . S
O400 C407 1.266 . S
H401 C403 0.959 . S
H402 C403 0.961 . S
C403 C393 1.510 . S
C403 H401 0.959 . S
C403 H402 0.961 . S
C403 H404 0.960 . S
H404 C403 0.960 . S
H405 N385 0.862 . S
O406 Co374 1.920 . S
O406 C379 1.289 . S
C407 O399 1.258 . S
C407 O400 1.266 . S
H408 C426 0.951 . S
H409 C428 0.951 . S
H410 C430 0.950 . S
H411 C431 0.950 . S
H412 C433 0.950 . S
H413 C436 0.950 . S
H414 C437 0.950 . S
H415 C439 0.992 . S
H416 C440 0.950 . S
H417 C441 0.951 . S
H418 C443 0.951 . S
H419 C445 0.950 . S
H420 C446 0.950 . S
H421 C448 0.950 . S
H422 C451 0.950 . S
H423 C452 0.950 . S
H424 C454 0.950 . S
H425 C455 0.950 . S
C426 H408 0.951 . S
C426 C427 1.366 . S
C426 C428 1.388 . S
C427 C426 1.366 . S
C427 C431 1.385 . S
C428 H409 0.951 . S
C428 C426 1.388 . S
C428 C429 1.366 . S
C429 C428 1.366 . S
C429 C430 1.414 . S
C429 C432 1.499 . S
C430 H410 0.950 . S
C430 C429 1.414 . S
C430 C431 1.374 . S
C431 H411 0.950 . S
C431 C427 1.385 . S
C431 C430 1.374 . S
C432 C429 1.499 . S
C432 C433 1.373 . S
C432 C434 1.389 . S
C433 H412 0.950 . S
C433 C432 1.373 . S
C433 C449 1.377 . S
C434 C432 1.389 . S
C434 C435 1.524 . S
C434 C448 1.377 . S
C435 C434 1.524 . S
C435 C436 1.397 . S
C435 C440 1.363 . S
C436 H413 0.950 . S
C436 C435 1.397 . S
C436 C437 1.334 . S
C437 H414 0.950 . S
C437 C436 1.334 . S
C437 C438 1.287 . S
C438 C437 1.287 . S
C438 C439 1.524 . S
C438 H457 0.913 . S
C439 H415 0.992 . S
C439 C438 1.524 . S
C439 C440 1.415 . S
C440 H416 0.950 . S
C440 C435 1.363 . S
C440 C439 1.415 . S
C441 H417 0.951 . S
C441 C442 1.366 . S
C441 C443 1.388 . S
C442 C441 1.366 . S
C442 C446 1.385 . S
C443 H418 0.951 . S
C443 C441 1.388 . S
C443 C444 1.366 . S
C444 C443 1.366 . S
C444 C445 1.414 . S
C444 C447 1.499 . S
C445 H419 0.950 . S
C445 C444 1.414 . S
C445 C446 1.374 . S
C446 H420 0.950 . S
C446 C442 1.385 . S
C446 C445 1.374 . S
C447 C444 1.499 . S
C447 C448 1.373 . S
C447 C449 1.389 . S
C448 H421 0.950 . S
C448 C434 1.377 . S
C448 C447 1.373 . S
C449 C433 1.377 . S
C449 C447 1.389 . S
C449 C450 1.524 . S
C450 C449 1.524 . S
C450 C451 1.397 . S
C450 C455 1.363 . S
C451 H422 0.950 . S
C451 C450 1.397 . S
C451 C452 1.334 . S
C452 H423 0.950 . S
C452 C451 1.334 . S
C452 C453 1.287 . S
C453 C452 1.287 . S
C453 C454 1.524 . S
C453 H456 0.999 . S
C454 H424 0.950 . S
C454 C453 1.524 . S
C454 C455 1.415 . S
C455 H425 0.950 . S
C455 C450 1.363 . S
C455 C454 1.415 . S
H456 C453 0.999 . S
H457 C438 0.913 . S
H458 C476 0.951 . S
H459 C478 0.951 . S
H460 C480 0.950 1_655 S
H461 C481 0.950 . S
H462 C483 0.950 . S
H463 C486 0.950 . S
H464 C487 0.950 . S
H465 C489 0.950 . S
H466 C490 0.950 . S
H467 C491 0.951 . S
H468 C493 0.951 . S
H469 C495 0.950 1_455 S
H470 C496 0.950 . S
H471 C498 0.950 . S
H472 C501 0.950 . S
H473 C502 0.950 . S
H474 C504 0.950 . S
H475 C505 0.950 . S
C476 H458 0.951 . S
C476 C477 1.366 . S
C476 C478 1.388 . S
C477 C476 1.366 . S
C477 C481 1.385 . S
C478 H459 0.951 . S
C478 C476 1.388 . S
C478 C479 1.366 . S
C479 C478 1.366 . S
C479 C480 1.414 . S
C479 C482 1.499 . S
C480 H460 0.950 1_455 S
C480 C479 1.414 . S
C480 C481 1.374 . S
C481 H461 0.950 . S
C481 C477 1.385 . S
C481 C480 1.374 . S
C482 C479 1.499 . S
C482 C483 1.373 1_455 S
C482 C484 1.389 . S
C483 H462 0.950 . S
C483 C482 1.373 1_655 S
C483 C499 1.377 . S
C484 C482 1.389 . S
C484 C485 1.524 . S
C484 C498 1.377 . S
C485 C484 1.524 . S
C485 C486 1.397 . S
C485 C490 1.363 . S
C486 H463 0.950 . S
C486 C485 1.397 . S
C486 C487 1.334 . S
C487 H464 0.950 . S
C487 C486 1.334 . S
C487 C488 1.287 . S
C488 C487 1.287 . S
C488 C489 1.524 . S
C488 H507 0.913 . S
C489 H465 0.950 . S
C489 C488 1.524 . S
C489 C490 1.415 . S
C490 H466 0.950 . S
C490 C485 1.363 . S
C490 C489 1.415 . S
C491 H467 0.951 . S
C491 C492 1.366 . S
C491 C493 1.388 . S
C492 C491 1.366 . S
C492 C496 1.385 . S
C493 H468 0.951 . S
C493 C491 1.388 . S
C493 C494 1.366 . S
C494 C493 1.366 . S
C494 C495 1.414 . S
C494 C497 1.499 . S
C495 H469 0.950 1_655 S
C495 C494 1.414 . S
C495 C496 1.374 . S
C496 H470 0.950 . S
C496 C492 1.385 . S
C496 C495 1.374 . S
C497 C494 1.499 . S
C497 C498 1.373 1_655 S
C497 C499 1.389 . S
C498 H471 0.950 . S
C498 C484 1.377 . S
C498 C497 1.373 1_455 S
C499 C483 1.377 . S
C499 C497 1.389 . S
C499 C500 1.524 . S
C500 C499 1.524 . S
C500 C501 1.397 . S
C500 C505 1.363 . S
C501 H472 0.950 . S
C501 C500 1.397 . S
C501 C502 1.334 . S
C502 H473 0.950 . S
C502 C501 1.334 . S
C502 C503 1.287 . S
C503 C502 1.287 . S
C503 C504 1.524 . S
C503 H506 0.999 . S
C504 H474 0.950 . S
C504 C503 1.524 . S
C504 C505 1.415 . S
C505 H475 0.950 . S
C505 C500 1.363 . S
C505 C504 1.415 . S
H506 C503 0.999 . S
H507 C488 0.913 . S
H508 C526 0.951 . S
H509 C528 0.951 1_565 S
H510 C530 0.950 . S
H511 C531 0.950 . S
H512 C533 0.950 . S
H513 C536 0.950 . S
H514 C537 0.950 . S
H515 C539 0.950 . S
H516 C540 0.950 . S
H517 C541 0.951 . S
H518 C543 0.951 1_545 S
H519 C545 0.950 . S
H520 C546 0.950 . S
H521 C548 0.950 . S
H522 C551 0.950 . S
H523 C552 0.950 . S
H524 C554 0.950 . S
H525 C555 0.950 . S
C526 H508 0.951 . S
C526 C527 1.366 . S
C526 C528 1.388 . S
C527 C526 1.366 . S
C527 C531 1.385 . S
C528 H509 0.951 1_545 S
C528 C526 1.388 . S
C528 C529 1.366 . S
C529 C528 1.366 . S
C529 C530 1.414 . S
C529 C532 1.499 . S
C530 H510 0.950 . S
C530 C529 1.414 . S
C530 C531 1.374 . S
C531 H511 0.950 . S
C531 C527 1.385 . S
C531 C530 1.374 . S
C532 C529 1.499 . S
C532 C533 1.373 . S
C532 C534 1.389 1_545 S
C533 H512 0.950 . S
C533 C532 1.373 . S
C533 C549 1.377 . S
C534 C532 1.389 1_565 S
C534 C535 1.524 . S
C534 C548 1.377 . S
C535 C534 1.524 . S
C535 C536 1.397 1_565 S
C535 C540 1.363 . S
C536 H513 0.950 . S
C536 C535 1.397 1_545 S
C536 C537 1.334 . S
C537 H514 0.950 . S
C537 C536 1.334 . S
C537 C538 1.287 1_545 S
C538 C537 1.287 1_565 S
C538 C539 1.524 . S
C538 H557 0.913 . S
C539 H515 0.950 . S
C539 C538 1.524 . S
C539 C540 1.415 . S
C540 H516 0.950 . S
C540 C535 1.363 . S
C540 C539 1.415 . S
C541 H517 0.951 . S
C541 C542 1.366 . S
C541 C543 1.388 . S
C542 C541 1.366 . S
C542 C546 1.385 . S
C543 H518 0.951 1_565 S
C543 C541 1.388 . S
C543 C544 1.366 . S
C544 C543 1.366 . S
C544 C545 1.414 . S
C544 C547 1.499 . S
C545 H519 0.950 . S
C545 C544 1.414 . S
C545 C546 1.374 . S
C546 H520 0.950 . S
C546 C542 1.385 . S
C546 C545 1.374 . S
C547 C544 1.499 . S
C547 C548 1.373 . S
C547 C549 1.389 1_565 S
C548 H521 0.950 . S
C548 C534 1.377 . S
C548 C547 1.373 . S
C549 C533 1.377 . S
C549 C547 1.389 1_545 S
C549 C550 1.524 . S
C550 C549 1.524 . S
C550 C551 1.397 1_545 S
C550 C555 1.363 . S
C551 H522 0.950 . S
C551 C550 1.397 1_565 S
C551 C552 1.334 . S
C552 H523 0.950 . S
C552 C551 1.334 . S
C552 C553 1.287 1_565 S
C553 C552 1.287 1_545 S
C553 C554 1.524 . S
C553 H556 0.999 . S
C554 H524 0.950 . S
C554 C553 1.524 . S
C554 C555 1.415 . S
C555 H525 0.950 . S
C555 C550 1.363 . S
C555 C554 1.415 . S
H556 C553 0.999 . S
H557 C538 0.913 . S
H558 C576 0.951 . S
H559 C578 0.951 . S
H560 C580 0.950 . S
H561 C581 0.950 . S
H562 C583 0.950 . S
H563 C586 0.950 . S
H564 C587 0.950 . S
H565 C589 0.950 . S
H566 C590 0.950 . S
H567 C591 0.951 . S
H568 C593 0.951 . S
H569 C595 0.950 . S
H570 C596 0.950 . S
H571 C598 0.950 . S
H572 C601 0.950 . S
H573 C602 0.950 . S
H574 C604 0.950 . S
H575 C605 0.950 . S
C576 H558 0.951 . S
C576 C577 1.366 . S
C576 C578 1.388 . S
C577 C576 1.366 . S
C577 C581 1.385 . S
C578 H559 0.951 . S
C578 C576 1.388 . S
C578 C579 1.366 . S
C579 C578 1.366 . S
C579 C580 1.414 . S
C579 C582 1.499 . S
C580 H560 0.950 . S
C580 C579 1.414 . S
C580 C581 1.374 . S
C581 H561 0.950 . S
C581 C577 1.385 . S
C581 C580 1.374 . S
C582 C579 1.499 . S
C582 C583 1.373 . S
C582 C584 1.389 . S
C583 H562 0.950 . S
C583 C582 1.373 . S
C583 C599 1.377 . S
C584 C582 1.389 . S
C584 C585 1.524 . S
C584 C598 1.377 . S
C585 C584 1.524 . S
C585 C586 1.397 . S
C585 C590 1.363 . S
C586 H563 0.950 . S
C586 C585 1.397 . S
C586 C587 1.334 . S
C587 H564 0.950 . S
C587 C586 1.334 . S
C587 C588 1.287 . S
C588 C587 1.287 . S
C588 C589 1.524 . S
C588 H607 0.913 . S
C589 H565 0.950 . S
C589 C588 1.524 . S
C589 C590 1.415 . S
C590 H566 0.950 . S
C590 C585 1.363 . S
C590 C589 1.415 . S
C591 H567 0.951 . S
C591 C592 1.366 . S
C591 C593 1.388 . S
C592 C591 1.366 . S
C592 C596 1.385 . S
C593 H568 0.951 . S
C593 C591 1.388 . S
C593 C594 1.366 . S
C594 C593 1.366 . S
C594 C595 1.414 . S
C594 C597 1.499 . S
C595 H569 0.950 . S
C595 C594 1.414 . S
C595 C596 1.374 . S
C596 H570 0.950 . S
C596 C592 1.385 . S
C596 C595 1.374 . S
C597 C594 1.499 . S
C597 C598 1.373 . S
C597 C599 1.389 . S
C598 H571 0.950 . S
C598 C584 1.377 . S
C598 C597 1.373 . S
C599 C583 1.377 . S
C599 C597 1.389 . S
C599 C600 1.524 . S
C600 C599 1.524 . S
C600 C601 1.397 . S
C600 C605 1.363 . S
C601 H572 0.950 . S
C601 C600 1.397 . S
C601 C602 1.334 . S
C602 H573 0.950 . S
C602 C601 1.334 . S
C602 C603 1.287 . S
C603 C602 1.287 . S
C603 C604 1.524 . S
C603 H606 0.999 . S
C604 H574 0.950 . S
C604 C603 1.524 . S
C604 C605 1.415 . S
C605 H575 0.950 . S
C605 C600 1.363 . S
C605 C604 1.415 . S
H606 C603 0.999 . S
H607 C588 0.913 . S
H608 C626 0.951 . S
H609 C628 0.951 . S
H610 C630 0.950 . S
H611 C631 0.950 . S
H612 C633 0.950 . S
H613 C636 0.950 . S
H614 C637 0.950 . S
H615 C639 0.950 . S
H616 C640 0.950 . S
H617 C641 0.951 . S
H618 C643 0.951 . S
H619 C645 0.950 . S
H620 C646 0.950 . S
H621 C648 0.950 . S
H622 C651 0.950 . S
H623 C652 0.950 . S
H624 C654 0.950 . S
H625 C655 0.950 . S
C626 H608 0.951 . S
C626 C627 1.366 . S
C626 C628 1.388 . S
C627 C626 1.366 . S
C627 C631 1.385 . S
C628 H609 0.951 . S
C628 C626 1.388 . S
C628 C629 1.366 . S
C629 C628 1.366 . S
C629 C630 1.414 . S
C629 C632 1.499 . S
C630 H610 0.950 . S
C630 C629 1.414 . S
C630 C631 1.374 . S
C631 H611 0.950 . S
C631 C627 1.385 . S
C631 C630 1.374 . S
C632 C629 1.499 . S
C632 C633 1.373 . S
C632 C634 1.389 1_655 S
C633 H612 0.950 . S
C633 C632 1.373 . S
C633 C649 1.377 . S
C634 C632 1.389 1_455 S
C634 C635 1.524 . S
C634 C648 1.377 . S
C635 C634 1.524 . S
C635 C636 1.397 . S
C635 C640 1.363 . S
C636 H613 0.950 . S
C636 C635 1.397 . S
C636 C637 1.334 . S
C637 H614 0.950 . S
C637 C636 1.334 . S
C637 C638 1.287 . S
C638 C637 1.287 . S
C638 C639 1.524 . S
C638 H657 0.913 . S
C639 H615 0.950 . S
C639 C638 1.524 . S
C639 C640 1.415 . S
C640 H616 0.950 . S
C640 C635 1.363 . S
C640 C639 1.415 . S
C641 H617 0.951 . S
C641 C642 1.366 . S
C641 C643 1.388 . S
C642 C641 1.366 . S
C642 C646 1.385 . S
C643 H618 0.951 . S
C643 C641 1.388 . S
C643 C644 1.366 . S
C644 C643 1.366 . S
C644 C645 1.414 . S
C644 C647 1.499 . S
C645 H619 0.950 . S
C645 C644 1.414 . S
C645 C646 1.374 . S
C646 H620 0.950 . S
C646 C642 1.385 . S
C646 C645 1.374 . S
C647 C644 1.499 . S
C647 C648 1.373 . S
C647 C649 1.389 1_455 S
C648 H621 0.950 . S
C648 C634 1.377 . S
C648 C647 1.373 . S
C649 C633 1.377 . S
C649 C647 1.389 1_655 S
C649 C650 1.524 . S
C650 C649 1.524 . S
C650 C651 1.397 . S
C650 C655 1.363 . S
C651 H622 0.950 . S
C651 C650 1.397 . S
C651 C652 1.334 . S
C652 H623 0.950 . S
C652 C651 1.334 . S
C652 C653 1.287 . S
C653 C652 1.287 . S
C653 C654 1.524 . S
C653 H656 0.999 . S
C654 H624 0.950 . S
C654 C653 1.524 . S
C654 C655 1.415 . S
C655 H625 0.950 . S
C655 C650 1.363 . S
C655 C654 1.415 . S
H656 C653 0.999 . S
H657 C638 0.913 . S
H658 C676 0.951 . S
H659 C678 0.951 1_545 S
H660 C680 0.950 . S
H661 C681 0.950 . S
H662 C683 0.950 . S
H663 C686 0.956 . S
H664 C687 0.950 1_565 S
H665 C689 0.950 . S
H666 C690 0.950 . S
H667 C691 0.951 . S
H668 C693 0.951 1_565 S
H669 C695 0.950 . S
H670 C696 0.950 . S
H671 C698 0.950 . S
H672 C701 0.956 . S
H673 C702 0.950 1_545 S
H674 C704 0.950 . S
H675 C705 0.950 . S
C676 H658 0.951 . S
C676 C677 1.366 . S
C676 C678 1.388 . S
C677 C676 1.366 . S
C677 C681 1.385 . S
C678 H659 0.951 1_565 S
C678 C676 1.388 . S
C678 C679 1.366 . S
C679 C678 1.366 . S
C679 C680 1.414 . S
C679 C682 1.499 . S
C680 H660 0.950 . S
C680 C679 1.414 . S
C680 C681 1.374 . S
C681 H661 0.950 . S
C681 C677 1.385 . S
C681 C680 1.374 . S
C682 C679 1.499 . S
C682 C683 1.373 . S
C682 C684 1.389 1_565 S
C683 H662 0.950 . S
C683 C682 1.373 . S
C683 C699 1.377 . S
C684 C682 1.389 1_545 S
C684 C685 1.524 . S
C684 C698 1.377 . S
C685 C684 1.524 . S
C685 C686 1.390 1_545 S
C685 C690 1.363 . S
C686 H663 0.956 . S
C686 C685 1.390 1_565 S
C686 C687 1.335 1_565 S
C687 H664 0.950 1_545 S
C687 C686 1.335 1_545 S
C687 C688 1.287 . S
C688 C687 1.287 . S
C688 C689 1.524 . S
C688 H707 0.913 . S
C689 H665 0.950 . S
C689 C688 1.524 . S
C689 C690 1.415 . S
C690 H666 0.950 . S
C690 C685 1.363 . S
C690 C689 1.415 . S
C691 H667 0.951 . S
C691 C692 1.366 . S
C691 C693 1.388 . S
C692 C691 1.366 . S
C692 C696 1.385 . S
C693 H668 0.951 1_545 S
C693 C691 1.388 . S
C693 C694 1.366 . S
C694 C693 1.366 . S
C694 C695 1.414 . S
C694 C697 1.499 . S
C695 H669 0.950 . S
C695 C694 1.414 . S
C695 C696 1.374 . S
C696 H670 0.950 . S
C696 C692 1.385 . S
C696 C695 1.374 . S
C697 C694 1.499 . S
C697 C698 1.373 . S
C697 C699 1.389 1_545 S
C698 H671 0.950 . S
C698 C684 1.377 . S
C698 C697 1.373 . S
C699 C683 1.377 . S
C699 C697 1.389 1_565 S
C699 C700 1.524 . S
C700 C699 1.524 . S
C700 C701 1.390 1_565 S
C700 C705 1.363 . S
C701 H672 0.956 . S
C701 C700 1.390 1_545 S
C701 C702 1.335 1_545 S
C702 H673 0.950 1_565 S
C702 C701 1.335 1_565 S
C702 C703 1.287 . S
C703 C702 1.287 . S
C703 C704 1.524 . S
C703 H706 0.999 . S
C704 H674 0.950 . S
C704 C703 1.524 . S
C704 C705 1.415 . S
C705 H675 0.950 . S
C705 C700 1.363 . S
C705 C704 1.415 . S
H706 C703 0.999 . S
H707 C688 0.913 . S
H708 C726 0.951 . S
H709 C728 0.951 . S
H710 C730 0.950 . S
H711 C731 0.950 . S
H712 C733 0.950 . S
H713 C736 0.924 1_565 S
H714 C737 0.950 . S
H715 C739 0.950 . S
H716 C740 0.950 . S
H717 C741 0.951 . S
H718 C743 0.951 . S
H719 C745 0.950 . S
H720 C746 0.950 . S
H721 C748 0.950 . S
H722 C751 0.924 1_545 S
H723 C752 0.950 . S
H724 C754 0.950 . S
H725 C755 0.950 . S
C726 H708 0.951 . S
C726 C727 1.366 . S
C726 C728 1.388 . S
C727 C726 1.366 . S
C727 C731 1.385 . S
C728 H709 0.951 . S
C728 C726 1.388 . S
C728 C729 1.366 . S
C729 C728 1.366 . S
C729 C730 1.414 . S
C729 C732 1.499 . S
C730 H710 0.950 . S
C730 C729 1.414 . S
C730 C731 1.374 . S
C731 H711 0.950 . S
C731 C727 1.385 . S
C731 C730 1.374 . S
C732 C729 1.499 . S
C732 C733 1.373 1_556 S
C732 C734 1.389 1_565 S
C733 H712 0.950 . S
C733 C732 1.373 1_554 S
C733 C749 1.377 . S
C734 C732 1.389 1_545 S
C734 C735 1.524 . S
C734 C748 1.377 . S
C735 C734 1.524 . S
C735 C736 1.397 . S
C735 C740 1.363 . S
C736 H713 0.924 1_545 S
C736 C735 1.397 . S
C736 C737 1.334 . S
C737 H714 0.950 . S
C737 C736 1.334 . S
C737 C738 1.287 . S
C738 C737 1.287 . S
C738 C739 1.524 . S
C738 H757 0.913 . S
C739 H715 0.950 . S
C739 C738 1.524 . S
C739 C740 1.415 . S
C740 H716 0.950 . S
C740 C735 1.363 . S
C740 C739 1.415 . S
C741 H717 0.951 . S
C741 C742 1.366 . S
C741 C743 1.388 . S
C742 C741 1.366 . S
C742 C746 1.385 . S
C743 H718 0.951 . S
C743 C741 1.388 . S
C743 C744 1.366 . S
C744 C743 1.366 . S
C744 C745 1.414 . S
C744 C747 1.499 . S
C745 H719 0.950 . S
C745 C744 1.414 . S
C745 C746 1.374 . S
C746 H720 0.950 . S
C746 C742 1.385 . S
C746 C745 1.374 . S
C747 C744 1.499 . S
C747 C748 1.373 1_554 S
C747 C749 1.389 1_545 S
C748 H721 0.950 . S
C748 C734 1.377 . S
C748 C747 1.373 1_556 S
C749 C733 1.377 . S
C749 C747 1.389 1_565 S
C749 C750 1.524 . S
C750 C749 1.524 . S
C750 C751 1.397 . S
C750 C755 1.363 . S
C751 H722 0.924 1_565 S
C751 C750 1.397 . S
C751 C752 1.334 . S
C752 H723 0.950 . S
C752 C751 1.334 . S
C752 C753 1.287 . S
C753 C752 1.287 . S
C753 C754 1.524 . S
C753 H756 0.999 . S
C754 H724 0.950 . S
C754 C753 1.524 . S
C754 C755 1.415 . S
C755 H725 0.950 . S
C755 C750 1.363 . S
C755 C754 1.415 . S
H756 C753 0.999 . S
H757 C738 0.913 . S
H758 C776 0.951 . S
H759 C778 0.951 . S
H760 C780 0.950 . S
H761 C781 0.950 . S
H762 C783 0.950 . S
H763 C786 0.950 . S
H764 C787 0.950 . S
H765 C789 0.950 . S
H766 C790 0.950 . S
H767 C791 0.951 . S
H768 C793 0.951 . S
H769 C795 0.950 . S
H770 C796 0.950 . S
H771 C798 0.950 . S
H772 C801 0.950 . S
H773 C802 0.950 . S
H774 C804 0.950 . S
H775 C805 0.950 . S
C776 H758 0.951 . S
C776 C777 1.366 . S
C776 C778 1.388 . S
C777 C776 1.366 . S
C777 C781 1.385 . S
C778 H759 0.951 . S
C778 C776 1.388 . S
C778 C779 1.366 . S
C779 C778 1.366 . S
C779 C780 1.414 . S
C779 C782 1.499 . S
C780 H760 0.950 . S
C780 C779 1.414 . S
C780 C781 1.374 . S
C781 H761 0.950 . S
C781 C777 1.385 . S
C781 C780 1.374 . S
C782 C779 1.499 . S
C782 C783 1.373 . S
C782 C784 1.389 . S
C783 H762 0.950 . S
C783 C782 1.373 . S
C783 C799 1.377 . S
C784 C782 1.389 . S
C784 C785 1.524 . S
C784 C798 1.377 . S
C785 C784 1.524 . S
C785 C786 1.397 . S
C785 C790 1.363 . S
C786 H763 0.950 . S
C786 C785 1.397 . S
C786 C787 1.334 . S
C787 H764 0.950 . S
C787 C786 1.334 . S
C787 C788 1.287 . S
C788 C787 1.287 . S
C788 C789 1.524 . S
C788 H807 0.913 . S
C789 H765 0.950 . S
C789 C788 1.524 . S
C789 C790 1.415 . S
C790 H766 0.950 . S
C790 C785 1.363 . S
C790 C789 1.415 . S
C791 H767 0.951 . S
C791 C792 1.366 . S
C791 C793 1.388 . S
C792 C791 1.366 . S
C792 C796 1.385 . S
C793 H768 0.951 . S
C793 C791 1.388 . S
C793 C794 1.366 . S
C794 C793 1.366 . S
C794 C795 1.414 . S
C794 C797 1.499 . S
C795 H769 0.950 . S
C795 C794 1.414 . S
C795 C796 1.374 . S
C796 H770 0.950 . S
C796 C792 1.385 . S
C796 C795 1.374 . S
C797 C794 1.499 . S
C797 C798 1.373 . S
C797 C799 1.389 . S
C798 H771 0.950 . S
C798 C784 1.377 . S
C798 C797 1.373 . S
C799 C783 1.377 . S
C799 C797 1.389 . S
C799 C800 1.524 . S
C800 C799 1.524 . S
C800 C801 1.397 . S
C800 C805 1.363 . S
C801 H772 0.950 . S
C801 C800 1.397 . S
C801 C802 1.334 . S
C802 H773 0.950 . S
C802 C801 1.334 . S
C802 C803 1.287 . S
C803 C802 1.287 . S
C803 C804 1.524 . S
C803 H806 0.999 . S
C804 H774 0.950 . S
C804 C803 1.524 . S
C804 C805 1.415 . S
C805 H775 0.950 . S
C805 C800 1.363 . S
C805 C804 1.415 . S
H806 C803 0.999 . S
H807 C788 0.913 . S
H808 C826 0.951 . S
H809 C828 0.951 . S
H810 C830 0.950 . S
H811 C831 0.950 . S
H812 C833 0.950 . S
H813 C836 0.950 . S
H814 C837 0.950 . S
H815 C839 0.950 . S
H816 C840 0.950 . S
H817 C841 0.951 . S
H818 C843 0.951 . S
H819 C845 0.950 . S
H820 C846 0.950 . S
H821 C848 0.950 . S
H822 C851 0.950 . S
H823 C852 0.950 . S
H824 C854 0.950 . S
H825 C855 0.950 . S
C826 H808 0.951 . S
C826 C827 1.366 . S
C826 C828 1.388 . S
C827 C826 1.366 . S
C827 C831 1.385 . S
C828 H809 0.951 . S
C828 C826 1.388 . S
C828 C829 1.366 . S
C829 C828 1.366 . S
C829 C830 1.414 . S
C829 C832 1.499 . S
C830 H810 0.950 . S
C830 C829 1.414 . S
C830 C831 1.374 . S
C831 H811 0.950 . S
C831 C827 1.385 . S
C831 C830 1.374 . S
C832 C829 1.499 . S
C832 C833 1.373 . S
C832 C834 1.389 . S
C833 H812 0.950 . S
C833 C832 1.373 . S
C833 C849 1.377 1_455 S
C834 C832 1.389 . S
C834 C835 1.524 . S
C834 C848 1.377 1_455 S
C835 C834 1.524 . S
C835 C836 1.397 . S
C835 C840 1.363 . S
C836 H813 0.950 . S
C836 C835 1.397 . S
C836 C837 1.334 . S
C837 H814 0.950 . S
C837 C836 1.334 . S
C837 C838 1.287 . S
C838 C837 1.287 . S
C838 C839 1.524 . S
C838 H857 0.913 . S
C839 H815 0.950 . S
C839 C838 1.524 . S
C839 C840 1.415 . S
C840 H816 0.950 . S
C840 C835 1.363 . S
C840 C839 1.415 . S
C841 H817 0.951 . S
C841 C842 1.366 . S
C841 C843 1.388 . S
C842 C841 1.366 . S
C842 C846 1.385 . S
C843 H818 0.951 . S
C843 C841 1.388 . S
C843 C844 1.366 . S
C844 C843 1.366 . S
C844 C845 1.414 . S
C844 C847 1.499 . S
C845 H819 0.950 . S
C845 C844 1.414 . S
C845 C846 1.374 . S
C846 H820 0.950 . S
C846 C842 1.385 . S
C846 C845 1.374 . S
C847 C844 1.499 . S
C847 C848 1.373 . S
C847 C849 1.389 . S
C848 H821 0.950 . S
C848 C834 1.377 1_655 S
C848 C847 1.373 . S
C849 C833 1.377 1_655 S
C849 C847 1.389 . S
C849 C850 1.524 . S
C850 C849 1.524 . S
C850 C851 1.397 . S
C850 C855 1.363 . S
C851 H822 0.950 . S
C851 C850 1.397 . S
C851 C852 1.334 . S
C852 H823 0.950 . S
C852 C851 1.334 . S
C852 C853 1.287 . S
C853 C852 1.287 . S
C853 C854 1.524 . S
C853 H856 0.999 . S
C854 H824 0.950 . S
C854 C853 1.524 . S
C854 C855 1.415 . S
C855 H825 0.950 . S
C855 C850 1.363 . S
C855 C854 1.415 . S
H856 C853 0.999 . S
H857 C838 0.913 . S
H858 C876 0.951 . S
H859 C878 0.951 . S
H860 C880 0.950 . S
H861 C881 0.950 . S
H862 C883 0.950 . S
H863 C886 0.950 . S
H864 C887 0.950 . S
H865 C889 0.950 . S
H866 C890 0.950 1_556 S
H867 C891 0.951 . S
H868 C893 0.951 . S
H869 C895 0.950 . S
H870 C896 0.950 . S
H871 C898 0.950 . S
H872 C901 0.950 . S
H873 C902 0.950 . S
H874 C904 0.950 . S
H875 C905 0.950 1_554 S
C876 H858 0.951 . S
C876 C877 1.366 . S
C876 C878 1.388 . S
C877 C876 1.366 . S
C877 C881 1.385 . S
C878 H859 0.951 . S
C878 C876 1.388 . S
C878 C879 1.366 . S
C879 C878 1.366 . S
C879 C880 1.414 . S
C879 C882 1.499 . S
C880 H860 0.950 . S
C880 C879 1.414 . S
C880 C881 1.374 . S
C881 H861 0.950 . S
C881 C877 1.385 . S
C881 C880 1.374 . S
C882 C879 1.499 . S
C882 C883 1.373 . S
C882 C884 1.389 . S
C883 H862 0.950 . S
C883 C882 1.373 . S
C883 C899 1.377 1_564 S
C884 C882 1.389 . S
C884 C885 1.524 . S
C884 C898 1.377 1_564 S
C885 C884 1.524 . S
C885 C886 1.397 . S
C885 C890 1.363 . S
C886 H863 0.950 . S
C886 C885 1.397 . S
C886 C887 1.334 . S
C887 H864 0.950 . S
C887 C886 1.334 . S
C887 C888 1.287 . S
C888 C887 1.287 . S
C888 C889 1.524 . S
C888 H907 0.913 . S
C889 H865 0.950 . S
C889 C888 1.524 . S
C889 C890 1.415 . S
C890 H866 0.950 1_554 S
C890 C885 1.363 . S
C890 C889 1.415 . S
C891 H867 0.951 . S
C891 C892 1.366 . S
C891 C893 1.388 . S
C892 C891 1.366 . S
C892 C896 1.385 . S
C893 H868 0.951 . S
C893 C891 1.388 . S
C893 C894 1.366 . S
C894 C893 1.366 . S
C894 C895 1.414 . S
C894 C897 1.499 . S
C895 H869 0.950 . S
C895 C894 1.414 . S
C895 C896 1.374 . S
C896 H870 0.950 . S
C896 C892 1.385 . S
C896 C895 1.374 . S
C897 C894 1.499 . S
C897 C898 1.373 . S
C897 C899 1.389 . S
C898 H871 0.950 . S
C898 C884 1.377 1_546 S
C898 C897 1.373 . S
C899 C883 1.377 1_546 S
C899 C897 1.389 . S
C899 C900 1.524 . S
C900 C899 1.524 . S
C900 C901 1.397 . S
C900 C905 1.363 . S
C901 H872 0.950 . S
C901 C900 1.397 . S
C901 C902 1.334 . S
C902 H873 0.950 . S
C902 C901 1.334 . S
C902 C903 1.287 . S
C903 C902 1.287 . S
C903 C904 1.524 . S
C903 H906 0.999 . S
C904 H874 0.950 . S
C904 C903 1.524 . S
C904 C905 1.415 . S
C905 H875 0.950 1_556 S
C905 C900 1.363 . S
C905 C904 1.415 . S
H906 C903 0.999 . S
H907 C888 0.913 . S
H908 C926 0.951 . S
H909 C928 0.951 . S
H910 C930 0.950 . S
H911 C931 0.950 . S
H912 C933 0.950 . S
H913 C936 0.950 . S
H914 C937 0.950 . S
H915 C939 0.950 . S
H916 C940 0.950 . S
H917 C941 0.951 . S
H918 C943 0.951 . S
H919 C945 0.950 . S
H920 C946 0.950 . S
H921 C948 0.950 . S
H922 C951 0.950 . S
H923 C952 0.950 . S
H924 C954 0.950 . S
H925 C955 0.950 . S
C926 H908 0.951 . S
C926 C927 1.366 . S
C926 C928 1.388 . S
C927 C926 1.366 . S
C927 C931 1.385 . S
C928 H909 0.951 . S
C928 C926 1.388 . S
C928 C929 1.366 . S
C929 C928 1.366 . S
C929 C930 1.414 . S
C929 C932 1.499 . S
C930 H910 0.950 . S
C930 C929 1.414 . S
C930 C931 1.374 . S
C931 H911 0.950 . S
C931 C927 1.385 . S
C931 C930 1.374 . S
C932 C929 1.499 . S
C932 C933 1.373 . S
C932 C934 1.389 . S
C933 H912 0.950 . S
C933 C932 1.373 . S
C933 C949 1.377 . S
C934 C932 1.389 . S
C934 C935 1.524 . S
C934 C948 1.377 . S
C935 C934 1.524 . S
C935 C936 1.397 . S
C935 C940 1.363 . S
C936 H913 0.950 . S
C936 C935 1.397 . S
C936 C937 1.334 . S
C937 H914 0.950 . S
C937 C936 1.334 . S
C937 C938 1.287 . S
C938 C937 1.287 . S
C938 C939 1.524 . S
C938 H957 0.913 . S
C939 H915 0.950 . S
C939 C938 1.524 . S
C939 C940 1.415 . S
C940 H916 0.950 . S
C940 C935 1.363 . S
C940 C939 1.415 . S
C941 H917 0.951 . S
C941 C942 1.366 . S
C941 C943 1.388 . S
C942 C941 1.366 . S
C942 C946 1.385 . S
C943 H918 0.951 . S
C943 C941 1.388 . S
C943 C944 1.366 . S
C944 C943 1.366 . S
C944 C945 1.414 . S
C944 C947 1.499 . S
C945 H919 0.950 . S
C945 C944 1.414 . S
C945 C946 1.374 . S
C946 H920 0.950 . S
C946 C942 1.385 . S
C946 C945 1.374 . S
C947 C944 1.499 . S
C947 C948 1.373 . S
C947 C949 1.389 . S
C948 H921 0.950 . S
C948 C934 1.377 . S
C948 C947 1.373 . S
C949 C933 1.377 . S
C949 C947 1.389 . S
C949 C950 1.524 . S
C950 C949 1.524 . S
C950 C951 1.397 . S
C950 C955 1.363 . S
C951 H922 0.950 . S
C951 C950 1.397 . S
C951 C952 1.334 . S
C952 H923 0.950 . S
C952 C951 1.334 . S
C952 C953 1.287 . S
C953 C952 1.287 . S
C953 C954 1.524 . S
C953 H956 0.999 . S
C954 H924 0.950 . S
C954 C953 1.524 . S
C954 C955 1.415 . S
C955 H925 0.950 . S
C955 C950 1.363 . S
C955 C954 1.415 . S
H956 C953 0.999 . S
H957 C938 0.913 . S
H958 C976 0.951 . S
H959 C978 0.951 . S
H960 C980 0.950 . S
H961 C981 0.950 . S
H962 C983 0.950 . S
H963 C986 0.950 1_455 S
H964 C987 0.950 . S
H965 C989 0.950 . S
H966 C990 0.950 . S
H967 C991 0.951 . S
H968 C993 0.951 . S
H969 C995 0.950 . S
H970 C996 0.950 . S
H971 C998 0.950 . S
H972 C1001 0.950 1_655 S
H973 C1002 0.950 . S
H974 C1004 0.950 . S
H975 C1005 0.950 . S
C976 H958 0.951 . S
C976 C977 1.366 . S
C976 C978 1.388 . S
C977 C976 1.366 . S
C977 C981 1.385 . S
C978 H959 0.951 . S
C978 C976 1.388 . S
C978 C979 1.366 . S
C979 C978 1.366 . S
C979 C980 1.414 . S
C979 C982 1.499 . S
C980 H960 0.950 . S
C980 C979 1.414 . S
C980 C981 1.374 . S
C981 H961 0.950 . S
C981 C977 1.385 . S
C981 C980 1.374 . S
C982 C979 1.499 . S
C982 C983 1.373 . S
C982 C984 1.389 1_455 S
C983 H962 0.950 . S
C983 C982 1.373 . S
C983 C999 1.377 . S
C984 C982 1.389 1_655 S
C984 C985 1.524 . S
C984 C998 1.377 . S
C985 C984 1.524 . S
C985 C986 1.397 . S
C985 C990 1.363 . S
C986 H963 0.950 1_655 S
C986 C985 1.397 . S
C986 C987 1.334 . S
C987 H964 0.950 . S
C987 C986 1.334 . S
C987 C988 1.287 . S
C988 C987 1.287 . S
C988 C989 1.524 . S
C988 H1007 0.913 . S
C989 H965 0.950 . S
C989 C988 1.524 . S
C989 C990 1.415 . S
C990 H966 0.950 . S
C990 C985 1.363 . S
C990 C989 1.415 . S
C991 H967 0.951 . S
C991 C992 1.366 . S
C991 C993 1.388 . S
C992 C991 1.366 . S
C992 C996 1.385 . S
C993 H968 0.951 . S
C993 C991 1.388 . S
C993 C994 1.366 . S
C994 C993 1.366 . S
C994 C995 1.414 . S
C994 C997 1.499 . S
C995 H969 0.950 . S
C995 C994 1.414 . S
C995 C996 1.374 . S
C996 H970 0.950 . S
C996 C992 1.385 . S
C996 C995 1.374 . S
C997 C994 1.499 . S
C997 C998 1.373 . S
C997 C999 1.389 1_655 S
C998 H971 0.950 . S
C998 C984 1.377 . S
C998 C997 1.373 . S
C999 C983 1.377 . S
C999 C997 1.389 1_455 S
C999 C1000 1.524 . S
C1000 C999 1.524 . S
C1000 C1001 1.397 . S
C1000 C1005 1.363 . S
C1001 H972 0.950 1_455 S
C1001 C1000 1.397 . S
C1001 C1002 1.334 . S
C1002 H973 0.950 . S
C1002 C1001 1.334 . S
C1002 C1003 1.287 . S
C1003 C1002 1.287 . S
C1003 C1004 1.524 . S
C1003 H1006 0.999 . S
C1004 H974 0.950 . S
C1004 C1003 1.524 . S
C1004 C1005 1.415 . S
C1005 H975 0.950 . S
C1005 C1000 1.363 . S
C1005 C1004 1.415 . S
H1006 C1003 0.999 . S
H1007 C988 0.913 . S
H1008 C1026 0.951 . S
H1009 C1028 0.951 . S
H1010 C1030 0.950 . S
H1011 C1031 0.950 . S
H1012 C1033 0.950 . S
H1013 C1036 0.950 . S
H1014 C1037 0.950 . S
H1015 C1039 0.950 . S
H1016 C1040 0.950 . S
H1017 C1041 0.951 . S
H1018 C1043 0.951 . S
H1019 C1045 0.950 . S
H1020 C1046 0.950 . S
H1021 C1048 0.950 . S
H1022 C1051 0.950 . S
H1023 C1052 0.950 . S
H1024 C1054 0.950 . S
H1025 C1055 0.950 . S
C1026 H1008 0.951 . S
C1026 C1027 1.366 . S
C1026 C1028 1.388 . S
C1027 C1026 1.366 . S
C1027 C1031 1.385 . S
C1028 H1009 0.951 . S
C1028 C1026 1.388 . S
C1028 C1029 1.366 . S
C1029 C1028 1.366 . S
C1029 C1030 1.414 . S
C1029 C1032 1.499 . S
C1030 H1010 0.950 . S
C1030 C1029 1.414 . S
C1030 C1031 1.374 . S
C1031 H1011 0.950 . S
C1031 C1027 1.385 . S
C1031 C1030 1.374 . S
C1032 C1029 1.499 . S
C1032 C1033 1.373 1_545 S
C1032 C1034 1.389 . S
C1033 H1012 0.950 . S
C1033 C1032 1.373 1_565 S
C1033 C1049 1.377 1_455 S
C1034 C1032 1.389 . S
C1034 C1035 1.524 . S
C1034 C1048 1.377 1_455 S
C1035 C1034 1.524 . S
C1035 C1036 1.397 . S
C1035 C1040 1.363 . S
C1036 H1013 0.950 . S
C1036 C1035 1.397 . S
C1036 C1037 1.334 . S
C1037 H1014 0.950 . S
C1037 C1036 1.334 . S
C1037 C1038 1.287 . S
C1038 C1037 1.287 . S
C1038 C1039 1.524 . S
C1038 H1057 0.913 . S
C1039 H1015 0.950 . S
C1039 C1038 1.524 . S
C1039 C1040 1.415 . S
C1040 H1016 0.950 . S
C1040 C1035 1.363 . S
C1040 C1039 1.415 . S
C1041 H1017 0.951 . S
C1041 C1042 1.366 . S
C1041 C1043 1.388 . S
C1042 C1041 1.366 . S
C1042 C1046 1.385 . S
C1043 H1018 0.951 . S
C1043 C1041 1.388 . S
C1043 C1044 1.366 . S
C1044 C1043 1.366 . S
C1044 C1045 1.414 . S
C1044 C1047 1.499 . S
C1045 H1019 0.950 . S
C1045 C1044 1.414 . S
C1045 C1046 1.374 . S
C1046 H1020 0.950 . S
C1046 C1042 1.385 . S
C1046 C1045 1.374 . S
C1047 C1044 1.499 . S
C1047 C1048 1.373 1_565 S
C1047 C1049 1.389 . S
C1048 H1021 0.950 . S
C1048 C1034 1.377 1_655 S
C1048 C1047 1.373 1_545 S
C1049 C1033 1.377 1_655 S
C1049 C1047 1.389 . S
C1049 C1050 1.524 . S
C1050 C1049 1.524 . S
C1050 C1051 1.397 . S
C1050 C1055 1.363 . S
C1051 H1022 0.950 . S
C1051 C1050 1.397 . S
C1051 C1052 1.334 . S
C1052 H1023 0.950 . S
C1052 C1051 1.334 . S
C1052 C1053 1.287 . S
C1053 C1052 1.287 . S
C1053 C1054 1.524 . S
C1053 H1056 0.999 . S
C1054 H1024 0.950 . S
C1054 C1053 1.524 . S
C1054 C1055 1.415 . S
C1055 H1025 0.950 . S
C1055 C1050 1.363 . S
C1055 C1054 1.415 . S
H1056 C1053 0.999 . S
H1057 C1038 0.913 . S
H1058 C1076 0.951 . S
H1059 C1078 0.951 . S
H1060 C1080 0.950 . S
H1061 C1081 0.950 . S
H1062 C1083 0.950 . S
H1063 C1086 0.950 . S
H1064 C1087 0.950 . S
H1065 C1089 0.950 . S
H1066 C1090 0.950 . S
H1067 C1091 0.951 . S
H1068 C1093 0.951 . S
H1069 C1095 0.950 . S
H1070 C1096 0.950 . S
H1071 C1098 0.950 . S
H1072 C1101 0.950 . S
H1073 C1102 0.950 . S
H1074 C1104 0.950 . S
H1075 C1105 0.950 . S
C1076 H1058 0.951 . S
C1076 C1077 1.366 . S
C1076 C1078 1.388 . S
C1077 C1076 1.366 . S
C1077 C1081 1.385 . S
C1078 H1059 0.951 . S
C1078 C1076 1.388 . S
C1078 C1079 1.366 . S
C1079 C1078 1.366 . S
C1079 C1080 1.414 . S
C1079 C1082 1.499 . S
C1080 H1060 0.950 . S
C1080 C1079 1.414 . S
C1080 C1081 1.374 . S
C1081 H1061 0.950 . S
C1081 C1077 1.385 . S
C1081 C1080 1.374 . S
C1082 C1079 1.499 . S
C1082 C1083 1.373 1_455 S
C1082 C1084 1.389 . S
C1083 H1062 0.950 . S
C1083 C1082 1.373 1_655 S
C1083 C1099 1.377 1_545 S
C1084 C1082 1.389 . S
C1084 C1085 1.524 . S
C1084 C1098 1.377 1_545 S
C1085 C1084 1.524 . S
C1085 C1086 1.397 . S
C1085 C1090 1.363 . S
C1086 H1063 0.950 . S
C1086 C1085 1.397 . S
C1086 C1087 1.334 . S
C1087 H1064 0.950 . S
C1087 C1086 1.334 . S
C1087 C1088 1.287 . S
C1088 C1087 1.287 . S
C1088 C1089 1.524 . S
C1088 H1107 0.913 . S
C1089 H1065 0.950 . S
C1089 C1088 1.524 . S
C1089 C1090 1.415 . S
C1090 H1066 0.950 . S
C1090 C1085 1.363 . S
C1090 C1089 1.415 . S
C1091 H1067 0.951 . S
C1091 C1092 1.366 . S
C1091 C1093 1.388 . S
C1092 C1091 1.366 . S
C1092 C1096 1.385 . S
C1093 H1068 0.951 . S
C1093 C1091 1.388 . S
C1093 C1094 1.366 . S
C1094 C1093 1.366 . S
C1094 C1095 1.414 . S
C1094 C1097 1.499 . S
C1095 H1069 0.950 . S
C1095 C1094 1.414 . S
C1095 C1096 1.374 . S
C1096 H1070 0.950 . S
C1096 C1092 1.385 . S
C1096 C1095 1.374 . S
C1097 C1094 1.499 . S
C1097 C1098 1.373 1_655 S
C1097 C1099 1.389 . S
C1098 H1071 0.950 . S
C1098 C1084 1.377 1_565 S
C1098 C1097 1.373 1_455 S
C1099 C1083 1.377 1_565 S
C1099 C1097 1.389 . S
C1099 C1100 1.524 . S
C1100 C1099 1.524 . S
C1100 C1101 1.397 . S
C1100 C1105 1.363 . S
C1101 H1072 0.950 . S
C1101 C1100 1.397 . S
C1101 C1102 1.334 . S
C1102 H1073 0.950 . S
C1102 C1101 1.334 . S
C1102 C1103 1.287 . S
C1103 C1102 1.287 . S
C1103 C1104 1.524 . S
C1103 H1106 0.999 . S
C1104 H1074 0.950 . S
C1104 C1103 1.524 . S
C1104 C1105 1.415 . S
C1105 H1075 0.950 . S
C1105 C1100 1.363 . S
C1105 C1104 1.415 . S
H1106 C1103 0.999 . S
H1107 C1088 0.913 . S
H1108 C1126 0.951 . S
H1109 C1128 0.951 1_565 S
H1110 C1130 0.950 . S
H1111 C1131 0.950 . S
H1112 C1133 0.950 . S
H1113 C1136 0.950 1_455 S
H1114 C1137 0.950 . S
H1115 C1139 0.950 . S
H1116 C1140 0.950 . S
H1117 C1141 0.951 . S
H1118 C1143 0.951 1_545 S
H1119 C1145 0.950 . S
H1120 C1146 0.950 . S
H1121 C1148 0.950 . S
H1122 C1151 0.950 1_655 S
H1123 C1152 0.950 . S
H1124 C1154 0.950 . S
H1125 C1155 0.950 . S
C1126 H1108 0.951 . S
C1126 C1127 1.366 . S
C1126 C1128 1.388 . S
C1127 C1126 1.366 . S
C1127 C1131 1.385 . S
C1128 H1109 0.951 1_545 S
C1128 C1126 1.388 . S
C1128 C1129 1.366 . S
C1129 C1128 1.366 . S
C1129 C1130 1.414 . S
C1129 C1132 1.499 . S
C1130 H1110 0.950 . S
C1130 C1129 1.414 . S
C1130 C1131 1.374 . S
C1131 H1111 0.950 . S
C1131 C1127 1.385 . S
C1131 C1130 1.374 . S
C1132 C1129 1.499 . S
C1132 C1133 1.373 . S
C1132 C1134 1.389 . S
C1133 H1112 0.950 . S
C1133 C1132 1.373 . S
C1133 C1149 1.377 1_645 S
C1134 C1132 1.389 . S
C1134 C1135 1.524 . S
C1134 C1148 1.377 1_645 S
C1135 C1134 1.524 . S
C1135 C1136 1.397 . S
C1135 C1140 1.363 1_545 S
C1136 H1113 0.950 1_655 S
C1136 C1135 1.397 . S
C1136 C1137 1.334 . S
C1137 H1114 0.950 . S
C1137 C1136 1.334 . S
C1137 C1138 1.287 . S
C1138 C1137 1.287 . S
C1138 C1139 1.524 1_545 S
C1138 H1157 0.913 . S
C1139 H1115 0.950 . S
C1139 C1138 1.524 1_565 S
C1139 C1140 1.415 . S
C1140 H1116 0.950 . S
C1140 C1135 1.363 1_565 S
C1140 C1139 1.415 . S
C1141 H1117 0.951 . S
C1141 C1142 1.366 . S
C1141 C1143 1.388 . S
C1142 C1141 1.366 . S
C1142 C1146 1.385 . S
C1143 H1118 0.951 1_565 S
C1143 C1141 1.388 . S
C1143 C1144 1.366 . S
C1144 C1143 1.366 . S
C1144 C1145 1.414 . S
C1144 C1147 1.499 . S
C1145 H1119 0.950 . S
C1145 C1144 1.414 . S
C1145 C1146 1.374 . S
C1146 H1120 0.950 . S
C1146 C1142 1.385 . S
C1146 C1145 1.374 . S
C1147 C1144 1.499 . S
C1147 C1148 1.373 . S
C1147 C1149 1.389 . S
C1148 H1121 0.950 . S
C1148 C1134 1.377 1_465 S
C1148 C1147 1.373 . S
C1149 C1133 1.377 1_465 S
C1149 C1147 1.389 . S
C1149 C1150 1.524 . S
C1150 C1149 1.524 . S
C1150 C1151 1.397 . S
C1150 C1155 1.363 1_565 S
C1151 H1122 0.950 1_455 S
C1151 C1150 1.397 . S
C1151 C1152 1.334 . S
C1152 H1123 0.950 . S
C1152 C1151 1.334 . S
C1152 C1153 1.287 . S
C1153 C1152 1.287 . S
C1153 C1154 1.524 1_565 S
C1153 H1156 0.999 . S
C1154 H1124 0.950 . S
C1154 C1153 1.524 1_545 S
C1154 C1155 1.415 . S
C1155 H1125 0.950 . S
C1155 C1150 1.363 1_545 S
C1155 C1154 1.415 . S
H1156 C1153 0.999 . S
H1157 C1138 0.913 . S
H1158 C1176 0.951 . S
H1159 C1178 0.951 . S
H1160 C1180 0.950 . S
H1161 C1181 0.950 . S
H1162 C1183 0.950 . S
H1163 C1186 0.950 . S
H1164 C1187 0.950 . S
H1165 C1189 0.950 . S
H1166 C1190 0.950 . S
H1167 C1191 0.951 . S
H1168 C1193 0.951 . S
H1169 C1195 0.950 . S
H1170 C1196 0.950 . S
H1171 C1198 0.950 . S
H1172 C1201 0.950 . S
H1173 C1202 0.950 . S
H1174 C1204 0.950 . S
H1175 C1205 0.950 . S
C1176 H1158 0.951 . S
C1176 C1177 1.366 . S
C1176 C1178 1.388 . S
C1177 C1176 1.366 . S
C1177 C1181 1.385 . S
C1178 H1159 0.951 . S
C1178 C1176 1.388 . S
C1178 C1179 1.366 . S
C1179 C1178 1.366 . S
C1179 C1180 1.414 . S
C1179 C1182 1.499 . S
C1180 H1160 0.950 . S
C1180 C1179 1.414 . S
C1180 C1181 1.374 . S
C1181 H1161 0.950 . S
C1181 C1177 1.385 . S
C1181 C1180 1.374 . S
C1182 C1179 1.499 . S
C1182 C1183 1.373 . S
C1182 C1184 1.389 1_655 S
C1183 H1162 0.950 . S
C1183 C1182 1.373 . S
C1183 C1199 1.377 1_565 S
C1184 C1182 1.389 1_455 S
C1184 C1185 1.524 . S
C1184 C1198 1.377 1_565 S
C1185 C1184 1.524 . S
C1185 C1186 1.397 . S
C1185 C1190 1.363 . S
C1186 H1163 0.950 . S
C1186 C1185 1.397 . S
C1186 C1187 1.334 . S
C1187 H1164 0.950 . S
C1187 C1186 1.334 . S
C1187 C1188 1.287 . S
C1188 C1187 1.287 . S
C1188 C1189 1.524 . S
C1188 H1207 0.913 . S
C1189 H1165 0.950 . S
C1189 C1188 1.524 . S
C1189 C1190 1.415 . S
C1190 H1166 0.950 . S
C1190 C1185 1.363 . S
C1190 C1189 1.415 . S
C1191 H1167 0.951 . S
C1191 C1192 1.366 . S
C1191 C1193 1.388 . S
C1192 C1191 1.366 . S
C1192 C1196 1.385 . S
C1193 H1168 0.951 . S
C1193 C1191 1.388 . S
C1193 C1194 1.366 . S
C1194 C1193 1.366 . S
C1194 C1195 1.414 . S
C1194 C1197 1.499 . S
C1195 H1169 0.950 . S
C1195 C1194 1.414 . S
C1195 C1196 1.374 . S
C1196 H1170 0.950 . S
C1196 C1192 1.385 . S
C1196 C1195 1.374 . S
C1197 C1194 1.499 . S
C1197 C1198 1.373 . S
C1197 C1199 1.389 1_455 S
C1198 H1171 0.950 . S
C1198 C1184 1.377 1_545 S
C1198 C1197 1.373 . S
C1199 C1183 1.377 1_545 S
C1199 C1197 1.389 1_655 S
C1199 C1200 1.524 . S
C1200 C1199 1.524 . S
C1200 C1201 1.397 . S
C1200 C1205 1.363 . S
C1201 H1172 0.950 . S
C1201 C1200 1.397 . S
C1201 C1202 1.334 . S
C1202 H1173 0.950 . S
C1202 C1201 1.334 . S
C1202 C1203 1.287 . S
C1203 C1202 1.287 . S
C1203 C1204 1.524 . S
C1203 H1206 0.999 . S
C1204 H1174 0.950 . S
C1204 C1203 1.524 . S
C1204 C1205 1.415 . S
C1205 H1175 0.950 . S
C1205 C1200 1.363 . S
C1205 C1204 1.415 . S
H1206 C1203 0.999 . S
H1207 C1188 0.913 . S
H1208 C1226 0.951 . S
H1209 C1228 0.951 . S
H1210 C1230 0.950 1_655 S
H1211 C1231 0.950 . S
H1212 C1233 0.950 . S
H1213 C1236 0.968 . S
H1214 C1237 0.950 1_565 S
H1215 C1239 0.950 . S
H1216 C1240 0.950 . S
H1217 C1241 0.951 . S
H1218 C1243 0.951 . S
H1219 C1245 0.950 1_455 S
H1220 C1246 0.950 . S
H1221 C1248 0.950 . S
H1222 C1251 0.968 . S
H1223 C1252 0.950 1_545 S
H1224 C1254 0.950 . S
H1225 C1255 0.950 . S
C1226 H1208 0.951 . S
C1226 C1227 1.366 . S
C1226 C1228 1.388 . S
C1227 C1226 1.366 . S
C1227 C1231 1.385 . S
C1228 H1209 0.951 . S
C1228 C1226 1.388 . S
C1228 C1229 1.366 . S
C1229 C1228 1.366 . S
C1229 C1230 1.414 . S
C1229 C1232 1.499 . S
C1230 H1210 0.950 1_455 S
C1230 C1229 1.414 . S
C1230 C1231 1.374 . S
C1231 H1211 0.950 . S
C1231 C1227 1.385 . S
C1231 C1230 1.374 . S
C1232 C1229 1.499 . S
C1232 C1233 1.373 1_455 S
C1232 C1234 1.389 1_565 S
C1233 H1212 0.950 . S
C1233 C1232 1.373 1_655 S
C1233 C1249 1.377 . S
C1234 C1232 1.389 1_545 S
C1234 C1235 1.524 . S
C1234 C1248 1.377 . S
C1235 C1234 1.524 . S
C1235 C1236 1.375 1_545 S
C1235 C1240 1.363 . S
C1236 H1213 0.968 . S
C1236 C1235 1.375 1_565 S
C1236 C1237 1.339 1_565 S
C1237 H1214 0.950 1_545 S
C1237 C1236 1.339 1_545 S
C1237 C1238 1.287 . S
C1238 C1237 1.287 . S
C1238 C1239 1.524 . S
C1238 H1257 0.913 . S
C1239 H1215 0.950 . S
C1239 C1238 1.524 . S
C1239 C1240 1.415 . S
C1240 H1216 0.950 . S
C1240 C1235 1.363 . S
C1240 C1239 1.415 . S
C1241 H1217 0.951 . S
C1241 C1242 1.366 . S
C1241 C1243 1.388 . S
C1242 C1241 1.366 . S
C1242 C1246 1.385 . S
C1243 H1218 0.951 . S
C1243 C1241 1.388 . S
C1243 C1244 1.366 . S
C1244 C1243 1.366 . S
C1244 C1245 1.414 . S
C1244 C1247 1.499 . S
C1245 H1219 0.950 1_655 S
C1245 C1244 1.414 . S
C1245 C1246 1.374 . S
C1246 H1220 0.950 . S
C1246 C1242 1.385 . S
C1246 C1245 1.374 . S
C1247 C1244 1.499 . S
C1247 C1248 1.373 1_655 S
C1247 C1249 1.389 1_545 S
C1248 H1221 0.950 . S
C1248 C1234 1.377 . S
C1248 C1247 1.373 1_455 S
C1249 C1233 1.377 . S
C1249 C1247 1.389 1_565 S
C1249 C1250 1.524 . S
C1250 C1249 1.524 . S
C1250 C1251 1.375 1_565 S
C1250 C1255 1.363 . S
C1251 H1222 0.968 . S
C1251 C1250 1.375 1_545 S
C1251 C1252 1.339 1_545 S
C1252 H1223 0.950 1_565 S
C1252 C1251 1.339 1_565 S
C1252 C1253 1.287 . S
C1253 C1252 1.287 . S
C1253 C1254 1.524 . S
C1253 H1256 0.999 . S
C1254 H1224 0.950 . S
C1254 C1253 1.524 . S
C1254 C1255 1.415 . S
C1255 H1225 0.950 . S
C1255 C1250 1.363 . S
C1255 C1254 1.415 . S
H1256 C1253 0.999 . S
H1257 C1238 0.913 . S
H1258 C1276 0.951 . S
H1259 C1278 0.951 . S
H1260 C1280 0.950 1_565 S
H1261 C1281 0.950 . S
H1262 C1283 0.950 . S
H1263 C1286 0.950 . S
H1264 C1287 0.950 . S
H1265 C1289 0.950 . S
H1266 C1290 0.950 . S
H1267 C1291 0.951 . S
H1268 C1293 0.951 . S
H1269 C1295 0.950 1_545 S
H1270 C1296 0.950 . S
H1271 C1298 0.950 . S
H1272 C1301 0.950 . S
H1273 C1302 0.950 . S
H1274 C1304 0.950 . S
H1275 C1305 0.950 . S
C1276 H1258 0.951 . S
C1276 C1277 1.366 . S
C1276 C1278 1.388 . S
C1277 C1276 1.366 . S
C1277 C1281 1.385 . S
C1278 H1259 0.951 . S
C1278 C1276 1.388 . S
C1278 C1279 1.366 . S
C1279 C1278 1.366 . S
C1279 C1280 1.414 . S
C1279 C1282 1.499 . S
C1280 H1260 0.950 1_545 S
C1280 C1279 1.414 . S
C1280 C1281 1.374 . S
C1281 H1261 0.950 . S
C1281 C1277 1.385 . S
C1281 C1280 1.374 . S
C1282 C1279 1.499 . S
C1282 C1283 1.373 1_545 S
C1282 C1284 1.389 . S
C1283 H1262 0.950 . S
C1283 C1282 1.373 1_565 S
C1283 C1299 1.377 1_455 S
C1284 C1282 1.389 . S
C1284 C1285 1.524 . S
C1284 C1298 1.377 1_455 S
C1285 C1284 1.524 . S
C1285 C1286 1.397 . S
C1285 C1290 1.363 . S
C1286 H1263 0.950 . S
C1286 C1285 1.397 . S
C1286 C1287 1.334 . S
C1287 H1264 0.950 . S
C1287 C1286 1.334 . S
C1287 C1288 1.287 . S
C1288 C1287 1.287 . S
C1288 C1289 1.524 . S
C1288 H1307 0.913 . S
C1289 H1265 0.950 . S
C1289 C1288 1.524 . S
C1289 C1290 1.415 . S
C1290 H1266 0.950 . S
C1290 C1285 1.363 . S
C1290 C1289 1.415 . S
C1291 H1267 0.951 . S
C1291 C1292 1.366 . S
C1291 C1293 1.388 . S
C1292 C1291 1.366 . S
C1292 C1296 1.385 . S
C1293 H1268 0.951 . S
C1293 C1291 1.388 . S
C1293 C1294 1.366 . S
C1294 C1293 1.366 . S
C1294 C1295 1.414 . S
C1294 C1297 1.499 . S
C1295 H1269 0.950 1_565 S
C1295 C1294 1.414 . S
C1295 C1296 1.374 . S
C1296 H1270 0.950 . S
C1296 C1292 1.385 . S
C1296 C1295 1.374 . S
C1297 C1294 1.499 . S
C1297 C1298 1.373 1_565 S
C1297 C1299 1.389 . S
C1298 H1271 0.950 . S
C1298 C1284 1.377 1_655 S
C1298 C1297 1.373 1_545 S
C1299 C1283 1.377 1_655 S
C1299 C1297 1.389 . S
C1299 C1300 1.524 . S
C1300 C1299 1.524 . S
C1300 C1301 1.397 . S
C1300 C1305 1.363 . S
C1301 H1272 0.950 . S
C1301 C1300 1.397 . S
C1301 C1302 1.334 . S
C1302 H1273 0.950 . S
C1302 C1301 1.334 . S
C1302 C1303 1.287 . S
C1303 C1302 1.287 . S
C1303 C1304 1.524 . S
C1303 H1306 0.999 . S
C1304 H1274 0.950 . S
C1304 C1303 1.524 . S
C1304 C1305 1.415 . S
C1305 H1275 0.950 . S
C1305 C1300 1.363 . S
C1305 C1304 1.415 . S
H1306 C1303 0.999 . S
H1307 C1288 0.913 . S
H1308 C1326 0.951 . S
H1309 C1328 0.951 . S
H1310 C1330 0.950 . S
H1311 C1331 0.950 . S
H1312 C1333 0.950 . S
H1313 C1336 0.950 . S
H1314 C1337 0.950 1_655 S
H1315 C1339 0.950 . S
H1316 C1340 0.950 . S
H1317 C1341 0.951 . S
H1318 C1343 0.951 . S
H1319 C1345 0.950 . S
H1320 C1346 0.950 . S
H1321 C1348 0.950 . S
H1322 C1351 0.950 . S
H1323 C1352 0.950 . S
H1324 C1354 0.950 . S
H1325 C1355 0.950 . S
C1326 H1308 0.951 . S
C1326 C1327 1.366 1_455 S
C1326 C1328 1.388 . S
C1327 C1326 1.366 1_655 S
C1327 C1331 1.385 . S
C1328 H1309 0.951 . S
C1328 C1326 1.388 . S
C1328 C1329 1.366 . S
C1329 C1328 1.366 . S
C1329 C1330 1.414 . S
C1329 C1332 1.499 . S
C1330 H1310 0.950 . S
C1330 C1329 1.414 . S
C1330 C1331 1.374 1_455 S
C1331 H1311 0.950 . S
C1331 C1327 1.385 . S
C1331 C1330 1.374 1_655 S
C1332 C1329 1.499 . S
C1332 C1333 1.376 1_556 S
C1332 C1334 1.389 . S
C1333 H1312 0.950 . S
C1333 C1332 1.376 1_554 S
C1333 C1349 1.374 . S
C1334 C1332 1.389 . S
C1334 C1335 1.524 . S
C1334 C1348 1.374 . S
C1335 C1334 1.524 . S
C1335 C1336 1.397 . S
C1335 C1340 1.363 . S
C1336 H1313 0.950 . S
C1336 C1335 1.397 . S
C1336 C1337 1.334 . S
C1337 H1314 0.950 1_455 S
C1337 C1336 1.334 . S
C1337 C1338 1.287 . S
C1338 C1337 1.287 . S
C1338 C1339 1.524 . S
C1338 H1357 0.914 . S
C1339 H1315 0.950 . S
C1339 C1338 1.524 . S
C1339 C1340 1.415 . S
C1340 H1316 0.950 . S
C1340 C1335 1.363 . S
C1340 C1339 1.415 . S
C1341 H1317 0.951 . S
C1341 C1342 1.366 . S
C1341 C1343 1.388 . S
C1342 C1341 1.366 . S
C1342 C1346 1.385 . S
C1343 H1318 0.951 . S
C1343 C1341 1.388 . S
C1343 C1344 1.366 . S
C1344 C1343 1.366 . S
C1344 C1345 1.414 . S
C1344 C1347 1.499 . S
C1345 H1319 0.950 . S
C1345 C1344 1.414 . S
C1345 C1346 1.374 . S
C1346 H1320 0.950 . S
C1346 C1342 1.385 . S
C1346 C1345 1.374 . S
C1347 C1344 1.499 . S
C1347 C1348 1.376 1_554 S
C1347 C1349 1.389 . S
C1348 H1321 0.950 . S
C1348 C1334 1.374 . S
C1348 C1347 1.376 1_556 S
C1349 C1333 1.374 . S
C1349 C1347 1.389 . S
C1349 C1350 1.524 . S
C1350 C1349 1.524 . S
C1350 C1351 1.397 . S
C1350 C1355 1.363 . S
C1351 H1322 0.950 . S
C1351 C1350 1.397 . S
C1351 C1352 1.334 . S
C1352 H1323 0.950 . S
C1352 C1351 1.334 . S
C1352 C1353 1.287 . S
C1353 C1352 1.287 . S
C1353 C1354 1.524 . S
C1353 H1356 0.999 . S
C1354 H1324 0.950 . S
C1354 C1353 1.524 . S
C1354 C1355 1.415 . S
C1355 H1325 0.950 . S
C1355 C1350 1.363 . S
C1355 C1354 1.415 . S
H1356 C1353 0.999 . S
H1357 C1338 0.914 . S
H1358 C1376 0.951 . S
H1359 C1378 0.951 . S
H1360 C1380 0.950 . S
H1361 C1381 0.950 . S
H1362 C1383 0.950 . S
H1363 C1386 0.950 . S
H1364 C1387 0.950 . S
H1365 C1389 0.950 . S
H1366 C1390 0.950 . S
H1367 C1391 0.951 . S
H1368 C1393 0.951 . S
H1369 C1395 0.950 . S
H1370 C1396 0.950 1_565 S
H1371 C1398 0.950 . S
H1372 C1401 0.950 . S
H1373 C1402 0.950 . S
H1374 C1404 0.950 . S
H1375 C1405 0.950 . S
C1376 H1358 0.951 . S
C1376 C1377 1.366 1_655 S
C1376 C1378 1.388 . S
C1377 C1376 1.366 1_455 S
C1377 C1381 1.385 . S
C1378 H1359 0.951 . S
C1378 C1376 1.388 . S
C1378 C1379 1.366 . S
C1379 C1378 1.366 . S
C1379 C1380 1.414 . S
C1379 C1382 1.499 . S
C1380 H1360 0.950 . S
C1380 C1379 1.414 . S
C1380 C1381 1.374 1_655 S
C1381 H1361 0.950 . S
C1381 C1377 1.385 . S
C1381 C1380 1.374 1_455 S
C1382 C1379 1.499 . S
C1382 C1383 1.373 . S
C1382 C1384 1.389 . S
C1383 H1362 0.950 . S
C1383 C1382 1.373 . S
C1383 C1399 1.377 . S
C1384 C1382 1.389 . S
C1384 C1385 1.524 . S
C1384 C1398 1.377 . S
C1385 C1384 1.524 . S
C1385 C1386 1.397 . S
C1385 C1390 1.363 . S
C1386 H1363 0.950 . S
C1386 C1385 1.397 . S
C1386 C1387 1.334 . S
C1387 H1364 0.950 . S
C1387 C1386 1.334 . S
C1387 C1388 1.287 . S
C1388 C1387 1.287 . S
C1388 C1389 1.524 . S
C1388 H1407 0.913 . S
C1389 H1365 0.950 . S
C1389 C1388 1.524 . S
C1389 C1390 1.415 . S
C1390 H1366 0.950 . S
C1390 C1385 1.363 . S
C1390 C1389 1.415 . S
C1391 H1367 0.951 . S
C1391 C1392 1.366 1_545 S
C1391 C1393 1.388 . S
C1392 C1391 1.366 1_565 S
C1392 C1396 1.385 1_565 S
C1393 H1368 0.951 . S
C1393 C1391 1.388 . S
C1393 C1394 1.366 . S
C1394 C1393 1.366 . S
C1394 C1395 1.414 . S
C1394 C1397 1.499 . S
C1395 H1369 0.950 . S
C1395 C1394 1.414 . S
C1395 C1396 1.374 . S
C1396 H1370 0.950 1_545 S
C1396 C1392 1.385 1_545 S
C1396 C1395 1.374 . S
C1397 C1394 1.499 . S
C1397 C1398 1.373 . S
C1397 C1399 1.389 . S
C1398 H1371 0.950 . S
C1398 C1384 1.377 . S
C1398 C1397 1.373 . S
C1399 C1383 1.377 . S
C1399 C1397 1.389 . S
C1399 C1400 1.524 . S
C1400 C1399 1.524 . S
C1400 C1401 1.397 . S
C1400 C1405 1.363 . S
C1401 H1372 0.950 . S
C1401 C1400 1.397 . S
C1401 C1402 1.334 . S
C1402 H1373 0.950 . S
C1402 C1401 1.334 . S
C1402 C1403 1.287 . S
C1403 C1402 1.287 . S
C1403 C1404 1.524 . S
C1403 H1406 0.999 . S
C1404 H1374 0.950 . S
C1404 C1403 1.524 . S
C1404 C1405 1.415 . S
C1405 H1375 0.950 . S
C1405 C1400 1.363 . S
C1405 C1404 1.415 . S
H1406 C1403 0.999 . S
H1407 C1388 0.913 . S
H1408 C1426 0.951 . S
H1409 C1428 0.951 . S
H1410 C1430 0.950 . S
H1411 C1431 0.950 . S
H1412 C1433 0.950 . S
H1413 C1436 0.950 . S
H1414 C1437 0.950 . S
H1415 C1439 0.950 . S
H1416 C1440 0.950 . S
H1417 C1441 0.951 . S
H1418 C1443 0.951 . S
H1419 C1445 0.950 . S
H1420 C1446 0.950 . S
H1421 C1448 0.950 . S
H1422 C1451 0.950 . S
H1423 C1452 0.950 . S
H1424 C1454 0.950 . S
H1425 C1455 0.950 . S
C1426 H1408 0.951 . S
C1426 C1427 1.366 . S
C1426 C1428 1.388 . S
C1427 C1426 1.366 . S
C1427 C1431 1.385 . S
C1428 H1409 0.951 . S
C1428 C1426 1.388 . S
C1428 C1429 1.366 . S
C1429 C1428 1.366 . S
C1429 C1430 1.414 . S
C1429 C1432 1.499 . S
C1430 H1410 0.950 . S
C1430 C1429 1.414 . S
C1430 C1431 1.374 . S
C1431 H1411 0.950 . S
C1431 C1427 1.385 . S
C1431 C1430 1.374 . S
C1432 C1429 1.499 . S
C1432 C1433 1.373 . S
C1432 C1434 1.389 . S
C1433 H1412 0.950 . S
C1433 C1432 1.373 . S
C1433 C1449 1.377 . S
C1434 C1432 1.389 . S
C1434 C1435 1.524 . S
C1434 C1448 1.377 . S
C1435 C1434 1.524 . S
C1435 C1436 1.397 . S
C1435 C1440 1.363 . S
C1436 H1413 0.950 . S
C1436 C1435 1.397 . S
C1436 C1437 1.334 . S
C1437 H1414 0.950 . S
C1437 C1436 1.334 . S
C1437 C1438 1.287 . S
C1438 C1437 1.287 . S
C1438 C1439 1.524 . S
C1438 H1457 0.913 . S
C1439 H1415 0.950 . S
C1439 C1438 1.524 . S
C1439 C1440 1.415 . S
C1440 H1416 0.950 . S
C1440 C1435 1.363 . S
C1440 C1439 1.415 . S
C1441 H1417 0.951 . S
C1441 C1442 1.366 1_565 S
C1441 C1443 1.388 . S
C1442 C1441 1.366 1_545 S
C1442 C1446 1.385 . S
C1443 H1418 0.951 . S
C1443 C1441 1.388 . S
C1443 C1444 1.366 . S
C1444 C1443 1.366 . S
C1444 C1445 1.414 . S
C1444 C1447 1.499 . S
C1445 H1419 0.950 . S
C1445 C1444 1.414 . S
C1445 C1446 1.374 1_565 S
C1446 H1420 0.950 . S
C1446 C1442 1.385 . S
C1446 C1445 1.374 1_545 S
C1447 C1444 1.499 . S
C1447 C1448 1.373 . S
C1447 C1449 1.389 . S
C1448 H1421 0.950 . S
C1448 C1434 1.377 . S
C1448 C1447 1.373 . S
C1449 C1433 1.377 . S
C1449 C1447 1.389 . S
C1449 C1450 1.524 . S
C1450 C1449 1.524 . S
C1450 C1451 1.397 . S
C1450 C1455 1.363 . S
C1451 H1422 0.950 . S
C1451 C1450 1.397 . S
C1451 C1452 1.334 . S
C1452 H1423 0.950 . S
C1452 C1451 1.334 . S
C1452 C1453 1.287 . S
C1453 C1452 1.287 . S
C1453 C1454 1.524 . S
C1453 H1456 0.999 . S
C1454 H1424 0.950 . S
C1454 C1453 1.524 . S
C1454 C1455 1.415 . S
C1455 H1425 0.950 . S
C1455 C1450 1.363 . S
C1455 C1454 1.415 . S
H1456 C1453 0.999 . S
H1457 C1438 0.913 . S
H1458 C1476 0.951 . S
H1459 C1478 0.951 . S
H1460 C1480 0.950 . S
H1461 C1481 0.950 . S
H1462 C1483 0.950 . S
H1463 C1486 0.950 . S
H1464 C1487 0.950 . S
H1465 C1489 0.950 . S
H1466 C1490 0.950 . S
H1467 C1491 0.951 . S
H1468 C1493 0.951 . S
H1469 C1495 0.950 . S
H1470 C1496 0.973 . S
H1471 C1498 0.950 . S
H1472 C1501 0.950 . S
H1473 C1502 0.950 . S
H1474 C1504 0.950 . S
H1475 C1505 0.950 . S
C1476 H1458 0.951 . S
C1476 C1477 1.366 . S
C1476 C1478 1.388 . S
C1477 C1476 1.366 . S
C1477 C1481 1.385 . S
C1478 H1459 0.951 . S
C1478 C1476 1.388 . S
C1478 C1479 1.366 . S
C1479 C1478 1.366 . S
C1479 C1480 1.414 . S
C1479 C1482 1.499 . S
C1480 H1460 0.950 . S
C1480 C1479 1.414 . S
C1480 C1481 1.374 . S
C1481 H1461 0.950 . S
C1481 C1477 1.385 . S
C1481 C1480 1.374 . S
C1482 C1479 1.499 . S
C1482 C1483 1.373 1_554 S
C1482 C1484 1.389 . S
C1483 H1462 0.950 . S
C1483 C1482 1.373 1_556 S
C1483 C1499 1.377 . S
C1484 C1482 1.389 . S
C1484 C1485 1.524 . S
C1484 C1498 1.377 . S
C1485 C1484 1.524 . S
C1485 C1486 1.397 . S
C1485 C1490 1.363 . S
C1486 H1463 0.950 . S
C1486 C1485 1.397 . S
C1486 C1487 1.334 . S
C1487 H1464 0.950 . S
C1487 C1486 1.334 . S
C1487 C1488 1.287 . S
C1488 C1487 1.287 . S
C1488 C1489 1.524 . S
C1488 H1507 0.913 . S
C1489 H1465 0.950 . S
C1489 C1488 1.524 . S
C1489 C1490 1.415 . S
C1490 H1466 0.950 . S
C1490 C1485 1.363 . S
C1490 C1489 1.415 . S
C1491 H1467 0.951 . S
C1491 C1492 1.366 1_655 S
C1491 C1493 1.388 . S
C1492 C1491 1.366 1_455 S
C1492 C1496 1.382 . S
C1493 H1468 0.951 . S
C1493 C1491 1.388 . S
C1493 C1494 1.366 . S
C1494 C1493 1.366 . S
C1494 C1495 1.414 . S
C1494 C1497 1.499 . S
C1495 H1469 0.950 . S
C1495 C1494 1.414 . S
C1495 C1496 1.353 1_655 S
C1496 H1470 0.973 . S
C1496 C1492 1.382 . S
C1496 C1495 1.353 1_455 S
C1497 C1494 1.499 . S
C1497 C1498 1.373 1_556 S
C1497 C1499 1.389 . S
C1498 H1471 0.950 . S
C1498 C1484 1.377 . S
C1498 C1497 1.373 1_554 S
C1499 C1483 1.377 . S
C1499 C1497 1.389 . S
C1499 C1500 1.524 . S
C1500 C1499 1.524 . S
C1500 C1501 1.397 . S
C1500 C1505 1.363 . S
C1501 H1472 0.950 . S
C1501 C1500 1.397 . S
C1501 C1502 1.334 . S
C1502 H1473 0.950 . S
C1502 C1501 1.334 . S
C1502 C1503 1.287 . S
C1503 C1502 1.287 . S
C1503 C1504 1.524 . S
C1503 H1506 0.999 . S
C1504 H1474 0.950 . S
C1504 C1503 1.524 . S
C1504 C1505 1.415 . S
C1505 H1475 0.950 . S
C1505 C1500 1.363 . S
C1505 C1504 1.415 . S
H1506 C1503 0.999 . S
H1507 C1488 0.913 . S
H1508 C1526 0.951 . S
H1509 C1528 0.951 . S
H1510 C1530 0.950 . S
H1511 C1531 0.953 1_545 S
H1512 C1533 0.950 . S
H1513 C1536 0.950 . S
H1514 C1537 0.950 . S
H1515 C1539 0.950 . S
H1516 C1540 0.950 . S
H1517 C1541 0.951 . S
H1518 C1543 0.951 . S
H1519 C1545 0.950 . S
H1520 C1546 0.950 . S
H1521 C1548 0.950 . S
H1522 C1551 0.950 . S
H1523 C1552 0.950 . S
H1524 C1554 0.950 . S
H1525 C1555 0.950 . S
C1526 H1508 0.951 . S
C1526 C1527 1.366 1_565 S
C1526 C1528 1.388 . S
C1527 C1526 1.366 1_545 S
C1527 C1531 1.385 1_545 S
C1528 H1509 0.951 . S
C1528 C1526 1.388 . S
C1528 C1529 1.366 . S
C1529 C1528 1.366 . S
C1529 C1530 1.414 . S
C1529 C1532 1.499 . S
C1530 H1510 0.950 . S
C1530 C1529 1.414 . S
C1530 C1531 1.374 . S
C1531 H1511 0.953 1_565 S
C1531 C1527 1.385 1_565 S
C1531 C1530 1.374 . S
C1532 C1529 1.499 . S
C1532 C1533 1.373 . S
C1532 C1534 1.389 . S
C1533 H1512 0.950 . S
C1533 C1532 1.373 . S
C1533 C1549 1.377 . S
C1534 C1532 1.389 . S
C1534 C1535 1.524 . S
C1534 C1548 1.377 . S
C1535 C1534 1.524 . S
C1535 C1536 1.397 . S
C1535 C1540 1.363 . S
C1536 H1513 0.950 . S
C1536 C1535 1.397 . S
C1536 C1537 1.334 1_565 S
C1537 H1514 0.950 . S
C1537 C1536 1.334 1_545 S
C1537 C1538 1.287 . S
C1538 C1537 1.287 . S
C1538 C1539 1.524 1_545 S
C1538 H1557 0.913 . S
C1539 H1515 0.950 . S
C1539 C1538 1.524 1_565 S
C1539 C1540 1.415 . S
C1540 H1516 0.950 . S
C1540 C1535 1.363 . S
C1540 C1539 1.415 . S
C1541 H1517 0.951 . S
C1541 C1542 1.366 1_455 S
C1541 C1543 1.388 . S
C1542 C1541 1.366 1_655 S
C1542 C1546 1.385 . S
C1543 H1518 0.951 . S
C1543 C1541 1.388 . S
C1543 C1544 1.366 . S
C1544 C1543 1.366 . S
C1544 C1545 1.414 . S
C1544 C1547 1.499 . S
C1545 H1519 0.950 . S
C1545 C1544 1.414 . S
C1545 C1546 1.374 1_455 S
C1546 H1520 0.950 . S
C1546 C1542 1.385 . S
C1546 C1545 1.374 1_655 S
C1547 C1544 1.499 . S
C1547 C1548 1.373 . S
C1547 C1549 1.389 . S
C1548 H1521 0.950 . S
C1548 C1534 1.377 . S
C1548 C1547 1.373 . S
C1549 C1533 1.377 . S
C1549 C1547 1.389 . S
C1549 C1550 1.524 . S
C1550 C1549 1.524 . S
C1550 C1551 1.397 . S
C1550 C1555 1.363 . S
C1551 H1522 0.950 . S
C1551 C1550 1.397 . S
C1551 C1552 1.334 . S
C1552 H1523 0.950 . S
C1552 C1551 1.334 . S
C1552 C1553 1.287 . S
C1553 C1552 1.287 . S
C1553 C1554 1.524 . S
C1553 H1556 0.999 . S
C1554 H1524 0.950 . S
C1554 C1553 1.524 . S
C1554 C1555 1.415 . S
C1555 H1525 0.950 . S
C1555 C1550 1.363 . S
C1555 C1554 1.415 . S
H1556 C1553 0.999 . S
H1557 C1538 0.913 . S
H1558 C1576 0.951 . S
H1559 C1578 0.951 . S
H1560 C1580 0.950 . S
H1561 C1581 0.950 . S
H1562 C1583 0.950 . S
H1563 C1586 0.950 . S
H1564 C1587 0.950 . S
H1565 C1589 0.950 . S
H1566 C1590 0.950 . S
H1567 C1591 0.951 . S
H1568 C1593 0.951 . S
H1569 C1595 0.950 . S
H1570 C1596 0.950 . S
H1571 C1598 0.950 . S
H1572 C1601 0.950 . S
H1573 C1602 0.950 . S
H1574 C1604 0.950 . S
H1575 C1605 0.950 . S
C1576 H1558 0.951 . S
C1576 C1577 1.366 1_545 S
C1576 C1578 1.388 . S
C1577 C1576 1.366 1_565 S
C1577 C1581 1.385 . S
C1578 H1559 0.951 . S
C1578 C1576 1.388 . S
C1578 C1579 1.366 . S
C1579 C1578 1.366 . S
C1579 C1580 1.414 . S
C1579 C1582 1.499 . S
C1580 H1560 0.950 . S
C1580 C1579 1.414 . S
C1580 C1581 1.374 1_545 S
C1581 H1561 0.950 . S
C1581 C1577 1.385 . S
C1581 C1580 1.374 1_565 S
C1582 C1579 1.499 . S
C1582 C1583 1.373 . S
C1582 C1584 1.389 . S
C1583 H1562 0.950 . S
C1583 C1582 1.373 . S
C1583 C1599 1.377 . S
C1584 C1582 1.389 . S
C1584 C1585 1.524 . S
C1584 C1598 1.377 . S
C1585 C1584 1.524 . S
C1585 C1586 1.397 . S
C1585 C1590 1.363 . S
C1586 H1563 0.950 . S
C1586 C1585 1.397 . S
C1586 C1587 1.334 . S
C1587 H1564 0.950 . S
C1587 C1586 1.334 . S
C1587 C1588 1.287 . S
C1588 C1587 1.287 . S
C1588 C1589 1.524 . S
C1588 H1607 0.913 . S
C1589 H1565 0.950 . S
C1589 C1588 1.524 . S
C1589 C1590 1.415 . S
C1590 H1566 0.950 . S
C1590 C1585 1.363 . S
C1590 C1589 1.415 . S
C1591 H1567 0.951 . S
C1591 C1592 1.366 . S
C1591 C1593 1.388 . S
C1592 C1591 1.366 . S
C1592 C1596 1.385 . S
C1593 H1568 0.951 . S
C1593 C1591 1.388 . S
C1593 C1594 1.366 . S
C1594 C1593 1.366 . S
C1594 C1595 1.414 . S
C1594 C1597 1.499 . S
C1595 H1569 0.950 . S
C1595 C1594 1.414 . S
C1595 C1596 1.374 . S
C1596 H1570 0.950 . S
C1596 C1592 1.385 . S
C1596 C1595 1.374 . S
C1597 C1594 1.499 . S
C1597 C1598 1.373 . S
C1597 C1599 1.389 . S
C1598 H1571 0.950 . S
C1598 C1584 1.377 . S
C1598 C1597 1.373 . S
C1599 C1583 1.377 . S
C1599 C1597 1.389 . S
C1599 C1600 1.524 . S
C1600 C1599 1.524 . S
C1600 C1601 1.397 . S
C1600 C1605 1.363 . S
C1601 H1572 0.950 . S
C1601 C1600 1.397 . S
C1601 C1602 1.334 . S
C1602 H1573 0.950 . S
C1602 C1601 1.334 . S
C1602 C1603 1.287 . S
C1603 C1602 1.287 . S
C1603 C1604 1.524 . S
C1603 H1606 0.999 . S
C1604 H1574 0.950 . S
C1604 C1603 1.524 . S
C1604 C1605 1.415 . S
C1605 H1575 0.950 . S
C1605 C1600 1.363 . S
C1605 C1604 1.415 . S
H1606 C1603 0.999 . S
H1607 C1588 0.913 . S
H1608 C1626 0.951 . S
H1609 C1628 0.951 . S
H1610 C1630 0.950 . S
H1611 C1631 0.950 . S
H1612 C1633 0.950 . S
H1613 C1636 0.950 . S
H1614 C1637 0.950 . S
H1615 C1639 0.950 . S
H1616 C1640 0.950 . S
H1617 C1641 0.951 . S
H1618 C1643 0.951 . S
H1619 C1645 0.950 . S
H1620 C1646 0.950 . S
H1621 C1648 0.950 . S
H1622 C1651 0.950 . S
H1623 C1652 0.950 . S
H1624 C1654 0.950 . S
H1625 C1655 0.950 . S
C1626 H1608 0.951 . S
C1626 C1627 1.366 . S
C1626 C1628 1.388 . S
C1627 C1626 1.366 . S
C1627 C1631 1.385 . S
C1628 H1609 0.951 . S
C1628 C1626 1.388 . S
C1628 C1629 1.366 . S
C1629 C1628 1.366 . S
C1629 C1630 1.414 . S
C1629 C1632 1.499 . S
C1630 H1610 0.950 . S
C1630 C1629 1.414 . S
C1630 C1631 1.374 . S
C1631 H1611 0.950 . S
C1631 C1627 1.385 . S
C1631 C1630 1.374 . S
C1632 C1629 1.499 . S
C1632 C1633 1.373 . S
C1632 C1634 1.389 . S
C1633 H1612 0.950 . S
C1633 C1632 1.373 . S
C1633 C1649 1.377 . S
C1634 C1632 1.389 . S
C1634 C1635 1.524 . S
C1634 C1648 1.377 . S
C1635 C1634 1.524 . S
C1635 C1636 1.397 . S
C1635 C1640 1.363 . S
C1636 H1613 0.950 . S
C1636 C1635 1.397 . S
C1636 C1637 1.334 . S
C1637 H1614 0.950 . S
C1637 C1636 1.334 . S
C1637 C1638 1.287 . S
C1638 C1637 1.287 . S
C1638 C1639 1.524 . S
C1638 H1657 0.913 . S
C1639 H1615 0.950 . S
C1639 C1638 1.524 . S
C1639 C1640 1.415 . S
C1640 H1616 0.950 . S
C1640 C1635 1.363 . S
C1640 C1639 1.415 . S
C1641 H1617 0.951 . S
C1641 C1642 1.366 . S
C1641 C1643 1.388 . S
C1642 C1641 1.366 . S
C1642 C1646 1.385 . S
C1643 H1618 0.951 . S
C1643 C1641 1.388 . S
C1643 C1644 1.366 . S
C1644 C1643 1.366 . S
C1644 C1645 1.414 . S
C1644 C1647 1.499 . S
C1645 H1619 0.950 . S
C1645 C1644 1.414 . S
C1645 C1646 1.374 . S
C1646 H1620 0.950 . S
C1646 C1642 1.385 . S
C1646 C1645 1.374 . S
C1647 C1644 1.499 . S
C1647 C1648 1.373 . S
C1647 C1649 1.389 . S
C1648 H1621 0.950 . S
C1648 C1634 1.377 . S
C1648 C1647 1.373 . S
C1649 C1633 1.377 . S
C1649 C1647 1.389 . S
C1649 C1650 1.524 . S
C1650 C1649 1.524 . S
C1650 C1651 1.397 . S
C1650 C1655 1.363 . S
C1651 H1622 0.950 . S
C1651 C1650 1.397 . S
C1651 C1652 1.334 . S
C1652 H1623 0.950 . S
C1652 C1651 1.334 . S
C1652 C1653 1.287 . S
C1653 C1652 1.287 . S
C1653 C1654 1.524 . S
C1653 H1656 0.999 . S
C1654 H1624 0.950 . S
C1654 C1653 1.524 . S
C1654 C1655 1.415 . S
C1655 H1625 0.950 . S
C1655 C1650 1.363 . S
C1655 C1654 1.415 . S
H1656 C1653 0.999 . S
H1657 C1638 0.913 . S
H1658 C1676 0.951 . S
H1659 C1678 0.951 . S
H1660 C1680 0.950 . S
H1661 C1681 0.950 . S
H1662 C1683 0.950 . S
H1663 C1686 0.950 . S
H1664 C1687 0.950 . S
H1665 C1689 0.950 . S
H1666 C1690 0.950 . S
H1667 C1691 0.951 . S
H1668 C1693 0.951 . S
H1669 C1695 0.950 . S
H1670 C1696 0.950 . S
H1671 C1698 0.950 . S
H1672 C1701 0.950 . S
H1673 C1702 0.950 . S
H1674 C1704 0.950 . S
H1675 C1705 0.950 . S
C1676 H1658 0.951 . S
C1676 C1677 1.366 . S
C1676 C1678 1.388 . S
C1677 C1676 1.366 . S
C1677 C1681 1.385 . S
C1678 H1659 0.951 . S
C1678 C1676 1.388 . S
C1678 C1679 1.366 . S
C1679 C1678 1.366 . S
C1679 C1680 1.414 . S
C1679 C1682 1.499 . S
C1680 H1660 0.950 . S
C1680 C1679 1.414 . S
C1680 C1681 1.374 . S
C1681 H1661 0.950 . S
C1681 C1677 1.385 . S
C1681 C1680 1.374 . S
C1682 C1679 1.499 . S
C1682 C1683 1.373 . S
C1682 C1684 1.389 . S
C1683 H1662 0.950 . S
C1683 C1682 1.373 . S
C1683 C1699 1.377 . S
C1684 C1682 1.389 . S
C1684 C1685 1.524 . S
C1684 C1698 1.377 . S
C1685 C1684 1.524 . S
C1685 C1686 1.397 . S
C1685 C1690 1.363 . S
C1686 H1663 0.950 . S
C1686 C1685 1.397 . S
C1686 C1687 1.334 . S
C1687 H1664 0.950 . S
C1687 C1686 1.334 . S
C1687 C1688 1.287 . S
C1688 C1687 1.287 . S
C1688 C1689 1.524 . S
C1688 H1707 0.913 . S
C1689 H1665 0.950 . S
C1689 C1688 1.524 . S
C1689 C1690 1.415 . S
C1690 H1666 0.950 . S
C1690 C1685 1.363 . S
C1690 C1689 1.415 . S
C1691 H1667 0.951 . S
C1691 C1692 1.366 . S
C1691 C1693 1.388 . S
C1692 C1691 1.366 . S
C1692 C1696 1.385 . S
C1693 H1668 0.951 . S
C1693 C1691 1.388 . S
C1693 C1694 1.366 . S
C1694 C1693 1.366 . S
C1694 C1695 1.414 . S
C1694 C1697 1.499 . S
C1695 H1669 0.950 . S
C1695 C1694 1.414 . S
C1695 C1696 1.374 . S
C1696 H1670 0.950 . S
C1696 C1692 1.385 . S
C1696 C1695 1.374 . S
C1697 C1694 1.499 . S
C1697 C1698 1.373 . S
C1697 C1699 1.389 . S
C1698 H1671 0.950 . S
C1698 C1684 1.377 . S
C1698 C1697 1.373 . S
C1699 C1683 1.377 . S
C1699 C1697 1.389 . S
C1699 C1700 1.524 . S
C1700 C1699 1.524 . S
C1700 C1701 1.397 . S
C1700 C1705 1.363 . S
C1701 H1672 0.950 . S
C1701 C1700 1.397 . S
C1701 C1702 1.334 . S
C1702 H1673 0.950 . S
C1702 C1701 1.334 . S
C1702 C1703 1.287 . S
C1703 C1702 1.287 . S
C1703 C1704 1.524 . S
C1703 H1706 0.999 . S
C1704 H1674 0.950 . S
C1704 C1703 1.524 . S
C1704 C1705 1.415 . S
C1705 H1675 0.950 . S
C1705 C1700 1.363 . S
C1705 C1704 1.415 . S
H1706 C1703 0.999 . S
H1707 C1688 0.913 . S
H1708 C1726 0.951 . S
H1709 C1728 0.951 . S
H1710 C1730 0.950 . S
H1711 C1731 0.950 . S
H1712 C1733 0.950 . S
H1713 C1736 0.950 . S
H1714 C1737 0.950 . S
H1715 C1739 0.950 . S
H1716 C1740 0.950 . S
H1717 C1741 0.951 . S
H1718 C1743 0.951 . S
H1719 C1745 0.950 . S
H1720 C1746 0.950 . S
H1721 C1748 0.950 . S
H1722 C1751 0.950 . S
H1723 C1752 0.950 . S
H1724 C1754 0.950 1_565 S
H1725 C1755 0.950 . S
C1726 H1708 0.951 . S
C1726 C1727 1.366 . S
C1726 C1728 1.388 . S
C1727 C1726 1.366 . S
C1727 C1731 1.385 . S
C1728 H1709 0.951 . S
C1728 C1726 1.388 . S
C1728 C1729 1.366 . S
C1729 C1728 1.366 . S
C1729 C1730 1.414 . S
C1729 C1732 1.499 . S
C1730 H1710 0.950 . S
C1730 C1729 1.414 . S
C1730 C1731 1.374 . S
C1731 H1711 0.950 . S
C1731 C1727 1.385 . S
C1731 C1730 1.374 . S
C1732 C1729 1.499 . S
C1732 C1733 1.373 . S
C1732 C1734 1.389 . S
C1733 H1712 0.950 . S
C1733 C1732 1.373 . S
C1733 C1749 1.377 . S
C1734 C1732 1.389 . S
C1734 C1735 1.524 . S
C1734 C1748 1.377 . S
C1735 C1734 1.524 . S
C1735 C1736 1.397 . S
C1735 C1740 1.363 . S
C1736 H1713 0.950 . S
C1736 C1735 1.397 . S
C1736 C1737 1.334 . S
C1737 H1714 0.950 . S
C1737 C1736 1.334 . S
C1737 C1738 1.287 . S
C1738 C1737 1.287 . S
C1738 C1739 1.524 . S
C1738 H1757 0.913 . S
C1739 H1715 0.950 . S
C1739 C1738 1.524 . S
C1739 C1740 1.415 . S
C1740 H1716 0.950 . S
C1740 C1735 1.363 . S
C1740 C1739 1.415 . S
C1741 H1717 0.951 . S
C1741 C1742 1.366 . S
C1741 C1743 1.388 . S
C1742 C1741 1.366 . S
C1742 C1746 1.385 . S
C1743 H1718 0.951 . S
C1743 C1741 1.388 . S
C1743 C1744 1.366 . S
C1744 C1743 1.366 . S
C1744 C1745 1.414 . S
C1744 C1747 1.499 . S
C1745 H1719 0.950 . S
C1745 C1744 1.414 . S
C1745 C1746 1.374 . S
C1746 H1720 0.950 . S
C1746 C1742 1.385 . S
C1746 C1745 1.374 . S
C1747 C1744 1.499 . S
C1747 C1748 1.373 . S
C1747 C1749 1.389 . S
C1748 H1721 0.950 . S
C1748 C1734 1.377 . S
C1748 C1747 1.373 . S
C1749 C1733 1.377 . S
C1749 C1747 1.389 . S
C1749 C1750 1.524 . S
C1750 C1749 1.524 . S
C1750 C1751 1.397 . S
C1750 C1755 1.363 . S
C1751 H1722 0.950 . S
C1751 C1750 1.397 . S
C1751 C1752 1.334 . S
C1752 H1723 0.950 . S
C1752 C1751 1.334 . S
C1752 C1753 1.283 1_545 S
C1753 C1752 1.283 1_565 S
C1753 C1754 1.518 1_565 S
C1753 H1756 1.010 . S
C1754 H1724 0.950 1_545 S
C1754 C1753 1.518 1_545 S
C1754 C1755 1.415 . S
C1755 H1725 0.950 . S
C1755 C1750 1.363 . S
C1755 C1754 1.415 . S
H1756 C1753 1.010 . S
H1757 C1738 0.913 . S
H1758 C1776 0.951 . S
H1759 C1778 0.951 . S
H1760 C1780 0.950 . S
H1761 C1781 0.950 . S
H1762 C1783 0.950 . S
H1763 C1786 0.950 . S
H1764 C1787 0.950 . S
H1765 C1789 0.950 . S
H1766 C1790 0.950 . S
H1767 C1791 0.951 . S
H1768 C1793 0.951 . S
H1769 C1795 0.950 . S
H1770 C1796 0.950 . S
H1771 C1798 0.950 . S
H1772 C1801 0.950 . S
H1773 C1802 0.950 . S
H1774 C1804 0.950 . S
H1775 C1805 0.950 . S
C1776 H1758 0.951 . S
C1776 C1777 1.366 . S
C1776 C1778 1.388 . S
C1777 C1776 1.366 . S
C1777 C1781 1.385 . S
C1778 H1759 0.951 . S
C1778 C1776 1.388 . S
C1778 C1779 1.366 . S
C1779 C1778 1.366 . S
C1779 C1780 1.414 . S
C1779 C1782 1.499 . S
C1780 H1760 0.950 . S
C1780 C1779 1.414 . S
C1780 C1781 1.374 . S
C1781 H1761 0.950 . S
C1781 C1777 1.385 . S
C1781 C1780 1.374 . S
C1782 C1779 1.499 . S
C1782 C1783 1.373 . S
C1782 C1784 1.389 . S
C1783 H1762 0.950 . S
C1783 C1782 1.373 . S
C1783 C1799 1.377 . S
C1784 C1782 1.389 . S
C1784 C1785 1.524 . S
C1784 C1798 1.377 . S
C1785 C1784 1.524 . S
C1785 C1786 1.397 . S
C1785 C1790 1.363 . S
C1786 H1763 0.950 . S
C1786 C1785 1.397 . S
C1786 C1787 1.334 . S
C1787 H1764 0.950 . S
C1787 C1786 1.334 . S
C1787 C1788 1.287 . S
C1788 C1787 1.287 . S
C1788 C1789 1.524 . S
C1788 H1807 0.913 . S
C1789 H1765 0.950 . S
C1789 C1788 1.524 . S
C1789 C1790 1.415 . S
C1790 H1766 0.950 . S
C1790 C1785 1.363 . S
C1790 C1789 1.415 . S
C1791 H1767 0.951 . S
C1791 C1792 1.366 . S
C1791 C1793 1.388 . S
C1792 C1791 1.366 . S
C1792 C1796 1.385 . S
C1793 H1768 0.951 . S
C1793 C1791 1.388 . S
C1793 C1794 1.366 . S
C1794 C1793 1.366 . S
C1794 C1795 1.414 . S
C1794 C1797 1.499 . S
C1795 H1769 0.950 . S
C1795 C1794 1.414 . S
C1795 C1796 1.374 . S
C1796 H1770 0.950 . S
C1796 C1792 1.385 . S
C1796 C1795 1.374 . S
C1797 C1794 1.499 . S
C1797 C1798 1.373 . S
C1797 C1799 1.389 . S
C1798 H1771 0.950 . S
C1798 C1784 1.377 . S
C1798 C1797 1.373 . S
C1799 C1783 1.377 . S
C1799 C1797 1.389 . S
C1799 C1800 1.524 . S
C1800 C1799 1.524 . S
C1800 C1801 1.397 . S
C1800 C1805 1.363 . S
C1801 H1772 0.950 . S
C1801 C1800 1.397 . S
C1801 C1802 1.334 . S
C1802 H1773 0.950 . S
C1802 C1801 1.334 . S
C1802 C1803 1.287 . S
C1803 C1802 1.287 . S
C1803 C1804 1.524 . S
C1803 H1806 0.999 . S
C1804 H1774 0.950 . S
C1804 C1803 1.524 . S
C1804 C1805 1.415 . S
C1805 H1775 0.950 . S
C1805 C1800 1.363 . S
C1805 C1804 1.415 . S
H1806 C1803 0.999 . S
H1807 C1788 0.913 . S
H1808 C1826 0.951 . S
H1809 C1828 0.951 . S
H1810 C1830 0.950 . S
H1811 C1831 0.950 . S
H1812 C1833 0.950 . S
H1813 C1836 0.950 . S
H1814 C1837 0.950 . S
H1815 C1839 0.950 . S
H1816 C1840 0.950 . S
H1817 C1841 0.951 . S
H1818 C1843 0.951 . S
H1819 C1845 0.950 . S
H1820 C1846 0.950 . S
H1821 C1848 0.950 . S
H1822 C1851 0.950 . S
H1823 C1852 0.950 . S
H1824 C1854 0.950 . S
H1825 C1855 0.950 . S
C1826 H1808 0.951 . S
C1826 C1827 1.366 . S
C1826 C1828 1.388 . S
C1827 C1826 1.366 . S
C1827 C1831 1.385 . S
C1828 H1809 0.951 . S
C1828 C1826 1.388 . S
C1828 C1829 1.366 . S
C1829 C1828 1.366 . S
C1829 C1830 1.414 . S
C1829 C1832 1.499 . S
C1830 H1810 0.950 . S
C1830 C1829 1.414 . S
C1830 C1831 1.374 . S
C1831 H1811 0.950 . S
C1831 C1827 1.385 . S
C1831 C1830 1.374 . S
C1832 C1829 1.499 . S
C1832 C1833 1.373 . S
C1832 C1834 1.389 . S
C1833 H1812 0.950 . S
C1833 C1832 1.373 . S
C1833 C1849 1.377 . S
C1834 C1832 1.389 . S
C1834 C1835 1.524 . S
C1834 C1848 1.377 . S
C1835 C1834 1.524 . S
C1835 C1836 1.397 . S
C1835 C1840 1.363 . S
C1836 H1813 0.950 . S
C1836 C1835 1.397 . S
C1836 C1837 1.334 . S
C1837 H1814 0.950 . S
C1837 C1836 1.334 . S
C1837 C1838 1.287 . S
C1838 C1837 1.287 . S
C1838 C1839 1.524 . S
C1838 H1857 0.913 . S
C1839 H1815 0.950 . S
C1839 C1838 1.524 . S
C1839 C1840 1.415 . S
C1840 H1816 0.950 . S
C1840 C1835 1.363 . S
C1840 C1839 1.415 . S
C1841 H1817 0.951 . S
C1841 C1842 1.366 . S
C1841 C1843 1.388 . S
C1842 C1841 1.366 . S
C1842 C1846 1.385 . S
C1843 H1818 0.951 . S
C1843 C1841 1.388 . S
C1843 C1844 1.366 . S
C1844 C1843 1.366 . S
C1844 C1845 1.414 . S
C1844 C1847 1.499 . S
C1845 H1819 0.950 . S
C1845 C1844 1.414 . S
C1845 C1846 1.374 . S
C1846 H1820 0.950 . S
C1846 C1842 1.385 . S
C1846 C1845 1.374 . S
C1847 C1844 1.499 . S
C1847 C1848 1.373 . S
C1847 C1849 1.389 . S
C1848 H1821 0.950 . S
C1848 C1834 1.377 . S
C1848 C1847 1.373 . S
C1849 C1833 1.377 . S
C1849 C1847 1.389 . S
C1849 C1850 1.524 . S
C1850 C1849 1.524 . S
C1850 C1851 1.397 . S
C1850 C1855 1.363 . S
C1851 H1822 0.950 . S
C1851 C1850 1.397 . S
C1851 C1852 1.334 . S
C1852 H1823 0.950 . S
C1852 C1851 1.334 . S
C1852 C1853 1.287 . S
C1853 C1852 1.287 . S
C1853 C1854 1.524 . S
C1853 H1856 0.999 . S
C1854 H1824 0.950 . S
C1854 C1853 1.524 . S
C1854 C1855 1.415 . S
C1855 H1825 0.950 . S
C1855 C1850 1.363 . S
C1855 C1854 1.415 . S
H1856 C1853 0.999 . S
H1857 C1838 0.913 . S
H1858 C1876 0.951 . S
H1859 C1878 0.951 . S
H1860 C1880 0.950 . S
H1861 C1881 0.950 . S
H1862 C1883 0.950 . S
H1863 C1886 0.950 . S
H1864 C1887 0.950 . S
H1865 C1889 0.950 . S
H1866 C1890 0.950 . S
H1867 C1891 0.951 . S
H1868 C1893 0.951 . S
H1869 C1895 0.950 . S
H1870 C1896 0.950 . S
H1871 C1898 0.950 . S
H1872 C1901 0.950 . S
H1873 C1902 0.950 . S
H1874 C1904 0.950 . S
H1875 C1905 0.950 . S
C1876 H1858 0.951 . S
C1876 C1877 1.366 . S
C1876 C1878 1.388 . S
C1877 C1876 1.366 . S
C1877 C1881 1.385 . S
C1878 H1859 0.951 . S
C1878 C1876 1.388 . S
C1878 C1879 1.366 . S
C1879 C1878 1.366 . S
C1879 C1880 1.414 . S
C1879 C1882 1.499 . S
C1880 H1860 0.950 . S
C1880 C1879 1.414 . S
C1880 C1881 1.374 . S
C1881 H1861 0.950 . S
C1881 C1877 1.385 . S
C1881 C1880 1.374 . S
C1882 C1879 1.499 . S
C1882 C1883 1.373 . S
C1882 C1884 1.389 . S
C1883 H1862 0.950 . S
C1883 C1882 1.373 . S
C1883 C1899 1.377 . S
C1884 C1882 1.389 . S
C1884 C1885 1.524 . S
C1884 C1898 1.377 . S
C1885 C1884 1.524 . S
C1885 C1886 1.397 . S
C1885 C1890 1.363 . S
C1886 H1863 0.950 . S
C1886 C1885 1.397 . S
C1886 C1887 1.334 . S
C1887 H1864 0.950 . S
C1887 C1886 1.334 . S
C1887 C1888 1.287 . S
C1888 C1887 1.287 . S
C1888 C1889 1.524 . S
C1888 H1907 0.913 . S
C1889 H1865 0.950 . S
C1889 C1888 1.524 . S
C1889 C1890 1.415 . S
C1890 H1866 0.950 . S
C1890 C1885 1.363 . S
C1890 C1889 1.415 . S
C1891 H1867 0.951 . S
C1891 C1892 1.366 . S
C1891 C1893 1.388 . S
C1892 C1891 1.366 . S
C1892 C1896 1.385 . S
C1893 H1868 0.951 . S
C1893 C1891 1.388 . S
C1893 C1894 1.366 . S
C1894 C1893 1.366 . S
C1894 C1895 1.414 . S
C1894 C1897 1.499 . S
C1895 H1869 0.950 . S
C1895 C1894 1.414 . S
C1895 C1896 1.374 . S
C1896 H1870 0.950 . S
C1896 C1892 1.385 . S
C1896 C1895 1.374 . S
C1897 C1894 1.499 . S
C1897 C1898 1.373 . S
C1897 C1899 1.389 . S
C1898 H1871 0.950 . S
C1898 C1884 1.377 . S
C1898 C1897 1.373 . S
C1899 C1883 1.377 . S
C1899 C1897 1.389 . S
C1899 C1900 1.524 . S
C1900 C1899 1.524 . S
C1900 C1901 1.397 . S
C1900 C1905 1.363 . S
C1901 H1872 0.950 . S
C1901 C1900 1.397 . S
C1901 C1902 1.334 . S
C1902 H1873 0.950 . S
C1902 C1901 1.334 . S
C1902 C1903 1.287 . S
C1903 C1902 1.287 . S
C1903 C1904 1.524 . S
C1903 H1906 0.999 . S
C1904 H1874 0.950 . S
C1904 C1903 1.524 . S
C1904 C1905 1.415 . S
C1905 H1875 0.950 . S
C1905 C1900 1.363 . S
C1905 C1904 1.415 . S
H1906 C1903 0.999 . S
H1907 C1888 0.913 . S
C427 C111 1.667 . S
C442 C9 1.667 . S
C477 C43 1.667 . S
C492 C145 1.667 . S
C527 C77 1.667 . S
C542 C179 1.667 . S
C577 C213 1.667 . S
C592 C315 1.667 . S
C627 C349 1.667 . S
C642 C247 1.667 . S
C677 C383 1.667 . S
C692 C281 1.667 . S
C727 C271 0.871 . S
C742 C33 0.871 . S
C777 C67 0.870 . S
C792 C305 0.872 . S
C827 C339 0.872 . S
C842 C101 0.870 . S
C877 C135 0.872 . S
C892 C373 0.870 . S
C927 C407 0.870 . S
C942 C169 0.871 . S
C977 C203 0.871 . S
C992 C237 0.871 . S
C1027 C5 0.395 . S
C1042 C107 0.396 . S
C1077 C39 0.393 . S
C1092 C141 0.393 . S
C1127 C73 0.394 . S
C1142 C175 0.394 . S
C1177 C209 0.393 . S
C1192 C311 0.393 . S
C1227 C243 0.394 . S
C1242 C345 0.393 . S
C1277 C277 0.395 . S
C1292 C379 0.394 . S
C1327 C342 1.363 . S
C1342 C2 1.362 . S
C1377 C36 1.363 . S
C1392 C376 1.363 . S
C1427 C206 1.363 . S
C1442 C70 1.362 . S
C1477 C104 1.363 . S
C1492 C240 1.362 . S
C1527 C274 1.363 . S
C1542 C138 1.362 . S
C1577 C172 1.363 . S
C1592 C308 1.363 . S
C1627 C20 1.785 . S
C1642 C292 1.785 . S
C1677 C54 1.785 . S
C1692 C326 1.784 . S
C1727 C360 1.785 . S
C1742 C88 1.785 . S
C1777 C394 1.785 . S
C1792 C122 1.784 . S
C1827 C156 1.785 . S
C1842 C224 1.785 . S
C1877 C190 1.785 . S
C1892 C258 1.785 . S
