# Generated by pormake.
# Topology qtz-x, (6)-cn, num edge types: 1
# Building blocks:
#     Node 0, Type 0, BuildingBlock: BETGAK_clean_sbu_0, # of connection points: 6
#     Node 1, Type 0, BuildingBlock: BETGAK_clean_sbu_0, # of connection points: 6
#     Node 2, Type 0, BuildingBlock: BETGAK_clean_sbu_0, # of connection points: 6
#     Edge 3, Type (0, 0), BuildingBlock: XUDNAN_clean_linker_2, # of connection points: 2
#     Edge 4, Type (0, 0), BuildingBlock: XUDNAN_clean_linker_2, # of connection points: 2
#     Edge 5, Type (0, 0), BuildingBlock: XUDNAN_clean_linker_2, # of connection points: 2
#     Edge 6, Type (0, 0), BuildingBlock: XUDNAN_clean_linker_2, # of connection points: 2
#     Edge 7, Type (0, 0), BuildingBlock: XUDNAN_clean_linker_2, # of connection points: 2
#     Edge 8, Type (0, 0), BuildingBlock: XUDNAN_clean_linker_2, # of connection points: 2
#     Edge 9, Type (0, 0), BuildingBlock: XUDNAN_clean_linker_2, # of connection points: 2
#     Edge 10, Type (0, 0), BuildingBlock: XUDNAN_clean_linker_2, # of connection points: 2
#     Edge 11, Type (0, 0), BuildingBlock: XUDNAN_clean_linker_2, # of connection points: 2
# Relax obj value: 0.241
# Max RMSD: 0.267
# Mean RMSD: 0.242
data_MOF--net-qtz-x--node1-BETGAK_clean_sbu_0--edge1-XUDNAN_clean_linker_2
_symmetry_space_group_name_H-M    P1
_symmetry_Int_Tables_number       1
_symmetry_cell_setting            triclinic
loop_
_symmetry_equiv_pos_as_xyz
'x, y, z'
_cell_length_a     14.705762
_cell_length_b     14.813021
_cell_length_c     52.565009
_cell_angle_alpha  69.236654
_cell_angle_beta   113.60544
_cell_angle_gamma 121.10547
loop_
_atom_site_label
_atom_site_type_symbol
_atom_site_fract_x
_atom_site_fract_y
_atom_site_fract_z
_atom_type_partial_charge
La0 La 1.02144 0.62311 0.19834 0.0
La1 La 0.23563 0.74314 0.1914 0.0
C2 C 0.86055 0.48953 0.21911 0.0
C3 C 0.84802 0.45864 0.24817 0.0
C4 C 0.78132 0.48771 0.25358 0.0
C5 C 0.77604 0.46833 0.28115 0.0
C6 C 0.83659 0.41843 0.30408 0.0
C7 C 0.90029 0.38574 0.29858 0.0
C8 C 0.9062 0.40584 0.27097 0.0
C9 C 0.07826 0.8324 0.18606 0.0
C10 C 0.22793 0.68396 0.2519 0.0
C11 C 0.40276 0.8656 0.1728 0.0
C12 C 0.431 0.85511 0.1503 0.0
C13 C 0.41205 0.75413 0.14841 0.0
C14 C 0.42465 0.74111 0.12517 0.0
C15 C 0.45509 0.82834 0.10304 0.0
C16 C 0.47753 0.93016 0.1054 0.0
C17 C 0.46552 0.94332 0.12882 0.0
C18 C 0.16548 0.53003 0.19915 0.0
C19 C 1.02909 0.69215 0.1365 0.0
O20 O 0.87545 0.58729 0.20612 0.0
O21 O 0.92549 0.46315 0.21515 0.0
O22 O 0.98334 0.75815 0.17611 0.0
O23 O 0.14157 0.78896 0.20312 0.0
O24 O 0.12946 0.61095 0.24151 0.0
O25 O 0.28338 0.76353 0.23455 0.0
O26 O 0.40255 0.79277 0.19587 0.0
O27 O 0.31593 0.88329 0.16439 0.0
O28 O 0.26363 0.59708 0.21015 0.0
O29 O 0.11159 0.58364 0.18419 0.0
O30 O 0.13327 0.75545 0.14737 0.0
O31 O 0.9667 0.61841 0.15337 0.0
H32 H 0.7349 0.52773 0.23649 0.0
H33 H 0.72484 0.49309 0.28456 0.0
H34 H 0.94846 0.34773 0.31575 0.0
H35 H 0.95833 0.38207 0.26764 0.0
H36 H 0.38402 0.68414 0.16446 0.0
H37 H 0.40798 0.66191 0.12423 0.0
H38 H 0.49946 -0.00125 0.08855 0.0
H39 H 0.47913 0.02156 0.12963 0.0
La40 La 0.90612 0.21064 0.56689 0.0
La41 La 0.79628 -0.00235 0.55558 0.0
C42 C 0.97912 0.37407 0.58706 0.0
C43 C 1.00808 0.39121 0.61592 0.0
C44 C 0.11701 0.41972 0.63322 0.0
C45 C 0.14438 0.43285 0.66077 0.0
C46 C 1.06374 0.41911 0.6715 0.0
C47 C 0.95506 0.39171 0.65415 0.0
C48 C 0.92743 0.37779 0.62665 0.0
C49 C 1.03816 0.14861 0.56151 0.0
C50 C 0.87146 0.01249 0.61845 0.0
C51 C 0.73144 0.83541 0.53564 0.0
C52 C 0.67838 0.80703 0.50709 0.0
C53 C 0.56973 0.72652 0.50103 0.0
C54 C 0.51685 0.69868 0.47429 0.0
C55 C 0.57166 0.74951 0.45285 0.0
C56 C 0.68093 0.83011 0.45897 0.0
C57 C 0.7336 0.8587 0.48574 0.0
C58 C 0.66259 0.04741 0.56391 0.0
C59 C 0.82631 0.20109 0.50415 0.0
O60 O 1.04149 0.34546 0.58283 0.0
O61 O 0.8747 0.31936 0.57517 0.0
O62 O 1.04048 0.24286 0.55105 0.0
O63 O 0.96433 0.09349 0.57456 0.0
O64 O 0.88067 0.11119 0.60812 0.0
O65 O 0.85532 0.95393 0.60161 0.0
O66 O 0.67161 0.84726 0.54591 0.0
O67 O 0.8337 0.90892 0.54087 0.0
O68 O 0.66336 0.95457 0.57206 0.0
O69 O 0.73342 0.11091 0.54979 0.0
O70 O 0.80733 0.09902 0.51332 0.0
O71 O 0.85416 0.26138 0.52178 0.0
H72 H 0.18134 0.43173 0.62551 0.0
H73 H 0.22916 0.4557 0.67351 0.0
H74 H 0.89104 0.37986 0.66196 0.0
H75 H 0.84281 0.35608 0.61388 0.0
H76 H 0.52503 0.68533 0.51701 0.0
H77 H 0.43213 0.63793 0.47039 0.0
H78 H 0.72658 0.87029 0.44324 0.0
H79 H 0.81755 0.92107 0.48967 0.0
La80 La 0.82618 0.88969 0.86373 0.0
La81 La 0.98137 0.7926 0.88761 0.0
C82 C 0.66889 0.93102 0.85523 0.0
C83 C 0.60645 0.91189 0.87436 0.0
C84 C 0.63029 -0.00335 0.88579 0.0
C85 C 0.58814 -0.02355 0.90785 0.0
C86 C 0.52268 0.87063 0.91939 0.0
C87 C 0.49177 0.78706 0.90626 0.0
C88 C 0.53138 0.80789 0.88367 0.0
C89 C 1.03651 0.03018 0.86764 0.0
C90 C 0.91109 0.821 0.93076 0.0
C91 C 0.14251 0.75582 0.89741 0.0
C92 C 0.17448 0.72419 0.8798 0.0
C93 C 0.17138 0.62195 0.88721 0.0
C94 C 0.18383 0.58401 0.86855 0.0
C95 C 0.19905 0.64765 0.84211 0.0
C96 C 0.20939 0.75255 0.83553 0.0
C97 C 0.19726 0.79054 0.85417 0.0
C98 C 0.77365 0.65022 0.88405 0.0
C99 C 0.88957 0.85335 0.81965 0.0
O100 O 0.77281 0.00023 0.86124 0.0
O101 O 0.65577 0.84632 0.84887 0.0
O102 O 0.95288 0.03983 0.84764 0.0
O103 O 0.99959 0.94729 0.88572 0.0
O104 O 0.82904 0.83112 0.9089 0.0
O105 O 0.99511 0.82225 0.92693 0.0
O106 O 1.05173 0.68408 0.90463 0.0
O107 O 0.14757 0.85233 0.88943 0.0
O108 O 0.85712 0.63922 0.90375 0.0
O109 O 0.80813 0.73462 0.8661 0.0
O110 O 0.95809 0.82072 0.8417 0.0
O111 O 0.82169 0.87921 0.8229 0.0
H112 H 0.68525 0.07831 0.87845 0.0
H113 H 0.60981 0.04392 0.91631 0.0
H114 H 0.44122 0.70437 0.91411 0.0
H115 H 0.50696 0.74147 0.8744 0.0
H116 H 0.15436 0.5695 0.9069 0.0
H117 H 0.1752 0.50276 0.87415 0.0
H118 H 0.22315 0.80406 0.81549 0.0
H119 H 0.201 0.87012 0.84786 0.0
H120 H 0.23423 -0.00549 0.21916 0.0
H121 H 0.94366 0.91767 0.1475 0.0
H122 H 0.93543 0.08262 0.14405 0.0
H123 H 0.1515 0.11043 0.25059 0.0
H124 H 0.28577 0.21875 0.26078 0.0
H125 H 0.27413 0.09535 0.25787 0.0
H126 H 0.3938 0.20067 0.22264 0.0
H127 H 0.40667 0.32451 0.22565 0.0
H128 H 0.35412 0.28914 0.19141 0.0
H129 H 0.94641 0.24716 0.14945 0.0
H130 H 0.98987 0.41591 0.16041 0.0
H131 H 0.27963 0.40292 0.22684 0.0
C132 C 0.17013 0.01351 0.20253 0.0
C133 C 0.08898 0.94148 0.1837 0.0
C134 C 1.00633 0.96994 0.16236 0.0
C135 C 1.00066 0.06399 0.16017 0.0
C136 C 0.0791 0.13157 0.17926 0.0
C137 C 0.16364 0.10933 0.19978 0.0
C138 C 0.23707 0.19836 0.21726 0.0
C139 C 0.23709 0.15298 0.24848 0.0
C140 C 0.35492 0.25663 0.21404 0.0
C141 C 0.17928 0.27215 0.2035 0.0
C142 C 0.08786 0.2308 0.18175 0.0
C143 C 1.01853 0.28108 0.16625 0.0
C144 C 1.04371 0.37705 0.17273 0.0
C145 C 0.13833 0.42373 0.19437 0.0
C146 C 0.20686 0.3698 0.21006 0.0
H147 H 0.5764 0.20268 0.53497 0.0
H148 H 0.54847 0.92254 0.60214 0.0
H149 H 0.3904 0.91974 0.60812 0.0
H150 H 0.49759 0.32709 0.56828 0.0
H151 H 0.41996 0.37732 0.53522 0.0
H152 H 0.53526 0.36191 0.53622 0.0
H153 H 0.40867 0.24245 0.49835 0.0
H154 H 0.29286 0.25675 0.49743 0.0
H155 H 0.28496 0.12488 0.50462 0.0
H156 H 0.22657 0.93414 0.60532 0.0
H157 H 0.07614 -0.02096 0.59711 0.0
H158 H 0.20461 0.25588 0.53373 0.0
C159 C 0.53788 0.14201 0.55118 0.0
C160 C 0.5755 0.06206 0.56792 0.0
C161 C 0.52165 -0.01598 0.58877 0.0
C162 C 0.43111 -0.01849 0.59242 0.0
C163 C 0.39389 0.05841 0.57528 0.0
C164 C 0.44599 0.13855 0.55534 0.0
C165 C 0.38679 0.2109 0.54 0.0
C166 C 0.46453 0.32616 0.54525 0.0
C167 C 0.34059 0.20859 0.50821 0.0
C168 C 0.29347 0.15753 0.55425 0.0
C169 C 0.29957 0.06924 0.5744 0.0
C170 C 0.22162 0.00393 0.58982 0.0
C171 C 0.13586 0.02988 0.58493 0.0
C172 C 0.12814 0.12127 0.56496 0.0
C173 C 0.20839 0.18583 0.54933 0.0
H174 H 0.23462 0.08819 0.859 0.0
H175 H 0.07682 0.19021 0.89011 0.0
H176 H 0.24756 0.35924 0.89753 0.0
H177 H 0.51122 0.20423 0.90761 0.0
H178 H 0.58185 0.24293 0.88157 0.0
H179 H 0.4492 0.12818 0.87997 0.0
H180 H 0.37422 0.21152 0.82856 0.0
H181 H 0.50663 0.32656 0.83012 0.0
H182 H 0.38443 0.34446 0.82095 0.0
H183 H 0.43473 0.51901 0.90097 0.0
H184 H 0.6254 0.65694 0.90041 0.0
H185 H 0.66358 0.45697 0.86598 0.0
C186 C 0.23707 0.14571 0.86777 0.0
C187 C 0.14321 0.12575 0.87442 0.0
C188 C 0.14838 0.20351 0.88529 0.0
C189 C 0.24485 0.29987 0.88944 0.0
C190 C 0.33586 0.31798 0.88249 0.0
C191 C 0.33321 0.24293 0.872 0.0
C192 C 0.44249 0.28327 0.86597 0.0
C193 C 0.49956 0.21035 0.88491 0.0
C194 C 0.42586 0.29198 0.83454 0.0
C195 C 0.50583 0.39361 0.87406 0.0
C196 C 0.44291 0.41138 0.88379 0.0
C197 C 0.48403 0.50626 0.89308 0.0
C198 C 0.59172 0.58496 0.89234 0.0
C199 C 0.65713 0.56957 0.88213 0.0
C200 C 0.61394 0.472 0.87315 0.0
H201 H 0.63977 -0.01848 0.96375 0.0
H202 H 0.3376 0.70494 0.93588 0.0
H203 H 0.29528 0.6593 0.98075 0.0
H204 H 0.70758 0.8654 1.03664 0.0
H205 H 0.75531 -0.01464 0.04912 0.0
H206 H 0.7652 -0.00458 1.01506 0.0
H207 H 0.65359 0.10767 0.9911 0.0
H208 H 0.64469 0.09941 1.02511 0.0
H209 H 0.52069 0.05527 0.99682 0.0
H210 H 0.28938 0.63876 1.02956 0.0
H211 H 0.30513 0.65926 0.07579 0.0
H212 H 0.60173 0.95818 0.07033 0.0
C213 C 0.56341 0.91239 0.96659 0.0
C214 C 0.49241 0.84694 0.94583 0.0
C215 C 0.39484 0.75589 0.95127 0.0
C216 C 0.36969 0.72919 0.9768 0.0
C217 C 0.44219 0.79478 0.99675 0.0
C218 C 0.53601 0.88553 0.99176 0.0
C219 C 0.5979 0.94486 1.01628 0.0
C220 C 0.71332 0.94789 1.03009 0.0
C221 C 0.60456 0.05852 1.00676 0.0
C222 C 0.52347 0.87358 1.03574 0.0
C223 C 0.43547 0.78627 1.02429 0.0
C224 C 0.35743 0.70728 1.03864 0.0
C225 C 0.36779 0.71932 0.06506 0.0
C226 C 0.45385 0.81115 0.07662 0.0
C227 C 0.53371 0.88823 0.06185 0.0
H228 H 0.80536 0.11233 0.46284 0.0
H229 H 0.84318 0.4029 0.47698 0.0
H230 H 0.84983 0.48935 0.42764 0.0
H231 H 0.98893 0.23949 0.41938 0.0
H232 H 0.90628 0.14406 0.39597 0.0
H233 H 0.90002 0.10298 0.43208 0.0
H234 H 0.68751 0.04057 0.41576 0.0
H235 H 0.69528 0.07515 0.37987 0.0
H236 H 0.63235 0.13034 0.38966 0.0
H237 H 0.85387 0.54505 0.37665 0.0
H238 H 0.85539 0.56583 0.32806 0.0
H239 H 0.81761 0.24025 0.34701 0.0
C240 C 0.81411 0.19385 0.45555 0.0
C241 C 0.82323 0.25046 0.4739 0.0
C242 C 0.83563 0.35745 0.46342 0.0
C243 C 0.8397 0.40746 0.43539 0.0
C244 C 0.83169 0.34979 0.41799 0.0
C245 C 0.81907 0.24535 0.42765 0.0
C246 C 0.81299 0.20144 0.40467 0.0
C247 C 0.90774 0.17019 0.41357 0.0
C248 C 0.70023 0.10615 0.397 0.0
C249 C 0.82582 0.29784 0.38067 0.0
C250 C 0.83552 0.38231 0.38875 0.0
C251 C 0.84609 0.47929 0.3701 0.0
C252 C 0.84625 0.49013 0.34247 0.0
C253 C 0.83633 0.40472 0.33361 0.0
C254 C 0.82646 0.30745 0.35316 0.0
H255 H 0.84517 -0.00771 0.7703 0.0
H256 H 0.93585 0.72826 0.80357 0.0
H257 H 0.93638 0.73604 0.75585 0.0
H258 H 0.67038 0.92634 0.70161 0.0
H259 H 0.71986 0.06376 0.68314 0.0
H260 H 0.72052 0.03359 0.71955 0.0
H261 H 0.92978 0.16017 0.73252 0.0
H262 H 0.92934 0.1899 0.69618 0.0
H263 H 1.02276 0.13904 0.72356 0.0
H264 H 0.91657 0.76674 0.70311 0.0
H265 H 0.90656 0.83565 0.65211 0.0
H266 H 0.84506 0.08921 0.65425 0.0
C267 C 0.86378 0.93525 0.76745 0.0
C268 C 0.88844 0.85828 0.79066 0.0
C269 C 0.91562 0.78723 0.78614 0.0
C270 C 0.9158 0.79077 0.75905 0.0
C271 C 0.89068 0.86716 0.73658 0.0
C272 C 0.86714 0.93945 0.74062 0.0
C273 C 0.85046 0.01841 0.71336 0.0
C274 C 0.73333 0.00996 0.70386 0.0
C275 C 0.93834 0.13368 0.71663 0.0
C276 C 0.86659 -0.02164 0.6933 0.0
C277 C 0.88829 0.89016 0.70696 0.0
C278 C 0.90203 0.83718 0.6924 0.0
C279 C 0.8955 0.87647 0.66334 0.0
C280 C 0.87631 0.96858 0.64908 0.0
C281 C 0.86141 0.01947 0.66447 0.0
H282 H 0.08251 0.87377 0.97858 0.0
H283 H 0.7253 0.72336 0.94896 0.0
H284 H 0.71393 0.67726 0.99805 0.0
H285 H 0.11713 0.6962 1.04235 0.0
H286 H 0.22585 0.79733 0.06285 0.0
H287 H 0.2074 0.82261 1.02541 0.0
H288 H 0.19072 -0.00512 1.0191 0.0
H289 H 0.21218 0.97103 0.05668 0.0
H290 H 0.09155 -0.01212 1.03252 0.0
H291 H 0.74405 0.63199 0.05194 0.0
H292 H 0.81242 0.60956 0.10423 0.0
H293 H 0.14875 0.80159 0.09755 0.0
C294 C 1.00191 0.83173 0.98241 0.0
C295 C 0.90482 0.80113 0.95995 0.0
C296 C 0.80087 0.74749 0.96582 0.0
C297 C 0.79359 0.72075 0.99368 0.0
C298 C 0.89102 0.75052 1.01545 0.0
C299 C 0.99312 0.80714 1.00997 0.0
C300 C 0.08527 0.83196 1.03693 0.0
C301 C 0.16342 0.78401 1.04214 0.0
C302 C 0.14863 0.95367 1.03626 0.0
C303 C 1.01985 0.7757 0.05863 0.0
C304 C 0.90779 0.72946 1.04592 0.0
C305 C 0.83168 0.66917 0.06201 0.0
C306 C 0.87123 0.6563 0.09173 0.0
C307 C 0.98587 0.70404 0.10512 0.0
C308 C 1.06046 0.76476 0.08811 0.0
H309 H 0.39274 0.84129 0.28299 0.0
H310 H 0.16385 0.50284 0.29125 0.0
H311 H 0.23117 0.48212 0.34307 0.0
H312 H 0.61869 0.81708 0.34346 0.0
H313 H 0.65597 0.9373 0.35419 0.0
H314 H 0.59387 0.92606 0.31748 0.0
H315 H 0.43982 0.96559 0.31601 0.0
H316 H 0.50005 -0.02314 0.3527 0.0
H317 H 0.35823 0.88338 0.34088 0.0
H318 H 0.32233 0.49673 0.39394 0.0
H319 H 0.42473 0.54787 0.44068 0.0
H320 H 0.58899 0.87834 0.40018 0.0
C321 C 0.35795 0.76269 0.29575 0.0
C322 C 0.27337 0.67355 0.28302 0.0
C323 C 0.22847 0.57238 0.30045 0.0
C324 C 0.2665 0.55958 0.32996 0.0
C325 C 0.3493 0.64885 0.34188 0.0
C326 C 0.39423 0.74864 0.3254 0.0
C327 C 0.4785 0.83225 0.34377 0.0
C328 C 0.59357 0.88104 0.33946 0.0
C329 C 0.44197 0.91967 0.33799 0.0
C330 C 0.47417 0.76352 0.37303 0.0
C331 C 0.39947 0.65798 0.3714 0.0
C332 C 0.38059 0.57939 0.3955 0.0
C333 C 0.43876 0.60961 0.42203 0.0
C334 C 0.51447 0.71793 0.42441 0.0
C335 C 0.53263 0.79516 0.39938 0.0
H336 H 0.0848 0.66637 0.78653 0.0
H337 H 0.29796 0.52319 0.84884 0.0
H338 H 0.28261 0.44268 0.81242 0.0
H339 H 0.90377 0.44691 0.74887 0.0
H340 H 0.88825 0.5345 0.71499 0.0
H341 H 0.9149 0.57637 0.7465 0.0
H342 H 0.08869 0.74916 0.73467 0.0
H343 H 1.059 0.70607 0.70304 0.0
H344 H 0.19221 0.73503 0.72846 0.0
H345 H 0.2468 0.3828 0.7681 0.0
H346 H 0.19241 0.34731 0.72025 0.0
H347 H 1.00383 0.53191 0.68779 0.0
C348 C 0.12946 0.61918 0.79246 0.0
C349 C 0.19369 0.60173 0.82042 0.0
C350 C 0.24846 0.53723 0.82751 0.0
C351 C 0.24026 0.49149 0.80696 0.0
C352 C 0.17643 0.51079 0.7795 0.0
C353 C 0.12182 0.57295 0.77231 0.0
C354 C 1.05893 0.58241 0.74141 0.0
C355 C 0.93411 0.53206 0.73774 0.0
C356 C 0.10228 0.70013 0.72598 0.0
C357 C 0.08741 0.51677 0.73215 0.0
C358 C 0.15503 0.47578 0.75436 0.0
C359 C 0.1937 0.41434 0.7506 0.0
C360 C 0.16287 0.39505 0.72337 0.0
C361 C 0.0937 0.43664 0.70039 0.0
C362 C 1.05535 0.49769 0.70502 0.0
loop_
_geom_bond_atom_site_label_1
_geom_bond_atom_site_label_2
_geom_bond_distance
_geom_bond_site_symmetry_2
_ccdc_geom_bond_type
La0 C2 2.928 . S
La0 O20 2.521 . S
La0 O21 2.628 . S
La0 O22 2.554 . S
La0 O23 2.757 1_655 S
La0 O24 2.470 1_655 S
La0 O29 2.482 . S
La0 O31 2.503 . S
La1 C11 2.928 . S
La1 O23 2.482 . S
La1 O25 2.503 . S
La1 O26 2.521 . S
La1 O27 2.628 . S
La1 O28 2.554 . S
La1 O29 2.757 1_455 S
La1 O30 2.470 1_455 S
C2 La0 2.928 . S
C2 C3 1.503 . S
C2 O20 1.261 . S
C2 O21 1.243 . S
C3 C2 1.503 . S
C3 C4 1.394 . S
C3 C8 1.373 . S
C4 C3 1.394 . S
C4 C5 1.380 . S
C4 H32 0.930 . S
C5 C4 1.380 . S
C5 C6 1.376 . S
C5 H33 0.930 . S
C6 C5 1.376 . S
C6 C7 1.370 . S
C7 C6 1.370 . S
C7 C8 1.396 . S
C7 H34 0.929 . S
C8 C3 1.373 . S
C8 C7 1.396 . S
C8 H35 0.929 . S
C9 O22 1.240 . S
C9 O23 1.289 1_655 S
C10 O24 1.258 . S
C10 O25 1.256 . S
C11 La1 2.928 . S
C11 C12 1.503 . S
C11 O26 1.261 . S
C11 O27 1.243 . S
C12 C11 1.503 . S
C12 C13 1.394 . S
C12 C17 1.373 . S
C13 C12 1.394 . S
C13 C14 1.380 . S
C13 H36 0.930 . S
C14 C13 1.380 . S
C14 C15 1.376 . S
C14 H37 0.930 . S
C15 C14 1.376 . S
C15 C16 1.370 1_565 S
C16 C15 1.370 1_545 S
C16 C17 1.396 1_545 S
C16 H38 0.929 . S
C17 C12 1.373 . S
C17 C16 1.396 1_565 S
C17 H39 0.929 1_565 S
C18 O28 1.240 . S
C18 O29 1.289 1_455 S
C19 O30 1.258 . S
C19 O31 1.256 . S
O20 La0 2.521 . S
O20 C2 1.261 . S
O21 La0 2.628 . S
O21 C2 1.243 . S
O22 La0 2.554 . S
O22 C9 1.240 . S
O23 La0 2.757 1_455 S
O23 La1 2.482 . S
O23 C9 1.289 1_455 S
O24 La0 2.470 1_455 S
O24 C10 1.258 . S
O25 La1 2.503 . S
O25 C10 1.256 . S
O26 La1 2.521 . S
O26 C11 1.261 . S
O27 La1 2.628 . S
O27 C11 1.243 . S
O28 La1 2.554 . S
O28 C18 1.240 . S
O29 La0 2.482 . S
O29 La1 2.757 1_655 S
O29 C18 1.289 1_655 S
O30 La1 2.470 1_655 S
O30 C19 1.258 . S
O31 La0 2.503 . S
O31 C19 1.256 . S
H32 C4 0.930 . S
H33 C5 0.930 . S
H34 C7 0.929 . S
H35 C8 0.929 . S
H36 C13 0.930 . S
H37 C14 0.930 . S
H38 C16 0.929 . S
H39 C17 0.929 1_545 S
La40 C42 2.928 . S
La40 O60 2.521 . S
La40 O61 2.628 . S
La40 O62 2.554 . S
La40 O63 2.757 1_545 S
La40 O64 2.474 . S
La40 O69 2.482 . S
La40 O71 2.503 . S
La41 C51 2.928 . S
La41 O63 2.482 . S
La41 O65 2.503 . S
La41 O66 2.521 . S
La41 O67 2.628 . S
La41 O68 2.554 . S
La41 O69 2.757 1_565 S
La41 O70 2.470 1_565 S
C42 La40 2.928 . S
C42 C43 1.503 . S
C42 O60 1.261 . S
C42 O61 1.243 . S
C43 C42 1.503 . S
C43 C44 1.394 1_655 S
C43 C48 1.373 . S
C44 C43 1.394 1_455 S
C44 C45 1.380 . S
C44 H72 0.930 . S
C45 C44 1.380 . S
C45 C46 1.376 . S
C45 H73 0.930 . S
C46 C45 1.376 . S
C46 C47 1.370 1_455 S
C47 C46 1.370 1_655 S
C47 C48 1.396 . S
C47 H74 0.929 . S
C48 C43 1.373 . S
C48 C47 1.396 . S
C48 H75 0.929 . S
C49 O62 1.240 . S
C49 O63 1.289 1_545 S
C50 O64 1.254 1_565 S
C50 O65 1.256 . S
C51 La41 2.928 . S
C51 C52 1.503 . S
C51 O66 1.261 . S
C51 O67 1.243 . S
C52 C51 1.503 . S
C52 C53 1.394 . S
C52 C57 1.373 . S
C53 C52 1.394 . S
C53 C54 1.380 . S
C53 H76 0.930 . S
C54 C53 1.380 . S
C54 C55 1.376 . S
C54 H77 0.930 . S
C55 C54 1.376 . S
C55 C56 1.370 . S
C56 C55 1.370 . S
C56 C57 1.396 . S
C56 H78 0.929 . S
C57 C52 1.373 . S
C57 C56 1.396 . S
C57 H79 0.929 . S
C58 O68 1.240 . S
C58 O69 1.289 1_565 S
C59 O70 1.258 . S
C59 O71 1.256 . S
O60 La40 2.521 . S
O60 C42 1.261 . S
O61 La40 2.628 . S
O61 C42 1.243 . S
O62 La40 2.554 . S
O62 C49 1.240 . S
O63 La40 2.757 1_565 S
O63 La41 2.482 . S
O63 C49 1.289 1_565 S
O64 La40 2.474 . S
O64 C50 1.254 1_545 S
O65 La41 2.503 . S
O65 C50 1.256 . S
O66 La41 2.521 . S
O66 C51 1.261 . S
O67 La41 2.628 . S
O67 C51 1.243 . S
O68 La41 2.554 . S
O68 C58 1.240 . S
O69 La40 2.482 . S
O69 La41 2.757 1_545 S
O69 C58 1.289 1_545 S
O70 La41 2.470 1_545 S
O70 C59 1.258 . S
O71 La40 2.503 . S
O71 C59 1.256 . S
H72 C44 0.930 . S
H73 C45 0.930 . S
H74 C47 0.929 . S
H75 C48 0.929 . S
H76 C53 0.930 . S
H77 C54 0.930 . S
H78 C56 0.929 . S
H79 C57 0.929 . S
La80 C82 2.928 . S
La80 O100 2.521 . S
La80 O101 2.628 1_545 S
La80 O102 2.554 1_655 S
La80 O103 2.757 1_655 S
La80 O104 2.470 1_545 S
La80 O109 2.482 1_545 S
La80 O111 2.503 . S
La81 C91 2.928 1_655 S
La81 O103 2.482 1_665 S
La81 O105 2.503 . S
La81 O106 2.521 . S
La81 O107 2.628 1_655 S
La81 O108 2.554 . S
La81 O109 2.757 . S
La81 O110 2.470 . S
C82 La80 2.928 . S
C82 C83 1.503 . S
C82 O100 1.261 . S
C82 O101 1.243 1_545 S
C83 C82 1.503 . S
C83 C84 1.394 . S
C83 C88 1.373 1_545 S
C84 C83 1.394 . S
C84 C85 1.380 . S
C84 H112 0.930 . S
C85 C84 1.380 . S
C85 C86 1.376 . S
C85 H113 0.930 . S
C86 C85 1.376 . S
C86 C87 1.370 . S
C87 C86 1.370 . S
C87 C88 1.396 1_545 S
C87 H114 0.929 1_545 S
C88 C83 1.373 1_565 S
C88 C87 1.396 1_565 S
C88 H115 0.929 . S
C89 O102 1.240 . S
C89 O103 1.289 . S
C90 O104 1.258 . S
C90 O105 1.256 . S
C91 La81 2.928 1_455 S
C91 C92 1.503 . S
C91 O106 1.261 1_455 S
C91 O107 1.243 . S
C92 C91 1.503 . S
C92 C93 1.394 . S
C92 C97 1.373 . S
C93 C92 1.394 . S
C93 C94 1.380 . S
C93 H116 0.930 1_455 S
C94 C93 1.380 . S
C94 C95 1.376 . S
C94 H117 0.930 . S
C95 C94 1.376 . S
C95 C96 1.370 . S
C96 C95 1.370 . S
C96 C97 1.396 . S
C96 H118 0.929 . S
C97 C92 1.373 . S
C97 C96 1.396 . S
C97 H119 0.929 . S
C98 O108 1.240 . S
C98 O109 1.289 . S
C99 O110 1.258 . S
C99 O111 1.256 1_565 S
O100 La80 2.521 . S
O100 C82 1.261 . S
O101 La80 2.628 1_565 S
O101 C82 1.243 1_565 S
O102 La80 2.554 1_455 S
O102 C89 1.240 . S
O103 La80 2.757 1_455 S
O103 La81 2.482 1_445 S
O103 C89 1.289 . S
O104 La80 2.470 1_565 S
O104 C90 1.258 . S
O105 La81 2.503 . S
O105 C90 1.256 . S
O106 La81 2.521 . S
O106 C91 1.261 1_655 S
O107 La81 2.628 1_455 S
O107 C91 1.243 . S
O108 La81 2.554 . S
O108 C98 1.240 . S
O109 La80 2.482 1_565 S
O109 La81 2.757 . S
O109 C98 1.289 . S
O110 La81 2.470 . S
O110 C99 1.258 . S
O111 La80 2.503 . S
O111 C99 1.256 1_545 S
H112 C84 0.930 . S
H113 C85 0.930 . S
H114 C87 0.929 1_565 S
H115 C88 0.929 . S
H116 C93 0.930 1_655 S
H117 C94 0.930 . S
H118 C96 0.929 . S
H119 C97 0.929 . S
H120 C132 0.930 . S
H121 C134 0.930 . S
H122 C135 0.930 . S
H123 C139 0.959 . S
H124 C139 0.959 . S
H125 C139 0.961 . S
H126 C140 0.960 . S
H127 C140 0.961 . S
H128 C140 0.959 . S
H129 C143 0.929 . S
H130 C144 0.931 . S
H131 C146 0.930 . S
C132 H120 0.930 . S
C132 C133 1.399 1_445 S
C132 C137 1.399 . S
C133 C132 1.399 1_665 S
C133 C134 1.376 . S
C134 H121 0.930 . S
C134 C133 1.376 . S
C134 C135 1.388 1_565 S
C135 H122 0.930 . S
C135 C134 1.388 1_545 S
C135 C136 1.390 . S
C136 C135 1.390 . S
C136 C137 1.394 1_655 S
C136 C142 1.465 . S
C137 C132 1.399 . S
C137 C136 1.394 1_455 S
C137 C138 1.516 . S
C138 C137 1.516 . S
C138 C139 1.502 . S
C138 C140 1.561 . S
C138 C141 1.526 . S
C139 H123 0.959 . S
C139 H124 0.959 . S
C139 H125 0.961 . S
C139 C138 1.502 . S
C140 H126 0.960 . S
C140 H127 0.961 . S
C140 H128 0.959 . S
C140 C138 1.561 . S
C141 C138 1.526 . S
C141 C142 1.396 1_455 S
C141 C146 1.390 . S
C142 C136 1.465 . S
C142 C141 1.396 1_655 S
C142 C143 1.399 . S
C143 H129 0.929 . S
C143 C142 1.399 . S
C143 C144 1.385 . S
C144 H130 0.931 . S
C144 C143 1.385 . S
C144 C145 1.389 . S
C145 C144 1.389 . S
C145 C146 1.387 1_655 S
C146 H131 0.930 . S
C146 C141 1.390 . S
C146 C145 1.387 1_455 S
H147 C159 0.930 . S
H148 C161 0.930 . S
H149 C162 0.930 . S
H150 C166 0.959 . S
H151 C166 0.959 . S
H152 C166 0.961 . S
H153 C167 0.960 . S
H154 C167 0.961 . S
H155 C167 0.959 . S
H156 C170 0.929 . S
H157 C171 0.931 1_655 S
H158 C173 0.930 . S
C159 H147 0.930 . S
C159 C160 1.399 1_545 S
C159 C164 1.399 . S
C160 C159 1.399 1_565 S
C160 C161 1.376 . S
C161 H148 0.930 . S
C161 C160 1.376 . S
C161 C162 1.388 . S
C162 H149 0.930 . S
C162 C161 1.388 . S
C162 C163 1.390 . S
C163 C162 1.390 . S
C163 C164 1.394 1_565 S
C163 C169 1.465 . S
C164 C159 1.399 . S
C164 C163 1.394 1_545 S
C164 C165 1.516 . S
C165 C164 1.516 . S
C165 C166 1.502 . S
C165 C167 1.561 . S
C165 C168 1.526 . S
C166 H150 0.959 . S
C166 H151 0.959 . S
C166 H152 0.961 . S
C166 C165 1.502 . S
C167 H153 0.960 . S
C167 H154 0.961 . S
C167 H155 0.959 . S
C167 C165 1.561 . S
C168 C165 1.526 . S
C168 C169 1.396 1_545 S
C168 C173 1.390 . S
C169 C163 1.465 . S
C169 C168 1.396 1_565 S
C169 C170 1.399 . S
C170 H156 0.929 . S
C170 C169 1.399 . S
C170 C171 1.385 . S
C171 H157 0.931 1_455 S
C171 C170 1.385 . S
C171 C172 1.389 . S
C172 C171 1.389 . S
C172 C173 1.387 1_565 S
C173 H158 0.930 . S
C173 C168 1.390 . S
C173 C172 1.387 1_545 S
H174 C186 0.930 . S
H175 C188 0.930 . S
H176 C189 0.930 . S
H177 C193 0.959 . S
H178 C193 0.959 . S
H179 C193 0.961 . S
H180 C194 0.960 . S
H181 C194 0.961 . S
H182 C194 0.959 . S
H183 C197 0.929 . S
H184 C198 0.931 . S
H185 C200 0.930 . S
C186 H174 0.930 . S
C186 C187 1.399 . S
C186 C191 1.399 . S
C187 C186 1.399 . S
C187 C188 1.376 . S
C188 H175 0.930 . S
C188 C187 1.376 . S
C188 C189 1.388 . S
C189 H176 0.930 . S
C189 C188 1.388 . S
C189 C190 1.390 . S
C190 C189 1.390 . S
C190 C191 1.394 . S
C190 C196 1.465 . S
C191 C186 1.399 . S
C191 C190 1.394 . S
C191 C192 1.516 . S
C192 C191 1.516 . S
C192 C193 1.502 . S
C192 C194 1.561 . S
C192 C195 1.526 . S
C193 H177 0.959 . S
C193 H178 0.959 . S
C193 H179 0.961 . S
C193 C192 1.502 . S
C194 H180 0.960 . S
C194 H181 0.961 . S
C194 H182 0.959 . S
C194 C192 1.561 . S
C195 C192 1.526 . S
C195 C196 1.396 . S
C195 C200 1.390 . S
C196 C190 1.465 . S
C196 C195 1.396 . S
C196 C197 1.399 . S
C197 H183 0.929 . S
C197 C196 1.399 . S
C197 C198 1.385 . S
C198 H184 0.931 . S
C198 C197 1.385 . S
C198 C199 1.389 . S
C199 C198 1.389 . S
C199 C200 1.387 . S
C200 H185 0.930 . S
C200 C195 1.390 . S
C200 C199 1.387 . S
H201 C213 0.930 . S
H202 C215 0.930 1_565 S
H203 C216 0.930 . S
H204 C220 0.959 . S
H205 C220 0.959 . S
H206 C220 0.961 1_556 S
H207 C221 0.960 . S
H208 C221 0.961 . S
H209 C221 0.959 . S
H210 C224 0.929 . S
H211 C225 0.918 1_554 S
H212 C227 0.930 . S
C213 H201 0.930 . S
C213 C214 1.399 . S
C213 C218 1.399 . S
C214 C213 1.399 . S
C214 C215 1.376 . S
C215 H202 0.930 1_545 S
C215 C214 1.376 . S
C215 C216 1.388 1_545 S
C216 H203 0.930 . S
C216 C215 1.388 1_565 S
C216 C217 1.390 1_565 S
C217 C216 1.390 1_545 S
C217 C218 1.394 . S
C217 C223 1.465 . S
C218 C213 1.399 . S
C218 C217 1.394 . S
C218 C219 1.516 . S
C219 C218 1.516 . S
C219 C220 1.502 1_556 S
C219 C221 1.561 . S
C219 C222 1.526 . S
C220 H204 0.959 . S
C220 H205 0.959 . S
C220 H206 0.961 1_554 S
C220 C219 1.502 1_554 S
C221 H207 0.960 . S
C221 H208 0.961 . S
C221 H209 0.959 . S
C221 C219 1.561 . S
C222 C219 1.526 . S
C222 C223 1.396 . S
C222 C227 1.390 1_556 S
C223 C217 1.465 . S
C223 C222 1.396 . S
C223 C224 1.399 1_545 S
C224 H210 0.929 . S
C224 C223 1.399 1_565 S
C224 C225 1.385 . S
C225 H211 0.918 1_556 S
C225 C224 1.385 . S
C225 C226 1.389 1_566 S
C226 C225 1.389 1_544 S
C226 C227 1.387 . S
C227 H212 0.930 . S
C227 C222 1.390 1_554 S
C227 C226 1.387 . S
H228 C240 0.930 . S
H229 C242 0.930 . S
H230 C243 0.930 . S
H231 C247 0.959 . S
H232 C247 0.959 . S
H233 C247 0.961 . S
H234 C248 0.960 1_565 S
H235 C248 0.961 . S
H236 C248 0.959 . S
H237 C251 0.929 . S
H238 C252 0.931 . S
H239 C254 0.930 . S
C240 H228 0.930 . S
C240 C241 1.399 . S
C240 C245 1.399 . S
C241 C240 1.399 . S
C241 C242 1.376 . S
C242 H229 0.930 . S
C242 C241 1.376 . S
C242 C243 1.388 . S
C243 H230 0.930 . S
C243 C242 1.388 . S
C243 C244 1.390 . S
C244 C243 1.390 . S
C244 C245 1.394 . S
C244 C250 1.465 . S
C245 C240 1.399 . S
C245 C244 1.394 . S
C245 C246 1.516 . S
C246 C245 1.516 . S
C246 C247 1.502 . S
C246 C248 1.561 . S
C246 C249 1.526 . S
C247 H231 0.959 . S
C247 H232 0.959 . S
C247 H233 0.961 . S
C247 C246 1.502 . S
C248 H234 0.960 1_545 S
C248 H235 0.961 . S
C248 H236 0.959 . S
C248 C246 1.561 . S
C249 C246 1.526 . S
C249 C250 1.396 . S
C249 C254 1.390 . S
C250 C244 1.465 . S
C250 C249 1.396 . S
C250 C251 1.399 . S
C251 H237 0.929 . S
C251 C250 1.399 . S
C251 C252 1.385 . S
C252 H238 0.931 . S
C252 C251 1.385 . S
C252 C253 1.389 . S
C253 C252 1.389 . S
C253 C254 1.387 . S
C254 H239 0.930 . S
C254 C249 1.390 . S
C254 C253 1.387 . S
H255 C267 0.930 . S
H256 C269 0.930 . S
H257 C270 0.930 . S
H258 C274 0.959 . S
H259 C274 0.959 . S
H260 C274 0.961 . S
H261 C275 0.960 . S
H262 C275 0.961 . S
H263 C275 0.959 . S
H264 C278 0.929 . S
H265 C279 0.931 . S
H266 C281 0.930 1_545 S
C267 H255 0.930 . S
C267 C268 1.399 1_545 S
C267 C272 1.399 1_545 S
C268 C267 1.399 1_565 S
C268 C269 1.376 . S
C269 H256 0.930 . S
C269 C268 1.376 . S
C269 C270 1.388 . S
C270 H257 0.930 . S
C270 C269 1.388 . S
C270 C271 1.390 . S
C271 C270 1.390 . S
C271 C272 1.394 . S
C271 C277 1.465 . S
C272 C267 1.399 1_565 S
C272 C271 1.394 . S
C272 C273 1.516 1_565 S
C273 C272 1.516 1_545 S
C273 C274 1.502 . S
C273 C275 1.561 . S
C273 C276 1.526 1_545 S
C274 H258 0.959 . S
C274 H259 0.959 . S
C274 H260 0.961 . S
C274 C273 1.502 . S
C275 H261 0.960 . S
C275 H262 0.961 . S
C275 H263 0.959 . S
C275 C273 1.561 . S
C276 C273 1.526 1_565 S
C276 C277 1.396 . S
C276 C281 1.390 . S
C277 C271 1.465 . S
C277 C276 1.396 . S
C277 C278 1.399 . S
C278 H264 0.929 . S
C278 C277 1.399 . S
C278 C279 1.385 . S
C279 H265 0.931 . S
C279 C278 1.385 . S
C279 C280 1.389 . S
C280 C279 1.389 . S
C280 C281 1.387 . S
C281 H266 0.930 1_565 S
C281 C276 1.390 . S
C281 C280 1.387 . S
H282 C294 0.930 1_455 S
H283 C296 0.930 . S
H284 C297 0.930 . S
H285 C301 0.959 . S
H286 C301 0.959 . S
H287 C301 0.961 1_546 S
H288 C302 0.960 1_545 S
H289 C302 0.961 1_544 S
H290 C302 0.959 . S
H291 C305 0.929 . S
H292 C306 0.931 . S
H293 C308 0.930 . S
C294 H282 0.930 1_655 S
C294 C295 1.399 . S
C294 C299 1.399 . S
C295 C294 1.399 . S
C295 C296 1.376 . S
C296 H283 0.930 . S
C296 C295 1.376 . S
C296 C297 1.388 . S
C297 H284 0.930 . S
C297 C296 1.388 . S
C297 C298 1.390 . S
C298 C297 1.390 . S
C298 C299 1.394 . S
C298 C304 1.444 1_556 S
C299 C294 1.399 . S
C299 C298 1.394 . S
C299 C300 1.516 . S
C300 C299 1.516 . S
C300 C301 1.502 1_656 S
C300 C302 1.561 . S
C300 C303 1.526 1_556 S
C301 H285 0.959 . S
C301 H286 0.959 . S
C301 H287 0.961 1_564 S
C301 C300 1.502 1_454 S
C302 H288 0.960 1_565 S
C302 H289 0.961 1_566 S
C302 H290 0.959 . S
C302 C300 1.561 . S
C303 C300 1.526 1_554 S
C303 C304 1.407 . S
C303 C308 1.390 . S
C304 C298 1.444 1_554 S
C304 C303 1.407 . S
C304 C305 1.409 . S
C305 H291 0.929 . S
C305 C304 1.409 . S
C305 C306 1.385 . S
C306 H292 0.931 . S
C306 C305 1.385 . S
C306 C307 1.389 . S
C307 C306 1.389 . S
C307 C308 1.387 . S
C308 H293 0.930 . S
C308 C303 1.390 . S
C308 C307 1.387 . S
H309 C321 0.930 . S
H310 C323 0.930 . S
H311 C324 0.930 . S
H312 C328 0.959 . S
H313 C328 0.959 . S
H314 C328 0.961 . S
H315 C329 0.960 . S
H316 C329 0.961 . S
H317 C329 0.959 . S
H318 C332 0.929 . S
H319 C333 0.931 . S
H320 C335 0.930 . S
C321 H309 0.930 . S
C321 C322 1.399 . S
C321 C326 1.399 . S
C322 C321 1.399 . S
C322 C323 1.376 . S
C323 H310 0.930 . S
C323 C322 1.376 . S
C323 C324 1.388 . S
C324 H311 0.930 . S
C324 C323 1.388 . S
C324 C325 1.390 . S
C325 C324 1.390 . S
C325 C326 1.394 . S
C325 C331 1.465 . S
C326 C321 1.399 . S
C326 C325 1.394 . S
C326 C327 1.516 . S
C327 C326 1.516 . S
C327 C328 1.502 . S
C327 C329 1.561 . S
C327 C330 1.526 . S
C328 H312 0.959 . S
C328 H313 0.959 . S
C328 H314 0.961 . S
C328 C327 1.502 . S
C329 H315 0.960 . S
C329 H316 0.961 . S
C329 H317 0.959 . S
C329 C327 1.561 . S
C330 C327 1.526 . S
C330 C331 1.396 . S
C330 C335 1.390 . S
C331 C325 1.465 . S
C331 C330 1.396 . S
C331 C332 1.399 . S
C332 H318 0.929 . S
C332 C331 1.399 . S
C332 C333 1.385 . S
C333 H319 0.931 . S
C333 C332 1.385 . S
C333 C334 1.389 . S
C334 C333 1.389 . S
C334 C335 1.387 . S
C335 H320 0.930 . S
C335 C330 1.390 . S
C335 C334 1.387 . S
H336 C348 0.930 . S
H337 C350 0.930 . S
H338 C351 0.930 . S
H339 C355 0.959 1_655 S
H340 C355 0.959 . S
H341 C355 0.961 . S
H342 C356 0.960 . S
H343 C356 0.961 . S
H344 C356 0.959 . S
H345 C359 0.929 . S
H346 C360 0.931 . S
H347 C362 0.930 . S
C348 H336 0.930 . S
C348 C349 1.399 . S
C348 C353 1.399 . S
C349 C348 1.399 . S
C349 C350 1.376 . S
C350 H337 0.930 . S
C350 C349 1.376 . S
C350 C351 1.388 . S
C351 H338 0.930 . S
C351 C350 1.388 . S
C351 C352 1.390 . S
C352 C351 1.390 . S
C352 C353 1.394 . S
C352 C358 1.465 . S
C353 C348 1.399 . S
C353 C352 1.394 . S
C353 C354 1.516 . S
C354 C353 1.516 . S
C354 C355 1.502 . S
C354 C356 1.561 . S
C354 C357 1.526 . S
C355 H339 0.959 1_455 S
C355 H340 0.959 . S
C355 H341 0.961 . S
C355 C354 1.502 . S
C356 H342 0.960 . S
C356 H343 0.961 . S
C356 H344 0.959 . S
C356 C354 1.561 . S
C357 C354 1.526 . S
C357 C358 1.396 . S
C357 C362 1.390 . S
C358 C352 1.465 . S
C358 C357 1.396 . S
C358 C359 1.399 . S
C359 H345 0.929 . S
C359 C358 1.399 . S
C359 C360 1.385 . S
C360 H346 0.931 . S
C360 C359 1.385 . S
C360 C361 1.389 . S
C361 C360 1.389 . S
C361 C362 1.387 . S
C362 H347 0.930 . S
C362 C357 1.390 . S
C362 C361 1.387 . S
C133 C9 1.567 . S
C145 C18 1.589 1_655 S
C160 C58 1.626 . S
C172 C49 1.684 1_465 S
C187 C89 1.310 . S
C199 C98 1.390 . S
C214 C86 0.938 . S
C226 C15 0.964 1_545 S
C241 C59 1.925 . S
C253 C6 1.913 . S
C268 C99 2.418 . S
C280 C50 2.458 . S
C295 C90 2.375 . S
C307 C19 2.317 . S
C322 C10 1.778 . S
C334 C55 1.693 . S
C349 C95 0.948 . S
C361 C46 0.996 . S
