# Generated by pormake.
# Topology sml, (6)-cn, num edge types: 1
# Building blocks:
#     Node 0, Type 0, BuildingBlock: UKALOJ_clean_sbu_0, # of connection points: 6
#     Node 1, Type 0, BuildingBlock: UKALOJ_clean_sbu_0, # of connection points: 6
#     Node 2, Type 0, BuildingBlock: UKALOJ_clean_sbu_0, # of connection points: 6
#     Node 3, Type 0, BuildingBlock: UKALOJ_clean_sbu_0, # of connection points: 6
#     Node 4, Type 0, BuildingBlock: UKALOJ_clean_sbu_0, # of connection points: 6
#     Node 5, Type 0, BuildingBlock: UKALOJ_clean_sbu_0, # of connection points: 6
#     Edge 6, Type (0, 0), BuildingBlock: CIFDUS_clean_linker_0, # of connection points: 2
#     Edge 7, Type (0, 0), BuildingBlock: CIFDUS_clean_linker_0, # of connection points: 2
#     Edge 8, Type (0, 0), BuildingBlock: CIFDUS_clean_linker_0, # of connection points: 2
#     Edge 9, Type (0, 0), BuildingBlock: CIFDUS_clean_linker_0, # of connection points: 2
#     Edge 10, Type (0, 0), BuildingBlock: CIFDUS_clean_linker_0, # of connection points: 2
#     Edge 11, Type (0, 0), BuildingBlock: CIFDUS_clean_linker_0, # of connection points: 2
#     Edge 12, Type (0, 0), BuildingBlock: CIFDUS_clean_linker_0, # of connection points: 2
#     Edge 13, Type (0, 0), BuildingBlock: CIFDUS_clean_linker_0, # of connection points: 2
#     Edge 14, Type (0, 0), BuildingBlock: CIFDUS_clean_linker_0, # of connection points: 2
#     Edge 15, Type (0, 0), BuildingBlock: CIFDUS_clean_linker_0, # of connection points: 2
#     Edge 16, Type (0, 0), BuildingBlock: CIFDUS_clean_linker_0, # of connection points: 2
#     Edge 17, Type (0, 0), BuildingBlock: CIFDUS_clean_linker_0, # of connection points: 2
#     Edge 18, Type (0, 0), BuildingBlock: CIFDUS_clean_linker_0, # of connection points: 2
#     Edge 19, Type (0, 0), BuildingBlock: CIFDUS_clean_linker_0, # of connection points: 2
#     Edge 20, Type (0, 0), BuildingBlock: CIFDUS_clean_linker_0, # of connection points: 2
#     Edge 21, Type (0, 0), BuildingBlock: CIFDUS_clean_linker_0, # of connection points: 2
#     Edge 22, Type (0, 0), BuildingBlock: CIFDUS_clean_linker_0, # of connection points: 2
#     Edge 23, Type (0, 0), BuildingBlock: CIFDUS_clean_linker_0, # of connection points: 2
# Relax obj value: 0.341
# Max RMSD: 0.233
# Mean RMSD: 0.233
data_MOF--net-sml--node1-UKALOJ_clean_sbu_0--edge1-CIFDUS_clean_linker_0
_symmetry_space_group_name_H-M    P1
_symmetry_Int_Tables_number       1
_symmetry_cell_setting            triclinic
loop_
_symmetry_equiv_pos_as_xyz
'x, y, z'
_cell_length_a     31.759583
_cell_length_b     32.054672
_cell_length_c     17.311265
_cell_angle_alpha  90.059311
_cell_angle_beta   90.048792
_cell_angle_gamma 119.62563
loop_
_atom_site_label
_atom_site_type_symbol
_atom_site_fract_x
_atom_site_fract_y
_atom_site_fract_z
_atom_type_partial_charge
Zn0 Zn 0.22576 0.42286 0.07182 0.0
O1 O 0.20946 0.47564 0.10722 0.0
C2 C 0.11673 0.35139 0.06518 0.0
Zn3 Zn 0.18679 0.42295 0.96467 0.0
C4 C 0.18485 0.49122 0.07261 0.0
O5 O 0.1688 0.4757 0.00503 0.0
C6 C 0.22754 0.35394 0.96743 0.0
O7 O 0.25559 0.47812 0.93243 0.0
O8 O 0.29593 0.4782 0.0353 0.0
N9 N 0.16339 0.42418 0.85409 0.0
C10 C 0.18332 0.42236 0.78606 0.0
C11 C 0.12254 0.43103 0.75974 0.0
N12 N 0.12555 0.4295 0.83752 0.0
N13 N 0.15808 0.42596 0.72645 0.0
C14 C 0.2289 0.42398 0.25037 0.0
C15 C 0.29132 0.41827 0.27745 0.0
N16 N 0.24924 0.42247 0.18257 0.0
N17 N 0.28812 0.41904 0.19961 0.0
N18 N 0.25489 0.42202 0.31024 0.0
H19 H 0.16187 0.41913 0.20555 0.0
H20 H 0.18681 0.45573 0.28913 0.0
H21 H 0.15748 0.39242 0.29863 0.0
C22 C 0.18112 0.42262 0.26 0.0
C23 C 0.22994 0.42149 0.77614 0.0
H24 H 0.2536 0.44976 0.73462 0.0
H25 H 0.22221 0.38691 0.75023 0.0
H26 H 0.25002 0.42636 0.83021 0.0
O27 O 0.20405 0.36959 0.92915 0.0
O28 O 0.24259 0.37032 0.03482 0.0
C29 C 0.29545 0.49448 0.96839 0.0
O30 O 0.15563 0.36731 0.10412 0.0
O31 O 0.11803 0.36834 0.99837 0.0
Zn32 Zn 0.77496 0.19127 0.32379 0.0
O33 O 0.78682 0.25868 0.28764 0.0
C34 C 0.88473 0.23432 0.33071 0.0
Zn35 Zn 0.81102 0.2296 0.43262 0.0
C36 C 0.80647 0.29739 0.32607 0.0
O37 O 0.82058 0.29749 0.39494 0.0
C38 C 0.77963 0.12314 0.42842 0.0
O39 O 0.7401 0.21001 0.46555 0.0
O40 O 0.7031 0.17323 0.35878 0.0
N41 N 0.83351 0.25479 0.54281 0.0
C42 C 0.81526 0.23265 0.6109 0.0
C43 C 0.87185 0.30339 0.63686 0.0
N44 N 0.86877 0.29875 0.55911 0.0
N45 N 0.83901 0.26208 0.67033 0.0
C46 C 0.77115 0.18819 0.1458 0.0
C47 C 0.71601 0.11695 0.11919 0.0
N48 N 0.75282 0.16578 0.21365 0.0
N49 N 0.71851 0.12145 0.19698 0.0
N50 N 0.74829 0.15866 0.08607 0.0
H51 H 0.79966 0.26254 0.12148 0.0
H52 H 0.83715 0.23892 0.08849 0.0
H53 H 0.83599 0.2516 0.18872 0.0
C54 C 0.81354 0.23794 0.13649 0.0
C55 C 0.77135 0.1839 0.62101 0.0
H56 H 0.75198 0.16763 0.56695 0.0
H57 H 0.74595 0.18642 0.6622 0.0
H58 H 0.78233 0.15928 0.64711 0.0
O59 O 0.80146 0.16181 0.46711 0.0
O60 O 0.76294 0.12389 0.36198 0.0
C61 C 0.70123 0.18693 0.42714 0.0
O62 O 0.84622 0.20914 0.29224 0.0
O63 O 0.88203 0.2497 0.39721 0.0
Zn64 Zn 0.5772 0.79059 0.69133 0.0
O65 O 0.52181 0.72371 0.73058 0.0
C66 C 0.64097 0.74523 0.67874 0.0
Zn67 Zn 0.5694 0.75122 0.58132 0.0
C68 C 0.49995 0.68508 0.69213 0.0
O69 O 0.51118 0.68462 0.62168 0.0
C70 C 0.64619 0.85691 0.58108 0.0
O71 O 0.51883 0.77301 0.55086 0.0
O72 O 0.52335 0.80931 0.66075 0.0
N73 N 0.5652 0.72459 0.47181 0.0
C74 C 0.56323 0.74356 0.40322 0.0
C75 C 0.57118 0.68266 0.379 0.0
N76 N 0.56999 0.68662 0.4566 0.0
N77 N 0.56634 0.71769 0.34442 0.0
C78 C 0.58443 0.79706 0.86926 0.0
C79 C 0.57756 0.85837 0.89559 0.0
N80 N 0.5823 0.81666 0.80132 0.0
N81 N 0.57829 0.85493 0.81786 0.0
N82 N 0.582 0.82276 0.92891 0.0
H83 H 0.57876 0.73033 0.82475 0.0
H84 H 0.55449 0.72689 0.91967 0.0
H85 H 0.61831 0.75673 0.90513 0.0
C86 C 0.58374 0.75008 0.87896 0.0
C87 C 0.56213 0.78951 0.39245 0.0
H88 H 0.57215 0.81183 0.44479 0.0
H89 H 0.52501 0.78057 0.3751 0.0
H90 H 0.58708 0.81112 0.34538 0.0
O91 O 0.62724 0.81768 0.54369 0.0
O92 O 0.63207 0.8575 0.64963 0.0
C93 C 0.5057 0.79687 0.59319 0.0
O94 O 0.63074 0.77214 0.71901 0.0
O95 O 0.61974 0.72942 0.61433 0.0
Zn96 Zn 0.79079 0.55287 0.93728 0.0
O97 O 0.72119 0.50405 0.895 0.0
C98 C 0.75492 0.62555 0.94172 0.0
Zn99 Zn 0.75209 0.5543 0.04466 0.0
C100 C 0.68164 0.48901 0.93147 0.0
O101 O 0.68252 0.50262 1.00096 0.0
C102 C 0.86073 0.62012 0.04832 0.0
O103 O 0.76511 0.4989 0.07708 0.0
O104 O 0.80322 0.49575 0.97353 0.0
N105 N 0.72551 0.55185 0.15518 0.0
C106 C 0.74341 0.54795 0.22426 0.0
C107 C 0.68101 0.55431 0.24761 0.0
N108 N 0.68656 0.55555 0.17006 0.0
N109 N 0.71586 0.54886 0.28281 0.0
C110 C 0.80178 0.53044 0.76551 0.0
C111 C 0.84987 0.60123 0.72622 0.0
N112 N 0.81973 0.55857 0.82877 0.0
N113 N 0.85037 0.60233 0.80393 0.0
N114 N 0.8193 0.55659 0.70024 0.0
H115 H 0.75856 0.46376 0.82717 0.0
H116 H 0.78271 0.45848 0.73663 0.0
H117 H 0.73315 0.46976 0.73581 0.0
C118 C 0.76665 0.47764 0.7673 0.0
C119 C 0.79043 0.54813 0.23641 0.0
H120 H 0.78352 0.51445 0.26472 0.0
H121 H 0.81375 0.57775 0.27637 0.0
H122 H 0.81041 0.55162 0.18283 0.0
O123 O 0.82117 0.60648 0.08399 0.0
O124 O 0.8599 0.60325 0.98152 0.0
C125 C 0.78713 0.48084 0.04132 0.0
O126 O 0.77756 0.60875 0.90412 0.0
O127 O 0.73907 0.60971 0.00904 0.0
Zn128 Zn 0.15292 0.74143 0.45294 0.0
O129 O 0.22243 0.76233 0.49788 0.0
C130 C 0.18582 0.84806 0.44671 0.0
Zn131 Zn 0.19227 0.77944 0.34604 0.0
C132 C 0.26215 0.78597 0.46169 0.0
O133 O 0.26155 0.79833 0.39195 0.0
C134 C 0.08368 0.73568 0.33679 0.0
O135 O 0.18218 0.7118 0.31567 0.0
O136 O 0.14374 0.67309 0.42045 0.0
N137 N 0.21913 0.80554 0.23763 0.0
C138 C 0.20439 0.78255 0.16915 0.0
C139 C 0.24615 0.85713 0.14451 0.0
N140 N 0.24541 0.85198 0.22207 0.0
N141 N 0.22107 0.81391 0.11025 0.0
C142 C 0.14365 0.71054 0.62176 0.0
C143 C 0.09779 0.73649 0.66295 0.0
N144 N 0.12337 0.71903 0.55972 0.0
N145 N 0.09425 0.73438 0.58554 0.0
N146 N 0.12936 0.7227 0.68781 0.0
H147 H 0.15694 0.65789 0.56695 0.0
H148 H 0.16425 0.6614 0.67084 0.0
H149 H 0.20928 0.70686 0.60961 0.0
C150 C 0.17 0.68256 0.61728 0.0
C151 C 0.17133 0.72954 0.15889 0.0
H152 H 0.192 0.71086 0.17192 0.0
H153 H 0.15762 0.71985 0.09894 0.0
H154 H 0.13988 0.71627 0.19809 0.0
O155 O 0.12355 0.76054 0.30199 0.0
O156 O 0.08387 0.72182 0.4055 0.0
C157 C 0.16076 0.67313 0.35392 0.0
O158 O 0.16334 0.80955 0.48515 0.0
O159 O 0.20231 0.84692 0.38039 0.0
Zn160 Zn 0.39498 0.22416 0.57302 0.0
O161 O 0.44183 0.20097 0.52812 0.0
C162 C 0.32268 0.11779 0.58677 0.0
Zn163 Zn 0.39825 0.18964 0.68335 0.0
C164 C 0.46091 0.18132 0.56766 0.0
O165 O 0.45083 0.17326 0.63912 0.0
C166 C 0.33139 0.23072 0.68962 0.0
O167 O 0.45405 0.25963 0.71063 0.0
O168 O 0.45504 0.29349 0.59976 0.0
N169 N 0.40379 0.16714 0.79292 0.0
C170 C 0.4118 0.1907 0.86082 0.0
C171 C 0.40348 0.12207 0.88634 0.0
N172 N 0.39857 0.12437 0.80901 0.0
N173 N 0.41252 0.16369 0.91952 0.0
C174 C 0.40701 0.24683 0.39745 0.0
C175 C 0.33586 0.23277 0.37072 0.0
N176 N 0.38476 0.24449 0.46504 0.0
N177 N 0.34091 0.23687 0.44794 0.0
N178 N 0.37653 0.23802 0.33708 0.0
H179 H 0.47783 0.27004 0.44695 0.0
H180 H 0.47824 0.28926 0.35089 0.0
H181 H 0.46059 0.2275 0.36671 0.0
C182 C 0.45877 0.25861 0.39075 0.0
C183 C 0.41635 0.23913 0.87233 0.0
H184 H 0.40557 0.25206 0.82136 0.0
H185 H 0.45445 0.265 0.88745 0.0
H186 H 0.39372 0.23804 0.92198 0.0
O187 O 0.34589 0.20569 0.72549 0.0
O188 O 0.34666 0.2451 0.62155 0.0
C189 C 0.47147 0.29664 0.66794 0.0
O190 O 0.33669 0.1557 0.54724 0.0
O191 O 0.34255 0.12016 0.65174 0.0
H192 H 0.3231 0.23601 0.844 0.0
H193 H 0.27269 0.26216 0.62761 0.0
H194 H 0.22929 0.29592 0.69743 0.0
H195 H 0.21128 0.3231 0.81892 0.0
H196 H 0.27378 0.30949 0.03216 0.0
H197 H 0.30579 0.26397 0.96495 0.0
C198 C 0.30245 0.24882 0.81196 0.0
C199 C 0.3013 0.24687 0.73071 0.0
C200 C 0.27982 0.27025 0.85209 0.0
C201 C 0.27426 0.26353 0.69013 0.0
C202 C 0.24952 0.28279 0.73001 0.0
C203 C 0.23235 0.31076 0.85063 0.0
C204 C 0.24119 0.32085 0.93001 0.0
C205 C 0.25305 0.28731 0.81082 0.0
C206 C 0.26689 0.30271 0.97086 0.0
C207 C 0.28535 0.27688 0.93241 0.0
H208 H 0.10021 0.3294 0.21703 0.0
H209 H 0.02819 0.29901 0.99583 0.0
H210 H 0.94965 0.25393 0.05988 0.0
H211 H 0.90189 0.23123 0.17853 0.0
H212 H 0.97369 0.27189 0.40003 0.0
H213 H 0.05246 0.30523 0.33593 0.0
C214 C 0.06745 0.31279 0.18269 0.0
C215 C 0.07001 0.31814 0.10186 0.0
C216 C 0.02255 0.28923 0.22007 0.0
C217 C 0.02715 0.29572 0.05816 0.0
C218 C 0.98229 0.27011 0.09476 0.0
C219 C 0.93467 0.247 0.21303 0.0
C220 C 0.93201 0.24945 0.29394 0.0
C221 C 0.97959 0.26792 0.17572 0.0
C222 C 0.97487 0.26986 0.33767 0.0
C223 C 0.01981 0.28893 0.30104 0.0
H224 H 0.7394 0.03478 0.36124 0.0
H225 H 0.79745 0.10817 0.57718 0.0
H226 H 0.76329 0.03172 0.64475 0.0
H227 H 0.70823 0.94415 0.64429 0.0
H228 H 0.65861 0.8707 0.4259 0.0
H229 H 0.69887 0.94678 0.35755 0.0
C230 C 0.74523 0.03406 0.42286 0.0
C231 C 0.76878 0.07716 0.46478 0.0
C232 C 0.72673 -0.01013 0.46107 0.0
C233 C 0.77748 0.07555 0.54412 0.0
C234 C 0.75823 0.03178 0.58283 0.0
C235 C 0.70693 0.9448 0.58171 0.0
C236 C 0.67906 0.90199 0.54057 0.0
C237 C 0.7312 -0.01127 0.54228 0.0
C238 C 0.67878 0.90321 0.4593 0.0
C239 C 0.70186 0.94677 0.41994 0.0
H240 H 0.67774 0.76045 0.82362 0.0
H241 H 0.67535 0.69135 0.60832 0.0
H242 H 0.71675 0.65303 0.6703 0.0
H243 H 0.74441 0.63192 0.78855 0.0
H244 H 0.73564 0.69197 0.00721 0.0
H245 H 0.70662 0.74061 0.9413 0.0
C246 C 0.68611 0.73697 0.79014 0.0
C247 C 0.67256 0.72803 0.71185 0.0
C248 C 0.70732 0.71308 0.8271 0.0
C249 C 0.68499 0.69851 0.66884 0.0
C250 C 0.70842 0.67643 0.70434 0.0
C251 C 0.7369 0.65626 0.82168 0.0
C252 C 0.74224 0.65862 0.90257 0.0
C253 C 0.71837 0.68235 0.7839 0.0
C254 C 0.73169 0.68963 0.94494 0.0
C255 C 0.71515 0.71735 0.90729 0.0
H256 H 0.07237 0.73317 0.18172 0.0
H257 H -0.00751 0.70123 0.39559 0.0
H258 H 0.91644 0.66812 0.32304 0.0
H259 H 0.87309 0.64336 0.20006 0.0
H260 H 0.95238 0.66603 0.98744 0.0
H261 H 0.02887 0.7089 0.0585 0.0
C262 C 0.0384 0.71937 0.21263 0.0
C263 C 0.03798 0.71952 0.29401 0.0
C264 C -0.00505 0.69882 0.17075 0.0
C265 C -0.00634 0.70133 0.33304 0.0
C266 C 0.95028 0.68243 0.29161 0.0
C267 C 0.907 0.65769 0.16904 0.0
C268 C 0.907 0.65101 0.08864 0.0
C269 C 0.95052 0.68018 0.21059 0.0
C270 C 0.95138 0.67044 0.04934 0.0
C271 C -0.00494 0.69479 0.08996 0.0
H272 H 0.27126 0.03095 0.65786 0.0
H273 H 0.29816 0.09997 0.43511 0.0
H274 H 0.25379 0.02227 0.3717 0.0
H275 H 0.21582 0.93451 0.37806 0.0
H276 H 0.18605 0.86516 0.60064 0.0
H277 H 0.22223 0.9429 0.66514 0.0
C278 C 0.26669 0.02893 0.59561 0.0
C279 C 0.28863 0.07109 0.55139 0.0
C280 C 0.24084 0.98401 0.55917 0.0
C281 C 0.28184 0.06803 0.47074 0.0
C282 C 0.25663 0.02356 0.43417 0.0
C283 C 0.2165 0.93645 0.44066 0.0
C284 C 0.19897 0.89427 0.48432 0.0
C285 C 0.23727 0.98129 0.47759 0.0
C286 C 0.19945 0.89718 0.5655 0.0
C287 C 0.22042 0.94165 0.60259 0.0
H288 H 0.17189 0.36304 0.64394 0.0
H289 H 0.17269 0.49743 0.62958 0.0
H290 H 0.20708 0.51041 0.49895 0.0
H291 H 0.24055 0.48482 0.39209 0.0
H292 H 0.24047 0.35081 0.40725 0.0
H293 H 0.20582 0.33775 0.53766 0.0
C294 C 0.17997 0.39524 0.61213 0.0
C295 C 0.17054 0.42962 0.64605 0.0
C296 C 0.20126 0.40305 0.53885 0.0
C297 C 0.1795 0.47051 0.60391 0.0
C298 C 0.19975 0.47817 0.53002 0.0
C299 C 0.2327 0.45277 0.42419 0.0
C300 C 0.24236 0.41847 0.39055 0.0
C301 C 0.2115 0.44503 0.49757 0.0
C302 C 0.2335 0.37766 0.43279 0.0
C303 C 0.2131 0.36996 0.50653 0.0
H304 H 0.75508 0.23269 0.00453 0.0
H305 H 0.76979 0.1065 0.98885 0.0
H306 H 0.80411 0.13006 0.8587 0.0
H307 H 0.83326 0.18882 0.75259 0.0
H308 H 0.81777 0.31455 0.76747 0.0
H309 H 0.78393 0.29133 0.89805 0.0
C310 C 0.76587 0.21052 0.97229 0.0
C311 C 0.76048 0.16822 0.00577 0.0
C312 C 0.78685 0.22516 0.89909 0.0
C313 C 0.77339 0.13897 0.96345 0.0
C314 C 0.79361 0.15283 0.88986 0.0
C315 C 0.82213 0.21082 0.78455 0.0
C316 C 0.82718 0.25287 0.75078 0.0
C317 C 0.80117 0.19621 0.85774 0.0
C318 C 0.81431 0.28219 0.79305 0.0
C319 C 0.79437 0.26852 0.86688 0.0
H320 H 0.50834 0.73695 0.25721 0.0
H321 H 0.63921 0.72817 0.25279 0.0
H322 H 0.65829 0.76439 0.12367 0.0
H323 H 0.63962 0.80276 0.0159 0.0
H324 H 0.50849 0.81108 0.01993 0.0
H325 H 0.48913 0.77437 0.14867 0.0
C326 C 0.54094 0.74303 0.22763 0.0
C327 C 0.57268 0.73056 0.26413 0.0
C328 C 0.5523 0.76529 0.15511 0.0
C329 C 0.61427 0.73732 0.22511 0.0
C330 C 0.62546 0.75865 0.15211 0.0
C331 C 0.60673 0.79619 0.04507 0.0
C332 C 0.57515 0.80894 0.00876 0.0
C333 C 0.59519 0.77359 0.11732 0.0
C334 C 0.53336 0.8018 0.04753 0.0
C335 C 0.52201 0.78019 0.1203 0.0
H336 H 0.78599 0.60677 0.62397 0.0
H337 H 0.80393 0.48243 0.60646 0.0
H338 H 0.76716 0.46527 0.47728 0.0
H339 H 0.73297 0.48803 0.36737 0.0
H340 H 0.72099 0.61585 0.38189 0.0
H341 H 0.75045 0.6285 0.51556 0.0
C342 C 0.78198 0.57604 0.59155 0.0
C343 C 0.79764 0.54587 0.62443 0.0
C344 C 0.76142 0.56692 0.51735 0.0
C345 C 0.79163 0.50575 0.58266 0.0
C346 C 0.77081 0.49613 0.50879 0.0
C347 C 0.73748 0.51895 0.39962 0.0
C348 C 0.72619 0.5518 0.36438 0.0
C349 C 0.75605 0.52678 0.47528 0.0
C350 C 0.72968 0.59032 0.40792 0.0
C351 C 0.74696 0.59775 0.48389 0.0
H352 H 0.09225 0.73871 0.81607 0.0
H353 H 0.22 0.73893 0.73016 0.0
H354 H 0.26 0.76846 0.85287 0.0
H355 H 0.26029 0.79707 0.98591 0.0
H356 H 0.13657 0.8051 0.06674 0.0
H357 H 0.09431 0.77183 0.94427 0.0
C358 C 0.12871 0.74478 0.82417 0.0
C359 C 0.1518 0.73454 0.76352 0.0
C360 C 0.15306 0.76504 0.89366 0.0
C361 C 0.19956 0.74363 0.77546 0.0
C362 C 0.2233 0.76187 0.84576 0.0
C363 C 0.22466 0.79265 0.97522 0.0
C364 C 0.20172 0.80434 0.03354 0.0
C365 C 0.20068 0.77331 0.90491 0.0
C366 C 0.15504 0.79742 0.02104 0.0
C367 C 0.13076 0.77776 0.9518 0.0
H368 H 0.44981 0.27214 0.23181 0.0
H369 H 0.30409 0.15802 0.2736 0.0
H370 H 0.3039 0.12113 0.15039 0.0
H371 H 0.34419 0.12296 0.02763 0.0
H372 H 0.49072 0.23463 0.9886 0.0
H373 H 0.49291 0.26946 0.11569 0.0
C374 C 0.4186 0.23854 0.21542 0.0
C375 C 0.37729 0.2178 0.26279 0.0
C376 C 0.41919 0.21664 0.14526 0.0
C377 C 0.33626 0.17518 0.23803 0.0
C378 C 0.33625 0.15369 0.16789 0.0
C379 C 0.37694 0.15393 0.04852 0.0
C380 C 0.41737 0.17614 0.99993 0.0
C381 C 0.37745 0.17412 0.12089 0.0
C382 C 0.45944 0.21696 0.02602 0.0
C383 C 0.46043 0.23708 0.09807 0.0
H384 H 0.21181 0.52416 0.21815 0.0
H385 H 0.1321 0.53351 0.02318 0.0
H386 H 0.1124 0.58675 0.09786 0.0
H387 H 0.12051 0.63236 0.21755 0.0
H388 H 0.19746 0.61935 0.41271 0.0
H389 H 0.21247 0.56206 0.34065 0.0
C390 C 0.18912 0.53672 0.19214 0.0
C391 C 0.17319 0.52446 0.11511 0.0
C392 C 0.17661 0.5656 0.23613 0.0
C393 C 0.14502 0.54248 0.08209 0.0
C394 C 0.13347 0.57259 0.12498 0.0
C395 C 0.14001 0.61639 0.24435 0.0
C396 C 0.15823 0.63 0.31983 0.0
C397 C 0.14927 0.58447 0.20192 0.0
C398 C 0.18272 0.60879 0.35498 0.0
C399 C 0.1919 0.57675 0.31336 0.0
H400 H 0.61541 0.16694 0.3578 0.0
H401 H 0.68434 0.18685 0.58016 0.0
H402 H 0.61379 0.18098 0.64409 0.0
H403 H 0.53581 0.17846 0.63693 0.0
H404 H 0.46692 0.16214 0.41584 0.0
H405 H 0.53348 0.15822 0.35171 0.0
C406 C 0.61455 0.16922 0.42023 0.0
C407 C 0.65531 0.17755 0.46392 0.0
C408 C 0.57394 0.16705 0.45704 0.0
C409 C 0.65372 0.1807 0.54488 0.0
C410 C 0.61329 0.17741 0.58176 0.0
C411 C 0.53499 0.17319 0.57491 0.0
C412 C 0.4971 0.17151 0.53101 0.0
C413 C 0.5737 0.17178 0.5384 0.0
C414 C 0.49648 0.16478 0.45061 0.0
C415 C 0.5344 0.16231 0.41395 0.0
H416 H 0.30614 0.51426 0.81607 0.0
H417 H 0.38517 0.55549 0.03116 0.0
H418 H 0.45689 0.61678 0.96276 0.0
H419 H 0.49497 0.66033 0.84242 0.0
H420 H 0.41651 0.61488 0.62726 0.0
H421 H 0.34632 0.55159 0.69516 0.0
C422 C 0.33911 0.53599 0.8482 0.0
C423 C 0.34015 0.53035 0.92881 0.0
C424 C 0.3801 0.56992 0.80834 0.0
C425 C 0.38335 0.55917 0.96924 0.0
C426 C 0.42427 0.59411 0.93011 0.0
C427 C 0.46266 0.6363 0.81038 0.0
C428 C 0.46059 0.64247 0.73013 0.0
C429 C 0.42278 0.60004 0.8498 0.0
C430 C 0.41891 0.61064 0.68891 0.0
C431 C 0.37877 0.57481 0.72782 0.0
H432 H 0.84539 0.33546 0.1877 0.0
H433 H 0.772 0.3536 0.38304 0.0
H434 H 0.75815 0.41109 0.30957 0.0
H435 H 0.75939 0.44852 0.18659 0.0
H436 H 0.83559 0.43414 0.99119 0.0
H437 H 0.85307 0.37951 0.06639 0.0
C438 C 0.82658 0.35227 0.21398 0.0
C439 C 0.80918 0.34016 0.29008 0.0
C440 C 0.81799 0.38436 0.17076 0.0
C441 C 0.78609 0.36293 0.32483 0.0
C442 C 0.77756 0.39509 0.28242 0.0
C443 C 0.78077 0.43447 0.1605 0.0
C444 C 0.7965 0.44588 0.08332 0.0
C445 C 0.79217 0.40492 0.20481 0.0
C446 C 0.82289 0.4259 0.05023 0.0
C447 C 0.83321 0.39503 0.09344 0.0
H448 H 0.34967 0.81355 0.39529 0.0
H449 H 0.27788 0.78359 0.61618 0.0
H450 H 0.34916 0.78908 0.67914 0.0
H451 H 0.42915 0.79399 0.66904 0.0
H452 H 0.50096 0.82576 0.44852 0.0
H453 H 0.43322 0.82882 0.38819 0.0
C454 C 0.34987 0.8089 0.45732 0.0
C455 C 0.30795 0.79656 0.50046 0.0
C456 C 0.39109 0.81224 0.4933 0.0
C457 C 0.30906 0.79131 0.58106 0.0
C458 C 0.34999 0.79484 0.61734 0.0
C459 C 0.43025 0.80259 0.60823 0.0
C460 C 0.46926 0.80832 0.56264 0.0
C461 C 0.39078 0.80393 0.57373 0.0
C462 C 0.47046 0.81955 0.48399 0.0
C463 C 0.43186 0.8216 0.44957 0.0
H464 H 0.6669 0.47353 0.77725 0.0
H465 H 0.59222 0.43235 0.99579 0.0
H466 H 0.51808 0.37388 0.9297 0.0
H467 H 0.47699 0.33063 0.81157 0.0
H468 H 0.5536 0.36499 0.59541 0.0
H469 H 0.62472 0.43139 0.65806 0.0
C470 C 0.63469 0.45126 0.81063 0.0
C471 C 0.63556 0.45621 0.89171 0.0
C472 C 0.5927 0.41703 0.77244 0.0
C473 C 0.59272 0.42885 0.9336 0.0
C474 C 0.55039 0.39543 0.89583 0.0
C475 C 0.50947 0.35215 0.77856 0.0
C476 C 0.51072 0.34205 0.69982 0.0
C477 C 0.55041 0.38851 0.81566 0.0
C478 C 0.55193 0.37206 0.65622 0.0
C479 C 0.59263 0.40959 0.69225 0.0
loop_
_geom_bond_atom_site_label_1
_geom_bond_atom_site_label_2
_geom_bond_distance
_geom_bond_site_symmetry_2
_ccdc_geom_bond_type
Zn0 O1 2.055 . S
Zn0 O8 2.046 . S
Zn0 N16 2.036 . S
Zn0 O28 2.053 . S
Zn0 O30 2.066 . S
O1 Zn0 2.055 . S
O1 C4 1.259 . S
C2 O30 1.256 . S
C2 O31 1.244 1_554 S
Zn3 O5 2.046 . S
Zn3 O7 2.055 . S
Zn3 N9 2.036 . S
Zn3 O27 2.066 . S
Zn3 O31 2.053 . S
C4 O1 1.259 . S
C4 O5 1.254 1_554 S
O5 Zn3 2.046 . S
O5 C4 1.254 1_556 S
C6 O27 1.256 . S
C6 O28 1.244 1_556 S
O7 Zn3 2.055 . S
O7 C29 1.259 . S
O8 Zn0 2.046 . S
O8 C29 1.254 1_554 S
N9 Zn3 2.036 . S
N9 C10 1.298 . S
N9 N12 1.398 . S
C10 N9 1.298 . S
C10 N13 1.367 . S
C10 C23 1.481 . S
C11 N12 1.299 . S
C11 N13 1.379 . S
N12 N9 1.398 . S
N12 C11 1.299 . S
N13 C10 1.367 . S
N13 C11 1.379 . S
C14 N16 1.298 . S
C14 N18 1.367 . S
C14 C22 1.481 . S
C15 N17 1.299 . S
C15 N18 1.379 . S
N16 Zn0 2.036 . S
N16 C14 1.298 . S
N16 N17 1.398 . S
N17 C15 1.299 . S
N17 N16 1.398 . S
N18 C14 1.367 . S
N18 C15 1.379 . S
H19 C22 0.980 . S
H20 C22 0.981 . S
H21 C22 0.981 . S
C22 C14 1.481 . S
C22 H19 0.980 . S
C22 H20 0.981 . S
C22 H21 0.981 . S
C23 C10 1.481 . S
C23 H24 0.980 . S
C23 H25 0.981 . S
C23 H26 0.981 . S
H24 C23 0.980 . S
H25 C23 0.981 . S
H26 C23 0.981 . S
O27 Zn3 2.066 . S
O27 C6 1.256 . S
O28 Zn0 2.053 . S
O28 C6 1.244 1_554 S
C29 O7 1.259 . S
C29 O8 1.254 1_556 S
O30 Zn0 2.066 . S
O30 C2 1.256 . S
O31 C2 1.244 1_556 S
O31 Zn3 2.053 . S
Zn32 O33 2.055 . S
Zn32 O40 2.046 . S
Zn32 N48 2.036 . S
Zn32 O60 2.053 . S
Zn32 O62 2.066 . S
O33 Zn32 2.055 . S
O33 C36 1.259 . S
C34 O62 1.256 . S
C34 O63 1.244 . S
Zn35 O37 2.046 . S
Zn35 O39 2.055 . S
Zn35 N41 2.036 . S
Zn35 O59 2.066 . S
Zn35 O63 2.053 . S
C36 O33 1.259 . S
C36 O37 1.254 . S
O37 Zn35 2.046 . S
O37 C36 1.254 . S
C38 O59 1.256 . S
C38 O60 1.244 . S
O39 Zn35 2.055 . S
O39 C61 1.259 . S
O40 Zn32 2.046 . S
O40 C61 1.254 . S
N41 Zn35 2.036 . S
N41 C42 1.298 . S
N41 N44 1.398 . S
C42 N41 1.298 . S
C42 N45 1.367 . S
C42 C55 1.481 . S
C43 N44 1.299 . S
C43 N45 1.379 . S
N44 N41 1.398 . S
N44 C43 1.299 . S
N45 C42 1.367 . S
N45 C43 1.379 . S
C46 N48 1.298 . S
C46 N50 1.367 . S
C46 C54 1.481 . S
C47 N49 1.299 . S
C47 N50 1.379 . S
N48 Zn32 2.036 . S
N48 C46 1.298 . S
N48 N49 1.398 . S
N49 C47 1.299 . S
N49 N48 1.398 . S
N50 C46 1.367 . S
N50 C47 1.379 . S
H51 C54 0.980 . S
H52 C54 0.981 . S
H53 C54 0.981 . S
C54 C46 1.481 . S
C54 H51 0.980 . S
C54 H52 0.981 . S
C54 H53 0.981 . S
C55 C42 1.481 . S
C55 H56 0.980 . S
C55 H57 0.981 . S
C55 H58 0.981 . S
H56 C55 0.980 . S
H57 C55 0.981 . S
H58 C55 0.981 . S
O59 Zn35 2.066 . S
O59 C38 1.256 . S
O60 Zn32 2.053 . S
O60 C38 1.244 . S
C61 O39 1.259 . S
C61 O40 1.254 . S
O62 Zn32 2.066 . S
O62 C34 1.256 . S
O63 C34 1.244 . S
O63 Zn35 2.053 . S
Zn64 O65 2.055 . S
Zn64 O72 2.046 . S
Zn64 N80 2.036 . S
Zn64 O92 2.053 . S
Zn64 O94 2.066 . S
O65 Zn64 2.055 . S
O65 C68 1.259 . S
C66 O94 1.256 . S
C66 O95 1.244 . S
Zn67 O69 2.046 . S
Zn67 O71 2.055 . S
Zn67 N73 2.036 . S
Zn67 O91 2.066 . S
Zn67 O95 2.053 . S
C68 O65 1.259 . S
C68 O69 1.254 . S
O69 Zn67 2.046 . S
O69 C68 1.254 . S
C70 O91 1.256 . S
C70 O92 1.244 . S
O71 Zn67 2.055 . S
O71 C93 1.259 . S
O72 Zn64 2.046 . S
O72 C93 1.254 . S
N73 Zn67 2.036 . S
N73 C74 1.298 . S
N73 N76 1.398 . S
C74 N73 1.298 . S
C74 N77 1.367 . S
C74 C87 1.481 . S
C75 N76 1.299 . S
C75 N77 1.379 . S
N76 N73 1.398 . S
N76 C75 1.299 . S
N77 C74 1.367 . S
N77 C75 1.379 . S
C78 N80 1.298 . S
C78 N82 1.367 . S
C78 C86 1.481 . S
C79 N81 1.299 . S
C79 N82 1.379 . S
N80 Zn64 2.036 . S
N80 C78 1.298 . S
N80 N81 1.398 . S
N81 C79 1.299 . S
N81 N80 1.398 . S
N82 C78 1.367 . S
N82 C79 1.379 . S
H83 C86 0.980 . S
H84 C86 0.981 . S
H85 C86 0.981 . S
C86 C78 1.481 . S
C86 H83 0.980 . S
C86 H84 0.981 . S
C86 H85 0.981 . S
C87 C74 1.481 . S
C87 H88 0.980 . S
C87 H89 0.981 . S
C87 H90 0.981 . S
H88 C87 0.980 . S
H89 C87 0.981 . S
H90 C87 0.981 . S
O91 Zn67 2.066 . S
O91 C70 1.256 . S
O92 Zn64 2.053 . S
O92 C70 1.244 . S
C93 O71 1.259 . S
C93 O72 1.254 . S
O94 Zn64 2.066 . S
O94 C66 1.256 . S
O95 C66 1.244 . S
O95 Zn67 2.053 . S
Zn96 O97 2.055 . S
Zn96 O104 2.046 . S
Zn96 N112 2.036 . S
Zn96 O124 2.053 . S
Zn96 O126 2.066 . S
O97 Zn96 2.055 . S
O97 C100 1.259 . S
C98 O126 1.256 . S
C98 O127 1.244 1_556 S
Zn99 O101 2.046 . S
Zn99 O103 2.055 . S
Zn99 N105 2.036 . S
Zn99 O123 2.066 . S
Zn99 O127 2.053 . S
C100 O97 1.259 . S
C100 O101 1.254 1_556 S
O101 Zn99 2.046 . S
O101 C100 1.254 1_554 S
C102 O123 1.256 . S
C102 O124 1.244 1_554 S
O103 Zn99 2.055 . S
O103 C125 1.259 . S
O104 Zn96 2.046 . S
O104 C125 1.254 1_556 S
N105 Zn99 2.036 . S
N105 C106 1.298 . S
N105 N108 1.398 . S
C106 N105 1.298 . S
C106 N109 1.367 . S
C106 C119 1.481 . S
C107 N108 1.299 . S
C107 N109 1.379 . S
N108 N105 1.398 . S
N108 C107 1.299 . S
N109 C106 1.367 . S
N109 C107 1.379 . S
C110 N112 1.298 . S
C110 N114 1.367 . S
C110 C118 1.481 . S
C111 N113 1.299 . S
C111 N114 1.379 . S
N112 Zn96 2.036 . S
N112 C110 1.298 . S
N112 N113 1.398 . S
N113 C111 1.299 . S
N113 N112 1.398 . S
N114 C110 1.367 . S
N114 C111 1.379 . S
H115 C118 0.980 . S
H116 C118 0.981 . S
H117 C118 0.981 . S
C118 C110 1.481 . S
C118 H115 0.980 . S
C118 H116 0.981 . S
C118 H117 0.981 . S
C119 C106 1.481 . S
C119 H120 0.980 . S
C119 H121 0.981 . S
C119 H122 0.981 . S
H120 C119 0.980 . S
H121 C119 0.981 . S
H122 C119 0.981 . S
O123 Zn99 2.066 . S
O123 C102 1.256 . S
O124 Zn96 2.053 . S
O124 C102 1.244 1_556 S
C125 O103 1.259 . S
C125 O104 1.254 1_554 S
O126 Zn96 2.066 . S
O126 C98 1.256 . S
O127 C98 1.244 1_554 S
O127 Zn99 2.053 . S
Zn128 O129 2.055 . S
Zn128 O136 2.046 . S
Zn128 N144 2.036 . S
Zn128 O156 2.053 . S
Zn128 O158 2.066 . S
O129 Zn128 2.055 . S
O129 C132 1.259 . S
C130 O158 1.256 . S
C130 O159 1.244 . S
Zn131 O133 2.046 . S
Zn131 O135 2.055 . S
Zn131 N137 2.036 . S
Zn131 O155 2.066 . S
Zn131 O159 2.053 . S
C132 O129 1.259 . S
C132 O133 1.254 . S
O133 Zn131 2.046 . S
O133 C132 1.254 . S
C134 O155 1.256 . S
C134 O156 1.244 . S
O135 Zn131 2.055 . S
O135 C157 1.259 . S
O136 Zn128 2.046 . S
O136 C157 1.254 . S
N137 Zn131 2.036 . S
N137 C138 1.298 . S
N137 N140 1.398 . S
C138 N137 1.298 . S
C138 N141 1.367 . S
C138 C151 1.481 . S
C139 N140 1.299 . S
C139 N141 1.379 . S
N140 N137 1.398 . S
N140 C139 1.299 . S
N141 C138 1.367 . S
N141 C139 1.379 . S
C142 N144 1.298 . S
C142 N146 1.367 . S
C142 C150 1.481 . S
C143 N145 1.299 . S
C143 N146 1.379 . S
N144 Zn128 2.036 . S
N144 C142 1.298 . S
N144 N145 1.398 . S
N145 C143 1.299 . S
N145 N144 1.398 . S
N146 C142 1.367 . S
N146 C143 1.379 . S
H147 C150 0.980 . S
H148 C150 0.981 . S
H149 C150 0.981 . S
C150 C142 1.481 . S
C150 H147 0.980 . S
C150 H148 0.981 . S
C150 H149 0.981 . S
C151 C138 1.481 . S
C151 H152 0.980 . S
C151 H153 0.981 . S
C151 H154 0.981 . S
H152 C151 0.980 . S
H153 C151 0.981 . S
H154 C151 0.981 . S
O155 Zn131 2.066 . S
O155 C134 1.256 . S
O156 Zn128 2.053 . S
O156 C134 1.244 . S
C157 O135 1.259 . S
C157 O136 1.254 . S
O158 Zn128 2.066 . S
O158 C130 1.256 . S
O159 C130 1.244 . S
O159 Zn131 2.053 . S
Zn160 O161 2.055 . S
Zn160 O168 2.046 . S
Zn160 N176 2.036 . S
Zn160 O188 2.053 . S
Zn160 O190 2.066 . S
O161 Zn160 2.055 . S
O161 C164 1.259 . S
C162 O190 1.256 . S
C162 O191 1.244 . S
Zn163 O165 2.046 . S
Zn163 O167 2.055 . S
Zn163 N169 2.036 . S
Zn163 O187 2.066 . S
Zn163 O191 2.053 . S
C164 O161 1.259 . S
C164 O165 1.254 . S
O165 Zn163 2.046 . S
O165 C164 1.254 . S
C166 O187 1.256 . S
C166 O188 1.244 . S
O167 Zn163 2.055 . S
O167 C189 1.259 . S
O168 Zn160 2.046 . S
O168 C189 1.254 . S
N169 Zn163 2.036 . S
N169 C170 1.298 . S
N169 N172 1.398 . S
C170 N169 1.298 . S
C170 N173 1.367 . S
C170 C183 1.481 . S
C171 N172 1.299 . S
C171 N173 1.379 . S
N172 N169 1.398 . S
N172 C171 1.299 . S
N173 C170 1.367 . S
N173 C171 1.379 . S
C174 N176 1.298 . S
C174 N178 1.367 . S
C174 C182 1.481 . S
C175 N177 1.299 . S
C175 N178 1.379 . S
N176 Zn160 2.036 . S
N176 C174 1.298 . S
N176 N177 1.398 . S
N177 C175 1.299 . S
N177 N176 1.398 . S
N178 C174 1.367 . S
N178 C175 1.379 . S
H179 C182 0.980 . S
H180 C182 0.981 . S
H181 C182 0.981 . S
C182 C174 1.481 . S
C182 H179 0.980 . S
C182 H180 0.981 . S
C182 H181 0.981 . S
C183 C170 1.481 . S
C183 H184 0.980 . S
C183 H185 0.981 . S
C183 H186 0.981 . S
H184 C183 0.980 . S
H185 C183 0.981 . S
H186 C183 0.981 . S
O187 Zn163 2.066 . S
O187 C166 1.256 . S
O188 Zn160 2.053 . S
O188 C166 1.244 . S
C189 O167 1.259 . S
C189 O168 1.254 . S
O190 Zn160 2.066 . S
O190 C162 1.256 . S
O191 C162 1.244 . S
O191 Zn163 2.053 . S
H192 C198 0.930 . S
H193 C201 0.930 . S
H194 C202 0.930 . S
H195 C203 0.930 . S
H196 C206 0.930 . S
H197 C207 0.930 . S
C198 H192 0.930 . S
C198 C199 1.355 . S
C198 C200 1.415 . S
C199 C198 1.355 . S
C199 C201 1.419 . S
C200 C198 1.415 . S
C200 C205 1.425 . S
C200 C207 1.409 . S
C201 H193 0.930 . S
C201 C199 1.419 . S
C201 C202 1.362 . S
C202 H194 0.930 . S
C202 C201 1.362 . S
C202 C205 1.409 . S
C203 H195 0.930 . S
C203 C204 1.355 . S
C203 C205 1.415 . S
C204 C203 1.355 . S
C204 C206 1.419 . S
C205 C200 1.425 . S
C205 C202 1.409 . S
C205 C203 1.415 . S
C206 H196 0.930 . S
C206 C204 1.419 . S
C206 C207 1.362 . S
C207 H197 0.930 . S
C207 C200 1.409 . S
C207 C206 1.362 . S
H208 C214 0.930 . S
H209 C217 0.930 1_556 S
H210 C218 0.930 . S
H211 C219 0.930 . S
H212 C222 0.930 . S
H213 C223 0.930 . S
C214 H208 0.930 . S
C214 C215 1.355 . S
C214 C216 1.415 . S
C215 C214 1.355 . S
C215 C217 1.419 . S
C216 C214 1.415 . S
C216 C221 1.425 1_455 S
C216 C223 1.409 . S
C217 H209 0.930 1_554 S
C217 C215 1.419 . S
C217 C218 1.362 1_455 S
C218 H210 0.930 . S
C218 C217 1.362 1_655 S
C218 C221 1.409 . S
C219 H211 0.930 . S
C219 C220 1.355 . S
C219 C221 1.415 . S
C220 C219 1.355 . S
C220 C222 1.419 . S
C221 C216 1.425 1_655 S
C221 C218 1.409 . S
C221 C219 1.415 . S
C222 H212 0.930 . S
C222 C220 1.419 . S
C222 C223 1.362 1_655 S
C223 H213 0.930 . S
C223 C216 1.409 . S
C223 C222 1.362 1_455 S
H224 C230 0.930 . S
H225 C233 0.930 . S
H226 C234 0.930 . S
H227 C235 0.930 . S
H228 C238 0.930 . S
H229 C239 0.930 . S
C230 H224 0.930 . S
C230 C231 1.355 . S
C230 C232 1.415 1_545 S
C231 C230 1.355 . S
C231 C233 1.419 . S
C232 C230 1.415 1_565 S
C232 C237 1.425 1_565 S
C232 C239 1.409 . S
C233 H225 0.930 . S
C233 C231 1.419 . S
C233 C234 1.362 . S
C234 H226 0.930 . S
C234 C233 1.362 . S
C234 C237 1.409 . S
C235 H227 0.930 . S
C235 C236 1.355 . S
C235 C237 1.415 1_565 S
C236 C235 1.355 . S
C236 C238 1.419 . S
C237 C232 1.425 1_545 S
C237 C234 1.409 . S
C237 C235 1.415 1_545 S
C238 H228 0.930 . S
C238 C236 1.419 . S
C238 C239 1.362 . S
C239 H229 0.930 . S
C239 C232 1.409 . S
C239 C238 1.362 . S
H240 C246 0.930 . S
H241 C249 0.930 . S
H242 C250 0.930 . S
H243 C251 0.930 . S
H244 C254 0.930 . S
H245 C255 0.930 . S
C246 H240 0.930 . S
C246 C247 1.355 . S
C246 C248 1.415 . S
C247 C246 1.355 . S
C247 C249 1.419 . S
C248 C246 1.415 . S
C248 C253 1.425 . S
C248 C255 1.409 . S
C249 H241 0.930 . S
C249 C247 1.419 . S
C249 C250 1.362 . S
C250 H242 0.930 . S
C250 C249 1.362 . S
C250 C253 1.409 . S
C251 H243 0.930 . S
C251 C252 1.355 . S
C251 C253 1.415 . S
C252 C251 1.355 . S
C252 C254 1.419 . S
C253 C248 1.425 . S
C253 C250 1.409 . S
C253 C251 1.415 . S
C254 H244 0.930 . S
C254 C252 1.419 . S
C254 C255 1.362 . S
C255 H245 0.930 . S
C255 C248 1.409 . S
C255 C254 1.362 . S
H256 C262 0.930 . S
H257 C265 0.930 . S
H258 C266 0.930 . S
H259 C267 0.930 . S
H260 C270 0.930 1_556 S
H261 C271 0.930 . S
C262 H256 0.930 . S
C262 C263 1.355 . S
C262 C264 1.415 . S
C263 C262 1.355 . S
C263 C265 1.419 . S
C264 C262 1.415 . S
C264 C269 1.425 1_455 S
C264 C271 1.409 . S
C265 H257 0.930 . S
C265 C263 1.419 . S
C265 C266 1.362 1_455 S
C266 H258 0.930 . S
C266 C265 1.362 1_655 S
C266 C269 1.409 . S
C267 H259 0.930 . S
C267 C268 1.355 . S
C267 C269 1.415 . S
C268 C267 1.355 . S
C268 C270 1.419 . S
C269 C264 1.425 1_655 S
C269 C266 1.409 . S
C269 C267 1.415 . S
C270 H260 0.930 1_554 S
C270 C268 1.419 . S
C270 C271 1.362 1_655 S
C271 H261 0.930 . S
C271 C264 1.409 . S
C271 C270 1.362 1_455 S
H272 C278 0.930 . S
H273 C281 0.930 . S
H274 C282 0.930 . S
H275 C283 0.930 . S
H276 C286 0.930 . S
H277 C287 0.930 . S
C278 H272 0.930 . S
C278 C279 1.355 . S
C278 C280 1.415 1_545 S
C279 C278 1.355 . S
C279 C281 1.419 . S
C280 C278 1.415 1_565 S
C280 C285 1.425 1_565 S
C280 C287 1.409 . S
C281 H273 0.930 . S
C281 C279 1.419 . S
C281 C282 1.362 . S
C282 H274 0.930 . S
C282 C281 1.362 . S
C282 C285 1.409 . S
C283 H275 0.930 . S
C283 C284 1.355 . S
C283 C285 1.415 1_565 S
C284 C283 1.355 . S
C284 C286 1.419 . S
C285 C280 1.425 1_545 S
C285 C282 1.409 . S
C285 C283 1.415 1_545 S
C286 H276 0.930 . S
C286 C284 1.419 . S
C286 C287 1.362 . S
C287 H277 0.930 . S
C287 C280 1.409 . S
C287 C286 1.362 . S
H288 C294 0.930 . S
H289 C297 0.930 . S
H290 C298 0.930 . S
H291 C299 0.930 . S
H292 C302 0.930 . S
H293 C303 0.930 . S
C294 H288 0.930 . S
C294 C295 1.355 . S
C294 C296 1.415 . S
C295 C294 1.355 . S
C295 C297 1.419 . S
C296 C294 1.415 . S
C296 C301 1.425 . S
C296 C303 1.409 . S
C297 H289 0.930 . S
C297 C295 1.419 . S
C297 C298 1.362 . S
C298 H290 0.930 . S
C298 C297 1.362 . S
C298 C301 1.409 . S
C299 H291 0.930 . S
C299 C300 1.355 . S
C299 C301 1.415 . S
C300 C299 1.355 . S
C300 C302 1.419 . S
C301 C296 1.425 . S
C301 C298 1.409 . S
C301 C299 1.415 . S
C302 H292 0.930 . S
C302 C300 1.419 . S
C302 C303 1.362 . S
C303 H293 0.930 . S
C303 C296 1.409 . S
C303 C302 1.362 . S
H304 C310 0.930 . S
H305 C313 0.930 1_554 S
H306 C314 0.930 . S
H307 C315 0.930 . S
H308 C318 0.930 . S
H309 C319 0.930 . S
C310 H304 0.930 . S
C310 C311 1.355 . S
C310 C312 1.415 . S
C311 C310 1.355 . S
C311 C313 1.419 . S
C312 C310 1.415 . S
C312 C317 1.425 . S
C312 C319 1.409 . S
C313 H305 0.930 1_556 S
C313 C311 1.419 . S
C313 C314 1.362 . S
C314 H306 0.930 . S
C314 C313 1.362 . S
C314 C317 1.409 . S
C315 H307 0.930 . S
C315 C316 1.355 . S
C315 C317 1.415 . S
C316 C315 1.355 . S
C316 C318 1.419 . S
C317 C312 1.425 . S
C317 C314 1.409 . S
C317 C315 1.415 . S
C318 H308 0.930 . S
C318 C316 1.419 . S
C318 C319 1.362 . S
C319 H309 0.930 . S
C319 C312 1.409 . S
C319 C318 1.362 . S
H320 C326 0.930 . S
H321 C329 0.930 . S
H322 C330 0.930 . S
H323 C331 0.930 . S
H324 C334 0.930 . S
H325 C335 0.930 . S
C326 H320 0.930 . S
C326 C327 1.355 . S
C326 C328 1.415 . S
C327 C326 1.355 . S
C327 C329 1.419 . S
C328 C326 1.415 . S
C328 C333 1.425 . S
C328 C335 1.409 . S
C329 H321 0.930 . S
C329 C327 1.419 . S
C329 C330 1.362 . S
C330 H322 0.930 . S
C330 C329 1.362 . S
C330 C333 1.409 . S
C331 H323 0.930 . S
C331 C332 1.355 . S
C331 C333 1.415 . S
C332 C331 1.355 . S
C332 C334 1.419 . S
C333 C328 1.425 . S
C333 C330 1.409 . S
C333 C331 1.415 . S
C334 H324 0.930 . S
C334 C332 1.419 . S
C334 C335 1.362 . S
C335 H325 0.930 . S
C335 C328 1.409 . S
C335 C334 1.362 . S
H336 C342 0.930 . S
H337 C345 0.930 . S
H338 C346 0.930 . S
H339 C347 0.930 . S
H340 C350 0.930 . S
H341 C351 0.930 . S
C342 H336 0.930 . S
C342 C343 1.355 . S
C342 C344 1.415 . S
C343 C342 1.355 . S
C343 C345 1.419 . S
C344 C342 1.415 . S
C344 C349 1.425 . S
C344 C351 1.409 . S
C345 H337 0.930 . S
C345 C343 1.419 . S
C345 C346 1.362 . S
C346 H338 0.930 . S
C346 C345 1.362 . S
C346 C349 1.409 . S
C347 H339 0.930 . S
C347 C348 1.355 . S
C347 C349 1.415 . S
C348 C347 1.355 . S
C348 C350 1.419 . S
C349 C344 1.425 . S
C349 C346 1.409 . S
C349 C347 1.415 . S
C350 H340 0.930 . S
C350 C348 1.419 . S
C350 C351 1.362 . S
C351 H341 0.930 . S
C351 C344 1.409 . S
C351 C350 1.362 . S
H352 C358 0.930 . S
H353 C361 0.930 . S
H354 C362 0.930 . S
H355 C363 0.930 . S
H356 C366 0.930 1_554 S
H357 C367 0.930 . S
C358 H352 0.930 . S
C358 C359 1.355 . S
C358 C360 1.415 . S
C359 C358 1.355 . S
C359 C361 1.419 . S
C360 C358 1.415 . S
C360 C365 1.425 . S
C360 C367 1.409 . S
C361 H353 0.930 . S
C361 C359 1.419 . S
C361 C362 1.362 . S
C362 H354 0.930 . S
C362 C361 1.362 . S
C362 C365 1.409 . S
C363 H355 0.930 . S
C363 C364 1.355 . S
C363 C365 1.415 . S
C364 C363 1.355 . S
C364 C366 1.419 . S
C365 C360 1.425 . S
C365 C362 1.409 . S
C365 C363 1.415 . S
C366 H356 0.930 1_556 S
C366 C364 1.419 . S
C366 C367 1.362 . S
C367 H357 0.930 . S
C367 C360 1.409 . S
C367 C366 1.362 . S
H368 C374 0.930 . S
H369 C377 0.930 . S
H370 C378 0.930 . S
H371 C379 0.930 . S
H372 C382 0.930 1_556 S
H373 C383 0.930 . S
C374 H368 0.930 . S
C374 C375 1.355 . S
C374 C376 1.415 . S
C375 C374 1.355 . S
C375 C377 1.419 . S
C376 C374 1.415 . S
C376 C381 1.425 . S
C376 C383 1.409 . S
C377 H369 0.930 . S
C377 C375 1.419 . S
C377 C378 1.362 . S
C378 H370 0.930 . S
C378 C377 1.362 . S
C378 C381 1.409 . S
C379 H371 0.930 . S
C379 C380 1.355 . S
C379 C381 1.415 . S
C380 C379 1.355 . S
C380 C382 1.419 . S
C381 C376 1.425 . S
C381 C378 1.409 . S
C381 C379 1.415 . S
C382 H372 0.930 1_554 S
C382 C380 1.419 . S
C382 C383 1.362 . S
C383 H373 0.930 . S
C383 C376 1.409 . S
C383 C382 1.362 . S
H384 C390 0.930 . S
H385 C393 0.930 . S
H386 C394 0.930 . S
H387 C395 0.930 . S
H388 C398 0.930 . S
H389 C399 0.930 . S
C390 H384 0.930 . S
C390 C391 1.355 . S
C390 C392 1.415 . S
C391 C390 1.355 . S
C391 C393 1.419 . S
C392 C390 1.415 . S
C392 C397 1.425 . S
C392 C399 1.409 . S
C393 H385 0.930 . S
C393 C391 1.419 . S
C393 C394 1.362 . S
C394 H386 0.930 . S
C394 C393 1.362 . S
C394 C397 1.409 . S
C395 H387 0.930 . S
C395 C396 1.355 . S
C395 C397 1.415 . S
C396 C395 1.355 . S
C396 C398 1.419 . S
C397 C392 1.425 . S
C397 C394 1.409 . S
C397 C395 1.415 . S
C398 H388 0.930 . S
C398 C396 1.419 . S
C398 C399 1.362 . S
C399 H389 0.930 . S
C399 C392 1.409 . S
C399 C398 1.362 . S
H400 C406 0.930 . S
H401 C409 0.930 . S
H402 C410 0.930 . S
H403 C411 0.930 . S
H404 C414 0.930 . S
H405 C415 0.930 . S
C406 H400 0.930 . S
C406 C407 1.355 . S
C406 C408 1.415 . S
C407 C406 1.355 . S
C407 C409 1.419 . S
C408 C406 1.415 . S
C408 C413 1.425 . S
C408 C415 1.409 . S
C409 H401 0.930 . S
C409 C407 1.419 . S
C409 C410 1.362 . S
C410 H402 0.930 . S
C410 C409 1.362 . S
C410 C413 1.409 . S
C411 H403 0.930 . S
C411 C412 1.355 . S
C411 C413 1.415 . S
C412 C411 1.355 . S
C412 C414 1.419 . S
C413 C408 1.425 . S
C413 C410 1.409 . S
C413 C411 1.415 . S
C414 H404 0.930 . S
C414 C412 1.419 . S
C414 C415 1.362 . S
C415 H405 0.930 . S
C415 C408 1.409 . S
C415 C414 1.362 . S
H416 C422 0.930 . S
H417 C425 0.930 . S
H418 C426 0.930 . S
H419 C427 0.930 . S
H420 C430 0.930 . S
H421 C431 0.930 . S
C422 H416 0.930 . S
C422 C423 1.355 . S
C422 C424 1.415 . S
C423 C422 1.355 . S
C423 C425 1.419 . S
C424 C422 1.415 . S
C424 C429 1.425 . S
C424 C431 1.409 . S
C425 H417 0.930 . S
C425 C423 1.419 . S
C425 C426 1.362 . S
C426 H418 0.930 . S
C426 C425 1.362 . S
C426 C429 1.409 . S
C427 H419 0.930 . S
C427 C428 1.355 . S
C427 C429 1.415 . S
C428 C427 1.355 . S
C428 C430 1.419 . S
C429 C424 1.425 . S
C429 C426 1.409 . S
C429 C427 1.415 . S
C430 H420 0.930 . S
C430 C428 1.419 . S
C430 C431 1.362 . S
C431 H421 0.930 . S
C431 C424 1.409 . S
C431 C430 1.362 . S
H432 C438 0.930 . S
H433 C441 0.930 . S
H434 C442 0.930 . S
H435 C443 0.930 . S
H436 C446 0.930 . S
H437 C447 0.930 . S
C438 H432 0.930 . S
C438 C439 1.355 . S
C438 C440 1.415 . S
C439 C438 1.355 . S
C439 C441 1.419 . S
C440 C438 1.415 . S
C440 C445 1.425 . S
C440 C447 1.409 . S
C441 H433 0.930 . S
C441 C439 1.419 . S
C441 C442 1.362 . S
C442 H434 0.930 . S
C442 C441 1.362 . S
C442 C445 1.409 . S
C443 H435 0.930 . S
C443 C444 1.355 . S
C443 C445 1.415 . S
C444 C443 1.355 . S
C444 C446 1.419 . S
C445 C440 1.425 . S
C445 C442 1.409 . S
C445 C443 1.415 . S
C446 H436 0.930 . S
C446 C444 1.419 . S
C446 C447 1.362 . S
C447 H437 0.930 . S
C447 C440 1.409 . S
C447 C446 1.362 . S
H448 C454 0.930 . S
H449 C457 0.930 . S
H450 C458 0.930 . S
H451 C459 0.930 . S
H452 C462 0.930 . S
H453 C463 0.930 . S
C454 H448 0.930 . S
C454 C455 1.355 . S
C454 C456 1.415 . S
C455 C454 1.355 . S
C455 C457 1.419 . S
C456 C454 1.415 . S
C456 C461 1.425 . S
C456 C463 1.409 . S
C457 H449 0.930 . S
C457 C455 1.419 . S
C457 C458 1.362 . S
C458 H450 0.930 . S
C458 C457 1.362 . S
C458 C461 1.409 . S
C459 H451 0.930 . S
C459 C460 1.355 . S
C459 C461 1.415 . S
C460 C459 1.355 . S
C460 C462 1.419 . S
C461 C456 1.425 . S
C461 C458 1.409 . S
C461 C459 1.415 . S
C462 H452 0.930 . S
C462 C460 1.419 . S
C462 C463 1.362 . S
C463 H453 0.930 . S
C463 C456 1.409 . S
C463 C462 1.362 . S
H464 C470 0.930 . S
H465 C473 0.930 . S
H466 C474 0.930 . S
H467 C475 0.930 . S
H468 C478 0.930 . S
H469 C479 0.930 . S
C470 H464 0.930 . S
C470 C471 1.355 . S
C470 C472 1.415 . S
C471 C470 1.355 . S
C471 C473 1.419 . S
C472 C470 1.415 . S
C472 C477 1.425 . S
C472 C479 1.409 . S
C473 H465 0.930 . S
C473 C471 1.419 . S
C473 C474 1.362 . S
C474 H466 0.930 . S
C474 C473 1.362 . S
C474 C477 1.409 . S
C475 H467 0.930 . S
C475 C476 1.355 . S
C475 C477 1.415 . S
C476 C475 1.355 . S
C476 C478 1.419 . S
C477 C472 1.425 . S
C477 C474 1.409 . S
C477 C475 1.415 . S
C478 H468 0.930 . S
C478 C476 1.419 . S
C478 C479 1.362 . S
C479 H469 0.930 . S
C479 C472 1.409 . S
C479 C478 1.362 . S
C199 C166 1.491 . S
C204 C6 1.470 . S
C215 C2 1.501 . S
C220 C34 1.497 . S
C231 C38 1.458 . S
C236 C70 1.462 . S
C247 C66 1.459 . S
C252 C98 1.476 . S
C263 C134 1.500 . S
C268 C102 1.498 . S
C279 C162 1.459 . S
C284 C130 1.476 . S
C295 N13 1.295 . S
C300 N18 1.307 . S
C311 N50 1.283 1_556 S
C316 N45 1.268 . S
C327 N77 1.307 . S
C332 N82 1.294 1_554 S
C343 N114 1.262 . S
C348 N109 1.257 . S
C359 N146 1.258 . S
C364 N141 1.260 1_556 S
C375 N178 1.277 . S
C380 N173 1.264 1_554 S
C391 C4 1.593 . S
C396 C157 1.542 . S
C407 C61 1.545 . S
C412 C164 1.574 . S
C423 C29 1.592 . S
C428 C68 1.542 . S
C439 C36 1.559 . S
C444 C125 1.601 . S
C455 C132 1.546 . S
C460 C93 1.573 . S
C471 C100 1.548 . S
C476 C189 1.569 . S
