# Generated by pormake.
# Topology smc, (6)-cn, num edge types: 1
# Building blocks:
#     Node 0, Type 0, BuildingBlock: KUMJIN_clean_sbu_0, # of connection points: 6
#     Node 1, Type 0, BuildingBlock: KUMJIN_clean_sbu_0, # of connection points: 6
#     Node 2, Type 0, BuildingBlock: KUMJIN_clean_sbu_0, # of connection points: 6
#     Node 3, Type 0, BuildingBlock: KUMJIN_clean_sbu_0, # of connection points: 6
#     Node 4, Type 0, BuildingBlock: KUMJIN_clean_sbu_0, # of connection points: 6
#     Node 5, Type 0, BuildingBlock: KUMJIN_clean_sbu_0, # of connection points: 6
#     Node 6, Type 0, BuildingBlock: KUMJIN_clean_sbu_0, # of connection points: 6
#     Node 7, Type 0, BuildingBlock: KUMJIN_clean_sbu_0, # of connection points: 6
#     Node 8, Type 0, BuildingBlock: KUMJIN_clean_sbu_0, # of connection points: 6
#     Edge 9, Type (0, 0), BuildingBlock: UVAHIK_clean_linker_0, # of connection points: 2
#     Edge 10, Type (0, 0), BuildingBlock: UVAHIK_clean_linker_0, # of connection points: 2
#     Edge 11, Type (0, 0), BuildingBlock: UVAHIK_clean_linker_0, # of connection points: 2
#     Edge 12, Type (0, 0), BuildingBlock: UVAHIK_clean_linker_0, # of connection points: 2
#     Edge 13, Type (0, 0), BuildingBlock: UVAHIK_clean_linker_0, # of connection points: 2
#     Edge 14, Type (0, 0), BuildingBlock: UVAHIK_clean_linker_0, # of connection points: 2
#     Edge 15, Type (0, 0), BuildingBlock: UVAHIK_clean_linker_0, # of connection points: 2
#     Edge 16, Type (0, 0), BuildingBlock: UVAHIK_clean_linker_0, # of connection points: 2
#     Edge 17, Type (0, 0), BuildingBlock: UVAHIK_clean_linker_0, # of connection points: 2
#     Edge 18, Type (0, 0), BuildingBlock: UVAHIK_clean_linker_0, # of connection points: 2
#     Edge 19, Type (0, 0), BuildingBlock: UVAHIK_clean_linker_0, # of connection points: 2
#     Edge 20, Type (0, 0), BuildingBlock: UVAHIK_clean_linker_0, # of connection points: 2
#     Edge 21, Type (0, 0), BuildingBlock: UVAHIK_clean_linker_0, # of connection points: 2
#     Edge 22, Type (0, 0), BuildingBlock: UVAHIK_clean_linker_0, # of connection points: 2
#     Edge 23, Type (0, 0), BuildingBlock: UVAHIK_clean_linker_0, # of connection points: 2
#     Edge 24, Type (0, 0), BuildingBlock: UVAHIK_clean_linker_0, # of connection points: 2
#     Edge 25, Type (0, 0), BuildingBlock: UVAHIK_clean_linker_0, # of connection points: 2
#     Edge 26, Type (0, 0), BuildingBlock: UVAHIK_clean_linker_0, # of connection points: 2
#     Edge 27, Type (0, 0), BuildingBlock: UVAHIK_clean_linker_0, # of connection points: 2
#     Edge 28, Type (0, 0), BuildingBlock: UVAHIK_clean_linker_0, # of connection points: 2
#     Edge 29, Type (0, 0), BuildingBlock: UVAHIK_clean_linker_0, # of connection points: 2
#     Edge 30, Type (0, 0), BuildingBlock: UVAHIK_clean_linker_0, # of connection points: 2
#     Edge 31, Type (0, 0), BuildingBlock: UVAHIK_clean_linker_0, # of connection points: 2
#     Edge 32, Type (0, 0), BuildingBlock: UVAHIK_clean_linker_0, # of connection points: 2
#     Edge 33, Type (0, 0), BuildingBlock: UVAHIK_clean_linker_0, # of connection points: 2
#     Edge 34, Type (0, 0), BuildingBlock: UVAHIK_clean_linker_0, # of connection points: 2
#     Edge 35, Type (0, 0), BuildingBlock: UVAHIK_clean_linker_0, # of connection points: 2
# Relax obj value: 0.108
# Max RMSD: 0.278
# Mean RMSD: 0.278
data_MOF--net-smc--node1-KUMJIN_clean_sbu_0--edge1-UVAHIK_clean_linker_0
_symmetry_space_group_name_H-M    P1
_symmetry_Int_Tables_number       1
_symmetry_cell_setting            triclinic
loop_
_symmetry_equiv_pos_as_xyz
'x, y, z'
_cell_length_a     46.417268
_cell_length_b     46.329956
_cell_length_c     52.371129
_cell_angle_alpha  90.156935
_cell_angle_beta   89.821139
_cell_angle_gamma 120.10015
loop_
_atom_site_label
_atom_site_type_symbol
_atom_site_fract_x
_atom_site_fract_y
_atom_site_fract_z
_atom_type_partial_charge
Eu0 Eu 0.04703 0.4993 1.00377 0.0
C1 C 0.0277 0.37877 0.06809 0.0
C2 C 0.06441 0.36327 0.04696 0.0
C3 C 0.05534 0.35535 0.09277 0.0
C4 C 0.04331 0.37698 0.04616 0.0
C5 C 0.03277 0.36712 0.09153 0.0
C6 C 0.07113 0.35341 0.0705 0.0
C7 C 0.99022 0.37624 0.11005 0.0
N8 N 1.00594 0.3901 0.06615 0.0
C9 C 0.98603 0.38749 0.08634 0.0
C10 C 1.01413 0.36658 0.11278 0.0
Eu11 Eu 1.00245 0.41167 0.02596 0.0
N12 N 0.03601 0.38648 0.02375 0.0
C13 C 0.04629 0.37982 1.00116 0.0
C14 C 0.07711 0.35877 0.02397 0.0
C15 C 0.06746 0.36646 1.00093 0.0
H16 H 0.96774 0.39524 0.08436 0.0
H17 H 0.07641 0.36225 0.98299 0.0
H18 H 0.08765 0.34326 0.07156 0.0
H19 H 0.97512 0.37516 0.1262 0.0
H20 H 0.03915 0.38581 0.98323 0.0
H21 H 1.01904 0.54681 0.09128 0.0
H22 H 0.09346 0.34838 0.02375 0.0
H23 H 0.03001 0.50918 0.94199 0.0
H24 H 0.03849 0.51541 0.06679 0.0
H25 H 1.00117 0.53264 0.91848 0.0
H26 H 0.05995 0.34672 0.11068 0.0
H27 H 0.99404 0.57609 0.0695 0.0
H28 H 0.97655 0.59079 0.029 0.0
H29 H 1.0173 0.35783 0.13115 0.0
H30 H 0.96985 0.58526 0.98252 0.0
N31 N 0.02476 0.52548 0.0304 0.0
C32 C 0.02771 0.52748 0.05644 0.0
C33 C 1.00265 0.56213 0.05836 0.0
C34 C 0.99958 0.5602 0.03181 0.0
C35 C 1.01665 0.54558 0.0707 0.0
C36 C 1.01101 0.5415 0.0181 0.0
H37 H 0.97787 0.56288 0.9415 0.0
N38 N 1.0185 0.52045 0.97894 0.0
C39 C 1.0021 0.53393 0.93913 0.0
C40 C 1.00746 0.5386 0.99177 0.0
C41 C 1.01741 0.51946 0.95276 0.0
C42 C 0.9893 0.55123 0.95215 0.0
C43 C 0.99245 0.55435 0.97867 0.0
O44 O 0.08606 0.53315 0.97759 0.0
O45 O 0.05201 0.45529 0.01372 0.0
O46 O 0.03152 0.44121 0.05974 0.0
O47 O 0.06744 0.49478 0.04355 0.0
O48 O 0.07642 0.48133 0.98111 0.0
O49 O 0.08833 0.54735 0.01714 0.0
O50 O 0.94868 0.38011 0.03158 0.0
O51 O 0.99797 0.45547 0.01349 0.0
O52 O 1.01715 0.4656 0.97018 0.0
O53 O 1.00457 0.41232 0.98293 0.0
O54 O 0.97025 0.42964 0.04514 0.0
O55 O 0.97433 0.36405 1.00593 0.0
C56 C 0.07186 0.45732 0.99616 0.0
C57 C 0.10874 0.59108 0.98634 0.0
C58 C 0.14113 0.65213 0.99052 0.0
C59 C 0.13445 0.62004 0.9982 0.0
C60 C 0.12161 0.6547 0.97118 0.0
C61 C 0.09085 0.59494 0.96635 0.0
C62 C 0.09682 0.62634 0.95917 0.0
C63 C 0.05665 0.47186 0.06217 0.0
C64 C 0.10091 0.55707 0.99435 0.0
C65 C 0.98133 0.57302 0.9923 0.0
C66 C 0.98512 0.57614 0.01876 0.0
C67 C 0.97724 0.45398 0.02981 0.0
C68 C 0.92683 0.32225 0.02752 0.0
C69 C 0.89239 0.30333 0.0229 0.0
C70 C 0.87312 0.27112 0.03338 0.0
C71 C 0.88913 0.25835 0.04861 0.0
C72 C 0.9422 0.30888 0.04258 0.0
C73 C 0.92338 0.27708 0.05306 0.0
C74 C 1.00563 0.43342 0.9656 0.0
C75 C 0.94617 0.35618 0.01703 0.0
H76 H 0.14919 0.61764 0.01317 0.0
H77 H 0.12636 0.67886 0.9646 0.0
H78 H 0.07259 0.57382 0.95581 0.0
H79 H 0.08256 0.62872 0.94383 0.0
H80 H 0.88077 0.3137 0.01098 0.0
H81 H 0.87515 0.23405 0.05747 0.0
H82 H 0.96867 0.32302 0.0463 0.0
H83 H 0.93534 0.26698 0.06483 0.0
Eu84 Eu 0.54951 0.55642 1.00594 0.0
C85 C 0.68747 0.67509 0.03809 0.0
C86 C 0.69619 0.71926 1.00888 0.0
C87 C 0.71967 0.73301 0.05161 0.0
C88 C 0.68223 0.68504 0.01445 0.0
C89 C 0.7068 0.69897 0.05674 0.0
C90 C 0.71434 0.74312 0.02775 0.0
C91 C 0.70109 0.6539 0.08349 0.0
N92 N 0.67444 0.64199 0.04258 0.0
C93 C 0.68213 0.63115 0.06439 0.0
C94 C 0.71311 0.68793 0.07979 0.0
Eu95 Eu 0.6419 0.60527 1.00956 0.0
N96 N 0.66484 0.66139 0.99653 0.0
C97 C 0.66257 0.67032 0.97212 0.0
C98 C 0.6922 0.72849 0.98429 0.0
C99 C 0.67571 0.70393 0.96575 0.0
H100 H 0.67272 0.60482 0.06727 0.0
H101 H 0.67307 0.71084 0.94654 0.0
H102 H 0.72499 0.76951 0.02388 0.0
H103 H 0.70642 0.6452 0.10103 0.0
H104 H 0.64985 0.65158 0.95763 0.0
H105 H 0.54378 0.49718 0.09852 0.0
H106 H 0.70244 0.7545 0.97928 0.0
H107 H 0.51468 0.51949 0.94985 0.0
H108 H 0.56385 0.54313 0.0685 0.0
H109 H 0.48009 0.4631 0.93227 0.0
H110 H 0.73431 0.75173 0.06579 0.0
H111 H 0.50591 0.43946 0.0842 0.0
H112 H 0.4745 0.40013 0.04881 0.0
H113 H 0.72781 0.7055 0.09462 0.0
H114 H 0.45799 0.3908 1.00372 0.0
N115 N 0.53635 0.51305 0.03656 0.0
C116 C 0.54647 0.51868 0.06155 0.0
C117 C 0.51417 0.45983 0.07073 0.0
C118 C 0.50426 0.45389 0.0452 0.0
C119 C 0.53547 0.49235 0.07888 0.0
C120 C 0.51576 0.48129 0.02834 0.0
H121 H 0.46074 0.41386 0.96018 0.0
N122 N 0.51801 0.50264 0.98704 0.0
C123 C 0.48765 0.46629 0.95209 0.0
C124 C 0.5066 0.47596 1.00287 0.0
C125 C 0.50785 0.49824 0.96208 0.0
C126 C 0.47665 0.43861 0.96792 0.0
C127 C 0.48567 0.4432 0.99368 0.0
O128 O 0.50013 0.54508 0.9921 0.0
O129 O 0.59459 0.60692 1.00367 0.0
O130 O 0.62356 0.61907 0.04454 0.0
O131 O 0.56532 0.58525 0.04433 0.0
O132 O 0.55779 0.59607 0.97701 0.0
O133 O 0.51825 0.57024 0.02801 0.0
O134 O 0.67521 0.58522 0.01465 0.0
O135 O 0.59651 0.55501 1.00769 0.0
O136 O 0.57008 0.55244 0.96675 0.0
O137 O 0.62711 0.59241 0.96826 0.0
O138 O 0.63197 0.56044 0.03399 0.0
O139 O 0.68333 0.61844 0.98307 0.0
C140 C 0.58604 0.61938 0.98574 0.0
C141 C 0.46071 0.53099 0.02562 0.0
C142 C 0.40039 0.50602 0.03187 0.0
C143 C 0.43006 0.52849 0.0188 0.0
C144 C 0.40177 0.48534 0.05089 0.0
C145 C 0.46112 0.51073 0.04535 0.0
C146 C 0.43188 0.48777 0.05755 0.0
C147 C 0.59392 0.60824 0.05483 0.0
C148 C 0.49252 0.55503 0.013 0.0
C149 C 0.47409 0.41605 0.01045 0.0
C150 C 0.48343 0.42137 0.03613 0.0
C151 C 0.60411 0.53952 0.02342 0.0
C152 C 0.73058 0.61886 1.00129 0.0
C153 C 0.74743 0.60063 1.00073 0.0
C154 C 0.7812 0.61556 1.00814 0.0
C155 C 0.79755 0.6492 0.01608 0.0
C156 C 0.74772 0.65239 1.00887 0.0
C157 C 0.781 0.6674 0.01621 0.0
C158 C 0.6002 0.56973 0.95623 0.0
C159 C 0.69461 0.60187 0.9957 0.0
H160 H 0.4295 0.54452 1.00403 0.0
H161 H 0.37943 0.4673 0.06082 0.0
H162 H 0.48414 0.51292 0.05171 0.0
H163 H 0.43264 0.47209 0.07251 0.0
H164 H 0.73406 0.57484 0.99456 0.0
H165 H 0.82306 0.66151 0.02269 0.0
H166 H 0.7353 0.66686 1.00945 0.0
H167 H 0.79395 0.69319 0.02238 0.0
Eu168 Eu 0.49108 1.00142 0.99395 0.0
C169 C 0.38836 0.02175 0.05595 0.0
C170 C 0.3372 0.98616 0.03322 0.0
C171 C 0.33579 0.9942 0.07901 0.0
C172 C 0.37212 1.0069 0.0335 0.0
C173 C 0.37032 0.01637 0.07884 0.0
C174 C 0.31924 0.97911 0.05622 0.0
C175 C 0.42127 0.05782 0.09897 0.0
N176 N 0.42167 0.04313 0.05505 0.0
C177 C 0.43804 0.06237 0.07577 0.0
C178 C 0.38737 0.0343 0.10063 0.0
Eu179 Eu 0.44893 0.04719 0.01571 0.0
N180 N 0.39022 1.01452 0.01164 0.0
C181 C 0.37462 1.00487 0.98855 0.0
C182 C 0.3213 0.97412 1.00974 0.0
C183 C 0.34005 0.98406 0.98726 0.0
H184 H 0.46431 0.08041 0.0746 0.0
H185 H 0.32792 0.9756 0.96893 0.0
H186 H 0.29245 0.96288 0.05645 0.0
H187 H 0.43452 0.07239 0.11555 0.0
H188 H 0.38883 1.01224 0.97104 0.0
H189 H 0.56793 0.02789 0.08023 0.0
H190 H 0.29453 0.95805 1.00869 0.0
H191 H 0.516 1.01406 0.93186 0.0
H192 H 0.51663 1.00868 0.05657 0.0
H193 H 0.56799 0.03978 0.90714 0.0
H194 H 0.32153 0.98936 0.09648 0.0
H195 H 0.62182 0.05283 0.05763 0.0
H196 H 0.65333 0.07029 0.01667 0.0
H197 H 0.37441 0.0309 0.1186 0.0
H198 H 0.6535 0.07484 0.97002 0.0
N199 N 0.53984 0.02214 0.01982 0.0
C200 C 0.53931 0.0192 0.04586 0.0
C201 C 0.59906 0.04417 0.04683 0.0
C202 C 0.59972 0.04702 0.02028 0.0
C203 C 0.56872 0.03017 0.05964 0.0
C204 C 0.56935 0.03547 1.00702 0.0
H205 H 0.62211 0.06406 0.92927 0.0
N206 N 0.5401 0.02693 0.96817 0.0
C207 C 0.56887 0.04006 0.92779 0.0
C208 C 0.56949 0.03819 0.98061 0.0
C209 C 0.53943 0.02615 0.94199 0.0
C210 C 0.5993 0.05353 0.94034 0.0
C211 C 0.59992 0.05218 0.96698 0.0
O212 O 0.47933 0.95952 0.96863 0.0
O213 O 0.4425 0.99744 1.00383 0.0
O214 O 0.44744 0.01732 0.04947 0.0
O215 O 0.46691 0.98238 0.03421 0.0
O216 O 0.44399 0.97388 0.97072 0.0
O217 O 0.4993 0.96055 1.006 0.0
O218 O 0.47345 0.10121 0.02154 0.0
O219 O 0.49718 0.05059 1.00474 0.0
O220 O 0.49297 0.03595 0.96171 0.0
O221 O 0.44999 0.04593 0.97255 0.0
O222 O 0.49767 0.0771 0.03691 0.0
O223 O 0.43149 0.07721 0.99608 0.0
C224 C 0.42461 0.97808 0.98616 0.0
C225 C 0.51428 0.93568 0.97214 0.0
C226 C 0.54347 0.90363 0.97284 0.0
C227 C 0.52147 0.91275 0.98435 0.0
C228 C 0.55829 0.91802 0.9493 0.0
C229 C 0.52841 0.94811 0.94802 0.0
C230 C 0.55065 0.93989 0.937 0.0
C231 C 0.45412 0.99306 0.05245 0.0
C232 C 0.49122 0.94571 0.9838 0.0
C233 C 0.63 0.06391 0.9802 0.0
C234 C 0.62989 0.06125 1.00675 0.0
C235 C 0.51549 0.07007 0.02207 0.0
C236 C 0.43941 0.12521 0.01845 0.0
C237 C 0.45731 0.16014 0.01565 0.0
C238 C 0.44558 0.18011 0.02679 0.0
C239 C 0.41568 0.16435 0.04088 0.0
C240 C 0.40962 0.11016 0.03246 0.0
C241 C 0.39789 0.12969 0.0436 0.0
C242 C 0.47232 0.04708 0.95631 0.0
C243 C 0.45265 0.10495 1.00736 0.0
H244 H 0.50992 0.90196 1.00253 0.0
H245 H 0.57489 0.91131 0.93983 0.0
H246 H 0.52184 0.96372 0.93724 0.0
H247 H 0.56148 0.94997 0.91851 0.0
H248 H 0.48017 0.17161 1.00461 0.0
H249 H 0.40619 0.17882 0.05015 0.0
H250 H 0.39549 0.08336 0.03485 0.0
H251 H 0.37498 0.11793 0.05453 0.0
Eu252 Eu 0.7144 0.83328 0.33855 0.0
C253 C 0.69927 0.71023 0.39798 0.0
C254 C 0.73611 0.69657 0.37488 0.0
C255 C 0.72808 0.68638 0.42057 0.0
C256 C 0.71461 0.70983 0.37544 0.0
C257 C 0.70529 0.69792 0.42071 0.0
C258 C 0.74343 0.68565 0.39768 0.0
C259 C 0.66395 0.70702 0.44153 0.0
N260 N 0.67757 0.72178 0.39746 0.0
C261 C 0.65877 0.71894 0.41849 0.0
C262 C 0.6877 0.69696 0.44276 0.0
Eu263 Eu 0.67259 0.74456 0.35827 0.0
N264 N 0.70696 0.72054 0.35378 0.0
C265 C 0.71727 0.71559 0.33059 0.0
C266 C 0.74871 0.69367 0.35131 0.0
C267 C 0.73867 0.70257 0.32901 0.0
H268 H 0.64056 0.72691 0.41769 0.0
H269 H 0.74754 0.69958 0.31061 0.0
H270 H 0.76023 0.6758 0.39768 0.0
H271 H 0.64969 0.70567 0.45833 0.0
H272 H 0.70973 0.72244 0.31323 0.0
H273 H 0.68523 0.87246 0.42972 0.0
H274 H 0.76531 0.68362 0.35004 0.0
H275 H 0.6946 0.84512 0.27819 0.0
H276 H 0.7046 0.84304 0.40265 0.0
H277 H 0.66527 0.86994 0.25717 0.0
H278 H 0.73337 0.67721 0.43792 0.0
H279 H 0.66013 0.90331 0.41062 0.0
H280 H 0.64199 0.92061 0.37169 0.0
H281 H 0.69169 0.68777 0.46063 0.0
H282 H 0.63598 0.91933 0.32513 0.0
N283 N 0.69171 0.85679 0.36745 0.0
C284 C 0.69433 0.85639 0.39346 0.0
C285 C 0.66895 0.89048 0.39835 0.0
C286 C 0.66587 0.89066 0.37185 0.0
C287 C 0.68307 0.8731 0.40918 0.0
C288 C 0.6776 0.87339 0.35663 0.0
H289 H 0.64295 0.89922 0.28267 0.0
N290 N 0.68455 0.85492 0.31612 0.0
C291 C 0.66688 0.87026 0.27779 0.0
C292 C 0.67371 0.87221 0.33034 0.0
C293 C 0.68251 0.85504 0.28999 0.0
C294 C 0.65464 0.88703 0.29222 0.0
C295 C 0.65843 0.88868 0.31872 0.0
O296 O 0.75252 0.86859 0.31248 0.0
O297 O 0.72102 0.7896 0.34555 0.0
O298 O 0.70435 0.77229 0.39152 0.0
O299 O 0.73615 0.82773 0.37742 0.0
O300 O 0.74362 0.8175 0.31328 0.0
O301 O 0.75542 0.88125 0.35243 0.0
O302 O 0.61898 0.71225 0.36412 0.0
O303 O 0.66663 0.78814 0.34836 0.0
O304 O 0.68295 0.8005 0.30506 0.0
O305 O 0.67353 0.74742 0.31529 0.0
O306 O 0.64025 0.76062 0.37982 0.0
O307 O 0.64475 0.69729 0.33764 0.0
C308 C 0.74025 0.7929 0.32706 0.0
C309 C 0.77475 0.92609 0.32259 0.0
C310 C 0.80716 0.9871 0.32736 0.0
C311 C 0.80089 0.95489 0.33431 0.0
C312 C 0.78679 0.98992 0.30888 0.0
C313 C 0.75602 0.93026 0.30345 0.0
C314 C 0.76157 0.96173 0.297 0.0
C315 C 0.72801 0.80344 0.39468 0.0
C316 C 0.76748 0.89193 0.32964 0.0
C317 C 0.64752 0.90641 0.33379 0.0
C318 C 0.65105 0.90725 0.36028 0.0
C319 C 0.64616 0.78541 0.36533 0.0
C320 C 0.59736 0.65457 0.35892 0.0
C321 C 0.56275 0.63583 0.3548 0.0
C322 C 0.54359 0.60339 0.365 0.0
C323 C 0.55995 0.59026 0.37942 0.0
C324 C 0.61299 0.64076 0.37317 0.0
C325 C 0.59432 0.60877 0.38334 0.0
C326 C 0.67255 0.76882 0.29925 0.0
C327 C 0.61658 0.68885 0.349 0.0
H328 H 0.81629 0.95228 0.34858 0.0
H329 H 0.7912 1.01414 0.30283 0.0
H330 H 0.73745 0.90933 0.29294 0.0
H331 H 0.74668 0.96433 0.28231 0.0
H332 H 0.5509 0.64655 0.34354 0.0
H333 H 0.54615 0.56583 0.3881 0.0
H334 H 0.63955 0.65474 0.37654 0.0
H335 H 0.6065 0.59835 0.3945 0.0
Eu336 Eu 0.22105 0.89327 0.32941 0.0
C337 C 0.34675 1.00514 0.38376 0.0
C338 C 0.3614 0.05254 0.35635 0.0
C339 C 0.37334 0.06105 0.40179 0.0
C340 C 0.34712 0.01784 0.35986 0.0
C341 C 0.36062 0.02665 0.4049 0.0
C342 C 0.37372 0.07398 0.37755 0.0
C343 C 0.35135 0.97899 0.42997 0.0
N344 N 0.3345 0.97186 0.38606 0.0
C345 C 0.33807 0.95874 0.4084 0.0
C346 C 0.3622 1.01303 0.42833 0.0
Eu347 Eu 0.30975 0.93871 0.34928 0.0
N348 N 0.33519 0.99644 0.33979 0.0
C349 C 0.33941 1.00839 0.31543 0.0
C350 C 0.36377 0.06472 0.33156 0.0
C351 C 0.35324 0.04258 0.31097 0.0
H352 H 0.32942 0.93236 0.40974 0.0
H353 H 0.35562 0.0518 0.29167 0.0
H354 H 0.38443 0.10067 0.37527 0.0
H355 H 0.35316 0.96834 0.44785 0.0
H356 H 0.33116 0.99162 0.29931 0.0
H357 H 0.17379 0.82326 0.41917 0.0
H358 H 0.37449 0.0912 0.32806 0.0
H359 H 0.20958 0.86155 0.26845 0.0
H360 H 0.2032 0.87267 0.39295 0.0
H361 H 0.18869 0.80785 0.24731 0.0
H362 H 0.38377 0.07796 0.41785 0.0
H363 H 0.14804 0.76731 0.39964 0.0
H364 H 0.13598 0.73232 0.36068 0.0
H365 H 0.37259 0.0287 0.44505 0.0
H366 H 0.14201 0.72815 0.31453 0.0
N367 N 0.19599 0.84642 0.3577 0.0
C368 C 0.19293 0.84907 0.38352 0.0
C369 C 0.16126 0.78923 0.38771 0.0
C370 C 0.164 0.78635 0.3614 0.0
C371 C 0.17583 0.82073 0.39879 0.0
C372 C 0.18167 0.81571 0.34661 0.0
H373 H 0.16242 0.75592 0.2725 0.0
N374 N 0.20157 0.84186 0.30651 0.0
C375 C 0.18817 0.809 0.26794 0.0
C376 C 0.185 0.81337 0.32048 0.0
C377 C 0.20128 0.83976 0.28031 0.0
C378 C 0.17311 0.77979 0.28219 0.0
C379 C 0.17052 0.78161 0.30863 0.0
O380 O 0.18424 0.89302 0.3033 0.0
O381 O 0.26543 0.943 0.33732 0.0
O382 O 0.28202 0.94252 0.3828 0.0
O383 O 0.22692 0.92026 0.36849 0.0
O384 O 0.23743 0.93968 0.30578 0.0
O385 O 0.17441 0.88887 0.34374 0.0
O386 O 0.34066 0.91726 0.35978 0.0
O387 O 0.26535 0.88897 0.33975 0.0
O388 O 0.25239 0.89779 0.29422 0.0
O389 O 0.3077 0.93236 0.30651 0.0
O390 O 0.29152 0.89179 0.37274 0.0
O391 O 0.35583 0.95235 0.32862 0.0
C392 C 0.26243 0.95999 0.3197 0.0
C393 C 0.12774 0.85931 0.31628 0.0
C394 C 0.06709 0.83311 0.32103 0.0
C395 C 0.09952 0.86043 0.32526 0.0
C396 C 0.06335 0.80495 0.30789 0.0
C397 C 0.12275 0.83112 0.30251 0.0
C398 C 0.09098 0.8041 0.29863 0.0
C399 C 0.25089 0.93498 0.38612 0.0
C400 C 0.16219 0.88722 0.32104 0.0
C401 C 0.15319 0.7526 0.32335 0.0
C402 C 0.14973 0.75497 0.34961 0.0
C403 C 0.26727 0.87226 0.35803 0.0
C404 C 0.39822 0.94966 0.35183 0.0
C405 C 0.41487 0.93136 0.35049 0.0
C406 C 0.44798 0.94532 0.35906 0.0
C407 C 0.46403 0.97793 0.36908 0.0
C408 C 0.41466 0.98207 0.36193 0.0
C409 C 0.44743 0.99608 0.37049 0.0
C410 C 0.28479 0.91452 0.2894 0.0
C411 C 0.36358 0.93426 0.34293 0.0
H412 H 0.10275 0.88222 0.33549 0.0
H413 H 0.03884 0.78384 0.30412 0.0
H414 H 0.14326 0.8299 0.29435 0.0
H415 H 0.08776 0.78255 0.28808 0.0
H416 H 0.40211 0.9064 0.3425 0.0
H417 H 0.48929 0.98929 0.37618 0.0
H418 H 0.40219 0.99648 0.3632 0.0
H419 H 0.46 0.02107 0.37834 0.0
Eu420 Eu 0.15864 0.33367 0.33307 0.0
C421 C 0.05698 0.3554 0.39444 0.0
C422 C 1.00623 0.32227 0.37052 0.0
C423 C 1.00367 0.32807 0.4165 0.0
C424 C 0.04122 0.34208 0.37151 0.0
C425 C 0.03836 0.34932 0.41711 0.0
C426 C 0.98762 0.31457 0.39323 0.0
C427 C 0.08923 0.38842 0.43865 0.0
N428 N 0.09047 0.37595 0.39429 0.0
C429 C 0.10657 0.39379 0.41564 0.0
C430 C 0.05506 0.36563 0.4395 0.0
Eu431 Eu 0.11858 0.38111 0.35518 0.0
N432 N 0.05996 0.35019 0.34996 0.0
C433 C 0.04505 0.34192 0.32655 0.0
C434 C 0.99095 0.31171 0.34666 0.0
C435 C 1.01042 0.32211 0.32455 0.0
H436 H 0.13305 0.41117 0.41508 0.0
H437 H 0.99881 0.31477 0.30597 0.0
H438 H 0.96075 0.29903 0.3929 0.0
H439 H 0.10222 0.40177 0.45571 0.0
H440 H 0.05982 0.34962 0.30932 0.0
H441 H 0.23209 0.35846 0.42104 0.0
H442 H 0.96414 0.2964 0.34506 0.0
H443 H 0.18578 0.3467 0.27159 0.0
H444 H 0.18181 0.34037 0.39617 0.0
H445 H 0.23854 0.37175 0.24794 0.0
H446 H 0.98895 0.32272 0.43377 0.0
H447 H 0.2867 0.38234 0.39959 0.0
H448 H 0.31967 0.39928 0.35926 0.0
H449 H 0.04166 0.36156 0.45733 0.0
H450 H 0.32161 0.40426 0.3126 0.0
N451 N 0.20639 0.35341 0.35996 0.0
C452 C 0.20486 0.35043 0.386 0.0
C453 C 0.26441 0.37417 0.38829 0.0
C454 C 0.26608 0.37711 0.36173 0.0
C455 C 0.23366 0.36077 0.40045 0.0
C456 C 0.2363 0.36624 0.34781 0.0
H457 H 0.29178 0.39464 0.27118 0.0
N458 N 0.20859 0.35878 0.30837 0.0
C459 C 0.23871 0.37181 0.2686 0.0
C460 C 0.23744 0.36923 0.32141 0.0
C461 C 0.20882 0.35835 0.2822 0.0
C462 C 0.26864 0.38446 0.28177 0.0
C463 C 0.26828 0.38275 0.30842 0.0
O464 O 0.14739 0.29234 0.30729 0.0
O465 O 0.11055 0.331 0.34254 0.0
O466 O 0.11525 0.34947 0.38853 0.0
O467 O 0.13252 0.31316 0.37248 0.0
O468 O 0.11194 0.30766 0.30927 0.0
O469 O 0.16534 0.2919 0.34518 0.0
O470 O 0.14246 0.43456 0.36338 0.0
O471 O 0.16623 0.38346 0.34385 0.0
O472 O 0.1607 0.36743 0.30027 0.0
O473 O 0.12092 0.38181 0.31196 0.0
O474 O 0.16769 0.41009 0.37619 0.0
O475 O 0.10362 0.41283 0.33508 0.0
C476 C 0.0927 0.31237 0.3245 0.0
C477 C 0.18188 0.26812 0.3116 0.0
C478 C 0.21228 0.2374 0.3138 0.0
C479 C 0.18961 0.24607 0.32458 0.0
C480 C 0.22727 0.25132 0.29021 0.0
C481 C 0.19615 0.28007 0.28743 0.0
C482 C 0.21907 0.27228 0.27711 0.0
C483 C 0.12002 0.32388 0.39091 0.0
C484 C 0.15835 0.27787 0.32267 0.0
C485 C 0.29779 0.39371 0.32228 0.0
C486 C 0.29668 0.39081 0.34884 0.0
C487 C 0.18503 0.40281 0.36103 0.0
C488 C 0.10942 0.45946 0.35818 0.0
C489 C 0.12639 0.49428 0.35467 0.0
C490 C 0.11373 0.51385 0.3651 0.0
C491 C 0.08381 0.49771 0.37919 0.0
C492 C 0.07954 0.44406 0.37204 0.0
C493 C 0.06688 0.46315 0.38249 0.0
C494 C 0.14164 0.38056 0.29524 0.0
C495 C 0.12361 0.43965 0.3479 0.0
H496 H 0.17796 0.23562 0.3428 0.0
H497 H 0.24442 0.24489 0.28132 0.0
H498 H 0.18926 0.29506 0.27611 0.0
H499 H 0.23004 0.282 0.25859 0.0
H500 H 0.14926 0.50595 0.34365 0.0
H501 H 0.07363 0.51182 0.38804 0.0
H502 H 0.06607 0.41734 0.37486 0.0
H503 H 0.04393 0.45113 0.39336 0.0
Eu504 Eu 0.38596 0.17019 0.66148 0.0
C505 C 0.36346 0.04648 0.72193 0.0
C506 C 0.39773 0.02985 0.69837 0.0
C507 C 0.39061 0.02067 0.74421 0.0
C508 C 0.37761 0.04468 0.69918 0.0
C509 C 0.369 0.03366 0.74459 0.0
C510 C 0.40495 0.01876 0.72112 0.0
C511 C 0.32857 0.04401 0.76555 0.0
N512 N 0.34249 0.05888 0.72153 0.0
C513 C 0.32373 0.05625 0.74254 0.0
C514 C 0.35176 0.03322 0.7667 0.0
Eu515 Eu 0.33808 0.08219 0.68247 0.0
N516 N 0.36977 0.05527 0.67756 0.0
C517 C 0.37863 0.04891 0.65423 0.0
C518 C 0.40896 0.02553 0.67462 0.0
C519 C 0.39882 0.03453 0.65242 0.0
H520 H 0.30605 0.06493 0.74173 0.0
H521 H 0.40664 0.0305 0.63391 0.0
H522 H 0.42071 1.0077 0.72094 0.0
H523 H 0.3145 0.04301 0.78237 0.0
H524 H 0.37108 0.05589 0.63694 0.0
H525 H 0.35438 0.21806 0.74691 0.0
H526 H 0.42453 1.01432 0.67317 0.0
H527 H 0.3793 0.18557 0.59933 0.0
H528 H 0.37425 0.18586 0.72366 0.0
H529 H 0.35752 0.21472 0.57356 0.0
H530 H 0.39554 1.01107 0.76148 0.0
H531 H 0.33248 0.24917 0.72356 0.0
H532 H 0.31916 0.26587 0.68199 0.0
H533 H 0.35539 0.02365 0.78452 0.0
H534 H 0.31863 0.26378 0.63516 0.0
N535 N 0.36438 0.19808 0.68664 0.0
C536 C 0.36523 0.1992 0.71276 0.0
C537 C 0.3415 0.23511 0.71302 0.0
C538 C 0.34078 0.23418 0.68635 0.0
C539 C 0.35381 0.21758 0.72625 0.0
C540 C 0.35269 0.21536 0.67345 0.0
H541 H 0.33251 0.24467 0.59475 0.0
N542 N 0.36388 0.19595 0.6349 0.0
C543 C 0.35536 0.21432 0.59415 0.0
C544 C 0.35221 0.21405 0.64695 0.0
C545 C 0.36716 0.19735 0.60886 0.0
C546 C 0.34143 0.2313 0.60619 0.0
C547 C 0.34023 0.23184 0.63285 0.0
O548 O 0.42983 0.19984 0.63792 0.0
O549 O 0.38868 0.12472 0.67097 0.0
O550 O 0.36789 0.11018 0.71654 0.0
O551 O 0.40389 0.16459 0.70186 0.0
O552 O 0.41183 0.14942 0.63759 0.0
O553 O 0.42637 0.21895 0.67475 0.0
O554 O 0.28467 0.05136 0.69017 0.0
O555 O 0.33615 0.12767 0.6714 0.0
O556 O 0.35162 0.13902 0.62863 0.0
O557 O 0.33872 0.08492 0.63927 0.0
O558 O 0.30745 0.10148 0.7025 0.0
O559 O 0.30741 0.0358 0.66143 0.0
C560 C 0.40744 0.12571 0.65291 0.0
C561 C 0.45362 0.25874 0.64133 0.0
C562 C 0.4825 0.31997 0.64352 0.0
C563 C 0.47278 0.28881 0.6551 0.0
C564 C 0.47271 0.3206 0.61826 0.0
C565 C 0.44566 0.26062 0.6157 0.0
C566 C 0.45465 0.29118 0.60447 0.0
C567 C 0.39265 0.14085 0.71983 0.0
C568 C 0.44266 0.2256 0.65319 0.0
C569 C 0.32805 0.25016 0.6457 0.0
C570 C 0.32841 0.25139 0.67236 0.0
C571 C 0.31571 0.12668 0.68776 0.0
C572 C 0.26151 0.99352 0.68424 0.0
C573 C 0.22665 0.97483 0.6814 0.0
C574 C 0.20819 0.94222 0.69148 0.0
C575 C 0.22544 0.929 0.70461 0.0
C576 C 0.27799 0.97951 0.69711 0.0
C577 C 0.26 0.94747 0.70726 0.0
C578 C 0.33915 0.10695 0.62308 0.0
C579 C 0.28037 0.02787 0.67432 0.0
H580 H 0.48006 0.28799 0.6746 0.0
H581 H 0.48002 0.34408 0.60883 0.0
H582 H 0.43277 0.23849 0.60404 0.0
H583 H 0.44801 0.29211 0.58482 0.0
H584 H 0.21408 0.98563 0.67117 0.0
H585 H 0.21222 0.90448 0.7132 0.0
H586 H 0.30474 0.99336 0.69939 0.0
H587 H 0.27288 0.93695 0.71739 0.0
Eu588 Eu 0.88631 0.22401 0.66949 0.0
C589 C 1.02194 0.34345 0.70589 0.0
C590 C 0.03046 0.38894 0.67826 0.0
C591 C 0.05225 0.40054 0.72154 0.0
C592 C 1.01716 0.35453 0.68261 0.0
C593 C 0.04005 0.36636 0.72545 0.0
C594 C 0.04744 0.4118 0.698 0.0
C595 C 0.03442 0.32017 0.75071 0.0
N596 N 1.00952 0.31021 0.70919 0.0
C597 C 1.01665 0.29842 0.73074 0.0
C598 C 0.0458 0.35424 0.7482 0.0
Eu599 Eu 0.9785 0.27503 0.67487 0.0
N600 N 1.00081 0.33182 0.66386 0.0
C601 C 0.99909 0.34204 0.63978 0.0
C602 C 0.02699 0.39941 0.654 0.0
C603 C 1.01164 0.37588 0.63458 0.0
H604 H 1.00775 0.27207 0.73277 0.0
H605 H 1.00941 0.38377 0.61562 0.0
H606 H 0.05756 0.43831 0.69508 0.0
H607 H 0.03929 0.31066 0.76802 0.0
H608 H 0.98725 0.32412 0.62461 0.0
H609 H 0.87513 0.15935 0.76032 0.0
H610 H 0.03675 0.42561 0.6499 0.0
H611 H 0.85447 0.19087 0.61198 0.0
H612 H 0.89632 0.2072 0.732 0.0
H613 H 0.8209 0.13559 0.59213 0.0
H614 H 0.06595 0.41851 0.73643 0.0
H615 H 0.83927 0.10244 0.74354 0.0
H616 H 0.8104 0.06527 0.70643 0.0
H617 H 0.05954 0.37103 0.76371 0.0
H618 H 0.79629 0.05875 0.66085 0.0
N619 N 0.87183 0.1789 0.69857 0.0
C620 C 0.88 0.18308 0.72398 0.0
C621 C 0.84815 0.12362 0.7308 0.0
C622 C 0.83995 0.11922 0.7049 0.0
C623 C 0.86829 0.15569 0.74034 0.0
C624 C 0.8522 0.14764 0.68903 0.0
H625 H 0.80078 0.08459 0.61813 0.0
N626 N 0.85616 0.17156 0.64852 0.0
C627 C 0.82758 0.13751 0.6121 0.0
C628 C 0.84437 0.14389 0.6633 0.0
C629 C 0.84708 0.16879 0.62338 0.0
C630 C 0.81619 0.10882 0.62685 0.0
C631 C 0.82409 0.11175 0.65282 0.0
O632 O 0.83813 0.21453 0.6542 0.0
O633 O 0.9305 0.27515 0.66843 0.0
O634 O 0.95855 0.28696 0.70974 0.0
O635 O 0.90061 0.25118 0.70873 0.0
O636 O 0.89441 0.26432 0.64121 0.0
O637 O 0.85283 0.23421 0.69215 0.0
O638 O 1.01232 0.25538 0.67885 0.0
O639 O 0.93399 0.22403 0.6724 0.0
O640 O 0.90965 0.22008 0.63154 0.0
O641 O 0.96472 0.26457 0.63319 0.0
O642 O 0.96931 0.2303 0.69909 0.0
O643 O 1.02064 0.29041 0.64867 0.0
C644 C 0.92201 0.28783 0.65065 0.0
C645 C 0.79556 0.19594 0.68581 0.0
C646 C 0.73493 0.17134 0.68974 0.0
C647 C 0.76573 0.1951 0.67867 0.0
C648 C 0.73437 0.14781 0.70696 0.0
C649 C 0.79394 0.17272 0.70377 0.0
C650 C 0.76362 0.14857 0.71389 0.0
C651 C 0.92858 0.27457 0.71977 0.0
C652 C 0.82858 0.22144 0.67563 0.0
C653 C 0.8119 0.08357 0.66857 0.0
C654 C 0.81988 0.08729 0.69453 0.0
C655 C 0.94176 0.20893 0.68841 0.0
C656 C 0.06792 0.29083 0.66676 0.0
C657 C 0.08561 0.27347 0.66531 0.0
C658 C 0.11924 0.28869 0.67316 0.0
C659 C 0.13458 0.3217 0.68248 0.0
C660 C 0.08407 0.32378 0.67574 0.0
C661 C 0.11719 0.33905 0.68354 0.0
C662 C 0.93941 0.23988 0.62109 0.0
C663 C 0.03209 0.2735 0.66056 0.0
H664 H 0.76663 0.21336 0.66532 0.0
H665 H 0.71115 0.12888 0.71533 0.0
H666 H 0.8162 0.17354 0.71049 0.0
H667 H 0.76288 0.13067 0.72752 0.0
H668 H 0.07302 0.24814 0.65807 0.0
H669 H 0.15992 0.33411 0.68945 0.0
H670 H 0.071 0.33757 0.67702 0.0
H671 H 0.12936 0.36436 0.69077 0.0
Eu672 Eu 0.82233 0.6661 0.67089 0.0
C673 C 0.72493 0.69091 0.73617 0.0
C674 C 0.67247 0.65803 0.71426 0.0
C675 C 0.67314 0.6654 0.76028 0.0
C676 C 0.70754 0.67712 0.71389 0.0
C677 C 0.70792 0.68601 0.75952 0.0
C678 C 0.65543 0.65143 0.73767 0.0
C679 C 0.76052 0.7248 0.77906 0.0
N680 N 0.75847 0.71074 0.73471 0.0
C681 C 0.77625 0.72888 0.75544 0.0
C682 C 0.72627 0.70285 0.78122 0.0
Eu683 Eu 0.78373 0.71411 0.69454 0.0
N684 N 0.72479 0.68423 0.69163 0.0
C685 C 0.70833 0.67574 0.66884 0.0
C686 C 0.65555 0.64714 0.69102 0.0
C687 C 0.67355 0.6566 0.66819 0.0
H688 H 0.80276 0.74569 0.75391 0.0
H689 H 0.66068 0.64904 0.65007 0.0
H690 H 0.62852 0.63644 0.73838 0.0
H691 H 0.77481 0.73851 0.79559 0.0
H692 H 0.72193 0.68275 0.65106 0.0
H693 H 0.89325 0.68595 0.75983 0.0
H694 H 0.62862 0.63235 0.69046 0.0
H695 H 0.85172 0.68331 0.6101 0.0
H696 H 0.84372 0.66842 0.73436 0.0
H697 H 0.90522 0.71088 0.58752 0.0
H698 H 0.65965 0.66093 0.77811 0.0
H699 H 0.94855 0.7119 0.73934 0.0
H700 H 0.98275 0.7316 0.69975 0.0
H701 H 0.71413 0.69983 0.79951 0.0
H702 H 0.98617 0.73975 0.65335 0.0
N703 N 0.86928 0.68437 0.69863 0.0
C704 C 0.86703 0.67974 0.72453 0.0
C705 C 0.92657 0.70416 0.72774 0.0
C706 C 0.92903 0.70868 0.70132 0.0
C707 C 0.89544 0.68962 0.73936 0.0
C708 C 0.89962 0.69832 0.68699 0.0
H709 H 0.95771 0.73277 0.61165 0.0
N710 N 0.87316 0.69324 0.64731 0.0
C711 C 0.90468 0.70949 0.60815 0.0
C712 C 0.90161 0.70306 0.66075 0.0
C713 C 0.87433 0.6947 0.62118 0.0
C714 C 0.93418 0.72153 0.62181 0.0
C715 C 0.93292 0.71787 0.64832 0.0
O716 O 0.81177 0.62652 0.64351 0.0
O717 O 0.77455 0.66378 0.68109 0.0
O718 O 0.78054 0.68183 0.72731 0.0
O719 O 0.79525 0.64421 0.70986 0.0
O720 O 0.77506 0.63998 0.64775 0.0
O721 O 0.82955 0.62396 0.68098 0.0
O722 O 0.80982 0.76803 0.70132 0.0
O723 O 0.83085 0.71613 0.68188 0.0
O724 O 0.8233 0.70013 0.63855 0.0
O725 O 0.78297 0.7131 0.65143 0.0
O726 O 0.83342 0.74217 0.71485 0.0
O727 O 0.76813 0.746 0.67552 0.0
C728 C 0.75634 0.64531 0.66309 0.0
C729 C 0.84636 0.60222 0.64601 0.0
C730 C 0.87604 0.57065 0.64559 0.0
C731 C 0.85351 0.57881 0.65742 0.0
C732 C 0.89145 0.58648 0.62257 0.0
C733 C 0.86107 0.61609 0.62231 0.0
C734 C 0.88385 0.60882 0.61102 0.0
C735 C 0.78377 0.65522 0.72886 0.0
C736 C 0.82273 0.61125 0.65801 0.0
C737 C 0.96201 0.72823 0.66259 0.0
C738 C 0.96006 0.72355 0.68899 0.0
C739 C 0.85021 0.73505 0.699 0.0
C740 C 0.77829 0.79483 0.69778 0.0
C741 C 0.79639 0.82945 0.69327 0.0
C742 C 0.78572 0.85066 0.70371 0.0
C743 C 0.75673 0.83647 0.71889 0.0
C744 C 0.74946 0.78135 0.71289 0.0
C745 C 0.73881 0.80213 0.72338 0.0
C746 C 0.80355 0.71269 0.63418 0.0
C747 C 0.79009 0.77321 0.68696 0.0
H748 H 0.84151 0.5669 0.67521 0.0
H749 H 0.90849 0.58054 0.61287 0.0
H750 H 0.85456 0.63212 0.61204 0.0
H751 H 0.89514 0.62002 0.59289 0.0
H752 H 0.81851 0.83973 0.6814 0.0
H753 H 0.74807 0.85197 0.72762 0.0
H754 H 0.73523 0.75481 0.71658 0.0
H755 H 0.71661 0.79159 0.73513 0.0
C756 C 0.35541 0.50112 1.00191 0.0
C757 C 0.36778 0.50396 0.02681 0.0
C758 C 0.32285 0.49496 0.99791 0.0
C759 C 0.25236 0.49718 0.03103 0.0
H760 H 0.19818 0.4336 0.97889 0.0
C761 C 0.11177 0.45025 0.02432 0.0
C762 C 0.10032 0.45165 0.99982 0.0
C763 C 0.14305 0.45304 0.02754 0.0
C764 C 0.21301 0.45149 0.99349 0.0
H765 H 0.35628 0.50439 0.06692 0.0
H766 H 0.29996 0.49321 0.0601 0.0
H767 H 0.25646 0.44873 0.98369 0.0
H768 H 0.11162 0.45489 0.95945 0.0
H769 H 0.16591 0.45942 0.96495 0.0
H770 H 0.20896 0.49985 0.04091 0.0
C771 C 0.3151 0.49582 0.04354 0.0
C772 C 0.24654 0.46037 0.99613 0.0
C773 C 0.34742 0.50195 0.04748 0.0
C774 C 0.11977 0.45361 0.97856 0.0
C775 C 0.1509 0.45618 0.98174 0.0
C776 C 0.21886 0.48816 0.02848 0.0
C777 C 0.30206 0.49174 0.01874 0.0
C778 C 0.2667 0.4833 0.015 0.0
C779 C 0.16349 0.45716 1.0063 0.0
C780 C 0.1987 0.46518 1.00971 0.0
H781 H 0.37043 0.50246 0.9856 0.0
H782 H 0.31388 0.49247 0.97852 0.0
H783 H 0.26712 0.51539 0.04546 0.0
H784 H 0.09735 0.44859 0.04104 0.0
H785 H 0.15168 0.45302 0.04673 0.0
C786 C 0.52344 0.84563 0.98947 0.0
C787 C 0.54992 0.87763 0.98366 0.0
C788 C 0.52931 0.81907 0.99367 0.0
C789 C 0.54596 0.76521 0.97983 0.0
H790 H 0.6251 0.77384 0.01195 0.0
C791 C 0.58274 0.66529 0.96386 0.0
C792 C 0.5923 0.65413 0.98539 0.0
C793 C 0.58076 0.69444 0.96492 0.0
C794 C 0.60278 0.77093 1.00301 0.0
H795 H 0.60353 0.90737 0.97972 0.0
H796 H 0.61378 0.86138 0.98701 0.0
H797 H 0.61347 0.81977 0.01467 0.0
H798 H 0.60893 0.66583 0.02447 0.0
H799 H 0.60571 0.71686 0.02649 0.0
H800 H 0.53501 0.71642 0.96835 0.0
C801 C 0.58844 0.85653 0.98833 0.0
C802 C 0.5962 0.79737 1.00442 0.0
C803 C 0.58256 0.88296 0.98405 0.0
C804 C 0.60181 0.67392 1.00755 0.0
C805 C 0.59983 0.70318 1.00866 0.0
C806 C 0.55258 0.73891 0.97836 0.0
C807 C 0.56182 0.82394 0.99229 0.0
C808 C 0.56777 0.79498 0.99269 0.0
C809 C 0.58806 0.71315 0.98762 0.0
C810 C 0.58125 0.74145 0.98966 0.0
H811 H 0.49801 0.84065 0.98916 0.0
H812 H 0.50821 0.79446 0.99716 0.0
H813 H 0.52408 0.76246 0.97025 0.0
H814 H 0.57526 0.65057 0.94649 0.0
H815 H 0.57248 0.70175 0.9481 0.0
C816 C 0.37331 0.92908 0.96929 0.0
C817 C 0.39064 0.94925 0.99024 0.0
C818 C 0.34504 0.89778 0.97294 0.0
C819 C 0.28128 0.84176 0.01996 0.0
H820 H 0.27961 0.77302 0.97649 0.0
C821 C 0.16522 0.7107 1.00679 0.0
C822 C 0.16958 0.68351 1.00077 0.0
C823 C 0.19268 0.74264 0.01035 0.0
C824 C 0.27985 0.7917 0.98911 0.0
H825 H 0.39042 0.95333 0.03143 0.0
H826 H 0.34115 0.89851 0.03794 0.0
H827 H 0.32467 0.83025 0.97228 0.0
H828 H 0.20621 0.66809 0.99576 0.0
H829 H 0.25432 0.72378 1.00256 0.0
H830 H 0.23641 0.80288 0.03691 0.0
C831 C 0.3494 0.90689 0.01861 0.0
C832 C 0.30547 0.82476 0.98636 0.0
C833 C 0.37773 0.93836 0.0149 0.0
C834 C 0.20202 0.68849 1.00044 0.0
C835 C 0.22958 0.72053 1.00398 0.0
C836 C 0.25551 0.80856 0.0227 0.0
C837 C 0.33346 0.88567 0.99769 0.0
C838 C 0.30632 0.85036 1.00145 0.0
C839 C 0.22529 0.74826 1.00799 0.0
C840 C 0.25426 0.78311 1.0071 0.0
H841 H 0.38256 0.93689 0.95005 0.0
H842 H 0.33286 0.88258 0.95633 0.0
H843 H 0.28115 0.86079 0.03194 0.0
H844 H 0.14049 0.70759 1.00734 0.0
H845 H 0.18825 0.76323 0.01332 0.0
C846 C 0.49938 0.23542 0.0251 0.0
C847 C 0.46437 0.21722 0.024 0.0
C848 C 0.51673 0.27033 0.02344 0.0
C849 C 0.50674 0.34207 1.00355 0.0
H850 H 0.58359 0.39311 0.04683 0.0
C851 C 0.58003 0.48588 0.99901 0.0
C852 C 0.59219 0.50332 0.02205 0.0
C853 C 0.56741 0.45142 0.99789 0.0
C854 C 0.562 0.37936 0.03475 0.0
H855 H 0.42036 0.22179 0.01953 0.0
H856 H 0.45036 0.28233 0.01742 0.0
H857 H 0.55502 0.33247 0.04771 0.0
H858 H 0.60309 0.49907 0.06149 0.0
H859 H 0.57963 0.43871 0.0601 0.0
H860 H 0.51291 0.38862 0.9911 0.0
C861 C 0.46457 0.26971 0.01926 0.0
C862 C 0.54586 0.34444 0.03499 0.0
C863 C 0.44726 0.23489 0.02083 0.0
C864 C 0.5933 0.48603 0.0436 0.0
C865 C 0.58009 0.45142 0.04266 0.0
C866 C 0.52278 0.37693 1.00337 0.0
C867 C 0.49955 0.28799 0.02064 0.0
C868 C 0.51779 0.32527 0.01957 0.0
C869 C 0.56648 0.43346 0.01985 0.0
C870 C 0.55046 0.39619 0.01918 0.0
H871 H 0.51342 0.22277 0.02776 0.0
H872 H 0.54367 0.28346 0.02427 0.0
H873 H 0.48559 0.32828 0.99106 0.0
H874 H 0.57992 0.49883 0.98185 0.0
H875 H 0.55821 0.43892 0.97975 0.0
C876 C 0.56997 0.10193 0.04407 0.0
C877 C 0.55204 0.09139 0.02116 0.0
C878 C 0.60461 0.12198 0.04376 0.0
C879 C 0.67609 0.18111 1.00494 0.0
H880 H 0.72576 0.15503 0.04943 0.0
C881 C 0.81671 0.26619 0.02824 0.0
C882 C 0.83643 0.25098 0.0289 0.0
C883 C 0.7821 0.24698 0.02527 0.0
C884 C 0.71229 0.16255 0.03678 0.0
H885 H 0.55557 0.09627 0.98001 0.0
H886 H 0.6165 0.13151 0.97935 0.0
H887 H 0.66515 0.12156 0.0482 0.0
H888 H 0.83496 0.20352 0.02576 0.0
H889 H 0.77471 0.17013 0.02117 0.0
H890 H 0.7234 0.22237 0.99374 0.0
C891 C 0.60381 0.1236 0.99756 0.0
C892 C 0.67755 0.14353 0.03624 0.0
C893 C 0.56906 0.10317 0.9979 0.0
C894 C 0.82062 0.21611 0.02595 0.0
C895 C 0.78605 0.19692 0.02322 0.0
C896 C 0.71091 0.20042 1.00572 0.0
C897 C 0.62201 0.13267 0.02051 0.0
C898 C 0.65902 0.15264 0.02041 0.0
C899 C 0.76634 0.21207 0.02309 0.0
C900 C 0.7294 0.19136 0.02169 0.0
H901 H 0.55721 0.09391 0.06227 0.0
H902 H 0.61782 0.12912 0.06177 0.0
H903 H 0.66248 0.18884 0.99264 0.0
H904 H 0.82783 0.29288 0.03077 0.0
H905 H 0.76756 0.25936 0.0255 0.0
C906 C 0.94344 0.47078 1.00282 0.0
C907 C 0.95483 0.46785 0.02695 0.0
C908 C 0.92225 0.48404 1.00044 0.0
C909 C 0.89965 0.53992 0.03379 0.0
H910 H 0.82428 0.50389 0.98761 0.0
C911 C 0.83389 0.61249 1.00352 0.0
C912 C 0.79932 0.59629 1.00826 0.0
C913 C 0.85141 0.59528 1.00535 0.0
C914 C 0.84528 0.51418 1.00056 0.0
H915 H 0.95085 0.47358 0.06758 0.0
H916 H 0.91443 0.49739 0.06349 0.0
H917 H 0.85705 0.47589 0.99196 0.0
H918 H 0.75629 0.54843 0.01804 0.0
H919 H 0.78684 0.51822 0.01997 0.0
H920 H 0.88844 0.57865 0.04189 0.0
C921 C 0.92235 0.49016 0.04635 0.0
C922 C 0.86413 0.4983 1.00296 0.0
C923 C 0.94313 0.47651 0.04872 0.0
C924 C 0.78269 0.56188 0.01389 0.0
C925 C 0.8002 0.5445 0.01517 0.0
C926 C 0.88134 0.55621 0.03092 0.0
C927 C 0.912 0.49453 0.02216 0.0
C928 C 0.89155 0.51098 0.01964 0.0
C929 C 0.83482 0.56118 0.01134 0.0
C930 C 0.85394 0.5435 0.01432 0.0
H931 H 0.95128 0.46325 0.98579 0.0
H932 H 0.91477 0.48707 0.98153 0.0
H933 H 0.92053 0.55035 0.04683 0.0
H934 H 0.84764 0.63863 0.99839 0.0
H935 H 0.87804 0.60865 1.00197 0.0
C936 C 0.7833 0.78179 0.30817 0.0
C937 C 0.77011 0.78942 0.32962 0.0
C938 C 0.81497 0.78496 0.30914 0.0
C939 C 0.88244 0.79633 0.35381 0.0
H940 H 0.93954 0.83709 0.29502 0.0
C941 C 1.01082 0.80558 0.34159 0.0
C942 C 0.03639 0.83337 0.32887 0.0
C943 C 0.97906 0.80169 0.34407 0.0
C944 C 0.92408 0.82605 0.31173 0.0
H945 H 0.78138 0.80965 0.3677 0.0
H946 H 0.83544 0.81367 0.37018 0.0
H947 H 0.88191 0.82459 0.2939 0.0
H948 H 0.04922 0.87976 0.30996 0.0
H949 H 0.9937 0.87334 0.31463 0.0
H950 H 0.92478 0.79827 0.37179 0.0
C951 C 0.8209 0.8037 0.35294 0.0
C952 C 0.8908 0.81833 0.31092 0.0
C953 C 0.78941 0.80064 0.35184 0.0
C954 C 0.03007 0.85825 0.32003 0.0
C955 C 0.99814 0.85427 0.32239 0.0
C956 C 0.9157 0.80397 0.3546 0.0
C957 C 0.83443 0.79651 0.33145 0.0
C958 C 0.8695 0.80334 0.33194 0.0
C959 C 0.97197 0.82544 0.33379 0.0
C960 C 0.937 0.81893 0.33356 0.0
H961 H 0.76942 0.77419 0.29046 0.0
H962 H 0.8245 0.77904 0.29223 0.0
H963 H 0.86676 0.78467 0.37032 0.0
H964 H 1.01499 0.78597 0.34855 0.0
H965 H 0.95963 0.7791 0.35283 0.0
C966 C 0.19289 0.1798 0.33073 0.0
C967 C 0.21912 0.21211 0.32542 0.0
C968 C 0.19937 0.15378 0.33546 0.0
C969 C 0.21926 0.10257 0.3207 0.0
H970 H 0.29519 0.10992 0.35737 0.0
C971 C 0.2643 1.01027 0.30135 0.0
C972 C 0.26864 0.99455 0.32268 0.0
C973 C 0.26153 0.03877 0.30423 0.0
C974 C 0.27382 0.10747 0.34714 0.0
H975 H 0.27277 0.24306 0.323 0.0
H976 H 0.2841 0.19791 0.33145 0.0
H977 H 0.28184 0.15483 0.36054 0.0
H978 H 0.27596 0.99802 0.36363 0.0
H979 H 0.27144 0.04819 0.36872 0.0
H980 H 0.21138 0.05562 0.30702 0.0
C981 C 0.25852 0.19247 0.33189 0.0
C982 C 0.26622 0.13322 0.34887 0.0
C983 C 0.25203 0.21837 0.32697 0.0
C984 C 0.27261 1.00947 0.34682 0.0
C985 C 0.26999 0.03824 0.34972 0.0
C986 C 0.22704 0.07714 0.31877 0.0
C987 C 0.23223 0.15957 0.33519 0.0
C988 C 0.23895 0.13119 0.3355 0.0
C989 C 0.26301 0.05237 0.32854 0.0
C990 C 0.25464 0.07939 0.33167 0.0
H991 H 0.16729 0.17415 0.32949 0.0
H992 H 0.17854 0.12882 0.33831 0.0
H993 H 0.19837 0.10025 0.30986 0.0
H994 H 0.26126 0.99944 0.28249 0.0
H995 H 0.25696 0.04948 0.28743 0.0
C996 C 0.04132 0.26423 0.30676 0.0
C997 C 0.05821 0.28413 0.32794 0.0
C998 C 1.01271 0.23307 0.30999 0.0
C999 C 0.94799 0.17664 0.3566 0.0
H1000 H 0.94601 0.10833 0.31245 0.0
C1001 C 0.83179 0.04552 0.34411 0.0
C1002 C 0.83597 0.01841 0.3374 0.0
C1003 C 0.85934 0.07745 0.34747 0.0
C1004 C 0.94632 0.12687 0.32526 0.0
H1005 H 0.05653 0.2881 0.36901 0.0
H1006 H 1.0069 0.23344 0.37488 0.0
H1007 H 0.99115 0.1655 0.30854 0.0
H1008 H 0.87247 1.00313 0.33097 0.0
H1009 H 0.92075 0.05875 0.33755 0.0
H1010 H 0.90327 0.13763 0.37359 0.0
C1011 C 1.01574 0.24185 0.35567 0.0
C1012 C 0.97199 0.15995 0.32267 0.0
C1013 C 0.04435 0.27322 0.35235 0.0
C1014 C 0.86841 0.02345 0.3362 0.0
C1015 C 0.89607 0.05549 0.33959 0.0
C1016 C 0.92223 0.14341 0.35923 0.0
C1017 C 1.00034 0.22077 0.33457 0.0
C1018 C 0.97299 0.18543 0.33802 0.0
C1019 C 0.89189 0.08317 0.34428 0.0
C1020 C 0.92084 0.11808 0.3434 0.0
H1021 H 0.05124 0.27208 0.28767 0.0
H1022 H 1.00094 0.21808 0.2932 0.0
H1023 H 0.9479 0.19552 0.36878 0.0
H1024 H 0.80708 0.04238 0.34538 0.0
H1025 H 0.85493 0.09797 0.35099 0.0
C1026 C 0.25202 0.81889 0.33498 0.0
C1027 C 0.25472 0.83598 0.35784 0.0
C1028 C 0.23963 0.78437 0.33517 0.0
C1029 C 0.18627 0.71015 0.37428 0.0
H1030 H 0.21944 0.6656 0.33045 0.0
C1031 C 0.11359 0.56775 0.35895 0.0
C1032 C 0.1316 0.55091 0.36175 0.0
C1033 C 0.13 0.60256 0.35752 0.0
C1034 C 0.20997 0.67774 0.34282 0.0
H1035 H 0.25008 0.83142 0.39893 0.0
H1036 H 0.22822 0.7712 0.39937 0.0
H1037 H 0.24698 0.72665 0.33038 0.0
H1038 H 0.18142 0.55805 0.36457 0.0
H1039 H 0.21003 0.61885 0.36142 0.0
H1040 H 0.14916 0.66139 0.38658 0.0
C1041 C 0.23462 0.78407 0.38121 0.0
C1042 C 0.22558 0.71267 0.34266 0.0
C1043 C 0.24719 0.81853 0.381 0.0
C1044 C 0.16664 0.56997 0.36215 0.0
C1045 C 0.18309 0.60486 0.36043 0.0
C1046 C 0.17041 0.67533 0.37415 0.0
C1047 C 0.23002 0.76641 0.35826 0.0
C1048 C 0.21393 0.72931 0.35844 0.0
C1049 C 0.16491 0.62156 0.35852 0.0
C1050 C 0.18205 0.65868 0.35844 0.0
H1051 H 0.2588 0.83209 0.31694 0.0
H1052 H 0.23644 0.7716 0.31715 0.0
H1053 H 0.17647 0.72206 0.38656 0.0
H1054 H 0.08667 0.55404 0.35788 0.0
H1055 H 0.11531 0.61466 0.35561 0.0
C1056 C 0.24032 0.4348 0.38209 0.0
C1057 C 0.22164 0.42398 0.35952 0.0
C1058 C 0.275 0.4547 0.38113 0.0
C1059 C 0.34526 0.51326 0.34093 0.0
H1060 H 0.39664 0.48816 0.38437 0.0
C1061 C 0.48702 0.59869 0.36118 0.0
C1062 C 0.50668 0.58338 0.36115 0.0
C1063 C 0.45227 0.57953 0.35901 0.0
C1064 C 0.38269 0.49541 0.37201 0.0
H1065 H 0.22399 0.42807 0.31831 0.0
H1066 H 0.28489 0.46307 0.31653 0.0
H1067 H 0.33597 0.45468 0.38453 0.0
H1068 H 0.50479 0.53575 0.35753 0.0
H1069 H 0.44438 0.50252 0.35445 0.0
H1070 H 0.39216 0.55434 0.32871 0.0
C1071 C 0.27277 0.45552 0.33498 0.0
C1072 C 0.34791 0.47637 0.37225 0.0
C1073 C 0.23801 0.43524 0.33595 0.0
C1074 C 0.49059 0.54846 0.35829 0.0
C1075 C 0.4559 0.52934 0.3564 0.0
C1076 C 0.38013 0.53264 0.34097 0.0
C1077 C 0.2917 0.46499 0.35757 0.0
C1078 C 0.32875 0.48507 0.35676 0.0
C1079 C 0.43628 0.54459 0.35701 0.0
C1080 C 0.39924 0.52392 0.35652 0.0
H1081 H 0.22812 0.42717 0.40051 0.0
H1082 H 0.28876 0.46209 0.39889 0.0
H1083 H 0.3312 0.52072 0.32889 0.0
H1084 H 0.49832 0.6254 0.36366 0.0
H1085 H 0.43782 0.59201 0.35975 0.0
C1086 C 0.44941 0.89192 0.36416 0.0
C1087 C 0.46575 0.92598 0.35774 0.0
C1088 C 0.46647 0.87411 0.36363 0.0
C1089 C 0.54203 0.87643 0.33735 0.0
H1090 H 0.52847 0.8157 0.39284 0.0
C1091 C 0.61113 0.80162 0.33956 0.0
C1092 C 0.62272 0.7981 0.3634 0.0
C1093 C 0.58917 0.81399 0.33788 0.0
C1094 C 0.53282 0.83273 0.37726 0.0
H1095 H 0.51274 0.96772 0.34508 0.0
H1096 H 0.54254 0.93689 0.34454 0.0
H1097 H 0.49663 0.84438 0.39174 0.0
H1098 H 0.61867 0.80214 0.40421 0.0
H1099 H 0.58169 0.82519 0.40146 0.0
H1100 H 0.57848 0.86532 0.32301 0.0
C1101 C 0.51646 0.92382 0.34983 0.0
C1102 C 0.51417 0.84888 0.37647 0.0
C1103 C 0.49945 0.94163 0.35043 0.0
C1104 C 0.61057 0.80533 0.38558 0.0
C1105 C 0.58905 0.8182 0.38394 0.0
C1106 C 0.56058 0.8602 0.33808 0.0
C1107 C 0.50026 0.88987 0.35656 0.0
C1108 C 0.51884 0.87129 0.35668 0.0
C1109 C 0.57828 0.82309 0.36004 0.0
C1110 C 0.55672 0.83854 0.3583 0.0
H1111 H 0.42355 0.87912 0.37008 0.0
H1112 H 0.45311 0.84792 0.36869 0.0
H1113 H 0.5459 0.89309 0.32158 0.0
H1114 H 0.61924 0.79504 0.32219 0.0
H1115 H 0.58086 0.81649 0.31915 0.0
C1116 C 0.68212 0.16765 0.70521 0.0
C1117 C 0.70305 0.17079 0.68462 0.0
C1118 C 0.65007 0.16225 0.70106 0.0
C1119 C 0.58294 0.13003 0.65256 0.0
H1120 H 0.54424 0.16698 0.69871 0.0
C1121 C 0.45581 0.12274 0.63518 0.0
C1122 C 0.43605 0.12014 0.65642 0.0
C1123 C 0.48703 0.12551 0.63837 0.0
C1124 C 0.55443 0.15598 0.68587 0.0
H1125 H 0.70707 0.17209 0.64342 0.0
H1126 H 0.65095 0.16327 0.63601 0.0
H1127 H 0.60227 0.18221 0.70365 0.0
H1128 H 0.43269 0.11611 0.69761 0.0
H1129 H 0.48707 0.12065 0.70329 0.0
H1130 H 0.53498 0.10411 0.63461 0.0
C1131 C 0.65927 0.16439 0.65546 0.0
C1132 C 0.58787 0.16485 0.68864 0.0
C1133 C 0.69159 0.16989 0.65966 0.0
C1134 C 0.44731 0.11821 0.68088 0.0
C1135 C 0.47866 0.12113 0.68411 0.0
C1136 C 0.54945 0.12125 0.64972 0.0
C1137 C 0.63787 0.15995 0.67615 0.0
C1138 C 0.60263 0.15189 0.67213 0.0
C1139 C 0.49943 0.12597 0.66293 0.0
C1140 C 0.53468 0.134 0.66643 0.0
H1141 H 0.69026 0.16845 0.72469 0.0
H1142 H 0.63444 0.15866 0.71751 0.0
H1143 H 0.59317 0.11908 0.63972 0.0
H1144 H 0.44783 0.12441 0.61609 0.0
H1145 H 0.50224 0.12927 0.62161 0.0
C1146 C 0.91778 0.33388 0.6298 0.0
C1147 C 0.92728 0.32221 0.65106 0.0
C1148 C 0.9153 0.36272 0.63149 0.0
C1149 C 0.93594 0.4375 0.67146 0.0
H1150 H 0.85794 0.43011 0.63828 0.0
C1151 C 0.91516 0.54978 0.65606 0.0
C1152 C 0.88244 0.54421 0.65548 0.0
C1153 C 0.92119 0.5233 0.65943 0.0
C1154 C 0.87961 0.43253 0.64799 0.0
H1155 H 0.94301 0.33257 0.69038 0.0
H1156 H 0.9389 0.38299 0.69355 0.0
H1157 H 0.86933 0.38444 0.63512 0.0
H1158 H 0.83049 0.50666 0.65968 0.0
H1159 H 0.84091 0.46034 0.6661 0.0
H1160 H 0.94591 0.48557 0.68456 0.0
C1161 C 0.93354 0.37002 0.67542 0.0
C1162 C 0.8865 0.40647 0.64579 0.0
C1163 C 0.93602 0.34111 0.67366 0.0
C1164 C 0.85597 0.51181 0.66017 0.0
C1165 C 0.86198 0.48521 0.66346 0.0
C1166 C 0.92906 0.46368 0.67362 0.0
C1167 C 0.922 0.38058 0.6546 0.0
C1168 C 0.91493 0.40865 0.65726 0.0
C1169 C 0.89462 0.49042 0.66227 0.0
C1170 C 0.90087 0.46166 0.66177 0.0
H1171 H 0.91085 0.31982 0.61211 0.0
H1172 H 0.90719 0.37049 0.61483 0.0
H1173 H 0.95807 0.44014 0.68054 0.0
H1174 H 0.93612 0.57451 0.65258 0.0
H1175 H 0.94662 0.52843 0.65828 0.0
C1176 C 0.70678 0.60628 0.69006 0.0
C1177 C 0.72116 0.61832 0.66595 0.0
C1178 C 0.67665 0.57594 0.69231 0.0
C1179 C 0.60383 0.51241 0.65509 0.0
H1180 H 0.60405 0.44897 0.70313 0.0
C1181 C 0.49535 0.37734 0.65627 0.0
C1182 C 0.50423 0.35245 0.65647 0.0
C1183 C 0.51854 0.41032 0.66271 0.0
C1184 C 0.60354 0.46636 0.68962 0.0
H1185 H 0.71421 0.60918 0.62529 0.0
H1186 H 0.66171 0.5569 0.62903 0.0
H1187 H 0.64963 0.50692 0.70353 0.0
H1188 H 0.54383 0.34227 0.66503 0.0
H1189 H 0.58462 0.40001 0.67614 0.0
H1190 H 0.55872 0.47189 0.64036 0.0
C1191 C 0.67352 0.57059 0.64631 0.0
C1192 C 0.6295 0.49972 0.69005 0.0
C1193 C 0.70369 0.6006 0.64412 0.0
C1194 C 0.53618 0.36085 0.66497 0.0
C1195 C 0.55957 0.39402 0.67128 0.0
C1196 C 0.5779 0.4792 0.65471 0.0
C1197 C 0.66009 0.55726 0.67043 0.0
C1198 C 0.63034 0.52302 0.67241 0.0
C1199 C 0.55141 0.41945 0.6693 0.0
C1200 C 0.57761 0.4555 0.67166 0.0
H1201 H 0.71945 0.61953 0.70719 0.0
H1202 H 0.66675 0.56672 0.71118 0.0
H1203 H 0.60346 0.52968 0.64137 0.0
H1204 H 0.47082 0.37154 0.64993 0.0
H1205 H 0.51101 0.42894 0.6616 0.0
C1206 C 0.78759 0.90502 0.69493 0.0
C1207 C 0.80462 0.88745 0.69904 0.0
C1208 C 0.80502 0.93966 0.69169 0.0
C1209 C 0.88656 1.01511 0.70487 0.0
H1210 H 0.85324 0.05649 0.65846 0.0
C1211 C 0.93193 0.15641 0.70962 0.0
C1212 C 0.93045 0.1728 0.68763 0.0
C1213 C 0.91946 0.12191 0.70938 0.0
C1214 C 0.86319 0.04559 0.67144 0.0
H1215 H 0.85363 0.89288 0.70264 0.0
H1216 H 0.88409 0.95328 0.69646 0.0
H1217 H 0.82603 0.99618 0.66056 0.0
H1218 H 0.9184 0.16685 0.64737 0.0
H1219 H 0.89783 0.10702 0.64651 0.0
H1220 H 0.9241 0.06447 0.71542 0.0
C1221 C 0.85714 0.94023 0.69609 0.0
C1222 C 0.84725 1.01077 0.67282 0.0
C1223 C 0.83966 0.90549 0.69934 0.0
C1224 C 0.91874 0.15458 0.66484 0.0
C1225 C 0.9068 0.12018 0.66444 0.0
C1226 C 0.90253 0.04999 0.70348 0.0
C1227 C 0.84004 0.95783 0.69238 0.0
C1228 C 0.85839 0.99499 0.68981 0.0
C1229 C 0.90622 0.1031 0.68686 0.0
C1230 C 0.89076 0.06584 0.68706 0.0
H1231 H 0.76065 0.89198 0.69423 0.0
H1232 H 0.79091 0.95227 0.68917 0.0
H1233 H 0.89583 1.00394 0.71826 0.0
H1234 H 0.9414 0.17006 0.72732 0.0
H1235 H 0.91923 0.10994 0.72715 0.0
C1236 C 0.90645 0.76715 0.71862 0.0
C1237 C 0.88668 0.75671 0.69658 0.0
C1238 C 0.94098 0.7879 0.71679 0.0
C1239 C 1.00824 0.84914 0.67542 0.0
H1240 H 0.06381 0.82558 0.71514 0.0
C1241 C 0.15112 0.93682 0.69057 0.0
C1242 C 0.17112 0.92196 0.68882 0.0
C1243 C 0.11627 0.91726 0.68976 0.0
C1244 C 0.04866 0.83243 0.70382 0.0
H1245 H 0.88686 0.76212 0.65552 0.0
H1246 H 0.94744 0.79855 0.65221 0.0
H1247 H 1.00336 0.79073 0.71739 0.0
H1248 H 0.16969 0.87477 0.68336 0.0
H1249 H 0.10923 0.84086 0.68262 0.0
H1250 H 0.05378 0.8912 0.66215 0.0
C1251 C 0.93634 0.79014 0.67089 0.0
C1252 C 1.014 0.81257 0.70525 0.0
C1253 C 0.90176 0.76902 0.67273 0.0
C1254 C 0.15526 0.88713 0.68547 0.0
C1255 C 0.12053 0.86761 0.68494 0.0
C1256 C 0.043 0.86934 0.67428 0.0
C1257 C 0.95641 0.79942 0.69289 0.0
C1258 C 0.99333 0.82062 0.69105 0.0
C1259 C 0.10058 0.88235 0.6874 0.0
C1260 C 0.06361 0.86114 0.68842 0.0
H1261 H 0.89524 0.75867 0.73727 0.0
H1262 H 0.95561 0.79507 0.73413 0.0
H1263 H 0.993 0.85615 0.66439 0.0
H1264 H 0.16228 0.96346 0.69342 0.0
H1265 H 0.10157 0.92934 0.69185 0.0
C1266 C 0.28216 0.14961 0.70709 0.0
C1267 C 0.29456 0.14203 0.68517 0.0
C1268 C 0.26237 0.16442 0.70499 0.0
C1269 C 0.2056 0.17496 0.66263 0.0
H1270 H 0.23065 0.25492 0.70233 0.0
C1271 C 0.1224 0.23569 0.67667 0.0
C1272 C 0.13827 0.27036 0.67228 0.0
C1273 C 0.14071 0.21909 0.677 0.0
C1274 C 0.22338 0.23263 0.69112 0.0
H1275 H 0.29346 0.14093 0.64384 0.0
H1276 H 0.25842 0.16652 0.64009 0.0
H1277 H 0.26345 0.22706 0.70565 0.0
H1278 H 0.18612 0.31411 0.66364 0.0
H1279 H 0.21788 0.28539 0.66545 0.0
H1280 H 0.16499 0.18019 0.64859 0.0
C1281 C 0.26475 0.16182 0.65892 0.0
C1282 C 0.24205 0.2166 0.6931 0.0
C1283 C 0.28503 0.14749 0.66104 0.0
C1284 C 0.17292 0.28768 0.66782 0.0
C1285 C 0.19124 0.2712 0.66866 0.0
C1286 C 0.18645 0.1906 0.66108 0.0
C1287 C 0.25364 0.17093 0.68089 0.0
C1288 C 0.2335 0.1877 0.67879 0.0
C1289 C 0.1754 0.23679 0.67339 0.0
C1290 C 0.19527 0.21972 0.6752 0.0
H1291 H 0.28852 0.14487 0.7259 0.0
H1292 H 0.25381 0.17071 0.72226 0.0
H1293 H 0.1983 0.15261 0.65149 0.0
H1294 H 0.09596 0.22139 0.68056 0.0
H1295 H 0.12788 0.19255 0.68085 0.0
C1296 C 0.14514 0.38011 0.24708 0.0
C1297 C 0.14316 0.39529 0.26977 0.0
C1298 C 0.14268 0.39259 0.22322 0.0
C1299 C 0.14919 0.46679 0.19049 0.0
H1300 H 0.08027 0.40268 0.14575 0.0
C1301 C 0.10884 0.48922 0.08761 0.0
C1302 C 0.07453 0.47799 0.08676 0.0
C1303 C 0.12292 0.48357 0.1095 0.0
C1304 C 0.09986 0.42081 0.15793 0.0
H1305 H 0.13862 0.43627 0.28522 0.0
H1306 H 0.13513 0.45835 0.24386 0.0
H1307 H 0.09557 0.38325 0.184 0.0
H1308 H 0.02886 0.45494 0.10881 0.0
H1309 H 0.05315 0.44492 0.14653 0.0
H1310 H 0.15288 0.50438 0.16441 0.0
C1311 C 0.13835 0.43676 0.24435 0.0
C1312 C 0.10876 0.40969 0.17975 0.0
C1313 C 0.14012 0.42394 0.26808 0.0
C1314 C 0.05534 0.46377 0.10887 0.0
C1315 C 0.06915 0.45776 0.1304 0.0
C1316 C 0.14067 0.47789 0.16835 0.0
C1317 C 0.13893 0.42091 0.22161 0.0
C1318 C 0.13297 0.43257 0.19665 0.0
C1319 C 0.10275 0.46644 0.13064 0.0
C1320 C 0.11532 0.45503 0.15222 0.0
H1321 H 0.14709 0.3578 0.24776 0.0
H1322 H 0.14321 0.37982 0.20603 0.0
H1323 H 0.16804 0.48503 0.20307 0.0
H1324 H 0.12415 0.49979 0.07075 0.0
H1325 H 0.14896 0.4906 0.10928 0.0
C1326 C 0.67228 0.77506 0.25141 0.0
C1327 C 0.65916 0.75565 0.27351 0.0
C1328 C 0.66156 0.76064 0.22717 0.0
C1329 C 0.59469 0.68691 0.19295 0.0
H1330 H 0.66489 0.70444 0.14459 0.0
C1331 C 0.57378 0.60852 0.09978 0.0
C1332 C 0.59392 0.62551 0.0787 0.0
C1333 C 0.57861 0.62509 0.12333 0.0
C1334 C 0.64478 0.69961 0.15759 0.0
H1335 H 0.62346 0.70639 0.28757 0.0
H1336 H 0.60477 0.68148 0.24555 0.0
H1337 H 0.67883 0.73358 0.18525 0.0
H1338 H 0.6329 0.67371 0.06525 0.0
H1339 H 0.64025 0.70245 0.10527 0.0
H1340 H 0.56061 0.65283 0.16518 0.0
C1341 C 0.62327 0.70773 0.24678 0.0
C1342 C 0.65287 0.71641 0.18099 0.0
C1343 C 0.63421 0.72199 0.27089 0.0
C1344 C 0.61733 0.65966 0.08118 0.0
C1345 C 0.62178 0.67617 0.10433 0.0
C1346 C 0.58651 0.67024 0.16936 0.0
C1347 C 0.63724 0.72664 0.22459 0.0
C1348 C 0.628 0.71024 0.19902 0.0
C1349 C 0.60338 0.65898 0.12603 0.0
C1350 C 0.61148 0.67638 0.15133 0.0
H1351 H 0.69179 0.8009 0.25279 0.0
H1352 H 0.67268 0.77594 0.21041 0.0
H1353 H 0.5749 0.68167 0.20642 0.0
H1354 H 0.55559 0.58219 0.09844 0.0
H1355 H 0.56394 0.61098 0.13962 0.0
C1356 C 0.44888 0.996 0.09914 0.0
C1357 C 0.44301 0.97597 0.07738 0.0
C1358 C 0.42957 0.98305 0.1211 0.0
C1359 C 0.37715 0.91179 0.15989 0.0
H1360 H 0.33219 0.96079 0.17747 0.0
C1361 C 0.32814 0.91486 0.2609 0.0
C1362 C 0.29718 0.91325 0.26348 0.0
C1363 C 0.34175 0.91612 0.2368 0.0
C1364 C 0.34415 0.94653 0.17268 0.0
H1365 H 0.41397 0.92588 0.06231 0.0
H1366 H 0.38088 0.90256 0.1016 0.0
H1367 H 0.36589 0.97484 0.13859 0.0
H1368 H 0.25593 0.91109 0.24266 0.0
H1369 H 0.28028 0.91427 0.20023 0.0
H1370 H 0.35663 0.88451 0.19468 0.0
C1371 C 0.40025 0.92855 0.10125 0.0
C1372 C 0.36363 0.95473 0.15052 0.0
C1373 C 0.41946 0.94175 0.07893 0.0
C1374 C 0.27973 0.91217 0.24128 0.0
C1375 C 0.29375 0.91414 0.21704 0.0
C1376 C 0.35809 0.90395 0.18237 0.0
C1377 C 0.40422 0.94953 0.12208 0.0
C1378 C 0.3808 0.93787 0.14412 0.0
C1379 C 0.32507 0.9164 0.21456 0.0
C1380 C 0.34179 0.92161 0.18922 0.0
H1381 H 0.4668 0.02248 0.09845 0.0
H1382 H 0.43347 0.99966 0.13697 0.0
H1383 H 0.39015 0.89846 0.15541 0.0
H1384 H 0.34213 0.9155 0.27762 0.0
H1385 H 0.36602 0.91819 0.23563 0.0
C1386 C 0.47346 0.09313 0.93132 0.0
C1387 C 0.4745 0.06338 0.93147 0.0
C1388 C 0.47112 0.10721 0.90841 0.0
C1389 C 0.47438 0.10199 0.83684 0.0
H1390 H 0.41839 0.14186 0.84103 0.0
C1391 C 0.44277 0.15527 0.74692 0.0
C1392 C 0.40918 0.14653 0.74495 0.0
C1393 C 0.45518 0.15014 0.76995 0.0
C1394 C 0.434 0.13074 0.83935 0.0
H1395 H 0.47486 0.0254 0.90761 0.0
H1396 H 0.46949 0.04924 0.8673 0.0
H1397 H 0.43087 0.12134 0.87936 0.0
H1398 H 0.36272 0.12699 0.76565 0.0
H1399 H 0.38395 0.11836 0.80538 0.0
H1400 H 0.47567 0.10985 0.79634 0.0
C1401 C 0.47134 0.06231 0.88493 0.0
C1402 C 0.44166 0.11931 0.86158 0.0
C1403 C 0.47439 0.04853 0.90803 0.0
C1404 C 0.38889 0.13453 0.76675 0.0
C1405 C 0.40115 0.1295 0.78959 0.0
C1406 C 0.46641 0.11322 0.81445 0.0
C1407 C 0.46883 0.09149 0.88484 0.0
C1408 C 0.46185 0.10458 0.86077 0.0
C1409 C 0.43424 0.13638 0.79145 0.0
C1410 C 0.44573 0.12741 0.81536 0.0
H1411 H 0.47394 0.10538 0.9491 0.0
H1412 H 0.4705 0.13023 0.90933 0.0
H1413 H 0.49027 0.09118 0.83532 0.0
H1414 H 0.4588 0.16388 0.73027 0.0
H1415 H 0.48089 0.15609 0.77068 0.0
C1416 C 1.0064 0.43813 0.91751 0.0
C1417 C 0.9931 0.41928 0.93984 0.0
C1418 C 0.99585 0.42316 0.89341 0.0
C1419 C 0.92884 0.34855 0.8599 0.0
H1420 H 0.99834 0.36781 0.8104 0.0
C1421 C 0.90824 0.27249 0.7651 0.0
C1422 C 0.92754 0.29068 0.74402 0.0
C1423 C 0.91293 0.28819 0.78906 0.0
C1424 C 0.97843 0.36244 0.82378 0.0
H1425 H 0.95741 0.37023 0.95433 0.0
H1426 H 0.93923 0.34434 0.91258 0.0
H1427 H 1.01273 0.39646 0.85127 0.0
H1428 H 0.96487 0.34 0.73114 0.0
H1429 H 0.97191 0.36711 0.77182 0.0
H1430 H 0.89454 0.31438 0.83223 0.0
C1431 C 0.95766 0.37064 0.91353 0.0
C1432 C 0.98677 0.37897 0.84729 0.0
C1433 C 0.96836 0.38548 0.93751 0.0
C1434 C 0.94983 0.32505 0.74697 0.0
C1435 C 0.95417 0.34064 0.77052 0.0
C1436 C 0.92043 0.33208 0.83622 0.0
C1437 C 0.9716 0.3891 0.89114 0.0
C1438 C 0.96214 0.37233 0.86568 0.0
C1439 C 0.93677 0.32233 0.79216 0.0
C1440 C 0.94513 0.33894 0.81776 0.0
H1441 H 0.02578 0.46403 0.9186 0.0
H1442 H 1.00695 0.43819 0.87653 0.0
H1443 H 0.9092 0.34292 0.87361 0.0
H1444 H 0.89097 0.24597 0.76345 0.0
H1445 H 0.89901 0.27328 0.80532 0.0
C1446 C 0.74377 0.60234 0.75169 0.0
C1447 C 0.76963 0.63577 0.75256 0.0
C1448 C 0.72195 0.58827 0.77259 0.0
C1449 C 0.68957 0.61705 0.82503 0.0
H1450 H 0.65473 0.5291 0.85447 0.0
C1451 C 0.59715 0.57613 0.90905 0.0
C1452 C 0.60602 0.56307 0.92973 0.0
C1453 C 0.61131 0.57841 0.88484 0.0
C1454 C 0.66412 0.55371 0.84637 0.0
H1455 H 0.79511 0.67936 0.77676 0.0
H1456 H 0.75798 0.65483 0.81311 0.0
H1457 H 0.69377 0.54609 0.81843 0.0
H1458 H 0.63534 0.541 0.94139 0.0
H1459 H 0.65963 0.54446 0.89938 0.0
H1460 H 0.66101 0.62532 0.85314 0.0
C1461 C 0.75373 0.63966 0.79622 0.0
C1462 C 0.68636 0.56334 0.82565 0.0
C1463 C 0.77533 0.65357 0.77552 0.0
C1464 C 0.6276 0.55052 0.92554 0.0
C1465 C 0.64155 0.55258 0.90143 0.0
C1466 C 0.66726 0.6074 0.84552 0.0
C1467 C 0.72583 0.60745 0.79461 0.0
C1468 C 0.70001 0.59549 0.81517 0.0
C1469 C 0.63464 0.56772 0.88095 0.0
C1470 C 0.6547 0.57585 0.85687 0.0
H1471 H 0.7386 0.58812 0.73417 0.0
H1472 H 0.7008 0.56327 0.77083 0.0
H1473 H 0.6991 0.64176 0.8171 0.0
H1474 H 0.58114 0.58663 0.91197 0.0
H1475 H 0.60513 0.5899 0.86945 0.0
C1476 C 0.76429 0.78814 0.41815 0.0
C1477 C 0.74939 0.80808 0.41698 0.0
C1478 C 0.77606 0.78298 0.44109 0.0
C1479 C 0.79511 0.80889 0.509 0.0
H1480 H 0.77057 0.71617 0.51786 0.0
C1481 C 0.79388 0.75153 0.60736 0.0
C1482 C 0.80364 0.72729 0.6089 0.0
C1483 C 0.79144 0.76424 0.58382 0.0
C1484 C 0.77815 0.74227 0.51562 0.0
H1485 H 0.73532 0.83844 0.43927 0.0
H1486 H 0.75588 0.82931 0.47993 0.0
H1487 H 0.75895 0.7343 0.47765 0.0
H1488 H 0.81876 0.69772 0.5866 0.0
H1489 H 0.81488 0.72019 0.54532 0.0
H1490 H 0.81367 0.81652 0.54734 0.0
C1491 C 0.75925 0.8184 0.46268 0.0
C1492 C 0.77146 0.75275 0.4925 0.0
C1493 C 0.74771 0.82391 0.43937 0.0
C1494 C 0.81161 0.71661 0.5862 0.0
C1495 C 0.80898 0.72924 0.5625 0.0
C1496 C 0.80174 0.79835 0.53223 0.0
C1497 C 0.77245 0.7968 0.46391 0.0
C1498 C 0.77991 0.78622 0.48879 0.0
C1499 C 0.79852 0.753 0.56101 0.0
C1500 C 0.79328 0.76485 0.53586 0.0
H1501 H 0.76467 0.7743 0.40161 0.0
H1502 H 0.78654 0.76671 0.4411 0.0
H1503 H 0.80218 0.83486 0.50678 0.0
H1504 H 0.78773 0.76057 0.62443 0.0
H1505 H 0.78293 0.78215 0.58349 0.0
C1506 C 0.2563 0.93799 0.43301 0.0
C1507 C 0.24461 0.94598 0.41099 0.0
C1508 C 0.26038 0.9552 0.45584 0.0
C1509 C 0.27559 0.03651 0.48047 0.0
H1510 H 0.26465 0.99244 0.54547 0.0
C1511 C 0.33887 0.10811 0.57484 0.0
C1512 C 0.32314 0.09351 0.59805 0.0
C1513 C 0.32529 0.09161 0.55156 0.0
C1514 C 0.26746 1.00537 0.52765 0.0
H1515 H 0.2271 0.97776 0.39574 0.0
H1516 H 0.23346 1.0077 0.43612 0.0
H1517 H 0.24517 0.95947 0.50687 0.0
H1518 H 0.27981 0.05172 0.61509 0.0
H1519 H 0.25539 0.02401 0.57495 0.0
H1520 H 0.29755 0.08252 0.50153 0.0
C1521 C 0.23969 0.9881 0.4356 0.0
C1522 C 0.25661 0.9863 0.50531 0.0
C1523 C 0.23543 0.97057 0.4126 0.0
C1524 C 0.29272 0.06333 0.59748 0.0
C1525 C 0.27888 0.04726 0.57438 0.0
C1526 C 0.28629 0.0557 0.50297 0.0
C1527 C 0.25297 0.98112 0.45739 0.0
C1528 C 0.26102 1.00154 0.48132 0.0
C1529 C 0.29548 0.06042 0.55108 0.0
C1530 C 0.28271 0.04041 0.52691 0.0
H1531 H 0.26427 0.91966 0.43213 0.0
H1532 H 0.2712 0.94936 0.47189 0.0
H1533 H 0.27973 0.04922 0.46235 0.0
H1534 H 0.36249 0.13125 0.57477 0.0
H1535 H 0.33898 0.10258 0.53412 0.0
C1536 C 0.96933 0.22074 0.59298 0.0
C1537 C 0.94735 0.23313 0.59523 0.0
C1538 C 0.9855 0.223 0.56986 0.0
C1539 C 0.98878 0.24089 0.50036 0.0
H1540 H 0.08392 0.27855 0.50947 0.0
C1541 C 0.08083 0.27178 0.41483 0.0
C1542 C 0.10685 0.30514 0.41503 0.0
C1543 C 0.0609 0.25778 0.43667 0.0
C1544 C 0.05738 0.2678 0.50657 0.0
H1545 H 0.92436 0.25691 0.57498 0.0
H1546 H 0.95221 0.26039 0.53412 0.0
H1547 H 0.04755 0.263 0.54674 0.0
H1548 H 0.13372 0.3492 0.43853 0.0
H1549 H 0.10032 0.32446 0.47678 0.0
H1550 H 0.99903 0.24656 0.46004 0.0
C1551 C 0.95662 0.24848 0.5502 0.0
C1552 C 0.03644 0.25867 0.52795 0.0
C1553 C 0.94047 0.24631 0.57351 0.0
C1554 C 0.11417 0.32326 0.43796 0.0
C1555 C 0.09485 0.30914 0.45983 0.0
C1556 C 1.00977 0.24966 0.47888 0.0
C1557 C 0.9803 0.23797 0.54837 0.0
C1558 C 1.00189 0.24545 0.5252 0.0
C1559 C 0.06725 0.27663 0.45926 0.0
C1560 C 0.0444 0.26368 0.48177 0.0
H1561 H 0.97556 0.21112 0.60962 0.0
H1562 H 1.00319 0.21426 0.56911 0.0
H1563 H 0.96232 0.23072 0.49753 0.0
H1564 H 0.07435 0.25736 0.39735 0.0
H1565 H 0.03997 0.23256 0.4357 0.0
loop_
_geom_bond_atom_site_label_1
_geom_bond_atom_site_label_2
_geom_bond_distance
_geom_bond_site_symmetry_2
_ccdc_geom_bond_type
Eu0 N31 2.657 1_556 S
Eu0 N38 2.609 . S
Eu0 O44 2.558 . S
Eu0 O45 2.612 1_556 S
Eu0 O47 2.339 1_556 S
Eu0 O48 2.563 . S
Eu0 O49 2.419 1_556 S
Eu0 O51 2.380 1_456 S
Eu0 O52 2.432 . S
Eu0 C64 2.848 . S
C1 C4 1.429 . S
C1 C5 1.411 . S
C1 N8 1.377 . S
C2 C4 1.420 1_556 S
C2 C6 1.423 1_556 S
C2 C14 1.392 . S
C3 C5 1.420 . S
C3 C6 1.351 . S
C3 H26 0.931 . S
C4 C1 1.429 . S
C4 C2 1.420 1_554 S
C4 N12 1.362 1_554 S
C5 C1 1.411 . S
C5 C3 1.420 . S
C5 C10 1.395 . S
C6 C2 1.423 1_554 S
C6 C3 1.351 . S
C6 H18 0.930 . S
C7 C9 1.378 1_455 S
C7 C10 1.418 . S
C7 H19 0.921 1_455 S
N8 C1 1.377 . S
N8 C9 1.321 1_455 S
N8 Eu11 2.609 1_455 S
C9 C7 1.378 1_655 S
C9 N8 1.321 1_655 S
C9 H16 0.930 . S
C10 C5 1.395 . S
C10 C7 1.418 . S
C10 H29 0.930 . S
Eu11 N8 2.609 1_655 S
Eu11 N12 2.657 1_654 S
Eu11 O45 2.380 1_655 S
Eu11 O46 2.432 1_655 S
Eu11 O50 2.558 . S
Eu11 O51 2.612 . S
Eu11 O53 2.339 1_554 S
Eu11 O54 2.563 . S
Eu11 O55 2.419 1_554 S
Eu11 C75 2.848 . S
N12 C4 1.362 1_556 S
N12 Eu11 2.657 1_456 S
N12 C13 1.334 . S
C13 N12 1.334 . S
C13 C15 1.413 . S
C13 H20 0.929 . S
C14 C2 1.392 . S
C14 C15 1.367 . S
C14 H22 0.930 . S
C15 C13 1.413 . S
C15 C14 1.367 . S
C15 H17 0.930 . S
H16 C9 0.930 . S
H17 C15 0.930 . S
H18 C6 0.930 . S
H19 C7 0.921 1_655 S
H20 C13 0.929 . S
H21 C35 0.930 . S
H22 C14 0.930 . S
H23 C41 0.930 . S
H24 C32 0.929 1_455 S
H25 C39 0.930 . S
H26 C3 0.931 . S
H27 C33 0.930 . S
H28 C66 0.929 . S
H29 C10 0.930 . S
H30 C65 0.931 . S
N31 Eu0 2.657 1_554 S
N31 C32 1.334 1_455 S
N31 C36 1.356 1_454 S
C32 H24 0.929 1_655 S
C32 N31 1.334 1_655 S
C32 C35 1.413 . S
C33 H27 0.930 . S
C33 C34 1.392 . S
C33 C35 1.367 . S
C34 C33 1.392 . S
C34 C36 1.416 1_554 S
C34 C66 1.423 1_554 S
C35 H21 0.930 . S
C35 C32 1.413 . S
C35 C33 1.367 . S
C36 N31 1.356 1_656 S
C36 C34 1.416 1_556 S
C36 C40 1.439 1_655 S
H37 C42 0.930 1_655 S
N38 Eu0 2.609 . S
N38 C40 1.377 . S
N38 C41 1.321 . S
C39 H25 0.930 . S
C39 C41 1.400 . S
C39 C42 1.386 . S
C40 C36 1.439 1_455 S
C40 N38 1.377 . S
C40 C43 1.411 1_455 S
C41 H23 0.930 . S
C41 N38 1.321 . S
C41 C39 1.400 . S
C42 H37 0.930 1_455 S
C42 C39 1.386 . S
C42 C43 1.395 1_455 S
C43 C40 1.411 1_655 S
C43 C42 1.395 1_655 S
C43 C65 1.420 . S
O44 Eu0 2.558 . S
O44 C64 1.257 . S
O45 Eu0 2.612 1_554 S
O45 Eu11 2.380 1_455 S
O45 C56 1.267 1_554 S
O46 Eu11 2.432 1_455 S
O46 C63 1.264 . S
O47 Eu0 2.339 1_554 S
O47 C63 1.254 . S
O48 Eu0 2.563 . S
O48 C56 1.253 . S
O49 Eu0 2.419 1_554 S
O49 C64 1.249 1_554 S
O50 Eu11 2.558 . S
O50 C75 1.257 . S
O51 Eu0 2.380 1_654 S
O51 Eu11 2.612 . S
O51 C67 1.276 . S
O52 Eu0 2.432 . S
O52 C74 1.264 1_455 S
O53 Eu11 2.339 1_556 S
O53 C74 1.254 . S
O54 Eu11 2.563 . S
O54 C67 1.235 . S
O55 Eu11 2.419 1_556 S
O55 C75 1.249 1_556 S
C56 O45 1.267 1_556 S
C56 O48 1.253 . S
C57 C59 1.393 1_556 S
C57 C61 1.395 . S
C57 C64 1.492 . S
C58 C59 1.392 . S
C58 C60 1.386 1_554 S
C59 C57 1.393 1_554 S
C59 C58 1.392 . S
C59 H76 0.930 . S
C60 C58 1.386 1_556 S
C60 C62 1.395 . S
C60 H77 0.930 . S
C61 C57 1.395 . S
C61 C62 1.379 . S
C61 H78 0.930 . S
C62 C60 1.395 . S
C62 C61 1.379 . S
C62 H79 0.930 . S
C63 O46 1.264 . S
C63 O47 1.254 . S
C64 Eu0 2.848 . S
C64 O44 1.257 . S
C64 O49 1.249 1_556 S
C64 C57 1.492 . S
C65 H30 0.931 . S
C65 C43 1.420 . S
C65 C66 1.351 . S
C66 H28 0.929 . S
C66 C34 1.423 1_556 S
C66 C65 1.351 . S
C67 O51 1.276 . S
C67 O54 1.235 . S
C68 C69 1.393 1_554 S
C68 C72 1.395 . S
C68 C75 1.492 . S
C69 C68 1.393 1_556 S
C69 C70 1.394 . S
C69 H80 0.930 . S
C70 C69 1.394 . S
C70 C71 1.358 1_556 S
C71 C70 1.358 1_554 S
C71 C73 1.395 . S
C71 H81 0.930 . S
C72 C68 1.395 . S
C72 C73 1.379 . S
C72 H82 0.930 . S
C73 C71 1.395 . S
C73 C72 1.379 . S
C73 H83 0.930 . S
C74 O52 1.264 1_655 S
C74 O53 1.254 . S
C75 Eu11 2.848 . S
C75 O50 1.257 . S
C75 O55 1.249 1_554 S
C75 C68 1.492 . S
H76 C59 0.930 . S
H77 C60 0.930 . S
H78 C61 0.930 . S
H79 C62 0.930 . S
H80 C69 0.930 . S
H81 C71 0.930 . S
H82 C72 0.930 . S
H83 C73 0.930 . S
Eu84 N115 2.657 1_556 S
Eu84 N122 2.609 . S
Eu84 O128 2.558 . S
Eu84 O129 2.612 1_556 S
Eu84 O131 2.339 1_556 S
Eu84 O132 2.563 . S
Eu84 O133 2.419 1_556 S
Eu84 O135 2.380 1_556 S
Eu84 O136 2.432 . S
Eu84 C148 2.848 . S
C85 C88 1.429 . S
C85 C89 1.411 . S
C85 N92 1.377 . S
C86 C88 1.420 1_556 S
C86 C90 1.423 1_556 S
C86 C98 1.392 . S
C87 C89 1.420 . S
C87 C90 1.351 . S
C87 H110 0.931 . S
C88 C85 1.429 . S
C88 C86 1.420 1_554 S
C88 N96 1.362 1_554 S
C89 C85 1.411 . S
C89 C87 1.420 . S
C89 C94 1.395 . S
C90 C86 1.423 1_554 S
C90 C87 1.351 . S
C90 H102 0.930 . S
C91 C93 1.400 . S
C91 C94 1.386 . S
C91 H103 0.930 . S
N92 C85 1.377 . S
N92 C93 1.321 . S
N92 Eu95 2.609 . S
C93 C91 1.400 . S
C93 N92 1.321 . S
C93 H100 0.930 . S
C94 C89 1.395 . S
C94 C91 1.386 . S
C94 H113 0.930 . S
Eu95 N92 2.609 . S
Eu95 N96 2.657 1_554 S
Eu95 O129 2.380 . S
Eu95 O130 2.432 . S
Eu95 O134 2.558 . S
Eu95 O135 2.612 . S
Eu95 O137 2.339 1_554 S
Eu95 O138 2.563 . S
Eu95 O139 2.419 1_554 S
Eu95 C159 2.848 . S
N96 C88 1.362 1_556 S
N96 Eu95 2.657 1_556 S
N96 C97 1.334 . S
C97 N96 1.334 . S
C97 C99 1.413 . S
C97 H104 0.929 . S
C98 C86 1.392 . S
C98 C99 1.367 . S
C98 H106 0.930 . S
C99 C97 1.413 . S
C99 C98 1.367 . S
C99 H101 0.930 . S
H100 C93 0.930 . S
H101 C99 0.930 . S
H102 C90 0.930 . S
H103 C91 0.930 . S
H104 C97 0.929 . S
H105 C119 0.930 . S
H106 C98 0.930 . S
H107 C125 0.930 . S
H108 C116 0.929 . S
H109 C123 0.930 . S
H110 C87 0.931 . S
H111 C117 0.930 . S
H112 C150 0.929 . S
H113 C94 0.930 . S
H114 C149 0.931 . S
N115 Eu84 2.657 1_554 S
N115 C116 1.334 . S
N115 C120 1.356 1_554 S
C116 H108 0.929 . S
C116 N115 1.334 . S
C116 C119 1.413 . S
C117 H111 0.930 . S
C117 C118 1.392 . S
C117 C119 1.367 . S
C118 C117 1.392 . S
C118 C120 1.416 1_554 S
C118 C150 1.423 1_554 S
C119 H105 0.930 . S
C119 C116 1.413 . S
C119 C117 1.367 . S
C120 N115 1.356 1_556 S
C120 C118 1.416 1_556 S
C120 C124 1.438 . S
H121 C126 0.930 . S
N122 Eu84 2.609 . S
N122 C124 1.377 . S
N122 C125 1.321 . S
C123 H109 0.930 . S
C123 C125 1.400 . S
C123 C126 1.386 . S
C124 C120 1.438 . S
C124 N122 1.377 . S
C124 C127 1.411 . S
C125 H107 0.930 . S
C125 N122 1.321 . S
C125 C123 1.400 . S
C126 H121 0.930 . S
C126 C123 1.386 . S
C126 C127 1.395 . S
C127 C124 1.411 . S
C127 C126 1.395 . S
C127 C149 1.420 . S
O128 Eu84 2.558 . S
O128 C148 1.257 . S
O129 Eu84 2.612 1_554 S
O129 Eu95 2.380 . S
O129 C140 1.267 1_554 S
O130 Eu95 2.432 . S
O130 C147 1.264 . S
O131 Eu84 2.339 1_554 S
O131 C147 1.254 . S
O132 Eu84 2.563 . S
O132 C140 1.253 . S
O133 Eu84 2.419 1_554 S
O133 C148 1.249 1_554 S
O134 Eu95 2.558 . S
O134 C159 1.257 . S
O135 Eu84 2.380 1_554 S
O135 Eu95 2.612 . S
O135 C151 1.276 . S
O136 Eu84 2.432 . S
O136 C158 1.264 . S
O137 Eu95 2.339 1_556 S
O137 C158 1.254 . S
O138 Eu95 2.563 . S
O138 C151 1.235 . S
O139 Eu95 2.419 1_556 S
O139 C159 1.249 1_556 S
C140 O129 1.267 1_556 S
C140 O132 1.253 . S
C141 C143 1.393 1_556 S
C141 C145 1.395 . S
C141 C148 1.492 . S
C142 C143 1.392 . S
C142 C144 1.386 1_554 S
C143 C141 1.393 1_554 S
C143 C142 1.392 . S
C143 H160 0.930 . S
C144 C142 1.386 1_556 S
C144 C146 1.395 . S
C144 H161 0.930 . S
C145 C141 1.395 . S
C145 C146 1.379 . S
C145 H162 0.930 . S
C146 C144 1.395 . S
C146 C145 1.379 . S
C146 H163 0.930 . S
C147 O130 1.264 . S
C147 O131 1.254 . S
C148 Eu84 2.848 . S
C148 O128 1.257 . S
C148 O133 1.249 1_556 S
C148 C141 1.492 . S
C149 H114 0.931 . S
C149 C127 1.420 . S
C149 C150 1.351 . S
C150 H112 0.929 . S
C150 C118 1.423 1_556 S
C150 C149 1.351 . S
C151 O135 1.276 . S
C151 O138 1.235 . S
C152 C153 1.393 1_554 S
C152 C156 1.395 . S
C152 C159 1.492 . S
C153 C152 1.393 1_556 S
C153 C154 1.394 . S
C153 H164 0.930 . S
C154 C153 1.394 . S
C154 C155 1.358 1_556 S
C155 C154 1.358 1_554 S
C155 C157 1.395 . S
C155 H165 0.930 . S
C156 C152 1.395 . S
C156 C157 1.379 . S
C156 H166 0.930 . S
C157 C155 1.395 . S
C157 C156 1.379 . S
C157 H167 0.930 . S
C158 O136 1.264 . S
C158 O137 1.254 . S
C159 Eu95 2.848 . S
C159 O134 1.257 . S
C159 O139 1.249 1_554 S
C159 C152 1.492 . S
H160 C143 0.930 . S
H161 C144 0.930 . S
H162 C145 0.930 . S
H163 C146 0.930 . S
H164 C153 0.930 . S
H165 C155 0.930 . S
H166 C156 0.930 . S
H167 C157 0.930 . S
Eu168 N199 2.657 1_566 S
Eu168 N206 2.611 1_565 S
Eu168 O212 2.558 . S
Eu168 O213 2.612 1_556 S
Eu168 O215 2.339 1_556 S
Eu168 O216 2.563 . S
Eu168 O217 2.419 1_556 S
Eu168 O219 2.380 1_566 S
Eu168 O220 2.432 1_565 S
Eu168 C232 2.848 . S
C169 C172 1.426 1_545 S
C169 C173 1.416 1_545 S
C169 N176 1.375 . S
C170 C172 1.420 1_556 S
C170 C174 1.423 1_556 S
C170 C182 1.392 . S
C171 C173 1.420 . S
C171 C174 1.351 . S
C171 H194 0.931 . S
C172 C169 1.426 1_565 S
C172 C170 1.420 1_554 S
C172 N180 1.362 1_564 S
C173 C169 1.416 1_565 S
C173 C171 1.420 . S
C173 C178 1.389 1_565 S
C174 C170 1.423 1_554 S
C174 C171 1.351 . S
C174 H186 0.930 . S
C175 C177 1.400 . S
C175 C178 1.383 . S
C175 H187 0.930 . S
N176 C169 1.375 . S
N176 C177 1.321 . S
N176 Eu179 2.609 . S
C177 C175 1.400 . S
C177 N176 1.321 . S
C177 H184 0.930 . S
C178 C173 1.389 1_545 S
C178 C175 1.383 . S
C178 H197 0.941 1_545 S
Eu179 N176 2.609 . S
Eu179 N180 2.657 1_554 S
Eu179 O213 2.380 1_545 S
Eu179 O214 2.432 . S
Eu179 O218 2.558 . S
Eu179 O219 2.612 . S
Eu179 O221 2.339 1_554 S
Eu179 O222 2.563 . S
Eu179 O223 2.419 1_554 S
Eu179 C243 2.848 . S
N180 C172 1.362 1_546 S
N180 Eu179 2.657 1_556 S
N180 C181 1.334 1_545 S
C181 N180 1.334 1_565 S
C181 C183 1.413 . S
C181 H188 0.929 1_565 S
C182 C170 1.392 . S
C182 C183 1.367 . S
C182 H190 0.930 . S
C183 C181 1.413 . S
C183 C182 1.367 . S
C183 H185 0.930 . S
H184 C177 0.930 . S
H185 C183 0.930 . S
H186 C174 0.930 . S
H187 C175 0.930 . S
H188 C181 0.929 1_545 S
H189 C203 0.930 . S
H190 C182 0.930 . S
H191 C209 0.930 . S
H192 C200 0.929 . S
H193 C207 0.930 . S
H194 C171 0.931 . S
H195 C201 0.930 . S
H196 C234 0.929 . S
H197 C178 0.941 1_565 S
H198 C233 0.931 . S
N199 Eu168 2.657 1_544 S
N199 C200 1.334 . S
N199 C204 1.356 1_554 S
C200 H192 0.929 . S
C200 N199 1.334 . S
C200 C203 1.413 . S
C201 H195 0.930 . S
C201 C202 1.392 . S
C201 C203 1.367 . S
C202 C201 1.392 . S
C202 C204 1.416 1_554 S
C202 C234 1.423 1_554 S
C203 H189 0.930 . S
C203 C200 1.413 . S
C203 C201 1.367 . S
C204 N199 1.356 1_556 S
C204 C202 1.416 1_556 S
C204 C208 1.439 . S
H205 C210 0.930 . S
N206 Eu168 2.611 1_545 S
N206 C208 1.375 . S
N206 C209 1.319 1_545 S
C207 H193 0.930 . S
C207 C209 1.399 . S
C207 C210 1.386 1_565 S
C208 C204 1.439 . S
C208 N206 1.375 . S
C208 C211 1.411 . S
C209 H191 0.930 . S
C209 N206 1.319 1_565 S
C209 C207 1.399 . S
C210 H205 0.930 . S
C210 C207 1.386 1_545 S
C210 C211 1.395 . S
C211 C208 1.411 . S
C211 C210 1.395 . S
C211 C233 1.420 . S
O212 Eu168 2.558 . S
O212 C232 1.257 . S
O213 Eu168 2.612 1_554 S
O213 Eu179 2.380 1_565 S
O213 C224 1.267 1_554 S
O214 Eu179 2.432 . S
O214 C231 1.264 1_545 S
O215 Eu168 2.339 1_554 S
O215 C231 1.254 . S
O216 Eu168 2.563 . S
O216 C224 1.253 . S
O217 Eu168 2.419 1_554 S
O217 C232 1.249 1_554 S
O218 Eu179 2.558 . S
O218 C243 1.257 . S
O219 Eu168 2.380 1_544 S
O219 Eu179 2.612 . S
O219 C235 1.276 . S
O220 Eu168 2.432 1_545 S
O220 C242 1.264 . S
O221 Eu179 2.339 1_556 S
O221 C242 1.254 . S
O222 Eu179 2.563 . S
O222 C235 1.235 . S
O223 Eu179 2.419 1_556 S
O223 C243 1.249 1_556 S
C224 O213 1.267 1_556 S
C224 O216 1.253 . S
C225 C227 1.393 1_556 S
C225 C229 1.395 . S
C225 C232 1.492 . S
C226 C227 1.392 . S
C226 C228 1.386 1_554 S
C227 C225 1.393 1_554 S
C227 C226 1.392 . S
C227 H244 0.930 . S
C228 C226 1.386 1_556 S
C228 C230 1.395 . S
C228 H245 0.930 . S
C229 C225 1.395 . S
C229 C230 1.379 . S
C229 H246 0.930 . S
C230 C228 1.395 . S
C230 C229 1.379 . S
C230 H247 0.930 . S
C231 O214 1.264 1_565 S
C231 O215 1.254 . S
C232 Eu168 2.848 . S
C232 O212 1.257 . S
C232 O217 1.249 1_556 S
C232 C225 1.492 . S
C233 H198 0.931 . S
C233 C211 1.420 . S
C233 C234 1.351 . S
C234 H196 0.929 . S
C234 C202 1.423 1_556 S
C234 C233 1.351 . S
C235 O219 1.276 . S
C235 O222 1.235 . S
C236 C237 1.393 1_554 S
C236 C240 1.395 . S
C236 C243 1.492 . S
C237 C236 1.393 1_556 S
C237 C238 1.394 . S
C237 H248 0.930 . S
C238 C237 1.394 . S
C238 C239 1.358 1_556 S
C239 C238 1.358 1_554 S
C239 C241 1.395 . S
C239 H249 0.930 . S
C240 C236 1.395 . S
C240 C241 1.379 . S
C240 H250 0.930 . S
C241 C239 1.395 . S
C241 C240 1.379 . S
C241 H251 0.930 . S
C242 O220 1.264 . S
C242 O221 1.254 . S
C243 Eu179 2.848 . S
C243 O218 1.257 . S
C243 O223 1.249 1_554 S
C243 C236 1.492 . S
H244 C227 0.930 . S
H245 C228 0.930 . S
H246 C229 0.930 . S
H247 C230 0.930 . S
H248 C237 0.930 . S
H249 C239 0.930 . S
H250 C240 0.930 . S
H251 C241 0.930 . S
Eu252 N283 2.657 . S
Eu252 N290 2.609 . S
Eu252 O296 2.558 . S
Eu252 O297 2.612 . S
Eu252 O299 2.339 . S
Eu252 O300 2.563 . S
Eu252 O301 2.419 . S
Eu252 O303 2.380 . S
Eu252 O304 2.432 . S
Eu252 C316 2.848 . S
C253 C256 1.429 . S
C253 C257 1.411 . S
C253 N260 1.377 . S
C254 C256 1.420 . S
C254 C258 1.423 . S
C254 C266 1.392 . S
C255 C257 1.420 . S
C255 C258 1.351 . S
C255 H278 0.931 . S
C256 C253 1.429 . S
C256 C254 1.420 . S
C256 N264 1.362 . S
C257 C253 1.411 . S
C257 C255 1.420 . S
C257 C262 1.395 . S
C258 C254 1.423 . S
C258 C255 1.351 . S
C258 H270 0.930 . S
C259 C261 1.400 . S
C259 C262 1.386 . S
C259 H271 0.930 . S
N260 C253 1.377 . S
N260 C261 1.321 . S
N260 Eu263 2.609 . S
C261 C259 1.400 . S
C261 N260 1.321 . S
C261 H268 0.930 . S
C262 C257 1.395 . S
C262 C259 1.386 . S
C262 H281 0.930 . S
Eu263 N260 2.609 . S
Eu263 N264 2.657 . S
Eu263 O297 2.380 . S
Eu263 O298 2.432 . S
Eu263 O302 2.558 . S
Eu263 O303 2.612 . S
Eu263 O305 2.339 . S
Eu263 O306 2.563 . S
Eu263 O307 2.419 . S
Eu263 C327 2.848 . S
N264 C256 1.362 . S
N264 Eu263 2.657 . S
N264 C265 1.334 . S
C265 N264 1.334 . S
C265 C267 1.413 . S
C265 H272 0.929 . S
C266 C254 1.392 . S
C266 C267 1.367 . S
C266 H274 0.930 . S
C267 C265 1.413 . S
C267 C266 1.367 . S
C267 H269 0.930 . S
H268 C261 0.930 . S
H269 C267 0.930 . S
H270 C258 0.930 . S
H271 C259 0.930 . S
H272 C265 0.929 . S
H273 C287 0.930 . S
H274 C266 0.930 . S
H275 C293 0.930 . S
H276 C284 0.929 . S
H277 C291 0.930 . S
H278 C255 0.931 . S
H279 C285 0.930 . S
H280 C318 0.930 . S
H281 C262 0.930 . S
H282 C317 0.931 . S
N283 Eu252 2.657 . S
N283 C284 1.334 . S
N283 C288 1.362 . S
C284 H276 0.929 . S
C284 N283 1.334 . S
C284 C287 1.413 . S
C285 H279 0.930 . S
C285 C286 1.392 . S
C285 C287 1.367 . S
C286 C285 1.392 . S
C286 C288 1.420 . S
C286 C318 1.423 . S
C287 H273 0.930 . S
C287 C284 1.413 . S
C287 C285 1.367 . S
C288 N283 1.362 . S
C288 C286 1.420 . S
C288 C292 1.429 . S
H289 C294 0.930 . S
N290 Eu252 2.609 . S
N290 C292 1.377 . S
N290 C293 1.321 . S
C291 H277 0.930 . S
C291 C293 1.400 . S
C291 C294 1.386 . S
C292 C288 1.429 . S
C292 N290 1.377 . S
C292 C295 1.411 . S
C293 H275 0.930 . S
C293 N290 1.321 . S
C293 C291 1.400 . S
C294 H289 0.930 . S
C294 C291 1.386 . S
C294 C295 1.395 . S
C295 C292 1.411 . S
C295 C294 1.395 . S
C295 C317 1.420 . S
O296 Eu252 2.558 . S
O296 C316 1.257 . S
O297 Eu252 2.612 . S
O297 Eu263 2.380 . S
O297 C308 1.276 . S
O298 Eu263 2.432 . S
O298 C315 1.264 . S
O299 Eu252 2.339 . S
O299 C315 1.254 . S
O300 Eu252 2.563 . S
O300 C308 1.235 . S
O301 Eu252 2.419 . S
O301 C316 1.249 . S
O302 Eu263 2.558 . S
O302 C327 1.257 . S
O303 Eu252 2.380 . S
O303 Eu263 2.612 . S
O303 C319 1.276 . S
O304 Eu252 2.432 . S
O304 C326 1.264 . S
O305 Eu263 2.339 . S
O305 C326 1.254 . S
O306 Eu263 2.563 . S
O306 C319 1.235 . S
O307 Eu263 2.419 . S
O307 C327 1.249 . S
C308 O297 1.276 . S
C308 O300 1.235 . S
C309 C311 1.393 . S
C309 C313 1.395 . S
C309 C316 1.492 . S
C310 C311 1.392 . S
C310 C312 1.386 1_565 S
C311 C309 1.393 . S
C311 C310 1.392 . S
C311 H328 0.930 . S
C312 C310 1.386 1_545 S
C312 C314 1.395 1_545 S
C312 H329 0.930 . S
C313 C309 1.395 . S
C313 C314 1.379 . S
C313 H330 0.930 . S
C314 C312 1.395 1_565 S
C314 C313 1.379 . S
C314 H331 0.930 1_565 S
C315 O298 1.264 . S
C315 O299 1.254 . S
C316 Eu252 2.848 . S
C316 O296 1.257 . S
C316 O301 1.249 . S
C316 C309 1.492 . S
C317 H282 0.931 . S
C317 C295 1.420 . S
C317 C318 1.351 . S
C318 H280 0.930 . S
C318 C286 1.423 . S
C318 C317 1.351 . S
C319 O303 1.276 . S
C319 O306 1.235 . S
C320 C321 1.393 . S
C320 C324 1.395 . S
C320 C327 1.492 . S
C321 C320 1.393 . S
C321 C322 1.392 . S
C321 H332 0.930 . S
C322 C321 1.392 . S
C322 C323 1.386 . S
C323 C322 1.386 . S
C323 C325 1.395 . S
C323 H333 0.930 . S
C324 C320 1.395 . S
C324 C325 1.379 . S
C324 H334 0.930 . S
C325 C323 1.395 . S
C325 C324 1.379 . S
C325 H335 0.930 . S
C326 O304 1.264 . S
C326 O305 1.254 . S
C327 Eu263 2.848 . S
C327 O302 1.257 . S
C327 O307 1.249 . S
C327 C320 1.492 . S
H328 C311 0.930 . S
H329 C312 0.930 . S
H330 C313 0.930 . S
H331 C314 0.930 1_545 S
H332 C321 0.930 . S
H333 C323 0.930 . S
H334 C324 0.930 . S
H335 C325 0.930 . S
Eu336 N367 2.657 . S
Eu336 N374 2.609 . S
Eu336 O380 2.558 . S
Eu336 O381 2.612 . S
Eu336 O383 2.339 . S
Eu336 O384 2.563 . S
Eu336 O385 2.419 . S
Eu336 O387 2.380 . S
Eu336 O388 2.432 . S
Eu336 C400 2.848 . S
C337 C340 1.429 . S
C337 C341 1.411 . S
C337 N344 1.377 . S
C338 C340 1.420 1_545 S
C338 C342 1.423 . S
C338 C350 1.392 . S
C339 C341 1.420 1_545 S
C339 C342 1.351 . S
C339 H362 0.931 . S
C340 C337 1.429 . S
C340 C338 1.420 1_565 S
C340 N348 1.362 . S
C341 C337 1.411 . S
C341 C339 1.420 1_565 S
C341 C346 1.395 . S
C342 C338 1.423 . S
C342 C339 1.351 . S
C342 H354 0.930 . S
C343 C345 1.400 . S
C343 C346 1.386 . S
C343 H355 0.930 . S
N344 C337 1.377 . S
N344 C345 1.321 . S
N344 Eu347 2.609 . S
C345 C343 1.400 . S
C345 N344 1.321 . S
C345 H352 0.930 . S
C346 C341 1.395 . S
C346 C343 1.386 . S
C346 H365 0.930 1_565 S
Eu347 N344 2.609 . S
Eu347 N348 2.657 . S
Eu347 O381 2.380 . S
Eu347 O382 2.432 . S
Eu347 O386 2.558 . S
Eu347 O387 2.612 . S
Eu347 O389 2.339 . S
Eu347 O390 2.563 . S
Eu347 O391 2.419 . S
Eu347 C411 2.848 . S
N348 C340 1.362 . S
N348 Eu347 2.657 . S
N348 C349 1.334 . S
C349 N348 1.334 . S
C349 C351 1.413 . S
C349 H356 0.929 . S
C350 C338 1.392 . S
C350 C351 1.367 1_545 S
C350 H358 0.930 . S
C351 C349 1.413 . S
C351 C350 1.367 1_565 S
C351 H353 0.930 . S
H352 C345 0.930 . S
H353 C351 0.930 . S
H354 C342 0.930 . S
H355 C343 0.930 . S
H356 C349 0.929 . S
H357 C371 0.930 . S
H358 C350 0.930 . S
H359 C377 0.930 . S
H360 C368 0.929 . S
H361 C375 0.930 . S
H362 C339 0.931 . S
H363 C369 0.930 . S
H364 C402 0.930 . S
H365 C346 0.930 1_545 S
H366 C401 0.931 . S
N367 Eu336 2.657 . S
N367 C368 1.334 . S
N367 C372 1.362 . S
C368 H360 0.929 . S
C368 N367 1.334 . S
C368 C371 1.413 . S
C369 H363 0.930 . S
C369 C370 1.392 . S
C369 C371 1.367 . S
C370 C369 1.392 . S
C370 C372 1.420 . S
C370 C402 1.423 . S
C371 H357 0.930 . S
C371 C368 1.413 . S
C371 C369 1.367 . S
C372 N367 1.362 . S
C372 C370 1.420 . S
C372 C376 1.429 . S
H373 C378 0.930 . S
N374 Eu336 2.609 . S
N374 C376 1.377 . S
N374 C377 1.321 . S
C375 H361 0.930 . S
C375 C377 1.400 . S
C375 C378 1.386 . S
C376 C372 1.429 . S
C376 N374 1.377 . S
C376 C379 1.411 . S
C377 H359 0.930 . S
C377 N374 1.321 . S
C377 C375 1.400 . S
C378 H373 0.930 . S
C378 C375 1.386 . S
C378 C379 1.395 . S
C379 C376 1.411 . S
C379 C378 1.395 . S
C379 C401 1.420 . S
O380 Eu336 2.558 . S
O380 C400 1.257 . S
O381 Eu336 2.612 . S
O381 Eu347 2.380 . S
O381 C392 1.276 . S
O382 Eu347 2.432 . S
O382 C399 1.264 . S
O383 Eu336 2.339 . S
O383 C399 1.254 . S
O384 Eu336 2.563 . S
O384 C392 1.235 . S
O385 Eu336 2.419 . S
O385 C400 1.249 . S
O386 Eu347 2.558 . S
O386 C411 1.257 . S
O387 Eu336 2.380 . S
O387 Eu347 2.612 . S
O387 C403 1.276 . S
O388 Eu336 2.432 . S
O388 C410 1.264 . S
O389 Eu347 2.339 . S
O389 C410 1.254 . S
O390 Eu347 2.563 . S
O390 C403 1.235 . S
O391 Eu347 2.419 . S
O391 C411 1.249 . S
C392 O381 1.276 . S
C392 O384 1.235 . S
C393 C395 1.393 . S
C393 C397 1.395 . S
C393 C400 1.492 . S
C394 C395 1.392 . S
C394 C396 1.386 . S
C395 C393 1.393 . S
C395 C394 1.392 . S
C395 H412 0.930 . S
C396 C394 1.386 . S
C396 C398 1.395 . S
C396 H413 0.930 1_455 S
C397 C393 1.395 . S
C397 C398 1.379 . S
C397 H414 0.930 . S
C398 C396 1.395 . S
C398 C397 1.379 . S
C398 H415 0.930 . S
C399 O382 1.264 . S
C399 O383 1.254 . S
C400 Eu336 2.848 . S
C400 O380 1.257 . S
C400 O385 1.249 . S
C400 C393 1.492 . S
C401 H366 0.931 . S
C401 C379 1.420 . S
C401 C402 1.351 . S
C402 H364 0.930 . S
C402 C370 1.423 . S
C402 C401 1.351 . S
C403 O387 1.276 . S
C403 O390 1.235 . S
C404 C405 1.393 . S
C404 C408 1.395 . S
C404 C411 1.492 . S
C405 C404 1.393 . S
C405 C406 1.392 . S
C405 H416 0.930 . S
C406 C405 1.392 . S
C406 C407 1.386 . S
C407 C406 1.386 . S
C407 C409 1.395 . S
C407 H417 0.930 . S
C408 C404 1.395 . S
C408 C409 1.379 . S
C408 H418 0.930 . S
C409 C407 1.395 . S
C409 C408 1.379 . S
C409 H419 0.930 . S
C410 O388 1.264 . S
C410 O389 1.254 . S
C411 Eu347 2.848 . S
C411 O386 1.257 . S
C411 O391 1.249 . S
C411 C404 1.492 . S
H412 C395 0.930 . S
H413 C396 0.930 1_655 S
H414 C397 0.930 . S
H415 C398 0.930 . S
H416 C405 0.930 . S
H417 C407 0.930 . S
H418 C408 0.930 . S
H419 C409 0.930 . S
Eu420 N451 2.657 . S
Eu420 N458 2.609 . S
Eu420 O464 2.558 . S
Eu420 O465 2.612 . S
Eu420 O467 2.339 . S
Eu420 O468 2.563 . S
Eu420 O469 2.419 . S
Eu420 O471 2.380 . S
Eu420 O472 2.432 . S
Eu420 C484 2.848 . S
C421 C424 1.429 . S
C421 C425 1.411 . S
C421 N428 1.377 . S
C422 C424 1.420 . S
C422 C426 1.423 1_455 S
C422 C434 1.392 . S
C423 C425 1.420 1_655 S
C423 C426 1.351 . S
C423 H446 0.931 . S
C424 C421 1.429 . S
C424 C422 1.420 . S
C424 N432 1.362 . S
C425 C421 1.411 . S
C425 C423 1.420 1_455 S
C425 C430 1.395 . S
C426 C422 1.423 1_655 S
C426 C423 1.351 . S
C426 H438 0.930 . S
C427 C429 1.400 . S
C427 C430 1.386 . S
C427 H439 0.930 . S
N428 C421 1.377 . S
N428 C429 1.321 . S
N428 Eu431 2.609 . S
C429 C427 1.400 . S
C429 N428 1.321 . S
C429 H436 0.930 . S
C430 C425 1.395 . S
C430 C427 1.386 . S
C430 H449 0.930 . S
Eu431 N428 2.609 . S
Eu431 N432 2.657 . S
Eu431 O465 2.380 . S
Eu431 O466 2.432 . S
Eu431 O470 2.558 . S
Eu431 O471 2.612 . S
Eu431 O473 2.339 . S
Eu431 O474 2.563 . S
Eu431 O475 2.419 . S
Eu431 C495 2.848 . S
N432 C424 1.362 . S
N432 Eu431 2.657 . S
N432 C433 1.334 . S
C433 N432 1.334 . S
C433 C435 1.413 . S
C433 H440 0.929 . S
C434 C422 1.392 . S
C434 C435 1.367 . S
C434 H442 0.930 1_455 S
C435 C433 1.413 . S
C435 C434 1.367 . S
C435 H437 0.930 . S
H436 C429 0.930 . S
H437 C435 0.930 . S
H438 C426 0.930 . S
H439 C427 0.930 . S
H440 C433 0.929 . S
H441 C455 0.930 . S
H442 C434 0.930 1_655 S
H443 C461 0.930 . S
H444 C452 0.929 . S
H445 C459 0.930 . S
H446 C423 0.931 . S
H447 C453 0.930 . S
H448 C486 0.930 . S
H449 C430 0.930 . S
H450 C485 0.931 . S
N451 Eu420 2.657 . S
N451 C452 1.334 . S
N451 C456 1.362 . S
C452 H444 0.929 . S
C452 N451 1.334 . S
C452 C455 1.413 . S
C453 H447 0.930 . S
C453 C454 1.392 . S
C453 C455 1.367 . S
C454 C453 1.392 . S
C454 C456 1.420 . S
C454 C486 1.423 . S
C455 H441 0.930 . S
C455 C452 1.413 . S
C455 C453 1.367 . S
C456 N451 1.362 . S
C456 C454 1.420 . S
C456 C460 1.429 . S
H457 C462 0.930 . S
N458 Eu420 2.609 . S
N458 C460 1.377 . S
N458 C461 1.321 . S
C459 H445 0.930 . S
C459 C461 1.400 . S
C459 C462 1.386 . S
C460 C456 1.429 . S
C460 N458 1.377 . S
C460 C463 1.411 . S
C461 H443 0.930 . S
C461 N458 1.321 . S
C461 C459 1.400 . S
C462 H457 0.930 . S
C462 C459 1.386 . S
C462 C463 1.395 . S
C463 C460 1.411 . S
C463 C462 1.395 . S
C463 C485 1.420 . S
O464 Eu420 2.558 . S
O464 C484 1.257 . S
O465 Eu420 2.612 . S
O465 Eu431 2.380 . S
O465 C476 1.276 . S
O466 Eu431 2.432 . S
O466 C483 1.264 . S
O467 Eu420 2.339 . S
O467 C483 1.254 . S
O468 Eu420 2.563 . S
O468 C476 1.235 . S
O469 Eu420 2.419 . S
O469 C484 1.249 . S
O470 Eu431 2.558 . S
O470 C495 1.257 . S
O471 Eu420 2.380 . S
O471 Eu431 2.612 . S
O471 C487 1.276 . S
O472 Eu420 2.432 . S
O472 C494 1.264 . S
O473 Eu431 2.339 . S
O473 C494 1.254 . S
O474 Eu431 2.563 . S
O474 C487 1.235 . S
O475 Eu431 2.419 . S
O475 C495 1.249 . S
C476 O465 1.276 . S
C476 O468 1.235 . S
C477 C479 1.393 . S
C477 C481 1.395 . S
C477 C484 1.492 . S
C478 C479 1.392 . S
C478 C480 1.386 . S
C479 C477 1.393 . S
C479 C478 1.392 . S
C479 H496 0.930 . S
C480 C478 1.386 . S
C480 C482 1.395 . S
C480 H497 0.930 . S
C481 C477 1.395 . S
C481 C482 1.379 . S
C481 H498 0.930 . S
C482 C480 1.395 . S
C482 C481 1.379 . S
C482 H499 0.930 . S
C483 O466 1.264 . S
C483 O467 1.254 . S
C484 Eu420 2.848 . S
C484 O464 1.257 . S
C484 O469 1.249 . S
C484 C477 1.492 . S
C485 H450 0.931 . S
C485 C463 1.420 . S
C485 C486 1.351 . S
C486 H448 0.930 . S
C486 C454 1.423 . S
C486 C485 1.351 . S
C487 O471 1.276 . S
C487 O474 1.235 . S
C488 C489 1.393 . S
C488 C492 1.395 . S
C488 C495 1.492 . S
C489 C488 1.393 . S
C489 C490 1.392 . S
C489 H500 0.930 . S
C490 C489 1.392 . S
C490 C491 1.386 . S
C491 C490 1.386 . S
C491 C493 1.395 . S
C491 H501 0.930 . S
C492 C488 1.395 . S
C492 C493 1.379 . S
C492 H502 0.930 . S
C493 C491 1.395 . S
C493 C492 1.379 . S
C493 H503 0.930 . S
C494 O472 1.264 . S
C494 O473 1.254 . S
C495 Eu431 2.848 . S
C495 O470 1.257 . S
C495 O475 1.249 . S
C495 C488 1.492 . S
H496 C479 0.930 . S
H497 C480 0.930 . S
H498 C481 0.930 . S
H499 C482 0.930 . S
H500 C489 0.930 . S
H501 C491 0.930 . S
H502 C492 0.930 . S
H503 C493 0.930 . S
Eu504 N535 2.657 . S
Eu504 N542 2.609 . S
Eu504 O548 2.558 . S
Eu504 O549 2.612 . S
Eu504 O551 2.339 . S
Eu504 O552 2.563 . S
Eu504 O553 2.419 . S
Eu504 O555 2.380 . S
Eu504 O556 2.432 . S
Eu504 C568 2.848 . S
C505 C508 1.429 . S
C505 C509 1.411 . S
C505 N512 1.377 . S
C506 C508 1.420 . S
C506 C510 1.423 . S
C506 C518 1.392 . S
C507 C509 1.420 . S
C507 C510 1.351 . S
C507 H530 0.931 1_545 S
C508 C505 1.429 . S
C508 C506 1.420 . S
C508 N516 1.362 . S
C509 C505 1.411 . S
C509 C507 1.420 . S
C509 C514 1.395 . S
C510 C506 1.423 . S
C510 C507 1.351 . S
C510 H522 0.930 . S
C511 C513 1.400 . S
C511 C514 1.386 . S
C511 H523 0.930 . S
N512 C505 1.377 . S
N512 C513 1.321 . S
N512 Eu515 2.609 . S
C513 C511 1.400 . S
C513 N512 1.321 . S
C513 H520 0.930 . S
C514 C509 1.395 . S
C514 C511 1.386 . S
C514 H533 0.930 . S
Eu515 N512 2.609 . S
Eu515 N516 2.657 . S
Eu515 O549 2.380 . S
Eu515 O550 2.432 . S
Eu515 O554 2.558 . S
Eu515 O555 2.612 . S
Eu515 O557 2.339 . S
Eu515 O558 2.563 . S
Eu515 O559 2.419 . S
Eu515 C579 2.848 . S
N516 C508 1.362 . S
N516 Eu515 2.657 . S
N516 C517 1.334 . S
C517 N516 1.334 . S
C517 C519 1.413 . S
C517 H524 0.929 . S
C518 C506 1.392 . S
C518 C519 1.367 . S
C518 H526 0.930 . S
C519 C517 1.413 . S
C519 C518 1.367 . S
C519 H521 0.930 . S
H520 C513 0.930 . S
H521 C519 0.930 . S
H522 C510 0.930 . S
H523 C511 0.930 . S
H524 C517 0.929 . S
H525 C539 0.930 . S
H526 C518 0.930 . S
H527 C545 0.930 . S
H528 C536 0.929 . S
H529 C543 0.930 . S
H530 C507 0.931 1_565 S
H531 C537 0.930 . S
H532 C570 0.930 . S
H533 C514 0.930 . S
H534 C569 0.931 . S
N535 Eu504 2.657 . S
N535 C536 1.334 . S
N535 C540 1.362 . S
C536 H528 0.929 . S
C536 N535 1.334 . S
C536 C539 1.413 . S
C537 H531 0.930 . S
C537 C538 1.392 . S
C537 C539 1.367 . S
C538 C537 1.392 . S
C538 C540 1.420 . S
C538 C570 1.423 . S
C539 H525 0.930 . S
C539 C536 1.413 . S
C539 C537 1.367 . S
C540 N535 1.362 . S
C540 C538 1.420 . S
C540 C544 1.429 . S
H541 C546 0.930 . S
N542 Eu504 2.609 . S
N542 C544 1.377 . S
N542 C545 1.321 . S
C543 H529 0.930 . S
C543 C545 1.400 . S
C543 C546 1.386 . S
C544 C540 1.429 . S
C544 N542 1.377 . S
C544 C547 1.411 . S
C545 H527 0.930 . S
C545 N542 1.321 . S
C545 C543 1.400 . S
C546 H541 0.930 . S
C546 C543 1.386 . S
C546 C547 1.395 . S
C547 C544 1.411 . S
C547 C546 1.395 . S
C547 C569 1.420 . S
O548 Eu504 2.558 . S
O548 C568 1.257 . S
O549 Eu504 2.612 . S
O549 Eu515 2.380 . S
O549 C560 1.276 . S
O550 Eu515 2.432 . S
O550 C567 1.264 . S
O551 Eu504 2.339 . S
O551 C567 1.254 . S
O552 Eu504 2.563 . S
O552 C560 1.235 . S
O553 Eu504 2.419 . S
O553 C568 1.249 . S
O554 Eu515 2.558 . S
O554 C579 1.257 . S
O555 Eu504 2.380 . S
O555 Eu515 2.612 . S
O555 C571 1.276 . S
O556 Eu504 2.432 . S
O556 C578 1.264 . S
O557 Eu515 2.339 . S
O557 C578 1.254 . S
O558 Eu515 2.563 . S
O558 C571 1.235 . S
O559 Eu515 2.419 . S
O559 C579 1.249 . S
C560 O549 1.276 . S
C560 O552 1.235 . S
C561 C563 1.393 . S
C561 C565 1.395 . S
C561 C568 1.492 . S
C562 C563 1.392 . S
C562 C564 1.386 . S
C563 C561 1.393 . S
C563 C562 1.392 . S
C563 H580 0.930 . S
C564 C562 1.386 . S
C564 C566 1.395 . S
C564 H581 0.930 . S
C565 C561 1.395 . S
C565 C566 1.379 . S
C565 H582 0.930 . S
C566 C564 1.395 . S
C566 C565 1.379 . S
C566 H583 0.930 . S
C567 O550 1.264 . S
C567 O551 1.254 . S
C568 Eu504 2.848 . S
C568 O548 1.257 . S
C568 O553 1.249 . S
C568 C561 1.492 . S
C569 H534 0.931 . S
C569 C547 1.420 . S
C569 C570 1.351 . S
C570 H532 0.930 . S
C570 C538 1.423 . S
C570 C569 1.351 . S
C571 O555 1.276 . S
C571 O558 1.235 . S
C572 C573 1.393 1_545 S
C572 C576 1.395 1_545 S
C572 C579 1.492 . S
C573 C572 1.393 1_565 S
C573 C574 1.392 . S
C573 H584 0.930 1_565 S
C574 C573 1.392 . S
C574 C575 1.386 . S
C575 C574 1.386 . S
C575 C577 1.395 . S
C575 H585 0.930 . S
C576 C572 1.395 1_565 S
C576 C577 1.379 . S
C576 H586 0.930 . S
C577 C575 1.395 . S
C577 C576 1.379 . S
C577 H587 0.930 . S
C578 O556 1.264 . S
C578 O557 1.254 . S
C579 Eu515 2.848 . S
C579 O554 1.257 . S
C579 O559 1.249 . S
C579 C572 1.492 . S
H580 C563 0.930 . S
H581 C564 0.930 . S
H582 C565 0.930 . S
H583 C566 0.930 . S
H584 C573 0.930 1_545 S
H585 C575 0.930 . S
H586 C576 0.930 . S
H587 C577 0.930 . S
Eu588 N619 2.657 . S
Eu588 N626 2.609 . S
Eu588 O632 2.558 . S
Eu588 O633 2.612 . S
Eu588 O635 2.339 . S
Eu588 O636 2.563 . S
Eu588 O637 2.419 . S
Eu588 O639 2.380 . S
Eu588 O640 2.432 . S
Eu588 C652 2.848 . S
C589 C592 1.429 . S
C589 C593 1.411 . S
C589 N596 1.377 . S
C590 C592 1.420 . S
C590 C594 1.416 1_655 S
C590 C602 1.392 . S
C591 C593 1.420 1_455 S
C591 C594 1.359 . S
C591 H614 0.931 . S
C592 C589 1.429 . S
C592 C590 1.420 . S
C592 N600 1.362 . S
C593 C589 1.411 . S
C593 C591 1.420 1_655 S
C593 C598 1.395 . S
C594 C590 1.416 1_455 S
C594 C591 1.359 . S
C594 H606 0.930 . S
C595 C597 1.400 . S
C595 C598 1.386 . S
C595 H607 0.930 . S
N596 C589 1.377 . S
N596 C597 1.321 . S
N596 Eu599 2.609 . S
C597 C595 1.400 . S
C597 N596 1.321 . S
C597 H604 0.930 . S
C598 C593 1.395 . S
C598 C595 1.386 . S
C598 H617 0.930 1_655 S
Eu599 N596 2.609 . S
Eu599 N600 2.657 . S
Eu599 O633 2.380 . S
Eu599 O634 2.432 . S
Eu599 O638 2.558 . S
Eu599 O639 2.612 . S
Eu599 O641 2.339 . S
Eu599 O642 2.563 . S
Eu599 O643 2.419 . S
Eu599 C663 2.848 . S
N600 C592 1.362 . S
N600 Eu599 2.657 . S
N600 C601 1.334 . S
C601 N600 1.334 . S
C601 C603 1.413 . S
C601 H608 0.929 . S
C602 C590 1.392 . S
C602 C603 1.367 . S
C602 H610 0.930 . S
C603 C601 1.413 . S
C603 C602 1.367 . S
C603 H605 0.930 . S
H604 C597 0.930 . S
H605 C603 0.930 . S
H606 C594 0.930 . S
H607 C595 0.930 . S
H608 C601 0.929 . S
H609 C623 0.930 . S
H610 C602 0.930 . S
H611 C629 0.930 . S
H612 C620 0.929 . S
H613 C627 0.930 . S
H614 C591 0.931 . S
H615 C621 0.930 . S
H616 C654 0.930 . S
H617 C598 0.930 1_455 S
H618 C653 0.931 . S
N619 Eu588 2.657 . S
N619 C620 1.334 . S
N619 C624 1.362 . S
C620 H612 0.929 . S
C620 N619 1.334 . S
C620 C623 1.413 . S
C621 H615 0.930 . S
C621 C622 1.392 . S
C621 C623 1.367 . S
C622 C621 1.392 . S
C622 C624 1.420 . S
C622 C654 1.423 . S
C623 H609 0.930 . S
C623 C620 1.413 . S
C623 C621 1.367 . S
C624 N619 1.362 . S
C624 C622 1.420 . S
C624 C628 1.429 . S
H625 C630 0.930 . S
N626 Eu588 2.609 . S
N626 C628 1.377 . S
N626 C629 1.321 . S
C627 H613 0.930 . S
C627 C629 1.400 . S
C627 C630 1.386 . S
C628 C624 1.429 . S
C628 N626 1.377 . S
C628 C631 1.411 . S
C629 H611 0.930 . S
C629 N626 1.321 . S
C629 C627 1.400 . S
C630 H625 0.930 . S
C630 C627 1.386 . S
C630 C631 1.395 . S
C631 C628 1.411 . S
C631 C630 1.395 . S
C631 C653 1.420 . S
O632 Eu588 2.558 . S
O632 C652 1.257 . S
O633 Eu588 2.612 . S
O633 Eu599 2.380 . S
O633 C644 1.276 . S
O634 Eu599 2.432 . S
O634 C651 1.264 . S
O635 Eu588 2.339 . S
O635 C651 1.254 . S
O636 Eu588 2.563 . S
O636 C644 1.235 . S
O637 Eu588 2.419 . S
O637 C652 1.249 . S
O638 Eu599 2.558 . S
O638 C663 1.257 . S
O639 Eu588 2.380 . S
O639 Eu599 2.612 . S
O639 C655 1.276 . S
O640 Eu588 2.432 . S
O640 C662 1.264 . S
O641 Eu599 2.339 . S
O641 C662 1.254 . S
O642 Eu599 2.563 . S
O642 C655 1.235 . S
O643 Eu599 2.419 . S
O643 C663 1.249 . S
C644 O633 1.276 . S
C644 O636 1.235 . S
C645 C647 1.393 . S
C645 C649 1.395 . S
C645 C652 1.492 . S
C646 C647 1.392 . S
C646 C648 1.386 . S
C647 C645 1.393 . S
C647 C646 1.392 . S
C647 H664 0.930 . S
C648 C646 1.386 . S
C648 C650 1.395 . S
C648 H665 0.930 . S
C649 C645 1.395 . S
C649 C650 1.379 . S
C649 H666 0.930 . S
C650 C648 1.395 . S
C650 C649 1.379 . S
C650 H667 0.930 . S
C651 O634 1.264 . S
C651 O635 1.254 . S
C652 Eu588 2.848 . S
C652 O632 1.257 . S
C652 O637 1.249 . S
C652 C645 1.492 . S
C653 H618 0.931 . S
C653 C631 1.420 . S
C653 C654 1.351 . S
C654 H616 0.930 . S
C654 C622 1.423 . S
C654 C653 1.351 . S
C655 O639 1.276 . S
C655 O642 1.235 . S
C656 C657 1.393 . S
C656 C660 1.395 . S
C656 C663 1.492 1_455 S
C657 C656 1.393 . S
C657 C658 1.392 . S
C657 H668 0.930 . S
C658 C657 1.392 . S
C658 C659 1.386 . S
C659 C658 1.386 . S
C659 C661 1.395 . S
C659 H669 0.930 . S
C660 C656 1.395 . S
C660 C661 1.379 . S
C660 H670 0.930 . S
C661 C659 1.395 . S
C661 C660 1.379 . S
C661 H671 0.930 . S
C662 O640 1.264 . S
C662 O641 1.254 . S
C663 Eu599 2.848 . S
C663 O638 1.257 . S
C663 O643 1.249 . S
C663 C656 1.492 1_655 S
H664 C647 0.930 . S
H665 C648 0.930 . S
H666 C649 0.930 . S
H667 C650 0.930 . S
H668 C657 0.930 . S
H669 C659 0.930 . S
H670 C660 0.930 . S
H671 C661 0.930 . S
Eu672 N703 2.657 . S
Eu672 N710 2.609 . S
Eu672 O716 2.558 . S
Eu672 O717 2.612 . S
Eu672 O719 2.339 . S
Eu672 O720 2.563 . S
Eu672 O721 2.419 . S
Eu672 O723 2.380 . S
Eu672 O724 2.432 . S
Eu672 C736 2.848 . S
C673 C676 1.429 . S
C673 C677 1.411 . S
C673 N680 1.377 . S
C674 C676 1.420 . S
C674 C678 1.423 . S
C674 C686 1.392 . S
C675 C677 1.420 . S
C675 C678 1.351 . S
C675 H698 0.931 . S
C676 C673 1.429 . S
C676 C674 1.420 . S
C676 N684 1.362 . S
C677 C673 1.411 . S
C677 C675 1.420 . S
C677 C682 1.395 . S
C678 C674 1.423 . S
C678 C675 1.351 . S
C678 H690 0.930 . S
C679 C681 1.400 . S
C679 C682 1.386 . S
C679 H691 0.930 . S
N680 C673 1.377 . S
N680 C681 1.321 . S
N680 Eu683 2.609 . S
C681 C679 1.400 . S
C681 N680 1.321 . S
C681 H688 0.930 . S
C682 C677 1.395 . S
C682 C679 1.386 . S
C682 H701 0.930 . S
Eu683 N680 2.609 . S
Eu683 N684 2.657 . S
Eu683 O717 2.380 . S
Eu683 O718 2.432 . S
Eu683 O722 2.558 . S
Eu683 O723 2.612 . S
Eu683 O725 2.339 . S
Eu683 O726 2.563 . S
Eu683 O727 2.419 . S
Eu683 C747 2.848 . S
N684 C676 1.362 . S
N684 Eu683 2.657 . S
N684 C685 1.334 . S
C685 N684 1.334 . S
C685 C687 1.413 . S
C685 H692 0.929 . S
C686 C674 1.392 . S
C686 C687 1.367 . S
C686 H694 0.930 . S
C687 C685 1.413 . S
C687 C686 1.367 . S
C687 H689 0.930 . S
H688 C681 0.930 . S
H689 C687 0.930 . S
H690 C678 0.930 . S
H691 C679 0.930 . S
H692 C685 0.929 . S
H693 C707 0.930 . S
H694 C686 0.930 . S
H695 C713 0.930 . S
H696 C704 0.929 . S
H697 C711 0.930 . S
H698 C675 0.931 . S
H699 C705 0.930 . S
H700 C738 0.935 . S
H701 C682 0.930 . S
H702 C737 0.931 . S
N703 Eu672 2.657 . S
N703 C704 1.334 . S
N703 C708 1.362 . S
C704 H696 0.929 . S
C704 N703 1.334 . S
C704 C707 1.413 . S
C705 H699 0.930 . S
C705 C706 1.392 . S
C705 C707 1.367 . S
C706 C705 1.392 . S
C706 C708 1.420 . S
C706 C738 1.423 . S
C707 H693 0.930 . S
C707 C704 1.413 . S
C707 C705 1.367 . S
C708 N703 1.362 . S
C708 C706 1.420 . S
C708 C712 1.429 . S
H709 C714 0.930 . S
N710 Eu672 2.609 . S
N710 C712 1.377 . S
N710 C713 1.321 . S
C711 H697 0.930 . S
C711 C713 1.400 . S
C711 C714 1.386 . S
C712 C708 1.429 . S
C712 N710 1.377 . S
C712 C715 1.411 . S
C713 H695 0.930 . S
C713 N710 1.321 . S
C713 C711 1.400 . S
C714 H709 0.930 . S
C714 C711 1.386 . S
C714 C715 1.395 . S
C715 C712 1.411 . S
C715 C714 1.395 . S
C715 C737 1.420 . S
O716 Eu672 2.558 . S
O716 C736 1.257 . S
O717 Eu672 2.612 . S
O717 Eu683 2.380 . S
O717 C728 1.276 . S
O718 Eu683 2.432 . S
O718 C735 1.264 . S
O719 Eu672 2.339 . S
O719 C735 1.254 . S
O720 Eu672 2.563 . S
O720 C728 1.235 . S
O721 Eu672 2.419 . S
O721 C736 1.249 . S
O722 Eu683 2.558 . S
O722 C747 1.257 . S
O723 Eu672 2.380 . S
O723 Eu683 2.612 . S
O723 C739 1.276 . S
O724 Eu672 2.432 . S
O724 C746 1.264 . S
O725 Eu683 2.339 . S
O725 C746 1.254 . S
O726 Eu683 2.563 . S
O726 C739 1.235 . S
O727 Eu683 2.419 . S
O727 C747 1.249 . S
C728 O717 1.276 . S
C728 O720 1.235 . S
C729 C731 1.393 . S
C729 C733 1.395 . S
C729 C736 1.492 . S
C730 C731 1.392 . S
C730 C732 1.386 . S
C731 C729 1.393 . S
C731 C730 1.392 . S
C731 H748 0.930 . S
C732 C730 1.386 . S
C732 C734 1.395 . S
C732 H749 0.930 . S
C733 C729 1.395 . S
C733 C734 1.379 . S
C733 H750 0.930 . S
C734 C732 1.395 . S
C734 C733 1.379 . S
C734 H751 0.930 . S
C735 O718 1.264 . S
C735 O719 1.254 . S
C736 Eu672 2.848 . S
C736 O716 1.257 . S
C736 O721 1.249 . S
C736 C729 1.492 . S
C737 H702 0.931 . S
C737 C715 1.420 . S
C737 C738 1.351 . S
C738 H700 0.935 . S
C738 C706 1.423 . S
C738 C737 1.351 . S
C739 O723 1.276 . S
C739 O726 1.235 . S
C740 C741 1.393 . S
C740 C744 1.395 . S
C740 C747 1.492 . S
C741 C740 1.393 . S
C741 C742 1.392 . S
C741 H752 0.930 . S
C742 C741 1.392 . S
C742 C743 1.386 . S
C743 C742 1.386 . S
C743 C745 1.395 . S
C743 H753 0.930 . S
C744 C740 1.395 . S
C744 C745 1.379 . S
C744 H754 0.930 . S
C745 C743 1.395 . S
C745 C744 1.379 . S
C745 H755 0.930 . S
C746 O724 1.264 . S
C746 O725 1.254 . S
C747 Eu683 2.848 . S
C747 O722 1.257 . S
C747 O727 1.249 . S
C747 C740 1.492 . S
H748 C731 0.930 . S
H749 C732 0.930 . S
H750 C733 0.930 . S
H751 C734 0.930 . S
H752 C741 0.930 . S
H753 C743 0.930 . S
H754 C744 0.930 . S
H755 C745 0.930 . S
C756 C757 1.349 1_556 S
C756 C758 1.327 . S
C756 H781 0.950 . S
C757 C756 1.349 1_554 S
C757 C773 1.349 . S
C758 C756 1.327 . S
C758 C777 1.429 1_556 S
C758 H782 0.950 . S
C759 C776 1.574 . S
C759 C778 1.368 . S
C759 H783 0.949 . S
H760 C764 0.949 . S
C761 C762 1.349 . S
C761 C763 1.327 . S
C761 H784 0.950 . S
C762 C761 1.349 . S
C762 C774 1.349 1_554 S
C763 C761 1.327 . S
C763 C779 1.429 . S
C763 H785 0.950 . S
C764 H760 0.949 . S
C764 C772 1.574 . S
C764 C780 1.368 1_556 S
H765 C773 0.950 . S
H766 C771 0.950 . S
H767 C772 0.949 . S
H768 C774 0.950 . S
H769 C775 0.950 . S
H770 C776 0.949 . S
C771 H766 0.950 . S
C771 C773 1.327 . S
C771 C777 1.429 . S
C772 C764 1.574 . S
C772 H767 0.949 . S
C772 C778 1.368 1_556 S
C773 C757 1.349 . S
C773 H765 0.950 . S
C773 C771 1.327 . S
C774 C762 1.349 1_556 S
C774 H768 0.950 . S
C774 C775 1.327 . S
C775 H769 0.950 . S
C775 C774 1.327 . S
C775 C779 1.429 1_556 S
C776 C759 1.574 . S
C776 H770 0.949 . S
C776 C780 1.368 . S
C777 C758 1.429 1_554 S
C777 C771 1.429 . S
C777 C778 1.523 . S
C778 C759 1.368 . S
C778 C772 1.368 1_554 S
C778 C777 1.523 . S
C779 C763 1.429 . S
C779 C775 1.429 1_554 S
C779 C780 1.523 . S
C780 C764 1.368 1_554 S
C780 C776 1.368 . S
C780 C779 1.523 . S
H781 C756 0.950 . S
H782 C758 0.950 . S
H783 C759 0.949 . S
H784 C761 0.950 . S
H785 C763 0.950 . S
C786 C787 1.349 . S
C786 C788 1.327 . S
C786 H811 0.950 . S
C787 C786 1.349 . S
C787 C803 1.349 1_554 S
C788 C786 1.327 . S
C788 C807 1.429 . S
C788 H812 0.950 . S
C789 C806 1.574 . S
C789 C808 1.368 1_556 S
C789 H813 0.949 . S
H790 C794 0.949 . S
C791 C792 1.349 1_556 S
C791 C793 1.327 . S
C791 H814 0.950 . S
C792 C791 1.349 1_554 S
C792 C804 1.349 . S
C793 C791 1.327 . S
C793 C809 1.429 1_556 S
C793 H815 0.950 . S
C794 H790 0.949 . S
C794 C802 1.574 . S
C794 C810 1.368 . S
H795 C803 0.950 . S
H796 C801 0.950 . S
H797 C802 0.949 . S
H798 C804 0.950 . S
H799 C805 0.950 . S
H800 C806 0.949 . S
C801 H796 0.950 . S
C801 C803 1.327 . S
C801 C807 1.429 1_556 S
C802 C794 1.574 . S
C802 H797 0.949 . S
C802 C808 1.368 . S
C803 C787 1.349 1_556 S
C803 H795 0.950 . S
C803 C801 1.327 . S
C804 C792 1.349 . S
C804 H798 0.950 . S
C804 C805 1.327 . S
C805 H799 0.950 . S
C805 C804 1.327 . S
C805 C809 1.429 . S
C806 C789 1.574 . S
C806 H800 0.949 . S
C806 C810 1.368 1_556 S
C807 C788 1.429 . S
C807 C801 1.429 1_554 S
C807 C808 1.523 . S
C808 C789 1.368 1_554 S
C808 C802 1.368 . S
C808 C807 1.523 . S
C809 C793 1.429 1_554 S
C809 C805 1.429 . S
C809 C810 1.523 . S
C810 C794 1.368 . S
C810 C806 1.368 1_554 S
C810 C809 1.523 . S
H811 C786 0.950 . S
H812 C788 0.950 . S
H813 C789 0.949 . S
H814 C791 0.950 . S
H815 C793 0.950 . S
C816 C817 1.349 1_556 S
C816 C818 1.327 . S
C816 H841 0.950 . S
C817 C816 1.349 1_554 S
C817 C833 1.349 . S
C818 C816 1.327 . S
C818 C837 1.429 1_556 S
C818 H842 0.950 . S
C819 C836 1.574 . S
C819 C838 1.368 . S
C819 H843 0.949 . S
H820 C824 0.949 . S
C821 C822 1.349 . S
C821 C823 1.327 . S
C821 H844 0.950 . S
C822 C821 1.349 . S
C822 C834 1.341 1_554 S
C823 C821 1.327 . S
C823 C839 1.429 . S
C823 H845 0.950 . S
C824 H820 0.949 . S
C824 C832 1.574 . S
C824 C840 1.368 1_556 S
H825 C833 0.950 . S
H826 C831 0.950 . S
H827 C832 0.949 . S
H828 C834 0.957 . S
H829 C835 0.950 . S
H830 C836 0.949 . S
C831 H826 0.950 . S
C831 C833 1.327 . S
C831 C837 1.429 . S
C832 C824 1.574 . S
C832 H827 0.949 . S
C832 C838 1.368 1_556 S
C833 C817 1.349 . S
C833 H825 0.950 . S
C833 C831 1.327 . S
C834 C822 1.341 1_556 S
C834 H828 0.957 . S
C834 C835 1.328 . S
C835 H829 0.950 . S
C835 C834 1.328 . S
C835 C839 1.429 1_556 S
C836 C819 1.574 . S
C836 H830 0.949 . S
C836 C840 1.368 . S
C837 C818 1.429 1_554 S
C837 C831 1.429 . S
C837 C838 1.523 . S
C838 C819 1.368 . S
C838 C832 1.368 1_554 S
C838 C837 1.523 . S
C839 C823 1.429 . S
C839 C835 1.429 1_554 S
C839 C840 1.523 . S
C840 C824 1.368 1_554 S
C840 C836 1.368 . S
C840 C839 1.523 . S
H841 C816 0.950 . S
H842 C818 0.950 . S
H843 C819 0.949 . S
H844 C821 0.950 . S
H845 C823 0.950 . S
C846 C847 1.349 1_554 S
C846 C848 1.327 . S
C846 H871 0.950 . S
C847 C846 1.349 1_556 S
C847 C863 1.349 . S
C848 C846 1.327 . S
C848 C867 1.429 1_554 S
C848 H872 0.950 . S
C849 C866 1.574 . S
C849 C868 1.368 . S
C849 H873 0.949 . S
H850 C854 0.949 . S
C851 C852 1.349 1_556 S
C851 C853 1.327 . S
C851 H874 0.950 . S
C852 C851 1.349 1_554 S
C852 C864 1.349 . S
C853 C851 1.327 . S
C853 C869 1.446 . S
C853 H875 0.950 . S
C854 H850 0.949 . S
C854 C862 1.574 . S
C854 C870 1.368 1_554 S
H855 C863 0.950 . S
H856 C861 0.950 . S
H857 C862 0.949 . S
H858 C864 0.950 . S
H859 C865 0.950 . S
H860 C866 0.949 . S
C861 H856 0.950 . S
C861 C863 1.327 . S
C861 C867 1.429 . S
C862 C854 1.574 . S
C862 H857 0.949 . S
C862 C868 1.368 1_554 S
C863 C847 1.349 . S
C863 H855 0.950 . S
C863 C861 1.327 . S
C864 C852 1.349 . S
C864 H858 0.950 . S
C864 C865 1.327 . S
C865 H859 0.950 . S
C865 C864 1.327 . S
C865 C869 1.410 1_554 S
C866 C849 1.574 . S
C866 H860 0.949 . S
C866 C870 1.368 . S
C867 C848 1.429 1_556 S
C867 C861 1.429 . S
C867 C868 1.523 . S
C868 C849 1.368 . S
C868 C862 1.368 1_556 S
C868 C867 1.523 . S
C869 C853 1.446 . S
C869 C865 1.410 1_556 S
C869 C870 1.526 . S
C870 C854 1.368 1_556 S
C870 C866 1.368 . S
C870 C869 1.526 . S
H871 C846 0.950 . S
H872 C848 0.950 . S
H873 C849 0.949 . S
H874 C851 0.950 . S
H875 C853 0.950 . S
C876 C877 1.349 . S
C876 C878 1.327 . S
C876 H901 0.950 . S
C877 C876 1.349 . S
C877 C893 1.349 1_554 S
C878 C876 1.327 . S
C878 C897 1.402 1_554 S
C878 H902 0.950 . S
C879 C896 1.574 . S
C879 C898 1.368 . S
C879 H903 0.949 . S
H880 C884 0.949 . S
C881 C882 1.349 . S
C881 C883 1.327 . S
C881 H904 0.950 . S
C882 C881 1.349 . S
C882 C894 1.349 1_556 S
C883 C881 1.327 . S
C883 C899 1.429 . S
C883 H905 0.950 . S
C884 H880 0.949 . S
C884 C892 1.574 . S
C884 C900 1.368 1_554 S
H885 C893 0.950 . S
H886 C891 0.950 . S
H887 C892 0.949 . S
H888 C894 0.950 . S
H889 C895 0.950 . S
H890 C896 0.949 . S
C891 H886 0.950 . S
C891 C893 1.327 . S
C891 C897 1.453 . S
C892 C884 1.574 . S
C892 H887 0.949 . S
C892 C898 1.368 1_554 S
C893 C877 1.349 1_556 S
C893 H885 0.950 . S
C893 C891 1.327 . S
C894 C882 1.349 1_554 S
C894 H888 0.950 . S
C894 C895 1.327 . S
C895 H889 0.950 . S
C895 C894 1.327 . S
C895 C899 1.429 1_554 S
C896 C879 1.574 . S
C896 H890 0.949 . S
C896 C900 1.368 . S
C897 C878 1.402 1_556 S
C897 C891 1.453 . S
C897 C898 1.526 . S
C898 C879 1.368 . S
C898 C892 1.368 1_556 S
C898 C897 1.526 . S
C899 C883 1.429 . S
C899 C895 1.429 1_556 S
C899 C900 1.523 . S
C900 C884 1.368 1_556 S
C900 C896 1.368 . S
C900 C899 1.523 . S
H901 C876 0.950 . S
H902 C878 0.950 . S
H903 C879 0.949 . S
H904 C881 0.950 . S
H905 C883 0.950 . S
C906 C907 1.349 1_556 S
C906 C908 1.327 . S
C906 H931 0.950 . S
C907 C906 1.349 1_554 S
C907 C923 1.349 . S
C908 C906 1.327 . S
C908 C927 1.445 . S
C908 H932 0.950 . S
C909 C926 1.574 . S
C909 C928 1.368 1_554 S
C909 H933 0.949 . S
H910 C914 0.949 . S
C911 C912 1.349 1_554 S
C911 C913 1.327 . S
C911 H934 0.950 . S
C912 C911 1.349 1_556 S
C912 C924 1.349 . S
C913 C911 1.327 . S
C913 C929 1.429 1_554 S
C913 H935 0.950 . S
C914 H910 0.949 . S
C914 C922 1.574 . S
C914 C930 1.368 . S
H915 C923 0.950 . S
H916 C921 0.950 . S
H917 C922 0.949 . S
H918 C924 0.950 . S
H919 C925 0.950 . S
H920 C926 0.949 . S
C921 H916 0.950 . S
C921 C923 1.327 . S
C921 C927 1.410 1_554 S
C922 C914 1.574 . S
C922 H917 0.949 . S
C922 C928 1.368 . S
C923 C907 1.349 . S
C923 H915 0.950 . S
C923 C921 1.327 . S
C924 C912 1.349 . S
C924 H918 0.950 . S
C924 C925 1.327 . S
C925 H919 0.950 . S
C925 C924 1.327 . S
C925 C929 1.429 . S
C926 C909 1.574 . S
C926 H920 0.949 . S
C926 C930 1.368 1_554 S
C927 C908 1.445 . S
C927 C921 1.410 1_556 S
C927 C928 1.526 . S
C928 C909 1.368 1_556 S
C928 C922 1.368 . S
C928 C927 1.526 . S
C929 C913 1.429 1_556 S
C929 C925 1.429 . S
C929 C930 1.523 . S
C930 C914 1.368 . S
C930 C926 1.368 1_556 S
C930 C929 1.523 . S
H931 C906 0.950 . S
H932 C908 0.950 . S
H933 C909 0.949 . S
H934 C911 0.950 . S
H935 C913 0.950 . S
C936 C937 1.349 . S
C936 C938 1.327 . S
C936 H961 0.950 . S
C937 C936 1.349 . S
C937 C953 1.349 . S
C938 C936 1.327 . S
C938 C957 1.429 . S
C938 H962 0.950 . S
C939 C956 1.574 . S
C939 C958 1.368 . S
C939 H963 0.949 . S
H940 C944 0.949 . S
C941 C942 1.344 1_655 S
C941 C943 1.335 . S
C941 H964 0.947 1_655 S
C942 C941 1.344 1_455 S
C942 C954 1.349 1_455 S
C943 C941 1.335 . S
C943 C959 1.429 . S
C943 H965 0.950 . S
C944 H940 0.949 . S
C944 C952 1.574 . S
C944 C960 1.368 . S
H945 C953 0.950 . S
H946 C951 0.950 . S
H947 C952 0.949 . S
H948 C954 0.950 1_455 S
H949 C955 0.950 . S
H950 C956 0.949 . S
C951 H946 0.950 . S
C951 C953 1.327 . S
C951 C957 1.429 . S
C952 C944 1.574 . S
C952 H947 0.949 . S
C952 C958 1.368 . S
C953 C937 1.349 . S
C953 H945 0.950 . S
C953 C951 1.327 . S
C954 C942 1.349 1_655 S
C954 H948 0.950 1_655 S
C954 C955 1.327 . S
C955 H949 0.950 . S
C955 C954 1.327 . S
C955 C959 1.429 . S
C956 C939 1.574 . S
C956 H950 0.949 . S
C956 C960 1.368 . S
C957 C938 1.429 . S
C957 C951 1.429 . S
C957 C958 1.523 . S
C958 C939 1.368 . S
C958 C952 1.368 . S
C958 C957 1.523 . S
C959 C943 1.429 . S
C959 C955 1.429 . S
C959 C960 1.523 . S
C960 C944 1.368 . S
C960 C956 1.368 . S
C960 C959 1.523 . S
H961 C936 0.950 . S
H962 C938 0.950 . S
H963 C939 0.949 . S
H964 C941 0.947 1_455 S
H965 C943 0.950 . S
C966 C967 1.349 . S
C966 C968 1.327 . S
C966 H991 0.950 . S
C967 C966 1.349 . S
C967 C983 1.349 . S
C968 C966 1.327 . S
C968 C987 1.429 . S
C968 H992 0.950 . S
C969 C986 1.574 . S
C969 C988 1.368 . S
C969 H993 0.949 . S
H970 C974 0.953 . S
C971 C972 1.349 . S
C971 C973 1.327 . S
C971 H994 0.950 . S
C972 C971 1.349 . S
C972 C984 1.349 . S
C973 C971 1.327 . S
C973 C989 1.429 . S
C973 H995 0.950 1_565 S
C974 H970 0.953 . S
C974 C982 1.574 . S
C974 C990 1.368 . S
H975 C983 0.950 . S
H976 C981 0.950 . S
H977 C982 0.949 . S
H978 C984 0.950 . S
H979 C985 0.950 . S
H980 C986 0.949 . S
C981 H976 0.950 . S
C981 C983 1.327 . S
C981 C987 1.429 . S
C982 C974 1.574 . S
C982 H977 0.949 . S
C982 C988 1.368 . S
C983 C967 1.349 . S
C983 H975 0.950 . S
C983 C981 1.327 . S
C984 C972 1.349 . S
C984 H978 0.950 . S
C984 C985 1.327 . S
C985 H979 0.950 . S
C985 C984 1.327 . S
C985 C989 1.429 . S
C986 C969 1.574 . S
C986 H980 0.949 . S
C986 C990 1.368 . S
C987 C968 1.429 . S
C987 C981 1.429 . S
C987 C988 1.523 . S
C988 C969 1.368 . S
C988 C982 1.368 . S
C988 C987 1.523 . S
C989 C973 1.429 . S
C989 C985 1.429 . S
C989 C990 1.523 1_565 S
C990 C974 1.368 . S
C990 C986 1.368 . S
C990 C989 1.523 1_545 S
H991 C966 0.950 . S
H992 C968 0.950 . S
H993 C969 0.949 . S
H994 C971 0.950 . S
H995 C973 0.950 1_545 S
C996 C997 1.349 . S
C996 C998 1.327 . S
C996 H1021 0.950 . S
C997 C996 1.349 . S
C997 C1013 1.349 . S
C998 C996 1.327 . S
C998 C1017 1.429 . S
C998 H1022 0.950 . S
C999 C1016 1.574 . S
C999 C1018 1.368 . S
C999 H1023 0.949 . S
H1000 C1004 0.949 . S
C1001 C1002 1.378 . S
C1001 C1003 1.327 . S
C1001 H1024 0.950 . S
C1002 C1001 1.378 . S
C1002 C1014 1.345 . S
C1003 C1001 1.327 . S
C1003 C1019 1.429 . S
C1003 H1025 0.950 . S
C1004 H1000 0.949 . S
C1004 C1012 1.574 . S
C1004 C1020 1.368 . S
H1005 C1013 0.950 . S
H1006 C1011 0.950 . S
H1007 C1012 0.949 1_455 S
H1008 C1014 0.950 1_565 S
H1009 C1015 0.950 . S
H1010 C1016 0.949 . S
C1011 H1006 0.950 . S
C1011 C1013 1.327 . S
C1011 C1017 1.429 . S
C1012 C1004 1.574 . S
C1012 H1007 0.949 1_655 S
C1012 C1018 1.368 . S
C1013 C997 1.349 . S
C1013 H1005 0.950 . S
C1013 C1011 1.327 . S
C1014 C1002 1.345 . S
C1014 H1008 0.950 1_545 S
C1014 C1015 1.327 . S
C1015 H1009 0.950 . S
C1015 C1014 1.327 . S
C1015 C1019 1.429 . S
C1016 C999 1.574 . S
C1016 H1010 0.949 . S
C1016 C1020 1.368 . S
C1017 C998 1.429 . S
C1017 C1011 1.429 . S
C1017 C1018 1.523 1_455 S
C1018 C999 1.368 . S
C1018 C1012 1.368 . S
C1018 C1017 1.523 1_655 S
C1019 C1003 1.429 . S
C1019 C1015 1.429 . S
C1019 C1020 1.523 . S
C1020 C1004 1.368 . S
C1020 C1016 1.368 . S
C1020 C1019 1.523 . S
H1021 C996 0.950 . S
H1022 C998 0.950 . S
H1023 C999 0.949 . S
H1024 C1001 0.950 . S
H1025 C1003 0.950 . S
C1026 C1027 1.349 . S
C1026 C1028 1.327 . S
C1026 H1051 0.950 . S
C1027 C1026 1.349 . S
C1027 C1043 1.349 . S
C1028 C1026 1.327 . S
C1028 C1047 1.429 . S
C1028 H1052 0.950 . S
C1029 C1046 1.574 . S
C1029 C1048 1.368 . S
C1029 H1053 0.949 . S
H1030 C1034 0.949 . S
C1031 C1032 1.349 . S
C1031 C1033 1.327 . S
C1031 H1054 0.950 . S
C1032 C1031 1.349 . S
C1032 C1044 1.349 . S
C1033 C1031 1.327 . S
C1033 C1049 1.429 . S
C1033 H1055 0.950 . S
C1034 H1030 0.949 . S
C1034 C1042 1.574 . S
C1034 C1050 1.368 . S
H1035 C1043 0.950 . S
H1036 C1041 0.950 . S
H1037 C1042 0.949 . S
H1038 C1044 0.950 . S
H1039 C1045 0.950 . S
H1040 C1046 0.949 . S
C1041 H1036 0.950 . S
C1041 C1043 1.327 . S
C1041 C1047 1.429 . S
C1042 C1034 1.574 . S
C1042 H1037 0.949 . S
C1042 C1048 1.368 . S
C1043 C1027 1.349 . S
C1043 H1035 0.950 . S
C1043 C1041 1.327 . S
C1044 C1032 1.349 . S
C1044 H1038 0.950 . S
C1044 C1045 1.327 . S
C1045 H1039 0.950 . S
C1045 C1044 1.327 . S
C1045 C1049 1.429 . S
C1046 C1029 1.574 . S
C1046 H1040 0.949 . S
C1046 C1050 1.368 . S
C1047 C1028 1.429 . S
C1047 C1041 1.429 . S
C1047 C1048 1.523 . S
C1048 C1029 1.368 . S
C1048 C1042 1.368 . S
C1048 C1047 1.523 . S
C1049 C1033 1.429 . S
C1049 C1045 1.429 . S
C1049 C1050 1.523 . S
C1050 C1034 1.368 . S
C1050 C1046 1.368 . S
C1050 C1049 1.523 . S
H1051 C1026 0.950 . S
H1052 C1028 0.950 . S
H1053 C1029 0.949 . S
H1054 C1031 0.950 . S
H1055 C1033 0.950 . S
C1056 C1057 1.349 . S
C1056 C1058 1.327 . S
C1056 H1081 0.950 . S
C1057 C1056 1.349 . S
C1057 C1073 1.349 . S
C1058 C1056 1.327 . S
C1058 C1077 1.429 . S
C1058 H1082 0.950 . S
C1059 C1076 1.574 . S
C1059 C1078 1.368 . S
C1059 H1083 0.949 . S
H1060 C1064 0.949 . S
C1061 C1062 1.349 . S
C1061 C1063 1.327 . S
C1061 H1084 0.950 . S
C1062 C1061 1.349 . S
C1062 C1074 1.349 . S
C1063 C1061 1.327 . S
C1063 C1079 1.429 . S
C1063 H1085 0.950 . S
C1064 H1060 0.949 . S
C1064 C1072 1.574 . S
C1064 C1080 1.368 . S
H1065 C1073 0.950 . S
H1066 C1071 0.950 . S
H1067 C1072 0.949 . S
H1068 C1074 0.950 . S
H1069 C1075 0.950 . S
H1070 C1076 0.949 . S
C1071 H1066 0.950 . S
C1071 C1073 1.327 . S
C1071 C1077 1.429 . S
C1072 C1064 1.574 . S
C1072 H1067 0.949 . S
C1072 C1078 1.368 . S
C1073 C1057 1.349 . S
C1073 H1065 0.950 . S
C1073 C1071 1.327 . S
C1074 C1062 1.349 . S
C1074 H1068 0.950 . S
C1074 C1075 1.327 . S
C1075 H1069 0.950 . S
C1075 C1074 1.327 . S
C1075 C1079 1.429 . S
C1076 C1059 1.574 . S
C1076 H1070 0.949 . S
C1076 C1080 1.368 . S
C1077 C1058 1.429 . S
C1077 C1071 1.429 . S
C1077 C1078 1.523 . S
C1078 C1059 1.368 . S
C1078 C1072 1.368 . S
C1078 C1077 1.523 . S
C1079 C1063 1.429 . S
C1079 C1075 1.429 . S
C1079 C1080 1.523 . S
C1080 C1064 1.368 . S
C1080 C1076 1.368 . S
C1080 C1079 1.523 . S
H1081 C1056 0.950 . S
H1082 C1058 0.950 . S
H1083 C1059 0.949 . S
H1084 C1061 0.950 . S
H1085 C1063 0.950 . S
C1086 C1087 1.349 . S
C1086 C1088 1.327 . S
C1086 H1111 0.950 . S
C1087 C1086 1.349 . S
C1087 C1103 1.349 . S
C1088 C1086 1.327 . S
C1088 C1107 1.429 . S
C1088 H1112 0.950 . S
C1089 C1106 1.574 . S
C1089 C1108 1.368 . S
C1089 H1113 0.949 . S
H1090 C1094 0.949 . S
C1091 C1092 1.349 . S
C1091 C1093 1.327 . S
C1091 H1114 0.950 . S
C1092 C1091 1.349 . S
C1092 C1104 1.349 . S
C1093 C1091 1.327 . S
C1093 C1109 1.429 . S
C1093 H1115 0.950 . S
C1094 H1090 0.949 . S
C1094 C1102 1.574 . S
C1094 C1110 1.368 . S
H1095 C1103 0.950 . S
H1096 C1101 0.950 . S
H1097 C1102 0.949 . S
H1098 C1104 0.950 . S
H1099 C1105 0.950 . S
H1100 C1106 0.949 . S
C1101 H1096 0.950 . S
C1101 C1103 1.327 . S
C1101 C1107 1.429 . S
C1102 C1094 1.574 . S
C1102 H1097 0.949 . S
C1102 C1108 1.368 . S
C1103 C1087 1.349 . S
C1103 H1095 0.950 . S
C1103 C1101 1.327 . S
C1104 C1092 1.349 . S
C1104 H1098 0.950 . S
C1104 C1105 1.327 . S
C1105 H1099 0.950 . S
C1105 C1104 1.327 . S
C1105 C1109 1.429 . S
C1106 C1089 1.574 . S
C1106 H1100 0.949 . S
C1106 C1110 1.368 . S
C1107 C1088 1.429 . S
C1107 C1101 1.429 . S
C1107 C1108 1.523 . S
C1108 C1089 1.368 . S
C1108 C1102 1.368 . S
C1108 C1107 1.523 . S
C1109 C1093 1.429 . S
C1109 C1105 1.429 . S
C1109 C1110 1.523 . S
C1110 C1094 1.368 . S
C1110 C1106 1.368 . S
C1110 C1109 1.523 . S
H1111 C1086 0.950 . S
H1112 C1088 0.950 . S
H1113 C1089 0.949 . S
H1114 C1091 0.950 . S
H1115 C1093 0.950 . S
C1116 C1117 1.349 . S
C1116 C1118 1.327 . S
C1116 H1141 0.950 . S
C1117 C1116 1.349 . S
C1117 C1133 1.349 . S
C1118 C1116 1.327 . S
C1118 C1137 1.429 . S
C1118 H1142 0.950 . S
C1119 C1136 1.574 . S
C1119 C1138 1.368 . S
C1119 H1143 0.949 . S
H1120 C1124 0.949 . S
C1121 C1122 1.349 . S
C1121 C1123 1.327 . S
C1121 H1144 0.950 . S
C1122 C1121 1.349 . S
C1122 C1134 1.349 . S
C1123 C1121 1.327 . S
C1123 C1139 1.429 . S
C1123 H1145 0.950 . S
C1124 H1120 0.949 . S
C1124 C1132 1.574 . S
C1124 C1140 1.368 . S
H1125 C1133 0.950 . S
H1126 C1131 0.950 . S
H1127 C1132 0.949 . S
H1128 C1134 0.950 . S
H1129 C1135 0.950 . S
H1130 C1136 0.949 . S
C1131 H1126 0.950 . S
C1131 C1133 1.327 . S
C1131 C1137 1.429 . S
C1132 C1124 1.574 . S
C1132 H1127 0.949 . S
C1132 C1138 1.368 . S
C1133 C1117 1.349 . S
C1133 H1125 0.950 . S
C1133 C1131 1.327 . S
C1134 C1122 1.349 . S
C1134 H1128 0.950 . S
C1134 C1135 1.327 . S
C1135 H1129 0.950 . S
C1135 C1134 1.327 . S
C1135 C1139 1.429 . S
C1136 C1119 1.574 . S
C1136 H1130 0.949 . S
C1136 C1140 1.368 . S
C1137 C1118 1.429 . S
C1137 C1131 1.429 . S
C1137 C1138 1.523 . S
C1138 C1119 1.368 . S
C1138 C1132 1.368 . S
C1138 C1137 1.523 . S
C1139 C1123 1.429 . S
C1139 C1135 1.429 . S
C1139 C1140 1.523 . S
C1140 C1124 1.368 . S
C1140 C1136 1.368 . S
C1140 C1139 1.523 . S
H1141 C1116 0.950 . S
H1142 C1118 0.950 . S
H1143 C1119 0.949 . S
H1144 C1121 0.950 . S
H1145 C1123 0.950 . S
C1146 C1147 1.349 . S
C1146 C1148 1.327 . S
C1146 H1171 0.950 . S
C1147 C1146 1.349 . S
C1147 C1163 1.349 . S
C1148 C1146 1.327 . S
C1148 C1167 1.429 . S
C1148 H1172 0.950 . S
C1149 C1166 1.574 . S
C1149 C1168 1.368 . S
C1149 H1173 0.949 . S
H1150 C1154 0.949 . S
C1151 C1152 1.349 . S
C1151 C1153 1.327 . S
C1151 H1174 0.950 . S
C1152 C1151 1.349 . S
C1152 C1164 1.349 . S
C1153 C1151 1.327 . S
C1153 C1169 1.429 . S
C1153 H1175 0.950 . S
C1154 H1150 0.949 . S
C1154 C1162 1.574 . S
C1154 C1170 1.368 . S
H1155 C1163 0.950 . S
H1156 C1161 0.950 . S
H1157 C1162 0.949 . S
H1158 C1164 0.950 . S
H1159 C1165 0.950 . S
H1160 C1166 0.949 . S
C1161 H1156 0.950 . S
C1161 C1163 1.327 . S
C1161 C1167 1.429 . S
C1162 C1154 1.574 . S
C1162 H1157 0.949 . S
C1162 C1168 1.368 . S
C1163 C1147 1.349 . S
C1163 H1155 0.950 . S
C1163 C1161 1.327 . S
C1164 C1152 1.349 . S
C1164 H1158 0.950 . S
C1164 C1165 1.327 . S
C1165 H1159 0.950 . S
C1165 C1164 1.327 . S
C1165 C1169 1.429 . S
C1166 C1149 1.574 . S
C1166 H1160 0.949 . S
C1166 C1170 1.368 . S
C1167 C1148 1.429 . S
C1167 C1161 1.429 . S
C1167 C1168 1.523 . S
C1168 C1149 1.368 . S
C1168 C1162 1.368 . S
C1168 C1167 1.523 . S
C1169 C1153 1.429 . S
C1169 C1165 1.429 . S
C1169 C1170 1.523 . S
C1170 C1154 1.368 . S
C1170 C1166 1.368 . S
C1170 C1169 1.523 . S
H1171 C1146 0.950 . S
H1172 C1148 0.950 . S
H1173 C1149 0.949 . S
H1174 C1151 0.950 . S
H1175 C1153 0.950 . S
C1176 C1177 1.349 . S
C1176 C1178 1.327 . S
C1176 H1201 0.950 . S
C1177 C1176 1.349 . S
C1177 C1193 1.349 . S
C1178 C1176 1.327 . S
C1178 C1197 1.429 . S
C1178 H1202 0.950 . S
C1179 C1196 1.574 . S
C1179 C1198 1.368 . S
C1179 H1203 0.949 . S
H1180 C1184 0.949 . S
C1181 C1182 1.349 . S
C1181 C1183 1.327 . S
C1181 H1204 0.950 . S
C1182 C1181 1.349 . S
C1182 C1194 1.349 . S
C1183 C1181 1.327 . S
C1183 C1199 1.429 . S
C1183 H1205 0.950 . S
C1184 H1180 0.949 . S
C1184 C1192 1.574 . S
C1184 C1200 1.368 . S
H1185 C1193 0.950 . S
H1186 C1191 0.950 . S
H1187 C1192 0.949 . S
H1188 C1194 0.950 . S
H1189 C1195 0.950 . S
H1190 C1196 0.949 . S
C1191 H1186 0.950 . S
C1191 C1193 1.327 . S
C1191 C1197 1.429 . S
C1192 C1184 1.574 . S
C1192 H1187 0.949 . S
C1192 C1198 1.368 . S
C1193 C1177 1.349 . S
C1193 H1185 0.950 . S
C1193 C1191 1.327 . S
C1194 C1182 1.349 . S
C1194 H1188 0.950 . S
C1194 C1195 1.327 . S
C1195 H1189 0.950 . S
C1195 C1194 1.327 . S
C1195 C1199 1.429 . S
C1196 C1179 1.574 . S
C1196 H1190 0.949 . S
C1196 C1200 1.368 . S
C1197 C1178 1.429 . S
C1197 C1191 1.429 . S
C1197 C1198 1.523 . S
C1198 C1179 1.368 . S
C1198 C1192 1.368 . S
C1198 C1197 1.523 . S
C1199 C1183 1.429 . S
C1199 C1195 1.429 . S
C1199 C1200 1.523 . S
C1200 C1184 1.368 . S
C1200 C1196 1.368 . S
C1200 C1199 1.523 . S
H1201 C1176 0.950 . S
H1202 C1178 0.950 . S
H1203 C1179 0.949 . S
H1204 C1181 0.950 . S
H1205 C1183 0.950 . S
C1206 C1207 1.349 . S
C1206 C1208 1.327 . S
C1206 H1231 0.950 . S
C1207 C1206 1.349 . S
C1207 C1223 1.349 . S
C1208 C1206 1.327 . S
C1208 C1227 1.429 . S
C1208 H1232 0.950 . S
C1209 C1226 1.574 1_565 S
C1209 C1228 1.368 . S
C1209 H1233 0.949 . S
H1210 C1214 0.949 . S
C1211 C1212 1.349 . S
C1211 C1213 1.327 . S
C1211 H1234 0.950 . S
C1212 C1211 1.349 . S
C1212 C1224 1.349 . S
C1213 C1211 1.327 . S
C1213 C1229 1.429 . S
C1213 H1235 0.950 . S
C1214 H1210 0.949 . S
C1214 C1222 1.574 1_545 S
C1214 C1230 1.368 . S
H1215 C1223 0.950 . S
H1216 C1221 0.950 . S
H1217 C1222 0.949 . S
H1218 C1224 0.950 . S
H1219 C1225 0.950 . S
H1220 C1226 0.949 . S
C1221 H1216 0.950 . S
C1221 C1223 1.327 . S
C1221 C1227 1.429 . S
C1222 C1214 1.574 1_565 S
C1222 H1217 0.949 . S
C1222 C1228 1.368 . S
C1223 C1207 1.349 . S
C1223 H1215 0.950 . S
C1223 C1221 1.327 . S
C1224 C1212 1.349 . S
C1224 H1218 0.950 . S
C1224 C1225 1.327 . S
C1225 H1219 0.950 . S
C1225 C1224 1.327 . S
C1225 C1229 1.429 . S
C1226 C1209 1.574 1_545 S
C1226 H1220 0.949 . S
C1226 C1230 1.368 . S
C1227 C1208 1.429 . S
C1227 C1221 1.429 . S
C1227 C1228 1.523 . S
C1228 C1209 1.368 . S
C1228 C1222 1.368 . S
C1228 C1227 1.523 . S
C1229 C1213 1.429 . S
C1229 C1225 1.429 . S
C1229 C1230 1.523 . S
C1230 C1214 1.368 . S
C1230 C1226 1.368 . S
C1230 C1229 1.523 . S
H1231 C1206 0.950 . S
H1232 C1208 0.950 . S
H1233 C1209 0.949 . S
H1234 C1211 0.950 . S
H1235 C1213 0.950 . S
C1236 C1237 1.349 . S
C1236 C1238 1.327 . S
C1236 H1261 0.950 . S
C1237 C1236 1.349 . S
C1237 C1253 1.349 . S
C1238 C1236 1.327 . S
C1238 C1257 1.429 . S
C1238 H1262 0.950 . S
C1239 C1256 1.574 1_655 S
C1239 C1258 1.368 . S
C1239 H1263 0.949 . S
H1240 C1244 0.949 . S
C1241 C1242 1.349 . S
C1241 C1243 1.327 . S
C1241 H1264 0.950 . S
C1242 C1241 1.349 . S
C1242 C1254 1.349 . S
C1243 C1241 1.327 . S
C1243 C1259 1.429 . S
C1243 H1265 0.950 . S
C1244 H1240 0.949 . S
C1244 C1252 1.574 . S
C1244 C1260 1.368 . S
H1245 C1253 0.950 . S
H1246 C1251 0.950 . S
H1247 C1252 0.949 . S
H1248 C1254 0.950 . S
H1249 C1255 0.950 . S
H1250 C1256 0.949 . S
C1251 H1246 0.950 . S
C1251 C1253 1.327 . S
C1251 C1257 1.429 . S
C1252 C1244 1.574 . S
C1252 H1247 0.949 . S
C1252 C1258 1.368 1_455 S
C1253 C1237 1.349 . S
C1253 H1245 0.950 . S
C1253 C1251 1.327 . S
C1254 C1242 1.349 . S
C1254 H1248 0.950 . S
C1254 C1255 1.327 . S
C1255 H1249 0.950 . S
C1255 C1254 1.327 . S
C1255 C1259 1.429 . S
C1256 C1239 1.574 1_455 S
C1256 H1250 0.949 . S
C1256 C1260 1.368 . S
C1257 C1238 1.429 . S
C1257 C1251 1.429 . S
C1257 C1258 1.523 . S
C1258 C1239 1.368 . S
C1258 C1252 1.368 1_655 S
C1258 C1257 1.523 . S
C1259 C1243 1.429 . S
C1259 C1255 1.429 . S
C1259 C1260 1.523 . S
C1260 C1244 1.368 . S
C1260 C1256 1.368 . S
C1260 C1259 1.523 . S
H1261 C1236 0.950 . S
H1262 C1238 0.950 . S
H1263 C1239 0.949 . S
H1264 C1241 0.950 . S
H1265 C1243 0.950 . S
C1266 C1267 1.349 . S
C1266 C1268 1.327 . S
C1266 H1291 0.950 . S
C1267 C1266 1.349 . S
C1267 C1283 1.349 . S
C1268 C1266 1.327 . S
C1268 C1287 1.429 . S
C1268 H1292 0.950 . S
C1269 C1286 1.574 . S
C1269 C1288 1.368 . S
C1269 H1293 0.949 . S
H1270 C1274 0.949 . S
C1271 C1272 1.349 . S
C1271 C1273 1.327 . S
C1271 H1294 0.950 . S
C1272 C1271 1.349 . S
C1272 C1284 1.349 . S
C1273 C1271 1.327 . S
C1273 C1289 1.429 . S
C1273 H1295 0.950 . S
C1274 H1270 0.949 . S
C1274 C1282 1.574 . S
C1274 C1290 1.368 . S
H1275 C1283 0.950 . S
H1276 C1281 0.950 . S
H1277 C1282 0.949 . S
H1278 C1284 0.950 . S
H1279 C1285 0.950 . S
H1280 C1286 0.949 . S
C1281 H1276 0.950 . S
C1281 C1283 1.327 . S
C1281 C1287 1.429 . S
C1282 C1274 1.574 . S
C1282 H1277 0.949 . S
C1282 C1288 1.368 . S
C1283 C1267 1.349 . S
C1283 H1275 0.950 . S
C1283 C1281 1.327 . S
C1284 C1272 1.349 . S
C1284 H1278 0.950 . S
C1284 C1285 1.327 . S
C1285 H1279 0.950 . S
C1285 C1284 1.327 . S
C1285 C1289 1.429 . S
C1286 C1269 1.574 . S
C1286 H1280 0.949 . S
C1286 C1290 1.368 . S
C1287 C1268 1.429 . S
C1287 C1281 1.429 . S
C1287 C1288 1.523 . S
C1288 C1269 1.368 . S
C1288 C1282 1.368 . S
C1288 C1287 1.523 . S
C1289 C1273 1.429 . S
C1289 C1285 1.429 . S
C1289 C1290 1.523 . S
C1290 C1274 1.368 . S
C1290 C1286 1.368 . S
C1290 C1289 1.523 . S
H1291 C1266 0.950 . S
H1292 C1268 0.950 . S
H1293 C1269 0.949 . S
H1294 C1271 0.950 . S
H1295 C1273 0.950 . S
C1296 C1297 1.349 . S
C1296 C1298 1.327 . S
C1296 H1321 0.950 . S
C1297 C1296 1.349 . S
C1297 C1313 1.349 . S
C1298 C1296 1.327 . S
C1298 C1317 1.429 . S
C1298 H1322 0.950 . S
C1299 C1316 1.574 . S
C1299 C1318 1.368 . S
C1299 H1323 0.949 . S
H1300 C1304 0.949 . S
C1301 C1302 1.349 . S
C1301 C1303 1.327 . S
C1301 H1324 0.950 . S
C1302 C1301 1.349 . S
C1302 C1314 1.349 . S
C1303 C1301 1.327 . S
C1303 C1319 1.429 . S
C1303 H1325 0.950 . S
C1304 H1300 0.949 . S
C1304 C1312 1.574 . S
C1304 C1320 1.368 . S
H1305 C1313 0.950 . S
H1306 C1311 0.950 . S
H1307 C1312 0.949 . S
H1308 C1314 0.950 . S
H1309 C1315 0.950 . S
H1310 C1316 0.949 . S
C1311 H1306 0.950 . S
C1311 C1313 1.327 . S
C1311 C1317 1.429 . S
C1312 C1304 1.574 . S
C1312 H1307 0.949 . S
C1312 C1318 1.368 . S
C1313 C1297 1.349 . S
C1313 H1305 0.950 . S
C1313 C1311 1.327 . S
C1314 C1302 1.349 . S
C1314 H1308 0.950 . S
C1314 C1315 1.327 . S
C1315 H1309 0.950 . S
C1315 C1314 1.327 . S
C1315 C1319 1.429 . S
C1316 C1299 1.574 . S
C1316 H1310 0.949 . S
C1316 C1320 1.368 . S
C1317 C1298 1.429 . S
C1317 C1311 1.429 . S
C1317 C1318 1.523 . S
C1318 C1299 1.368 . S
C1318 C1312 1.368 . S
C1318 C1317 1.523 . S
C1319 C1303 1.429 . S
C1319 C1315 1.429 . S
C1319 C1320 1.523 . S
C1320 C1304 1.368 . S
C1320 C1316 1.368 . S
C1320 C1319 1.523 . S
H1321 C1296 0.950 . S
H1322 C1298 0.950 . S
H1323 C1299 0.949 . S
H1324 C1301 0.950 . S
H1325 C1303 0.950 . S
C1326 C1327 1.349 . S
C1326 C1328 1.327 . S
C1326 H1351 0.950 . S
C1327 C1326 1.349 . S
C1327 C1343 1.349 . S
C1328 C1326 1.327 . S
C1328 C1347 1.429 . S
C1328 H1352 0.950 . S
C1329 C1346 1.574 . S
C1329 C1348 1.368 . S
C1329 H1353 0.949 . S
H1330 C1334 0.949 . S
C1331 C1332 1.349 . S
C1331 C1333 1.327 . S
C1331 H1354 0.950 . S
C1332 C1331 1.349 . S
C1332 C1344 1.349 . S
C1333 C1331 1.327 . S
C1333 C1349 1.429 . S
C1333 H1355 0.950 . S
C1334 H1330 0.949 . S
C1334 C1342 1.574 . S
C1334 C1350 1.368 . S
H1335 C1343 0.950 . S
H1336 C1341 0.950 . S
H1337 C1342 0.949 . S
H1338 C1344 0.950 . S
H1339 C1345 0.950 . S
H1340 C1346 0.949 . S
C1341 H1336 0.950 . S
C1341 C1343 1.327 . S
C1341 C1347 1.429 . S
C1342 C1334 1.574 . S
C1342 H1337 0.949 . S
C1342 C1348 1.368 . S
C1343 C1327 1.349 . S
C1343 H1335 0.950 . S
C1343 C1341 1.327 . S
C1344 C1332 1.349 . S
C1344 H1338 0.950 . S
C1344 C1345 1.327 . S
C1345 H1339 0.950 . S
C1345 C1344 1.327 . S
C1345 C1349 1.429 . S
C1346 C1329 1.574 . S
C1346 H1340 0.949 . S
C1346 C1350 1.368 . S
C1347 C1328 1.429 . S
C1347 C1341 1.429 . S
C1347 C1348 1.523 . S
C1348 C1329 1.368 . S
C1348 C1342 1.368 . S
C1348 C1347 1.523 . S
C1349 C1333 1.429 . S
C1349 C1345 1.429 . S
C1349 C1350 1.523 . S
C1350 C1334 1.368 . S
C1350 C1346 1.368 . S
C1350 C1349 1.523 . S
H1351 C1326 0.950 . S
H1352 C1328 0.950 . S
H1353 C1329 0.949 . S
H1354 C1331 0.950 . S
H1355 C1333 0.950 . S
C1356 C1357 1.349 . S
C1356 C1358 1.327 . S
C1356 H1381 0.950 1_565 S
C1357 C1356 1.349 . S
C1357 C1373 1.349 . S
C1358 C1356 1.327 . S
C1358 C1377 1.429 . S
C1358 H1382 0.950 . S
C1359 C1376 1.574 . S
C1359 C1378 1.368 . S
C1359 H1383 0.949 . S
H1360 C1364 0.949 . S
C1361 C1362 1.349 . S
C1361 C1363 1.327 . S
C1361 H1384 0.950 . S
C1362 C1361 1.349 . S
C1362 C1374 1.349 . S
C1363 C1361 1.327 . S
C1363 C1379 1.429 . S
C1363 H1385 0.950 . S
C1364 H1360 0.949 . S
C1364 C1372 1.574 . S
C1364 C1380 1.368 . S
H1365 C1373 0.950 . S
H1366 C1371 0.950 . S
H1367 C1372 0.949 . S
H1368 C1374 0.950 . S
H1369 C1375 0.950 . S
H1370 C1376 0.949 . S
C1371 H1366 0.950 . S
C1371 C1373 1.327 . S
C1371 C1377 1.429 . S
C1372 C1364 1.574 . S
C1372 H1367 0.949 . S
C1372 C1378 1.368 . S
C1373 C1357 1.349 . S
C1373 H1365 0.950 . S
C1373 C1371 1.327 . S
C1374 C1362 1.349 . S
C1374 H1368 0.950 . S
C1374 C1375 1.327 . S
C1375 H1369 0.950 . S
C1375 C1374 1.327 . S
C1375 C1379 1.429 . S
C1376 C1359 1.574 . S
C1376 H1370 0.949 . S
C1376 C1380 1.368 . S
C1377 C1358 1.429 . S
C1377 C1371 1.429 . S
C1377 C1378 1.523 . S
C1378 C1359 1.368 . S
C1378 C1372 1.368 . S
C1378 C1377 1.523 . S
C1379 C1363 1.429 . S
C1379 C1375 1.429 . S
C1379 C1380 1.523 . S
C1380 C1364 1.368 . S
C1380 C1376 1.368 . S
C1380 C1379 1.523 . S
H1381 C1356 0.950 1_545 S
H1382 C1358 0.950 . S
H1383 C1359 0.949 . S
H1384 C1361 0.950 . S
H1385 C1363 0.950 . S
C1386 C1387 1.349 . S
C1386 C1388 1.327 . S
C1386 H1411 0.950 . S
C1387 C1386 1.349 . S
C1387 C1403 1.349 . S
C1388 C1386 1.327 . S
C1388 C1407 1.429 . S
C1388 H1412 0.950 . S
C1389 C1406 1.574 . S
C1389 C1408 1.368 . S
C1389 H1413 0.949 . S
H1390 C1394 0.949 . S
C1391 C1392 1.349 . S
C1391 C1393 1.327 . S
C1391 H1414 0.950 . S
C1392 C1391 1.349 . S
C1392 C1404 1.349 . S
C1393 C1391 1.327 . S
C1393 C1409 1.429 . S
C1393 H1415 0.950 . S
C1394 H1390 0.949 . S
C1394 C1402 1.574 . S
C1394 C1410 1.368 . S
H1395 C1403 0.950 . S
H1396 C1401 0.950 . S
H1397 C1402 0.949 . S
H1398 C1404 0.950 . S
H1399 C1405 0.950 . S
H1400 C1406 0.949 . S
C1401 H1396 0.950 . S
C1401 C1403 1.327 . S
C1401 C1407 1.429 . S
C1402 C1394 1.574 . S
C1402 H1397 0.949 . S
C1402 C1408 1.368 . S
C1403 C1387 1.349 . S
C1403 H1395 0.950 . S
C1403 C1401 1.327 . S
C1404 C1392 1.349 . S
C1404 H1398 0.950 . S
C1404 C1405 1.327 . S
C1405 H1399 0.950 . S
C1405 C1404 1.327 . S
C1405 C1409 1.429 . S
C1406 C1389 1.574 . S
C1406 H1400 0.949 . S
C1406 C1410 1.368 . S
C1407 C1388 1.429 . S
C1407 C1401 1.429 . S
C1407 C1408 1.523 . S
C1408 C1389 1.368 . S
C1408 C1402 1.368 . S
C1408 C1407 1.523 . S
C1409 C1393 1.429 . S
C1409 C1405 1.429 . S
C1409 C1410 1.523 . S
C1410 C1394 1.368 . S
C1410 C1406 1.368 . S
C1410 C1409 1.523 . S
H1411 C1386 0.950 . S
H1412 C1388 0.950 . S
H1413 C1389 0.949 . S
H1414 C1391 0.950 . S
H1415 C1393 0.950 . S
C1416 C1417 1.349 . S
C1416 C1418 1.327 . S
C1416 H1441 0.950 . S
C1417 C1416 1.349 . S
C1417 C1433 1.349 . S
C1418 C1416 1.327 . S
C1418 C1437 1.429 . S
C1418 H1442 0.950 . S
C1419 C1436 1.574 . S
C1419 C1438 1.368 . S
C1419 H1443 0.949 . S
H1420 C1424 0.949 . S
C1421 C1422 1.349 . S
C1421 C1423 1.327 . S
C1421 H1444 0.950 . S
C1422 C1421 1.349 . S
C1422 C1434 1.349 . S
C1423 C1421 1.327 . S
C1423 C1439 1.429 . S
C1423 H1445 0.950 . S
C1424 H1420 0.949 . S
C1424 C1432 1.574 . S
C1424 C1440 1.368 . S
H1425 C1433 0.950 . S
H1426 C1431 0.950 . S
H1427 C1432 0.949 . S
H1428 C1434 0.950 . S
H1429 C1435 0.950 . S
H1430 C1436 0.949 . S
C1431 H1426 0.950 . S
C1431 C1433 1.327 . S
C1431 C1437 1.429 . S
C1432 C1424 1.574 . S
C1432 H1427 0.949 . S
C1432 C1438 1.368 . S
C1433 C1417 1.349 . S
C1433 H1425 0.950 . S
C1433 C1431 1.327 . S
C1434 C1422 1.349 . S
C1434 H1428 0.950 . S
C1434 C1435 1.327 . S
C1435 H1429 0.950 . S
C1435 C1434 1.327 . S
C1435 C1439 1.429 . S
C1436 C1419 1.574 . S
C1436 H1430 0.949 . S
C1436 C1440 1.368 . S
C1437 C1418 1.429 . S
C1437 C1431 1.429 . S
C1437 C1438 1.523 . S
C1438 C1419 1.368 . S
C1438 C1432 1.368 . S
C1438 C1437 1.523 . S
C1439 C1423 1.429 . S
C1439 C1435 1.429 . S
C1439 C1440 1.523 . S
C1440 C1424 1.368 . S
C1440 C1436 1.368 . S
C1440 C1439 1.523 . S
H1441 C1416 0.950 . S
H1442 C1418 0.950 . S
H1443 C1419 0.949 . S
H1444 C1421 0.950 . S
H1445 C1423 0.950 . S
C1446 C1447 1.349 . S
C1446 C1448 1.327 . S
C1446 H1471 0.950 . S
C1447 C1446 1.349 . S
C1447 C1463 1.349 . S
C1448 C1446 1.327 . S
C1448 C1467 1.429 . S
C1448 H1472 0.950 . S
C1449 C1466 1.574 . S
C1449 C1468 1.368 . S
C1449 H1473 0.949 . S
H1450 C1454 0.949 . S
C1451 C1452 1.349 . S
C1451 C1453 1.327 . S
C1451 H1474 0.950 . S
C1452 C1451 1.349 . S
C1452 C1464 1.349 . S
C1453 C1451 1.327 . S
C1453 C1469 1.429 . S
C1453 H1475 0.950 . S
C1454 H1450 0.949 . S
C1454 C1462 1.574 . S
C1454 C1470 1.368 . S
H1455 C1463 0.950 . S
H1456 C1461 0.950 . S
H1457 C1462 0.949 . S
H1458 C1464 0.950 . S
H1459 C1465 0.950 . S
H1460 C1466 0.949 . S
C1461 H1456 0.950 . S
C1461 C1463 1.327 . S
C1461 C1467 1.429 . S
C1462 C1454 1.574 . S
C1462 H1457 0.949 . S
C1462 C1468 1.368 . S
C1463 C1447 1.349 . S
C1463 H1455 0.950 . S
C1463 C1461 1.327 . S
C1464 C1452 1.349 . S
C1464 H1458 0.950 . S
C1464 C1465 1.327 . S
C1465 H1459 0.950 . S
C1465 C1464 1.327 . S
C1465 C1469 1.429 . S
C1466 C1449 1.574 . S
C1466 H1460 0.949 . S
C1466 C1470 1.368 . S
C1467 C1448 1.429 . S
C1467 C1461 1.429 . S
C1467 C1468 1.523 . S
C1468 C1449 1.368 . S
C1468 C1462 1.368 . S
C1468 C1467 1.523 . S
C1469 C1453 1.429 . S
C1469 C1465 1.429 . S
C1469 C1470 1.523 . S
C1470 C1454 1.368 . S
C1470 C1466 1.368 . S
C1470 C1469 1.523 . S
H1471 C1446 0.950 . S
H1472 C1448 0.950 . S
H1473 C1449 0.949 . S
H1474 C1451 0.950 . S
H1475 C1453 0.950 . S
C1476 C1477 1.349 . S
C1476 C1478 1.327 . S
C1476 H1501 0.950 . S
C1477 C1476 1.349 . S
C1477 C1493 1.349 . S
C1478 C1476 1.327 . S
C1478 C1497 1.429 . S
C1478 H1502 0.950 . S
C1479 C1496 1.574 . S
C1479 C1498 1.368 . S
C1479 H1503 0.949 . S
H1480 C1484 0.949 . S
C1481 C1482 1.349 . S
C1481 C1483 1.327 . S
C1481 H1504 0.950 . S
C1482 C1481 1.349 . S
C1482 C1494 1.349 . S
C1483 C1481 1.327 . S
C1483 C1499 1.429 . S
C1483 H1505 0.950 . S
C1484 H1480 0.949 . S
C1484 C1492 1.574 . S
C1484 C1500 1.368 . S
H1485 C1493 0.950 . S
H1486 C1491 0.950 . S
H1487 C1492 0.949 . S
H1488 C1494 0.950 . S
H1489 C1495 0.950 . S
H1490 C1496 0.949 . S
C1491 H1486 0.950 . S
C1491 C1493 1.327 . S
C1491 C1497 1.429 . S
C1492 C1484 1.574 . S
C1492 H1487 0.949 . S
C1492 C1498 1.368 . S
C1493 C1477 1.349 . S
C1493 H1485 0.950 . S
C1493 C1491 1.327 . S
C1494 C1482 1.349 . S
C1494 H1488 0.950 . S
C1494 C1495 1.327 . S
C1495 H1489 0.950 . S
C1495 C1494 1.327 . S
C1495 C1499 1.429 . S
C1496 C1479 1.574 . S
C1496 H1490 0.949 . S
C1496 C1500 1.368 . S
C1497 C1478 1.429 . S
C1497 C1491 1.429 . S
C1497 C1498 1.523 . S
C1498 C1479 1.368 . S
C1498 C1492 1.368 . S
C1498 C1497 1.523 . S
C1499 C1483 1.429 . S
C1499 C1495 1.429 . S
C1499 C1500 1.523 . S
C1500 C1484 1.368 . S
C1500 C1496 1.368 . S
C1500 C1499 1.523 . S
H1501 C1476 0.950 . S
H1502 C1478 0.950 . S
H1503 C1479 0.949 . S
H1504 C1481 0.950 . S
H1505 C1483 0.950 . S
C1506 C1507 1.349 . S
C1506 C1508 1.327 . S
C1506 H1531 0.950 . S
C1507 C1506 1.349 . S
C1507 C1523 1.349 . S
C1508 C1506 1.327 . S
C1508 C1527 1.429 . S
C1508 H1532 0.950 . S
C1509 C1526 1.574 . S
C1509 C1528 1.368 1_545 S
C1509 H1533 0.949 . S
H1510 C1514 0.949 . S
C1511 C1512 1.349 . S
C1511 C1513 1.327 . S
C1511 H1534 0.950 . S
C1512 C1511 1.349 . S
C1512 C1524 1.349 . S
C1513 C1511 1.327 . S
C1513 C1529 1.429 . S
C1513 H1535 0.950 . S
C1514 H1510 0.949 . S
C1514 C1522 1.574 . S
C1514 C1530 1.368 1_565 S
H1515 C1523 0.950 . S
H1516 C1521 0.950 . S
H1517 C1522 0.949 . S
H1518 C1524 0.950 . S
H1519 C1525 0.950 . S
H1520 C1526 0.949 . S
C1521 H1516 0.950 . S
C1521 C1523 1.327 . S
C1521 C1527 1.429 . S
C1522 C1514 1.574 . S
C1522 H1517 0.949 . S
C1522 C1528 1.368 . S
C1523 C1507 1.349 . S
C1523 H1515 0.950 . S
C1523 C1521 1.327 . S
C1524 C1512 1.349 . S
C1524 H1518 0.950 . S
C1524 C1525 1.327 . S
C1525 H1519 0.950 . S
C1525 C1524 1.327 . S
C1525 C1529 1.429 . S
C1526 C1509 1.574 . S
C1526 H1520 0.949 . S
C1526 C1530 1.368 . S
C1527 C1508 1.429 . S
C1527 C1521 1.429 . S
C1527 C1528 1.523 . S
C1528 C1509 1.368 1_565 S
C1528 C1522 1.368 . S
C1528 C1527 1.523 . S
C1529 C1513 1.429 . S
C1529 C1525 1.429 . S
C1529 C1530 1.523 . S
C1530 C1514 1.368 1_545 S
C1530 C1526 1.368 . S
C1530 C1529 1.523 . S
H1531 C1506 0.950 . S
H1532 C1508 0.950 . S
H1533 C1509 0.949 . S
H1534 C1511 0.950 . S
H1535 C1513 0.950 . S
C1536 C1537 1.349 . S
C1536 C1538 1.327 . S
C1536 H1561 0.950 . S
C1537 C1536 1.349 . S
C1537 C1553 1.349 . S
C1538 C1536 1.327 . S
C1538 C1557 1.429 . S
C1538 H1562 0.950 . S
C1539 C1556 1.574 1_655 S
C1539 C1558 1.368 . S
C1539 H1563 0.949 . S
H1540 C1544 0.949 . S
C1541 C1542 1.349 . S
C1541 C1543 1.327 . S
C1541 H1564 0.950 . S
C1542 C1541 1.349 . S
C1542 C1554 1.349 . S
C1543 C1541 1.327 . S
C1543 C1559 1.429 . S
C1543 H1565 0.950 . S
C1544 H1540 0.949 . S
C1544 C1552 1.574 . S
C1544 C1560 1.368 . S
H1545 C1553 0.950 . S
H1546 C1551 0.950 . S
H1547 C1552 0.949 . S
H1548 C1554 0.950 . S
H1549 C1555 0.950 . S
H1550 C1556 0.949 . S
C1551 H1546 0.950 . S
C1551 C1553 1.327 . S
C1551 C1557 1.429 . S
C1552 C1544 1.574 . S
C1552 H1547 0.949 . S
C1552 C1558 1.368 1_455 S
C1553 C1537 1.349 . S
C1553 H1545 0.950 . S
C1553 C1551 1.327 . S
C1554 C1542 1.349 . S
C1554 H1548 0.950 . S
C1554 C1555 1.327 . S
C1555 H1549 0.950 . S
C1555 C1554 1.327 . S
C1555 C1559 1.429 . S
C1556 C1539 1.574 1_455 S
C1556 H1550 0.949 . S
C1556 C1560 1.368 . S
C1557 C1538 1.429 . S
C1557 C1551 1.429 . S
C1557 C1558 1.523 . S
C1558 C1539 1.368 . S
C1558 C1552 1.368 1_655 S
C1558 C1557 1.523 . S
C1559 C1543 1.429 . S
C1559 C1555 1.429 . S
C1559 C1560 1.523 . S
C1560 C1544 1.368 . S
C1560 C1556 1.368 . S
C1560 C1559 1.523 . S
H1561 C1536 0.950 . S
H1562 C1538 0.950 . S
H1563 C1539 0.949 . S
H1564 C1541 0.950 . S
H1565 C1543 0.950 . S
C757 C142 1.162 . S
C762 C56 1.310 1_554 S
C787 C226 1.162 . S
C792 C140 1.311 1_554 S
C817 C224 1.310 1_554 S
C822 C58 1.162 . S
C847 C238 1.140 . S
C852 C151 1.260 . S
C877 C235 1.260 . S
C882 C70 1.140 . S
C907 C67 1.260 . S
C912 C154 1.140 . S
C937 C308 1.317 . S
C942 C394 1.162 . S
C967 C478 1.162 . S
C972 C392 1.317 . S
C997 C476 1.317 . S
C1002 C310 1.152 1_545 S
C1027 C403 1.260 . S
C1032 C490 1.123 . S
C1057 C487 1.259 . S
C1062 C322 1.123 . S
C1087 C406 1.123 . S
C1092 C319 1.259 . S
C1117 C646 1.162 . S
C1122 C560 1.317 . S
C1147 C644 1.317 . S
C1152 C730 1.162 . S
C1177 C728 1.317 . S
C1182 C562 1.162 . S
C1207 C742 1.124 . S
C1212 C655 1.260 . S
C1237 C739 1.260 . S
C1242 C574 1.123 . S
C1267 C571 1.260 . S
C1272 C658 1.123 . S
C1297 C494 2.625 . S
C1302 C63 2.688 . S
C1327 C326 2.625 . S
C1332 C147 2.689 . S
C1357 C231 2.688 . S
C1362 C410 2.625 . S
C1387 C242 2.625 . S
C1392 C567 2.688 . S
C1417 C74 2.625 . S
C1422 C651 2.688 . S
C1447 C735 2.688 . S
C1452 C158 2.625 . S
C1477 C315 2.688 . S
C1482 C746 2.625 . S
C1507 C399 2.689 . S
C1512 C578 2.625 . S
C1537 C662 2.625 . S
C1542 C483 2.688 . S
