# Generated by pormake.
# Topology ato, (4)-cn, num edge types: 1
# Building blocks:
#     Node 0, Type 0, BuildingBlock: QUQFOY_clean_sbu_1, # of connection points: 4
#     Node 1, Type 0, BuildingBlock: QUQFOY_clean_sbu_1, # of connection points: 4
#     Node 2, Type 0, BuildingBlock: QUQFOY_clean_sbu_1, # of connection points: 4
#     Node 3, Type 0, BuildingBlock: QUQFOY_clean_sbu_1, # of connection points: 4
#     Node 4, Type 0, BuildingBlock: QUQFOY_clean_sbu_1, # of connection points: 4
#     Node 5, Type 0, BuildingBlock: QUQFOY_clean_sbu_1, # of connection points: 4
#     Node 6, Type 0, BuildingBlock: QUQFOY_clean_sbu_1, # of connection points: 4
#     Node 7, Type 0, BuildingBlock: QUQFOY_clean_sbu_1, # of connection points: 4
#     Node 8, Type 0, BuildingBlock: QUQFOY_clean_sbu_1, # of connection points: 4
#     Node 9, Type 0, BuildingBlock: QUQFOY_clean_sbu_1, # of connection points: 4
#     Node 10, Type 0, BuildingBlock: QUQFOY_clean_sbu_1, # of connection points: 4
#     Node 11, Type 0, BuildingBlock: QUQFOY_clean_sbu_1, # of connection points: 4
#     Node 12, Type 0, BuildingBlock: QUQFOY_clean_sbu_1, # of connection points: 4
#     Node 13, Type 0, BuildingBlock: QUQFOY_clean_sbu_1, # of connection points: 4
#     Node 14, Type 0, BuildingBlock: QUQFOY_clean_sbu_1, # of connection points: 4
#     Node 15, Type 0, BuildingBlock: QUQFOY_clean_sbu_1, # of connection points: 4
#     Node 16, Type 0, BuildingBlock: QUQFOY_clean_sbu_1, # of connection points: 4
#     Node 17, Type 0, BuildingBlock: QUQFOY_clean_sbu_1, # of connection points: 4
#     Node 18, Type 0, BuildingBlock: QUQFOY_clean_sbu_1, # of connection points: 4
#     Node 19, Type 0, BuildingBlock: QUQFOY_clean_sbu_1, # of connection points: 4
#     Node 20, Type 0, BuildingBlock: QUQFOY_clean_sbu_1, # of connection points: 4
#     Node 21, Type 0, BuildingBlock: QUQFOY_clean_sbu_1, # of connection points: 4
#     Node 22, Type 0, BuildingBlock: QUQFOY_clean_sbu_1, # of connection points: 4
#     Node 23, Type 0, BuildingBlock: QUQFOY_clean_sbu_1, # of connection points: 4
#     Node 24, Type 0, BuildingBlock: QUQFOY_clean_sbu_1, # of connection points: 4
#     Node 25, Type 0, BuildingBlock: QUQFOY_clean_sbu_1, # of connection points: 4
#     Node 26, Type 0, BuildingBlock: QUQFOY_clean_sbu_1, # of connection points: 4
#     Node 27, Type 0, BuildingBlock: QUQFOY_clean_sbu_1, # of connection points: 4
#     Node 28, Type 0, BuildingBlock: QUQFOY_clean_sbu_1, # of connection points: 4
#     Node 29, Type 0, BuildingBlock: QUQFOY_clean_sbu_1, # of connection points: 4
#     Node 30, Type 0, BuildingBlock: QUQFOY_clean_sbu_1, # of connection points: 4
#     Node 31, Type 0, BuildingBlock: QUQFOY_clean_sbu_1, # of connection points: 4
#     Node 32, Type 0, BuildingBlock: QUQFOY_clean_sbu_1, # of connection points: 4
#     Node 33, Type 0, BuildingBlock: QUQFOY_clean_sbu_1, # of connection points: 4
#     Node 34, Type 0, BuildingBlock: QUQFOY_clean_sbu_1, # of connection points: 4
#     Node 35, Type 0, BuildingBlock: QUQFOY_clean_sbu_1, # of connection points: 4
#     Edge 36, Type (0, 0), BuildingBlock: KIFKEQ_clean_linker_1, # of connection points: 2
#     Edge 37, Type (0, 0), BuildingBlock: KIFKEQ_clean_linker_1, # of connection points: 2
#     Edge 38, Type (0, 0), BuildingBlock: KIFKEQ_clean_linker_1, # of connection points: 2
#     Edge 39, Type (0, 0), BuildingBlock: KIFKEQ_clean_linker_1, # of connection points: 2
#     Edge 40, Type (0, 0), BuildingBlock: KIFKEQ_clean_linker_1, # of connection points: 2
#     Edge 41, Type (0, 0), BuildingBlock: KIFKEQ_clean_linker_1, # of connection points: 2
#     Edge 42, Type (0, 0), BuildingBlock: KIFKEQ_clean_linker_1, # of connection points: 2
#     Edge 43, Type (0, 0), BuildingBlock: KIFKEQ_clean_linker_1, # of connection points: 2
#     Edge 44, Type (0, 0), BuildingBlock: KIFKEQ_clean_linker_1, # of connection points: 2
#     Edge 45, Type (0, 0), BuildingBlock: KIFKEQ_clean_linker_1, # of connection points: 2
#     Edge 46, Type (0, 0), BuildingBlock: KIFKEQ_clean_linker_1, # of connection points: 2
#     Edge 47, Type (0, 0), BuildingBlock: KIFKEQ_clean_linker_1, # of connection points: 2
#     Edge 48, Type (0, 0), BuildingBlock: KIFKEQ_clean_linker_1, # of connection points: 2
#     Edge 49, Type (0, 0), BuildingBlock: KIFKEQ_clean_linker_1, # of connection points: 2
#     Edge 50, Type (0, 0), BuildingBlock: KIFKEQ_clean_linker_1, # of connection points: 2
#     Edge 51, Type (0, 0), BuildingBlock: KIFKEQ_clean_linker_1, # of connection points: 2
#     Edge 52, Type (0, 0), BuildingBlock: KIFKEQ_clean_linker_1, # of connection points: 2
#     Edge 53, Type (0, 0), BuildingBlock: KIFKEQ_clean_linker_1, # of connection points: 2
#     Edge 54, Type (0, 0), BuildingBlock: KIFKEQ_clean_linker_1, # of connection points: 2
#     Edge 55, Type (0, 0), BuildingBlock: KIFKEQ_clean_linker_1, # of connection points: 2
#     Edge 56, Type (0, 0), BuildingBlock: KIFKEQ_clean_linker_1, # of connection points: 2
#     Edge 57, Type (0, 0), BuildingBlock: KIFKEQ_clean_linker_1, # of connection points: 2
#     Edge 58, Type (0, 0), BuildingBlock: KIFKEQ_clean_linker_1, # of connection points: 2
#     Edge 59, Type (0, 0), BuildingBlock: KIFKEQ_clean_linker_1, # of connection points: 2
#     Edge 60, Type (0, 0), BuildingBlock: KIFKEQ_clean_linker_1, # of connection points: 2
#     Edge 61, Type (0, 0), BuildingBlock: KIFKEQ_clean_linker_1, # of connection points: 2
#     Edge 62, Type (0, 0), BuildingBlock: KIFKEQ_clean_linker_1, # of connection points: 2
#     Edge 63, Type (0, 0), BuildingBlock: KIFKEQ_clean_linker_1, # of connection points: 2
#     Edge 64, Type (0, 0), BuildingBlock: KIFKEQ_clean_linker_1, # of connection points: 2
#     Edge 65, Type (0, 0), BuildingBlock: KIFKEQ_clean_linker_1, # of connection points: 2
#     Edge 66, Type (0, 0), BuildingBlock: KIFKEQ_clean_linker_1, # of connection points: 2
#     Edge 67, Type (0, 0), BuildingBlock: KIFKEQ_clean_linker_1, # of connection points: 2
#     Edge 68, Type (0, 0), BuildingBlock: KIFKEQ_clean_linker_1, # of connection points: 2
#     Edge 69, Type (0, 0), BuildingBlock: KIFKEQ_clean_linker_1, # of connection points: 2
#     Edge 70, Type (0, 0), BuildingBlock: KIFKEQ_clean_linker_1, # of connection points: 2
#     Edge 71, Type (0, 0), BuildingBlock: KIFKEQ_clean_linker_1, # of connection points: 2
#     Edge 72, Type (0, 0), BuildingBlock: KIFKEQ_clean_linker_1, # of connection points: 2
#     Edge 73, Type (0, 0), BuildingBlock: KIFKEQ_clean_linker_1, # of connection points: 2
#     Edge 74, Type (0, 0), BuildingBlock: KIFKEQ_clean_linker_1, # of connection points: 2
#     Edge 75, Type (0, 0), BuildingBlock: KIFKEQ_clean_linker_1, # of connection points: 2
#     Edge 76, Type (0, 0), BuildingBlock: KIFKEQ_clean_linker_1, # of connection points: 2
#     Edge 77, Type (0, 0), BuildingBlock: KIFKEQ_clean_linker_1, # of connection points: 2
#     Edge 78, Type (0, 0), BuildingBlock: KIFKEQ_clean_linker_1, # of connection points: 2
#     Edge 79, Type (0, 0), BuildingBlock: KIFKEQ_clean_linker_1, # of connection points: 2
#     Edge 80, Type (0, 0), BuildingBlock: KIFKEQ_clean_linker_1, # of connection points: 2
#     Edge 81, Type (0, 0), BuildingBlock: KIFKEQ_clean_linker_1, # of connection points: 2
#     Edge 82, Type (0, 0), BuildingBlock: KIFKEQ_clean_linker_1, # of connection points: 2
#     Edge 83, Type (0, 0), BuildingBlock: KIFKEQ_clean_linker_1, # of connection points: 2
#     Edge 84, Type (0, 0), BuildingBlock: KIFKEQ_clean_linker_1, # of connection points: 2
#     Edge 85, Type (0, 0), BuildingBlock: KIFKEQ_clean_linker_1, # of connection points: 2
#     Edge 86, Type (0, 0), BuildingBlock: KIFKEQ_clean_linker_1, # of connection points: 2
#     Edge 87, Type (0, 0), BuildingBlock: KIFKEQ_clean_linker_1, # of connection points: 2
#     Edge 88, Type (0, 0), BuildingBlock: KIFKEQ_clean_linker_1, # of connection points: 2
#     Edge 89, Type (0, 0), BuildingBlock: KIFKEQ_clean_linker_1, # of connection points: 2
#     Edge 90, Type (0, 0), BuildingBlock: KIFKEQ_clean_linker_1, # of connection points: 2
#     Edge 91, Type (0, 0), BuildingBlock: KIFKEQ_clean_linker_1, # of connection points: 2
#     Edge 92, Type (0, 0), BuildingBlock: KIFKEQ_clean_linker_1, # of connection points: 2
#     Edge 93, Type (0, 0), BuildingBlock: KIFKEQ_clean_linker_1, # of connection points: 2
#     Edge 94, Type (0, 0), BuildingBlock: KIFKEQ_clean_linker_1, # of connection points: 2
#     Edge 95, Type (0, 0), BuildingBlock: KIFKEQ_clean_linker_1, # of connection points: 2
#     Edge 96, Type (0, 0), BuildingBlock: KIFKEQ_clean_linker_1, # of connection points: 2
#     Edge 97, Type (0, 0), BuildingBlock: KIFKEQ_clean_linker_1, # of connection points: 2
#     Edge 98, Type (0, 0), BuildingBlock: KIFKEQ_clean_linker_1, # of connection points: 2
#     Edge 99, Type (0, 0), BuildingBlock: KIFKEQ_clean_linker_1, # of connection points: 2
#     Edge 100, Type (0, 0), BuildingBlock: KIFKEQ_clean_linker_1, # of connection points: 2
#     Edge 101, Type (0, 0), BuildingBlock: KIFKEQ_clean_linker_1, # of connection points: 2
#     Edge 102, Type (0, 0), BuildingBlock: KIFKEQ_clean_linker_1, # of connection points: 2
#     Edge 103, Type (0, 0), BuildingBlock: KIFKEQ_clean_linker_1, # of connection points: 2
#     Edge 104, Type (0, 0), BuildingBlock: KIFKEQ_clean_linker_1, # of connection points: 2
#     Edge 105, Type (0, 0), BuildingBlock: KIFKEQ_clean_linker_1, # of connection points: 2
#     Edge 106, Type (0, 0), BuildingBlock: KIFKEQ_clean_linker_1, # of connection points: 2
#     Edge 107, Type (0, 0), BuildingBlock: KIFKEQ_clean_linker_1, # of connection points: 2
# Relax obj value: 0.079
# Max RMSD: 0.154
# Mean RMSD: 0.154
data_MOF--net-ato--node1-QUQFOY_clean_sbu_1--edge1-KIFKEQ_clean_linker_1
_symmetry_space_group_name_H-M    P1
_symmetry_Int_Tables_number       1
_symmetry_cell_setting            triclinic
loop_
_symmetry_equiv_pos_as_xyz
'x, y, z'
_cell_length_a     112.69642
_cell_length_b     112.65506
_cell_length_c     24.734799
_cell_angle_alpha  90.012035
_cell_angle_beta   89.994853
_cell_angle_gamma 120.0327
loop_
_atom_site_label
_atom_site_type_symbol
_atom_site_fract_x
_atom_site_fract_y
_atom_site_fract_z
_atom_type_partial_charge
O0 O 0.24548 0.03165 0.18574 0.0
Cd1 Cd 0.25775 0.04252 0.25025 0.0
Cd2 Cd 0.25656 0.06392 0.18799 0.0
O3 O 0.24319 0.04742 0.14168 0.0
O4 O 0.25668 0.02716 0.29401 0.0
O5 O 0.24921 0.04071 0.324 0.0
C6 C 0.25079 0.03024 0.33157 0.0
C7 C 0.25192 0.08195 0.19681 0.0
C8 C 0.24044 0.03509 0.14696 0.0
C9 C 0.28418 0.06573 0.20627 0.0
O10 O 0.27709 0.07008 0.18259 0.0
O11 O 0.27856 0.05536 0.23738 0.0
O12 O 0.25611 0.07948 0.15209 0.0
O13 O 0.25006 0.07395 0.23724 0.0
O14 O 0.97079 0.21488 0.18972 0.0
Cd15 Cd 0.95909 0.21538 0.25243 0.0
Cd16 Cd 0.9386 0.19167 0.1954 0.0
O17 O 0.95548 0.1959 0.149 0.0
O18 O 0.97303 0.23038 0.29844 0.0
O19 O 0.96127 0.20888 0.32601 0.0
C20 C 0.97062 0.22141 0.33539 0.0
C21 C 0.92238 0.16849 0.20786 0.0
C22 C 0.96758 0.20605 0.15242 0.0
C23 C 0.93454 0.2162 0.20739 0.0
O24 O 0.93041 0.20437 0.18735 0.0
O25 O 0.94537 0.22202 0.23591 0.0
O26 O 0.92445 0.17432 0.1614 0.0
O27 O 0.92965 0.17578 0.24816 0.0
O28 O 0.78479 0.75457 0.18895 0.0
Cd29 Cd 0.78635 0.74407 0.25457 0.0
Cd30 Cd 0.80906 0.74759 0.19348 0.0
O31 O 0.80449 0.76024 0.14943 0.0
O32 O 0.77206 0.74285 0.30554 0.0
O33 O 0.79424 0.75492 0.32343 0.0
C34 C 0.78177 0.75091 0.33761 0.0
C35 C 0.83219 0.75427 0.20551 0.0
C36 C 0.79356 0.76086 0.15194 0.0
C37 C 0.78555 0.71888 0.20917 0.0
O38 O 0.79628 0.72685 0.18264 0.0
O39 O 0.78068 0.72365 0.24377 0.0
O40 O 0.82641 0.75099 0.1588 0.0
O41 O 0.8249 0.75404 0.24618 0.0
O42 O 0.03184 0.24664 0.81395 0.0
Cd43 Cd 0.0429 0.25857 0.749 0.0
Cd44 Cd 0.06399 0.25676 0.8093 0.0
O45 O 0.04741 0.24346 0.85515 0.0
O46 O 0.02824 0.25875 0.70471 0.0
O47 O 0.04019 0.24932 0.67625 0.0
C48 C 0.03052 0.25208 0.66784 0.0
C49 C 0.08163 0.25162 0.79953 0.0
C50 C 0.03522 0.24121 0.85149 0.0
C51 C 0.06665 0.28468 0.79275 0.0
O52 O 0.07067 0.27736 0.81678 0.0
O53 O 0.05638 0.27928 0.76112 0.0
O54 O 0.07925 0.25569 0.8447 0.0
O55 O 0.07376 0.25017 0.75913 0.0
O56 O 0.75317 0.78507 0.8091 0.0
Cd57 Cd 0.7427 0.78653 0.74318 0.0
Cd58 Cd 0.74585 0.80924 0.80402 0.0
O59 O 0.75831 0.8046 0.84903 0.0
O60 O 0.74171 0.77234 0.69222 0.0
O61 O 0.75364 0.79455 0.67463 0.0
C62 C 0.74976 0.78211 0.66036 0.0
C63 C 0.75287 0.83248 0.79271 0.0
C64 C 0.75919 0.79381 0.8465 0.0
C65 C 0.71725 0.7856 0.78685 0.0
O66 O 0.72505 0.79645 0.81317 0.0
O67 O 0.72222 0.7807 0.75331 0.0
O68 O 0.74922 0.82655 0.83905 0.0
O69 O 0.75271 0.82525 0.75193 0.0
O70 O 0.21461 0.96966 0.8113 0.0
Cd71 Cd 0.21607 0.95885 0.74673 0.0
Cd72 Cd 0.1935 0.9373 0.80954 0.0
O73 O 0.1966 0.95383 0.85558 0.0
O74 O 0.23034 0.97425 0.70303 0.0
O75 O 0.20933 0.96066 0.67302 0.0
C76 C 0.22137 0.97116 0.66548 0.0
C77 C 0.17086 0.9191 0.8019 0.0
C78 C 0.20614 0.96619 0.85017 0.0
C79 C 0.21945 0.93574 0.79066 0.0
O80 O 0.20802 0.93132 0.81448 0.0
O81 O 0.22413 0.94609 0.75949 0.0
O82 O 0.17768 0.92171 0.84627 0.0
O83 O 0.17682 0.92705 0.76116 0.0
O84 O 0.75682 0.97078 0.81214 0.0
Cd85 Cd 0.74437 0.95964 0.74898 0.0
Cd86 Cd 0.7466 0.93828 0.80711 0.0
O87 O 0.7595 0.95498 0.85413 0.0
O88 O 0.74402 0.97415 0.7043 0.0
O89 O 0.75292 0.96176 0.67515 0.0
C90 C 0.75025 0.9715 0.66673 0.0
C91 C 0.75212 0.92084 0.79874 0.0
C92 C 0.76204 0.96728 0.85002 0.0
C93 C 0.71844 0.93555 0.79227 0.0
O94 O 0.7258 0.931 0.81202 0.0
O95 O 0.72382 0.94653 0.76466 0.0
O96 O 0.7478 0.92318 0.8434 0.0
O97 O 0.75367 0.9287 0.75815 0.0
O98 O 0.02935 0.78766 0.81419 0.0
Cd99 Cd 0.04043 0.78548 0.75298 0.0
Cd100 Cd 0.062 0.80916 0.8106 0.0
O101 O 0.04527 0.8062 0.85543 0.0
O102 O 0.02536 0.7709 0.70916 0.0
O103 O 0.03929 0.79167 0.67743 0.0
C104 C 0.02879 0.7796 0.6703 0.0
C105 C 0.07974 0.83192 0.80045 0.0
C106 C 0.03289 0.79664 0.85108 0.0
C107 C 0.06386 0.78309 0.80002 0.0
O108 O 0.06863 0.79515 0.81872 0.0
O109 O 0.05297 0.77756 0.77174 0.0
O110 O 0.07694 0.82575 0.84638 0.0
O111 O 0.07233 0.82522 0.75941 0.0
O112 O 0.21427 0.24467 0.81146 0.0
Cd113 Cd 0.21608 0.25752 0.74916 0.0
Cd114 Cd 0.1917 0.25453 0.80289 0.0
O115 O 0.19527 0.24152 0.85019 0.0
O116 O 0.23081 0.25736 0.70527 0.0
O117 O 0.20982 0.24972 0.67431 0.0
C118 C 0.22201 0.25166 0.66693 0.0
C119 C 0.16866 0.2483 0.79186 0.0
C120 C 0.20514 0.23914 0.84774 0.0
C121 C 0.21695 0.28303 0.79223 0.0
O122 O 0.20481 0.27541 0.80955 0.0
O123 O 0.22314 0.27795 0.7665 0.0
O124 O 0.17476 0.25215 0.83778 0.0
O125 O 0.1756 0.24781 0.75125 0.0
O126 O 0.96956 0.7571 0.18786 0.0
Cd127 Cd 0.95912 0.74405 0.25059 0.0
Cd128 Cd 0.93683 0.74553 0.19511 0.0
O129 O 0.95304 0.75868 0.14651 0.0
O130 O 0.97458 0.74515 0.29354 0.0
O131 O 0.96047 0.7517 0.32562 0.0
C132 C 0.97114 0.75043 0.33235 0.0
C133 C 0.91906 0.75057 0.20368 0.0
C134 C 0.96555 0.76192 0.15023 0.0
C135 C 0.93529 0.71773 0.20906 0.0
O136 O 0.93015 0.7248 0.19176 0.0
O137 O 0.94668 0.72341 0.23405 0.0
O138 O 0.92126 0.74598 0.15944 0.0
O139 O 0.92715 0.75254 0.24388 0.0
O140 O 0.24321 0.21398 0.18614 0.0
Cd141 Cd 0.25635 0.21611 0.24778 0.0
Cd142 Cd 0.25391 0.19209 0.1919 0.0
O143 O 0.24046 0.19528 0.14593 0.0
O144 O 0.25603 0.23084 0.29115 0.0
O145 O 0.24895 0.21006 0.32335 0.0
C146 C 0.25067 0.22219 0.33016 0.0
C147 C 0.24844 0.16921 0.20226 0.0
C148 C 0.23779 0.20494 0.14943 0.0
C149 C 0.28204 0.21793 0.20184 0.0
O150 O 0.27462 0.2058 0.18399 0.0
O151 O 0.27679 0.22372 0.22918 0.0
O152 O 0.25199 0.17537 0.15637 0.0
O153 O 0.24783 0.17598 0.2432 0.0
O154 O 0.78679 0.03172 0.18741 0.0
Cd155 Cd 0.7857 0.04285 0.25109 0.0
Cd156 Cd 0.80949 0.06413 0.194 0.0
O157 O 0.80542 0.04749 0.14607 0.0
O158 O 0.77082 0.02841 0.29593 0.0
O159 O 0.79222 0.04054 0.32439 0.0
C160 C 0.77977 0.0309 0.33307 0.0
C161 C 0.8326 0.08115 0.20261 0.0
C162 C 0.79554 0.03524 0.14963 0.0
C163 C 0.78445 0.06744 0.20983 0.0
O164 O 0.79635 0.07188 0.19019 0.0
O165 O 0.77862 0.05629 0.23645 0.0
O166 O 0.82596 0.0791 0.15806 0.0
O167 O 0.82618 0.07327 0.24298 0.0
O168 O 0.91395 0.36436 0.51905 0.0
Cd169 Cd 0.92626 0.37533 0.58283 0.0
Cd170 Cd 0.92433 0.39697 0.52392 0.0
O171 O 0.91146 0.38026 0.4768 0.0
O172 O 0.92632 0.36069 0.62762 0.0
O173 O 0.91747 0.37317 0.65619 0.0
C174 C 0.92001 0.36335 0.66481 0.0
C175 C 0.91921 0.41474 0.52987 0.0
C176 C 0.90885 0.36794 0.48095 0.0
C177 C 0.95238 0.39948 0.54121 0.0
O178 O 0.94511 0.40407 0.52098 0.0
O179 O 0.94688 0.38842 0.56837 0.0
O180 O 0.92366 0.41219 0.48603 0.0
O181 O 0.91724 0.40688 0.57092 0.0
O182 O 0.63736 0.54895 0.51964 0.0
Cd183 Cd 0.62604 0.5495 0.58432 0.0
Cd184 Cd 0.60524 0.52654 0.52227 0.0
O185 O 0.62206 0.53025 0.4771 0.0
O186 O 0.64047 0.56444 0.62928 0.0
O187 O 0.62872 0.543 0.65732 0.0
C188 C 0.63823 0.5555 0.66614 0.0
C189 C 0.5877 0.50362 0.5307 0.0
C190 C 0.63419 0.5403 0.48152 0.0
C191 C 0.60229 0.55164 0.53903 0.0
O192 O 0.59843 0.54036 0.51475 0.0
O193 O 0.61242 0.55651 0.57133 0.0
O194 O 0.59021 0.5102 0.48578 0.0
O195 O 0.59539 0.50999 0.57159 0.0
O196 O 0.45362 0.09019 0.52173 0.0
Cd197 Cd 0.45149 0.07729 0.58434 0.0
Cd198 Cd 0.47535 0.07932 0.52914 0.0
O199 O 0.47221 0.09259 0.48189 0.0
O200 O 0.43706 0.07805 0.62816 0.0
O201 O 0.45794 0.08511 0.65909 0.0
C202 C 0.44591 0.08358 0.66644 0.0
C203 C 0.49826 0.08492 0.53928 0.0
C204 C 0.46263 0.0954 0.48488 0.0
C205 C 0.44947 0.05128 0.54095 0.0
O206 O 0.4616 0.05857 0.52291 0.0
O207 O 0.44373 0.05672 0.56742 0.0
O208 O 0.49199 0.08106 0.49369 0.0
O209 O 0.49156 0.08571 0.58011 0.0
O210 O 0.69943 0.58037 0.14436 0.0
Cd211 Cd 0.71076 0.59214 0.07952 0.0
Cd212 Cd 0.73132 0.5894 0.13984 0.0
O213 O 0.7145 0.57636 0.18521 0.0
O214 O 0.69643 0.59276 0.03435 0.0
O215 O 0.70798 0.58282 0.00685 0.0
C216 C 0.69856 0.58591 0.99782 0.0
C217 C 0.74876 0.58393 0.13073 0.0
C218 C 0.70249 0.57462 0.18171 0.0
C219 C 0.73487 0.61775 0.12445 0.0
O220 O 0.73849 0.61007 0.14815 0.0
O221 O 0.72469 0.61273 0.09238 0.0
O222 O 0.74624 0.58787 0.17595 0.0
O223 O 0.74107 0.58271 0.08996 0.0
O224 O 0.42455 0.12126 0.14733 0.0
Cd225 Cd 0.41181 0.11977 0.08466 0.0
Cd226 Cd 0.41351 0.14259 0.14606 0.0
O227 O 0.42743 0.13976 0.18966 0.0
O228 O 0.41219 0.1051 0.04099 0.0
O229 O 0.41972 0.12603 0.00976 0.0
C230 C 0.41787 0.11386 0.00258 0.0
C231 C 0.41862 0.16531 0.13451 0.0
C232 C 0.43004 0.13008 0.18478 0.0
C233 C 0.38577 0.11684 0.1327 0.0
O234 O 0.39301 0.12834 0.15596 0.0
O235 O 0.39119 0.11209 0.10051 0.0
O236 O 0.41537 0.15936 0.18089 0.0
O237 O 0.41905 0.15838 0.09375 0.0
O238 O 0.88231 0.30297 0.14385 0.0
Cd239 Cd 0.88317 0.29175 0.07999 0.0
Cd240 Cd 0.85938 0.27061 0.13851 0.0
O241 O 0.86375 0.28738 0.18622 0.0
O242 O 0.89818 0.30613 0.03536 0.0
O243 O 0.8768 0.29427 0.00663 0.0
C244 C 0.8893 0.30379 0.99812 0.0
C245 C 0.83623 0.2536 0.13104 0.0
C246 C 0.8737 0.29959 0.18212 0.0
C247 C 0.88425 0.26707 0.12133 0.0
O248 O 0.87243 0.26276 0.1416 0.0
O249 O 0.89008 0.27816 0.09437 0.0
O250 O 0.843 0.25573 0.17529 0.0
O251 O 0.84253 0.26143 0.09039 0.0
O252 O 0.42175 0.3038 0.14235 0.0
Cd253 Cd 0.40957 0.29301 0.07795 0.0
Cd254 Cd 0.41146 0.27114 0.13633 0.0
O255 O 0.4241 0.28777 0.18427 0.0
O256 O 0.40952 0.30778 0.03382 0.0
O257 O 0.41847 0.29543 0.00464 0.0
C258 C 0.4159 0.30525 0.99646 0.0
C259 C 0.41666 0.25342 0.13112 0.0
C260 C 0.42673 0.3001 0.18055 0.0
C261 C 0.38341 0.26863 0.11831 0.0
O262 O 0.39066 0.26398 0.13829 0.0
O263 O 0.38893 0.2798 0.09185 0.0
O264 O 0.41205 0.25592 0.17459 0.0
O265 O 0.41874 0.26128 0.09 0.0
O266 O 0.69778 0.11974 0.14478 0.0
Cd267 Cd 0.70934 0.11912 0.08174 0.0
Cd268 Cd 0.73005 0.14286 0.13879 0.0
O269 O 0.7132 0.13871 0.18527 0.0
O270 O 0.69528 0.10421 0.03575 0.0
O271 O 0.70714 0.12572 0.0084 0.0
C272 C 0.69771 0.11322 0.99897 0.0
C273 C 0.74644 0.16604 0.12705 0.0
C274 C 0.70107 0.1286 0.18201 0.0
C275 C 0.73391 0.1182 0.12593 0.0
O276 O 0.7381 0.13002 0.14609 0.0
O277 O 0.72303 0.11241 0.09767 0.0
O278 O 0.74431 0.16009 0.17328 0.0
O279 O 0.73913 0.15887 0.08659 0.0
O280 O 0.88148 0.57748 0.14342 0.0
Cd281 Cd 0.88349 0.59046 0.08132 0.0
Cd282 Cd 0.85957 0.58806 0.13572 0.0
O283 O 0.86269 0.57474 0.18264 0.0
O284 O 0.89795 0.5899 0.03703 0.0
O285 O 0.87701 0.58274 0.0065 0.0
C286 C 0.88908 0.58436 0.99885 0.0
C287 C 0.83663 0.58215 0.1239 0.0
C288 C 0.87237 0.57208 0.17985 0.0
C289 C 0.88526 0.61625 0.12586 0.0
O290 O 0.87312 0.60883 0.14352 0.0
O291 O 0.89111 0.61097 0.09903 0.0
O292 O 0.84264 0.58589 0.17003 0.0
O293 O 0.84362 0.5817 0.08344 0.0
O294 O 0.63662 0.08916 0.52029 0.0
Cd295 Cd 0.62556 0.07709 0.58491 0.0
Cd296 Cd 0.60434 0.07851 0.52303 0.0
O297 O 0.62098 0.09202 0.47784 0.0
O298 O 0.64029 0.07693 0.62888 0.0
O299 O 0.62818 0.08611 0.65816 0.0
C300 C 0.6379 0.08341 0.66623 0.0
C301 C 0.58632 0.08313 0.53204 0.0
C302 C 0.63323 0.09447 0.48229 0.0
C303 C 0.60222 0.05082 0.53995 0.0
O304 O 0.59808 0.058 0.51555 0.0
O305 O 0.61236 0.05635 0.57215 0.0
O306 O 0.58896 0.07923 0.48697 0.0
O307 O 0.59418 0.08475 0.5727 0.0
O308 O 0.91034 0.54643 0.51775 0.0
Cd309 Cd 0.92312 0.54813 0.58062 0.0
Cd310 Cd 0.92176 0.52538 0.51926 0.0
O311 O 0.90779 0.52806 0.4754 0.0
O312 O 0.92254 0.56276 0.62386 0.0
O313 O 0.91522 0.5419 0.65554 0.0
C314 C 0.91694 0.55403 0.66243 0.0
C315 C 0.91691 0.50271 0.52979 0.0
C316 C 0.905 0.53761 0.48022 0.0
C317 C 0.94933 0.55133 0.53328 0.0
O318 O 0.94222 0.5398 0.51005 0.0
O319 O 0.94378 0.55601 0.56513 0.0
O320 O 0.92022 0.50882 0.48373 0.0
O321 O 0.91628 0.50946 0.57083 0.0
O322 O 0.45331 0.36516 0.51824 0.0
Cd323 Cd 0.45305 0.37689 0.58135 0.0
Cd324 Cd 0.47703 0.39729 0.52349 0.0
O325 O 0.47239 0.38021 0.47732 0.0
O326 O 0.43792 0.36303 0.62719 0.0
O327 O 0.45943 0.3744 0.65471 0.0
C328 C 0.44685 0.3652 0.66402 0.0
C329 C 0.50027 0.41351 0.53475 0.0
C330 C 0.46209 0.36819 0.48086 0.0
C331 C 0.45285 0.40189 0.53747 0.0
O332 O 0.46457 0.40579 0.51689 0.0
O333 O 0.44686 0.391 0.56565 0.0
O334 O 0.4943 0.41134 0.48856 0.0
O335 O 0.49312 0.40625 0.57533 0.0
O336 O 0.5786 0.6974 0.85514 0.0
Cd337 Cd 0.59088 0.70902 0.91833 0.0
Cd338 Cd 0.58758 0.72925 0.85938 0.0
O339 O 0.57411 0.71227 0.81571 0.0
O340 O 0.59099 0.69444 0.96363 0.0
O341 O 0.58243 0.70719 0.99219 0.0
C342 C 0.58474 0.69722 0.00074 0.0
C343 C 0.58157 0.74619 0.87142 0.0
C344 C 0.57246 0.70029 0.81895 0.0
C345 C 0.61611 0.73305 0.87067 0.0
O346 O 0.60823 0.73657 0.84797 0.0
O347 O 0.61135 0.7229 0.90299 0.0
O348 O 0.58478 0.74358 0.82479 0.0
O349 O 0.58163 0.73906 0.91217 0.0
O350 O 0.30434 0.88018 0.85114 0.0
Cd351 Cd 0.29313 0.88187 0.9135 0.0
Cd352 Cd 0.27192 0.85906 0.85238 0.0
O353 O 0.28864 0.86165 0.80924 0.0
O354 O 0.30822 0.89648 0.95723 0.0
O355 O 0.29463 0.8756 0.98855 0.0
C356 C 0.30501 0.88773 0.99575 0.0
C357 C 0.25406 0.83643 0.86366 0.0
C358 C 0.30096 0.87127 0.81402 0.0
C359 C 0.27021 0.88498 0.86483 0.0
O360 O 0.26588 0.87345 0.84181 0.0
O361 O 0.28034 0.8897 0.89717 0.0
O362 O 0.25693 0.8424 0.81729 0.0
O363 O 0.26141 0.8433 0.90457 0.0
O364 O 0.12349 0.42528 0.85142 0.0
Cd365 Cd 0.12151 0.41247 0.91463 0.0
Cd366 Cd 0.14432 0.41372 0.85409 0.0
O367 O 0.14165 0.42747 0.80853 0.0
O368 O 0.107 0.4133 0.95765 0.0
O369 O 0.12778 0.42035 0.98953 0.0
C370 C 0.11572 0.4188 0.99632 0.0
C371 C 0.16693 0.41833 0.86479 0.0
C372 C 0.13222 0.43043 0.81347 0.0
C373 C 0.11821 0.38616 0.86854 0.0
O374 O 0.12986 0.39324 0.84627 0.0
O375 O 0.11339 0.39175 0.89944 0.0
O376 O 0.16055 0.41439 0.81939 0.0
O377 O 0.1605 0.41987 0.90495 0.0
O378 O 0.36421 0.9107 0.47711 0.0
Cd379 Cd 0.37496 0.92373 0.41475 0.0
Cd380 Cd 0.39689 0.92179 0.46974 0.0
O381 O 0.38049 0.90842 0.51688 0.0
O382 O 0.35973 0.92296 0.37116 0.0
O383 O 0.37363 0.91605 0.33976 0.0
C384 C 0.36309 0.91753 0.33262 0.0
C385 C 0.41428 0.91631 0.4597 0.0
C386 C 0.36807 0.90553 0.51387 0.0
C387 C 0.39888 0.94976 0.45848 0.0
O388 O 0.40379 0.94252 0.47623 0.0
O389 O 0.38768 0.94429 0.4321 0.0
O390 O 0.41182 0.92014 0.50528 0.0
O391 O 0.40679 0.91549 0.41882 0.0
O392 O 0.0929 0.4549 0.47758 0.0
Cd393 Cd 0.07982 0.45269 0.41563 0.0
Cd394 Cd 0.08187 0.47651 0.47188 0.0
O395 O 0.09542 0.47351 0.51789 0.0
O396 O 0.08049 0.43822 0.37174 0.0
O397 O 0.08739 0.45905 0.34052 0.0
C398 C 0.08588 0.44701 0.33322 0.0
C399 C 0.087 0.49931 0.46234 0.0
C400 C 0.09823 0.46393 0.51435 0.0
C401 C 0.05391 0.45048 0.46079 0.0
O402 O 0.0612 0.46258 0.47903 0.0
O403 O 0.0593 0.44482 0.43349 0.0
O404 O 0.08344 0.49302 0.50798 0.0
O405 O 0.08783 0.49271 0.4212 0.0
O406 O 0.5469 0.63617 0.48005 0.0
Cd407 Cd 0.54865 0.62552 0.4155 0.0
Cd408 Cd 0.52553 0.60383 0.47519 0.0
O409 O 0.5287 0.62013 0.52268 0.0
O410 O 0.5632 0.64099 0.37286 0.0
O411 O 0.54234 0.6275 0.34112 0.0
C412 C 0.55443 0.63798 0.33449 0.0
C413 C 0.50273 0.58608 0.46578 0.0
C414 C 0.53828 0.63249 0.51844 0.0
C415 C 0.55141 0.602 0.45923 0.0
O416 O 0.53972 0.59746 0.48108 0.0
O417 O 0.55649 0.61262 0.42936 0.0
O418 O 0.50934 0.58832 0.51049 0.0
O419 O 0.50902 0.5941 0.42557 0.0
O420 O 0.08983 0.63677 0.47904 0.0
Cd421 Cd 0.0773 0.62571 0.41548 0.0
Cd422 Cd 0.07856 0.60448 0.47845 0.0
O423 O 0.09224 0.62111 0.52344 0.0
O424 O 0.07814 0.64095 0.37172 0.0
O425 O 0.08553 0.62738 0.34124 0.0
C426 C 0.08389 0.63781 0.33379 0.0
C427 C 0.08305 0.58637 0.46927 0.0
C428 C 0.09503 0.63344 0.5176 0.0
C429 C 0.05095 0.60273 0.46114 0.0
O430 O 0.05806 0.59843 0.485 0.0
O431 O 0.05654 0.61297 0.42937 0.0
O432 O 0.07907 0.58895 0.51428 0.0
O433 O 0.08478 0.59431 0.42876 0.0
O434 O 0.36589 0.4502 0.47593 0.0
Cd435 Cd 0.37793 0.45295 0.40951 0.0
Cd436 Cd 0.3965 0.47572 0.47048 0.0
O437 O 0.37893 0.47027 0.51481 0.0
O438 O 0.36512 0.43887 0.35753 0.0
O439 O 0.37454 0.46113 0.34253 0.0
C440 C 0.36638 0.44869 0.32707 0.0
C441 C 0.41232 0.49909 0.45988 0.0
C442 C 0.36781 0.45883 0.5128 0.0
C443 C 0.40286 0.45295 0.45138 0.0
O444 O 0.40551 0.46367 0.47791 0.0
O445 O 0.39288 0.44769 0.4184 0.0
O446 O 0.41002 0.49313 0.50616 0.0
O447 O 0.40533 0.49186 0.41894 0.0
O448 O 0.54739 0.91051 0.47872 0.0
Cd449 Cd 0.54913 0.92328 0.41571 0.0
Cd450 Cd 0.5264 0.92178 0.47728 0.0
O451 O 0.52905 0.90784 0.52166 0.0
O452 O 0.56355 0.92248 0.37198 0.0
O453 O 0.54265 0.91529 0.3411 0.0
C454 C 0.55471 0.91688 0.33376 0.0
C455 C 0.50393 0.9176 0.46769 0.0
C456 C 0.53864 0.90511 0.51645 0.0
C457 C 0.55244 0.94942 0.46282 0.0
O458 O 0.54091 0.94221 0.48579 0.0
O459 O 0.55719 0.94399 0.43083 0.0
O460 O 0.51036 0.92127 0.51303 0.0
O461 O 0.51016 0.91597 0.42706 0.0
O462 O 0.30333 0.41852 0.85901 0.0
Cd463 Cd 0.29113 0.40901 0.92482 0.0
Cd464 Cd 0.27265 0.41315 0.86369 0.0
O465 O 0.2903 0.42552 0.82016 0.0
O466 O 0.30384 0.40784 0.97752 0.0
O467 O 0.29415 0.42045 0.99191 0.0
C468 C 0.30236 0.41629 0.00785 0.0
C469 C 0.25673 0.42054 0.87437 0.0
C470 C 0.30144 0.42529 0.82236 0.0
C471 C 0.2665 0.38403 0.88144 0.0
O472 O 0.26384 0.39211 0.85509 0.0
O473 O 0.27635 0.38874 0.915 0.0
O474 O 0.25915 0.41703 0.82798 0.0
O475 O 0.26362 0.42019 0.91543 0.0
O476 O 0.57798 0.88053 0.85233 0.0
Cd477 Cd 0.59081 0.88287 0.9155 0.0
Cd478 Cd 0.58908 0.85907 0.86 0.0
O479 O 0.5761 0.86228 0.81108 0.0
O480 O 0.58972 0.89718 0.95887 0.0
O481 O 0.58291 0.87637 0.99008 0.0
C482 C 0.58426 0.88834 0.9972 0.0
C483 C 0.58404 0.83626 0.8684 0.0
C484 C 0.57308 0.87171 0.81463 0.0
C485 C 0.617 0.88514 0.87444 0.0
O486 O 0.60981 0.87297 0.8568 0.0
O487 O 0.61145 0.89095 0.89964 0.0
O488 O 0.58859 0.84305 0.82417 0.0
O489 O 0.58203 0.84234 0.90862 0.0
O490 O 0.11957 0.69792 0.85283 0.0
Cd491 Cd 0.11724 0.70827 0.91657 0.0
Cd492 Cd 0.14075 0.73062 0.85929 0.0
O493 O 0.13751 0.71438 0.81042 0.0
O494 O 0.10312 0.69272 0.95998 0.0
O495 O 0.12395 0.70687 0.99073 0.0
C496 C 0.11205 0.69614 0.998 0.0
C497 C 0.16348 0.74874 0.86572 0.0
C498 C 0.12822 0.70188 0.81453 0.0
C499 C 0.1145 0.73203 0.87673 0.0
O500 O 0.12659 0.73713 0.85809 0.0
O501 O 0.10891 0.72067 0.90194 0.0
O502 O 0.15639 0.74631 0.82219 0.0
O503 O 0.15776 0.74063 0.90627 0.0
H504 H 0.24219 0.99737 0.65318 0.0
H505 H 0.20832 0.96446 0.56723 0.0
H506 H 0.24825 0.01177 0.57265 0.0
H507 H 0.21464 0.97888 0.48599 0.0
H508 H 0.24503 0.00391 0.34335 0.0
H509 H 0.23677 0.98953 0.42395 0.0
H510 H 0.23684 0.02268 0.51167 0.0
H511 H 0.24487 0.03708 0.43036 0.0
C512 C 0.23605 0.9932 0.61703 0.0
C513 C 0.22481 0.97976 0.61638 0.0
C514 C 0.23947 0.0015 0.57114 0.0
C515 C 0.23189 0.99644 0.5233 0.0
C516 C 0.22065 0.983 0.52248 0.0
C517 C 0.21704 0.97477 0.56885 0.0
C518 C 0.24325 0.00814 0.37975 0.0
C519 C 0.24566 0.02165 0.38068 0.0
C520 C 0.23842 0.99986 0.42569 0.0
C521 C 0.23615 0.005 0.47384 0.0
C522 C 0.23854 0.0185 0.47494 0.0
C523 C 0.24311 0.02672 0.42853 0.0
H524 H 0.02859 0.23343 0.5918 0.0
H525 H 0.0129 0.2603 0.63284 0.0
H526 H 0.01359 0.22546 0.51223 0.0
H527 H 0.99805 0.25238 0.55381 0.0
H528 H 0.98697 0.24728 0.37319 0.0
H529 H 0.00151 0.25439 0.45314 0.0
H530 H 0.98766 0.21204 0.49132 0.0
H531 H 0.97296 0.20483 0.41085 0.0
C532 C 0.02201 0.23767 0.58372 0.0
C533 C 0.02197 0.24753 0.61846 0.0
C534 C 0.01335 0.23303 0.53852 0.0
C535 C 0.00466 0.2383 0.52692 0.0
C536 C 0.00472 0.24821 0.5615 0.0
C537 C 0.01321 0.25272 0.60684 0.0
C538 C 0.98694 0.23945 0.39871 0.0
C539 C 0.97878 0.22548 0.38579 0.0
C540 C 0.99526 0.24354 0.44458 0.0
C541 C 0.99573 0.23378 0.47837 0.0
C542 C 0.98757 0.21979 0.46566 0.0
C543 C 0.97908 0.21567 0.41994 0.0
H544 H 0.76125 0.73586 0.4078 0.0
H545 H 0.79462 0.77682 0.37911 0.0
H546 H 0.75423 0.74386 0.486 0.0
H547 H 0.78698 0.78529 0.45455 0.0
H548 H 0.77575 0.7951 0.61982 0.0
H549 H 0.78443 0.78764 0.54449 0.0
H550 H 0.74312 0.75485 0.51138 0.0
H551 H 0.73492 0.76168 0.58949 0.0
C552 C 0.76704 0.74663 0.41837 0.0
C553 C 0.77847 0.75572 0.38775 0.0
C554 C 0.76291 0.75132 0.46279 0.0
C555 C 0.76978 0.76536 0.47654 0.0
C556 C 0.78145 0.7744 0.44614 0.0
C557 C 0.78585 0.76958 0.40267 0.0
C558 C 0.76859 0.78636 0.59592 0.0
C559 C 0.7547 0.77892 0.61033 0.0
C560 C 0.77353 0.78206 0.55252 0.0
C561 C 0.76458 0.77043 0.52167 0.0
C562 C 0.75052 0.7635 0.53494 0.0
C563 C 0.74571 0.76752 0.5793 0.0
H564 H 0.74149 0.98858 0.6306 0.0
H565 H 0.76871 0.97328 0.59016 0.0
H566 H 0.74903 0.00312 0.55059 0.0
H567 H 0.77632 0.98799 0.50971 0.0
H568 H 0.79649 0.02886 0.40866 0.0
H569 H 0.78944 0.01407 0.48889 0.0
H570 H 0.74699 0.99928 0.44953 0.0
H571 H 0.75394 0.0139 0.36974 0.0
C572 C 0.74906 0.98829 0.6045 0.0
C573 C 0.75448 0.97975 0.61659 0.0
C574 C 0.75334 0.9966 0.55862 0.0
C575 C 0.76327 0.99669 0.52404 0.0
C576 C 0.76873 0.98818 0.536 0.0
C577 C 0.7643 0.9797 0.5817 0.0
C578 C 0.78566 0.02249 0.41739 0.0
C579 C 0.77577 0.02257 0.38302 0.0
C580 C 0.78164 0.01397 0.46296 0.0
C581 C 0.76767 0.00554 0.47531 0.0
C582 C 0.75782 0.00574 0.4412 0.0
C583 C 0.76182 0.0141 0.39545 0.0
H584 H 0.03602 0.79227 0.57139 0.0
H585 H 0.00277 0.75853 0.65656 0.0
H586 H 0.02197 0.78576 0.48911 0.0
H587 H 0.98876 0.75226 0.57493 0.0
H588 H 0.96394 0.7558 0.43137 0.0
H589 H 0.97806 0.76353 0.51337 0.0
H590 H 0.01148 0.7639 0.42668 0.0
H591 H 0.99739 0.75598 0.34525 0.0
C592 C 0.02572 0.78352 0.57257 0.0
C593 C 0.02052 0.77587 0.62026 0.0
C594 C 0.01772 0.7798 0.5256 0.0
C595 C 0.00428 0.76855 0.52592 0.0
C596 C 0.99903 0.76104 0.57378 0.0
C597 C 0.0071 0.76458 0.62032 0.0
C598 C 0.9743 0.75755 0.42991 0.0
C599 C 0.97953 0.75521 0.38205 0.0
C600 C 0.98235 0.76193 0.47673 0.0
C601 C 0.99586 0.76434 0.47612 0.0
C602 C 0.00115 0.76223 0.42805 0.0
C603 C 0.99303 0.7576 0.38163 0.0
H604 H 0.24554 0.24317 0.34272 0.0
H605 H 0.24549 0.2099 0.42977 0.0
H606 H 0.23785 0.24964 0.42403 0.0
H607 H 0.23803 0.21662 0.51172 0.0
H608 H 0.2433 0.24702 0.65364 0.0
H609 H 0.24959 0.2391 0.57248 0.0
H610 H 0.21573 0.238 0.48653 0.0
H611 H 0.2092 0.24568 0.56831 0.0
C612 C 0.24394 0.23727 0.3793 0.0
C613 C 0.24617 0.22605 0.37998 0.0
C614 C 0.23944 0.24093 0.42565 0.0
C615 C 0.23733 0.23361 0.47393 0.0
C616 C 0.23962 0.22244 0.47489 0.0
C617 C 0.24386 0.21859 0.42811 0.0
C618 C 0.23718 0.24509 0.61746 0.0
C619 C 0.22578 0.24703 0.61721 0.0
C620 C 0.24073 0.24046 0.57122 0.0
C621 C 0.23312 0.23792 0.52347 0.0
C622 C 0.22177 0.23992 0.52295 0.0
C623 C 0.21803 0.2443 0.56964 0.0
H624 H 0.90147 0.36173 0.74068 0.0
H625 H 0.92837 0.34597 0.70133 0.0
H626 H 0.89355 0.34698 0.82098 0.0
H627 H 0.92052 0.33139 0.78118 0.0
H628 H 0.91523 0.32057 0.96194 0.0
H629 H 0.92244 0.33519 0.88218 0.0
H630 H 0.88014 0.32091 0.84191 0.0
H631 H 0.87283 0.30612 0.92213 0.0
C632 C 0.90574 0.3552 0.74933 0.0
C633 C 0.91557 0.35503 0.7148 0.0
C634 C 0.90113 0.34669 0.79495 0.0
C635 C 0.90642 0.33804 0.8072 0.0
C636 C 0.91634 0.33802 0.77294 0.0
C637 C 0.9208 0.34635 0.72714 0.0
C638 C 0.90744 0.32048 0.93605 0.0
C639 C 0.89345 0.31215 0.94822 0.0
C640 C 0.91158 0.32884 0.8903 0.0
C641 C 0.90185 0.32919 0.85593 0.0
C642 C 0.88785 0.32091 0.86803 0.0
C643 C 0.88367 0.31237 0.9136 0.0
H644 H 0.64046 0.53891 0.74198 0.0
H645 H 0.65527 0.5814 0.70227 0.0
H646 H 0.65535 0.5461 0.82189 0.0
H647 H 0.67001 0.5885 0.78164 0.0
H648 H 0.68153 0.59473 0.96137 0.0
H649 H 0.66672 0.58693 0.8822 0.0
H650 H 0.68121 0.55902 0.84297 0.0
H651 H 0.69617 0.56688 0.92266 0.0
C652 C 0.64681 0.54975 0.75045 0.0
C653 C 0.64666 0.55958 0.71591 0.0
C654 C 0.65541 0.55386 0.79587 0.0
C655 C 0.66384 0.56786 0.80793 0.0
C656 C 0.66355 0.57764 0.77363 0.0
C657 C 0.65512 0.57356 0.72807 0.0
C658 C 0.68163 0.58697 0.93583 0.0
C659 C 0.69007 0.58146 0.94819 0.0
C660 C 0.67315 0.58253 0.89039 0.0
C661 C 0.6728 0.57237 0.85644 0.0
C662 C 0.6812 0.56679 0.86873 0.0
C663 C 0.68984 0.57137 0.91402 0.0
H664 H 0.42517 0.08905 0.67947 0.0
H665 H 0.45871 0.08931 0.76508 0.0
H666 H 0.4192 0.0973 0.76052 0.0
H667 H 0.4525 0.09733 0.84677 0.0
H668 H 0.42272 0.0927 0.99011 0.0
H669 H 0.4304 0.08616 0.90899 0.0
H670 H 0.43106 0.11963 0.82161 0.0
H671 H 0.4236 0.12643 0.9034 0.0
C672 C 0.43124 0.09082 0.71567 0.0
C673 C 0.44237 0.08847 0.71605 0.0
C674 C 0.42788 0.09565 0.76186 0.0
C675 C 0.43541 0.09797 0.80969 0.0
C676 C 0.44652 0.09558 0.8103 0.0
C677 C 0.45007 0.09101 0.76366 0.0
C678 C 0.42452 0.0987 0.95365 0.0
C679 C 0.4225 0.11005 0.95299 0.0
C680 C 0.42901 0.095 0.90741 0.0
C681 C 0.43134 0.10241 0.85925 0.0
C682 C 0.42929 0.11374 0.85835 0.0
C683 C 0.42506 0.11763 0.90504 0.0
H684 H 0.42092 0.34898 0.70154 0.0
H685 H 0.46324 0.3625 0.73926 0.0
H686 H 0.41364 0.33434 0.78124 0.0
H687 H 0.45588 0.3477 0.81942 0.0
H688 H 0.43429 0.30687 0.91989 0.0
H689 H 0.44225 0.32179 0.84009 0.0
H690 H 0.41568 0.33771 0.88203 0.0
H691 H 0.40778 0.32294 0.96136 0.0
C692 C 0.42868 0.34888 0.727 0.0
C693 C 0.44267 0.35694 0.71419 0.0
C694 C 0.4245 0.3405 0.77273 0.0
C695 C 0.43419 0.33986 0.80646 0.0
C696 C 0.44819 0.34792 0.79381 0.0
C697 C 0.4524 0.35646 0.74826 0.0
C698 C 0.43012 0.31352 0.91183 0.0
C699 C 0.42038 0.31371 0.94681 0.0
C700 C 0.43475 0.32212 0.86648 0.0
C701 C 0.42959 0.33091 0.85495 0.0
C702 C 0.41976 0.33097 0.88968 0.0
C703 C 0.41527 0.32253 0.93519 0.0
H704 H 0.68116 0.08741 0.96094 0.0
H705 H 0.69547 0.12996 0.92402 0.0
H706 H 0.66658 0.08047 0.88106 0.0
H707 H 0.68073 0.12293 0.84367 0.0
H708 H 0.63984 0.10192 0.74298 0.0
H709 H 0.65476 0.10965 0.82281 0.0
H710 H 0.67013 0.08265 0.78026 0.0
H711 H 0.65537 0.07498 0.70094 0.0
C712 C 0.68124 0.0953 0.93561 0.0
C713 C 0.6895 0.10924 0.94869 0.0
C714 C 0.6729 0.09131 0.8898 0.0
C715 C 0.67251 0.10116 0.85624 0.0
C716 C 0.68076 0.11512 0.86915 0.0
C717 C 0.68927 0.11914 0.91479 0.0
C718 C 0.64636 0.09761 0.75091 0.0
C719 C 0.6464 0.08781 0.71579 0.0
C720 C 0.65497 0.10211 0.79626 0.0
C721 C 0.6636 0.09675 0.80764 0.0
C722 C 0.66352 0.08688 0.77273 0.0
C723 C 0.65508 0.08252 0.72722 0.0
H724 H 0.9118 0.57502 0.67444 0.0
H725 H 0.91144 0.54164 0.76189 0.0
H726 H 0.90416 0.58161 0.75556 0.0
H727 H 0.90403 0.54848 0.84365 0.0
H728 H 0.90999 0.57918 0.98508 0.0
H729 H 0.91589 0.57093 0.9039 0.0
H730 H 0.88223 0.57044 0.8187 0.0
H731 H 0.87609 0.57847 0.90056 0.0
C732 C 0.91012 0.56911 0.71105 0.0
C733 C 0.91228 0.55784 0.71194 0.0
C734 C 0.90565 0.57283 0.75729 0.0
C735 C 0.90349 0.56554 0.80567 0.0
C736 C 0.90566 0.55428 0.80675 0.0
C737 C 0.90987 0.55037 0.76008 0.0
C738 C 0.90382 0.57731 0.94908 0.0
C739 C 0.8926 0.57953 0.94906 0.0
C740 C 0.90715 0.57249 0.90282 0.0
C741 C 0.89949 0.57002 0.85526 0.0
C742 C 0.88831 0.5723 0.85497 0.0
C743 C 0.88479 0.57687 0.90169 0.0
H744 H 0.57502 0.66437 0.32405 0.0
H745 H 0.5423 0.63122 0.23454 0.0
H746 H 0.58156 0.67886 0.2436 0.0
H747 H 0.54911 0.64572 0.15344 0.0
H748 H 0.58046 0.67144 0.01434 0.0
H749 H 0.57215 0.65702 0.09487 0.0
H750 H 0.56984 0.68927 0.17972 0.0
H751 H 0.57788 0.70369 0.09842 0.0
C752 C 0.56924 0.66017 0.28713 0.0
C753 C 0.55818 0.64663 0.28547 0.0
C754 C 0.57294 0.66851 0.24128 0.0
C755 C 0.56582 0.6634 0.19251 0.0
C756 C 0.55476 0.64987 0.19066 0.0
C757 C 0.55086 0.6416 0.23696 0.0
C758 C 0.57818 0.67547 0.05013 0.0
C759 C 0.57988 0.68872 0.05019 0.0
C760 C 0.57332 0.66717 0.096 0.0
C761 C 0.57033 0.67203 0.14328 0.0
C762 C 0.5721 0.68531 0.14365 0.0
C763 C 0.57668 0.69353 0.09726 0.0
H764 H 0.37022 0.91196 0.2338 0.0
H765 H 0.33688 0.91209 0.31956 0.0
H766 H 0.35603 0.90407 0.15196 0.0
H767 H 0.32272 0.90399 0.23835 0.0
H768 H 0.29804 0.87512 0.09482 0.0
H769 H 0.31222 0.88181 0.17679 0.0
H770 H 0.3452 0.91529 0.08994 0.0
H771 H 0.33105 0.90884 0.00864 0.0
C772 C 0.35987 0.91026 0.23521 0.0
C773 C 0.35469 0.91273 0.28293 0.0
C774 C 0.35178 0.90577 0.18849 0.0
C775 C 0.33828 0.90339 0.18909 0.0
C776 C 0.33305 0.90564 0.237 0.0
C777 C 0.3412 0.91038 0.28329 0.0
C778 C 0.30832 0.8839 0.09334 0.0
C779 C 0.31341 0.8915 0.04548 0.0
C780 C 0.3164 0.88773 0.14013 0.0
C781 C 0.3298 0.89903 0.13944 0.0
C782 C 0.33495 0.90647 0.09137 0.0
C783 C 0.3268 0.90283 0.04502 0.0
H784 H 0.09116 0.42615 0.31969 0.0
H785 H 0.09151 0.45981 0.23458 0.0
H786 H 0.09926 0.42013 0.23838 0.0
H787 H 0.0994 0.45356 0.15263 0.0
H788 H 0.09477 0.42398 0.00868 0.0
H789 H 0.08828 0.43166 0.08992 0.0
H790 H 0.12146 0.4318 0.17747 0.0
H791 H 0.12819 0.42432 0.0956 0.0
C792 C 0.09292 0.43224 0.28354 0.0
C793 C 0.09064 0.44342 0.28339 0.0
C794 C 0.09766 0.42884 0.23719 0.0
C795 C 0.09998 0.43641 0.18944 0.0
C796 C 0.09765 0.44756 0.18904 0.0
C797 C 0.09316 0.45113 0.23582 0.0
C798 C 0.10071 0.42567 0.0452 0.0
C799 C 0.11196 0.42349 0.04589 0.0
C800 C 0.09704 0.43016 0.09152 0.0
C801 C 0.10439 0.43234 0.13978 0.0
C802 C 0.11562 0.43015 0.14067 0.0
C803 C 0.11948 0.4259 0.09393 0.0
H804 H 0.08986 0.63094 0.23515 0.0
H805 H 0.08905 0.66392 0.32111 0.0
H806 H 0.09754 0.64518 0.15337 0.0
H807 H 0.09694 0.67813 0.24001 0.0
H808 H 0.12495 0.70331 0.09641 0.0
H809 H 0.11891 0.68907 0.17804 0.0
H810 H 0.08584 0.65554 0.09174 0.0
H811 H 0.09165 0.66974 0.01074 0.0
C812 C 0.0914 0.64123 0.23664 0.0
C813 C 0.08877 0.64629 0.28434 0.0
C814 C 0.09576 0.64935 0.18996 0.0
C815 C 0.09787 0.66275 0.19062 0.0
C816 C 0.09551 0.66788 0.2386 0.0
C817 C 0.0909 0.6597 0.28483 0.0
C818 C 0.11642 0.6929 0.09495 0.0
C819 C 0.10872 0.68767 0.04737 0.0
C820 C 0.11296 0.68478 0.14155 0.0
C821 C 0.10195 0.67121 0.14094 0.0
C822 C 0.09445 0.66592 0.09309 0.0
C823 C 0.09772 0.6741 0.04693 0.0
H824 H 0.35308 0.46151 0.28765 0.0
H825 H 0.36094 0.42845 0.25561 0.0
H826 H 0.33668 0.45385 0.21304 0.0
H827 H 0.34557 0.4214 0.17853 0.0
H828 H 0.30774 0.4016 0.08001 0.0
H829 H 0.323 0.41004 0.15741 0.0
H830 H 0.33171 0.4513 0.12216 0.0
H831 H 0.31542 0.44242 0.04723 0.0
C832 C 0.35154 0.45281 0.26356 0.0
C833 C 0.35817 0.44551 0.2773 0.0
C834 C 0.34215 0.4484 0.22067 0.0
C835 C 0.33949 0.43678 0.18986 0.0
C836 C 0.34683 0.43003 0.20225 0.0
C837 C 0.35584 0.43418 0.24599 0.0
C838 C 0.31277 0.41243 0.08957 0.0
C839 C 0.31043 0.42137 0.05793 0.0
C840 C 0.32172 0.41737 0.13349 0.0
C841 C 0.32899 0.43148 0.14573 0.0
C842 C 0.3263 0.44037 0.11465 0.0
C843 C 0.31697 0.43532 0.07157 0.0
H844 H 0.57565 0.91173 0.32076 0.0
H845 H 0.54192 0.91108 0.23505 0.0
H846 H 0.58192 0.90385 0.2395 0.0
H847 H 0.54843 0.9034 0.15312 0.0
H848 H 0.57861 0.90897 0.01009 0.0
H849 H 0.57047 0.91498 0.09128 0.0
H850 H 0.57069 0.88182 0.17768 0.0
H851 H 0.57863 0.87557 0.09588 0.0
C852 C 0.56959 0.90993 0.2845 0.0
C853 C 0.55833 0.91208 0.28414 0.0
C854 C 0.57313 0.90532 0.23818 0.0
C855 C 0.56563 0.903 0.19024 0.0
C856 C 0.55438 0.90516 0.18968 0.0
C857 C 0.55066 0.90952 0.23645 0.0
C858 C 0.57691 0.90293 0.04635 0.0
C859 C 0.57932 0.89183 0.04676 0.0
C860 C 0.57214 0.90632 0.09262 0.0
C861 C 0.56993 0.89884 0.14054 0.0
C862 C 0.57235 0.88775 0.14114 0.0
C863 C 0.57687 0.88418 0.09444 0.0
H864 H 0.19325 0.96191 0.94814 0.0
H865 H 0.22361 0.99384 0.84614 0.0
H866 H 0.19875 0.9786 0.02061 0.0
H867 H 0.22915 0.0104 0.9186 0.0
H868 H 0.23192 0.03936 0.04879 0.0
H869 H 0.2208 0.02267 0.97623 0.0
H870 H 0.21931 0.99088 0.07854 0.0
H871 H 0.23025 0.00744 0.15107 0.0
C872 C 0.20094 0.97251 0.94085 0.0
C873 C 0.20811 0.97651 0.89155 0.0
C874 C 0.20412 0.98205 0.98245 0.0
C875 C 0.21444 0.99578 0.97541 0.0
C876 C 0.22106 0.99992 0.92513 0.0
C877 C 0.21796 0.99039 0.88371 0.0
C878 C 0.22901 0.02876 0.05612 0.0
C879 C 0.23212 0.02476 0.10551 0.0
C880 C 0.22269 0.01923 0.01448 0.0
C881 C 0.21927 0.00549 0.02158 0.0
C882 C 0.2217 0.00136 0.07196 0.0
C883 C 0.22808 0.01089 0.11341 0.0
H884 H 0.99511 0.22405 0.15476 0.0
H885 H 0.96312 0.19316 0.05451 0.0
H886 H 0.0114 0.2299 0.08093 0.0
H887 H 0.97951 0.19904 0.98059 0.0
H888 H 0.00762 0.23141 0.84984 0.0
H889 H 0.99135 0.22028 0.92328 0.0
H890 H 0.02347 0.2212 0.02162 0.0
H891 H 0.03982 0.23241 0.9482 0.0
C892 C 0.9916 0.21836 0.11726 0.0
C893 C 0.97779 0.20824 0.1103 0.0
C894 C 0.00096 0.22165 0.0751 0.0
C895 C 0.99669 0.21497 0.02496 0.0
C896 C 0.98303 0.20443 0.01872 0.0
C897 C 0.97368 0.20103 0.06111 0.0
C898 C 0.01119 0.22908 0.88682 0.0
C899 C 0.02505 0.23294 0.89339 0.0
C900 C 0.00184 0.2226 0.92873 0.0
C901 C 0.00617 0.21994 0.97822 0.0
C902 C 0.01989 0.22325 0.98402 0.0
C903 C 0.02923 0.22962 0.9419 0.0
H904 H 0.76729 0.80633 0.94491 0.0
H905 H 0.7674 0.77471 0.84615 0.0
H906 H 0.77727 0.8001 0.01962 0.0
H907 H 0.77747 0.7686 0.92092 0.0
H908 H 0.80604 0.76925 0.05358 0.0
H909 H 0.7994 0.77887 0.97888 0.0
H910 H 0.76757 0.77828 0.07791 0.0
H911 H 0.77409 0.76856 0.15264 0.0
C912 C 0.76962 0.79818 0.93885 0.0
C913 C 0.76649 0.79095 0.88969 0.0
C914 C 0.77526 0.7946 0.98173 0.0
C915 C 0.77809 0.78386 0.976 0.0
C916 C 0.77548 0.77699 0.92622 0.0
C917 C 0.76965 0.78044 0.88356 0.0
C918 C 0.79774 0.77134 0.05972 0.0
C919 C 0.79054 0.76808 0.10895 0.0
C920 C 0.79392 0.77677 0.01685 0.0
C921 C 0.78296 0.77925 0.02266 0.0
C922 C 0.77612 0.77655 0.07254 0.0
C923 C 0.77982 0.77092 0.11518 0.0
H924 H 0.77231 0.99493 0.84687 0.0
H925 H 0.77043 0.96273 0.94795 0.0
H926 H 0.78313 0.0113 0.92009 0.0
H927 H 0.78141 0.97923 0.02125 0.0
H928 H 0.77789 0.00762 0.15173 0.0
H929 H 0.77266 0.9913 0.0786 0.0
H930 H 0.80361 0.02338 0.97922 0.0
H931 H 0.80882 0.03984 0.05243 0.0
C932 C 0.77441 0.99138 0.88442 0.0
C933 C 0.77034 0.97749 0.89181 0.0
C934 C 0.78072 1.0008 0.92625 0.0
C935 C 0.78304 0.99652 0.9765 0.0
C936 C 0.77961 0.98277 0.98308 0.0
C937 C 0.77337 0.97335 0.94104 0.0
C938 C 0.78372 0.01119 0.11458 0.0
C939 C 0.79365 0.02507 0.10767 0.0
C940 C 0.7808 0.00179 0.07282 0.0
C941 C 0.78769 0.00608 0.02311 0.0
C942 C 0.79806 0.01983 0.01697 0.0
C943 C 0.80106 0.02923 0.05896 0.0
H944 H 0.03735 0.81039 0.94715 0.0
H945 H 0.00523 0.77935 0.84785 0.0
H946 H 0.02087 0.80519 0.02015 0.0
H947 H 0.9889 0.77409 0.92081 0.0
H948 H 0.96027 0.77015 0.05324 0.0
H949 H 0.97647 0.78188 0.97971 0.0
H950 H 0.00939 0.78484 0.07891 0.0
H951 H 0.99335 0.77334 0.15232 0.0
C952 C 0.02675 0.80264 0.9405 0.0
C953 C 0.02265 0.79514 0.89198 0.0
C954 C 0.01733 0.79963 0.98239 0.0
C955 C 0.00362 0.78915 0.9764 0.0
C956 C 0.99935 0.7823 0.92659 0.0
C957 C 0.00876 0.78525 0.88488 0.0
C958 C 0.97101 0.77354 0.05968 0.0
C959 C 0.97549 0.77065 0.10837 0.0
C960 C 0.98026 0.78021 0.0175 0.0
C961 C 0.99418 0.7842 0.0234 0.0
C962 C 0.99877 0.78202 0.07323 0.0
C963 C 0.98953 0.77531 0.11519 0.0
H964 H 0.2293 0.19156 0.05238 0.0
H965 H 0.22712 0.22198 0.15179 0.0
H966 H 0.21831 0.19681 0.97835 0.0
H967 H 0.21628 0.22725 0.07785 0.0
H968 H 0.22259 0.22896 0.84707 0.0
H969 H 0.22736 0.21769 0.92084 0.0
H970 H 0.19597 0.21874 0.01738 0.0
H971 H 0.19121 0.23016 0.9435 0.0
C972 C 0.22626 0.19917 0.05882 0.0
C973 C 0.22924 0.20648 0.10773 0.0
C974 C 0.22002 0.20221 0.01635 0.0
C975 C 0.21654 0.2125 0.0222 0.0
C976 C 0.21874 0.21918 0.07224 0.0
C977 C 0.22506 0.21623 0.1145 0.0
C978 C 0.21655 0.22661 0.88369 0.0
C979 C 0.20664 0.23061 0.88965 0.0
C980 C 0.21921 0.22004 0.92582 0.0
C981 C 0.21208 0.21739 0.97497 0.0
C982 C 0.2017 0.22078 0.98007 0.0
C983 C 0.19895 0.22726 0.9377 0.0
H984 H 0.89847 0.34026 0.48405 0.0
H985 H 0.90041 0.37252 0.38315 0.0
H986 H 0.88733 0.32386 0.41121 0.0
H987 H 0.88911 0.35598 0.31023 0.0
H988 H 0.86088 0.29528 0.28029 0.0
H989 H 0.86662 0.31188 0.35337 0.0
H990 H 0.89732 0.34361 0.25206 0.0
H991 H 0.89156 0.32716 0.17907 0.0
C992 C 0.89633 0.34382 0.44661 0.0
C993 C 0.90049 0.35774 0.43918 0.0
C994 C 0.88983 0.33438 0.405 0.0
C995 C 0.88741 0.33865 0.35491 0.0
C996 C 0.89098 0.35244 0.34827 0.0
C997 C 0.8974 0.36189 0.39009 0.0
C998 C 0.8687 0.30585 0.27332 0.0
C999 C 0.87588 0.30986 0.22407 0.0
C1000 C 0.87201 0.31533 0.31524 0.0
C1001 C 0.88247 0.32902 0.30852 0.0
C1002 C 0.88913 0.33317 0.25832 0.0
C1003 C 0.88589 0.3237 0.21662 0.0
H1004 H 0.67501 0.56545 0.17945 0.0
H1005 H 0.70672 0.56588 0.27925 0.0
H1006 H 0.65859 0.55475 0.25278 0.0
H1007 H 0.69021 0.55513 0.35262 0.0
H1008 H 0.66175 0.55833 0.48456 0.0
H1009 H 0.67819 0.56417 0.41121 0.0
H1010 H 0.64643 0.53347 0.30999 0.0
H1011 H 0.6299 0.5276 0.38333 0.0
C1012 C 0.67843 0.56309 0.21674 0.0
C1013 C 0.6922 0.56663 0.22368 0.0
C1014 C 0.669 0.55687 0.25861 0.0
C1015 C 0.67315 0.55417 0.30844 0.0
C1016 C 0.68677 0.55721 0.31473 0.0
C1017 C 0.69619 0.56331 0.27263 0.0
C1018 C 0.65829 0.55268 0.44695 0.0
C1019 C 0.64449 0.5426 0.43961 0.0
C1020 C 0.66774 0.55596 0.40507 0.0
C1021 C 0.66355 0.54931 0.35484 0.0
C1022 C 0.64989 0.53884 0.34818 0.0
C1023 C 0.64046 0.53545 0.39026 0.0
H1024 H 0.43955 0.14381 0.28061 0.0
H1025 H 0.43974 0.11221 0.18205 0.0
H1026 H 0.45062 0.1384 0.35371 0.0
H1027 H 0.45067 0.10677 0.25521 0.0
H1028 H 0.44602 0.10654 0.48661 0.0
H1029 H 0.44129 0.11781 0.41273 0.0
H1030 H 0.47132 0.11492 0.31371 0.0
H1031 H 0.47603 0.10351 0.38774 0.0
C1032 C 0.44216 0.13588 0.27414 0.0
C1033 C 0.4386 0.12831 0.22576 0.0
C1034 C 0.44845 0.13276 0.31609 0.0
C1035 C 0.4514 0.1221 0.31031 0.0
C1036 C 0.44863 0.11512 0.26073 0.0
C1037 C 0.44226 0.11817 0.21894 0.0
C1038 C 0.45178 0.10849 0.44941 0.0
C1039 C 0.46128 0.10397 0.44282 0.0
C1040 C 0.44915 0.11505 0.4072 0.0
C1041 C 0.45589 0.11719 0.35735 0.0
C1042 C 0.46588 0.11329 0.35157 0.0
C1043 C 0.46861 0.10681 0.39403 0.0
H1044 H 0.43441 0.29514 0.27928 0.0
H1045 H 0.43751 0.32785 0.17794 0.0
H1046 H 0.44555 0.3115 0.35291 0.0
H1047 H 0.44852 0.34408 0.25147 0.0
H1048 H 0.44344 0.3408 0.48321 0.0
H1049 H 0.43745 0.3243 0.41013 0.0
H1050 H 0.46922 0.35551 0.31052 0.0
H1051 H 0.47521 0.37213 0.38367 0.0
C1052 C 0.43764 0.30584 0.27241 0.0
C1053 C 0.43494 0.31017 0.22294 0.0
C1054 C 0.44396 0.31518 0.31464 0.0
C1055 C 0.44784 0.32905 0.30801 0.0
C1056 C 0.44577 0.33349 0.25766 0.0
C1057 C 0.43936 0.32415 0.21565 0.0
C1058 C 0.44929 0.34412 0.44603 0.0
C1059 C 0.4597 0.35783 0.43906 0.0
C1060 C 0.44592 0.33463 0.40429 0.0
C1061 C 0.45282 0.33863 0.35453 0.0
C1062 C 0.46364 0.35218 0.34831 0.0
C1063 C 0.4671 0.36167 0.39028 0.0
H1064 H 0.67352 0.11065 0.18006 0.0
H1065 H 0.70558 0.14175 0.27938 0.0
H1066 H 0.65723 0.10512 0.25362 0.0
H1067 H 0.68918 0.13621 0.35303 0.0
H1068 H 0.66086 0.10445 0.48502 0.0
H1069 H 0.6772 0.11533 0.41166 0.0
H1070 H 0.6452 0.11405 0.3115 0.0
H1071 H 0.62875 0.10307 0.38484 0.0
C1072 C 0.67705 0.11645 0.2173 0.0
C1073 C 0.69088 0.12654 0.22407 0.0
C1074 C 0.66768 0.11335 0.2593 0.0
C1075 C 0.67196 0.1202 0.30911 0.0
C1076 C 0.68565 0.13069 0.31517 0.0
C1077 C 0.69501 0.13389 0.27293 0.0
C1078 C 0.65733 0.10666 0.44767 0.0
C1079 C 0.64347 0.10274 0.44056 0.0
C1080 C 0.66673 0.11299 0.40577 0.0
C1081 C 0.66245 0.11546 0.35578 0.0
C1082 C 0.64873 0.11214 0.34948 0.0
C1083 C 0.63934 0.10591 0.39156 0.0
H1084 H 0.89586 0.52398 0.38402 0.0
H1085 H 0.89484 0.55511 0.48291 0.0
H1086 H 0.88476 0.52926 0.31063 0.0
H1087 H 0.88388 0.56042 0.40948 0.0
H1088 H 0.85865 0.56351 0.27618 0.0
H1089 H 0.86335 0.55206 0.35012 0.0
H1090 H 0.894 0.54998 0.25227 0.0
H1091 H 0.8893 0.56129 0.17846 0.0
C1092 C 0.89306 0.53177 0.3905 0.0
C1093 C 0.89641 0.53926 0.43905 0.0
C1094 C 0.88675 0.53482 0.34839 0.0
C1095 C 0.88356 0.54532 0.35419 0.0
C1096 C 0.88611 0.55219 0.40394 0.0
C1097 C 0.8925 0.54922 0.44589 0.0
C1098 C 0.86621 0.56038 0.27011 0.0
C1099 C 0.87373 0.56346 0.2217 0.0
C1100 C 0.86892 0.55388 0.31251 0.0
C1101 C 0.87908 0.55021 0.30706 0.0
C1102 C 0.88601 0.55257 0.25753 0.0
C1103 C 0.88339 0.55916 0.21537 0.0
H1104 H 0.52601 0.6274 0.61785 0.0
H1105 H 0.55498 0.66028 0.51546 0.0
H1106 H 0.53155 0.64365 0.69209 0.0
H1107 H 0.56051 0.67643 0.58964 0.0
H1108 H 0.56401 0.67295 0.82017 0.0
H1109 H 0.55303 0.65648 0.7472 0.0
H1110 H 0.55126 0.68757 0.65119 0.0
H1111 H 0.56231 0.70413 0.72415 0.0
C1112 C 0.53337 0.63812 0.61086 0.0
C1113 C 0.54016 0.64253 0.56092 0.0
C1114 C 0.53658 0.64739 0.65345 0.0
C1115 C 0.54651 0.66127 0.6467 0.0
C1116 C 0.55273 0.66581 0.5959 0.0
C1117 C 0.54963 0.65654 0.55352 0.0
C1118 C 0.5611 0.67624 0.78385 0.0
C1119 C 0.56417 0.68989 0.77775 0.0
C1120 C 0.55472 0.66677 0.7422 0.0
C1121 C 0.55136 0.67077 0.69344 0.0
C1122 C 0.55385 0.68425 0.6882 0.0
C1123 C 0.56013 0.6937 0.73008 0.0
H1124 H 0.29666 0.85727 0.71883 0.0
H1125 H 0.32857 0.88905 0.81651 0.0
H1126 H 0.31311 0.86247 0.64575 0.0
H1127 H 0.3449 0.89427 0.74338 0.0
H1128 H 0.37344 0.89746 0.61095 0.0
H1129 H 0.35735 0.88605 0.68512 0.0
H1130 H 0.32433 0.88294 0.58617 0.0
H1131 H 0.34029 0.8942 0.51215 0.0
C1132 C 0.30722 0.86519 0.72513 0.0
C1133 C 0.31127 0.87288 0.77322 0.0
C1134 C 0.31661 0.86819 0.68319 0.0
C1135 C 0.33025 0.87885 0.6887 0.0
C1136 C 0.33449 0.88593 0.73806 0.0
C1137 C 0.32509 0.883 0.77984 0.0
C1138 C 0.3627 0.8941 0.6047 0.0
C1139 C 0.35816 0.89689 0.5559 0.0
C1140 C 0.35351 0.88762 0.64723 0.0
C1141 C 0.33961 0.88368 0.64153 0.0
C1142 C 0.33496 0.88573 0.59165 0.0
C1143 C 0.34413 0.8923 0.54935 0.0
H1144 H 0.14584 0.43952 0.71717 0.0
H1145 H 0.11486 0.44074 0.81623 0.0
H1146 H 0.14077 0.45087 0.64413 0.0
H1147 H 0.10974 0.45192 0.74316 0.0
H1148 H 0.10676 0.47741 0.61124 0.0
H1149 H 0.11812 0.47248 0.68479 0.0
H1150 H 0.12034 0.44216 0.58517 0.0
H1151 H 0.10915 0.44712 0.51174 0.0
C1152 C 0.13812 0.4424 0.72374 0.0
C1153 C 0.13063 0.43905 0.77227 0.0
C1154 C 0.13519 0.44886 0.68183 0.0
C1155 C 0.12479 0.45218 0.68779 0.0
C1156 C 0.11789 0.4496 0.73748 0.0
C1157 C 0.12076 0.44308 0.77923 0.0
C1158 C 0.10992 0.46989 0.60469 0.0
C1159 C 0.10689 0.46253 0.55589 0.0
C1160 C 0.11637 0.46703 0.64688 0.0
C1161 C 0.12003 0.45687 0.64086 0.0
C1162 C 0.11776 0.45013 0.59092 0.0
C1163 C 0.11123 0.4529 0.54895 0.0
H1164 H 0.112 0.67408 0.81798 0.0
H1165 H 0.14102 0.70701 0.71595 0.0
H1166 H 0.10709 0.65784 0.74497 0.0
H1167 H 0.13619 0.69062 0.64276 0.0
H1168 H 0.10466 0.661 0.51348 0.0
H1169 H 0.1157 0.67767 0.58552 0.0
H1170 H 0.1159 0.64641 0.68598 0.0
H1171 H 0.10463 0.6296 0.614 0.0
C1172 C 0.11751 0.67783 0.78024 0.0
C1173 C 0.12677 0.69188 0.77256 0.0
C1174 C 0.11478 0.66848 0.73849 0.0
C1175 C 0.1212 0.67296 0.688 0.0
C1176 C 0.13098 0.6869 0.6811 0.0
C1177 C 0.13378 0.69627 0.72307 0.0
C1178 C 0.10723 0.6577 0.55059 0.0
C1179 C 0.10357 0.64391 0.55826 0.0
C1180 C 0.11368 0.6673 0.59175 0.0
C1181 C 0.11658 0.66333 0.64158 0.0
C1182 C 0.11363 0.64972 0.64821 0.0
C1183 C 0.10722 0.64011 0.6069 0.0
H1184 H 0.304 0.44483 0.74953 0.0
H1185 H 0.32236 0.42074 0.79785 0.0
H1186 H 0.32016 0.45419 0.67366 0.0
H1187 H 0.33817 0.42988 0.72177 0.0
H1188 H 0.34703 0.43327 0.5374 0.0
H1189 H 0.33129 0.42647 0.61372 0.0
H1190 H 0.34916 0.46877 0.66239 0.0
H1191 H 0.36527 0.47571 0.58626 0.0
C1192 C 0.31152 0.44163 0.74426 0.0
C1193 C 0.31187 0.432 0.77952 0.0
C1194 C 0.32076 0.44701 0.70106 0.0
C1195 C 0.33026 0.44263 0.69202 0.0
C1196 C 0.33084 0.43331 0.72793 0.0
C1197 C 0.32183 0.42814 0.77153 0.0
C1198 C 0.34756 0.44117 0.56391 0.0
C1199 C 0.35746 0.45503 0.55596 0.0
C1200 C 0.33858 0.43725 0.60765 0.0
C1201 C 0.33914 0.44711 0.64377 0.0
C1202 C 0.34859 0.46102 0.63484 0.0
C1203 C 0.35779 0.46495 0.59149 0.0
H1204 H 0.56164 0.88804 0.81743 0.0
H1205 H 0.56535 0.85875 0.71641 0.0
H1206 H 0.55043 0.89294 0.74396 0.0
H1207 H 0.55394 0.8636 0.64275 0.0
H1208 H 0.52485 0.89537 0.6121 0.0
H1209 H 0.53016 0.88402 0.68444 0.0
H1210 H 0.56184 0.88423 0.58544 0.0
H1211 H 0.55648 0.89539 0.51304 0.0
C1212 C 0.55985 0.88247 0.77982 0.0
C1213 C 0.56455 0.87313 0.77254 0.0
C1214 C 0.55331 0.8852 0.73782 0.0
C1215 C 0.55136 0.8787 0.68748 0.0
C1216 C 0.55543 0.86885 0.68099 0.0
C1217 C 0.56191 0.86604 0.72323 0.0
C1218 C 0.53277 0.89276 0.60537 0.0
C1219 C 0.54037 0.89646 0.55708 0.0
C1220 C 0.53583 0.88631 0.64689 0.0
C1221 C 0.54648 0.88334 0.64077 0.0
C1222 C 0.55349 0.88627 0.59124 0.0
C1223 C 0.55049 0.89278 0.54989 0.0
H1224 H 0.37232 0.11836 0.22176 0.0
H1225 H 0.36563 0.0972 0.06929 0.0
H1226 H 0.34771 0.10524 0.24046 0.0
H1227 H 0.34096 0.08432 0.08769 0.0
H1228 H 0.29787 0.08094 0.11831 0.0
H1229 H 0.3225 0.09262 0.10078 0.0
H1230 H 0.32897 0.07833 0.2537 0.0
H1231 H 0.3042 0.06629 0.27097 0.0
C1232 C 0.36559 0.11094 0.19221 0.0
C1233 C 0.37089 0.10883 0.14396 0.0
C1234 C 0.35155 0.10339 0.20312 0.0
C1235 C 0.3425 0.0938 0.16552 0.0
C1236 C 0.34776 0.09169 0.11723 0.0
C1237 C 0.36185 0.09903 0.10682 0.0
C1238 C 0.30453 0.08025 0.1482 0.0
C1239 C 0.29911 0.07272 0.1961 0.0
C1240 C 0.3186 0.08687 0.13796 0.0
C1241 C 0.32757 0.08634 0.17588 0.0
C1242 C 0.32222 0.07889 0.22394 0.0
C1243 C 0.30808 0.07199 0.23369 0.0
H1244 H 0.91118 0.2752 0.10142 0.0
H1245 H 0.87365 0.24137 0.16418 0.0
H1246 H 0.92321 0.26277 0.12213 0.0
H1247 H 0.88572 0.22902 0.18494 0.0
H1248 H 0.9094 0.20584 0.15938 0.0
H1249 H 0.89724 0.21802 0.13681 0.0
H1250 H 0.93021 0.25514 0.20568 0.0
H1251 H 0.94244 0.24302 0.22819 0.0
C1252 C 0.90548 0.2651 0.11933 0.0
C1253 C 0.89145 0.2593 0.13119 0.0
C1254 C 0.9124 0.25803 0.13154 0.0
C1255 C 0.90542 0.24495 0.15535 0.0
C1256 C 0.89135 0.23904 0.16625 0.0
C1257 C 0.88446 0.24615 0.15454 0.0
C1258 C 0.91405 0.21659 0.16989 0.0
C1259 C 0.9269 0.22345 0.19563 0.0
C1260 C 0.90706 0.22355 0.15709 0.0
C1261 C 0.9128 0.23754 0.1693 0.0
C1262 C 0.92561 0.2444 0.1952 0.0
C1263 C 0.93255 0.23742 0.20846 0.0
H1264 H 0.75063 0.63053 0.21259 0.0
H1265 H 0.736 0.63858 0.06328 0.0
H1266 H 0.76274 0.65499 0.23355 0.0
H1267 H 0.74841 0.66317 0.08406 0.0
H1268 H 0.78735 0.70625 0.11806 0.0
H1269 H 0.77483 0.68177 0.09702 0.0
H1270 H 0.75497 0.67334 0.25273 0.0
H1271 H 0.76729 0.6979 0.27364 0.0
C1272 C 0.75006 0.63752 0.18409 0.0
C1273 C 0.74238 0.63263 0.13619 0.0
C1274 C 0.75692 0.6515 0.19632 0.0
C1275 C 0.75647 0.66091 0.16044 0.0
C1276 C 0.74894 0.65608 0.11225 0.0
C1277 C 0.74182 0.64205 0.10049 0.0
C1278 C 0.78035 0.69919 0.14793 0.0
C1279 C 0.77832 0.704 0.1976 0.0
C1280 C 0.77313 0.68521 0.13566 0.0
C1281 C 0.76395 0.67573 0.17321 0.0
C1282 C 0.76205 0.68048 0.22319 0.0
C1283 C 0.76906 0.6945 0.23506 0.0
H1284 H 0.06771 0.30494 0.72819 0.0
H1285 H 0.0817 0.2981 0.88148 0.0
H1286 H 0.07983 0.32967 0.74632 0.0
H1287 H 0.09347 0.32272 0.89989 0.0
H1288 H 0.09818 0.36608 0.93103 0.0
H1289 H 0.08522 0.3414 0.91231 0.0
H1290 H 0.10679 0.3481 0.76119 0.0
H1291 H 0.11998 0.37268 0.78023 0.0
C1292 C 0.0733 0.3087 0.76577 0.0
C1293 C 0.07381 0.2996 0.8033 0.0
C1294 C 0.08023 0.32282 0.77604 0.0
C1295 C 0.0875 0.32801 0.82455 0.0
C1296 C 0.08784 0.31892 0.86238 0.0
C1297 C 0.08118 0.30487 0.85163 0.0
C1298 C 0.10013 0.36228 0.89381 0.0
C1299 C 0.11013 0.37129 0.85722 0.0
C1300 C 0.09276 0.34819 0.88322 0.0
C1301 C 0.09503 0.34293 0.83529 0.0
C1302 C 0.10482 0.35195 0.79825 0.0
C1303 C 0.1124 0.36598 0.80937 0.0
H1304 H 0.69659 0.76698 0.72207 0.0
H1305 H 0.70421 0.78744 0.87663 0.0
H1306 H 0.672 0.75425 0.7422 0.0
H1307 H 0.67971 0.77449 0.89693 0.0
H1308 H 0.63725 0.73485 0.9315 0.0
H1309 H 0.66179 0.74782 0.91054 0.0
H1310 H 0.65295 0.76129 0.76035 0.0
H1311 H 0.62848 0.74861 0.78156 0.0
C1312 C 0.69302 0.76877 0.76022 0.0
C1313 C 0.70233 0.77824 0.79768 0.0
C1314 C 0.67897 0.76151 0.77165 0.0
C1315 C 0.67402 0.76337 0.82119 0.0
C1316 C 0.6833 0.77281 0.85863 0.0
C1317 C 0.6973 0.78027 0.84678 0.0
C1318 C 0.64055 0.74058 0.89405 0.0
C1319 C 0.63095 0.74075 0.85827 0.0
C1320 C 0.65457 0.74803 0.88221 0.0
C1321 C 0.6592 0.75551 0.83384 0.0
C1322 C 0.64961 0.75554 0.79775 0.0
C1323 C 0.63564 0.74834 0.81009 0.0
H1324 H 0.23892 0.93525 0.72573 0.0
H1325 H 0.21813 0.92067 0.87879 0.0
H1326 H 0.25181 0.92337 0.743 0.0
H1327 H 0.23122 0.90915 0.89632 0.0
H1328 H 0.26981 0.90475 0.92772 0.0
H1329 H 0.25801 0.9176 0.90906 0.0
H1330 H 0.24378 0.89652 0.75663 0.0
H1331 H 0.25527 0.88342 0.77559 0.0
C1332 C 0.23717 0.9296 0.76309 0.0
C1333 C 0.22748 0.92884 0.8008 0.0
C1334 C 0.2445 0.92279 0.77285 0.0
C1335 C 0.2425 0.91542 0.82103 0.0
C1336 C 0.23299 0.91485 0.85906 0.0
C1337 C 0.22546 0.92138 0.84881 0.0
C1338 C 0.26419 0.90288 0.8902 0.0
C1339 C 0.2634 0.89303 0.85325 0.0
C1340 C 0.25743 0.9102 0.87963 0.0
C1341 C 0.25004 0.90803 0.8314 0.0
C1342 C 0.24949 0.89842 0.79393 0.0
C1343 C 0.25599 0.89088 0.805 0.0
H1344 H 0.69984 0.94381 0.7697 0.0
H1345 H 0.70323 0.91053 0.8404 0.0
H1346 H 0.67537 0.93177 0.79063 0.0
H1347 H 0.67886 0.89862 0.86154 0.0
H1348 H 0.63245 0.87487 0.83273 0.0
H1349 H 0.65683 0.88715 0.81233 0.0
H1350 H 0.65998 0.92467 0.87174 0.0
H1351 H 0.63544 0.91239 0.89192 0.0
C1352 C 0.69538 0.93393 0.78954 0.0
C1353 C 0.70351 0.92813 0.80325 0.0
C1354 C 0.68139 0.92709 0.8019 0.0
C1355 C 0.6752 0.91426 0.82779 0.0
C1356 C 0.6833 0.90843 0.84111 0.0
C1357 C 0.69729 0.9153 0.82914 0.0
C1358 C 0.63831 0.88573 0.84163 0.0
C1359 C 0.63197 0.89264 0.86402 0.0
C1360 C 0.65231 0.89275 0.83013 0.0
C1361 C 0.66032 0.90687 0.84042 0.0
C1362 C 0.65403 0.91381 0.86288 0.0
C1363 C 0.64 0.90675 0.87479 0.0
H1364 H 0.08866 0.79265 0.84961 0.0
H1365 H 0.05537 0.75611 0.77804 0.0
H1366 H 0.10053 0.78013 0.87009 0.0
H1367 H 0.06737 0.74361 0.79835 0.0
H1368 H 0.08727 0.72295 0.89594 0.0
H1369 H 0.07477 0.73512 0.87821 0.0
H1370 H 0.11196 0.76986 0.81854 0.0
H1371 H 0.12444 0.75785 0.83643 0.0
C1372 C 0.08386 0.78195 0.83816 0.0
C1373 C 0.07106 0.77541 0.812 0.0
C1374 C 0.09071 0.77479 0.84974 0.0
C1375 C 0.08489 0.76089 0.83576 0.0
C1376 C 0.07204 0.75428 0.81006 0.0
C1377 C 0.06522 0.76148 0.79809 0.0
C1378 C 0.09278 0.7332 0.87927 0.0
C1379 C 0.10686 0.73942 0.86768 0.0
C1380 C 0.08561 0.74013 0.86879 0.0
C1381 C 0.09239 0.75345 0.84702 0.0
C1382 C 0.10648 0.75968 0.83588 0.0
C1383 C 0.11361 0.75274 0.84593 0.0
H1384 H 0.2443 0.30175 0.78231 0.0
H1385 H 0.20557 0.29806 0.82808 0.0
H1386 H 0.25595 0.32615 0.80462 0.0
H1387 H 0.21726 0.32244 0.85018 0.0
H1388 H 0.24255 0.36973 0.82454 0.0
H1389 H 0.23043 0.34532 0.80202 0.0
H1390 H 0.26063 0.34022 0.89024 0.0
H1391 H 0.27275 0.36455 0.91296 0.0
C1392 C 0.23826 0.30614 0.79684 0.0
C1393 C 0.22401 0.29794 0.80352 0.0
C1394 C 0.24495 0.32009 0.80993 0.0
C1395 C 0.23751 0.32617 0.82933 0.0
C1396 C 0.22324 0.31804 0.83502 0.0
C1397 C 0.21657 0.30407 0.82258 0.0
C1398 C 0.24656 0.36339 0.83942 0.0
C1399 C 0.25862 0.3691 0.87055 0.0
C1400 C 0.2396 0.34942 0.82662 0.0
C1401 C 0.24465 0.34091 0.8441 0.0
C1402 C 0.25661 0.34657 0.87567 0.0
C1403 C 0.26347 0.36049 0.88903 0.0
H1404 H 0.90968 0.702 0.16649 0.0
H1405 H 0.94436 0.69954 0.22729 0.0
H1406 H 0.89785 0.6776 0.14625 0.0
H1407 H 0.93238 0.675 0.20732 0.0
H1408 H 0.91225 0.63503 0.10566 0.0
H1409 H 0.92443 0.6595 0.12689 0.0
H1410 H 0.88736 0.65559 0.19509 0.0
H1411 H 0.87515 0.63123 0.17359 0.0
C1412 C 0.91478 0.69626 0.17578 0.0
C1413 C 0.92799 0.70276 0.19858 0.0
C1414 C 0.90795 0.68224 0.16438 0.0
C1415 C 0.91418 0.67437 0.17519 0.0
C1416 C 0.92737 0.68083 0.19804 0.0
C1417 C 0.93419 0.69487 0.20982 0.0
C1418 C 0.90669 0.63939 0.12505 0.0
C1419 C 0.89271 0.63115 0.13777 0.0
C1420 C 0.9137 0.65339 0.13756 0.0
C1421 C 0.90686 0.65947 0.16266 0.0
C1422 C 0.89289 0.65124 0.17522 0.0
C1423 C 0.8859 0.63726 0.16306 0.0
H1424 H 0.36795 0.24308 0.16177 0.0
H1425 H 0.36492 0.27712 0.09722 0.0
H1426 H 0.34352 0.23102 0.1817 0.0
H1427 H 0.34036 0.26493 0.11697 0.0
H1428 H 0.30069 0.24503 0.2205 0.0
H1429 H 0.3251 0.2573 0.19855 0.0
H1430 H 0.3214 0.22009 0.13267 0.0
H1431 H 0.29708 0.20779 0.15481 0.0
C1432 C 0.36207 0.24797 0.15154 0.0
C1433 C 0.36841 0.26108 0.12788 0.0
C1434 C 0.34804 0.24102 0.16278 0.0
C1435 C 0.34002 0.24703 0.15097 0.0
C1436 C 0.34632 0.2601 0.12703 0.0
C1437 C 0.36036 0.26703 0.11536 0.0
C1438 C 0.30508 0.23945 0.20146 0.0
C1439 C 0.29691 0.22541 0.18954 0.0
C1440 C 0.31905 0.24651 0.18853 0.0
C1441 C 0.32516 0.23966 0.16384 0.0
C1442 C 0.31701 0.22562 0.15214 0.0
C1443 C 0.30305 0.21859 0.16467 0.0
H1444 H 0.75911 0.1285 0.17325 0.0
H1445 H 0.72597 0.09138 0.10455 0.0
H1446 H 0.77131 0.11631 0.1949 0.0
H1447 H 0.73824 0.07924 0.12611 0.0
H1448 H 0.75747 0.05915 0.22943 0.0
H1449 H 0.74536 0.07152 0.20895 0.0
H1450 H 0.78279 0.10539 0.14629 0.0
H1451 H 0.79493 0.09311 0.16686 0.0
C1452 C 0.75444 0.11776 0.16257 0.0
C1453 C 0.74155 0.11092 0.13714 0.0
C1454 C 0.76146 0.1108 0.17482 0.0
C1455 C 0.75571 0.09681 0.16236 0.0
C1456 C 0.74286 0.08998 0.13676 0.0
C1457 C 0.73588 0.09697 0.12405 0.0
C1458 C 0.76314 0.06927 0.21157 0.0
C1459 C 0.77718 0.07513 0.19977 0.0
C1460 C 0.75617 0.0763 0.19948 0.0
C1461 C 0.76312 0.0894 0.17585 0.0
C1462 C 0.77719 0.09536 0.16487 0.0
C1463 C 0.78412 0.08828 0.17648 0.0
H1464 H 0.03859 0.46043 0.50663 0.0
H1465 H 0.03547 0.42332 0.44189 0.0
H1466 H 0.01421 0.44801 0.52754 0.0
H1467 H 0.01097 0.41091 0.46267 0.0
H1468 H 0.97088 0.39104 0.56315 0.0
H1469 H 0.99546 0.40325 0.54384 0.0
H1470 H 0.99227 0.43695 0.47702 0.0
H1471 H 0.96781 0.42487 0.49647 0.0
C1472 C 0.03271 0.44963 0.49673 0.0
C1473 C 0.039 0.44288 0.47246 0.0
C1474 C 0.01872 0.44253 0.50854 0.0
C1475 C 0.01068 0.42849 0.49673 0.0
C1476 C 0.01694 0.4217 0.47271 0.0
C1477 C 0.03095 0.42883 0.46046 0.0
C1478 C 0.97544 0.40108 0.54459 0.0
C1479 C 0.96737 0.40698 0.53143 0.0
C1480 C 0.98949 0.40802 0.53318 0.0
C1481 C 0.99578 0.42105 0.50888 0.0
C1482 C 0.98774 0.42698 0.49625 0.0
C1483 C 0.9737 0.42002 0.50721 0.0
H1484 H 0.60089 0.57073 0.60309 0.0
H1485 H 0.58765 0.55009 0.44905 0.0
H1486 H 0.5889 0.58339 0.58352 0.0
H1487 H 0.57602 0.56299 0.42924 0.0
H1488 H 0.57158 0.60192 0.39763 0.0
H1489 H 0.58433 0.59001 0.41705 0.0
H1490 H 0.56203 0.5748 0.56653 0.0
H1491 H 0.54907 0.58636 0.54679 0.0
C1492 C 0.59549 0.56895 0.56505 0.0
C1493 C 0.59514 0.55938 0.52774 0.0
C1494 C 0.58863 0.57616 0.55395 0.0
C1495 C 0.58162 0.57416 0.50483 0.0
C1496 C 0.58145 0.56476 0.46721 0.0
C1497 C 0.58802 0.55733 0.47878 0.0
C1498 C 0.56942 0.59604 0.43459 0.0
C1499 C 0.55929 0.59501 0.47055 0.0
C1500 C 0.57667 0.58922 0.44559 0.0
C1501 C 0.57415 0.58156 0.49334 0.0
C1502 C 0.5642 0.58072 0.52965 0.0
C1503 C 0.55675 0.58726 0.51811 0.0
H1504 H 0.42239 0.03275 0.56075 0.0
H1505 H 0.45948 0.03596 0.49548 0.0
H1506 H 0.41005 0.00822 0.54045 0.0
H1507 H 0.44712 0.01156 0.47496 0.0
H1508 H 0.42423 0.96517 0.50371 0.0
H1509 H 0.43619 0.98956 0.52442 0.0
H1510 H 0.40227 0.9927 0.45986 0.0
H1511 H 0.39017 0.96818 0.43938 0.0
C1512 C 0.42792 0.02824 0.54218 0.0
C1513 C 0.44194 0.03634 0.52985 0.0
C1514 C 0.42082 0.01421 0.53022 0.0
C1515 C 0.42761 0.00796 0.5061 0.0
C1516 C 0.44163 0.01604 0.49406 0.0
C1517 C 0.4487 0.03006 0.50564 0.0
C1518 C 0.4193 0.97103 0.49381 0.0
C1519 C 0.40623 0.96469 0.46978 0.0
C1520 C 0.4262 0.98504 0.50549 0.0
C1521 C 0.42018 0.99306 0.49375 0.0
C1522 C 0.40711 0.98675 0.46986 0.0
C1523 C 0.40023 0.97273 0.45778 0.0
H1524 H 0.58738 0.03726 0.45095 0.0
H1525 H 0.60165 0.03075 0.60422 0.0
H1526 H 0.57615 0.01269 0.43217 0.0
H1527 H 0.59009 0.00607 0.58567 0.0
H1528 H 0.55072 0.96264 0.55206 0.0
H1529 H 0.56352 0.98721 0.57127 0.0
H1530 H 0.58471 0.99444 0.41895 0.0
H1531 H 0.57212 0.96976 0.39999 0.0
C1532 C 0.58807 0.03058 0.48072 0.0
C1533 C 0.59536 0.03592 0.52917 0.0
C1534 C 0.58173 0.01655 0.46973 0.0
C1535 C 0.58231 0.00756 0.50744 0.0
C1536 C 0.58951 0.01284 0.55604 0.0
C1537 C 0.59612 0.02693 0.56655 0.0
C1538 C 0.55814 0.96945 0.52271 0.0
C1539 C 0.5604 0.96429 0.47442 0.0
C1540 C 0.56551 0.98348 0.53392 0.0
C1541 C 0.57507 0.99265 0.49658 0.0
C1542 C 0.57735 0.98754 0.44827 0.0
C1543 C 0.57019 0.97345 0.43755 0.0
H1544 H 0.963 0.54989 0.44483 0.0
H1545 H 0.96928 0.57111 0.59692 0.0
H1546 H 0.98762 0.56314 0.42677 0.0
H1547 H 0.99398 0.58413 0.57915 0.0
H1548 H 0.03729 0.58777 0.54969 0.0
H1549 H 0.01264 0.57607 0.56709 0.0
H1550 H 0.00617 0.59 0.41329 0.0
H1551 H 0.03094 0.60204 0.39615 0.0
C1552 C 0.96964 0.55735 0.47444 0.0
C1553 C 0.96422 0.55944 0.52238 0.0
C1554 C 0.98369 0.56498 0.46388 0.0
C1555 C 0.99263 0.57463 0.50157 0.0
C1556 C 0.98726 0.57671 0.54956 0.0
C1557 C 0.97315 0.5693 0.55961 0.0
C1558 C 0.03062 0.58838 0.51961 0.0
C1559 C 0.03603 0.5958 0.47147 0.0
C1560 C 0.01655 0.58176 0.52977 0.0
C1561 C 0.00758 0.58217 0.49153 0.0
C1562 C 0.01293 0.58953 0.4433 0.0
C1563 C 0.02706 0.59643 0.43362 0.0
H1564 H 0.42737 0.46311 0.50461 0.0
H1565 H 0.39643 0.42706 0.42161 0.0
H1566 H 0.43978 0.45105 0.52608 0.0
H1567 H 0.4088 0.41506 0.44344 0.0
H1568 H 0.42582 0.39383 0.55268 0.0
H1569 H 0.41416 0.40656 0.53074 0.0
H1570 H 0.45244 0.44071 0.47596 0.0
H1571 H 0.46414 0.42798 0.49753 0.0
C1572 C 0.42326 0.45266 0.4907 0.0
C1573 C 0.41091 0.44605 0.46143 0.0
C1574 C 0.43038 0.44578 0.50288 0.0
C1575 C 0.42519 0.4321 0.48673 0.0
C1576 C 0.41295 0.42556 0.45692 0.0
C1577 C 0.40593 0.43248 0.44409 0.0
C1578 C 0.43178 0.40407 0.53623 0.0
C1579 C 0.44591 0.40987 0.52675 0.0
C1580 C 0.42508 0.41132 0.52335 0.0
C1581 C 0.4324 0.42458 0.50141 0.0
C1582 C 0.44657 0.43052 0.49304 0.0
C1583 C 0.45324 0.4232 0.50521 0.0
H1584 H 0.24141 0.08954 0.28225 0.0
H1585 H 0.25769 0.10141 0.1207 0.0
H1586 H 0.23827 0.10954 0.28725 0.0
H1587 H 0.25502 0.12136 0.12623 0.0
H1588 H 0.23939 0.14995 0.12362 0.0
H1589 H 0.23806 0.12776 0.1258 0.0
H1590 H 0.25104 0.13445 0.29292 0.0
H1591 H 0.25172 0.15654 0.29117 0.0
C1592 C 0.24431 0.09639 0.2479 0.0
C1593 C 0.24972 0.09383 0.20096 0.0
C1594 C 0.24257 0.10788 0.25084 0.0
C1595 C 0.24624 0.11701 0.20692 0.0
C1596 C 0.25172 0.1144 0.16033 0.0
C1597 C 0.25337 0.10297 0.1573 0.0
C1598 C 0.24175 0.14659 0.16109 0.0
C1599 C 0.24582 0.15503 0.20702 0.0
C1600 C 0.24109 0.13391 0.16229 0.0
C1601 C 0.24479 0.12944 0.20913 0.0
C1602 C 0.2481 0.13755 0.25617 0.0
C1603 C 0.24853 0.15021 0.25519 0.0
H1604 H 0.84751 0.09935 0.12416 0.0
H1605 H 0.85002 0.089 0.29037 0.0
H1606 H 0.87026 0.11903 0.13035 0.0
H1607 H 0.87332 0.10876 0.29619 0.0
H1608 H 0.90607 0.15618 0.29605 0.0
H1609 H 0.88517 0.13366 0.29822 0.0
H1610 H 0.89365 0.12575 0.13581 0.0
H1611 H 0.91397 0.14839 0.13297 0.0
C1612 C 0.85302 0.10116 0.16195 0.0
C1613 C 0.84692 0.09258 0.20678 0.0
C1614 C 0.86618 0.11244 0.16538 0.0
C1615 C 0.87375 0.11545 0.21362 0.0
C1616 C 0.86775 0.10677 0.2585 0.0
C1617 C 0.85445 0.09543 0.2551 0.0
C1618 C 0.90354 0.14948 0.26134 0.0
C1619 C 0.91146 0.15407 0.21402 0.0
C1620 C 0.8916 0.13656 0.26257 0.0
C1621 C 0.88754 0.128 0.2167 0.0
C1622 C 0.8962 0.13223 0.17123 0.0
C1623 C 0.90791 0.14517 0.16967 0.0
H1624 H 0.90019 0.74583 0.12617 0.0
H1625 H 0.91139 0.76085 0.28968 0.0
H1626 H 0.88051 0.74894 0.13121 0.0
H1627 H 0.89163 0.76439 0.29428 0.0
H1628 H 0.8444 0.75053 0.29472 0.0
H1629 H 0.86659 0.75148 0.29761 0.0
H1630 H 0.8744 0.76622 0.13282 0.0
H1631 H 0.85212 0.76467 0.12941 0.0
C1632 C 0.89855 0.74997 0.16313 0.0
C1633 C 0.9074 0.75311 0.2075 0.0
C1634 C 0.88727 0.75187 0.16587 0.0
C1635 C 0.88454 0.7571 0.21292 0.0
C1636 C 0.89341 0.7603 0.25749 0.0
C1637 C 0.90475 0.75833 0.25479 0.0
C1638 C 0.85101 0.7542 0.25958 0.0
C1639 C 0.84648 0.75731 0.21156 0.0
C1640 C 0.86374 0.75478 0.26122 0.0
C1641 C 0.87216 0.75863 0.21502 0.0
C1642 C 0.86801 0.76279 0.16859 0.0
C1643 C 0.85527 0.762 0.16671 0.0
H1644 H 0.10074 0.25642 0.87599 0.0
H1645 H 0.08913 0.24147 0.71262 0.0
H1646 H 0.12049 0.25348 0.86951 0.0
H1647 H 0.10894 0.23804 0.7066 0.0
H1648 H 0.1561 0.25184 0.70336 0.0
H1649 H 0.13387 0.25084 0.7019 0.0
H1650 H 0.12677 0.23642 0.86717 0.0
H1651 H 0.14911 0.23809 0.86917 0.0
C1652 C 0.1023 0.25232 0.83878 0.0
C1653 C 0.09332 0.24915 0.79486 0.0
C1654 C 0.11362 0.25051 0.8352 0.0
C1655 C 0.11625 0.24533 0.78777 0.0
C1656 C 0.10725 0.2421 0.74366 0.0
C1657 C 0.09587 0.244 0.74716 0.0
C1658 C 0.14963 0.24824 0.73891 0.0
C1659 C 0.15437 0.24526 0.78665 0.0
C1660 C 0.13689 0.24763 0.7381 0.0
C1661 C 0.12865 0.24385 0.78485 0.0
C1662 C 0.13302 0.2398 0.831 0.0
C1663 C 0.14578 0.24066 0.83208 0.0
H1664 H 0.74929 0.84514 0.70468 0.0
H1665 H 0.7642 0.85231 0.8689 0.0
H1666 H 0.75116 0.86776 0.70296 0.0
H1667 H 0.76676 0.87504 0.86655 0.0
H1668 H 0.76154 0.9127 0.7114 0.0
H1669 H 0.76451 0.89259 0.70578 0.0
H1670 H 0.75053 0.88229 0.87094 0.0
H1671 H 0.74806 0.90234 0.87697 0.0
C1672 C 0.75333 0.85172 0.73981 0.0
C1673 C 0.75638 0.84693 0.78723 0.0
C1674 C 0.75445 0.8647 0.73884 0.0
C1675 C 0.75883 0.87313 0.78508 0.0
C1676 C 0.76293 0.86867 0.83081 0.0
C1677 C 0.76156 0.85567 0.83209 0.0
C1678 C 0.75927 0.90618 0.74657 0.0
C1679 C 0.75461 0.90915 0.79467 0.0
C1680 C 0.76089 0.89463 0.74328 0.0
C1681 C 0.75788 0.88585 0.78803 0.0
C1682 C 0.7533 0.88895 0.83603 0.0
C1683 C 0.75177 0.90045 0.83936 0.0
H1684 H 0.1523 0.9115 0.71819 0.0
H1685 H 0.15773 0.89945 0.87794 0.0
H1686 H 0.12915 0.89143 0.71455 0.0
H1687 H 0.13511 0.87942 0.87369 0.0
H1688 H 0.09073 0.85095 0.87981 0.0
H1689 H 0.11176 0.87299 0.87697 0.0
H1690 H 0.11692 0.86656 0.7083 0.0
H1691 H 0.09536 0.84461 0.7108 0.0
C1692 C 0.14857 0.90458 0.75242 0.0
C1693 C 0.15681 0.90713 0.79849 0.0
C1694 C 0.13535 0.89306 0.75025 0.0
C1695 C 0.13017 0.88387 0.79408 0.0
C1696 C 0.13855 0.88643 0.83974 0.0
C1697 C 0.15162 0.89791 0.84202 0.0
C1698 C 0.09625 0.85432 0.8419 0.0
C1699 C 0.09151 0.846 0.7957 0.0
C1700 C 0.10837 0.86693 0.84031 0.0
C1701 C 0.11625 0.87144 0.79275 0.0
C1702 C 0.11112 0.86344 0.7456 0.0
C1703 C 0.0988 0.85085 0.74701 0.0
H1704 H 0.9254 0.43401 0.45252 0.0
H1705 H 0.90845 0.42264 0.61335 0.0
H1706 H 0.92316 0.45423 0.4563 0.0
H1707 H 0.90571 0.44291 0.61651 0.0
H1708 H 0.9198 0.48996 0.61929 0.0
H1709 H 0.91881 0.46773 0.62194 0.0
H1710 H 0.90675 0.46126 0.45375 0.0
H1711 H 0.90839 0.48358 0.45072 0.0
C1712 C 0.92099 0.43572 0.48854 0.0
C1713 C 0.91705 0.42666 0.53257 0.0
C1714 C 0.91961 0.44732 0.49057 0.0
C1715 C 0.91409 0.45016 0.53646 0.0
C1716 C 0.91007 0.44107 0.58064 0.0
C1717 C 0.91156 0.42943 0.57873 0.0
C1718 C 0.91679 0.48366 0.58321 0.0
C1719 C 0.9144 0.48856 0.53457 0.0
C1720 C 0.91616 0.47091 0.58471 0.0
C1721 C 0.91297 0.4628 0.53774 0.0
C1722 C 0.90967 0.46739 0.49026 0.0
C1723 C 0.91052 0.48016 0.48856 0.0
H1724 H 0.51276 0.42954 0.62346 0.0
H1725 H 0.52009 0.4226 0.45833 0.0
H1726 H 0.53511 0.45062 0.62564 0.0
H1727 H 0.54257 0.44313 0.46108 0.0
H1728 H 0.5691 0.48923 0.45264 0.0
H1729 H 0.54929 0.46652 0.45811 0.0
H1730 H 0.55993 0.46264 0.62252 0.0
H1731 H 0.57978 0.4859 0.61748 0.0
C1732 C 0.51933 0.43232 0.58823 0.0
C1733 C 0.51465 0.42459 0.54045 0.0
C1734 C 0.53215 0.44437 0.58944 0.0
C1735 C 0.54054 0.44876 0.54309 0.0
C1736 C 0.53622 0.44033 0.49694 0.0
C1737 C 0.52337 0.42849 0.49544 0.0
C1738 C 0.56732 0.48356 0.48997 0.0
C1739 C 0.57605 0.4894 0.53461 0.0
C1740 C 0.55598 0.47041 0.49298 0.0
C1741 C 0.55305 0.4626 0.54056 0.0
C1742 C 0.56183 0.46838 0.58532 0.0
C1743 C 0.57323 0.48167 0.58238 0.0
H1744 H 0.57849 0.09325 0.61802 0.0
H1745 H 0.56692 0.07738 0.45578 0.0
H1746 H 0.55829 0.09604 0.62345 0.0
H1747 H 0.54676 0.07966 0.46174 0.0
H1748 H 0.51744 0.09433 0.46045 0.0
H1749 H 0.53984 0.09617 0.46218 0.0
H1750 H 0.53347 0.08301 0.6291 0.0
H1751 H 0.51117 0.08186 0.62783 0.0
C1752 C 0.57166 0.09038 0.5836 0.0
C1753 C 0.57436 0.08518 0.53636 0.0
C1754 C 0.56006 0.0919 0.58679 0.0
C1755 C 0.55094 0.08822 0.54283 0.0
C1756 C 0.5537 0.08297 0.4959 0.0
C1757 C 0.56526 0.08155 0.49261 0.0
C1758 C 0.52091 0.09204 0.49777 0.0
C1759 C 0.51252 0.08779 0.54379 0.0
C1760 C 0.53372 0.09299 0.49872 0.0
C1761 C 0.53835 0.08939 0.54536 0.0
C1762 C 0.53026 0.08589 0.5925 0.0
C1763 C 0.51747 0.08518 0.5918 0.0
H1764 H 0.75689 0.57464 0.04293 0.0
H1765 H 0.76732 0.58798 0.20863 0.0
H1766 H 0.77694 0.57161 0.03699 0.0
H1767 H 0.78732 0.58547 0.20227 0.0
H1768 H 0.81684 0.57122 0.20011 0.0
H1769 H 0.79429 0.56905 0.19778 0.0
H1770 H 0.80178 0.5847 0.03425 0.0
H1771 H 0.82422 0.58615 0.03593 0.0
C1772 C 0.76341 0.57688 0.07803 0.0
C1773 C 0.76047 0.58149 0.12631 0.0
C1774 C 0.77494 0.57522 0.07456 0.0
C1775 C 0.78371 0.57816 0.1193 0.0
C1776 C 0.78065 0.58274 0.16738 0.0
C1777 C 0.76918 0.5843 0.17092 0.0
C1778 C 0.81356 0.57397 0.16333 0.0
C1779 C 0.82231 0.57902 0.11845 0.0
C1780 C 0.80067 0.57282 0.16206 0.0
C1781 C 0.79633 0.57705 0.11634 0.0
C1782 C 0.80477 0.58133 0.07011 0.0
C1783 C 0.81763 0.58221 0.07105 0.0
H1784 H 0.41557 0.17784 0.04464 0.0
H1785 H 0.42765 0.18477 0.21246 0.0
H1786 H 0.41675 0.20015 0.04113 0.0
H1787 H 0.42947 0.20716 0.20854 0.0
H1788 H 0.41084 0.23447 0.20953 0.0
H1789 H 0.4131 0.21426 0.20646 0.0
H1790 H 0.42998 0.22501 0.04521 0.0
H1791 H 0.42723 0.24528 0.04769 0.0
C1792 C 0.41878 0.18428 0.08035 0.0
C1793 C 0.42129 0.1795 0.12906 0.0
C1794 C 0.41951 0.19707 0.07835 0.0
C1795 C 0.42294 0.20536 0.12489 0.0
C1796 C 0.42638 0.2009 0.17238 0.0
C1797 C 0.42542 0.18808 0.17459 0.0
C1798 C 0.41513 0.23264 0.17342 0.0
C1799 C 0.41889 0.24153 0.12889 0.0
C1800 C 0.41653 0.22104 0.1718 0.0
C1801 C 0.42188 0.21803 0.12582 0.0
C1802 C 0.42575 0.22697 0.08117 0.0
C1803 C 0.42426 0.23862 0.08269 0.0
H1804 H 0.76253 0.17856 0.03853 0.0
H1805 H 0.75524 0.18589 0.20317 0.0
H1806 H 0.78344 0.20107 0.03639 0.0
H1807 H 0.77558 0.20852 0.20042 0.0
H1808 H 0.82169 0.23523 0.20956 0.0
H1809 H 0.79899 0.21543 0.20406 0.0
H1810 H 0.79522 0.22592 0.03929 0.0
H1811 H 0.81848 0.24577 0.04437 0.0
C1812 C 0.7652 0.18516 0.07365 0.0
C1813 C 0.75744 0.18044 0.12131 0.0
C1814 C 0.77715 0.19807 0.07245 0.0
C1815 C 0.78138 0.20651 0.11868 0.0
C1816 C 0.7729 0.20214 0.16466 0.0
C1817 C 0.76118 0.1892 0.16618 0.0
C1818 C 0.81604 0.23344 0.17217 0.0
C1819 C 0.82192 0.24211 0.1274 0.0
C1820 C 0.8029 0.22209 0.16913 0.0
C1821 C 0.79515 0.2191 0.12139 0.0
C1822 C 0.80094 0.22787 0.0766 0.0
C1823 C 0.81421 0.23928 0.07958 0.0
H1824 H 0.57119 0.75561 0.79499 0.0
H1825 H 0.58533 0.76229 0.96031 0.0
H1826 H 0.56936 0.77618 0.7981 0.0
H1827 H 0.58411 0.7834 0.96289 0.0
H1828 H 0.57396 0.81832 0.95449 0.0
H1829 H 0.57085 0.79517 0.95937 0.0
H1830 H 0.58634 0.79966 0.79632 0.0
H1831 H 0.58901 0.82228 0.79099 0.0
C1832 C 0.57382 0.76146 0.8322 0.0
C1833 C 0.57858 0.75747 0.87716 0.0
C1834 C 0.57286 0.77331 0.83392 0.0
C1835 C 0.57692 0.78166 0.88029 0.0
C1836 C 0.58088 0.77721 0.92655 0.0
C1837 C 0.58163 0.76515 0.92508 0.0
C1838 C 0.57657 0.81425 0.91966 0.0
C1839 C 0.58167 0.82212 0.87229 0.0
C1840 C 0.57485 0.80104 0.92252 0.0
C1841 C 0.5782 0.79547 0.87805 0.0
C1842 C 0.5833 0.80341 0.83091 0.0
C1843 C 0.58495 0.81649 0.828 0.0
H1844 H 0.17638 0.76823 0.78896 0.0
H1845 H 0.18226 0.75654 0.94875 0.0
H1846 H 0.1989 0.78838 0.79243 0.0
H1847 H 0.20531 0.77678 0.95162 0.0
H1848 H 0.23853 0.82389 0.9537 0.0
H1849 H 0.21717 0.80176 0.95708 0.0
H1850 H 0.22235 0.79498 0.78885 0.0
H1851 H 0.24317 0.81717 0.78511 0.0
C1852 C 0.18256 0.76987 0.82472 0.0
C1853 C 0.17752 0.76072 0.86851 0.0
C1854 C 0.19558 0.78143 0.82655 0.0
C1855 C 0.20405 0.78416 0.87202 0.0
C1856 C 0.19904 0.77502 0.91607 0.0
C1857 C 0.18588 0.7634 0.91433 0.0
C1858 C 0.23514 0.81755 0.91777 0.0
C1859 C 0.24236 0.82233 0.86892 0.0
C1860 C 0.22294 0.80486 0.9197 0.0
C1861 C 0.21787 0.7967 0.87292 0.0
C1862 C 0.22569 0.80116 0.82522 0.0
C1863 C 0.23769 0.81386 0.82311 0.0
H1864 H 0.1842 0.42773 0.953 0.0
H1865 H 0.18151 0.41399 0.78802 0.0
H1866 H 0.20737 0.43099 0.95971 0.0
H1867 H 0.20415 0.41679 0.79509 0.0
H1868 H 0.24809 0.43172 0.79805 0.0
H1869 H 0.22756 0.43367 0.79979 0.0
H1870 H 0.21929 0.418 0.96326 0.0
H1871 H 0.24034 0.4167 0.96213 0.0
C1872 C 0.18854 0.42543 0.91824 0.0
C1873 C 0.18103 0.42065 0.86992 0.0
C1874 C 0.20178 0.42724 0.92213 0.0
C1875 C 0.20772 0.42431 0.87776 0.0
C1876 C 0.20012 0.41952 0.82968 0.0
C1877 C 0.18702 0.41779 0.82575 0.0
C1878 C 0.24203 0.42895 0.83474 0.0
C1879 C 0.24569 0.42391 0.87971 0.0
C1880 C 0.2302 0.42996 0.83565 0.0
C1881 C 0.22154 0.42564 0.88115 0.0
C1882 C 0.2257 0.42144 0.92756 0.0
C1883 C 0.23774 0.42066 0.92694 0.0
H1884 H 0.42409 0.90702 0.53875 0.0
H1885 H 0.43025 0.91933 0.37118 0.0
H1886 H 0.44466 0.90519 0.53713 0.0
H1887 H 0.4514 0.91817 0.37 0.0
H1888 H 0.48601 0.90761 0.38158 0.0
H1889 H 0.4631 0.90505 0.37593 0.0
H1890 H 0.46811 0.92167 0.53727 0.0
H1891 H 0.49045 0.92372 0.54347 0.0
C1892 C 0.42986 0.90929 0.50142 0.0
C1893 C 0.42569 0.91348 0.4553 0.0
C1894 C 0.44171 0.90833 0.50053 0.0
C1895 C 0.44992 0.91188 0.45384 0.0
C1896 C 0.44533 0.91534 0.40664 0.0
C1897 C 0.43325 0.91605 0.40729 0.0
C1898 C 0.48211 0.9106 0.41585 0.0
C1899 C 0.49001 0.91577 0.46309 0.0
C1900 C 0.46903 0.9092 0.41255 0.0
C1901 C 0.46366 0.913 0.45638 0.0
C1902 C 0.47169 0.91827 0.50324 0.0
C1903 C 0.48461 0.91955 0.50666 0.0
H1904 H 0.07686 0.56664 0.54461 0.0
H1905 H 0.09376 0.57894 0.38411 0.0
H1906 H 0.07951 0.54668 0.53885 0.0
H1907 H 0.0969 0.55894 0.37893 0.0
H1908 H 0.08388 0.51211 0.37354 0.0
H1909 H 0.0843 0.53408 0.37223 0.0
H1910 H 0.09649 0.54034 0.54026 0.0
H1911 H 0.09543 0.51828 0.54196 0.0
C1912 C 0.08131 0.56518 0.5082 0.0
C1913 C 0.08515 0.57444 0.46491 0.0
C1914 C 0.08294 0.55373 0.50504 0.0
C1915 C 0.08862 0.55126 0.45872 0.0
C1916 C 0.09245 0.5605 0.41513 0.0
C1917 C 0.09071 0.57198 0.41817 0.0
C1918 C 0.08683 0.51833 0.40983 0.0
C1919 C 0.08941 0.51343 0.45807 0.0
C1920 C 0.08711 0.53092 0.40911 0.0
C1921 C 0.09014 0.53887 0.45648 0.0
C1922 C 0.09368 0.53432 0.50349 0.0
C1923 C 0.09317 0.5217 0.50442 0.0
H1924 H 0.48835 0.5671 0.54268 0.0
H1925 H 0.48497 0.57861 0.37924 0.0
H1926 H 0.46552 0.54747 0.53677 0.0
H1927 H 0.46162 0.55893 0.37375 0.0
H1928 H 0.42826 0.51172 0.37116 0.0
H1929 H 0.44943 0.534 0.36937 0.0
H1930 H 0.44215 0.54122 0.53451 0.0
H1931 H 0.42149 0.51883 0.53682 0.0
C1932 C 0.48265 0.56554 0.50556 0.0
C1933 C 0.4885 0.57445 0.46145 0.0
C1934 C 0.46945 0.5543 0.50231 0.0
C1935 C 0.4616 0.55167 0.45501 0.0
C1936 C 0.4674 0.56062 0.41073 0.0
C1937 C 0.48074 0.57192 0.41393 0.0
C1938 C 0.43109 0.51823 0.4066 0.0
C1939 C 0.42339 0.51349 0.4544 0.0
C1940 C 0.4432 0.531 0.4056 0.0
C1941 C 0.44768 0.53928 0.45223 0.0
C1942 C 0.43927 0.53494 0.49841 0.0
C1943 C 0.42736 0.52215 0.49967 0.0
loop_
_geom_bond_atom_site_label_1
_geom_bond_atom_site_label_2
_geom_bond_distance
_geom_bond_site_symmetry_2
_ccdc_geom_bond_type
O0 Cd1 2.223 . S
O0 C8 1.315 . S
Cd1 O0 2.223 . S
Cd1 O4 2.297 . S
Cd1 O5 2.439 . S
Cd1 O11 2.240 . S
Cd2 O3 2.240 . S
Cd2 O10 2.223 . S
Cd2 O12 2.297 . S
Cd2 O13 2.439 . S
O3 Cd2 2.240 . S
O3 C8 1.279 . S
O4 Cd1 2.297 . S
O4 C6 1.247 . S
O5 Cd1 2.439 . S
O5 C6 1.208 . S
C6 O4 1.247 . S
C6 O5 1.208 . S
C7 O12 1.247 . S
C7 O13 1.208 . S
C8 O0 1.315 . S
C8 O3 1.279 . S
C9 O10 1.315 . S
C9 O11 1.279 . S
O10 Cd2 2.223 . S
O10 C9 1.315 . S
O11 Cd1 2.240 . S
O11 C9 1.279 . S
O12 Cd2 2.297 . S
O12 C7 1.247 . S
O13 Cd2 2.439 . S
O13 C7 1.208 . S
O14 Cd15 2.223 . S
O14 C22 1.315 . S
Cd15 O14 2.223 . S
Cd15 O18 2.297 . S
Cd15 O19 2.439 . S
Cd15 O25 2.240 . S
Cd16 O17 2.240 . S
Cd16 O24 2.223 . S
Cd16 O26 2.297 . S
Cd16 O27 2.439 . S
O17 Cd16 2.240 . S
O17 C22 1.279 . S
O18 Cd15 2.297 . S
O18 C20 1.247 . S
O19 Cd15 2.439 . S
O19 C20 1.208 . S
C20 O18 1.247 . S
C20 O19 1.208 . S
C21 O26 1.247 . S
C21 O27 1.208 . S
C22 O14 1.315 . S
C22 O17 1.279 . S
C23 O24 1.315 . S
C23 O25 1.279 . S
O24 Cd16 2.223 . S
O24 C23 1.315 . S
O25 Cd15 2.240 . S
O25 C23 1.279 . S
O26 Cd16 2.297 . S
O26 C21 1.247 . S
O27 Cd16 2.439 . S
O27 C21 1.208 . S
O28 Cd29 2.223 . S
O28 C36 1.315 . S
Cd29 O28 2.223 . S
Cd29 O32 2.297 . S
Cd29 O33 2.439 . S
Cd29 O39 2.240 . S
Cd30 O31 2.240 . S
Cd30 O38 2.223 . S
Cd30 O40 2.297 . S
Cd30 O41 2.439 . S
O31 Cd30 2.240 . S
O31 C36 1.279 . S
O32 Cd29 2.297 . S
O32 C34 1.247 . S
O33 Cd29 2.439 . S
O33 C34 1.208 . S
C34 O32 1.247 . S
C34 O33 1.208 . S
C35 O40 1.247 . S
C35 O41 1.208 . S
C36 O28 1.315 . S
C36 O31 1.279 . S
C37 O38 1.315 . S
C37 O39 1.279 . S
O38 Cd30 2.223 . S
O38 C37 1.315 . S
O39 Cd29 2.240 . S
O39 C37 1.279 . S
O40 Cd30 2.297 . S
O40 C35 1.247 . S
O41 Cd30 2.439 . S
O41 C35 1.208 . S
O42 Cd43 2.223 . S
O42 C50 1.315 . S
Cd43 O42 2.223 . S
Cd43 O46 2.297 . S
Cd43 O47 2.439 . S
Cd43 O53 2.240 . S
Cd44 O45 2.240 . S
Cd44 O52 2.223 . S
Cd44 O54 2.297 . S
Cd44 O55 2.439 . S
O45 Cd44 2.240 . S
O45 C50 1.279 . S
O46 Cd43 2.297 . S
O46 C48 1.247 . S
O47 Cd43 2.439 . S
O47 C48 1.208 . S
C48 O46 1.247 . S
C48 O47 1.208 . S
C49 O54 1.247 . S
C49 O55 1.208 . S
C50 O42 1.315 . S
C50 O45 1.279 . S
C51 O52 1.315 . S
C51 O53 1.279 . S
O52 Cd44 2.223 . S
O52 C51 1.315 . S
O53 Cd43 2.240 . S
O53 C51 1.279 . S
O54 Cd44 2.297 . S
O54 C49 1.247 . S
O55 Cd44 2.439 . S
O55 C49 1.208 . S
O56 Cd57 2.223 . S
O56 C64 1.315 . S
Cd57 O56 2.223 . S
Cd57 O60 2.297 . S
Cd57 O61 2.439 . S
Cd57 O67 2.240 . S
Cd58 O59 2.240 . S
Cd58 O66 2.223 . S
Cd58 O68 2.297 . S
Cd58 O69 2.439 . S
O59 Cd58 2.240 . S
O59 C64 1.279 . S
O60 Cd57 2.297 . S
O60 C62 1.247 . S
O61 Cd57 2.439 . S
O61 C62 1.208 . S
C62 O60 1.247 . S
C62 O61 1.208 . S
C63 O68 1.247 . S
C63 O69 1.208 . S
C64 O56 1.315 . S
C64 O59 1.279 . S
C65 O66 1.315 . S
C65 O67 1.279 . S
O66 Cd58 2.223 . S
O66 C65 1.315 . S
O67 Cd57 2.240 . S
O67 C65 1.279 . S
O68 Cd58 2.297 . S
O68 C63 1.247 . S
O69 Cd58 2.439 . S
O69 C63 1.208 . S
O70 Cd71 2.223 . S
O70 C78 1.315 . S
Cd71 O70 2.223 . S
Cd71 O74 2.297 . S
Cd71 O75 2.439 . S
Cd71 O81 2.240 . S
Cd72 O73 2.240 . S
Cd72 O80 2.223 . S
Cd72 O82 2.297 . S
Cd72 O83 2.439 . S
O73 Cd72 2.240 . S
O73 C78 1.279 . S
O74 Cd71 2.297 . S
O74 C76 1.247 . S
O75 Cd71 2.439 . S
O75 C76 1.208 . S
C76 O74 1.247 . S
C76 O75 1.208 . S
C77 O82 1.247 . S
C77 O83 1.208 . S
C78 O70 1.315 . S
C78 O73 1.279 . S
C79 O80 1.315 . S
C79 O81 1.279 . S
O80 Cd72 2.223 . S
O80 C79 1.315 . S
O81 Cd71 2.240 . S
O81 C79 1.279 . S
O82 Cd72 2.297 . S
O82 C77 1.247 . S
O83 Cd72 2.439 . S
O83 C77 1.208 . S
O84 Cd85 2.223 . S
O84 C92 1.315 . S
Cd85 O84 2.223 . S
Cd85 O88 2.297 . S
Cd85 O89 2.439 . S
Cd85 O95 2.240 . S
Cd86 O87 2.240 . S
Cd86 O94 2.223 . S
Cd86 O96 2.297 . S
Cd86 O97 2.439 . S
O87 Cd86 2.240 . S
O87 C92 1.279 . S
O88 Cd85 2.297 . S
O88 C90 1.247 . S
O89 Cd85 2.439 . S
O89 C90 1.208 . S
C90 O88 1.247 . S
C90 O89 1.208 . S
C91 O96 1.247 . S
C91 O97 1.208 . S
C92 O84 1.315 . S
C92 O87 1.279 . S
C93 O94 1.315 . S
C93 O95 1.279 . S
O94 Cd86 2.223 . S
O94 C93 1.315 . S
O95 Cd85 2.240 . S
O95 C93 1.279 . S
O96 Cd86 2.297 . S
O96 C91 1.247 . S
O97 Cd86 2.439 . S
O97 C91 1.208 . S
O98 Cd99 2.223 . S
O98 C106 1.315 . S
Cd99 O98 2.223 . S
Cd99 O102 2.297 . S
Cd99 O103 2.439 . S
Cd99 O109 2.240 . S
Cd100 O101 2.240 . S
Cd100 O108 2.223 . S
Cd100 O110 2.297 . S
Cd100 O111 2.439 . S
O101 Cd100 2.240 . S
O101 C106 1.279 . S
O102 Cd99 2.297 . S
O102 C104 1.247 . S
O103 Cd99 2.439 . S
O103 C104 1.208 . S
C104 O102 1.247 . S
C104 O103 1.208 . S
C105 O110 1.247 . S
C105 O111 1.208 . S
C106 O98 1.315 . S
C106 O101 1.279 . S
C107 O108 1.315 . S
C107 O109 1.279 . S
O108 Cd100 2.223 . S
O108 C107 1.315 . S
O109 Cd99 2.240 . S
O109 C107 1.279 . S
O110 Cd100 2.297 . S
O110 C105 1.247 . S
O111 Cd100 2.439 . S
O111 C105 1.208 . S
O112 Cd113 2.223 . S
O112 C120 1.315 . S
Cd113 O112 2.223 . S
Cd113 O116 2.297 . S
Cd113 O117 2.439 . S
Cd113 O123 2.240 . S
Cd114 O115 2.240 . S
Cd114 O122 2.223 . S
Cd114 O124 2.297 . S
Cd114 O125 2.439 . S
O115 Cd114 2.240 . S
O115 C120 1.279 . S
O116 Cd113 2.297 . S
O116 C118 1.247 . S
O117 Cd113 2.439 . S
O117 C118 1.208 . S
C118 O116 1.247 . S
C118 O117 1.208 . S
C119 O124 1.247 . S
C119 O125 1.208 . S
C120 O112 1.315 . S
C120 O115 1.279 . S
C121 O122 1.315 . S
C121 O123 1.279 . S
O122 Cd114 2.223 . S
O122 C121 1.315 . S
O123 Cd113 2.240 . S
O123 C121 1.279 . S
O124 Cd114 2.297 . S
O124 C119 1.247 . S
O125 Cd114 2.439 . S
O125 C119 1.208 . S
O126 Cd127 2.223 . S
O126 C134 1.315 . S
Cd127 O126 2.223 . S
Cd127 O130 2.297 . S
Cd127 O131 2.439 . S
Cd127 O137 2.240 . S
Cd128 O129 2.240 . S
Cd128 O136 2.223 . S
Cd128 O138 2.297 . S
Cd128 O139 2.439 . S
O129 Cd128 2.240 . S
O129 C134 1.279 . S
O130 Cd127 2.297 . S
O130 C132 1.247 . S
O131 Cd127 2.439 . S
O131 C132 1.208 . S
C132 O130 1.247 . S
C132 O131 1.208 . S
C133 O138 1.247 . S
C133 O139 1.208 . S
C134 O126 1.315 . S
C134 O129 1.279 . S
C135 O136 1.315 . S
C135 O137 1.279 . S
O136 Cd128 2.223 . S
O136 C135 1.315 . S
O137 Cd127 2.240 . S
O137 C135 1.279 . S
O138 Cd128 2.297 . S
O138 C133 1.247 . S
O139 Cd128 2.439 . S
O139 C133 1.208 . S
O140 Cd141 2.223 . S
O140 C148 1.315 . S
Cd141 O140 2.223 . S
Cd141 O144 2.297 . S
Cd141 O145 2.439 . S
Cd141 O151 2.240 . S
Cd142 O143 2.240 . S
Cd142 O150 2.223 . S
Cd142 O152 2.297 . S
Cd142 O153 2.439 . S
O143 Cd142 2.240 . S
O143 C148 1.279 . S
O144 Cd141 2.297 . S
O144 C146 1.247 . S
O145 Cd141 2.439 . S
O145 C146 1.208 . S
C146 O144 1.247 . S
C146 O145 1.208 . S
C147 O152 1.247 . S
C147 O153 1.208 . S
C148 O140 1.315 . S
C148 O143 1.279 . S
C149 O150 1.315 . S
C149 O151 1.279 . S
O150 Cd142 2.223 . S
O150 C149 1.315 . S
O151 Cd141 2.240 . S
O151 C149 1.279 . S
O152 Cd142 2.297 . S
O152 C147 1.247 . S
O153 Cd142 2.439 . S
O153 C147 1.208 . S
O154 Cd155 2.223 . S
O154 C162 1.315 . S
Cd155 O154 2.223 . S
Cd155 O158 2.297 . S
Cd155 O159 2.439 . S
Cd155 O165 2.240 . S
Cd156 O157 2.240 . S
Cd156 O164 2.223 . S
Cd156 O166 2.297 . S
Cd156 O167 2.439 . S
O157 Cd156 2.240 . S
O157 C162 1.279 . S
O158 Cd155 2.297 . S
O158 C160 1.247 . S
O159 Cd155 2.439 . S
O159 C160 1.208 . S
C160 O158 1.247 . S
C160 O159 1.208 . S
C161 O166 1.247 . S
C161 O167 1.208 . S
C162 O154 1.315 . S
C162 O157 1.279 . S
C163 O164 1.315 . S
C163 O165 1.279 . S
O164 Cd156 2.223 . S
O164 C163 1.315 . S
O165 Cd155 2.240 . S
O165 C163 1.279 . S
O166 Cd156 2.297 . S
O166 C161 1.247 . S
O167 Cd156 2.439 . S
O167 C161 1.208 . S
O168 Cd169 2.223 . S
O168 C176 1.315 . S
Cd169 O168 2.223 . S
Cd169 O172 2.297 . S
Cd169 O173 2.439 . S
Cd169 O179 2.240 . S
Cd170 O171 2.240 . S
Cd170 O178 2.223 . S
Cd170 O180 2.297 . S
Cd170 O181 2.439 . S
O171 Cd170 2.240 . S
O171 C176 1.279 . S
O172 Cd169 2.297 . S
O172 C174 1.247 . S
O173 Cd169 2.439 . S
O173 C174 1.208 . S
C174 O172 1.247 . S
C174 O173 1.208 . S
C175 O180 1.247 . S
C175 O181 1.208 . S
C176 O168 1.315 . S
C176 O171 1.279 . S
C177 O178 1.315 . S
C177 O179 1.279 . S
O178 Cd170 2.223 . S
O178 C177 1.315 . S
O179 Cd169 2.240 . S
O179 C177 1.279 . S
O180 Cd170 2.297 . S
O180 C175 1.247 . S
O181 Cd170 2.439 . S
O181 C175 1.208 . S
O182 Cd183 2.223 . S
O182 C190 1.315 . S
Cd183 O182 2.223 . S
Cd183 O186 2.297 . S
Cd183 O187 2.439 . S
Cd183 O193 2.240 . S
Cd184 O185 2.240 . S
Cd184 O192 2.223 . S
Cd184 O194 2.297 . S
Cd184 O195 2.439 . S
O185 Cd184 2.240 . S
O185 C190 1.279 . S
O186 Cd183 2.297 . S
O186 C188 1.247 . S
O187 Cd183 2.439 . S
O187 C188 1.208 . S
C188 O186 1.247 . S
C188 O187 1.208 . S
C189 O194 1.247 . S
C189 O195 1.208 . S
C190 O182 1.315 . S
C190 O185 1.279 . S
C191 O192 1.315 . S
C191 O193 1.279 . S
O192 Cd184 2.223 . S
O192 C191 1.315 . S
O193 Cd183 2.240 . S
O193 C191 1.279 . S
O194 Cd184 2.297 . S
O194 C189 1.247 . S
O195 Cd184 2.439 . S
O195 C189 1.208 . S
O196 Cd197 2.223 . S
O196 C204 1.315 . S
Cd197 O196 2.223 . S
Cd197 O200 2.297 . S
Cd197 O201 2.439 . S
Cd197 O207 2.240 . S
Cd198 O199 2.240 . S
Cd198 O206 2.223 . S
Cd198 O208 2.297 . S
Cd198 O209 2.439 . S
O199 Cd198 2.240 . S
O199 C204 1.279 . S
O200 Cd197 2.297 . S
O200 C202 1.247 . S
O201 Cd197 2.439 . S
O201 C202 1.208 . S
C202 O200 1.247 . S
C202 O201 1.208 . S
C203 O208 1.247 . S
C203 O209 1.208 . S
C204 O196 1.315 . S
C204 O199 1.279 . S
C205 O206 1.315 . S
C205 O207 1.279 . S
O206 Cd198 2.223 . S
O206 C205 1.315 . S
O207 Cd197 2.240 . S
O207 C205 1.279 . S
O208 Cd198 2.297 . S
O208 C203 1.247 . S
O209 Cd198 2.439 . S
O209 C203 1.208 . S
O210 Cd211 2.223 . S
O210 C218 1.315 . S
Cd211 O210 2.223 . S
Cd211 O214 2.297 . S
Cd211 O215 2.445 . S
Cd211 O221 2.240 . S
Cd212 O213 2.240 . S
Cd212 O220 2.223 . S
Cd212 O222 2.297 . S
Cd212 O223 2.439 . S
O213 Cd212 2.240 . S
O213 C218 1.279 . S
O214 Cd211 2.297 . S
O214 C216 1.247 1_554 S
O215 Cd211 2.445 . S
O215 C216 1.205 1_554 S
C216 O214 1.247 1_556 S
C216 O215 1.205 1_556 S
C217 O222 1.247 . S
C217 O223 1.208 . S
C218 O210 1.315 . S
C218 O213 1.279 . S
C219 O220 1.315 . S
C219 O221 1.279 . S
O220 Cd212 2.223 . S
O220 C219 1.315 . S
O221 Cd211 2.240 . S
O221 C219 1.279 . S
O222 Cd212 2.297 . S
O222 C217 1.247 . S
O223 Cd212 2.439 . S
O223 C217 1.208 . S
O224 Cd225 2.223 . S
O224 C232 1.315 . S
Cd225 O224 2.223 . S
Cd225 O228 2.297 . S
Cd225 O229 2.445 . S
Cd225 O235 2.240 . S
Cd226 O227 2.240 . S
Cd226 O234 2.223 . S
Cd226 O236 2.297 . S
Cd226 O237 2.439 . S
O227 Cd226 2.240 . S
O227 C232 1.279 . S
O228 Cd225 2.297 . S
O228 C230 1.247 1_554 S
O229 Cd225 2.445 . S
O229 C230 1.205 1_554 S
C230 O228 1.247 1_556 S
C230 O229 1.205 1_556 S
C231 O236 1.247 . S
C231 O237 1.208 . S
C232 O224 1.315 . S
C232 O227 1.279 . S
C233 O234 1.315 . S
C233 O235 1.279 . S
O234 Cd226 2.223 . S
O234 C233 1.315 . S
O235 Cd225 2.240 . S
O235 C233 1.279 . S
O236 Cd226 2.297 . S
O236 C231 1.247 . S
O237 Cd226 2.439 . S
O237 C231 1.208 . S
O238 Cd239 2.223 . S
O238 C246 1.315 . S
Cd239 O238 2.223 . S
Cd239 O242 2.297 . S
Cd239 O243 2.445 . S
Cd239 O249 2.240 . S
Cd240 O241 2.240 . S
Cd240 O248 2.223 . S
Cd240 O250 2.297 . S
Cd240 O251 2.439 . S
O241 Cd240 2.240 . S
O241 C246 1.279 . S
O242 Cd239 2.297 . S
O242 C244 1.247 1_554 S
O243 Cd239 2.445 . S
O243 C244 1.204 1_554 S
C244 O242 1.247 1_556 S
C244 O243 1.204 1_556 S
C245 O250 1.247 . S
C245 O251 1.208 . S
C246 O238 1.315 . S
C246 O241 1.279 . S
C247 O248 1.315 . S
C247 O249 1.279 . S
O248 Cd240 2.223 . S
O248 C247 1.315 . S
O249 Cd239 2.240 . S
O249 C247 1.279 . S
O250 Cd240 2.297 . S
O250 C245 1.247 . S
O251 Cd240 2.439 . S
O251 C245 1.208 . S
O252 Cd253 2.223 . S
O252 C260 1.315 . S
Cd253 O252 2.223 . S
Cd253 O256 2.297 . S
Cd253 O257 2.445 . S
Cd253 O263 2.240 . S
Cd254 O255 2.240 . S
Cd254 O262 2.223 . S
Cd254 O264 2.297 . S
Cd254 O265 2.439 . S
O255 Cd254 2.240 . S
O255 C260 1.279 . S
O256 Cd253 2.297 . S
O256 C258 1.247 1_554 S
O257 Cd253 2.445 . S
O257 C258 1.205 1_554 S
C258 O256 1.247 1_556 S
C258 O257 1.205 1_556 S
C259 O264 1.247 . S
C259 O265 1.208 . S
C260 O252 1.315 . S
C260 O255 1.279 . S
C261 O262 1.315 . S
C261 O263 1.279 . S
O262 Cd254 2.223 . S
O262 C261 1.315 . S
O263 Cd253 2.240 . S
O263 C261 1.279 . S
O264 Cd254 2.297 . S
O264 C259 1.247 . S
O265 Cd254 2.439 . S
O265 C259 1.208 . S
O266 Cd267 2.223 . S
O266 C274 1.315 . S
Cd267 O266 2.223 . S
Cd267 O270 2.297 . S
Cd267 O271 2.445 . S
Cd267 O277 2.240 . S
Cd268 O269 2.240 . S
Cd268 O276 2.223 . S
Cd268 O278 2.297 . S
Cd268 O279 2.439 . S
O269 Cd268 2.240 . S
O269 C274 1.279 . S
O270 Cd267 2.297 . S
O270 C272 1.247 1_554 S
O271 Cd267 2.445 . S
O271 C272 1.204 1_554 S
C272 O270 1.247 1_556 S
C272 O271 1.204 1_556 S
C273 O278 1.247 . S
C273 O279 1.208 . S
C274 O266 1.315 . S
C274 O269 1.279 . S
C275 O276 1.315 . S
C275 O277 1.279 . S
O276 Cd268 2.223 . S
O276 C275 1.315 . S
O277 Cd267 2.240 . S
O277 C275 1.279 . S
O278 Cd268 2.297 . S
O278 C273 1.247 . S
O279 Cd268 2.439 . S
O279 C273 1.208 . S
O280 Cd281 2.223 . S
O280 C288 1.315 . S
Cd281 O280 2.223 . S
Cd281 O284 2.297 . S
Cd281 O285 2.445 . S
Cd281 O291 2.240 . S
Cd282 O283 2.240 . S
Cd282 O290 2.223 . S
Cd282 O292 2.297 . S
Cd282 O293 2.439 . S
O283 Cd282 2.240 . S
O283 C288 1.279 . S
O284 Cd281 2.297 . S
O284 C286 1.247 1_554 S
O285 Cd281 2.445 . S
O285 C286 1.205 1_554 S
C286 O284 1.247 1_556 S
C286 O285 1.205 1_556 S
C287 O292 1.247 . S
C287 O293 1.208 . S
C288 O280 1.315 . S
C288 O283 1.279 . S
C289 O290 1.315 . S
C289 O291 1.279 . S
O290 Cd282 2.223 . S
O290 C289 1.315 . S
O291 Cd281 2.240 . S
O291 C289 1.279 . S
O292 Cd282 2.297 . S
O292 C287 1.247 . S
O293 Cd282 2.439 . S
O293 C287 1.208 . S
O294 Cd295 2.223 . S
O294 C302 1.315 . S
Cd295 O294 2.223 . S
Cd295 O298 2.297 . S
Cd295 O299 2.439 . S
Cd295 O305 2.240 . S
Cd296 O297 2.240 . S
Cd296 O304 2.223 . S
Cd296 O306 2.297 . S
Cd296 O307 2.439 . S
O297 Cd296 2.240 . S
O297 C302 1.279 . S
O298 Cd295 2.297 . S
O298 C300 1.247 . S
O299 Cd295 2.439 . S
O299 C300 1.208 . S
C300 O298 1.247 . S
C300 O299 1.208 . S
C301 O306 1.247 . S
C301 O307 1.208 . S
C302 O294 1.315 . S
C302 O297 1.279 . S
C303 O304 1.315 . S
C303 O305 1.279 . S
O304 Cd296 2.223 . S
O304 C303 1.315 . S
O305 Cd295 2.240 . S
O305 C303 1.279 . S
O306 Cd296 2.297 . S
O306 C301 1.247 . S
O307 Cd296 2.439 . S
O307 C301 1.208 . S
O308 Cd309 2.223 . S
O308 C316 1.315 . S
Cd309 O308 2.223 . S
Cd309 O312 2.297 . S
Cd309 O313 2.439 . S
Cd309 O319 2.240 . S
Cd310 O311 2.240 . S
Cd310 O318 2.223 . S
Cd310 O320 2.297 . S
Cd310 O321 2.439 . S
O311 Cd310 2.240 . S
O311 C316 1.279 . S
O312 Cd309 2.297 . S
O312 C314 1.247 . S
O313 Cd309 2.439 . S
O313 C314 1.208 . S
C314 O312 1.247 . S
C314 O313 1.208 . S
C315 O320 1.247 . S
C315 O321 1.208 . S
C316 O308 1.315 . S
C316 O311 1.279 . S
C317 O318 1.315 . S
C317 O319 1.279 . S
O318 Cd310 2.223 . S
O318 C317 1.315 . S
O319 Cd309 2.240 . S
O319 C317 1.279 . S
O320 Cd310 2.297 . S
O320 C315 1.247 . S
O321 Cd310 2.439 . S
O321 C315 1.208 . S
O322 Cd323 2.223 . S
O322 C330 1.315 . S
Cd323 O322 2.223 . S
Cd323 O326 2.297 . S
Cd323 O327 2.439 . S
Cd323 O333 2.240 . S
Cd324 O325 2.240 . S
Cd324 O332 2.223 . S
Cd324 O334 2.297 . S
Cd324 O335 2.439 . S
O325 Cd324 2.240 . S
O325 C330 1.279 . S
O326 Cd323 2.297 . S
O326 C328 1.247 . S
O327 Cd323 2.439 . S
O327 C328 1.208 . S
C328 O326 1.247 . S
C328 O327 1.208 . S
C329 O334 1.247 . S
C329 O335 1.208 . S
C330 O322 1.315 . S
C330 O325 1.279 . S
C331 O332 1.315 . S
C331 O333 1.279 . S
O332 Cd324 2.223 . S
O332 C331 1.315 . S
O333 Cd323 2.240 . S
O333 C331 1.279 . S
O334 Cd324 2.297 . S
O334 C329 1.247 . S
O335 Cd324 2.439 . S
O335 C329 1.208 . S
O336 Cd337 2.223 . S
O336 C344 1.315 . S
Cd337 O336 2.223 . S
Cd337 O340 2.297 . S
Cd337 O341 2.445 . S
Cd337 O347 2.240 . S
Cd338 O339 2.240 . S
Cd338 O346 2.223 . S
Cd338 O348 2.297 . S
Cd338 O349 2.439 . S
O339 Cd338 2.240 . S
O339 C344 1.279 . S
O340 Cd337 2.297 . S
O340 C342 1.247 1_556 S
O341 Cd337 2.445 . S
O341 C342 1.205 1_556 S
C342 O340 1.247 1_554 S
C342 O341 1.205 1_554 S
C343 O348 1.247 . S
C343 O349 1.208 . S
C344 O336 1.315 . S
C344 O339 1.279 . S
C345 O346 1.315 . S
C345 O347 1.279 . S
O346 Cd338 2.223 . S
O346 C345 1.315 . S
O347 Cd337 2.240 . S
O347 C345 1.279 . S
O348 Cd338 2.297 . S
O348 C343 1.247 . S
O349 Cd338 2.439 . S
O349 C343 1.208 . S
O350 Cd351 2.223 . S
O350 C358 1.315 . S
Cd351 O350 2.223 . S
Cd351 O354 2.297 . S
Cd351 O355 2.445 . S
Cd351 O361 2.240 . S
Cd352 O353 2.240 . S
Cd352 O360 2.223 . S
Cd352 O362 2.297 . S
Cd352 O363 2.439 . S
O353 Cd352 2.240 . S
O353 C358 1.279 . S
O354 Cd351 2.297 . S
O354 C356 1.247 1_556 S
O355 Cd351 2.445 . S
O355 C356 1.204 1_556 S
C356 O354 1.247 1_554 S
C356 O355 1.204 1_554 S
C357 O362 1.247 . S
C357 O363 1.208 . S
C358 O350 1.315 . S
C358 O353 1.279 . S
C359 O360 1.315 . S
C359 O361 1.279 . S
O360 Cd352 2.223 . S
O360 C359 1.315 . S
O361 Cd351 2.240 . S
O361 C359 1.279 . S
O362 Cd352 2.297 . S
O362 C357 1.247 . S
O363 Cd352 2.439 . S
O363 C357 1.208 . S
O364 Cd365 2.223 . S
O364 C372 1.315 . S
Cd365 O364 2.223 . S
Cd365 O368 2.297 . S
Cd365 O369 2.445 . S
Cd365 O375 2.240 . S
Cd366 O367 2.240 . S
Cd366 O374 2.223 . S
Cd366 O376 2.297 . S
Cd366 O377 2.439 . S
O367 Cd366 2.240 . S
O367 C372 1.279 . S
O368 Cd365 2.297 . S
O368 C370 1.247 1_556 S
O369 Cd365 2.445 . S
O369 C370 1.205 1_556 S
C370 O368 1.247 1_554 S
C370 O369 1.205 1_554 S
C371 O376 1.247 . S
C371 O377 1.208 . S
C372 O364 1.315 . S
C372 O367 1.279 . S
C373 O374 1.315 . S
C373 O375 1.279 . S
O374 Cd366 2.223 . S
O374 C373 1.315 . S
O375 Cd365 2.240 . S
O375 C373 1.279 . S
O376 Cd366 2.297 . S
O376 C371 1.247 . S
O377 Cd366 2.439 . S
O377 C371 1.208 . S
O378 Cd379 2.223 . S
O378 C386 1.315 . S
Cd379 O378 2.223 . S
Cd379 O382 2.297 . S
Cd379 O383 2.439 . S
Cd379 O389 2.240 . S
Cd380 O381 2.240 . S
Cd380 O388 2.223 . S
Cd380 O390 2.297 . S
Cd380 O391 2.439 . S
O381 Cd380 2.240 . S
O381 C386 1.279 . S
O382 Cd379 2.297 . S
O382 C384 1.247 . S
O383 Cd379 2.439 . S
O383 C384 1.208 . S
C384 O382 1.247 . S
C384 O383 1.208 . S
C385 O390 1.247 . S
C385 O391 1.208 . S
C386 O378 1.315 . S
C386 O381 1.279 . S
C387 O388 1.315 . S
C387 O389 1.279 . S
O388 Cd380 2.223 . S
O388 C387 1.315 . S
O389 Cd379 2.240 . S
O389 C387 1.279 . S
O390 Cd380 2.297 . S
O390 C385 1.247 . S
O391 Cd380 2.439 . S
O391 C385 1.208 . S
O392 Cd393 2.223 . S
O392 C400 1.315 . S
Cd393 O392 2.223 . S
Cd393 O396 2.297 . S
Cd393 O397 2.439 . S
Cd393 O403 2.240 . S
Cd394 O395 2.240 . S
Cd394 O402 2.223 . S
Cd394 O404 2.297 . S
Cd394 O405 2.439 . S
O395 Cd394 2.240 . S
O395 C400 1.279 . S
O396 Cd393 2.297 . S
O396 C398 1.247 . S
O397 Cd393 2.439 . S
O397 C398 1.208 . S
C398 O396 1.247 . S
C398 O397 1.208 . S
C399 O404 1.247 . S
C399 O405 1.208 . S
C400 O392 1.315 . S
C400 O395 1.279 . S
C401 O402 1.315 . S
C401 O403 1.279 . S
O402 Cd394 2.223 . S
O402 C401 1.315 . S
O403 Cd393 2.240 . S
O403 C401 1.279 . S
O404 Cd394 2.297 . S
O404 C399 1.247 . S
O405 Cd394 2.439 . S
O405 C399 1.208 . S
O406 Cd407 2.223 . S
O406 C414 1.315 . S
Cd407 O406 2.223 . S
Cd407 O410 2.297 . S
Cd407 O411 2.439 . S
Cd407 O417 2.240 . S
Cd408 O409 2.240 . S
Cd408 O416 2.223 . S
Cd408 O418 2.297 . S
Cd408 O419 2.439 . S
O409 Cd408 2.240 . S
O409 C414 1.279 . S
O410 Cd407 2.297 . S
O410 C412 1.247 . S
O411 Cd407 2.439 . S
O411 C412 1.208 . S
C412 O410 1.247 . S
C412 O411 1.208 . S
C413 O418 1.247 . S
C413 O419 1.208 . S
C414 O406 1.315 . S
C414 O409 1.279 . S
C415 O416 1.315 . S
C415 O417 1.279 . S
O416 Cd408 2.223 . S
O416 C415 1.315 . S
O417 Cd407 2.240 . S
O417 C415 1.279 . S
O418 Cd408 2.297 . S
O418 C413 1.247 . S
O419 Cd408 2.439 . S
O419 C413 1.208 . S
O420 Cd421 2.223 . S
O420 C428 1.315 . S
Cd421 O420 2.223 . S
Cd421 O424 2.297 . S
Cd421 O425 2.439 . S
Cd421 O431 2.240 . S
Cd422 O423 2.240 . S
Cd422 O430 2.223 . S
Cd422 O432 2.297 . S
Cd422 O433 2.439 . S
O423 Cd422 2.240 . S
O423 C428 1.279 . S
O424 Cd421 2.297 . S
O424 C426 1.247 . S
O425 Cd421 2.439 . S
O425 C426 1.208 . S
C426 O424 1.247 . S
C426 O425 1.208 . S
C427 O432 1.247 . S
C427 O433 1.208 . S
C428 O420 1.315 . S
C428 O423 1.279 . S
C429 O430 1.315 . S
C429 O431 1.279 . S
O430 Cd422 2.223 . S
O430 C429 1.315 . S
O431 Cd421 2.240 . S
O431 C429 1.279 . S
O432 Cd422 2.297 . S
O432 C427 1.247 . S
O433 Cd422 2.439 . S
O433 C427 1.208 . S
O434 Cd435 2.223 . S
O434 C442 1.315 . S
Cd435 O434 2.223 . S
Cd435 O438 2.297 . S
Cd435 O439 2.439 . S
Cd435 O445 2.240 . S
Cd436 O437 2.240 . S
Cd436 O444 2.223 . S
Cd436 O446 2.297 . S
Cd436 O447 2.439 . S
O437 Cd436 2.240 . S
O437 C442 1.279 . S
O438 Cd435 2.297 . S
O438 C440 1.247 . S
O439 Cd435 2.439 . S
O439 C440 1.208 . S
C440 O438 1.247 . S
C440 O439 1.208 . S
C441 O446 1.247 . S
C441 O447 1.208 . S
C442 O434 1.315 . S
C442 O437 1.279 . S
C443 O444 1.315 . S
C443 O445 1.279 . S
O444 Cd436 2.223 . S
O444 C443 1.315 . S
O445 Cd435 2.240 . S
O445 C443 1.279 . S
O446 Cd436 2.297 . S
O446 C441 1.247 . S
O447 Cd436 2.439 . S
O447 C441 1.208 . S
O448 Cd449 2.223 . S
O448 C456 1.315 . S
Cd449 O448 2.223 . S
Cd449 O452 2.297 . S
Cd449 O453 2.439 . S
Cd449 O459 2.240 . S
Cd450 O451 2.240 . S
Cd450 O458 2.223 . S
Cd450 O460 2.297 . S
Cd450 O461 2.439 . S
O451 Cd450 2.240 . S
O451 C456 1.279 . S
O452 Cd449 2.297 . S
O452 C454 1.247 . S
O453 Cd449 2.439 . S
O453 C454 1.208 . S
C454 O452 1.247 . S
C454 O453 1.208 . S
C455 O460 1.247 . S
C455 O461 1.208 . S
C456 O448 1.315 . S
C456 O451 1.279 . S
C457 O458 1.315 . S
C457 O459 1.279 . S
O458 Cd450 2.223 . S
O458 C457 1.315 . S
O459 Cd449 2.240 . S
O459 C457 1.279 . S
O460 Cd450 2.297 . S
O460 C455 1.247 . S
O461 Cd450 2.439 . S
O461 C455 1.208 . S
O462 Cd463 2.223 . S
O462 C470 1.315 . S
Cd463 O462 2.223 . S
Cd463 O466 2.297 . S
Cd463 O467 2.445 . S
Cd463 O473 2.240 . S
Cd464 O465 2.240 . S
Cd464 O472 2.223 . S
Cd464 O474 2.297 . S
Cd464 O475 2.439 . S
O465 Cd464 2.240 . S
O465 C470 1.279 . S
O466 Cd463 2.297 . S
O466 C468 1.247 1_556 S
O467 Cd463 2.445 . S
O467 C468 1.205 1_556 S
C468 O466 1.247 1_554 S
C468 O467 1.205 1_554 S
C469 O474 1.247 . S
C469 O475 1.208 . S
C470 O462 1.315 . S
C470 O465 1.279 . S
C471 O472 1.315 . S
C471 O473 1.279 . S
O472 Cd464 2.223 . S
O472 C471 1.315 . S
O473 Cd463 2.240 . S
O473 C471 1.279 . S
O474 Cd464 2.297 . S
O474 C469 1.247 . S
O475 Cd464 2.439 . S
O475 C469 1.208 . S
O476 Cd477 2.223 . S
O476 C484 1.315 . S
Cd477 O476 2.223 . S
Cd477 O480 2.297 . S
Cd477 O481 2.445 . S
Cd477 O487 2.240 . S
Cd478 O479 2.240 . S
Cd478 O486 2.223 . S
Cd478 O488 2.297 . S
Cd478 O489 2.439 . S
O479 Cd478 2.240 . S
O479 C484 1.279 . S
O480 Cd477 2.297 . S
O480 C482 1.247 1_556 S
O481 Cd477 2.445 . S
O481 C482 1.205 1_556 S
C482 O480 1.247 1_554 S
C482 O481 1.205 1_554 S
C483 O488 1.247 . S
C483 O489 1.208 . S
C484 O476 1.315 . S
C484 O479 1.279 . S
C485 O486 1.315 . S
C485 O487 1.279 . S
O486 Cd478 2.223 . S
O486 C485 1.315 . S
O487 Cd477 2.240 . S
O487 C485 1.279 . S
O488 Cd478 2.297 . S
O488 C483 1.247 . S
O489 Cd478 2.439 . S
O489 C483 1.208 . S
O490 Cd491 2.223 . S
O490 C498 1.315 . S
Cd491 O490 2.223 . S
Cd491 O494 2.297 . S
Cd491 O495 2.445 . S
Cd491 O501 2.240 . S
Cd492 O493 2.240 . S
Cd492 O500 2.223 . S
Cd492 O502 2.297 . S
Cd492 O503 2.439 . S
O493 Cd492 2.240 . S
O493 C498 1.279 . S
O494 Cd491 2.297 . S
O494 C496 1.247 1_556 S
O495 Cd491 2.445 . S
O495 C496 1.204 1_556 S
C496 O494 1.247 1_554 S
C496 O495 1.204 1_554 S
C497 O502 1.247 . S
C497 O503 1.208 . S
C498 O490 1.315 . S
C498 O493 1.279 . S
C499 O500 1.315 . S
C499 O501 1.279 . S
O500 Cd492 2.223 . S
O500 C499 1.315 . S
O501 Cd491 2.240 . S
O501 C499 1.279 . S
O502 Cd492 2.297 . S
O502 C497 1.247 . S
O503 Cd492 2.439 . S
O503 C497 1.208 . S
H504 C512 0.950 . S
H505 C517 0.950 . S
H506 C514 0.953 . S
H507 C516 0.950 . S
H508 C518 0.950 . S
H509 C520 0.953 . S
H510 C522 0.950 . S
H511 C523 0.950 . S
C512 H504 0.950 . S
C512 C513 1.386 . S
C512 C514 1.391 . S
C513 C512 1.386 . S
C513 C517 1.393 . S
C514 H506 0.953 . S
C514 C512 1.391 . S
C514 C515 1.400 . S
C515 C514 1.400 . S
C515 C516 1.398 . S
C515 C521 1.491 1_565 S
C516 H507 0.950 . S
C516 C515 1.398 . S
C516 C517 1.391 . S
C517 H505 0.950 . S
C517 C513 1.393 . S
C517 C516 1.391 . S
C518 H508 0.950 . S
C518 C519 1.386 . S
C518 C520 1.391 . S
C519 C518 1.386 . S
C519 C523 1.393 . S
C520 H509 0.953 . S
C520 C518 1.391 . S
C520 C521 1.400 . S
C521 C515 1.491 1_545 S
C521 C520 1.400 . S
C521 C522 1.398 . S
C522 H510 0.950 . S
C522 C521 1.398 . S
C522 C523 1.391 . S
C523 H511 0.950 . S
C523 C519 1.393 . S
C523 C522 1.391 . S
H524 C532 0.950 . S
H525 C537 0.950 . S
H526 C534 0.950 . S
H527 C536 0.950 1_655 S
H528 C538 0.950 . S
H529 C540 0.950 . S
H530 C542 0.950 1_455 S
H531 C543 0.950 . S
C532 H524 0.950 . S
C532 C533 1.386 . S
C532 C534 1.391 . S
C533 C532 1.386 . S
C533 C537 1.393 . S
C534 H526 0.950 . S
C534 C532 1.391 . S
C534 C535 1.400 . S
C535 C534 1.400 . S
C535 C536 1.398 . S
C535 C541 1.491 1_455 S
C536 H527 0.950 1_455 S
C536 C535 1.398 . S
C536 C537 1.391 . S
C537 H525 0.950 . S
C537 C533 1.393 . S
C537 C536 1.391 . S
C538 H528 0.950 . S
C538 C539 1.386 . S
C538 C540 1.391 . S
C539 C538 1.386 . S
C539 C543 1.393 . S
C540 H529 0.950 . S
C540 C538 1.391 . S
C540 C541 1.400 . S
C541 C535 1.491 1_655 S
C541 C540 1.400 . S
C541 C542 1.398 . S
C542 H530 0.950 1_655 S
C542 C541 1.398 . S
C542 C543 1.391 . S
C543 H531 0.950 . S
C543 C539 1.393 . S
C543 C542 1.391 . S
H544 C552 0.950 . S
H545 C557 0.950 . S
H546 C554 0.950 . S
H547 C556 0.950 . S
H548 C558 0.950 . S
H549 C560 0.950 . S
H550 C562 0.950 . S
H551 C563 0.950 . S
C552 H544 0.950 . S
C552 C553 1.386 . S
C552 C554 1.391 . S
C553 C552 1.386 . S
C553 C557 1.393 . S
C554 H546 0.950 . S
C554 C552 1.391 . S
C554 C555 1.400 . S
C555 C554 1.400 . S
C555 C556 1.398 . S
C555 C561 1.491 . S
C556 H547 0.950 . S
C556 C555 1.398 . S
C556 C557 1.391 . S
C557 H545 0.950 . S
C557 C553 1.393 . S
C557 C556 1.391 . S
C558 H548 0.950 . S
C558 C559 1.386 . S
C558 C560 1.391 . S
C559 C558 1.386 . S
C559 C563 1.393 . S
C560 H549 0.950 . S
C560 C558 1.391 . S
C560 C561 1.400 . S
C561 C555 1.491 . S
C561 C560 1.400 . S
C561 C562 1.398 . S
C562 H550 0.950 . S
C562 C561 1.398 . S
C562 C563 1.391 . S
C563 H551 0.950 . S
C563 C559 1.393 . S
C563 C562 1.391 . S
H564 C572 0.950 . S
H565 C577 0.950 . S
H566 C574 0.950 . S
H567 C576 0.956 . S
H568 C578 0.950 . S
H569 C580 0.950 . S
H570 C582 0.956 . S
H571 C583 0.950 . S
C572 H564 0.950 . S
C572 C573 1.386 . S
C572 C574 1.391 . S
C573 C572 1.386 . S
C573 C577 1.393 . S
C574 H566 0.950 . S
C574 C572 1.391 . S
C574 C575 1.400 . S
C575 C574 1.400 . S
C575 C576 1.398 . S
C575 C581 1.491 1_565 S
C576 H567 0.956 . S
C576 C575 1.398 . S
C576 C577 1.391 . S
C577 H565 0.950 . S
C577 C573 1.393 . S
C577 C576 1.391 . S
C578 H568 0.950 . S
C578 C579 1.386 . S
C578 C580 1.391 . S
C579 C578 1.386 . S
C579 C583 1.393 . S
C580 H569 0.950 . S
C580 C578 1.391 . S
C580 C581 1.400 . S
C581 C575 1.491 1_545 S
C581 C580 1.400 . S
C581 C582 1.398 . S
C582 H570 0.956 . S
C582 C581 1.398 . S
C582 C583 1.391 . S
C583 H571 0.950 . S
C583 C579 1.393 . S
C583 C582 1.391 . S
H584 C592 0.950 . S
H585 C597 0.950 . S
H586 C594 0.950 . S
H587 C596 0.972 . S
H588 C598 0.950 . S
H589 C600 0.950 . S
H590 C602 0.971 . S
H591 C603 0.950 . S
C592 H584 0.950 . S
C592 C593 1.386 . S
C592 C594 1.391 . S
C593 C592 1.386 . S
C593 C597 1.393 . S
C594 H586 0.950 . S
C594 C592 1.391 . S
C594 C595 1.400 . S
C595 C594 1.400 . S
C595 C596 1.390 1_455 S
C595 C601 1.491 1_455 S
C596 H587 0.972 . S
C596 C595 1.390 1_655 S
C596 C597 1.378 1_655 S
C597 H585 0.950 . S
C597 C593 1.393 . S
C597 C596 1.378 1_455 S
C598 H588 0.950 . S
C598 C599 1.386 . S
C598 C600 1.391 . S
C599 C598 1.386 . S
C599 C603 1.393 . S
C600 H589 0.950 . S
C600 C598 1.391 . S
C600 C601 1.400 . S
C601 C595 1.491 1_655 S
C601 C600 1.400 . S
C601 C602 1.390 1_655 S
C602 H590 0.971 . S
C602 C601 1.390 1_455 S
C602 C603 1.379 1_455 S
C603 H591 0.950 . S
C603 C599 1.393 . S
C603 C602 1.379 1_655 S
H604 C612 0.950 . S
H605 C617 0.950 . S
H606 C614 0.950 . S
H607 C616 0.950 . S
H608 C618 0.950 . S
H609 C620 0.950 . S
H610 C622 0.950 . S
H611 C623 0.950 . S
C612 H604 0.950 . S
C612 C613 1.386 . S
C612 C614 1.391 . S
C613 C612 1.386 . S
C613 C617 1.393 . S
C614 H606 0.950 . S
C614 C612 1.391 . S
C614 C615 1.400 . S
C615 C614 1.400 . S
C615 C616 1.398 . S
C615 C621 1.491 . S
C616 H607 0.950 . S
C616 C615 1.398 . S
C616 C617 1.391 . S
C617 H605 0.950 . S
C617 C613 1.393 . S
C617 C616 1.391 . S
C618 H608 0.950 . S
C618 C619 1.386 . S
C618 C620 1.391 . S
C619 C618 1.386 . S
C619 C623 1.393 . S
C620 H609 0.950 . S
C620 C618 1.391 . S
C620 C621 1.400 . S
C621 C615 1.491 . S
C621 C620 1.400 . S
C621 C622 1.398 . S
C622 H610 0.950 . S
C622 C621 1.398 . S
C622 C623 1.391 . S
C623 H611 0.950 . S
C623 C619 1.393 . S
C623 C622 1.391 . S
H624 C632 0.950 . S
H625 C637 0.950 . S
H626 C634 0.950 . S
H627 C636 0.950 . S
H628 C638 0.950 . S
H629 C640 0.950 . S
H630 C642 0.950 . S
H631 C643 0.950 . S
C632 H624 0.950 . S
C632 C633 1.386 . S
C632 C634 1.391 . S
C633 C632 1.386 . S
C633 C637 1.393 . S
C634 H626 0.950 . S
C634 C632 1.391 . S
C634 C635 1.400 . S
C635 C634 1.400 . S
C635 C636 1.398 . S
C635 C641 1.491 . S
C636 H627 0.950 . S
C636 C635 1.398 . S
C636 C637 1.391 . S
C637 H625 0.950 . S
C637 C633 1.393 . S
C637 C636 1.391 . S
C638 H628 0.950 . S
C638 C639 1.386 . S
C638 C640 1.391 . S
C639 C638 1.386 . S
C639 C643 1.393 . S
C640 H629 0.950 . S
C640 C638 1.391 . S
C640 C641 1.400 . S
C641 C635 1.491 . S
C641 C640 1.400 . S
C641 C642 1.398 . S
C642 H630 0.950 . S
C642 C641 1.398 . S
C642 C643 1.391 . S
C643 H631 0.950 . S
C643 C639 1.393 . S
C643 C642 1.391 . S
H644 C652 0.950 . S
H645 C657 0.950 . S
H646 C654 0.950 . S
H647 C656 0.950 . S
H648 C658 0.950 . S
H649 C660 0.950 . S
H650 C662 0.950 . S
H651 C663 0.950 . S
C652 H644 0.950 . S
C652 C653 1.386 . S
C652 C654 1.391 . S
C653 C652 1.386 . S
C653 C657 1.393 . S
C654 H646 0.950 . S
C654 C652 1.391 . S
C654 C655 1.400 . S
C655 C654 1.400 . S
C655 C656 1.398 . S
C655 C661 1.491 . S
C656 H647 0.950 . S
C656 C655 1.398 . S
C656 C657 1.391 . S
C657 H645 0.950 . S
C657 C653 1.393 . S
C657 C656 1.391 . S
C658 H648 0.950 . S
C658 C659 1.386 . S
C658 C660 1.391 . S
C659 C658 1.386 . S
C659 C663 1.393 . S
C660 H649 0.950 . S
C660 C658 1.391 . S
C660 C661 1.400 . S
C661 C655 1.491 . S
C661 C660 1.400 . S
C661 C662 1.398 . S
C662 H650 0.950 . S
C662 C661 1.398 . S
C662 C663 1.391 . S
C663 H651 0.950 . S
C663 C659 1.393 . S
C663 C662 1.391 . S
H664 C672 0.950 . S
H665 C677 0.950 . S
H666 C674 0.950 . S
H667 C676 0.950 . S
H668 C678 0.950 . S
H669 C680 0.950 . S
H670 C682 0.950 . S
H671 C683 0.950 . S
C672 H664 0.950 . S
C672 C673 1.386 . S
C672 C674 1.391 . S
C673 C672 1.386 . S
C673 C677 1.393 . S
C674 H666 0.950 . S
C674 C672 1.391 . S
C674 C675 1.400 . S
C675 C674 1.400 . S
C675 C676 1.398 . S
C675 C681 1.491 . S
C676 H667 0.950 . S
C676 C675 1.398 . S
C676 C677 1.391 . S
C677 H665 0.950 . S
C677 C673 1.393 . S
C677 C676 1.391 . S
C678 H668 0.950 . S
C678 C679 1.386 . S
C678 C680 1.391 . S
C679 C678 1.386 . S
C679 C683 1.393 . S
C680 H669 0.950 . S
C680 C678 1.391 . S
C680 C681 1.400 . S
C681 C675 1.491 . S
C681 C680 1.400 . S
C681 C682 1.398 . S
C682 H670 0.950 . S
C682 C681 1.398 . S
C682 C683 1.391 . S
C683 H671 0.950 . S
C683 C679 1.393 . S
C683 C682 1.391 . S
H684 C692 0.950 . S
H685 C697 0.950 . S
H686 C694 0.950 . S
H687 C696 0.950 . S
H688 C698 0.950 . S
H689 C700 0.950 . S
H690 C702 0.950 . S
H691 C703 0.950 . S
C692 H684 0.950 . S
C692 C693 1.386 . S
C692 C694 1.391 . S
C693 C692 1.386 . S
C693 C697 1.393 . S
C694 H686 0.950 . S
C694 C692 1.391 . S
C694 C695 1.400 . S
C695 C694 1.400 . S
C695 C696 1.398 . S
C695 C701 1.491 . S
C696 H687 0.950 . S
C696 C695 1.398 . S
C696 C697 1.391 . S
C697 H685 0.950 . S
C697 C693 1.393 . S
C697 C696 1.391 . S
C698 H688 0.950 . S
C698 C699 1.386 . S
C698 C700 1.391 . S
C699 C698 1.386 . S
C699 C703 1.393 . S
C700 H689 0.950 . S
C700 C698 1.391 . S
C700 C701 1.400 . S
C701 C695 1.491 . S
C701 C700 1.400 . S
C701 C702 1.398 . S
C702 H690 0.950 . S
C702 C701 1.398 . S
C702 C703 1.391 . S
C703 H691 0.950 . S
C703 C699 1.393 . S
C703 C702 1.391 . S
H704 C712 0.950 . S
H705 C717 0.950 . S
H706 C714 0.950 . S
H707 C716 0.950 . S
H708 C718 0.950 . S
H709 C720 0.950 . S
H710 C722 0.950 . S
H711 C723 0.950 . S
C712 H704 0.950 . S
C712 C713 1.386 . S
C712 C714 1.391 . S
C713 C712 1.386 . S
C713 C717 1.393 . S
C714 H706 0.950 . S
C714 C712 1.391 . S
C714 C715 1.400 . S
C715 C714 1.400 . S
C715 C716 1.398 . S
C715 C721 1.491 . S
C716 H707 0.950 . S
C716 C715 1.398 . S
C716 C717 1.391 . S
C717 H705 0.950 . S
C717 C713 1.393 . S
C717 C716 1.391 . S
C718 H708 0.950 . S
C718 C719 1.386 . S
C718 C720 1.391 . S
C719 C718 1.386 . S
C719 C723 1.393 . S
C720 H709 0.950 . S
C720 C718 1.391 . S
C720 C721 1.400 . S
C721 C715 1.491 . S
C721 C720 1.400 . S
C721 C722 1.398 . S
C722 H710 0.950 . S
C722 C721 1.398 . S
C722 C723 1.391 . S
C723 H711 0.950 . S
C723 C719 1.393 . S
C723 C722 1.391 . S
H724 C732 0.950 . S
H725 C737 0.950 . S
H726 C734 0.950 . S
H727 C736 0.950 . S
H728 C738 0.950 . S
H729 C740 0.950 . S
H730 C742 0.950 . S
H731 C743 0.950 . S
C732 H724 0.950 . S
C732 C733 1.386 . S
C732 C734 1.391 . S
C733 C732 1.386 . S
C733 C737 1.393 . S
C734 H726 0.950 . S
C734 C732 1.391 . S
C734 C735 1.400 . S
C735 C734 1.400 . S
C735 C736 1.398 . S
C735 C741 1.491 . S
C736 H727 0.950 . S
C736 C735 1.398 . S
C736 C737 1.391 . S
C737 H725 0.950 . S
C737 C733 1.393 . S
C737 C736 1.391 . S
C738 H728 0.950 . S
C738 C739 1.386 . S
C738 C740 1.391 . S
C739 C738 1.386 . S
C739 C743 1.393 . S
C740 H729 0.950 . S
C740 C738 1.391 . S
C740 C741 1.400 . S
C741 C735 1.491 . S
C741 C740 1.400 . S
C741 C742 1.398 . S
C742 H730 0.950 . S
C742 C741 1.398 . S
C742 C743 1.391 . S
C743 H731 0.950 . S
C743 C739 1.393 . S
C743 C742 1.391 . S
H744 C752 0.950 . S
H745 C757 0.950 . S
H746 C754 0.950 . S
H747 C756 0.950 . S
H748 C758 0.950 . S
H749 C760 0.950 . S
H750 C762 0.950 . S
H751 C763 0.950 . S
C752 H744 0.950 . S
C752 C753 1.386 . S
C752 C754 1.391 . S
C753 C752 1.386 . S
C753 C757 1.393 . S
C754 H746 0.950 . S
C754 C752 1.391 . S
C754 C755 1.400 . S
C755 C754 1.400 . S
C755 C756 1.398 . S
C755 C761 1.491 . S
C756 H747 0.950 . S
C756 C755 1.398 . S
C756 C757 1.391 . S
C757 H745 0.950 . S
C757 C753 1.393 . S
C757 C756 1.391 . S
C758 H748 0.950 . S
C758 C759 1.386 . S
C758 C760 1.391 . S
C759 C758 1.386 . S
C759 C763 1.393 . S
C760 H749 0.950 . S
C760 C758 1.391 . S
C760 C761 1.400 . S
C761 C755 1.491 . S
C761 C760 1.400 . S
C761 C762 1.398 . S
C762 H750 0.950 . S
C762 C761 1.398 . S
C762 C763 1.391 . S
C763 H751 0.950 . S
C763 C759 1.393 . S
C763 C762 1.391 . S
H764 C772 0.950 . S
H765 C777 0.950 . S
H766 C774 0.950 . S
H767 C776 0.950 . S
H768 C778 0.950 . S
H769 C780 0.950 . S
H770 C782 0.950 . S
H771 C783 0.950 . S
C772 H764 0.950 . S
C772 C773 1.386 . S
C772 C774 1.391 . S
C773 C772 1.386 . S
C773 C777 1.393 . S
C774 H766 0.950 . S
C774 C772 1.391 . S
C774 C775 1.400 . S
C775 C774 1.400 . S
C775 C776 1.398 . S
C775 C781 1.491 . S
C776 H767 0.950 . S
C776 C775 1.398 . S
C776 C777 1.391 . S
C777 H765 0.950 . S
C777 C773 1.393 . S
C777 C776 1.391 . S
C778 H768 0.950 . S
C778 C779 1.386 . S
C778 C780 1.391 . S
C779 C778 1.386 . S
C779 C783 1.393 . S
C780 H769 0.950 . S
C780 C778 1.391 . S
C780 C781 1.400 . S
C781 C775 1.491 . S
C781 C780 1.400 . S
C781 C782 1.398 . S
C782 H770 0.950 . S
C782 C781 1.398 . S
C782 C783 1.391 . S
C783 H771 0.950 . S
C783 C779 1.393 . S
C783 C782 1.391 . S
H784 C792 0.950 . S
H785 C797 0.950 . S
H786 C794 0.950 . S
H787 C796 0.950 . S
H788 C798 0.950 . S
H789 C800 0.950 . S
H790 C802 0.950 . S
H791 C803 0.950 . S
C792 H784 0.950 . S
C792 C793 1.386 . S
C792 C794 1.391 . S
C793 C792 1.386 . S
C793 C797 1.393 . S
C794 H786 0.950 . S
C794 C792 1.391 . S
C794 C795 1.400 . S
C795 C794 1.400 . S
C795 C796 1.398 . S
C795 C801 1.491 . S
C796 H787 0.950 . S
C796 C795 1.398 . S
C796 C797 1.391 . S
C797 H785 0.950 . S
C797 C793 1.393 . S
C797 C796 1.391 . S
C798 H788 0.950 . S
C798 C799 1.386 . S
C798 C800 1.391 . S
C799 C798 1.386 . S
C799 C803 1.393 . S
C800 H789 0.950 . S
C800 C798 1.391 . S
C800 C801 1.400 . S
C801 C795 1.491 . S
C801 C800 1.400 . S
C801 C802 1.398 . S
C802 H790 0.950 . S
C802 C801 1.398 . S
C802 C803 1.391 . S
C803 H791 0.950 . S
C803 C799 1.393 . S
C803 C802 1.391 . S
H804 C812 0.950 . S
H805 C817 0.950 . S
H806 C814 0.950 . S
H807 C816 0.950 . S
H808 C818 0.950 . S
H809 C820 0.950 . S
H810 C822 0.950 . S
H811 C823 0.950 . S
C812 H804 0.950 . S
C812 C813 1.386 . S
C812 C814 1.391 . S
C813 C812 1.386 . S
C813 C817 1.393 . S
C814 H806 0.950 . S
C814 C812 1.391 . S
C814 C815 1.400 . S
C815 C814 1.400 . S
C815 C816 1.398 . S
C815 C821 1.491 . S
C816 H807 0.950 . S
C816 C815 1.398 . S
C816 C817 1.391 . S
C817 H805 0.950 . S
C817 C813 1.393 . S
C817 C816 1.391 . S
C818 H808 0.950 . S
C818 C819 1.386 . S
C818 C820 1.391 . S
C819 C818 1.386 . S
C819 C823 1.393 . S
C820 H809 0.950 . S
C820 C818 1.391 . S
C820 C821 1.400 . S
C821 C815 1.491 . S
C821 C820 1.400 . S
C821 C822 1.398 . S
C822 H810 0.950 . S
C822 C821 1.398 . S
C822 C823 1.391 . S
C823 H811 0.950 . S
C823 C819 1.393 . S
C823 C822 1.391 . S
H824 C832 0.950 . S
H825 C837 0.950 . S
H826 C834 0.950 . S
H827 C836 0.950 . S
H828 C838 0.950 . S
H829 C840 0.950 . S
H830 C842 0.950 . S
H831 C843 0.950 . S
C832 H824 0.950 . S
C832 C833 1.386 . S
C832 C834 1.391 . S
C833 C832 1.386 . S
C833 C837 1.393 . S
C834 H826 0.950 . S
C834 C832 1.391 . S
C834 C835 1.400 . S
C835 C834 1.400 . S
C835 C836 1.398 . S
C835 C841 1.491 . S
C836 H827 0.950 . S
C836 C835 1.398 . S
C836 C837 1.391 . S
C837 H825 0.950 . S
C837 C833 1.393 . S
C837 C836 1.391 . S
C838 H828 0.950 . S
C838 C839 1.386 . S
C838 C840 1.391 . S
C839 C838 1.386 . S
C839 C843 1.393 . S
C840 H829 0.950 . S
C840 C838 1.391 . S
C840 C841 1.400 . S
C841 C835 1.491 . S
C841 C840 1.400 . S
C841 C842 1.398 . S
C842 H830 0.950 . S
C842 C841 1.398 . S
C842 C843 1.391 . S
C843 H831 0.950 . S
C843 C839 1.393 . S
C843 C842 1.391 . S
H844 C852 0.950 . S
H845 C857 0.950 . S
H846 C854 0.950 . S
H847 C856 0.950 . S
H848 C858 0.950 . S
H849 C860 0.950 . S
H850 C862 0.950 . S
H851 C863 0.950 . S
C852 H844 0.950 . S
C852 C853 1.386 . S
C852 C854 1.391 . S
C853 C852 1.386 . S
C853 C857 1.393 . S
C854 H846 0.950 . S
C854 C852 1.391 . S
C854 C855 1.400 . S
C855 C854 1.400 . S
C855 C856 1.398 . S
C855 C861 1.491 . S
C856 H847 0.950 . S
C856 C855 1.398 . S
C856 C857 1.391 . S
C857 H845 0.950 . S
C857 C853 1.393 . S
C857 C856 1.391 . S
C858 H848 0.950 . S
C858 C859 1.386 . S
C858 C860 1.391 . S
C859 C858 1.386 . S
C859 C863 1.393 . S
C860 H849 0.950 . S
C860 C858 1.391 . S
C860 C861 1.400 . S
C861 C855 1.491 . S
C861 C860 1.400 . S
C861 C862 1.398 . S
C862 H850 0.950 . S
C862 C861 1.398 . S
C862 C863 1.391 . S
C863 H851 0.950 . S
C863 C859 1.393 . S
C863 C862 1.391 . S
H864 C872 0.950 . S
H865 C877 0.950 . S
H866 C874 0.950 1_554 S
H867 C876 0.950 1_545 S
H868 C878 0.950 . S
H869 C880 0.950 1_556 S
H870 C882 0.950 1_565 S
H871 C883 0.950 . S
C872 H864 0.950 . S
C872 C873 1.386 . S
C872 C874 1.391 . S
C873 C872 1.386 . S
C873 C877 1.393 . S
C874 H866 0.950 1_556 S
C874 C872 1.391 . S
C874 C875 1.400 . S
C875 C874 1.400 . S
C875 C876 1.398 . S
C875 C881 1.491 1_566 S
C876 H867 0.950 1_565 S
C876 C875 1.398 . S
C876 C877 1.391 . S
C877 H865 0.950 . S
C877 C873 1.393 . S
C877 C876 1.391 . S
C878 H868 0.950 . S
C878 C879 1.386 . S
C878 C880 1.391 . S
C879 C878 1.386 . S
C879 C883 1.393 . S
C880 H869 0.950 1_554 S
C880 C878 1.391 . S
C880 C881 1.400 . S
C881 C875 1.491 1_544 S
C881 C880 1.400 . S
C881 C882 1.398 . S
C882 H870 0.950 1_545 S
C882 C881 1.398 . S
C882 C883 1.391 . S
C883 H871 0.950 . S
C883 C879 1.393 . S
C883 C882 1.391 . S
H884 C892 0.950 . S
H885 C897 0.950 . S
H886 C894 0.900 1_455 S
H887 C896 0.950 1_556 S
H888 C898 0.950 . S
H889 C900 0.900 1_655 S
H890 C902 0.950 1_554 S
H891 C903 0.950 . S
C892 H884 0.950 . S
C892 C893 1.386 . S
C892 C894 1.438 . S
C893 C892 1.386 . S
C893 C897 1.393 . S
C894 H886 0.900 1_655 S
C894 C892 1.438 . S
C894 C895 1.408 . S
C895 C894 1.408 . S
C895 C896 1.398 . S
C895 C901 1.491 1_654 S
C896 H887 0.950 1_554 S
C896 C895 1.398 . S
C896 C897 1.391 . S
C897 H885 0.950 . S
C897 C893 1.393 . S
C897 C896 1.391 . S
C898 H888 0.950 . S
C898 C899 1.386 . S
C898 C900 1.439 . S
C899 C898 1.386 . S
C899 C903 1.393 . S
C900 H889 0.900 1_455 S
C900 C898 1.439 . S
C900 C901 1.408 . S
C901 C895 1.491 1_456 S
C901 C900 1.408 . S
C901 C902 1.398 . S
C902 H890 0.950 1_556 S
C902 C901 1.398 . S
C902 C903 1.391 . S
C903 H891 0.950 . S
C903 C899 1.393 . S
C903 C902 1.391 . S
H904 C912 0.950 . S
H905 C917 0.950 . S
H906 C914 0.950 1_554 S
H907 C916 0.950 . S
H908 C918 0.950 . S
H909 C920 0.950 1_556 S
H910 C922 0.950 . S
H911 C923 0.950 . S
C912 H904 0.950 . S
C912 C913 1.386 . S
C912 C914 1.391 . S
C913 C912 1.386 . S
C913 C917 1.393 . S
C914 H906 0.950 1_556 S
C914 C912 1.391 . S
C914 C915 1.400 . S
C915 C914 1.400 . S
C915 C916 1.398 . S
C915 C921 1.491 1_556 S
C916 H907 0.950 . S
C916 C915 1.398 . S
C916 C917 1.391 . S
C917 H905 0.950 . S
C917 C913 1.393 . S
C917 C916 1.391 . S
C918 H908 0.950 . S
C918 C919 1.386 . S
C918 C920 1.391 . S
C919 C918 1.386 . S
C919 C923 1.393 . S
C920 H909 0.950 1_554 S
C920 C918 1.391 . S
C920 C921 1.400 . S
C921 C915 1.491 1_554 S
C921 C920 1.400 . S
C921 C922 1.398 . S
C922 H910 0.950 . S
C922 C921 1.398 . S
C922 C923 1.391 . S
C923 H911 0.950 . S
C923 C919 1.393 . S
C923 C922 1.391 . S
H924 C932 0.950 . S
H925 C937 0.950 . S
H926 C934 0.950 1_545 S
H927 C936 0.950 1_554 S
H928 C938 0.950 . S
H929 C940 0.950 1_565 S
H930 C942 0.950 1_556 S
H931 C943 0.950 . S
C932 H924 0.950 . S
C932 C933 1.386 . S
C932 C934 1.391 . S
C933 C932 1.386 . S
C933 C937 1.393 . S
C934 H926 0.950 1_565 S
C934 C932 1.391 . S
C934 C935 1.400 . S
C935 C934 1.400 . S
C935 C936 1.398 . S
C935 C941 1.491 1_566 S
C936 H927 0.950 1_556 S
C936 C935 1.398 . S
C936 C937 1.391 . S
C937 H925 0.950 . S
C937 C933 1.393 . S
C937 C936 1.391 . S
C938 H928 0.950 . S
C938 C939 1.386 . S
C938 C940 1.391 . S
C939 C938 1.386 . S
C939 C943 1.393 . S
C940 H929 0.950 1_545 S
C940 C938 1.391 . S
C940 C941 1.400 . S
C941 C935 1.491 1_544 S
C941 C940 1.400 . S
C941 C942 1.398 . S
C942 H930 0.950 1_554 S
C942 C941 1.398 . S
C942 C943 1.391 . S
C943 H931 0.950 . S
C943 C939 1.393 . S
C943 C942 1.391 . S
H944 C952 0.950 . S
H945 C957 0.950 . S
H946 C954 0.950 1_554 S
H947 C956 0.937 1_655 S
H948 C958 0.950 . S
H949 C960 0.950 1_556 S
H950 C962 0.936 1_455 S
H951 C963 0.950 . S
C952 H944 0.950 . S
C952 C953 1.386 . S
C952 C954 1.391 . S
C953 C952 1.386 . S
C953 C957 1.393 . S
C954 H946 0.950 1_556 S
C954 C952 1.391 . S
C954 C955 1.400 . S
C955 C954 1.400 . S
C955 C956 1.404 . S
C955 C961 1.491 1_456 S
C956 H947 0.937 1_455 S
C956 C955 1.404 . S
C956 C957 1.399 . S
C957 H945 0.950 . S
C957 C953 1.393 . S
C957 C956 1.399 . S
C958 H948 0.950 . S
C958 C959 1.386 . S
C958 C960 1.391 . S
C959 C958 1.386 . S
C959 C963 1.393 . S
C960 H949 0.950 1_554 S
C960 C958 1.391 . S
C960 C961 1.400 . S
C961 C955 1.491 1_654 S
C961 C960 1.400 . S
C961 C962 1.404 . S
C962 H950 0.936 1_655 S
C962 C961 1.404 . S
C962 C963 1.399 . S
C963 H951 0.950 . S
C963 C959 1.393 . S
C963 C962 1.399 . S
H964 C972 0.950 . S
H965 C977 0.950 . S
H966 C974 0.950 . S
H967 C976 0.950 . S
H968 C978 0.950 . S
H969 C980 0.950 . S
H970 C982 0.950 . S
H971 C983 0.950 . S
C972 H964 0.950 . S
C972 C973 1.386 . S
C972 C974 1.391 . S
C973 C972 1.386 . S
C973 C977 1.393 . S
C974 H966 0.950 . S
C974 C972 1.391 . S
C974 C975 1.400 . S
C975 C974 1.400 . S
C975 C976 1.398 . S
C975 C981 1.491 1_554 S
C976 H967 0.950 . S
C976 C975 1.398 . S
C976 C977 1.391 . S
C977 H965 0.950 . S
C977 C973 1.393 . S
C977 C976 1.391 . S
C978 H968 0.950 . S
C978 C979 1.386 . S
C978 C980 1.391 . S
C979 C978 1.386 . S
C979 C983 1.393 . S
C980 H969 0.950 . S
C980 C978 1.391 . S
C980 C981 1.400 . S
C981 C975 1.491 1_556 S
C981 C980 1.400 . S
C981 C982 1.398 . S
C982 H970 0.950 . S
C982 C981 1.398 . S
C982 C983 1.391 . S
C983 H971 0.950 . S
C983 C979 1.393 . S
C983 C982 1.391 . S
H984 C992 0.950 . S
H985 C997 0.950 . S
H986 C994 0.950 . S
H987 C996 0.950 . S
H988 C998 0.950 . S
H989 C1000 0.950 . S
H990 C1002 0.950 . S
H991 C1003 0.950 . S
C992 H984 0.950 . S
C992 C993 1.386 . S
C992 C994 1.391 . S
C993 C992 1.386 . S
C993 C997 1.393 . S
C994 H986 0.950 . S
C994 C992 1.391 . S
C994 C995 1.400 . S
C995 C994 1.400 . S
C995 C996 1.398 . S
C995 C1001 1.491 . S
C996 H987 0.950 . S
C996 C995 1.398 . S
C996 C997 1.391 . S
C997 H985 0.950 . S
C997 C993 1.393 . S
C997 C996 1.391 . S
C998 H988 0.950 . S
C998 C999 1.386 . S
C998 C1000 1.391 . S
C999 C998 1.386 . S
C999 C1003 1.393 . S
C1000 H989 0.950 . S
C1000 C998 1.391 . S
C1000 C1001 1.400 . S
C1001 C995 1.491 . S
C1001 C1000 1.400 . S
C1001 C1002 1.398 . S
C1002 H990 0.950 . S
C1002 C1001 1.398 . S
C1002 C1003 1.391 . S
C1003 H991 0.950 . S
C1003 C999 1.393 . S
C1003 C1002 1.391 . S
H1004 C1012 0.950 . S
H1005 C1017 0.950 . S
H1006 C1014 0.950 . S
H1007 C1016 0.950 . S
H1008 C1018 0.950 . S
H1009 C1020 0.950 . S
H1010 C1022 0.950 . S
H1011 C1023 0.950 . S
C1012 H1004 0.950 . S
C1012 C1013 1.386 . S
C1012 C1014 1.391 . S
C1013 C1012 1.386 . S
C1013 C1017 1.393 . S
C1014 H1006 0.950 . S
C1014 C1012 1.391 . S
C1014 C1015 1.400 . S
C1015 C1014 1.400 . S
C1015 C1016 1.398 . S
C1015 C1021 1.491 . S
C1016 H1007 0.950 . S
C1016 C1015 1.398 . S
C1016 C1017 1.391 . S
C1017 H1005 0.950 . S
C1017 C1013 1.393 . S
C1017 C1016 1.391 . S
C1018 H1008 0.950 . S
C1018 C1019 1.386 . S
C1018 C1020 1.391 . S
C1019 C1018 1.386 . S
C1019 C1023 1.393 . S
C1020 H1009 0.950 . S
C1020 C1018 1.391 . S
C1020 C1021 1.400 . S
C1021 C1015 1.491 . S
C1021 C1020 1.400 . S
C1021 C1022 1.398 . S
C1022 H1010 0.950 . S
C1022 C1021 1.398 . S
C1022 C1023 1.391 . S
C1023 H1011 0.950 . S
C1023 C1019 1.393 . S
C1023 C1022 1.391 . S
H1024 C1032 0.950 . S
H1025 C1037 0.950 . S
H1026 C1034 0.950 . S
H1027 C1036 0.950 . S
H1028 C1038 0.950 . S
H1029 C1040 0.950 . S
H1030 C1042 0.950 . S
H1031 C1043 0.950 . S
C1032 H1024 0.950 . S
C1032 C1033 1.386 . S
C1032 C1034 1.391 . S
C1033 C1032 1.386 . S
C1033 C1037 1.393 . S
C1034 H1026 0.950 . S
C1034 C1032 1.391 . S
C1034 C1035 1.400 . S
C1035 C1034 1.400 . S
C1035 C1036 1.398 . S
C1035 C1041 1.491 . S
C1036 H1027 0.950 . S
C1036 C1035 1.398 . S
C1036 C1037 1.391 . S
C1037 H1025 0.950 . S
C1037 C1033 1.393 . S
C1037 C1036 1.391 . S
C1038 H1028 0.950 . S
C1038 C1039 1.386 . S
C1038 C1040 1.391 . S
C1039 C1038 1.386 . S
C1039 C1043 1.393 . S
C1040 H1029 0.950 . S
C1040 C1038 1.391 . S
C1040 C1041 1.400 . S
C1041 C1035 1.491 . S
C1041 C1040 1.400 . S
C1041 C1042 1.398 . S
C1042 H1030 0.950 . S
C1042 C1041 1.398 . S
C1042 C1043 1.391 . S
C1043 H1031 0.950 . S
C1043 C1039 1.393 . S
C1043 C1042 1.391 . S
H1044 C1052 0.950 . S
H1045 C1057 0.950 . S
H1046 C1054 0.950 . S
H1047 C1056 0.950 . S
H1048 C1058 0.950 . S
H1049 C1060 0.950 . S
H1050 C1062 0.950 . S
H1051 C1063 0.950 . S
C1052 H1044 0.950 . S
C1052 C1053 1.386 . S
C1052 C1054 1.391 . S
C1053 C1052 1.386 . S
C1053 C1057 1.393 . S
C1054 H1046 0.950 . S
C1054 C1052 1.391 . S
C1054 C1055 1.400 . S
C1055 C1054 1.400 . S
C1055 C1056 1.398 . S
C1055 C1061 1.491 . S
C1056 H1047 0.950 . S
C1056 C1055 1.398 . S
C1056 C1057 1.391 . S
C1057 H1045 0.950 . S
C1057 C1053 1.393 . S
C1057 C1056 1.391 . S
C1058 H1048 0.950 . S
C1058 C1059 1.386 . S
C1058 C1060 1.391 . S
C1059 C1058 1.386 . S
C1059 C1063 1.393 . S
C1060 H1049 0.950 . S
C1060 C1058 1.391 . S
C1060 C1061 1.400 . S
C1061 C1055 1.491 . S
C1061 C1060 1.400 . S
C1061 C1062 1.398 . S
C1062 H1050 0.950 . S
C1062 C1061 1.398 . S
C1062 C1063 1.391 . S
C1063 H1051 0.950 . S
C1063 C1059 1.393 . S
C1063 C1062 1.391 . S
H1064 C1072 0.950 . S
H1065 C1077 0.950 . S
H1066 C1074 0.950 . S
H1067 C1076 0.950 . S
H1068 C1078 0.950 . S
H1069 C1080 0.950 . S
H1070 C1082 0.950 . S
H1071 C1083 0.950 . S
C1072 H1064 0.950 . S
C1072 C1073 1.386 . S
C1072 C1074 1.391 . S
C1073 C1072 1.386 . S
C1073 C1077 1.393 . S
C1074 H1066 0.950 . S
C1074 C1072 1.391 . S
C1074 C1075 1.400 . S
C1075 C1074 1.400 . S
C1075 C1076 1.398 . S
C1075 C1081 1.491 . S
C1076 H1067 0.950 . S
C1076 C1075 1.398 . S
C1076 C1077 1.391 . S
C1077 H1065 0.950 . S
C1077 C1073 1.393 . S
C1077 C1076 1.391 . S
C1078 H1068 0.950 . S
C1078 C1079 1.386 . S
C1078 C1080 1.391 . S
C1079 C1078 1.386 . S
C1079 C1083 1.393 . S
C1080 H1069 0.950 . S
C1080 C1078 1.391 . S
C1080 C1081 1.400 . S
C1081 C1075 1.491 . S
C1081 C1080 1.400 . S
C1081 C1082 1.398 . S
C1082 H1070 0.950 . S
C1082 C1081 1.398 . S
C1082 C1083 1.391 . S
C1083 H1071 0.950 . S
C1083 C1079 1.393 . S
C1083 C1082 1.391 . S
H1084 C1092 0.950 . S
H1085 C1097 0.950 . S
H1086 C1094 0.950 . S
H1087 C1096 0.950 . S
H1088 C1098 0.950 . S
H1089 C1100 0.950 . S
H1090 C1102 0.950 . S
H1091 C1103 0.950 . S
C1092 H1084 0.950 . S
C1092 C1093 1.386 . S
C1092 C1094 1.391 . S
C1093 C1092 1.386 . S
C1093 C1097 1.393 . S
C1094 H1086 0.950 . S
C1094 C1092 1.391 . S
C1094 C1095 1.400 . S
C1095 C1094 1.400 . S
C1095 C1096 1.398 . S
C1095 C1101 1.491 . S
C1096 H1087 0.950 . S
C1096 C1095 1.398 . S
C1096 C1097 1.391 . S
C1097 H1085 0.950 . S
C1097 C1093 1.393 . S
C1097 C1096 1.391 . S
C1098 H1088 0.950 . S
C1098 C1099 1.386 . S
C1098 C1100 1.391 . S
C1099 C1098 1.386 . S
C1099 C1103 1.393 . S
C1100 H1089 0.950 . S
C1100 C1098 1.391 . S
C1100 C1101 1.400 . S
C1101 C1095 1.491 . S
C1101 C1100 1.400 . S
C1101 C1102 1.398 . S
C1102 H1090 0.950 . S
C1102 C1101 1.398 . S
C1102 C1103 1.391 . S
C1103 H1091 0.950 . S
C1103 C1099 1.393 . S
C1103 C1102 1.391 . S
H1104 C1112 0.950 . S
H1105 C1117 0.950 . S
H1106 C1114 0.950 . S
H1107 C1116 0.950 . S
H1108 C1118 0.950 . S
H1109 C1120 0.950 . S
H1110 C1122 0.950 . S
H1111 C1123 0.950 . S
C1112 H1104 0.950 . S
C1112 C1113 1.386 . S
C1112 C1114 1.391 . S
C1113 C1112 1.386 . S
C1113 C1117 1.393 . S
C1114 H1106 0.950 . S
C1114 C1112 1.391 . S
C1114 C1115 1.400 . S
C1115 C1114 1.400 . S
C1115 C1116 1.398 . S
C1115 C1121 1.491 . S
C1116 H1107 0.950 . S
C1116 C1115 1.398 . S
C1116 C1117 1.391 . S
C1117 H1105 0.950 . S
C1117 C1113 1.393 . S
C1117 C1116 1.391 . S
C1118 H1108 0.950 . S
C1118 C1119 1.386 . S
C1118 C1120 1.391 . S
C1119 C1118 1.386 . S
C1119 C1123 1.393 . S
C1120 H1109 0.950 . S
C1120 C1118 1.391 . S
C1120 C1121 1.400 . S
C1121 C1115 1.491 . S
C1121 C1120 1.400 . S
C1121 C1122 1.398 . S
C1122 H1110 0.950 . S
C1122 C1121 1.398 . S
C1122 C1123 1.391 . S
C1123 H1111 0.950 . S
C1123 C1119 1.393 . S
C1123 C1122 1.391 . S
H1124 C1132 0.950 . S
H1125 C1137 0.950 . S
H1126 C1134 0.950 . S
H1127 C1136 0.950 . S
H1128 C1138 0.950 . S
H1129 C1140 0.950 . S
H1130 C1142 0.950 . S
H1131 C1143 0.950 . S
C1132 H1124 0.950 . S
C1132 C1133 1.386 . S
C1132 C1134 1.391 . S
C1133 C1132 1.386 . S
C1133 C1137 1.393 . S
C1134 H1126 0.950 . S
C1134 C1132 1.391 . S
C1134 C1135 1.400 . S
C1135 C1134 1.400 . S
C1135 C1136 1.398 . S
C1135 C1141 1.491 . S
C1136 H1127 0.950 . S
C1136 C1135 1.398 . S
C1136 C1137 1.391 . S
C1137 H1125 0.950 . S
C1137 C1133 1.393 . S
C1137 C1136 1.391 . S
C1138 H1128 0.950 . S
C1138 C1139 1.386 . S
C1138 C1140 1.391 . S
C1139 C1138 1.386 . S
C1139 C1143 1.393 . S
C1140 H1129 0.950 . S
C1140 C1138 1.391 . S
C1140 C1141 1.400 . S
C1141 C1135 1.491 . S
C1141 C1140 1.400 . S
C1141 C1142 1.398 . S
C1142 H1130 0.950 . S
C1142 C1141 1.398 . S
C1142 C1143 1.391 . S
C1143 H1131 0.950 . S
C1143 C1139 1.393 . S
C1143 C1142 1.391 . S
H1144 C1152 0.950 . S
H1145 C1157 0.950 . S
H1146 C1154 0.950 . S
H1147 C1156 0.950 . S
H1148 C1158 0.950 . S
H1149 C1160 0.950 . S
H1150 C1162 0.950 . S
H1151 C1163 0.950 . S
C1152 H1144 0.950 . S
C1152 C1153 1.386 . S
C1152 C1154 1.391 . S
C1153 C1152 1.386 . S
C1153 C1157 1.393 . S
C1154 H1146 0.950 . S
C1154 C1152 1.391 . S
C1154 C1155 1.400 . S
C1155 C1154 1.400 . S
C1155 C1156 1.398 . S
C1155 C1161 1.491 . S
C1156 H1147 0.950 . S
C1156 C1155 1.398 . S
C1156 C1157 1.391 . S
C1157 H1145 0.950 . S
C1157 C1153 1.393 . S
C1157 C1156 1.391 . S
C1158 H1148 0.950 . S
C1158 C1159 1.386 . S
C1158 C1160 1.391 . S
C1159 C1158 1.386 . S
C1159 C1163 1.393 . S
C1160 H1149 0.950 . S
C1160 C1158 1.391 . S
C1160 C1161 1.400 . S
C1161 C1155 1.491 . S
C1161 C1160 1.400 . S
C1161 C1162 1.398 . S
C1162 H1150 0.950 . S
C1162 C1161 1.398 . S
C1162 C1163 1.391 . S
C1163 H1151 0.950 . S
C1163 C1159 1.393 . S
C1163 C1162 1.391 . S
H1164 C1172 0.950 . S
H1165 C1177 0.950 . S
H1166 C1174 0.950 . S
H1167 C1176 0.950 . S
H1168 C1178 0.950 . S
H1169 C1180 0.950 . S
H1170 C1182 0.950 . S
H1171 C1183 0.950 . S
C1172 H1164 0.950 . S
C1172 C1173 1.386 . S
C1172 C1174 1.391 . S
C1173 C1172 1.386 . S
C1173 C1177 1.393 . S
C1174 H1166 0.950 . S
C1174 C1172 1.391 . S
C1174 C1175 1.400 . S
C1175 C1174 1.400 . S
C1175 C1176 1.398 . S
C1175 C1181 1.491 . S
C1176 H1167 0.950 . S
C1176 C1175 1.398 . S
C1176 C1177 1.391 . S
C1177 H1165 0.950 . S
C1177 C1173 1.393 . S
C1177 C1176 1.391 . S
C1178 H1168 0.950 . S
C1178 C1179 1.386 . S
C1178 C1180 1.391 . S
C1179 C1178 1.386 . S
C1179 C1183 1.393 . S
C1180 H1169 0.950 . S
C1180 C1178 1.391 . S
C1180 C1181 1.400 . S
C1181 C1175 1.491 . S
C1181 C1180 1.400 . S
C1181 C1182 1.398 . S
C1182 H1170 0.950 . S
C1182 C1181 1.398 . S
C1182 C1183 1.391 . S
C1183 H1171 0.950 . S
C1183 C1179 1.393 . S
C1183 C1182 1.391 . S
H1184 C1192 0.950 . S
H1185 C1197 0.950 . S
H1186 C1194 0.950 . S
H1187 C1196 0.950 . S
H1188 C1198 0.950 . S
H1189 C1200 0.950 . S
H1190 C1202 0.950 . S
H1191 C1203 0.950 . S
C1192 H1184 0.950 . S
C1192 C1193 1.386 . S
C1192 C1194 1.391 . S
C1193 C1192 1.386 . S
C1193 C1197 1.393 . S
C1194 H1186 0.950 . S
C1194 C1192 1.391 . S
C1194 C1195 1.400 . S
C1195 C1194 1.400 . S
C1195 C1196 1.398 . S
C1195 C1201 1.491 . S
C1196 H1187 0.950 . S
C1196 C1195 1.398 . S
C1196 C1197 1.391 . S
C1197 H1185 0.950 . S
C1197 C1193 1.393 . S
C1197 C1196 1.391 . S
C1198 H1188 0.950 . S
C1198 C1199 1.386 . S
C1198 C1200 1.391 . S
C1199 C1198 1.386 . S
C1199 C1203 1.393 . S
C1200 H1189 0.950 . S
C1200 C1198 1.391 . S
C1200 C1201 1.400 . S
C1201 C1195 1.491 . S
C1201 C1200 1.400 . S
C1201 C1202 1.398 . S
C1202 H1190 0.950 . S
C1202 C1201 1.398 . S
C1202 C1203 1.391 . S
C1203 H1191 0.950 . S
C1203 C1199 1.393 . S
C1203 C1202 1.391 . S
H1204 C1212 0.950 . S
H1205 C1217 0.950 . S
H1206 C1214 0.950 . S
H1207 C1216 0.950 . S
H1208 C1218 0.950 . S
H1209 C1220 0.950 . S
H1210 C1222 0.950 . S
H1211 C1223 0.950 . S
C1212 H1204 0.950 . S
C1212 C1213 1.386 . S
C1212 C1214 1.391 . S
C1213 C1212 1.386 . S
C1213 C1217 1.393 . S
C1214 H1206 0.950 . S
C1214 C1212 1.391 . S
C1214 C1215 1.400 . S
C1215 C1214 1.400 . S
C1215 C1216 1.398 . S
C1215 C1221 1.491 . S
C1216 H1207 0.950 . S
C1216 C1215 1.398 . S
C1216 C1217 1.391 . S
C1217 H1205 0.950 . S
C1217 C1213 1.393 . S
C1217 C1216 1.391 . S
C1218 H1208 0.950 . S
C1218 C1219 1.386 . S
C1218 C1220 1.391 . S
C1219 C1218 1.386 . S
C1219 C1223 1.393 . S
C1220 H1209 0.950 . S
C1220 C1218 1.391 . S
C1220 C1221 1.400 . S
C1221 C1215 1.491 . S
C1221 C1220 1.400 . S
C1221 C1222 1.398 . S
C1222 H1210 0.950 . S
C1222 C1221 1.398 . S
C1222 C1223 1.391 . S
C1223 H1211 0.950 . S
C1223 C1219 1.393 . S
C1223 C1222 1.391 . S
H1224 C1232 0.950 . S
H1225 C1237 0.950 . S
H1226 C1234 0.950 . S
H1227 C1236 0.950 . S
H1228 C1238 0.950 . S
H1229 C1240 0.950 . S
H1230 C1242 0.950 . S
H1231 C1243 0.950 . S
C1232 H1224 0.950 . S
C1232 C1233 1.386 . S
C1232 C1234 1.391 . S
C1233 C1232 1.386 . S
C1233 C1237 1.393 . S
C1234 H1226 0.950 . S
C1234 C1232 1.391 . S
C1234 C1235 1.400 . S
C1235 C1234 1.400 . S
C1235 C1236 1.398 . S
C1235 C1241 1.491 . S
C1236 H1227 0.950 . S
C1236 C1235 1.398 . S
C1236 C1237 1.391 . S
C1237 H1225 0.950 . S
C1237 C1233 1.393 . S
C1237 C1236 1.391 . S
C1238 H1228 0.950 . S
C1238 C1239 1.386 . S
C1238 C1240 1.391 . S
C1239 C1238 1.386 . S
C1239 C1243 1.393 . S
C1240 H1229 0.950 . S
C1240 C1238 1.391 . S
C1240 C1241 1.400 . S
C1241 C1235 1.491 . S
C1241 C1240 1.400 . S
C1241 C1242 1.398 . S
C1242 H1230 0.950 . S
C1242 C1241 1.398 . S
C1242 C1243 1.391 . S
C1243 H1231 0.950 . S
C1243 C1239 1.393 . S
C1243 C1242 1.391 . S
H1244 C1252 0.950 . S
H1245 C1257 0.950 . S
H1246 C1254 0.950 . S
H1247 C1256 0.950 . S
H1248 C1258 0.950 . S
H1249 C1260 0.950 . S
H1250 C1262 0.950 . S
H1251 C1263 0.950 . S
C1252 H1244 0.950 . S
C1252 C1253 1.386 . S
C1252 C1254 1.391 . S
C1253 C1252 1.386 . S
C1253 C1257 1.393 . S
C1254 H1246 0.950 . S
C1254 C1252 1.391 . S
C1254 C1255 1.400 . S
C1255 C1254 1.400 . S
C1255 C1256 1.398 . S
C1255 C1261 1.491 . S
C1256 H1247 0.950 . S
C1256 C1255 1.398 . S
C1256 C1257 1.391 . S
C1257 H1245 0.950 . S
C1257 C1253 1.393 . S
C1257 C1256 1.391 . S
C1258 H1248 0.950 . S
C1258 C1259 1.386 . S
C1258 C1260 1.391 . S
C1259 C1258 1.386 . S
C1259 C1263 1.393 . S
C1260 H1249 0.950 . S
C1260 C1258 1.391 . S
C1260 C1261 1.400 . S
C1261 C1255 1.491 . S
C1261 C1260 1.400 . S
C1261 C1262 1.398 . S
C1262 H1250 0.950 . S
C1262 C1261 1.398 . S
C1262 C1263 1.391 . S
C1263 H1251 0.950 . S
C1263 C1259 1.393 . S
C1263 C1262 1.391 . S
H1264 C1272 0.950 . S
H1265 C1277 0.950 . S
H1266 C1274 0.950 . S
H1267 C1276 0.950 . S
H1268 C1278 0.950 . S
H1269 C1280 0.950 . S
H1270 C1282 0.950 . S
H1271 C1283 0.950 . S
C1272 H1264 0.950 . S
C1272 C1273 1.386 . S
C1272 C1274 1.391 . S
C1273 C1272 1.386 . S
C1273 C1277 1.393 . S
C1274 H1266 0.950 . S
C1274 C1272 1.391 . S
C1274 C1275 1.400 . S
C1275 C1274 1.400 . S
C1275 C1276 1.398 . S
C1275 C1281 1.491 . S
C1276 H1267 0.950 . S
C1276 C1275 1.398 . S
C1276 C1277 1.391 . S
C1277 H1265 0.950 . S
C1277 C1273 1.393 . S
C1277 C1276 1.391 . S
C1278 H1268 0.950 . S
C1278 C1279 1.386 . S
C1278 C1280 1.391 . S
C1279 C1278 1.386 . S
C1279 C1283 1.393 . S
C1280 H1269 0.950 . S
C1280 C1278 1.391 . S
C1280 C1281 1.400 . S
C1281 C1275 1.491 . S
C1281 C1280 1.400 . S
C1281 C1282 1.398 . S
C1282 H1270 0.950 . S
C1282 C1281 1.398 . S
C1282 C1283 1.391 . S
C1283 H1271 0.950 . S
C1283 C1279 1.393 . S
C1283 C1282 1.391 . S
H1284 C1292 0.950 . S
H1285 C1297 0.950 . S
H1286 C1294 0.950 . S
H1287 C1296 0.950 . S
H1288 C1298 0.950 . S
H1289 C1300 0.950 . S
H1290 C1302 0.950 . S
H1291 C1303 0.950 . S
C1292 H1284 0.950 . S
C1292 C1293 1.386 . S
C1292 C1294 1.391 . S
C1293 C1292 1.386 . S
C1293 C1297 1.393 . S
C1294 H1286 0.950 . S
C1294 C1292 1.391 . S
C1294 C1295 1.400 . S
C1295 C1294 1.400 . S
C1295 C1296 1.398 . S
C1295 C1301 1.491 . S
C1296 H1287 0.950 . S
C1296 C1295 1.398 . S
C1296 C1297 1.391 . S
C1297 H1285 0.950 . S
C1297 C1293 1.393 . S
C1297 C1296 1.391 . S
C1298 H1288 0.950 . S
C1298 C1299 1.386 . S
C1298 C1300 1.391 . S
C1299 C1298 1.386 . S
C1299 C1303 1.393 . S
C1300 H1289 0.950 . S
C1300 C1298 1.391 . S
C1300 C1301 1.400 . S
C1301 C1295 1.491 . S
C1301 C1300 1.400 . S
C1301 C1302 1.398 . S
C1302 H1290 0.950 . S
C1302 C1301 1.398 . S
C1302 C1303 1.391 . S
C1303 H1291 0.950 . S
C1303 C1299 1.393 . S
C1303 C1302 1.391 . S
H1304 C1312 0.950 . S
H1305 C1317 0.950 . S
H1306 C1314 0.950 . S
H1307 C1316 0.950 . S
H1308 C1318 0.950 . S
H1309 C1320 0.950 . S
H1310 C1322 0.950 . S
H1311 C1323 0.950 . S
C1312 H1304 0.950 . S
C1312 C1313 1.386 . S
C1312 C1314 1.391 . S
C1313 C1312 1.386 . S
C1313 C1317 1.393 . S
C1314 H1306 0.950 . S
C1314 C1312 1.391 . S
C1314 C1315 1.400 . S
C1315 C1314 1.400 . S
C1315 C1316 1.398 . S
C1315 C1321 1.491 . S
C1316 H1307 0.950 . S
C1316 C1315 1.398 . S
C1316 C1317 1.391 . S
C1317 H1305 0.950 . S
C1317 C1313 1.393 . S
C1317 C1316 1.391 . S
C1318 H1308 0.950 . S
C1318 C1319 1.386 . S
C1318 C1320 1.391 . S
C1319 C1318 1.386 . S
C1319 C1323 1.393 . S
C1320 H1309 0.950 . S
C1320 C1318 1.391 . S
C1320 C1321 1.400 . S
C1321 C1315 1.491 . S
C1321 C1320 1.400 . S
C1321 C1322 1.398 . S
C1322 H1310 0.950 . S
C1322 C1321 1.398 . S
C1322 C1323 1.391 . S
C1323 H1311 0.950 . S
C1323 C1319 1.393 . S
C1323 C1322 1.391 . S
H1324 C1332 0.950 . S
H1325 C1337 0.950 . S
H1326 C1334 0.950 . S
H1327 C1336 0.950 . S
H1328 C1338 0.950 . S
H1329 C1340 0.950 . S
H1330 C1342 0.950 . S
H1331 C1343 0.950 . S
C1332 H1324 0.950 . S
C1332 C1333 1.386 . S
C1332 C1334 1.391 . S
C1333 C1332 1.386 . S
C1333 C1337 1.393 . S
C1334 H1326 0.950 . S
C1334 C1332 1.391 . S
C1334 C1335 1.400 . S
C1335 C1334 1.400 . S
C1335 C1336 1.398 . S
C1335 C1341 1.491 . S
C1336 H1327 0.950 . S
C1336 C1335 1.398 . S
C1336 C1337 1.391 . S
C1337 H1325 0.950 . S
C1337 C1333 1.393 . S
C1337 C1336 1.391 . S
C1338 H1328 0.950 . S
C1338 C1339 1.386 . S
C1338 C1340 1.391 . S
C1339 C1338 1.386 . S
C1339 C1343 1.393 . S
C1340 H1329 0.950 . S
C1340 C1338 1.391 . S
C1340 C1341 1.400 . S
C1341 C1335 1.491 . S
C1341 C1340 1.400 . S
C1341 C1342 1.398 . S
C1342 H1330 0.950 . S
C1342 C1341 1.398 . S
C1342 C1343 1.391 . S
C1343 H1331 0.950 . S
C1343 C1339 1.393 . S
C1343 C1342 1.391 . S
H1344 C1352 0.950 . S
H1345 C1357 0.950 . S
H1346 C1354 0.950 . S
H1347 C1356 0.950 . S
H1348 C1358 0.950 . S
H1349 C1360 0.950 . S
H1350 C1362 0.950 . S
H1351 C1363 0.950 . S
C1352 H1344 0.950 . S
C1352 C1353 1.386 . S
C1352 C1354 1.391 . S
C1353 C1352 1.386 . S
C1353 C1357 1.393 . S
C1354 H1346 0.950 . S
C1354 C1352 1.391 . S
C1354 C1355 1.400 . S
C1355 C1354 1.400 . S
C1355 C1356 1.398 . S
C1355 C1361 1.491 . S
C1356 H1347 0.950 . S
C1356 C1355 1.398 . S
C1356 C1357 1.391 . S
C1357 H1345 0.950 . S
C1357 C1353 1.393 . S
C1357 C1356 1.391 . S
C1358 H1348 0.950 . S
C1358 C1359 1.386 . S
C1358 C1360 1.391 . S
C1359 C1358 1.386 . S
C1359 C1363 1.393 . S
C1360 H1349 0.950 . S
C1360 C1358 1.391 . S
C1360 C1361 1.400 . S
C1361 C1355 1.491 . S
C1361 C1360 1.400 . S
C1361 C1362 1.398 . S
C1362 H1350 0.950 . S
C1362 C1361 1.398 . S
C1362 C1363 1.391 . S
C1363 H1351 0.950 . S
C1363 C1359 1.393 . S
C1363 C1362 1.391 . S
H1364 C1372 0.950 . S
H1365 C1377 0.950 . S
H1366 C1374 0.950 . S
H1367 C1376 0.950 . S
H1368 C1378 0.950 . S
H1369 C1380 0.950 . S
H1370 C1382 0.950 . S
H1371 C1383 0.950 . S
C1372 H1364 0.950 . S
C1372 C1373 1.386 . S
C1372 C1374 1.391 . S
C1373 C1372 1.386 . S
C1373 C1377 1.393 . S
C1374 H1366 0.950 . S
C1374 C1372 1.391 . S
C1374 C1375 1.400 . S
C1375 C1374 1.400 . S
C1375 C1376 1.398 . S
C1375 C1381 1.491 . S
C1376 H1367 0.950 . S
C1376 C1375 1.398 . S
C1376 C1377 1.391 . S
C1377 H1365 0.950 . S
C1377 C1373 1.393 . S
C1377 C1376 1.391 . S
C1378 H1368 0.950 . S
C1378 C1379 1.386 . S
C1378 C1380 1.391 . S
C1379 C1378 1.386 . S
C1379 C1383 1.393 . S
C1380 H1369 0.950 . S
C1380 C1378 1.391 . S
C1380 C1381 1.400 . S
C1381 C1375 1.491 . S
C1381 C1380 1.400 . S
C1381 C1382 1.398 . S
C1382 H1370 0.950 . S
C1382 C1381 1.398 . S
C1382 C1383 1.391 . S
C1383 H1371 0.950 . S
C1383 C1379 1.393 . S
C1383 C1382 1.391 . S
H1384 C1392 0.950 . S
H1385 C1397 0.950 . S
H1386 C1394 0.950 . S
H1387 C1396 0.950 . S
H1388 C1398 0.950 . S
H1389 C1400 0.950 . S
H1390 C1402 0.950 . S
H1391 C1403 0.950 . S
C1392 H1384 0.950 . S
C1392 C1393 1.386 . S
C1392 C1394 1.391 . S
C1393 C1392 1.386 . S
C1393 C1397 1.393 . S
C1394 H1386 0.950 . S
C1394 C1392 1.391 . S
C1394 C1395 1.400 . S
C1395 C1394 1.400 . S
C1395 C1396 1.398 . S
C1395 C1401 1.491 . S
C1396 H1387 0.950 . S
C1396 C1395 1.398 . S
C1396 C1397 1.391 . S
C1397 H1385 0.950 . S
C1397 C1393 1.393 . S
C1397 C1396 1.391 . S
C1398 H1388 0.950 . S
C1398 C1399 1.386 . S
C1398 C1400 1.391 . S
C1399 C1398 1.386 . S
C1399 C1403 1.393 . S
C1400 H1389 0.950 . S
C1400 C1398 1.391 . S
C1400 C1401 1.400 . S
C1401 C1395 1.491 . S
C1401 C1400 1.400 . S
C1401 C1402 1.398 . S
C1402 H1390 0.950 . S
C1402 C1401 1.398 . S
C1402 C1403 1.391 . S
C1403 H1391 0.950 . S
C1403 C1399 1.393 . S
C1403 C1402 1.391 . S
H1404 C1412 0.950 . S
H1405 C1417 0.950 . S
H1406 C1414 0.950 . S
H1407 C1416 0.950 . S
H1408 C1418 0.950 . S
H1409 C1420 0.950 . S
H1410 C1422 0.950 . S
H1411 C1423 0.950 . S
C1412 H1404 0.950 . S
C1412 C1413 1.386 . S
C1412 C1414 1.391 . S
C1413 C1412 1.386 . S
C1413 C1417 1.393 . S
C1414 H1406 0.950 . S
C1414 C1412 1.391 . S
C1414 C1415 1.400 . S
C1415 C1414 1.400 . S
C1415 C1416 1.398 . S
C1415 C1421 1.491 . S
C1416 H1407 0.950 . S
C1416 C1415 1.398 . S
C1416 C1417 1.391 . S
C1417 H1405 0.950 . S
C1417 C1413 1.393 . S
C1417 C1416 1.391 . S
C1418 H1408 0.950 . S
C1418 C1419 1.386 . S
C1418 C1420 1.391 . S
C1419 C1418 1.386 . S
C1419 C1423 1.393 . S
C1420 H1409 0.950 . S
C1420 C1418 1.391 . S
C1420 C1421 1.400 . S
C1421 C1415 1.491 . S
C1421 C1420 1.400 . S
C1421 C1422 1.398 . S
C1422 H1410 0.950 . S
C1422 C1421 1.398 . S
C1422 C1423 1.391 . S
C1423 H1411 0.950 . S
C1423 C1419 1.393 . S
C1423 C1422 1.391 . S
H1424 C1432 0.950 . S
H1425 C1437 0.950 . S
H1426 C1434 0.950 . S
H1427 C1436 0.950 . S
H1428 C1438 0.950 . S
H1429 C1440 0.950 . S
H1430 C1442 0.950 . S
H1431 C1443 0.950 . S
C1432 H1424 0.950 . S
C1432 C1433 1.386 . S
C1432 C1434 1.391 . S
C1433 C1432 1.386 . S
C1433 C1437 1.393 . S
C1434 H1426 0.950 . S
C1434 C1432 1.391 . S
C1434 C1435 1.400 . S
C1435 C1434 1.400 . S
C1435 C1436 1.398 . S
C1435 C1441 1.491 . S
C1436 H1427 0.950 . S
C1436 C1435 1.398 . S
C1436 C1437 1.391 . S
C1437 H1425 0.950 . S
C1437 C1433 1.393 . S
C1437 C1436 1.391 . S
C1438 H1428 0.950 . S
C1438 C1439 1.386 . S
C1438 C1440 1.391 . S
C1439 C1438 1.386 . S
C1439 C1443 1.393 . S
C1440 H1429 0.950 . S
C1440 C1438 1.391 . S
C1440 C1441 1.400 . S
C1441 C1435 1.491 . S
C1441 C1440 1.400 . S
C1441 C1442 1.398 . S
C1442 H1430 0.950 . S
C1442 C1441 1.398 . S
C1442 C1443 1.391 . S
C1443 H1431 0.950 . S
C1443 C1439 1.393 . S
C1443 C1442 1.391 . S
H1444 C1452 0.950 . S
H1445 C1457 0.950 . S
H1446 C1454 0.950 . S
H1447 C1456 0.950 . S
H1448 C1458 0.950 . S
H1449 C1460 0.950 . S
H1450 C1462 0.950 . S
H1451 C1463 0.950 . S
C1452 H1444 0.950 . S
C1452 C1453 1.386 . S
C1452 C1454 1.391 . S
C1453 C1452 1.386 . S
C1453 C1457 1.393 . S
C1454 H1446 0.950 . S
C1454 C1452 1.391 . S
C1454 C1455 1.400 . S
C1455 C1454 1.400 . S
C1455 C1456 1.398 . S
C1455 C1461 1.491 . S
C1456 H1447 0.950 . S
C1456 C1455 1.398 . S
C1456 C1457 1.391 . S
C1457 H1445 0.950 . S
C1457 C1453 1.393 . S
C1457 C1456 1.391 . S
C1458 H1448 0.950 . S
C1458 C1459 1.386 . S
C1458 C1460 1.391 . S
C1459 C1458 1.386 . S
C1459 C1463 1.393 . S
C1460 H1449 0.950 . S
C1460 C1458 1.391 . S
C1460 C1461 1.400 . S
C1461 C1455 1.491 . S
C1461 C1460 1.400 . S
C1461 C1462 1.398 . S
C1462 H1450 0.950 . S
C1462 C1461 1.398 . S
C1462 C1463 1.391 . S
C1463 H1451 0.950 . S
C1463 C1459 1.393 . S
C1463 C1462 1.391 . S
H1464 C1472 0.950 . S
H1465 C1477 0.950 . S
H1466 C1474 0.950 . S
H1467 C1476 0.950 . S
H1468 C1478 0.950 . S
H1469 C1480 0.950 . S
H1470 C1482 0.950 . S
H1471 C1483 0.950 . S
C1472 H1464 0.950 . S
C1472 C1473 1.386 . S
C1472 C1474 1.391 . S
C1473 C1472 1.386 . S
C1473 C1477 1.393 . S
C1474 H1466 0.950 . S
C1474 C1472 1.391 . S
C1474 C1475 1.400 . S
C1475 C1474 1.400 . S
C1475 C1476 1.398 . S
C1475 C1481 1.491 1_455 S
C1476 H1467 0.950 . S
C1476 C1475 1.398 . S
C1476 C1477 1.391 . S
C1477 H1465 0.950 . S
C1477 C1473 1.393 . S
C1477 C1476 1.391 . S
C1478 H1468 0.950 . S
C1478 C1479 1.386 . S
C1478 C1480 1.391 . S
C1479 C1478 1.386 . S
C1479 C1483 1.393 . S
C1480 H1469 0.950 . S
C1480 C1478 1.391 . S
C1480 C1481 1.400 . S
C1481 C1475 1.491 1_655 S
C1481 C1480 1.400 . S
C1481 C1482 1.398 . S
C1482 H1470 0.950 . S
C1482 C1481 1.398 . S
C1482 C1483 1.391 . S
C1483 H1471 0.950 . S
C1483 C1479 1.393 . S
C1483 C1482 1.391 . S
H1484 C1492 0.950 . S
H1485 C1497 0.950 . S
H1486 C1494 0.950 . S
H1487 C1496 0.950 . S
H1488 C1498 0.950 . S
H1489 C1500 0.950 . S
H1490 C1502 0.950 . S
H1491 C1503 0.950 . S
C1492 H1484 0.950 . S
C1492 C1493 1.386 . S
C1492 C1494 1.391 . S
C1493 C1492 1.386 . S
C1493 C1497 1.393 . S
C1494 H1486 0.950 . S
C1494 C1492 1.391 . S
C1494 C1495 1.400 . S
C1495 C1494 1.400 . S
C1495 C1496 1.398 . S
C1495 C1501 1.491 . S
C1496 H1487 0.950 . S
C1496 C1495 1.398 . S
C1496 C1497 1.391 . S
C1497 H1485 0.950 . S
C1497 C1493 1.393 . S
C1497 C1496 1.391 . S
C1498 H1488 0.950 . S
C1498 C1499 1.386 . S
C1498 C1500 1.391 . S
C1499 C1498 1.386 . S
C1499 C1503 1.393 . S
C1500 H1489 0.950 . S
C1500 C1498 1.391 . S
C1500 C1501 1.400 . S
C1501 C1495 1.491 . S
C1501 C1500 1.400 . S
C1501 C1502 1.398 . S
C1502 H1490 0.950 . S
C1502 C1501 1.398 . S
C1502 C1503 1.391 . S
C1503 H1491 0.950 . S
C1503 C1499 1.393 . S
C1503 C1502 1.391 . S
H1504 C1512 0.950 . S
H1505 C1517 0.950 . S
H1506 C1514 0.950 . S
H1507 C1516 0.950 . S
H1508 C1518 0.950 . S
H1509 C1520 0.950 . S
H1510 C1522 0.950 . S
H1511 C1523 0.950 . S
C1512 H1504 0.950 . S
C1512 C1513 1.386 . S
C1512 C1514 1.391 . S
C1513 C1512 1.386 . S
C1513 C1517 1.393 . S
C1514 H1506 0.950 . S
C1514 C1512 1.391 . S
C1514 C1515 1.400 . S
C1515 C1514 1.400 . S
C1515 C1516 1.398 . S
C1515 C1521 1.491 1_545 S
C1516 H1507 0.950 . S
C1516 C1515 1.398 . S
C1516 C1517 1.391 . S
C1517 H1505 0.950 . S
C1517 C1513 1.393 . S
C1517 C1516 1.391 . S
C1518 H1508 0.950 . S
C1518 C1519 1.386 . S
C1518 C1520 1.391 . S
C1519 C1518 1.386 . S
C1519 C1523 1.393 . S
C1520 H1509 0.950 . S
C1520 C1518 1.391 . S
C1520 C1521 1.400 . S
C1521 C1515 1.491 1_565 S
C1521 C1520 1.400 . S
C1521 C1522 1.398 . S
C1522 H1510 0.950 . S
C1522 C1521 1.398 . S
C1522 C1523 1.391 . S
C1523 H1511 0.950 . S
C1523 C1519 1.393 . S
C1523 C1522 1.391 . S
H1524 C1532 0.950 . S
H1525 C1537 0.950 . S
H1526 C1534 0.950 . S
H1527 C1536 0.950 . S
H1528 C1538 0.950 . S
H1529 C1540 0.950 . S
H1530 C1542 0.950 . S
H1531 C1543 0.950 . S
C1532 H1524 0.950 . S
C1532 C1533 1.386 . S
C1532 C1534 1.391 . S
C1533 C1532 1.386 . S
C1533 C1537 1.393 . S
C1534 H1526 0.950 . S
C1534 C1532 1.391 . S
C1534 C1535 1.400 . S
C1535 C1534 1.400 . S
C1535 C1536 1.398 . S
C1535 C1541 1.491 1_545 S
C1536 H1527 0.950 . S
C1536 C1535 1.398 . S
C1536 C1537 1.391 . S
C1537 H1525 0.950 . S
C1537 C1533 1.393 . S
C1537 C1536 1.391 . S
C1538 H1528 0.950 . S
C1538 C1539 1.386 . S
C1538 C1540 1.391 . S
C1539 C1538 1.386 . S
C1539 C1543 1.393 . S
C1540 H1529 0.950 . S
C1540 C1538 1.391 . S
C1540 C1541 1.400 . S
C1541 C1535 1.491 1_565 S
C1541 C1540 1.400 . S
C1541 C1542 1.398 . S
C1542 H1530 0.950 . S
C1542 C1541 1.398 . S
C1542 C1543 1.391 . S
C1543 H1531 0.950 . S
C1543 C1539 1.393 . S
C1543 C1542 1.391 . S
H1544 C1552 0.950 . S
H1545 C1557 0.950 . S
H1546 C1554 0.950 . S
H1547 C1556 0.950 . S
H1548 C1558 0.950 . S
H1549 C1560 0.950 . S
H1550 C1562 0.950 . S
H1551 C1563 0.950 . S
C1552 H1544 0.950 . S
C1552 C1553 1.386 . S
C1552 C1554 1.391 . S
C1553 C1552 1.386 . S
C1553 C1557 1.393 . S
C1554 H1546 0.950 . S
C1554 C1552 1.391 . S
C1554 C1555 1.400 . S
C1555 C1554 1.400 . S
C1555 C1556 1.398 . S
C1555 C1561 1.491 1_655 S
C1556 H1547 0.950 . S
C1556 C1555 1.398 . S
C1556 C1557 1.391 . S
C1557 H1545 0.950 . S
C1557 C1553 1.393 . S
C1557 C1556 1.391 . S
C1558 H1548 0.950 . S
C1558 C1559 1.386 . S
C1558 C1560 1.391 . S
C1559 C1558 1.386 . S
C1559 C1563 1.393 . S
C1560 H1549 0.950 . S
C1560 C1558 1.391 . S
C1560 C1561 1.400 . S
C1561 C1555 1.491 1_455 S
C1561 C1560 1.400 . S
C1561 C1562 1.398 . S
C1562 H1550 0.950 . S
C1562 C1561 1.398 . S
C1562 C1563 1.391 . S
C1563 H1551 0.950 . S
C1563 C1559 1.393 . S
C1563 C1562 1.391 . S
H1564 C1572 0.950 . S
H1565 C1577 0.950 . S
H1566 C1574 0.950 . S
H1567 C1576 0.950 . S
H1568 C1578 0.950 . S
H1569 C1580 0.950 . S
H1570 C1582 0.950 . S
H1571 C1583 0.950 . S
C1572 H1564 0.950 . S
C1572 C1573 1.386 . S
C1572 C1574 1.391 . S
C1573 C1572 1.386 . S
C1573 C1577 1.393 . S
C1574 H1566 0.950 . S
C1574 C1572 1.391 . S
C1574 C1575 1.400 . S
C1575 C1574 1.400 . S
C1575 C1576 1.398 . S
C1575 C1581 1.491 . S
C1576 H1567 0.950 . S
C1576 C1575 1.398 . S
C1576 C1577 1.391 . S
C1577 H1565 0.950 . S
C1577 C1573 1.393 . S
C1577 C1576 1.391 . S
C1578 H1568 0.950 . S
C1578 C1579 1.386 . S
C1578 C1580 1.391 . S
C1579 C1578 1.386 . S
C1579 C1583 1.393 . S
C1580 H1569 0.950 . S
C1580 C1578 1.391 . S
C1580 C1581 1.400 . S
C1581 C1575 1.491 . S
C1581 C1580 1.400 . S
C1581 C1582 1.398 . S
C1582 H1570 0.950 . S
C1582 C1581 1.398 . S
C1582 C1583 1.391 . S
C1583 H1571 0.950 . S
C1583 C1579 1.393 . S
C1583 C1582 1.391 . S
H1584 C1592 0.950 . S
H1585 C1597 0.950 . S
H1586 C1594 0.950 . S
H1587 C1596 0.950 . S
H1588 C1598 0.950 . S
H1589 C1600 0.950 . S
H1590 C1602 0.950 . S
H1591 C1603 0.950 . S
C1592 H1584 0.950 . S
C1592 C1593 1.386 . S
C1592 C1594 1.391 . S
C1593 C1592 1.386 . S
C1593 C1597 1.393 . S
C1594 H1586 0.950 . S
C1594 C1592 1.391 . S
C1594 C1595 1.400 . S
C1595 C1594 1.400 . S
C1595 C1596 1.398 . S
C1595 C1601 1.491 . S
C1596 H1587 0.950 . S
C1596 C1595 1.398 . S
C1596 C1597 1.391 . S
C1597 H1585 0.950 . S
C1597 C1593 1.393 . S
C1597 C1596 1.391 . S
C1598 H1588 0.950 . S
C1598 C1599 1.386 . S
C1598 C1600 1.391 . S
C1599 C1598 1.386 . S
C1599 C1603 1.393 . S
C1600 H1589 0.950 . S
C1600 C1598 1.391 . S
C1600 C1601 1.400 . S
C1601 C1595 1.491 . S
C1601 C1600 1.400 . S
C1601 C1602 1.398 . S
C1602 H1590 0.950 . S
C1602 C1601 1.398 . S
C1602 C1603 1.391 . S
C1603 H1591 0.950 . S
C1603 C1599 1.393 . S
C1603 C1602 1.391 . S
H1604 C1612 0.950 . S
H1605 C1617 0.950 . S
H1606 C1614 0.950 . S
H1607 C1616 0.950 . S
H1608 C1618 0.950 . S
H1609 C1620 0.950 . S
H1610 C1622 0.950 . S
H1611 C1623 0.950 . S
C1612 H1604 0.950 . S
C1612 C1613 1.386 . S
C1612 C1614 1.391 . S
C1613 C1612 1.386 . S
C1613 C1617 1.393 . S
C1614 H1606 0.950 . S
C1614 C1612 1.391 . S
C1614 C1615 1.400 . S
C1615 C1614 1.400 . S
C1615 C1616 1.398 . S
C1615 C1621 1.491 . S
C1616 H1607 0.950 . S
C1616 C1615 1.398 . S
C1616 C1617 1.391 . S
C1617 H1605 0.950 . S
C1617 C1613 1.393 . S
C1617 C1616 1.391 . S
C1618 H1608 0.950 . S
C1618 C1619 1.386 . S
C1618 C1620 1.391 . S
C1619 C1618 1.386 . S
C1619 C1623 1.393 . S
C1620 H1609 0.950 . S
C1620 C1618 1.391 . S
C1620 C1621 1.400 . S
C1621 C1615 1.491 . S
C1621 C1620 1.400 . S
C1621 C1622 1.398 . S
C1622 H1610 0.950 . S
C1622 C1621 1.398 . S
C1622 C1623 1.391 . S
C1623 H1611 0.950 . S
C1623 C1619 1.393 . S
C1623 C1622 1.391 . S
H1624 C1632 0.950 . S
H1625 C1637 0.950 . S
H1626 C1634 0.950 . S
H1627 C1636 0.950 . S
H1628 C1638 0.950 . S
H1629 C1640 0.950 . S
H1630 C1642 0.950 . S
H1631 C1643 0.950 . S
C1632 H1624 0.950 . S
C1632 C1633 1.386 . S
C1632 C1634 1.391 . S
C1633 C1632 1.386 . S
C1633 C1637 1.393 . S
C1634 H1626 0.950 . S
C1634 C1632 1.391 . S
C1634 C1635 1.400 . S
C1635 C1634 1.400 . S
C1635 C1636 1.398 . S
C1635 C1641 1.491 . S
C1636 H1627 0.950 . S
C1636 C1635 1.398 . S
C1636 C1637 1.391 . S
C1637 H1625 0.950 . S
C1637 C1633 1.393 . S
C1637 C1636 1.391 . S
C1638 H1628 0.950 . S
C1638 C1639 1.386 . S
C1638 C1640 1.391 . S
C1639 C1638 1.386 . S
C1639 C1643 1.393 . S
C1640 H1629 0.950 . S
C1640 C1638 1.391 . S
C1640 C1641 1.400 . S
C1641 C1635 1.491 . S
C1641 C1640 1.400 . S
C1641 C1642 1.398 . S
C1642 H1630 0.950 . S
C1642 C1641 1.398 . S
C1642 C1643 1.391 . S
C1643 H1631 0.950 . S
C1643 C1639 1.393 . S
C1643 C1642 1.391 . S
H1644 C1652 0.950 . S
H1645 C1657 0.950 . S
H1646 C1654 0.950 . S
H1647 C1656 0.950 . S
H1648 C1658 0.950 . S
H1649 C1660 0.950 . S
H1650 C1662 0.950 . S
H1651 C1663 0.950 . S
C1652 H1644 0.950 . S
C1652 C1653 1.386 . S
C1652 C1654 1.391 . S
C1653 C1652 1.386 . S
C1653 C1657 1.393 . S
C1654 H1646 0.950 . S
C1654 C1652 1.391 . S
C1654 C1655 1.400 . S
C1655 C1654 1.400 . S
C1655 C1656 1.398 . S
C1655 C1661 1.491 . S
C1656 H1647 0.950 . S
C1656 C1655 1.398 . S
C1656 C1657 1.391 . S
C1657 H1645 0.950 . S
C1657 C1653 1.393 . S
C1657 C1656 1.391 . S
C1658 H1648 0.950 . S
C1658 C1659 1.386 . S
C1658 C1660 1.391 . S
C1659 C1658 1.386 . S
C1659 C1663 1.393 . S
C1660 H1649 0.950 . S
C1660 C1658 1.391 . S
C1660 C1661 1.400 . S
C1661 C1655 1.491 . S
C1661 C1660 1.400 . S
C1661 C1662 1.398 . S
C1662 H1650 0.950 . S
C1662 C1661 1.398 . S
C1662 C1663 1.391 . S
C1663 H1651 0.950 . S
C1663 C1659 1.393 . S
C1663 C1662 1.391 . S
H1664 C1672 0.950 . S
H1665 C1677 0.950 . S
H1666 C1674 0.950 . S
H1667 C1676 0.950 . S
H1668 C1678 0.950 . S
H1669 C1680 0.950 . S
H1670 C1682 0.950 . S
H1671 C1683 0.950 . S
C1672 H1664 0.950 . S
C1672 C1673 1.386 . S
C1672 C1674 1.391 . S
C1673 C1672 1.386 . S
C1673 C1677 1.393 . S
C1674 H1666 0.950 . S
C1674 C1672 1.391 . S
C1674 C1675 1.400 . S
C1675 C1674 1.400 . S
C1675 C1676 1.398 . S
C1675 C1681 1.491 . S
C1676 H1667 0.950 . S
C1676 C1675 1.398 . S
C1676 C1677 1.391 . S
C1677 H1665 0.950 . S
C1677 C1673 1.393 . S
C1677 C1676 1.391 . S
C1678 H1668 0.950 . S
C1678 C1679 1.386 . S
C1678 C1680 1.391 . S
C1679 C1678 1.386 . S
C1679 C1683 1.393 . S
C1680 H1669 0.950 . S
C1680 C1678 1.391 . S
C1680 C1681 1.400 . S
C1681 C1675 1.491 . S
C1681 C1680 1.400 . S
C1681 C1682 1.398 . S
C1682 H1670 0.950 . S
C1682 C1681 1.398 . S
C1682 C1683 1.391 . S
C1683 H1671 0.950 . S
C1683 C1679 1.393 . S
C1683 C1682 1.391 . S
H1684 C1692 0.950 . S
H1685 C1697 0.950 . S
H1686 C1694 0.950 . S
H1687 C1696 0.950 . S
H1688 C1698 0.950 . S
H1689 C1700 0.950 . S
H1690 C1702 0.950 . S
H1691 C1703 0.950 . S
C1692 H1684 0.950 . S
C1692 C1693 1.386 . S
C1692 C1694 1.391 . S
C1693 C1692 1.386 . S
C1693 C1697 1.393 . S
C1694 H1686 0.950 . S
C1694 C1692 1.391 . S
C1694 C1695 1.400 . S
C1695 C1694 1.400 . S
C1695 C1696 1.398 . S
C1695 C1701 1.491 . S
C1696 H1687 0.950 . S
C1696 C1695 1.398 . S
C1696 C1697 1.391 . S
C1697 H1685 0.950 . S
C1697 C1693 1.393 . S
C1697 C1696 1.391 . S
C1698 H1688 0.950 . S
C1698 C1699 1.386 . S
C1698 C1700 1.391 . S
C1699 C1698 1.386 . S
C1699 C1703 1.393 . S
C1700 H1689 0.950 . S
C1700 C1698 1.391 . S
C1700 C1701 1.400 . S
C1701 C1695 1.491 . S
C1701 C1700 1.400 . S
C1701 C1702 1.398 . S
C1702 H1690 0.950 . S
C1702 C1701 1.398 . S
C1702 C1703 1.391 . S
C1703 H1691 0.950 . S
C1703 C1699 1.393 . S
C1703 C1702 1.391 . S
H1704 C1712 0.950 . S
H1705 C1717 0.950 . S
H1706 C1714 0.950 . S
H1707 C1716 0.950 . S
H1708 C1718 0.950 . S
H1709 C1720 0.950 . S
H1710 C1722 0.950 . S
H1711 C1723 0.950 . S
C1712 H1704 0.950 . S
C1712 C1713 1.386 . S
C1712 C1714 1.391 . S
C1713 C1712 1.386 . S
C1713 C1717 1.393 . S
C1714 H1706 0.950 . S
C1714 C1712 1.391 . S
C1714 C1715 1.400 . S
C1715 C1714 1.400 . S
C1715 C1716 1.398 . S
C1715 C1721 1.491 . S
C1716 H1707 0.950 . S
C1716 C1715 1.398 . S
C1716 C1717 1.391 . S
C1717 H1705 0.950 . S
C1717 C1713 1.393 . S
C1717 C1716 1.391 . S
C1718 H1708 0.950 . S
C1718 C1719 1.386 . S
C1718 C1720 1.391 . S
C1719 C1718 1.386 . S
C1719 C1723 1.393 . S
C1720 H1709 0.950 . S
C1720 C1718 1.391 . S
C1720 C1721 1.400 . S
C1721 C1715 1.491 . S
C1721 C1720 1.400 . S
C1721 C1722 1.398 . S
C1722 H1710 0.950 . S
C1722 C1721 1.398 . S
C1722 C1723 1.391 . S
C1723 H1711 0.950 . S
C1723 C1719 1.393 . S
C1723 C1722 1.391 . S
H1724 C1732 0.950 . S
H1725 C1737 0.950 . S
H1726 C1734 0.950 . S
H1727 C1736 0.950 . S
H1728 C1738 0.950 . S
H1729 C1740 0.950 . S
H1730 C1742 0.950 . S
H1731 C1743 0.950 . S
C1732 H1724 0.950 . S
C1732 C1733 1.386 . S
C1732 C1734 1.391 . S
C1733 C1732 1.386 . S
C1733 C1737 1.393 . S
C1734 H1726 0.950 . S
C1734 C1732 1.391 . S
C1734 C1735 1.400 . S
C1735 C1734 1.400 . S
C1735 C1736 1.398 . S
C1735 C1741 1.491 . S
C1736 H1727 0.950 . S
C1736 C1735 1.398 . S
C1736 C1737 1.391 . S
C1737 H1725 0.950 . S
C1737 C1733 1.393 . S
C1737 C1736 1.391 . S
C1738 H1728 0.950 . S
C1738 C1739 1.386 . S
C1738 C1740 1.391 . S
C1739 C1738 1.386 . S
C1739 C1743 1.393 . S
C1740 H1729 0.950 . S
C1740 C1738 1.391 . S
C1740 C1741 1.400 . S
C1741 C1735 1.491 . S
C1741 C1740 1.400 . S
C1741 C1742 1.398 . S
C1742 H1730 0.950 . S
C1742 C1741 1.398 . S
C1742 C1743 1.391 . S
C1743 H1731 0.950 . S
C1743 C1739 1.393 . S
C1743 C1742 1.391 . S
H1744 C1752 0.950 . S
H1745 C1757 0.950 . S
H1746 C1754 0.950 . S
H1747 C1756 0.950 . S
H1748 C1758 0.950 . S
H1749 C1760 0.950 . S
H1750 C1762 0.950 . S
H1751 C1763 0.950 . S
C1752 H1744 0.950 . S
C1752 C1753 1.386 . S
C1752 C1754 1.391 . S
C1753 C1752 1.386 . S
C1753 C1757 1.393 . S
C1754 H1746 0.950 . S
C1754 C1752 1.391 . S
C1754 C1755 1.400 . S
C1755 C1754 1.400 . S
C1755 C1756 1.398 . S
C1755 C1761 1.491 . S
C1756 H1747 0.950 . S
C1756 C1755 1.398 . S
C1756 C1757 1.391 . S
C1757 H1745 0.950 . S
C1757 C1753 1.393 . S
C1757 C1756 1.391 . S
C1758 H1748 0.950 . S
C1758 C1759 1.386 . S
C1758 C1760 1.391 . S
C1759 C1758 1.386 . S
C1759 C1763 1.393 . S
C1760 H1749 0.950 . S
C1760 C1758 1.391 . S
C1760 C1761 1.400 . S
C1761 C1755 1.491 . S
C1761 C1760 1.400 . S
C1761 C1762 1.398 . S
C1762 H1750 0.950 . S
C1762 C1761 1.398 . S
C1762 C1763 1.391 . S
C1763 H1751 0.950 . S
C1763 C1759 1.393 . S
C1763 C1762 1.391 . S
H1764 C1772 0.950 . S
H1765 C1777 0.950 . S
H1766 C1774 0.950 . S
H1767 C1776 0.950 . S
H1768 C1778 0.950 . S
H1769 C1780 0.950 . S
H1770 C1782 0.950 1_556 S
H1771 C1783 0.950 1_556 S
C1772 H1764 0.950 . S
C1772 C1773 1.386 . S
C1772 C1774 1.391 . S
C1773 C1772 1.386 . S
C1773 C1777 1.393 . S
C1774 H1766 0.950 . S
C1774 C1772 1.391 . S
C1774 C1775 1.400 . S
C1775 C1774 1.400 . S
C1775 C1776 1.398 . S
C1775 C1781 1.491 . S
C1776 H1767 0.950 . S
C1776 C1775 1.398 . S
C1776 C1777 1.391 . S
C1777 H1765 0.950 . S
C1777 C1773 1.393 . S
C1777 C1776 1.391 . S
C1778 H1768 0.950 . S
C1778 C1779 1.386 . S
C1778 C1780 1.391 . S
C1779 C1778 1.386 . S
C1779 C1783 1.393 . S
C1780 H1769 0.950 . S
C1780 C1778 1.391 . S
C1780 C1781 1.400 . S
C1781 C1775 1.491 . S
C1781 C1780 1.400 . S
C1781 C1782 1.398 . S
C1782 H1770 0.950 1_554 S
C1782 C1781 1.398 . S
C1782 C1783 1.391 . S
C1783 H1771 0.950 1_554 S
C1783 C1779 1.393 . S
C1783 C1782 1.391 . S
H1784 C1792 0.950 . S
H1785 C1797 0.950 . S
H1786 C1794 0.950 . S
H1787 C1796 0.950 . S
H1788 C1798 0.950 . S
H1789 C1800 0.950 . S
H1790 C1802 0.950 . S
H1791 C1803 0.950 . S
C1792 H1784 0.950 . S
C1792 C1793 1.386 . S
C1792 C1794 1.391 . S
C1793 C1792 1.386 . S
C1793 C1797 1.393 . S
C1794 H1786 0.950 . S
C1794 C1792 1.391 . S
C1794 C1795 1.400 . S
C1795 C1794 1.400 . S
C1795 C1796 1.398 . S
C1795 C1801 1.491 . S
C1796 H1787 0.950 . S
C1796 C1795 1.398 . S
C1796 C1797 1.391 . S
C1797 H1785 0.950 . S
C1797 C1793 1.393 . S
C1797 C1796 1.391 . S
C1798 H1788 0.950 . S
C1798 C1799 1.386 . S
C1798 C1800 1.391 . S
C1799 C1798 1.386 . S
C1799 C1803 1.393 . S
C1800 H1789 0.950 . S
C1800 C1798 1.391 . S
C1800 C1801 1.400 . S
C1801 C1795 1.491 . S
C1801 C1800 1.400 . S
C1801 C1802 1.398 . S
C1802 H1790 0.950 . S
C1802 C1801 1.398 . S
C1802 C1803 1.391 . S
C1803 H1791 0.950 . S
C1803 C1799 1.393 . S
C1803 C1802 1.391 . S
H1804 C1812 0.950 1_556 S
H1805 C1817 0.950 . S
H1806 C1814 0.950 1_556 S
H1807 C1816 0.950 . S
H1808 C1818 0.950 . S
H1809 C1820 0.950 . S
H1810 C1822 0.950 1_556 S
H1811 C1823 0.950 1_556 S
C1812 H1804 0.950 1_554 S
C1812 C1813 1.386 . S
C1812 C1814 1.391 . S
C1813 C1812 1.386 . S
C1813 C1817 1.393 . S
C1814 H1806 0.950 1_554 S
C1814 C1812 1.391 . S
C1814 C1815 1.400 . S
C1815 C1814 1.400 . S
C1815 C1816 1.398 . S
C1815 C1821 1.491 . S
C1816 H1807 0.950 . S
C1816 C1815 1.398 . S
C1816 C1817 1.391 . S
C1817 H1805 0.950 . S
C1817 C1813 1.393 . S
C1817 C1816 1.391 . S
C1818 H1808 0.950 . S
C1818 C1819 1.386 . S
C1818 C1820 1.391 . S
C1819 C1818 1.386 . S
C1819 C1823 1.393 . S
C1820 H1809 0.950 . S
C1820 C1818 1.391 . S
C1820 C1821 1.400 . S
C1821 C1815 1.491 . S
C1821 C1820 1.400 . S
C1821 C1822 1.398 . S
C1822 H1810 0.950 1_554 S
C1822 C1821 1.398 . S
C1822 C1823 1.391 . S
C1823 H1811 0.950 1_554 S
C1823 C1819 1.393 . S
C1823 C1822 1.391 . S
H1824 C1832 0.950 . S
H1825 C1837 0.950 1_554 S
H1826 C1834 0.950 . S
H1827 C1836 0.950 1_554 S
H1828 C1838 0.950 1_554 S
H1829 C1840 0.950 1_554 S
H1830 C1842 0.950 . S
H1831 C1843 0.950 . S
C1832 H1824 0.950 . S
C1832 C1833 1.386 . S
C1832 C1834 1.391 . S
C1833 C1832 1.386 . S
C1833 C1837 1.393 . S
C1834 H1826 0.950 . S
C1834 C1832 1.391 . S
C1834 C1835 1.400 . S
C1835 C1834 1.400 . S
C1835 C1836 1.398 . S
C1835 C1841 1.491 . S
C1836 H1827 0.950 1_556 S
C1836 C1835 1.398 . S
C1836 C1837 1.391 . S
C1837 H1825 0.950 1_556 S
C1837 C1833 1.393 . S
C1837 C1836 1.391 . S
C1838 H1828 0.950 1_556 S
C1838 C1839 1.386 . S
C1838 C1840 1.391 . S
C1839 C1838 1.386 . S
C1839 C1843 1.393 . S
C1840 H1829 0.950 1_556 S
C1840 C1838 1.391 . S
C1840 C1841 1.400 . S
C1841 C1835 1.491 . S
C1841 C1840 1.400 . S
C1841 C1842 1.398 . S
C1842 H1830 0.950 . S
C1842 C1841 1.398 . S
C1842 C1843 1.391 . S
C1843 H1831 0.950 . S
C1843 C1839 1.393 . S
C1843 C1842 1.391 . S
H1844 C1852 0.950 . S
H1845 C1857 0.950 . S
H1846 C1854 0.950 . S
H1847 C1856 0.950 . S
H1848 C1858 0.950 . S
H1849 C1860 0.950 . S
H1850 C1862 0.950 . S
H1851 C1863 0.950 . S
C1852 H1844 0.950 . S
C1852 C1853 1.386 . S
C1852 C1854 1.391 . S
C1853 C1852 1.386 . S
C1853 C1857 1.393 . S
C1854 H1846 0.950 . S
C1854 C1852 1.391 . S
C1854 C1855 1.400 . S
C1855 C1854 1.400 . S
C1855 C1856 1.398 . S
C1855 C1861 1.491 . S
C1856 H1847 0.950 . S
C1856 C1855 1.398 . S
C1856 C1857 1.391 . S
C1857 H1845 0.950 . S
C1857 C1853 1.393 . S
C1857 C1856 1.391 . S
C1858 H1848 0.950 . S
C1858 C1859 1.386 . S
C1858 C1860 1.391 . S
C1859 C1858 1.386 . S
C1859 C1863 1.393 . S
C1860 H1849 0.950 . S
C1860 C1858 1.391 . S
C1860 C1861 1.400 . S
C1861 C1855 1.491 . S
C1861 C1860 1.400 . S
C1861 C1862 1.398 . S
C1862 H1850 0.950 . S
C1862 C1861 1.398 . S
C1862 C1863 1.391 . S
C1863 H1851 0.950 . S
C1863 C1859 1.393 . S
C1863 C1862 1.391 . S
H1864 C1872 0.950 . S
H1865 C1877 0.950 . S
H1866 C1874 0.950 . S
H1867 C1876 0.950 . S
H1868 C1878 0.950 . S
H1869 C1880 0.950 . S
H1870 C1882 0.950 . S
H1871 C1883 0.950 . S
C1872 H1864 0.950 . S
C1872 C1873 1.386 . S
C1872 C1874 1.391 . S
C1873 C1872 1.386 . S
C1873 C1877 1.393 . S
C1874 H1866 0.950 . S
C1874 C1872 1.391 . S
C1874 C1875 1.400 . S
C1875 C1874 1.400 . S
C1875 C1876 1.398 . S
C1875 C1881 1.491 . S
C1876 H1867 0.950 . S
C1876 C1875 1.398 . S
C1876 C1877 1.391 . S
C1877 H1865 0.950 . S
C1877 C1873 1.393 . S
C1877 C1876 1.391 . S
C1878 H1868 0.950 . S
C1878 C1879 1.386 . S
C1878 C1880 1.391 . S
C1879 C1878 1.386 . S
C1879 C1883 1.393 . S
C1880 H1869 0.950 . S
C1880 C1878 1.391 . S
C1880 C1881 1.400 . S
C1881 C1875 1.491 . S
C1881 C1880 1.400 . S
C1881 C1882 1.398 . S
C1882 H1870 0.950 . S
C1882 C1881 1.398 . S
C1882 C1883 1.391 . S
C1883 H1871 0.950 . S
C1883 C1879 1.393 . S
C1883 C1882 1.391 . S
H1884 C1892 0.950 . S
H1885 C1897 0.950 . S
H1886 C1894 0.950 . S
H1887 C1896 0.950 . S
H1888 C1898 0.950 . S
H1889 C1900 0.950 . S
H1890 C1902 0.950 . S
H1891 C1903 0.950 . S
C1892 H1884 0.950 . S
C1892 C1893 1.386 . S
C1892 C1894 1.391 . S
C1893 C1892 1.386 . S
C1893 C1897 1.393 . S
C1894 H1886 0.950 . S
C1894 C1892 1.391 . S
C1894 C1895 1.400 . S
C1895 C1894 1.400 . S
C1895 C1896 1.398 . S
C1895 C1901 1.491 . S
C1896 H1887 0.950 . S
C1896 C1895 1.398 . S
C1896 C1897 1.391 . S
C1897 H1885 0.950 . S
C1897 C1893 1.393 . S
C1897 C1896 1.391 . S
C1898 H1888 0.950 . S
C1898 C1899 1.386 . S
C1898 C1900 1.391 . S
C1899 C1898 1.386 . S
C1899 C1903 1.393 . S
C1900 H1889 0.950 . S
C1900 C1898 1.391 . S
C1900 C1901 1.400 . S
C1901 C1895 1.491 . S
C1901 C1900 1.400 . S
C1901 C1902 1.398 . S
C1902 H1890 0.950 . S
C1902 C1901 1.398 . S
C1902 C1903 1.391 . S
C1903 H1891 0.950 . S
C1903 C1899 1.393 . S
C1903 C1902 1.391 . S
H1904 C1912 0.950 . S
H1905 C1917 0.950 . S
H1906 C1914 0.950 . S
H1907 C1916 0.950 . S
H1908 C1918 0.950 . S
H1909 C1920 0.950 . S
H1910 C1922 0.950 . S
H1911 C1923 0.950 . S
C1912 H1904 0.950 . S
C1912 C1913 1.386 . S
C1912 C1914 1.391 . S
C1913 C1912 1.386 . S
C1913 C1917 1.393 . S
C1914 H1906 0.950 . S
C1914 C1912 1.391 . S
C1914 C1915 1.400 . S
C1915 C1914 1.400 . S
C1915 C1916 1.398 . S
C1915 C1921 1.491 . S
C1916 H1907 0.950 . S
C1916 C1915 1.398 . S
C1916 C1917 1.391 . S
C1917 H1905 0.950 . S
C1917 C1913 1.393 . S
C1917 C1916 1.391 . S
C1918 H1908 0.950 . S
C1918 C1919 1.386 . S
C1918 C1920 1.391 . S
C1919 C1918 1.386 . S
C1919 C1923 1.393 . S
C1920 H1909 0.950 . S
C1920 C1918 1.391 . S
C1920 C1921 1.400 . S
C1921 C1915 1.491 . S
C1921 C1920 1.400 . S
C1921 C1922 1.398 . S
C1922 H1910 0.950 . S
C1922 C1921 1.398 . S
C1922 C1923 1.391 . S
C1923 H1911 0.950 . S
C1923 C1919 1.393 . S
C1923 C1922 1.391 . S
H1924 C1932 0.950 . S
H1925 C1937 0.950 . S
H1926 C1934 0.950 . S
H1927 C1936 0.950 . S
H1928 C1938 0.950 . S
H1929 C1940 0.950 . S
H1930 C1942 0.950 . S
H1931 C1943 0.950 . S
C1932 H1924 0.950 . S
C1932 C1933 1.386 . S
C1932 C1934 1.391 . S
C1933 C1932 1.386 . S
C1933 C1937 1.393 . S
C1934 H1926 0.950 . S
C1934 C1932 1.391 . S
C1934 C1935 1.400 . S
C1935 C1934 1.400 . S
C1935 C1936 1.398 . S
C1935 C1941 1.491 . S
C1936 H1927 0.950 . S
C1936 C1935 1.398 . S
C1936 C1937 1.391 . S
C1937 H1925 0.950 . S
C1937 C1933 1.393 . S
C1937 C1936 1.391 . S
C1938 H1928 0.950 . S
C1938 C1939 1.386 . S
C1938 C1940 1.391 . S
C1939 C1938 1.386 . S
C1939 C1943 1.393 . S
C1940 H1929 0.950 . S
C1940 C1938 1.391 . S
C1940 C1941 1.400 . S
C1941 C1935 1.491 . S
C1941 C1940 1.400 . S
C1941 C1942 1.398 . S
C1942 H1930 0.950 . S
C1942 C1941 1.398 . S
C1942 C1943 1.391 . S
C1943 H1931 0.950 . S
C1943 C1939 1.393 . S
C1943 C1942 1.391 . S
C513 C76 1.258 . S
C519 C6 1.266 . S
C533 C48 1.266 . S
C539 C20 1.256 . S
C553 C34 1.261 . S
C559 C62 1.265 . S
C573 C90 1.259 . S
C579 C160 1.264 . S
C593 C104 1.247 . S
C599 C132 1.276 . S
C613 C146 1.270 . S
C619 C118 1.256 . S
C633 C174 1.254 . S
C639 C244 1.268 . S
C653 C188 1.255 . S
C659 C216 1.267 . S
C673 C202 1.250 . S
C679 C230 1.275 . S
C693 C328 1.275 . S
C699 C258 1.248 . S
C713 C272 1.261 . S
C719 C300 1.261 . S
C733 C314 1.274 . S
C739 C286 1.252 . S
C753 C412 1.250 . S
C759 C342 1.275 . S
C773 C384 1.274 . S
C779 C356 1.249 . S
C793 C398 1.247 . S
C799 C370 1.277 . S
C813 C426 1.248 . S
C819 C496 1.275 . S
C833 C440 1.264 . S
C839 C468 1.261 . S
C853 C454 1.277 . S
C859 C482 1.247 . S
C873 C78 2.035 . S
C879 C8 2.039 . S
C893 C22 2.036 . S
C899 C50 2.033 . S
C913 C64 2.034 . S
C919 C36 2.038 . S
C933 C92 2.037 . S
C939 C162 2.040 . S
C953 C106 2.038 . S
C959 C134 2.034 . S
C973 C148 2.032 . S
C979 C120 2.033 . S
C993 C176 2.032 . S
C999 C246 2.032 . S
C1013 C218 2.040 . S
C1019 C190 2.037 . S
C1033 C232 2.039 . S
C1039 C204 2.040 . S
C1053 C260 2.033 . S
C1059 C330 2.031 . S
C1073 C274 2.033 . S
C1079 C302 2.036 . S
C1093 C316 2.038 . S
C1099 C288 2.034 . S
C1113 C414 2.040 . S
C1119 C344 2.038 . S
C1133 C358 2.032 . S
C1139 C386 2.035 . S
C1153 C372 2.035 . S
C1159 C400 2.039 . S
C1173 C498 2.035 . S
C1179 C428 2.039 . S
C1193 C470 2.032 . S
C1199 C442 2.032 . S
C1213 C484 2.039 . S
C1219 C456 2.040 . S
C1233 C233 1.597 . S
C1239 C9 1.610 . S
C1253 C247 1.602 . S
C1259 C23 1.607 . S
C1273 C219 1.599 . S
C1279 C37 1.606 . S
C1293 C51 1.609 . S
C1299 C373 1.599 . S
C1313 C65 1.609 . S
C1319 C345 1.598 . S
C1333 C79 1.608 . S
C1339 C359 1.597 . S
C1353 C93 1.602 . S
C1359 C485 1.603 . S
C1373 C107 1.607 . S
C1379 C499 1.602 . S
C1393 C121 1.602 . S
C1399 C471 1.603 . S
C1413 C135 1.603 . S
C1419 C289 1.605 . S
C1433 C261 1.608 . S
C1439 C149 1.600 . S
C1453 C275 1.602 . S
C1459 C163 1.606 . S
C1473 C401 1.603 . S
C1479 C177 1.601 . S
C1493 C191 1.610 . S
C1499 C415 1.597 . S
C1513 C205 1.608 . S
C1519 C387 1.600 . S
C1533 C303 1.607 . S
C1539 C457 1.598 . S
C1553 C317 1.610 . S
C1559 C429 1.597 . S
C1573 C443 1.604 . S
C1579 C331 1.604 . S
C1593 C7 1.433 . S
C1599 C147 1.430 . S
C1613 C161 1.422 . S
C1619 C21 1.440 . S
C1633 C133 1.423 . S
C1639 C35 1.439 . S
C1653 C49 1.419 . S
C1659 C119 1.444 . S
C1673 C63 1.419 . S
C1679 C91 1.444 . S
C1693 C77 1.443 . S
C1699 C105 1.419 . S
C1713 C175 1.419 . S
C1719 C315 1.444 . S
C1733 C329 1.422 . S
C1739 C189 1.440 . S
C1753 C301 1.419 . S
C1759 C203 1.444 . S
C1773 C217 1.424 . S
C1779 C287 1.440 . S
C1793 C231 1.444 . S
C1799 C259 1.419 . S
C1813 C273 1.430 . S
C1819 C245 1.431 . S
C1833 C343 1.430 . S
C1839 C483 1.433 . S
C1853 C497 1.442 . S
C1859 C357 1.420 . S
C1873 C371 1.419 . S
C1879 C469 1.444 . S
C1893 C385 1.424 . S
C1899 C455 1.440 . S
C1913 C427 1.440 . S
C1919 C399 1.423 . S
C1933 C413 1.419 . S
C1939 C441 1.442 . S
