# Generated by pormake.
# Topology vby, (6)-cn, num edge types: 1
# Building blocks:
#     Node 0, Type 0, BuildingBlock: FUNLAD_clean_sbu_0, # of connection points: 6
#     Node 1, Type 0, BuildingBlock: FUNLAD_clean_sbu_0, # of connection points: 6
#     Node 2, Type 0, BuildingBlock: FUNLAD_clean_sbu_0, # of connection points: 6
#     Node 3, Type 0, BuildingBlock: FUNLAD_clean_sbu_0, # of connection points: 6
#     Node 4, Type 0, BuildingBlock: FUNLAD_clean_sbu_0, # of connection points: 6
#     Node 5, Type 0, BuildingBlock: FUNLAD_clean_sbu_0, # of connection points: 6
#     Node 6, Type 0, BuildingBlock: FUNLAD_clean_sbu_0, # of connection points: 6
#     Node 7, Type 0, BuildingBlock: FUNLAD_clean_sbu_0, # of connection points: 6
#     Edge 8, Type (0, 0), BuildingBlock: KIFKEQ_clean_linker_1, # of connection points: 2
#     Edge 9, Type (0, 0), BuildingBlock: KIFKEQ_clean_linker_1, # of connection points: 2
#     Edge 10, Type (0, 0), BuildingBlock: KIFKEQ_clean_linker_1, # of connection points: 2
#     Edge 11, Type (0, 0), BuildingBlock: KIFKEQ_clean_linker_1, # of connection points: 2
#     Edge 12, Type (0, 0), BuildingBlock: KIFKEQ_clean_linker_1, # of connection points: 2
#     Edge 13, Type (0, 0), BuildingBlock: KIFKEQ_clean_linker_1, # of connection points: 2
#     Edge 14, Type (0, 0), BuildingBlock: KIFKEQ_clean_linker_1, # of connection points: 2
#     Edge 15, Type (0, 0), BuildingBlock: KIFKEQ_clean_linker_1, # of connection points: 2
#     Edge 16, Type (0, 0), BuildingBlock: KIFKEQ_clean_linker_1, # of connection points: 2
#     Edge 17, Type (0, 0), BuildingBlock: KIFKEQ_clean_linker_1, # of connection points: 2
#     Edge 18, Type (0, 0), BuildingBlock: KIFKEQ_clean_linker_1, # of connection points: 2
#     Edge 19, Type (0, 0), BuildingBlock: KIFKEQ_clean_linker_1, # of connection points: 2
#     Edge 20, Type (0, 0), BuildingBlock: KIFKEQ_clean_linker_1, # of connection points: 2
#     Edge 21, Type (0, 0), BuildingBlock: KIFKEQ_clean_linker_1, # of connection points: 2
#     Edge 22, Type (0, 0), BuildingBlock: KIFKEQ_clean_linker_1, # of connection points: 2
#     Edge 23, Type (0, 0), BuildingBlock: KIFKEQ_clean_linker_1, # of connection points: 2
#     Edge 24, Type (0, 0), BuildingBlock: KIFKEQ_clean_linker_1, # of connection points: 2
#     Edge 25, Type (0, 0), BuildingBlock: KIFKEQ_clean_linker_1, # of connection points: 2
#     Edge 26, Type (0, 0), BuildingBlock: KIFKEQ_clean_linker_1, # of connection points: 2
#     Edge 27, Type (0, 0), BuildingBlock: KIFKEQ_clean_linker_1, # of connection points: 2
#     Edge 28, Type (0, 0), BuildingBlock: KIFKEQ_clean_linker_1, # of connection points: 2
#     Edge 29, Type (0, 0), BuildingBlock: KIFKEQ_clean_linker_1, # of connection points: 2
#     Edge 30, Type (0, 0), BuildingBlock: KIFKEQ_clean_linker_1, # of connection points: 2
#     Edge 31, Type (0, 0), BuildingBlock: KIFKEQ_clean_linker_1, # of connection points: 2
# Relax obj value: 0.049
# Max RMSD: 0.111
# Mean RMSD: 0.106
data_MOF--net-vby--node1-FUNLAD_clean_sbu_0--edge1-KIFKEQ_clean_linker_1
_symmetry_space_group_name_H-M    P1
_symmetry_Int_Tables_number       1
_symmetry_cell_setting            triclinic
loop_
_symmetry_equiv_pos_as_xyz
'x, y, z'
_cell_length_a     15.542942
_cell_length_b     59.43224
_cell_length_c     43.782876
_cell_angle_alpha  88.707608
_cell_angle_beta   90.211815
_cell_angle_gamma 90.057217
loop_
_atom_site_label
_atom_site_type_symbol
_atom_site_fract_x
_atom_site_fract_y
_atom_site_fract_z
_atom_type_partial_charge
C0 C 0.00995 0.41249 0.02974 0.0
N1 N 0.0321 0.366 0.10262 0.0
C2 C 0.06868 0.38289 0.11865 0.0
C3 C 0.05962 0.3835 0.1504 0.0
C4 C 0.0132 0.36643 0.16588 0.0
C5 C -0.02131 0.34884 0.14872 0.0
C6 C -0.01174 0.34906 0.11706 0.0
Zn7 Zn 0.03447 0.36652 0.05581 0.0
C8 C 0.85749 0.36137 0.03056 0.0
N9 N 0.03025 0.36698 0.9581 0.0
C10 C 0.0687 0.3839 0.94173 0.0
C11 C -0.01488 0.35055 0.94398 0.0
C12 C -0.02393 0.35091 0.91226 0.0
C13 C 0.01315 0.36846 0.89474 0.0
C14 C 0.06082 0.38499 0.90989 0.0
Zn15 Zn 0.03287 0.36666 1.00488 0.0
O16 O 0.01838 0.40168 0.05491 0.0
C17 C 0.20964 0.37177 0.03049 0.0
O18 O 0.01236 0.40195 1.00481 0.0
H19 H 0.95481 0.33728 0.95739 0.0
H20 H 0.10319 0.39623 0.10676 0.0
H21 H 0.10408 0.39684 0.95341 0.0
O22 O 0.16871 0.37031 0.05555 0.0
O23 O 0.16849 0.37155 1.00529 0.0
H24 H 0.95911 0.33586 0.10394 0.0
O25 O 0.05523 0.33144 1.00581 0.0
O26 O 0.05374 0.33145 0.05591 0.0
O27 O 0.89772 0.36176 1.00536 0.0
O28 O 0.89948 0.36276 0.05538 0.0
C29 C 0.06382 0.32094 0.03124 0.0
H30 H 0.08665 0.39756 0.16247 0.0
H31 H 0.94404 0.33503 0.15956 0.0
H32 H 0.94015 0.33756 0.90162 0.0
H33 H 0.08986 0.39896 0.89742 0.0
C34 C 0.92743 0.58077 0.02876 0.0
N35 N 0.9066 0.62722 0.0994 0.0
C36 C 0.86838 0.61071 0.11661 0.0
C37 C 0.87658 0.61047 0.14846 0.0
C38 C 0.92426 0.62743 0.16274 0.0
C39 C 0.96116 0.64451 0.14433 0.0
C40 C 0.95193 0.644 0.11266 0.0
Zn41 Zn 0.90312 0.62673 0.05263 0.0
C42 C 0.07916 0.63199 0.0266 0.0
N43 N 0.90411 0.62645 0.95489 0.0
C44 C 0.86749 0.60924 0.93946 0.0
C45 C 0.94634 0.6434 0.93982 0.0
C46 C 0.95348 0.64341 0.90807 0.0
C47 C 0.91797 0.62564 0.89163 0.0
C48 C 0.87425 0.60841 0.90766 0.0
Zn49 Zn 0.90286 0.62657 1.00168 0.0
O50 O 0.9212 0.59135 0.05357 0.0
C51 C 0.72704 0.62133 0.02734 0.0
O52 O 0.92227 0.59152 1.00342 0.0
H53 H -0.02396 0.65676 0.95248 0.0
H54 H 0.83283 0.59748 0.10561 0.0
H55 H 0.83411 0.59595 0.95185 0.0
O56 O 0.7677 0.62224 0.05258 0.0
O57 O 0.76843 0.62216 1.00233 0.0
H58 H -0.01785 0.65693 0.09862 0.0
O59 O 0.88115 0.66155 1.00073 0.0
O60 O 0.88239 0.66201 0.05081 0.0
O61 O 0.03733 0.63096 1.00172 0.0
O62 O 0.0388 0.63119 0.05178 0.0
C63 C 0.87239 0.67228 0.02528 0.0
H64 H 0.84769 0.59682 0.16163 0.0
H65 H -0.00297 0.65818 0.15424 0.0
H66 H -0.01144 0.65686 0.89656 0.0
H67 H 0.84553 0.5945 0.89572 0.0
C68 C 0.00525 0.58293 0.52706 0.0
N69 N 0.02744 0.63079 0.45561 0.0
C70 C 0.06787 0.61453 0.43966 0.0
C71 C 0.06024 0.614 0.40786 0.0
C72 C 0.01092 0.63045 0.39224 0.0
C73 C -0.02806 0.64738 0.4093 0.0
C74 C -0.01928 0.64717 0.44105 0.0
Zn75 Zn 0.0296 0.62975 0.50239 0.0
C76 C 0.85353 0.63405 0.52767 0.0
N77 N 0.02765 0.62694 0.60008 0.0
C78 C 0.06287 0.6094 0.61628 0.0
C79 C -0.01333 0.64394 0.6144 0.0
C80 C -0.02027 0.64374 0.64615 0.0
C81 C 0.0141 0.6257 0.6634 0.0
C82 C 0.05622 0.60836 0.64814 0.0
Zn83 Zn 0.02967 0.62781 0.55328 0.0
O84 O 0.01428 0.59427 0.50232 0.0
C85 C 0.20556 0.62357 0.52773 0.0
O86 O 0.00748 0.59292 0.55239 0.0
H87 H 0.958 0.65756 0.60114 0.0
H88 H 0.10455 0.60163 0.45167 0.0
H89 H 0.09522 0.59606 0.60448 0.0
O90 O 0.16408 0.62626 0.50282 0.0
O91 O 0.16492 0.62253 0.55292 0.0
H92 H 0.94885 0.65991 0.45414 0.0
O93 O 0.05416 0.66259 0.55333 0.0
O94 O 0.04758 0.66517 0.50332 0.0
O95 O 0.89456 0.63312 0.55281 0.0
O96 O 0.89472 0.63319 0.50274 0.0
C97 C 0.06046 0.67436 0.52888 0.0
H98 H 0.0907 0.60046 0.3958 0.0
H99 H 0.93465 0.66065 0.3983 0.0
H100 H 0.94581 0.65728 0.65705 0.0
H101 H 0.08396 0.59422 0.66073 0.0
C102 C 0.8768 0.32288 0.53187 0.0
N103 N 0.90801 0.36784 0.45745 0.0
C104 C 0.95119 0.35093 0.44374 0.0
C105 C 0.95794 0.35055 0.41199 0.0
C106 C 0.92114 0.36794 0.39415 0.0
C107 C 0.87658 0.38515 0.40879 0.0
C108 C 0.87017 0.38468 0.44064 0.0
Zn109 Zn 0.90672 0.36826 0.50423 0.0
C110 C 0.73121 0.3737 0.5294 0.0
N111 N 0.91076 0.36893 0.60187 0.0
C112 C 0.95563 0.35234 0.61672 0.0
C113 C 0.87286 0.38577 0.61749 0.0
C114 C 0.88097 0.3866 0.64927 0.0
C115 C 0.92831 0.36988 0.66516 0.0
C116 C 0.96489 0.35243 0.64842 0.0
Zn117 Zn 0.90756 0.36879 0.55511 0.0
O118 O 0.88868 0.33285 0.50624 0.0
C119 C 0.08327 0.36333 0.52956 0.0
O120 O 0.88367 0.33393 0.55624 0.0
H121 H 0.83769 0.39884 0.60523 0.0
H122 H -0.01815 0.33786 0.45748 0.0
H123 H -0.01451 0.33913 0.60391 0.0
O124 O 0.04154 0.36478 0.50462 0.0
O125 O 0.04278 0.36364 0.5547 0.0
H126 H 0.83599 0.39795 0.45196 0.0
O127 O 0.92916 0.40375 0.55325 0.0
O128 O 0.92211 0.40372 0.50317 0.0
O129 O 0.77227 0.37395 0.55461 0.0
O130 O 0.77224 0.37178 0.50451 0.0
C131 C 0.93122 0.41441 0.52779 0.0
H132 H -0.00638 0.33712 0.40154 0.0
H133 H 0.84685 0.39877 0.39572 0.0
H134 H 0.85232 0.40049 0.66114 0.0
H135 H 0.00052 0.33894 0.65965 0.0
C136 C 0.50996 0.91258 0.02866 0.0
N137 N 0.53136 0.86486 0.10059 0.0
C138 C 0.56681 0.8819 0.11666 0.0
C139 C 0.55794 0.88241 0.14841 0.0
C140 C 0.51283 0.86511 0.16393 0.0
C141 C 0.4795 0.84737 0.14674 0.0
C142 C 0.48893 0.84767 0.11504 0.0
Zn143 Zn 0.53334 0.86581 0.05371 0.0
C144 C 0.3574 0.86149 0.02796 0.0
N145 N 0.53093 0.86832 0.95582 0.0
C146 C 0.56806 0.88549 0.93949 0.0
C147 C 0.48769 0.85158 0.9416 0.0
C148 C 0.48053 0.85164 0.90983 0.0
C149 C 0.51693 0.86931 0.89245 0.0
C150 C 0.5612 0.88641 0.90761 0.0
Zn151 Zn 0.53378 0.86759 1.00271 0.0
O152 O 0.51248 0.90109 0.05349 0.0
C153 C 0.70952 0.87188 0.02814 0.0
O154 O 0.51816 0.90274 1.0034 0.0
H155 H 0.45745 0.83826 0.95493 0.0
H156 H 0.60019 0.89543 0.10477 0.0
H157 H 0.60223 0.89863 0.9512 0.0
O158 O 0.66888 0.87081 0.05334 0.0
O159 O 0.66808 0.87127 1.00307 0.0
H160 H 0.46077 0.83434 0.10189 0.0
O161 O 0.55261 0.83251 1.00283 0.0
O162 O 0.55604 0.83063 0.05291 0.0
O163 O 0.3988 0.8639 1.00315 0.0
O164 O 0.39822 0.86083 0.05315 0.0
C165 C 0.56358 0.82107 0.02738 0.0
H166 H 0.584 0.8966 0.16048 0.0
H167 H 0.44583 0.8334 0.15759 0.0
H168 H 0.44498 0.8383 0.899 0.0
H169 H 0.59051 0.90025 0.89492 0.0
C170 C 0.43037 0.08089 0.03108 0.0
N171 N 0.4093 0.12585 0.10327 0.0
C172 C 0.37341 0.10871 0.12 0.0
C173 C 0.38003 0.10828 0.1519 0.0
C174 C 0.42277 0.12583 0.16665 0.0
C175 C 0.45801 0.14343 0.14885 0.0
C176 C 0.45114 0.14301 0.11709 0.0
Zn177 Zn 0.40634 0.12604 0.05636 0.0
C178 C 0.58202 0.13215 0.0309 0.0
N179 N 0.40703 0.12797 0.95839 0.0
C180 C 0.37081 0.11085 0.94266 0.0
C181 C 0.4495 0.145 0.94359 0.0
C182 C 0.45764 0.14514 0.91184 0.0
C183 C 0.42291 0.1274 0.89512 0.0
C184 C 0.37858 0.11015 0.91087 0.0
Zn185 Zn 0.4054 0.12746 1.0053 0.0
O186 O 0.42548 0.09095 0.0563 0.0
C187 C 0.22994 0.12134 0.03111 0.0
O188 O 0.42412 0.09214 1.00614 0.0
H189 H 0.47882 0.15831 0.95649 0.0
H190 H 0.34037 0.09523 0.10861 0.0
H191 H 0.33714 0.09748 0.9548 0.0
O192 O 0.27184 0.12168 0.05612 0.0
O193 O 0.27008 0.12279 1.00584 0.0
H194 H 0.48043 0.15631 0.10345 0.0
O195 O 0.38398 0.16272 1.00547 0.0
O196 O 0.38472 0.16101 0.05557 0.0
O197 O 0.54108 0.13209 1.00572 0.0
O198 O 0.54076 0.1304 0.05581 0.0
C199 C 0.37476 0.17234 0.03088 0.0
H200 H 0.35166 0.09446 0.16491 0.0
H201 H 0.49242 0.15712 0.15935 0.0
H202 H 0.49307 0.15864 0.90056 0.0
H203 H 0.35029 0.09627 0.89874 0.0
C204 C 0.51317 0.08237 0.5304 0.0
N205 N 0.53495 0.12998 0.45853 0.0
C206 C 0.57192 0.11299 0.44289 0.0
C207 C 0.56401 0.11223 0.41111 0.0
C208 C 0.51875 0.12929 0.39525 0.0
C209 C 0.48343 0.14695 0.41186 0.0
C210 C 0.49175 0.14687 0.44363 0.0
Zn211 Zn 0.53676 0.12921 0.50542 0.0
C212 C 0.3614 0.13353 0.53063 0.0
N213 N 0.53569 0.12667 0.60338 0.0
C214 C 0.5712 0.10935 0.61994 0.0
C215 C 0.49406 0.14372 0.61737 0.0
C216 C 0.48688 0.14382 0.64912 0.0
C217 C 0.52162 0.12602 0.66675 0.0
C218 C 0.56429 0.10861 0.65183 0.0
Zn219 Zn 0.53826 0.12724 0.55645 0.0
O220 O 0.51854 0.09388 0.50567 0.0
C221 C 0.71343 0.12297 0.53092 0.0
O222 O 0.51889 0.09217 0.55581 0.0
H223 H 0.46507 0.15716 0.60386 0.0
H224 H 0.60625 0.09975 0.45511 0.0
H225 H 0.60406 0.09596 0.60842 0.0
O226 O 0.67149 0.12517 0.50602 0.0
O227 O 0.67332 0.12246 0.55623 0.0
H228 H 0.46194 0.16008 0.45647 0.0
O229 O 0.56083 0.1622 0.55615 0.0
O230 O 0.55673 0.16449 0.50608 0.0
O231 O 0.40256 0.13204 0.55573 0.0
O232 O 0.40243 0.13322 0.50563 0.0
C233 C 0.56824 0.17383 0.5316 0.0
H234 H 0.59282 0.09843 0.39906 0.0
H235 H 0.44737 0.16031 0.40048 0.0
H236 H 0.45253 0.15742 0.65974 0.0
H237 H 0.59232 0.09464 0.66468 0.0
C238 C 0.37369 0.82273 0.52971 0.0
N239 N 0.40663 0.86812 0.45574 0.0
C240 C 0.44799 0.85086 0.44211 0.0
C241 C 0.45494 0.85037 0.41037 0.0
C242 C 0.42017 0.86798 0.39239 0.0
C243 C 0.37762 0.88558 0.40696 0.0
C244 C 0.37101 0.88524 0.43883 0.0
Zn245 Zn 0.40459 0.86839 0.5026 0.0
C246 C 0.22838 0.87357 0.528 0.0
N247 N 0.40645 0.86831 0.60048 0.0
C248 C 0.4497 0.85148 0.61549 0.0
C249 C 0.36939 0.88535 0.61601 0.0
C250 C 0.37677 0.88612 0.64783 0.0
C251 C 0.42148 0.869 0.66378 0.0
C252 C 0.45739 0.8514 0.64726 0.0
Zn253 Zn 0.40402 0.86834 0.55361 0.0
O254 O 0.38155 0.83319 0.50424 0.0
C255 C 0.58041 0.86311 0.52855 0.0
O256 O 0.38469 0.83327 0.55433 0.0
H257 H 0.33512 0.89855 0.6037 0.0
H258 H 0.47696 0.83757 0.45591 0.0
H259 H 0.47973 0.83825 0.60276 0.0
O260 O 0.53965 0.8634 0.50334 0.0
O261 O 0.53899 0.8646 0.55337 0.0
H262 H 0.33834 0.89879 0.45008 0.0
O263 O 0.42011 0.90346 0.55208 0.0
O264 O 0.42563 0.9037 0.50198 0.0
O265 O 0.26981 0.87209 0.55306 0.0
O266 O 0.26902 0.87337 0.50279 0.0
C267 C 0.42822 0.91425 0.5269 0.0
H268 H 0.48915 0.83663 0.40003 0.0
H269 H 0.34947 0.8994 0.39383 0.0
H270 H 0.3477 0.8999 0.65983 0.0
H271 H 0.49317 0.83802 0.65872 0.0
H272 H 0.31932 0.38259 0.98359 0.0
H273 H 0.31437 0.35974 0.07794 0.0
H274 H 0.47597 0.37985 0.98374 0.0
H275 H 0.46964 0.35588 0.07774 0.0
H276 H 0.75357 0.37224 0.07784 0.0
H277 H 0.59818 0.37594 0.07753 0.0
H278 H 0.59028 0.35376 0.98413 0.0
H279 H 0.74692 0.35119 0.98406 0.0
C280 C 0.35176 0.37699 1.00434 0.0
C281 C 0.30464 0.37155 0.0308 0.0
C282 C 0.44148 0.37517 1.00437 0.0
C283 C 0.48584 0.36755 0.03073 0.0
C284 C 0.43824 0.36222 0.05718 0.0
C285 C 0.34891 0.36438 0.05728 0.0
C286 C 0.71865 0.36797 0.0573 0.0
C287 C 0.76248 0.36139 0.03098 0.0
C288 C 0.62927 0.37003 0.05714 0.0
C289 C 0.58121 0.36518 0.03079 0.0
C290 C 0.62512 0.35808 1.00465 0.0
C291 C 0.71485 0.35636 1.00468 0.0
H292 H 0.18319 0.62099 0.97943 0.0
H293 H 0.18957 0.64222 0.07312 0.0
H294 H 0.33854 0.61717 0.97985 0.0
H295 H 0.34619 0.6396 0.07314 0.0
H296 H 0.61693 0.61088 0.07422 0.0
H297 H 0.46033 0.61365 0.07386 0.0
H298 H 0.46753 0.63684 0.97953 0.0
H299 H 0.62281 0.63289 0.97955 0.0
C300 C 0.21807 0.62528 0.99997 0.0
C301 C 0.17417 0.63194 0.02623 0.0
C302 C 0.30745 0.62316 1.0002 0.0
C303 C 0.35545 0.62804 0.02654 0.0
C304 C 0.31144 0.63524 0.05263 0.0
C305 C 0.22171 0.637 0.05255 0.0
C306 C 0.58468 0.61631 0.05335 0.0
C307 C 0.63205 0.6215 0.02687 0.0
C308 C 0.49497 0.61815 0.0532 0.0
C309 C 0.45084 0.62558 0.0267 0.0
C310 C 0.4987 0.63065 1.00021 0.0
C311 C 0.58803 0.62845 1.00023 0.0
H312 H 0.74811 0.6246 0.47991 0.0
H313 H 0.74436 0.64278 0.57488 0.0
H314 H 0.59272 0.62086 0.48019 0.0
H315 H 0.58769 0.64016 0.57484 0.0
H316 H 0.31645 0.61124 0.57392 0.0
H317 H 0.47314 0.61401 0.57382 0.0
H318 H 0.46447 0.64099 0.48127 0.0
H319 H 0.30921 0.63713 0.48095 0.0
C320 C 0.71384 0.62823 0.50073 0.0
C321 C 0.75849 0.63403 0.52736 0.0
C322 C 0.62445 0.62615 0.50088 0.0
C323 C 0.5772 0.63019 0.52755 0.0
C324 C 0.62192 0.63649 0.55404 0.0
C325 C 0.71166 0.63824 0.55401 0.0
C326 C 0.34837 0.61751 0.55348 0.0
C327 C 0.30058 0.6238 0.52739 0.0
C328 C 0.43811 0.61934 0.5535 0.0
C329 C 0.48182 0.62781 0.52756 0.0
C330 C 0.43356 0.634 0.50148 0.0
C331 C 0.34423 0.63184 0.50131 0.0
H332 H 0.62138 0.38481 0.57545 0.0
H333 H 0.62652 0.36147 0.48274 0.0
H334 H 0.46469 0.38211 0.57539 0.0
H335 H 0.47122 0.35767 0.48311 0.0
H336 H 0.18755 0.37412 0.48167 0.0
H337 H 0.34296 0.37784 0.48185 0.0
H338 H 0.35017 0.35595 0.57673 0.0
H339 H 0.19351 0.35334 0.57685 0.0
C340 C 0.589 0.37911 0.55508 0.0
C341 C 0.6362 0.37351 0.52905 0.0
C342 C 0.49925 0.37732 0.55512 0.0
C343 C 0.45495 0.36958 0.52928 0.0
C344 C 0.50261 0.3641 0.50324 0.0
C345 C 0.59196 0.36622 0.50304 0.0
C346 C 0.22231 0.36992 0.50252 0.0
C347 C 0.17828 0.36339 0.52924 0.0
C348 C 0.3117 0.37199 0.50262 0.0
C349 C 0.35957 0.36722 0.52932 0.0
C350 C 0.31546 0.3602 0.5559 0.0
C351 C 0.22572 0.35846 0.55592 0.0
H352 H 0.8133 0.8616 0.98062 0.0
H353 H 0.82017 0.88098 0.07511 0.0
H354 H 0.96857 0.85774 0.9808 0.0
H355 H -0.02317 0.87824 0.07495 0.0
H356 H 0.24781 0.84957 0.0744 0.0
H357 H 0.09117 0.85215 0.07436 0.0
H358 H 0.09706 0.87784 0.98116 0.0
H359 H 0.25244 0.87415 0.9808 0.0
C360 C 0.84826 0.86547 1.00131 0.0
C361 C 0.80452 0.87167 0.02784 0.0
C362 C 0.93758 0.86332 1.0014 0.0
C363 C -0.01427 0.86768 0.02788 0.0
C364 C 0.94191 0.87433 0.05429 0.0
C365 C 0.85218 0.87614 0.05433 0.0
C366 C 0.21531 0.85552 0.05383 0.0
C367 C 0.26237 0.86153 0.02756 0.0
C368 C 0.12557 0.85723 0.05388 0.0
C369 C 0.0811 0.86532 0.0278 0.0
C370 C 0.12859 0.87116 1.0015 0.0
C371 C 0.21797 0.86912 1.00131 0.0
H372 H 0.11921 0.11182 0.9844 0.0
H373 H 0.12633 0.13197 0.07855 0.0
H374 H 0.96265 0.11466 0.98449 0.0
H375 H -0.02896 0.13599 0.07828 0.0
H376 H 0.6867 0.12018 0.07841 0.0
H377 H 0.84197 0.11635 0.07827 0.0
H378 H 0.84858 0.14065 0.98441 0.0
H379 H 0.69193 0.1433 0.98419 0.0
C380 C 0.08724 0.11685 1.0051 0.0
C381 C 0.13495 0.1215 0.03152 0.0
C382 C -0.00246 0.11873 1.00509 0.0
C383 C 0.95375 0.12567 0.03135 0.0
C384 C 0.00195 0.13019 0.05778 0.0
C385 C 0.09128 0.12794 0.05794 0.0
C386 C 0.7213 0.12488 0.0578 0.0
C387 C 0.67707 0.13208 0.03132 0.0
C388 C 0.81066 0.12276 0.05773 0.0
C389 C 0.85837 0.12816 0.03132 0.0
C390 C 0.81406 0.13589 1.005 0.0
C391 C 0.72431 0.13766 1.00493 0.0
H392 H 0.25596 0.12436 0.48279 0.0
H393 H 0.25232 0.14198 0.57796 0.0
H394 H 0.1006 0.1206 0.48304 0.0
H395 H 0.09564 0.1394 0.5779 0.0
H396 H 0.82457 0.11062 0.57696 0.0
H397 H -0.01881 0.1134 0.57677 0.0
H398 H -0.02799 0.14043 0.48424 0.0
H399 H 0.81671 0.13651 0.48401 0.0
C400 C 0.2217 0.12787 0.50365 0.0
C401 C 0.26637 0.13351 0.53035 0.0
C402 C 0.13231 0.12579 0.50379 0.0
C403 C 0.08506 0.12967 0.5305 0.0
C404 C 0.12982 0.13583 0.55706 0.0
C405 C 0.21958 0.13756 0.55705 0.0
C406 C 0.85637 0.1169 0.5565 0.0
C407 C 0.80843 0.12318 0.53044 0.0
C408 C 0.94609 0.11874 0.55647 0.0
C409 C -0.01034 0.12725 0.53052 0.0
C410 C 0.94124 0.13341 0.50445 0.0
C411 C 0.85189 0.13122 0.50433 0.0
H412 H 0.68558 0.87427 0.57567 0.0
H413 H 0.68978 0.85269 0.48212 0.0
H414 H 0.841 0.87802 0.57522 0.0
H415 H 0.84641 0.85532 0.48207 0.0
H416 H 0.11756 0.88416 0.48105 0.0
H417 H 0.96087 0.88144 0.48133 0.0
H418 H -0.03057 0.85796 0.57553 0.0
H419 H 0.12471 0.8618 0.5756 0.0
C420 C 0.71996 0.8699 0.55516 0.0
C421 C 0.67544 0.86315 0.52894 0.0
C422 C 0.80936 0.87198 0.55491 0.0
C423 C 0.85673 0.867 0.52859 0.0
C424 C 0.81212 0.85974 0.50255 0.0
C425 C 0.72238 0.85799 0.50266 0.0
C426 C 0.08561 0.87867 0.50187 0.0
C427 C 0.13337 0.87336 0.52834 0.0
C428 C -0.00414 0.87687 0.50198 0.0
C429 C 0.95211 0.86939 0.52844 0.0
C430 C 0.00035 0.86419 0.5549 0.0
C431 C 0.08969 0.86633 0.55492 0.0
H432 H 0.90109 0.55108 0.07631 0.0
H433 H -0.01735 0.55498 0.98212 0.0
H434 H 0.9187 0.51036 0.07642 0.0
H435 H 0.0043 0.51447 0.98256 0.0
H436 H 0.95174 0.43948 0.98284 0.0
H437 H 0.92977 0.48004 0.98296 0.0
H438 H 0.02288 0.48169 0.07612 0.0
H439 H 0.04078 0.44103 0.07636 0.0
C440 C 0.92365 0.54324 0.05574 0.0
C441 C 0.94028 0.55618 0.0292 0.0
C442 C 0.93425 0.5199 0.05581 0.0
C443 C 0.96294 0.50905 0.02948 0.0
C444 C -0.01954 0.52214 1.00306 0.0
C445 C 0.96864 0.54541 1.00286 0.0
C446 C 0.96735 0.44854 1.00332 0.0
C447 C -0.0022 0.4371 0.02959 0.0
C448 C 0.9553 0.47182 1.00337 0.0
C449 C -0.02531 0.48422 0.02954 0.0
C450 C 0.00572 0.47269 0.05574 0.0
C451 C 0.01656 0.44939 0.05582 0.0
H452 H 0.90124 0.44374 0.48001 0.0
H453 H -0.01116 0.44063 0.57378 0.0
H454 H 0.91679 0.48456 0.47946 0.0
H455 H 0.00818 0.48122 0.57288 0.0
H456 H 0.94804 0.55543 0.57325 0.0
H457 H 0.92851 0.51485 0.57269 0.0
H458 H 0.01892 0.51414 0.4794 0.0
H459 H 0.03465 0.55494 0.47961 0.0
C460 C 0.92467 0.45178 0.50039 0.0
C461 C 0.94344 0.43903 0.52698 0.0
C462 C 0.93407 0.47516 0.50005 0.0
C463 C 0.96347 0.48625 0.52617 0.0
C464 C -0.01642 0.47335 0.55256 0.0
C465 C -0.02692 0.45004 0.55303 0.0
C466 C 0.96354 0.5466 0.5526 0.0
C467 C -0.00703 0.55834 0.52649 0.0
C468 C 0.95292 0.5233 0.55233 0.0
C469 C -0.02729 0.51114 0.52606 0.0
C470 C 0.00189 0.52296 0.49988 0.0
C471 C 0.0114 0.54633 0.50004 0.0
H472 H 0.5411 0.94298 0.98251 0.0
H473 H 0.45256 0.93772 0.07582 0.0
H474 H 0.52422 0.98364 0.98334 0.0
H475 H 0.43158 0.97831 0.07628 0.0
H476 H 0.48492 0.05335 0.07791 0.0
H477 H 0.50605 0.01279 0.07725 0.0
H478 H 0.42005 0.01223 0.98319 0.0
H479 H 0.40303 0.05292 0.98352 0.0
C480 C 0.51717 0.95052 1.00312 0.0
C481 C 0.49821 0.93719 0.02911 0.0
C482 C 0.50694 0.97384 1.00355 0.0
C483 C 0.47627 0.98433 0.02985 0.0
C484 C 0.45679 0.97089 0.0558 0.0
C485 C 0.46824 0.9476 0.0555 0.0
C486 C 0.47074 0.04453 0.05709 0.0
C487 C 0.44255 0.05629 0.03074 0.0
C488 C 0.48227 0.02124 0.05675 0.0
C489 C 0.46463 0.00915 0.03018 0.0
C490 C 0.43585 0.02099 1.00389 0.0
C491 C 0.42555 0.04432 1.00411 0.0
H492 H 0.45963 0.05756 0.48221 0.0
H493 H 0.5393 0.0517 0.57669 0.0
H494 H 0.4373 0.01702 0.48109 0.0
H495 H 0.52108 0.0111 0.57525 0.0
H496 H 0.39608 0.94257 0.57344 0.0
H497 H 0.4146 0.98314 0.57376 0.0
H498 H 0.50935 0.98209 0.48103 0.0
H499 H 0.48671 0.9415 0.48031 0.0
C500 C 0.47309 0.04756 0.50266 0.0
C501 C 0.50083 0.05778 0.52958 0.0
C502 C 0.46087 0.02429 0.50197 0.0
C503 C 0.4773 0.01072 0.52808 0.0
C504 C 0.50605 0.02102 0.55489 0.0
C505 C 0.51703 0.0443 0.5557 0.0
C506 C 0.42078 0.95102 0.5531 0.0
C507 C 0.44005 0.93888 0.52685 0.0
C508 C 0.43199 0.97429 0.55334 0.0
C509 C 0.46402 0.98595 0.52749 0.0
C510 C 0.48333 0.97374 0.5012 0.0
C511 C 0.47088 0.95046 0.50082 0.0
H512 H 0.07112 0.29067 0.98503 0.0
H513 H 0.14149 0.29976 0.07949 0.0
H514 H 0.14853 0.25496 0.98536 0.0
H515 H 0.2228 0.26507 0.07941 0.0
H516 H 0.29831 0.19184 0.07922 0.0
H517 H 0.21686 0.22648 0.07934 0.0
H518 H 0.28771 0.23983 0.98518 0.0
H519 H 0.36528 0.20415 0.98463 0.0
C520 C 0.10259 0.28494 1.00591 0.0
C521 C 0.09965 0.29793 0.03228 0.0
C522 C 0.14813 0.26464 1.006 0.0
C523 C 0.19301 0.25712 0.03232 0.0
C524 C 0.18813 0.26999 0.05884 0.0
C525 C 0.14133 0.28998 0.0589 0.0
C526 C 0.29766 0.2023 0.05863 0.0
C527 C 0.33849 0.19527 0.03192 0.0
C528 C 0.25079 0.22228 0.0587 0.0
C529 C 0.24496 0.23606 0.03223 0.0
C530 C 0.28889 0.22944 1.00581 0.0
C531 C 0.33451 0.20916 1.00558 0.0
H532 H 0.57559 0.7893 0.07355 0.0
H533 H 0.63529 0.80132 0.97828 0.0
H534 H 0.65237 0.75354 0.07239 0.0
H535 H 0.7159 0.76654 0.97749 0.0
H536 H 0.79093 0.69307 0.97747 0.0
H537 H 0.70981 0.72782 0.97789 0.0
H538 H 0.79192 0.73865 0.07094 0.0
H539 H 0.86921 0.70295 0.07098 0.0
C540 C 0.60457 0.78421 0.05233 0.0
C541 C 0.59894 0.79806 0.02599 0.0
C542 C 0.64974 0.76388 0.05174 0.0
C543 C 0.69151 0.75716 0.02493 0.0
C544 C 0.68374 0.77085 0.99844 0.0
C545 C 0.63737 0.7909 0.99889 0.0
C546 C 0.79283 0.70303 0.99789 0.0
C547 C 0.83666 0.69529 0.02419 0.0
C548 C 0.74613 0.72304 0.99815 0.0
C549 C 0.74346 0.73611 0.02453 0.0
C550 C 0.79055 0.7288 0.05045 0.0
C551 C 0.83601 0.70851 0.05037 0.0
H552 H 0.13879 0.6936 0.57732 0.0
H553 H 0.06776 0.70655 0.48305 0.0
H554 H 0.22049 0.72824 0.57763 0.0
H555 H 0.14577 0.74219 0.48382 0.0
H556 H 0.36437 0.79252 0.4835 0.0
H557 H 0.28596 0.75694 0.4838 0.0
H558 H 0.21515 0.76692 0.57801 0.0
H559 H 0.29736 0.80153 0.5781 0.0
C560 C 0.13864 0.70419 0.55684 0.0
C561 C 0.09666 0.69732 0.53014 0.0
C562 C 0.18565 0.72416 0.55703 0.0
C563 C 0.19055 0.73809 0.53069 0.0
C564 C 0.14532 0.73167 0.50433 0.0
C565 C 0.09947 0.7114 0.50398 0.0
C566 C 0.33345 0.7868 0.5044 0.0
C567 C 0.33756 0.79974 0.53081 0.0
C568 C 0.28734 0.76657 0.50449 0.0
C569 C 0.24308 0.75907 0.53083 0.0
C570 C 0.24924 0.77185 0.55741 0.0
C571 C 0.29658 0.79179 0.55748 0.0
H572 H 0.87146 0.29209 0.48626 0.0
H573 H 0.79789 0.30206 0.58004 0.0
H574 H 0.7943 0.25632 0.48672 0.0
H575 H 0.7171 0.26722 0.58006 0.0
H576 H 0.64371 0.19361 0.58023 0.0
H577 H 0.72437 0.22845 0.58049 0.0
H578 H 0.65405 0.24142 0.48603 0.0
H579 H 0.57702 0.20563 0.48538 0.0
C580 C 0.83937 0.28655 0.50702 0.0
C581 C 0.84121 0.29983 0.53314 0.0
C582 C 0.79401 0.26621 0.50719 0.0
C583 C 0.74835 0.2589 0.53332 0.0
C584 C 0.75229 0.27201 0.55964 0.0
C585 C 0.79878 0.29209 0.55964 0.0
C586 C 0.64432 0.20402 0.5596 0.0
C587 C 0.60386 0.19685 0.53277 0.0
C588 C 0.69072 0.2241 0.55975 0.0
C589 C 0.69654 0.2378 0.53322 0.0
C590 C 0.65286 0.23107 0.5067 0.0
C591 C 0.60757 0.21072 0.50641 0.0
H592 H 0.86948 0.35328 0.1979 0.0
H593 H 0.12362 0.38146 0.21034 0.0
H594 H 0.84668 0.35374 0.25286 0.0
H595 H 0.09862 0.38272 0.2653 0.0
H596 H -0.02658 0.40301 0.3574 0.0
H597 H -0.00448 0.40308 0.30201 0.0
H598 H 0.91417 0.33365 0.29985 0.0
H599 H 0.8925 0.33355 0.35518 0.0
C600 C 0.92086 0.35942 0.21226 0.0
C601 C -0.00118 0.36717 0.19951 0.0
C602 C 0.90738 0.35979 0.24377 0.0
C603 C -0.02913 0.36825 0.26328 0.0
C604 C 0.04826 0.37632 0.25068 0.0
C605 C 0.06234 0.37566 0.21917 0.0
C606 C 0.95971 0.38784 0.345 0.0
C607 C 0.93118 0.36828 0.3605 0.0
C608 C -0.02699 0.38783 0.31342 0.0
C609 C 0.95664 0.36837 0.29672 0.0
C610 C 0.92682 0.34892 0.31217 0.0
C611 C 0.91485 0.34883 0.34379 0.0
H612 H 0.80855 0.61528 0.2075 0.0
H613 H 0.0692 0.63896 0.19462 0.0
H614 H 0.83026 0.61491 0.26263 0.0
H615 H 0.08905 0.63992 0.24961 0.0
H616 H 0.12813 0.61851 0.3487 0.0
H617 H 0.10635 0.61647 0.29377 0.0
H618 H 0.84501 0.63978 0.30417 0.0
H619 H 0.86508 0.64046 0.35922 0.0
C620 C 0.8705 0.62039 0.21637 0.0
C621 C 0.93696 0.62721 0.1965 0.0
C622 C 0.88261 0.62048 0.24805 0.0
C623 C 0.96135 0.62748 0.26068 0.0
C624 C 0.02788 0.63418 0.24079 0.0
C625 C 0.01599 0.63395 0.20916 0.0
C626 C 0.06564 0.62292 0.33934 0.0
C627 C -0.00153 0.62968 0.35851 0.0
C628 C 0.05345 0.62203 0.30773 0.0
C629 C -0.02607 0.62802 0.29442 0.0
C630 C 0.90679 0.63477 0.31359 0.0
C631 C 0.91878 0.63551 0.3452 0.0
H632 H 0.88993 0.65951 0.84978 0.0
H633 H -0.02893 0.59021 0.85786 0.0
H634 H 0.91295 0.65894 0.7948 0.0
H635 H -0.00256 0.58974 0.80297 0.0
H636 H 0.95843 0.59044 0.69921 0.0
H637 H 0.93245 0.58997 0.75417 0.0
H638 H 0.02349 0.65863 0.75838 0.0
H639 H 0.0461 0.65921 0.70335 0.0
C640 C 0.91322 0.64418 0.83973 0.0
C641 C 0.92875 0.62491 0.85804 0.0
C642 C 0.92702 0.64386 0.80823 0.0
C643 C 0.95789 0.62434 0.79432 0.0
C644 C -0.02746 0.60498 0.81272 0.0
C645 C 0.95763 0.60523 0.8442 0.0
C646 C -0.02659 0.60533 0.71203 0.0
C647 C 0.00394 0.62489 0.69706 0.0
C648 C 0.95872 0.60509 0.74354 0.0
C649 C -0.02474 0.62432 0.76084 0.0
C650 C 0.00793 0.64368 0.7458 0.0
C651 C 0.0215 0.644 0.71428 0.0
H652 H 0.07339 0.35923 0.69812 0.0
H653 H 0.81217 0.38258 0.70864 0.0
H654 H 0.09294 0.35923 0.75321 0.0
H655 H 0.83338 0.3838 0.76374 0.0
H656 H 0.86794 0.35826 0.86217 0.0
H657 H 0.84839 0.35898 0.80705 0.0
H658 H 0.10846 0.38345 0.7956 0.0
H659 H 0.12966 0.3815 0.85075 0.0
C660 C 0.02002 0.36438 0.71216 0.0
C661 C 0.9409 0.37073 0.69886 0.0
C662 C 0.03172 0.3647 0.7438 0.0
C663 C 0.9648 0.37153 0.76301 0.0
C664 C 0.88601 0.37817 0.7497 0.0
C665 C 0.87416 0.37774 0.71803 0.0
C666 C 0.92142 0.36353 0.84792 0.0
C667 C 0.00067 0.36965 0.86099 0.0
C668 C 0.90973 0.36427 0.81626 0.0
C669 C -0.02322 0.37129 0.79679 0.0
C670 C 0.05572 0.37768 0.80985 0.0
C671 C 0.06757 0.37683 0.84154 0.0
H672 H 0.62236 0.88071 0.20831 0.0
H673 H 0.37016 0.85134 0.19614 0.0
H674 H 0.59714 0.88223 0.26321 0.0
H675 H 0.34698 0.85213 0.25107 0.0
H676 H 0.39023 0.83341 0.35376 0.0
H677 H 0.41216 0.83305 0.29849 0.0
H678 H 0.49551 0.90234 0.29974 0.0
H679 H 0.47351 0.90271 0.3551 0.0
C680 C 0.56143 0.87469 0.21719 0.0
C681 C 0.49851 0.86582 0.19759 0.0
C682 C 0.54719 0.87551 0.24869 0.0
C683 C 0.4702 0.86725 0.26138 0.0
C684 C 0.40739 0.85836 0.24194 0.0
C685 C 0.42107 0.85779 0.21044 0.0
C686 C 0.41313 0.84856 0.34219 0.0
C687 C 0.43012 0.86809 0.35869 0.0
C688 C 0.42521 0.84839 0.31058 0.0
C689 C 0.45569 0.86765 0.29485 0.0
C690 C 0.47255 0.88721 0.31133 0.0
C691 C 0.45926 0.88748 0.34291 0.0
H692 H 0.39073 0.16019 0.20522 0.0
H693 H 0.47771 0.09131 0.20399 0.0
H694 H 0.41209 0.16067 0.26036 0.0
H695 H 0.50281 0.09191 0.25901 0.0
H696 H 0.46517 0.09352 0.36212 0.0
H697 H 0.43819 0.09236 0.30729 0.0
H698 H 0.51965 0.16178 0.29781 0.0
H699 H 0.54298 0.16303 0.35282 0.0
C700 C 0.41494 0.14518 0.21682 0.0
C701 C 0.43255 0.12572 0.20037 0.0
C702 C 0.42783 0.14547 0.24841 0.0
C703 C 0.45995 0.12639 0.26432 0.0
C704 C 0.47679 0.10683 0.24776 0.0
C705 C 0.46267 0.10646 0.21619 0.0
C706 C 0.47767 0.10847 0.3482 0.0
C707 C 0.50608 0.12837 0.3617 0.0
C708 C 0.46248 0.10781 0.31673 0.0
C709 C 0.47645 0.12699 0.29791 0.0
C710 C 0.50623 0.14681 0.31152 0.0
C711 C 0.5202 0.14753 0.34305 0.0
H712 H 0.47691 0.09191 0.86165 0.0
H713 H 0.39743 0.16129 0.85296 0.0
H714 H 0.50426 0.09119 0.80686 0.0
H715 H 0.42126 0.16049 0.79803 0.0
H716 H 0.55243 0.16002 0.70614 0.0
H717 H 0.52992 0.15992 0.76118 0.0
H718 H 0.44057 0.09106 0.75815 0.0
H719 H 0.46667 0.09104 0.70324 0.0
C720 C 0.46408 0.10691 0.84788 0.0
C721 C 0.4352 0.12667 0.86155 0.0
C722 C 0.47953 0.10652 0.81643 0.0
C723 C 0.46538 0.12581 0.79782 0.0
C724 C 0.43489 0.14544 0.81158 0.0
C725 C 0.42062 0.14591 0.84307 0.0
C726 C 0.52824 0.14486 0.71734 0.0
C727 C 0.51129 0.12554 0.70044 0.0
C728 C 0.5147 0.14482 0.74888 0.0
C729 C 0.4826 0.12554 0.76429 0.0
C730 C 0.4665 0.10612 0.74729 0.0
C731 C 0.48123 0.10609 0.71578 0.0
H732 H 0.39383 0.83508 0.70555 0.0
H733 H 0.47518 0.90438 0.6977 0.0
H734 H 0.41651 0.83567 0.76061 0.0
H735 H 0.50163 0.90486 0.75264 0.0
H736 H 0.46354 0.90458 0.85614 0.0
H737 H 0.43778 0.90488 0.80112 0.0
H738 H 0.52475 0.83586 0.7978 0.0
H739 H 0.5467 0.83544 0.85293 0.0
C740 C 0.41717 0.8504 0.71567 0.0
C741 C 0.4327 0.86968 0.6974 0.0
C742 C 0.43081 0.85074 0.74722 0.0
C743 C 0.46169 0.87027 0.76125 0.0
C744 C 0.47663 0.88961 0.74285 0.0
C745 C 0.46173 0.88935 0.71132 0.0
C746 C 0.4776 0.88956 0.84351 0.0
C747 C 0.50681 0.86997 0.85876 0.0
C748 C 0.46309 0.88971 0.81194 0.0
C749 C 0.47863 0.87035 0.79484 0.0
C750 C 0.50994 0.85093 0.81018 0.0
C751 C 0.52318 0.8507 0.84176 0.0
loop_
_geom_bond_atom_site_label_1
_geom_bond_atom_site_label_2
_geom_bond_distance
_geom_bond_site_symmetry_2
_ccdc_geom_bond_type
C0 O16 1.251 . S
C0 O18 1.254 1_554 S
N1 C2 1.333 . S
N1 C6 1.307 . S
N1 Zn7 2.020 . S
C2 N1 1.333 . S
C2 C3 1.379 . S
C2 H20 0.952 . S
C3 C2 1.379 . S
C3 C4 1.390 . S
C3 H30 0.949 . S
C4 C3 1.390 . S
C4 C5 1.357 . S
C5 C4 1.357 . S
C5 C6 1.370 . S
C5 H31 0.950 . S
C6 N1 1.307 . S
C6 C5 1.370 . S
C6 H24 0.948 . S
Zn7 N1 2.020 . S
Zn7 O16 2.039 . S
Zn7 O22 2.034 . S
Zn7 O26 2.025 . S
Zn7 O28 2.024 1_455 S
C8 O27 1.246 1_554 S
C8 O28 1.249 . S
N9 C10 1.307 . S
N9 C11 1.333 . S
N9 Zn15 2.020 . S
C10 N9 1.307 . S
C10 C14 1.370 . S
C10 H21 0.948 . S
C11 N9 1.333 . S
C11 C12 1.379 . S
C11 H19 0.952 . S
C12 C11 1.379 . S
C12 C13 1.390 . S
C12 H32 0.949 . S
C13 C12 1.390 . S
C13 C14 1.357 . S
C14 C10 1.370 . S
C14 C13 1.357 . S
C14 H33 0.950 . S
Zn15 N9 2.020 . S
Zn15 O18 2.025 . S
Zn15 O23 2.024 . S
Zn15 O25 2.039 . S
Zn15 O27 2.034 1_455 S
O16 C0 1.251 . S
O16 Zn7 2.039 . S
C17 O22 1.246 . S
C17 O23 1.249 1_554 S
O18 C0 1.254 1_556 S
O18 Zn15 2.025 . S
H19 C11 0.952 . S
H20 C2 0.952 . S
H21 C10 0.948 . S
O22 Zn7 2.034 . S
O22 C17 1.246 . S
O23 Zn15 2.024 . S
O23 C17 1.249 1_556 S
H24 C6 0.948 . S
O25 Zn15 2.039 . S
O25 C29 1.251 1_556 S
O26 Zn7 2.025 . S
O26 C29 1.254 . S
O27 C8 1.246 1_556 S
O27 Zn15 2.034 1_655 S
O28 Zn7 2.024 1_655 S
O28 C8 1.249 . S
C29 O25 1.251 1_554 S
C29 O26 1.254 . S
H30 C3 0.949 . S
H31 C5 0.950 . S
H32 C12 0.949 . S
H33 C14 0.950 . S
C34 O50 1.251 . S
C34 O52 1.254 1_554 S
N35 C36 1.333 . S
N35 C40 1.307 . S
N35 Zn41 2.020 . S
C36 N35 1.333 . S
C36 C37 1.379 . S
C36 H54 0.952 . S
C37 C36 1.379 . S
C37 C38 1.390 . S
C37 H64 0.949 . S
C38 C37 1.390 . S
C38 C39 1.357 . S
C39 C38 1.357 . S
C39 C40 1.370 . S
C39 H65 0.950 . S
C40 N35 1.307 . S
C40 C39 1.370 . S
C40 H58 0.948 . S
Zn41 N35 2.020 . S
Zn41 O50 2.039 . S
Zn41 O56 2.034 . S
Zn41 O60 2.025 . S
Zn41 O62 2.024 1_655 S
C42 O61 1.246 1_554 S
C42 O62 1.249 . S
N43 C44 1.307 . S
N43 C45 1.333 . S
N43 Zn49 2.020 . S
C44 N43 1.307 . S
C44 C48 1.370 . S
C44 H55 0.948 . S
C45 N43 1.333 . S
C45 C46 1.379 . S
C45 H53 0.952 . S
C46 C45 1.379 . S
C46 C47 1.390 . S
C46 H66 0.949 . S
C47 C46 1.390 . S
C47 C48 1.357 . S
C48 C44 1.370 . S
C48 C47 1.357 . S
C48 H67 0.950 . S
Zn49 N43 2.020 . S
Zn49 O52 2.025 . S
Zn49 O57 2.024 . S
Zn49 O59 2.039 . S
Zn49 O61 2.034 1_655 S
O50 C34 1.251 . S
O50 Zn41 2.039 . S
C51 O56 1.246 . S
C51 O57 1.249 1_554 S
O52 C34 1.254 1_556 S
O52 Zn49 2.025 . S
H53 C45 0.952 . S
H54 C36 0.952 . S
H55 C44 0.948 . S
O56 Zn41 2.034 . S
O56 C51 1.246 . S
O57 Zn49 2.024 . S
O57 C51 1.249 1_556 S
H58 C40 0.948 . S
O59 Zn49 2.039 . S
O59 C63 1.251 1_556 S
O60 Zn41 2.025 . S
O60 C63 1.254 . S
O61 C42 1.246 1_556 S
O61 Zn49 2.034 1_455 S
O62 Zn41 2.024 1_455 S
O62 C42 1.249 . S
C63 O59 1.251 1_554 S
C63 O60 1.254 . S
H64 C37 0.949 . S
H65 C39 0.950 . S
H66 C46 0.949 . S
H67 C48 0.950 . S
C68 O84 1.251 . S
C68 O86 1.254 . S
N69 C70 1.333 . S
N69 C74 1.307 . S
N69 Zn75 2.020 . S
C70 N69 1.333 . S
C70 C71 1.379 . S
C70 H88 0.952 . S
C71 C70 1.379 . S
C71 C72 1.390 . S
C71 H98 0.949 . S
C72 C71 1.390 . S
C72 C73 1.357 . S
C73 C72 1.357 . S
C73 C74 1.370 . S
C73 H99 0.950 . S
C74 N69 1.307 . S
C74 C73 1.370 . S
C74 H92 0.948 . S
Zn75 N69 2.020 . S
Zn75 O84 2.039 . S
Zn75 O90 2.034 . S
Zn75 O94 2.025 . S
Zn75 O96 2.024 1_455 S
C76 O95 1.246 . S
C76 O96 1.249 . S
N77 C78 1.307 . S
N77 C79 1.333 . S
N77 Zn83 2.020 . S
C78 N77 1.307 . S
C78 C82 1.370 . S
C78 H89 0.948 . S
C79 N77 1.333 . S
C79 C80 1.379 . S
C79 H87 0.952 . S
C80 C79 1.379 . S
C80 C81 1.390 . S
C80 H100 0.949 . S
C81 C80 1.390 . S
C81 C82 1.357 . S
C82 C78 1.370 . S
C82 C81 1.357 . S
C82 H101 0.950 . S
Zn83 N77 2.020 . S
Zn83 O86 2.025 . S
Zn83 O91 2.024 . S
Zn83 O93 2.039 . S
Zn83 O95 2.034 1_455 S
O84 C68 1.251 . S
O84 Zn75 2.039 . S
C85 O90 1.246 . S
C85 O91 1.249 . S
O86 C68 1.254 . S
O86 Zn83 2.025 . S
H87 C79 0.952 . S
H88 C70 0.952 . S
H89 C78 0.948 . S
O90 Zn75 2.034 . S
O90 C85 1.246 . S
O91 Zn83 2.024 . S
O91 C85 1.249 . S
H92 C74 0.948 . S
O93 Zn83 2.039 . S
O93 C97 1.251 . S
O94 Zn75 2.025 . S
O94 C97 1.254 . S
O95 C76 1.246 . S
O95 Zn83 2.034 1_655 S
O96 Zn75 2.024 1_655 S
O96 C76 1.249 . S
C97 O93 1.251 . S
C97 O94 1.254 . S
H98 C71 0.949 . S
H99 C73 0.950 . S
H100 C80 0.949 . S
H101 C82 0.950 . S
C102 O118 1.251 . S
C102 O120 1.254 . S
N103 C104 1.333 . S
N103 C108 1.307 . S
N103 Zn109 2.020 . S
C104 N103 1.333 . S
C104 C105 1.379 . S
C104 H122 0.952 . S
C105 C104 1.379 . S
C105 C106 1.390 . S
C105 H132 0.949 . S
C106 C105 1.390 . S
C106 C107 1.357 . S
C107 C106 1.357 . S
C107 C108 1.370 . S
C107 H133 0.950 . S
C108 N103 1.307 . S
C108 C107 1.370 . S
C108 H126 0.948 . S
Zn109 N103 2.020 . S
Zn109 O118 2.039 . S
Zn109 O124 2.034 1_655 S
Zn109 O128 2.025 . S
Zn109 O130 2.024 . S
C110 O129 1.246 . S
C110 O130 1.249 . S
N111 C112 1.307 . S
N111 C113 1.333 . S
N111 Zn117 2.020 . S
C112 N111 1.307 . S
C112 C116 1.370 . S
C112 H123 0.948 . S
C113 N111 1.333 . S
C113 C114 1.379 . S
C113 H121 0.952 . S
C114 C113 1.379 . S
C114 C115 1.390 . S
C114 H134 0.949 . S
C115 C114 1.390 . S
C115 C116 1.357 . S
C116 C112 1.370 . S
C116 C115 1.357 . S
C116 H135 0.950 . S
Zn117 N111 2.020 . S
Zn117 O120 2.025 . S
Zn117 O125 2.024 1_655 S
Zn117 O127 2.039 . S
Zn117 O129 2.034 . S
O118 C102 1.251 . S
O118 Zn109 2.039 . S
C119 O124 1.246 . S
C119 O125 1.249 . S
O120 C102 1.254 . S
O120 Zn117 2.025 . S
H121 C113 0.952 . S
H122 C104 0.952 . S
H123 C112 0.948 . S
O124 Zn109 2.034 1_455 S
O124 C119 1.246 . S
O125 Zn117 2.024 1_455 S
O125 C119 1.249 . S
H126 C108 0.948 . S
O127 Zn117 2.039 . S
O127 C131 1.251 . S
O128 Zn109 2.025 . S
O128 C131 1.254 . S
O129 C110 1.246 . S
O129 Zn117 2.034 . S
O130 Zn109 2.024 . S
O130 C110 1.249 . S
C131 O127 1.251 . S
C131 O128 1.254 . S
H132 C105 0.949 . S
H133 C107 0.950 . S
H134 C114 0.949 . S
H135 C116 0.950 . S
C136 O152 1.251 . S
C136 O154 1.254 1_554 S
N137 C138 1.333 . S
N137 C142 1.307 . S
N137 Zn143 2.020 . S
C138 N137 1.333 . S
C138 C139 1.379 . S
C138 H156 0.952 . S
C139 C138 1.379 . S
C139 C140 1.390 . S
C139 H166 0.949 . S
C140 C139 1.390 . S
C140 C141 1.357 . S
C141 C140 1.357 . S
C141 C142 1.370 . S
C141 H167 0.950 . S
C142 N137 1.307 . S
C142 C141 1.370 . S
C142 H160 0.948 . S
Zn143 N137 2.020 . S
Zn143 O152 2.039 . S
Zn143 O158 2.034 . S
Zn143 O162 2.025 . S
Zn143 O164 2.024 . S
C144 O163 1.246 1_554 S
C144 O164 1.249 . S
N145 C146 1.307 . S
N145 C147 1.333 . S
N145 Zn151 2.020 . S
C146 N145 1.307 . S
C146 C150 1.370 . S
C146 H157 0.948 . S
C147 N145 1.333 . S
C147 C148 1.379 . S
C147 H155 0.952 . S
C148 C147 1.379 . S
C148 C149 1.390 . S
C148 H168 0.949 . S
C149 C148 1.390 . S
C149 C150 1.357 . S
C150 C146 1.370 . S
C150 C149 1.357 . S
C150 H169 0.950 . S
Zn151 N145 2.020 . S
Zn151 O154 2.025 . S
Zn151 O159 2.024 . S
Zn151 O161 2.039 . S
Zn151 O163 2.034 . S
O152 C136 1.251 . S
O152 Zn143 2.039 . S
C153 O158 1.246 . S
C153 O159 1.249 1_554 S
O154 C136 1.254 1_556 S
O154 Zn151 2.025 . S
H155 C147 0.952 . S
H156 C138 0.952 . S
H157 C146 0.948 . S
O158 Zn143 2.034 . S
O158 C153 1.246 . S
O159 Zn151 2.024 . S
O159 C153 1.249 1_556 S
H160 C142 0.948 . S
O161 Zn151 2.039 . S
O161 C165 1.251 1_556 S
O162 Zn143 2.025 . S
O162 C165 1.254 . S
O163 C144 1.246 1_556 S
O163 Zn151 2.034 . S
O164 Zn143 2.024 . S
O164 C144 1.249 . S
C165 O161 1.251 1_554 S
C165 O162 1.254 . S
H166 C139 0.949 . S
H167 C141 0.950 . S
H168 C148 0.949 . S
H169 C150 0.950 . S
C170 O186 1.251 . S
C170 O188 1.254 1_554 S
N171 C172 1.333 . S
N171 C176 1.307 . S
N171 Zn177 2.020 . S
C172 N171 1.333 . S
C172 C173 1.379 . S
C172 H190 0.952 . S
C173 C172 1.379 . S
C173 C174 1.390 . S
C173 H200 0.949 . S
C174 C173 1.390 . S
C174 C175 1.357 . S
C175 C174 1.357 . S
C175 C176 1.370 . S
C175 H201 0.950 . S
C176 N171 1.307 . S
C176 C175 1.370 . S
C176 H194 0.948 . S
Zn177 N171 2.020 . S
Zn177 O186 2.039 . S
Zn177 O192 2.034 . S
Zn177 O196 2.025 . S
Zn177 O198 2.024 . S
C178 O197 1.246 1_554 S
C178 O198 1.249 . S
N179 C180 1.307 . S
N179 C181 1.333 . S
N179 Zn185 2.020 . S
C180 N179 1.307 . S
C180 C184 1.370 . S
C180 H191 0.948 . S
C181 N179 1.333 . S
C181 C182 1.379 . S
C181 H189 0.952 . S
C182 C181 1.379 . S
C182 C183 1.390 . S
C182 H202 0.949 . S
C183 C182 1.390 . S
C183 C184 1.357 . S
C184 C180 1.370 . S
C184 C183 1.357 . S
C184 H203 0.950 . S
Zn185 N179 2.020 . S
Zn185 O188 2.025 . S
Zn185 O193 2.024 . S
Zn185 O195 2.039 . S
Zn185 O197 2.034 . S
O186 C170 1.251 . S
O186 Zn177 2.039 . S
C187 O192 1.246 . S
C187 O193 1.249 1_554 S
O188 C170 1.254 1_556 S
O188 Zn185 2.025 . S
H189 C181 0.952 . S
H190 C172 0.952 . S
H191 C180 0.948 . S
O192 Zn177 2.034 . S
O192 C187 1.246 . S
O193 Zn185 2.024 . S
O193 C187 1.249 1_556 S
H194 C176 0.948 . S
O195 Zn185 2.039 . S
O195 C199 1.251 1_556 S
O196 Zn177 2.025 . S
O196 C199 1.254 . S
O197 C178 1.246 1_556 S
O197 Zn185 2.034 . S
O198 Zn177 2.024 . S
O198 C178 1.249 . S
C199 O195 1.251 1_554 S
C199 O196 1.254 . S
H200 C173 0.949 . S
H201 C175 0.950 . S
H202 C182 0.949 . S
H203 C184 0.950 . S
C204 O220 1.251 . S
C204 O222 1.254 . S
N205 C206 1.333 . S
N205 C210 1.307 . S
N205 Zn211 2.020 . S
C206 N205 1.333 . S
C206 C207 1.379 . S
C206 H224 0.952 . S
C207 C206 1.379 . S
C207 C208 1.390 . S
C207 H234 0.949 . S
C208 C207 1.390 . S
C208 C209 1.357 . S
C209 C208 1.357 . S
C209 C210 1.370 . S
C209 H235 0.950 . S
C210 N205 1.307 . S
C210 C209 1.370 . S
C210 H228 0.948 . S
Zn211 N205 2.020 . S
Zn211 O220 2.039 . S
Zn211 O226 2.034 . S
Zn211 O230 2.025 . S
Zn211 O232 2.024 . S
C212 O231 1.246 . S
C212 O232 1.249 . S
N213 C214 1.307 . S
N213 C215 1.333 . S
N213 Zn219 2.020 . S
C214 N213 1.307 . S
C214 C218 1.370 . S
C214 H225 0.948 . S
C215 N213 1.333 . S
C215 C216 1.379 . S
C215 H223 0.952 . S
C216 C215 1.379 . S
C216 C217 1.390 . S
C216 H236 0.949 . S
C217 C216 1.390 . S
C217 C218 1.357 . S
C218 C214 1.370 . S
C218 C217 1.357 . S
C218 H237 0.950 . S
Zn219 N213 2.020 . S
Zn219 O222 2.025 . S
Zn219 O227 2.024 . S
Zn219 O229 2.039 . S
Zn219 O231 2.034 . S
O220 C204 1.251 . S
O220 Zn211 2.039 . S
C221 O226 1.246 . S
C221 O227 1.249 . S
O222 C204 1.254 . S
O222 Zn219 2.025 . S
H223 C215 0.952 . S
H224 C206 0.952 . S
H225 C214 0.948 . S
O226 Zn211 2.034 . S
O226 C221 1.246 . S
O227 Zn219 2.024 . S
O227 C221 1.249 . S
H228 C210 0.948 . S
O229 Zn219 2.039 . S
O229 C233 1.251 . S
O230 Zn211 2.025 . S
O230 C233 1.254 . S
O231 C212 1.246 . S
O231 Zn219 2.034 . S
O232 Zn211 2.024 . S
O232 C212 1.249 . S
C233 O229 1.251 . S
C233 O230 1.254 . S
H234 C207 0.949 . S
H235 C209 0.950 . S
H236 C216 0.949 . S
H237 C218 0.950 . S
C238 O254 1.251 . S
C238 O256 1.254 . S
N239 C240 1.333 . S
N239 C244 1.307 . S
N239 Zn245 2.020 . S
C240 N239 1.333 . S
C240 C241 1.379 . S
C240 H258 0.952 . S
C241 C240 1.379 . S
C241 C242 1.390 . S
C241 H268 0.949 . S
C242 C241 1.390 . S
C242 C243 1.357 . S
C243 C242 1.357 . S
C243 C244 1.370 . S
C243 H269 0.950 . S
C244 N239 1.307 . S
C244 C243 1.370 . S
C244 H262 0.948 . S
Zn245 N239 2.020 . S
Zn245 O254 2.039 . S
Zn245 O260 2.034 . S
Zn245 O264 2.025 . S
Zn245 O266 2.024 . S
C246 O265 1.246 . S
C246 O266 1.249 . S
N247 C248 1.307 . S
N247 C249 1.333 . S
N247 Zn253 2.020 . S
C248 N247 1.307 . S
C248 C252 1.370 . S
C248 H259 0.948 . S
C249 N247 1.333 . S
C249 C250 1.379 . S
C249 H257 0.952 . S
C250 C249 1.379 . S
C250 C251 1.390 . S
C250 H270 0.949 . S
C251 C250 1.390 . S
C251 C252 1.357 . S
C252 C248 1.370 . S
C252 C251 1.357 . S
C252 H271 0.950 . S
Zn253 N247 2.020 . S
Zn253 O256 2.025 . S
Zn253 O261 2.024 . S
Zn253 O263 2.039 . S
Zn253 O265 2.034 . S
O254 C238 1.251 . S
O254 Zn245 2.039 . S
C255 O260 1.246 . S
C255 O261 1.249 . S
O256 C238 1.254 . S
O256 Zn253 2.025 . S
H257 C249 0.952 . S
H258 C240 0.952 . S
H259 C248 0.948 . S
O260 Zn245 2.034 . S
O260 C255 1.246 . S
O261 Zn253 2.024 . S
O261 C255 1.249 . S
H262 C244 0.948 . S
O263 Zn253 2.039 . S
O263 C267 1.251 . S
O264 Zn245 2.025 . S
O264 C267 1.254 . S
O265 C246 1.246 . S
O265 Zn253 2.034 . S
O266 Zn245 2.024 . S
O266 C246 1.249 . S
C267 O263 1.251 . S
C267 O264 1.254 . S
H268 C241 0.949 . S
H269 C243 0.950 . S
H270 C250 0.949 . S
H271 C252 0.950 . S
H272 C280 0.950 . S
H273 C285 0.950 . S
H274 C282 0.950 . S
H275 C284 0.950 . S
H276 C286 0.950 . S
H277 C288 0.950 . S
H278 C290 0.950 . S
H279 C291 0.950 . S
C280 H272 0.950 . S
C280 C281 1.386 1_556 S
C280 C282 1.391 . S
C281 C280 1.386 1_554 S
C281 C285 1.393 . S
C282 H274 0.950 . S
C282 C280 1.391 . S
C282 C283 1.400 1_556 S
C283 C282 1.400 1_554 S
C283 C284 1.398 . S
C283 C289 1.491 . S
C284 H275 0.950 . S
C284 C283 1.398 . S
C284 C285 1.391 . S
C285 H273 0.950 . S
C285 C281 1.393 . S
C285 C284 1.391 . S
C286 H276 0.950 . S
C286 C287 1.386 . S
C286 C288 1.391 . S
C287 C286 1.386 . S
C287 C291 1.393 1_554 S
C288 H277 0.950 . S
C288 C286 1.391 . S
C288 C289 1.400 . S
C289 C283 1.491 . S
C289 C288 1.400 . S
C289 C290 1.398 1_554 S
C290 H278 0.950 . S
C290 C289 1.398 1_556 S
C290 C291 1.391 . S
C291 H279 0.950 . S
C291 C287 1.393 1_556 S
C291 C290 1.391 . S
H292 C300 0.950 . S
H293 C305 0.950 . S
H294 C302 0.950 . S
H295 C304 0.950 . S
H296 C306 0.950 . S
H297 C308 0.950 . S
H298 C310 0.950 . S
H299 C311 0.950 . S
C300 H292 0.950 . S
C300 C301 1.386 1_556 S
C300 C302 1.391 . S
C301 C300 1.386 1_554 S
C301 C305 1.393 . S
C302 H294 0.950 . S
C302 C300 1.391 . S
C302 C303 1.400 1_556 S
C303 C302 1.400 1_554 S
C303 C304 1.398 . S
C303 C309 1.491 . S
C304 H295 0.950 . S
C304 C303 1.398 . S
C304 C305 1.391 . S
C305 H293 0.950 . S
C305 C301 1.393 . S
C305 C304 1.391 . S
C306 H296 0.950 . S
C306 C307 1.386 . S
C306 C308 1.391 . S
C307 C306 1.386 . S
C307 C311 1.393 1_554 S
C308 H297 0.950 . S
C308 C306 1.391 . S
C308 C309 1.400 . S
C309 C303 1.491 . S
C309 C308 1.400 . S
C309 C310 1.398 1_554 S
C310 H298 0.950 . S
C310 C309 1.398 1_556 S
C310 C311 1.391 . S
C311 H299 0.950 . S
C311 C307 1.393 1_556 S
C311 C310 1.391 . S
H312 C320 0.950 . S
H313 C325 0.950 . S
H314 C322 0.950 . S
H315 C324 0.950 . S
H316 C326 0.950 . S
H317 C328 0.950 . S
H318 C330 0.950 . S
H319 C331 0.950 . S
C320 H312 0.950 . S
C320 C321 1.386 . S
C320 C322 1.391 . S
C321 C320 1.386 . S
C321 C325 1.393 . S
C322 H314 0.950 . S
C322 C320 1.391 . S
C322 C323 1.400 . S
C323 C322 1.400 . S
C323 C324 1.398 . S
C323 C329 1.491 . S
C324 H315 0.950 . S
C324 C323 1.398 . S
C324 C325 1.391 . S
C325 H313 0.950 . S
C325 C321 1.393 . S
C325 C324 1.391 . S
C326 H316 0.950 . S
C326 C327 1.386 . S
C326 C328 1.391 . S
C327 C326 1.386 . S
C327 C331 1.393 . S
C328 H317 0.950 . S
C328 C326 1.391 . S
C328 C329 1.400 . S
C329 C323 1.491 . S
C329 C328 1.400 . S
C329 C330 1.398 . S
C330 H318 0.950 . S
C330 C329 1.398 . S
C330 C331 1.391 . S
C331 H319 0.950 . S
C331 C327 1.393 . S
C331 C330 1.391 . S
H332 C340 0.950 . S
H333 C345 0.950 . S
H334 C342 0.950 . S
H335 C344 0.950 . S
H336 C346 0.950 . S
H337 C348 0.950 . S
H338 C350 0.950 . S
H339 C351 0.950 . S
C340 H332 0.950 . S
C340 C341 1.386 . S
C340 C342 1.391 . S
C341 C340 1.386 . S
C341 C345 1.393 . S
C342 H334 0.950 . S
C342 C340 1.391 . S
C342 C343 1.400 . S
C343 C342 1.400 . S
C343 C344 1.398 . S
C343 C349 1.491 . S
C344 H335 0.950 . S
C344 C343 1.398 . S
C344 C345 1.391 . S
C345 H333 0.950 . S
C345 C341 1.393 . S
C345 C344 1.391 . S
C346 H336 0.950 . S
C346 C347 1.386 . S
C346 C348 1.391 . S
C347 C346 1.386 . S
C347 C351 1.393 . S
C348 H337 0.950 . S
C348 C346 1.391 . S
C348 C349 1.400 . S
C349 C343 1.491 . S
C349 C348 1.400 . S
C349 C350 1.398 . S
C350 H338 0.950 . S
C350 C349 1.398 . S
C350 C351 1.391 . S
C351 H339 0.950 . S
C351 C347 1.393 . S
C351 C350 1.391 . S
H352 C360 0.950 . S
H353 C365 0.950 . S
H354 C362 0.950 . S
H355 C364 0.950 . S
H356 C366 0.950 . S
H357 C368 0.950 . S
H358 C370 0.950 . S
H359 C371 0.950 . S
C360 H352 0.950 . S
C360 C361 1.386 1_556 S
C360 C362 1.391 . S
C361 C360 1.386 1_554 S
C361 C365 1.393 . S
C362 H354 0.950 . S
C362 C360 1.391 . S
C362 C363 1.400 1_656 S
C363 C362 1.400 1_454 S
C363 C364 1.398 1_455 S
C363 C369 1.491 . S
C364 H355 0.950 . S
C364 C363 1.398 1_655 S
C364 C365 1.391 . S
C365 H353 0.950 . S
C365 C361 1.393 . S
C365 C364 1.391 . S
C366 H356 0.950 . S
C366 C367 1.386 . S
C366 C368 1.391 . S
C367 C366 1.386 . S
C367 C371 1.393 1_554 S
C368 H357 0.950 . S
C368 C366 1.391 . S
C368 C369 1.400 . S
C369 C363 1.491 . S
C369 C368 1.400 . S
C369 C370 1.398 1_554 S
C370 H358 0.950 . S
C370 C369 1.398 1_556 S
C370 C371 1.391 . S
C371 H359 0.950 . S
C371 C367 1.393 1_556 S
C371 C370 1.391 . S
H372 C380 0.950 . S
H373 C385 0.950 . S
H374 C382 0.950 . S
H375 C384 0.955 . S
H376 C386 0.950 . S
H377 C388 0.950 . S
H378 C390 0.950 . S
H379 C391 0.950 . S
C380 H372 0.950 . S
C380 C381 1.386 1_556 S
C380 C382 1.391 . S
C381 C380 1.386 1_554 S
C381 C385 1.393 . S
C382 H374 0.950 . S
C382 C380 1.391 . S
C382 C383 1.400 1_456 S
C383 C382 1.400 1_654 S
C383 C384 1.398 1_655 S
C383 C389 1.491 . S
C384 H375 0.955 . S
C384 C383 1.398 1_455 S
C384 C385 1.391 . S
C385 H373 0.950 . S
C385 C381 1.393 . S
C385 C384 1.391 . S
C386 H376 0.950 . S
C386 C387 1.386 . S
C386 C388 1.391 . S
C387 C386 1.386 . S
C387 C391 1.393 1_554 S
C388 H377 0.950 . S
C388 C386 1.391 . S
C388 C389 1.400 . S
C389 C383 1.491 . S
C389 C388 1.400 . S
C389 C390 1.398 1_554 S
C390 H378 0.950 . S
C390 C389 1.398 1_556 S
C390 C391 1.391 . S
C391 H379 0.950 . S
C391 C387 1.393 1_556 S
C391 C390 1.391 . S
H392 C400 0.950 . S
H393 C405 0.950 . S
H394 C402 0.950 . S
H395 C404 0.950 . S
H396 C406 0.950 . S
H397 C408 0.956 . S
H398 C410 0.950 . S
H399 C411 0.950 . S
C400 H392 0.950 . S
C400 C401 1.386 . S
C400 C402 1.391 . S
C401 C400 1.386 . S
C401 C405 1.393 . S
C402 H394 0.950 . S
C402 C400 1.391 . S
C402 C403 1.400 . S
C403 C402 1.400 . S
C403 C404 1.398 . S
C403 C409 1.491 . S
C404 H395 0.950 . S
C404 C403 1.398 . S
C404 C405 1.391 . S
C405 H393 0.950 . S
C405 C401 1.393 . S
C405 C404 1.391 . S
C406 H396 0.950 . S
C406 C407 1.386 . S
C406 C408 1.391 . S
C407 C406 1.386 . S
C407 C411 1.393 . S
C408 H397 0.956 . S
C408 C406 1.391 . S
C408 C409 1.400 1_655 S
C409 C403 1.491 . S
C409 C408 1.400 1_455 S
C409 C410 1.398 1_455 S
C410 H398 0.950 . S
C410 C409 1.398 1_655 S
C410 C411 1.391 . S
C411 H399 0.950 . S
C411 C407 1.393 . S
C411 C410 1.391 . S
H412 C420 0.950 . S
H413 C425 0.950 . S
H414 C422 0.950 . S
H415 C424 0.950 . S
H416 C426 0.950 . S
H417 C428 0.950 . S
H418 C430 0.950 . S
H419 C431 0.950 . S
C420 H412 0.950 . S
C420 C421 1.386 . S
C420 C422 1.391 . S
C421 C420 1.386 . S
C421 C425 1.393 . S
C422 H414 0.950 . S
C422 C420 1.391 . S
C422 C423 1.400 . S
C423 C422 1.400 . S
C423 C424 1.398 . S
C423 C429 1.491 . S
C424 H415 0.950 . S
C424 C423 1.398 . S
C424 C425 1.391 . S
C425 H413 0.950 . S
C425 C421 1.393 . S
C425 C424 1.391 . S
C426 H416 0.950 . S
C426 C427 1.386 . S
C426 C428 1.391 . S
C427 C426 1.386 . S
C427 C431 1.393 . S
C428 H417 0.950 . S
C428 C426 1.391 . S
C428 C429 1.400 1_455 S
C429 C423 1.491 . S
C429 C428 1.400 1_655 S
C429 C430 1.398 1_655 S
C430 H418 0.950 . S
C430 C429 1.398 1_455 S
C430 C431 1.391 . S
C431 H419 0.950 . S
C431 C427 1.393 . S
C431 C430 1.391 . S
H432 C440 0.950 . S
H433 C445 0.950 . S
H434 C442 0.950 . S
H435 C444 0.950 . S
H436 C446 0.950 . S
H437 C448 0.950 . S
H438 C450 0.950 . S
H439 C451 0.950 . S
C440 H432 0.950 . S
C440 C441 1.386 . S
C440 C442 1.391 . S
C441 C440 1.386 . S
C441 C445 1.393 1_655 S
C442 H434 0.950 . S
C442 C440 1.391 . S
C442 C443 1.400 . S
C443 C442 1.400 . S
C443 C444 1.398 1_655 S
C443 C449 1.491 1_655 S
C444 H435 0.950 . S
C444 C443 1.398 1_455 S
C444 C445 1.391 . S
C445 H433 0.950 . S
C445 C441 1.393 1_455 S
C445 C444 1.391 . S
C446 H436 0.950 . S
C446 C447 1.386 . S
C446 C448 1.391 . S
C447 C446 1.386 . S
C447 C451 1.393 1_455 S
C448 H437 0.950 . S
C448 C446 1.391 . S
C448 C449 1.400 . S
C449 C443 1.491 1_455 S
C449 C448 1.400 . S
C449 C450 1.398 1_455 S
C450 H438 0.950 . S
C450 C449 1.398 1_655 S
C450 C451 1.391 . S
C451 H439 0.950 . S
C451 C447 1.393 1_655 S
C451 C450 1.391 . S
H452 C460 0.950 . S
H453 C465 0.950 . S
H454 C462 0.950 . S
H455 C464 0.950 . S
H456 C466 0.950 . S
H457 C468 0.950 . S
H458 C470 0.950 . S
H459 C471 0.950 . S
C460 H452 0.950 . S
C460 C461 1.386 1_455 S
C460 C462 1.391 . S
C461 C460 1.386 1_655 S
C461 C465 1.393 . S
C462 H454 0.950 . S
C462 C460 1.391 . S
C462 C463 1.400 1_455 S
C463 C462 1.400 1_655 S
C463 C464 1.398 . S
C463 C469 1.491 1_655 S
C464 H455 0.950 . S
C464 C463 1.398 . S
C464 C465 1.391 . S
C465 H453 0.950 . S
C465 C461 1.393 . S
C465 C464 1.391 . S
C466 H456 0.950 . S
C466 C467 1.386 1_655 S
C466 C468 1.391 . S
C467 C466 1.386 1_455 S
C467 C471 1.393 . S
C468 H457 0.950 . S
C468 C466 1.391 . S
C468 C469 1.400 1_655 S
C469 C463 1.491 1_455 S
C469 C468 1.400 1_455 S
C469 C470 1.398 . S
C470 H458 0.950 . S
C470 C469 1.398 . S
C470 C471 1.391 . S
C471 H459 0.950 . S
C471 C467 1.393 . S
C471 C470 1.391 . S
H472 C480 0.950 . S
H473 C485 0.950 . S
H474 C482 0.950 . S
H475 C484 0.950 . S
H476 C486 0.950 . S
H477 C488 0.950 . S
H478 C490 0.950 . S
H479 C491 0.950 . S
C480 H472 0.950 . S
C480 C481 1.386 . S
C480 C482 1.391 . S
C481 C480 1.386 . S
C481 C485 1.393 . S
C482 H474 0.950 . S
C482 C480 1.391 . S
C482 C483 1.400 . S
C483 C482 1.400 . S
C483 C484 1.398 . S
C483 C489 1.491 1_565 S
C484 H475 0.950 . S
C484 C483 1.398 . S
C484 C485 1.391 . S
C485 H473 0.950 . S
C485 C481 1.393 . S
C485 C484 1.391 . S
C486 H476 0.950 . S
C486 C487 1.386 . S
C486 C488 1.391 . S
C487 C486 1.386 . S
C487 C491 1.393 . S
C488 H477 0.950 . S
C488 C486 1.391 . S
C488 C489 1.400 . S
C489 C483 1.491 1_545 S
C489 C488 1.400 . S
C489 C490 1.398 . S
C490 H478 0.950 . S
C490 C489 1.398 . S
C490 C491 1.391 . S
C491 H479 0.950 . S
C491 C487 1.393 . S
C491 C490 1.391 . S
H492 C500 0.950 . S
H493 C505 0.950 . S
H494 C502 0.950 . S
H495 C504 0.950 . S
H496 C506 0.950 . S
H497 C508 0.950 . S
H498 C510 0.950 . S
H499 C511 0.950 . S
C500 H492 0.950 . S
C500 C501 1.386 . S
C500 C502 1.391 . S
C501 C500 1.386 . S
C501 C505 1.393 . S
C502 H494 0.950 . S
C502 C500 1.391 . S
C502 C503 1.400 . S
C503 C502 1.400 . S
C503 C504 1.398 . S
C503 C509 1.491 1_545 S
C504 H495 0.950 . S
C504 C503 1.398 . S
C504 C505 1.391 . S
C505 H493 0.950 . S
C505 C501 1.393 . S
C505 C504 1.391 . S
C506 H496 0.950 . S
C506 C507 1.386 . S
C506 C508 1.391 . S
C507 C506 1.386 . S
C507 C511 1.393 . S
C508 H497 0.950 . S
C508 C506 1.391 . S
C508 C509 1.400 . S
C509 C503 1.491 1_565 S
C509 C508 1.400 . S
C509 C510 1.398 . S
C510 H498 0.950 . S
C510 C509 1.398 . S
C510 C511 1.391 . S
C511 H499 0.950 . S
C511 C507 1.393 . S
C511 C510 1.391 . S
H512 C520 0.950 . S
H513 C525 0.950 . S
H514 C522 0.950 . S
H515 C524 0.950 . S
H516 C526 0.950 . S
H517 C528 0.950 . S
H518 C530 0.950 . S
H519 C531 0.950 . S
C520 H512 0.950 . S
C520 C521 1.386 . S
C520 C522 1.391 . S
C521 C520 1.386 . S
C521 C525 1.393 . S
C522 H514 0.950 . S
C522 C520 1.391 . S
C522 C523 1.400 . S
C523 C522 1.400 . S
C523 C524 1.398 . S
C523 C529 1.491 . S
C524 H515 0.950 . S
C524 C523 1.398 . S
C524 C525 1.391 . S
C525 H513 0.950 . S
C525 C521 1.393 . S
C525 C524 1.391 . S
C526 H516 0.950 . S
C526 C527 1.386 . S
C526 C528 1.391 . S
C527 C526 1.386 . S
C527 C531 1.393 . S
C528 H517 0.950 . S
C528 C526 1.391 . S
C528 C529 1.400 . S
C529 C523 1.491 . S
C529 C528 1.400 . S
C529 C530 1.398 . S
C530 H518 0.950 . S
C530 C529 1.398 . S
C530 C531 1.391 . S
C531 H519 0.950 . S
C531 C527 1.393 . S
C531 C530 1.391 . S
H532 C540 0.950 . S
H533 C545 0.950 . S
H534 C542 0.950 . S
H535 C544 0.950 . S
H536 C546 0.950 . S
H537 C548 0.950 . S
H538 C550 0.950 . S
H539 C551 0.950 . S
C540 H532 0.950 . S
C540 C541 1.386 . S
C540 C542 1.391 . S
C541 C540 1.386 . S
C541 C545 1.393 1_554 S
C542 H534 0.950 . S
C542 C540 1.391 . S
C542 C543 1.400 . S
C543 C542 1.400 . S
C543 C544 1.398 1_554 S
C543 C549 1.491 . S
C544 H535 0.950 . S
C544 C543 1.398 1_556 S
C544 C545 1.391 . S
C545 H533 0.950 . S
C545 C541 1.393 1_556 S
C545 C544 1.391 . S
C546 H536 0.950 . S
C546 C547 1.386 1_556 S
C546 C548 1.391 . S
C547 C546 1.386 1_554 S
C547 C551 1.393 . S
C548 H537 0.950 . S
C548 C546 1.391 . S
C548 C549 1.400 1_556 S
C549 C543 1.491 . S
C549 C548 1.400 1_554 S
C549 C550 1.398 . S
C550 H538 0.950 . S
C550 C549 1.398 . S
C550 C551 1.391 . S
C551 H539 0.950 . S
C551 C547 1.393 . S
C551 C550 1.391 . S
H552 C560 0.950 . S
H553 C565 0.950 . S
H554 C562 0.950 . S
H555 C564 0.950 . S
H556 C566 0.950 . S
H557 C568 0.950 . S
H558 C570 0.950 . S
H559 C571 0.950 . S
C560 H552 0.950 . S
C560 C561 1.386 . S
C560 C562 1.391 . S
C561 C560 1.386 . S
C561 C565 1.393 . S
C562 H554 0.950 . S
C562 C560 1.391 . S
C562 C563 1.400 . S
C563 C562 1.400 . S
C563 C564 1.398 . S
C563 C569 1.491 . S
C564 H555 0.950 . S
C564 C563 1.398 . S
C564 C565 1.391 . S
C565 H553 0.950 . S
C565 C561 1.393 . S
C565 C564 1.391 . S
C566 H556 0.950 . S
C566 C567 1.386 . S
C566 C568 1.391 . S
C567 C566 1.386 . S
C567 C571 1.393 . S
C568 H557 0.950 . S
C568 C566 1.391 . S
C568 C569 1.400 . S
C569 C563 1.491 . S
C569 C568 1.400 . S
C569 C570 1.398 . S
C570 H558 0.950 . S
C570 C569 1.398 . S
C570 C571 1.391 . S
C571 H559 0.950 . S
C571 C567 1.393 . S
C571 C570 1.391 . S
H572 C580 0.950 . S
H573 C585 0.950 . S
H574 C582 0.950 . S
H575 C584 0.950 . S
H576 C586 0.950 . S
H577 C588 0.950 . S
H578 C590 0.950 . S
H579 C591 0.950 . S
C580 H572 0.950 . S
C580 C581 1.386 . S
C580 C582 1.391 . S
C581 C580 1.386 . S
C581 C585 1.393 . S
C582 H574 0.950 . S
C582 C580 1.391 . S
C582 C583 1.400 . S
C583 C582 1.400 . S
C583 C584 1.398 . S
C583 C589 1.491 . S
C584 H575 0.950 . S
C584 C583 1.398 . S
C584 C585 1.391 . S
C585 H573 0.950 . S
C585 C581 1.393 . S
C585 C584 1.391 . S
C586 H576 0.950 . S
C586 C587 1.386 . S
C586 C588 1.391 . S
C587 C586 1.386 . S
C587 C591 1.393 . S
C588 H577 0.950 . S
C588 C586 1.391 . S
C588 C589 1.400 . S
C589 C583 1.491 . S
C589 C588 1.400 . S
C589 C590 1.398 . S
C590 H578 0.950 . S
C590 C589 1.398 . S
C590 C591 1.391 . S
C591 H579 0.950 . S
C591 C587 1.393 . S
C591 C590 1.391 . S
H592 C600 0.950 1_655 S
H593 C605 0.950 . S
H594 C602 0.950 . S
H595 C604 0.950 . S
H596 C606 0.950 1_455 S
H597 C608 0.950 . S
H598 C610 0.950 . S
H599 C611 0.950 . S
C600 H592 0.950 1_455 S
C600 C601 1.386 . S
C600 C602 1.391 1_455 S
C601 C600 1.386 . S
C601 C605 1.393 . S
C602 H594 0.950 . S
C602 C600 1.391 1_655 S
C602 C603 1.400 1_655 S
C603 C602 1.400 1_455 S
C603 C604 1.398 . S
C603 C609 1.491 1_455 S
C604 H595 0.950 . S
C604 C603 1.398 . S
C604 C605 1.391 . S
C605 H593 0.950 . S
C605 C601 1.393 . S
C605 C604 1.391 . S
C606 H596 0.950 1_655 S
C606 C607 1.386 . S
C606 C608 1.391 1_655 S
C607 C606 1.386 . S
C607 C611 1.393 . S
C608 H597 0.950 . S
C608 C606 1.391 1_455 S
C608 C609 1.400 1_455 S
C609 C603 1.491 1_655 S
C609 C608 1.400 1_655 S
C609 C610 1.398 . S
C610 H598 0.950 . S
C610 C609 1.398 . S
C610 C611 1.391 . S
C611 H599 0.950 . S
C611 C607 1.393 . S
C611 C610 1.391 . S
H612 C620 0.950 . S
H613 C625 0.950 . S
H614 C622 0.950 . S
H615 C624 0.950 . S
H616 C626 0.950 . S
H617 C628 0.950 . S
H618 C630 0.950 . S
H619 C631 0.950 . S
C620 H612 0.950 . S
C620 C621 1.386 . S
C620 C622 1.391 . S
C621 C620 1.386 . S
C621 C625 1.393 1_655 S
C622 H614 0.950 . S
C622 C620 1.391 . S
C622 C623 1.400 . S
C623 C622 1.400 . S
C623 C624 1.398 1_655 S
C623 C629 1.491 1_655 S
C624 H615 0.950 . S
C624 C623 1.398 1_455 S
C624 C625 1.391 . S
C625 H613 0.950 . S
C625 C621 1.393 1_455 S
C625 C624 1.391 . S
C626 H616 0.950 . S
C626 C627 1.386 . S
C626 C628 1.391 . S
C627 C626 1.386 . S
C627 C631 1.393 1_455 S
C628 H617 0.950 . S
C628 C626 1.391 . S
C628 C629 1.400 . S
C629 C623 1.491 1_455 S
C629 C628 1.400 . S
C629 C630 1.398 1_455 S
C630 H618 0.950 . S
C630 C629 1.398 1_655 S
C630 C631 1.391 . S
C631 H619 0.950 . S
C631 C627 1.393 1_655 S
C631 C630 1.391 . S
H632 C640 0.950 . S
H633 C645 0.950 . S
H634 C642 0.950 . S
H635 C644 0.950 . S
H636 C646 0.950 . S
H637 C648 0.950 . S
H638 C650 0.950 . S
H639 C651 0.950 . S
C640 H632 0.950 . S
C640 C641 1.386 . S
C640 C642 1.391 1_655 S
C641 C640 1.386 . S
C641 C645 1.393 . S
C642 H634 0.950 . S
C642 C640 1.391 1_455 S
C642 C643 1.400 1_455 S
C643 C642 1.400 1_655 S
C643 C644 1.398 . S
C643 C649 1.491 1_655 S
C644 H635 0.950 . S
C644 C643 1.398 . S
C644 C645 1.391 . S
C645 H633 0.950 . S
C645 C641 1.393 . S
C645 C644 1.391 . S
C646 H636 0.950 . S
C646 C647 1.386 . S
C646 C648 1.391 1_455 S
C647 C646 1.386 . S
C647 C651 1.393 . S
C648 H637 0.950 . S
C648 C646 1.391 1_655 S
C648 C649 1.400 1_655 S
C649 C643 1.491 1_455 S
C649 C648 1.400 1_455 S
C649 C650 1.398 . S
C650 H638 0.950 . S
C650 C649 1.398 . S
C650 C651 1.391 . S
C651 H639 0.950 . S
C651 C647 1.393 . S
C651 C650 1.391 . S
H652 C660 0.950 . S
H653 C665 0.950 . S
H654 C662 0.950 . S
H655 C664 0.950 . S
H656 C666 0.950 . S
H657 C668 0.950 . S
H658 C670 0.950 . S
H659 C671 0.950 . S
C660 H652 0.950 . S
C660 C661 1.386 1_455 S
C660 C662 1.391 . S
C661 C660 1.386 1_655 S
C661 C665 1.393 . S
C662 H654 0.950 . S
C662 C660 1.391 . S
C662 C663 1.400 1_455 S
C663 C662 1.400 1_655 S
C663 C664 1.398 . S
C663 C669 1.491 1_655 S
C664 H655 0.950 . S
C664 C663 1.398 . S
C664 C665 1.391 . S
C665 H653 0.950 . S
C665 C661 1.393 . S
C665 C664 1.391 . S
C666 H656 0.950 . S
C666 C667 1.386 1_655 S
C666 C668 1.391 . S
C667 C666 1.386 1_455 S
C667 C671 1.393 . S
C668 H657 0.950 . S
C668 C666 1.391 . S
C668 C669 1.400 1_655 S
C669 C663 1.491 1_455 S
C669 C668 1.400 1_455 S
C669 C670 1.398 . S
C670 H658 0.950 . S
C670 C669 1.398 . S
C670 C671 1.391 . S
C671 H659 0.950 . S
C671 C667 1.393 . S
C671 C670 1.391 . S
H672 C680 0.950 . S
H673 C685 0.950 . S
H674 C682 0.950 . S
H675 C684 0.950 . S
H676 C686 0.950 . S
H677 C688 0.950 . S
H678 C690 0.950 . S
H679 C691 0.950 . S
C680 H672 0.950 . S
C680 C681 1.386 . S
C680 C682 1.391 . S
C681 C680 1.386 . S
C681 C685 1.393 . S
C682 H674 0.950 . S
C682 C680 1.391 . S
C682 C683 1.400 . S
C683 C682 1.400 . S
C683 C684 1.398 . S
C683 C689 1.491 . S
C684 H675 0.950 . S
C684 C683 1.398 . S
C684 C685 1.391 . S
C685 H673 0.950 . S
C685 C681 1.393 . S
C685 C684 1.391 . S
C686 H676 0.950 . S
C686 C687 1.386 . S
C686 C688 1.391 . S
C687 C686 1.386 . S
C687 C691 1.393 . S
C688 H677 0.950 . S
C688 C686 1.391 . S
C688 C689 1.400 . S
C689 C683 1.491 . S
C689 C688 1.400 . S
C689 C690 1.398 . S
C690 H678 0.950 . S
C690 C689 1.398 . S
C690 C691 1.391 . S
C691 H679 0.950 . S
C691 C687 1.393 . S
C691 C690 1.391 . S
H692 C700 0.950 . S
H693 C705 0.950 . S
H694 C702 0.950 . S
H695 C704 0.950 . S
H696 C706 0.950 . S
H697 C708 0.950 . S
H698 C710 0.950 . S
H699 C711 0.950 . S
C700 H692 0.950 . S
C700 C701 1.386 . S
C700 C702 1.391 . S
C701 C700 1.386 . S
C701 C705 1.393 . S
C702 H694 0.950 . S
C702 C700 1.391 . S
C702 C703 1.400 . S
C703 C702 1.400 . S
C703 C704 1.398 . S
C703 C709 1.491 . S
C704 H695 0.950 . S
C704 C703 1.398 . S
C704 C705 1.391 . S
C705 H693 0.950 . S
C705 C701 1.393 . S
C705 C704 1.391 . S
C706 H696 0.950 . S
C706 C707 1.386 . S
C706 C708 1.391 . S
C707 C706 1.386 . S
C707 C711 1.393 . S
C708 H697 0.950 . S
C708 C706 1.391 . S
C708 C709 1.400 . S
C709 C703 1.491 . S
C709 C708 1.400 . S
C709 C710 1.398 . S
C710 H698 0.950 . S
C710 C709 1.398 . S
C710 C711 1.391 . S
C711 H699 0.950 . S
C711 C707 1.393 . S
C711 C710 1.391 . S
H712 C720 0.950 . S
H713 C725 0.950 . S
H714 C722 0.950 . S
H715 C724 0.950 . S
H716 C726 0.950 . S
H717 C728 0.950 . S
H718 C730 0.950 . S
H719 C731 0.950 . S
C720 H712 0.950 . S
C720 C721 1.386 . S
C720 C722 1.391 . S
C721 C720 1.386 . S
C721 C725 1.393 . S
C722 H714 0.950 . S
C722 C720 1.391 . S
C722 C723 1.400 . S
C723 C722 1.400 . S
C723 C724 1.398 . S
C723 C729 1.491 . S
C724 H715 0.950 . S
C724 C723 1.398 . S
C724 C725 1.391 . S
C725 H713 0.950 . S
C725 C721 1.393 . S
C725 C724 1.391 . S
C726 H716 0.950 . S
C726 C727 1.386 . S
C726 C728 1.391 . S
C727 C726 1.386 . S
C727 C731 1.393 . S
C728 H717 0.950 . S
C728 C726 1.391 . S
C728 C729 1.400 . S
C729 C723 1.491 . S
C729 C728 1.400 . S
C729 C730 1.398 . S
C730 H718 0.950 . S
C730 C729 1.398 . S
C730 C731 1.391 . S
C731 H719 0.950 . S
C731 C727 1.393 . S
C731 C730 1.391 . S
H732 C740 0.950 . S
H733 C745 0.950 . S
H734 C742 0.950 . S
H735 C744 0.950 . S
H736 C746 0.950 . S
H737 C748 0.950 . S
H738 C750 0.950 . S
H739 C751 0.950 . S
C740 H732 0.950 . S
C740 C741 1.386 . S
C740 C742 1.391 . S
C741 C740 1.386 . S
C741 C745 1.393 . S
C742 H734 0.950 . S
C742 C740 1.391 . S
C742 C743 1.400 . S
C743 C742 1.400 . S
C743 C744 1.398 . S
C743 C749 1.491 . S
C744 H735 0.950 . S
C744 C743 1.398 . S
C744 C745 1.391 . S
C745 H733 0.950 . S
C745 C741 1.393 . S
C745 C744 1.391 . S
C746 H736 0.950 . S
C746 C747 1.386 . S
C746 C748 1.391 . S
C747 C746 1.386 . S
C747 C751 1.393 . S
C748 H737 0.950 . S
C748 C746 1.391 . S
C748 C749 1.400 . S
C749 C743 1.491 . S
C749 C748 1.400 . S
C749 C750 1.398 . S
C750 H738 0.950 . S
C750 C749 1.398 . S
C750 C751 1.391 . S
C751 H739 0.950 . S
C751 C747 1.393 . S
C751 C750 1.391 . S
C281 C17 1.185 . S
C287 C8 1.185 . S
C301 C42 1.185 . S
C307 C51 1.185 . S
C321 C76 1.182 . S
C327 C85 1.182 . S
C341 C110 1.185 . S
C347 C119 1.185 . S
C361 C153 1.182 . S
C367 C144 1.182 . S
C381 C187 1.183 . S
C387 C178 1.183 . S
C401 C212 1.181 . S
C407 C221 1.181 . S
C421 C255 1.185 . S
C427 C246 1.185 . S
C441 C34 1.541 . S
C447 C0 1.545 . S
C461 C131 1.539 . S
C467 C68 1.539 . S
C481 C136 1.544 . S
C487 C170 1.546 . S
C501 C204 1.542 . S
C507 C267 1.542 . S
C521 C29 1.638 . S
C527 C199 1.639 . S
C541 C165 1.646 . S
C547 C63 1.644 . S
C561 C97 1.630 . S
C567 C238 1.630 . S
C581 C102 1.639 . S
C587 C233 1.639 . S
C601 C4 1.575 . S
C607 C106 1.573 . S
C621 C38 1.579 . S
C627 C72 1.577 . S
C641 C47 1.558 . S
C647 C81 1.565 . S
C661 C115 1.570 . S
C667 C13 1.567 . S
C681 C140 1.571 . S
C687 C242 1.568 . S
C701 C174 1.581 . S
C707 C208 1.583 . S
C721 C183 1.570 . S
C727 C217 1.573 . S
C741 C251 1.562 . S
C747 C149 1.559 . S
