# Generated by pormake.
# Topology crs, (6)-cn, num edge types: 1
# Building blocks:
#     Node 0, Type 0, BuildingBlock: KUMBOL_clean_sbu_1, # of connection points: 6
#     Node 1, Type 0, BuildingBlock: KUMBOL_clean_sbu_1, # of connection points: 6
#     Node 2, Type 0, BuildingBlock: KUMBOL_clean_sbu_1, # of connection points: 6
#     Node 3, Type 0, BuildingBlock: KUMBOL_clean_sbu_1, # of connection points: 6
#     Node 4, Type 0, BuildingBlock: KUMBOL_clean_sbu_1, # of connection points: 6
#     Node 5, Type 0, BuildingBlock: KUMBOL_clean_sbu_1, # of connection points: 6
#     Node 6, Type 0, BuildingBlock: KUMBOL_clean_sbu_1, # of connection points: 6
#     Node 7, Type 0, BuildingBlock: KUMBOL_clean_sbu_1, # of connection points: 6
#     Node 8, Type 0, BuildingBlock: KUMBOL_clean_sbu_1, # of connection points: 6
#     Node 9, Type 0, BuildingBlock: KUMBOL_clean_sbu_1, # of connection points: 6
#     Node 10, Type 0, BuildingBlock: KUMBOL_clean_sbu_1, # of connection points: 6
#     Node 11, Type 0, BuildingBlock: KUMBOL_clean_sbu_1, # of connection points: 6
#     Node 12, Type 0, BuildingBlock: KUMBOL_clean_sbu_1, # of connection points: 6
#     Node 13, Type 0, BuildingBlock: KUMBOL_clean_sbu_1, # of connection points: 6
#     Node 14, Type 0, BuildingBlock: KUMBOL_clean_sbu_1, # of connection points: 6
#     Node 15, Type 0, BuildingBlock: KUMBOL_clean_sbu_1, # of connection points: 6
#     Edge 16, Type (0, 0), BuildingBlock: UVAHIK_clean_linker_0, # of connection points: 2
#     Edge 17, Type (0, 0), BuildingBlock: UVAHIK_clean_linker_0, # of connection points: 2
#     Edge 18, Type (0, 0), BuildingBlock: UVAHIK_clean_linker_0, # of connection points: 2
#     Edge 19, Type (0, 0), BuildingBlock: UVAHIK_clean_linker_0, # of connection points: 2
#     Edge 20, Type (0, 0), BuildingBlock: UVAHIK_clean_linker_0, # of connection points: 2
#     Edge 21, Type (0, 0), BuildingBlock: UVAHIK_clean_linker_0, # of connection points: 2
#     Edge 22, Type (0, 0), BuildingBlock: UVAHIK_clean_linker_0, # of connection points: 2
#     Edge 23, Type (0, 0), BuildingBlock: UVAHIK_clean_linker_0, # of connection points: 2
#     Edge 24, Type (0, 0), BuildingBlock: UVAHIK_clean_linker_0, # of connection points: 2
#     Edge 25, Type (0, 0), BuildingBlock: UVAHIK_clean_linker_0, # of connection points: 2
#     Edge 26, Type (0, 0), BuildingBlock: UVAHIK_clean_linker_0, # of connection points: 2
#     Edge 27, Type (0, 0), BuildingBlock: UVAHIK_clean_linker_0, # of connection points: 2
#     Edge 28, Type (0, 0), BuildingBlock: UVAHIK_clean_linker_0, # of connection points: 2
#     Edge 29, Type (0, 0), BuildingBlock: UVAHIK_clean_linker_0, # of connection points: 2
#     Edge 30, Type (0, 0), BuildingBlock: UVAHIK_clean_linker_0, # of connection points: 2
#     Edge 31, Type (0, 0), BuildingBlock: UVAHIK_clean_linker_0, # of connection points: 2
#     Edge 32, Type (0, 0), BuildingBlock: UVAHIK_clean_linker_0, # of connection points: 2
#     Edge 33, Type (0, 0), BuildingBlock: UVAHIK_clean_linker_0, # of connection points: 2
#     Edge 34, Type (0, 0), BuildingBlock: UVAHIK_clean_linker_0, # of connection points: 2
#     Edge 35, Type (0, 0), BuildingBlock: UVAHIK_clean_linker_0, # of connection points: 2
#     Edge 36, Type (0, 0), BuildingBlock: UVAHIK_clean_linker_0, # of connection points: 2
#     Edge 37, Type (0, 0), BuildingBlock: UVAHIK_clean_linker_0, # of connection points: 2
#     Edge 38, Type (0, 0), BuildingBlock: UVAHIK_clean_linker_0, # of connection points: 2
#     Edge 39, Type (0, 0), BuildingBlock: UVAHIK_clean_linker_0, # of connection points: 2
#     Edge 40, Type (0, 0), BuildingBlock: UVAHIK_clean_linker_0, # of connection points: 2
#     Edge 41, Type (0, 0), BuildingBlock: UVAHIK_clean_linker_0, # of connection points: 2
#     Edge 42, Type (0, 0), BuildingBlock: UVAHIK_clean_linker_0, # of connection points: 2
#     Edge 43, Type (0, 0), BuildingBlock: UVAHIK_clean_linker_0, # of connection points: 2
#     Edge 44, Type (0, 0), BuildingBlock: UVAHIK_clean_linker_0, # of connection points: 2
#     Edge 45, Type (0, 0), BuildingBlock: UVAHIK_clean_linker_0, # of connection points: 2
#     Edge 46, Type (0, 0), BuildingBlock: UVAHIK_clean_linker_0, # of connection points: 2
#     Edge 47, Type (0, 0), BuildingBlock: UVAHIK_clean_linker_0, # of connection points: 2
#     Edge 48, Type (0, 0), BuildingBlock: UVAHIK_clean_linker_0, # of connection points: 2
#     Edge 49, Type (0, 0), BuildingBlock: UVAHIK_clean_linker_0, # of connection points: 2
#     Edge 50, Type (0, 0), BuildingBlock: UVAHIK_clean_linker_0, # of connection points: 2
#     Edge 51, Type (0, 0), BuildingBlock: UVAHIK_clean_linker_0, # of connection points: 2
#     Edge 52, Type (0, 0), BuildingBlock: UVAHIK_clean_linker_0, # of connection points: 2
#     Edge 53, Type (0, 0), BuildingBlock: UVAHIK_clean_linker_0, # of connection points: 2
#     Edge 54, Type (0, 0), BuildingBlock: UVAHIK_clean_linker_0, # of connection points: 2
#     Edge 55, Type (0, 0), BuildingBlock: UVAHIK_clean_linker_0, # of connection points: 2
#     Edge 56, Type (0, 0), BuildingBlock: UVAHIK_clean_linker_0, # of connection points: 2
#     Edge 57, Type (0, 0), BuildingBlock: UVAHIK_clean_linker_0, # of connection points: 2
#     Edge 58, Type (0, 0), BuildingBlock: UVAHIK_clean_linker_0, # of connection points: 2
#     Edge 59, Type (0, 0), BuildingBlock: UVAHIK_clean_linker_0, # of connection points: 2
#     Edge 60, Type (0, 0), BuildingBlock: UVAHIK_clean_linker_0, # of connection points: 2
#     Edge 61, Type (0, 0), BuildingBlock: UVAHIK_clean_linker_0, # of connection points: 2
#     Edge 62, Type (0, 0), BuildingBlock: UVAHIK_clean_linker_0, # of connection points: 2
#     Edge 63, Type (0, 0), BuildingBlock: UVAHIK_clean_linker_0, # of connection points: 2
# Relax obj value: 0.210
# Max RMSD: 0.279
# Mean RMSD: 0.245
data_MOF--net-crs--node1-KUMBOL_clean_sbu_1--edge1-UVAHIK_clean_linker_0
_symmetry_space_group_name_H-M    P1
_symmetry_Int_Tables_number       1
_symmetry_cell_setting            triclinic
loop_
_symmetry_equiv_pos_as_xyz
'x, y, z'
_cell_length_a     67.334757
_cell_length_b     67.078655
_cell_length_c     53.101749
_cell_angle_alpha  79.790922
_cell_angle_beta   79.546166
_cell_angle_gamma 72.221455
loop_
_atom_site_label
_atom_site_type_symbol
_atom_site_fract_x
_atom_site_fract_y
_atom_site_fract_z
_atom_type_partial_charge
C0 C 0.00844 0.03015 0.91571 0.0
C1 C 0.98637 0.0665 0.91176 0.0
C2 C 0.99744 0.04841 0.92682 0.0
C3 C 0.98639 0.066 0.88544 0.0
C4 C 0.00847 0.02964 0.88925 0.0
C5 C 0.99735 0.04762 0.87424 0.0
N6 N 0.01947 0.01313 0.93055 0.0
C7 C 0.03158 0.99551 0.91987 0.0
C8 C 0.02002 0.01122 0.87852 0.0
C9 C 0.03167 0.99411 0.89389 0.0
Gd10 Gd 0.98886 0.9887 0.03599 0.0
Gd11 Gd 0.01986 0.01867 0.97279 0.0
N12 N 0.99742 0.04843 0.9524 0.0
C13 C 0.97578 0.08466 0.92358 0.0
C14 C 0.98794 0.06633 0.9638 0.0
C15 C 0.97665 0.08458 0.94969 0.0
H16 H 0.98915 0.06647 0.98376 0.0
H17 H 0.96887 0.09866 0.95885 0.0
H18 H 0.02079 0.94169 0.01911 0.0
H19 H 0.04162 0.98266 0.93112 0.0
H20 H 0.04423 0.90981 0.04002 0.0
H21 H 0.96714 0.09888 0.91265 0.0
H22 H 0.97805 0.07978 0.87354 0.0
H23 H 0.97126 0.02263 0.07949 0.0
H24 H 0.02042 0.01021 0.85828 0.0
H25 H 0.04108 0.98 0.88559 0.0
H26 H 0.04048 0.92465 0.12612 0.0
H27 H 0.99732 0.04754 0.85386 0.0
H28 H -0.00178 0.99243 0.14837 0.0
H29 H 0.97529 0.02346 0.12461 0.0
N30 N 0.9933 0.99244 0.07712 0.0
C31 C 0.0055 0.97492 0.08994 0.0
C32 C 0.98211 0.0095 0.08932 0.0
C33 C 0.99695 0.99224 0.12837 0.0
C34 C 0.98405 0.00983 0.115 0.0
C35 C 0.00772 0.97443 0.11595 0.0
H36 H 0.0221 0.95544 0.1489 0.0
N37 N 0.01339 0.95818 0.05182 0.0
C38 C 0.01577 0.95736 0.077 0.0
C39 C 0.03905 0.92194 0.07632 0.0
C40 C 0.02865 0.93913 0.08991 0.0
C41 C 0.02326 0.94138 0.03862 0.0
C42 C 0.03639 0.92311 0.05057 0.0
O43 O 0.98426 0.02582 0.97473 0.0
O44 O 0.97507 0.99678 0.99901 0.0
O45 O 0.97369 0.96461 0.05383 0.0
O46 O 0.95681 0.99767 0.0555 0.0
O47 O 0.01149 0.03197 0.01025 0.0
O48 O 0.9805 0.02433 0.02918 0.0
O49 O 0.01934 0.99417 0.03997 0.0
O50 O 0.03825 0.99195 0.99939 0.0
O51 O 0.03522 0.04201 0.97599 0.0
O52 O 0.048 0.02128 0.94639 0.0
O53 O 0.9972 0.97366 0.99923 0.0
O54 O 0.02652 0.98318 0.97637 0.0
C55 C 0.97131 0.01393 0.98221 0.0
C56 C 0.99433 0.03495 0.02706 0.0
C57 C 0.93672 0.97441 0.05425 0.0
C58 C 0.91924 0.95254 0.03955 0.0
C59 C 0.89874 0.98562 0.05521 0.0
C60 C 0.91706 0.98906 0.05989 0.0
C61 C 0.8998 0.96746 0.0451 0.0
C62 C 0.93773 0.95599 0.04409 0.0
C63 C 0.95572 0.97822 0.06018 0.0
C64 C 0.03078 0.9386 0.11587 0.0
C65 C 0.02034 0.95616 0.12885 0.0
H66 H 0.0491 0.90767 0.08556 0.0
C67 C 0.03716 0.9919 0.02439 0.0
C68 C 0.01244 0.97267 0.97959 0.0
C69 C 0.07087 0.03889 0.95724 0.0
C70 C 0.0921 0.0597 0.96651 0.0
C71 C 0.10836 0.03036 0.94168 0.0
C72 C 0.08893 0.0263 0.94372 0.0
C73 C 0.10994 0.04707 0.95285 0.0
C74 C 0.07266 0.0555 0.96879 0.0
C75 C 0.04975 0.03687 0.95654 0.0
H76 H 0.88366 0.99697 0.05962 0.0
H77 H 0.91585 0.00314 0.06807 0.0
H78 H 0.88539 0.96492 0.04181 0.0
H79 H 0.95267 0.94429 0.03997 0.0
H80 H 0.12216 0.02075 0.93102 0.0
H81 H 0.08798 0.01366 0.93422 0.0
H82 H 0.12505 0.05022 0.95076 0.0
H83 H 0.05883 0.06564 0.97883 0.0
C84 C 0.06276 0.27128 0.26016 0.0
C85 C 0.06003 0.30485 0.23289 0.0
C86 C 0.05048 0.28973 0.24768 0.0
C87 C 0.08192 0.30115 0.23071 0.0
C88 C 0.08476 0.26749 0.25791 0.0
C89 C 0.09424 0.28253 0.24317 0.0
N90 N 0.05326 0.25679 0.27395 0.0
C91 C 0.0647 0.23842 0.28633 0.0
C92 C 0.09662 0.24859 0.27039 0.0
C93 C 0.08653 0.23401 0.28469 0.0
Gd94 Gd 0.98923 0.24636 0.22869 0.0
Gd95 Gd 0.01663 0.26556 0.27574 0.0
N96 N 0.02931 0.29269 0.24965 0.0
C97 C 0.04729 0.32333 0.22077 0.0
C98 C 0.01679 0.3112 0.23889 0.0
C99 C 0.02557 0.32659 0.22401 0.0
H100 H -0.0 0.31465 0.24211 0.0
H101 H 0.01552 0.34111 0.21532 0.0
H102 H 0.00581 0.19644 0.26004 0.0
H103 H 0.05694 0.22734 0.29793 0.0
H104 H 0.99047 0.16822 0.28177 0.0
H105 H 0.05402 0.33532 0.20927 0.0
H106 H 0.08948 0.31261 0.21941 0.0
H107 H 0.94892 0.28584 0.20813 0.0
H108 H 0.11356 0.24511 0.26912 0.0
H109 H 0.09554 0.21942 0.29455 0.0
H110 H 0.91679 0.19685 0.27594 0.0
H111 H 0.11112 0.27989 0.24124 0.0
H112 H 0.8925 0.2671 0.23312 0.0
H113 H 0.91044 0.29376 0.21068 0.0
N114 N 0.95254 0.25588 0.23094 0.0
C115 C 0.94312 0.24073 0.24275 0.0
C116 C 0.94117 0.27453 0.21905 0.0
C117 C 0.90936 0.26375 0.23261 0.0
C118 C 0.9194 0.27888 0.22002 0.0
C119 C 0.92122 0.24432 0.24393 0.0
H120 H 0.89508 0.23091 0.25713 0.0
N121 N 0.97651 0.21861 0.25278 0.0
C122 C 0.95543 0.22153 0.25369 0.0
C123 C 0.95881 0.18616 0.27596 0.0
C124 C 0.94603 0.20543 0.26558 0.0
C125 C 0.98905 0.19957 0.26227 0.0
C126 C 0.9804 0.18322 0.27422 0.0
O127 O 0.0358 0.25769 0.23744 0.0
O128 O 0.01142 0.26586 0.20942 0.0
O129 O 0.99584 0.22108 0.20586 0.0
O130 O 0.98115 0.25311 0.18955 0.0
O131 O 0.98415 0.28668 0.26659 0.0
O132 O 0.9819 0.28186 0.22548 0.0
O133 O 0.97059 0.2525 0.268 0.0
O134 O 0.99617 0.24451 0.29443 0.0
O135 O 0.00453 0.29081 0.2998 0.0
O136 O 0.02632 0.26084 0.3138 0.0
O137 O 0.02146 0.22478 0.23796 0.0
O138 O 0.02411 0.22981 0.27902 0.0
C139 C 0.03071 0.26266 0.21403 0.0
C140 C 0.97515 0.29265 0.24527 0.0
C141 C 0.00185 0.22851 0.16094 0.0
C142 C 0.01657 0.20199 0.13181 0.0
C143 C 0.01862 0.23786 0.11789 0.0
C144 C 0.00786 0.24372 0.14183 0.0
C145 C 0.0229 0.21705 0.11277 0.0
C146 C 0.0067 0.20773 0.15595 0.0
C147 C 0.98902 0.23349 0.1856 0.0
C148 C 0.92424 0.20901 0.26678 0.0
C149 C 0.91187 0.22841 0.25608 0.0
H150 H 0.95219 0.17342 0.2852 0.0
C151 C 0.9766 0.24772 0.29101 0.0
C152 C 0.03049 0.21875 0.25932 0.0
C153 C 0.01423 0.28791 0.34243 0.0
C154 C 0.00112 0.31631 0.3692 0.0
C155 C 0.02332 0.28228 0.38581 0.0
C156 C 0.02466 0.27475 0.36255 0.0
C157 C 0.01157 0.3029 0.38919 0.0
C158 C 0.00265 0.30882 0.34573 0.0
C159 C 0.01514 0.27974 0.31827 0.0
H160 H 0.02305 0.24961 0.10302 0.0
H161 H 0.00403 0.26001 0.1452 0.0
H162 H 0.03022 0.21299 0.09374 0.0
H163 H 0.00169 0.19606 0.17059 0.0
H164 H 0.03142 0.27212 0.40125 0.0
H165 H 0.03377 0.25863 0.36038 0.0
H166 H 0.01097 0.30852 0.40731 0.0
H167 H 0.99467 0.31919 0.33027 0.0
C168 C 0.7666 0.24892 0.58693 0.0
C169 C 0.80246 0.22624 0.58754 0.0
C170 C 0.78627 0.23962 0.57367 0.0
C171 C 0.79878 0.22254 0.6146 0.0
C172 C 0.76277 0.24475 0.61409 0.0
C173 C 0.779 0.23171 0.62782 0.0
N174 N 0.75103 0.26138 0.57325 0.0
C175 C 0.73148 0.27039 0.5854 0.0
C176 C 0.74263 0.25367 0.62667 0.0
C177 C 0.72692 0.26649 0.61225 0.0
Gd178 Gd 0.74544 0.24381 0.47563 0.0
Gd179 Gd 0.76144 0.26902 0.52916 0.0
N180 N 0.78935 0.24314 0.54733 0.0
C181 C 0.82192 0.21689 0.57382 0.0
C182 C 0.80854 0.23438 0.53402 0.0
C183 C 0.82494 0.22099 0.54697 0.0
H184 H 0.81181 0.23799 0.51356 0.0
H185 H 0.84007 0.21412 0.53621 0.0
H186 H 0.69379 0.27065 0.49426 0.0
H187 H 0.71957 0.2811 0.5745 0.0
H188 H 0.66508 0.29666 0.47451 0.0
H189 H 0.83474 0.20659 0.58378 0.0
H190 H 0.81109 0.21242 0.6255 0.0
H191 H 0.78466 0.23227 0.42768 0.0
H192 H 0.73907 0.25079 0.64749 0.0
H193 H 0.71137 0.27362 0.62184 0.0
H194 H 0.69231 0.30628 0.38503 0.0
H195 H 0.77637 0.22849 0.6487 0.0
H196 H 0.76289 0.26697 0.35748 0.0
H197 H 0.79106 0.24148 0.38038 0.0
N198 N 0.75396 0.25346 0.43162 0.0
C199 C 0.73804 0.26717 0.41948 0.0
C200 C 0.77268 0.24407 0.41798 0.0
C201 C 0.7602 0.26332 0.37831 0.0
C202 C 0.77618 0.249 0.39116 0.0
C203 C 0.74083 0.27255 0.3924 0.0
H204 H 0.7261 0.29095 0.35942 0.0
N205 N 0.71625 0.26995 0.46025 0.0
C206 C 0.71884 0.27585 0.43415 0.0
C207 C 0.68285 0.29802 0.4366 0.0
C208 C 0.70216 0.29005 0.42173 0.0
C209 C 0.69697 0.2768 0.47445 0.0
C210 C 0.68023 0.29123 0.46302 0.0
O211 O 0.75676 0.2365 0.54305 0.0
O212 O 0.76063 0.21967 0.50714 0.0
O213 O 0.72344 0.23038 0.46493 0.0
O214 O 0.75661 0.21404 0.45939 0.0
O215 O 0.78414 0.26517 0.49205 0.0
O216 O 0.7805 0.23704 0.47532 0.0
O217 O 0.75299 0.27501 0.4623 0.0
O218 O 0.74317 0.29173 0.49869 0.0
O219 O 0.78496 0.28339 0.53337 0.0
O220 O 0.75238 0.29771 0.54752 0.0
O221 O 0.72363 0.24657 0.51372 0.0
O222 O 0.72673 0.27613 0.52728 0.0
C223 C 0.75962 0.21945 0.53217 0.0
C224 C 0.79093 0.25051 0.47645 0.0
C225 C 0.73269 0.19328 0.47145 0.0
C226 C 0.70677 0.17526 0.49377 0.0
C227 C 0.74285 0.15507 0.48109 0.0
C228 C 0.74798 0.17369 0.47014 0.0
C229 C 0.72235 0.15578 0.49278 0.0
C230 C 0.71221 0.19388 0.48357 0.0
C231 C 0.73761 0.21305 0.45941 0.0
C232 C 0.70501 0.29549 0.39481 0.0
C233 C 0.72425 0.28673 0.3802 0.0
H234 H 0.66969 0.30892 0.42776 0.0
C235 C 0.74757 0.29226 0.47345 0.0
C236 C 0.7171 0.26152 0.52892 0.0
C237 C 0.77463 0.32029 0.53357 0.0
C238 C 0.79809 0.34138 0.51168 0.0
C239 C 0.76402 0.35812 0.53479 0.0
C240 C 0.75993 0.33855 0.54192 0.0
C241 C 0.783 0.35956 0.51991 0.0
C242 C 0.79351 0.32192 0.51809 0.0
C243 C 0.77149 0.29937 0.54344 0.0
H244 H 0.75466 0.13999 0.47994 0.0
H245 H 0.76382 0.17278 0.46059 0.0
H246 H 0.7185 0.14108 0.49998 0.0
H247 H 0.70017 0.20886 0.48448 0.0
H248 H 0.75275 0.37211 0.54157 0.0
H249 H 0.74551 0.33764 0.5544 0.0
H250 H 0.78624 0.37474 0.5159 0.0
H251 H 0.80513 0.30789 0.51184 0.0
C252 C 0.73591 0.94439 0.74957 0.0
C253 C 0.7017 0.94926 0.7756 0.0
C254 C 0.71707 0.95784 0.75962 0.0
C255 C 0.70562 0.92725 0.78142 0.0
C256 C 0.73962 0.9223 0.75467 0.0
C257 C 0.72446 0.91381 0.77084 0.0
N258 N 0.75067 0.95293 0.73472 0.0
C259 C 0.76861 0.94058 0.72265 0.0
C260 C 0.75841 0.9094 0.74315 0.0
C261 C 0.77286 0.91861 0.7268 0.0
Gd262 Gd 0.76226 0.01694 0.77636 0.0
Gd263 Gd 0.74275 0.98961 0.72832 0.0
N264 N 0.71365 0.97918 0.75341 0.0
C265 C 0.68267 0.96302 0.78497 0.0
C266 C 0.6944 0.99247 0.76105 0.0
C267 C 0.67891 0.98467 0.77736 0.0
H268 H 0.69033 0.00907 0.75437 0.0
H269 H 0.6639 0.99539 0.78373 0.0
H270 H 0.81456 1.00038 0.75683 0.0
H271 H 0.77948 0.94774 0.70954 0.0
H272 H 0.84302 0.01561 0.73493 0.0
H273 H 0.67055 0.95706 0.79743 0.0
H274 H 0.694 0.92045 0.79374 0.0
H275 H 0.72354 0.05776 0.79871 0.0
H276 H 0.76176 0.89236 0.74641 0.0
H277 H 0.78721 0.90882 0.71733 0.0
H278 H 0.81093 0.09041 0.728 0.0
H279 H 0.72708 0.89687 0.77514 0.0
H280 H 0.73989 0.1149 0.76842 0.0
H281 H 0.71444 0.09655 0.79367 0.0
N282 N 0.75271 0.05409 0.7742 0.0
C283 C 0.76746 0.06376 0.76182 0.0
C284 C 0.73419 0.06558 0.78637 0.0
C285 C 0.74368 0.09786 0.76995 0.0
C286 C 0.72924 0.08758 0.78411 0.0
C287 C 0.76324 0.08594 0.75903 0.0
H288 H 0.77586 0.11245 0.74374 0.0
N289 N 0.79113 0.03005 0.75768 0.0
C290 C 0.78732 0.05138 0.75343 0.0
C291 C 0.82344 0.04772 0.73419 0.0
C292 C 0.80333 0.0608 0.74141 0.0
C293 C 0.81105 0.01725 0.75202 0.0
C294 C 0.82737 0.02586 0.73982 0.0
O295 O 0.75386 0.97125 0.76495 0.0
O296 O 0.73942 0.99726 0.78985 0.0
O297 O 0.78026 0.99707 0.80629 0.0
O298 O 0.75869 0.02753 0.81348 0.0
O299 O 0.71961 0.02136 0.73803 0.0
O300 O 0.72663 0.02793 0.77664 0.0
O301 O 0.77113 0.02441 0.73288 0.0
O302 O 0.74235 0.02353 0.71647 0.0
O303 O 0.72512 0.98281 0.70259 0.0
O304 O 0.7554 0.98832 0.68766 0.0
O305 O 0.78499 0.98582 0.76552 0.0
O306 O 0.77874 0.98238 0.72513 0.0
C307 C 0.74601 0.9771 0.78761 0.0
C308 C 0.71455 0.03202 0.75826 0.0
C309 C 0.7851 0.0131 0.84075 0.0
C310 C 0.81662 1.00101 0.86166 0.0
C311 C 0.78637 0.02778 0.87891 0.0
C312 C 0.77551 0.0269 0.85938 0.0
C313 C 0.80678 0.01481 0.88017 0.0
C314 C 0.80588 1.00025 0.84178 0.0
C315 C 0.7721 0.01062 0.82278 0.0
C316 C 0.79888 0.08289 0.7374 0.0
C317 C 0.7789 0.09544 0.74628 0.0
H318 H 0.83614 0.05434 0.72482 0.0
C319 C 0.75772 0.03179 0.71598 0.0
C320 C 0.79092 0.97733 0.7437 0.0
C321 C 0.72883 1.00007 0.66001 0.0
C322 C 0.69774 0.01726 0.63833 0.0
C323 C 0.73267 0.01682 0.6157 0.0
C324 C 0.74169 0.00523 0.63742 0.0
C325 C 0.71086 0.02262 0.61598 0.0
C326 C 0.70687 0.00686 0.66056 0.0
C327 C 0.73821 0.98602 0.68209 0.0
H328 H 0.77889 0.03838 0.89323 0.0
H329 H 0.7594 0.03668 0.8592 0.0
H330 H 0.81507 0.01575 0.89543 0.0
H331 H 0.81351 0.98947 0.82766 0.0
H332 H 0.74268 0.02056 0.59823 0.0
H333 H 0.75868 0.99998 0.6364 0.0
H334 H 0.70445 0.03028 0.59831 0.0
H335 H 0.69679 0.00306 0.67796 0.0
C336 C 0.56216 0.77414 0.26123 0.0
C337 C 0.55781 0.80914 0.23716 0.0
C338 C 0.54915 0.79281 0.25024 0.0
C339 C 0.57958 0.80627 0.23485 0.0
C340 C 0.58403 0.77128 0.2591 0.0
C341 C 0.59265 0.78739 0.24577 0.0
N342 N 0.55346 0.75872 0.2739 0.0
C343 C 0.5656 0.74033 0.2854 0.0
C344 C 0.5966 0.7523 0.27052 0.0
C345 C 0.58732 0.7368 0.28382 0.0
Gd346 Gd 0.48944 0.74682 0.22893 0.0
Gd347 Gd 0.51681 0.7663 0.27648 0.0
N348 N 0.52811 0.79499 0.25231 0.0
C349 C 0.54432 0.82795 0.22684 0.0
C350 C 0.51486 0.81374 0.24326 0.0
C351 C 0.52275 0.8303 0.23009 0.0
H352 H 0.49813 0.81651 0.24672 0.0
H353 H 0.51211 0.84501 0.22275 0.0
H354 H 0.50726 0.69629 0.25793 0.0
H355 H 0.55844 0.72865 0.29652 0.0
H356 H 0.49264 0.66788 0.28089 0.0
H357 H 0.55035 0.84084 0.21666 0.0
H358 H 0.58647 0.8186 0.22474 0.0
H359 H 0.44816 0.78605 0.21048 0.0
H360 H 0.61344 0.74955 0.26938 0.0
H361 H 0.59684 0.72221 0.29308 0.0
H362 H 0.41829 0.69619 0.27969 0.0
H363 H 0.60941 0.78545 0.2439 0.0
H364 H 0.39236 0.76659 0.23797 0.0
H365 H 0.40956 0.79367 0.21497 0.0
N366 N 0.45268 0.75553 0.23203 0.0
C367 C 0.44362 0.74024 0.24427 0.0
C368 C 0.44077 0.77442 0.22132 0.0
C369 C 0.40929 0.76329 0.23638 0.0
C370 C 0.41893 0.77864 0.22348 0.0
C371 C 0.42163 0.74376 0.24685 0.0
H372 H 0.39578 0.73023 0.26194 0.0
N373 N 0.47752 0.71836 0.25249 0.0
C374 C 0.45638 0.72108 0.25459 0.0
C375 C 0.46057 0.68569 0.27705 0.0
C376 C 0.44735 0.70491 0.26726 0.0
C377 C 0.49049 0.69931 0.2612 0.0
C378 C 0.48223 0.68286 0.27386 0.0
O379 O 0.53552 0.76017 0.23727 0.0
O380 O 0.50983 0.76825 0.21107 0.0
O381 O 0.5028 0.7234 0.20254 0.0
O382 O 0.47808 0.75216 0.19175 0.0
O383 O 0.48404 0.78691 0.26751 0.0
O384 O 0.48226 0.78239 0.22609 0.0
O385 O 0.47121 0.75214 0.26855 0.0
O386 O 0.49701 0.7444 0.29454 0.0
O387 O 0.50376 0.79006 0.30256 0.0
O388 O 0.5274 0.76067 0.31412 0.0
O389 O 0.52175 0.72551 0.23839 0.0
O390 O 0.52525 0.73055 0.27914 0.0
C391 C 0.52952 0.76464 0.21429 0.0
C392 C 0.47516 0.79299 0.24607 0.0
C393 C 0.4915 0.72704 0.16067 0.0
C394 C 0.50698 0.70067 0.13126 0.0
C395 C 0.47677 0.73029 0.12121 0.0
C396 C 0.47646 0.73787 0.14414 0.0
C397 C 0.49188 0.71179 0.11479 0.0
C398 C 0.50685 0.7086 0.154 0.0
C399 C 0.49067 0.7343 0.18541 0.0
C400 C 0.42546 0.7084 0.26987 0.0
C401 C 0.41264 0.72778 0.25975 0.0
H402 H 0.45425 0.6729 0.2869 0.0
C403 C 0.4774 0.74744 0.29142 0.0
C404 C 0.53112 0.71947 0.25948 0.0
C405 C 0.51435 0.78591 0.345 0.0
C406 C 0.499 0.81203 0.37473 0.0
C407 C 0.52805 0.78136 0.38548 0.0
C408 C 0.52865 0.77428 0.36214 0.0
C409 C 0.51336 0.80012 0.39178 0.0
C410 C 0.49948 0.8047 0.35145 0.0
C411 C 0.51525 0.77879 0.32015 0.0
H412 H 0.46496 0.73848 0.1087 0.0
H413 H 0.46428 0.75198 0.1491 0.0
H414 H 0.49112 0.70568 0.09753 0.0
H415 H 0.51833 0.70001 0.16685 0.0
H416 H 0.53928 0.77252 0.3985 0.0
H417 H 0.54043 0.75986 0.35741 0.0
H418 H 0.51385 0.80576 0.40949 0.0
H419 H 0.48857 0.81391 0.33816 0.0
C420 C 0.26533 0.74742 0.58596 0.0
C421 C 0.30058 0.72338 0.58647 0.0
C422 C 0.28477 0.7376 0.57267 0.0
C423 C 0.29668 0.71921 0.61348 0.0
C424 C 0.26133 0.74301 0.61308 0.0
C425 C 0.27712 0.72897 0.62673 0.0
N426 N 0.25027 0.76107 0.57238 0.0
C427 C 0.23108 0.77101 0.5846 0.0
C428 C 0.24154 0.75292 0.62572 0.0
C429 C 0.22635 0.76693 0.6114 0.0
Gd430 Gd 0.24516 0.74402 0.47477 0.0
Gd431 Gd 0.26096 0.76907 0.5284 0.0
N432 N 0.28822 0.74198 0.54641 0.0
C433 C 0.32001 0.71394 0.57277 0.0
C434 C 0.30749 0.73333 0.53321 0.0
C435 C 0.32348 0.71899 0.54606 0.0
H436 H 0.31123 0.73784 0.513 0.0
H437 H 0.33866 0.71221 0.53537 0.0
H438 H 0.19367 0.77164 0.4921 0.0
H439 H 0.21966 0.78261 0.57379 0.0
H440 H 0.16571 0.79844 0.47187 0.0
H441 H 0.33256 0.70301 0.58268 0.0
H442 H 0.30872 0.70847 0.62433 0.0
H443 H 0.28497 0.73201 0.42757 0.0
H444 H 0.2379 0.74997 0.64653 0.0
H445 H 0.21111 0.77488 0.62105 0.0
H446 H 0.19478 0.80858 0.3831 0.0
H447 H 0.27438 0.72556 0.64758 0.0
H448 H 0.26532 0.76825 0.35708 0.0
H449 H 0.29253 0.74176 0.38052 0.0
N450 N 0.25465 0.75395 0.43097 0.0
C451 C 0.23925 0.76824 0.41849 0.0
C452 C 0.27345 0.74428 0.4177 0.0
C453 C 0.26216 0.76441 0.37783 0.0
C454 C 0.27759 0.74951 0.39099 0.0
C455 C 0.24268 0.7739 0.39151 0.0
H456 H 0.22886 0.79294 0.35823 0.0
N457 N 0.21678 0.77096 0.45874 0.0
C458 C 0.21992 0.7771 0.43272 0.0
C459 C 0.18422 0.79991 0.43443 0.0
C460 C 0.20369 0.79176 0.41998 0.0
C461 C 0.19732 0.77799 0.47247 0.0
C462 C 0.181 0.79287 0.46073 0.0
O463 O 0.2546 0.73739 0.54164 0.0
O464 O 0.26224 0.72035 0.50543 0.0
O465 O 0.22225 0.73082 0.46586 0.0
O466 O 0.25528 0.71504 0.4569 0.0
O467 O 0.28376 0.76511 0.49128 0.0
O468 O 0.28021 0.73665 0.4752 0.0
O469 O 0.25299 0.775 0.46186 0.0
O470 O 0.24257 0.79191 0.4981 0.0
O471 O 0.28502 0.78247 0.53338 0.0
O472 O 0.25254 0.79761 0.54692 0.0
O473 O 0.22292 0.74731 0.51261 0.0
O474 O 0.22613 0.77671 0.52662 0.0
C475 C 0.25932 0.72015 0.53065 0.0
C476 C 0.2906 0.75028 0.47586 0.0
C477 C 0.23182 0.6938 0.46798 0.0
C478 C 0.20763 0.67403 0.49083 0.0
C479 C 0.24198 0.65561 0.47019 0.0
C480 C 0.24653 0.67485 0.46161 0.0
C481 C 0.22264 0.65516 0.48481 0.0
C482 C 0.21233 0.69323 0.48259 0.0
C483 C 0.23614 0.71415 0.4579 0.0
C484 C 0.20714 0.79746 0.39314 0.0
C485 C 0.22655 0.78853 0.37896 0.0
H486 H 0.17138 0.81116 0.42533 0.0
C487 C 0.24707 0.79228 0.47289 0.0
C488 C 0.21616 0.76244 0.52763 0.0
C489 C 0.27581 0.81922 0.53419 0.0
C490 C 0.29995 0.83969 0.51323 0.0
C491 C 0.26532 0.85723 0.53409 0.0
C492 C 0.2609 0.83783 0.54133 0.0
C493 C 0.28471 0.85821 0.52003 0.0
C494 C 0.29541 0.82029 0.52022 0.0
C495 C 0.27188 0.79857 0.54352 0.0
H496 H 0.25327 0.64106 0.46501 0.0
H497 H 0.26141 0.67495 0.44976 0.0
H498 H 0.21903 0.64018 0.49048 0.0
H499 H 0.20047 0.70771 0.48704 0.0
H500 H 0.25388 0.87149 0.53989 0.0
H501 H 0.24599 0.83733 0.55286 0.0
H502 H 0.28815 0.87331 0.51538 0.0
H503 H 0.30744 0.80605 0.51535 0.0
C504 C 0.24093 0.44792 0.74254 0.0
C505 C 0.20479 0.45026 0.76143 0.0
C506 C 0.22077 0.46 0.75042 0.0
C507 C 0.20954 0.42814 0.76491 0.0
C508 C 0.24554 0.42572 0.74508 0.0
C509 C 0.22986 0.4159 0.75671 0.0
N510 N 0.25571 0.4579 0.73117 0.0
C511 C 0.27479 0.44667 0.71991 0.0
C512 C 0.26559 0.41408 0.73512 0.0
C513 C 0.28016 0.42465 0.72212 0.0
Gd514 Gd 0.2647 0.52255 0.77712 0.0
Gd515 Gd 0.24518 0.49504 0.72888 0.0
N516 N 0.21669 0.48135 0.74694 0.0
C517 C 0.18447 0.46305 0.76841 0.0
C518 C 0.19668 0.49391 0.75261 0.0
C519 C 0.18037 0.48497 0.76374 0.0
H520 H 0.19315 0.51085 0.7486 0.0
H521 H 0.16461 0.49501 0.76859 0.0
H522 H 0.31616 0.50331 0.74934 0.0
H523 H 0.28571 0.45465 0.70845 0.0
H524 H 0.34284 0.51736 0.7208 0.0
H525 H 0.17179 0.45617 0.77699 0.0
H526 H 0.19751 0.42038 0.77351 0.0
H527 H 0.22619 0.56432 0.79372 0.0
H528 H 0.26973 0.39703 0.73659 0.0
H529 H 0.29542 0.41586 0.7134 0.0
H530 H 0.31268 0.59235 0.71247 0.0
H531 H 0.23318 0.39887 0.75899 0.0
H532 H 0.24391 0.6199 0.75776 0.0
H533 H 0.21806 0.60324 0.78555 0.0
N534 N 0.25574 0.55927 0.76988 0.0
C535 C 0.27064 0.56796 0.75561 0.0
C536 C 0.23731 0.57152 0.78114 0.0
C537 C 0.24748 0.60284 0.76119 0.0
C538 C 0.23279 0.59351 0.77679 0.0
C539 C 0.2667 0.59007 0.75045 0.0
H540 H 0.27918 0.61567 0.73048 0.0
N541 N 0.29318 0.53324 0.75136 0.0
C542 C 0.2897 0.55463 0.74569 0.0
C543 C 0.32415 0.54974 0.72056 0.0
C544 C 0.30507 0.56337 0.73004 0.0
C545 C 0.31231 0.52 0.7433 0.0
C546 C 0.32785 0.528 0.72743 0.0
O547 O 0.23629 0.48699 0.77233 0.0
O548 O 0.26418 0.48899 0.79004 0.0
O549 O 0.28414 0.52844 0.80134 0.0
O550 O 0.2528 0.5263 0.81753 0.0
O551 O 0.22274 0.52613 0.74022 0.0
O552 O 0.2289 0.5285 0.78105 0.0
O553 O 0.2538 0.54069 0.74012 0.0
O554 O 0.26769 0.51493 0.7147 0.0
O555 O 0.22609 0.51422 0.69948 0.0
O556 O 0.24913 0.48468 0.69158 0.0
O557 O 0.28707 0.49026 0.76837 0.0
O558 O 0.28082 0.48554 0.72858 0.0
C559 C 0.24906 0.48047 0.79006 0.0
C560 C 0.21691 0.53426 0.76227 0.0
C561 C 0.27902 0.51556 0.84569 0.0
C562 C 0.30922 0.49698 0.8686 0.0
C563 C 0.2738 0.50651 0.8922 0.0
C564 C 0.26565 0.51588 0.86924 0.0
C565 C 0.29542 0.49731 0.89199 0.0
C566 C 0.30073 0.50557 0.84543 0.0
C567 C 0.27062 0.52785 0.82213 0.0
C568 C 0.30104 0.58541 0.72451 0.0
C569 C 0.28197 0.59871 0.73477 0.0
H570 H 0.33631 0.55584 0.70838 0.0
C571 C 0.26125 0.53503 0.71726 0.0
C572 C 0.29205 0.47988 0.74795 0.0
C573 C 0.22193 0.49749 0.66511 0.0
C574 C 0.19097 0.50888 0.64297 0.0
C575 C 0.22109 0.48073 0.62843 0.0
C576 C 0.23159 0.48253 0.64784 0.0
C577 C 0.20094 0.4939 0.62589 0.0
C578 C 0.20138 0.51061 0.66274 0.0
C579 C 0.23475 0.50095 0.68274 0.0
H580 H 0.26344 0.50712 0.91037 0.0
H581 H 0.24897 0.52384 0.86996 0.0
H582 H 0.30134 0.49147 0.91033 0.0
H583 H 0.3112 0.50535 0.82733 0.0
H584 H 0.22868 0.46928 0.61513 0.0
H585 H 0.24753 0.47255 0.6489 0.0
H586 H 0.19298 0.4923 0.61066 0.0
H587 H 0.19371 0.52237 0.67566 0.0
C588 C 0.00447 0.53552 0.41076 0.0
C589 C 0.98089 0.5712 0.41096 0.0
C590 C 0.99383 0.55293 0.4238 0.0
C591 C 0.97826 0.5716 0.38525 0.0
C592 C 0.00221 0.53623 0.38464 0.0
C593 C 0.98885 0.55418 0.37216 0.0
N594 N 0.01757 0.5183 0.42311 0.0
C595 C 0.03028 0.50239 0.40961 0.0
C596 C 0.01396 0.51916 0.37147 0.0
C597 C 0.02825 0.50231 0.38392 0.0
Gd598 Gd 0.98874 0.49075 0.53712 0.0
Gd599 Gd 0.02009 0.5215 0.4658 0.0
N600 N 0.9967 0.55239 0.44866 0.0
C601 C 0.97139 0.58882 0.4241 0.0
C602 C 0.98829 0.56988 0.46111 0.0
C603 C 0.97526 0.58821 0.4492 0.0
H604 H 0.99168 0.56964 0.48021 0.0
H605 H 0.96841 0.60192 0.45927 0.0
H606 H 0.01778 0.44258 0.52483 0.0
H607 H 0.04235 0.48981 0.41838 0.0
H608 H 0.03774 0.40979 0.54911 0.0
H609 H 0.96143 0.60314 0.41482 0.0
H610 H 0.96837 0.5855 0.37513 0.0
H611 H 0.97004 0.52738 0.57919 0.0
H612 H 0.01266 0.51917 0.35142 0.0
H613 H 0.03806 0.48945 0.37355 0.0
H614 H 0.0325 0.4283 0.63378 0.0
H615 H 0.98696 0.55494 0.35214 0.0
H616 H 0.99402 0.49861 0.65001 0.0
H617 H 0.97318 0.52954 0.62389 0.0
N618 N 0.99113 0.4964 0.57856 0.0
C619 C 0.00218 0.47889 0.59284 0.0
C620 C 0.98032 0.51421 0.58961 0.0
C621 C 0.99335 0.49779 0.62999 0.0
C622 C 0.98164 0.51532 0.61527 0.0
C623 C 0.00353 0.47919 0.61898 0.0
H624 H 0.01561 0.46082 0.65366 0.0
N625 N 0.0105 0.46017 0.55639 0.0
C626 C 0.01179 0.46029 0.58162 0.0
C627 C 0.03233 0.42362 0.58431 0.0
C628 C 0.02289 0.44192 0.59624 0.0
C629 C 0.01951 0.44244 0.54464 0.0
C630 C 0.03065 0.4239 0.5584 0.0
O631 O 0.98432 0.52984 0.47363 0.0
O632 O 0.97175 0.50395 0.50226 0.0
O633 O 0.97585 0.46483 0.53705 0.0
O634 O 0.95863 0.49057 0.55961 0.0
O635 O 0.01186 0.52475 0.50839 0.0
O636 O 0.98126 0.52606 0.53439 0.0
O637 O 0.02416 0.48504 0.53544 0.0
O638 O 0.04008 0.5013 0.49683 0.0
O639 O 0.03291 0.54796 0.46245 0.0
O640 O 0.05062 0.5206 0.44348 0.0
O641 O 0.00591 0.49016 0.49826 0.0
O642 O 0.02282 0.48814 0.46014 0.0
C643 C 0.97118 0.51815 0.48147 0.0
C644 C 0.99452 0.53607 0.52065 0.0
C645 C 0.9385 0.47166 0.54602 0.0
C646 C 0.91892 0.45195 0.53089 0.0
C647 C 0.90024 0.48359 0.55084 0.0
C648 C 0.91934 0.48611 0.55435 0.0
C649 C 0.89999 0.46667 0.53908 0.0
C650 C 0.93813 0.45445 0.53447 0.0
C651 C 0.9586 0.47305 0.55198 0.0
C652 C 0.02416 0.44231 0.62222 0.0
C653 C 0.01457 0.46087 0.63353 0.0
H654 H 0.04088 0.40917 0.59497 0.0
C655 C 0.04058 0.48972 0.52008 0.0
C656 C 0.01302 0.47876 0.47952 0.0
C657 C 0.07014 0.54121 0.45468 0.0
C658 C 0.08869 0.56173 0.47003 0.0
C659 C 0.1084 0.53058 0.44966 0.0
C660 C 0.08963 0.52737 0.44612 0.0
C661 C 0.10797 0.54766 0.46159 0.0
C662 C 0.06982 0.55851 0.46656 0.0
C663 C 0.05041 0.53893 0.44877 0.0
H664 H 0.88557 0.49463 0.5576 0.0
H665 H 0.91904 0.49914 0.56404 0.0
H666 H 0.88501 0.46475 0.53692 0.0
H667 H 0.95269 0.44283 0.5286 0.0
H668 H 0.12333 0.51995 0.44286 0.0
H669 H 0.0904 0.51426 0.4363 0.0
H670 H 0.12269 0.55007 0.46398 0.0
H671 H 0.055 0.56966 0.47276 0.0
C672 C 0.26541 0.24611 0.08525 0.0
C673 C 0.30175 0.2251 0.08717 0.0
C674 C 0.28562 0.23791 0.07285 0.0
C675 C 0.29728 0.22055 0.11406 0.0
C676 C 0.26097 0.24165 0.11234 0.0
C677 C 0.27696 0.22877 0.1266 0.0
N678 N 0.2504 0.25918 0.07108 0.0
C679 C 0.231 0.26898 0.08307 0.0
C680 C 0.24076 0.25078 0.12445 0.0
C681 C 0.22574 0.26457 0.10976 0.0
Gd682 Gd 0.24404 0.2442 0.97379 0.0
Gd683 Gd 0.26236 0.26785 0.02724 0.0
N684 N 0.28962 0.24267 0.04682 0.0
C685 C 0.322 0.2175 0.07407 0.0
C686 C 0.30952 0.23589 0.03408 0.0
C687 C 0.32589 0.22296 0.04741 0.0
H688 H 0.3129 0.24077 0.01371 0.0
H689 H 0.34159 0.21753 0.03719 0.0
H690 H 0.19103 0.26722 0.99195 0.0
H691 H 0.21976 0.28095 0.07246 0.0
H692 H 0.16149 0.29145 0.97187 0.0
H693 H 0.3348 0.20768 0.08441 0.0
H694 H 0.3095 0.21085 0.12537 0.0
H695 H 0.28371 0.23549 0.92659 0.0
H696 H 0.23677 0.24778 0.14521 0.0
H697 H 0.21029 0.27231 0.11909 0.0
H698 H 0.189 0.30302 0.88262 0.0
H699 H 0.27384 0.22532 0.14742 0.0
H700 H 0.26153 0.26878 0.856 0.0
H701 H 0.29042 0.24521 0.87938 0.0
N702 N 0.25209 0.25458 0.92997 0.0
C703 C 0.23573 0.26678 0.91753 0.0
C704 C 0.27136 0.24645 0.91666 0.0
C705 C 0.25867 0.26483 0.87677 0.0
C706 C 0.27505 0.25164 0.8899 0.0
C707 C 0.23869 0.27251 0.89053 0.0
H708 H 0.22369 0.29016 0.85741 0.0
N709 N 0.21349 0.26755 0.95789 0.0
C710 C 0.21603 0.27382 0.9319 0.0
C711 C 0.17932 0.29379 0.93407 0.0
C712 C 0.19898 0.28704 0.91935 0.0
C713 C 0.19398 0.2733 0.97199 0.0
C714 C 0.17681 0.28679 0.96045 0.0
O715 O 0.26979 0.23202 0.02903 0.0
O716 O 0.24183 0.2274 0.01422 0.0
O717 O 0.22769 0.22823 0.95649 0.0
O718 O 0.25955 0.21221 0.96462 0.0
O719 O 0.28296 0.26608 0.98883 0.0
O720 O 0.27927 0.23686 0.97508 0.0
O721 O 0.25099 0.2757 0.9613 0.0
O722 O 0.24272 0.29141 0.99855 0.0
O723 O 0.28709 0.2823 0.0248 0.0
O724 O 0.25759 0.2943 0.04867 0.0
O725 O 0.22134 0.24915 0.011 0.0
O726 O 0.22701 0.27634 0.02774 0.0
C727 C 0.2568 0.22082 0.02897 0.0
C728 C 0.28992 0.25052 0.97467 0.0
C729 C 0.23633 0.19135 0.96714 0.0
C730 C 0.20993 0.17386 0.98896 0.0
C731 C 0.24372 0.15342 0.96917 0.0
C732 C 0.24994 0.17182 0.96112 0.0
C733 C 0.22384 0.15439 0.98306 0.0
C734 C 0.21625 0.19231 0.98115 0.0
C735 C 0.24275 0.21062 0.9571 0.0
C736 C 0.20195 0.29293 0.89251 0.0
C737 C 0.22171 0.28561 0.87813 0.0
H738 H 0.16588 0.30402 0.92517 0.0
C739 C 0.24572 0.29258 0.97318 0.0
C740 C 0.21557 0.2638 0.02669 0.0
C741 C 0.2778 0.3182 0.02924 0.0
C742 C 0.3009 0.33996 0.00893 0.0
C743 C 0.26475 0.35635 0.02658 0.0
C744 C 0.26152 0.33643 0.03465 0.0
C745 C 0.28436 0.35816 0.01392 0.0
C746 C 0.29719 0.3202 0.01593 0.0
C747 C 0.276 0.29681 0.03901 0.0
H748 H 0.25416 0.13842 0.96419 0.0
H749 H 0.26525 0.17087 0.94986 0.0
H750 H 0.219 0.14004 0.9884 0.0
H751 H 0.20534 0.20732 0.98547 0.0
H752 H 0.25224 0.37039 0.03091 0.0
H753 H 0.24649 0.33531 0.04529 0.0
H754 H 0.28686 0.37367 0.0092 0.0
H755 H 0.30991 0.30615 0.01201 0.0
C756 C 0.23737 0.9446 0.25122 0.0
C757 C 0.20282 0.94863 0.27645 0.0
C758 C 0.21825 0.95766 0.26151 0.0
C759 C 0.20678 0.92657 0.28084 0.0
C760 C 0.24129 0.92246 0.25544 0.0
C761 C 0.22591 0.91354 0.27031 0.0
N762 N 0.25218 0.95354 0.23714 0.0
C763 C 0.2706 0.9415 0.22555 0.0
C764 C 0.26052 0.90993 0.24437 0.0
C765 C 0.27519 0.91951 0.22925 0.0
Gd766 Gd 0.26372 0.02006 0.2728 0.0
Gd767 Gd 0.24224 0.9903 0.22989 0.0
N768 N 0.21476 0.97908 0.25694 0.0
C769 C 0.18378 0.96202 0.28653 0.0
C770 C 0.19596 0.99216 0.26621 0.0
C771 C 0.18034 0.98384 0.28135 0.0
H772 H 0.1925 0.00899 0.26172 0.0
H773 H 0.16554 0.99431 0.28882 0.0
H774 H 0.31329 0.00485 0.24366 0.0
H775 H 0.28157 0.94884 0.21291 0.0
H776 H 0.34139 0.02095 0.22218 0.0
H777 H 0.17158 0.95567 0.29818 0.0
H778 H 0.19507 0.91941 0.29225 0.0
H779 H 0.22365 0.05994 0.29542 0.0
H780 H 0.26406 0.89287 0.24708 0.0
H781 H 0.28989 0.90998 0.22015 0.0
H782 H 0.31061 0.09496 0.2272 0.0
H783 H 0.22864 0.89657 0.27372 0.0
H784 H 0.24023 0.11751 0.2703 0.0
H785 H 0.21467 0.09848 0.2933 0.0
N786 N 0.25284 0.05716 0.27083 0.0
C787 C 0.26746 0.06724 0.25901 0.0
C788 C 0.23435 0.06808 0.28373 0.0
C789 C 0.24394 0.10062 0.2703 0.0
C790 C 0.22944 0.08995 0.2832 0.0
C791 C 0.26338 0.08925 0.2584 0.0
H792 H 0.2761 0.116 0.24602 0.0
N793 N 0.29062 0.03421 0.2498 0.0
C794 C 0.28699 0.0554 0.24853 0.0
C795 C 0.32248 0.05267 0.22713 0.0
C796 C 0.30283 0.06522 0.23705 0.0
C797 C 0.3101 0.02178 0.24129 0.0
C798 C 0.32614 0.03084 0.22937 0.0
O799 O 0.25163 0.97372 0.2687 0.0
O800 O 0.24169 1.00079 0.29303 0.0
O801 O 0.2891 0.00629 0.29549 0.0
O802 O 0.26163 0.03017 0.31031 0.0
O803 O 0.22033 0.02294 0.23739 0.0
O804 O 0.22799 0.02928 0.27553 0.0
O805 O 0.27052 0.02733 0.22901 0.0
O806 O 0.2428 0.02344 0.21271 0.0
O807 O 0.22019 0.98596 0.20792 0.0
O808 O 0.25251 0.98308 0.19047 0.0
O809 O 0.28405 0.98713 0.26518 0.0
O810 O 0.27807 0.98447 0.22468 0.0
C811 C 0.24524 0.98077 0.29106 0.0
C812 C 0.21611 0.03415 0.25689 0.0
C813 C 0.28367 0.00676 0.34026 0.0
C814 C 0.31005 0.99349 0.36935 0.0
C815 C 0.27305 0.99822 0.38603 0.0
C816 C 0.26768 0.00602 0.36112 0.0
C817 C 0.29417 0.99221 0.39026 0.0
C818 C 0.30465 0.99956 0.34443 0.0
C819 C 0.27993 0.01731 0.31431 0.0
C820 C 0.29865 0.08715 0.23597 0.0
C821 C 0.27898 0.09913 0.24663 0.0
H822 H 0.33499 0.05964 0.21804 0.0
C823 C 0.25759 0.03269 0.21156 0.0
C824 C 0.2899 0.97843 0.24359 0.0
C825 C 0.22617 0.99494 0.16251 0.0
C826 C 0.19737 0.01447 0.1375 0.0
C827 C 0.23312 1.00157 0.11584 0.0
C828 C 0.24018 0.99274 0.13951 0.0
C829 C 0.21193 0.0122 0.11475 0.0
C830 C 0.2048 0.00613 0.16144 0.0
C831 C 0.23367 0.98357 0.18698 0.0
H832 H 0.26079 0.99779 0.40224 0.0
H833 H 0.25126 0.0118 0.3583 0.0
H834 H 0.29793 0.98778 0.40983 0.0
H835 H 0.31692 1.0005 0.32823 0.0
H836 H 0.244 0.99953 0.09816 0.0
H837 H 0.25654 0.98378 0.13978 0.0
H838 H 0.20688 0.01767 0.09589 0.0
H839 H 0.19385 0.00769 0.17912 0.0
C840 C 0.56428 0.27479 0.75303 0.0
C841 C 0.5586 0.30916 0.72721 0.0
C842 C 0.55048 0.29352 0.74331 0.0
C843 C 0.58049 0.30566 0.72098 0.0
C844 C 0.58624 0.2715 0.74747 0.0
C845 C 0.59426 0.28696 0.73122 0.0
N846 N 0.5562 0.25979 0.76817 0.0
C847 C 0.5689 0.24201 0.77997 0.0
C848 C 0.59949 0.25286 0.75872 0.0
C849 C 0.59075 0.23816 0.77528 0.0
Gd850 Gd 0.49145 0.247 0.7311 0.0
Gd851 Gd 0.51971 0.26767 0.77651 0.0
N852 N 0.52928 0.29663 0.75007 0.0
C853 C 0.54452 0.32807 0.71821 0.0
C854 C 0.51566 0.31573 0.74274 0.0
C855 C 0.523 0.33145 0.72627 0.0
H856 H 0.49918 0.31949 0.7499 0.0
H857 H 0.51204 0.34637 0.72018 0.0
H858 H 0.50585 0.19557 0.75406 0.0
H859 H 0.56212 0.23101 0.7934 0.0
H860 H 0.48914 0.16779 0.77491 0.0
H861 H 0.55013 0.34041 0.70569 0.0
H862 H 0.58694 0.31752 0.70861 0.0
H863 H 0.45207 0.28778 0.70937 0.0
H864 H 0.61644 0.24986 0.75512 0.0
H865 H 0.60082 0.22396 0.78459 0.0
H866 H 0.41512 0.20235 0.77868 0.0
H867 H 0.61109 0.28468 0.72663 0.0
H868 H 0.39372 0.27401 0.73904 0.0
H869 H 0.41339 0.29854 0.71437 0.0
N870 N 0.45443 0.25871 0.73402 0.0
C871 C 0.44398 0.2445 0.7463 0.0
C872 C 0.44372 0.27755 0.72172 0.0
C873 C 0.41072 0.26953 0.73774 0.0
C874 C 0.42175 0.28345 0.72389 0.0
C875 C 0.42183 0.24958 0.74863 0.0
H876 H 0.39454 0.23807 0.76288 0.0
N877 N 0.47687 0.21971 0.75185 0.0
C878 C 0.45555 0.22432 0.75511 0.0
C879 C 0.45759 0.18834 0.77414 0.0
C880 C 0.44531 0.20878 0.76656 0.0
C881 C 0.48893 0.19953 0.75805 0.0
C882 C 0.4795 0.18366 0.76965 0.0
O883 O 0.53723 0.25597 0.73937 0.0
O884 O 0.51158 0.26903 0.71367 0.0
O885 O 0.51011 0.22582 0.70349 0.0
O886 O 0.47944 0.2475 0.69552 0.0
O887 O 0.48728 0.28972 0.76847 0.0
O888 O 0.48301 0.28289 0.72888 0.0
O889 O 0.48496 0.23864 0.77478 0.0
O890 O 0.48622 0.26743 0.79121 0.0
O891 O 0.52688 0.28689 0.80003 0.0
O892 O 0.52335 0.25607 0.81692 0.0
O893 O 0.52261 0.22454 0.74135 0.0
O894 O 0.52695 0.23153 0.78094 0.0
C895 C 0.53155 0.26354 0.71658 0.0
C896 C 0.47706 0.29445 0.74807 0.0
C897 C 0.49856 0.22464 0.6633 0.0
C898 C 0.51126 0.19554 0.63773 0.0
C899 C 0.49312 0.23047 0.61837 0.0
C900 C 0.49049 0.23814 0.64187 0.0
C901 C 0.50352 0.20928 0.61625 0.0
C902 C 0.50887 0.20327 0.66124 0.0
C903 C 0.49597 0.23277 0.68784 0.0
C904 C 0.42325 0.21403 0.76976 0.0
C905 C 0.41154 0.23439 0.76083 0.0
H906 H 0.45032 0.17598 0.78303 0.0
C907 C 0.47779 0.25211 0.79179 0.0
C908 C 0.53157 0.21899 0.7627 0.0
C909 C 0.5134 0.28299 0.84418 0.0
C910 C 0.49405 0.31407 0.86529 0.0
C911 C 0.50402 0.2795 0.89072 0.0
C912 C 0.5138 0.27045 0.86831 0.0
C913 C 0.49431 0.30118 0.8893 0.0
C914 C 0.50307 0.30474 0.84277 0.0
C915 C 0.52569 0.27376 0.82107 0.0
H916 H 0.48683 0.24088 0.60188 0.0
H917 H 0.48229 0.25462 0.64326 0.0
H918 H 0.50485 0.20341 0.59809 0.0
H919 H 0.51453 0.19259 0.67796 0.0
H920 H 0.50467 0.26982 0.90933 0.0
H921 H 0.52207 0.25376 0.86986 0.0
H922 H 0.48805 0.308 0.90713 0.0
H923 H 0.50297 0.3147 0.82431 0.0
C924 C 0.0653 0.77237 0.75239 0.0
C925 C 0.06094 0.80749 0.72869 0.0
C926 C 0.05212 0.79178 0.74338 0.0
C927 C 0.08292 0.80341 0.72317 0.0
C928 C 0.08737 0.76845 0.74748 0.0
C929 C 0.09609 0.784 0.73266 0.0
N930 N 0.05654 0.75742 0.76635 0.0
C931 C 0.06868 0.73897 0.77763 0.0
C932 C 0.10002 0.74911 0.75801 0.0
C933 C 0.09061 0.73439 0.77338 0.0
Gd934 Gd 0.99074 0.74434 0.73186 0.0
Gd935 Gd 0.01991 0.76661 0.774 0.0
N936 N 0.03082 0.79543 0.74941 0.0
C937 C 0.04744 0.82698 0.72023 0.0
C938 C 0.0177 0.81488 0.74222 0.0
C939 C 0.02576 0.83072 0.72718 0.0
H940 H 0.00103 0.81873 0.74828 0.0
H941 H 0.01523 0.84596 0.72127 0.0
H942 H 0.0062 0.69476 0.76065 0.0
H943 H 0.06146 0.72797 0.79039 0.0
H944 H 0.99026 0.66707 0.7843 0.0
H945 H 0.0536 0.83939 0.70878 0.0
H946 H 0.08991 0.81531 0.71189 0.0
H947 H 0.95072 0.78302 0.70819 0.0
H948 H 0.11702 0.74556 0.75484 0.0
H949 H 0.10021 0.71964 0.7822 0.0
H950 H 0.91597 0.69938 0.78629 0.0
H951 H 0.113 0.78124 0.72862 0.0
H952 H 0.89309 0.76874 0.7406 0.0
H953 H 0.91207 0.79281 0.7132 0.0
N954 N 0.95367 0.7554 0.73562 0.0
C955 C 0.94363 0.74138 0.74955 0.0
C956 C 0.94262 0.77326 0.72185 0.0
C957 C 0.91006 0.76483 0.73937 0.0
C958 C 0.92069 0.77851 0.724 0.0
C959 C 0.92153 0.74576 0.75187 0.0
H960 H 0.89472 0.73381 0.76767 0.0
N961 N 0.97683 0.71796 0.75698 0.0
C962 C 0.95556 0.72195 0.76009 0.0
C963 C 0.95845 0.68663 0.78229 0.0
C964 C 0.94577 0.70644 0.77312 0.0
C965 C 0.9893 0.6983 0.76471 0.0
C966 C 0.98031 0.6825 0.77786 0.0
O967 O 0.03655 0.75691 0.73537 0.0
O968 O 0.01014 0.76609 0.71028 0.0
O969 O 0.00554 0.71864 0.7094 0.0
O970 O 0.97868 0.74353 0.6968 0.0
O971 O 0.98834 0.78944 0.76427 0.0
O972 O 0.98131 0.78047 0.72713 0.0
O973 O 0.98496 0.73844 0.77578 0.0
O974 O 0.9859 0.76866 0.78867 0.0
O975 O 0.02682 0.78496 0.79891 0.0
O976 O 0.02311 0.75389 0.81418 0.0
O977 O 0.02373 0.72422 0.73845 0.0
O978 O 0.02603 0.73073 0.77873 0.0
C979 C 0.02972 0.76396 0.71302 0.0
C980 C 0.97761 0.79366 0.74437 0.0
C981 C 0.00204 0.72286 0.66549 0.0
C982 C 0.01837 0.69701 0.63578 0.0
C983 C 0.00549 0.73418 0.61938 0.0
C984 C -0.00144 0.73902 0.64464 0.0
C985 C 0.01522 0.71325 0.61489 0.0
C986 C 0.01245 0.70212 0.66092 0.0
C987 C 0.99283 0.72598 0.6921 0.0
C988 C 0.92376 0.71104 0.7762 0.0
C989 C 0.91167 0.73067 0.76565 0.0
H990 H 0.95152 0.67431 0.79235 0.0
C991 C 0.97748 0.75311 0.79115 0.0
C992 C 0.03235 0.71873 0.75996 0.0
C993 C 0.01199 0.78 0.8426 0.0
C994 C 0.99357 0.81062 0.86514 0.0
C995 C 5e-05 0.77508 0.88856 0.0
C996 C 0.01044 0.76665 0.86593 0.0
C997 C 0.99191 0.79691 0.88832 0.0
C998 C 0.00272 0.80186 0.84219 0.0
C999 C 0.02508 0.7714 0.81945 0.0
H1000 H 0.00252 0.74654 0.60322 0.0
H1001 H 0.99013 0.75513 0.64779 0.0
H1002 H 0.01917 0.70963 0.5952 0.0
H1003 H 0.01459 0.68958 0.67708 0.0
H1004 H -0.00087 0.76472 0.90658 0.0
H1005 H 0.01766 0.74977 0.86677 0.0
H1006 H 0.98537 0.803 0.90652 0.0
H1007 H 0.00363 0.81223 0.82416 0.0
C1008 C 0.73743 0.44518 0.24663 0.0
C1009 C 0.70368 0.44868 0.27364 0.0
C1010 C 0.71878 0.45798 0.25829 0.0
C1011 C 0.70742 0.42666 0.27683 0.0
C1012 C 0.74111 0.42308 0.24962 0.0
C1013 C 0.72601 0.41392 0.26475 0.0
N1014 N 0.75215 0.45429 0.23271 0.0
C1015 C 0.77022 0.44255 0.22008 0.0
C1016 C 0.75993 0.41082 0.23731 0.0
C1017 C 0.77449 0.42063 0.22237 0.0
Gd1018 Gd 0.76463 0.51906 0.27291 0.0
Gd1019 Gd 0.74294 0.49099 0.22781 0.0
N1020 N 0.71545 0.47938 0.25471 0.0
C1021 C 0.68516 0.46177 0.28529 0.0
C1022 C 0.69694 0.49218 0.26527 0.0
C1023 C 0.68176 0.48358 0.28099 0.0
H1024 H 0.69329 0.50902 0.26146 0.0
H1025 H 0.66726 0.49385 0.2895 0.0
H1026 H 0.81552 0.50199 0.24798 0.0
H1027 H 0.78117 0.45013 0.2078 0.0
H1028 H 0.8443 0.51696 0.22645 0.0
H1029 H 0.67325 0.45521 0.29732 0.0
H1030 H 0.69595 0.41931 0.28851 0.0
H1031 H 0.72554 0.56038 0.29388 0.0
H1032 H 0.76328 0.39382 0.23905 0.0
H1033 H 0.78891 0.41133 0.21242 0.0
H1034 H 0.81424 0.59169 0.22511 0.0
H1035 H 0.72859 0.39697 0.26728 0.0
H1036 H 0.74349 0.61683 0.26577 0.0
H1037 H 0.71731 0.59896 0.28977 0.0
N1038 N 0.75476 0.55631 0.26931 0.0
C1039 C 0.76986 0.56572 0.25732 0.0
C1040 C 0.73637 0.56799 0.28158 0.0
C1041 C 0.74682 0.59989 0.26659 0.0
C1042 C 0.73195 0.58989 0.28001 0.0
C1043 C 0.76621 0.5878 0.25545 0.0
H1044 H 0.77964 0.61395 0.24181 0.0
N1045 N 0.79288 0.53187 0.25118 0.0
C1046 C 0.78952 0.55315 0.24826 0.0
C1047 C 0.82557 0.54916 0.22835 0.0
C1048 C 0.8058 0.56237 0.23668 0.0
C1049 C 0.81246 0.51889 0.24426 0.0
C1050 C 0.82893 0.52733 0.23231 0.0
O1051 O 0.75344 0.47301 0.26523 0.0
O1052 O 0.74308 0.49862 0.29164 0.0
O1053 O 0.78633 0.502 0.30086 0.0
O1054 O 0.76305 0.5321 0.30784 0.0
O1055 O 0.7206 0.52297 0.23712 0.0
O1056 O 0.72871 0.52944 0.27509 0.0
O1057 O 0.77233 0.52579 0.22919 0.0
O1058 O 0.74334 0.52452 0.21348 0.0
O1059 O 0.72191 0.48625 0.20478 0.0
O1060 O 0.75357 0.48668 0.18738 0.0
O1061 O 0.78557 0.48684 0.26359 0.0
O1062 O 0.77888 0.48437 0.22318 0.0
C1063 C 0.74754 0.47867 0.28838 0.0
C1064 C 0.71634 0.53391 0.25692 0.0
C1065 C 0.7855 0.51588 0.34078 0.0
C1066 C 0.81181 0.50181 0.37013 0.0
C1067 C 0.78038 0.53007 0.38122 0.0
C1068 C 0.77346 0.53009 0.35806 0.0
C1069 C 0.79943 0.51605 0.38727 0.0
C1070 C 0.80469 0.50172 0.34691 0.0
C1071 C 0.77838 0.51662 0.316 0.0
C1072 C 0.80195 0.58436 0.23402 0.0
C1073 C 0.78222 0.59704 0.24344 0.0
H1074 H 0.83842 0.55564 0.21928 0.0
C1075 C 0.75877 0.53284 0.21246 0.0
C1076 C 0.79089 0.47819 0.24193 0.0
C1077 C 0.72703 0.49694 0.15971 0.0
C1078 C 0.6973 0.5159 0.13621 0.0
C1079 C 0.73235 0.50287 0.11289 0.0
C1080 C 0.7403 0.49447 0.13616 0.0
C1081 C 0.71103 0.51343 0.11285 0.0
C1082 C 0.70554 0.50793 0.15964 0.0
C1083 C 0.7353 0.48561 0.18371 0.0
H1084 H 0.77117 0.54122 0.3943 0.0
H1085 H 0.75874 0.54135 0.3536 0.0
H1086 H 0.80488 0.51695 0.40491 0.0
H1087 H 0.81434 0.49107 0.3334 0.0
H1088 H 0.7426 0.50056 0.09479 0.0
H1089 H 0.75672 0.48552 0.13574 0.0
H1090 H 0.70514 0.51868 0.09441 0.0
H1091 H 0.69502 0.50951 0.17768 0.0
C1092 C 0.76653 0.7428 0.9186 0.0
C1093 C 0.78618 0.70586 0.91705 0.0
C1094 C 0.77326 0.72224 0.93106 0.0
C1095 C 0.79197 0.71024 0.89036 0.0
C1096 C 0.77201 0.74706 0.89166 0.0
C1097 C 0.78482 0.73073 0.87769 0.0
N1098 N 0.7538 0.75832 0.93247 0.0
C1099 C 0.74466 0.77779 0.92021 0.0
C1100 C 0.76378 0.76745 0.87933 0.0
C1101 C 0.74989 0.78281 0.89364 0.0
Gd1102 Gd 0.76375 0.76719 0.02883 0.0
Gd1103 Gd 0.74278 0.7467 0.97542 0.0
N1104 N 0.76696 0.71822 0.95683 0.0
C1105 C 0.79271 0.68546 0.93023 0.0
C1106 C 0.77289 0.69828 0.96968 0.0
C1107 C 0.78607 0.68168 0.95666 0.0
H1108 H 0.76717 0.69498 0.98981 0.0
H1109 H 0.79081 0.6659 0.96693 0.0
H1110 H 0.74145 0.8193 0.01298 0.0
H1111 H 0.73253 0.78924 0.9305 0.0
H1112 H 0.71805 0.84919 0.03457 0.0
H1113 H 0.80269 0.67248 0.92014 0.0
H1114 H 0.80174 0.6978 0.87925 0.0
H1115 H 0.77263 0.72586 0.07514 0.0
H1116 H 0.76746 0.77128 0.85864 0.0
H1117 H 0.74269 0.79835 0.88409 0.0
H1118 H 0.70458 0.81922 0.12265 0.0
H1119 H 0.78907 0.73374 0.85698 0.0
H1120 H 0.73711 0.74567 0.14586 0.0
H1121 H 0.76178 0.71775 0.12157 0.0
N1122 N 0.75199 0.75693 0.072 0.0
C1123 C 0.73942 0.77291 0.08521 0.0
C1124 C 0.76055 0.73758 0.08491 0.0
C1125 C 0.74113 0.74903 0.12515 0.0
C1126 C 0.75493 0.73318 0.1115 0.0
C1127 C 0.73346 0.76928 0.11214 0.0
H1128 H 0.7161 0.78354 0.14609 0.0
N1129 N 0.74031 0.79666 0.0464 0.0
C1130 C 0.73342 0.79329 0.0721 0.0
C1131 C 0.71487 0.8304 0.07162 0.0
C1132 C 0.72064 0.81016 0.08542 0.0
C1133 C 0.73518 0.81645 0.03299 0.0
C1134 C 0.72216 0.83354 0.0453 0.0
O1135 O 0.77842 0.7398 0.97309 0.0
O1136 O 0.78313 0.76726 0.98954 0.0
O1137 O 0.77819 0.78739 0.04208 0.0
O1138 O 0.79369 0.75383 0.04382 0.0
O1139 O 0.74483 0.7252 0.01302 0.0
O1140 O 0.7718 0.73144 0.02895 0.0
O1141 O 0.72814 0.77381 0.03171 0.0
O1142 O 0.72313 0.74678 0.01457 0.0
O1143 O 0.72897 0.7256 0.96292 0.0
O1144 O 0.71324 0.75913 0.95941 0.0
O1145 O 0.76174 0.78838 0.99083 0.0
O1146 O 0.73393 0.78219 0.97687 0.0
C1147 C 0.78966 0.75252 0.97422 0.0
C1148 C 0.75943 0.71962 0.02839 0.0
C1149 C 0.81536 0.77677 0.03583 0.0
C1150 C 0.83547 0.80033 0.01163 0.0
C1151 C 0.85341 0.76629 0.03345 0.0
C1152 C 0.83413 0.76209 0.04247 0.0
C1153 C 0.85412 0.78526 0.01806 0.0
C1154 C 0.81612 0.79595 0.02035 0.0
C1155 C 0.79517 0.77229 0.04637 0.0
C1156 C 0.71426 0.80641 0.11208 0.0
C1157 C 0.72075 0.78607 0.12541 0.0
H1158 H 0.70503 0.84374 0.08117 0.0
C1159 C 0.71683 0.76123 0.03029 0.0
C1160 C 0.74667 0.79381 0.97618 0.0
C1161 C 0.6918 0.73596 0.96778 0.0
C1162 C 0.67149 0.71232 0.99108 0.0
C1163 C 0.65372 0.74686 0.97032 0.0
C1164 C 0.67307 0.75095 0.96153 0.0
C1165 C 0.65289 0.72769 0.9851 0.0
C1166 C 0.69092 0.71653 0.98254 0.0
C1167 C 0.71206 0.7404 0.9576 0.0
H1168 H 0.86781 0.75504 0.03893 0.0
H1169 H 0.83384 0.74748 0.05488 0.0
H1170 H 0.86917 0.78863 0.01229 0.0
H1171 H 0.80174 0.80777 0.0157 0.0
H1172 H 0.63935 0.75837 0.96519 0.0
H1173 H 0.67343 0.76576 0.94963 0.0
H1174 H 0.63778 0.72446 0.9908 0.0
H1175 H 0.70524 0.70445 0.98684 0.0
C1176 C 0.50335 0.03377 0.41453 0.0
C1177 C 0.48086 0.07004 0.41116 0.0
C1178 C 0.49273 0.05214 0.42575 0.0
C1179 C 0.47951 0.06923 0.38532 0.0
C1180 C 0.50253 0.03327 0.38829 0.0
C1181 C 0.49032 0.05093 0.37392 0.0
N1182 N 0.51564 0.01707 0.42859 0.0
C1183 C 0.52886 1.00037 0.41698 0.0
C1184 C 0.51483 0.01541 0.37686 0.0
C1185 C 0.52824 0.99902 0.39118 0.0
Gd1186 Gd 0.48778 0.9898 0.54096 0.0
Gd1187 Gd 0.51731 0.02294 0.47009 0.0
N1188 N 0.49477 0.05289 0.45052 0.0
C1189 C 0.47117 0.08847 0.42276 0.0
C1190 C 0.48585 0.0709 0.46178 0.0
C1191 C 0.47373 0.08891 0.44816 0.0
H1192 H 0.48823 0.07132 0.48121 0.0
H1193 H 0.4666 0.10317 0.45714 0.0
H1194 H 0.51254 0.94126 0.52805 0.0
H1195 H 0.54006 0.98812 0.42747 0.0
H1196 H 0.53662 0.90873 0.5477 0.0
H1197 H 0.46201 0.10256 0.41212 0.0
H1198 H 0.47053 0.08286 0.37379 0.0
H1199 H 0.46707 0.02106 0.58916 0.0
H1200 H 0.51471 0.01448 0.35672 0.0
H1201 H 0.53843 0.98554 0.38219 0.0
H1202 H 0.54317 0.92624 0.62899 0.0
H1203 H 0.48958 0.05079 0.35373 0.0
H1204 H 0.50075 0.99312 0.65323 0.0
H1205 H 0.4737 0.02212 0.63269 0.0
N1206 N 0.49242 0.99318 0.58295 0.0
C1207 C 0.50617 0.97625 0.59471 0.0
C1208 C 0.47996 0.0089 0.59695 0.0
C1209 C 0.49851 0.99292 0.63358 0.0
C1210 C 0.48328 0.00935 0.62204 0.0
C1211 C 0.50973 0.9758 0.62025 0.0
H1212 H 0.52646 0.95732 0.65174 0.0
N1213 N 0.51061 0.95876 0.55827 0.0
C1214 C 0.51552 0.95857 0.58201 0.0
C1215 C 0.53675 0.9223 0.58154 0.0
C1216 C 0.52877 0.94026 0.59431 0.0
C1217 C 0.51764 0.94112 0.54616 0.0
C1218 C 0.531 0.92269 0.55743 0.0
O1219 O 0.48171 0.03017 0.47832 0.0
O1220 O 0.473 1.001 0.50387 0.0
O1221 O 0.47295 0.9648 0.55605 0.0
O1222 O 0.45461 0.99756 0.55643 0.0
O1223 O 0.50035 0.02221 0.50872 0.0
O1224 O 0.48349 0.02349 0.54643 0.0
O1225 O 0.52325 0.98277 0.52905 0.0
O1226 O 0.5348 0.01067 0.50474 0.0
O1227 O 0.53005 0.04909 0.46948 0.0
O1228 O 0.54778 0.02251 0.44855 0.0
O1229 O 0.49702 0.97681 0.50195 0.0
O1230 O 0.52419 0.98767 0.4726 0.0
C1231 C 0.47103 0.01601 0.48376 0.0
C1232 C 0.49275 0.03348 0.52746 0.0
C1233 C 0.43608 0.97294 0.55489 0.0
C1234 C 0.42018 0.95094 0.5377 0.0
C1235 C 0.39805 0.97996 0.56056 0.0
C1236 C 0.41588 0.98484 0.5644 0.0
C1237 C 0.40016 0.96312 0.54729 0.0
C1238 C 0.4382 0.95585 0.54147 0.0
C1239 C 0.45441 0.97785 0.56112 0.0
C1240 C 0.53303 0.94016 0.61925 0.0
C1241 C 0.52354 0.95789 0.63218 0.0
H1242 H 0.54688 0.9079 0.59042 0.0
C1243 C 0.53507 0.99581 0.52478 0.0
C1244 C 0.51135 0.97563 0.48082 0.0
C1245 C 0.56742 0.04059 0.46402 0.0
C1246 C 0.587 0.06074 0.47785 0.0
C1247 C 0.60502 0.02585 0.46578 0.0
C1248 C 0.5861 0.02404 0.46053 0.0
C1249 C 0.60551 0.04417 0.47438 0.0
C1250 C 0.56804 0.05889 0.47275 0.0
C1251 C 0.5478 0.04006 0.45599 0.0
H1252 H 0.38255 0.98914 0.56812 0.0
H1253 H 0.41389 0.99777 0.57516 0.0
H1254 H 0.38613 0.95942 0.54469 0.0
H1255 H 0.45365 0.94633 0.53422 0.0
H1256 H 0.61939 0.01324 0.46262 0.0
H1257 H 0.58624 0.0099 0.45323 0.0
H1258 H 0.6204 0.04569 0.47757 0.0
H1259 H 0.55393 0.07205 0.47473 0.0
C1260 C 0.50149 0.53584 0.91448 0.0
C1261 C 0.47854 0.57166 0.91492 0.0
C1262 C 0.49113 0.55313 0.92773 0.0
C1263 C 0.47645 0.57256 0.88887 0.0
C1264 C 0.49922 0.53666 0.88838 0.0
C1265 C 0.48669 0.5551 0.87568 0.0
N1266 N 0.51395 0.51834 0.92703 0.0
C1267 C 0.52492 0.5014 0.91451 0.0
C1268 C 0.5099 0.51901 0.87568 0.0
C1269 C 0.52282 0.5013 0.88882 0.0
Gd1270 Gd 0.48587 0.49564 0.03293 0.0
Gd1271 Gd 0.5184 0.52142 0.96871 0.0
N1272 N 0.49334 0.55182 0.95304 0.0
C1273 C 0.4685 0.58882 0.92865 0.0
C1274 C 0.48399 0.5687 0.96624 0.0
C1275 C 0.47126 0.58732 0.9544 0.0
H1276 H 0.48687 0.56823 0.98553 0.0
H1277 H 0.46392 0.60068 0.96502 0.0
H1278 H 0.51946 0.44831 0.02151 0.0
H1279 H 0.53601 0.4884 0.92396 0.0
H1280 H 0.54015 0.41683 0.04637 0.0
H1281 H 0.45878 0.60336 0.91948 0.0
H1282 H 0.46694 0.58672 0.87873 0.0
H1283 H 0.46386 0.53163 0.07387 0.0
H1284 H 0.50859 0.51905 0.85563 0.0
H1285 H 0.53156 0.48779 0.87898 0.0
H1286 H 0.5278 0.43502 0.13235 0.0
H1287 H 0.48494 0.55608 0.85557 0.0
H1288 H 0.48339 0.50387 0.14768 0.0
H1289 H 0.46314 0.53412 0.11996 0.0
N1290 N 0.48546 0.50095 0.07527 0.0
C1291 C 0.49665 0.48407 0.09013 0.0
C1292 C 0.47333 0.51867 0.08564 0.0
C1293 C 0.48413 0.50288 0.12736 0.0
C1294 C 0.4727 0.52001 0.11177 0.0
C1295 C 0.49618 0.48457 0.11667 0.0
H1296 H 0.50718 0.46681 0.15219 0.0
N1297 N 0.5092 0.46624 0.05301 0.0
C1298 C 0.50853 0.46611 0.07882 0.0
C1299 C 0.53153 0.43043 0.082 0.0
C1300 C 0.5199 0.44824 0.09394 0.0
C1301 C 0.52006 0.44874 0.04144 0.0
C1302 C 0.53156 0.43068 0.05566 0.0
O1303 O 0.48712 0.51749 0.96506 0.0
O1304 O 0.46784 0.5215 0.00529 0.0
O1305 O 0.47177 0.4704 0.03541 0.0
O1306 O 0.45566 0.49692 0.05668 0.0
O1307 O 0.51199 0.53576 0.00584 0.0
O1308 O 0.48036 0.53071 0.0269 0.0
O1309 O 0.51836 0.49601 0.03754 0.0
O1310 O 0.53849 0.49826 0.99707 0.0
O1311 O 0.53226 0.54728 0.95898 0.0
O1312 O 0.54831 0.51784 0.94361 0.0
O1313 O 0.49462 0.48137 0.99609 0.0
O1314 O 0.52583 0.4858 0.9726 0.0
C1315 C 0.46916 0.52096 0.98043 0.0
C1316 C 0.49587 0.53925 0.02426 0.0
C1317 C 0.43482 0.47729 0.04582 0.0
C1318 C 0.41549 0.45643 0.03266 0.0
C1319 C 0.39661 0.48902 0.05043 0.0
C1320 C 0.41566 0.49201 0.05339 0.0
C1321 C 0.39648 0.47133 0.04003 0.0
C1322 C 0.43455 0.45943 0.0356 0.0
C1323 C 0.45503 0.47914 0.05063 0.0
C1324 C 0.51925 0.44864 0.12043 0.0
C1325 C 0.5075 0.46677 0.13173 0.0
H1326 H 0.54036 0.41634 0.09299 0.0
C1327 C 0.53632 0.49557 0.02255 0.0
C1328 C 0.5122 0.4747 0.9807 0.0
C1329 C 0.56924 0.53862 0.95102 0.0
C1330 C 0.58862 0.55957 0.96379 0.0
C1331 C 0.60711 0.52514 0.95053 0.0
C1332 C 0.58817 0.52269 0.94632 0.0
C1333 C 0.60737 0.54349 0.95921 0.0
C1334 C 0.56962 0.55716 0.95967 0.0
C1335 C 0.54923 0.53656 0.94588 0.0
H1336 H 0.38189 0.50026 0.0566 0.0
H1337 H 0.41537 0.50561 0.06197 0.0
H1338 H 0.38158 0.46896 0.0384 0.0
H1339 H 0.44914 0.44758 0.03037 0.0
H1340 H 0.62165 0.51283 0.94692 0.0
H1341 H 0.58839 0.50841 0.93932 0.0
H1342 H 0.6222 0.54522 0.96228 0.0
H1343 H 0.55525 0.56982 0.96294 0.0
C1344 C 0.9774 0.06617 0.05029 0.0
C1345 C 0.99352 0.0475 0.0472 0.0
C1346 C 0.97952 0.08042 0.06519 0.0
C1347 C 0.01032 0.08878 0.11133 0.0
H1348 H 0.0042 0.14333 0.06928 0.0
C1349 C 0.03548 0.16694 0.11613 0.0
C1350 C 0.01688 0.18127 0.12594 0.0
C1351 C 0.03488 0.14747 0.11065 0.0
C1352 C 0.00618 0.12806 0.081 0.0
H1353 H 0.02343 0.02789 0.05861 0.0
H1354 H 0.02697 0.05251 0.08491 0.0
H1355 H 0.99516 0.11553 0.05376 0.0
H1356 H 0.98333 0.18662 0.13824 0.0
H1357 H 0.98237 0.15287 0.12845 0.0
H1358 H 0.02098 0.10186 0.1388 0.0
C1359 C 0.01281 0.05631 0.07593 0.0
C1360 C 0.00066 0.11234 0.07242 0.0
C1361 C 0.01086 0.04232 0.06075 0.0
C1362 C 0.9979 0.17574 0.13083 0.0
C1363 C 0.99734 0.15646 0.12545 0.0
C1364 C 0.01568 0.1047 0.12006 0.0
C1365 C 0.99766 0.07591 0.07725 0.0
C1366 C 0.00245 0.09265 0.08759 0.0
C1367 C 0.01569 0.14239 0.115 0.0
C1368 C 0.01355 0.12439 0.10487 0.0
H1369 H 0.96402 0.0704 0.03978 0.0
H1370 H 0.96757 0.09544 0.06613 0.0
H1371 H 0.01199 0.07362 0.12322 0.0
H1372 H 0.05028 0.17087 0.11258 0.0
H1373 H 0.04913 0.13674 0.10227 0.0
C1374 C 0.82159 0.23207 0.4459 0.0
C1375 C 0.81138 0.24938 0.45953 0.0
C1376 C 0.84025 0.23166 0.42904 0.0
C1377 C 0.885 0.25524 0.41275 0.0
H1378 H 0.89078 0.23554 0.34673 0.0
C1379 C 0.95242 0.2631 0.3287 0.0
C1380 C 0.96045 0.24649 0.31359 0.0
C1381 C 0.93506 0.26325 0.34792 0.0
C1382 C 0.8896 0.24083 0.36521 0.0
H1383 H 0.81343 0.27953 0.46678 0.0
H1384 H 0.84601 0.27866 0.43762 0.0
H1385 H 0.85911 0.2361 0.3774 0.0
H1386 H 0.95782 0.21647 0.30779 0.0
H1387 H 0.92752 0.21661 0.34085 0.0
H1388 H 0.91556 0.26002 0.40041 0.0
C1389 C 0.83952 0.26543 0.43985 0.0
C1390 C 0.87139 0.24115 0.38283 0.0
C1391 C 0.82075 0.26593 0.45654 0.0
C1392 C 0.95148 0.22969 0.31864 0.0
C1393 C 0.93414 0.22982 0.33766 0.0
C1394 C 0.90329 0.25489 0.39509 0.0
C1395 C 0.84938 0.2484 0.42562 0.0
C1396 C 0.86886 0.24825 0.4069 0.0
C1397 C 0.92538 0.24681 0.35223 0.0
C1398 C 0.90589 0.24754 0.37113 0.0
H1399 H 0.81519 0.21878 0.44823 0.0
H1400 H 0.84762 0.21809 0.41879 0.0
H1401 H 0.88367 0.26064 0.4312 0.0
H1402 H 0.9591 0.2763 0.32504 0.0
H1403 H 0.92874 0.27662 0.35868 0.0
C1404 C 0.77819 0.05564 0.6884 0.0
C1405 C 0.75934 0.04998 0.69589 0.0
C1406 C 0.77937 0.07268 0.66912 0.0
C1407 C 0.74989 0.10937 0.61685 0.0
H1408 H 0.78645 0.14288 0.62162 0.0
C1409 C 0.75823 0.18149 0.54021 0.0
C1410 C 0.76072 0.19898 0.54929 0.0
C1411 C 0.75878 0.1625 0.55668 0.0
C1412 C 0.77593 0.13389 0.62006 0.0
H1413 H 0.72689 0.05791 0.68893 0.0
H1414 H 0.72865 0.0878 0.65637 0.0
H1415 H 0.78558 0.11221 0.65315 0.0
H1416 H 0.76503 0.20993 0.58332 0.0
H1417 H 0.76624 0.17738 0.61157 0.0
H1418 H 0.73938 0.1319 0.58456 0.0
C1419 C 0.74282 0.07888 0.66463 0.0
C1420 C 0.77572 0.11592 0.63801 0.0
C1421 C 0.74174 0.06174 0.68361 0.0
C1422 C 0.76354 0.19691 0.5753 0.0
C1423 C 0.76429 0.17799 0.59163 0.0
C1424 C 0.74988 0.12757 0.59909 0.0
C1425 C 0.76165 0.08469 0.65697 0.0
C1426 C 0.76257 0.10341 0.63691 0.0
C1427 C 0.762 0.16041 0.58265 0.0
C1428 C 0.76274 0.14027 0.60059 0.0
H1429 H 0.79215 0.04665 0.69706 0.0
H1430 H 0.79433 0.07621 0.66357 0.0
H1431 H 0.73984 0.10004 0.61479 0.0
H1432 H 0.75564 0.18251 0.52044 0.0
H1433 H 0.75693 0.14939 0.54891 0.0
C1434 C 0.95409 0.02498 0.9418 0.0
C1435 C 0.95329 0.01722 0.96819 0.0
C1436 C 0.93988 0.02242 0.92728 0.0
C1437 C 0.89117 0.00587 0.93261 0.0
H1438 H 0.9178 0.98329 0.86841 0.0
C1439 C 0.84347 0.97455 0.88525 0.0
C1440 C 0.83862 0.98875 0.86297 0.0
C1441 C 0.86245 0.9716 0.89434 0.0
C1442 C 0.91032 0.98938 0.88643 0.0
H1443 H 0.93539 0.00309 0.00076 0.0
H1444 H 0.91084 0.99847 0.97571 0.0
H1445 H 0.93781 0.99662 0.89246 0.0
H1446 H 0.85083 0.00756 0.82994 0.0
H1447 H 0.88401 1.00256 0.84587 0.0
H1448 H 0.86382 0.99853 0.92681 0.0
C1449 C 0.92247 0.00638 0.96593 0.0
C1450 C 0.92158 0.99734 0.89998 0.0
C1451 C 0.93665 0.00893 0.98033 0.0
C1452 C 0.85435 0.99665 0.84729 0.0
C1453 C 0.87332 0.99381 0.85646 0.0
C1454 C 0.8801 0.99768 0.91933 0.0
C1455 C 0.92456 0.01216 0.93902 0.0
C1456 C 0.91212 0.00558 0.92331 0.0
C1457 C 0.87642 0.98307 0.88129 0.0
C1458 C 0.88958 0.98922 0.89623 0.0
H1459 H 0.96654 0.03148 0.93187 0.0
H1460 H 0.94153 0.02758 0.90669 0.0
H1461 H 0.88326 0.01249 0.95018 0.0
H1462 H 0.83149 0.96819 0.89746 0.0
H1463 H 0.86481 0.9628 0.91327 0.0
C1464 C 0.06654 0.00762 0.0235 0.0
C1465 C 0.05511 0.99337 0.03545 0.0
C1466 C 0.07967 0.01304 0.03717 0.0
C1467 C 0.10777 0.99469 0.0942 0.0
H1468 H 0.1056 0.05351 0.09138 0.0
C1469 C 0.16028 0.01237 0.15168 0.0
C1470 C 0.17437 0.02244 0.13554 0.0
C1471 C 0.14073 0.01441 0.14454 0.0
C1472 C 0.10626 0.03705 0.09245 0.0
H1473 H 0.04955 0.97253 0.07031 0.0
H1474 H 0.07244 0.98153 0.09399 0.0
H1475 H 0.08379 0.04386 0.06586 0.0
H1476 H 0.17701 0.04605 0.10237 0.0
H1477 H 0.14356 0.04851 0.08908 0.0
H1478 H 0.1304 0.9876 0.1201 0.0
C1479 C 0.07123 0.9888 0.07421 0.0
C1480 C 0.09396 0.03151 0.07766 0.0
C1481 C 0.05807 0.98361 0.06064 0.0
C1482 C 0.16699 0.03723 0.11453 0.0
C1483 C 0.1476 0.03891 0.1071 0.0
C1484 C 0.11992 1.00019 0.10893 0.0
C1485 C 0.08178 0.00398 0.06291 0.0
C1486 C 0.09476 0.01021 0.07825 0.0
C1487 C 0.13511 0.02615 0.12092 0.0
C1488 C 0.11951 0.02138 0.10812 0.0
H1489 H 0.06437 0.01545 0.00423 0.0
H1490 H 0.0879 0.02452 0.02776 0.0
H1491 H 0.109 0.97814 0.09482 0.0
H1492 H 0.16505 1.00116 0.16834 0.0
H1493 H 0.13098 0.00504 0.15616 0.0
C1494 C 0.98678 0.45976 0.47868 0.0
C1495 C 0.00785 0.45956 0.477 0.0
C1496 C 0.98151 0.44545 0.46691 0.0
C1497 C 0.005 0.4132 0.41314 0.0
H1498 H 0.9529 0.39755 0.43005 0.0
C1499 C 0.99532 0.35509 0.3564 0.0
C1500 C 0.98969 0.33835 0.37296 0.0
C1501 C 0.99009 0.37493 0.3647 0.0
C1502 C 0.96761 0.40164 0.42502 0.0
H1503 H 0.04011 0.4429 0.46439 0.0
H1504 H 0.03118 0.41671 0.44561 0.0
H1505 H 0.96186 0.41657 0.45894 0.0
H1506 H 0.97103 0.32984 0.40855 0.0
H1507 H 0.96268 0.36365 0.42359 0.0
H1508 H 0.01187 0.39656 0.38073 0.0
C1509 C 0.01851 0.42865 0.45468 0.0
C1510 C 0.97267 0.41283 0.44157 0.0
C1511 C 0.02371 0.44334 0.46592 0.0
C1512 C 0.97608 0.34246 0.3959 0.0
C1513 C 0.97113 0.36208 0.40435 0.0
C1514 C 0.00029 0.40142 0.39712 0.0
C1515 C 0.99728 0.43045 0.45346 0.0
C1516 C 0.99169 0.41838 0.43614 0.0
C1517 C 0.97966 0.37799 0.38988 0.0
C1518 C 0.98183 0.39487 0.4032 0.0
H1519 H 0.97409 0.47213 0.48662 0.0
H1520 H 0.96499 0.44746 0.46659 0.0
H1521 H 0.01932 0.41796 0.40752 0.0
H1522 H 0.00546 0.35236 0.33827 0.0
H1523 H 0.99593 0.38717 0.35234 0.0
C1524 C 0.69314 0.24366 0.55998 0.0
C1525 C 0.69739 0.26242 0.54715 0.0
C1526 C 0.67476 0.24428 0.57751 0.0
C1527 C 0.6205 0.27594 0.59456 0.0
H1528 H 0.62583 0.24448 0.66273 0.0
C1529 C 0.54768 0.28025 0.67467 0.0
C1530 C 0.54845 0.26314 0.69433 0.0
C1531 C 0.56535 0.28065 0.65599 0.0
C1532 C 0.62375 0.253 0.64366 0.0
H1533 H 0.68549 0.29651 0.54208 0.0
H1534 H 0.65292 0.29759 0.57217 0.0
H1535 H 0.65707 0.24381 0.63154 0.0
H1536 H 0.56786 0.2327 0.70931 0.0
H1537 H 0.5977 0.23249 0.67614 0.0
H1538 H 0.58717 0.28445 0.60604 0.0
C1539 C 0.664 0.28242 0.56892 0.0
C1540 C 0.64187 0.25275 0.6258 0.0
C1541 C 0.68267 0.28182 0.55184 0.0
C1542 C 0.56683 0.24615 0.69438 0.0
C1543 C 0.58417 0.24625 0.67545 0.0
C1544 C 0.60225 0.27579 0.61223 0.0
C1545 C 0.65993 0.26366 0.58214 0.0
C1546 C 0.64049 0.2642 0.60105 0.0
C1547 C 0.58407 0.26373 0.65624 0.0
C1548 C 0.60351 0.26424 0.63714 0.0
H1549 H 0.70424 0.22847 0.55679 0.0
H1550 H 0.67203 0.22955 0.58731 0.0
H1551 H 0.61893 0.28484 0.57555 0.0
H1552 H 0.53382 0.29373 0.67448 0.0
H1553 H 0.56447 0.29458 0.64192 0.0
C1554 C 0.73105 0.96301 0.83197 0.0
C1555 C 0.74627 0.9604 0.81001 0.0
C1556 C 0.73023 0.94578 0.8512 0.0
C1557 C 0.74874 0.88667 0.85975 0.0
H1558 H 0.73196 0.89165 0.93267 0.0
C1559 C 0.76238 0.81483 0.93898 0.0
C1560 C 0.74507 0.81321 0.9576 0.0
C1561 C 0.76141 0.83319 0.92143 0.0
C1562 C 0.73651 0.89009 0.91232 0.0
H1563 H 0.77334 0.93817 0.79168 0.0
H1564 H 0.77254 0.90879 0.82523 0.0
H1565 H 0.7329 0.92327 0.90179 0.0
H1566 H 0.71346 0.82951 0.9732 0.0
H1567 H 0.71199 0.86221 0.94298 0.0
H1568 H 0.75302 0.85345 0.87039 0.0
C1569 C 0.7606 0.92366 0.82743 0.0
C1570 C 0.737 0.90821 0.89458 0.0
C1571 C 0.76121 0.94064 0.80823 0.0
C1572 C 0.72687 0.83039 0.95875 0.0
C1573 C 0.72612 0.84906 0.94164 0.0
C1574 C 0.74857 0.86862 0.87746 0.0
C1575 C 0.74477 0.92571 0.84887 0.0
C1576 C 0.74334 0.90673 0.86803 0.0
C1577 C 0.74334 0.85058 0.92267 0.0
C1578 C 0.74259 0.87007 0.90395 0.0
H1579 H 0.71927 0.97804 0.83374 0.0
H1580 H 0.71777 0.94802 0.86737 0.0
H1581 H 0.75309 0.88483 0.83946 0.0
H1582 H 0.77658 0.80173 0.93779 0.0
H1583 H 0.77495 0.83391 0.90712 0.0
C1584 C 0.1822 0.28414 0.05163 0.0
C1585 C 0.196 0.26478 0.04513 0.0
C1586 C 0.16374 0.28466 0.06909 0.0
C1587 C 0.14131 0.25368 0.12407 0.0
H1588 H 0.08658 0.28704 0.10587 0.0
C1589 C 0.06631 0.24599 0.19214 0.0
C1590 C 0.04801 0.26302 0.19254 0.0
C1591 C 0.08369 0.2465 0.17338 0.0
C1592 C 0.10167 0.27791 0.11167 0.0
H1593 H 0.20153 0.23082 0.05209 0.0
H1594 H 0.16974 0.23173 0.08314 0.0
H1595 H 0.11818 0.2881 0.07545 0.0
H1596 H 0.03354 0.29422 0.17409 0.0
H1597 H 0.06432 0.29593 0.14218 0.0
H1598 H 0.12547 0.24422 0.1606 0.0
C1599 C 0.17298 0.24649 0.07447 0.0
C1600 C 0.11982 0.27846 0.09403 0.0
C1601 C 0.19111 0.24599 0.0566 0.0
C1602 C 0.04738 0.28071 0.17383 0.0
C1603 C 0.0651 0.28158 0.15547 0.0
C1604 C 0.1233 0.25355 0.14196 0.0
C1605 C 0.15903 0.26582 0.08085 0.0
C1606 C 0.1398 0.26613 0.09993 0.0
C1607 C 0.08368 0.26449 0.15502 0.0
C1608 C 0.10305 0.26538 0.136 0.0
H1609 H 0.18559 0.29883 0.04303 0.0
H1610 H 0.15331 0.29977 0.07376 0.0
H1611 H 0.15654 0.24421 0.12928 0.0
H1612 H 0.0672 0.23219 0.20647 0.0
H1613 H 0.09713 0.23264 0.17351 0.0
C1614 C 0.75513 0.44033 0.3056 0.0
C1615 C 0.74715 0.4615 0.31047 0.0
C1616 C 0.75389 0.4237 0.3251 0.0
C1617 C 0.75005 0.40676 0.39474 0.0
H1618 H 0.72983 0.3634 0.37709 0.0
C1619 C 0.74151 0.33195 0.46714 0.0
C1620 C 0.74657 0.31285 0.45666 0.0
C1621 C 0.74064 0.35116 0.45095 0.0
C1622 C 0.73576 0.37517 0.38235 0.0
H1623 H 0.73281 0.48151 0.34054 0.0
H1624 H 0.73119 0.45201 0.37527 0.0
H1625 H 0.73013 0.39493 0.34651 0.0
H1626 H 0.75572 0.29918 0.42074 0.0
H1627 H 0.75396 0.33216 0.39292 0.0
H1628 H 0.75628 0.3866 0.43035 0.0
C1629 C 0.73795 0.44858 0.35586 0.0
C1630 C 0.7358 0.39337 0.3648 0.0
C1631 C 0.73885 0.46546 0.336 0.0
C1632 C 0.75113 0.31348 0.42966 0.0
C1633 C 0.75013 0.33257 0.41356 0.0
C1634 C 0.75018 0.38837 0.41232 0.0
C1635 C 0.74507 0.42751 0.35043 0.0
C1636 C 0.74324 0.40926 0.37054 0.0
C1637 C 0.7447 0.35177 0.42387 0.0
C1638 C 0.74335 0.37213 0.40617 0.0
H1639 H 0.76241 0.43642 0.28653 0.0
H1640 H 0.75999 0.4077 0.32031 0.0
H1641 H 0.75602 0.41864 0.39967 0.0
H1642 H 0.7382 0.33211 0.48785 0.0
H1643 H 0.73641 0.36556 0.45968 0.0
C1644 C 0.54175 0.00283 0.56609 0.0
C1645 C 0.54961 0.99434 0.5428 0.0
C1646 C 0.55543 0.00554 0.5812 0.0
C1647 C 0.61102 0.98919 0.59139 0.0
H1648 H 0.59738 0.04275 0.61815 0.0
C1649 C 0.66704 1.00232 0.64894 0.0
C1650 C 0.67533 0.01915 0.63724 0.0
C1651 C 0.648 1.00134 0.64333 0.0
C1652 C 0.60126 0.02772 0.61089 0.0
H1653 H 0.57754 0.98304 0.51605 0.0
H1654 H 0.60169 0.98768 0.5424 0.0
H1655 H 0.57208 0.03553 0.59552 0.0
H1656 H 0.66873 0.04946 0.61312 0.0
H1657 H 0.6355 0.04737 0.60266 0.0
H1658 H 0.64031 0.98154 0.606 0.0
C1659 C 0.58503 0.99153 0.54958 0.0
C1660 C 0.5868 0.02351 0.59811 0.0
C1661 C 0.57131 0.98876 0.53456 0.0
C1662 C 0.66302 0.03604 0.62189 0.0
C1663 C 0.6439 0.03498 0.61615 0.0
C1664 C 0.6253 0.99331 0.60427 0.0
C1665 C 0.5772 1.00019 0.57291 0.0
C1666 C 0.59171 0.00428 0.58796 0.0
C1667 C 0.63692 0.01701 0.62571 0.0
C1668 C 0.62065 0.01263 0.61399 0.0
H1669 H 0.525 0.00858 0.57186 0.0
H1670 H 0.54893 0.01229 0.59903 0.0
H1671 H 0.61518 0.97421 0.58395 0.0
H1672 H 0.67598 0.98892 0.66077 0.0
H1673 H 0.64273 0.9875 0.65127 0.0
C1674 C 0.99759 0.96852 0.94223 0.0
C1675 C 0.01224 0.96014 0.9598 0.0
C1676 C 0.99465 0.95581 0.92589 0.0
C1677 C 0.01813 0.90417 0.90108 0.0
H1678 H 0.96046 0.9088 0.89401 0.0
C1679 C 0.0031 0.8445 0.8503 0.0
C1680 C 0.98928 0.83367 0.86563 0.0
C1681 C 0.00281 0.8643 0.85517 0.0
C1682 C 0.97663 0.90743 0.89571 0.0
H1683 H 0.03527 0.93223 0.97442 0.0
H1684 H 0.02991 0.90965 0.94634 0.0
H1685 H 0.96772 0.93412 0.91643 0.0
H1686 H 0.96228 0.83668 0.89551 0.0
H1687 H 0.96247 0.87092 0.90487 0.0
H1688 H 0.02702 0.87687 0.88174 0.0
C1689 C 0.02111 0.92619 0.94449 0.0
C1690 C 0.98084 0.922 0.90835 0.0
C1691 C 0.0242 0.93902 0.96061 0.0
C1692 C 0.9736 0.84425 0.88394 0.0
C1693 C 0.97352 0.86403 0.88907 0.0
C1694 C 0.01394 0.88965 0.88852 0.0
C1695 C 0.00605 0.93436 0.92721 0.0
C1696 C 0.00164 0.92026 0.91162 0.0
C1697 C 0.989 0.8736 0.87575 0.0
C1698 C 0.99314 0.89089 0.88603 0.0
H1699 H 0.98814 0.98482 0.94149 0.0
H1700 H 0.9832 0.9627 0.91257 0.0
H1701 H 0.03433 0.90252 0.90294 0.0
H1702 H 0.01544 0.83706 0.83595 0.0
H1703 H 0.01453 0.8716 0.84409 0.0
C1704 C 0.09633 0.07526 0.0038 0.0
C1705 C 0.09378 0.07762 0.97773 0.0
C1706 C 0.10063 0.09127 0.01366 0.0
C1707 C 0.10451 0.14657 0.99981 0.0
H1708 H 0.15633 0.12153 0.02966 0.0
C1709 C 0.17197 0.18362 0.98474 0.0
C1710 C 0.18807 0.17476 1.00026 0.0
C1711 C 0.15317 0.17795 0.99106 0.0
C1712 C 0.1415 0.12907 0.02226 0.0
H1713 H 0.09219 0.09876 0.94186 0.0
H1714 H 0.09986 0.12683 0.95897 0.0
H1715 H 0.13635 0.09918 0.02295 0.0
H1716 H 0.19618 0.15621 0.0365 0.0
H1717 H 0.16289 0.14724 0.04847 0.0
H1718 H 0.11033 0.17653 0.99818 0.0
C1719 C 0.09843 0.11276 0.9719 0.0
C1720 C 0.13003 0.11609 0.01825 0.0
C1721 C 0.09425 0.09667 0.96202 0.0
C1722 C 0.18401 0.16287 0.02408 0.0
C1723 C 0.16503 0.15763 0.03073 0.0
C1724 C 0.11595 0.15971 0.0041 0.0
C1725 C 0.10244 0.10991 0.99759 0.0
C1726 C 0.11182 0.12454 0.00618 0.0
C1727 C 0.15023 0.1635 0.01315 0.0
C1728 C 0.13506 0.151 0.01449 0.0
H1729 H 0.09591 0.06069 0.01622 0.0
H1730 H 0.10345 0.0887 0.03358 0.0
H1731 H 0.09039 0.15356 0.99068 0.0
H1732 H 0.1748 0.19298 0.96632 0.0
H1733 H 0.14214 0.18306 0.97712 0.0
C1734 C 0.68633 0.56121 0.23653 0.0
C1735 C 0.69631 0.55191 0.25864 0.0
C1736 C 0.66815 0.57858 0.2375 0.0
C1737 C 0.63703 0.62206 0.27731 0.0
H1738 H 0.59417 0.62797 0.23453 0.0
C1739 C 0.55763 0.68996 0.28371 0.0
C1740 C 0.54909 0.69938 0.26064 0.0
C1741 C 0.57509 0.67179 0.28419 0.0
C1742 C 0.60603 0.62683 0.24643 0.0
H1743 H 0.69371 0.55328 0.2996 0.0
H1744 H 0.66252 0.58373 0.30121 0.0
H1745 H 0.62491 0.59725 0.23407 0.0
H1746 H 0.55224 0.69611 0.2201 0.0
H1747 H 0.58221 0.66464 0.22096 0.0
H1748 H 0.61811 0.6517 0.28964 0.0
C1749 C 0.669 0.57787 0.28285 0.0
C1750 C 0.62383 0.60905 0.24616 0.0
C1751 C 0.68709 0.56034 0.28191 0.0
C1752 C 0.55824 0.68953 0.23829 0.0
C1753 C 0.57554 0.67128 0.23881 0.0
C1754 C 0.6192 0.63987 0.27759 0.0
C1755 C 0.65918 0.5874 0.26063 0.0
C1756 C 0.63978 0.60633 0.26147 0.0
C1757 C 0.58446 0.66211 0.26172 0.0
C1758 C 0.60339 0.64269 0.26202 0.0
H1759 H 0.69279 0.55531 0.21818 0.0
H1760 H 0.66141 0.58538 0.21983 0.0
H1761 H 0.64893 0.62091 0.28917 0.0
H1762 H 0.55078 0.69654 0.30155 0.0
H1763 H 0.58105 0.66516 0.30239 0.0
C1764 C 0.32444 0.85441 0.4795 0.0
C1765 C 0.32137 0.84055 0.50191 0.0
C1766 C 0.34329 0.85988 0.47302 0.0
C1767 C 0.39469 0.85416 0.49607 0.0
H1768 H 0.37375 0.91523 0.48675 0.0
C1769 C 0.42375 0.91277 0.53826 0.0
C1770 C 0.4216 0.93298 0.52431 0.0
C1771 C 0.41881 0.89724 0.52809 0.0
C1772 C 0.38019 0.89821 0.48869 0.0
H1773 H 0.33622 0.81929 0.5332 0.0
H1774 H 0.36874 0.82962 0.52277 0.0
H1775 H 0.35187 0.89462 0.48053 0.0
H1776 H 0.41455 0.95243 0.48819 0.0
H1777 H 0.40639 0.92524 0.4701 0.0
H1778 H 0.42261 0.85826 0.50617 0.0
C1779 C 0.35694 0.83609 0.50984 0.0
C1780 C 0.3676 0.88628 0.48498 0.0
C1781 C 0.33824 0.83025 0.51596 0.0
C1782 C 0.41639 0.93689 0.49918 0.0
C1783 C 0.41162 0.92137 0.48896 0.0
C1784 C 0.40737 0.86624 0.49998 0.0
C1785 C 0.359 0.85217 0.48943 0.0
C1786 C 0.37445 0.8641 0.48897 0.0
C1787 C 0.41156 0.90183 0.5039 0.0
C1788 C 0.40007 0.88844 0.49662 0.0
H1789 H 0.31172 0.86216 0.46811 0.0
H1790 H 0.34474 0.87169 0.45654 0.0
H1791 H 0.40044 0.8371 0.49935 0.0
H1792 H 0.42757 0.90957 0.55781 0.0
H1793 H 0.41886 0.88239 0.54012 0.0
C1794 C 0.05632 0.68823 0.78589 0.0
C1795 C 0.0508 0.69934 0.7619 0.0
C1796 C 0.074 0.67033 0.78725 0.0
C1797 C 0.12463 0.64418 0.74828 0.0
H1798 H 0.12335 0.59472 0.79824 0.0
C1799 C 0.19063 0.56523 0.74124 0.0
C1800 C 0.19753 0.55275 0.764 0.0
C1801 C 0.17297 0.583 0.74216 0.0
C1802 C 0.12414 0.60847 0.78435 0.0
H1803 H 0.05968 0.69992 0.72053 0.0
H1804 H 0.09041 0.6693 0.72282 0.0
H1805 H 0.09241 0.62557 0.7977 0.0
H1806 H 0.19084 0.54936 0.80572 0.0
H1807 H 0.15974 0.58028 0.80739 0.0
H1808 H 0.15625 0.62721 0.73487 0.0
C1809 C 0.08121 0.67433 0.74071 0.0
C1810 C 0.10631 0.62625 0.78403 0.0
C1811 C 0.0634 0.69194 0.73937 0.0
C1812 C 0.18602 0.55855 0.7878 0.0
C1813 C 0.16809 0.57627 0.78872 0.0
C1814 C 0.14241 0.62647 0.74861 0.0
C1815 C 0.08689 0.66319 0.76466 0.0
C1816 C 0.10617 0.64436 0.76582 0.0
C1817 C 0.16135 0.58891 0.76587 0.0
C1818 C 0.14246 0.60819 0.76647 0.0
H1819 H 0.04695 0.69336 0.80365 0.0
H1820 H 0.0778 0.66233 0.80608 0.0
H1821 H 0.12546 0.65787 0.73431 0.0
H1822 H 0.19911 0.56148 0.72251 0.0
H1823 H 0.1683 0.59201 0.72409 0.0
C1824 C 0.82252 0.35983 0.48231 0.0
C1825 C 0.81956 0.34231 0.4998 0.0
C1826 C 0.8423 0.36346 0.47657 0.0
C1827 C 0.88279 0.35653 0.51491 0.0
H1828 H 0.90523 0.39043 0.45637 0.0
C1829 C 0.92523 0.41306 0.53305 0.0
C1830 C 0.91833 0.43345 0.51989 0.0
C1831 C 0.92164 0.39592 0.52483 0.0
C1832 C 0.89916 0.381 0.47295 0.0
H1833 H 0.83564 0.31336 0.52222 0.0
H1834 H 0.87005 0.31964 0.51194 0.0
H1835 H 0.88278 0.36968 0.44994 0.0
H1836 H 0.90379 0.45191 0.48692 0.0
H1837 H 0.89711 0.42231 0.47269 0.0
H1838 H 0.89714 0.36911 0.53842 0.0
C1839 C 0.85704 0.33074 0.50301 0.0
C1840 C 0.88647 0.36897 0.46916 0.0
C1841 C 0.83728 0.32712 0.50879 0.0
C1842 C 0.90906 0.43628 0.49746 0.0
C1843 C 0.90548 0.41919 0.48919 0.0
C1844 C 0.89512 0.36877 0.51876 0.0
C1845 C 0.85941 0.34964 0.48829 0.0
C1846 C 0.87741 0.35737 0.49032 0.0
C1847 C 0.91095 0.39888 0.50335 0.0
C1848 C 0.90264 0.38199 0.49804 0.0
H1849 H 0.80925 0.3715 0.47453 0.0
H1850 H 0.84363 0.37814 0.46503 0.0
H1851 H 0.87588 0.34797 0.53171 0.0
H1852 H 0.93242 0.41056 0.55046 0.0
H1853 H 0.92648 0.38051 0.53597 0.0
C1854 C 0.32136 0.95413 0.21857 0.0
C1855 C 0.30934 0.95982 0.24218 0.0
C1856 C 0.33942 0.93647 0.21794 0.0
C1857 C 0.36495 0.88612 0.25851 0.0
H1858 H 0.4151 0.88695 0.20974 0.0
C1859 C 0.44368 0.81926 0.26734 0.0
C1860 C 0.45666 0.81252 0.24469 0.0
C1861 C 0.42593 0.83707 0.26628 0.0
C1862 C 0.40119 0.88625 0.22335 0.0
H1863 H 0.30741 0.95114 0.28363 0.0
H1864 H 0.33816 0.92057 0.2826 0.0
H1865 H 0.38418 0.91777 0.20897 0.0
H1866 H 0.46109 0.81993 0.20304 0.0
H1867 H 0.43033 0.85096 0.20113 0.0
H1868 H 0.38181 0.85469 0.27291 0.0
C1869 C 0.33376 0.92957 0.26442 0.0
C1870 C 0.38332 0.90405 0.22289 0.0
C1871 C 0.31604 0.94734 0.26504 0.0
C1872 C 0.45147 0.82447 0.22092 0.0
C1873 C 0.43381 0.84245 0.21986 0.0
C1874 C 0.38275 0.86837 0.25896 0.0
C1875 C 0.34585 0.9237 0.24089 0.0
C1876 C 0.36488 0.90441 0.2406 0.0
C1877 C 0.42058 0.84903 0.24252 0.0
C1878 C 0.40131 0.86808 0.24152 0.0
H1879 H 0.31686 0.96339 0.20055 0.0
H1880 H 0.34814 0.93261 0.19937 0.0
H1881 H 0.35106 0.88538 0.27216 0.0
H1882 H 0.44704 0.81053 0.28603 0.0
H1883 H 0.41651 0.84158 0.28427 0.0
C1884 C 0.32319 0.45538 0.72318 0.0
C1885 C 0.31141 0.46124 0.74685 0.0
C1886 C 0.34082 0.43739 0.72238 0.0
C1887 C 0.36638 0.38681 0.76246 0.0
H1888 H 0.41576 0.38755 0.7122 0.0
C1889 C 0.44571 0.32057 0.76963 0.0
C1890 C 0.45843 0.31385 0.74683 0.0
C1891 C 0.4277 0.33809 0.76883 0.0
C1892 C 0.40206 0.38685 0.72621 0.0
H1893 H 0.30933 0.45249 0.78828 0.0
H1894 H 0.33984 0.42138 0.78699 0.0
H1895 H 0.38496 0.41839 0.71224 0.0
H1896 H 0.46222 0.32107 0.70517 0.0
H1897 H 0.43095 0.35162 0.70366 0.0
H1898 H 0.38344 0.35532 0.77648 0.0
C1899 C 0.33544 0.43053 0.76889 0.0
C1900 C 0.38425 0.40469 0.72624 0.0
C1901 C 0.31796 0.4486 0.76967 0.0
C1902 C 0.45276 0.32558 0.72315 0.0
C1903 C 0.43482 0.34327 0.72232 0.0
C1904 C 0.38416 0.369 0.76244 0.0
C1905 C 0.34724 0.42452 0.74523 0.0
C1906 C 0.36612 0.40511 0.74453 0.0
C1907 C 0.42184 0.3498 0.74516 0.0
C1908 C 0.40245 0.36871 0.74448 0.0
H1909 H 0.31878 0.46474 0.70518 0.0
H1910 H 0.34921 0.4334 0.70371 0.0
H1911 H 0.3527 0.38611 0.77652 0.0
H1912 H 0.4495 0.31204 0.78825 0.0
H1913 H 0.4185 0.3426 0.78693 0.0
C1914 C 0.18331 0.7827 0.55365 0.0
C1915 C 0.19629 0.76345 0.54575 0.0
C1916 C 0.16469 0.78343 0.57088 0.0
C1917 C 0.13877 0.74976 0.62083 0.0
H1918 H 0.08746 0.79433 0.60967 0.0
C1919 C 0.05961 0.74622 0.68214 0.0
C1920 C 0.04571 0.76499 0.69009 0.0
C1921 C 0.07723 0.74661 0.66362 0.0
C1922 C 0.10168 0.78189 0.6133 0.0
H1923 H 0.19988 0.72985 0.54983 0.0
H1924 H 0.16757 0.73109 0.57988 0.0
H1925 H 0.11973 0.79398 0.57977 0.0
H1926 H 0.0391 0.79895 0.6849 0.0
H1927 H 0.07004 0.79983 0.65265 0.0
H1928 H 0.12095 0.73776 0.65444 0.0
C1929 C 0.17175 0.74565 0.57287 0.0
C1930 C 0.12022 0.78169 0.5961 0.0
C1931 C 0.19021 0.74497 0.55545 0.0
C1932 C 0.04943 0.78428 0.67872 0.0
C1933 C 0.06719 0.78472 0.66027 0.0
C1934 C 0.1203 0.75001 0.63806 0.0
C1935 C 0.1587 0.7649 0.58084 0.0
C1936 C 0.139 0.76552 0.5995 0.0
C1937 C 0.08159 0.76583 0.65279 0.0
C1938 C 0.10139 0.76596 0.63447 0.0
H1939 H 0.1875 0.79723 0.54643 0.0
H1940 H 0.15515 0.7985 0.5767 0.0
H1941 H 0.15298 0.73729 0.62441 0.0
H1942 H 0.05711 0.73116 0.69074 0.0
H1943 H 0.08759 0.73176 0.65806 0.0
C1944 C 0.26322 0.95256 0.32345 0.0
C1945 C 0.24448 0.96513 0.31435 0.0
C1946 C 0.26322 0.93509 0.34235 0.0
C1947 C 0.22744 0.90808 0.38951 0.0
H1948 H 0.27703 0.86015 0.38485 0.0
C1949 C 0.23352 0.83191 0.46355 0.0
C1950 C 0.24645 0.81258 0.456 0.0
C1951 C 0.23308 0.85089 0.44714 0.0
C1952 C 0.26278 0.87309 0.38636 0.0
H1953 H 0.21097 0.96991 0.31837 0.0
H1954 H 0.2108 0.93898 0.35041 0.0
H1955 H 0.27597 0.89184 0.35494 0.0
H1956 H 0.26919 0.79799 0.42535 0.0
H1957 H 0.26799 0.83043 0.39664 0.0
H1958 H 0.21357 0.88882 0.41959 0.0
C1959 C 0.22558 0.94269 0.34365 0.0
C1960 C 0.2624 0.89169 0.36937 0.0
C1961 C 0.2256 0.9604 0.32509 0.0
C1962 C 0.25891 0.81262 0.43172 0.0
C1963 C 0.25842 0.83148 0.41531 0.0
C1964 C 0.22759 0.88926 0.4061 0.0
C1965 C 0.24447 0.92946 0.35227 0.0
C1966 C 0.24479 0.90959 0.37072 0.0
C1967 C 0.24558 0.85106 0.42267 0.0
C1968 C 0.2453 0.87137 0.40493 0.0
H1969 H 0.27796 0.95601 0.31555 0.0
H1970 H 0.27804 0.92586 0.34887 0.0
H1971 H 0.21363 0.92146 0.39158 0.0
H1972 H 0.2236 0.83237 0.48206 0.0
H1973 H 0.22312 0.8654 0.45401 0.0
C1974 C 0.03988 0.66659 0.61229 0.0
C1975 C 0.02373 0.67474 0.63157 0.0
C1976 C 0.04111 0.64757 0.60403 0.0
C1977 C 0.01377 0.60525 0.61234 0.0
H1978 H 0.01778 0.61861 0.53777 0.0
C1979 C 0.98012 0.56516 0.54868 0.0
C1980 C 0.99594 0.55487 0.5303 0.0
C1981 C 0.9838 0.57979 0.56171 0.0
C1982 C 0.01661 0.61472 0.55858 0.0
H1983 H 0.99793 0.66831 0.65966 0.0
H1984 H -0.00046 0.63585 0.64471 0.0
H1985 H 0.02856 0.63978 0.56234 0.0
H1986 H 0.02729 0.55333 0.50967 0.0
H1987 H 0.03309 0.5794 0.53127 0.0
H1988 H 0.00104 0.58051 0.60818 0.0
C1989 C 0.01148 0.64368 0.63605 0.0
C1990 C 0.02315 0.62656 0.57269 0.0
C1991 C 0.01049 0.66245 0.64457 0.0
C1992 C 0.01466 0.56092 0.52357 0.0
C1993 C 0.01811 0.5758 0.53608 0.0
C1994 C 0.00699 0.5935 0.59816 0.0
C1995 C 0.02581 0.6369 0.61444 0.0
C1996 C 0.02178 0.62205 0.59974 0.0
C1997 C 0.00306 0.58476 0.55588 0.0
C1998 C 0.00837 0.59821 0.57118 0.0
H1999 H 0.05063 0.67555 0.60252 0.0
H2000 H 0.05291 0.6422 0.588 0.0
H2001 H 0.01255 0.60132 0.63314 0.0
H2002 H 0.96534 0.56122 0.55384 0.0
H2003 H 0.97183 0.58687 0.57668 0.0
C2004 C 0.32154 0.7316 0.44574 0.0
C2005 C 0.31089 0.74926 0.45861 0.0
C2006 C 0.34018 0.7312 0.42877 0.0
C2007 C 0.37154 0.76646 0.39065 0.0
H2008 H 0.41594 0.7139 0.38648 0.0
C2009 C 0.45213 0.76357 0.32783 0.0
C2010 C 0.46132 0.74622 0.31409 0.0
C2011 C 0.43463 0.76373 0.34682 0.0
C2012 C 0.40366 0.72871 0.38714 0.0
H2013 H 0.31204 0.78016 0.46422 0.0
H2014 H 0.34476 0.77915 0.43548 0.0
H2015 H 0.38382 0.7146 0.4163 0.0
H2016 H 0.4602 0.71521 0.30999 0.0
H2017 H 0.42937 0.71553 0.34229 0.0
H2018 H 0.39134 0.78054 0.36136 0.0
C2019 C 0.33842 0.76582 0.43781 0.0
C2020 C 0.38514 0.7291 0.40431 0.0
C2021 C 0.31969 0.76629 0.45457 0.0
C2022 C 0.45319 0.72881 0.32013 0.0
C2023 C 0.43565 0.72897 0.33892 0.0
C2024 C 0.39007 0.76606 0.37346 0.0
C2025 C 0.34888 0.74833 0.4245 0.0
C2026 C 0.36876 0.74796 0.40629 0.0
C2027 C 0.42589 0.74656 0.35233 0.0
C2028 C 0.4064 0.74716 0.37137 0.0
H2029 H 0.31546 0.71804 0.44871 0.0
H2030 H 0.34759 0.71752 0.41874 0.0
H2031 H 0.35921 0.78124 0.39124 0.0
H2032 H 0.45809 0.77726 0.32334 0.0
H2033 H 0.42786 0.77741 0.35698 0.0
C2034 C 0.24383 0.05845 0.17353 0.0
C2035 C 0.25944 0.04997 0.19001 0.0
C2036 C 0.24478 0.07572 0.15453 0.0
C2037 C 0.26729 0.1211 0.1397 0.0
H2038 H 0.25129 0.12636 0.07178 0.0
C2039 C 0.27479 0.19161 0.06141 0.0
C2040 C 0.25845 0.20041 0.04614 0.0
C2041 C 0.27573 0.17271 0.07805 0.0
C2042 C 0.25559 0.12528 0.09076 0.0
H2043 H 0.28934 0.05191 0.19726 0.0
H2044 H 0.29054 0.08248 0.16527 0.0
H2045 H 0.25146 0.0943 0.10195 0.0
H2046 H 0.23059 0.19558 0.03589 0.0
H2047 H 0.23224 0.16284 0.06467 0.0
H2048 H 0.27112 0.15213 0.12877 0.0
C2049 C 0.27728 0.07609 0.1674 0.0
C2050 C 0.25572 0.10684 0.10807 0.0
C2051 C 0.27649 0.05863 0.18604 0.0
C2052 C 0.24338 0.18946 0.04745 0.0
C2053 C 0.24439 0.17051 0.0639 0.0
C2054 C 0.26709 0.13955 0.12246 0.0
C2055 C 0.26128 0.0851 0.15163 0.0
C2056 C 0.26153 0.10451 0.13281 0.0
C2057 C 0.26049 0.16191 0.07962 0.0
C2058 C 0.26118 0.14196 0.09775 0.0
H2059 H 0.23058 0.05205 0.17563 0.0
H2060 H 0.2322 0.08215 0.1427 0.0
H2061 H 0.27152 0.12004 0.15872 0.0
H2062 H 0.287 0.19917 0.06038 0.0
H2063 H 0.2886 0.16642 0.08945 0.0
C2064 C 0.81934 0.73453 0.94203 0.0
C2065 C 0.80992 0.75127 0.95678 0.0
C2066 C 0.83815 0.73387 0.92528 0.0
C2067 C 0.88331 0.75803 0.9098 0.0
H2068 H 0.89211 0.73485 0.84546 0.0
C2069 C 0.94826 0.76972 0.82447 0.0
C2070 C 0.95963 0.75197 0.812 0.0
C2071 C 0.93083 0.76895 0.84324 0.0
C2072 C 0.88997 0.74122 0.86345 0.0
H2073 H 0.81332 0.78037 0.96565 0.0
H2074 H 0.84558 0.77946 0.93635 0.0
H2075 H 0.86019 0.73491 0.87559 0.0
H2076 H 0.9626 0.71902 0.81133 0.0
H2077 H 0.93153 0.71801 0.8428 0.0
H2078 H 0.9129 0.76495 0.897 0.0
C2079 C 0.83875 0.76657 0.93784 0.0
C2080 C 0.87166 0.74117 0.88088 0.0
C2081 C 0.82002 0.76717 0.95462 0.0
C2082 C 0.95358 0.73327 0.81948 0.0
C2083 C 0.93591 0.73262 0.8378 0.0
C2084 C 0.90147 0.75835 0.89217 0.0
C2085 C 0.84812 0.74995 0.92277 0.0
C2086 C 0.86798 0.7496 0.90436 0.0
C2087 C 0.92421 0.7505 0.8498 0.0
C2088 C 0.90503 0.74996 0.86877 0.0
H2089 H 0.81234 0.72178 0.9436 0.0
H2090 H 0.84498 0.72053 0.91454 0.0
H2091 H 0.88144 0.76427 0.92781 0.0
H2092 H 0.95258 0.78435 0.81943 0.0
H2093 H 0.92218 0.78301 0.85213 0.0
C2094 C 0.27285 0.54813 0.67076 0.0
C2095 C 0.26099 0.55193 0.69499 0.0
C2096 C 0.27353 0.56504 0.65097 0.0
C2097 C 0.26727 0.62212 0.64305 0.0
H2098 H 0.25883 0.62336 0.57247 0.0
C2099 C 0.25337 0.69989 0.57439 0.0
C2100 C 0.26057 0.69981 0.54783 0.0
C2101 C 0.25435 0.68104 0.5909 0.0
C2102 C 0.26159 0.62321 0.59196 0.0
H2103 H 0.23945 0.57629 0.71677 0.0
H2104 H 0.24089 0.60529 0.68283 0.0
H2105 H 0.25925 0.5915 0.60332 0.0
H2106 H 0.27408 0.6796 0.51778 0.0
H2107 H 0.27641 0.64655 0.54675 0.0
H2108 H 0.27012 0.65337 0.63208 0.0
C2109 C 0.24998 0.58947 0.67911 0.0
C2110 C 0.26176 0.60492 0.60965 0.0
C2111 C 0.24919 0.57275 0.69861 0.0
C2112 C 0.26854 0.68027 0.53817 0.0
C2113 C 0.26971 0.66128 0.55482 0.0
C2114 C 0.26742 0.6402 0.6254 0.0
C2115 C 0.26245 0.58594 0.65522 0.0
C2116 C 0.26416 0.60437 0.63553 0.0
C2117 C 0.26276 0.66137 0.58151 0.0
C2118 C 0.26411 0.64128 0.59969 0.0
H2119 H 0.28204 0.53228 0.66735 0.0
H2120 H 0.28324 0.56186 0.6327 0.0
H2121 H 0.26957 0.62206 0.66275 0.0
H2122 H 0.24663 0.71458 0.58254 0.0
H2123 H 0.24816 0.68203 0.61107 0.0
C2124 C 0.34313 0.97682 0.39001 0.0
C2125 C 0.3314 0.99284 0.37323 0.0
C2126 C 0.3624 0.97809 0.39504 0.0
C2127 C 0.38141 0.01707 0.40768 0.0
H2128 H 0.43909 0.982 0.39724 0.0
C2129 C 0.44814 0.03254 0.44878 0.0
C2130 C 0.45771 0.0148 0.4653 0.0
C2131 C 0.43543 0.03062 0.4317 0.0
C2132 C 0.42304 0.992 0.40001 0.0
H2133 H 0.33086 0.02222 0.34787 0.0
H2134 H 0.36411 0.02435 0.35694 0.0
H2135 H 0.41185 0.97459 0.37807 0.0
H2136 H 0.46192 0.98111 0.47654 0.0
H2137 H 0.44063 0.97776 0.44637 0.0
H2138 H 0.39214 0.03395 0.43043 0.0
C2139 C 0.35867 0.01076 0.36577 0.0
C2140 C 0.40758 0.98766 0.38927 0.0
C2141 C 0.33965 0.00949 0.36067 0.0
C2142 C 0.45475 0.99515 0.4641 0.0
C2143 C 0.44276 0.99311 0.44659 0.0
C2144 C 0.39677 0.02137 0.41841 0.0
C2145 C 0.36981 0.99547 0.38354 0.0
C2146 C 0.38666 1.00001 0.39346 0.0
C2147 C 0.43274 0.01082 0.43052 0.0
C2148 C 0.41762 0.00866 0.41507 0.0
H2149 H 0.33715 0.96378 0.39968 0.0
H2150 H 0.37084 0.96624 0.40902 0.0
H2151 H 0.36524 0.02666 0.41115 0.0
H2152 H 0.44997 0.0479 0.44958 0.0
H2153 H 0.42755 0.04456 0.41966 0.0
C2154 C 0.85078 0.82482 0.9784 0.0
C2155 C 0.83633 0.82179 1.00024 0.0
C2156 C 0.85776 0.84291 0.97374 0.0
C2157 C 0.85709 0.88756 0.01007 0.0
H2158 H 0.91549 0.87415 0.97872 0.0
C2159 C 0.91475 0.91656 0.04761 0.0
C2160 C 0.9195 0.93319 0.02993 0.0
C2161 C 0.90789 0.90151 0.03923 0.0
C2162 C 0.89923 0.87788 0.98768 0.0
H2163 H 0.81494 0.83661 0.03156 0.0
H2164 H 0.82732 0.86716 0.02467 0.0
H2165 H 0.8926 0.85568 0.96905 0.0
H2166 H 0.92306 0.94614 0.98961 0.0
H2167 H 0.91132 0.91947 0.97481 0.0
H2168 H 0.8647 0.9087 0.03006 0.0
C2169 C 0.83394 0.85613 0.0108 0.0
C2170 C 0.88574 0.86756 0.98185 0.0
C2171 C 0.82652 0.83841 0.01489 0.0
C2172 C 0.91959 0.9333 0.00346 0.0
C2173 C 0.9129 0.9181 0.99504 0.0
C2174 C 0.87077 0.89716 0.01659 0.0
C2175 C 0.8512 0.85769 0.99165 0.0
C2176 C 0.86445 0.87175 0.99351 0.0
C2177 C 0.90577 0.90295 0.01309 0.0
C2178 C 0.89198 0.89214 0.00584 0.0
H2179 H 0.85798 0.81242 0.96625 0.0
H2180 H 0.86956 0.84417 0.95726 0.0
H2181 H 0.84087 0.89249 0.01868 0.0
H2182 H 0.91454 0.91631 0.06812 0.0
H2183 H 0.90255 0.88984 0.05343 0.0
C2184 C 0.66927 0.18862 0.4861 0.0
C2185 C 0.68436 0.17605 0.50188 0.0
C2186 C 0.64942 0.18551 0.48936 0.0
C2187 C 0.61181 0.15742 0.52133 0.0
H2188 H 0.62825 0.12761 0.46115 0.0
C2189 C 0.58962 0.08348 0.50876 0.0
C2190 C 0.58794 0.08094 0.48368 0.0
C2191 C 0.59329 0.10187 0.51329 0.0
C2192 C 0.62295 0.13634 0.4776 0.0
H2193 H 0.6895 0.1528 0.53576 0.0
H2194 H 0.65476 0.14689 0.54093 0.0
H2195 H 0.64861 0.14983 0.46787 0.0
H2196 H 0.58705 0.09565 0.44408 0.0
H2197 H 0.59371 0.12774 0.45179 0.0
H2198 H 0.58649 0.14296 0.53148 0.0
C2199 C 0.65833 0.15923 0.52627 0.0
C2200 C 0.63468 0.149 0.48147 0.0
C2201 C 0.6783 0.16231 0.52301 0.0
C2202 C 0.58846 0.09741 0.46352 0.0
C2203 C 0.5922 0.1157 0.46798 0.0
C2204 C 0.59982 0.14473 0.51732 0.0
C2205 C 0.64442 0.16974 0.50829 0.0
C2206 C 0.62943 0.15937 0.50347 0.0
C2207 C 0.5956 0.11769 0.49265 0.0
C2208 C 0.60558 0.1338 0.49559 0.0
H2209 H 0.67342 0.19933 0.46959 0.0
H2210 H 0.63893 0.19363 0.47518 0.0
H2211 H 0.6077 0.16523 0.53852 0.0
H2212 H 0.58898 0.07091 0.52455 0.0
H2213 H 0.59591 0.10298 0.53246 0.0
C2214 C 0.81663 0.4469 0.26333 0.0
C2215 C 0.80996 0.45932 0.24043 0.0
C2216 C 0.83426 0.42908 0.26272 0.0
C2217 C 0.88345 0.40331 0.22101 0.0
H2218 H 0.88228 0.35445 0.27203 0.0
C2219 C 0.9516 0.32395 0.21993 0.0
C2220 C 0.95684 0.31226 0.24379 0.0
C2221 C 0.93396 0.34188 0.21873 0.0
C2222 C 0.88312 0.368 0.2578 0.0
H2223 H 0.81705 0.4625 0.19875 0.0
H2224 H 0.84806 0.43145 0.19759 0.0
H2225 H 0.85146 0.38501 0.271 0.0
H2226 H 0.94746 0.31069 0.28515 0.0
H2227 H 0.91699 0.34178 0.28316 0.0
H2228 H 0.9152 0.3862 0.20786 0.0
C2229 C 0.83955 0.43555 0.21616 0.0
C2230 C 0.86528 0.38567 0.25719 0.0
C2231 C 0.82165 0.45334 0.21678 0.0
C2232 C 0.94402 0.31924 0.26641 0.0
C2233 C 0.92632 0.33705 0.26521 0.0
C2234 C 0.90134 0.38559 0.22164 0.0
C2235 C 0.84612 0.42302 0.23917 0.0
C2236 C 0.86512 0.40376 0.23894 0.0
C2237 C 0.92086 0.34869 0.24135 0.0
C2238 C 0.90158 0.36763 0.24019 0.0
H2239 H 0.80803 0.45081 0.28195 0.0
H2240 H 0.83877 0.42021 0.28092 0.0
H2241 H 0.8842 0.4169 0.20682 0.0
H2242 H 0.96113 0.3192 0.20209 0.0
H2243 H 0.93038 0.35016 0.19993 0.0
C2244 C 0.09235 0.57697 0.50766 0.0
C2245 C 0.08861 0.57993 0.482 0.0
C2246 C 0.09645 0.59298 0.51765 0.0
C2247 C 0.10067 0.64811 0.50472 0.0
H2248 H 0.1545 0.62091 0.52934 0.0
C2249 C 0.16946 0.68359 0.48795 0.0
C2250 C 0.18614 0.67377 0.50241 0.0
C2251 C 0.15057 0.67821 0.4947 0.0
C2252 C 0.13916 0.629 0.52348 0.0
H2253 H 0.08459 0.60206 0.44707 0.0
H2254 H 0.0924 0.63002 0.46428 0.0
H2255 H 0.13331 0.59967 0.52312 0.0
H2256 H 0.19532 0.65375 0.53744 0.0
H2257 H 0.16186 0.64517 0.5502 0.0
H2258 H 0.10731 0.67757 0.50398 0.0
C2259 C 0.09175 0.61559 0.4769 0.0
C2260 C 0.12698 0.61668 0.51975 0.0
C2261 C 0.08745 0.59958 0.46697 0.0
C2262 C 0.18273 0.66105 0.52574 0.0
C2263 C 0.16363 0.65613 0.53289 0.0
C2264 C 0.11289 0.66059 0.50872 0.0
C2265 C 0.0973 0.61203 0.50195 0.0
C2266 C 0.10787 0.62596 0.50975 0.0
C2267 C 0.14811 0.66311 0.51619 0.0
C2268 C 0.13261 0.65109 0.51747 0.0
H2269 H 0.09321 0.5619 0.51952 0.0
H2270 H 0.10037 0.58993 0.53714 0.0
H2271 H 0.08597 0.65569 0.49701 0.0
H2272 H 0.17177 0.6937 0.46999 0.0
H2273 H 0.13896 0.68413 0.48148 0.0
C2274 C 0.68438 0.0593 0.73794 0.0
C2275 C 0.69448 0.04992 0.75993 0.0
C2276 C 0.66641 0.07691 0.73909 0.0
C2277 C 0.63725 0.12099 0.77848 0.0
H2278 H 0.59218 0.12674 0.73924 0.0
C2279 C 0.55908 0.19042 0.78664 0.0
C2280 C 0.54932 0.19883 0.76424 0.0
C2281 C 0.57637 0.17206 0.787 0.0
C2282 C 0.60468 0.12569 0.75011 0.0
H2283 H 0.69219 0.0512 0.80087 0.0
H2284 H 0.66162 0.08213 0.80266 0.0
H2285 H 0.62264 0.09582 0.73776 0.0
H2286 H 0.55044 0.19393 0.7246 0.0
H2287 H 0.58015 0.16257 0.72515 0.0
H2288 H 0.6194 0.15099 0.7906 0.0
C2289 C 0.66781 0.07617 0.78431 0.0
C2290 C 0.62228 0.10777 0.74926 0.0
C2291 C 0.68556 0.05839 0.78324 0.0
C2292 C 0.55727 0.18807 0.74238 0.0
C2293 C 0.57444 0.16981 0.74273 0.0
C2294 C 0.61968 0.139 0.77922 0.0
C2295 C 0.65794 0.08586 0.76223 0.0
C2296 C 0.63895 0.10507 0.76336 0.0
C2297 C 0.58441 0.1614 0.76499 0.0
C2298 C 0.60306 0.14178 0.76494 0.0
H2299 H 0.69058 0.0533 0.71961 0.0
H2300 H 0.65946 0.08382 0.72157 0.0
H2301 H 0.64977 0.11978 0.78939 0.0
H2302 H 0.55337 0.19798 0.80399 0.0
H2303 H 0.58326 0.1661 0.80471 0.0
C2304 C 0.74405 0.5609 0.17716 0.0
C2305 C 0.76068 0.55059 0.19173 0.0
C2306 C 0.74532 0.57811 0.15829 0.0
C2307 C 0.77261 0.61991 0.1392 0.0
H2308 H 0.7503 0.62725 0.07474 0.0
C2309 C 0.77952 0.68887 0.0576 0.0
C2310 C 0.76145 0.69919 0.04562 0.0
C2311 C 0.78061 0.67007 0.07456 0.0
C2312 C 0.75645 0.62555 0.09273 0.0
H2313 H 0.79229 0.54949 0.19629 0.0
H2314 H 0.79422 0.58002 0.16425 0.0
H2315 H 0.74996 0.59578 0.10572 0.0
H2316 H 0.73056 0.6973 0.04156 0.0
H2317 H 0.73258 0.66467 0.07064 0.0
H2318 H 0.77889 0.64981 0.12629 0.0
C2319 C 0.78001 0.57502 0.16775 0.0
C2320 C 0.75625 0.60748 0.11053 0.0
C2321 C 0.77884 0.5576 0.18636 0.0
C2322 C 0.74478 0.68987 0.05039 0.0
C2323 C 0.74594 0.67104 0.06707 0.0
C2324 C 0.7728 0.63801 0.12139 0.0
C2325 C 0.76321 0.58559 0.15355 0.0
C2326 C 0.76417 0.60448 0.13411 0.0
C2327 C 0.76379 0.66094 0.07956 0.0
C2328 C 0.76457 0.64116 0.098 0.0
H2329 H 0.72983 0.5559 0.18054 0.0
H2330 H 0.73202 0.58588 0.14786 0.0
H2331 H 0.77858 0.6183 0.15729 0.0
H2332 H 0.79281 0.69537 0.05399 0.0
H2333 H 0.79472 0.66258 0.08356 0.0
C2334 C 0.93492 0.5203 0.47552 0.0
C2335 C 0.95576 0.51914 0.46479 0.0
C2336 C 0.92142 0.5163 0.46126 0.0
C2337 C 0.92284 0.48611 0.40945 0.0
H2338 H 0.86349 0.51639 0.4146 0.0
C2339 C 0.85057 0.49183 0.35676 0.0
C2340 C 0.83331 0.48956 0.37522 0.0
C2341 C 0.87023 0.48825 0.36456 0.0
C2342 C 0.88005 0.50777 0.41316 0.0
H2343 H 0.97913 0.51193 0.43152 0.0
H2344 H 0.95534 0.50616 0.40587 0.0
H2345 H 0.88709 0.52928 0.43297 0.0
H2346 H 0.82377 0.47783 0.41484 0.0
H2347 H 0.85804 0.4719 0.42847 0.0
H2348 H 0.91542 0.46476 0.38914 0.0
C2349 C 0.94934 0.51035 0.42515 0.0
C2350 C 0.89352 0.51513 0.42363 0.0
C2351 C 0.9628 0.51433 0.43948 0.0
C2352 C 0.83679 0.4801 0.40042 0.0
C2353 C 0.85639 0.47654 0.40817 0.0
C2354 C 0.90927 0.47882 0.3987 0.0
C2355 C 0.92865 0.51079 0.43614 0.0
C2356 C 0.91497 0.50417 0.42239 0.0
C2357 C 0.87261 0.48236 0.39075 0.0
C2358 C 0.88774 0.48942 0.40105 0.0
H2359 H 0.9294 0.52332 0.49534 0.0
H2360 H 0.90566 0.51641 0.47045 0.0
H2361 H 0.93932 0.47725 0.40838 0.0
H2362 H 0.84833 0.49894 0.33713 0.0
H2363 H 0.88262 0.4928 0.35087 0.0
C2364 C 0.15277 0.51433 0.6544 0.0
C2365 C 0.16934 0.52162 0.63992 0.0
C2366 C 0.13435 0.51762 0.64374 0.0
C2367 C 0.12923 0.51479 0.57925 0.0
H2368 H 0.07204 0.51367 0.60588 0.0
C2369 C 0.0751 0.49662 0.51946 0.0
C2370 C 0.05939 0.48723 0.53251 0.0
C2371 C 0.08838 0.50156 0.53318 0.0
C2372 C 0.0881 0.51366 0.59836 0.0
H2373 H 0.17847 0.5414 0.60572 0.0
H2374 H 0.14609 0.54765 0.58734 0.0
H2375 H 0.09108 0.5279 0.63017 0.0
H2376 H 0.04789 0.47254 0.56982 0.0
H2377 H 0.07146 0.48056 0.59358 0.0
H2378 H 0.12684 0.49973 0.54818 0.0
C2379 C 0.1474 0.53895 0.6065 0.0
C2380 C 0.09883 0.5221 0.61207 0.0
C2381 C 0.16585 0.53554 0.61708 0.0
C2382 C 0.05932 0.48027 0.55913 0.0
C2383 C 0.07269 0.48513 0.57287 0.0
C2384 C 0.11864 0.5062 0.56574 0.0
C2385 C 0.13256 0.52817 0.61855 0.0
C2386 C 0.11954 0.52268 0.60265 0.0
C2387 C 0.08655 0.49685 0.56023 0.0
C2388 C 0.098 0.5054 0.57515 0.0
H2389 H 0.15522 0.50358 0.67211 0.0
H2390 H 0.12302 0.50938 0.65364 0.0
H2391 H 0.14543 0.51434 0.57189 0.0
H2392 H 0.07599 0.50192 0.4989 0.0
H2393 H 0.099 0.51043 0.52272 0.0
C2394 C 0.55299 0.78379 0.18487 0.0
C2395 C 0.54573 0.76584 0.19172 0.0
C2396 C 0.57057 0.78381 0.16617 0.0
C2397 C 0.6043 0.75696 0.11173 0.0
H2398 H 0.64647 0.77889 0.12892 0.0
C2399 C 0.68624 0.74683 0.04965 0.0
C2400 C 0.69655 0.76253 0.04769 0.0
C2401 C 0.66746 0.74755 0.06641 0.0
C2402 C 0.63477 0.77303 0.12345 0.0
H2403 H 0.55057 0.73397 0.18403 0.0
H2404 H 0.5811 0.73406 0.15074 0.0
H2405 H 0.61422 0.77989 0.1586 0.0
H2406 H 0.69452 0.79178 0.06126 0.0
H2407 H 0.66181 0.79326 0.09017 0.0
H2408 H 0.62457 0.75044 0.07636 0.0
C2409 C 0.57327 0.74817 0.15984 0.0
C2410 C 0.61624 0.77354 0.14062 0.0
C2411 C 0.5558 0.74811 0.17883 0.0
C2412 C 0.68733 0.77918 0.06263 0.0
C2413 C 0.66848 0.77997 0.07933 0.0
C2414 C 0.62274 0.75668 0.09436 0.0
C2415 C 0.58116 0.76588 0.15368 0.0
C2416 C 0.60076 0.76549 0.13504 0.0
C2417 C 0.65828 0.7641 0.08164 0.0
C2418 C 0.63834 0.76467 0.09996 0.0
H2419 H 0.54526 0.7977 0.19428 0.0
H2420 H 0.57596 0.79785 0.1616 0.0
H2421 H 0.59263 0.7508 0.1067 0.0
H2422 H 0.69279 0.73372 0.03848 0.0
H2423 H 0.66043 0.73483 0.06774 0.0
C2424 C 0.66106 0.51179 0.15037 0.0
C2425 C 0.67423 0.52353 0.13548 0.0
C2426 C 0.6417 0.51338 0.14288 0.0
C2427 C 0.62863 0.51629 0.08095 0.0
H2428 H 0.57301 0.51314 0.11288 0.0
C2429 C 0.56941 0.5051 0.02277 0.0
C2430 C 0.5543 0.4949 0.03545 0.0
C2431 C 0.58342 0.50888 0.03658 0.0
C2432 C 0.58864 0.51364 0.1038 0.0
H2433 H 0.67559 0.54923 0.1047 0.0
H2434 H 0.64208 0.5516 0.09127 0.0
H2435 H 0.59506 0.5238 0.13698 0.0
H2436 H 0.5434 0.47904 0.07216 0.0
H2437 H 0.56824 0.48479 0.09598 0.0
H2438 H 0.6231 0.50508 0.04848 0.0
C2439 C 0.64689 0.54089 0.10831 0.0
C2440 C 0.60107 0.52004 0.11752 0.0
C2441 C 0.6661 0.53944 0.11591 0.0
C2442 C 0.55461 0.48715 0.06182 0.0
C2443 C 0.56875 0.4907 0.0756 0.0
C2444 C 0.61645 0.50956 0.06749 0.0
C2445 C 0.63547 0.52662 0.12039 0.0
C2446 C 0.62108 0.52166 0.10601 0.0
C2447 C 0.58284 0.50229 0.06337 0.0
C2448 C 0.5962 0.50834 0.07855 0.0
H2449 H 0.66668 0.49959 0.16584 0.0
H2450 H 0.633 0.50243 0.15274 0.0
H2451 H 0.64432 0.5167 0.07198 0.0
H2452 H 0.56952 0.51144 0.00254 0.0
H2453 H 0.59393 0.51797 0.02642 0.0
C2454 C 0.42003 0.41782 0.04066 0.0
C2455 C 0.41538 0.43683 0.02402 0.0
C2456 C 0.41754 0.39961 0.03399 0.0
C2457 C 0.40408 0.37718 0.98167 0.0
H2458 H 0.36768 0.35639 0.0387 0.0
C2459 C 0.32712 0.35739 0.9816 0.0
C2460 C 0.32275 0.3411 1.00028 0.0
C2461 C 0.3469 0.36096 0.97795 0.0
C2462 C 0.37832 0.36147 0.02272 0.0
H2463 H 0.40624 0.45172 0.98667 0.0
H2464 H 0.40152 0.41994 0.97496 0.0
H2465 H 0.38766 0.37858 0.04627 0.0
H2466 H 0.33638 0.31437 0.02772 0.0
H2467 H 0.37056 0.32076 0.02135 0.0
H2468 H 0.39277 0.36137 0.9578 0.0
C2469 C 0.40722 0.41892 0.99308 0.0
C2470 C 0.38986 0.3742 0.02706 0.0
C2471 C 0.40961 0.43717 0.99986 0.0
C2472 C 0.33917 0.32705 0.0131 0.0
C2473 C 0.35883 0.33063 0.00945 0.0
C2474 C 0.39222 0.36455 0.97726 0.0
C2475 C 0.41029 0.40017 0.01056 0.0
C2476 C 0.40229 0.38286 0.00647 0.0
C2477 C 0.36238 0.3484 0.99315 0.0
C2478 C 0.37877 0.35719 0.99768 0.0
H2479 H 0.42464 0.41732 0.05934 0.0
H2480 H 0.42028 0.38537 0.04773 0.0
H2481 H 0.41376 0.3834 0.9655 0.0
H2482 H 0.31488 0.36814 0.97106 0.0
H2483 H 0.34932 0.37481 0.96526 0.0
C2484 C 0.05591 0.1884 0.28392 0.0
C2485 C 0.049 0.19921 0.26038 0.0
C2486 C 0.07373 0.17056 0.28443 0.0
C2487 C 0.12241 0.14365 0.24249 0.0
H2488 H 0.12361 0.09524 0.29486 0.0
C2489 C 0.1895 0.06473 0.23532 0.0
C2490 C 0.19665 0.0526 0.25811 0.0
C2491 C 0.17177 0.08256 0.23622 0.0
C2492 C 0.12378 0.10868 0.28023 0.0
H2493 H 0.05559 0.19906 0.2189 0.0
H2494 H 0.08643 0.16841 0.21975 0.0
H2495 H 0.09269 0.12599 0.29557 0.0
H2496 H 0.19022 0.04968 0.29982 0.0
H2497 H 0.15941 0.08061 0.30152 0.0
H2498 H 0.15347 0.12653 0.22722 0.0
C2499 C 0.07827 0.17376 0.23792 0.0
C2500 C 0.1059 0.12643 0.28063 0.0
C2501 C 0.06036 0.19138 0.23745 0.0
C2502 C 0.18531 0.05869 0.28186 0.0
C2503 C 0.16745 0.07642 0.28279 0.0
C2504 C 0.14029 0.12597 0.24214 0.0
C2505 C 0.08538 0.16303 0.26139 0.0
C2506 C 0.10479 0.1442 0.26163 0.0
C2507 C 0.16037 0.0888 0.25998 0.0
C2508 C 0.14129 0.10803 0.26086 0.0
H2509 H 0.04753 0.19371 0.30203 0.0
H2510 H 0.07861 0.16291 0.30293 0.0
H2511 H 0.12253 0.15707 0.2278 0.0
H2512 H 0.19785 0.06065 0.21665 0.0
H2513 H 0.16687 0.09131 0.21814 0.0
C2514 C 0.24758 0.33046 0.9659 0.0
C2515 C 0.2442 0.31342 0.95692 0.0
C2516 C 0.2471 0.34953 0.94948 0.0
C2517 C 0.23264 0.37697 0.88309 0.0
H2518 H 0.26084 0.41579 0.89583 0.0
C2519 C 0.22914 0.45535 0.81555 0.0
C2520 C 0.24706 0.46269 0.81065 0.0
C2521 C 0.22781 0.43828 0.83469 0.0
C2522 C 0.25313 0.40498 0.89169 0.0
H2523 H 0.23792 0.3034 0.92351 0.0
H2524 H 0.23789 0.33505 0.89521 0.0
H2525 H 0.26135 0.38397 0.92578 0.0
H2526 H 0.27744 0.45811 0.82278 0.0
H2527 H 0.27541 0.4283 0.85537 0.0
H2528 H 0.22593 0.39713 0.84796 0.0
C2529 C 0.24012 0.33471 0.91493 0.0
C2530 C 0.25306 0.38671 0.90931 0.0
C2531 C 0.24042 0.31599 0.9313 0.0
C2532 C 0.2634 0.45284 0.8258 0.0
C2533 C 0.26215 0.43575 0.8448 0.0
C2534 C 0.23328 0.39481 0.86517 0.0
C2535 C 0.2433 0.35205 0.92355 0.0
C2536 C 0.2429 0.3722 0.90531 0.0
C2537 C 0.24441 0.42806 0.84947 0.0
C2538 C 0.24349 0.40917 0.86912 0.0
H2539 H 0.25092 0.32896 0.98544 0.0
H2540 H 0.24959 0.36222 0.9574 0.0
H2541 H 0.22387 0.36706 0.87918 0.0
H2542 H 0.216 0.46295 0.80487 0.0
H2543 H 0.21362 0.43328 0.83801 0.0
C2544 C 0.31925 0.26597 0.95283 0.0
C2545 C 0.31029 0.24902 0.95737 0.0
C2546 C 0.33801 0.26518 0.93607 0.0
C2547 C 0.37207 0.23781 0.88184 0.0
H2548 H 0.41252 0.26328 0.89651 0.0
C2549 C 0.45277 0.23214 0.81747 0.0
C2550 C 0.45965 0.25043 0.81202 0.0
C2551 C 0.43511 0.23113 0.83576 0.0
C2552 C 0.40132 0.25626 0.89194 0.0
H2553 H 0.3147 0.21754 0.94844 0.0
H2554 H 0.34743 0.21614 0.91908 0.0
H2555 H 0.38107 0.26282 0.92735 0.0
H2556 H 0.45375 0.2817 0.82269 0.0
H2557 H 0.42318 0.27995 0.85447 0.0
H2558 H 0.39233 0.23133 0.84636 0.0
C2559 C 0.33969 0.23026 0.92817 0.0
C2560 C 0.38322 0.256 0.90969 0.0
C2561 C 0.32091 0.23104 0.94507 0.0
C2562 C 0.44884 0.2674 0.82608 0.0
C2563 C 0.43131 0.26636 0.8445 0.0
C2564 C 0.39021 0.23804 0.8641 0.0
C2565 C 0.34847 0.24738 0.92333 0.0
C2566 C 0.36823 0.2469 0.90483 0.0
C2567 C 0.42406 0.24827 0.84948 0.0
C2568 C 0.40503 0.2474 0.8688 0.0
H2569 H 0.3116 0.28013 0.96193 0.0
H2570 H 0.34404 0.27879 0.93268 0.0
H2571 H 0.36079 0.23095 0.87717 0.0
H2572 H 0.46121 0.21846 0.80787 0.0
H2573 H 0.43031 0.21676 0.83942 0.0
C2574 C 0.4454 0.53279 0.94696 0.0
C2575 C 0.45107 0.51976 0.96971 0.0
C2576 C 0.43225 0.5283 0.93264 0.0
C2577 C 0.41497 0.48375 0.92132 0.0
H2578 H 0.37268 0.52837 0.88766 0.0
C2579 C 0.34168 0.47543 0.88828 0.0
C2580 C 0.33235 0.491 0.86909 0.0
C2581 C 0.36119 0.47476 0.89448 0.0
C2582 C 0.38479 0.51571 0.89634 0.0
H2583 H 0.44747 0.49208 0.99563 0.0
H2584 H 0.42348 0.48462 0.97144 0.0
H2585 H 0.39396 0.53727 0.91371 0.0
H2586 H 0.33805 0.51551 0.83823 0.0
H2587 H 0.37222 0.51371 0.84846 0.0
H2588 H 0.40498 0.46214 0.90459 0.0
C2589 C 0.42941 0.49818 0.96439 0.0
C2590 C 0.3969 0.52084 0.91148 0.0
C2591 C 0.44264 0.50271 0.97865 0.0
C2592 C 0.34447 0.50349 0.85344 0.0
C2593 C 0.36406 0.50262 0.85943 0.0
C2594 C 0.4027 0.47858 0.90621 0.0
C2595 C 0.42454 0.51061 0.94082 0.0
C2596 C 0.41196 0.50494 0.92441 0.0
C2597 C 0.37172 0.48952 0.88136 0.0
C2598 C 0.38731 0.49453 0.89381 0.0
H2599 H 0.45183 0.54594 0.93968 0.0
H2600 H 0.42894 0.53816 0.91454 0.0
H2601 H 0.42676 0.47115 0.93063 0.0
H2602 H 0.33311 0.465 0.90003 0.0
H2603 H 0.36686 0.46421 0.91123 0.0
C2604 C 0.6564 0.68797 0.02463 0.0
C2605 C 0.67037 0.6909 0.0022 0.0
C2606 C 0.64893 0.6702 0.02956 0.0
C2607 C 0.65033 0.62253 1.00031 0.0
H2608 H 0.58953 0.64462 0.01444 0.0
C2609 C 0.59678 0.59393 0.95461 0.0
C2610 C 0.58938 0.57889 0.97248 0.0
C2611 C 0.60325 0.60911 0.96325 0.0
C2612 C 0.60647 0.63829 0.01064 0.0
H2613 H 0.69002 0.67646 0.96953 0.0
H2614 H 0.67664 0.64602 0.97735 0.0
H2615 H 0.61202 0.66388 0.02433 0.0
H2616 H 0.58068 0.56895 0.01296 0.0
H2617 H 0.59208 0.59572 0.02819 0.0
H2618 H 0.64446 0.59777 0.98489 0.0
C2619 C 0.67136 0.65701 0.99147 0.0
C2620 C 0.61945 0.64907 0.01662 0.0
C2621 C 0.67912 0.67454 0.98688 0.0
C2622 C 0.58639 0.58051 0.99897 0.0
C2623 C 0.59282 0.59576 0.00763 0.0
C2624 C 0.63735 0.61204 0.99392 0.0
C2625 C 0.65493 0.65551 0.01171 0.0
C2626 C 0.64158 0.64164 0.01084 0.0
C2627 C 0.60235 0.60933 0.98982 0.0
C2628 C 0.6154 0.6201 0.99849 0.0
H2629 H 0.64983 0.7003 0.03698 0.0
H2630 H 0.63703 0.66902 0.04602 0.0
H2631 H 0.66721 0.61605 0.99606 0.0
H2632 H 0.59906 0.59292 0.9341 0.0
H2633 H 0.61051 0.61956 0.94927 0.0
C2634 C 0.95091 0.82229 0.71945 0.0
C2635 C 0.95974 0.81377 0.7425 0.0
C2636 C 0.93328 0.84027 0.71852 0.0
C2637 C 0.9024 0.88646 0.7541 0.0
H2638 H 0.85891 0.88984 0.71341 0.0
C2639 C 0.82204 0.95149 0.76333 0.0
C2640 C 0.81118 0.95967 0.74169 0.0
C2641 C 0.84036 0.93435 0.76244 0.0
C2642 C 0.87097 0.88942 0.72464 0.0
H2643 H 0.95699 0.81844 0.7825 0.0
H2644 H 0.92674 0.84964 0.78084 0.0
H2645 H 0.89 0.85935 0.7137 0.0
H2646 H 0.81206 0.95615 0.7017 0.0
H2647 H 0.84388 0.92628 0.70012 0.0
H2648 H 0.88352 0.91649 0.76501 0.0
C2649 C 0.9333 0.84243 0.76335 0.0
C2650 C 0.88895 0.87177 0.72482 0.0
C2651 C 0.95077 0.82436 0.76433 0.0
C2652 C 0.81962 0.95021 0.71894 0.0
C2653 C 0.83797 0.93293 0.71807 0.0
C2654 C 0.88449 0.9041 0.75387 0.0
C2655 C 0.92406 0.85066 0.7405 0.0
C2656 C 0.90497 0.86986 0.7397 0.0
C2657 C 0.8487 0.92461 0.73986 0.0
C2658 C 0.8683 0.90591 0.73929 0.0
H2659 H 0.95767 0.81515 0.70196 0.0
H2660 H 0.92708 0.84621 0.70036 0.0
H2661 H 0.91441 0.88601 0.76543 0.0
H2662 H 0.81621 0.95811 0.78133 0.0
H2663 H 0.8477 0.92846 0.77984 0.0
C2664 C 0.5059 0.16008 0.64716 0.0
C2665 C 0.51904 0.17281 0.63591 0.0
C2666 C 0.50842 0.14119 0.63779 0.0
C2667 C 0.52749 0.12276 0.5741 0.0
H2668 H 0.49952 0.07997 0.60525 0.0
C2669 C 0.51687 0.05569 0.52598 0.0
C2670 C 0.49643 0.0534 0.53042 0.0
C2671 C 0.52144 0.07095 0.53686 0.0
C2672 C 0.50726 0.09197 0.59638 0.0
H2673 H 0.54711 0.17463 0.60952 0.0
H2674 H 0.55259 0.14081 0.59435 0.0
H2675 H 0.50916 0.09995 0.63287 0.0
H2676 H 0.46453 0.06596 0.54862 0.0
H2677 H 0.47266 0.09238 0.56826 0.0
H2678 H 0.52605 0.1141 0.53762 0.0
C2679 C 0.53953 0.14586 0.60922 0.0
C2680 C 0.51286 0.10338 0.61215 0.0
C2681 C 0.53665 0.16505 0.61812 0.0
C2682 C 0.48037 0.06758 0.54459 0.0
C2683 C 0.48502 0.08254 0.55597 0.0
C2684 C 0.52234 0.11098 0.5584 0.0
C2685 C 0.52434 0.1347 0.61726 0.0
C2686 C 0.52247 0.11942 0.60121 0.0
C2687 C 0.50578 0.08368 0.55305 0.0
C2688 C 0.51165 0.09596 0.56941 0.0
H2689 H 0.49225 0.16587 0.66102 0.0
H2690 H 0.49646 0.13308 0.64481 0.0
H2691 H 0.53449 0.13518 0.56473 0.0
H2692 H 0.52989 0.04455 0.51651 0.0
H2693 H 0.53761 0.0715 0.53455 0.0
C2694 C 0.50226 0.34844 0.85087 0.0
C2695 C 0.48813 0.33729 0.86449 0.0
C2696 C 0.5015 0.36788 0.85754 0.0
C2697 C 0.49132 0.38463 0.91963 0.0
H2698 H 0.51082 0.43277 0.88597 0.0
C2699 C 0.49666 0.44703 0.97486 0.0
C2700 C 0.51324 0.45647 0.96782 0.0
C2701 C 0.49462 0.43268 0.96044 0.0
C2702 C 0.50573 0.41913 0.89546 0.0
H2703 H 0.45957 0.33954 0.89159 0.0
H2704 H 0.45815 0.37362 0.90319 0.0
H2705 H 0.4997 0.41211 0.86008 0.0
H2706 H 0.54266 0.45526 0.94262 0.0
H2707 H 0.53853 0.43049 0.91625 0.0
H2708 H 0.49773 0.39107 0.95474 0.0
C2709 C 0.47023 0.36703 0.88802 0.0
C2710 C 0.49906 0.40758 0.88077 0.0
C2711 C 0.47105 0.34753 0.88147 0.0
C2712 C 0.52897 0.44943 0.94745 0.0
C2713 C 0.52673 0.43511 0.93257 0.0
C2714 C 0.49811 0.39595 0.93413 0.0
C2715 C 0.48663 0.37628 0.87788 0.0
C2716 C 0.49153 0.39037 0.89285 0.0
C2717 C 0.50919 0.42708 0.93866 0.0
C2718 C 0.50509 0.41348 0.92232 0.0
H2719 H 0.51548 0.34109 0.8374 0.0
H2720 H 0.51415 0.37482 0.84911 0.0
H2721 H 0.48643 0.37095 0.92939 0.0
H2722 H 0.48449 0.45137 0.99092 0.0
H2723 H 0.48097 0.42672 0.96574 0.0
C2724 C 0.48689 0.85068 0.36059 0.0
C2725 C 0.48598 0.83342 0.37971 0.0
C2726 C 0.48216 0.87085 0.3676 0.0
C2727 C 0.50285 0.88356 0.41146 0.0
H2728 H 0.46736 0.941 0.41325 0.0
C2729 C 0.51794 0.93914 0.47102 0.0
C2730 C 0.51112 0.96093 0.46365 0.0
C2731 C 0.51409 0.92536 0.45695 0.0
C2732 C 0.47766 0.92512 0.4124 0.0
H2733 H 0.47539 0.82417 0.41988 0.0
H2734 H 0.46759 0.85942 0.43217 0.0
H2735 H 0.45561 0.91577 0.39563 0.0
H2736 H 0.49565 0.98553 0.43555 0.0
H2737 H 0.49046 0.96156 0.40964 0.0
H2738 H 0.52522 0.89252 0.4273 0.0
C2739 C 0.47201 0.85735 0.41193 0.0
C2740 C 0.47074 0.91073 0.40263 0.0
C2741 C 0.47672 0.83718 0.40496 0.0
C2742 C 0.50156 0.96873 0.4412 0.0
C2743 C 0.49812 0.95499 0.42673 0.0
C2744 C 0.5099 0.89789 0.42078 0.0
C2745 C 0.4765 0.87378 0.39368 0.0
C2746 C 0.48316 0.8898 0.40273 0.0
C2747 C 0.50363 0.93317 0.43497 0.0
C2748 C 0.4972 0.91872 0.42201 0.0
H2749 H 0.4938 0.84826 0.3409 0.0
H2750 H 0.48572 0.88341 0.35331 0.0
H2751 H 0.51276 0.86744 0.41118 0.0
H2752 H 0.52569 0.93277 0.48802 0.0
H2753 H 0.51845 0.90868 0.46409 0.0
C2754 C 0.50877 0.54317 0.06332 0.0
C2755 C 0.49637 0.55218 0.04341 0.0
C2756 C 0.51224 0.55592 0.07919 0.0
C2757 C 0.49631 0.61163 0.09355 0.0
H2758 H 0.55388 0.59747 0.10811 0.0
C2759 C 0.52882 0.67496 0.10137 0.0
C2760 C 0.52035 0.67929 0.12665 0.0
C2761 C 0.53394 0.65439 0.0955 0.0
C2762 C 0.5378 0.60142 0.10421 0.0
H2763 H 0.47739 0.5812 0.02465 0.0
H2764 H 0.48456 0.6037 0.05084 0.0
H2765 H 0.54232 0.57182 0.09105 0.0
H2766 H 0.51437 0.66521 0.16636 0.0
H2767 H 0.52303 0.62943 0.15586 0.0
H2768 H 0.49224 0.64161 0.1054 0.0
C2769 C 0.49093 0.58679 0.05525 0.0
C2770 C 0.53103 0.58677 0.09472 0.0
C2771 C 0.48697 0.57395 0.03994 0.0
C2772 C 0.52065 0.66239 0.14663 0.0
C2773 C 0.52573 0.64183 0.14071 0.0
C2774 C 0.50313 0.62622 0.10268 0.0
C2775 C 0.50401 0.57798 0.07472 0.0
C2776 C 0.51034 0.59198 0.08857 0.0
C2777 C 0.5306 0.63813 0.11488 0.0
C2778 C 0.52396 0.62138 0.10753 0.0
H2779 H 0.5162 0.52633 0.06623 0.0
H2780 H 0.52193 0.54853 0.09437 0.0
H2781 H 0.48016 0.61603 0.08977 0.0
H2782 H 0.52924 0.6877 0.08576 0.0
H2783 H 0.5377 0.65175 0.07542 0.0
loop_
_geom_bond_atom_site_label_1
_geom_bond_atom_site_label_2
_geom_bond_distance
_geom_bond_site_symmetry_2
_ccdc_geom_bond_type
C0 C2 1.422 . S
C0 C4 1.415 . S
C0 N6 1.369 . S
C1 C2 1.421 1_655 S
C1 C3 1.417 . S
C1 C13 1.422 . S
C2 C0 1.422 . S
C2 C1 1.421 1_455 S
C2 N12 1.359 . S
C3 C1 1.417 . S
C3 C5 1.329 1_655 S
C3 H22 0.930 . S
C4 C0 1.415 . S
C4 C5 1.437 . S
C4 C8 1.413 . S
C5 C3 1.329 1_455 S
C5 C4 1.437 . S
C5 H27 0.929 . S
N6 C0 1.369 . S
N6 C7 1.338 . S
N6 Gd11 2.622 . S
C7 N6 1.338 . S
C7 C9 1.378 . S
C7 H19 0.929 1_545 S
C8 C4 1.413 . S
C8 C9 1.348 . S
C8 H24 0.931 . S
C9 C7 1.378 . S
C9 C8 1.348 . S
C9 H25 0.930 1_545 S
Gd10 N30 2.622 . S
Gd10 N37 2.570 1_655 S
Gd10 O44 2.353 1_564 S
Gd10 O45 2.468 . S
Gd10 O46 2.427 . S
Gd10 O48 2.388 1_565 S
Gd10 O49 2.386 1_655 S
Gd10 O53 2.307 1_654 S
Gd10 C63 2.805 . S
Gd11 N6 2.622 . S
Gd11 N12 2.570 . S
Gd11 O43 2.386 1_455 S
Gd11 O47 2.326 1_556 S
Gd11 O50 2.353 1_556 S
Gd11 O51 2.468 . S
Gd11 O52 2.427 . S
Gd11 O54 2.388 1_545 S
Gd11 C75 2.805 . S
N12 C2 1.359 . S
N12 Gd11 2.570 . S
N12 C14 1.343 1_455 S
C13 C1 1.422 . S
C13 C15 1.321 . S
C13 H21 0.931 . S
C14 N12 1.343 1_655 S
C14 C15 1.390 . S
C14 H16 0.931 . S
C15 C13 1.321 . S
C15 C14 1.390 . S
C15 H17 0.930 . S
H16 C14 0.931 . S
H17 C15 0.930 . S
H18 C41 0.931 . S
H19 C7 0.929 1_565 S
H20 C42 0.930 . S
H21 C13 0.931 . S
H22 C3 0.930 . S
H23 C32 0.929 . S
H24 C8 0.931 . S
H25 C9 0.930 1_565 S
H26 C64 0.930 . S
H27 C5 0.929 . S
H28 C33 0.931 . S
H29 C34 0.930 . S
N30 Gd10 2.622 . S
N30 C31 1.369 . S
N30 C32 1.338 1_565 S
C31 N30 1.369 . S
C31 C35 1.415 . S
C31 C38 1.422 1_655 S
C32 H23 0.929 . S
C32 N30 1.338 1_545 S
C32 C34 1.378 . S
C33 H28 0.931 . S
C33 C34 1.348 1_565 S
C33 C35 1.413 . S
C34 H29 0.930 . S
C34 C32 1.378 . S
C34 C33 1.348 1_545 S
C35 C31 1.415 . S
C35 C33 1.413 . S
C35 C65 1.437 1_655 S
H36 C65 0.929 . S
N37 Gd10 2.570 1_455 S
N37 C38 1.359 . S
N37 C41 1.343 . S
C38 C31 1.422 1_455 S
C38 N37 1.359 . S
C38 C40 1.421 . S
C39 C40 1.422 . S
C39 C42 1.321 . S
C39 H66 0.931 . S
C40 C38 1.421 . S
C40 C39 1.422 . S
C40 C64 1.417 . S
C41 H18 0.931 . S
C41 N37 1.343 . S
C41 C42 1.390 . S
C42 H20 0.930 . S
C42 C39 1.321 . S
C42 C41 1.390 . S
O43 Gd11 2.386 1_655 S
O43 C55 1.265 . S
O44 Gd10 2.353 1_546 S
O44 C55 1.242 . S
O45 Gd10 2.468 . S
O45 C63 1.263 . S
O46 Gd10 2.427 . S
O46 C63 1.252 . S
O47 Gd11 2.326 1_554 S
O47 C56 1.246 1_455 S
O48 Gd10 2.388 1_545 S
O48 C56 1.252 . S
O49 Gd10 2.386 1_455 S
O49 C67 1.265 . S
O50 Gd11 2.353 1_554 S
O50 C67 1.242 1_545 S
O51 Gd11 2.468 . S
O51 C75 1.263 . S
O52 Gd11 2.427 . S
O52 C75 1.252 . S
O53 Gd10 2.307 1_456 S
O53 C68 1.261 . S
O54 Gd11 2.388 1_565 S
O54 C68 1.252 . S
C55 O43 1.265 . S
C55 O44 1.242 . S
C56 O47 1.246 1_655 S
C56 O48 1.252 . S
C57 C60 1.394 . S
C57 C62 1.370 . S
C57 C63 1.500 . S
C58 C61 1.383 . S
C58 C62 1.395 . S
C59 C60 1.396 . S
C59 C61 1.365 . S
C59 H76 0.929 . S
C60 C57 1.394 . S
C60 C59 1.396 . S
C60 H77 0.930 . S
C61 C58 1.383 . S
C61 C59 1.365 . S
C61 H78 0.931 . S
C62 C57 1.370 . S
C62 C58 1.395 . S
C62 H79 0.930 . S
C63 Gd10 2.805 . S
C63 O45 1.263 . S
C63 O46 1.252 . S
C63 C57 1.500 . S
C64 H26 0.930 . S
C64 C40 1.417 . S
C64 C65 1.329 . S
C65 C35 1.437 1_455 S
C65 H36 0.929 . S
C65 C64 1.329 . S
H66 C39 0.931 . S
C67 O49 1.265 . S
C67 O50 1.242 1_565 S
C68 O53 1.261 . S
C68 O54 1.252 . S
C69 C72 1.394 . S
C69 C74 1.370 . S
C69 C75 1.500 . S
C70 C73 1.383 . S
C70 C74 1.395 . S
C71 C72 1.396 . S
C71 C73 1.365 . S
C71 H80 0.929 . S
C72 C69 1.394 . S
C72 C71 1.396 . S
C72 H81 0.930 . S
C73 C70 1.383 . S
C73 C71 1.365 . S
C73 H82 0.931 . S
C74 C69 1.370 . S
C74 C70 1.395 . S
C74 H83 0.930 . S
C75 Gd11 2.805 . S
C75 O51 1.263 . S
C75 O52 1.252 . S
C75 C69 1.500 . S
H76 C59 0.929 . S
H77 C60 0.930 . S
H78 C61 0.931 . S
H79 C62 0.930 . S
H80 C71 0.929 . S
H81 C72 0.930 . S
H82 C73 0.931 . S
H83 C74 0.930 . S
C84 C86 1.422 . S
C84 C88 1.415 . S
C84 N90 1.369 . S
C85 C86 1.421 . S
C85 C87 1.417 . S
C85 C97 1.422 . S
C86 C84 1.422 . S
C86 C85 1.421 . S
C86 N96 1.359 . S
C87 C85 1.417 . S
C87 C89 1.329 . S
C87 H106 0.930 . S
C88 C84 1.415 . S
C88 C89 1.437 . S
C88 C92 1.413 . S
C89 C87 1.329 . S
C89 C88 1.437 . S
C89 H111 0.929 . S
N90 C84 1.369 . S
N90 C91 1.338 . S
N90 Gd95 2.622 . S
C91 N90 1.338 . S
C91 C93 1.378 . S
C91 H103 0.929 . S
C92 C88 1.413 . S
C92 C93 1.348 . S
C92 H108 0.931 . S
C93 C91 1.378 . S
C93 C92 1.348 . S
C93 H109 0.930 . S
Gd94 N114 2.622 . S
Gd94 N121 2.570 . S
Gd94 O128 2.353 1_655 S
Gd94 O129 2.468 1_655 S
Gd94 O130 2.427 . S
Gd94 O132 2.388 . S
Gd94 O133 2.386 . S
Gd94 O137 2.307 1_655 S
Gd94 C147 2.805 . S
Gd95 N90 2.622 . S
Gd95 N96 2.570 . S
Gd95 O127 2.386 . S
Gd95 O131 2.307 1_455 S
Gd95 O134 2.353 1_455 S
Gd95 O135 2.468 . S
Gd95 O136 2.427 . S
Gd95 O138 2.388 . S
Gd95 C159 2.805 . S
N96 C86 1.359 . S
N96 Gd95 2.570 . S
N96 C98 1.343 . S
C97 C85 1.422 . S
C97 C99 1.321 . S
C97 H105 0.931 . S
C98 N96 1.343 . S
C98 C99 1.390 . S
C98 H100 0.931 . S
C99 C97 1.321 . S
C99 C98 1.390 . S
C99 H101 0.930 . S
H100 C98 0.931 . S
H101 C99 0.930 . S
H102 C125 0.931 . S
H103 C91 0.929 . S
H104 C126 0.930 . S
H105 C97 0.931 . S
H106 C87 0.930 . S
H107 C116 0.929 . S
H108 C92 0.931 . S
H109 C93 0.930 . S
H110 C148 0.930 . S
H111 C89 0.929 . S
H112 C117 0.931 . S
H113 C118 0.930 . S
N114 Gd94 2.622 . S
N114 C115 1.369 . S
N114 C116 1.338 . S
C115 N114 1.369 . S
C115 C119 1.415 . S
C115 C122 1.422 . S
C116 H107 0.929 . S
C116 N114 1.338 . S
C116 C118 1.378 . S
C117 H112 0.931 . S
C117 C118 1.348 . S
C117 C119 1.413 . S
C118 H113 0.930 . S
C118 C116 1.378 . S
C118 C117 1.348 . S
C119 C115 1.415 . S
C119 C117 1.413 . S
C119 C149 1.437 . S
H120 C149 0.929 . S
N121 Gd94 2.570 . S
N121 C122 1.359 . S
N121 C125 1.343 . S
C122 C115 1.422 . S
C122 N121 1.359 . S
C122 C124 1.421 . S
C123 C124 1.422 . S
C123 C126 1.321 . S
C123 H150 0.931 . S
C124 C122 1.421 . S
C124 C123 1.422 . S
C124 C148 1.417 . S
C125 H102 0.931 . S
C125 N121 1.343 . S
C125 C126 1.390 . S
C126 H104 0.930 . S
C126 C123 1.321 . S
C126 C125 1.390 . S
O127 Gd95 2.386 . S
O127 C139 1.265 . S
O128 Gd94 2.353 1_455 S
O128 C139 1.242 . S
O129 Gd94 2.468 1_455 S
O129 C147 1.263 1_455 S
O130 Gd94 2.427 . S
O130 C147 1.252 . S
O131 Gd95 2.307 1_655 S
O131 C140 1.261 . S
O132 Gd94 2.388 . S
O132 C140 1.252 . S
O133 Gd94 2.386 . S
O133 C151 1.265 . S
O134 Gd95 2.353 1_655 S
O134 C151 1.242 . S
O135 Gd95 2.468 . S
O135 C159 1.263 . S
O136 Gd95 2.427 . S
O136 C159 1.252 . S
O137 Gd94 2.307 1_455 S
O137 C152 1.261 . S
O138 Gd95 2.388 . S
O138 C152 1.252 . S
C139 O127 1.265 . S
C139 O128 1.242 . S
C140 O131 1.261 . S
C140 O132 1.252 . S
C141 C144 1.397 1_455 S
C141 C146 1.367 . S
C141 C147 1.500 1_455 S
C142 C145 1.383 . S
C142 C146 1.395 . S
C143 C144 1.396 . S
C143 C145 1.365 1_655 S
C143 H160 0.929 . S
C144 C141 1.397 1_655 S
C144 C143 1.396 . S
C144 H161 0.930 . S
C145 C142 1.383 . S
C145 C143 1.365 1_455 S
C145 H162 0.931 . S
C146 C141 1.367 . S
C146 C142 1.395 . S
C146 H163 0.930 . S
C147 Gd94 2.805 . S
C147 O129 1.263 1_655 S
C147 O130 1.252 . S
C147 C141 1.500 1_655 S
C148 H110 0.930 . S
C148 C124 1.417 . S
C148 C149 1.329 . S
C149 C119 1.437 . S
C149 H120 0.929 . S
C149 C148 1.329 . S
H150 C123 0.931 . S
C151 O133 1.265 . S
C151 O134 1.242 . S
C152 O137 1.261 . S
C152 O138 1.252 . S
C153 C156 1.394 . S
C153 C158 1.370 1_455 S
C153 C159 1.500 . S
C154 C157 1.383 1_655 S
C154 C158 1.395 . S
C155 C156 1.396 . S
C155 C157 1.365 . S
C155 H164 0.929 . S
C156 C153 1.394 . S
C156 C155 1.396 . S
C156 H165 0.930 . S
C157 C154 1.383 1_455 S
C157 C155 1.365 . S
C157 H166 0.931 . S
C158 C153 1.370 1_655 S
C158 C154 1.395 . S
C158 H167 0.930 . S
C159 Gd95 2.805 . S
C159 O135 1.263 . S
C159 O136 1.252 . S
C159 C153 1.500 . S
H160 C143 0.929 . S
H161 C144 0.930 . S
H162 C145 0.931 . S
H163 C146 0.930 . S
H164 C155 0.929 . S
H165 C156 0.930 . S
H166 C157 0.931 . S
H167 C158 0.930 . S
C168 C170 1.422 . S
C168 C172 1.415 . S
C168 N174 1.369 . S
C169 C170 1.421 . S
C169 C171 1.417 . S
C169 C181 1.422 . S
C170 C168 1.422 . S
C170 C169 1.421 . S
C170 N180 1.359 . S
C171 C169 1.417 . S
C171 C173 1.329 . S
C171 H190 0.930 . S
C172 C168 1.415 . S
C172 C173 1.437 . S
C172 C176 1.413 . S
C173 C171 1.329 . S
C173 C172 1.437 . S
C173 H195 0.929 . S
N174 C168 1.369 . S
N174 C175 1.338 . S
N174 Gd179 2.622 . S
C175 N174 1.338 . S
C175 C177 1.378 . S
C175 H187 0.929 . S
C176 C172 1.413 . S
C176 C177 1.348 . S
C176 H192 0.931 . S
C177 C175 1.378 . S
C177 C176 1.348 . S
C177 H193 0.930 . S
Gd178 N198 2.622 . S
Gd178 N205 2.570 . S
Gd178 O212 2.353 . S
Gd178 O213 2.468 . S
Gd178 O214 2.427 . S
Gd178 O216 2.388 . S
Gd178 O217 2.386 . S
Gd178 O221 2.307 . S
Gd178 C231 2.805 . S
Gd179 N174 2.622 . S
Gd179 N180 2.570 . S
Gd179 O211 2.386 . S
Gd179 O215 2.307 . S
Gd179 O218 2.353 . S
Gd179 O219 2.468 . S
Gd179 O220 2.427 . S
Gd179 O222 2.388 . S
Gd179 C243 2.805 . S
N180 C170 1.359 . S
N180 Gd179 2.570 . S
N180 C182 1.343 . S
C181 C169 1.422 . S
C181 C183 1.321 . S
C181 H189 0.931 . S
C182 N180 1.343 . S
C182 C183 1.390 . S
C182 H184 0.931 . S
C183 C181 1.321 . S
C183 C182 1.390 . S
C183 H185 0.930 . S
H184 C182 0.931 . S
H185 C183 0.930 . S
H186 C209 0.931 . S
H187 C175 0.929 . S
H188 C210 0.930 . S
H189 C181 0.931 . S
H190 C171 0.930 . S
H191 C200 0.929 . S
H192 C176 0.931 . S
H193 C177 0.930 . S
H194 C232 0.930 . S
H195 C173 0.929 . S
H196 C201 0.931 . S
H197 C202 0.930 . S
N198 Gd178 2.622 . S
N198 C199 1.369 . S
N198 C200 1.338 . S
C199 N198 1.369 . S
C199 C203 1.415 . S
C199 C206 1.422 . S
C200 H191 0.929 . S
C200 N198 1.338 . S
C200 C202 1.378 . S
C201 H196 0.931 . S
C201 C202 1.348 . S
C201 C203 1.413 . S
C202 H197 0.930 . S
C202 C200 1.378 . S
C202 C201 1.348 . S
C203 C199 1.415 . S
C203 C201 1.413 . S
C203 C233 1.437 . S
H204 C233 0.929 . S
N205 Gd178 2.570 . S
N205 C206 1.359 . S
N205 C209 1.343 . S
C206 C199 1.422 . S
C206 N205 1.359 . S
C206 C208 1.421 . S
C207 C208 1.422 . S
C207 C210 1.321 . S
C207 H234 0.931 . S
C208 C206 1.421 . S
C208 C207 1.422 . S
C208 C232 1.417 . S
C209 H186 0.931 . S
C209 N205 1.343 . S
C209 C210 1.390 . S
C210 H188 0.930 . S
C210 C207 1.321 . S
C210 C209 1.390 . S
O211 Gd179 2.386 . S
O211 C223 1.265 . S
O212 Gd178 2.353 . S
O212 C223 1.242 . S
O213 Gd178 2.468 . S
O213 C231 1.263 . S
O214 Gd178 2.427 . S
O214 C231 1.252 . S
O215 Gd179 2.307 . S
O215 C224 1.261 . S
O216 Gd178 2.388 . S
O216 C224 1.252 . S
O217 Gd178 2.386 . S
O217 C235 1.265 . S
O218 Gd179 2.353 . S
O218 C235 1.242 . S
O219 Gd179 2.468 . S
O219 C243 1.263 . S
O220 Gd179 2.427 . S
O220 C243 1.252 . S
O221 Gd178 2.307 . S
O221 C236 1.261 . S
O222 Gd179 2.388 . S
O222 C236 1.252 . S
C223 O211 1.265 . S
C223 O212 1.242 . S
C224 O215 1.261 . S
C224 O216 1.252 . S
C225 C228 1.394 . S
C225 C230 1.370 . S
C225 C231 1.500 . S
C226 C229 1.383 . S
C226 C230 1.395 . S
C227 C228 1.396 . S
C227 C229 1.365 . S
C227 H244 0.929 . S
C228 C225 1.394 . S
C228 C227 1.396 . S
C228 H245 0.930 . S
C229 C226 1.383 . S
C229 C227 1.365 . S
C229 H246 0.931 . S
C230 C225 1.370 . S
C230 C226 1.395 . S
C230 H247 0.930 . S
C231 Gd178 2.805 . S
C231 O213 1.263 . S
C231 O214 1.252 . S
C231 C225 1.500 . S
C232 H194 0.930 . S
C232 C208 1.417 . S
C232 C233 1.329 . S
C233 C203 1.437 . S
C233 H204 0.929 . S
C233 C232 1.329 . S
H234 C207 0.931 . S
C235 O217 1.265 . S
C235 O218 1.242 . S
C236 O221 1.261 . S
C236 O222 1.252 . S
C237 C240 1.394 . S
C237 C242 1.370 . S
C237 C243 1.500 . S
C238 C241 1.383 . S
C238 C242 1.395 . S
C239 C240 1.396 . S
C239 C241 1.365 . S
C239 H248 0.929 . S
C240 C237 1.394 . S
C240 C239 1.396 . S
C240 H249 0.930 . S
C241 C238 1.383 . S
C241 C239 1.365 . S
C241 H250 0.931 . S
C242 C237 1.370 . S
C242 C238 1.395 . S
C242 H251 0.930 . S
C243 Gd179 2.805 . S
C243 O219 1.263 . S
C243 O220 1.252 . S
C243 C237 1.500 . S
H244 C227 0.929 . S
H245 C228 0.930 . S
H246 C229 0.931 . S
H247 C230 0.930 . S
H248 C239 0.929 . S
H249 C240 0.930 . S
H250 C241 0.931 . S
H251 C242 0.930 . S
C252 C254 1.422 . S
C252 C256 1.415 . S
C252 N258 1.369 . S
C253 C254 1.421 . S
C253 C255 1.417 . S
C253 C265 1.422 . S
C254 C252 1.422 . S
C254 C253 1.421 . S
C254 N264 1.359 . S
C255 C253 1.417 . S
C255 C257 1.329 . S
C255 H274 0.930 . S
C256 C252 1.415 . S
C256 C257 1.437 . S
C256 C260 1.413 . S
C257 C255 1.329 . S
C257 C256 1.437 . S
C257 H279 0.929 . S
N258 C252 1.369 . S
N258 C259 1.338 . S
N258 Gd263 2.622 . S
C259 N258 1.338 . S
C259 C261 1.378 . S
C259 H271 0.929 . S
C260 C256 1.413 . S
C260 C261 1.348 . S
C260 H276 0.931 . S
C261 C259 1.378 . S
C261 C260 1.348 . S
C261 H277 0.930 . S
Gd262 N282 2.622 . S
Gd262 N289 2.570 . S
Gd262 O296 2.353 1_545 S
Gd262 O297 2.468 . S
Gd262 O298 2.427 . S
Gd262 O300 2.388 . S
Gd262 O301 2.386 . S
Gd262 O305 2.307 1_545 S
Gd262 C315 2.805 . S
Gd263 N258 2.622 . S
Gd263 N264 2.570 . S
Gd263 O295 2.386 . S
Gd263 O299 2.307 1_565 S
Gd263 O302 2.353 1_565 S
Gd263 O303 2.468 1_565 S
Gd263 O304 2.427 . S
Gd263 O306 2.388 . S
Gd263 C327 2.805 . S
N264 C254 1.359 . S
N264 Gd263 2.570 . S
N264 C266 1.343 . S
C265 C253 1.422 . S
C265 C267 1.321 . S
C265 H273 0.931 . S
C266 N264 1.343 . S
C266 C267 1.390 . S
C266 H268 0.931 . S
C267 C265 1.321 . S
C267 C266 1.390 . S
C267 H269 0.930 . S
H268 C266 0.931 . S
H269 C267 0.930 . S
H270 C293 0.931 . S
H271 C259 0.929 . S
H272 C294 0.930 . S
H273 C265 0.931 . S
H274 C255 0.930 . S
H275 C284 0.929 . S
H276 C260 0.931 . S
H277 C261 0.930 . S
H278 C316 0.930 . S
H279 C257 0.929 . S
H280 C285 0.931 . S
H281 C286 0.930 . S
N282 Gd262 2.622 . S
N282 C283 1.369 . S
N282 C284 1.338 . S
C283 N282 1.369 . S
C283 C287 1.415 . S
C283 C290 1.422 . S
C284 H275 0.929 . S
C284 N282 1.338 . S
C284 C286 1.378 . S
C285 H280 0.931 . S
C285 C286 1.348 . S
C285 C287 1.413 . S
C286 H281 0.930 . S
C286 C284 1.378 . S
C286 C285 1.348 . S
C287 C283 1.415 . S
C287 C285 1.413 . S
C287 C317 1.437 . S
H288 C317 0.929 . S
N289 Gd262 2.570 . S
N289 C290 1.359 . S
N289 C293 1.343 . S
C290 C283 1.422 . S
C290 N289 1.359 . S
C290 C292 1.421 . S
C291 C292 1.422 . S
C291 C294 1.321 . S
C291 H318 0.931 . S
C292 C290 1.421 . S
C292 C291 1.422 . S
C292 C316 1.417 . S
C293 H270 0.931 . S
C293 N289 1.343 . S
C293 C294 1.390 . S
C294 H272 0.930 . S
C294 C291 1.321 . S
C294 C293 1.390 . S
O295 Gd263 2.386 . S
O295 C307 1.265 . S
O296 Gd262 2.353 1_565 S
O296 C307 1.242 . S
O297 Gd262 2.468 . S
O297 C315 1.263 . S
O298 Gd262 2.427 . S
O298 C315 1.252 . S
O299 Gd263 2.307 1_545 S
O299 C308 1.261 . S
O300 Gd262 2.388 . S
O300 C308 1.252 . S
O301 Gd262 2.386 . S
O301 C319 1.265 . S
O302 Gd263 2.353 1_545 S
O302 C319 1.242 . S
O303 Gd263 2.468 1_545 S
O303 C327 1.263 1_545 S
O304 Gd263 2.427 . S
O304 C327 1.252 . S
O305 Gd262 2.307 1_565 S
O305 C320 1.261 . S
O306 Gd263 2.388 . S
O306 C320 1.252 . S
C307 O295 1.265 . S
C307 O296 1.242 . S
C308 O299 1.261 . S
C308 O300 1.252 . S
C309 C312 1.394 . S
C309 C314 1.370 1_545 S
C309 C315 1.500 . S
C310 C313 1.383 1_565 S
C310 C314 1.395 . S
C311 C312 1.396 . S
C311 C313 1.365 . S
C311 H328 0.929 . S
C312 C309 1.394 . S
C312 C311 1.396 . S
C312 H329 0.930 . S
C313 C310 1.383 1_545 S
C313 C311 1.365 . S
C313 H330 0.931 . S
C314 C309 1.370 1_565 S
C314 C310 1.395 . S
C314 H331 0.930 . S
C315 Gd262 2.805 . S
C315 O297 1.263 . S
C315 O298 1.252 . S
C315 C309 1.500 . S
C316 H278 0.930 . S
C316 C292 1.417 . S
C316 C317 1.329 . S
C317 C287 1.437 . S
C317 H288 0.929 . S
C317 C316 1.329 . S
H318 C291 0.931 . S
C319 O301 1.265 . S
C319 O302 1.242 . S
C320 O305 1.261 . S
C320 O306 1.252 . S
C321 C324 1.394 . S
C321 C326 1.370 1_565 S
C321 C327 1.500 . S
C322 C325 1.383 . S
C322 C326 1.395 . S
C323 C324 1.396 . S
C323 C325 1.365 1_565 S
C323 H332 0.929 . S
C324 C321 1.394 . S
C324 C323 1.396 . S
C324 H333 0.930 . S
C325 C322 1.383 . S
C325 C323 1.365 1_545 S
C325 H334 0.931 . S
C326 C321 1.370 1_545 S
C326 C322 1.395 . S
C326 H335 0.930 . S
C327 Gd263 2.805 . S
C327 O303 1.263 1_565 S
C327 O304 1.252 . S
C327 C321 1.500 . S
H328 C311 0.929 . S
H329 C312 0.930 . S
H330 C313 0.931 . S
H331 C314 0.930 . S
H332 C323 0.929 . S
H333 C324 0.930 . S
H334 C325 0.931 . S
H335 C326 0.930 . S
C336 C338 1.422 . S
C336 C340 1.415 . S
C336 N342 1.369 . S
C337 C338 1.421 . S
C337 C339 1.417 . S
C337 C349 1.422 . S
C338 C336 1.422 . S
C338 C337 1.421 . S
C338 N348 1.359 . S
C339 C337 1.417 . S
C339 C341 1.329 . S
C339 H358 0.930 . S
C340 C336 1.415 . S
C340 C341 1.437 . S
C340 C344 1.413 . S
C341 C339 1.329 . S
C341 C340 1.437 . S
C341 H363 0.929 . S
N342 C336 1.369 . S
N342 C343 1.338 . S
N342 Gd347 2.622 . S
C343 N342 1.338 . S
C343 C345 1.378 . S
C343 H355 0.929 . S
C344 C340 1.413 . S
C344 C345 1.348 . S
C344 H360 0.931 . S
C345 C343 1.378 . S
C345 C344 1.348 . S
C345 H361 0.930 . S
Gd346 N366 2.622 . S
Gd346 N373 2.570 . S
Gd346 O380 2.353 . S
Gd346 O381 2.468 . S
Gd346 O382 2.427 . S
Gd346 O384 2.388 . S
Gd346 O385 2.386 . S
Gd346 O389 2.307 . S
Gd346 C399 2.805 . S
Gd347 N342 2.622 . S
Gd347 N348 2.570 . S
Gd347 O379 2.386 . S
Gd347 O383 2.307 . S
Gd347 O386 2.353 . S
Gd347 O387 2.468 . S
Gd347 O388 2.427 . S
Gd347 O390 2.388 . S
Gd347 C411 2.805 . S
N348 C338 1.359 . S
N348 Gd347 2.570 . S
N348 C350 1.343 . S
C349 C337 1.422 . S
C349 C351 1.321 . S
C349 H357 0.931 . S
C350 N348 1.343 . S
C350 C351 1.390 . S
C350 H352 0.931 . S
C351 C349 1.321 . S
C351 C350 1.390 . S
C351 H353 0.930 . S
H352 C350 0.931 . S
H353 C351 0.930 . S
H354 C377 0.931 . S
H355 C343 0.929 . S
H356 C378 0.930 . S
H357 C349 0.931 . S
H358 C339 0.930 . S
H359 C368 0.929 . S
H360 C344 0.931 . S
H361 C345 0.930 . S
H362 C400 0.930 . S
H363 C341 0.929 . S
H364 C369 0.931 . S
H365 C370 0.930 . S
N366 Gd346 2.622 . S
N366 C367 1.369 . S
N366 C368 1.338 . S
C367 N366 1.369 . S
C367 C371 1.415 . S
C367 C374 1.422 . S
C368 H359 0.929 . S
C368 N366 1.338 . S
C368 C370 1.378 . S
C369 H364 0.931 . S
C369 C370 1.348 . S
C369 C371 1.413 . S
C370 H365 0.930 . S
C370 C368 1.378 . S
C370 C369 1.348 . S
C371 C367 1.415 . S
C371 C369 1.413 . S
C371 C401 1.437 . S
H372 C401 0.929 . S
N373 Gd346 2.570 . S
N373 C374 1.359 . S
N373 C377 1.343 . S
C374 C367 1.422 . S
C374 N373 1.359 . S
C374 C376 1.421 . S
C375 C376 1.422 . S
C375 C378 1.321 . S
C375 H402 0.931 . S
C376 C374 1.421 . S
C376 C375 1.422 . S
C376 C400 1.417 . S
C377 H354 0.931 . S
C377 N373 1.343 . S
C377 C378 1.390 . S
C378 H356 0.930 . S
C378 C375 1.321 . S
C378 C377 1.390 . S
O379 Gd347 2.386 . S
O379 C391 1.265 . S
O380 Gd346 2.353 . S
O380 C391 1.242 . S
O381 Gd346 2.468 . S
O381 C399 1.263 . S
O382 Gd346 2.427 . S
O382 C399 1.252 . S
O383 Gd347 2.307 . S
O383 C392 1.261 . S
O384 Gd346 2.388 . S
O384 C392 1.252 . S
O385 Gd346 2.386 . S
O385 C403 1.265 . S
O386 Gd347 2.353 . S
O386 C403 1.242 . S
O387 Gd347 2.468 . S
O387 C411 1.263 . S
O388 Gd347 2.427 . S
O388 C411 1.252 . S
O389 Gd346 2.307 . S
O389 C404 1.261 . S
O390 Gd347 2.388 . S
O390 C404 1.252 . S
C391 O379 1.265 . S
C391 O380 1.242 . S
C392 O383 1.261 . S
C392 O384 1.252 . S
C393 C396 1.394 . S
C393 C398 1.370 . S
C393 C399 1.500 . S
C394 C397 1.383 . S
C394 C398 1.395 . S
C395 C396 1.396 . S
C395 C397 1.365 . S
C395 H412 0.929 . S
C396 C393 1.394 . S
C396 C395 1.396 . S
C396 H413 0.930 . S
C397 C394 1.383 . S
C397 C395 1.365 . S
C397 H414 0.931 . S
C398 C393 1.370 . S
C398 C394 1.395 . S
C398 H415 0.930 . S
C399 Gd346 2.805 . S
C399 O381 1.263 . S
C399 O382 1.252 . S
C399 C393 1.500 . S
C400 H362 0.930 . S
C400 C376 1.417 . S
C400 C401 1.329 . S
C401 C371 1.437 . S
C401 H372 0.929 . S
C401 C400 1.329 . S
H402 C375 0.931 . S
C403 O385 1.265 . S
C403 O386 1.242 . S
C404 O389 1.261 . S
C404 O390 1.252 . S
C405 C408 1.394 . S
C405 C410 1.370 . S
C405 C411 1.500 . S
C406 C409 1.383 . S
C406 C410 1.395 . S
C407 C408 1.396 . S
C407 C409 1.365 . S
C407 H416 0.929 . S
C408 C405 1.394 . S
C408 C407 1.396 . S
C408 H417 0.930 . S
C409 C406 1.383 . S
C409 C407 1.365 . S
C409 H418 0.931 . S
C410 C405 1.370 . S
C410 C406 1.395 . S
C410 H419 0.930 . S
C411 Gd347 2.805 . S
C411 O387 1.263 . S
C411 O388 1.252 . S
C411 C405 1.500 . S
H412 C395 0.929 . S
H413 C396 0.930 . S
H414 C397 0.931 . S
H415 C398 0.930 . S
H416 C407 0.929 . S
H417 C408 0.930 . S
H418 C409 0.931 . S
H419 C410 0.930 . S
C420 C422 1.422 . S
C420 C424 1.415 . S
C420 N426 1.369 . S
C421 C422 1.421 . S
C421 C423 1.417 . S
C421 C433 1.422 . S
C422 C420 1.422 . S
C422 C421 1.421 . S
C422 N432 1.359 . S
C423 C421 1.417 . S
C423 C425 1.329 . S
C423 H442 0.930 . S
C424 C420 1.415 . S
C424 C425 1.437 . S
C424 C428 1.413 . S
C425 C423 1.329 . S
C425 C424 1.437 . S
C425 H447 0.929 . S
N426 C420 1.369 . S
N426 C427 1.338 . S
N426 Gd431 2.622 . S
C427 N426 1.338 . S
C427 C429 1.378 . S
C427 H439 0.929 . S
C428 C424 1.413 . S
C428 C429 1.348 . S
C428 H444 0.931 . S
C429 C427 1.378 . S
C429 C428 1.348 . S
C429 H445 0.930 . S
Gd430 N450 2.622 . S
Gd430 N457 2.570 . S
Gd430 O464 2.353 . S
Gd430 O465 2.468 . S
Gd430 O466 2.427 . S
Gd430 O468 2.388 . S
Gd430 O469 2.386 . S
Gd430 O473 2.307 . S
Gd430 C483 2.805 . S
Gd431 N426 2.622 . S
Gd431 N432 2.570 . S
Gd431 O463 2.386 . S
Gd431 O467 2.307 . S
Gd431 O470 2.353 . S
Gd431 O471 2.468 . S
Gd431 O472 2.427 . S
Gd431 O474 2.388 . S
Gd431 C495 2.805 . S
N432 C422 1.359 . S
N432 Gd431 2.570 . S
N432 C434 1.343 . S
C433 C421 1.422 . S
C433 C435 1.321 . S
C433 H441 0.931 . S
C434 N432 1.343 . S
C434 C435 1.390 . S
C434 H436 0.931 . S
C435 C433 1.321 . S
C435 C434 1.390 . S
C435 H437 0.930 . S
H436 C434 0.931 . S
H437 C435 0.930 . S
H438 C461 0.931 . S
H439 C427 0.929 . S
H440 C462 0.930 . S
H441 C433 0.931 . S
H442 C423 0.930 . S
H443 C452 0.929 . S
H444 C428 0.931 . S
H445 C429 0.930 . S
H446 C484 0.930 . S
H447 C425 0.929 . S
H448 C453 0.931 . S
H449 C454 0.930 . S
N450 Gd430 2.622 . S
N450 C451 1.369 . S
N450 C452 1.338 . S
C451 N450 1.369 . S
C451 C455 1.415 . S
C451 C458 1.422 . S
C452 H443 0.929 . S
C452 N450 1.338 . S
C452 C454 1.378 . S
C453 H448 0.931 . S
C453 C454 1.348 . S
C453 C455 1.413 . S
C454 H449 0.930 . S
C454 C452 1.378 . S
C454 C453 1.348 . S
C455 C451 1.415 . S
C455 C453 1.413 . S
C455 C485 1.437 . S
H456 C485 0.929 . S
N457 Gd430 2.570 . S
N457 C458 1.359 . S
N457 C461 1.343 . S
C458 C451 1.422 . S
C458 N457 1.359 . S
C458 C460 1.421 . S
C459 C460 1.422 . S
C459 C462 1.321 . S
C459 H486 0.931 . S
C460 C458 1.421 . S
C460 C459 1.422 . S
C460 C484 1.417 . S
C461 H438 0.931 . S
C461 N457 1.343 . S
C461 C462 1.390 . S
C462 H440 0.930 . S
C462 C459 1.321 . S
C462 C461 1.390 . S
O463 Gd431 2.386 . S
O463 C475 1.265 . S
O464 Gd430 2.353 . S
O464 C475 1.242 . S
O465 Gd430 2.468 . S
O465 C483 1.263 . S
O466 Gd430 2.427 . S
O466 C483 1.252 . S
O467 Gd431 2.307 . S
O467 C476 1.261 . S
O468 Gd430 2.388 . S
O468 C476 1.252 . S
O469 Gd430 2.386 . S
O469 C487 1.265 . S
O470 Gd431 2.353 . S
O470 C487 1.242 . S
O471 Gd431 2.468 . S
O471 C495 1.263 . S
O472 Gd431 2.427 . S
O472 C495 1.252 . S
O473 Gd430 2.307 . S
O473 C488 1.261 . S
O474 Gd431 2.388 . S
O474 C488 1.252 . S
C475 O463 1.265 . S
C475 O464 1.242 . S
C476 O467 1.261 . S
C476 O468 1.252 . S
C477 C480 1.394 . S
C477 C482 1.370 . S
C477 C483 1.500 . S
C478 C481 1.383 . S
C478 C482 1.395 . S
C479 C480 1.396 . S
C479 C481 1.365 . S
C479 H496 0.929 . S
C480 C477 1.394 . S
C480 C479 1.396 . S
C480 H497 0.930 . S
C481 C478 1.383 . S
C481 C479 1.365 . S
C481 H498 0.931 . S
C482 C477 1.370 . S
C482 C478 1.395 . S
C482 H499 0.930 . S
C483 Gd430 2.805 . S
C483 O465 1.263 . S
C483 O466 1.252 . S
C483 C477 1.500 . S
C484 H446 0.930 . S
C484 C460 1.417 . S
C484 C485 1.329 . S
C485 C455 1.437 . S
C485 H456 0.929 . S
C485 C484 1.329 . S
H486 C459 0.931 . S
C487 O469 1.265 . S
C487 O470 1.242 . S
C488 O473 1.261 . S
C488 O474 1.252 . S
C489 C492 1.394 . S
C489 C494 1.370 . S
C489 C495 1.500 . S
C490 C493 1.383 . S
C490 C494 1.395 . S
C491 C492 1.396 . S
C491 C493 1.365 . S
C491 H500 0.929 . S
C492 C489 1.394 . S
C492 C491 1.396 . S
C492 H501 0.930 . S
C493 C490 1.383 . S
C493 C491 1.365 . S
C493 H502 0.931 . S
C494 C489 1.370 . S
C494 C490 1.395 . S
C494 H503 0.930 . S
C495 Gd431 2.805 . S
C495 O471 1.263 . S
C495 O472 1.252 . S
C495 C489 1.500 . S
H496 C479 0.929 . S
H497 C480 0.930 . S
H498 C481 0.931 . S
H499 C482 0.930 . S
H500 C491 0.929 . S
H501 C492 0.930 . S
H502 C493 0.931 . S
H503 C494 0.930 . S
C504 C506 1.422 . S
C504 C508 1.415 . S
C504 N510 1.369 . S
C505 C506 1.421 . S
C505 C507 1.417 . S
C505 C517 1.422 . S
C506 C504 1.422 . S
C506 C505 1.421 . S
C506 N516 1.359 . S
C507 C505 1.417 . S
C507 C509 1.329 . S
C507 H526 0.930 . S
C508 C504 1.415 . S
C508 C509 1.437 . S
C508 C512 1.413 . S
C509 C507 1.329 . S
C509 C508 1.437 . S
C509 H531 0.929 . S
N510 C504 1.369 . S
N510 C511 1.338 . S
N510 Gd515 2.622 . S
C511 N510 1.338 . S
C511 C513 1.378 . S
C511 H523 0.929 . S
C512 C508 1.413 . S
C512 C513 1.348 . S
C512 H528 0.931 . S
C513 C511 1.378 . S
C513 C512 1.348 . S
C513 H529 0.930 . S
Gd514 N534 2.622 . S
Gd514 N541 2.570 . S
Gd514 O548 2.353 . S
Gd514 O549 2.468 . S
Gd514 O550 2.427 . S
Gd514 O552 2.388 . S
Gd514 O553 2.386 . S
Gd514 O557 2.307 . S
Gd514 C567 2.805 . S
Gd515 N510 2.622 . S
Gd515 N516 2.570 . S
Gd515 O547 2.386 . S
Gd515 O551 2.307 . S
Gd515 O554 2.353 . S
Gd515 O555 2.468 . S
Gd515 O556 2.427 . S
Gd515 O558 2.388 . S
Gd515 C579 2.805 . S
N516 C506 1.359 . S
N516 Gd515 2.570 . S
N516 C518 1.343 . S
C517 C505 1.422 . S
C517 C519 1.321 . S
C517 H525 0.931 . S
C518 N516 1.343 . S
C518 C519 1.390 . S
C518 H520 0.931 . S
C519 C517 1.321 . S
C519 C518 1.390 . S
C519 H521 0.930 . S
H520 C518 0.931 . S
H521 C519 0.930 . S
H522 C545 0.931 . S
H523 C511 0.929 . S
H524 C546 0.930 . S
H525 C517 0.931 . S
H526 C507 0.930 . S
H527 C536 0.929 . S
H528 C512 0.931 . S
H529 C513 0.930 . S
H530 C568 0.930 . S
H531 C509 0.929 . S
H532 C537 0.931 . S
H533 C538 0.930 . S
N534 Gd514 2.622 . S
N534 C535 1.369 . S
N534 C536 1.338 . S
C535 N534 1.369 . S
C535 C539 1.415 . S
C535 C542 1.422 . S
C536 H527 0.929 . S
C536 N534 1.338 . S
C536 C538 1.378 . S
C537 H532 0.931 . S
C537 C538 1.348 . S
C537 C539 1.413 . S
C538 H533 0.930 . S
C538 C536 1.378 . S
C538 C537 1.348 . S
C539 C535 1.415 . S
C539 C537 1.413 . S
C539 C569 1.437 . S
H540 C569 0.929 . S
N541 Gd514 2.570 . S
N541 C542 1.359 . S
N541 C545 1.343 . S
C542 C535 1.422 . S
C542 N541 1.359 . S
C542 C544 1.421 . S
C543 C544 1.422 . S
C543 C546 1.321 . S
C543 H570 0.931 . S
C544 C542 1.421 . S
C544 C543 1.422 . S
C544 C568 1.417 . S
C545 H522 0.931 . S
C545 N541 1.343 . S
C545 C546 1.390 . S
C546 H524 0.930 . S
C546 C543 1.321 . S
C546 C545 1.390 . S
O547 Gd515 2.386 . S
O547 C559 1.265 . S
O548 Gd514 2.353 . S
O548 C559 1.242 . S
O549 Gd514 2.468 . S
O549 C567 1.263 . S
O550 Gd514 2.427 . S
O550 C567 1.252 . S
O551 Gd515 2.307 . S
O551 C560 1.261 . S
O552 Gd514 2.388 . S
O552 C560 1.252 . S
O553 Gd514 2.386 . S
O553 C571 1.265 . S
O554 Gd515 2.353 . S
O554 C571 1.242 . S
O555 Gd515 2.468 . S
O555 C579 1.263 . S
O556 Gd515 2.427 . S
O556 C579 1.252 . S
O557 Gd514 2.307 . S
O557 C572 1.261 . S
O558 Gd515 2.388 . S
O558 C572 1.252 . S
C559 O547 1.265 . S
C559 O548 1.242 . S
C560 O551 1.261 . S
C560 O552 1.252 . S
C561 C564 1.394 . S
C561 C566 1.370 . S
C561 C567 1.500 . S
C562 C565 1.383 . S
C562 C566 1.395 . S
C563 C564 1.396 . S
C563 C565 1.365 . S
C563 H580 0.929 . S
C564 C561 1.394 . S
C564 C563 1.396 . S
C564 H581 0.930 . S
C565 C562 1.383 . S
C565 C563 1.365 . S
C565 H582 0.931 . S
C566 C561 1.370 . S
C566 C562 1.395 . S
C566 H583 0.930 . S
C567 Gd514 2.805 . S
C567 O549 1.263 . S
C567 O550 1.252 . S
C567 C561 1.500 . S
C568 H530 0.930 . S
C568 C544 1.417 . S
C568 C569 1.329 . S
C569 C539 1.437 . S
C569 H540 0.929 . S
C569 C568 1.329 . S
H570 C543 0.931 . S
C571 O553 1.265 . S
C571 O554 1.242 . S
C572 O557 1.261 . S
C572 O558 1.252 . S
C573 C576 1.394 . S
C573 C578 1.370 . S
C573 C579 1.500 . S
C574 C577 1.383 . S
C574 C578 1.395 . S
C575 C576 1.396 . S
C575 C577 1.365 . S
C575 H584 0.929 . S
C576 C573 1.394 . S
C576 C575 1.396 . S
C576 H585 0.930 . S
C577 C574 1.383 . S
C577 C575 1.365 . S
C577 H586 0.931 . S
C578 C573 1.370 . S
C578 C574 1.395 . S
C578 H587 0.930 . S
C579 Gd515 2.805 . S
C579 O555 1.263 . S
C579 O556 1.252 . S
C579 C573 1.500 . S
H580 C563 0.929 . S
H581 C564 0.930 . S
H582 C565 0.931 . S
H583 C566 0.930 . S
H584 C575 0.929 . S
H585 C576 0.930 . S
H586 C577 0.931 . S
H587 C578 0.930 . S
C588 C590 1.422 . S
C588 C592 1.415 . S
C588 N594 1.369 . S
C589 C590 1.421 1_655 S
C589 C591 1.417 . S
C589 C601 1.422 . S
C590 C588 1.422 . S
C590 C589 1.421 1_455 S
C590 N600 1.359 . S
C591 C589 1.417 . S
C591 C593 1.329 1_655 S
C591 H610 0.930 . S
C592 C588 1.415 . S
C592 C593 1.437 . S
C592 C596 1.413 . S
C593 C591 1.329 1_455 S
C593 C592 1.437 . S
C593 H615 0.929 . S
N594 C588 1.369 . S
N594 C595 1.338 . S
N594 Gd599 2.622 . S
C595 N594 1.338 . S
C595 C597 1.378 . S
C595 H607 0.929 . S
C596 C592 1.413 . S
C596 C597 1.348 . S
C596 H612 0.931 . S
C597 C595 1.378 . S
C597 C596 1.348 . S
C597 H613 0.930 . S
Gd598 N618 2.622 . S
Gd598 N625 2.570 1_655 S
Gd598 O632 2.353 . S
Gd598 O633 2.468 . S
Gd598 O634 2.427 . S
Gd598 O636 2.388 . S
Gd598 O637 2.386 1_655 S
Gd598 O641 2.307 1_655 S
Gd598 C651 2.805 . S
Gd599 N594 2.622 . S
Gd599 N600 2.570 . S
Gd599 O631 2.386 1_455 S
Gd599 O635 2.300 1_455 S
Gd599 O638 2.353 . S
Gd599 O639 2.468 . S
Gd599 O640 2.427 . S
Gd599 O642 2.388 . S
Gd599 C663 2.805 . S
N600 C590 1.359 . S
N600 Gd599 2.570 . S
N600 C602 1.343 1_455 S
C601 C589 1.422 . S
C601 C603 1.321 . S
C601 H609 0.931 . S
C602 N600 1.343 1_655 S
C602 C603 1.390 . S
C602 H604 0.931 . S
C603 C601 1.321 . S
C603 C602 1.390 . S
C603 H605 0.930 . S
H604 C602 0.931 . S
H605 C603 0.930 . S
H606 C629 0.931 . S
H607 C595 0.929 . S
H608 C630 0.930 . S
H609 C601 0.931 . S
H610 C591 0.930 . S
H611 C620 0.929 . S
H612 C596 0.931 . S
H613 C597 0.930 . S
H614 C652 0.930 . S
H615 C593 0.929 . S
H616 C621 0.931 . S
H617 C622 0.930 . S
N618 Gd598 2.622 . S
N618 C619 1.369 . S
N618 C620 1.338 . S
C619 N618 1.369 . S
C619 C623 1.415 . S
C619 C626 1.422 1_655 S
C620 H611 0.929 . S
C620 N618 1.338 . S
C620 C622 1.378 . S
C621 H616 0.931 . S
C621 C622 1.348 . S
C621 C623 1.413 . S
C622 H617 0.930 . S
C622 C620 1.378 . S
C622 C621 1.348 . S
C623 C619 1.415 . S
C623 C621 1.413 . S
C623 C653 1.437 1_655 S
H624 C653 0.929 . S
N625 Gd598 2.570 1_455 S
N625 C626 1.359 . S
N625 C629 1.343 . S
C626 C619 1.422 1_455 S
C626 N625 1.359 . S
C626 C628 1.421 . S
C627 C628 1.422 . S
C627 C630 1.321 . S
C627 H654 0.931 . S
C628 C626 1.421 . S
C628 C627 1.422 . S
C628 C652 1.417 . S
C629 H606 0.931 . S
C629 N625 1.343 . S
C629 C630 1.390 . S
C630 H608 0.930 . S
C630 C627 1.321 . S
C630 C629 1.390 . S
O631 Gd599 2.386 1_655 S
O631 C643 1.265 . S
O632 Gd598 2.353 . S
O632 C643 1.242 . S
O633 Gd598 2.468 . S
O633 C651 1.263 . S
O634 Gd598 2.427 . S
O634 C651 1.252 . S
O635 Gd599 2.300 1_655 S
O635 C644 1.268 . S
O636 Gd598 2.388 . S
O636 C644 1.252 . S
O637 Gd598 2.386 1_455 S
O637 C655 1.265 . S
O638 Gd599 2.353 . S
O638 C655 1.242 . S
O639 Gd599 2.468 . S
O639 C663 1.263 . S
O640 Gd599 2.427 . S
O640 C663 1.252 . S
O641 Gd598 2.307 1_455 S
O641 C656 1.261 . S
O642 Gd599 2.388 . S
O642 C656 1.252 . S
C643 O631 1.265 . S
C643 O632 1.242 . S
C644 O635 1.268 . S
C644 O636 1.252 . S
C645 C648 1.394 . S
C645 C650 1.370 . S
C645 C651 1.500 . S
C646 C649 1.383 . S
C646 C650 1.395 . S
C647 C648 1.396 . S
C647 C649 1.365 . S
C647 H664 0.929 . S
C648 C645 1.394 . S
C648 C647 1.396 . S
C648 H665 0.930 . S
C649 C646 1.383 . S
C649 C647 1.365 . S
C649 H666 0.931 . S
C650 C645 1.370 . S
C650 C646 1.395 . S
C650 H667 0.930 . S
C651 Gd598 2.805 . S
C651 O633 1.263 . S
C651 O634 1.252 . S
C651 C645 1.500 . S
C652 H614 0.930 . S
C652 C628 1.417 . S
C652 C653 1.329 . S
C653 C623 1.437 1_455 S
C653 H624 0.929 . S
C653 C652 1.329 . S
H654 C627 0.931 . S
C655 O637 1.265 . S
C655 O638 1.242 . S
C656 O641 1.261 . S
C656 O642 1.252 . S
C657 C660 1.394 . S
C657 C662 1.370 . S
C657 C663 1.500 . S
C658 C661 1.383 . S
C658 C662 1.395 . S
C659 C660 1.396 . S
C659 C661 1.365 . S
C659 H668 0.929 . S
C660 C657 1.394 . S
C660 C659 1.396 . S
C660 H669 0.930 . S
C661 C658 1.383 . S
C661 C659 1.365 . S
C661 H670 0.931 . S
C662 C657 1.370 . S
C662 C658 1.395 . S
C662 H671 0.930 . S
C663 Gd599 2.805 . S
C663 O639 1.263 . S
C663 O640 1.252 . S
C663 C657 1.500 . S
H664 C647 0.929 . S
H665 C648 0.930 . S
H666 C649 0.931 . S
H667 C650 0.930 . S
H668 C659 0.929 . S
H669 C660 0.930 . S
H670 C661 0.931 . S
H671 C662 0.930 . S
C672 C674 1.422 . S
C672 C676 1.415 . S
C672 N678 1.369 . S
C673 C674 1.421 . S
C673 C675 1.417 . S
C673 C685 1.422 . S
C674 C672 1.422 . S
C674 C673 1.421 . S
C674 N684 1.359 . S
C675 C673 1.417 . S
C675 C677 1.329 . S
C675 H694 0.930 . S
C676 C672 1.415 . S
C676 C677 1.437 . S
C676 C680 1.413 . S
C677 C675 1.329 . S
C677 C676 1.437 . S
C677 H699 0.929 . S
N678 C672 1.369 . S
N678 C679 1.338 . S
N678 Gd683 2.622 . S
C679 N678 1.338 . S
C679 C681 1.378 . S
C679 H691 0.929 . S
C680 C676 1.413 . S
C680 C681 1.348 . S
C680 H696 0.931 . S
C681 C679 1.378 . S
C681 C680 1.348 . S
C681 H697 0.930 . S
Gd682 N702 2.622 . S
Gd682 N709 2.570 . S
Gd682 O716 2.353 1_556 S
Gd682 O717 2.468 . S
Gd682 O718 2.427 . S
Gd682 O720 2.388 . S
Gd682 O721 2.386 . S
Gd682 O725 2.307 1_556 S
Gd682 C735 2.805 . S
Gd683 N678 2.622 . S
Gd683 N684 2.570 . S
Gd683 O715 2.386 . S
Gd683 O719 2.307 1_554 S
Gd683 O722 2.353 1_554 S
Gd683 O723 2.468 . S
Gd683 O724 2.427 . S
Gd683 O726 2.388 . S
Gd683 C747 2.805 . S
N684 C674 1.359 . S
N684 Gd683 2.570 . S
N684 C686 1.343 . S
C685 C673 1.422 . S
C685 C687 1.321 . S
C685 H693 0.931 . S
C686 N684 1.343 . S
C686 C687 1.390 . S
C686 H688 0.931 . S
C687 C685 1.321 . S
C687 C686 1.390 . S
C687 H689 0.930 . S
H688 C686 0.931 . S
H689 C687 0.930 . S
H690 C713 0.931 . S
H691 C679 0.929 . S
H692 C714 0.930 . S
H693 C685 0.931 . S
H694 C675 0.930 . S
H695 C704 0.929 . S
H696 C680 0.931 . S
H697 C681 0.930 . S
H698 C736 0.930 . S
H699 C677 0.929 . S
H700 C705 0.931 . S
H701 C706 0.930 . S
N702 Gd682 2.622 . S
N702 C703 1.369 . S
N702 C704 1.338 . S
C703 N702 1.369 . S
C703 C707 1.415 . S
C703 C710 1.422 . S
C704 H695 0.929 . S
C704 N702 1.338 . S
C704 C706 1.378 . S
C705 H700 0.931 . S
C705 C706 1.348 . S
C705 C707 1.413 . S
C706 H701 0.930 . S
C706 C704 1.378 . S
C706 C705 1.348 . S
C707 C703 1.415 . S
C707 C705 1.413 . S
C707 C737 1.437 . S
H708 C737 0.929 . S
N709 Gd682 2.570 . S
N709 C710 1.359 . S
N709 C713 1.343 . S
C710 C703 1.422 . S
C710 N709 1.359 . S
C710 C712 1.421 . S
C711 C712 1.422 . S
C711 C714 1.321 . S
C711 H738 0.931 . S
C712 C710 1.421 . S
C712 C711 1.422 . S
C712 C736 1.417 . S
C713 H690 0.931 . S
C713 N709 1.343 . S
C713 C714 1.390 . S
C714 H692 0.930 . S
C714 C711 1.321 . S
C714 C713 1.390 . S
O715 Gd683 2.386 . S
O715 C727 1.265 . S
O716 Gd682 2.353 1_554 S
O716 C727 1.242 . S
O717 Gd682 2.468 . S
O717 C735 1.263 . S
O718 Gd682 2.427 . S
O718 C735 1.252 . S
O719 Gd683 2.307 1_556 S
O719 C728 1.261 . S
O720 Gd682 2.388 . S
O720 C728 1.252 . S
O721 Gd682 2.386 . S
O721 C739 1.265 . S
O722 Gd683 2.353 1_556 S
O722 C739 1.242 . S
O723 Gd683 2.468 . S
O723 C747 1.263 . S
O724 Gd683 2.427 . S
O724 C747 1.252 . S
O725 Gd682 2.307 1_554 S
O725 C740 1.261 . S
O726 Gd683 2.388 . S
O726 C740 1.252 . S
C727 O715 1.265 . S
C727 O716 1.242 . S
C728 O719 1.261 . S
C728 O720 1.252 . S
C729 C732 1.394 . S
C729 C734 1.370 . S
C729 C735 1.500 . S
C730 C733 1.383 . S
C730 C734 1.395 . S
C731 C732 1.396 . S
C731 C733 1.365 . S
C731 H748 0.929 . S
C732 C729 1.394 . S
C732 C731 1.396 . S
C732 H749 0.930 . S
C733 C730 1.383 . S
C733 C731 1.365 . S
C733 H750 0.931 . S
C734 C729 1.370 . S
C734 C730 1.395 . S
C734 H751 0.930 1_556 S
C735 Gd682 2.805 . S
C735 O717 1.263 . S
C735 O718 1.252 . S
C735 C729 1.500 . S
C736 H698 0.930 . S
C736 C712 1.417 . S
C736 C737 1.329 . S
C737 C707 1.437 . S
C737 H708 0.929 . S
C737 C736 1.329 . S
H738 C711 0.931 . S
C739 O721 1.265 . S
C739 O722 1.242 . S
C740 O725 1.261 . S
C740 O726 1.252 . S
C741 C744 1.394 . S
C741 C746 1.370 . S
C741 C747 1.500 . S
C742 C745 1.383 . S
C742 C746 1.395 . S
C743 C744 1.396 . S
C743 C745 1.365 . S
C743 H752 0.929 . S
C744 C741 1.394 . S
C744 C743 1.396 . S
C744 H753 0.930 . S
C745 C742 1.383 . S
C745 C743 1.365 . S
C745 H754 0.931 . S
C746 C741 1.370 . S
C746 C742 1.395 . S
C746 H755 0.930 . S
C747 Gd683 2.805 . S
C747 O723 1.263 . S
C747 O724 1.252 . S
C747 C741 1.500 . S
H748 C731 0.929 . S
H749 C732 0.930 . S
H750 C733 0.931 . S
H751 C734 0.930 1_554 S
H752 C743 0.929 . S
H753 C744 0.930 . S
H754 C745 0.931 . S
H755 C746 0.930 . S
C756 C758 1.422 . S
C756 C760 1.415 . S
C756 N762 1.369 . S
C757 C758 1.421 . S
C757 C759 1.417 . S
C757 C769 1.422 . S
C758 C756 1.422 . S
C758 C757 1.421 . S
C758 N768 1.359 . S
C759 C757 1.417 . S
C759 C761 1.329 . S
C759 H778 0.930 . S
C760 C756 1.415 . S
C760 C761 1.437 . S
C760 C764 1.413 . S
C761 C759 1.329 . S
C761 C760 1.437 . S
C761 H783 0.929 . S
N762 C756 1.369 . S
N762 C763 1.338 . S
N762 Gd767 2.622 . S
C763 N762 1.338 . S
C763 C765 1.378 . S
C763 H775 0.929 . S
C764 C760 1.413 . S
C764 C765 1.348 . S
C764 H780 0.931 . S
C765 C763 1.378 . S
C765 C764 1.348 . S
C765 H781 0.930 . S
Gd766 N786 2.622 . S
Gd766 N793 2.570 . S
Gd766 O800 2.353 1_545 S
Gd766 O801 2.468 . S
Gd766 O802 2.427 . S
Gd766 O804 2.388 . S
Gd766 O805 2.386 . S
Gd766 O809 2.307 1_545 S
Gd766 C819 2.805 . S
Gd767 N762 2.622 . S
Gd767 N768 2.570 . S
Gd767 O799 2.386 . S
Gd767 O803 2.307 1_565 S
Gd767 O806 2.353 1_565 S
Gd767 O807 2.468 1_565 S
Gd767 O808 2.427 . S
Gd767 O810 2.388 . S
Gd767 C831 2.805 . S
N768 C758 1.359 . S
N768 Gd767 2.570 . S
N768 C770 1.343 . S
C769 C757 1.422 . S
C769 C771 1.321 . S
C769 H777 0.931 . S
C770 N768 1.343 . S
C770 C771 1.390 . S
C770 H772 0.931 . S
C771 C769 1.321 . S
C771 C770 1.390 . S
C771 H773 0.930 . S
H772 C770 0.931 . S
H773 C771 0.930 . S
H774 C797 0.931 . S
H775 C763 0.929 . S
H776 C798 0.930 . S
H777 C769 0.931 . S
H778 C759 0.930 . S
H779 C788 0.929 . S
H780 C764 0.931 . S
H781 C765 0.930 . S
H782 C820 0.930 . S
H783 C761 0.929 . S
H784 C789 0.931 . S
H785 C790 0.930 . S
N786 Gd766 2.622 . S
N786 C787 1.369 . S
N786 C788 1.338 . S
C787 N786 1.369 . S
C787 C791 1.415 . S
C787 C794 1.422 . S
C788 H779 0.929 . S
C788 N786 1.338 . S
C788 C790 1.378 . S
C789 H784 0.931 . S
C789 C790 1.348 . S
C789 C791 1.413 . S
C790 H785 0.930 . S
C790 C788 1.378 . S
C790 C789 1.348 . S
C791 C787 1.415 . S
C791 C789 1.413 . S
C791 C821 1.437 . S
H792 C821 0.929 . S
N793 Gd766 2.570 . S
N793 C794 1.359 . S
N793 C797 1.343 . S
C794 C787 1.422 . S
C794 N793 1.359 . S
C794 C796 1.421 . S
C795 C796 1.422 . S
C795 C798 1.321 . S
C795 H822 0.931 . S
C796 C794 1.421 . S
C796 C795 1.422 . S
C796 C820 1.417 . S
C797 H774 0.931 . S
C797 N793 1.343 . S
C797 C798 1.390 . S
C798 H776 0.930 . S
C798 C795 1.321 . S
C798 C797 1.390 . S
O799 Gd767 2.386 . S
O799 C811 1.265 . S
O800 Gd766 2.353 1_565 S
O800 C811 1.242 . S
O801 Gd766 2.468 . S
O801 C819 1.263 . S
O802 Gd766 2.427 . S
O802 C819 1.252 . S
O803 Gd767 2.307 1_545 S
O803 C812 1.261 . S
O804 Gd766 2.388 . S
O804 C812 1.252 . S
O805 Gd766 2.386 . S
O805 C823 1.265 . S
O806 Gd767 2.353 1_545 S
O806 C823 1.242 . S
O807 Gd767 2.468 1_545 S
O807 C831 1.263 1_545 S
O808 Gd767 2.427 . S
O808 C831 1.252 . S
O809 Gd766 2.307 1_565 S
O809 C824 1.261 . S
O810 Gd767 2.388 . S
O810 C824 1.252 . S
C811 O799 1.265 . S
C811 O800 1.242 . S
C812 O803 1.261 . S
C812 O804 1.252 . S
C813 C816 1.394 . S
C813 C818 1.370 1_545 S
C813 C819 1.500 . S
C814 C817 1.383 1_565 S
C814 C818 1.395 . S
C815 C816 1.396 . S
C815 C817 1.365 . S
C815 H832 0.929 . S
C816 C813 1.394 . S
C816 C815 1.396 . S
C816 H833 0.930 . S
C817 C814 1.383 1_545 S
C817 C815 1.365 . S
C817 H834 0.931 . S
C818 C813 1.370 1_565 S
C818 C814 1.395 . S
C818 H835 0.930 . S
C819 Gd766 2.805 . S
C819 O801 1.263 . S
C819 O802 1.252 . S
C819 C813 1.500 . S
C820 H782 0.930 . S
C820 C796 1.417 . S
C820 C821 1.329 . S
C821 C791 1.437 . S
C821 H792 0.929 . S
C821 C820 1.329 . S
H822 C795 0.931 . S
C823 O805 1.265 . S
C823 O806 1.242 . S
C824 O809 1.261 . S
C824 O810 1.252 . S
C825 C828 1.394 . S
C825 C830 1.370 1_565 S
C825 C831 1.500 . S
C826 C829 1.383 . S
C826 C830 1.395 . S
C827 C828 1.396 . S
C827 C829 1.365 1_565 S
C827 H836 0.929 . S
C828 C825 1.394 . S
C828 C827 1.396 . S
C828 H837 0.930 . S
C829 C826 1.383 . S
C829 C827 1.365 1_545 S
C829 H838 0.931 . S
C830 C825 1.370 1_545 S
C830 C826 1.395 . S
C830 H839 0.930 . S
C831 Gd767 2.805 . S
C831 O807 1.263 1_565 S
C831 O808 1.252 . S
C831 C825 1.500 . S
H832 C815 0.929 . S
H833 C816 0.930 . S
H834 C817 0.931 . S
H835 C818 0.930 . S
H836 C827 0.929 . S
H837 C828 0.930 . S
H838 C829 0.931 . S
H839 C830 0.930 . S
C840 C842 1.422 . S
C840 C844 1.415 . S
C840 N846 1.369 . S
C841 C842 1.421 . S
C841 C843 1.417 . S
C841 C853 1.422 . S
C842 C840 1.422 . S
C842 C841 1.421 . S
C842 N852 1.359 . S
C843 C841 1.417 . S
C843 C845 1.329 . S
C843 H862 0.930 . S
C844 C840 1.415 . S
C844 C845 1.437 . S
C844 C848 1.413 . S
C845 C843 1.329 . S
C845 C844 1.437 . S
C845 H867 0.929 . S
N846 C840 1.369 . S
N846 C847 1.338 . S
N846 Gd851 2.622 . S
C847 N846 1.338 . S
C847 C849 1.378 . S
C847 H859 0.929 . S
C848 C844 1.413 . S
C848 C849 1.348 . S
C848 H864 0.931 . S
C849 C847 1.378 . S
C849 C848 1.348 . S
C849 H865 0.930 . S
Gd850 N870 2.622 . S
Gd850 N877 2.570 . S
Gd850 O884 2.353 . S
Gd850 O885 2.468 . S
Gd850 O886 2.427 . S
Gd850 O888 2.388 . S
Gd850 O889 2.386 . S
Gd850 O893 2.307 . S
Gd850 C903 2.805 . S
Gd851 N846 2.622 . S
Gd851 N852 2.570 . S
Gd851 O883 2.386 . S
Gd851 O887 2.307 . S
Gd851 O890 2.353 . S
Gd851 O891 2.468 . S
Gd851 O892 2.427 . S
Gd851 O894 2.388 . S
Gd851 C915 2.805 . S
N852 C842 1.359 . S
N852 Gd851 2.570 . S
N852 C854 1.343 . S
C853 C841 1.422 . S
C853 C855 1.321 . S
C853 H861 0.931 . S
C854 N852 1.343 . S
C854 C855 1.390 . S
C854 H856 0.931 . S
C855 C853 1.321 . S
C855 C854 1.390 . S
C855 H857 0.930 . S
H856 C854 0.931 . S
H857 C855 0.930 . S
H858 C881 0.931 . S
H859 C847 0.929 . S
H860 C882 0.930 . S
H861 C853 0.931 . S
H862 C843 0.930 . S
H863 C872 0.929 . S
H864 C848 0.931 . S
H865 C849 0.930 . S
H866 C904 0.930 . S
H867 C845 0.929 . S
H868 C873 0.931 . S
H869 C874 0.930 . S
N870 Gd850 2.622 . S
N870 C871 1.369 . S
N870 C872 1.338 . S
C871 N870 1.369 . S
C871 C875 1.415 . S
C871 C878 1.422 . S
C872 H863 0.929 . S
C872 N870 1.338 . S
C872 C874 1.378 . S
C873 H868 0.931 . S
C873 C874 1.348 . S
C873 C875 1.413 . S
C874 H869 0.930 . S
C874 C872 1.378 . S
C874 C873 1.348 . S
C875 C871 1.415 . S
C875 C873 1.413 . S
C875 C905 1.437 . S
H876 C905 0.929 . S
N877 Gd850 2.570 . S
N877 C878 1.359 . S
N877 C881 1.343 . S
C878 C871 1.422 . S
C878 N877 1.359 . S
C878 C880 1.421 . S
C879 C880 1.422 . S
C879 C882 1.321 . S
C879 H906 0.931 . S
C880 C878 1.421 . S
C880 C879 1.422 . S
C880 C904 1.417 . S
C881 H858 0.931 . S
C881 N877 1.343 . S
C881 C882 1.390 . S
C882 H860 0.930 . S
C882 C879 1.321 . S
C882 C881 1.390 . S
O883 Gd851 2.386 . S
O883 C895 1.265 . S
O884 Gd850 2.353 . S
O884 C895 1.242 . S
O885 Gd850 2.468 . S
O885 C903 1.263 . S
O886 Gd850 2.427 . S
O886 C903 1.252 . S
O887 Gd851 2.307 . S
O887 C896 1.261 . S
O888 Gd850 2.388 . S
O888 C896 1.252 . S
O889 Gd850 2.386 . S
O889 C907 1.265 . S
O890 Gd851 2.353 . S
O890 C907 1.242 . S
O891 Gd851 2.468 . S
O891 C915 1.263 . S
O892 Gd851 2.427 . S
O892 C915 1.252 . S
O893 Gd850 2.307 . S
O893 C908 1.261 . S
O894 Gd851 2.388 . S
O894 C908 1.252 . S
C895 O883 1.265 . S
C895 O884 1.242 . S
C896 O887 1.261 . S
C896 O888 1.252 . S
C897 C900 1.394 . S
C897 C902 1.370 . S
C897 C903 1.500 . S
C898 C901 1.383 . S
C898 C902 1.395 . S
C899 C900 1.396 . S
C899 C901 1.365 . S
C899 H916 0.929 . S
C900 C897 1.394 . S
C900 C899 1.396 . S
C900 H917 0.930 . S
C901 C898 1.383 . S
C901 C899 1.365 . S
C901 H918 0.931 . S
C902 C897 1.370 . S
C902 C898 1.395 . S
C902 H919 0.930 . S
C903 Gd850 2.805 . S
C903 O885 1.263 . S
C903 O886 1.252 . S
C903 C897 1.500 . S
C904 H866 0.930 . S
C904 C880 1.417 . S
C904 C905 1.329 . S
C905 C875 1.437 . S
C905 H876 0.929 . S
C905 C904 1.329 . S
H906 C879 0.931 . S
C907 O889 1.265 . S
C907 O890 1.242 . S
C908 O893 1.261 . S
C908 O894 1.252 . S
C909 C912 1.394 . S
C909 C914 1.370 . S
C909 C915 1.500 . S
C910 C913 1.383 . S
C910 C914 1.395 . S
C911 C912 1.396 . S
C911 C913 1.365 . S
C911 H920 0.929 . S
C912 C909 1.394 . S
C912 C911 1.396 . S
C912 H921 0.930 . S
C913 C910 1.383 . S
C913 C911 1.365 . S
C913 H922 0.931 . S
C914 C909 1.370 . S
C914 C910 1.395 . S
C914 H923 0.930 . S
C915 Gd851 2.805 . S
C915 O891 1.263 . S
C915 O892 1.252 . S
C915 C909 1.500 . S
H916 C899 0.929 . S
H917 C900 0.930 . S
H918 C901 0.931 . S
H919 C902 0.930 . S
H920 C911 0.929 . S
H921 C912 0.930 . S
H922 C913 0.931 . S
H923 C914 0.930 . S
C924 C926 1.422 . S
C924 C928 1.415 . S
C924 N930 1.369 . S
C925 C926 1.421 . S
C925 C927 1.417 . S
C925 C937 1.422 . S
C926 C924 1.422 . S
C926 C925 1.421 . S
C926 N936 1.359 . S
C927 C925 1.417 . S
C927 C929 1.329 . S
C927 H946 0.930 . S
C928 C924 1.415 . S
C928 C929 1.437 . S
C928 C932 1.413 . S
C929 C927 1.329 . S
C929 C928 1.437 . S
C929 H951 0.929 . S
N930 C924 1.369 . S
N930 C931 1.338 . S
N930 Gd935 2.622 . S
C931 N930 1.338 . S
C931 C933 1.378 . S
C931 H943 0.929 . S
C932 C928 1.413 . S
C932 C933 1.348 . S
C932 H948 0.931 . S
C933 C931 1.378 . S
C933 C932 1.348 . S
C933 H949 0.930 . S
Gd934 N954 2.622 . S
Gd934 N961 2.570 . S
Gd934 O968 2.353 1_655 S
Gd934 O969 2.468 1_655 S
Gd934 O970 2.427 . S
Gd934 O972 2.388 . S
Gd934 O973 2.386 . S
Gd934 O977 2.307 1_655 S
Gd934 C987 2.805 . S
Gd935 N930 2.622 . S
Gd935 N936 2.570 . S
Gd935 O967 2.386 . S
Gd935 O971 2.307 1_455 S
Gd935 O974 2.353 1_455 S
Gd935 O975 2.468 . S
Gd935 O976 2.427 . S
Gd935 O978 2.388 . S
Gd935 C999 2.805 . S
N936 C926 1.359 . S
N936 Gd935 2.570 . S
N936 C938 1.343 . S
C937 C925 1.422 . S
C937 C939 1.321 . S
C937 H945 0.931 . S
C938 N936 1.343 . S
C938 C939 1.390 . S
C938 H940 0.931 . S
C939 C937 1.321 . S
C939 C938 1.390 . S
C939 H941 0.930 . S
H940 C938 0.931 . S
H941 C939 0.930 . S
H942 C965 0.931 . S
H943 C931 0.929 . S
H944 C966 0.930 . S
H945 C937 0.931 . S
H946 C927 0.930 . S
H947 C956 0.929 . S
H948 C932 0.931 . S
H949 C933 0.930 . S
H950 C988 0.930 . S
H951 C929 0.929 . S
H952 C957 0.931 . S
H953 C958 0.930 . S
N954 Gd934 2.622 . S
N954 C955 1.369 . S
N954 C956 1.338 . S
C955 N954 1.369 . S
C955 C959 1.415 . S
C955 C962 1.422 . S
C956 H947 0.929 . S
C956 N954 1.338 . S
C956 C958 1.378 . S
C957 H952 0.931 . S
C957 C958 1.348 . S
C957 C959 1.413 . S
C958 H953 0.930 . S
C958 C956 1.378 . S
C958 C957 1.348 . S
C959 C955 1.415 . S
C959 C957 1.413 . S
C959 C989 1.437 . S
H960 C989 0.929 . S
N961 Gd934 2.570 . S
N961 C962 1.359 . S
N961 C965 1.343 . S
C962 C955 1.422 . S
C962 N961 1.359 . S
C962 C964 1.421 . S
C963 C964 1.422 . S
C963 C966 1.321 . S
C963 H990 0.931 . S
C964 C962 1.421 . S
C964 C963 1.422 . S
C964 C988 1.417 . S
C965 H942 0.931 . S
C965 N961 1.343 . S
C965 C966 1.390 . S
C966 H944 0.930 . S
C966 C963 1.321 . S
C966 C965 1.390 . S
O967 Gd935 2.386 . S
O967 C979 1.265 . S
O968 Gd934 2.353 1_455 S
O968 C979 1.242 . S
O969 Gd934 2.468 1_455 S
O969 C987 1.263 1_455 S
O970 Gd934 2.427 . S
O970 C987 1.252 . S
O971 Gd935 2.307 1_655 S
O971 C980 1.261 . S
O972 Gd934 2.388 . S
O972 C980 1.252 . S
O973 Gd934 2.386 . S
O973 C991 1.265 . S
O974 Gd935 2.353 1_655 S
O974 C991 1.242 . S
O975 Gd935 2.468 . S
O975 C999 1.263 . S
O976 Gd935 2.427 . S
O976 C999 1.252 . S
O977 Gd934 2.307 1_455 S
O977 C992 1.261 . S
O978 Gd935 2.388 . S
O978 C992 1.252 . S
C979 O967 1.265 . S
C979 O968 1.242 . S
C980 O971 1.261 . S
C980 O972 1.252 . S
C981 C984 1.371 1_455 S
C981 C986 1.388 . S
C981 C987 1.505 1_455 S
C982 C985 1.383 . S
C982 C986 1.395 . S
C983 C984 1.396 . S
C983 C985 1.365 1_655 S
C983 H1000 0.929 . S
C984 C981 1.371 1_655 S
C984 C983 1.396 . S
C984 H1001 0.930 . S
C985 C982 1.383 . S
C985 C983 1.365 1_455 S
C985 H1002 0.931 . S
C986 C981 1.388 . S
C986 C982 1.395 . S
C986 H1003 0.930 . S
C987 Gd934 2.805 . S
C987 O969 1.263 1_655 S
C987 O970 1.252 . S
C987 C981 1.505 1_655 S
C988 H950 0.930 . S
C988 C964 1.417 . S
C988 C989 1.329 . S
C989 C959 1.437 . S
C989 H960 0.929 . S
C989 C988 1.329 . S
H990 C963 0.931 . S
C991 O973 1.265 . S
C991 O974 1.242 . S
C992 O977 1.261 . S
C992 O978 1.252 . S
C993 C996 1.394 . S
C993 C998 1.370 1_455 S
C993 C999 1.500 . S
C994 C997 1.383 1_655 S
C994 C998 1.395 . S
C995 C996 1.396 . S
C995 C997 1.365 . S
C995 H1004 0.929 . S
C996 C993 1.394 . S
C996 C995 1.396 . S
C996 H1005 0.930 . S
C997 C994 1.383 1_455 S
C997 C995 1.365 . S
C997 H1006 0.931 . S
C998 C993 1.370 1_655 S
C998 C994 1.395 . S
C998 H1007 0.930 . S
C999 Gd935 2.805 . S
C999 O975 1.263 . S
C999 O976 1.252 . S
C999 C993 1.500 . S
H1000 C983 0.929 . S
H1001 C984 0.930 . S
H1002 C985 0.931 . S
H1003 C986 0.930 . S
H1004 C995 0.929 . S
H1005 C996 0.930 . S
H1006 C997 0.931 . S
H1007 C998 0.930 . S
C1008 C1010 1.422 . S
C1008 C1012 1.415 . S
C1008 N1014 1.369 . S
C1009 C1010 1.421 . S
C1009 C1011 1.417 . S
C1009 C1021 1.422 . S
C1010 C1008 1.422 . S
C1010 C1009 1.421 . S
C1010 N1020 1.359 . S
C1011 C1009 1.417 . S
C1011 C1013 1.329 . S
C1011 H1030 0.930 . S
C1012 C1008 1.415 . S
C1012 C1013 1.437 . S
C1012 C1016 1.413 . S
C1013 C1011 1.329 . S
C1013 C1012 1.437 . S
C1013 H1035 0.929 . S
N1014 C1008 1.369 . S
N1014 C1015 1.338 . S
N1014 Gd1019 2.622 . S
C1015 N1014 1.338 . S
C1015 C1017 1.378 . S
C1015 H1027 0.929 . S
C1016 C1012 1.413 . S
C1016 C1017 1.348 . S
C1016 H1032 0.931 . S
C1017 C1015 1.378 . S
C1017 C1016 1.348 . S
C1017 H1033 0.930 . S
Gd1018 N1038 2.622 . S
Gd1018 N1045 2.570 . S
Gd1018 O1052 2.353 . S
Gd1018 O1053 2.468 . S
Gd1018 O1054 2.427 . S
Gd1018 O1056 2.388 . S
Gd1018 O1057 2.386 . S
Gd1018 O1061 2.307 . S
Gd1018 C1071 2.805 . S
Gd1019 N1014 2.622 . S
Gd1019 N1020 2.570 . S
Gd1019 O1051 2.386 . S
Gd1019 O1055 2.307 . S
Gd1019 O1058 2.353 . S
Gd1019 O1059 2.468 . S
Gd1019 O1060 2.427 . S
Gd1019 O1062 2.388 . S
Gd1019 C1083 2.805 . S
N1020 C1010 1.359 . S
N1020 Gd1019 2.570 . S
N1020 C1022 1.343 . S
C1021 C1009 1.422 . S
C1021 C1023 1.321 . S
C1021 H1029 0.931 . S
C1022 N1020 1.343 . S
C1022 C1023 1.390 . S
C1022 H1024 0.931 . S
C1023 C1021 1.321 . S
C1023 C1022 1.390 . S
C1023 H1025 0.930 . S
H1024 C1022 0.931 . S
H1025 C1023 0.930 . S
H1026 C1049 0.931 . S
H1027 C1015 0.929 . S
H1028 C1050 0.930 . S
H1029 C1021 0.931 . S
H1030 C1011 0.930 . S
H1031 C1040 0.929 . S
H1032 C1016 0.931 . S
H1033 C1017 0.930 . S
H1034 C1072 0.930 . S
H1035 C1013 0.929 . S
H1036 C1041 0.931 . S
H1037 C1042 0.930 . S
N1038 Gd1018 2.622 . S
N1038 C1039 1.369 . S
N1038 C1040 1.338 . S
C1039 N1038 1.369 . S
C1039 C1043 1.415 . S
C1039 C1046 1.422 . S
C1040 H1031 0.929 . S
C1040 N1038 1.338 . S
C1040 C1042 1.378 . S
C1041 H1036 0.931 . S
C1041 C1042 1.348 . S
C1041 C1043 1.413 . S
C1042 H1037 0.930 . S
C1042 C1040 1.378 . S
C1042 C1041 1.348 . S
C1043 C1039 1.415 . S
C1043 C1041 1.413 . S
C1043 C1073 1.437 . S
H1044 C1073 0.929 . S
N1045 Gd1018 2.570 . S
N1045 C1046 1.359 . S
N1045 C1049 1.343 . S
C1046 C1039 1.422 . S
C1046 N1045 1.359 . S
C1046 C1048 1.421 . S
C1047 C1048 1.422 . S
C1047 C1050 1.321 . S
C1047 H1074 0.931 . S
C1048 C1046 1.421 . S
C1048 C1047 1.422 . S
C1048 C1072 1.417 . S
C1049 H1026 0.931 . S
C1049 N1045 1.343 . S
C1049 C1050 1.390 . S
C1050 H1028 0.930 . S
C1050 C1047 1.321 . S
C1050 C1049 1.390 . S
O1051 Gd1019 2.386 . S
O1051 C1063 1.265 . S
O1052 Gd1018 2.353 . S
O1052 C1063 1.242 . S
O1053 Gd1018 2.468 . S
O1053 C1071 1.263 . S
O1054 Gd1018 2.427 . S
O1054 C1071 1.252 . S
O1055 Gd1019 2.307 . S
O1055 C1064 1.261 . S
O1056 Gd1018 2.388 . S
O1056 C1064 1.252 . S
O1057 Gd1018 2.386 . S
O1057 C1075 1.265 . S
O1058 Gd1019 2.353 . S
O1058 C1075 1.242 . S
O1059 Gd1019 2.468 . S
O1059 C1083 1.263 . S
O1060 Gd1019 2.427 . S
O1060 C1083 1.252 . S
O1061 Gd1018 2.307 . S
O1061 C1076 1.261 . S
O1062 Gd1019 2.388 . S
O1062 C1076 1.252 . S
C1063 O1051 1.265 . S
C1063 O1052 1.242 . S
C1064 O1055 1.261 . S
C1064 O1056 1.252 . S
C1065 C1068 1.394 . S
C1065 C1070 1.370 . S
C1065 C1071 1.500 . S
C1066 C1069 1.383 . S
C1066 C1070 1.395 . S
C1067 C1068 1.396 . S
C1067 C1069 1.365 . S
C1067 H1084 0.929 . S
C1068 C1065 1.394 . S
C1068 C1067 1.396 . S
C1068 H1085 0.930 . S
C1069 C1066 1.383 . S
C1069 C1067 1.365 . S
C1069 H1086 0.931 . S
C1070 C1065 1.370 . S
C1070 C1066 1.395 . S
C1070 H1087 0.930 . S
C1071 Gd1018 2.805 . S
C1071 O1053 1.263 . S
C1071 O1054 1.252 . S
C1071 C1065 1.500 . S
C1072 H1034 0.930 . S
C1072 C1048 1.417 . S
C1072 C1073 1.329 . S
C1073 C1043 1.437 . S
C1073 H1044 0.929 . S
C1073 C1072 1.329 . S
H1074 C1047 0.931 . S
C1075 O1057 1.265 . S
C1075 O1058 1.242 . S
C1076 O1061 1.261 . S
C1076 O1062 1.252 . S
C1077 C1080 1.394 . S
C1077 C1082 1.370 . S
C1077 C1083 1.500 . S
C1078 C1081 1.383 . S
C1078 C1082 1.395 . S
C1079 C1080 1.396 . S
C1079 C1081 1.365 . S
C1079 H1088 0.929 . S
C1080 C1077 1.394 . S
C1080 C1079 1.396 . S
C1080 H1089 0.930 . S
C1081 C1078 1.383 . S
C1081 C1079 1.365 . S
C1081 H1090 0.931 . S
C1082 C1077 1.370 . S
C1082 C1078 1.395 . S
C1082 H1091 0.930 . S
C1083 Gd1019 2.805 . S
C1083 O1059 1.263 . S
C1083 O1060 1.252 . S
C1083 C1077 1.500 . S
H1084 C1067 0.929 . S
H1085 C1068 0.930 . S
H1086 C1069 0.931 . S
H1087 C1070 0.930 . S
H1088 C1079 0.929 . S
H1089 C1080 0.930 . S
H1090 C1081 0.931 . S
H1091 C1082 0.930 . S
C1092 C1094 1.422 . S
C1092 C1096 1.415 . S
C1092 N1098 1.369 . S
C1093 C1094 1.421 . S
C1093 C1095 1.417 . S
C1093 C1105 1.422 . S
C1094 C1092 1.422 . S
C1094 C1093 1.421 . S
C1094 N1104 1.359 . S
C1095 C1093 1.417 . S
C1095 C1097 1.329 . S
C1095 H1114 0.930 . S
C1096 C1092 1.415 . S
C1096 C1097 1.437 . S
C1096 C1100 1.413 . S
C1097 C1095 1.329 . S
C1097 C1096 1.437 . S
C1097 H1119 0.929 . S
N1098 C1092 1.369 . S
N1098 C1099 1.338 . S
N1098 Gd1103 2.622 . S
C1099 N1098 1.338 . S
C1099 C1101 1.378 . S
C1099 H1111 0.929 . S
C1100 C1096 1.413 . S
C1100 C1101 1.348 . S
C1100 H1116 0.931 . S
C1101 C1099 1.378 . S
C1101 C1100 1.348 . S
C1101 H1117 0.930 . S
Gd1102 N1122 2.622 . S
Gd1102 N1129 2.570 . S
Gd1102 O1136 2.353 1_554 S
Gd1102 O1137 2.468 . S
Gd1102 O1138 2.427 . S
Gd1102 O1140 2.388 . S
Gd1102 O1141 2.386 . S
Gd1102 O1145 2.307 1_554 S
Gd1102 C1155 2.805 . S
Gd1103 N1098 2.622 . S
Gd1103 N1104 2.570 . S
Gd1103 O1135 2.386 . S
Gd1103 O1139 2.307 1_556 S
Gd1103 O1142 2.353 1_556 S
Gd1103 O1143 2.468 . S
Gd1103 O1144 2.427 . S
Gd1103 O1146 2.388 . S
Gd1103 C1167 2.805 . S
N1104 C1094 1.359 . S
N1104 Gd1103 2.570 . S
N1104 C1106 1.343 . S
C1105 C1093 1.422 . S
C1105 C1107 1.321 . S
C1105 H1113 0.931 . S
C1106 N1104 1.343 . S
C1106 C1107 1.390 . S
C1106 H1108 0.931 . S
C1107 C1105 1.321 . S
C1107 C1106 1.390 . S
C1107 H1109 0.930 . S
H1108 C1106 0.931 . S
H1109 C1107 0.930 . S
H1110 C1133 0.931 . S
H1111 C1099 0.929 . S
H1112 C1134 0.930 . S
H1113 C1105 0.931 . S
H1114 C1095 0.930 . S
H1115 C1124 0.929 . S
H1116 C1100 0.931 . S
H1117 C1101 0.930 . S
H1118 C1156 0.930 . S
H1119 C1097 0.929 . S
H1120 C1125 0.931 . S
H1121 C1126 0.930 . S
N1122 Gd1102 2.622 . S
N1122 C1123 1.369 . S
N1122 C1124 1.338 . S
C1123 N1122 1.369 . S
C1123 C1127 1.415 . S
C1123 C1130 1.422 . S
C1124 H1115 0.929 . S
C1124 N1122 1.338 . S
C1124 C1126 1.378 . S
C1125 H1120 0.931 . S
C1125 C1126 1.348 . S
C1125 C1127 1.413 . S
C1126 H1121 0.930 . S
C1126 C1124 1.378 . S
C1126 C1125 1.348 . S
C1127 C1123 1.415 . S
C1127 C1125 1.413 . S
C1127 C1157 1.437 . S
H1128 C1157 0.929 . S
N1129 Gd1102 2.570 . S
N1129 C1130 1.359 . S
N1129 C1133 1.343 . S
C1130 C1123 1.422 . S
C1130 N1129 1.359 . S
C1130 C1132 1.421 . S
C1131 C1132 1.422 . S
C1131 C1134 1.321 . S
C1131 H1158 0.931 . S
C1132 C1130 1.421 . S
C1132 C1131 1.422 . S
C1132 C1156 1.417 . S
C1133 H1110 0.931 . S
C1133 N1129 1.343 . S
C1133 C1134 1.390 . S
C1134 H1112 0.930 . S
C1134 C1131 1.321 . S
C1134 C1133 1.390 . S
O1135 Gd1103 2.386 . S
O1135 C1147 1.265 . S
O1136 Gd1102 2.353 1_556 S
O1136 C1147 1.242 . S
O1137 Gd1102 2.468 . S
O1137 C1155 1.263 . S
O1138 Gd1102 2.427 . S
O1138 C1155 1.252 . S
O1139 Gd1103 2.307 1_554 S
O1139 C1148 1.261 . S
O1140 Gd1102 2.388 . S
O1140 C1148 1.252 . S
O1141 Gd1102 2.386 . S
O1141 C1159 1.265 . S
O1142 Gd1103 2.353 1_554 S
O1142 C1159 1.242 . S
O1143 Gd1103 2.468 . S
O1143 C1167 1.263 . S
O1144 Gd1103 2.427 . S
O1144 C1167 1.252 . S
O1145 Gd1102 2.307 1_556 S
O1145 C1160 1.261 . S
O1146 Gd1103 2.388 . S
O1146 C1160 1.252 . S
C1147 O1135 1.265 . S
C1147 O1136 1.242 . S
C1148 O1139 1.261 . S
C1148 O1140 1.252 . S
C1149 C1152 1.394 . S
C1149 C1154 1.370 . S
C1149 C1155 1.500 . S
C1150 C1153 1.383 . S
C1150 C1154 1.395 . S
C1151 C1152 1.396 . S
C1151 C1153 1.365 . S
C1151 H1168 0.929 . S
C1152 C1149 1.394 . S
C1152 C1151 1.396 . S
C1152 H1169 0.930 . S
C1153 C1150 1.383 . S
C1153 C1151 1.365 . S
C1153 H1170 0.931 . S
C1154 C1149 1.370 . S
C1154 C1150 1.395 . S
C1154 H1171 0.930 . S
C1155 Gd1102 2.805 . S
C1155 O1137 1.263 . S
C1155 O1138 1.252 . S
C1155 C1149 1.500 . S
C1156 H1118 0.930 . S
C1156 C1132 1.417 . S
C1156 C1157 1.329 . S
C1157 C1127 1.437 . S
C1157 H1128 0.929 . S
C1157 C1156 1.329 . S
H1158 C1131 0.931 . S
C1159 O1141 1.265 . S
C1159 O1142 1.242 . S
C1160 O1145 1.261 . S
C1160 O1146 1.252 . S
C1161 C1164 1.394 . S
C1161 C1166 1.370 . S
C1161 C1167 1.500 . S
C1162 C1165 1.383 . S
C1162 C1166 1.395 . S
C1163 C1164 1.396 . S
C1163 C1165 1.365 . S
C1163 H1172 0.929 . S
C1164 C1161 1.394 . S
C1164 C1163 1.396 . S
C1164 H1173 0.930 . S
C1165 C1162 1.383 . S
C1165 C1163 1.365 . S
C1165 H1174 0.931 . S
C1166 C1161 1.370 . S
C1166 C1162 1.395 . S
C1166 H1175 0.930 1_556 S
C1167 Gd1103 2.805 . S
C1167 O1143 1.263 . S
C1167 O1144 1.252 . S
C1167 C1161 1.500 . S
H1168 C1151 0.929 . S
H1169 C1152 0.930 . S
H1170 C1153 0.931 . S
H1171 C1154 0.930 . S
H1172 C1163 0.929 . S
H1173 C1164 0.930 . S
H1174 C1165 0.931 . S
H1175 C1166 0.930 1_554 S
C1176 C1178 1.422 . S
C1176 C1180 1.415 . S
C1176 N1182 1.369 . S
C1177 C1178 1.421 . S
C1177 C1179 1.417 . S
C1177 C1189 1.422 . S
C1178 C1176 1.422 . S
C1178 C1177 1.421 . S
C1178 N1188 1.359 . S
C1179 C1177 1.417 . S
C1179 C1181 1.329 . S
C1179 H1198 0.930 . S
C1180 C1176 1.415 . S
C1180 C1181 1.437 . S
C1180 C1184 1.413 . S
C1181 C1179 1.329 . S
C1181 C1180 1.437 . S
C1181 H1203 0.929 . S
N1182 C1176 1.369 . S
N1182 C1183 1.338 . S
N1182 Gd1187 2.622 . S
C1183 N1182 1.338 . S
C1183 C1185 1.378 . S
C1183 H1195 0.929 1_545 S
C1184 C1180 1.413 . S
C1184 C1185 1.348 . S
C1184 H1200 0.931 . S
C1185 C1183 1.378 . S
C1185 C1184 1.348 . S
C1185 H1201 0.930 1_545 S
Gd1186 N1206 2.622 . S
Gd1186 N1213 2.570 . S
Gd1186 O1220 2.353 1_565 S
Gd1186 O1221 2.468 . S
Gd1186 O1222 2.427 . S
Gd1186 O1224 2.388 1_565 S
Gd1186 O1225 2.386 . S
Gd1186 O1229 2.307 . S
Gd1186 C1239 2.805 . S
Gd1187 N1182 2.622 . S
Gd1187 N1188 2.570 . S
Gd1187 O1219 2.386 . S
Gd1187 O1223 2.307 . S
Gd1187 O1226 2.353 . S
Gd1187 O1227 2.468 . S
Gd1187 O1228 2.427 . S
Gd1187 O1230 2.388 1_545 S
Gd1187 C1251 2.805 . S
N1188 C1178 1.359 . S
N1188 Gd1187 2.570 . S
N1188 C1190 1.343 . S
C1189 C1177 1.422 . S
C1189 C1191 1.321 . S
C1189 H1197 0.931 . S
C1190 N1188 1.343 . S
C1190 C1191 1.390 . S
C1190 H1192 0.931 . S
C1191 C1189 1.321 . S
C1191 C1190 1.390 . S
C1191 H1193 0.930 . S
H1192 C1190 0.931 . S
H1193 C1191 0.930 . S
H1194 C1217 0.931 . S
H1195 C1183 0.929 1_565 S
H1196 C1218 0.930 . S
H1197 C1189 0.931 . S
H1198 C1179 0.930 . S
H1199 C1208 0.929 . S
H1200 C1184 0.931 . S
H1201 C1185 0.930 1_565 S
H1202 C1240 0.930 . S
H1203 C1181 0.929 . S
H1204 C1209 0.931 . S
H1205 C1210 0.930 . S
N1206 Gd1186 2.622 . S
N1206 C1207 1.369 . S
N1206 C1208 1.338 1_565 S
C1207 N1206 1.369 . S
C1207 C1211 1.415 . S
C1207 C1214 1.422 . S
C1208 H1199 0.929 . S
C1208 N1206 1.338 1_545 S
C1208 C1210 1.378 . S
C1209 H1204 0.931 . S
C1209 C1210 1.348 1_565 S
C1209 C1211 1.413 . S
C1210 H1205 0.930 . S
C1210 C1208 1.378 . S
C1210 C1209 1.348 1_545 S
C1211 C1207 1.415 . S
C1211 C1209 1.413 . S
C1211 C1241 1.437 . S
H1212 C1241 0.929 . S
N1213 Gd1186 2.570 . S
N1213 C1214 1.359 . S
N1213 C1217 1.343 . S
C1214 C1207 1.422 . S
C1214 N1213 1.359 . S
C1214 C1216 1.421 . S
C1215 C1216 1.422 . S
C1215 C1218 1.321 . S
C1215 H1242 0.931 . S
C1216 C1214 1.421 . S
C1216 C1215 1.422 . S
C1216 C1240 1.417 . S
C1217 H1194 0.931 . S
C1217 N1213 1.343 . S
C1217 C1218 1.390 . S
C1218 H1196 0.930 . S
C1218 C1215 1.321 . S
C1218 C1217 1.390 . S
O1219 Gd1187 2.386 . S
O1219 C1231 1.265 . S
O1220 Gd1186 2.353 1_545 S
O1220 C1231 1.242 . S
O1221 Gd1186 2.468 . S
O1221 C1239 1.263 . S
O1222 Gd1186 2.427 . S
O1222 C1239 1.252 . S
O1223 Gd1187 2.307 . S
O1223 C1232 1.261 . S
O1224 Gd1186 2.388 1_545 S
O1224 C1232 1.252 . S
O1225 Gd1186 2.386 . S
O1225 C1243 1.265 . S
O1226 Gd1187 2.353 . S
O1226 C1243 1.242 1_545 S
O1227 Gd1187 2.468 . S
O1227 C1251 1.263 . S
O1228 Gd1187 2.427 . S
O1228 C1251 1.252 . S
O1229 Gd1186 2.307 . S
O1229 C1244 1.261 . S
O1230 Gd1187 2.388 1_565 S
O1230 C1244 1.252 . S
C1231 O1219 1.265 . S
C1231 O1220 1.242 . S
C1232 O1223 1.261 . S
C1232 O1224 1.252 . S
C1233 C1236 1.394 . S
C1233 C1238 1.370 . S
C1233 C1239 1.500 . S
C1234 C1237 1.383 . S
C1234 C1238 1.395 . S
C1235 C1236 1.396 . S
C1235 C1237 1.365 . S
C1235 H1252 0.929 . S
C1236 C1233 1.394 . S
C1236 C1235 1.396 . S
C1236 H1253 0.930 . S
C1237 C1234 1.383 . S
C1237 C1235 1.365 . S
C1237 H1254 0.931 . S
C1238 C1233 1.370 . S
C1238 C1234 1.395 . S
C1238 H1255 0.930 . S
C1239 Gd1186 2.805 . S
C1239 O1221 1.263 . S
C1239 O1222 1.252 . S
C1239 C1233 1.500 . S
C1240 H1202 0.930 . S
C1240 C1216 1.417 . S
C1240 C1241 1.329 . S
C1241 C1211 1.437 . S
C1241 H1212 0.929 . S
C1241 C1240 1.329 . S
H1242 C1215 0.931 . S
C1243 O1225 1.265 . S
C1243 O1226 1.242 1_565 S
C1244 O1229 1.261 . S
C1244 O1230 1.252 . S
C1245 C1248 1.394 . S
C1245 C1250 1.370 . S
C1245 C1251 1.500 . S
C1246 C1249 1.383 . S
C1246 C1250 1.395 . S
C1247 C1248 1.396 . S
C1247 C1249 1.365 . S
C1247 H1256 0.929 . S
C1248 C1245 1.394 . S
C1248 C1247 1.396 . S
C1248 H1257 0.930 . S
C1249 C1246 1.383 . S
C1249 C1247 1.365 . S
C1249 H1258 0.931 . S
C1250 C1245 1.370 . S
C1250 C1246 1.395 . S
C1250 H1259 0.930 . S
C1251 Gd1187 2.805 . S
C1251 O1227 1.263 . S
C1251 O1228 1.252 . S
C1251 C1245 1.500 . S
H1252 C1235 0.929 . S
H1253 C1236 0.930 . S
H1254 C1237 0.931 . S
H1255 C1238 0.930 . S
H1256 C1247 0.929 . S
H1257 C1248 0.930 . S
H1258 C1249 0.931 . S
H1259 C1250 0.930 . S
C1260 C1262 1.422 . S
C1260 C1264 1.415 . S
C1260 N1266 1.369 . S
C1261 C1262 1.421 . S
C1261 C1263 1.417 . S
C1261 C1273 1.422 . S
C1262 C1260 1.422 . S
C1262 C1261 1.421 . S
C1262 N1272 1.359 . S
C1263 C1261 1.417 . S
C1263 C1265 1.329 . S
C1263 H1282 0.930 . S
C1264 C1260 1.415 . S
C1264 C1265 1.437 . S
C1264 C1268 1.413 . S
C1265 C1263 1.329 . S
C1265 C1264 1.437 . S
C1265 H1287 0.929 . S
N1266 C1260 1.369 . S
N1266 C1267 1.338 . S
N1266 Gd1271 2.622 . S
C1267 N1266 1.338 . S
C1267 C1269 1.378 . S
C1267 H1279 0.929 . S
C1268 C1264 1.413 . S
C1268 C1269 1.348 . S
C1268 H1284 0.931 . S
C1269 C1267 1.378 . S
C1269 C1268 1.348 . S
C1269 H1285 0.930 . S
Gd1270 N1290 2.622 . S
Gd1270 N1297 2.570 . S
Gd1270 O1304 2.353 1_554 S
Gd1270 O1305 2.468 . S
Gd1270 O1306 2.427 . S
Gd1270 O1308 2.388 . S
Gd1270 O1309 2.386 . S
Gd1270 O1313 2.307 1_554 S
Gd1270 C1323 2.805 . S
Gd1271 N1266 2.622 . S
Gd1271 N1272 2.570 . S
Gd1271 O1303 2.386 . S
Gd1271 O1307 2.307 1_556 S
Gd1271 O1310 2.353 1_556 S
Gd1271 O1311 2.468 . S
Gd1271 O1312 2.427 . S
Gd1271 O1314 2.388 . S
Gd1271 C1335 2.805 . S
N1272 C1262 1.359 . S
N1272 Gd1271 2.570 . S
N1272 C1274 1.343 . S
C1273 C1261 1.422 . S
C1273 C1275 1.321 . S
C1273 H1281 0.931 . S
C1274 N1272 1.343 . S
C1274 C1275 1.390 . S
C1274 H1276 0.931 . S
C1275 C1273 1.321 . S
C1275 C1274 1.390 . S
C1275 H1277 0.930 . S
H1276 C1274 0.931 . S
H1277 C1275 0.930 . S
H1278 C1301 0.931 . S
H1279 C1267 0.929 . S
H1280 C1302 0.930 . S
H1281 C1273 0.931 . S
H1282 C1263 0.930 . S
H1283 C1292 0.929 . S
H1284 C1268 0.931 . S
H1285 C1269 0.930 . S
H1286 C1324 0.930 . S
H1287 C1265 0.929 . S
H1288 C1293 0.931 . S
H1289 C1294 0.930 . S
N1290 Gd1270 2.622 . S
N1290 C1291 1.369 . S
N1290 C1292 1.338 . S
C1291 N1290 1.369 . S
C1291 C1295 1.415 . S
C1291 C1298 1.422 . S
C1292 H1283 0.929 . S
C1292 N1290 1.338 . S
C1292 C1294 1.378 . S
C1293 H1288 0.931 . S
C1293 C1294 1.348 . S
C1293 C1295 1.413 . S
C1294 H1289 0.930 . S
C1294 C1292 1.378 . S
C1294 C1293 1.348 . S
C1295 C1291 1.415 . S
C1295 C1293 1.413 . S
C1295 C1325 1.437 . S
H1296 C1325 0.929 . S
N1297 Gd1270 2.570 . S
N1297 C1298 1.359 . S
N1297 C1301 1.343 . S
C1298 C1291 1.422 . S
C1298 N1297 1.359 . S
C1298 C1300 1.421 . S
C1299 C1300 1.422 . S
C1299 C1302 1.321 . S
C1299 H1326 0.931 . S
C1300 C1298 1.421 . S
C1300 C1299 1.422 . S
C1300 C1324 1.417 . S
C1301 H1278 0.931 . S
C1301 N1297 1.343 . S
C1301 C1302 1.390 . S
C1302 H1280 0.930 . S
C1302 C1299 1.321 . S
C1302 C1301 1.390 . S
O1303 Gd1271 2.386 . S
O1303 C1315 1.265 . S
O1304 Gd1270 2.353 1_556 S
O1304 C1315 1.242 . S
O1305 Gd1270 2.468 . S
O1305 C1323 1.263 . S
O1306 Gd1270 2.427 . S
O1306 C1323 1.252 . S
O1307 Gd1271 2.307 1_554 S
O1307 C1316 1.261 . S
O1308 Gd1270 2.388 . S
O1308 C1316 1.252 . S
O1309 Gd1270 2.386 . S
O1309 C1327 1.265 . S
O1310 Gd1271 2.353 1_554 S
O1310 C1327 1.242 . S
O1311 Gd1271 2.468 . S
O1311 C1335 1.263 . S
O1312 Gd1271 2.427 . S
O1312 C1335 1.252 . S
O1313 Gd1270 2.307 1_556 S
O1313 C1328 1.261 . S
O1314 Gd1271 2.388 . S
O1314 C1328 1.252 . S
C1315 O1303 1.265 . S
C1315 O1304 1.242 . S
C1316 O1307 1.261 . S
C1316 O1308 1.252 . S
C1317 C1320 1.394 . S
C1317 C1322 1.370 . S
C1317 C1323 1.500 . S
C1318 C1321 1.383 . S
C1318 C1322 1.395 . S
C1319 C1320 1.396 . S
C1319 C1321 1.365 . S
C1319 H1336 0.929 . S
C1320 C1317 1.394 . S
C1320 C1319 1.396 . S
C1320 H1337 0.930 . S
C1321 C1318 1.383 . S
C1321 C1319 1.365 . S
C1321 H1338 0.931 . S
C1322 C1317 1.370 . S
C1322 C1318 1.395 . S
C1322 H1339 0.930 . S
C1323 Gd1270 2.805 . S
C1323 O1305 1.263 . S
C1323 O1306 1.252 . S
C1323 C1317 1.500 . S
C1324 H1286 0.930 . S
C1324 C1300 1.417 . S
C1324 C1325 1.329 . S
C1325 C1295 1.437 . S
C1325 H1296 0.929 . S
C1325 C1324 1.329 . S
H1326 C1299 0.931 . S
C1327 O1309 1.265 . S
C1327 O1310 1.242 . S
C1328 O1313 1.261 . S
C1328 O1314 1.252 . S
C1329 C1332 1.394 . S
C1329 C1334 1.370 . S
C1329 C1335 1.500 . S
C1330 C1333 1.383 . S
C1330 C1334 1.395 . S
C1331 C1332 1.396 . S
C1331 C1333 1.365 . S
C1331 H1340 0.929 . S
C1332 C1329 1.394 . S
C1332 C1331 1.396 . S
C1332 H1341 0.930 . S
C1333 C1330 1.383 . S
C1333 C1331 1.365 . S
C1333 H1342 0.931 . S
C1334 C1329 1.370 . S
C1334 C1330 1.395 . S
C1334 H1343 0.930 . S
C1335 Gd1271 2.805 . S
C1335 O1311 1.263 . S
C1335 O1312 1.252 . S
C1335 C1329 1.500 . S
H1336 C1319 0.929 . S
H1337 C1320 0.930 . S
H1338 C1321 0.931 . S
H1339 C1322 0.930 . S
H1340 C1331 0.929 . S
H1341 C1332 0.930 . S
H1342 C1333 0.931 . S
H1343 C1334 0.930 . S
C1344 C1345 1.349 . S
C1344 C1346 1.327 . S
C1344 H1369 0.950 . S
C1345 C1344 1.349 . S
C1345 C1361 1.349 1_655 S
C1346 C1344 1.327 . S
C1346 C1365 1.429 . S
C1346 H1370 0.950 . S
C1347 C1364 1.574 . S
C1347 C1366 1.368 . S
C1347 H1371 0.949 . S
H1348 C1352 0.949 . S
C1349 C1350 1.349 . S
C1349 C1351 1.327 . S
C1349 H1372 0.950 . S
C1350 C1349 1.349 . S
C1350 C1362 1.349 . S
C1351 C1349 1.327 . S
C1351 C1367 1.429 . S
C1351 H1373 0.950 . S
C1352 H1348 0.949 . S
C1352 C1360 1.574 . S
C1352 C1368 1.368 1_655 S
H1353 C1361 0.950 . S
H1354 C1359 0.950 . S
H1355 C1360 0.949 . S
H1356 C1362 0.950 . S
H1357 C1363 0.950 1_655 S
H1358 C1364 0.949 . S
C1359 H1354 0.950 . S
C1359 C1361 1.327 . S
C1359 C1365 1.429 1_455 S
C1360 C1352 1.574 . S
C1360 H1355 0.949 . S
C1360 C1366 1.368 1_655 S
C1361 C1345 1.349 1_455 S
C1361 H1353 0.950 . S
C1361 C1359 1.327 . S
C1362 C1350 1.349 . S
C1362 H1356 0.950 . S
C1362 C1363 1.327 . S
C1363 H1357 0.950 1_455 S
C1363 C1362 1.327 . S
C1363 C1367 1.429 . S
C1364 C1347 1.574 . S
C1364 H1358 0.949 . S
C1364 C1368 1.368 . S
C1365 C1346 1.429 . S
C1365 C1359 1.429 1_655 S
C1365 C1366 1.523 1_655 S
C1366 C1347 1.368 . S
C1366 C1360 1.368 1_455 S
C1366 C1365 1.523 1_455 S
C1367 C1351 1.429 . S
C1367 C1363 1.429 . S
C1367 C1368 1.523 . S
C1368 C1352 1.368 1_455 S
C1368 C1364 1.368 . S
C1368 C1367 1.523 . S
H1369 C1344 0.950 . S
H1370 C1346 0.950 . S
H1371 C1347 0.949 . S
H1372 C1349 0.950 . S
H1373 C1351 0.950 . S
C1374 C1375 1.349 . S
C1374 C1376 1.327 . S
C1374 H1399 0.950 . S
C1375 C1374 1.349 . S
C1375 C1391 1.349 . S
C1376 C1374 1.327 . S
C1376 C1395 1.429 . S
C1376 H1400 0.950 . S
C1377 C1394 1.574 . S
C1377 C1396 1.368 . S
C1377 H1401 0.949 . S
H1378 C1382 0.949 . S
C1379 C1380 1.349 . S
C1379 C1381 1.327 . S
C1379 H1402 0.950 . S
C1380 C1379 1.349 . S
C1380 C1392 1.349 . S
C1381 C1379 1.327 . S
C1381 C1397 1.429 . S
C1381 H1403 0.950 . S
C1382 H1378 0.949 . S
C1382 C1390 1.574 . S
C1382 C1398 1.368 . S
H1383 C1391 0.950 . S
H1384 C1389 0.950 . S
H1385 C1390 0.949 . S
H1386 C1392 0.950 . S
H1387 C1393 0.950 . S
H1388 C1394 0.949 . S
C1389 H1384 0.950 . S
C1389 C1391 1.327 . S
C1389 C1395 1.429 . S
C1390 C1382 1.574 . S
C1390 H1385 0.949 . S
C1390 C1396 1.368 . S
C1391 C1375 1.349 . S
C1391 H1383 0.950 . S
C1391 C1389 1.327 . S
C1392 C1380 1.349 . S
C1392 H1386 0.950 . S
C1392 C1393 1.327 . S
C1393 H1387 0.950 . S
C1393 C1392 1.327 . S
C1393 C1397 1.429 . S
C1394 C1377 1.574 . S
C1394 H1388 0.949 . S
C1394 C1398 1.368 . S
C1395 C1376 1.429 . S
C1395 C1389 1.429 . S
C1395 C1396 1.523 . S
C1396 C1377 1.368 . S
C1396 C1390 1.368 . S
C1396 C1395 1.523 . S
C1397 C1381 1.429 . S
C1397 C1393 1.429 . S
C1397 C1398 1.523 . S
C1398 C1382 1.368 . S
C1398 C1394 1.368 . S
C1398 C1397 1.523 . S
H1399 C1374 0.950 . S
H1400 C1376 0.950 . S
H1401 C1377 0.949 . S
H1402 C1379 0.950 . S
H1403 C1381 0.950 . S
C1404 C1405 1.349 . S
C1404 C1406 1.327 . S
C1404 H1429 0.950 . S
C1405 C1404 1.349 . S
C1405 C1421 1.349 . S
C1406 C1404 1.327 . S
C1406 C1425 1.429 . S
C1406 H1430 0.950 . S
C1407 C1424 1.574 . S
C1407 C1426 1.368 . S
C1407 H1431 0.949 . S
H1408 C1412 0.949 . S
C1409 C1410 1.349 . S
C1409 C1411 1.327 . S
C1409 H1432 0.950 . S
C1410 C1409 1.349 . S
C1410 C1422 1.349 . S
C1411 C1409 1.327 . S
C1411 C1427 1.429 . S
C1411 H1433 0.950 . S
C1412 H1408 0.949 . S
C1412 C1420 1.574 . S
C1412 C1428 1.368 . S
H1413 C1421 0.950 . S
H1414 C1419 0.950 . S
H1415 C1420 0.949 . S
H1416 C1422 0.950 . S
H1417 C1423 0.950 . S
H1418 C1424 0.949 . S
C1419 H1414 0.950 . S
C1419 C1421 1.327 . S
C1419 C1425 1.429 . S
C1420 C1412 1.574 . S
C1420 H1415 0.949 . S
C1420 C1426 1.368 . S
C1421 C1405 1.349 . S
C1421 H1413 0.950 . S
C1421 C1419 1.327 . S
C1422 C1410 1.349 . S
C1422 H1416 0.950 . S
C1422 C1423 1.327 . S
C1423 H1417 0.950 . S
C1423 C1422 1.327 . S
C1423 C1427 1.429 . S
C1424 C1407 1.574 . S
C1424 H1418 0.949 . S
C1424 C1428 1.368 . S
C1425 C1406 1.429 . S
C1425 C1419 1.429 . S
C1425 C1426 1.523 . S
C1426 C1407 1.368 . S
C1426 C1420 1.368 . S
C1426 C1425 1.523 . S
C1427 C1411 1.429 . S
C1427 C1423 1.429 . S
C1427 C1428 1.523 . S
C1428 C1412 1.368 . S
C1428 C1424 1.368 . S
C1428 C1427 1.523 . S
H1429 C1404 0.950 . S
H1430 C1406 0.950 . S
H1431 C1407 0.949 . S
H1432 C1409 0.950 . S
H1433 C1411 0.950 . S
C1434 C1435 1.349 . S
C1434 C1436 1.327 . S
C1434 H1459 0.950 . S
C1435 C1434 1.349 . S
C1435 C1451 1.349 . S
C1436 C1434 1.327 . S
C1436 C1455 1.429 . S
C1436 H1460 0.950 . S
C1437 C1454 1.574 . S
C1437 C1456 1.368 1_565 S
C1437 H1461 0.949 . S
H1438 C1442 0.949 . S
C1439 C1440 1.349 . S
C1439 C1441 1.327 . S
C1439 H1462 0.950 . S
C1440 C1439 1.349 . S
C1440 C1452 1.349 . S
C1441 C1439 1.327 . S
C1441 C1457 1.429 . S
C1441 H1463 0.950 . S
C1442 H1438 0.949 . S
C1442 C1450 1.574 . S
C1442 C1458 1.368 1_545 S
H1443 C1451 0.950 . S
H1444 C1449 0.950 1_565 S
H1445 C1450 0.949 . S
H1446 C1452 0.950 . S
H1447 C1453 0.950 1_545 S
H1448 C1454 0.949 . S
C1449 H1444 0.950 1_545 S
C1449 C1451 1.327 . S
C1449 C1455 1.429 . S
C1450 C1442 1.574 . S
C1450 H1445 0.949 . S
C1450 C1456 1.368 . S
C1451 C1435 1.349 . S
C1451 H1443 0.950 . S
C1451 C1449 1.327 . S
C1452 C1440 1.349 . S
C1452 H1446 0.950 . S
C1452 C1453 1.327 . S
C1453 H1447 0.950 1_565 S
C1453 C1452 1.327 . S
C1453 C1457 1.429 . S
C1454 C1437 1.574 . S
C1454 H1448 0.949 . S
C1454 C1458 1.368 . S
C1455 C1436 1.429 . S
C1455 C1449 1.429 . S
C1455 C1456 1.523 . S
C1456 C1437 1.368 1_545 S
C1456 C1450 1.368 . S
C1456 C1455 1.523 . S
C1457 C1441 1.429 . S
C1457 C1453 1.429 . S
C1457 C1458 1.523 . S
C1458 C1442 1.368 1_565 S
C1458 C1454 1.368 . S
C1458 C1457 1.523 . S
H1459 C1434 0.950 . S
H1460 C1436 0.950 . S
H1461 C1437 0.949 . S
H1462 C1439 0.950 . S
H1463 C1441 0.950 . S
C1464 C1465 1.349 1_545 S
C1464 C1466 1.327 . S
C1464 H1489 0.950 . S
C1465 C1464 1.349 1_565 S
C1465 C1481 1.349 . S
C1466 C1464 1.327 . S
C1466 C1485 1.429 1_545 S
C1466 H1490 0.950 . S
C1467 C1484 1.574 . S
C1467 C1486 1.365 1_565 S
C1467 H1491 0.949 . S
H1468 C1472 0.949 . S
C1469 C1470 1.349 . S
C1469 C1471 1.306 1_545 S
C1469 H1492 0.950 1_545 S
C1470 C1469 1.349 . S
C1470 C1482 1.349 . S
C1471 C1469 1.306 1_565 S
C1471 C1487 1.411 1_565 S
C1471 H1493 0.990 . S
C1472 H1468 0.949 . S
C1472 C1480 1.574 . S
C1472 C1488 1.368 . S
H1473 C1481 0.950 . S
H1474 C1479 0.950 . S
H1475 C1480 0.949 . S
H1476 C1482 0.950 . S
H1477 C1483 0.950 . S
H1478 C1484 0.949 . S
C1479 H1474 0.950 . S
C1479 C1481 1.327 . S
C1479 C1485 1.429 . S
C1480 C1472 1.574 . S
C1480 H1475 0.949 . S
C1480 C1486 1.373 . S
C1481 C1465 1.349 . S
C1481 H1473 0.950 . S
C1481 C1479 1.327 . S
C1482 C1470 1.349 . S
C1482 H1476 0.950 . S
C1482 C1483 1.327 . S
C1483 H1477 0.950 . S
C1483 C1482 1.327 . S
C1483 C1487 1.429 . S
C1484 C1467 1.574 . S
C1484 H1478 0.949 . S
C1484 C1488 1.368 1_565 S
C1485 C1466 1.429 1_565 S
C1485 C1479 1.429 . S
C1485 C1486 1.520 1_565 S
C1486 C1467 1.365 1_545 S
C1486 C1480 1.373 . S
C1486 C1485 1.520 1_545 S
C1487 C1471 1.411 1_545 S
C1487 C1483 1.429 . S
C1487 C1488 1.523 . S
C1488 C1472 1.368 . S
C1488 C1484 1.368 1_545 S
C1488 C1487 1.523 . S
H1489 C1464 0.950 . S
H1490 C1466 0.950 . S
H1491 C1467 0.949 . S
H1492 C1469 0.950 1_565 S
H1493 C1471 0.990 . S
C1494 C1495 1.349 . S
C1494 C1496 1.323 1_455 S
C1494 H1519 0.950 1_455 S
C1495 C1494 1.349 . S
C1495 C1511 1.349 . S
C1496 C1494 1.323 1_655 S
C1496 C1515 1.426 1_655 S
C1496 H1520 0.956 . S
C1497 C1514 1.574 . S
C1497 C1516 1.368 . S
C1497 H1521 0.949 . S
H1498 C1502 0.949 . S
C1499 C1500 1.349 1_455 S
C1499 C1501 1.327 . S
C1499 H1522 0.950 . S
C1500 C1499 1.349 1_655 S
C1500 C1512 1.349 . S
C1501 C1499 1.327 . S
C1501 C1517 1.429 1_455 S
C1501 H1523 0.950 . S
C1502 H1498 0.949 . S
C1502 C1510 1.574 . S
C1502 C1518 1.370 . S
H1503 C1511 0.950 . S
H1504 C1509 0.950 . S
H1505 C1510 0.949 . S
H1506 C1512 0.950 . S
H1507 C1513 0.950 . S
H1508 C1514 0.949 . S
C1509 H1504 0.950 . S
C1509 C1511 1.327 . S
C1509 C1515 1.429 . S
C1510 C1502 1.574 . S
C1510 H1505 0.949 . S
C1510 C1516 1.368 1_655 S
C1511 C1495 1.349 . S
C1511 H1503 0.950 . S
C1511 C1509 1.327 . S
C1512 C1500 1.349 . S
C1512 H1506 0.950 . S
C1512 C1513 1.327 . S
C1513 H1507 0.950 . S
C1513 C1512 1.327 . S
C1513 C1517 1.429 . S
C1514 C1497 1.574 . S
C1514 H1508 0.949 . S
C1514 C1518 1.365 1_455 S
C1515 C1496 1.426 1_455 S
C1515 C1509 1.429 . S
C1515 C1516 1.523 . S
C1516 C1497 1.368 . S
C1516 C1510 1.368 1_455 S
C1516 C1515 1.523 . S
C1517 C1501 1.429 1_655 S
C1517 C1513 1.429 . S
C1517 C1518 1.525 . S
C1518 C1502 1.370 . S
C1518 C1514 1.365 1_655 S
C1518 C1517 1.525 . S
H1519 C1494 0.950 1_655 S
H1520 C1496 0.956 . S
H1521 C1497 0.949 . S
H1522 C1499 0.950 . S
H1523 C1501 0.950 . S
C1524 C1525 1.349 . S
C1524 C1526 1.327 . S
C1524 H1549 0.950 . S
C1525 C1524 1.349 . S
C1525 C1541 1.349 . S
C1526 C1524 1.327 . S
C1526 C1545 1.429 . S
C1526 H1550 0.950 . S
C1527 C1544 1.574 . S
C1527 C1546 1.368 . S
C1527 H1551 0.949 . S
H1528 C1532 0.949 . S
C1529 C1530 1.349 . S
C1529 C1531 1.327 . S
C1529 H1552 0.950 . S
C1530 C1529 1.349 . S
C1530 C1542 1.349 . S
C1531 C1529 1.327 . S
C1531 C1547 1.429 . S
C1531 H1553 0.950 . S
C1532 H1528 0.949 . S
C1532 C1540 1.574 . S
C1532 C1548 1.368 . S
H1533 C1541 0.950 . S
H1534 C1539 0.950 . S
H1535 C1540 0.949 . S
H1536 C1542 0.950 . S
H1537 C1543 0.950 . S
H1538 C1544 0.949 . S
C1539 H1534 0.950 . S
C1539 C1541 1.327 . S
C1539 C1545 1.429 . S
C1540 C1532 1.574 . S
C1540 H1535 0.949 . S
C1540 C1546 1.368 . S
C1541 C1525 1.349 . S
C1541 H1533 0.950 . S
C1541 C1539 1.327 . S
C1542 C1530 1.349 . S
C1542 H1536 0.950 . S
C1542 C1543 1.327 . S
C1543 H1537 0.950 . S
C1543 C1542 1.327 . S
C1543 C1547 1.429 . S
C1544 C1527 1.574 . S
C1544 H1538 0.949 . S
C1544 C1548 1.368 . S
C1545 C1526 1.429 . S
C1545 C1539 1.429 . S
C1545 C1546 1.523 . S
C1546 C1527 1.368 . S
C1546 C1540 1.368 . S
C1546 C1545 1.523 . S
C1547 C1531 1.429 . S
C1547 C1543 1.429 . S
C1547 C1548 1.523 . S
C1548 C1532 1.368 . S
C1548 C1544 1.368 . S
C1548 C1547 1.523 . S
H1549 C1524 0.950 . S
H1550 C1526 0.950 . S
H1551 C1527 0.949 . S
H1552 C1529 0.950 . S
H1553 C1531 0.950 . S
C1554 C1555 1.349 . S
C1554 C1556 1.327 . S
C1554 H1579 0.950 . S
C1555 C1554 1.349 . S
C1555 C1571 1.349 . S
C1556 C1554 1.327 . S
C1556 C1575 1.429 . S
C1556 H1580 0.950 . S
C1557 C1574 1.574 . S
C1557 C1576 1.368 . S
C1557 H1581 0.949 . S
H1558 C1562 0.949 . S
C1559 C1560 1.349 . S
C1559 C1561 1.327 . S
C1559 H1582 0.950 . S
C1560 C1559 1.349 . S
C1560 C1572 1.349 . S
C1561 C1559 1.327 . S
C1561 C1577 1.429 . S
C1561 H1583 0.950 . S
C1562 H1558 0.949 . S
C1562 C1570 1.574 . S
C1562 C1578 1.368 . S
H1563 C1571 0.950 . S
H1564 C1569 0.950 . S
H1565 C1570 0.949 . S
H1566 C1572 0.950 . S
H1567 C1573 0.950 . S
H1568 C1574 0.949 . S
C1569 H1564 0.950 . S
C1569 C1571 1.327 . S
C1569 C1575 1.429 . S
C1570 C1562 1.574 . S
C1570 H1565 0.949 . S
C1570 C1576 1.368 . S
C1571 C1555 1.349 . S
C1571 H1563 0.950 . S
C1571 C1569 1.327 . S
C1572 C1560 1.349 . S
C1572 H1566 0.950 . S
C1572 C1573 1.327 . S
C1573 H1567 0.950 . S
C1573 C1572 1.327 . S
C1573 C1577 1.429 . S
C1574 C1557 1.574 . S
C1574 H1568 0.949 . S
C1574 C1578 1.368 . S
C1575 C1556 1.429 . S
C1575 C1569 1.429 . S
C1575 C1576 1.523 . S
C1576 C1557 1.368 . S
C1576 C1570 1.368 . S
C1576 C1575 1.523 . S
C1577 C1561 1.429 . S
C1577 C1573 1.429 . S
C1577 C1578 1.523 . S
C1578 C1562 1.368 . S
C1578 C1574 1.368 . S
C1578 C1577 1.523 . S
H1579 C1554 0.950 . S
H1580 C1556 0.950 . S
H1581 C1557 0.949 . S
H1582 C1559 0.950 . S
H1583 C1561 0.950 . S
C1584 C1585 1.349 . S
C1584 C1586 1.327 . S
C1584 H1609 0.950 . S
C1585 C1584 1.349 . S
C1585 C1601 1.349 . S
C1586 C1584 1.327 . S
C1586 C1605 1.429 . S
C1586 H1610 0.950 . S
C1587 C1604 1.574 . S
C1587 C1606 1.368 . S
C1587 H1611 0.949 . S
H1588 C1592 0.949 . S
C1589 C1590 1.349 . S
C1589 C1591 1.327 . S
C1589 H1612 0.950 . S
C1590 C1589 1.349 . S
C1590 C1602 1.349 . S
C1591 C1589 1.327 . S
C1591 C1607 1.429 . S
C1591 H1613 0.950 . S
C1592 H1588 0.949 . S
C1592 C1600 1.574 . S
C1592 C1608 1.368 . S
H1593 C1601 0.950 . S
H1594 C1599 0.950 . S
H1595 C1600 0.949 . S
H1596 C1602 0.950 . S
H1597 C1603 0.950 . S
H1598 C1604 0.949 . S
C1599 H1594 0.950 . S
C1599 C1601 1.327 . S
C1599 C1605 1.429 . S
C1600 C1592 1.574 . S
C1600 H1595 0.949 . S
C1600 C1606 1.368 . S
C1601 C1585 1.349 . S
C1601 H1593 0.950 . S
C1601 C1599 1.327 . S
C1602 C1590 1.349 . S
C1602 H1596 0.950 . S
C1602 C1603 1.327 . S
C1603 H1597 0.950 . S
C1603 C1602 1.327 . S
C1603 C1607 1.429 . S
C1604 C1587 1.574 . S
C1604 H1598 0.949 . S
C1604 C1608 1.368 . S
C1605 C1586 1.429 . S
C1605 C1599 1.429 . S
C1605 C1606 1.523 . S
C1606 C1587 1.368 . S
C1606 C1600 1.368 . S
C1606 C1605 1.523 . S
C1607 C1591 1.429 . S
C1607 C1603 1.429 . S
C1607 C1608 1.523 . S
C1608 C1592 1.368 . S
C1608 C1604 1.368 . S
C1608 C1607 1.523 . S
H1609 C1584 0.950 . S
H1610 C1586 0.950 . S
H1611 C1587 0.949 . S
H1612 C1589 0.950 . S
H1613 C1591 0.950 . S
C1614 C1615 1.349 . S
C1614 C1616 1.327 . S
C1614 H1639 0.950 . S
C1615 C1614 1.349 . S
C1615 C1631 1.349 . S
C1616 C1614 1.327 . S
C1616 C1635 1.429 . S
C1616 H1640 0.950 . S
C1617 C1634 1.574 . S
C1617 C1636 1.368 . S
C1617 H1641 0.949 . S
H1618 C1622 0.949 . S
C1619 C1620 1.349 . S
C1619 C1621 1.327 . S
C1619 H1642 0.950 . S
C1620 C1619 1.349 . S
C1620 C1632 1.349 . S
C1621 C1619 1.327 . S
C1621 C1637 1.429 . S
C1621 H1643 0.950 . S
C1622 H1618 0.949 . S
C1622 C1630 1.574 . S
C1622 C1638 1.368 . S
H1623 C1631 0.950 . S
H1624 C1629 0.950 . S
H1625 C1630 0.949 . S
H1626 C1632 0.950 . S
H1627 C1633 0.950 . S
H1628 C1634 0.949 . S
C1629 H1624 0.950 . S
C1629 C1631 1.327 . S
C1629 C1635 1.429 . S
C1630 C1622 1.574 . S
C1630 H1625 0.949 . S
C1630 C1636 1.368 . S
C1631 C1615 1.349 . S
C1631 H1623 0.950 . S
C1631 C1629 1.327 . S
C1632 C1620 1.349 . S
C1632 H1626 0.950 . S
C1632 C1633 1.327 . S
C1633 H1627 0.950 . S
C1633 C1632 1.327 . S
C1633 C1637 1.429 . S
C1634 C1617 1.574 . S
C1634 H1628 0.949 . S
C1634 C1638 1.368 . S
C1635 C1616 1.429 . S
C1635 C1629 1.429 . S
C1635 C1636 1.523 . S
C1636 C1617 1.368 . S
C1636 C1630 1.368 . S
C1636 C1635 1.523 . S
C1637 C1621 1.429 . S
C1637 C1633 1.429 . S
C1637 C1638 1.523 . S
C1638 C1622 1.368 . S
C1638 C1634 1.368 . S
C1638 C1637 1.523 . S
H1639 C1614 0.950 . S
H1640 C1616 0.950 . S
H1641 C1617 0.949 . S
H1642 C1619 0.950 . S
H1643 C1621 0.950 . S
C1644 C1645 1.349 1_545 S
C1644 C1646 1.327 . S
C1644 H1669 0.950 . S
C1645 C1644 1.349 1_565 S
C1645 C1661 1.349 . S
C1646 C1644 1.327 . S
C1646 C1665 1.429 1_545 S
C1646 H1670 0.950 . S
C1647 C1664 1.574 . S
C1647 C1666 1.355 1_565 S
C1647 H1671 0.949 . S
H1648 C1652 0.949 . S
C1649 C1650 1.349 . S
C1649 C1651 1.327 . S
C1649 H1672 0.950 1_545 S
C1650 C1649 1.349 . S
C1650 C1662 1.349 . S
C1651 C1649 1.327 . S
C1651 C1667 1.429 . S
C1651 H1673 0.950 1_545 S
C1652 H1648 0.949 . S
C1652 C1660 1.574 . S
C1652 C1668 1.368 . S
H1653 C1661 0.950 . S
H1654 C1659 0.950 . S
H1655 C1660 0.949 . S
H1656 C1662 0.950 . S
H1657 C1663 0.950 . S
H1658 C1664 0.949 . S
C1659 H1654 0.950 . S
C1659 C1661 1.327 . S
C1659 C1665 1.429 . S
C1660 C1652 1.574 . S
C1660 H1655 0.949 . S
C1660 C1666 1.395 . S
C1661 C1645 1.349 . S
C1661 H1653 0.950 . S
C1661 C1659 1.327 . S
C1662 C1650 1.349 . S
C1662 H1656 0.950 . S
C1662 C1663 1.327 . S
C1663 H1657 0.950 . S
C1663 C1662 1.327 . S
C1663 C1667 1.429 . S
C1664 C1647 1.574 . S
C1664 H1658 0.949 . S
C1664 C1668 1.368 1_565 S
C1665 C1646 1.429 1_565 S
C1665 C1659 1.429 . S
C1665 C1666 1.507 1_565 S
C1666 C1647 1.355 1_545 S
C1666 C1660 1.395 . S
C1666 C1665 1.507 1_545 S
C1667 C1651 1.429 . S
C1667 C1663 1.429 . S
C1667 C1668 1.523 . S
C1668 C1652 1.368 . S
C1668 C1664 1.368 1_545 S
C1668 C1667 1.523 . S
H1669 C1644 0.950 . S
H1670 C1646 0.950 . S
H1671 C1647 0.949 . S
H1672 C1649 0.950 1_565 S
H1673 C1651 0.950 1_565 S
C1674 C1675 1.349 . S
C1674 C1676 1.321 1_455 S
C1674 H1699 0.950 1_455 S
C1675 C1674 1.349 . S
C1675 C1691 1.349 . S
C1676 C1674 1.321 1_655 S
C1676 C1695 1.424 1_655 S
C1676 H1700 0.961 . S
C1677 C1694 1.574 . S
C1677 C1696 1.368 . S
C1677 H1701 0.949 . S
H1678 C1682 0.949 . S
C1679 C1680 1.349 1_455 S
C1679 C1681 1.327 . S
C1679 H1702 0.950 . S
C1680 C1679 1.349 1_655 S
C1680 C1692 1.349 . S
C1681 C1679 1.327 . S
C1681 C1697 1.429 1_455 S
C1681 H1703 0.950 . S
C1682 H1678 0.949 . S
C1682 C1690 1.574 . S
C1682 C1698 1.340 1_655 S
H1683 C1691 0.950 . S
H1684 C1689 0.950 . S
H1685 C1690 0.949 . S
H1686 C1692 0.950 . S
H1687 C1693 0.950 . S
H1688 C1694 0.949 . S
C1689 H1684 0.950 . S
C1689 C1691 1.327 . S
C1689 C1695 1.429 . S
C1690 C1682 1.574 . S
C1690 H1685 0.949 . S
C1690 C1696 1.368 1_655 S
C1691 C1675 1.349 . S
C1691 H1683 0.950 . S
C1691 C1689 1.327 . S
C1692 C1680 1.349 . S
C1692 H1686 0.950 . S
C1692 C1693 1.327 . S
C1693 H1687 0.950 . S
C1693 C1692 1.327 . S
C1693 C1697 1.429 . S
C1694 C1677 1.574 . S
C1694 H1688 0.949 . S
C1694 C1698 1.417 . S
C1695 C1676 1.424 1_455 S
C1695 C1689 1.429 . S
C1695 C1696 1.523 . S
C1696 C1677 1.368 . S
C1696 C1690 1.368 1_455 S
C1696 C1695 1.523 . S
C1697 C1681 1.429 1_655 S
C1697 C1693 1.429 . S
C1697 C1698 1.498 1_655 S
C1698 C1682 1.340 1_455 S
C1698 C1694 1.417 . S
C1698 C1697 1.498 1_455 S
H1699 C1674 0.950 1_655 S
H1700 C1676 0.961 . S
H1701 C1677 0.949 . S
H1702 C1679 0.950 . S
H1703 C1681 0.950 . S
C1704 C1705 1.349 . S
C1704 C1706 1.327 . S
C1704 H1729 0.950 1_556 S
C1705 C1704 1.349 . S
C1705 C1721 1.349 . S
C1706 C1704 1.327 . S
C1706 C1725 1.429 . S
C1706 H1730 0.950 1_556 S
C1707 C1724 1.574 . S
C1707 C1726 1.368 . S
C1707 H1731 0.949 . S
H1708 C1712 0.949 . S
C1709 C1710 1.349 . S
C1709 C1711 1.327 . S
C1709 H1732 0.950 . S
C1710 C1709 1.349 . S
C1710 C1722 1.349 1_556 S
C1711 C1709 1.327 . S
C1711 C1727 1.429 . S
C1711 H1733 0.950 . S
C1712 H1708 0.949 . S
C1712 C1720 1.574 . S
C1712 C1728 1.368 1_554 S
H1713 C1721 0.950 . S
H1714 C1719 0.950 . S
H1715 C1720 0.949 . S
H1716 C1722 0.950 . S
H1717 C1723 0.950 . S
H1718 C1724 0.949 . S
C1719 H1714 0.950 . S
C1719 C1721 1.327 . S
C1719 C1725 1.429 . S
C1720 C1712 1.574 . S
C1720 H1715 0.949 . S
C1720 C1726 1.368 1_554 S
C1721 C1705 1.349 . S
C1721 H1713 0.950 . S
C1721 C1719 1.327 . S
C1722 C1710 1.349 1_554 S
C1722 H1716 0.950 . S
C1722 C1723 1.327 . S
C1723 H1717 0.950 . S
C1723 C1722 1.327 . S
C1723 C1727 1.429 1_554 S
C1724 C1707 1.574 . S
C1724 H1718 0.949 . S
C1724 C1728 1.368 . S
C1725 C1706 1.429 . S
C1725 C1719 1.429 . S
C1725 C1726 1.523 . S
C1726 C1707 1.368 . S
C1726 C1720 1.368 1_556 S
C1726 C1725 1.523 . S
C1727 C1711 1.429 . S
C1727 C1723 1.429 1_556 S
C1727 C1728 1.523 . S
C1728 C1712 1.368 1_556 S
C1728 C1724 1.368 . S
C1728 C1727 1.523 . S
H1729 C1704 0.950 1_554 S
H1730 C1706 0.950 1_554 S
H1731 C1707 0.949 . S
H1732 C1709 0.950 . S
H1733 C1711 0.950 . S
C1734 C1735 1.349 . S
C1734 C1736 1.327 . S
C1734 H1759 0.950 . S
C1735 C1734 1.349 . S
C1735 C1751 1.349 . S
C1736 C1734 1.327 . S
C1736 C1755 1.429 . S
C1736 H1760 0.950 . S
C1737 C1754 1.574 . S
C1737 C1756 1.368 . S
C1737 H1761 0.949 . S
H1738 C1742 0.949 . S
C1739 C1740 1.349 . S
C1739 C1741 1.327 . S
C1739 H1762 0.950 . S
C1740 C1739 1.349 . S
C1740 C1752 1.349 . S
C1741 C1739 1.327 . S
C1741 C1757 1.429 . S
C1741 H1763 0.950 . S
C1742 H1738 0.949 . S
C1742 C1750 1.574 . S
C1742 C1758 1.368 . S
H1743 C1751 0.950 . S
H1744 C1749 0.950 . S
H1745 C1750 0.949 . S
H1746 C1752 0.950 . S
H1747 C1753 0.950 . S
H1748 C1754 0.949 . S
C1749 H1744 0.950 . S
C1749 C1751 1.327 . S
C1749 C1755 1.429 . S
C1750 C1742 1.574 . S
C1750 H1745 0.949 . S
C1750 C1756 1.368 . S
C1751 C1735 1.349 . S
C1751 H1743 0.950 . S
C1751 C1749 1.327 . S
C1752 C1740 1.349 . S
C1752 H1746 0.950 . S
C1752 C1753 1.327 . S
C1753 H1747 0.950 . S
C1753 C1752 1.327 . S
C1753 C1757 1.429 . S
C1754 C1737 1.574 . S
C1754 H1748 0.949 . S
C1754 C1758 1.368 . S
C1755 C1736 1.429 . S
C1755 C1749 1.429 . S
C1755 C1756 1.523 . S
C1756 C1737 1.368 . S
C1756 C1750 1.368 . S
C1756 C1755 1.523 . S
C1757 C1741 1.429 . S
C1757 C1753 1.429 . S
C1757 C1758 1.523 . S
C1758 C1742 1.368 . S
C1758 C1754 1.368 . S
C1758 C1757 1.523 . S
H1759 C1734 0.950 . S
H1760 C1736 0.950 . S
H1761 C1737 0.949 . S
H1762 C1739 0.950 . S
H1763 C1741 0.950 . S
C1764 C1765 1.349 . S
C1764 C1766 1.327 . S
C1764 H1789 0.950 . S
C1765 C1764 1.349 . S
C1765 C1781 1.349 . S
C1766 C1764 1.327 . S
C1766 C1785 1.429 . S
C1766 H1790 0.950 . S
C1767 C1784 1.574 . S
C1767 C1786 1.368 . S
C1767 H1791 0.949 . S
H1768 C1772 0.949 . S
C1769 C1770 1.349 . S
C1769 C1771 1.327 . S
C1769 H1792 0.950 . S
C1770 C1769 1.349 . S
C1770 C1782 1.349 . S
C1771 C1769 1.327 . S
C1771 C1787 1.429 . S
C1771 H1793 0.950 . S
C1772 H1768 0.949 . S
C1772 C1780 1.574 . S
C1772 C1788 1.368 . S
H1773 C1781 0.950 . S
H1774 C1779 0.950 . S
H1775 C1780 0.949 . S
H1776 C1782 0.950 . S
H1777 C1783 0.950 . S
H1778 C1784 0.949 . S
C1779 H1774 0.950 . S
C1779 C1781 1.327 . S
C1779 C1785 1.429 . S
C1780 C1772 1.574 . S
C1780 H1775 0.949 . S
C1780 C1786 1.368 . S
C1781 C1765 1.349 . S
C1781 H1773 0.950 . S
C1781 C1779 1.327 . S
C1782 C1770 1.349 . S
C1782 H1776 0.950 . S
C1782 C1783 1.327 . S
C1783 H1777 0.950 . S
C1783 C1782 1.327 . S
C1783 C1787 1.429 . S
C1784 C1767 1.574 . S
C1784 H1778 0.949 . S
C1784 C1788 1.368 . S
C1785 C1766 1.429 . S
C1785 C1779 1.429 . S
C1785 C1786 1.523 . S
C1786 C1767 1.368 . S
C1786 C1780 1.368 . S
C1786 C1785 1.523 . S
C1787 C1771 1.429 . S
C1787 C1783 1.429 . S
C1787 C1788 1.523 . S
C1788 C1772 1.368 . S
C1788 C1784 1.368 . S
C1788 C1787 1.523 . S
H1789 C1764 0.950 . S
H1790 C1766 0.950 . S
H1791 C1767 0.949 . S
H1792 C1769 0.950 . S
H1793 C1771 0.950 . S
C1794 C1795 1.349 . S
C1794 C1796 1.327 . S
C1794 H1819 0.950 . S
C1795 C1794 1.349 . S
C1795 C1811 1.349 . S
C1796 C1794 1.327 . S
C1796 C1815 1.429 . S
C1796 H1820 0.950 . S
C1797 C1814 1.574 . S
C1797 C1816 1.368 . S
C1797 H1821 0.949 . S
H1798 C1802 0.949 . S
C1799 C1800 1.349 . S
C1799 C1801 1.327 . S
C1799 H1822 0.950 . S
C1800 C1799 1.349 . S
C1800 C1812 1.349 . S
C1801 C1799 1.327 . S
C1801 C1817 1.429 . S
C1801 H1823 0.950 . S
C1802 H1798 0.949 . S
C1802 C1810 1.574 . S
C1802 C1818 1.368 . S
H1803 C1811 0.950 . S
H1804 C1809 0.950 . S
H1805 C1810 0.949 . S
H1806 C1812 0.950 . S
H1807 C1813 0.950 . S
H1808 C1814 0.949 . S
C1809 H1804 0.950 . S
C1809 C1811 1.327 . S
C1809 C1815 1.429 . S
C1810 C1802 1.574 . S
C1810 H1805 0.949 . S
C1810 C1816 1.368 . S
C1811 C1795 1.349 . S
C1811 H1803 0.950 . S
C1811 C1809 1.327 . S
C1812 C1800 1.349 . S
C1812 H1806 0.950 . S
C1812 C1813 1.327 . S
C1813 H1807 0.950 . S
C1813 C1812 1.327 . S
C1813 C1817 1.429 . S
C1814 C1797 1.574 . S
C1814 H1808 0.949 . S
C1814 C1818 1.368 . S
C1815 C1796 1.429 . S
C1815 C1809 1.429 . S
C1815 C1816 1.523 . S
C1816 C1797 1.368 . S
C1816 C1810 1.368 . S
C1816 C1815 1.523 . S
C1817 C1801 1.429 . S
C1817 C1813 1.429 . S
C1817 C1818 1.523 . S
C1818 C1802 1.368 . S
C1818 C1814 1.368 . S
C1818 C1817 1.523 . S
H1819 C1794 0.950 . S
H1820 C1796 0.950 . S
H1821 C1797 0.949 . S
H1822 C1799 0.950 . S
H1823 C1801 0.950 . S
C1824 C1825 1.349 . S
C1824 C1826 1.327 . S
C1824 H1849 0.950 . S
C1825 C1824 1.349 . S
C1825 C1841 1.349 . S
C1826 C1824 1.327 . S
C1826 C1845 1.429 . S
C1826 H1850 0.950 . S
C1827 C1844 1.574 . S
C1827 C1846 1.368 . S
C1827 H1851 0.949 . S
H1828 C1832 0.949 . S
C1829 C1830 1.349 . S
C1829 C1831 1.327 . S
C1829 H1852 0.950 . S
C1830 C1829 1.349 . S
C1830 C1842 1.349 . S
C1831 C1829 1.327 . S
C1831 C1847 1.429 . S
C1831 H1853 0.950 . S
C1832 H1828 0.949 . S
C1832 C1840 1.574 . S
C1832 C1848 1.368 . S
H1833 C1841 0.950 . S
H1834 C1839 0.950 . S
H1835 C1840 0.949 . S
H1836 C1842 0.950 . S
H1837 C1843 0.950 . S
H1838 C1844 0.949 . S
C1839 H1834 0.950 . S
C1839 C1841 1.327 . S
C1839 C1845 1.429 . S
C1840 C1832 1.574 . S
C1840 H1835 0.949 . S
C1840 C1846 1.368 . S
C1841 C1825 1.349 . S
C1841 H1833 0.950 . S
C1841 C1839 1.327 . S
C1842 C1830 1.349 . S
C1842 H1836 0.950 . S
C1842 C1843 1.327 . S
C1843 H1837 0.950 . S
C1843 C1842 1.327 . S
C1843 C1847 1.429 . S
C1844 C1827 1.574 . S
C1844 H1838 0.949 . S
C1844 C1848 1.368 . S
C1845 C1826 1.429 . S
C1845 C1839 1.429 . S
C1845 C1846 1.523 . S
C1846 C1827 1.368 . S
C1846 C1840 1.368 . S
C1846 C1845 1.523 . S
C1847 C1831 1.429 . S
C1847 C1843 1.429 . S
C1847 C1848 1.523 . S
C1848 C1832 1.368 . S
C1848 C1844 1.368 . S
C1848 C1847 1.523 . S
H1849 C1824 0.950 . S
H1850 C1826 0.950 . S
H1851 C1827 0.949 . S
H1852 C1829 0.950 . S
H1853 C1831 0.950 . S
C1854 C1855 1.349 . S
C1854 C1856 1.327 . S
C1854 H1879 0.950 . S
C1855 C1854 1.349 . S
C1855 C1871 1.349 . S
C1856 C1854 1.327 . S
C1856 C1875 1.429 . S
C1856 H1880 0.950 . S
C1857 C1874 1.574 . S
C1857 C1876 1.368 . S
C1857 H1881 0.949 . S
H1858 C1862 0.949 . S
C1859 C1860 1.349 . S
C1859 C1861 1.327 . S
C1859 H1882 0.950 . S
C1860 C1859 1.349 . S
C1860 C1872 1.349 . S
C1861 C1859 1.327 . S
C1861 C1877 1.429 . S
C1861 H1883 0.950 . S
C1862 H1858 0.949 . S
C1862 C1870 1.574 . S
C1862 C1878 1.368 . S
H1863 C1871 0.950 . S
H1864 C1869 0.950 . S
H1865 C1870 0.949 . S
H1866 C1872 0.950 . S
H1867 C1873 0.950 . S
H1868 C1874 0.949 . S
C1869 H1864 0.950 . S
C1869 C1871 1.327 . S
C1869 C1875 1.429 . S
C1870 C1862 1.574 . S
C1870 H1865 0.949 . S
C1870 C1876 1.368 . S
C1871 C1855 1.349 . S
C1871 H1863 0.950 . S
C1871 C1869 1.327 . S
C1872 C1860 1.349 . S
C1872 H1866 0.950 . S
C1872 C1873 1.327 . S
C1873 H1867 0.950 . S
C1873 C1872 1.327 . S
C1873 C1877 1.429 . S
C1874 C1857 1.574 . S
C1874 H1868 0.949 . S
C1874 C1878 1.368 . S
C1875 C1856 1.429 . S
C1875 C1869 1.429 . S
C1875 C1876 1.523 . S
C1876 C1857 1.368 . S
C1876 C1870 1.368 . S
C1876 C1875 1.523 . S
C1877 C1861 1.429 . S
C1877 C1873 1.429 . S
C1877 C1878 1.523 . S
C1878 C1862 1.368 . S
C1878 C1874 1.368 . S
C1878 C1877 1.523 . S
H1879 C1854 0.950 . S
H1880 C1856 0.950 . S
H1881 C1857 0.949 . S
H1882 C1859 0.950 . S
H1883 C1861 0.950 . S
C1884 C1885 1.349 . S
C1884 C1886 1.327 . S
C1884 H1909 0.950 . S
C1885 C1884 1.349 . S
C1885 C1901 1.349 . S
C1886 C1884 1.327 . S
C1886 C1905 1.429 . S
C1886 H1910 0.950 . S
C1887 C1904 1.574 . S
C1887 C1906 1.368 . S
C1887 H1911 0.949 . S
H1888 C1892 0.949 . S
C1889 C1890 1.349 . S
C1889 C1891 1.327 . S
C1889 H1912 0.950 . S
C1890 C1889 1.349 . S
C1890 C1902 1.349 . S
C1891 C1889 1.327 . S
C1891 C1907 1.429 . S
C1891 H1913 0.950 . S
C1892 H1888 0.949 . S
C1892 C1900 1.574 . S
C1892 C1908 1.368 . S
H1893 C1901 0.950 . S
H1894 C1899 0.950 . S
H1895 C1900 0.949 . S
H1896 C1902 0.950 . S
H1897 C1903 0.950 . S
H1898 C1904 0.949 . S
C1899 H1894 0.950 . S
C1899 C1901 1.327 . S
C1899 C1905 1.429 . S
C1900 C1892 1.574 . S
C1900 H1895 0.949 . S
C1900 C1906 1.368 . S
C1901 C1885 1.349 . S
C1901 H1893 0.950 . S
C1901 C1899 1.327 . S
C1902 C1890 1.349 . S
C1902 H1896 0.950 . S
C1902 C1903 1.327 . S
C1903 H1897 0.950 . S
C1903 C1902 1.327 . S
C1903 C1907 1.429 . S
C1904 C1887 1.574 . S
C1904 H1898 0.949 . S
C1904 C1908 1.368 . S
C1905 C1886 1.429 . S
C1905 C1899 1.429 . S
C1905 C1906 1.523 . S
C1906 C1887 1.368 . S
C1906 C1900 1.368 . S
C1906 C1905 1.523 . S
C1907 C1891 1.429 . S
C1907 C1903 1.429 . S
C1907 C1908 1.523 . S
C1908 C1892 1.368 . S
C1908 C1904 1.368 . S
C1908 C1907 1.523 . S
H1909 C1884 0.950 . S
H1910 C1886 0.950 . S
H1911 C1887 0.949 . S
H1912 C1889 0.950 . S
H1913 C1891 0.950 . S
C1914 C1915 1.349 . S
C1914 C1916 1.327 . S
C1914 H1939 0.950 . S
C1915 C1914 1.349 . S
C1915 C1931 1.349 . S
C1916 C1914 1.327 . S
C1916 C1935 1.429 . S
C1916 H1940 0.950 . S
C1917 C1934 1.574 . S
C1917 C1936 1.368 . S
C1917 H1941 0.949 . S
H1918 C1922 0.949 . S
C1919 C1920 1.349 . S
C1919 C1921 1.327 . S
C1919 H1942 0.950 . S
C1920 C1919 1.349 . S
C1920 C1932 1.349 . S
C1921 C1919 1.327 . S
C1921 C1937 1.429 . S
C1921 H1943 0.950 . S
C1922 H1918 0.949 . S
C1922 C1930 1.574 . S
C1922 C1938 1.368 . S
H1923 C1931 0.950 . S
H1924 C1929 0.950 . S
H1925 C1930 0.949 . S
H1926 C1932 0.950 . S
H1927 C1933 0.950 . S
H1928 C1934 0.949 . S
C1929 H1924 0.950 . S
C1929 C1931 1.327 . S
C1929 C1935 1.429 . S
C1930 C1922 1.574 . S
C1930 H1925 0.949 . S
C1930 C1936 1.368 . S
C1931 C1915 1.349 . S
C1931 H1923 0.950 . S
C1931 C1929 1.327 . S
C1932 C1920 1.349 . S
C1932 H1926 0.950 . S
C1932 C1933 1.327 . S
C1933 H1927 0.950 . S
C1933 C1932 1.327 . S
C1933 C1937 1.429 . S
C1934 C1917 1.574 . S
C1934 H1928 0.949 . S
C1934 C1938 1.368 . S
C1935 C1916 1.429 . S
C1935 C1929 1.429 . S
C1935 C1936 1.523 . S
C1936 C1917 1.368 . S
C1936 C1930 1.368 . S
C1936 C1935 1.523 . S
C1937 C1921 1.429 . S
C1937 C1933 1.429 . S
C1937 C1938 1.523 . S
C1938 C1922 1.368 . S
C1938 C1934 1.368 . S
C1938 C1937 1.523 . S
H1939 C1914 0.950 . S
H1940 C1916 0.950 . S
H1941 C1917 0.949 . S
H1942 C1919 0.950 . S
H1943 C1921 0.950 . S
C1944 C1945 1.349 . S
C1944 C1946 1.327 . S
C1944 H1969 0.950 . S
C1945 C1944 1.349 . S
C1945 C1961 1.349 . S
C1946 C1944 1.327 . S
C1946 C1965 1.429 . S
C1946 H1970 0.950 . S
C1947 C1964 1.574 . S
C1947 C1966 1.368 . S
C1947 H1971 0.949 . S
H1948 C1952 0.949 . S
C1949 C1950 1.349 . S
C1949 C1951 1.327 . S
C1949 H1972 0.950 . S
C1950 C1949 1.349 . S
C1950 C1962 1.349 . S
C1951 C1949 1.327 . S
C1951 C1967 1.429 . S
C1951 H1973 0.950 . S
C1952 H1948 0.949 . S
C1952 C1960 1.574 . S
C1952 C1968 1.368 . S
H1953 C1961 0.950 . S
H1954 C1959 0.950 . S
H1955 C1960 0.949 . S
H1956 C1962 0.950 . S
H1957 C1963 0.950 . S
H1958 C1964 0.949 . S
C1959 H1954 0.950 . S
C1959 C1961 1.327 . S
C1959 C1965 1.429 . S
C1960 C1952 1.574 . S
C1960 H1955 0.949 . S
C1960 C1966 1.368 . S
C1961 C1945 1.349 . S
C1961 H1953 0.950 . S
C1961 C1959 1.327 . S
C1962 C1950 1.349 . S
C1962 H1956 0.950 . S
C1962 C1963 1.327 . S
C1963 H1957 0.950 . S
C1963 C1962 1.327 . S
C1963 C1967 1.429 . S
C1964 C1947 1.574 . S
C1964 H1958 0.949 . S
C1964 C1968 1.368 . S
C1965 C1946 1.429 . S
C1965 C1959 1.429 . S
C1965 C1966 1.523 . S
C1966 C1947 1.368 . S
C1966 C1960 1.368 . S
C1966 C1965 1.523 . S
C1967 C1951 1.429 . S
C1967 C1963 1.429 . S
C1967 C1968 1.523 . S
C1968 C1952 1.368 . S
C1968 C1964 1.368 . S
C1968 C1967 1.523 . S
H1969 C1944 0.950 . S
H1970 C1946 0.950 . S
H1971 C1947 0.949 . S
H1972 C1949 0.950 . S
H1973 C1951 0.950 . S
C1974 C1975 1.349 . S
C1974 C1976 1.327 . S
C1974 H1999 0.950 . S
C1975 C1974 1.349 . S
C1975 C1991 1.349 . S
C1976 C1974 1.327 . S
C1976 C1995 1.429 . S
C1976 H2000 0.950 . S
C1977 C1994 1.574 . S
C1977 C1996 1.368 1_655 S
C1977 H2001 0.949 . S
H1978 C1982 0.949 . S
C1979 C1980 1.349 . S
C1979 C1981 1.327 . S
C1979 H2002 0.950 . S
C1980 C1979 1.349 . S
C1980 C1992 1.349 1_655 S
C1981 C1979 1.327 . S
C1981 C1997 1.429 . S
C1981 H2003 0.950 . S
C1982 H1978 0.949 . S
C1982 C1990 1.574 . S
C1982 C1998 1.368 . S
H1983 C1991 0.950 . S
H1984 C1989 0.950 1_655 S
H1985 C1990 0.949 . S
H1986 C1992 0.950 . S
H1987 C1993 0.950 . S
H1988 C1994 0.949 . S
C1989 H1984 0.950 1_455 S
C1989 C1991 1.327 . S
C1989 C1995 1.429 . S
C1990 C1982 1.574 . S
C1990 H1985 0.949 . S
C1990 C1996 1.368 . S
C1991 C1975 1.349 . S
C1991 H1983 0.950 . S
C1991 C1989 1.327 . S
C1992 C1980 1.349 1_455 S
C1992 H1986 0.950 . S
C1992 C1993 1.327 . S
C1993 H1987 0.950 . S
C1993 C1992 1.327 . S
C1993 C1997 1.429 1_455 S
C1994 C1977 1.574 . S
C1994 H1988 0.949 . S
C1994 C1998 1.368 1_655 S
C1995 C1976 1.429 . S
C1995 C1989 1.429 . S
C1995 C1996 1.523 . S
C1996 C1977 1.368 1_455 S
C1996 C1990 1.368 . S
C1996 C1995 1.523 . S
C1997 C1981 1.429 . S
C1997 C1993 1.429 1_655 S
C1997 C1998 1.523 1_655 S
C1998 C1982 1.368 . S
C1998 C1994 1.368 1_455 S
C1998 C1997 1.523 1_455 S
H1999 C1974 0.950 . S
H2000 C1976 0.950 . S
H2001 C1977 0.949 . S
H2002 C1979 0.950 . S
H2003 C1981 0.950 . S
C2004 C2005 1.349 . S
C2004 C2006 1.327 . S
C2004 H2029 0.950 . S
C2005 C2004 1.349 . S
C2005 C2021 1.349 . S
C2006 C2004 1.327 . S
C2006 C2025 1.429 . S
C2006 H2030 0.950 . S
C2007 C2024 1.574 . S
C2007 C2026 1.368 . S
C2007 H2031 0.949 . S
H2008 C2012 0.949 . S
C2009 C2010 1.349 . S
C2009 C2011 1.327 . S
C2009 H2032 0.950 . S
C2010 C2009 1.349 . S
C2010 C2022 1.349 . S
C2011 C2009 1.327 . S
C2011 C2027 1.429 . S
C2011 H2033 0.950 . S
C2012 H2008 0.949 . S
C2012 C2020 1.574 . S
C2012 C2028 1.368 . S
H2013 C2021 0.950 . S
H2014 C2019 0.950 . S
H2015 C2020 0.949 . S
H2016 C2022 0.950 . S
H2017 C2023 0.950 . S
H2018 C2024 0.949 . S
C2019 H2014 0.950 . S
C2019 C2021 1.327 . S
C2019 C2025 1.429 . S
C2020 C2012 1.574 . S
C2020 H2015 0.949 . S
C2020 C2026 1.368 . S
C2021 C2005 1.349 . S
C2021 H2013 0.950 . S
C2021 C2019 1.327 . S
C2022 C2010 1.349 . S
C2022 H2016 0.950 . S
C2022 C2023 1.327 . S
C2023 H2017 0.950 . S
C2023 C2022 1.327 . S
C2023 C2027 1.429 . S
C2024 C2007 1.574 . S
C2024 H2018 0.949 . S
C2024 C2028 1.368 . S
C2025 C2006 1.429 . S
C2025 C2019 1.429 . S
C2025 C2026 1.523 . S
C2026 C2007 1.368 . S
C2026 C2020 1.368 . S
C2026 C2025 1.523 . S
C2027 C2011 1.429 . S
C2027 C2023 1.429 . S
C2027 C2028 1.523 . S
C2028 C2012 1.368 . S
C2028 C2024 1.368 . S
C2028 C2027 1.523 . S
H2029 C2004 0.950 . S
H2030 C2006 0.950 . S
H2031 C2007 0.949 . S
H2032 C2009 0.950 . S
H2033 C2011 0.950 . S
C2034 C2035 1.349 . S
C2034 C2036 1.327 . S
C2034 H2059 0.950 . S
C2035 C2034 1.349 . S
C2035 C2051 1.349 . S
C2036 C2034 1.327 . S
C2036 C2055 1.429 . S
C2036 H2060 0.950 . S
C2037 C2054 1.574 . S
C2037 C2056 1.368 . S
C2037 H2061 0.949 . S
H2038 C2042 0.949 . S
C2039 C2040 1.349 . S
C2039 C2041 1.327 . S
C2039 H2062 0.950 . S
C2040 C2039 1.349 . S
C2040 C2052 1.349 . S
C2041 C2039 1.327 . S
C2041 C2057 1.429 . S
C2041 H2063 0.950 . S
C2042 H2038 0.949 . S
C2042 C2050 1.574 . S
C2042 C2058 1.368 . S
H2043 C2051 0.950 . S
H2044 C2049 0.950 . S
H2045 C2050 0.949 . S
H2046 C2052 0.950 . S
H2047 C2053 0.950 . S
H2048 C2054 0.949 . S
C2049 H2044 0.950 . S
C2049 C2051 1.327 . S
C2049 C2055 1.429 . S
C2050 C2042 1.574 . S
C2050 H2045 0.949 . S
C2050 C2056 1.368 . S
C2051 C2035 1.349 . S
C2051 H2043 0.950 . S
C2051 C2049 1.327 . S
C2052 C2040 1.349 . S
C2052 H2046 0.950 . S
C2052 C2053 1.327 . S
C2053 H2047 0.950 . S
C2053 C2052 1.327 . S
C2053 C2057 1.429 . S
C2054 C2037 1.574 . S
C2054 H2048 0.949 . S
C2054 C2058 1.368 . S
C2055 C2036 1.429 . S
C2055 C2049 1.429 . S
C2055 C2056 1.523 . S
C2056 C2037 1.368 . S
C2056 C2050 1.368 . S
C2056 C2055 1.523 . S
C2057 C2041 1.429 . S
C2057 C2053 1.429 . S
C2057 C2058 1.523 . S
C2058 C2042 1.368 . S
C2058 C2054 1.368 . S
C2058 C2057 1.523 . S
H2059 C2034 0.950 . S
H2060 C2036 0.950 . S
H2061 C2037 0.949 . S
H2062 C2039 0.950 . S
H2063 C2041 0.950 . S
C2064 C2065 1.349 . S
C2064 C2066 1.327 . S
C2064 H2089 0.950 . S
C2065 C2064 1.349 . S
C2065 C2081 1.349 . S
C2066 C2064 1.327 . S
C2066 C2085 1.429 . S
C2066 H2090 0.950 . S
C2067 C2084 1.574 . S
C2067 C2086 1.368 . S
C2067 H2091 0.949 . S
H2068 C2072 0.949 . S
C2069 C2070 1.349 . S
C2069 C2071 1.327 . S
C2069 H2092 0.950 . S
C2070 C2069 1.349 . S
C2070 C2082 1.349 . S
C2071 C2069 1.327 . S
C2071 C2087 1.429 . S
C2071 H2093 0.950 . S
C2072 H2068 0.949 . S
C2072 C2080 1.574 . S
C2072 C2088 1.368 . S
H2073 C2081 0.950 . S
H2074 C2079 0.950 . S
H2075 C2080 0.949 . S
H2076 C2082 0.950 . S
H2077 C2083 0.950 . S
H2078 C2084 0.949 . S
C2079 H2074 0.950 . S
C2079 C2081 1.327 . S
C2079 C2085 1.429 . S
C2080 C2072 1.574 . S
C2080 H2075 0.949 . S
C2080 C2086 1.368 . S
C2081 C2065 1.349 . S
C2081 H2073 0.950 . S
C2081 C2079 1.327 . S
C2082 C2070 1.349 . S
C2082 H2076 0.950 . S
C2082 C2083 1.327 . S
C2083 H2077 0.950 . S
C2083 C2082 1.327 . S
C2083 C2087 1.429 . S
C2084 C2067 1.574 . S
C2084 H2078 0.949 . S
C2084 C2088 1.368 . S
C2085 C2066 1.429 . S
C2085 C2079 1.429 . S
C2085 C2086 1.523 . S
C2086 C2067 1.368 . S
C2086 C2080 1.368 . S
C2086 C2085 1.523 . S
C2087 C2071 1.429 . S
C2087 C2083 1.429 . S
C2087 C2088 1.523 . S
C2088 C2072 1.368 . S
C2088 C2084 1.368 . S
C2088 C2087 1.523 . S
H2089 C2064 0.950 . S
H2090 C2066 0.950 . S
H2091 C2067 0.949 . S
H2092 C2069 0.950 . S
H2093 C2071 0.950 . S
C2094 C2095 1.349 . S
C2094 C2096 1.327 . S
C2094 H2119 0.950 . S
C2095 C2094 1.349 . S
C2095 C2111 1.349 . S
C2096 C2094 1.327 . S
C2096 C2115 1.429 . S
C2096 H2120 0.950 . S
C2097 C2114 1.574 . S
C2097 C2116 1.368 . S
C2097 H2121 0.949 . S
H2098 C2102 0.949 . S
C2099 C2100 1.349 . S
C2099 C2101 1.327 . S
C2099 H2122 0.950 . S
C2100 C2099 1.349 . S
C2100 C2112 1.349 . S
C2101 C2099 1.327 . S
C2101 C2117 1.429 . S
C2101 H2123 0.950 . S
C2102 H2098 0.949 . S
C2102 C2110 1.574 . S
C2102 C2118 1.368 . S
H2103 C2111 0.950 . S
H2104 C2109 0.950 . S
H2105 C2110 0.949 . S
H2106 C2112 0.950 . S
H2107 C2113 0.950 . S
H2108 C2114 0.949 . S
C2109 H2104 0.950 . S
C2109 C2111 1.327 . S
C2109 C2115 1.429 . S
C2110 C2102 1.574 . S
C2110 H2105 0.949 . S
C2110 C2116 1.368 . S
C2111 C2095 1.349 . S
C2111 H2103 0.950 . S
C2111 C2109 1.327 . S
C2112 C2100 1.349 . S
C2112 H2106 0.950 . S
C2112 C2113 1.327 . S
C2113 H2107 0.950 . S
C2113 C2112 1.327 . S
C2113 C2117 1.429 . S
C2114 C2097 1.574 . S
C2114 H2108 0.949 . S
C2114 C2118 1.368 . S
C2115 C2096 1.429 . S
C2115 C2109 1.429 . S
C2115 C2116 1.523 . S
C2116 C2097 1.368 . S
C2116 C2110 1.368 . S
C2116 C2115 1.523 . S
C2117 C2101 1.429 . S
C2117 C2113 1.429 . S
C2117 C2118 1.523 . S
C2118 C2102 1.368 . S
C2118 C2114 1.368 . S
C2118 C2117 1.523 . S
H2119 C2094 0.950 . S
H2120 C2096 0.950 . S
H2121 C2097 0.949 . S
H2122 C2099 0.950 . S
H2123 C2101 0.950 . S
C2124 C2125 1.349 . S
C2124 C2126 1.327 . S
C2124 H2149 0.950 . S
C2125 C2124 1.349 . S
C2125 C2141 1.349 1_565 S
C2126 C2124 1.327 . S
C2126 C2145 1.429 . S
C2126 H2150 0.950 . S
C2127 C2144 1.574 . S
C2127 C2146 1.368 1_545 S
C2127 H2151 0.949 . S
H2128 C2132 0.949 . S
C2129 C2130 1.349 . S
C2129 C2131 1.327 . S
C2129 H2152 0.950 . S
C2130 C2129 1.349 . S
C2130 C2142 1.349 . S
C2131 C2129 1.327 . S
C2131 C2147 1.429 . S
C2131 H2153 0.950 . S
C2132 H2128 0.949 . S
C2132 C2140 1.574 . S
C2132 C2148 1.368 1_565 S
H2133 C2141 0.950 . S
H2134 C2139 0.950 . S
H2135 C2140 0.949 . S
H2136 C2142 0.950 1_565 S
H2137 C2143 0.950 . S
H2138 C2144 0.949 . S
C2139 H2134 0.950 . S
C2139 C2141 1.327 . S
C2139 C2145 1.429 1_545 S
C2140 C2132 1.574 . S
C2140 H2135 0.949 . S
C2140 C2146 1.368 . S
C2141 C2125 1.349 1_545 S
C2141 H2133 0.950 . S
C2141 C2139 1.327 . S
C2142 C2130 1.349 . S
C2142 H2136 0.950 1_545 S
C2142 C2143 1.327 1_545 S
C2143 H2137 0.950 . S
C2143 C2142 1.327 1_565 S
C2143 C2147 1.429 1_565 S
C2144 C2127 1.574 . S
C2144 H2138 0.949 . S
C2144 C2148 1.368 . S
C2145 C2126 1.429 . S
C2145 C2139 1.429 1_565 S
C2145 C2146 1.523 . S
C2146 C2127 1.368 1_565 S
C2146 C2140 1.368 . S
C2146 C2145 1.523 . S
C2147 C2131 1.429 . S
C2147 C2143 1.429 1_545 S
C2147 C2148 1.523 . S
C2148 C2132 1.368 1_545 S
C2148 C2144 1.368 . S
C2148 C2147 1.523 . S
H2149 C2124 0.950 . S
H2150 C2126 0.950 . S
H2151 C2127 0.949 . S
H2152 C2129 0.950 . S
H2153 C2131 0.950 . S
C2154 C2155 1.349 1_556 S
C2154 C2156 1.327 . S
C2154 H2179 0.950 . S
C2155 C2154 1.349 1_554 S
C2155 C2171 1.349 . S
C2156 C2154 1.327 . S
C2156 C2175 1.429 1_556 S
C2156 H2180 0.950 . S
C2157 C2174 1.574 . S
C2157 C2176 1.368 . S
C2157 H2181 0.949 . S
H2158 C2162 0.949 . S
C2159 C2160 1.349 . S
C2159 C2161 1.327 . S
C2159 H2182 0.950 . S
C2160 C2159 1.349 . S
C2160 C2172 1.349 . S
C2161 C2159 1.327 . S
C2161 C2177 1.429 . S
C2161 H2183 0.950 . S
C2162 H2158 0.949 . S
C2162 C2170 1.574 . S
C2162 C2178 1.368 1_556 S
H2163 C2171 0.950 . S
H2164 C2169 0.950 . S
H2165 C2170 0.949 . S
H2166 C2172 0.950 1_556 S
H2167 C2173 0.950 1_556 S
H2168 C2174 0.949 . S
C2169 H2164 0.950 . S
C2169 C2171 1.327 . S
C2169 C2175 1.429 . S
C2170 C2162 1.574 . S
C2170 H2165 0.949 . S
C2170 C2176 1.368 1_556 S
C2171 C2155 1.349 . S
C2171 H2163 0.950 . S
C2171 C2169 1.327 . S
C2172 C2160 1.349 . S
C2172 H2166 0.950 1_554 S
C2172 C2173 1.327 . S
C2173 H2167 0.950 1_554 S
C2173 C2172 1.327 . S
C2173 C2177 1.429 . S
C2174 C2157 1.574 . S
C2174 H2168 0.949 . S
C2174 C2178 1.368 . S
C2175 C2156 1.429 1_554 S
C2175 C2169 1.429 . S
C2175 C2176 1.523 . S
C2176 C2157 1.368 . S
C2176 C2170 1.368 1_554 S
C2176 C2175 1.523 . S
C2177 C2161 1.429 . S
C2177 C2173 1.429 . S
C2177 C2178 1.523 . S
C2178 C2162 1.368 1_554 S
C2178 C2174 1.368 . S
C2178 C2177 1.523 . S
H2179 C2154 0.950 . S
H2180 C2156 0.950 . S
H2181 C2157 0.949 . S
H2182 C2159 0.950 . S
H2183 C2161 0.950 . S
C2184 C2185 1.349 . S
C2184 C2186 1.327 . S
C2184 H2209 0.950 . S
C2185 C2184 1.349 . S
C2185 C2201 1.349 . S
C2186 C2184 1.327 . S
C2186 C2205 1.429 . S
C2186 H2210 0.950 . S
C2187 C2204 1.574 . S
C2187 C2206 1.368 . S
C2187 H2211 0.949 . S
H2188 C2192 0.949 . S
C2189 C2190 1.349 . S
C2189 C2191 1.327 . S
C2189 H2212 0.950 . S
C2190 C2189 1.349 . S
C2190 C2202 1.349 . S
C2191 C2189 1.327 . S
C2191 C2207 1.429 . S
C2191 H2213 0.950 . S
C2192 H2188 0.949 . S
C2192 C2200 1.574 . S
C2192 C2208 1.368 . S
H2193 C2201 0.950 . S
H2194 C2199 0.950 . S
H2195 C2200 0.949 . S
H2196 C2202 0.950 . S
H2197 C2203 0.950 . S
H2198 C2204 0.949 . S
C2199 H2194 0.950 . S
C2199 C2201 1.327 . S
C2199 C2205 1.429 . S
C2200 C2192 1.574 . S
C2200 H2195 0.949 . S
C2200 C2206 1.368 . S
C2201 C2185 1.349 . S
C2201 H2193 0.950 . S
C2201 C2199 1.327 . S
C2202 C2190 1.349 . S
C2202 H2196 0.950 . S
C2202 C2203 1.327 . S
C2203 H2197 0.950 . S
C2203 C2202 1.327 . S
C2203 C2207 1.429 . S
C2204 C2187 1.574 . S
C2204 H2198 0.949 . S
C2204 C2208 1.368 . S
C2205 C2186 1.429 . S
C2205 C2199 1.429 . S
C2205 C2206 1.523 . S
C2206 C2187 1.368 . S
C2206 C2200 1.368 . S
C2206 C2205 1.523 . S
C2207 C2191 1.429 . S
C2207 C2203 1.429 . S
C2207 C2208 1.523 . S
C2208 C2192 1.368 . S
C2208 C2204 1.368 . S
C2208 C2207 1.523 . S
H2209 C2184 0.950 . S
H2210 C2186 0.950 . S
H2211 C2187 0.949 . S
H2212 C2189 0.950 . S
H2213 C2191 0.950 . S
C2214 C2215 1.349 . S
C2214 C2216 1.327 . S
C2214 H2239 0.950 . S
C2215 C2214 1.349 . S
C2215 C2231 1.349 . S
C2216 C2214 1.327 . S
C2216 C2235 1.429 . S
C2216 H2240 0.950 . S
C2217 C2234 1.574 . S
C2217 C2236 1.368 . S
C2217 H2241 0.949 . S
H2218 C2222 0.949 . S
C2219 C2220 1.349 . S
C2219 C2221 1.327 . S
C2219 H2242 0.950 . S
C2220 C2219 1.349 . S
C2220 C2232 1.349 . S
C2221 C2219 1.327 . S
C2221 C2237 1.429 . S
C2221 H2243 0.950 . S
C2222 H2218 0.949 . S
C2222 C2230 1.574 . S
C2222 C2238 1.368 . S
H2223 C2231 0.950 . S
H2224 C2229 0.950 . S
H2225 C2230 0.949 . S
H2226 C2232 0.950 . S
H2227 C2233 0.950 . S
H2228 C2234 0.949 . S
C2229 H2224 0.950 . S
C2229 C2231 1.327 . S
C2229 C2235 1.429 . S
C2230 C2222 1.574 . S
C2230 H2225 0.949 . S
C2230 C2236 1.368 . S
C2231 C2215 1.349 . S
C2231 H2223 0.950 . S
C2231 C2229 1.327 . S
C2232 C2220 1.349 . S
C2232 H2226 0.950 . S
C2232 C2233 1.327 . S
C2233 H2227 0.950 . S
C2233 C2232 1.327 . S
C2233 C2237 1.429 . S
C2234 C2217 1.574 . S
C2234 H2228 0.949 . S
C2234 C2238 1.368 . S
C2235 C2216 1.429 . S
C2235 C2229 1.429 . S
C2235 C2236 1.523 . S
C2236 C2217 1.368 . S
C2236 C2230 1.368 . S
C2236 C2235 1.523 . S
C2237 C2221 1.429 . S
C2237 C2233 1.429 . S
C2237 C2238 1.523 . S
C2238 C2222 1.368 . S
C2238 C2234 1.368 . S
C2238 C2237 1.523 . S
H2239 C2214 0.950 . S
H2240 C2216 0.950 . S
H2241 C2217 0.949 . S
H2242 C2219 0.950 . S
H2243 C2221 0.950 . S
C2244 C2245 1.349 . S
C2244 C2246 1.327 . S
C2244 H2269 0.950 . S
C2245 C2244 1.349 . S
C2245 C2261 1.349 . S
C2246 C2244 1.327 . S
C2246 C2265 1.429 . S
C2246 H2270 0.950 . S
C2247 C2264 1.574 . S
C2247 C2266 1.368 . S
C2247 H2271 0.949 . S
H2248 C2252 0.949 . S
C2249 C2250 1.349 . S
C2249 C2251 1.327 . S
C2249 H2272 0.950 . S
C2250 C2249 1.349 . S
C2250 C2262 1.349 . S
C2251 C2249 1.327 . S
C2251 C2267 1.429 . S
C2251 H2273 0.950 . S
C2252 H2248 0.949 . S
C2252 C2260 1.574 . S
C2252 C2268 1.368 . S
H2253 C2261 0.950 . S
H2254 C2259 0.950 . S
H2255 C2260 0.949 . S
H2256 C2262 0.950 . S
H2257 C2263 0.950 . S
H2258 C2264 0.949 . S
C2259 H2254 0.950 . S
C2259 C2261 1.327 . S
C2259 C2265 1.429 . S
C2260 C2252 1.574 . S
C2260 H2255 0.949 . S
C2260 C2266 1.368 . S
C2261 C2245 1.349 . S
C2261 H2253 0.950 . S
C2261 C2259 1.327 . S
C2262 C2250 1.349 . S
C2262 H2256 0.950 . S
C2262 C2263 1.327 . S
C2263 H2257 0.950 . S
C2263 C2262 1.327 . S
C2263 C2267 1.429 . S
C2264 C2247 1.574 . S
C2264 H2258 0.949 . S
C2264 C2268 1.368 . S
C2265 C2246 1.429 . S
C2265 C2259 1.429 . S
C2265 C2266 1.523 . S
C2266 C2247 1.368 . S
C2266 C2260 1.368 . S
C2266 C2265 1.523 . S
C2267 C2251 1.429 . S
C2267 C2263 1.429 . S
C2267 C2268 1.523 . S
C2268 C2252 1.368 . S
C2268 C2264 1.368 . S
C2268 C2267 1.523 . S
H2269 C2244 0.950 . S
H2270 C2246 0.950 . S
H2271 C2247 0.949 . S
H2272 C2249 0.950 . S
H2273 C2251 0.950 . S
C2274 C2275 1.349 . S
C2274 C2276 1.327 . S
C2274 H2299 0.950 . S
C2275 C2274 1.349 . S
C2275 C2291 1.349 . S
C2276 C2274 1.327 . S
C2276 C2295 1.429 . S
C2276 H2300 0.950 . S
C2277 C2294 1.574 . S
C2277 C2296 1.368 . S
C2277 H2301 0.949 . S
H2278 C2282 0.949 . S
C2279 C2280 1.349 . S
C2279 C2281 1.327 . S
C2279 H2302 0.950 . S
C2280 C2279 1.349 . S
C2280 C2292 1.349 . S
C2281 C2279 1.327 . S
C2281 C2297 1.429 . S
C2281 H2303 0.950 . S
C2282 H2278 0.949 . S
C2282 C2290 1.574 . S
C2282 C2298 1.368 . S
H2283 C2291 0.950 . S
H2284 C2289 0.950 . S
H2285 C2290 0.949 . S
H2286 C2292 0.950 . S
H2287 C2293 0.950 . S
H2288 C2294 0.949 . S
C2289 H2284 0.950 . S
C2289 C2291 1.327 . S
C2289 C2295 1.429 . S
C2290 C2282 1.574 . S
C2290 H2285 0.949 . S
C2290 C2296 1.368 . S
C2291 C2275 1.349 . S
C2291 H2283 0.950 . S
C2291 C2289 1.327 . S
C2292 C2280 1.349 . S
C2292 H2286 0.950 . S
C2292 C2293 1.327 . S
C2293 H2287 0.950 . S
C2293 C2292 1.327 . S
C2293 C2297 1.429 . S
C2294 C2277 1.574 . S
C2294 H2288 0.949 . S
C2294 C2298 1.368 . S
C2295 C2276 1.429 . S
C2295 C2289 1.429 . S
C2295 C2296 1.523 . S
C2296 C2277 1.368 . S
C2296 C2290 1.368 . S
C2296 C2295 1.523 . S
C2297 C2281 1.429 . S
C2297 C2293 1.429 . S
C2297 C2298 1.523 . S
C2298 C2282 1.368 . S
C2298 C2294 1.368 . S
C2298 C2297 1.523 . S
H2299 C2274 0.950 . S
H2300 C2276 0.950 . S
H2301 C2277 0.949 . S
H2302 C2279 0.950 . S
H2303 C2281 0.950 . S
C2304 C2305 1.349 . S
C2304 C2306 1.327 . S
C2304 H2329 0.950 . S
C2305 C2304 1.349 . S
C2305 C2321 1.349 . S
C2306 C2304 1.327 . S
C2306 C2325 1.429 . S
C2306 H2330 0.950 . S
C2307 C2324 1.574 . S
C2307 C2326 1.368 . S
C2307 H2331 0.949 . S
H2308 C2312 0.949 . S
C2309 C2310 1.349 . S
C2309 C2311 1.327 . S
C2309 H2332 0.950 . S
C2310 C2309 1.349 . S
C2310 C2322 1.349 . S
C2311 C2309 1.327 . S
C2311 C2327 1.429 . S
C2311 H2333 0.950 . S
C2312 H2308 0.949 . S
C2312 C2320 1.574 . S
C2312 C2328 1.368 . S
H2313 C2321 0.950 . S
H2314 C2319 0.950 . S
H2315 C2320 0.949 . S
H2316 C2322 0.950 . S
H2317 C2323 0.950 . S
H2318 C2324 0.949 . S
C2319 H2314 0.950 . S
C2319 C2321 1.327 . S
C2319 C2325 1.429 . S
C2320 C2312 1.574 . S
C2320 H2315 0.949 . S
C2320 C2326 1.368 . S
C2321 C2305 1.349 . S
C2321 H2313 0.950 . S
C2321 C2319 1.327 . S
C2322 C2310 1.349 . S
C2322 H2316 0.950 . S
C2322 C2323 1.327 . S
C2323 H2317 0.950 . S
C2323 C2322 1.327 . S
C2323 C2327 1.429 . S
C2324 C2307 1.574 . S
C2324 H2318 0.949 . S
C2324 C2328 1.368 . S
C2325 C2306 1.429 . S
C2325 C2319 1.429 . S
C2325 C2326 1.523 . S
C2326 C2307 1.368 . S
C2326 C2320 1.368 . S
C2326 C2325 1.523 . S
C2327 C2311 1.429 . S
C2327 C2323 1.429 . S
C2327 C2328 1.523 . S
C2328 C2312 1.368 . S
C2328 C2324 1.368 . S
C2328 C2327 1.523 . S
H2329 C2304 0.950 . S
H2330 C2306 0.950 . S
H2331 C2307 0.949 . S
H2332 C2309 0.950 . S
H2333 C2311 0.950 . S
C2334 C2335 1.349 . S
C2334 C2336 1.327 . S
C2334 H2359 0.950 . S
C2335 C2334 1.349 . S
C2335 C2351 1.349 . S
C2336 C2334 1.327 . S
C2336 C2355 1.429 . S
C2336 H2360 0.950 . S
C2337 C2354 1.574 . S
C2337 C2356 1.368 . S
C2337 H2361 0.949 . S
H2338 C2342 0.949 . S
C2339 C2340 1.349 . S
C2339 C2341 1.327 . S
C2339 H2362 0.950 . S
C2340 C2339 1.349 . S
C2340 C2352 1.349 . S
C2341 C2339 1.327 . S
C2341 C2357 1.429 . S
C2341 H2363 0.950 . S
C2342 H2338 0.949 . S
C2342 C2350 1.574 . S
C2342 C2358 1.368 . S
H2343 C2351 0.950 . S
H2344 C2349 0.950 . S
H2345 C2350 0.949 . S
H2346 C2352 0.950 . S
H2347 C2353 0.950 . S
H2348 C2354 0.949 . S
C2349 H2344 0.950 . S
C2349 C2351 1.327 . S
C2349 C2355 1.429 . S
C2350 C2342 1.574 . S
C2350 H2345 0.949 . S
C2350 C2356 1.368 . S
C2351 C2335 1.349 . S
C2351 H2343 0.950 . S
C2351 C2349 1.327 . S
C2352 C2340 1.349 . S
C2352 H2346 0.950 . S
C2352 C2353 1.327 . S
C2353 H2347 0.950 . S
C2353 C2352 1.327 . S
C2353 C2357 1.429 . S
C2354 C2337 1.574 . S
C2354 H2348 0.949 . S
C2354 C2358 1.368 . S
C2355 C2336 1.429 . S
C2355 C2349 1.429 . S
C2355 C2356 1.523 . S
C2356 C2337 1.368 . S
C2356 C2350 1.368 . S
C2356 C2355 1.523 . S
C2357 C2341 1.429 . S
C2357 C2353 1.429 . S
C2357 C2358 1.523 . S
C2358 C2342 1.368 . S
C2358 C2354 1.368 . S
C2358 C2357 1.523 . S
H2359 C2334 0.950 . S
H2360 C2336 0.950 . S
H2361 C2337 0.949 . S
H2362 C2339 0.950 . S
H2363 C2341 0.950 . S
C2364 C2365 1.349 . S
C2364 C2366 1.327 . S
C2364 H2389 0.950 . S
C2365 C2364 1.349 . S
C2365 C2381 1.349 . S
C2366 C2364 1.327 . S
C2366 C2385 1.429 . S
C2366 H2390 0.950 . S
C2367 C2384 1.574 . S
C2367 C2386 1.368 . S
C2367 H2391 0.949 . S
H2368 C2372 0.949 . S
C2369 C2370 1.349 . S
C2369 C2371 1.327 . S
C2369 H2392 0.950 . S
C2370 C2369 1.349 . S
C2370 C2382 1.349 . S
C2371 C2369 1.327 . S
C2371 C2387 1.429 . S
C2371 H2393 0.950 . S
C2372 H2368 0.949 . S
C2372 C2380 1.574 . S
C2372 C2388 1.368 . S
H2373 C2381 0.950 . S
H2374 C2379 0.950 . S
H2375 C2380 0.949 . S
H2376 C2382 0.950 . S
H2377 C2383 0.950 . S
H2378 C2384 0.949 . S
C2379 H2374 0.950 . S
C2379 C2381 1.327 . S
C2379 C2385 1.429 . S
C2380 C2372 1.574 . S
C2380 H2375 0.949 . S
C2380 C2386 1.368 . S
C2381 C2365 1.349 . S
C2381 H2373 0.950 . S
C2381 C2379 1.327 . S
C2382 C2370 1.349 . S
C2382 H2376 0.950 . S
C2382 C2383 1.327 . S
C2383 H2377 0.950 . S
C2383 C2382 1.327 . S
C2383 C2387 1.429 . S
C2384 C2367 1.574 . S
C2384 H2378 0.949 . S
C2384 C2388 1.368 . S
C2385 C2366 1.429 . S
C2385 C2379 1.429 . S
C2385 C2386 1.523 . S
C2386 C2367 1.368 . S
C2386 C2380 1.368 . S
C2386 C2385 1.523 . S
C2387 C2371 1.429 . S
C2387 C2383 1.429 . S
C2387 C2388 1.523 . S
C2388 C2372 1.368 . S
C2388 C2384 1.368 . S
C2388 C2387 1.523 . S
H2389 C2364 0.950 . S
H2390 C2366 0.950 . S
H2391 C2367 0.949 . S
H2392 C2369 0.950 . S
H2393 C2371 0.950 . S
C2394 C2395 1.349 . S
C2394 C2396 1.327 . S
C2394 H2419 0.950 . S
C2395 C2394 1.349 . S
C2395 C2411 1.349 . S
C2396 C2394 1.327 . S
C2396 C2415 1.429 . S
C2396 H2420 0.950 . S
C2397 C2414 1.574 . S
C2397 C2416 1.368 . S
C2397 H2421 0.949 . S
H2398 C2402 0.949 . S
C2399 C2400 1.349 . S
C2399 C2401 1.327 . S
C2399 H2422 0.950 . S
C2400 C2399 1.349 . S
C2400 C2412 1.349 . S
C2401 C2399 1.327 . S
C2401 C2417 1.429 . S
C2401 H2423 0.950 . S
C2402 H2398 0.949 . S
C2402 C2410 1.574 . S
C2402 C2418 1.368 . S
H2403 C2411 0.950 . S
H2404 C2409 0.950 . S
H2405 C2410 0.949 . S
H2406 C2412 0.950 . S
H2407 C2413 0.950 . S
H2408 C2414 0.949 . S
C2409 H2404 0.950 . S
C2409 C2411 1.327 . S
C2409 C2415 1.429 . S
C2410 C2402 1.574 . S
C2410 H2405 0.949 . S
C2410 C2416 1.368 . S
C2411 C2395 1.349 . S
C2411 H2403 0.950 . S
C2411 C2409 1.327 . S
C2412 C2400 1.349 . S
C2412 H2406 0.950 . S
C2412 C2413 1.327 . S
C2413 H2407 0.950 . S
C2413 C2412 1.327 . S
C2413 C2417 1.429 . S
C2414 C2397 1.574 . S
C2414 H2408 0.949 . S
C2414 C2418 1.368 . S
C2415 C2396 1.429 . S
C2415 C2409 1.429 . S
C2415 C2416 1.523 . S
C2416 C2397 1.368 . S
C2416 C2410 1.368 . S
C2416 C2415 1.523 . S
C2417 C2401 1.429 . S
C2417 C2413 1.429 . S
C2417 C2418 1.523 . S
C2418 C2402 1.368 . S
C2418 C2414 1.368 . S
C2418 C2417 1.523 . S
H2419 C2394 0.950 . S
H2420 C2396 0.950 . S
H2421 C2397 0.949 . S
H2422 C2399 0.950 . S
H2423 C2401 0.950 . S
C2424 C2425 1.349 . S
C2424 C2426 1.327 . S
C2424 H2449 0.950 . S
C2425 C2424 1.349 . S
C2425 C2441 1.349 . S
C2426 C2424 1.327 . S
C2426 C2445 1.429 . S
C2426 H2450 0.950 . S
C2427 C2444 1.574 . S
C2427 C2446 1.368 . S
C2427 H2451 0.949 . S
H2428 C2432 0.949 . S
C2429 C2430 1.349 . S
C2429 C2431 1.327 . S
C2429 H2452 0.950 . S
C2430 C2429 1.349 . S
C2430 C2442 1.349 . S
C2431 C2429 1.327 . S
C2431 C2447 1.429 . S
C2431 H2453 0.950 . S
C2432 H2428 0.949 . S
C2432 C2440 1.574 . S
C2432 C2448 1.368 . S
H2433 C2441 0.950 . S
H2434 C2439 0.950 . S
H2435 C2440 0.949 . S
H2436 C2442 0.950 . S
H2437 C2443 0.950 . S
H2438 C2444 0.949 . S
C2439 H2434 0.950 . S
C2439 C2441 1.327 . S
C2439 C2445 1.429 . S
C2440 C2432 1.574 . S
C2440 H2435 0.949 . S
C2440 C2446 1.368 . S
C2441 C2425 1.349 . S
C2441 H2433 0.950 . S
C2441 C2439 1.327 . S
C2442 C2430 1.349 . S
C2442 H2436 0.950 . S
C2442 C2443 1.327 . S
C2443 H2437 0.950 . S
C2443 C2442 1.327 . S
C2443 C2447 1.429 . S
C2444 C2427 1.574 . S
C2444 H2438 0.949 . S
C2444 C2448 1.368 . S
C2445 C2426 1.429 . S
C2445 C2439 1.429 . S
C2445 C2446 1.523 . S
C2446 C2427 1.368 . S
C2446 C2440 1.368 . S
C2446 C2445 1.523 . S
C2447 C2431 1.429 . S
C2447 C2443 1.429 . S
C2447 C2448 1.523 . S
C2448 C2432 1.368 . S
C2448 C2444 1.368 . S
C2448 C2447 1.523 . S
H2449 C2424 0.950 . S
H2450 C2426 0.950 . S
H2451 C2427 0.949 . S
H2452 C2429 0.950 . S
H2453 C2431 0.950 . S
C2454 C2455 1.349 . S
C2454 C2456 1.327 . S
C2454 H2479 0.950 . S
C2455 C2454 1.349 . S
C2455 C2471 1.349 . S
C2456 C2454 1.327 . S
C2456 C2475 1.429 . S
C2456 H2480 0.950 . S
C2457 C2474 1.574 . S
C2457 C2476 1.368 1_556 S
C2457 H2481 0.949 . S
H2458 C2462 0.949 . S
C2459 C2460 1.349 1_556 S
C2459 C2461 1.327 . S
C2459 H2482 0.950 . S
C2460 C2459 1.349 1_554 S
C2460 C2472 1.349 . S
C2461 C2459 1.327 . S
C2461 C2477 1.429 1_556 S
C2461 H2483 0.950 . S
C2462 H2458 0.949 . S
C2462 C2470 1.574 . S
C2462 C2478 1.368 . S
H2463 C2471 0.950 1_556 S
H2464 C2469 0.977 . S
H2465 C2470 0.949 . S
H2466 C2472 0.950 . S
H2467 C2473 0.950 . S
H2468 C2474 0.949 . S
C2469 H2464 0.977 . S
C2469 C2471 1.319 1_556 S
C2469 C2475 1.411 1_556 S
C2470 C2462 1.574 . S
C2470 H2465 0.949 . S
C2470 C2476 1.368 . S
C2471 C2455 1.349 . S
C2471 H2463 0.950 1_554 S
C2471 C2469 1.319 1_554 S
C2472 C2460 1.349 . S
C2472 H2466 0.950 . S
C2472 C2473 1.327 . S
C2473 H2467 0.950 . S
C2473 C2472 1.327 . S
C2473 C2477 1.429 . S
C2474 C2457 1.574 . S
C2474 H2468 0.949 . S
C2474 C2478 1.368 1_556 S
C2475 C2456 1.429 . S
C2475 C2469 1.411 1_554 S
C2475 C2476 1.523 . S
C2476 C2457 1.368 1_554 S
C2476 C2470 1.368 . S
C2476 C2475 1.523 . S
C2477 C2461 1.429 1_554 S
C2477 C2473 1.429 . S
C2477 C2478 1.523 . S
C2478 C2462 1.368 . S
C2478 C2474 1.368 1_554 S
C2478 C2477 1.523 . S
H2479 C2454 0.950 . S
H2480 C2456 0.950 . S
H2481 C2457 0.949 . S
H2482 C2459 0.950 . S
H2483 C2461 0.950 . S
C2484 C2485 1.349 . S
C2484 C2486 1.327 . S
C2484 H2509 0.950 . S
C2485 C2484 1.349 . S
C2485 C2501 1.349 . S
C2486 C2484 1.327 . S
C2486 C2505 1.429 . S
C2486 H2510 0.950 . S
C2487 C2504 1.574 . S
C2487 C2506 1.368 . S
C2487 H2511 0.949 . S
H2488 C2492 0.949 . S
C2489 C2490 1.349 . S
C2489 C2491 1.327 . S
C2489 H2512 0.950 . S
C2490 C2489 1.349 . S
C2490 C2502 1.349 . S
C2491 C2489 1.327 . S
C2491 C2507 1.429 . S
C2491 H2513 0.950 . S
C2492 H2488 0.949 . S
C2492 C2500 1.574 . S
C2492 C2508 1.368 . S
H2493 C2501 0.950 . S
H2494 C2499 0.950 . S
H2495 C2500 0.949 . S
H2496 C2502 0.950 . S
H2497 C2503 0.950 . S
H2498 C2504 0.949 . S
C2499 H2494 0.950 . S
C2499 C2501 1.327 . S
C2499 C2505 1.429 . S
C2500 C2492 1.574 . S
C2500 H2495 0.949 . S
C2500 C2506 1.368 . S
C2501 C2485 1.349 . S
C2501 H2493 0.950 . S
C2501 C2499 1.327 . S
C2502 C2490 1.349 . S
C2502 H2496 0.950 . S
C2502 C2503 1.327 . S
C2503 H2497 0.950 . S
C2503 C2502 1.327 . S
C2503 C2507 1.429 . S
C2504 C2487 1.574 . S
C2504 H2498 0.949 . S
C2504 C2508 1.368 . S
C2505 C2486 1.429 . S
C2505 C2499 1.429 . S
C2505 C2506 1.523 . S
C2506 C2487 1.368 . S
C2506 C2500 1.368 . S
C2506 C2505 1.523 . S
C2507 C2491 1.429 . S
C2507 C2503 1.429 . S
C2507 C2508 1.523 . S
C2508 C2492 1.368 . S
C2508 C2504 1.368 . S
C2508 C2507 1.523 . S
H2509 C2484 0.950 . S
H2510 C2486 0.950 . S
H2511 C2487 0.949 . S
H2512 C2489 0.950 . S
H2513 C2491 0.950 . S
C2514 C2515 1.349 . S
C2514 C2516 1.327 . S
C2514 H2539 0.950 . S
C2515 C2514 1.349 . S
C2515 C2531 1.349 . S
C2516 C2514 1.327 . S
C2516 C2535 1.429 . S
C2516 H2540 0.950 . S
C2517 C2534 1.574 . S
C2517 C2536 1.368 . S
C2517 H2541 0.949 . S
H2518 C2522 0.949 . S
C2519 C2520 1.349 . S
C2519 C2521 1.327 . S
C2519 H2542 0.950 . S
C2520 C2519 1.349 . S
C2520 C2532 1.349 . S
C2521 C2519 1.327 . S
C2521 C2537 1.429 . S
C2521 H2543 0.950 . S
C2522 H2518 0.949 . S
C2522 C2530 1.574 . S
C2522 C2538 1.368 . S
H2523 C2531 0.950 . S
H2524 C2529 0.950 . S
H2525 C2530 0.949 . S
H2526 C2532 0.950 . S
H2527 C2533 0.950 . S
H2528 C2534 0.949 . S
C2529 H2524 0.950 . S
C2529 C2531 1.327 . S
C2529 C2535 1.429 . S
C2530 C2522 1.574 . S
C2530 H2525 0.949 . S
C2530 C2536 1.368 . S
C2531 C2515 1.349 . S
C2531 H2523 0.950 . S
C2531 C2529 1.327 . S
C2532 C2520 1.349 . S
C2532 H2526 0.950 . S
C2532 C2533 1.327 . S
C2533 H2527 0.950 . S
C2533 C2532 1.327 . S
C2533 C2537 1.429 . S
C2534 C2517 1.574 . S
C2534 H2528 0.949 . S
C2534 C2538 1.368 . S
C2535 C2516 1.429 . S
C2535 C2529 1.429 . S
C2535 C2536 1.523 . S
C2536 C2517 1.368 . S
C2536 C2530 1.368 . S
C2536 C2535 1.523 . S
C2537 C2521 1.429 . S
C2537 C2533 1.429 . S
C2537 C2538 1.523 . S
C2538 C2522 1.368 . S
C2538 C2534 1.368 . S
C2538 C2537 1.523 . S
H2539 C2514 0.950 . S
H2540 C2516 0.950 . S
H2541 C2517 0.949 . S
H2542 C2519 0.950 . S
H2543 C2521 0.950 . S
C2544 C2545 1.349 . S
C2544 C2546 1.327 . S
C2544 H2569 0.950 . S
C2545 C2544 1.349 . S
C2545 C2561 1.349 . S
C2546 C2544 1.327 . S
C2546 C2565 1.429 . S
C2546 H2570 0.950 . S
C2547 C2564 1.574 . S
C2547 C2566 1.368 . S
C2547 H2571 0.949 . S
H2548 C2552 0.949 . S
C2549 C2550 1.349 . S
C2549 C2551 1.327 . S
C2549 H2572 0.950 . S
C2550 C2549 1.349 . S
C2550 C2562 1.349 . S
C2551 C2549 1.327 . S
C2551 C2567 1.429 . S
C2551 H2573 0.950 . S
C2552 H2548 0.949 . S
C2552 C2560 1.574 . S
C2552 C2568 1.368 . S
H2553 C2561 0.950 . S
H2554 C2559 0.950 . S
H2555 C2560 0.949 . S
H2556 C2562 0.950 . S
H2557 C2563 0.950 . S
H2558 C2564 0.949 . S
C2559 H2554 0.950 . S
C2559 C2561 1.327 . S
C2559 C2565 1.429 . S
C2560 C2552 1.574 . S
C2560 H2555 0.949 . S
C2560 C2566 1.368 . S
C2561 C2545 1.349 . S
C2561 H2553 0.950 . S
C2561 C2559 1.327 . S
C2562 C2550 1.349 . S
C2562 H2556 0.950 . S
C2562 C2563 1.327 . S
C2563 H2557 0.950 . S
C2563 C2562 1.327 . S
C2563 C2567 1.429 . S
C2564 C2547 1.574 . S
C2564 H2558 0.949 . S
C2564 C2568 1.368 . S
C2565 C2546 1.429 . S
C2565 C2559 1.429 . S
C2565 C2566 1.523 . S
C2566 C2547 1.368 . S
C2566 C2560 1.368 . S
C2566 C2565 1.523 . S
C2567 C2551 1.429 . S
C2567 C2563 1.429 . S
C2567 C2568 1.523 . S
C2568 C2552 1.368 . S
C2568 C2564 1.368 . S
C2568 C2567 1.523 . S
H2569 C2544 0.950 . S
H2570 C2546 0.950 . S
H2571 C2547 0.949 . S
H2572 C2549 0.950 . S
H2573 C2551 0.950 . S
C2574 C2575 1.349 . S
C2574 C2576 1.327 . S
C2574 H2599 0.950 . S
C2575 C2574 1.349 . S
C2575 C2591 1.349 . S
C2576 C2574 1.327 . S
C2576 C2595 1.429 . S
C2576 H2600 0.950 . S
C2577 C2594 1.574 . S
C2577 C2596 1.368 . S
C2577 H2601 0.949 . S
H2578 C2582 0.949 . S
C2579 C2580 1.349 . S
C2579 C2581 1.327 . S
C2579 H2602 0.950 . S
C2580 C2579 1.349 . S
C2580 C2592 1.349 . S
C2581 C2579 1.327 . S
C2581 C2597 1.429 . S
C2581 H2603 0.950 . S
C2582 H2578 0.949 . S
C2582 C2590 1.574 . S
C2582 C2598 1.368 . S
H2583 C2591 0.950 . S
H2584 C2589 0.950 . S
H2585 C2590 0.949 . S
H2586 C2592 0.950 . S
H2587 C2593 0.950 . S
H2588 C2594 0.949 . S
C2589 H2584 0.950 . S
C2589 C2591 1.327 . S
C2589 C2595 1.429 . S
C2590 C2582 1.574 . S
C2590 H2585 0.949 . S
C2590 C2596 1.368 . S
C2591 C2575 1.349 . S
C2591 H2583 0.950 . S
C2591 C2589 1.327 . S
C2592 C2580 1.349 . S
C2592 H2586 0.950 . S
C2592 C2593 1.327 . S
C2593 H2587 0.950 . S
C2593 C2592 1.327 . S
C2593 C2597 1.429 . S
C2594 C2577 1.574 . S
C2594 H2588 0.949 . S
C2594 C2598 1.368 . S
C2595 C2576 1.429 . S
C2595 C2589 1.429 . S
C2595 C2596 1.523 . S
C2596 C2577 1.368 . S
C2596 C2590 1.368 . S
C2596 C2595 1.523 . S
C2597 C2581 1.429 . S
C2597 C2593 1.429 . S
C2597 C2598 1.523 . S
C2598 C2582 1.368 . S
C2598 C2594 1.368 . S
C2598 C2597 1.523 . S
H2599 C2574 0.950 . S
H2600 C2576 0.950 . S
H2601 C2577 0.949 . S
H2602 C2579 0.950 . S
H2603 C2581 0.950 . S
C2604 C2605 1.349 1_554 S
C2604 C2606 1.327 . S
C2604 H2629 0.950 . S
C2605 C2604 1.349 1_556 S
C2605 C2621 1.349 . S
C2606 C2604 1.327 . S
C2606 C2625 1.429 1_554 S
C2606 H2630 0.950 . S
C2607 C2624 1.574 . S
C2607 C2626 1.368 . S
C2607 H2631 0.949 . S
H2608 C2612 0.949 . S
C2609 C2610 1.349 . S
C2609 C2611 1.327 . S
C2609 H2632 0.950 . S
C2610 C2609 1.349 . S
C2610 C2622 1.349 . S
C2611 C2609 1.327 . S
C2611 C2627 1.429 . S
C2611 H2633 0.950 . S
C2612 H2608 0.949 . S
C2612 C2620 1.574 . S
C2612 C2628 1.368 1_554 S
H2613 C2621 0.950 . S
H2614 C2619 0.950 . S
H2615 C2620 0.949 . S
H2616 C2622 0.950 1_554 S
H2617 C2623 0.947 1_554 S
H2618 C2624 0.949 . S
C2619 H2614 0.950 . S
C2619 C2621 1.327 . S
C2619 C2625 1.429 . S
C2620 C2612 1.574 . S
C2620 H2615 0.949 . S
C2620 C2626 1.368 1_554 S
C2621 C2605 1.349 . S
C2621 H2613 0.950 . S
C2621 C2619 1.327 . S
C2622 C2610 1.349 . S
C2622 H2616 0.950 1_556 S
C2622 C2623 1.328 . S
C2623 H2617 0.947 1_556 S
C2623 C2622 1.328 . S
C2623 C2627 1.430 . S
C2624 C2607 1.574 . S
C2624 H2618 0.949 . S
C2624 C2628 1.368 . S
C2625 C2606 1.429 1_556 S
C2625 C2619 1.429 . S
C2625 C2626 1.523 . S
C2626 C2607 1.368 . S
C2626 C2620 1.368 1_556 S
C2626 C2625 1.523 . S
C2627 C2611 1.429 . S
C2627 C2623 1.430 . S
C2627 C2628 1.523 . S
C2628 C2612 1.368 1_556 S
C2628 C2624 1.368 . S
C2628 C2627 1.523 . S
H2629 C2604 0.950 . S
H2630 C2606 0.950 . S
H2631 C2607 0.949 . S
H2632 C2609 0.950 . S
H2633 C2611 0.950 . S
C2634 C2635 1.349 . S
C2634 C2636 1.327 . S
C2634 H2659 0.950 . S
C2635 C2634 1.349 . S
C2635 C2651 1.349 . S
C2636 C2634 1.327 . S
C2636 C2655 1.429 . S
C2636 H2660 0.950 . S
C2637 C2654 1.574 . S
C2637 C2656 1.368 . S
C2637 H2661 0.949 . S
H2638 C2642 0.949 . S
C2639 C2640 1.349 . S
C2639 C2641 1.327 . S
C2639 H2662 0.950 . S
C2640 C2639 1.349 . S
C2640 C2652 1.349 . S
C2641 C2639 1.327 . S
C2641 C2657 1.429 . S
C2641 H2663 0.950 . S
C2642 H2638 0.949 . S
C2642 C2650 1.574 . S
C2642 C2658 1.368 . S
H2643 C2651 0.950 . S
H2644 C2649 0.950 . S
H2645 C2650 0.949 . S
H2646 C2652 0.950 . S
H2647 C2653 0.950 . S
H2648 C2654 0.949 . S
C2649 H2644 0.950 . S
C2649 C2651 1.327 . S
C2649 C2655 1.429 . S
C2650 C2642 1.574 . S
C2650 H2645 0.949 . S
C2650 C2656 1.368 . S
C2651 C2635 1.349 . S
C2651 H2643 0.950 . S
C2651 C2649 1.327 . S
C2652 C2640 1.349 . S
C2652 H2646 0.950 . S
C2652 C2653 1.327 . S
C2653 H2647 0.950 . S
C2653 C2652 1.327 . S
C2653 C2657 1.429 . S
C2654 C2637 1.574 . S
C2654 H2648 0.949 . S
C2654 C2658 1.368 . S
C2655 C2636 1.429 . S
C2655 C2649 1.429 . S
C2655 C2656 1.523 . S
C2656 C2637 1.368 . S
C2656 C2650 1.368 . S
C2656 C2655 1.523 . S
C2657 C2641 1.429 . S
C2657 C2653 1.429 . S
C2657 C2658 1.523 . S
C2658 C2642 1.368 . S
C2658 C2654 1.368 . S
C2658 C2657 1.523 . S
H2659 C2634 0.950 . S
H2660 C2636 0.950 . S
H2661 C2637 0.949 . S
H2662 C2639 0.950 . S
H2663 C2641 0.950 . S
C2664 C2665 1.349 . S
C2664 C2666 1.327 . S
C2664 H2689 0.950 . S
C2665 C2664 1.349 . S
C2665 C2681 1.349 . S
C2666 C2664 1.327 . S
C2666 C2685 1.429 . S
C2666 H2690 0.950 . S
C2667 C2684 1.574 . S
C2667 C2686 1.368 . S
C2667 H2691 0.949 . S
H2668 C2672 0.949 . S
C2669 C2670 1.349 . S
C2669 C2671 1.327 . S
C2669 H2692 0.950 . S
C2670 C2669 1.349 . S
C2670 C2682 1.349 . S
C2671 C2669 1.327 . S
C2671 C2687 1.429 . S
C2671 H2693 0.950 . S
C2672 H2668 0.949 . S
C2672 C2680 1.574 . S
C2672 C2688 1.368 . S
H2673 C2681 0.950 . S
H2674 C2679 0.950 . S
H2675 C2680 0.949 . S
H2676 C2682 0.950 . S
H2677 C2683 0.950 . S
H2678 C2684 0.949 . S
C2679 H2674 0.950 . S
C2679 C2681 1.327 . S
C2679 C2685 1.429 . S
C2680 C2672 1.574 . S
C2680 H2675 0.949 . S
C2680 C2686 1.368 . S
C2681 C2665 1.349 . S
C2681 H2673 0.950 . S
C2681 C2679 1.327 . S
C2682 C2670 1.349 . S
C2682 H2676 0.950 . S
C2682 C2683 1.327 . S
C2683 H2677 0.950 . S
C2683 C2682 1.327 . S
C2683 C2687 1.429 . S
C2684 C2667 1.574 . S
C2684 H2678 0.949 . S
C2684 C2688 1.368 . S
C2685 C2666 1.429 . S
C2685 C2679 1.429 . S
C2685 C2686 1.523 . S
C2686 C2667 1.368 . S
C2686 C2680 1.368 . S
C2686 C2685 1.523 . S
C2687 C2671 1.429 . S
C2687 C2683 1.429 . S
C2687 C2688 1.523 . S
C2688 C2672 1.368 . S
C2688 C2684 1.368 . S
C2688 C2687 1.523 . S
H2689 C2664 0.950 . S
H2690 C2666 0.950 . S
H2691 C2667 0.949 . S
H2692 C2669 0.950 . S
H2693 C2671 0.950 . S
C2694 C2695 1.349 . S
C2694 C2696 1.327 . S
C2694 H2719 0.950 . S
C2695 C2694 1.349 . S
C2695 C2711 1.349 . S
C2696 C2694 1.327 . S
C2696 C2715 1.429 . S
C2696 H2720 0.950 . S
C2697 C2714 1.574 . S
C2697 C2716 1.368 . S
C2697 H2721 0.949 . S
H2698 C2702 0.949 . S
C2699 C2700 1.349 . S
C2699 C2701 1.327 . S
C2699 H2722 0.950 . S
C2700 C2699 1.349 . S
C2700 C2712 1.349 . S
C2701 C2699 1.327 . S
C2701 C2717 1.429 . S
C2701 H2723 0.950 . S
C2702 H2698 0.949 . S
C2702 C2710 1.574 . S
C2702 C2718 1.368 . S
H2703 C2711 0.950 . S
H2704 C2709 0.950 . S
H2705 C2710 0.949 . S
H2706 C2712 0.950 . S
H2707 C2713 0.950 . S
H2708 C2714 0.949 . S
C2709 H2704 0.950 . S
C2709 C2711 1.327 . S
C2709 C2715 1.429 . S
C2710 C2702 1.574 . S
C2710 H2705 0.949 . S
C2710 C2716 1.368 . S
C2711 C2695 1.349 . S
C2711 H2703 0.950 . S
C2711 C2709 1.327 . S
C2712 C2700 1.349 . S
C2712 H2706 0.950 . S
C2712 C2713 1.327 . S
C2713 H2707 0.950 . S
C2713 C2712 1.327 . S
C2713 C2717 1.429 . S
C2714 C2697 1.574 . S
C2714 H2708 0.949 . S
C2714 C2718 1.368 . S
C2715 C2696 1.429 . S
C2715 C2709 1.429 . S
C2715 C2716 1.523 . S
C2716 C2697 1.368 . S
C2716 C2710 1.368 . S
C2716 C2715 1.523 . S
C2717 C2701 1.429 . S
C2717 C2713 1.429 . S
C2717 C2718 1.523 . S
C2718 C2702 1.368 . S
C2718 C2714 1.368 . S
C2718 C2717 1.523 . S
H2719 C2694 0.950 . S
H2720 C2696 0.950 . S
H2721 C2697 0.949 . S
H2722 C2699 0.950 . S
H2723 C2701 0.950 . S
C2724 C2725 1.349 . S
C2724 C2726 1.327 . S
C2724 H2749 0.950 . S
C2725 C2724 1.349 . S
C2725 C2741 1.349 . S
C2726 C2724 1.327 . S
C2726 C2745 1.429 . S
C2726 H2750 0.950 . S
C2727 C2744 1.574 . S
C2727 C2746 1.368 . S
C2727 H2751 0.949 . S
H2728 C2732 0.949 . S
C2729 C2730 1.349 . S
C2729 C2731 1.327 . S
C2729 H2752 0.950 . S
C2730 C2729 1.349 . S
C2730 C2742 1.349 . S
C2731 C2729 1.327 . S
C2731 C2747 1.429 . S
C2731 H2753 0.950 . S
C2732 H2728 0.949 . S
C2732 C2740 1.574 . S
C2732 C2748 1.368 . S
H2733 C2741 0.950 . S
H2734 C2739 0.950 . S
H2735 C2740 0.949 . S
H2736 C2742 0.950 . S
H2737 C2743 0.950 . S
H2738 C2744 0.949 . S
C2739 H2734 0.950 . S
C2739 C2741 1.327 . S
C2739 C2745 1.429 . S
C2740 C2732 1.574 . S
C2740 H2735 0.949 . S
C2740 C2746 1.368 . S
C2741 C2725 1.349 . S
C2741 H2733 0.950 . S
C2741 C2739 1.327 . S
C2742 C2730 1.349 . S
C2742 H2736 0.950 . S
C2742 C2743 1.327 . S
C2743 H2737 0.950 . S
C2743 C2742 1.327 . S
C2743 C2747 1.429 . S
C2744 C2727 1.574 . S
C2744 H2738 0.949 . S
C2744 C2748 1.368 . S
C2745 C2726 1.429 . S
C2745 C2739 1.429 . S
C2745 C2746 1.523 . S
C2746 C2727 1.368 . S
C2746 C2740 1.368 . S
C2746 C2745 1.523 . S
C2747 C2731 1.429 . S
C2747 C2743 1.429 . S
C2747 C2748 1.523 . S
C2748 C2732 1.368 . S
C2748 C2744 1.368 . S
C2748 C2747 1.523 . S
H2749 C2724 0.950 . S
H2750 C2726 0.950 . S
H2751 C2727 0.949 . S
H2752 C2729 0.950 . S
H2753 C2731 0.950 . S
C2754 C2755 1.349 . S
C2754 C2756 1.327 . S
C2754 H2779 0.950 . S
C2755 C2754 1.349 . S
C2755 C2771 1.349 . S
C2756 C2754 1.327 . S
C2756 C2775 1.429 . S
C2756 H2780 0.950 . S
C2757 C2774 1.574 . S
C2757 C2776 1.368 . S
C2757 H2781 0.949 . S
H2758 C2762 0.949 . S
C2759 C2760 1.349 . S
C2759 C2761 1.327 . S
C2759 H2782 0.950 . S
C2760 C2759 1.349 . S
C2760 C2772 1.349 . S
C2761 C2759 1.327 . S
C2761 C2777 1.429 . S
C2761 H2783 0.950 . S
C2762 H2758 0.949 . S
C2762 C2770 1.574 . S
C2762 C2778 1.368 . S
H2763 C2771 0.950 . S
H2764 C2769 0.950 . S
H2765 C2770 0.949 . S
H2766 C2772 0.950 . S
H2767 C2773 0.950 . S
H2768 C2774 0.949 . S
C2769 H2764 0.950 . S
C2769 C2771 1.327 . S
C2769 C2775 1.429 . S
C2770 C2762 1.574 . S
C2770 H2765 0.949 . S
C2770 C2776 1.368 . S
C2771 C2755 1.349 . S
C2771 H2763 0.950 . S
C2771 C2769 1.327 . S
C2772 C2760 1.349 . S
C2772 H2766 0.950 . S
C2772 C2773 1.327 . S
C2773 H2767 0.950 . S
C2773 C2772 1.327 . S
C2773 C2777 1.429 . S
C2774 C2757 1.574 . S
C2774 H2768 0.949 . S
C2774 C2778 1.368 . S
C2775 C2756 1.429 . S
C2775 C2769 1.429 . S
C2775 C2776 1.523 . S
C2776 C2757 1.368 . S
C2776 C2770 1.368 . S
C2776 C2775 1.523 . S
C2777 C2761 1.429 . S
C2777 C2773 1.429 . S
C2777 C2778 1.523 . S
C2778 C2762 1.368 . S
C2778 C2774 1.368 . S
C2778 C2777 1.523 . S
H2779 C2754 0.950 . S
H2780 C2756 0.950 . S
H2781 C2757 0.949 . S
H2782 C2759 0.950 . S
H2783 C2761 0.950 . S
C1345 C56 0.897 . S
C1350 C142 0.833 . S
C1375 C224 1.717 . S
C1380 C151 1.682 . S
C1405 C319 1.655 . S
C1410 C223 1.660 . S
C1435 C55 0.883 . S
C1440 C310 0.840 . S
C1465 C67 0.853 . S
C1470 C826 0.818 . S
C1495 C656 0.894 . S
C1500 C154 0.830 . S
C1525 C236 1.717 . S
C1530 C895 1.683 . S
C1555 C307 1.637 . S
C1560 C1160 1.671 . S
C1585 C740 1.716 . S
C1590 C139 1.682 . S
C1615 C1063 1.655 . S
C1620 C235 1.660 . S
C1645 C1243 0.851 . S
C1650 C322 0.816 . S
C1675 C68 0.862 . S
C1680 C994 0.811 . S
C1705 C70 0.523 . S
C1710 C730 0.671 . S
C1735 C1064 2.003 . S
C1740 C404 2.001 . S
C1765 C490 0.672 . S
C1770 C1234 0.524 . S
C1795 C992 1.993 . S
C1800 C560 1.993 . S
C1825 C238 0.669 . S
C1830 C646 0.524 . S
C1855 C824 1.993 . S
C1860 C392 1.994 . S
C1885 C572 2.002 . S
C1890 C896 2.001 . S
C1915 C488 1.683 . S
C1920 C979 1.649 . S
C1945 C811 1.621 . S
C1950 C487 1.627 . S
C1975 C982 0.834 . S
C1980 C644 0.900 . S
C2005 C476 1.683 . S
C2010 C403 1.648 . S
C2035 C823 1.622 . S
C2040 C727 1.628 . S
C2065 C1147 1.671 . S
C2070 C991 1.666 . S
C2095 C571 1.621 . S
C2100 C475 1.627 . S
C2125 C814 0.820 . S
C2130 C1231 0.855 . S
C2155 C1150 0.670 . S
C2160 C58 0.522 . S
C2185 C226 0.669 . S
C2190 C1246 0.524 . S
C2215 C1076 2.010 . S
C2220 C140 2.010 . S
C2245 C658 0.524 . S
C2250 C478 0.672 . S
C2275 C308 2.010 . S
C2280 C908 2.010 . S
C2305 C1075 1.637 . S
C2310 C1148 1.671 . S
C2335 C643 0.851 . S
C2340 C1066 0.816 . S
C2365 C574 0.820 . S
C2370 C655 0.855 . S
C2395 C391 1.666 . S
C2400 C1159 1.671 . S
C2425 C1078 0.840 . S
C2430 C1327 0.883 . S
C2455 C1318 0.523 . S
C2460 C742 0.671 . S
C2485 C152 2.001 . S
C2490 C812 2.002 . S
C2515 C739 1.627 . S
C2520 C559 1.622 . S
C2545 C728 1.716 . S
C2550 C907 1.681 . S
C2575 C1315 0.853 . S
C2580 C562 0.818 . S
C2605 C1162 0.670 . S
C2610 C1330 0.522 . S
C2635 C980 2.001 . S
C2640 C320 2.003 . S
C2665 C898 0.831 . S
C2670 C1232 0.895 . S
C2695 C910 0.833 . S
C2700 C1328 0.897 . S
C2725 C406 0.834 . S
C2730 C1244 0.900 . S
C2755 C1316 0.862 . S
C2760 C394 0.811 . S
