# Generated by pormake.
# Topology smc, (6)-cn, num edge types: 1
# Building blocks:
#     Node 0, Type 0, BuildingBlock: PAMTOO_clean_sbu_0, # of connection points: 6
#     Node 1, Type 0, BuildingBlock: PAMTOO_clean_sbu_0, # of connection points: 6
#     Node 2, Type 0, BuildingBlock: PAMTOO_clean_sbu_0, # of connection points: 6
#     Node 3, Type 0, BuildingBlock: PAMTOO_clean_sbu_0, # of connection points: 6
#     Node 4, Type 0, BuildingBlock: PAMTOO_clean_sbu_0, # of connection points: 6
#     Node 5, Type 0, BuildingBlock: PAMTOO_clean_sbu_0, # of connection points: 6
#     Node 6, Type 0, BuildingBlock: PAMTOO_clean_sbu_0, # of connection points: 6
#     Node 7, Type 0, BuildingBlock: PAMTOO_clean_sbu_0, # of connection points: 6
#     Node 8, Type 0, BuildingBlock: PAMTOO_clean_sbu_0, # of connection points: 6
#     Edge 9, Type (0, 0), BuildingBlock: TEMPAE_clean_linker_10, # of connection points: 2
#     Edge 10, Type (0, 0), BuildingBlock: TEMPAE_clean_linker_10, # of connection points: 2
#     Edge 11, Type (0, 0), BuildingBlock: TEMPAE_clean_linker_10, # of connection points: 2
#     Edge 12, Type (0, 0), BuildingBlock: TEMPAE_clean_linker_10, # of connection points: 2
#     Edge 13, Type (0, 0), BuildingBlock: TEMPAE_clean_linker_10, # of connection points: 2
#     Edge 14, Type (0, 0), BuildingBlock: TEMPAE_clean_linker_10, # of connection points: 2
#     Edge 15, Type (0, 0), BuildingBlock: TEMPAE_clean_linker_10, # of connection points: 2
#     Edge 16, Type (0, 0), BuildingBlock: TEMPAE_clean_linker_10, # of connection points: 2
#     Edge 17, Type (0, 0), BuildingBlock: TEMPAE_clean_linker_10, # of connection points: 2
#     Edge 18, Type (0, 0), BuildingBlock: TEMPAE_clean_linker_10, # of connection points: 2
#     Edge 19, Type (0, 0), BuildingBlock: TEMPAE_clean_linker_10, # of connection points: 2
#     Edge 20, Type (0, 0), BuildingBlock: TEMPAE_clean_linker_10, # of connection points: 2
#     Edge 21, Type (0, 0), BuildingBlock: TEMPAE_clean_linker_10, # of connection points: 2
#     Edge 22, Type (0, 0), BuildingBlock: TEMPAE_clean_linker_10, # of connection points: 2
#     Edge 23, Type (0, 0), BuildingBlock: TEMPAE_clean_linker_10, # of connection points: 2
#     Edge 24, Type (0, 0), BuildingBlock: TEMPAE_clean_linker_10, # of connection points: 2
#     Edge 25, Type (0, 0), BuildingBlock: TEMPAE_clean_linker_10, # of connection points: 2
#     Edge 26, Type (0, 0), BuildingBlock: TEMPAE_clean_linker_10, # of connection points: 2
#     Edge 27, Type (0, 0), BuildingBlock: TEMPAE_clean_linker_10, # of connection points: 2
#     Edge 28, Type (0, 0), BuildingBlock: TEMPAE_clean_linker_10, # of connection points: 2
#     Edge 29, Type (0, 0), BuildingBlock: TEMPAE_clean_linker_10, # of connection points: 2
#     Edge 30, Type (0, 0), BuildingBlock: TEMPAE_clean_linker_10, # of connection points: 2
#     Edge 31, Type (0, 0), BuildingBlock: TEMPAE_clean_linker_10, # of connection points: 2
#     Edge 32, Type (0, 0), BuildingBlock: TEMPAE_clean_linker_10, # of connection points: 2
#     Edge 33, Type (0, 0), BuildingBlock: TEMPAE_clean_linker_10, # of connection points: 2
#     Edge 34, Type (0, 0), BuildingBlock: TEMPAE_clean_linker_10, # of connection points: 2
#     Edge 35, Type (0, 0), BuildingBlock: TEMPAE_clean_linker_10, # of connection points: 2
# Relax obj value: 0.295
# Max RMSD: 0.344
# Mean RMSD: 0.308
data_MOF--net-smc--node1-PAMTOO_clean_sbu_0--edge1-TEMPAE_clean_linker_10
_symmetry_space_group_name_H-M    P1
_symmetry_Int_Tables_number       1
_symmetry_cell_setting            triclinic
loop_
_symmetry_equiv_pos_as_xyz
'x, y, z'
_cell_length_a     43.079394
_cell_length_b     32.396896
_cell_length_c     40.186513
_cell_angle_alpha  90.624705
_cell_angle_beta   90.370296
_cell_angle_gamma 119.13224
loop_
_atom_site_label
_atom_site_type_symbol
_atom_site_fract_x
_atom_site_fract_y
_atom_site_fract_z
_atom_type_partial_charge
Dy0 Dy 0.07665 0.41174 0.97942 0.0
Dy1 Dy 1.05126 0.48375 1.00822 0.0
C2 C 0.09737 0.4519 0.05435 0.0
O3 O 1.01769 0.36985 0.98649 0.0
O4 O 1.01358 0.41394 0.02893 0.0
O5 O 0.06736 0.34013 0.97765 0.0
O6 O 0.10954 0.3939 0.9486 0.0
O7 O 1.01638 0.44793 0.96264 0.0
O8 O 0.05536 0.43163 0.93483 0.0
O9 O 0.09927 0.52804 0.97848 0.0
O10 O 0.12658 0.48323 0.98315 0.0
O11 O 1.03441 0.53575 0.99984 0.0
O12 O 1.04083 0.51712 0.05003 0.0
C13 C 1.0001 0.37472 1.01135 0.0
O14 O 0.08768 0.41509 0.03443 0.0
O15 O 0.09173 0.48688 0.04575 0.0
C16 C 0.12214 0.34079 0.97708 0.0
C17 C 0.18231 0.35174 1.01186 0.0
C18 C 0.15051 0.33794 0.02877 0.0
C19 C 0.12061 0.33271 1.01155 0.0
C20 C 0.15232 0.34801 0.95959 0.0
C21 C 0.18228 0.35347 0.97687 0.0
C22 C 0.09623 0.3516 0.96101 0.0
C23 C 1.02625 0.43532 0.935 0.0
C24 C 0.12824 0.52442 0.97818 0.0
C25 C 0.9974 0.53972 0.04122 0.0
C26 C 0.93502 0.53935 0.06182 0.0
C27 C 0.93438 0.49668 0.05336 0.0
C28 C 0.96542 0.49688 0.04303 0.0
C29 C 0.99815 0.58213 0.04979 0.0
C30 C 0.96726 0.582 0.06002 0.0
C31 C 1.03052 0.541 0.03148 0.0
H32 H 0.14975 0.33553 0.0556 0.0
H33 H 0.09752 0.32656 0.02578 0.0
H34 H 0.15398 0.3541 0.93303 0.0
H35 H 0.20652 0.36426 0.96312 0.0
H36 H 0.90986 0.46336 0.0543 0.0
H37 H 0.96453 0.46375 0.03654 0.0
H38 H 1.02272 0.6154 0.04876 0.0
H39 H 0.96869 0.61532 0.06687 0.0
Dy40 Dy 0.64142 0.65237 0.02648 0.0
Dy41 Dy 0.575 0.61507 0.98042 0.0
C42 C 0.65389 0.65734 0.94655 0.0
O43 O 0.62588 0.71365 0.02667 0.0
O44 O 0.58676 0.69095 0.98292 0.0
O45 O 0.6969 0.67776 0.03674 0.0
O46 O 0.66263 0.67714 0.07616 0.0
O47 O 0.56521 0.63085 0.0344 0.0
O48 O 0.59581 0.59863 0.05353 0.0
O49 O 0.57717 0.54622 0.98694 0.0
O50 O 0.62578 0.57205 0.02132 0.0
O51 O 0.52189 0.55785 0.97313 0.0
O52 O 0.54151 0.61937 0.94177 0.0
C53 C 0.60497 0.72248 1.00627 0.0
O54 O 0.66741 0.6697 0.97671 0.0
O55 O 0.61892 0.63412 0.94184 0.0
C56 C 0.70794 0.65874 0.08943 0.0
C57 C 0.74193 0.60902 0.11233 0.0
C58 C 0.70525 0.58494 0.10505 0.0
C59 C 0.68838 0.60965 0.09354 0.0
C60 C 0.74354 0.68336 0.09977 0.0
C61 C 0.76044 0.65874 0.11119 0.0
C62 C 0.69381 0.68269 0.06858 0.0
C63 C 0.57408 0.61406 0.06024 0.0
C64 C 0.59863 0.53647 1.00478 0.0
C65 C 0.48263 0.585 0.96047 0.0
C66 C 0.41933 0.57168 0.98894 0.0
C67 C 0.45209 0.60329 1.00384 0.0
C68 C 0.48364 0.61014 0.98953 0.0
C69 C 0.45027 0.55669 0.94404 0.0
C70 C 0.41876 0.55028 0.95808 0.0
C71 C 0.51378 0.58088 0.95148 0.0
H72 H 0.69016 0.54675 0.10611 0.0
H73 H 0.66078 0.59008 0.08561 0.0
H74 H 0.75901 0.72123 0.09653 0.0
H75 H 0.78876 0.67846 0.11625 0.0
H76 H 0.45315 0.62023 0.02753 0.0
H77 H 0.50858 0.63216 1.0025 0.0
H78 H 0.44913 0.5368 0.92177 0.0
H79 H 0.39381 0.52527 0.94627 0.0
Dy80 Dy 0.49092 0.05215 1.01219 0.0
Dy81 Dy 0.56574 0.1089 0.04519 0.0
C82 C 0.49339 0.06943 0.08748 0.0
O83 O 0.50549 0.13306 1.00683 0.0
O84 O 0.55134 0.16723 0.04497 0.0
O85 O 0.43628 1.00471 0.02329 0.0
O86 O 0.45148 1.02036 0.97187 0.0
O87 O 0.57003 0.13322 0.99112 0.0
O88 O 0.52613 0.06466 0.96951 0.0
O89 O 0.56847 1.04709 0.02064 0.0
O90 O 0.50989 0.99765 0.02676 0.0
O91 O 0.60758 0.1059 0.07328 0.0
O92 O 0.61273 0.17344 0.06032 0.0
C93 C 0.52968 0.1719 0.02393 0.0
O94 O 0.48209 0.07857 0.06003 0.0
O95 O 0.52497 0.07198 0.087 0.0
C96 C 0.40322 0.94289 0.98455 0.0
C97 C 0.35139 0.84567 0.97725 0.0
C98 C 0.37971 0.86038 1.00031 0.0
C99 C 0.40536 0.90827 1.00381 0.0
C100 C 0.37584 0.92813 0.96058 0.0
C101 C 0.35035 0.8801 0.95683 0.0
C102 C 0.42616 0.99421 0.99231 0.0
C103 C 0.55247 0.10689 0.96495 0.0
C104 C 0.54246 1.00323 0.02252 0.0
C105 C 0.66555 0.16894 0.06303 0.0
C106 C 0.73708 0.20524 0.04453 0.0
C107 C 0.71115 0.15989 0.03368 0.0
C108 C 0.67559 0.14194 0.0427 0.0
C109 C 0.69142 0.21404 0.07394 0.0
C110 C 0.72681 0.23208 0.06474 0.0
C111 C 0.62842 0.15148 0.07287 0.0
H112 H 0.3817 0.83489 0.01613 0.0
H113 H 0.42615 0.91839 0.02249 0.0
H114 H 0.37332 0.95398 0.94562 0.0
H115 H 0.32886 0.87023 0.93897 0.0
H116 H 0.7183 0.13858 0.01791 0.0
H117 H 0.65602 0.10714 0.03373 0.0
H118 H 0.6842 0.23539 0.08962 0.0
H119 H 0.74627 0.26686 0.07386 0.0
Dy120 Dy 0.7424 0.77806 0.3369 0.0
Dy121 Dy 0.68043 0.81552 0.35775 0.0
C122 C 0.73005 0.80043 0.41271 0.0
O123 O 0.68618 0.71114 0.34029 0.0
O124 O 0.65899 0.74218 0.37454 0.0
O125 O 0.79847 0.81984 0.34785 0.0
O126 O 0.78063 0.75296 0.32101 0.0
O127 O 0.6706 0.78343 0.30469 0.0
O128 O 0.71448 0.76508 0.28788 0.0
O129 O 0.73321 0.87929 0.35864 0.0
O130 O 0.74918 0.84607 0.31781 0.0
O131 O 0.65681 0.85702 0.34 0.0
O132 O 0.63487 0.81375 0.38407 0.0
C133 C 0.65787 0.70696 0.35725 0.0
O134 O 0.73222 0.7708 0.39144 0.0
O135 O 0.71489 0.82635 0.40441 0.0
C136 C 0.84843 0.80644 0.33236 0.0
C137 C 0.9257 0.83822 0.33103 0.0
C138 C 0.91186 0.86709 0.34351 0.0
C139 C 0.87467 0.85178 0.3441 0.0
C140 C 0.86196 0.77738 0.3197 0.0
C141 C 0.8994 0.79281 0.319 0.0
C142 C 0.80814 0.79165 0.3333 0.0
C143 C 0.68503 0.76743 0.28215 0.0
C144 C 0.75685 0.88204 0.33754 0.0
C145 C 0.60439 0.85808 0.36328 0.0
C146 C 0.54831 0.88293 0.36092 0.0
C147 C 0.57403 0.89652 0.33572 0.0
C148 C 0.60141 0.88442 0.33689 0.0
C149 C 0.57901 0.84479 0.38871 0.0
C150 C 0.55164 0.85715 0.38765 0.0
C151 C 0.63199 0.84176 0.36246 0.0
H152 H 0.92986 0.9025 0.35254 0.0
H153 H 0.86648 0.87624 0.35384 0.0
H154 H 0.84354 0.74235 0.31023 0.0
H155 H 0.9076 0.76838 0.3093 0.0
H156 H 0.57318 0.91686 0.31488 0.0
H157 H 0.62006 0.89521 0.31662 0.0
H158 H 0.57988 0.82402 0.40927 0.0
H159 H 0.53245 0.8453 0.40747 0.0
Dy160 Dy 0.28818 1.00287 0.33228 0.0
Dy161 Dy 0.25214 0.89818 0.3304 0.0
C162 C 0.26586 0.95112 0.40102 0.0
O163 O 0.33195 0.97966 0.33813 0.0
O164 O 0.30142 0.89986 0.3463 0.0
O165 O 0.33445 0.06229 0.35358 0.0
O166 O 0.29805 0.07366 0.32246 0.0
O167 O 0.28905 0.92328 0.2848 0.0
O168 O 0.29625 0.99642 0.2788 0.0
O169 O 0.20842 0.91278 0.34729 0.0
O170 O 0.22859 0.9818 0.32138 0.0
O171 O 0.20626 0.85318 0.30132 0.0
O172 O 0.23195 0.82261 0.33199 0.0
C173 C 0.3317 0.93909 0.34492 0.0
O174 O 0.26604 0.98439 0.38285 0.0
O175 O 0.26267 0.9125 0.38629 0.0
C176 C 0.32857 0.12828 0.36611 0.0
C177 C 0.3323 0.2006 0.40759 0.0
C178 C 0.30123 0.15625 0.40623 0.0
C179 C 0.29941 0.12024 0.38562 0.0
C180 C 0.36059 0.17066 0.36973 0.0
C181 C 0.36256 0.20659 0.39052 0.0
C182 C 0.32615 0.09296 0.34191 0.0
C183 C 0.30222 0.963 0.26803 0.0
C184 C 0.20114 0.94379 0.33397 0.0
C185 C 0.20472 0.78482 0.27992 0.0
C186 C 0.18214 0.71042 0.23341 0.0
C187 C 0.17204 0.74519 0.22936 0.0
C188 C 0.18281 0.78175 0.25279 0.0
C189 C 0.2196 0.75494 0.28067 0.0
C190 C 0.20881 0.71841 0.25728 0.0
C191 C 0.20825 0.81533 0.30866 0.0
H192 H 0.27734 0.15057 0.41881 0.0
H193 H 0.27477 0.08707 0.38367 0.0
H194 H 0.38362 0.1767 0.3554 0.0
H195 H 0.38691 0.24019 0.39142 0.0
H196 H 0.15232 0.74079 0.21072 0.0
H197 H 0.17153 0.80515 0.25114 0.0
H198 H 0.23723 0.75719 0.3008 0.0
H199 H 0.21796 0.69302 0.26102 0.0
Dy200 Dy 0.14417 0.36294 0.33618 0.0
Dy201 Dy 0.21373 0.46312 0.3625 0.0
C202 C 0.14287 0.40007 0.41115 0.0
O203 O 0.13145 0.42045 0.32749 0.0
O204 O 0.17145 0.48399 0.36007 0.0
O205 O 0.0911 0.32319 0.31651 0.0
O206 O 0.12704 0.29384 0.31443 0.0
O207 O 0.20531 0.47162 0.30748 0.0
O208 O 0.18348 0.39423 0.29555 0.0
O209 O 0.22416 0.4032 0.35453 0.0
O210 O 0.17295 0.34328 0.3728 0.0
O211 O 0.26018 0.53133 0.35254 0.0
O212 O 0.25835 0.49484 0.39761 0.0
C213 C 0.14214 0.4621 0.34164 0.0
O214 O 0.1269 0.36823 0.38723 0.0
O215 O 0.17541 0.43755 0.4076 0.0
C216 C 0.06562 0.24097 0.31619 0.0
C217 C 1.0022 0.15805 0.32762 0.0
C218 C 1.02058 0.18898 0.35428 0.0
C219 C 0.05224 0.23055 0.34854 0.0
C220 C 1.04849 0.20878 0.29006 0.0
C221 C 1.01693 0.16748 0.29573 0.0
C222 C 0.0951 0.28702 0.30826 0.0
C223 C 0.19363 0.43703 0.28525 0.0
C224 C 0.20743 0.36509 0.37205 0.0
C225 C 0.31657 0.54062 0.3726 0.0
C226 C 0.3906 0.56611 0.36458 0.0
C227 C 0.3667 0.52515 0.38189 0.0
C228 C 0.33056 0.51283 0.38594 0.0
C229 C 0.34026 0.5812 0.35506 0.0
C230 C 0.3764 0.59368 0.35112 0.0
C231 C 0.27838 0.52959 0.37809 0.0
H232 H 1.00951 0.18229 0.37903 0.0
H233 H 0.06538 0.25542 0.36891 0.0
H234 H 0.0587 0.21656 0.265 0.0
H235 H 1.0033 0.14371 0.27495 0.0
H236 H 0.37604 0.50294 0.39315 0.0
H237 H 0.31374 0.48168 0.39997 0.0
H238 H 0.33087 0.60383 0.34452 0.0
H239 H 0.3932 0.62506 0.33721 0.0
Dy240 Dy 0.41617 0.06426 0.68668 0.0
Dy241 Dy 0.40102 0.15106 0.69343 0.0
C242 C 0.43905 0.12565 0.75253 0.0
O243 O 0.35658 1.0327 0.68911 0.0
O244 O 0.3567 0.09218 0.71984 0.0
O245 O 0.44397 1.03016 0.66551 0.0
O246 O 0.40347 0.99427 0.70237 0.0
O247 O 0.36756 0.10647 0.64922 0.0
O248 O 0.40288 0.07477 0.63484 0.0
O249 O 0.44799 0.17566 0.66106 0.0
O250 O 0.46968 0.13246 0.68607 0.0
O251 O 0.39026 0.20353 0.67132 0.0
O252 O 0.39684 0.20246 0.72472 0.0
C253 C 0.33991 0.04882 0.70805 0.0
O254 O 0.42131 0.08235 0.74086 0.0
O255 O 0.44081 0.16065 0.7347 0.0
C256 C 0.45702 0.99198 0.70771 0.0
C257 C 0.52369 1.02958 0.73877 0.0
C258 C 0.49451 1.02536 0.75677 0.0
C259 C 0.46131 1.00686 0.74126 0.0
C260 C 0.48427 0.98762 0.69215 0.0
C261 C 0.51753 1.00628 0.70764 0.0
C262 C 0.43049 0.99583 0.68683 0.0
C263 C 0.37741 0.08434 0.62742 0.0
C264 C 0.47512 0.17047 0.66963 0.0
C265 C 0.35644 0.2261 0.70514 0.0
C266 C 0.29748 0.23956 0.71634 0.0
C267 C 0.3273 0.2735 0.69927 0.0
C268 C 0.35655 0.26686 0.69385 0.0
C269 C 0.3265 0.19152 0.72151 0.0
C270 C 0.2973 0.19828 0.72719 0.0
C271 C 0.38793 0.22061 0.70012 0.0
H272 H 0.49825 1.04205 0.78102 0.0
H273 H 0.44052 1.00993 0.75418 0.0
H274 H 0.48138 0.97586 0.6664 0.0
H275 H 0.53935 1.00846 0.69309 0.0
H276 H 0.328 0.30515 0.6899 0.0
H277 H 0.37934 0.29368 0.68094 0.0
H278 H 0.32587 0.1596 0.73024 0.0
H279 H 0.2749 0.17157 0.74057 0.0
Dy280 Dy 0.95944 0.31998 0.68719 0.0
Dy281 Dy 0.89182 0.28463 0.6431 0.0
C282 C 0.96943 0.31867 0.60752 0.0
O283 O 0.94381 0.38136 0.68934 0.0
O284 O 0.90562 0.36094 0.64507 0.0
O285 O 1.015 0.3682 0.69672 0.0
O286 O 0.98276 0.32222 0.73556 0.0
O287 O 0.8831 0.30191 0.69727 0.0
O288 O 0.91378 0.26928 0.71571 0.0
O289 O 0.89177 0.21482 0.65152 0.0
O290 O 0.9447 0.24063 0.67922 0.0
O291 O 0.83752 0.23005 0.63674 0.0
O292 O 0.85971 0.28934 0.60329 0.0
C293 C 0.92377 0.39161 0.66876 0.0
O294 O 0.98357 0.32546 0.6374 0.0
O295 O 0.93487 0.30308 0.60358 0.0
C296 C 1.04067 0.33413 0.72999 0.0
C297 C 0.09317 0.30659 0.73374 0.0
C298 C 0.06585 0.28622 0.70965 0.0
C299 C 1.03979 0.2998 0.70785 0.0
C300 C 0.06717 0.35356 0.75475 0.0
C301 C 0.09325 0.3397 0.75673 0.0
C302 C 1.01486 0.35086 0.72582 0.0
C303 C 0.89275 0.2856 0.72292 0.0
C304 C 0.91496 0.20493 0.66604 0.0
C305 C 0.80085 0.26013 0.62092 0.0
C306 C 0.74087 0.25557 0.65117 0.0
C307 C 0.7749 0.29285 0.65921 0.0
C308 C 0.80479 0.29499 0.64426 0.0
C309 C 0.76695 0.2261 0.61021 0.0
C310 C 0.7371 0.22383 0.62517 0.0
C311 C 0.83096 0.2528 0.61364 0.0
H312 H 0.06494 0.26021 0.69191 0.0
H313 H 1.0194 0.28435 0.68862 0.0
H314 H 0.06818 0.38014 0.77199 0.0
H315 H 0.11415 0.35608 0.77541 0.0
H316 H 0.77859 0.31814 0.67879 0.0
H317 H 0.83096 0.32146 0.6529 0.0
H318 H 0.76358 0.19876 0.59245 0.0
H319 H 0.71137 0.19429 0.61855 0.0
Dy320 Dy 0.80742 0.71954 0.67788 0.0
Dy321 Dy 0.88946 0.78544 0.69458 0.0
C322 C 0.82903 0.73607 0.75208 0.0
O323 O 0.81886 0.80067 0.68014 0.0
O324 O 0.87908 0.84588 0.69094 0.0
O325 O 0.75249 0.68647 0.69413 0.0
O326 O 0.76437 0.67871 0.64312 0.0
O327 O 0.87659 0.80323 0.64258 0.0
O328 O 0.83369 0.73007 0.6295 0.0
O329 O 0.88593 0.71303 0.68827 0.0
O330 O 0.82666 0.66354 0.67922 0.0
O331 O 0.94175 0.81313 0.67457 0.0
O332 O 0.93576 0.82391 0.72775 0.0
C333 C 0.8484 0.8437 0.68477 0.0
O334 O 0.81349 0.70271 0.7298 0.0
O335 O 0.85776 0.77554 0.74332 0.0
C336 C 0.71609 0.61094 0.66747 0.0
C337 C 0.66912 0.51125 0.66971 0.0
C338 C 0.66845 0.54201 0.69448 0.0
C339 C 0.69152 0.59105 0.69334 0.0
C340 C 0.71687 0.58023 0.64277 0.0
C341 C 0.69383 0.53125 0.64391 0.0
C342 C 0.74017 0.66333 0.66602 0.0
C343 C 0.85411 0.77318 0.62027 0.0
C344 C 0.85945 0.6698 0.68307 0.0
C345 C 0.99678 0.85653 0.70607 0.0
C346 C 0.0719 0.89926 0.71021 0.0
C347 C 0.05439 0.89016 0.67917 0.0
C348 C 1.01737 0.86903 0.67713 0.0
C349 C 1.01416 0.86641 0.7372 0.0
C350 C 1.05135 0.88742 0.73926 0.0
C351 C 0.95744 0.83052 0.70317 0.0
H352 H 0.65022 0.52818 0.71501 0.0
H353 H 0.69005 0.61349 0.71275 0.0
H354 H 0.73516 0.59399 0.62227 0.0
H355 H 0.69493 0.50915 0.62405 0.0
H356 H 0.06924 0.89823 0.65629 0.0
H357 H 1.00485 0.86179 0.65272 0.0
H358 H 0.99899 0.857 0.75992 0.0
H359 H 0.06402 0.89438 0.76358 0.0
C360 C 0.38408 0.53517 0.03954 0.0
C361 C 0.38605 0.55377 1.00775 0.0
C362 C 0.3511 0.50423 0.05331 0.0
C363 C 0.31981 0.49165 0.03456 0.0
C364 C 0.32167 0.51533 1.00453 0.0
C365 C 0.35492 0.54625 0.99149 0.0
C366 C 0.35024 0.48145 0.08607 0.0
C367 C 0.28878 0.50401 0.98416 0.0
C368 C 0.24502 0.36991 0.01952 0.0
C369 C 0.21667 0.37617 0.02994 0.0
C370 C 0.28008 0.40547 0.02524 0.0
C371 C 0.28646 0.44784 0.04176 0.0
C372 C 0.25819 0.45053 0.05731 0.0
C373 C 0.22335 0.41453 0.05106 0.0
C374 C 0.30974 0.40044 1.00932 0.0
C375 C 0.26407 0.494 0.0766 0.0
H376 H 0.4082 0.54115 0.05232 0.0
H377 H 0.3566 0.56146 0.96722 0.0
H378 H 0.32511 0.471 0.09946 0.0
H379 H 0.35252 0.44921 0.08143 0.0
H380 H 0.37298 0.50567 0.10233 0.0
H381 H 0.29466 0.52857 0.9631 0.0
H382 H 0.27707 0.46747 0.97385 0.0
H383 H 0.26847 0.50582 0.99997 0.0
H384 H 0.23974 0.3397 1.00381 0.0
H385 H 0.20149 0.41948 0.05942 0.0
H386 H 0.33277 0.41275 0.02665 0.0
H387 H 0.31882 0.42269 0.98684 0.0
H388 H 0.30109 0.36329 1.00171 0.0
H389 H 0.24255 0.48533 0.09484 0.0
H390 H 0.26394 0.5202 0.05913 0.0
H391 H 0.29006 0.51072 0.08998 0.0
C392 C 0.58495 0.96876 1.01066 0.0
C393 C 0.55111 0.96138 0.02078 0.0
C394 C 0.59437 0.93178 1.00901 0.0
C395 C 0.57011 0.88438 0.01833 0.0
C396 C 0.53597 0.87666 0.02894 0.0
C397 C 0.52695 0.91424 0.02972 0.0
C398 C 0.63073 0.94368 0.99675 0.0
C399 C 0.50864 0.82816 0.03987 0.0
C400 C 0.58083 0.7768 0.98413 0.0
C401 C 0.59861 0.76619 1.00978 0.0
C402 C 0.57204 0.81425 0.9865 0.0
C403 C 0.57999 0.84335 0.01572 0.0
C404 C 0.59798 0.833 0.04184 0.0
C405 C 0.60713 0.79566 0.03855 0.0
C406 C 0.55399 0.82272 0.95715 0.0
C407 C 0.60693 0.86092 0.07402 0.0
H408 H 0.60451 1.00409 1.00352 0.0
H409 H 0.50078 0.90658 0.03787 0.0
H410 H 0.64531 0.93554 0.01614 0.0
H411 H 0.62813 0.92155 0.97451 0.0
H412 H 0.64681 0.98148 0.99012 0.0
H413 H 0.48415 0.82745 0.04914 0.0
H414 H 0.50132 0.80264 0.01876 0.0
H415 H 0.51998 0.81595 0.05988 0.0
H416 H 0.57355 0.75542 0.96154 0.0
H417 H 0.62044 0.78898 0.05903 0.0
H418 H 0.56971 0.85993 0.94914 0.0
H419 H 0.52743 0.81708 0.96443 0.0
H420 H 0.55062 0.799 0.93564 0.0
H421 H 0.62206 0.89934 0.0691 0.0
H422 H 0.62276 0.85162 0.09127 0.0
H423 H 0.58199 0.85405 0.0865 0.0
C424 C 0.30763 0.77187 0.94544 0.0
C425 C 0.32194 0.79529 0.97596 0.0
C426 C 0.27852 0.72553 0.94414 0.0
C427 C 0.2627 0.70202 0.97404 0.0
C428 C 0.27761 0.72506 1.00491 0.0
C429 C 0.30703 0.77107 1.00548 0.0
C430 C 0.26405 0.70219 0.91067 0.0
C431 C 0.26149 0.70193 0.03744 0.0
C432 C 0.16362 0.61257 0.97261 0.0
C433 C 0.16309 0.5689 0.97473 0.0
C434 C 0.19567 0.6556 0.972 0.0
C435 C 0.22855 0.65566 0.97311 0.0
C436 C 0.22839 0.61174 0.97436 0.0
C437 C 0.19574 0.56896 0.9754 0.0
C438 C 0.19424 0.70126 0.971 0.0
C439 C 0.26271 0.60991 0.97528 0.0
H440 H 0.31916 0.78991 0.92248 0.0
H441 H 0.31752 0.78887 0.02921 0.0
H442 H 0.26127 0.66629 0.90994 0.0
H443 H 0.23718 0.69805 0.90658 0.0
H444 H 0.2813 0.72295 0.88992 0.0
H445 H 0.27746 0.72304 0.0593 0.0
H446 H 0.23431 0.69737 0.03937 0.0
H447 H 0.25901 0.66625 0.03843 0.0
H448 H 0.1388 0.61343 0.97214 0.0
H449 H 0.19584 0.53567 0.97714 0.0
H450 H 0.20863 0.72194 0.949 0.0
H451 H 0.20766 0.72315 0.99345 0.0
H452 H 0.16657 0.69527 0.9699 0.0
H453 H 0.28084 0.63247 0.95564 0.0
H454 H 0.25821 0.57334 0.97183 0.0
H455 H 0.27636 0.62391 0.9996 0.0
C456 C 0.57296 0.26091 0.0146 0.0
C457 C 0.53742 0.22396 0.01788 0.0
C458 C 0.58282 0.31003 1.01151 0.0
C459 C 0.55717 0.32603 0.01343 0.0
C460 C 0.521 0.28876 0.01702 0.0
C461 C 0.51173 0.23933 0.01846 0.0
C462 C 0.62152 0.34467 1.00618 0.0
C463 C 0.49118 0.30021 0.02011 0.0
C464 C 0.59885 0.46426 0.0346 0.0
C465 C 0.59 0.48336 1.00685 0.0
C466 C 0.5879 0.41451 0.03747 0.0
C467 C 0.56827 0.38059 1.01143 0.0
C468 C 0.56027 0.40024 0.98294 0.0
C469 C 0.57014 0.44964 0.98149 0.0
C470 C 0.59739 0.39903 0.06939 0.0
C471 C 0.54108 0.36934 0.95317 0.0
H472 H 0.59378 0.25126 0.0141 0.0
H473 H 0.48415 0.21283 0.02143 0.0
H474 H 0.62522 0.37602 0.99215 0.0
H475 H 0.63512 0.35674 0.03072 0.0
H476 H 0.63479 0.32772 0.99247 0.0
H477 H 0.47151 0.27682 0.03851 0.0
H478 H 0.50061 0.33749 0.02773 0.0
H479 H 0.47707 0.2933 0.99578 0.0
H480 H 0.61359 0.48811 0.05501 0.0
H481 H 0.56245 0.46206 0.95967 0.0
H482 H 0.62582 0.40841 0.06885 0.0
H483 H 0.58104 0.36053 0.07349 0.0
H484 H 0.59414 0.41823 0.09099 0.0
H485 H 0.54649 0.33934 0.95027 0.0
H486 H 0.54876 0.39002 0.9299 0.0
H487 H 0.51207 0.35496 0.95618 0.0
C488 C 0.79177 0.19711 0.0386 0.0
C489 C 0.77493 0.22461 0.03541 0.0
C490 C 0.82835 0.21653 0.03292 0.0
C491 C 0.84839 0.26443 0.02365 0.0
C492 C 0.83121 0.29174 0.01904 0.0
C493 C 0.79471 0.27152 0.02507 0.0
C494 C 0.84581 0.18643 0.03821 0.0
C495 C 0.85159 0.34284 1.00884 0.0
C496 C 0.94606 0.33764 0.04626 0.0
C497 C 0.96218 0.34036 0.01561 0.0
C498 C 0.9091 0.31105 0.04952 0.0
C499 C 0.88773 0.28731 0.02128 0.0
C500 C 0.90397 0.28858 0.99049 0.0
C501 C 0.94113 0.31481 0.9881 0.0
C502 C 0.89285 0.31028 0.08286 0.0
C503 C 0.88209 0.26458 0.95965 0.0
H504 H 0.77662 0.16092 0.0468 0.0
H505 H 0.78164 0.29265 0.02206 0.0
H506 H 0.86171 0.18792 0.01619 0.0
H507 H 0.86437 0.20045 0.05986 0.0
H508 H 0.82613 0.14892 0.04285 0.0
H509 H 0.83385 0.35805 1.00388 0.0
H510 H 0.87078 0.36419 0.02886 0.0
H511 H 0.86715 0.34623 0.98614 0.0
H512 H 0.96232 0.35743 0.06754 0.0
H513 H 0.95347 0.31748 0.96421 0.0
H514 H 0.87399 0.27341 0.08983 0.0
H515 H 0.87758 0.32963 0.08128 0.0
H516 H 0.91325 0.32687 0.10295 0.0
H517 H 0.86229 0.22738 0.96485 0.0
H518 H 0.89879 0.26508 0.93854 0.0
H519 H 0.86716 0.28283 0.95192 0.0
C520 C 0.8793 0.50803 0.09542 0.0
C521 C 0.90231 0.54009 0.07212 0.0
C522 C 0.84943 0.51068 0.10655 0.0
C523 C 0.84261 0.54619 0.094 0.0
C524 C 0.86537 0.57788 0.06992 0.0
C525 C 0.89483 0.57434 0.05925 0.0
C526 C 0.82566 0.47624 0.13214 0.0
C527 C 0.85886 0.61601 0.0556 0.0
C528 C 0.75537 0.54644 0.09189 0.0
C529 C 0.76226 0.58299 0.11485 0.0
C530 C 0.77986 0.53024 0.08722 0.0
C531 C 0.81205 0.55132 0.10581 0.0
C532 C 0.81731 0.58439 0.13154 0.0
C533 C 0.79225 0.59978 0.13582 0.0
C534 C 0.77297 0.49439 0.05984 0.0
C535 C 0.85108 0.60725 0.15223 0.0
H536 H 0.88515 0.48166 0.10557 0.0
H537 H 0.91218 0.5986 0.04078 0.0
H538 H 0.82734 0.49551 0.15566 0.0
H539 H 0.79754 0.45885 0.1235 0.0
H540 H 0.83306 0.44856 0.13749 0.0
H541 H 0.87898 0.63752 0.03689 0.0
H542 H 0.83217 0.59991 0.04358 0.0
H543 H 0.85941 0.63995 0.07583 0.0
H544 H 0.73237 0.53326 0.07543 0.0
H545 H 0.79734 0.6273 0.15409 0.0
H546 H 0.78158 0.46873 0.06756 0.0
H547 H 0.78851 0.51287 0.03764 0.0
H548 H 0.74441 0.4747 0.05251 0.0
H549 H 0.85875 0.58069 0.16005 0.0
H550 H 0.8484 0.62542 0.17475 0.0
H551 H 0.873 0.6338 0.13705 0.0
C552 C 0.98259 0.83864 0.30725 0.0
C553 C 0.96672 0.85549 0.33073 0.0
C554 C 1.02017 0.85459 0.30674 0.0
C555 C 1.04422 0.8887 0.33036 0.0
C556 C 1.02849 0.90584 0.3541 0.0
C557 C 0.99089 0.88954 0.35395 0.0
C558 C 1.03423 0.83457 0.28055 0.0
C559 C 1.05153 0.9414 0.38035 0.0
C560 C 0.13544 0.89321 0.3507 0.0
C561 C 0.16156 0.93276 0.33342 0.0
C562 C 0.09834 0.87922 0.35002 0.0
C563 C 0.085 0.90449 0.33131 0.0
C564 C 0.1111 0.94468 0.31381 0.0
C565 C 0.14839 0.95819 0.3151 0.0
C566 C 0.07315 0.83662 0.36955 0.0
C567 C 0.0995 0.97343 0.29321 0.0
H568 H 0.96563 0.81306 0.28861 0.0
H569 H 0.98041 0.90322 0.37287 0.0
H570 H 0.05519 0.86367 0.2661 0.0
H571 H 1.04665 0.81545 0.2926 0.0
H572 H 1.01306 0.80987 0.26307 0.0
H573 H 1.03622 0.95287 0.39651 0.0
H574 H 0.06429 0.92591 0.3962 0.0
H575 H 0.07313 0.97297 0.36844 0.0
H576 H 0.14402 0.87239 0.36508 0.0
H577 H 0.16717 0.98847 0.30122 0.0
H578 H 0.05326 0.80926 0.35247 0.0
H579 H 0.05838 0.84659 0.38751 0.0
H580 H 0.0871 0.82088 0.38347 0.0
H581 H 0.08029 0.95058 0.27367 0.0
H582 H 0.12222 1.00355 0.28109 0.0
H583 H 0.08561 0.98735 0.3091 0.0
C584 C 0.25623 0.3766 0.41023 0.0
C585 C 0.22756 0.34652 0.38966 0.0
C586 C 0.27825 0.36096 0.42463 0.0
C587 C 0.27184 0.31473 0.41711 0.0
C588 C 0.2414 0.28334 0.39791 0.0
C589 C 0.21922 0.29959 0.38482 0.0
C590 C 0.30917 0.39492 0.44624 0.0
C591 C 0.23364 0.23372 0.38901 0.0
C592 C 0.34004 0.28006 0.39737 0.0
C593 C 0.32972 0.24225 0.4192 0.0
C594 C 0.3248 0.30941 0.39932 0.0
C595 C 0.29923 0.30088 0.42402 0.0
C596 C 0.29414 0.26902 0.44985 0.0
C597 C 0.30921 0.23935 0.44694 0.0
C598 C 0.33191 0.34429 0.37185 0.0
C599 C 0.26938 0.26215 0.47815 0.0
H600 H 0.2616 0.4125 0.41478 0.0
H601 H 0.19665 0.27651 0.36912 0.0
H602 H 0.31848 0.37641 0.46333 0.0
H603 H 0.33158 0.41847 0.43021 0.0
H604 H 0.30179 0.41779 0.46122 0.0
H605 H 0.2086 0.21388 0.37432 0.0
H606 H 0.25577 0.23503 0.37422 0.0
H607 H 0.23148 0.21374 0.41189 0.0
H608 H 0.35628 0.28302 0.37608 0.0
H609 H 0.30217 0.21109 0.46453 0.0
H610 H 0.33689 0.37878 0.38233 0.0
H611 H 0.30824 0.33083 0.35515 0.0
H612 H 0.35514 0.35012 0.35669 0.0
H613 H 0.27064 0.29609 0.48546 0.0
H614 H 0.27588 0.2472 0.50017 0.0
H615 H 0.24167 0.23715 0.47021 0.0
C616 C 0.93886 0.11415 0.31071 0.0
C617 C 0.96615 0.11848 0.33202 0.0
C618 C 0.90447 0.07634 0.31342 0.0
C619 C 0.89743 1.04206 0.33795 0.0
C620 C 0.92472 1.04668 0.36004 0.0
C621 C 0.95895 0.08529 0.35692 0.0
C622 C 0.87589 0.07258 0.28958 0.0
C623 C 0.91795 1.0103 0.38624 0.0
C624 C 0.80063 0.96296 0.35767 0.0
C625 C 0.79248 0.92358 0.33723 0.0
C626 C 0.83506 1.0016 0.35877 0.0
C627 C 0.86175 1.00031 0.3392 0.0
C628 C 0.8538 0.96038 0.31892 0.0
C629 C 0.8191 0.92263 0.31793 0.0
C630 C 0.84278 1.04396 0.38047 0.0
C631 C 0.88182 0.95772 0.29799 0.0
H632 H 0.9445 0.14048 0.29184 0.0
H633 H 0.98025 0.08893 0.37333 0.0
H634 H 0.86627 1.04014 0.27392 0.0
H635 H 0.85281 0.06961 0.3036 0.0
H636 H 0.88551 0.10349 0.27297 0.0
H637 H 0.94154 1.02055 0.40262 0.0
H638 H 0.89523 1.00508 0.40189 0.0
H639 H 0.91067 0.97579 0.3741 0.0
H640 H 0.78013 0.96364 0.37278 0.0
H641 H 0.813 0.89209 0.30227 0.0
H642 H 0.85091 0.07545 0.36476 0.0
H643 H 0.86523 0.05195 0.3978 0.0
H644 H 0.8194 1.03845 0.39525 0.0
H645 H 0.89139 0.98561 0.27891 0.0
H646 H 0.87167 0.92286 0.28519 0.0
H647 H 0.90504 0.96419 0.31375 0.0
C648 C 0.1214 0.64302 0.23177 0.0
C649 C 0.15726 0.66088 0.22317 0.0
C650 C 0.10341 0.59998 0.24826 0.0
C651 C 0.12171 0.57481 0.25485 0.0
C652 C 0.15405 0.58711 0.23848 0.0
C653 C 0.17064 0.62934 0.22096 0.0
C654 C 0.06802 0.58647 0.26377 0.0
C655 C 0.17443 0.56085 0.2445 0.0
C656 C 0.13998 0.53711 0.33574 0.0
C657 C 0.12491 0.48867 0.32916 0.0
C658 C 0.13372 0.56568 0.31391 0.0
C659 C 0.11316 0.54505 0.28456 0.0
C660 C 0.09279 0.49551 0.28135 0.0
C661 C 0.09826 0.46767 0.3044 0.0
C662 C 0.15362 0.61853 0.31967 0.0
C663 C 0.06838 0.4712 0.25197 0.0
H664 H 0.1096 0.66589 0.23157 0.0
H665 H 0.19748 0.64198 0.21216 0.0
H666 H 0.05361 0.60161 0.24992 0.0
H667 H 1.0511 0.54752 0.26462 0.0
H668 H 0.07249 0.60046 0.28973 0.0
H669 H 0.18899 0.57274 0.26864 0.0
H670 H 0.15628 0.52221 0.24578 0.0
H671 H 0.19431 0.56809 0.22483 0.0
H672 H 0.15938 0.5534 0.35574 0.0
H673 H 0.08469 0.4297 0.30029 0.0
H674 H 0.13792 0.63513 0.31074 0.0
H675 H 0.17889 0.63388 0.30578 0.0
H676 H 0.16024 0.62763 0.34646 0.0
H677 H 1.04091 0.44911 0.26104 0.0
H678 H 0.0762 0.44687 0.23963 0.0
H679 H 0.06813 0.49596 0.23329 0.0
C680 C 0.4566 0.62831 0.36128 0.0
C681 C 0.42995 0.58039 0.36105 0.0
C682 C 0.49327 0.64223 0.35862 0.0
C683 C 0.50455 0.60777 0.35549 0.0
C684 C 0.47788 0.55939 0.35481 0.0
C685 C 0.44135 0.54642 0.35766 0.0
C686 C 0.52016 0.69423 0.35973 0.0
C687 C 0.48797 0.52106 0.35122 0.0
C688 C 0.60126 0.65547 0.3249 0.0
C689 C 0.62077 0.66549 0.35492 0.0
C690 C 0.56348 0.63415 0.32441 0.0
C691 C 0.54418 0.62263 0.3547 0.0
C692 C 0.56362 0.62921 0.38479 0.0
C693 C 0.60119 0.65028 0.38449 0.0
C694 C 0.54457 0.6274 0.29148 0.0
C695 C 0.54507 0.61763 0.41784 0.0
H696 H 0.44893 0.65537 0.36434 0.0
H697 H 0.4216 0.50931 0.35686 0.0
H698 H 0.5382 0.70218 0.38156 0.0
H699 H 0.53681 0.7038 0.33716 0.0
H700 H 0.50746 0.71691 0.36135 0.0
H701 H 0.46437 0.48522 0.34977 0.0
H702 H 0.50394 0.52673 0.32847 0.0
H703 H 0.5048 0.5226 0.37272 0.0
H704 H 0.61564 0.6681 0.30191 0.0
H705 H 0.61565 0.65884 0.40801 0.0
H706 H 0.53726 0.65562 0.28859 0.0
H707 H 0.51966 0.59297 0.29036 0.0
H708 H 0.56157 0.62909 0.2703 0.0
H709 H 0.53521 0.64287 0.42325 0.0
H710 H 0.56299 0.61973 0.43858 0.0
H711 H 0.52169 0.58164 0.41705 0.0
C712 C 0.39986 0.97413 0.34529 0.0
C713 C 0.36547 0.93536 0.34859 0.0
C714 C 0.4308 0.96881 0.34758 0.0
C715 C 0.42778 0.92359 0.3531 0.0
C716 C 0.39316 0.88457 0.35653 0.0
C717 C 0.36292 0.89089 0.35439 0.0
C718 C 0.46685 1.0117 0.34386 0.0
C719 C 0.38786 0.83555 0.36211 0.0
C720 C 0.50194 0.89465 0.32819 0.0
C721 C 0.51812 0.89494 0.35891 0.0
C722 C 0.47348 0.90493 0.32589 0.0
C723 C 0.46031 0.91633 0.35491 0.0
C724 C 0.47684 0.91743 0.38593 0.0
C725 C 0.5051 0.90663 0.38756 0.0
C726 C 0.45686 0.90245 0.29223 0.0
C727 C 0.46439 0.92965 0.41766 0.0
H728 H 0.40266 1.00866 0.34068 0.0
H729 H 0.33691 0.86023 0.35698 0.0
H730 H 0.48388 1.01567 0.36582 0.0
H731 H 0.48014 1.00715 0.32167 0.0
H732 H 0.46517 1.04466 0.34115 0.0
H733 H 0.35937 0.80871 0.36427 0.0
H734 H 0.39932 0.82501 0.34118 0.0
H735 H 0.40205 0.83522 0.38515 0.0
H736 H 0.51093 0.88517 0.30574 0.0
H737 H 0.51726 0.90783 0.41149 0.0
H738 H 0.45698 0.93612 0.2872 0.0
H739 H 0.4287 0.87404 0.29197 0.0
H740 H 0.47091 0.89529 0.27178 0.0
H741 H 0.46475 0.96396 0.41512 0.0
H742 H 0.48109 0.93192 0.43951 0.0
H743 H 0.43653 0.90247 0.42247 0.0
C744 C 0.67595 0.22193 0.6606 0.0
C745 C 0.7106 0.24325 0.67367 0.0
C746 C 0.64691 0.19437 0.68067 0.0
C747 C 0.65279 0.18958 0.71482 0.0
C748 C 0.68693 0.21722 0.72915 0.0
C749 C 0.7157 0.24334 0.70827 0.0
C750 C 0.61051 0.16672 0.66456 0.0
C751 C 0.69371 0.21589 0.76589 0.0
C752 C 0.56375 0.11425 0.75247 0.0
C753 C 0.55973 0.06909 0.74632 0.0
C754 C 0.59597 0.15498 0.74633 0.0
C755 C 0.62443 0.15021 0.73339 0.0
C756 C 0.62202 0.10501 0.73151 0.0
C757 C 0.58966 0.06485 0.73847 0.0
C758 C 0.59837 0.20277 0.7505 0.0
C759 C 0.65195 0.09841 0.71791 0.0
H760 H 0.67186 0.22331 0.63407 0.0
H761 H 0.74235 0.26018 0.71881 0.0
H762 H 0.60126 0.12827 0.66612 0.0
H763 H 0.59103 0.17373 0.67784 0.0
H764 H 0.61043 0.17568 0.63796 0.0
H765 H 0.71787 0.24856 0.77437 0.0
H766 H 0.67074 0.21168 0.78072 0.0
H767 H 0.69796 0.18542 0.77099 0.0
H768 H 0.5408 0.11805 0.75861 0.0
H769 H 0.58675 1.03001 0.73431 0.0
H770 H 0.61821 0.22325 0.77029 0.0
H771 H 0.57243 0.19972 0.75726 0.0
H772 H 0.60745 0.22324 0.72728 0.0
H773 H 0.65484 0.10641 0.69095 0.0
H774 H 0.64713 0.06174 0.72109 0.0
H775 H 0.67745 0.12311 0.73041 0.0
C776 C 0.92313 0.46217 0.70205 0.0
C777 C 0.9178 0.43548 0.67232 0.0
C778 C 0.91342 0.49898 0.70508 0.0
C779 C 0.89827 0.51159 0.6777 0.0
C780 C 0.89387 0.4856 0.6475 0.0
C781 C 0.90295 0.44848 0.64542 0.0
C782 C 0.91831 0.52334 0.73837 0.0
C783 C 0.87943 0.49709 0.61679 0.0
C784 C 0.8431 0.58017 0.68673 0.0
C785 C 0.86828 0.62823 0.6815 0.0
C786 C 0.8524 0.54289 0.68652 0.0
C787 C 0.88787 0.55201 0.67996 0.0
C788 C 0.91314 0.60034 0.67423 0.0
C789 C 0.90339 0.63694 0.67552 0.0
C790 C 0.82395 0.49325 0.69377 0.0
C791 C 0.95099 0.61368 0.66621 0.0
H792 H 0.93412 0.45356 0.72346 0.0
H793 H 0.89825 0.42927 0.62203 0.0
H794 H 0.93515 0.5159 0.75564 0.0
H795 H 0.93045 0.56213 0.73552 0.0
H796 H 0.89188 0.51081 0.74979 0.0
H797 H 0.87962 0.47653 0.59457 0.0
H798 H 0.85173 0.48941 0.62105 0.0
H799 H 0.89537 0.53533 0.61144 0.0
H800 H 0.81593 0.57155 0.69171 0.0
H801 H 0.92373 0.67305 0.67127 0.0
H802 H 0.83312 0.47836 0.71389 0.0
H803 H 0.81873 0.47043 0.67135 0.0
H804 H 0.79864 0.49167 0.70133 0.0
H805 H 0.96307 0.60398 0.68705 0.0
H806 H 0.96764 0.65206 0.66158 0.0
H807 H 0.95147 0.59364 0.64381 0.0
C808 C 0.65439 0.42587 0.66037 0.0
C809 C 0.6437 0.45884 0.67028 0.0
C810 C 0.6304 0.37678 0.65982 0.0
C811 C 0.59465 0.35975 0.66938 0.0
C812 C 0.58384 0.39272 0.67992 0.0
C813 C 0.60831 0.44154 0.68017 0.0
C814 C 0.64323 0.34309 0.64864 0.0
C815 C 0.54616 0.37641 0.69068 0.0
C816 C 0.51799 0.24177 0.63878 0.0
C817 C 0.51078 0.21318 0.66683 0.0
C818 C 0.54654 0.28836 0.63856 0.0
C819 C 0.56804 0.30778 0.66749 0.0
C820 C 0.56189 0.2784 0.6954 0.0
C821 C 0.53381 0.23114 0.69449 0.0
C822 C 0.55223 0.31776 0.60799 0.0
C823 C 0.5837 0.29779 0.72692 0.0
H824 H 0.68169 0.43842 0.65317 0.0
H825 H 0.59938 0.46629 0.68748 0.0
H826 H 0.63905 0.31756 0.6686 0.0
H827 H 0.62756 0.32234 0.62657 0.0
H828 H 0.67184 0.36169 0.64216 0.0
H829 H 0.54224 0.40613 0.69954 0.0
H830 H 0.52752 0.35825 0.66958 0.0
H831 H 0.53898 0.35049 0.71099 0.0
H832 H 0.50015 0.22831 0.6174 0.0
H833 H 0.52823 0.20951 0.71635 0.0
H834 H 0.58064 0.33569 0.60098 0.0
H835 H 0.54501 0.34566 0.61343 0.0
H836 H 0.53595 0.2962 0.58641 0.0
H837 H 0.61124 0.30483 0.72258 0.0
H838 H 0.57248 0.27303 0.74784 0.0
H839 H 0.58522 0.33179 0.73442 0.0
C840 C 0.87706 0.92494 0.65687 0.0
C841 C 0.85111 0.89301 0.67898 0.0
C842 C 0.88677 0.97401 0.65463 0.0
C843 C 0.87122 0.99478 0.67552 0.0
C844 C 0.84463 0.96274 0.69778 0.0
C845 C 0.8351 0.91329 0.69928 0.0
C846 C 0.91465 1.00414 0.62997 0.0
C847 C 0.82681 0.98119 0.72108 0.0
C848 C 0.92292 0.13465 0.68951 0.0
C849 C 0.90531 0.15157 0.66826 0.0
C850 C 0.91206 0.08498 0.6925 0.0
C851 C 0.88269 0.04912 0.67367 0.0
C852 C 0.86515 0.06616 0.65199 0.0
C853 C 0.87619 0.11575 0.64983 0.0
C854 C 0.93217 0.07075 0.71634 0.0
C855 C 0.83434 1.03163 0.63057 0.0
H856 H 0.89075 0.91148 0.64137 0.0
H857 H 0.81605 0.89097 0.71749 0.0
H858 H 0.90428 1.0221 0.61354 0.0
H859 H 0.93825 1.03208 0.6434 0.0
H860 H 0.92323 0.98321 0.61423 0.0
H861 H 0.80613 0.95277 0.73624 0.0
H862 H 0.847 1.00841 0.73805 0.0
H863 H 0.81436 0.99852 0.70674 0.0
H864 H 0.94512 0.16033 0.70444 0.0
H865 H 0.86164 0.12651 0.63321 0.0
H866 H 0.94443 0.05262 0.70253 0.0
H867 H 0.91356 1.04525 0.73447 0.0
H868 H 0.95339 0.10152 0.7302 0.0
H869 H 0.843 1.01146 0.61416 0.0
H870 H 0.82322 0.04938 0.61483 0.0
H871 H 0.81293 1.00569 0.64649 0.0
C872 C 0.13317 0.95679 0.69067 0.0
C873 C 0.11136 0.92006 0.71193 0.0
C874 C 0.17025 0.97552 0.69095 0.0
C875 C 0.1861 0.95717 0.71304 0.0
C876 C 0.16431 0.92028 0.7347 0.0
C877 C 0.12726 0.90225 0.73393 0.0
C878 C 0.19249 1.01512 0.66765 0.0
C879 C 0.18016 0.89972 0.75857 0.0
C880 C 0.27975 0.98161 0.69196 0.0
C881 C 0.30073 1.02143 0.7121 0.0
C882 C 0.24238 0.95951 0.69261 0.0
C883 C 0.22557 0.97756 0.71397 0.0
C884 C 0.24664 1.01676 0.73513 0.0
C885 C 0.28384 1.03811 0.73396 0.0
C886 C 0.22092 0.91799 0.6695 0.0
C887 C 0.22994 1.03736 0.75815 0.0
H888 H 0.12122 0.97121 0.67389 0.0
H889 H 0.11063 0.87348 0.75012 0.0
H890 H 0.21155 1.04686 0.68219 0.0
H891 H 0.20831 1.00464 0.65144 0.0
H892 H 0.17605 1.02492 0.65163 0.0
H893 H 0.15962 0.87095 0.77363 0.0
H894 H 0.19512 0.8855 0.7446 0.0
H895 H 0.19933 0.92782 0.77569 0.0
H896 H 0.29248 0.96872 0.67476 0.0
H897 H 0.29974 0.06881 0.74968 0.0
H898 H 0.20686 0.92792 0.65069 0.0
H899 H 0.2004 0.88794 0.68359 0.0
H900 H 0.23777 0.90601 0.65627 0.0
H901 H 0.21567 0.05174 0.7433 0.0
H902 H 0.24992 0.06619 0.77435 0.0
H903 H 0.21008 1.00941 0.77415 0.0
C904 C 0.2725 0.29273 0.73125 0.0
C905 C 0.2668 0.24744 0.72266 0.0
C906 C 0.24395 0.30153 0.73529 0.0
C907 C 0.20878 0.26398 0.73109 0.0
C908 C 0.20273 0.2178 0.7237 0.0
C909 C 0.23182 0.21012 0.71938 0.0
C910 C 0.25147 0.35132 0.74299 0.0
C911 C 0.16555 0.17682 0.71931 0.0
C912 C 0.13396 0.28355 0.76286 0.0
C913 C 0.12246 0.29507 0.73345 0.0
C914 C 0.16173 0.27255 0.76248 0.0
C915 C 0.17855 0.27381 0.73204 0.0
C916 C 0.16707 0.28564 0.70234 0.0
C917 C 0.13908 0.29594 0.7034 0.0
C918 C 0.17305 0.25957 0.79454 0.0
C919 C 0.18467 0.28803 0.66948 0.0
H920 H 0.29941 0.32155 0.73458 0.0
H921 H 0.22714 0.1751 0.71248 0.0
H922 H 0.24178 0.36437 0.72212 0.0
H923 H 0.23701 0.35192 0.76557 0.0
H924 H 0.28026 0.37611 0.74699 0.0
H925 H 0.16529 0.14249 0.71658 0.0
H926 H 0.14902 0.17495 0.74091 0.0
H927 H 0.1529 0.18212 0.69683 0.0
H928 H 0.12093 0.28259 0.78606 0.0
H929 H 0.13053 0.30551 0.68072 0.0
H930 H 0.2013 0.28515 0.80023 0.0
H931 H 0.17096 0.22417 0.79187 0.0
H932 H 0.15669 0.25914 0.81593 0.0
H933 H 0.21329 0.31466 0.67117 0.0
H934 H 0.17237 0.29751 0.64865 0.0
H935 H 0.18293 0.25345 0.66351 0.0
C936 C 0.20447 0.47884 0.2296 0.0
C937 C 0.18206 0.44285 0.25106 0.0
C938 C 0.19278 0.48279 0.19721 0.0
C939 C 0.15742 0.45111 0.18629 0.0
C940 C 0.13454 0.41569 0.20845 0.0
C941 C 0.14722 0.41157 0.24004 0.0
C942 C 0.21838 0.52069 0.17455 0.0
C943 C 0.09644 0.38182 0.19876 0.0
C944 C 0.11419 0.48255 0.11352 0.0
C945 C 0.11446 0.45351 0.08749 0.0
C946 C 0.1282 0.48253 0.14542 0.0
C947 C 0.1442 0.45392 0.15169 0.0
C948 C 0.14554 0.4256 0.12512 0.0
C949 C 0.13042 0.42532 0.09364 0.0
C950 C 0.12577 0.51352 0.17222 0.0
C951 C 0.16295 0.39539 0.13005 0.0
H952 H 0.23133 0.50333 0.23786 0.0
H953 H 0.12945 0.38404 0.25654 0.0
H954 H 0.22244 0.50414 0.15188 0.0
H955 H 0.20711 0.54332 0.16637 0.0
H956 H 0.24458 0.5434 0.18679 0.0
H957 H 0.08105 0.3594 0.21981 0.0
H958 H 0.08312 0.4016 0.18974 0.0
H959 H 0.09571 0.35843 0.17805 0.0
H960 H 0.10212 0.50463 0.10925 0.0
H961 H 0.13129 0.40308 0.07373 0.0
H962 H 0.15183 0.54613 0.17451 0.0
H963 H 0.11937 0.49551 0.19646 0.0
H964 H 0.10534 0.52398 0.16633 0.0
H965 H 0.19136 0.41818 0.13697 0.0
H966 H 0.16133 0.37457 0.10742 0.0
H967 H 0.15022 0.3706 0.15076 0.0
C968 C 0.62936 0.73452 0.24585 0.0
C969 C 0.66572 0.74845 0.24937 0.0
C970 C 0.61023 0.71337 0.21604 0.0
C971 C 0.62771 0.70644 0.18848 0.0
C972 C 0.66467 0.72201 0.19146 0.0
C973 C 0.683 0.74212 0.22178 0.0
C974 C 0.57101 0.69748 0.21424 0.0
C975 C 0.68493 0.71723 0.1625 0.0
C976 C 0.58104 0.60952 0.12175 0.0
C977 C 0.57775 0.63434 0.0947 0.0
C978 C 0.59501 0.63184 0.15284 0.0
C979 C 0.6073 0.68095 0.15714 0.0
C980 C 0.60196 0.70559 0.13056 0.0
C981 C 0.58691 0.68191 0.09993 0.0
C982 C 0.59831 0.60318 0.18062 0.0
C983 C 0.61453 0.75787 0.13308 0.0
H984 H 0.61544 0.73881 0.26683 0.0
H985 H 0.71104 0.75298 0.22384 0.0
H986 H 0.56503 0.71327 0.19244 0.0
H987 H 0.55581 0.65851 0.21076 0.0
H988 H 0.56153 0.70738 0.23701 0.0
H989 H 0.71389 0.73372 0.16786 0.0
H990 H 0.67474 0.67934 0.15623 0.0
H991 H 0.68082 0.73402 0.1402 0.0
H992 H 0.57432 0.57288 0.11804 0.0
H993 H 0.58483 0.70177 0.07936 0.0
H994 H 0.5884 0.61033 0.20423 0.0
H995 H 0.62668 0.61349 0.18463 0.0
H996 H 0.58333 0.56462 0.17504 0.0
H997 H 0.61532 0.77016 0.15907 0.0
H998 H 0.59714 0.76713 0.11803 0.0
H999 H 0.6418 0.77742 0.123 0.0
C1000 C 0.47707 0.0493 0.14921 0.0
C1001 C 0.46728 0.05032 0.11588 0.0
C1002 C 0.4513 1.03275 0.17497 0.0
C1003 C 0.4146 1.01569 0.16738 0.0
C1004 C 0.4047 1.01519 0.13365 0.0
C1005 C 0.43081 1.03274 0.10879 0.0
C1006 C 0.46346 1.03468 0.21048 0.0
C1007 C 0.36627 0.99681 0.12365 0.0
C1008 C 0.33896 0.94135 0.22864 0.0
C1009 C 0.32959 0.97457 0.24104 0.0
C1010 C 0.36679 0.95412 0.20531 0.0
C1011 C 0.38662 1.00158 0.19434 0.0
C1012 C 0.37752 1.03521 0.20717 0.0
C1013 C 0.34928 1.02138 0.22982 0.0
C1014 C 0.37476 0.91658 0.19211 0.0
C1015 C 0.39766 0.08624 0.19688 0.0
H1016 H 0.50489 0.06251 0.15531 0.0
H1017 H 0.42228 1.03253 0.08336 0.0
H1018 H 0.45758 0.05908 0.22531 0.0
H1019 H 0.44867 0.99929 0.22177 0.0
H1020 H 0.49239 1.04687 0.21243 0.0
H1021 H 0.36239 0.99495 0.09621 0.0
H1022 H 0.34949 0.96101 0.13379 0.0
H1023 H 0.35661 1.0202 0.13424 0.0
H1024 H 0.32457 0.90528 0.23719 0.0
H1025 H 0.34311 0.04796 0.23928 0.0
H1026 H 0.40291 0.9268 0.19747 0.0
H1027 H 0.37107 0.91338 0.16467 0.0
H1028 H 0.35744 0.8815 0.20314 0.0
H1029 H 0.42661 0.10037 0.20096 0.0
H1030 H 0.38931 0.10891 0.21084 0.0
H1031 H 0.39333 0.08888 0.16993 0.0
C1032 C 0.53885 0.16041 0.93129 0.0
C1033 C 0.55172 0.1281 0.93247 0.0
C1034 C 0.52324 0.16636 0.90203 0.0
C1035 C 0.5224 0.14157 0.87239 0.0
C1036 C 0.5394 0.11339 0.87262 0.0
C1037 C 0.55266 0.10574 0.90276 0.0
C1038 C 0.50418 0.19495 0.90423 0.0
C1039 C 0.54141 0.08829 0.84164 0.0
C1040 C 0.44575 0.09859 0.80902 0.0
C1041 C 0.45919 0.13363 0.78467 0.0
C1042 C 0.46539 0.10189 0.83806 0.0
C1043 C 0.50028 0.14031 0.84265 0.0
C1044 C 0.51394 0.17625 0.81838 0.0
C1045 C 0.49308 0.17289 0.78998 0.0
C1046 C 0.44882 0.06365 0.86368 0.0
C1047 C 0.55119 0.21717 0.82182 0.0
H1048 H 0.53766 0.1776 0.95406 0.0
H1049 H 0.56208 0.08021 0.9034 0.0
H1050 H 0.50726 0.21519 0.8813 0.0
H1051 H 0.47535 0.17045 0.90732 0.0
H1052 H 0.51373 0.21991 0.92587 0.0
H1053 H 0.56461 0.08213 0.84269 0.0
H1054 H 0.51706 0.05337 0.8394 0.0
H1055 H 0.54344 0.10888 0.81917 0.0
H1056 H 0.41963 0.06813 0.80527 0.0
H1057 H 0.50393 0.19996 0.77128 0.0
H1058 H 0.45236 0.07951 0.88899 0.0
H1059 H 0.46217 1.04179 0.86346 0.0
H1060 H 0.41998 1.04005 0.85884 0.0
H1061 H 0.55724 0.24394 0.80236 0.0
H1062 H 0.57045 0.20375 0.82017 0.0
H1063 H 0.55534 0.23477 0.84652 0.0
C1064 C 0.96559 0.40303 0.90709 0.0
C1065 C 1.00228 0.41903 0.90469 0.0
C1066 C 0.94229 0.38251 0.87937 0.0
C1067 C 0.9558 0.37823 0.84811 0.0
C1068 C 0.993 0.39602 0.84534 0.0
C1069 C 1.01554 0.41563 0.87351 0.0
C1070 C 0.903 0.364 0.88383 0.0
C1071 C 1.009 0.39293 0.81273 0.0
C1072 C 0.90284 0.28071 0.78361 0.0
C1073 C 0.8973 0.30535 0.75768 0.0
C1074 C 0.9195 0.30319 0.81392 0.0
C1075 C 0.93129 0.35202 0.81893 0.0
C1076 C 0.92277 0.37608 0.79412 0.0
C1077 C 0.90589 0.35251 0.76389 0.0
C1078 C 0.927 0.27531 0.83953 0.0
C1079 C 0.9339 0.42777 0.79805 0.0
H1080 H 0.95479 0.40484 0.93101 0.0
H1081 H 1.04372 0.42779 0.87115 0.0
H1082 H 0.89273 0.37882 0.86463 0.0
H1083 H 0.8886 0.32501 0.88043 0.0
H1084 H 0.89682 0.37278 0.90886 0.0
H1085 H 1.03851 0.41248 0.81365 0.0
H1086 H 1.00013 0.35535 0.80644 0.0
H1087 H 0.99975 0.40733 0.79236 0.0
H1088 H 0.89648 0.24433 0.77919 0.0
H1089 H 0.90195 0.37215 0.74423 0.0
H1090 H 0.91976 0.28177 0.86474 0.0
H1091 H 0.95587 0.28697 0.84004 0.0
H1092 H 0.91228 0.23672 0.83403 0.0
H1093 H 0.93481 0.43835 0.82453 0.0
H1094 H 0.91548 0.43646 0.78421 0.0
H1095 H 0.96087 0.44904 0.78766 0.0
C1096 C 0.80502 0.76528 0.79988 0.0
C1097 C 0.80939 0.72918 0.78457 0.0
C1098 C 0.7801 0.75553 0.82592 0.0
C1099 C 0.75894 0.70856 0.83758 0.0
C1100 C 0.76432 0.67249 0.82292 0.0
C1101 C 0.78887 0.68306 0.79676 0.0
C1102 C 0.77547 0.7954 0.84017 0.0
C1103 C 0.74349 0.62211 0.8344 0.0
C1104 C 0.71631 0.68612 0.9247 0.0
C1105 C 0.67998 0.6703 0.91791 0.0
C1106 C 0.74186 0.69892 0.8992 0.0
C1107 C 0.73169 0.69686 0.86529 0.0
C1108 C 0.69514 0.68134 0.85812 0.0
C1109 C 0.66989 0.66804 0.88423 0.0
C1110 C 0.77991 0.71404 0.90868 0.0
C1111 C 0.68261 0.67874 0.82265 0.0
H1112 H 0.81974 0.8008 0.79037 0.0
H1113 H 0.7914 0.65451 0.78511 0.0
H1114 H 0.74786 0.78821 0.83542 0.0
H1115 H 0.77964 0.79782 0.86754 0.0
H1116 H 0.79417 0.83 0.82926 0.0
H1117 H 0.75172 0.5984 0.82171 0.0
H1118 H 0.747 0.62057 0.86165 0.0
H1119 H 0.71474 0.60843 0.82945 0.0
H1120 H 0.72502 0.68808 0.9503 0.0
H1121 H 0.64225 0.65626 0.87822 0.0
H1122 H 0.7978 0.7498 0.89905 0.0
H1123 H 0.788 0.68952 0.89713 0.0
H1124 H 0.78395 0.71462 0.93605 0.0
H1125 H 0.69834 0.71351 0.81069 0.0
H1126 H 0.65399 0.66842 0.82097 0.0
H1127 H 0.68698 0.65266 0.80824 0.0
C1128 C 0.76466 0.84435 0.46529 0.0
C1129 C 0.74532 0.8021 0.44684 0.0
C1130 C 0.78445 0.84621 0.4943 0.0
C1131 C 0.78495 0.8049 0.50536 0.0
C1132 C 0.76445 0.76203 0.48734 0.0
C1133 C 0.74519 0.76124 0.45863 0.0
C1134 C 0.80567 0.8927 0.51262 0.0
C1135 C 0.76338 0.71678 0.49798 0.0
C1136 C 0.85772 0.80392 0.56149 0.0
C1137 C 0.84033 0.78993 0.59205 0.0
C1138 C 0.84092 0.81161 0.53351 0.0
C1139 C 0.80588 0.80529 0.53603 0.0
C1140 C 0.78917 0.79347 0.56742 0.0
C1141 C 0.80636 0.78566 0.59469 0.0
C1142 C 0.85996 0.82408 0.50075 0.0
C1143 C 0.75211 0.78632 0.57186 0.0
H1144 H 0.76563 0.87635 0.45626 0.0
H1145 H 0.73045 0.72829 0.44477 0.0
H1146 H 0.79845 0.88878 0.5393 0.0
H1147 H 0.83439 0.90376 0.51142 0.0
H1148 H 0.80138 0.92109 0.50204 0.0
H1149 H 0.74603 0.68627 0.4815 0.0
H1150 H 0.79058 0.72119 0.49784 0.0
H1151 H 0.75352 0.70834 0.5238 0.0
H1152 H 0.88372 0.80677 0.55901 0.0
H1153 H 0.79249 0.77443 0.61805 0.0
H1154 H 0.85878 0.85448 0.4896 0.0
H1155 H 0.84653 0.79372 0.48309 0.0
H1156 H 0.88823 0.833 0.50348 0.0
H1157 H 0.74991 0.81625 0.56122 0.0
H1158 H 0.74448 0.78288 0.59846 0.0
H1159 H 0.73278 0.75374 0.55828 0.0
C1160 C 0.27714 1.00519 0.45012 0.0
C1161 C 0.27366 0.96229 0.43755 0.0
C1162 C 0.29126 1.02283 0.48203 0.0
C1163 C 0.30138 0.99651 0.50302 0.0
C1164 C 0.29575 0.95161 0.49154 0.0
C1165 C 0.28239 0.93528 0.45885 0.0
C1166 C 0.2974 0.07127 0.49237 0.0
C1167 C 0.30513 0.9216 0.51334 0.0
C1168 C 0.37618 0.06688 0.56639 0.0
C1169 C 0.35757 0.06469 0.59543 0.0
C1170 C 0.35826 1.04491 0.53641 0.0
C1171 C 0.32059 1.01823 0.53548 0.0
C1172 C 0.30164 1.01522 0.565 0.0
C1173 C 0.32029 1.03909 0.59441 0.0
C1174 C 0.37976 0.05073 0.50556 0.0
C1175 C 0.26166 0.98613 0.56568 0.0
H1176 H 0.27042 1.02667 0.43432 0.0
H1177 H 0.28003 0.90229 0.44965 0.0
H1178 H 0.28467 0.06961 0.51657 0.0
H1179 H 0.32632 0.09564 0.49574 0.0
H1180 H 0.28688 0.08656 0.47372 0.0
H1181 H 0.29436 0.8851 0.50314 0.0
H1182 H 0.33445 0.93779 0.51549 0.0
H1183 H 0.29479 0.91984 0.53881 0.0
H1184 H 0.405 0.0862 0.56709 0.0
H1185 H 0.30575 1.0362 0.61698 0.0
H1186 H 0.37149 0.06692 0.48562 0.0
H1187 H 0.37475 1.0157 0.49613 0.0
H1188 H 0.40876 0.07323 0.5102 0.0
H1189 H 0.24963 1.00143 0.54876 0.0
H1190 H 0.25102 0.98436 0.59106 0.0
H1191 H 0.25311 0.94965 0.55656 0.0
C1192 C 0.98553 0.33728 0.54579 0.0
C1193 C 0.99452 0.33044 0.57825 0.0
C1194 C 1.01041 0.35119 0.51935 0.0
C1195 C 1.04537 0.35812 0.52492 0.0
C1196 C 0.05435 0.35082 0.55755 0.0
C1197 C 1.02925 0.33753 0.58346 0.0
C1198 C 0.99925 0.35864 0.48531 0.0
C1199 C 0.09063 0.35659 0.56518 0.0
C1200 C 0.0964 0.34434 0.45076 0.0
C1201 C 0.12138 0.39122 0.4427 0.0
C1202 C 0.07214 0.33345 0.47714 0.0
C1203 C 0.07182 0.37011 0.49651 0.0
C1204 C 0.09733 0.41765 0.48899 0.0
C1205 C 0.12179 0.42761 0.46249 0.0
C1206 C 1.04646 0.28225 0.48404 0.0
C1207 C 0.09821 0.45821 0.50851 0.0
H1208 H 0.95918 0.33253 0.5411 0.0
H1209 H 1.03703 0.33246 0.60812 0.0
H1210 H 1.01801 0.39474 0.47673 0.0
H1211 H 1.0003 0.3333 0.46718 0.0
H1212 H 0.97194 0.35397 0.48503 0.0
H1213 H 0.09394 0.35046 0.5918 0.0
H1214 H 0.09503 0.33135 0.54973 0.0
H1215 H 0.11155 0.39269 0.55877 0.0
H1216 H 0.09549 0.31557 0.43598 0.0
H1217 H 0.1403 0.46394 0.4565 0.0
H1218 H 1.01874 0.27543 0.48101 0.0
H1219 H 1.04973 0.2741 0.51015 0.0
H1220 H 1.0503 0.2577 0.46723 0.0
H1221 H 0.07222 0.45731 0.50596 0.0
H1222 H 0.11949 0.49303 0.50006 0.0
H1223 H 0.10248 0.45469 0.53535 0.0
loop_
_geom_bond_atom_site_label_1
_geom_bond_atom_site_label_2
_geom_bond_distance
_geom_bond_site_symmetry_2
_ccdc_geom_bond_type
Dy0 O3 2.307 1_456 S
Dy0 O5 2.394 1_556 S
Dy0 O6 2.379 . S
Dy0 O8 2.340 . S
Dy0 O10 2.298 . S
Dy0 O14 2.274 1_556 S
Dy0 C22 2.738 . S
Dy1 O4 2.298 . S
Dy1 O7 2.275 1_554 S
Dy1 O9 2.307 1_655 S
Dy1 O11 2.395 1_554 S
Dy1 O12 2.379 . S
Dy1 O15 2.333 1_655 S
Dy1 C31 2.738 . S
C2 O14 1.254 . S
C2 O15 1.273 . S
O3 Dy0 2.307 1_654 S
O3 C13 1.266 . S
O4 Dy1 2.298 . S
O4 C13 1.236 . S
O5 Dy0 2.394 1_554 S
O5 C22 1.242 1_554 S
O6 Dy0 2.379 . S
O6 C22 1.263 . S
O7 Dy1 2.275 1_556 S
O7 C23 1.254 . S
O8 Dy0 2.340 . S
O8 C23 1.257 1_455 S
O9 Dy1 2.307 1_455 S
O9 C24 1.266 . S
O10 Dy0 2.298 . S
O10 C24 1.236 1_556 S
O11 Dy1 2.395 1_556 S
O11 C31 1.255 1_556 S
O12 Dy1 2.379 . S
O12 C31 1.249 . S
C13 O3 1.266 . S
C13 O4 1.236 . S
O14 Dy0 2.274 1_554 S
O14 C2 1.254 . S
O15 Dy1 2.333 1_455 S
O15 C2 1.273 . S
C16 C19 1.339 1_556 S
C16 C20 1.333 . S
C16 C22 1.516 . S
C17 C18 1.304 . S
C17 C21 1.323 1_554 S
C18 C17 1.304 . S
C18 C19 1.371 . S
C18 H32 0.930 . S
C19 C16 1.339 1_554 S
C19 C18 1.371 . S
C19 H33 0.931 . S
C20 C16 1.333 . S
C20 C21 1.433 . S
C20 H34 0.931 . S
C21 C17 1.323 1_556 S
C21 C20 1.433 . S
C21 H35 0.933 . S
C22 Dy0 2.738 . S
C22 O5 1.242 1_556 S
C22 O6 1.263 . S
C22 C16 1.516 . S
C23 O7 1.254 . S
C23 O8 1.257 1_655 S
C24 O9 1.266 . S
C24 O10 1.236 1_554 S
C25 C28 1.344 1_554 S
C25 C29 1.328 . S
C25 C31 1.516 . S
C26 C27 1.304 1_554 S
C26 C30 1.323 . S
C27 C26 1.304 1_556 S
C27 C28 1.371 . S
C27 H36 0.930 . S
C28 C25 1.344 1_556 S
C28 C27 1.371 . S
C28 H37 0.931 . S
C29 C25 1.328 . S
C29 C30 1.433 . S
C29 H38 0.931 . S
C30 C26 1.323 . S
C30 C29 1.433 . S
C30 H39 0.933 . S
C31 Dy1 2.738 . S
C31 O11 1.255 1_554 S
C31 O12 1.249 . S
C31 C25 1.516 . S
H32 C18 0.930 . S
H33 C19 0.931 . S
H34 C20 0.931 . S
H35 C21 0.933 . S
H36 C27 0.930 . S
H37 C28 0.931 . S
H38 C29 0.931 . S
H39 C30 0.933 . S
Dy40 O43 2.307 . S
Dy40 O45 2.395 1_554 S
Dy40 O46 2.379 . S
Dy40 O48 2.339 . S
Dy40 O50 2.298 . S
Dy40 O54 2.275 1_554 S
Dy40 C62 2.738 . S
Dy41 O44 2.298 . S
Dy41 O47 2.275 1_556 S
Dy41 O49 2.307 . S
Dy41 O51 2.395 1_556 S
Dy41 O52 2.379 . S
Dy41 O55 2.339 . S
Dy41 C71 2.738 . S
C42 O54 1.254 . S
C42 O55 1.257 . S
O43 Dy40 2.307 . S
O43 C53 1.266 1_554 S
O44 Dy41 2.298 . S
O44 C53 1.236 . S
O45 Dy40 2.395 1_556 S
O45 C62 1.255 1_556 S
O46 Dy40 2.379 . S
O46 C62 1.249 . S
O47 Dy41 2.275 1_554 S
O47 C63 1.254 . S
O48 Dy40 2.339 . S
O48 C63 1.257 . S
O49 Dy41 2.307 . S
O49 C64 1.266 1_556 S
O50 Dy40 2.298 . S
O50 C64 1.236 . S
O51 Dy41 2.395 1_554 S
O51 C71 1.255 1_554 S
O52 Dy41 2.379 . S
O52 C71 1.249 . S
C53 O43 1.266 1_556 S
C53 O44 1.236 . S
O54 Dy40 2.275 1_556 S
O54 C42 1.254 . S
O55 Dy41 2.339 . S
O55 C42 1.257 . S
C56 C59 1.344 1_554 S
C56 C60 1.328 . S
C56 C62 1.516 . S
C57 C58 1.304 1_554 S
C57 C61 1.323 . S
C58 C57 1.304 1_556 S
C58 C59 1.371 . S
C58 H72 0.930 . S
C59 C56 1.344 1_556 S
C59 C58 1.371 . S
C59 H73 0.931 . S
C60 C56 1.328 . S
C60 C61 1.433 . S
C60 H74 0.931 . S
C61 C57 1.323 . S
C61 C60 1.433 . S
C61 H75 0.933 . S
C62 Dy40 2.738 . S
C62 O45 1.255 1_554 S
C62 O46 1.249 . S
C62 C56 1.516 . S
C63 O47 1.254 . S
C63 O48 1.257 . S
C64 O49 1.266 1_554 S
C64 O50 1.236 . S
C65 C68 1.344 1_556 S
C65 C69 1.328 . S
C65 C71 1.516 . S
C66 C67 1.304 1_556 S
C66 C70 1.323 . S
C67 C66 1.304 1_554 S
C67 C68 1.371 . S
C67 H76 0.930 . S
C68 C65 1.344 1_554 S
C68 C67 1.371 . S
C68 H77 0.931 . S
C69 C65 1.328 . S
C69 C70 1.433 . S
C69 H78 0.931 . S
C70 C66 1.323 . S
C70 C69 1.433 . S
C70 H79 0.933 . S
C71 Dy41 2.738 . S
C71 O51 1.255 1_556 S
C71 O52 1.249 . S
C71 C65 1.516 . S
H72 C58 0.930 . S
H73 C59 0.931 . S
H74 C60 0.931 . S
H75 C61 0.933 . S
H76 C67 0.930 . S
H77 C68 0.931 . S
H78 C69 0.931 . S
H79 C70 0.933 . S
Dy80 O83 2.307 1_566 S
Dy80 O85 2.395 1_556 S
Dy80 O86 2.379 . S
Dy80 O88 2.339 . S
Dy80 O90 2.298 . S
Dy80 O94 2.275 1_556 S
Dy80 C102 2.738 . S
Dy81 O84 2.298 . S
Dy81 O87 2.275 1_554 S
Dy81 O89 2.307 1_545 S
Dy81 O91 2.395 1_554 S
Dy81 O92 2.379 . S
Dy81 O95 2.339 . S
Dy81 C111 2.738 . S
C82 O94 1.254 . S
C82 O95 1.257 1_565 S
O83 Dy80 2.307 1_544 S
O83 C93 1.266 . S
O84 Dy81 2.298 . S
O84 C93 1.236 . S
O85 Dy80 2.395 1_554 S
O85 C102 1.255 1_554 S
O86 Dy80 2.379 . S
O86 C102 1.249 . S
O87 Dy81 2.275 1_556 S
O87 C103 1.254 . S
O88 Dy80 2.339 . S
O88 C103 1.257 1_565 S
O89 Dy81 2.307 1_565 S
O89 C104 1.266 . S
O90 Dy80 2.298 . S
O90 C104 1.236 1_556 S
O91 Dy81 2.395 1_556 S
O91 C111 1.255 1_556 S
O92 Dy81 2.379 . S
O92 C111 1.249 . S
C93 O83 1.266 . S
C93 O84 1.236 . S
O94 Dy80 2.275 1_554 S
O94 C82 1.254 . S
O95 Dy81 2.339 . S
O95 C82 1.257 1_545 S
C96 C99 1.323 1_556 S
C96 C100 1.348 . S
C96 C102 1.517 . S
C97 C98 1.304 . S
C97 C101 1.323 1_554 S
C98 C97 1.304 . S
C98 C99 1.371 . S
C98 H112 0.930 . S
C99 C96 1.323 1_554 S
C99 C98 1.371 . S
C99 H113 0.931 . S
C100 C96 1.348 . S
C100 C101 1.433 . S
C100 H114 0.931 . S
C101 C97 1.323 1_556 S
C101 C100 1.433 . S
C101 H115 0.933 . S
C102 Dy80 2.738 . S
C102 O85 1.255 1_556 S
C102 O86 1.249 . S
C102 C96 1.517 . S
C103 O87 1.254 . S
C103 O88 1.257 1_545 S
C104 O89 1.266 . S
C104 O90 1.236 1_554 S
C105 C108 1.344 1_554 S
C105 C109 1.328 . S
C105 C111 1.516 . S
C106 C107 1.304 1_554 S
C106 C110 1.323 . S
C107 C106 1.304 1_556 S
C107 C108 1.371 . S
C107 H116 0.930 . S
C108 C105 1.344 1_556 S
C108 C107 1.371 . S
C108 H117 0.931 . S
C109 C105 1.328 . S
C109 C110 1.433 . S
C109 H118 0.931 . S
C110 C106 1.323 . S
C110 C109 1.433 . S
C110 H119 0.933 . S
C111 Dy81 2.738 . S
C111 O91 1.255 1_554 S
C111 O92 1.249 . S
C111 C105 1.516 . S
H112 C98 0.930 . S
H113 C99 0.931 . S
H114 C100 0.931 . S
H115 C101 0.933 . S
H116 C107 0.930 . S
H117 C108 0.931 . S
H118 C109 0.931 . S
H119 C110 0.933 . S
Dy120 O123 2.307 . S
Dy120 O125 2.395 . S
Dy120 O126 2.379 . S
Dy120 O128 2.339 . S
Dy120 O130 2.298 . S
Dy120 O134 2.275 . S
Dy120 C142 2.738 . S
Dy121 O124 2.298 . S
Dy121 O127 2.275 . S
Dy121 O129 2.307 . S
Dy121 O131 2.395 . S
Dy121 O132 2.379 . S
Dy121 O135 2.339 . S
Dy121 C151 2.738 . S
C122 O134 1.254 . S
C122 O135 1.257 . S
O123 Dy120 2.307 . S
O123 C133 1.266 . S
O124 Dy121 2.298 . S
O124 C133 1.236 . S
O125 Dy120 2.395 . S
O125 C142 1.255 . S
O126 Dy120 2.379 . S
O126 C142 1.249 . S
O127 Dy121 2.275 . S
O127 C143 1.254 . S
O128 Dy120 2.339 . S
O128 C143 1.257 . S
O129 Dy121 2.307 . S
O129 C144 1.266 . S
O130 Dy120 2.298 . S
O130 C144 1.236 . S
O131 Dy121 2.395 . S
O131 C151 1.255 . S
O132 Dy121 2.379 . S
O132 C151 1.249 . S
C133 O123 1.266 . S
C133 O124 1.236 . S
O134 Dy120 2.275 . S
O134 C122 1.254 . S
O135 Dy121 2.339 . S
O135 C122 1.257 . S
C136 C139 1.344 . S
C136 C140 1.328 . S
C136 C142 1.516 . S
C137 C138 1.304 . S
C137 C141 1.323 . S
C138 C137 1.304 . S
C138 C139 1.371 . S
C138 H152 0.930 . S
C139 C136 1.344 . S
C139 C138 1.371 . S
C139 H153 0.931 . S
C140 C136 1.328 . S
C140 C141 1.433 . S
C140 H154 0.931 . S
C141 C137 1.323 . S
C141 C140 1.433 . S
C141 H155 0.933 . S
C142 Dy120 2.738 . S
C142 O125 1.255 . S
C142 O126 1.249 . S
C142 C136 1.516 . S
C143 O127 1.254 . S
C143 O128 1.257 . S
C144 O129 1.266 . S
C144 O130 1.236 . S
C145 C148 1.344 . S
C145 C149 1.328 . S
C145 C151 1.516 . S
C146 C147 1.304 . S
C146 C150 1.323 . S
C147 C146 1.304 . S
C147 C148 1.371 . S
C147 H156 0.930 . S
C148 C145 1.344 . S
C148 C147 1.371 . S
C148 H157 0.931 . S
C149 C145 1.328 . S
C149 C150 1.433 . S
C149 H158 0.931 . S
C150 C146 1.323 . S
C150 C149 1.433 . S
C150 H159 0.933 . S
C151 Dy121 2.738 . S
C151 O131 1.255 . S
C151 O132 1.249 . S
C151 C145 1.516 . S
H152 C138 0.930 . S
H153 C139 0.931 . S
H154 C140 0.931 . S
H155 C141 0.933 . S
H156 C147 0.930 . S
H157 C148 0.931 . S
H158 C149 0.931 . S
H159 C150 0.933 . S
Dy160 O163 2.307 . S
Dy160 O165 2.395 . S
Dy160 O166 2.379 1_565 S
Dy160 O168 2.339 . S
Dy160 O170 2.298 . S
Dy160 O174 2.275 . S
Dy160 C182 2.738 1_565 S
Dy161 O164 2.298 . S
Dy161 O167 2.275 . S
Dy161 O169 2.307 . S
Dy161 O171 2.395 . S
Dy161 O172 2.379 . S
Dy161 O175 2.339 . S
Dy161 C191 2.738 . S
C162 O174 1.254 . S
C162 O175 1.257 . S
O163 Dy160 2.307 . S
O163 C173 1.266 . S
O164 Dy161 2.298 . S
O164 C173 1.236 . S
O165 Dy160 2.395 . S
O165 C182 1.255 1_565 S
O166 Dy160 2.379 1_545 S
O166 C182 1.249 . S
O167 Dy161 2.275 . S
O167 C183 1.254 . S
O168 Dy160 2.339 . S
O168 C183 1.257 . S
O169 Dy161 2.307 . S
O169 C184 1.266 . S
O170 Dy160 2.298 . S
O170 C184 1.236 . S
O171 Dy161 2.395 . S
O171 C191 1.255 . S
O172 Dy161 2.379 . S
O172 C191 1.249 . S
C173 O163 1.266 . S
C173 O164 1.236 . S
O174 Dy160 2.275 . S
O174 C162 1.254 . S
O175 Dy161 2.339 . S
O175 C162 1.257 . S
C176 C179 1.344 . S
C176 C180 1.328 . S
C176 C182 1.516 . S
C177 C178 1.304 . S
C177 C181 1.323 . S
C178 C177 1.304 . S
C178 C179 1.371 . S
C178 H192 0.930 . S
C179 C176 1.344 . S
C179 C178 1.371 . S
C179 H193 0.931 . S
C180 C176 1.328 . S
C180 C181 1.433 . S
C180 H194 0.931 . S
C181 C177 1.323 . S
C181 C180 1.433 . S
C181 H195 0.933 . S
C182 Dy160 2.738 1_545 S
C182 O165 1.255 1_545 S
C182 O166 1.249 . S
C182 C176 1.516 . S
C183 O167 1.254 . S
C183 O168 1.257 . S
C184 O169 1.266 . S
C184 O170 1.236 . S
C185 C188 1.344 . S
C185 C189 1.328 . S
C185 C191 1.516 . S
C186 C187 1.304 . S
C186 C190 1.323 . S
C187 C186 1.304 . S
C187 C188 1.371 . S
C187 H196 0.930 . S
C188 C185 1.344 . S
C188 C187 1.371 . S
C188 H197 0.931 . S
C189 C185 1.328 . S
C189 C190 1.433 . S
C189 H198 0.931 . S
C190 C186 1.323 . S
C190 C189 1.433 . S
C190 H199 0.933 . S
C191 Dy161 2.738 . S
C191 O171 1.255 . S
C191 O172 1.249 . S
C191 C185 1.516 . S
H192 C178 0.930 . S
H193 C179 0.931 . S
H194 C180 0.931 . S
H195 C181 0.933 . S
H196 C187 0.930 . S
H197 C188 0.931 . S
H198 C189 0.931 . S
H199 C190 0.933 . S
Dy200 O203 2.307 . S
Dy200 O205 2.395 . S
Dy200 O206 2.379 . S
Dy200 O208 2.339 . S
Dy200 O210 2.298 . S
Dy200 O214 2.275 . S
Dy200 C222 2.738 . S
Dy201 O204 2.298 . S
Dy201 O207 2.275 . S
Dy201 O209 2.307 . S
Dy201 O211 2.395 . S
Dy201 O212 2.379 . S
Dy201 O215 2.339 . S
Dy201 C231 2.738 . S
C202 O214 1.254 . S
C202 O215 1.257 . S
O203 Dy200 2.307 . S
O203 C213 1.266 . S
O204 Dy201 2.298 . S
O204 C213 1.236 . S
O205 Dy200 2.395 . S
O205 C222 1.255 . S
O206 Dy200 2.379 . S
O206 C222 1.249 . S
O207 Dy201 2.275 . S
O207 C223 1.254 . S
O208 Dy200 2.339 . S
O208 C223 1.257 . S
O209 Dy201 2.307 . S
O209 C224 1.266 . S
O210 Dy200 2.298 . S
O210 C224 1.236 . S
O211 Dy201 2.395 . S
O211 C231 1.255 . S
O212 Dy201 2.379 . S
O212 C231 1.249 . S
C213 O203 1.266 . S
C213 O204 1.236 . S
O214 Dy200 2.275 . S
O214 C202 1.254 . S
O215 Dy201 2.339 . S
O215 C202 1.257 . S
C216 C219 1.344 . S
C216 C220 1.328 . S
C216 C222 1.516 1_655 S
C217 C218 1.304 . S
C217 C221 1.323 . S
C218 C217 1.304 . S
C218 C219 1.371 . S
C218 H232 0.930 . S
C219 C216 1.344 . S
C219 C218 1.371 . S
C219 H233 0.931 . S
C220 C216 1.328 . S
C220 C221 1.433 . S
C220 H234 0.931 . S
C221 C217 1.323 . S
C221 C220 1.433 . S
C221 H235 0.933 . S
C222 Dy200 2.738 . S
C222 O205 1.255 . S
C222 O206 1.249 . S
C222 C216 1.516 1_455 S
C223 O207 1.254 . S
C223 O208 1.257 . S
C224 O209 1.266 . S
C224 O210 1.236 . S
C225 C228 1.344 . S
C225 C229 1.328 . S
C225 C231 1.516 . S
C226 C227 1.304 . S
C226 C230 1.323 . S
C227 C226 1.304 . S
C227 C228 1.371 . S
C227 H236 0.930 . S
C228 C225 1.344 . S
C228 C227 1.371 . S
C228 H237 0.931 . S
C229 C225 1.328 . S
C229 C230 1.433 . S
C229 H238 0.931 . S
C230 C226 1.323 . S
C230 C229 1.433 . S
C230 H239 0.933 . S
C231 Dy201 2.738 . S
C231 O211 1.255 . S
C231 O212 1.249 . S
C231 C225 1.516 . S
H232 C218 0.930 . S
H233 C219 0.931 . S
H234 C220 0.931 . S
H235 C221 0.933 . S
H236 C227 0.930 . S
H237 C228 0.931 . S
H238 C229 0.931 . S
H239 C230 0.933 . S
Dy240 O243 2.307 . S
Dy240 O245 2.395 . S
Dy240 O246 2.379 . S
Dy240 O248 2.339 . S
Dy240 O250 2.298 . S
Dy240 O254 2.275 . S
Dy240 C262 2.738 . S
Dy241 O244 2.298 . S
Dy241 O247 2.275 . S
Dy241 O249 2.307 . S
Dy241 O251 2.395 . S
Dy241 O252 2.379 . S
Dy241 O255 2.339 . S
Dy241 C271 2.738 . S
C242 O254 1.254 . S
C242 O255 1.257 . S
O243 Dy240 2.307 . S
O243 C253 1.266 . S
O244 Dy241 2.298 . S
O244 C253 1.236 . S
O245 Dy240 2.395 . S
O245 C262 1.255 . S
O246 Dy240 2.379 . S
O246 C262 1.249 . S
O247 Dy241 2.275 . S
O247 C263 1.254 . S
O248 Dy240 2.339 . S
O248 C263 1.257 . S
O249 Dy241 2.307 . S
O249 C264 1.266 . S
O250 Dy240 2.298 . S
O250 C264 1.236 . S
O251 Dy241 2.395 . S
O251 C271 1.255 . S
O252 Dy241 2.379 . S
O252 C271 1.249 . S
C253 O243 1.266 . S
C253 O244 1.236 . S
O254 Dy240 2.275 . S
O254 C242 1.254 . S
O255 Dy241 2.339 . S
O255 C242 1.257 . S
C256 C259 1.344 . S
C256 C260 1.328 . S
C256 C262 1.516 . S
C257 C258 1.304 . S
C257 C261 1.323 . S
C258 C257 1.304 . S
C258 C259 1.371 . S
C258 H272 0.930 . S
C259 C256 1.344 . S
C259 C258 1.371 . S
C259 H273 0.931 . S
C260 C256 1.328 . S
C260 C261 1.433 . S
C260 H274 0.931 . S
C261 C257 1.323 . S
C261 C260 1.433 . S
C261 H275 0.933 . S
C262 Dy240 2.738 . S
C262 O245 1.255 . S
C262 O246 1.249 . S
C262 C256 1.516 . S
C263 O247 1.254 . S
C263 O248 1.257 . S
C264 O249 1.266 . S
C264 O250 1.236 . S
C265 C268 1.344 . S
C265 C269 1.328 . S
C265 C271 1.516 . S
C266 C267 1.304 . S
C266 C270 1.323 . S
C267 C266 1.304 . S
C267 C268 1.371 . S
C267 H276 0.930 . S
C268 C265 1.344 . S
C268 C267 1.371 . S
C268 H277 0.931 . S
C269 C265 1.328 . S
C269 C270 1.433 . S
C269 H278 0.931 . S
C270 C266 1.323 . S
C270 C269 1.433 . S
C270 H279 0.933 . S
C271 Dy241 2.738 . S
C271 O251 1.255 . S
C271 O252 1.249 . S
C271 C265 1.516 . S
H272 C258 0.930 . S
H273 C259 0.931 . S
H274 C260 0.931 . S
H275 C261 0.933 . S
H276 C267 0.930 . S
H277 C268 0.931 . S
H278 C269 0.931 . S
H279 C270 0.933 . S
Dy280 O283 2.307 . S
Dy280 O285 2.395 . S
Dy280 O286 2.379 . S
Dy280 O288 2.339 . S
Dy280 O290 2.298 . S
Dy280 O294 2.275 . S
Dy280 C302 2.738 . S
Dy281 O284 2.298 . S
Dy281 O287 2.275 . S
Dy281 O289 2.307 . S
Dy281 O291 2.395 . S
Dy281 O292 2.379 . S
Dy281 O295 2.339 . S
Dy281 C311 2.738 . S
C282 O294 1.254 . S
C282 O295 1.257 . S
O283 Dy280 2.307 . S
O283 C293 1.266 . S
O284 Dy281 2.298 . S
O284 C293 1.236 . S
O285 Dy280 2.395 . S
O285 C302 1.255 . S
O286 Dy280 2.379 . S
O286 C302 1.249 . S
O287 Dy281 2.275 . S
O287 C303 1.254 . S
O288 Dy280 2.339 . S
O288 C303 1.257 . S
O289 Dy281 2.307 . S
O289 C304 1.266 . S
O290 Dy280 2.298 . S
O290 C304 1.236 . S
O291 Dy281 2.395 . S
O291 C311 1.255 . S
O292 Dy281 2.379 . S
O292 C311 1.249 . S
C293 O283 1.266 . S
C293 O284 1.236 . S
O294 Dy280 2.275 . S
O294 C282 1.254 . S
O295 Dy281 2.339 . S
O295 C282 1.257 . S
C296 C299 1.344 . S
C296 C300 1.328 . S
C296 C302 1.516 1_455 S
C297 C298 1.304 . S
C297 C301 1.323 . S
C298 C297 1.304 . S
C298 C299 1.371 . S
C298 H312 0.930 . S
C299 C296 1.344 . S
C299 C298 1.371 . S
C299 H313 0.931 . S
C300 C296 1.328 . S
C300 C301 1.433 . S
C300 H314 0.931 . S
C301 C297 1.323 . S
C301 C300 1.433 . S
C301 H315 0.933 . S
C302 Dy280 2.738 . S
C302 O285 1.255 . S
C302 O286 1.249 . S
C302 C296 1.516 1_655 S
C303 O287 1.254 . S
C303 O288 1.257 . S
C304 O289 1.266 . S
C304 O290 1.236 . S
C305 C308 1.344 . S
C305 C309 1.328 . S
C305 C311 1.516 . S
C306 C307 1.304 . S
C306 C310 1.323 . S
C307 C306 1.304 . S
C307 C308 1.371 . S
C307 H316 0.930 . S
C308 C305 1.344 . S
C308 C307 1.371 . S
C308 H317 0.931 . S
C309 C305 1.328 . S
C309 C310 1.433 . S
C309 H318 0.931 . S
C310 C306 1.323 . S
C310 C309 1.433 . S
C310 H319 0.933 . S
C311 Dy281 2.738 . S
C311 O291 1.255 . S
C311 O292 1.249 . S
C311 C305 1.516 . S
H312 C298 0.930 . S
H313 C299 0.931 . S
H314 C300 0.931 . S
H315 C301 0.933 . S
H316 C307 0.930 . S
H317 C308 0.931 . S
H318 C309 0.931 . S
H319 C310 0.933 . S
Dy320 O323 2.307 . S
Dy320 O325 2.395 . S
Dy320 O326 2.379 . S
Dy320 O328 2.339 . S
Dy320 O330 2.298 . S
Dy320 O334 2.275 . S
Dy320 C342 2.738 . S
Dy321 O324 2.298 . S
Dy321 O327 2.275 . S
Dy321 O329 2.307 . S
Dy321 O331 2.395 . S
Dy321 O332 2.379 . S
Dy321 O335 2.339 . S
Dy321 C351 2.738 . S
C322 O334 1.254 . S
C322 O335 1.257 . S
O323 Dy320 2.307 . S
O323 C333 1.266 . S
O324 Dy321 2.298 . S
O324 C333 1.236 . S
O325 Dy320 2.395 . S
O325 C342 1.255 . S
O326 Dy320 2.379 . S
O326 C342 1.249 . S
O327 Dy321 2.275 . S
O327 C343 1.254 . S
O328 Dy320 2.339 . S
O328 C343 1.257 . S
O329 Dy321 2.307 . S
O329 C344 1.266 . S
O330 Dy320 2.298 . S
O330 C344 1.236 . S
O331 Dy321 2.395 . S
O331 C351 1.255 . S
O332 Dy321 2.379 . S
O332 C351 1.249 . S
C333 O323 1.266 . S
C333 O324 1.236 . S
O334 Dy320 2.275 . S
O334 C322 1.254 . S
O335 Dy321 2.339 . S
O335 C322 1.257 . S
C336 C339 1.344 . S
C336 C340 1.328 . S
C336 C342 1.516 . S
C337 C338 1.304 . S
C337 C341 1.323 . S
C338 C337 1.304 . S
C338 C339 1.371 . S
C338 H352 0.930 . S
C339 C336 1.344 . S
C339 C338 1.371 . S
C339 H353 0.931 . S
C340 C336 1.328 . S
C340 C341 1.433 . S
C340 H354 0.931 . S
C341 C337 1.323 . S
C341 C340 1.433 . S
C341 H355 0.933 . S
C342 Dy320 2.738 . S
C342 O325 1.255 . S
C342 O326 1.249 . S
C342 C336 1.516 . S
C343 O327 1.254 . S
C343 O328 1.257 . S
C344 O329 1.266 . S
C344 O330 1.236 . S
C345 C348 1.344 . S
C345 C349 1.328 . S
C345 C351 1.516 . S
C346 C347 1.304 1_455 S
C346 C350 1.323 1_455 S
C347 C346 1.304 1_655 S
C347 C348 1.371 . S
C347 H356 0.930 . S
C348 C345 1.344 . S
C348 C347 1.371 . S
C348 H357 0.931 . S
C349 C345 1.328 . S
C349 C350 1.433 . S
C349 H358 0.931 . S
C350 C346 1.323 1_655 S
C350 C349 1.433 . S
C350 H359 0.933 1_655 S
C351 Dy321 2.738 . S
C351 O331 1.255 . S
C351 O332 1.249 . S
C351 C345 1.516 . S
H352 C338 0.930 . S
H353 C339 0.931 . S
H354 C340 0.931 . S
H355 C341 0.933 . S
H356 C347 0.930 . S
H357 C348 0.931 . S
H358 C349 0.931 . S
H359 C350 0.933 1_455 S
C360 C361 1.391 1_554 S
C360 C362 1.394 . S
C360 H376 0.931 . S
C361 C360 1.391 1_556 S
C361 C365 1.376 . S
C362 C360 1.394 . S
C362 C363 1.369 1_554 S
C362 C366 1.531 . S
C363 C362 1.369 1_556 S
C363 C364 1.410 . S
C363 C371 1.503 . S
C364 C363 1.410 . S
C364 C365 1.392 . S
C364 C367 1.511 . S
C365 C361 1.376 . S
C365 C364 1.392 . S
C365 H377 0.929 . S
C366 C362 1.531 . S
C366 H378 0.960 . S
C366 H379 0.962 . S
C366 H380 0.960 . S
C367 C364 1.511 . S
C367 H381 0.961 . S
C367 H382 0.961 . S
C367 H383 0.961 . S
C368 C369 1.366 1_556 S
C368 C370 1.363 . S
C368 H384 0.931 . S
C369 C368 1.366 1_554 S
C369 C373 1.412 . S
C370 C368 1.363 . S
C370 C371 1.370 . S
C370 C374 1.524 . S
C371 C363 1.503 . S
C371 C370 1.370 . S
C371 C372 1.403 1_556 S
C372 C371 1.403 1_554 S
C372 C373 1.404 . S
C372 C375 1.539 . S
C373 C369 1.412 . S
C373 C372 1.404 . S
C373 H385 0.930 . S
C374 C370 1.524 . S
C374 H386 0.956 . S
C374 H387 0.961 . S
C374 H388 0.961 . S
C375 C372 1.539 . S
C375 H389 0.958 . S
C375 H390 0.961 . S
C375 H391 0.960 . S
H376 C360 0.931 . S
H377 C365 0.929 . S
H378 C366 0.960 . S
H379 C366 0.962 . S
H380 C366 0.960 . S
H381 C367 0.961 . S
H382 C367 0.961 . S
H383 C367 0.961 . S
H384 C368 0.931 . S
H385 C373 0.930 . S
H386 C374 0.956 . S
H387 C374 0.961 . S
H388 C374 0.961 . S
H389 C375 0.958 . S
H390 C375 0.961 . S
H391 C375 0.960 . S
C392 C393 1.391 . S
C392 C394 1.394 . S
C392 H408 0.931 . S
C393 C392 1.391 . S
C393 C397 1.376 1_554 S
C394 C392 1.394 . S
C394 C395 1.369 . S
C394 C398 1.531 . S
C395 C394 1.369 . S
C395 C396 1.410 1_554 S
C395 C403 1.503 . S
C396 C395 1.410 1_556 S
C396 C397 1.392 . S
C396 C399 1.511 . S
C397 C393 1.376 1_556 S
C397 C396 1.392 . S
C397 H409 0.929 . S
C398 C394 1.531 . S
C398 H410 0.960 . S
C398 H411 0.962 . S
C398 H412 0.960 . S
C399 C396 1.511 . S
C399 H413 0.961 . S
C399 H414 0.961 . S
C399 H415 0.961 . S
C400 C401 1.375 . S
C400 C402 1.363 . S
C400 H416 0.931 . S
C401 C400 1.375 . S
C401 C405 1.403 1_556 S
C402 C400 1.363 . S
C402 C403 1.370 1_556 S
C402 C406 1.524 . S
C403 C395 1.503 . S
C403 C402 1.370 1_554 S
C403 C404 1.403 . S
C404 C403 1.403 . S
C404 C405 1.404 . S
C404 C407 1.539 . S
C405 C401 1.403 1_554 S
C405 C404 1.404 . S
C405 H417 0.930 . S
C406 C402 1.524 . S
C406 H418 0.956 . S
C406 H419 0.961 . S
C406 H420 0.961 . S
C407 C404 1.539 . S
C407 H421 0.958 . S
C407 H422 0.961 . S
C407 H423 0.960 . S
H408 C392 0.931 . S
H409 C397 0.929 . S
H410 C398 0.960 . S
H411 C398 0.962 . S
H412 C398 0.960 . S
H413 C399 0.961 . S
H414 C399 0.961 . S
H415 C399 0.961 . S
H416 C400 0.931 . S
H417 C405 0.930 . S
H418 C406 0.956 . S
H419 C406 0.961 . S
H420 C406 0.961 . S
H421 C407 0.958 . S
H422 C407 0.961 . S
H423 C407 0.960 . S
C424 C425 1.387 1_556 S
C424 C426 1.394 . S
C424 H440 0.931 . S
C425 C424 1.387 1_554 S
C425 C429 1.381 . S
C426 C424 1.394 . S
C426 C427 1.369 1_556 S
C426 C430 1.531 . S
C427 C426 1.369 1_554 S
C427 C428 1.410 . S
C427 C435 1.503 . S
C428 C427 1.410 . S
C428 C429 1.392 . S
C428 C431 1.511 . S
C429 C425 1.381 . S
C429 C428 1.392 . S
C429 H441 0.929 . S
C430 C426 1.531 . S
C430 H442 0.960 . S
C430 H443 0.962 . S
C430 H444 0.960 . S
C431 C428 1.511 . S
C431 H445 0.961 . S
C431 H446 0.961 . S
C431 H447 0.961 . S
C432 C433 1.370 . S
C432 C434 1.363 . S
C432 H448 0.931 . S
C433 C432 1.370 . S
C433 C437 1.408 . S
C434 C432 1.363 . S
C434 C435 1.370 . S
C434 C438 1.525 . S
C435 C427 1.503 . S
C435 C434 1.370 . S
C435 C436 1.403 . S
C436 C435 1.403 . S
C436 C437 1.404 . S
C436 C439 1.539 . S
C437 C433 1.408 . S
C437 C436 1.404 . S
C437 H449 0.930 . S
C438 C434 1.525 . S
C438 H450 0.946 1_554 S
C438 H451 0.969 . S
C438 H452 0.962 . S
C439 C436 1.539 . S
C439 H453 0.958 1_554 S
C439 H454 0.961 . S
C439 H455 0.960 . S
H440 C424 0.931 . S
H441 C429 0.929 . S
H442 C430 0.960 . S
H443 C430 0.962 . S
H444 C430 0.960 . S
H445 C431 0.961 . S
H446 C431 0.961 . S
H447 C431 0.961 . S
H448 C432 0.931 . S
H449 C437 0.930 . S
H450 C438 0.946 1_556 S
H451 C438 0.969 . S
H452 C438 0.962 . S
H453 C439 0.958 1_556 S
H454 C439 0.961 . S
H455 C439 0.960 . S
C456 C457 1.391 1_556 S
C456 C458 1.394 . S
C456 H472 0.931 . S
C457 C456 1.391 1_554 S
C457 C461 1.376 . S
C458 C456 1.394 . S
C458 C459 1.369 1_556 S
C458 C462 1.531 . S
C459 C458 1.369 1_554 S
C459 C460 1.410 . S
C459 C467 1.503 . S
C460 C459 1.410 . S
C460 C461 1.392 . S
C460 C463 1.511 . S
C461 C457 1.376 . S
C461 C460 1.392 . S
C461 H473 0.929 . S
C462 C458 1.531 . S
C462 H474 0.960 . S
C462 H475 0.962 . S
C462 H476 0.960 . S
C463 C460 1.511 . S
C463 H477 0.961 . S
C463 H478 0.961 . S
C463 H479 0.961 . S
C464 C465 1.370 . S
C464 C466 1.363 . S
C464 H480 0.931 . S
C465 C464 1.370 . S
C465 C469 1.408 1_554 S
C466 C464 1.363 . S
C466 C467 1.370 . S
C466 C470 1.524 . S
C467 C459 1.503 . S
C467 C466 1.370 . S
C467 C468 1.403 1_554 S
C468 C467 1.403 1_556 S
C468 C469 1.404 . S
C468 C471 1.539 . S
C469 C465 1.408 1_556 S
C469 C468 1.404 . S
C469 H481 0.930 . S
C470 C466 1.524 . S
C470 H482 0.956 . S
C470 H483 0.961 . S
C470 H484 0.961 . S
C471 C468 1.539 . S
C471 H485 0.958 . S
C471 H486 0.961 . S
C471 H487 0.960 . S
H472 C456 0.931 . S
H473 C461 0.929 . S
H474 C462 0.960 . S
H475 C462 0.962 . S
H476 C462 0.960 . S
H477 C463 0.961 . S
H478 C463 0.961 . S
H479 C463 0.961 . S
H480 C464 0.931 . S
H481 C469 0.930 . S
H482 C470 0.956 . S
H483 C470 0.961 . S
H484 C470 0.961 . S
H485 C471 0.958 . S
H486 C471 0.961 . S
H487 C471 0.960 . S
C488 C489 1.391 1_556 S
C488 C490 1.394 . S
C488 H504 0.931 . S
C489 C488 1.391 1_554 S
C489 C493 1.376 . S
C490 C488 1.394 . S
C490 C491 1.369 1_556 S
C490 C494 1.531 . S
C491 C490 1.369 1_554 S
C491 C492 1.410 . S
C491 C499 1.503 . S
C492 C491 1.410 . S
C492 C493 1.392 . S
C492 C495 1.511 . S
C493 C489 1.376 . S
C493 C492 1.392 . S
C493 H505 0.929 . S
C494 C490 1.531 . S
C494 H506 0.960 . S
C494 H507 0.962 . S
C494 H508 0.960 . S
C495 C492 1.511 . S
C495 H509 0.961 . S
C495 H510 0.961 . S
C495 H511 0.961 . S
C496 C497 1.370 . S
C496 C498 1.363 . S
C496 H512 0.931 . S
C497 C496 1.370 . S
C497 C501 1.408 1_554 S
C498 C496 1.363 . S
C498 C499 1.370 . S
C498 C502 1.524 . S
C499 C491 1.503 . S
C499 C498 1.370 . S
C499 C500 1.403 1_554 S
C500 C499 1.403 1_556 S
C500 C501 1.404 . S
C500 C503 1.539 . S
C501 C497 1.408 1_556 S
C501 C500 1.404 . S
C501 H513 0.930 . S
C502 C498 1.524 . S
C502 H514 0.956 . S
C502 H515 0.961 . S
C502 H516 0.961 . S
C503 C500 1.539 . S
C503 H517 0.958 . S
C503 H518 0.961 . S
C503 H519 0.960 . S
H504 C488 0.931 . S
H505 C493 0.929 . S
H506 C494 0.960 . S
H507 C494 0.962 . S
H508 C494 0.960 . S
H509 C495 0.961 . S
H510 C495 0.961 . S
H511 C495 0.961 . S
H512 C496 0.931 . S
H513 C501 0.930 . S
H514 C502 0.956 . S
H515 C502 0.961 . S
H516 C502 0.961 . S
H517 C503 0.958 . S
H518 C503 0.961 . S
H519 C503 0.960 . S
C520 C521 1.391 . S
C520 C522 1.394 . S
C520 H536 0.931 . S
C521 C520 1.391 . S
C521 C525 1.376 . S
C522 C520 1.394 . S
C522 C523 1.369 . S
C522 C526 1.531 . S
C523 C522 1.369 . S
C523 C524 1.410 . S
C523 C531 1.503 . S
C524 C523 1.410 . S
C524 C525 1.392 . S
C524 C527 1.511 . S
C525 C521 1.376 . S
C525 C524 1.392 . S
C525 H537 0.929 . S
C526 C522 1.531 . S
C526 H538 0.960 . S
C526 H539 0.962 1_554 S
C526 H540 0.960 . S
C527 C524 1.511 . S
C527 H541 0.961 . S
C527 H542 0.961 . S
C527 H543 0.961 . S
C528 C529 1.370 1_556 S
C528 C530 1.363 . S
C528 H544 0.931 . S
C529 C528 1.370 1_554 S
C529 C533 1.408 . S
C530 C528 1.363 . S
C530 C531 1.370 1_556 S
C530 C534 1.524 . S
C531 C523 1.503 . S
C531 C530 1.370 1_554 S
C531 C532 1.403 . S
C532 C531 1.403 . S
C532 C533 1.404 . S
C532 C535 1.539 . S
C533 C529 1.408 . S
C533 C532 1.404 . S
C533 H545 0.930 . S
C534 C530 1.524 . S
C534 H546 0.956 . S
C534 H547 0.961 . S
C534 H548 0.961 . S
C535 C532 1.539 . S
C535 H549 0.958 . S
C535 H550 0.961 . S
C535 H551 0.960 . S
H536 C520 0.931 . S
H537 C525 0.929 . S
H538 C526 0.960 . S
H539 C526 0.962 1_556 S
H540 C526 0.960 . S
H541 C527 0.961 . S
H542 C527 0.961 . S
H543 C527 0.961 . S
H544 C528 0.931 . S
H545 C533 0.930 . S
H546 C534 0.956 . S
H547 C534 0.961 . S
H548 C534 0.961 . S
H549 C535 0.958 . S
H550 C535 0.961 . S
H551 C535 0.960 . S
C552 C553 1.391 . S
C552 C554 1.394 . S
C552 H568 0.931 . S
C553 C552 1.391 . S
C553 C557 1.376 . S
C554 C552 1.394 . S
C554 C555 1.369 . S
C554 C558 1.531 . S
C555 C554 1.369 . S
C555 C556 1.410 . S
C555 C563 1.503 1_655 S
C556 C555 1.410 . S
C556 C557 1.392 . S
C556 C559 1.511 1_655 S
C557 C553 1.376 . S
C557 C556 1.392 . S
C557 H569 0.929 . S
C558 C554 1.531 . S
C558 H570 0.960 . S
C558 H571 0.962 . S
C558 H572 0.960 . S
C559 C556 1.511 1_455 S
C559 H573 0.961 1_455 S
C559 H574 0.961 . S
C559 H575 0.961 . S
C560 C561 1.370 . S
C560 C562 1.363 . S
C560 H576 0.931 . S
C561 C560 1.370 . S
C561 C565 1.408 . S
C562 C560 1.363 . S
C562 C563 1.370 . S
C562 C566 1.524 . S
C563 C555 1.503 1_455 S
C563 C562 1.370 . S
C563 C564 1.403 . S
C564 C563 1.403 . S
C564 C565 1.404 . S
C564 C567 1.539 . S
C565 C561 1.408 . S
C565 C564 1.404 . S
C565 H577 0.930 . S
C566 C562 1.524 . S
C566 H578 0.956 . S
C566 H579 0.961 . S
C566 H580 0.961 . S
C567 C564 1.539 . S
C567 H581 0.958 . S
C567 H582 0.961 . S
C567 H583 0.960 . S
H568 C552 0.931 . S
H569 C557 0.929 . S
H570 C558 0.960 . S
H571 C558 0.962 . S
H572 C558 0.960 . S
H573 C559 0.961 1_655 S
H574 C559 0.961 . S
H575 C559 0.961 . S
H576 C560 0.931 . S
H577 C565 0.930 . S
H578 C566 0.956 . S
H579 C566 0.961 . S
H580 C566 0.961 . S
H581 C567 0.958 . S
H582 C567 0.961 . S
H583 C567 0.960 . S
C584 C585 1.391 . S
C584 C586 1.394 . S
C584 H600 0.931 . S
C585 C584 1.391 . S
C585 C589 1.376 . S
C586 C584 1.394 . S
C586 C587 1.369 . S
C586 C590 1.531 . S
C587 C586 1.369 . S
C587 C588 1.410 . S
C587 C595 1.503 . S
C588 C587 1.410 . S
C588 C589 1.392 . S
C588 C591 1.511 . S
C589 C585 1.376 . S
C589 C588 1.392 . S
C589 H601 0.929 . S
C590 C586 1.531 . S
C590 H602 0.960 . S
C590 H603 0.962 . S
C590 H604 0.960 . S
C591 C588 1.511 . S
C591 H605 0.961 . S
C591 H606 0.961 . S
C591 H607 0.961 . S
C592 C593 1.370 . S
C592 C594 1.363 . S
C592 H608 0.931 . S
C593 C592 1.370 . S
C593 C597 1.408 . S
C594 C592 1.363 . S
C594 C595 1.370 . S
C594 C598 1.524 . S
C595 C587 1.503 . S
C595 C594 1.370 . S
C595 C596 1.403 . S
C596 C595 1.403 . S
C596 C597 1.404 . S
C596 C599 1.539 . S
C597 C593 1.408 . S
C597 C596 1.404 . S
C597 H609 0.930 . S
C598 C594 1.524 . S
C598 H610 0.956 . S
C598 H611 0.961 . S
C598 H612 0.961 . S
C599 C596 1.539 . S
C599 H613 0.958 . S
C599 H614 0.961 . S
C599 H615 0.960 . S
H600 C584 0.931 . S
H601 C589 0.929 . S
H602 C590 0.960 . S
H603 C590 0.962 . S
H604 C590 0.960 . S
H605 C591 0.961 . S
H606 C591 0.961 . S
H607 C591 0.961 . S
H608 C592 0.931 . S
H609 C597 0.930 . S
H610 C598 0.956 . S
H611 C598 0.961 . S
H612 C598 0.961 . S
H613 C599 0.958 . S
H614 C599 0.961 . S
H615 C599 0.960 . S
C616 C617 1.391 . S
C616 C618 1.394 . S
C616 H632 0.931 . S
C617 C616 1.391 . S
C617 C621 1.376 . S
C618 C616 1.394 . S
C618 C619 1.369 . S
C618 C622 1.531 . S
C619 C618 1.369 . S
C619 C620 1.410 . S
C619 C627 1.503 1_545 S
C620 C619 1.410 . S
C620 C621 1.392 . S
C620 C623 1.511 1_545 S
C621 C617 1.376 . S
C621 C620 1.392 . S
C621 H633 0.929 . S
C622 C618 1.531 . S
C622 H634 0.960 . S
C622 H635 0.962 . S
C622 H636 0.960 . S
C623 C620 1.511 1_565 S
C623 H637 0.961 . S
C623 H638 0.961 . S
C623 H639 0.961 . S
C624 C625 1.370 . S
C624 C626 1.363 . S
C624 H640 0.931 . S
C625 C624 1.370 . S
C625 C629 1.408 . S
C626 C624 1.363 . S
C626 C627 1.370 . S
C626 C630 1.524 . S
C627 C619 1.503 1_565 S
C627 C626 1.370 . S
C627 C628 1.403 . S
C628 C627 1.403 . S
C628 C629 1.404 . S
C628 C631 1.539 . S
C629 C625 1.408 . S
C629 C628 1.404 . S
C629 H641 0.930 . S
C630 C626 1.524 . S
C630 H642 0.956 1_565 S
C630 H643 0.961 . S
C630 H644 0.961 . S
C631 C628 1.539 . S
C631 H645 0.958 . S
C631 H646 0.961 . S
C631 H647 0.960 . S
H632 C616 0.931 . S
H633 C621 0.929 . S
H634 C622 0.960 . S
H635 C622 0.962 . S
H636 C622 0.960 . S
H637 C623 0.961 . S
H638 C623 0.961 . S
H639 C623 0.961 . S
H640 C624 0.931 . S
H641 C629 0.930 . S
H642 C630 0.956 1_545 S
H643 C630 0.961 . S
H644 C630 0.961 . S
H645 C631 0.958 . S
H646 C631 0.961 . S
H647 C631 0.960 . S
C648 C649 1.391 . S
C648 C650 1.394 . S
C648 H664 0.931 . S
C649 C648 1.391 . S
C649 C653 1.376 . S
C650 C648 1.394 . S
C650 C651 1.369 . S
C650 C654 1.531 . S
C651 C650 1.369 . S
C651 C652 1.410 . S
C651 C659 1.503 . S
C652 C651 1.410 . S
C652 C653 1.392 . S
C652 C655 1.511 . S
C653 C649 1.376 . S
C653 C652 1.392 . S
C653 H665 0.929 . S
C654 C650 1.531 . S
C654 H666 0.960 . S
C654 H667 0.962 . S
C654 H668 0.960 . S
C655 C652 1.511 . S
C655 H669 0.961 . S
C655 H670 0.961 . S
C655 H671 0.961 . S
C656 C657 1.370 . S
C656 C658 1.363 . S
C656 H672 0.931 . S
C657 C656 1.370 . S
C657 C661 1.408 . S
C658 C656 1.363 . S
C658 C659 1.370 . S
C658 C662 1.524 . S
C659 C651 1.503 . S
C659 C658 1.370 . S
C659 C660 1.403 . S
C660 C659 1.403 . S
C660 C661 1.404 . S
C660 C663 1.539 . S
C661 C657 1.408 . S
C661 C660 1.404 . S
C661 H673 0.930 . S
C662 C658 1.524 . S
C662 H674 0.956 . S
C662 H675 0.961 . S
C662 H676 0.961 . S
C663 C660 1.539 . S
C663 H677 0.958 . S
C663 H678 0.961 . S
C663 H679 0.960 . S
H664 C648 0.931 . S
H665 C653 0.929 . S
H666 C654 0.960 . S
H667 C654 0.962 . S
H668 C654 0.960 . S
H669 C655 0.961 . S
H670 C655 0.961 . S
H671 C655 0.961 . S
H672 C656 0.931 . S
H673 C661 0.930 . S
H674 C662 0.956 . S
H675 C662 0.961 . S
H676 C662 0.961 . S
H677 C663 0.958 . S
H678 C663 0.961 . S
H679 C663 0.960 . S
C680 C681 1.391 . S
C680 C682 1.394 . S
C680 H696 0.931 . S
C681 C680 1.391 . S
C681 C685 1.376 . S
C682 C680 1.394 . S
C682 C683 1.369 . S
C682 C686 1.531 . S
C683 C682 1.369 . S
C683 C684 1.410 . S
C683 C691 1.503 . S
C684 C683 1.410 . S
C684 C685 1.392 . S
C684 C687 1.511 . S
C685 C681 1.376 . S
C685 C684 1.392 . S
C685 H697 0.929 . S
C686 C682 1.531 . S
C686 H698 0.960 . S
C686 H699 0.962 . S
C686 H700 0.960 . S
C687 C684 1.511 . S
C687 H701 0.961 . S
C687 H702 0.961 . S
C687 H703 0.961 . S
C688 C689 1.370 . S
C688 C690 1.363 . S
C688 H704 0.931 . S
C689 C688 1.370 . S
C689 C693 1.408 . S
C690 C688 1.363 . S
C690 C691 1.370 . S
C690 C694 1.524 . S
C691 C683 1.503 . S
C691 C690 1.370 . S
C691 C692 1.403 . S
C692 C691 1.403 . S
C692 C693 1.404 . S
C692 C695 1.539 . S
C693 C689 1.408 . S
C693 C692 1.404 . S
C693 H705 0.930 . S
C694 C690 1.524 . S
C694 H706 0.956 . S
C694 H707 0.961 . S
C694 H708 0.961 . S
C695 C692 1.539 . S
C695 H709 0.958 . S
C695 H710 0.961 . S
C695 H711 0.960 . S
H696 C680 0.931 . S
H697 C685 0.929 . S
H698 C686 0.960 . S
H699 C686 0.962 . S
H700 C686 0.960 . S
H701 C687 0.961 . S
H702 C687 0.961 . S
H703 C687 0.961 . S
H704 C688 0.931 . S
H705 C693 0.930 . S
H706 C694 0.956 . S
H707 C694 0.961 . S
H708 C694 0.961 . S
H709 C695 0.958 . S
H710 C695 0.961 . S
H711 C695 0.960 . S
C712 C713 1.391 . S
C712 C714 1.394 . S
C712 H728 0.931 . S
C713 C712 1.391 . S
C713 C717 1.376 . S
C714 C712 1.394 . S
C714 C715 1.369 . S
C714 C718 1.531 . S
C715 C714 1.369 . S
C715 C716 1.410 . S
C715 C723 1.503 . S
C716 C715 1.410 . S
C716 C717 1.392 . S
C716 C719 1.511 . S
C717 C713 1.376 . S
C717 C716 1.392 . S
C717 H729 0.929 . S
C718 C714 1.531 . S
C718 H730 0.960 . S
C718 H731 0.962 . S
C718 H732 0.960 . S
C719 C716 1.511 . S
C719 H733 0.961 . S
C719 H734 0.961 . S
C719 H735 0.961 . S
C720 C721 1.370 . S
C720 C722 1.363 . S
C720 H736 0.931 . S
C721 C720 1.370 . S
C721 C725 1.408 . S
C722 C720 1.363 . S
C722 C723 1.370 . S
C722 C726 1.524 . S
C723 C715 1.503 . S
C723 C722 1.370 . S
C723 C724 1.403 . S
C724 C723 1.403 . S
C724 C725 1.404 . S
C724 C727 1.539 . S
C725 C721 1.408 . S
C725 C724 1.404 . S
C725 H737 0.930 . S
C726 C722 1.524 . S
C726 H738 0.956 . S
C726 H739 0.961 . S
C726 H740 0.961 . S
C727 C724 1.539 . S
C727 H741 0.958 . S
C727 H742 0.961 . S
C727 H743 0.960 . S
H728 C712 0.931 . S
H729 C717 0.929 . S
H730 C718 0.960 . S
H731 C718 0.962 . S
H732 C718 0.960 . S
H733 C719 0.961 . S
H734 C719 0.961 . S
H735 C719 0.961 . S
H736 C720 0.931 . S
H737 C725 0.930 . S
H738 C726 0.956 . S
H739 C726 0.961 . S
H740 C726 0.961 . S
H741 C727 0.958 . S
H742 C727 0.961 . S
H743 C727 0.960 . S
C744 C745 1.391 . S
C744 C746 1.394 . S
C744 H760 0.931 . S
C745 C744 1.391 . S
C745 C749 1.376 . S
C746 C744 1.394 . S
C746 C747 1.369 . S
C746 C750 1.531 . S
C747 C746 1.369 . S
C747 C748 1.410 . S
C747 C755 1.503 . S
C748 C747 1.410 . S
C748 C749 1.392 . S
C748 C751 1.511 . S
C749 C745 1.376 . S
C749 C748 1.392 . S
C749 H761 0.929 . S
C750 C746 1.531 . S
C750 H762 0.960 . S
C750 H763 0.962 . S
C750 H764 0.960 . S
C751 C748 1.511 . S
C751 H765 0.961 . S
C751 H766 0.961 . S
C751 H767 0.961 . S
C752 C753 1.370 . S
C752 C754 1.363 . S
C752 H768 0.931 . S
C753 C752 1.370 . S
C753 C757 1.408 . S
C754 C752 1.363 . S
C754 C755 1.370 . S
C754 C758 1.524 . S
C755 C747 1.503 . S
C755 C754 1.370 . S
C755 C756 1.403 . S
C756 C755 1.403 . S
C756 C757 1.404 . S
C756 C759 1.539 . S
C757 C753 1.408 . S
C757 C756 1.404 . S
C757 H769 0.930 . S
C758 C754 1.524 . S
C758 H770 0.956 . S
C758 H771 0.961 . S
C758 H772 0.961 . S
C759 C756 1.539 . S
C759 H773 0.958 . S
C759 H774 0.961 . S
C759 H775 0.960 . S
H760 C744 0.931 . S
H761 C749 0.929 . S
H762 C750 0.960 . S
H763 C750 0.962 . S
H764 C750 0.960 . S
H765 C751 0.961 . S
H766 C751 0.961 . S
H767 C751 0.961 . S
H768 C752 0.931 . S
H769 C757 0.930 . S
H770 C758 0.956 . S
H771 C758 0.961 . S
H772 C758 0.961 . S
H773 C759 0.958 . S
H774 C759 0.961 . S
H775 C759 0.960 . S
C776 C777 1.391 . S
C776 C778 1.394 . S
C776 H792 0.931 . S
C777 C776 1.391 . S
C777 C781 1.376 . S
C778 C776 1.394 . S
C778 C779 1.369 . S
C778 C782 1.531 . S
C779 C778 1.369 . S
C779 C780 1.410 . S
C779 C787 1.503 . S
C780 C779 1.410 . S
C780 C781 1.392 . S
C780 C783 1.511 . S
C781 C777 1.376 . S
C781 C780 1.392 . S
C781 H793 0.929 . S
C782 C778 1.531 . S
C782 H794 0.960 . S
C782 H795 0.962 . S
C782 H796 0.960 . S
C783 C780 1.511 . S
C783 H797 0.961 . S
C783 H798 0.961 . S
C783 H799 0.961 . S
C784 C785 1.370 . S
C784 C786 1.363 . S
C784 H800 0.931 . S
C785 C784 1.370 . S
C785 C789 1.408 . S
C786 C784 1.363 . S
C786 C787 1.370 . S
C786 C790 1.524 . S
C787 C779 1.503 . S
C787 C786 1.370 . S
C787 C788 1.403 . S
C788 C787 1.403 . S
C788 C789 1.404 . S
C788 C791 1.539 . S
C789 C785 1.408 . S
C789 C788 1.404 . S
C789 H801 0.930 . S
C790 C786 1.524 . S
C790 H802 0.956 . S
C790 H803 0.961 . S
C790 H804 0.961 . S
C791 C788 1.539 . S
C791 H805 0.958 . S
C791 H806 0.961 . S
C791 H807 0.960 . S
H792 C776 0.931 . S
H793 C781 0.929 . S
H794 C782 0.960 . S
H795 C782 0.962 . S
H796 C782 0.960 . S
H797 C783 0.961 . S
H798 C783 0.961 . S
H799 C783 0.961 . S
H800 C784 0.931 . S
H801 C789 0.930 . S
H802 C790 0.956 . S
H803 C790 0.961 . S
H804 C790 0.961 . S
H805 C791 0.958 . S
H806 C791 0.961 . S
H807 C791 0.960 . S
C808 C809 1.391 . S
C808 C810 1.394 . S
C808 H824 0.931 . S
C809 C808 1.391 . S
C809 C813 1.376 . S
C810 C808 1.394 . S
C810 C811 1.369 . S
C810 C814 1.531 . S
C811 C810 1.369 . S
C811 C812 1.410 . S
C811 C819 1.503 . S
C812 C811 1.410 . S
C812 C813 1.392 . S
C812 C815 1.511 . S
C813 C809 1.376 . S
C813 C812 1.392 . S
C813 H825 0.929 . S
C814 C810 1.531 . S
C814 H826 0.960 . S
C814 H827 0.962 . S
C814 H828 0.960 . S
C815 C812 1.511 . S
C815 H829 0.961 . S
C815 H830 0.961 . S
C815 H831 0.961 . S
C816 C817 1.370 . S
C816 C818 1.363 . S
C816 H832 0.931 . S
C817 C816 1.370 . S
C817 C821 1.408 . S
C818 C816 1.363 . S
C818 C819 1.370 . S
C818 C822 1.524 . S
C819 C811 1.503 . S
C819 C818 1.370 . S
C819 C820 1.403 . S
C820 C819 1.403 . S
C820 C821 1.404 . S
C820 C823 1.539 . S
C821 C817 1.408 . S
C821 C820 1.404 . S
C821 H833 0.930 . S
C822 C818 1.524 . S
C822 H834 0.956 . S
C822 H835 0.961 . S
C822 H836 0.961 . S
C823 C820 1.539 . S
C823 H837 0.958 . S
C823 H838 0.961 . S
C823 H839 0.960 . S
H824 C808 0.931 . S
H825 C813 0.929 . S
H826 C814 0.960 . S
H827 C814 0.962 . S
H828 C814 0.960 . S
H829 C815 0.961 . S
H830 C815 0.961 . S
H831 C815 0.961 . S
H832 C816 0.931 . S
H833 C821 0.930 . S
H834 C822 0.956 . S
H835 C822 0.961 . S
H836 C822 0.961 . S
H837 C823 0.958 . S
H838 C823 0.961 . S
H839 C823 0.960 . S
C840 C841 1.391 . S
C840 C842 1.394 . S
C840 H856 0.931 . S
C841 C840 1.391 . S
C841 C845 1.376 . S
C842 C840 1.394 . S
C842 C843 1.369 . S
C842 C846 1.531 . S
C843 C842 1.369 . S
C843 C844 1.410 . S
C843 C851 1.503 . S
C844 C843 1.410 . S
C844 C845 1.392 . S
C844 C847 1.511 . S
C845 C841 1.376 . S
C845 C844 1.392 . S
C845 H857 0.929 . S
C846 C842 1.531 . S
C846 H858 0.960 . S
C846 H859 0.962 . S
C846 H860 0.960 . S
C847 C844 1.511 . S
C847 H861 0.961 . S
C847 H862 0.961 . S
C847 H863 0.961 . S
C848 C849 1.370 . S
C848 C850 1.341 1_545 S
C848 H864 0.931 . S
C849 C848 1.370 . S
C849 C853 1.408 . S
C850 C848 1.341 1_565 S
C850 C851 1.377 . S
C850 C854 1.540 . S
C851 C843 1.503 . S
C851 C850 1.377 . S
C851 C852 1.403 . S
C852 C851 1.403 . S
C852 C853 1.404 1_565 S
C852 C855 1.539 . S
C853 C849 1.408 . S
C853 C852 1.404 1_545 S
C853 H865 0.930 . S
C854 C850 1.540 . S
C854 H866 0.956 . S
C854 H867 0.961 . S
C854 H868 0.961 1_565 S
C855 C852 1.539 . S
C855 H869 0.958 . S
C855 H870 0.961 . S
C855 H871 0.960 . S
H856 C840 0.931 . S
H857 C845 0.929 . S
H858 C846 0.960 . S
H859 C846 0.962 . S
H860 C846 0.960 . S
H861 C847 0.961 . S
H862 C847 0.961 . S
H863 C847 0.961 . S
H864 C848 0.931 . S
H865 C853 0.930 . S
H866 C854 0.956 . S
H867 C854 0.961 . S
H868 C854 0.961 1_545 S
H869 C855 0.958 . S
H870 C855 0.961 . S
H871 C855 0.960 . S
C872 C873 1.391 . S
C872 C874 1.394 . S
C872 H888 0.951 . S
C873 C872 1.391 . S
C873 C877 1.376 . S
C874 C872 1.394 . S
C874 C875 1.369 . S
C874 C878 1.531 1_565 S
C875 C874 1.369 . S
C875 C876 1.410 . S
C875 C883 1.503 . S
C876 C875 1.410 . S
C876 C877 1.392 . S
C876 C879 1.511 . S
C877 C873 1.376 . S
C877 C876 1.392 . S
C877 H889 0.929 . S
C878 C874 1.531 1_545 S
C878 H890 0.960 . S
C878 H891 0.962 . S
C878 H892 0.960 . S
C879 C876 1.511 . S
C879 H893 0.961 . S
C879 H894 0.961 . S
C879 H895 0.961 . S
C880 C881 1.370 1_565 S
C880 C882 1.363 . S
C880 H896 0.931 . S
C881 C880 1.370 1_545 S
C881 C885 1.408 . S
C882 C880 1.363 . S
C882 C883 1.370 . S
C882 C886 1.524 . S
C883 C875 1.503 . S
C883 C882 1.370 . S
C883 C884 1.402 1_565 S
C884 C883 1.402 1_545 S
C884 C885 1.401 . S
C884 C887 1.542 . S
C885 C881 1.408 . S
C885 C884 1.401 . S
C885 H897 0.930 . S
C886 C882 1.524 . S
C886 H898 0.956 . S
C886 H899 0.961 . S
C886 H900 0.961 . S
C887 C884 1.542 . S
C887 H901 0.958 . S
C887 H902 0.961 1_545 S
C887 H903 0.960 1_545 S
H888 C872 0.951 . S
H889 C877 0.929 . S
H890 C878 0.960 . S
H891 C878 0.962 . S
H892 C878 0.960 . S
H893 C879 0.961 . S
H894 C879 0.961 . S
H895 C879 0.961 . S
H896 C880 0.931 . S
H897 C885 0.930 . S
H898 C886 0.956 . S
H899 C886 0.961 . S
H900 C886 0.961 . S
H901 C887 0.958 . S
H902 C887 0.961 1_565 S
H903 C887 0.960 1_565 S
C904 C905 1.391 . S
C904 C906 1.394 . S
C904 H920 0.931 . S
C905 C904 1.391 . S
C905 C909 1.376 . S
C906 C904 1.394 . S
C906 C907 1.369 . S
C906 C910 1.531 . S
C907 C906 1.369 . S
C907 C908 1.410 . S
C907 C915 1.503 . S
C908 C907 1.410 . S
C908 C909 1.392 . S
C908 C911 1.511 . S
C909 C905 1.376 . S
C909 C908 1.392 . S
C909 H921 0.929 . S
C910 C906 1.531 . S
C910 H922 0.960 . S
C910 H923 0.962 . S
C910 H924 0.960 . S
C911 C908 1.511 . S
C911 H925 0.961 . S
C911 H926 0.961 . S
C911 H927 0.961 . S
C912 C913 1.370 . S
C912 C914 1.363 . S
C912 H928 0.931 . S
C913 C912 1.370 . S
C913 C917 1.408 . S
C914 C912 1.363 . S
C914 C915 1.370 . S
C914 C918 1.524 . S
C915 C907 1.503 . S
C915 C914 1.370 . S
C915 C916 1.403 . S
C916 C915 1.403 . S
C916 C917 1.404 . S
C916 C919 1.539 . S
C917 C913 1.408 . S
C917 C916 1.404 . S
C917 H929 0.930 . S
C918 C914 1.524 . S
C918 H930 0.956 . S
C918 H931 0.961 . S
C918 H932 0.961 . S
C919 C916 1.539 . S
C919 H933 0.958 . S
C919 H934 0.961 . S
C919 H935 0.960 . S
H920 C904 0.931 . S
H921 C909 0.929 . S
H922 C910 0.960 . S
H923 C910 0.962 . S
H924 C910 0.960 . S
H925 C911 0.961 . S
H926 C911 0.961 . S
H927 C911 0.961 . S
H928 C912 0.931 . S
H929 C917 0.930 . S
H930 C918 0.956 . S
H931 C918 0.961 . S
H932 C918 0.961 . S
H933 C919 0.958 . S
H934 C919 0.961 . S
H935 C919 0.960 . S
C936 C937 1.391 . S
C936 C938 1.394 . S
C936 H952 0.931 . S
C937 C936 1.391 . S
C937 C941 1.376 . S
C938 C936 1.394 . S
C938 C939 1.369 . S
C938 C942 1.531 . S
C939 C938 1.369 . S
C939 C940 1.410 . S
C939 C947 1.503 . S
C940 C939 1.410 . S
C940 C941 1.392 . S
C940 C943 1.511 . S
C941 C937 1.376 . S
C941 C940 1.392 . S
C941 H953 0.929 . S
C942 C938 1.531 . S
C942 H954 0.960 . S
C942 H955 0.962 . S
C942 H956 0.960 . S
C943 C940 1.511 . S
C943 H957 0.961 . S
C943 H958 0.961 . S
C943 H959 0.961 . S
C944 C945 1.370 . S
C944 C946 1.363 . S
C944 H960 0.931 . S
C945 C944 1.370 . S
C945 C949 1.408 . S
C946 C944 1.363 . S
C946 C947 1.370 . S
C946 C950 1.524 . S
C947 C939 1.503 . S
C947 C946 1.370 . S
C947 C948 1.403 . S
C948 C947 1.403 . S
C948 C949 1.404 . S
C948 C951 1.539 . S
C949 C945 1.408 . S
C949 C948 1.404 . S
C949 H961 0.930 . S
C950 C946 1.524 . S
C950 H962 0.956 . S
C950 H963 0.961 . S
C950 H964 0.961 . S
C951 C948 1.539 . S
C951 H965 0.958 . S
C951 H966 0.961 1_455 S
C951 H967 0.960 . S
H952 C936 0.931 . S
H953 C941 0.929 . S
H954 C942 0.960 . S
H955 C942 0.962 . S
H956 C942 0.960 . S
H957 C943 0.961 . S
H958 C943 0.961 . S
H959 C943 0.961 . S
H960 C944 0.931 . S
H961 C949 0.930 . S
H962 C950 0.956 . S
H963 C950 0.961 . S
H964 C950 0.961 . S
H965 C951 0.958 . S
H966 C951 0.961 1_655 S
H967 C951 0.960 . S
C968 C969 1.391 . S
C968 C970 1.394 . S
C968 H984 0.931 . S
C969 C968 1.391 . S
C969 C973 1.376 . S
C970 C968 1.394 . S
C970 C971 1.369 . S
C970 C974 1.531 . S
C971 C970 1.369 . S
C971 C972 1.410 . S
C971 C979 1.503 . S
C972 C971 1.410 . S
C972 C973 1.392 . S
C972 C975 1.511 . S
C973 C969 1.376 . S
C973 C972 1.392 . S
C973 H985 0.929 . S
C974 C970 1.531 . S
C974 H986 0.960 . S
C974 H987 0.962 . S
C974 H988 0.960 . S
C975 C972 1.511 . S
C975 H989 0.961 . S
C975 H990 0.961 . S
C975 H991 0.961 . S
C976 C977 1.370 . S
C976 C978 1.363 . S
C976 H992 0.931 . S
C977 C976 1.370 . S
C977 C981 1.408 . S
C978 C976 1.363 . S
C978 C979 1.370 . S
C978 C982 1.524 . S
C979 C971 1.503 . S
C979 C978 1.370 . S
C979 C980 1.403 . S
C980 C979 1.403 . S
C980 C981 1.404 . S
C980 C983 1.539 . S
C981 C977 1.408 . S
C981 C980 1.404 . S
C981 H993 0.930 . S
C982 C978 1.524 . S
C982 H994 0.956 . S
C982 H995 0.961 . S
C982 H996 0.961 . S
C983 C980 1.539 . S
C983 H997 0.958 . S
C983 H998 0.961 . S
C983 H999 0.960 . S
H984 C968 0.931 . S
H985 C973 0.929 . S
H986 C974 0.960 . S
H987 C974 0.962 . S
H988 C974 0.960 . S
H989 C975 0.961 . S
H990 C975 0.961 . S
H991 C975 0.961 . S
H992 C976 0.931 . S
H993 C981 0.930 . S
H994 C982 0.956 . S
H995 C982 0.961 . S
H996 C982 0.961 . S
H997 C983 0.958 . S
H998 C983 0.961 . S
H999 C983 0.960 . S
C1000 C1001 1.391 . S
C1000 C1002 1.394 . S
C1000 H1016 0.931 . S
C1001 C1000 1.391 . S
C1001 C1005 1.376 . S
C1002 C1000 1.394 . S
C1002 C1003 1.369 . S
C1002 C1006 1.531 . S
C1003 C1002 1.369 . S
C1003 C1004 1.410 . S
C1003 C1011 1.503 . S
C1004 C1003 1.410 . S
C1004 C1005 1.392 . S
C1004 C1007 1.511 . S
C1005 C1001 1.376 . S
C1005 C1004 1.392 . S
C1005 H1017 0.929 . S
C1006 C1002 1.531 . S
C1006 H1018 0.960 . S
C1006 H1019 0.962 . S
C1006 H1020 0.960 . S
C1007 C1004 1.511 . S
C1007 H1021 0.961 . S
C1007 H1022 0.961 . S
C1007 H1023 0.961 . S
C1008 C1009 1.370 . S
C1008 C1010 1.363 . S
C1008 H1024 0.931 . S
C1009 C1008 1.370 . S
C1009 C1013 1.408 . S
C1010 C1008 1.363 . S
C1010 C1011 1.370 . S
C1010 C1014 1.524 . S
C1011 C1003 1.503 . S
C1011 C1010 1.370 . S
C1011 C1012 1.403 . S
C1012 C1011 1.403 . S
C1012 C1013 1.404 . S
C1012 C1015 1.539 1_565 S
C1013 C1009 1.408 . S
C1013 C1012 1.404 . S
C1013 H1025 0.930 . S
C1014 C1010 1.524 . S
C1014 H1026 0.956 . S
C1014 H1027 0.961 . S
C1014 H1028 0.961 . S
C1015 C1012 1.539 1_545 S
C1015 H1029 0.958 . S
C1015 H1030 0.961 . S
C1015 H1031 0.960 . S
H1016 C1000 0.931 . S
H1017 C1005 0.929 . S
H1018 C1006 0.960 . S
H1019 C1006 0.962 . S
H1020 C1006 0.960 . S
H1021 C1007 0.961 . S
H1022 C1007 0.961 . S
H1023 C1007 0.961 . S
H1024 C1008 0.931 . S
H1025 C1013 0.930 . S
H1026 C1014 0.956 . S
H1027 C1014 0.961 . S
H1028 C1014 0.961 . S
H1029 C1015 0.958 . S
H1030 C1015 0.961 . S
H1031 C1015 0.960 . S
C1032 C1033 1.391 . S
C1032 C1034 1.394 . S
C1032 H1048 0.931 . S
C1033 C1032 1.391 . S
C1033 C1037 1.376 . S
C1034 C1032 1.394 . S
C1034 C1035 1.369 . S
C1034 C1038 1.531 . S
C1035 C1034 1.369 . S
C1035 C1036 1.410 . S
C1035 C1043 1.503 . S
C1036 C1035 1.410 . S
C1036 C1037 1.392 . S
C1036 C1039 1.511 1_545 S
C1037 C1033 1.376 . S
C1037 C1036 1.392 . S
C1037 H1049 0.929 1_545 S
C1038 C1034 1.531 . S
C1038 H1050 0.960 . S
C1038 H1051 0.962 . S
C1038 H1052 0.960 . S
C1039 C1036 1.511 1_565 S
C1039 H1053 0.961 . S
C1039 H1054 0.961 1_565 S
C1039 H1055 0.961 . S
C1040 C1041 1.370 . S
C1040 C1042 1.363 . S
C1040 H1056 0.931 . S
C1041 C1040 1.370 . S
C1041 C1045 1.408 . S
C1042 C1040 1.363 . S
C1042 C1043 1.370 . S
C1042 C1046 1.524 . S
C1043 C1035 1.503 . S
C1043 C1042 1.370 . S
C1043 C1044 1.403 . S
C1044 C1043 1.403 . S
C1044 C1045 1.404 . S
C1044 C1047 1.539 . S
C1045 C1041 1.408 . S
C1045 C1044 1.404 . S
C1045 H1057 0.930 . S
C1046 C1042 1.524 . S
C1046 H1058 0.956 . S
C1046 H1059 0.961 . S
C1046 H1060 0.961 . S
C1047 C1044 1.539 . S
C1047 H1061 0.958 . S
C1047 H1062 0.961 . S
C1047 H1063 0.960 . S
H1048 C1032 0.931 . S
H1049 C1037 0.929 1_565 S
H1050 C1038 0.960 . S
H1051 C1038 0.962 . S
H1052 C1038 0.960 . S
H1053 C1039 0.961 . S
H1054 C1039 0.961 1_545 S
H1055 C1039 0.961 . S
H1056 C1040 0.931 . S
H1057 C1045 0.930 . S
H1058 C1046 0.956 . S
H1059 C1046 0.961 . S
H1060 C1046 0.961 . S
H1061 C1047 0.958 . S
H1062 C1047 0.961 . S
H1063 C1047 0.960 . S
C1064 C1065 1.391 . S
C1064 C1066 1.394 . S
C1064 H1080 0.931 . S
C1065 C1064 1.391 . S
C1065 C1069 1.376 . S
C1066 C1064 1.394 . S
C1066 C1067 1.369 . S
C1066 C1070 1.531 . S
C1067 C1066 1.369 . S
C1067 C1068 1.410 . S
C1067 C1075 1.503 . S
C1068 C1067 1.410 . S
C1068 C1069 1.392 . S
C1068 C1071 1.511 . S
C1069 C1065 1.376 . S
C1069 C1068 1.392 . S
C1069 H1081 0.929 1_655 S
C1070 C1066 1.531 . S
C1070 H1082 0.960 . S
C1070 H1083 0.962 . S
C1070 H1084 0.960 . S
C1071 C1068 1.511 . S
C1071 H1085 0.961 1_655 S
C1071 H1086 0.961 . S
C1071 H1087 0.961 1_655 S
C1072 C1073 1.370 . S
C1072 C1074 1.363 . S
C1072 H1088 0.931 . S
C1073 C1072 1.370 . S
C1073 C1077 1.408 . S
C1074 C1072 1.363 . S
C1074 C1075 1.370 . S
C1074 C1078 1.524 . S
C1075 C1067 1.503 . S
C1075 C1074 1.370 . S
C1075 C1076 1.403 . S
C1076 C1075 1.403 . S
C1076 C1077 1.404 . S
C1076 C1079 1.539 . S
C1077 C1073 1.408 . S
C1077 C1076 1.404 . S
C1077 H1089 0.930 . S
C1078 C1074 1.524 . S
C1078 H1090 0.956 . S
C1078 H1091 0.961 . S
C1078 H1092 0.961 . S
C1079 C1076 1.539 . S
C1079 H1093 0.958 . S
C1079 H1094 0.961 . S
C1079 H1095 0.960 . S
H1080 C1064 0.931 . S
H1081 C1069 0.929 1_455 S
H1082 C1070 0.960 . S
H1083 C1070 0.962 . S
H1084 C1070 0.960 . S
H1085 C1071 0.961 1_455 S
H1086 C1071 0.961 . S
H1087 C1071 0.961 1_455 S
H1088 C1072 0.931 . S
H1089 C1077 0.930 . S
H1090 C1078 0.956 . S
H1091 C1078 0.961 . S
H1092 C1078 0.961 . S
H1093 C1079 0.958 . S
H1094 C1079 0.961 . S
H1095 C1079 0.960 . S
C1096 C1097 1.391 . S
C1096 C1098 1.394 . S
C1096 H1112 0.931 . S
C1097 C1096 1.391 . S
C1097 C1101 1.376 . S
C1098 C1096 1.394 . S
C1098 C1099 1.369 . S
C1098 C1102 1.531 . S
C1099 C1098 1.369 . S
C1099 C1100 1.410 . S
C1099 C1107 1.503 . S
C1100 C1099 1.410 . S
C1100 C1101 1.392 . S
C1100 C1103 1.511 . S
C1101 C1097 1.376 . S
C1101 C1100 1.392 . S
C1101 H1113 0.929 . S
C1102 C1098 1.531 . S
C1102 H1114 0.960 . S
C1102 H1115 0.962 . S
C1102 H1116 0.960 . S
C1103 C1100 1.511 . S
C1103 H1117 0.961 . S
C1103 H1118 0.961 . S
C1103 H1119 0.961 . S
C1104 C1105 1.370 . S
C1104 C1106 1.363 . S
C1104 H1120 0.931 . S
C1105 C1104 1.370 . S
C1105 C1109 1.408 . S
C1106 C1104 1.363 . S
C1106 C1107 1.370 . S
C1106 C1110 1.524 . S
C1107 C1099 1.503 . S
C1107 C1106 1.370 . S
C1107 C1108 1.403 . S
C1108 C1107 1.403 . S
C1108 C1109 1.404 . S
C1108 C1111 1.539 . S
C1109 C1105 1.408 . S
C1109 C1108 1.404 . S
C1109 H1121 0.930 . S
C1110 C1106 1.524 . S
C1110 H1122 0.956 . S
C1110 H1123 0.961 . S
C1110 H1124 0.961 . S
C1111 C1108 1.539 . S
C1111 H1125 0.958 . S
C1111 H1126 0.961 . S
C1111 H1127 0.960 . S
H1112 C1096 0.931 . S
H1113 C1101 0.929 . S
H1114 C1102 0.960 . S
H1115 C1102 0.962 . S
H1116 C1102 0.960 . S
H1117 C1103 0.961 . S
H1118 C1103 0.961 . S
H1119 C1103 0.961 . S
H1120 C1104 0.931 . S
H1121 C1109 0.930 . S
H1122 C1110 0.956 . S
H1123 C1110 0.961 . S
H1124 C1110 0.961 . S
H1125 C1111 0.958 . S
H1126 C1111 0.961 . S
H1127 C1111 0.960 . S
C1128 C1129 1.391 . S
C1128 C1130 1.394 . S
C1128 H1144 0.931 . S
C1129 C1128 1.391 . S
C1129 C1133 1.376 . S
C1130 C1128 1.394 . S
C1130 C1131 1.369 . S
C1130 C1134 1.531 . S
C1131 C1130 1.369 . S
C1131 C1132 1.410 . S
C1131 C1139 1.503 . S
C1132 C1131 1.410 . S
C1132 C1133 1.392 . S
C1132 C1135 1.511 . S
C1133 C1129 1.376 . S
C1133 C1132 1.392 . S
C1133 H1145 0.929 . S
C1134 C1130 1.531 . S
C1134 H1146 0.960 . S
C1134 H1147 0.962 . S
C1134 H1148 0.960 . S
C1135 C1132 1.511 . S
C1135 H1149 0.961 . S
C1135 H1150 0.961 . S
C1135 H1151 0.961 . S
C1136 C1137 1.370 . S
C1136 C1138 1.363 . S
C1136 H1152 0.931 . S
C1137 C1136 1.370 . S
C1137 C1141 1.408 . S
C1138 C1136 1.363 . S
C1138 C1139 1.370 . S
C1138 C1142 1.524 . S
C1139 C1131 1.503 . S
C1139 C1138 1.370 . S
C1139 C1140 1.403 . S
C1140 C1139 1.403 . S
C1140 C1141 1.404 . S
C1140 C1143 1.539 . S
C1141 C1137 1.408 . S
C1141 C1140 1.404 . S
C1141 H1153 0.930 . S
C1142 C1138 1.524 . S
C1142 H1154 0.956 . S
C1142 H1155 0.961 . S
C1142 H1156 0.961 . S
C1143 C1140 1.539 . S
C1143 H1157 0.958 . S
C1143 H1158 0.961 . S
C1143 H1159 0.960 . S
H1144 C1128 0.931 . S
H1145 C1133 0.929 . S
H1146 C1134 0.960 . S
H1147 C1134 0.962 . S
H1148 C1134 0.960 . S
H1149 C1135 0.961 . S
H1150 C1135 0.961 . S
H1151 C1135 0.961 . S
H1152 C1136 0.931 . S
H1153 C1141 0.930 . S
H1154 C1142 0.956 . S
H1155 C1142 0.961 . S
H1156 C1142 0.961 . S
H1157 C1143 0.958 . S
H1158 C1143 0.961 . S
H1159 C1143 0.960 . S
C1160 C1161 1.391 . S
C1160 C1162 1.394 . S
C1160 H1176 0.931 . S
C1161 C1160 1.391 . S
C1161 C1165 1.376 . S
C1162 C1160 1.394 . S
C1162 C1163 1.369 . S
C1162 C1166 1.531 1_565 S
C1163 C1162 1.369 . S
C1163 C1164 1.410 . S
C1163 C1171 1.503 1_565 S
C1164 C1163 1.410 . S
C1164 C1165 1.392 . S
C1164 C1167 1.511 . S
C1165 C1161 1.376 . S
C1165 C1164 1.392 . S
C1165 H1177 0.929 . S
C1166 C1162 1.531 1_545 S
C1166 H1178 0.960 . S
C1166 H1179 0.962 . S
C1166 H1180 0.960 . S
C1167 C1164 1.511 . S
C1167 H1181 0.961 . S
C1167 H1182 0.961 . S
C1167 H1183 0.961 . S
C1168 C1169 1.370 . S
C1168 C1170 1.363 . S
C1168 H1184 0.931 . S
C1169 C1168 1.370 . S
C1169 C1173 1.408 . S
C1170 C1168 1.363 . S
C1170 C1171 1.370 . S
C1170 C1174 1.524 1_545 S
C1171 C1163 1.503 1_545 S
C1171 C1170 1.370 . S
C1171 C1172 1.403 . S
C1172 C1171 1.403 . S
C1172 C1173 1.404 . S
C1172 C1175 1.539 . S
C1173 C1169 1.408 . S
C1173 C1172 1.404 . S
C1173 H1185 0.930 . S
C1174 C1170 1.524 1_565 S
C1174 H1186 0.956 . S
C1174 H1187 0.961 . S
C1174 H1188 0.961 . S
C1175 C1172 1.539 . S
C1175 H1189 0.958 . S
C1175 H1190 0.961 . S
C1175 H1191 0.960 . S
H1176 C1160 0.931 . S
H1177 C1165 0.929 . S
H1178 C1166 0.960 . S
H1179 C1166 0.962 . S
H1180 C1166 0.960 . S
H1181 C1167 0.961 . S
H1182 C1167 0.961 . S
H1183 C1167 0.961 . S
H1184 C1168 0.931 . S
H1185 C1173 0.930 . S
H1186 C1174 0.956 . S
H1187 C1174 0.961 . S
H1188 C1174 0.961 . S
H1189 C1175 0.958 . S
H1190 C1175 0.961 . S
H1191 C1175 0.960 . S
C1192 C1193 1.391 . S
C1192 C1194 1.394 . S
C1192 H1208 0.931 . S
C1193 C1192 1.391 . S
C1193 C1197 1.376 . S
C1194 C1192 1.394 . S
C1194 C1195 1.369 . S
C1194 C1198 1.531 . S
C1195 C1194 1.369 . S
C1195 C1196 1.415 . S
C1195 C1203 1.503 1_655 S
C1196 C1195 1.415 . S
C1196 C1197 1.408 . S
C1196 C1199 1.492 1_655 S
C1197 C1193 1.376 . S
C1197 C1196 1.408 . S
C1197 H1209 0.929 . S
C1198 C1194 1.531 . S
C1198 H1210 0.960 . S
C1198 H1211 0.962 . S
C1198 H1212 0.960 . S
C1199 C1196 1.492 1_455 S
C1199 H1213 0.961 . S
C1199 H1214 0.961 . S
C1199 H1215 0.961 . S
C1200 C1201 1.370 . S
C1200 C1202 1.363 . S
C1200 H1216 0.931 . S
C1201 C1200 1.370 . S
C1201 C1205 1.408 . S
C1202 C1200 1.363 . S
C1202 C1203 1.370 . S
C1202 C1206 1.524 1_455 S
C1203 C1195 1.503 1_455 S
C1203 C1202 1.370 . S
C1203 C1204 1.403 . S
C1204 C1203 1.403 . S
C1204 C1205 1.404 . S
C1204 C1207 1.539 . S
C1205 C1201 1.408 . S
C1205 C1204 1.404 . S
C1205 H1217 0.930 . S
C1206 C1202 1.524 1_655 S
C1206 H1218 0.956 . S
C1206 H1219 0.961 . S
C1206 H1220 0.957 1_655 S
C1207 C1204 1.539 . S
C1207 H1221 0.958 . S
C1207 H1222 0.961 . S
C1207 H1223 0.960 . S
H1208 C1192 0.931 . S
H1209 C1197 0.929 . S
H1210 C1198 0.960 . S
H1211 C1198 0.962 . S
H1212 C1198 0.960 . S
H1213 C1199 0.961 . S
H1214 C1199 0.961 . S
H1215 C1199 0.961 . S
H1216 C1200 0.931 . S
H1217 C1205 0.930 . S
H1218 C1206 0.956 . S
H1219 C1206 0.961 . S
H1220 C1206 0.957 1_455 S
H1221 C1207 0.958 . S
H1222 C1207 0.961 . S
H1223 C1207 0.960 . S
C361 C66 0.612 . S
C369 C17 0.544 . S
C393 C104 3.353 . S
C401 C53 3.377 . S
C425 C97 0.954 . S
C433 C24 0.987 . S
C457 C93 3.007 . S
C465 C64 2.990 . S
C489 C106 1.988 . S
C497 C13 1.976 . S
C521 C26 0.631 . S
C529 C57 0.688 . S
C553 C137 2.805 . S
C561 C184 2.850 . S
C585 C224 0.881 . S
C593 C177 0.816 . S
C617 C217 0.841 . S
C625 C144 0.833 . S
C649 C186 0.405 . S
C657 C213 0.294 . S
C681 C226 2.058 . S
C689 C133 2.077 . S
C713 C173 2.300 . S
C721 C146 2.307 . S
C745 C306 0.385 . S
C753 C257 0.631 . S
C777 C293 3.412 . S
C785 C344 3.386 . S
C809 C337 0.969 . S
C817 C264 1.004 . S
C841 C333 2.945 . S
C849 C304 2.927 . S
C873 C346 2.008 . S
C881 C253 1.993 . S
C905 C266 0.554 . S
C913 C297 0.646 . S
C937 C223 2.305 . S
C945 C2 2.597 . S
C969 C143 2.053 . S
C977 C63 1.980 . S
C1001 C82 2.972 . S
C1009 C183 2.774 . S
C1033 C103 2.359 . S
C1041 C242 2.603 . S
C1065 C23 2.004 . S
C1073 C303 1.934 . S
C1097 C322 2.955 . S
C1105 C42 2.986 . S
C1129 C122 2.650 . S
C1137 C343 2.371 . S
C1161 C162 2.146 . S
C1169 C263 2.015 . S
C1193 C282 2.929 . S
C1201 C202 2.922 . S
