# Generated by pormake.
# Topology sxa, (6)-cn, num edge types: 1
# Building blocks:
#     Node 0, Type 0, BuildingBlock: IZENUY_clean_sbu_0, # of connection points: 6
#     Node 1, Type 0, BuildingBlock: IZENUY_clean_sbu_0, # of connection points: 6
#     Node 2, Type 0, BuildingBlock: IZENUY_clean_sbu_0, # of connection points: 6
#     Node 3, Type 0, BuildingBlock: IZENUY_clean_sbu_0, # of connection points: 6
#     Edge 4, Type (0, 0), BuildingBlock: XIVTED_clean_linker_0, # of connection points: 2
#     Edge 5, Type (0, 0), BuildingBlock: XIVTED_clean_linker_0, # of connection points: 2
#     Edge 6, Type (0, 0), BuildingBlock: XIVTED_clean_linker_0, # of connection points: 2
#     Edge 7, Type (0, 0), BuildingBlock: XIVTED_clean_linker_0, # of connection points: 2
#     Edge 8, Type (0, 0), BuildingBlock: XIVTED_clean_linker_0, # of connection points: 2
#     Edge 9, Type (0, 0), BuildingBlock: XIVTED_clean_linker_0, # of connection points: 2
#     Edge 10, Type (0, 0), BuildingBlock: XIVTED_clean_linker_0, # of connection points: 2
#     Edge 11, Type (0, 0), BuildingBlock: XIVTED_clean_linker_0, # of connection points: 2
#     Edge 12, Type (0, 0), BuildingBlock: XIVTED_clean_linker_0, # of connection points: 2
#     Edge 13, Type (0, 0), BuildingBlock: XIVTED_clean_linker_0, # of connection points: 2
#     Edge 14, Type (0, 0), BuildingBlock: XIVTED_clean_linker_0, # of connection points: 2
#     Edge 15, Type (0, 0), BuildingBlock: XIVTED_clean_linker_0, # of connection points: 2
# Relax obj value: 0.274
# Max RMSD: 0.267
# Mean RMSD: 0.267
data_MOF--net-sxa--node1-IZENUY_clean_sbu_0--edge1-XIVTED_clean_linker_0
_symmetry_space_group_name_H-M    P1
_symmetry_Int_Tables_number       1
_symmetry_cell_setting            triclinic
loop_
_symmetry_equiv_pos_as_xyz
'x, y, z'
_cell_length_a     25.156088
_cell_length_b     27.835269
_cell_length_c     16.255984
_cell_angle_alpha  89.902853
_cell_angle_beta   90.015197
_cell_angle_gamma 89.775765
loop_
_atom_site_label
_atom_site_type_symbol
_atom_site_fract_x
_atom_site_fract_y
_atom_site_fract_z
_atom_type_partial_charge
Fe0 Fe 0.0013 0.83386 0.34922 0.0
Fe1 Fe -0.01016 0.72224 0.35833 0.0
O2 O -0.00608 0.77682 0.30045 0.0
Fe3 Fe -0.00969 0.77433 0.191 0.0
O4 O 0.05737 0.79528 0.18235 0.0
O5 O 0.04896 0.85567 0.2706 0.0
O6 O 0.05911 0.81459 0.40665 0.0
C7 C 0.07077 0.77557 0.44172 0.0
C8 C 0.94126 0.86493 0.22002 0.0
O9 O 0.04139 0.73884 0.43435 0.0
C10 C 0.90893 0.71611 0.23479 0.0
O11 O 0.95468 0.82119 0.43447 0.0
O12 O 0.9358 0.74441 0.42105 0.0
O13 O 0.96513 0.83544 0.17439 0.0
O14 O 0.94436 0.86036 0.29673 0.0
C15 C 0.04196 0.68557 0.22512 0.0
O16 O 0.93747 0.69704 0.2909 0.0
O17 O 0.92315 0.75331 0.19611 0.0
C18 C 0.9259 0.78511 0.45114 0.0
O19 O 0.04324 0.69294 0.30135 0.0
O20 O 0.0147 0.71271 0.17961 0.0
C21 C 0.07348 0.83451 0.2122 0.0
Fe22 Fe 0.49356 0.29703 0.19099 0.0
Fe23 Fe 0.49366 0.34882 0.35834 0.0
O24 O 0.48996 0.29432 0.30048 0.0
Fe25 Fe 0.48303 0.23711 0.34919 0.0
O26 O 0.53996 0.21096 0.2964 0.0
O27 O 0.51885 0.23601 0.1742 0.0
O28 O 0.56066 0.31821 0.19625 0.0
C29 C 0.57477 0.35531 0.2351 0.0
C30 C 0.41058 0.23662 0.21238 0.0
O31 O 0.54614 0.37422 0.29117 0.0
C32 C 0.41319 0.29482 0.44194 0.0
O33 O 0.46908 0.35862 0.17946 0.0
O34 O 0.44029 0.37809 0.30101 0.0
O35 O 0.43522 0.21541 0.27078 0.0
O36 O 0.42656 0.27592 0.18236 0.0
C37 C 0.55806 0.28602 0.45125 0.0
O38 O 0.44193 0.33194 0.43396 0.0
O39 O 0.42535 0.2559 0.40718 0.0
C40 C 0.4417 0.38565 0.2248 0.0
O41 O 0.54762 0.32679 0.42158 0.0
O42 O 0.52982 0.24972 0.4341 0.0
C43 C 0.54286 0.20648 0.21971 0.0
Fe44 Fe -0.00602 0.27444 0.99675 0.0
Fe45 Fe -0.01803 0.33443 0.83878 0.0
O46 O -0.00983 0.27728 0.88736 0.0
Fe47 Fe -0.00504 0.22294 0.82921 0.0
O48 O 0.94176 0.19338 0.88587 0.0
O49 O -0.03 0.2128 1.00783 0.0
O50 O 0.92678 0.29537 1.00584 0.0
C51 C 0.9103 0.33472 0.97637 0.0
C52 C 0.07583 0.21634 0.95277 0.0
O53 O 0.93443 0.35607 0.91788 0.0
C54 C 0.05805 0.28632 0.73682 0.0
O55 O 0.01877 0.33551 1.01331 0.0
O56 O 0.03885 0.36082 0.8908 0.0
O57 O 0.04745 0.19744 0.89662 0.0
O58 O 0.0613 0.25345 0.99143 0.0
C59 C 0.91323 0.2763 0.74627 0.0
O60 O 0.02834 0.32205 0.75297 0.0
O61 O 0.04893 0.24553 0.76709 0.0
C62 C 0.04226 0.3651 0.96751 0.0
O63 O 0.92413 0.31514 0.78198 0.0
O64 O 0.9434 0.2398 0.75297 0.0
C65 C 0.94294 0.18585 0.96214 0.0
Fe66 Fe 0.48922 0.8492 0.82877 0.0
Fe67 Fe 0.50167 0.7376 0.83823 0.0
O68 O 0.49366 0.79468 0.88682 0.0
Fe69 Fe 0.48972 0.79727 0.99624 0.0
O70 O 0.42243 0.81833 0.9906 0.0
O71 O 0.43651 0.87453 0.89582 0.0
O72 O 0.43547 0.82698 0.76592 0.0
C73 C 0.42604 0.78626 0.73581 0.0
C74 C 0.54089 0.88591 0.96216 0.0
O75 O 0.45519 0.75023 0.75259 0.0
C76 C 0.57337 0.73699 0.97591 0.0
O77 O 0.54101 0.83249 0.75301 0.0
O78 O 0.55949 0.75684 0.78122 0.0
O79 O 0.51367 0.85888 1.0076 0.0
O80 O 0.5423 0.87851 0.88593 0.0
C81 C 0.44143 0.70669 0.96701 0.0
O82 O 0.54926 0.71581 0.9173 0.0
O83 O 0.55689 0.77626 1.0055 0.0
C84 C 0.5708 0.7958 0.74596 0.0
O85 O 0.44479 0.71117 0.89031 0.0
O86 O 0.46491 0.7362 1.0128 0.0
C87 C 0.40799 0.85551 0.9518 0.0
H88 H 0.07094 0.44885 0.88874 0.0
H89 H 0.06869 0.60171 0.30623 0.0
H90 H 0.05717 0.38602 0.13067 0.0
H91 H 0.05871 0.66377 1.0633 0.0
H92 H 0.08361 0.52267 0.24371 0.0
H93 H 0.08576 0.52727 0.95243 0.0
C94 C 0.07209 0.45125 0.95521 0.0
C95 C 0.06207 0.41067 1.00424 0.0
C96 C 0.07898 0.55374 0.20413 0.0
C97 C 0.07852 0.50076 1.07776 0.0
C98 C 0.07082 0.59898 0.23986 0.0
C99 C 0.06184 0.6395 0.19004 0.0
C100 C 0.0784 0.54894 0.11796 0.0
C101 C 0.06484 0.63354 0.10425 0.0
C102 C 0.08026 0.49619 0.99161 0.0
C103 C 0.06411 0.41628 1.09022 0.0
N104 N 0.0723 0.58919 1.07107 0.0
N105 N 0.07147 0.46045 0.12411 0.0
H106 H 0.41488 0.46936 0.30578 0.0
H107 H 0.41295 0.62303 0.8882 0.0
H108 H 0.42521 0.40776 1.06291 0.0
H109 H 0.42649 0.68542 0.13014 0.0
H110 H 0.3982 0.54447 0.95188 0.0
H111 H 0.40005 0.54853 0.24317 0.0
C112 C 0.41284 0.47222 0.2394 0.0
C113 C 0.42189 0.43179 0.18962 0.0
C114 C 0.40364 0.57548 0.99106 0.0
C115 C 0.40544 0.5225 0.11744 0.0
C116 C 0.41176 0.62051 0.95466 0.0
C117 C 0.42168 0.66102 1.0037 0.0
C118 C 0.40532 0.57076 1.07722 0.0
C119 C 0.41961 0.65523 1.08968 0.0
C120 C 0.40475 0.51753 0.20362 0.0
C121 C 0.41902 0.43792 0.10382 0.0
N122 N 0.41229 0.61099 0.12356 0.0
N123 N 0.4116 0.48233 1.0706 0.0
H124 H 0.56798 0.96949 0.88108 0.0
H125 H 0.57148 0.1225 0.29846 0.0
H126 H 0.55733 0.90766 0.12406 0.0
H127 H 0.55739 0.18538 1.05653 0.0
H128 H 0.58574 0.04388 0.23478 0.0
H129 H 0.58329 0.04838 0.94356 0.0
C130 C 0.57001 0.97223 0.94746 0.0
C131 C 0.56075 0.93183 0.9973 0.0
C132 C 0.5803 0.07501 0.19559 0.0
C133 C 0.5778 1.02223 1.06932 0.0
C134 C 0.57247 0.12006 0.23198 0.0
C135 C 0.56251 0.16073 0.18296 0.0
C136 C 0.57829 0.07043 0.10946 0.0
C137 C 0.5643 0.15506 0.09698 0.0
C138 C 0.57841 1.01739 0.98316 0.0
C139 C 0.56367 0.9378 1.08309 0.0
N140 N 0.57134 0.11079 1.06311 0.0
N141 N 0.57139 0.98208 0.11624 0.0
H142 H 0.91271 0.94881 0.29867 0.0
H143 H 0.91627 0.10232 0.881 0.0
H144 H 0.92646 0.88622 1.05684 0.0
H145 H 0.92592 0.1639 0.12392 0.0
H146 H 0.90097 1.02333 0.94355 0.0
H147 H 0.89828 1.02749 0.23484 0.0
C148 C 0.91161 0.95133 0.23219 0.0
C149 C 0.92153 0.91072 0.18324 0.0
C150 C 0.90562 0.05428 0.98311 0.0
C151 C 0.90557 1.0011 0.10956 0.0
C152 C 0.91401 0.09951 0.94737 0.0
C153 C 0.923 0.13986 0.99719 0.0
C154 C 0.90598 0.04934 1.0693 0.0
C155 C 0.91981 0.13379 1.08297 0.0
C156 C 0.90369 0.99642 0.19571 0.0
C157 C 0.91959 0.91649 0.09725 0.0
N158 N 0.91212 0.08946 0.11616 0.0
N159 N 0.91248 0.96079 1.06328 0.0
H160 H 0.3704 0.85785 0.65942 0.0
H161 H 0.12398 0.69654 0.50909 0.0
H162 H 0.36838 0.7043 0.6954 0.0
H163 H 0.13596 0.85035 0.48143 0.0
H164 H 0.21202 0.69616 0.57631 0.0
H165 H 0.28505 0.8531 0.59035 0.0
C166 C 0.35231 0.82287 0.65213 0.0
C167 C 0.37719 0.78142 0.68358 0.0
C168 C 0.19511 0.72991 0.55566 0.0
C169 C 0.27739 0.77571 0.60434 0.0
C170 C 0.14463 0.73022 0.5177 0.0
C171 C 0.12192 0.77356 0.48937 0.0
C172 C 0.22321 0.77324 0.56541 0.0
C173 C 0.15123 0.81592 0.50183 0.0
C174 C 0.30309 0.82019 0.6127 0.0
C175 C 0.35113 0.73721 0.6717 0.0
N176 N 0.19983 0.81458 0.53842 0.0
N177 N 0.30257 0.73554 0.63357 0.0
H178 H 0.11185 0.3694 0.69025 0.0
H179 H 0.35232 0.21863 0.48912 0.0
H180 H 0.11827 0.21505 0.6682 0.0
H181 H 0.35622 0.37338 0.50319 0.0
H182 H 0.26608 0.21907 0.55544 0.0
H183 H 0.19882 0.37413 0.62034 0.0
C184 C 0.13094 0.3366 0.66977 0.0
C185 C 0.10719 0.29173 0.68534 0.0
C186 C 0.28553 0.25313 0.54456 0.0
C187 C 0.20728 0.29689 0.60635 0.0
C188 C 0.3353 0.25293 0.50662 0.0
C189 C 0.36228 0.29607 0.49017 0.0
C190 C 0.26138 0.2968 0.56687 0.0
C191 C 0.33736 0.33917 0.51489 0.0
C192 C 0.18086 0.33933 0.63044 0.0
C193 C 0.13453 0.25052 0.6581 0.0
N194 N 0.28832 0.33847 0.55169 0.0
N195 N 0.18266 0.25416 0.62057 0.0
H196 H 0.86138 0.1973 0.67803 0.0
H197 H 0.61287 0.35788 0.52705 0.0
H198 H 0.84691 0.35088 0.70702 0.0
H199 H 0.61692 0.20433 0.4919 0.0
H200 H 0.69826 0.3534 0.59628 0.0
H201 H 0.77347 0.19674 0.61041 0.0
C202 C 0.84021 0.2309 0.66963 0.0
C203 C 0.86218 0.27422 0.69845 0.0
C204 C 0.68066 0.32044 0.57407 0.0
C205 C 0.76105 0.2737 0.62193 0.0
C206 C 0.63142 0.32295 0.53454 0.0
C207 C 0.60708 0.28142 0.5033 0.0
C208 C 0.70692 0.27604 0.58273 0.0
C209 C 0.63373 0.23731 0.51541 0.0
C210 C 0.7898 0.23049 0.63144 0.0
C211 C 0.83222 0.31647 0.68625 0.0
N212 N 0.68228 0.23579 0.55364 0.0
N213 N 0.78371 0.31504 0.6494 0.0
H214 H 0.87079 0.71342 0.52713 0.0
H215 H 0.62317 0.87474 0.67806 0.0
H216 H 0.86758 0.86703 0.49188 0.0
H217 H 0.63679 0.72102 0.7068 0.0
H218 H 0.7111 0.87509 0.6106 0.0
H219 H 0.78548 0.71815 0.59642 0.0
C220 C 0.85244 0.74841 0.53461 0.0
C221 C 0.87699 0.78989 0.50332 0.0
C222 C 0.69458 0.84136 0.63155 0.0
C223 C 0.77723 0.79556 0.58283 0.0
C224 C 0.64416 0.84107 0.66965 0.0
C225 C 0.62193 0.79777 0.69834 0.0
C226 C 0.72311 0.79805 0.62199 0.0
C227 C 0.65168 0.75542 0.68612 0.0
C228 C 0.80325 0.75107 0.57418 0.0
C229 C 0.8506 0.8341 0.51545 0.0
N230 N 0.7002 0.75674 0.64936 0.0
N231 N 0.80207 0.83575 0.5537 0.0
H232 H 0.31863 0.87578 0.86341 0.0
H233 H 0.1517 0.8907 0.2791 0.0
H234 H 0.38735 0.88659 0.10544 0.0
H235 H 0.09497 0.83315 1.04918 0.0
H236 H 0.2318 0.9195 0.20784 0.0
H237 H 0.23064 0.89212 0.92301 0.0
C238 C 0.31527 0.88344 0.92855 0.0
C239 C 0.35949 0.87931 0.98019 0.0
C240 C 0.20118 0.90142 0.17291 0.0
C241 C 0.26012 0.89709 1.04849 0.0
C242 C 0.15572 0.88501 0.21348 0.0
C243 C 0.11779 0.85845 0.17016 0.0
C244 C 0.20792 0.89156 1.08868 0.0
C245 C 0.12425 0.85233 1.08512 0.0
C246 C 0.26525 0.8924 0.96264 0.0
C247 C 0.3536 0.889 1.06422 0.0
N248 N 0.16879 0.86828 1.04729 0.0
N249 N 0.30456 0.89672 0.09617 0.0
H250 H 0.16497 0.19546 0.86445 0.0
H251 H 0.33238 0.18059 0.27989 0.0
H252 H 0.09658 0.18569 0.10684 0.0
H253 H 0.38898 0.23783 1.04938 0.0
H254 H 0.25211 0.15189 0.20904 0.0
H255 H 0.25297 0.1788 0.92402 0.0
C256 C 0.16839 0.18797 0.92969 0.0
C257 C 0.12429 0.1925 0.98141 0.0
C258 C 0.28275 0.16987 0.1739 0.0
C259 C 0.22364 0.17432 1.04964 0.0
C260 C 0.32829 0.18622 0.21423 0.0
C261 C 0.36623 0.21267 0.17061 0.0
C262 C 0.27592 0.17968 1.0896 0.0
C263 C 0.35969 0.21873 1.08553 0.0
C264 C 0.21841 0.17883 0.96374 0.0
C265 C 0.13025 0.183 1.06555 0.0
N266 N 0.31507 0.20285 1.04793 0.0
N267 N 0.17928 0.17508 0.09745 0.0
H268 H 0.59286 0.39016 1.083 0.0
H269 H 0.89341 0.33654 0.14044 0.0
H270 H 0.66581 0.37198 0.32078 0.0
H271 H 0.82821 0.38753 0.91089 0.0
H272 H 0.81439 0.36509 0.21174 0.0
H273 H 0.67996 0.40687 1.02345 0.0
C274 C 0.62733 0.39128 0.12297 0.0
C275 C 0.62284 0.37933 0.20636 0.0
C276 C 0.8175 0.37094 0.14605 0.0
C277 C 0.72244 0.39651 0.13873 0.0
C278 C 0.86244 0.3543 0.10524 0.0
C279 C 0.86639 0.35869 1.01956 0.0
C280 C 0.77552 0.39098 0.10052 0.0
C281 C 0.82607 0.38296 0.97697 0.0
C282 C 0.67701 0.40068 1.08907 0.0
C283 C 0.6681 0.38103 0.25605 0.0
N284 N 0.78151 0.39724 1.01772 0.0
N285 N 0.71646 0.38825 0.221 0.0
H286 H 0.89089 0.68211 1.0823 0.0
H287 H 0.59027 0.73459 0.13997 0.0
H288 H 0.81795 0.69875 0.32026 0.0
H289 H 0.6555 0.68453 0.9102 0.0
H290 H 0.66937 0.70591 0.21116 0.0
H291 H 0.80385 0.66538 1.0226 0.0
C292 C 0.85644 0.68067 0.12225 0.0
C293 C 0.8609 0.6922 0.20576 0.0
C294 C 0.66625 0.70028 0.14544 0.0
C295 C 0.76136 0.67496 0.13798 0.0
C296 C 0.62127 0.717 0.1047 0.0
C297 C 0.61731 0.71292 1.019 0.0
C298 C 0.70826 0.68049 0.09981 0.0
C299 C 0.65766 0.68886 0.9763 0.0
C300 C 0.8068 0.67124 1.08828 0.0
C301 C 0.81567 0.69004 0.25544 0.0
N302 N 0.70225 0.67451 1.01699 0.0
N303 N 0.76734 0.68281 0.22033 0.0
loop_
_geom_bond_atom_site_label_1
_geom_bond_atom_site_label_2
_geom_bond_distance
_geom_bond_site_symmetry_2
_ccdc_geom_bond_type
Fe0 O2 1.918 . S
Fe0 O5 1.997 . S
Fe0 O6 2.002 . S
Fe0 O11 1.976 . S
Fe0 O14 1.996 . S
Fe1 O2 1.918 1_655 S
Fe1 O9 1.997 1_655 S
Fe1 O12 1.996 . S
Fe1 O16 1.976 . S
Fe1 O19 2.002 1_655 S
O2 Fe0 1.918 . S
O2 Fe1 1.918 1_455 S
O2 Fe3 1.918 . S
Fe3 O2 1.918 . S
Fe3 O4 2.002 . S
Fe3 O13 1.976 . S
Fe3 O17 1.996 1_455 S
Fe3 O20 1.997 . S
O4 Fe3 2.002 . S
O4 C21 1.295 . S
O5 Fe0 1.997 . S
O5 C21 1.235 . S
O6 Fe0 2.002 . S
O6 C7 1.295 . S
C7 O6 1.295 . S
C7 O9 1.235 . S
C8 O13 1.287 . S
C8 O14 1.255 . S
O9 Fe1 1.997 1_455 S
O9 C7 1.235 . S
C10 O16 1.287 . S
C10 O17 1.255 . S
O11 Fe0 1.976 . S
O11 C18 1.287 1_455 S
O12 Fe1 1.996 . S
O12 C18 1.255 . S
O13 Fe3 1.976 . S
O13 C8 1.287 . S
O14 Fe0 1.996 . S
O14 C8 1.255 . S
C15 O19 1.295 . S
C15 O20 1.235 . S
O16 Fe1 1.976 . S
O16 C10 1.287 . S
O17 Fe3 1.996 1_655 S
O17 C10 1.255 . S
C18 O11 1.287 1_655 S
C18 O12 1.255 . S
O19 Fe1 2.002 1_455 S
O19 C15 1.295 . S
O20 Fe3 1.997 . S
O20 C15 1.235 . S
C21 O4 1.295 . S
C21 O5 1.235 . S
Fe22 O24 1.918 . S
Fe22 O27 1.997 . S
Fe22 O28 2.002 . S
Fe22 O33 1.976 . S
Fe22 O36 1.996 . S
Fe23 O24 1.918 . S
Fe23 O31 1.997 . S
Fe23 O34 1.996 . S
Fe23 O38 1.976 . S
Fe23 O41 2.002 . S
O24 Fe22 1.918 . S
O24 Fe23 1.918 . S
O24 Fe25 1.918 . S
Fe25 O24 1.918 . S
Fe25 O26 2.002 . S
Fe25 O35 1.976 . S
Fe25 O39 1.996 . S
Fe25 O42 1.997 . S
O26 Fe25 2.002 . S
O26 C43 1.295 . S
O27 Fe22 1.997 . S
O27 C43 1.235 . S
O28 Fe22 2.002 . S
O28 C29 1.295 . S
C29 O28 1.295 . S
C29 O31 1.235 . S
C30 O35 1.287 . S
C30 O36 1.255 . S
O31 Fe23 1.997 . S
O31 C29 1.235 . S
C32 O38 1.287 . S
C32 O39 1.255 . S
O33 Fe22 1.976 . S
O33 C40 1.287 . S
O34 Fe23 1.996 . S
O34 C40 1.255 . S
O35 Fe25 1.976 . S
O35 C30 1.287 . S
O36 Fe22 1.996 . S
O36 C30 1.255 . S
C37 O41 1.295 . S
C37 O42 1.235 . S
O38 Fe23 1.976 . S
O38 C32 1.287 . S
O39 Fe25 1.996 . S
O39 C32 1.255 . S
C40 O33 1.287 . S
C40 O34 1.255 . S
O41 Fe23 2.002 . S
O41 C37 1.295 . S
O42 Fe25 1.997 . S
O42 C37 1.235 . S
C43 O26 1.295 . S
C43 O27 1.235 . S
Fe44 O46 1.918 . S
Fe44 O49 1.997 . S
Fe44 O50 2.002 1_455 S
Fe44 O55 1.976 . S
Fe44 O58 1.996 . S
Fe45 O46 1.918 1_655 S
Fe45 O53 1.997 . S
Fe45 O56 1.996 1_655 S
Fe45 O60 1.976 1_655 S
Fe45 O63 2.002 . S
O46 Fe44 1.918 . S
O46 Fe45 1.918 1_455 S
O46 Fe47 1.918 . S
Fe47 O46 1.918 . S
Fe47 O48 2.002 . S
Fe47 O57 1.976 . S
Fe47 O61 1.996 . S
Fe47 O64 1.997 . S
O48 Fe47 2.002 . S
O48 C65 1.295 . S
O49 Fe44 1.997 . S
O49 C65 1.235 . S
O50 Fe44 2.002 1_655 S
O50 C51 1.295 . S
C51 O50 1.295 . S
C51 O53 1.235 . S
C52 O57 1.287 . S
C52 O58 1.255 . S
O53 Fe45 1.997 . S
O53 C51 1.235 . S
C54 O60 1.287 . S
C54 O61 1.255 . S
O55 Fe44 1.976 . S
O55 C62 1.287 . S
O56 Fe45 1.996 1_455 S
O56 C62 1.255 . S
O57 Fe47 1.976 . S
O57 C52 1.287 . S
O58 Fe44 1.996 . S
O58 C52 1.255 . S
C59 O63 1.295 . S
C59 O64 1.235 1_655 S
O60 Fe45 1.976 1_455 S
O60 C54 1.287 . S
O61 Fe47 1.996 . S
O61 C54 1.255 . S
C62 O55 1.287 . S
C62 O56 1.255 . S
O63 Fe45 2.002 . S
O63 C59 1.295 . S
O64 Fe47 1.997 . S
O64 C59 1.235 1_455 S
C65 O48 1.295 . S
C65 O49 1.235 . S
Fe66 O68 1.918 . S
Fe66 O71 1.997 . S
Fe66 O72 2.002 . S
Fe66 O77 1.976 . S
Fe66 O80 1.996 . S
Fe67 O68 1.918 . S
Fe67 O75 1.997 . S
Fe67 O78 1.996 . S
Fe67 O82 1.976 . S
Fe67 O85 2.002 . S
O68 Fe66 1.918 . S
O68 Fe67 1.918 . S
O68 Fe69 1.918 . S
Fe69 O68 1.918 . S
Fe69 O70 2.002 . S
Fe69 O79 1.976 . S
Fe69 O83 1.996 . S
Fe69 O86 1.997 . S
O70 Fe69 2.002 . S
O70 C87 1.295 . S
O71 Fe66 1.997 . S
O71 C87 1.235 . S
O72 Fe66 2.002 . S
O72 C73 1.295 . S
C73 O72 1.295 . S
C73 O75 1.235 . S
C74 O79 1.287 . S
C74 O80 1.255 . S
O75 Fe67 1.997 . S
O75 C73 1.235 . S
C76 O82 1.287 . S
C76 O83 1.255 . S
O77 Fe66 1.976 . S
O77 C84 1.287 . S
O78 Fe67 1.996 . S
O78 C84 1.255 . S
O79 Fe69 1.976 . S
O79 C74 1.287 . S
O80 Fe66 1.996 . S
O80 C74 1.255 . S
C81 O85 1.295 . S
C81 O86 1.235 . S
O82 Fe67 1.976 . S
O82 C76 1.287 . S
O83 Fe69 1.996 . S
O83 C76 1.255 . S
C84 O77 1.287 . S
C84 O78 1.255 . S
O85 Fe67 2.002 . S
O85 C81 1.295 . S
O86 Fe69 1.997 . S
O86 C81 1.235 . S
C87 O70 1.295 . S
C87 O71 1.235 . S
H88 C94 0.930 1_655 S
H89 C98 0.930 . S
H90 C103 0.929 1_554 S
H91 C101 0.929 1_656 S
H92 C96 0.929 . S
H93 C102 0.929 1_655 S
C94 H88 0.930 1_455 S
C94 C95 1.367 . S
C94 C102 1.378 . S
C95 C94 1.367 . S
C95 C103 1.433 . S
C96 H92 0.929 . S
C96 C98 1.378 . S
C96 C100 1.350 . S
C97 C100 1.463 1_556 S
C97 C102 1.350 . S
C97 N105 1.427 1_556 S
C98 H89 0.930 . S
C98 C96 1.378 . S
C98 C99 1.367 . S
C99 C98 1.367 . S
C99 C101 1.433 . S
C100 C96 1.350 . S
C100 C97 1.463 1_554 S
C100 N104 1.427 1_554 S
C101 H91 0.929 1_454 S
C101 C99 1.433 . S
C101 N104 1.384 1_554 S
C102 H93 0.929 1_455 S
C102 C94 1.378 . S
C102 C97 1.350 . S
C103 H90 0.929 1_556 S
C103 C95 1.433 . S
C103 N105 1.384 1_556 S
N104 C100 1.427 1_556 S
N104 C101 1.384 1_556 S
N105 C97 1.427 1_554 S
N105 C103 1.384 1_554 S
H106 C112 0.930 . S
H107 C116 0.930 . S
H108 C121 0.929 1_556 S
H109 C119 0.929 1_554 S
H110 C114 0.929 . S
H111 C120 0.929 . S
C112 H106 0.930 . S
C112 C113 1.367 . S
C112 C120 1.378 . S
C113 C112 1.367 . S
C113 C121 1.433 . S
C114 H110 0.929 . S
C114 C116 1.378 . S
C114 C118 1.350 . S
C115 C118 1.463 1_554 S
C115 C120 1.350 . S
C115 N123 1.427 1_554 S
C116 H107 0.930 . S
C116 C114 1.378 . S
C116 C117 1.367 . S
C117 C116 1.367 . S
C117 C119 1.433 . S
C118 C114 1.350 . S
C118 C115 1.463 1_556 S
C118 N122 1.427 1_556 S
C119 H109 0.929 1_556 S
C119 C117 1.433 . S
C119 N122 1.384 1_556 S
C120 H111 0.929 . S
C120 C112 1.378 . S
C120 C115 1.350 . S
C121 H108 0.929 1_554 S
C121 C113 1.433 . S
C121 N123 1.384 1_554 S
N122 C118 1.427 1_554 S
N122 C119 1.384 1_554 S
N123 C115 1.427 1_556 S
N123 C121 1.384 1_556 S
H124 C130 0.930 . S
H125 C134 0.930 . S
H126 C139 0.929 1_554 S
H127 C137 0.929 1_556 S
H128 C132 0.929 . S
H129 C138 0.929 1_545 S
C130 H124 0.930 . S
C130 C131 1.367 . S
C130 C138 1.378 . S
C131 C130 1.367 . S
C131 C139 1.433 . S
C132 H128 0.929 . S
C132 C134 1.378 . S
C132 C136 1.350 . S
C133 C136 1.463 1_566 S
C133 C138 1.350 . S
C133 N141 1.427 1_556 S
C134 H125 0.930 . S
C134 C132 1.378 . S
C134 C135 1.367 . S
C135 C134 1.367 . S
C135 C137 1.433 . S
C136 C132 1.350 . S
C136 C133 1.463 1_544 S
C136 N140 1.427 1_554 S
C137 H127 0.929 1_554 S
C137 C135 1.433 . S
C137 N140 1.384 1_554 S
C138 H129 0.929 1_565 S
C138 C130 1.378 . S
C138 C133 1.350 . S
C139 H126 0.929 1_556 S
C139 C131 1.433 . S
C139 N141 1.384 1_556 S
N140 C136 1.427 1_556 S
N140 C137 1.384 1_556 S
N141 C133 1.427 1_554 S
N141 C139 1.384 1_554 S
H142 C148 0.930 . S
H143 C152 0.930 . S
H144 C157 0.929 . S
H145 C155 0.929 . S
H146 C150 0.929 . S
H147 C156 0.929 . S
C148 H142 0.930 . S
C148 C149 1.367 . S
C148 C156 1.378 . S
C149 C148 1.367 . S
C149 C157 1.433 1_455 S
C150 H146 0.929 . S
C150 C152 1.378 . S
C150 C154 1.350 1_655 S
C151 C154 1.463 1_564 S
C151 C156 1.350 . S
C151 N159 1.427 1_454 S
C152 H143 0.930 . S
C152 C150 1.378 . S
C152 C153 1.367 1_655 S
C153 C152 1.367 1_455 S
C153 C155 1.433 . S
C154 C150 1.350 1_455 S
C154 C151 1.463 1_546 S
C154 N158 1.427 1_556 S
C155 H145 0.929 . S
C155 C153 1.433 . S
C155 N158 1.384 1_556 S
C156 H147 0.929 . S
C156 C148 1.378 . S
C156 C151 1.350 . S
C157 H144 0.929 . S
C157 C149 1.433 1_655 S
C157 N159 1.384 1_554 S
N158 C154 1.427 1_554 S
N158 C155 1.384 1_554 S
N159 C151 1.427 1_656 S
N159 C157 1.384 1_556 S
H160 C166 0.930 . S
H161 C170 0.930 . S
H162 C175 0.929 . S
H163 C173 0.929 . S
H164 C168 0.929 . S
H165 C174 0.929 . S
C166 H160 0.930 . S
C166 C167 1.367 . S
C166 C174 1.378 . S
C167 C166 1.367 . S
C167 C175 1.433 . S
C168 H164 0.929 . S
C168 C170 1.378 . S
C168 C172 1.350 . S
C169 C172 1.463 . S
C169 C174 1.350 . S
C169 N177 1.427 . S
C170 H161 0.930 . S
C170 C168 1.378 . S
C170 C171 1.367 . S
C171 C170 1.367 . S
C171 C173 1.433 . S
C172 C168 1.350 . S
C172 C169 1.463 . S
C172 N176 1.427 . S
C173 H163 0.929 . S
C173 C171 1.433 . S
C173 N176 1.384 . S
C174 H165 0.929 . S
C174 C166 1.378 . S
C174 C169 1.350 . S
C175 H162 0.929 . S
C175 C167 1.433 . S
C175 N177 1.384 . S
N176 C172 1.427 . S
N176 C173 1.384 . S
N177 C169 1.427 . S
N177 C175 1.384 . S
H178 C184 0.930 . S
H179 C188 0.930 . S
H180 C193 0.929 . S
H181 C191 0.929 . S
H182 C186 0.929 . S
H183 C192 0.929 . S
C184 H178 0.930 . S
C184 C185 1.367 . S
C184 C192 1.378 . S
C185 C184 1.367 . S
C185 C193 1.433 . S
C186 H182 0.929 . S
C186 C188 1.378 . S
C186 C190 1.350 . S
C187 C190 1.463 . S
C187 C192 1.350 . S
C187 N195 1.427 . S
C188 H179 0.930 . S
C188 C186 1.378 . S
C188 C189 1.367 . S
C189 C188 1.367 . S
C189 C191 1.433 . S
C190 C186 1.350 . S
C190 C187 1.463 . S
C190 N194 1.427 . S
C191 H181 0.929 . S
C191 C189 1.433 . S
C191 N194 1.384 . S
C192 H183 0.929 . S
C192 C184 1.378 . S
C192 C187 1.350 . S
C193 H180 0.929 . S
C193 C185 1.433 . S
C193 N195 1.384 . S
N194 C190 1.427 . S
N194 C191 1.384 . S
N195 C187 1.427 . S
N195 C193 1.384 . S
H196 C202 0.930 . S
H197 C206 0.930 . S
H198 C211 0.929 . S
H199 C209 0.929 . S
H200 C204 0.929 . S
H201 C210 0.929 . S
C202 H196 0.930 . S
C202 C203 1.367 . S
C202 C210 1.378 . S
C203 C202 1.367 . S
C203 C211 1.433 . S
C204 H200 0.929 . S
C204 C206 1.378 . S
C204 C208 1.350 . S
C205 C208 1.463 . S
C205 C210 1.350 . S
C205 N213 1.427 . S
C206 H197 0.930 . S
C206 C204 1.378 . S
C206 C207 1.367 . S
C207 C206 1.367 . S
C207 C209 1.433 . S
C208 C204 1.350 . S
C208 C205 1.463 . S
C208 N212 1.427 . S
C209 H199 0.929 . S
C209 C207 1.433 . S
C209 N212 1.384 . S
C210 H201 0.929 . S
C210 C202 1.378 . S
C210 C205 1.350 . S
C211 H198 0.929 . S
C211 C203 1.433 . S
C211 N213 1.384 . S
N212 C208 1.427 . S
N212 C209 1.384 . S
N213 C205 1.427 . S
N213 C211 1.384 . S
H214 C220 0.930 . S
H215 C224 0.930 . S
H216 C229 0.929 . S
H217 C227 0.929 . S
H218 C222 0.929 . S
H219 C228 0.929 . S
C220 H214 0.930 . S
C220 C221 1.367 . S
C220 C228 1.378 . S
C221 C220 1.367 . S
C221 C229 1.433 . S
C222 H218 0.929 . S
C222 C224 1.378 . S
C222 C226 1.350 . S
C223 C226 1.463 . S
C223 C228 1.350 . S
C223 N231 1.427 . S
C224 H215 0.930 . S
C224 C222 1.378 . S
C224 C225 1.367 . S
C225 C224 1.367 . S
C225 C227 1.433 . S
C226 C222 1.350 . S
C226 C223 1.463 . S
C226 N230 1.427 . S
C227 H217 0.929 . S
C227 C225 1.433 . S
C227 N230 1.384 . S
C228 H219 0.929 . S
C228 C220 1.378 . S
C228 C223 1.350 . S
C229 H216 0.929 . S
C229 C221 1.433 . S
C229 N231 1.384 . S
N230 C226 1.427 . S
N230 C227 1.384 . S
N231 C223 1.427 . S
N231 C229 1.384 . S
H232 C238 0.930 . S
H233 C242 0.930 . S
H234 C247 0.929 . S
H235 C245 0.929 . S
H236 C240 0.929 . S
H237 C246 0.929 . S
C238 H232 0.930 . S
C238 C239 1.367 . S
C238 C246 1.378 . S
C239 C238 1.367 . S
C239 C247 1.433 . S
C240 H236 0.929 . S
C240 C242 1.378 . S
C240 C244 1.350 . S
C241 C244 1.463 1_556 S
C241 C246 1.350 . S
C241 N249 1.427 . S
C242 H233 0.930 . S
C242 C240 1.378 . S
C242 C243 1.367 . S
C243 C242 1.367 . S
C243 C245 1.433 . S
C244 C240 1.350 . S
C244 C241 1.463 1_554 S
C244 N248 1.427 . S
C245 H235 0.929 . S
C245 C243 1.433 . S
C245 N248 1.384 . S
C246 H237 0.929 . S
C246 C238 1.378 . S
C246 C241 1.350 . S
C247 H234 0.929 . S
C247 C239 1.433 . S
C247 N249 1.384 . S
N248 C244 1.427 . S
N248 C245 1.384 . S
N249 C241 1.427 . S
N249 C247 1.384 . S
H250 C256 0.930 . S
H251 C260 0.930 . S
H252 C265 0.929 . S
H253 C263 0.929 . S
H254 C258 0.929 . S
H255 C264 0.929 . S
C256 H250 0.930 . S
C256 C257 1.367 . S
C256 C264 1.378 . S
C257 C256 1.367 . S
C257 C265 1.433 . S
C258 H254 0.929 . S
C258 C260 1.378 . S
C258 C262 1.350 . S
C259 C262 1.463 1_556 S
C259 C264 1.350 . S
C259 N267 1.427 . S
C260 H251 0.930 . S
C260 C258 1.378 . S
C260 C261 1.367 . S
C261 C260 1.367 . S
C261 C263 1.433 . S
C262 C258 1.350 . S
C262 C259 1.463 1_554 S
C262 N266 1.427 . S
C263 H253 0.929 . S
C263 C261 1.433 . S
C263 N266 1.384 . S
C264 H255 0.929 . S
C264 C256 1.378 . S
C264 C259 1.350 . S
C265 H252 0.929 . S
C265 C257 1.433 . S
C265 N267 1.384 . S
N266 C262 1.427 . S
N266 C263 1.384 . S
N267 C259 1.427 . S
N267 C265 1.384 . S
H268 C274 0.930 . S
H269 C278 0.930 . S
H270 C283 0.929 . S
H271 C281 0.929 . S
H272 C276 0.929 . S
H273 C282 0.929 . S
C274 H268 0.930 . S
C274 C275 1.367 . S
C274 C282 1.378 . S
C275 C274 1.367 . S
C275 C283 1.433 . S
C276 H272 0.929 . S
C276 C278 1.378 . S
C276 C280 1.350 . S
C277 C280 1.463 1_554 S
C277 C282 1.350 . S
C277 N285 1.427 . S
C278 H269 0.930 . S
C278 C276 1.378 . S
C278 C279 1.367 . S
C279 C278 1.367 . S
C279 C281 1.433 . S
C280 C276 1.350 . S
C280 C277 1.463 1_556 S
C280 N284 1.427 . S
C281 H271 0.929 . S
C281 C279 1.433 . S
C281 N284 1.384 . S
C282 H273 0.929 . S
C282 C274 1.378 . S
C282 C277 1.350 . S
C283 H270 0.929 . S
C283 C275 1.433 . S
C283 N285 1.384 . S
N284 C280 1.427 . S
N284 C281 1.384 . S
N285 C277 1.427 . S
N285 C283 1.384 . S
H286 C292 0.930 . S
H287 C296 0.930 . S
H288 C301 0.929 . S
H289 C299 0.929 . S
H290 C294 0.929 1_554 S
H291 C300 0.929 1_556 S
C292 H286 0.930 . S
C292 C293 1.367 . S
C292 C300 1.378 . S
C293 C292 1.367 . S
C293 C301 1.433 . S
C294 H290 0.929 1_556 S
C294 C296 1.378 . S
C294 C298 1.350 . S
C295 C298 1.463 1_554 S
C295 C300 1.350 . S
C295 N303 1.427 . S
C296 H287 0.930 . S
C296 C294 1.378 . S
C296 C297 1.367 . S
C297 C296 1.367 . S
C297 C299 1.433 . S
C298 C294 1.350 . S
C298 C295 1.463 1_556 S
C298 N302 1.427 . S
C299 H289 0.929 . S
C299 C297 1.433 . S
C299 N302 1.384 . S
C300 H291 0.929 1_554 S
C300 C292 1.378 . S
C300 C295 1.350 . S
C301 H288 0.929 . S
C301 C293 1.433 . S
C301 N303 1.384 . S
N302 C298 1.427 . S
N302 C299 1.384 . S
N303 C295 1.427 . S
N303 C301 1.384 . S
C95 C62 1.587 . S
C99 C15 1.574 . S
C113 C40 1.588 . S
C117 C81 1.573 . S
C131 C74 1.588 . S
C135 C43 1.573 . S
C149 C8 1.587 . S
C153 C65 1.574 . S
C167 C73 2.209 . S
C171 C7 2.216 . S
C185 C54 2.156 . S
C189 C32 2.148 . S
C203 C59 2.217 . S
C207 C37 2.208 . S
C221 C18 2.150 . S
C225 C84 2.157 . S
C239 C87 0.430 . S
C243 C21 0.428 . S
C257 C52 0.314 . S
C261 C30 0.329 . S
C275 C29 0.435 . S
C279 C51 0.437 . S
C293 C10 0.315 . S
C297 C76 0.302 . S
