# Generated by pormake.
# Topology uoo, (4)-cn, num edge types: 1
# Building blocks:
#     Node 0, Type 0, BuildingBlock: QUQFOY_clean_sbu_1, # of connection points: 4
#     Node 1, Type 0, BuildingBlock: QUQFOY_clean_sbu_1, # of connection points: 4
#     Node 2, Type 0, BuildingBlock: QUQFOY_clean_sbu_1, # of connection points: 4
#     Node 3, Type 0, BuildingBlock: QUQFOY_clean_sbu_1, # of connection points: 4
#     Node 4, Type 0, BuildingBlock: QUQFOY_clean_sbu_1, # of connection points: 4
#     Node 5, Type 0, BuildingBlock: QUQFOY_clean_sbu_1, # of connection points: 4
#     Edge 6, Type (0, 0), BuildingBlock: TEMPAE_clean_linker_10, # of connection points: 2
#     Edge 7, Type (0, 0), BuildingBlock: TEMPAE_clean_linker_10, # of connection points: 2
#     Edge 8, Type (0, 0), BuildingBlock: TEMPAE_clean_linker_10, # of connection points: 2
#     Edge 9, Type (0, 0), BuildingBlock: TEMPAE_clean_linker_10, # of connection points: 2
#     Edge 10, Type (0, 0), BuildingBlock: TEMPAE_clean_linker_10, # of connection points: 2
#     Edge 11, Type (0, 0), BuildingBlock: TEMPAE_clean_linker_10, # of connection points: 2
#     Edge 12, Type (0, 0), BuildingBlock: TEMPAE_clean_linker_10, # of connection points: 2
#     Edge 13, Type (0, 0), BuildingBlock: TEMPAE_clean_linker_10, # of connection points: 2
#     Edge 14, Type (0, 0), BuildingBlock: TEMPAE_clean_linker_10, # of connection points: 2
#     Edge 15, Type (0, 0), BuildingBlock: TEMPAE_clean_linker_10, # of connection points: 2
#     Edge 16, Type (0, 0), BuildingBlock: TEMPAE_clean_linker_10, # of connection points: 2
#     Edge 17, Type (0, 0), BuildingBlock: TEMPAE_clean_linker_10, # of connection points: 2
# Relax obj value: 0.244
# Max RMSD: 0.195
# Mean RMSD: 0.195
data_MOF--net-uoo--node1-QUQFOY_clean_sbu_1--edge1-TEMPAE_clean_linker_10
_symmetry_space_group_name_H-M    P1
_symmetry_Int_Tables_number       1
_symmetry_cell_setting            triclinic
loop_
_symmetry_equiv_pos_as_xyz
'x, y, z'
_cell_length_a     25.360136
_cell_length_b     25.35925
_cell_length_c     41.66597
_cell_angle_alpha  89.958246
_cell_angle_beta   90.047979
_cell_angle_gamma 119.94886
loop_
_atom_site_label
_atom_site_type_symbol
_atom_site_fract_x
_atom_site_fract_y
_atom_site_fract_z
_atom_type_partial_charge
O0 O 0.17495 0.2671 0.95405 0.0
Cd1 Cd 0.17908 0.32019 0.99225 0.0
Cd2 Cd 0.06885 0.22314 0.00302 0.0
O3 O 0.08755 0.18411 0.96402 0.0
O4 O 0.26133 0.39177 0.98707 0.0
O5 O 0.23485 0.33296 0.02998 0.0
C6 C 0.27568 0.37983 0.01464 0.0
C7 C 0.05584 0.18587 0.05496 0.0
C8 C 0.13478 0.21312 0.94669 0.0
C9 C 0.07159 0.33985 0.99031 0.0
O10 O 0.03713 0.28314 0.99498 0.0
O11 O 0.12886 0.36284 0.98924 0.0
O12 O 0.0129 0.16051 0.0339 0.0
O13 O 0.10772 0.23061 0.04581 0.0
O14 O 0.89221 0.17173 0.28903 0.0
Cd15 Cd 0.85249 0.18171 0.33034 0.0
Cd16 Cd 0.82975 0.06397 0.33564 0.0
O17 O 0.88542 0.0824 0.29637 0.0
O18 O 0.86437 0.26391 0.32231 0.0
O19 O 0.90462 0.24377 0.36412 0.0
C20 C 0.89658 0.28266 0.34799 0.0
C21 C 0.85281 0.04074 0.38566 0.0
C22 C 0.90348 0.13053 0.27986 0.0
C23 C 0.72171 0.07938 0.3318 0.0
O24 O 0.74026 0.04158 0.32826 0.0
O25 O 0.75945 0.13555 0.33548 0.0
O26 O 0.82886 -0.0001 0.36346 0.0
O27 O 0.86616 0.09584 0.37888 0.0
O28 O 0.71119 0.74964 0.67046 0.0
Cd29 Cd 0.77283 0.84169 0.67372 0.0
Cd30 Cd 0.67753 0.85717 0.66031 0.0
O31 O 0.63422 0.76391 0.65931 0.0
O32 O 0.837 0.85493 0.70531 0.0
O33 O 0.76753 0.8822 0.71379 0.0
C34 C 0.81284 0.87721 0.72434 0.0
C35 C 0.61668 0.89543 0.67958 0.0
C36 C 0.65521 0.72846 0.66404 0.0
C37 C 0.78421 0.91125 0.61423 0.0
O38 O 0.73267 0.90399 0.62223 0.0
O39 O 0.81014 0.8897 0.63167 0.0
O40 O 0.60672 0.86825 0.65236 0.0
O41 O 0.66232 0.90174 0.6963 0.0
O42 O 0.82342 0.71655 0.95008 0.0
Cd43 Cd 0.81586 0.66073 0.98762 0.0
Cd44 Cd 0.92513 0.75621 0.00186 0.0
O45 O 0.90943 0.79864 0.96328 0.0
O46 O 0.73266 0.59123 0.98151 0.0
O47 O 0.76008 0.64799 0.02519 0.0
C48 C 0.71851 0.60257 0.00927 0.0
C49 C 0.93809 0.79249 0.05404 0.0
C50 C 0.86407 0.77126 0.94453 0.0
C51 C 0.92202 0.63943 0.98767 0.0
O52 O 0.95624 0.69571 0.99365 0.0
O53 O 0.86499 0.61695 0.98503 0.0
O54 O 0.98136 0.8176 0.03317 0.0
O55 O 0.88601 0.74842 0.04463 0.0
O56 O 0.10663 0.83181 0.29075 0.0
Cd57 Cd 0.14621 0.82915 0.33397 0.0
Cd58 Cd 0.16027 0.9428 0.3346 0.0
O59 O 0.10249 0.9162 0.29584 0.0
O60 O 0.14265 0.74969 0.32946 0.0
O61 O 0.09367 0.76743 0.36778 0.0
C62 C 0.10768 0.73043 0.35412 0.0
C63 C 0.13619 0.96486 0.38454 0.0
C64 C 0.08981 0.86826 0.28027 0.0
C65 C 0.27328 0.9376 0.334 0.0
O66 O 0.251 0.97103 0.32657 0.0
O67 O 0.23859 0.88202 0.34098 0.0
O68 O 0.15579 0.00478 0.36175 0.0
O69 O 0.12745 0.91108 0.37833 0.0
O70 O 0.29557 0.25936 0.66938 0.0
Cd71 Cd 0.23271 0.1675 0.67203 0.0
Cd72 Cd 0.32658 0.15059 0.65844 0.0
O73 O 0.37173 0.24389 0.65832 0.0
O74 O 0.1687 0.15489 0.70352 0.0
O75 O 0.2361 0.12478 0.71168 0.0
C76 C 0.19138 0.13066 0.72228 0.0
C77 C 0.38447 0.10954 0.67846 0.0
C78 C 0.35154 0.27994 0.66323 0.0
C79 C 0.22066 0.09949 0.61192 0.0
O80 O 0.27206 0.1061 0.61971 0.0
O81 O 0.19498 0.12061 0.62981 0.0
O82 O 0.39642 0.13759 0.65141 0.0
O83 O 0.33834 0.1037 0.69449 0.0
C84 C 0.12103 0.12129 0.76656 0.0
C85 C 0.17141 0.11718 0.75615 0.0
C86 C 0.10962 0.12294 0.79936 0.0
C87 C 0.1498 0.12076 0.82225 0.0
C88 C 0.19682 0.11005 0.81192 0.0
C89 C 0.20711 0.10838 0.7789 0.0
C90 C 0.05812 0.13306 0.80935 0.0
C91 C 0.24 0.10625 0.83549 0.0
C92 C 0.18074 0.22652 0.89252 0.0
C93 C 0.14157 0.18706 0.91618 0.0
C94 C 0.1849 0.20497 0.8623 0.0
C95 C 0.14994 0.14197 0.85556 0.0
C96 C 0.1126 0.10124 0.87979 0.0
C97 C 0.10809 0.12437 0.90978 0.0
C98 C 0.22514 0.25021 0.83715 0.0
C99 C 0.07739 0.03355 0.87386 0.0
H100 H 0.09252 0.12694 0.7491 0.0
H101 H 0.24576 0.10445 0.77106 0.0
H102 H 0.03203 0.10233 0.82943 0.0
H103 H 0.07707 0.18055 0.81794 0.0
H104 H 0.02635 0.12544 0.78921 0.0
H105 H 0.26308 0.08293 0.82488 0.0
H106 H 0.27545 0.15294 0.84245 0.0
H107 H 0.21597 0.08188 0.85765 0.0
H108 H 0.20676 0.27501 0.89718 0.0
H109 H 0.07836 0.09354 0.92811 0.0
H110 H 0.19698 0.24951 0.81657 0.0
H111 H 0.25832 0.23758 0.82786 0.0
H112 H 0.25073 0.29743 0.84659 0.0
H113 H 0.04695 0.02332 0.85285 0.0
H114 H 0.04994 0.00785 0.89501 0.0
H115 H 0.1093 0.01703 0.86796 0.0
C116 C 0.93615 0.17934 0.22609 0.0
C117 C 0.93496 0.13795 0.24884 0.0
C118 C 0.96192 0.18465 0.1957 0.0
C119 C 0.98823 0.14847 0.18795 0.0
C120 C 0.98967 0.10855 0.21125 0.0
C121 C 0.96226 0.10311 0.24134 0.0
C122 C 0.95912 0.2276 0.1715 0.0
C123 C 0.01909 0.07085 0.2041 0.0
C124 C 0.98597 0.12121 0.09859 0.0
C125 C 0.04338 0.16855 0.08925 0.0
C126 C 0.9689 0.11152 0.131 0.0
C127 C 0.01029 0.15001 0.15468 0.0
C128 C 0.06997 0.19473 0.14564 0.0
C129 C 0.08582 0.20355 0.11298 0.0
C130 C 0.90497 0.06293 0.13964 0.0
C131 C 0.11573 0.23614 0.17018 0.0
H132 H 0.91511 0.2064 0.23165 0.0
H133 H 0.9621 0.07153 0.25894 0.0
H134 H 0.00542 0.25994 0.16252 0.0
H135 H 0.93132 0.20141 0.15056 0.0
H136 H 0.93902 0.25409 0.1817 0.0
H137 H 0.0202 0.04518 0.22545 0.0
H138 H 0.99381 0.0383 0.18454 0.0
H139 H 0.06637 0.10042 0.1955 0.0
H140 H 0.95309 0.09351 0.08045 0.0
H141 H 0.13044 0.24 0.106 0.0
H142 H 0.87886 0.08473 0.148 0.0
H143 H 0.90573 0.03432 0.15958 0.0
H144 H 0.88052 0.03298 0.11894 0.0
H145 H 0.10365 0.27052 0.17812 0.0
H146 H 0.16265 0.26047 0.16027 0.0
H147 H 0.11519 0.21009 0.1917 0.0
C148 C 0.82083 0.96345 0.42914 0.0
C149 C 0.85892 0.02339 0.41875 0.0
C150 C 0.81835 0.94773 0.46159 0.0
C151 C 0.85607 0.99272 0.48406 0.0
C152 C 0.89844 0.05202 0.47325 0.0
C153 C 0.89854 0.06707 0.44076 0.0
C154 C 0.7726 0.88394 0.47209 0.0
C155 C 0.94174 0.10016 0.49624 0.0
C156 C 0.78607 0.97153 0.56656 0.0
C157 C 0.81046 0.9402 0.58291 0.0
C158 C 0.80276 0.99113 0.53486 0.0
C159 C 0.84531 0.97952 0.51902 0.0
C160 C 0.87262 0.95076 0.53591 0.0
C161 C 0.85492 0.93152 0.56774 0.0
C162 C 0.77185 0.0209 0.5177 0.0
C163 C 0.91744 0.93633 0.52012 0.0
H164 H 0.7902 0.92946 0.41221 0.0
H165 H 0.92875 0.11327 0.43272 0.0
H166 H 0.79566 0.86376 0.48582 0.0
H167 H 0.73852 0.88531 0.48825 0.0
H168 H 0.74826 0.8537 0.45148 0.0
H169 H 0.97876 0.13983 0.48346 0.0
H170 H 0.91647 0.11641 0.51114 0.0
H171 H 0.96227 0.08095 0.51271 0.0
H172 H 0.75202 0.97886 0.57817 0.0
H173 H 0.87384 0.90709 0.5801 0.0
H174 H 0.74451 0.99179 0.49737 0.0
H175 H 0.80628 0.06539 0.50757 0.0
H176 H 0.74129 0.02842 0.53377 0.0
H177 H 0.89281 0.88875 0.51123 0.0
H178 H 0.95191 0.93964 0.53771 0.0
H179 H 0.94102 0.9667 0.4995 0.0
C180 C 0.88785 0.86395 0.91154 0.0
C181 C 0.85986 0.80049 0.91461 0.0
C182 C 0.88413 0.89062 0.88255 0.0
C183 C 0.85315 0.85285 0.85598 0.0
C184 C 0.8245 0.78881 0.85922 0.0
C185 C 0.82772 0.76357 0.88849 0.0
C186 C 0.9122 0.95882 0.88058 0.0
C187 C 0.79136 0.74665 0.83149 0.0
C188 C 0.79148 0.88851 0.78171 0.0
C189 C 0.83154 0.88877 0.75844 0.0
C190 C 0.80125 0.88332 0.81448 0.0
C191 C 0.85242 0.87875 0.82402 0.0
C192 C 0.8967 0.88661 0.80092 0.0
C193 C 0.88547 0.891 0.76834 0.0
C194 C 0.75361 0.87648 0.8384 0.0
C195 C 0.953 0.8842 0.81022 0.0
H196 H 0.91198 0.89263 0.93185 0.0
H197 H 0.80623 0.71451 0.89063 0.0
H198 H 0.93766 0.97663 0.85782 0.0
H199 H 0.87552 0.97055 0.88081 0.0
H200 H 0.94302 0.98227 0.90112 0.0
H201 H 0.77065 0.69789 0.83819 0.0
H202 H 0.75477 0.75477 0.82261 0.0
H203 H 0.82342 0.75594 0.81133 0.0
H204 H 0.74998 0.88745 0.77427 0.0
H205 H 0.91728 0.89248 0.75049 0.0
H206 H 0.77506 0.90142 0.86088 0.0
H207 H 0.72456 0.82767 0.84462 0.0
H208 H 0.72392 0.89328 0.82861 0.0
H209 H 0.97376 0.91121 0.83227 0.0
H210 H 0.98759 0.90157 0.79078 0.0
H211 H 0.9403 0.83635 0.81541 0.0
C212 C 0.02611 0.88536 0.23993 0.0
C213 C 0.05814 0.8558 0.24892 0.0
C214 C -0.00134 0.87558 0.20952 0.0
C215 C 0.00478 0.83665 0.1874 0.0
C216 C 0.03575 0.80559 0.19667 0.0
C217 C 0.06157 0.81514 0.22736 0.0
C218 C 0.96427 0.90782 0.20074 0.0
C219 C 0.04349 0.76379 0.17375 0.0
C220 C 0.90899 0.77319 0.1121 0.0
C221 C 0.9502 0.80985 0.08832 0.0
C222 C 0.92469 0.78337 0.14477 0.0
C223 C 0.98288 0.83135 0.15376 0.0
C224 C 0.02295 0.87091 0.12997 0.0
C225 C 0.00616 0.85963 0.09755 0.0
C226 C 0.88048 0.74046 0.16943 0.0
C227 C 0.08514 0.92304 0.13857 0.0
H228 H 0.02268 0.91631 0.2566 0.0
H229 H 0.08623 0.7921 0.23408 0.0
H230 H 0.98841 0.94059 0.18107 0.0
H231 H 0.91827 0.87473 0.19166 0.0
H232 H 0.9593 0.93255 0.22144 0.0
H233 H 0.06632 0.74088 0.18517 0.0
H234 H -0.00145 0.72844 0.16451 0.0
H235 H 0.07103 0.79024 0.15281 0.0
H236 H 0.86558 0.7347 0.10517 0.0
H237 H 0.03804 0.88853 0.07933 0.0
H238 H 0.87777 0.76599 0.19036 0.0
H239 H 0.89665 0.70975 0.17834 0.0
H240 H 0.83409 0.71207 0.1593 0.0
H241 H 0.08139 0.95146 0.15766 0.0
H242 H 0.10875 0.95252 0.1176 0.0
H243 H 0.11374 0.90483 0.14814 0.0
C244 C 0.14415 0.07415 0.56767 0.0
C245 C 0.19377 0.0712 0.58054 0.0
C246 C 0.12362 0.05398 0.53627 0.0
C247 C 0.15355 0.03041 0.51734 0.0
C248 C 0.20215 0.02528 0.53071 0.0
C249 C 0.22137 0.04538 0.5621 0.0
C250 C 0.07221 0.0614 0.52322 0.0
C251 C 0.23611 0.00141 0.51128 0.0
C252 C 0.09718 0.938 0.44087 0.0
C253 C 0.13054 0.98237 0.41766 0.0
C254 C 0.09965 0.95392 0.47337 0.0
C255 C 0.13812 0.01509 0.48287 0.0
C256 C 0.16855 0.06051 0.45925 0.0
C257 C 0.16381 0.04366 0.42687 0.0
C258 C 0.06346 0.90498 0.49773 0.0
C259 C 0.20944 0.12635 0.46836 0.0
H260 H 0.12258 0.09421 0.58164 0.0
H261 H 0.25954 0.04256 0.57183 0.0
H262 H 0.09043 0.10933 0.51558 0.0
H263 H 0.0495 0.03153 0.50233 0.0
H264 H 0.03781 0.0518 0.54219 0.0
H265 H 0.27241 -0.00034 0.52538 0.0
H266 H 0.20415 0.95499 0.50232 0.0
H267 H 0.2573 0.031 0.49004 0.0
H268 H 0.07048 0.89067 0.43378 0.0
H269 H 0.18941 0.07823 0.40901 0.0
H270 H 0.03997 0.92055 0.51447 0.0
H271 H 0.0946 0.89558 0.5122 0.0
H272 H 0.02904 0.8619 0.4862 0.0
H273 H 0.18416 0.14228 0.48346 0.0
H274 H 0.22759 0.15651 0.44704 0.0
H275 H 0.24837 0.13094 0.48276 0.0
C276 C 0.37586 0.47449 0.01278 0.0
C277 C 0.33838 0.4174 0.0267 0.0
C278 C 0.4385 0.50633 0.01856 0.0
C279 C 0.46432 0.48031 0.03876 0.0
C280 C 0.42591 0.42572 0.05554 0.0
C281 C 0.36302 0.39463 0.04925 0.0
C282 C 0.47757 0.56483 1.00045 0.0
C283 C 0.45165 0.39753 0.07797 0.0
C284 C 0.61467 0.5133 0.00427 0.0
C285 C 0.65552 0.56575 0.02118 0.0
C286 C 0.55265 0.48216 0.01161 0.0
C287 C 0.53081 0.50381 0.03667 0.0
C288 C 0.57243 0.55364 0.05567 0.0
C289 C 0.63459 0.58437 0.04759 0.0
C290 C 0.50999 0.42897 0.99078 0.0
C291 C 0.55106 0.57708 0.08308 0.0
H292 H 0.35671 0.49296 0.9959 0.0
H293 H 0.33399 0.35082 0.06039 0.0
H294 H 0.51109 0.6003 0.01674 0.0
H295 H 0.50341 0.55672 0.98147 0.0
H296 H 0.45007 0.58259 0.98888 0.0
H297 H 0.41637 0.36453 0.09462 0.0
H298 H 0.46953 0.3729 0.06374 0.0
H299 H 0.48993 0.43295 0.09222 0.0
H300 H 0.63071 0.49789 0.98422 0.0
H301 H 0.66614 0.62447 0.06102 0.0
H302 H 0.48147 0.44176 0.97617 0.0
H303 H 0.47896 0.38947 0.00584 0.0
H304 H 0.53479 0.41456 0.97425 0.0
H305 H 0.53407 0.60665 0.07346 0.0
H306 H 0.5886 0.6044 0.10017 0.0
H307 H 0.51313 0.5391 0.09629 0.0
C308 C 0.91503 0.3871 0.33808 0.0
C309 C 0.92434 0.3473 0.35749 0.0
C310 C 0.94456 0.4495 0.34445 0.0
C311 C 0.98417 0.47293 0.37113 0.0
C312 C 0.99121 0.4327 0.39198 0.0
C313 C 0.96141 0.37014 0.38478 0.0
C314 C 0.93587 0.49072 0.32145 0.0
C315 C 0.03219 0.45596 0.42099 0.0
C316 C 0.10735 0.63246 0.35232 0.0
C317 C 0.08244 0.66669 0.36466 0.0
C318 C 0.07846 0.56949 0.35688 0.0
C319 C 0.02322 0.53994 0.37426 0.0
C320 C 0.00083 0.57491 0.38934 0.0
C321 C 0.03077 0.63819 0.3843 0.0
C322 C 0.1042 0.53409 0.34051 0.0
C323 C 0.94276 0.54509 0.40861 0.0
H324 H 0.88597 0.36984 0.31711 0.0
H325 H 0.9683 0.3395 0.40007 0.0
H326 H 0.92266 0.52024 0.33472 0.0
H327 H 0.97939 0.5209 0.30896 0.0
H328 H 0.90053 0.46483 0.30305 0.0
H329 H 0.02368 0.41864 0.4379 0.0
H330 H 0.08039 0.4781 0.41318 0.0
H331 H 0.02586 0.49065 0.4339 0.0
H332 H 0.14805 0.65446 0.33765 0.0
H333 H 0.01173 0.66459 0.3942 0.0
H334 H 0.07477 0.50862 0.31987 0.0
H335 H 0.10491 0.50038 0.35719 0.0
H336 H 0.15111 0.56423 0.33145 0.0
H337 H 0.90324 0.5243 0.39204 0.0
H338 H 0.93843 0.57842 0.42406 0.0
H339 H 0.94047 0.50819 0.42393 0.0
C340 C 0.47771 0.10144 0.67451 0.0
C341 C 0.4218 0.08331 0.68952 0.0
C342 C 0.51023 0.0714 0.68064 0.0
C343 C 0.48617 0.0218 0.7023 0.0
C344 C 0.4323 0.00648 0.71958 0.0
C345 C 0.40053 0.03753 0.71294 0.0
C346 C 0.56781 0.08969 0.66186 0.0
C347 C 0.40593 0.95462 0.7433 0.0
C348 C 0.52457 0.90491 0.67282 0.0
C349 C 0.57796 0.92051 0.68997 0.0
C350 C 0.49137 0.93436 0.67857 0.0
C351 C 0.51199 0.98061 0.70215 0.0
C352 C 0.56296 0.99309 0.72143 0.0
C353 C 0.59563 0.96287 0.71504 0.0
C354 C 0.43703 0.91928 0.65755 0.0
C355 C 0.58548 0.04118 0.74724 0.0
H356 H 0.49503 0.13771 0.65687 0.0
H357 H 0.3576 0.02381 0.72486 0.0
H358 H 0.60475 0.09476 0.67808 0.0
H359 H 0.55946 0.05357 0.6442 0.0
H360 H 0.58376 0.13313 0.64865 0.0
H361 H 0.37262 0.95716 0.7596 0.0
H362 H 0.38216 0.91083 0.73011 0.0
H363 H 0.44235 0.95428 0.75792 0.0
H364 H 0.50993 0.8713 0.65382 0.0
H365 H 0.6365 0.97458 0.72863 0.0
H366 H 0.44818 0.95808 0.64123 0.0
H367 H 0.3976 0.91183 0.67237 0.0
H368 H 0.42329 0.87805 0.6427 0.0
H369 H 0.61135 0.08682 0.73601 0.0
H370 H 0.61601 0.03594 0.76448 0.0
H371 H 0.54688 0.03952 0.76062 0.0
C372 C 0.44676 0.36865 0.64294 0.0
C373 C 0.39449 0.34603 0.66211 0.0
C374 C 0.48982 0.43086 0.64245 0.0
C375 C 0.48112 0.47116 0.66225 0.0
C376 C 0.42841 0.4486 0.6817 0.0
C377 C 0.38519 0.38624 0.68106 0.0
C378 C 0.54453 0.45344 0.6207 0.0
C379 C 0.41825 0.49016 0.70356 0.0
C380 C 0.62109 0.62247 0.68253 0.0
C381 C 0.61308 0.66229 0.66251 0.0
C382 C 0.57803 0.56005 0.68299 0.0
C383 C 0.52694 0.53706 0.66227 0.0
C384 C 0.51976 0.57696 0.64133 0.0
C385 C 0.5625 0.63926 0.64204 0.0
C386 C 0.58646 0.51895 0.70609 0.0
C387 C 0.46691 0.5539 0.61821 0.0
H388 H 0.4538 0.33762 0.62808 0.0
H389 H 0.34505 0.36867 0.69611 0.0
H390 H 0.54673 0.489 0.60431 0.0
H391 H 0.5869 0.47466 0.63517 0.0
H392 H 0.54347 0.41636 0.60603 0.0
H393 H 0.37563 0.4652 0.71771 0.0
H394 H 0.45712 0.51354 0.7204 0.0
H395 H 0.41604 0.52591 0.68926 0.0
H396 H 0.6599 0.64043 0.69859 0.0
H397 H 0.55652 0.67007 0.62639 0.0
H398 H 0.58953 0.48279 0.69271 0.0
H399 H 0.54641 0.49607 0.72222 0.0
H400 H 0.62806 0.54418 0.72101 0.0
H401 H 0.46592 0.51789 0.60268 0.0
H402 H 0.46931 0.59065 0.60266 0.0
H403 H 0.4234 0.53316 0.63168 0.0
C404 C 0.91906 0.54745 0.96484 0.0
C405 C 0.94732 0.59844 0.98498 0.0
C406 C 0.93886 0.50485 0.96383 0.0
C407 C 0.98687 0.51255 0.98418 0.0
C408 C 0.016 0.56433 0.00437 0.0
C409 C 0.9964 0.60725 0.00417 0.0
C410 C 0.908 0.4513 0.94124 0.0
C411 C 0.06657 0.5734 0.02687 0.0
C412 C 0.99653 0.37188 0.0055 0.0
C413 C 0.04619 0.38062 0.9869 0.0
C414 C 0.97675 0.41466 0.00494 0.0
C415 C 0.00628 0.46614 0.98455 0.0
C416 C 0.05487 0.47368 0.96476 0.0
C417 C 0.07487 0.4313 0.96657 0.0
C418 C 0.92562 0.40584 0.02688 0.0
C419 C 0.08616 0.52684 0.94196 0.0
H420 H 0.88124 0.54084 0.94986 0.0
H421 H 0.01777 0.64635 0.02 0.0
H422 H 0.94234 0.44891 0.92577 0.0
H423 H 0.88477 0.40833 0.95517 0.0
H424 H 0.87385 0.45396 0.92565 0.0
H425 H 0.08418 0.61588 0.04115 0.0
H426 H 0.04986 0.53424 0.04361 0.0
H427 H 0.1048 0.57512 0.0131 0.0
H428 H 0.97486 0.33299 0.02147 0.0
H429 H 0.11314 0.43779 0.95205 0.0
H430 H 0.88774 0.40395 0.01266 0.0
H431 H 0.94191 0.4452 0.04345 0.0
H432 H 0.90765 0.36353 0.04136 0.0
H433 H 0.05213 0.52895 0.92606 0.0
H434 H 0.12063 0.52394 0.92679 0.0
H435 H 0.10909 0.57005 0.95568 0.0
C436 C 0.63482 0.09233 0.34893 0.0
C437 C 0.656 0.0588 0.332 0.0
C438 C 0.57281 0.07426 0.3494 0.0
C439 C 0.53117 0.02227 0.3318 0.0
C440 C 0.55238 0.98867 0.31426 0.0
C441 C 0.61457 0.00687 0.31494 0.0
C442 C 0.55176 0.11024 0.36914 0.0
C443 C 0.50943 0.93373 0.29466 0.0
C444 C 0.36488 0.93851 0.35595 0.0
C445 C 0.33965 0.96215 0.33429 0.0
C446 C 0.42732 0.95854 0.35575 0.0
C447 C 0.46514 0.00194 0.33267 0.0
C448 C 0.43991 0.02602 0.31069 0.0
C449 C 0.37743 0.00646 0.31209 0.0
C450 C 0.45277 0.93318 0.38022 0.0
C451 C 0.47864 0.07138 0.2853 0.0
H452 H 0.66674 0.13231 0.36234 0.0
H453 H 0.63096 0.98123 0.30161 0.0
H454 H 0.5285 0.12783 0.35357 0.0
H455 H 0.51824 0.08021 0.38734 0.0
H456 H 0.58999 0.14929 0.38167 0.0
H457 H 0.5336 0.91446 0.28109 0.0
H458 H 0.47541 0.89784 0.3106 0.0
H459 H 0.48405 0.94616 0.27741 0.0
H460 H 0.33567 0.90448 0.37327 0.0
H461 H 0.35776 0.02425 0.29513 0.0
H462 H 0.48998 0.97088 0.39397 0.0
H463 H 0.47257 0.9083 0.36793 0.0
H464 H 0.4176 0.90168 0.39739 0.0
H465 H 0.51586 0.11279 0.29671 0.0
H466 H 0.45187 0.08498 0.26972 0.0
H467 H 0.50021 0.05159 0.27002 0.0
loop_
_geom_bond_atom_site_label_1
_geom_bond_atom_site_label_2
_geom_bond_distance
_geom_bond_site_symmetry_2
_ccdc_geom_bond_type
O0 Cd1 2.223 . S
O0 C8 1.315 . S
Cd1 O0 2.223 . S
Cd1 O4 2.297 . S
Cd1 O5 2.439 1_556 S
Cd1 O11 2.240 1_556 S
Cd2 O3 2.240 1_554 S
Cd2 O10 2.223 1_554 S
Cd2 O12 2.297 1_455 S
Cd2 O13 2.439 . S
O3 Cd2 2.240 1_556 S
O3 C8 1.279 . S
O4 Cd1 2.297 . S
O4 C6 1.247 1_556 S
O5 Cd1 2.439 1_554 S
O5 C6 1.208 . S
C6 O4 1.247 1_554 S
C6 O5 1.208 . S
C7 O12 1.247 1_455 S
C7 O13 1.208 . S
C8 O0 1.315 . S
C8 O3 1.279 . S
C9 O10 1.315 . S
C9 O11 1.279 1_556 S
O10 Cd2 2.223 1_556 S
O10 C9 1.315 . S
O11 Cd1 2.240 1_554 S
O11 C9 1.279 1_554 S
O12 Cd2 2.297 1_655 S
O12 C7 1.247 1_655 S
O13 Cd2 2.439 . S
O13 C7 1.208 . S
O14 Cd15 2.223 . S
O14 C22 1.315 . S
Cd15 O14 2.223 . S
Cd15 O18 2.297 . S
Cd15 O19 2.439 . S
Cd15 O25 2.240 . S
Cd16 O17 2.240 . S
Cd16 O24 2.223 . S
Cd16 O26 2.297 1_545 S
Cd16 O27 2.439 . S
O17 Cd16 2.240 . S
O17 C22 1.279 . S
O18 Cd15 2.297 . S
O18 C20 1.247 . S
O19 Cd15 2.439 . S
O19 C20 1.208 . S
C20 O18 1.247 . S
C20 O19 1.208 . S
C21 O26 1.247 1_545 S
C21 O27 1.208 . S
C22 O14 1.315 . S
C22 O17 1.279 . S
C23 O24 1.315 . S
C23 O25 1.279 . S
O24 Cd16 2.223 . S
O24 C23 1.315 . S
O25 Cd15 2.240 . S
O25 C23 1.279 . S
O26 Cd16 2.297 1_565 S
O26 C21 1.247 1_565 S
O27 Cd16 2.439 . S
O27 C21 1.208 . S
O28 Cd29 2.223 . S
O28 C36 1.315 . S
Cd29 O28 2.223 . S
Cd29 O32 2.297 . S
Cd29 O33 2.439 . S
Cd29 O39 2.240 . S
Cd30 O31 2.240 . S
Cd30 O38 2.223 . S
Cd30 O40 2.297 . S
Cd30 O41 2.439 . S
O31 Cd30 2.240 . S
O31 C36 1.279 . S
O32 Cd29 2.297 . S
O32 C34 1.247 . S
O33 Cd29 2.439 . S
O33 C34 1.208 . S
C34 O32 1.247 . S
C34 O33 1.208 . S
C35 O40 1.247 . S
C35 O41 1.208 . S
C36 O28 1.315 . S
C36 O31 1.279 . S
C37 O38 1.315 . S
C37 O39 1.279 . S
O38 Cd30 2.223 . S
O38 C37 1.315 . S
O39 Cd29 2.240 . S
O39 C37 1.279 . S
O40 Cd30 2.297 . S
O40 C35 1.247 . S
O41 Cd30 2.439 . S
O41 C35 1.208 . S
O42 Cd43 2.223 . S
O42 C50 1.315 . S
Cd43 O42 2.223 . S
Cd43 O46 2.297 . S
Cd43 O47 2.439 1_556 S
Cd43 O53 2.240 1_556 S
Cd44 O45 2.240 1_554 S
Cd44 O52 2.223 1_554 S
Cd44 O54 2.297 1_655 S
Cd44 O55 2.439 . S
O45 Cd44 2.240 1_556 S
O45 C50 1.279 . S
O46 Cd43 2.297 . S
O46 C48 1.247 1_556 S
O47 Cd43 2.439 1_554 S
O47 C48 1.208 . S
C48 O46 1.247 1_554 S
C48 O47 1.208 . S
C49 O54 1.247 1_655 S
C49 O55 1.208 . S
C50 O42 1.315 . S
C50 O45 1.279 . S
C51 O52 1.315 . S
C51 O53 1.279 1_556 S
O52 Cd44 2.223 1_556 S
O52 C51 1.315 . S
O53 Cd43 2.240 1_554 S
O53 C51 1.279 1_554 S
O54 Cd44 2.297 1_455 S
O54 C49 1.247 1_455 S
O55 Cd44 2.439 . S
O55 C49 1.208 . S
O56 Cd57 2.223 . S
O56 C64 1.315 . S
Cd57 O56 2.223 . S
Cd57 O60 2.297 . S
Cd57 O61 2.439 . S
Cd57 O67 2.240 . S
Cd58 O59 2.240 . S
Cd58 O66 2.223 . S
Cd58 O68 2.297 1_565 S
Cd58 O69 2.439 . S
O59 Cd58 2.240 . S
O59 C64 1.279 . S
O60 Cd57 2.297 . S
O60 C62 1.247 . S
O61 Cd57 2.439 . S
O61 C62 1.208 . S
C62 O60 1.247 . S
C62 O61 1.208 . S
C63 O68 1.247 1_565 S
C63 O69 1.208 . S
C64 O56 1.315 . S
C64 O59 1.279 . S
C65 O66 1.315 . S
C65 O67 1.279 . S
O66 Cd58 2.223 . S
O66 C65 1.315 . S
O67 Cd57 2.240 . S
O67 C65 1.279 . S
O68 Cd58 2.297 1_545 S
O68 C63 1.247 1_545 S
O69 Cd58 2.439 . S
O69 C63 1.208 . S
O70 Cd71 2.223 . S
O70 C78 1.315 . S
Cd71 O70 2.223 . S
Cd71 O74 2.297 . S
Cd71 O75 2.439 . S
Cd71 O81 2.240 . S
Cd72 O73 2.240 . S
Cd72 O80 2.223 . S
Cd72 O82 2.297 . S
Cd72 O83 2.439 . S
O73 Cd72 2.240 . S
O73 C78 1.279 . S
O74 Cd71 2.297 . S
O74 C76 1.247 . S
O75 Cd71 2.439 . S
O75 C76 1.208 . S
C76 O74 1.247 . S
C76 O75 1.208 . S
C77 O82 1.247 . S
C77 O83 1.208 . S
C78 O70 1.315 . S
C78 O73 1.279 . S
C79 O80 1.315 . S
C79 O81 1.279 . S
O80 Cd72 2.223 . S
O80 C79 1.315 . S
O81 Cd71 2.240 . S
O81 C79 1.279 . S
O82 Cd72 2.297 . S
O82 C77 1.247 . S
O83 Cd72 2.439 . S
O83 C77 1.208 . S
C84 C85 1.391 . S
C84 C86 1.394 . S
C84 H100 0.931 . S
C85 C84 1.391 . S
C85 C89 1.376 . S
C86 C84 1.394 . S
C86 C87 1.369 . S
C86 C90 1.531 . S
C87 C86 1.369 . S
C87 C88 1.410 . S
C87 C95 1.503 . S
C88 C87 1.410 . S
C88 C89 1.392 . S
C88 C91 1.511 . S
C89 C85 1.376 . S
C89 C88 1.392 . S
C89 H101 0.929 . S
C90 C86 1.531 . S
C90 H102 0.960 . S
C90 H103 0.962 . S
C90 H104 0.960 . S
C91 C88 1.511 . S
C91 H105 0.961 . S
C91 H106 0.961 . S
C91 H107 0.961 . S
C92 C93 1.370 . S
C92 C94 1.363 . S
C92 H108 0.931 . S
C93 C92 1.370 . S
C93 C97 1.408 . S
C94 C92 1.363 . S
C94 C95 1.370 . S
C94 C98 1.524 . S
C95 C87 1.503 . S
C95 C94 1.370 . S
C95 C96 1.403 . S
C96 C95 1.403 . S
C96 C97 1.404 . S
C96 C99 1.539 . S
C97 C93 1.408 . S
C97 C96 1.404 . S
C97 H109 0.930 . S
C98 C94 1.524 . S
C98 H110 0.956 . S
C98 H111 0.961 . S
C98 H112 0.961 . S
C99 C96 1.539 . S
C99 H113 0.958 . S
C99 H114 0.961 . S
C99 H115 0.960 . S
H100 C84 0.931 . S
H101 C89 0.929 . S
H102 C90 0.960 . S
H103 C90 0.962 . S
H104 C90 0.960 . S
H105 C91 0.961 . S
H106 C91 0.961 . S
H107 C91 0.961 . S
H108 C92 0.931 . S
H109 C97 0.930 . S
H110 C98 0.956 . S
H111 C98 0.961 . S
H112 C98 0.961 . S
H113 C99 0.958 . S
H114 C99 0.961 . S
H115 C99 0.960 . S
C116 C117 1.391 . S
C116 C118 1.394 . S
C116 H132 0.931 . S
C117 C116 1.391 . S
C117 C121 1.376 . S
C118 C116 1.394 . S
C118 C119 1.369 . S
C118 C122 1.531 . S
C119 C118 1.369 . S
C119 C120 1.410 . S
C119 C127 1.503 . S
C120 C119 1.410 . S
C120 C121 1.392 . S
C120 C123 1.511 . S
C121 C117 1.376 . S
C121 C120 1.392 . S
C121 H133 0.929 . S
C122 C118 1.531 . S
C122 H134 0.960 . S
C122 H135 0.962 . S
C122 H136 0.960 . S
C123 C120 1.511 . S
C123 H137 0.961 . S
C123 H138 0.961 . S
C123 H139 0.961 1_655 S
C124 C125 1.370 1_655 S
C124 C126 1.363 . S
C124 H140 0.931 . S
C125 C124 1.370 1_455 S
C125 C129 1.408 . S
C126 C124 1.363 . S
C126 C127 1.370 . S
C126 C130 1.524 . S
C127 C119 1.503 . S
C127 C126 1.370 . S
C127 C128 1.403 1_655 S
C128 C127 1.403 1_455 S
C128 C129 1.404 . S
C128 C131 1.539 . S
C129 C125 1.408 . S
C129 C128 1.404 . S
C129 H141 0.930 . S
C130 C126 1.524 . S
C130 H142 0.956 . S
C130 H143 0.961 . S
C130 H144 0.961 . S
C131 C128 1.539 . S
C131 H145 0.958 . S
C131 H146 0.961 . S
C131 H147 0.960 . S
H132 C116 0.931 . S
H133 C121 0.929 . S
H134 C122 0.960 . S
H135 C122 0.962 . S
H136 C122 0.960 . S
H137 C123 0.961 . S
H138 C123 0.961 . S
H139 C123 0.961 1_455 S
H140 C124 0.931 . S
H141 C129 0.930 . S
H142 C130 0.956 . S
H143 C130 0.961 . S
H144 C130 0.961 . S
H145 C131 0.958 . S
H146 C131 0.961 . S
H147 C131 0.960 . S
C148 C149 1.391 1_565 S
C148 C150 1.394 . S
C148 H164 0.931 . S
C149 C148 1.391 1_545 S
C149 C153 1.376 . S
C150 C148 1.394 . S
C150 C151 1.369 . S
C150 C154 1.531 . S
C151 C150 1.369 . S
C151 C152 1.410 1_565 S
C151 C159 1.503 . S
C152 C151 1.410 1_545 S
C152 C153 1.392 . S
C152 C155 1.511 . S
C153 C149 1.376 . S
C153 C152 1.392 . S
C153 H165 0.929 . S
C154 C150 1.531 . S
C154 H166 0.960 . S
C154 H167 0.962 . S
C154 H168 0.960 . S
C155 C152 1.511 . S
C155 H169 0.961 . S
C155 H170 0.961 . S
C155 H171 0.949 1_545 S
C156 C157 1.370 . S
C156 C158 1.363 . S
C156 H172 0.931 . S
C157 C156 1.370 . S
C157 C161 1.408 . S
C158 C156 1.363 . S
C158 C159 1.370 . S
C158 C162 1.522 1_565 S
C159 C151 1.503 . S
C159 C158 1.370 . S
C159 C160 1.403 . S
C160 C159 1.403 . S
C160 C161 1.404 . S
C160 C163 1.539 . S
C161 C157 1.408 . S
C161 C160 1.404 . S
C161 H173 0.930 . S
C162 C158 1.522 1_545 S
C162 H174 0.956 1_545 S
C162 H175 0.961 . S
C162 H176 0.962 . S
C163 C160 1.539 . S
C163 H177 0.958 . S
C163 H178 0.961 . S
C163 H179 0.960 . S
H164 C148 0.931 . S
H165 C153 0.929 . S
H166 C154 0.960 . S
H167 C154 0.962 . S
H168 C154 0.960 . S
H169 C155 0.961 . S
H170 C155 0.961 . S
H171 C155 0.949 1_565 S
H172 C156 0.931 . S
H173 C161 0.930 . S
H174 C162 0.956 1_565 S
H175 C162 0.961 . S
H176 C162 0.962 . S
H177 C163 0.958 . S
H178 C163 0.961 . S
H179 C163 0.960 . S
C180 C181 1.391 . S
C180 C182 1.394 . S
C180 H196 0.931 . S
C181 C180 1.391 . S
C181 C185 1.376 . S
C182 C180 1.394 . S
C182 C183 1.369 . S
C182 C186 1.531 . S
C183 C182 1.369 . S
C183 C184 1.410 . S
C183 C191 1.503 . S
C184 C183 1.410 . S
C184 C185 1.392 . S
C184 C187 1.511 . S
C185 C181 1.376 . S
C185 C184 1.392 . S
C185 H197 0.929 . S
C186 C182 1.531 . S
C186 H198 0.960 . S
C186 H199 0.962 . S
C186 H200 0.960 . S
C187 C184 1.511 . S
C187 H201 0.961 . S
C187 H202 0.961 . S
C187 H203 0.961 . S
C188 C189 1.370 . S
C188 C190 1.363 . S
C188 H204 0.931 . S
C189 C188 1.370 . S
C189 C193 1.408 . S
C190 C188 1.363 . S
C190 C191 1.370 . S
C190 C194 1.524 . S
C191 C183 1.503 . S
C191 C190 1.370 . S
C191 C192 1.403 . S
C192 C191 1.403 . S
C192 C193 1.404 . S
C192 C195 1.539 . S
C193 C189 1.408 . S
C193 C192 1.404 . S
C193 H205 0.930 . S
C194 C190 1.524 . S
C194 H206 0.956 . S
C194 H207 0.961 . S
C194 H208 0.961 . S
C195 C192 1.539 . S
C195 H209 0.958 . S
C195 H210 0.961 . S
C195 H211 0.960 . S
H196 C180 0.931 . S
H197 C185 0.929 . S
H198 C186 0.960 . S
H199 C186 0.962 . S
H200 C186 0.960 . S
H201 C187 0.961 . S
H202 C187 0.961 . S
H203 C187 0.961 . S
H204 C188 0.931 . S
H205 C193 0.930 . S
H206 C194 0.956 . S
H207 C194 0.961 . S
H208 C194 0.961 . S
H209 C195 0.958 . S
H210 C195 0.961 . S
H211 C195 0.960 . S
C212 C213 1.391 . S
C212 C214 1.394 . S
C212 H228 0.931 . S
C213 C212 1.391 . S
C213 C217 1.376 . S
C214 C212 1.394 . S
C214 C215 1.369 . S
C214 C218 1.531 . S
C215 C214 1.369 . S
C215 C216 1.410 . S
C215 C223 1.503 . S
C216 C215 1.410 . S
C216 C217 1.392 . S
C216 C219 1.511 . S
C217 C213 1.376 . S
C217 C216 1.392 . S
C217 H229 0.929 . S
C218 C214 1.531 . S
C218 H230 0.960 . S
C218 H231 0.962 1_455 S
C218 H232 0.960 . S
C219 C216 1.511 . S
C219 H233 0.961 . S
C219 H234 0.961 . S
C219 H235 0.961 . S
C220 C221 1.370 . S
C220 C222 1.363 . S
C220 H236 0.931 . S
C221 C220 1.370 . S
C221 C225 1.408 1_655 S
C222 C220 1.363 . S
C222 C223 1.370 1_655 S
C222 C226 1.524 . S
C223 C215 1.503 . S
C223 C222 1.370 1_455 S
C223 C224 1.403 . S
C224 C223 1.403 . S
C224 C225 1.404 . S
C224 C227 1.539 . S
C225 C221 1.408 1_455 S
C225 C224 1.404 . S
C225 H237 0.930 . S
C226 C222 1.524 . S
C226 H238 0.956 . S
C226 H239 0.961 . S
C226 H240 0.961 . S
C227 C224 1.539 . S
C227 H241 0.958 . S
C227 H242 0.961 . S
C227 H243 0.960 . S
H228 C212 0.931 . S
H229 C217 0.929 . S
H230 C218 0.960 . S
H231 C218 0.962 1_655 S
H232 C218 0.960 . S
H233 C219 0.961 . S
H234 C219 0.961 . S
H235 C219 0.961 . S
H236 C220 0.931 . S
H237 C225 0.930 . S
H238 C226 0.956 . S
H239 C226 0.961 . S
H240 C226 0.961 . S
H241 C227 0.958 . S
H242 C227 0.961 . S
H243 C227 0.960 . S
C244 C245 1.391 . S
C244 C246 1.394 . S
C244 H260 0.931 . S
C245 C244 1.391 . S
C245 C249 1.376 . S
C246 C244 1.394 . S
C246 C247 1.369 . S
C246 C250 1.531 . S
C247 C246 1.369 . S
C247 C248 1.410 . S
C247 C255 1.503 . S
C248 C247 1.410 . S
C248 C249 1.392 . S
C248 C251 1.511 . S
C249 C245 1.376 . S
C249 C248 1.392 . S
C249 H261 0.929 . S
C250 C246 1.531 . S
C250 H262 0.960 . S
C250 H263 0.962 . S
C250 H264 0.960 . S
C251 C248 1.511 . S
C251 H265 0.961 . S
C251 H266 0.961 . S
C251 H267 0.961 . S
C252 C253 1.370 . S
C252 C254 1.363 . S
C252 H268 0.931 . S
C253 C252 1.370 . S
C253 C257 1.408 1_565 S
C254 C252 1.363 . S
C254 C255 1.370 1_565 S
C254 C258 1.524 . S
C255 C247 1.503 . S
C255 C254 1.370 1_545 S
C255 C256 1.403 . S
C256 C255 1.403 . S
C256 C257 1.404 . S
C256 C259 1.539 . S
C257 C253 1.408 1_545 S
C257 C256 1.404 . S
C257 H269 0.930 . S
C258 C254 1.524 . S
C258 H270 0.956 . S
C258 H271 0.961 . S
C258 H272 0.961 . S
C259 C256 1.539 . S
C259 H273 0.958 . S
C259 H274 0.961 . S
C259 H275 0.960 . S
H260 C244 0.931 . S
H261 C249 0.929 . S
H262 C250 0.960 . S
H263 C250 0.962 . S
H264 C250 0.960 . S
H265 C251 0.961 . S
H266 C251 0.961 . S
H267 C251 0.961 . S
H268 C252 0.931 . S
H269 C257 0.930 . S
H270 C258 0.956 . S
H271 C258 0.961 . S
H272 C258 0.961 . S
H273 C259 0.958 . S
H274 C259 0.961 . S
H275 C259 0.960 . S
C276 C277 1.391 . S
C276 C278 1.394 . S
C276 H292 0.931 . S
C277 C276 1.391 . S
C277 C281 1.376 . S
C278 C276 1.394 . S
C278 C279 1.369 . S
C278 C282 1.531 . S
C279 C278 1.369 . S
C279 C280 1.410 . S
C279 C287 1.503 . S
C280 C279 1.410 . S
C280 C281 1.392 . S
C280 C283 1.511 . S
C281 C277 1.376 . S
C281 C280 1.392 . S
C281 H293 0.929 . S
C282 C278 1.531 . S
C282 H294 0.960 . S
C282 H295 0.962 . S
C282 H296 0.960 . S
C283 C280 1.511 . S
C283 H297 0.961 1_554 S
C283 H298 0.961 . S
C283 H299 0.961 . S
C284 C285 1.370 1_556 S
C284 C286 1.363 . S
C284 H300 0.931 . S
C285 C284 1.370 1_554 S
C285 C289 1.408 . S
C286 C284 1.363 . S
C286 C287 1.370 1_556 S
C286 C290 1.524 . S
C287 C279 1.503 . S
C287 C286 1.370 1_554 S
C287 C288 1.403 . S
C288 C287 1.403 . S
C288 C289 1.404 . S
C288 C291 1.539 . S
C289 C285 1.408 . S
C289 C288 1.404 . S
C289 H301 0.930 . S
C290 C286 1.524 . S
C290 H302 0.956 . S
C290 H303 0.961 . S
C290 H304 0.961 . S
C291 C288 1.539 . S
C291 H305 0.958 . S
C291 H306 0.961 . S
C291 H307 0.960 . S
H292 C276 0.931 . S
H293 C281 0.929 . S
H294 C282 0.960 . S
H295 C282 0.962 . S
H296 C282 0.960 . S
H297 C283 0.961 1_556 S
H298 C283 0.961 . S
H299 C283 0.961 . S
H300 C284 0.931 . S
H301 C289 0.930 . S
H302 C290 0.956 . S
H303 C290 0.961 . S
H304 C290 0.961 . S
H305 C291 0.958 . S
H306 C291 0.961 . S
H307 C291 0.960 . S
C308 C309 1.391 . S
C308 C310 1.394 . S
C308 H324 0.931 . S
C309 C308 1.391 . S
C309 C313 1.376 . S
C310 C308 1.394 . S
C310 C311 1.369 . S
C310 C314 1.531 1_655 S
C311 C310 1.369 . S
C311 C312 1.410 . S
C311 C319 1.503 1_655 S
C312 C311 1.410 . S
C312 C313 1.392 . S
C312 C315 1.511 . S
C313 C309 1.376 . S
C313 C312 1.392 . S
C313 H325 0.929 . S
C314 C310 1.531 1_455 S
C314 H326 0.960 . S
C314 H327 0.962 . S
C314 H328 0.960 . S
C315 C312 1.511 . S
C315 H329 0.961 . S
C315 H330 0.961 . S
C315 H331 0.961 . S
C316 C317 1.370 . S
C316 C318 1.363 . S
C316 H332 0.931 . S
C317 C316 1.370 . S
C317 C321 1.408 1_455 S
C318 C316 1.363 . S
C318 C319 1.370 . S
C318 C322 1.524 . S
C319 C311 1.503 1_455 S
C319 C318 1.370 . S
C319 C320 1.403 1_455 S
C320 C319 1.403 1_655 S
C320 C321 1.404 . S
C320 C323 1.539 . S
C321 C317 1.408 1_655 S
C321 C320 1.404 . S
C321 H333 0.930 . S
C322 C318 1.524 . S
C322 H334 0.956 . S
C322 H335 0.961 . S
C322 H336 0.961 . S
C323 C320 1.539 . S
C323 H337 0.958 . S
C323 H338 0.961 . S
C323 H339 0.960 . S
H324 C308 0.931 . S
H325 C313 0.929 . S
H326 C314 0.960 . S
H327 C314 0.962 . S
H328 C314 0.960 . S
H329 C315 0.961 . S
H330 C315 0.961 . S
H331 C315 0.961 . S
H332 C316 0.931 . S
H333 C321 0.930 . S
H334 C322 0.956 . S
H335 C322 0.961 . S
H336 C322 0.961 . S
H337 C323 0.958 . S
H338 C323 0.961 . S
H339 C323 0.960 . S
C340 C341 1.391 . S
C340 C342 1.394 . S
C340 H356 0.931 . S
C341 C340 1.391 . S
C341 C345 1.376 1_545 S
C342 C340 1.394 . S
C342 C343 1.369 . S
C342 C346 1.531 . S
C343 C342 1.369 . S
C343 C344 1.410 1_545 S
C343 C351 1.503 1_545 S
C344 C343 1.410 1_565 S
C344 C345 1.392 . S
C344 C347 1.511 . S
C345 C341 1.376 1_565 S
C345 C344 1.392 . S
C345 H357 0.929 . S
C346 C342 1.531 . S
C346 H358 0.960 . S
C346 H359 0.962 . S
C346 H360 0.960 . S
C347 C344 1.511 . S
C347 H361 0.961 . S
C347 H362 0.961 . S
C347 H363 0.961 . S
C348 C349 1.370 . S
C348 C350 1.363 . S
C348 H364 0.931 . S
C349 C348 1.370 . S
C349 C353 1.408 . S
C350 C348 1.363 . S
C350 C351 1.370 . S
C350 C354 1.524 . S
C351 C343 1.503 1_565 S
C351 C350 1.370 . S
C351 C352 1.403 . S
C352 C351 1.403 . S
C352 C353 1.404 . S
C352 C355 1.539 . S
C353 C349 1.408 . S
C353 C352 1.404 . S
C353 H365 0.930 . S
C354 C350 1.524 . S
C354 H366 0.956 1_565 S
C354 H367 0.961 . S
C354 H368 0.961 . S
C355 C352 1.539 . S
C355 H369 0.958 1_565 S
C355 H370 0.961 . S
C355 H371 0.960 . S
H356 C340 0.931 . S
H357 C345 0.929 . S
H358 C346 0.960 . S
H359 C346 0.962 . S
H360 C346 0.960 . S
H361 C347 0.961 . S
H362 C347 0.961 . S
H363 C347 0.961 . S
H364 C348 0.931 . S
H365 C353 0.930 . S
H366 C354 0.956 1_545 S
H367 C354 0.961 . S
H368 C354 0.961 . S
H369 C355 0.958 1_545 S
H370 C355 0.961 . S
H371 C355 0.960 . S
C372 C373 1.391 . S
C372 C374 1.394 . S
C372 H388 0.931 . S
C373 C372 1.391 . S
C373 C377 1.376 . S
C374 C372 1.394 . S
C374 C375 1.369 . S
C374 C378 1.531 . S
C375 C374 1.369 . S
C375 C376 1.410 . S
C375 C383 1.503 . S
C376 C375 1.410 . S
C376 C377 1.392 . S
C376 C379 1.511 . S
C377 C373 1.376 . S
C377 C376 1.392 . S
C377 H389 0.929 . S
C378 C374 1.531 . S
C378 H390 0.960 . S
C378 H391 0.962 . S
C378 H392 0.960 . S
C379 C376 1.511 . S
C379 H393 0.961 . S
C379 H394 0.961 . S
C379 H395 0.961 . S
C380 C381 1.370 . S
C380 C382 1.363 . S
C380 H396 0.931 . S
C381 C380 1.370 . S
C381 C385 1.408 . S
C382 C380 1.363 . S
C382 C383 1.370 . S
C382 C386 1.524 . S
C383 C375 1.503 . S
C383 C382 1.370 . S
C383 C384 1.403 . S
C384 C383 1.403 . S
C384 C385 1.404 . S
C384 C387 1.539 . S
C385 C381 1.408 . S
C385 C384 1.404 . S
C385 H397 0.930 . S
C386 C382 1.524 . S
C386 H398 0.956 . S
C386 H399 0.961 . S
C386 H400 0.961 . S
C387 C384 1.539 . S
C387 H401 0.958 . S
C387 H402 0.961 . S
C387 H403 0.960 . S
H388 C372 0.931 . S
H389 C377 0.929 . S
H390 C378 0.960 . S
H391 C378 0.962 . S
H392 C378 0.960 . S
H393 C379 0.961 . S
H394 C379 0.961 . S
H395 C379 0.961 . S
H396 C380 0.931 . S
H397 C385 0.930 . S
H398 C386 0.956 . S
H399 C386 0.961 . S
H400 C386 0.961 . S
H401 C387 0.958 . S
H402 C387 0.961 . S
H403 C387 0.960 . S
C404 C405 1.391 . S
C404 C406 1.394 . S
C404 H420 0.931 . S
C405 C404 1.391 . S
C405 C409 1.376 1_655 S
C406 C404 1.394 . S
C406 C407 1.369 . S
C406 C410 1.531 . S
C407 C406 1.369 . S
C407 C408 1.410 1_655 S
C407 C415 1.503 1_655 S
C408 C407 1.410 1_455 S
C408 C409 1.392 . S
C408 C411 1.511 1_556 S
C409 C405 1.376 1_455 S
C409 C408 1.392 . S
C409 H421 0.929 1_556 S
C410 C406 1.531 . S
C410 H422 0.960 . S
C410 H423 0.962 . S
C410 H424 0.960 . S
C411 C408 1.511 1_554 S
C411 H425 0.961 . S
C411 H426 0.961 . S
C411 H427 0.961 1_554 S
C412 C413 1.370 1_554 S
C412 C414 1.363 1_455 S
C412 H428 0.931 1_455 S
C413 C412 1.370 1_556 S
C413 C417 1.408 . S
C414 C412 1.363 1_655 S
C414 C415 1.370 1_654 S
C414 C418 1.524 . S
C415 C407 1.503 1_455 S
C415 C414 1.370 1_456 S
C415 C416 1.403 . S
C416 C415 1.403 . S
C416 C417 1.404 . S
C416 C419 1.539 . S
C417 C413 1.408 . S
C417 C416 1.404 . S
C417 H429 0.930 . S
C418 C414 1.524 . S
C418 H430 0.956 . S
C418 H431 0.961 . S
C418 H432 0.961 . S
C419 C416 1.539 . S
C419 H433 0.958 . S
C419 H434 0.961 . S
C419 H435 0.960 . S
H420 C404 0.931 . S
H421 C409 0.929 1_554 S
H422 C410 0.960 . S
H423 C410 0.962 . S
H424 C410 0.960 . S
H425 C411 0.961 . S
H426 C411 0.961 . S
H427 C411 0.961 1_556 S
H428 C412 0.931 1_655 S
H429 C417 0.930 . S
H430 C418 0.956 . S
H431 C418 0.961 . S
H432 C418 0.961 . S
H433 C419 0.958 . S
H434 C419 0.961 . S
H435 C419 0.960 . S
C436 C437 1.391 . S
C436 C438 1.394 . S
C436 H452 0.931 . S
C437 C436 1.391 . S
C437 C441 1.376 1_545 S
C438 C436 1.394 . S
C438 C439 1.369 . S
C438 C442 1.531 . S
C439 C438 1.369 . S
C439 C440 1.410 1_545 S
C439 C447 1.503 1_545 S
C440 C439 1.410 1_565 S
C440 C441 1.392 . S
C440 C443 1.511 . S
C441 C437 1.376 1_565 S
C441 C440 1.392 . S
C441 H453 0.929 . S
C442 C438 1.531 . S
C442 H454 0.960 . S
C442 H455 0.962 . S
C442 H456 0.960 . S
C443 C440 1.511 . S
C443 H457 0.961 . S
C443 H458 0.961 . S
C443 H459 0.961 . S
C444 C445 1.370 . S
C444 C446 1.363 . S
C444 H460 0.931 . S
C445 C444 1.370 . S
C445 C449 1.408 . S
C446 C444 1.363 . S
C446 C447 1.370 . S
C446 C450 1.524 . S
C447 C439 1.503 1_565 S
C447 C446 1.370 . S
C447 C448 1.403 1_565 S
C448 C447 1.403 1_545 S
C448 C449 1.404 1_545 S
C448 C451 1.539 . S
C449 C445 1.408 . S
C449 C448 1.404 1_565 S
C449 H461 0.930 1_565 S
C450 C446 1.524 . S
C450 H462 0.956 . S
C450 H463 0.961 . S
C450 H464 0.961 . S
C451 C448 1.539 . S
C451 H465 0.958 . S
C451 H466 0.961 . S
C451 H467 0.960 . S
H452 C436 0.931 . S
H453 C441 0.929 . S
H454 C442 0.960 . S
H455 C442 0.962 . S
H456 C442 0.960 . S
H457 C443 0.961 . S
H458 C443 0.961 . S
H459 C443 0.961 . S
H460 C444 0.931 . S
H461 C449 0.930 1_545 S
H462 C450 0.956 . S
H463 C450 0.961 . S
H464 C450 0.961 . S
H465 C451 0.958 . S
H466 C451 0.961 . S
H467 C451 0.960 . S
C85 C76 1.348 . S
C93 C8 1.315 . S
C117 C22 1.271 . S
C125 C7 1.360 . S
C149 C21 1.332 . S
C157 C37 1.316 . S
C181 C50 1.333 . S
C189 C34 1.344 . S
C213 C64 1.327 . S
C221 C49 1.343 . S
C245 C79 1.308 . S
C253 C63 1.342 . S
C277 C6 1.351 . S
C285 C48 1.329 . S
C309 C20 1.279 . S
C317 C62 1.342 . S
C341 C77 1.341 . S
C349 C35 1.333 . S
C373 C78 1.535 . S
C381 C36 1.524 . S
C405 C51 1.535 . S
C413 C9 1.524 . S
C437 C23 1.531 . S
C445 C65 1.527 . S
