# Generated by pormake.
# Topology ukb, (4)-cn, num edge types: 1
# Building blocks:
#     Node 0, Type 0, BuildingBlock: NAHDIM_clean_sbu_0, # of connection points: 4
#     Node 1, Type 0, BuildingBlock: NAHDIM_clean_sbu_0, # of connection points: 4
#     Node 2, Type 0, BuildingBlock: NAHDIM_clean_sbu_0, # of connection points: 4
#     Node 3, Type 0, BuildingBlock: NAHDIM_clean_sbu_0, # of connection points: 4
#     Node 4, Type 0, BuildingBlock: NAHDIM_clean_sbu_0, # of connection points: 4
#     Node 5, Type 0, BuildingBlock: NAHDIM_clean_sbu_0, # of connection points: 4
#     Node 6, Type 0, BuildingBlock: NAHDIM_clean_sbu_0, # of connection points: 4
#     Node 7, Type 0, BuildingBlock: NAHDIM_clean_sbu_0, # of connection points: 4
#     Node 8, Type 0, BuildingBlock: NAHDIM_clean_sbu_0, # of connection points: 4
#     Node 9, Type 0, BuildingBlock: NAHDIM_clean_sbu_0, # of connection points: 4
#     Node 10, Type 0, BuildingBlock: NAHDIM_clean_sbu_0, # of connection points: 4
#     Node 11, Type 0, BuildingBlock: NAHDIM_clean_sbu_0, # of connection points: 4
#     Node 12, Type 0, BuildingBlock: NAHDIM_clean_sbu_0, # of connection points: 4
#     Node 13, Type 0, BuildingBlock: NAHDIM_clean_sbu_0, # of connection points: 4
#     Node 14, Type 0, BuildingBlock: NAHDIM_clean_sbu_0, # of connection points: 4
#     Node 15, Type 0, BuildingBlock: NAHDIM_clean_sbu_0, # of connection points: 4
#     Edge 16, Type (0, 0), BuildingBlock: OJICUG_clean_linker_0, # of connection points: 2
#     Edge 17, Type (0, 0), BuildingBlock: OJICUG_clean_linker_0, # of connection points: 2
#     Edge 18, Type (0, 0), BuildingBlock: OJICUG_clean_linker_0, # of connection points: 2
#     Edge 19, Type (0, 0), BuildingBlock: OJICUG_clean_linker_0, # of connection points: 2
#     Edge 20, Type (0, 0), BuildingBlock: OJICUG_clean_linker_0, # of connection points: 2
#     Edge 21, Type (0, 0), BuildingBlock: OJICUG_clean_linker_0, # of connection points: 2
#     Edge 22, Type (0, 0), BuildingBlock: OJICUG_clean_linker_0, # of connection points: 2
#     Edge 23, Type (0, 0), BuildingBlock: OJICUG_clean_linker_0, # of connection points: 2
#     Edge 24, Type (0, 0), BuildingBlock: OJICUG_clean_linker_0, # of connection points: 2
#     Edge 25, Type (0, 0), BuildingBlock: OJICUG_clean_linker_0, # of connection points: 2
#     Edge 26, Type (0, 0), BuildingBlock: OJICUG_clean_linker_0, # of connection points: 2
#     Edge 27, Type (0, 0), BuildingBlock: OJICUG_clean_linker_0, # of connection points: 2
#     Edge 28, Type (0, 0), BuildingBlock: OJICUG_clean_linker_0, # of connection points: 2
#     Edge 29, Type (0, 0), BuildingBlock: OJICUG_clean_linker_0, # of connection points: 2
#     Edge 30, Type (0, 0), BuildingBlock: OJICUG_clean_linker_0, # of connection points: 2
#     Edge 31, Type (0, 0), BuildingBlock: OJICUG_clean_linker_0, # of connection points: 2
#     Edge 32, Type (0, 0), BuildingBlock: OJICUG_clean_linker_0, # of connection points: 2
#     Edge 33, Type (0, 0), BuildingBlock: OJICUG_clean_linker_0, # of connection points: 2
#     Edge 34, Type (0, 0), BuildingBlock: OJICUG_clean_linker_0, # of connection points: 2
#     Edge 35, Type (0, 0), BuildingBlock: OJICUG_clean_linker_0, # of connection points: 2
#     Edge 36, Type (0, 0), BuildingBlock: OJICUG_clean_linker_0, # of connection points: 2
#     Edge 37, Type (0, 0), BuildingBlock: OJICUG_clean_linker_0, # of connection points: 2
#     Edge 38, Type (0, 0), BuildingBlock: OJICUG_clean_linker_0, # of connection points: 2
#     Edge 39, Type (0, 0), BuildingBlock: OJICUG_clean_linker_0, # of connection points: 2
#     Edge 40, Type (0, 0), BuildingBlock: OJICUG_clean_linker_0, # of connection points: 2
#     Edge 41, Type (0, 0), BuildingBlock: OJICUG_clean_linker_0, # of connection points: 2
#     Edge 42, Type (0, 0), BuildingBlock: OJICUG_clean_linker_0, # of connection points: 2
#     Edge 43, Type (0, 0), BuildingBlock: OJICUG_clean_linker_0, # of connection points: 2
#     Edge 44, Type (0, 0), BuildingBlock: OJICUG_clean_linker_0, # of connection points: 2
#     Edge 45, Type (0, 0), BuildingBlock: OJICUG_clean_linker_0, # of connection points: 2
#     Edge 46, Type (0, 0), BuildingBlock: OJICUG_clean_linker_0, # of connection points: 2
#     Edge 47, Type (0, 0), BuildingBlock: OJICUG_clean_linker_0, # of connection points: 2
# Relax obj value: 0.149
# Max RMSD: 0.161
# Mean RMSD: 0.161
data_MOF--net-ukb--node1-NAHDIM_clean_sbu_0--edge1-OJICUG_clean_linker_0
_symmetry_space_group_name_H-M    P1
_symmetry_Int_Tables_number       1
_symmetry_cell_setting            triclinic
loop_
_symmetry_equiv_pos_as_xyz
'x, y, z'
_cell_length_a     31.849126
_cell_length_b     31.908575
_cell_length_c     27.546565
_cell_angle_alpha  90.000897
_cell_angle_beta   90.05921
_cell_angle_gamma 89.86812
loop_
_atom_site_label
_atom_site_type_symbol
_atom_site_fract_x
_atom_site_fract_y
_atom_site_fract_z
_atom_type_partial_charge
C0 C 0.44368 0.17005 0.20639 0.0
O1 O 0.44735 0.16613 0.1591 0.0
O2 O 0.51756 0.22152 0.12728 0.0
Zn3 Zn 0.52588 0.20772 0.19839 0.0
O4 O 0.56732 0.15983 0.20447 0.0
C5 C 0.55015 0.29449 0.21897 0.0
O6 O 0.53322 0.30285 0.17654 0.0
O7 O 0.47252 0.18847 0.22999 0.0
C8 C 0.60599 0.16678 0.21256 0.0
O9 O 0.61906 0.20567 0.21631 0.0
C10 C 0.55023 0.22706 0.10162 0.0
O11 O 0.58722 0.22439 0.12245 0.0
O12 O 0.5492 0.25719 0.23508 0.0
C13 C 0.31558 0.43021 0.69419 0.0
O14 O 0.32234 0.43449 0.64741 0.0
O15 O 0.27598 0.50533 0.60998 0.0
Zn16 Zn 0.28688 0.51382 0.68145 0.0
O17 O 0.33896 0.54828 0.69057 0.0
C18 C 0.20657 0.53841 0.73108 0.0
O19 O 0.19723 0.49863 0.73671 0.0
O20 O 0.29712 0.45963 0.71685 0.0
C21 C 0.33884 0.58633 0.67704 0.0
O22 O 0.3058 0.60101 0.65395 0.0
C23 C 0.23914 0.49833 0.59417 0.0
O24 O 0.20802 0.49534 0.62521 0.0
O25 O 0.24059 0.54864 0.71024 0.0
C26 C 0.06903 0.31652 0.1917 0.0
O27 O 0.0614 0.31868 0.14488 0.0
O28 O 0.98711 0.26781 0.12418 0.0
Zn29 Zn 0.98475 0.28324 0.19539 0.0
O30 O 0.94274 0.32995 0.20591 0.0
C31 C 0.97607 0.19768 0.23881 0.0
O32 O 0.00788 0.18523 0.21208 0.0
O33 O 0.04111 0.30179 0.21978 0.0
C34 C 0.9046 0.3185 0.20843 0.0
O35 O 0.89531 0.2791 0.19981 0.0
C36 C 0.9665 0.23736 0.1064 0.0
O37 O 0.94255 0.21478 0.13498 0.0
O38 O 0.96388 0.23554 0.23655 0.0
C39 C 0.17606 0.07027 0.70713 0.0
O40 O 0.16997 0.06082 0.66124 0.0
O41 O 0.22478 0.98828 0.6375 0.0
Zn42 Zn 0.20802 0.98647 0.7085 0.0
O43 O 0.1561 0.95144 0.71866 0.0
C44 C 0.29233 0.96712 0.74461 0.0
O45 O 0.30437 0.99811 0.7165 0.0
O46 O 0.19453 0.04384 0.73433 0.0
C47 C 0.14761 0.91827 0.69511 0.0
O48 O 0.17242 0.90657 0.65954 0.0
C49 C 0.24827 0.95967 0.62013 0.0
O50 O 0.26085 0.92911 0.64864 0.0
O51 O 0.2535 0.95855 0.7477 0.0
C52 C 0.42759 0.3225 0.79887 0.0
O53 O 0.43231 0.32739 0.84592 0.0
O54 O 0.50633 0.27222 0.87532 0.0
Zn55 Zn 0.51186 0.28899 0.80519 0.0
O56 O 0.5519 0.33774 0.80175 0.0
C57 C 0.53535 0.20386 0.77576 0.0
O58 O 0.50846 0.19165 0.80899 0.0
O59 O 0.45682 0.3052 0.77468 0.0
C60 C 0.54359 0.37466 0.78725 0.0
O61 O 0.5051 0.38414 0.77398 0.0
C62 C 0.54106 0.26536 0.89667 0.0
O63 O 0.57601 0.26879 0.87166 0.0
O64 O 0.54 0.24276 0.76768 0.0
C65 C 0.19809 0.41633 0.27869 0.0
O66 O 0.20344 0.41589 0.32596 0.0
O67 O 0.23727 0.49713 0.35753 0.0
Zn68 Zn 0.228 0.50235 0.28537 0.0
O69 O 0.18169 0.54368 0.27177 0.0
C70 C 0.27914 0.54177 0.21323 0.0
O71 O 0.24317 0.54302 0.18986 0.0
O72 O 0.20925 0.44841 0.25468 0.0
C73 C 0.17914 0.57969 0.29116 0.0
O74 O 0.20756 0.59106 0.32314 0.0
C75 C 0.20696 0.49695 0.38751 0.0
O76 O 0.16828 0.49909 0.37103 0.0
O77 O 0.28073 0.52416 0.25456 0.0
C78 C 0.06447 0.1883 0.79579 0.0
O79 O 0.05965 0.18681 0.8431 0.0
O80 O 0.98097 0.22826 0.8704 0.0
Zn81 Zn 0.97824 0.21684 0.79806 0.0
O82 O 0.94196 0.1667 0.78497 0.0
C83 C 0.94615 0.30119 0.78127 0.0
O84 O 0.96302 0.30912 0.82382 0.0
O85 O 0.03485 0.20287 0.76978 0.0
C86 C 0.90384 0.16584 0.79833 0.0
O87 O 0.88847 0.19773 0.82277 0.0
C88 C 0.97382 0.19949 0.90126 0.0
O89 O 0.96593 0.16135 0.88589 0.0
O90 O 0.95045 0.26491 0.7629 0.0
C91 C 0.33312 0.05926 0.30909 0.0
O92 O 0.34045 0.05214 0.35531 0.0
O93 O 0.28241 0.98505 0.38776 0.0
Zn94 Zn 0.29281 0.97899 0.31549 0.0
O95 O 0.33923 0.93697 0.30263 0.0
C96 C 0.20363 0.96633 0.29976 0.0
O97 O 0.19986 0.99109 0.33762 0.0
O98 O 0.3113 0.03312 0.28521 0.0
C99 C 0.33065 0.89906 0.29254 0.0
O100 O 0.29121 0.8871 0.29213 0.0
C101 C 0.29308 0.95585 0.4167 0.0
O102 O 0.31196 0.92248 0.39927 0.0
O103 O 0.24001 0.95828 0.2833 0.0
C104 C 0.57127 0.80607 0.78017 0.0
O105 O 0.57325 0.79713 0.82665 0.0
O106 O 0.48922 0.77024 0.8595 0.0
Zn107 Zn 0.48199 0.78664 0.78934 0.0
O108 O 0.44556 0.83804 0.78496 0.0
C109 C 0.45863 0.7024 0.75783 0.0
O110 O 0.48744 0.68975 0.78874 0.0
O111 O 0.53676 0.80141 0.75764 0.0
C112 C 0.40919 0.83883 0.80378 0.0
O113 O 0.39597 0.8059 0.82794 0.0
C114 C 0.49448 0.79846 0.8915 0.0
O115 O 0.4959 0.83791 0.87791 0.0
O116 O 0.45222 0.7414 0.75226 0.0
C117 C 0.68334 0.57178 0.29923 0.0
O118 O 0.67992 0.56956 0.34666 0.0
O119 O 0.72514 0.49151 0.38064 0.0
Zn120 Zn 0.71689 0.48677 0.30787 0.0
O121 O 0.66983 0.44652 0.29073 0.0
C122 C 0.77869 0.42594 0.2936 0.0
O123 O 0.75638 0.41026 0.32923 0.0
O124 O 0.7007 0.54172 0.27645 0.0
C125 C 0.6569 0.41499 0.31466 0.0
O126 O 0.67359 0.40641 0.35714 0.0
C127 C 0.69486 0.49049 0.41065 0.0
O128 O 0.65618 0.4883 0.39424 0.0
O129 O 0.76949 0.46221 0.27766 0.0
C130 C 0.92881 0.67858 0.80433 0.0
O131 O 0.93474 0.67586 0.85144 0.0
O132 O 0.01146 0.72716 0.8756 0.0
Zn133 Zn 0.01329 0.71294 0.80409 0.0
O134 O 0.05384 0.66466 0.79424 0.0
C135 C 0.03163 0.80023 0.77841 0.0
O136 O 0.01063 0.80965 0.81798 0.0
O137 O 0.95726 0.69474 0.77806 0.0
C138 C 0.0913 0.67189 0.78073 0.0
O139 O 0.10323 0.71084 0.77409 0.0
C140 C 0.04558 0.73892 0.89532 0.0
O141 O 0.0794 0.74205 0.86836 0.0
O142 O 0.03475 0.76212 0.76555 0.0
C143 C 0.83457 0.92895 0.30362 0.0
O144 O 0.84178 0.93683 0.3497 0.0
O145 O 0.78296 0.00665 0.37846 0.0
Zn146 Zn 0.80234 0.01187 0.30865 0.0
O147 O 0.85571 0.04514 0.30482 0.0
C148 C 0.72217 0.03435 0.26122 0.0
O149 O 0.70842 0.99761 0.2756 0.0
O150 O 0.81487 0.956 0.27851 0.0
C151 C 0.85614 0.08289 0.31938 0.0
O152 O 0.82245 0.09823 0.34045 0.0
C153 C 0.7543 0.03069 0.3947 0.0
O154 O 0.73777 0.0591 0.36593 0.0
O155 O 0.75997 0.04456 0.26986 0.0
C156 C 0.56729 0.67405 0.19217 0.0
O157 O 0.56324 0.66746 0.14531 0.0
O158 O 0.49277 0.71858 0.10891 0.0
Zn159 Zn 0.4835 0.70442 0.17938 0.0
O160 O 0.44716 0.65325 0.18345 0.0
C161 C 0.46036 0.78286 0.23287 0.0
O162 O 0.50051 0.79125 0.23774 0.0
O163 O 0.5375 0.69197 0.21486 0.0
C164 C 0.41414 0.65135 0.15763 0.0
O165 O 0.40642 0.68155 0.12642 0.0
C166 C 0.50079 0.75575 0.09529 0.0
O167 O 0.50517 0.78525 0.12814 0.0
O168 O 0.44903 0.74979 0.21084 0.0
C169 C 0.80894 0.57077 0.71196 0.0
O170 O 0.81518 0.56196 0.66594 0.0
O171 O 0.75878 0.49544 0.63629 0.0
Zn172 Zn 0.76963 0.49056 0.70875 0.0
O173 O 0.8176 0.45112 0.72257 0.0
C174 C 0.68225 0.48346 0.74138 0.0
O175 O 0.67644 0.51907 0.71837 0.0
O176 O 0.78723 0.54573 0.7375 0.0
C177 C 0.82525 0.41713 0.70024 0.0
O178 O 0.80118 0.40603 0.6637 0.0
C179 C 0.72909 0.47535 0.616 0.0
O180 O 0.70582 0.45007 0.64217 0.0
O181 O 0.71879 0.46738 0.7427 0.0
C182 C 0.94679 0.81697 0.20592 0.0
O183 O 0.95149 0.82116 0.1588 0.0
O184 O 0.02427 0.77297 0.12806 0.0
Zn185 Zn 0.03134 0.78556 0.19933 0.0
O186 O 0.07085 0.83443 0.20756 0.0
C187 C 0.05907 0.69984 0.21729 0.0
O188 O 0.03699 0.69105 0.17829 0.0
O189 O 0.97612 0.80017 0.2305 0.0
C190 C 0.06513 0.86255 0.23962 0.0
O191 O 0.03116 0.8613 0.26656 0.0
C192 C 0.05661 0.77369 0.10111 0.0
O193 O 0.09322 0.78225 0.12075 0.0
O194 O 0.05945 0.73719 0.2332 0.0
C195 C 0.67854 0.92835 0.69448 0.0
O196 O 0.67383 0.93793 0.64842 0.0
O197 O 0.72366 0.01179 0.62731 0.0
Zn198 Zn 0.70739 0.01302 0.69819 0.0
O199 O 0.6562 0.04898 0.70923 0.0
C200 C 0.79164 0.03958 0.72413 0.0
O201 O 0.80303 0.01686 0.68657 0.0
O202 O 0.69453 0.95527 0.72298 0.0
C203 C 0.65842 0.08799 0.70038 0.0
O204 O 0.69313 0.10307 0.68152 0.0
C205 C 0.69839 0.0227 0.59388 0.0
O206 O 0.66009 0.03436 0.60536 0.0
O207 O 0.75327 0.04044 0.7365 0.0
C208 C 0.38092 0.12289 0.20743 0.0
C209 C 0.41028 0.14735 0.23281 0.0
H210 H 0.33303 0.07616 0.21168 0.0
C211 C 0.41005 0.14656 0.28385 0.0
H212 H 0.38001 0.12305 0.16812 0.0
C213 C 0.38317 0.1196 0.30885 0.0
C214 C 0.35589 0.09297 0.28334 0.0
H215 H 0.432 0.16531 0.30457 0.0
H216 H 0.38516 0.11835 0.34808 0.0
C217 C 0.35395 0.09601 0.23245 0.0
C218 C 0.33767 0.39667 0.7725 0.0
C219 C 0.33724 0.39652 0.72145 0.0
H220 H 0.36642 0.37299 0.83722 0.0
C221 C 0.36225 0.36717 0.69668 0.0
H222 H 0.31853 0.41865 0.79273 0.0
C223 C 0.38975 0.34106 0.72217 0.0
C224 C 0.39277 0.34371 0.77299 0.0
H225 H 0.36235 0.36589 0.65738 0.0
H226 H 0.41017 0.32036 0.70178 0.0
C227 C 0.36519 0.37049 0.79804 0.0
C228 C 0.1328 0.36162 0.18349 0.0
C229 C 0.10703 0.33616 0.21242 0.0
H230 H 0.18235 0.40672 0.18176 0.0
C231 C 0.11576 0.3327 0.2623 0.0
H232 H 0.12715 0.36467 0.14487 0.0
C233 C 0.14764 0.35656 0.28341 0.0
C234 C 0.17115 0.3846 0.25511 0.0
H235 H 0.09681 0.31291 0.28548 0.0
H236 H 0.15214 0.35475 0.32234 0.0
C237 C 0.16448 0.38571 0.20465 0.0
C238 C 0.15522 0.11328 0.77933 0.0
C239 C 0.15437 0.10681 0.72885 0.0
H240 H 0.12777 0.14466 0.84017 0.0
C241 C 0.12844 0.13248 0.7001 0.0
H242 H 0.17518 0.09436 0.80251 0.0
C243 C 0.10123 0.16136 0.72172 0.0
C244 C 0.09942 0.16516 0.77253 0.0
H245 H 0.12737 0.12866 0.66105 0.0
H246 H 0.07997 0.17895 0.69869 0.0
C247 C 0.12801 0.14218 0.80095 0.0
C248 C 0.63559 0.85064 0.78501 0.0
C249 C 0.60534 0.82994 0.75669 0.0
H250 H 0.68283 0.89819 0.78738 0.0
C251 C 0.60436 0.83709 0.70638 0.0
H252 H 0.63729 0.84563 0.82385 0.0
C253 C 0.63062 0.867 0.68544 0.0
C254 C 0.65805 0.89062 0.71452 0.0
H255 H 0.58172 0.82121 0.68352 0.0
H256 H 0.62744 0.87338 0.64699 0.0
C257 C 0.6616 0.88088 0.76413 0.0
C258 C 0.63183 0.62918 0.19483 0.0
C259 C 0.60233 0.6543 0.21927 0.0
H260 H 0.68102 0.58372 0.20091 0.0
C261 C 0.60407 0.65661 0.2702 0.0
H262 H 0.63168 0.627 0.15559 0.0
C263 C 0.63252 0.63183 0.29625 0.0
C264 C 0.65972 0.60416 0.27189 0.0
H265 H 0.58207 0.67596 0.29015 0.0
H266 H 0.63155 0.63274 0.33553 0.0
C267 C 0.66019 0.60434 0.22085 0.0
C268 C 0.8893 0.65615 0.73019 0.0
C269 C 0.89291 0.65704 0.78107 0.0
H270 H 0.8595 0.62855 0.66843 0.0
C271 C 0.86439 0.63372 0.80901 0.0
H272 H 0.91044 0.6741 0.70755 0.0
C273 C 0.835 0.60764 0.78649 0.0
C274 C 0.83365 0.6043 0.7356 0.0
H275 H 0.86606 0.634 0.84828 0.0
H276 H 0.81492 0.58845 0.80906 0.0
C277 C 0.86002 0.63003 0.70771 0.0
C278 C 0.88338 0.86747 0.30595 0.0
C279 C 0.8566 0.89391 0.27927 0.0
H280 H 0.93267 0.82191 0.30368 0.0
C281 C 0.85529 0.88989 0.22847 0.0
H282 H 0.88486 0.86944 0.34517 0.0
C283 C 0.88278 0.86262 0.20463 0.0
C284 C 0.91206 0.83881 0.23113 0.0
H285 H 0.83472 0.9095 0.20684 0.0
H286 H 0.88257 0.86195 0.16531 0.0
C287 C 0.91083 0.84018 0.28213 0.0
C288 C 0.59142 0.31814 0.29138 0.0
C289 C 0.57391 0.32702 0.24563 0.0
H290 H 0.63101 0.33905 0.34926 0.0
C291 C 0.58149 0.36632 0.22442 0.0
H292 H 0.58606 0.28822 0.30885 0.0
C293 C 0.60745 0.39543 0.24754 0.0
C294 C 0.62619 0.38594 0.29248 0.0
H295 H 0.56841 0.37419 0.18927 0.0
H296 H 0.61356 0.42501 0.22962 0.0
C297 C 0.61718 0.34733 0.31461 0.0
C298 C 0.18962 0.61404 0.74314 0.0
C299 C 0.17724 0.57188 0.74656 0.0
H300 H 0.17247 0.67829 0.75141 0.0
C301 C 0.13661 0.56262 0.76322 0.0
H302 H 0.22076 0.62239 0.73072 0.0
C303 C 0.10864 0.59501 0.77511 0.0
C304 C 0.12092 0.63717 0.77065 0.0
H305 H 0.12615 0.53045 0.76627 0.0
H306 H 0.0773 0.58702 0.78714 0.0
C307 C 0.16186 0.64622 0.75507 0.0
C308 C 0.92479 0.09605 0.27734 0.0
C309 C 0.89105 0.11096 0.30549 0.0
H310 H 0.97857 0.1118 0.23436 0.0
C311 C 0.88879 0.15392 0.31622 0.0
H312 H 0.92757 0.06306 0.26866 0.0
C313 C 0.91788 0.18174 0.29652 0.0
C314 C 0.95002 0.16725 0.26578 0.0
H315 H 0.86346 0.16643 0.3381 0.0
H316 H 0.91414 0.21489 0.30393 0.0
C317 C 0.95407 0.12396 0.25772 0.0
C318 C 0.3102 0.90415 0.79479 0.0
C319 C 0.32349 0.93777 0.76562 0.0
H320 H 0.32686 0.84673 0.83003 0.0
C321 C 0.36614 0.94063 0.75309 0.0
H322 H 0.2776 0.90114 0.80536 0.0
C323 C 0.39439 0.90928 0.76711 0.0
C324 C 0.3806 0.87451 0.7941 0.0
H325 H 0.37743 0.96617 0.73077 0.0
H326 H 0.42676 0.91164 0.75542 0.0
C327 C 0.33846 0.87291 0.80894 0.0
C328 C 0.56085 0.13025 0.76229 0.0
C329 C 0.56379 0.1733 0.75207 0.0
H330 H 0.58826 0.06935 0.7536 0.0
C331 C 0.59613 0.18737 0.72145 0.0
H332 H 0.53622 0.11837 0.78558 0.0
C333 C 0.62601 0.15937 0.70335 0.0
C334 C 0.62413 0.11662 0.71521 0.0
H335 H 0.59925 0.22029 0.71261 0.0
H336 H 0.6512 0.17149 0.68104 0.0
C337 C 0.59067 0.10216 0.74392 0.0
C338 C 0.38685 0.59124 0.20674 0.0
C339 C 0.38202 0.61905 0.16753 0.0
H340 H 0.3582 0.54484 0.25183 0.0
C341 C 0.34459 0.61803 0.14049 0.0
H342 H 0.41537 0.59107 0.2282 0.0
C343 C 0.31183 0.5914 0.15396 0.0
C344 C 0.31577 0.56538 0.19488 0.0
H345 H 0.33997 0.63885 0.10988 0.0
H346 H 0.28285 0.59249 0.13339 0.0
C347 C 0.35404 0.56476 0.22034 0.0
C348 C 0.86628 0.34995 0.6959 0.0
C349 C 0.85895 0.38894 0.71808 0.0
H350 H 0.89981 0.29177 0.69816 0.0
C351 C 0.88282 0.39997 0.75912 0.0
H352 H 0.84859 0.34054 0.66413 0.0
C353 C 0.91215 0.37203 0.77867 0.0
C354 C 0.91839 0.33243 0.75757 0.0
H355 H 0.87816 0.42986 0.77699 0.0
H356 H 0.92918 0.38114 0.81103 0.0
C357 C 0.89572 0.32201 0.7154 0.0
C358 C 0.09367 0.92257 0.28804 0.0
C359 C 0.09883 0.89297 0.2507 0.0
H360 H 0.12263 0.96927 0.33259 0.0
C361 C 0.13764 0.89063 0.2266 0.0
H362 H 0.06409 0.92538 0.30714 0.0
C363 C 0.17122 0.91573 0.24126 0.0
C364 C 0.16669 0.94383 0.28025 0.0
H365 H 0.14262 0.86833 0.19751 0.0
H366 H 0.20111 0.91209 0.22301 0.0
C367 C 0.12725 0.94778 0.30263 0.0
C368 C 0.37058 0.65784 0.68137 0.0
C369 C 0.37263 0.61502 0.69291 0.0
H370 H 0.3962 0.71892 0.69254 0.0
C371 C 0.40541 0.60061 0.72289 0.0
H372 H 0.34588 0.66997 0.65822 0.0
C373 C 0.43434 0.62877 0.74271 0.0
C374 C 0.43106 0.67187 0.73294 0.0
H375 H 0.40797 0.56776 0.73237 0.0
H376 H 0.45845 0.61687 0.76683 0.0
C377 C 0.39946 0.68595 0.70115 0.0
C378 C 0.83642 0.32989 0.25014 0.0
C379 C 0.87196 0.34699 0.22757 0.0
H380 H 0.77975 0.3415 0.28919 0.0
C381 C 0.87644 0.39082 0.22576 0.0
H382 H 0.83215 0.29627 0.25245 0.0
C383 C 0.84573 0.41699 0.24627 0.0
C384 C 0.81085 0.39957 0.27 0.0
H385 H 0.90359 0.40478 0.20856 0.0
H386 H 0.84973 0.45066 0.24458 0.0
C387 C 0.80651 0.35583 0.27155 0.0
C388 C 0.05994 0.87325 0.7718 0.0
C389 C 0.05665 0.83249 0.75292 0.0
H390 H 0.0911 0.93251 0.76814 0.0
C391 C 0.0804 0.82174 0.71172 0.0
H392 H 0.04197 0.88261 0.80336 0.0
C393 C 0.10852 0.85036 0.69147 0.0
C394 C 0.11361 0.8903 0.71207 0.0
H395 H 0.07843 0.79067 0.69606 0.0
H396 H 0.12742 0.84051 0.66085 0.0
C397 C 0.08818 0.90185 0.75162 0.0
C398 C 0.67901 0.13975 0.22309 0.0
C399 C 0.63576 0.13174 0.22008 0.0
H400 H 0.74015 0.11526 0.23748 0.0
C401 C 0.6214 0.09046 0.22649 0.0
H402 H 0.69116 0.1711 0.21785 0.0
C403 C 0.64962 0.05822 0.23799 0.0
C404 C 0.69271 0.06667 0.24294 0.0
H405 H 0.58823 0.08327 0.22421 0.0
H406 H 0.6375 0.02703 0.24439 0.0
C407 C 0.70715 0.1076 0.23419 0.0
C408 C 0.43837 0.85259 0.26721 0.0
C409 C 0.42783 0.81227 0.25075 0.0
H410 H 0.4159 0.91185 0.29325 0.0
C411 C 0.38534 0.8004 0.24995 0.0
H412 H 0.4708 0.86267 0.26824 0.0
C413 C 0.35403 0.82837 0.26438 0.0
C414 C 0.36436 0.86902 0.27975 0.0
H415 H 0.37607 0.7695 0.23773 0.0
H416 H 0.32163 0.81823 0.26273 0.0
C417 C 0.40691 0.88076 0.28144 0.0
C418 C 0.65286 0.42058 0.78326 0.0
C419 C 0.64605 0.45865 0.75882 0.0
H420 H 0.62596 0.36449 0.81172 0.0
C421 C 0.60465 0.47072 0.74773 0.0
H422 H 0.68432 0.41045 0.79269 0.0
C423 C 0.57099 0.44418 0.7586 0.0
C424 C 0.57814 0.40512 0.78082 0.0
H425 H 0.59832 0.4999 0.72899 0.0
H426 H 0.5396 0.45366 0.7481 0.0
C427 C 0.61933 0.39416 0.79415 0.0
C428 C 0.14339 0.64969 0.29536 0.0
C429 C 0.14606 0.60934 0.27521 0.0
H430 H 0.11358 0.7098 0.29324 0.0
C431 C 0.11787 0.59811 0.2381 0.0
H432 H 0.16448 0.65927 0.32415 0.0
C433 C 0.08869 0.62707 0.22032 0.0
C434 C 0.08697 0.66788 0.23933 0.0
H435 H 0.11894 0.56719 0.22189 0.0
H436 H 0.06816 0.61772 0.1909 0.0
C437 C 0.11413 0.67863 0.27766 0.0
C438 C 0.89111 0.10001 0.75099 0.0
C439 C 0.87641 0.13079 0.78339 0.0
H440 H 0.87591 0.04685 0.70699 0.0
C441 C 0.83459 0.12899 0.7993 0.0
H442 H 0.92326 0.1004 0.7382 0.0
C443 C 0.80756 0.09814 0.78166 0.0
C444 C 0.8217 0.06856 0.74747 0.0
H445 H 0.82238 0.15203 0.82451 0.0
H446 H 0.77517 0.09842 0.79362 0.0
C447 C 0.86399 0.06928 0.73311 0.0
C448 C 0.58393 0.24045 0.0214 0.0
C449 C 0.54718 0.23646 0.04914 0.0
H450 H 0.61077 0.25244 0.95183 0.0
C451 C 0.50803 0.24155 0.0262 0.0
H452 H 0.61462 0.23663 0.03783 0.0
C453 C 0.50581 0.25074 0.97654 0.0
C454 C 0.5427 0.25487 0.94895 0.0
H455 H 0.47913 0.23863 0.0466 0.0
H456 H 0.47526 0.25471 0.95985 0.0
C457 C 0.58173 0.24947 0.97194 0.0
C458 C 0.18194 0.49306 0.47362 0.0
C459 C 0.21527 0.49543 0.44036 0.0
H460 H 0.16332 0.49183 0.54822 0.0
C461 C 0.25663 0.49726 0.45812 0.0
H462 H 0.14972 0.49147 0.46114 0.0
C463 C 0.26443 0.49759 0.50805 0.0
C464 C 0.23105 0.4959 0.54133 0.0
H465 H 0.28304 0.49906 0.43348 0.0
H466 H 0.29662 0.49959 0.52052 0.0
C467 C 0.18975 0.4932 0.52357 0.0
C468 C 0.95359 0.18939 0.03616 0.0
C469 C 0.9692 0.22755 0.054 0.0
H470 H 0.94322 0.15047 0.9741 0.0
C471 C 0.98704 0.25624 0.02127 0.0
H472 H 0.9398 0.16656 0.06044 0.0
C473 C 0.98864 0.24718 0.97161 0.0
C474 C 0.97296 0.209 0.95381 0.0
H475 H -0.00069 0.28594 0.03391 0.0
H476 H 0.00222 0.27005 0.94721 0.0
C477 C 0.95569 0.18011 0.98666 0.0
C478 C 0.29668 0.92657 0.50072 0.0
C479 C 0.2828 0.95821 0.46903 0.0
H480 H 0.29682 0.90233 0.57297 0.0
C481 C 0.25818 0.99112 0.48766 0.0
H482 H 0.3158 0.90083 0.48764 0.0
C483 C 0.24713 0.99192 0.53684 0.0
C484 C 0.26059 0.95989 0.56833 0.0
H485 H 0.24696 0.01596 0.46416 0.0
H486 H 0.22778 0.01744 0.55007 0.0
C487 C 0.28576 0.92743 0.54975 0.0
C488 C 0.49435 0.74527 0.95846 0.0
C489 C 0.49823 0.78717 0.94342 0.0
H490 H 0.4923 0.70243 0.01816 0.0
C491 C 0.50483 0.81837 0.9786 0.0
H492 H 0.48936 0.72046 0.93226 0.0
C493 C 0.50666 0.80802 0.02785 0.0
C494 C 0.50181 0.76626 0.04299 0.0
H495 H 0.50811 0.85094 0.96822 0.0
H496 H 0.51114 0.83292 0.05406 0.0
C497 C 0.49608 0.73493 0.00772 0.0
C498 C 0.68099 0.46895 0.54471 0.0
C499 C 0.72026 0.48058 0.56364 0.0
H500 H 0.64198 0.46366 0.48174 0.0
C501 C 0.75079 0.49681 0.53206 0.0
H502 H 0.65672 0.45659 0.56818 0.0
C503 C 0.74251 0.50037 0.48232 0.0
C504 C 0.70326 0.48853 0.46341 0.0
H505 H 0.78134 0.50602 0.54563 0.0
H506 H 0.76684 0.51234 0.45867 0.0
C507 C 0.67245 0.47323 0.49521 0.0
C508 C 0.01468 0.75394 0.02729 0.0
C509 C 0.05329 0.76508 0.04845 0.0
H510 H 0.98185 0.73688 0.96226 0.0
C511 C 0.08899 0.76793 0.01875 0.0
H512 H 0.98657 0.75149 0.04919 0.0
C513 C 0.08626 0.7597 0.96909 0.0
C514 C 0.04778 0.74831 0.94789 0.0
H515 H 0.1192 0.77651 0.03381 0.0
H516 H 0.11449 0.76211 0.94738 0.0
C517 C 0.01196 0.74558 0.97749 0.0
C518 C 0.68841 0.04477 0.50764 0.0
C519 C 0.7123 0.02346 0.54272 0.0
H520 H 0.68314 0.06396 0.43354 0.0
C521 C 0.74983 0.00365 0.52858 0.0
H522 H 0.6594 0.06041 0.51739 0.0
C523 C 0.76326 0.0053 0.48028 0.0
C524 C 0.7397 0.02732 0.44544 0.0
H525 H 0.76884 0.98686 0.55481 0.0
H526 H 0.79239 0.98994 0.47043 0.0
C527 C 0.70211 0.04692 0.4596 0.0
loop_
_geom_bond_atom_site_label_1
_geom_bond_atom_site_label_2
_geom_bond_distance
_geom_bond_site_symmetry_2
_ccdc_geom_bond_type
C0 O1 1.160 . S
C0 O7 1.185 . S
O1 C0 1.160 . S
O2 Zn3 1.899 . S
O2 C10 1.284 . S
Zn3 O2 1.899 . S
Zn3 O4 2.032 . S
Zn3 O7 2.086 . S
Zn3 O12 1.977 . S
O4 Zn3 2.032 . S
O4 C8 1.278 . S
C5 O6 1.203 . S
C5 O12 1.267 . S
O6 C5 1.203 . S
O7 C0 1.185 . S
O7 Zn3 2.086 . S
C8 O4 1.278 . S
C8 O9 1.211 . S
O9 C8 1.211 . S
C10 O2 1.284 . S
C10 O11 1.273 . S
O11 C10 1.273 . S
O12 Zn3 1.977 . S
O12 C5 1.267 . S
C13 O14 1.160 . S
C13 O20 1.185 . S
O14 C13 1.160 . S
O15 Zn16 1.899 . S
O15 C23 1.284 . S
Zn16 O15 1.899 . S
Zn16 O17 2.032 . S
Zn16 O20 2.086 . S
Zn16 O25 1.977 . S
O17 Zn16 2.032 . S
O17 C21 1.278 . S
C18 O19 1.203 . S
C18 O25 1.267 . S
O19 C18 1.203 . S
O20 C13 1.185 . S
O20 Zn16 2.086 . S
C21 O17 1.278 . S
C21 O22 1.211 . S
O22 C21 1.211 . S
C23 O15 1.284 . S
C23 O24 1.273 . S
O24 C23 1.273 . S
O25 Zn16 1.977 . S
O25 C18 1.267 . S
C26 O27 1.160 . S
C26 O33 1.185 . S
O27 C26 1.160 . S
O28 Zn29 1.899 . S
O28 C36 1.284 . S
Zn29 O28 1.899 . S
Zn29 O30 2.032 . S
Zn29 O33 2.086 1_655 S
Zn29 O38 1.977 . S
O30 Zn29 2.032 . S
O30 C34 1.278 . S
C31 O32 1.203 . S
C31 O38 1.267 . S
O32 C31 1.203 . S
O33 C26 1.185 . S
O33 Zn29 2.086 1_455 S
C34 O30 1.278 . S
C34 O35 1.211 . S
O35 C34 1.211 . S
C36 O28 1.284 . S
C36 O37 1.273 . S
O37 C36 1.273 . S
O38 Zn29 1.977 . S
O38 C31 1.267 . S
C39 O40 1.160 . S
C39 O46 1.185 . S
O40 C39 1.160 . S
O41 Zn42 1.899 . S
O41 C49 1.284 . S
Zn42 O41 1.899 . S
Zn42 O43 2.032 . S
Zn42 O46 2.086 1_565 S
Zn42 O51 1.977 . S
O43 Zn42 2.032 . S
O43 C47 1.278 . S
C44 O45 1.203 . S
C44 O51 1.267 . S
O45 C44 1.203 . S
O46 C39 1.185 . S
O46 Zn42 2.086 1_545 S
C47 O43 1.278 . S
C47 O48 1.211 . S
O48 C47 1.211 . S
C49 O41 1.284 . S
C49 O50 1.273 . S
O50 C49 1.273 . S
O51 Zn42 1.977 . S
O51 C44 1.267 . S
C52 O53 1.160 . S
C52 O59 1.185 . S
O53 C52 1.160 . S
O54 Zn55 1.899 . S
O54 C62 1.284 . S
Zn55 O54 1.899 . S
Zn55 O56 2.032 . S
Zn55 O59 2.086 . S
Zn55 O64 1.977 . S
O56 Zn55 2.032 . S
O56 C60 1.278 . S
C57 O58 1.203 . S
C57 O64 1.267 . S
O58 C57 1.203 . S
O59 C52 1.185 . S
O59 Zn55 2.086 . S
C60 O56 1.278 . S
C60 O61 1.211 . S
O61 C60 1.211 . S
C62 O54 1.284 . S
C62 O63 1.273 . S
O63 C62 1.273 . S
O64 Zn55 1.977 . S
O64 C57 1.267 . S
C65 O66 1.160 . S
C65 O72 1.185 . S
O66 C65 1.160 . S
O67 Zn68 1.899 . S
O67 C75 1.284 . S
Zn68 O67 1.899 . S
Zn68 O69 2.032 . S
Zn68 O72 2.086 . S
Zn68 O77 1.977 . S
O69 Zn68 2.032 . S
O69 C73 1.278 . S
C70 O71 1.203 . S
C70 O77 1.267 . S
O71 C70 1.203 . S
O72 C65 1.185 . S
O72 Zn68 2.086 . S
C73 O69 1.278 . S
C73 O74 1.211 . S
O74 C73 1.211 . S
C75 O67 1.284 . S
C75 O76 1.273 . S
O76 C75 1.273 . S
O77 Zn68 1.977 . S
O77 C70 1.267 . S
C78 O79 1.160 . S
C78 O85 1.185 . S
O79 C78 1.160 . S
O80 Zn81 1.899 . S
O80 C88 1.284 . S
Zn81 O80 1.899 . S
Zn81 O82 2.032 . S
Zn81 O85 2.086 1_655 S
Zn81 O90 1.977 . S
O82 Zn81 2.032 . S
O82 C86 1.278 . S
C83 O84 1.203 . S
C83 O90 1.267 . S
O84 C83 1.203 . S
O85 C78 1.185 . S
O85 Zn81 2.086 1_455 S
C86 O82 1.278 . S
C86 O87 1.211 . S
O87 C86 1.211 . S
C88 O80 1.284 . S
C88 O89 1.273 . S
O89 C88 1.273 . S
O90 Zn81 1.977 . S
O90 C83 1.267 . S
C91 O92 1.160 . S
C91 O98 1.185 . S
O92 C91 1.160 . S
O93 Zn94 1.899 . S
O93 C101 1.284 . S
Zn94 O93 1.899 . S
Zn94 O95 2.032 . S
Zn94 O98 2.086 1_565 S
Zn94 O103 1.977 . S
O95 Zn94 2.032 . S
O95 C99 1.278 . S
C96 O97 1.203 . S
C96 O103 1.267 . S
O97 C96 1.203 . S
O98 C91 1.185 . S
O98 Zn94 2.086 1_545 S
C99 O95 1.278 . S
C99 O100 1.211 . S
O100 C99 1.211 . S
C101 O93 1.284 . S
C101 O102 1.273 . S
O102 C101 1.273 . S
O103 Zn94 1.977 . S
O103 C96 1.267 . S
C104 O105 1.160 . S
C104 O111 1.185 . S
O105 C104 1.160 . S
O106 Zn107 1.899 . S
O106 C114 1.284 . S
Zn107 O106 1.899 . S
Zn107 O108 2.032 . S
Zn107 O111 2.086 . S
Zn107 O116 1.977 . S
O108 Zn107 2.032 . S
O108 C112 1.278 . S
C109 O110 1.203 . S
C109 O116 1.267 . S
O110 C109 1.203 . S
O111 C104 1.185 . S
O111 Zn107 2.086 . S
C112 O108 1.278 . S
C112 O113 1.211 . S
O113 C112 1.211 . S
C114 O106 1.284 . S
C114 O115 1.273 . S
O115 C114 1.273 . S
O116 Zn107 1.977 . S
O116 C109 1.267 . S
C117 O118 1.160 . S
C117 O124 1.185 . S
O118 C117 1.160 . S
O119 Zn120 1.899 . S
O119 C127 1.284 . S
Zn120 O119 1.899 . S
Zn120 O121 2.032 . S
Zn120 O124 2.086 . S
Zn120 O129 1.977 . S
O121 Zn120 2.032 . S
O121 C125 1.278 . S
C122 O123 1.203 . S
C122 O129 1.267 . S
O123 C122 1.203 . S
O124 C117 1.185 . S
O124 Zn120 2.086 . S
C125 O121 1.278 . S
C125 O126 1.211 . S
O126 C125 1.211 . S
C127 O119 1.284 . S
C127 O128 1.273 . S
O128 C127 1.273 . S
O129 Zn120 1.977 . S
O129 C122 1.267 . S
C130 O131 1.160 . S
C130 O137 1.185 . S
O131 C130 1.160 . S
O132 Zn133 1.899 . S
O132 C140 1.284 . S
Zn133 O132 1.899 . S
Zn133 O134 2.032 . S
Zn133 O137 2.086 1_455 S
Zn133 O142 1.977 . S
O134 Zn133 2.032 . S
O134 C138 1.278 . S
C135 O136 1.203 . S
C135 O142 1.267 . S
O136 C135 1.203 . S
O137 C130 1.185 . S
O137 Zn133 2.086 1_655 S
C138 O134 1.278 . S
C138 O139 1.211 . S
O139 C138 1.211 . S
C140 O132 1.284 . S
C140 O141 1.273 . S
O141 C140 1.273 . S
O142 Zn133 1.977 . S
O142 C135 1.267 . S
C143 O144 1.160 . S
C143 O150 1.185 . S
O144 C143 1.160 . S
O145 Zn146 1.899 . S
O145 C153 1.284 . S
Zn146 O145 1.899 . S
Zn146 O147 2.032 . S
Zn146 O150 2.086 1_545 S
Zn146 O155 1.977 . S
O147 Zn146 2.032 . S
O147 C151 1.278 . S
C148 O149 1.203 . S
C148 O155 1.267 . S
O149 C148 1.203 . S
O150 C143 1.185 . S
O150 Zn146 2.086 1_565 S
C151 O147 1.278 . S
C151 O152 1.211 . S
O152 C151 1.211 . S
C153 O145 1.284 . S
C153 O154 1.273 . S
O154 C153 1.273 . S
O155 Zn146 1.977 . S
O155 C148 1.267 . S
C156 O157 1.160 . S
C156 O163 1.185 . S
O157 C156 1.160 . S
O158 Zn159 1.899 . S
O158 C166 1.284 . S
Zn159 O158 1.899 . S
Zn159 O160 2.032 . S
Zn159 O163 2.086 . S
Zn159 O168 1.977 . S
O160 Zn159 2.032 . S
O160 C164 1.278 . S
C161 O162 1.203 . S
C161 O168 1.267 . S
O162 C161 1.203 . S
O163 C156 1.185 . S
O163 Zn159 2.086 . S
C164 O160 1.278 . S
C164 O165 1.211 . S
O165 C164 1.211 . S
C166 O158 1.284 . S
C166 O167 1.273 . S
O167 C166 1.273 . S
O168 Zn159 1.977 . S
O168 C161 1.267 . S
C169 O170 1.160 . S
C169 O176 1.185 . S
O170 C169 1.160 . S
O171 Zn172 1.899 . S
O171 C179 1.284 . S
Zn172 O171 1.899 . S
Zn172 O173 2.032 . S
Zn172 O176 2.086 . S
Zn172 O181 1.977 . S
O173 Zn172 2.032 . S
O173 C177 1.278 . S
C174 O175 1.203 . S
C174 O181 1.267 . S
O175 C174 1.203 . S
O176 C169 1.185 . S
O176 Zn172 2.086 . S
C177 O173 1.278 . S
C177 O178 1.211 . S
O178 C177 1.211 . S
C179 O171 1.284 . S
C179 O180 1.273 . S
O180 C179 1.273 . S
O181 Zn172 1.977 . S
O181 C174 1.267 . S
C182 O183 1.160 . S
C182 O189 1.185 . S
O183 C182 1.160 . S
O184 Zn185 1.899 . S
O184 C192 1.284 . S
Zn185 O184 1.899 . S
Zn185 O186 2.032 . S
Zn185 O189 2.086 1_455 S
Zn185 O194 1.977 . S
O186 Zn185 2.032 . S
O186 C190 1.278 . S
C187 O188 1.203 . S
C187 O194 1.267 . S
O188 C187 1.203 . S
O189 C182 1.185 . S
O189 Zn185 2.086 1_655 S
C190 O186 1.278 . S
C190 O191 1.211 . S
O191 C190 1.211 . S
C192 O184 1.284 . S
C192 O193 1.273 . S
O193 C192 1.273 . S
O194 Zn185 1.977 . S
O194 C187 1.267 . S
C195 O196 1.160 . S
C195 O202 1.185 . S
O196 C195 1.160 . S
O197 Zn198 1.899 . S
O197 C205 1.284 . S
Zn198 O197 1.899 . S
Zn198 O199 2.032 . S
Zn198 O202 2.086 1_545 S
Zn198 O207 1.977 . S
O199 Zn198 2.032 . S
O199 C203 1.278 . S
C200 O201 1.203 . S
C200 O207 1.267 . S
O201 C200 1.203 . S
O202 C195 1.185 . S
O202 Zn198 2.086 1_565 S
C203 O199 1.278 . S
C203 O204 1.211 . S
O204 C203 1.211 . S
C205 O197 1.284 . S
C205 O206 1.273 . S
O206 C205 1.273 . S
O207 Zn198 1.977 . S
O207 C200 1.267 . S
C208 C209 1.387 . S
C208 H212 0.950 . S
C208 C217 1.390 . S
C209 C208 1.387 . S
C209 C211 1.387 . S
H210 C217 0.950 . S
C211 C209 1.387 . S
C211 C213 1.390 . S
C211 H215 0.950 . S
H212 C208 0.950 . S
C213 C211 1.390 . S
C213 C214 1.387 . S
C213 H216 0.950 . S
C214 C213 1.387 . S
C214 C217 1.387 . S
H215 C211 0.950 . S
H216 C213 0.950 . S
C217 C208 1.390 . S
C217 H210 0.950 . S
C217 C214 1.387 . S
C218 C219 1.387 . S
C218 H222 0.950 . S
C218 C227 1.390 . S
C219 C218 1.387 . S
C219 C221 1.387 . S
H220 C227 0.950 . S
C221 C219 1.387 . S
C221 C223 1.390 . S
C221 H225 0.950 . S
H222 C218 0.950 . S
C223 C221 1.390 . S
C223 C224 1.387 . S
C223 H226 0.950 . S
C224 C223 1.387 . S
C224 C227 1.387 . S
H225 C221 0.950 . S
H226 C223 0.950 . S
C227 C218 1.390 . S
C227 H220 0.950 . S
C227 C224 1.387 . S
C228 C229 1.387 . S
C228 H232 0.950 . S
C228 C237 1.390 . S
C229 C228 1.387 . S
C229 C231 1.387 . S
H230 C237 0.950 . S
C231 C229 1.387 . S
C231 C233 1.390 . S
C231 H235 0.950 . S
H232 C228 0.950 . S
C233 C231 1.390 . S
C233 C234 1.387 . S
C233 H236 0.950 . S
C234 C233 1.387 . S
C234 C237 1.387 . S
H235 C231 0.950 . S
H236 C233 0.950 . S
C237 C228 1.390 . S
C237 H230 0.950 . S
C237 C234 1.387 . S
C238 C239 1.387 . S
C238 H242 0.950 . S
C238 C247 1.390 . S
C239 C238 1.387 . S
C239 C241 1.387 . S
H240 C247 0.950 . S
C241 C239 1.387 . S
C241 C243 1.390 . S
C241 H245 0.950 . S
H242 C238 0.950 . S
C243 C241 1.390 . S
C243 C244 1.387 . S
C243 H246 0.950 . S
C244 C243 1.387 . S
C244 C247 1.387 . S
H245 C241 0.950 . S
H246 C243 0.950 . S
C247 C238 1.390 . S
C247 H240 0.950 . S
C247 C244 1.387 . S
C248 C249 1.387 . S
C248 H252 0.950 . S
C248 C257 1.390 . S
C249 C248 1.387 . S
C249 C251 1.387 . S
H250 C257 0.950 . S
C251 C249 1.387 . S
C251 C253 1.390 . S
C251 H255 0.950 . S
H252 C248 0.950 . S
C253 C251 1.390 . S
C253 C254 1.387 . S
C253 H256 0.950 . S
C254 C253 1.387 . S
C254 C257 1.387 . S
H255 C251 0.950 . S
H256 C253 0.950 . S
C257 C248 1.390 . S
C257 H250 0.950 . S
C257 C254 1.387 . S
C258 C259 1.387 . S
C258 H262 0.950 . S
C258 C267 1.390 . S
C259 C258 1.387 . S
C259 C261 1.387 . S
H260 C267 0.950 . S
C261 C259 1.387 . S
C261 C263 1.390 . S
C261 H265 0.950 . S
H262 C258 0.950 . S
C263 C261 1.390 . S
C263 C264 1.387 . S
C263 H266 0.950 . S
C264 C263 1.387 . S
C264 C267 1.387 . S
H265 C261 0.950 . S
H266 C263 0.950 . S
C267 C258 1.390 . S
C267 H260 0.950 . S
C267 C264 1.387 . S
C268 C269 1.387 . S
C268 H272 0.950 . S
C268 C277 1.390 . S
C269 C268 1.387 . S
C269 C271 1.387 . S
H270 C277 0.950 . S
C271 C269 1.387 . S
C271 C273 1.390 . S
C271 H275 0.950 . S
H272 C268 0.950 . S
C273 C271 1.390 . S
C273 C274 1.387 . S
C273 H276 0.950 . S
C274 C273 1.387 . S
C274 C277 1.387 . S
H275 C271 0.950 . S
H276 C273 0.950 . S
C277 C268 1.390 . S
C277 H270 0.950 . S
C277 C274 1.387 . S
C278 C279 1.387 . S
C278 H282 0.950 . S
C278 C287 1.390 . S
C279 C278 1.387 . S
C279 C281 1.387 . S
H280 C287 0.950 . S
C281 C279 1.387 . S
C281 C283 1.390 . S
C281 H285 0.950 . S
H282 C278 0.950 . S
C283 C281 1.390 . S
C283 C284 1.387 . S
C283 H286 0.950 . S
C284 C283 1.387 . S
C284 C287 1.387 . S
H285 C281 0.950 . S
H286 C283 0.950 . S
C287 C278 1.390 . S
C287 H280 0.950 . S
C287 C284 1.387 . S
C288 C289 1.387 . S
C288 H292 0.950 . S
C288 C297 1.390 . S
C289 C288 1.387 . S
C289 C291 1.387 . S
H290 C297 0.950 . S
C291 C289 1.387 . S
C291 C293 1.390 . S
C291 H295 0.950 . S
H292 C288 0.950 . S
C293 C291 1.390 . S
C293 C294 1.387 . S
C293 H296 0.950 . S
C294 C293 1.387 . S
C294 C297 1.387 . S
H295 C291 0.950 . S
H296 C293 0.950 . S
C297 C288 1.390 . S
C297 H290 0.950 . S
C297 C294 1.387 . S
C298 C299 1.387 . S
C298 H302 0.950 . S
C298 C307 1.390 . S
C299 C298 1.387 . S
C299 C301 1.387 . S
H300 C307 0.950 . S
C301 C299 1.387 . S
C301 C303 1.390 . S
C301 H305 0.950 . S
H302 C298 0.950 . S
C303 C301 1.390 . S
C303 C304 1.387 . S
C303 H306 0.950 . S
C304 C303 1.387 . S
C304 C307 1.387 . S
H305 C301 0.950 . S
H306 C303 0.950 . S
C307 C298 1.390 . S
C307 H300 0.950 . S
C307 C304 1.387 . S
C308 C309 1.387 . S
C308 H312 0.950 . S
C308 C317 1.390 . S
C309 C308 1.387 . S
C309 C311 1.387 . S
H310 C317 0.950 . S
C311 C309 1.387 . S
C311 C313 1.390 . S
C311 H315 0.950 . S
H312 C308 0.950 . S
C313 C311 1.390 . S
C313 C314 1.387 . S
C313 H316 0.950 . S
C314 C313 1.387 . S
C314 C317 1.387 . S
H315 C311 0.950 . S
H316 C313 0.950 . S
C317 C308 1.390 . S
C317 H310 0.950 . S
C317 C314 1.387 . S
C318 C319 1.387 . S
C318 H322 0.950 . S
C318 C327 1.390 . S
C319 C318 1.387 . S
C319 C321 1.387 . S
H320 C327 0.950 . S
C321 C319 1.387 . S
C321 C323 1.390 . S
C321 H325 0.950 . S
H322 C318 0.950 . S
C323 C321 1.390 . S
C323 C324 1.387 . S
C323 H326 0.950 . S
C324 C323 1.387 . S
C324 C327 1.387 . S
H325 C321 0.950 . S
H326 C323 0.950 . S
C327 C318 1.390 . S
C327 H320 0.950 . S
C327 C324 1.387 . S
C328 C329 1.387 . S
C328 H332 0.950 . S
C328 C337 1.390 . S
C329 C328 1.387 . S
C329 C331 1.387 . S
H330 C337 0.950 . S
C331 C329 1.387 . S
C331 C333 1.390 . S
C331 H335 0.950 . S
H332 C328 0.950 . S
C333 C331 1.390 . S
C333 C334 1.387 . S
C333 H336 0.950 . S
C334 C333 1.387 . S
C334 C337 1.387 . S
H335 C331 0.950 . S
H336 C333 0.950 . S
C337 C328 1.390 . S
C337 H330 0.950 . S
C337 C334 1.387 . S
C338 C339 1.387 . S
C338 H342 0.950 . S
C338 C347 1.390 . S
C339 C338 1.387 . S
C339 C341 1.387 . S
H340 C347 0.950 . S
C341 C339 1.387 . S
C341 C343 1.390 . S
C341 H345 0.950 . S
H342 C338 0.950 . S
C343 C341 1.390 . S
C343 C344 1.387 . S
C343 H346 0.950 . S
C344 C343 1.387 . S
C344 C347 1.387 . S
H345 C341 0.950 . S
H346 C343 0.950 . S
C347 C338 1.390 . S
C347 H340 0.950 . S
C347 C344 1.387 . S
C348 C349 1.387 . S
C348 H352 0.950 . S
C348 C357 1.390 . S
C349 C348 1.387 . S
C349 C351 1.387 . S
H350 C357 0.950 . S
C351 C349 1.387 . S
C351 C353 1.390 . S
C351 H355 0.950 . S
H352 C348 0.950 . S
C353 C351 1.390 . S
C353 C354 1.387 . S
C353 H356 0.950 . S
C354 C353 1.387 . S
C354 C357 1.387 . S
H355 C351 0.950 . S
H356 C353 0.950 . S
C357 C348 1.390 . S
C357 H350 0.950 . S
C357 C354 1.387 . S
C358 C359 1.387 . S
C358 H362 0.950 . S
C358 C367 1.390 . S
C359 C358 1.387 . S
C359 C361 1.387 . S
H360 C367 0.950 . S
C361 C359 1.387 . S
C361 C363 1.390 . S
C361 H365 0.950 . S
H362 C358 0.950 . S
C363 C361 1.390 . S
C363 C364 1.387 . S
C363 H366 0.950 . S
C364 C363 1.387 . S
C364 C367 1.387 . S
H365 C361 0.950 . S
H366 C363 0.950 . S
C367 C358 1.390 . S
C367 H360 0.950 . S
C367 C364 1.387 . S
C368 C369 1.387 . S
C368 H372 0.950 . S
C368 C377 1.390 . S
C369 C368 1.387 . S
C369 C371 1.387 . S
H370 C377 0.950 . S
C371 C369 1.387 . S
C371 C373 1.390 . S
C371 H375 0.950 . S
H372 C368 0.950 . S
C373 C371 1.390 . S
C373 C374 1.387 . S
C373 H376 0.950 . S
C374 C373 1.387 . S
C374 C377 1.387 . S
H375 C371 0.950 . S
H376 C373 0.950 . S
C377 C368 1.390 . S
C377 H370 0.950 . S
C377 C374 1.387 . S
C378 C379 1.387 . S
C378 H382 0.950 . S
C378 C387 1.390 . S
C379 C378 1.387 . S
C379 C381 1.387 . S
H380 C387 0.950 . S
C381 C379 1.387 . S
C381 C383 1.390 . S
C381 H385 0.950 . S
H382 C378 0.950 . S
C383 C381 1.390 . S
C383 C384 1.387 . S
C383 H386 0.950 . S
C384 C383 1.387 . S
C384 C387 1.387 . S
H385 C381 0.950 . S
H386 C383 0.950 . S
C387 C378 1.390 . S
C387 H380 0.950 . S
C387 C384 1.387 . S
C388 C389 1.387 . S
C388 H392 0.950 . S
C388 C397 1.390 . S
C389 C388 1.387 . S
C389 C391 1.387 . S
H390 C397 0.950 . S
C391 C389 1.387 . S
C391 C393 1.390 . S
C391 H395 0.950 . S
H392 C388 0.950 . S
C393 C391 1.390 . S
C393 C394 1.387 . S
C393 H396 0.950 . S
C394 C393 1.387 . S
C394 C397 1.387 . S
H395 C391 0.950 . S
H396 C393 0.950 . S
C397 C388 1.390 . S
C397 H390 0.950 . S
C397 C394 1.387 . S
C398 C399 1.387 . S
C398 H402 0.950 . S
C398 C407 1.390 . S
C399 C398 1.387 . S
C399 C401 1.387 . S
H400 C407 0.950 . S
C401 C399 1.387 . S
C401 C403 1.390 . S
C401 H405 0.950 . S
H402 C398 0.950 . S
C403 C401 1.390 . S
C403 C404 1.387 . S
C403 H406 0.950 . S
C404 C403 1.387 . S
C404 C407 1.387 . S
H405 C401 0.950 . S
H406 C403 0.950 . S
C407 C398 1.390 . S
C407 H400 0.950 . S
C407 C404 1.387 . S
C408 C409 1.387 . S
C408 H412 0.950 . S
C408 C417 1.390 . S
C409 C408 1.387 . S
C409 C411 1.387 . S
H410 C417 0.950 . S
C411 C409 1.387 . S
C411 C413 1.390 . S
C411 H415 0.950 . S
H412 C408 0.950 . S
C413 C411 1.390 . S
C413 C414 1.387 . S
C413 H416 0.950 . S
C414 C413 1.387 . S
C414 C417 1.387 . S
H415 C411 0.950 . S
H416 C413 0.950 . S
C417 C408 1.390 . S
C417 H410 0.950 . S
C417 C414 1.387 . S
C418 C419 1.387 . S
C418 H422 0.950 . S
C418 C427 1.390 . S
C419 C418 1.387 . S
C419 C421 1.387 . S
H420 C427 0.950 . S
C421 C419 1.387 . S
C421 C423 1.390 . S
C421 H425 0.950 . S
H422 C418 0.950 . S
C423 C421 1.390 . S
C423 C424 1.387 . S
C423 H426 0.950 . S
C424 C423 1.387 . S
C424 C427 1.387 . S
H425 C421 0.950 . S
H426 C423 0.950 . S
C427 C418 1.390 . S
C427 H420 0.950 . S
C427 C424 1.387 . S
C428 C429 1.387 . S
C428 H432 0.950 . S
C428 C437 1.390 . S
C429 C428 1.387 . S
C429 C431 1.387 . S
H430 C437 0.950 . S
C431 C429 1.387 . S
C431 C433 1.390 . S
C431 H435 0.950 . S
H432 C428 0.950 . S
C433 C431 1.390 . S
C433 C434 1.387 . S
C433 H436 0.950 . S
C434 C433 1.387 . S
C434 C437 1.387 . S
H435 C431 0.950 . S
H436 C433 0.950 . S
C437 C428 1.390 . S
C437 H430 0.950 . S
C437 C434 1.387 . S
C438 C439 1.387 . S
C438 H442 0.950 . S
C438 C447 1.390 . S
C439 C438 1.387 . S
C439 C441 1.387 . S
H440 C447 0.950 . S
C441 C439 1.387 . S
C441 C443 1.390 . S
C441 H445 0.950 . S
H442 C438 0.950 . S
C443 C441 1.390 . S
C443 C444 1.387 . S
C443 H446 0.950 . S
C444 C443 1.387 . S
C444 C447 1.387 . S
H445 C441 0.950 . S
H446 C443 0.950 . S
C447 C438 1.390 . S
C447 H440 0.950 . S
C447 C444 1.387 . S
C448 C449 1.387 . S
C448 H452 0.950 . S
C448 C457 1.390 1_554 S
C449 C448 1.387 . S
C449 C451 1.387 . S
H450 C457 0.950 . S
C451 C449 1.387 . S
C451 C453 1.390 1_554 S
C451 H455 0.950 . S
H452 C448 0.950 . S
C453 C451 1.390 1_556 S
C453 C454 1.387 . S
C453 H456 0.950 . S
C454 C453 1.387 . S
C454 C457 1.387 . S
H455 C451 0.950 . S
H456 C453 0.950 . S
C457 C448 1.390 1_556 S
C457 H450 0.950 . S
C457 C454 1.387 . S
C458 C459 1.387 . S
C458 H462 0.950 . S
C458 C467 1.390 . S
C459 C458 1.387 . S
C459 C461 1.387 . S
H460 C467 0.950 . S
C461 C459 1.387 . S
C461 C463 1.390 . S
C461 H465 0.950 . S
H462 C458 0.950 . S
C463 C461 1.390 . S
C463 C464 1.387 . S
C463 H466 0.950 . S
C464 C463 1.387 . S
C464 C467 1.387 . S
H465 C461 0.950 . S
H466 C463 0.950 . S
C467 C458 1.390 . S
C467 H460 0.950 . S
C467 C464 1.387 . S
C468 C469 1.387 . S
C468 H472 0.950 . S
C468 C477 1.390 1_554 S
C469 C468 1.387 . S
C469 C471 1.387 1_655 S
H470 C477 0.950 . S
C471 C469 1.387 1_455 S
C471 C473 1.390 1_554 S
C471 H475 0.950 . S
H472 C468 0.950 . S
C473 C471 1.390 1_556 S
C473 C474 1.387 1_455 S
C473 H476 0.950 . S
C474 C473 1.387 1_655 S
C474 C477 1.387 . S
H475 C471 0.950 . S
H476 C473 0.950 . S
C477 C468 1.390 1_556 S
C477 H470 0.950 . S
C477 C474 1.387 . S
C478 C479 1.387 . S
C478 H482 0.950 . S
C478 C487 1.390 . S
C479 C478 1.387 . S
C479 C481 1.387 1_565 S
H480 C487 0.950 . S
C481 C479 1.387 1_545 S
C481 C483 1.390 . S
C481 H485 0.950 . S
H482 C478 0.950 . S
C483 C481 1.390 . S
C483 C484 1.387 1_545 S
C483 H486 0.950 . S
C484 C483 1.387 1_565 S
C484 C487 1.387 . S
H485 C481 0.950 . S
H486 C483 0.950 . S
C487 C478 1.390 . S
C487 H480 0.950 . S
C487 C484 1.387 . S
C488 C489 1.387 . S
C488 H492 0.950 . S
C488 C497 1.390 1_556 S
C489 C488 1.387 . S
C489 C491 1.387 . S
H490 C497 0.950 . S
C491 C489 1.387 . S
C491 C493 1.390 1_556 S
C491 H495 0.950 . S
H492 C488 0.950 . S
C493 C491 1.390 1_554 S
C493 C494 1.387 . S
C493 H496 0.950 . S
C494 C493 1.387 . S
C494 C497 1.387 . S
H495 C491 0.950 . S
H496 C493 0.950 . S
C497 C488 1.390 1_554 S
C497 H490 0.950 . S
C497 C494 1.387 . S
C498 C499 1.387 . S
C498 H502 0.950 . S
C498 C507 1.390 . S
C499 C498 1.387 . S
C499 C501 1.387 . S
H500 C507 0.950 . S
C501 C499 1.387 . S
C501 C503 1.390 . S
C501 H505 0.950 . S
H502 C498 0.950 . S
C503 C501 1.390 . S
C503 C504 1.387 . S
C503 H506 0.950 . S
C504 C503 1.387 . S
C504 C507 1.387 . S
H505 C501 0.950 . S
H506 C503 0.950 . S
C507 C498 1.390 . S
C507 H500 0.950 . S
C507 C504 1.387 . S
C508 C509 1.387 1_655 S
C508 H512 0.950 . S
C508 C517 1.390 1_554 S
C509 C508 1.387 1_455 S
C509 C511 1.387 . S
H510 C517 0.950 . S
C511 C509 1.387 . S
C511 C513 1.390 1_554 S
C511 H515 0.950 . S
H512 C508 0.950 . S
C513 C511 1.390 1_556 S
C513 C514 1.387 . S
C513 H516 0.950 . S
C514 C513 1.387 . S
C514 C517 1.387 1_455 S
H515 C511 0.950 . S
H516 C513 0.950 . S
C517 C508 1.390 1_556 S
C517 H510 0.950 . S
C517 C514 1.387 1_655 S
C518 C519 1.387 . S
C518 H522 0.950 . S
C518 C527 1.390 . S
C519 C518 1.387 . S
C519 C521 1.387 1_545 S
H520 C527 0.950 . S
C521 C519 1.387 1_565 S
C521 C523 1.390 . S
C521 H525 0.950 . S
H522 C518 0.950 . S
C523 C521 1.390 . S
C523 C524 1.387 1_565 S
C523 H526 0.950 . S
C524 C523 1.387 1_545 S
C524 C527 1.387 . S
H525 C521 0.950 . S
H526 C523 0.950 . S
C527 C518 1.390 . S
C527 H520 0.950 . S
C527 C524 1.387 . S
C209 C0 1.274 . S
C214 C91 1.273 . S
C219 C13 1.274 . S
C224 C52 1.275 . S
C229 C26 1.274 . S
C234 C65 1.273 . S
C239 C39 1.273 . S
C244 C78 1.273 . S
C249 C104 1.274 . S
C254 C195 1.275 . S
C259 C156 1.273 . S
C264 C117 1.274 . S
C269 C130 1.274 . S
C274 C169 1.273 . S
C279 C143 1.273 . S
C284 C182 1.274 . S
C289 C5 1.324 . S
C294 C125 1.409 . S
C299 C18 1.323 . S
C304 C138 1.410 . S
C309 C151 1.411 . S
C314 C31 1.320 . S
C319 C44 1.323 . S
C324 C112 1.410 . S
C329 C57 1.320 . S
C334 C203 1.411 . S
C339 C164 1.410 . S
C344 C70 1.322 . S
C349 C177 1.409 . S
C354 C83 1.324 . S
C359 C190 1.411 . S
C364 C96 1.322 . S
C369 C21 1.411 . S
C374 C109 1.320 . S
C379 C34 1.411 . S
C384 C122 1.322 . S
C389 C135 1.324 . S
C394 C47 1.410 . S
C399 C8 1.411 . S
C404 C148 1.320 . S
C409 C161 1.323 . S
C414 C99 1.410 . S
C419 C174 1.321 . S
C424 C60 1.411 . S
C429 C73 1.411 . S
C434 C187 1.320 . S
C439 C86 1.410 . S
C444 C200 1.324 . S
C449 C10 1.512 . S
C454 C62 1.512 . S
C459 C75 1.512 . S
C464 C23 1.512 . S
C469 C36 1.512 . S
C474 C88 1.512 . S
C479 C101 1.512 . S
C484 C49 1.512 . S
C489 C114 1.512 . S
C494 C166 1.512 . S
C499 C179 1.512 . S
C504 C127 1.512 . S
C509 C192 1.512 . S
C514 C140 1.512 . S
C519 C205 1.512 . S
C524 C153 1.512 . S
