# Generated by pormake.
# Topology ske, (6)-cn, num edge types: 1
# Building blocks:
#     Node 0, Type 0, BuildingBlock: FUNLAD_clean_sbu_0, # of connection points: 6
#     Node 1, Type 0, BuildingBlock: FUNLAD_clean_sbu_0, # of connection points: 6
#     Node 2, Type 0, BuildingBlock: FUNLAD_clean_sbu_0, # of connection points: 6
#     Node 3, Type 0, BuildingBlock: FUNLAD_clean_sbu_0, # of connection points: 6
#     Node 4, Type 0, BuildingBlock: FUNLAD_clean_sbu_0, # of connection points: 6
#     Node 5, Type 0, BuildingBlock: FUNLAD_clean_sbu_0, # of connection points: 6
#     Node 6, Type 0, BuildingBlock: FUNLAD_clean_sbu_0, # of connection points: 6
#     Node 7, Type 0, BuildingBlock: FUNLAD_clean_sbu_0, # of connection points: 6
#     Edge 8, Type (0, 0), BuildingBlock: TEMPAE_clean_linker_10, # of connection points: 2
#     Edge 9, Type (0, 0), BuildingBlock: TEMPAE_clean_linker_10, # of connection points: 2
#     Edge 10, Type (0, 0), BuildingBlock: TEMPAE_clean_linker_10, # of connection points: 2
#     Edge 11, Type (0, 0), BuildingBlock: TEMPAE_clean_linker_10, # of connection points: 2
#     Edge 12, Type (0, 0), BuildingBlock: TEMPAE_clean_linker_10, # of connection points: 2
#     Edge 13, Type (0, 0), BuildingBlock: TEMPAE_clean_linker_10, # of connection points: 2
#     Edge 14, Type (0, 0), BuildingBlock: TEMPAE_clean_linker_10, # of connection points: 2
#     Edge 15, Type (0, 0), BuildingBlock: TEMPAE_clean_linker_10, # of connection points: 2
#     Edge 16, Type (0, 0), BuildingBlock: TEMPAE_clean_linker_10, # of connection points: 2
#     Edge 17, Type (0, 0), BuildingBlock: TEMPAE_clean_linker_10, # of connection points: 2
#     Edge 18, Type (0, 0), BuildingBlock: TEMPAE_clean_linker_10, # of connection points: 2
#     Edge 19, Type (0, 0), BuildingBlock: TEMPAE_clean_linker_10, # of connection points: 2
#     Edge 20, Type (0, 0), BuildingBlock: TEMPAE_clean_linker_10, # of connection points: 2
#     Edge 21, Type (0, 0), BuildingBlock: TEMPAE_clean_linker_10, # of connection points: 2
#     Edge 22, Type (0, 0), BuildingBlock: TEMPAE_clean_linker_10, # of connection points: 2
#     Edge 23, Type (0, 0), BuildingBlock: TEMPAE_clean_linker_10, # of connection points: 2
#     Edge 24, Type (0, 0), BuildingBlock: TEMPAE_clean_linker_10, # of connection points: 2
#     Edge 25, Type (0, 0), BuildingBlock: TEMPAE_clean_linker_10, # of connection points: 2
#     Edge 26, Type (0, 0), BuildingBlock: TEMPAE_clean_linker_10, # of connection points: 2
#     Edge 27, Type (0, 0), BuildingBlock: TEMPAE_clean_linker_10, # of connection points: 2
#     Edge 28, Type (0, 0), BuildingBlock: TEMPAE_clean_linker_10, # of connection points: 2
#     Edge 29, Type (0, 0), BuildingBlock: TEMPAE_clean_linker_10, # of connection points: 2
#     Edge 30, Type (0, 0), BuildingBlock: TEMPAE_clean_linker_10, # of connection points: 2
#     Edge 31, Type (0, 0), BuildingBlock: TEMPAE_clean_linker_10, # of connection points: 2
# Relax obj value: 0.053
# Max RMSD: 0.119
# Mean RMSD: 0.115
data_MOF--net-ske--node1-FUNLAD_clean_sbu_0--edge1-TEMPAE_clean_linker_10
_symmetry_space_group_name_H-M    P1
_symmetry_Int_Tables_number       1
_symmetry_cell_setting            triclinic
loop_
_symmetry_equiv_pos_as_xyz
'x, y, z'
_cell_length_a     58.779555
_cell_length_b     43.850326
_cell_length_c     15.249406
_cell_angle_alpha  89.522644
_cell_angle_beta   90.03695
_cell_angle_gamma 91.742246
loop_
_atom_site_label
_atom_site_type_symbol
_atom_site_fract_x
_atom_site_fract_y
_atom_site_fract_z
_atom_type_partial_charge
C0 C 0.18217 0.26105 0.56752 0.0
N1 N 0.13595 0.18847 0.52105 0.0
C2 C 0.15422 0.17443 0.4866 0.0
C3 C 0.15432 0.1427 0.48091 0.0
C4 C 0.13526 0.12542 0.50923 0.0
C5 C 0.11665 0.14027 0.54463 0.0
C6 C 0.11745 0.17205 0.55086 0.0
Zn7 Zn 0.13619 0.23512 0.52245 0.0
C8 C 0.12857 0.2603 0.69566 0.0
N9 N 0.13819 0.33299 0.51769 0.0
C10 C 0.15704 0.34884 0.48894 0.0
C11 C 0.11921 0.34775 0.54215 0.0
C12 C 0.11841 0.37947 0.53523 0.0
C13 C 0.1376 0.39657 0.50558 0.0
C14 C 0.15725 0.38066 0.48386 0.0
Zn15 Zn 0.13794 0.2861 0.51885 0.0
O16 O 0.17071 0.23629 0.5585 0.0
C17 C 0.14627 0.2613 0.34543 0.0
O18 O 0.17315 0.28631 0.54976 0.0
H19 H 0.10442 0.33494 0.56569 0.0
H20 H 0.16863 0.18787 0.46227 0.0
H21 H 0.17194 0.33684 0.46901 0.0
O22 O 0.14422 0.23618 0.38727 0.0
O23 O 0.14466 0.2863 0.38581 0.0
H24 H 0.10315 0.18361 0.57841 0.0
O25 O 0.10248 0.28464 0.48953 0.0
O26 O 0.10143 0.23456 0.49146 0.0
O27 O 0.13158 0.28517 0.65341 0.0
O28 O 0.12841 0.23495 0.65605 0.0
C29 C 0.09135 0.25952 0.48194 0.0
H30 H 0.16887 0.13178 0.45274 0.0
H31 H 0.10171 0.12741 0.56713 0.0
H32 H 0.10265 0.39023 0.55138 0.0
H33 H 0.17275 0.39249 0.46288 0.0
C34 C 0.92145 0.26538 0.4887 0.0
N35 N 0.87643 0.33591 0.52067 0.0
C36 C 0.8924 0.35241 0.56609 0.0
C37 C 0.8926 0.38426 0.56298 0.0
C38 C 0.8763 0.39922 0.5122 0.0
C39 C 0.86003 0.38151 0.46622 0.0
C40 C 0.86034 0.3498 0.47175 0.0
Zn41 Zn 0.8763 0.28947 0.52294 0.0
C42 C 0.86797 0.26356 0.34694 0.0
N43 N 0.8744 0.1918 0.5216 0.0
C44 C 0.89333 0.17695 0.54694 0.0
C45 C 0.85558 0.1761 0.49274 0.0
C46 C 0.85534 0.14432 0.48834 0.0
C47 C 0.87495 0.12834 0.51078 0.0
C48 C 0.89411 0.14527 0.54066 0.0
Zn49 Zn 0.8747 0.23858 0.52146 0.0
O50 O 0.91142 0.29031 0.49867 0.0
C51 C 0.88299 0.26373 0.69738 0.0
O52 O 0.91023 0.24022 0.49415 0.0
H53 H 0.84072 0.18818 0.47209 0.0
H54 H 0.90502 0.34086 0.60463 0.0
H55 H 0.90809 0.18966 0.57061 0.0
O56 O 0.88255 0.28918 0.65732 0.0
O57 O 0.88068 0.23894 0.65553 0.0
H58 H 0.84778 0.33625 0.43625 0.0
O59 O 0.83926 0.23846 0.54962 0.0
O60 O 0.84136 0.28849 0.551 0.0
O61 O 0.86874 0.23852 0.3886 0.0
O62 O 0.87005 0.2887 0.38713 0.0
C63 C 0.82985 0.26379 0.56171 0.0
H64 H 0.90528 0.39699 0.60041 0.0
H65 H 0.84737 0.39199 0.42511 0.0
H66 H 0.83986 0.13258 0.46721 0.0
H67 H 0.90983 0.13441 0.55739 0.0
C68 C 0.09047 0.76238 0.45669 0.0
N69 N 0.13678 0.83507 0.41608 0.0
C70 C 0.11838 0.85009 0.38576 0.0
C71 C 0.11766 0.88179 0.39185 0.0
C72 C 0.13627 0.89811 0.4275 0.0
C73 C 0.15531 0.88229 0.45579 0.0
C74 C 0.15511 0.85052 0.45033 0.0
Zn75 Zn 0.13636 0.7884 0.41642 0.0
C76 C 0.14536 0.76325 0.59394 0.0
N77 N 0.13581 0.6905 0.42438 0.0
C78 C 0.11678 0.67397 0.40153 0.0
C79 C 0.15475 0.67642 0.45322 0.0
C80 C 0.15514 0.64469 0.45926 0.0
C81 C 0.13554 0.62693 0.43879 0.0
C82 C 0.11616 0.64217 0.40948 0.0
Zn83 Zn 0.13607 0.73742 0.42078 0.0
O84 O 0.1016 0.78738 0.44685 0.0
C85 C 0.12767 0.76221 0.2436 0.0
O86 O 0.10056 0.73729 0.4498 0.0
H87 H 0.16966 0.68976 0.47244 0.0
H88 H 0.10404 0.83745 0.35816 0.0
H89 H 0.10187 0.68542 0.37838 0.0
O90 O 0.12869 0.78762 0.28285 0.0
O91 O 0.12971 0.7374 0.28607 0.0
H92 H 0.16945 0.83817 0.47497 0.0
O93 O 0.17129 0.73882 0.39016 0.0
O94 O 0.17095 0.7888 0.38115 0.0
O95 O 0.14283 0.73818 0.55379 0.0
O96 O 0.14424 0.78828 0.55176 0.0
C97 C 0.18141 0.76411 0.37271 0.0
H98 H 0.10275 0.89347 0.36919 0.0
H99 H 0.16988 0.89432 0.48413 0.0
H100 H 0.17077 0.63437 0.47988 0.0
H101 H 0.10043 0.62988 0.39426 0.0
C102 C 0.92018 0.76233 0.46483 0.0
N103 N 0.87282 0.69102 0.43149 0.0
C104 C 0.88844 0.67566 0.3847 0.0
C105 C 0.889 0.6439 0.39013 0.0
C106 C 0.87355 0.62797 0.44508 0.0
C107 C 0.85739 0.64432 0.49146 0.0
C108 C 0.85724 0.676 0.48326 0.0
Zn109 Zn 0.87359 0.73748 0.42998 0.0
C110 C 0.86589 0.76252 0.60653 0.0
N111 N 0.87554 0.83508 0.43377 0.0
C112 C 0.89479 0.85139 0.41182 0.0
C113 C 0.85659 0.84931 0.46096 0.0
C114 C 0.85643 0.88101 0.46629 0.0
C115 C 0.87626 0.89853 0.44691 0.0
C116 C 0.89564 0.88315 0.41916 0.0
Zn117 Zn 0.8749 0.78829 0.4318 0.0
O118 O 0.90881 0.73773 0.45212 0.0
C119 C 0.88208 0.76361 0.25572 0.0
O120 O 0.91023 0.78766 0.46282 0.0
H121 H 0.8415 0.83612 0.47954 0.0
H122 H 0.90075 0.68809 0.34441 0.0
H123 H 0.90971 0.83979 0.39 0.0
O124 O 0.87899 0.73836 0.29567 0.0
O125 O 0.88207 0.78857 0.29731 0.0
H126 H 0.84489 0.68864 0.51945 0.0
O127 O 0.83974 0.78739 0.39902 0.0
O128 O 0.83856 0.73732 0.4035 0.0
O129 O 0.86745 0.78763 0.56489 0.0
O130 O 0.86791 0.73765 0.56573 0.0
C131 C 0.82874 0.76227 0.38934 0.0
H132 H 0.90179 0.63199 0.35379 0.0
H133 H 0.84505 0.63272 0.53372 0.0
H134 H 0.8408 0.89149 0.48565 0.0
H135 H 0.91151 0.89528 0.4048 0.0
C136 C 0.68278 0.76416 0.04731 0.0
N137 N 0.63533 0.6925 0.0048 0.0
C138 C 0.65392 0.67803 -0.02531 0.0
C139 C 0.65394 0.64625 0.97111 0.0
C140 C 0.63447 0.62929 -0.00319 0.0
C141 C 0.61546 0.64459 0.02709 0.0
C142 C 0.61634 0.67643 0.03152 0.0
Zn143 Zn 0.63609 0.73925 0.00613 0.0
C144 C 0.63044 0.76376 0.18123 0.0
N145 N 0.63962 0.83651 0.00578 0.0
C146 C 0.65484 0.85191 0.95335 0.0
C147 C 0.62448 0.85162 0.05552 0.0
C148 C 0.62412 0.88346 0.05296 0.0
C149 C 0.63936 0.89998 -0.00182 0.0
C150 C 0.65495 0.88373 0.94829 0.0
Zn151 Zn 0.63876 0.78978 0.00586 0.0
O152 O 0.67045 0.73991 0.04461 0.0
C153 C 0.64537 0.76503 0.83061 0.0
O154 O 0.67447 0.78946 0.02476 0.0
H155 H 0.61251 0.83895 0.09673 0.0
H156 H 0.66872 0.69115 0.95257 0.0
H157 H 0.66671 0.83947 0.91423 0.0
O158 O 0.64486 0.74 0.87305 0.0
O159 O 0.64254 0.78988 0.87051 0.0
H160 H 0.60179 0.6883 0.0557 0.0
O161 O 0.60284 0.78944 -0.0096 0.0
O162 O 0.60151 0.73984 0.97088 0.0
O163 O 0.63536 0.78848 0.14085 0.0
O164 O 0.6276 0.739 0.13951 0.0
C165 C 0.59148 0.76504 0.97368 0.0
H166 H 0.66882 0.63502 0.94684 0.0
H167 H 0.6002 0.63203 0.04759 0.0
H168 H 0.61203 0.89497 0.09367 0.0
H169 H 0.66682 0.89538 0.90423 0.0
C170 C 0.42097 0.75951 -0.01866 0.0
N171 N 0.3772 0.83212 0.00439 0.0
C172 C 0.39367 0.84808 0.04886 0.0
C173 C 0.39459 0.87995 0.04522 0.0
C174 C 0.37861 0.89537 -0.0056 0.0
C175 C 0.36177 0.87835 0.94959 0.0
C176 C 0.36129 0.84662 0.95596 0.0
Zn177 Zn 0.37608 0.78555 0.00734 0.0
C178 C 0.36853 0.75981 0.83322 0.0
N179 N 0.37229 0.68834 0.0109 0.0
C180 C 0.38728 0.67267 0.06069 0.0
C181 C 0.35697 0.67354 0.95813 0.0
C182 C 0.3567 0.6418 0.95232 0.0
C183 C 0.37222 0.62508 0.00182 0.0
C184 C 0.38747 0.64085 0.05744 0.0
Zn185 Zn 0.37358 0.73496 0.00997 0.0
O186 O 0.41097 0.78475 -0.02175 0.0
C187 C 0.38072 0.76045 0.18398 0.0
O188 O 0.40958 0.73496 -0.00299 0.0
H189 H 0.34514 0.68642 0.91938 0.0
H190 H 0.40618 0.83608 0.08674 0.0
H191 H 0.39939 0.6849 0.10185 0.0
O192 O 0.38309 0.78537 0.14165 0.0
O193 O 0.37644 0.73567 0.14425 0.0
H194 H 0.34821 0.83354 0.92178 0.0
O195 O 0.33767 0.73593 0.02585 0.0
O196 O 0.34136 0.78569 0.03839 0.0
O197 O 0.37065 0.73499 0.875 0.0
O198 O 0.36893 0.78496 0.87354 0.0
C199 C 0.329 0.76146 0.04259 0.0
H200 H 0.40789 0.89238 0.08035 0.0
H201 H 0.34898 0.8895 0.91063 0.0
H202 H 0.34449 0.63043 0.90948 0.0
H203 H 0.3998 0.62876 0.09618 0.0
C204 C 0.59106 0.26425 0.96608 0.0
N205 N 0.63716 0.33773 0.93091 0.0
C206 C 0.61867 0.35245 0.90005 0.0
C207 C 0.61785 0.38419 0.90449 0.0
C208 C 0.63642 0.40086 0.93904 0.0
C209 C 0.65552 0.38533 0.96819 0.0
C210 C 0.65544 0.35352 0.96439 0.0
Zn211 Zn 0.63697 0.29098 0.93189 0.0
C212 C 0.64494 0.26617 0.10959 0.0
N213 N 0.63711 0.19341 0.93923 0.0
C214 C 0.62148 0.17683 0.89229 0.0
C215 C 0.65277 0.17949 -0.00966 0.0
C216 C 0.6529 0.14773 -0.00324 0.0
C217 C 0.63689 0.13005 0.94952 0.0
C218 C 0.62114 0.14494 0.89617 0.0
Zn219 Zn 0.63715 0.24012 0.93611 0.0
O220 O 0.60213 0.28948 0.96081 0.0
C221 C 0.62991 0.26493 0.75874 0.0
O222 O 0.60134 0.23936 0.9575 0.0
H223 H 0.66516 0.19305 0.02668 0.0
H224 H 0.60439 0.33957 0.87296 0.0
H225 H 0.60914 0.18835 0.85231 0.0
O226 O 0.62959 0.2902 0.7985 0.0
O227 O 0.63265 0.24022 0.8008 0.0
H228 H 0.66986 0.34142 -0.0106 0.0
O229 O 0.67269 0.24153 0.91308 0.0
O230 O 0.67166 0.29137 0.89804 0.0
O231 O 0.64204 0.24109 0.0699 0.0
O232 O 0.64459 0.29116 0.06696 0.0
C233 C 0.68255 0.26686 0.89365 0.0
H234 H 0.6029 0.39562 0.88113 0.0
H235 H 0.67008 0.39764 -0.00435 0.0
H236 H 0.66552 0.13711 0.03774 0.0
H237 H 0.60842 0.1321 0.8592 0.0
C238 C 0.42056 0.26147 0.96485 0.0
N239 N 0.37421 0.18823 0.93889 0.0
C240 C 0.39003 0.17357 0.89123 0.0
C241 C 0.39084 0.1418 0.89382 0.0
C242 C 0.37537 0.12489 0.94668 0.0
C243 C 0.3591 0.14068 -0.00546 0.0
C244 C 0.35875 0.17244 -0.01069 0.0
Zn245 Zn 0.37425 0.23478 0.93855 0.0
C246 C 0.36846 0.25949 0.11497 0.0
N247 N 0.3742 0.33224 0.94183 0.0
C248 C 0.38971 0.34902 0.89424 0.0
C249 C 0.3585 0.34591 -0.00748 0.0
C250 C 0.35814 0.37763 -0.00245 0.0
C251 C 0.37397 0.39562 0.94938 0.0
C252 C 0.38987 0.38088 0.89688 0.0
Zn253 Zn 0.37432 0.28565 0.94017 0.0
O254 O 0.40951 0.23623 0.95965 0.0
C255 C 0.38008 0.2613 0.76396 0.0
O256 O 0.41019 0.28643 0.95868 0.0
H257 H 0.34632 0.33217 0.02988 0.0
H258 H 0.40219 0.18656 0.85163 0.0
H259 H 0.40202 0.33767 0.85429 0.0
O260 O 0.37976 0.23592 0.80441 0.0
O261 O 0.3782 0.28605 0.80532 0.0
H262 H 0.34631 0.18453 0.02666 0.0
O263 O 0.33857 0.28392 0.92043 0.0
O264 O 0.3391 0.23394 0.91358 0.0
O265 O 0.37044 0.2846 0.07385 0.0
O266 O 0.36872 0.23445 0.07411 0.0
C267 C 0.32825 0.25847 0.90719 0.0
H268 H 0.40344 0.13063 0.85463 0.0
H269 H 0.34704 0.12872 0.03714 0.0
H270 H 0.34581 0.38791 0.03997 0.0
H271 H 0.40219 0.39379 0.8577 0.0
C272 C 0.20354 0.24515 0.69817 0.0
C273 C 0.20347 0.26067 0.61754 0.0
C274 C 0.22285 0.24585 0.75182 0.0
C275 C 0.24287 0.26139 0.72217 0.0
C276 C 0.24291 0.27701 0.64028 0.0
C277 C 0.22293 0.27704 0.58959 0.0
C278 C 0.2218 0.22996 0.84008 0.0
C279 C 0.26415 0.29316 0.60565 0.0
C280 C 0.29061 0.2821 0.88098 0.0
C281 C 0.30515 0.25772 0.86942 0.0
C282 C 0.26987 0.28321 0.83537 0.0
C283 C 0.26405 0.25991 0.77486 0.0
C284 C 0.27854 0.23506 0.76403 0.0
C285 C 0.29874 0.23404 0.81244 0.0
C286 C 0.2544 0.30949 0.85081 0.0
C287 C 0.27313 0.21008 0.69892 0.0
H288 H 0.18818 0.23312 0.72046 0.0
H289 H 0.22263 0.28928 0.52753 0.0
H290 H 0.23319 0.21025 0.84025 0.0
H291 H 0.22787 0.24571 0.89226 0.0
H292 H 0.20429 0.22158 0.85682 0.0
H293 H 0.26135 0.30413 0.54075 0.0
H294 H 0.27012 0.3109 0.65245 0.0
H295 H 0.27799 0.27665 0.59923 0.0
H296 H 0.29558 0.30046 0.92489 0.0
H297 H 0.31011 0.21538 0.80221 0.0
H298 H 0.23703 0.30075 0.86786 0.0
H299 H 0.25295 0.32329 0.7899 0.0
H300 H 0.2607 0.32462 0.90422 0.0
H301 H 0.25652 0.19872 0.71502 0.0
H302 H 0.28635 0.19251 0.69775 0.0
H303 H 0.27163 0.22006 0.6321 0.0
C304 C 0.70598 0.28201 0.76576 0.0
C305 C 0.70437 0.26708 0.84715 0.0
C306 C 0.72557 0.28024 0.71427 0.0
C307 C 0.74435 0.26418 0.74681 0.0
C308 C 0.7429 0.24932 0.8297 0.0
C309 C 0.72263 0.25037 0.8782 0.0
C310 C 0.7261 0.29539 0.62491 0.0
C311 C 0.76283 0.2327 0.86747 0.0
C312 C 0.79119 0.2405 0.59198 0.0
C313 C 0.80708 0.26468 0.60185 0.0
C314 C 0.77037 0.24031 0.6373 0.0
C315 C 0.76586 0.26429 0.69592 0.0
C316 C 0.78189 0.28872 0.70587 0.0
C317 C 0.80214 0.28884 0.65769 0.0
C318 C 0.75328 0.21444 0.62291 0.0
C319 C 0.77794 0.31435 0.7692 0.0
H320 H 0.69151 0.29422 0.7409 0.0
H321 H 0.72112 0.23853 0.94074 0.0
H322 H 0.73895 0.31444 0.62422 0.0
H323 H 0.73119 0.27887 0.57434 0.0
H324 H 0.70934 0.30454 0.60623 0.0
H325 H 0.75899 0.22262 0.93307 0.0
H326 H 0.76776 0.2142 0.82281 0.0
H327 H 0.77777 0.24866 0.87347 0.0
H328 H 0.79505 0.22178 0.54899 0.0
H329 H 0.81457 0.30732 0.6667 0.0
H330 H 0.73663 0.22361 0.60308 0.0
H331 H 0.7505 0.2015 0.68497 0.0
H332 H 0.75889 0.19841 0.57178 0.0
H333 H 0.76232 0.32643 0.75077 0.0
H334 H 0.79242 0.33122 0.77083 0.0
H335 H 0.77529 0.30493 0.83632 0.0
C336 C 0.2895 0.7398 0.06585 0.0
C337 C 0.30612 0.76267 0.0816 0.0
C338 C 0.26857 0.73963 0.11038 0.0
C339 C 0.26464 0.76223 0.17407 0.0
C340 C 0.28138 0.78537 0.18986 0.0
C341 C 0.30175 0.78557 0.14247 0.0
C342 C 0.25074 0.71523 0.08986 0.0
C343 C 0.27808 0.80943 0.25872 0.0
C344 C 0.20535 0.7814 0.248 0.0
C345 C 0.20321 0.7644 0.32587 0.0
C346 C 0.2249 0.77988 0.19604 0.0
C347 C 0.24309 0.7619 0.22473 0.0
C348 C 0.2411 0.74494 0.3041 0.0
C349 C 0.22087 0.74585 0.35289 0.0
C350 C 0.226 0.79738 0.11032 0.0
C351 C 0.26042 0.72622 0.33795 0.0
H352 H 0.29291 0.72205 0.019 0.0
H353 H 0.31473 0.803 0.15606 0.0
H354 H 0.24729 0.7009 0.14891 0.0
H355 H 0.23452 0.72588 0.07138 0.0
H356 H 0.25602 0.70023 0.03563 0.0
H357 H 0.29302 0.82544 0.26419 0.0
H358 H 0.26286 0.82279 0.24297 0.0
H359 H 0.27505 0.79837 0.32357 0.0
H360 H 0.19133 0.79508 0.22606 0.0
H361 H 0.21895 0.73245 0.41266 0.0
H362 H 0.23072 0.78204 0.05618 0.0
H363 H 0.23935 0.81574 0.11404 0.0
H364 H 0.20955 0.80784 0.09364 0.0
H365 H 0.26484 0.70875 0.28915 0.0
H366 H 0.25619 0.71455 0.40106 0.0
H367 H 0.27581 0.74113 0.34763 0.0
C368 C 0.70581 0.74644 0.17192 0.0
C369 C 0.70458 0.76367 0.09434 0.0
C370 C 0.72544 0.74735 0.22377 0.0
C371 C 0.74462 0.76503 0.19555 0.0
C372 C 0.74356 0.78231 0.11666 0.0
C373 C 0.72329 0.7819 0.06768 0.0
C374 C 0.72557 0.72957 0.30907 0.0
C375 C 0.7639 0.8008 0.08351 0.0
C376 C 0.79111 0.78538 0.36017 0.0
C377 C 0.80632 0.76193 0.34641 0.0
C378 C 0.77071 0.78649 0.31236 0.0
C379 C 0.76602 0.76434 0.24712 0.0
C380 C 0.78151 0.74085 0.23254 0.0
C381 C 0.80127 0.73961 0.28353 0.0
C382 C 0.7542 0.81128 0.33158 0.0
C383 C 0.77743 0.71732 0.16198 0.0
H384 H 0.69105 0.73301 0.19375 0.0
H385 H 0.72214 0.79544 0.00812 0.0
H386 H 0.73828 0.71144 0.30578 0.0
H387 H 0.7306 0.74484 0.36388 0.0
H388 H 0.70867 0.71878 0.32446 0.0
H389 H 0.76013 0.81345 0.02203 0.0
H390 H 0.76975 0.81738 0.13385 0.0
H391 H 0.7782 0.78548 0.07097 0.0
H392 H 0.79517 0.80275 0.40838 0.0
H393 H 0.81332 0.72188 0.2714 0.0
H394 H 0.73734 0.80094 0.34933 0.0
H395 H 0.75173 0.82557 0.27219 0.0
H396 H 0.76013 0.82625 0.38594 0.0
H397 H 0.76175 0.70354 0.17685 0.0
H398 H 0.79184 0.70166 0.15565 0.0
H399 H 0.7748 0.7288 0.09779 0.0
C400 C 0.11946 0.94386 0.49402 0.0
C401 C 0.13553 0.93144 0.43806 0.0
C402 C 0.11905 0.97545 0.50749 0.0
C403 C 0.13473 0.99497 0.46202 0.0
C404 C 0.15074 0.98245 0.40409 0.0
C405 C 0.15115 0.9507 0.39375 0.0
C406 C 0.10211 0.98788 0.57133 0.0
C407 C 0.16736 1.00258 0.35291 0.0
C408 C 0.12013 0.07836 0.43728 0.0
C409 C 0.13461 0.09204 0.4993 0.0
C410 C 0.1201 0.04674 0.42396 0.0
C411 C 0.13451 0.02849 0.47553 0.0
C412 C 0.14885 0.04229 0.53956 0.0
C413 C 0.14894 0.07406 0.54986 0.0
C414 C 0.10495 0.03295 0.35379 0.0
C415 C 0.16406 0.02351 0.59711 0.0
H416 H 0.10753 0.92875 0.52865 0.0
H417 H 0.16351 0.94088 0.35031 0.0
H418 H 0.11122 1.0008 0.6236 0.0
H419 H 0.09086 1.00402 0.53726 0.0
H420 H 0.09134 0.96956 0.60247 0.0
H421 H 0.1781 0.9893 0.30808 0.0
H422 H 0.15801 0.01953 0.31358 0.0
H423 H 0.17865 0.01549 0.3986 0.0
H424 H 0.10922 0.09255 0.39793 0.0
H425 H 0.16009 0.08489 0.59782 0.0
H426 H 0.09293 0.01579 0.38324 0.0
H427 H 0.11543 0.0209 0.30533 0.0
H428 H 0.095 0.05039 0.31865 0.0
H429 H 0.15377 1.00566 0.63234 0.0
H430 H 0.17347 0.03763 0.64612 0.0
H431 H 0.17658 1.01167 0.55618 0.0
C432 C 0.89691 0.45003 0.49995 0.0
C433 C 0.87634 0.43305 0.50603 0.0
C434 C 0.89711 0.48191 0.49146 0.0
C435 C 0.87623 0.49712 0.48795 0.0
C436 C 0.85542 0.48019 0.49454 0.0
C437 C 0.85573 0.44839 0.50415 0.0
C438 C 0.91963 0.49931 0.48545 0.0
C439 C 0.83281 0.49563 0.49072 0.0
C440 C 0.87476 0.58143 0.53989 0.0
C441 C 0.87456 0.59451 0.45576 0.0
C442 C 0.87568 0.54975 0.55138 0.0
C443 C 0.87609 0.53076 0.47683 0.0
C444 C 0.87592 0.54388 0.39166 0.0
C445 C 0.87533 0.57569 0.38215 0.0
C446 C 0.8762 0.53659 0.64318 0.0
C447 C 0.87602 0.52429 0.31069 0.0
H448 H 0.9129 0.43836 0.50014 0.0
H449 H 0.83977 0.43553 0.51043 0.0
H450 H 0.92096 0.51141 0.42141 0.0
H451 H 0.92076 0.51687 0.53736 0.0
H452 H 0.93435 0.48416 0.4923 0.0
H453 H 0.81816 0.47912 0.49595 0.0
H454 H 0.83167 0.51232 0.54469 0.0
H455 H 0.83136 0.50852 0.42814 0.0
H456 H 0.87445 0.59607 0.59681 0.0
H457 H 0.87503 0.58585 0.31711 0.0
H458 H 0.89146 0.5226 0.65176 0.0
H459 H 0.86107 0.5213 0.65413 0.0
H460 H 0.87644 0.55457 0.69409 0.0
H461 H 0.89124 0.50995 0.31077 0.0
H462 H 0.87599 0.53809 0.24926 0.0
H463 H 0.86083 0.50862 0.31072 0.0
C464 C 0.86304 0.94616 0.52009 0.0
C465 C 0.87671 0.93244 0.45679 0.0
C466 C 0.86262 0.97795 0.52826 0.0
C467 C 0.87701 0.99663 0.47481 0.0
C468 C 0.89139 0.98312 0.41278 0.0
C469 C 0.89072 0.95129 0.40321 0.0
C470 C 0.84655 0.99155 0.59351 0.0
C471 C 0.90752 1.00228 0.3565 0.0
C472 C 0.8625 0.07941 0.43678 0.0
C473 C 0.87553 0.09444 0.50162 0.0
C474 C 0.86255 0.04759 0.42831 0.0
C475 C 0.87677 0.03035 0.48324 0.0
C476 C 0.89044 0.04524 0.54719 0.0
C477 C 0.88927 0.07694 0.55694 0.0
C478 C 0.8472 0.03241 0.36107 0.0
C479 C 0.90634 0.02769 0.60526 0.0
H480 H 0.85263 0.93213 0.56395 0.0
H481 H 0.90108 0.94133 0.35293 0.0
H482 H 0.85633 1.00442 0.64402 0.0
H483 H 0.83541 1.00795 0.55978 0.0
H484 H 0.83562 0.97391 0.62694 0.0
H485 H 0.91876 0.98814 0.31603 0.0
H486 H 0.89774 0.01717 0.31213 0.0
H487 H 0.91831 0.0174 0.39844 0.0
H488 H 0.85226 0.09242 0.39181 0.0
H489 H 0.89907 0.08787 0.60861 0.0
H490 H 0.83601 0.01483 0.39334 0.0
H491 H 0.85754 0.02061 0.31173 0.0
H492 H 0.83634 0.04894 0.32639 0.0
H493 H 0.89642 1.01176 0.64842 0.0
H494 H 0.91709 0.04294 0.64711 0.0
H495 H 0.91764 0.01374 0.56456 0.0
C496 C 0.12157 0.57413 0.39509 0.0
C497 C 0.13532 0.59292 0.449 0.0
C498 C 0.12107 0.54224 0.40502 0.0
C499 C 0.13537 0.5286 0.46781 0.0
C500 C 0.14953 0.54721 0.52154 0.0
C501 C 0.14893 0.57905 0.51293 0.0
C502 C 0.10519 0.52317 0.34835 0.0
C503 C 0.16551 0.5335 0.58763 0.0
C504 C 0.12311 0.44779 0.55054 0.0
C505 C 0.13702 0.43055 0.49604 0.0
C506 C 0.12192 0.47955 0.5404 0.0
C507 C 0.13572 0.4948 0.47688 0.0
C508 C 0.15013 0.47782 0.42283 0.0
C509 C 0.15022 0.44595 0.43168 0.0
C510 C 0.10582 0.49678 0.59758 0.0
C511 C 0.16562 0.49335 0.35604 0.0
H512 H 0.11127 0.58418 0.34426 0.0
H513 H 0.15917 0.59299 0.55704 0.0
H514 H 0.11516 0.50852 0.30472 0.0
H515 H 0.09434 0.50782 0.39007 0.0
H516 H 0.094 0.53736 0.30708 0.0
H517 H 0.17629 0.5511 0.62112 0.0
H518 H 0.15567 0.52039 0.63803 0.0
H519 H 0.17679 0.5173 0.55465 0.0
H520 H 0.11317 0.43661 0.60189 0.0
H521 H 0.16061 0.43318 0.38732 0.0
H522 H 0.09456 0.51079 0.5562 0.0
H523 H 0.11559 0.51263 0.64076 0.0
H524 H 0.09505 0.48131 0.63934 0.0
H525 H 0.15538 0.50525 0.30598 0.0
H526 H 0.17665 0.47702 0.32221 0.0
H527 H 0.17665 0.51089 0.3885 0.0
C528 C 0.61917 0.58102 0.93145 0.0
C529 C 0.63396 0.59574 -0.00951 0.0
C530 C 0.61927 0.54923 0.92164 0.0
C531 C 0.63413 0.53184 0.97387 0.0
C532 C 0.64876 0.54668 0.035 0.0
C533 C 0.64872 0.57858 0.04167 0.0
C534 C 0.60382 0.53432 0.85435 0.0
C535 C 0.66443 0.52888 0.09334 0.0
C536 C 0.61981 0.44728 0.00269 0.0
C537 C 0.63565 0.43431 0.94682 0.0
C538 C 0.61925 0.47903 0.01283 0.0
C539 C 0.63453 0.49814 0.96403 0.0
C540 C 0.65031 0.48503 0.90629 0.0
C541 C 0.65089 0.45317 0.89932 0.0
C542 C 0.60257 0.49209 0.07661 0.0
C543 C 0.66649 0.50467 0.85163 0.0
H544 H 0.60791 0.59452 0.89153 0.0
H545 H 0.66009 0.59017 0.08742 0.0
H546 H 0.6141 0.52175 0.80637 0.0
H547 H 0.59209 0.51742 0.88663 0.0
H548 H 0.59353 0.55115 0.81819 0.0
H549 H 0.674 0.54377 0.14001 0.0
H550 H 0.65446 0.51139 0.13128 0.0
H551 H 0.67681 0.51666 0.05277 0.0
H552 H 0.60816 0.43249 0.03973 0.0
H553 H 0.66306 0.44293 0.85591 0.0
H554 H 0.59097 0.50755 0.04168 0.0
H555 H 0.61187 0.50589 0.12654 0.0
H556 H 0.59216 0.47406 0.11071 0.0
H557 H 0.65679 0.52094 0.81121 0.0
H558 H 0.67709 0.49093 0.80749 0.0
H559 H 0.67794 0.51835 0.89493 0.0
C560 C 0.37816 0.94336 0.90527 0.0
C561 C 0.3794 0.92907 -0.0124 0.0
C562 C 0.37822 0.97524 0.89763 0.0
C563 C 0.37921 0.9932 0.97433 0.0
C564 C 0.38063 0.97888 0.05767 0.0
C565 C 0.38088 0.94693 0.06326 0.0
C566 C 0.37707 0.98971 0.80757 0.0
C567 C 0.38141 0.99728 0.14093 0.0
C568 C 0.39742 0.07678 0.95443 0.0
C569 C 0.37637 0.09107 0.95292 0.0
C570 C 0.39861 0.04493 0.96091 0.0
C571 C 0.37827 0.02695 0.96733 0.0
C572 C 0.35698 0.04117 0.96634 0.0
C573 C 0.35628 0.07301 0.95848 0.0
C574 C 0.42162 0.03052 0.96094 0.0
C575 C 0.33493 0.02273 0.97358 0.0
H576 H 0.37727 0.92952 0.84669 0.0
H577 H 0.38165 0.93584 0.12697 0.0
H578 H 0.36134 1.00292 0.80143 0.0
H579 H 0.39171 1.00596 0.79789 0.0
H580 H 0.37719 0.97253 0.75443 0.0
H581 H 0.38283 0.98267 0.20043 0.0
H582 H 0.39609 0.01377 0.13928 0.0
H583 H 0.36578 1.0107 0.14631 0.0
H584 H 0.41305 0.09051 0.95169 0.0
H585 H 0.33993 0.08375 0.95593 0.0
H586 H 0.4226 0.01397 0.90652 0.0
H587 H 0.42406 0.01764 0.02298 0.0
H588 H 0.43581 0.04769 0.95371 0.0
H589 H 0.33329 1.00678 0.9177 0.0
H590 H 0.31982 0.03734 0.97416 0.0
H591 H 0.33488 1.00873 0.03454 0.0
C592 C 0.35336 0.44479 0.95872 0.0
C593 C 0.37397 0.42949 0.95481 0.0
C594 C 0.35306 0.47662 0.96659 0.0
C595 C 0.37387 0.49367 0.96958 0.0
C596 C 0.39473 0.47849 0.96453 0.0
C597 C 0.39454 0.44658 0.95763 0.0
C598 C 0.33047 0.492 0.97202 0.0
C599 C 0.41727 0.49595 0.96694 0.0
C600 C 0.37233 0.57789 0.91087 0.0
C601 C 0.3728 0.59143 -0.00614 0.0
C602 C 0.37291 0.54611 0.90198 0.0
C603 C 0.37377 0.52743 -0.02202 0.0
C604 C 0.37425 0.54097 0.06199 0.0
C605 C 0.37388 0.57286 0.0689 0.0
C606 C 0.37265 0.53254 0.81129 0.0
C607 C 0.37492 0.52176 0.14453 0.0
H608 H 0.33738 0.43186 0.95508 0.0
H609 H 0.41055 0.43498 0.95592 0.0
H610 H 0.32953 0.50516 0.03368 0.0
H611 H 0.32881 0.50844 0.91686 0.0
H612 H 0.31581 0.47541 0.96994 0.0
H613 H 0.43196 0.48081 0.9602 0.0
H614 H 0.41803 0.5132 0.9133 0.0
H615 H 0.41899 0.50844 0.02968 0.0
H616 H 0.3718 0.59224 0.8527 0.0
H617 H 0.37406 0.58327 0.13314 0.0
H618 H 0.3575 0.51707 0.80357 0.0
H619 H 0.38791 0.51863 0.80191 0.0
H620 H 0.37234 0.55027 0.75887 0.0
H621 H 0.35974 0.50611 0.14733 0.0
H622 H 0.37534 0.53584 0.20478 0.0
H623 H 0.39013 0.50741 0.14411 0.0
C624 C 0.63827 0.08199 0.03887 0.0
C625 C 0.63663 0.09625 0.95654 0.0
C626 C 0.63837 0.05008 0.04671 0.0
C627 C 0.63702 0.03201 0.97029 0.0
C628 C 0.63531 0.04627 0.88696 0.0
C629 C 0.63501 0.07824 0.88113 0.0
C630 C 0.63992 0.03572 0.13679 0.0
C631 C 0.63408 0.02778 0.80393 0.0
C632 C 0.65904 0.95151 -0.01553 0.0
C633 C 0.63878 0.93389 -0.00805 0.0
C634 C 0.6587 0.98342 -0.0232 0.0
C635 C 0.63761 0.99816 -0.02244 0.0
C636 C 0.61711 0.9806 -0.01425 0.0
C637 C 0.61793 0.9487 -0.00764 0.0
C638 C 0.68093 1.00137 0.96789 0.0
C639 C 0.59429 0.99551 -0.01268 0.0
H640 H 0.63923 0.09584 0.0974 0.0
H641 H 0.63396 0.08921 0.81734 0.0
H642 H 0.62508 0.01994 0.14816 0.0
H643 H 0.65543 0.022 0.14146 0.0
H644 H 0.64047 0.05298 0.18972 0.0
H645 H 0.63267 0.04235 0.74433 0.0
H646 H 0.64951 0.01398 0.79802 0.0
H647 H 0.61919 1.01163 0.80639 0.0
H648 H 0.67524 0.94038 -0.01457 0.0
H649 H 0.60216 0.93532 -0.00338 0.0
H650 H 0.68299 0.01743 0.02336 0.0
H651 H 0.68088 0.01523 0.90668 0.0
H652 H 0.69584 0.98642 0.96664 0.0
H653 H 0.59378 1.01211 0.04175 0.0
H654 H 0.57994 0.97865 -0.0044 0.0
H655 H 0.59172 1.00842 0.92542 0.0
C656 C 0.13924 0.28676 0.20312 0.0
C657 C 0.14729 0.26153 0.24933 0.0
C658 C 0.13681 0.28603 0.11212 0.0
C659 C 0.14318 0.25973 0.06635 0.0
C660 C 0.15242 0.23476 0.11201 0.0
C661 C 0.15407 0.23577 0.20361 0.0
C662 C 0.12661 0.31291 0.06542 0.0
C663 C 0.16009 0.20683 0.06436 0.0
C664 C 0.11526 0.24666 0.84578 0.0
C665 C 0.13144 0.26048 0.79032 0.0
C666 C 0.11893 0.24604 0.93656 0.0
C667 C 0.13965 0.25838 0.97073 0.0
C668 C 0.15639 0.27124 0.9139 0.0
C669 C 0.15185 0.27267 0.82419 0.0
C670 C 0.10053 0.23282 -0.00407 0.0
C671 C 0.17901 0.28354 0.94767 0.0
H672 H 0.13378 0.30661 0.23846 0.0
H673 H 0.16037 0.21632 0.2395 0.0
H674 H 0.13856 0.32216 0.01487 0.0
H675 H 0.11076 0.30543 0.03119 0.0
H676 H 0.12252 0.33159 0.11104 0.0
H677 H 0.16857 0.19051 0.10886 0.0
H678 H 0.14521 0.19496 0.03366 0.0
H679 H 0.17206 0.21354 0.01085 0.0
H680 H 0.09968 0.23692 0.81828 0.0
H681 H 0.16452 0.28265 0.77995 0.0
H682 H 0.09485 0.25059 0.04176 0.0
H683 H 0.1073 0.21398 0.03625 0.0
H684 H 0.08553 0.22396 0.95866 0.0
H685 H 0.17633 0.30376 -0.01082 0.0
H686 H 0.19086 0.29026 0.89366 0.0
H687 H 0.18721 0.26614 -0.01071 0.0
C688 C 0.85638 0.28364 0.20174 0.0
C689 C 0.86888 0.26324 0.25175 0.0
C690 C 0.85845 0.28416 0.11033 0.0
C691 C 0.87408 0.26474 0.07001 0.0
C692 C 0.88704 0.24455 0.12091 0.0
C693 C 0.88393 0.24365 0.21144 0.0
C694 C 0.84384 0.30515 0.05698 0.0
C695 C 0.90436 0.22423 0.07999 0.0
C696 C 0.86714 0.24223 0.83411 0.0
C697 C 0.8822 0.26302 0.79269 0.0
C698 C 0.86383 0.24318 0.92452 0.0
C699 C 0.87655 0.26475 0.97419 0.0
C700 C 0.89219 0.28539 0.93282 0.0
C701 C 0.89451 0.28466 0.84162 0.0
C702 C 0.84653 0.22146 0.96659 0.0
C703 C 0.90651 0.30799 -0.01516 0.0
H704 H 0.84487 0.29881 0.23405 0.0
H705 H 0.89392 0.22838 0.25122 0.0
H706 H 0.85475 0.32156 0.01904 0.0
H707 H 0.83359 0.2917 0.00897 0.0
H708 H 0.83212 0.31817 0.09861 0.0
H709 H 0.91392 0.21116 0.12985 0.0
H710 H 0.89576 0.20781 0.03502 0.0
H711 H 0.91669 0.23816 0.04034 0.0
H712 H 0.85725 0.22599 0.79528 0.0
H713 H 0.90601 0.3008 0.80856 0.0
H714 H 0.83402 0.23443 0.00462 0.0
H715 H 0.85511 0.20604 0.01325 0.0
H716 H 0.83717 0.2073 0.91754 0.0
H717 H 0.89539 0.32349 0.02113 0.0
H718 H 0.91821 0.32197 0.94249 0.0
H719 H 0.91677 0.29572 0.0342 0.0
C720 C 0.11387 0.77283 0.09303 0.0
C721 C 0.13062 0.76206 0.14909 0.0
C722 C 0.11761 0.7738 0.00231 0.0
C723 C 0.13889 0.76488 0.96881 0.0
C724 C 0.1561 0.75501 0.02625 0.0
C725 C 0.15157 0.75324 0.11597 0.0
C726 C 0.09875 0.78379 0.94232 0.0
C727 C 0.17923 0.74635 -0.00687 0.0
C728 C 0.13971 0.7366 0.73639 0.0
C729 C 0.14657 0.76306 0.69015 0.0
C730 C 0.13741 0.73686 0.82745 0.0
C731 C 0.14262 0.76405 0.87328 0.0
C732 C 0.15072 0.79042 0.82766 0.0
C733 C 0.15237 0.78973 0.73605 0.0
C734 C 0.12851 0.70839 0.87415 0.0
C735 C 0.15705 0.81951 0.87533 0.0
H736 H 0.09785 0.78 0.12004 0.0
H737 H 0.16461 0.74562 0.16078 0.0
H738 H 0.10466 0.80363 0.90195 0.0
H739 H 0.09402 0.76509 0.89659 0.0
H740 H 0.08331 0.79015 -0.02089 0.0
H741 H 0.19108 0.74084 0.04741 0.0
H742 H 0.17748 0.72623 0.94978 0.0
H743 H 0.18693 0.76531 0.95349 0.0
H744 H 0.1351 0.71595 0.70113 0.0
H745 H 0.15778 0.81016 0.70032 0.0
H746 H 0.11226 0.71316 0.90767 0.0
H747 H 0.14074 0.70131 0.92529 0.0
H748 H 0.1255 0.68902 0.82865 0.0
H749 H 0.14164 0.829 0.90539 0.0
H750 H 0.16489 0.83709 0.83098 0.0
H751 H 0.16915 0.81478 0.92931 0.0
C752 C 0.86451 0.7349 0.74959 0.0
C753 C 0.86426 0.76248 0.70258 0.0
C754 C 0.86628 0.73477 0.841 0.0
C755 C 0.86781 0.76287 0.88567 0.0
C756 C 0.86643 0.79073 0.83906 0.0
C757 C 0.86462 0.79021 0.74776 0.0
C758 C 0.86739 0.70465 0.88941 0.0
C759 C 0.86782 0.82109 0.88523 0.0
C760 C 0.85689 0.7632 0.12883 0.0
C761 C 0.8791 0.76419 0.16154 0.0
C762 C 0.8529 0.76267 0.03872 0.0
C763 C 0.8717 0.7632 -0.019 0.0
C764 C 0.89425 0.76424 0.01419 0.0
C765 C 0.89771 0.76475 0.10503 0.0
C766 C 0.82866 0.76163 0.00559 0.0
C767 C 0.91462 0.76468 0.95386 0.0
H768 H 0.86409 0.71341 0.71488 0.0
H769 H 0.86431 0.8116 0.71167 0.0
H770 H 0.88432 0.70276 0.92094 0.0
H771 H 0.85445 0.70338 0.94232 0.0
H772 H 0.86458 0.68485 0.84531 0.0
H773 H 0.86522 0.84058 0.83968 0.0
H774 H 0.85486 0.8217 0.93799 0.0
H775 H 0.88476 0.82417 0.91666 0.0
H776 H 0.84264 0.76274 0.17409 0.0
H777 H 0.91481 0.76534 0.13185 0.0
H778 H 0.82594 0.74222 0.96019 0.0
H779 H 0.82527 0.78282 0.96819 0.0
H780 H 0.8161 0.75931 0.05982 0.0
H781 H 0.91405 0.74409 0.91199 0.0
H782 H 0.93098 0.76538 -0.00956 0.0
H783 H 0.91421 0.78485 0.90956 0.0
C784 C 0.61679 0.74911 0.32991 0.0
C785 C 0.63332 0.76277 0.27571 0.0
C786 C 0.62005 0.74835 0.42082 0.0
C787 C 0.64066 0.76054 0.4563 0.0
C788 C 0.65782 0.77299 0.40074 0.0
C789 C 0.65374 0.77444 0.31082 0.0
C790 C 0.60129 0.73539 0.47894 0.0
C791 C 0.68031 0.78516 0.43615 0.0
C792 C 0.63877 0.78993 0.68712 0.0
C793 C 0.64665 0.76493 0.73473 0.0
C794 C 0.63691 0.78881 0.59601 0.0
C795 C 0.64358 0.76231 0.5519 0.0
C796 C 0.6526 0.73757 0.59909 0.0
C797 C 0.65382 0.73904 0.69056 0.0
C798 C 0.62707 0.81553 0.54731 0.0
C799 C 0.66046 0.70937 0.55319 0.0
H800 H 0.60118 0.73982 0.30141 0.0
H801 H 0.6667 0.78425 0.26749 0.0
H802 H 0.60784 0.71696 0.52135 0.0
H803 H 0.59516 0.75347 0.5228 0.0
H804 H 0.58661 0.72608 0.4406 0.0
H805 H 0.69261 0.79121 0.38302 0.0
H806 H 0.67752 0.80582 0.47577 0.0
H807 H 0.68804 0.76801 0.47997 0.0
H808 H 0.63311 0.80991 0.72129 0.0
H809 H 0.66005 0.71979 0.72755 0.0
H810 H 0.61141 0.80796 0.51192 0.0
H811 H 0.63935 0.82447 0.49753 0.0
H812 H 0.62275 0.83444 0.59178 0.0
H813 H 0.64573 0.69745 0.52164 0.0
H814 H 0.66862 0.69319 0.59902 0.0
H815 H 0.67275 0.71577 0.5005 0.0
C816 C 0.35739 0.78231 0.69084 0.0
C817 C 0.36851 0.75969 0.73795 0.0
C818 C 0.35879 0.78344 0.59944 0.0
C819 C 0.37222 0.76206 0.55593 0.0
C820 C 0.38356 0.73929 0.60352 0.0
C821 C 0.38125 0.73809 0.69434 0.0
C822 C 0.34593 0.80733 0.54955 0.0
C823 C 0.3984 0.71656 0.55873 0.0
C824 C 0.3622 0.74286 0.31979 0.0
C825 C 0.37924 0.7608 0.2789 0.0
C826 C 0.35916 0.74401 0.41016 0.0
C827 C 0.37405 0.7628 0.46016 0.0
C828 C 0.39137 0.78094 0.41917 0.0
C829 C 0.39351 0.78012 0.32797 0.0
C830 C 0.34011 0.72508 0.452 0.0
C831 C 0.40783 0.80062 0.47166 0.0
H832 H 0.34757 0.79894 0.72547 0.0
H833 H 0.39013 0.72094 0.73159 0.0
H834 H 0.35798 0.82234 0.51197 0.0
H835 H 0.33427 0.79618 0.50143 0.0
H836 H 0.33578 0.82172 0.59356 0.0
H837 H 0.4068 0.70117 0.60618 0.0
H838 H 0.38803 0.7024 0.51285 0.0
H839 H 0.41175 0.72877 0.51941 0.0
H840 H 0.35085 0.7285 0.28067 0.0
H841 H 0.40652 0.79407 0.29518 0.0
H842 H 0.32949 0.73966 0.49355 0.0
H843 H 0.3473 0.70734 0.49528 0.0
H844 H 0.32896 0.71363 0.40258 0.0
H845 H 0.39841 0.81706 0.51164 0.0
H846 H 0.42016 0.81355 0.42926 0.0
H847 H 0.41745 0.78613 0.51776 0.0
C848 C 0.6377 0.24049 0.25198 0.0
C849 C 0.6461 0.26611 0.20548 0.0
C850 C 0.63594 0.24095 0.34307 0.0
C851 C 0.64328 0.26742 0.38845 0.0
C852 C 0.65281 0.29286 0.34242 0.0
C853 C 0.65385 0.29206 0.25077 0.0
C854 C 0.62543 0.21356 0.39037 0.0
C855 C 0.66141 0.32105 0.38976 0.0
C856 C 0.6165 0.27853 0.61016 0.0
C857 C 0.63257 0.26515 0.66428 0.0
C858 C 0.61991 0.27979 0.51941 0.0
C859 C 0.64026 0.26851 0.48405 0.0
C860 C 0.65695 0.25614 0.53955 0.0
C861 C 0.65266 0.25408 0.62933 0.0
C862 C 0.60157 0.29246 0.46134 0.0
C863 C 0.67918 0.24494 0.50424 0.0
H864 H 0.63157 0.22045 0.21696 0.0
H865 H 0.66046 0.31178 0.21459 0.0
H866 H 0.63749 0.20474 0.43975 0.0
H867 H 0.60995 0.22032 0.42606 0.0
H868 H 0.62064 0.19475 0.34493 0.0
H869 H 0.67006 0.33774 0.34479 0.0
H870 H 0.64698 0.33233 0.42161 0.0
H871 H 0.67349 0.31473 0.44236 0.0
H872 H 0.60119 0.28743 0.63868 0.0
H873 H 0.66528 0.24453 0.67275 0.0
H874 H 0.5952 0.27453 0.41577 0.0
H875 H 0.60865 0.31158 0.42073 0.0
H876 H 0.58697 0.30077 0.49965 0.0
H877 H 0.67591 0.2248 0.46203 0.0
H878 H 0.69108 0.23845 0.55742 0.0
H879 H 0.68763 0.26289 0.46293 0.0
C880 C 0.35635 0.2379 0.25852 0.0
C881 C 0.36897 0.25962 0.21006 0.0
C882 C 0.35763 0.23763 0.35002 0.0
C883 C 0.37252 0.25885 0.39203 0.0
C884 C 0.38555 0.28049 0.34286 0.0
C885 C 0.3833 0.28092 0.25206 0.0
C886 C 0.34303 0.21496 0.40163 0.0
C887 C 0.40204 0.30286 0.38596 0.0
C888 C 0.36386 0.28045 0.62686 0.0
C889 C 0.37928 0.26161 0.66902 0.0
C890 C 0.3609 0.27897 0.53637 0.0
C891 C 0.37432 0.25896 0.48778 0.0
C892 C 0.39022 0.24023 0.53007 0.0
C893 C 0.39221 0.24139 0.6212 0.0
C894 C 0.34335 0.29858 0.49299 0.0
C895 C 0.40524 0.21936 0.47912 0.0
H896 H 0.34533 0.2215 0.22493 0.0
H897 H 0.39332 0.29733 0.21356 0.0
H898 H 0.35394 0.19982 0.44093 0.0
H899 H 0.33214 0.22719 0.44833 0.0
H900 H 0.33192 0.20059 0.35864 0.0
H901 H 0.41163 0.31721 0.33736 0.0
H902 H 0.39272 0.31809 0.43015 0.0
H903 H 0.4144 0.29041 0.42678 0.0
H904 H 0.35354 0.29553 0.6651 0.0
H905 H 0.40398 0.22678 0.65508 0.0
H906 H 0.3315 0.28419 0.45316 0.0
H907 H 0.35185 0.31527 0.44779 0.0
H908 H 0.33327 0.3113 0.5414 0.0
H909 H 0.39463 0.20281 0.44112 0.0
H910 H 0.41681 0.20649 0.52241 0.0
H911 H 0.41567 0.23291 0.43132 0.0
C912 C 0.05639 0.28117 0.41668 0.0
C913 C 0.06656 0.25927 0.46985 0.0
C914 C 0.03261 0.28194 0.4092 0.0
C915 C 0.01887 0.26119 0.45919 0.0
C916 C 0.02917 0.23887 0.51241 0.0
C917 C 0.05293 0.23782 0.51569 0.0
C918 C 0.0222 0.30525 0.34915 0.0
C919 C 0.01513 0.21703 0.56906 0.0
C920 C 0.9601 0.28511 0.52653 0.0
C921 C 0.9462 0.26561 0.47617 0.0
C922 C 0.98384 0.2841 0.52095 0.0
C923 C 0.99379 0.26396 0.46088 0.0
C924 C 0.97972 0.24525 0.4068 0.0
C925 C 0.956 0.24579 0.41656 0.0
C926 C 0.99824 0.30362 0.58195 0.0
C927 C 0.98972 0.2244 0.33965 0.0
H928 H 0.06703 0.2976 0.38082 0.0
H929 H 0.06089 0.22107 0.55745 0.0
H930 H 0.00921 0.29411 0.30626 0.0
H931 H 0.01346 0.32251 0.38856 0.0
H932 H 0.03517 0.31721 0.30727 0.0
H933 H 0.02582 0.20094 0.60628 0.0
H934 H 1.005 0.23007 0.61647 0.0
H935 H 1.00295 0.20361 0.52816 0.0
H936 H 0.95238 0.30025 0.57306 0.0
H937 H 0.9451 0.23095 0.37716 0.0
H938 H 0.0101 0.3187 0.54373 0.0
H939 H 0.00874 0.28883 0.62414 0.0
H940 H 0.9878 0.31804 0.62477 0.0
H941 H 1.00239 0.2372 0.29853 0.0
H942 H 0.97648 0.21402 0.29623 0.0
H943 H 0.99877 0.20579 0.37318 0.0
C944 C 0.95717 0.74065 0.42555 0.0
C945 C 0.94501 0.7614 0.47498 0.0
C946 C 0.98097 0.74056 0.42885 0.0
C947 C 0.99277 0.76095 0.4856 0.0
C948 C 0.98046 0.78105 0.5387 0.0
C949 C 0.95665 0.7815 0.53131 0.0
C950 C 0.99349 0.71958 0.36878 0.0
C951 C 0.99244 0.8023 0.60226 0.0
C952 C 0.05453 0.74188 0.52516 0.0
C953 C 0.0657 0.76277 0.46885 0.0
C954 C 0.03078 0.74203 0.53491 0.0
C955 C 0.01802 0.76264 0.48412 0.0
C956 C 0.02934 0.78375 0.42717 0.0
C957 C 0.05311 0.78394 0.4216 0.0
C958 C 0.01933 0.72 0.5987 0.0
C959 C 0.01632 0.80532 0.36946 0.0
H960 H 0.94809 0.72528 0.38145 0.0
H961 H 0.94713 0.79735 0.57003 0.0
H962 H 1.00459 0.73329 0.32357 0.0
H963 H 1.00465 0.7046 0.40745 0.0
H964 H 0.98172 0.70499 0.32904 0.0
H965 H 0.98029 0.8139 0.64568 0.0
H966 H 1.00449 0.7895 0.64358 0.0
H967 H 1.00253 0.81998 0.56564 0.0
H968 H 0.0644 0.72571 0.56218 0.0
H969 H 0.06183 0.79992 0.37751 0.0
H970 H 0.00887 0.70282 0.56241 0.0
H971 H 0.00767 0.73232 0.6423 0.0
H972 H 0.03182 0.70784 0.63983 0.0
H973 H 1.0048 0.79207 0.32527 0.0
H974 H 0.02776 0.82027 0.3287 0.0
H975 H 0.00554 0.81995 0.41008 0.0
C976 C 0.5541 0.78596 0.01313 0.0
C977 C 0.56662 0.76558 0.96376 0.0
C978 C 0.53025 0.78478 0.01146 0.0
C979 C 0.51878 0.76338 0.95674 0.0
C980 C 0.53141 0.74366 0.90374 0.0
C981 C 0.55524 0.7446 0.90916 0.0
C982 C 0.51736 0.80559 0.07077 0.0
C983 C 0.51975 0.7213 0.84236 0.0
C984 C 0.45859 0.73882 0.02022 0.0
C985 C 0.44579 0.759 0.97025 0.0
C986 C 0.48242 0.73987 0.01599 0.0
C987 C 0.49355 0.76086 0.95806 0.0
C988 C 0.48059 0.78036 0.90458 0.0
C989 C 0.45682 0.77959 0.91257 0.0
C990 C 0.49569 0.71934 0.0759 0.0
C991 C 0.49184 0.80227 0.83989 0.0
H992 H 0.56295 0.80198 0.05601 0.0
H993 H 0.56501 0.72897 0.8706 0.0
H994 H 0.50574 0.81978 0.03161 0.0
H995 H 0.5067 0.79174 0.11713 0.0
H996 H 0.52888 0.82096 0.1092 0.0
H997 H 0.53206 0.70958 0.79994 0.0
H998 H 0.50997 0.70378 0.88072 0.0
H999 H 0.50746 0.73324 0.79995 0.0
H1000 H 0.44999 0.72308 0.0653 0.0
H1001 H 0.44681 0.795 0.87341 0.0
H1002 H 0.5067 0.73341 0.11993 0.0
H1003 H 0.50702 0.70491 0.03692 0.0
H1004 H 0.48443 0.70422 0.11682 0.0
H1005 H 0.50195 0.81998 0.87553 0.0
H1006 H 0.47925 0.8138 0.79765 0.0
H1007 H 0.50378 0.79001 0.79738 0.0
C1008 C 0.45782 0.24164 0.92147 0.0
C1009 C 0.44542 0.2615 0.97294 0.0
C1010 C 0.48163 0.24201 0.92485 0.0
C1011 C 0.49316 0.26188 -0.01615 0.0
C1012 C 0.4806 0.28121 0.03844 0.0
C1013 C 0.45679 0.28128 0.03088 0.0
C1014 C 0.49444 0.22191 0.86319 0.0
C1015 C 0.49229 0.30186 0.10436 0.0
C1016 C 0.55468 0.2426 0.02782 0.0
C1017 C 0.56619 0.26425 -0.02502 0.0
C1018 C 0.53085 0.24243 0.0347 0.0
C1019 C 0.51841 0.26355 -0.01553 0.0
C1020 C 0.53007 0.28537 0.93079 0.0
C1021 C 0.55388 0.28582 0.92811 0.0
C1022 C 0.51901 0.21959 0.09507 0.0
C1023 C 0.51741 0.30751 0.87372 0.0
H1024 H 0.44888 0.22651 0.87629 0.0
H1025 H 0.44704 0.29639 0.0712 0.0
H1026 H 0.50583 0.23621 0.82059 0.0
H1027 H 0.50533 0.2063 0.90091 0.0
H1028 H 0.48285 0.20801 0.82077 0.0
H1029 H 0.47996 0.31328 0.14736 0.0
H1030 H 0.50397 0.28857 0.146 0.0
H1031 H 0.50275 0.31966 0.06983 0.0
H1032 H 0.56433 0.2261 0.0645 0.0
H1033 H 0.56288 0.30238 0.88663 0.0
H1034 H 0.50871 0.20299 0.05608 0.0
H1035 H 0.50714 0.23136 0.13911 0.0
H1036 H 0.53123 0.2068 0.13579 0.0
H1037 H 0.50619 0.29472 0.82736 0.0
H1038 H 0.52908 0.32289 0.83534 0.0
H1039 H 0.50634 0.32168 0.91456 0.0
loop_
_geom_bond_atom_site_label_1
_geom_bond_atom_site_label_2
_geom_bond_distance
_geom_bond_site_symmetry_2
_ccdc_geom_bond_type
C0 O16 1.251 . S
C0 O18 1.254 . S
N1 C2 1.333 . S
N1 C6 1.307 . S
N1 Zn7 2.020 . S
C2 N1 1.333 . S
C2 C3 1.379 . S
C2 H20 0.952 . S
C3 C2 1.379 . S
C3 C4 1.390 . S
C3 H30 0.949 . S
C4 C3 1.390 . S
C4 C5 1.357 . S
C5 C4 1.357 . S
C5 C6 1.370 . S
C5 H31 0.950 . S
C6 N1 1.307 . S
C6 C5 1.370 . S
C6 H24 0.948 . S
Zn7 N1 2.020 . S
Zn7 O16 2.039 . S
Zn7 O22 2.034 . S
Zn7 O26 2.025 . S
Zn7 O28 2.024 . S
C8 O27 1.246 . S
C8 O28 1.249 . S
N9 C10 1.307 . S
N9 C11 1.333 . S
N9 Zn15 2.020 . S
C10 N9 1.307 . S
C10 C14 1.370 . S
C10 H21 0.948 . S
C11 N9 1.333 . S
C11 C12 1.379 . S
C11 H19 0.952 . S
C12 C11 1.379 . S
C12 C13 1.390 . S
C12 H32 0.949 . S
C13 C12 1.390 . S
C13 C14 1.357 . S
C14 C10 1.370 . S
C14 C13 1.357 . S
C14 H33 0.950 . S
Zn15 N9 2.020 . S
Zn15 O18 2.025 . S
Zn15 O23 2.024 . S
Zn15 O25 2.039 . S
Zn15 O27 2.034 . S
O16 C0 1.251 . S
O16 Zn7 2.039 . S
C17 O22 1.246 . S
C17 O23 1.249 . S
O18 C0 1.254 . S
O18 Zn15 2.025 . S
H19 C11 0.952 . S
H20 C2 0.952 . S
H21 C10 0.948 . S
O22 Zn7 2.034 . S
O22 C17 1.246 . S
O23 Zn15 2.024 . S
O23 C17 1.249 . S
H24 C6 0.948 . S
O25 Zn15 2.039 . S
O25 C29 1.251 . S
O26 Zn7 2.025 . S
O26 C29 1.254 . S
O27 C8 1.246 . S
O27 Zn15 2.034 . S
O28 Zn7 2.024 . S
O28 C8 1.249 . S
C29 O25 1.251 . S
C29 O26 1.254 . S
H30 C3 0.949 . S
H31 C5 0.950 . S
H32 C12 0.949 . S
H33 C14 0.950 . S
C34 O50 1.251 . S
C34 O52 1.254 . S
N35 C36 1.333 . S
N35 C40 1.307 . S
N35 Zn41 2.020 . S
C36 N35 1.333 . S
C36 C37 1.379 . S
C36 H54 0.952 . S
C37 C36 1.379 . S
C37 C38 1.390 . S
C37 H64 0.949 . S
C38 C37 1.390 . S
C38 C39 1.357 . S
C39 C38 1.357 . S
C39 C40 1.370 . S
C39 H65 0.950 . S
C40 N35 1.307 . S
C40 C39 1.370 . S
C40 H58 0.948 . S
Zn41 N35 2.020 . S
Zn41 O50 2.039 . S
Zn41 O56 2.034 . S
Zn41 O60 2.025 . S
Zn41 O62 2.024 . S
C42 O61 1.246 . S
C42 O62 1.249 . S
N43 C44 1.307 . S
N43 C45 1.333 . S
N43 Zn49 2.020 . S
C44 N43 1.307 . S
C44 C48 1.370 . S
C44 H55 0.948 . S
C45 N43 1.333 . S
C45 C46 1.379 . S
C45 H53 0.952 . S
C46 C45 1.379 . S
C46 C47 1.390 . S
C46 H66 0.949 . S
C47 C46 1.390 . S
C47 C48 1.357 . S
C48 C44 1.370 . S
C48 C47 1.357 . S
C48 H67 0.950 . S
Zn49 N43 2.020 . S
Zn49 O52 2.025 . S
Zn49 O57 2.024 . S
Zn49 O59 2.039 . S
Zn49 O61 2.034 . S
O50 C34 1.251 . S
O50 Zn41 2.039 . S
C51 O56 1.246 . S
C51 O57 1.249 . S
O52 C34 1.254 . S
O52 Zn49 2.025 . S
H53 C45 0.952 . S
H54 C36 0.952 . S
H55 C44 0.948 . S
O56 Zn41 2.034 . S
O56 C51 1.246 . S
O57 Zn49 2.024 . S
O57 C51 1.249 . S
H58 C40 0.948 . S
O59 Zn49 2.039 . S
O59 C63 1.251 . S
O60 Zn41 2.025 . S
O60 C63 1.254 . S
O61 C42 1.246 . S
O61 Zn49 2.034 . S
O62 Zn41 2.024 . S
O62 C42 1.249 . S
C63 O59 1.251 . S
C63 O60 1.254 . S
H64 C37 0.949 . S
H65 C39 0.950 . S
H66 C46 0.949 . S
H67 C48 0.950 . S
C68 O84 1.251 . S
C68 O86 1.254 . S
N69 C70 1.333 . S
N69 C74 1.307 . S
N69 Zn75 2.020 . S
C70 N69 1.333 . S
C70 C71 1.379 . S
C70 H88 0.952 . S
C71 C70 1.379 . S
C71 C72 1.390 . S
C71 H98 0.949 . S
C72 C71 1.390 . S
C72 C73 1.357 . S
C73 C72 1.357 . S
C73 C74 1.370 . S
C73 H99 0.950 . S
C74 N69 1.307 . S
C74 C73 1.370 . S
C74 H92 0.948 . S
Zn75 N69 2.020 . S
Zn75 O84 2.039 . S
Zn75 O90 2.034 . S
Zn75 O94 2.025 . S
Zn75 O96 2.024 . S
C76 O95 1.246 . S
C76 O96 1.249 . S
N77 C78 1.307 . S
N77 C79 1.333 . S
N77 Zn83 2.020 . S
C78 N77 1.307 . S
C78 C82 1.370 . S
C78 H89 0.948 . S
C79 N77 1.333 . S
C79 C80 1.379 . S
C79 H87 0.952 . S
C80 C79 1.379 . S
C80 C81 1.390 . S
C80 H100 0.949 . S
C81 C80 1.390 . S
C81 C82 1.357 . S
C82 C78 1.370 . S
C82 C81 1.357 . S
C82 H101 0.950 . S
Zn83 N77 2.020 . S
Zn83 O86 2.025 . S
Zn83 O91 2.024 . S
Zn83 O93 2.039 . S
Zn83 O95 2.034 . S
O84 C68 1.251 . S
O84 Zn75 2.039 . S
C85 O90 1.246 . S
C85 O91 1.249 . S
O86 C68 1.254 . S
O86 Zn83 2.025 . S
H87 C79 0.952 . S
H88 C70 0.952 . S
H89 C78 0.948 . S
O90 Zn75 2.034 . S
O90 C85 1.246 . S
O91 Zn83 2.024 . S
O91 C85 1.249 . S
H92 C74 0.948 . S
O93 Zn83 2.039 . S
O93 C97 1.251 . S
O94 Zn75 2.025 . S
O94 C97 1.254 . S
O95 C76 1.246 . S
O95 Zn83 2.034 . S
O96 Zn75 2.024 . S
O96 C76 1.249 . S
C97 O93 1.251 . S
C97 O94 1.254 . S
H98 C71 0.949 . S
H99 C73 0.950 . S
H100 C80 0.949 . S
H101 C82 0.950 . S
C102 O118 1.251 . S
C102 O120 1.254 . S
N103 C104 1.333 . S
N103 C108 1.307 . S
N103 Zn109 2.020 . S
C104 N103 1.333 . S
C104 C105 1.379 . S
C104 H122 0.952 . S
C105 C104 1.379 . S
C105 C106 1.390 . S
C105 H132 0.949 . S
C106 C105 1.390 . S
C106 C107 1.357 . S
C107 C106 1.357 . S
C107 C108 1.370 . S
C107 H133 0.950 . S
C108 N103 1.307 . S
C108 C107 1.370 . S
C108 H126 0.948 . S
Zn109 N103 2.020 . S
Zn109 O118 2.039 . S
Zn109 O124 2.034 . S
Zn109 O128 2.025 . S
Zn109 O130 2.024 . S
C110 O129 1.246 . S
C110 O130 1.249 . S
N111 C112 1.307 . S
N111 C113 1.333 . S
N111 Zn117 2.020 . S
C112 N111 1.307 . S
C112 C116 1.370 . S
C112 H123 0.948 . S
C113 N111 1.333 . S
C113 C114 1.379 . S
C113 H121 0.952 . S
C114 C113 1.379 . S
C114 C115 1.390 . S
C114 H134 0.949 . S
C115 C114 1.390 . S
C115 C116 1.357 . S
C116 C112 1.370 . S
C116 C115 1.357 . S
C116 H135 0.950 . S
Zn117 N111 2.020 . S
Zn117 O120 2.025 . S
Zn117 O125 2.024 . S
Zn117 O127 2.039 . S
Zn117 O129 2.034 . S
O118 C102 1.251 . S
O118 Zn109 2.039 . S
C119 O124 1.246 . S
C119 O125 1.249 . S
O120 C102 1.254 . S
O120 Zn117 2.025 . S
H121 C113 0.952 . S
H122 C104 0.952 . S
H123 C112 0.948 . S
O124 Zn109 2.034 . S
O124 C119 1.246 . S
O125 Zn117 2.024 . S
O125 C119 1.249 . S
H126 C108 0.948 . S
O127 Zn117 2.039 . S
O127 C131 1.251 . S
O128 Zn109 2.025 . S
O128 C131 1.254 . S
O129 C110 1.246 . S
O129 Zn117 2.034 . S
O130 Zn109 2.024 . S
O130 C110 1.249 . S
C131 O127 1.251 . S
C131 O128 1.254 . S
H132 C105 0.949 . S
H133 C107 0.950 . S
H134 C114 0.949 . S
H135 C116 0.950 . S
C136 O152 1.251 . S
C136 O154 1.254 . S
N137 C138 1.333 . S
N137 C142 1.307 . S
N137 Zn143 2.020 . S
C138 N137 1.333 . S
C138 C139 1.379 . S
C138 H156 0.952 . S
C139 C138 1.379 . S
C139 C140 1.390 . S
C139 H166 0.949 . S
C140 C139 1.390 . S
C140 C141 1.357 . S
C141 C140 1.357 . S
C141 C142 1.370 . S
C141 H167 0.950 . S
C142 N137 1.307 . S
C142 C141 1.370 . S
C142 H160 0.948 . S
Zn143 N137 2.020 . S
Zn143 O152 2.039 . S
Zn143 O158 2.034 1_554 S
Zn143 O162 2.025 . S
Zn143 O164 2.024 . S
C144 O163 1.246 . S
C144 O164 1.249 . S
N145 C146 1.307 . S
N145 C147 1.333 . S
N145 Zn151 2.020 . S
C146 N145 1.307 . S
C146 C150 1.370 . S
C146 H157 0.948 . S
C147 N145 1.333 . S
C147 C148 1.379 . S
C147 H155 0.952 . S
C148 C147 1.379 . S
C148 C149 1.390 . S
C148 H168 0.949 . S
C149 C148 1.390 . S
C149 C150 1.357 . S
C150 C146 1.370 . S
C150 C149 1.357 . S
C150 H169 0.950 . S
Zn151 N145 2.020 . S
Zn151 O154 2.025 . S
Zn151 O159 2.024 1_554 S
Zn151 O161 2.039 . S
Zn151 O163 2.034 . S
O152 C136 1.251 . S
O152 Zn143 2.039 . S
C153 O158 1.246 . S
C153 O159 1.249 . S
O154 C136 1.254 . S
O154 Zn151 2.025 . S
H155 C147 0.952 . S
H156 C138 0.952 . S
H157 C146 0.948 . S
O158 Zn143 2.034 1_556 S
O158 C153 1.246 . S
O159 Zn151 2.024 1_556 S
O159 C153 1.249 . S
H160 C142 0.948 . S
O161 Zn151 2.039 . S
O161 C165 1.251 . S
O162 Zn143 2.025 . S
O162 C165 1.254 . S
O163 C144 1.246 . S
O163 Zn151 2.034 . S
O164 Zn143 2.024 . S
O164 C144 1.249 . S
C165 O161 1.251 . S
C165 O162 1.254 . S
H166 C139 0.949 . S
H167 C141 0.950 . S
H168 C148 0.949 . S
H169 C150 0.950 . S
C170 O186 1.251 . S
C170 O188 1.254 . S
N171 C172 1.333 . S
N171 C176 1.307 . S
N171 Zn177 2.020 . S
C172 N171 1.333 . S
C172 C173 1.379 . S
C172 H190 0.952 . S
C173 C172 1.379 . S
C173 C174 1.390 . S
C173 H200 0.949 . S
C174 C173 1.390 . S
C174 C175 1.357 . S
C175 C174 1.357 . S
C175 C176 1.370 . S
C175 H201 0.950 . S
C176 N171 1.307 . S
C176 C175 1.370 . S
C176 H194 0.948 . S
Zn177 N171 2.020 . S
Zn177 O186 2.039 . S
Zn177 O192 2.034 . S
Zn177 O196 2.025 . S
Zn177 O198 2.024 1_554 S
C178 O197 1.246 . S
C178 O198 1.249 . S
N179 C180 1.307 . S
N179 C181 1.333 . S
N179 Zn185 2.020 . S
C180 N179 1.307 . S
C180 C184 1.370 . S
C180 H191 0.948 . S
C181 N179 1.333 . S
C181 C182 1.379 . S
C181 H189 0.952 . S
C182 C181 1.379 . S
C182 C183 1.390 . S
C182 H202 0.949 . S
C183 C182 1.390 . S
C183 C184 1.357 . S
C184 C180 1.370 . S
C184 C183 1.357 . S
C184 H203 0.950 . S
Zn185 N179 2.020 . S
Zn185 O188 2.025 . S
Zn185 O193 2.024 . S
Zn185 O195 2.039 . S
Zn185 O197 2.034 1_554 S
O186 C170 1.251 . S
O186 Zn177 2.039 . S
C187 O192 1.246 . S
C187 O193 1.249 . S
O188 C170 1.254 . S
O188 Zn185 2.025 . S
H189 C181 0.952 . S
H190 C172 0.952 . S
H191 C180 0.948 . S
O192 Zn177 2.034 . S
O192 C187 1.246 . S
O193 Zn185 2.024 . S
O193 C187 1.249 . S
H194 C176 0.948 . S
O195 Zn185 2.039 . S
O195 C199 1.251 . S
O196 Zn177 2.025 . S
O196 C199 1.254 . S
O197 C178 1.246 . S
O197 Zn185 2.034 1_556 S
O198 Zn177 2.024 1_556 S
O198 C178 1.249 . S
C199 O195 1.251 . S
C199 O196 1.254 . S
H200 C173 0.949 . S
H201 C175 0.950 . S
H202 C182 0.949 . S
H203 C184 0.950 . S
C204 O220 1.251 . S
C204 O222 1.254 . S
N205 C206 1.333 . S
N205 C210 1.307 . S
N205 Zn211 2.020 . S
C206 N205 1.333 . S
C206 C207 1.379 . S
C206 H224 0.952 . S
C207 C206 1.379 . S
C207 C208 1.390 . S
C207 H234 0.949 . S
C208 C207 1.390 . S
C208 C209 1.357 . S
C209 C208 1.357 . S
C209 C210 1.370 . S
C209 H235 0.950 . S
C210 N205 1.307 . S
C210 C209 1.370 . S
C210 H228 0.948 . S
Zn211 N205 2.020 . S
Zn211 O220 2.039 . S
Zn211 O226 2.034 . S
Zn211 O230 2.025 . S
Zn211 O232 2.024 1_556 S
C212 O231 1.246 . S
C212 O232 1.249 . S
N213 C214 1.307 . S
N213 C215 1.333 . S
N213 Zn219 2.020 . S
C214 N213 1.307 . S
C214 C218 1.370 . S
C214 H225 0.948 . S
C215 N213 1.333 . S
C215 C216 1.379 . S
C215 H223 0.952 . S
C216 C215 1.379 . S
C216 C217 1.390 . S
C216 H236 0.949 . S
C217 C216 1.390 . S
C217 C218 1.357 . S
C218 C214 1.370 . S
C218 C217 1.357 . S
C218 H237 0.950 . S
Zn219 N213 2.020 . S
Zn219 O222 2.025 . S
Zn219 O227 2.024 . S
Zn219 O229 2.039 . S
Zn219 O231 2.034 1_556 S
O220 C204 1.251 . S
O220 Zn211 2.039 . S
C221 O226 1.246 . S
C221 O227 1.249 . S
O222 C204 1.254 . S
O222 Zn219 2.025 . S
H223 C215 0.952 . S
H224 C206 0.952 . S
H225 C214 0.948 . S
O226 Zn211 2.034 . S
O226 C221 1.246 . S
O227 Zn219 2.024 . S
O227 C221 1.249 . S
H228 C210 0.948 . S
O229 Zn219 2.039 . S
O229 C233 1.251 . S
O230 Zn211 2.025 . S
O230 C233 1.254 . S
O231 C212 1.246 . S
O231 Zn219 2.034 1_554 S
O232 Zn211 2.024 1_554 S
O232 C212 1.249 . S
C233 O229 1.251 . S
C233 O230 1.254 . S
H234 C207 0.949 . S
H235 C209 0.950 . S
H236 C216 0.949 . S
H237 C218 0.950 . S
C238 O254 1.251 . S
C238 O256 1.254 . S
N239 C240 1.333 . S
N239 C244 1.307 . S
N239 Zn245 2.020 . S
C240 N239 1.333 . S
C240 C241 1.379 . S
C240 H258 0.952 . S
C241 C240 1.379 . S
C241 C242 1.390 . S
C241 H268 0.949 . S
C242 C241 1.390 . S
C242 C243 1.357 . S
C243 C242 1.357 . S
C243 C244 1.370 . S
C243 H269 0.950 . S
C244 N239 1.307 . S
C244 C243 1.370 . S
C244 H262 0.948 . S
Zn245 N239 2.020 . S
Zn245 O254 2.039 . S
Zn245 O260 2.034 . S
Zn245 O264 2.025 . S
Zn245 O266 2.024 1_556 S
C246 O265 1.246 . S
C246 O266 1.249 . S
N247 C248 1.307 . S
N247 C249 1.333 . S
N247 Zn253 2.020 . S
C248 N247 1.307 . S
C248 C252 1.370 . S
C248 H259 0.948 . S
C249 N247 1.333 . S
C249 C250 1.379 . S
C249 H257 0.952 . S
C250 C249 1.379 . S
C250 C251 1.390 . S
C250 H270 0.949 . S
C251 C250 1.390 . S
C251 C252 1.357 . S
C252 C248 1.370 . S
C252 C251 1.357 . S
C252 H271 0.950 . S
Zn253 N247 2.020 . S
Zn253 O256 2.025 . S
Zn253 O261 2.024 . S
Zn253 O263 2.039 . S
Zn253 O265 2.034 1_556 S
O254 C238 1.251 . S
O254 Zn245 2.039 . S
C255 O260 1.246 . S
C255 O261 1.249 . S
O256 C238 1.254 . S
O256 Zn253 2.025 . S
H257 C249 0.952 . S
H258 C240 0.952 . S
H259 C248 0.948 . S
O260 Zn245 2.034 . S
O260 C255 1.246 . S
O261 Zn253 2.024 . S
O261 C255 1.249 . S
H262 C244 0.948 . S
O263 Zn253 2.039 . S
O263 C267 1.251 . S
O264 Zn245 2.025 . S
O264 C267 1.254 . S
O265 C246 1.246 . S
O265 Zn253 2.034 1_554 S
O266 Zn245 2.024 1_554 S
O266 C246 1.249 . S
C267 O263 1.251 . S
C267 O264 1.254 . S
H268 C241 0.949 . S
H269 C243 0.950 . S
H270 C250 0.949 . S
H271 C252 0.950 . S
C272 C273 1.391 . S
C272 C274 1.394 . S
C272 H288 0.931 . S
C273 C272 1.391 . S
C273 C277 1.376 . S
C274 C272 1.394 . S
C274 C275 1.369 . S
C274 C278 1.531 . S
C275 C274 1.369 . S
C275 C276 1.410 . S
C275 C283 1.503 . S
C276 C275 1.410 . S
C276 C277 1.392 . S
C276 C279 1.511 . S
C277 C273 1.376 . S
C277 C276 1.392 . S
C277 H289 0.929 . S
C278 C274 1.531 . S
C278 H290 0.960 . S
C278 H291 0.962 . S
C278 H292 0.960 . S
C279 C276 1.511 . S
C279 H293 0.961 . S
C279 H294 0.961 . S
C279 H295 0.961 . S
C280 C281 1.370 . S
C280 C282 1.363 . S
C280 H296 0.931 . S
C281 C280 1.370 . S
C281 C285 1.408 . S
C282 C280 1.363 . S
C282 C283 1.370 . S
C282 C286 1.524 . S
C283 C275 1.503 . S
C283 C282 1.370 . S
C283 C284 1.403 . S
C284 C283 1.403 . S
C284 C285 1.404 . S
C284 C287 1.539 . S
C285 C281 1.408 . S
C285 C284 1.404 . S
C285 H297 0.930 . S
C286 C282 1.524 . S
C286 H298 0.956 . S
C286 H299 0.961 . S
C286 H300 0.961 . S
C287 C284 1.539 . S
C287 H301 0.958 . S
C287 H302 0.961 . S
C287 H303 0.960 . S
H288 C272 0.931 . S
H289 C277 0.929 . S
H290 C278 0.960 . S
H291 C278 0.962 . S
H292 C278 0.960 . S
H293 C279 0.961 . S
H294 C279 0.961 . S
H295 C279 0.961 . S
H296 C280 0.931 . S
H297 C285 0.930 . S
H298 C286 0.956 . S
H299 C286 0.961 . S
H300 C286 0.961 . S
H301 C287 0.958 . S
H302 C287 0.961 . S
H303 C287 0.960 . S
C304 C305 1.391 . S
C304 C306 1.394 . S
C304 H320 0.931 . S
C305 C304 1.391 . S
C305 C309 1.376 . S
C306 C304 1.394 . S
C306 C307 1.369 . S
C306 C310 1.531 . S
C307 C306 1.369 . S
C307 C308 1.410 . S
C307 C315 1.503 . S
C308 C307 1.410 . S
C308 C309 1.392 . S
C308 C311 1.511 . S
C309 C305 1.376 . S
C309 C308 1.392 . S
C309 H321 0.929 . S
C310 C306 1.531 . S
C310 H322 0.960 . S
C310 H323 0.962 . S
C310 H324 0.960 . S
C311 C308 1.511 . S
C311 H325 0.961 . S
C311 H326 0.961 . S
C311 H327 0.961 . S
C312 C313 1.370 . S
C312 C314 1.363 . S
C312 H328 0.931 . S
C313 C312 1.370 . S
C313 C317 1.408 . S
C314 C312 1.363 . S
C314 C315 1.370 . S
C314 C318 1.524 . S
C315 C307 1.503 . S
C315 C314 1.370 . S
C315 C316 1.403 . S
C316 C315 1.403 . S
C316 C317 1.404 . S
C316 C319 1.539 . S
C317 C313 1.408 . S
C317 C316 1.404 . S
C317 H329 0.930 . S
C318 C314 1.524 . S
C318 H330 0.956 . S
C318 H331 0.961 . S
C318 H332 0.961 . S
C319 C316 1.539 . S
C319 H333 0.958 . S
C319 H334 0.961 . S
C319 H335 0.960 . S
H320 C304 0.931 . S
H321 C309 0.929 . S
H322 C310 0.960 . S
H323 C310 0.962 . S
H324 C310 0.960 . S
H325 C311 0.961 . S
H326 C311 0.961 . S
H327 C311 0.961 . S
H328 C312 0.931 . S
H329 C317 0.930 . S
H330 C318 0.956 . S
H331 C318 0.961 . S
H332 C318 0.961 . S
H333 C319 0.958 . S
H334 C319 0.961 . S
H335 C319 0.960 . S
C336 C337 1.391 . S
C336 C338 1.394 . S
C336 H352 0.931 . S
C337 C336 1.391 . S
C337 C341 1.376 . S
C338 C336 1.394 . S
C338 C339 1.369 . S
C338 C342 1.531 . S
C339 C338 1.369 . S
C339 C340 1.410 . S
C339 C347 1.503 . S
C340 C339 1.410 . S
C340 C341 1.392 . S
C340 C343 1.511 . S
C341 C337 1.376 . S
C341 C340 1.392 . S
C341 H353 0.929 . S
C342 C338 1.531 . S
C342 H354 0.960 . S
C342 H355 0.962 . S
C342 H356 0.960 . S
C343 C340 1.511 . S
C343 H357 0.961 . S
C343 H358 0.961 . S
C343 H359 0.961 . S
C344 C345 1.370 . S
C344 C346 1.363 . S
C344 H360 0.931 . S
C345 C344 1.370 . S
C345 C349 1.408 . S
C346 C344 1.363 . S
C346 C347 1.370 . S
C346 C350 1.524 . S
C347 C339 1.503 . S
C347 C346 1.370 . S
C347 C348 1.403 . S
C348 C347 1.403 . S
C348 C349 1.404 . S
C348 C351 1.539 . S
C349 C345 1.408 . S
C349 C348 1.404 . S
C349 H361 0.930 . S
C350 C346 1.524 . S
C350 H362 0.956 . S
C350 H363 0.961 . S
C350 H364 0.961 . S
C351 C348 1.539 . S
C351 H365 0.958 . S
C351 H366 0.961 . S
C351 H367 0.960 . S
H352 C336 0.931 . S
H353 C341 0.929 . S
H354 C342 0.960 . S
H355 C342 0.962 . S
H356 C342 0.960 . S
H357 C343 0.961 . S
H358 C343 0.961 . S
H359 C343 0.961 . S
H360 C344 0.931 . S
H361 C349 0.930 . S
H362 C350 0.956 . S
H363 C350 0.961 . S
H364 C350 0.961 . S
H365 C351 0.958 . S
H366 C351 0.961 . S
H367 C351 0.960 . S
C368 C369 1.391 . S
C368 C370 1.394 . S
C368 H384 0.931 . S
C369 C368 1.391 . S
C369 C373 1.376 . S
C370 C368 1.394 . S
C370 C371 1.369 . S
C370 C374 1.531 . S
C371 C370 1.369 . S
C371 C372 1.410 . S
C371 C379 1.503 . S
C372 C371 1.410 . S
C372 C373 1.392 . S
C372 C375 1.511 . S
C373 C369 1.376 . S
C373 C372 1.392 . S
C373 H385 0.929 . S
C374 C370 1.531 . S
C374 H386 0.960 . S
C374 H387 0.962 . S
C374 H388 0.960 . S
C375 C372 1.511 . S
C375 H389 0.961 . S
C375 H390 0.961 . S
C375 H391 0.961 . S
C376 C377 1.370 . S
C376 C378 1.363 . S
C376 H392 0.931 . S
C377 C376 1.370 . S
C377 C381 1.408 . S
C378 C376 1.363 . S
C378 C379 1.370 . S
C378 C382 1.524 . S
C379 C371 1.503 . S
C379 C378 1.370 . S
C379 C380 1.403 . S
C380 C379 1.403 . S
C380 C381 1.404 . S
C380 C383 1.539 . S
C381 C377 1.408 . S
C381 C380 1.404 . S
C381 H393 0.930 . S
C382 C378 1.524 . S
C382 H394 0.956 . S
C382 H395 0.961 . S
C382 H396 0.961 . S
C383 C380 1.539 . S
C383 H397 0.958 . S
C383 H398 0.961 . S
C383 H399 0.960 . S
H384 C368 0.931 . S
H385 C373 0.929 . S
H386 C374 0.960 . S
H387 C374 0.962 . S
H388 C374 0.960 . S
H389 C375 0.961 . S
H390 C375 0.961 . S
H391 C375 0.961 . S
H392 C376 0.931 . S
H393 C381 0.930 . S
H394 C382 0.956 . S
H395 C382 0.961 . S
H396 C382 0.961 . S
H397 C383 0.958 . S
H398 C383 0.961 . S
H399 C383 0.960 . S
C400 C401 1.391 . S
C400 C402 1.394 . S
C400 H416 0.931 . S
C401 C400 1.391 . S
C401 C405 1.376 . S
C402 C400 1.394 . S
C402 C403 1.369 . S
C402 C406 1.531 . S
C403 C402 1.369 . S
C403 C404 1.410 . S
C403 C411 1.503 1_565 S
C404 C403 1.410 . S
C404 C405 1.392 . S
C404 C407 1.511 . S
C405 C401 1.376 . S
C405 C404 1.392 . S
C405 H417 0.929 . S
C406 C402 1.531 . S
C406 H418 0.960 . S
C406 H419 0.962 . S
C406 H420 0.960 . S
C407 C404 1.511 . S
C407 H421 0.961 . S
C407 H422 0.961 1_565 S
C407 H423 0.961 . S
C408 C409 1.370 . S
C408 C410 1.363 . S
C408 H424 0.931 . S
C409 C408 1.370 . S
C409 C413 1.408 . S
C410 C408 1.363 . S
C410 C411 1.370 . S
C410 C414 1.524 . S
C411 C403 1.503 1_545 S
C411 C410 1.370 . S
C411 C412 1.403 . S
C412 C411 1.403 . S
C412 C413 1.404 . S
C412 C415 1.539 . S
C413 C409 1.408 . S
C413 C412 1.404 . S
C413 H425 0.930 . S
C414 C410 1.524 . S
C414 H426 0.956 . S
C414 H427 0.961 . S
C414 H428 0.961 . S
C415 C412 1.539 . S
C415 H429 0.958 . S
C415 H430 0.961 . S
C415 H431 0.960 1_545 S
H416 C400 0.931 . S
H417 C405 0.929 . S
H418 C406 0.960 . S
H419 C406 0.962 . S
H420 C406 0.960 . S
H421 C407 0.961 . S
H422 C407 0.961 1_545 S
H423 C407 0.961 . S
H424 C408 0.931 . S
H425 C413 0.930 . S
H426 C414 0.956 . S
H427 C414 0.961 . S
H428 C414 0.961 . S
H429 C415 0.958 . S
H430 C415 0.961 . S
H431 C415 0.960 1_565 S
C432 C433 1.391 . S
C432 C434 1.394 . S
C432 H448 0.931 . S
C433 C432 1.391 . S
C433 C437 1.376 . S
C434 C432 1.394 . S
C434 C435 1.369 . S
C434 C438 1.531 . S
C435 C434 1.369 . S
C435 C436 1.410 . S
C435 C443 1.503 . S
C436 C435 1.410 . S
C436 C437 1.392 . S
C436 C439 1.511 . S
C437 C433 1.376 . S
C437 C436 1.392 . S
C437 H449 0.929 . S
C438 C434 1.531 . S
C438 H450 0.960 . S
C438 H451 0.962 . S
C438 H452 0.960 . S
C439 C436 1.511 . S
C439 H453 0.961 . S
C439 H454 0.961 . S
C439 H455 0.961 . S
C440 C441 1.370 . S
C440 C442 1.363 . S
C440 H456 0.931 . S
C441 C440 1.370 . S
C441 C445 1.408 . S
C442 C440 1.363 . S
C442 C443 1.370 . S
C442 C446 1.524 . S
C443 C435 1.503 . S
C443 C442 1.370 . S
C443 C444 1.403 . S
C444 C443 1.403 . S
C444 C445 1.404 . S
C444 C447 1.539 . S
C445 C441 1.408 . S
C445 C444 1.404 . S
C445 H457 0.930 . S
C446 C442 1.524 . S
C446 H458 0.956 . S
C446 H459 0.961 . S
C446 H460 0.961 . S
C447 C444 1.539 . S
C447 H461 0.958 . S
C447 H462 0.961 . S
C447 H463 0.960 . S
H448 C432 0.931 . S
H449 C437 0.929 . S
H450 C438 0.960 . S
H451 C438 0.962 . S
H452 C438 0.960 . S
H453 C439 0.961 . S
H454 C439 0.961 . S
H455 C439 0.961 . S
H456 C440 0.931 . S
H457 C445 0.930 . S
H458 C446 0.956 . S
H459 C446 0.961 . S
H460 C446 0.961 . S
H461 C447 0.958 . S
H462 C447 0.961 . S
H463 C447 0.960 . S
C464 C465 1.391 . S
C464 C466 1.394 . S
C464 H480 0.931 . S
C465 C464 1.391 . S
C465 C469 1.376 . S
C466 C464 1.394 . S
C466 C467 1.369 . S
C466 C470 1.531 . S
C467 C466 1.369 . S
C467 C468 1.410 . S
C467 C475 1.503 1_565 S
C468 C467 1.410 . S
C468 C469 1.392 . S
C468 C471 1.511 . S
C469 C465 1.376 . S
C469 C468 1.392 . S
C469 H481 0.929 . S
C470 C466 1.531 . S
C470 H482 0.960 . S
C470 H483 0.962 . S
C470 H484 0.960 . S
C471 C468 1.511 . S
C471 H485 0.961 . S
C471 H486 0.961 1_565 S
C471 H487 0.961 . S
C472 C473 1.370 . S
C472 C474 1.363 . S
C472 H488 0.931 . S
C473 C472 1.370 . S
C473 C477 1.408 . S
C474 C472 1.363 . S
C474 C475 1.370 . S
C474 C478 1.524 . S
C475 C467 1.503 1_545 S
C475 C474 1.370 . S
C475 C476 1.403 . S
C476 C475 1.403 . S
C476 C477 1.404 . S
C476 C479 1.539 . S
C477 C473 1.408 . S
C477 C476 1.404 . S
C477 H489 0.930 . S
C478 C474 1.524 . S
C478 H490 0.956 . S
C478 H491 0.961 . S
C478 H492 0.961 . S
C479 C476 1.539 . S
C479 H493 0.958 . S
C479 H494 0.961 . S
C479 H495 0.960 1_545 S
H480 C464 0.931 . S
H481 C469 0.929 . S
H482 C470 0.960 . S
H483 C470 0.962 . S
H484 C470 0.960 . S
H485 C471 0.961 . S
H486 C471 0.961 1_545 S
H487 C471 0.961 . S
H488 C472 0.931 . S
H489 C477 0.930 . S
H490 C478 0.956 . S
H491 C478 0.961 . S
H492 C478 0.961 . S
H493 C479 0.958 . S
H494 C479 0.961 . S
H495 C479 0.960 1_565 S
C496 C497 1.391 . S
C496 C498 1.394 . S
C496 H512 0.931 . S
C497 C496 1.391 . S
C497 C501 1.376 . S
C498 C496 1.394 . S
C498 C499 1.369 . S
C498 C502 1.531 . S
C499 C498 1.369 . S
C499 C500 1.410 . S
C499 C507 1.503 . S
C500 C499 1.410 . S
C500 C501 1.392 . S
C500 C503 1.511 . S
C501 C497 1.376 . S
C501 C500 1.392 . S
C501 H513 0.929 . S
C502 C498 1.531 . S
C502 H514 0.960 . S
C502 H515 0.962 . S
C502 H516 0.960 . S
C503 C500 1.511 . S
C503 H517 0.961 . S
C503 H518 0.961 . S
C503 H519 0.961 . S
C504 C505 1.370 . S
C504 C506 1.363 . S
C504 H520 0.931 . S
C505 C504 1.370 . S
C505 C509 1.408 . S
C506 C504 1.363 . S
C506 C507 1.370 . S
C506 C510 1.524 . S
C507 C499 1.503 . S
C507 C506 1.370 . S
C507 C508 1.403 . S
C508 C507 1.403 . S
C508 C509 1.404 . S
C508 C511 1.539 . S
C509 C505 1.408 . S
C509 C508 1.404 . S
C509 H521 0.930 . S
C510 C506 1.524 . S
C510 H522 0.956 . S
C510 H523 0.961 . S
C510 H524 0.961 . S
C511 C508 1.539 . S
C511 H525 0.958 . S
C511 H526 0.961 . S
C511 H527 0.960 . S
H512 C496 0.931 . S
H513 C501 0.929 . S
H514 C502 0.960 . S
H515 C502 0.962 . S
H516 C502 0.960 . S
H517 C503 0.961 . S
H518 C503 0.961 . S
H519 C503 0.961 . S
H520 C504 0.931 . S
H521 C509 0.930 . S
H522 C510 0.956 . S
H523 C510 0.961 . S
H524 C510 0.961 . S
H525 C511 0.958 . S
H526 C511 0.961 . S
H527 C511 0.960 . S
C528 C529 1.391 1_556 S
C528 C530 1.394 . S
C528 H544 0.931 . S
C529 C528 1.391 1_554 S
C529 C533 1.376 . S
C530 C528 1.394 . S
C530 C531 1.369 . S
C530 C534 1.531 . S
C531 C530 1.369 . S
C531 C532 1.410 1_556 S
C531 C539 1.503 . S
C532 C531 1.410 1_554 S
C532 C533 1.392 . S
C532 C535 1.511 . S
C533 C529 1.376 . S
C533 C532 1.392 . S
C533 H545 0.929 . S
C534 C530 1.531 . S
C534 H546 0.960 . S
C534 H547 0.962 . S
C534 H548 0.960 . S
C535 C532 1.511 . S
C535 H549 0.961 . S
C535 H550 0.961 . S
C535 H551 0.961 . S
C536 C537 1.370 1_554 S
C536 C538 1.363 . S
C536 H552 0.931 . S
C537 C536 1.370 1_556 S
C537 C541 1.408 . S
C538 C536 1.363 . S
C538 C539 1.370 1_554 S
C538 C542 1.524 . S
C539 C531 1.503 . S
C539 C538 1.370 1_556 S
C539 C540 1.403 . S
C540 C539 1.403 . S
C540 C541 1.404 . S
C540 C543 1.539 . S
C541 C537 1.408 . S
C541 C540 1.404 . S
C541 H553 0.930 . S
C542 C538 1.524 . S
C542 H554 0.956 . S
C542 H555 0.961 . S
C542 H556 0.961 . S
C543 C540 1.539 . S
C543 H557 0.958 . S
C543 H558 0.961 . S
C543 H559 0.960 . S
H544 C528 0.931 . S
H545 C533 0.929 . S
H546 C534 0.960 . S
H547 C534 0.962 . S
H548 C534 0.960 . S
H549 C535 0.961 . S
H550 C535 0.961 . S
H551 C535 0.961 . S
H552 C536 0.931 . S
H553 C541 0.930 . S
H554 C542 0.956 . S
H555 C542 0.961 . S
H556 C542 0.961 . S
H557 C543 0.958 . S
H558 C543 0.961 . S
H559 C543 0.960 . S
C560 C561 1.391 1_556 S
C560 C562 1.394 . S
C560 H576 0.931 . S
C561 C560 1.391 1_554 S
C561 C565 1.376 . S
C562 C560 1.394 . S
C562 C563 1.369 1_556 S
C562 C566 1.531 . S
C563 C562 1.369 1_554 S
C563 C564 1.410 . S
C563 C571 1.503 1_564 S
C564 C563 1.410 . S
C564 C565 1.392 . S
C564 C567 1.511 . S
C565 C561 1.376 . S
C565 C564 1.392 . S
C565 H577 0.929 . S
C566 C562 1.531 . S
C566 H578 0.960 . S
C566 H579 0.962 . S
C566 H580 0.960 . S
C567 C564 1.511 . S
C567 H581 0.961 . S
C567 H582 0.961 1_565 S
C567 H583 0.961 . S
C568 C569 1.370 . S
C568 C570 1.363 1_556 S
C568 H584 0.929 1_556 S
C569 C568 1.370 . S
C569 C573 1.408 . S
C570 C568 1.363 1_554 S
C570 C571 1.370 1_554 S
C570 C574 1.524 . S
C571 C563 1.503 1_546 S
C571 C570 1.370 1_556 S
C571 C572 1.403 . S
C572 C571 1.403 . S
C572 C573 1.404 . S
C572 C575 1.539 . S
C573 C569 1.408 . S
C573 C572 1.404 . S
C573 H585 0.930 . S
C574 C570 1.524 . S
C574 H586 0.956 . S
C574 H587 0.961 . S
C574 H588 0.961 . S
C575 C572 1.539 . S
C575 H589 0.958 . S
C575 H590 0.961 . S
C575 H591 0.960 1_545 S
H576 C560 0.931 . S
H577 C565 0.929 . S
H578 C566 0.960 . S
H579 C566 0.962 . S
H580 C566 0.960 . S
H581 C567 0.961 . S
H582 C567 0.961 1_545 S
H583 C567 0.961 . S
H584 C568 0.929 1_554 S
H585 C573 0.930 . S
H586 C574 0.956 . S
H587 C574 0.961 . S
H588 C574 0.961 . S
H589 C575 0.958 . S
H590 C575 0.961 . S
H591 C575 0.960 1_565 S
C592 C593 1.391 . S
C592 C594 1.394 . S
C592 H608 0.931 . S
C593 C592 1.391 . S
C593 C597 1.376 . S
C594 C592 1.394 . S
C594 C595 1.369 1_556 S
C594 C598 1.531 . S
C595 C594 1.369 1_554 S
C595 C596 1.410 . S
C595 C603 1.503 . S
C596 C595 1.410 . S
C596 C597 1.392 1_554 S
C596 C599 1.511 . S
C597 C593 1.376 . S
C597 C596 1.392 1_556 S
C597 H609 0.929 . S
C598 C594 1.531 . S
C598 H610 0.960 1_556 S
C598 H611 0.962 . S
C598 H612 0.960 . S
C599 C596 1.511 . S
C599 H613 0.961 . S
C599 H614 0.961 . S
C599 H615 0.961 . S
C600 C601 1.370 1_556 S
C600 C602 1.363 . S
C600 H616 0.931 . S
C601 C600 1.370 1_554 S
C601 C605 1.408 . S
C602 C600 1.363 . S
C602 C603 1.370 1_556 S
C602 C606 1.524 . S
C603 C595 1.503 . S
C603 C602 1.370 1_554 S
C603 C604 1.403 . S
C604 C603 1.403 . S
C604 C605 1.404 . S
C604 C607 1.539 . S
C605 C601 1.408 . S
C605 C604 1.404 . S
C605 H617 0.930 . S
C606 C602 1.524 . S
C606 H618 0.956 . S
C606 H619 0.961 . S
C606 H620 0.961 . S
C607 C604 1.539 . S
C607 H621 0.958 . S
C607 H622 0.961 . S
C607 H623 0.960 . S
H608 C592 0.931 . S
H609 C597 0.929 . S
H610 C598 0.960 1_554 S
H611 C598 0.962 . S
H612 C598 0.960 . S
H613 C599 0.961 . S
H614 C599 0.961 . S
H615 C599 0.961 . S
H616 C600 0.931 . S
H617 C605 0.930 . S
H618 C606 0.956 . S
H619 C606 0.961 . S
H620 C606 0.961 . S
H621 C607 0.958 . S
H622 C607 0.961 . S
H623 C607 0.960 . S
C624 C625 1.391 1_554 S
C624 C626 1.394 . S
C624 H640 0.931 . S
C625 C624 1.391 1_556 S
C625 C629 1.376 . S
C626 C624 1.394 . S
C626 C627 1.369 1_554 S
C626 C630 1.531 . S
C627 C626 1.369 1_556 S
C627 C628 1.410 . S
C627 C635 1.503 1_546 S
C628 C627 1.410 . S
C628 C629 1.392 . S
C628 C631 1.511 . S
C629 C625 1.376 . S
C629 C628 1.392 . S
C629 H641 0.929 . S
C630 C626 1.531 . S
C630 H642 0.960 . S
C630 H643 0.962 . S
C630 H644 0.960 . S
C631 C628 1.511 . S
C631 H645 0.961 . S
C631 H646 0.961 1_545 S
C631 H647 0.965 . S
C632 C633 1.370 . S
C632 C634 1.363 . S
C632 H648 0.931 . S
C633 C632 1.370 . S
C633 C637 1.408 . S
C634 C632 1.363 . S
C634 C635 1.370 . S
C634 C638 1.524 1_554 S
C635 C627 1.503 1_564 S
C635 C634 1.370 . S
C635 C636 1.403 . S
C636 C635 1.403 . S
C636 C637 1.404 . S
C636 C639 1.539 . S
C637 C633 1.408 . S
C637 C636 1.404 . S
C637 H649 0.930 . S
C638 C634 1.524 1_556 S
C638 H650 0.933 1_566 S
C638 H651 0.961 . S
C638 H652 0.961 . S
C639 C636 1.539 . S
C639 H653 0.958 . S
C639 H654 0.961 . S
C639 H655 0.971 . S
H640 C624 0.931 . S
H641 C629 0.929 . S
H642 C630 0.960 . S
H643 C630 0.962 . S
H644 C630 0.960 . S
H645 C631 0.961 . S
H646 C631 0.961 1_565 S
H647 C631 0.965 . S
H648 C632 0.931 . S
H649 C637 0.930 . S
H650 C638 0.933 1_544 S
H651 C638 0.961 . S
H652 C638 0.961 . S
H653 C639 0.958 . S
H654 C639 0.961 . S
H655 C639 0.971 . S
C656 C657 1.391 . S
C656 C658 1.394 . S
C656 H672 0.931 . S
C657 C656 1.391 . S
C657 C661 1.376 . S
C658 C656 1.394 . S
C658 C659 1.369 . S
C658 C662 1.531 . S
C659 C658 1.369 . S
C659 C660 1.410 . S
C659 C667 1.503 . S
C660 C659 1.410 . S
C660 C661 1.392 . S
C660 C663 1.511 . S
C661 C657 1.376 . S
C661 C660 1.392 . S
C661 H673 0.929 . S
C662 C658 1.531 . S
C662 H674 0.960 . S
C662 H675 0.962 . S
C662 H676 0.960 . S
C663 C660 1.511 . S
C663 H677 0.961 . S
C663 H678 0.961 . S
C663 H679 0.961 . S
C664 C665 1.370 . S
C664 C666 1.363 . S
C664 H680 0.931 . S
C665 C664 1.370 . S
C665 C669 1.408 . S
C666 C664 1.363 . S
C666 C667 1.370 1_556 S
C666 C670 1.524 1_556 S
C667 C659 1.503 . S
C667 C666 1.370 1_554 S
C667 C668 1.403 1_554 S
C668 C667 1.403 1_556 S
C668 C669 1.404 . S
C668 C671 1.534 1_556 S
C669 C665 1.408 . S
C669 C668 1.404 . S
C669 H681 0.930 . S
C670 C666 1.524 1_554 S
C670 H682 0.956 . S
C670 H683 0.961 . S
C670 H684 0.961 1_554 S
C671 C668 1.534 1_554 S
C671 H685 0.960 . S
C671 H686 0.953 1_554 S
C671 H687 0.971 . S
H672 C656 0.931 . S
H673 C661 0.929 . S
H674 C662 0.960 . S
H675 C662 0.962 . S
H676 C662 0.960 . S
H677 C663 0.961 . S
H678 C663 0.961 . S
H679 C663 0.961 . S
H680 C664 0.931 . S
H681 C669 0.930 . S
H682 C670 0.956 . S
H683 C670 0.961 . S
H684 C670 0.961 1_556 S
H685 C671 0.960 . S
H686 C671 0.953 1_556 S
H687 C671 0.971 . S
C688 C689 1.391 . S
C688 C690 1.394 . S
C688 H704 0.931 . S
C689 C688 1.391 . S
C689 C693 1.376 . S
C690 C688 1.394 . S
C690 C691 1.369 . S
C690 C694 1.531 . S
C691 C690 1.369 . S
C691 C692 1.410 . S
C691 C699 1.503 . S
C692 C691 1.410 . S
C692 C693 1.392 . S
C692 C695 1.511 . S
C693 C689 1.376 . S
C693 C692 1.392 . S
C693 H705 0.929 . S
C694 C690 1.531 . S
C694 H706 0.960 . S
C694 H707 0.962 . S
C694 H708 0.960 . S
C695 C692 1.511 . S
C695 H709 0.961 . S
C695 H710 0.961 . S
C695 H711 0.961 . S
C696 C697 1.370 . S
C696 C698 1.363 . S
C696 H712 0.931 . S
C697 C696 1.370 . S
C697 C701 1.408 . S
C698 C696 1.363 . S
C698 C699 1.370 1_556 S
C698 C702 1.524 1_556 S
C699 C691 1.503 . S
C699 C698 1.370 1_554 S
C699 C700 1.403 1_554 S
C700 C699 1.403 1_556 S
C700 C701 1.404 . S
C700 C703 1.539 1_556 S
C701 C697 1.408 . S
C701 C700 1.404 . S
C701 H713 0.930 . S
C702 C698 1.524 1_554 S
C702 H714 0.956 . S
C702 H715 0.961 . S
C702 H716 0.961 1_554 S
C703 C700 1.539 1_554 S
C703 H717 0.958 . S
C703 H718 0.961 1_554 S
C703 H719 0.960 . S
H704 C688 0.931 . S
H705 C693 0.929 . S
H706 C694 0.960 . S
H707 C694 0.962 . S
H708 C694 0.960 . S
H709 C695 0.961 . S
H710 C695 0.961 . S
H711 C695 0.961 . S
H712 C696 0.931 . S
H713 C701 0.930 . S
H714 C702 0.956 . S
H715 C702 0.961 . S
H716 C702 0.961 1_556 S
H717 C703 0.958 . S
H718 C703 0.961 1_556 S
H719 C703 0.960 . S
C720 C721 1.391 . S
C720 C722 1.394 . S
C720 H736 0.931 . S
C721 C720 1.391 . S
C721 C725 1.376 . S
C722 C720 1.394 . S
C722 C723 1.369 1_554 S
C722 C726 1.531 1_554 S
C723 C722 1.369 1_556 S
C723 C724 1.410 1_556 S
C723 C731 1.503 . S
C724 C723 1.410 1_554 S
C724 C725 1.392 . S
C724 C727 1.511 1_554 S
C725 C721 1.376 . S
C725 C724 1.392 . S
C725 H737 0.929 . S
C726 C722 1.531 1_556 S
C726 H738 0.960 . S
C726 H739 0.962 . S
C726 H740 0.960 1_556 S
C727 C724 1.511 1_556 S
C727 H741 0.961 1_556 S
C727 H742 0.961 . S
C727 H743 0.961 . S
C728 C729 1.370 . S
C728 C730 1.363 . S
C728 H744 0.931 . S
C729 C728 1.370 . S
C729 C733 1.408 . S
C730 C728 1.363 . S
C730 C731 1.370 . S
C730 C734 1.524 . S
C731 C723 1.503 . S
C731 C730 1.370 . S
C731 C732 1.403 . S
C732 C731 1.403 . S
C732 C733 1.404 . S
C732 C735 1.539 . S
C733 C729 1.408 . S
C733 C732 1.404 . S
C733 H745 0.930 . S
C734 C730 1.524 . S
C734 H746 0.956 . S
C734 H747 0.961 . S
C734 H748 0.961 . S
C735 C732 1.539 . S
C735 H749 0.958 . S
C735 H750 0.961 . S
C735 H751 0.960 . S
H736 C720 0.931 . S
H737 C725 0.929 . S
H738 C726 0.960 . S
H739 C726 0.962 . S
H740 C726 0.960 1_554 S
H741 C727 0.961 1_554 S
H742 C727 0.961 . S
H743 C727 0.961 . S
H744 C728 0.931 . S
H745 C733 0.930 . S
H746 C734 0.956 . S
H747 C734 0.961 . S
H748 C734 0.961 . S
H749 C735 0.958 . S
H750 C735 0.961 . S
H751 C735 0.960 . S
C752 C753 1.391 . S
C752 C754 1.394 . S
C752 H768 0.931 . S
C753 C752 1.391 . S
C753 C757 1.376 . S
C754 C752 1.394 . S
C754 C755 1.369 . S
C754 C758 1.531 . S
C755 C754 1.369 . S
C755 C756 1.410 . S
C755 C763 1.503 . S
C756 C755 1.410 . S
C756 C757 1.392 . S
C756 C759 1.511 . S
C757 C753 1.376 . S
C757 C756 1.392 . S
C757 H769 0.929 . S
C758 C754 1.531 . S
C758 H770 0.960 . S
C758 H771 0.962 . S
C758 H772 0.960 . S
C759 C756 1.511 . S
C759 H773 0.961 . S
C759 H774 0.961 . S
C759 H775 0.961 . S
C760 C761 1.370 . S
C760 C762 1.363 . S
C760 H776 0.931 . S
C761 C760 1.370 . S
C761 C765 1.408 . S
C762 C760 1.363 . S
C762 C763 1.370 1_554 S
C762 C766 1.524 1_554 S
C763 C755 1.503 . S
C763 C762 1.370 1_556 S
C763 C764 1.403 1_556 S
C764 C763 1.403 1_554 S
C764 C765 1.404 . S
C764 C767 1.539 1_554 S
C765 C761 1.408 . S
C765 C764 1.404 . S
C765 H777 0.930 . S
C766 C762 1.524 1_556 S
C766 H778 0.956 . S
C766 H779 0.961 . S
C766 H780 0.961 1_556 S
C767 C764 1.539 1_556 S
C767 H781 0.958 . S
C767 H782 0.961 1_556 S
C767 H783 0.960 . S
H768 C752 0.931 . S
H769 C757 0.929 . S
H770 C758 0.960 . S
H771 C758 0.962 . S
H772 C758 0.960 . S
H773 C759 0.961 . S
H774 C759 0.961 . S
H775 C759 0.961 . S
H776 C760 0.931 . S
H777 C765 0.930 . S
H778 C766 0.956 . S
H779 C766 0.961 . S
H780 C766 0.961 1_554 S
H781 C767 0.958 . S
H782 C767 0.961 1_554 S
H783 C767 0.960 . S
C784 C785 1.391 . S
C784 C786 1.394 . S
C784 H800 0.931 . S
C785 C784 1.391 . S
C785 C789 1.376 . S
C786 C784 1.394 . S
C786 C787 1.369 . S
C786 C790 1.531 . S
C787 C786 1.369 . S
C787 C788 1.410 . S
C787 C795 1.503 . S
C788 C787 1.410 . S
C788 C789 1.392 . S
C788 C791 1.511 . S
C789 C785 1.376 . S
C789 C788 1.392 . S
C789 H801 0.929 . S
C790 C786 1.531 . S
C790 H802 0.960 . S
C790 H803 0.962 . S
C790 H804 0.960 . S
C791 C788 1.511 . S
C791 H805 0.961 . S
C791 H806 0.961 . S
C791 H807 0.961 . S
C792 C793 1.370 . S
C792 C794 1.363 . S
C792 H808 0.931 . S
C793 C792 1.370 . S
C793 C797 1.408 . S
C794 C792 1.363 . S
C794 C795 1.370 . S
C794 C798 1.524 . S
C795 C787 1.503 . S
C795 C794 1.370 . S
C795 C796 1.403 . S
C796 C795 1.403 . S
C796 C797 1.404 . S
C796 C799 1.539 . S
C797 C793 1.408 . S
C797 C796 1.404 . S
C797 H809 0.930 . S
C798 C794 1.524 . S
C798 H810 0.956 . S
C798 H811 0.961 . S
C798 H812 0.961 . S
C799 C796 1.539 . S
C799 H813 0.958 . S
C799 H814 0.961 . S
C799 H815 0.960 . S
H800 C784 0.931 . S
H801 C789 0.929 . S
H802 C790 0.960 . S
H803 C790 0.962 . S
H804 C790 0.960 . S
H805 C791 0.961 . S
H806 C791 0.961 . S
H807 C791 0.961 . S
H808 C792 0.931 . S
H809 C797 0.930 . S
H810 C798 0.956 . S
H811 C798 0.961 . S
H812 C798 0.961 . S
H813 C799 0.958 . S
H814 C799 0.961 . S
H815 C799 0.960 . S
C816 C817 1.391 . S
C816 C818 1.394 . S
C816 H832 0.931 . S
C817 C816 1.391 . S
C817 C821 1.376 . S
C818 C816 1.394 . S
C818 C819 1.369 . S
C818 C822 1.531 . S
C819 C818 1.369 . S
C819 C820 1.410 . S
C819 C827 1.503 . S
C820 C819 1.410 . S
C820 C821 1.392 . S
C820 C823 1.511 . S
C821 C817 1.376 . S
C821 C820 1.392 . S
C821 H833 0.929 . S
C822 C818 1.531 . S
C822 H834 0.960 . S
C822 H835 0.962 . S
C822 H836 0.960 . S
C823 C820 1.511 . S
C823 H837 0.961 . S
C823 H838 0.961 . S
C823 H839 0.961 . S
C824 C825 1.370 . S
C824 C826 1.363 . S
C824 H840 0.931 . S
C825 C824 1.370 . S
C825 C829 1.408 . S
C826 C824 1.363 . S
C826 C827 1.370 . S
C826 C830 1.524 . S
C827 C819 1.503 . S
C827 C826 1.370 . S
C827 C828 1.403 . S
C828 C827 1.403 . S
C828 C829 1.404 . S
C828 C831 1.539 . S
C829 C825 1.408 . S
C829 C828 1.404 . S
C829 H841 0.930 . S
C830 C826 1.524 . S
C830 H842 0.956 . S
C830 H843 0.961 . S
C830 H844 0.961 . S
C831 C828 1.539 . S
C831 H845 0.958 . S
C831 H846 0.961 . S
C831 H847 0.960 . S
H832 C816 0.931 . S
H833 C821 0.929 . S
H834 C822 0.960 . S
H835 C822 0.962 . S
H836 C822 0.960 . S
H837 C823 0.961 . S
H838 C823 0.961 . S
H839 C823 0.961 . S
H840 C824 0.931 . S
H841 C829 0.930 . S
H842 C830 0.956 . S
H843 C830 0.961 . S
H844 C830 0.961 . S
H845 C831 0.958 . S
H846 C831 0.961 . S
H847 C831 0.960 . S
C848 C849 1.391 . S
C848 C850 1.394 . S
C848 H864 0.931 . S
C849 C848 1.391 . S
C849 C853 1.376 . S
C850 C848 1.394 . S
C850 C851 1.369 . S
C850 C854 1.531 . S
C851 C850 1.369 . S
C851 C852 1.410 . S
C851 C859 1.503 . S
C852 C851 1.410 . S
C852 C853 1.392 . S
C852 C855 1.511 . S
C853 C849 1.376 . S
C853 C852 1.392 . S
C853 H865 0.929 . S
C854 C850 1.531 . S
C854 H866 0.960 . S
C854 H867 0.962 . S
C854 H868 0.960 . S
C855 C852 1.511 . S
C855 H869 0.961 . S
C855 H870 0.961 . S
C855 H871 0.961 . S
C856 C857 1.370 . S
C856 C858 1.363 . S
C856 H872 0.931 . S
C857 C856 1.370 . S
C857 C861 1.408 . S
C858 C856 1.363 . S
C858 C859 1.370 . S
C858 C862 1.524 . S
C859 C851 1.503 . S
C859 C858 1.370 . S
C859 C860 1.403 . S
C860 C859 1.403 . S
C860 C861 1.404 . S
C860 C863 1.539 . S
C861 C857 1.408 . S
C861 C860 1.404 . S
C861 H873 0.930 . S
C862 C858 1.524 . S
C862 H874 0.956 . S
C862 H875 0.961 . S
C862 H876 0.961 . S
C863 C860 1.539 . S
C863 H877 0.958 . S
C863 H878 0.961 . S
C863 H879 0.960 . S
H864 C848 0.931 . S
H865 C853 0.929 . S
H866 C854 0.960 . S
H867 C854 0.962 . S
H868 C854 0.960 . S
H869 C855 0.961 . S
H870 C855 0.961 . S
H871 C855 0.961 . S
H872 C856 0.931 . S
H873 C861 0.930 . S
H874 C862 0.956 . S
H875 C862 0.961 . S
H876 C862 0.961 . S
H877 C863 0.958 . S
H878 C863 0.961 . S
H879 C863 0.960 . S
C880 C881 1.391 . S
C880 C882 1.394 . S
C880 H896 0.931 . S
C881 C880 1.391 . S
C881 C885 1.376 . S
C882 C880 1.394 . S
C882 C883 1.369 . S
C882 C886 1.531 . S
C883 C882 1.369 . S
C883 C884 1.410 . S
C883 C891 1.503 . S
C884 C883 1.410 . S
C884 C885 1.392 . S
C884 C887 1.511 . S
C885 C881 1.376 . S
C885 C884 1.392 . S
C885 H897 0.929 . S
C886 C882 1.531 . S
C886 H898 0.960 . S
C886 H899 0.962 . S
C886 H900 0.960 . S
C887 C884 1.511 . S
C887 H901 0.961 . S
C887 H902 0.961 . S
C887 H903 0.961 . S
C888 C889 1.370 . S
C888 C890 1.363 . S
C888 H904 0.931 . S
C889 C888 1.370 . S
C889 C893 1.408 . S
C890 C888 1.363 . S
C890 C891 1.370 . S
C890 C894 1.524 . S
C891 C883 1.503 . S
C891 C890 1.370 . S
C891 C892 1.403 . S
C892 C891 1.403 . S
C892 C893 1.404 . S
C892 C895 1.539 . S
C893 C889 1.408 . S
C893 C892 1.404 . S
C893 H905 0.930 . S
C894 C890 1.524 . S
C894 H906 0.956 . S
C894 H907 0.961 . S
C894 H908 0.961 . S
C895 C892 1.539 . S
C895 H909 0.958 . S
C895 H910 0.961 . S
C895 H911 0.960 . S
H896 C880 0.931 . S
H897 C885 0.929 . S
H898 C886 0.960 . S
H899 C886 0.962 . S
H900 C886 0.960 . S
H901 C887 0.961 . S
H902 C887 0.961 . S
H903 C887 0.961 . S
H904 C888 0.931 . S
H905 C893 0.930 . S
H906 C894 0.956 . S
H907 C894 0.961 . S
H908 C894 0.961 . S
H909 C895 0.958 . S
H910 C895 0.961 . S
H911 C895 0.960 . S
C912 C913 1.391 . S
C912 C914 1.394 . S
C912 H928 0.931 . S
C913 C912 1.391 . S
C913 C917 1.376 . S
C914 C912 1.394 . S
C914 C915 1.369 . S
C914 C918 1.531 . S
C915 C914 1.369 . S
C915 C916 1.410 . S
C915 C923 1.503 1_455 S
C916 C915 1.410 . S
C916 C917 1.392 . S
C916 C919 1.511 . S
C917 C913 1.376 . S
C917 C916 1.392 . S
C917 H929 0.929 . S
C918 C914 1.531 . S
C918 H930 0.960 1_455 S
C918 H931 0.962 . S
C918 H932 0.960 . S
C919 C916 1.511 . S
C919 H933 0.961 . S
C919 H934 0.961 1_455 S
C919 H935 0.961 . S
C920 C921 1.370 . S
C920 C922 1.363 . S
C920 H936 0.931 . S
C921 C920 1.370 . S
C921 C925 1.408 . S
C922 C920 1.363 . S
C922 C923 1.370 . S
C922 C926 1.524 . S
C923 C915 1.503 1_655 S
C923 C922 1.370 . S
C923 C924 1.403 . S
C924 C923 1.403 . S
C924 C925 1.404 . S
C924 C927 1.539 . S
C925 C921 1.408 . S
C925 C924 1.404 . S
C925 H937 0.930 . S
C926 C922 1.524 . S
C926 H938 0.954 1_655 S
C926 H939 0.961 1_655 S
C926 H940 0.961 . S
C927 C924 1.539 . S
C927 H941 0.958 . S
C927 H942 0.961 . S
C927 H943 0.960 . S
H928 C912 0.931 . S
H929 C917 0.929 . S
H930 C918 0.960 1_655 S
H931 C918 0.962 . S
H932 C918 0.960 . S
H933 C919 0.961 . S
H934 C919 0.961 1_655 S
H935 C919 0.961 . S
H936 C920 0.931 . S
H937 C925 0.930 . S
H938 C926 0.954 1_455 S
H939 C926 0.961 1_455 S
H940 C926 0.961 . S
H941 C927 0.958 . S
H942 C927 0.961 . S
H943 C927 0.960 . S
C944 C945 1.391 . S
C944 C946 1.394 . S
C944 H960 0.931 . S
C945 C944 1.391 . S
C945 C949 1.376 . S
C946 C944 1.394 . S
C946 C947 1.369 . S
C946 C950 1.531 . S
C947 C946 1.369 . S
C947 C948 1.410 . S
C947 C955 1.503 1_655 S
C948 C947 1.410 . S
C948 C949 1.392 . S
C948 C951 1.511 . S
C949 C945 1.376 . S
C949 C948 1.392 . S
C949 H961 0.929 . S
C950 C946 1.531 . S
C950 H962 0.920 1_655 S
C950 H963 0.962 . S
C950 H964 0.960 . S
C951 C948 1.511 . S
C951 H965 0.961 . S
C951 H966 0.961 1_655 S
C951 H967 0.961 . S
C952 C953 1.370 . S
C952 C954 1.363 . S
C952 H968 0.931 . S
C953 C952 1.370 . S
C953 C957 1.408 . S
C954 C952 1.363 . S
C954 C955 1.370 . S
C954 C958 1.524 . S
C955 C947 1.503 1_455 S
C955 C954 1.370 . S
C955 C956 1.403 . S
C956 C955 1.403 . S
C956 C957 1.404 . S
C956 C959 1.539 . S
C957 C953 1.408 . S
C957 C956 1.404 . S
C957 H969 0.930 . S
C958 C954 1.524 . S
C958 H970 0.963 . S
C958 H971 0.961 1_455 S
C958 H972 0.961 . S
C959 C956 1.539 . S
C959 H973 0.958 . S
C959 H974 0.961 . S
C959 H975 0.996 . S
H960 C944 0.931 . S
H961 C949 0.929 . S
H962 C950 0.920 1_455 S
H963 C950 0.962 . S
H964 C950 0.960 . S
H965 C951 0.961 . S
H966 C951 0.961 1_455 S
H967 C951 0.961 . S
H968 C952 0.931 . S
H969 C957 0.930 . S
H970 C958 0.963 . S
H971 C958 0.961 1_655 S
H972 C958 0.961 . S
H973 C959 0.958 . S
H974 C959 0.961 . S
H975 C959 0.996 . S
C976 C977 1.391 . S
C976 C978 1.394 . S
C976 H992 0.931 . S
C977 C976 1.391 . S
C977 C981 1.376 1_554 S
C978 C976 1.394 . S
C978 C979 1.369 . S
C978 C982 1.531 . S
C979 C978 1.369 . S
C979 C980 1.410 1_554 S
C979 C987 1.503 . S
C980 C979 1.410 1_556 S
C980 C981 1.392 . S
C980 C983 1.511 . S
C981 C977 1.376 1_556 S
C981 C980 1.392 . S
C981 H993 0.929 . S
C982 C978 1.531 . S
C982 H994 0.960 . S
C982 H995 0.962 . S
C982 H996 0.960 . S
C983 C980 1.511 . S
C983 H997 0.961 . S
C983 H998 0.961 . S
C983 H999 0.961 . S
C984 C985 1.370 . S
C984 C986 1.363 . S
C984 H1000 0.931 . S
C985 C984 1.370 . S
C985 C989 1.408 1_554 S
C986 C984 1.363 . S
C986 C987 1.370 . S
C986 C990 1.524 . S
C987 C979 1.503 . S
C987 C986 1.370 . S
C987 C988 1.403 1_554 S
C988 C987 1.403 1_556 S
C988 C989 1.404 . S
C988 C991 1.539 . S
C989 C985 1.408 1_556 S
C989 C988 1.404 . S
C989 H1001 0.930 . S
C990 C986 1.524 . S
C990 H1002 0.956 . S
C990 H1003 0.961 . S
C990 H1004 0.961 . S
C991 C988 1.539 . S
C991 H1005 0.958 . S
C991 H1006 0.961 . S
C991 H1007 0.960 . S
H992 C976 0.931 . S
H993 C981 0.929 . S
H994 C982 0.960 . S
H995 C982 0.962 . S
H996 C982 0.960 . S
H997 C983 0.961 . S
H998 C983 0.961 . S
H999 C983 0.961 . S
H1000 C984 0.931 . S
H1001 C989 0.930 . S
H1002 C990 0.956 . S
H1003 C990 0.961 . S
H1004 C990 0.961 . S
H1005 C991 0.958 . S
H1006 C991 0.961 . S
H1007 C991 0.960 . S
C1008 C1009 1.391 . S
C1008 C1010 1.394 . S
C1008 H1024 0.931 . S
C1009 C1008 1.391 . S
C1009 C1013 1.376 1_556 S
C1010 C1008 1.394 . S
C1010 C1011 1.369 . S
C1010 C1014 1.531 . S
C1011 C1010 1.369 . S
C1011 C1012 1.410 . S
C1011 C1019 1.503 . S
C1012 C1011 1.410 . S
C1012 C1013 1.392 1_556 S
C1012 C1015 1.511 1_556 S
C1013 C1009 1.376 1_554 S
C1013 C1012 1.392 1_554 S
C1013 H1025 0.929 . S
C1014 C1010 1.531 . S
C1014 H1026 0.960 . S
C1014 H1027 0.962 . S
C1014 H1028 0.960 . S
C1015 C1012 1.511 1_554 S
C1015 H1029 0.961 . S
C1015 H1030 0.961 . S
C1015 H1031 0.960 . S
C1016 C1017 1.370 1_554 S
C1016 C1018 1.363 . S
C1016 H1032 0.931 . S
C1017 C1016 1.370 1_556 S
C1017 C1021 1.408 . S
C1018 C1016 1.363 . S
C1018 C1019 1.370 1_554 S
C1018 C1022 1.524 . S
C1019 C1011 1.503 . S
C1019 C1018 1.370 1_556 S
C1019 C1020 1.403 . S
C1020 C1019 1.403 . S
C1020 C1021 1.404 . S
C1020 C1023 1.539 . S
C1021 C1017 1.408 . S
C1021 C1020 1.404 . S
C1021 H1033 0.930 . S
C1022 C1018 1.524 . S
C1022 H1034 0.956 . S
C1022 H1035 0.961 . S
C1022 H1036 0.961 . S
C1023 C1020 1.539 . S
C1023 H1037 0.958 . S
C1023 H1038 0.961 . S
C1023 H1039 0.960 . S
H1024 C1008 0.931 . S
H1025 C1013 0.929 . S
H1026 C1014 0.960 . S
H1027 C1014 0.962 . S
H1028 C1014 0.960 . S
H1029 C1015 0.961 . S
H1030 C1015 0.961 . S
H1031 C1015 0.960 . S
H1032 C1016 0.931 . S
H1033 C1021 0.930 . S
H1034 C1022 0.956 . S
H1035 C1022 0.961 . S
H1036 C1022 0.961 . S
H1037 C1023 0.958 . S
H1038 C1023 0.961 . S
H1039 C1023 0.960 . S
C273 C0 1.709 . S
C281 C267 1.693 . S
C305 C233 1.711 . S
C313 C63 1.693 . S
C337 C199 1.681 . S
C345 C97 1.709 . S
C369 C136 1.711 . S
C377 C131 1.692 . S
C401 C72 1.664 . S
C409 C4 1.685 . S
C433 C38 1.566 . S
C441 C106 1.591 . S
C465 C115 1.561 . S
C473 C47 1.576 . S
C497 C81 1.488 . S
C505 C13 1.472 . S
C529 C140 1.671 . S
C537 C208 1.682 . S
C561 C174 1.568 . S
C569 C242 1.589 . S
C593 C251 1.564 . S
C601 C183 1.580 . S
C625 C217 1.461 . S
C633 C149 1.482 . S
C657 C17 1.171 . S
C665 C8 1.182 . S
C689 C42 1.175 . S
C697 C51 1.180 . S
C721 C85 1.182 . S
C729 C76 1.177 . S
C753 C110 1.177 . S
C761 C119 1.179 . S
C785 C144 1.177 . S
C793 C153 1.179 . S
C817 C178 1.175 . S
C825 C187 1.180 . S
C849 C212 1.179 . S
C857 C221 1.179 . S
C881 C246 1.174 . S
C889 C255 1.180 . S
C913 C29 1.605 . S
C921 C34 1.603 . S
C945 C102 1.587 . S
C953 C68 1.597 . S
C977 C165 1.607 . S
C985 C170 1.605 . S
C1009 C238 1.588 . S
C1017 C204 1.598 . S
