# Generated by pormake.
# Topology vbb, (4)-cn, num edge types: 1
# Building blocks:
#     Node 0, Type 0, BuildingBlock: KOZSID_clean_sbu_0, # of connection points: 4
#     Node 1, Type 0, BuildingBlock: KOZSID_clean_sbu_0, # of connection points: 4
#     Node 2, Type 0, BuildingBlock: KOZSID_clean_sbu_0, # of connection points: 4
#     Node 3, Type 0, BuildingBlock: KOZSID_clean_sbu_0, # of connection points: 4
#     Node 4, Type 0, BuildingBlock: KOZSID_clean_sbu_0, # of connection points: 4
#     Node 5, Type 0, BuildingBlock: KOZSID_clean_sbu_0, # of connection points: 4
#     Node 6, Type 0, BuildingBlock: KOZSID_clean_sbu_0, # of connection points: 4
#     Node 7, Type 0, BuildingBlock: KOZSID_clean_sbu_0, # of connection points: 4
#     Node 8, Type 0, BuildingBlock: KOZSID_clean_sbu_0, # of connection points: 4
#     Node 9, Type 0, BuildingBlock: KOZSID_clean_sbu_0, # of connection points: 4
#     Node 10, Type 0, BuildingBlock: KOZSID_clean_sbu_0, # of connection points: 4
#     Node 11, Type 0, BuildingBlock: KOZSID_clean_sbu_0, # of connection points: 4
#     Node 12, Type 0, BuildingBlock: KOZSID_clean_sbu_0, # of connection points: 4
#     Node 13, Type 0, BuildingBlock: KOZSID_clean_sbu_0, # of connection points: 4
#     Node 14, Type 0, BuildingBlock: KOZSID_clean_sbu_0, # of connection points: 4
#     Node 15, Type 0, BuildingBlock: KOZSID_clean_sbu_0, # of connection points: 4
#     Node 16, Type 0, BuildingBlock: KOZSID_clean_sbu_0, # of connection points: 4
#     Node 17, Type 0, BuildingBlock: KOZSID_clean_sbu_0, # of connection points: 4
#     Node 18, Type 0, BuildingBlock: KOZSID_clean_sbu_0, # of connection points: 4
#     Node 19, Type 0, BuildingBlock: KOZSID_clean_sbu_0, # of connection points: 4
#     Node 20, Type 0, BuildingBlock: KOZSID_clean_sbu_0, # of connection points: 4
#     Node 21, Type 0, BuildingBlock: KOZSID_clean_sbu_0, # of connection points: 4
#     Node 22, Type 0, BuildingBlock: KOZSID_clean_sbu_0, # of connection points: 4
#     Node 23, Type 0, BuildingBlock: KOZSID_clean_sbu_0, # of connection points: 4
#     Node 24, Type 0, BuildingBlock: KOZSID_clean_sbu_0, # of connection points: 4
#     Node 25, Type 0, BuildingBlock: KOZSID_clean_sbu_0, # of connection points: 4
#     Node 26, Type 0, BuildingBlock: KOZSID_clean_sbu_0, # of connection points: 4
#     Node 27, Type 0, BuildingBlock: KOZSID_clean_sbu_0, # of connection points: 4
#     Node 28, Type 0, BuildingBlock: KOZSID_clean_sbu_0, # of connection points: 4
#     Node 29, Type 0, BuildingBlock: KOZSID_clean_sbu_0, # of connection points: 4
#     Node 30, Type 0, BuildingBlock: KOZSID_clean_sbu_0, # of connection points: 4
#     Node 31, Type 0, BuildingBlock: KOZSID_clean_sbu_0, # of connection points: 4
#     Edge 32, Type (0, 0), BuildingBlock: AJUNOK_clean_linker_0, # of connection points: 2
#     Edge 33, Type (0, 0), BuildingBlock: AJUNOK_clean_linker_0, # of connection points: 2
#     Edge 34, Type (0, 0), BuildingBlock: AJUNOK_clean_linker_0, # of connection points: 2
#     Edge 35, Type (0, 0), BuildingBlock: AJUNOK_clean_linker_0, # of connection points: 2
#     Edge 36, Type (0, 0), BuildingBlock: AJUNOK_clean_linker_0, # of connection points: 2
#     Edge 37, Type (0, 0), BuildingBlock: AJUNOK_clean_linker_0, # of connection points: 2
#     Edge 38, Type (0, 0), BuildingBlock: AJUNOK_clean_linker_0, # of connection points: 2
#     Edge 39, Type (0, 0), BuildingBlock: AJUNOK_clean_linker_0, # of connection points: 2
#     Edge 40, Type (0, 0), BuildingBlock: AJUNOK_clean_linker_0, # of connection points: 2
#     Edge 41, Type (0, 0), BuildingBlock: AJUNOK_clean_linker_0, # of connection points: 2
#     Edge 42, Type (0, 0), BuildingBlock: AJUNOK_clean_linker_0, # of connection points: 2
#     Edge 43, Type (0, 0), BuildingBlock: AJUNOK_clean_linker_0, # of connection points: 2
#     Edge 44, Type (0, 0), BuildingBlock: AJUNOK_clean_linker_0, # of connection points: 2
#     Edge 45, Type (0, 0), BuildingBlock: AJUNOK_clean_linker_0, # of connection points: 2
#     Edge 46, Type (0, 0), BuildingBlock: AJUNOK_clean_linker_0, # of connection points: 2
#     Edge 47, Type (0, 0), BuildingBlock: AJUNOK_clean_linker_0, # of connection points: 2
#     Edge 48, Type (0, 0), BuildingBlock: AJUNOK_clean_linker_0, # of connection points: 2
#     Edge 49, Type (0, 0), BuildingBlock: AJUNOK_clean_linker_0, # of connection points: 2
#     Edge 50, Type (0, 0), BuildingBlock: AJUNOK_clean_linker_0, # of connection points: 2
#     Edge 51, Type (0, 0), BuildingBlock: AJUNOK_clean_linker_0, # of connection points: 2
#     Edge 52, Type (0, 0), BuildingBlock: AJUNOK_clean_linker_0, # of connection points: 2
#     Edge 53, Type (0, 0), BuildingBlock: AJUNOK_clean_linker_0, # of connection points: 2
#     Edge 54, Type (0, 0), BuildingBlock: AJUNOK_clean_linker_0, # of connection points: 2
#     Edge 55, Type (0, 0), BuildingBlock: AJUNOK_clean_linker_0, # of connection points: 2
#     Edge 56, Type (0, 0), BuildingBlock: AJUNOK_clean_linker_0, # of connection points: 2
#     Edge 57, Type (0, 0), BuildingBlock: AJUNOK_clean_linker_0, # of connection points: 2
#     Edge 58, Type (0, 0), BuildingBlock: AJUNOK_clean_linker_0, # of connection points: 2
#     Edge 59, Type (0, 0), BuildingBlock: AJUNOK_clean_linker_0, # of connection points: 2
#     Edge 60, Type (0, 0), BuildingBlock: AJUNOK_clean_linker_0, # of connection points: 2
#     Edge 61, Type (0, 0), BuildingBlock: AJUNOK_clean_linker_0, # of connection points: 2
#     Edge 62, Type (0, 0), BuildingBlock: AJUNOK_clean_linker_0, # of connection points: 2
#     Edge 63, Type (0, 0), BuildingBlock: AJUNOK_clean_linker_0, # of connection points: 2
#     Edge 64, Type (0, 0), BuildingBlock: AJUNOK_clean_linker_0, # of connection points: 2
#     Edge 65, Type (0, 0), BuildingBlock: AJUNOK_clean_linker_0, # of connection points: 2
#     Edge 66, Type (0, 0), BuildingBlock: AJUNOK_clean_linker_0, # of connection points: 2
#     Edge 67, Type (0, 0), BuildingBlock: AJUNOK_clean_linker_0, # of connection points: 2
#     Edge 68, Type (0, 0), BuildingBlock: AJUNOK_clean_linker_0, # of connection points: 2
#     Edge 69, Type (0, 0), BuildingBlock: AJUNOK_clean_linker_0, # of connection points: 2
#     Edge 70, Type (0, 0), BuildingBlock: AJUNOK_clean_linker_0, # of connection points: 2
#     Edge 71, Type (0, 0), BuildingBlock: AJUNOK_clean_linker_0, # of connection points: 2
#     Edge 72, Type (0, 0), BuildingBlock: AJUNOK_clean_linker_0, # of connection points: 2
#     Edge 73, Type (0, 0), BuildingBlock: AJUNOK_clean_linker_0, # of connection points: 2
#     Edge 74, Type (0, 0), BuildingBlock: AJUNOK_clean_linker_0, # of connection points: 2
#     Edge 75, Type (0, 0), BuildingBlock: AJUNOK_clean_linker_0, # of connection points: 2
#     Edge 76, Type (0, 0), BuildingBlock: AJUNOK_clean_linker_0, # of connection points: 2
#     Edge 77, Type (0, 0), BuildingBlock: AJUNOK_clean_linker_0, # of connection points: 2
#     Edge 78, Type (0, 0), BuildingBlock: AJUNOK_clean_linker_0, # of connection points: 2
#     Edge 79, Type (0, 0), BuildingBlock: AJUNOK_clean_linker_0, # of connection points: 2
#     Edge 80, Type (0, 0), BuildingBlock: AJUNOK_clean_linker_0, # of connection points: 2
#     Edge 81, Type (0, 0), BuildingBlock: AJUNOK_clean_linker_0, # of connection points: 2
#     Edge 82, Type (0, 0), BuildingBlock: AJUNOK_clean_linker_0, # of connection points: 2
#     Edge 83, Type (0, 0), BuildingBlock: AJUNOK_clean_linker_0, # of connection points: 2
#     Edge 84, Type (0, 0), BuildingBlock: AJUNOK_clean_linker_0, # of connection points: 2
#     Edge 85, Type (0, 0), BuildingBlock: AJUNOK_clean_linker_0, # of connection points: 2
#     Edge 86, Type (0, 0), BuildingBlock: AJUNOK_clean_linker_0, # of connection points: 2
#     Edge 87, Type (0, 0), BuildingBlock: AJUNOK_clean_linker_0, # of connection points: 2
#     Edge 88, Type (0, 0), BuildingBlock: AJUNOK_clean_linker_0, # of connection points: 2
#     Edge 89, Type (0, 0), BuildingBlock: AJUNOK_clean_linker_0, # of connection points: 2
#     Edge 90, Type (0, 0), BuildingBlock: AJUNOK_clean_linker_0, # of connection points: 2
#     Edge 91, Type (0, 0), BuildingBlock: AJUNOK_clean_linker_0, # of connection points: 2
#     Edge 92, Type (0, 0), BuildingBlock: AJUNOK_clean_linker_0, # of connection points: 2
#     Edge 93, Type (0, 0), BuildingBlock: AJUNOK_clean_linker_0, # of connection points: 2
#     Edge 94, Type (0, 0), BuildingBlock: AJUNOK_clean_linker_0, # of connection points: 2
#     Edge 95, Type (0, 0), BuildingBlock: AJUNOK_clean_linker_0, # of connection points: 2
# Relax obj value: 0.043
# Max RMSD: 0.156
# Mean RMSD: 0.155
data_MOF--net-vbb--node1-KOZSID_clean_sbu_0--edge1-AJUNOK_clean_linker_0
_symmetry_space_group_name_H-M    P1
_symmetry_Int_Tables_number       1
_symmetry_cell_setting            triclinic
loop_
_symmetry_equiv_pos_as_xyz
'x, y, z'
_cell_length_a     52.200621
_cell_length_b     32.21916
_cell_length_c     95.156397
_cell_angle_alpha  89.730549
_cell_angle_beta   89.97804
_cell_angle_gamma 89.989459
loop_
_atom_site_label
_atom_site_type_symbol
_atom_site_fract_x
_atom_site_fract_y
_atom_site_fract_z
_atom_type_partial_charge
C0 C 0.50816 0.10681 0.08775 0.0
C1 C 0.49795 0.14629 0.08969 0.0
C2 C 0.48281 0.15449 0.07833 0.0
C3 C 0.48524 0.12045 0.06987 0.0
N4 N 0.50111 0.0913 0.07516 0.0
Co5 Co 0.51413 0.04158 0.06523 0.0
N6 N 0.50419 0.06554 0.04676 0.0
C7 C 0.48715 0.09634 0.04462 0.0
C8 C 0.48342 0.10579 0.03073 0.0
C9 C 0.49885 0.07897 0.02361 0.0
C10 C 0.51118 0.05449 0.03364 0.0
N11 N 0.52678 0.99197 0.05514 0.0
C12 C 0.53135 0.98649 0.04123 0.0
C13 C 0.53929 0.94615 0.03863 0.0
C14 C 0.53926 0.92573 0.05136 0.0
C15 C 0.53136 0.95464 0.06102 0.0
N16 N 0.52404 0.01894 0.08385 0.0
C17 C 0.52902 0.97885 0.08673 0.0
C18 C 0.53508 0.97239 0.10063 0.0
C19 C 0.5337 0.01085 0.10683 0.0
C20 C 0.52696 0.03881 0.09634 0.0
N21 N 0.48007 0.01341 0.06678 0.0
C22 C 0.43852 0.95628 0.06932 0.0
C23 C 0.44804 0.97791 0.08104 0.0
C24 C 0.46842 0.00669 0.07952 0.0
C25 C 0.44967 0.96559 0.05626 0.0
C26 C 0.47011 0.99386 0.05522 0.0
N27 N 0.54884 0.06687 0.0637 0.0
C28 C 0.59488 0.05735 0.06531 0.0
C29 C 0.5994 0.09928 0.06246 0.0
C30 C 0.57787 0.12487 0.06017 0.0
C31 C 0.55281 0.10799 0.06064 0.0
C32 C 0.56979 0.04207 0.06606 0.0
H33 H 0.53669 0.12818 0.05866 0.0
H34 H 0.56752 0.00984 0.06873 0.0
H35 H 0.47542 0.02218 0.0888 0.0
H36 H 0.47867 0.99797 0.04502 0.0
C37 C 0.47835 0.12006 0.05577 0.0
C38 C 0.52182 0.08335 0.09872 0.0
C39 C 0.52647 0.01786 0.03022 0.0
C40 C 0.5315 0.95 0.07574 0.0
H41 H 0.5009 0.16707 0.09844 0.0
H42 H 0.47273 0.18311 0.07607 0.0
H43 H 0.47147 0.13002 0.02632 0.0
H44 H 0.50025 0.07705 0.01228 0.0
H45 H 0.54426 0.93279 0.02858 0.0
H46 H 0.54496 0.89395 0.05336 0.0
H47 H 0.54067 0.94348 0.10559 0.0
H48 H 0.5372 0.01756 0.11779 0.0
H49 H 0.43995 0.97243 0.09136 0.0
H50 H 0.44338 0.94973 0.04686 0.0
H51 H 0.61075 0.03646 0.06732 0.0
H52 H 0.58039 0.1576 0.05793 0.0
C53 C 0.79985 0.14576 0.08854 0.0
C54 C 0.80985 0.10616 0.09063 0.0
C55 C 0.82418 0.09704 0.07907 0.0
C56 C 0.82157 0.13074 0.07037 0.0
N57 N 0.80634 0.16061 0.07569 0.0
Co58 Co 0.79385 0.21077 0.06557 0.0
N59 N 0.80307 0.18636 0.04709 0.0
C60 C 0.81929 0.15446 0.04498 0.0
C61 C 0.82243 0.14455 0.03111 0.0
C62 C 0.80749 0.17219 0.02395 0.0
C63 C 0.79603 0.1976 0.03394 0.0
N64 N 0.78187 0.26086 0.05529 0.0
C65 C 0.77755 0.26672 0.04134 0.0
C66 C 0.77054 0.30752 0.03864 0.0
C67 C 0.77086 0.3278 0.05133 0.0
C68 C 0.77801 0.29838 0.06108 0.0
N69 N 0.78448 0.23378 0.0842 0.0
C70 C 0.77991 0.27405 0.0869 0.0
C71 C 0.77418 0.28092 0.1008 0.0
C72 C 0.77535 0.24256 0.10721 0.0
C73 C 0.78167 0.21423 0.09684 0.0
N74 N 0.82832 0.23797 0.06687 0.0
C75 C 0.86827 0.29837 0.06906 0.0
C76 C 0.8594 0.27612 0.0809 0.0
C77 C 0.83974 0.24594 0.07958 0.0
C78 C 0.85826 0.28621 0.056 0.0
C79 C 0.83851 0.25662 0.05514 0.0
N80 N 0.75874 0.18683 0.06431 0.0
C81 C 0.71296 0.1988 0.06599 0.0
C82 C 0.70734 0.15687 0.06364 0.0
C83 C 0.72844 0.13036 0.06115 0.0
C84 C 0.75388 0.14591 0.06146 0.0
C85 C 0.73832 0.21272 0.06655 0.0
H86 H 0.76957 0.12485 0.05952 0.0
H87 H 0.74121 0.24495 0.06887 0.0
H88 H 0.83284 0.23083 0.089 0.0
H89 H 0.8305 0.25099 0.04491 0.0
C90 C 0.82789 0.13052 0.05619 0.0
C91 C 0.78672 0.16967 0.09953 0.0
C92 C 0.78155 0.23508 0.03039 0.0
C93 C 0.77788 0.30291 0.07579 0.0
H94 H 0.80722 0.08584 0.0996 0.0
H95 H 0.83389 0.06809 0.07688 0.0
H96 H 0.83369 0.11951 0.02674 0.0
H97 H 0.8058 0.174 0.01263 0.0
H98 H 0.76594 0.32122 0.02854 0.0
H99 H 0.76583 0.35986 0.05324 0.0
H100 H 0.76905 0.31008 0.10564 0.0
H101 H 0.7721 0.23618 0.11824 0.0
H102 H 0.86672 0.28321 0.09126 0.0
H103 H 0.86512 0.30034 0.04636 0.0
H104 H 0.69781 0.22137 0.06731 0.0
H105 H 0.72541 0.09767 0.05917 0.0
C106 C 0.50816 0.14648 0.16393 0.0
C107 C 0.49753 0.10715 0.16237 0.0
C108 C 0.48246 0.10018 0.17387 0.0
C109 C 0.48534 0.13474 0.18204 0.0
N110 N 0.50146 0.16299 0.17643 0.0
Co111 Co 0.51515 0.2129 0.18589 0.0
N112 N 0.50548 0.19041 0.20455 0.0
C113 C 0.48791 0.16073 0.20709 0.0
C114 C 0.48501 0.15178 0.22109 0.0
C115 C 0.50168 0.17763 0.22781 0.0
C116 C 0.51383 0.20109 0.21744 0.0
N117 N 0.52858 0.26255 0.19554 0.0
C118 C 0.53455 0.26781 0.20929 0.0
C119 C 0.54294 0.30803 0.21165 0.0
C120 C 0.54193 0.32842 0.1989 0.0
C121 C 0.53299 0.29965 0.18947 0.0
N122 N 0.52474 0.23428 0.16707 0.0
C123 C 0.5297 0.2742 0.16391 0.0
C124 C 0.53541 0.27977 0.14991 0.0
C125 C 0.5338 0.24093 0.14399 0.0
C126 C 0.52727 0.21362 0.15472 0.0
N127 N 0.48132 0.24176 0.18437 0.0
C128 C 0.44069 0.30072 0.18136 0.0
C129 C 0.44946 0.27686 0.16991 0.0
C130 C 0.46935 0.24736 0.17167 0.0
C131 C 0.45192 0.29196 0.19448 0.0
C132 C 0.47192 0.26287 0.19575 0.0
N133 N 0.54962 0.187 0.18736 0.0
C134 C 0.59564 0.19594 0.18562 0.0
C135 C 0.60001 0.1547 0.1895 0.0
C136 C 0.57844 0.12956 0.19217 0.0
C137 C 0.55342 0.14642 0.19121 0.0
C138 C 0.57062 0.21116 0.18446 0.0
H139 H 0.53721 0.12676 0.19357 0.0
H140 H 0.56844 0.24293 0.18119 0.0
H141 H 0.47595 0.23068 0.16254 0.0
H142 H 0.48067 0.25926 0.20594 0.0
C143 C 0.47856 0.13648 0.19618 0.0
C144 C 0.52184 0.16897 0.15271 0.0
C145 C 0.53087 0.23607 0.22033 0.0
C146 C 0.53259 0.30366 0.17471 0.0
H147 H 0.50013 0.08568 0.15378 0.0
H148 H 0.4721 0.07202 0.1764 0.0
H149 H 0.47306 0.12807 0.22581 0.0
H150 H 0.50428 0.17931 0.23907 0.0
H151 H 0.54903 0.32122 0.22154 0.0
H152 H 0.5479 0.35997 0.19672 0.0
H153 H 0.54093 0.30834 0.14471 0.0
H154 H 0.53696 0.23356 0.13304 0.0
H155 H 0.44193 0.28209 0.15946 0.0
H156 H 0.44574 0.3083 0.20381 0.0
H157 H 0.61158 0.21637 0.18327 0.0
H158 H 0.58091 0.09734 0.19515 0.0
C159 C 0.80068 0.1063 0.16534 0.0
C160 C 0.81121 0.14571 0.16372 0.0
C161 C 0.82555 0.15316 0.17542 0.0
C162 C 0.82239 0.11875 0.18374 0.0
N163 N 0.8068 0.09001 0.17805 0.0
Co164 Co 0.79336 0.03955 0.18761 0.0
N165 N 0.80255 0.06195 0.20638 0.0
C166 C 0.81934 0.09278 0.20888 0.0
C167 C 0.82263 0.10103 0.22286 0.0
C168 C 0.80715 0.07339 0.22968 0.0
C169 C 0.7952 0.04971 0.21938 0.0
N170 N 0.78039 0.98912 0.19733 0.0
C171 C 0.77543 0.98235 0.21118 0.0
C172 C 0.76742 0.9418 0.2134 0.0
C173 C 0.76784 0.92255 0.20052 0.0
C174 C 0.776 0.95232 0.19114 0.0
N175 N 0.78406 0.01854 0.16871 0.0
C176 C 0.77901 0.97872 0.16558 0.0
C177 C 0.77338 0.97332 0.1516 0.0
C178 C 0.77511 0.01219 0.1456 0.0
C179 C 0.78164 0.03935 0.15628 0.0
N180 N 0.82745 0.01125 0.18626 0.0
C181 C 0.86728 0.95082 0.18381 0.0
C182 C 0.85877 0.97405 0.17211 0.0
C183 C 0.83916 1.00424 0.17357 0.0
C184 C 0.85692 0.96188 0.1969 0.0
C185 C 0.83718 0.99143 0.19788 0.0
N186 N 0.75866 0.06477 0.18892 0.0
C187 C 0.71275 0.05503 0.18694 0.0
C188 C 0.70778 0.09678 0.19001 0.0
C189 C 0.72935 0.12226 0.19255 0.0
C190 C 0.75448 0.10561 0.19213 0.0
C191 C 0.73787 0.04006 0.18627 0.0
H192 H 0.7705 0.12583 0.19425 0.0
H193 H 0.74028 0.00802 0.18351 0.0
H194 H 0.83258 0.02025 0.16425 0.0
H195 H 0.82888 0.99618 0.20809 0.0
C196 C 0.8285 0.11736 0.19795 0.0
C197 C 0.78721 0.08398 0.1541 0.0
C198 C 0.77981 0.01277 0.22247 0.0
C199 C 0.77622 0.94904 0.17639 0.0
H200 H 0.80891 0.16703 0.155 0.0
H201 H 0.83561 0.18153 0.17797 0.0
H202 H 0.83438 0.12496 0.22754 0.0
H203 H 0.80546 0.07043 0.24097 0.0
H204 H 0.7621 0.92754 0.2233 0.0
H205 H 0.76218 0.89098 0.19825 0.0
H206 H 0.76788 0.94482 0.14643 0.0
H207 H 0.77205 0.01968 0.13463 0.0
H208 H 0.86636 0.96778 0.16174 0.0
H209 H 0.8635 0.947 0.20646 0.0
H210 H 0.69723 0.03345 0.18508 0.0
H211 H 0.72705 0.15503 0.1946 0.0
C212 C 0.53007 0.96854 0.90448 0.0
C213 C 0.52236 0.99505 0.89377 0.0
C214 C 0.52037 0.03407 0.89955 0.0
C215 C 0.52706 0.02941 0.91345 0.0
N216 N 0.53308 0.98994 0.91668 0.0
Co217 Co 0.5433 0.96939 0.93549 0.0
N218 N 0.52905 0.01846 0.94515 0.0
C219 C 0.52384 0.05518 0.93899 0.0
C220 C 0.51511 0.0841 0.94844 0.0
C221 C 0.51519 0.06429 0.9613 0.0
C222 C 0.52396 0.02425 0.95898 0.0
N223 N 0.55341 0.94714 0.95413 0.0
C224 C 0.54528 0.95772 0.96709 0.0
C225 C 0.55777 0.93439 0.97737 0.0
C226 C 0.57455 0.90897 0.97055 0.0
C227 C 0.57137 0.91799 0.95659 0.0
N228 N 0.55811 0.92038 0.92593 0.0
C229 C 0.57528 0.89356 0.93142 0.0
C230 C 0.57939 0.85959 0.92313 0.0
C231 C 0.56396 0.86533 0.91171 0.0
C232 C 0.55179 0.90342 0.91344 0.0
N233 N 0.57657 1.00037 0.93406 0.0
C234 C 0.61603 0.06167 0.93186 0.0
C235 C 0.60552 0.05014 0.94488 0.0
C236 C 0.58599 0.02009 0.94574 0.0
C237 C 0.60726 0.03971 0.92001 0.0
C238 C 0.58793 0.00893 0.92135 0.0
N239 N 0.5093 0.94163 0.93698 0.0
C240 C 0.48158 0.88234 0.94124 0.0
C241 C 0.45947 0.90656 0.93885 0.0
C242 C 0.46305 0.94837 0.93548 0.0
C243 C 0.48778 0.96494 0.93442 0.0
C244 C 0.50628 0.90056 0.94043 0.0
H245 H 0.48929 0.99703 0.93142 0.0
H246 H 0.52289 0.88151 0.94254 0.0
H247 H 0.57761 0.01477 0.95592 0.0
H248 H 0.58146 0.99337 0.91198 0.0
C249 C 0.5238 0.05888 0.92422 0.0
C250 C 0.53602 0.92391 0.90261 0.0
C251 C 0.52883 0.99333 0.97014 0.0
C252 C 0.58162 0.89507 0.9456 0.0
H253 H 0.51854 0.98701 0.88294 0.0
H254 H 0.51382 0.06206 0.89435 0.0
H255 H 0.50875 0.11542 0.94623 0.0
H256 H 0.50963 0.07779 0.97124 0.0
H257 H 0.55558 0.93624 0.98866 0.0
H258 H 0.58703 0.88586 0.97521 0.0
H259 H 0.5906 0.83226 0.92561 0.0
H260 H 0.56178 0.84334 0.90325 0.0
H261 H 0.61149 0.06574 0.95439 0.0
H262 H 0.61509 0.0465 0.90972 0.0
H263 H 0.47977 0.84972 0.94383 0.0
H264 H 0.44672 0.96818 0.93336 0.0
C265 C 0.27696 0.79145 0.90622 0.0
C266 C 0.28303 0.76429 0.89545 0.0
C267 C 0.28456 0.72532 0.90138 0.0
C268 C 0.27927 0.73065 0.91541 0.0
N269 N 0.27465 0.77054 0.91865 0.0
Co270 Co 0.26568 0.79132 0.93765 0.0
N271 N 0.27794 0.74009 0.9472 0.0
C272 C 0.28183 0.70335 0.94088 0.0
C273 C 0.2893 0.67285 0.95016 0.0
C274 C 0.28979 0.69154 0.96313 0.0
C275 C 0.28255 0.73253 0.96105 0.0
N276 N 0.25681 0.81344 0.95653 0.0
C277 C 0.26385 0.80039 0.9695 0.0
C278 C 0.25228 0.82425 0.97988 0.0
C279 C 0.23736 0.85288 0.97316 0.0
C280 C 0.24058 0.84498 0.95915 0.0
N281 N 0.25295 0.84263 0.92828 0.0
C282 C 0.23797 0.87195 0.93413 0.0
C283 C 0.23526 0.90671 0.92593 0.0
C284 C 0.24923 0.89887 0.91413 0.0
C285 C 0.25907 0.85893 0.91557 0.0
N286 N 0.23117 0.76429 0.93621 0.0
C287 C 0.19 0.70603 0.93343 0.0
C288 C 0.20095 0.71537 0.94654 0.0
C289 C 0.2212 0.74402 0.94769 0.0
C290 C 0.19924 0.72918 0.92184 0.0
C291 C 0.21935 0.75839 0.92349 0.0
N292 N 0.30081 0.81528 0.93898 0.0
C293 C 0.33102 0.87186 0.94224 0.0
C294 C 0.35213 0.84588 0.93921 0.0
C295 C 0.34659 0.80406 0.93658 0.0
C296 C 0.32125 0.78982 0.93626 0.0
C297 C 0.30564 0.85599 0.94215 0.0
H298 H 0.3184 0.75776 0.93367 0.0
H299 H 0.28996 0.87671 0.94448 0.0
H300 H 0.22968 0.74773 0.95791 0.0
H301 H 0.22622 0.7745 0.91426 0.0
C302 C 0.28165 0.70059 0.92611 0.0
C303 C 0.27159 0.83618 0.9041 0.0
C304 C 0.27859 0.76269 0.97246 0.0
C305 C 0.2319 0.87038 0.94833 0.0
H306 H 0.28586 0.77185 0.88447 0.0
H307 H 0.2896 0.69674 0.89612 0.0
H308 H 0.29442 0.6411 0.94777 0.0
H309 H 0.29465 0.67665 0.97299 0.0
H310 H 0.25385 0.82081 0.99116 0.0
H311 H 0.22603 0.87718 0.97793 0.0
H312 H 0.2257 0.93543 0.9286 0.0
H313 H 0.25167 0.92022 0.90542 0.0
H314 H 0.1944 0.69975 0.95598 0.0
H315 H 0.19195 0.72361 0.91139 0.0
H316 H 0.33397 0.90442 0.94447 0.0
H317 H 0.36178 0.78183 0.93483 0.0
C318 C 0.52805 0.79102 0.84665 0.0
C319 C 0.52133 0.76331 0.85723 0.0
C320 C 0.5199 0.72469 0.85113 0.0
C321 C 0.52591 0.73077 0.83719 0.0
N322 N 0.53094 0.77078 0.83422 0.0
Co323 Co 0.54033 0.79303 0.81544 0.0
N324 N 0.52743 0.74332 0.80552 0.0
C325 C 0.5232 0.70603 0.81152 0.0
C326 C 0.5155 0.67672 0.80196 0.0
C327 C 0.51526 0.69681 0.78917 0.0
C328 C 0.52286 0.7374 0.79163 0.0
N329 N 0.54953 0.81697 0.79684 0.0
C330 C 0.54203 0.80597 0.7838 0.0
C331 C 0.55369 0.83089 0.77364 0.0
C332 C 0.56931 0.85778 0.78059 0.0
C333 C 0.56632 0.848 0.7945 0.0
N334 N 0.5538 0.84273 0.82523 0.0
C335 C 0.56969 0.87158 0.81976 0.0
C336 C 0.57273 0.90552 0.82819 0.0
C337 C 0.55797 0.89766 0.83971 0.0
C338 C 0.54731 0.85843 0.8379 0.0
N339 N 0.57445 0.76435 0.8166 0.0
C340 C 0.61411 0.70286 0.81848 0.0
C341 C 0.6038 0.71568 0.80551 0.0
C342 C 0.58428 0.74581 0.8048 0.0
C343 C 0.60509 0.72425 0.83044 0.0
C344 C 0.58578 0.75512 0.82925 0.0
N345 N 0.50549 0.81829 0.81431 0.0
C346 C 0.47569 0.87565 0.81116 0.0
C347 C 0.45437 0.84979 0.81396 0.0
C348 C 0.45961 0.80776 0.81645 0.0
C349 C 0.48483 0.79308 0.81684 0.0
C350 C 0.501 0.85933 0.81133 0.0
H351 H 0.48738 0.76079 0.81928 0.0
H352 H 0.51688 0.87989 0.80918 0.0
H353 H 0.57618 0.75199 0.79462 0.0
H354 H 0.57904 0.76973 0.83874 0.0
C355 C 0.52331 0.70172 0.82627 0.0
C356 C 0.53326 0.8357 0.84891 0.0
C357 C 0.52734 0.76859 0.7805 0.0
C358 C 0.57578 0.87136 0.80555 0.0
H359 H 0.51786 0.77029 0.86818 0.0
H360 H 0.51428 0.69593 0.85617 0.0
H361 H 0.51011 0.64486 0.80405 0.0
H362 H 0.51039 0.68309 0.77916 0.0
H363 H 0.55185 0.82908 0.76234 0.0
H364 H 0.58098 0.88217 0.77605 0.0
H365 H 0.58283 0.93402 0.82577 0.0
H366 H 0.55528 0.91884 0.84837 0.0
H367 H 0.61022 0.70165 0.79581 0.0
H368 H 0.61189 0.71605 0.84082 0.0
H369 H 0.47294 0.90838 0.80904 0.0
H370 H 0.44426 0.78566 0.81804 0.0
C371 C 0.27445 0.96851 0.84747 0.0
C372 C 0.28155 0.99596 0.85795 0.0
C373 C 0.2832 0.03461 0.85177 0.0
C374 C 0.27696 0.0288 0.83788 0.0
N375 N 0.2716 0.98893 0.83499 0.0
Co376 Co 0.2615 0.96732 0.81631 0.0
N377 N 0.27445 0.01705 0.80622 0.0
C378 C 0.27918 0.05409 0.81216 0.0
C379 C 0.28705 0.08334 0.80252 0.0
C380 C 0.28692 0.06346 0.78974 0.0
C381 C 0.27896 0.02304 0.7923 0.0
N382 N 0.25148 0.94427 0.79778 0.0
C383 C 0.2587 0.95551 0.78467 0.0
C384 C 0.24646 0.93137 0.7746 0.0
C385 C 0.23082 0.90456 0.7817 0.0
C386 C 0.23437 0.91368 0.7956 0.0
N387 N 0.24808 0.91751 0.82625 0.0
C388 C 0.23193 0.889 0.8209 0.0
C389 C 0.22876 0.85503 0.82943 0.0
C390 C 0.24368 0.86256 0.8409 0.0
C391 C 0.25459 0.90158 0.83894 0.0
N392 N 0.22758 0.9963 0.81787 0.0
C393 C 0.18714 0.05605 0.82046 0.0
C394 C 0.1978 0.04564 0.80737 0.0
C395 C 0.21767 0.01624 0.80631 0.0
C396 C 0.19637 0.0334 0.83216 0.0
C397 C 0.21616 1.00352 0.83063 0.0
N398 N 0.29608 0.94149 0.81475 0.0
C399 C 0.32491 0.8833 0.81113 0.0
C400 C 0.34657 0.90864 0.8133 0.0
C401 C 0.34221 0.95052 0.81615 0.0
C402 C 0.31717 0.966 0.81702 0.0
C403 C 0.29988 0.9004 0.81171 0.0
H404 H 0.31507 0.99817 0.8197 0.0
H405 H 0.28366 0.8804 0.80981 0.0
H406 H 0.22589 0.01155 0.79606 0.0
H407 H 0.22309 0.98786 0.83994 0.0
C408 C 0.2795 0.05802 0.8269 0.0
C409 C 0.26884 0.92397 0.84988 0.0
C410 C 0.27427 0.99194 0.78126 0.0
C411 C 0.22532 0.88988 0.80675 0.0
H412 H 0.28505 0.9888 0.86891 0.0
H413 H 0.28906 0.06322 0.85674 0.0
H414 H 0.29286 0.11499 0.80455 0.0
H415 H 0.29188 0.07716 0.7797 0.0
H416 H 0.24811 0.93347 0.76329 0.0
H417 H 0.21887 0.88051 0.77725 0.0
H418 H 0.21831 0.82684 0.82715 0.0
H419 H 0.24614 0.84152 0.84968 0.0
H420 H 0.19127 0.0609 0.79786 0.0
H421 H 0.18929 0.03985 0.84261 0.0
H422 H 0.32729 0.8506 0.8089 0.0
H423 H 0.35817 0.97122 0.81808 0.0
C424 C 0.50296 0.61343 0.58659 0.0
C425 C 0.49077 0.65168 0.58776 0.0
C426 C 0.4759 0.65648 0.57607 0.0
C427 C 0.48039 0.62183 0.56817 0.0
N428 N 0.49726 0.59546 0.57414 0.0
Co429 Co 0.51286 0.54608 0.5652 0.0
N430 N 0.5033 0.56665 0.54624 0.0
C431 C 0.48514 0.59513 0.54332 0.0
C432 C 0.48246 0.6031 0.52925 0.0
C433 C 0.49979 0.57771 0.52286 0.0
C434 C 0.51207 0.55542 0.53348 0.0
N435 N 0.52839 0.49705 0.55617 0.0
C436 C 0.53421 0.49053 0.54245 0.0
C437 C 0.54379 0.45077 0.54058 0.0
C438 C 0.54363 0.43189 0.5536 0.0
C439 C 0.53399 0.46106 0.56269 0.0
N440 N 0.52192 0.52682 0.58437 0.0
C441 C 0.52782 0.48757 0.58798 0.0
C442 C 0.53349 0.48374 0.60204 0.0
C443 C 0.53093 0.52304 0.60753 0.0
C444 C 0.52397 0.54891 0.59647 0.0
N445 N 0.4798 0.51429 0.56633 0.0
C446 C 0.4408 0.45172 0.5684 0.0
C447 C 0.44864 0.47519 0.58017 0.0
C448 C 0.46765 0.50653 0.57887 0.0
C449 C 0.45214 0.46269 0.5555 0.0
C450 C 0.47136 0.49325 0.55471 0.0
N451 N 0.54676 0.57459 0.56393 0.0
C452 C 0.59256 0.5717 0.56839 0.0
C453 C 0.59713 0.60881 0.56101 0.0
C454 C 0.57528 0.6284 0.55512 0.0
C455 C 0.55042 0.6114 0.55694 0.0
C456 C 0.56784 0.55496 0.5694 0.0
H457 H 0.53428 0.62755 0.5524 0.0
H458 H 0.56613 0.52533 0.57454 0.0
H459 H 0.47341 0.52294 0.58822 0.0
H460 H 0.48027 0.49802 0.54464 0.0
C461 C 0.4745 0.61895 0.55396 0.0
C462 C 0.51804 0.59366 0.59788 0.0
C463 C 0.52916 0.52027 0.53094 0.0
C464 C 0.53266 0.45793 0.57746 0.0
H465 H 0.49256 0.67439 0.59602 0.0
H466 H 0.4648 0.68358 0.57318 0.0
H467 H 0.47003 0.62567 0.52426 0.0
H468 H 0.50254 0.5753 0.51162 0.0
H469 H 0.54993 0.43679 0.53082 0.0
H470 H 0.55024 0.40092 0.55614 0.0
H471 H 0.53991 0.45617 0.60755 0.0
H472 H 0.53399 0.53171 0.61837 0.0
H473 H 0.44109 0.46843 0.59051 0.0
H474 H 0.44668 0.44701 0.54592 0.0
H475 H 0.60804 0.55502 0.57343 0.0
H476 H 0.57711 0.65618 0.5488 0.0
C477 C 0.80034 0.65637 0.58462 0.0
C478 C 0.81082 0.61675 0.58555 0.0
C479 C 0.82446 0.61051 0.57352 0.0
C480 C 0.82092 0.64582 0.56569 0.0
N481 N 0.80576 0.67402 0.572 0.0
Co482 Co 0.79154 0.7252 0.56321 0.0
N483 N 0.7999 0.70485 0.54404 0.0
C484 C 0.81678 0.67457 0.54096 0.0
C485 C 0.81951 0.66774 0.52685 0.0
C486 C 0.80358 0.69574 0.52057 0.0
C487 C 0.79193 0.71823 0.53128 0.0
N488 N 0.77725 0.77591 0.55431 0.0
C489 C 0.77159 0.78395 0.5406 0.0
C490 C 0.76292 0.82439 0.53899 0.0
C491 C 0.7636 0.84224 0.5521 0.0
C492 C 0.77257 0.81181 0.561 0.0
N493 N 0.78374 0.74437 0.58258 0.0
C494 C 0.77896 0.78391 0.58622 0.0
C495 C 0.77444 0.78805 0.60039 0.0
C496 C 0.77665 0.74868 0.60595 0.0
C497 C 0.78227 0.72245 0.59485 0.0
N498 N 0.82556 0.75435 0.56415 0.0
C499 C 0.86572 0.81451 0.56637 0.0
C500 C 0.85785 0.79043 0.57802 0.0
C501 C 0.83821 0.76021 0.57664 0.0
C502 C 0.85404 0.8055 0.55347 0.0
C503 C 0.83419 0.77597 0.55259 0.0
N504 N 0.75678 0.69946 0.56225 0.0
C505 C 0.71143 0.7058 0.56751 0.0
C506 C 0.70533 0.66955 0.56012 0.0
C507 C 0.72623 0.64765 0.55424 0.0
C508 C 0.7517 0.6628 0.55554 0.0
C509 C 0.73662 0.7206 0.56805 0.0
H510 H 0.76715 0.64522 0.55092 0.0
H511 H 0.73947 0.74985 0.57317 0.0
H512 H 0.83251 0.74299 0.58588 0.0
H513 H 0.82492 0.77265 0.54258 0.0
C514 C 0.82638 0.64884 0.55144 0.0
C515 C 0.78765 0.67753 0.59641 0.0
C516 C 0.77616 0.75515 0.52881 0.0
C517 C 0.77444 0.81408 0.57575 0.0
H518 H 0.80894 0.59446 0.59402 0.0
H519 H 0.83431 0.5824 0.57044 0.0
H520 H 0.83114 0.64442 0.52175 0.0
H521 H 0.80139 0.69968 0.50933 0.0
H522 H 0.75716 0.83955 0.52932 0.0
H523 H 0.75787 0.87347 0.55481 0.0
H524 H 0.76915 0.816 0.60595 0.0
H525 H 0.77435 0.7402 0.6169 0.0
H526 H 0.86661 0.79517 0.58819 0.0
H527 H 0.85933 0.82273 0.5441 0.0
H528 H 0.6969 0.72314 0.57305 0.0
H529 H 0.72302 0.61921 0.5485 0.0
C530 C 0.50608 0.65916 0.66235 0.0
C531 C 0.49456 0.62075 0.66018 0.0
C532 C 0.47992 0.61255 0.67173 0.0
C533 C 0.48382 0.64552 0.68049 0.0
N534 N 0.50011 0.67406 0.6752 0.0
Co535 Co 0.51425 0.7227 0.6853 0.0
N536 N 0.505 0.69783 0.70374 0.0
C537 C 0.48795 0.66707 0.70593 0.0
C538 C 0.48526 0.65623 0.71978 0.0
C539 C 0.50136 0.68213 0.72684 0.0
C540 C 0.51296 0.70758 0.71682 0.0
N541 N 0.52778 0.77137 0.69553 0.0
C542 C 0.53252 0.77627 0.70945 0.0
C543 C 0.54046 0.81652 0.7122 0.0
C544 C 0.54031 0.83743 0.69955 0.0
C545 C 0.53232 0.80892 0.68979 0.0
N546 N 0.52369 0.74588 0.66667 0.0
C547 C 0.5291 0.78591 0.66395 0.0
C548 C 0.53511 0.79265 0.65005 0.0
C549 C 0.53329 0.75442 0.6437 0.0
C550 C 0.52632 0.7263 0.6541 0.0
N551 N 0.48042 0.75238 0.68444 0.0
C552 C 0.44159 0.81523 0.68323 0.0
C553 C 0.44995 0.79424 0.67106 0.0
C554 C 0.46901 0.76282 0.67191 0.0
C555 C 0.45154 0.80064 0.69606 0.0
C556 C 0.47078 0.77003 0.69644 0.0
N557 N 0.54882 0.69642 0.68621 0.0
C558 C 0.59491 0.70568 0.6845 0.0
C559 C 0.59946 0.66384 0.6875 0.0
C560 C 0.57786 0.63826 0.68969 0.0
C561 C 0.55276 0.65521 0.68918 0.0
C562 C 0.56982 0.72103 0.68375 0.0
H563 H 0.53659 0.63509 0.69116 0.0
H564 H 0.56762 0.75329 0.68113 0.0
H565 H 0.47545 0.74866 0.66227 0.0
H566 H 0.47881 0.76269 0.70655 0.0
C567 C 0.47799 0.64484 0.69473 0.0
C568 C 0.52066 0.68193 0.65156 0.0
C569 C 0.52807 0.74433 0.72033 0.0
C570 C 0.5321 0.8142 0.67508 0.0
H571 H 0.49662 0.60028 0.65128 0.0
H572 H 0.46931 0.58438 0.67391 0.0
H573 H 0.4735 0.63175 0.72419 0.0
H574 H 0.50359 0.68292 0.73814 0.0
H575 H 0.54555 0.82945 0.7223 0.0
H576 H 0.54596 0.8693 0.69769 0.0
H577 H 0.54102 0.82153 0.64519 0.0
H578 H 0.53665 0.74796 0.6327 0.0
H579 H 0.44267 0.80316 0.66084 0.0
H580 H 0.44502 0.81351 0.70592 0.0
H581 H 0.61076 0.72658 0.6825 0.0
H582 H 0.58037 0.60557 0.69199 0.0
C583 C 0.80119 0.61075 0.6614 0.0
C584 C 0.8124 0.64947 0.65929 0.0
C585 C 0.82682 0.6576 0.67089 0.0
C586 C 0.82308 0.62429 0.67964 0.0
N587 N 0.80706 0.59556 0.6743 0.0
Co588 Co 0.79303 0.54651 0.68446 0.0
N589 N 0.80246 0.57068 0.70295 0.0
C590 C 0.81952 0.60139 0.70507 0.0
C591 C 0.82274 0.61134 0.71892 0.0
C592 C 0.80697 0.58494 0.72607 0.0
C593 C 0.79497 0.56017 0.71609 0.0
N594 N 0.77945 0.49759 0.69477 0.0
C595 C 0.77471 0.49227 0.70871 0.0
C596 C 0.76641 0.45212 0.71142 0.0
C597 C 0.76638 0.43167 0.69875 0.0
C598 C 0.77461 0.46034 0.68901 0.0
N599 N 0.78353 0.52393 0.66579 0.0
C600 C 0.77799 0.48399 0.66313 0.0
C601 C 0.77225 0.4774 0.64921 0.0
C602 C 0.77443 0.5156 0.64277 0.0
C603 C 0.78132 0.5436 0.65312 0.0
N604 N 0.82686 0.51678 0.68352 0.0
C605 C 0.86708 0.45634 0.68213 0.0
C606 C 0.85812 0.47711 0.67002 0.0
C607 C 0.83848 0.50754 0.67095 0.0
C608 C 0.85612 0.46831 0.69496 0.0
C609 C 0.83634 0.49804 0.69543 0.0
N610 N 0.75846 0.57283 0.68546 0.0
C611 C 0.71239 0.56371 0.68369 0.0
C612 C 0.70759 0.60553 0.68674 0.0
C613 C 0.72937 0.63078 0.68909 0.0
C614 C 0.75449 0.61383 0.68854 0.0
C615 C 0.73747 0.5484 0.68295 0.0
H616 H 0.77065 0.6339 0.69052 0.0
H617 H 0.73965 0.51622 0.68033 0.0
H618 H 0.83198 0.52224 0.66138 0.0
H619 H 0.82783 0.50388 0.70552 0.0
C620 C 0.82907 0.62433 0.69385 0.0
C621 C 0.78731 0.5879 0.65043 0.0
C622 C 0.77966 0.52356 0.71968 0.0
C623 C 0.77481 0.45555 0.67429 0.0
H624 H 0.81046 0.66995 0.65031 0.0
H625 H 0.83731 0.68582 0.67309 0.0
H626 H 0.83467 0.63556 0.72329 0.0
H627 H 0.80518 0.58342 0.73739 0.0
H628 H 0.76126 0.4389 0.72151 0.0
H629 H 0.76048 0.39998 0.69686 0.0
H630 H 0.76637 0.44859 0.64439 0.0
H631 H 0.77139 0.52213 0.63173 0.0
H632 H 0.86609 0.4697 0.65983 0.0
H633 H 0.86201 0.4534 0.70466 0.0
H634 H 0.69676 0.54226 0.68196 0.0
H635 H 0.72724 0.6636 0.69111 0.0
C636 C 0.5338 0.47047 0.4047 0.0
C637 C 0.52801 0.49854 0.39407 0.0
C638 C 0.52628 0.53696 0.40025 0.0
C639 C 0.53118 0.53035 0.41428 0.0
N640 N 0.53569 0.49017 0.41728 0.0
Co641 Co 0.54458 0.46761 0.43612 0.0
N642 N 0.53235 0.51809 0.44594 0.0
C643 C 0.52835 0.55536 0.43988 0.0
C644 C 0.52068 0.58492 0.44936 0.0
C645 C 0.52018 0.56504 0.46217 0.0
C646 C 0.52764 0.52434 0.45981 0.0
N647 N 0.5536 0.44389 0.45479 0.0
C648 C 0.54666 0.45592 0.46783 0.0
C649 C 0.55829 0.43126 0.47806 0.0
C650 C 0.57318 0.4032 0.47117 0.0
C651 C 0.56986 0.41217 0.45722 0.0
N652 N 0.55719 0.41695 0.42651 0.0
C653 C 0.57197 0.38687 0.43216 0.0
C654 C 0.57425 0.35258 0.42381 0.0
C655 C 0.56025 0.36159 0.41211 0.0
C656 C 0.5509 0.40174 0.41376 0.0
N657 N 0.57906 0.49453 0.43475 0.0
C658 C 0.61977 0.55309 0.43175 0.0
C659 C 0.60888 0.54402 0.44491 0.0
C660 C 0.58881 0.51504 0.44617 0.0
C661 C 0.61098 0.52951 0.42028 0.0
C662 C 0.59101 0.50016 0.42203 0.0
N663 N 0.50936 0.44374 0.43733 0.0
C664 C 0.47891 0.3873 0.44048 0.0
C665 C 0.45789 0.41359 0.43745 0.0
C666 C 0.46361 0.45544 0.43487 0.0
C667 C 0.48901 0.46946 0.43461 0.0
C668 C 0.50436 0.40294 0.44043 0.0
H669 H 0.49197 0.50161 0.43208 0.0
H670 H 0.51996 0.38198 0.44275 0.0
H671 H 0.58021 0.51133 0.45638 0.0
H672 H 0.58442 0.48354 0.41289 0.0
C673 C 0.52867 0.55951 0.42515 0.0
C674 C 0.53932 0.42607 0.40235 0.0
C675 C 0.53201 0.49338 0.47101 0.0
C676 C 0.57833 0.38738 0.4463 0.0
H677 H 0.52553 0.49197 0.38301 0.0
H678 H 0.52144 0.56602 0.39516 0.0
H679 H 0.51547 0.61683 0.44719 0.0
H680 H 0.51524 0.57899 0.47214 0.0
H681 H 0.55679 0.43378 0.48936 0.0
H682 H 0.58451 0.3785 0.47578 0.0
H683 H 0.58361 0.32348 0.42631 0.0
H684 H 0.55764 0.34101 0.40328 0.0
H685 H 0.61494 0.56079 0.45417 0.0
H686 H 0.61921 0.53405 0.40995 0.0
H687 H 0.47581 0.35469 0.44268 0.0
H688 H 0.44851 0.47788 0.43312 0.0
C689 C 0.27845 0.29335 0.403 0.0
C690 C 0.28588 0.26548 0.39271 0.0
C691 C 0.28765 0.22718 0.39912 0.0
C692 C 0.28115 0.23361 0.41294 0.0
N693 N 0.27552 0.27354 0.41559 0.0
Co694 Co 0.26501 0.29593 0.43412 0.0
N695 N 0.27792 0.2467 0.44452 0.0
C696 C 0.28299 0.20949 0.43878 0.0
C697 C 0.29077 0.18069 0.44859 0.0
C698 C 0.29021 0.201 0.46127 0.0
C699 C 0.28206 0.2412 0.45851 0.0
N700 N 0.25457 0.31973 0.45249 0.0
C701 C 0.26134 0.30887 0.46571 0.0
C702 C 0.24875 0.33332 0.47557 0.0
C703 C 0.23337 0.35993 0.46824 0.0
C704 C 0.2374 0.35039 0.45441 0.0
N705 N 0.25158 0.34518 0.42385 0.0
C706 C 0.23516 0.37368 0.42897 0.0
C707 C 0.2315 0.40679 0.42013 0.0
C708 C 0.24637 0.39869 0.40868 0.0
C709 C 0.25783 0.36024 0.41099 0.0
N710 N 0.23121 0.26677 0.43251 0.0
C711 C 0.19062 0.20743 0.42989 0.0
C712 C 0.20113 0.21794 0.443 0.0
C713 C 0.22109 0.24716 0.44408 0.0
C714 C 0.20012 0.22969 0.41817 0.0
C715 C 0.21998 0.25938 0.41972 0.0
N716 N 0.2995 0.32208 0.43571 0.0
C717 C 0.32812 0.38062 0.43919 0.0
C718 C 0.3499 0.3553 0.43732 0.0
C719 C 0.34569 0.31327 0.43464 0.0
C720 C 0.3207 0.29761 0.43369 0.0
C721 C 0.30314 0.36335 0.43854 0.0
H722 H 0.31874 0.26531 0.43117 0.0
H723 H 0.28683 0.38335 0.44022 0.0
H724 H 0.22915 0.25204 0.45434 0.0
H725 H 0.2271 0.2748 0.41041 0.0
C726 C 0.28362 0.20493 0.42407 0.0
C727 C 0.27248 0.33759 0.40028 0.0
C728 C 0.27666 0.2724 0.46943 0.0
C729 C 0.22842 0.37353 0.44309 0.0
H730 H 0.28951 0.27213 0.38173 0.0
H731 H 0.29374 0.19841 0.39433 0.0
H732 H 0.29678 0.14903 0.44673 0.0
H733 H 0.29495 0.18767 0.4714 0.0
H734 H 0.24993 0.33147 0.48691 0.0
H735 H 0.22118 0.384 0.47248 0.0
H736 H 0.22069 0.43481 0.42215 0.0
H737 H 0.24852 0.41911 0.3997 0.0
H738 H 0.19439 0.20294 0.45252 0.0
H739 H 0.19318 0.2231 0.40771 0.0
H740 H 0.33037 0.41343 0.44127 0.0
H741 H 0.36173 0.29256 0.43293 0.0
C742 C 0.53052 0.29843 0.34634 0.0
C743 C 0.51618 0.27775 0.35647 0.0
C744 C 0.5018 0.24878 0.34957 0.0
C745 C 0.5083 0.25299 0.33567 0.0
N746 N 0.52636 0.28214 0.33335 0.0
Co747 Co 0.54017 0.29869 0.31453 0.0
N748 N 0.52351 0.25075 0.30487 0.0
C749 C 0.50535 0.22592 0.31042 0.0
C750 C 0.49657 0.19655 0.30119 0.0
C751 C 0.50977 0.20358 0.28896 0.0
C752 C 0.52595 0.23687 0.29145 0.0
N753 N 0.55398 0.31593 0.29578 0.0
C754 C 0.55488 0.29533 0.28343 0.0
C755 C 0.56738 0.3184 0.2731 0.0
C756 C 0.57408 0.35508 0.27906 0.0
C757 C 0.56555 0.35219 0.29262 0.0
N758 N 0.55688 0.34724 0.32395 0.0
C759 C 0.56747 0.38023 0.31734 0.0
C760 C 0.575 0.41138 0.32608 0.0
C761 C 0.56852 0.39798 0.33913 0.0
C762 C 0.55771 0.35865 0.33766 0.0
N763 N 0.57114 0.2631 0.31778 0.0
C764 C 0.613 0.20615 0.31981 0.0
C765 C 0.61673 0.24786 0.31568 0.0
C766 C 0.59562 0.27566 0.31465 0.0
C767 C 0.58795 0.19448 0.32328 0.0
C768 C 0.56769 0.22305 0.32238 0.0
N769 N 0.50832 0.33192 0.31142 0.0
C770 C 0.47248 0.36943 0.32152 0.0
C771 C 0.45653 0.35956 0.31012 0.0
C772 C 0.46814 0.33906 0.29875 0.0
C773 C 0.49393 0.32625 0.29954 0.0
C774 C 0.49796 0.35526 0.32201 0.0
H775 H 0.50176 0.30973 0.29078 0.0
H776 H 0.50869 0.3619 0.33133 0.0
H777 H 0.5991 0.30697 0.31106 0.0
H778 H 0.549 0.21188 0.32513 0.0
C779 C 0.49883 0.22888 0.32463 0.0
C780 C 0.54558 0.33608 0.34933 0.0
C781 C 0.54149 0.25667 0.28043 0.0
C782 C 0.57059 0.381 0.30293 0.0
H783 H 0.51555 0.28386 0.36764 0.0
H784 H 0.48815 0.22734 0.35414 0.0
H785 H 0.48244 0.17262 0.30315 0.0
H786 H 0.50747 0.18669 0.27924 0.0
H787 H 0.57076 0.31009 0.26225 0.0
H788 H 0.58438 0.38049 0.27418 0.0
H789 H 0.58358 0.44085 0.32325 0.0
H790 H 0.5705 0.41653 0.34849 0.0
H791 H 0.63568 0.25866 0.31282 0.0
H792 H 0.58391 0.16302 0.32669 0.0
H793 H 0.46531 0.38743 0.33025 0.0
H794 H 0.45716 0.33134 0.28948 0.0
C795 C 0.2752 0.46874 0.3442 0.0
C796 C 0.28194 0.49474 0.35517 0.0
C797 C 0.28402 0.53412 0.3496 0.0
C798 C 0.27832 0.53021 0.33556 0.0
N799 N 0.27286 0.49083 0.33203 0.0
Co800 Co 0.26377 0.47163 0.3129 0.0
N801 N 0.27836 0.52166 0.30373 0.0
C802 C 0.28345 0.55772 0.31023 0.0
C803 C 0.29275 0.58744 0.30115 0.0
C804 C 0.29318 0.56894 0.28814 0.0
C805 C 0.28404 0.52886 0.28999 0.0
N806 N 0.25447 0.45118 0.29393 0.0
C807 C 0.26251 0.46369 0.28108 0.0
C808 C 0.25011 0.44164 0.27053 0.0
C809 C 0.23362 0.41486 0.27703 0.0
C810 C 0.23679 0.42194 0.2911 0.0
N811 N 0.24901 0.42144 0.32198 0.0
C812 C 0.23255 0.39452 0.31603 0.0
C813 C 0.22824 0.3599 0.32409 0.0
C814 C 0.24277 0.36532 0.33586 0.0
C815 C 0.25465 0.40382 0.33456 0.0
N816 N 0.23027 0.50162 0.31418 0.0
C817 C 0.1888 0.55892 0.31653 0.0
C818 C 0.19733 0.53552 0.32816 0.0
C819 C 0.21769 0.50669 0.32673 0.0
C820 C 0.20102 0.55158 0.30364 0.0
C821 C 0.22146 0.52329 0.3027 0.0
N822 N 0.29784 0.44444 0.31164 0.0
C823 C 0.3261 0.38737 0.30564 0.0
C824 C 0.34766 0.40987 0.31018 0.0
C825 C 0.34365 0.44974 0.31539 0.0
C826 C 0.31892 0.46639 0.31593 0.0
C827 C 0.30132 0.40514 0.30651 0.0
H828 H 0.31703 0.49743 0.31988 0.0
H829 H 0.28502 0.38725 0.30305 0.0
H830 H 0.22384 0.48964 0.33592 0.0
H831 H 0.23084 0.52063 0.29268 0.0
C832 C 0.28238 0.56031 0.325 0.0
C833 C 0.2695 0.42393 0.34581 0.0
C834 C 0.27909 0.49955 0.27841 0.0
C835 C 0.22668 0.39739 0.3018 0.0
H836 H 0.28507 0.48613 0.36605 0.0
H837 H 0.29004 0.56188 0.35504 0.0
H838 H 0.29903 0.6185 0.30371 0.0
H839 H 0.29916 0.58344 0.2784 0.0
H840 H 0.25219 0.44515 0.25927 0.0
H841 H 0.22129 0.39219 0.27209 0.0
H842 H 0.21739 0.33253 0.32129 0.0
H843 H 0.24455 0.3429 0.34429 0.0
H844 H 0.18839 0.53954 0.33833 0.0
H845 H 0.19548 0.56887 0.29434 0.0
H846 H 0.32835 0.35625 0.30157 0.0
H847 H 0.35967 0.46821 0.31901 0.0
C848 C 1.00583 0.11213 0.58613 0.0
C849 C 0.99493 0.15128 0.58759 0.0
C850 C 0.98123 0.15889 0.57566 0.0
C851 C 0.98509 0.12484 0.56737 0.0
N852 N 1.00052 0.09609 0.57328 0.0
Co853 Co 1.01451 0.04593 0.56377 0.0
N854 N 1.00558 0.06839 0.54484 0.0
C855 C 0.98901 0.09953 0.54222 0.0
C856 C 0.98599 0.10815 0.52822 0.0
C857 C 1.0014 0.08041 0.52148 0.0
C858 C 1.01304 0.0563 0.53184 0.0
N859 N 1.028 0.99587 0.55413 0.0
C860 C 0.03265 0.98885 0.54025 0.0
C861 C 0.04071 0.94832 0.53819 0.0
C862 C 0.04072 0.92935 0.55118 0.0
C863 C 0.0327 0.95922 0.56047 0.0
N864 N 1.02368 0.02511 0.58285 0.0
C865 C 0.02926 0.98541 0.58602 0.0
C866 C 0.03466 0.97984 0.60005 0.0
C867 C 0.0322 0.01844 0.60605 0.0
C868 C 1.0255 0.04569 0.59535 0.0
N869 N 0.98054 0.01658 0.56493 0.0
C870 C 0.94084 0.95494 0.56681 0.0
C871 C 0.94977 0.97651 0.57876 0.0
C872 C 0.96906 0.00746 0.57757 0.0
C873 C 0.95133 0.96761 0.55386 0.0
C874 C 0.9709 0.99768 0.55316 0.0
N875 N 0.04911 0.07181 0.56256 0.0
C876 C 0.09515 0.06262 0.56444 0.0
C877 C 0.09969 0.10409 0.56092 0.0
C878 C 0.07816 0.12944 0.55833 0.0
C879 C 0.05308 0.11261 0.55903 0.0
C880 C 0.07006 0.04743 0.56536 0.0
H881 H 0.03696 0.13253 0.55673 0.0
H882 H 0.06782 0.01552 0.56842 0.0
H883 H 0.9756 0.0223 0.58706 0.0
H884 H 0.97911 1.00356 0.54299 0.0
C885 C 0.97963 0.12379 0.55309 0.0
C886 C 1.01911 0.09009 0.59761 0.0
C887 C 0.0281 0.01902 0.52877 0.0
C888 C 0.03246 0.95603 0.57524 0.0
H889 H 0.99665 0.17243 0.59633 0.0
H890 H 0.97113 0.18718 0.57296 0.0
H891 H 0.97441 0.13231 0.52347 0.0
H892 H 1.00321 0.07763 0.5102 0.0
H893 H 0.04579 0.9339 0.52833 0.0
H894 H 0.04645 0.89782 0.55358 0.0
H895 H 0.04039 0.95137 0.60525 0.0
H896 H 0.03486 0.02568 0.61705 0.0
H897 H 0.94292 0.96847 0.58914 0.0
H898 H 0.945 0.95356 0.54415 0.0
H899 H 0.111 0.04196 0.56673 0.0
H900 H 0.08071 0.16185 0.55561 0.0
C901 C 0.30036 0.15371 0.58696 0.0
C902 C 0.31101 0.11439 0.5886 0.0
C903 C 0.32569 0.10722 0.57701 0.0
C904 C 0.32259 0.14167 0.56871 0.0
N905 N 0.30671 0.17018 0.57431 0.0
Co906 Co 0.29305 0.22033 0.56466 0.0
N907 N 0.30265 0.19788 0.54597 0.0
C908 C 0.31969 0.16734 0.54355 0.0
C909 C 0.32295 0.15869 0.52959 0.0
C910 C 0.30718 0.18575 0.52271 0.0
C911 C 0.29514 0.20956 0.53295 0.0
N912 N 0.27984 0.27037 0.55486 0.0
C913 C 0.27507 0.27686 0.54099 0.0
C914 C 0.26704 0.31735 0.53865 0.0
C915 C 0.26715 0.33677 0.55151 0.0
C916 C 0.27521 0.30718 0.56098 0.0
N917 N 0.28336 0.24127 0.58351 0.0
C918 C 0.27803 0.28104 0.58659 0.0
C919 C 0.27219 0.28641 0.60056 0.0
C920 C 0.27408 0.24759 0.60659 0.0
C921 C 0.2809 0.22047 0.59595 0.0
N922 N 0.32694 0.24949 0.56606 0.0
C923 C 0.36668 0.31021 0.56841 0.0
C924 C 0.35769 0.28796 0.58022 0.0
C925 C 0.33828 0.25741 0.5788 0.0
C926 C 0.35638 0.29904 0.55535 0.0
C927 C 0.33672 0.26924 0.55441 0.0
N928 N 0.25847 0.1945 0.56324 0.0
C929 C 0.21244 0.20381 0.56496 0.0
C930 C 0.20763 0.16217 0.56165 0.0
C931 C 0.22936 0.13695 0.55914 0.0
C932 C 0.25447 0.15375 0.55983 0.0
C933 C 0.23752 0.21892 0.56587 0.0
H934 H 0.27061 0.13373 0.55773 0.0
H935 H 0.23975 0.2509 0.56875 0.0
H936 H 0.33165 0.24165 0.58815 0.0
H937 H 0.32846 0.26429 0.5442 0.0
C938 C 0.32892 0.14307 0.55453 0.0
C939 C 0.28667 0.17588 0.59818 0.0
C940 C 0.27954 0.24617 0.52979 0.0
C941 C 0.27522 0.31061 0.57574 0.0
H942 H 0.30856 0.09292 0.59727 0.0
H943 H 0.3359 0.07896 0.5745 0.0
H944 H 0.33479 0.13477 0.52497 0.0
H945 H 0.30532 0.18823 0.51141 0.0
H946 H 0.26188 0.33142 0.5287 0.0
H947 H 0.26137 0.36834 0.55371 0.0
H948 H 0.26646 0.31486 0.60568 0.0
H949 H 0.27092 0.24011 0.61756 0.0
H950 H 0.36538 0.29442 0.59054 0.0
H951 H 0.36259 0.31482 0.54587 0.0
H952 H 0.19683 0.22522 0.5668 0.0
H953 H 0.2272 0.10427 0.55691 0.0
C954 C 1.00508 0.15634 0.66355 0.0
C955 C 0.99379 0.11752 0.66201 0.0
C956 C 0.97992 0.11013 0.67391 0.0
C957 C 0.98405 0.14398 0.68225 0.0
N958 N 0.9998 0.17239 0.67641 0.0
Co959 Co 1.01417 0.22211 0.68601 0.0
N960 N 1.00497 0.19961 0.7049 0.0
C961 C 0.98818 0.16874 0.70745 0.0
C962 C 0.98501 0.16002 0.72144 0.0
C963 C 1.00054 0.1874 0.72823 0.0
C964 C 1.01241 0.21144 0.71793 0.0
N965 N 1.02797 0.27179 0.69572 0.0
C966 C 0.03248 0.27866 0.70963 0.0
C967 C 0.04078 0.31904 0.71174 0.0
C968 C 0.04108 0.33808 0.69876 0.0
C969 C 0.03299 0.3084 0.68943 0.0
N970 N 1.02364 0.2429 0.66697 0.0
C971 C 0.02961 0.28248 0.66385 0.0
C972 C 0.03524 0.28801 0.64984 0.0
C973 C 0.03255 0.2495 0.64381 0.0
C974 C 1.02547 0.22234 0.65447 0.0
N975 N 0.98044 0.25226 0.68483 0.0
C976 C 0.94183 0.31556 0.68306 0.0
C977 C 0.95016 0.29359 0.67108 0.0
C978 C 0.9691 0.26199 0.6722 0.0
C979 C 0.95172 0.30176 0.69601 0.0
C980 C 0.97084 0.27097 0.69665 0.0
N981 N 0.04854 0.19541 0.68722 0.0
C982 C 0.0947 0.20339 0.68539 0.0
C983 C 0.09877 0.1615 0.68849 0.0
C984 C 0.07697 0.13668 0.69096 0.0
C985 C 0.05208 0.1543 0.69046 0.0
C986 C 0.06977 0.21939 0.68462 0.0
H987 H 0.03576 0.1347 0.69261 0.0
H988 H 0.06787 0.25154 0.68178 0.0
H989 H 0.97546 0.24706 0.66268 0.0
H990 H 0.97878 0.26438 0.70683 0.0
C991 C 0.97859 0.14492 0.69653 0.0
C992 C 1.01881 0.17808 0.65216 0.0
C993 C 1.02758 0.24853 0.72109 0.0
C994 C 0.03294 0.3117 0.67466 0.0
H995 H 0.99541 0.0964 0.65326 0.0
H996 H 0.96955 0.08206 0.67655 0.0
H997 H 0.97321 0.13605 0.72613 0.0
H998 H 1.00226 0.19006 0.73953 0.0
H999 H 0.04582 0.33332 0.72163 0.0
H1000 H 0.04704 0.36952 0.69641 0.0
H1001 H 0.0413 0.31636 0.64469 0.0
H1002 H 0.03532 0.24224 0.63282 0.0
H1003 H 0.94291 0.30183 0.66078 0.0
H1004 H 0.94523 0.31537 0.70575 0.0
H1005 H 0.11078 0.22369 0.68322 0.0
H1006 H 0.07914 0.10398 0.69336 0.0
C1007 C 0.2996 0.10988 0.6635 0.0
C1008 C 0.31015 0.14926 0.66179 0.0
C1009 C 0.32447 0.15696 0.67346 0.0
C1010 C 0.32127 0.12276 0.68188 0.0
N1011 N 0.30568 0.09389 0.67626 0.0
Co1012 Co 0.29202 0.04385 0.68598 0.0
N1013 N 0.30098 0.06702 0.70467 0.0
C1014 C 0.31776 0.09793 0.7071 0.0
C1015 C 0.32075 0.10694 0.72105 0.0
C1016 C 0.3051 0.07972 0.72792 0.0
C1017 C 0.29339 0.05545 0.7177 0.0
N1018 N 0.27882 0.9939 0.69586 0.0
C1019 C 0.27382 0.98763 0.70972 0.0
C1020 C 0.26586 0.94712 0.7121 0.0
C1021 C 0.26632 0.92742 0.6993 0.0
C1022 C 0.27449 0.95688 0.68981 0.0
N1023 N 0.28297 0.02222 0.66713 0.0
C1024 C 0.27788 0.98232 0.66414 0.0
C1025 C 0.27239 0.97649 0.65016 0.0
C1026 C 0.27424 0.01516 0.64401 0.0
C1027 C 0.28069 0.04265 0.65461 0.0
N1028 N 0.32611 0.01509 0.68495 0.0
C1029 C 0.36663 0.95543 0.68322 0.0
C1030 C 0.35772 0.9769 0.67124 0.0
C1031 C 0.33792 0.00696 0.67236 0.0
C1032 C 0.35552 0.96638 0.69612 0.0
C1033 C 0.33559 0.99576 0.69676 0.0
N1034 N 0.25723 0.06926 0.687 0.0
C1035 C 0.21134 0.05911 0.68486 0.0
C1036 C 0.20619 0.10104 0.68749 0.0
C1037 C 0.22758 0.12662 0.69033 0.0
C1038 C 0.25284 0.11015 0.69011 0.0
C1039 C 0.23653 0.04432 0.68438 0.0
H1040 H 0.26876 0.1305 0.69234 0.0
H1041 H 0.23903 0.01215 0.68184 0.0
H1042 H 0.33144 0.02222 0.66288 0.0
H1043 H 0.32692 1.00076 0.70686 0.0
C1044 C 0.32717 0.12193 0.6961 0.0
C1045 C 0.28625 0.08726 0.65228 0.0
C1046 C 0.27822 0.0184 0.72092 0.0
C1047 C 0.2749 0.95305 0.67507 0.0
H1048 H 0.30785 0.17041 0.65302 0.0
H1049 H 0.33449 0.18542 0.67595 0.0
H1050 H 0.33242 0.13109 0.72565 0.0
H1051 H 0.30319 0.07736 0.73922 0.0
H1052 H 0.26059 0.93318 0.72206 0.0
H1053 H 0.26074 0.89574 0.69715 0.0
H1054 H 0.26689 0.94784 0.64509 0.0
H1055 H 0.27128 0.02232 0.63301 0.0
H1056 H 0.36583 0.97027 0.66102 0.0
H1057 H 0.36139 0.95087 0.70572 0.0
H1058 H 0.19595 0.03715 0.68326 0.0
H1059 H 0.22493 0.15925 0.69255 0.0
C1060 C 1.02043 0.98264 0.4018 0.0
C1061 C 1.00575 0.00876 0.39342 0.0
C1062 C 1.00499 0.04677 0.39998 0.0
C1063 C 1.01837 0.0419 0.41232 0.0
N1064 N 1.02726 1.00296 0.41386 0.0
Co1065 Co 0.04012 0.97865 0.43177 0.0
N1066 N 1.02653 0.02429 0.44351 0.0
C1067 C 1.01991 0.06201 0.4386 0.0
C1068 C 1.01224 0.0883 0.44914 0.0
C1069 C 1.01461 0.0658 0.4614 0.0
C1070 C 1.0236 0.02682 0.4577 0.0
N1071 N 0.05253 0.95195 0.44936 0.0
C1072 C 0.04622 0.95898 0.46297 0.0
C1073 C 0.06033 0.93348 0.47192 0.0
C1074 C 0.07639 0.91062 0.46364 0.0
C1075 C 0.07118 0.92312 0.45016 0.0
N1076 N 0.05491 0.93381 0.42019 0.0
C1077 C 0.0751 0.91025 0.42388 0.0
C1078 C 0.08406 0.88606 0.41313 0.0
C1079 C 0.06843 0.89487 0.40196 0.0
C1080 C 0.05038 0.92342 0.40666 0.0
N1081 N 0.07276 0.01114 0.43017 0.0
C1082 C 0.11297 0.07127 0.42839 0.0
C1083 C 0.10346 0.05723 0.44137 0.0
C1084 C 0.08359 0.02775 0.44203 0.0
C1085 C 0.10254 0.05269 0.41627 0.0
C1086 C 0.08276 0.02263 0.41738 0.0
N1087 N 1.00655 0.94949 0.43344 0.0
C1088 C 0.97892 0.88915 0.43586 0.0
C1089 C 0.95669 0.91422 0.4352 0.0
C1090 C 0.96028 0.95675 0.43341 0.0
C1091 C 0.98486 0.97341 0.43252 0.0
C1092 C 1.00371 0.90745 0.43509 0.0
H1093 H 0.98592 0.00622 0.43089 0.0
H1094 H 1.02046 0.88781 0.43575 0.0
H1095 H 0.0763 0.02003 0.45228 0.0
H1096 H 0.07501 0.00972 0.40783 0.0
C1097 C 1.01675 0.06846 0.42403 0.0
C1098 C 0.0292 0.93972 0.39805 0.0
C1099 C 0.03065 0.99394 0.46792 0.0
C1100 C 0.08203 0.90648 0.438 0.0
H1101 H 0.99541 1.00114 0.38397 0.0
H1102 H 0.99388 0.07353 0.39675 0.0
H1103 H 1.00492 0.11957 0.44802 0.0
H1104 H 1.01035 0.07685 0.47187 0.0
H1105 H 0.05999 0.93284 0.48329 0.0
H1106 H 0.09024 0.8877 0.46706 0.0
H1107 H 0.09944 0.86355 0.4135 0.0
H1108 H 0.06999 0.8814 0.3916 0.0
H1109 H 0.11063 0.07024 0.45108 0.0
H1110 H 0.10949 0.06142 0.40596 0.0
H1111 H 0.97718 0.85585 0.4371 0.0
H1112 H 0.944 0.97742 0.43239 0.0
C1113 C 0.7876 0.78166 0.40245 0.0
C1114 C 0.80229 0.75485 0.39441 0.0
C1115 C 0.80288 0.71734 0.40146 0.0
C1116 C 0.7892 0.72316 0.41365 0.0
N1117 N 0.78023 0.76215 0.41461 0.0
Co1118 Co 0.76639 0.78795 0.43193 0.0
N1119 N 0.77986 0.74387 0.44443 0.0
C1120 C 0.78678 0.7057 0.44019 0.0
C1121 C 0.79414 0.68073 0.45123 0.0
C1122 C 0.79124 0.70462 0.46309 0.0
C1123 C 0.78231 0.74307 0.45865 0.0
N1124 N 0.75301 0.81625 0.44888 0.0
C1125 C 0.7591 0.81112 0.4626 0.0
C1126 C 0.74452 0.83726 0.47102 0.0
C1127 C 0.72833 0.85852 0.46226 0.0
C1128 C 0.73397 0.84451 0.44904 0.0
N1129 N 0.75161 0.83108 0.41959 0.0
C1130 C 0.73096 0.85436 0.42258 0.0
C1131 C 0.72268 0.87764 0.41136 0.0
C1132 C 0.73929 0.86848 0.40066 0.0
C1133 C 0.75708 0.84057 0.4061 0.0
N1134 N 0.73415 0.7545 0.43046 0.0
C1135 C 0.69526 0.69197 0.42924 0.0
C1136 C 0.70383 0.70838 0.44207 0.0
C1137 C 0.723 0.73902 0.44245 0.0
C1138 C 0.70593 0.70961 0.41695 0.0
C1139 C 0.72499 0.74089 0.41777 0.0
N1140 N 0.79966 0.818 0.4335 0.0
C1141 C 0.82691 0.87904 0.43487 0.0
C1142 C 0.84937 0.85438 0.4344 0.0
C1143 C 0.84597 0.81152 0.43366 0.0
C1144 C 0.82151 0.79436 0.43316 0.0
C1145 C 0.80223 0.86023 0.43442 0.0
H1146 H 0.82069 0.76131 0.43227 0.0
H1147 H 0.78534 0.87965 0.43466 0.0
H1148 H 0.72957 0.74854 0.45265 0.0
H1149 H 0.7331 0.75271 0.40811 0.0
C1150 C 0.79051 0.69769 0.42575 0.0
C1151 C 0.77928 0.82455 0.39837 0.0
C1152 C 0.77494 0.77724 0.46817 0.0
C1153 C 0.72331 0.85948 0.43653 0.0
H1154 H 0.8126 0.76166 0.38485 0.0
H1155 H 0.81399 0.69029 0.3986 0.0
H1156 H 0.80161 0.64944 0.45071 0.0
H1157 H 0.79518 0.69487 0.47378 0.0
H1158 H 0.74467 0.83938 0.48236 0.0
H1159 H 0.71417 0.88144 0.4652 0.0
H1160 H 0.70725 0.90007 0.41115 0.0
H1161 H 0.73869 0.88151 0.39016 0.0
H1162 H 0.69613 0.69701 0.45192 0.0
H1163 H 0.70049 0.69825 0.40669 0.0
H1164 H 0.82831 0.91251 0.43531 0.0
H1165 H 0.86229 0.79076 0.4335 0.0
C1166 C 1.02114 0.78433 0.34657 0.0
C1167 C 1.00888 0.75752 0.35585 0.0
C1168 C 1.00762 0.71937 0.34936 0.0
C1169 C 1.01872 0.72465 0.33637 0.0
N1170 N 1.02679 0.76381 0.33436 0.0
Co1171 Co 0.03845 0.78747 0.31611 0.0
N1172 N 1.0245 0.741 0.30488 0.0
C1173 C 1.01847 0.70341 0.31017 0.0
C1174 C 1.01079 0.67613 0.29994 0.0
C1175 C 1.01258 0.69777 0.28747 0.0
C1176 C 1.02131 0.73724 0.29074 0.0
N1177 N 0.04945 0.81386 0.29817 0.0
C1178 C 0.04261 0.80584 0.2847 0.0
C1179 C 0.05586 0.83154 0.27541 0.0
C1180 C 0.07197 0.85541 0.2833 0.0
C1181 C 0.06766 0.84333 0.29692 0.0
N1182 N 0.05391 0.83269 0.32719 0.0
C1183 C 0.07395 0.85592 0.32306 0.0
C1184 C 0.08404 0.87945 0.33369 0.0
C1185 C 0.06929 0.87052 0.34522 0.0
C1186 C 0.05055 0.84281 0.34081 0.0
N1187 N 0.07133 0.75539 0.31716 0.0
C1188 C 0.11068 0.6936 0.31801 0.0
C1189 C 0.10155 0.71007 0.30527 0.0
C1190 C 0.08198 0.74003 0.30506 0.0
C1191 C 0.10094 0.71168 0.33039 0.0
C1192 C 0.08158 0.74257 0.32974 0.0
N1193 N 1.00463 0.81615 0.31508 0.0
C1194 C 0.97647 0.87624 0.31413 0.0
C1195 C 0.95445 0.85089 0.31556 0.0
C1196 C 0.95847 0.80813 0.31624 0.0
C1197 C 0.98317 0.79179 0.3162 0.0
C1198 C 1.0014 0.85826 0.31393 0.0
H1199 H 0.98452 0.75883 0.31735 0.0
H1200 H 1.01795 0.87825 0.31302 0.0
H1201 H 0.07479 0.74905 0.29493 0.0
H1202 H 0.07417 0.7547 0.33949 0.0
C1203 C 1.0164 0.69754 0.32484 0.0
C1204 C 0.02921 0.82804 0.34958 0.0
C1205 C 1.02794 0.76933 0.28014 0.0
C1206 C 0.07957 0.86 0.30878 0.0
H1207 H 1.0009 0.76438 0.36602 0.0
H1208 H 0.99802 0.6919 0.3533 0.0
H1209 H 1.00399 0.64467 0.30138 0.0
H1210 H 1.00822 0.68576 0.27714 0.0
H1211 H 0.05515 0.83143 0.26405 0.0
H1212 H 0.08549 0.87838 0.27953 0.0
H1213 H 0.09951 0.90174 0.33301 0.0
H1214 H 0.07154 0.88387 0.35556 0.0
H1215 H 0.10907 0.69934 0.29533 0.0
H1216 H 0.1075 0.70101 0.34058 0.0
H1217 H 0.9745 0.90963 0.31343 0.0
H1218 H 0.94247 0.7868 0.31681 0.0
C1219 C 0.78531 0.98416 0.34877 0.0
C1220 C 0.79835 0.011 0.3576 0.0
C1221 C 0.79934 0.04898 0.35082 0.0
C1222 C 0.78718 0.04355 0.33813 0.0
N1223 N 0.77866 1.0045 0.33666 0.0
Co1224 Co 0.76521 0.98014 0.31905 0.0
N1225 N 0.77951 0.02462 0.30707 0.0
C1226 C 0.78643 0.06243 0.31167 0.0
C1227 C 0.79458 0.08775 0.30088 0.0
C1228 C 0.79221 0.06443 0.28884 0.0
C1229 C 0.78277 0.02596 0.29293 0.0
N1230 N 0.75224 0.95311 0.30183 0.0
C1231 C 0.75909 0.95871 0.28826 0.0
C1232 C 0.74458 0.93351 0.27948 0.0
C1233 C 0.72771 0.91234 0.28789 0.0
C1234 C 0.73288 0.92548 0.30128 0.0
N1235 N 0.74967 0.93672 0.33092 0.0
C1236 C 0.72881 0.91432 0.32766 0.0
C1237 C 0.72017 0.89056 0.3387 0.0
C1238 C 0.73678 0.89853 0.34953 0.0
C1239 C 0.75494 0.92615 0.34432 0.0
N1240 N 0.73312 0.01418 0.32036 0.0
C1241 C 0.6934 0.07518 0.32132 0.0
C1242 C 0.70248 0.05941 0.30855 0.0
C1243 C 0.72224 0.0297 0.30828 0.0
C1244 C 0.70408 0.05825 0.33369 0.0
C1245 C 0.72355 0.02756 0.33299 0.0
N1246 N 0.79823 0.94943 0.31757 0.0
C1247 C 0.82476 0.88778 0.31554 0.0
C1248 C 0.8474 0.91186 0.31594 0.0
C1249 C 0.84459 0.95466 0.31724 0.0
C1250 C 0.82032 0.97244 0.31818 0.0
C1251 C 0.80032 0.90723 0.31622 0.0
H1252 H 0.81979 1.00537 0.31962 0.0
H1253 H 0.78323 0.88834 0.31577 0.0
H1254 H 0.72934 0.02081 0.29812 0.0
H1255 H 0.73137 0.01563 0.34271 0.0
C1256 C 0.78927 0.06975 0.32623 0.0
C1257 C 0.77762 0.94043 0.35201 0.0
C1258 C 0.77574 0.99224 0.28316 0.0
C1259 C 0.72153 0.91013 0.3136 0.0
H1260 H 0.80696 1.00418 0.36765 0.0
H1261 H 0.80951 0.07632 0.35432 0.0
H1262 H 0.80221 0.11887 0.30169 0.0
H1263 H 0.79683 0.07457 0.27828 0.0
H1264 H 0.74527 0.93192 0.26813 0.0
H1265 H 0.71345 0.89 0.28463 0.0
H1266 H 0.70459 0.8684 0.33868 0.0
H1267 H 0.73614 0.88458 0.3599 0.0
H1268 H 0.69501 0.07119 0.29869 0.0
H1269 H 0.69748 0.06869 0.34386 0.0
H1270 H 0.8259 0.85437 0.31457 0.0
H1271 H 0.86126 0.97461 0.31788 0.0
C1272 C 1.0066 0.58378 0.09308 0.0
C1273 C 0.98818 0.61209 0.09751 0.0
C1274 C 0.97279 0.62011 0.08617 0.0
C1275 C 0.98225 0.59575 0.0756 0.0
N1276 N 1.00254 0.57279 0.07956 0.0
Co1277 Co 1.01814 0.52803 0.06826 0.0
N1278 N 1.00606 0.55393 0.05045 0.0
C1279 C 0.98715 0.58225 0.0494 0.0
C1280 C 0.9821 0.59407 0.03583 0.0
C1281 C 0.99854 0.57127 0.02777 0.0
C1282 C 1.01273 0.54651 0.03692 0.0
N1283 N 0.03253 0.48237 0.05679 0.0
C1284 C 0.03591 0.47942 0.04264 0.0
C1285 C 0.04554 0.44065 0.03918 0.0
C1286 C 0.0478 0.41865 0.05156 0.0
C1287 C 0.03945 0.44502 0.06191 0.0
N1288 N 0.03068 0.5046 0.08637 0.0
C1289 C 0.03996 0.46599 0.08813 0.0
C1290 C 0.05307 0.4619 0.10058 0.0
C1291 C 0.05171 0.50007 0.107 0.0
C1292 C 0.03697 0.52549 0.09841 0.0
N1293 N 0.98575 0.49475 0.06962 0.0
C1294 C 0.94531 0.43496 0.07094 0.0
C1295 C 0.95553 0.45303 0.08319 0.0
C1296 C 0.97539 0.48306 0.0823 0.0
C1297 C 0.95553 0.44858 0.05809 0.0
C1298 C 0.97544 0.47795 0.05765 0.0
N1299 N 0.05143 0.55807 0.06684 0.0
C1300 C 0.09775 0.55223 0.06749 0.0
C1301 C 0.101 0.59502 0.06604 0.0
C1302 C 0.07845 0.61926 0.06483 0.0
C1303 C 0.05386 0.60017 0.06522 0.0
C1304 C 0.07334 0.5348 0.06796 0.0
H1305 H 0.03692 0.61931 0.06435 0.0
H1306 H 0.07261 0.5019 0.06942 0.0
H1307 H 0.98286 0.49587 0.09194 0.0
H1308 H 0.98314 0.48549 0.04748 0.0
C1309 C 0.97575 0.59894 0.06141 0.0
C1310 C 1.02769 0.56832 0.10194 0.0
C1311 C 0.02869 0.51165 0.03221 0.0
C1312 C 0.04225 0.43917 0.07652 0.0
H1313 H 0.98624 0.62593 0.10779 0.0
H1314 H 0.95724 0.64229 0.08558 0.0
H1315 H 0.96805 0.61641 0.03222 0.0
H1316 H 0.99902 0.57139 0.0164 0.0
H1317 H 0.05032 0.42939 0.02881 0.0
H1318 H 0.0555 0.38768 0.05287 0.0
H1319 H 0.06441 0.43558 0.10399 0.0
H1320 H 0.06174 0.50829 0.11649 0.0
H1321 H 0.94828 0.44398 0.09342 0.0
H1322 H 0.9488 0.43547 0.0483 0.0
H1323 H 0.11414 0.53171 0.06824 0.0
H1324 H 0.07967 0.65267 0.06387 0.0
C1325 C 0.30109 0.66999 0.09417 0.0
C1326 C 0.31933 0.64229 0.09924 0.0
C1327 C 0.33552 0.63398 0.08824 0.0
C1328 C 0.32656 0.65766 0.07726 0.0
N1329 N 0.30591 0.68031 0.0807 0.0
Co1330 Co 0.29034 0.72412 0.069 0.0
N1331 N 0.30284 0.69716 0.05163 0.0
C1332 C 0.32194 0.66907 0.05093 0.0
C1333 C 0.3269 0.65614 0.0375 0.0
C1334 C 0.31021 0.67796 0.0292 0.0
C1335 C 0.296 0.70335 0.03807 0.0
N1336 N 0.276 0.769 0.05718 0.0
C1337 C 0.27275 0.77092 0.04304 0.0
C1338 C 0.26344 0.80964 0.03912 0.0
C1339 C 0.26122 0.83257 0.05124 0.0
C1340 C 0.26929 0.80678 0.06191 0.0
N1341 N 0.2774 0.74848 0.08674 0.0
C1342 C 0.2692 0.78767 0.08835 0.0
C1343 C 0.25745 0.79321 0.10116 0.0
C1344 C 0.25842 0.75517 0.10789 0.0
C1345 C 0.27103 0.7282 0.09891 0.0
N1346 N 0.32257 0.75766 0.0702 0.0
C1347 C 0.3613 0.82031 0.07109 0.0
C1348 C 0.35161 0.80184 0.08347 0.0
C1349 C 0.33249 0.77059 0.08281 0.0
C1350 C 0.35238 0.80398 0.05833 0.0
C1351 C 0.33315 0.7735 0.05811 0.0
N1352 N 0.25716 0.69388 0.06767 0.0
C1353 C 0.21085 0.69979 0.06777 0.0
C1354 C 0.20778 0.65725 0.06584 0.0
C1355 C 0.23026 0.63285 0.06514 0.0
C1356 C 0.25482 0.65185 0.06593 0.0
C1357 C 0.23523 0.71713 0.06871 0.0
H1358 H 0.27181 0.63277 0.06519 0.0
H1359 H 0.23598 0.74992 0.07043 0.0
H1360 H 0.325 0.75817 0.09254 0.0
H1361 H 0.32612 0.76436 0.04797 0.0
C1362 C 0.33345 0.65342 0.06315 0.0
C1363 C 0.27867 0.68443 0.10205 0.0
C1364 C 0.27995 0.73779 0.03306 0.0
C1365 C 0.26689 0.81399 0.0765 0.0
H1366 H 0.32029 0.62849 0.10962 0.0
H1367 H 0.35105 0.61172 0.08809 0.0
H1368 H 0.341 0.63364 0.03413 0.0
H1369 H 0.30955 0.67679 0.01784 0.0
H1370 H 0.25895 0.82027 0.0286 0.0
H1371 H 0.25387 0.86384 0.05217 0.0
H1372 H 0.24757 0.8207 0.10477 0.0
H1373 H 0.25009 0.74845 0.11802 0.0
H1374 H 0.35801 0.8125 0.09365 0.0
H1375 H 0.35984 0.81523 0.04841 0.0
H1376 H 0.19431 0.71989 0.06879 0.0
H1377 H 0.22889 0.59957 0.06382 0.0
C1378 C 1.00581 0.66735 0.15906 0.0
C1379 C 0.98696 0.63956 0.15485 0.0
C1380 C 0.97223 0.63134 0.16645 0.0
C1381 C 0.98244 0.65533 0.17692 0.0
N1382 N 1.00255 0.67816 0.17264 0.0
Co1383 Co 1.01822 0.72376 0.18345 0.0
N1384 N 1.00733 0.69823 0.20153 0.0
C1385 C 0.98889 0.66922 0.20298 0.0
C1386 C 0.98476 0.65767 0.21667 0.0
C1387 C 1.00127 0.68139 0.22438 0.0
C1388 C 1.01454 0.70648 0.21491 0.0
N1389 N 0.03253 0.77046 0.19442 0.0
C1390 C 0.03615 0.77448 0.20851 0.0
C1391 C 0.04499 0.81401 0.21161 0.0
C1392 C 0.0465 0.83534 0.19906 0.0
C1393 C 0.03849 0.80786 0.18897 0.0
N1394 N 0.02964 0.74667 0.16505 0.0
C1395 C 0.03758 0.7858 0.16283 0.0
C1396 C 0.04845 0.79062 0.14976 0.0
C1397 C 0.04712 0.75222 0.14344 0.0
C1398 C 0.03507 0.7257 0.15289 0.0
N1399 N 0.9854 0.75596 0.18239 0.0
C1400 C 0.9446 0.81503 0.18132 0.0
C1401 C 0.95453 0.79692 0.16902 0.0
C1402 C 0.97455 0.76718 0.16978 0.0
C1403 C 0.95517 0.80169 0.19411 0.0
C1404 C 0.9753 0.7727 0.19442 0.0
N1405 N 0.05195 0.6949 0.1845 0.0
C1406 C 0.0981 0.70252 0.18306 0.0
C1407 C 0.10203 0.65987 0.18439 0.0
C1408 C 0.07999 0.63483 0.18624 0.0
C1409 C 0.0551 0.65295 0.18624 0.0
C1410 C 0.07343 0.71899 0.18295 0.0
H1411 H 0.0385 0.63321 0.18751 0.0
H1412 H 0.07211 0.75182 0.18139 0.0
H1413 H 0.98176 0.75429 0.1601 0.0
H1414 H 0.98333 0.76547 0.20454 0.0
C1415 C 0.97682 0.65211 0.19123 0.0
C1416 C 1.027 0.68182 0.15012 0.0
C1417 C 0.02986 0.74255 0.21922 0.0
C1418 C 0.04019 0.81329 0.17426 0.0
H1419 H 0.98459 0.62576 0.14458 0.0
H1420 H 0.95668 0.60926 0.16728 0.0
H1421 H 0.9712 0.63501 0.22061 0.0
H1422 H 1.00231 0.68173 0.23573 0.0
H1423 H 0.04966 0.82622 0.22187 0.0
H1424 H 0.05333 0.86673 0.19748 0.0
H1425 H 0.05797 0.81796 0.14566 0.0
H1426 H 0.05496 0.74501 0.13326 0.0
H1427 H 0.94694 0.80573 0.15885 0.0
H1428 H 0.94857 0.8148 0.20393 0.0
H1429 H 0.11414 0.72366 0.18212 0.0
H1430 H 0.0819 0.60154 0.18745 0.0
C1431 C 0.30045 0.58412 0.1559 0.0
C1432 C 0.31818 0.61206 0.15042 0.0
C1433 C 0.33504 0.62085 0.16104 0.0
C1434 C 0.32695 0.59735 0.17225 0.0
N1435 N 0.30618 0.57431 0.16932 0.0
Co1436 Co 0.29142 0.53117 0.18165 0.0
N1437 N 0.3051 0.55911 0.19857 0.0
C1438 C 0.32433 0.587 0.19871 0.0
C1439 C 0.33017 0.60069 0.21195 0.0
C1440 C 0.31388 0.57962 0.22072 0.0
C1441 C 0.29902 0.55395 0.21228 0.0
N1442 N 0.27795 0.48706 0.19413 0.0
C1443 C 0.27537 0.48635 0.20832 0.0
C1444 C 0.26617 0.44807 0.21277 0.0
C1445 C 0.26323 0.42419 0.20091 0.0
C1446 C 0.27083 0.44901 0.18988 0.0
N1447 N 0.27724 0.5057 0.16438 0.0
C1448 C 0.26809 0.46683 0.1634 0.0
C1449 C 0.25413 0.46137 0.15129 0.0
C1450 C 0.25472 0.49899 0.14433 0.0
C1451 C 0.26971 0.52548 0.15231 0.0
N1452 N 0.32356 0.49759 0.18002 0.0
C1453 C 0.36343 0.437 0.17857 0.0
C1454 C 0.35247 0.45435 0.16633 0.0
C1455 C 0.33285 0.48469 0.16727 0.0
C1456 C 0.35458 0.45234 0.19146 0.0
C1457 C 0.33484 0.482 0.19197 0.0
N1458 N 0.25833 0.56161 0.18342 0.0
C1459 C 0.212 0.55613 0.18436 0.0
C1460 C 0.20908 0.59907 0.1848 0.0
C1461 C 0.23166 0.62332 0.18455 0.0
C1462 C 0.25613 0.60396 0.184 0.0
C1463 C 0.23629 0.53837 0.18353 0.0
H1464 H 0.27316 0.62306 0.1839 0.0
H1465 H 0.23683 0.50529 0.18266 0.0
H1466 H 0.32468 0.49674 0.15766 0.0
H1467 H 0.32802 0.49077 0.2022 0.0
C1468 C 0.33489 0.6021 0.18617 0.0
C1469 C 0.27806 0.56836 0.14829 0.0
C1470 C 0.28275 0.52054 0.2178 0.0
C1471 C 0.26685 0.44122 0.17546 0.0
H1472 H 0.31858 0.62536 0.13996 0.0
H1473 H 0.35051 0.64321 0.16079 0.0
H1474 H 0.34449 0.62333 0.21489 0.0
H1475 H 0.31379 0.58159 0.23207 0.0
H1476 H 0.26201 0.43846 0.22344 0.0
H1477 H 0.25548 0.39308 0.20038 0.0
H1478 H 0.24284 0.43451 0.14847 0.0
H1479 H 0.24419 0.50611 0.13487 0.0
H1480 H 0.3589 0.44446 0.15606 0.0
H1481 H 0.36217 0.44024 0.20125 0.0
H1482 H 0.19537 0.53598 0.18425 0.0
H1483 H 0.23045 0.65685 0.18487 0.0
C1484 C 1.02073 0.47867 0.90482 0.0
C1485 C 1.00736 0.50497 0.89585 0.0
C1486 C 1.00556 0.54282 0.90248 0.0
C1487 C 1.01745 0.53784 0.91527 0.0
N1488 N 1.02653 0.49914 0.91701 0.0
Co1489 Co 0.0399 0.47589 0.93493 0.0
N1490 N 1.0253 0.52097 0.94655 0.0
C1491 C 1.01799 0.55825 0.94154 0.0
C1492 C 1.00977 0.58434 0.95202 0.0
C1493 C 1.01252 0.56218 0.96434 0.0
C1494 C 1.02226 0.5236 0.96073 0.0
N1495 N 0.05281 0.4502 0.95257 0.0
C1496 C 0.04626 0.4571 0.96615 0.0
C1497 C 0.06091 0.43263 0.97516 0.0
C1498 C 0.07753 0.41058 0.96694 0.0
C1499 C 0.07211 0.42251 0.95342 0.0
N1500 N 0.05575 0.43189 0.92344 0.0
C1501 C 0.07655 0.4098 0.92714 0.0
C1502 C 0.08614 0.38634 0.91635 0.0
C1503 C 0.07025 0.39412 0.90518 0.0
C1504 C 0.05143 0.42118 0.90994 0.0
N1505 N 0.07188 0.51012 0.93331 0.0
C1506 C 0.1119 0.57059 0.93155 0.0
C1507 C 0.10225 0.55676 0.94452 0.0
C1508 C 0.08245 0.52718 0.94517 0.0
C1509 C 0.10157 0.5519 0.91943 0.0
C1510 C 0.08189 0.52165 0.92053 0.0
N1511 N 1.00707 0.44466 0.93661 0.0
C1512 C 0.98118 0.38215 0.93835 0.0
C1513 C 0.95831 0.40562 0.93806 0.0
C1514 C 0.96064 0.44859 0.93698 0.0
C1515 C 0.98474 0.46713 0.93607 0.0
C1516 C 1.0054 0.40232 0.93779 0.0
H1517 H 0.98494 0.50012 0.93468 0.0
H1518 H 1.02266 0.38382 0.93817 0.0
H1519 H 0.07508 0.51954 0.95542 0.0
H1520 H 0.07431 0.50847 0.91098 0.0
C1521 C 1.01503 0.56444 0.92694 0.0
C1522 C 0.02948 0.4355 0.90152 0.0
C1523 C 0.0298 0.49116 0.97099 0.0
C1524 C 0.08348 0.40648 0.94128 0.0
H1525 H 0.99896 0.49785 0.8858 0.0
H1526 H 0.99509 0.56977 0.89881 0.0
H1527 H 1.00191 0.61524 0.95083 0.0
H1528 H 1.00798 0.5732 0.97477 0.0
H1529 H 0.06054 0.43219 0.98653 0.0
H1530 H 0.0919 0.38861 0.97042 0.0
H1531 H 0.10206 0.36485 0.9167 0.0
H1532 H 0.07197 0.38063 0.89482 0.0
H1533 H 0.10933 0.56992 0.95423 0.0
H1534 H 0.10859 0.56059 0.90912 0.0
H1535 H 0.98037 0.34864 0.93911 0.0
H1536 H 0.94373 0.46805 0.93644 0.0
C1537 C 0.77524 0.29232 0.904 0.0
C1538 C 0.78118 0.26537 0.89316 0.0
C1539 C 0.78271 0.22624 0.89899 0.0
C1540 C 0.77754 0.23127 0.91305 0.0
N1541 N 0.77297 0.27111 0.91638 0.0
Co1542 Co 0.76447 0.29167 0.93546 0.0
N1543 N 0.77721 0.24065 0.94487 0.0
C1544 C 0.78099 0.20394 0.93851 0.0
C1545 C 0.78883 0.17353 0.94773 0.0
C1546 C 0.78968 0.19228 0.96069 0.0
C1547 C 0.78226 0.23322 0.95867 0.0
N1548 N 0.75609 0.31384 0.95438 0.0
C1549 C 0.76377 0.30118 0.96727 0.0
C1550 C 0.75258 0.32519 0.97774 0.0
C1551 C 0.73714 0.35336 0.97117 0.0
C1552 C 0.73975 0.34513 0.95714 0.0
N1553 N 0.75127 0.34283 0.92621 0.0
C1554 C 0.73612 0.37179 0.93214 0.0
C1555 C 0.73317 0.40664 0.92402 0.0
C1556 C 0.74718 0.39929 0.9122 0.0
C1557 C 0.75729 0.3595 0.91354 0.0
N1558 N 0.73006 0.26401 0.93438 0.0
C1559 C 0.69026 0.20295 0.93227 0.0
C1560 C 0.70091 0.21436 0.94526 0.0
C1561 C 0.7205 0.2443 0.94609 0.0
C1562 C 0.69892 0.22566 0.92044 0.0
C1563 C 0.71829 0.25633 0.92176 0.0
N1564 N 0.79956 0.31578 0.9365 0.0
C1565 C 0.83004 0.3715 0.94048 0.0
C1566 C 0.85099 0.34554 0.9371 0.0
C1567 C 0.84524 0.30427 0.93381 0.0
C1568 C 0.81986 0.29045 0.93336 0.0
C1569 C 0.80456 0.35606 0.94016 0.0
H1570 H 0.81686 0.25871 0.93041 0.0
H1571 H 0.78897 0.37665 0.94279 0.0
H1572 H 0.72892 0.24928 0.95625 0.0
H1573 H 0.72476 0.27198 0.91235 0.0
C1574 C 0.78031 0.20115 0.92373 0.0
C1575 C 0.7701 0.33723 0.90205 0.0
C1576 C 0.77845 0.26335 0.97012 0.0
C1577 C 0.73045 0.37017 0.94639 0.0
H1578 H 0.784 0.27319 0.88219 0.0
H1579 H 0.78777 0.19779 0.89367 0.0
H1580 H 0.79394 0.1418 0.9453 0.0
H1581 H 0.79484 0.17745 0.97052 0.0
H1582 H 0.75467 0.32206 0.98901 0.0
H1583 H 0.72588 0.3776 0.97602 0.0
H1584 H 0.72352 0.43521 0.92678 0.0
H1585 H 0.74954 0.42095 0.90358 0.0
H1586 H 0.69474 0.19931 0.95488 0.0
H1587 H 0.69184 0.21863 0.91005 0.0
H1588 H 0.83322 0.40368 0.9432 0.0
H1589 H 0.86032 0.2821 0.93171 0.0
C1590 C 1.01839 0.2847 0.84818 0.0
C1591 C 1.00334 0.25901 0.85651 0.0
C1592 C 1.00176 0.22135 0.84978 0.0
C1593 C 1.01509 0.22606 0.83742 0.0
N1594 N 1.02472 0.26457 0.836 0.0
Co1595 Co 0.03833 0.28858 0.81819 0.0
N1596 N 1.02418 0.24368 0.8063 0.0
C1597 C 1.01674 0.20626 0.81113 0.0
C1598 C 1.00884 0.18043 0.80052 0.0
C1599 C 1.01191 0.2029 0.78829 0.0
C1600 C 1.02151 0.24139 0.7921 0.0
N1601 N 0.05151 0.31487 0.80068 0.0
C1602 C 0.04537 0.30822 0.78703 0.0
C1603 C 0.05998 0.33327 0.77818 0.0
C1604 C 0.07618 0.35548 0.78657 0.0
C1605 C 0.07054 0.34305 0.80001 0.0
N1606 N 0.05366 0.33263 0.82994 0.0
C1607 C 0.07415 0.35563 0.82632 0.0
C1608 C 0.08332 0.37938 0.83712 0.0
C1609 C 0.06754 0.37089 0.84825 0.0
C1610 C 0.04921 0.34295 0.8435 0.0
N1611 N 0.07042 0.2546 0.81992 0.0
C1612 C 0.11008 0.19338 0.82181 0.0
C1613 C 0.10086 0.20777 0.80881 0.0
C1614 C 0.08126 0.23774 0.80809 0.0
C1615 C 0.09957 0.21206 0.8339 0.0
C1616 C 0.08008 0.24264 0.83274 0.0
N1617 N 1.00533 0.31941 0.81635 0.0
C1618 C 0.97902 0.38124 0.81356 0.0
C1619 C 0.95631 0.35736 0.81382 0.0
C1620 C 0.95893 0.31463 0.81562 0.0
C1621 C 0.98312 0.29665 0.81696 0.0
C1622 C 1.00338 0.3616 0.81469 0.0
H1623 H 0.98348 0.26379 0.8186 0.0
H1624 H 1.02054 0.38035 0.81424 0.0
H1625 H 0.07421 0.24577 0.79782 0.0
H1626 H 0.07231 0.25566 0.84227 0.0
C1627 C 1.01315 0.1998 0.82565 0.0
C1628 C 1.02796 0.32694 0.85214 0.0
C1629 C 0.02935 0.27398 0.78195 0.0
C1630 C 0.08133 0.35925 0.81224 0.0
H1631 H 0.99342 0.26676 0.8661 0.0
H1632 H 0.9903 0.19495 0.85297 0.0
H1633 H 1.00093 0.14952 0.80155 0.0
H1634 H 1.00769 0.19214 0.77779 0.0
H1635 H 0.05983 0.33406 0.76681 0.0
H1636 H 0.09038 0.37795 0.78325 0.0
H1637 H 0.099 0.40135 0.83682 0.0
H1638 H 0.06927 0.3841 0.85864 0.0
H1639 H 0.10808 0.19471 0.79911 0.0
H1640 H 0.10628 0.20307 0.84424 0.0
H1641 H 0.97799 0.41461 0.8123 0.0
H1642 H 0.94215 0.29488 0.81621 0.0
C1643 C 0.77427 0.47342 0.84632 0.0
C1644 C 0.78065 0.50076 0.85698 0.0
C1645 C 0.78222 0.53962 0.85093 0.0
C1646 C 0.77664 0.53407 0.83694 0.0
N1647 N 0.77176 0.49415 0.83387 0.0
Co1648 Co 0.76271 0.47283 0.81499 0.0
N1649 N 0.77576 0.52297 0.80519 0.0
C1650 C 0.77996 0.55994 0.81129 0.0
C1651 C 0.78794 0.58959 0.80182 0.0
C1652 C 0.78844 0.57005 0.78898 0.0
C1653 C 0.78071 0.52942 0.79132 0.0
N1654 N 0.75367 0.44995 0.79628 0.0
C1655 C 0.7613 0.46161 0.78328 0.0
C1656 C 0.74959 0.43746 0.77302 0.0
C1657 C 0.73387 0.41026 0.77986 0.0
C1658 C 0.73683 0.41915 0.79381 0.0
N1659 N 0.74923 0.42252 0.82461 0.0
C1660 C 0.7335 0.39386 0.81899 0.0
C1661 C 0.73032 0.35953 0.82735 0.0
C1662 C 0.7448 0.36696 0.83899 0.0
C1663 C 0.75544 0.40628 0.83731 0.0
N1664 N 0.72856 0.50131 0.81615 0.0
C1665 C 0.68857 0.56172 0.81832 0.0
C1666 C 0.69926 0.55084 0.80531 0.0
C1667 C 0.71901 0.52114 0.80446 0.0
C1668 C 0.69727 0.5392 0.83014 0.0
C1669 C 0.71683 0.50886 0.8288 0.0
N1670 N 0.79756 0.44781 0.81386 0.0
C1671 C 0.82738 0.39115 0.8099 0.0
C1672 C 0.84872 0.41675 0.8129 0.0
C1673 C 0.8434 0.45805 0.81637 0.0
C1674 C 0.81815 0.47261 0.81689 0.0
C1675 C 0.80208 0.40729 0.81034 0.0
H1676 H 0.8155 0.50447 0.81981 0.0
H1677 H 0.78622 0.38701 0.80793 0.0
H1678 H 0.72754 0.51637 0.7943 0.0
H1679 H 0.72328 0.49301 0.83818 0.0
C1680 C 0.7795 0.56357 0.82606 0.0
C1681 C 0.76902 0.42863 0.84851 0.0
C1682 C 0.7766 0.49855 0.78012 0.0
C1683 C 0.72745 0.39498 0.80478 0.0
H1684 H 0.78378 0.49335 0.86795 0.0
H1685 H 0.78765 0.56821 0.85606 0.0
H1686 H 0.79337 0.62133 0.80401 0.0
H1687 H 0.79362 0.58414 0.77904 0.0
H1688 H 0.75158 0.43985 0.76172 0.0
H1689 H 0.72221 0.38615 0.77522 0.0
H1690 H 0.7202 0.33119 0.82485 0.0
H1691 H 0.74714 0.34563 0.84771 0.0
H1692 H 0.6933 0.56678 0.79581 0.0
H1693 H 0.68926 0.54531 0.84042 0.0
H1694 H 0.83003 0.35867 0.80747 0.0
H1695 H 0.85876 0.47961 0.81861 0.0
C1696 C 0.5453 0.11435 0.11945 0.0
C1697 C 0.5222 0.10147 0.11319 0.0
C1698 C 0.54528 0.13754 0.13201 0.0
C1699 C 0.52215 0.14986 0.13838 0.0
H1700 H 0.56341 0.10687 0.11451 0.0
H1701 H 0.56339 0.14567 0.13682 0.0
S1702 S 0.45663 0.12515 0.12586 0.0
N1703 N 0.47575 0.10098 0.11476 0.0
N1704 N 0.47567 0.14953 0.13693 0.0
C1705 C 0.49904 0.13833 0.13188 0.0
C1706 C 0.49908 0.11241 0.1198 0.0
C1707 C 0.76362 0.1157 0.13328 0.0
C1708 C 0.7868 0.10345 0.13968 0.0
C1709 C 0.76348 0.13882 0.12059 0.0
C1710 C 0.78649 0.15166 0.11415 0.0
H1711 H 0.74555 0.10754 0.13815 0.0
H1712 H 0.74531 0.14622 0.11569 0.0
S1713 S 0.85216 0.12815 0.12677 0.0
N1714 N 0.83324 0.10417 0.1381 0.0
N1715 N 0.83294 0.15189 0.11556 0.0
C1716 C 0.80966 0.14071 0.12076 0.0
C1717 C 0.80982 0.11513 0.13305 0.0
C1718 C 0.55602 0.86641 0.86959 0.0
C1719 C 0.53273 0.85455 0.86333 0.0
C1720 C 0.55661 0.892 0.88142 0.0
C1721 C 0.53402 0.90336 0.88851 0.0
H1722 H 0.57406 0.85767 0.8648 0.0
H1723 H 0.57509 0.90161 0.88544 0.0
S1724 S 0.46796 0.8777 0.87723 0.0
N1725 N 0.48633 0.85638 0.86507 0.0
N1726 N 0.48756 0.89975 0.88862 0.0
C1727 C 0.51053 0.89045 0.88274 0.0
C1728 C 0.50988 0.8665 0.87004 0.0
C1729 C 0.29331 0.89117 0.87019 0.0
C1730 C 0.26995 0.90476 0.86433 0.0
C1731 C 0.29392 0.86757 0.88278 0.0
C1732 C 0.27114 0.85558 0.88966 0.0
H1733 H 0.31117 0.89846 0.86493 0.0
H1734 H 0.31227 0.85897 0.88723 0.0
S1735 S 0.20509 0.88233 0.87839 0.0
N1736 N 0.22366 0.90603 0.86683 0.0
N1737 N 0.22462 0.8574 0.88914 0.0
C1738 C 0.24774 0.86794 0.88358 0.0
C1739 C 0.2472 0.894 0.87141 0.0
C1740 C 0.49726 0.62881 0.61849 0.0
C1741 C 0.51982 0.61529 0.61181 0.0
C1742 C 0.49804 0.65416 0.63039 0.0
C1743 C 0.52133 0.66372 0.63707 0.0
H1744 H 0.4787 0.62067 0.61422 0.0
H1745 H 0.48008 0.66432 0.63493 0.0
S1746 S 0.58593 0.63371 0.62455 0.0
N1747 N 0.56631 0.6139 0.61271 0.0
N1748 N 0.56763 0.65702 0.63631 0.0
C1749 C 0.5441 0.64954 0.63081 0.0
C1750 C 0.54336 0.62575 0.61807 0.0
C1751 C 0.76401 0.62124 0.62978 0.0
C1752 C 0.78693 0.60642 0.63584 0.0
C1753 C 0.76422 0.64517 0.61725 0.0
C1754 C 0.7874 0.65627 0.61059 0.0
H1755 H 0.74588 0.61488 0.63489 0.0
H1756 H 0.74617 0.65499 0.61272 0.0
S1757 S 0.85259 0.62661 0.62255 0.0
N1758 N 0.83325 0.60332 0.63382 0.0
N1759 N 0.83384 0.65246 0.61163 0.0
C1760 C 0.81036 0.64255 0.61684 0.0
C1761 C 0.81006 0.61621 0.62897 0.0
C1762 C 0.51859 0.39612 0.38069 0.0
C1763 C 0.54088 0.40828 0.38786 0.0
C1764 C 0.52007 0.37193 0.3684 0.0
C1765 C 0.54382 0.35751 0.36327 0.0
H1766 H 0.49995 0.40472 0.38474 0.0
H1767 H 0.50254 0.36448 0.36287 0.0
S1768 S 0.6077 0.38179 0.37808 0.0
N1769 N 0.58743 0.40716 0.38823 0.0
N1770 N 0.58995 0.35716 0.36644 0.0
C1771 C 0.56612 0.3692 0.37049 0.0
C1772 C 0.56473 0.3961 0.38232 0.0
C1773 C 0.24884 0.38907 0.36668 0.0
C1774 C 0.27135 0.40255 0.35989 0.0
C1775 C 0.24972 0.36465 0.37889 0.0
C1776 C 0.27305 0.35562 0.38567 0.0
H1777 H 0.23026 0.39668 0.3623 0.0
H1778 H 0.23179 0.3546 0.38354 0.0
S1779 S 0.33754 0.38554 0.37283 0.0
N1780 N 0.31783 0.4045 0.3608 0.0
N1781 N 0.31932 0.36269 0.3848 0.0
C1782 C 0.29575 0.36964 0.37924 0.0
C1783 C 0.29492 0.39271 0.36627 0.0
C1784 C 0.04231 0.12208 0.61866 0.0
C1785 C 1.01928 0.10975 0.6121 0.0
C1786 C 0.04225 0.14541 0.6313 0.0
C1787 C 1.01917 0.15841 0.63767 0.0
H1788 H 0.06048 0.11397 0.61392 0.0
H1789 H 0.06037 0.153 0.6362 0.0
S1790 S 0.95375 0.13494 0.62463 0.0
N1791 N 0.97284 0.11082 0.61351 0.0
N1792 N 0.97277 0.15857 0.6359 0.0
C1793 C 0.99615 0.14718 0.63094 0.0
C1794 C 0.99619 0.12159 0.61865 0.0
C1795 C 0.26309 0.14336 0.61889 0.0
C1796 C 0.28623 0.15627 0.61259 0.0
C1797 C 0.26298 0.1195 0.63143 0.0
C1798 C 0.28602 0.10651 0.63782 0.0
H1799 H 0.245 0.15144 0.61402 0.0
H1800 H 0.24482 0.11155 0.63624 0.0
S1801 S 0.35164 0.13136 0.62536 0.0
N1802 N 0.33266 0.15601 0.61424 0.0
N1803 N 0.33247 0.1067 0.63638 0.0
C1804 C 0.30916 0.11813 0.6313 0.0
C1805 C 0.30927 0.14455 0.6192 0.0
C1806 C 1.01973 0.84207 0.37575 0.0
C1807 C 1.02076 0.85605 0.3617 0.0
C1808 C 1.01861 0.87006 0.38716 0.0
C1809 C 1.02127 0.9136 0.38535 0.0
H1810 H 1.02199 0.80961 0.37824 0.0
H1811 H 1.01851 0.85708 0.39768 0.0
S1812 S 1.0236 0.96665 0.35056 0.0
N1813 N 1.0197 0.91723 0.34666 0.0
N1814 N 1.02514 0.96853 0.36786 0.0
C1815 C 1.02161 0.92805 0.37133 0.0
C1816 C 1.0196 0.89968 0.35969 0.0
C1817 C 0.79162 0.89451 0.38853 0.0
C1818 C 0.78874 0.85132 0.3862 0.0
C1819 C 0.79009 0.92393 0.3775 0.0
C1820 C 0.78806 0.91159 0.36337 0.0
H1821 H 0.79182 0.90607 0.39921 0.0
H1822 H 0.78799 0.95611 0.38035 0.0
S1823 S 0.78542 0.80262 0.35091 0.0
N1824 N 0.78498 0.79838 0.3682 0.0
N1825 N 0.78852 0.85262 0.34755 0.0
C1826 C 0.7894 0.86836 0.36077 0.0
C1827 C 0.78823 0.83851 0.37207 0.0
C1828 C 0.03619 0.66694 0.12395 0.0
C1829 C 0.03526 0.6534 0.13805 0.0
C1830 C 0.03745 0.63861 0.11264 0.0
C1831 C 0.03509 0.59509 0.11458 0.0
H1832 H 0.03379 0.6993 0.12135 0.0
H1833 H 0.03754 0.65129 0.10207 0.0
S1834 S 0.03275 0.54307 0.14956 0.0
N1835 N 0.03642 0.59264 0.15329 0.0
N1836 N 0.03133 0.54065 0.13227 0.0
C1837 C 0.0347 0.58107 0.12866 0.0
C1838 C 0.03651 0.60982 0.14021 0.0
C1839 C 0.26555 0.63841 0.13864 0.0
C1840 C 0.26839 0.59526 0.13623 0.0
C1841 C 0.26679 0.66789 0.12762 0.0
C1842 C 0.26844 0.65562 0.11347 0.0
H1843 H 0.26561 0.64987 0.14933 0.0
H1844 H 0.269 0.70003 0.13048 0.0
S1845 S 0.27095 0.54678 0.10089 0.0
N1846 N 0.27186 0.54245 0.11816 0.0
N1847 N 0.2676 0.59678 0.09759 0.0
C1848 C 0.26703 0.61243 0.11084 0.0
C1849 C 0.26857 0.58253 0.12209 0.0
C1850 C 1.01821 0.39597 0.86369 0.0
C1851 C 1.02071 0.35232 0.86512 0.0
C1852 C 1.01968 0.42311 0.87531 0.0
C1853 C 1.02107 0.40812 0.88924 0.0
H1854 H 1.01784 0.40969 0.85327 0.0
H1855 H 1.02189 0.45576 0.87308 0.0
S1856 S 1.0243 0.29678 0.89943 0.0
N1857 N 1.02505 0.29609 0.8821 0.0
N1858 N 1.02077 0.34593 0.90379 0.0
C1859 C 1.02011 0.36439 0.89091 0.0
C1860 C 1.02154 0.33685 0.87901 0.0
C1861 C 0.79311 0.37032 0.88125 0.0
C1862 C 0.77013 0.35743 0.88773 0.0
C1863 C 0.79289 0.39495 0.86888 0.0
C1864 C 0.7697 0.40881 0.86288 0.0
H1865 H 0.81132 0.36161 0.88585 0.0
H1866 H 0.81091 0.40282 0.8639 0.0
S1867 S 0.70442 0.38443 0.87595 0.0
N1868 N 0.72365 0.35879 0.88668 0.0
N1869 N 0.72332 0.40933 0.86485 0.0
C1870 C 0.74674 0.3972 0.86959 0.0
C1871 C 0.74692 0.37005 0.8815 0.0
C1872 C 0.40085 0.85815 0.08074 0.0
C1873 C 0.38004 0.85663 0.07123 0.0
C1874 C 0.41914 0.89081 0.08039 0.0
C1875 C 0.41763 0.92359 0.0705 0.0
H1876 H 0.40349 0.83328 0.08829 0.0
H1877 H 0.43506 0.88965 0.08768 0.0
S1878 S 0.36512 0.93817 0.04461 0.0
N1879 N 0.35783 0.89419 0.05263 0.0
N1880 N 0.3921 0.95412 0.05182 0.0
C1881 C 0.39643 0.92326 0.06132 0.0
C1882 C 0.37776 0.89035 0.06173 0.0
C1883 C 0.9085 0.33317 0.07929 0.0
C1884 C 0.88712 0.33448 0.07015 0.0
C1885 C 0.92671 0.36597 0.07986 0.0
C1886 C 0.92456 0.40178 0.07128 0.0
H1887 H 0.91162 0.30607 0.08584 0.0
H1888 H 0.94304 0.36263 0.08678 0.0
S1889 S 0.87042 0.42413 0.04707 0.0
N1890 N 0.86374 0.37769 0.05349 0.0
N1891 N 0.89781 0.4379 0.05435 0.0
C1892 C 0.9028 0.40417 0.06253 0.0
C1893 C 0.88423 0.37109 0.06201 0.0
C1894 C 0.42352 0.37245 0.18773 0.0
C1895 C 0.42101 0.33557 0.17982 0.0
C1896 C 0.40532 0.40493 0.18702 0.0
C1897 C 0.38359 0.4029 0.17823 0.0
H1898 H 0.43986 0.37654 0.1946 0.0
H1899 H 0.40838 0.43209 0.19348 0.0
S1900 S 0.3669 0.31337 0.15553 0.0
N1901 N 0.39407 0.2992 0.16304 0.0
N1902 N 0.36047 0.36025 0.16153 0.0
C1903 C 0.3809 0.36662 0.17009 0.0
C1904 C 0.39936 0.3332 0.1709 0.0
C1905 C 0.90768 0.91687 0.17349 0.0
C1906 C 0.88618 0.91487 0.18254 0.0
C1907 C 0.92596 0.88424 0.17277 0.0
C1908 C 0.92377 0.84797 0.1811 0.0
H1909 H 0.91083 0.94437 0.16714 0.0
H1910 H 0.94238 0.88805 0.16593 0.0
S1911 S 0.86946 0.82383 0.20499 0.0
N1912 N 0.86268 0.87052 0.19883 0.0
N1913 N 0.897 0.81071 0.19773 0.0
C1914 C 0.90194 0.84491 0.18977 0.0
C1915 C 0.88326 0.87778 0.19042 0.0
C1916 C 0.67396 0.13182 0.94039 0.0
C1917 C 0.67138 0.16662 0.93133 0.0
C1918 C 0.65649 0.09822 0.94029 0.0
C1919 C 0.63552 0.09675 0.93095 0.0
H1920 H 0.6898 0.13023 0.94771 0.0
H1921 H 0.65951 0.07294 0.94765 0.0
S1922 S 0.61885 0.17944 0.90519 0.0
N1923 N 0.645 0.19711 0.91288 0.0
N1924 N 0.61299 0.13375 0.91244 0.0
C1925 C 0.63279 0.13077 0.92165 0.0
C1926 C 0.65041 0.16547 0.92188 0.0
C1927 C 0.17201 0.63517 0.94057 0.0
C1928 C 0.17013 0.67131 0.93209 0.0
C1929 C 0.1536 0.60295 0.94011 0.0
C1930 C 0.13227 0.60441 0.931 0.0
H1931 H 0.18801 0.63144 0.9477 0.0
H1932 H 0.15619 0.57643 0.947 0.0
S1933 S 0.11728 0.69176 0.90673 0.0
N1934 N 0.14417 0.70629 0.91441 0.0
N1935 N 0.11027 0.64565 0.91334 0.0
C1936 C 0.13024 0.63986 0.92228 0.0
C1937 C 0.14889 0.67307 0.92285 0.0
C1938 C 0.63076 0.63264 0.80987 0.0
C1939 C 0.63305 0.66652 0.81923 0.0
C1940 C 0.6483 0.59908 0.80983 0.0
C1941 C 0.66905 0.59676 0.81931 0.0
H1942 H 0.61511 0.63172 0.80242 0.0
H1943 H 0.64548 0.5745 0.80226 0.0
S1944 S 0.68496 0.67706 0.84581 0.0
N1945 N 0.65894 0.69533 0.83808 0.0
N1946 N 0.69108 0.63212 0.83824 0.0
C1947 C 0.6715 0.62991 0.82888 0.0
C1948 C 0.6538 0.66454 0.82881 0.0
C1949 C 0.15154 0.1597 0.81334 0.0
C1950 C 0.13016 0.15902 0.82244 0.0
C1951 C 0.1697 0.12705 0.81301 0.0
C1952 C 0.16755 0.09128 0.82164 0.0
H1953 H 0.15436 0.18593 0.80635 0.0
H1954 H 0.18573 0.13016 0.80586 0.0
S1955 S 0.11444 0.07267 0.84701 0.0
N1956 N 0.10777 0.11869 0.84022 0.0
N1957 N 0.14128 0.05741 0.83943 0.0
C1958 C 0.14626 0.09026 0.83086 0.0
C1959 C 0.12783 0.12385 0.83129 0.0
C1960 C 0.42504 0.38027 0.56044 0.0
C1961 C 0.42198 0.41521 0.5693 0.0
C1962 C 0.40755 0.34667 0.56042 0.0
C1963 C 0.38613 0.34529 0.56945 0.0
H1964 H 0.44124 0.37857 0.55337 0.0
H1965 H 0.41093 0.32131 0.55321 0.0
S1966 S 0.36814 0.42821 0.59459 0.0
N1967 N 0.39465 0.44585 0.5872 0.0
N1968 N 0.36268 0.38242 0.58746 0.0
C1969 C 0.38293 0.37939 0.57856 0.0
C1970 C 0.40054 0.41413 0.57843 0.0
C1971 C 0.90598 0.85184 0.55783 0.0
C1972 C 0.88546 0.84923 0.56745 0.0
C1973 C 0.92369 0.88517 0.55796 0.0
C1974 C 0.92176 0.91866 0.56753 0.0
H1975 H 0.90849 0.82765 0.55008 0.0
H1976 H 0.93918 0.88436 0.55041 0.0
S1977 S 0.87048 0.92818 0.59456 0.0
N1978 N 0.86405 0.88369 0.58678 0.0
N1979 N 0.89636 0.94667 0.58674 0.0
C1980 C 0.9012 0.91636 0.57724 0.0
C1981 C 0.88338 0.88186 0.57724 0.0
C1982 C 0.4022 0.85382 0.67333 0.0
C1983 C 0.42327 0.85234 0.68271 0.0
C1984 C 0.38453 0.88747 0.67322 0.0
C1985 C 0.38685 0.92139 0.68251 0.0
H1986 H 0.3989 0.82825 0.66622 0.0
H1987 H 0.36845 0.88626 0.66605 0.0
S1988 S 0.44025 0.93649 0.70776 0.0
N1989 N 0.44657 0.89126 0.70046 0.0
N1990 N 0.41334 0.95277 0.70049 0.0
C1991 C 0.40823 0.92101 0.69156 0.0
C1992 C 0.42633 0.88715 0.6916 0.0
C1993 C 0.88487 0.38762 0.67256 0.0
C1994 C 0.88724 0.42209 0.68164 0.0
C1995 C 0.9025 0.35389 0.67289 0.0
C1996 C 0.92359 0.3528 0.68226 0.0
H1997 H 0.86879 0.38608 0.6654 0.0
H1998 H 0.89915 0.32794 0.66595 0.0
S1999 S 0.94074 0.43835 0.70674 0.0
N2000 N 0.91385 0.45433 0.69938 0.0
N2001 N 0.94697 0.39268 0.69973 0.0
C2002 C 0.92671 0.38814 0.69091 0.0
C2003 C 0.90866 0.42209 0.69067 0.0
C2004 C 0.65987 0.59107 0.43996 0.0
C2005 C 0.63963 0.5874 0.43021 0.0
C2006 C 0.6777 0.6241 0.43935 0.0
C2007 C 0.67627 0.65591 0.42905 0.0
H2008 H 0.66204 0.56802 0.44819 0.0
H2009 H 0.69288 0.62454 0.4471 0.0
S2010 S 0.62609 0.66245 0.40137 0.0
N2011 N 0.61899 0.6194 0.41002 0.0
N2012 N 0.65192 0.68148 0.40902 0.0
C2013 C 0.65612 0.65254 0.41918 0.0
C2014 C 0.63804 0.61854 0.41974 0.0
C2015 C 0.15444 0.10441 0.437 0.0
C2016 C 0.13323 0.1053 0.4278 0.0
C2017 C 0.17274 0.13681 0.43738 0.0
C2018 C 0.17089 0.1725 0.42869 0.0
H2019 H 0.15703 0.07821 0.44403 0.0
H2020 H 0.18865 0.13358 0.44459 0.0
S2021 S 0.11826 0.19159 0.40308 0.0
N2022 N 0.11129 0.14572 0.40989 0.0
N2023 N 0.14506 0.20657 0.41076 0.0
C2024 C 0.14975 0.17373 0.41937 0.0
C2025 C 0.13119 0.14039 0.41891 0.0
C2026 C 0.65023 0.10428 0.31365 0.0
C2027 C 0.67308 0.10895 0.32143 0.0
C2028 C 0.63126 0.13568 0.31317 0.0
C2029 C 0.63433 0.17403 0.32013 0.0
H2030 H 0.64682 0.07577 0.30797 0.0
H2031 H 0.61402 0.12994 0.30716 0.0
S2032 S 0.69083 0.203 0.34166 0.0
N2033 N 0.69762 0.15565 0.33618 0.0
N2034 N 0.66246 0.21463 0.33501 0.0
C2035 C 0.65723 0.17941 0.32778 0.0
C2036 C 0.67636 0.14701 0.32852 0.0
C2037 C 0.16867 0.6234 0.32764 0.0
C2038 C 0.16773 0.59126 0.3176 0.0
C2039 C 0.15018 0.65578 0.3279 0.0
C2040 C 0.1297 0.6576 0.31817 0.0
H2041 H 0.18429 0.62428 0.33512 0.0
H2042 H 0.15241 0.68019 0.33558 0.0
S2043 S 0.11636 0.57749 0.29105 0.0
N2044 N 0.14321 0.5616 0.29848 0.0
N2045 N 0.10843 0.62076 0.29918 0.0
C2046 C 0.128 0.62442 0.30851 0.0
C2047 C 0.14692 0.59188 0.30816 0.0
C2048 C 0.54548 0.03065 0.00655 0.0
C2049 C 0.52854 0.00776 0.01506 0.0
C2050 C 0.54416 0.0284 0.99185 0.0
C2051 C 0.52565 1.00356 0.98521 0.0
H2052 H 0.55949 0.05102 0.01132 0.0
H2053 H 0.55816 0.04517 0.98562 0.0
S2054 S 0.47647 0.93879 0.00276 0.0
N2055 N 0.4922 0.96073 0.01583 0.0
N2056 N 0.49018 0.95571 0.98816 0.0
C2057 C 0.50854 0.98082 0.9936 0.0
C2058 C 0.50988 0.98307 0.00854 0.0
C2059 C 0.79798 0.26901 0.00843 0.0
C2060 C 0.77902 0.24505 0.01515 0.0
C2061 C 0.79887 0.27235 0.9937 0.0
C2062 C 0.78108 0.25136 0.9852 0.0
H2063 H 0.81246 0.28464 0.01461 0.0
H2064 H 0.81314 0.29233 0.98891 0.0
S2065 S 0.72784 0.18467 0.99771 0.0
N2066 N 0.74238 0.19962 0.01226 0.0
N2067 N 0.74372 0.20653 0.9846 0.0
C2068 C 0.76215 0.22718 0.99182 0.0
C2069 C 0.76121 0.22389 0.00678 0.0
C2070 C 0.55414 0.22319 0.2429 0.0
C2071 C 0.53536 0.24536 0.23538 0.0
C2072 C 0.55517 0.22476 0.25766 0.0
C2073 C 0.53701 0.24761 0.26531 0.0
H2074 H 0.56782 0.20404 0.23733 0.0
H2075 H 0.57048 0.20868 0.26311 0.0
S2076 S 0.4834 0.30937 0.25052 0.0
N2077 N 0.49791 0.28977 0.23663 0.0
N2078 N 0.49964 0.29243 0.26429 0.0
C2079 C 0.51796 0.26933 0.25788 0.0
C2080 C 0.5172 0.26833 0.24293 0.0
C2081 C 0.75936 0.02563 0.24583 0.0
C2082 C 0.77636 1.00203 0.23763 0.0
C2083 C 0.7599 0.02348 0.26059 0.0
C2084 C 0.77765 0.99797 0.26764 0.0
H2085 H 0.74615 0.04695 0.2408 0.0
H2086 H 0.74631 0.04174 0.26655 0.0
S2087 S 0.8261 0.92998 0.25107 0.0
N2088 N 0.81151 0.95263 0.23767 0.0
N2089 N 0.81201 0.94779 0.26539 0.0
C2090 C 0.79439 0.9737 0.25958 0.0
C2091 C 0.7939 0.97595 0.24458 0.0
C2092 C 0.26402 0.7251 0.99422 0.0
C2093 C 0.28193 0.75136 0.98759 0.0
C2094 C 0.26291 0.72177 0.00897 0.0
C2095 C 0.27931 0.74522 0.01756 0.0
H2096 H 0.25021 0.70819 0.98797 0.0
H2097 H 0.24909 0.70088 0.0137 0.0
S2098 S 0.33004 0.81733 0.00537 0.0
N2099 N 0.31671 0.80038 0.99073 0.0
N2100 N 0.31473 0.79395 0.01838 0.0
C2101 C 0.29758 0.7709 0.01105 0.0
C2102 C 0.29885 0.77402 0.99608 0.0
C2103 C 0.51045 0.77717 0.74197 0.0
C2104 C 0.53004 0.75408 0.73552 0.0
C2105 C 0.50847 0.77919 0.75666 0.0
C2106 C 0.5258 0.75775 0.76537 0.0
H2107 H 0.49623 0.79291 0.73558 0.0
H2108 H 0.4937 0.79845 0.76127 0.0
S2109 S 0.58044 0.69317 0.75361 0.0
N2110 N 0.56683 0.70914 0.73886 0.0
N2111 N 0.56347 0.71361 0.76651 0.0
C2112 C 0.54542 0.73457 0.75903 0.0
C2113 C 0.54747 0.73263 0.7441 0.0
C2114 C 0.25824 0.0298 0.7445 0.0
C2115 C 0.27558 0.00752 0.73609 0.0
C2116 C 0.25899 0.02681 0.75924 0.0
C2117 C 0.27735 1.00188 0.76605 0.0
H2118 H 0.24437 0.05035 0.73963 0.0
H2119 H 0.24478 0.04333 0.76535 0.0
S2120 S 0.32733 0.93826 0.74887 0.0
N2121 N 0.31202 0.96069 0.73567 0.0
N2122 N 0.31303 0.95438 0.76335 0.0
C2123 C 0.29478 0.97958 0.75777 0.0
C2124 C 0.294 0.98256 0.7428 0.0
C2125 C 0.51279 0.48169 0.49469 0.0
C2126 C 0.52987 0.50414 0.48612 0.0
C2127 C 0.51414 0.48416 0.50939 0.0
C2128 C 0.53274 0.50892 0.51598 0.0
H2129 H 0.49868 0.46142 0.48997 0.0
H2130 H 0.50001 0.46779 0.51565 0.0
S2131 S 0.58227 0.57268 0.49829 0.0
N2132 N 0.56648 0.55059 0.48527 0.0
N2133 N 0.56843 0.55629 0.51293 0.0
C2134 C 0.55 0.53122 0.50754 0.0
C2135 C 0.54868 0.52865 0.4926 0.0
C2136 C 0.7558 0.74484 0.50528 0.0
C2137 C 0.77271 0.76768 0.51379 0.0
C2138 C 0.75716 0.74707 0.49053 0.0
C2139 C 0.77564 0.77191 0.48377 0.0
H2140 H 0.74221 0.72368 0.51008 0.0
H2141 H 0.74373 0.72917 0.48435 0.0
S2142 S 0.82388 0.83839 0.50117 0.0
N2143 N 0.8083 0.81615 0.51432 0.0
N2144 N 0.81038 0.82109 0.48662 0.0
C2145 C 0.79213 0.79574 0.49212 0.0
C2146 C 0.79079 0.79345 0.50712 0.0
C2147 C 0.76137 0.53367 0.75813 0.0
C2148 C 0.77984 0.50895 0.76495 0.0
C2149 C 0.76033 0.53617 0.74338 0.0
C2150 C 0.77746 0.51353 0.73495 0.0
H2151 H 0.74719 0.55024 0.76425 0.0
H2152 H 0.74633 0.55648 0.73852 0.0
S2153 S 0.8295 0.44476 0.74769 0.0
N2154 N 0.81553 0.46145 0.76219 0.0
N2155 N 0.8139 0.46673 0.7345 0.0
C2156 C 0.79607 0.48892 0.74166 0.0
C2157 C 0.79718 0.48652 0.75664 0.0
C2158 C 0.29557 0.28518 0.49319 0.0
C2159 C 0.27866 0.26238 0.48469 0.0
C2160 C 0.29456 0.28215 0.50792 0.0
C2161 C 0.27634 0.2567 0.51464 0.0
H2162 H 0.3094 0.30594 0.48839 0.0
H2163 H 0.30856 0.29888 0.5141 0.0
S2164 S 0.22727 0.19194 0.49717 0.0
N2165 N 0.24265 0.21474 0.48406 0.0
N2166 N 0.2411 0.20846 0.51173 0.0
C2167 C 0.25921 0.23414 0.50626 0.0
C2168 C 0.26028 0.23711 0.49129 0.0
C2169 C 0.29969 0.48711 0.25509 0.0
C2170 C 0.28305 0.51112 0.26338 0.0
C2171 C 0.29902 0.48946 0.24033 0.0
C2172 C 0.28147 0.51553 0.23337 0.0
H2173 H 0.31259 0.46515 0.26005 0.0
H2174 H 0.31224 0.47068 0.23431 0.0
S2175 S 0.23414 0.58505 0.25018 0.0
N2176 N 0.24864 0.56184 0.26351 0.0
N2177 N 0.24781 0.56688 0.2358 0.0
C2178 C 0.2652 0.5404 0.24152 0.0
C2179 C 0.26587 0.53802 0.25652 0.0
C2180 C 1.01331 0.97786 0.49212 0.0
C2181 C 0.02976 1.00141 0.48347 0.0
C2182 C 1.01401 0.98146 0.50689 0.0
C2183 C 0.03154 0.00816 0.51356 0.0
H2184 H 0.99975 0.95664 0.48741 0.0
H2185 H 1.00021 0.96427 0.51312 0.0
S2186 S 0.0797 0.07454 0.49574 0.0
N2187 N 0.06488 0.05071 0.48273 0.0
N2188 N 0.06605 0.0577 0.51037 0.0
C2189 C 0.04847 0.03099 0.50503 0.0
C2190 C 0.04765 0.02754 0.49004 0.0
C2191 C 1.01351 0.28667 0.74288 0.0
C2192 C 0.03083 0.25936 0.73631 0.0
C2193 C 1.01265 0.29049 0.75764 0.0
C2194 C 0.0287 0.26655 0.76639 0.0
H2195 H 1.00001 0.30421 0.73657 0.0
H2196 H 0.99924 0.31216 0.76227 0.0
S2197 S 0.07793 0.19169 0.75443 0.0
N2198 N 0.06472 0.20881 0.73972 0.0
N2199 N 0.0632 0.21614 0.76735 0.0
C2200 C 0.04638 0.23979 0.75993 0.0
C2201 C 0.04738 0.23613 0.74495 0.0
C2202 C 1.01346 0.77906 0.24085 0.0
C2203 C 0.0312 0.75169 0.23467 0.0
C2204 C 1.01178 0.78339 0.25557 0.0
C2205 C 1.02752 0.76008 0.26468 0.0
H2206 H 1.00047 0.7967 0.23425 0.0
H2207 H 0.99823 0.8054 0.25987 0.0
S2208 S 0.0773 0.68464 0.2538 0.0
N2209 N 0.06476 0.70104 0.23882 0.0
N2210 N 0.06195 0.70963 0.26637 0.0
C2211 C 0.0454 0.73282 0.25861 0.0
C2212 C 0.04711 0.72846 0.24366 0.0
C2213 C 0.04443 0.52642 0.99325 0.0
C2214 C 1.02792 0.49812 0.98656 0.0
C2215 C 0.04537 0.52941 0.00802 0.0
C2216 C 0.03013 0.50381 0.01668 0.0
H2217 H 0.05695 0.54595 0.987 0.0
H2218 H 0.05791 0.55222 0.01273 0.0
S2219 S 0.98348 0.42521 0.00435 0.0
N2220 N 0.99605 0.44415 0.98972 0.0
N2221 N 0.99745 0.45023 0.01739 0.0
C2222 C 1.01351 0.47556 0.01009 0.0
C2223 C 1.01255 0.47254 0.99508 0.0
C2224 C 0.6452 0.09905 0.05337 0.0
C2225 C 0.62648 0.11561 0.06248 0.0
C2226 C 0.6711 0.11207 0.05386 0.0
C2227 C 0.6797 0.14184 0.06364 0.0
H2228 H 0.63973 0.07587 0.04573 0.0
H2229 H 0.6844 0.09898 0.04635 0.0
S2230 S 0.63875 0.19064 0.09109 0.0
N2231 N 0.61868 0.16129 0.08214 0.0
N2232 N 0.66703 0.18434 0.08362 0.0
C2233 C 0.66114 0.15756 0.07311 0.0
C2234 C 0.63473 0.14485 0.0724 0.0
C2235 C 0.63596 0.10855 0.18096 0.0
C2236 C 0.62707 0.13877 0.19039 0.0
C2237 C 0.66189 0.09603 0.18079 0.0
C2238 C 0.68029 0.11251 0.1902 0.0
H2239 H 0.62289 0.09524 0.17338 0.0
H2240 H 0.66757 0.07349 0.17298 0.0
S2241 S 0.66612 0.1913 0.21759 0.0
N2242 N 0.63843 0.18465 0.20952 0.0
N2243 N 0.68661 0.15995 0.20974 0.0
C2244 C 0.67136 0.14248 0.19984 0.0
C2245 C 0.645 0.15574 0.19982 0.0
C2246 C 0.41436 0.90443 0.94888 0.0
C2247 C 0.4327 0.88902 0.93932 0.0
C2248 C 0.38858 0.89073 0.94875 0.0
C2249 C 0.37968 0.86139 0.93889 0.0
H2250 H 0.42004 0.92734 0.95657 0.0
H2251 H 0.37559 0.90301 0.95657 0.0
S2252 S 0.4195 0.81561 0.91036 0.0
N2253 N 0.43979 0.84493 0.91917 0.0
N2254 N 0.39162 0.82055 0.91839 0.0
C2255 C 0.39785 0.84678 0.92899 0.0
C2256 C 0.42416 0.86021 0.92933 0.0
C2257 C 0.41805 0.89488 0.80418 0.0
C2258 C 0.42685 0.86547 0.81414 0.0
C2259 C 0.39216 0.9081 0.80381 0.0
C2260 C 0.37363 0.89211 0.81321 0.0
H2261 H 0.43119 0.90747 0.79646 0.0
H2262 H 0.38653 0.93097 0.79602 0.0
S2263 S 0.38658 0.81852 0.8424 0.0
N2264 N 0.41465 0.82417 0.83461 0.0
N2265 N 0.36632 0.84756 0.83336 0.0
C2266 C 0.38212 0.86335 0.82332 0.0
C2267 C 0.40851 0.85045 0.82392 0.0
C2268 C 0.67141 0.61224 0.55932 0.0
C2269 C 0.67757 0.65486 0.55902 0.0
C2270 C 0.64574 0.59806 0.55947 0.0
C2271 C 0.62448 0.62552 0.55962 0.0
H2272 H 0.68654 0.5893 0.5598 0.0
H2273 H 0.64273 0.56484 0.55954 0.0
S2274 S 0.62967 0.74062 0.55746 0.0
N2275 N 0.65964 0.7245 0.55712 0.0
N2276 N 0.61208 0.69828 0.55885 0.0
C2277 C 0.63038 0.66832 0.55891 0.0
C2278 C 0.65656 0.68274 0.55831 0.0
C2279 C 0.63524 0.61754 0.67852 0.0
C2280 C 0.62668 0.64788 0.68801 0.0
C2281 C 0.6612 0.60494 0.67804 0.0
C2282 C 0.68005 0.62145 0.6872 0.0
H2283 H 0.62188 0.60415 0.67111 0.0
H2284 H 0.66653 0.58228 0.67021 0.0
S2285 S 0.66696 0.70029 0.71474 0.0
N2286 N 0.63894 0.69367 0.70701 0.0
N2287 N 0.68712 0.66898 0.70662 0.0
C2288 C 0.67147 0.65151 0.69691 0.0
C2289 C 0.64508 0.66481 0.69721 0.0
C2290 C 0.42112 0.36901 0.447 0.0
C2291 C 0.43024 0.39843 0.43712 0.0
C2292 C 0.39521 0.35586 0.44716 0.0
C2293 C 0.37695 0.3719 0.43763 0.0
H2294 H 0.43403 0.35629 0.45481 0.0
H2295 H 0.38937 0.33297 0.45489 0.0
S2296 S 0.39074 0.44564 0.40859 0.0
N2297 N 0.41859 0.43993 0.4166 0.0
N2298 N 0.37022 0.41658 0.41745 0.0
C2299 C 0.38573 0.40073 0.4276 0.0
C2300 C 0.41216 0.4136 0.42722 0.0
C2301 C 0.41567 0.38365 0.29773 0.0
C2302 C 0.42817 0.37013 0.31013 0.0
C2303 C 0.38943 0.39472 0.29763 0.0
C2304 C 0.37439 0.39266 0.30991 0.0
H2305 H 0.4264 0.38687 0.28805 0.0
H2306 H 0.38101 0.40611 0.28795 0.0
S2307 S 0.39639 0.35658 0.34491 0.0
N2308 N 0.42209 0.3527 0.33488 0.0
N2309 N 0.37348 0.37488 0.33465 0.0
C2310 C 0.38629 0.3785 0.32227 0.0
C2311 C 0.41289 0.3669 0.32239 0.0
C2312 C 0.13545 0.1499 0.56999 0.0
C2313 C 0.12683 0.12003 0.56035 0.0
C2314 C 0.16139 0.16243 0.57046 0.0
C2315 C 0.18012 0.14634 0.56115 0.0
H2316 H 0.12214 0.16294 0.57751 0.0
H2317 H 0.16679 0.18468 0.57841 0.0
S2318 S 0.16682 0.06866 0.53327 0.0
N2319 N 0.13888 0.07496 0.54112 0.0
N2320 N 0.18706 0.09966 0.54146 0.0
C2321 C 0.17149 0.11673 0.5513 0.0
C2322 C 0.14511 0.10345 0.55102 0.0
C2323 C 0.17021 0.14635 0.69738 0.0
C2324 C 0.17872 0.11695 0.68743 0.0
C2325 C 0.14441 0.16 0.69783 0.0
C2326 C 0.12569 0.14444 0.68853 0.0
H2327 H 0.1835 0.15865 0.70503 0.0
H2328 H 0.13902 0.18288 0.70559 0.0
S2329 S 0.13778 0.07095 0.65944 0.0
N2330 N 0.16598 0.07608 0.66708 0.0
N2331 N 0.11782 0.10021 0.66851 0.0
C2332 C 0.13385 0.11564 0.67844 0.0
C2333 C 0.16016 0.10233 0.67775 0.0
C2334 C 0.92152 0.86631 0.42654 0.0
C2335 C 0.92967 0.89751 0.43582 0.0
C2336 C 0.89561 0.85374 0.42591 0.0
C2337 C 0.87645 0.87143 0.43458 0.0
H2338 H 0.93516 0.85223 0.41943 0.0
H2339 H 0.89053 0.82994 0.41841 0.0
S2340 S 0.88803 0.95254 0.46141 0.0
N2341 N 0.91649 0.94486 0.45429 0.0
N2342 N 0.86821 0.92085 0.45322 0.0
C2343 C 0.88445 0.90237 0.44402 0.0
C2344 C 0.91083 0.91532 0.44463 0.0
C2345 C 0.91865 0.89782 0.30656 0.0
C2346 C 0.92728 0.86741 0.31615 0.0
C2347 C 0.89277 0.91087 0.30627 0.0
C2348 C 0.87413 0.89399 0.31547 0.0
H2349 H 0.9319 0.91118 0.29904 0.0
H2350 H 0.88726 0.93454 0.29874 0.0
S2351 S 0.88689 0.81665 0.34356 0.0
N2352 N 0.91498 0.82319 0.33588 0.0
N2353 N 0.86669 0.84704 0.33501 0.0
C2354 C 0.88251 0.86403 0.32521 0.0
C2355 C 0.90889 0.85104 0.32564 0.0
C2356 C 0.1728 0.6088 0.07448 0.0
C2357 C 0.18099 0.63982 0.06505 0.0
C2358 C 0.14699 0.59567 0.07495 0.0
C2359 C 0.12799 0.61251 0.06593 0.0
H2360 H 0.18631 0.59536 0.08184 0.0
H2361 H 0.14185 0.57215 0.08262 0.0
S2362 S 0.13985 0.69306 0.03866 0.0
N2363 N 0.16809 0.68631 0.04615 0.0
N2364 N 0.12003 0.66108 0.04683 0.0
C2365 C 0.13607 0.64329 0.05634 0.0
C2366 C 0.16234 0.65689 0.05593 0.0
C2367 C 0.1379 0.61439 0.19411 0.0
C2368 C 0.12916 0.64318 0.18399 0.0
C2369 C 0.16379 0.60145 0.19456 0.0
C2370 C 0.18232 0.61685 0.18501 0.0
H2371 H 0.12474 0.60227 0.20191 0.0
H2372 H 0.1694 0.57907 0.20251 0.0
S2373 S 0.16918 0.68949 0.15556 0.0
N2374 N 0.14119 0.68417 0.16345 0.0
N2375 N 0.1895 0.66055 0.16459 0.0
C2376 C 0.17381 0.64515 0.17475 0.0
C2377 C 0.14743 0.65801 0.17416 0.0
C2378 C 0.88766 0.38726 0.94778 0.0
C2379 C 0.87864 0.36037 0.9372 0.0
C2380 C 0.91351 0.40037 0.94827 0.0
C2381 C 0.93182 0.38689 0.93834 0.0
H2382 H 0.87469 0.39814 0.95584 0.0
H2383 H 0.91923 0.42161 0.95649 0.0
S2384 S 0.91831 0.31959 0.90776 0.0
N2385 N 0.89044 0.32332 0.91587 0.0
N2386 N 0.93874 0.34681 0.91722 0.0
C2387 C 0.92319 0.36021 0.92771 0.0
C2388 C 0.89679 0.34731 0.92704 0.0
C2389 C 0.92032 0.40366 0.82257 0.0
C2390 C 0.92968 0.37538 0.81258 0.0
C2391 C 0.89434 0.41627 0.82265 0.0
C2392 C 0.87634 0.40158 0.81267 0.0
H2393 H 0.93296 0.41508 0.8307 0.0
H2394 H 0.88824 0.43722 0.83086 0.0
S2395 S 0.89181 0.32933 0.78352 0.0
N2396 N 0.91915 0.33423 0.79209 0.0
N2397 N 0.87094 0.35871 0.79192 0.0
C2398 C 0.88577 0.37396 0.80242 0.0
C2399 C 0.91215 0.36083 0.80244 0.0
loop_
_geom_bond_atom_site_label_1
_geom_bond_atom_site_label_2
_geom_bond_distance
_geom_bond_site_symmetry_2
_ccdc_geom_bond_type
C0 C1 1.443 . S
C0 N4 1.376 . S
C0 C38 1.389 . S
C1 C0 1.443 . S
C1 C2 1.340 . S
C1 H41 0.951 . S
C2 C1 1.340 . S
C2 C3 1.439 . S
C2 H42 0.950 . S
C3 C2 1.439 . S
C3 N4 1.374 . S
C3 C37 1.395 . S
N4 C0 1.376 . S
N4 C3 1.374 . S
N4 Co5 2.008 . S
Co5 N4 2.008 . S
Co5 N6 1.995 . S
Co5 N11 2.008 1_545 S
Co5 N16 1.995 1_545 S
Co5 N21 2.282 1_545 S
Co5 N27 2.282 . S
N6 Co5 1.995 . S
N6 C7 1.376 . S
N6 C10 1.383 . S
C7 N6 1.376 . S
C7 C8 1.446 . S
C7 C37 1.391 . S
C8 C7 1.446 . S
C8 C9 1.339 . S
C8 H43 0.949 . S
C9 C8 1.339 . S
C9 C10 1.439 . S
C9 H44 0.950 . S
C10 N6 1.383 . S
C10 C9 1.439 . S
C10 C39 1.392 1_545 S
N11 Co5 2.008 1_565 S
N11 C12 1.376 . S
N11 C15 1.374 . S
C12 N11 1.376 . S
C12 C13 1.443 . S
C12 C39 1.389 . S
C13 C12 1.443 . S
C13 C14 1.340 . S
C13 H45 0.951 . S
C14 C13 1.340 . S
C14 C15 1.439 . S
C14 H46 0.950 . S
C15 N11 1.374 . S
C15 C14 1.439 . S
C15 C40 1.395 . S
N16 Co5 1.995 1_565 S
N16 C17 1.376 . S
N16 C20 1.383 1_565 S
C17 N16 1.376 . S
C17 C18 1.446 . S
C17 C40 1.391 . S
C18 C17 1.446 . S
C18 C19 1.339 . S
C18 H47 0.949 . S
C19 C18 1.339 . S
C19 C20 1.439 1_565 S
C19 H48 0.950 . S
C20 N16 1.383 1_545 S
C20 C19 1.439 1_545 S
C20 C38 1.392 . S
N21 Co5 2.282 1_565 S
N21 C24 1.332 . S
N21 C26 1.332 1_565 S
C22 C23 1.386 . S
C22 C25 1.388 . S
C23 C22 1.386 . S
C23 C24 1.382 . S
C23 H49 0.950 . S
C24 N21 1.332 . S
C24 C23 1.382 . S
C24 H35 0.952 . S
C25 C22 1.388 . S
C25 C26 1.382 1_565 S
C25 H50 0.950 . S
C26 N21 1.332 1_545 S
C26 C25 1.382 1_545 S
C26 H36 0.948 . S
N27 Co5 2.282 . S
N27 C31 1.332 . S
N27 C32 1.332 . S
C28 C29 1.388 . S
C28 C32 1.382 . S
C28 H51 0.950 . S
C29 C28 1.388 . S
C29 C30 1.386 . S
C30 C29 1.386 . S
C30 C31 1.382 . S
C30 H52 0.950 . S
C31 N27 1.332 . S
C31 C30 1.382 . S
C31 H33 0.952 . S
C32 N27 1.332 . S
C32 C28 1.382 . S
C32 H34 0.948 . S
H33 C31 0.952 . S
H34 C32 0.948 . S
H35 C24 0.952 . S
H36 C26 0.948 . S
C37 C3 1.395 . S
C37 C7 1.391 . S
C38 C0 1.389 . S
C38 C20 1.392 . S
C39 C10 1.392 1_565 S
C39 C12 1.389 . S
C40 C15 1.395 . S
C40 C17 1.391 . S
H41 C1 0.951 . S
H42 C2 0.950 . S
H43 C8 0.949 . S
H44 C9 0.950 . S
H45 C13 0.951 . S
H46 C14 0.950 . S
H47 C18 0.949 . S
H48 C19 0.950 . S
H49 C23 0.950 . S
H50 C25 0.950 . S
H51 C28 0.950 . S
H52 C30 0.950 . S
C53 C54 1.443 . S
C53 N57 1.376 . S
C53 C91 1.389 . S
C54 C53 1.443 . S
C54 C55 1.340 . S
C54 H94 0.951 . S
C55 C54 1.340 . S
C55 C56 1.439 . S
C55 H95 0.950 . S
C56 C55 1.439 . S
C56 N57 1.374 . S
C56 C90 1.395 . S
N57 C53 1.376 . S
N57 C56 1.374 . S
N57 Co58 2.008 . S
Co58 N57 2.008 . S
Co58 N59 1.995 . S
Co58 N64 2.008 . S
Co58 N69 1.995 . S
Co58 N74 2.282 . S
Co58 N80 2.282 . S
N59 Co58 1.995 . S
N59 C60 1.376 . S
N59 C63 1.383 . S
C60 N59 1.376 . S
C60 C61 1.446 . S
C60 C90 1.391 . S
C61 C60 1.446 . S
C61 C62 1.339 . S
C61 H96 0.949 . S
C62 C61 1.339 . S
C62 C63 1.439 . S
C62 H97 0.950 . S
C63 N59 1.383 . S
C63 C62 1.439 . S
C63 C92 1.392 . S
N64 Co58 2.008 . S
N64 C65 1.376 . S
N64 C68 1.374 . S
C65 N64 1.376 . S
C65 C66 1.443 . S
C65 C92 1.389 . S
C66 C65 1.443 . S
C66 C67 1.340 . S
C66 H98 0.951 . S
C67 C66 1.340 . S
C67 C68 1.439 . S
C67 H99 0.950 . S
C68 N64 1.374 . S
C68 C67 1.439 . S
C68 C93 1.395 . S
N69 Co58 1.995 . S
N69 C70 1.376 . S
N69 C73 1.383 . S
C70 N69 1.376 . S
C70 C71 1.446 . S
C70 C93 1.391 . S
C71 C70 1.446 . S
C71 C72 1.339 . S
C71 H100 0.949 . S
C72 C71 1.339 . S
C72 C73 1.439 . S
C72 H101 0.950 . S
C73 N69 1.383 . S
C73 C72 1.439 . S
C73 C91 1.392 . S
N74 Co58 2.282 . S
N74 C77 1.332 . S
N74 C79 1.332 . S
C75 C76 1.386 . S
C75 C78 1.388 . S
C76 C75 1.386 . S
C76 C77 1.382 . S
C76 H102 0.950 . S
C77 N74 1.332 . S
C77 C76 1.382 . S
C77 H88 0.952 . S
C78 C75 1.388 . S
C78 C79 1.382 . S
C78 H103 0.950 . S
C79 N74 1.332 . S
C79 C78 1.382 . S
C79 H89 0.948 . S
N80 Co58 2.282 . S
N80 C84 1.332 . S
N80 C85 1.332 . S
C81 C82 1.388 . S
C81 C85 1.382 . S
C81 H104 0.950 . S
C82 C81 1.388 . S
C82 C83 1.386 . S
C83 C82 1.386 . S
C83 C84 1.382 . S
C83 H105 0.950 . S
C84 N80 1.332 . S
C84 C83 1.382 . S
C84 H86 0.952 . S
C85 N80 1.332 . S
C85 C81 1.382 . S
C85 H87 0.948 . S
H86 C84 0.952 . S
H87 C85 0.948 . S
H88 C77 0.952 . S
H89 C79 0.948 . S
C90 C56 1.395 . S
C90 C60 1.391 . S
C91 C53 1.389 . S
C91 C73 1.392 . S
C92 C63 1.392 . S
C92 C65 1.389 . S
C93 C68 1.395 . S
C93 C70 1.391 . S
H94 C54 0.951 . S
H95 C55 0.950 . S
H96 C61 0.949 . S
H97 C62 0.950 . S
H98 C66 0.951 . S
H99 C67 0.950 . S
H100 C71 0.949 . S
H101 C72 0.950 . S
H102 C76 0.950 . S
H103 C78 0.950 . S
H104 C81 0.950 . S
H105 C83 0.950 . S
C106 C107 1.443 . S
C106 N110 1.376 . S
C106 C144 1.389 . S
C107 C106 1.443 . S
C107 C108 1.340 . S
C107 H147 0.951 . S
C108 C107 1.340 . S
C108 C109 1.439 . S
C108 H148 0.950 . S
C109 C108 1.439 . S
C109 N110 1.374 . S
C109 C143 1.395 . S
N110 C106 1.376 . S
N110 C109 1.374 . S
N110 Co111 2.008 . S
Co111 N110 2.008 . S
Co111 N112 1.995 . S
Co111 N117 2.008 . S
Co111 N122 1.995 . S
Co111 N127 2.282 . S
Co111 N133 2.282 . S
N112 Co111 1.995 . S
N112 C113 1.376 . S
N112 C116 1.383 . S
C113 N112 1.376 . S
C113 C114 1.446 . S
C113 C143 1.391 . S
C114 C113 1.446 . S
C114 C115 1.339 . S
C114 H149 0.949 . S
C115 C114 1.339 . S
C115 C116 1.439 . S
C115 H150 0.950 . S
C116 N112 1.383 . S
C116 C115 1.439 . S
C116 C145 1.392 . S
N117 Co111 2.008 . S
N117 C118 1.376 . S
N117 C121 1.374 . S
C118 N117 1.376 . S
C118 C119 1.443 . S
C118 C145 1.389 . S
C119 C118 1.443 . S
C119 C120 1.340 . S
C119 H151 0.951 . S
C120 C119 1.340 . S
C120 C121 1.439 . S
C120 H152 0.950 . S
C121 N117 1.374 . S
C121 C120 1.439 . S
C121 C146 1.395 . S
N122 Co111 1.995 . S
N122 C123 1.376 . S
N122 C126 1.383 . S
C123 N122 1.376 . S
C123 C124 1.446 . S
C123 C146 1.391 . S
C124 C123 1.446 . S
C124 C125 1.339 . S
C124 H153 0.949 . S
C125 C124 1.339 . S
C125 C126 1.439 . S
C125 H154 0.950 . S
C126 N122 1.383 . S
C126 C125 1.439 . S
C126 C144 1.392 . S
N127 Co111 2.282 . S
N127 C130 1.332 . S
N127 C132 1.332 . S
C128 C129 1.386 . S
C128 C131 1.388 . S
C129 C128 1.386 . S
C129 C130 1.382 . S
C129 H155 0.950 . S
C130 N127 1.332 . S
C130 C129 1.382 . S
C130 H141 0.952 . S
C131 C128 1.388 . S
C131 C132 1.382 . S
C131 H156 0.950 . S
C132 N127 1.332 . S
C132 C131 1.382 . S
C132 H142 0.948 . S
N133 Co111 2.282 . S
N133 C137 1.332 . S
N133 C138 1.332 . S
C134 C135 1.388 . S
C134 C138 1.382 . S
C134 H157 0.950 . S
C135 C134 1.388 . S
C135 C136 1.386 . S
C136 C135 1.386 . S
C136 C137 1.382 . S
C136 H158 0.950 . S
C137 N133 1.332 . S
C137 C136 1.382 . S
C137 H139 0.952 . S
C138 N133 1.332 . S
C138 C134 1.382 . S
C138 H140 0.948 . S
H139 C137 0.952 . S
H140 C138 0.948 . S
H141 C130 0.952 . S
H142 C132 0.948 . S
C143 C109 1.395 . S
C143 C113 1.391 . S
C144 C106 1.389 . S
C144 C126 1.392 . S
C145 C116 1.392 . S
C145 C118 1.389 . S
C146 C121 1.395 . S
C146 C123 1.391 . S
H147 C107 0.951 . S
H148 C108 0.950 . S
H149 C114 0.949 . S
H150 C115 0.950 . S
H151 C119 0.951 . S
H152 C120 0.950 . S
H153 C124 0.949 . S
H154 C125 0.950 . S
H155 C129 0.950 . S
H156 C131 0.950 . S
H157 C134 0.950 . S
H158 C136 0.950 . S
C159 C160 1.443 . S
C159 N163 1.376 . S
C159 C197 1.389 . S
C160 C159 1.443 . S
C160 C161 1.340 . S
C160 H200 0.951 . S
C161 C160 1.340 . S
C161 C162 1.439 . S
C161 H201 0.950 . S
C162 C161 1.439 . S
C162 N163 1.374 . S
C162 C196 1.395 . S
N163 C159 1.376 . S
N163 C162 1.374 . S
N163 Co164 2.008 . S
Co164 N163 2.008 . S
Co164 N165 1.995 . S
Co164 N170 2.008 1_545 S
Co164 N175 1.995 1_545 S
Co164 N180 2.282 1_545 S
Co164 N186 2.282 . S
N165 Co164 1.995 . S
N165 C166 1.376 . S
N165 C169 1.383 . S
C166 N165 1.376 . S
C166 C167 1.446 . S
C166 C196 1.391 . S
C167 C166 1.446 . S
C167 C168 1.339 . S
C167 H202 0.949 . S
C168 C167 1.339 . S
C168 C169 1.439 . S
C168 H203 0.950 . S
C169 N165 1.383 . S
C169 C168 1.439 . S
C169 C198 1.392 1_545 S
N170 Co164 2.008 1_565 S
N170 C171 1.376 . S
N170 C174 1.374 . S
C171 N170 1.376 . S
C171 C172 1.443 . S
C171 C198 1.389 . S
C172 C171 1.443 . S
C172 C173 1.340 . S
C172 H204 0.951 . S
C173 C172 1.340 . S
C173 C174 1.439 . S
C173 H205 0.950 . S
C174 N170 1.374 . S
C174 C173 1.439 . S
C174 C199 1.395 . S
N175 Co164 1.995 1_565 S
N175 C176 1.376 . S
N175 C179 1.383 1_565 S
C176 N175 1.376 . S
C176 C177 1.446 . S
C176 C199 1.391 . S
C177 C176 1.446 . S
C177 C178 1.339 . S
C177 H206 0.949 . S
C178 C177 1.339 . S
C178 C179 1.439 1_565 S
C178 H207 0.950 . S
C179 N175 1.383 1_545 S
C179 C178 1.439 1_545 S
C179 C197 1.392 . S
N180 Co164 2.282 1_565 S
N180 C183 1.332 . S
N180 C185 1.332 . S
C181 C182 1.386 . S
C181 C184 1.388 . S
C182 C181 1.386 . S
C182 C183 1.382 . S
C182 H208 0.950 . S
C183 N180 1.332 . S
C183 C182 1.382 . S
C183 H194 0.952 . S
C184 C181 1.388 . S
C184 C185 1.382 . S
C184 H209 0.950 . S
C185 N180 1.332 . S
C185 C184 1.382 . S
C185 H195 0.948 1_565 S
N186 Co164 2.282 . S
N186 C190 1.332 . S
N186 C191 1.332 . S
C187 C188 1.388 . S
C187 C191 1.382 . S
C187 H210 0.950 . S
C188 C187 1.388 . S
C188 C189 1.386 . S
C189 C188 1.386 . S
C189 C190 1.382 . S
C189 H211 0.950 . S
C190 N186 1.332 . S
C190 C189 1.382 . S
C190 H192 0.952 . S
C191 N186 1.332 . S
C191 C187 1.382 . S
C191 H193 0.948 . S
H192 C190 0.952 . S
H193 C191 0.948 . S
H194 C183 0.952 . S
H195 C185 0.948 1_545 S
C196 C162 1.395 . S
C196 C166 1.391 . S
C197 C159 1.389 . S
C197 C179 1.392 . S
C198 C169 1.392 1_565 S
C198 C171 1.389 . S
C199 C174 1.395 . S
C199 C176 1.391 . S
H200 C160 0.951 . S
H201 C161 0.950 . S
H202 C167 0.949 . S
H203 C168 0.950 . S
H204 C172 0.951 . S
H205 C173 0.950 . S
H206 C177 0.949 . S
H207 C178 0.950 . S
H208 C182 0.950 . S
H209 C184 0.950 . S
H210 C187 0.950 . S
H211 C189 0.950 . S
C212 C213 1.443 1_565 S
C212 N216 1.376 1_565 S
C212 C250 1.389 . S
C213 C212 1.443 1_545 S
C213 C214 1.340 . S
C213 H253 0.951 1_545 S
C214 C213 1.340 . S
C214 C215 1.439 . S
C214 H254 0.950 . S
C215 C214 1.439 . S
C215 N216 1.374 . S
C215 C249 1.395 . S
N216 C212 1.376 1_545 S
N216 C215 1.374 . S
N216 Co217 2.008 1_545 S
Co217 N216 2.008 1_565 S
Co217 N218 1.995 1_565 S
Co217 N223 2.008 . S
Co217 N228 1.995 . S
Co217 N233 2.282 1_565 S
Co217 N239 2.282 . S
N218 Co217 1.995 1_545 S
N218 C219 1.376 . S
N218 C222 1.383 . S
C219 N218 1.376 . S
C219 C220 1.446 . S
C219 C249 1.391 . S
C220 C219 1.446 . S
C220 C221 1.339 . S
C220 H255 0.949 . S
C221 C220 1.339 . S
C221 C222 1.439 . S
C221 H256 0.950 . S
C222 N218 1.383 . S
C222 C221 1.439 . S
C222 C251 1.392 . S
N223 Co217 2.008 . S
N223 C224 1.376 . S
N223 C227 1.374 . S
C224 N223 1.376 . S
C224 C225 1.443 . S
C224 C251 1.389 1_565 S
C225 C224 1.443 . S
C225 C226 1.340 . S
C225 H257 0.951 . S
C226 C225 1.340 . S
C226 C227 1.439 . S
C226 H258 0.950 . S
C227 N223 1.374 . S
C227 C226 1.439 . S
C227 C252 1.395 . S
N228 Co217 1.995 . S
N228 C229 1.376 . S
N228 C232 1.383 . S
C229 N228 1.376 . S
C229 C230 1.446 . S
C229 C252 1.391 . S
C230 C229 1.446 . S
C230 C231 1.339 . S
C230 H259 0.949 . S
C231 C230 1.339 . S
C231 C232 1.439 . S
C231 H260 0.950 . S
C232 N228 1.383 . S
C232 C231 1.439 . S
C232 C250 1.392 . S
N233 Co217 2.282 1_545 S
N233 C236 1.330 1_545 S
N233 C238 1.332 . S
C234 C235 1.386 . S
C234 C237 1.388 . S
C235 C234 1.386 . S
C235 C236 1.380 1_545 S
C235 H261 0.950 . S
C236 N233 1.330 1_565 S
C236 C235 1.380 1_565 S
C236 H247 0.956 . S
C237 C234 1.388 . S
C237 C238 1.382 . S
C237 H262 0.950 . S
C238 N233 1.332 . S
C238 C237 1.382 . S
C238 H248 0.948 . S
N239 Co217 2.282 . S
N239 C243 1.332 . S
N239 C244 1.332 . S
C240 C241 1.388 . S
C240 C244 1.382 . S
C240 H263 0.950 . S
C241 C240 1.388 . S
C241 C242 1.386 . S
C242 C241 1.386 . S
C242 C243 1.382 . S
C242 H264 0.950 . S
C243 N239 1.332 . S
C243 C242 1.382 . S
C243 H245 0.952 . S
C244 N239 1.332 . S
C244 C240 1.382 . S
C244 H246 0.948 . S
H245 C243 0.952 . S
H246 C244 0.948 . S
H247 C236 0.956 . S
H248 C238 0.948 . S
C249 C215 1.395 . S
C249 C219 1.391 . S
C250 C212 1.389 . S
C250 C232 1.392 . S
C251 C222 1.392 . S
C251 C224 1.389 1_545 S
C252 C227 1.395 . S
C252 C229 1.391 . S
H253 C213 0.951 1_565 S
H254 C214 0.950 . S
H255 C220 0.949 . S
H256 C221 0.950 . S
H257 C225 0.951 . S
H258 C226 0.950 . S
H259 C230 0.949 . S
H260 C231 0.950 . S
H261 C235 0.950 . S
H262 C237 0.950 . S
H263 C240 0.950 . S
H264 C242 0.950 . S
C265 C266 1.443 . S
C265 N269 1.376 . S
C265 C303 1.389 . S
C266 C265 1.443 . S
C266 C267 1.340 . S
C266 H306 0.951 . S
C267 C266 1.340 . S
C267 C268 1.439 . S
C267 H307 0.950 . S
C268 C267 1.439 . S
C268 N269 1.374 . S
C268 C302 1.395 . S
N269 C265 1.376 . S
N269 C268 1.374 . S
N269 Co270 2.008 . S
Co270 N269 2.008 . S
Co270 N271 1.995 . S
Co270 N276 2.008 . S
Co270 N281 1.995 . S
Co270 N286 2.282 . S
Co270 N292 2.282 . S
N271 Co270 1.995 . S
N271 C272 1.376 . S
N271 C275 1.383 . S
C272 N271 1.376 . S
C272 C273 1.446 . S
C272 C302 1.391 . S
C273 C272 1.446 . S
C273 C274 1.339 . S
C273 H308 0.949 . S
C274 C273 1.339 . S
C274 C275 1.439 . S
C274 H309 0.950 . S
C275 N271 1.383 . S
C275 C274 1.439 . S
C275 C304 1.392 . S
N276 Co270 2.008 . S
N276 C277 1.376 . S
N276 C280 1.374 . S
C277 N276 1.376 . S
C277 C278 1.443 . S
C277 C304 1.389 . S
C278 C277 1.443 . S
C278 C279 1.340 . S
C278 H310 0.951 . S
C279 C278 1.340 . S
C279 C280 1.439 . S
C279 H311 0.950 . S
C280 N276 1.374 . S
C280 C279 1.439 . S
C280 C305 1.395 . S
N281 Co270 1.995 . S
N281 C282 1.376 . S
N281 C285 1.383 . S
C282 N281 1.376 . S
C282 C283 1.446 . S
C282 C305 1.391 . S
C283 C282 1.446 . S
C283 C284 1.339 . S
C283 H312 0.949 . S
C284 C283 1.339 . S
C284 C285 1.439 . S
C284 H313 0.950 . S
C285 N281 1.383 . S
C285 C284 1.439 . S
C285 C303 1.392 . S
N286 Co270 2.282 . S
N286 C289 1.332 . S
N286 C291 1.332 . S
C287 C288 1.386 . S
C287 C290 1.388 . S
C288 C287 1.386 . S
C288 C289 1.382 . S
C288 H314 0.950 . S
C289 N286 1.332 . S
C289 C288 1.382 . S
C289 H300 0.952 . S
C290 C287 1.388 . S
C290 C291 1.382 . S
C290 H315 0.950 . S
C291 N286 1.332 . S
C291 C290 1.382 . S
C291 H301 0.948 . S
N292 Co270 2.282 . S
N292 C296 1.332 . S
N292 C297 1.332 . S
C293 C294 1.388 . S
C293 C297 1.382 . S
C293 H316 0.950 . S
C294 C293 1.388 . S
C294 C295 1.386 . S
C295 C294 1.386 . S
C295 C296 1.382 . S
C295 H317 0.950 . S
C296 N292 1.332 . S
C296 C295 1.382 . S
C296 H298 0.952 . S
C297 N292 1.332 . S
C297 C293 1.382 . S
C297 H299 0.948 . S
H298 C296 0.952 . S
H299 C297 0.948 . S
H300 C289 0.952 . S
H301 C291 0.948 . S
C302 C268 1.395 . S
C302 C272 1.391 . S
C303 C265 1.389 . S
C303 C285 1.392 . S
C304 C275 1.392 . S
C304 C277 1.389 . S
C305 C280 1.395 . S
C305 C282 1.391 . S
H306 C266 0.951 . S
H307 C267 0.950 . S
H308 C273 0.949 . S
H309 C274 0.950 . S
H310 C278 0.951 . S
H311 C279 0.950 . S
H312 C283 0.949 . S
H313 C284 0.950 . S
H314 C288 0.950 . S
H315 C290 0.950 . S
H316 C293 0.950 . S
H317 C295 0.950 . S
C318 C319 1.443 . S
C318 N322 1.376 . S
C318 C356 1.389 . S
C319 C318 1.443 . S
C319 C320 1.340 . S
C319 H359 0.951 . S
C320 C319 1.340 . S
C320 C321 1.439 . S
C320 H360 0.950 . S
C321 C320 1.439 . S
C321 N322 1.374 . S
C321 C355 1.395 . S
N322 C318 1.376 . S
N322 C321 1.374 . S
N322 Co323 2.008 . S
Co323 N322 2.008 . S
Co323 N324 1.995 . S
Co323 N329 2.008 . S
Co323 N334 1.995 . S
Co323 N339 2.282 . S
Co323 N345 2.282 . S
N324 Co323 1.995 . S
N324 C325 1.376 . S
N324 C328 1.383 . S
C325 N324 1.376 . S
C325 C326 1.446 . S
C325 C355 1.391 . S
C326 C325 1.446 . S
C326 C327 1.339 . S
C326 H361 0.949 . S
C327 C326 1.339 . S
C327 C328 1.439 . S
C327 H362 0.950 . S
C328 N324 1.383 . S
C328 C327 1.439 . S
C328 C357 1.392 . S
N329 Co323 2.008 . S
N329 C330 1.376 . S
N329 C333 1.374 . S
C330 N329 1.376 . S
C330 C331 1.443 . S
C330 C357 1.389 . S
C331 C330 1.443 . S
C331 C332 1.340 . S
C331 H363 0.951 . S
C332 C331 1.340 . S
C332 C333 1.439 . S
C332 H364 0.950 . S
C333 N329 1.374 . S
C333 C332 1.439 . S
C333 C358 1.395 . S
N334 Co323 1.995 . S
N334 C335 1.376 . S
N334 C338 1.383 . S
C335 N334 1.376 . S
C335 C336 1.446 . S
C335 C358 1.391 . S
C336 C335 1.446 . S
C336 C337 1.339 . S
C336 H365 0.949 . S
C337 C336 1.339 . S
C337 C338 1.439 . S
C337 H366 0.950 . S
C338 N334 1.383 . S
C338 C337 1.439 . S
C338 C356 1.392 . S
N339 Co323 2.282 . S
N339 C342 1.332 . S
N339 C344 1.332 . S
C340 C341 1.386 . S
C340 C343 1.388 . S
C341 C340 1.386 . S
C341 C342 1.382 . S
C341 H367 0.950 . S
C342 N339 1.332 . S
C342 C341 1.382 . S
C342 H353 0.952 . S
C343 C340 1.388 . S
C343 C344 1.382 . S
C343 H368 0.950 . S
C344 N339 1.332 . S
C344 C343 1.382 . S
C344 H354 0.948 . S
N345 Co323 2.282 . S
N345 C349 1.332 . S
N345 C350 1.332 . S
C346 C347 1.388 . S
C346 C350 1.382 . S
C346 H369 0.950 . S
C347 C346 1.388 . S
C347 C348 1.386 . S
C348 C347 1.386 . S
C348 C349 1.382 . S
C348 H370 0.950 . S
C349 N345 1.332 . S
C349 C348 1.382 . S
C349 H351 0.952 . S
C350 N345 1.332 . S
C350 C346 1.382 . S
C350 H352 0.948 . S
H351 C349 0.952 . S
H352 C350 0.948 . S
H353 C342 0.952 . S
H354 C344 0.948 . S
C355 C321 1.395 . S
C355 C325 1.391 . S
C356 C318 1.389 . S
C356 C338 1.392 . S
C357 C328 1.392 . S
C357 C330 1.389 . S
C358 C333 1.395 . S
C358 C335 1.391 . S
H359 C319 0.951 . S
H360 C320 0.950 . S
H361 C326 0.949 . S
H362 C327 0.950 . S
H363 C331 0.951 . S
H364 C332 0.950 . S
H365 C336 0.949 . S
H366 C337 0.950 . S
H367 C341 0.950 . S
H368 C343 0.950 . S
H369 C346 0.950 . S
H370 C348 0.950 . S
C371 C372 1.443 1_565 S
C371 N375 1.376 1_565 S
C371 C409 1.389 . S
C372 C371 1.443 1_545 S
C372 C373 1.340 . S
C372 H412 0.951 1_545 S
C373 C372 1.340 . S
C373 C374 1.439 . S
C373 H413 0.950 . S
C374 C373 1.439 . S
C374 N375 1.374 . S
C374 C408 1.395 . S
N375 C371 1.376 1_545 S
N375 C374 1.374 . S
N375 Co376 2.008 1_545 S
Co376 N375 2.008 1_565 S
Co376 N377 1.995 1_565 S
Co376 N382 2.008 . S
Co376 N387 1.995 . S
Co376 N392 2.282 1_565 S
Co376 N398 2.282 . S
N377 Co376 1.995 1_545 S
N377 C378 1.376 . S
N377 C381 1.383 . S
C378 N377 1.376 . S
C378 C379 1.446 . S
C378 C408 1.391 . S
C379 C378 1.446 . S
C379 C380 1.339 . S
C379 H414 0.949 . S
C380 C379 1.339 . S
C380 C381 1.439 . S
C380 H415 0.950 . S
C381 N377 1.383 . S
C381 C380 1.439 . S
C381 C410 1.392 . S
N382 Co376 2.008 . S
N382 C383 1.376 . S
N382 C386 1.374 . S
C383 N382 1.376 . S
C383 C384 1.443 . S
C383 C410 1.389 1_565 S
C384 C383 1.443 . S
C384 C385 1.340 . S
C384 H416 0.951 . S
C385 C384 1.340 . S
C385 C386 1.439 . S
C385 H417 0.950 . S
C386 N382 1.374 . S
C386 C385 1.439 . S
C386 C411 1.395 . S
N387 Co376 1.995 . S
N387 C388 1.376 . S
N387 C391 1.383 . S
C388 N387 1.376 . S
C388 C389 1.446 . S
C388 C411 1.391 . S
C389 C388 1.446 . S
C389 C390 1.339 . S
C389 H418 0.949 . S
C390 C389 1.339 . S
C390 C391 1.439 . S
C390 H419 0.950 . S
C391 N387 1.383 . S
C391 C390 1.439 . S
C391 C409 1.392 . S
N392 Co376 2.282 1_545 S
N392 C395 1.331 . S
N392 C397 1.332 . S
C393 C394 1.386 . S
C393 C396 1.388 . S
C394 C393 1.386 . S
C394 C395 1.381 . S
C394 H420 0.950 . S
C395 N392 1.331 . S
C395 C394 1.381 . S
C395 H406 0.954 1_545 S
C396 C393 1.388 . S
C396 C397 1.382 . S
C396 H421 0.950 . S
C397 N392 1.332 . S
C397 C396 1.382 . S
C397 H407 0.948 . S
N398 Co376 2.282 . S
N398 C402 1.332 . S
N398 C403 1.332 . S
C399 C400 1.388 . S
C399 C403 1.382 . S
C399 H422 0.950 . S
C400 C399 1.388 . S
C400 C401 1.386 . S
C401 C400 1.386 . S
C401 C402 1.382 . S
C401 H423 0.950 . S
C402 N398 1.332 . S
C402 C401 1.382 . S
C402 H404 0.952 . S
C403 N398 1.332 . S
C403 C399 1.382 . S
C403 H405 0.948 . S
H404 C402 0.952 . S
H405 C403 0.948 . S
H406 C395 0.954 1_565 S
H407 C397 0.948 . S
C408 C374 1.395 . S
C408 C378 1.391 . S
C409 C371 1.389 . S
C409 C391 1.392 . S
C410 C381 1.392 . S
C410 C383 1.389 1_545 S
C411 C386 1.395 . S
C411 C388 1.391 . S
H412 C372 0.951 1_565 S
H413 C373 0.950 . S
H414 C379 0.949 . S
H415 C380 0.950 . S
H416 C384 0.951 . S
H417 C385 0.950 . S
H418 C389 0.949 . S
H419 C390 0.950 . S
H420 C394 0.950 . S
H421 C396 0.950 . S
H422 C399 0.950 . S
H423 C401 0.950 . S
C424 C425 1.443 . S
C424 N428 1.376 . S
C424 C462 1.389 . S
C425 C424 1.443 . S
C425 C426 1.340 . S
C425 H465 0.951 . S
C426 C425 1.340 . S
C426 C427 1.439 . S
C426 H466 0.950 . S
C427 C426 1.439 . S
C427 N428 1.374 . S
C427 C461 1.395 . S
N428 C424 1.376 . S
N428 C427 1.374 . S
N428 Co429 2.008 . S
Co429 N428 2.008 . S
Co429 N430 1.995 . S
Co429 N435 2.008 . S
Co429 N440 1.995 . S
Co429 N445 2.282 . S
Co429 N451 2.282 . S
N430 Co429 1.995 . S
N430 C431 1.376 . S
N430 C434 1.383 . S
C431 N430 1.376 . S
C431 C432 1.446 . S
C431 C461 1.391 . S
C432 C431 1.446 . S
C432 C433 1.339 . S
C432 H467 0.949 . S
C433 C432 1.339 . S
C433 C434 1.439 . S
C433 H468 0.950 . S
C434 N430 1.383 . S
C434 C433 1.439 . S
C434 C463 1.392 . S
N435 Co429 2.008 . S
N435 C436 1.376 . S
N435 C439 1.374 . S
C436 N435 1.376 . S
C436 C437 1.443 . S
C436 C463 1.389 . S
C437 C436 1.443 . S
C437 C438 1.340 . S
C437 H469 0.951 . S
C438 C437 1.340 . S
C438 C439 1.439 . S
C438 H470 0.950 . S
C439 N435 1.374 . S
C439 C438 1.439 . S
C439 C464 1.395 . S
N440 Co429 1.995 . S
N440 C441 1.376 . S
N440 C444 1.383 . S
C441 N440 1.376 . S
C441 C442 1.446 . S
C441 C464 1.391 . S
C442 C441 1.446 . S
C442 C443 1.339 . S
C442 H471 0.949 . S
C443 C442 1.339 . S
C443 C444 1.439 . S
C443 H472 0.950 . S
C444 N440 1.383 . S
C444 C443 1.439 . S
C444 C462 1.392 . S
N445 Co429 2.282 . S
N445 C448 1.332 . S
N445 C450 1.332 . S
C446 C447 1.386 . S
C446 C449 1.388 . S
C447 C446 1.386 . S
C447 C448 1.382 . S
C447 H473 0.950 . S
C448 N445 1.332 . S
C448 C447 1.382 . S
C448 H459 0.952 . S
C449 C446 1.388 . S
C449 C450 1.382 . S
C449 H474 0.950 . S
C450 N445 1.332 . S
C450 C449 1.382 . S
C450 H460 0.948 . S
N451 Co429 2.282 . S
N451 C455 1.332 . S
N451 C456 1.332 . S
C452 C453 1.388 . S
C452 C456 1.382 . S
C452 H475 0.950 . S
C453 C452 1.388 . S
C453 C454 1.386 . S
C454 C453 1.386 . S
C454 C455 1.382 . S
C454 H476 0.950 . S
C455 N451 1.332 . S
C455 C454 1.382 . S
C455 H457 0.952 . S
C456 N451 1.332 . S
C456 C452 1.382 . S
C456 H458 0.948 . S
H457 C455 0.952 . S
H458 C456 0.948 . S
H459 C448 0.952 . S
H460 C450 0.948 . S
C461 C427 1.395 . S
C461 C431 1.391 . S
C462 C424 1.389 . S
C462 C444 1.392 . S
C463 C434 1.392 . S
C463 C436 1.389 . S
C464 C439 1.395 . S
C464 C441 1.391 . S
H465 C425 0.951 . S
H466 C426 0.950 . S
H467 C432 0.949 . S
H468 C433 0.950 . S
H469 C437 0.951 . S
H470 C438 0.950 . S
H471 C442 0.949 . S
H472 C443 0.950 . S
H473 C447 0.950 . S
H474 C449 0.950 . S
H475 C452 0.950 . S
H476 C454 0.950 . S
C477 C478 1.443 . S
C477 N481 1.376 . S
C477 C515 1.389 . S
C478 C477 1.443 . S
C478 C479 1.340 . S
C478 H518 0.951 . S
C479 C478 1.340 . S
C479 C480 1.439 . S
C479 H519 0.950 . S
C480 C479 1.439 . S
C480 N481 1.374 . S
C480 C514 1.395 . S
N481 C477 1.376 . S
N481 C480 1.374 . S
N481 Co482 2.008 . S
Co482 N481 2.008 . S
Co482 N483 1.995 . S
Co482 N488 2.008 . S
Co482 N493 1.995 . S
Co482 N498 2.282 . S
Co482 N504 2.282 . S
N483 Co482 1.995 . S
N483 C484 1.376 . S
N483 C487 1.383 . S
C484 N483 1.376 . S
C484 C485 1.446 . S
C484 C514 1.391 . S
C485 C484 1.446 . S
C485 C486 1.339 . S
C485 H520 0.949 . S
C486 C485 1.339 . S
C486 C487 1.439 . S
C486 H521 0.950 . S
C487 N483 1.383 . S
C487 C486 1.439 . S
C487 C516 1.392 . S
N488 Co482 2.008 . S
N488 C489 1.376 . S
N488 C492 1.374 . S
C489 N488 1.376 . S
C489 C490 1.443 . S
C489 C516 1.389 . S
C490 C489 1.443 . S
C490 C491 1.340 . S
C490 H522 0.951 . S
C491 C490 1.340 . S
C491 C492 1.439 . S
C491 H523 0.950 . S
C492 N488 1.374 . S
C492 C491 1.439 . S
C492 C517 1.395 . S
N493 Co482 1.995 . S
N493 C494 1.376 . S
N493 C497 1.383 . S
C494 N493 1.376 . S
C494 C495 1.446 . S
C494 C517 1.391 . S
C495 C494 1.446 . S
C495 C496 1.339 . S
C495 H524 0.949 . S
C496 C495 1.339 . S
C496 C497 1.439 . S
C496 H525 0.950 . S
C497 N493 1.383 . S
C497 C496 1.439 . S
C497 C515 1.392 . S
N498 Co482 2.282 . S
N498 C501 1.332 . S
N498 C503 1.332 . S
C499 C500 1.386 . S
C499 C502 1.388 . S
C500 C499 1.386 . S
C500 C501 1.382 . S
C500 H526 0.950 . S
C501 N498 1.332 . S
C501 C500 1.382 . S
C501 H512 0.952 . S
C502 C499 1.388 . S
C502 C503 1.382 . S
C502 H527 0.950 . S
C503 N498 1.332 . S
C503 C502 1.382 . S
C503 H513 0.948 . S
N504 Co482 2.282 . S
N504 C508 1.332 . S
N504 C509 1.332 . S
C505 C506 1.388 . S
C505 C509 1.382 . S
C505 H528 0.950 . S
C506 C505 1.388 . S
C506 C507 1.386 . S
C507 C506 1.386 . S
C507 C508 1.382 . S
C507 H529 0.950 . S
C508 N504 1.332 . S
C508 C507 1.382 . S
C508 H510 0.952 . S
C509 N504 1.332 . S
C509 C505 1.382 . S
C509 H511 0.948 . S
H510 C508 0.952 . S
H511 C509 0.948 . S
H512 C501 0.952 . S
H513 C503 0.948 . S
C514 C480 1.395 . S
C514 C484 1.391 . S
C515 C477 1.389 . S
C515 C497 1.392 . S
C516 C487 1.392 . S
C516 C489 1.389 . S
C517 C492 1.395 . S
C517 C494 1.391 . S
H518 C478 0.951 . S
H519 C479 0.950 . S
H520 C485 0.949 . S
H521 C486 0.950 . S
H522 C490 0.951 . S
H523 C491 0.950 . S
H524 C495 0.949 . S
H525 C496 0.950 . S
H526 C500 0.950 . S
H527 C502 0.950 . S
H528 C505 0.950 . S
H529 C507 0.950 . S
C530 C531 1.443 . S
C530 N534 1.376 . S
C530 C568 1.389 . S
C531 C530 1.443 . S
C531 C532 1.340 . S
C531 H571 0.951 . S
C532 C531 1.340 . S
C532 C533 1.439 . S
C532 H572 0.950 . S
C533 C532 1.439 . S
C533 N534 1.374 . S
C533 C567 1.395 . S
N534 C530 1.376 . S
N534 C533 1.374 . S
N534 Co535 2.008 . S
Co535 N534 2.008 . S
Co535 N536 1.995 . S
Co535 N541 2.008 . S
Co535 N546 1.995 . S
Co535 N551 2.282 . S
Co535 N557 2.282 . S
N536 Co535 1.995 . S
N536 C537 1.376 . S
N536 C540 1.383 . S
C537 N536 1.376 . S
C537 C538 1.446 . S
C537 C567 1.391 . S
C538 C537 1.446 . S
C538 C539 1.339 . S
C538 H573 0.949 . S
C539 C538 1.339 . S
C539 C540 1.439 . S
C539 H574 0.950 . S
C540 N536 1.383 . S
C540 C539 1.439 . S
C540 C569 1.392 . S
N541 Co535 2.008 . S
N541 C542 1.376 . S
N541 C545 1.374 . S
C542 N541 1.376 . S
C542 C543 1.443 . S
C542 C569 1.389 . S
C543 C542 1.443 . S
C543 C544 1.340 . S
C543 H575 0.951 . S
C544 C543 1.340 . S
C544 C545 1.439 . S
C544 H576 0.950 . S
C545 N541 1.374 . S
C545 C544 1.439 . S
C545 C570 1.395 . S
N546 Co535 1.995 . S
N546 C547 1.376 . S
N546 C550 1.383 . S
C547 N546 1.376 . S
C547 C548 1.446 . S
C547 C570 1.391 . S
C548 C547 1.446 . S
C548 C549 1.339 . S
C548 H577 0.949 . S
C549 C548 1.339 . S
C549 C550 1.439 . S
C549 H578 0.950 . S
C550 N546 1.383 . S
C550 C549 1.439 . S
C550 C568 1.392 . S
N551 Co535 2.282 . S
N551 C554 1.332 . S
N551 C556 1.332 . S
C552 C553 1.386 . S
C552 C555 1.388 . S
C553 C552 1.386 . S
C553 C554 1.382 . S
C553 H579 0.950 . S
C554 N551 1.332 . S
C554 C553 1.382 . S
C554 H565 0.952 . S
C555 C552 1.388 . S
C555 C556 1.382 . S
C555 H580 0.950 . S
C556 N551 1.332 . S
C556 C555 1.382 . S
C556 H566 0.948 . S
N557 Co535 2.282 . S
N557 C561 1.332 . S
N557 C562 1.332 . S
C558 C559 1.388 . S
C558 C562 1.382 . S
C558 H581 0.950 . S
C559 C558 1.388 . S
C559 C560 1.386 . S
C560 C559 1.386 . S
C560 C561 1.382 . S
C560 H582 0.950 . S
C561 N557 1.332 . S
C561 C560 1.382 . S
C561 H563 0.952 . S
C562 N557 1.332 . S
C562 C558 1.382 . S
C562 H564 0.948 . S
H563 C561 0.952 . S
H564 C562 0.948 . S
H565 C554 0.952 . S
H566 C556 0.948 . S
C567 C533 1.395 . S
C567 C537 1.391 . S
C568 C530 1.389 . S
C568 C550 1.392 . S
C569 C540 1.392 . S
C569 C542 1.389 . S
C570 C545 1.395 . S
C570 C547 1.391 . S
H571 C531 0.951 . S
H572 C532 0.950 . S
H573 C538 0.949 . S
H574 C539 0.950 . S
H575 C543 0.951 . S
H576 C544 0.950 . S
H577 C548 0.949 . S
H578 C549 0.950 . S
H579 C553 0.950 . S
H580 C555 0.950 . S
H581 C558 0.950 . S
H582 C560 0.950 . S
C583 C584 1.443 . S
C583 N587 1.376 . S
C583 C621 1.389 . S
C584 C583 1.443 . S
C584 C585 1.340 . S
C584 H624 0.951 . S
C585 C584 1.340 . S
C585 C586 1.439 . S
C585 H625 0.950 . S
C586 C585 1.439 . S
C586 N587 1.374 . S
C586 C620 1.395 . S
N587 C583 1.376 . S
N587 C586 1.374 . S
N587 Co588 2.008 . S
Co588 N587 2.008 . S
Co588 N589 1.995 . S
Co588 N594 2.008 . S
Co588 N599 1.995 . S
Co588 N604 2.282 . S
Co588 N610 2.282 . S
N589 Co588 1.995 . S
N589 C590 1.376 . S
N589 C593 1.383 . S
C590 N589 1.376 . S
C590 C591 1.446 . S
C590 C620 1.391 . S
C591 C590 1.446 . S
C591 C592 1.339 . S
C591 H626 0.949 . S
C592 C591 1.339 . S
C592 C593 1.439 . S
C592 H627 0.950 . S
C593 N589 1.383 . S
C593 C592 1.439 . S
C593 C622 1.392 . S
N594 Co588 2.008 . S
N594 C595 1.376 . S
N594 C598 1.374 . S
C595 N594 1.376 . S
C595 C596 1.443 . S
C595 C622 1.389 . S
C596 C595 1.443 . S
C596 C597 1.340 . S
C596 H628 0.951 . S
C597 C596 1.340 . S
C597 C598 1.439 . S
C597 H629 0.950 . S
C598 N594 1.374 . S
C598 C597 1.439 . S
C598 C623 1.395 . S
N599 Co588 1.995 . S
N599 C600 1.376 . S
N599 C603 1.383 . S
C600 N599 1.376 . S
C600 C601 1.446 . S
C600 C623 1.391 . S
C601 C600 1.446 . S
C601 C602 1.339 . S
C601 H630 0.949 . S
C602 C601 1.339 . S
C602 C603 1.439 . S
C602 H631 0.950 . S
C603 N599 1.383 . S
C603 C602 1.439 . S
C603 C621 1.392 . S
N604 Co588 2.282 . S
N604 C607 1.332 . S
N604 C609 1.332 . S
C605 C606 1.386 . S
C605 C608 1.388 . S
C606 C605 1.386 . S
C606 C607 1.382 . S
C606 H632 0.950 . S
C607 N604 1.332 . S
C607 C606 1.382 . S
C607 H618 0.952 . S
C608 C605 1.388 . S
C608 C609 1.382 . S
C608 H633 0.950 . S
C609 N604 1.332 . S
C609 C608 1.382 . S
C609 H619 0.948 . S
N610 Co588 2.282 . S
N610 C614 1.332 . S
N610 C615 1.332 . S
C611 C612 1.388 . S
C611 C615 1.382 . S
C611 H634 0.950 . S
C612 C611 1.388 . S
C612 C613 1.386 . S
C613 C612 1.386 . S
C613 C614 1.382 . S
C613 H635 0.950 . S
C614 N610 1.332 . S
C614 C613 1.382 . S
C614 H616 0.952 . S
C615 N610 1.332 . S
C615 C611 1.382 . S
C615 H617 0.948 . S
H616 C614 0.952 . S
H617 C615 0.948 . S
H618 C607 0.952 . S
H619 C609 0.948 . S
C620 C586 1.395 . S
C620 C590 1.391 . S
C621 C583 1.389 . S
C621 C603 1.392 . S
C622 C593 1.392 . S
C622 C595 1.389 . S
C623 C598 1.395 . S
C623 C600 1.391 . S
H624 C584 0.951 . S
H625 C585 0.950 . S
H626 C591 0.949 . S
H627 C592 0.950 . S
H628 C596 0.951 . S
H629 C597 0.950 . S
H630 C601 0.949 . S
H631 C602 0.950 . S
H632 C606 0.950 . S
H633 C608 0.950 . S
H634 C611 0.950 . S
H635 C613 0.950 . S
C636 C637 1.443 . S
C636 N640 1.376 . S
C636 C674 1.389 . S
C637 C636 1.443 . S
C637 C638 1.340 . S
C637 H677 0.951 . S
C638 C637 1.340 . S
C638 C639 1.439 . S
C638 H678 0.950 . S
C639 C638 1.439 . S
C639 N640 1.374 . S
C639 C673 1.395 . S
N640 C636 1.376 . S
N640 C639 1.374 . S
N640 Co641 2.008 . S
Co641 N640 2.008 . S
Co641 N642 1.995 . S
Co641 N647 2.008 . S
Co641 N652 1.995 . S
Co641 N657 2.282 . S
Co641 N663 2.282 . S
N642 Co641 1.995 . S
N642 C643 1.376 . S
N642 C646 1.383 . S
C643 N642 1.376 . S
C643 C644 1.446 . S
C643 C673 1.391 . S
C644 C643 1.446 . S
C644 C645 1.339 . S
C644 H679 0.949 . S
C645 C644 1.339 . S
C645 C646 1.439 . S
C645 H680 0.950 . S
C646 N642 1.383 . S
C646 C645 1.439 . S
C646 C675 1.392 . S
N647 Co641 2.008 . S
N647 C648 1.376 . S
N647 C651 1.374 . S
C648 N647 1.376 . S
C648 C649 1.443 . S
C648 C675 1.389 . S
C649 C648 1.443 . S
C649 C650 1.340 . S
C649 H681 0.951 . S
C650 C649 1.340 . S
C650 C651 1.439 . S
C650 H682 0.950 . S
C651 N647 1.374 . S
C651 C650 1.439 . S
C651 C676 1.395 . S
N652 Co641 1.995 . S
N652 C653 1.376 . S
N652 C656 1.383 . S
C653 N652 1.376 . S
C653 C654 1.446 . S
C653 C676 1.391 . S
C654 C653 1.446 . S
C654 C655 1.339 . S
C654 H683 0.949 . S
C655 C654 1.339 . S
C655 C656 1.439 . S
C655 H684 0.950 . S
C656 N652 1.383 . S
C656 C655 1.439 . S
C656 C674 1.392 . S
N657 Co641 2.282 . S
N657 C660 1.332 . S
N657 C662 1.332 . S
C658 C659 1.386 . S
C658 C661 1.388 . S
C659 C658 1.386 . S
C659 C660 1.382 . S
C659 H685 0.950 . S
C660 N657 1.332 . S
C660 C659 1.382 . S
C660 H671 0.952 . S
C661 C658 1.388 . S
C661 C662 1.382 . S
C661 H686 0.950 . S
C662 N657 1.332 . S
C662 C661 1.382 . S
C662 H672 0.948 . S
N663 Co641 2.282 . S
N663 C667 1.332 . S
N663 C668 1.332 . S
C664 C665 1.388 . S
C664 C668 1.382 . S
C664 H687 0.950 . S
C665 C664 1.388 . S
C665 C666 1.386 . S
C666 C665 1.386 . S
C666 C667 1.382 . S
C666 H688 0.950 . S
C667 N663 1.332 . S
C667 C666 1.382 . S
C667 H669 0.952 . S
C668 N663 1.332 . S
C668 C664 1.382 . S
C668 H670 0.948 . S
H669 C667 0.952 . S
H670 C668 0.948 . S
H671 C660 0.952 . S
H672 C662 0.948 . S
C673 C639 1.395 . S
C673 C643 1.391 . S
C674 C636 1.389 . S
C674 C656 1.392 . S
C675 C646 1.392 . S
C675 C648 1.389 . S
C676 C651 1.395 . S
C676 C653 1.391 . S
H677 C637 0.951 . S
H678 C638 0.950 . S
H679 C644 0.949 . S
H680 C645 0.950 . S
H681 C649 0.951 . S
H682 C650 0.950 . S
H683 C654 0.949 . S
H684 C655 0.950 . S
H685 C659 0.950 . S
H686 C661 0.950 . S
H687 C664 0.950 . S
H688 C666 0.950 . S
C689 C690 1.443 . S
C689 N693 1.376 . S
C689 C727 1.389 . S
C690 C689 1.443 . S
C690 C691 1.340 . S
C690 H730 0.951 . S
C691 C690 1.340 . S
C691 C692 1.439 . S
C691 H731 0.950 . S
C692 C691 1.439 . S
C692 N693 1.374 . S
C692 C726 1.395 . S
N693 C689 1.376 . S
N693 C692 1.374 . S
N693 Co694 2.008 . S
Co694 N693 2.008 . S
Co694 N695 1.995 . S
Co694 N700 2.008 . S
Co694 N705 1.995 . S
Co694 N710 2.282 . S
Co694 N716 2.282 . S
N695 Co694 1.995 . S
N695 C696 1.376 . S
N695 C699 1.383 . S
C696 N695 1.376 . S
C696 C697 1.446 . S
C696 C726 1.391 . S
C697 C696 1.446 . S
C697 C698 1.339 . S
C697 H732 0.949 . S
C698 C697 1.339 . S
C698 C699 1.439 . S
C698 H733 0.950 . S
C699 N695 1.383 . S
C699 C698 1.439 . S
C699 C728 1.392 . S
N700 Co694 2.008 . S
N700 C701 1.376 . S
N700 C704 1.374 . S
C701 N700 1.376 . S
C701 C702 1.443 . S
C701 C728 1.389 . S
C702 C701 1.443 . S
C702 C703 1.340 . S
C702 H734 0.951 . S
C703 C702 1.340 . S
C703 C704 1.439 . S
C703 H735 0.950 . S
C704 N700 1.374 . S
C704 C703 1.439 . S
C704 C729 1.395 . S
N705 Co694 1.995 . S
N705 C706 1.376 . S
N705 C709 1.383 . S
C706 N705 1.376 . S
C706 C707 1.446 . S
C706 C729 1.391 . S
C707 C706 1.446 . S
C707 C708 1.339 . S
C707 H736 0.949 . S
C708 C707 1.339 . S
C708 C709 1.439 . S
C708 H737 0.950 . S
C709 N705 1.383 . S
C709 C708 1.439 . S
C709 C727 1.392 . S
N710 Co694 2.282 . S
N710 C713 1.332 . S
N710 C715 1.332 . S
C711 C712 1.386 . S
C711 C714 1.388 . S
C712 C711 1.386 . S
C712 C713 1.382 . S
C712 H738 0.950 . S
C713 N710 1.332 . S
C713 C712 1.382 . S
C713 H724 0.952 . S
C714 C711 1.388 . S
C714 C715 1.382 . S
C714 H739 0.950 . S
C715 N710 1.332 . S
C715 C714 1.382 . S
C715 H725 0.948 . S
N716 Co694 2.282 . S
N716 C720 1.332 . S
N716 C721 1.332 . S
C717 C718 1.388 . S
C717 C721 1.382 . S
C717 H740 0.950 . S
C718 C717 1.388 . S
C718 C719 1.386 . S
C719 C718 1.386 . S
C719 C720 1.382 . S
C719 H741 0.950 . S
C720 N716 1.332 . S
C720 C719 1.382 . S
C720 H722 0.952 . S
C721 N716 1.332 . S
C721 C717 1.382 . S
C721 H723 0.948 . S
H722 C720 0.952 . S
H723 C721 0.948 . S
H724 C713 0.952 . S
H725 C715 0.948 . S
C726 C692 1.395 . S
C726 C696 1.391 . S
C727 C689 1.389 . S
C727 C709 1.392 . S
C728 C699 1.392 . S
C728 C701 1.389 . S
C729 C704 1.395 . S
C729 C706 1.391 . S
H730 C690 0.951 . S
H731 C691 0.950 . S
H732 C697 0.949 . S
H733 C698 0.950 . S
H734 C702 0.951 . S
H735 C703 0.950 . S
H736 C707 0.949 . S
H737 C708 0.950 . S
H738 C712 0.950 . S
H739 C714 0.950 . S
H740 C717 0.950 . S
H741 C719 0.950 . S
C742 C743 1.443 . S
C742 N746 1.376 . S
C742 C780 1.389 . S
C743 C742 1.443 . S
C743 C744 1.340 . S
C743 H783 0.951 . S
C744 C743 1.340 . S
C744 C745 1.439 . S
C744 H784 0.950 . S
C745 C744 1.439 . S
C745 N746 1.374 . S
C745 C779 1.395 . S
N746 C742 1.376 . S
N746 C745 1.374 . S
N746 Co747 2.008 . S
Co747 N746 2.008 . S
Co747 N748 1.995 . S
Co747 N753 2.008 . S
Co747 N758 1.995 . S
Co747 N763 2.282 . S
Co747 N769 2.282 . S
N748 Co747 1.995 . S
N748 C749 1.376 . S
N748 C752 1.383 . S
C749 N748 1.376 . S
C749 C750 1.446 . S
C749 C779 1.391 . S
C750 C749 1.446 . S
C750 C751 1.339 . S
C750 H785 0.949 . S
C751 C750 1.339 . S
C751 C752 1.439 . S
C751 H786 0.950 . S
C752 N748 1.383 . S
C752 C751 1.439 . S
C752 C781 1.392 . S
N753 Co747 2.008 . S
N753 C754 1.376 . S
N753 C757 1.374 . S
C754 N753 1.376 . S
C754 C755 1.443 . S
C754 C781 1.389 . S
C755 C754 1.443 . S
C755 C756 1.340 . S
C755 H787 0.951 . S
C756 C755 1.340 . S
C756 C757 1.439 . S
C756 H788 0.950 . S
C757 N753 1.374 . S
C757 C756 1.439 . S
C757 C782 1.395 . S
N758 Co747 1.995 . S
N758 C759 1.376 . S
N758 C762 1.383 . S
C759 N758 1.376 . S
C759 C760 1.446 . S
C759 C782 1.391 . S
C760 C759 1.446 . S
C760 C761 1.339 . S
C760 H789 0.949 . S
C761 C760 1.339 . S
C761 C762 1.439 . S
C761 H790 0.950 . S
C762 N758 1.383 . S
C762 C761 1.439 . S
C762 C780 1.392 . S
N763 Co747 2.282 . S
N763 C766 1.332 . S
N763 C768 1.332 . S
C764 C765 1.386 . S
C764 C767 1.388 . S
C765 C764 1.386 . S
C765 C766 1.382 . S
C765 H791 0.950 . S
C766 N763 1.332 . S
C766 C765 1.382 . S
C766 H777 0.952 . S
C767 C764 1.388 . S
C767 C768 1.382 . S
C767 H792 0.950 . S
C768 N763 1.332 . S
C768 C767 1.382 . S
C768 H778 0.948 . S
N769 Co747 2.282 . S
N769 C773 1.332 . S
N769 C774 1.332 . S
C770 C771 1.388 . S
C770 C774 1.382 . S
C770 H793 0.950 . S
C771 C770 1.388 . S
C771 C772 1.386 . S
C772 C771 1.386 . S
C772 C773 1.382 . S
C772 H794 0.950 . S
C773 N769 1.332 . S
C773 C772 1.382 . S
C773 H775 0.952 . S
C774 N769 1.332 . S
C774 C770 1.382 . S
C774 H776 0.948 . S
H775 C773 0.952 . S
H776 C774 0.948 . S
H777 C766 0.952 . S
H778 C768 0.948 . S
C779 C745 1.395 . S
C779 C749 1.391 . S
C780 C742 1.389 . S
C780 C762 1.392 . S
C781 C752 1.392 . S
C781 C754 1.389 . S
C782 C757 1.395 . S
C782 C759 1.391 . S
H783 C743 0.951 . S
H784 C744 0.950 . S
H785 C750 0.949 . S
H786 C751 0.950 . S
H787 C755 0.951 . S
H788 C756 0.950 . S
H789 C760 0.949 . S
H790 C761 0.950 . S
H791 C765 0.950 . S
H792 C767 0.950 . S
H793 C770 0.950 . S
H794 C772 0.950 . S
C795 C796 1.443 . S
C795 N799 1.376 . S
C795 C833 1.389 . S
C796 C795 1.443 . S
C796 C797 1.340 . S
C796 H836 0.951 . S
C797 C796 1.340 . S
C797 C798 1.439 . S
C797 H837 0.950 . S
C798 C797 1.439 . S
C798 N799 1.374 . S
C798 C832 1.395 . S
N799 C795 1.376 . S
N799 C798 1.374 . S
N799 Co800 2.008 . S
Co800 N799 2.008 . S
Co800 N801 1.995 . S
Co800 N806 2.008 . S
Co800 N811 1.995 . S
Co800 N816 2.282 . S
Co800 N822 2.282 . S
N801 Co800 1.995 . S
N801 C802 1.376 . S
N801 C805 1.383 . S
C802 N801 1.376 . S
C802 C803 1.446 . S
C802 C832 1.391 . S
C803 C802 1.446 . S
C803 C804 1.339 . S
C803 H838 0.949 . S
C804 C803 1.339 . S
C804 C805 1.439 . S
C804 H839 0.950 . S
C805 N801 1.383 . S
C805 C804 1.439 . S
C805 C834 1.392 . S
N806 Co800 2.008 . S
N806 C807 1.376 . S
N806 C810 1.374 . S
C807 N806 1.376 . S
C807 C808 1.443 . S
C807 C834 1.389 . S
C808 C807 1.443 . S
C808 C809 1.340 . S
C808 H840 0.951 . S
C809 C808 1.340 . S
C809 C810 1.439 . S
C809 H841 0.950 . S
C810 N806 1.374 . S
C810 C809 1.439 . S
C810 C835 1.395 . S
N811 Co800 1.995 . S
N811 C812 1.376 . S
N811 C815 1.383 . S
C812 N811 1.376 . S
C812 C813 1.446 . S
C812 C835 1.391 . S
C813 C812 1.446 . S
C813 C814 1.339 . S
C813 H842 0.949 . S
C814 C813 1.339 . S
C814 C815 1.439 . S
C814 H843 0.950 . S
C815 N811 1.383 . S
C815 C814 1.439 . S
C815 C833 1.392 . S
N816 Co800 2.282 . S
N816 C819 1.332 . S
N816 C821 1.332 . S
C817 C818 1.386 . S
C817 C820 1.388 . S
C818 C817 1.386 . S
C818 C819 1.382 . S
C818 H844 0.950 . S
C819 N816 1.332 . S
C819 C818 1.382 . S
C819 H830 0.952 . S
C820 C817 1.388 . S
C820 C821 1.382 . S
C820 H845 0.950 . S
C821 N816 1.332 . S
C821 C820 1.382 . S
C821 H831 0.948 . S
N822 Co800 2.282 . S
N822 C826 1.332 . S
N822 C827 1.332 . S
C823 C824 1.388 . S
C823 C827 1.382 . S
C823 H846 0.950 . S
C824 C823 1.388 . S
C824 C825 1.386 . S
C825 C824 1.386 . S
C825 C826 1.382 . S
C825 H847 0.950 . S
C826 N822 1.332 . S
C826 C825 1.382 . S
C826 H828 0.952 . S
C827 N822 1.332 . S
C827 C823 1.382 . S
C827 H829 0.948 . S
H828 C826 0.952 . S
H829 C827 0.948 . S
H830 C819 0.952 . S
H831 C821 0.948 . S
C832 C798 1.395 . S
C832 C802 1.391 . S
C833 C795 1.389 . S
C833 C815 1.392 . S
C834 C805 1.392 . S
C834 C807 1.389 . S
C835 C810 1.395 . S
C835 C812 1.391 . S
H836 C796 0.951 . S
H837 C797 0.950 . S
H838 C803 0.949 . S
H839 C804 0.950 . S
H840 C808 0.951 . S
H841 C809 0.950 . S
H842 C813 0.949 . S
H843 C814 0.950 . S
H844 C818 0.950 . S
H845 C820 0.950 . S
H846 C823 0.950 . S
H847 C825 0.950 . S
C848 C849 1.443 . S
C848 N852 1.376 . S
C848 C886 1.389 1_655 S
C849 C848 1.443 . S
C849 C850 1.340 . S
C849 H889 0.951 . S
C850 C849 1.340 . S
C850 C851 1.439 . S
C850 H890 0.950 . S
C851 C850 1.439 . S
C851 N852 1.374 . S
C851 C885 1.395 . S
N852 C848 1.376 . S
N852 C851 1.374 . S
N852 Co853 2.008 . S
Co853 N852 2.008 . S
Co853 N854 1.995 . S
Co853 N859 2.008 1_645 S
Co853 N864 1.995 1_645 S
Co853 N869 2.282 1_545 S
Co853 N875 2.282 1_655 S
N854 Co853 1.995 . S
N854 C855 1.376 . S
N854 C858 1.383 . S
C855 N854 1.376 . S
C855 C856 1.446 . S
C855 C885 1.391 . S
C856 C855 1.446 . S
C856 C857 1.339 . S
C856 H891 0.949 . S
C857 C856 1.339 . S
C857 C858 1.439 . S
C857 H892 0.950 . S
C858 N854 1.383 . S
C858 C857 1.439 . S
C858 C887 1.392 1_545 S
N859 Co853 2.008 1_465 S
N859 C860 1.376 . S
N859 C863 1.374 . S
C860 N859 1.376 . S
C860 C861 1.443 . S
C860 C887 1.389 1_455 S
C861 C860 1.443 . S
C861 C862 1.340 . S
C861 H893 0.951 . S
C862 C861 1.340 . S
C862 C863 1.439 . S
C862 H894 0.950 . S
C863 N859 1.374 . S
C863 C862 1.439 . S
C863 C888 1.395 . S
N864 Co853 1.995 1_465 S
N864 C865 1.376 . S
N864 C868 1.383 1_565 S
C865 N864 1.376 . S
C865 C866 1.446 . S
C865 C888 1.391 . S
C866 C865 1.446 . S
C866 C867 1.339 . S
C866 H895 0.949 . S
C867 C866 1.339 . S
C867 C868 1.439 1_565 S
C867 H896 0.950 . S
C868 N864 1.383 1_545 S
C868 C867 1.439 1_545 S
C868 C886 1.392 . S
N869 Co853 2.282 1_565 S
N869 C872 1.332 . S
N869 C874 1.332 1_565 S
C870 C871 1.386 . S
C870 C873 1.388 . S
C871 C870 1.386 . S
C871 C872 1.382 . S
C871 H897 0.950 . S
C872 N869 1.332 . S
C872 C871 1.382 . S
C872 H883 0.952 . S
C873 C870 1.388 . S
C873 C874 1.382 1_565 S
C873 H898 0.950 . S
C874 N869 1.332 1_545 S
C874 C873 1.382 1_545 S
C874 H884 0.948 . S
N875 Co853 2.282 1_455 S
N875 C879 1.332 . S
N875 C880 1.332 . S
C876 C877 1.388 . S
C876 C880 1.382 . S
C876 H899 0.950 . S
C877 C876 1.388 . S
C877 C878 1.386 . S
C878 C877 1.386 . S
C878 C879 1.382 . S
C878 H900 0.950 . S
C879 N875 1.332 . S
C879 C878 1.382 . S
C879 H881 0.952 . S
C880 N875 1.332 . S
C880 C876 1.382 . S
C880 H882 0.948 . S
H881 C879 0.952 . S
H882 C880 0.948 . S
H883 C872 0.952 . S
H884 C874 0.948 . S
C885 C851 1.395 . S
C885 C855 1.391 . S
C886 C848 1.389 1_455 S
C886 C868 1.392 . S
C887 C858 1.392 1_565 S
C887 C860 1.389 1_655 S
C888 C863 1.395 . S
C888 C865 1.391 . S
H889 C849 0.951 . S
H890 C850 0.950 . S
H891 C856 0.949 . S
H892 C857 0.950 . S
H893 C861 0.951 . S
H894 C862 0.950 . S
H895 C866 0.949 . S
H896 C867 0.950 . S
H897 C871 0.950 . S
H898 C873 0.950 . S
H899 C876 0.950 . S
H900 C878 0.950 . S
C901 C902 1.443 . S
C901 N905 1.376 . S
C901 C939 1.389 . S
C902 C901 1.443 . S
C902 C903 1.340 . S
C902 H942 0.951 . S
C903 C902 1.340 . S
C903 C904 1.439 . S
C903 H943 0.950 . S
C904 C903 1.439 . S
C904 N905 1.374 . S
C904 C938 1.395 . S
N905 C901 1.376 . S
N905 C904 1.374 . S
N905 Co906 2.008 . S
Co906 N905 2.008 . S
Co906 N907 1.995 . S
Co906 N912 2.008 . S
Co906 N917 1.995 . S
Co906 N922 2.282 . S
Co906 N928 2.282 . S
N907 Co906 1.995 . S
N907 C908 1.376 . S
N907 C911 1.383 . S
C908 N907 1.376 . S
C908 C909 1.446 . S
C908 C938 1.391 . S
C909 C908 1.446 . S
C909 C910 1.339 . S
C909 H944 0.949 . S
C910 C909 1.339 . S
C910 C911 1.439 . S
C910 H945 0.950 . S
C911 N907 1.383 . S
C911 C910 1.439 . S
C911 C940 1.392 . S
N912 Co906 2.008 . S
N912 C913 1.376 . S
N912 C916 1.374 . S
C913 N912 1.376 . S
C913 C914 1.443 . S
C913 C940 1.389 . S
C914 C913 1.443 . S
C914 C915 1.340 . S
C914 H946 0.951 . S
C915 C914 1.340 . S
C915 C916 1.439 . S
C915 H947 0.950 . S
C916 N912 1.374 . S
C916 C915 1.439 . S
C916 C941 1.395 . S
N917 Co906 1.995 . S
N917 C918 1.376 . S
N917 C921 1.383 . S
C918 N917 1.376 . S
C918 C919 1.446 . S
C918 C941 1.391 . S
C919 C918 1.446 . S
C919 C920 1.339 . S
C919 H948 0.949 . S
C920 C919 1.339 . S
C920 C921 1.439 . S
C920 H949 0.950 . S
C921 N917 1.383 . S
C921 C920 1.439 . S
C921 C939 1.392 . S
N922 Co906 2.282 . S
N922 C925 1.332 . S
N922 C927 1.332 . S
C923 C924 1.386 . S
C923 C926 1.388 . S
C924 C923 1.386 . S
C924 C925 1.382 . S
C924 H950 0.950 . S
C925 N922 1.332 . S
C925 C924 1.382 . S
C925 H936 0.952 . S
C926 C923 1.388 . S
C926 C927 1.382 . S
C926 H951 0.950 . S
C927 N922 1.332 . S
C927 C926 1.382 . S
C927 H937 0.948 . S
N928 Co906 2.282 . S
N928 C932 1.332 . S
N928 C933 1.332 . S
C929 C930 1.388 . S
C929 C933 1.382 . S
C929 H952 0.950 . S
C930 C929 1.388 . S
C930 C931 1.386 . S
C931 C930 1.386 . S
C931 C932 1.382 . S
C931 H953 0.950 . S
C932 N928 1.332 . S
C932 C931 1.382 . S
C932 H934 0.952 . S
C933 N928 1.332 . S
C933 C929 1.382 . S
C933 H935 0.948 . S
H934 C932 0.952 . S
H935 C933 0.948 . S
H936 C925 0.952 . S
H937 C927 0.948 . S
C938 C904 1.395 . S
C938 C908 1.391 . S
C939 C901 1.389 . S
C939 C921 1.392 . S
C940 C911 1.392 . S
C940 C913 1.389 . S
C941 C916 1.395 . S
C941 C918 1.391 . S
H942 C902 0.951 . S
H943 C903 0.950 . S
H944 C909 0.949 . S
H945 C910 0.950 . S
H946 C914 0.951 . S
H947 C915 0.950 . S
H948 C919 0.949 . S
H949 C920 0.950 . S
H950 C924 0.950 . S
H951 C926 0.950 . S
H952 C929 0.950 . S
H953 C931 0.950 . S
C954 C955 1.443 . S
C954 N958 1.376 . S
C954 C992 1.389 1_655 S
C955 C954 1.443 . S
C955 C956 1.340 . S
C955 H995 0.951 . S
C956 C955 1.340 . S
C956 C957 1.439 . S
C956 H996 0.950 . S
C957 C956 1.439 . S
C957 N958 1.374 . S
C957 C991 1.395 . S
N958 C954 1.376 . S
N958 C957 1.374 . S
N958 Co959 2.008 . S
Co959 N958 2.008 . S
Co959 N960 1.995 . S
Co959 N965 2.008 1_655 S
Co959 N970 1.995 1_655 S
Co959 N975 2.282 . S
Co959 N981 2.282 1_655 S
N960 Co959 1.995 . S
N960 C961 1.376 . S
N960 C964 1.383 . S
C961 N960 1.376 . S
C961 C962 1.446 . S
C961 C991 1.391 . S
C962 C961 1.446 . S
C962 C963 1.339 . S
C962 H997 0.949 . S
C963 C962 1.339 . S
C963 C964 1.439 . S
C963 H998 0.950 . S
C964 N960 1.383 . S
C964 C963 1.439 . S
C964 C993 1.392 . S
N965 Co959 2.008 1_455 S
N965 C966 1.376 . S
N965 C969 1.374 . S
C966 N965 1.376 . S
C966 C967 1.443 . S
C966 C993 1.389 1_455 S
C967 C966 1.443 . S
C967 C968 1.340 . S
C967 H999 0.951 . S
C968 C967 1.340 . S
C968 C969 1.439 . S
C968 H1000 0.950 . S
C969 N965 1.374 . S
C969 C968 1.439 . S
C969 C994 1.395 . S
N970 Co959 1.995 1_455 S
N970 C971 1.376 . S
N970 C974 1.383 . S
C971 N970 1.376 . S
C971 C972 1.446 . S
C971 C994 1.391 . S
C972 C971 1.446 . S
C972 C973 1.339 . S
C972 H1001 0.949 . S
C973 C972 1.339 . S
C973 C974 1.439 . S
C973 H1002 0.950 . S
C974 N970 1.383 . S
C974 C973 1.439 . S
C974 C992 1.392 . S
N975 Co959 2.282 . S
N975 C978 1.332 . S
N975 C980 1.332 . S
C976 C977 1.386 . S
C976 C979 1.388 . S
C977 C976 1.386 . S
C977 C978 1.382 . S
C977 H1003 0.950 . S
C978 N975 1.332 . S
C978 C977 1.382 . S
C978 H989 0.952 . S
C979 C976 1.388 . S
C979 C980 1.382 . S
C979 H1004 0.950 . S
C980 N975 1.332 . S
C980 C979 1.382 . S
C980 H990 0.948 . S
N981 Co959 2.282 1_455 S
N981 C985 1.332 . S
N981 C986 1.332 . S
C982 C983 1.388 . S
C982 C986 1.382 . S
C982 H1005 0.950 . S
C983 C982 1.388 . S
C983 C984 1.386 . S
C984 C983 1.386 . S
C984 C985 1.382 . S
C984 H1006 0.950 . S
C985 N981 1.332 . S
C985 C984 1.382 . S
C985 H987 0.952 . S
C986 N981 1.332 . S
C986 C982 1.382 . S
C986 H988 0.948 . S
H987 C985 0.952 . S
H988 C986 0.948 . S
H989 C978 0.952 . S
H990 C980 0.948 . S
C991 C957 1.395 . S
C991 C961 1.391 . S
C992 C954 1.389 1_455 S
C992 C974 1.392 . S
C993 C964 1.392 . S
C993 C966 1.389 1_655 S
C994 C969 1.395 . S
C994 C971 1.391 . S
H995 C955 0.951 . S
H996 C956 0.950 . S
H997 C962 0.949 . S
H998 C963 0.950 . S
H999 C967 0.951 . S
H1000 C968 0.950 . S
H1001 C972 0.949 . S
H1002 C973 0.950 . S
H1003 C977 0.950 . S
H1004 C979 0.950 . S
H1005 C982 0.950 . S
H1006 C984 0.950 . S
C1007 C1008 1.443 . S
C1007 N1011 1.376 . S
C1007 C1045 1.389 . S
C1008 C1007 1.443 . S
C1008 C1009 1.340 . S
C1008 H1048 0.951 . S
C1009 C1008 1.340 . S
C1009 C1010 1.439 . S
C1009 H1049 0.950 . S
C1010 C1009 1.439 . S
C1010 N1011 1.374 . S
C1010 C1044 1.395 . S
N1011 C1007 1.376 . S
N1011 C1010 1.374 . S
N1011 Co1012 2.008 . S
Co1012 N1011 2.008 . S
Co1012 N1013 1.995 . S
Co1012 N1018 2.008 1_545 S
Co1012 N1023 1.995 1_545 S
Co1012 N1028 2.282 1_545 S
Co1012 N1034 2.282 . S
N1013 Co1012 1.995 . S
N1013 C1014 1.376 . S
N1013 C1017 1.383 . S
C1014 N1013 1.376 . S
C1014 C1015 1.446 . S
C1014 C1044 1.391 . S
C1015 C1014 1.446 . S
C1015 C1016 1.339 . S
C1015 H1050 0.949 . S
C1016 C1015 1.339 . S
C1016 C1017 1.439 . S
C1016 H1051 0.950 . S
C1017 N1013 1.383 . S
C1017 C1016 1.439 . S
C1017 C1046 1.392 1_545 S
N1018 Co1012 2.008 1_565 S
N1018 C1019 1.376 . S
N1018 C1022 1.374 . S
C1019 N1018 1.376 . S
C1019 C1020 1.443 . S
C1019 C1046 1.389 . S
C1020 C1019 1.443 . S
C1020 C1021 1.340 . S
C1020 H1052 0.951 . S
C1021 C1020 1.340 . S
C1021 C1022 1.439 . S
C1021 H1053 0.950 . S
C1022 N1018 1.374 . S
C1022 C1021 1.439 . S
C1022 C1047 1.395 . S
N1023 Co1012 1.995 1_565 S
N1023 C1024 1.376 . S
N1023 C1027 1.383 1_565 S
C1024 N1023 1.376 . S
C1024 C1025 1.446 . S
C1024 C1047 1.391 . S
C1025 C1024 1.446 . S
C1025 C1026 1.339 . S
C1025 H1054 0.949 . S
C1026 C1025 1.339 . S
C1026 C1027 1.439 1_565 S
C1026 H1055 0.950 . S
C1027 N1023 1.383 1_545 S
C1027 C1026 1.439 1_545 S
C1027 C1045 1.392 . S
N1028 Co1012 2.282 1_565 S
N1028 C1031 1.332 . S
N1028 C1033 1.332 . S
C1029 C1030 1.386 . S
C1029 C1032 1.388 . S
C1030 C1029 1.386 . S
C1030 C1031 1.382 . S
C1030 H1056 0.950 . S
C1031 N1028 1.332 . S
C1031 C1030 1.382 . S
C1031 H1042 0.952 . S
C1032 C1029 1.388 . S
C1032 C1033 1.382 . S
C1032 H1057 0.950 . S
C1033 N1028 1.332 . S
C1033 C1032 1.382 . S
C1033 H1043 0.948 1_565 S
N1034 Co1012 2.282 . S
N1034 C1038 1.332 . S
N1034 C1039 1.332 . S
C1035 C1036 1.388 . S
C1035 C1039 1.382 . S
C1035 H1058 0.950 . S
C1036 C1035 1.388 . S
C1036 C1037 1.386 . S
C1037 C1036 1.386 . S
C1037 C1038 1.382 . S
C1037 H1059 0.950 . S
C1038 N1034 1.332 . S
C1038 C1037 1.382 . S
C1038 H1040 0.952 . S
C1039 N1034 1.332 . S
C1039 C1035 1.382 . S
C1039 H1041 0.948 . S
H1040 C1038 0.952 . S
H1041 C1039 0.948 . S
H1042 C1031 0.952 . S
H1043 C1033 0.948 1_545 S
C1044 C1010 1.395 . S
C1044 C1014 1.391 . S
C1045 C1007 1.389 . S
C1045 C1027 1.392 . S
C1046 C1017 1.392 1_565 S
C1046 C1019 1.389 . S
C1047 C1022 1.395 . S
C1047 C1024 1.391 . S
H1048 C1008 0.951 . S
H1049 C1009 0.950 . S
H1050 C1015 0.949 . S
H1051 C1016 0.950 . S
H1052 C1020 0.951 . S
H1053 C1021 0.950 . S
H1054 C1025 0.949 . S
H1055 C1026 0.950 . S
H1056 C1030 0.950 . S
H1057 C1032 0.950 . S
H1058 C1035 0.950 . S
H1059 C1037 0.950 . S
C1060 C1061 1.443 1_565 S
C1060 N1064 1.376 1_565 S
C1060 C1098 1.389 . S
C1061 C1060 1.443 1_545 S
C1061 C1062 1.340 . S
C1061 H1101 0.951 1_545 S
C1062 C1061 1.340 . S
C1062 C1063 1.439 . S
C1062 H1102 0.950 . S
C1063 C1062 1.439 . S
C1063 N1064 1.374 . S
C1063 C1097 1.395 . S
N1064 C1060 1.376 1_545 S
N1064 C1063 1.374 . S
N1064 Co1065 2.008 1_645 S
Co1065 N1064 2.008 1_465 S
Co1065 N1066 1.995 1_465 S
Co1065 N1071 2.008 . S
Co1065 N1076 1.995 . S
Co1065 N1081 2.282 1_565 S
Co1065 N1087 2.282 1_455 S
N1066 Co1065 1.995 1_645 S
N1066 C1067 1.376 . S
N1066 C1070 1.383 . S
C1067 N1066 1.376 . S
C1067 C1068 1.446 . S
C1067 C1097 1.391 . S
C1068 C1067 1.446 . S
C1068 C1069 1.339 . S
C1068 H1103 0.949 . S
C1069 C1068 1.339 . S
C1069 C1070 1.439 . S
C1069 H1104 0.950 . S
C1070 N1066 1.383 . S
C1070 C1069 1.439 . S
C1070 C1099 1.392 1_655 S
N1071 Co1065 2.008 . S
N1071 C1072 1.376 . S
N1071 C1075 1.374 . S
C1072 N1071 1.376 . S
C1072 C1073 1.443 . S
C1072 C1099 1.389 1_565 S
C1073 C1072 1.443 . S
C1073 C1074 1.340 . S
C1073 H1105 0.951 . S
C1074 C1073 1.340 . S
C1074 C1075 1.439 . S
C1074 H1106 0.950 . S
C1075 N1071 1.374 . S
C1075 C1074 1.439 . S
C1075 C1100 1.395 . S
N1076 Co1065 1.995 . S
N1076 C1077 1.376 . S
N1076 C1080 1.383 . S
C1077 N1076 1.376 . S
C1077 C1078 1.446 . S
C1077 C1100 1.391 . S
C1078 C1077 1.446 . S
C1078 C1079 1.339 . S
C1078 H1107 0.949 . S
C1079 C1078 1.339 . S
C1079 C1080 1.439 . S
C1079 H1108 0.950 . S
C1080 N1076 1.383 . S
C1080 C1079 1.439 . S
C1080 C1098 1.392 1_455 S
N1081 Co1065 2.282 1_545 S
N1081 C1084 1.332 1_545 S
N1081 C1086 1.332 . S
C1082 C1083 1.386 . S
C1082 C1085 1.388 . S
C1083 C1082 1.386 . S
C1083 C1084 1.382 1_545 S
C1083 H1109 0.950 . S
C1084 N1081 1.332 1_565 S
C1084 C1083 1.382 1_565 S
C1084 H1095 0.952 . S
C1085 C1082 1.388 . S
C1085 C1086 1.382 . S
C1085 H1110 0.950 . S
C1086 N1081 1.332 . S
C1086 C1085 1.382 . S
C1086 H1096 0.948 . S
N1087 Co1065 2.282 1_655 S
N1087 C1091 1.332 . S
N1087 C1092 1.332 . S
C1088 C1089 1.388 . S
C1088 C1092 1.382 . S
C1088 H1111 0.950 . S
C1089 C1088 1.388 . S
C1089 C1090 1.386 . S
C1090 C1089 1.386 . S
C1090 C1091 1.382 . S
C1090 H1112 0.950 . S
C1091 N1087 1.332 . S
C1091 C1090 1.382 . S
C1091 H1093 0.952 . S
C1092 N1087 1.332 . S
C1092 C1088 1.382 . S
C1092 H1094 0.948 . S
H1093 C1091 0.952 . S
H1094 C1092 0.948 . S
H1095 C1084 0.952 . S
H1096 C1086 0.948 . S
C1097 C1063 1.395 . S
C1097 C1067 1.391 . S
C1098 C1060 1.389 . S
C1098 C1080 1.392 1_655 S
C1099 C1070 1.392 1_455 S
C1099 C1072 1.389 1_545 S
C1100 C1075 1.395 . S
C1100 C1077 1.391 . S
H1101 C1061 0.951 1_565 S
H1102 C1062 0.950 . S
H1103 C1068 0.949 . S
H1104 C1069 0.950 . S
H1105 C1073 0.951 . S
H1106 C1074 0.950 . S
H1107 C1078 0.949 . S
H1108 C1079 0.950 . S
H1109 C1083 0.950 . S
H1110 C1085 0.950 . S
H1111 C1088 0.950 . S
H1112 C1090 0.950 . S
C1113 C1114 1.443 . S
C1113 N1117 1.376 . S
C1113 C1151 1.389 . S
C1114 C1113 1.443 . S
C1114 C1115 1.340 . S
C1114 H1154 0.951 . S
C1115 C1114 1.340 . S
C1115 C1116 1.439 . S
C1115 H1155 0.950 . S
C1116 C1115 1.439 . S
C1116 N1117 1.374 . S
C1116 C1150 1.395 . S
N1117 C1113 1.376 . S
N1117 C1116 1.374 . S
N1117 Co1118 2.008 . S
Co1118 N1117 2.008 . S
Co1118 N1119 1.995 . S
Co1118 N1124 2.008 . S
Co1118 N1129 1.995 . S
Co1118 N1134 2.282 . S
Co1118 N1140 2.282 . S
N1119 Co1118 1.995 . S
N1119 C1120 1.376 . S
N1119 C1123 1.383 . S
C1120 N1119 1.376 . S
C1120 C1121 1.446 . S
C1120 C1150 1.391 . S
C1121 C1120 1.446 . S
C1121 C1122 1.339 . S
C1121 H1156 0.949 . S
C1122 C1121 1.339 . S
C1122 C1123 1.439 . S
C1122 H1157 0.950 . S
C1123 N1119 1.383 . S
C1123 C1122 1.439 . S
C1123 C1152 1.392 . S
N1124 Co1118 2.008 . S
N1124 C1125 1.376 . S
N1124 C1128 1.374 . S
C1125 N1124 1.376 . S
C1125 C1126 1.443 . S
C1125 C1152 1.389 . S
C1126 C1125 1.443 . S
C1126 C1127 1.340 . S
C1126 H1158 0.951 . S
C1127 C1126 1.340 . S
C1127 C1128 1.439 . S
C1127 H1159 0.950 . S
C1128 N1124 1.374 . S
C1128 C1127 1.439 . S
C1128 C1153 1.395 . S
N1129 Co1118 1.995 . S
N1129 C1130 1.376 . S
N1129 C1133 1.383 . S
C1130 N1129 1.376 . S
C1130 C1131 1.446 . S
C1130 C1153 1.391 . S
C1131 C1130 1.446 . S
C1131 C1132 1.339 . S
C1131 H1160 0.949 . S
C1132 C1131 1.339 . S
C1132 C1133 1.439 . S
C1132 H1161 0.950 . S
C1133 N1129 1.383 . S
C1133 C1132 1.439 . S
C1133 C1151 1.392 . S
N1134 Co1118 2.282 . S
N1134 C1137 1.332 . S
N1134 C1139 1.332 . S
C1135 C1136 1.386 . S
C1135 C1138 1.388 . S
C1136 C1135 1.386 . S
C1136 C1137 1.382 . S
C1136 H1162 0.950 . S
C1137 N1134 1.332 . S
C1137 C1136 1.382 . S
C1137 H1148 0.952 . S
C1138 C1135 1.388 . S
C1138 C1139 1.382 . S
C1138 H1163 0.950 . S
C1139 N1134 1.332 . S
C1139 C1138 1.382 . S
C1139 H1149 0.948 . S
N1140 Co1118 2.282 . S
N1140 C1144 1.332 . S
N1140 C1145 1.332 . S
C1141 C1142 1.388 . S
C1141 C1145 1.382 . S
C1141 H1164 0.950 . S
C1142 C1141 1.388 . S
C1142 C1143 1.386 . S
C1143 C1142 1.386 . S
C1143 C1144 1.382 . S
C1143 H1165 0.950 . S
C1144 N1140 1.332 . S
C1144 C1143 1.382 . S
C1144 H1146 0.952 . S
C1145 N1140 1.332 . S
C1145 C1141 1.382 . S
C1145 H1147 0.948 . S
H1146 C1144 0.952 . S
H1147 C1145 0.948 . S
H1148 C1137 0.952 . S
H1149 C1139 0.948 . S
C1150 C1116 1.395 . S
C1150 C1120 1.391 . S
C1151 C1113 1.389 . S
C1151 C1133 1.392 . S
C1152 C1123 1.392 . S
C1152 C1125 1.389 . S
C1153 C1128 1.395 . S
C1153 C1130 1.391 . S
H1154 C1114 0.951 . S
H1155 C1115 0.950 . S
H1156 C1121 0.949 . S
H1157 C1122 0.950 . S
H1158 C1126 0.951 . S
H1159 C1127 0.950 . S
H1160 C1131 0.949 . S
H1161 C1132 0.950 . S
H1162 C1136 0.950 . S
H1163 C1138 0.950 . S
H1164 C1141 0.950 . S
H1165 C1143 0.950 . S
C1166 C1167 1.443 . S
C1166 N1170 1.376 . S
C1166 C1204 1.389 . S
C1167 C1166 1.443 . S
C1167 C1168 1.340 . S
C1167 H1207 0.951 . S
C1168 C1167 1.340 . S
C1168 C1169 1.439 . S
C1168 H1208 0.950 . S
C1169 C1168 1.439 . S
C1169 N1170 1.374 . S
C1169 C1203 1.395 . S
N1170 C1166 1.376 . S
N1170 C1169 1.374 . S
N1170 Co1171 2.008 1_655 S
Co1171 N1170 2.008 1_455 S
Co1171 N1172 1.995 1_455 S
Co1171 N1177 2.008 . S
Co1171 N1182 1.995 . S
Co1171 N1187 2.282 . S
Co1171 N1193 2.282 1_455 S
N1172 Co1171 1.995 1_655 S
N1172 C1173 1.376 . S
N1172 C1176 1.383 . S
C1173 N1172 1.376 . S
C1173 C1174 1.446 . S
C1173 C1203 1.391 . S
C1174 C1173 1.446 . S
C1174 C1175 1.339 . S
C1174 H1209 0.949 . S
C1175 C1174 1.339 . S
C1175 C1176 1.439 . S
C1175 H1210 0.950 . S
C1176 N1172 1.383 . S
C1176 C1175 1.439 . S
C1176 C1205 1.392 1_655 S
N1177 Co1171 2.008 . S
N1177 C1178 1.376 . S
N1177 C1181 1.374 . S
C1178 N1177 1.376 . S
C1178 C1179 1.443 . S
C1178 C1205 1.389 . S
C1179 C1178 1.443 . S
C1179 C1180 1.340 . S
C1179 H1211 0.951 . S
C1180 C1179 1.340 . S
C1180 C1181 1.439 . S
C1180 H1212 0.950 . S
C1181 N1177 1.374 . S
C1181 C1180 1.439 . S
C1181 C1206 1.395 . S
N1182 Co1171 1.995 . S
N1182 C1183 1.376 . S
N1182 C1186 1.383 . S
C1183 N1182 1.376 . S
C1183 C1184 1.446 . S
C1183 C1206 1.391 . S
C1184 C1183 1.446 . S
C1184 C1185 1.339 . S
C1184 H1213 0.949 . S
C1185 C1184 1.339 . S
C1185 C1186 1.439 . S
C1185 H1214 0.950 . S
C1186 N1182 1.383 . S
C1186 C1185 1.439 . S
C1186 C1204 1.392 1_455 S
N1187 Co1171 2.282 . S
N1187 C1190 1.332 . S
N1187 C1192 1.332 . S
C1188 C1189 1.386 . S
C1188 C1191 1.388 . S
C1189 C1188 1.386 . S
C1189 C1190 1.382 . S
C1189 H1215 0.950 . S
C1190 N1187 1.332 . S
C1190 C1189 1.382 . S
C1190 H1201 0.952 . S
C1191 C1188 1.388 . S
C1191 C1192 1.382 . S
C1191 H1216 0.950 . S
C1192 N1187 1.332 . S
C1192 C1191 1.382 . S
C1192 H1202 0.948 . S
N1193 Co1171 2.282 1_655 S
N1193 C1197 1.332 . S
N1193 C1198 1.332 . S
C1194 C1195 1.388 . S
C1194 C1198 1.382 . S
C1194 H1217 0.950 . S
C1195 C1194 1.388 . S
C1195 C1196 1.386 . S
C1196 C1195 1.386 . S
C1196 C1197 1.382 . S
C1196 H1218 0.950 . S
C1197 N1193 1.332 . S
C1197 C1196 1.382 . S
C1197 H1199 0.952 . S
C1198 N1193 1.332 . S
C1198 C1194 1.382 . S
C1198 H1200 0.948 . S
H1199 C1197 0.952 . S
H1200 C1198 0.948 . S
H1201 C1190 0.952 . S
H1202 C1192 0.948 . S
C1203 C1169 1.395 . S
C1203 C1173 1.391 . S
C1204 C1166 1.389 . S
C1204 C1186 1.392 1_655 S
C1205 C1176 1.392 1_455 S
C1205 C1178 1.389 . S
C1206 C1181 1.395 . S
C1206 C1183 1.391 . S
H1207 C1167 0.951 . S
H1208 C1168 0.950 . S
H1209 C1174 0.949 . S
H1210 C1175 0.950 . S
H1211 C1179 0.951 . S
H1212 C1180 0.950 . S
H1213 C1184 0.949 . S
H1214 C1185 0.950 . S
H1215 C1189 0.950 . S
H1216 C1191 0.950 . S
H1217 C1194 0.950 . S
H1218 C1196 0.950 . S
C1219 C1220 1.443 1_565 S
C1219 N1223 1.376 1_565 S
C1219 C1257 1.389 . S
C1220 C1219 1.443 1_545 S
C1220 C1221 1.340 . S
C1220 H1260 0.951 1_545 S
C1221 C1220 1.340 . S
C1221 C1222 1.439 . S
C1221 H1261 0.950 . S
C1222 C1221 1.439 . S
C1222 N1223 1.374 . S
C1222 C1256 1.395 . S
N1223 C1219 1.376 1_545 S
N1223 C1222 1.374 . S
N1223 Co1224 2.008 1_545 S
Co1224 N1223 2.008 1_565 S
Co1224 N1225 1.995 1_565 S
Co1224 N1230 2.008 . S
Co1224 N1235 1.995 . S
Co1224 N1240 2.282 1_565 S
Co1224 N1246 2.282 . S
N1225 Co1224 1.995 1_545 S
N1225 C1226 1.376 . S
N1225 C1229 1.383 . S
C1226 N1225 1.376 . S
C1226 C1227 1.446 . S
C1226 C1256 1.391 . S
C1227 C1226 1.446 . S
C1227 C1228 1.339 . S
C1227 H1262 0.949 . S
C1228 C1227 1.339 . S
C1228 C1229 1.439 . S
C1228 H1263 0.950 . S
C1229 N1225 1.383 . S
C1229 C1228 1.439 . S
C1229 C1258 1.392 . S
N1230 Co1224 2.008 . S
N1230 C1231 1.376 . S
N1230 C1234 1.374 . S
C1231 N1230 1.376 . S
C1231 C1232 1.443 . S
C1231 C1258 1.389 1_565 S
C1232 C1231 1.443 . S
C1232 C1233 1.340 . S
C1232 H1264 0.951 . S
C1233 C1232 1.340 . S
C1233 C1234 1.439 . S
C1233 H1265 0.950 . S
C1234 N1230 1.374 . S
C1234 C1233 1.439 . S
C1234 C1259 1.395 . S
N1235 Co1224 1.995 . S
N1235 C1236 1.376 . S
N1235 C1239 1.383 . S
C1236 N1235 1.376 . S
C1236 C1237 1.446 . S
C1236 C1259 1.391 . S
C1237 C1236 1.446 . S
C1237 C1238 1.339 . S
C1237 H1266 0.949 . S
C1238 C1237 1.339 . S
C1238 C1239 1.439 . S
C1238 H1267 0.950 . S
C1239 N1235 1.383 . S
C1239 C1238 1.439 . S
C1239 C1257 1.392 . S
N1240 Co1224 2.282 1_545 S
N1240 C1243 1.332 . S
N1240 C1245 1.332 . S
C1241 C1242 1.386 . S
C1241 C1244 1.388 . S
C1242 C1241 1.386 . S
C1242 C1243 1.382 . S
C1242 H1268 0.950 . S
C1243 N1240 1.332 . S
C1243 C1242 1.382 . S
C1243 H1254 0.952 1_545 S
C1244 C1241 1.388 . S
C1244 C1245 1.382 . S
C1244 H1269 0.950 . S
C1245 N1240 1.332 . S
C1245 C1244 1.382 . S
C1245 H1255 0.948 . S
N1246 Co1224 2.282 . S
N1246 C1250 1.332 . S
N1246 C1251 1.332 . S
C1247 C1248 1.388 . S
C1247 C1251 1.382 . S
C1247 H1270 0.950 . S
C1248 C1247 1.388 . S
C1248 C1249 1.386 . S
C1249 C1248 1.386 . S
C1249 C1250 1.382 . S
C1249 H1271 0.950 . S
C1250 N1246 1.332 . S
C1250 C1249 1.382 . S
C1250 H1252 0.952 . S
C1251 N1246 1.332 . S
C1251 C1247 1.382 . S
C1251 H1253 0.948 . S
H1252 C1250 0.952 . S
H1253 C1251 0.948 . S
H1254 C1243 0.952 1_565 S
H1255 C1245 0.948 . S
C1256 C1222 1.395 . S
C1256 C1226 1.391 . S
C1257 C1219 1.389 . S
C1257 C1239 1.392 . S
C1258 C1229 1.392 . S
C1258 C1231 1.389 1_545 S
C1259 C1234 1.395 . S
C1259 C1236 1.391 . S
H1260 C1220 0.951 1_565 S
H1261 C1221 0.950 . S
H1262 C1227 0.949 . S
H1263 C1228 0.950 . S
H1264 C1232 0.951 . S
H1265 C1233 0.950 . S
H1266 C1237 0.949 . S
H1267 C1238 0.950 . S
H1268 C1242 0.950 . S
H1269 C1244 0.950 . S
H1270 C1247 0.950 . S
H1271 C1249 0.950 . S
C1272 C1273 1.443 . S
C1272 N1276 1.376 . S
C1272 C1310 1.389 1_655 S
C1273 C1272 1.443 . S
C1273 C1274 1.340 . S
C1273 H1313 0.951 . S
C1274 C1273 1.340 . S
C1274 C1275 1.439 . S
C1274 H1314 0.950 . S
C1275 C1274 1.439 . S
C1275 N1276 1.374 . S
C1275 C1309 1.395 . S
N1276 C1272 1.376 . S
N1276 C1275 1.374 . S
N1276 Co1277 2.008 . S
Co1277 N1276 2.008 . S
Co1277 N1278 1.995 . S
Co1277 N1283 2.008 1_655 S
Co1277 N1288 1.995 1_655 S
Co1277 N1293 2.282 . S
Co1277 N1299 2.282 1_655 S
N1278 Co1277 1.995 . S
N1278 C1279 1.376 . S
N1278 C1282 1.383 . S
C1279 N1278 1.376 . S
C1279 C1280 1.446 . S
C1279 C1309 1.391 . S
C1280 C1279 1.446 . S
C1280 C1281 1.339 . S
C1280 H1315 0.949 . S
C1281 C1280 1.339 . S
C1281 C1282 1.439 . S
C1281 H1316 0.950 . S
C1282 N1278 1.383 . S
C1282 C1281 1.439 . S
C1282 C1311 1.392 . S
N1283 Co1277 2.008 1_455 S
N1283 C1284 1.376 . S
N1283 C1287 1.374 . S
C1284 N1283 1.376 . S
C1284 C1285 1.443 . S
C1284 C1311 1.389 1_455 S
C1285 C1284 1.443 . S
C1285 C1286 1.340 . S
C1285 H1317 0.951 . S
C1286 C1285 1.340 . S
C1286 C1287 1.439 . S
C1286 H1318 0.950 . S
C1287 N1283 1.374 . S
C1287 C1286 1.439 . S
C1287 C1312 1.395 . S
N1288 Co1277 1.995 1_455 S
N1288 C1289 1.376 . S
N1288 C1292 1.383 . S
C1289 N1288 1.376 . S
C1289 C1290 1.446 . S
C1289 C1312 1.391 . S
C1290 C1289 1.446 . S
C1290 C1291 1.339 . S
C1290 H1319 0.949 . S
C1291 C1290 1.339 . S
C1291 C1292 1.439 . S
C1291 H1320 0.950 . S
C1292 N1288 1.383 . S
C1292 C1291 1.439 . S
C1292 C1310 1.392 . S
N1293 Co1277 2.282 . S
N1293 C1296 1.332 . S
N1293 C1298 1.332 . S
C1294 C1295 1.386 . S
C1294 C1297 1.388 . S
C1295 C1294 1.386 . S
C1295 C1296 1.382 . S
C1295 H1321 0.950 . S
C1296 N1293 1.332 . S
C1296 C1295 1.382 . S
C1296 H1307 0.952 . S
C1297 C1294 1.388 . S
C1297 C1298 1.382 . S
C1297 H1322 0.950 . S
C1298 N1293 1.332 . S
C1298 C1297 1.382 . S
C1298 H1308 0.948 . S
N1299 Co1277 2.282 1_455 S
N1299 C1303 1.332 . S
N1299 C1304 1.332 . S
C1300 C1301 1.388 . S
C1300 C1304 1.382 . S
C1300 H1323 0.950 . S
C1301 C1300 1.388 . S
C1301 C1302 1.386 . S
C1302 C1301 1.386 . S
C1302 C1303 1.382 . S
C1302 H1324 0.950 . S
C1303 N1299 1.332 . S
C1303 C1302 1.382 . S
C1303 H1305 0.952 . S
C1304 N1299 1.332 . S
C1304 C1300 1.382 . S
C1304 H1306 0.948 . S
H1305 C1303 0.952 . S
H1306 C1304 0.948 . S
H1307 C1296 0.952 . S
H1308 C1298 0.948 . S
C1309 C1275 1.395 . S
C1309 C1279 1.391 . S
C1310 C1272 1.389 1_455 S
C1310 C1292 1.392 . S
C1311 C1282 1.392 . S
C1311 C1284 1.389 1_655 S
C1312 C1287 1.395 . S
C1312 C1289 1.391 . S
H1313 C1273 0.951 . S
H1314 C1274 0.950 . S
H1315 C1280 0.949 . S
H1316 C1281 0.950 . S
H1317 C1285 0.951 . S
H1318 C1286 0.950 . S
H1319 C1290 0.949 . S
H1320 C1291 0.950 . S
H1321 C1295 0.950 . S
H1322 C1297 0.950 . S
H1323 C1300 0.950 . S
H1324 C1302 0.950 . S
C1325 C1326 1.443 . S
C1325 N1329 1.376 . S
C1325 C1363 1.389 . S
C1326 C1325 1.443 . S
C1326 C1327 1.340 . S
C1326 H1366 0.951 . S
C1327 C1326 1.340 . S
C1327 C1328 1.439 . S
C1327 H1367 0.950 . S
C1328 C1327 1.439 . S
C1328 N1329 1.374 . S
C1328 C1362 1.395 . S
N1329 C1325 1.376 . S
N1329 C1328 1.374 . S
N1329 Co1330 2.008 . S
Co1330 N1329 2.008 . S
Co1330 N1331 1.995 . S
Co1330 N1336 2.008 . S
Co1330 N1341 1.995 . S
Co1330 N1346 2.282 . S
Co1330 N1352 2.282 . S
N1331 Co1330 1.995 . S
N1331 C1332 1.376 . S
N1331 C1335 1.383 . S
C1332 N1331 1.376 . S
C1332 C1333 1.446 . S
C1332 C1362 1.391 . S
C1333 C1332 1.446 . S
C1333 C1334 1.339 . S
C1333 H1368 0.949 . S
C1334 C1333 1.339 . S
C1334 C1335 1.439 . S
C1334 H1369 0.950 . S
C1335 N1331 1.383 . S
C1335 C1334 1.439 . S
C1335 C1364 1.392 . S
N1336 Co1330 2.008 . S
N1336 C1337 1.376 . S
N1336 C1340 1.374 . S
C1337 N1336 1.376 . S
C1337 C1338 1.443 . S
C1337 C1364 1.389 . S
C1338 C1337 1.443 . S
C1338 C1339 1.340 . S
C1338 H1370 0.951 . S
C1339 C1338 1.340 . S
C1339 C1340 1.439 . S
C1339 H1371 0.950 . S
C1340 N1336 1.374 . S
C1340 C1339 1.439 . S
C1340 C1365 1.395 . S
N1341 Co1330 1.995 . S
N1341 C1342 1.376 . S
N1341 C1345 1.383 . S
C1342 N1341 1.376 . S
C1342 C1343 1.446 . S
C1342 C1365 1.391 . S
C1343 C1342 1.446 . S
C1343 C1344 1.339 . S
C1343 H1372 0.949 . S
C1344 C1343 1.339 . S
C1344 C1345 1.439 . S
C1344 H1373 0.950 . S
C1345 N1341 1.383 . S
C1345 C1344 1.439 . S
C1345 C1363 1.392 . S
N1346 Co1330 2.282 . S
N1346 C1349 1.332 . S
N1346 C1351 1.332 . S
C1347 C1348 1.386 . S
C1347 C1350 1.388 . S
C1348 C1347 1.386 . S
C1348 C1349 1.382 . S
C1348 H1374 0.950 . S
C1349 N1346 1.332 . S
C1349 C1348 1.382 . S
C1349 H1360 0.952 . S
C1350 C1347 1.388 . S
C1350 C1351 1.382 . S
C1350 H1375 0.950 . S
C1351 N1346 1.332 . S
C1351 C1350 1.382 . S
C1351 H1361 0.948 . S
N1352 Co1330 2.282 . S
N1352 C1356 1.332 . S
N1352 C1357 1.332 . S
C1353 C1354 1.388 . S
C1353 C1357 1.382 . S
C1353 H1376 0.950 . S
C1354 C1353 1.388 . S
C1354 C1355 1.386 . S
C1355 C1354 1.386 . S
C1355 C1356 1.382 . S
C1355 H1377 0.950 . S
C1356 N1352 1.332 . S
C1356 C1355 1.382 . S
C1356 H1358 0.952 . S
C1357 N1352 1.332 . S
C1357 C1353 1.382 . S
C1357 H1359 0.948 . S
H1358 C1356 0.952 . S
H1359 C1357 0.948 . S
H1360 C1349 0.952 . S
H1361 C1351 0.948 . S
C1362 C1328 1.395 . S
C1362 C1332 1.391 . S
C1363 C1325 1.389 . S
C1363 C1345 1.392 . S
C1364 C1335 1.392 . S
C1364 C1337 1.389 . S
C1365 C1340 1.395 . S
C1365 C1342 1.391 . S
H1366 C1326 0.951 . S
H1367 C1327 0.950 . S
H1368 C1333 0.949 . S
H1369 C1334 0.950 . S
H1370 C1338 0.951 . S
H1371 C1339 0.950 . S
H1372 C1343 0.949 . S
H1373 C1344 0.950 . S
H1374 C1348 0.950 . S
H1375 C1350 0.950 . S
H1376 C1353 0.950 . S
H1377 C1355 0.950 . S
C1378 C1379 1.443 . S
C1378 N1382 1.376 . S
C1378 C1416 1.389 1_655 S
C1379 C1378 1.443 . S
C1379 C1380 1.340 . S
C1379 H1419 0.951 . S
C1380 C1379 1.340 . S
C1380 C1381 1.439 . S
C1380 H1420 0.950 . S
C1381 C1380 1.439 . S
C1381 N1382 1.374 . S
C1381 C1415 1.395 . S
N1382 C1378 1.376 . S
N1382 C1381 1.374 . S
N1382 Co1383 2.008 . S
Co1383 N1382 2.008 . S
Co1383 N1384 1.995 . S
Co1383 N1389 2.008 1_655 S
Co1383 N1394 1.995 1_655 S
Co1383 N1399 2.282 . S
Co1383 N1405 2.282 1_655 S
N1384 Co1383 1.995 . S
N1384 C1385 1.376 . S
N1384 C1388 1.383 . S
C1385 N1384 1.376 . S
C1385 C1386 1.446 . S
C1385 C1415 1.391 . S
C1386 C1385 1.446 . S
C1386 C1387 1.339 . S
C1386 H1421 0.949 . S
C1387 C1386 1.339 . S
C1387 C1388 1.439 . S
C1387 H1422 0.950 . S
C1388 N1384 1.383 . S
C1388 C1387 1.439 . S
C1388 C1417 1.392 . S
N1389 Co1383 2.008 1_455 S
N1389 C1390 1.376 . S
N1389 C1393 1.374 . S
C1390 N1389 1.376 . S
C1390 C1391 1.443 . S
C1390 C1417 1.389 1_455 S
C1391 C1390 1.443 . S
C1391 C1392 1.340 . S
C1391 H1423 0.951 . S
C1392 C1391 1.340 . S
C1392 C1393 1.439 . S
C1392 H1424 0.950 . S
C1393 N1389 1.374 . S
C1393 C1392 1.439 . S
C1393 C1418 1.395 . S
N1394 Co1383 1.995 1_455 S
N1394 C1395 1.376 . S
N1394 C1398 1.383 . S
C1395 N1394 1.376 . S
C1395 C1396 1.446 . S
C1395 C1418 1.391 . S
C1396 C1395 1.446 . S
C1396 C1397 1.339 . S
C1396 H1425 0.949 . S
C1397 C1396 1.339 . S
C1397 C1398 1.439 . S
C1397 H1426 0.950 . S
C1398 N1394 1.383 . S
C1398 C1397 1.439 . S
C1398 C1416 1.392 . S
N1399 Co1383 2.282 . S
N1399 C1402 1.332 . S
N1399 C1404 1.332 . S
C1400 C1401 1.386 . S
C1400 C1403 1.388 . S
C1401 C1400 1.386 . S
C1401 C1402 1.382 . S
C1401 H1427 0.950 . S
C1402 N1399 1.332 . S
C1402 C1401 1.382 . S
C1402 H1413 0.952 . S
C1403 C1400 1.388 . S
C1403 C1404 1.382 . S
C1403 H1428 0.950 . S
C1404 N1399 1.332 . S
C1404 C1403 1.382 . S
C1404 H1414 0.948 . S
N1405 Co1383 2.282 1_455 S
N1405 C1409 1.332 . S
N1405 C1410 1.332 . S
C1406 C1407 1.388 . S
C1406 C1410 1.382 . S
C1406 H1429 0.950 . S
C1407 C1406 1.388 . S
C1407 C1408 1.386 . S
C1408 C1407 1.386 . S
C1408 C1409 1.382 . S
C1408 H1430 0.950 . S
C1409 N1405 1.332 . S
C1409 C1408 1.382 . S
C1409 H1411 0.952 . S
C1410 N1405 1.332 . S
C1410 C1406 1.382 . S
C1410 H1412 0.948 . S
H1411 C1409 0.952 . S
H1412 C1410 0.948 . S
H1413 C1402 0.952 . S
H1414 C1404 0.948 . S
C1415 C1381 1.395 . S
C1415 C1385 1.391 . S
C1416 C1378 1.389 1_455 S
C1416 C1398 1.392 . S
C1417 C1388 1.392 . S
C1417 C1390 1.389 1_655 S
C1418 C1393 1.395 . S
C1418 C1395 1.391 . S
H1419 C1379 0.951 . S
H1420 C1380 0.950 . S
H1421 C1386 0.949 . S
H1422 C1387 0.950 . S
H1423 C1391 0.951 . S
H1424 C1392 0.950 . S
H1425 C1396 0.949 . S
H1426 C1397 0.950 . S
H1427 C1401 0.950 . S
H1428 C1403 0.950 . S
H1429 C1406 0.950 . S
H1430 C1408 0.950 . S
C1431 C1432 1.443 . S
C1431 N1435 1.376 . S
C1431 C1469 1.389 . S
C1432 C1431 1.443 . S
C1432 C1433 1.340 . S
C1432 H1472 0.951 . S
C1433 C1432 1.340 . S
C1433 C1434 1.439 . S
C1433 H1473 0.950 . S
C1434 C1433 1.439 . S
C1434 N1435 1.374 . S
C1434 C1468 1.395 . S
N1435 C1431 1.376 . S
N1435 C1434 1.374 . S
N1435 Co1436 2.008 . S
Co1436 N1435 2.008 . S
Co1436 N1437 1.995 . S
Co1436 N1442 2.008 . S
Co1436 N1447 1.995 . S
Co1436 N1452 2.282 . S
Co1436 N1458 2.282 . S
N1437 Co1436 1.995 . S
N1437 C1438 1.376 . S
N1437 C1441 1.383 . S
C1438 N1437 1.376 . S
C1438 C1439 1.446 . S
C1438 C1468 1.391 . S
C1439 C1438 1.446 . S
C1439 C1440 1.339 . S
C1439 H1474 0.949 . S
C1440 C1439 1.339 . S
C1440 C1441 1.439 . S
C1440 H1475 0.950 . S
C1441 N1437 1.383 . S
C1441 C1440 1.439 . S
C1441 C1470 1.392 . S
N1442 Co1436 2.008 . S
N1442 C1443 1.376 . S
N1442 C1446 1.374 . S
C1443 N1442 1.376 . S
C1443 C1444 1.443 . S
C1443 C1470 1.389 . S
C1444 C1443 1.443 . S
C1444 C1445 1.340 . S
C1444 H1476 0.951 . S
C1445 C1444 1.340 . S
C1445 C1446 1.439 . S
C1445 H1477 0.950 . S
C1446 N1442 1.374 . S
C1446 C1445 1.439 . S
C1446 C1471 1.395 . S
N1447 Co1436 1.995 . S
N1447 C1448 1.376 . S
N1447 C1451 1.383 . S
C1448 N1447 1.376 . S
C1448 C1449 1.446 . S
C1448 C1471 1.391 . S
C1449 C1448 1.446 . S
C1449 C1450 1.339 . S
C1449 H1478 0.949 . S
C1450 C1449 1.339 . S
C1450 C1451 1.439 . S
C1450 H1479 0.950 . S
C1451 N1447 1.383 . S
C1451 C1450 1.439 . S
C1451 C1469 1.392 . S
N1452 Co1436 2.282 . S
N1452 C1455 1.332 . S
N1452 C1457 1.332 . S
C1453 C1454 1.386 . S
C1453 C1456 1.388 . S
C1454 C1453 1.386 . S
C1454 C1455 1.382 . S
C1454 H1480 0.950 . S
C1455 N1452 1.332 . S
C1455 C1454 1.382 . S
C1455 H1466 0.952 . S
C1456 C1453 1.388 . S
C1456 C1457 1.382 . S
C1456 H1481 0.950 . S
C1457 N1452 1.332 . S
C1457 C1456 1.382 . S
C1457 H1467 0.948 . S
N1458 Co1436 2.282 . S
N1458 C1462 1.332 . S
N1458 C1463 1.332 . S
C1459 C1460 1.388 . S
C1459 C1463 1.382 . S
C1459 H1482 0.950 . S
C1460 C1459 1.388 . S
C1460 C1461 1.386 . S
C1461 C1460 1.386 . S
C1461 C1462 1.382 . S
C1461 H1483 0.950 . S
C1462 N1458 1.332 . S
C1462 C1461 1.382 . S
C1462 H1464 0.952 . S
C1463 N1458 1.332 . S
C1463 C1459 1.382 . S
C1463 H1465 0.948 . S
H1464 C1462 0.952 . S
H1465 C1463 0.948 . S
H1466 C1455 0.952 . S
H1467 C1457 0.948 . S
C1468 C1434 1.395 . S
C1468 C1438 1.391 . S
C1469 C1431 1.389 . S
C1469 C1451 1.392 . S
C1470 C1441 1.392 . S
C1470 C1443 1.389 . S
C1471 C1446 1.395 . S
C1471 C1448 1.391 . S
H1472 C1432 0.951 . S
H1473 C1433 0.950 . S
H1474 C1439 0.949 . S
H1475 C1440 0.950 . S
H1476 C1444 0.951 . S
H1477 C1445 0.950 . S
H1478 C1449 0.949 . S
H1479 C1450 0.950 . S
H1480 C1454 0.950 . S
H1481 C1456 0.950 . S
H1482 C1459 0.950 . S
H1483 C1461 0.950 . S
C1484 C1485 1.443 . S
C1484 N1488 1.376 . S
C1484 C1522 1.389 . S
C1485 C1484 1.443 . S
C1485 C1486 1.340 . S
C1485 H1525 0.951 . S
C1486 C1485 1.340 . S
C1486 C1487 1.439 . S
C1486 H1526 0.950 . S
C1487 C1486 1.439 . S
C1487 N1488 1.374 . S
C1487 C1521 1.395 . S
N1488 C1484 1.376 . S
N1488 C1487 1.374 . S
N1488 Co1489 2.008 1_655 S
Co1489 N1488 2.008 1_455 S
Co1489 N1490 1.995 1_455 S
Co1489 N1495 2.008 . S
Co1489 N1500 1.995 . S
Co1489 N1505 2.282 . S
Co1489 N1511 2.282 1_455 S
N1490 Co1489 1.995 1_655 S
N1490 C1491 1.376 . S
N1490 C1494 1.383 . S
C1491 N1490 1.376 . S
C1491 C1492 1.446 . S
C1491 C1521 1.391 . S
C1492 C1491 1.446 . S
C1492 C1493 1.339 . S
C1492 H1527 0.949 . S
C1493 C1492 1.339 . S
C1493 C1494 1.439 . S
C1493 H1528 0.950 . S
C1494 N1490 1.383 . S
C1494 C1493 1.439 . S
C1494 C1523 1.392 1_655 S
N1495 Co1489 2.008 . S
N1495 C1496 1.376 . S
N1495 C1499 1.374 . S
C1496 N1495 1.376 . S
C1496 C1497 1.443 . S
C1496 C1523 1.389 . S
C1497 C1496 1.443 . S
C1497 C1498 1.340 . S
C1497 H1529 0.951 . S
C1498 C1497 1.340 . S
C1498 C1499 1.439 . S
C1498 H1530 0.950 . S
C1499 N1495 1.374 . S
C1499 C1498 1.439 . S
C1499 C1524 1.395 . S
N1500 Co1489 1.995 . S
N1500 C1501 1.376 . S
N1500 C1504 1.383 . S
C1501 N1500 1.376 . S
C1501 C1502 1.446 . S
C1501 C1524 1.391 . S
C1502 C1501 1.446 . S
C1502 C1503 1.339 . S
C1502 H1531 0.949 . S
C1503 C1502 1.339 . S
C1503 C1504 1.439 . S
C1503 H1532 0.950 . S
C1504 N1500 1.383 . S
C1504 C1503 1.439 . S
C1504 C1522 1.392 1_455 S
N1505 Co1489 2.282 . S
N1505 C1508 1.332 . S
N1505 C1510 1.332 . S
C1506 C1507 1.386 . S
C1506 C1509 1.388 . S
C1507 C1506 1.386 . S
C1507 C1508 1.382 . S
C1507 H1533 0.950 . S
C1508 N1505 1.332 . S
C1508 C1507 1.382 . S
C1508 H1519 0.952 . S
C1509 C1506 1.388 . S
C1509 C1510 1.382 . S
C1509 H1534 0.950 . S
C1510 N1505 1.332 . S
C1510 C1509 1.382 . S
C1510 H1520 0.948 . S
N1511 Co1489 2.282 1_655 S
N1511 C1515 1.332 . S
N1511 C1516 1.332 . S
C1512 C1513 1.388 . S
C1512 C1516 1.382 . S
C1512 H1535 0.950 . S
C1513 C1512 1.388 . S
C1513 C1514 1.386 . S
C1514 C1513 1.386 . S
C1514 C1515 1.382 . S
C1514 H1536 0.950 . S
C1515 N1511 1.332 . S
C1515 C1514 1.382 . S
C1515 H1517 0.952 . S
C1516 N1511 1.332 . S
C1516 C1512 1.382 . S
C1516 H1518 0.948 . S
H1517 C1515 0.952 . S
H1518 C1516 0.948 . S
H1519 C1508 0.952 . S
H1520 C1510 0.948 . S
C1521 C1487 1.395 . S
C1521 C1491 1.391 . S
C1522 C1484 1.389 . S
C1522 C1504 1.392 1_655 S
C1523 C1494 1.392 1_455 S
C1523 C1496 1.389 . S
C1524 C1499 1.395 . S
C1524 C1501 1.391 . S
H1525 C1485 0.951 . S
H1526 C1486 0.950 . S
H1527 C1492 0.949 . S
H1528 C1493 0.950 . S
H1529 C1497 0.951 . S
H1530 C1498 0.950 . S
H1531 C1502 0.949 . S
H1532 C1503 0.950 . S
H1533 C1507 0.950 . S
H1534 C1509 0.950 . S
H1535 C1512 0.950 . S
H1536 C1514 0.950 . S
C1537 C1538 1.443 . S
C1537 N1541 1.376 . S
C1537 C1575 1.389 . S
C1538 C1537 1.443 . S
C1538 C1539 1.340 . S
C1538 H1578 0.951 . S
C1539 C1538 1.340 . S
C1539 C1540 1.439 . S
C1539 H1579 0.950 . S
C1540 C1539 1.439 . S
C1540 N1541 1.374 . S
C1540 C1574 1.395 . S
N1541 C1537 1.376 . S
N1541 C1540 1.374 . S
N1541 Co1542 2.008 . S
Co1542 N1541 2.008 . S
Co1542 N1543 1.995 . S
Co1542 N1548 2.008 . S
Co1542 N1553 1.995 . S
Co1542 N1558 2.282 . S
Co1542 N1564 2.282 . S
N1543 Co1542 1.995 . S
N1543 C1544 1.376 . S
N1543 C1547 1.383 . S
C1544 N1543 1.376 . S
C1544 C1545 1.446 . S
C1544 C1574 1.391 . S
C1545 C1544 1.446 . S
C1545 C1546 1.339 . S
C1545 H1580 0.949 . S
C1546 C1545 1.339 . S
C1546 C1547 1.439 . S
C1546 H1581 0.950 . S
C1547 N1543 1.383 . S
C1547 C1546 1.439 . S
C1547 C1576 1.392 . S
N1548 Co1542 2.008 . S
N1548 C1549 1.376 . S
N1548 C1552 1.374 . S
C1549 N1548 1.376 . S
C1549 C1550 1.443 . S
C1549 C1576 1.389 . S
C1550 C1549 1.443 . S
C1550 C1551 1.340 . S
C1550 H1582 0.951 . S
C1551 C1550 1.340 . S
C1551 C1552 1.439 . S
C1551 H1583 0.950 . S
C1552 N1548 1.374 . S
C1552 C1551 1.439 . S
C1552 C1577 1.395 . S
N1553 Co1542 1.995 . S
N1553 C1554 1.376 . S
N1553 C1557 1.383 . S
C1554 N1553 1.376 . S
C1554 C1555 1.446 . S
C1554 C1577 1.391 . S
C1555 C1554 1.446 . S
C1555 C1556 1.339 . S
C1555 H1584 0.949 . S
C1556 C1555 1.339 . S
C1556 C1557 1.439 . S
C1556 H1585 0.950 . S
C1557 N1553 1.383 . S
C1557 C1556 1.439 . S
C1557 C1575 1.392 . S
N1558 Co1542 2.282 . S
N1558 C1561 1.332 . S
N1558 C1563 1.332 . S
C1559 C1560 1.386 . S
C1559 C1562 1.388 . S
C1560 C1559 1.386 . S
C1560 C1561 1.382 . S
C1560 H1586 0.950 . S
C1561 N1558 1.332 . S
C1561 C1560 1.382 . S
C1561 H1572 0.952 . S
C1562 C1559 1.388 . S
C1562 C1563 1.382 . S
C1562 H1587 0.950 . S
C1563 N1558 1.332 . S
C1563 C1562 1.382 . S
C1563 H1573 0.948 . S
N1564 Co1542 2.282 . S
N1564 C1568 1.332 . S
N1564 C1569 1.332 . S
C1565 C1566 1.388 . S
C1565 C1569 1.382 . S
C1565 H1588 0.950 . S
C1566 C1565 1.388 . S
C1566 C1567 1.386 . S
C1567 C1566 1.386 . S
C1567 C1568 1.382 . S
C1567 H1589 0.950 . S
C1568 N1564 1.332 . S
C1568 C1567 1.382 . S
C1568 H1570 0.952 . S
C1569 N1564 1.332 . S
C1569 C1565 1.382 . S
C1569 H1571 0.948 . S
H1570 C1568 0.952 . S
H1571 C1569 0.948 . S
H1572 C1561 0.952 . S
H1573 C1563 0.948 . S
C1574 C1540 1.395 . S
C1574 C1544 1.391 . S
C1575 C1537 1.389 . S
C1575 C1557 1.392 . S
C1576 C1547 1.392 . S
C1576 C1549 1.389 . S
C1577 C1552 1.395 . S
C1577 C1554 1.391 . S
H1578 C1538 0.951 . S
H1579 C1539 0.950 . S
H1580 C1545 0.949 . S
H1581 C1546 0.950 . S
H1582 C1550 0.951 . S
H1583 C1551 0.950 . S
H1584 C1555 0.949 . S
H1585 C1556 0.950 . S
H1586 C1560 0.950 . S
H1587 C1562 0.950 . S
H1588 C1565 0.950 . S
H1589 C1567 0.950 . S
C1590 C1591 1.443 . S
C1590 N1594 1.376 . S
C1590 C1628 1.389 . S
C1591 C1590 1.443 . S
C1591 C1592 1.340 . S
C1591 H1631 0.951 . S
C1592 C1591 1.340 . S
C1592 C1593 1.439 . S
C1592 H1632 0.950 . S
C1593 C1592 1.439 . S
C1593 N1594 1.374 . S
C1593 C1627 1.395 . S
N1594 C1590 1.376 . S
N1594 C1593 1.374 . S
N1594 Co1595 2.008 1_655 S
Co1595 N1594 2.008 1_455 S
Co1595 N1596 1.995 1_455 S
Co1595 N1601 2.008 . S
Co1595 N1606 1.995 . S
Co1595 N1611 2.282 . S
Co1595 N1617 2.282 1_455 S
N1596 Co1595 1.995 1_655 S
N1596 C1597 1.376 . S
N1596 C1600 1.383 . S
C1597 N1596 1.376 . S
C1597 C1598 1.446 . S
C1597 C1627 1.391 . S
C1598 C1597 1.446 . S
C1598 C1599 1.339 . S
C1598 H1633 0.949 . S
C1599 C1598 1.339 . S
C1599 C1600 1.439 . S
C1599 H1634 0.950 . S
C1600 N1596 1.383 . S
C1600 C1599 1.439 . S
C1600 C1629 1.392 1_655 S
N1601 Co1595 2.008 . S
N1601 C1602 1.376 . S
N1601 C1605 1.374 . S
C1602 N1601 1.376 . S
C1602 C1603 1.443 . S
C1602 C1629 1.389 . S
C1603 C1602 1.443 . S
C1603 C1604 1.340 . S
C1603 H1635 0.951 . S
C1604 C1603 1.340 . S
C1604 C1605 1.439 . S
C1604 H1636 0.950 . S
C1605 N1601 1.374 . S
C1605 C1604 1.439 . S
C1605 C1630 1.395 . S
N1606 Co1595 1.995 . S
N1606 C1607 1.376 . S
N1606 C1610 1.383 . S
C1607 N1606 1.376 . S
C1607 C1608 1.446 . S
C1607 C1630 1.391 . S
C1608 C1607 1.446 . S
C1608 C1609 1.339 . S
C1608 H1637 0.949 . S
C1609 C1608 1.339 . S
C1609 C1610 1.439 . S
C1609 H1638 0.950 . S
C1610 N1606 1.383 . S
C1610 C1609 1.439 . S
C1610 C1628 1.392 1_455 S
N1611 Co1595 2.282 . S
N1611 C1614 1.332 . S
N1611 C1616 1.332 . S
C1612 C1613 1.386 . S
C1612 C1615 1.388 . S
C1613 C1612 1.386 . S
C1613 C1614 1.382 . S
C1613 H1639 0.950 . S
C1614 N1611 1.332 . S
C1614 C1613 1.382 . S
C1614 H1625 0.952 . S
C1615 C1612 1.388 . S
C1615 C1616 1.382 . S
C1615 H1640 0.950 . S
C1616 N1611 1.332 . S
C1616 C1615 1.382 . S
C1616 H1626 0.948 . S
N1617 Co1595 2.282 1_655 S
N1617 C1621 1.332 . S
N1617 C1622 1.332 . S
C1618 C1619 1.388 . S
C1618 C1622 1.382 . S
C1618 H1641 0.950 . S
C1619 C1618 1.388 . S
C1619 C1620 1.386 . S
C1620 C1619 1.386 . S
C1620 C1621 1.382 . S
C1620 H1642 0.950 . S
C1621 N1617 1.332 . S
C1621 C1620 1.382 . S
C1621 H1623 0.952 . S
C1622 N1617 1.332 . S
C1622 C1618 1.382 . S
C1622 H1624 0.948 . S
H1623 C1621 0.952 . S
H1624 C1622 0.948 . S
H1625 C1614 0.952 . S
H1626 C1616 0.948 . S
C1627 C1593 1.395 . S
C1627 C1597 1.391 . S
C1628 C1590 1.389 . S
C1628 C1610 1.392 1_655 S
C1629 C1600 1.392 1_455 S
C1629 C1602 1.389 . S
C1630 C1605 1.395 . S
C1630 C1607 1.391 . S
H1631 C1591 0.951 . S
H1632 C1592 0.950 . S
H1633 C1598 0.949 . S
H1634 C1599 0.950 . S
H1635 C1603 0.951 . S
H1636 C1604 0.950 . S
H1637 C1608 0.949 . S
H1638 C1609 0.950 . S
H1639 C1613 0.950 . S
H1640 C1615 0.950 . S
H1641 C1618 0.950 . S
H1642 C1620 0.950 . S
C1643 C1644 1.443 . S
C1643 N1647 1.376 . S
C1643 C1681 1.389 . S
C1644 C1643 1.443 . S
C1644 C1645 1.340 . S
C1644 H1684 0.951 . S
C1645 C1644 1.340 . S
C1645 C1646 1.439 . S
C1645 H1685 0.950 . S
C1646 C1645 1.439 . S
C1646 N1647 1.374 . S
C1646 C1680 1.395 . S
N1647 C1643 1.376 . S
N1647 C1646 1.374 . S
N1647 Co1648 2.008 . S
Co1648 N1647 2.008 . S
Co1648 N1649 1.995 . S
Co1648 N1654 2.008 . S
Co1648 N1659 1.995 . S
Co1648 N1664 2.282 . S
Co1648 N1670 2.282 . S
N1649 Co1648 1.995 . S
N1649 C1650 1.376 . S
N1649 C1653 1.383 . S
C1650 N1649 1.376 . S
C1650 C1651 1.446 . S
C1650 C1680 1.391 . S
C1651 C1650 1.446 . S
C1651 C1652 1.339 . S
C1651 H1686 0.949 . S
C1652 C1651 1.339 . S
C1652 C1653 1.439 . S
C1652 H1687 0.950 . S
C1653 N1649 1.383 . S
C1653 C1652 1.439 . S
C1653 C1682 1.392 . S
N1654 Co1648 2.008 . S
N1654 C1655 1.376 . S
N1654 C1658 1.374 . S
C1655 N1654 1.376 . S
C1655 C1656 1.443 . S
C1655 C1682 1.389 . S
C1656 C1655 1.443 . S
C1656 C1657 1.340 . S
C1656 H1688 0.951 . S
C1657 C1656 1.340 . S
C1657 C1658 1.439 . S
C1657 H1689 0.950 . S
C1658 N1654 1.374 . S
C1658 C1657 1.439 . S
C1658 C1683 1.395 . S
N1659 Co1648 1.995 . S
N1659 C1660 1.376 . S
N1659 C1663 1.383 . S
C1660 N1659 1.376 . S
C1660 C1661 1.446 . S
C1660 C1683 1.391 . S
C1661 C1660 1.446 . S
C1661 C1662 1.339 . S
C1661 H1690 0.949 . S
C1662 C1661 1.339 . S
C1662 C1663 1.439 . S
C1662 H1691 0.950 . S
C1663 N1659 1.383 . S
C1663 C1662 1.439 . S
C1663 C1681 1.392 . S
N1664 Co1648 2.282 . S
N1664 C1667 1.332 . S
N1664 C1669 1.332 . S
C1665 C1666 1.386 . S
C1665 C1668 1.388 . S
C1666 C1665 1.386 . S
C1666 C1667 1.382 . S
C1666 H1692 0.950 . S
C1667 N1664 1.332 . S
C1667 C1666 1.382 . S
C1667 H1678 0.952 . S
C1668 C1665 1.388 . S
C1668 C1669 1.382 . S
C1668 H1693 0.950 . S
C1669 N1664 1.332 . S
C1669 C1668 1.382 . S
C1669 H1679 0.948 . S
N1670 Co1648 2.282 . S
N1670 C1674 1.332 . S
N1670 C1675 1.332 . S
C1671 C1672 1.388 . S
C1671 C1675 1.382 . S
C1671 H1694 0.950 . S
C1672 C1671 1.388 . S
C1672 C1673 1.386 . S
C1673 C1672 1.386 . S
C1673 C1674 1.382 . S
C1673 H1695 0.950 . S
C1674 N1670 1.332 . S
C1674 C1673 1.382 . S
C1674 H1676 0.952 . S
C1675 N1670 1.332 . S
C1675 C1671 1.382 . S
C1675 H1677 0.948 . S
H1676 C1674 0.952 . S
H1677 C1675 0.948 . S
H1678 C1667 0.952 . S
H1679 C1669 0.948 . S
C1680 C1646 1.395 . S
C1680 C1650 1.391 . S
C1681 C1643 1.389 . S
C1681 C1663 1.392 . S
C1682 C1653 1.392 . S
C1682 C1655 1.389 . S
C1683 C1658 1.395 . S
C1683 C1660 1.391 . S
H1684 C1644 0.951 . S
H1685 C1645 0.950 . S
H1686 C1651 0.949 . S
H1687 C1652 0.950 . S
H1688 C1656 0.951 . S
H1689 C1657 0.950 . S
H1690 C1661 0.949 . S
H1691 C1662 0.950 . S
H1692 C1666 0.950 . S
H1693 C1668 0.950 . S
H1694 C1671 0.950 . S
H1695 C1673 0.950 . S
C1696 C1697 1.369 . S
C1696 C1698 1.419 . S
C1696 H1700 0.930 . S
C1697 C1696 1.369 . S
C1697 C1706 1.429 . S
C1698 C1696 1.419 . S
C1698 C1699 1.363 . S
C1698 H1701 0.929 . S
C1699 C1698 1.363 . S
C1699 C1705 1.428 . S
H1700 C1696 0.930 . S
H1701 C1698 0.929 . S
S1702 N1703 1.613 . S
S1702 N1704 1.610 . S
N1703 S1702 1.613 . S
N1703 C1706 1.350 . S
N1704 S1702 1.610 . S
N1704 C1705 1.351 . S
C1705 C1699 1.428 . S
C1705 N1704 1.351 . S
C1705 C1706 1.434 . S
C1706 C1697 1.429 . S
C1706 N1703 1.350 . S
C1706 C1705 1.434 . S
C1707 C1708 1.369 . S
C1707 C1709 1.419 . S
C1707 H1711 0.930 . S
C1708 C1707 1.369 . S
C1708 C1717 1.429 . S
C1709 C1707 1.419 . S
C1709 C1710 1.363 . S
C1709 H1712 0.929 . S
C1710 C1709 1.363 . S
C1710 C1716 1.428 . S
H1711 C1707 0.930 . S
H1712 C1709 0.929 . S
S1713 N1714 1.613 . S
S1713 N1715 1.610 . S
N1714 S1713 1.613 . S
N1714 C1717 1.350 . S
N1715 S1713 1.610 . S
N1715 C1716 1.351 . S
C1716 C1710 1.428 . S
C1716 N1715 1.351 . S
C1716 C1717 1.434 . S
C1717 C1708 1.429 . S
C1717 N1714 1.350 . S
C1717 C1716 1.434 . S
C1718 C1719 1.369 . S
C1718 C1720 1.419 . S
C1718 H1722 0.930 . S
C1719 C1718 1.369 . S
C1719 C1728 1.429 . S
C1720 C1718 1.419 . S
C1720 C1721 1.363 . S
C1720 H1723 0.929 . S
C1721 C1720 1.363 . S
C1721 C1727 1.428 . S
H1722 C1718 0.930 . S
H1723 C1720 0.929 . S
S1724 N1725 1.613 . S
S1724 N1726 1.610 . S
N1725 S1724 1.613 . S
N1725 C1728 1.350 . S
N1726 S1724 1.610 . S
N1726 C1727 1.351 . S
C1727 C1721 1.428 . S
C1727 N1726 1.351 . S
C1727 C1728 1.434 . S
C1728 C1719 1.429 . S
C1728 N1725 1.350 . S
C1728 C1727 1.434 . S
C1729 C1730 1.369 . S
C1729 C1731 1.419 . S
C1729 H1733 0.930 . S
C1730 C1729 1.369 . S
C1730 C1739 1.429 . S
C1731 C1729 1.419 . S
C1731 C1732 1.363 . S
C1731 H1734 0.929 . S
C1732 C1731 1.363 . S
C1732 C1738 1.428 . S
H1733 C1729 0.930 . S
H1734 C1731 0.929 . S
S1735 N1736 1.613 . S
S1735 N1737 1.610 . S
N1736 S1735 1.613 . S
N1736 C1739 1.350 . S
N1737 S1735 1.610 . S
N1737 C1738 1.351 . S
C1738 C1732 1.428 . S
C1738 N1737 1.351 . S
C1738 C1739 1.434 . S
C1739 C1730 1.429 . S
C1739 N1736 1.350 . S
C1739 C1738 1.434 . S
C1740 C1741 1.369 . S
C1740 C1742 1.419 . S
C1740 H1744 0.930 . S
C1741 C1740 1.369 . S
C1741 C1750 1.429 . S
C1742 C1740 1.419 . S
C1742 C1743 1.363 . S
C1742 H1745 0.929 . S
C1743 C1742 1.363 . S
C1743 C1749 1.428 . S
H1744 C1740 0.930 . S
H1745 C1742 0.929 . S
S1746 N1747 1.613 . S
S1746 N1748 1.610 . S
N1747 S1746 1.613 . S
N1747 C1750 1.350 . S
N1748 S1746 1.610 . S
N1748 C1749 1.351 . S
C1749 C1743 1.428 . S
C1749 N1748 1.351 . S
C1749 C1750 1.434 . S
C1750 C1741 1.429 . S
C1750 N1747 1.350 . S
C1750 C1749 1.434 . S
C1751 C1752 1.369 . S
C1751 C1753 1.419 . S
C1751 H1755 0.930 . S
C1752 C1751 1.369 . S
C1752 C1761 1.429 . S
C1753 C1751 1.419 . S
C1753 C1754 1.363 . S
C1753 H1756 0.929 . S
C1754 C1753 1.363 . S
C1754 C1760 1.428 . S
H1755 C1751 0.930 . S
H1756 C1753 0.929 . S
S1757 N1758 1.613 . S
S1757 N1759 1.610 . S
N1758 S1757 1.613 . S
N1758 C1761 1.350 . S
N1759 S1757 1.610 . S
N1759 C1760 1.351 . S
C1760 C1754 1.428 . S
C1760 N1759 1.351 . S
C1760 C1761 1.434 . S
C1761 C1752 1.429 . S
C1761 N1758 1.350 . S
C1761 C1760 1.434 . S
C1762 C1763 1.369 . S
C1762 C1764 1.419 . S
C1762 H1766 0.930 . S
C1763 C1762 1.369 . S
C1763 C1772 1.429 . S
C1764 C1762 1.419 . S
C1764 C1765 1.363 . S
C1764 H1767 0.929 . S
C1765 C1764 1.363 . S
C1765 C1771 1.428 . S
H1766 C1762 0.930 . S
H1767 C1764 0.929 . S
S1768 N1769 1.613 . S
S1768 N1770 1.610 . S
N1769 S1768 1.613 . S
N1769 C1772 1.350 . S
N1770 S1768 1.610 . S
N1770 C1771 1.351 . S
C1771 C1765 1.428 . S
C1771 N1770 1.351 . S
C1771 C1772 1.434 . S
C1772 C1763 1.429 . S
C1772 N1769 1.350 . S
C1772 C1771 1.434 . S
C1773 C1774 1.369 . S
C1773 C1775 1.419 . S
C1773 H1777 0.930 . S
C1774 C1773 1.369 . S
C1774 C1783 1.429 . S
C1775 C1773 1.419 . S
C1775 C1776 1.363 . S
C1775 H1778 0.929 . S
C1776 C1775 1.363 . S
C1776 C1782 1.428 . S
H1777 C1773 0.930 . S
H1778 C1775 0.929 . S
S1779 N1780 1.613 . S
S1779 N1781 1.610 . S
N1780 S1779 1.613 . S
N1780 C1783 1.350 . S
N1781 S1779 1.610 . S
N1781 C1782 1.351 . S
C1782 C1776 1.428 . S
C1782 N1781 1.351 . S
C1782 C1783 1.434 . S
C1783 C1774 1.429 . S
C1783 N1780 1.350 . S
C1783 C1782 1.434 . S
C1784 C1785 1.369 . S
C1784 C1786 1.419 . S
C1784 H1788 0.930 . S
C1785 C1784 1.369 . S
C1785 C1794 1.429 1_455 S
C1786 C1784 1.419 . S
C1786 C1787 1.363 . S
C1786 H1789 0.929 . S
C1787 C1786 1.363 . S
C1787 C1793 1.428 1_455 S
H1788 C1784 0.930 . S
H1789 C1786 0.929 . S
S1790 N1791 1.613 . S
S1790 N1792 1.610 . S
N1791 S1790 1.613 . S
N1791 C1794 1.350 . S
N1792 S1790 1.610 . S
N1792 C1793 1.351 . S
C1793 C1787 1.428 1_655 S
C1793 N1792 1.351 . S
C1793 C1794 1.434 . S
C1794 C1785 1.429 1_655 S
C1794 N1791 1.350 . S
C1794 C1793 1.434 . S
C1795 C1796 1.369 . S
C1795 C1797 1.419 . S
C1795 H1799 0.930 . S
C1796 C1795 1.369 . S
C1796 C1805 1.429 . S
C1797 C1795 1.419 . S
C1797 C1798 1.363 . S
C1797 H1800 0.929 . S
C1798 C1797 1.363 . S
C1798 C1804 1.428 . S
H1799 C1795 0.930 . S
H1800 C1797 0.929 . S
S1801 N1802 1.613 . S
S1801 N1803 1.610 . S
N1802 S1801 1.613 . S
N1802 C1805 1.350 . S
N1803 S1801 1.610 . S
N1803 C1804 1.351 . S
C1804 C1798 1.428 . S
C1804 N1803 1.351 . S
C1804 C1805 1.434 . S
C1805 C1796 1.429 . S
C1805 N1802 1.350 . S
C1805 C1804 1.434 . S
C1806 C1807 1.369 . S
C1806 C1808 1.419 . S
C1806 H1810 0.930 . S
C1807 C1806 1.369 . S
C1807 C1816 1.429 1_655 S
C1808 C1806 1.419 . S
C1808 C1809 1.363 . S
C1808 H1811 0.929 . S
C1809 C1808 1.363 . S
C1809 C1815 1.428 1_655 S
H1810 C1806 0.930 . S
H1811 C1808 0.929 . S
S1812 N1813 1.613 . S
S1812 N1814 1.610 . S
N1813 S1812 1.613 . S
N1813 C1816 1.350 . S
N1814 S1812 1.610 . S
N1814 C1815 1.351 . S
C1815 C1809 1.428 1_455 S
C1815 N1814 1.351 . S
C1815 C1816 1.434 . S
C1816 C1807 1.429 1_455 S
C1816 N1813 1.350 . S
C1816 C1815 1.434 . S
C1817 C1818 1.369 . S
C1817 C1819 1.419 . S
C1817 H1821 0.930 . S
C1818 C1817 1.369 . S
C1818 C1827 1.429 . S
C1819 C1817 1.419 . S
C1819 C1820 1.363 . S
C1819 H1822 0.929 . S
C1820 C1819 1.363 . S
C1820 C1826 1.428 . S
H1821 C1817 0.930 . S
H1822 C1819 0.929 . S
S1823 N1824 1.613 . S
S1823 N1825 1.610 . S
N1824 S1823 1.613 . S
N1824 C1827 1.350 . S
N1825 S1823 1.610 . S
N1825 C1826 1.351 . S
C1826 C1820 1.428 . S
C1826 N1825 1.351 . S
C1826 C1827 1.434 . S
C1827 C1818 1.429 . S
C1827 N1824 1.350 . S
C1827 C1826 1.434 . S
C1828 C1829 1.369 . S
C1828 C1830 1.419 . S
C1828 H1832 0.930 1_455 S
C1829 C1828 1.369 . S
C1829 C1838 1.429 . S
C1830 C1828 1.419 . S
C1830 C1831 1.363 . S
C1830 H1833 0.926 1_455 S
C1831 C1830 1.363 . S
C1831 C1837 1.428 . S
H1832 C1828 0.930 1_655 S
H1833 C1830 0.926 1_655 S
S1834 N1835 1.613 . S
S1834 N1836 1.610 . S
N1835 S1834 1.613 . S
N1835 C1838 1.350 . S
N1836 S1834 1.610 . S
N1836 C1837 1.351 . S
C1837 C1831 1.428 . S
C1837 N1836 1.351 . S
C1837 C1838 1.434 . S
C1838 C1829 1.429 . S
C1838 N1835 1.350 . S
C1838 C1837 1.434 . S
C1839 C1840 1.369 . S
C1839 C1841 1.419 . S
C1839 H1843 0.930 . S
C1840 C1839 1.369 . S
C1840 C1849 1.429 . S
C1841 C1839 1.419 . S
C1841 C1842 1.363 . S
C1841 H1844 0.929 . S
C1842 C1841 1.363 . S
C1842 C1848 1.428 . S
H1843 C1839 0.930 . S
H1844 C1841 0.929 . S
S1845 N1846 1.613 . S
S1845 N1847 1.610 . S
N1846 S1845 1.613 . S
N1846 C1849 1.350 . S
N1847 S1845 1.610 . S
N1847 C1848 1.351 . S
C1848 C1842 1.428 . S
C1848 N1847 1.351 . S
C1848 C1849 1.434 . S
C1849 C1840 1.429 . S
C1849 N1846 1.350 . S
C1849 C1848 1.434 . S
C1850 C1851 1.369 . S
C1850 C1852 1.419 . S
C1850 H1854 0.930 . S
C1851 C1850 1.369 . S
C1851 C1860 1.429 1_655 S
C1852 C1850 1.419 . S
C1852 C1853 1.363 . S
C1852 H1855 0.929 . S
C1853 C1852 1.363 . S
C1853 C1859 1.428 1_655 S
H1854 C1850 0.930 . S
H1855 C1852 0.929 . S
S1856 N1857 1.613 . S
S1856 N1858 1.610 . S
N1857 S1856 1.613 . S
N1857 C1860 1.350 . S
N1858 S1856 1.610 . S
N1858 C1859 1.351 . S
C1859 C1853 1.428 1_455 S
C1859 N1858 1.351 . S
C1859 C1860 1.434 . S
C1860 C1851 1.429 1_455 S
C1860 N1857 1.350 . S
C1860 C1859 1.434 . S
C1861 C1862 1.369 . S
C1861 C1863 1.419 . S
C1861 H1865 0.930 . S
C1862 C1861 1.369 . S
C1862 C1871 1.429 . S
C1863 C1861 1.419 . S
C1863 C1864 1.363 . S
C1863 H1866 0.929 . S
C1864 C1863 1.363 . S
C1864 C1870 1.428 . S
H1865 C1861 0.930 . S
H1866 C1863 0.929 . S
S1867 N1868 1.613 . S
S1867 N1869 1.610 . S
N1868 S1867 1.613 . S
N1868 C1871 1.350 . S
N1869 S1867 1.610 . S
N1869 C1870 1.351 . S
C1870 C1864 1.428 . S
C1870 N1869 1.351 . S
C1870 C1871 1.434 . S
C1871 C1862 1.429 . S
C1871 N1868 1.350 . S
C1871 C1870 1.434 . S
C1872 C1873 1.369 . S
C1872 C1874 1.419 . S
C1872 H1876 0.930 . S
C1873 C1872 1.369 . S
C1873 C1882 1.429 . S
C1874 C1872 1.419 . S
C1874 C1875 1.363 . S
C1874 H1877 0.929 . S
C1875 C1874 1.363 . S
C1875 C1881 1.428 . S
H1876 C1872 0.930 . S
H1877 C1874 0.929 . S
S1878 N1879 1.613 . S
S1878 N1880 1.610 . S
N1879 S1878 1.613 . S
N1879 C1882 1.350 . S
N1880 S1878 1.610 . S
N1880 C1881 1.351 . S
C1881 C1875 1.428 . S
C1881 N1880 1.351 . S
C1881 C1882 1.434 . S
C1882 C1873 1.429 . S
C1882 N1879 1.350 . S
C1882 C1881 1.434 . S
C1883 C1884 1.369 . S
C1883 C1885 1.419 . S
C1883 H1887 0.930 . S
C1884 C1883 1.369 . S
C1884 C1893 1.429 . S
C1885 C1883 1.419 . S
C1885 C1886 1.363 . S
C1885 H1888 0.929 . S
C1886 C1885 1.363 . S
C1886 C1892 1.428 . S
H1887 C1883 0.930 . S
H1888 C1885 0.929 . S
S1889 N1890 1.613 . S
S1889 N1891 1.610 . S
N1890 S1889 1.613 . S
N1890 C1893 1.350 . S
N1891 S1889 1.610 . S
N1891 C1892 1.351 . S
C1892 C1886 1.428 . S
C1892 N1891 1.351 . S
C1892 C1893 1.434 . S
C1893 C1884 1.429 . S
C1893 N1890 1.350 . S
C1893 C1892 1.434 . S
C1894 C1895 1.369 . S
C1894 C1896 1.419 . S
C1894 H1898 0.930 . S
C1895 C1894 1.369 . S
C1895 C1904 1.429 . S
C1896 C1894 1.419 . S
C1896 C1897 1.363 . S
C1896 H1899 0.929 . S
C1897 C1896 1.363 . S
C1897 C1903 1.428 . S
H1898 C1894 0.930 . S
H1899 C1896 0.929 . S
S1900 N1901 1.613 . S
S1900 N1902 1.610 . S
N1901 S1900 1.613 . S
N1901 C1904 1.350 . S
N1902 S1900 1.610 . S
N1902 C1903 1.351 . S
C1903 C1897 1.428 . S
C1903 N1902 1.351 . S
C1903 C1904 1.434 . S
C1904 C1895 1.429 . S
C1904 N1901 1.350 . S
C1904 C1903 1.434 . S
C1905 C1906 1.369 . S
C1905 C1907 1.419 . S
C1905 H1909 0.930 . S
C1906 C1905 1.369 . S
C1906 C1915 1.429 . S
C1907 C1905 1.419 . S
C1907 C1908 1.363 . S
C1907 H1910 0.929 . S
C1908 C1907 1.363 . S
C1908 C1914 1.428 . S
H1909 C1905 0.930 . S
H1910 C1907 0.929 . S
S1911 N1912 1.613 . S
S1911 N1913 1.610 . S
N1912 S1911 1.613 . S
N1912 C1915 1.350 . S
N1913 S1911 1.610 . S
N1913 C1914 1.351 . S
C1914 C1908 1.428 . S
C1914 N1913 1.351 . S
C1914 C1915 1.434 . S
C1915 C1906 1.429 . S
C1915 N1912 1.350 . S
C1915 C1914 1.434 . S
C1916 C1917 1.369 . S
C1916 C1918 1.419 . S
C1916 H1920 0.930 . S
C1917 C1916 1.369 . S
C1917 C1926 1.429 . S
C1918 C1916 1.419 . S
C1918 C1919 1.363 . S
C1918 H1921 0.929 . S
C1919 C1918 1.363 . S
C1919 C1925 1.428 . S
H1920 C1916 0.930 . S
H1921 C1918 0.929 . S
S1922 N1923 1.613 . S
S1922 N1924 1.610 . S
N1923 S1922 1.613 . S
N1923 C1926 1.350 . S
N1924 S1922 1.610 . S
N1924 C1925 1.351 . S
C1925 C1919 1.428 . S
C1925 N1924 1.351 . S
C1925 C1926 1.434 . S
C1926 C1917 1.429 . S
C1926 N1923 1.350 . S
C1926 C1925 1.434 . S
C1927 C1928 1.369 . S
C1927 C1929 1.419 . S
C1927 H1931 0.930 . S
C1928 C1927 1.369 . S
C1928 C1937 1.429 . S
C1929 C1927 1.419 . S
C1929 C1930 1.363 . S
C1929 H1932 0.929 . S
C1930 C1929 1.363 . S
C1930 C1936 1.428 . S
H1931 C1927 0.930 . S
H1932 C1929 0.929 . S
S1933 N1934 1.613 . S
S1933 N1935 1.610 . S
N1934 S1933 1.613 . S
N1934 C1937 1.350 . S
N1935 S1933 1.610 . S
N1935 C1936 1.351 . S
C1936 C1930 1.428 . S
C1936 N1935 1.351 . S
C1936 C1937 1.434 . S
C1937 C1928 1.429 . S
C1937 N1934 1.350 . S
C1937 C1936 1.434 . S
C1938 C1939 1.369 . S
C1938 C1940 1.419 . S
C1938 H1942 0.930 . S
C1939 C1938 1.369 . S
C1939 C1948 1.429 . S
C1940 C1938 1.419 . S
C1940 C1941 1.363 . S
C1940 H1943 0.929 . S
C1941 C1940 1.363 . S
C1941 C1947 1.428 . S
H1942 C1938 0.930 . S
H1943 C1940 0.929 . S
S1944 N1945 1.613 . S
S1944 N1946 1.610 . S
N1945 S1944 1.613 . S
N1945 C1948 1.350 . S
N1946 S1944 1.610 . S
N1946 C1947 1.351 . S
C1947 C1941 1.428 . S
C1947 N1946 1.351 . S
C1947 C1948 1.434 . S
C1948 C1939 1.429 . S
C1948 N1945 1.350 . S
C1948 C1947 1.434 . S
C1949 C1950 1.369 . S
C1949 C1951 1.419 . S
C1949 H1953 0.930 . S
C1950 C1949 1.369 . S
C1950 C1959 1.429 . S
C1951 C1949 1.419 . S
C1951 C1952 1.363 . S
C1951 H1954 0.929 . S
C1952 C1951 1.363 . S
C1952 C1958 1.428 . S
H1953 C1949 0.930 . S
H1954 C1951 0.929 . S
S1955 N1956 1.613 . S
S1955 N1957 1.610 . S
N1956 S1955 1.613 . S
N1956 C1959 1.350 . S
N1957 S1955 1.610 . S
N1957 C1958 1.351 . S
C1958 C1952 1.428 . S
C1958 N1957 1.351 . S
C1958 C1959 1.434 . S
C1959 C1950 1.429 . S
C1959 N1956 1.350 . S
C1959 C1958 1.434 . S
C1960 C1961 1.369 . S
C1960 C1962 1.419 . S
C1960 H1964 0.930 . S
C1961 C1960 1.369 . S
C1961 C1970 1.429 . S
C1962 C1960 1.419 . S
C1962 C1963 1.363 . S
C1962 H1965 0.929 . S
C1963 C1962 1.363 . S
C1963 C1969 1.428 . S
H1964 C1960 0.930 . S
H1965 C1962 0.929 . S
S1966 N1967 1.613 . S
S1966 N1968 1.610 . S
N1967 S1966 1.613 . S
N1967 C1970 1.350 . S
N1968 S1966 1.610 . S
N1968 C1969 1.351 . S
C1969 C1963 1.428 . S
C1969 N1968 1.351 . S
C1969 C1970 1.434 . S
C1970 C1961 1.429 . S
C1970 N1967 1.350 . S
C1970 C1969 1.434 . S
C1971 C1972 1.369 . S
C1971 C1973 1.419 . S
C1971 H1975 0.930 . S
C1972 C1971 1.369 . S
C1972 C1981 1.429 . S
C1973 C1971 1.419 . S
C1973 C1974 1.363 . S
C1973 H1976 0.929 . S
C1974 C1973 1.363 . S
C1974 C1980 1.428 . S
H1975 C1971 0.930 . S
H1976 C1973 0.929 . S
S1977 N1978 1.613 . S
S1977 N1979 1.610 . S
N1978 S1977 1.613 . S
N1978 C1981 1.350 . S
N1979 S1977 1.610 . S
N1979 C1980 1.351 . S
C1980 C1974 1.428 . S
C1980 N1979 1.351 . S
C1980 C1981 1.434 . S
C1981 C1972 1.429 . S
C1981 N1978 1.350 . S
C1981 C1980 1.434 . S
C1982 C1983 1.369 . S
C1982 C1984 1.419 . S
C1982 H1986 0.930 . S
C1983 C1982 1.369 . S
C1983 C1992 1.429 . S
C1984 C1982 1.419 . S
C1984 C1985 1.363 . S
C1984 H1987 0.929 . S
C1985 C1984 1.363 . S
C1985 C1991 1.428 . S
H1986 C1982 0.930 . S
H1987 C1984 0.929 . S
S1988 N1989 1.613 . S
S1988 N1990 1.610 . S
N1989 S1988 1.613 . S
N1989 C1992 1.350 . S
N1990 S1988 1.610 . S
N1990 C1991 1.351 . S
C1991 C1985 1.428 . S
C1991 N1990 1.351 . S
C1991 C1992 1.434 . S
C1992 C1983 1.429 . S
C1992 N1989 1.350 . S
C1992 C1991 1.434 . S
C1993 C1994 1.369 . S
C1993 C1995 1.419 . S
C1993 H1997 0.930 . S
C1994 C1993 1.369 . S
C1994 C2003 1.429 . S
C1995 C1993 1.419 . S
C1995 C1996 1.363 . S
C1995 H1998 0.929 . S
C1996 C1995 1.363 . S
C1996 C2002 1.428 . S
H1997 C1993 0.930 . S
H1998 C1995 0.929 . S
S1999 N2000 1.613 . S
S1999 N2001 1.610 . S
N2000 S1999 1.613 . S
N2000 C2003 1.350 . S
N2001 S1999 1.610 . S
N2001 C2002 1.351 . S
C2002 C1996 1.428 . S
C2002 N2001 1.351 . S
C2002 C2003 1.434 . S
C2003 C1994 1.429 . S
C2003 N2000 1.350 . S
C2003 C2002 1.434 . S
C2004 C2005 1.369 . S
C2004 C2006 1.419 . S
C2004 H2008 0.930 . S
C2005 C2004 1.369 . S
C2005 C2014 1.429 . S
C2006 C2004 1.419 . S
C2006 C2007 1.363 . S
C2006 H2009 0.929 . S
C2007 C2006 1.363 . S
C2007 C2013 1.428 . S
H2008 C2004 0.930 . S
H2009 C2006 0.929 . S
S2010 N2011 1.613 . S
S2010 N2012 1.610 . S
N2011 S2010 1.613 . S
N2011 C2014 1.350 . S
N2012 S2010 1.610 . S
N2012 C2013 1.351 . S
C2013 C2007 1.428 . S
C2013 N2012 1.351 . S
C2013 C2014 1.434 . S
C2014 C2005 1.429 . S
C2014 N2011 1.350 . S
C2014 C2013 1.434 . S
C2015 C2016 1.369 . S
C2015 C2017 1.419 . S
C2015 H2019 0.930 . S
C2016 C2015 1.369 . S
C2016 C2025 1.429 . S
C2017 C2015 1.419 . S
C2017 C2018 1.363 . S
C2017 H2020 0.929 . S
C2018 C2017 1.363 . S
C2018 C2024 1.428 . S
H2019 C2015 0.930 . S
H2020 C2017 0.929 . S
S2021 N2022 1.613 . S
S2021 N2023 1.610 . S
N2022 S2021 1.613 . S
N2022 C2025 1.350 . S
N2023 S2021 1.610 . S
N2023 C2024 1.351 . S
C2024 C2018 1.428 . S
C2024 N2023 1.351 . S
C2024 C2025 1.434 . S
C2025 C2016 1.429 . S
C2025 N2022 1.350 . S
C2025 C2024 1.434 . S
C2026 C2027 1.369 . S
C2026 C2028 1.419 . S
C2026 H2030 0.930 . S
C2027 C2026 1.369 . S
C2027 C2036 1.429 . S
C2028 C2026 1.419 . S
C2028 C2029 1.363 . S
C2028 H2031 0.929 . S
C2029 C2028 1.363 . S
C2029 C2035 1.428 . S
H2030 C2026 0.930 . S
H2031 C2028 0.929 . S
S2032 N2033 1.613 . S
S2032 N2034 1.610 . S
N2033 S2032 1.613 . S
N2033 C2036 1.350 . S
N2034 S2032 1.610 . S
N2034 C2035 1.351 . S
C2035 C2029 1.428 . S
C2035 N2034 1.351 . S
C2035 C2036 1.434 . S
C2036 C2027 1.429 . S
C2036 N2033 1.350 . S
C2036 C2035 1.434 . S
C2037 C2038 1.369 . S
C2037 C2039 1.419 . S
C2037 H2041 0.930 . S
C2038 C2037 1.369 . S
C2038 C2047 1.429 . S
C2039 C2037 1.419 . S
C2039 C2040 1.363 . S
C2039 H2042 0.929 . S
C2040 C2039 1.363 . S
C2040 C2046 1.428 . S
H2041 C2037 0.930 . S
H2042 C2039 0.929 . S
S2043 N2044 1.613 . S
S2043 N2045 1.610 . S
N2044 S2043 1.613 . S
N2044 C2047 1.350 . S
N2045 S2043 1.610 . S
N2045 C2046 1.351 . S
C2046 C2040 1.428 . S
C2046 N2045 1.351 . S
C2046 C2047 1.434 . S
C2047 C2038 1.429 . S
C2047 N2044 1.350 . S
C2047 C2046 1.434 . S
C2048 C2049 1.369 . S
C2048 C2050 1.419 1_564 S
C2048 H2052 0.930 . S
C2049 C2048 1.369 . S
C2049 C2058 1.429 . S
C2050 C2048 1.419 1_546 S
C2050 C2051 1.363 . S
C2050 H2053 0.929 . S
C2051 C2050 1.363 . S
C2051 C2057 1.428 . S
H2052 C2048 0.930 . S
H2053 C2050 0.929 . S
S2054 N2055 1.613 1_556 S
S2054 N2056 1.610 1_565 S
N2055 S2054 1.613 1_554 S
N2055 C2058 1.350 . S
N2056 S2054 1.610 1_545 S
N2056 C2057 1.351 . S
C2057 C2051 1.428 . S
C2057 N2056 1.351 . S
C2057 C2058 1.434 1_546 S
C2058 C2049 1.429 . S
C2058 N2055 1.350 . S
C2058 C2057 1.434 1_564 S
C2059 C2060 1.369 . S
C2059 C2061 1.419 1_554 S
C2059 H2063 0.930 . S
C2060 C2059 1.369 . S
C2060 C2069 1.429 . S
C2061 C2059 1.419 1_556 S
C2061 C2062 1.363 . S
C2061 H2064 0.929 . S
C2062 C2061 1.363 . S
C2062 C2068 1.428 . S
H2063 C2059 0.930 . S
H2064 C2061 0.929 . S
S2065 N2066 1.613 . S
S2065 N2067 1.610 1_554 S
N2066 S2065 1.613 . S
N2066 C2069 1.350 . S
N2067 S2065 1.610 1_556 S
N2067 C2068 1.351 . S
C2068 C2062 1.428 . S
C2068 N2067 1.351 . S
C2068 C2069 1.434 1_556 S
C2069 C2060 1.429 . S
C2069 N2066 1.350 . S
C2069 C2068 1.434 1_554 S
C2070 C2071 1.369 . S
C2070 C2072 1.419 . S
C2070 H2074 0.930 . S
C2071 C2070 1.369 . S
C2071 C2080 1.429 . S
C2072 C2070 1.419 . S
C2072 C2073 1.363 . S
C2072 H2075 0.929 . S
C2073 C2072 1.363 . S
C2073 C2079 1.428 . S
H2074 C2070 0.930 . S
H2075 C2072 0.929 . S
S2076 N2077 1.613 . S
S2076 N2078 1.610 . S
N2077 S2076 1.613 . S
N2077 C2080 1.350 . S
N2078 S2076 1.610 . S
N2078 C2079 1.351 . S
C2079 C2073 1.428 . S
C2079 N2078 1.351 . S
C2079 C2080 1.434 . S
C2080 C2071 1.429 . S
C2080 N2077 1.350 . S
C2080 C2079 1.434 . S
C2081 C2082 1.369 1_545 S
C2081 C2083 1.419 . S
C2081 H2085 0.930 . S
C2082 C2081 1.369 1_565 S
C2082 C2091 1.429 . S
C2083 C2081 1.419 . S
C2083 C2084 1.363 . S
C2083 H2086 0.929 . S
C2084 C2083 1.363 . S
C2084 C2090 1.428 1_545 S
H2085 C2081 0.930 . S
H2086 C2083 0.929 . S
S2087 N2088 1.613 . S
S2087 N2089 1.610 . S
N2088 S2087 1.613 . S
N2088 C2091 1.350 . S
N2089 S2087 1.610 . S
N2089 C2090 1.351 . S
C2090 C2084 1.428 1_565 S
C2090 N2089 1.351 . S
C2090 C2091 1.434 . S
C2091 C2082 1.429 . S
C2091 N2088 1.350 . S
C2091 C2090 1.434 . S
C2092 C2093 1.369 . S
C2092 C2094 1.419 1_556 S
C2092 H2096 0.930 . S
C2093 C2092 1.369 . S
C2093 C2102 1.429 . S
C2094 C2092 1.419 1_554 S
C2094 C2095 1.363 . S
C2094 H2097 0.929 . S
C2095 C2094 1.363 . S
C2095 C2101 1.428 . S
H2096 C2092 0.930 . S
H2097 C2094 0.929 . S
S2098 N2099 1.613 1_554 S
S2098 N2100 1.610 . S
N2099 S2098 1.613 1_556 S
N2099 C2102 1.350 . S
N2100 S2098 1.610 . S
N2100 C2101 1.351 . S
C2101 C2095 1.428 . S
C2101 N2100 1.351 . S
C2101 C2102 1.434 1_554 S
C2102 C2093 1.429 . S
C2102 N2099 1.350 . S
C2102 C2101 1.434 1_556 S
C2103 C2104 1.369 . S
C2103 C2105 1.419 . S
C2103 H2107 0.930 . S
C2104 C2103 1.369 . S
C2104 C2113 1.429 . S
C2105 C2103 1.419 . S
C2105 C2106 1.363 . S
C2105 H2108 0.929 . S
C2106 C2105 1.363 . S
C2106 C2112 1.428 . S
H2107 C2103 0.930 . S
H2108 C2105 0.929 . S
S2109 N2110 1.613 . S
S2109 N2111 1.610 . S
N2110 S2109 1.613 . S
N2110 C2113 1.350 . S
N2111 S2109 1.610 . S
N2111 C2112 1.351 . S
C2112 C2106 1.428 . S
C2112 N2111 1.351 . S
C2112 C2113 1.434 . S
C2113 C2104 1.429 . S
C2113 N2110 1.350 . S
C2113 C2112 1.434 . S
C2114 C2115 1.369 1_545 S
C2114 C2116 1.419 . S
C2114 H2118 0.930 . S
C2115 C2114 1.369 1_565 S
C2115 C2124 1.429 . S
C2116 C2114 1.419 . S
C2116 C2117 1.363 . S
C2116 H2119 0.929 . S
C2117 C2116 1.363 . S
C2117 C2123 1.428 1_545 S
H2118 C2114 0.930 . S
H2119 C2116 0.929 . S
S2120 N2121 1.613 . S
S2120 N2122 1.610 . S
N2121 S2120 1.613 . S
N2121 C2124 1.350 . S
N2122 S2120 1.610 . S
N2122 C2123 1.351 . S
C2123 C2117 1.428 1_565 S
C2123 N2122 1.351 . S
C2123 C2124 1.434 . S
C2124 C2115 1.429 . S
C2124 N2121 1.350 . S
C2124 C2123 1.434 . S
C2125 C2126 1.369 . S
C2125 C2127 1.419 . S
C2125 H2129 0.930 . S
C2126 C2125 1.369 . S
C2126 C2135 1.429 . S
C2127 C2125 1.419 . S
C2127 C2128 1.363 . S
C2127 H2130 0.929 . S
C2128 C2127 1.363 . S
C2128 C2134 1.428 . S
H2129 C2125 0.930 . S
H2130 C2127 0.929 . S
S2131 N2132 1.613 . S
S2131 N2133 1.610 . S
N2132 S2131 1.613 . S
N2132 C2135 1.350 . S
N2133 S2131 1.610 . S
N2133 C2134 1.351 . S
C2134 C2128 1.428 . S
C2134 N2133 1.351 . S
C2134 C2135 1.434 . S
C2135 C2126 1.429 . S
C2135 N2132 1.350 . S
C2135 C2134 1.434 . S
C2136 C2137 1.369 . S
C2136 C2138 1.419 . S
C2136 H2140 0.930 . S
C2137 C2136 1.369 . S
C2137 C2146 1.429 . S
C2138 C2136 1.419 . S
C2138 C2139 1.363 . S
C2138 H2141 0.929 . S
C2139 C2138 1.363 . S
C2139 C2145 1.428 . S
H2140 C2136 0.930 . S
H2141 C2138 0.929 . S
S2142 N2143 1.613 . S
S2142 N2144 1.610 . S
N2143 S2142 1.613 . S
N2143 C2146 1.350 . S
N2144 S2142 1.610 . S
N2144 C2145 1.351 . S
C2145 C2139 1.428 . S
C2145 N2144 1.351 . S
C2145 C2146 1.434 . S
C2146 C2137 1.429 . S
C2146 N2143 1.350 . S
C2146 C2145 1.434 . S
C2147 C2148 1.369 . S
C2147 C2149 1.419 . S
C2147 H2151 0.930 . S
C2148 C2147 1.369 . S
C2148 C2157 1.429 . S
C2149 C2147 1.419 . S
C2149 C2150 1.363 . S
C2149 H2152 0.929 . S
C2150 C2149 1.363 . S
C2150 C2156 1.428 . S
H2151 C2147 0.930 . S
H2152 C2149 0.929 . S
S2153 N2154 1.613 . S
S2153 N2155 1.610 . S
N2154 S2153 1.613 . S
N2154 C2157 1.350 . S
N2155 S2153 1.610 . S
N2155 C2156 1.351 . S
C2156 C2150 1.428 . S
C2156 N2155 1.351 . S
C2156 C2157 1.434 . S
C2157 C2148 1.429 . S
C2157 N2154 1.350 . S
C2157 C2156 1.434 . S
C2158 C2159 1.369 . S
C2158 C2160 1.419 . S
C2158 H2162 0.930 . S
C2159 C2158 1.369 . S
C2159 C2168 1.429 . S
C2160 C2158 1.419 . S
C2160 C2161 1.363 . S
C2160 H2163 0.929 . S
C2161 C2160 1.363 . S
C2161 C2167 1.428 . S
H2162 C2158 0.930 . S
H2163 C2160 0.929 . S
S2164 N2165 1.613 . S
S2164 N2166 1.610 . S
N2165 S2164 1.613 . S
N2165 C2168 1.350 . S
N2166 S2164 1.610 . S
N2166 C2167 1.351 . S
C2167 C2161 1.428 . S
C2167 N2166 1.351 . S
C2167 C2168 1.434 . S
C2168 C2159 1.429 . S
C2168 N2165 1.350 . S
C2168 C2167 1.434 . S
C2169 C2170 1.369 . S
C2169 C2171 1.419 . S
C2169 H2173 0.930 . S
C2170 C2169 1.369 . S
C2170 C2179 1.429 . S
C2171 C2169 1.419 . S
C2171 C2172 1.363 . S
C2171 H2174 0.929 . S
C2172 C2171 1.363 . S
C2172 C2178 1.428 . S
H2173 C2169 0.930 . S
H2174 C2171 0.929 . S
S2175 N2176 1.613 . S
S2175 N2177 1.610 . S
N2176 S2175 1.613 . S
N2176 C2179 1.350 . S
N2177 S2175 1.610 . S
N2177 C2178 1.351 . S
C2178 C2172 1.428 . S
C2178 N2177 1.351 . S
C2178 C2179 1.434 . S
C2179 C2170 1.429 . S
C2179 N2176 1.350 . S
C2179 C2178 1.434 . S
C2180 C2181 1.369 1_655 S
C2180 C2182 1.424 . S
C2180 H2184 0.930 . S
C2181 C2180 1.369 1_455 S
C2181 C2190 1.429 1_545 S
C2182 C2180 1.424 . S
C2182 C2183 1.358 1_545 S
C2182 H2185 0.930 . S
C2183 C2182 1.358 1_565 S
C2183 C2189 1.428 1_655 S
H2184 C2180 0.930 . S
H2185 C2182 0.930 . S
S2186 N2187 1.613 . S
S2186 N2188 1.610 . S
N2187 S2186 1.613 . S
N2187 C2190 1.350 . S
N2188 S2186 1.610 . S
N2188 C2189 1.351 . S
C2189 C2183 1.428 1_455 S
C2189 N2188 1.351 . S
C2189 C2190 1.434 . S
C2190 C2181 1.429 1_565 S
C2190 N2187 1.350 . S
C2190 C2189 1.434 . S
C2191 C2192 1.370 . S
C2191 C2193 1.417 1_655 S
C2191 H2195 0.930 . S
C2192 C2191 1.370 . S
C2192 C2201 1.429 . S
C2193 C2191 1.417 1_455 S
C2193 C2194 1.363 . S
C2193 H2196 0.929 . S
C2194 C2193 1.363 . S
C2194 C2200 1.427 1_455 S
H2195 C2191 0.930 . S
H2196 C2193 0.929 . S
S2197 N2198 1.613 . S
S2197 N2199 1.610 . S
N2198 S2197 1.613 . S
N2198 C2201 1.350 . S
N2199 S2197 1.610 . S
N2199 C2200 1.352 . S
C2200 C2194 1.427 1_655 S
C2200 N2199 1.352 . S
C2200 C2201 1.435 . S
C2201 C2192 1.429 . S
C2201 N2198 1.350 . S
C2201 C2200 1.435 . S
C2202 C2203 1.369 . S
C2202 C2204 1.419 . S
C2202 H2206 0.930 . S
C2203 C2202 1.369 . S
C2203 C2212 1.429 1_655 S
C2204 C2202 1.419 . S
C2204 C2205 1.363 1_655 S
C2204 H2207 0.929 . S
C2205 C2204 1.363 1_455 S
C2205 C2211 1.428 . S
H2206 C2202 0.930 . S
H2207 C2204 0.929 . S
S2208 N2209 1.613 . S
S2208 N2210 1.610 . S
N2209 S2208 1.613 . S
N2209 C2212 1.350 . S
N2210 S2208 1.610 . S
N2210 C2211 1.351 . S
C2211 C2205 1.428 . S
C2211 N2210 1.351 . S
C2211 C2212 1.434 . S
C2212 C2203 1.429 1_455 S
C2212 N2209 1.350 . S
C2212 C2211 1.434 . S
C2213 C2214 1.369 . S
C2213 C2215 1.419 1_556 S
C2213 H2217 0.930 . S
C2214 C2213 1.369 . S
C2214 C2223 1.429 1_455 S
C2215 C2213 1.419 1_554 S
C2215 C2216 1.363 1_455 S
C2215 H2218 0.929 . S
C2216 C2215 1.363 1_655 S
C2216 C2222 1.428 . S
H2217 C2213 0.930 . S
H2218 C2215 0.929 . S
S2219 N2220 1.587 1_554 S
S2219 N2221 1.636 . S
N2220 S2219 1.587 1_556 S
N2220 C2223 1.350 . S
N2221 S2219 1.636 . S
N2221 C2222 1.351 . S
C2222 C2216 1.428 . S
C2222 N2221 1.351 . S
C2222 C2223 1.434 1_554 S
C2223 C2214 1.429 1_655 S
C2223 N2220 1.350 . S
C2223 C2222 1.434 1_556 S
C2224 C2225 1.369 . S
C2224 C2226 1.419 . S
C2224 H2228 0.930 . S
C2225 C2224 1.369 . S
C2225 C2234 1.429 . S
C2226 C2224 1.419 . S
C2226 C2227 1.363 . S
C2226 H2229 0.929 . S
C2227 C2226 1.363 . S
C2227 C2233 1.428 . S
H2228 C2224 0.930 . S
H2229 C2226 0.929 . S
S2230 N2231 1.613 . S
S2230 N2232 1.610 . S
N2231 S2230 1.613 . S
N2231 C2234 1.350 . S
N2232 S2230 1.610 . S
N2232 C2233 1.351 . S
C2233 C2227 1.428 . S
C2233 N2232 1.351 . S
C2233 C2234 1.434 . S
C2234 C2225 1.429 . S
C2234 N2231 1.350 . S
C2234 C2233 1.434 . S
C2235 C2236 1.369 . S
C2235 C2237 1.419 . S
C2235 H2239 0.930 . S
C2236 C2235 1.369 . S
C2236 C2245 1.429 . S
C2237 C2235 1.419 . S
C2237 C2238 1.363 . S
C2237 H2240 0.929 . S
C2238 C2237 1.363 . S
C2238 C2244 1.428 . S
H2239 C2235 0.930 . S
H2240 C2237 0.929 . S
S2241 N2242 1.613 . S
S2241 N2243 1.610 . S
N2242 S2241 1.613 . S
N2242 C2245 1.350 . S
N2243 S2241 1.610 . S
N2243 C2244 1.351 . S
C2244 C2238 1.428 . S
C2244 N2243 1.351 . S
C2244 C2245 1.434 . S
C2245 C2236 1.429 . S
C2245 N2242 1.350 . S
C2245 C2244 1.434 . S
C2246 C2247 1.369 . S
C2246 C2248 1.419 . S
C2246 H2250 0.930 . S
C2247 C2246 1.369 . S
C2247 C2256 1.429 . S
C2248 C2246 1.419 . S
C2248 C2249 1.363 . S
C2248 H2251 0.929 . S
C2249 C2248 1.363 . S
C2249 C2255 1.428 . S
H2250 C2246 0.930 . S
H2251 C2248 0.929 . S
S2252 N2253 1.613 . S
S2252 N2254 1.610 . S
N2253 S2252 1.613 . S
N2253 C2256 1.350 . S
N2254 S2252 1.610 . S
N2254 C2255 1.351 . S
C2255 C2249 1.428 . S
C2255 N2254 1.351 . S
C2255 C2256 1.434 . S
C2256 C2247 1.429 . S
C2256 N2253 1.350 . S
C2256 C2255 1.434 . S
C2257 C2258 1.369 . S
C2257 C2259 1.419 . S
C2257 H2261 0.930 . S
C2258 C2257 1.369 . S
C2258 C2267 1.429 . S
C2259 C2257 1.419 . S
C2259 C2260 1.363 . S
C2259 H2262 0.929 . S
C2260 C2259 1.363 . S
C2260 C2266 1.428 . S
H2261 C2257 0.930 . S
H2262 C2259 0.929 . S
S2263 N2264 1.613 . S
S2263 N2265 1.610 . S
N2264 S2263 1.613 . S
N2264 C2267 1.350 . S
N2265 S2263 1.610 . S
N2265 C2266 1.351 . S
C2266 C2260 1.428 . S
C2266 N2265 1.351 . S
C2266 C2267 1.434 . S
C2267 C2258 1.429 . S
C2267 N2264 1.350 . S
C2267 C2266 1.434 . S
C2268 C2269 1.369 . S
C2268 C2270 1.419 . S
C2268 H2272 0.930 . S
C2269 C2268 1.369 . S
C2269 C2278 1.429 . S
C2270 C2268 1.419 . S
C2270 C2271 1.363 . S
C2270 H2273 0.929 . S
C2271 C2270 1.363 . S
C2271 C2277 1.428 . S
H2272 C2268 0.930 . S
H2273 C2270 0.929 . S
S2274 N2275 1.613 . S
S2274 N2276 1.610 . S
N2275 S2274 1.613 . S
N2275 C2278 1.350 . S
N2276 S2274 1.610 . S
N2276 C2277 1.351 . S
C2277 C2271 1.428 . S
C2277 N2276 1.351 . S
C2277 C2278 1.434 . S
C2278 C2269 1.429 . S
C2278 N2275 1.350 . S
C2278 C2277 1.434 . S
C2279 C2280 1.369 . S
C2279 C2281 1.419 . S
C2279 H2283 0.930 . S
C2280 C2279 1.369 . S
C2280 C2289 1.429 . S
C2281 C2279 1.419 . S
C2281 C2282 1.363 . S
C2281 H2284 0.929 . S
C2282 C2281 1.363 . S
C2282 C2288 1.428 . S
H2283 C2279 0.930 . S
H2284 C2281 0.929 . S
S2285 N2286 1.613 . S
S2285 N2287 1.610 . S
N2286 S2285 1.613 . S
N2286 C2289 1.350 . S
N2287 S2285 1.610 . S
N2287 C2288 1.351 . S
C2288 C2282 1.428 . S
C2288 N2287 1.351 . S
C2288 C2289 1.434 . S
C2289 C2280 1.429 . S
C2289 N2286 1.350 . S
C2289 C2288 1.434 . S
C2290 C2291 1.369 . S
C2290 C2292 1.419 . S
C2290 H2294 0.930 . S
C2291 C2290 1.369 . S
C2291 C2300 1.429 . S
C2292 C2290 1.419 . S
C2292 C2293 1.363 . S
C2292 H2295 0.929 . S
C2293 C2292 1.363 . S
C2293 C2299 1.428 . S
H2294 C2290 0.930 . S
H2295 C2292 0.929 . S
S2296 N2297 1.613 . S
S2296 N2298 1.610 . S
N2297 S2296 1.613 . S
N2297 C2300 1.350 . S
N2298 S2296 1.610 . S
N2298 C2299 1.351 . S
C2299 C2293 1.428 . S
C2299 N2298 1.351 . S
C2299 C2300 1.434 . S
C2300 C2291 1.429 . S
C2300 N2297 1.350 . S
C2300 C2299 1.434 . S
C2301 C2302 1.369 . S
C2301 C2303 1.419 . S
C2301 H2305 0.930 . S
C2302 C2301 1.369 . S
C2302 C2311 1.429 . S
C2303 C2301 1.419 . S
C2303 C2304 1.363 . S
C2303 H2306 0.929 . S
C2304 C2303 1.363 . S
C2304 C2310 1.428 . S
H2305 C2301 0.930 . S
H2306 C2303 0.929 . S
S2307 N2308 1.613 . S
S2307 N2309 1.610 . S
N2308 S2307 1.613 . S
N2308 C2311 1.350 . S
N2309 S2307 1.610 . S
N2309 C2310 1.351 . S
C2310 C2304 1.428 . S
C2310 N2309 1.351 . S
C2310 C2311 1.434 . S
C2311 C2302 1.429 . S
C2311 N2308 1.350 . S
C2311 C2310 1.434 . S
C2312 C2313 1.369 . S
C2312 C2314 1.419 . S
C2312 H2316 0.930 . S
C2313 C2312 1.369 . S
C2313 C2322 1.429 . S
C2314 C2312 1.419 . S
C2314 C2315 1.363 . S
C2314 H2317 0.929 . S
C2315 C2314 1.363 . S
C2315 C2321 1.428 . S
H2316 C2312 0.930 . S
H2317 C2314 0.929 . S
S2318 N2319 1.613 . S
S2318 N2320 1.610 . S
N2319 S2318 1.613 . S
N2319 C2322 1.350 . S
N2320 S2318 1.610 . S
N2320 C2321 1.351 . S
C2321 C2315 1.428 . S
C2321 N2320 1.351 . S
C2321 C2322 1.434 . S
C2322 C2313 1.429 . S
C2322 N2319 1.350 . S
C2322 C2321 1.434 . S
C2323 C2324 1.369 . S
C2323 C2325 1.419 . S
C2323 H2327 0.930 . S
C2324 C2323 1.369 . S
C2324 C2333 1.429 . S
C2325 C2323 1.419 . S
C2325 C2326 1.363 . S
C2325 H2328 0.929 . S
C2326 C2325 1.363 . S
C2326 C2332 1.428 . S
H2327 C2323 0.930 . S
H2328 C2325 0.929 . S
S2329 N2330 1.613 . S
S2329 N2331 1.610 . S
N2330 S2329 1.613 . S
N2330 C2333 1.350 . S
N2331 S2329 1.610 . S
N2331 C2332 1.351 . S
C2332 C2326 1.428 . S
C2332 N2331 1.351 . S
C2332 C2333 1.434 . S
C2333 C2324 1.429 . S
C2333 N2330 1.350 . S
C2333 C2332 1.434 . S
C2334 C2335 1.369 . S
C2334 C2336 1.419 . S
C2334 H2338 0.930 . S
C2335 C2334 1.369 . S
C2335 C2344 1.429 . S
C2336 C2334 1.419 . S
C2336 C2337 1.363 . S
C2336 H2339 0.929 . S
C2337 C2336 1.363 . S
C2337 C2343 1.428 . S
H2338 C2334 0.930 . S
H2339 C2336 0.929 . S
S2340 N2341 1.613 . S
S2340 N2342 1.610 . S
N2341 S2340 1.613 . S
N2341 C2344 1.350 . S
N2342 S2340 1.610 . S
N2342 C2343 1.351 . S
C2343 C2337 1.428 . S
C2343 N2342 1.351 . S
C2343 C2344 1.434 . S
C2344 C2335 1.429 . S
C2344 N2341 1.350 . S
C2344 C2343 1.434 . S
C2345 C2346 1.369 . S
C2345 C2347 1.419 . S
C2345 H2349 0.930 . S
C2346 C2345 1.369 . S
C2346 C2355 1.429 . S
C2347 C2345 1.419 . S
C2347 C2348 1.363 . S
C2347 H2350 0.929 . S
C2348 C2347 1.363 . S
C2348 C2354 1.428 . S
H2349 C2345 0.930 . S
H2350 C2347 0.929 . S
S2351 N2352 1.613 . S
S2351 N2353 1.610 . S
N2352 S2351 1.613 . S
N2352 C2355 1.350 . S
N2353 S2351 1.610 . S
N2353 C2354 1.351 . S
C2354 C2348 1.428 . S
C2354 N2353 1.351 . S
C2354 C2355 1.434 . S
C2355 C2346 1.429 . S
C2355 N2352 1.350 . S
C2355 C2354 1.434 . S
C2356 C2357 1.369 . S
C2356 C2358 1.419 . S
C2356 H2360 0.930 . S
C2357 C2356 1.369 . S
C2357 C2366 1.429 . S
C2358 C2356 1.419 . S
C2358 C2359 1.363 . S
C2358 H2361 0.929 . S
C2359 C2358 1.363 . S
C2359 C2365 1.428 . S
H2360 C2356 0.930 . S
H2361 C2358 0.929 . S
S2362 N2363 1.613 . S
S2362 N2364 1.610 . S
N2363 S2362 1.613 . S
N2363 C2366 1.350 . S
N2364 S2362 1.610 . S
N2364 C2365 1.351 . S
C2365 C2359 1.428 . S
C2365 N2364 1.351 . S
C2365 C2366 1.434 . S
C2366 C2357 1.429 . S
C2366 N2363 1.350 . S
C2366 C2365 1.434 . S
C2367 C2368 1.369 . S
C2367 C2369 1.419 . S
C2367 H2371 0.930 . S
C2368 C2367 1.369 . S
C2368 C2377 1.429 . S
C2369 C2367 1.419 . S
C2369 C2370 1.363 . S
C2369 H2372 0.929 . S
C2370 C2369 1.363 . S
C2370 C2376 1.428 . S
H2371 C2367 0.930 . S
H2372 C2369 0.929 . S
S2373 N2374 1.613 . S
S2373 N2375 1.610 . S
N2374 S2373 1.613 . S
N2374 C2377 1.350 . S
N2375 S2373 1.610 . S
N2375 C2376 1.351 . S
C2376 C2370 1.428 . S
C2376 N2375 1.351 . S
C2376 C2377 1.434 . S
C2377 C2368 1.429 . S
C2377 N2374 1.350 . S
C2377 C2376 1.434 . S
C2378 C2379 1.369 . S
C2378 C2380 1.419 . S
C2378 H2382 0.930 . S
C2379 C2378 1.369 . S
C2379 C2388 1.429 . S
C2380 C2378 1.419 . S
C2380 C2381 1.363 . S
C2380 H2383 0.929 . S
C2381 C2380 1.363 . S
C2381 C2387 1.428 . S
H2382 C2378 0.930 . S
H2383 C2380 0.929 . S
S2384 N2385 1.613 . S
S2384 N2386 1.610 . S
N2385 S2384 1.613 . S
N2385 C2388 1.350 . S
N2386 S2384 1.610 . S
N2386 C2387 1.351 . S
C2387 C2381 1.428 . S
C2387 N2386 1.351 . S
C2387 C2388 1.434 . S
C2388 C2379 1.429 . S
C2388 N2385 1.350 . S
C2388 C2387 1.434 . S
C2389 C2390 1.369 . S
C2389 C2391 1.419 . S
C2389 H2393 0.930 . S
C2390 C2389 1.369 . S
C2390 C2399 1.429 . S
C2391 C2389 1.419 . S
C2391 C2392 1.363 . S
C2391 H2394 0.929 . S
C2392 C2391 1.363 . S
C2392 C2398 1.428 . S
H2393 C2389 0.930 . S
H2394 C2391 0.929 . S
S2395 N2396 1.613 . S
S2395 N2397 1.610 . S
N2396 S2395 1.613 . S
N2396 C2399 1.350 . S
N2397 S2395 1.610 . S
N2397 C2398 1.351 . S
C2398 C2392 1.428 . S
C2398 N2397 1.351 . S
C2398 C2399 1.434 . S
C2399 C2390 1.429 . S
C2399 N2396 1.350 . S
C2399 C2398 1.434 . S
C1697 C38 1.827 . S
C1699 C144 1.823 . S
C1708 C197 1.814 . S
C1710 C91 1.814 . S
C1719 C356 1.832 . S
C1721 C250 1.838 . S
C1730 C409 1.827 . S
C1732 C303 1.823 . S
C1741 C462 1.829 . S
C1743 C568 1.823 . S
C1752 C621 1.813 . S
C1754 C515 1.815 . S
C1763 C674 1.836 . S
C1765 C780 1.833 . S
C1774 C833 1.824 . S
C1776 C727 1.827 . S
C1785 C886 1.786 . S
C1787 C992 1.793 . S
C1796 C939 1.823 . S
C1798 C1045 1.827 . S
C1807 C1204 1.796 . S
C1809 C1098 1.801 . S
C1818 C1151 1.840 . S
C1820 C1257 1.834 . S
C1829 C1416 1.787 . S
C1831 C1310 1.793 . S
C1840 C1469 1.830 . S
C1842 C1363 1.823 . S
C1851 C1628 1.803 . S
C1853 C1522 1.797 . S
C1862 C1575 1.834 . S
C1864 C1681 1.837 . S
C1873 C1347 1.907 . S
C1875 C22 1.906 . S
C1884 C75 1.902 . S
C1886 C1294 1.898 . S
C1895 C128 1.905 . S
C1897 C1453 1.905 . S
C1906 C181 1.903 . S
C1908 C1400 1.898 . S
C1917 C1559 1.905 . S
C1919 C234 1.903 . S
C1928 C287 1.900 . S
C1930 C1506 1.894 . S
C1939 C340 1.904 . S
C1941 C1665 1.902 . S
C1950 C1612 1.898 . S
C1952 C393 1.895 . S
C1961 C446 1.906 . S
C1963 C923 1.905 . S
C1972 C499 1.901 . S
C1974 C870 1.897 . S
C1983 C552 1.905 . S
C1985 C1029 1.906 . S
C1994 C605 1.903 . S
C1996 C976 1.897 . S
C2005 C658 1.902 . S
C2007 C1135 1.904 . S
C2016 C1082 1.899 . S
C2018 C711 1.894 . S
C2027 C1241 1.902 . S
C2029 C764 1.904 . S
C2038 C817 1.899 . S
C2040 C1188 1.896 . S
C2049 C39 1.887 . S
C2051 C251 1.871 . S
C2060 C92 1.875 . S
C2062 C1576 1.870 . S
C2071 C145 1.889 . S
C2073 C781 1.870 . S
C2082 C198 1.884 . S
C2084 C1258 1.863 . S
C2093 C304 1.872 . S
C2095 C1364 1.876 . S
C2104 C569 1.884 . S
C2106 C357 1.873 . S
C2115 C1046 1.882 . S
C2117 C410 1.865 . S
C2126 C675 1.874 . S
C2128 C463 1.884 . S
C2137 C516 1.878 . S
C2139 C1152 1.868 . S
C2148 C1682 1.872 . S
C2150 C622 1.876 . S
C2159 C728 1.867 . S
C2161 C940 1.879 . S
C2170 C834 1.873 . S
C2172 C1470 1.875 . S
C2181 C1099 1.844 . S
C2183 C887 1.857 . S
C2192 C993 1.853 . S
C2194 C1629 1.849 . S
C2203 C1417 1.851 . S
C2205 C1205 1.850 . S
C2214 C1523 1.848 . S
C2216 C1311 1.855 . S
C2225 C29 1.191 . S
C2227 C82 1.185 . S
C2236 C135 1.184 . S
C2238 C188 1.190 . S
C2247 C241 1.191 . S
C2249 C294 1.190 . S
C2258 C347 1.188 . S
C2260 C400 1.192 . S
C2269 C506 1.185 . S
C2271 C453 1.190 . S
C2280 C559 1.184 . S
C2282 C612 1.190 . S
C2291 C665 1.187 . S
C2293 C718 1.192 . S
C2302 C771 1.191 . S
C2304 C824 1.190 . S
C2313 C877 1.195 . S
C2315 C930 1.206 . S
C2324 C1036 1.201 . S
C2326 C983 1.204 . S
C2335 C1089 1.198 . S
C2337 C1142 1.208 . S
C2346 C1195 1.199 . S
C2348 C1248 1.209 . S
C2357 C1354 1.196 . S
C2359 C1301 1.206 . S
C2368 C1407 1.198 . S
C2370 C1460 1.206 . S
C2379 C1566 1.200 . S
C2381 C1513 1.209 . S
C2390 C1619 1.198 . S
C2392 C1672 1.208 . S
