# Generated by pormake.
# Topology ukp, (4)-cn, num edge types: 1
# Building blocks:
#     Node 0, Type 0, BuildingBlock: CEKHIL_clean_sbu_0, # of connection points: 4
#     Node 1, Type 0, BuildingBlock: CEKHIL_clean_sbu_0, # of connection points: 4
#     Node 2, Type 0, BuildingBlock: CEKHIL_clean_sbu_0, # of connection points: 4
#     Node 3, Type 0, BuildingBlock: CEKHIL_clean_sbu_0, # of connection points: 4
#     Node 4, Type 0, BuildingBlock: CEKHIL_clean_sbu_0, # of connection points: 4
#     Node 5, Type 0, BuildingBlock: CEKHIL_clean_sbu_0, # of connection points: 4
#     Node 6, Type 0, BuildingBlock: CEKHIL_clean_sbu_0, # of connection points: 4
#     Node 7, Type 0, BuildingBlock: CEKHIL_clean_sbu_0, # of connection points: 4
#     Node 8, Type 0, BuildingBlock: CEKHIL_clean_sbu_0, # of connection points: 4
#     Node 9, Type 0, BuildingBlock: CEKHIL_clean_sbu_0, # of connection points: 4
#     Node 10, Type 0, BuildingBlock: CEKHIL_clean_sbu_0, # of connection points: 4
#     Node 11, Type 0, BuildingBlock: CEKHIL_clean_sbu_0, # of connection points: 4
#     Node 12, Type 0, BuildingBlock: CEKHIL_clean_sbu_0, # of connection points: 4
#     Node 13, Type 0, BuildingBlock: CEKHIL_clean_sbu_0, # of connection points: 4
#     Node 14, Type 0, BuildingBlock: CEKHIL_clean_sbu_0, # of connection points: 4
#     Node 15, Type 0, BuildingBlock: CEKHIL_clean_sbu_0, # of connection points: 4
#     Node 16, Type 0, BuildingBlock: CEKHIL_clean_sbu_0, # of connection points: 4
#     Node 17, Type 0, BuildingBlock: CEKHIL_clean_sbu_0, # of connection points: 4
#     Node 18, Type 0, BuildingBlock: CEKHIL_clean_sbu_0, # of connection points: 4
#     Node 19, Type 0, BuildingBlock: CEKHIL_clean_sbu_0, # of connection points: 4
#     Node 20, Type 0, BuildingBlock: CEKHIL_clean_sbu_0, # of connection points: 4
#     Node 21, Type 0, BuildingBlock: CEKHIL_clean_sbu_0, # of connection points: 4
#     Node 22, Type 0, BuildingBlock: CEKHIL_clean_sbu_0, # of connection points: 4
#     Node 23, Type 0, BuildingBlock: CEKHIL_clean_sbu_0, # of connection points: 4
#     Node 24, Type 0, BuildingBlock: CEKHIL_clean_sbu_0, # of connection points: 4
#     Node 25, Type 0, BuildingBlock: CEKHIL_clean_sbu_0, # of connection points: 4
#     Node 26, Type 0, BuildingBlock: CEKHIL_clean_sbu_0, # of connection points: 4
#     Node 27, Type 0, BuildingBlock: CEKHIL_clean_sbu_0, # of connection points: 4
#     Node 28, Type 0, BuildingBlock: CEKHIL_clean_sbu_0, # of connection points: 4
#     Node 29, Type 0, BuildingBlock: CEKHIL_clean_sbu_0, # of connection points: 4
#     Node 30, Type 0, BuildingBlock: CEKHIL_clean_sbu_0, # of connection points: 4
#     Node 31, Type 0, BuildingBlock: CEKHIL_clean_sbu_0, # of connection points: 4
#     Node 32, Type 0, BuildingBlock: CEKHIL_clean_sbu_0, # of connection points: 4
#     Node 33, Type 0, BuildingBlock: CEKHIL_clean_sbu_0, # of connection points: 4
#     Node 34, Type 0, BuildingBlock: CEKHIL_clean_sbu_0, # of connection points: 4
#     Node 35, Type 0, BuildingBlock: CEKHIL_clean_sbu_0, # of connection points: 4
#     Node 36, Type 0, BuildingBlock: CEKHIL_clean_sbu_0, # of connection points: 4
#     Node 37, Type 0, BuildingBlock: CEKHIL_clean_sbu_0, # of connection points: 4
#     Node 38, Type 0, BuildingBlock: CEKHIL_clean_sbu_0, # of connection points: 4
#     Node 39, Type 0, BuildingBlock: CEKHIL_clean_sbu_0, # of connection points: 4
#     Node 40, Type 0, BuildingBlock: CEKHIL_clean_sbu_0, # of connection points: 4
#     Node 41, Type 0, BuildingBlock: CEKHIL_clean_sbu_0, # of connection points: 4
#     Node 42, Type 0, BuildingBlock: CEKHIL_clean_sbu_0, # of connection points: 4
#     Node 43, Type 0, BuildingBlock: CEKHIL_clean_sbu_0, # of connection points: 4
#     Node 44, Type 0, BuildingBlock: CEKHIL_clean_sbu_0, # of connection points: 4
#     Node 45, Type 0, BuildingBlock: CEKHIL_clean_sbu_0, # of connection points: 4
#     Node 46, Type 0, BuildingBlock: CEKHIL_clean_sbu_0, # of connection points: 4
#     Node 47, Type 0, BuildingBlock: CEKHIL_clean_sbu_0, # of connection points: 4
#     Edge 48, Type (0, 0), BuildingBlock: KIFKEQ_clean_linker_1, # of connection points: 2
#     Edge 49, Type (0, 0), BuildingBlock: KIFKEQ_clean_linker_1, # of connection points: 2
#     Edge 50, Type (0, 0), BuildingBlock: KIFKEQ_clean_linker_1, # of connection points: 2
#     Edge 51, Type (0, 0), BuildingBlock: KIFKEQ_clean_linker_1, # of connection points: 2
#     Edge 52, Type (0, 0), BuildingBlock: KIFKEQ_clean_linker_1, # of connection points: 2
#     Edge 53, Type (0, 0), BuildingBlock: KIFKEQ_clean_linker_1, # of connection points: 2
#     Edge 54, Type (0, 0), BuildingBlock: KIFKEQ_clean_linker_1, # of connection points: 2
#     Edge 55, Type (0, 0), BuildingBlock: KIFKEQ_clean_linker_1, # of connection points: 2
#     Edge 56, Type (0, 0), BuildingBlock: KIFKEQ_clean_linker_1, # of connection points: 2
#     Edge 57, Type (0, 0), BuildingBlock: KIFKEQ_clean_linker_1, # of connection points: 2
#     Edge 58, Type (0, 0), BuildingBlock: KIFKEQ_clean_linker_1, # of connection points: 2
#     Edge 59, Type (0, 0), BuildingBlock: KIFKEQ_clean_linker_1, # of connection points: 2
#     Edge 60, Type (0, 0), BuildingBlock: KIFKEQ_clean_linker_1, # of connection points: 2
#     Edge 61, Type (0, 0), BuildingBlock: KIFKEQ_clean_linker_1, # of connection points: 2
#     Edge 62, Type (0, 0), BuildingBlock: KIFKEQ_clean_linker_1, # of connection points: 2
#     Edge 63, Type (0, 0), BuildingBlock: KIFKEQ_clean_linker_1, # of connection points: 2
#     Edge 64, Type (0, 0), BuildingBlock: KIFKEQ_clean_linker_1, # of connection points: 2
#     Edge 65, Type (0, 0), BuildingBlock: KIFKEQ_clean_linker_1, # of connection points: 2
#     Edge 66, Type (0, 0), BuildingBlock: KIFKEQ_clean_linker_1, # of connection points: 2
#     Edge 67, Type (0, 0), BuildingBlock: KIFKEQ_clean_linker_1, # of connection points: 2
#     Edge 68, Type (0, 0), BuildingBlock: KIFKEQ_clean_linker_1, # of connection points: 2
#     Edge 69, Type (0, 0), BuildingBlock: KIFKEQ_clean_linker_1, # of connection points: 2
#     Edge 70, Type (0, 0), BuildingBlock: KIFKEQ_clean_linker_1, # of connection points: 2
#     Edge 71, Type (0, 0), BuildingBlock: KIFKEQ_clean_linker_1, # of connection points: 2
#     Edge 72, Type (0, 0), BuildingBlock: KIFKEQ_clean_linker_1, # of connection points: 2
#     Edge 73, Type (0, 0), BuildingBlock: KIFKEQ_clean_linker_1, # of connection points: 2
#     Edge 74, Type (0, 0), BuildingBlock: KIFKEQ_clean_linker_1, # of connection points: 2
#     Edge 75, Type (0, 0), BuildingBlock: KIFKEQ_clean_linker_1, # of connection points: 2
#     Edge 76, Type (0, 0), BuildingBlock: KIFKEQ_clean_linker_1, # of connection points: 2
#     Edge 77, Type (0, 0), BuildingBlock: KIFKEQ_clean_linker_1, # of connection points: 2
#     Edge 78, Type (0, 0), BuildingBlock: KIFKEQ_clean_linker_1, # of connection points: 2
#     Edge 79, Type (0, 0), BuildingBlock: KIFKEQ_clean_linker_1, # of connection points: 2
#     Edge 80, Type (0, 0), BuildingBlock: KIFKEQ_clean_linker_1, # of connection points: 2
#     Edge 81, Type (0, 0), BuildingBlock: KIFKEQ_clean_linker_1, # of connection points: 2
#     Edge 82, Type (0, 0), BuildingBlock: KIFKEQ_clean_linker_1, # of connection points: 2
#     Edge 83, Type (0, 0), BuildingBlock: KIFKEQ_clean_linker_1, # of connection points: 2
#     Edge 84, Type (0, 0), BuildingBlock: KIFKEQ_clean_linker_1, # of connection points: 2
#     Edge 85, Type (0, 0), BuildingBlock: KIFKEQ_clean_linker_1, # of connection points: 2
#     Edge 86, Type (0, 0), BuildingBlock: KIFKEQ_clean_linker_1, # of connection points: 2
#     Edge 87, Type (0, 0), BuildingBlock: KIFKEQ_clean_linker_1, # of connection points: 2
#     Edge 88, Type (0, 0), BuildingBlock: KIFKEQ_clean_linker_1, # of connection points: 2
#     Edge 89, Type (0, 0), BuildingBlock: KIFKEQ_clean_linker_1, # of connection points: 2
#     Edge 90, Type (0, 0), BuildingBlock: KIFKEQ_clean_linker_1, # of connection points: 2
#     Edge 91, Type (0, 0), BuildingBlock: KIFKEQ_clean_linker_1, # of connection points: 2
#     Edge 92, Type (0, 0), BuildingBlock: KIFKEQ_clean_linker_1, # of connection points: 2
#     Edge 93, Type (0, 0), BuildingBlock: KIFKEQ_clean_linker_1, # of connection points: 2
#     Edge 94, Type (0, 0), BuildingBlock: KIFKEQ_clean_linker_1, # of connection points: 2
#     Edge 95, Type (0, 0), BuildingBlock: KIFKEQ_clean_linker_1, # of connection points: 2
#     Edge 96, Type (0, 0), BuildingBlock: KIFKEQ_clean_linker_1, # of connection points: 2
#     Edge 97, Type (0, 0), BuildingBlock: KIFKEQ_clean_linker_1, # of connection points: 2
#     Edge 98, Type (0, 0), BuildingBlock: KIFKEQ_clean_linker_1, # of connection points: 2
#     Edge 99, Type (0, 0), BuildingBlock: KIFKEQ_clean_linker_1, # of connection points: 2
#     Edge 100, Type (0, 0), BuildingBlock: KIFKEQ_clean_linker_1, # of connection points: 2
#     Edge 101, Type (0, 0), BuildingBlock: KIFKEQ_clean_linker_1, # of connection points: 2
#     Edge 102, Type (0, 0), BuildingBlock: KIFKEQ_clean_linker_1, # of connection points: 2
#     Edge 103, Type (0, 0), BuildingBlock: KIFKEQ_clean_linker_1, # of connection points: 2
#     Edge 104, Type (0, 0), BuildingBlock: KIFKEQ_clean_linker_1, # of connection points: 2
#     Edge 105, Type (0, 0), BuildingBlock: KIFKEQ_clean_linker_1, # of connection points: 2
#     Edge 106, Type (0, 0), BuildingBlock: KIFKEQ_clean_linker_1, # of connection points: 2
#     Edge 107, Type (0, 0), BuildingBlock: KIFKEQ_clean_linker_1, # of connection points: 2
#     Edge 108, Type (0, 0), BuildingBlock: KIFKEQ_clean_linker_1, # of connection points: 2
#     Edge 109, Type (0, 0), BuildingBlock: KIFKEQ_clean_linker_1, # of connection points: 2
#     Edge 110, Type (0, 0), BuildingBlock: KIFKEQ_clean_linker_1, # of connection points: 2
#     Edge 111, Type (0, 0), BuildingBlock: KIFKEQ_clean_linker_1, # of connection points: 2
#     Edge 112, Type (0, 0), BuildingBlock: KIFKEQ_clean_linker_1, # of connection points: 2
#     Edge 113, Type (0, 0), BuildingBlock: KIFKEQ_clean_linker_1, # of connection points: 2
#     Edge 114, Type (0, 0), BuildingBlock: KIFKEQ_clean_linker_1, # of connection points: 2
#     Edge 115, Type (0, 0), BuildingBlock: KIFKEQ_clean_linker_1, # of connection points: 2
#     Edge 116, Type (0, 0), BuildingBlock: KIFKEQ_clean_linker_1, # of connection points: 2
#     Edge 117, Type (0, 0), BuildingBlock: KIFKEQ_clean_linker_1, # of connection points: 2
#     Edge 118, Type (0, 0), BuildingBlock: KIFKEQ_clean_linker_1, # of connection points: 2
#     Edge 119, Type (0, 0), BuildingBlock: KIFKEQ_clean_linker_1, # of connection points: 2
#     Edge 120, Type (0, 0), BuildingBlock: KIFKEQ_clean_linker_1, # of connection points: 2
#     Edge 121, Type (0, 0), BuildingBlock: KIFKEQ_clean_linker_1, # of connection points: 2
#     Edge 122, Type (0, 0), BuildingBlock: KIFKEQ_clean_linker_1, # of connection points: 2
#     Edge 123, Type (0, 0), BuildingBlock: KIFKEQ_clean_linker_1, # of connection points: 2
#     Edge 124, Type (0, 0), BuildingBlock: KIFKEQ_clean_linker_1, # of connection points: 2
#     Edge 125, Type (0, 0), BuildingBlock: KIFKEQ_clean_linker_1, # of connection points: 2
#     Edge 126, Type (0, 0), BuildingBlock: KIFKEQ_clean_linker_1, # of connection points: 2
#     Edge 127, Type (0, 0), BuildingBlock: KIFKEQ_clean_linker_1, # of connection points: 2
#     Edge 128, Type (0, 0), BuildingBlock: KIFKEQ_clean_linker_1, # of connection points: 2
#     Edge 129, Type (0, 0), BuildingBlock: KIFKEQ_clean_linker_1, # of connection points: 2
#     Edge 130, Type (0, 0), BuildingBlock: KIFKEQ_clean_linker_1, # of connection points: 2
#     Edge 131, Type (0, 0), BuildingBlock: KIFKEQ_clean_linker_1, # of connection points: 2
#     Edge 132, Type (0, 0), BuildingBlock: KIFKEQ_clean_linker_1, # of connection points: 2
#     Edge 133, Type (0, 0), BuildingBlock: KIFKEQ_clean_linker_1, # of connection points: 2
#     Edge 134, Type (0, 0), BuildingBlock: KIFKEQ_clean_linker_1, # of connection points: 2
#     Edge 135, Type (0, 0), BuildingBlock: KIFKEQ_clean_linker_1, # of connection points: 2
#     Edge 136, Type (0, 0), BuildingBlock: KIFKEQ_clean_linker_1, # of connection points: 2
#     Edge 137, Type (0, 0), BuildingBlock: KIFKEQ_clean_linker_1, # of connection points: 2
#     Edge 138, Type (0, 0), BuildingBlock: KIFKEQ_clean_linker_1, # of connection points: 2
#     Edge 139, Type (0, 0), BuildingBlock: KIFKEQ_clean_linker_1, # of connection points: 2
#     Edge 140, Type (0, 0), BuildingBlock: KIFKEQ_clean_linker_1, # of connection points: 2
#     Edge 141, Type (0, 0), BuildingBlock: KIFKEQ_clean_linker_1, # of connection points: 2
#     Edge 142, Type (0, 0), BuildingBlock: KIFKEQ_clean_linker_1, # of connection points: 2
#     Edge 143, Type (0, 0), BuildingBlock: KIFKEQ_clean_linker_1, # of connection points: 2
# Relax obj value: 0.215
# Max RMSD: 0.304
# Mean RMSD: 0.304
data_MOF--net-ukp--node1-CEKHIL_clean_sbu_0--edge1-KIFKEQ_clean_linker_1
_symmetry_space_group_name_H-M    P1
_symmetry_Int_Tables_number       1
_symmetry_cell_setting            triclinic
loop_
_symmetry_equiv_pos_as_xyz
'x, y, z'
_cell_length_a     62.192458
_cell_length_b     62.196648
_cell_length_c     62.24654
_cell_angle_alpha  89.979517
_cell_angle_beta   90.012416
_cell_angle_gamma 90.027276
loop_
_atom_site_label
_atom_site_type_symbol
_atom_site_fract_x
_atom_site_fract_y
_atom_site_fract_z
_atom_type_partial_charge
Co0 Co 0.15981 0.25343 0.35479 0.0
O1 O 0.155 0.2407 0.3821 0.0
O2 O 0.13006 0.24425 0.35673 0.0
C3 C 0.18988 0.23463 0.34792 0.0
O4 O 0.15991 0.2656 0.32441 0.0
Co5 Co 0.20271 0.28004 0.34966 0.0
O6 O 0.19239 0.28131 0.31956 0.0
C7 C 0.1654 0.29837 0.3727 0.0
C8 C 0.13568 0.23676 0.37547 0.0
C9 C 0.17393 0.27543 0.31282 0.0
O10 O 0.15321 0.2828 0.36658 0.0
O11 O 0.1858 0.29874 0.36977 0.0
O12 O 0.17118 0.22624 0.34419 0.0
O13 O 0.18977 0.25306 0.3574 0.0
Co14 Co 0.99086 0.91278 0.60659 0.0
O15 O -0.00279 0.91184 0.63525 0.0
O16 O -0.002 0.88386 0.61319 0.0
C17 C 0.00725 0.9419 0.59721 0.0
O18 O 0.982 0.91055 0.57526 0.0
Co19 Co 0.96404 0.95441 0.59778 0.0
O20 O 0.95655 0.93638 0.57259 0.0
C21 C 0.945 0.91913 0.62142 0.0
C22 C 0.00395 0.89265 0.63133 0.0
C23 C 0.96728 0.92072 0.56485 0.0
O24 O 0.96063 0.90673 0.61614 0.0
O25 O 0.94516 0.9395 0.61878 0.0
O26 O 0.01604 0.92307 0.59703 0.0
O27 O 0.99139 0.94275 0.606 0.0
Co28 Co 0.33162 0.7425 0.85695 0.0
O29 O 0.33707 0.75575 0.88382 0.0
O30 O 0.36124 0.75238 0.85773 0.0
C31 C 0.3011 0.76027 0.84972 0.0
O32 O 0.33031 0.72991 0.82673 0.0
Co33 Co 0.28927 0.71474 0.85534 0.0
O34 O 0.29906 0.71119 0.82524 0.0
C35 C 0.32732 0.69885 0.87705 0.0
C36 C 0.35598 0.76021 0.87643 0.0
C37 C 0.31637 0.71827 0.81676 0.0
O38 O 0.33927 0.71342 0.86862 0.0
O39 O 0.30684 0.70033 0.87807 0.0
O40 O 0.31961 0.76903 0.84594 0.0
O41 O 0.30162 0.74258 0.86053 0.0
Co42 Co 0.50585 0.08282 0.10325 0.0
O43 O 0.49577 0.08378 0.13165 0.0
O44 O 0.49572 0.11178 0.10956 0.0
C45 C 0.48662 0.05364 0.09415 0.0
O46 O 0.51608 0.0852 0.07228 0.0
Co47 Co 0.53254 0.04058 0.09517 0.0
O48 O 0.52978 0.05206 0.0655 0.0
C49 C 0.55139 0.07712 0.11858 0.0
C50 C 0.48941 0.10307 0.12761 0.0
C51 C 0.52418 0.07095 0.0596 0.0
O52 O 0.5355 0.08914 0.11348 0.0
O53 O 0.55228 0.05686 0.11495 0.0
O54 O 0.4781 0.07257 0.09317 0.0
O55 O 0.50536 0.05286 0.10308 0.0
Co56 Co 0.16119 0.74 0.13641 0.0
O57 O 0.15944 0.75134 0.10845 0.0
O58 O 0.13202 0.74944 0.13142 0.0
C59 C 0.1901 0.75888 0.14656 0.0
O60 O 0.15938 0.72951 0.16716 0.0
Co61 Co 0.20311 0.71292 0.14299 0.0
O62 O 0.1873 0.70633 0.16983 0.0
C63 C 0.16732 0.69464 0.11968 0.0
C64 C 0.14008 0.75686 0.11352 0.0
C65 C 0.1708 0.71577 0.17754 0.0
O66 O 0.15512 0.71023 0.1255 0.0
O67 O 0.18777 0.69484 0.1216 0.0
O68 O 0.17118 0.76747 0.14732 0.0
O69 O 0.1912 0.7407 0.13659 0.0
Co70 Co 0.50395 0.915 0.3884 0.0
O71 O 0.49179 0.91003 0.36085 0.0
O72 O 0.49241 0.88607 0.38736 0.0
C73 C 0.48758 0.94679 0.39357 0.0
O74 O 0.51464 0.91537 0.41925 0.0
Co75 Co 0.53409 0.95569 0.39272 0.0
O76 O 0.53472 0.94553 0.42286 0.0
C77 C 0.55008 0.91577 0.37294 0.0
C78 C 0.48589 0.89148 0.36822 0.0
C79 C 0.52618 0.92844 0.43034 0.0
O80 O 0.53306 0.90534 0.37826 0.0
O81 O 0.55231 0.93614 0.37491 0.0
O82 O 0.47753 0.92897 0.39746 0.0
O83 O 0.50623 0.94492 0.3847 0.0
Co84 Co 0.33365 0.25418 0.63881 0.0
O85 O 0.33608 0.24329 0.61048 0.0
O86 O 0.36313 0.24464 0.63362 0.0
C87 C 0.30413 0.23491 0.64647 0.0
O88 O 0.33509 0.26512 0.66986 0.0
Co89 Co 0.29109 0.28051 0.64678 0.0
O90 O 0.30175 0.27819 0.67671 0.0
C91 C 0.32743 0.29968 0.62292 0.0
C92 C 0.35583 0.23874 0.61483 0.0
C93 C 0.32076 0.27314 0.68259 0.0
O94 O 0.33976 0.28396 0.62812 0.0
O95 O 0.30717 0.3001 0.6267 0.0
O96 O 0.32304 0.22649 0.64872 0.0
O97 O 0.30371 0.25379 0.6379 0.0
Co98 Co 0.99257 0.08016 0.88949 0.0
O99 O 0.00254 0.08434 0.86212 0.0
O100 O 0.00013 0.10945 0.8875 0.0
C101 C 0.00737 0.04918 0.8958 0.0
O102 O 0.98008 0.0813 0.91964 0.0
Co103 Co 0.96467 0.03927 0.89845 0.0
O104 O 0.97177 0.04732 0.92833 0.0
C105 C 0.94513 0.07918 0.88002 0.0
C106 C 0.00707 0.10357 0.86866 0.0
C107 C 0.97406 0.06702 0.93322 0.0
O108 O 0.9635 0.08847 0.87814 0.0
O109 O 0.94252 0.06009 0.88739 0.0
O110 O 0.01619 0.06761 0.89983 0.0
O111 O 0.99144 0.0498 0.88698 0.0
Co112 Co 0.35453 0.16163 0.25443 0.0
O113 O 0.38142 0.16269 0.24056 0.0
O114 O 0.35957 0.13431 0.24026 0.0
C115 C 0.34258 0.1931 0.24168 0.0
O116 O 0.32467 0.15731 0.26689 0.0
Co117 Co 0.34707 0.19654 0.28965 0.0
O118 O 0.33096 0.17027 0.29928 0.0
C119 C 0.37789 0.16419 0.29525 0.0
C120 C 0.37684 0.14387 0.23308 0.0
C121 C 0.31805 0.16213 0.28578 0.0
O122 O 0.36851 0.15178 0.28176 0.0
O123 O 0.37677 0.18451 0.29298 0.0
O124 O 0.34118 0.17577 0.2302 0.0
O125 O 0.35353 0.19161 0.2593 0.0
Co126 Co 0.08233 0.10585 0.50381 0.0
O127 O 0.08493 0.13292 0.49 0.0
O128 O 0.11097 0.10849 0.49136 0.0
C129 C 0.05062 0.09591 0.48983 0.0
O130 O 0.08283 0.07579 0.51681 0.0
Co131 Co 0.04455 0.10326 0.53718 0.0
O132 O 0.06808 0.08413 0.5481 0.0
C133 C 0.08085 0.12932 0.5455 0.0
C134 C 0.10421 0.12723 0.48476 0.0
C135 C 0.07573 0.0702 0.53536 0.0
O136 O 0.09217 0.11887 0.5318 0.0
O137 O 0.06047 0.13051 0.54362 0.0
O138 O 0.06826 0.09348 0.47895 0.0
O139 O 0.05219 0.10735 0.5071 0.0
Co140 Co 0.1365 0.83139 0.75649 0.0
O141 O 0.10964 0.83224 0.74257 0.0
O142 O 0.13146 0.86039 0.74607 0.0
C143 C 0.14808 0.80238 0.73885 0.0
O144 O 0.16608 0.8347 0.76992 0.0
Co145 Co 0.14391 0.78963 0.78409 0.0
O146 O 0.17317 0.80222 0.78481 0.0
C147 C 0.11792 0.8255 0.801 0.0
C148 C 0.11441 0.85176 0.73736 0.0
C149 C 0.17854 0.82135 0.77961 0.0
O150 O 0.12278 0.83739 0.78485 0.0
O151 O 0.12274 0.80552 0.80242 0.0
O152 O 0.15003 0.8213 0.73041 0.0
O153 O 0.13702 0.80127 0.75635 0.0
Co154 Co 0.41114 0.88983 0.00237 0.0
O155 O 0.40926 0.86266 0.99242 0.0
O156 O 0.38287 0.88675 0.99262 0.0
C157 C 0.4432 0.89963 0.99263 0.0
O158 O 0.40988 0.92 0.01499 0.0
Co159 Co 0.44767 0.8935 0.03696 0.0
O160 O 0.42349 0.9123 0.04699 0.0
C161 C 0.412 0.86633 0.04365 0.0
C162 C 0.39002 0.86794 0.98663 0.0
C163 C 0.41594 0.9259 0.03382 0.0
O164 O 0.40071 0.87697 0.0301 0.0
O165 O 0.43241 0.86553 0.04189 0.0
O166 O 0.42593 0.90195 0.98114 0.0
O167 O 0.44109 0.88862 0.00673 0.0
Co168 Co 0.35724 0.83339 0.23978 0.0
O169 O 0.38398 0.83682 0.25355 0.0
O170 O 0.3603 0.86315 0.25004 0.0
C171 C 0.34819 0.80312 0.25759 0.0
O172 O 0.32812 0.83256 0.225 0.0
Co173 Co 0.35932 0.78957 0.21327 0.0
O174 O 0.32933 0.79956 0.20929 0.0
C175 C 0.37254 0.83089 0.19335 0.0
C176 C 0.37892 0.85649 0.25723 0.0
C177 C 0.32005 0.81749 0.21322 0.0
O178 O 0.37015 0.84123 0.21108 0.0
O179 O 0.37009 0.81054 0.19137 0.0
O180 O 0.34429 0.8217 0.26608 0.0
O181 O 0.35977 0.80358 0.24052 0.0
Co182 Co 0.41413 0.10566 0.49045 0.0
O183 O 0.40964 0.13269 0.50407 0.0
O184 O 0.38524 0.10667 0.50231 0.0
C185 C 0.44592 0.09932 0.50645 0.0
O186 O 0.41392 0.07524 0.4781 0.0
Co187 Co 0.45485 0.10053 0.46062 0.0
O188 O 0.44625 0.06997 0.46232 0.0
C189 C 0.41381 0.11848 0.44358 0.0
C190 C 0.39098 0.12541 0.5097 0.0
C191 C 0.42792 0.06329 0.46866 0.0
O192 O 0.40429 0.11713 0.46187 0.0
O193 O 0.43359 0.1137 0.44036 0.0
O194 O 0.42802 0.09505 0.51618 0.0
O195 O 0.44422 0.10921 0.48829 0.0
Co196 Co 0.13854 0.16053 0.74164 0.0
O197 O 0.11041 0.15686 0.75272 0.0
O198 O 0.1362 0.13209 0.75426 0.0
C199 C 0.1447 0.19278 0.75684 0.0
O200 O 0.1698 0.16064 0.73211 0.0
Co201 Co 0.14524 0.19701 0.70882 0.0
O202 O 0.16544 0.17382 0.6994 0.0
C203 C 0.11978 0.16072 0.69735 0.0
C204 C 0.11677 0.13817 0.75927 0.0
C205 C 0.17742 0.16553 0.71362 0.0
O206 O 0.12871 0.14991 0.71251 0.0
O207 O 0.11973 0.18123 0.69733 0.0
O208 O 0.14724 0.17514 0.76762 0.0
O209 O 0.13606 0.19075 0.73802 0.0
Co210 Co 0.07997 0.89089 0.9911 0.0
O211 O 0.08121 0.86217 -0.00319 0.0
O212 O 0.1081 0.88527 0.00056 0.0
C213 C 0.04876 0.89855 0.00392 0.0
O214 O 0.08191 0.92235 0.98228 0.0
Co215 Co 0.04017 0.89768 0.96028 0.0
O216 O 0.05115 0.92739 0.96319 0.0
C217 C 0.08013 0.87778 0.94455 0.0
C218 C 0.09968 0.86655 0.0051 0.0
C219 C 0.0685 0.93424 0.97182 0.0
O220 O 0.08998 0.88194 0.96208 0.0
O221 O 0.06002 0.88082 0.94142 0.0
O222 O 0.06669 0.89944 0.01435 0.0
O223 O 0.04985 0.88997 0.98855 0.0
Co224 Co 0.25273 0.35486 0.16075 0.0
O225 O 0.23909 0.38191 0.15677 0.0
O226 O 0.2414 0.35653 0.1317 0.0
C227 C 0.23729 0.34721 0.19228 0.0
O228 O 0.26573 0.32482 0.16028 0.0
Co229 Co 0.2834 0.35181 0.20137 0.0
O230 O 0.28802 0.32275 0.18906 0.0
C231 C 0.29497 0.37648 0.16413 0.0
C232 C 0.2344 0.37537 0.13761 0.0
C233 C 0.27954 0.3149 0.17208 0.0
O234 O 0.28119 0.36709 0.152 0.0
O235 O 0.29247 0.37774 0.18447 0.0
O236 O 0.2271 0.34334 0.1745 0.0
O237 O 0.25503 0.35768 0.19053 0.0
Co238 Co 0.75484 0.13648 0.83197 0.0
O239 O 0.74098 0.10955 0.8359 0.0
O240 O 0.7455 0.13387 0.86164 0.0
C241 C 0.73598 0.14435 0.80221 0.0
O242 O 0.76812 0.16634 0.83316 0.0
Co243 Co 0.78081 0.14357 0.78888 0.0
O244 O 0.78257 0.1731 0.80051 0.0
C245 C 0.80036 0.12021 0.82586 0.0
C246 C 0.73692 0.11585 0.85528 0.0
C247 C 0.77797 0.17853 0.81972 0.0
O248 O 0.78396 0.12377 0.83801 0.0
O249 O 0.80106 0.12506 0.80583 0.0
O250 O 0.728 0.14822 0.82103 0.0
O251 O 0.75429 0.1347 0.80187 0.0
Co252 Co 0.10662 0.50329 0.08053 0.0
O253 O 0.13376 0.48981 0.08444 0.0
O254 O 0.11 0.49538 0.11054 0.0
C255 C 0.09637 0.4841 0.0519 0.0
O256 O 0.07684 0.5167 0.0813 0.0
Co257 Co 0.10039 0.52808 0.03644 0.0
O258 O 0.07066 0.52948 0.04776 0.0
C259 C 0.12027 0.5496 0.07404 0.0
C260 C 0.12833 0.48733 0.10434 0.0
C261 C 0.06477 0.52549 0.067 0.0
O262 O 0.11941 0.53245 0.08553 0.0
O263 O 0.11462 0.5507 0.05428 0.0
O264 O 0.09397 0.47636 0.0711 0.0
O265 O 0.10754 0.50153 0.0505 0.0
Co266 Co 0.74065 0.85742 0.32948 0.0
O267 O 0.75502 0.88387 0.3324 0.0
O268 O 0.75226 0.85986 0.35862 0.0
C269 C 0.75776 0.84866 0.29872 0.0
O270 O 0.7259 0.82827 0.32969 0.0
Co271 Co 0.71232 0.85792 0.287 0.0
O272 O 0.70491 0.82961 0.29981 0.0
C273 C 0.69692 0.87839 0.32637 0.0
C274 C 0.7608 0.8776 0.35125 0.0
C275 C 0.71136 0.82048 0.31708 0.0
O276 O 0.71236 0.87066 0.33769 0.0
O277 O 0.69715 0.87916 0.30581 0.0
O278 O 0.76657 0.84465 0.3171 0.0
O279 O 0.74028 0.85964 0.29959 0.0
Co280 Co 0.88676 0.99011 0.07761 0.0
O281 O 0.85986 0.00049 0.07947 0.0
O282 O 0.88197 -0.00402 0.10716 0.0
C283 C 0.89776 0.00678 0.04962 0.0
O284 O 0.91644 0.97663 0.07996 0.0
Co285 Co 0.89608 0.96618 0.03379 0.0
O286 O 0.92555 0.96818 0.0458 0.0
C287 C 0.87349 0.94423 0.06992 0.0
C288 C 0.86485 0.00506 0.09908 0.0
C289 C 0.92994 0.97008 0.06574 0.0
O290 O 0.87392 0.96103 0.08194 0.0
O291 O 0.87986 0.94383 0.05033 0.0
O292 O 0.8999 0.01408 0.06896 0.0
O293 O 0.88701 0.99206 0.0476 0.0
Co294 Co 0.24102 0.63842 0.66258 0.0
O295 O 0.25334 0.61081 0.6585 0.0
O296 O 0.25201 0.63624 0.63342 0.0
C297 C 0.25837 0.64404 0.69381 0.0
O298 O 0.2288 0.66884 0.6618 0.0
Co299 Co 0.21251 0.64662 0.70335 0.0
O300 O 0.21995 0.6766 0.69591 0.0
C301 C 0.19388 0.62765 0.6634 0.0
C302 C 0.25828 0.61713 0.63933 0.0
C303 C 0.22245 0.68202 0.67637 0.0
O304 O 0.21209 0.6275 0.65374 0.0
O305 O 0.19097 0.634 0.68277 0.0
O306 O 0.26753 0.64822 0.67559 0.0
O307 O 0.23941 0.63551 0.69277 0.0
Co308 Co 0.10666 0.4915 0.4127 0.0
O309 O 0.1326 0.50696 0.40878 0.0
O310 O 0.10818 0.50178 0.38321 0.0
C311 C 0.09703 0.50872 0.44291 0.0
O312 O 0.07767 0.47639 0.41213 0.0
Co313 Co 0.10228 0.46373 0.45472 0.0
O314 O 0.07173 0.46566 0.44629 0.0
C315 C 0.11982 0.44506 0.41421 0.0
C316 C 0.12583 0.51113 0.38958 0.0
C317 C 0.06564 0.46845 0.42694 0.0
O318 O 0.12067 0.46349 0.40493 0.0
O319 O 0.11321 0.44204 0.43347 0.0
O320 O 0.09316 0.51695 0.42422 0.0
O321 O 0.10886 0.49161 0.44306 0.0
Co322 Co 0.38809 0.50532 0.91382 0.0
O323 O 0.35948 0.49511 0.91141 0.0
O324 O 0.3832 0.494 0.88492 0.0
C325 C 0.39488 0.48778 0.94467 0.0
O326 O 0.41953 0.51502 0.91252 0.0
Co327 Co 0.3949 0.53445 0.95504 0.0
O328 O 0.42448 0.53383 0.94341 0.0
C329 C 0.37472 0.5521 0.91599 0.0
C330 C 0.36411 0.48903 0.89215 0.0
C331 C 0.43129 0.52586 0.92578 0.0
O332 O 0.37858 0.53488 0.90534 0.0
O333 O 0.37807 0.55432 0.93616 0.0
O334 O 0.3969 0.47815 0.92634 0.0
O335 O 0.38673 0.50684 0.94385 0.0
Co336 Co 0.66198 0.75413 0.85678 0.0
O337 O 0.65875 0.7417 0.88437 0.0
O338 O 0.63334 0.74179 0.85919 0.0
C339 C 0.69385 0.73967 0.84866 0.0
O340 O 0.66191 0.76543 0.82616 0.0
Co341 Co 0.6995 0.78703 0.85262 0.0
O342 O 0.67782 0.79713 0.83121 0.0
C343 C 0.66329 0.79649 0.87879 0.0
C344 C 0.63968 0.73604 0.87834 0.0
C345 C 0.66862 0.78358 0.81902 0.0
O346 O 0.65203 0.78275 0.86825 0.0
O347 O 0.68376 0.79534 0.87934 0.0
O348 O 0.67632 0.72863 0.84608 0.0
O349 O 0.69191 0.75753 0.859 0.0
Co350 Co 0.48992 0.41224 0.10447 0.0
O351 O 0.50059 0.40843 0.13263 0.0
O352 O 0.50185 0.38351 0.10708 0.0
C353 C 0.50695 0.44359 0.0989 0.0
O354 O 0.48081 0.41244 0.07311 0.0
Co355 Co 0.45975 0.45187 0.09846 0.0
O356 O 0.45266 0.4352 0.07229 0.0
C357 C 0.44338 0.41298 0.11876 0.0
C358 C 0.50796 0.39017 0.12601 0.0
C359 C 0.46489 0.42139 0.06345 0.0
O360 O 0.46049 0.40266 0.11366 0.0
O361 O 0.44095 0.43323 0.11639 0.0
O362 O 0.51672 0.42546 0.09616 0.0
O363 O 0.48794 0.44242 0.10724 0.0
Co364 Co 0.83103 0.23948 0.35415 0.0
O365 O 0.83265 0.24881 0.3828 0.0
O366 O 0.85871 0.25324 0.35878 0.0
C367 C 0.79858 0.25451 0.34811 0.0
O368 O 0.83312 0.23121 0.3227 0.0
Co369 Co 0.79264 0.207 0.34671 0.0
O370 O 0.80583 0.20747 0.3178 0.0
C371 C 0.83298 0.19292 0.36709 0.0
C372 C 0.85075 0.2576 0.3777 0.0
C373 C 0.82212 0.21806 0.31113 0.0
O374 O 0.84241 0.21067 0.36262 0.0
O375 O 0.81289 0.1894 0.3644 0.0
O376 O 0.81601 0.2657 0.34629 0.0
O377 O 0.8011 0.23532 0.35561 0.0
Co378 Co 0.00345 0.58068 0.6062 0.0
O379 O 0.99469 0.58165 0.63426 0.0
O380 O 0.99517 0.6094 0.61189 0.0
C381 C 0.98924 0.5502 0.59712 0.0
O382 O 0.01486 0.58389 0.57564 0.0
Co383 Co 0.03295 0.54005 0.5985 0.0
O384 O 0.03499 0.554 0.56996 0.0
C385 C 0.04865 0.57704 0.62352 0.0
C386 C 0.9893 0.60131 0.63035 0.0
C387 C 0.02733 0.57211 0.56403 0.0
O388 O 0.0325 0.58845 0.61764 0.0
O389 O 0.05028 0.55681 0.61996 0.0
O390 O 0.97963 0.56859 0.59534 0.0
O391 O 0.00497 0.55066 0.60614 0.0
Co392 Co 0.6642 0.23995 0.6399 0.0
O393 O 0.65943 0.25237 0.61247 0.0
O394 O 0.63552 0.25199 0.63906 0.0
C395 C 0.69634 0.25573 0.64492 0.0
O396 O 0.66418 0.22902 0.67064 0.0
Co397 Co 0.70443 0.20947 0.64535 0.0
O398 O 0.69535 0.211 0.67573 0.0
C399 C 0.66331 0.193 0.6274 0.0
C400 C 0.64101 0.25855 0.61996 0.0
C401 C 0.67763 0.21879 0.68249 0.0
O402 O 0.65382 0.21119 0.62962 0.0
O403 O 0.68318 0.18958 0.63159 0.0
O404 O 0.67873 0.26597 0.64915 0.0
O405 O 0.69414 0.23713 0.63601 0.0
Co406 Co 0.00185 0.40769 0.8921 0.0
O407 O 0.99344 0.40827 0.86418 0.0
O408 O 0.99525 0.37883 0.8842 0.0
C409 C 0.98528 0.43679 0.90305 0.0
O410 O 0.01468 0.4056 0.92135 0.0
Co411 Co 0.0268 0.45253 0.88893 0.0
O412 O 0.03129 0.43801 0.91757 0.0
C413 C 0.04772 0.41291 0.87443 0.0
C414 C 0.98932 0.38815 0.86629 0.0
C415 C 0.02735 0.42058 0.928 0.0
O416 O 0.0316 0.40163 0.88069 0.0
O417 O 0.0481 0.43349 0.87422 0.0
O418 O 0.97693 0.41775 0.90404 0.0
O419 O 0.00108 0.43701 0.89461 0.0
Co420 Co 0.83284 0.75485 0.13698 0.0
O421 O 0.83586 0.74505 0.10832 0.0
O422 O 0.86235 0.74553 0.13221 0.0
C423 C 0.80297 0.73572 0.14378 0.0
O424 O 0.83406 0.76442 0.1684 0.0
Co425 Co 0.79018 0.78141 0.14523 0.0
O426 O 0.80207 0.7808 0.17468 0.0
C427 C 0.82829 0.80198 0.12577 0.0
C428 C 0.85554 0.74041 0.11303 0.0
C429 C 0.82049 0.7741 0.18075 0.0
O430 O 0.83955 0.78483 0.12772 0.0
O431 O 0.80824 0.80337 0.13022 0.0
O432 O 0.82178 0.72696 0.14564 0.0
O433 O 0.80278 0.75484 0.13573 0.0
Co434 Co 0.4916 0.58629 0.38855 0.0
O435 O 0.50385 0.59126 0.36105 0.0
O436 O 0.499 0.61658 0.38572 0.0
C437 C 0.5121 0.55757 0.39675 0.0
O438 O 0.47945 0.58552 0.419 0.0
Co439 Co 0.46798 0.54163 0.39319 0.0
O440 O 0.46709 0.55151 0.42348 0.0
C441 C 0.44718 0.57742 0.37044 0.0
C442 C 0.50658 0.61096 0.367 0.0
C443 C 0.47141 0.57031 0.43055 0.0
O444 O 0.46175 0.59073 0.37675 0.0
O445 O 0.44892 0.557 0.37239 0.0
O446 O 0.51945 0.57685 0.39972 0.0
O447 O 0.49413 0.5565 0.3865 0.0
Co448 Co 0.85692 0.66444 0.75523 0.0
O449 O 0.88334 0.66205 0.74035 0.0
O450 O 0.85958 0.63554 0.74348 0.0
C451 C 0.84692 0.69519 0.73917 0.0
O452 O 0.82745 0.66253 0.76921 0.0
Co453 Co 0.85214 0.70522 0.78491 0.0
O454 O 0.82207 0.6949 0.78498 0.0
C455 C 0.87204 0.66511 0.80155 0.0
C456 C 0.87717 0.64299 0.73482 0.0
C457 C 0.81576 0.67619 0.7794 0.0
O458 O 0.87048 0.65567 0.78325 0.0
O459 O 0.86653 0.68462 0.80508 0.0
O460 O 0.84371 0.67681 0.72999 0.0
O461 O 0.85841 0.69479 0.75648 0.0
Co462 Co 0.582 0.60509 0.00143 0.0
O463 O 0.5868 0.63326 0.99383 0.0
O464 O 0.61072 0.60663 0.99313 0.0
C465 C 0.54997 0.59988 0.98895 0.0
O466 O 0.5813 0.57385 0.01081 0.0
Co467 Co 0.54414 0.59943 0.03308 0.0
O468 O 0.56239 0.57458 0.04145 0.0
C469 C 0.58126 0.62318 0.046 0.0
C470 C 0.60541 0.62618 0.98779 0.0
C471 C 0.57443 0.5649 0.02807 0.0
O472 O 0.59209 0.61444 0.03078 0.0
O473 O 0.56076 0.62349 0.04613 0.0
O474 O 0.56774 0.59695 0.97849 0.0
O475 O 0.55192 0.60836 0.00433 0.0
Co476 Co 0.63945 0.333 0.25521 0.0
O477 O 0.61097 0.33347 0.24503 0.0
O478 O 0.63245 0.36175 0.24422 0.0
C479 C 0.64897 0.30353 0.23685 0.0
O480 O 0.6707 0.33547 0.2652 0.0
Co481 Co 0.64756 0.29153 0.28321 0.0
O482 O 0.67723 0.30201 0.27833 0.0
C483 C 0.62621 0.32936 0.30209 0.0
C484 C 0.61413 0.35293 0.2388 0.0
C485 C 0.68343 0.32071 0.27246 0.0
O486 O 0.62915 0.34021 0.28484 0.0
O487 O 0.63096 0.30944 0.30426 0.0
O488 O 0.64954 0.32225 0.22785 0.0
O489 O 0.63985 0.30294 0.25552 0.0
Co490 Co 0.91582 0.38683 0.50564 0.0
O491 O 0.91405 0.3591 0.49356 0.0
O492 O 0.88674 0.38212 0.49552 0.0
C493 C 0.94509 0.39682 0.48738 0.0
O494 O 0.91359 0.41742 0.51693 0.0
Co495 Co 0.95792 0.39472 0.53279 0.0
O496 O 0.94678 0.42446 0.5302 0.0
C497 C 0.9201 0.37359 0.55229 0.0
C498 C 0.89476 0.3643 0.48788 0.0
C499 C 0.92786 0.43024 0.52469 0.0
O500 O 0.90907 0.37544 0.53496 0.0
O501 O 0.94004 0.37847 0.55396 0.0
O502 O 0.92625 0.39816 0.47871 0.0
O503 O 0.94603 0.38666 0.50548 0.0
Co504 Co 0.85838 0.3302 0.74066 0.0
O505 O 0.88495 0.33365 0.75497 0.0
O506 O 0.86109 0.35985 0.75008 0.0
C507 C 0.84829 0.30078 0.75865 0.0
O508 O 0.82885 0.33138 0.72694 0.0
Co509 Co 0.85287 0.28714 0.71422 0.0
O510 O 0.823 0.29833 0.71284 0.0
C511 C 0.87565 0.32442 0.69564 0.0
C512 C 0.87874 0.35307 0.75912 0.0
C513 C 0.81689 0.31733 0.71766 0.0
O514 O 0.87167 0.33637 0.71201 0.0
O515 O 0.87213 0.30413 0.69494 0.0
O516 O 0.84533 0.31968 0.76686 0.0
O517 O 0.85965 0.30005 0.74135 0.0
Co518 Co 0.91242 0.60625 0.99338 0.0
O519 O 0.90888 0.63189 0.00547 0.0
O520 O 0.88275 0.60824 0.00043 0.0
C521 C 0.94241 0.59603 0.00769 0.0
O522 O 0.91337 0.57804 0.97715 0.0
Co523 Co 0.95668 0.60908 0.9679 0.0
O524 O 0.94698 0.57917 0.96279 0.0
C525 C 0.91664 0.62716 0.94921 0.0
C526 C 0.88961 0.6258 0.00972 0.0
C527 C 0.92878 0.57006 0.96581 0.0
O528 O 0.90522 0.62097 0.96533 0.0
O529 O 0.93718 0.62567 0.94843 0.0
O530 O 0.9237 0.59147 0.01552 0.0
O531 O 0.94222 0.60881 0.99485 0.0
Co532 Co 0.63869 0.66017 0.24018 0.0
O533 O 0.6105 0.65732 0.25156 0.0
O534 O 0.63453 0.63091 0.25047 0.0
C535 C 0.64855 0.69033 0.25712 0.0
O536 O 0.66965 0.65961 0.22985 0.0
Co537 Co 0.64524 0.70016 0.21044 0.0
O538 O 0.66579 0.67809 0.19943 0.0
C539 C 0.61999 0.66465 0.19571 0.0
C540 C 0.61555 0.63772 0.25626 0.0
C541 C 0.67744 0.66765 0.21253 0.0
O542 O 0.62789 0.65261 0.21053 0.0
O543 O 0.62046 0.68515 0.19674 0.0
O544 O 0.64932 0.67197 0.26699 0.0
O545 O 0.63823 0.69038 0.2391 0.0
Co546 Co 0.58435 0.38941 0.49086 0.0
O547 O 0.58546 0.36232 0.50448 0.0
O548 O 0.61235 0.38584 0.50461 0.0
C549 C 0.55206 0.39893 0.50352 0.0
O550 O 0.58582 0.41935 0.47762 0.0
Co551 Co 0.54757 0.39221 0.45559 0.0
O552 O 0.57252 0.41022 0.44587 0.0
C553 C 0.58296 0.36462 0.4515 0.0
C554 C 0.60471 0.36716 0.5105 0.0
C555 C 0.5793 0.42455 0.4587 0.0
O556 O 0.5949 0.37601 0.46373 0.0
O557 O 0.5628 0.36371 0.45504 0.0
O558 O 0.56921 0.40159 0.51514 0.0
O559 O 0.55457 0.38823 0.48594 0.0
Co560 Co 0.75348 0.85941 0.66165 0.0
O561 O 0.74108 0.88698 0.65728 0.0
O562 O 0.74605 0.86289 0.63143 0.0
C563 C 0.73274 0.85129 0.69013 0.0
O564 O 0.7664 0.8292 0.6613 0.0
Co565 Co 0.77668 0.85129 0.70601 0.0
O566 O 0.77479 0.82128 0.69574 0.0
C567 C 0.80022 0.87022 0.66883 0.0
C568 C 0.73851 0.88152 0.63742 0.0
C569 C 0.77318 0.81623 0.67595 0.0
O570 O 0.78314 0.87109 0.65722 0.0
O571 O 0.80069 0.8636 0.68834 0.0
O572 O 0.72575 0.84824 0.67075 0.0
O573 O 0.75108 0.86089 0.69166 0.0
Co574 Co 0.25361 0.63939 0.33029 0.0
O575 O 0.2428 0.61101 0.33282 0.0
O576 O 0.24301 0.63486 0.35935 0.0
C577 C 0.23589 0.64668 0.29968 0.0
O578 O 0.26404 0.67044 0.33225 0.0
Co579 Co 0.28216 0.64782 0.28908 0.0
O580 O 0.2807 0.67737 0.3006 0.0
C581 C 0.30074 0.62759 0.32804 0.0
C582 C 0.23765 0.61582 0.35235 0.0
C583 C 0.27393 0.68303 0.3191 0.0
O584 O 0.28299 0.62924 0.33835 0.0
O585 O 0.30334 0.63289 0.30832 0.0
O586 O 0.22652 0.64883 0.31814 0.0
O587 O 0.25488 0.63829 0.30012 0.0
Co588 Co 0.60617 0.00222 0.58261 0.0
O589 O 0.63338 0.99243 0.58711 0.0
O590 O 0.60817 0.99555 0.61222 0.0
C591 C 0.59919 0.98686 0.55225 0.0
O592 O 0.57578 0.01438 0.58304 0.0
Co593 Co 0.60042 0.02927 0.53994 0.0
O594 O 0.57143 0.03348 0.55236 0.0
C595 C 0.6246 0.04662 0.57673 0.0
C596 C 0.62692 0.98824 0.60641 0.0
C597 C 0.56478 0.02658 0.5705 0.0
O598 O 0.61783 0.03163 0.58931 0.0
O599 O 0.62266 0.04588 0.55625 0.0
O600 O 0.59544 0.97818 0.57081 0.0
O601 O 0.60862 0.00239 0.55263 0.0
Co602 Co 0.2403 0.35419 0.83173 0.0
O603 O 0.25378 0.38135 0.83526 0.0
O604 O 0.25296 0.35592 0.8603 0.0
C605 C 0.25544 0.34749 0.79957 0.0
O606 O 0.22819 0.32379 0.83247 0.0
Co607 Co 0.20876 0.35038 0.79224 0.0
O608 O 0.20857 0.32008 0.80202 0.0
C609 C 0.19585 0.37363 0.83142 0.0
C610 C 0.26008 0.37456 0.85386 0.0
C611 C 0.21674 0.31266 0.81932 0.0
O612 O 0.21196 0.36605 0.84195 0.0
O613 O 0.19359 0.37169 0.81105 0.0
O614 O 0.26583 0.34348 0.81715 0.0
O615 O 0.23731 0.35728 0.80184 0.0
Co616 Co 0.39019 0.4921 0.58077 0.0
O617 O 0.36254 0.5041 0.58581 0.0
O618 O 0.38949 0.50468 0.60931 0.0
C619 C 0.39476 0.50715 0.54823 0.0
O620 O 0.421 0.48121 0.58014 0.0
Co621 Co 0.39325 0.46016 0.54134 0.0
O622 O 0.42353 0.45941 0.55107 0.0
C623 C 0.37401 0.44629 0.58239 0.0
C624 C 0.36992 0.51019 0.60427 0.0
C625 C 0.4315 0.46858 0.5676 0.0
O626 O 0.3803 0.46345 0.59196 0.0
O627 O 0.37551 0.44311 0.56213 0.0
O628 O 0.39889 0.51795 0.56554 0.0
O629 O 0.3859 0.4886 0.55106 0.0
Co630 Co 0.74177 0.14277 0.15885 0.0
O631 O 0.75173 0.11434 0.16076 0.0
O632 O 0.75394 0.13433 0.1313 0.0
C633 C 0.75903 0.15097 0.19036 0.0
O634 O 0.73179 0.17324 0.15351 0.0
Co635 Co 0.71259 0.14092 0.2052 0.0
O636 O 0.71601 0.16316 0.18248 0.0
C637 C 0.69696 0.12366 0.16262 0.0
C638 C 0.75914 0.11675 0.14157 0.0
C639 C 0.71816 0.17725 0.1681 0.0
O640 O 0.71231 0.13177 0.15131 0.0
O641 O 0.69579 0.12399 0.1833 0.0
O642 O 0.76892 0.15244 0.17207 0.0
O643 O 0.73912 0.14586 0.18879 0.0
Co644 Co 0.60566 0.99184 0.91543 0.0
O645 O 0.63395 0.00056 0.91255 0.0
O646 O 0.60907 0.00167 0.88702 0.0
C647 C 0.5989 0.00382 0.94763 0.0
O648 O 0.57476 0.98095 0.91407 0.0
Co649 Co 0.60037 0.95981 0.95456 0.0
O650 O 0.57036 0.96061 0.94402 0.0
C651 C 0.62046 0.9453 0.91404 0.0
C652 C 0.62834 0.00679 0.89355 0.0
C653 C 0.56335 0.96916 0.92673 0.0
O654 O 0.61608 0.96317 0.90469 0.0
O655 O 0.61723 0.94157 0.93402 0.0
O656 O 0.5961 0.01471 0.93011 0.0
O657 O 0.6079 0.98836 0.94536 0.0
Co658 Co 0.89109 0.00462 0.41398 0.0
O659 O 0.86295 0.99606 0.41387 0.0
O660 O 0.88386 0.99681 0.38517 0.0
C661 C 0.90043 0.98917 0.44348 0.0
O662 O 0.92159 0.01636 0.41038 0.0
Co663 Co 0.90017 0.03208 0.45575 0.0
O664 O 0.92918 0.0317 0.44262 0.0
C665 C 0.87427 0.0497 0.41996 0.0
C666 C 0.86594 0.99048 0.39419 0.0
C667 C 0.9343 0.02622 0.42351 0.0
O668 O 0.87924 0.03379 0.4078 0.0
O669 O 0.87892 0.05065 0.44002 0.0
O670 O 0.90211 0.98048 0.42466 0.0
O671 O 0.8918 0.0049 0.44394 0.0
H672 H 0.12052 0.11702 0.44555 0.0
H673 H 0.11236 0.16922 0.49024 0.0
H674 H 0.12443 0.14249 0.41631 0.0
H675 H 0.11841 0.19499 0.46187 0.0
H676 H 0.10864 0.24047 0.40954 0.0
H677 H 0.10259 0.21225 0.4358 0.0
H678 H 0.13585 0.16715 0.3942 0.0
H679 H 0.13906 0.19491 0.36731 0.0
C680 C 0.12079 0.13405 0.44921 0.0
C681 C 0.11608 0.14124 0.47001 0.0
C682 C 0.12278 0.14888 0.43235 0.0
C683 C 0.12062 0.17124 0.43613 0.0
C684 C 0.11871 0.17814 0.45766 0.0
C685 C 0.11602 0.16334 0.47425 0.0
C686 C 0.11342 0.22415 0.40571 0.0
C687 C 0.12395 0.21967 0.38642 0.0
C688 C 0.11082 0.20799 0.42112 0.0
C689 C 0.11983 0.18729 0.41803 0.0
C690 C 0.1287 0.18259 0.3977 0.0
C691 C 0.13039 0.19853 0.38199 0.0
H692 H 0.1064 0.82937 0.70184 0.0
H693 H 0.10034 0.89289 0.72898 0.0
H694 H 0.08471 0.83959 0.6715 0.0
H695 H 0.07673 0.90302 0.69968 0.0
H696 H 0.03267 0.91921 0.64879 0.0
H697 H 0.0646 0.9111 0.66809 0.0
H698 H 0.05113 0.84294 0.66109 0.0
H699 H 0.01987 0.8516 0.63903 0.0
C700 C 0.1002 0.84565 0.70123 0.0
C701 C 0.10426 0.86024 0.71798 0.0
C702 C 0.08748 0.85146 0.68388 0.0
C703 C 0.07783 0.87183 0.68321 0.0
C704 C 0.08362 0.88709 0.69922 0.0
C705 C 0.09705 0.88138 0.71633 0.0
C706 C 0.03638 0.90238 0.6514 0.0
C707 C 0.02318 0.88592 0.64321 0.0
C708 C 0.05488 0.89772 0.66275 0.0
C709 C 0.06037 0.87638 0.66735 0.0
C710 C 0.04772 0.85971 0.6581 0.0
C711 C 0.02947 0.8645 0.64573 0.0
H712 H 0.38779 0.825 0.98974 0.0
H713 H 0.36842 0.87826 0.94985 0.0
H714 H 0.38139 0.80026 0.96047 0.0
H715 H 0.36358 0.85392 0.91965 0.0
H716 H 0.34477 0.80109 0.87216 0.0
H717 H 0.34936 0.82813 0.89957 0.0
H718 H 0.39694 0.78773 0.93071 0.0
H719 H 0.38997 0.75963 0.90429 0.0
C720 C 0.38166 0.83129 0.97468 0.0
C721 C 0.37866 0.85346 0.97192 0.0
C722 C 0.37862 0.81719 0.95759 0.0
C723 C 0.3731 0.82497 0.93706 0.0
C724 C 0.36805 0.84707 0.93497 0.0
C725 C 0.37059 0.86115 0.95238 0.0
C726 C 0.35677 0.79841 0.88452 0.0
C727 C 0.36706 0.77841 0.88623 0.0
C728 C 0.35934 0.81392 0.90046 0.0
C729 C 0.37289 0.81003 0.91816 0.0
C730 C 0.3854 0.79098 0.91812 0.0
C731 C 0.38209 0.77507 0.90257 0.0
H732 H 0.38815 0.10273 0.22153 0.0
H733 H 0.39122 0.16907 0.20158 0.0
H734 H 0.41272 0.09309 0.19307 0.0
H735 H 0.41359 0.15973 0.17172 0.0
H736 H 0.47572 0.14447 0.13689 0.0
H737 H 0.44515 0.1539 0.15922 0.0
H738 H 0.42781 0.08625 0.16324 0.0
H739 H 0.45921 0.07735 0.1436 0.0
C740 C 0.39378 0.1151 0.21063 0.0
C741 C 0.38865 0.13662 0.21415 0.0
C742 C 0.40781 0.1097 0.19391 0.0
C743 C 0.41627 0.12574 0.17995 0.0
C744 C 0.40894 0.14695 0.1825 0.0
C745 C 0.39575 0.15235 0.19961 0.0
C746 C 0.46537 0.13184 0.14298 0.0
C747 C 0.47039 0.11027 0.13945 0.0
C748 C 0.44745 0.13709 0.1556 0.0
C749 C 0.43381 0.1208 0.16415 0.0
C750 C 0.43817 0.09938 0.15861 0.0
C751 C 0.45636 0.09422 0.14697 0.0
H752 H 0.1624 0.79255 0.10594 0.0
H753 H 0.09932 0.76478 0.09896 0.0
H754 H 0.1522 0.82296 0.08474 0.0
H755 H 0.08882 0.79409 0.0764 0.0
H756 H 0.0739 0.84039 0.02707 0.0
H757 H 0.08075 0.82044 0.05802 0.0
H758 H 0.1477 0.84092 0.05623 0.0
H759 H 0.13933 0.86377 0.02576 0.0
C760 C 0.14618 0.79308 0.09954 0.0
C761 C 0.13175 0.77612 0.10321 0.0
C762 C 0.14029 0.81057 0.08703 0.0
C763 C 0.11992 0.81125 0.07721 0.0
C764 C 0.10487 0.79485 0.0828 0.0
C765 C 0.11073 0.77759 0.09586 0.0
C766 C 0.09027 0.8406 0.03305 0.0
C767 C 0.10635 0.85314 0.02335 0.0
C768 C 0.09438 0.82864 0.05121 0.0
C769 C 0.11516 0.82748 0.0599 0.0
C770 C 0.13135 0.84072 0.05048 0.0
C771 C 0.12682 0.85374 0.03259 0.0
H772 H 0.48562 0.85612 0.342 0.0
H773 H 0.44559 0.90519 0.36997 0.0
H774 H 0.45746 0.84808 0.31588 0.0
H775 H 0.41854 0.89931 0.34286 0.0
H776 H 0.36888 0.88126 0.29222 0.0
H777 H 0.39259 0.88556 0.32301 0.0
H778 H 0.44587 0.86158 0.28495 0.0
H779 H 0.4218 0.85642 0.25506 0.0
C780 C 0.47051 0.86474 0.34282 0.0
C781 C 0.46757 0.88116 0.35783 0.0
C782 C 0.45453 0.8607 0.32747 0.0
C783 C 0.4359 0.8738 0.32628 0.0
C784 C 0.4324 0.88884 0.34282 0.0
C785 C 0.44797 0.89225 0.35853 0.0
C786 C 0.38585 0.87782 0.29034 0.0
C787 C 0.39351 0.86854 0.27134 0.0
C788 C 0.39956 0.87991 0.30815 0.0
C789 C 0.42127 0.87307 0.3071 0.0
C790 C 0.42918 0.86593 0.28714 0.0
C791 C 0.4155 0.86369 0.26959 0.0
H792 H 0.37955 0.20333 0.62531 0.0
H793 H 0.35449 0.23939 0.57173 0.0
H794 H 0.38356 0.17194 0.60241 0.0
H795 H 0.35984 0.209 0.54829 0.0
H796 H 0.35564 0.15161 0.5091 0.0
H797 H 0.347 0.17797 0.53677 0.0
H798 H 0.39709 0.15112 0.57723 0.0
H799 H 0.40363 0.12379 0.55052 0.0
C800 C 0.37597 0.20482 0.60833 0.0
C801 C 0.3668 0.22375 0.60026 0.0
C802 C 0.37795 0.18666 0.59508 0.0
C803 C 0.37124 0.18727 0.57333 0.0
C804 C 0.36409 0.20711 0.56503 0.0
C805 C 0.36172 0.22496 0.57833 0.0
C806 C 0.3639 0.15088 0.52441 0.0
C807 C 0.38024 0.13584 0.52782 0.0
C808 C 0.35953 0.1664 0.54013 0.0
C809 C 0.37219 0.16777 0.55904 0.0
C810 C 0.38701 0.15112 0.56309 0.0
C811 C 0.3908 0.13526 0.54772 0.0
H812 H 0.12631 0.12617 0.8001 0.0
H813 H 0.07587 0.1267 0.7528 0.0
H814 H 0.10016 0.12173 0.82837 0.0
H815 H 0.04956 0.12066 0.78 0.0
H816 H 9e-05 0.12057 0.82974 0.0
H817 H 0.02718 0.12813 0.80358 0.0
H818 H 0.07636 0.11829 0.8524 0.0
H819 H 0.04837 0.11263 0.87856 0.0
C820 C 0.10953 0.12428 0.79578 0.0
C821 C 0.10298 0.12668 0.7744 0.0
C822 C 0.09416 0.12216 0.81213 0.0
C823 C 0.07184 0.12213 0.80737 0.0
C824 C 0.06596 0.12208 0.78537 0.0
C825 C 0.08124 0.12475 0.76927 0.0
C826 C 0.01676 0.121 0.83483 0.0
C827 C 0.02222 0.1162 0.856 0.0
C828 C 0.03273 0.1245 0.81956 0.0
C829 C 0.05481 0.12224 0.82479 0.0
C830 C 0.06001 0.11955 0.84682 0.0
C831 C 0.04385 0.11669 0.86223 0.0
H832 H 0.1925 0.36663 0.13147 0.0
H833 H 0.24166 0.41354 0.11846 0.0
H834 H 0.1651 0.39377 0.12769 0.0
H835 H 0.21459 0.44058 0.112 0.0
H836 H 0.16855 0.49301 0.11954 0.0
H837 H 0.19391 0.46435 0.12596 0.0
H838 H 0.14213 0.41792 0.11891 0.0
H839 H 0.11695 0.44713 0.11521 0.0
C840 C 0.19726 0.38264 0.12649 0.0
C841 C 0.21906 0.38809 0.12519 0.0
C842 C 0.18148 0.39856 0.12455 0.0
C843 C 0.18719 0.42026 0.1207 0.0
C844 C 0.20912 0.42474 0.11654 0.0
C845 C 0.22485 0.40899 0.11933 0.0
C846 C 0.16265 0.47664 0.1206 0.0
C847 C 0.14089 0.4722 0.11718 0.0
C848 C 0.17733 0.4599 0.12336 0.0
C849 C 0.17079 0.43816 0.12158 0.0
C850 C 0.14845 0.43403 0.12017 0.0
C851 C 0.13369 0.4509 0.11833 0.0
H852 H 0.73736 0.08875 0.88993 0.0
H853 H 0.6959 0.11939 0.84367 0.0
H854 H 0.70885 0.06314 0.89844 0.0
H855 H 0.66819 0.09288 0.85025 0.0
H856 H 0.61782 0.04369 0.87214 0.0
H857 H 0.64224 0.07378 0.86631 0.0
H858 H 0.69604 0.03291 0.88347 0.0
H859 H 0.67133 0.00378 0.89077 0.0
C860 C 0.72188 0.09029 0.88207 0.0
C861 C 0.71868 0.10585 0.86621 0.0
C862 C 0.70569 0.07526 0.88637 0.0
C863 C 0.68642 0.07503 0.87421 0.0
C864 C 0.68264 0.09214 0.85989 0.0
C865 C 0.69855 0.10749 0.85613 0.0
C866 C 0.63495 0.04112 0.87399 0.0
C867 C 0.64274 0.02157 0.88207 0.0
C868 C 0.64906 0.05846 0.87088 0.0
C869 C 0.67126 0.05631 0.87539 0.0
C870 C 0.67906 0.03582 0.88107 0.0
C871 C 0.66496 0.0188 0.88465 0.0
H872 H 0.79558 0.88812 0.32896 0.0
H873 H 0.76954 0.89014 0.39314 0.0
H874 H 0.8222 0.91423 0.33813 0.0
H875 H 0.79839 0.91447 0.40377 0.0
H876 H 0.8284 0.9784 0.41156 0.0
H877 H 0.80694 0.94803 0.40334 0.0
H878 H 0.84888 0.93326 0.34951 0.0
H879 H 0.87007 0.96514 0.35764 0.0
C880 C 0.79609 0.89384 0.34542 0.0
C881 C 0.78005 0.88789 0.36017 0.0
C882 C 0.81169 0.90885 0.35084 0.0
C883 C 0.81222 0.91784 0.37154 0.0
C884 C 0.79782 0.90937 0.38719 0.0
C885 C 0.78153 0.89486 0.38142 0.0
C886 C 0.83299 0.96888 0.39773 0.0
C887 C 0.85107 0.97426 0.38527 0.0
C888 C 0.82079 0.9508 0.39325 0.0
C889 C 0.82611 0.93713 0.3761 0.0
C890 C 0.8438 0.94308 0.36289 0.0
C891 C 0.85609 0.96154 0.36739 0.0
H892 H 0.85668 0.04084 0.07708 0.0
H893 H 0.85295 0.01408 0.14088 0.0
H894 H 0.83619 0.07144 0.08792 0.0
H895 H 0.83059 0.04377 0.15192 0.0
H896 H 0.78316 0.09292 0.16804 0.0
H897 H 0.81374 0.07183 0.16027 0.0
H898 H 0.80549 0.08586 0.09225 0.0
H899 H 0.77596 0.10961 0.10106 0.0
C900 C 0.85107 0.04151 0.09357 0.0
C901 C 0.85532 0.02464 0.10796 0.0
C902 C 0.83891 0.05909 0.0998 0.0
C903 C 0.82989 0.05999 0.12049 0.0
C904 C 0.83637 0.04405 0.13561 0.0
C905 C 0.84923 0.02665 0.1294 0.0
C906 C 0.7878 0.09146 0.15132 0.0
C907 C 0.77676 0.10252 0.13501 0.0
C908 C 0.80561 0.07898 0.14674 0.0
C909 C 0.81252 0.07606 0.12546 0.0
C910 C 0.80142 0.08749 0.10901 0.0
C911 C 0.784 0.10093 0.11384 0.0
H912 H 0.29823 0.62796 0.62584 0.0
H913 H 0.25247 0.5761 0.62759 0.0
H914 H 0.32722 0.60266 0.62126 0.0
H915 H 0.28051 0.55054 0.621 0.0
H916 H 0.33186 0.50277 0.62334 0.0
H917 H 0.30502 0.52949 0.63073 0.0
H918 H 0.3516 0.5795 0.61565 0.0
H919 H 0.37857 0.55218 0.61066 0.0
C920 C 0.29437 0.61105 0.62408 0.0
C921 C 0.27324 0.60387 0.62703 0.0
C922 C 0.31115 0.59618 0.62182 0.0
C923 C 0.30707 0.57374 0.62206 0.0
C924 C 0.28527 0.56715 0.6223 0.0
C925 C 0.26873 0.58196 0.62522 0.0
C926 C 0.33637 0.5196 0.62265 0.0
C927 C 0.35717 0.52551 0.61665 0.0
C928 C 0.32067 0.53524 0.62601 0.0
C929 C 0.32504 0.5573 0.62228 0.0
C930 C 0.34672 0.56307 0.61826 0.0
C931 C 0.3626 0.54733 0.61569 0.0
H932 H 0.23776 0.57266 0.3508 0.0
H933 H 0.20329 0.6266 0.37739 0.0
H934 H 0.2071 0.54957 0.35704 0.0
H935 H 0.17175 0.60398 0.38247 0.0
H936 H 0.12529 0.55101 0.40452 0.0
H937 H 0.15255 0.57776 0.39777 0.0
H938 H 0.17473 0.54071 0.34308 0.0
H939 H 0.14849 0.5127 0.3517 0.0
C940 C 0.22366 0.57941 0.3585 0.0
C941 C 0.22279 0.60136 0.36357 0.0
C942 C 0.20575 0.56633 0.36146 0.0
C943 C 0.18633 0.57496 0.36926 0.0
C944 C 0.18621 0.5966 0.37624 0.0
C945 C 0.20441 0.60963 0.37362 0.0
C946 C 0.13564 0.54899 0.39064 0.0
C947 C 0.13519 0.52978 0.37882 0.0
C948 C 0.1514 0.56437 0.38674 0.0
C949 C 0.16671 0.5611 0.37046 0.0
C950 C 0.16405 0.54325 0.35656 0.0
C951 C 0.14863 0.52743 0.36099 0.0
H952 H 0.32134 0.4866 0.89785 0.0
H953 H 0.37394 0.45583 0.86475 0.0
H954 H 0.29867 0.45583 0.89129 0.0
H955 H 0.35164 0.42412 0.85897 0.0
H956 H 0.29852 0.37855 0.8359 0.0
H957 H 0.32483 0.40601 0.84353 0.0
H958 H 0.2903 0.42228 0.90183 0.0
H959 H 0.26272 0.39574 0.89262 0.0
C960 C 0.32792 0.47327 0.88876 0.0
C961 C 0.3494 0.47361 0.8818 0.0
C962 C 0.31507 0.45524 0.88551 0.0
C963 C 0.32334 0.43682 0.87533 0.0
C964 C 0.34448 0.43781 0.86693 0.0
C965 C 0.35733 0.45613 0.86998 0.0
C966 C 0.29692 0.38772 0.85063 0.0
C967 C 0.2786 0.38536 0.86357 0.0
C968 C 0.3121 0.40355 0.8551 0.0
C969 C 0.30952 0.4172 0.87292 0.0
C970 C 0.29237 0.41291 0.88733 0.0
C971 C 0.27679 0.39734 0.88248 0.0
H972 H 0.60832 0.61759 0.94567 0.0
H973 H 0.62633 0.66359 0.99402 0.0
H974 H 0.61289 0.64424 0.91803 0.0
H975 H 0.6335 0.69 0.96677 0.0
H976 H 0.63085 0.74236 0.91993 0.0
H977 H 0.62412 0.71489 0.94602 0.0
H978 H 0.61897 0.66798 0.8944 0.0
H979 H 0.62381 0.69653 0.86863 0.0
C980 C 0.61445 0.63329 0.95013 0.0
C981 C 0.61714 0.63865 0.97181 0.0
C982 C 0.61682 0.64898 0.93421 0.0
C983 C 0.62243 0.67038 0.9396 0.0
C984 C 0.62763 0.67461 0.9614 0.0
C985 C 0.6244 0.65913 0.97729 0.0
C986 C 0.62734 0.72622 0.91434 0.0
C987 C 0.62771 0.7215 0.8924 0.0
C988 C 0.62428 0.70998 0.92942 0.0
C989 C 0.6224 0.68822 0.92305 0.0
C990 C 0.62078 0.68402 0.90068 0.0
C991 C 0.62321 0.70056 0.88556 0.0
H992 H 0.57586 0.336 0.22816 0.0
H993 H 0.61906 0.38779 0.21139 0.0
H994 H 0.55494 0.34251 0.19683 0.0
H995 H 0.5982 0.39422 0.1788 0.0
H996 H 0.5417 0.41426 0.13621 0.0
H997 H 0.56983 0.40597 0.16127 0.0
H998 H 0.54869 0.33944 0.16217 0.0
H999 H 0.51874 0.34886 0.1385 0.0
C1000 C 0.58086 0.34903 0.21772 0.0
C1001 C 0.59925 0.36138 0.22233 0.0
C1002 C 0.56902 0.35243 0.19917 0.0
C1003 C 0.57494 0.36846 0.18442 0.0
C1004 C 0.59284 0.38167 0.18957 0.0
C1005 C 0.60483 0.3782 0.20841 0.0
C1006 C 0.54314 0.39781 0.14183 0.0
C1007 C 0.52757 0.38237 0.13642 0.0
C1008 C 0.55959 0.39292 0.1561 0.0
C1009 C 0.56113 0.37223 0.16503 0.0
C1010 C 0.54725 0.35597 0.15695 0.0
C1011 C 0.53028 0.3611 0.14302 0.0
H1012 H 0.91733 0.35461 0.45289 0.0
H1013 H 0.85331 0.35173 0.47919 0.0
H1014 H 0.90642 0.33416 0.42229 0.0
H1015 H 0.84213 0.32941 0.4497 0.0
H1016 H 0.82494 0.28234 0.40114 0.0
H1017 H 0.83329 0.31291 0.42191 0.0
H1018 H 0.90084 0.30531 0.40519 0.0
H1019 H 0.89129 0.27558 0.38198 0.0
C1020 C 0.90077 0.34918 0.45208 0.0
C1021 C 0.88624 0.35389 0.46867 0.0
C1022 C 0.89445 0.33707 0.43447 0.0
C1023 C 0.87352 0.32855 0.43329 0.0
C1024 C 0.85852 0.33498 0.44937 0.0
C1025 C 0.8648 0.3478 0.46671 0.0
C1026 C 0.84169 0.28711 0.40202 0.0
C1027 C 0.85768 0.27602 0.39063 0.0
C1028 C 0.84664 0.3049 0.41435 0.0
C1029 C 0.86804 0.31175 0.41675 0.0
C1030 C 0.88406 0.30105 0.40437 0.0
C1031 C 0.87881 0.28358 0.39112 0.0
H1032 H 0.89383 0.6022 0.72933 0.0
H1033 H 0.88347 0.66302 0.69768 0.0
H1034 H 0.91923 0.59202 0.70102 0.0
H1035 H 0.90989 0.65416 0.6708 0.0
H1036 H 0.95846 0.63157 0.62128 0.0
H1037 H 0.92662 0.63849 0.64307 0.0
H1038 H 0.95407 0.60051 0.69464 0.0
H1039 H 0.98492 0.59292 0.67248 0.0
C1040 C 0.89671 0.61313 0.71608 0.0
C1041 C 0.8873 0.63352 0.71582 0.0
C1042 C 0.91159 0.60762 0.70008 0.0
C1043 C 0.91761 0.62272 0.68408 0.0
C1044 C 0.9061 0.64209 0.68274 0.0
C1045 C 0.89098 0.64729 0.69832 0.0
C1046 C 0.95779 0.62525 0.63749 0.0
C1047 C 0.974 0.61159 0.64513 0.0
C1048 C 0.93941 0.62898 0.65 0.0
C1049 C 0.93717 0.61938 0.67052 0.0
C1050 C 0.95444 0.60727 0.67863 0.0
C1051 C 0.97251 0.60337 0.6661 0.0
H1052 H 0.60223 0.3242 0.50901 0.0
H1053 H 0.63014 0.37631 0.54528 0.0
H1054 H 0.6089 0.29966 0.53828 0.0
H1055 H 0.63572 0.35214 0.57557 0.0
H1056 H 0.65702 0.29794 0.62035 0.0
H1057 H 0.65078 0.32522 0.59353 0.0
H1058 H 0.59592 0.28897 0.57014 0.0
H1059 H 0.60413 0.26044 0.59588 0.0
C1060 C 0.61021 0.33027 0.52327 0.0
C1061 C 0.61555 0.35213 0.52505 0.0
C1062 C 0.61349 0.31631 0.54038 0.0
C1063 C 0.62188 0.32391 0.55996 0.0
C1064 C 0.62906 0.3455 0.56096 0.0
C1065 C 0.6261 0.35945 0.54351 0.0
C1066 C 0.64327 0.2962 0.60977 0.0
C1067 C 0.63112 0.27722 0.60988 0.0
C1068 C 0.63964 0.31189 0.59428 0.0
C1069 C 0.62332 0.30915 0.57887 0.0
C1070 C 0.6094 0.29121 0.58091 0.0
C1071 C 0.61359 0.27508 0.59603 0.0
H1072 H 0.89823 0.39281 0.76296 0.0
H1073 H 0.88039 0.33562 0.79779 0.0
H1074 H 0.92309 0.40248 0.7918 0.0
H1075 H 0.90651 0.3432 0.82487 0.0
H1076 H 0.95789 0.3584 0.87279 0.0
H1077 H 0.92607 0.35486 0.85079 0.0
H1078 H 0.95599 0.39452 0.80168 0.0
H1079 H 0.98673 0.3991 0.82462 0.0
C1080 C 0.89942 0.38259 0.77701 0.0
C1081 C 0.88803 0.36327 0.77809 0.0
C1082 C 0.91411 0.38767 0.79333 0.0
C1083 C 0.91819 0.37295 0.81031 0.0
C1084 C 0.90455 0.35501 0.81232 0.0
C1085 C 0.88945 0.35049 0.79657 0.0
C1086 C 0.95778 0.36568 0.85697 0.0
C1087 C 0.9747 0.37888 0.85039 0.0
C1088 C 0.93933 0.36394 0.84423 0.0
C1089 C 0.93773 0.37486 0.82429 0.0
C1090 C 0.9557 0.38666 0.81716 0.0
C1091 C 0.97382 0.38871 0.83006 0.0
H1092 H 0.8538 0.74073 0.06986 0.0
H1093 H 0.88102 0.70631 0.12354 0.0
H1094 H 0.85961 0.70992 0.04679 0.0
H1095 H 0.88587 0.67478 0.10089 0.0
H1096 H 0.90646 0.62741 0.04867 0.0
H1097 H 0.90147 0.65623 0.07404 0.0
H1098 H 0.84518 0.67714 0.0387 0.0
H1099 H 0.85207 0.64931 0.01172 0.0
C1100 C 0.86165 0.72666 0.07653 0.0
C1101 C 0.86697 0.72583 0.09843 0.0
C1102 C 0.86437 0.7087 0.06347 0.0
C1103 C 0.87233 0.68933 0.07202 0.0
C1104 C 0.87958 0.68924 0.09358 0.0
C1105 C 0.87711 0.70745 0.10661 0.0
C1106 C 0.89254 0.63775 0.04676 0.0
C1107 C 0.87956 0.63614 0.02833 0.0
C1108 C 0.88971 0.65445 0.06135 0.0
C1109 C 0.87325 0.66959 0.05832 0.0
C1110 C 0.85861 0.66636 0.04115 0.0
C1111 C 0.86201 0.65 0.02599 0.0
H1112 H 0.54842 0.61227 0.37582 0.0
H1113 H 0.50107 0.63437 0.33054 0.0
H1114 H 0.57584 0.61394 0.34868 0.0
H1115 H 0.52875 0.63906 0.30361 0.0
H1116 H 0.57361 0.62868 0.25041 0.0
H1117 H 0.54759 0.62418 0.2788 0.0
H1118 H 0.59981 0.62123 0.32511 0.0
H1119 H 0.62534 0.62332 0.29603 0.0
C1120 C 0.54425 0.61893 0.36026 0.0
C1121 C 0.52273 0.62334 0.35526 0.0
C1122 C 0.56005 0.61963 0.34431 0.0
C1123 C 0.55485 0.62561 0.32301 0.0
C1124 C 0.53361 0.63291 0.31909 0.0
C1125 C 0.51765 0.6312 0.33484 0.0
C1126 C 0.57932 0.62592 0.26663 0.0
C1127 C 0.60138 0.62615 0.27108 0.0
C1128 C 0.56436 0.6242 0.28326 0.0
C1129 C 0.57104 0.62371 0.30499 0.0
C1130 C 0.5934 0.62184 0.30902 0.0
C1131 C 0.60834 0.62274 0.29219 0.0
H1132 H 0.69905 0.86997 0.6236 0.0
H1133 H 0.74386 0.92269 0.62521 0.0
H1134 H 0.66938 0.89491 0.62063 0.0
H1135 H 0.71488 0.9479 0.61979 0.0
H1136 H 0.66334 0.99401 0.62941 0.0
H1137 H 0.69014 0.96649 0.63546 0.0
H1138 H 0.64547 0.91849 0.61141 0.0
H1139 H 0.61829 0.94602 0.60808 0.0
C1140 C 0.70258 0.88696 0.62193 0.0
C1141 C 0.72367 0.89447 0.62456 0.0
C1142 C 0.68543 0.90153 0.62057 0.0
C1143 C 0.68912 0.92399 0.62118 0.0
C1144 C 0.71074 0.93106 0.62082 0.0
C1145 C 0.7277 0.91653 0.62299 0.0
C1146 C 0.65908 0.97734 0.62662 0.0
C1147 C 0.63882 0.97202 0.61855 0.0
C1148 C 0.67475 0.96145 0.62919 0.0
C1149 C 0.67092 0.94 0.62254 0.0
C1150 C 0.6497 0.93454 0.61648 0.0
C1151 C 0.63379 0.95037 0.61478 0.0
H1152 H 0.2142 0.36705 0.22302 0.0
H1153 H 0.24386 0.30683 0.20646 0.0
H1154 H 0.1922 0.34941 0.24943 0.0
H1155 H 0.22344 0.28873 0.23399 0.0
H1156 H 0.18041 0.25386 0.27542 0.0
H1157 H 0.19524 0.27262 0.24486 0.0
H1158 H 0.17387 0.33306 0.2726 0.0
H1159 H 0.15749 0.31364 0.30144 0.0
C1160 C 0.2163 0.34995 0.22566 0.0
C1161 C 0.22996 0.33803 0.21248 0.0
C1162 C 0.20345 0.33949 0.24079 0.0
C1163 C 0.20418 0.31683 0.24309 0.0
C1164 C 0.22048 0.30568 0.23175 0.0
C1165 C 0.23288 0.31612 0.21628 0.0
C1166 C 0.17791 0.27106 0.27409 0.0
C1167 C 0.16871 0.2825 0.29108 0.0
C1168 C 0.18741 0.28215 0.25704 0.0
C1169 C 0.18847 0.3049 0.25721 0.0
C1170 C 0.17515 0.31579 0.27207 0.0
C1171 C 0.16501 0.30455 0.28861 0.0
H1172 H 0.9197 0.00267 0.47946 0.0
H1173 H 0.89695 0.94683 0.45048 0.0
H1174 H 0.93761 0.98485 0.50745 0.0
H1175 H 0.91584 0.92591 0.47722 0.0
H1176 H 0.94286 0.895 0.53872 0.0
H1177 H 0.92326 0.91203 0.50956 0.0
H1178 H 0.96853 0.96502 0.51045 0.0
H1179 H 0.98797 0.94757 0.53923 0.0
C1180 C 0.91828 0.98828 0.47931 0.0
C1181 C 0.90756 0.97766 0.46263 0.0
C1182 C 0.92894 0.97627 0.49503 0.0
C1183 C 0.9292 0.95353 0.49406 0.0
C1184 C 0.91643 0.94324 0.47851 0.0
C1185 C 0.90569 0.95522 0.46299 0.0
C1186 C 0.94933 0.90955 0.53163 0.0
C1187 C 0.96653 0.92024 0.54145 0.0
C1188 C 0.93778 0.91974 0.51522 0.0
C1189 C 0.94344 0.94069 0.50847 0.0
C1190 C 0.96286 0.94953 0.51601 0.0
C1191 C 0.97463 0.93905 0.5319 0.0
H1192 H 0.29313 0.73572 0.78529 0.0
H1193 H 0.34275 0.68888 0.7974 0.0
H1194 H 0.28011 0.71456 0.75529 0.0
H1195 H 0.32974 0.66734 0.76716 0.0
H1196 H 0.30037 0.64023 0.7032 0.0
H1197 H 0.31992 0.66004 0.73077 0.0
H1198 H 0.25949 0.68178 0.75745 0.0
H1199 H 0.24004 0.66193 0.72969 0.0
C1200 C 0.30203 0.72147 0.7807 0.0
C1201 C 0.31859 0.71365 0.79382 0.0
C1202 C 0.29416 0.70897 0.76393 0.0
C1203 C 0.30302 0.68861 0.75978 0.0
C1204 C 0.32214 0.68266 0.7704 0.0
C1205 C 0.32991 0.69519 0.78746 0.0
C1206 C 0.29133 0.64893 0.71528 0.0
C1207 C 0.26885 0.65037 0.71393 0.0
C1208 C 0.30251 0.66027 0.73105 0.0
C1209 C 0.29132 0.67339 0.74557 0.0
C1210 C 0.26861 0.67267 0.74575 0.0
C1211 C 0.25742 0.66111 0.73007 0.0
H1212 H 0.56046 0.99679 0.96597 0.0
H1213 H 0.61719 0.03299 0.9737 0.0
H1214 H 0.54166 0.01554 0.99201 0.0
H1215 H 0.59817 0.05619 0.99821 0.0
H1216 H 0.56084 0.09003 0.04729 0.0
H1217 H 0.58174 0.07159 0.02067 0.0
H1218 H 0.52308 0.04474 0.99746 0.0
H1219 H 0.5029 0.06147 0.02266 0.0
C1220 C 0.56912 0.0069 0.9737 0.0
C1221 C 0.59028 0.01186 0.96794 0.0
C1222 C 0.55801 0.02001 0.98817 0.0
C1223 C 0.56757 0.03892 0.99651 0.0
C1224 C 0.58963 0.04235 0.99218 0.0
C1225 C 0.60082 0.0289 0.97811 0.0
C1226 C 0.55238 0.08098 0.03503 0.0
C1227 C 0.5305 0.07625 0.03762 0.0
C1228 C 0.56451 0.06975 0.01981 0.0
C1229 C 0.55461 0.05469 0.00596 0.0
C1230 C 0.53186 0.05431 0.00549 0.0
C1231 C 0.51993 0.06491 0.0213 0.0
H1232 H 0.14463 0.69079 0.20268 0.0
H1233 H 0.19667 0.73648 0.20413 0.0
H1234 H 0.16072 0.6714 0.23241 0.0
H1235 H 0.21321 0.71732 0.23361 0.0
H1236 H 0.25356 0.66789 0.26527 0.0
H1237 H 0.23352 0.6872 0.23755 0.0
H1238 H 0.17389 0.66275 0.26427 0.0
H1239 H 0.19412 0.64261 0.29051 0.0
C1240 C 0.15884 0.6974 0.2103 0.0
C1241 C 0.16978 0.71463 0.20088 0.0
C1242 C 0.16851 0.68601 0.22712 0.0
C1243 C 0.18918 0.69186 0.23461 0.0
C1244 C 0.19803 0.71142 0.22746 0.0
C1245 C 0.18806 0.72301 0.21114 0.0
C1246 C 0.23622 0.66628 0.26463 0.0
C1247 C 0.22521 0.65424 0.28014 0.0
C1248 C 0.22461 0.67771 0.2491 0.0
C1249 C 0.20182 0.67747 0.24913 0.0
C1250 C 0.19124 0.66369 0.26359 0.0
C1251 C 0.20283 0.65215 0.27881 0.0
H1252 H 0.5773 0.00198 0.51906 0.0
H1253 H 0.60515 0.94556 0.54129 0.0
H1254 H 0.55768 0.98532 0.4911 0.0
H1255 H 0.58543 0.92568 0.51395 0.0
H1256 H 0.55559 0.90217 0.44905 0.0
H1257 H 0.57694 0.91611 0.47876 0.0
H1258 H 0.52699 0.96259 0.49237 0.0
H1259 H 0.50612 0.94874 0.46244 0.0
C1260 C 0.5794 0.98776 0.5176 0.0
C1261 C 0.592 0.97651 0.53247 0.0
C1262 C 0.56804 0.97642 0.5019 0.0
C1263 C 0.56915 0.95375 0.50104 0.0
C1264 C 0.58382 0.94301 0.51442 0.0
C1265 C 0.59508 0.95434 0.5301 0.0
C1266 C 0.54868 0.91444 0.45929 0.0
C1267 C 0.52965 0.92492 0.45323 0.0
C1268 C 0.56111 0.92281 0.47605 0.0
C1269 C 0.55428 0.94144 0.48697 0.0
C1270 C 0.53328 0.94905 0.48341 0.0
C1271 C 0.52092 0.94062 0.46678 0.0
H1272 H 0.3389 0.31089 0.69317 0.0
H1273 H 0.31236 0.25316 0.72058 0.0
H1274 H 0.32138 0.33226 0.72044 0.0
H1275 H 0.29643 0.27407 0.74947 0.0
H1276 H 0.24366 0.31186 0.7775 0.0
H1277 H 0.26562 0.29344 0.75096 0.0
H1278 H 0.31003 0.34722 0.75095 0.0
H1279 H 0.28704 0.36584 0.77643 0.0
C1280 C 0.33063 0.3026 0.70607 0.0
C1281 C 0.32622 0.28052 0.70429 0.0
C1282 C 0.32008 0.31497 0.72162 0.0
C1283 C 0.30596 0.30514 0.73641 0.0
C1284 C 0.30574 0.28246 0.7374 0.0
C1285 C 0.31569 0.27025 0.72137 0.0
C1286 C 0.25767 0.31995 0.7711 0.0
C1287 C 0.26386 0.34009 0.77895 0.0
C1288 C 0.27071 0.30918 0.75633 0.0
C1289 C 0.2905 0.31815 0.74959 0.0
C1290 C 0.29529 0.33942 0.75587 0.0
C1291 C 0.28204 0.35026 0.77042 0.0
H1292 H 0.93732 0.02359 0.05154 0.0
H1293 H 0.88507 0.0107 0.00798 0.0
H1294 H 0.95474 0.04529 0.02522 0.0
H1295 H 0.90274 0.03162 0.98379 0.0
H1296 H 0.93166 0.07269 0.93613 0.0
H1297 H 0.91177 0.06006 0.9668 0.0
H1298 H 0.97083 0.06157 0.00081 0.0
H1299 H 0.98986 0.07445 0.97339 0.0
C1300 C 0.92967 0.02554 0.036 0.0
C1301 C 0.90954 0.0165 0.03193 0.0
C1302 C 0.9397 0.0381 0.02054 0.0
C1303 C 0.92981 0.04201 0.00048 0.0
C1304 C 0.91049 0.03073 -0.00415 0.0
C1305 C 0.9004 0.01822 0.01152 0.0
C1306 C 0.93996 0.07123 0.95137 0.0
C1307 C 0.96235 0.07352 0.9524 0.0
C1308 C 0.92875 0.063 0.9689 0.0
C1309 C 0.93987 0.05702 0.98776 0.0
C1310 C 0.96143 0.06418 0.98992 0.0
C1311 C 0.97262 0.07223 0.97224 0.0
H1312 H 0.27891 0.14211 0.2929 0.0
H1313 H 0.30949 0.20353 0.2833 0.0
H1314 H 0.24664 0.16032 0.30566 0.0
H1315 H 0.27953 0.22165 0.29823 0.0
H1316 H 0.22291 0.25412 0.32712 0.0
H1317 H 0.25065 0.23686 0.30677 0.0
H1318 H 0.23028 0.175 0.33242 0.0
H1319 H 0.20053 0.1927 0.34997 0.0
C1320 C 0.27849 0.15952 0.29325 0.0
C1321 C 0.29655 0.1715 0.28733 0.0
C1322 C 0.26026 0.17014 0.30122 0.0
C1323 C 0.26034 0.19277 0.30445 0.0
C1324 C 0.27804 0.20447 0.2965 0.0
C1325 C 0.29558 0.19399 0.28772 0.0
C1326 C 0.22445 0.23683 0.3282 0.0
C1327 C 0.20941 0.22463 0.33956 0.0
C1328 C 0.24067 0.22663 0.31659 0.0
C1329 C 0.24298 0.20395 0.31703 0.0
C1330 C 0.22877 0.19215 0.33025 0.0
C1331 C 0.21186 0.20232 0.34087 0.0
H1332 H 0.99819 0.98379 0.59906 0.0
H1333 H 0.04149 0.94092 0.57011 0.0
H1334 H 0.01199 0.01089 0.5811 0.0
H1335 H 0.05683 0.97053 0.55002 0.0
H1336 H 0.09422 0.02959 0.53343 0.0
H1337 H 0.07732 -0.00356 0.5461 0.0
H1338 H 0.01673 0.03044 0.55263 0.0
H1339 H 0.03404 0.06304 0.54181 0.0
C1340 C 0.00879 0.98084 0.58846 0.0
C1341 C 0.01713 0.96014 0.58599 0.0
C1342 C 0.01816 0.99808 0.57767 0.0
C1343 C 0.03561 0.99497 0.56337 0.0
C1344 C 0.04375 0.97398 0.56092 0.0
C1345 C 0.03482 0.95685 0.57235 0.0
C1346 C 0.0773 0.02966 0.53756 0.0
C1347 C 0.0657 0.04893 0.53772 0.0
C1348 C 0.06741 0.01065 0.54479 0.0
C1349 C 0.04572 0.01074 0.55189 0.0
C1350 C 0.03374 0.0297 0.54916 0.0
C1351 C 0.04364 0.0485 0.54251 0.0
H1352 H 0.21371 0.81499 0.75564 0.0
H1353 H 0.19245 0.83823 0.81718 0.0
H1354 H 0.24371 0.79728 0.77233 0.0
H1355 H 0.22383 0.82231 0.83426 0.0
H1356 H 0.26039 0.76838 0.86483 0.0
H1357 H 0.23259 0.78869 0.84571 0.0
H1358 H 0.27357 0.79033 0.78928 0.0
H1359 H 0.29989 0.76908 0.80793 0.0
C1360 C 0.21648 0.8177 0.77262 0.0
C1361 C 0.20051 0.82718 0.78527 0.0
C1362 C 0.23361 0.80711 0.78246 0.0
C1363 C 0.23568 0.80707 0.80507 0.0
C1364 C 0.22204 0.82065 0.81704 0.0
C1365 C 0.20452 0.83065 0.80716 0.0
C1366 C 0.26288 0.77265 0.84813 0.0
C1367 C 0.28225 0.76767 0.83782 0.0
C1368 C 0.24727 0.78474 0.83725 0.0
C1369 C 0.25104 0.79218 0.81606 0.0
C1370 C 0.26978 0.78526 0.80545 0.0
C1371 C 0.28507 0.77307 0.81619 0.0
H1372 H 0.45113 0.05446 0.06899 0.0
H1373 H 0.49861 0.01152 0.09586 0.0
H1374 H 0.43475 0.02492 0.04982 0.0
H1375 H 0.48089 0.98436 0.07855 0.0
H1376 H 0.45775 0.93351 0.03761 0.0
H1377 H 0.47527 0.96604 0.04873 0.0
H1378 H 0.41366 0.99875 0.04875 0.0
H1379 H 0.39646 0.96593 0.03557 0.0
C1380 C 0.45789 0.03854 0.07099 0.0
C1381 C 0.47626 0.03523 0.08372 0.0
C1382 C 0.44833 0.02146 0.06011 0.0
C1383 C 0.45653 0.0005 0.06218 0.0
C1384 C 0.47464 -0.00275 0.07561 0.0
C1385 C 0.4846 0.01448 0.08594 0.0
C1386 C 0.44803 0.94786 0.03952 0.0
C1387 C 0.42572 0.94723 0.03616 0.0
C1388 C 0.45804 0.9665 0.04639 0.0
C1389 C 0.44591 0.98498 0.05093 0.0
C1390 C 0.4237 0.98489 0.04573 0.0
C1391 C 0.41368 0.9661 0.03821 0.0
H1392 H 0.31406 0.80992 0.17165 0.0
H1393 H 0.28025 0.82904 0.22911 0.0
H1394 H 0.28129 0.79568 0.15656 0.0
H1395 H 0.24668 0.81509 0.21365 0.0
H1396 H 0.18911 0.79523 0.17041 0.0
H1397 H 0.21926 0.81412 0.18644 0.0
H1398 H 0.26198 0.76348 0.16526 0.0
H1399 H 0.23175 0.74497 0.14835 0.0
C1400 C 0.29928 0.81199 0.18063 0.0
C1401 C 0.29966 0.82005 0.20174 0.0
C1402 C 0.28061 0.80329 0.17221 0.0
C1403 C 0.26169 0.8032 0.18441 0.0
C1404 C 0.26123 0.81446 0.20412 0.0
C1405 C 0.28028 0.82283 0.21285 0.0
C1406 C 0.20496 0.78813 0.16915 0.0
C1407 C 0.20829 0.76895 0.15765 0.0
C1408 C 0.22218 0.79889 0.17854 0.0
C1409 C 0.24304 0.79062 0.17667 0.0
C1410 C 0.24614 0.77064 0.16633 0.0
C1411 C 0.22889 0.75995 0.15675 0.0
H1412 H 0.45025 0.96383 0.38057 0.0
H1413 H 0.50366 0.97445 0.42345 0.0
H1414 H 0.42884 0.98995 0.40034 0.0
H1415 H 0.48283 -0.00184 0.44309 0.0
H1416 H 0.43936 0.02636 0.48898 0.0
H1417 H 0.45367 -0.00328 0.46789 0.0
H1418 H 0.42169 0.02188 0.41149 0.0
H1419 H 0.40692 0.05094 0.43296 0.0
C1420 C 0.45759 0.97242 0.39383 0.0
C1421 C 0.47839 0.96717 0.40068 0.0
C1422 C 0.44532 0.98728 0.40526 0.0
C1423 C 0.45365 0.99699 0.42388 0.0
C1424 C 0.47536 0.99323 0.4294 0.0
C1425 C 0.48764 0.97835 0.41789 0.0
C1426 C 0.43439 0.02479 0.47239 0.0
C1427 C 0.42274 0.04125 0.46233 0.0
C1428 C 0.44311 0.00818 0.46011 0.0
C1429 C 0.44004 0.00779 0.4377 0.0
C1430 C 0.4249 0.02196 0.42858 0.0
C1431 C 0.41603 0.03843 0.44099 0.0
H1432 H 0.1883 0.20617 0.71716 0.0
H1433 H 0.21531 0.14351 0.70608 0.0
H1434 H 0.21868 0.22301 0.70151 0.0
H1435 H 0.24664 0.15986 0.69004 0.0
H1436 H 0.2992 0.1924 0.65314 0.0
H1437 H 0.27104 0.17477 0.67235 0.0
H1438 H 0.23682 0.23573 0.67641 0.0
H1439 H 0.26586 0.25293 0.65792 0.0
C1440 C 0.2014 0.19605 0.7119 0.0
C1441 C 0.1994 0.17365 0.71245 0.0
C1442 C 0.21879 0.2057 0.70193 0.0
C1443 C 0.23497 0.19318 0.69217 0.0
C1444 C 0.23437 0.17059 0.69585 0.0
C1445 C 0.21652 0.16089 0.70562 0.0
C1446 C 0.28559 0.2019 0.65844 0.0
C1447 C 0.28504 0.22411 0.65493 0.0
C1448 C 0.26914 0.19177 0.6697 0.0
C1449 C 0.25164 0.20364 0.67798 0.0
C1450 C 0.25032 0.22573 0.67226 0.0
C1451 C 0.2669 0.23582 0.66104 0.0
H1452 H 0.09526 0.95303 0.94298 0.0
H1453 H 0.04757 0.9664 0.99134 0.0
H1454 H 0.07983 0.98077 0.92 0.0
H1455 H 0.0319 0.99399 0.96854 0.0
H1456 H 0.99269 0.01382 0.91574 0.0
H1457 H 0.00989 0.99016 0.93641 0.0
H1458 H 0.06954 0.01335 0.91151 0.0
H1459 H 0.04921 0.03985 0.89115 0.0
C1460 C 0.08239 0.96293 0.9493 0.0
C1461 C 0.07212 0.95719 0.96855 0.0
C1462 C 0.0731 0.97841 0.93586 0.0
C1463 C 0.05379 0.9886 0.94191 0.0
C1464 C 0.04609 0.9856 0.96295 0.0
C1465 C 0.05561 0.97041 0.9764 0.0
C1466 C 0.00713 0.01354 0.91443 0.0
C1467 C 0.0181 0.0293 0.90261 0.0
C1468 C 0.0188 -0.00152 0.92641 0.0
C1469 C 0.04152 -0.00115 0.92639 0.0
C1470 C 0.05215 0.01288 0.91227 0.0
C1471 C 0.04052 0.02806 0.9006 0.0
H1472 H 0.25562 0.27907 0.17883 0.0
H1473 H 0.31743 0.30069 0.1566 0.0
H1474 H 0.272 0.24742 0.19426 0.0
H1475 H 0.33452 0.27049 0.1733 0.0
H1476 H 0.36441 0.21989 0.21578 0.0
H1477 H 0.3486 0.2451 0.19103 0.0
H1478 H 0.28707 0.23705 0.22332 0.0
H1479 H 0.30295 0.21001 0.24589 0.0
C1480 C 0.27272 0.27654 0.17659 0.0
C1481 C 0.28549 0.29265 0.16749 0.0
C1482 C 0.28245 0.25881 0.18637 0.0
C1483 C 0.30515 0.25729 0.1876 0.0
C1484 C 0.31723 0.27122 0.17429 0.0
C1485 C 0.30736 0.28858 0.16407 0.0
C1486 C 0.34758 0.22405 0.21766 0.0
C1487 C 0.33489 0.21336 0.23281 0.0
C1488 C 0.33821 0.23849 0.20322 0.0
C1489 C 0.31586 0.24282 0.20386 0.0
C1490 C 0.30386 0.23351 0.22082 0.0
C1491 C 0.31314 0.21851 0.23465 0.0
H1492 H 0.75711 0.21669 0.82288 0.0
H1493 H 0.81908 0.18685 0.83006 0.0
H1494 H 0.7736 0.24788 0.80731 0.0
H1495 H 0.83642 0.2185 0.81558 0.0
H1496 H 0.86202 0.25927 0.76303 0.0
H1497 H 0.84417 0.23134 0.78378 0.0
H1498 H 0.79015 0.27451 0.79398 0.0
H1499 H 0.80743 0.30095 0.77199 0.0
C1500 C 0.77451 0.21749 0.82231 0.0
C1501 C 0.78678 0.19918 0.8265 0.0
C1502 C 0.78424 0.23535 0.81281 0.0
C1503 C 0.80648 0.23515 0.80789 0.0
C1504 C 0.8191 0.21863 0.81699 0.0
C1505 C 0.80926 0.20075 0.82627 0.0
C1506 C 0.84612 0.26231 0.76949 0.0
C1507 C 0.83634 0.28236 0.76687 0.0
C1508 C 0.836 0.24656 0.78195 0.0
C1509 C 0.81613 0.25085 0.7923 0.0
C1510 C 0.80554 0.27026 0.78724 0.0
C1511 C 0.81551 0.28572 0.77459 0.0
H1512 H 0.97421 0.6157 0.02933 0.0
H1513 H 0.95414 0.55431 0.0046 0.0
H1514 H -0.00091 0.59877 0.05007 0.0
H1515 H 0.98318 0.53682 0.02342 0.0
H1516 H 0.02719 0.504 0.06316 0.0
H1517 H 0.9983 0.52178 0.04998 0.0
H1518 H 0.02406 0.58338 0.06655 0.0
H1519 H 0.05449 0.56494 0.08109 0.0
C1520 C 0.97626 0.59844 0.02811 0.0
C1521 C 0.96191 0.58614 0.01608 0.0
C1522 C 0.99229 0.5884 0.04018 0.0
C1523 C 0.99455 0.56572 0.04017 0.0
C1524 C 0.9814 0.55391 0.02577 0.0
C1525 C 0.9649 0.56395 0.01436 0.0
C1526 C 0.02589 0.52128 0.06497 0.0
C1527 C 0.04336 0.53322 0.07248 0.0
C1528 C 0.00801 0.5318 0.0564 0.0
C1529 C 0.00764 0.55451 0.05461 0.0
C1530 C 0.02361 0.56608 0.066 0.0
C1531 C 0.04115 0.55545 0.07508 0.0
H1532 H 0.64226 0.73307 0.24836 0.0
H1533 H 0.68287 0.68918 0.2836 0.0
H1534 H 0.65869 0.76331 0.26735 0.0
H1535 H 0.69838 0.71889 0.3034 0.0
H1536 H 0.73208 0.78235 0.32362 0.0
H1537 H 0.71862 0.7492 0.30771 0.0
H1538 H 0.65545 0.77787 0.30178 0.0
H1539 H 0.66925 0.81091 0.31721 0.0
C1540 C 0.65475 0.72996 0.26009 0.0
C1541 C 0.66065 0.70887 0.26531 0.0
C1542 C 0.66397 0.74719 0.27124 0.0
C1543 C 0.67906 0.74348 0.28784 0.0
C1544 C 0.68654 0.72245 0.29117 0.0
C1545 C 0.67747 0.70534 0.27994 0.0
C1546 C 0.7151 0.78107 0.31995 0.0
C1547 C 0.70187 0.79925 0.32082 0.0
C1548 C 0.70738 0.76218 0.31042 0.0
C1549 C 0.68626 0.76136 0.30206 0.0
C1550 C 0.67215 0.77839 0.30671 0.0
C1551 C 0.67985 0.7971 0.31622 0.0
H1552 H 0.00613 0.88672 0.00519 0.0
H1553 H 0.05053 0.93738 0.02158 0.0
H1554 H 0.98128 0.90417 0.02683 0.0
H1555 H 0.02442 0.95355 0.04476 0.0
H1556 H 0.96873 0.98947 0.06911 0.0
H1557 H -0.00329 0.97226 0.05357 0.0
H1558 H 0.96799 0.91032 0.05961 0.0
H1559 H 0.93662 0.92837 0.07411 0.0
C1560 C 0.00976 0.90173 0.01326 0.0
C1561 C 0.03036 0.91066 0.01207 0.0
C1562 C 0.99704 0.91149 0.02624 0.0
C1563 C -0.00089 0.93003 0.03858 0.0
C1564 C 0.01949 0.93949 0.03585 0.0
C1565 C 0.0347 0.93011 0.02253 0.0
C1566 C 0.96898 0.97206 0.06823 0.0
C1567 C 0.95025 0.9603 0.0721 0.0
C1568 C 0.98668 0.96197 0.05885 0.0
C1569 C 0.98597 0.93981 0.05368 0.0
C1570 C 0.96869 0.92757 0.06177 0.0
C1571 C 0.95097 0.93778 0.07097 0.0
H1572 H 0.17997 0.68527 0.67111 0.0
H1573 H 0.23829 0.72243 0.66965 0.0
H1574 H 0.16027 0.71574 0.68436 0.0
H1575 H 0.21922 0.75334 0.68228 0.0
H1576 H 0.18815 0.80261 0.72368 0.0
H1577 H 0.20476 0.77641 0.70139 0.0
H1578 H 0.14971 0.73411 0.71102 0.0
H1579 H 0.13321 0.76154 0.73301 0.0
C1580 C 0.18834 0.70049 0.67277 0.0
C1581 C 0.21074 0.70144 0.67036 0.0
C1582 C 0.1772 0.71795 0.6813 0.0
C1583 C 0.18835 0.7368 0.68737 0.0
C1584 C 0.20987 0.73895 0.68005 0.0
C1585 C 0.22105 0.72127 0.67193 0.0
C1586 C 0.17978 0.78756 0.72091 0.0
C1587 C 0.15932 0.78415 0.72944 0.0
C1588 C 0.18924 0.77222 0.70778 0.0
C1589 C 0.17841 0.75293 0.70256 0.0
C1590 C 0.15846 0.74894 0.713 0.0
C1591 C 0.149 0.76447 0.72624 0.0
H1592 H 0.98805 0.38725 0.48887 0.0
H1593 H 0.94217 0.43366 0.46532 0.0
H1594 H 0.01342 0.40479 0.46803 0.0
H1595 H 0.96936 0.45 0.44315 0.0
H1596 H 0.02665 0.48748 0.42319 0.0
H1597 H 0.99785 0.47025 0.43763 0.0
H1598 H 0.02722 0.40851 0.43454 0.0
H1599 H 0.0592 0.42641 0.42125 0.0
C1600 C 0.98413 0.40124 0.47924 0.0
C1601 C 0.96301 0.40883 0.47811 0.0
C1602 C -0.00277 0.41105 0.46686 0.0
C1603 C 0.9951 0.42839 0.45297 0.0
C1604 C 0.97411 0.43674 0.45332 0.0
C1605 C 0.95835 0.42721 0.46594 0.0
C1606 C 0.02641 0.4701 0.42451 0.0
C1607 C 0.04527 0.45827 0.42161 0.0
C1608 C 0.00829 0.46007 0.43314 0.0
C1609 C 0.00886 0.43802 0.43866 0.0
C1610 C 0.02658 0.4257 0.43188 0.0
C1611 C 0.04469 0.4358 0.42346 0.0
H1612 H 0.4492 0.55705 0.90093 0.0
H1613 H 0.46431 0.5054 0.94446 0.0
H1614 H 0.47697 0.57919 0.91734 0.0
H1615 H 0.49218 0.52723 0.96099 0.0
H1616 H 0.51721 0.57605 0.0031 0.0
H1617 H 0.49006 0.55643 0.98574 0.0
H1618 H 0.51126 0.5889 0.92795 0.0
H1619 H 0.53743 0.60884 0.94887 0.0
C1620 C 0.45948 0.5499 0.91304 0.0
C1621 C 0.45417 0.52983 0.92195 0.0
C1622 C 0.47507 0.56282 0.92294 0.0
C1623 C 0.48585 0.5555 0.9415 0.0
C1624 C 0.48331 0.53385 0.94756 0.0
C1625 C 0.46793 0.52096 0.93748 0.0
C1626 C 0.51534 0.57954 0.98956 0.0
C1627 C 0.52949 0.59361 0.9791 0.0
C1628 C 0.50019 0.56796 0.97751 0.0
C1629 C 0.49914 0.57033 0.95491 0.0
C1630 C 0.51172 0.58634 0.94514 0.0
C1631 C 0.52673 0.59784 0.95714 0.0
H1632 H 0.70924 0.78067 0.80667 0.0
H1633 H 0.6452 0.78999 0.78186 0.0
H1634 H 0.72453 0.79492 0.77414 0.0
H1635 H 0.66017 0.80559 0.74928 0.0
H1636 H 0.69269 0.83425 0.69115 0.0
H1637 H 0.67684 0.81274 0.71925 0.0
H1638 H 0.73198 0.82624 0.75989 0.0
H1639 H 0.7484 0.84603 0.73082 0.0
C1640 C 0.69845 0.78545 0.79383 0.0
C1641 C 0.6761 0.78484 0.79679 0.0
C1642 C 0.7072 0.79426 0.77532 0.0
C1643 C 0.69377 0.80305 0.75938 0.0
C1644 C 0.67129 0.79963 0.76121 0.0
C1645 C 0.6625 0.79055 0.77987 0.0
C1646 C 0.70141 0.83241 0.70612 0.0
C1647 C 0.722 0.84125 0.70861 0.0
C1648 C 0.69222 0.82015 0.72247 0.0
C1649 C 0.70321 0.81678 0.74197 0.0
C1650 C 0.7233 0.82714 0.74487 0.0
C1651 C 0.73267 0.83901 0.7283 0.0
H1652 H 0.44329 0.39545 0.03516 0.0
H1653 H 0.48326 0.45177 0.04014 0.0
H1654 H 0.42383 0.41169 0.00576 0.0
H1655 H 0.46425 0.46841 0.01075 0.0
H1656 H 0.4149 0.50608 0.97949 0.0
H1657 H 0.43444 0.48658 0.00395 0.0
H1658 H 0.41278 0.42633 0.97971 0.0
H1659 H 0.39215 0.44592 0.95367 0.0
C1660 C 0.44871 0.41083 0.02901 0.0
C1661 C 0.46434 0.42258 0.04008 0.0
C1662 C 0.43722 0.42059 0.01232 0.0
C1663 C 0.44125 0.44227 0.00655 0.0
C1664 C 0.45945 0.45239 0.01549 0.0
C1665 C 0.4711 0.44244 0.03179 0.0
C1666 C 0.41395 0.4887 0.98001 0.0
C1667 C 0.40254 0.47735 0.9643 0.0
C1668 C 0.4256 0.47741 0.99563 0.0
C1669 C 0.42639 0.4546 0.99541 0.0
C1670 C 0.41312 0.44366 0.9807 0.0
C1671 C 0.40125 0.45492 0.96549 0.0
H1672 H 0.84849 0.18933 0.29153 0.0
H1673 H 0.80259 0.23979 0.27972 0.0
H1674 H 0.83198 0.16755 0.26354 0.0
H1675 H 0.78603 0.21843 0.25163 0.0
H1676 H 0.74192 0.17137 0.22503 0.0
H1677 H 0.76262 0.18837 0.2538 0.0
H1678 H 0.82073 0.15905 0.22909 0.0
H1679 H 0.79982 0.14162 0.20108 0.0
C1680 C 0.83578 0.19635 0.28189 0.0
C1681 C 0.82615 0.21574 0.28824 0.0
C1682 C 0.82586 0.18361 0.26626 0.0
C1683 C 0.80671 0.19066 0.25643 0.0
C1684 C 0.79994 0.21197 0.25987 0.0
C1685 C 0.81003 0.22466 0.27529 0.0
C1686 C 0.75899 0.16812 0.22631 0.0
C1687 C 0.76963 0.15603 0.2106 0.0
C1688 C 0.77092 0.17806 0.24249 0.0
C1689 C 0.79354 0.17607 0.24291 0.0
C1690 C 0.80349 0.1614 0.22894 0.0
C1691 C 0.79157 0.1515 0.21282 0.0
H1692 H 0.06566 0.5878 0.5508 0.0
H1693 H 0.00333 0.5681 0.52817 0.0
H1694 H 0.0825 0.57118 0.51979 0.0
H1695 H 0.01967 0.54999 0.49817 0.0
H1696 H 0.05517 0.51828 0.44356 0.0
H1697 H 0.03683 0.54048 0.46931 0.0
H1698 H 0.09259 0.53744 0.51116 0.0
H1699 H 0.11151 0.51644 0.48387 0.0
C1700 C 0.05546 0.58086 0.53849 0.0
C1701 C 0.03332 0.57836 0.54219 0.0
C1702 C 0.06518 0.57042 0.52116 0.0
C1703 C 0.05279 0.55755 0.50719 0.0
C1704 C 0.03015 0.55902 0.50867 0.0
C1705 C 0.02051 0.56991 0.52578 0.0
C1706 C 0.06338 0.52228 0.45841 0.0
C1707 C 0.08488 0.51638 0.46155 0.0
C1708 C 0.0528 0.53502 0.4734 0.0
C1709 C 0.06337 0.54192 0.49218 0.0
C1710 C 0.08423 0.53371 0.49638 0.0
C1711 C 0.09498 0.52117 0.48106 0.0
H1712 H 0.69307 0.23904 0.71758 0.0
H1713 H 0.65285 0.18641 0.69717 0.0
H1714 H 0.70662 0.21733 0.74716 0.0
H1715 H 0.66645 0.16442 0.72667 0.0
H1716 H 0.69454 0.13757 0.7919 0.0
H1717 H 0.67381 0.15689 0.76465 0.0
H1718 H 0.73227 0.18706 0.74203 0.0
H1719 H 0.75289 0.16755 0.76925 0.0
C1720 C 0.68619 0.22325 0.72021 0.0
C1721 C 0.6726 0.21399 0.70483 0.0
C1722 C 0.6944 0.21059 0.73674 0.0
C1723 C 0.68856 0.18881 0.73827 0.0
C1724 C 0.67167 0.18099 0.72545 0.0
C1725 C 0.6635 0.19374 0.70886 0.0
C1726 C 0.70289 0.14802 0.78073 0.0
C1727 C 0.72504 0.15167 0.78282 0.0
C1728 C 0.69109 0.15903 0.7652 0.0
C1729 C 0.70131 0.17417 0.75197 0.0
C1730 C 0.7239 0.17611 0.75269 0.0
C1731 C 0.73574 0.16481 0.76802 0.0
H1732 H 0.01337 0.40973 0.96868 0.0
H1733 H 0.06875 0.42974 0.93214 0.0
H1734 H 0.02809 0.42703 -0.00318 0.0
H1735 H 0.08335 0.44763 0.96272 0.0
H1736 H 0.10241 0.49253 0.00932 0.0
H1737 H 0.08435 0.47577 0.98277 0.0
H1738 H 0.04583 0.43829 0.02405 0.0
H1739 H 0.0625 0.45687 0.05342 0.0
C1740 C 0.02913 0.41711 0.96773 0.0
C1741 C 0.03956 0.41916 0.94798 0.0
C1742 C 0.03754 0.42769 0.98576 0.0
C1743 C 0.05641 0.44049 0.98411 0.0
C1744 C 0.06807 0.43963 0.96476 0.0
C1745 C 0.06009 0.42854 0.94724 0.0
C1746 C 0.08995 0.48077 0.01251 0.0
C1747 C 0.0845 0.4752 0.0336 0.0
C1748 C 0.07973 0.47074 0.99874 0.0
C1749 C 0.06444 0.45411 -0.00117 0.0
C1750 C 0.05776 0.45025 0.02011 0.0
C1751 C 0.0676 0.46076 0.03723 0.0
H1752 H 0.74173 0.82063 0.26926 0.0
H1753 H 0.79687 0.85977 0.28456 0.0
H1754 H 0.76291 0.80137 0.24229 0.0
H1755 H 0.81842 0.84026 0.25837 0.0
H1756 H 0.84413 0.8075 0.19587 0.0
H1757 H 0.82813 0.8294 0.22404 0.0
H1758 H 0.7899 0.77487 0.2442 0.0
H1759 H 0.80563 0.75344 0.21564 0.0
C1760 C 0.75823 0.82543 0.26635 0.0
C1761 C 0.76788 0.84144 0.27885 0.0
C1762 C 0.77055 0.81416 0.2513 0.0
C1763 C 0.79272 0.81859 0.24883 0.0
C1764 C 0.80158 0.83615 0.25997 0.0
C1765 C 0.78926 0.84738 0.27495 0.0
C1766 C 0.83335 0.79986 0.20724 0.0
C1767 C 0.82548 0.77907 0.20318 0.0
C1768 C 0.8237 0.81259 0.2231 0.0
C1769 C 0.80658 0.80431 0.23546 0.0
C1770 C 0.80205 0.78217 0.2341 0.0
C1771 C 0.81173 0.76956 0.21829 0.0
H1772 H 0.42604 0.49111 0.52222 0.0
H1773 H 0.38019 0.5426 0.52864 0.0
H1774 H 0.44591 0.51195 0.49575 0.0
H1775 H 0.4005 0.5643 0.50349 0.0
H1776 H 0.43671 0.5921 0.44525 0.0
H1777 H 0.41481 0.57596 0.47306 0.0
H1778 H 0.46992 0.53918 0.49464 0.0
H1779 H 0.49109 0.55451 0.46571 0.0
C1780 C 0.41993 0.50669 0.51744 0.0
C1781 C 0.40177 0.51545 0.52742 0.0
C1782 C 0.43166 0.51904 0.50276 0.0
C1783 C 0.42568 0.54053 0.49824 0.0
C1784 C 0.40604 0.54812 0.5066 0.0
C1785 C 0.39421 0.53564 0.52099 0.0
C1786 C 0.44436 0.58145 0.45672 0.0
C1787 C 0.46526 0.5739 0.45296 0.0
C1788 C 0.43166 0.57174 0.47256 0.0
C1789 C 0.44004 0.55484 0.48522 0.0
C1790 C 0.46234 0.55085 0.48419 0.0
C1791 C 0.47484 0.56031 0.46816 0.0
H1792 H 0.69923 0.73716 0.80613 0.0
H1793 H 0.73183 0.72728 0.8663 0.0
H1794 H 0.72536 0.71576 0.78782 0.0
H1795 H 0.75934 0.70651 0.84827 0.0
H1796 H 0.80309 0.6616 0.81819 0.0
H1797 H 0.77203 0.67737 0.83522 0.0
H1798 H 0.7492 0.69778 0.77241 0.0
H1799 H 0.77949 0.68069 0.75613 0.0
C1800 C 0.71261 0.73072 0.81525 0.0
C1801 C 0.71342 0.73325 0.83752 0.0
C1802 C 0.72777 0.71804 0.8048 0.0
C1803 C 0.74416 0.70742 0.81646 0.0
C1804 C 0.7463 0.71258 0.83858 0.0
C1805 C 0.73089 0.72517 0.84904 0.0
C1806 C 0.79061 0.66846 0.80813 0.0
C1807 C 0.79394 0.67084 0.78601 0.0
C1808 C 0.77316 0.67856 0.81795 0.0
C1809 C 0.75894 0.69145 0.80574 0.0
C1810 C 0.76011 0.68959 0.78307 0.0
C1811 C 0.77737 0.67911 0.77334 0.0
H1812 H 0.48866 0.47947 0.08073 0.0
H1813 H 0.54895 0.45179 0.10082 0.0
H1814 H 0.50806 0.50719 0.06097 0.0
H1815 H 0.56841 0.47731 0.0796 0.0
H1816 H 0.59999 0.53502 0.04797 0.0
H1817 H 0.5837 0.50574 0.06753 0.0
H1818 H 0.52493 0.51429 0.03076 0.0
H1819 H 0.54171 0.54347 0.01161 0.0
C1820 C 0.50608 0.47958 0.08109 0.0
C1821 C 0.51742 0.46341 0.09181 0.0
C1822 C 0.51736 0.49503 0.0692 0.0
C1823 C 0.5401 0.49406 0.06734 0.0
C1824 C 0.55114 0.4789 0.08001 0.0
C1825 C 0.53992 0.464 0.09226 0.0
C1826 C 0.58403 0.5297 0.04339 0.0
C1827 C 0.57187 0.54166 0.02878 0.0
C1828 C 0.57427 0.51306 0.05494 0.0
C1829 C 0.55213 0.50838 0.05211 0.0
C1830 C 0.54137 0.51824 0.03478 0.0
C1831 C 0.55131 0.53446 0.02304 0.0
H1832 H 0.71743 0.30376 0.25159 0.0
H1833 H 0.70019 0.34426 0.30493 0.0
H1834 H 0.74478 0.28633 0.27334 0.0
H1835 H 0.72667 0.32646 0.32722 0.0
H1836 H 0.7829 0.2925 0.36039 0.0
H1837 H 0.75834 0.31457 0.33986 0.0
H1838 H 0.74344 0.25982 0.29944 0.0
H1839 H 0.76942 0.23818 0.31954 0.0
C1840 C 0.72042 0.30985 0.26764 0.0
C1841 C 0.70619 0.32473 0.27689 0.0
C1842 C 0.73545 0.29917 0.28047 0.0
C1843 C 0.73696 0.3038 0.30258 0.0
C1844 C 0.72571 0.32186 0.31049 0.0
C1845 C 0.71079 0.33259 0.2975 0.0
C1846 C 0.77383 0.28509 0.34748 0.0
C1847 C 0.77811 0.26386 0.34129 0.0
C1848 C 0.75974 0.29778 0.33557 0.0
C1849 C 0.74946 0.2894 0.31726 0.0
C1850 C 0.75186 0.26721 0.31274 0.0
C1851 C 0.76625 0.25455 0.3246 0.0
H1852 H 0.00268 0.51964 0.57038 0.0
H1853 H 0.94928 0.53728 0.60677 0.0
H1854 H 0.98458 0.49248 0.55117 0.0
H1855 H 0.92798 0.51085 0.58731 0.0
H1856 H 0.9036 0.44654 0.55695 0.0
H1857 H 0.91867 0.47593 0.5779 0.0
H1858 H 0.95829 0.49398 0.52364 0.0
H1859 H 0.94346 0.46421 0.50318 0.0
C1860 C 0.98883 0.51729 0.57454 0.0
C1861 C 0.97879 0.53057 0.58963 0.0
C1862 C 0.97665 0.50211 0.5633 0.0
C1863 C 0.9543 0.50019 0.56699 0.0
C1864 C 0.94498 0.51208 0.58376 0.0
C1865 C 0.95714 0.52722 0.59491 0.0
C1866 C 0.91448 0.45768 0.54912 0.0
C1867 C 0.92303 0.4528 0.52885 0.0
C1868 C 0.92356 0.47427 0.56129 0.0
C1869 C 0.94079 0.48638 0.5529 0.0
C1870 C 0.94599 0.4841 0.53102 0.0
C1871 C 0.93689 0.46757 0.51896 0.0
H1872 H 0.80548 0.3353 0.68002 0.0
H1873 H 0.77973 0.31025 0.73908 0.0
H1874 H 0.7757 0.32072 0.66038 0.0
H1875 H 0.74848 0.2971 0.7202 0.0
H1876 H 0.71152 0.24855 0.68468 0.0
H1877 H 0.7382 0.26928 0.70313 0.0
H1878 H 0.7513 0.30386 0.64376 0.0
H1879 H 0.72562 0.2813 0.62549 0.0
C1880 C 0.79257 0.3277 0.68895 0.0
C1881 C 0.79522 0.3229 0.71074 0.0
C1882 C 0.77546 0.31868 0.67757 0.0
C1883 C 0.76049 0.30517 0.68809 0.0
C1884 C 0.76072 0.30511 0.71085 0.0
C1885 C 0.77819 0.3136 0.72205 0.0
C1886 C 0.72073 0.26011 0.67559 0.0
C1887 C 0.7166 0.26345 0.65381 0.0
C1888 C 0.73567 0.27281 0.68635 0.0
C1889 C 0.74626 0.28993 0.67574 0.0
C1890 C 0.7434 0.29167 0.65321 0.0
C1891 C 0.72873 0.2785 0.6424 0.0
H1892 H 0.93727 0.56438 0.92435 0.0
H1893 H 0.91661 0.53048 0.98125 0.0
H1894 H 0.95084 0.53127 0.90909 0.0
H1895 H 0.92984 0.49678 0.96577 0.0
H1896 H 0.94788 0.43811 0.92529 0.0
H1897 H 0.92954 0.46964 0.93929 0.0
H1898 H 0.98152 0.50988 0.91635 0.0
H1899 H -0.00354 0.47828 0.90151 0.0
C1900 C 0.93482 0.54953 0.93317 0.0
C1901 C 0.92636 0.54986 0.9541 0.0
C1902 C 0.94308 0.53067 0.92466 0.0
C1903 C 0.94228 0.51156 0.9366 0.0
C1904 C 0.93098 0.51134 0.9563 0.0
C1905 C 0.92303 0.5305 0.96506 0.0
C1906 C 0.95529 0.45373 0.92316 0.0
C1907 C 0.9748 0.45588 0.91205 0.0
C1908 C 0.9449 0.47177 0.93137 0.0
C1909 C 0.95387 0.4923 0.92872 0.0
C1910 C 0.97385 0.49434 0.91816 0.0
C1911 C 0.98417 0.47627 0.90979 0.0
H1912 H 0.69072 0.70735 0.22075 0.0
H1913 H 0.71386 0.64464 0.20283 0.0
H1914 H 0.72147 0.72402 0.20457 0.0
H1915 H 0.74496 0.66069 0.18638 0.0
H1916 H 0.79778 0.69336 0.1503 0.0
H1917 H 0.77077 0.67597 0.17117 0.0
H1918 H 0.73675 0.73686 0.17685 0.0
H1919 H 0.76523 0.75416 0.15704 0.0
C1920 C 0.70302 0.6971 0.21381 0.0
C1921 C 0.69979 0.67482 0.21233 0.0
C1922 C 0.72046 0.70672 0.20371 0.0
C1923 C 0.73534 0.69423 0.19201 0.0
C1924 C 0.73377 0.6715 0.19396 0.0
C1925 C 0.71599 0.6619 0.20387 0.0
C1926 C 0.78448 0.70295 0.15621 0.0
C1927 C 0.78394 0.72516 0.15279 0.0
C1928 C 0.76862 0.69291 0.16834 0.0
C1929 C 0.75153 0.70481 0.17737 0.0
C1930 C 0.75008 0.72694 0.17189 0.0
C1931 C 0.76623 0.73701 0.15993 0.0
H1932 H 0.49781 0.51619 0.39611 0.0
H1933 H 0.54791 0.55668 0.4218 0.0
H1934 H 0.51285 0.4857 0.41407 0.0
H1935 H 0.56232 0.52681 0.44164 0.0
H1936 H 0.59633 0.46555 0.46277 0.0
H1937 H 0.57959 0.49851 0.4503 0.0
H1938 H 0.52052 0.46312 0.43811 0.0
H1939 H 0.53803 0.43081 0.44863 0.0
C1940 C 0.512 0.51855 0.40593 0.0
C1941 C 0.5217 0.53879 0.4075 0.0
C1942 C 0.52063 0.50095 0.41684 0.0
C1943 C 0.53902 0.50312 0.43019 0.0
C1944 C 0.54852 0.52371 0.43162 0.0
C1945 C 0.54013 0.54117 0.42025 0.0
C1946 C 0.57979 0.46513 0.4573 0.0
C1947 C 0.56886 0.44558 0.45565 0.0
C1948 C 0.56989 0.48413 0.45009 0.0
C1949 C 0.54871 0.4839 0.44146 0.0
C1950 C 0.53722 0.4644 0.4426 0.0
C1951 C 0.54724 0.44561 0.44914 0.0
H1952 H 0.75661 0.77599 0.67074 0.0
H1953 H 0.81564 0.81197 0.66992 0.0
H1954 H 0.77514 0.74536 0.6848 0.0
H1955 H 0.83482 0.78179 0.68464 0.0
H1956 H 0.86261 0.73593 0.73296 0.0
H1957 H 0.84592 0.76361 0.71128 0.0
H1958 H 0.78884 0.7234 0.70574 0.0
H1959 H 0.80571 0.69692 0.72749 0.0
C1960 C 0.77389 0.77693 0.67283 0.0
C1961 C 0.78453 0.79647 0.67019 0.0
C1962 C 0.78474 0.75945 0.68184 0.0
C1963 C 0.80637 0.76147 0.68892 0.0
C1964 C 0.81783 0.77978 0.68179 0.0
C1965 C 0.80698 0.79704 0.6724 0.0
C1966 C 0.84634 0.73352 0.72721 0.0
C1967 C 0.83559 0.7142 0.73122 0.0
C1968 C 0.83674 0.74918 0.71413 0.0
C1969 C 0.81622 0.74567 0.70462 0.0
C1970 C 0.80488 0.72705 0.71109 0.0
C1971 C 0.81447 0.7116 0.72405 0.0
H1972 H 0.31136 0.69399 0.33739 0.0
H1973 H 0.25245 0.72053 0.31281 0.0
H1974 H 0.33157 0.72219 0.32069 0.0
H1975 H 0.27201 0.75071 0.29797 0.0
H1976 H 0.30815 0.78792 0.24966 0.0
H1977 H 0.28957 0.76 0.26944 0.0
H1978 H 0.3477 0.74885 0.30665 0.0
H1979 H 0.36623 0.77509 0.28502 0.0
C1980 C 0.30258 0.70692 0.32965 0.0
C1981 C 0.28056 0.70463 0.32546 0.0
C1982 C 0.3143 0.72311 0.31941 0.0
C1983 C 0.30388 0.73819 0.30596 0.0
C1984 C 0.28112 0.73849 0.30628 0.0
C1985 C 0.26959 0.72171 0.3158 0.0
C1986 C 0.31689 0.77889 0.26173 0.0
C1987 C 0.33844 0.78357 0.26614 0.0
C1988 C 0.30611 0.76321 0.27366 0.0
C1989 C 0.31636 0.75271 0.29107 0.0
C1990 C 0.33862 0.75645 0.294 0.0
C1991 C 0.34951 0.77161 0.28154 0.0
H1992 H 0.45242 0.05708 0.5066 0.0
H1993 H 0.4827 0.11715 0.52242 0.0
H1994 H 0.47778 0.03786 0.52771 0.0
H1995 H 0.50923 0.09831 0.5438 0.0
H1996 H 0.55244 0.06477 0.58736 0.0
H1997 H 0.52217 0.08315 0.5716 0.0
H1998 H 0.49831 0.02168 0.54842 0.0
H1999 H 0.52808 0.00409 0.56501 0.0
C2000 C 0.46517 0.06604 0.51429 0.0
C2001 C 0.46549 0.08843 0.51331 0.0
C2002 C 0.47979 0.05503 0.52707 0.0
C2003 C 0.49504 0.06625 0.53965 0.0
C2004 C 0.49694 0.08875 0.53616 0.0
C2005 C 0.48211 0.09975 0.52328 0.0
C2006 C 0.53995 0.05528 0.57974 0.0
C2007 C 0.54303 0.03325 0.57623 0.0
C2008 C 0.52294 0.06593 0.56968 0.0
C2009 C 0.50891 0.0546 0.55583 0.0
C2010 C 0.50943 0.03182 0.55696 0.0
C2011 C 0.5263 0.02128 0.56729 0.0
H2012 H 0.1842 0.29616 0.84293 0.0
H2013 H 0.23766 0.27875 0.80255 0.0
H2014 H 0.1628 0.26736 0.8273 0.0
H2015 H 0.21657 0.24966 0.78696 0.0
H2016 H 0.16775 0.22631 0.73959 0.0
H2017 H 0.18753 0.25299 0.76084 0.0
H2018 H 0.15423 0.23167 0.81804 0.0
H2019 H 0.13482 0.20526 0.79679 0.0
C2020 C 0.19184 0.2852 0.83176 0.0
C2021 C 0.21221 0.28999 0.82333 0.0
C2022 C 0.17942 0.26898 0.82238 0.0
C2023 C 0.18757 0.25716 0.80488 0.0
C2024 C 0.20946 0.25932 0.79958 0.0
C2025 C 0.22182 0.27547 0.80903 0.0
C2026 C 0.16447 0.22773 0.75658 0.0
C2027 C 0.15047 0.21336 0.7668 0.0
C2028 C 0.17593 0.24275 0.76884 0.0
C2029 C 0.1732 0.24368 0.79136 0.0
C2030 C 0.15707 0.23111 0.80089 0.0
C2031 C 0.14587 0.21604 0.7887 0.0
H2032 H 0.44694 0.43391 0.5882 0.0
H2033 H 0.46612 0.49082 0.55377 0.0
H2034 H 0.4755 0.41374 0.57139 0.0
H2035 H 0.49617 0.47138 0.53808 0.0
H2036 H 0.52538 0.43014 0.48831 0.0
H2037 H 0.49793 0.44837 0.5096 0.0
H2038 H 0.50726 0.40171 0.56058 0.0
H2039 H 0.53312 0.38298 0.53844 0.0
C2040 C 0.45837 0.44248 0.57821 0.0
C2041 C 0.45404 0.4636 0.57162 0.0
C2042 C 0.47465 0.4308 0.56814 0.0
C2043 C 0.48738 0.4405 0.55207 0.0
C2044 C 0.48575 0.46294 0.54916 0.0
C2045 C 0.46909 0.47441 0.55886 0.0
C2046 C 0.52069 0.42342 0.50367 0.0
C2047 C 0.53121 0.40538 0.51197 0.0
C2048 C 0.50547 0.43417 0.51623 0.0
C2049 C 0.50108 0.42728 0.53746 0.0
C2050 C 0.51019 0.40783 0.54459 0.0
C2051 C 0.52502 0.39695 0.53187 0.0
H2052 H 0.64777 0.26102 0.2487 0.0
H2053 H 0.67451 0.30496 0.20199 0.0
H2054 H 0.66461 0.231 0.22982 0.0
H2055 H 0.68971 0.27539 0.1823 0.0
H2056 H 0.73105 0.21882 0.16114 0.0
H2057 H 0.7151 0.24985 0.17901 0.0
H2058 H 0.66163 0.21019 0.19983 0.0
H2059 H 0.67811 0.17949 0.1828 0.0
C2060 C 0.65714 0.26418 0.23437 0.0
C2061 C 0.65961 0.28518 0.22662 0.0
C2062 C 0.66658 0.24703 0.22333 0.0
C2063 C 0.67832 0.25064 0.20418 0.0
C2064 C 0.68114 0.27183 0.197 0.0
C2065 C 0.67211 0.28886 0.20819 0.0
C2066 C 0.71551 0.21714 0.16884 0.0
C2067 C 0.70579 0.19698 0.1707 0.0
C2068 C 0.70638 0.2348 0.17934 0.0
C2069 C 0.68726 0.23248 0.19148 0.0
C2070 C 0.67674 0.21253 0.19151 0.0
C2071 C 0.6859 0.19503 0.18124 0.0
H2072 H 0.46977 0.88028 0.96484 0.0
H2073 H 0.46118 0.9382 -0.00207 0.0
H2074 H 0.49501 0.8982 0.9417 0.0
H2075 H 0.48835 0.95618 0.98017 0.0
H2076 H 0.52733 0.99222 0.93568 0.0
H2077 H 0.49686 0.97386 0.95148 0.0
H2078 H 0.52107 0.91354 0.92597 0.0
H2079 H 0.5495 0.93267 0.90849 0.0
C2080 C 0.47421 0.89675 0.96846 0.0
C2081 C 0.46369 0.90796 0.98479 0.0
C2082 C 0.48873 0.90733 0.95502 0.0
C2083 C 0.49336 0.92943 0.95786 0.0
C2084 C 0.48447 0.93975 0.9761 0.0
C2085 C 0.46938 0.92928 0.98904 0.0
C2086 C 0.5251 0.97525 0.93235 0.0
C2087 C 0.5411 0.96364 0.92164 0.0
C2088 C 0.50816 0.96436 0.94236 0.0
C2089 C 0.50733 0.9416 0.9422 0.0
C2090 C 0.52112 0.93079 0.92773 0.0
C2091 C 0.53744 0.9419 0.91705 0.0
H2092 H 0.01107 0.11237 0.48023 0.0
H2093 H 0.04703 0.05342 0.48425 0.0
H2094 H 0.98708 0.09467 0.45824 0.0
H2095 H 0.0216 0.03568 0.46154 0.0
H2096 H 0.97197 0.00412 0.42382 0.0
H2097 H -0.00134 0.02063 0.44203 0.0
H2098 H 0.97462 0.08353 0.42805 0.0
H2099 H 0.9448 0.06618 0.41036 0.0
C2100 C 0.0129 0.09543 0.47661 0.0
C2101 C 0.03122 0.08429 0.48331 0.0
C2102 C -0.00216 0.08524 0.46328 0.0
C2103 C 0.00112 0.06384 0.45602 0.0
C2104 C 0.01831 0.05224 0.46537 0.0
C2105 C 0.03309 0.06236 0.4788 0.0
C2106 C 0.97307 0.02151 0.42375 0.0
C2107 C 0.95557 0.03381 0.41689 0.0
C2108 C 0.98988 0.03131 0.43502 0.0
C2109 C 0.98966 0.05374 0.43915 0.0
C2110 C 0.97461 0.06618 0.4275 0.0
C2111 C 0.95786 0.05625 0.41626 0.0
H2112 H 0.09181 0.41441 0.40224 0.0
H2113 H 0.15859 0.43261 0.39827 0.0
H2114 H 0.10067 0.37803 0.39078 0.0
H2115 H 0.16764 0.39649 0.38571 0.0
H2116 H 0.1831 0.32817 0.39921 0.0
H2117 H 0.17048 0.36455 0.40523 0.0
H2118 H 0.1132 0.35089 0.3681 0.0
H2119 H 0.12544 0.31394 0.36316 0.0
C2120 C 0.10834 0.41062 0.39827 0.0
C2121 C 0.1247 0.4258 0.40169 0.0
C2122 C 0.11343 0.38984 0.39158 0.0
C2123 C 0.13503 0.38401 0.3883 0.0
C2124 C 0.15098 0.40017 0.38915 0.0
C2125 C 0.14586 0.42092 0.396 0.0
C2126 C 0.16762 0.33283 0.39272 0.0
C2127 C 0.1554 0.31836 0.38049 0.0
C2128 C 0.16054 0.35383 0.39578 0.0
C2129 C 0.14129 0.36102 0.38629 0.0
C2130 C 0.12824 0.34603 0.37541 0.0
C2131 C 0.13517 0.3248 0.3727 0.0
H2132 H 0.93624 0.88598 0.64874 0.0
H2133 H 0.90766 0.92928 0.60287 0.0
H2134 H 0.90137 0.87092 0.65653 0.0
H2135 H 0.87324 0.91281 0.60799 0.0
H2136 H 0.80911 0.90104 0.63907 0.0
H2137 H 0.84359 0.90976 0.6241 0.0
H2138 H 0.87135 0.85475 0.65732 0.0
H2139 H 0.83716 0.84824 0.67408 0.0
C2140 C 0.9223 0.89205 0.64024 0.0
C2141 C 0.92423 0.90932 0.62606 0.0
C2142 C 0.90208 0.88317 0.64428 0.0
C2143 C 0.88349 0.89084 0.6335 0.0
C2144 C 0.88627 0.90704 0.61786 0.0
C2145 C 0.90622 0.91654 0.61468 0.0
C2146 C 0.82283 0.89117 0.6433 0.0
C2147 C 0.82086 0.87476 0.65849 0.0
C2148 C 0.84288 0.89584 0.63441 0.0
C2149 C 0.86134 0.88364 0.63994 0.0
C2150 C 0.85844 0.86569 0.65353 0.0
C2151 C 0.83863 0.86171 0.66313 0.0
H2152 H 0.30821 0.66212 0.86555 0.0
H2153 H 0.36736 0.6871 0.89172 0.0
H2154 H 0.32227 0.62653 0.86627 0.0
H2155 H 0.38103 0.65088 0.8954 0.0
H2156 H 0.40157 0.5847 0.90849 0.0
H2157 H 0.39332 0.61903 0.89243 0.0
H2158 H 0.32752 0.59721 0.88237 0.0
H2159 H 0.33716 0.56248 0.89631 0.0
C2160 C 0.32408 0.65975 0.87236 0.0
C2161 C 0.33631 0.67722 0.87964 0.0
C2162 C 0.33227 0.63903 0.87293 0.0
C2163 C 0.35258 0.63481 0.88203 0.0
C2164 C 0.36528 0.65271 0.88838 0.0
C2165 C 0.35735 0.67372 0.88677 0.0
C2166 C 0.38548 0.58747 0.90235 0.0
C2167 C 0.36975 0.57151 0.90398 0.0
C2168 C 0.38051 0.60736 0.89339 0.0
C2169 C 0.35931 0.61208 0.88679 0.0
C2170 C 0.34405 0.59506 0.8871 0.0
C2171 C 0.34935 0.5749 0.89537 0.0
H2172 H 0.6752 0.08785 0.1729 0.0
H2173 H 0.67653 0.14055 0.1278 0.0
H2174 H 0.63954 0.0782 0.16099 0.0
H2175 H 0.63975 0.13247 0.11713 0.0
H2176 H 0.57597 0.10292 0.09448 0.0
H2177 H 0.61253 0.11424 0.10229 0.0
H2178 H 0.60586 0.08875 0.1669 0.0
H2179 H 0.57034 0.07518 0.15772 0.0
C2180 C 0.66773 0.09726 0.16027 0.0
C2181 C 0.67822 0.11508 0.15149 0.0
C2182 C 0.64704 0.09214 0.15378 0.0
C2183 C 0.63603 0.10532 0.13902 0.0
C2184 C 0.64741 0.12206 0.12875 0.0
C2185 C 0.66855 0.12671 0.13477 0.0
C2186 C 0.58254 0.09991 0.11034 0.0
C2187 C 0.57101 0.08774 0.12538 0.0
C2188 C 0.60344 0.1065 0.11493 0.0
C2189 C 0.61278 0.10151 0.13493 0.0
C2190 C 0.5999 0.09159 0.15082 0.0
C2191 C 0.5794 0.08415 0.14584 0.0
H2192 H 0.17963 0.65753 0.13738 0.0
H2193 H 0.13134 0.68526 0.0962 0.0
H2194 H 0.16336 0.62294 0.13411 0.0
H2195 H 0.11591 0.65023 0.09043 0.0
H2196 H 0.09675 0.58548 0.07063 0.0
H2197 H 0.10224 0.61939 0.08807 0.0
H2198 H 0.15887 0.59291 0.11965 0.0
H2199 H 0.15136 0.55861 0.10362 0.0
C2200 C 0.16581 0.65587 0.12688 0.0
C2201 C 0.15734 0.67369 0.11606 0.0
C2202 C 0.15633 0.63577 0.12482 0.0
C2203 C 0.13875 0.63258 0.11085 0.0
C2204 C 0.12953 0.65108 0.1011 0.0
C2205 C 0.13856 0.67144 0.104 0.0
C2206 C 0.11043 0.58724 0.08129 0.0
C2207 C 0.12438 0.56996 0.085 0.0
C2208 C 0.1138 0.6069 0.09135 0.0
C2209 C 0.13196 0.61021 0.10456 0.0
C2210 C 0.14491 0.59203 0.10944 0.0
C2211 C 0.14092 0.57208 0.09999 0.0
H2212 H 0.6607 0.86139 0.31104 0.0
H2213 H 0.68586 0.89579 0.3656 0.0
H2214 H 0.62557 0.86161 0.3263 0.0
H2215 H 0.65008 0.89849 0.38044 0.0
H2216 H 0.58381 0.91453 0.39911 0.0
H2217 H 0.61846 0.89878 0.39272 0.0
H2218 H 0.59519 0.87543 0.33093 0.0
H2219 H 0.5602 0.88979 0.33899 0.0
C2220 C 0.65837 0.86985 0.32609 0.0
C2221 C 0.67565 0.8799 0.33647 0.0
C2222 C 0.63792 0.87012 0.33499 0.0
C2223 C 0.63373 0.88149 0.35413 0.0
C2224 C 0.6517 0.89002 0.36542 0.0
C2225 C 0.67249 0.88889 0.35681 0.0
C2226 C 0.58635 0.90564 0.38433 0.0
C2227 C 0.56981 0.90371 0.36923 0.0
C2228 C 0.60646 0.89674 0.38038 0.0
C2229 C 0.61089 0.88641 0.36068 0.0
C2230 C 0.59339 0.88322 0.34628 0.0
C2231 C 0.57301 0.89162 0.35067 0.0
H2232 H 0.33368 0.4328 0.59176 0.0
H2233 H 0.40076 0.41779 0.60044 0.0
H2234 H 0.32398 0.39661 0.60314 0.0
H2235 H 0.39161 0.38095 0.60976 0.0
H2236 H 0.36626 0.31629 0.63419 0.0
H2237 H 0.37815 0.35311 0.62875 0.0
H2238 H 0.32347 0.36411 0.58694 0.0
H2239 H 0.31076 0.32796 0.59419 0.0
C2240 C 0.34626 0.42175 0.59659 0.0
C2241 C 0.36785 0.42774 0.59527 0.0
C2242 C 0.34085 0.40083 0.60256 0.0
C2243 C 0.35703 0.38533 0.60629 0.0
C2244 C 0.37863 0.39216 0.60687 0.0
C2245 C 0.38395 0.41331 0.60158 0.0
C2246 C 0.35701 0.3266 0.62362 0.0
C2247 C 0.33736 0.31958 0.61498 0.0
C2248 C 0.3638 0.34779 0.62049 0.0
C2249 C 0.3513 0.36212 0.60815 0.0
C2250 C 0.33287 0.35411 0.59763 0.0
C2251 C 0.32575 0.33322 0.60136 0.0
H2252 H 0.9099 0.08357 0.90467 0.0
H2253 H 0.93668 0.10216 0.84351 0.0
H2254 H 0.87469 0.09576 0.89342 0.0
H2255 H 0.90148 0.1156 0.83225 0.0
H2256 H 0.83545 0.10367 0.80564 0.0
H2257 H 0.87103 0.09863 0.82037 0.0
H2258 H 0.84778 0.11803 0.88304 0.0
H2259 H 0.81174 0.12179 0.86836 0.0
C2260 C 0.9082 0.09077 0.88892 0.0
C2261 C 0.9256 0.0912 0.87458 0.0
C2262 C 0.88802 0.09802 0.88248 0.0
C2263 C 0.88487 0.10583 0.8615 0.0
C2264 C 0.90304 0.10866 0.84813 0.0
C2265 C 0.92327 0.10126 0.8546 0.0
C2266 C 0.83785 0.10651 0.82265 0.0
C2267 C 0.82076 0.1132 0.8358 0.0
C2268 C 0.85845 0.10409 0.83106 0.0
C2269 C 0.86267 0.10859 0.85283 0.0
C2270 C 0.84531 0.11439 0.86622 0.0
C2271 C 0.82454 0.11645 0.85783 0.0
H2272 H 0.40959 0.09207 0.41014 0.0
H2273 H 0.38858 0.15343 0.4342 0.0
H2274 H 0.39606 0.10038 0.37525 0.0
H2275 H 0.37347 0.16206 0.39944 0.0
H2276 H 0.37479 0.18697 0.33223 0.0
H2277 H 0.37619 0.17431 0.36812 0.0
H2278 H 0.38657 0.10931 0.34428 0.0
H2279 H 0.3862 0.12293 0.30815 0.0
C2280 C 0.40167 0.10742 0.40775 0.0
C2281 C 0.40097 0.12257 0.42432 0.0
C2282 C 0.39369 0.11239 0.38748 0.0
C2283 C 0.38489 0.13288 0.38314 0.0
C2284 C 0.38158 0.14682 0.40095 0.0
C2285 C 0.38984 0.14181 0.42128 0.0
C2286 C 0.37794 0.17001 0.33472 0.0
C2287 C 0.38113 0.15606 0.31729 0.0
C2288 C 0.37823 0.1624 0.35573 0.0
C2289 C 0.38178 0.14044 0.36025 0.0
C2290 C 0.38444 0.1264 0.34244 0.0
C2291 C 0.38426 0.13415 0.32133 0.0
H2292 H 0.12008 0.14478 0.55877 0.0
H2293 H 0.0615 0.11553 0.58148 0.0
H2294 H 0.13386 0.14546 0.59523 0.0
H2295 H 0.07392 0.11732 0.6177 0.0
H2296 H 0.09355 0.12711 0.685 0.0
H2297 H 0.08861 0.11381 0.64856 0.0
H2298 H 0.13616 0.15995 0.62613 0.0
H2299 H 0.14172 0.17139 0.66226 0.0
C2300 C 0.11003 0.13893 0.57173 0.0
C2301 C 0.08939 0.13107 0.56748 0.0
C2302 C 0.11777 0.1394 0.59289 0.0
C2303 C 0.10489 0.13224 0.61037 0.0
C2304 C 0.0847 0.12317 0.60545 0.0
C2305 C 0.07716 0.12259 0.58443 0.0
C2306 C 0.10299 0.13397 0.67207 0.0
C2307 C 0.11748 0.15066 0.67616 0.0
C2308 C 0.10003 0.12666 0.65093 0.0
C2309 C 0.11118 0.13629 0.63344 0.0
C2310 C 0.12692 0.15185 0.63836 0.0
C2311 C 0.13001 0.15881 0.65933 0.0
H2312 H 0.08984 0.9043 0.91239 0.0
H2313 H 0.09905 0.83951 0.93531 0.0
H2314 H 0.10108 0.89362 0.87661 0.0
H2315 H 0.11181 0.82873 0.89972 0.0
H2316 H 0.0947 0.80777 0.83344 0.0
H2317 H 0.0907 0.8222 0.86942 0.0
H2318 H 0.12265 0.88082 0.84949 0.0
H2319 H 0.12524 0.86685 0.81315 0.0
C2320 C 0.09507 0.88789 0.90973 0.0
C2321 C 0.09296 0.87242 0.92592 0.0
C2322 C 0.10167 0.88176 0.88932 0.0
C2323 C 0.10631 0.86006 0.88506 0.0
C2324 C 0.10722 0.84533 0.9023 0.0
C2325 C 0.10024 0.85144 0.92267 0.0
C2326 C 0.10034 0.82394 0.83669 0.0
C2327 C 0.11044 0.8361 0.82065 0.0
C2328 C 0.09856 0.83205 0.85741 0.0
C2329 C 0.10728 0.85228 0.86262 0.0
C2330 C 0.11597 0.86509 0.84614 0.0
C2331 C 0.11728 0.85715 0.82524 0.0
H2332 H 0.43028 0.88163 0.07944 0.0
H2333 H 0.3736 0.84896 0.05672 0.0
H2334 H 0.41685 0.88157 0.11508 0.0
H2335 H 0.35994 0.8472 0.09292 0.0
H2336 H 0.34533 0.82952 0.1601 0.0
H2337 H 0.34996 0.84427 0.12489 0.0
H2338 H 0.4087 0.87547 0.14682 0.0
H2339 H 0.40287 0.86091 0.18212 0.0
C2340 C 0.41497 0.87383 0.08239 0.0
C2341 C 0.40338 0.86444 0.06552 0.0
C2342 C 0.40695 0.87379 0.10322 0.0
C2343 C 0.38731 0.86356 0.10825 0.0
C2344 C 0.37527 0.85496 0.09078 0.0
C2345 C 0.38313 0.85566 0.06968 0.0
C2346 C 0.35919 0.83962 0.1571 0.0
C2347 C 0.37443 0.84315 0.17329 0.0
C2348 C 0.36212 0.84811 0.1366 0.0
C2349 C 0.38089 0.85983 0.13145 0.0
C2350 C 0.39464 0.86557 0.14883 0.0
C2351 C 0.39139 0.85733 0.16951 0.0
H2352 H 0.43201 0.39656 0.15734 0.0
H2353 H 0.41185 0.40275 0.09149 0.0
H2354 H 0.39705 0.38378 0.1672 0.0
H2355 H 0.37705 0.38809 0.10019 0.0
H2356 H 0.30818 0.38709 0.12337 0.0
H2357 H 0.34477 0.39028 0.11081 0.0
H2358 H 0.3673 0.36981 0.17381 0.0
H2359 H 0.3313 0.36948 0.1863 0.0
C2360 C 0.41999 0.39442 0.14491 0.0
C2361 C 0.42416 0.4008 0.12389 0.0
C2362 C 0.39961 0.3869 0.15037 0.0
C2363 C 0.38299 0.38533 0.13477 0.0
C2364 C 0.38838 0.38993 0.11319 0.0
C2365 C 0.40859 0.398 0.10794 0.0
C2366 C 0.32124 0.38397 0.13448 0.0
C2367 C 0.31697 0.37924 0.15604 0.0
C2368 C 0.34251 0.38534 0.12726 0.0
C2369 C 0.36003 0.38119 0.14131 0.0
C2370 C 0.35515 0.37472 0.16247 0.0
C2371 C 0.33412 0.37436 0.16982 0.0
H2372 H 0.85163 0.93633 0.10726 0.0
H2373 H 0.88804 0.90553 0.05693 0.0
H2374 H 0.84675 0.90241 0.1247 0.0
H2375 H 0.88499 0.87192 0.07458 0.0
H2376 H 0.85738 0.80857 0.09394 0.0
H2377 H 0.87357 0.84204 0.08396 0.0
H2378 H 0.84314 0.87245 0.13926 0.0
H2379 H 0.82595 0.83902 0.1475 0.0
C2380 C 0.85843 0.9221 0.09987 0.0
C2381 C 0.86919 0.92341 0.08018 0.0
C2382 C 0.856 0.90228 0.11009 0.0
C2383 C 0.86461 0.88319 0.10103 0.0
C2384 C 0.8768 0.88524 0.082 0.0
C2385 C 0.87863 0.90487 0.07157 0.0
C2386 C 0.85412 0.82272 0.10358 0.0
C2387 C 0.83957 0.8218 0.1206 0.0
C2388 C 0.86354 0.84227 0.09804 0.0
C2389 C 0.85885 0.86133 0.10972 0.0
C2390 C 0.84623 0.85924 0.1285 0.0
C2391 C 0.8363 0.83987 0.13351 0.0
H2392 H 0.16432 0.65388 0.64581 0.0
H2393 H 0.18078 0.58715 0.65471 0.0
H2394 H 0.12786 0.64381 0.63556 0.0
H2395 H 0.14483 0.57663 0.64312 0.0
H2396 H 0.07649 0.563 0.65389 0.0
H2397 H 0.11237 0.57679 0.6606 0.0
H2398 H 0.10085 0.62862 0.61549 0.0
H2399 H 0.06426 0.61563 0.61032 0.0
C2400 C 0.16016 0.63699 0.64483 0.0
C2401 C 0.17482 0.62121 0.65144 0.0
C2402 C 0.13932 0.63116 0.6389 0.0
C2403 C 0.13301 0.60942 0.63953 0.0
C2404 C 0.14876 0.59359 0.64363 0.0
C2405 C 0.16946 0.59947 0.64985 0.0
C2406 C 0.08152 0.57765 0.64592 0.0
C2407 C 0.06787 0.58811 0.63144 0.0
C2408 C 0.10224 0.58535 0.64934 0.0
C2409 C 0.10999 0.60321 0.63773 0.0
C2410 C 0.09562 0.61469 0.62453 0.0
C2411 C 0.07459 0.60733 0.62163 0.0
H2412 H 0.66083 0.93165 0.90459 0.0
H2413 H 0.59373 0.91748 0.89479 0.0
H2414 H 0.67035 0.8959 0.89173 0.0
H2415 H 0.60263 0.88104 0.88404 0.0
H2416 H 0.62512 0.81411 0.8652 0.0
H2417 H 0.61536 0.85194 0.86694 0.0
H2418 H 0.67054 0.86381 0.90786 0.0
H2419 H 0.68075 0.82665 0.90487 0.0
C2420 C 0.64821 0.92088 0.89927 0.0
C2421 C 0.62664 0.92691 0.90087 0.0
C2422 C 0.65351 0.9002 0.89236 0.0
C2423 C 0.63724 0.88489 0.88806 0.0
C2424 C 0.61572 0.89198 0.88744 0.0
C2425 C 0.61052 0.9129 0.89367 0.0
C2426 C 0.6349 0.82483 0.87484 0.0
C2427 C 0.65385 0.81743 0.8847 0.0
C2428 C 0.62941 0.84666 0.87573 0.0
C2429 C 0.64255 0.86145 0.88688 0.0
C2430 C 0.66056 0.85347 0.89807 0.0
C2431 C 0.66618 0.83187 0.89688 0.0
H2432 H 0.84017 0.15992 0.34095 0.0
H2433 H 0.85461 0.18429 0.40419 0.0
H2434 H 0.85087 0.1241 0.35188 0.0
H2435 H 0.86708 0.1486 0.41507 0.0
H2436 H 0.85336 0.0829 0.43927 0.0
H2437 H 0.84748 0.11842 0.42442 0.0
H2438 H 0.87251 0.0969 0.36313 0.0
H2439 H 0.8769 0.06099 0.37767 0.0
C2440 C 0.84651 0.15756 0.35701 0.0
C2441 C 0.84609 0.17429 0.37203 0.0
C2442 C 0.85275 0.13707 0.3633 0.0
C2443 C 0.8589 0.13321 0.38469 0.0
C2444 C 0.86132 0.15084 0.3988 0.0
C2445 C 0.85462 0.17132 0.39258 0.0
C2446 C 0.85717 0.08569 0.42251 0.0
C2447 C 0.866 0.06935 0.40977 0.0
C2448 C 0.85425 0.10618 0.41408 0.0
C2449 C 0.86053 0.11088 0.39286 0.0
C2450 C 0.86773 0.09402 0.3796 0.0
C2451 C 0.87018 0.07335 0.38793 0.0
H2452 H 0.64535 0.18345 0.58873 0.0
H2453 H 0.65296 0.16054 0.65359 0.0
H2454 H 0.63174 0.14845 0.57786 0.0
H2455 H 0.64161 0.12504 0.64292 0.0
H2456 H 0.62328 0.05949 0.61896 0.0
H2457 H 0.62574 0.09597 0.6321 0.0
H2458 H 0.64424 0.11728 0.56827 0.0
H2459 H 0.63995 0.08142 0.55518 0.0
C2460 C 0.64382 0.17082 0.60063 0.0
C2461 C 0.65053 0.17421 0.62176 0.0
C2462 C 0.63656 0.1505 0.59441 0.0
C2463 C 0.63682 0.13304 0.60906 0.0
C2464 C 0.64138 0.13749 0.63082 0.0
C2465 C 0.64808 0.15792 0.63707 0.0
C2466 C 0.62804 0.07204 0.60785 0.0
C2467 C 0.63116 0.06751 0.58597 0.0
C2468 C 0.62947 0.0932 0.61538 0.0
C2469 C 0.63463 0.1103 0.60129 0.0
C2470 C 0.63906 0.10524 0.57966 0.0
C2471 C 0.63718 0.08429 0.57213 0.0
H2472 H 0.07353 0.38892 0.90042 0.0
H2473 H 0.06659 0.41257 0.83568 0.0
H2474 H 0.111 0.37939 0.89313 0.0
H2475 H 0.10294 0.40122 0.82745 0.0
H2476 H 0.17174 0.40823 0.82122 0.0
H2477 H 0.1355 0.41541 0.83335 0.0
H2478 H 0.14009 0.36234 0.87829 0.0
H2479 H 0.17733 0.35669 0.86727 0.0
C2480 C 0.07992 0.3913 0.88439 0.0
C2481 C 0.0676 0.4018 0.86861 0.0
C2482 C 0.10138 0.38586 0.88016 0.0
C2483 C 0.11057 0.39059 0.85997 0.0
C2484 C 0.09706 0.39865 0.84361 0.0
C2485 C 0.07603 0.40476 0.84807 0.0
C2486 C 0.16518 0.39864 0.8342 0.0
C2487 C 0.17711 0.38182 0.84317 0.0
C2488 C 0.14414 0.40228 0.84082 0.0
C2489 C 0.13418 0.38861 0.85594 0.0
C2490 C 0.14692 0.37302 0.86638 0.0
C2491 C 0.16836 0.36985 0.8602 0.0
H2492 H 0.3103 0.58816 0.34392 0.0
H2493 H 0.33297 0.6534 0.34023 0.0
H2494 H 0.344 0.577 0.3593 0.0
H2495 H 0.36724 0.64291 0.35444 0.0
H2496 H 0.43418 0.6195 0.36646 0.0
H2497 H 0.39806 0.63245 0.36297 0.0
H2498 H 0.37567 0.56633 0.35728 0.0
H2499 H 0.41134 0.55409 0.36162 0.0
C2500 C 0.32283 0.60002 0.34638 0.0
C2501 C 0.31977 0.6213 0.34007 0.0
C2502 C 0.3426 0.59368 0.35486 0.0
C2503 C 0.35998 0.60843 0.35651 0.0
C2504 C 0.35543 0.63038 0.35257 0.0
C2505 C 0.33559 0.63665 0.3443 0.0
C2506 C 0.42138 0.60788 0.36426 0.0
C2507 C 0.42577 0.58577 0.36432 0.0
C2508 C 0.40022 0.61528 0.36234 0.0
C2509 C 0.38275 0.60076 0.36011 0.0
C2510 C 0.38767 0.57859 0.35959 0.0
C2511 C 0.40867 0.5713 0.36163 0.0
H2512 H 0.87816 0.61268 0.93267 0.0
H2513 H 0.93159 0.6551 0.91966 0.0
H2514 H 0.86638 0.61612 0.89517 0.0
H2515 H 0.91964 0.65925 0.88299 0.0
H2516 H 0.91162 0.65244 0.81528 0.0
H2517 H 0.92025 0.63949 0.85133 0.0
H2518 H 0.85242 0.63783 0.86694 0.0
H2519 H 0.84405 0.64948 0.8304 0.0
C2520 C 0.88697 0.62325 0.92198 0.0
C2521 C 0.90591 0.63354 0.929 0.0
C2522 C 0.88038 0.62503 0.90044 0.0
C2523 C 0.89262 0.63721 0.88571 0.0
C2524 C 0.91044 0.6488 0.89344 0.0
C2525 C 0.91708 0.64684 0.91467 0.0
C2526 C 0.89867 0.64853 0.82625 0.0
C2527 C 0.8773 0.65222 0.82048 0.0
C2528 C 0.9035 0.64144 0.847 0.0
C2529 C 0.88705 0.63867 0.86244 0.0
C2530 C 0.86551 0.64009 0.8557 0.0
C2531 C 0.8607 0.64684 0.83482 0.0
H2532 H 0.61506 0.64953 0.05681 0.0
H2533 H 0.57104 0.60231 0.08178 0.0
H2534 H 0.62943 0.65518 0.09244 0.0
H2535 H 0.58389 0.60805 0.1173 0.0
H2536 H 0.59934 0.62739 0.18409 0.0
H2537 H 0.59576 0.61299 0.14829 0.0
H2538 H 0.63259 0.66724 0.12362 0.0
H2539 H 0.6365 0.68031 0.15928 0.0
C2540 C 0.60848 0.64047 0.07015 0.0
C2541 C 0.59156 0.6261 0.0669 0.0
C2542 C 0.61646 0.64378 0.09095 0.0
C2543 C 0.60745 0.63294 0.10899 0.0
C2544 C 0.59149 0.61733 0.10483 0.0
C2545 C 0.58373 0.61403 0.08418 0.0
C2546 C 0.6064 0.63607 0.17074 0.0
C2547 C 0.61719 0.65545 0.1742 0.0
C2548 C 0.6043 0.62798 0.14984 0.0
C2549 C 0.61285 0.63922 0.13184 0.0
C2550 C 0.62508 0.65787 0.13608 0.0
C2551 C 0.62713 0.6658 0.15684 0.0
H2552 H 0.58631 0.3427 0.3139 0.0
H2553 H 0.65288 0.34345 0.33264 0.0
H2554 H 0.57626 0.35819 0.34797 0.0
H2555 H 0.64358 0.35736 0.36731 0.0
H2556 H 0.62388 0.3671 0.43537 0.0
H2557 H 0.63438 0.36702 0.39825 0.0
H2558 H 0.56777 0.35495 0.38027 0.0
H2559 H 0.55782 0.35628 0.41689 0.0
C2560 C 0.59872 0.34612 0.32564 0.0
C2561 C 0.62014 0.34112 0.32137 0.0
C2562 C 0.59307 0.35469 0.34559 0.0
C2563 C 0.6087 0.35756 0.36199 0.0
C2564 C 0.63052 0.35475 0.35624 0.0
C2565 C 0.6361 0.34658 0.33618 0.0
C2566 C 0.61167 0.36423 0.42328 0.0
C2567 C 0.59012 0.36126 0.42918 0.0
C2568 C 0.61762 0.36418 0.40162 0.0
C2569 C 0.60222 0.3607 0.38516 0.0
C2570 C 0.58058 0.35796 0.39151 0.0
C2571 C 0.57471 0.3582 0.41303 0.0
H2572 H 0.89988 0.36015 0.6867 0.0
H2573 H 0.85619 0.31416 0.65881 0.0
H2574 H 0.90422 0.37714 0.65225 0.0
H2575 H 0.85823 0.33192 0.62494 0.0
H2576 H 0.88813 0.3444 0.56033 0.0
H2577 H 0.87132 0.33743 0.59441 0.0
H2578 H 0.90603 0.39169 0.62186 0.0
H2579 H 0.92405 0.3966 0.58825 0.0
C2580 C 0.89129 0.35371 0.67298 0.0
C2581 C 0.87893 0.33507 0.67495 0.0
C2582 C 0.89333 0.36368 0.65296 0.0
C2583 C 0.88249 0.35554 0.63456 0.0
C2584 C 0.86827 0.33815 0.63762 0.0
C2585 C 0.867 0.32776 0.6573 0.0
C2586 C 0.8923 0.35438 0.57398 0.0
C2587 C 0.90843 0.36991 0.5723 0.0
C2588 C 0.88244 0.3507 0.59381 0.0
C2589 C 0.88822 0.3629 0.61224 0.0
C2590 C 0.90222 0.38048 0.60921 0.0
C2591 C 0.91263 0.3835 0.58972 0.0
loop_
_geom_bond_atom_site_label_1
_geom_bond_atom_site_label_2
_geom_bond_distance
_geom_bond_site_symmetry_2
_ccdc_geom_bond_type
Co0 O1 2.216 . S
Co0 O2 2.091 . S
Co0 O4 2.004 . S
Co0 O10 2.021 . S
Co0 O12 2.137 . S
Co0 O13 2.244 . S
O1 Co0 2.216 . S
O1 C8 1.247 . S
O2 Co0 2.091 . S
O2 C8 1.261 . S
C3 O12 1.247 . S
C3 O13 1.272 . S
O4 Co0 2.004 . S
O4 C9 1.259 . S
Co5 O6 2.061 . S
Co5 O11 2.052 . S
Co5 O13 2.135 . S
O6 Co5 2.061 . S
O6 C9 1.235 . S
C7 O10 1.238 . S
C7 O11 1.241 . S
C8 O1 1.247 . S
C8 O2 1.261 . S
C9 O4 1.259 . S
C9 O6 1.235 . S
O10 Co0 2.021 . S
O10 C7 1.238 . S
O11 Co5 2.052 . S
O11 C7 1.241 . S
O12 Co0 2.137 . S
O12 C3 1.247 . S
O13 Co0 2.244 . S
O13 C3 1.272 . S
O13 Co5 2.135 . S
Co14 O15 2.216 1_655 S
Co14 O16 2.091 1_655 S
Co14 O18 2.004 . S
Co14 O24 2.021 . S
Co14 O26 2.137 1_655 S
Co14 O27 2.244 . S
O15 Co14 2.216 1_455 S
O15 C22 1.247 . S
O16 Co14 2.091 1_455 S
O16 C22 1.261 . S
C17 O26 1.247 . S
C17 O27 1.272 1_455 S
O18 Co14 2.004 . S
O18 C23 1.259 . S
Co19 O20 2.061 . S
Co19 O25 2.052 . S
Co19 O27 2.135 . S
O20 Co19 2.061 . S
O20 C23 1.235 . S
C21 O24 1.238 . S
C21 O25 1.241 . S
C22 O15 1.247 . S
C22 O16 1.261 . S
C23 O18 1.259 . S
C23 O20 1.235 . S
O24 Co14 2.021 . S
O24 C21 1.238 . S
O25 Co19 2.052 . S
O25 C21 1.241 . S
O26 Co14 2.137 1_455 S
O26 C17 1.247 . S
O27 Co14 2.244 . S
O27 C17 1.272 1_655 S
O27 Co19 2.135 . S
Co28 O29 2.216 . S
Co28 O30 2.091 . S
Co28 O32 2.004 . S
Co28 O38 2.021 . S
Co28 O40 2.137 . S
Co28 O41 2.244 . S
O29 Co28 2.216 . S
O29 C36 1.247 . S
O30 Co28 2.091 . S
O30 C36 1.261 . S
C31 O40 1.247 . S
C31 O41 1.272 . S
O32 Co28 2.004 . S
O32 C37 1.259 . S
Co33 O34 2.061 . S
Co33 O39 2.052 . S
Co33 O41 2.135 . S
O34 Co33 2.061 . S
O34 C37 1.235 . S
C35 O38 1.238 . S
C35 O39 1.241 . S
C36 O29 1.247 . S
C36 O30 1.261 . S
C37 O32 1.259 . S
C37 O34 1.235 . S
O38 Co28 2.021 . S
O38 C35 1.238 . S
O39 Co33 2.052 . S
O39 C35 1.241 . S
O40 Co28 2.137 . S
O40 C31 1.247 . S
O41 Co28 2.244 . S
O41 C31 1.272 . S
O41 Co33 2.135 . S
Co42 O43 2.216 . S
Co42 O44 2.091 . S
Co42 O46 2.004 . S
Co42 O52 2.021 . S
Co42 O54 2.137 . S
Co42 O55 2.244 . S
O43 Co42 2.216 . S
O43 C50 1.247 . S
O44 Co42 2.091 . S
O44 C50 1.261 . S
C45 O54 1.247 . S
C45 O55 1.272 . S
O46 Co42 2.004 . S
O46 C51 1.259 . S
Co47 O48 2.061 . S
Co47 O53 2.052 . S
Co47 O55 2.135 . S
O48 Co47 2.061 . S
O48 C51 1.235 . S
C49 O52 1.238 . S
C49 O53 1.241 . S
C50 O43 1.247 . S
C50 O44 1.261 . S
C51 O46 1.259 . S
C51 O48 1.235 . S
O52 Co42 2.021 . S
O52 C49 1.238 . S
O53 Co47 2.052 . S
O53 C49 1.241 . S
O54 Co42 2.137 . S
O54 C45 1.247 . S
O55 Co42 2.244 . S
O55 C45 1.272 . S
O55 Co47 2.135 . S
Co56 O57 2.216 . S
Co56 O58 2.091 . S
Co56 O60 2.004 . S
Co56 O66 2.021 . S
Co56 O68 2.137 . S
Co56 O69 2.244 . S
O57 Co56 2.216 . S
O57 C64 1.247 . S
O58 Co56 2.091 . S
O58 C64 1.261 . S
C59 O68 1.247 . S
C59 O69 1.272 . S
O60 Co56 2.004 . S
O60 C65 1.259 . S
Co61 O62 2.061 . S
Co61 O67 2.052 . S
Co61 O69 2.135 . S
O62 Co61 2.061 . S
O62 C65 1.235 . S
C63 O66 1.238 . S
C63 O67 1.241 . S
C64 O57 1.247 . S
C64 O58 1.261 . S
C65 O60 1.259 . S
C65 O62 1.235 . S
O66 Co56 2.021 . S
O66 C63 1.238 . S
O67 Co61 2.052 . S
O67 C63 1.241 . S
O68 Co56 2.137 . S
O68 C59 1.247 . S
O69 Co56 2.244 . S
O69 C59 1.272 . S
O69 Co61 2.135 . S
Co70 O71 2.216 . S
Co70 O72 2.091 . S
Co70 O74 2.004 . S
Co70 O80 2.021 . S
Co70 O82 2.137 . S
Co70 O83 2.244 . S
O71 Co70 2.216 . S
O71 C78 1.247 . S
O72 Co70 2.091 . S
O72 C78 1.261 . S
C73 O82 1.247 . S
C73 O83 1.272 . S
O74 Co70 2.004 . S
O74 C79 1.259 . S
Co75 O76 2.061 . S
Co75 O81 2.052 . S
Co75 O83 2.135 . S
O76 Co75 2.061 . S
O76 C79 1.235 . S
C77 O80 1.238 . S
C77 O81 1.241 . S
C78 O71 1.247 . S
C78 O72 1.261 . S
C79 O74 1.259 . S
C79 O76 1.235 . S
O80 Co70 2.021 . S
O80 C77 1.238 . S
O81 Co75 2.052 . S
O81 C77 1.241 . S
O82 Co70 2.137 . S
O82 C73 1.247 . S
O83 Co70 2.244 . S
O83 C73 1.272 . S
O83 Co75 2.135 . S
Co84 O85 2.216 . S
Co84 O86 2.091 . S
Co84 O88 2.004 . S
Co84 O94 2.021 . S
Co84 O96 2.137 . S
Co84 O97 2.244 . S
O85 Co84 2.216 . S
O85 C92 1.247 . S
O86 Co84 2.091 . S
O86 C92 1.261 . S
C87 O96 1.247 . S
C87 O97 1.272 . S
O88 Co84 2.004 . S
O88 C93 1.259 . S
Co89 O90 2.061 . S
Co89 O95 2.052 . S
Co89 O97 2.135 . S
O90 Co89 2.061 . S
O90 C93 1.235 . S
C91 O94 1.238 . S
C91 O95 1.241 . S
C92 O85 1.247 . S
C92 O86 1.261 . S
C93 O88 1.259 . S
C93 O90 1.235 . S
O94 Co84 2.021 . S
O94 C91 1.238 . S
O95 Co89 2.052 . S
O95 C91 1.241 . S
O96 Co84 2.137 . S
O96 C87 1.247 . S
O97 Co84 2.244 . S
O97 C87 1.272 . S
O97 Co89 2.135 . S
Co98 O99 2.216 1_655 S
Co98 O100 2.091 1_655 S
Co98 O102 2.004 . S
Co98 O108 2.021 . S
Co98 O110 2.137 1_655 S
Co98 O111 2.244 . S
O99 Co98 2.216 1_455 S
O99 C106 1.247 . S
O100 Co98 2.091 1_455 S
O100 C106 1.261 . S
C101 O110 1.247 . S
C101 O111 1.272 1_455 S
O102 Co98 2.004 . S
O102 C107 1.259 . S
Co103 O104 2.061 . S
Co103 O109 2.052 . S
Co103 O111 2.135 . S
O104 Co103 2.061 . S
O104 C107 1.235 . S
C105 O108 1.238 . S
C105 O109 1.241 . S
C106 O99 1.247 . S
C106 O100 1.261 . S
C107 O102 1.259 . S
C107 O104 1.235 . S
O108 Co98 2.021 . S
O108 C105 1.238 . S
O109 Co103 2.052 . S
O109 C105 1.241 . S
O110 Co98 2.137 1_455 S
O110 C101 1.247 . S
O111 Co98 2.244 . S
O111 C101 1.272 1_655 S
O111 Co103 2.135 . S
Co112 O113 2.216 . S
Co112 O114 2.091 . S
Co112 O116 2.004 . S
Co112 O122 2.021 . S
Co112 O124 2.137 . S
Co112 O125 2.244 . S
O113 Co112 2.216 . S
O113 C120 1.247 . S
O114 Co112 2.091 . S
O114 C120 1.261 . S
C115 O124 1.247 . S
C115 O125 1.272 . S
O116 Co112 2.004 . S
O116 C121 1.259 . S
Co117 O118 2.061 . S
Co117 O123 2.052 . S
Co117 O125 2.135 . S
O118 Co117 2.061 . S
O118 C121 1.235 . S
C119 O122 1.238 . S
C119 O123 1.241 . S
C120 O113 1.247 . S
C120 O114 1.261 . S
C121 O116 1.259 . S
C121 O118 1.235 . S
O122 Co112 2.021 . S
O122 C119 1.238 . S
O123 Co117 2.052 . S
O123 C119 1.241 . S
O124 Co112 2.137 . S
O124 C115 1.247 . S
O125 Co112 2.244 . S
O125 C115 1.272 . S
O125 Co117 2.135 . S
Co126 O127 2.216 . S
Co126 O128 2.091 . S
Co126 O130 2.004 . S
Co126 O136 2.021 . S
Co126 O138 2.137 . S
Co126 O139 2.244 . S
O127 Co126 2.216 . S
O127 C134 1.247 . S
O128 Co126 2.091 . S
O128 C134 1.261 . S
C129 O138 1.247 . S
C129 O139 1.272 . S
O130 Co126 2.004 . S
O130 C135 1.259 . S
Co131 O132 2.061 . S
Co131 O137 2.052 . S
Co131 O139 2.135 . S
O132 Co131 2.061 . S
O132 C135 1.235 . S
C133 O136 1.238 . S
C133 O137 1.241 . S
C134 O127 1.247 . S
C134 O128 1.261 . S
C135 O130 1.259 . S
C135 O132 1.235 . S
O136 Co126 2.021 . S
O136 C133 1.238 . S
O137 Co131 2.052 . S
O137 C133 1.241 . S
O138 Co126 2.137 . S
O138 C129 1.247 . S
O139 Co126 2.244 . S
O139 C129 1.272 . S
O139 Co131 2.135 . S
Co140 O141 2.216 . S
Co140 O142 2.091 . S
Co140 O144 2.004 . S
Co140 O150 2.021 . S
Co140 O152 2.137 . S
Co140 O153 2.244 . S
O141 Co140 2.216 . S
O141 C148 1.247 . S
O142 Co140 2.091 . S
O142 C148 1.261 . S
C143 O152 1.247 . S
C143 O153 1.272 . S
O144 Co140 2.004 . S
O144 C149 1.259 . S
Co145 O146 2.061 . S
Co145 O151 2.052 . S
Co145 O153 2.135 . S
O146 Co145 2.061 . S
O146 C149 1.235 . S
C147 O150 1.238 . S
C147 O151 1.241 . S
C148 O141 1.247 . S
C148 O142 1.261 . S
C149 O144 1.259 . S
C149 O146 1.235 . S
O150 Co140 2.021 . S
O150 C147 1.238 . S
O151 Co145 2.052 . S
O151 C147 1.241 . S
O152 Co140 2.137 . S
O152 C143 1.247 . S
O153 Co140 2.244 . S
O153 C143 1.272 . S
O153 Co145 2.135 . S
Co154 O155 2.216 1_554 S
Co154 O156 2.091 1_554 S
Co154 O158 2.004 . S
Co154 O164 2.021 . S
Co154 O166 2.137 1_554 S
Co154 O167 2.244 . S
O155 Co154 2.216 1_556 S
O155 C162 1.247 . S
O156 Co154 2.091 1_556 S
O156 C162 1.261 . S
C157 O166 1.247 . S
C157 O167 1.272 1_556 S
O158 Co154 2.004 . S
O158 C163 1.259 . S
Co159 O160 2.061 . S
Co159 O165 2.052 . S
Co159 O167 2.135 . S
O160 Co159 2.061 . S
O160 C163 1.235 . S
C161 O164 1.238 . S
C161 O165 1.241 . S
C162 O155 1.247 . S
C162 O156 1.261 . S
C163 O158 1.259 . S
C163 O160 1.235 . S
O164 Co154 2.021 . S
O164 C161 1.238 . S
O165 Co159 2.052 . S
O165 C161 1.241 . S
O166 Co154 2.137 1_556 S
O166 C157 1.247 . S
O167 Co154 2.244 . S
O167 C157 1.272 1_554 S
O167 Co159 2.135 . S
Co168 O169 2.216 . S
Co168 O170 2.091 . S
Co168 O172 2.004 . S
Co168 O178 2.021 . S
Co168 O180 2.137 . S
Co168 O181 2.244 . S
O169 Co168 2.216 . S
O169 C176 1.247 . S
O170 Co168 2.091 . S
O170 C176 1.261 . S
C171 O180 1.247 . S
C171 O181 1.272 . S
O172 Co168 2.004 . S
O172 C177 1.259 . S
Co173 O174 2.061 . S
Co173 O179 2.052 . S
Co173 O181 2.135 . S
O174 Co173 2.061 . S
O174 C177 1.235 . S
C175 O178 1.238 . S
C175 O179 1.241 . S
C176 O169 1.247 . S
C176 O170 1.261 . S
C177 O172 1.259 . S
C177 O174 1.235 . S
O178 Co168 2.021 . S
O178 C175 1.238 . S
O179 Co173 2.052 . S
O179 C175 1.241 . S
O180 Co168 2.137 . S
O180 C171 1.247 . S
O181 Co168 2.244 . S
O181 C171 1.272 . S
O181 Co173 2.135 . S
Co182 O183 2.216 . S
Co182 O184 2.091 . S
Co182 O186 2.004 . S
Co182 O192 2.021 . S
Co182 O194 2.137 . S
Co182 O195 2.244 . S
O183 Co182 2.216 . S
O183 C190 1.247 . S
O184 Co182 2.091 . S
O184 C190 1.261 . S
C185 O194 1.247 . S
C185 O195 1.272 . S
O186 Co182 2.004 . S
O186 C191 1.259 . S
Co187 O188 2.061 . S
Co187 O193 2.052 . S
Co187 O195 2.135 . S
O188 Co187 2.061 . S
O188 C191 1.235 . S
C189 O192 1.238 . S
C189 O193 1.241 . S
C190 O183 1.247 . S
C190 O184 1.261 . S
C191 O186 1.259 . S
C191 O188 1.235 . S
O192 Co182 2.021 . S
O192 C189 1.238 . S
O193 Co187 2.052 . S
O193 C189 1.241 . S
O194 Co182 2.137 . S
O194 C185 1.247 . S
O195 Co182 2.244 . S
O195 C185 1.272 . S
O195 Co187 2.135 . S
Co196 O197 2.216 . S
Co196 O198 2.091 . S
Co196 O200 2.004 . S
Co196 O206 2.021 . S
Co196 O208 2.137 . S
Co196 O209 2.244 . S
O197 Co196 2.216 . S
O197 C204 1.247 . S
O198 Co196 2.091 . S
O198 C204 1.261 . S
C199 O208 1.247 . S
C199 O209 1.272 . S
O200 Co196 2.004 . S
O200 C205 1.259 . S
Co201 O202 2.061 . S
Co201 O207 2.052 . S
Co201 O209 2.135 . S
O202 Co201 2.061 . S
O202 C205 1.235 . S
C203 O206 1.238 . S
C203 O207 1.241 . S
C204 O197 1.247 . S
C204 O198 1.261 . S
C205 O200 1.259 . S
C205 O202 1.235 . S
O206 Co196 2.021 . S
O206 C203 1.238 . S
O207 Co201 2.052 . S
O207 C203 1.241 . S
O208 Co196 2.137 . S
O208 C199 1.247 . S
O209 Co196 2.244 . S
O209 C199 1.272 . S
O209 Co201 2.135 . S
Co210 O211 2.216 1_556 S
Co210 O212 2.091 1_556 S
Co210 O214 2.004 . S
Co210 O220 2.021 . S
Co210 O222 2.137 1_556 S
Co210 O223 2.244 . S
O211 Co210 2.216 1_554 S
O211 C218 1.247 . S
O212 Co210 2.091 1_554 S
O212 C218 1.261 . S
C213 O222 1.247 . S
C213 O223 1.272 1_554 S
O214 Co210 2.004 . S
O214 C219 1.259 . S
Co215 O216 2.061 . S
Co215 O221 2.052 . S
Co215 O223 2.135 . S
O216 Co215 2.061 . S
O216 C219 1.235 . S
C217 O220 1.238 . S
C217 O221 1.241 . S
C218 O211 1.247 . S
C218 O212 1.261 . S
C219 O214 1.259 . S
C219 O216 1.235 . S
O220 Co210 2.021 . S
O220 C217 1.238 . S
O221 Co215 2.052 . S
O221 C217 1.241 . S
O222 Co210 2.137 1_554 S
O222 C213 1.247 . S
O223 Co210 2.244 . S
O223 C213 1.272 1_556 S
O223 Co215 2.135 . S
Co224 O225 2.216 . S
Co224 O226 2.091 . S
Co224 O228 2.004 . S
Co224 O234 2.021 . S
Co224 O236 2.137 . S
Co224 O237 2.244 . S
O225 Co224 2.216 . S
O225 C232 1.247 . S
O226 Co224 2.091 . S
O226 C232 1.261 . S
C227 O236 1.247 . S
C227 O237 1.272 . S
O228 Co224 2.004 . S
O228 C233 1.259 . S
Co229 O230 2.061 . S
Co229 O235 2.052 . S
Co229 O237 2.135 . S
O230 Co229 2.061 . S
O230 C233 1.235 . S
C231 O234 1.238 . S
C231 O235 1.241 . S
C232 O225 1.247 . S
C232 O226 1.261 . S
C233 O228 1.259 . S
C233 O230 1.235 . S
O234 Co224 2.021 . S
O234 C231 1.238 . S
O235 Co229 2.052 . S
O235 C231 1.241 . S
O236 Co224 2.137 . S
O236 C227 1.247 . S
O237 Co224 2.244 . S
O237 C227 1.272 . S
O237 Co229 2.135 . S
Co238 O239 2.216 . S
Co238 O240 2.091 . S
Co238 O242 2.004 . S
Co238 O248 2.021 . S
Co238 O250 2.137 . S
Co238 O251 2.244 . S
O239 Co238 2.216 . S
O239 C246 1.247 . S
O240 Co238 2.091 . S
O240 C246 1.261 . S
C241 O250 1.247 . S
C241 O251 1.272 . S
O242 Co238 2.004 . S
O242 C247 1.259 . S
Co243 O244 2.061 . S
Co243 O249 2.052 . S
Co243 O251 2.135 . S
O244 Co243 2.061 . S
O244 C247 1.235 . S
C245 O248 1.238 . S
C245 O249 1.241 . S
C246 O239 1.247 . S
C246 O240 1.261 . S
C247 O242 1.259 . S
C247 O244 1.235 . S
O248 Co238 2.021 . S
O248 C245 1.238 . S
O249 Co243 2.052 . S
O249 C245 1.241 . S
O250 Co238 2.137 . S
O250 C241 1.247 . S
O251 Co238 2.244 . S
O251 C241 1.272 . S
O251 Co243 2.135 . S
Co252 O253 2.216 . S
Co252 O254 2.091 . S
Co252 O256 2.004 . S
Co252 O262 2.021 . S
Co252 O264 2.137 . S
Co252 O265 2.244 . S
O253 Co252 2.216 . S
O253 C260 1.247 . S
O254 Co252 2.091 . S
O254 C260 1.261 . S
C255 O264 1.247 . S
C255 O265 1.272 . S
O256 Co252 2.004 . S
O256 C261 1.259 . S
Co257 O258 2.061 . S
Co257 O263 2.052 . S
Co257 O265 2.135 . S
O258 Co257 2.061 . S
O258 C261 1.235 . S
C259 O262 1.238 . S
C259 O263 1.241 . S
C260 O253 1.247 . S
C260 O254 1.261 . S
C261 O256 1.259 . S
C261 O258 1.235 . S
O262 Co252 2.021 . S
O262 C259 1.238 . S
O263 Co257 2.052 . S
O263 C259 1.241 . S
O264 Co252 2.137 . S
O264 C255 1.247 . S
O265 Co252 2.244 . S
O265 C255 1.272 . S
O265 Co257 2.135 . S
Co266 O267 2.216 . S
Co266 O268 2.091 . S
Co266 O270 2.004 . S
Co266 O276 2.021 . S
Co266 O278 2.137 . S
Co266 O279 2.244 . S
O267 Co266 2.216 . S
O267 C274 1.247 . S
O268 Co266 2.091 . S
O268 C274 1.261 . S
C269 O278 1.247 . S
C269 O279 1.272 . S
O270 Co266 2.004 . S
O270 C275 1.259 . S
Co271 O272 2.061 . S
Co271 O277 2.052 . S
Co271 O279 2.135 . S
O272 Co271 2.061 . S
O272 C275 1.235 . S
C273 O276 1.238 . S
C273 O277 1.241 . S
C274 O267 1.247 . S
C274 O268 1.261 . S
C275 O270 1.259 . S
C275 O272 1.235 . S
O276 Co266 2.021 . S
O276 C273 1.238 . S
O277 Co271 2.052 . S
O277 C273 1.241 . S
O278 Co266 2.137 . S
O278 C269 1.247 . S
O279 Co266 2.244 . S
O279 C269 1.272 . S
O279 Co271 2.135 . S
Co280 O281 2.216 1_565 S
Co280 O282 2.091 1_565 S
Co280 O284 2.004 . S
Co280 O290 2.021 . S
Co280 O292 2.137 1_565 S
Co280 O293 2.244 . S
O281 Co280 2.216 1_545 S
O281 C288 1.247 . S
O282 Co280 2.091 1_545 S
O282 C288 1.261 . S
C283 O292 1.247 . S
C283 O293 1.272 1_545 S
O284 Co280 2.004 . S
O284 C289 1.259 . S
Co285 O286 2.061 . S
Co285 O291 2.052 . S
Co285 O293 2.135 . S
O286 Co285 2.061 . S
O286 C289 1.235 . S
C287 O290 1.238 . S
C287 O291 1.241 . S
C288 O281 1.247 . S
C288 O282 1.261 . S
C289 O284 1.259 . S
C289 O286 1.235 . S
O290 Co280 2.021 . S
O290 C287 1.238 . S
O291 Co285 2.052 . S
O291 C287 1.241 . S
O292 Co280 2.137 1_545 S
O292 C283 1.247 . S
O293 Co280 2.244 . S
O293 C283 1.272 1_565 S
O293 Co285 2.135 . S
Co294 O295 2.216 . S
Co294 O296 2.091 . S
Co294 O298 2.004 . S
Co294 O304 2.021 . S
Co294 O306 2.137 . S
Co294 O307 2.244 . S
O295 Co294 2.216 . S
O295 C302 1.247 . S
O296 Co294 2.091 . S
O296 C302 1.261 . S
C297 O306 1.247 . S
C297 O307 1.272 . S
O298 Co294 2.004 . S
O298 C303 1.259 . S
Co299 O300 2.061 . S
Co299 O305 2.052 . S
Co299 O307 2.135 . S
O300 Co299 2.061 . S
O300 C303 1.235 . S
C301 O304 1.238 . S
C301 O305 1.241 . S
C302 O295 1.247 . S
C302 O296 1.261 . S
C303 O298 1.259 . S
C303 O300 1.235 . S
O304 Co294 2.021 . S
O304 C301 1.238 . S
O305 Co299 2.052 . S
O305 C301 1.241 . S
O306 Co294 2.137 . S
O306 C297 1.247 . S
O307 Co294 2.244 . S
O307 C297 1.272 . S
O307 Co299 2.135 . S
Co308 O309 2.216 . S
Co308 O310 2.091 . S
Co308 O312 2.004 . S
Co308 O318 2.021 . S
Co308 O320 2.137 . S
Co308 O321 2.244 . S
O309 Co308 2.216 . S
O309 C316 1.247 . S
O310 Co308 2.091 . S
O310 C316 1.261 . S
C311 O320 1.247 . S
C311 O321 1.272 . S
O312 Co308 2.004 . S
O312 C317 1.259 . S
Co313 O314 2.061 . S
Co313 O319 2.052 . S
Co313 O321 2.135 . S
O314 Co313 2.061 . S
O314 C317 1.235 . S
C315 O318 1.238 . S
C315 O319 1.241 . S
C316 O309 1.247 . S
C316 O310 1.261 . S
C317 O312 1.259 . S
C317 O314 1.235 . S
O318 Co308 2.021 . S
O318 C315 1.238 . S
O319 Co313 2.052 . S
O319 C315 1.241 . S
O320 Co308 2.137 . S
O320 C311 1.247 . S
O321 Co308 2.244 . S
O321 C311 1.272 . S
O321 Co313 2.135 . S
Co322 O323 2.216 . S
Co322 O324 2.091 . S
Co322 O326 2.004 . S
Co322 O332 2.021 . S
Co322 O334 2.137 . S
Co322 O335 2.244 . S
O323 Co322 2.216 . S
O323 C330 1.247 . S
O324 Co322 2.091 . S
O324 C330 1.261 . S
C325 O334 1.247 . S
C325 O335 1.272 . S
O326 Co322 2.004 . S
O326 C331 1.259 . S
Co327 O328 2.061 . S
Co327 O333 2.052 . S
Co327 O335 2.135 . S
O328 Co327 2.061 . S
O328 C331 1.235 . S
C329 O332 1.238 . S
C329 O333 1.241 . S
C330 O323 1.247 . S
C330 O324 1.261 . S
C331 O326 1.259 . S
C331 O328 1.235 . S
O332 Co322 2.021 . S
O332 C329 1.238 . S
O333 Co327 2.052 . S
O333 C329 1.241 . S
O334 Co322 2.137 . S
O334 C325 1.247 . S
O335 Co322 2.244 . S
O335 C325 1.272 . S
O335 Co327 2.135 . S
Co336 O337 2.216 . S
Co336 O338 2.091 . S
Co336 O340 2.004 . S
Co336 O346 2.021 . S
Co336 O348 2.137 . S
Co336 O349 2.244 . S
O337 Co336 2.216 . S
O337 C344 1.247 . S
O338 Co336 2.091 . S
O338 C344 1.261 . S
C339 O348 1.247 . S
C339 O349 1.272 . S
O340 Co336 2.004 . S
O340 C345 1.259 . S
Co341 O342 2.061 . S
Co341 O347 2.052 . S
Co341 O349 2.135 . S
O342 Co341 2.061 . S
O342 C345 1.235 . S
C343 O346 1.238 . S
C343 O347 1.241 . S
C344 O337 1.247 . S
C344 O338 1.261 . S
C345 O340 1.259 . S
C345 O342 1.235 . S
O346 Co336 2.021 . S
O346 C343 1.238 . S
O347 Co341 2.052 . S
O347 C343 1.241 . S
O348 Co336 2.137 . S
O348 C339 1.247 . S
O349 Co336 2.244 . S
O349 C339 1.272 . S
O349 Co341 2.135 . S
Co350 O351 2.216 . S
Co350 O352 2.091 . S
Co350 O354 2.004 . S
Co350 O360 2.021 . S
Co350 O362 2.137 . S
Co350 O363 2.244 . S
O351 Co350 2.216 . S
O351 C358 1.247 . S
O352 Co350 2.091 . S
O352 C358 1.261 . S
C353 O362 1.247 . S
C353 O363 1.272 . S
O354 Co350 2.004 . S
O354 C359 1.259 . S
Co355 O356 2.061 . S
Co355 O361 2.052 . S
Co355 O363 2.135 . S
O356 Co355 2.061 . S
O356 C359 1.235 . S
C357 O360 1.238 . S
C357 O361 1.241 . S
C358 O351 1.247 . S
C358 O352 1.261 . S
C359 O354 1.259 . S
C359 O356 1.235 . S
O360 Co350 2.021 . S
O360 C357 1.238 . S
O361 Co355 2.052 . S
O361 C357 1.241 . S
O362 Co350 2.137 . S
O362 C353 1.247 . S
O363 Co350 2.244 . S
O363 C353 1.272 . S
O363 Co355 2.135 . S
Co364 O365 2.216 . S
Co364 O366 2.091 . S
Co364 O368 2.004 . S
Co364 O374 2.021 . S
Co364 O376 2.137 . S
Co364 O377 2.244 . S
O365 Co364 2.216 . S
O365 C372 1.247 . S
O366 Co364 2.091 . S
O366 C372 1.261 . S
C367 O376 1.247 . S
C367 O377 1.272 . S
O368 Co364 2.004 . S
O368 C373 1.259 . S
Co369 O370 2.061 . S
Co369 O375 2.052 . S
Co369 O377 2.135 . S
O370 Co369 2.061 . S
O370 C373 1.235 . S
C371 O374 1.238 . S
C371 O375 1.241 . S
C372 O365 1.247 . S
C372 O366 1.261 . S
C373 O368 1.259 . S
C373 O370 1.235 . S
O374 Co364 2.021 . S
O374 C371 1.238 . S
O375 Co369 2.052 . S
O375 C371 1.241 . S
O376 Co364 2.137 . S
O376 C367 1.247 . S
O377 Co364 2.244 . S
O377 C367 1.272 . S
O377 Co369 2.135 . S
Co378 O379 2.216 1_455 S
Co378 O380 2.091 1_455 S
Co378 O382 2.004 . S
Co378 O388 2.021 . S
Co378 O390 2.137 1_455 S
Co378 O391 2.244 . S
O379 Co378 2.216 1_655 S
O379 C386 1.247 . S
O380 Co378 2.091 1_655 S
O380 C386 1.261 . S
C381 O390 1.247 . S
C381 O391 1.272 1_655 S
O382 Co378 2.004 . S
O382 C387 1.259 . S
Co383 O384 2.061 . S
Co383 O389 2.052 . S
Co383 O391 2.135 . S
O384 Co383 2.061 . S
O384 C387 1.235 . S
C385 O388 1.238 . S
C385 O389 1.241 . S
C386 O379 1.247 . S
C386 O380 1.261 . S
C387 O382 1.259 . S
C387 O384 1.235 . S
O388 Co378 2.021 . S
O388 C385 1.238 . S
O389 Co383 2.052 . S
O389 C385 1.241 . S
O390 Co378 2.137 1_655 S
O390 C381 1.247 . S
O391 Co378 2.244 . S
O391 C381 1.272 1_455 S
O391 Co383 2.135 . S
Co392 O393 2.216 . S
Co392 O394 2.091 . S
Co392 O396 2.004 . S
Co392 O402 2.021 . S
Co392 O404 2.137 . S
Co392 O405 2.244 . S
O393 Co392 2.216 . S
O393 C400 1.247 . S
O394 Co392 2.091 . S
O394 C400 1.261 . S
C395 O404 1.247 . S
C395 O405 1.272 . S
O396 Co392 2.004 . S
O396 C401 1.259 . S
Co397 O398 2.061 . S
Co397 O403 2.052 . S
Co397 O405 2.135 . S
O398 Co397 2.061 . S
O398 C401 1.235 . S
C399 O402 1.238 . S
C399 O403 1.241 . S
C400 O393 1.247 . S
C400 O394 1.261 . S
C401 O396 1.259 . S
C401 O398 1.235 . S
O402 Co392 2.021 . S
O402 C399 1.238 . S
O403 Co397 2.052 . S
O403 C399 1.241 . S
O404 Co392 2.137 . S
O404 C395 1.247 . S
O405 Co392 2.244 . S
O405 C395 1.272 . S
O405 Co397 2.135 . S
Co406 O407 2.216 1_455 S
Co406 O408 2.091 1_455 S
Co406 O410 2.004 . S
Co406 O416 2.021 . S
Co406 O418 2.137 1_455 S
Co406 O419 2.244 . S
O407 Co406 2.216 1_655 S
O407 C414 1.247 . S
O408 Co406 2.091 1_655 S
O408 C414 1.261 . S
C409 O418 1.247 . S
C409 O419 1.272 1_655 S
O410 Co406 2.004 . S
O410 C415 1.259 . S
Co411 O412 2.061 . S
Co411 O417 2.052 . S
Co411 O419 2.135 . S
O412 Co411 2.061 . S
O412 C415 1.235 . S
C413 O416 1.238 . S
C413 O417 1.241 . S
C414 O407 1.247 . S
C414 O408 1.261 . S
C415 O410 1.259 . S
C415 O412 1.235 . S
O416 Co406 2.021 . S
O416 C413 1.238 . S
O417 Co411 2.052 . S
O417 C413 1.241 . S
O418 Co406 2.137 1_655 S
O418 C409 1.247 . S
O419 Co406 2.244 . S
O419 C409 1.272 1_455 S
O419 Co411 2.135 . S
Co420 O421 2.216 . S
Co420 O422 2.091 . S
Co420 O424 2.004 . S
Co420 O430 2.021 . S
Co420 O432 2.137 . S
Co420 O433 2.244 . S
O421 Co420 2.216 . S
O421 C428 1.247 . S
O422 Co420 2.091 . S
O422 C428 1.261 . S
C423 O432 1.247 . S
C423 O433 1.272 . S
O424 Co420 2.004 . S
O424 C429 1.259 . S
Co425 O426 2.061 . S
Co425 O431 2.052 . S
Co425 O433 2.135 . S
O426 Co425 2.061 . S
O426 C429 1.235 . S
C427 O430 1.238 . S
C427 O431 1.241 . S
C428 O421 1.247 . S
C428 O422 1.261 . S
C429 O424 1.259 . S
C429 O426 1.235 . S
O430 Co420 2.021 . S
O430 C427 1.238 . S
O431 Co425 2.052 . S
O431 C427 1.241 . S
O432 Co420 2.137 . S
O432 C423 1.247 . S
O433 Co420 2.244 . S
O433 C423 1.272 . S
O433 Co425 2.135 . S
Co434 O435 2.216 . S
Co434 O436 2.091 . S
Co434 O438 2.004 . S
Co434 O444 2.021 . S
Co434 O446 2.137 . S
Co434 O447 2.244 . S
O435 Co434 2.216 . S
O435 C442 1.247 . S
O436 Co434 2.091 . S
O436 C442 1.261 . S
C437 O446 1.247 . S
C437 O447 1.272 . S
O438 Co434 2.004 . S
O438 C443 1.259 . S
Co439 O440 2.061 . S
Co439 O445 2.052 . S
Co439 O447 2.135 . S
O440 Co439 2.061 . S
O440 C443 1.235 . S
C441 O444 1.238 . S
C441 O445 1.241 . S
C442 O435 1.247 . S
C442 O436 1.261 . S
C443 O438 1.259 . S
C443 O440 1.235 . S
O444 Co434 2.021 . S
O444 C441 1.238 . S
O445 Co439 2.052 . S
O445 C441 1.241 . S
O446 Co434 2.137 . S
O446 C437 1.247 . S
O447 Co434 2.244 . S
O447 C437 1.272 . S
O447 Co439 2.135 . S
Co448 O449 2.216 . S
Co448 O450 2.091 . S
Co448 O452 2.004 . S
Co448 O458 2.021 . S
Co448 O460 2.137 . S
Co448 O461 2.244 . S
O449 Co448 2.216 . S
O449 C456 1.247 . S
O450 Co448 2.091 . S
O450 C456 1.261 . S
C451 O460 1.247 . S
C451 O461 1.272 . S
O452 Co448 2.004 . S
O452 C457 1.259 . S
Co453 O454 2.061 . S
Co453 O459 2.052 . S
Co453 O461 2.135 . S
O454 Co453 2.061 . S
O454 C457 1.235 . S
C455 O458 1.238 . S
C455 O459 1.241 . S
C456 O449 1.247 . S
C456 O450 1.261 . S
C457 O452 1.259 . S
C457 O454 1.235 . S
O458 Co448 2.021 . S
O458 C455 1.238 . S
O459 Co453 2.052 . S
O459 C455 1.241 . S
O460 Co448 2.137 . S
O460 C451 1.247 . S
O461 Co448 2.244 . S
O461 C451 1.272 . S
O461 Co453 2.135 . S
Co462 O463 2.216 1_554 S
Co462 O464 2.091 1_554 S
Co462 O466 2.004 . S
Co462 O472 2.021 . S
Co462 O474 2.137 1_554 S
Co462 O475 2.244 . S
O463 Co462 2.216 1_556 S
O463 C470 1.247 . S
O464 Co462 2.091 1_556 S
O464 C470 1.261 . S
C465 O474 1.247 . S
C465 O475 1.272 1_556 S
O466 Co462 2.004 . S
O466 C471 1.259 . S
Co467 O468 2.061 . S
Co467 O473 2.052 . S
Co467 O475 2.135 . S
O468 Co467 2.061 . S
O468 C471 1.235 . S
C469 O472 1.238 . S
C469 O473 1.241 . S
C470 O463 1.247 . S
C470 O464 1.261 . S
C471 O466 1.259 . S
C471 O468 1.235 . S
O472 Co462 2.021 . S
O472 C469 1.238 . S
O473 Co467 2.052 . S
O473 C469 1.241 . S
O474 Co462 2.137 1_556 S
O474 C465 1.247 . S
O475 Co462 2.244 . S
O475 C465 1.272 1_554 S
O475 Co467 2.135 . S
Co476 O477 2.216 . S
Co476 O478 2.091 . S
Co476 O480 2.004 . S
Co476 O486 2.021 . S
Co476 O488 2.137 . S
Co476 O489 2.244 . S
O477 Co476 2.216 . S
O477 C484 1.247 . S
O478 Co476 2.091 . S
O478 C484 1.261 . S
C479 O488 1.247 . S
C479 O489 1.272 . S
O480 Co476 2.004 . S
O480 C485 1.259 . S
Co481 O482 2.061 . S
Co481 O487 2.052 . S
Co481 O489 2.135 . S
O482 Co481 2.061 . S
O482 C485 1.235 . S
C483 O486 1.238 . S
C483 O487 1.241 . S
C484 O477 1.247 . S
C484 O478 1.261 . S
C485 O480 1.259 . S
C485 O482 1.235 . S
O486 Co476 2.021 . S
O486 C483 1.238 . S
O487 Co481 2.052 . S
O487 C483 1.241 . S
O488 Co476 2.137 . S
O488 C479 1.247 . S
O489 Co476 2.244 . S
O489 C479 1.272 . S
O489 Co481 2.135 . S
Co490 O491 2.216 . S
Co490 O492 2.091 . S
Co490 O494 2.004 . S
Co490 O500 2.021 . S
Co490 O502 2.137 . S
Co490 O503 2.244 . S
O491 Co490 2.216 . S
O491 C498 1.247 . S
O492 Co490 2.091 . S
O492 C498 1.261 . S
C493 O502 1.247 . S
C493 O503 1.272 . S
O494 Co490 2.004 . S
O494 C499 1.259 . S
Co495 O496 2.061 . S
Co495 O501 2.052 . S
Co495 O503 2.135 . S
O496 Co495 2.061 . S
O496 C499 1.235 . S
C497 O500 1.238 . S
C497 O501 1.241 . S
C498 O491 1.247 . S
C498 O492 1.261 . S
C499 O494 1.259 . S
C499 O496 1.235 . S
O500 Co490 2.021 . S
O500 C497 1.238 . S
O501 Co495 2.052 . S
O501 C497 1.241 . S
O502 Co490 2.137 . S
O502 C493 1.247 . S
O503 Co490 2.244 . S
O503 C493 1.272 . S
O503 Co495 2.135 . S
Co504 O505 2.216 . S
Co504 O506 2.091 . S
Co504 O508 2.004 . S
Co504 O514 2.021 . S
Co504 O516 2.137 . S
Co504 O517 2.244 . S
O505 Co504 2.216 . S
O505 C512 1.247 . S
O506 Co504 2.091 . S
O506 C512 1.261 . S
C507 O516 1.247 . S
C507 O517 1.272 . S
O508 Co504 2.004 . S
O508 C513 1.259 . S
Co509 O510 2.061 . S
Co509 O515 2.052 . S
Co509 O517 2.135 . S
O510 Co509 2.061 . S
O510 C513 1.235 . S
C511 O514 1.238 . S
C511 O515 1.241 . S
C512 O505 1.247 . S
C512 O506 1.261 . S
C513 O508 1.259 . S
C513 O510 1.235 . S
O514 Co504 2.021 . S
O514 C511 1.238 . S
O515 Co509 2.052 . S
O515 C511 1.241 . S
O516 Co504 2.137 . S
O516 C507 1.247 . S
O517 Co504 2.244 . S
O517 C507 1.272 . S
O517 Co509 2.135 . S
Co518 O519 2.216 1_556 S
Co518 O520 2.091 1_556 S
Co518 O522 2.004 . S
Co518 O528 2.021 . S
Co518 O530 2.137 1_556 S
Co518 O531 2.244 . S
O519 Co518 2.216 1_554 S
O519 C526 1.247 . S
O520 Co518 2.091 1_554 S
O520 C526 1.261 . S
C521 O530 1.247 . S
C521 O531 1.272 1_554 S
O522 Co518 2.004 . S
O522 C527 1.259 . S
Co523 O524 2.061 . S
Co523 O529 2.052 . S
Co523 O531 2.135 . S
O524 Co523 2.061 . S
O524 C527 1.235 . S
C525 O528 1.238 . S
C525 O529 1.241 . S
C526 O519 1.247 . S
C526 O520 1.261 . S
C527 O522 1.259 . S
C527 O524 1.235 . S
O528 Co518 2.021 . S
O528 C525 1.238 . S
O529 Co523 2.052 . S
O529 C525 1.241 . S
O530 Co518 2.137 1_554 S
O530 C521 1.247 . S
O531 Co518 2.244 . S
O531 C521 1.272 1_556 S
O531 Co523 2.135 . S
Co532 O533 2.216 . S
Co532 O534 2.091 . S
Co532 O536 2.004 . S
Co532 O542 2.021 . S
Co532 O544 2.137 . S
Co532 O545 2.244 . S
O533 Co532 2.216 . S
O533 C540 1.247 . S
O534 Co532 2.091 . S
O534 C540 1.261 . S
C535 O544 1.247 . S
C535 O545 1.272 . S
O536 Co532 2.004 . S
O536 C541 1.259 . S
Co537 O538 2.061 . S
Co537 O543 2.052 . S
Co537 O545 2.135 . S
O538 Co537 2.061 . S
O538 C541 1.235 . S
C539 O542 1.238 . S
C539 O543 1.241 . S
C540 O533 1.247 . S
C540 O534 1.261 . S
C541 O536 1.259 . S
C541 O538 1.235 . S
O542 Co532 2.021 . S
O542 C539 1.238 . S
O543 Co537 2.052 . S
O543 C539 1.241 . S
O544 Co532 2.137 . S
O544 C535 1.247 . S
O545 Co532 2.244 . S
O545 C535 1.272 . S
O545 Co537 2.135 . S
Co546 O547 2.216 . S
Co546 O548 2.091 . S
Co546 O550 2.004 . S
Co546 O556 2.021 . S
Co546 O558 2.137 . S
Co546 O559 2.244 . S
O547 Co546 2.216 . S
O547 C554 1.247 . S
O548 Co546 2.091 . S
O548 C554 1.261 . S
C549 O558 1.247 . S
C549 O559 1.272 . S
O550 Co546 2.004 . S
O550 C555 1.259 . S
Co551 O552 2.061 . S
Co551 O557 2.052 . S
Co551 O559 2.135 . S
O552 Co551 2.061 . S
O552 C555 1.235 . S
C553 O556 1.238 . S
C553 O557 1.241 . S
C554 O547 1.247 . S
C554 O548 1.261 . S
C555 O550 1.259 . S
C555 O552 1.235 . S
O556 Co546 2.021 . S
O556 C553 1.238 . S
O557 Co551 2.052 . S
O557 C553 1.241 . S
O558 Co546 2.137 . S
O558 C549 1.247 . S
O559 Co546 2.244 . S
O559 C549 1.272 . S
O559 Co551 2.135 . S
Co560 O561 2.216 . S
Co560 O562 2.091 . S
Co560 O564 2.004 . S
Co560 O570 2.021 . S
Co560 O572 2.137 . S
Co560 O573 2.244 . S
O561 Co560 2.216 . S
O561 C568 1.247 . S
O562 Co560 2.091 . S
O562 C568 1.261 . S
C563 O572 1.247 . S
C563 O573 1.272 . S
O564 Co560 2.004 . S
O564 C569 1.259 . S
Co565 O566 2.061 . S
Co565 O571 2.052 . S
Co565 O573 2.135 . S
O566 Co565 2.061 . S
O566 C569 1.235 . S
C567 O570 1.238 . S
C567 O571 1.241 . S
C568 O561 1.247 . S
C568 O562 1.261 . S
C569 O564 1.259 . S
C569 O566 1.235 . S
O570 Co560 2.021 . S
O570 C567 1.238 . S
O571 Co565 2.052 . S
O571 C567 1.241 . S
O572 Co560 2.137 . S
O572 C563 1.247 . S
O573 Co560 2.244 . S
O573 C563 1.272 . S
O573 Co565 2.135 . S
Co574 O575 2.216 . S
Co574 O576 2.091 . S
Co574 O578 2.004 . S
Co574 O584 2.021 . S
Co574 O586 2.137 . S
Co574 O587 2.244 . S
O575 Co574 2.216 . S
O575 C582 1.247 . S
O576 Co574 2.091 . S
O576 C582 1.261 . S
C577 O586 1.247 . S
C577 O587 1.272 . S
O578 Co574 2.004 . S
O578 C583 1.259 . S
Co579 O580 2.061 . S
Co579 O585 2.052 . S
Co579 O587 2.135 . S
O580 Co579 2.061 . S
O580 C583 1.235 . S
C581 O584 1.238 . S
C581 O585 1.241 . S
C582 O575 1.247 . S
C582 O576 1.261 . S
C583 O578 1.259 . S
C583 O580 1.235 . S
O584 Co574 2.021 . S
O584 C581 1.238 . S
O585 Co579 2.052 . S
O585 C581 1.241 . S
O586 Co574 2.137 . S
O586 C577 1.247 . S
O587 Co574 2.244 . S
O587 C577 1.272 . S
O587 Co579 2.135 . S
Co588 O589 2.216 1_545 S
Co588 O590 2.091 1_545 S
Co588 O592 2.004 . S
Co588 O598 2.021 . S
Co588 O600 2.137 1_545 S
Co588 O601 2.244 . S
O589 Co588 2.216 1_565 S
O589 C596 1.247 . S
O590 Co588 2.091 1_565 S
O590 C596 1.261 . S
C591 O600 1.247 . S
C591 O601 1.272 1_565 S
O592 Co588 2.004 . S
O592 C597 1.259 . S
Co593 O594 2.061 . S
Co593 O599 2.052 . S
Co593 O601 2.135 . S
O594 Co593 2.061 . S
O594 C597 1.235 . S
C595 O598 1.238 . S
C595 O599 1.241 . S
C596 O589 1.247 . S
C596 O590 1.261 . S
C597 O592 1.259 . S
C597 O594 1.235 . S
O598 Co588 2.021 . S
O598 C595 1.238 . S
O599 Co593 2.052 . S
O599 C595 1.241 . S
O600 Co588 2.137 1_565 S
O600 C591 1.247 . S
O601 Co588 2.244 . S
O601 C591 1.272 1_545 S
O601 Co593 2.135 . S
Co602 O603 2.216 . S
Co602 O604 2.091 . S
Co602 O606 2.004 . S
Co602 O612 2.021 . S
Co602 O614 2.137 . S
Co602 O615 2.244 . S
O603 Co602 2.216 . S
O603 C610 1.247 . S
O604 Co602 2.091 . S
O604 C610 1.261 . S
C605 O614 1.247 . S
C605 O615 1.272 . S
O606 Co602 2.004 . S
O606 C611 1.259 . S
Co607 O608 2.061 . S
Co607 O613 2.052 . S
Co607 O615 2.135 . S
O608 Co607 2.061 . S
O608 C611 1.235 . S
C609 O612 1.238 . S
C609 O613 1.241 . S
C610 O603 1.247 . S
C610 O604 1.261 . S
C611 O606 1.259 . S
C611 O608 1.235 . S
O612 Co602 2.021 . S
O612 C609 1.238 . S
O613 Co607 2.052 . S
O613 C609 1.241 . S
O614 Co602 2.137 . S
O614 C605 1.247 . S
O615 Co602 2.244 . S
O615 C605 1.272 . S
O615 Co607 2.135 . S
Co616 O617 2.216 . S
Co616 O618 2.091 . S
Co616 O620 2.004 . S
Co616 O626 2.021 . S
Co616 O628 2.137 . S
Co616 O629 2.244 . S
O617 Co616 2.216 . S
O617 C624 1.247 . S
O618 Co616 2.091 . S
O618 C624 1.261 . S
C619 O628 1.247 . S
C619 O629 1.272 . S
O620 Co616 2.004 . S
O620 C625 1.259 . S
Co621 O622 2.061 . S
Co621 O627 2.052 . S
Co621 O629 2.135 . S
O622 Co621 2.061 . S
O622 C625 1.235 . S
C623 O626 1.238 . S
C623 O627 1.241 . S
C624 O617 1.247 . S
C624 O618 1.261 . S
C625 O620 1.259 . S
C625 O622 1.235 . S
O626 Co616 2.021 . S
O626 C623 1.238 . S
O627 Co621 2.052 . S
O627 C623 1.241 . S
O628 Co616 2.137 . S
O628 C619 1.247 . S
O629 Co616 2.244 . S
O629 C619 1.272 . S
O629 Co621 2.135 . S
Co630 O631 2.216 . S
Co630 O632 2.091 . S
Co630 O634 2.004 . S
Co630 O640 2.021 . S
Co630 O642 2.137 . S
Co630 O643 2.244 . S
O631 Co630 2.216 . S
O631 C638 1.247 . S
O632 Co630 2.091 . S
O632 C638 1.261 . S
C633 O642 1.247 . S
C633 O643 1.272 . S
O634 Co630 2.004 . S
O634 C639 1.259 . S
Co635 O636 2.061 . S
Co635 O641 2.052 . S
Co635 O643 2.135 . S
O636 Co635 2.061 . S
O636 C639 1.235 . S
C637 O640 1.238 . S
C637 O641 1.241 . S
C638 O631 1.247 . S
C638 O632 1.261 . S
C639 O634 1.259 . S
C639 O636 1.235 . S
O640 Co630 2.021 . S
O640 C637 1.238 . S
O641 Co635 2.052 . S
O641 C637 1.241 . S
O642 Co630 2.137 . S
O642 C633 1.247 . S
O643 Co630 2.244 . S
O643 C633 1.272 . S
O643 Co635 2.135 . S
Co644 O645 2.216 1_565 S
Co644 O646 2.091 1_565 S
Co644 O648 2.004 . S
Co644 O654 2.021 . S
Co644 O656 2.137 1_565 S
Co644 O657 2.244 . S
O645 Co644 2.216 1_545 S
O645 C652 1.247 . S
O646 Co644 2.091 1_545 S
O646 C652 1.261 . S
C647 O656 1.247 . S
C647 O657 1.272 1_545 S
O648 Co644 2.004 . S
O648 C653 1.259 . S
Co649 O650 2.061 . S
Co649 O655 2.052 . S
Co649 O657 2.135 . S
O650 Co649 2.061 . S
O650 C653 1.235 . S
C651 O654 1.238 . S
C651 O655 1.241 . S
C652 O645 1.247 . S
C652 O646 1.261 . S
C653 O648 1.259 . S
C653 O650 1.235 . S
O654 Co644 2.021 . S
O654 C651 1.238 . S
O655 Co649 2.052 . S
O655 C651 1.241 . S
O656 Co644 2.137 1_545 S
O656 C647 1.247 . S
O657 Co644 2.244 . S
O657 C647 1.272 1_565 S
O657 Co649 2.135 . S
Co658 O659 2.216 1_545 S
Co658 O660 2.091 1_545 S
Co658 O662 2.004 . S
Co658 O668 2.021 . S
Co658 O670 2.137 1_545 S
Co658 O671 2.244 . S
O659 Co658 2.216 1_565 S
O659 C666 1.247 . S
O660 Co658 2.091 1_565 S
O660 C666 1.261 . S
C661 O670 1.247 . S
C661 O671 1.272 1_565 S
O662 Co658 2.004 . S
O662 C667 1.259 . S
Co663 O664 2.061 . S
Co663 O669 2.052 . S
Co663 O671 2.135 . S
O664 Co663 2.061 . S
O664 C667 1.235 . S
C665 O668 1.238 . S
C665 O669 1.241 . S
C666 O659 1.247 . S
C666 O660 1.261 . S
C667 O662 1.259 . S
C667 O664 1.235 . S
O668 Co658 2.021 . S
O668 C665 1.238 . S
O669 Co663 2.052 . S
O669 C665 1.241 . S
O670 Co658 2.137 1_565 S
O670 C661 1.247 . S
O671 Co658 2.244 . S
O671 C661 1.272 1_545 S
O671 Co663 2.135 . S
H672 C680 0.950 . S
H673 C685 0.950 . S
H674 C682 0.950 . S
H675 C684 0.950 . S
H676 C686 0.950 . S
H677 C688 0.950 . S
H678 C690 0.950 . S
H679 C691 0.950 . S
C680 H672 0.950 . S
C680 C681 1.386 . S
C680 C682 1.391 . S
C681 C680 1.386 . S
C681 C685 1.393 . S
C682 H674 0.950 . S
C682 C680 1.391 . S
C682 C683 1.400 . S
C683 C682 1.400 . S
C683 C684 1.398 . S
C683 C689 1.491 . S
C684 H675 0.950 . S
C684 C683 1.398 . S
C684 C685 1.391 . S
C685 H673 0.950 . S
C685 C681 1.393 . S
C685 C684 1.391 . S
C686 H676 0.950 . S
C686 C687 1.386 . S
C686 C688 1.391 . S
C687 C686 1.386 . S
C687 C691 1.393 . S
C688 H677 0.950 . S
C688 C686 1.391 . S
C688 C689 1.400 . S
C689 C683 1.491 . S
C689 C688 1.400 . S
C689 C690 1.398 . S
C690 H678 0.950 . S
C690 C689 1.398 . S
C690 C691 1.391 . S
C691 H679 0.950 . S
C691 C687 1.393 . S
C691 C690 1.391 . S
H692 C700 0.950 . S
H693 C705 0.950 . S
H694 C702 0.950 . S
H695 C704 0.950 . S
H696 C706 0.950 . S
H697 C708 0.950 . S
H698 C710 0.950 . S
H699 C711 0.950 . S
C700 H692 0.950 . S
C700 C701 1.386 . S
C700 C702 1.391 . S
C701 C700 1.386 . S
C701 C705 1.393 . S
C702 H694 0.950 . S
C702 C700 1.391 . S
C702 C703 1.400 . S
C703 C702 1.400 . S
C703 C704 1.398 . S
C703 C709 1.491 . S
C704 H695 0.950 . S
C704 C703 1.398 . S
C704 C705 1.391 . S
C705 H693 0.950 . S
C705 C701 1.393 . S
C705 C704 1.391 . S
C706 H696 0.950 . S
C706 C707 1.386 . S
C706 C708 1.391 . S
C707 C706 1.386 . S
C707 C711 1.393 . S
C708 H697 0.950 . S
C708 C706 1.391 . S
C708 C709 1.400 . S
C709 C703 1.491 . S
C709 C708 1.400 . S
C709 C710 1.398 . S
C710 H698 0.950 . S
C710 C709 1.398 . S
C710 C711 1.391 . S
C711 H699 0.950 . S
C711 C707 1.393 . S
C711 C710 1.391 . S
H712 C720 0.950 . S
H713 C725 0.950 . S
H714 C722 0.950 . S
H715 C724 0.950 . S
H716 C726 0.950 . S
H717 C728 0.950 . S
H718 C730 0.950 . S
H719 C731 0.950 . S
C720 H712 0.950 . S
C720 C721 1.386 . S
C720 C722 1.391 . S
C721 C720 1.386 . S
C721 C725 1.393 . S
C722 H714 0.950 . S
C722 C720 1.391 . S
C722 C723 1.400 . S
C723 C722 1.400 . S
C723 C724 1.398 . S
C723 C729 1.491 . S
C724 H715 0.950 . S
C724 C723 1.398 . S
C724 C725 1.391 . S
C725 H713 0.950 . S
C725 C721 1.393 . S
C725 C724 1.391 . S
C726 H716 0.950 . S
C726 C727 1.386 . S
C726 C728 1.391 . S
C727 C726 1.386 . S
C727 C731 1.393 . S
C728 H717 0.950 . S
C728 C726 1.391 . S
C728 C729 1.400 . S
C729 C723 1.491 . S
C729 C728 1.400 . S
C729 C730 1.398 . S
C730 H718 0.950 . S
C730 C729 1.398 . S
C730 C731 1.391 . S
C731 H719 0.950 . S
C731 C727 1.393 . S
C731 C730 1.391 . S
H732 C740 0.950 . S
H733 C745 0.950 . S
H734 C742 0.950 . S
H735 C744 0.950 . S
H736 C746 0.950 . S
H737 C748 0.950 . S
H738 C750 0.950 . S
H739 C751 0.950 . S
C740 H732 0.950 . S
C740 C741 1.386 . S
C740 C742 1.391 . S
C741 C740 1.386 . S
C741 C745 1.393 . S
C742 H734 0.950 . S
C742 C740 1.391 . S
C742 C743 1.400 . S
C743 C742 1.400 . S
C743 C744 1.398 . S
C743 C749 1.491 . S
C744 H735 0.950 . S
C744 C743 1.398 . S
C744 C745 1.391 . S
C745 H733 0.950 . S
C745 C741 1.393 . S
C745 C744 1.391 . S
C746 H736 0.950 . S
C746 C747 1.386 . S
C746 C748 1.391 . S
C747 C746 1.386 . S
C747 C751 1.393 . S
C748 H737 0.950 . S
C748 C746 1.391 . S
C748 C749 1.400 . S
C749 C743 1.491 . S
C749 C748 1.400 . S
C749 C750 1.398 . S
C750 H738 0.950 . S
C750 C749 1.398 . S
C750 C751 1.391 . S
C751 H739 0.950 . S
C751 C747 1.393 . S
C751 C750 1.391 . S
H752 C760 0.950 . S
H753 C765 0.950 . S
H754 C762 0.950 . S
H755 C764 0.950 . S
H756 C766 0.950 . S
H757 C768 0.950 . S
H758 C770 0.950 . S
H759 C771 0.950 . S
C760 H752 0.950 . S
C760 C761 1.386 . S
C760 C762 1.391 . S
C761 C760 1.386 . S
C761 C765 1.393 . S
C762 H754 0.950 . S
C762 C760 1.391 . S
C762 C763 1.400 . S
C763 C762 1.400 . S
C763 C764 1.398 . S
C763 C769 1.491 . S
C764 H755 0.950 . S
C764 C763 1.398 . S
C764 C765 1.391 . S
C765 H753 0.950 . S
C765 C761 1.393 . S
C765 C764 1.391 . S
C766 H756 0.950 . S
C766 C767 1.386 . S
C766 C768 1.391 . S
C767 C766 1.386 . S
C767 C771 1.393 . S
C768 H757 0.950 . S
C768 C766 1.391 . S
C768 C769 1.400 . S
C769 C763 1.491 . S
C769 C768 1.400 . S
C769 C770 1.398 . S
C770 H758 0.950 . S
C770 C769 1.398 . S
C770 C771 1.391 . S
C771 H759 0.950 . S
C771 C767 1.393 . S
C771 C770 1.391 . S
H772 C780 0.950 . S
H773 C785 0.950 . S
H774 C782 0.950 . S
H775 C784 0.950 . S
H776 C786 0.950 . S
H777 C788 0.950 . S
H778 C790 0.950 . S
H779 C791 0.950 . S
C780 H772 0.950 . S
C780 C781 1.386 . S
C780 C782 1.391 . S
C781 C780 1.386 . S
C781 C785 1.393 . S
C782 H774 0.950 . S
C782 C780 1.391 . S
C782 C783 1.400 . S
C783 C782 1.400 . S
C783 C784 1.398 . S
C783 C789 1.491 . S
C784 H775 0.950 . S
C784 C783 1.398 . S
C784 C785 1.391 . S
C785 H773 0.950 . S
C785 C781 1.393 . S
C785 C784 1.391 . S
C786 H776 0.950 . S
C786 C787 1.386 . S
C786 C788 1.391 . S
C787 C786 1.386 . S
C787 C791 1.393 . S
C788 H777 0.950 . S
C788 C786 1.391 . S
C788 C789 1.400 . S
C789 C783 1.491 . S
C789 C788 1.400 . S
C789 C790 1.398 . S
C790 H778 0.950 . S
C790 C789 1.398 . S
C790 C791 1.391 . S
C791 H779 0.950 . S
C791 C787 1.393 . S
C791 C790 1.391 . S
H792 C800 0.950 . S
H793 C805 0.950 . S
H794 C802 0.950 . S
H795 C804 0.950 . S
H796 C806 0.950 . S
H797 C808 0.950 . S
H798 C810 0.950 . S
H799 C811 0.950 . S
C800 H792 0.950 . S
C800 C801 1.386 . S
C800 C802 1.391 . S
C801 C800 1.386 . S
C801 C805 1.393 . S
C802 H794 0.950 . S
C802 C800 1.391 . S
C802 C803 1.400 . S
C803 C802 1.400 . S
C803 C804 1.398 . S
C803 C809 1.491 . S
C804 H795 0.950 . S
C804 C803 1.398 . S
C804 C805 1.391 . S
C805 H793 0.950 . S
C805 C801 1.393 . S
C805 C804 1.391 . S
C806 H796 0.950 . S
C806 C807 1.386 . S
C806 C808 1.391 . S
C807 C806 1.386 . S
C807 C811 1.393 . S
C808 H797 0.950 . S
C808 C806 1.391 . S
C808 C809 1.400 . S
C809 C803 1.491 . S
C809 C808 1.400 . S
C809 C810 1.398 . S
C810 H798 0.950 . S
C810 C809 1.398 . S
C810 C811 1.391 . S
C811 H799 0.950 . S
C811 C807 1.393 . S
C811 C810 1.391 . S
H812 C820 0.950 . S
H813 C825 0.950 . S
H814 C822 0.950 . S
H815 C824 0.950 . S
H816 C826 0.950 . S
H817 C828 0.950 . S
H818 C830 0.950 . S
H819 C831 0.950 . S
C820 H812 0.950 . S
C820 C821 1.386 . S
C820 C822 1.391 . S
C821 C820 1.386 . S
C821 C825 1.393 . S
C822 H814 0.950 . S
C822 C820 1.391 . S
C822 C823 1.400 . S
C823 C822 1.400 . S
C823 C824 1.398 . S
C823 C829 1.491 . S
C824 H815 0.950 . S
C824 C823 1.398 . S
C824 C825 1.391 . S
C825 H813 0.950 . S
C825 C821 1.393 . S
C825 C824 1.391 . S
C826 H816 0.950 . S
C826 C827 1.386 . S
C826 C828 1.391 . S
C827 C826 1.386 . S
C827 C831 1.393 . S
C828 H817 0.950 . S
C828 C826 1.391 . S
C828 C829 1.400 . S
C829 C823 1.491 . S
C829 C828 1.400 . S
C829 C830 1.398 . S
C830 H818 0.950 . S
C830 C829 1.398 . S
C830 C831 1.391 . S
C831 H819 0.950 . S
C831 C827 1.393 . S
C831 C830 1.391 . S
H832 C840 0.950 . S
H833 C845 0.950 . S
H834 C842 0.950 . S
H835 C844 0.950 . S
H836 C846 0.950 . S
H837 C848 0.950 . S
H838 C850 0.950 . S
H839 C851 0.950 . S
C840 H832 0.950 . S
C840 C841 1.386 . S
C840 C842 1.391 . S
C841 C840 1.386 . S
C841 C845 1.393 . S
C842 H834 0.950 . S
C842 C840 1.391 . S
C842 C843 1.400 . S
C843 C842 1.400 . S
C843 C844 1.398 . S
C843 C849 1.491 . S
C844 H835 0.950 . S
C844 C843 1.398 . S
C844 C845 1.391 . S
C845 H833 0.950 . S
C845 C841 1.393 . S
C845 C844 1.391 . S
C846 H836 0.950 . S
C846 C847 1.386 . S
C846 C848 1.391 . S
C847 C846 1.386 . S
C847 C851 1.393 . S
C848 H837 0.950 . S
C848 C846 1.391 . S
C848 C849 1.400 . S
C849 C843 1.491 . S
C849 C848 1.400 . S
C849 C850 1.398 . S
C850 H838 0.950 . S
C850 C849 1.398 . S
C850 C851 1.391 . S
C851 H839 0.950 . S
C851 C847 1.393 . S
C851 C850 1.391 . S
H852 C860 0.950 . S
H853 C865 0.950 . S
H854 C862 0.950 . S
H855 C864 0.950 . S
H856 C866 0.950 . S
H857 C868 0.950 . S
H858 C870 0.950 . S
H859 C871 0.950 . S
C860 H852 0.950 . S
C860 C861 1.386 . S
C860 C862 1.391 . S
C861 C860 1.386 . S
C861 C865 1.393 . S
C862 H854 0.950 . S
C862 C860 1.391 . S
C862 C863 1.400 . S
C863 C862 1.400 . S
C863 C864 1.398 . S
C863 C869 1.491 . S
C864 H855 0.950 . S
C864 C863 1.398 . S
C864 C865 1.391 . S
C865 H853 0.950 . S
C865 C861 1.393 . S
C865 C864 1.391 . S
C866 H856 0.950 . S
C866 C867 1.386 . S
C866 C868 1.391 . S
C867 C866 1.386 . S
C867 C871 1.393 . S
C868 H857 0.950 . S
C868 C866 1.391 . S
C868 C869 1.400 . S
C869 C863 1.491 . S
C869 C868 1.400 . S
C869 C870 1.398 . S
C870 H858 0.950 . S
C870 C869 1.398 . S
C870 C871 1.391 . S
C871 H859 0.950 . S
C871 C867 1.393 . S
C871 C870 1.391 . S
H872 C880 0.950 . S
H873 C885 0.950 . S
H874 C882 0.950 . S
H875 C884 0.950 . S
H876 C886 0.950 . S
H877 C888 0.950 . S
H878 C890 0.950 . S
H879 C891 0.950 . S
C880 H872 0.950 . S
C880 C881 1.386 . S
C880 C882 1.391 . S
C881 C880 1.386 . S
C881 C885 1.393 . S
C882 H874 0.950 . S
C882 C880 1.391 . S
C882 C883 1.400 . S
C883 C882 1.400 . S
C883 C884 1.398 . S
C883 C889 1.491 . S
C884 H875 0.950 . S
C884 C883 1.398 . S
C884 C885 1.391 . S
C885 H873 0.950 . S
C885 C881 1.393 . S
C885 C884 1.391 . S
C886 H876 0.950 . S
C886 C887 1.386 . S
C886 C888 1.391 . S
C887 C886 1.386 . S
C887 C891 1.393 . S
C888 H877 0.950 . S
C888 C886 1.391 . S
C888 C889 1.400 . S
C889 C883 1.491 . S
C889 C888 1.400 . S
C889 C890 1.398 . S
C890 H878 0.950 . S
C890 C889 1.398 . S
C890 C891 1.391 . S
C891 H879 0.950 . S
C891 C887 1.393 . S
C891 C890 1.391 . S
H892 C900 0.950 . S
H893 C905 0.950 . S
H894 C902 0.950 . S
H895 C904 0.950 . S
H896 C906 0.950 . S
H897 C908 0.950 . S
H898 C910 0.950 . S
H899 C911 0.950 . S
C900 H892 0.950 . S
C900 C901 1.386 . S
C900 C902 1.391 . S
C901 C900 1.386 . S
C901 C905 1.393 . S
C902 H894 0.950 . S
C902 C900 1.391 . S
C902 C903 1.400 . S
C903 C902 1.400 . S
C903 C904 1.398 . S
C903 C909 1.491 . S
C904 H895 0.950 . S
C904 C903 1.398 . S
C904 C905 1.391 . S
C905 H893 0.950 . S
C905 C901 1.393 . S
C905 C904 1.391 . S
C906 H896 0.950 . S
C906 C907 1.386 . S
C906 C908 1.391 . S
C907 C906 1.386 . S
C907 C911 1.393 . S
C908 H897 0.950 . S
C908 C906 1.391 . S
C908 C909 1.400 . S
C909 C903 1.491 . S
C909 C908 1.400 . S
C909 C910 1.398 . S
C910 H898 0.950 . S
C910 C909 1.398 . S
C910 C911 1.391 . S
C911 H899 0.950 . S
C911 C907 1.393 . S
C911 C910 1.391 . S
H912 C920 0.950 . S
H913 C925 0.950 . S
H914 C922 0.950 . S
H915 C924 0.950 . S
H916 C926 0.950 . S
H917 C928 0.950 . S
H918 C930 0.950 . S
H919 C931 0.950 . S
C920 H912 0.950 . S
C920 C921 1.386 . S
C920 C922 1.391 . S
C921 C920 1.386 . S
C921 C925 1.393 . S
C922 H914 0.950 . S
C922 C920 1.391 . S
C922 C923 1.400 . S
C923 C922 1.400 . S
C923 C924 1.398 . S
C923 C929 1.491 . S
C924 H915 0.950 . S
C924 C923 1.398 . S
C924 C925 1.391 . S
C925 H913 0.950 . S
C925 C921 1.393 . S
C925 C924 1.391 . S
C926 H916 0.950 . S
C926 C927 1.386 . S
C926 C928 1.391 . S
C927 C926 1.386 . S
C927 C931 1.393 . S
C928 H917 0.950 . S
C928 C926 1.391 . S
C928 C929 1.400 . S
C929 C923 1.491 . S
C929 C928 1.400 . S
C929 C930 1.398 . S
C930 H918 0.950 . S
C930 C929 1.398 . S
C930 C931 1.391 . S
C931 H919 0.950 . S
C931 C927 1.393 . S
C931 C930 1.391 . S
H932 C940 0.950 . S
H933 C945 0.950 . S
H934 C942 0.950 . S
H935 C944 0.950 . S
H936 C946 0.950 . S
H937 C948 0.950 . S
H938 C950 0.950 . S
H939 C951 0.950 . S
C940 H932 0.950 . S
C940 C941 1.386 . S
C940 C942 1.391 . S
C941 C940 1.386 . S
C941 C945 1.393 . S
C942 H934 0.950 . S
C942 C940 1.391 . S
C942 C943 1.400 . S
C943 C942 1.400 . S
C943 C944 1.398 . S
C943 C949 1.491 . S
C944 H935 0.950 . S
C944 C943 1.398 . S
C944 C945 1.391 . S
C945 H933 0.950 . S
C945 C941 1.393 . S
C945 C944 1.391 . S
C946 H936 0.950 . S
C946 C947 1.386 . S
C946 C948 1.391 . S
C947 C946 1.386 . S
C947 C951 1.393 . S
C948 H937 0.950 . S
C948 C946 1.391 . S
C948 C949 1.400 . S
C949 C943 1.491 . S
C949 C948 1.400 . S
C949 C950 1.398 . S
C950 H938 0.950 . S
C950 C949 1.398 . S
C950 C951 1.391 . S
C951 H939 0.950 . S
C951 C947 1.393 . S
C951 C950 1.391 . S
H952 C960 0.950 . S
H953 C965 0.950 . S
H954 C962 0.950 . S
H955 C964 0.950 . S
H956 C966 0.950 . S
H957 C968 0.950 . S
H958 C970 0.950 . S
H959 C971 0.950 . S
C960 H952 0.950 . S
C960 C961 1.386 . S
C960 C962 1.391 . S
C961 C960 1.386 . S
C961 C965 1.393 . S
C962 H954 0.950 . S
C962 C960 1.391 . S
C962 C963 1.400 . S
C963 C962 1.400 . S
C963 C964 1.398 . S
C963 C969 1.491 . S
C964 H955 0.950 . S
C964 C963 1.398 . S
C964 C965 1.391 . S
C965 H953 0.950 . S
C965 C961 1.393 . S
C965 C964 1.391 . S
C966 H956 0.950 . S
C966 C967 1.386 . S
C966 C968 1.391 . S
C967 C966 1.386 . S
C967 C971 1.393 . S
C968 H957 0.950 . S
C968 C966 1.391 . S
C968 C969 1.400 . S
C969 C963 1.491 . S
C969 C968 1.400 . S
C969 C970 1.398 . S
C970 H958 0.950 . S
C970 C969 1.398 . S
C970 C971 1.391 . S
C971 H959 0.950 . S
C971 C967 1.393 . S
C971 C970 1.391 . S
H972 C980 0.950 . S
H973 C985 0.950 . S
H974 C982 0.950 . S
H975 C984 0.950 . S
H976 C986 0.950 . S
H977 C988 0.950 . S
H978 C990 0.950 . S
H979 C991 0.950 . S
C980 H972 0.950 . S
C980 C981 1.386 . S
C980 C982 1.391 . S
C981 C980 1.386 . S
C981 C985 1.393 . S
C982 H974 0.950 . S
C982 C980 1.391 . S
C982 C983 1.400 . S
C983 C982 1.400 . S
C983 C984 1.398 . S
C983 C989 1.491 . S
C984 H975 0.950 . S
C984 C983 1.398 . S
C984 C985 1.391 . S
C985 H973 0.950 . S
C985 C981 1.393 . S
C985 C984 1.391 . S
C986 H976 0.950 . S
C986 C987 1.386 . S
C986 C988 1.391 . S
C987 C986 1.386 . S
C987 C991 1.393 . S
C988 H977 0.950 . S
C988 C986 1.391 . S
C988 C989 1.400 . S
C989 C983 1.491 . S
C989 C988 1.400 . S
C989 C990 1.398 . S
C990 H978 0.950 . S
C990 C989 1.398 . S
C990 C991 1.391 . S
C991 H979 0.950 . S
C991 C987 1.393 . S
C991 C990 1.391 . S
H992 C1000 0.950 . S
H993 C1005 0.950 . S
H994 C1002 0.950 . S
H995 C1004 0.950 . S
H996 C1006 0.950 . S
H997 C1008 0.950 . S
H998 C1010 0.950 . S
H999 C1011 0.950 . S
C1000 H992 0.950 . S
C1000 C1001 1.386 . S
C1000 C1002 1.391 . S
C1001 C1000 1.386 . S
C1001 C1005 1.393 . S
C1002 H994 0.950 . S
C1002 C1000 1.391 . S
C1002 C1003 1.400 . S
C1003 C1002 1.400 . S
C1003 C1004 1.398 . S
C1003 C1009 1.491 . S
C1004 H995 0.950 . S
C1004 C1003 1.398 . S
C1004 C1005 1.391 . S
C1005 H993 0.950 . S
C1005 C1001 1.393 . S
C1005 C1004 1.391 . S
C1006 H996 0.950 . S
C1006 C1007 1.386 . S
C1006 C1008 1.391 . S
C1007 C1006 1.386 . S
C1007 C1011 1.393 . S
C1008 H997 0.950 . S
C1008 C1006 1.391 . S
C1008 C1009 1.400 . S
C1009 C1003 1.491 . S
C1009 C1008 1.400 . S
C1009 C1010 1.398 . S
C1010 H998 0.950 . S
C1010 C1009 1.398 . S
C1010 C1011 1.391 . S
C1011 H999 0.950 . S
C1011 C1007 1.393 . S
C1011 C1010 1.391 . S
H1012 C1020 0.950 . S
H1013 C1025 0.950 . S
H1014 C1022 0.950 . S
H1015 C1024 0.950 . S
H1016 C1026 0.950 . S
H1017 C1028 0.950 . S
H1018 C1030 0.950 . S
H1019 C1031 0.950 . S
C1020 H1012 0.950 . S
C1020 C1021 1.386 . S
C1020 C1022 1.391 . S
C1021 C1020 1.386 . S
C1021 C1025 1.393 . S
C1022 H1014 0.950 . S
C1022 C1020 1.391 . S
C1022 C1023 1.400 . S
C1023 C1022 1.400 . S
C1023 C1024 1.398 . S
C1023 C1029 1.491 . S
C1024 H1015 0.950 . S
C1024 C1023 1.398 . S
C1024 C1025 1.391 . S
C1025 H1013 0.950 . S
C1025 C1021 1.393 . S
C1025 C1024 1.391 . S
C1026 H1016 0.950 . S
C1026 C1027 1.386 . S
C1026 C1028 1.391 . S
C1027 C1026 1.386 . S
C1027 C1031 1.393 . S
C1028 H1017 0.950 . S
C1028 C1026 1.391 . S
C1028 C1029 1.400 . S
C1029 C1023 1.491 . S
C1029 C1028 1.400 . S
C1029 C1030 1.398 . S
C1030 H1018 0.950 . S
C1030 C1029 1.398 . S
C1030 C1031 1.391 . S
C1031 H1019 0.950 . S
C1031 C1027 1.393 . S
C1031 C1030 1.391 . S
H1032 C1040 0.950 . S
H1033 C1045 0.950 . S
H1034 C1042 0.950 . S
H1035 C1044 0.950 . S
H1036 C1046 0.950 . S
H1037 C1048 0.950 . S
H1038 C1050 0.950 . S
H1039 C1051 0.950 . S
C1040 H1032 0.950 . S
C1040 C1041 1.386 . S
C1040 C1042 1.391 . S
C1041 C1040 1.386 . S
C1041 C1045 1.393 . S
C1042 H1034 0.950 . S
C1042 C1040 1.391 . S
C1042 C1043 1.400 . S
C1043 C1042 1.400 . S
C1043 C1044 1.398 . S
C1043 C1049 1.491 . S
C1044 H1035 0.950 . S
C1044 C1043 1.398 . S
C1044 C1045 1.391 . S
C1045 H1033 0.950 . S
C1045 C1041 1.393 . S
C1045 C1044 1.391 . S
C1046 H1036 0.950 . S
C1046 C1047 1.386 . S
C1046 C1048 1.391 . S
C1047 C1046 1.386 . S
C1047 C1051 1.393 . S
C1048 H1037 0.950 . S
C1048 C1046 1.391 . S
C1048 C1049 1.400 . S
C1049 C1043 1.491 . S
C1049 C1048 1.400 . S
C1049 C1050 1.398 . S
C1050 H1038 0.950 . S
C1050 C1049 1.398 . S
C1050 C1051 1.391 . S
C1051 H1039 0.950 . S
C1051 C1047 1.393 . S
C1051 C1050 1.391 . S
H1052 C1060 0.950 . S
H1053 C1065 0.950 . S
H1054 C1062 0.950 . S
H1055 C1064 0.950 . S
H1056 C1066 0.950 . S
H1057 C1068 0.950 . S
H1058 C1070 0.950 . S
H1059 C1071 0.950 . S
C1060 H1052 0.950 . S
C1060 C1061 1.386 . S
C1060 C1062 1.391 . S
C1061 C1060 1.386 . S
C1061 C1065 1.393 . S
C1062 H1054 0.950 . S
C1062 C1060 1.391 . S
C1062 C1063 1.400 . S
C1063 C1062 1.400 . S
C1063 C1064 1.398 . S
C1063 C1069 1.491 . S
C1064 H1055 0.950 . S
C1064 C1063 1.398 . S
C1064 C1065 1.391 . S
C1065 H1053 0.950 . S
C1065 C1061 1.393 . S
C1065 C1064 1.391 . S
C1066 H1056 0.950 . S
C1066 C1067 1.386 . S
C1066 C1068 1.391 . S
C1067 C1066 1.386 . S
C1067 C1071 1.393 . S
C1068 H1057 0.950 . S
C1068 C1066 1.391 . S
C1068 C1069 1.400 . S
C1069 C1063 1.491 . S
C1069 C1068 1.400 . S
C1069 C1070 1.398 . S
C1070 H1058 0.950 . S
C1070 C1069 1.398 . S
C1070 C1071 1.391 . S
C1071 H1059 0.950 . S
C1071 C1067 1.393 . S
C1071 C1070 1.391 . S
H1072 C1080 0.950 . S
H1073 C1085 0.950 . S
H1074 C1082 0.950 . S
H1075 C1084 0.950 . S
H1076 C1086 0.950 . S
H1077 C1088 0.950 . S
H1078 C1090 0.950 . S
H1079 C1091 0.950 . S
C1080 H1072 0.950 . S
C1080 C1081 1.386 . S
C1080 C1082 1.391 . S
C1081 C1080 1.386 . S
C1081 C1085 1.393 . S
C1082 H1074 0.950 . S
C1082 C1080 1.391 . S
C1082 C1083 1.400 . S
C1083 C1082 1.400 . S
C1083 C1084 1.398 . S
C1083 C1089 1.491 . S
C1084 H1075 0.950 . S
C1084 C1083 1.398 . S
C1084 C1085 1.391 . S
C1085 H1073 0.950 . S
C1085 C1081 1.393 . S
C1085 C1084 1.391 . S
C1086 H1076 0.950 . S
C1086 C1087 1.386 . S
C1086 C1088 1.391 . S
C1087 C1086 1.386 . S
C1087 C1091 1.393 . S
C1088 H1077 0.950 . S
C1088 C1086 1.391 . S
C1088 C1089 1.400 . S
C1089 C1083 1.491 . S
C1089 C1088 1.400 . S
C1089 C1090 1.398 . S
C1090 H1078 0.950 . S
C1090 C1089 1.398 . S
C1090 C1091 1.391 . S
C1091 H1079 0.950 . S
C1091 C1087 1.393 . S
C1091 C1090 1.391 . S
H1092 C1100 0.950 . S
H1093 C1105 0.950 . S
H1094 C1102 0.950 . S
H1095 C1104 0.950 . S
H1096 C1106 0.950 . S
H1097 C1108 0.950 . S
H1098 C1110 0.950 . S
H1099 C1111 0.950 . S
C1100 H1092 0.950 . S
C1100 C1101 1.386 . S
C1100 C1102 1.391 . S
C1101 C1100 1.386 . S
C1101 C1105 1.393 . S
C1102 H1094 0.950 . S
C1102 C1100 1.391 . S
C1102 C1103 1.400 . S
C1103 C1102 1.400 . S
C1103 C1104 1.398 . S
C1103 C1109 1.491 . S
C1104 H1095 0.950 . S
C1104 C1103 1.398 . S
C1104 C1105 1.391 . S
C1105 H1093 0.950 . S
C1105 C1101 1.393 . S
C1105 C1104 1.391 . S
C1106 H1096 0.950 . S
C1106 C1107 1.386 . S
C1106 C1108 1.391 . S
C1107 C1106 1.386 . S
C1107 C1111 1.393 . S
C1108 H1097 0.950 . S
C1108 C1106 1.391 . S
C1108 C1109 1.400 . S
C1109 C1103 1.491 . S
C1109 C1108 1.400 . S
C1109 C1110 1.398 . S
C1110 H1098 0.950 . S
C1110 C1109 1.398 . S
C1110 C1111 1.391 . S
C1111 H1099 0.950 . S
C1111 C1107 1.393 . S
C1111 C1110 1.391 . S
H1112 C1120 0.950 . S
H1113 C1125 0.950 . S
H1114 C1122 0.950 . S
H1115 C1124 0.950 . S
H1116 C1126 0.950 . S
H1117 C1128 0.950 . S
H1118 C1130 0.950 . S
H1119 C1131 0.950 . S
C1120 H1112 0.950 . S
C1120 C1121 1.386 . S
C1120 C1122 1.391 . S
C1121 C1120 1.386 . S
C1121 C1125 1.393 . S
C1122 H1114 0.950 . S
C1122 C1120 1.391 . S
C1122 C1123 1.400 . S
C1123 C1122 1.400 . S
C1123 C1124 1.398 . S
C1123 C1129 1.491 . S
C1124 H1115 0.950 . S
C1124 C1123 1.398 . S
C1124 C1125 1.391 . S
C1125 H1113 0.950 . S
C1125 C1121 1.393 . S
C1125 C1124 1.391 . S
C1126 H1116 0.950 . S
C1126 C1127 1.386 . S
C1126 C1128 1.391 . S
C1127 C1126 1.386 . S
C1127 C1131 1.393 . S
C1128 H1117 0.950 . S
C1128 C1126 1.391 . S
C1128 C1129 1.400 . S
C1129 C1123 1.491 . S
C1129 C1128 1.400 . S
C1129 C1130 1.398 . S
C1130 H1118 0.950 . S
C1130 C1129 1.398 . S
C1130 C1131 1.391 . S
C1131 H1119 0.950 . S
C1131 C1127 1.393 . S
C1131 C1130 1.391 . S
H1132 C1140 0.950 . S
H1133 C1145 0.950 . S
H1134 C1142 0.950 . S
H1135 C1144 0.950 . S
H1136 C1146 0.950 . S
H1137 C1148 0.950 . S
H1138 C1150 0.950 . S
H1139 C1151 0.950 . S
C1140 H1132 0.950 . S
C1140 C1141 1.386 . S
C1140 C1142 1.391 . S
C1141 C1140 1.386 . S
C1141 C1145 1.393 . S
C1142 H1134 0.950 . S
C1142 C1140 1.391 . S
C1142 C1143 1.400 . S
C1143 C1142 1.400 . S
C1143 C1144 1.398 . S
C1143 C1149 1.491 . S
C1144 H1135 0.950 . S
C1144 C1143 1.398 . S
C1144 C1145 1.391 . S
C1145 H1133 0.950 . S
C1145 C1141 1.393 . S
C1145 C1144 1.391 . S
C1146 H1136 0.950 . S
C1146 C1147 1.386 . S
C1146 C1148 1.391 . S
C1147 C1146 1.386 . S
C1147 C1151 1.393 . S
C1148 H1137 0.950 . S
C1148 C1146 1.391 . S
C1148 C1149 1.400 . S
C1149 C1143 1.491 . S
C1149 C1148 1.400 . S
C1149 C1150 1.398 . S
C1150 H1138 0.950 . S
C1150 C1149 1.398 . S
C1150 C1151 1.391 . S
C1151 H1139 0.950 . S
C1151 C1147 1.393 . S
C1151 C1150 1.391 . S
H1152 C1160 0.950 . S
H1153 C1165 0.950 . S
H1154 C1162 0.950 . S
H1155 C1164 0.950 . S
H1156 C1166 0.950 . S
H1157 C1168 0.950 . S
H1158 C1170 0.950 . S
H1159 C1171 0.950 . S
C1160 H1152 0.950 . S
C1160 C1161 1.386 . S
C1160 C1162 1.391 . S
C1161 C1160 1.386 . S
C1161 C1165 1.393 . S
C1162 H1154 0.950 . S
C1162 C1160 1.391 . S
C1162 C1163 1.400 . S
C1163 C1162 1.400 . S
C1163 C1164 1.398 . S
C1163 C1169 1.491 . S
C1164 H1155 0.950 . S
C1164 C1163 1.398 . S
C1164 C1165 1.391 . S
C1165 H1153 0.950 . S
C1165 C1161 1.393 . S
C1165 C1164 1.391 . S
C1166 H1156 0.950 . S
C1166 C1167 1.386 . S
C1166 C1168 1.391 . S
C1167 C1166 1.386 . S
C1167 C1171 1.393 . S
C1168 H1157 0.950 . S
C1168 C1166 1.391 . S
C1168 C1169 1.400 . S
C1169 C1163 1.491 . S
C1169 C1168 1.400 . S
C1169 C1170 1.398 . S
C1170 H1158 0.950 . S
C1170 C1169 1.398 . S
C1170 C1171 1.391 . S
C1171 H1159 0.950 . S
C1171 C1167 1.393 . S
C1171 C1170 1.391 . S
H1172 C1180 0.933 1_545 S
H1173 C1185 0.950 . S
H1174 C1182 0.950 . S
H1175 C1184 0.950 . S
H1176 C1186 0.950 . S
H1177 C1188 0.950 . S
H1178 C1190 0.950 . S
H1179 C1191 0.950 . S
C1180 H1172 0.933 1_565 S
C1180 C1181 1.392 . S
C1180 C1182 1.401 . S
C1181 C1180 1.392 . S
C1181 C1185 1.393 . S
C1182 H1174 0.950 . S
C1182 C1180 1.401 . S
C1182 C1183 1.400 . S
C1183 C1182 1.400 . S
C1183 C1184 1.398 . S
C1183 C1189 1.491 . S
C1184 H1175 0.950 . S
C1184 C1183 1.398 . S
C1184 C1185 1.391 . S
C1185 H1173 0.950 . S
C1185 C1181 1.393 . S
C1185 C1184 1.391 . S
C1186 H1176 0.950 . S
C1186 C1187 1.386 . S
C1186 C1188 1.391 . S
C1187 C1186 1.386 . S
C1187 C1191 1.393 . S
C1188 H1177 0.950 . S
C1188 C1186 1.391 . S
C1188 C1189 1.400 . S
C1189 C1183 1.491 . S
C1189 C1188 1.400 . S
C1189 C1190 1.398 . S
C1190 H1178 0.950 . S
C1190 C1189 1.398 . S
C1190 C1191 1.391 . S
C1191 H1179 0.950 . S
C1191 C1187 1.393 . S
C1191 C1190 1.391 . S
H1192 C1200 0.950 . S
H1193 C1205 0.950 . S
H1194 C1202 0.950 . S
H1195 C1204 0.950 . S
H1196 C1206 0.950 . S
H1197 C1208 0.950 . S
H1198 C1210 0.950 . S
H1199 C1211 0.950 . S
C1200 H1192 0.950 . S
C1200 C1201 1.386 . S
C1200 C1202 1.391 . S
C1201 C1200 1.386 . S
C1201 C1205 1.393 . S
C1202 H1194 0.950 . S
C1202 C1200 1.391 . S
C1202 C1203 1.400 . S
C1203 C1202 1.400 . S
C1203 C1204 1.398 . S
C1203 C1209 1.491 . S
C1204 H1195 0.950 . S
C1204 C1203 1.398 . S
C1204 C1205 1.391 . S
C1205 H1193 0.950 . S
C1205 C1201 1.393 . S
C1205 C1204 1.391 . S
C1206 H1196 0.950 . S
C1206 C1207 1.386 . S
C1206 C1208 1.391 . S
C1207 C1206 1.386 . S
C1207 C1211 1.393 . S
C1208 H1197 0.950 . S
C1208 C1206 1.391 . S
C1208 C1209 1.400 . S
C1209 C1203 1.491 . S
C1209 C1208 1.400 . S
C1209 C1210 1.398 . S
C1210 H1198 0.950 . S
C1210 C1209 1.398 . S
C1210 C1211 1.391 . S
C1211 H1199 0.950 . S
C1211 C1207 1.393 . S
C1211 C1210 1.391 . S
H1212 C1220 0.950 1_565 S
H1213 C1225 0.950 . S
H1214 C1222 0.950 . S
H1215 C1224 0.950 1_554 S
H1216 C1226 0.950 . S
H1217 C1228 0.950 . S
H1218 C1230 0.950 . S
H1219 C1231 0.950 . S
C1220 H1212 0.950 1_545 S
C1220 C1221 1.386 . S
C1220 C1222 1.391 . S
C1221 C1220 1.386 . S
C1221 C1225 1.393 . S
C1222 H1214 0.950 . S
C1222 C1220 1.391 . S
C1222 C1223 1.400 . S
C1223 C1222 1.400 . S
C1223 C1224 1.398 . S
C1223 C1229 1.491 1_556 S
C1224 H1215 0.950 1_556 S
C1224 C1223 1.398 . S
C1224 C1225 1.391 . S
C1225 H1213 0.950 . S
C1225 C1221 1.393 . S
C1225 C1224 1.391 . S
C1226 H1216 0.950 . S
C1226 C1227 1.386 . S
C1226 C1228 1.391 . S
C1227 C1226 1.386 . S
C1227 C1231 1.393 . S
C1228 H1217 0.950 . S
C1228 C1226 1.391 . S
C1228 C1229 1.400 . S
C1229 C1223 1.491 1_554 S
C1229 C1228 1.400 . S
C1229 C1230 1.398 . S
C1230 H1218 0.950 . S
C1230 C1229 1.398 . S
C1230 C1231 1.391 . S
C1231 H1219 0.950 . S
C1231 C1227 1.393 . S
C1231 C1230 1.391 . S
H1232 C1240 0.950 . S
H1233 C1245 0.950 . S
H1234 C1242 0.950 . S
H1235 C1244 0.950 . S
H1236 C1246 0.950 . S
H1237 C1248 0.950 . S
H1238 C1250 0.950 . S
H1239 C1251 0.950 . S
C1240 H1232 0.950 . S
C1240 C1241 1.386 . S
C1240 C1242 1.391 . S
C1241 C1240 1.386 . S
C1241 C1245 1.393 . S
C1242 H1234 0.950 . S
C1242 C1240 1.391 . S
C1242 C1243 1.400 . S
C1243 C1242 1.400 . S
C1243 C1244 1.398 . S
C1243 C1249 1.491 . S
C1244 H1235 0.950 . S
C1244 C1243 1.398 . S
C1244 C1245 1.391 . S
C1245 H1233 0.950 . S
C1245 C1241 1.393 . S
C1245 C1244 1.391 . S
C1246 H1236 0.950 . S
C1246 C1247 1.386 . S
C1246 C1248 1.391 . S
C1247 C1246 1.386 . S
C1247 C1251 1.393 . S
C1248 H1237 0.950 . S
C1248 C1246 1.391 . S
C1248 C1249 1.400 . S
C1249 C1243 1.491 . S
C1249 C1248 1.400 . S
C1249 C1250 1.398 . S
C1250 H1238 0.950 . S
C1250 C1249 1.398 . S
C1250 C1251 1.391 . S
C1251 H1239 0.950 . S
C1251 C1247 1.393 . S
C1251 C1250 1.391 . S
H1252 C1260 0.927 1_545 S
H1253 C1265 0.950 . S
H1254 C1262 0.950 . S
H1255 C1264 0.950 . S
H1256 C1266 0.950 . S
H1257 C1268 0.950 . S
H1258 C1270 0.950 . S
H1259 C1271 0.950 . S
C1260 H1252 0.927 1_565 S
C1260 C1261 1.395 . S
C1260 C1262 1.405 . S
C1261 C1260 1.395 . S
C1261 C1265 1.393 . S
C1262 H1254 0.950 . S
C1262 C1260 1.405 . S
C1262 C1263 1.400 . S
C1263 C1262 1.400 . S
C1263 C1264 1.398 . S
C1263 C1269 1.491 . S
C1264 H1255 0.950 . S
C1264 C1263 1.398 . S
C1264 C1265 1.391 . S
C1265 H1253 0.950 . S
C1265 C1261 1.393 . S
C1265 C1264 1.391 . S
C1266 H1256 0.950 . S
C1266 C1267 1.386 . S
C1266 C1268 1.391 . S
C1267 C1266 1.386 . S
C1267 C1271 1.393 . S
C1268 H1257 0.950 . S
C1268 C1266 1.391 . S
C1268 C1269 1.400 . S
C1269 C1263 1.491 . S
C1269 C1268 1.400 . S
C1269 C1270 1.398 . S
C1270 H1258 0.950 . S
C1270 C1269 1.398 . S
C1270 C1271 1.391 . S
C1271 H1259 0.950 . S
C1271 C1267 1.393 . S
C1271 C1270 1.391 . S
H1272 C1280 0.950 . S
H1273 C1285 0.950 . S
H1274 C1282 0.950 . S
H1275 C1284 0.950 . S
H1276 C1286 0.950 . S
H1277 C1288 0.950 . S
H1278 C1290 0.950 . S
H1279 C1291 0.950 . S
C1280 H1272 0.950 . S
C1280 C1281 1.386 . S
C1280 C1282 1.391 . S
C1281 C1280 1.386 . S
C1281 C1285 1.393 . S
C1282 H1274 0.950 . S
C1282 C1280 1.391 . S
C1282 C1283 1.400 . S
C1283 C1282 1.400 . S
C1283 C1284 1.398 . S
C1283 C1289 1.491 . S
C1284 H1275 0.950 . S
C1284 C1283 1.398 . S
C1284 C1285 1.391 . S
C1285 H1273 0.950 . S
C1285 C1281 1.393 . S
C1285 C1284 1.391 . S
C1286 H1276 0.950 . S
C1286 C1287 1.386 . S
C1286 C1288 1.391 . S
C1287 C1286 1.386 . S
C1287 C1291 1.393 . S
C1288 H1277 0.950 . S
C1288 C1286 1.391 . S
C1288 C1289 1.400 . S
C1289 C1283 1.491 . S
C1289 C1288 1.400 . S
C1289 C1290 1.398 . S
C1290 H1278 0.950 . S
C1290 C1289 1.398 . S
C1290 C1291 1.391 . S
C1291 H1279 0.950 . S
C1291 C1287 1.393 . S
C1291 C1290 1.391 . S
H1292 C1300 0.950 . S
H1293 C1305 0.950 . S
H1294 C1302 0.950 . S
H1295 C1304 0.950 . S
H1296 C1306 0.950 . S
H1297 C1308 0.950 . S
H1298 C1310 0.950 1_554 S
H1299 C1311 0.950 . S
C1300 H1292 0.950 . S
C1300 C1301 1.386 . S
C1300 C1302 1.391 . S
C1301 C1300 1.386 . S
C1301 C1305 1.393 . S
C1302 H1294 0.950 . S
C1302 C1300 1.391 . S
C1302 C1303 1.400 . S
C1303 C1302 1.400 . S
C1303 C1304 1.398 1_554 S
C1303 C1309 1.491 1_554 S
C1304 H1295 0.950 . S
C1304 C1303 1.398 1_556 S
C1304 C1305 1.391 1_556 S
C1305 H1293 0.950 . S
C1305 C1301 1.393 . S
C1305 C1304 1.391 1_554 S
C1306 H1296 0.950 . S
C1306 C1307 1.386 . S
C1306 C1308 1.391 . S
C1307 C1306 1.386 . S
C1307 C1311 1.393 . S
C1308 H1297 0.950 . S
C1308 C1306 1.391 . S
C1308 C1309 1.400 . S
C1309 C1303 1.491 1_556 S
C1309 C1308 1.400 . S
C1309 C1310 1.398 . S
C1310 H1298 0.950 1_556 S
C1310 C1309 1.398 . S
C1310 C1311 1.391 . S
C1311 H1299 0.950 . S
C1311 C1307 1.393 . S
C1311 C1310 1.391 . S
H1312 C1320 0.950 . S
H1313 C1325 0.950 . S
H1314 C1322 0.950 . S
H1315 C1324 0.950 . S
H1316 C1326 0.950 . S
H1317 C1328 0.950 . S
H1318 C1330 0.950 . S
H1319 C1331 0.950 . S
C1320 H1312 0.950 . S
C1320 C1321 1.386 . S
C1320 C1322 1.391 . S
C1321 C1320 1.386 . S
C1321 C1325 1.393 . S
C1322 H1314 0.950 . S
C1322 C1320 1.391 . S
C1322 C1323 1.400 . S
C1323 C1322 1.400 . S
C1323 C1324 1.398 . S
C1323 C1329 1.491 . S
C1324 H1315 0.950 . S
C1324 C1323 1.398 . S
C1324 C1325 1.391 . S
C1325 H1313 0.950 . S
C1325 C1321 1.393 . S
C1325 C1324 1.391 . S
C1326 H1316 0.950 . S
C1326 C1327 1.386 . S
C1326 C1328 1.391 . S
C1327 C1326 1.386 . S
C1327 C1331 1.393 . S
C1328 H1317 0.950 . S
C1328 C1326 1.391 . S
C1328 C1329 1.400 . S
C1329 C1323 1.491 . S
C1329 C1328 1.400 . S
C1329 C1330 1.398 . S
C1330 H1318 0.950 . S
C1330 C1329 1.398 . S
C1330 C1331 1.391 . S
C1331 H1319 0.950 . S
C1331 C1327 1.393 . S
C1331 C1330 1.391 . S
H1332 C1340 0.950 1_655 S
H1333 C1345 0.950 . S
H1334 C1342 0.950 . S
H1335 C1344 0.950 . S
H1336 C1346 0.950 . S
H1337 C1348 0.950 1_565 S
H1338 C1350 0.950 . S
H1339 C1351 0.950 . S
C1340 H1332 0.950 1_455 S
C1340 C1341 1.386 . S
C1340 C1342 1.391 1_565 S
C1341 C1340 1.386 . S
C1341 C1345 1.393 . S
C1342 H1334 0.950 . S
C1342 C1340 1.391 1_545 S
C1342 C1343 1.400 1_545 S
C1343 C1342 1.400 1_565 S
C1343 C1344 1.398 . S
C1343 C1349 1.491 1_565 S
C1344 H1335 0.950 . S
C1344 C1343 1.398 . S
C1344 C1345 1.391 . S
C1345 H1333 0.950 . S
C1345 C1341 1.393 . S
C1345 C1344 1.391 . S
C1346 H1336 0.950 . S
C1346 C1347 1.386 . S
C1346 C1348 1.391 . S
C1347 C1346 1.386 . S
C1347 C1351 1.393 . S
C1348 H1337 0.950 1_545 S
C1348 C1346 1.391 . S
C1348 C1349 1.400 . S
C1349 C1343 1.491 1_545 S
C1349 C1348 1.400 . S
C1349 C1350 1.398 . S
C1350 H1338 0.950 . S
C1350 C1349 1.398 . S
C1350 C1351 1.391 . S
C1351 H1339 0.950 . S
C1351 C1347 1.393 . S
C1351 C1350 1.391 . S
H1352 C1360 0.950 . S
H1353 C1365 0.950 . S
H1354 C1362 0.950 . S
H1355 C1364 0.950 . S
H1356 C1366 0.950 . S
H1357 C1368 0.950 . S
H1358 C1370 0.950 . S
H1359 C1371 0.950 . S
C1360 H1352 0.950 . S
C1360 C1361 1.386 . S
C1360 C1362 1.391 . S
C1361 C1360 1.386 . S
C1361 C1365 1.393 . S
C1362 H1354 0.950 . S
C1362 C1360 1.391 . S
C1362 C1363 1.400 . S
C1363 C1362 1.400 . S
C1363 C1364 1.398 . S
C1363 C1369 1.491 . S
C1364 H1355 0.950 . S
C1364 C1363 1.398 . S
C1364 C1365 1.391 . S
C1365 H1353 0.950 . S
C1365 C1361 1.393 . S
C1365 C1364 1.391 . S
C1366 H1356 0.950 . S
C1366 C1367 1.386 . S
C1366 C1368 1.391 . S
C1367 C1366 1.386 . S
C1367 C1371 1.393 . S
C1368 H1357 0.950 . S
C1368 C1366 1.391 . S
C1368 C1369 1.400 . S
C1369 C1363 1.491 . S
C1369 C1368 1.400 . S
C1369 C1370 1.398 . S
C1370 H1358 0.950 . S
C1370 C1369 1.398 . S
C1370 C1371 1.391 . S
C1371 H1359 0.950 . S
C1371 C1367 1.393 . S
C1371 C1370 1.391 . S
H1372 C1380 0.950 . S
H1373 C1385 0.950 . S
H1374 C1382 0.950 . S
H1375 C1384 0.950 . S
H1376 C1386 0.950 . S
H1377 C1388 0.950 . S
H1378 C1390 0.950 1_545 S
H1379 C1391 0.950 . S
C1380 H1372 0.950 . S
C1380 C1381 1.386 . S
C1380 C1382 1.391 . S
C1381 C1380 1.386 . S
C1381 C1385 1.393 . S
C1382 H1374 0.950 . S
C1382 C1380 1.391 . S
C1382 C1383 1.400 . S
C1383 C1382 1.400 . S
C1383 C1384 1.398 1_545 S
C1383 C1389 1.491 1_545 S
C1384 H1375 0.950 . S
C1384 C1383 1.398 1_565 S
C1384 C1385 1.391 1_565 S
C1385 H1373 0.950 . S
C1385 C1381 1.393 . S
C1385 C1384 1.391 1_545 S
C1386 H1376 0.950 . S
C1386 C1387 1.386 . S
C1386 C1388 1.391 . S
C1387 C1386 1.386 . S
C1387 C1391 1.393 . S
C1388 H1377 0.950 . S
C1388 C1386 1.391 . S
C1388 C1389 1.400 . S
C1389 C1383 1.491 1_565 S
C1389 C1388 1.400 . S
C1389 C1390 1.398 . S
C1390 H1378 0.950 1_565 S
C1390 C1389 1.398 . S
C1390 C1391 1.391 . S
C1391 H1379 0.950 . S
C1391 C1387 1.393 . S
C1391 C1390 1.391 . S
H1392 C1400 0.950 . S
H1393 C1405 0.950 . S
H1394 C1402 0.950 . S
H1395 C1404 0.950 . S
H1396 C1406 0.950 . S
H1397 C1408 0.950 . S
H1398 C1410 0.950 . S
H1399 C1411 0.950 . S
C1400 H1392 0.950 . S
C1400 C1401 1.386 . S
C1400 C1402 1.391 . S
C1401 C1400 1.386 . S
C1401 C1405 1.393 . S
C1402 H1394 0.950 . S
C1402 C1400 1.391 . S
C1402 C1403 1.400 . S
C1403 C1402 1.400 . S
C1403 C1404 1.398 . S
C1403 C1409 1.491 . S
C1404 H1395 0.950 . S
C1404 C1403 1.398 . S
C1404 C1405 1.391 . S
C1405 H1393 0.950 . S
C1405 C1401 1.393 . S
C1405 C1404 1.391 . S
C1406 H1396 0.950 . S
C1406 C1407 1.386 . S
C1406 C1408 1.391 . S
C1407 C1406 1.386 . S
C1407 C1411 1.393 . S
C1408 H1397 0.950 . S
C1408 C1406 1.391 . S
C1408 C1409 1.400 . S
C1409 C1403 1.491 . S
C1409 C1408 1.400 . S
C1409 C1410 1.398 . S
C1410 H1398 0.950 . S
C1410 C1409 1.398 . S
C1410 C1411 1.391 . S
C1411 H1399 0.950 . S
C1411 C1407 1.393 . S
C1411 C1410 1.391 . S
H1412 C1420 0.950 . S
H1413 C1425 0.950 . S
H1414 C1422 0.950 . S
H1415 C1424 0.950 . S
H1416 C1426 0.950 . S
H1417 C1428 0.950 . S
H1418 C1430 0.950 . S
H1419 C1431 0.950 . S
C1420 H1412 0.950 . S
C1420 C1421 1.386 . S
C1420 C1422 1.391 . S
C1421 C1420 1.386 . S
C1421 C1425 1.393 . S
C1422 H1414 0.950 . S
C1422 C1420 1.391 . S
C1422 C1423 1.400 . S
C1423 C1422 1.400 . S
C1423 C1424 1.398 . S
C1423 C1429 1.491 1_565 S
C1424 H1415 0.950 . S
C1424 C1423 1.398 . S
C1424 C1425 1.391 . S
C1425 H1413 0.950 . S
C1425 C1421 1.393 . S
C1425 C1424 1.391 . S
C1426 H1416 0.950 . S
C1426 C1427 1.386 . S
C1426 C1428 1.391 . S
C1427 C1426 1.386 . S
C1427 C1431 1.393 . S
C1428 H1417 0.950 . S
C1428 C1426 1.391 . S
C1428 C1429 1.400 . S
C1429 C1423 1.491 1_545 S
C1429 C1428 1.400 . S
C1429 C1430 1.398 . S
C1430 H1418 0.950 . S
C1430 C1429 1.398 . S
C1430 C1431 1.391 . S
C1431 H1419 0.950 . S
C1431 C1427 1.393 . S
C1431 C1430 1.391 . S
H1432 C1440 0.950 . S
H1433 C1445 0.950 . S
H1434 C1442 0.950 . S
H1435 C1444 0.950 . S
H1436 C1446 0.950 . S
H1437 C1448 0.950 . S
H1438 C1450 0.950 . S
H1439 C1451 0.950 . S
C1440 H1432 0.950 . S
C1440 C1441 1.386 . S
C1440 C1442 1.391 . S
C1441 C1440 1.386 . S
C1441 C1445 1.393 . S
C1442 H1434 0.950 . S
C1442 C1440 1.391 . S
C1442 C1443 1.400 . S
C1443 C1442 1.400 . S
C1443 C1444 1.398 . S
C1443 C1449 1.491 . S
C1444 H1435 0.950 . S
C1444 C1443 1.398 . S
C1444 C1445 1.391 . S
C1445 H1433 0.950 . S
C1445 C1441 1.393 . S
C1445 C1444 1.391 . S
C1446 H1436 0.950 . S
C1446 C1447 1.386 . S
C1446 C1448 1.391 . S
C1447 C1446 1.386 . S
C1447 C1451 1.393 . S
C1448 H1437 0.950 . S
C1448 C1446 1.391 . S
C1448 C1449 1.400 . S
C1449 C1443 1.491 . S
C1449 C1448 1.400 . S
C1449 C1450 1.398 . S
C1450 H1438 0.950 . S
C1450 C1449 1.398 . S
C1450 C1451 1.391 . S
C1451 H1439 0.950 . S
C1451 C1447 1.393 . S
C1451 C1450 1.391 . S
H1452 C1460 0.950 . S
H1453 C1465 0.950 . S
H1454 C1462 0.950 . S
H1455 C1464 0.950 . S
H1456 C1466 0.950 1_655 S
H1457 C1468 0.950 1_565 S
H1458 C1470 0.950 . S
H1459 C1471 0.950 . S
C1460 H1452 0.950 . S
C1460 C1461 1.386 . S
C1460 C1462 1.391 . S
C1461 C1460 1.386 . S
C1461 C1465 1.393 . S
C1462 H1454 0.950 . S
C1462 C1460 1.391 . S
C1462 C1463 1.400 . S
C1463 C1462 1.400 . S
C1463 C1464 1.398 . S
C1463 C1469 1.491 1_565 S
C1464 H1455 0.950 . S
C1464 C1463 1.398 . S
C1464 C1465 1.391 . S
C1465 H1453 0.950 . S
C1465 C1461 1.393 . S
C1465 C1464 1.391 . S
C1466 H1456 0.950 1_455 S
C1466 C1467 1.386 . S
C1466 C1468 1.391 . S
C1467 C1466 1.386 . S
C1467 C1471 1.393 . S
C1468 H1457 0.950 1_545 S
C1468 C1466 1.391 . S
C1468 C1469 1.400 . S
C1469 C1463 1.491 1_545 S
C1469 C1468 1.400 . S
C1469 C1470 1.398 . S
C1470 H1458 0.950 . S
C1470 C1469 1.398 . S
C1470 C1471 1.391 . S
C1471 H1459 0.950 . S
C1471 C1467 1.393 . S
C1471 C1470 1.391 . S
H1472 C1480 0.950 . S
H1473 C1485 0.950 . S
H1474 C1482 0.950 . S
H1475 C1484 0.950 . S
H1476 C1486 0.950 . S
H1477 C1488 0.950 . S
H1478 C1490 0.950 . S
H1479 C1491 0.950 . S
C1480 H1472 0.950 . S
C1480 C1481 1.386 . S
C1480 C1482 1.391 . S
C1481 C1480 1.386 . S
C1481 C1485 1.393 . S
C1482 H1474 0.950 . S
C1482 C1480 1.391 . S
C1482 C1483 1.400 . S
C1483 C1482 1.400 . S
C1483 C1484 1.398 . S
C1483 C1489 1.491 . S
C1484 H1475 0.950 . S
C1484 C1483 1.398 . S
C1484 C1485 1.391 . S
C1485 H1473 0.950 . S
C1485 C1481 1.393 . S
C1485 C1484 1.391 . S
C1486 H1476 0.950 . S
C1486 C1487 1.386 . S
C1486 C1488 1.391 . S
C1487 C1486 1.386 . S
C1487 C1491 1.393 . S
C1488 H1477 0.950 . S
C1488 C1486 1.391 . S
C1488 C1489 1.400 . S
C1489 C1483 1.491 . S
C1489 C1488 1.400 . S
C1489 C1490 1.398 . S
C1490 H1478 0.950 . S
C1490 C1489 1.398 . S
C1490 C1491 1.391 . S
C1491 H1479 0.950 . S
C1491 C1487 1.393 . S
C1491 C1490 1.391 . S
H1492 C1500 0.950 . S
H1493 C1505 0.950 . S
H1494 C1502 0.950 . S
H1495 C1504 0.950 . S
H1496 C1506 0.950 . S
H1497 C1508 0.950 . S
H1498 C1510 0.950 . S
H1499 C1511 0.950 . S
C1500 H1492 0.950 . S
C1500 C1501 1.386 . S
C1500 C1502 1.391 . S
C1501 C1500 1.386 . S
C1501 C1505 1.393 . S
C1502 H1494 0.950 . S
C1502 C1500 1.391 . S
C1502 C1503 1.400 . S
C1503 C1502 1.400 . S
C1503 C1504 1.398 . S
C1503 C1509 1.491 . S
C1504 H1495 0.950 . S
C1504 C1503 1.398 . S
C1504 C1505 1.391 . S
C1505 H1493 0.950 . S
C1505 C1501 1.393 . S
C1505 C1504 1.391 . S
C1506 H1496 0.950 . S
C1506 C1507 1.386 . S
C1506 C1508 1.391 . S
C1507 C1506 1.386 . S
C1507 C1511 1.393 . S
C1508 H1497 0.950 . S
C1508 C1506 1.391 . S
C1508 C1509 1.400 . S
C1509 C1503 1.491 . S
C1509 C1508 1.400 . S
C1509 C1510 1.398 . S
C1510 H1498 0.950 . S
C1510 C1509 1.398 . S
C1510 C1511 1.391 . S
C1511 H1499 0.950 . S
C1511 C1507 1.393 . S
C1511 C1510 1.391 . S
H1512 C1520 0.950 . S
H1513 C1525 0.950 . S
H1514 C1522 0.950 1_455 S
H1515 C1524 0.950 . S
H1516 C1526 0.950 . S
H1517 C1528 0.950 . S
H1518 C1530 0.950 . S
H1519 C1531 0.950 . S
C1520 H1512 0.950 . S
C1520 C1521 1.386 . S
C1520 C1522 1.391 . S
C1521 C1520 1.386 . S
C1521 C1525 1.393 . S
C1522 H1514 0.950 1_655 S
C1522 C1520 1.391 . S
C1522 C1523 1.400 . S
C1523 C1522 1.400 . S
C1523 C1524 1.398 . S
C1523 C1529 1.491 1_655 S
C1524 H1515 0.950 . S
C1524 C1523 1.398 . S
C1524 C1525 1.391 . S
C1525 H1513 0.950 . S
C1525 C1521 1.393 . S
C1525 C1524 1.391 . S
C1526 H1516 0.950 . S
C1526 C1527 1.386 . S
C1526 C1528 1.391 . S
C1527 C1526 1.386 . S
C1527 C1531 1.393 . S
C1528 H1517 0.950 . S
C1528 C1526 1.391 . S
C1528 C1529 1.400 . S
C1529 C1523 1.491 1_455 S
C1529 C1528 1.400 . S
C1529 C1530 1.398 . S
C1530 H1518 0.950 . S
C1530 C1529 1.398 . S
C1530 C1531 1.391 . S
C1531 H1519 0.950 . S
C1531 C1527 1.393 . S
C1531 C1530 1.391 . S
H1532 C1540 0.950 . S
H1533 C1545 0.950 . S
H1534 C1542 0.950 . S
H1535 C1544 0.950 . S
H1536 C1546 0.950 . S
H1537 C1548 0.950 . S
H1538 C1550 0.950 . S
H1539 C1551 0.950 . S
C1540 H1532 0.950 . S
C1540 C1541 1.386 . S
C1540 C1542 1.391 . S
C1541 C1540 1.386 . S
C1541 C1545 1.393 . S
C1542 H1534 0.950 . S
C1542 C1540 1.391 . S
C1542 C1543 1.400 . S
C1543 C1542 1.400 . S
C1543 C1544 1.398 . S
C1543 C1549 1.491 . S
C1544 H1535 0.950 . S
C1544 C1543 1.398 . S
C1544 C1545 1.391 . S
C1545 H1533 0.950 . S
C1545 C1541 1.393 . S
C1545 C1544 1.391 . S
C1546 H1536 0.950 . S
C1546 C1547 1.386 . S
C1546 C1548 1.391 . S
C1547 C1546 1.386 . S
C1547 C1551 1.393 . S
C1548 H1537 0.950 . S
C1548 C1546 1.391 . S
C1548 C1549 1.400 . S
C1549 C1543 1.491 . S
C1549 C1548 1.400 . S
C1549 C1550 1.398 . S
C1550 H1538 0.950 . S
C1550 C1549 1.398 . S
C1550 C1551 1.391 . S
C1551 H1539 0.950 . S
C1551 C1547 1.393 . S
C1551 C1550 1.391 . S
H1552 C1560 0.950 . S
H1553 C1565 0.950 . S
H1554 C1562 0.950 . S
H1555 C1564 0.950 . S
H1556 C1566 0.950 . S
H1557 C1568 0.950 1_455 S
H1558 C1570 0.950 . S
H1559 C1571 0.950 . S
C1560 H1552 0.950 . S
C1560 C1561 1.386 . S
C1560 C1562 1.391 1_455 S
C1561 C1560 1.386 . S
C1561 C1565 1.393 . S
C1562 H1554 0.950 . S
C1562 C1560 1.391 1_655 S
C1562 C1563 1.400 1_655 S
C1563 C1562 1.400 1_455 S
C1563 C1564 1.398 . S
C1563 C1569 1.491 1_455 S
C1564 H1555 0.950 . S
C1564 C1563 1.398 . S
C1564 C1565 1.391 . S
C1565 H1553 0.950 . S
C1565 C1561 1.393 . S
C1565 C1564 1.391 . S
C1566 H1556 0.950 . S
C1566 C1567 1.386 . S
C1566 C1568 1.391 . S
C1567 C1566 1.386 . S
C1567 C1571 1.393 . S
C1568 H1557 0.950 1_655 S
C1568 C1566 1.391 . S
C1568 C1569 1.400 . S
C1569 C1563 1.491 1_655 S
C1569 C1568 1.400 . S
C1569 C1570 1.398 . S
C1570 H1558 0.950 . S
C1570 C1569 1.398 . S
C1570 C1571 1.391 . S
C1571 H1559 0.950 . S
C1571 C1567 1.393 . S
C1571 C1570 1.391 . S
H1572 C1580 0.950 . S
H1573 C1585 0.950 . S
H1574 C1582 0.950 . S
H1575 C1584 0.950 . S
H1576 C1586 0.950 . S
H1577 C1588 0.950 . S
H1578 C1590 0.950 . S
H1579 C1591 0.950 . S
C1580 H1572 0.950 . S
C1580 C1581 1.386 . S
C1580 C1582 1.391 . S
C1581 C1580 1.386 . S
C1581 C1585 1.393 . S
C1582 H1574 0.950 . S
C1582 C1580 1.391 . S
C1582 C1583 1.400 . S
C1583 C1582 1.400 . S
C1583 C1584 1.398 . S
C1583 C1589 1.491 . S
C1584 H1575 0.950 . S
C1584 C1583 1.398 . S
C1584 C1585 1.391 . S
C1585 H1573 0.950 . S
C1585 C1581 1.393 . S
C1585 C1584 1.391 . S
C1586 H1576 0.950 . S
C1586 C1587 1.386 . S
C1586 C1588 1.391 . S
C1587 C1586 1.386 . S
C1587 C1591 1.393 . S
C1588 H1577 0.950 . S
C1588 C1586 1.391 . S
C1588 C1589 1.400 . S
C1589 C1583 1.491 . S
C1589 C1588 1.400 . S
C1589 C1590 1.398 . S
C1590 H1578 0.950 . S
C1590 C1589 1.398 . S
C1590 C1591 1.391 . S
C1591 H1579 0.950 . S
C1591 C1587 1.393 . S
C1591 C1590 1.391 . S
H1592 C1600 0.950 . S
H1593 C1605 0.950 . S
H1594 C1602 0.950 . S
H1595 C1604 0.950 . S
H1596 C1606 0.950 . S
H1597 C1608 0.950 1_655 S
H1598 C1610 0.950 . S
H1599 C1611 0.950 . S
C1600 H1592 0.950 . S
C1600 C1601 1.386 . S
C1600 C1602 1.391 1_655 S
C1601 C1600 1.386 . S
C1601 C1605 1.393 . S
C1602 H1594 0.950 . S
C1602 C1600 1.391 1_455 S
C1602 C1603 1.400 1_455 S
C1603 C1602 1.400 1_655 S
C1603 C1604 1.398 . S
C1603 C1609 1.491 1_655 S
C1604 H1595 0.950 . S
C1604 C1603 1.398 . S
C1604 C1605 1.391 . S
C1605 H1593 0.950 . S
C1605 C1601 1.393 . S
C1605 C1604 1.391 . S
C1606 H1596 0.950 . S
C1606 C1607 1.386 . S
C1606 C1608 1.391 . S
C1607 C1606 1.386 . S
C1607 C1611 1.393 . S
C1608 H1597 0.950 1_455 S
C1608 C1606 1.391 . S
C1608 C1609 1.400 . S
C1609 C1603 1.491 1_455 S
C1609 C1608 1.400 . S
C1609 C1610 1.398 . S
C1610 H1598 0.950 . S
C1610 C1609 1.398 . S
C1610 C1611 1.391 . S
C1611 H1599 0.950 . S
C1611 C1607 1.393 . S
C1611 C1610 1.391 . S
H1612 C1620 0.950 . S
H1613 C1625 0.950 . S
H1614 C1622 0.950 . S
H1615 C1624 0.950 . S
H1616 C1626 0.950 1_554 S
H1617 C1628 0.950 . S
H1618 C1630 0.950 . S
H1619 C1631 0.950 . S
C1620 H1612 0.950 . S
C1620 C1621 1.386 . S
C1620 C1622 1.391 . S
C1621 C1620 1.386 . S
C1621 C1625 1.393 . S
C1622 H1614 0.950 . S
C1622 C1620 1.391 . S
C1622 C1623 1.400 . S
C1623 C1622 1.400 . S
C1623 C1624 1.398 . S
C1623 C1629 1.491 . S
C1624 H1615 0.950 . S
C1624 C1623 1.398 . S
C1624 C1625 1.391 . S
C1625 H1613 0.950 . S
C1625 C1621 1.393 . S
C1625 C1624 1.391 . S
C1626 H1616 0.950 1_556 S
C1626 C1627 1.386 . S
C1626 C1628 1.391 . S
C1627 C1626 1.386 . S
C1627 C1631 1.393 . S
C1628 H1617 0.950 . S
C1628 C1626 1.391 . S
C1628 C1629 1.400 . S
C1629 C1623 1.491 . S
C1629 C1628 1.400 . S
C1629 C1630 1.398 . S
C1630 H1618 0.950 . S
C1630 C1629 1.398 . S
C1630 C1631 1.391 . S
C1631 H1619 0.950 . S
C1631 C1627 1.393 . S
C1631 C1630 1.391 . S
H1632 C1640 0.950 . S
H1633 C1645 0.950 . S
H1634 C1642 0.950 . S
H1635 C1644 0.950 . S
H1636 C1646 0.950 . S
H1637 C1648 0.950 . S
H1638 C1650 0.950 . S
H1639 C1651 0.950 . S
C1640 H1632 0.950 . S
C1640 C1641 1.386 . S
C1640 C1642 1.391 . S
C1641 C1640 1.386 . S
C1641 C1645 1.393 . S
C1642 H1634 0.950 . S
C1642 C1640 1.391 . S
C1642 C1643 1.400 . S
C1643 C1642 1.400 . S
C1643 C1644 1.398 . S
C1643 C1649 1.491 . S
C1644 H1635 0.950 . S
C1644 C1643 1.398 . S
C1644 C1645 1.391 . S
C1645 H1633 0.950 . S
C1645 C1641 1.393 . S
C1645 C1644 1.391 . S
C1646 H1636 0.950 . S
C1646 C1647 1.386 . S
C1646 C1648 1.391 . S
C1647 C1646 1.386 . S
C1647 C1651 1.393 . S
C1648 H1637 0.950 . S
C1648 C1646 1.391 . S
C1648 C1649 1.400 . S
C1649 C1643 1.491 . S
C1649 C1648 1.400 . S
C1649 C1650 1.398 . S
C1650 H1638 0.950 . S
C1650 C1649 1.398 . S
C1650 C1651 1.391 . S
C1651 H1639 0.950 . S
C1651 C1647 1.393 . S
C1651 C1650 1.391 . S
H1652 C1660 0.950 . S
H1653 C1665 0.950 . S
H1654 C1662 0.939 1_556 S
H1655 C1664 0.950 . S
H1656 C1666 0.950 . S
H1657 C1668 0.971 . S
H1658 C1670 0.950 . S
H1659 C1671 0.950 . S
C1660 H1652 0.950 . S
C1660 C1661 1.386 . S
C1660 C1662 1.391 . S
C1661 C1660 1.386 . S
C1661 C1665 1.393 . S
C1662 H1654 0.939 1_554 S
C1662 C1660 1.391 . S
C1662 C1663 1.400 . S
C1663 C1662 1.400 . S
C1663 C1664 1.398 . S
C1663 C1669 1.491 1_554 S
C1664 H1655 0.950 . S
C1664 C1663 1.398 . S
C1664 C1665 1.391 . S
C1665 H1653 0.950 . S
C1665 C1661 1.393 . S
C1665 C1664 1.391 . S
C1666 H1656 0.950 . S
C1666 C1667 1.386 . S
C1666 C1668 1.374 1_556 S
C1667 C1666 1.386 . S
C1667 C1671 1.393 . S
C1668 H1657 0.971 . S
C1668 C1666 1.374 1_554 S
C1668 C1669 1.398 1_554 S
C1669 C1663 1.491 1_556 S
C1669 C1668 1.398 1_556 S
C1669 C1670 1.398 . S
C1670 H1658 0.950 . S
C1670 C1669 1.398 . S
C1670 C1671 1.391 . S
C1671 H1659 0.950 . S
C1671 C1667 1.393 . S
C1671 C1670 1.391 . S
H1672 C1680 0.950 . S
H1673 C1685 0.950 . S
H1674 C1682 0.950 . S
H1675 C1684 0.950 . S
H1676 C1686 0.950 . S
H1677 C1688 0.950 . S
H1678 C1690 0.950 . S
H1679 C1691 0.950 . S
C1680 H1672 0.950 . S
C1680 C1681 1.386 . S
C1680 C1682 1.391 . S
C1681 C1680 1.386 . S
C1681 C1685 1.393 . S
C1682 H1674 0.950 . S
C1682 C1680 1.391 . S
C1682 C1683 1.400 . S
C1683 C1682 1.400 . S
C1683 C1684 1.398 . S
C1683 C1689 1.491 . S
C1684 H1675 0.950 . S
C1684 C1683 1.398 . S
C1684 C1685 1.391 . S
C1685 H1673 0.950 . S
C1685 C1681 1.393 . S
C1685 C1684 1.391 . S
C1686 H1676 0.950 . S
C1686 C1687 1.386 . S
C1686 C1688 1.391 . S
C1687 C1686 1.386 . S
C1687 C1691 1.393 . S
C1688 H1677 0.950 . S
C1688 C1686 1.391 . S
C1688 C1689 1.400 . S
C1689 C1683 1.491 . S
C1689 C1688 1.400 . S
C1689 C1690 1.398 . S
C1690 H1678 0.950 . S
C1690 C1689 1.398 . S
C1690 C1691 1.391 . S
C1691 H1679 0.950 . S
C1691 C1687 1.393 . S
C1691 C1690 1.391 . S
H1692 C1700 0.950 . S
H1693 C1705 0.950 . S
H1694 C1702 0.950 . S
H1695 C1704 0.950 . S
H1696 C1706 0.950 . S
H1697 C1708 0.950 . S
H1698 C1710 0.950 . S
H1699 C1711 0.950 . S
C1700 H1692 0.950 . S
C1700 C1701 1.386 . S
C1700 C1702 1.391 . S
C1701 C1700 1.386 . S
C1701 C1705 1.393 . S
C1702 H1694 0.950 . S
C1702 C1700 1.391 . S
C1702 C1703 1.400 . S
C1703 C1702 1.400 . S
C1703 C1704 1.398 . S
C1703 C1709 1.491 . S
C1704 H1695 0.950 . S
C1704 C1703 1.398 . S
C1704 C1705 1.391 . S
C1705 H1693 0.950 . S
C1705 C1701 1.393 . S
C1705 C1704 1.391 . S
C1706 H1696 0.950 . S
C1706 C1707 1.386 . S
C1706 C1708 1.391 . S
C1707 C1706 1.386 . S
C1707 C1711 1.393 . S
C1708 H1697 0.950 . S
C1708 C1706 1.391 . S
C1708 C1709 1.400 . S
C1709 C1703 1.491 . S
C1709 C1708 1.400 . S
C1709 C1710 1.398 . S
C1710 H1698 0.950 . S
C1710 C1709 1.398 . S
C1710 C1711 1.391 . S
C1711 H1699 0.950 . S
C1711 C1707 1.393 . S
C1711 C1710 1.391 . S
H1712 C1720 0.950 . S
H1713 C1725 0.950 . S
H1714 C1722 0.950 . S
H1715 C1724 0.950 . S
H1716 C1726 0.950 . S
H1717 C1728 0.950 . S
H1718 C1730 0.950 . S
H1719 C1731 0.950 . S
C1720 H1712 0.950 . S
C1720 C1721 1.386 . S
C1720 C1722 1.391 . S
C1721 C1720 1.386 . S
C1721 C1725 1.393 . S
C1722 H1714 0.950 . S
C1722 C1720 1.391 . S
C1722 C1723 1.400 . S
C1723 C1722 1.400 . S
C1723 C1724 1.398 . S
C1723 C1729 1.491 . S
C1724 H1715 0.950 . S
C1724 C1723 1.398 . S
C1724 C1725 1.391 . S
C1725 H1713 0.950 . S
C1725 C1721 1.393 . S
C1725 C1724 1.391 . S
C1726 H1716 0.950 . S
C1726 C1727 1.386 . S
C1726 C1728 1.391 . S
C1727 C1726 1.386 . S
C1727 C1731 1.393 . S
C1728 H1717 0.950 . S
C1728 C1726 1.391 . S
C1728 C1729 1.400 . S
C1729 C1723 1.491 . S
C1729 C1728 1.400 . S
C1729 C1730 1.398 . S
C1730 H1718 0.950 . S
C1730 C1729 1.398 . S
C1730 C1731 1.391 . S
C1731 H1719 0.950 . S
C1731 C1727 1.393 . S
C1731 C1730 1.391 . S
H1732 C1740 0.950 . S
H1733 C1745 0.950 . S
H1734 C1742 0.950 1_554 S
H1735 C1744 0.950 . S
H1736 C1746 0.950 . S
H1737 C1748 0.950 . S
H1738 C1750 0.950 . S
H1739 C1751 0.950 . S
C1740 H1732 0.950 . S
C1740 C1741 1.386 . S
C1740 C1742 1.391 . S
C1741 C1740 1.386 . S
C1741 C1745 1.393 . S
C1742 H1734 0.950 1_556 S
C1742 C1740 1.391 . S
C1742 C1743 1.400 . S
C1743 C1742 1.400 . S
C1743 C1744 1.398 . S
C1743 C1749 1.491 1_556 S
C1744 H1735 0.950 . S
C1744 C1743 1.398 . S
C1744 C1745 1.391 . S
C1745 H1733 0.950 . S
C1745 C1741 1.393 . S
C1745 C1744 1.391 . S
C1746 H1736 0.950 . S
C1746 C1747 1.386 . S
C1746 C1748 1.391 1_554 S
C1747 C1746 1.386 . S
C1747 C1751 1.393 . S
C1748 H1737 0.950 . S
C1748 C1746 1.391 1_556 S
C1748 C1749 1.400 1_556 S
C1749 C1743 1.491 1_554 S
C1749 C1748 1.400 1_554 S
C1749 C1750 1.398 . S
C1750 H1738 0.950 . S
C1750 C1749 1.398 . S
C1750 C1751 1.391 . S
C1751 H1739 0.950 . S
C1751 C1747 1.393 . S
C1751 C1750 1.391 . S
H1752 C1760 0.950 . S
H1753 C1765 0.950 . S
H1754 C1762 0.950 . S
H1755 C1764 0.950 . S
H1756 C1766 0.950 . S
H1757 C1768 0.950 . S
H1758 C1770 0.950 . S
H1759 C1771 0.950 . S
C1760 H1752 0.950 . S
C1760 C1761 1.386 . S
C1760 C1762 1.391 . S
C1761 C1760 1.386 . S
C1761 C1765 1.393 . S
C1762 H1754 0.950 . S
C1762 C1760 1.391 . S
C1762 C1763 1.400 . S
C1763 C1762 1.400 . S
C1763 C1764 1.398 . S
C1763 C1769 1.491 . S
C1764 H1755 0.950 . S
C1764 C1763 1.398 . S
C1764 C1765 1.391 . S
C1765 H1753 0.950 . S
C1765 C1761 1.393 . S
C1765 C1764 1.391 . S
C1766 H1756 0.950 . S
C1766 C1767 1.386 . S
C1766 C1768 1.391 . S
C1767 C1766 1.386 . S
C1767 C1771 1.393 . S
C1768 H1757 0.950 . S
C1768 C1766 1.391 . S
C1768 C1769 1.400 . S
C1769 C1763 1.491 . S
C1769 C1768 1.400 . S
C1769 C1770 1.398 . S
C1770 H1758 0.950 . S
C1770 C1769 1.398 . S
C1770 C1771 1.391 . S
C1771 H1759 0.950 . S
C1771 C1767 1.393 . S
C1771 C1770 1.391 . S
H1772 C1780 0.950 . S
H1773 C1785 0.950 . S
H1774 C1782 0.950 . S
H1775 C1784 0.950 . S
H1776 C1786 0.950 . S
H1777 C1788 0.950 . S
H1778 C1790 0.950 . S
H1779 C1791 0.950 . S
C1780 H1772 0.950 . S
C1780 C1781 1.386 . S
C1780 C1782 1.391 . S
C1781 C1780 1.386 . S
C1781 C1785 1.393 . S
C1782 H1774 0.950 . S
C1782 C1780 1.391 . S
C1782 C1783 1.400 . S
C1783 C1782 1.400 . S
C1783 C1784 1.398 . S
C1783 C1789 1.491 . S
C1784 H1775 0.950 . S
C1784 C1783 1.398 . S
C1784 C1785 1.391 . S
C1785 H1773 0.950 . S
C1785 C1781 1.393 . S
C1785 C1784 1.391 . S
C1786 H1776 0.950 . S
C1786 C1787 1.386 . S
C1786 C1788 1.391 . S
C1787 C1786 1.386 . S
C1787 C1791 1.393 . S
C1788 H1777 0.950 . S
C1788 C1786 1.391 . S
C1788 C1789 1.400 . S
C1789 C1783 1.491 . S
C1789 C1788 1.400 . S
C1789 C1790 1.398 . S
C1790 H1778 0.950 . S
C1790 C1789 1.398 . S
C1790 C1791 1.391 . S
C1791 H1779 0.950 . S
C1791 C1787 1.393 . S
C1791 C1790 1.391 . S
H1792 C1800 0.950 . S
H1793 C1805 0.950 . S
H1794 C1802 0.950 . S
H1795 C1804 0.950 . S
H1796 C1806 0.950 . S
H1797 C1808 0.950 . S
H1798 C1810 0.950 . S
H1799 C1811 0.950 . S
C1800 H1792 0.950 . S
C1800 C1801 1.386 . S
C1800 C1802 1.391 . S
C1801 C1800 1.386 . S
C1801 C1805 1.393 . S
C1802 H1794 0.950 . S
C1802 C1800 1.391 . S
C1802 C1803 1.400 . S
C1803 C1802 1.400 . S
C1803 C1804 1.398 . S
C1803 C1809 1.491 . S
C1804 H1795 0.950 . S
C1804 C1803 1.398 . S
C1804 C1805 1.391 . S
C1805 H1793 0.950 . S
C1805 C1801 1.393 . S
C1805 C1804 1.391 . S
C1806 H1796 0.950 . S
C1806 C1807 1.386 . S
C1806 C1808 1.391 . S
C1807 C1806 1.386 . S
C1807 C1811 1.393 . S
C1808 H1797 0.950 . S
C1808 C1806 1.391 . S
C1808 C1809 1.400 . S
C1809 C1803 1.491 . S
C1809 C1808 1.400 . S
C1809 C1810 1.398 . S
C1810 H1798 0.950 . S
C1810 C1809 1.398 . S
C1810 C1811 1.391 . S
C1811 H1799 0.950 . S
C1811 C1807 1.393 . S
C1811 C1810 1.391 . S
H1812 C1820 0.950 . S
H1813 C1825 0.950 . S
H1814 C1822 0.950 . S
H1815 C1824 0.950 . S
H1816 C1826 0.950 . S
H1817 C1828 0.950 . S
H1818 C1830 0.950 . S
H1819 C1831 0.950 . S
C1820 H1812 0.950 . S
C1820 C1821 1.386 . S
C1820 C1822 1.391 . S
C1821 C1820 1.386 . S
C1821 C1825 1.393 . S
C1822 H1814 0.950 . S
C1822 C1820 1.391 . S
C1822 C1823 1.400 . S
C1823 C1822 1.400 . S
C1823 C1824 1.398 . S
C1823 C1829 1.491 . S
C1824 H1815 0.950 . S
C1824 C1823 1.398 . S
C1824 C1825 1.391 . S
C1825 H1813 0.950 . S
C1825 C1821 1.393 . S
C1825 C1824 1.391 . S
C1826 H1816 0.950 . S
C1826 C1827 1.386 . S
C1826 C1828 1.391 . S
C1827 C1826 1.386 . S
C1827 C1831 1.393 . S
C1828 H1817 0.950 . S
C1828 C1826 1.391 . S
C1828 C1829 1.400 . S
C1829 C1823 1.491 . S
C1829 C1828 1.400 . S
C1829 C1830 1.398 . S
C1830 H1818 0.950 . S
C1830 C1829 1.398 . S
C1830 C1831 1.391 . S
C1831 H1819 0.950 . S
C1831 C1827 1.393 . S
C1831 C1830 1.391 . S
H1832 C1840 0.950 . S
H1833 C1845 0.950 . S
H1834 C1842 0.950 . S
H1835 C1844 0.950 . S
H1836 C1846 0.950 . S
H1837 C1848 0.950 . S
H1838 C1850 0.950 . S
H1839 C1851 0.950 . S
C1840 H1832 0.950 . S
C1840 C1841 1.386 . S
C1840 C1842 1.391 . S
C1841 C1840 1.386 . S
C1841 C1845 1.393 . S
C1842 H1834 0.950 . S
C1842 C1840 1.391 . S
C1842 C1843 1.400 . S
C1843 C1842 1.400 . S
C1843 C1844 1.398 . S
C1843 C1849 1.491 . S
C1844 H1835 0.950 . S
C1844 C1843 1.398 . S
C1844 C1845 1.391 . S
C1845 H1833 0.950 . S
C1845 C1841 1.393 . S
C1845 C1844 1.391 . S
C1846 H1836 0.950 . S
C1846 C1847 1.386 . S
C1846 C1848 1.391 . S
C1847 C1846 1.386 . S
C1847 C1851 1.393 . S
C1848 H1837 0.950 . S
C1848 C1846 1.391 . S
C1848 C1849 1.400 . S
C1849 C1843 1.491 . S
C1849 C1848 1.400 . S
C1849 C1850 1.398 . S
C1850 H1838 0.950 . S
C1850 C1849 1.398 . S
C1850 C1851 1.391 . S
C1851 H1839 0.950 . S
C1851 C1847 1.393 . S
C1851 C1850 1.391 . S
H1852 C1860 0.950 1_455 S
H1853 C1865 0.950 . S
H1854 C1862 0.950 . S
H1855 C1864 0.950 . S
H1856 C1866 0.950 . S
H1857 C1868 0.950 . S
H1858 C1870 0.950 . S
H1859 C1871 0.950 . S
C1860 H1852 0.950 1_655 S
C1860 C1861 1.386 . S
C1860 C1862 1.391 . S
C1861 C1860 1.386 . S
C1861 C1865 1.393 . S
C1862 H1854 0.950 . S
C1862 C1860 1.391 . S
C1862 C1863 1.400 . S
C1863 C1862 1.400 . S
C1863 C1864 1.398 . S
C1863 C1869 1.491 . S
C1864 H1855 0.950 . S
C1864 C1863 1.398 . S
C1864 C1865 1.391 . S
C1865 H1853 0.950 . S
C1865 C1861 1.393 . S
C1865 C1864 1.391 . S
C1866 H1856 0.950 . S
C1866 C1867 1.386 . S
C1866 C1868 1.391 . S
C1867 C1866 1.386 . S
C1867 C1871 1.393 . S
C1868 H1857 0.950 . S
C1868 C1866 1.391 . S
C1868 C1869 1.400 . S
C1869 C1863 1.491 . S
C1869 C1868 1.400 . S
C1869 C1870 1.398 . S
C1870 H1858 0.950 . S
C1870 C1869 1.398 . S
C1870 C1871 1.391 . S
C1871 H1859 0.950 . S
C1871 C1867 1.393 . S
C1871 C1870 1.391 . S
H1872 C1880 0.950 . S
H1873 C1885 0.950 . S
H1874 C1882 0.950 . S
H1875 C1884 0.950 . S
H1876 C1886 0.950 . S
H1877 C1888 0.950 . S
H1878 C1890 0.950 . S
H1879 C1891 0.950 . S
C1880 H1872 0.950 . S
C1880 C1881 1.386 . S
C1880 C1882 1.391 . S
C1881 C1880 1.386 . S
C1881 C1885 1.393 . S
C1882 H1874 0.950 . S
C1882 C1880 1.391 . S
C1882 C1883 1.400 . S
C1883 C1882 1.400 . S
C1883 C1884 1.398 . S
C1883 C1889 1.491 . S
C1884 H1875 0.950 . S
C1884 C1883 1.398 . S
C1884 C1885 1.391 . S
C1885 H1873 0.950 . S
C1885 C1881 1.393 . S
C1885 C1884 1.391 . S
C1886 H1876 0.950 . S
C1886 C1887 1.386 . S
C1886 C1888 1.391 . S
C1887 C1886 1.386 . S
C1887 C1891 1.393 . S
C1888 H1877 0.950 . S
C1888 C1886 1.391 . S
C1888 C1889 1.400 . S
C1889 C1883 1.491 . S
C1889 C1888 1.400 . S
C1889 C1890 1.398 . S
C1890 H1878 0.950 . S
C1890 C1889 1.398 . S
C1890 C1891 1.391 . S
C1891 H1879 0.950 . S
C1891 C1887 1.393 . S
C1891 C1890 1.391 . S
H1892 C1900 0.950 . S
H1893 C1905 0.950 . S
H1894 C1902 0.950 . S
H1895 C1904 0.950 . S
H1896 C1906 0.950 . S
H1897 C1908 0.950 . S
H1898 C1910 0.950 . S
H1899 C1911 0.950 1_455 S
C1900 H1892 0.950 . S
C1900 C1901 1.386 . S
C1900 C1902 1.391 . S
C1901 C1900 1.386 . S
C1901 C1905 1.393 . S
C1902 H1894 0.950 . S
C1902 C1900 1.391 . S
C1902 C1903 1.400 . S
C1903 C1902 1.400 . S
C1903 C1904 1.398 . S
C1903 C1909 1.491 . S
C1904 H1895 0.950 . S
C1904 C1903 1.398 . S
C1904 C1905 1.391 . S
C1905 H1893 0.950 . S
C1905 C1901 1.393 . S
C1905 C1904 1.391 . S
C1906 H1896 0.950 . S
C1906 C1907 1.386 . S
C1906 C1908 1.391 . S
C1907 C1906 1.386 . S
C1907 C1911 1.393 . S
C1908 H1897 0.950 . S
C1908 C1906 1.391 . S
C1908 C1909 1.400 . S
C1909 C1903 1.491 . S
C1909 C1908 1.400 . S
C1909 C1910 1.398 . S
C1910 H1898 0.950 . S
C1910 C1909 1.398 . S
C1910 C1911 1.391 . S
C1911 H1899 0.950 1_655 S
C1911 C1907 1.393 . S
C1911 C1910 1.391 . S
H1912 C1920 0.950 . S
H1913 C1925 0.950 . S
H1914 C1922 0.950 . S
H1915 C1924 0.950 . S
H1916 C1926 0.950 . S
H1917 C1928 0.950 . S
H1918 C1930 0.950 . S
H1919 C1931 0.950 . S
C1920 H1912 0.950 . S
C1920 C1921 1.386 . S
C1920 C1922 1.391 . S
C1921 C1920 1.386 . S
C1921 C1925 1.393 . S
C1922 H1914 0.950 . S
C1922 C1920 1.391 . S
C1922 C1923 1.400 . S
C1923 C1922 1.400 . S
C1923 C1924 1.398 . S
C1923 C1929 1.491 . S
C1924 H1915 0.950 . S
C1924 C1923 1.398 . S
C1924 C1925 1.391 . S
C1925 H1913 0.950 . S
C1925 C1921 1.393 . S
C1925 C1924 1.391 . S
C1926 H1916 0.950 . S
C1926 C1927 1.386 . S
C1926 C1928 1.391 . S
C1927 C1926 1.386 . S
C1927 C1931 1.393 . S
C1928 H1917 0.950 . S
C1928 C1926 1.391 . S
C1928 C1929 1.400 . S
C1929 C1923 1.491 . S
C1929 C1928 1.400 . S
C1929 C1930 1.398 . S
C1930 H1918 0.950 . S
C1930 C1929 1.398 . S
C1930 C1931 1.391 . S
C1931 H1919 0.950 . S
C1931 C1927 1.393 . S
C1931 C1930 1.391 . S
H1932 C1940 0.950 . S
H1933 C1945 0.950 . S
H1934 C1942 0.950 . S
H1935 C1944 0.950 . S
H1936 C1946 0.950 . S
H1937 C1948 0.950 . S
H1938 C1950 0.950 . S
H1939 C1951 0.950 . S
C1940 H1932 0.950 . S
C1940 C1941 1.386 . S
C1940 C1942 1.391 . S
C1941 C1940 1.386 . S
C1941 C1945 1.393 . S
C1942 H1934 0.950 . S
C1942 C1940 1.391 . S
C1942 C1943 1.400 . S
C1943 C1942 1.400 . S
C1943 C1944 1.398 . S
C1943 C1949 1.491 . S
C1944 H1935 0.950 . S
C1944 C1943 1.398 . S
C1944 C1945 1.391 . S
C1945 H1933 0.950 . S
C1945 C1941 1.393 . S
C1945 C1944 1.391 . S
C1946 H1936 0.950 . S
C1946 C1947 1.386 . S
C1946 C1948 1.391 . S
C1947 C1946 1.386 . S
C1947 C1951 1.393 . S
C1948 H1937 0.950 . S
C1948 C1946 1.391 . S
C1948 C1949 1.400 . S
C1949 C1943 1.491 . S
C1949 C1948 1.400 . S
C1949 C1950 1.398 . S
C1950 H1938 0.950 . S
C1950 C1949 1.398 . S
C1950 C1951 1.391 . S
C1951 H1939 0.950 . S
C1951 C1947 1.393 . S
C1951 C1950 1.391 . S
H1952 C1960 0.950 . S
H1953 C1965 0.950 . S
H1954 C1962 0.950 . S
H1955 C1964 0.950 . S
H1956 C1966 0.950 . S
H1957 C1968 0.950 . S
H1958 C1970 0.950 . S
H1959 C1971 0.950 . S
C1960 H1952 0.950 . S
C1960 C1961 1.386 . S
C1960 C1962 1.391 . S
C1961 C1960 1.386 . S
C1961 C1965 1.393 . S
C1962 H1954 0.950 . S
C1962 C1960 1.391 . S
C1962 C1963 1.400 . S
C1963 C1962 1.400 . S
C1963 C1964 1.398 . S
C1963 C1969 1.491 . S
C1964 H1955 0.950 . S
C1964 C1963 1.398 . S
C1964 C1965 1.391 . S
C1965 H1953 0.950 . S
C1965 C1961 1.393 . S
C1965 C1964 1.391 . S
C1966 H1956 0.950 . S
C1966 C1967 1.386 . S
C1966 C1968 1.391 . S
C1967 C1966 1.386 . S
C1967 C1971 1.393 . S
C1968 H1957 0.950 . S
C1968 C1966 1.391 . S
C1968 C1969 1.400 . S
C1969 C1963 1.491 . S
C1969 C1968 1.400 . S
C1969 C1970 1.398 . S
C1970 H1958 0.950 . S
C1970 C1969 1.398 . S
C1970 C1971 1.391 . S
C1971 H1959 0.950 . S
C1971 C1967 1.393 . S
C1971 C1970 1.391 . S
H1972 C1980 0.950 . S
H1973 C1985 0.950 . S
H1974 C1982 0.950 . S
H1975 C1984 0.950 . S
H1976 C1986 0.950 . S
H1977 C1988 0.950 . S
H1978 C1990 0.950 . S
H1979 C1991 0.950 . S
C1980 H1972 0.950 . S
C1980 C1981 1.386 . S
C1980 C1982 1.391 . S
C1981 C1980 1.386 . S
C1981 C1985 1.393 . S
C1982 H1974 0.950 . S
C1982 C1980 1.391 . S
C1982 C1983 1.400 . S
C1983 C1982 1.400 . S
C1983 C1984 1.398 . S
C1983 C1989 1.491 . S
C1984 H1975 0.950 . S
C1984 C1983 1.398 . S
C1984 C1985 1.391 . S
C1985 H1973 0.950 . S
C1985 C1981 1.393 . S
C1985 C1984 1.391 . S
C1986 H1976 0.950 . S
C1986 C1987 1.386 . S
C1986 C1988 1.391 . S
C1987 C1986 1.386 . S
C1987 C1991 1.393 . S
C1988 H1977 0.950 . S
C1988 C1986 1.391 . S
C1988 C1989 1.400 . S
C1989 C1983 1.491 . S
C1989 C1988 1.400 . S
C1989 C1990 1.398 . S
C1990 H1978 0.950 . S
C1990 C1989 1.398 . S
C1990 C1991 1.391 . S
C1991 H1979 0.950 . S
C1991 C1987 1.393 . S
C1991 C1990 1.391 . S
H1992 C2000 0.950 . S
H1993 C2005 0.950 . S
H1994 C2002 0.950 . S
H1995 C2004 0.950 . S
H1996 C2006 0.950 . S
H1997 C2008 0.950 . S
H1998 C2010 0.950 . S
H1999 C2011 0.950 . S
C2000 H1992 0.950 . S
C2000 C2001 1.386 . S
C2000 C2002 1.391 . S
C2001 C2000 1.386 . S
C2001 C2005 1.393 . S
C2002 H1994 0.950 . S
C2002 C2000 1.391 . S
C2002 C2003 1.400 . S
C2003 C2002 1.400 . S
C2003 C2004 1.398 . S
C2003 C2009 1.491 . S
C2004 H1995 0.950 . S
C2004 C2003 1.398 . S
C2004 C2005 1.391 . S
C2005 H1993 0.950 . S
C2005 C2001 1.393 . S
C2005 C2004 1.391 . S
C2006 H1996 0.950 . S
C2006 C2007 1.386 . S
C2006 C2008 1.391 . S
C2007 C2006 1.386 . S
C2007 C2011 1.393 . S
C2008 H1997 0.950 . S
C2008 C2006 1.391 . S
C2008 C2009 1.400 . S
C2009 C2003 1.491 . S
C2009 C2008 1.400 . S
C2009 C2010 1.398 . S
C2010 H1998 0.950 . S
C2010 C2009 1.398 . S
C2010 C2011 1.391 . S
C2011 H1999 0.950 . S
C2011 C2007 1.393 . S
C2011 C2010 1.391 . S
H2012 C2020 0.950 . S
H2013 C2025 0.950 . S
H2014 C2022 0.950 . S
H2015 C2024 0.950 . S
H2016 C2026 0.950 . S
H2017 C2028 0.950 . S
H2018 C2030 0.950 . S
H2019 C2031 0.950 . S
C2020 H2012 0.950 . S
C2020 C2021 1.386 . S
C2020 C2022 1.391 . S
C2021 C2020 1.386 . S
C2021 C2025 1.393 . S
C2022 H2014 0.950 . S
C2022 C2020 1.391 . S
C2022 C2023 1.400 . S
C2023 C2022 1.400 . S
C2023 C2024 1.398 . S
C2023 C2029 1.491 . S
C2024 H2015 0.950 . S
C2024 C2023 1.398 . S
C2024 C2025 1.391 . S
C2025 H2013 0.950 . S
C2025 C2021 1.393 . S
C2025 C2024 1.391 . S
C2026 H2016 0.950 . S
C2026 C2027 1.386 . S
C2026 C2028 1.391 . S
C2027 C2026 1.386 . S
C2027 C2031 1.393 . S
C2028 H2017 0.950 . S
C2028 C2026 1.391 . S
C2028 C2029 1.400 . S
C2029 C2023 1.491 . S
C2029 C2028 1.400 . S
C2029 C2030 1.398 . S
C2030 H2018 0.950 . S
C2030 C2029 1.398 . S
C2030 C2031 1.391 . S
C2031 H2019 0.950 . S
C2031 C2027 1.393 . S
C2031 C2030 1.391 . S
H2032 C2040 0.950 . S
H2033 C2045 0.950 . S
H2034 C2042 0.950 . S
H2035 C2044 0.950 . S
H2036 C2046 0.950 . S
H2037 C2048 0.950 . S
H2038 C2050 0.950 . S
H2039 C2051 0.950 . S
C2040 H2032 0.950 . S
C2040 C2041 1.386 . S
C2040 C2042 1.391 . S
C2041 C2040 1.386 . S
C2041 C2045 1.393 . S
C2042 H2034 0.950 . S
C2042 C2040 1.391 . S
C2042 C2043 1.400 . S
C2043 C2042 1.400 . S
C2043 C2044 1.398 . S
C2043 C2049 1.491 . S
C2044 H2035 0.950 . S
C2044 C2043 1.398 . S
C2044 C2045 1.391 . S
C2045 H2033 0.950 . S
C2045 C2041 1.393 . S
C2045 C2044 1.391 . S
C2046 H2036 0.950 . S
C2046 C2047 1.386 . S
C2046 C2048 1.391 . S
C2047 C2046 1.386 . S
C2047 C2051 1.393 . S
C2048 H2037 0.950 . S
C2048 C2046 1.391 . S
C2048 C2049 1.400 . S
C2049 C2043 1.491 . S
C2049 C2048 1.400 . S
C2049 C2050 1.398 . S
C2050 H2038 0.950 . S
C2050 C2049 1.398 . S
C2050 C2051 1.391 . S
C2051 H2039 0.950 . S
C2051 C2047 1.393 . S
C2051 C2050 1.391 . S
H2052 C2060 0.950 . S
H2053 C2065 0.950 . S
H2054 C2062 0.950 . S
H2055 C2064 0.950 . S
H2056 C2066 0.950 . S
H2057 C2068 0.950 . S
H2058 C2070 0.950 . S
H2059 C2071 0.950 . S
C2060 H2052 0.950 . S
C2060 C2061 1.386 . S
C2060 C2062 1.391 . S
C2061 C2060 1.386 . S
C2061 C2065 1.393 . S
C2062 H2054 0.950 . S
C2062 C2060 1.391 . S
C2062 C2063 1.400 . S
C2063 C2062 1.400 . S
C2063 C2064 1.398 . S
C2063 C2069 1.491 . S
C2064 H2055 0.950 . S
C2064 C2063 1.398 . S
C2064 C2065 1.391 . S
C2065 H2053 0.950 . S
C2065 C2061 1.393 . S
C2065 C2064 1.391 . S
C2066 H2056 0.950 . S
C2066 C2067 1.386 . S
C2066 C2068 1.391 . S
C2067 C2066 1.386 . S
C2067 C2071 1.393 . S
C2068 H2057 0.950 . S
C2068 C2066 1.391 . S
C2068 C2069 1.400 . S
C2069 C2063 1.491 . S
C2069 C2068 1.400 . S
C2069 C2070 1.398 . S
C2070 H2058 0.950 . S
C2070 C2069 1.398 . S
C2070 C2071 1.391 . S
C2071 H2059 0.950 . S
C2071 C2067 1.393 . S
C2071 C2070 1.391 . S
H2072 C2080 0.950 . S
H2073 C2085 0.950 1_554 S
H2074 C2082 0.950 . S
H2075 C2084 0.950 . S
H2076 C2086 0.950 . S
H2077 C2088 0.950 . S
H2078 C2090 0.950 . S
H2079 C2091 0.950 . S
C2080 H2072 0.950 . S
C2080 C2081 1.386 . S
C2080 C2082 1.391 . S
C2081 C2080 1.386 . S
C2081 C2085 1.393 . S
C2082 H2074 0.950 . S
C2082 C2080 1.391 . S
C2082 C2083 1.400 . S
C2083 C2082 1.400 . S
C2083 C2084 1.398 . S
C2083 C2089 1.491 . S
C2084 H2075 0.950 . S
C2084 C2083 1.398 . S
C2084 C2085 1.391 . S
C2085 H2073 0.950 1_556 S
C2085 C2081 1.393 . S
C2085 C2084 1.391 . S
C2086 H2076 0.950 . S
C2086 C2087 1.386 . S
C2086 C2088 1.391 . S
C2087 C2086 1.386 . S
C2087 C2091 1.393 . S
C2088 H2077 0.950 . S
C2088 C2086 1.391 . S
C2088 C2089 1.400 . S
C2089 C2083 1.491 . S
C2089 C2088 1.400 . S
C2089 C2090 1.398 . S
C2090 H2078 0.950 . S
C2090 C2089 1.398 . S
C2090 C2091 1.391 . S
C2091 H2079 0.950 . S
C2091 C2087 1.393 . S
C2091 C2090 1.391 . S
H2092 C2100 0.950 . S
H2093 C2105 0.950 . S
H2094 C2102 0.950 . S
H2095 C2104 0.950 . S
H2096 C2106 0.950 . S
H2097 C2108 0.950 1_455 S
H2098 C2110 0.950 . S
H2099 C2111 0.950 . S
C2100 H2092 0.950 . S
C2100 C2101 1.386 . S
C2100 C2102 1.391 1_455 S
C2101 C2100 1.386 . S
C2101 C2105 1.393 . S
C2102 H2094 0.950 . S
C2102 C2100 1.391 1_655 S
C2102 C2103 1.400 1_655 S
C2103 C2102 1.400 1_455 S
C2103 C2104 1.398 . S
C2103 C2109 1.491 1_455 S
C2104 H2095 0.950 . S
C2104 C2103 1.398 . S
C2104 C2105 1.391 . S
C2105 H2093 0.950 . S
C2105 C2101 1.393 . S
C2105 C2104 1.391 . S
C2106 H2096 0.950 . S
C2106 C2107 1.386 . S
C2106 C2108 1.391 . S
C2107 C2106 1.386 . S
C2107 C2111 1.393 . S
C2108 H2097 0.950 1_655 S
C2108 C2106 1.391 . S
C2108 C2109 1.400 . S
C2109 C2103 1.491 1_655 S
C2109 C2108 1.400 . S
C2109 C2110 1.398 . S
C2110 H2098 0.950 . S
C2110 C2109 1.398 . S
C2110 C2111 1.391 . S
C2111 H2099 0.950 . S
C2111 C2107 1.393 . S
C2111 C2110 1.391 . S
H2112 C2120 0.950 . S
H2113 C2125 0.950 . S
H2114 C2122 0.950 . S
H2115 C2124 0.950 . S
H2116 C2126 0.950 . S
H2117 C2128 0.950 . S
H2118 C2130 0.950 . S
H2119 C2131 0.950 . S
C2120 H2112 0.950 . S
C2120 C2121 1.386 . S
C2120 C2122 1.391 . S
C2121 C2120 1.386 . S
C2121 C2125 1.393 . S
C2122 H2114 0.950 . S
C2122 C2120 1.391 . S
C2122 C2123 1.400 . S
C2123 C2122 1.400 . S
C2123 C2124 1.398 . S
C2123 C2129 1.491 . S
C2124 H2115 0.950 . S
C2124 C2123 1.398 . S
C2124 C2125 1.391 . S
C2125 H2113 0.950 . S
C2125 C2121 1.393 . S
C2125 C2124 1.391 . S
C2126 H2116 0.950 . S
C2126 C2127 1.386 . S
C2126 C2128 1.391 . S
C2127 C2126 1.386 . S
C2127 C2131 1.393 . S
C2128 H2117 0.950 . S
C2128 C2126 1.391 . S
C2128 C2129 1.400 . S
C2129 C2123 1.491 . S
C2129 C2128 1.400 . S
C2129 C2130 1.398 . S
C2130 H2118 0.950 . S
C2130 C2129 1.398 . S
C2130 C2131 1.391 . S
C2131 H2119 0.950 . S
C2131 C2127 1.393 . S
C2131 C2130 1.391 . S
H2132 C2140 0.950 . S
H2133 C2145 0.950 . S
H2134 C2142 0.950 . S
H2135 C2144 0.950 . S
H2136 C2146 0.950 . S
H2137 C2148 0.950 . S
H2138 C2150 0.950 . S
H2139 C2151 0.950 . S
C2140 H2132 0.950 . S
C2140 C2141 1.386 . S
C2140 C2142 1.391 . S
C2141 C2140 1.386 . S
C2141 C2145 1.393 . S
C2142 H2134 0.950 . S
C2142 C2140 1.391 . S
C2142 C2143 1.400 . S
C2143 C2142 1.400 . S
C2143 C2144 1.398 . S
C2143 C2149 1.491 . S
C2144 H2135 0.950 . S
C2144 C2143 1.398 . S
C2144 C2145 1.391 . S
C2145 H2133 0.950 . S
C2145 C2141 1.393 . S
C2145 C2144 1.391 . S
C2146 H2136 0.950 . S
C2146 C2147 1.386 . S
C2146 C2148 1.391 . S
C2147 C2146 1.386 . S
C2147 C2151 1.393 . S
C2148 H2137 0.950 . S
C2148 C2146 1.391 . S
C2148 C2149 1.400 . S
C2149 C2143 1.491 . S
C2149 C2148 1.400 . S
C2149 C2150 1.398 . S
C2150 H2138 0.950 . S
C2150 C2149 1.398 . S
C2150 C2151 1.391 . S
C2151 H2139 0.950 . S
C2151 C2147 1.393 . S
C2151 C2150 1.391 . S
H2152 C2160 0.950 . S
H2153 C2165 0.950 . S
H2154 C2162 0.950 . S
H2155 C2164 0.950 . S
H2156 C2166 0.950 . S
H2157 C2168 0.950 . S
H2158 C2170 0.950 . S
H2159 C2171 0.950 . S
C2160 H2152 0.950 . S
C2160 C2161 1.386 . S
C2160 C2162 1.391 . S
C2161 C2160 1.386 . S
C2161 C2165 1.393 . S
C2162 H2154 0.950 . S
C2162 C2160 1.391 . S
C2162 C2163 1.400 . S
C2163 C2162 1.400 . S
C2163 C2164 1.398 . S
C2163 C2169 1.491 . S
C2164 H2155 0.950 . S
C2164 C2163 1.398 . S
C2164 C2165 1.391 . S
C2165 H2153 0.950 . S
C2165 C2161 1.393 . S
C2165 C2164 1.391 . S
C2166 H2156 0.950 . S
C2166 C2167 1.386 . S
C2166 C2168 1.391 . S
C2167 C2166 1.386 . S
C2167 C2171 1.393 . S
C2168 H2157 0.950 . S
C2168 C2166 1.391 . S
C2168 C2169 1.400 . S
C2169 C2163 1.491 . S
C2169 C2168 1.400 . S
C2169 C2170 1.398 . S
C2170 H2158 0.950 . S
C2170 C2169 1.398 . S
C2170 C2171 1.391 . S
C2171 H2159 0.950 . S
C2171 C2167 1.393 . S
C2171 C2170 1.391 . S
H2172 C2180 0.950 . S
H2173 C2185 0.950 . S
H2174 C2182 0.950 . S
H2175 C2184 0.950 . S
H2176 C2186 0.950 . S
H2177 C2188 0.950 . S
H2178 C2190 0.950 . S
H2179 C2191 0.950 . S
C2180 H2172 0.950 . S
C2180 C2181 1.386 . S
C2180 C2182 1.391 . S
C2181 C2180 1.386 . S
C2181 C2185 1.393 . S
C2182 H2174 0.950 . S
C2182 C2180 1.391 . S
C2182 C2183 1.400 . S
C2183 C2182 1.400 . S
C2183 C2184 1.398 . S
C2183 C2189 1.491 . S
C2184 H2175 0.950 . S
C2184 C2183 1.398 . S
C2184 C2185 1.391 . S
C2185 H2173 0.950 . S
C2185 C2181 1.393 . S
C2185 C2184 1.391 . S
C2186 H2176 0.950 . S
C2186 C2187 1.386 . S
C2186 C2188 1.391 . S
C2187 C2186 1.386 . S
C2187 C2191 1.393 . S
C2188 H2177 0.950 . S
C2188 C2186 1.391 . S
C2188 C2189 1.400 . S
C2189 C2183 1.491 . S
C2189 C2188 1.400 . S
C2189 C2190 1.398 . S
C2190 H2178 0.950 . S
C2190 C2189 1.398 . S
C2190 C2191 1.391 . S
C2191 H2179 0.950 . S
C2191 C2187 1.393 . S
C2191 C2190 1.391 . S
H2192 C2200 0.950 . S
H2193 C2205 0.950 . S
H2194 C2202 0.950 . S
H2195 C2204 0.950 . S
H2196 C2206 0.950 . S
H2197 C2208 0.950 . S
H2198 C2210 0.950 . S
H2199 C2211 0.950 . S
C2200 H2192 0.950 . S
C2200 C2201 1.386 . S
C2200 C2202 1.391 . S
C2201 C2200 1.386 . S
C2201 C2205 1.393 . S
C2202 H2194 0.950 . S
C2202 C2200 1.391 . S
C2202 C2203 1.400 . S
C2203 C2202 1.400 . S
C2203 C2204 1.398 . S
C2203 C2209 1.491 . S
C2204 H2195 0.950 . S
C2204 C2203 1.398 . S
C2204 C2205 1.391 . S
C2205 H2193 0.950 . S
C2205 C2201 1.393 . S
C2205 C2204 1.391 . S
C2206 H2196 0.950 . S
C2206 C2207 1.386 . S
C2206 C2208 1.391 . S
C2207 C2206 1.386 . S
C2207 C2211 1.393 . S
C2208 H2197 0.950 . S
C2208 C2206 1.391 . S
C2208 C2209 1.400 . S
C2209 C2203 1.491 . S
C2209 C2208 1.400 . S
C2209 C2210 1.398 . S
C2210 H2198 0.950 . S
C2210 C2209 1.398 . S
C2210 C2211 1.391 . S
C2211 H2199 0.950 . S
C2211 C2207 1.393 . S
C2211 C2210 1.391 . S
H2212 C2220 0.950 . S
H2213 C2225 0.950 . S
H2214 C2222 0.950 . S
H2215 C2224 0.950 . S
H2216 C2226 0.950 . S
H2217 C2228 0.950 . S
H2218 C2230 0.950 . S
H2219 C2231 0.950 . S
C2220 H2212 0.950 . S
C2220 C2221 1.386 . S
C2220 C2222 1.391 . S
C2221 C2220 1.386 . S
C2221 C2225 1.393 . S
C2222 H2214 0.950 . S
C2222 C2220 1.391 . S
C2222 C2223 1.400 . S
C2223 C2222 1.400 . S
C2223 C2224 1.398 . S
C2223 C2229 1.491 . S
C2224 H2215 0.950 . S
C2224 C2223 1.398 . S
C2224 C2225 1.391 . S
C2225 H2213 0.950 . S
C2225 C2221 1.393 . S
C2225 C2224 1.391 . S
C2226 H2216 0.950 . S
C2226 C2227 1.386 . S
C2226 C2228 1.391 . S
C2227 C2226 1.386 . S
C2227 C2231 1.393 . S
C2228 H2217 0.950 . S
C2228 C2226 1.391 . S
C2228 C2229 1.400 . S
C2229 C2223 1.491 . S
C2229 C2228 1.400 . S
C2229 C2230 1.398 . S
C2230 H2218 0.950 . S
C2230 C2229 1.398 . S
C2230 C2231 1.391 . S
C2231 H2219 0.950 . S
C2231 C2227 1.393 . S
C2231 C2230 1.391 . S
H2232 C2240 0.950 . S
H2233 C2245 0.950 . S
H2234 C2242 0.950 . S
H2235 C2244 0.950 . S
H2236 C2246 0.950 . S
H2237 C2248 0.950 . S
H2238 C2250 0.950 . S
H2239 C2251 0.950 . S
C2240 H2232 0.950 . S
C2240 C2241 1.386 . S
C2240 C2242 1.391 . S
C2241 C2240 1.386 . S
C2241 C2245 1.393 . S
C2242 H2234 0.950 . S
C2242 C2240 1.391 . S
C2242 C2243 1.400 . S
C2243 C2242 1.400 . S
C2243 C2244 1.398 . S
C2243 C2249 1.491 . S
C2244 H2235 0.950 . S
C2244 C2243 1.398 . S
C2244 C2245 1.391 . S
C2245 H2233 0.950 . S
C2245 C2241 1.393 . S
C2245 C2244 1.391 . S
C2246 H2236 0.950 . S
C2246 C2247 1.386 . S
C2246 C2248 1.391 . S
C2247 C2246 1.386 . S
C2247 C2251 1.393 . S
C2248 H2237 0.950 . S
C2248 C2246 1.391 . S
C2248 C2249 1.400 . S
C2249 C2243 1.491 . S
C2249 C2248 1.400 . S
C2249 C2250 1.398 . S
C2250 H2238 0.950 . S
C2250 C2249 1.398 . S
C2250 C2251 1.391 . S
C2251 H2239 0.950 . S
C2251 C2247 1.393 . S
C2251 C2250 1.391 . S
H2252 C2260 0.950 . S
H2253 C2265 0.950 . S
H2254 C2262 0.950 . S
H2255 C2264 0.950 . S
H2256 C2266 0.950 . S
H2257 C2268 0.950 . S
H2258 C2270 0.950 . S
H2259 C2271 0.950 . S
C2260 H2252 0.950 . S
C2260 C2261 1.386 . S
C2260 C2262 1.391 . S
C2261 C2260 1.386 . S
C2261 C2265 1.393 . S
C2262 H2254 0.950 . S
C2262 C2260 1.391 . S
C2262 C2263 1.400 . S
C2263 C2262 1.400 . S
C2263 C2264 1.398 . S
C2263 C2269 1.491 . S
C2264 H2255 0.950 . S
C2264 C2263 1.398 . S
C2264 C2265 1.391 . S
C2265 H2253 0.950 . S
C2265 C2261 1.393 . S
C2265 C2264 1.391 . S
C2266 H2256 0.950 . S
C2266 C2267 1.386 . S
C2266 C2268 1.391 . S
C2267 C2266 1.386 . S
C2267 C2271 1.393 . S
C2268 H2257 0.950 . S
C2268 C2266 1.391 . S
C2268 C2269 1.400 . S
C2269 C2263 1.491 . S
C2269 C2268 1.400 . S
C2269 C2270 1.398 . S
C2270 H2258 0.950 . S
C2270 C2269 1.398 . S
C2270 C2271 1.391 . S
C2271 H2259 0.950 . S
C2271 C2267 1.393 . S
C2271 C2270 1.391 . S
H2272 C2280 0.950 . S
H2273 C2285 0.950 . S
H2274 C2282 0.950 . S
H2275 C2284 0.950 . S
H2276 C2286 0.950 . S
H2277 C2288 0.950 . S
H2278 C2290 0.950 . S
H2279 C2291 0.950 . S
C2280 H2272 0.950 . S
C2280 C2281 1.386 . S
C2280 C2282 1.391 . S
C2281 C2280 1.386 . S
C2281 C2285 1.393 . S
C2282 H2274 0.950 . S
C2282 C2280 1.391 . S
C2282 C2283 1.400 . S
C2283 C2282 1.400 . S
C2283 C2284 1.398 . S
C2283 C2289 1.491 . S
C2284 H2275 0.950 . S
C2284 C2283 1.398 . S
C2284 C2285 1.391 . S
C2285 H2273 0.950 . S
C2285 C2281 1.393 . S
C2285 C2284 1.391 . S
C2286 H2276 0.950 . S
C2286 C2287 1.386 . S
C2286 C2288 1.391 . S
C2287 C2286 1.386 . S
C2287 C2291 1.393 . S
C2288 H2277 0.950 . S
C2288 C2286 1.391 . S
C2288 C2289 1.400 . S
C2289 C2283 1.491 . S
C2289 C2288 1.400 . S
C2289 C2290 1.398 . S
C2290 H2278 0.950 . S
C2290 C2289 1.398 . S
C2290 C2291 1.391 . S
C2291 H2279 0.950 . S
C2291 C2287 1.393 . S
C2291 C2290 1.391 . S
H2292 C2300 0.950 . S
H2293 C2305 0.950 . S
H2294 C2302 0.950 . S
H2295 C2304 0.950 . S
H2296 C2306 0.950 . S
H2297 C2308 0.950 . S
H2298 C2310 0.950 . S
H2299 C2311 0.950 . S
C2300 H2292 0.950 . S
C2300 C2301 1.386 . S
C2300 C2302 1.391 . S
C2301 C2300 1.386 . S
C2301 C2305 1.393 . S
C2302 H2294 0.950 . S
C2302 C2300 1.391 . S
C2302 C2303 1.400 . S
C2303 C2302 1.400 . S
C2303 C2304 1.398 . S
C2303 C2309 1.491 . S
C2304 H2295 0.950 . S
C2304 C2303 1.398 . S
C2304 C2305 1.391 . S
C2305 H2293 0.950 . S
C2305 C2301 1.393 . S
C2305 C2304 1.391 . S
C2306 H2296 0.950 . S
C2306 C2307 1.386 . S
C2306 C2308 1.391 . S
C2307 C2306 1.386 . S
C2307 C2311 1.393 . S
C2308 H2297 0.950 . S
C2308 C2306 1.391 . S
C2308 C2309 1.400 . S
C2309 C2303 1.491 . S
C2309 C2308 1.400 . S
C2309 C2310 1.398 . S
C2310 H2298 0.950 . S
C2310 C2309 1.398 . S
C2310 C2311 1.391 . S
C2311 H2299 0.950 . S
C2311 C2307 1.393 . S
C2311 C2310 1.391 . S
H2312 C2320 0.950 . S
H2313 C2325 0.950 . S
H2314 C2322 0.950 . S
H2315 C2324 0.950 . S
H2316 C2326 0.950 . S
H2317 C2328 0.950 . S
H2318 C2330 0.950 . S
H2319 C2331 0.950 . S
C2320 H2312 0.950 . S
C2320 C2321 1.386 . S
C2320 C2322 1.391 . S
C2321 C2320 1.386 . S
C2321 C2325 1.393 . S
C2322 H2314 0.950 . S
C2322 C2320 1.391 . S
C2322 C2323 1.400 . S
C2323 C2322 1.400 . S
C2323 C2324 1.398 . S
C2323 C2329 1.491 . S
C2324 H2315 0.950 . S
C2324 C2323 1.398 . S
C2324 C2325 1.391 . S
C2325 H2313 0.950 . S
C2325 C2321 1.393 . S
C2325 C2324 1.391 . S
C2326 H2316 0.950 . S
C2326 C2327 1.386 . S
C2326 C2328 1.391 . S
C2327 C2326 1.386 . S
C2327 C2331 1.393 . S
C2328 H2317 0.950 . S
C2328 C2326 1.391 . S
C2328 C2329 1.400 . S
C2329 C2323 1.491 . S
C2329 C2328 1.400 . S
C2329 C2330 1.398 . S
C2330 H2318 0.950 . S
C2330 C2329 1.398 . S
C2330 C2331 1.391 . S
C2331 H2319 0.950 . S
C2331 C2327 1.393 . S
C2331 C2330 1.391 . S
H2332 C2340 0.950 . S
H2333 C2345 0.950 . S
H2334 C2342 0.950 . S
H2335 C2344 0.950 . S
H2336 C2346 0.950 . S
H2337 C2348 0.950 . S
H2338 C2350 0.950 . S
H2339 C2351 0.950 . S
C2340 H2332 0.950 . S
C2340 C2341 1.386 . S
C2340 C2342 1.391 . S
C2341 C2340 1.386 . S
C2341 C2345 1.393 . S
C2342 H2334 0.950 . S
C2342 C2340 1.391 . S
C2342 C2343 1.400 . S
C2343 C2342 1.400 . S
C2343 C2344 1.398 . S
C2343 C2349 1.491 . S
C2344 H2335 0.950 . S
C2344 C2343 1.398 . S
C2344 C2345 1.391 . S
C2345 H2333 0.950 . S
C2345 C2341 1.393 . S
C2345 C2344 1.391 . S
C2346 H2336 0.950 . S
C2346 C2347 1.386 . S
C2346 C2348 1.391 . S
C2347 C2346 1.386 . S
C2347 C2351 1.393 . S
C2348 H2337 0.950 . S
C2348 C2346 1.391 . S
C2348 C2349 1.400 . S
C2349 C2343 1.491 . S
C2349 C2348 1.400 . S
C2349 C2350 1.398 . S
C2350 H2338 0.950 . S
C2350 C2349 1.398 . S
C2350 C2351 1.391 . S
C2351 H2339 0.950 . S
C2351 C2347 1.393 . S
C2351 C2350 1.391 . S
H2352 C2360 0.950 . S
H2353 C2365 0.950 . S
H2354 C2362 0.950 . S
H2355 C2364 0.950 . S
H2356 C2366 0.950 . S
H2357 C2368 0.950 . S
H2358 C2370 0.950 . S
H2359 C2371 0.950 . S
C2360 H2352 0.950 . S
C2360 C2361 1.386 . S
C2360 C2362 1.391 . S
C2361 C2360 1.386 . S
C2361 C2365 1.393 . S
C2362 H2354 0.950 . S
C2362 C2360 1.391 . S
C2362 C2363 1.400 . S
C2363 C2362 1.400 . S
C2363 C2364 1.398 . S
C2363 C2369 1.491 . S
C2364 H2355 0.950 . S
C2364 C2363 1.398 . S
C2364 C2365 1.391 . S
C2365 H2353 0.950 . S
C2365 C2361 1.393 . S
C2365 C2364 1.391 . S
C2366 H2356 0.950 . S
C2366 C2367 1.386 . S
C2366 C2368 1.391 . S
C2367 C2366 1.386 . S
C2367 C2371 1.393 . S
C2368 H2357 0.950 . S
C2368 C2366 1.391 . S
C2368 C2369 1.400 . S
C2369 C2363 1.491 . S
C2369 C2368 1.400 . S
C2369 C2370 1.398 . S
C2370 H2358 0.950 . S
C2370 C2369 1.398 . S
C2370 C2371 1.391 . S
C2371 H2359 0.950 . S
C2371 C2367 1.393 . S
C2371 C2370 1.391 . S
H2372 C2380 0.950 . S
H2373 C2385 0.950 . S
H2374 C2382 0.950 . S
H2375 C2384 0.950 . S
H2376 C2386 0.950 . S
H2377 C2388 0.950 . S
H2378 C2390 0.950 . S
H2379 C2391 0.950 . S
C2380 H2372 0.950 . S
C2380 C2381 1.386 . S
C2380 C2382 1.391 . S
C2381 C2380 1.386 . S
C2381 C2385 1.393 . S
C2382 H2374 0.950 . S
C2382 C2380 1.391 . S
C2382 C2383 1.400 . S
C2383 C2382 1.400 . S
C2383 C2384 1.398 . S
C2383 C2389 1.491 . S
C2384 H2375 0.950 . S
C2384 C2383 1.398 . S
C2384 C2385 1.391 . S
C2385 H2373 0.950 . S
C2385 C2381 1.393 . S
C2385 C2384 1.391 . S
C2386 H2376 0.950 . S
C2386 C2387 1.386 . S
C2386 C2388 1.391 . S
C2387 C2386 1.386 . S
C2387 C2391 1.393 . S
C2388 H2377 0.950 . S
C2388 C2386 1.391 . S
C2388 C2389 1.400 . S
C2389 C2383 1.491 . S
C2389 C2388 1.400 . S
C2389 C2390 1.398 . S
C2390 H2378 0.950 . S
C2390 C2389 1.398 . S
C2390 C2391 1.391 . S
C2391 H2379 0.950 . S
C2391 C2387 1.393 . S
C2391 C2390 1.391 . S
H2392 C2400 0.950 . S
H2393 C2405 0.950 . S
H2394 C2402 0.950 . S
H2395 C2404 0.950 . S
H2396 C2406 0.950 . S
H2397 C2408 0.950 . S
H2398 C2410 0.950 . S
H2399 C2411 0.950 . S
C2400 H2392 0.950 . S
C2400 C2401 1.386 . S
C2400 C2402 1.391 . S
C2401 C2400 1.386 . S
C2401 C2405 1.393 . S
C2402 H2394 0.950 . S
C2402 C2400 1.391 . S
C2402 C2403 1.400 . S
C2403 C2402 1.400 . S
C2403 C2404 1.398 . S
C2403 C2409 1.491 . S
C2404 H2395 0.950 . S
C2404 C2403 1.398 . S
C2404 C2405 1.391 . S
C2405 H2393 0.950 . S
C2405 C2401 1.393 . S
C2405 C2404 1.391 . S
C2406 H2396 0.950 . S
C2406 C2407 1.386 . S
C2406 C2408 1.391 . S
C2407 C2406 1.386 . S
C2407 C2411 1.393 . S
C2408 H2397 0.950 . S
C2408 C2406 1.391 . S
C2408 C2409 1.400 . S
C2409 C2403 1.491 . S
C2409 C2408 1.400 . S
C2409 C2410 1.398 . S
C2410 H2398 0.950 . S
C2410 C2409 1.398 . S
C2410 C2411 1.391 . S
C2411 H2399 0.950 . S
C2411 C2407 1.393 . S
C2411 C2410 1.391 . S
H2412 C2420 0.950 . S
H2413 C2425 0.950 . S
H2414 C2422 0.950 . S
H2415 C2424 0.950 . S
H2416 C2426 0.950 . S
H2417 C2428 0.950 . S
H2418 C2430 0.950 . S
H2419 C2431 0.950 . S
C2420 H2412 0.950 . S
C2420 C2421 1.386 . S
C2420 C2422 1.391 . S
C2421 C2420 1.386 . S
C2421 C2425 1.393 . S
C2422 H2414 0.950 . S
C2422 C2420 1.391 . S
C2422 C2423 1.400 . S
C2423 C2422 1.400 . S
C2423 C2424 1.398 . S
C2423 C2429 1.491 . S
C2424 H2415 0.950 . S
C2424 C2423 1.398 . S
C2424 C2425 1.391 . S
C2425 H2413 0.950 . S
C2425 C2421 1.393 . S
C2425 C2424 1.391 . S
C2426 H2416 0.950 . S
C2426 C2427 1.386 . S
C2426 C2428 1.391 . S
C2427 C2426 1.386 . S
C2427 C2431 1.393 . S
C2428 H2417 0.950 . S
C2428 C2426 1.391 . S
C2428 C2429 1.400 . S
C2429 C2423 1.491 . S
C2429 C2428 1.400 . S
C2429 C2430 1.398 . S
C2430 H2418 0.950 . S
C2430 C2429 1.398 . S
C2430 C2431 1.391 . S
C2431 H2419 0.950 . S
C2431 C2427 1.393 . S
C2431 C2430 1.391 . S
H2432 C2440 0.950 . S
H2433 C2445 0.950 . S
H2434 C2442 0.950 . S
H2435 C2444 0.950 . S
H2436 C2446 0.950 . S
H2437 C2448 0.950 . S
H2438 C2450 0.950 . S
H2439 C2451 0.950 . S
C2440 H2432 0.950 . S
C2440 C2441 1.386 . S
C2440 C2442 1.391 . S
C2441 C2440 1.386 . S
C2441 C2445 1.393 . S
C2442 H2434 0.950 . S
C2442 C2440 1.391 . S
C2442 C2443 1.400 . S
C2443 C2442 1.400 . S
C2443 C2444 1.398 . S
C2443 C2449 1.491 . S
C2444 H2435 0.950 . S
C2444 C2443 1.398 . S
C2444 C2445 1.391 . S
C2445 H2433 0.950 . S
C2445 C2441 1.393 . S
C2445 C2444 1.391 . S
C2446 H2436 0.950 . S
C2446 C2447 1.386 . S
C2446 C2448 1.391 . S
C2447 C2446 1.386 . S
C2447 C2451 1.393 . S
C2448 H2437 0.950 . S
C2448 C2446 1.391 . S
C2448 C2449 1.400 . S
C2449 C2443 1.491 . S
C2449 C2448 1.400 . S
C2449 C2450 1.398 . S
C2450 H2438 0.950 . S
C2450 C2449 1.398 . S
C2450 C2451 1.391 . S
C2451 H2439 0.950 . S
C2451 C2447 1.393 . S
C2451 C2450 1.391 . S
H2452 C2460 0.950 . S
H2453 C2465 0.950 . S
H2454 C2462 0.950 . S
H2455 C2464 0.950 . S
H2456 C2466 0.950 . S
H2457 C2468 0.950 . S
H2458 C2470 0.950 . S
H2459 C2471 0.950 . S
C2460 H2452 0.950 . S
C2460 C2461 1.386 . S
C2460 C2462 1.391 . S
C2461 C2460 1.386 . S
C2461 C2465 1.393 . S
C2462 H2454 0.950 . S
C2462 C2460 1.391 . S
C2462 C2463 1.400 . S
C2463 C2462 1.400 . S
C2463 C2464 1.398 . S
C2463 C2469 1.491 . S
C2464 H2455 0.950 . S
C2464 C2463 1.398 . S
C2464 C2465 1.391 . S
C2465 H2453 0.950 . S
C2465 C2461 1.393 . S
C2465 C2464 1.391 . S
C2466 H2456 0.950 . S
C2466 C2467 1.386 . S
C2466 C2468 1.391 . S
C2467 C2466 1.386 . S
C2467 C2471 1.393 . S
C2468 H2457 0.950 . S
C2468 C2466 1.391 . S
C2468 C2469 1.400 . S
C2469 C2463 1.491 . S
C2469 C2468 1.400 . S
C2469 C2470 1.398 . S
C2470 H2458 0.950 . S
C2470 C2469 1.398 . S
C2470 C2471 1.391 . S
C2471 H2459 0.950 . S
C2471 C2467 1.393 . S
C2471 C2470 1.391 . S
H2472 C2480 0.950 . S
H2473 C2485 0.950 . S
H2474 C2482 0.950 . S
H2475 C2484 0.950 . S
H2476 C2486 0.950 . S
H2477 C2488 0.950 . S
H2478 C2490 0.950 . S
H2479 C2491 0.950 . S
C2480 H2472 0.950 . S
C2480 C2481 1.386 . S
C2480 C2482 1.391 . S
C2481 C2480 1.386 . S
C2481 C2485 1.393 . S
C2482 H2474 0.950 . S
C2482 C2480 1.391 . S
C2482 C2483 1.400 . S
C2483 C2482 1.400 . S
C2483 C2484 1.398 . S
C2483 C2489 1.491 . S
C2484 H2475 0.950 . S
C2484 C2483 1.398 . S
C2484 C2485 1.391 . S
C2485 H2473 0.950 . S
C2485 C2481 1.393 . S
C2485 C2484 1.391 . S
C2486 H2476 0.950 . S
C2486 C2487 1.386 . S
C2486 C2488 1.391 . S
C2487 C2486 1.386 . S
C2487 C2491 1.393 . S
C2488 H2477 0.950 . S
C2488 C2486 1.391 . S
C2488 C2489 1.400 . S
C2489 C2483 1.491 . S
C2489 C2488 1.400 . S
C2489 C2490 1.398 . S
C2490 H2478 0.950 . S
C2490 C2489 1.398 . S
C2490 C2491 1.391 . S
C2491 H2479 0.950 . S
C2491 C2487 1.393 . S
C2491 C2490 1.391 . S
H2492 C2500 0.950 . S
H2493 C2505 0.950 . S
H2494 C2502 0.950 . S
H2495 C2504 0.950 . S
H2496 C2506 0.950 . S
H2497 C2508 0.950 . S
H2498 C2510 0.950 . S
H2499 C2511 0.950 . S
C2500 H2492 0.950 . S
C2500 C2501 1.386 . S
C2500 C2502 1.391 . S
C2501 C2500 1.386 . S
C2501 C2505 1.393 . S
C2502 H2494 0.950 . S
C2502 C2500 1.391 . S
C2502 C2503 1.400 . S
C2503 C2502 1.400 . S
C2503 C2504 1.398 . S
C2503 C2509 1.491 . S
C2504 H2495 0.950 . S
C2504 C2503 1.398 . S
C2504 C2505 1.391 . S
C2505 H2493 0.950 . S
C2505 C2501 1.393 . S
C2505 C2504 1.391 . S
C2506 H2496 0.950 . S
C2506 C2507 1.386 . S
C2506 C2508 1.391 . S
C2507 C2506 1.386 . S
C2507 C2511 1.393 . S
C2508 H2497 0.950 . S
C2508 C2506 1.391 . S
C2508 C2509 1.400 . S
C2509 C2503 1.491 . S
C2509 C2508 1.400 . S
C2509 C2510 1.398 . S
C2510 H2498 0.950 . S
C2510 C2509 1.398 . S
C2510 C2511 1.391 . S
C2511 H2499 0.950 . S
C2511 C2507 1.393 . S
C2511 C2510 1.391 . S
H2512 C2520 0.950 . S
H2513 C2525 0.950 . S
H2514 C2522 0.950 . S
H2515 C2524 0.950 . S
H2516 C2526 0.950 . S
H2517 C2528 0.950 . S
H2518 C2530 0.950 . S
H2519 C2531 0.950 . S
C2520 H2512 0.950 . S
C2520 C2521 1.386 . S
C2520 C2522 1.391 . S
C2521 C2520 1.386 . S
C2521 C2525 1.393 . S
C2522 H2514 0.950 . S
C2522 C2520 1.391 . S
C2522 C2523 1.400 . S
C2523 C2522 1.400 . S
C2523 C2524 1.398 . S
C2523 C2529 1.491 . S
C2524 H2515 0.950 . S
C2524 C2523 1.398 . S
C2524 C2525 1.391 . S
C2525 H2513 0.950 . S
C2525 C2521 1.393 . S
C2525 C2524 1.391 . S
C2526 H2516 0.950 . S
C2526 C2527 1.386 . S
C2526 C2528 1.391 . S
C2527 C2526 1.386 . S
C2527 C2531 1.393 . S
C2528 H2517 0.950 . S
C2528 C2526 1.391 . S
C2528 C2529 1.400 . S
C2529 C2523 1.491 . S
C2529 C2528 1.400 . S
C2529 C2530 1.398 . S
C2530 H2518 0.950 . S
C2530 C2529 1.398 . S
C2530 C2531 1.391 . S
C2531 H2519 0.950 . S
C2531 C2527 1.393 . S
C2531 C2530 1.391 . S
H2532 C2540 0.950 . S
H2533 C2545 0.950 . S
H2534 C2542 0.950 . S
H2535 C2544 0.950 . S
H2536 C2546 0.950 . S
H2537 C2548 0.950 . S
H2538 C2550 0.950 . S
H2539 C2551 0.950 . S
C2540 H2532 0.950 . S
C2540 C2541 1.386 . S
C2540 C2542 1.391 . S
C2541 C2540 1.386 . S
C2541 C2545 1.393 . S
C2542 H2534 0.950 . S
C2542 C2540 1.391 . S
C2542 C2543 1.400 . S
C2543 C2542 1.400 . S
C2543 C2544 1.398 . S
C2543 C2549 1.491 . S
C2544 H2535 0.950 . S
C2544 C2543 1.398 . S
C2544 C2545 1.391 . S
C2545 H2533 0.950 . S
C2545 C2541 1.393 . S
C2545 C2544 1.391 . S
C2546 H2536 0.950 . S
C2546 C2547 1.386 . S
C2546 C2548 1.391 . S
C2547 C2546 1.386 . S
C2547 C2551 1.393 . S
C2548 H2537 0.950 . S
C2548 C2546 1.391 . S
C2548 C2549 1.400 . S
C2549 C2543 1.491 . S
C2549 C2548 1.400 . S
C2549 C2550 1.398 . S
C2550 H2538 0.950 . S
C2550 C2549 1.398 . S
C2550 C2551 1.391 . S
C2551 H2539 0.950 . S
C2551 C2547 1.393 . S
C2551 C2550 1.391 . S
H2552 C2560 0.950 . S
H2553 C2565 0.950 . S
H2554 C2562 0.950 . S
H2555 C2564 0.950 . S
H2556 C2566 0.950 . S
H2557 C2568 0.950 . S
H2558 C2570 0.950 . S
H2559 C2571 0.950 . S
C2560 H2552 0.950 . S
C2560 C2561 1.386 . S
C2560 C2562 1.391 . S
C2561 C2560 1.386 . S
C2561 C2565 1.393 . S
C2562 H2554 0.950 . S
C2562 C2560 1.391 . S
C2562 C2563 1.400 . S
C2563 C2562 1.400 . S
C2563 C2564 1.398 . S
C2563 C2569 1.491 . S
C2564 H2555 0.950 . S
C2564 C2563 1.398 . S
C2564 C2565 1.391 . S
C2565 H2553 0.950 . S
C2565 C2561 1.393 . S
C2565 C2564 1.391 . S
C2566 H2556 0.950 . S
C2566 C2567 1.386 . S
C2566 C2568 1.391 . S
C2567 C2566 1.386 . S
C2567 C2571 1.393 . S
C2568 H2557 0.950 . S
C2568 C2566 1.391 . S
C2568 C2569 1.400 . S
C2569 C2563 1.491 . S
C2569 C2568 1.400 . S
C2569 C2570 1.398 . S
C2570 H2558 0.950 . S
C2570 C2569 1.398 . S
C2570 C2571 1.391 . S
C2571 H2559 0.950 . S
C2571 C2567 1.393 . S
C2571 C2570 1.391 . S
H2572 C2580 0.950 . S
H2573 C2585 0.950 . S
H2574 C2582 0.950 . S
H2575 C2584 0.950 . S
H2576 C2586 0.950 . S
H2577 C2588 0.950 . S
H2578 C2590 0.950 . S
H2579 C2591 0.950 . S
C2580 H2572 0.950 . S
C2580 C2581 1.386 . S
C2580 C2582 1.391 . S
C2581 C2580 1.386 . S
C2581 C2585 1.393 . S
C2582 H2574 0.950 . S
C2582 C2580 1.391 . S
C2582 C2583 1.400 . S
C2583 C2582 1.400 . S
C2583 C2584 1.398 . S
C2583 C2589 1.491 . S
C2584 H2575 0.950 . S
C2584 C2583 1.398 . S
C2584 C2585 1.391 . S
C2585 H2573 0.950 . S
C2585 C2581 1.393 . S
C2585 C2584 1.391 . S
C2586 H2576 0.950 . S
C2586 C2587 1.386 . S
C2586 C2588 1.391 . S
C2587 C2586 1.386 . S
C2587 C2591 1.393 . S
C2588 H2577 0.950 . S
C2588 C2586 1.391 . S
C2588 C2589 1.400 . S
C2589 C2583 1.491 . S
C2589 C2588 1.400 . S
C2589 C2590 1.398 . S
C2590 H2578 0.950 . S
C2590 C2589 1.398 . S
C2590 C2591 1.391 . S
C2591 H2579 0.950 . S
C2591 C2587 1.393 . S
C2591 C2590 1.391 . S
C681 C134 1.703 . S
C687 C8 1.703 . S
C701 C148 1.712 . S
C707 C22 1.713 . S
C721 C162 1.720 . S
C727 C36 1.720 . S
C741 C120 1.712 . S
C747 C50 1.711 . S
C761 C64 1.710 . S
C767 C218 1.711 . S
C781 C78 1.719 . S
C787 C176 1.718 . S
C801 C92 1.704 . S
C807 C190 1.704 . S
C821 C204 1.703 . S
C827 C106 1.703 . S
C841 C232 1.703 . S
C847 C260 1.703 . S
C861 C246 1.719 . S
C867 C652 1.719 . S
C881 C274 1.709 . S
C887 C666 1.710 . S
C901 C288 1.712 . S
C907 C638 1.713 . S
C921 C302 1.703 . S
C927 C624 1.703 . S
C941 C582 1.720 . S
C947 C316 1.720 . S
C961 C330 1.719 . S
C967 C610 1.719 . S
C981 C470 1.703 . S
C987 C344 1.704 . S
C1001 C484 1.717 . S
C1007 C358 1.718 . S
C1021 C498 1.711 . S
C1027 C372 1.711 . S
C1041 C456 1.717 . S
C1047 C386 1.716 . S
C1061 C554 1.719 . S
C1067 C400 1.720 . S
C1081 C512 1.717 . S
C1087 C414 1.716 . S
C1101 C428 1.720 . S
C1107 C526 1.720 . S
C1121 C442 1.703 . S
C1127 C540 1.704 . S
C1141 C568 1.703 . S
C1147 C596 1.703 . S
C1161 C227 0.984 . S
C1167 C9 0.907 . S
C1181 C661 1.020 . S
C1187 C23 0.954 . S
C1201 C37 0.965 . S
C1207 C297 1.021 . S
C1221 C647 1.017 . S
C1227 C51 0.972 . S
C1241 C65 0.918 . S
C1247 C577 0.978 . S
C1261 C591 1.020 . S
C1267 C79 0.958 . S
C1281 C93 0.907 . S
C1287 C605 0.986 . S
C1301 C283 1.001 . S
C1307 C107 0.965 . S
C1321 C121 0.924 . S
C1327 C3 0.978 . S
C1341 C17 1.008 . S
C1347 C135 0.927 . S
C1361 C149 0.970 . S
C1367 C31 1.008 . S
C1381 C45 0.989 . S
C1387 C163 0.950 . S
C1401 C177 0.933 . S
C1407 C59 1.012 . S
C1421 C73 0.979 . S
C1427 C191 0.911 . S
C1441 C205 0.945 . S
C1447 C87 1.017 . S
C1461 C219 0.913 . S
C1467 C101 0.978 . S
C1481 C233 0.972 . S
C1487 C115 1.014 . S
C1501 C247 0.961 . S
C1507 C507 0.998 . S
C1521 C521 0.985 . S
C1527 C261 0.907 . S
C1541 C535 1.003 . S
C1547 C275 0.920 . S
C1561 C213 0.997 . S
C1567 C289 0.914 . S
C1581 C303 0.920 . S
C1587 C143 1.003 . S
C1601 C493 0.999 . S
C1607 C317 0.916 . S
C1621 C331 0.911 . S
C1627 C465 0.978 . S
C1641 C345 0.941 . S
C1647 C563 1.015 . S
C1661 C359 0.922 . S
C1667 C325 0.978 . S
C1681 C373 0.914 . S
C1687 C633 0.978 . S
C1701 C387 0.913 . S
C1707 C311 0.996 . S
C1721 C401 0.967 . S
C1727 C241 1.020 . S
C1741 C415 0.950 . S
C1747 C255 0.989 . S
C1761 C269 1.021 . S
C1767 C429 0.965 . S
C1781 C619 1.020 . S
C1787 C443 0.967 . S
C1801 C339 1.011 . S
C1807 C457 0.972 . S
C1821 C353 1.017 . S
C1827 C471 0.946 . S
C1841 C485 0.969 . S
C1847 C367 1.019 . S
C1861 C381 1.021 . S
C1867 C499 0.964 . S
C1881 C513 0.907 . S
C1887 C395 0.988 . S
C1901 C527 0.932 . S
C1907 C409 1.011 . S
C1921 C541 0.946 . S
C1927 C423 1.017 . S
C1941 C437 1.008 . S
C1947 C555 0.928 . S
C1961 C569 0.961 . S
C1967 C451 0.997 . S
C1981 C583 0.907 . S
C1987 C171 0.987 . S
C2001 C185 1.012 . S
C2007 C597 0.972 . S
C2021 C611 0.912 . S
C2027 C199 0.978 . S
C2041 C625 0.908 . S
C2047 C549 0.981 . S
C2061 C479 1.006 . S
C2067 C639 0.924 . S
C2081 C157 0.982 . S
C2087 C653 0.907 . S
C2101 C129 0.992 . S
C2107 C667 0.909 . S
C2121 C315 1.288 . S
C2127 C7 1.290 . S
C2141 C21 1.276 . S
C2147 C567 1.273 . S
C2161 C35 1.270 . S
C2167 C329 1.273 . S
C2181 C637 1.261 . S
C2187 C49 1.262 . S
C2201 C63 1.274 . S
C2207 C259 1.277 . S
C2221 C273 1.272 . S
C2227 C77 1.275 . S
C2241 C623 1.262 . S
C2247 C91 1.261 . S
C2261 C105 1.285 . S
C2267 C245 1.288 . S
C2281 C189 1.283 . S
C2287 C119 1.285 . S
C2301 C133 1.277 . S
C2307 C203 1.274 . S
C2321 C217 1.287 . S
C2327 C147 1.289 . S
C2341 C161 1.273 . S
C2347 C175 1.276 . S
C2361 C357 1.267 . S
C2367 C231 1.265 . S
C2381 C287 1.279 . S
C2387 C427 1.276 . S
C2401 C301 1.290 . S
C2407 C385 1.290 . S
C2421 C651 1.262 . S
C2427 C343 1.261 . S
C2441 C371 1.286 . S
C2447 C665 1.288 . S
C2461 C399 1.265 . S
C2467 C595 1.263 . S
C2481 C413 1.290 . S
C2487 C609 1.291 . S
C2501 C581 1.265 . S
C2507 C441 1.263 . S
C2521 C525 1.289 . S
C2527 C455 1.287 . S
C2541 C469 1.274 . S
C2547 C539 1.271 . S
C2561 C483 1.265 . S
C2567 C553 1.263 . S
C2581 C511 1.277 . S
C2587 C497 1.274 . S
