# Generated by pormake.
# Topology ict, (4)-cn, num edge types: 1
# Building blocks:
#     Node 0, Type 0, BuildingBlock: QUQFOY_clean_sbu_1, # of connection points: 4
#     Node 1, Type 0, BuildingBlock: QUQFOY_clean_sbu_1, # of connection points: 4
#     Node 2, Type 0, BuildingBlock: QUQFOY_clean_sbu_1, # of connection points: 4
#     Node 3, Type 0, BuildingBlock: QUQFOY_clean_sbu_1, # of connection points: 4
#     Node 4, Type 0, BuildingBlock: QUQFOY_clean_sbu_1, # of connection points: 4
#     Node 5, Type 0, BuildingBlock: QUQFOY_clean_sbu_1, # of connection points: 4
#     Node 6, Type 0, BuildingBlock: QUQFOY_clean_sbu_1, # of connection points: 4
#     Node 7, Type 0, BuildingBlock: QUQFOY_clean_sbu_1, # of connection points: 4
#     Node 8, Type 0, BuildingBlock: QUQFOY_clean_sbu_1, # of connection points: 4
#     Node 9, Type 0, BuildingBlock: QUQFOY_clean_sbu_1, # of connection points: 4
#     Node 10, Type 0, BuildingBlock: QUQFOY_clean_sbu_1, # of connection points: 4
#     Node 11, Type 0, BuildingBlock: QUQFOY_clean_sbu_1, # of connection points: 4
#     Node 12, Type 0, BuildingBlock: QUQFOY_clean_sbu_1, # of connection points: 4
#     Node 13, Type 0, BuildingBlock: QUQFOY_clean_sbu_1, # of connection points: 4
#     Node 14, Type 0, BuildingBlock: QUQFOY_clean_sbu_1, # of connection points: 4
#     Node 15, Type 0, BuildingBlock: QUQFOY_clean_sbu_1, # of connection points: 4
#     Node 16, Type 0, BuildingBlock: QUQFOY_clean_sbu_1, # of connection points: 4
#     Node 17, Type 0, BuildingBlock: QUQFOY_clean_sbu_1, # of connection points: 4
#     Node 18, Type 0, BuildingBlock: QUQFOY_clean_sbu_1, # of connection points: 4
#     Node 19, Type 0, BuildingBlock: QUQFOY_clean_sbu_1, # of connection points: 4
#     Node 20, Type 0, BuildingBlock: QUQFOY_clean_sbu_1, # of connection points: 4
#     Node 21, Type 0, BuildingBlock: QUQFOY_clean_sbu_1, # of connection points: 4
#     Node 22, Type 0, BuildingBlock: QUQFOY_clean_sbu_1, # of connection points: 4
#     Node 23, Type 0, BuildingBlock: QUQFOY_clean_sbu_1, # of connection points: 4
#     Node 24, Type 0, BuildingBlock: QUQFOY_clean_sbu_1, # of connection points: 4
#     Node 25, Type 0, BuildingBlock: QUQFOY_clean_sbu_1, # of connection points: 4
#     Node 26, Type 0, BuildingBlock: QUQFOY_clean_sbu_1, # of connection points: 4
#     Node 27, Type 0, BuildingBlock: QUQFOY_clean_sbu_1, # of connection points: 4
#     Node 28, Type 0, BuildingBlock: QUQFOY_clean_sbu_1, # of connection points: 4
#     Node 29, Type 0, BuildingBlock: QUQFOY_clean_sbu_1, # of connection points: 4
#     Node 30, Type 0, BuildingBlock: QUQFOY_clean_sbu_1, # of connection points: 4
#     Node 31, Type 0, BuildingBlock: QUQFOY_clean_sbu_1, # of connection points: 4
#     Node 32, Type 0, BuildingBlock: QUQFOY_clean_sbu_1, # of connection points: 4
#     Node 33, Type 0, BuildingBlock: QUQFOY_clean_sbu_1, # of connection points: 4
#     Node 34, Type 0, BuildingBlock: QUQFOY_clean_sbu_1, # of connection points: 4
#     Node 35, Type 0, BuildingBlock: QUQFOY_clean_sbu_1, # of connection points: 4
#     Edge 36, Type (0, 0), BuildingBlock: ZUJKAS_clean_linker_0, # of connection points: 2
#     Edge 37, Type (0, 0), BuildingBlock: ZUJKAS_clean_linker_0, # of connection points: 2
#     Edge 38, Type (0, 0), BuildingBlock: ZUJKAS_clean_linker_0, # of connection points: 2
#     Edge 39, Type (0, 0), BuildingBlock: ZUJKAS_clean_linker_0, # of connection points: 2
#     Edge 40, Type (0, 0), BuildingBlock: ZUJKAS_clean_linker_0, # of connection points: 2
#     Edge 41, Type (0, 0), BuildingBlock: ZUJKAS_clean_linker_0, # of connection points: 2
#     Edge 42, Type (0, 0), BuildingBlock: ZUJKAS_clean_linker_0, # of connection points: 2
#     Edge 43, Type (0, 0), BuildingBlock: ZUJKAS_clean_linker_0, # of connection points: 2
#     Edge 44, Type (0, 0), BuildingBlock: ZUJKAS_clean_linker_0, # of connection points: 2
#     Edge 45, Type (0, 0), BuildingBlock: ZUJKAS_clean_linker_0, # of connection points: 2
#     Edge 46, Type (0, 0), BuildingBlock: ZUJKAS_clean_linker_0, # of connection points: 2
#     Edge 47, Type (0, 0), BuildingBlock: ZUJKAS_clean_linker_0, # of connection points: 2
#     Edge 48, Type (0, 0), BuildingBlock: ZUJKAS_clean_linker_0, # of connection points: 2
#     Edge 49, Type (0, 0), BuildingBlock: ZUJKAS_clean_linker_0, # of connection points: 2
#     Edge 50, Type (0, 0), BuildingBlock: ZUJKAS_clean_linker_0, # of connection points: 2
#     Edge 51, Type (0, 0), BuildingBlock: ZUJKAS_clean_linker_0, # of connection points: 2
#     Edge 52, Type (0, 0), BuildingBlock: ZUJKAS_clean_linker_0, # of connection points: 2
#     Edge 53, Type (0, 0), BuildingBlock: ZUJKAS_clean_linker_0, # of connection points: 2
#     Edge 54, Type (0, 0), BuildingBlock: ZUJKAS_clean_linker_0, # of connection points: 2
#     Edge 55, Type (0, 0), BuildingBlock: ZUJKAS_clean_linker_0, # of connection points: 2
#     Edge 56, Type (0, 0), BuildingBlock: ZUJKAS_clean_linker_0, # of connection points: 2
#     Edge 57, Type (0, 0), BuildingBlock: ZUJKAS_clean_linker_0, # of connection points: 2
#     Edge 58, Type (0, 0), BuildingBlock: ZUJKAS_clean_linker_0, # of connection points: 2
#     Edge 59, Type (0, 0), BuildingBlock: ZUJKAS_clean_linker_0, # of connection points: 2
#     Edge 60, Type (0, 0), BuildingBlock: ZUJKAS_clean_linker_0, # of connection points: 2
#     Edge 61, Type (0, 0), BuildingBlock: ZUJKAS_clean_linker_0, # of connection points: 2
#     Edge 62, Type (0, 0), BuildingBlock: ZUJKAS_clean_linker_0, # of connection points: 2
#     Edge 63, Type (0, 0), BuildingBlock: ZUJKAS_clean_linker_0, # of connection points: 2
#     Edge 64, Type (0, 0), BuildingBlock: ZUJKAS_clean_linker_0, # of connection points: 2
#     Edge 65, Type (0, 0), BuildingBlock: ZUJKAS_clean_linker_0, # of connection points: 2
#     Edge 66, Type (0, 0), BuildingBlock: ZUJKAS_clean_linker_0, # of connection points: 2
#     Edge 67, Type (0, 0), BuildingBlock: ZUJKAS_clean_linker_0, # of connection points: 2
#     Edge 68, Type (0, 0), BuildingBlock: ZUJKAS_clean_linker_0, # of connection points: 2
#     Edge 69, Type (0, 0), BuildingBlock: ZUJKAS_clean_linker_0, # of connection points: 2
#     Edge 70, Type (0, 0), BuildingBlock: ZUJKAS_clean_linker_0, # of connection points: 2
#     Edge 71, Type (0, 0), BuildingBlock: ZUJKAS_clean_linker_0, # of connection points: 2
#     Edge 72, Type (0, 0), BuildingBlock: ZUJKAS_clean_linker_0, # of connection points: 2
#     Edge 73, Type (0, 0), BuildingBlock: ZUJKAS_clean_linker_0, # of connection points: 2
#     Edge 74, Type (0, 0), BuildingBlock: ZUJKAS_clean_linker_0, # of connection points: 2
#     Edge 75, Type (0, 0), BuildingBlock: ZUJKAS_clean_linker_0, # of connection points: 2
#     Edge 76, Type (0, 0), BuildingBlock: ZUJKAS_clean_linker_0, # of connection points: 2
#     Edge 77, Type (0, 0), BuildingBlock: ZUJKAS_clean_linker_0, # of connection points: 2
#     Edge 78, Type (0, 0), BuildingBlock: ZUJKAS_clean_linker_0, # of connection points: 2
#     Edge 79, Type (0, 0), BuildingBlock: ZUJKAS_clean_linker_0, # of connection points: 2
#     Edge 80, Type (0, 0), BuildingBlock: ZUJKAS_clean_linker_0, # of connection points: 2
#     Edge 81, Type (0, 0), BuildingBlock: ZUJKAS_clean_linker_0, # of connection points: 2
#     Edge 82, Type (0, 0), BuildingBlock: ZUJKAS_clean_linker_0, # of connection points: 2
#     Edge 83, Type (0, 0), BuildingBlock: ZUJKAS_clean_linker_0, # of connection points: 2
#     Edge 84, Type (0, 0), BuildingBlock: ZUJKAS_clean_linker_0, # of connection points: 2
#     Edge 85, Type (0, 0), BuildingBlock: ZUJKAS_clean_linker_0, # of connection points: 2
#     Edge 86, Type (0, 0), BuildingBlock: ZUJKAS_clean_linker_0, # of connection points: 2
#     Edge 87, Type (0, 0), BuildingBlock: ZUJKAS_clean_linker_0, # of connection points: 2
#     Edge 88, Type (0, 0), BuildingBlock: ZUJKAS_clean_linker_0, # of connection points: 2
#     Edge 89, Type (0, 0), BuildingBlock: ZUJKAS_clean_linker_0, # of connection points: 2
#     Edge 90, Type (0, 0), BuildingBlock: ZUJKAS_clean_linker_0, # of connection points: 2
#     Edge 91, Type (0, 0), BuildingBlock: ZUJKAS_clean_linker_0, # of connection points: 2
#     Edge 92, Type (0, 0), BuildingBlock: ZUJKAS_clean_linker_0, # of connection points: 2
#     Edge 93, Type (0, 0), BuildingBlock: ZUJKAS_clean_linker_0, # of connection points: 2
#     Edge 94, Type (0, 0), BuildingBlock: ZUJKAS_clean_linker_0, # of connection points: 2
#     Edge 95, Type (0, 0), BuildingBlock: ZUJKAS_clean_linker_0, # of connection points: 2
#     Edge 96, Type (0, 0), BuildingBlock: ZUJKAS_clean_linker_0, # of connection points: 2
#     Edge 97, Type (0, 0), BuildingBlock: ZUJKAS_clean_linker_0, # of connection points: 2
#     Edge 98, Type (0, 0), BuildingBlock: ZUJKAS_clean_linker_0, # of connection points: 2
#     Edge 99, Type (0, 0), BuildingBlock: ZUJKAS_clean_linker_0, # of connection points: 2
#     Edge 100, Type (0, 0), BuildingBlock: ZUJKAS_clean_linker_0, # of connection points: 2
#     Edge 101, Type (0, 0), BuildingBlock: ZUJKAS_clean_linker_0, # of connection points: 2
#     Edge 102, Type (0, 0), BuildingBlock: ZUJKAS_clean_linker_0, # of connection points: 2
#     Edge 103, Type (0, 0), BuildingBlock: ZUJKAS_clean_linker_0, # of connection points: 2
#     Edge 104, Type (0, 0), BuildingBlock: ZUJKAS_clean_linker_0, # of connection points: 2
#     Edge 105, Type (0, 0), BuildingBlock: ZUJKAS_clean_linker_0, # of connection points: 2
#     Edge 106, Type (0, 0), BuildingBlock: ZUJKAS_clean_linker_0, # of connection points: 2
#     Edge 107, Type (0, 0), BuildingBlock: ZUJKAS_clean_linker_0, # of connection points: 2
# Relax obj value: 0.123
# Max RMSD: 0.186
# Mean RMSD: 0.186
data_MOF--net-ict--node1-QUQFOY_clean_sbu_1--edge1-ZUJKAS_clean_linker_0
_symmetry_space_group_name_H-M    P1
_symmetry_Int_Tables_number       1
_symmetry_cell_setting            triclinic
loop_
_symmetry_equiv_pos_as_xyz
'x, y, z'
_cell_length_a     90.336383
_cell_length_b     90.327717
_cell_length_c     47.046849
_cell_angle_alpha  89.98898
_cell_angle_beta   90.002661
_cell_angle_gamma 120.00254
loop_
_atom_site_label
_atom_site_type_symbol
_atom_site_fract_x
_atom_site_fract_y
_atom_site_fract_z
_atom_type_partial_charge
O0 O 0.24709 0.17071 0.05344 0.0
Cd1 Cd 0.25392 0.19619 0.05582 0.0
Cd2 Cd 0.22 0.18396 0.04985 0.0
O3 O 0.2201 0.16146 0.04275 0.0
O4 O 0.27819 0.21003 0.04379 0.0
O5 O 0.25659 0.20872 0.01931 0.0
C6 C 0.27283 0.21445 0.0217 0.0
C7 C 0.20237 0.19012 0.02186 0.0
C8 C 0.23236 0.15858 0.04664 0.0
C9 C 0.23673 0.20213 0.10463 0.0
O10 O 0.22301 0.19307 0.09084 0.0
O11 O 0.25106 0.20568 0.09398 0.0
O12 O 0.19619 0.17805 0.04047 0.0
O13 O 0.21875 0.1985 0.01836 0.0
O14 O 0.82998 0.07303 0.05111 0.0
Cd15 Cd 0.80464 0.05413 0.05433 0.0
Cd16 Cd 0.81732 0.03282 0.04957 0.0
O17 O 0.83964 0.05548 0.04156 0.0
O18 O 0.79033 0.06405 0.04237 0.0
O19 O 0.7918 0.04373 0.01827 0.0
C20 C 0.78579 0.05401 0.02063 0.0
C21 C 0.81059 0.00882 0.02182 0.0
C22 C 0.84225 0.07059 0.04462 0.0
C23 C 0.79936 0.03184 0.10423 0.0
O24 O 0.8085 0.02713 0.0908 0.0
O25 O 0.79558 0.04231 0.09298 0.0
O26 O 0.82286 0.01468 0.04006 0.0
O27 O 0.80236 0.01699 0.01854 0.0
O28 O 0.92504 0.75476 0.05142 0.0
Cd29 Cd 0.94434 0.74893 0.05539 0.0
Cd30 Cd 0.96498 0.78283 0.04734 0.0
O31 O 0.94197 0.78157 0.03863 0.0
O32 O 0.93446 0.72424 0.04669 0.0
O33 O 0.95392 0.74492 0.01963 0.0
C34 C 0.9439 0.72878 0.02419 0.0
C35 C 0.98879 0.79983 0.01901 0.0
C36 C 0.92704 0.76904 0.0431 0.0
C37 C 0.96696 0.76813 0.10382 0.0
O38 O 0.97103 0.78141 0.0891 0.0
O39 O 0.95685 0.7534 0.09377 0.0
O40 O 0.98255 0.80642 0.03615 0.0
O41 O 0.98107 0.78337 0.01705 0.0
O42 O 0.1736 0.24769 0.43915 0.0
Cd43 Cd 0.19885 0.25378 0.43609 0.0
Cd44 Cd 0.18569 0.21975 0.44142 0.0
O45 O 0.16371 0.2206 0.45001 0.0
O46 O 0.21343 0.27792 0.44828 0.0
O47 O 0.21142 0.25587 0.47231 0.0
C48 C 0.21767 0.2722 0.47011 0.0
C49 C 0.19181 0.20157 0.46793 0.0
C50 C 0.16126 0.23316 0.44635 0.0
C51 C 0.20352 0.23636 0.38637 0.0
O52 O 0.19408 0.22265 0.39997 0.0
O53 O 0.20784 0.25077 0.39752 0.0
O54 O 0.17937 0.19573 0.45003 0.0
O55 O 0.20052 0.21791 0.47175 0.0
O56 O 0.75686 0.92791 0.44096 0.0
Cd57 Cd 0.75042 0.94682 0.43802 0.0
Cd58 Cd 0.7844 0.96817 0.44306 0.0
O59 O 0.78399 0.94548 0.45107 0.0
O60 O 0.72626 0.93696 0.45035 0.0
O61 O 0.74821 0.95721 0.47425 0.0
C62 C 0.73191 0.94696 0.47214 0.0
C63 C 0.80203 0.99217 0.47057 0.0
C64 C 0.77155 0.93037 0.4477 0.0
C65 C 0.76748 0.96923 0.38833 0.0
O66 O 0.78129 0.97388 0.40184 0.0
O67 O 0.7532 0.95876 0.39947 0.0
O68 O 0.80822 0.98611 0.45228 0.0
O69 O 0.78566 0.98423 0.47402 0.0
O70 O 0.07619 0.83044 0.44046 0.0
Cd71 Cd 0.0571 0.80531 0.43544 0.0
Cd72 Cd 0.03598 0.81812 0.44371 0.0
O73 O 0.05885 0.83979 0.45338 0.0
O74 O 0.06714 0.79059 0.44374 0.0
O75 O 0.04735 0.79126 0.47072 0.0
C76 C 0.05755 0.78536 0.46605 0.0
C77 C 0.01202 0.81116 0.47175 0.0
C78 C 0.0739 0.84245 0.44924 0.0
C79 C 0.03464 0.8021 0.38681 0.0
O80 O 0.03026 0.81099 0.40174 0.0
O81 O 0.04487 0.79762 0.39679 0.0
O82 O 0.01838 0.8241 0.45484 0.0
O83 O 0.01964 0.80232 0.47354 0.0
O84 O 0.7536 0.8279 0.93709 0.0
Cd85 Cd 0.74676 0.80245 0.93387 0.0
Cd86 Cd 0.78073 0.81463 0.9406 0.0
O87 O 0.78053 0.83705 0.94814 0.0
O88 O 0.72213 0.78856 0.94372 0.0
O89 O 0.7428 0.78916 0.96999 0.0
C90 C 0.72668 0.78359 0.96612 0.0
C91 C 0.79803 0.80817 0.96887 0.0
C92 C 0.76829 0.83996 0.94427 0.0
C93 C 0.76459 0.79706 0.88522 0.0
O94 O 0.7782 0.80594 0.8994 0.0
O95 O 0.75019 0.79347 0.89558 0.0
O96 O 0.80442 0.82043 0.95062 0.0
O97 O 0.78162 0.79975 0.97186 0.0
O98 O 0.17003 0.9256 0.93943 0.0
Cd99 Cd 0.19539 0.94456 0.93678 0.0
Cd100 Cd 0.18264 0.9657 0.94268 0.0
O101 O 0.16029 0.94297 0.94995 0.0
O102 O 0.20967 0.93462 0.94888 0.0
O103 O 0.20794 0.95474 0.97313 0.0
C104 C 0.21399 0.94449 0.97083 0.0
C105 C 0.1893 0.98944 0.9711 0.0
C106 C 0.15771 0.92792 0.94618 0.0
C107 C 0.20074 0.96743 0.88777 0.0
O108 O 0.19148 0.97185 0.90157 0.0
O109 O 0.20462 0.95691 0.89849 0.0
O110 O 0.17703 0.98372 0.95286 0.0
O111 O 0.19753 0.98126 0.97404 0.0
O112 O 0.07543 0.24391 0.94121 0.0
Cd113 Cd 0.05633 0.25003 0.93771 0.0
Cd114 Cd 0.03539 0.21604 0.94343 0.0
O115 O 0.05819 0.21682 0.95199 0.0
O116 O 0.06616 0.27435 0.9491 0.0
O117 O 0.04595 0.25272 0.9736 0.0
C118 C 0.0562 0.26899 0.97095 0.0
C119 C 0.01138 0.1986 0.97108 0.0
C120 C 0.07321 0.22938 0.94843 0.0
C121 C 0.03424 0.23232 0.88803 0.0
O122 O 0.02979 0.21865 0.90189 0.0
O123 O 0.04442 0.24676 0.899 0.0
O124 O 0.01756 0.19228 0.95328 0.0
O125 O 0.01921 0.21502 0.97396 0.0
O126 O 0.83086 0.75663 0.55024 0.0
Cd127 Cd 0.80561 0.75056 0.55278 0.0
Cd128 Cd 0.81885 0.78466 0.54867 0.0
O129 O 0.84103 0.78397 0.54108 0.0
O130 O 0.79121 0.7265 0.53999 0.0
O131 O 0.79324 0.74869 0.5164 0.0
C132 C 0.78705 0.73236 0.51824 0.0
C133 C 0.81269 0.80235 0.52093 0.0
C134 C 0.84335 0.77129 0.54411 0.0
C135 C 0.80018 0.76742 0.60273 0.0
O136 O 0.80967 0.78134 0.58967 0.0
O137 O 0.79625 0.7532 0.59124 0.0
O138 O 0.82485 0.80851 0.53938 0.0
O139 O 0.80426 0.78598 0.51743 0.0
O140 O 0.24884 0.07675 0.55204 0.0
Cd141 Cd 0.25577 0.05829 0.55701 0.0
Cd142 Cd 0.22177 0.03623 0.54949 0.0
O143 O 0.22225 0.05871 0.53945 0.0
O144 O 0.28045 0.06894 0.54768 0.0
O145 O 0.25996 0.04851 0.52167 0.0
C146 C 0.27604 0.05915 0.52563 0.0
C147 C 0.20378 0.01162 0.52344 0.0
C148 C 0.23433 0.07394 0.54337 0.0
C149 C 0.23749 0.03588 0.60612 0.0
O150 O 0.22405 0.03111 0.59144 0.0
O151 O 0.25204 0.04637 0.59586 0.0
O152 O 0.19785 0.01843 0.54072 0.0
O153 O 0.22015 0.01918 0.52001 0.0
O154 O 0.92842 0.17334 0.55093 0.0
Cd155 Cd 0.94747 0.19859 0.55461 0.0
Cd156 Cd 0.96851 0.1857 0.54703 0.0
O157 O 0.94564 0.16376 0.53845 0.0
O158 O 0.93719 0.21303 0.54578 0.0
O159 O 0.95678 0.2121 0.51868 0.0
C160 C 0.94655 0.21797 0.52321 0.0
C161 C 0.99235 0.19248 0.51878 0.0
C162 C 0.93064 0.16116 0.54283 0.0
C163 C 0.97019 0.20254 0.60323 0.0
O164 O 0.97446 0.19341 0.58873 0.0
O165 O 0.95995 0.20693 0.59296 0.0
O166 O 0.98618 0.17976 0.53617 0.0
O167 O 0.98457 0.20116 0.51661 0.0
O168 O 0.91191 0.50767 0.3822 0.0
Cd169 Cd 0.91812 0.53287 0.3869 0.0
Cd170 Cd 0.88383 0.51976 0.38112 0.0
O171 O 0.88489 0.49805 0.37116 0.0
O172 O 0.94274 0.54731 0.37746 0.0
O173 O 0.92198 0.54678 0.35154 0.0
C174 C 0.93812 0.55255 0.35548 0.0
C175 C 0.86542 0.5259 0.35535 0.0
C176 C 0.89742 0.49551 0.37441 0.0
C177 C 0.90013 0.53654 0.43694 0.0
O178 O 0.88648 0.52741 0.42299 0.0
O179 O 0.91458 0.54098 0.4259 0.0
O180 O 0.85975 0.51323 0.37277 0.0
O181 O 0.88175 0.53489 0.35162 0.0
O182 O 0.49563 0.40894 0.38764 0.0
Cd183 Cd 0.4704 0.38968 0.38995 0.0
Cd184 Cd 0.4839 0.36902 0.3833 0.0
O185 O 0.50598 0.39213 0.37677 0.0
O186 O 0.45603 0.39998 0.38077 0.0
O187 O 0.45738 0.38069 0.3535 0.0
C188 C 0.45136 0.39081 0.35799 0.0
C189 C 0.47793 0.34574 0.35417 0.0
C190 C 0.50819 0.40702 0.3809 0.0
C191 C 0.46542 0.36627 0.43816 0.0
O192 O 0.4749 0.3622 0.42421 0.0
O193 O 0.46137 0.37675 0.42779 0.0
O194 O 0.49014 0.35155 0.37252 0.0
O195 O 0.46937 0.35361 0.3515 0.0
O196 O 0.593 0.09004 0.38495 0.0
Cd197 Cd 0.61165 0.08334 0.3895 0.0
Cd198 Cd 0.63328 0.11744 0.38356 0.0
O199 O 0.61076 0.117 0.37401 0.0
O200 O 0.60107 0.05867 0.38013 0.0
O201 O 0.62152 0.07919 0.35418 0.0
C202 C 0.61095 0.0631 0.35819 0.0
C203 C 0.65793 0.13539 0.35764 0.0
C204 C 0.59559 0.10466 0.37737 0.0
C205 C 0.63354 0.10112 0.43944 0.0
O206 O 0.63829 0.11478 0.42538 0.0
O207 O 0.6233 0.08671 0.4285 0.0
O208 O 0.6512 0.14136 0.37502 0.0
O209 O 0.65024 0.11904 0.35398 0.0
O210 O 0.84056 0.57986 0.77694 0.0
Cd211 Cd 0.86578 0.58606 0.77274 0.0
Cd212 Cd 0.8529 0.55205 0.7785 0.0
O213 O 0.83116 0.55299 0.78873 0.0
O214 O 0.88038 0.61028 0.78448 0.0
O215 O 0.87886 0.58843 0.80847 0.0
C216 C 0.88493 0.60473 0.80615 0.0
C217 C 0.85922 0.53363 0.80388 0.0
C218 C 0.82849 0.56541 0.78508 0.0
C219 C 0.86961 0.56844 0.72261 0.0
O220 O 0.86043 0.5548 0.73656 0.0
O221 O 0.87417 0.5829 0.73373 0.0
O222 O 0.84648 0.52796 0.78662 0.0
O223 O 0.86816 0.54995 0.80771 0.0
O224 O 0.4216 0.25655 0.77133 0.0
Cd225 Cd 0.41568 0.27584 0.7686 0.0
Cd226 Cd 0.45011 0.2965 0.77343 0.0
O227 O 0.44893 0.27342 0.781 0.0
O228 O 0.39112 0.26563 0.77853 0.0
O229 O 0.41205 0.28527 0.80493 0.0
C230 C 0.39588 0.27507 0.80101 0.0
C231 C 0.46834 0.3203 0.80082 0.0
C232 C 0.43614 0.2585 0.77771 0.0
C233 C 0.43339 0.2984 0.7191 0.0
O234 O 0.44717 0.30256 0.73239 0.0
O235 O 0.41904 0.28823 0.73032 0.0
O236 O 0.47416 0.3139 0.78247 0.0
O237 O 0.452 0.31275 0.8045 0.0
O238 O 0.7389 0.15931 0.77778 0.0
Cd239 Cd 0.72001 0.13406 0.77317 0.0
Cd240 Cd 0.69872 0.14679 0.78085 0.0
O241 O 0.72146 0.1685 0.7909 0.0
O242 O 0.73047 0.11974 0.78161 0.0
O243 O 0.71059 0.12016 0.8087 0.0
C244 C 0.721 0.11451 0.80405 0.0
C245 C 0.67424 0.14003 0.80735 0.0
C246 C 0.73654 0.17126 0.78662 0.0
C247 C 0.69778 0.13064 0.72418 0.0
O248 O 0.69346 0.13969 0.73879 0.0
O249 O 0.70784 0.12604 0.73452 0.0
O250 O 0.68107 0.15298 0.79046 0.0
O251 O 0.68174 0.13113 0.81018 0.0
O252 O 0.4232 0.16537 0.27127 0.0
Cd253 Cd 0.41649 0.13991 0.26918 0.0
Cd254 Cd 0.45054 0.15248 0.273 0.0
O255 O 0.45049 0.17503 0.28005 0.0
O256 O 0.39243 0.12605 0.28227 0.0
O257 O 0.41445 0.12764 0.30575 0.0
C258 C 0.39817 0.12179 0.30405 0.0
C259 C 0.4682 0.14616 0.3005 0.0
C260 C 0.43803 0.17769 0.27705 0.0
C261 C 0.43277 0.13356 0.21937 0.0
O262 O 0.44679 0.14289 0.23225 0.0
O263 O 0.41867 0.13006 0.2309 0.0
O264 O 0.47435 0.15811 0.28168 0.0
O265 O 0.45187 0.13805 0.30455 0.0
O266 O 0.84009 0.26099 0.27615 0.0
Cd267 Cd 0.86536 0.27989 0.27186 0.0
Cd268 Cd 0.85263 0.30126 0.27722 0.0
O269 O 0.8308 0.27864 0.28732 0.0
O270 O 0.87986 0.27018 0.2837 0.0
O271 O 0.87852 0.29066 0.30751 0.0
C272 C 0.88452 0.28037 0.30526 0.0
C273 C 0.85877 0.32605 0.30228 0.0
C274 C 0.82805 0.2635 0.28398 0.0
C275 C 0.86952 0.30142 0.22159 0.0
O276 O 0.8604 0.30601 0.2354 0.0
O277 O 0.87386 0.29137 0.23281 0.0
O278 O 0.84614 0.31892 0.28481 0.0
O279 O 0.86771 0.31869 0.3065 0.0
O280 O 0.7396 0.58174 0.27198 0.0
Cd281 Cd 0.72126 0.58877 0.26754 0.0
Cd282 Cd 0.69874 0.55514 0.27928 0.0
O283 O 0.72155 0.55546 0.28614 0.0
O284 O 0.7319 0.61356 0.27597 0.0
O285 O 0.71199 0.5933 0.30311 0.0
C286 C 0.72247 0.60935 0.29847 0.0
C287 C 0.6755 0.53784 0.30862 0.0
C288 C 0.73675 0.56727 0.28094 0.0
C289 C 0.69642 0.56936 0.22193 0.0
O290 O 0.6913 0.55657 0.23839 0.0
O291 O 0.7084 0.58396 0.22952 0.0
O292 O 0.68133 0.53146 0.29029 0.0
O293 O 0.68332 0.55427 0.3112 0.0
O294 O 0.49178 0.08312 0.88634 0.0
Cd295 Cd 0.46643 0.07652 0.89028 0.0
Cd296 Cd 0.47868 0.11048 0.88285 0.0
O297 O 0.50087 0.10996 0.87469 0.0
O298 O 0.45218 0.05192 0.88056 0.0
O299 O 0.45298 0.07273 0.85442 0.0
C300 C 0.4472 0.05658 0.8583 0.0
C301 C 0.4723 0.12786 0.85464 0.0
C302 C 0.50378 0.09771 0.87857 0.0
C303 C 0.4615 0.09477 0.93873 0.0
O304 O 0.4703 0.10826 0.9242 0.0
O305 O 0.45781 0.08028 0.92867 0.0
O306 O 0.48467 0.1342 0.87269 0.0
O307 O 0.46372 0.11144 0.85183 0.0
O308 O 0.91385 0.40612 0.88222 0.0
Cd309 Cd 0.92027 0.38728 0.88718 0.0
Cd310 Cd 0.88601 0.36582 0.88104 0.0
O311 O 0.88693 0.38849 0.87085 0.0
O312 O 0.9449 0.39757 0.87779 0.0
O313 O 0.92422 0.37722 0.85194 0.0
C314 C 0.94035 0.38767 0.85587 0.0
C315 C 0.86749 0.34114 0.85562 0.0
C316 C 0.89934 0.40362 0.87417 0.0
C317 C 0.90223 0.36551 0.93709 0.0
O318 O 0.88863 0.3609 0.92295 0.0
O319 O 0.9167 0.37564 0.92622 0.0
O320 O 0.8619 0.34825 0.87294 0.0
O321 O 0.88381 0.34845 0.85176 0.0
O322 O 0.5924 0.50235 0.88017 0.0
Cd323 Cd 0.60996 0.52776 0.88697 0.0
Cd324 Cd 0.63305 0.51681 0.88108 0.0
O325 O 0.61112 0.49407 0.87135 0.0
O326 O 0.59845 0.54074 0.876 0.0
O327 O 0.6213 0.54338 0.8538 0.0
C328 C 0.6096 0.54758 0.85593 0.0
C329 C 0.65818 0.52375 0.85638 0.0
C330 C 0.59571 0.49071 0.87333 0.0
C331 C 0.63131 0.53241 0.93752 0.0
O332 O 0.63757 0.52509 0.92272 0.0
O333 O 0.61989 0.53512 0.9272 0.0
O334 O 0.65151 0.51134 0.87433 0.0
O335 O 0.6502 0.53201 0.8515 0.0
O336 O 0.58361 0.84196 0.72201 0.0
Cd337 Cd 0.5895 0.86713 0.72539 0.0
Cd338 Cd 0.55523 0.85363 0.71863 0.0
O339 O 0.55669 0.832 0.70986 0.0
O340 O 0.6141 0.88171 0.71593 0.0
O341 O 0.59322 0.88032 0.68922 0.0
C342 C 0.60939 0.88636 0.69335 0.0
C343 C 0.53654 0.85897 0.69198 0.0
C344 C 0.56926 0.82964 0.71404 0.0
C345 C 0.57099 0.87109 0.77434 0.0
O346 O 0.55751 0.86166 0.76022 0.0
O347 O 0.58558 0.87566 0.76374 0.0
O348 O 0.53105 0.84651 0.70981 0.0
O349 O 0.55286 0.86821 0.68836 0.0
O350 O 0.1607 0.73973 0.71656 0.0
Cd351 Cd 0.13536 0.72073 0.71879 0.0
Cd352 Cd 0.1483 0.69948 0.71473 0.0
O353 O 0.17051 0.72229 0.70707 0.0
O354 O 0.1212 0.73066 0.70613 0.0
O355 O 0.12311 0.71055 0.68219 0.0
C356 C 0.11704 0.72079 0.68421 0.0
C357 C 0.14288 0.67535 0.68838 0.0
C358 C 0.17305 0.73737 0.71028 0.0
C359 C 0.12944 0.69824 0.76858 0.0
O360 O 0.13891 0.69375 0.75563 0.0
O361 O 0.12569 0.70865 0.75707 0.0
O362 O 0.15486 0.68188 0.70711 0.0
O363 O 0.13421 0.68294 0.68371 0.0
O364 O 0.26198 0.42162 0.71847 0.0
Cd365 Cd 0.28085 0.41519 0.72251 0.0
Cd366 Cd 0.30238 0.44975 0.71702 0.0
O367 O 0.27952 0.44866 0.70767 0.0
O368 O 0.27036 0.39056 0.71295 0.0
O369 O 0.2904 0.41123 0.68665 0.0
C370 C 0.27994 0.39511 0.69064 0.0
C371 C 0.32672 0.46882 0.6914 0.0
C372 C 0.26442 0.43618 0.71091 0.0
C373 C 0.30312 0.43292 0.77221 0.0
O374 O 0.30767 0.44666 0.75851 0.0
O375 O 0.29284 0.41855 0.76116 0.0
O376 O 0.31963 0.47405 0.70944 0.0
O377 O 0.31962 0.45256 0.68703 0.0
O378 O 0.50615 0.91276 0.11148 0.0
Cd379 Cd 0.5315 0.91935 0.10764 0.0
Cd380 Cd 0.51908 0.88539 0.11347 0.0
O381 O 0.49687 0.88577 0.12223 0.0
O382 O 0.54565 0.94368 0.11913 0.0
O383 O 0.54466 0.92219 0.14347 0.0
C384 C 0.5504 0.93842 0.14094 0.0
C385 C 0.52582 0.86798 0.14088 0.0
C386 C 0.49407 0.89812 0.11882 0.0
C387 C 0.53631 0.9019 0.05801 0.0
O388 O 0.52735 0.8882 0.07195 0.0
O389 O 0.54024 0.91628 0.06887 0.0
O390 O 0.51339 0.86165 0.12294 0.0
O391 O 0.53424 0.88438 0.14404 0.0
O392 O 0.08572 0.59357 0.10576 0.0
Cd393 Cd 0.07898 0.61219 0.10151 0.0
Cd394 Cd 0.11308 0.634 0.10604 0.0
O395 O 0.11279 0.61154 0.11564 0.0
O396 O 0.05488 0.60226 0.11414 0.0
O397 O 0.07681 0.62319 0.13705 0.0
C398 C 0.06054 0.61269 0.13538 0.0
C399 C 0.13161 0.65878 0.13118 0.0
C400 C 0.10046 0.59631 0.11288 0.0
C401 C 0.09561 0.63384 0.05101 0.0
O402 O 0.10948 0.6388 0.06453 0.0
O403 O 0.0814 0.62342 0.06239 0.0
O404 O 0.13717 0.65196 0.11322 0.0
O405 O 0.11535 0.65114 0.13582 0.0
O406 O 0.40803 0.49702 0.10846 0.0
Cd407 Cd 0.38921 0.47165 0.10551 0.0
Cd408 Cd 0.36782 0.48443 0.10997 0.0
O409 O 0.39049 0.50661 0.11853 0.0
O410 O 0.39945 0.45766 0.11765 0.0
O411 O 0.37897 0.45886 0.1417 0.0
C412 C 0.38946 0.4531 0.13947 0.0
C413 C 0.34336 0.47846 0.13587 0.0
C414 C 0.40559 0.50925 0.11526 0.0
C415 C 0.36711 0.46631 0.05547 0.0
O416 O 0.36252 0.47561 0.0687 0.0
O417 O 0.37741 0.46238 0.06693 0.0
O418 O 0.35002 0.49072 0.11763 0.0
O419 O 0.35101 0.46983 0.14035 0.0
O420 O 0.08862 0.49395 0.60684 0.0
Cd421 Cd 0.08196 0.46859 0.60277 0.0
Cd422 Cd 0.11601 0.48092 0.60778 0.0
O423 O 0.11566 0.50308 0.61703 0.0
O424 O 0.05779 0.4544 0.61508 0.0
O425 O 0.07963 0.45546 0.63842 0.0
C426 C 0.06336 0.44966 0.6365 0.0
C427 C 0.13437 0.47476 0.63368 0.0
C428 C 0.10333 0.50596 0.61404 0.0
C429 C 0.09887 0.46362 0.5526 0.0
O430 O 0.11268 0.47251 0.56628 0.0
O431 O 0.08461 0.45981 0.56378 0.0
O432 O 0.14006 0.4871 0.6156 0.0
O433 O 0.11806 0.46609 0.63791 0.0
O434 O 0.50821 0.59649 0.61194 0.0
Cd435 Cd 0.53375 0.61433 0.60664 0.0
Cd436 Cd 0.52228 0.63692 0.61159 0.0
O437 O 0.49957 0.61492 0.62073 0.0
O438 O 0.54638 0.60241 0.61732 0.0
O439 O 0.54864 0.62467 0.64099 0.0
C440 C 0.55277 0.61294 0.63831 0.0
C441 C 0.52955 0.66141 0.63834 0.0
C442 C 0.49639 0.59958 0.61853 0.0
C443 C 0.53898 0.63616 0.55615 0.0
O444 O 0.53076 0.64178 0.57009 0.0
O445 O 0.54216 0.62521 0.56716 0.0
O446 O 0.51727 0.65552 0.62012 0.0
O447 O 0.5376 0.6531 0.64203 0.0
O448 O 0.40677 0.9094 0.60835 0.0
Cd449 Cd 0.38776 0.91561 0.60405 0.0
Cd450 Cd 0.36659 0.88169 0.61005 0.0
O451 O 0.38928 0.88241 0.61944 0.0
O452 O 0.39739 0.93984 0.61582 0.0
O453 O 0.37698 0.91798 0.63966 0.0
C454 C 0.38723 0.93428 0.63743 0.0
C455 C 0.34242 0.86457 0.63758 0.0
C456 C 0.40438 0.89487 0.61606 0.0
C457 C 0.3658 0.89782 0.55427 0.0
O458 O 0.36123 0.88419 0.56831 0.0
O459 O 0.37602 0.91228 0.56513 0.0
O460 O 0.34859 0.85804 0.62015 0.0
O461 O 0.35035 0.88101 0.64015 0.0
O462 O 0.16096 0.4219 0.21463 0.0
Cd463 Cd 0.1355 0.41483 0.21886 0.0
Cd464 Cd 0.14765 0.44914 0.21319 0.0
O465 O 0.16985 0.44884 0.20397 0.0
O466 O 0.12186 0.3901 0.20962 0.0
O467 O 0.12161 0.41032 0.18327 0.0
C468 C 0.11639 0.3943 0.18745 0.0
C469 C 0.14139 0.4674 0.18721 0.0
C470 C 0.17286 0.43662 0.20719 0.0
C471 C 0.13052 0.43227 0.26855 0.0
O472 O 0.13936 0.44603 0.25473 0.0
O473 O 0.12679 0.41797 0.25759 0.0
O474 O 0.15381 0.47315 0.20515 0.0
O475 O 0.13272 0.45109 0.18313 0.0
O476 O 0.57994 0.7414 0.22165 0.0
Cd477 Cd 0.5863 0.72239 0.22342 0.0
Cd478 Cd 0.5522 0.70125 0.2189 0.0
O479 O 0.55267 0.72407 0.21217 0.0
O480 O 0.61042 0.73249 0.21074 0.0
O481 O 0.58844 0.71246 0.18661 0.0
C482 C 0.60474 0.72276 0.18864 0.0
C483 C 0.53438 0.67762 0.19081 0.0
C484 C 0.56522 0.73911 0.21559 0.0
C485 C 0.56946 0.69944 0.27271 0.0
O486 O 0.55556 0.69503 0.25962 0.0
O487 O 0.58368 0.70998 0.26147 0.0
O488 O 0.52831 0.68348 0.20969 0.0
O489 O 0.55074 0.68557 0.18711 0.0
O490 O 0.25919 0.8398 0.21618 0.0
Cd491 Cd 0.27818 0.86497 0.22115 0.0
Cd492 Cd 0.29938 0.85206 0.21351 0.0
O493 O 0.27657 0.83053 0.20303 0.0
O494 O 0.26803 0.87951 0.21225 0.0
O495 O 0.28805 0.87895 0.18581 0.0
C496 C 0.27771 0.88472 0.19006 0.0
C497 C 0.32391 0.85832 0.18756 0.0
C498 C 0.26151 0.82784 0.20718 0.0
C499 C 0.30015 0.86808 0.27032 0.0
O500 O 0.30447 0.85905 0.25563 0.0
O501 O 0.29017 0.87278 0.26 0.0
O502 O 0.31675 0.8454 0.20444 0.0
O503 O 0.31673 0.86751 0.18443 0.0
H504 H 0.36155 0.26081 0.79337 0.0
H505 H 0.33992 0.25516 0.82944 0.0
H506 H 0.37946 0.27909 0.8929 0.0
H507 H 0.40122 0.28534 0.85662 0.0
H508 H 0.33352 0.23478 0.87312 0.0
H509 H 0.34967 0.29852 0.91424 0.0
H510 H 0.35866 0.29581 0.88172 0.0
H511 H 0.36757 0.29509 0.9156 0.0
C512 C 0.36566 0.26517 0.81491 0.0
C513 C 0.38308 0.27347 0.8222 0.0
C514 C 0.35329 0.26195 0.8355 0.0
C515 C 0.35803 0.26684 0.86387 0.0
C516 C 0.37547 0.27558 0.87105 0.0
H517 H 0.30767 0.23122 0.02369 0.0
H518 H 0.32763 0.24567 0.98462 0.0
C519 C 0.38791 0.27903 0.85033 0.0
C520 C 0.34468 0.26108 0.88625 0.0
H521 H 0.33108 0.2744 0.94351 0.0
C522 C 0.33284 0.24351 0.88819 0.0
C523 C 0.34381 0.27244 0.90602 0.0
C524 C 0.3555 0.29153 0.90414 0.0
C525 C 0.32052 0.23694 0.90979 0.0
C526 C 0.31998 0.24822 0.92997 0.0
C527 C 0.33158 0.26581 0.92791 0.0
C528 C 0.30801 0.24165 0.95424 0.0
C529 C 0.30847 0.21789 0.91149 0.0
C530 C 0.29043 0.23501 0.95015 0.0
C531 C 0.27896 0.22678 0.97247 0.0
C532 C 0.28494 0.22496 -0.00089 0.0
C533 C 0.30265 0.23231 0.00338 0.0
C534 C 0.31409 0.24063 0.98115 0.0
H535 H 0.31187 0.2107 0.89617 0.0
H536 H 0.30851 0.21319 0.93329 0.0
H537 H 0.29526 0.21505 0.90681 0.0
H538 H 0.28555 0.23573 0.92947 0.0
H539 H 0.2654 0.22127 0.96852 0.0
H540 H 0.71221 0.10985 0.8603 0.0
H541 H 0.7197 0.09473 0.89559 0.0
H542 H 0.74126 0.07827 0.82936 0.0
H543 H 0.73445 0.09391 0.79424 0.0
H544 H 0.71289 0.06211 0.9044 0.0
H545 H 0.78184 0.10427 0.88064 0.0
H546 H 0.76561 0.10828 0.86661 0.0
H547 H 0.76955 0.09255 0.85031 0.0
C548 C 0.71836 0.10284 0.85325 0.0
C549 C 0.72301 0.10329 0.82462 0.0
C550 C 0.72263 0.0942 0.87341 0.0
C551 C 0.73146 0.08576 0.86521 0.0
C552 C 0.73493 0.08514 0.8363 0.0
H553 H 0.78021 0.04095 0.96669 0.0
H554 H 0.76481 0.04589 0.9283 0.0
C555 C 0.73095 0.094 0.81624 0.0
C556 C 0.73797 0.07858 0.88703 0.0
H557 H 0.77476 0.08189 0.91329 0.0
C558 C 0.7264 0.06639 0.90629 0.0
C559 C 0.75565 0.08429 0.88963 0.0
C560 C 0.76891 0.09818 0.8709 0.0
C561 C 0.73208 0.05976 0.92805 0.0
C562 C 0.7497 0.06547 0.9305 0.0
C563 C 0.76121 0.07741 0.91103 0.0
C564 C 0.75679 0.06033 0.95438 0.0
C565 C 0.71927 0.04678 0.94839 0.0
C566 C 0.75723 0.06673 0.9817 0.0
C567 C 0.76616 0.06413 0.00351 0.0
C568 C 0.77476 0.05501 -0.0016 0.0
C569 C 0.77367 0.04798 0.97129 0.0
C570 C 0.76489 0.05077 0.94937 0.0
H571 H 0.70597 0.04116 0.94036 0.0
H572 H 0.72212 0.03633 0.95226 0.0
H573 H 0.72011 0.05306 0.96908 0.0
H574 H 0.75126 0.07435 0.98584 0.0
H575 H 0.76672 0.06966 0.02418 0.0
H576 H 0.95319 0.73336 0.96816 0.0
H577 H 0.94686 0.71105 0.93279 0.0
H578 H 0.92552 0.67267 -0.00148 0.0
H579 H 0.93117 0.69479 0.03369 0.0
H580 H 0.95506 0.68615 0.92468 0.0
H581 H 0.88549 0.65685 0.94553 0.0
H582 H 0.90097 0.67728 0.96006 0.0
H583 H 0.89756 0.6578 0.97642 0.0
C584 C 0.94731 0.72018 0.97508 0.0
C585 C 0.94241 0.71577 0.00357 0.0
C586 C 0.94371 0.70745 0.95488 0.0
C587 C 0.9353 0.69015 0.9629 0.0
C588 C 0.93153 0.68588 0.9917 0.0
H589 H 0.89016 0.59711 0.8602 0.0
H590 H 0.90482 0.61734 0.89906 0.0
C591 C 0.93485 0.69854 0.0118 0.0
C592 C 0.92957 0.67658 0.94096 0.0
H593 H 0.89386 0.64238 0.91339 0.0
C594 C 0.94169 0.67655 0.92227 0.0
C595 C 0.91209 0.66411 0.93769 0.0
C596 C 0.89825 0.66406 0.95579 0.0
C597 C 0.93676 0.66438 0.9004 0.0
C598 C 0.91932 0.65198 0.89725 0.0
C599 C 0.90727 0.65181 0.91618 0.0
C600 C 0.91295 0.63988 0.87312 0.0
C601 C 0.95016 0.66486 0.8807 0.0
C602 C 0.91287 0.64591 0.8457 0.0
C603 C 0.90436 0.63443 0.82361 0.0
C604 C 0.89583 0.61671 0.82854 0.0
C605 C 0.89666 0.61069 0.85573 0.0
C606 C 0.90502 0.62221 0.87793 0.0
H607 H 0.96326 0.67274 0.88947 0.0
H608 H 0.94777 0.65173 0.87657 0.0
H609 H 0.94954 0.67046 0.86004 0.0
H610 H 0.9187 0.65951 0.8417 0.0
H611 H 0.90399 0.63946 0.80288 0.0
H612 H 0.28926 0.40004 0.63461 0.0
H613 H 0.28217 0.37793 0.59849 0.0
H614 H 0.25987 0.33897 0.66318 0.0
H615 H 0.2663 0.36091 0.6991 0.0
H616 H 0.28918 0.35225 0.58919 0.0
H617 H 0.21993 0.32507 0.61059 0.0
H618 H 0.23596 0.34513 0.62549 0.0
H619 H 0.23181 0.32525 0.64126 0.0
C620 C 0.28302 0.38677 0.64114 0.0
C621 C 0.27807 0.38216 0.66956 0.0
C622 C 0.27898 0.37415 0.62051 0.0
C623 C 0.27008 0.35677 0.62804 0.0
C624 C 0.26626 0.35226 0.65676 0.0
H625 H 0.2226 0.26428 0.52413 0.0
H626 H 0.23757 0.2843 0.5631 0.0
C627 C 0.27003 0.36482 0.67728 0.0
C628 C 0.26387 0.34339 0.60572 0.0
H629 H 0.22747 0.31012 0.57794 0.0
C630 C 0.2757 0.34301 0.58676 0.0
C631 C 0.24624 0.33141 0.60244 0.0
C632 C 0.23273 0.33179 0.62083 0.0
C633 C 0.27034 0.33094 0.56467 0.0
C634 C 0.25276 0.319 0.56156 0.0
C635 C 0.24098 0.3192 0.5807 0.0
C636 C 0.24601 0.30697 0.53737 0.0
C637 C 0.28343 0.33102 0.54471 0.0
C638 C 0.24597 0.31315 0.51006 0.0
C639 C 0.23728 0.30179 0.48791 0.0
C640 C 0.22854 0.28404 0.49268 0.0
C641 C 0.22926 0.27787 0.51979 0.0
C642 C 0.23779 0.28927 0.54204 0.0
H643 H 0.29662 0.33863 0.55326 0.0
H644 H 0.28065 0.31776 0.54055 0.0
H645 H 0.28286 0.33668 0.5241 0.0
H646 H 0.25202 0.32677 0.50617 0.0
H647 H 0.237 0.30693 0.46724 0.0
H648 H 0.60429 0.89017 0.63715 0.0
H649 H 0.62629 0.90518 0.60087 0.0
H650 H 0.66533 0.92298 0.66554 0.0
H651 H 0.64351 0.90749 0.70165 0.0
H652 H 0.65158 0.93798 0.5909 0.0
H653 H 0.67983 0.89701 0.61392 0.0
H654 H 0.65967 0.89276 0.62868 0.0
H655 H 0.67944 0.90886 0.6442 0.0
C656 C 0.61755 0.89745 0.64364 0.0
C657 C 0.62223 0.89744 0.67213 0.0
C658 C 0.63011 0.90602 0.62292 0.0
C659 C 0.64749 0.91482 0.63041 0.0
C660 C 0.65205 0.91584 0.65916 0.0
H661 H 0.7398 0.96012 0.52597 0.0
H662 H 0.71979 0.95504 0.56496 0.0
C663 C 0.63955 0.90706 0.67978 0.0
C664 C 0.66084 0.922 0.60803 0.0
H665 H 0.69441 0.91924 0.58067 0.0
C666 C 0.66097 0.93392 0.5887 0.0
C667 C 0.67303 0.91659 0.60505 0.0
C668 C 0.67293 0.90298 0.62387 0.0
C669 C 0.67298 0.94058 0.56652 0.0
C670 C 0.68512 0.93517 0.56369 0.0
C671 C 0.68518 0.92349 0.5832 0.0
C672 C 0.69711 0.94039 0.53945 0.0
C673 C 0.67264 0.9533 0.54617 0.0
C674 C 0.69093 0.93394 0.51225 0.0
C675 C 0.70228 0.93664 0.49008 0.0
C676 C 0.72004 0.9459 0.49472 0.0
C677 C 0.7262 0.95298 0.52172 0.0
C678 C 0.71481 0.95011 0.54399 0.0
H679 H 0.66492 0.95881 0.55454 0.0
H680 H 0.68581 0.96385 0.54173 0.0
H681 H 0.66693 0.94681 0.52574 0.0
H682 H 0.67731 0.9262 0.50846 0.0
H683 H 0.69714 0.93105 0.4695 0.0
H684 H 0.04802 0.7801 0.52195 0.0
H685 H 0.05459 0.76416 0.55703 0.0
H686 H 0.07661 0.74808 0.49101 0.0
H687 H 0.07071 0.76452 0.45612 0.0
H688 H 0.04694 0.73119 0.56463 0.0
H689 H 0.11644 0.77257 0.54429 0.0
H690 H 0.10074 0.77723 0.52985 0.0
H691 H 0.10451 0.76145 0.51329 0.0
C692 C 0.05409 0.77301 0.51489 0.0
C693 C 0.05912 0.77378 0.48642 0.0
C694 C 0.05783 0.7639 0.53494 0.0
C695 C 0.0665 0.7553 0.52676 0.0
C696 C 0.07039 0.75505 0.49795 0.0
H697 H 0.11262 0.7084 0.62991 0.0
H698 H 0.09807 0.71386 0.59072 0.0
C699 C 0.06693 0.76437 0.47802 0.0
C700 C 0.0724 0.74755 0.54858 0.0
H701 H 0.10838 0.74974 0.57634 0.0
C702 C 0.06036 0.7352 0.56712 0.0
C703 C 0.08995 0.75287 0.55194 0.0
C704 C 0.10368 0.76687 0.53399 0.0
C705 C 0.06544 0.72808 0.58898 0.0
C706 C 0.08296 0.73346 0.59226 0.0
C707 C 0.09493 0.74552 0.57345 0.0
C708 C 0.08945 0.72792 0.61648 0.0
C709 C 0.05213 0.71495 0.60853 0.0
C710 C 0.08925 0.73391 0.64387 0.0
C711 C 0.0977 0.73101 0.66615 0.0
C712 C 0.10643 0.72199 0.66142 0.0
C713 C 0.10596 0.71534 0.63421 0.0
C714 C 0.09766 0.71843 0.61183 0.0
H715 H 0.03904 0.70949 0.59961 0.0
H716 H 0.0548 0.70441 0.61271 0.0
H717 H 0.05251 0.72107 0.62918 0.0
H718 H 0.0832 0.74149 0.64775 0.0
H719 H 0.0978 0.73626 0.68689 0.0
H720 H 0.6396 0.74025 0.18988 0.0
H721 H 0.65915 0.74548 0.15028 0.0
H722 H 0.61641 0.71412 0.09576 0.0
H723 H 0.59665 0.7087 0.13535 0.0
H724 H 0.66139 0.71965 0.10828 0.0
H725 H 0.6437 0.76576 0.06303 0.0
H726 H 0.64061 0.75989 0.10015 0.0
H727 H 0.6268 0.74501 0.0739 0.0
C728 C 0.63434 0.73425 0.16959 0.0
C729 C 0.61656 0.72418 0.16567 0.0
C730 C 0.64554 0.7372 0.14705 0.0
C731 C 0.63917 0.73024 0.12019 0.0
C732 C 0.62151 0.7196 0.11642 0.0
H733 H 0.69222 0.76454 0.95877 0.0
H734 H 0.67054 0.74881 0.99491 0.0
C735 C 0.61027 0.71652 0.13904 0.0
C736 C 0.65094 0.73546 0.09567 0.0
H737 H 0.66486 0.76283 0.03932 0.0
C738 C 0.66211 0.72898 0.09299 0.0
C739 C 0.65177 0.7476 0.07588 0.0
C740 C 0.64017 0.7551 0.07825 0.0
C741 C 0.67419 0.7344 0.07088 0.0
C742 C 0.67538 0.74697 0.05154 0.0
C743 C 0.66395 0.75318 0.05408 0.0
C744 C 0.68866 0.75442 0.02904 0.0
C745 C 0.6854 0.72648 0.06834 0.0
C746 C 0.70612 0.76258 0.03603 0.0
C747 C 0.71857 0.77142 0.01527 0.0
C748 C 0.71377 0.77254 0.9873 0.0
C749 C 0.69632 0.76398 0.98018 0.0
C750 C 0.68391 0.75497 0.00082 0.0
H751 H 0.67925 0.71356 0.07812 0.0
H752 H 0.68836 0.72542 0.04578 0.0
H753 H 0.69759 0.7346 0.07974 0.0
H754 H 0.71013 0.76275 0.05777 0.0
H755 H 0.73191 0.778 0.02143 0.0
H756 H 0.28814 0.89036 0.13457 0.0
H757 H 0.28147 0.9058 0.09879 0.0
H758 H 0.25709 0.9204 0.16301 0.0
H759 H 0.26316 0.90447 0.19859 0.0
H760 H 0.23663 0.90621 0.11967 0.0
H761 H 0.29963 0.95479 0.07754 0.0
H762 H 0.29679 0.93369 0.07594 0.0
H763 H 0.29743 0.94315 0.10995 0.0
C764 C 0.28167 0.89716 0.14115 0.0
C765 C 0.27608 0.89612 0.16933 0.0
C766 C 0.27797 0.9061 0.12071 0.0
C767 C 0.26895 0.91446 0.12823 0.0
C768 C 0.26409 0.91408 0.15669 0.0
H769 H 0.2209 0.95917 0.02368 0.0
H770 H 0.23595 0.95425 0.06267 0.0
C771 C 0.26756 0.90496 0.17701 0.0
C772 C 0.26278 0.9218 0.10606 0.0
H773 H 0.27517 0.94843 0.04844 0.0
C774 C 0.24512 0.91567 0.10443 0.0
C775 C 0.27384 0.9341 0.08607 0.0
C776 C 0.29299 0.94194 0.08762 0.0
C777 C 0.23817 0.92105 0.08289 0.0
C778 C 0.24915 0.9329 0.06245 0.0
C779 C 0.26682 0.93932 0.06423 0.0
C780 C 0.24217 0.93784 0.03815 0.0
C781 C 0.21905 0.91361 0.08151 0.0
C782 C 0.2411 0.93055 0.01141 0.0
C783 C 0.23243 0.93322 0.98921 0.0
C784 C 0.22478 0.94332 0.99336 0.0
C785 C 0.22663 0.9513 0.01983 0.0
C786 C 0.23521 0.94852 0.04211 0.0
H787 H 0.21216 0.90313 0.09713 0.0
H788 H 0.21592 0.9238 0.08595 0.0
H789 H 0.21427 0.90859 0.05986 0.0
H790 H 0.24637 0.92224 0.00804 0.0
H791 H 0.23133 0.92697 0.96903 0.0
H792 H 0.11034 0.39871 0.13197 0.0
H793 H 0.09497 0.37636 0.09649 0.0
H794 H 0.08157 0.33774 0.16101 0.0
H795 H 0.09744 0.35998 0.19626 0.0
H796 H 0.09561 0.33162 0.11725 0.0
H797 H 0.04585 0.3448 0.07668 0.0
H798 H 0.06681 0.36324 0.0745 0.0
H799 H 0.05775 0.3545 0.10876 0.0
C800 C 0.10383 0.38546 0.13866 0.0
C801 C 0.10517 0.38108 0.16683 0.0
C802 C 0.09493 0.37268 0.1184 0.0
C803 C 0.08691 0.35534 0.12612 0.0
C804 C 0.08763 0.35102 0.15455 0.0
H805 H 0.04167 0.26173 0.02393 0.0
H806 H 0.04676 0.2821 0.06234 0.0
C807 C 0.09671 0.36375 0.17467 0.0
C808 C 0.07952 0.34171 0.10416 0.0
H809 H 0.0521 0.32664 0.04761 0.0
C810 C 0.08589 0.33039 0.10235 0.0
C811 C 0.06686 0.3401 0.08462 0.0
C812 C 0.0588 0.35121 0.0864 0.0
C813 C 0.08036 0.31787 0.08111 0.0
C814 C 0.06813 0.31662 0.06112 0.0
C815 C 0.0615 0.32769 0.06306 0.0
C816 C 0.06299 0.30448 0.03715 0.0
C817 C 0.08801 0.30638 0.07953 0.0
C818 C 0.07012 0.31043 0.01023 0.0
C819 C 0.06737 0.29887 0.98837 0.0
C820 C 0.05733 0.28116 0.99305 0.0
C821 C 0.04947 0.27528 0.01968 0.0
C822 C 0.05235 0.28688 0.04162 0.0
H823 H 0.09863 0.31015 0.09492 0.0
H824 H 0.07797 0.29301 0.08417 0.0
H825 H 0.09289 0.30662 0.05777 0.0
H826 H 0.07841 0.32398 0.00648 0.0
H827 H 0.07352 0.30381 0.96805 0.0
H828 H 0.71207 0.60494 0.35394 0.0
H829 H 0.71906 0.62725 0.38944 0.0
H830 H 0.74416 0.66592 0.32496 0.0
H831 H 0.73777 0.6437 0.28964 0.0
H832 H 0.76436 0.67208 0.36865 0.0
H833 H 0.70147 0.65868 0.40962 0.0
H834 H 0.70391 0.6402 0.41163 0.0
H835 H 0.70364 0.64904 0.37744 0.0
C836 C 0.71879 0.61819 0.34724 0.0
C837 C 0.72446 0.62258 0.31906 0.0
C838 C 0.72266 0.63095 0.36752 0.0
C839 C 0.73195 0.64829 0.35984 0.0
C840 C 0.73695 0.65264 0.33139 0.0
H841 H 0.78069 0.74074 0.46545 0.0
H842 H 0.76566 0.72114 0.42599 0.0
C843 C 0.7333 0.63992 0.31123 0.0
C844 C 0.73819 0.66187 0.38189 0.0
H845 H 0.72587 0.67638 0.43921 0.0
C846 C 0.75588 0.67319 0.38373 0.0
C847 C 0.72715 0.66332 0.40165 0.0
C848 C 0.70798 0.65227 0.39982 0.0
C849 C 0.76289 0.68549 0.40533 0.0
C850 C 0.75192 0.68651 0.42561 0.0
C851 C 0.73421 0.6755 0.42355 0.0
C852 C 0.75892 0.69824 0.45012 0.0
C853 C 0.78204 0.69692 0.407 0.0
C854 C 0.75969 0.69176 0.47678 0.0
C855 C 0.76835 0.70287 0.49922 0.0
C856 C 0.77628 0.72067 0.49542 0.0
C857 C 0.77474 0.72709 0.46902 0.0
C858 C 0.76617 0.71595 0.44649 0.0
H859 H 0.78887 0.69328 0.39136 0.0
H860 H 0.7854 0.71033 0.40279 0.0
H861 H 0.78665 0.69643 0.42867 0.0
H862 H 0.75419 0.67811 0.47989 0.0
H863 H 0.76922 0.69751 0.51933 0.0
H864 H 0.27112 0.04822 0.47042 0.0
H865 H 0.29312 0.05489 0.43443 0.0
H866 H 0.33234 0.08055 0.49785 0.0
H867 H 0.31044 0.07448 0.53363 0.0
H868 H 0.33812 0.10038 0.45377 0.0
H869 H 0.32439 0.03714 0.41401 0.0
H870 H 0.30592 0.03962 0.41222 0.0
H871 H 0.31501 0.03958 0.44628 0.0
C872 C 0.28443 0.05499 0.47678 0.0
C873 C 0.28907 0.06092 0.50479 0.0
C874 C 0.297 0.05868 0.45622 0.0
C875 C 0.31442 0.06805 0.46346 0.0
C876 C 0.31901 0.07329 0.49175 0.0
H877 H 0.40642 0.11533 0.35687 0.0
H878 H 0.38679 0.10063 0.39647 0.0
C879 C 0.30647 0.06982 0.51218 0.0
C880 C 0.32781 0.0741 0.44111 0.0
H881 H 0.34203 0.06131 0.38399 0.0
C882 C 0.33914 0.09178 0.43885 0.0
C883 C 0.32914 0.0629 0.42155 0.0
C884 C 0.31807 0.04374 0.4238 0.0
C885 C 0.35134 0.0986 0.41709 0.0
C886 C 0.35226 0.08746 0.39704 0.0
C887 C 0.34122 0.06977 0.39947 0.0
C888 C 0.36396 0.09426 0.37246 0.0
C889 C 0.36282 0.11773 0.41502 0.0
C890 C 0.3575 0.09516 0.34584 0.0
C891 C 0.36863 0.10363 0.32332 0.0
C892 C 0.38642 0.11125 0.32701 0.0
C893 C 0.39279 0.10961 0.35338 0.0
C894 C 0.38163 0.10122 0.37599 0.0
H895 H 0.35935 0.1247 0.43066 0.0
H896 H 0.37625 0.12106 0.41893 0.0
H897 H 0.36217 0.1222 0.39331 0.0
H898 H 0.34389 0.08988 0.34281 0.0
H899 H 0.36331 0.10458 0.30323 0.0
H900 H 0.89005 0.29346 0.35917 0.0
H901 H 0.90509 0.28822 0.39781 0.0
H902 H 0.91865 0.25968 0.34048 0.0
H903 H 0.90356 0.26468 0.30188 0.0
H904 H 0.89452 0.25218 0.41259 0.0
H905 H 0.96365 0.29192 0.38705 0.0
H906 H 0.94786 0.29715 0.37464 0.0
H907 H 0.94968 0.28026 0.358 0.0
C908 C 0.89654 0.28637 0.35466 0.0
C909 C 0.89554 0.27939 0.32754 0.0
C910 C 0.90511 0.28341 0.37673 0.0
C911 C 0.91308 0.27371 0.37186 0.0
C912 C 0.91279 0.26741 0.34452 0.0
H913 H 0.9555 0.22244 0.46701 0.0
H914 H 0.94852 0.23786 0.43148 0.0
C915 C 0.90406 0.27019 0.32255 0.0
C916 C 0.91979 0.26827 0.3959 0.0
H917 H 0.95605 0.2707 0.42276 0.0
C918 C 0.90799 0.25638 0.41512 0.0
C919 C 0.93732 0.27362 0.39871 0.0
C920 C 0.95044 0.28653 0.37866 0.0
C921 C 0.91316 0.24921 0.43664 0.0
C922 C 0.93075 0.25455 0.4396 0.0
C923 C 0.94261 0.26669 0.42058 0.0
C924 C 0.93685 0.24707 0.46158 0.0
C925 C 0.8996 0.2354 0.45508 0.0
C926 C 0.93323 0.2477 0.49042 0.0
C927 C 0.93691 0.23868 0.51061 0.0
C928 C 0.9447 0.22921 0.50245 0.0
C929 C 0.94945 0.2296 0.4739 0.0
C930 C 0.94548 0.2384 0.4536 0.0
H931 H 0.88676 0.22956 0.44505 0.0
H932 H 0.9026 0.2251 0.45946 0.0
H933 H 0.89892 0.24104 0.47565 0.0
H934 H 0.92705 0.25474 0.49719 0.0
H935 H 0.93334 0.23883 0.53254 0.0
H936 H 0.06861 0.62817 0.18761 0.0
H937 H 0.04887 0.62349 0.22689 0.0
H938 H 0.00616 0.59053 0.1735 0.0
H939 H 0.02569 0.59501 0.13423 0.0
H940 H 0.00352 0.61691 0.21369 0.0
H941 H 0.02241 0.57246 0.26226 0.0
H942 H 0.039 0.59316 0.25052 0.0
H943 H 0.02534 0.57765 0.22487 0.0
C944 C 0.055 0.62016 0.18408 0.0
C945 C 0.04871 0.61181 0.15792 0.0
C946 C 0.04377 0.61752 0.20652 0.0
C947 C 0.02612 0.60663 0.203 0.0
C948 C 0.01975 0.59901 0.17651 0.0
H949 H 0.93311 0.55815 0.30009 0.0
H950 H 0.95509 0.57391 0.26427 0.0
C951 C 0.03095 0.60153 0.15417 0.0
C952 C 0.0144 0.60171 0.22755 0.0
H953 H 0.00077 0.57507 0.28485 0.0
C954 C 0.00297 0.6079 0.22949 0.0
C955 C 0.01381 0.58998 0.248 0.0
C956 C 0.0257 0.58279 0.24646 0.0
C957 C 0.9908 0.60255 0.25145 0.0
C958 C 0.98981 0.59034 0.2714 0.0
C959 C 0.00153 0.58446 0.26964 0.0
C960 C 0.97634 0.58279 0.2936 0.0
C961 C 0.97927 0.61014 0.25314 0.0
C962 C 0.98091 0.58242 0.32201 0.0
C963 C 0.9684 0.5731 0.34233 0.0
C964 C 0.95104 0.56407 0.33472 0.0
C965 C 0.94638 0.56509 0.30661 0.0
C966 C 0.95894 0.57422 0.28615 0.0
H967 H 0.98531 0.623 0.24314 0.0
H968 H 0.96725 0.60178 0.24147 0.0
H969 H 0.97602 0.61125 0.27551 0.0
H970 H 0.99424 0.58889 0.32828 0.0
H971 H 0.97238 0.57263 0.36388 0.0
H972 H 0.43133 0.40502 0.3666 0.0
H973 H 0.41523 0.41092 0.33111 0.0
H974 H 0.43071 0.38753 0.26648 0.0
H975 H 0.44634 0.38103 0.30216 0.0
H976 H 0.42901 0.43162 0.2878 0.0
H977 H 0.38145 0.36819 0.24566 0.0
H978 H 0.39323 0.37066 0.27799 0.0
H979 H 0.40277 0.37162 0.24391 0.0
C980 C 0.43103 0.40083 0.34493 0.0
C981 C 0.44013 0.3926 0.33712 0.0
C982 C 0.42181 0.4042 0.32467 0.0
C983 C 0.42158 0.39953 0.29615 0.0
C984 C 0.43029 0.39087 0.28845 0.0
H985 H 0.40722 0.43604 0.13737 0.0
H986 H 0.41242 0.42128 0.1763 0.0
C987 C 0.43934 0.38727 0.30883 0.0
C988 C 0.41391 0.40543 0.27413 0.0
H989 H 0.38705 0.39252 0.21682 0.0
C990 C 0.41961 0.42301 0.27261 0.0
C991 C 0.40168 0.3942 0.25423 0.0
C992 C 0.3943 0.3751 0.25569 0.0
C993 C 0.41387 0.42973 0.25124 0.0
C994 C 0.40209 0.41859 0.23087 0.0
C995 C 0.3961 0.40098 0.23256 0.0
C996 C 0.39684 0.42534 0.20666 0.0
C997 C 0.42088 0.44879 0.24993 0.0
C998 C 0.386 0.4321 0.21077 0.0
C999 C 0.38295 0.44052 0.18853 0.0
C1000 C 0.39082 0.44239 0.16195 0.0
C1001 C 0.40106 0.43491 0.15764 0.0
C1002 C 0.40399 0.42641 0.1798 0.0
H1003 H 0.43142 0.45586 0.26538 0.0
H1004 H 0.42568 0.45365 0.22822 0.0
H1005 H 0.4105 0.4516 0.25472 0.0
H1006 H 0.38036 0.43135 0.23143 0.0
H1007 H 0.37498 0.44612 0.19249 0.0
H1008 H 0.55765 0.93124 0.19399 0.0
H1009 H 0.57231 0.9516 0.23271 0.0
H1010 H 0.58204 0.99341 0.17702 0.0
H1011 H 0.56737 0.97325 0.1383 0.0
H1012 H 0.61092 0.99666 0.21907 0.0
H1013 H 0.54699 0.97842 0.26438 0.0
H1014 H 0.55118 0.96169 0.25383 0.0
H1015 H 0.54974 0.97517 0.22732 0.0
C1016 C 0.56317 0.94479 0.18984 0.0
C1017 C 0.5612 0.95064 0.16318 0.0
C1018 C 0.57154 0.95637 0.21196 0.0
C1019 C 0.57816 0.97394 0.20763 0.0
C1020 C 0.57703 0.97988 0.18067 0.0
H1021 H 0.62199 0.06784 0.30302 0.0
H1022 H 0.61592 0.04569 0.2676 0.0
C1023 C 0.56858 0.96833 0.15863 0.0
C1024 C 0.58466 0.98599 0.23177 0.0
H1025 H 0.57096 1.00025 0.28729 0.0
C1026 C 0.60227 0.99741 0.23421 0.0
C1027 C 0.57327 0.98684 0.25136 0.0
C1028 C 0.55421 0.97497 0.24923 0.0
C1029 C 0.60882 0.00977 0.2559 0.0
C1030 C 0.59736 0.01099 0.27502 0.0
C1031 C 0.57976 0.99932 0.27272 0.0
C1032 C 0.60304 0.02454 0.29702 0.0
C1033 C 0.62792 0.02125 0.25823 0.0
C1034 C 0.59774 0.02009 0.32532 0.0
C1035 C 0.60085 0.03269 0.3454 0.0
C1036 C 0.60946 0.05004 0.33765 0.0
C1037 C 0.61544 0.05458 0.30965 0.0
C1038 C 0.61209 0.04192 0.28942 0.0
H1039 H 0.63484 0.01514 0.24887 0.0
H1040 H 0.63179 0.03324 0.24631 0.0
H1041 H 0.63197 0.02458 0.28071 0.0
H1042 H 0.59071 0.00678 0.33169 0.0
H1043 H 0.59617 0.02881 0.36687 0.0
H1044 H 0.40479 0.96914 0.6357 0.0
H1045 H 0.40953 0.98886 0.6748 0.0
H1046 H 0.37702 0.94639 0.72899 0.0
H1047 H 0.37209 0.92647 0.68991 0.0
H1048 H 0.3834 0.99161 0.7157 0.0
H1049 H 0.42839 0.97308 0.76309 0.0
H1050 H 0.42289 0.97002 0.72582 0.0
H1051 H 0.40764 0.95637 0.75181 0.0
C1052 C 0.39841 0.96398 0.65578 0.0
C1053 C 0.3882 0.94623 0.65981 0.0
C1054 C 0.40108 0.97528 0.67803 0.0
C1055 C 0.39368 0.96903 0.7047 0.0
C1056 C 0.38283 0.9514 0.70848 0.0
H1057 H 0.42745 0.02221 0.86598 0.0
H1058 H 0.41151 0.00055 0.82993 0.0
C1059 C 0.38004 0.94007 0.68616 0.0
C1060 C 0.39878 0.98084 0.72914 0.0
H1061 H 0.42561 0.99449 0.78618 0.0
C1062 C 0.39251 0.9922 0.73132 0.0
C1063 C 0.41063 0.98149 0.74936 0.0
C1064 C 0.41791 0.96968 0.74755 0.0
C1065 C 0.39787 0.00432 0.75337 0.0
C1066 C 0.41016 0.00533 0.77315 0.0
C1067 C 0.41616 0.99371 0.7711 0.0
C1068 C 0.4176 0.01865 0.79559 0.0
C1069 C 0.39019 0.01576 0.75536 0.0
C1070 C 0.42607 0.0361 0.78846 0.0
C1071 C 0.43502 0.04855 0.80917 0.0
C1072 C 0.43595 0.04373 0.83722 0.0
C1073 C 0.42704 0.02631 0.84449 0.0
C1074 C 0.41791 0.01391 0.82391 0.0
H1075 H 0.37735 0.00974 0.7453 0.0
H1076 H 0.38902 0.01884 0.7778 0.0
H1077 H 0.39853 0.02788 0.74391 0.0
H1078 H 0.42642 0.04009 0.76665 0.0
H1079 H 0.44187 0.06187 0.8029 0.0
H1080 H 0.02852 0.43249 0.63493 0.0
H1081 H 0.00882 0.41751 0.67406 0.0
H1082 H 0.0513 0.42735 0.72811 0.0
H1083 H 0.0712 0.44233 0.68898 0.0
H1084 H 0.00608 0.38854 0.7148 0.0
H1085 H 0.02463 0.45203 0.76241 0.0
H1086 H 0.02765 0.44964 0.72511 0.0
H1087 H 0.0413 0.44796 0.751 0.0
C1088 C 0.03369 0.43125 0.65499 0.0
C1089 C 0.05143 0.43874 0.65896 0.0
C1090 C 0.0224 0.42262 0.67725 0.0
C1091 C 0.02866 0.42142 0.70388 0.0
C1092 C 0.04628 0.42817 0.70762 0.0
H1093 H 0.97462 0.40207 0.86434 0.0
H1094 H 0.99653 0.40766 0.82885 0.0
C1095 C 0.05761 0.43672 0.68527 0.0
C1096 C 0.01684 0.41468 0.72832 0.0
H1097 H 0.00299 0.42783 0.78513 0.0
C1098 C 0.00545 0.39705 0.73041 0.0
C1099 C 0.01614 0.42587 0.74852 0.0
C1100 C 0.02799 0.44496 0.7468 0.0
C1101 C 0.99324 0.39028 0.75231 0.0
C1102 C 0.99215 0.40155 0.77203 0.0
C1103 C 0.00382 0.41917 0.7701 0.0
C1104 C 0.97867 0.39567 0.79419 0.0
C1105 C 0.98176 0.37116 0.7542 0.0
C1106 C 0.96127 0.38674 0.78671 0.0
C1107 C 0.94868 0.38331 0.80712 0.0
C1108 C 0.95331 0.3891 0.83519 0.0
C1109 C 0.97067 0.39754 0.84283 0.0
C1110 C 0.9832 0.40073 0.82256 0.0
H1111 H 0.98784 0.36434 0.74437 0.0
H1112 H 0.9785 0.36688 0.7766 0.0
H1113 H 0.96974 0.36741 0.74246 0.0
H1114 H 0.95744 0.3831 0.76485 0.0
H1115 H 0.93541 0.37689 0.80058 0.0
H1116 H 0.63434 0.57024 0.81958 0.0
H1117 H 0.63148 0.58863 0.78422 0.0
H1118 H 0.57888 0.56855 0.80922 0.0
H1119 H 0.58194 0.55101 0.84528 0.0
H1120 H 0.61338 0.58106 0.73953 0.0
H1121 H 0.5925 0.61723 0.80575 0.0
H1122 H 0.60093 0.60468 0.82117 0.0
H1123 H 0.57849 0.59498 0.81256 0.0
C1124 C 0.62227 0.57002 0.81779 0.0
C1125 C 0.6084 0.55929 0.83533 0.0
C1126 C 0.62065 0.58053 0.79761 0.0
C1127 C 0.60508 0.58035 0.79444 0.0
C1128 C 0.59123 0.56952 0.81191 0.0
H1129 H 0.55579 0.58488 0.64702 0.0
H1130 H 0.57198 0.58035 0.68383 0.0
C1131 C 0.59295 0.55932 0.83238 0.0
C1132 C 0.6026 0.59013 0.7713 0.0
H1133 H 0.582 0.61222 0.75657 0.0
C1134 C 0.60687 0.58821 0.74337 0.0
C1135 C 0.59466 0.60003 0.77611 0.0
C1136 C 0.59161 0.60451 0.8056 0.0
C1137 C 0.60213 0.59464 0.7201 0.0
C1138 C 0.59216 0.60253 0.72476 0.0
C1139 C 0.58921 0.60576 0.75278 0.0
C1140 C 0.58332 0.60596 0.70118 0.0
C1141 C 0.60768 0.59266 0.69077 0.0
C1142 C 0.5837 0.62169 0.69913 0.0
C1143 C 0.57396 0.62414 0.67847 0.0
C1144 C 0.56381 0.61096 0.65934 0.0
C1145 C 0.56367 0.59537 0.66116 0.0
C1146 C 0.57311 0.59283 0.68208 0.0
H1147 H 0.62035 0.59344 0.69158 0.0
H1148 H 0.59839 0.57986 0.68226 0.0
H1149 H 0.60851 0.60259 0.67591 0.0
H1150 H 0.59134 0.63198 0.71376 0.0
H1151 H 0.57428 0.63628 0.67757 0.0
H1152 H 0.17192 0.0068 0.97373 0.0
H1153 H 0.18162 0.03504 0.99405 0.0
H1154 H 0.22782 0.03706 0.02338 0.0
H1155 H 0.21819 0.00866 0.00292 0.0
H1156 H 0.19232 0.04797 0.05167 0.0
H1157 H 0.24385 0.07977 0.97066 0.0
H1158 H 0.22636 0.0582 0.96619 0.0
H1159 H 0.24322 0.06253 0.99081 0.0
C1160 C 0.18407 0.01314 0.98476 0.0
C1161 C 0.19435 0.00555 0.98653 0.0
C1162 C 0.18957 0.02926 0.9964 0.0
C1163 C 0.20551 0.03819 0.00986 0.0
C1164 C 0.21555 0.03042 0.01274 0.0
H1165 H 0.25511 0.14718 0.05465 0.0
H1166 H 0.24971 0.11789 0.04951 0.0
C1167 C 0.20999 0.01418 0.0012 0.0
C1168 C 0.21176 0.05595 0.01948 0.0
H1169 H 0.23948 0.09751 0.00177 0.0
C1170 C 0.20277 0.05882 0.04104 0.0
C1171 C 0.22543 0.07005 0.0056 0.0
C1172 C 0.23528 0.06762 0.9819 0.0
C1173 C 0.2068 0.07545 0.04862 0.0
C1174 C 0.21991 0.08954 0.03375 0.0
C1175 C 0.2294 0.08669 0.01305 0.0
C1176 C 0.22313 0.10718 0.03785 0.0
C1177 C 0.19688 0.07777 0.0723 0.0
C1178 C 0.21005 0.11091 0.03254 0.0
C1179 C 0.21307 0.12758 0.03545 0.0
C1180 C 0.2293 0.14093 0.04348 0.0
C1181 C 0.24245 0.1372 0.0485 0.0
C1182 C 0.23939 0.12047 0.04561 0.0
H1183 H 0.19155 0.06676 0.08722 0.0
H1184 H 0.20501 0.08967 0.08447 0.0
H1185 H 0.18601 0.0786 0.06309 0.0
H1186 H 0.19753 0.10095 0.02578 0.0
H1187 H 0.20267 0.12998 0.03122 0.0
H1188 H 0.99067 0.20754 0.00015 0.0
H1189 H 0.96227 0.18813 0.02004 0.0
H1190 H 0.96711 0.1448 0.99517 0.0
H1191 H 0.99532 0.16396 0.97536 0.0
H1192 H 0.93449 0.16273 0.9871 0.0
H1193 H 0.94997 0.13385 0.07799 0.0
H1194 H 0.96553 0.1538 0.06187 0.0
H1195 H 0.9604 0.13379 0.04554 0.0
C1196 C 0.9858 0.19388 -0.00057 0.0
C1197 C 0.99522 0.18727 0.98618 0.0
C1198 C 0.96958 0.18284 0.01071 0.0
C1199 C 0.96269 0.16506 0.00934 0.0
C1200 C 0.97231 0.15848 -0.00309 0.0
H1201 H 0.87091 0.06999 0.02784 0.0
H1202 H 0.8997 0.09422 0.02139 0.0
C1203 C 0.9884 0.16947 0.98545 0.0
C1204 C 0.94491 0.15318 0.01854 0.0
H1205 H 0.92115 0.11848 0.06074 0.0
C1206 C 0.93151 0.15324 0.00356 0.0
C1207 C 0.94113 0.14081 0.03993 0.0
C1208 C 0.95501 0.14061 0.05747 0.0
C1209 C 0.91441 0.14062 0.00831 0.0
C1210 C 0.91067 0.12784 0.02901 0.0
C1211 C 0.92405 0.12824 0.04479 0.0
C1212 C 0.8931 0.11332 0.03335 0.0
C1213 C 0.90062 0.14055 0.99012 0.0
C1214 C 0.87983 0.11601 0.04243 0.0
C1215 C 0.86327 0.10216 0.04599 0.0
C1216 C 0.85973 0.08536 0.04076 0.0
C1217 C 0.87314 0.08274 0.03201 0.0
C1218 C 0.88964 0.09658 0.02837 0.0
H1219 H 0.90597 0.14895 0.9712 0.0
H1220 H 0.89141 0.1274 0.9828 0.0
H1221 H 0.89347 0.14526 0.00286 0.0
H1222 H 0.88229 0.12881 0.04691 0.0
H1223 H 0.85328 0.10462 0.05297 0.0
H1224 H 0.78898 0.77875 -0.0012 0.0
H1225 H 0.80832 0.76982 0.01924 0.0
H1226 H 0.85173 0.8177 0.99342 0.0
H1227 H 0.83265 0.82668 0.97312 0.0
H1228 H 0.83347 0.76689 0.98697 0.0
H1229 H 0.86295 0.81233 0.07623 0.0
H1230 H 0.84302 0.80795 0.06005 0.0
H1231 H 0.86305 0.8226 0.0435 0.0
C1232 C 0.80264 0.78749 -0.00199 0.0
C1233 C 0.8093 0.80341 0.98435 0.0
C1234 C 0.81365 0.78235 0.0096 0.0
C1235 C 0.83144 0.79318 0.00811 0.0
C1236 C 0.83805 0.80927 0.99527 0.0
H1237 H 0.92678 0.79748 0.02405 0.0
H1238 H 0.90215 0.80143 0.01787 0.0
C1239 C 0.82711 0.81434 0.98352 0.0
C1240 C 0.84329 0.78732 0.01759 0.0
H1241 H 0.87848 0.799 0.05891 0.0
C1242 C 0.84312 0.77365 0.0031 0.0
C1243 C 0.85586 0.79622 0.03858 0.0
C1244 C 0.85617 0.81049 0.0557 0.0
C1245 C 0.85583 0.76931 0.00784 0.0
C1246 C 0.86885 0.77872 0.02796 0.0
C1247 C 0.86855 0.79187 0.04337 0.0
C1248 C 0.88358 0.77597 0.03191 0.0
C1249 C 0.85577 0.75533 0.99018 0.0
C1250 C 0.88131 0.76034 0.04198 0.0
C1251 C 0.89539 0.75799 0.04542 0.0
C1252 C 0.91201 0.77129 0.03904 0.0
C1253 C 0.91419 0.78695 0.02913 0.0
C1254 C 0.90013 0.78926 0.02565 0.0
H1255 H 0.8469 0.7517 0.9718 0.0
H1256 H 0.8688 0.75936 0.98212 0.0
H1257 H 0.85161 0.7438 0.0036 0.0
H1258 H 0.86867 0.75002 0.04738 0.0
H1259 H 0.89326 0.74581 0.05327 0.0
H1260 H 0.15065 0.25649 0.43772 0.0
H1261 H 0.12173 0.252 0.44342 0.0
H1262 H 0.1037 0.19993 0.4693 0.0
H1263 H 0.13239 0.20416 0.46328 0.0
H1264 H 0.08273 0.20321 0.4289 0.0
H1265 H 0.09761 0.24844 0.51902 0.0
H1266 H 0.11046 0.25716 0.48765 0.0
H1267 H 0.11201 0.24114 0.50792 0.0
C1268 C 0.14054 0.24409 0.44472 0.0
C1269 C 0.14387 0.2307 0.45016 0.0
C1270 C 0.12404 0.24158 0.44806 0.0
C1271 C 0.11062 0.22569 0.45709 0.0
C1272 C 0.11389 0.2123 0.46234 0.0
H1273 H 0.00825 0.17383 0.51309 0.0
H1274 H 0.03647 0.18308 0.49325 0.0
C1275 C 0.13033 0.21477 0.45896 0.0
C1276 C 0.09309 0.2228 0.46106 0.0
H1277 H 0.06916 0.23371 0.50294 0.0
C1278 C 0.07977 0.20998 0.44492 0.0
C1279 C 0.08929 0.23174 0.48182 0.0
C1280 C 0.10303 0.24531 0.5003 0.0
C1281 C 0.0627 0.20554 0.44953 0.0
C1282 C 0.05883 0.21398 0.47108 0.0
C1283 C 0.07219 0.2273 0.48638 0.0
C1284 C 0.04102 0.20799 0.4802 0.0
C1285 C 0.0489 0.19166 0.43158 0.0
C1286 C 0.03419 0.21894 0.47947 0.0
C1287 C 0.01795 0.21365 0.49081 0.0
C1288 C 0.00846 0.19744 0.50345 0.0
C1289 C 0.01521 0.18639 0.50348 0.0
C1290 C 0.03132 0.19162 0.49199 0.0
H1291 H 0.05403 0.19026 0.41093 0.0
H1292 H 0.04354 0.17929 0.44304 0.0
H1293 H 0.03834 0.19431 0.42743 0.0
H1294 H 0.04156 0.23168 0.47066 0.0
H1295 H 0.01314 0.22249 0.49065 0.0
H1296 H 0.78354 0.79358 0.49049 0.0
H1297 H 0.77467 0.81307 0.47055 0.0
H1298 H 0.82221 0.8563 0.49801 0.0
H1299 H 0.83114 0.83706 0.51789 0.0
H1300 H 0.77155 0.83796 0.50396 0.0
H1301 H 0.81722 0.86816 0.41505 0.0
H1302 H 0.81269 0.84803 0.43065 0.0
H1303 H 0.82722 0.86785 0.44787 0.0
C1304 C 0.79223 0.80724 0.49177 0.0
C1305 C 0.80803 0.81379 0.50577 0.0
C1306 C 0.78712 0.81834 0.48045 0.0
C1307 C 0.79787 0.83611 0.48255 0.0
C1308 C 0.81386 0.84263 0.49572 0.0
H1309 H 0.80067 0.93099 0.46535 0.0
H1310 H 0.80535 0.90683 0.47162 0.0
C1311 C 0.81889 0.8316 0.50722 0.0
C1312 C 0.79198 0.84799 0.47333 0.0
H1313 H 0.80327 0.88309 0.43199 0.0
C1314 C 0.77825 0.84765 0.48786 0.0
C1315 C 0.80081 0.86062 0.45241 0.0
C1316 C 0.81521 0.86114 0.43538 0.0
C1317 C 0.77371 0.86022 0.48313 0.0
C1318 C 0.78296 0.87325 0.46291 0.0
C1319 C 0.79624 0.87315 0.44757 0.0
C1320 C 0.77984 0.88773 0.45869 0.0
C1321 C 0.75967 0.85997 0.50088 0.0
C1322 C 0.76396 0.88503 0.44912 0.0
C1323 C 0.76119 0.89885 0.44567 0.0
C1324 C 0.77432 0.91563 0.45148 0.0
C1325 C 0.79026 0.91826 0.46072 0.0
C1326 C 0.79298 0.90446 0.46426 0.0
H1327 H 0.75643 0.85139 0.51959 0.0
H1328 H 0.7634 0.87302 0.50848 0.0
H1329 H 0.74798 0.8553 0.48771 0.0
H1330 H 0.75374 0.87225 0.44418 0.0
H1331 H 0.7488 0.89638 0.43831 0.0
H1332 H 0.10793 0.85362 0.44018 0.0
H1333 H 0.13229 0.88212 0.45002 0.0
H1334 H 0.09783 0.89863 0.48021 0.0
H1335 H 0.07349 0.87034 0.47063 0.0
H1336 H 0.13867 0.91532 0.4289 0.0
H1337 H 0.13237 0.90941 0.54624 0.0
H1338 H 0.12257 0.89113 0.52281 0.0
H1339 H 0.11283 0.90408 0.52809 0.0
C1340 C 0.10554 0.86332 0.44895 0.0
C1341 C 0.08875 0.85965 0.45478 0.0
C1342 C 0.11947 0.87958 0.45448 0.0
C1343 C 0.11684 0.89237 0.46614 0.0
C1344 C 0.10012 0.88884 0.47159 0.0
H1345 H 0.16906 0.99521 0.52262 0.0
H1346 H 0.14944 0.96633 0.50596 0.0
C1347 C 0.08622 0.87266 0.46601 0.0
C1348 C 0.13146 0.90948 0.47285 0.0
H1349 H 0.15008 0.93744 0.52772 0.0
C1350 C 0.14137 0.92014 0.45051 0.0
C1351 C 0.13495 0.91562 0.50108 0.0
C1352 C 0.12524 0.90443 0.526 0.0
C1353 C 0.15415 0.93716 0.45559 0.0
C1354 C 0.15714 0.94349 0.48374 0.0
C1355 C 0.14766 0.93258 0.50613 0.0
C1356 C 0.16927 0.96163 0.49058 0.0
C1357 C 0.16384 0.94846 0.43081 0.0
C1358 C 0.18697 0.9687 0.48692 0.0
C1359 C 0.19831 0.98533 0.49639 0.0
C1360 C 0.19207 0.99503 0.50983 0.0
C1361 C 0.17431 0.98808 0.51246 0.0
C1362 C 0.16305 0.97155 0.50297 0.0
H1363 H 0.15798 0.94252 0.4101 0.0
H1364 H 0.1644 0.961 0.43248 0.0
H1365 H 0.17716 0.95089 0.43109 0.0
H1366 H 0.19204 0.96115 0.47775 0.0
H1367 H 0.21192 0.99031 0.49421 0.0
H1368 H 0.78183 0.98948 0.98976 0.0
H1369 H 0.77239 0.9611 0.96937 0.0
H1370 H 0.81845 0.96321 -0.00028 0.0
H1371 H 0.82796 0.99143 0.01999 0.0
H1372 H 0.80826 0.95057 0.94181 0.0
H1373 H 0.7561 0.91812 0.0216 0.0
H1374 H 0.75683 0.93546 0.00159 0.0
H1375 H 0.7735 0.9397 0.02655 0.0
C1376 C 0.79003 0.98398 0.99176 0.0
C1377 C 0.80558 0.99264 0.00666 0.0
C1378 C 0.78458 0.96775 0.98024 0.0
C1379 C 0.79464 0.96002 0.98339 0.0
C1380 C 0.81048 0.96896 -0.00284 0.0
H1381 H 0.79783 0.86839 0.96076 0.0
H1382 H 0.80291 0.89736 0.96692 0.0
C1383 C 0.81588 0.98507 0.00878 0.0
C1384 C 0.78856 0.94232 0.97358 0.0
H1385 H 0.76077 0.90062 0.99038 0.0
C1386 C 0.79775 0.93963 0.95216 0.0
C1387 C 0.7748 0.92811 0.98708 0.0
C1388 C 0.76473 0.93036 0.01061 0.0
C1389 C 0.79382 0.92306 0.94434 0.0
C1390 C 0.78061 0.90886 0.95882 0.0
C1391 C 0.77094 0.91154 0.9794 0.0
C1392 C 0.77742 0.89125 0.95438 0.0
C1393 C 0.80395 0.92094 0.9208 0.0
C1394 C 0.76122 0.87804 0.94612 0.0
C1395 C 0.7582 0.86135 0.94282 0.0
C1396 C 0.77131 0.85757 0.94791 0.0
C1397 C 0.78746 0.87084 0.95646 0.0
C1398 C 0.79045 0.88747 0.95978 0.0
H1399 H 0.80941 0.93208 0.90612 0.0
H1400 H 0.81474 0.92004 0.93018 0.0
H1401 H 0.79592 0.90915 0.90832 0.0
H1402 H 0.75094 0.88066 0.94213 0.0
H1403 H 0.7456 0.85143 0.93627 0.0
H1404 H 0.14706 0.89386 0.93913 0.0
H1405 H 0.11797 0.86958 0.94406 0.0
H1406 H 0.09979 0.90411 0.96574 0.0
H1407 H 0.12863 0.92838 0.96054 0.0
H1408 H 0.09711 0.85944 0.99159 0.0
H1409 H 0.06655 0.87499 0.90356 0.0
H1410 H 0.08947 0.8848 0.90702 0.0
H1411 H 0.07795 0.89261 0.92745 0.0
C1412 C 0.13686 0.89629 0.9448 0.0
C1413 C 0.14019 0.9131 0.94931 0.0
C1414 C 0.12025 0.8824 0.94757 0.0
C1415 C 0.10667 0.88507 0.95469 0.0
C1416 C 0.10999 0.90179 0.9595 0.0
H1417 H 0.00533 0.8345 0.0146 0.0
H1418 H 0.0337 0.8533 0.99498 0.0
C1419 C 0.12655 0.91565 0.95674 0.0
C1420 C 0.08913 0.87041 0.95854 0.0
H1421 H 0.04763 0.85536 0.93884 0.0
C1422 C 0.0863 0.85833 0.97972 0.0
C1423 C 0.07508 0.86896 0.9429 0.0
C1424 C 0.07741 0.88093 0.91876 0.0
C1425 C 0.06969 0.84544 0.98685 0.0
C1426 C 0.0556 0.84452 0.97213 0.0
C1427 C 0.05847 0.85613 0.95011 0.0
C1428 C 0.03779 0.83277 0.98127 0.0
C1429 C 0.06727 0.83348 0.01108 0.0
C1430 C 0.03048 0.81495 0.97931 0.0
C1431 C 0.01417 0.8041 0.99048 0.0
C1432 C 0.00499 0.81095 0.00383 0.0
C1433 C 0.0121 0.8288 0.0046 0.0
C1434 C 0.0283 0.83958 0.99336 0.0
H1435 H 0.07932 0.83754 0.02301 0.0
H1436 H 0.05744 0.83274 0.02611 0.0
H1437 H 0.06274 0.82045 0.00257 0.0
H1438 H 0.03754 0.80946 0.9697 0.0
H1439 H 0.00902 0.79041 0.98953 0.0
H1440 H 0.16772 0.17148 0.0184 0.0
H1441 H 0.14841 0.18025 -0.00167 0.0
H1442 H 0.19153 0.22801 0.9713 0.0
H1443 H 0.21109 0.21928 0.99145 0.0
H1444 H 0.16644 0.23088 0.00444 0.0
H1445 H 0.13667 0.18526 0.91541 0.0
H1446 H 0.13695 0.1752 0.94817 0.0
H1447 H 0.15679 0.18988 0.93114 0.0
C1448 C 0.17314 0.18374 0.00778 0.0
C1449 C 0.19094 0.1947 0.00652 0.0
C1450 C 0.16207 0.18869 0.99617 0.0
C1451 C 0.16854 0.20469 0.98307 0.0
C1452 C 0.18631 0.21555 0.98115 0.0
H1453 H 0.10708 0.2525 0.93887 0.0
H1454 H 0.1315 0.24802 0.94472 0.0
C1455 C 0.19745 0.21053 0.99258 0.0
C1456 C 0.15659 0.21047 0.97379 0.0
H1457 H 0.12136 0.1988 0.9326 0.0
C1458 C 0.15677 0.22411 0.98835 0.0
C1459 C 0.14398 0.20155 0.95288 0.0
C1460 C 0.14364 0.18726 0.93579 0.0
C1461 C 0.14404 0.22845 0.98371 0.0
C1462 C 0.13102 0.21908 0.96356 0.0
C1463 C 0.1313 0.20591 0.94814 0.0
C1464 C 0.11637 0.22194 0.95949 0.0
C1465 C 0.14412 0.2424 0.00148 0.0
C1466 C 0.09974 0.20865 0.96528 0.0
C1467 C 0.08577 0.2111 0.96179 0.0
C1468 C 0.08813 0.22692 0.95235 0.0
C1469 C 0.10482 0.2402 0.94638 0.0
C1470 C 0.1188 0.2377 0.9498 0.0
H1471 H 0.15281 0.24581 0.02007 0.0
H1472 H 0.14855 0.25404 0.98826 0.0
H1473 H 0.13106 0.23847 0.00926 0.0
H1474 H 0.09758 0.19638 0.97275 0.0
H1475 H 0.07312 0.20058 0.96654 0.0
H1476 H 0.99646 0.83007 0.47843 0.0
H1477 H 0.96826 0.8209 0.4983 0.0
H1478 H 0.96245 0.77174 0.51883 0.0
H1479 H 0.99085 0.78086 0.49883 0.0
H1480 H 0.93513 0.77059 0.48677 0.0
H1481 H 0.95049 0.81278 0.58062 0.0
H1482 H 0.96119 0.8241 0.54886 0.0
H1483 H 0.96604 0.80866 0.56373 0.0
C1484 C 0.98934 0.8174 0.48759 0.0
C1485 C 0.99588 0.80618 0.48704 0.0
C1486 C 0.97325 0.81221 0.4991 0.0
C1487 C 0.96335 0.79572 0.51032 0.0
C1488 C 0.96997 0.78458 0.51046 0.0
H1489 H 0.85365 0.74765 0.55167 0.0
H1490 H 0.88249 0.75197 0.54605 0.0
C1491 C 0.98619 0.78982 0.49911 0.0
C1492 C 0.94556 0.78982 0.51943 0.0
H1493 H 0.92186 0.80037 0.56255 0.0
C1494 C 0.93215 0.77683 0.5037 0.0
C1495 C 0.94178 0.79805 0.54146 0.0
C1496 C 0.95563 0.81156 0.55984 0.0
C1497 C 0.9151 0.77255 0.50831 0.0
C1498 C 0.91139 0.78128 0.5296 0.0
C1499 C 0.92475 0.79375 0.54614 0.0
C1500 C 0.89392 0.77854 0.53375 0.0
C1501 C 0.90133 0.75937 0.48937 0.0
C1502 C 0.89087 0.79213 0.52932 0.0
C1503 C 0.87446 0.78976 0.53268 0.0
C1504 C 0.86075 0.77372 0.54062 0.0
C1505 C 0.86388 0.76014 0.54533 0.0
C1506 C 0.88035 0.76255 0.54203 0.0
H1507 H 0.90673 0.75649 0.47034 0.0
H1508 H 0.8938 0.74733 0.50147 0.0
H1509 H 0.89246 0.76378 0.4822 0.0
H1510 H 0.90118 0.80458 0.52295 0.0
H1511 H 0.87254 0.80051 0.52893 0.0
H1512 H 0.17371 0.16681 0.46792 0.0
H1513 H 0.18296 0.14723 0.48491 0.0
H1514 H 0.23011 0.18987 0.51514 0.0
H1515 H 0.22082 0.20968 0.49843 0.0
H1516 H 0.21245 0.14797 0.46442 0.0
H1517 H 0.21461 0.15568 0.58198 0.0
H1518 H 0.20289 0.16234 0.55927 0.0
H1519 H 0.22575 0.17501 0.56147 0.0
C1520 C 0.18593 0.17206 0.47862 0.0
C1521 C 0.19657 0.18982 0.48175 0.0
C1522 C 0.1912 0.16083 0.48829 0.0
C1523 C 0.20718 0.16708 0.50136 0.0
C1524 C 0.21761 0.18477 0.50549 0.0
H1525 H 0.25635 0.10822 0.55206 0.0
H1526 H 0.25117 0.13191 0.54209 0.0
C1527 C 0.21231 0.19606 0.49587 0.0
C1528 C 0.21329 0.15504 0.50836 0.0
H1529 H 0.22361 0.13716 0.56335 0.0
C1530 C 0.21495 0.14566 0.48605 0.0
C1531 C 0.21671 0.15219 0.53655 0.0
C1532 C 0.21481 0.16172 0.5613 0.0
C1533 C 0.21959 0.13324 0.49119 0.0
C1534 C 0.22243 0.12995 0.51944 0.0
C1535 C 0.22136 0.13971 0.54172 0.0
C1536 C 0.22552 0.11572 0.52623 0.0
C1537 C 0.22135 0.12366 0.46634 0.0
C1538 C 0.21272 0.09881 0.52096 0.0
C1539 C 0.2156 0.08529 0.52661 0.0
C1540 C 0.23136 0.0884 0.53773 0.0
C1541 C 0.2441 0.10538 0.54337 0.0
C1542 C 0.24117 0.11893 0.53778 0.0
H1543 H 0.2232 0.13065 0.44602 0.0
H1544 H 0.23227 0.12144 0.46948 0.0
H1545 H 0.20952 0.11104 0.46444 0.0
H1546 H 0.20047 0.09608 0.51242 0.0
H1547 H 0.20546 0.0724 0.52213 0.0
H1548 H 0.93079 0.13268 0.52371 0.0
H1549 H 0.90642 0.10394 0.51761 0.0
H1550 H 0.87246 0.12119 0.54748 0.0
H1551 H 0.89679 0.15015 0.55326 0.0
H1552 H 0.88307 0.08245 0.55849 0.0
H1553 H 0.85062 0.09763 0.47216 0.0
H1554 H 0.87246 0.11214 0.4824 0.0
H1555 H 0.85517 0.11014 0.50403 0.0
C1556 C 0.91815 0.13043 0.52889 0.0
C1557 C 0.91575 0.14377 0.53885 0.0
C1558 C 0.90423 0.11397 0.52545 0.0
C1559 C 0.88762 0.11047 0.53182 0.0
C1560 C 0.88514 0.12368 0.54197 0.0
H1561 H 0.79324 0.0126 0.50085 0.0
H1562 H 0.81273 0.04101 0.52066 0.0
C1563 C 0.89908 0.14021 0.54536 0.0
C1564 C 0.87303 0.0929 0.52791 0.0
H1565 H 0.83743 0.06904 0.48756 0.0
C1566 C 0.87301 0.07952 0.54316 0.0
C1567 C 0.85986 0.08914 0.50804 0.0
C1568 C 0.8595 0.10296 0.49051 0.0
C1569 C 0.86041 0.06244 0.5385 0.0
C1570 C 0.84765 0.05863 0.51782 0.0
C1571 C 0.84723 0.07203 0.50345 0.0
C1572 C 0.83577 0.04086 0.50862 0.0
C1573 C 0.86101 0.04857 0.55545 0.0
C1574 C 0.84229 0.0314 0.49547 0.0
C1575 C 0.83126 0.0153 0.48407 0.0
C1576 C 0.81346 0.00833 0.48558 0.0
C1577 C 0.8069 0.0176 0.49952 0.0
C1578 C 0.81799 0.03382 0.51076 0.0
H1579 H 0.86803 0.05359 0.57578 0.0
H1580 H 0.84794 0.03792 0.56019 0.0
H1581 H 0.86779 0.04336 0.54293 0.0
H1582 H 0.85596 0.03672 0.49313 0.0
H1583 H 0.83673 0.00851 0.47343 0.0
H1584 H 0.8689 0.46741 0.35404 0.0
H1585 H 0.8648 0.43897 0.34525 0.0
H1586 H 0.91615 0.45586 0.37388 0.0
H1587 H 0.92043 0.48448 0.38286 0.0
H1588 H 0.88587 0.43143 0.30794 0.0
H1589 H 0.88511 0.41097 0.41991 0.0
H1590 H 0.88121 0.42816 0.4108 0.0
H1591 H 0.90251 0.43151 0.40937 0.0
C1592 C 0.87933 0.46512 0.3586 0.0
C1593 C 0.895 0.47825 0.36919 0.0
C1594 C 0.87695 0.44884 0.35356 0.0
C1595 C 0.8901 0.4453 0.35921 0.0
C1596 C 0.90577 0.45831 0.36978 0.0
H1597 H 0.88802 0.34794 0.33147 0.0
H1598 H 0.89693 0.37725 0.34671 0.0
C1599 C 0.90821 0.47466 0.37474 0.0
C1600 C 0.88747 0.42809 0.35291 0.0
H1601 H 0.88145 0.39126 0.38388 0.0
C1602 C 0.885 0.42268 0.32451 0.0
C1603 C 0.88651 0.4168 0.37459 0.0
C1604 C 0.88887 0.42202 0.40545 0.0
C1605 C 0.88127 0.40613 0.31721 0.0
C1606 C 0.8796 0.39457 0.33896 0.0
C1607 C 0.88265 0.40015 0.36731 0.0
C1608 C 0.87374 0.37641 0.33256 0.0
C1609 C 0.87909 0.40113 0.28623 0.0
C1610 C 0.85753 0.3661 0.3206 0.0
C1611 C 0.85244 0.34947 0.31188 0.0
C1612 C 0.86342 0.34276 0.31517 0.0
C1613 C 0.8793 0.35277 0.32863 0.0
C1614 C 0.88442 0.3695 0.33729 0.0
H1615 H 0.88548 0.41252 0.27217 0.0
H1616 H 0.88436 0.39261 0.28158 0.0
H1617 H 0.86527 0.39417 0.28091 0.0
H1618 H 0.84896 0.37108 0.31734 0.0
H1619 H 0.84006 0.34205 0.30187 0.0
H1620 H 0.65954 0.50321 0.31276 0.0
H1621 H 0.63148 0.48402 0.33302 0.0
H1622 H 0.62718 0.5273 0.36019 0.0
H1623 H 0.65542 0.54676 0.33972 0.0
H1624 H 0.61779 0.4814 0.3897 0.0
H1625 H 0.58525 0.49917 0.30698 0.0
H1626 H 0.60719 0.50425 0.30337 0.0
H1627 H 0.60181 0.51619 0.32755 0.0
C1628 C 0.65275 0.5087 0.32333 0.0
C1629 C 0.65963 0.52651 0.32443 0.0
C1630 C 0.63672 0.4977 0.33495 0.0
C1631 C 0.62718 0.50424 0.34773 0.0
C1632 C 0.63429 0.52202 0.35007 0.0
H1633 H 0.51804 0.4408 0.38908 0.0
H1634 H 0.54687 0.46558 0.38488 0.0
C1635 C 0.65044 0.5331 0.33854 0.0
C1636 C 0.60946 0.49224 0.35698 0.0
H1637 H 0.56782 0.47668 0.3377 0.0
C1638 C 0.60684 0.48049 0.37862 0.0
C1639 C 0.59522 0.49115 0.34251 0.0
C1640 C 0.59738 0.50326 0.31868 0.0
C1641 C 0.59035 0.46734 0.38565 0.0
C1642 C 0.57617 0.46571 0.37018 0.0
C1643 C 0.57873 0.47793 0.34944 0.0
C1644 C 0.55879 0.45073 0.37369 0.0
C1645 C 0.58829 0.45522 0.40938 0.0
C1646 C 0.5559 0.43421 0.36834 0.0
C1647 C 0.53948 0.42005 0.37068 0.0
C1648 C 0.52556 0.42213 0.37822 0.0
C1649 C 0.52847 0.43873 0.3833 0.0
C1650 C 0.54493 0.45291 0.38095 0.0
H1651 H 0.59909 0.46123 0.42467 0.0
H1652 H 0.57614 0.45092 0.42111 0.0
H1653 H 0.58812 0.4438 0.40028 0.0
H1654 H 0.56632 0.43227 0.36197 0.0
H1655 H 0.53773 0.40749 0.36645 0.0
H1656 H 0.50298 0.16355 0.30106 0.0
H1657 H 0.52194 0.15422 0.32085 0.0
H1658 H 0.47842 0.10849 0.35315 0.0
H1659 H 0.4592 0.11774 0.33326 0.0
H1660 H 0.52504 0.14452 0.379 0.0
H1661 H 0.50453 0.09179 0.30012 0.0
H1662 H 0.50036 0.10919 0.29506 0.0
H1663 H 0.48815 0.09272 0.32047 0.0
C1664 C 0.4974 0.15158 0.31261 0.0
C1665 C 0.47957 0.14132 0.31543 0.0
C1666 C 0.50827 0.14629 0.32394 0.0
C1667 C 0.50155 0.13059 0.33812 0.0
C1668 C 0.48381 0.12057 0.34196 0.0
H1669 H 0.56143 0.08193 0.38524 0.0
H1670 H 0.53752 0.0872 0.37902 0.0
C1671 C 0.47288 0.12591 0.33074 0.0
C1672 C 0.51328 0.1246 0.34765 0.0
H1673 H 0.52706 0.09672 0.33073 0.0
C1674 C 0.52538 0.13395 0.36872 0.0
C1675 C 0.51361 0.11076 0.33423 0.0
C1676 C 0.50107 0.10053 0.31108 0.0
C1677 C 0.53809 0.13007 0.37627 0.0
C1678 C 0.53895 0.11677 0.36187 0.0
C1679 C 0.52641 0.10696 0.34164 0.0
C1680 C 0.55337 0.11357 0.36613 0.0
C1681 C 0.55055 0.14035 0.39948 0.0
C1682 C 0.57016 0.12654 0.3604 0.0
C1683 C 0.58382 0.1236 0.36393 0.0
C1684 C 0.58097 0.10755 0.37302 0.0
C1685 C 0.56409 0.09446 0.37828 0.0
C1686 C 0.55041 0.09744 0.37478 0.0
H1687 H 0.54504 0.14596 0.41418 0.0
H1688 H 0.55439 0.13239 0.41199 0.0
H1689 H 0.56219 0.15105 0.38977 0.0
H1690 H 0.5727 0.13894 0.35295 0.0
H1691 H 0.59662 0.13394 0.35948 0.0
H1692 H 0.80065 0.53705 0.80648 0.0
H1693 H 0.77213 0.53278 0.81509 0.0
H1694 H 0.78841 0.58359 0.78423 0.0
H1695 H 0.81712 0.58805 0.77544 0.0
H1696 H 0.76454 0.55453 0.85128 0.0
H1697 H 0.74338 0.55109 0.73901 0.0
H1698 H 0.76065 0.54744 0.7487 0.0
H1699 H 0.76393 0.56873 0.74889 0.0
C1700 C 0.79821 0.54733 0.8014 0.0
C1701 C 0.81119 0.5629 0.79023 0.0
C1702 C 0.78189 0.54485 0.80634 0.0
C1703 C 0.77815 0.5578 0.80001 0.0
C1704 C 0.79101 0.57336 0.78887 0.0
H1705 H 0.67921 0.55289 0.82615 0.0
H1706 H 0.70873 0.56269 0.811 0.0
C1707 C 0.80742 0.57591 0.78403 0.0
C1708 C 0.76089 0.55504 0.80617 0.0
H1709 H 0.72357 0.54736 0.77488 0.0
C1710 C 0.75562 0.55309 0.83461 0.0
C1711 C 0.74938 0.55334 0.78434 0.0
C1712 C 0.75448 0.55515 0.75345 0.0
C1713 C 0.73897 0.54909 0.84182 0.0
C1714 C 0.72719 0.5466 0.81996 0.0
C1715 C 0.73263 0.5492 0.79154 0.0
C1716 C 0.70893 0.54021 0.82638 0.0
C1717 C 0.73409 0.54742 0.87283 0.0
C1718 C 0.69915 0.52411 0.83901 0.0
C1719 C 0.68242 0.51853 0.84766 0.0
C1720 C 0.67505 0.52889 0.84365 0.0
C1721 C 0.68455 0.54464 0.82956 0.0
C1722 C 0.7014 0.55026 0.82095 0.0
H1723 H 0.74551 0.5544 0.88667 0.0
H1724 H 0.72524 0.55237 0.87692 0.0
H1725 H 0.72754 0.53373 0.87896 0.0
H1726 H 0.70463 0.51601 0.84283 0.0
H1727 H 0.67541 0.50625 0.85818 0.0
H1728 H 0.49074 0.16253 0.85112 0.0
H1729 H 0.48189 0.18169 0.83059 0.0
H1730 H 0.43449 0.13835 0.80296 0.0
H1731 H 0.44326 0.11893 0.82364 0.0
H1732 H 0.47098 0.18375 0.77296 0.0
H1733 H 0.42068 0.16706 0.85531 0.0
H1734 H 0.43761 0.16215 0.8597 0.0
H1735 H 0.42036 0.14983 0.83561 0.0
C1736 C 0.47849 0.15702 0.84044 0.0
C1737 C 0.46763 0.13921 0.83919 0.0
C1738 C 0.47348 0.168 0.82867 0.0
C1739 C 0.45747 0.16142 0.8156 0.0
C1740 C 0.44683 0.14365 0.81328 0.0
H1741 H 0.41205 0.22464 0.77084 0.0
H1742 H 0.416 0.19986 0.77625 0.0
C1743 C 0.45189 0.13259 0.82494 0.0
C1744 C 0.45184 0.17339 0.80579 0.0
H1745 H 0.4259 0.18931 0.82388 0.0
C1746 C 0.46097 0.18484 0.7838 0.0
C1747 C 0.43874 0.17471 0.81996 0.0
C1748 C 0.42878 0.16289 0.84408 0.0
C1749 C 0.45766 0.19792 0.7761 0.0
C1750 C 0.44518 0.19981 0.79127 0.0
C1751 C 0.43551 0.18787 0.81238 0.0
C1752 C 0.44283 0.21478 0.78702 0.0
C1753 C 0.4677 0.2097 0.75198 0.0
C1754 C 0.45653 0.23135 0.79173 0.0
C1755 C 0.45434 0.2455 0.78866 0.0
C1756 C 0.43834 0.24339 0.78107 0.0
C1757 C 0.42456 0.22674 0.77665 0.0
C1758 C 0.42679 0.21256 0.77969 0.0
H1759 H 0.47237 0.20342 0.73703 0.0
H1760 H 0.45987 0.21391 0.73995 0.0
H1761 H 0.47902 0.22119 0.76073 0.0
H1762 H 0.46891 0.23333 0.79815 0.0
H1763 H 0.4652 0.25811 0.79242 0.0
H1764 H 0.77056 0.18259 0.7772 0.0
H1765 H 0.79483 0.21124 0.78629 0.0
H1766 H 0.76029 0.22764 0.81651 0.0
H1767 H 0.73602 0.19918 0.8077 0.0
H1768 H 0.80089 0.24394 0.76433 0.0
H1769 H 0.79531 0.23961 0.88184 0.0
H1770 H 0.78532 0.22102 0.85911 0.0
H1771 H 0.77566 0.23408 0.8639 0.0
C1772 C 0.76812 0.19228 0.78585 0.0
C1773 C 0.75133 0.18854 0.79189 0.0
C1774 C 0.78201 0.20864 0.79094 0.0
C1775 C 0.77934 0.22146 0.80237 0.0
C1776 C 0.76262 0.21783 0.80807 0.0
H1777 H 0.83278 0.32516 0.85569 0.0
H1778 H 0.81269 0.29619 0.83998 0.0
C1779 C 0.74876 0.20155 0.80294 0.0
C1780 C 0.79393 0.23869 0.80847 0.0
H1781 H 0.81296 0.26736 0.86232 0.0
C1782 C 0.80372 0.24905 0.78575 0.0
C1783 C 0.79759 0.24521 0.83647 0.0
C1784 C 0.78804 0.23437 0.86179 0.0
C1785 C 0.81657 0.26611 0.79022 0.0
C1786 C 0.81977 0.27281 0.81813 0.0
C1787 C 0.81038 0.26222 0.8409 0.0
C1788 C 0.83214 0.29098 0.82435 0.0
C1789 C 0.82613 0.27706 0.76502 0.0
C1790 C 0.84977 0.29779 0.82024 0.0
C1791 C 0.86137 0.31448 0.82915 0.0
C1792 C 0.85547 0.32449 0.8425 0.0
C1793 C 0.83777 0.31778 0.84559 0.0
C1794 C 0.82625 0.30121 0.83664 0.0
H1795 H 0.81999 0.27093 0.74455 0.0
H1796 H 0.82696 0.28973 0.76638 0.0
H1797 H 0.83936 0.27923 0.76501 0.0
H1798 H 0.8546 0.29001 0.81115 0.0
H1799 H 0.87493 0.31925 0.82663 0.0
H1800 H 0.41481 0.1886 0.27024 0.0
H1801 H 0.41981 0.21772 0.27561 0.0
H1802 H 0.4725 0.23552 0.29698 0.0
H1803 H 0.46775 0.20664 0.29124 0.0
H1804 H 0.43022 0.238 0.32302 0.0
H1805 H 0.47718 0.26962 0.23652 0.0
H1806 H 0.46418 0.24666 0.23932 0.0
H1807 H 0.48334 0.25809 0.26024 0.0
C1808 C 0.4275 0.19873 0.27589 0.0
C1809 C 0.4409 0.19527 0.28019 0.0
C1810 C 0.43033 0.21536 0.27892 0.0
C1811 C 0.44661 0.22885 0.28611 0.0
C1812 C 0.45995 0.22541 0.29064 0.0
H1813 H 0.4962 0.32932 0.35059 0.0
H1814 H 0.48715 0.30128 0.32997 0.0
C1815 C 0.45716 0.20883 0.28757 0.0
C1816 C 0.44954 0.24638 0.29053 0.0
H1817 H 0.47623 0.28813 0.27242 0.0
C1818 C 0.44005 0.24895 0.3116 0.0
C1819 C 0.46232 0.26063 0.27549 0.0
C1820 C 0.47222 0.25861 0.25143 0.0
C1821 C 0.44368 0.26547 0.31918 0.0
C1822 C 0.45702 0.27974 0.30508 0.0
C1823 C 0.46603 0.27714 0.28321 0.0
C1824 C 0.46289 0.29742 0.31472 0.0
C1825 C 0.43384 0.2676 0.34322 0.0
C1826 C 0.45243 0.30475 0.31221 0.0
C1827 C 0.45761 0.32088 0.32392 0.0
C1828 C 0.47329 0.32984 0.33839 0.0
C1829 C 0.48401 0.32272 0.33973 0.0
C1830 C 0.47888 0.30671 0.32791 0.0
H1831 H 0.42561 0.25539 0.35458 0.0
H1832 H 0.44275 0.27716 0.35876 0.0
H1833 H 0.42555 0.27235 0.33463 0.0
H1834 H 0.44011 0.29783 0.30179 0.0
H1835 H 0.44908 0.32603 0.32254 0.0
H1836 H 0.8166 0.22935 0.2756 0.0
H1837 H 0.78783 0.20527 0.28466 0.0
H1838 H 0.77159 0.24028 0.31309 0.0
H1839 H 0.80017 0.26436 0.30424 0.0
H1840 H 0.76378 0.21167 0.3506 0.0
H1841 H 0.74296 0.19188 0.23879 0.0
H1842 H 0.76342 0.19479 0.24931 0.0
H1843 H 0.76033 0.2129 0.24771 0.0
C1844 C 0.80689 0.23194 0.2837 0.0
C1845 C 0.8107 0.24881 0.28918 0.0
C1846 C 0.79045 0.21816 0.28869 0.0
C1847 C 0.77758 0.22105 0.29924 0.0
C1848 C 0.78135 0.23782 0.3048 0.0
H1849 H 0.67456 0.17013 0.35682 0.0
H1850 H 0.70366 0.1896 0.34088 0.0
C1851 C 0.79771 0.25157 0.29973 0.0
C1852 C 0.7603 0.20665 0.30567 0.0
H1853 H 0.72314 0.17627 0.27495 0.0
C1854 C 0.75493 0.20385 0.33409 0.0
C1855 C 0.74887 0.1964 0.28406 0.0
C1856 C 0.75405 0.19911 0.25319 0.0
C1857 C 0.73829 0.19129 0.34149 0.0
C1858 C 0.7266 0.18152 0.31982 0.0
C1859 C 0.73213 0.18386 0.29145 0.0
C1860 C 0.70837 0.16961 0.32634 0.0
C1861 C 0.73331 0.18866 0.37249 0.0
C1862 C 0.70109 0.15193 0.32214 0.0
C1863 C 0.68431 0.1407 0.33109 0.0
C1864 C 0.67464 0.14704 0.34431 0.0
C1865 C 0.68172 0.16481 0.347 0.0
C1866 C 0.69838 0.17597 0.33801 0.0
H1867 H 0.74469 0.19352 0.38653 0.0
H1868 H 0.72657 0.19574 0.3777 0.0
H1869 H 0.72459 0.17492 0.37726 0.0
H1870 H 0.70858 0.14681 0.31295 0.0
H1871 H 0.6792 0.12707 0.3287 0.0
H1872 H 0.87303 0.55508 0.32569 0.0
H1873 H 0.85278 0.56398 0.30951 0.0
H1874 H 0.81071 0.51609 0.33865 0.0
H1875 H 0.83069 0.50721 0.35503 0.0
H1876 H 0.82329 0.54818 0.27173 0.0
H1877 H 0.8059 0.55306 0.38301 0.0
H1878 H 0.82472 0.55189 0.37399 0.0
H1879 H 0.80408 0.53281 0.37467 0.0
C1880 C 0.85945 0.54637 0.32828 0.0
C1881 C 0.85346 0.53053 0.34193 0.0
C1882 C 0.84792 0.55148 0.31907 0.0
C1883 C 0.8303 0.54082 0.32345 0.0
C1884 C 0.82429 0.52464 0.33561 0.0
H1885 H 0.73532 0.53842 0.30217 0.0
H1886 H 0.75905 0.53332 0.31075 0.0
C1887 C 0.83574 0.51956 0.34486 0.0
C1888 C 0.81808 0.54671 0.31659 0.0
H1889 H 0.78779 0.55372 0.34685 0.0
C1890 C 0.81565 0.5496 0.28811 0.0
C1891 C 0.80824 0.54866 0.3381 0.0
C1892 C 0.81095 0.54661 0.36919 0.0
C1893 C 0.80301 0.55362 0.28046 0.0
C1894 C 0.79276 0.55494 0.30193 0.0
C1895 C 0.79559 0.55257 0.33044 0.0
C1896 C 0.77851 0.55804 0.29534 0.0
C1897 C 0.80025 0.5558 0.24948 0.0
C1898 C 0.78163 0.57369 0.28394 0.0
C1899 C 0.76807 0.5767 0.27907 0.0
C1900 C 0.75117 0.5641 0.28558 0.0
C1901 C 0.74815 0.54841 0.29688 0.0
C1902 C 0.76169 0.54545 0.3018 0.0
H1903 H 0.80711 0.55138 0.2353 0.0
H1904 H 0.78642 0.54862 0.24421 0.0
H1905 H 0.80504 0.56952 0.24504 0.0
H1906 H 0.79457 0.58368 0.27925 0.0
H1907 H 0.77086 0.58894 0.2704 0.0
H1908 H 0.65794 0.15843 0.8096 0.0
H1909 H 0.62897 0.14891 0.82607 0.0
H1910 H 0.62355 0.10059 0.85161 0.0
H1911 H 0.65279 0.11013 0.83537 0.0
H1912 H 0.60036 0.11995 0.80271 0.0
H1913 H 0.60409 0.1144 0.92005 0.0
H1914 H 0.62282 0.12691 0.8984 0.0
H1915 H 0.61267 0.10402 0.89848 0.0
C1916 C 0.65073 0.14588 0.81916 0.0
C1917 C 0.65764 0.135 0.82107 0.0
C1918 C 0.63416 0.14046 0.82855 0.0
C1919 C 0.62413 0.12408 0.84011 0.0
C1920 C 0.63117 0.11338 0.84311 0.0
H1921 H 0.51537 0.07509 0.88655 0.0
H1922 H 0.54423 0.07999 0.87752 0.0
C1923 C 0.64785 0.11884 0.83376 0.0
C1924 C 0.60591 0.1179 0.84659 0.0
H1925 H 0.57702 0.10659 0.90071 0.0
C1926 C 0.59524 0.11695 0.82413 0.0
C1927 C 0.59924 0.11383 0.87449 0.0
C1928 C 0.61026 0.11491 0.89936 0.0
C1929 C 0.57818 0.11242 0.82888 0.0
C1930 C 0.57167 0.10899 0.85689 0.0
C1931 C 0.58211 0.10931 0.87927 0.0
C1932 C 0.55438 0.10608 0.86337 0.0
C1933 C 0.56726 0.11145 0.80387 0.0
C1934 C 0.55067 0.11922 0.85881 0.0
C1935 C 0.53427 0.1165 0.86392 0.0
C1936 C 0.52124 0.10056 0.87378 0.0
C1937 C 0.52509 0.08748 0.87883 0.0
C1938 C 0.54156 0.09026 0.87377 0.0
H1939 H 0.57258 0.10993 0.78349 0.0
H1940 H 0.55399 0.10063 0.80626 0.0
H1941 H 0.56675 0.12346 0.80266 0.0
H1942 H 0.56047 0.1316 0.85117 0.0
H1943 H 0.53182 0.12689 0.85994 0.0
H1944 H 0.84064 0.4989 0.80401 0.0
H1945 H 0.84969 0.47896 0.81984 0.0
H1946 H 0.89775 0.52111 0.8482 0.0
H1947 H 0.88867 0.54129 0.83265 0.0
H1948 H 0.87852 0.47905 0.79756 0.0
H1949 H 0.88283 0.48701 0.91513 0.0
H1950 H 0.87099 0.49395 0.89329 0.0
H1951 H 0.8939 0.50625 0.89439 0.0
C1952 C 0.85303 0.50397 0.81404 0.0
C1953 C 0.86396 0.52169 0.81699 0.0
C1954 C 0.85819 0.49253 0.82305 0.0
C1955 C 0.87436 0.49854 0.83526 0.0
C1956 C 0.88512 0.5162 0.8392 0.0
H1957 H 0.92213 0.43778 0.88217 0.0
H1958 H 0.91753 0.4619 0.87278 0.0
C1959 C 0.87992 0.5277 0.83025 0.0
C1960 C 0.88025 0.48625 0.8416 0.0
H1961 H 0.89088 0.46797 0.89555 0.0
C1962 C 0.88129 0.47668 0.81898 0.0
C1963 C 0.88402 0.48332 0.86951 0.0
C1964 C 0.8828 0.49306 0.89459 0.0
C1965 C 0.88564 0.46399 0.82356 0.0
C1966 C 0.8888 0.46063 0.85156 0.0
C1967 C 0.88837 0.47058 0.87412 0.0
C1968 C 0.89159 0.44615 0.85786 0.0
C1969 C 0.88671 0.45421 0.7984 0.0
C1970 C 0.87844 0.42935 0.8529 0.0
C1971 C 0.88098 0.41558 0.85823 0.0
C1972 C 0.89675 0.41833 0.8687 0.0
C1973 C 0.90986 0.43521 0.87398 0.0
C1974 C 0.90726 0.449 0.86872 0.0
H1975 H 0.88842 0.46123 0.77816 0.0
H1976 H 0.89746 0.45166 0.80088 0.0
H1977 H 0.87468 0.44175 0.79685 0.0
H1978 H 0.86616 0.42688 0.8449 0.0
H1979 H 0.87057 0.40278 0.85404 0.0
H1980 H 0.59793 0.46308 0.85521 0.0
H1981 H 0.57454 0.4339 0.84756 0.0
H1982 H 0.53813 0.44893 0.87322 0.0
H1983 H 0.56138 0.47825 0.88042 0.0
H1984 H 0.55062 0.41142 0.88603 0.0
H1985 H 0.51885 0.42551 0.79737 0.0
H1986 H 0.54013 0.44068 0.80935 0.0
H1987 H 0.52182 0.43772 0.82911 0.0
C1988 C 0.58494 0.46023 0.85908 0.0
C1989 C 0.58154 0.47305 0.86826 0.0
C1990 C 0.5716 0.44353 0.85476 0.0
C1991 C 0.55458 0.43929 0.85948 0.0
C1992 C 0.55113 0.45199 0.86889 0.0
H1993 H 0.46042 0.34148 0.83073 0.0
H1994 H 0.48051 0.37003 0.84932 0.0
C1995 C 0.56446 0.46874 0.8731 0.0
C1996 C 0.54055 0.42151 0.85484 0.0
H1997 H 0.50515 0.39712 0.81433 0.0
C1998 C 0.54064 0.4083 0.87042 0.0
C1999 C 0.52749 0.41747 0.83457 0.0
C2000 C 0.52707 0.43105 0.81644 0.0
C2001 C 0.52815 0.39113 0.86604 0.0
C2002 C 0.51535 0.38708 0.84533 0.0
C2003 C 0.51495 0.4003 0.83032 0.0
C2004 C 0.50317 0.3692 0.83709 0.0
C2005 C 0.52879 0.37745 0.88349 0.0
C2006 C 0.50928 0.35928 0.82431 0.0
C2007 C 0.4979 0.34308 0.8136 0.0
C2008 C 0.48015 0.33647 0.81545 0.0
C2009 C 0.47402 0.34618 0.82915 0.0
C2010 C 0.48546 0.3625 0.83969 0.0
H2011 H 0.53609 0.38272 0.9035 0.0
H2012 H 0.51572 0.367 0.88884 0.0
H2013 H 0.53526 0.37188 0.87102 0.0
H2014 H 0.52289 0.36432 0.82165 0.0
H2015 H 0.50304 0.33594 0.80314 0.0
H2016 H 0.55897 0.68159 0.66839 0.0
H2017 H 0.56816 0.70995 0.68875 0.0
H2018 H 0.52084 0.7063 0.66166 0.0
H2019 H 0.51162 0.67818 0.64139 0.0
H2020 H 0.57148 0.73853 0.65632 0.0
H2021 H 0.52573 0.72201 0.74534 0.0
H2022 H 0.5303 0.70661 0.72907 0.0
H2023 H 0.5157 0.71201 0.71237 0.0
C2024 C 0.55043 0.68673 0.66723 0.0
C2025 C 0.53458 0.67766 0.65329 0.0
C2026 C 0.55571 0.70292 0.67878 0.0
C2027 C 0.54508 0.7101 0.67698 0.0
C2028 C 0.5291 0.70086 0.66372 0.0
H2029 H 0.5408 0.80095 0.69508 0.0
H2030 H 0.53689 0.77243 0.68845 0.0
C2031 C 0.5239 0.68482 0.652 0.0
C2032 C 0.551 0.72776 0.68683 0.0
H2033 H 0.53933 0.75102 0.72879 0.0
C2034 C 0.56471 0.74133 0.67256 0.0
C2035 C 0.54208 0.73129 0.70797 0.0
C2036 C 0.52773 0.71721 0.72478 0.0
C2037 C 0.56909 0.75837 0.67767 0.0
C2038 C 0.55966 0.76186 0.69795 0.0
C2039 C 0.54647 0.7483 0.71314 0.0
C2040 C 0.56239 0.77931 0.70223 0.0
C2041 C 0.5831 0.77239 0.66022 0.0
C2042 C 0.57802 0.79264 0.71233 0.0
C2043 C 0.58035 0.80905 0.71602 0.0
C2044 C 0.56702 0.81236 0.70988 0.0
C2045 C 0.55135 0.7989 0.69999 0.0
C2046 C 0.54907 0.78256 0.69625 0.0
H2047 H 0.58672 0.76726 0.64167 0.0
H2048 H 0.57911 0.78147 0.6524 0.0
H2049 H 0.59461 0.77963 0.67369 0.0
H2050 H 0.58837 0.79033 0.71753 0.0
H2051 H 0.59255 0.8191 0.72385 0.0
H2052 H 0.18394 0.77138 0.71862 0.0
H2053 H 0.21297 0.79562 0.71295 0.0
H2054 H 0.23066 0.76114 0.68817 0.0
H2055 H 0.20186 0.73687 0.69422 0.0
H2056 H 0.25183 0.78548 0.72778 0.0
H2057 H 0.23702 0.81569 0.63735 0.0
H2058 H 0.22437 0.81197 0.66882 0.0
H2059 H 0.22246 0.79413 0.64892 0.0
C2060 C 0.194 0.76896 0.71191 0.0
C2061 C 0.19054 0.75217 0.70675 0.0
C2062 C 0.21057 0.78284 0.70857 0.0
C2063 C 0.22392 0.78019 0.6998 0.0
C2064 C 0.22053 0.76346 0.69492 0.0
H2065 H 0.32609 0.82994 0.64251 0.0
H2066 H 0.29782 0.81111 0.66238 0.0
C2067 C 0.20403 0.7496 0.69833 0.0
C2068 C 0.24149 0.79473 0.69562 0.0
H2069 H 0.26551 0.82935 0.6533 0.0
C2070 C 0.25481 0.79516 0.71166 0.0
C2071 C 0.24533 0.80741 0.6747 0.0
C2072 C 0.2316 0.80729 0.65626 0.0
C2073 C 0.27191 0.80765 0.70682 0.0
C2074 C 0.27579 0.8199 0.68516 0.0
C2075 C 0.26245 0.81994 0.66995 0.0
C2076 C 0.2936 0.8316 0.6759 0.0
C2077 C 0.28572 0.80749 0.72461 0.0
C2078 C 0.30061 0.84941 0.67688 0.0
C2079 C 0.31687 0.86027 0.66555 0.0
C2080 C 0.3262 0.85344 0.65266 0.0
C2081 C 0.31925 0.83561 0.65232 0.0
C2082 C 0.30312 0.82482 0.66382 0.0
H2083 H 0.28062 0.8009 0.74525 0.0
H2084 H 0.29105 0.80051 0.713 0.0
H2085 H 0.2963 0.82069 0.72881 0.0
H2086 H 0.29338 0.85486 0.68593 0.0
H2087 H 0.32185 0.87394 0.66598 0.0
H2088 H 0.23028 0.41322 0.71867 0.0
H2089 H 0.20606 0.41756 0.70861 0.0
H2090 H 0.24094 0.46909 0.68126 0.0
H2091 H 0.26514 0.46496 0.69114 0.0
H2092 H 0.19972 0.44483 0.73053 0.0
H2093 H 0.20716 0.44546 0.61332 0.0
H2094 H 0.21634 0.43651 0.63712 0.0
H2095 H 0.2265 0.45926 0.63237 0.0
C2096 C 0.2328 0.42549 0.71053 0.0
C2097 C 0.24966 0.43871 0.70554 0.0
C2098 C 0.21895 0.42794 0.70489 0.0
C2099 C 0.22175 0.44358 0.69394 0.0
C2100 C 0.23854 0.45686 0.6894 0.0
H2101 H 0.16909 0.49317 0.63353 0.0
H2102 H 0.18895 0.4844 0.6509 0.0
C2103 C 0.25235 0.45447 0.69513 0.0
C2104 C 0.20723 0.44612 0.68678 0.0
H2105 H 0.18896 0.45526 0.63113 0.0
C2106 C 0.19717 0.44692 0.70881 0.0
C2107 C 0.20397 0.44874 0.6584 0.0
C2108 C 0.21394 0.44731 0.63386 0.0
C2109 C 0.18441 0.45112 0.70324 0.0
C2110 C 0.18157 0.45433 0.67491 0.0
C2111 C 0.19125 0.45291 0.65286 0.0
C2112 C 0.16932 0.4601 0.66752 0.0
C2113 C 0.17457 0.45279 0.72773 0.0
C2114 C 0.15165 0.44947 0.67158 0.0
C2115 C 0.14019 0.45451 0.66175 0.0
C2116 C 0.14626 0.47018 0.64747 0.0
C2117 C 0.16398 0.48099 0.64433 0.0
C2118 C 0.17537 0.476 0.65423 0.0
H2119 H 0.18058 0.45321 0.74855 0.0
H2120 H 0.17362 0.46452 0.72545 0.0
H2121 H 0.16141 0.44164 0.72781 0.0
H2122 H 0.1467 0.43703 0.6814 0.0
H2123 H 0.1266 0.44587 0.66433 0.0
H2124 H 0.34612 0.88813 0.16003 0.0
H2125 H 0.37531 0.897 0.14434 0.0
H2126 H 0.36835 0.84803 0.16959 0.0
H2127 H 0.33943 0.83917 0.18555 0.0
H2128 H 0.39717 0.87618 0.19342 0.0
H2129 H 0.39456 0.88298 0.07621 0.0
H2130 H 0.38642 0.89379 0.09772 0.0
H2131 H 0.37557 0.87086 0.09748 0.0
C2132 C 0.35071 0.87915 0.16169 0.0
C2133 C 0.3405 0.86298 0.17415 0.0
C2134 C 0.36736 0.88422 0.15265 0.0
C2135 C 0.37395 0.87314 0.15573 0.0
C2136 C 0.36351 0.85677 0.16706 0.0
H2137 H 0.46578 0.86888 0.1367 0.0
H2138 H 0.43715 0.86432 0.14518 0.0
C2139 C 0.34697 0.85173 0.17615 0.0
C2140 C 0.39212 0.87889 0.14955 0.0
H2141 H 0.4214 0.89027 0.09604 0.0
C2142 C 0.40248 0.87931 0.17213 0.0
C2143 C 0.39904 0.88314 0.12183 0.0
C2144 C 0.38835 0.88259 0.0968 0.0
C2145 C 0.41949 0.88355 0.16769 0.0
C2146 C 0.42625 0.88721 0.13984 0.0
C2147 C 0.41611 0.88737 0.11735 0.0
C2148 C 0.44353 0.89002 0.13364 0.0
C2149 C 0.43009 0.884 0.19283 0.0
C2150 C 0.45651 0.9059 0.12372 0.0
C2151 C 0.47296 0.90858 0.11883 0.0
C2152 C 0.47664 0.89536 0.12357 0.0
C2153 C 0.46346 0.87938 0.13298 0.0
C2154 C 0.44708 0.87675 0.13792 0.0
H2155 H 0.42465 0.88535 0.2132 0.0
H2156 H 0.43038 0.87187 0.19366 0.0
H2157 H 0.44345 0.89471 0.19091 0.0
H2158 H 0.45397 0.91628 0.12019 0.0
H2159 H 0.48279 0.92102 0.11146 0.0
H2160 H 0.07783 0.56202 0.106 0.0
H2161 H 0.08282 0.53818 0.11566 0.0
H2162 H 0.13454 0.57385 0.14103 0.0
H2163 H 0.12976 0.59769 0.13156 0.0
H2164 H 0.10979 0.53216 0.09241 0.0
H2165 H 0.11274 0.54038 0.2096 0.0
H2166 H 0.10324 0.54932 0.18649 0.0
H2167 H 0.12607 0.55962 0.18999 0.0
C2168 C 0.09027 0.5648 0.11364 0.0
C2169 C 0.10336 0.58178 0.11817 0.0
C2170 C 0.0931 0.55117 0.11906 0.0
C2171 C 0.10898 0.55429 0.12932 0.0
C2172 C 0.12212 0.57119 0.13344 0.0
H2173 H 0.15994 0.50212 0.18662 0.0
H2174 H 0.15099 0.52195 0.16977 0.0
C2175 C 0.11936 0.5848 0.12795 0.0
C2176 C 0.11193 0.53998 0.13614 0.0
H2177 H 0.12235 0.5222 0.19096 0.0
C2178 C 0.11236 0.5298 0.11396 0.0
C2179 C 0.11518 0.53695 0.16429 0.0
C2180 C 0.11415 0.54703 0.18905 0.0
C2181 C 0.11676 0.51715 0.1191 0.0
C2182 C 0.12056 0.51452 0.14718 0.0
C2183 C 0.11955 0.52433 0.16941 0.0
C2184 C 0.12644 0.50228 0.15411 0.0
C2185 C 0.11799 0.50718 0.09439 0.0
C2186 C 0.11572 0.48459 0.15037 0.0
C2187 C 0.12086 0.47315 0.15989 0.0
C2188 C 0.13672 0.47925 0.17354 0.0
C2189 C 0.14761 0.49699 0.1763 0.0
C2190 C 0.14252 0.50836 0.16671 0.0
H2191 H 0.1181 0.51312 0.07365 0.0
H2192 H 0.12972 0.50617 0.09604 0.0
H2193 H 0.1068 0.49404 0.0947 0.0
H2194 H 0.10314 0.47961 0.1411 0.0
H2195 H 0.11215 0.45955 0.15762 0.0
H2196 H 0.54292 0.65732 0.15962 0.0
H2197 H 0.52325 0.62914 0.13924 0.0
H2198 H 0.48027 0.63363 0.16758 0.0
H2199 H 0.49969 0.66161 0.18791 0.0
H2200 H 0.49824 0.60102 0.17249 0.0
H2201 H 0.46825 0.61733 0.08434 0.0
H2202 H 0.48845 0.63272 0.09995 0.0
H2203 H 0.46872 0.62751 0.11738 0.0
C2204 C 0.52928 0.65243 0.161 0.0
C2205 C 0.52285 0.66167 0.17538 0.0
C2206 C 0.51808 0.63633 0.14943 0.0
C2207 C 0.50033 0.62941 0.15166 0.0
C2208 C 0.49393 0.63887 0.1652 0.0
H2209 H 0.40507 0.53774 0.13335 0.0
H2210 H 0.42932 0.5665 0.14001 0.0
C2211 C 0.50506 0.65483 0.17695 0.0
C2212 C 0.48834 0.61172 0.1422 0.0
H2213 H 0.45317 0.58835 0.10079 0.0
C2214 C 0.48856 0.59818 0.15644 0.0
C2215 C 0.47572 0.60814 0.12137 0.0
C2216 C 0.47532 0.62219 0.10467 0.0
C2217 C 0.47589 0.58114 0.15152 0.0
C2218 C 0.46289 0.57758 0.13137 0.0
C2219 C 0.4631 0.59111 0.11632 0.0
C2220 C 0.44835 0.56004 0.12687 0.0
C2221 C 0.47602 0.56718 0.16898 0.0
C2222 C 0.45098 0.54686 0.11705 0.0
C2223 C 0.43712 0.53033 0.11339 0.0
C2224 C 0.42036 0.52672 0.11923 0.0
C2225 C 0.41779 0.54003 0.1287 0.0
C2226 C 0.43164 0.55651 0.13246 0.0
H2227 H 0.48456 0.57237 0.18777 0.0
H2228 H 0.46294 0.55786 0.17645 0.0
H2229 H 0.48068 0.56022 0.15565 0.0
H2230 H 0.46374 0.54938 0.11209 0.0
H2231 H 0.43955 0.52041 0.10585 0.0
H2232 H 0.16163 0.6594 0.68886 0.0
H2233 H 0.15315 0.63077 0.67175 0.0
H2234 H 0.10574 0.62519 0.64051 0.0
H2235 H 0.11429 0.65411 0.65726 0.0
H2236 H 0.12436 0.60173 0.6917 0.0
H2237 H 0.12183 0.60708 0.57419 0.0
H2238 H 0.13295 0.62556 0.59692 0.0
H2239 H 0.11006 0.61461 0.5945 0.0
C2240 C 0.14952 0.65223 0.67791 0.0
C2241 C 0.1386 0.659 0.67449 0.0
C2242 C 0.14469 0.63585 0.66817 0.0
C2243 C 0.12885 0.62587 0.65478 0.0
C2244 C 0.11814 0.63278 0.65038 0.0
H2245 H 0.08076 0.51763 0.60643 0.0
H2246 H 0.0857 0.54647 0.61585 0.0
C2247 C 0.12302 0.64928 0.66003 0.0
C2248 C 0.12316 0.60781 0.64778 0.0
H2249 H 0.11312 0.5796 0.59288 0.0
C2250 C 0.12186 0.59689 0.67009 0.0
C2251 C 0.11975 0.60149 0.61961 0.0
C2252 C 0.12132 0.61278 0.59483 0.0
C2253 C 0.11756 0.57993 0.66497 0.0
C2254 C 0.11466 0.57375 0.63676 0.0
C2255 C 0.11541 0.58445 0.61448 0.0
C2256 C 0.11176 0.5565 0.63003 0.0
C2257 C 0.11622 0.56873 0.68978 0.0
C2258 C 0.12487 0.55274 0.63453 0.0
C2259 C 0.12214 0.53637 0.62917 0.0
C2260 C 0.10621 0.5234 0.61917 0.0
C2261 C 0.09315 0.52729 0.61425 0.0
C2262 C 0.09595 0.54375 0.61953 0.0
H2263 H 0.11465 0.57393 0.71025 0.0
H2264 H 0.10527 0.55556 0.68699 0.0
H2265 H 0.12808 0.56796 0.6911 0.0
H2266 H 0.13724 0.5625 0.64233 0.0
H2267 H 0.1325 0.53387 0.63308 0.0
H2268 H 0.34161 0.50345 0.69091 0.0
H2269 H 0.37016 0.5242 0.67428 0.0
H2270 H 0.37792 0.48318 0.6459 0.0
H2271 H 0.34909 0.46222 0.66212 0.0
H2272 H 0.39952 0.52624 0.69559 0.0
H2273 H 0.39568 0.51636 0.57858 0.0
H2274 H 0.3769 0.50847 0.60072 0.0
H2275 H 0.38879 0.49742 0.59964 0.0
C2276 C 0.34925 0.49881 0.68069 0.0
C2277 C 0.34311 0.48119 0.6779 0.0
C2278 C 0.36558 0.5107 0.67121 0.0
C2279 C 0.37615 0.50526 0.65874 0.0
C2280 C 0.36988 0.48768 0.65502 0.0
H2281 H 0.48436 0.5652 0.61272 0.0
H2282 H 0.45537 0.54169 0.62216 0.0
C2283 C 0.35343 0.47572 0.66438 0.0
C2284 C 0.39413 0.51804 0.65195 0.0
H2285 H 0.42293 0.53565 0.5977 0.0
C2286 C 0.40463 0.52829 0.67417 0.0
C2287 C 0.4008 0.52059 0.62404 0.0
C2288 C 0.38996 0.51024 0.59928 0.0
C2289 C 0.42155 0.54113 0.66924 0.0
C2290 C 0.42811 0.54395 0.64127 0.0
C2291 C 0.4178 0.53345 0.6191 0.0
C2292 C 0.44548 0.55813 0.63465 0.0
C2293 C 0.43233 0.55157 0.69402 0.0
C2294 C 0.4494 0.57513 0.63819 0.0
C2295 C 0.4659 0.58858 0.63282 0.0
C2296 C 0.47882 0.58528 0.62375 0.0
C2297 C 0.47475 0.5682 0.61981 0.0
C2298 C 0.45819 0.55474 0.6251 0.0
H2299 H 0.42691 0.54517 0.71467 0.0
H2300 H 0.4456 0.55394 0.69217 0.0
H2301 H 0.4329 0.56413 0.69415 0.0
H2302 H 0.43968 0.57799 0.6452 0.0
H2303 H 0.46854 0.60155 0.63595 0.0
H2304 H 0.40379 0.86604 0.63526 0.0
H2305 H 0.42809 0.862 0.64484 0.0
H2306 H 0.46278 0.91378 0.61846 0.0
H2307 H 0.43849 0.91801 0.60864 0.0
H2308 H 0.46978 0.88752 0.59595 0.0
H2309 H 0.46136 0.88457 0.71307 0.0
H2310 H 0.44227 0.87069 0.69356 0.0
H2311 H 0.45189 0.89346 0.68979 0.0
C2312 C 0.41656 0.8766 0.63144 0.0
C2313 C 0.41918 0.8924 0.62135 0.0
C2314 C 0.43044 0.87427 0.63701 0.0
C2315 C 0.4472 0.88766 0.63266 0.0
C2316 C 0.44992 0.90333 0.62204 0.0
H2317 H 0.54357 0.88796 0.66229 0.0
H2318 H 0.52286 0.89602 0.64533 0.0
C2319 C 0.43602 0.90572 0.61654 0.0
C2320 C 0.4618 0.88519 0.63962 0.0
H2321 H 0.48011 0.8756 0.69468 0.0
C2322 C 0.47221 0.88509 0.61754 0.0
C2323 C 0.46494 0.88213 0.66783 0.0
C2324 C 0.45464 0.88285 0.69251 0.0
C2325 C 0.48522 0.8812 0.62283 0.0
C2326 C 0.48796 0.87759 0.65096 0.0
C2327 C 0.47789 0.87826 0.67309 0.0
C2328 C 0.50061 0.87228 0.65805 0.0
C2329 C 0.49547 0.88034 0.59824 0.0
C2330 C 0.49497 0.85625 0.67061 0.0
C2331 C 0.50671 0.85169 0.68045 0.0
C2332 C 0.52437 0.86308 0.67797 0.0
C2333 C 0.53004 0.87888 0.66434 0.0
C2334 C 0.51823 0.88348 0.65457 0.0
H2335 H 0.48951 0.88006 0.57743 0.0
H2336 H 0.50845 0.89177 0.59866 0.0
H2337 H 0.49686 0.86883 0.59994 0.0
H2338 H 0.48144 0.84742 0.67348 0.0
H2339 H 0.5019 0.8394 0.69074 0.0
H2340 H 0.20062 0.46587 0.18797 0.0
H2341 H 0.22938 0.47089 0.17906 0.0
H2342 H 0.2138 0.41954 0.20609 0.0
H2343 H 0.18484 0.41432 0.21519 0.0
H2344 H 0.24654 0.44692 0.22921 0.0
H2345 H 0.2417 0.44885 0.11178 0.0
H2346 H 0.23553 0.4622 0.13067 0.0
H2347 H 0.22317 0.43938 0.13468 0.0
C2348 C 0.20324 0.4556 0.19205 0.0
C2349 C 0.19037 0.43965 0.20214 0.0
C2350 C 0.2197 0.4585 0.18688 0.0
C2351 C 0.22363 0.44553 0.19164 0.0
C2352 C 0.21096 0.42968 0.2022 0.0
H2353 H 0.32206 0.44947 0.16611 0.0
H2354 H 0.29291 0.44042 0.1822 0.0
C2355 C 0.19443 0.42673 0.20729 0.0
C2356 C 0.24099 0.44863 0.18524 0.0
H2357 H 0.26947 0.45891 0.1309 0.0
C2358 C 0.25156 0.44937 0.20772 0.0
C2359 C 0.24739 0.45172 0.15716 0.0
C2360 C 0.23634 0.45036 0.13211 0.0
C2361 C 0.26869 0.45392 0.20294 0.0
C2362 C 0.27524 0.45756 0.17492 0.0
C2363 C 0.26445 0.45625 0.1524 0.0
C2364 C 0.29341 0.46351 0.16831 0.0
C2365 C 0.27983 0.45547 0.22794 0.0
C2366 C 0.30336 0.4795 0.15537 0.0
C2367 C 0.31988 0.48462 0.14602 0.0
C2368 C 0.32681 0.47384 0.14938 0.0
C2369 C 0.3171 0.4581 0.16339 0.0
C2370 C 0.30047 0.45293 0.17266 0.0
H2371 H 0.27389 0.4557 0.24848 0.0
H2372 H 0.28189 0.44434 0.22814 0.0
H2373 H 0.29253 0.46725 0.22621 0.0
H2374 H 0.29816 0.48787 0.15183 0.0
H2375 H 0.32703 0.49686 0.13541 0.0
H2376 H 0.55489 0.87708 0.17191 0.0
H2377 H 0.56403 0.85783 0.19203 0.0
H2378 H 0.51711 0.81425 0.16341 0.0
H2379 H 0.50789 0.83324 0.1434 0.0
H2380 H 0.52797 0.81202 0.22114 0.0
H2381 H 0.57868 0.82998 0.1391 0.0
H2382 H 0.5786 0.84695 0.15903 0.0
H2383 H 0.56149 0.83453 0.13477 0.0
C2384 C 0.54644 0.86339 0.17024 0.0
C2385 C 0.53072 0.85668 0.15589 0.0
C2386 C 0.55172 0.85244 0.1816 0.0
C2387 C 0.54132 0.83465 0.17887 0.0
C2388 C 0.52534 0.82795 0.16565 0.0
H2389 H 0.53574 0.73877 0.20131 0.0
H2390 H 0.53133 0.76313 0.19586 0.0
C2391 C 0.52011 0.83884 0.15418 0.0
C2392 C 0.54718 0.82283 0.18847 0.0
H2393 H 0.57384 0.80777 0.17036 0.0
C2394 C 0.53814 0.81121 0.21031 0.0
C2395 C 0.5605 0.82188 0.17435 0.0
C2396 C 0.57038 0.8339 0.15038 0.0
C2397 C 0.54178 0.79833 0.21793 0.0
C2398 C 0.5545 0.79682 0.20282 0.0
C2399 C 0.56405 0.80892 0.18183 0.0
C2400 C 0.55726 0.7821 0.20701 0.0
C2401 C 0.53184 0.78639 0.24193 0.0
C2402 C 0.57345 0.78469 0.21428 0.0
C2403 C 0.57609 0.77075 0.21715 0.0
C2404 C 0.56257 0.75397 0.21262 0.0
C2405 C 0.54641 0.75148 0.20515 0.0
C2406 C 0.54381 0.7654 0.20224 0.0
H2407 H 0.52694 0.79244 0.25692 0.0
H2408 H 0.52067 0.7748 0.23307 0.0
H2409 H 0.53982 0.78236 0.25395 0.0
H2410 H 0.58405 0.79749 0.21777 0.0
H2411 H 0.58871 0.77313 0.22287 0.0
H2412 H 0.12398 0.67989 0.16221 0.0
H2413 H 0.14408 0.70914 0.17812 0.0
H2414 H 0.18617 0.70449 0.14549 0.0
H2415 H 0.16634 0.67553 0.12938 0.0
H2416 H 0.17406 0.72308 0.21435 0.0
H2417 H 0.18965 0.74625 0.10324 0.0
H2418 H 0.17119 0.72601 0.1124 0.0
H2419 H 0.19199 0.728 0.11033 0.0
C2420 C 0.13754 0.68505 0.15877 0.0
C2421 C 0.14356 0.67548 0.14425 0.0
C2422 C 0.14898 0.70174 0.16781 0.0
C2423 C 0.16655 0.70906 0.1624 0.0
C2424 C 0.17262 0.69919 0.14931 0.0
H2425 H 0.26191 0.80024 0.18439 0.0
H2426 H 0.2376 0.77188 0.17497 0.0
C2427 C 0.16126 0.68261 0.14022 0.0
C2428 C 0.17864 0.72718 0.16938 0.0
H2429 H 0.20847 0.76475 0.13917 0.0
C2430 C 0.18144 0.7323 0.19796 0.0
C2431 C 0.18813 0.73917 0.14787 0.0
C2432 C 0.185 0.73466 0.11672 0.0
C2433 C 0.19415 0.74891 0.20567 0.0
C2434 C 0.20411 0.76062 0.18417 0.0
C2435 C 0.20087 0.75567 0.15558 0.0
C2436 C 0.21866 0.77778 0.19083 0.0
C2437 C 0.19734 0.75362 0.23671 0.0
C2438 C 0.21602 0.79052 0.20269 0.0
C2439 C 0.22992 0.80683 0.20802 0.0
C2440 C 0.24668 0.81064 0.20157 0.0
C2441 C 0.24921 0.79778 0.18968 0.0
C2442 C 0.23533 0.78155 0.18427 0.0
H2443 H 0.19029 0.74233 0.25078 0.0
H2444 H 0.21121 0.75977 0.24154 0.0
H2445 H 0.19315 0.76296 0.24171 0.0
H2446 H 0.20321 0.7879 0.20751 0.0
H2447 H 0.22752 0.81643 0.21715 0.0
H2448 H 0.26329 0.22275 0.14014 0.0
H2449 H 0.26138 0.23252 0.18789 0.0
H2450 H 0.20638 0.20532 0.18169 0.0
H2451 H 0.20811 0.19576 0.13402 0.0
H2452 H 0.21991 0.23834 0.20334 0.0
H2453 H 0.24606 0.20191 0.25878 0.0
H2454 H 0.25928 0.21629 0.23132 0.0
H2455 H 0.23916 0.19792 0.22219 0.0
C2456 C 0.25079 0.21887 0.14894 0.0
C2457 C 0.23585 0.20838 0.13332 0.0
C2458 C 0.24973 0.22441 0.17625 0.0
C2459 C 0.23374 0.21946 0.1884 0.0
C2460 C 0.21885 0.20926 0.17268 0.0
H2461 H 0.19546 0.20761 0.35593 0.0
H2462 H 0.20476 0.20574 0.30812 0.0
C2463 C 0.21988 0.20377 0.14544 0.0
C2464 C 0.23224 0.22456 0.21768 0.0
H2465 H 0.23776 0.21787 0.28731 0.0
C2466 C 0.22397 0.23405 0.22175 0.0
C2467 C 0.23746 0.21879 0.24155 0.0
C2468 C 0.24587 0.20805 0.23842 0.0
C2469 C 0.2203 0.23751 0.24911 0.0
C2470 C 0.2253 0.23153 0.27297 0.0
C2471 C 0.23404 0.2225 0.26891 0.0
C2472 C 0.22018 0.23309 0.3022 0.0
C2473 C 0.21039 0.24679 0.25222 0.0
C2474 C 0.2259 0.24913 0.31481 0.0
C2475 C 0.22051 0.25027 0.3422 0.0
C2476 C 0.20942 0.23537 0.35745 0.0
C2477 C 0.20396 0.21935 0.34481 0.0
C2478 C 0.2093 0.21824 0.31749 0.0
H2479 H 0.20467 0.24759 0.23177 0.0
H2480 H 0.2 0.24033 0.26813 0.0
H2481 H 0.2191 0.26001 0.25977 0.0
H2482 H 0.23453 0.26074 0.3035 0.0
H2483 H 0.22504 0.2628 0.3514 0.0
H2484 H 0.80558 0.00977 0.1346 0.0
H2485 H 0.79591 0.99895 0.18247 0.0
H2486 H 0.76936 0.02743 0.18732 0.0
H2487 H 0.77921 0.0386 0.13936 0.0
H2488 H 0.78889 0.0315 0.23463 0.0
H2489 H 0.74859 0.9628 0.20923 0.0
H2490 H 0.76968 0.97171 0.19456 0.0
H2491 H 0.75574 0.97929 0.18244 0.0
C2492 C 0.7976 0.01368 0.1457 0.0
C2493 C 0.79314 0.02504 0.1331 0.0
C2494 C 0.79196 0.00736 0.17301 0.0
C2495 C 0.78164 0.01212 0.1882 0.0
C2496 C 0.77719 0.02349 0.1758 0.0
H2497 H 0.74069 0.96245 0.35285 0.0
H2498 H 0.7422 0.97363 0.30483 0.0
C2499 C 0.78284 0.02986 0.14843 0.0
C2500 C 0.7764 0.00593 0.21764 0.0
H2501 H 0.75796 0.96962 0.25783 0.0
C2502 C 0.78189 0.01797 0.23971 0.0
C2503 C 0.76699 0.98829 0.22419 0.0
C2504 C 0.75975 0.97479 0.20132 0.0
C2505 C 0.7791 0.01283 0.26826 0.0
C2506 C 0.77087 0.99519 0.27482 0.0
C2507 C 0.76448 0.98314 0.25275 0.0
C2508 C 0.76979 0.98901 0.3043 0.0
C2509 C 0.78519 0.02633 0.29112 0.0
C2510 C 0.78481 0.99381 0.31971 0.0
C2511 C 0.78401 0.98747 0.34705 0.0
C2512 C 0.76816 0.97607 0.35947 0.0
C2513 C 0.7531 0.97123 0.34393 0.0
C2514 C 0.75393 0.97761 0.31652 0.0
H2515 H 0.78601 0.03829 0.2831 0.0
H2516 H 0.77657 0.0218 0.30987 0.0
H2517 H 0.79816 0.02945 0.29811 0.0
H2518 H 0.7972 0.00225 0.3104 0.0
H2519 H 0.79587 0.99141 0.35831 0.0
H2520 H 0.03996 0.78197 0.34932 0.0
H2521 H 0.02843 0.77371 0.30117 0.0
H2522 H 0.00232 0.80243 0.31031 0.0
H2523 H 0.01352 0.81054 0.35846 0.0
H2524 H 0.98189 0.76991 0.28735 0.0
H2525 H 0.04439 0.80536 0.23157 0.0
H2526 H 0.04304 0.7905 0.25827 0.0
H2527 H 0.04177 0.80899 0.26848 0.0
C2528 C 0.03178 0.78655 0.34107 0.0
C2529 C 0.02773 0.79699 0.3577 0.0
C2530 C 0.02527 0.78187 0.31353 0.0
C2531 C 0.01471 0.78765 0.30211 0.0
C2532 C 0.01049 0.79788 0.31875 0.0
H2533 H 0.98796 0.79773 0.13214 0.0
H2534 H 0.99927 0.8009 0.18021 0.0
C2535 C 0.01694 0.80252 0.34625 0.0
C2536 C 0.00798 0.78312 0.27281 0.0
H2537 H 0.02002 0.78916 0.20309 0.0
C2538 C 0.9902 0.77401 0.26889 0.0
C2539 C 0.0189 0.78863 0.24886 0.0
C2540 C 0.03809 0.79903 0.25184 0.0
C2541 C 0.983 0.77049 0.24158 0.0
C2542 C 0.99392 0.77599 0.21763 0.0
C2543 C 0.01171 0.78487 0.22155 0.0
C2544 C 0.98718 0.77373 0.18833 0.0
C2545 C 0.96381 0.76149 0.23859 0.0
C2546 C 0.97676 0.75737 0.17688 0.0
C2547 C 0.97017 0.75549 0.14938 0.0
C2548 C 0.97401 0.76996 0.13283 0.0
C2549 C 0.98469 0.78631 0.14429 0.0
C2550 C 0.99121 0.78816 0.17175 0.0
H2551 H 0.95745 0.76139 0.25887 0.0
H2552 H 0.96001 0.76768 0.22197 0.0
H2553 H 0.95901 0.74803 0.23213 0.0
H2554 H 0.97374 0.74608 0.1892 0.0
H2555 H 0.96209 0.74272 0.14112 0.0
H2556 H 0.73833 0.77763 0.84847 0.0
H2557 H 0.7405 0.76815 0.80064 0.0
H2558 H 0.79535 0.79363 0.809 0.0
H2559 H 0.79335 0.80292 0.85674 0.0
H2560 H 0.75731 0.78812 0.75442 0.0
H2561 H 0.78389 0.74642 0.78128 0.0
H2562 H 0.77422 0.75352 0.80754 0.0
H2563 H 0.79606 0.76727 0.79678 0.0
C2564 C 0.75085 0.7811 0.84021 0.0
C2565 C 0.76567 0.791 0.85647 0.0
C2566 C 0.75205 0.77566 0.8129 0.0
C2567 C 0.76806 0.77992 0.80151 0.0
C2568 C 0.78284 0.78982 0.81766 0.0
H2569 H 0.8066 0.79564 0.63348 0.0
H2570 H 0.79637 0.79665 0.68096 0.0
C2571 C 0.78166 0.79525 0.8449 0.0
C2572 C 0.76956 0.77497 0.77212 0.0
H2573 H 0.78776 0.75648 0.73292 0.0
C2574 C 0.76372 0.78097 0.7497 0.0
C2575 C 0.77765 0.76538 0.76601 0.0
C2576 C 0.78315 0.75762 0.7892 0.0
C2577 C 0.76665 0.77847 0.7213 0.0
C2578 C 0.77592 0.77003 0.71525 0.0
C2579 C 0.78087 0.76316 0.73762 0.0
C2580 C 0.78158 0.76918 0.68608 0.0
C2581 C 0.75999 0.78509 0.69804 0.0
C2582 C 0.77703 0.75339 0.67349 0.0
C2583 C 0.78299 0.75275 0.64633 0.0
C2584 C 0.79371 0.76792 0.63142 0.0
C2585 C 0.79829 0.78371 0.64425 0.0
C2586 C 0.79235 0.78432 0.67133 0.0
H2587 H 0.74884 0.7861 0.7054 0.0
H2588 H 0.77019 0.79806 0.69169 0.0
H2589 H 0.75616 0.77669 0.67903 0.0
H2590 H 0.76885 0.74156 0.68467 0.0
H2591 H 0.77924 0.74038 0.63709 0.0
H2592 H 0.20825 0.01455 0.63496 0.0
H2593 H 0.20559 0.00333 0.68295 0.0
H2594 H 0.26049 0.02998 0.69118 0.0
H2595 H 0.26333 0.04157 0.64312 0.0
H2596 H 0.21805 0.98311 0.70518 0.0
H2597 H 0.24496 0.04547 0.76149 0.0
H2598 H 0.23856 0.04293 0.72467 0.0
H2599 H 0.25834 0.04413 0.73453 0.0
C2600 C 0.2198 0.0181 0.64692 0.0
C2601 C 0.23602 0.02906 0.63523 0.0
C2602 C 0.21824 0.01162 0.67434 0.0
C2603 C 0.23283 0.01596 0.69069 0.0
C2604 C 0.24906 0.02671 0.67905 0.0
H2605 H 0.222 0.9623 0.85254 0.0
H2606 H 0.2318 0.97421 0.80492 0.0
C2607 C 0.25065 0.03327 0.65156 0.0
C2608 C 0.2308 0.00916 0.71993 0.0
H2609 H 0.23612 0.02095 0.78975 0.0
C2610 C 0.22213 0.99136 0.72372 0.0
C2611 C 0.23605 0.02 0.74397 0.0
C2612 C 0.24488 0.0392 0.74114 0.0
C2613 C 0.21815 0.98407 0.75095 0.0
C2614 C 0.22326 0.99491 0.775 0.0
C2615 C 0.23233 0.01271 0.77122 0.0
C2616 C 0.21801 0.98808 0.80412 0.0
C2617 C 0.20784 0.96486 0.75373 0.0
C2618 C 0.20736 0.99226 0.81964 0.0
C2619 C 0.20184 0.9856 0.84681 0.0
C2620 C 0.20689 0.97461 0.85907 0.0
C2621 C 0.21778 0.97062 0.84362 0.0
C2622 C 0.22334 0.97736 0.81639 0.0
H2623 H 0.20202 0.95857 0.73319 0.0
H2624 H 0.21632 0.96001 0.76101 0.0
H2625 H 0.1975 0.96105 0.76968 0.0
H2626 H 0.20311 0.00053 0.81054 0.0
H2627 H 0.19351 0.98899 0.85809 0.0
H2628 H 0.99129 0.1943 0.63212 0.0
H2629 H 0.00206 0.20232 0.68049 0.0
H2630 H 0.97595 0.2311 0.68853 0.0
H2631 H 0.96483 0.22291 0.64014 0.0
H2632 H 0.02221 0.23462 0.70441 0.0
H2633 H 0.95877 0.19885 0.75731 0.0
H2634 H 0.96197 0.19554 0.72051 0.0
H2635 H 0.96071 0.21403 0.73078 0.0
C2636 C 0.9878 0.20234 0.64411 0.0
C2637 C 0.97708 0.20786 0.6323 0.0
C2638 C 0.99401 0.20694 0.67174 0.0
C2639 C 0.98963 0.21713 0.68817 0.0
C2640 C 0.97923 0.22298 0.67634 0.0
H2641 H 0.03996 0.25872 0.85236 0.0
H2642 H 0.02906 0.25664 0.80399 0.0
C2643 C 0.97295 0.21834 0.64866 0.0
C2644 C 0.9959 0.22137 0.71776 0.0
H2645 H 0.98273 0.21429 0.78691 0.0
C2646 C 0.01361 0.23031 0.72249 0.0
C2647 C 0.98459 0.21557 0.74121 0.0
C2648 C 0.96545 0.20534 0.73736 0.0
C2649 C 0.02035 0.23333 0.75011 0.0
C2650 C 0.00904 0.22747 0.77356 0.0
C2651 C 0.99133 0.21884 0.76884 0.0
C2652 C 0.01529 0.22899 0.80308 0.0
C2653 C 0.03949 0.24211 0.75394 0.0
C2654 C 0.0108 0.21413 0.81877 0.0
C2655 C 0.01689 0.21525 0.84639 0.0
C2656 C 0.02758 0.23128 0.85891 0.0
C2657 C 0.03185 0.24618 0.84328 0.0
C2658 C 0.0257 0.24503 0.8156 0.0
H2659 H 0.04615 0.2426 0.73381 0.0
H2660 H 0.04427 0.25543 0.7612 0.0
H2661 H 0.04292 0.23548 0.77029 0.0
H2662 H 0.00275 0.20163 0.80948 0.0
H2663 H 0.0133 0.20352 0.85781 0.0
H2664 H 0.92646 0.55707 0.47278 0.0
H2665 H 0.92433 0.5657 0.52126 0.0
H2666 H 0.86933 0.53683 0.51573 0.0
H2667 H 0.87128 0.52836 0.46729 0.0
H2668 H 0.88198 0.56955 0.53857 0.0
H2669 H 0.91026 0.53424 0.59113 0.0
H2670 H 0.92306 0.54904 0.5638 0.0
H2671 H 0.90313 0.53045 0.55465 0.0
C2672 C 0.91391 0.55255 0.48189 0.0
C2673 C 0.89904 0.54194 0.4662 0.0
C2674 C 0.91273 0.55745 0.50961 0.0
C2675 C 0.89667 0.55173 0.52214 0.0
C2676 C 0.88184 0.54135 0.50642 0.0
H2677 H 0.86125 0.53952 0.69242 0.0
H2678 H 0.86946 0.5374 0.6439 0.0
C2679 C 0.88299 0.53649 0.47875 0.0
C2680 C 0.89513 0.55635 0.55171 0.0
H2681 H 0.90207 0.54992 0.62075 0.0
C2682 C 0.88649 0.56541 0.55658 0.0
C2683 C 0.90094 0.55078 0.57507 0.0
C2684 C 0.90975 0.54047 0.57107 0.0
C2685 C 0.88314 0.56872 0.58426 0.0
C2686 C 0.88884 0.56305 0.60762 0.0
C2687 C 0.89783 0.55434 0.60274 0.0
C2688 C 0.88437 0.56473 0.63722 0.0
C2689 C 0.87291 0.57761 0.58829 0.0
C2690 C 0.89018 0.58083 0.64963 0.0
C2691 C 0.88544 0.58211 0.67744 0.0
C2692 C 0.87489 0.56729 0.69329 0.0
C2693 C 0.86934 0.5512 0.68084 0.0
C2694 C 0.87405 0.54995 0.65311 0.0
H2695 H 0.86661 0.57808 0.56829 0.0
H2696 H 0.86294 0.57107 0.60483 0.0
H2697 H 0.88154 0.59094 0.59542 0.0
H2698 H 0.89839 0.59239 0.63784 0.0
H2699 H 0.89002 0.59469 0.68647 0.0
H2700 H 0.47178 0.34363 0.46642 0.0
H2701 H 0.46217 0.33175 0.51378 0.0
H2702 H 0.43531 0.3598 0.52197 0.0
H2703 H 0.44508 0.37201 0.47454 0.0
H2704 H 0.45522 0.36311 0.56865 0.0
H2705 H 0.41487 0.29491 0.53986 0.0
H2706 H 0.43591 0.30423 0.52485 0.0
H2707 H 0.42184 0.31193 0.51407 0.0
C2708 C 0.46374 0.34722 0.47815 0.0
C2709 C 0.45919 0.35877 0.46665 0.0
C2710 C 0.45814 0.3403 0.50515 0.0
C2711 C 0.44777 0.34465 0.52114 0.0
C2712 C 0.44319 0.35617 0.50982 0.0
H2713 H 0.40673 0.29248 0.68398 0.0
H2714 H 0.4084 0.30437 0.6365 0.0
C2715 C 0.4488 0.36313 0.48275 0.0
C2716 C 0.44263 0.33788 0.55031 0.0
H2717 H 0.42419 0.30082 0.58855 0.0
C2718 C 0.44821 0.3495 0.57302 0.0
C2719 C 0.43323 0.32013 0.55593 0.0
C2720 C 0.42595 0.30708 0.53236 0.0
C2721 C 0.44546 0.3438 0.60129 0.0
C2722 C 0.43717 0.32605 0.60687 0.0
C2723 C 0.43074 0.31443 0.58419 0.0
C2724 C 0.43602 0.31931 0.63594 0.0
C2725 C 0.45165 0.35685 0.62489 0.0
C2726 C 0.451 0.32361 0.65111 0.0
C2727 C 0.45011 0.31686 0.67813 0.0
C2728 C 0.4342 0.30555 0.69047 0.0
C2729 C 0.41918 0.30118 0.67513 0.0
C2730 C 0.4201 0.30796 0.64803 0.0
H2731 H 0.45269 0.36905 0.61768 0.0
H2732 H 0.44296 0.35204 0.64354 0.0
H2733 H 0.46454 0.35963 0.63177 0.0
H2734 H 0.46343 0.33203 0.64187 0.0
H2735 H 0.46193 0.32045 0.68926 0.0
H2736 H 0.70305 0.11027 0.6871 0.0
H2737 H 0.6919 0.1022 0.63868 0.0
H2738 H 0.66631 0.13147 0.64682 0.0
H2739 H 0.6771 0.13937 0.69519 0.0
H2740 H 0.64581 0.09914 0.62323 0.0
H2741 H 0.70908 0.13425 0.56962 0.0
H2742 H 0.70708 0.11909 0.59624 0.0
H2743 H 0.70608 0.13773 0.60643 0.0
C2744 C 0.69505 0.11499 0.67857 0.0
C2745 C 0.69104 0.12555 0.69497 0.0
C2746 C 0.68875 0.11042 0.65088 0.0
C2747 C 0.67846 0.11642 0.6391 0.0
C2748 C 0.67426 0.12674 0.65554 0.0
H2749 H 0.65454 0.12993 0.4696 0.0
H2750 H 0.66509 0.13183 0.51792 0.0
C2751 C 0.68049 0.13127 0.68317 0.0
C2752 C 0.67207 0.11214 0.60959 0.0
H2753 H 0.68496 0.11894 0.54029 0.0
C2754 C 0.65434 0.10333 0.60506 0.0
C2755 C 0.68328 0.11778 0.58601 0.0
C2756 C 0.70245 0.12786 0.58965 0.0
C2757 C 0.64749 0.1003 0.57751 0.0
C2758 C 0.6587 0.10601 0.55394 0.0
C2759 C 0.67643 0.1145 0.55846 0.0
C2760 C 0.65236 0.10448 0.52449 0.0
C2761 C 0.62835 0.09167 0.5739 0.0
C2762 C 0.6418 0.08843 0.51209 0.0
C2763 C 0.63564 0.08727 0.48442 0.0
C2764 C 0.64005 0.10216 0.46867 0.0
C2765 C 0.65084 0.1182 0.48111 0.0
C2766 C 0.65693 0.11932 0.50872 0.0
H2767 H 0.62179 0.09129 0.5941 0.0
H2768 H 0.62493 0.09834 0.55757 0.0
H2769 H 0.62341 0.07831 0.5667 0.0
H2770 H 0.63836 0.07682 0.52377 0.0
H2771 H 0.62746 0.07473 0.47539 0.0
H2772 H 0.40546 0.11269 0.18542 0.0
H2773 H 0.40627 0.10159 0.13826 0.0
H2774 H 0.46134 0.12812 0.14167 0.0
H2775 H 0.46071 0.13904 0.18871 0.0
H2776 H 0.42135 0.11975 0.08946 0.0
H2777 H 0.44974 0.08003 0.11899 0.0
H2778 H 0.44066 0.08795 0.14492 0.0
H2779 H 0.46211 0.10147 0.1321 0.0
C2780 C 0.41774 0.11607 0.1762 0.0
C2781 C 0.43302 0.12671 0.1909 0.0
C2782 C 0.41816 0.1097 0.14929 0.0
C2783 C 0.43384 0.11377 0.13675 0.0
C2784 C 0.44908 0.12447 0.15127 0.0
H2785 H 0.46778 0.12381 0.9667 0.0
H2786 H 0.45845 0.12622 0.0142 0.0
C2787 C 0.44869 0.13081 0.17811 0.0
C2788 C 0.4345 0.10768 0.10783 0.0
H2789 H 0.45213 0.08822 0.06971 0.0
C2790 C 0.42783 0.11261 0.08515 0.0
C2791 C 0.44267 0.09809 0.10229 0.0
C2792 C 0.44904 0.09142 0.12591 0.0
C2793 C 0.43002 0.10909 0.05692 0.0
C2794 C 0.4394 0.10071 0.0513 0.0
C2795 C 0.44515 0.09486 0.07404 0.0
C2796 C 0.44442 0.09897 0.02209 0.0
C2797 C 0.42249 0.1146 0.03337 0.0
C2798 C 0.44001 0.08285 0.01104 0.0
C2799 C 0.44548 0.08141 0.98388 0.0
C2800 C 0.45555 0.0961 0.96743 0.0
C2801 C 0.45997 0.11222 0.97869 0.0
C2802 C 0.45453 0.11362 0.00578 0.0
H2803 H 0.41135 0.11554 0.041 0.0
H2804 H 0.43228 0.12743 0.02568 0.0
H2805 H 0.41837 0.10556 0.01519 0.0
H2806 H 0.43236 0.07139 0.02344 0.0
H2807 H 0.44187 0.06881 0.97586 0.0
H2808 H 0.86149 0.32214 0.19114 0.0
H2809 H 0.87023 0.33274 0.14289 0.0
H2810 H 0.89905 0.30655 0.13758 0.0
H2811 H 0.89014 0.29559 0.18594 0.0
H2812 H 0.90312 0.35292 0.12084 0.0
H2813 H 0.86811 0.28969 0.06699 0.0
H2814 H 0.86403 0.29277 0.10344 0.0
H2815 H 0.88272 0.29155 0.09456 0.0
C2816 C 0.86966 0.31857 0.17978 0.0
C2817 C 0.87503 0.30792 0.19237 0.0
C2818 C 0.87468 0.32469 0.1522 0.0
C2819 C 0.88513 0.32029 0.1366 0.0
C2820 C 0.89074 0.30986 0.14914 0.0
H2821 H 0.92844 0.37125 0.97321 0.0
H2822 H 0.92611 0.36019 0.02155 0.0
C2823 C 0.88569 0.30367 0.17679 0.0
C2824 C 0.88996 0.32666 0.10717 0.0
H2825 H 0.8837 0.31381 0.03786 0.0
C2826 C 0.89903 0.34439 0.10266 0.0
C2827 C 0.88448 0.31546 0.08359 0.0
C2828 C 0.87418 0.2963 0.08721 0.0
C2829 C 0.90239 0.35127 0.07512 0.0
C2830 C 0.89676 0.34007 0.05153 0.0
C2831 C 0.88808 0.32233 0.05604 0.0
C2832 C 0.89845 0.34645 0.02207 0.0
C2833 C 0.91126 0.37042 0.0715 0.0
C2834 C 0.88368 0.34207 0.00622 0.0
C2835 C 0.88495 0.34825 0.97864 0.0
C2836 C 0.90104 0.35894 0.96632 0.0
C2837 C 0.91585 0.36315 0.98215 0.0
C2838 C 0.91456 0.3569 0.00979 0.0
H2839 H 0.91168 0.37703 0.09166 0.0
H2840 H 0.9246 0.3752 0.06438 0.0
H2841 H 0.90473 0.37396 0.05509 0.0
H2842 H 0.87113 0.334 0.01534 0.0
H2843 H 0.87328 0.34471 0.96706 0.0
H2844 H 0.70904 0.59015 0.17529 0.0
H2845 H 0.69636 0.58498 0.1278 0.0
H2846 H 0.65273 0.5384 0.15766 0.0
H2847 H 0.66561 0.54314 0.20477 0.0
H2848 H 0.66435 0.53278 0.11055 0.0
H2849 H 0.6583 0.59027 0.09521 0.0
H2850 H 0.67978 0.59566 0.10359 0.0
H2851 H 0.66306 0.58452 0.12935 0.0
C2852 C 0.69666 0.57891 0.17178 0.0
C2853 C 0.68835 0.56702 0.19371 0.0
C2854 C 0.68936 0.57604 0.14468 0.0
C2855 C 0.67346 0.56143 0.13925 0.0
C2856 C 0.66499 0.54977 0.16135 0.0
H2857 H 0.61662 0.54165 0.97983 0.0
H2858 H 0.6262 0.54868 0.02927 0.0
C2859 C 0.67238 0.55249 0.18826 0.0
C2860 C 0.66624 0.55753 0.1101 0.0
H2861 H 0.65554 0.57388 0.05338 0.0
C2862 C 0.66228 0.54172 0.09818 0.0
C2863 C 0.6633 0.56908 0.09408 0.0
C2864 C 0.66616 0.58574 0.10632 0.0
C2865 C 0.65584 0.53729 0.07051 0.0
C2866 C 0.65383 0.54923 0.05391 0.0
C2867 C 0.65733 0.56485 0.06602 0.0
C2868 C 0.6484 0.54577 0.02378 0.0
C2869 C 0.65107 0.51976 0.0595 0.0
C2870 C 0.65794 0.54223 0.00422 0.0
C2871 C 0.65241 0.53802 0.97619 0.0
C2872 C 0.63739 0.53758 0.96699 0.0
C2873 C 0.62821 0.54181 0.98632 0.0
C2874 C 0.63367 0.54585 0.01453 0.0
H2875 H 0.64824 0.51055 0.07717 0.0
H2876 H 0.63975 0.51462 0.04531 0.0
H2877 H 0.66196 0.52059 0.04725 0.0
H2878 H 0.66961 0.54258 0.01071 0.0
H2879 H 0.65993 0.53509 0.96173 0.0
H2880 H 0.55663 0.92838 0.0222 0.0
H2881 H 0.56577 0.92641 0.97399 0.0
H2882 H 0.53807 0.8714 0.97994 0.0
H2883 H 0.52911 0.87319 0.02808 0.0
H2884 H 0.57094 0.88466 0.95775 0.0
H2885 H 0.53482 0.91153 0.90351 0.0
H2886 H 0.54933 0.92462 0.93093 0.0
H2887 H 0.53094 0.90452 0.94005 0.0
C2888 C 0.55248 0.91587 0.01324 0.0
C2889 C 0.54206 0.90094 0.02895 0.0
C2890 C 0.55767 0.91477 0.98567 0.0
C2891 C 0.55242 0.89876 0.97333 0.0
C2892 C 0.54224 0.88388 0.98909 0.0
H2893 H 0.54177 0.86262 0.80373 0.0
H2894 H 0.53919 0.87109 0.85185 0.0
C2895 C 0.53709 0.88495 0.0166 0.0
C2896 C 0.55733 0.89727 0.94392 0.0
H2897 H 0.55099 0.90364 0.87452 0.0
C2898 C 0.56673 0.88894 0.93952 0.0
C2899 C 0.55168 0.90277 0.92026 0.0
C2900 C 0.54101 0.91124 0.92375 0.0
C2901 C 0.57028 0.88556 0.91202 0.0
C2902 C 0.56451 0.89094 0.88836 0.0
C2903 C 0.55547 0.89964 0.89276 0.0
C2904 C 0.56645 0.8864 0.85892 0.0
C2905 C 0.57951 0.87561 0.90852 0.0
C2906 C 0.58266 0.89236 0.84684 0.0
C2907 C 0.58421 0.88746 0.81929 0.0
C2908 C 0.56954 0.87661 0.80333 0.0
C2909 C 0.55334 0.87094 0.81541 0.0
C2910 C 0.55182 0.87581 0.8429 0.0
H2911 H 0.57999 0.86947 0.9287 0.0
H2912 H 0.57323 0.86556 0.89204 0.0
H2913 H 0.59284 0.88442 0.90159 0.0
H2914 H 0.5941 0.90078 0.85871 0.0
H2915 H 0.59687 0.89215 0.81054 0.0
H2916 H 0.12387 0.65608 0.02083 0.0
H2917 H 0.12506 0.66696 0.97303 0.0
H2918 H 0.07007 0.63776 0.96742 0.0
H2919 H 0.06871 0.62654 0.01539 0.0
H2920 H 0.08624 0.6344 0.92 0.0
H2921 H 0.11305 0.7027 0.94692 0.0
H2922 H 0.12541 0.69407 0.96186 0.0
H2923 H 0.10367 0.68594 0.97327 0.0
C2924 C 0.11199 0.65199 0.00958 0.0
C2925 C 0.09618 0.64045 0.022 0.0
C2926 C 0.1127 0.65835 0.9823 0.0
C2927 C 0.09764 0.65344 0.96694 0.0
C2928 C 0.08183 0.64183 0.97909 0.0
H2929 H 0.10854 0.70447 0.80279 0.0
H2930 H 0.09786 0.69274 0.8502 0.0
C2931 C 0.08109 0.63543 0.00646 0.0
C2932 C 0.09867 0.65982 0.93762 0.0
H2933 H 0.11661 0.69649 0.89837 0.0
C2934 C 0.09261 0.64797 0.91525 0.0
C2935 C 0.1067 0.6775 0.9315 0.0
C2936 C 0.11241 0.69077 0.95469 0.0
C2937 C 0.09534 0.65338 0.88683 0.0
C2938 C 0.10462 0.67108 0.88074 0.0
C2939 C 0.10971 0.68291 0.90309 0.0
C2940 C 0.1103 0.67758 0.85157 0.0
C2941 C 0.0885 0.64008 0.86361 0.0
C2942 C 0.12099 0.6731 0.83685 0.0
C2943 C 0.12711 0.67975 0.80988 0.0
C2944 C 0.12277 0.69116 0.79713 0.0
C2945 C 0.1121 0.6957 0.81198 0.0
C2946 C 0.10597 0.689 0.83904 0.0
H2947 H 0.07729 0.62799 0.87105 0.0
H2948 H 0.0847 0.64471 0.84462 0.0
H2949 H 0.09858 0.63715 0.8572 0.0
H2950 H 0.12486 0.66466 0.84645 0.0
H2951 H 0.13536 0.67604 0.79915 0.0
H2952 H 0.34502 0.47248 0.0251 0.0
H2953 H 0.334 0.46258 0.97742 0.0
H2954 H 0.36245 0.43599 0.97263 0.0
H2955 H 0.37381 0.44606 0.02044 0.0
H2956 H 0.3662 0.45541 0.92495 0.0
H2957 H 0.29773 0.41493 0.95179 0.0
H2958 H 0.3067 0.43607 0.96626 0.0
H2959 H 0.31443 0.42223 0.97822 0.0
C2960 C 0.3489 0.46445 0.01406 0.0
C2961 C 0.36029 0.46004 0.02665 0.0
C2962 C 0.34246 0.45869 0.98686 0.0
C2963 C 0.34714 0.44828 0.97175 0.0
C2964 C 0.35856 0.44389 0.9841 0.0
H2965 H 0.29665 0.40636 0.80802 0.0
H2966 H 0.30807 0.40817 0.85593 0.0
C2967 C 0.36504 0.44966 0.01139 0.0
C2968 C 0.34076 0.44285 0.94246 0.0
H2969 H 0.30416 0.42406 0.90303 0.0
C2970 C 0.35265 0.44832 0.92015 0.0
C2971 C 0.32308 0.43333 0.93628 0.0
C2972 C 0.30975 0.42614 0.95944 0.0
C2973 C 0.34729 0.44538 0.89171 0.0
C2974 C 0.3296 0.43703 0.88551 0.0
C2975 C 0.31772 0.43067 0.90783 0.0
C2976 C 0.32319 0.43578 0.85616 0.0
C2977 C 0.36062 0.45147 0.86856 0.0
C2978 C 0.32775 0.45072 0.84065 0.0
C2979 C 0.32127 0.44975 0.81338 0.0
C2980 C 0.30997 0.4338 0.80113 0.0
C2981 C 0.30534 0.41884 0.8168 0.0
C2982 C 0.31186 0.41983 0.84415 0.0
H2983 H 0.3727 0.45246 0.87635 0.0
H2984 H 0.35601 0.44274 0.84995 0.0
H2985 H 0.36356 0.46437 0.86144 0.0
H2986 H 0.33613 0.46317 0.84981 0.0
H2987 H 0.32505 0.46154 0.802 0.0
H2988 H 0.0721 0.44385 0.51691 0.0
H2989 H 0.07363 0.43424 0.46885 0.0
H2990 H 0.12864 0.46061 0.47451 0.0
H2991 H 0.12728 0.47004 0.52245 0.0
H2992 H 0.0895 0.45391 0.42167 0.0
H2993 H 0.11736 0.41324 0.44782 0.0
H2994 H 0.1079 0.42039 0.47438 0.0
H2995 H 0.12952 0.43427 0.46268 0.0
C2996 C 0.08452 0.44751 0.50799 0.0
C2997 C 0.09956 0.45767 0.52358 0.0
C2998 C 0.08536 0.44199 0.48056 0.0
C2999 C 0.10123 0.44644 0.46838 0.0
C3000 C 0.11624 0.45667 0.4838 0.0
H3001 H 0.13696 0.46073 0.29858 0.0
H3002 H 0.12741 0.46214 0.34643 0.0
C3003 C 0.11543 0.46216 0.51115 0.0
C3004 C 0.10232 0.44125 0.43898 0.0
H3005 H 0.12031 0.42275 0.39925 0.0
C3006 C 0.09599 0.44687 0.41676 0.0
C3007 C 0.11052 0.43178 0.43264 0.0
C3008 C 0.11655 0.42441 0.45567 0.0
C3009 C 0.09852 0.44412 0.38826 0.0
C3010 C 0.10789 0.43582 0.38193 0.0
C3011 C 0.11334 0.42933 0.40415 0.0
C3012 C 0.11312 0.43473 0.35256 0.0
C3013 C 0.09132 0.45032 0.36522 0.0
C3014 C 0.10865 0.41884 0.34041 0.0
C3015 C 0.11424 0.41798 0.31306 0.0
C3016 C 0.1245 0.43302 0.29749 0.0
C3017 C 0.129 0.44889 0.30987 0.0
C3018 C 0.12344 0.44973 0.33716 0.0
H3019 H 0.08017 0.4512 0.37302 0.0
H3020 H 0.10127 0.4633 0.35838 0.0
H3021 H 0.08731 0.44174 0.34643 0.0
H3022 H 0.10083 0.40712 0.3521 0.0
H3023 H 0.11056 0.40555 0.30417 0.0
H3024 H 0.59645 0.70525 0.30697 0.0
H3025 H 0.59519 0.69353 0.35446 0.0
H3026 H 0.54011 0.66607 0.35057 0.0
H3027 H 0.5412 0.67742 0.30317 0.0
H3028 H 0.5806 0.69775 0.40232 0.0
H3029 H 0.55006 0.62901 0.37607 0.0
H3030 H 0.55946 0.64553 0.34935 0.0
H3031 H 0.53816 0.63842 0.36217 0.0
C3032 C 0.58407 0.6966 0.31613 0.0
C3033 C 0.56893 0.69224 0.30122 0.0
C3034 C 0.58339 0.68991 0.34324 0.0
C3035 C 0.56757 0.67868 0.35578 0.0
C3036 C 0.55246 0.67435 0.34098 0.0
H3037 H 0.53356 0.65887 0.52614 0.0
H3038 H 0.54298 0.66937 0.47807 0.0
C3039 C 0.55312 0.68099 0.31394 0.0
C3040 C 0.56665 0.67227 0.38508 0.0
H3041 H 0.54782 0.63582 0.42492 0.0
C3042 C 0.57368 0.6842 0.40725 0.0
C3043 C 0.55791 0.65459 0.39145 0.0
C3044 C 0.55113 0.64116 0.36845 0.0
C3045 C 0.5713 0.67894 0.43574 0.0
C3046 C 0.56135 0.66132 0.44216 0.0
C3047 C 0.55523 0.64935 0.41997 0.0
C3048 C 0.55614 0.65515 0.47162 0.0
C3049 C 0.57924 0.69233 0.4587 0.0
C3050 C 0.55999 0.64326 0.48368 0.0
C3051 C 0.55446 0.63706 0.5112 0.0
C3052 C 0.5449 0.64259 0.527 0.0
C3053 C 0.54098 0.65441 0.51469 0.0
C3054 C 0.54648 0.66055 0.48725 0.0
H3055 H 0.59067 0.70404 0.45069 0.0
H3056 H 0.56981 0.69599 0.46588 0.0
H3057 H 0.58305 0.68743 0.47732 0.0
H3058 H 0.56729 0.63881 0.47182 0.0
H3059 H 0.55767 0.62795 0.52003 0.0
H3060 H 0.32082 0.85924 0.29909 0.0
H3061 H 0.33174 0.8671 0.3474 0.0
H3062 H 0.30614 0.89634 0.3561 0.0
H3063 H 0.29487 0.88832 0.30772 0.0
H3064 H 0.35234 0.89951 0.37075 0.0
H3065 H 0.28939 0.86437 0.42537 0.0
H3066 H 0.29219 0.86082 0.3885 0.0
H3067 H 0.29122 0.87946 0.39874 0.0
C3068 C 0.31745 0.86732 0.31122 0.0
C3069 C 0.30687 0.87307 0.29957 0.0
C3070 C 0.32375 0.87183 0.33883 0.0
C3071 C 0.3196 0.88214 0.35539 0.0
C3072 C 0.30925 0.88813 0.34379 0.0
H3073 H 0.37155 0.92413 0.51836 0.0
H3074 H 0.36031 0.92193 0.4702 0.0
C3075 C 0.30289 0.88358 0.31612 0.0
C3076 C 0.32616 0.88647 0.38482 0.0
H3077 H 0.31368 0.87971 0.45432 0.0
C3078 C 0.34391 0.89531 0.38906 0.0
C3079 C 0.31509 0.88083 0.40858 0.0
C3080 C 0.29591 0.87072 0.40524 0.0
C3081 C 0.35093 0.89839 0.41649 0.0
C3082 C 0.33986 0.89268 0.44025 0.0
C3083 C 0.32211 0.88415 0.43601 0.0
C3084 C 0.3464 0.89427 0.46959 0.0
C3085 C 0.3701 0.90707 0.41978 0.0
C3086 C 0.34198 0.87946 0.48535 0.0
C3087 C 0.34827 0.88065 0.51283 0.0
C3088 C 0.35909 0.89671 0.52516 0.0
C3089 C 0.36334 0.91156 0.50942 0.0
C3090 C 0.35699 0.91034 0.48188 0.0
H3091 H 0.37654 0.90744 0.39945 0.0
H3092 H 0.37504 0.92042 0.42698 0.0
H3093 H 0.37363 0.90044 0.43598 0.0
H3094 H 0.3338 0.86693 0.47623 0.0
H3095 H 0.34469 0.86894 0.52434 0.0
loop_
_geom_bond_atom_site_label_1
_geom_bond_atom_site_label_2
_geom_bond_distance
_geom_bond_site_symmetry_2
_ccdc_geom_bond_type
O0 Cd1 2.223 . S
O0 C8 1.315 . S
Cd1 O0 2.223 . S
Cd1 O4 2.297 . S
Cd1 O5 2.439 1_554 S
Cd1 O11 2.240 . S
Cd2 O3 2.240 . S
Cd2 O10 2.223 . S
Cd2 O12 2.297 . S
Cd2 O13 2.439 . S
O3 Cd2 2.240 . S
O3 C8 1.279 . S
O4 Cd1 2.297 . S
O4 C6 1.247 1_554 S
O5 Cd1 2.439 1_556 S
O5 C6 1.208 . S
C6 O4 1.247 1_556 S
C6 O5 1.208 . S
C7 O12 1.247 . S
C7 O13 1.208 . S
C8 O0 1.315 . S
C8 O3 1.279 . S
C9 O10 1.315 . S
C9 O11 1.279 . S
O10 Cd2 2.223 . S
O10 C9 1.315 . S
O11 Cd1 2.240 . S
O11 C9 1.279 . S
O12 Cd2 2.297 . S
O12 C7 1.247 . S
O13 Cd2 2.439 . S
O13 C7 1.208 . S
O14 Cd15 2.223 . S
O14 C22 1.315 . S
Cd15 O14 2.223 . S
Cd15 O18 2.297 . S
Cd15 O19 2.439 1_554 S
Cd15 O25 2.253 . S
Cd16 O17 2.240 1_565 S
Cd16 O24 2.223 1_565 S
Cd16 O26 2.297 . S
Cd16 O27 2.439 . S
O17 Cd16 2.240 1_545 S
O17 C22 1.279 . S
O18 Cd15 2.297 . S
O18 C20 1.247 1_554 S
O19 Cd15 2.439 1_556 S
O19 C20 1.208 . S
C20 O18 1.247 1_556 S
C20 O19 1.208 . S
C21 O26 1.247 . S
C21 O27 1.208 . S
C22 O14 1.315 . S
C22 O17 1.279 . S
C23 O24 1.315 . S
C23 O25 1.276 . S
O24 Cd16 2.223 1_545 S
O24 C23 1.315 . S
O25 Cd15 2.253 . S
O25 C23 1.276 . S
O26 Cd16 2.297 . S
O26 C21 1.247 . S
O27 Cd16 2.439 . S
O27 C21 1.208 . S
O28 Cd29 2.223 . S
O28 C36 1.315 . S
Cd29 O28 2.223 . S
Cd29 O32 2.297 . S
Cd29 O33 2.439 1_554 S
Cd29 O39 2.245 . S
Cd30 O31 2.240 1_455 S
Cd30 O38 2.223 1_455 S
Cd30 O40 2.297 . S
Cd30 O41 2.439 . S
O31 Cd30 2.240 1_655 S
O31 C36 1.279 . S
O32 Cd29 2.297 . S
O32 C34 1.247 1_554 S
O33 Cd29 2.439 1_556 S
O33 C34 1.208 . S
C34 O32 1.247 1_556 S
C34 O33 1.208 . S
C35 O40 1.247 . S
C35 O41 1.208 . S
C36 O28 1.315 . S
C36 O31 1.279 . S
C37 O38 1.315 . S
C37 O39 1.289 . S
O38 Cd30 2.223 1_655 S
O38 C37 1.315 . S
O39 Cd29 2.245 . S
O39 C37 1.289 . S
O40 Cd30 2.297 . S
O40 C35 1.247 . S
O41 Cd30 2.439 . S
O41 C35 1.208 . S
O42 Cd43 2.223 . S
O42 C50 1.315 . S
Cd43 O42 2.223 . S
Cd43 O46 2.297 . S
Cd43 O47 2.439 . S
Cd43 O53 2.240 . S
Cd44 O45 2.240 . S
Cd44 O52 2.223 . S
Cd44 O54 2.297 . S
Cd44 O55 2.439 . S
O45 Cd44 2.240 . S
O45 C50 1.279 . S
O46 Cd43 2.297 . S
O46 C48 1.247 . S
O47 Cd43 2.439 . S
O47 C48 1.208 . S
C48 O46 1.247 . S
C48 O47 1.208 . S
C49 O54 1.247 . S
C49 O55 1.208 . S
C50 O42 1.315 . S
C50 O45 1.279 . S
C51 O52 1.315 . S
C51 O53 1.279 . S
O52 Cd44 2.223 . S
O52 C51 1.315 . S
O53 Cd43 2.240 . S
O53 C51 1.279 . S
O54 Cd44 2.297 . S
O54 C49 1.247 . S
O55 Cd44 2.439 . S
O55 C49 1.208 . S
O56 Cd57 2.223 . S
O56 C64 1.315 . S
Cd57 O56 2.223 . S
Cd57 O60 2.297 . S
Cd57 O61 2.439 . S
Cd57 O67 2.245 . S
Cd58 O59 2.240 1_545 S
Cd58 O66 2.223 1_545 S
Cd58 O68 2.297 . S
Cd58 O69 2.439 . S
O59 Cd58 2.240 1_565 S
O59 C64 1.279 . S
O60 Cd57 2.297 . S
O60 C62 1.247 . S
O61 Cd57 2.439 . S
O61 C62 1.208 . S
C62 O60 1.247 . S
C62 O61 1.208 . S
C63 O68 1.247 . S
C63 O69 1.208 . S
C64 O56 1.315 . S
C64 O59 1.279 . S
C65 O66 1.315 . S
C65 O67 1.289 . S
O66 Cd58 2.223 1_565 S
O66 C65 1.315 . S
O67 Cd57 2.245 . S
O67 C65 1.289 . S
O68 Cd58 2.297 . S
O68 C63 1.247 . S
O69 Cd58 2.439 . S
O69 C63 1.208 . S
O70 Cd71 2.223 . S
O70 C78 1.315 . S
Cd71 O70 2.223 . S
Cd71 O74 2.297 . S
Cd71 O75 2.439 . S
Cd71 O81 2.253 . S
Cd72 O73 2.240 1_655 S
Cd72 O80 2.223 1_655 S
Cd72 O82 2.297 . S
Cd72 O83 2.439 . S
O73 Cd72 2.240 1_455 S
O73 C78 1.279 . S
O74 Cd71 2.297 . S
O74 C76 1.247 . S
O75 Cd71 2.439 . S
O75 C76 1.208 . S
C76 O74 1.247 . S
C76 O75 1.208 . S
C77 O82 1.247 . S
C77 O83 1.208 . S
C78 O70 1.315 . S
C78 O73 1.279 . S
C79 O80 1.315 . S
C79 O81 1.276 . S
O80 Cd72 2.223 1_455 S
O80 C79 1.315 . S
O81 Cd71 2.253 . S
O81 C79 1.276 . S
O82 Cd72 2.297 . S
O82 C77 1.247 . S
O83 Cd72 2.439 . S
O83 C77 1.208 . S
O84 Cd85 2.223 . S
O84 C92 1.315 . S
Cd85 O84 2.223 . S
Cd85 O88 2.297 . S
Cd85 O89 2.439 1_556 S
Cd85 O95 2.240 . S
Cd86 O87 2.240 . S
Cd86 O94 2.223 . S
Cd86 O96 2.297 . S
Cd86 O97 2.439 . S
O87 Cd86 2.240 . S
O87 C92 1.279 . S
O88 Cd85 2.297 . S
O88 C90 1.247 1_556 S
O89 Cd85 2.439 1_554 S
O89 C90 1.208 . S
C90 O88 1.247 1_554 S
C90 O89 1.208 . S
C91 O96 1.247 . S
C91 O97 1.208 . S
C92 O84 1.315 . S
C92 O87 1.279 . S
C93 O94 1.315 . S
C93 O95 1.279 . S
O94 Cd86 2.223 . S
O94 C93 1.315 . S
O95 Cd85 2.240 . S
O95 C93 1.279 . S
O96 Cd86 2.297 . S
O96 C91 1.247 . S
O97 Cd86 2.439 . S
O97 C91 1.208 . S
O98 Cd99 2.223 . S
O98 C106 1.315 . S
Cd99 O98 2.223 . S
Cd99 O102 2.297 . S
Cd99 O103 2.439 1_556 S
Cd99 O109 2.253 . S
Cd100 O101 2.240 1_545 S
Cd100 O108 2.223 1_545 S
Cd100 O110 2.297 . S
Cd100 O111 2.439 . S
O101 Cd100 2.240 1_565 S
O101 C106 1.279 . S
O102 Cd99 2.297 . S
O102 C104 1.247 1_556 S
O103 Cd99 2.439 1_554 S
O103 C104 1.208 . S
C104 O102 1.247 1_554 S
C104 O103 1.208 . S
C105 O110 1.247 . S
C105 O111 1.208 . S
C106 O98 1.315 . S
C106 O101 1.279 . S
C107 O108 1.315 . S
C107 O109 1.276 . S
O108 Cd100 2.223 1_565 S
O108 C107 1.315 . S
O109 Cd99 2.253 . S
O109 C107 1.276 . S
O110 Cd100 2.297 . S
O110 C105 1.247 . S
O111 Cd100 2.439 . S
O111 C105 1.208 . S
O112 Cd113 2.223 . S
O112 C120 1.315 . S
Cd113 O112 2.223 . S
Cd113 O116 2.297 . S
Cd113 O117 2.439 1_556 S
Cd113 O123 2.245 . S
Cd114 O115 2.240 1_655 S
Cd114 O122 2.223 1_655 S
Cd114 O124 2.297 . S
Cd114 O125 2.439 . S
O115 Cd114 2.240 1_455 S
O115 C120 1.279 . S
O116 Cd113 2.297 . S
O116 C118 1.247 1_556 S
O117 Cd113 2.439 1_554 S
O117 C118 1.208 . S
C118 O116 1.247 1_554 S
C118 O117 1.208 . S
C119 O124 1.247 . S
C119 O125 1.208 . S
C120 O112 1.315 . S
C120 O115 1.279 . S
C121 O122 1.315 . S
C121 O123 1.289 . S
O122 Cd114 2.223 1_455 S
O122 C121 1.315 . S
O123 Cd113 2.245 . S
O123 C121 1.289 . S
O124 Cd114 2.297 . S
O124 C119 1.247 . S
O125 Cd114 2.439 . S
O125 C119 1.208 . S
O126 Cd127 2.223 . S
O126 C134 1.315 . S
Cd127 O126 2.223 . S
Cd127 O130 2.297 . S
Cd127 O131 2.439 . S
Cd127 O137 2.240 . S
Cd128 O129 2.240 . S
Cd128 O136 2.223 . S
Cd128 O138 2.297 . S
Cd128 O139 2.439 . S
O129 Cd128 2.240 . S
O129 C134 1.279 . S
O130 Cd127 2.297 . S
O130 C132 1.247 . S
O131 Cd127 2.439 . S
O131 C132 1.208 . S
C132 O130 1.247 . S
C132 O131 1.208 . S
C133 O138 1.247 . S
C133 O139 1.208 . S
C134 O126 1.315 . S
C134 O129 1.279 . S
C135 O136 1.315 . S
C135 O137 1.279 . S
O136 Cd128 2.223 . S
O136 C135 1.315 . S
O137 Cd127 2.240 . S
O137 C135 1.279 . S
O138 Cd128 2.297 . S
O138 C133 1.247 . S
O139 Cd128 2.439 . S
O139 C133 1.208 . S
O140 Cd141 2.223 . S
O140 C148 1.315 . S
Cd141 O140 2.223 . S
Cd141 O144 2.297 . S
Cd141 O145 2.439 . S
Cd141 O151 2.245 . S
Cd142 O143 2.240 1_565 S
Cd142 O150 2.223 1_565 S
Cd142 O152 2.297 . S
Cd142 O153 2.439 . S
O143 Cd142 2.240 1_545 S
O143 C148 1.279 . S
O144 Cd141 2.297 . S
O144 C146 1.247 . S
O145 Cd141 2.439 . S
O145 C146 1.208 . S
C146 O144 1.247 . S
C146 O145 1.208 . S
C147 O152 1.247 . S
C147 O153 1.208 . S
C148 O140 1.315 . S
C148 O143 1.279 . S
C149 O150 1.315 . S
C149 O151 1.289 . S
O150 Cd142 2.223 1_545 S
O150 C149 1.315 . S
O151 Cd141 2.245 . S
O151 C149 1.289 . S
O152 Cd142 2.297 . S
O152 C147 1.247 . S
O153 Cd142 2.439 . S
O153 C147 1.208 . S
O154 Cd155 2.223 . S
O154 C162 1.315 . S
Cd155 O154 2.223 . S
Cd155 O158 2.297 . S
Cd155 O159 2.439 . S
Cd155 O165 2.253 . S
Cd156 O157 2.240 1_455 S
Cd156 O164 2.223 1_455 S
Cd156 O166 2.297 . S
Cd156 O167 2.439 . S
O157 Cd156 2.240 1_655 S
O157 C162 1.279 . S
O158 Cd155 2.297 . S
O158 C160 1.247 . S
O159 Cd155 2.439 . S
O159 C160 1.208 . S
C160 O158 1.247 . S
C160 O159 1.208 . S
C161 O166 1.247 . S
C161 O167 1.208 . S
C162 O154 1.315 . S
C162 O157 1.279 . S
C163 O164 1.315 . S
C163 O165 1.276 . S
O164 Cd156 2.223 1_655 S
O164 C163 1.315 . S
O165 Cd155 2.253 . S
O165 C163 1.276 . S
O166 Cd156 2.297 . S
O166 C161 1.247 . S
O167 Cd156 2.439 . S
O167 C161 1.208 . S
O168 Cd169 2.223 . S
O168 C176 1.315 . S
Cd169 O168 2.223 . S
Cd169 O172 2.297 . S
Cd169 O173 2.439 . S
Cd169 O179 2.240 . S
Cd170 O171 2.240 . S
Cd170 O178 2.223 . S
Cd170 O180 2.297 . S
Cd170 O181 2.439 . S
O171 Cd170 2.240 . S
O171 C176 1.279 . S
O172 Cd169 2.297 . S
O172 C174 1.247 . S
O173 Cd169 2.439 . S
O173 C174 1.208 . S
C174 O172 1.247 . S
C174 O173 1.208 . S
C175 O180 1.247 . S
C175 O181 1.208 . S
C176 O168 1.315 . S
C176 O171 1.279 . S
C177 O178 1.315 . S
C177 O179 1.279 . S
O178 Cd170 2.223 . S
O178 C177 1.315 . S
O179 Cd169 2.240 . S
O179 C177 1.279 . S
O180 Cd170 2.297 . S
O180 C175 1.247 . S
O181 Cd170 2.439 . S
O181 C175 1.208 . S
O182 Cd183 2.223 . S
O182 C190 1.315 . S
Cd183 O182 2.223 . S
Cd183 O186 2.297 . S
Cd183 O187 2.439 . S
Cd183 O193 2.240 . S
Cd184 O185 2.240 . S
Cd184 O192 2.223 . S
Cd184 O194 2.297 . S
Cd184 O195 2.439 . S
O185 Cd184 2.240 . S
O185 C190 1.279 . S
O186 Cd183 2.297 . S
O186 C188 1.247 . S
O187 Cd183 2.439 . S
O187 C188 1.208 . S
C188 O186 1.247 . S
C188 O187 1.208 . S
C189 O194 1.247 . S
C189 O195 1.208 . S
C190 O182 1.315 . S
C190 O185 1.279 . S
C191 O192 1.315 . S
C191 O193 1.279 . S
O192 Cd184 2.223 . S
O192 C191 1.315 . S
O193 Cd183 2.240 . S
O193 C191 1.279 . S
O194 Cd184 2.297 . S
O194 C189 1.247 . S
O195 Cd184 2.439 . S
O195 C189 1.208 . S
O196 Cd197 2.223 . S
O196 C204 1.315 . S
Cd197 O196 2.223 . S
Cd197 O200 2.297 . S
Cd197 O201 2.439 . S
Cd197 O207 2.240 . S
Cd198 O199 2.240 . S
Cd198 O206 2.223 . S
Cd198 O208 2.297 . S
Cd198 O209 2.439 . S
O199 Cd198 2.240 . S
O199 C204 1.279 . S
O200 Cd197 2.297 . S
O200 C202 1.247 . S
O201 Cd197 2.439 . S
O201 C202 1.208 . S
C202 O200 1.247 . S
C202 O201 1.208 . S
C203 O208 1.247 . S
C203 O209 1.208 . S
C204 O196 1.315 . S
C204 O199 1.279 . S
C205 O206 1.315 . S
C205 O207 1.279 . S
O206 Cd198 2.223 . S
O206 C205 1.315 . S
O207 Cd197 2.240 . S
O207 C205 1.279 . S
O208 Cd198 2.297 . S
O208 C203 1.247 . S
O209 Cd198 2.439 . S
O209 C203 1.208 . S
O210 Cd211 2.223 . S
O210 C218 1.315 . S
Cd211 O210 2.223 . S
Cd211 O214 2.297 . S
Cd211 O215 2.439 . S
Cd211 O221 2.240 . S
Cd212 O213 2.240 . S
Cd212 O220 2.223 . S
Cd212 O222 2.297 . S
Cd212 O223 2.439 . S
O213 Cd212 2.240 . S
O213 C218 1.279 . S
O214 Cd211 2.297 . S
O214 C216 1.247 . S
O215 Cd211 2.439 . S
O215 C216 1.208 . S
C216 O214 1.247 . S
C216 O215 1.208 . S
C217 O222 1.247 . S
C217 O223 1.208 . S
C218 O210 1.315 . S
C218 O213 1.279 . S
C219 O220 1.315 . S
C219 O221 1.279 . S
O220 Cd212 2.223 . S
O220 C219 1.315 . S
O221 Cd211 2.240 . S
O221 C219 1.279 . S
O222 Cd212 2.297 . S
O222 C217 1.247 . S
O223 Cd212 2.439 . S
O223 C217 1.208 . S
O224 Cd225 2.223 . S
O224 C232 1.315 . S
Cd225 O224 2.223 . S
Cd225 O228 2.297 . S
Cd225 O229 2.439 . S
Cd225 O235 2.240 . S
Cd226 O227 2.240 . S
Cd226 O234 2.223 . S
Cd226 O236 2.297 . S
Cd226 O237 2.439 . S
O227 Cd226 2.240 . S
O227 C232 1.279 . S
O228 Cd225 2.297 . S
O228 C230 1.247 . S
O229 Cd225 2.439 . S
O229 C230 1.208 . S
C230 O228 1.247 . S
C230 O229 1.208 . S
C231 O236 1.247 . S
C231 O237 1.208 . S
C232 O224 1.315 . S
C232 O227 1.279 . S
C233 O234 1.315 . S
C233 O235 1.279 . S
O234 Cd226 2.223 . S
O234 C233 1.315 . S
O235 Cd225 2.240 . S
O235 C233 1.279 . S
O236 Cd226 2.297 . S
O236 C231 1.247 . S
O237 Cd226 2.439 . S
O237 C231 1.208 . S
O238 Cd239 2.223 . S
O238 C246 1.315 . S
Cd239 O238 2.223 . S
Cd239 O242 2.297 . S
Cd239 O243 2.439 . S
Cd239 O249 2.240 . S
Cd240 O241 2.240 . S
Cd240 O248 2.223 . S
Cd240 O250 2.297 . S
Cd240 O251 2.439 . S
O241 Cd240 2.240 . S
O241 C246 1.279 . S
O242 Cd239 2.297 . S
O242 C244 1.247 . S
O243 Cd239 2.439 . S
O243 C244 1.208 . S
C244 O242 1.247 . S
C244 O243 1.208 . S
C245 O250 1.247 . S
C245 O251 1.208 . S
C246 O238 1.315 . S
C246 O241 1.279 . S
C247 O248 1.315 . S
C247 O249 1.279 . S
O248 Cd240 2.223 . S
O248 C247 1.315 . S
O249 Cd239 2.240 . S
O249 C247 1.279 . S
O250 Cd240 2.297 . S
O250 C245 1.247 . S
O251 Cd240 2.439 . S
O251 C245 1.208 . S
O252 Cd253 2.223 . S
O252 C260 1.315 . S
Cd253 O252 2.223 . S
Cd253 O256 2.297 . S
Cd253 O257 2.439 . S
Cd253 O263 2.240 . S
Cd254 O255 2.240 . S
Cd254 O262 2.223 . S
Cd254 O264 2.297 . S
Cd254 O265 2.439 . S
O255 Cd254 2.240 . S
O255 C260 1.279 . S
O256 Cd253 2.297 . S
O256 C258 1.247 . S
O257 Cd253 2.439 . S
O257 C258 1.208 . S
C258 O256 1.247 . S
C258 O257 1.208 . S
C259 O264 1.247 . S
C259 O265 1.208 . S
C260 O252 1.315 . S
C260 O255 1.279 . S
C261 O262 1.315 . S
C261 O263 1.279 . S
O262 Cd254 2.223 . S
O262 C261 1.315 . S
O263 Cd253 2.240 . S
O263 C261 1.279 . S
O264 Cd254 2.297 . S
O264 C259 1.247 . S
O265 Cd254 2.439 . S
O265 C259 1.208 . S
O266 Cd267 2.223 . S
O266 C274 1.315 . S
Cd267 O266 2.223 . S
Cd267 O270 2.297 . S
Cd267 O271 2.439 . S
Cd267 O277 2.240 . S
Cd268 O269 2.240 . S
Cd268 O276 2.223 . S
Cd268 O278 2.297 . S
Cd268 O279 2.439 . S
O269 Cd268 2.240 . S
O269 C274 1.279 . S
O270 Cd267 2.297 . S
O270 C272 1.247 . S
O271 Cd267 2.439 . S
O271 C272 1.208 . S
C272 O270 1.247 . S
C272 O271 1.208 . S
C273 O278 1.247 . S
C273 O279 1.208 . S
C274 O266 1.315 . S
C274 O269 1.279 . S
C275 O276 1.315 . S
C275 O277 1.279 . S
O276 Cd268 2.223 . S
O276 C275 1.315 . S
O277 Cd267 2.240 . S
O277 C275 1.279 . S
O278 Cd268 2.297 . S
O278 C273 1.247 . S
O279 Cd268 2.439 . S
O279 C273 1.208 . S
O280 Cd281 2.223 . S
O280 C288 1.315 . S
Cd281 O280 2.223 . S
Cd281 O284 2.297 . S
Cd281 O285 2.439 . S
Cd281 O291 2.240 . S
Cd282 O283 2.240 . S
Cd282 O290 2.223 . S
Cd282 O292 2.297 . S
Cd282 O293 2.439 . S
O283 Cd282 2.240 . S
O283 C288 1.279 . S
O284 Cd281 2.297 . S
O284 C286 1.247 . S
O285 Cd281 2.439 . S
O285 C286 1.208 . S
C286 O284 1.247 . S
C286 O285 1.208 . S
C287 O292 1.247 . S
C287 O293 1.208 . S
C288 O280 1.315 . S
C288 O283 1.279 . S
C289 O290 1.315 . S
C289 O291 1.279 . S
O290 Cd282 2.223 . S
O290 C289 1.315 . S
O291 Cd281 2.240 . S
O291 C289 1.279 . S
O292 Cd282 2.297 . S
O292 C287 1.247 . S
O293 Cd282 2.439 . S
O293 C287 1.208 . S
O294 Cd295 2.223 . S
O294 C302 1.315 . S
Cd295 O294 2.223 . S
Cd295 O298 2.297 . S
Cd295 O299 2.439 . S
Cd295 O305 2.240 . S
Cd296 O297 2.240 . S
Cd296 O304 2.223 . S
Cd296 O306 2.297 . S
Cd296 O307 2.439 . S
O297 Cd296 2.240 . S
O297 C302 1.279 . S
O298 Cd295 2.297 . S
O298 C300 1.247 . S
O299 Cd295 2.439 . S
O299 C300 1.208 . S
C300 O298 1.247 . S
C300 O299 1.208 . S
C301 O306 1.247 . S
C301 O307 1.208 . S
C302 O294 1.315 . S
C302 O297 1.279 . S
C303 O304 1.315 . S
C303 O305 1.279 . S
O304 Cd296 2.223 . S
O304 C303 1.315 . S
O305 Cd295 2.240 . S
O305 C303 1.279 . S
O306 Cd296 2.297 . S
O306 C301 1.247 . S
O307 Cd296 2.439 . S
O307 C301 1.208 . S
O308 Cd309 2.223 . S
O308 C316 1.315 . S
Cd309 O308 2.223 . S
Cd309 O312 2.297 . S
Cd309 O313 2.439 . S
Cd309 O319 2.240 . S
Cd310 O311 2.240 . S
Cd310 O318 2.223 . S
Cd310 O320 2.297 . S
Cd310 O321 2.439 . S
O311 Cd310 2.240 . S
O311 C316 1.279 . S
O312 Cd309 2.297 . S
O312 C314 1.247 . S
O313 Cd309 2.439 . S
O313 C314 1.208 . S
C314 O312 1.247 . S
C314 O313 1.208 . S
C315 O320 1.247 . S
C315 O321 1.208 . S
C316 O308 1.315 . S
C316 O311 1.279 . S
C317 O318 1.315 . S
C317 O319 1.279 . S
O318 Cd310 2.223 . S
O318 C317 1.315 . S
O319 Cd309 2.240 . S
O319 C317 1.279 . S
O320 Cd310 2.297 . S
O320 C315 1.247 . S
O321 Cd310 2.439 . S
O321 C315 1.208 . S
O322 Cd323 2.223 . S
O322 C330 1.315 . S
Cd323 O322 2.223 . S
Cd323 O326 2.297 . S
Cd323 O327 2.439 . S
Cd323 O333 2.240 . S
Cd324 O325 2.240 . S
Cd324 O332 2.223 . S
Cd324 O334 2.297 . S
Cd324 O335 2.439 . S
O325 Cd324 2.240 . S
O325 C330 1.279 . S
O326 Cd323 2.297 . S
O326 C328 1.247 . S
O327 Cd323 2.439 . S
O327 C328 1.208 . S
C328 O326 1.247 . S
C328 O327 1.208 . S
C329 O334 1.247 . S
C329 O335 1.208 . S
C330 O322 1.315 . S
C330 O325 1.279 . S
C331 O332 1.315 . S
C331 O333 1.279 . S
O332 Cd324 2.223 . S
O332 C331 1.315 . S
O333 Cd323 2.240 . S
O333 C331 1.279 . S
O334 Cd324 2.297 . S
O334 C329 1.247 . S
O335 Cd324 2.439 . S
O335 C329 1.208 . S
O336 Cd337 2.223 . S
O336 C344 1.315 . S
Cd337 O336 2.223 . S
Cd337 O340 2.297 . S
Cd337 O341 2.439 . S
Cd337 O347 2.240 . S
Cd338 O339 2.240 . S
Cd338 O346 2.223 . S
Cd338 O348 2.297 . S
Cd338 O349 2.439 . S
O339 Cd338 2.240 . S
O339 C344 1.279 . S
O340 Cd337 2.297 . S
O340 C342 1.247 . S
O341 Cd337 2.439 . S
O341 C342 1.208 . S
C342 O340 1.247 . S
C342 O341 1.208 . S
C343 O348 1.247 . S
C343 O349 1.208 . S
C344 O336 1.315 . S
C344 O339 1.279 . S
C345 O346 1.315 . S
C345 O347 1.279 . S
O346 Cd338 2.223 . S
O346 C345 1.315 . S
O347 Cd337 2.240 . S
O347 C345 1.279 . S
O348 Cd338 2.297 . S
O348 C343 1.247 . S
O349 Cd338 2.439 . S
O349 C343 1.208 . S
O350 Cd351 2.223 . S
O350 C358 1.315 . S
Cd351 O350 2.223 . S
Cd351 O354 2.297 . S
Cd351 O355 2.439 . S
Cd351 O361 2.240 . S
Cd352 O353 2.240 . S
Cd352 O360 2.223 . S
Cd352 O362 2.297 . S
Cd352 O363 2.439 . S
O353 Cd352 2.240 . S
O353 C358 1.279 . S
O354 Cd351 2.297 . S
O354 C356 1.247 . S
O355 Cd351 2.439 . S
O355 C356 1.208 . S
C356 O354 1.247 . S
C356 O355 1.208 . S
C357 O362 1.247 . S
C357 O363 1.208 . S
C358 O350 1.315 . S
C358 O353 1.279 . S
C359 O360 1.315 . S
C359 O361 1.279 . S
O360 Cd352 2.223 . S
O360 C359 1.315 . S
O361 Cd351 2.240 . S
O361 C359 1.279 . S
O362 Cd352 2.297 . S
O362 C357 1.247 . S
O363 Cd352 2.439 . S
O363 C357 1.208 . S
O364 Cd365 2.223 . S
O364 C372 1.315 . S
Cd365 O364 2.223 . S
Cd365 O368 2.297 . S
Cd365 O369 2.439 . S
Cd365 O375 2.240 . S
Cd366 O367 2.240 . S
Cd366 O374 2.223 . S
Cd366 O376 2.297 . S
Cd366 O377 2.439 . S
O367 Cd366 2.240 . S
O367 C372 1.279 . S
O368 Cd365 2.297 . S
O368 C370 1.247 . S
O369 Cd365 2.439 . S
O369 C370 1.208 . S
C370 O368 1.247 . S
C370 O369 1.208 . S
C371 O376 1.247 . S
C371 O377 1.208 . S
C372 O364 1.315 . S
C372 O367 1.279 . S
C373 O374 1.315 . S
C373 O375 1.279 . S
O374 Cd366 2.223 . S
O374 C373 1.315 . S
O375 Cd365 2.240 . S
O375 C373 1.279 . S
O376 Cd366 2.297 . S
O376 C371 1.247 . S
O377 Cd366 2.439 . S
O377 C371 1.208 . S
O378 Cd379 2.223 . S
O378 C386 1.315 . S
Cd379 O378 2.223 . S
Cd379 O382 2.297 . S
Cd379 O383 2.439 . S
Cd379 O389 2.240 . S
Cd380 O381 2.240 . S
Cd380 O388 2.223 . S
Cd380 O390 2.297 . S
Cd380 O391 2.439 . S
O381 Cd380 2.240 . S
O381 C386 1.279 . S
O382 Cd379 2.297 . S
O382 C384 1.247 . S
O383 Cd379 2.439 . S
O383 C384 1.208 . S
C384 O382 1.247 . S
C384 O383 1.208 . S
C385 O390 1.247 . S
C385 O391 1.208 . S
C386 O378 1.315 . S
C386 O381 1.279 . S
C387 O388 1.315 . S
C387 O389 1.279 . S
O388 Cd380 2.223 . S
O388 C387 1.315 . S
O389 Cd379 2.240 . S
O389 C387 1.279 . S
O390 Cd380 2.297 . S
O390 C385 1.247 . S
O391 Cd380 2.439 . S
O391 C385 1.208 . S
O392 Cd393 2.223 . S
O392 C400 1.315 . S
Cd393 O392 2.223 . S
Cd393 O396 2.297 . S
Cd393 O397 2.439 . S
Cd393 O403 2.240 . S
Cd394 O395 2.240 . S
Cd394 O402 2.223 . S
Cd394 O404 2.297 . S
Cd394 O405 2.439 . S
O395 Cd394 2.240 . S
O395 C400 1.279 . S
O396 Cd393 2.297 . S
O396 C398 1.247 . S
O397 Cd393 2.439 . S
O397 C398 1.208 . S
C398 O396 1.247 . S
C398 O397 1.208 . S
C399 O404 1.247 . S
C399 O405 1.208 . S
C400 O392 1.315 . S
C400 O395 1.279 . S
C401 O402 1.315 . S
C401 O403 1.279 . S
O402 Cd394 2.223 . S
O402 C401 1.315 . S
O403 Cd393 2.240 . S
O403 C401 1.279 . S
O404 Cd394 2.297 . S
O404 C399 1.247 . S
O405 Cd394 2.439 . S
O405 C399 1.208 . S
O406 Cd407 2.223 . S
O406 C414 1.315 . S
Cd407 O406 2.223 . S
Cd407 O410 2.297 . S
Cd407 O411 2.439 . S
Cd407 O417 2.240 . S
Cd408 O409 2.240 . S
Cd408 O416 2.223 . S
Cd408 O418 2.297 . S
Cd408 O419 2.439 . S
O409 Cd408 2.240 . S
O409 C414 1.279 . S
O410 Cd407 2.297 . S
O410 C412 1.247 . S
O411 Cd407 2.439 . S
O411 C412 1.208 . S
C412 O410 1.247 . S
C412 O411 1.208 . S
C413 O418 1.247 . S
C413 O419 1.208 . S
C414 O406 1.315 . S
C414 O409 1.279 . S
C415 O416 1.315 . S
C415 O417 1.279 . S
O416 Cd408 2.223 . S
O416 C415 1.315 . S
O417 Cd407 2.240 . S
O417 C415 1.279 . S
O418 Cd408 2.297 . S
O418 C413 1.247 . S
O419 Cd408 2.439 . S
O419 C413 1.208 . S
O420 Cd421 2.223 . S
O420 C428 1.315 . S
Cd421 O420 2.223 . S
Cd421 O424 2.297 . S
Cd421 O425 2.439 . S
Cd421 O431 2.240 . S
Cd422 O423 2.240 . S
Cd422 O430 2.223 . S
Cd422 O432 2.297 . S
Cd422 O433 2.439 . S
O423 Cd422 2.240 . S
O423 C428 1.279 . S
O424 Cd421 2.297 . S
O424 C426 1.247 . S
O425 Cd421 2.439 . S
O425 C426 1.208 . S
C426 O424 1.247 . S
C426 O425 1.208 . S
C427 O432 1.247 . S
C427 O433 1.208 . S
C428 O420 1.315 . S
C428 O423 1.279 . S
C429 O430 1.315 . S
C429 O431 1.279 . S
O430 Cd422 2.223 . S
O430 C429 1.315 . S
O431 Cd421 2.240 . S
O431 C429 1.279 . S
O432 Cd422 2.297 . S
O432 C427 1.247 . S
O433 Cd422 2.439 . S
O433 C427 1.208 . S
O434 Cd435 2.223 . S
O434 C442 1.315 . S
Cd435 O434 2.223 . S
Cd435 O438 2.297 . S
Cd435 O439 2.439 . S
Cd435 O445 2.240 . S
Cd436 O437 2.240 . S
Cd436 O444 2.223 . S
Cd436 O446 2.297 . S
Cd436 O447 2.439 . S
O437 Cd436 2.240 . S
O437 C442 1.279 . S
O438 Cd435 2.297 . S
O438 C440 1.247 . S
O439 Cd435 2.439 . S
O439 C440 1.208 . S
C440 O438 1.247 . S
C440 O439 1.208 . S
C441 O446 1.247 . S
C441 O447 1.208 . S
C442 O434 1.315 . S
C442 O437 1.279 . S
C443 O444 1.315 . S
C443 O445 1.279 . S
O444 Cd436 2.223 . S
O444 C443 1.315 . S
O445 Cd435 2.240 . S
O445 C443 1.279 . S
O446 Cd436 2.297 . S
O446 C441 1.247 . S
O447 Cd436 2.439 . S
O447 C441 1.208 . S
O448 Cd449 2.223 . S
O448 C456 1.315 . S
Cd449 O448 2.223 . S
Cd449 O452 2.297 . S
Cd449 O453 2.439 . S
Cd449 O459 2.240 . S
Cd450 O451 2.240 . S
Cd450 O458 2.223 . S
Cd450 O460 2.297 . S
Cd450 O461 2.439 . S
O451 Cd450 2.240 . S
O451 C456 1.279 . S
O452 Cd449 2.297 . S
O452 C454 1.247 . S
O453 Cd449 2.439 . S
O453 C454 1.208 . S
C454 O452 1.247 . S
C454 O453 1.208 . S
C455 O460 1.247 . S
C455 O461 1.208 . S
C456 O448 1.315 . S
C456 O451 1.279 . S
C457 O458 1.315 . S
C457 O459 1.279 . S
O458 Cd450 2.223 . S
O458 C457 1.315 . S
O459 Cd449 2.240 . S
O459 C457 1.279 . S
O460 Cd450 2.297 . S
O460 C455 1.247 . S
O461 Cd450 2.439 . S
O461 C455 1.208 . S
O462 Cd463 2.223 . S
O462 C470 1.315 . S
Cd463 O462 2.223 . S
Cd463 O466 2.297 . S
Cd463 O467 2.439 . S
Cd463 O473 2.240 . S
Cd464 O465 2.240 . S
Cd464 O472 2.223 . S
Cd464 O474 2.297 . S
Cd464 O475 2.439 . S
O465 Cd464 2.240 . S
O465 C470 1.279 . S
O466 Cd463 2.297 . S
O466 C468 1.247 . S
O467 Cd463 2.439 . S
O467 C468 1.208 . S
C468 O466 1.247 . S
C468 O467 1.208 . S
C469 O474 1.247 . S
C469 O475 1.208 . S
C470 O462 1.315 . S
C470 O465 1.279 . S
C471 O472 1.315 . S
C471 O473 1.279 . S
O472 Cd464 2.223 . S
O472 C471 1.315 . S
O473 Cd463 2.240 . S
O473 C471 1.279 . S
O474 Cd464 2.297 . S
O474 C469 1.247 . S
O475 Cd464 2.439 . S
O475 C469 1.208 . S
O476 Cd477 2.223 . S
O476 C484 1.315 . S
Cd477 O476 2.223 . S
Cd477 O480 2.297 . S
Cd477 O481 2.439 . S
Cd477 O487 2.240 . S
Cd478 O479 2.240 . S
Cd478 O486 2.223 . S
Cd478 O488 2.297 . S
Cd478 O489 2.439 . S
O479 Cd478 2.240 . S
O479 C484 1.279 . S
O480 Cd477 2.297 . S
O480 C482 1.247 . S
O481 Cd477 2.439 . S
O481 C482 1.208 . S
C482 O480 1.247 . S
C482 O481 1.208 . S
C483 O488 1.247 . S
C483 O489 1.208 . S
C484 O476 1.315 . S
C484 O479 1.279 . S
C485 O486 1.315 . S
C485 O487 1.279 . S
O486 Cd478 2.223 . S
O486 C485 1.315 . S
O487 Cd477 2.240 . S
O487 C485 1.279 . S
O488 Cd478 2.297 . S
O488 C483 1.247 . S
O489 Cd478 2.439 . S
O489 C483 1.208 . S
O490 Cd491 2.223 . S
O490 C498 1.315 . S
Cd491 O490 2.223 . S
Cd491 O494 2.297 . S
Cd491 O495 2.439 . S
Cd491 O501 2.240 . S
Cd492 O493 2.240 . S
Cd492 O500 2.223 . S
Cd492 O502 2.297 . S
Cd492 O503 2.439 . S
O493 Cd492 2.240 . S
O493 C498 1.279 . S
O494 Cd491 2.297 . S
O494 C496 1.247 . S
O495 Cd491 2.439 . S
O495 C496 1.208 . S
C496 O494 1.247 . S
C496 O495 1.208 . S
C497 O502 1.247 . S
C497 O503 1.208 . S
C498 O490 1.315 . S
C498 O493 1.279 . S
C499 O500 1.315 . S
C499 O501 1.279 . S
O500 Cd492 2.223 . S
O500 C499 1.315 . S
O501 Cd491 2.240 . S
O501 C499 1.279 . S
O502 Cd492 2.297 . S
O502 C497 1.247 . S
O503 Cd492 2.439 . S
O503 C497 1.208 . S
H504 C512 0.929 . S
H505 C514 0.930 . S
H506 C516 0.930 . S
H507 C519 0.929 . S
H508 C522 0.930 . S
H509 C524 0.960 . S
H510 C524 0.960 . S
H511 C524 0.960 . S
C512 H504 0.929 . S
C512 C513 1.377 . S
C512 C514 1.384 . S
C513 C512 1.377 . S
C513 C519 1.390 . S
C514 H505 0.930 . S
C514 C512 1.384 . S
C514 C515 1.372 . S
C515 C514 1.372 . S
C515 C516 1.400 . S
C515 C520 1.490 . S
C516 H506 0.930 . S
C516 C515 1.400 . S
C516 C519 1.386 . S
H517 C533 0.930 1_554 S
H518 C534 0.931 . S
C519 H507 0.929 . S
C519 C513 1.390 . S
C519 C516 1.386 . S
C520 C515 1.490 . S
C520 C522 1.395 . S
C520 C523 1.403 . S
H521 C527 0.930 . S
C522 H508 0.930 . S
C522 C520 1.395 . S
C522 C525 1.403 . S
C523 C520 1.403 . S
C523 C524 1.524 . S
C523 C527 1.400 . S
C524 H509 0.960 . S
C524 H510 0.960 . S
C524 H511 0.960 . S
C524 C523 1.524 . S
C525 C522 1.403 . S
C525 C526 1.392 . S
C525 C529 1.495 . S
C526 C525 1.392 . S
C526 C527 1.385 . S
C526 C528 1.478 . S
C527 H521 0.930 . S
C527 C523 1.400 . S
C527 C526 1.385 . S
C528 C526 1.478 . S
C528 C530 1.381 . S
C528 C534 1.383 . S
C529 C525 1.495 . S
C529 H535 0.959 . S
C529 H536 0.961 . S
C529 H537 0.960 . S
C530 C528 1.381 . S
C530 C531 1.394 . S
C530 H538 0.930 . S
C531 C530 1.394 . S
C531 C532 1.383 . S
C531 H539 0.929 . S
C532 C531 1.383 . S
C532 C533 1.377 . S
C533 H517 0.930 1_556 S
C533 C532 1.377 . S
C533 C534 1.379 . S
C534 H518 0.931 . S
C534 C528 1.383 . S
C534 C533 1.379 . S
H535 C529 0.959 . S
H536 C529 0.961 . S
H537 C529 0.960 . S
H538 C530 0.930 . S
H539 C531 0.929 . S
H540 C548 0.929 . S
H541 C550 0.930 . S
H542 C552 0.930 . S
H543 C555 0.929 . S
H544 C558 0.930 . S
H545 C560 0.960 . S
H546 C560 0.960 . S
H547 C560 0.960 . S
C548 H540 0.929 . S
C548 C549 1.377 . S
C548 C550 1.384 . S
C549 C548 1.377 . S
C549 C555 1.390 . S
C550 H541 0.930 . S
C550 C548 1.384 . S
C550 C551 1.372 . S
C551 C550 1.372 . S
C551 C552 1.400 . S
C551 C556 1.490 . S
C552 H542 0.930 . S
C552 C551 1.400 . S
C552 C555 1.386 . S
H553 C569 0.930 . S
H554 C570 0.931 . S
C555 H543 0.929 . S
C555 C549 1.390 . S
C555 C552 1.386 . S
C556 C551 1.490 . S
C556 C558 1.395 . S
C556 C559 1.403 . S
H557 C563 0.930 . S
C558 H544 0.930 . S
C558 C556 1.395 . S
C558 C561 1.403 . S
C559 C556 1.403 . S
C559 C560 1.524 . S
C559 C563 1.400 . S
C560 H545 0.960 . S
C560 H546 0.960 . S
C560 H547 0.960 . S
C560 C559 1.524 . S
C561 C558 1.403 . S
C561 C562 1.392 . S
C561 C565 1.495 . S
C562 C561 1.392 . S
C562 C563 1.385 . S
C562 C564 1.478 . S
C563 H557 0.930 . S
C563 C559 1.400 . S
C563 C562 1.385 . S
C564 C562 1.478 . S
C564 C566 1.381 . S
C564 C570 1.383 . S
C565 C561 1.495 . S
C565 H571 0.959 . S
C565 H572 0.961 . S
C565 H573 0.960 . S
C566 C564 1.381 . S
C566 C567 1.394 . S
C566 H574 0.930 . S
C567 C566 1.394 . S
C567 C568 1.383 . S
C567 H575 0.929 . S
C568 C567 1.383 . S
C568 C569 1.377 . S
C569 H553 0.930 . S
C569 C568 1.377 . S
C569 C570 1.379 . S
C570 H554 0.931 . S
C570 C564 1.383 . S
C570 C569 1.379 . S
H571 C565 0.959 . S
H572 C565 0.961 . S
H573 C565 0.960 . S
H574 C566 0.930 . S
H575 C567 0.929 . S
H576 C584 0.929 . S
H577 C586 0.930 . S
H578 C588 0.930 . S
H579 C591 0.929 1_554 S
H580 C594 0.930 . S
H581 C596 0.960 . S
H582 C596 0.960 . S
H583 C596 0.960 . S
C584 H576 0.929 . S
C584 C585 1.377 . S
C584 C586 1.384 . S
C585 C584 1.377 . S
C585 C591 1.390 . S
C586 H577 0.930 . S
C586 C584 1.384 . S
C586 C587 1.372 . S
C587 C586 1.372 . S
C587 C588 1.400 . S
C587 C592 1.490 . S
C588 H578 0.930 . S
C588 C587 1.400 . S
C588 C591 1.386 . S
H589 C605 0.930 . S
H590 C606 0.931 . S
C591 H579 0.929 1_556 S
C591 C585 1.390 . S
C591 C588 1.386 . S
C592 C587 1.490 . S
C592 C594 1.395 . S
C592 C595 1.403 . S
H593 C599 0.930 . S
C594 H580 0.930 . S
C594 C592 1.395 . S
C594 C597 1.403 . S
C595 C592 1.403 . S
C595 C596 1.524 . S
C595 C599 1.400 . S
C596 H581 0.960 . S
C596 H582 0.960 . S
C596 H583 0.960 . S
C596 C595 1.524 . S
C597 C594 1.403 . S
C597 C598 1.392 . S
C597 C601 1.495 . S
C598 C597 1.392 . S
C598 C599 1.385 . S
C598 C600 1.478 . S
C599 H593 0.930 . S
C599 C595 1.400 . S
C599 C598 1.385 . S
C600 C598 1.478 . S
C600 C602 1.381 . S
C600 C606 1.383 . S
C601 C597 1.495 . S
C601 H607 0.959 . S
C601 H608 0.961 . S
C601 H609 0.960 . S
C602 C600 1.381 . S
C602 C603 1.394 . S
C602 H610 0.930 . S
C603 C602 1.394 . S
C603 C604 1.383 . S
C603 H611 0.929 . S
C604 C603 1.383 . S
C604 C605 1.377 . S
C605 H589 0.930 . S
C605 C604 1.377 . S
C605 C606 1.379 . S
C606 H590 0.931 . S
C606 C600 1.383 . S
C606 C605 1.379 . S
H607 C601 0.959 . S
H608 C601 0.961 . S
H609 C601 0.960 . S
H610 C602 0.930 . S
H611 C603 0.929 . S
H612 C620 0.929 . S
H613 C622 0.930 . S
H614 C624 0.930 . S
H615 C627 0.929 . S
H616 C630 0.930 . S
H617 C632 0.960 . S
H618 C632 0.960 . S
H619 C632 0.960 . S
C620 H612 0.929 . S
C620 C621 1.377 . S
C620 C622 1.384 . S
C621 C620 1.377 . S
C621 C627 1.390 . S
C622 H613 0.930 . S
C622 C620 1.384 . S
C622 C623 1.372 . S
C623 C622 1.372 . S
C623 C624 1.400 . S
C623 C628 1.490 . S
C624 H614 0.930 . S
C624 C623 1.400 . S
C624 C627 1.386 . S
H625 C641 0.930 . S
H626 C642 0.931 . S
C627 H615 0.929 . S
C627 C621 1.390 . S
C627 C624 1.386 . S
C628 C623 1.490 . S
C628 C630 1.395 . S
C628 C631 1.403 . S
H629 C635 0.930 . S
C630 H616 0.930 . S
C630 C628 1.395 . S
C630 C633 1.403 . S
C631 C628 1.403 . S
C631 C632 1.524 . S
C631 C635 1.400 . S
C632 H617 0.960 . S
C632 H618 0.960 . S
C632 H619 0.960 . S
C632 C631 1.524 . S
C633 C630 1.403 . S
C633 C634 1.392 . S
C633 C637 1.495 . S
C634 C633 1.392 . S
C634 C635 1.385 . S
C634 C636 1.478 . S
C635 H629 0.930 . S
C635 C631 1.400 . S
C635 C634 1.385 . S
C636 C634 1.478 . S
C636 C638 1.381 . S
C636 C642 1.383 . S
C637 C633 1.495 . S
C637 H643 0.959 . S
C637 H644 0.961 . S
C637 H645 0.960 . S
C638 C636 1.381 . S
C638 C639 1.394 . S
C638 H646 0.930 . S
C639 C638 1.394 . S
C639 C640 1.383 . S
C639 H647 0.929 . S
C640 C639 1.383 . S
C640 C641 1.377 . S
C641 H625 0.930 . S
C641 C640 1.377 . S
C641 C642 1.379 . S
C642 H626 0.931 . S
C642 C636 1.383 . S
C642 C641 1.379 . S
H643 C637 0.959 . S
H644 C637 0.961 . S
H645 C637 0.960 . S
H646 C638 0.930 . S
H647 C639 0.929 . S
H648 C656 0.929 . S
H649 C658 0.930 . S
H650 C660 0.930 . S
H651 C663 0.929 . S
H652 C666 0.930 . S
H653 C668 0.960 . S
H654 C668 0.960 . S
H655 C668 0.960 . S
C656 H648 0.929 . S
C656 C657 1.377 . S
C656 C658 1.384 . S
C657 C656 1.377 . S
C657 C663 1.390 . S
C658 H649 0.930 . S
C658 C656 1.384 . S
C658 C659 1.372 . S
C659 C658 1.372 . S
C659 C660 1.400 . S
C659 C664 1.490 . S
C660 H650 0.930 . S
C660 C659 1.400 . S
C660 C663 1.386 . S
H661 C677 0.930 . S
H662 C678 0.931 . S
C663 H651 0.929 . S
C663 C657 1.390 . S
C663 C660 1.386 . S
C664 C659 1.490 . S
C664 C666 1.395 . S
C664 C667 1.403 . S
H665 C671 0.930 . S
C666 H652 0.930 . S
C666 C664 1.395 . S
C666 C669 1.403 . S
C667 C664 1.403 . S
C667 C668 1.524 . S
C667 C671 1.400 . S
C668 H653 0.960 . S
C668 H654 0.960 . S
C668 H655 0.960 . S
C668 C667 1.524 . S
C669 C666 1.403 . S
C669 C670 1.392 . S
C669 C673 1.495 . S
C670 C669 1.392 . S
C670 C671 1.385 . S
C670 C672 1.478 . S
C671 H665 0.930 . S
C671 C667 1.400 . S
C671 C670 1.385 . S
C672 C670 1.478 . S
C672 C674 1.381 . S
C672 C678 1.383 . S
C673 C669 1.495 . S
C673 H679 0.959 . S
C673 H680 0.961 . S
C673 H681 0.960 . S
C674 C672 1.381 . S
C674 C675 1.394 . S
C674 H682 0.930 . S
C675 C674 1.394 . S
C675 C676 1.383 . S
C675 H683 0.929 . S
C676 C675 1.383 . S
C676 C677 1.377 . S
C677 H661 0.930 . S
C677 C676 1.377 . S
C677 C678 1.379 . S
C678 H662 0.931 . S
C678 C672 1.383 . S
C678 C677 1.379 . S
H679 C673 0.959 . S
H680 C673 0.961 . S
H681 C673 0.960 . S
H682 C674 0.930 . S
H683 C675 0.929 . S
H684 C692 0.929 . S
H685 C694 0.930 . S
H686 C696 0.930 . S
H687 C699 0.929 . S
H688 C702 0.930 . S
H689 C704 0.960 . S
H690 C704 0.960 . S
H691 C704 0.960 . S
C692 H684 0.929 . S
C692 C693 1.377 . S
C692 C694 1.384 . S
C693 C692 1.377 . S
C693 C699 1.390 . S
C694 H685 0.930 . S
C694 C692 1.384 . S
C694 C695 1.372 . S
C695 C694 1.372 . S
C695 C696 1.400 . S
C695 C700 1.490 . S
C696 H686 0.930 . S
C696 C695 1.400 . S
C696 C699 1.386 . S
H697 C713 0.930 . S
H698 C714 0.931 . S
C699 H687 0.929 . S
C699 C693 1.390 . S
C699 C696 1.386 . S
C700 C695 1.490 . S
C700 C702 1.395 . S
C700 C703 1.403 . S
H701 C707 0.930 . S
C702 H688 0.930 . S
C702 C700 1.395 . S
C702 C705 1.403 . S
C703 C700 1.403 . S
C703 C704 1.524 . S
C703 C707 1.400 . S
C704 H689 0.960 . S
C704 H690 0.960 . S
C704 H691 0.960 . S
C704 C703 1.524 . S
C705 C702 1.403 . S
C705 C706 1.392 . S
C705 C709 1.495 . S
C706 C705 1.392 . S
C706 C707 1.385 . S
C706 C708 1.478 . S
C707 H701 0.930 . S
C707 C703 1.400 . S
C707 C706 1.385 . S
C708 C706 1.478 . S
C708 C710 1.381 . S
C708 C714 1.383 . S
C709 C705 1.495 . S
C709 H715 0.959 . S
C709 H716 0.961 . S
C709 H717 0.960 . S
C710 C708 1.381 . S
C710 C711 1.394 . S
C710 H718 0.930 . S
C711 C710 1.394 . S
C711 C712 1.383 . S
C711 H719 0.929 . S
C712 C711 1.383 . S
C712 C713 1.377 . S
C713 H697 0.930 . S
C713 C712 1.377 . S
C713 C714 1.379 . S
C714 H698 0.931 . S
C714 C708 1.383 . S
C714 C713 1.379 . S
H715 C709 0.959 . S
H716 C709 0.961 . S
H717 C709 0.960 . S
H718 C710 0.930 . S
H719 C711 0.929 . S
H720 C728 0.929 . S
H721 C730 0.930 . S
H722 C732 0.930 . S
H723 C735 0.929 . S
H724 C738 0.930 . S
H725 C740 0.960 . S
H726 C740 0.960 . S
H727 C740 0.960 . S
C728 H720 0.929 . S
C728 C729 1.377 . S
C728 C730 1.384 . S
C729 C728 1.377 . S
C729 C735 1.390 . S
C730 H721 0.930 . S
C730 C728 1.384 . S
C730 C731 1.372 . S
C731 C730 1.372 . S
C731 C732 1.400 . S
C731 C736 1.490 . S
C732 H722 0.930 . S
C732 C731 1.400 . S
C732 C735 1.386 . S
H733 C749 0.930 1_556 S
H734 C750 0.931 . S
C735 H723 0.929 . S
C735 C729 1.390 . S
C735 C732 1.386 . S
C736 C731 1.490 . S
C736 C738 1.395 . S
C736 C739 1.403 . S
H737 C743 0.930 . S
C738 H724 0.930 . S
C738 C736 1.395 . S
C738 C741 1.403 . S
C739 C736 1.403 . S
C739 C740 1.524 . S
C739 C743 1.400 . S
C740 H725 0.960 . S
C740 H726 0.960 . S
C740 H727 0.960 . S
C740 C739 1.524 . S
C741 C738 1.403 . S
C741 C742 1.392 . S
C741 C745 1.495 . S
C742 C741 1.392 . S
C742 C743 1.385 . S
C742 C744 1.478 . S
C743 H737 0.930 . S
C743 C739 1.400 . S
C743 C742 1.385 . S
C744 C742 1.478 . S
C744 C746 1.381 . S
C744 C750 1.383 . S
C745 C741 1.495 . S
C745 H751 0.959 . S
C745 H752 0.961 . S
C745 H753 0.960 . S
C746 C744 1.381 . S
C746 C747 1.394 . S
C746 H754 0.930 . S
C747 C746 1.394 . S
C747 C748 1.383 . S
C747 H755 0.929 . S
C748 C747 1.383 . S
C748 C749 1.377 . S
C749 H733 0.930 1_554 S
C749 C748 1.377 . S
C749 C750 1.379 . S
C750 H734 0.931 . S
C750 C744 1.383 . S
C750 C749 1.379 . S
H751 C745 0.959 . S
H752 C745 0.961 . S
H753 C745 0.960 . S
H754 C746 0.930 . S
H755 C747 0.929 . S
H756 C764 0.929 . S
H757 C766 0.930 . S
H758 C768 0.930 . S
H759 C771 0.929 . S
H760 C774 0.930 . S
H761 C776 0.960 . S
H762 C776 0.960 . S
H763 C776 0.960 . S
C764 H756 0.929 . S
C764 C765 1.377 . S
C764 C766 1.384 . S
C765 C764 1.377 . S
C765 C771 1.390 . S
C766 H757 0.930 . S
C766 C764 1.384 . S
C766 C767 1.372 . S
C767 C766 1.372 . S
C767 C768 1.400 . S
C767 C772 1.490 . S
C768 H758 0.930 . S
C768 C767 1.400 . S
C768 C771 1.386 . S
H769 C785 0.930 . S
H770 C786 0.931 . S
C771 H759 0.929 . S
C771 C765 1.390 . S
C771 C768 1.386 . S
C772 C767 1.490 . S
C772 C774 1.395 . S
C772 C775 1.403 . S
H773 C779 0.930 . S
C774 H760 0.930 . S
C774 C772 1.395 . S
C774 C777 1.403 . S
C775 C772 1.403 . S
C775 C776 1.524 . S
C775 C779 1.400 . S
C776 H761 0.960 . S
C776 H762 0.960 . S
C776 H763 0.960 . S
C776 C775 1.524 . S
C777 C774 1.403 . S
C777 C778 1.392 . S
C777 C781 1.495 . S
C778 C777 1.392 . S
C778 C779 1.385 . S
C778 C780 1.478 . S
C779 H773 0.930 . S
C779 C775 1.400 . S
C779 C778 1.385 . S
C780 C778 1.478 . S
C780 C782 1.381 . S
C780 C786 1.383 . S
C781 C777 1.495 . S
C781 H787 0.959 . S
C781 H788 0.961 . S
C781 H789 0.960 . S
C782 C780 1.381 . S
C782 C783 1.394 . S
C782 H790 0.930 . S
C783 C782 1.394 . S
C783 C784 1.383 . S
C783 H791 0.929 . S
C784 C783 1.383 . S
C784 C785 1.377 . S
C785 H769 0.930 . S
C785 C784 1.377 . S
C785 C786 1.379 . S
C786 H770 0.931 . S
C786 C780 1.383 . S
C786 C785 1.379 . S
H787 C781 0.959 . S
H788 C781 0.961 . S
H789 C781 0.960 . S
H790 C782 0.930 . S
H791 C783 0.929 . S
H792 C800 0.929 . S
H793 C802 0.930 . S
H794 C804 0.930 . S
H795 C807 0.929 . S
H796 C810 0.930 . S
H797 C812 0.960 . S
H798 C812 0.960 . S
H799 C812 0.960 . S
C800 H792 0.929 . S
C800 C801 1.377 . S
C800 C802 1.384 . S
C801 C800 1.377 . S
C801 C807 1.390 . S
C802 H793 0.930 . S
C802 C800 1.384 . S
C802 C803 1.372 . S
C803 C802 1.372 . S
C803 C804 1.400 . S
C803 C808 1.490 . S
C804 H794 0.930 . S
C804 C803 1.400 . S
C804 C807 1.386 . S
H805 C821 0.930 . S
H806 C822 0.931 . S
C807 H795 0.929 . S
C807 C801 1.390 . S
C807 C804 1.386 . S
C808 C803 1.490 . S
C808 C810 1.395 . S
C808 C811 1.403 . S
H809 C815 0.930 . S
C810 H796 0.930 . S
C810 C808 1.395 . S
C810 C813 1.403 . S
C811 C808 1.403 . S
C811 C812 1.524 . S
C811 C815 1.400 . S
C812 H797 0.960 . S
C812 H798 0.960 . S
C812 H799 0.960 . S
C812 C811 1.524 . S
C813 C810 1.403 . S
C813 C814 1.392 . S
C813 C817 1.495 . S
C814 C813 1.392 . S
C814 C815 1.385 . S
C814 C816 1.478 . S
C815 H809 0.930 . S
C815 C811 1.400 . S
C815 C814 1.385 . S
C816 C814 1.478 . S
C816 C818 1.381 . S
C816 C822 1.383 . S
C817 C813 1.495 . S
C817 H823 0.959 . S
C817 H824 0.961 . S
C817 H825 0.960 . S
C818 C816 1.381 . S
C818 C819 1.394 . S
C818 H826 0.930 . S
C819 C818 1.394 . S
C819 C820 1.383 . S
C819 H827 0.929 1_554 S
C820 C819 1.383 . S
C820 C821 1.377 . S
C821 H805 0.930 . S
C821 C820 1.377 . S
C821 C822 1.379 . S
C822 H806 0.931 . S
C822 C816 1.383 . S
C822 C821 1.379 . S
H823 C817 0.959 . S
H824 C817 0.961 . S
H825 C817 0.960 . S
H826 C818 0.930 . S
H827 C819 0.929 1_556 S
H828 C836 0.929 . S
H829 C838 0.930 . S
H830 C840 0.930 . S
H831 C843 0.929 . S
H832 C846 0.930 . S
H833 C848 0.960 . S
H834 C848 0.960 . S
H835 C848 0.960 . S
C836 H828 0.929 . S
C836 C837 1.377 . S
C836 C838 1.384 . S
C837 C836 1.377 . S
C837 C843 1.390 . S
C838 H829 0.930 . S
C838 C836 1.384 . S
C838 C839 1.372 . S
C839 C838 1.372 . S
C839 C840 1.400 . S
C839 C844 1.490 . S
C840 H830 0.930 . S
C840 C839 1.400 . S
C840 C843 1.386 . S
H841 C857 0.930 . S
H842 C858 0.931 . S
C843 H831 0.929 . S
C843 C837 1.390 . S
C843 C840 1.386 . S
C844 C839 1.490 . S
C844 C846 1.395 . S
C844 C847 1.403 . S
H845 C851 0.930 . S
C846 H832 0.930 . S
C846 C844 1.395 . S
C846 C849 1.403 . S
C847 C844 1.403 . S
C847 C848 1.524 . S
C847 C851 1.400 . S
C848 H833 0.960 . S
C848 H834 0.960 . S
C848 H835 0.960 . S
C848 C847 1.524 . S
C849 C846 1.403 . S
C849 C850 1.392 . S
C849 C853 1.495 . S
C850 C849 1.392 . S
C850 C851 1.385 . S
C850 C852 1.478 . S
C851 H845 0.930 . S
C851 C847 1.400 . S
C851 C850 1.385 . S
C852 C850 1.478 . S
C852 C854 1.381 . S
C852 C858 1.383 . S
C853 C849 1.495 . S
C853 H859 0.959 . S
C853 H860 0.961 . S
C853 H861 0.960 . S
C854 C852 1.381 . S
C854 C855 1.394 . S
C854 H862 0.930 . S
C855 C854 1.394 . S
C855 C856 1.383 . S
C855 H863 0.929 . S
C856 C855 1.383 . S
C856 C857 1.377 . S
C857 H841 0.930 . S
C857 C856 1.377 . S
C857 C858 1.379 . S
C858 H842 0.931 . S
C858 C852 1.383 . S
C858 C857 1.379 . S
H859 C853 0.959 . S
H860 C853 0.961 . S
H861 C853 0.960 . S
H862 C854 0.930 . S
H863 C855 0.929 . S
H864 C872 0.929 . S
H865 C874 0.930 . S
H866 C876 0.930 . S
H867 C879 0.929 . S
H868 C882 0.930 . S
H869 C884 0.960 . S
H870 C884 0.960 . S
H871 C884 0.960 . S
C872 H864 0.929 . S
C872 C873 1.377 . S
C872 C874 1.384 . S
C873 C872 1.377 . S
C873 C879 1.390 . S
C874 H865 0.930 . S
C874 C872 1.384 . S
C874 C875 1.372 . S
C875 C874 1.372 . S
C875 C876 1.400 . S
C875 C880 1.490 . S
C876 H866 0.930 . S
C876 C875 1.400 . S
C876 C879 1.386 . S
H877 C893 0.930 . S
H878 C894 0.931 . S
C879 H867 0.929 . S
C879 C873 1.390 . S
C879 C876 1.386 . S
C880 C875 1.490 . S
C880 C882 1.395 . S
C880 C883 1.403 . S
H881 C887 0.930 . S
C882 H868 0.930 . S
C882 C880 1.395 . S
C882 C885 1.403 . S
C883 C880 1.403 . S
C883 C884 1.524 . S
C883 C887 1.400 . S
C884 H869 0.960 . S
C884 H870 0.960 . S
C884 H871 0.960 . S
C884 C883 1.524 . S
C885 C882 1.403 . S
C885 C886 1.392 . S
C885 C889 1.495 . S
C886 C885 1.392 . S
C886 C887 1.385 . S
C886 C888 1.478 . S
C887 H881 0.930 . S
C887 C883 1.400 . S
C887 C886 1.385 . S
C888 C886 1.478 . S
C888 C890 1.381 . S
C888 C894 1.383 . S
C889 C885 1.495 . S
C889 H895 0.959 . S
C889 H896 0.961 . S
C889 H897 0.960 . S
C890 C888 1.381 . S
C890 C891 1.394 . S
C890 H898 0.930 . S
C891 C890 1.394 . S
C891 C892 1.383 . S
C891 H899 0.929 . S
C892 C891 1.383 . S
C892 C893 1.377 . S
C893 H877 0.930 . S
C893 C892 1.377 . S
C893 C894 1.379 . S
C894 H878 0.931 . S
C894 C888 1.383 . S
C894 C893 1.379 . S
H895 C889 0.959 . S
H896 C889 0.961 . S
H897 C889 0.960 . S
H898 C890 0.930 . S
H899 C891 0.929 . S
H900 C908 0.929 . S
H901 C910 0.930 . S
H902 C912 0.930 . S
H903 C915 0.929 . S
H904 C918 0.930 . S
H905 C920 0.960 . S
H906 C920 0.960 . S
H907 C920 0.960 . S
C908 H900 0.929 . S
C908 C909 1.377 . S
C908 C910 1.384 . S
C909 C908 1.377 . S
C909 C915 1.390 . S
C910 H901 0.930 . S
C910 C908 1.384 . S
C910 C911 1.372 . S
C911 C910 1.372 . S
C911 C912 1.400 . S
C911 C916 1.490 . S
C912 H902 0.930 . S
C912 C911 1.400 . S
C912 C915 1.386 . S
H913 C929 0.930 . S
H914 C930 0.931 . S
C915 H903 0.929 . S
C915 C909 1.390 . S
C915 C912 1.386 . S
C916 C911 1.490 . S
C916 C918 1.395 . S
C916 C919 1.403 . S
H917 C923 0.930 . S
C918 H904 0.930 . S
C918 C916 1.395 . S
C918 C921 1.403 . S
C919 C916 1.403 . S
C919 C920 1.524 . S
C919 C923 1.400 . S
C920 H905 0.960 . S
C920 H906 0.960 . S
C920 H907 0.960 . S
C920 C919 1.524 . S
C921 C918 1.403 . S
C921 C922 1.392 . S
C921 C925 1.495 . S
C922 C921 1.392 . S
C922 C923 1.385 . S
C922 C924 1.478 . S
C923 H917 0.930 . S
C923 C919 1.400 . S
C923 C922 1.385 . S
C924 C922 1.478 . S
C924 C926 1.381 . S
C924 C930 1.383 . S
C925 C921 1.495 . S
C925 H931 0.959 . S
C925 H932 0.961 . S
C925 H933 0.960 . S
C926 C924 1.381 . S
C926 C927 1.394 . S
C926 H934 0.930 . S
C927 C926 1.394 . S
C927 C928 1.383 . S
C927 H935 0.929 . S
C928 C927 1.383 . S
C928 C929 1.377 . S
C929 H913 0.930 . S
C929 C928 1.377 . S
C929 C930 1.379 . S
C930 H914 0.931 . S
C930 C924 1.383 . S
C930 C929 1.379 . S
H931 C925 0.959 . S
H932 C925 0.961 . S
H933 C925 0.960 . S
H934 C926 0.930 . S
H935 C927 0.929 . S
H936 C944 0.929 . S
H937 C946 0.930 . S
H938 C948 0.930 . S
H939 C951 0.929 . S
H940 C954 0.930 . S
H941 C956 0.960 . S
H942 C956 0.960 . S
H943 C956 0.960 . S
C944 H936 0.929 . S
C944 C945 1.377 . S
C944 C946 1.384 . S
C945 C944 1.377 . S
C945 C951 1.390 . S
C946 H937 0.930 . S
C946 C944 1.384 . S
C946 C947 1.372 . S
C947 C946 1.372 . S
C947 C948 1.400 . S
C947 C952 1.490 . S
C948 H938 0.930 . S
C948 C947 1.400 . S
C948 C951 1.386 . S
H949 C965 0.930 . S
H950 C966 0.931 . S
C951 H939 0.929 . S
C951 C945 1.390 . S
C951 C948 1.386 . S
C952 C947 1.490 . S
C952 C954 1.395 . S
C952 C955 1.403 . S
H953 C959 0.930 . S
C954 H940 0.930 . S
C954 C952 1.395 . S
C954 C957 1.403 1_455 S
C955 C952 1.403 . S
C955 C956 1.524 . S
C955 C959 1.400 1_455 S
C956 H941 0.960 . S
C956 H942 0.960 . S
C956 H943 0.960 . S
C956 C955 1.524 . S
C957 C954 1.403 1_655 S
C957 C958 1.392 . S
C957 C961 1.495 . S
C958 C957 1.392 . S
C958 C959 1.385 . S
C958 C960 1.478 . S
C959 H953 0.930 . S
C959 C955 1.400 1_655 S
C959 C958 1.385 . S
C960 C958 1.478 . S
C960 C962 1.381 . S
C960 C966 1.383 . S
C961 C957 1.495 . S
C961 H967 0.959 . S
C961 H968 0.961 . S
C961 H969 0.960 . S
C962 C960 1.381 . S
C962 C963 1.394 . S
C962 H970 0.930 . S
C963 C962 1.394 . S
C963 C964 1.383 . S
C963 H971 0.929 . S
C964 C963 1.383 . S
C964 C965 1.377 . S
C965 H949 0.930 . S
C965 C964 1.377 . S
C965 C966 1.379 . S
C966 H950 0.931 . S
C966 C960 1.383 . S
C966 C965 1.379 . S
H967 C961 0.959 . S
H968 C961 0.961 . S
H969 C961 0.960 . S
H970 C962 0.930 . S
H971 C963 0.929 . S
H972 C980 0.929 . S
H973 C982 0.930 . S
H974 C984 0.930 . S
H975 C987 0.929 . S
H976 C990 0.930 . S
H977 C992 0.960 . S
H978 C992 0.960 . S
H979 C992 0.960 . S
C980 H972 0.929 . S
C980 C981 1.377 . S
C980 C982 1.384 . S
C981 C980 1.377 . S
C981 C987 1.390 . S
C982 H973 0.930 . S
C982 C980 1.384 . S
C982 C983 1.372 . S
C983 C982 1.372 . S
C983 C984 1.400 . S
C983 C988 1.490 . S
C984 H974 0.930 . S
C984 C983 1.400 . S
C984 C987 1.386 . S
H985 C1001 0.930 . S
H986 C1002 0.931 . S
C987 H975 0.929 . S
C987 C981 1.390 . S
C987 C984 1.386 . S
C988 C983 1.490 . S
C988 C990 1.395 . S
C988 C991 1.403 . S
H989 C995 0.930 . S
C990 H976 0.930 . S
C990 C988 1.395 . S
C990 C993 1.403 . S
C991 C988 1.403 . S
C991 C992 1.524 . S
C991 C995 1.400 . S
C992 H977 0.960 . S
C992 H978 0.960 . S
C992 H979 0.960 . S
C992 C991 1.524 . S
C993 C990 1.403 . S
C993 C994 1.392 . S
C993 C997 1.495 . S
C994 C993 1.392 . S
C994 C995 1.385 . S
C994 C996 1.478 . S
C995 H989 0.930 . S
C995 C991 1.400 . S
C995 C994 1.385 . S
C996 C994 1.478 . S
C996 C998 1.381 . S
C996 C1002 1.383 . S
C997 C993 1.495 . S
C997 H1003 0.959 . S
C997 H1004 0.961 . S
C997 H1005 0.960 . S
C998 C996 1.381 . S
C998 C999 1.394 . S
C998 H1006 0.930 . S
C999 C998 1.394 . S
C999 C1000 1.383 . S
C999 H1007 0.929 . S
C1000 C999 1.383 . S
C1000 C1001 1.377 . S
C1001 H985 0.930 . S
C1001 C1000 1.377 . S
C1001 C1002 1.379 . S
C1002 H986 0.931 . S
C1002 C996 1.383 . S
C1002 C1001 1.379 . S
H1003 C997 0.959 . S
H1004 C997 0.961 . S
H1005 C997 0.960 . S
H1006 C998 0.930 . S
H1007 C999 0.929 . S
H1008 C1016 0.929 . S
H1009 C1018 0.930 . S
H1010 C1020 0.930 . S
H1011 C1023 0.929 . S
H1012 C1026 0.930 . S
H1013 C1028 0.960 . S
H1014 C1028 0.960 . S
H1015 C1028 0.960 . S
C1016 H1008 0.929 . S
C1016 C1017 1.377 . S
C1016 C1018 1.384 . S
C1017 C1016 1.377 . S
C1017 C1023 1.390 . S
C1018 H1009 0.930 . S
C1018 C1016 1.384 . S
C1018 C1019 1.372 . S
C1019 C1018 1.372 . S
C1019 C1020 1.400 . S
C1019 C1024 1.490 . S
C1020 H1010 0.930 . S
C1020 C1019 1.400 . S
C1020 C1023 1.386 . S
H1021 C1037 0.930 . S
H1022 C1038 0.931 . S
C1023 H1011 0.929 . S
C1023 C1017 1.390 . S
C1023 C1020 1.386 . S
C1024 C1019 1.490 . S
C1024 C1026 1.395 . S
C1024 C1027 1.403 . S
H1025 C1031 0.930 . S
C1026 H1012 0.930 . S
C1026 C1024 1.395 . S
C1026 C1029 1.403 1_565 S
C1027 C1024 1.403 . S
C1027 C1028 1.524 . S
C1027 C1031 1.400 1_565 S
C1028 H1013 0.960 . S
C1028 H1014 0.960 . S
C1028 H1015 0.960 . S
C1028 C1027 1.524 . S
C1029 C1026 1.403 1_545 S
C1029 C1030 1.392 . S
C1029 C1033 1.495 . S
C1030 C1029 1.392 . S
C1030 C1031 1.385 . S
C1030 C1032 1.478 . S
C1031 H1025 0.930 . S
C1031 C1027 1.400 1_545 S
C1031 C1030 1.385 . S
C1032 C1030 1.478 . S
C1032 C1034 1.381 . S
C1032 C1038 1.383 . S
C1033 C1029 1.495 . S
C1033 H1039 0.959 . S
C1033 H1040 0.961 . S
C1033 H1041 0.960 . S
C1034 C1032 1.381 . S
C1034 C1035 1.394 . S
C1034 H1042 0.930 . S
C1035 C1034 1.394 . S
C1035 C1036 1.383 . S
C1035 H1043 0.929 . S
C1036 C1035 1.383 . S
C1036 C1037 1.377 . S
C1037 H1021 0.930 . S
C1037 C1036 1.377 . S
C1037 C1038 1.379 . S
C1038 H1022 0.931 . S
C1038 C1032 1.383 . S
C1038 C1037 1.379 . S
H1039 C1033 0.959 . S
H1040 C1033 0.961 . S
H1041 C1033 0.960 . S
H1042 C1034 0.930 . S
H1043 C1035 0.929 . S
H1044 C1052 0.929 . S
H1045 C1054 0.930 . S
H1046 C1056 0.930 . S
H1047 C1059 0.929 . S
H1048 C1062 0.930 . S
H1049 C1064 0.960 . S
H1050 C1064 0.960 . S
H1051 C1064 0.960 . S
C1052 H1044 0.929 . S
C1052 C1053 1.377 . S
C1052 C1054 1.384 . S
C1053 C1052 1.377 . S
C1053 C1059 1.390 . S
C1054 H1045 0.930 . S
C1054 C1052 1.384 . S
C1054 C1055 1.372 . S
C1055 C1054 1.372 . S
C1055 C1056 1.400 . S
C1055 C1060 1.490 . S
C1056 H1046 0.930 . S
C1056 C1055 1.400 . S
C1056 C1059 1.386 . S
H1057 C1073 0.930 . S
H1058 C1074 0.931 . S
C1059 H1047 0.929 . S
C1059 C1053 1.390 . S
C1059 C1056 1.386 . S
C1060 C1055 1.490 . S
C1060 C1062 1.395 . S
C1060 C1063 1.403 . S
H1061 C1067 0.930 . S
C1062 H1048 0.930 . S
C1062 C1060 1.395 . S
C1062 C1065 1.403 1_565 S
C1063 C1060 1.403 . S
C1063 C1064 1.524 . S
C1063 C1067 1.400 1_565 S
C1064 H1049 0.960 . S
C1064 H1050 0.960 . S
C1064 H1051 0.960 . S
C1064 C1063 1.524 . S
C1065 C1062 1.403 1_545 S
C1065 C1066 1.392 . S
C1065 C1069 1.495 . S
C1066 C1065 1.392 . S
C1066 C1067 1.385 . S
C1066 C1068 1.478 . S
C1067 H1061 0.930 . S
C1067 C1063 1.400 1_545 S
C1067 C1066 1.385 . S
C1068 C1066 1.478 . S
C1068 C1070 1.381 . S
C1068 C1074 1.383 . S
C1069 C1065 1.495 . S
C1069 H1075 0.959 . S
C1069 H1076 0.961 . S
C1069 H1077 0.960 . S
C1070 C1068 1.381 . S
C1070 C1071 1.394 . S
C1070 H1078 0.930 . S
C1071 C1070 1.394 . S
C1071 C1072 1.383 . S
C1071 H1079 0.929 . S
C1072 C1071 1.383 . S
C1072 C1073 1.377 . S
C1073 H1057 0.930 . S
C1073 C1072 1.377 . S
C1073 C1074 1.379 . S
C1074 H1058 0.931 . S
C1074 C1068 1.383 . S
C1074 C1073 1.379 . S
H1075 C1069 0.959 . S
H1076 C1069 0.961 . S
H1077 C1069 0.960 . S
H1078 C1070 0.930 . S
H1079 C1071 0.929 . S
H1080 C1088 0.929 . S
H1081 C1090 0.930 . S
H1082 C1092 0.930 . S
H1083 C1095 0.929 . S
H1084 C1098 0.930 . S
H1085 C1100 0.960 . S
H1086 C1100 0.960 . S
H1087 C1100 0.960 . S
C1088 H1080 0.929 . S
C1088 C1089 1.377 . S
C1088 C1090 1.384 . S
C1089 C1088 1.377 . S
C1089 C1095 1.390 . S
C1090 H1081 0.930 . S
C1090 C1088 1.384 . S
C1090 C1091 1.372 . S
C1091 C1090 1.372 . S
C1091 C1092 1.400 . S
C1091 C1096 1.490 . S
C1092 H1082 0.930 . S
C1092 C1091 1.400 . S
C1092 C1095 1.386 . S
H1093 C1109 0.930 . S
H1094 C1110 0.931 . S
C1095 H1083 0.929 . S
C1095 C1089 1.390 . S
C1095 C1092 1.386 . S
C1096 C1091 1.490 . S
C1096 C1098 1.395 . S
C1096 C1099 1.403 . S
H1097 C1103 0.930 . S
C1098 H1084 0.930 . S
C1098 C1096 1.395 . S
C1098 C1101 1.403 1_455 S
C1099 C1096 1.403 . S
C1099 C1100 1.524 . S
C1099 C1103 1.400 1_455 S
C1100 H1085 0.960 . S
C1100 H1086 0.960 . S
C1100 H1087 0.960 . S
C1100 C1099 1.524 . S
C1101 C1098 1.403 1_655 S
C1101 C1102 1.392 . S
C1101 C1105 1.495 . S
C1102 C1101 1.392 . S
C1102 C1103 1.385 . S
C1102 C1104 1.478 . S
C1103 H1097 0.930 . S
C1103 C1099 1.400 1_655 S
C1103 C1102 1.385 . S
C1104 C1102 1.478 . S
C1104 C1106 1.381 . S
C1104 C1110 1.383 . S
C1105 C1101 1.495 . S
C1105 H1111 0.959 . S
C1105 H1112 0.961 . S
C1105 H1113 0.960 . S
C1106 C1104 1.381 . S
C1106 C1107 1.394 . S
C1106 H1114 0.930 . S
C1107 C1106 1.394 . S
C1107 C1108 1.383 . S
C1107 H1115 0.929 . S
C1108 C1107 1.383 . S
C1108 C1109 1.377 . S
C1109 H1093 0.930 . S
C1109 C1108 1.377 . S
C1109 C1110 1.379 . S
C1110 H1094 0.931 . S
C1110 C1104 1.383 . S
C1110 C1109 1.379 . S
H1111 C1105 0.959 . S
H1112 C1105 0.961 . S
H1113 C1105 0.960 . S
H1114 C1106 0.930 . S
H1115 C1107 0.929 . S
H1116 C1124 0.929 . S
H1117 C1126 0.930 . S
H1118 C1128 0.930 . S
H1119 C1131 0.929 . S
H1120 C1134 0.930 . S
H1121 C1136 0.960 . S
H1122 C1136 0.960 . S
H1123 C1136 0.960 . S
C1124 H1116 0.929 . S
C1124 C1125 1.377 . S
C1124 C1126 1.384 . S
C1125 C1124 1.377 . S
C1125 C1131 1.390 . S
C1126 H1117 0.930 . S
C1126 C1124 1.384 . S
C1126 C1127 1.372 . S
C1127 C1126 1.372 . S
C1127 C1128 1.400 . S
C1127 C1132 1.490 . S
C1128 H1118 0.930 . S
C1128 C1127 1.400 . S
C1128 C1131 1.386 . S
H1129 C1145 0.930 . S
H1130 C1146 0.931 . S
C1131 H1119 0.929 . S
C1131 C1125 1.390 . S
C1131 C1128 1.386 . S
C1132 C1127 1.490 . S
C1132 C1134 1.395 . S
C1132 C1135 1.403 . S
H1133 C1139 0.930 . S
C1134 H1120 0.930 . S
C1134 C1132 1.395 . S
C1134 C1137 1.403 . S
C1135 C1132 1.403 . S
C1135 C1136 1.524 . S
C1135 C1139 1.400 . S
C1136 H1121 0.960 . S
C1136 H1122 0.960 . S
C1136 H1123 0.960 . S
C1136 C1135 1.524 . S
C1137 C1134 1.403 . S
C1137 C1138 1.392 . S
C1137 C1141 1.495 . S
C1138 C1137 1.392 . S
C1138 C1139 1.385 . S
C1138 C1140 1.478 . S
C1139 H1133 0.930 . S
C1139 C1135 1.400 . S
C1139 C1138 1.385 . S
C1140 C1138 1.478 . S
C1140 C1142 1.381 . S
C1140 C1146 1.383 . S
C1141 C1137 1.495 . S
C1141 H1147 0.959 . S
C1141 H1148 0.961 . S
C1141 H1149 0.960 . S
C1142 C1140 1.381 . S
C1142 C1143 1.394 . S
C1142 H1150 0.930 . S
C1143 C1142 1.394 . S
C1143 C1144 1.383 . S
C1143 H1151 0.929 . S
C1144 C1143 1.383 . S
C1144 C1145 1.377 . S
C1145 H1129 0.930 . S
C1145 C1144 1.377 . S
C1145 C1146 1.379 . S
C1146 H1130 0.931 . S
C1146 C1140 1.383 . S
C1146 C1145 1.379 . S
H1147 C1141 0.959 . S
H1148 C1141 0.961 . S
H1149 C1141 0.960 . S
H1150 C1142 0.930 . S
H1151 C1143 0.929 . S
H1152 C1160 0.929 . S
H1153 C1162 0.930 . S
H1154 C1164 0.930 . S
H1155 C1167 0.929 . S
H1156 C1170 0.930 . S
H1157 C1172 0.960 . S
H1158 C1172 0.960 . S
H1159 C1172 0.962 . S
C1160 H1152 0.929 . S
C1160 C1161 1.377 . S
C1160 C1162 1.384 . S
C1161 C1160 1.377 . S
C1161 C1167 1.390 1_556 S
C1162 H1153 0.930 . S
C1162 C1160 1.384 . S
C1162 C1163 1.372 . S
C1163 C1162 1.372 . S
C1163 C1164 1.400 1_556 S
C1163 C1168 1.497 . S
C1164 H1154 0.930 . S
C1164 C1163 1.400 1_554 S
C1164 C1167 1.386 . S
H1165 C1181 0.930 . S
H1166 C1182 0.931 . S
C1167 H1155 0.929 . S
C1167 C1161 1.390 1_554 S
C1167 C1164 1.386 . S
C1168 C1163 1.497 . S
C1168 C1170 1.387 1_556 S
C1168 C1171 1.404 . S
H1169 C1175 0.930 . S
C1170 H1156 0.930 . S
C1170 C1168 1.387 1_554 S
C1170 C1173 1.403 . S
C1171 C1168 1.404 . S
C1171 C1172 1.524 . S
C1171 C1175 1.400 1_556 S
C1172 H1157 0.960 . S
C1172 H1158 0.960 . S
C1172 H1159 0.962 . S
C1172 C1171 1.524 . S
C1173 C1170 1.403 . S
C1173 C1174 1.392 . S
C1173 C1177 1.495 . S
C1174 C1173 1.392 . S
C1174 C1175 1.385 . S
C1174 C1176 1.478 . S
C1175 H1169 0.930 . S
C1175 C1171 1.400 1_554 S
C1175 C1174 1.385 . S
C1176 C1174 1.478 . S
C1176 C1178 1.381 . S
C1176 C1182 1.383 . S
C1177 C1173 1.495 . S
C1177 H1183 0.959 . S
C1177 H1184 0.961 . S
C1177 H1185 0.960 . S
C1178 C1176 1.381 . S
C1178 C1179 1.394 . S
C1178 H1186 0.930 1_554 S
C1179 C1178 1.394 . S
C1179 C1180 1.383 . S
C1179 H1187 0.929 1_554 S
C1180 C1179 1.383 . S
C1180 C1181 1.377 . S
C1181 H1165 0.930 . S
C1181 C1180 1.377 . S
C1181 C1182 1.379 . S
C1182 H1166 0.931 . S
C1182 C1176 1.383 . S
C1182 C1181 1.379 . S
H1183 C1177 0.959 . S
H1184 C1177 0.961 . S
H1185 C1177 0.960 . S
H1186 C1178 0.930 1_556 S
H1187 C1179 0.929 1_556 S
H1188 C1196 0.932 . S
H1189 C1198 0.930 . S
H1190 C1200 0.930 . S
H1191 C1203 0.929 . S
H1192 C1206 0.930 . S
H1193 C1208 0.960 . S
H1194 C1208 0.960 . S
H1195 C1208 0.960 . S
C1196 H1188 0.932 . S
C1196 C1197 1.373 1_554 S
C1196 C1198 1.385 . S
C1197 C1196 1.373 1_556 S
C1197 C1203 1.390 . S
C1198 H1189 0.930 . S
C1198 C1196 1.385 . S
C1198 C1199 1.372 1_554 S
C1199 C1198 1.372 1_556 S
C1199 C1200 1.400 . S
C1199 C1204 1.490 1_556 S
C1200 H1190 0.930 . S
C1200 C1199 1.400 . S
C1200 C1203 1.386 . S
H1201 C1217 0.948 . S
H1202 C1218 0.931 1_556 S
C1203 H1191 0.929 . S
C1203 C1197 1.390 . S
C1203 C1200 1.386 . S
C1204 C1199 1.490 1_554 S
C1204 C1206 1.395 1_554 S
C1204 C1207 1.403 . S
H1205 C1211 0.930 . S
C1206 H1192 0.930 . S
C1206 C1204 1.395 1_556 S
C1206 C1209 1.403 1_556 S
C1207 C1204 1.403 . S
C1207 C1208 1.524 . S
C1207 C1211 1.400 . S
C1208 H1193 0.960 . S
C1208 H1194 0.960 . S
C1208 H1195 0.960 . S
C1208 C1207 1.524 . S
C1209 C1206 1.403 1_554 S
C1209 C1210 1.392 . S
C1209 C1213 1.495 1_554 S
C1210 C1209 1.392 . S
C1210 C1211 1.385 . S
C1210 C1212 1.478 . S
C1211 H1205 0.930 . S
C1211 C1207 1.400 . S
C1211 C1210 1.385 . S
C1212 C1210 1.478 . S
C1212 C1214 1.381 . S
C1212 C1218 1.383 . S
C1213 C1209 1.495 1_556 S
C1213 H1219 0.959 . S
C1213 H1220 0.961 . S
C1213 H1221 0.960 1_556 S
C1214 C1212 1.381 . S
C1214 C1215 1.394 . S
C1214 H1222 0.930 . S
C1215 C1214 1.394 . S
C1215 C1216 1.383 . S
C1215 H1223 0.929 . S
C1216 C1215 1.383 . S
C1216 C1217 1.377 . S
C1217 H1201 0.948 . S
C1217 C1216 1.377 . S
C1217 C1218 1.379 . S
C1218 H1202 0.931 1_554 S
C1218 C1212 1.383 . S
C1218 C1217 1.379 . S
H1219 C1213 0.959 . S
H1220 C1213 0.961 . S
H1221 C1213 0.960 1_554 S
H1222 C1214 0.930 . S
H1223 C1215 0.929 . S
H1224 C1232 0.929 . S
H1225 C1234 0.930 . S
H1226 C1236 0.930 . S
H1227 C1239 0.929 . S
H1228 C1242 0.930 . S
H1229 C1244 0.960 . S
H1230 C1244 0.960 . S
H1231 C1244 0.960 1_556 S
C1232 H1224 0.929 . S
C1232 C1233 1.377 1_554 S
C1232 C1234 1.384 . S
C1233 C1232 1.377 1_556 S
C1233 C1239 1.390 . S
C1234 H1225 0.930 . S
C1234 C1232 1.384 . S
C1234 C1235 1.372 1_554 S
C1235 C1234 1.372 1_556 S
C1235 C1236 1.400 . S
C1235 C1240 1.490 1_556 S
C1236 H1226 0.930 . S
C1236 C1235 1.400 . S
C1236 C1239 1.386 . S
H1237 C1253 0.930 1_556 S
H1238 C1254 0.895 1_556 S
C1239 H1227 0.929 . S
C1239 C1233 1.390 . S
C1239 C1236 1.386 . S
C1240 C1235 1.490 1_554 S
C1240 C1242 1.395 . S
C1240 C1243 1.403 . S
H1241 C1247 0.930 . S
C1242 H1228 0.930 . S
C1242 C1240 1.395 . S
C1242 C1245 1.403 . S
C1243 C1240 1.403 . S
C1243 C1244 1.524 . S
C1243 C1247 1.400 . S
C1244 H1229 0.960 . S
C1244 H1230 0.960 . S
C1244 H1231 0.960 1_554 S
C1244 C1243 1.524 . S
C1245 C1242 1.403 . S
C1245 C1246 1.392 . S
C1245 C1249 1.495 . S
C1246 C1245 1.392 . S
C1246 C1247 1.385 . S
C1246 C1248 1.478 . S
C1247 H1241 0.930 . S
C1247 C1243 1.400 . S
C1247 C1246 1.385 . S
C1248 C1246 1.478 . S
C1248 C1250 1.381 . S
C1248 C1254 1.410 . S
C1249 C1245 1.495 . S
C1249 H1255 0.959 . S
C1249 H1256 0.960 1_554 S
C1249 H1257 0.960 . S
C1250 C1248 1.381 . S
C1250 C1251 1.394 . S
C1250 H1258 0.930 . S
C1251 C1250 1.394 . S
C1251 C1252 1.383 . S
C1251 H1259 0.929 . S
C1252 C1251 1.383 . S
C1252 C1253 1.377 . S
C1253 H1237 0.930 1_554 S
C1253 C1252 1.377 . S
C1253 C1254 1.389 . S
C1254 H1238 0.895 1_554 S
C1254 C1248 1.410 . S
C1254 C1253 1.389 . S
H1255 C1249 0.959 . S
H1256 C1249 0.960 1_556 S
H1257 C1249 0.960 . S
H1258 C1250 0.930 . S
H1259 C1251 0.929 . S
H1260 C1268 0.929 . S
H1261 C1270 0.930 . S
H1262 C1272 0.930 . S
H1263 C1275 0.929 . S
H1264 C1278 0.930 . S
H1265 C1280 0.960 . S
H1266 C1280 0.960 . S
H1267 C1280 0.960 . S
C1268 H1260 0.929 . S
C1268 C1269 1.377 . S
C1268 C1270 1.384 . S
C1269 C1268 1.377 . S
C1269 C1275 1.390 . S
C1270 H1261 0.930 . S
C1270 C1268 1.384 . S
C1270 C1271 1.372 . S
C1271 C1270 1.372 . S
C1271 C1272 1.400 . S
C1271 C1276 1.490 . S
C1272 H1262 0.930 . S
C1272 C1271 1.400 . S
C1272 C1275 1.386 . S
H1273 C1289 0.930 . S
H1274 C1290 0.931 . S
C1275 H1263 0.929 . S
C1275 C1269 1.390 . S
C1275 C1272 1.386 . S
C1276 C1271 1.490 . S
C1276 C1278 1.395 . S
C1276 C1279 1.403 . S
H1277 C1283 0.930 . S
C1278 H1264 0.930 . S
C1278 C1276 1.395 . S
C1278 C1281 1.403 . S
C1279 C1276 1.403 . S
C1279 C1280 1.524 . S
C1279 C1283 1.400 . S
C1280 H1265 0.960 . S
C1280 H1266 0.960 . S
C1280 H1267 0.960 . S
C1280 C1279 1.524 . S
C1281 C1278 1.403 . S
C1281 C1282 1.392 . S
C1281 C1285 1.495 . S
C1282 C1281 1.392 . S
C1282 C1283 1.385 . S
C1282 C1284 1.478 . S
C1283 H1277 0.930 . S
C1283 C1279 1.400 . S
C1283 C1282 1.385 . S
C1284 C1282 1.478 . S
C1284 C1286 1.381 . S
C1284 C1290 1.383 . S
C1285 C1281 1.495 . S
C1285 H1291 0.959 . S
C1285 H1292 0.961 . S
C1285 H1293 0.960 . S
C1286 C1284 1.381 . S
C1286 C1287 1.394 . S
C1286 H1294 0.930 . S
C1287 C1286 1.394 . S
C1287 C1288 1.383 . S
C1287 H1295 0.929 . S
C1288 C1287 1.383 . S
C1288 C1289 1.377 . S
C1289 H1273 0.930 . S
C1289 C1288 1.377 . S
C1289 C1290 1.379 . S
C1290 H1274 0.931 . S
C1290 C1284 1.383 . S
C1290 C1289 1.379 . S
H1291 C1285 0.959 . S
H1292 C1285 0.961 . S
H1293 C1285 0.960 . S
H1294 C1286 0.930 . S
H1295 C1287 0.929 . S
H1296 C1304 0.929 . S
H1297 C1306 0.930 . S
H1298 C1308 0.930 . S
H1299 C1311 0.929 . S
H1300 C1314 0.930 . S
H1301 C1316 0.960 . S
H1302 C1316 0.960 . S
H1303 C1316 0.960 . S
C1304 H1296 0.929 . S
C1304 C1305 1.377 . S
C1304 C1306 1.384 . S
C1305 C1304 1.377 . S
C1305 C1311 1.390 . S
C1306 H1297 0.930 . S
C1306 C1304 1.384 . S
C1306 C1307 1.372 . S
C1307 C1306 1.372 . S
C1307 C1308 1.400 . S
C1307 C1312 1.490 . S
C1308 H1298 0.930 . S
C1308 C1307 1.400 . S
C1308 C1311 1.386 . S
H1309 C1325 0.930 . S
H1310 C1326 0.931 . S
C1311 H1299 0.929 . S
C1311 C1305 1.390 . S
C1311 C1308 1.386 . S
C1312 C1307 1.490 . S
C1312 C1314 1.395 . S
C1312 C1315 1.403 . S
H1313 C1319 0.930 . S
C1314 H1300 0.930 . S
C1314 C1312 1.395 . S
C1314 C1317 1.403 . S
C1315 C1312 1.403 . S
C1315 C1316 1.524 . S
C1315 C1319 1.400 . S
C1316 H1301 0.960 . S
C1316 H1302 0.960 . S
C1316 H1303 0.960 . S
C1316 C1315 1.524 . S
C1317 C1314 1.403 . S
C1317 C1318 1.392 . S
C1317 C1321 1.495 . S
C1318 C1317 1.392 . S
C1318 C1319 1.385 . S
C1318 C1320 1.478 . S
C1319 H1313 0.930 . S
C1319 C1315 1.400 . S
C1319 C1318 1.385 . S
C1320 C1318 1.478 . S
C1320 C1322 1.381 . S
C1320 C1326 1.383 . S
C1321 C1317 1.495 . S
C1321 H1327 0.959 . S
C1321 H1328 0.961 . S
C1321 H1329 0.960 . S
C1322 C1320 1.381 . S
C1322 C1323 1.394 . S
C1322 H1330 0.930 . S
C1323 C1322 1.394 . S
C1323 C1324 1.383 . S
C1323 H1331 0.929 . S
C1324 C1323 1.383 . S
C1324 C1325 1.377 . S
C1325 H1309 0.930 . S
C1325 C1324 1.377 . S
C1325 C1326 1.379 . S
C1326 H1310 0.931 . S
C1326 C1320 1.383 . S
C1326 C1325 1.379 . S
H1327 C1321 0.959 . S
H1328 C1321 0.961 . S
H1329 C1321 0.960 . S
H1330 C1322 0.930 . S
H1331 C1323 0.929 . S
H1332 C1340 0.929 . S
H1333 C1342 0.930 . S
H1334 C1344 0.930 . S
H1335 C1347 0.929 . S
H1336 C1350 0.930 . S
H1337 C1352 0.960 . S
H1338 C1352 0.960 . S
H1339 C1352 0.960 . S
C1340 H1332 0.929 . S
C1340 C1341 1.377 . S
C1340 C1342 1.384 . S
C1341 C1340 1.377 . S
C1341 C1347 1.390 . S
C1342 H1333 0.930 . S
C1342 C1340 1.384 . S
C1342 C1343 1.372 . S
C1343 C1342 1.372 . S
C1343 C1344 1.400 . S
C1343 C1348 1.490 . S
C1344 H1334 0.930 . S
C1344 C1343 1.400 . S
C1344 C1347 1.386 . S
H1345 C1361 0.930 . S
H1346 C1362 0.931 . S
C1347 H1335 0.929 . S
C1347 C1341 1.390 . S
C1347 C1344 1.386 . S
C1348 C1343 1.490 . S
C1348 C1350 1.395 . S
C1348 C1351 1.403 . S
H1349 C1355 0.930 . S
C1350 H1336 0.930 . S
C1350 C1348 1.395 . S
C1350 C1353 1.403 . S
C1351 C1348 1.403 . S
C1351 C1352 1.524 . S
C1351 C1355 1.400 . S
C1352 H1337 0.960 . S
C1352 H1338 0.960 . S
C1352 H1339 0.960 . S
C1352 C1351 1.524 . S
C1353 C1350 1.403 . S
C1353 C1354 1.392 . S
C1353 C1357 1.495 . S
C1354 C1353 1.392 . S
C1354 C1355 1.385 . S
C1354 C1356 1.478 . S
C1355 H1349 0.930 . S
C1355 C1351 1.400 . S
C1355 C1354 1.385 . S
C1356 C1354 1.478 . S
C1356 C1358 1.381 . S
C1356 C1362 1.383 . S
C1357 C1353 1.495 . S
C1357 H1363 0.959 . S
C1357 H1364 0.961 . S
C1357 H1365 0.960 . S
C1358 C1356 1.381 . S
C1358 C1359 1.394 . S
C1358 H1366 0.930 . S
C1359 C1358 1.394 . S
C1359 C1360 1.383 . S
C1359 H1367 0.929 . S
C1360 C1359 1.383 . S
C1360 C1361 1.377 . S
C1361 H1345 0.930 . S
C1361 C1360 1.377 . S
C1361 C1362 1.379 . S
C1362 H1346 0.931 . S
C1362 C1356 1.383 . S
C1362 C1361 1.379 . S
H1363 C1357 0.959 . S
H1364 C1357 0.961 . S
H1365 C1357 0.960 . S
H1366 C1358 0.930 . S
H1367 C1359 0.929 . S
H1368 C1376 0.929 . S
H1369 C1378 0.930 . S
H1370 C1380 0.930 . S
H1371 C1383 0.929 . S
H1372 C1386 0.930 . S
H1373 C1388 0.960 . S
H1374 C1388 0.960 . S
H1375 C1388 0.960 . S
C1376 H1368 0.929 . S
C1376 C1377 1.377 1_556 S
C1376 C1378 1.384 . S
C1377 C1376 1.377 1_554 S
C1377 C1383 1.390 . S
C1378 H1369 0.930 . S
C1378 C1376 1.384 . S
C1378 C1379 1.372 1_556 S
C1379 C1378 1.372 1_554 S
C1379 C1380 1.400 . S
C1379 C1384 1.490 1_554 S
C1380 H1370 0.930 . S
C1380 C1379 1.400 . S
C1380 C1383 1.386 . S
H1381 C1397 0.930 1_554 S
H1382 C1398 0.931 1_554 S
C1383 H1371 0.929 . S
C1383 C1377 1.390 . S
C1383 C1380 1.386 . S
C1384 C1379 1.490 1_556 S
C1384 C1386 1.395 . S
C1384 C1387 1.403 1_556 S
H1385 C1391 0.930 . S
C1386 H1372 0.930 . S
C1386 C1384 1.395 . S
C1386 C1389 1.403 . S
C1387 C1384 1.403 1_554 S
C1387 C1388 1.524 . S
C1387 C1391 1.400 . S
C1388 H1373 0.960 . S
C1388 H1374 0.960 . S
C1388 H1375 0.960 . S
C1388 C1387 1.524 . S
C1389 C1386 1.403 . S
C1389 C1390 1.392 . S
C1389 C1393 1.495 . S
C1390 C1389 1.392 . S
C1390 C1391 1.385 1_556 S
C1390 C1392 1.478 . S
C1391 H1385 0.930 . S
C1391 C1387 1.400 . S
C1391 C1390 1.385 1_554 S
C1392 C1390 1.478 . S
C1392 C1394 1.381 . S
C1392 C1398 1.383 . S
C1393 C1389 1.495 . S
C1393 H1399 0.959 . S
C1393 H1400 0.961 . S
C1393 H1401 0.960 . S
C1394 C1392 1.381 . S
C1394 C1395 1.394 . S
C1394 H1402 0.930 . S
C1395 C1394 1.394 . S
C1395 C1396 1.383 . S
C1395 H1403 0.929 . S
C1396 C1395 1.383 . S
C1396 C1397 1.377 . S
C1397 H1381 0.930 1_556 S
C1397 C1396 1.377 . S
C1397 C1398 1.379 . S
C1398 H1382 0.931 1_556 S
C1398 C1392 1.383 . S
C1398 C1397 1.379 . S
H1399 C1393 0.959 . S
H1400 C1393 0.961 . S
H1401 C1393 0.960 . S
H1402 C1394 0.930 . S
H1403 C1395 0.929 . S
H1404 C1412 0.929 . S
H1405 C1414 0.930 1_554 S
H1406 C1416 0.930 . S
H1407 C1419 0.929 . S
H1408 C1422 0.930 . S
H1409 C1424 0.960 . S
H1410 C1424 0.960 . S
H1411 C1424 0.960 . S
C1412 H1404 0.929 . S
C1412 C1413 1.377 . S
C1412 C1414 1.384 . S
C1413 C1412 1.377 . S
C1413 C1419 1.390 . S
C1414 H1405 0.930 1_556 S
C1414 C1412 1.384 . S
C1414 C1415 1.372 . S
C1415 C1414 1.372 . S
C1415 C1416 1.400 . S
C1415 C1420 1.490 . S
C1416 H1406 0.930 . S
C1416 C1415 1.400 . S
C1416 C1419 1.386 . S
H1417 C1433 0.930 1_556 S
H1418 C1434 0.931 1_556 S
C1419 H1407 0.929 . S
C1419 C1413 1.390 . S
C1419 C1416 1.386 . S
C1420 C1415 1.490 . S
C1420 C1422 1.395 1_556 S
C1420 C1423 1.403 . S
H1421 C1427 0.930 . S
C1422 H1408 0.930 . S
C1422 C1420 1.395 1_554 S
C1422 C1425 1.403 . S
C1423 C1420 1.403 . S
C1423 C1424 1.524 . S
C1423 C1427 1.400 . S
C1424 H1409 0.960 . S
C1424 H1410 0.960 . S
C1424 H1411 0.960 . S
C1424 C1423 1.524 . S
C1425 C1422 1.403 . S
C1425 C1426 1.392 . S
C1425 C1429 1.495 . S
C1426 C1425 1.392 . S
C1426 C1427 1.385 1_554 S
C1426 C1428 1.478 . S
C1427 H1421 0.930 . S
C1427 C1423 1.400 . S
C1427 C1426 1.385 1_556 S
C1428 C1426 1.478 . S
C1428 C1430 1.381 . S
C1428 C1434 1.383 . S
C1429 C1425 1.495 . S
C1429 H1435 0.959 . S
C1429 H1436 0.961 . S
C1429 H1437 0.960 . S
C1430 C1428 1.381 . S
C1430 C1431 1.394 . S
C1430 H1438 0.930 . S
C1431 C1430 1.394 . S
C1431 C1432 1.383 . S
C1431 H1439 0.929 . S
C1432 C1431 1.383 . S
C1432 C1433 1.377 . S
C1433 H1417 0.930 1_554 S
C1433 C1432 1.377 . S
C1433 C1434 1.379 . S
C1434 H1418 0.931 1_554 S
C1434 C1428 1.383 . S
C1434 C1433 1.379 . S
H1435 C1429 0.959 . S
H1436 C1429 0.961 . S
H1437 C1429 0.960 . S
H1438 C1430 0.930 . S
H1439 C1431 0.929 . S
H1440 C1448 0.929 . S
H1441 C1450 0.930 . S
H1442 C1452 0.930 . S
H1443 C1455 0.929 . S
H1444 C1458 0.930 . S
H1445 C1460 0.960 . S
H1446 C1460 0.960 . S
H1447 C1460 0.960 . S
C1448 H1440 0.929 . S
C1448 C1449 1.377 . S
C1448 C1450 1.384 . S
C1449 C1448 1.377 . S
C1449 C1455 1.390 1_554 S
C1450 H1441 0.930 . S
C1450 C1448 1.384 . S
C1450 C1451 1.372 . S
C1451 C1450 1.372 . S
C1451 C1452 1.400 1_554 S
C1451 C1456 1.490 . S
C1452 H1442 0.930 . S
C1452 C1451 1.400 1_556 S
C1452 C1455 1.386 . S
H1453 C1469 0.930 . S
H1454 C1470 0.931 . S
C1455 H1443 0.929 . S
C1455 C1449 1.390 1_556 S
C1455 C1452 1.386 . S
C1456 C1451 1.490 . S
C1456 C1458 1.395 . S
C1456 C1459 1.403 1_554 S
H1457 C1463 0.930 . S
C1458 H1444 0.930 . S
C1458 C1456 1.395 . S
C1458 C1461 1.403 . S
C1459 C1456 1.403 1_556 S
C1459 C1460 1.524 . S
C1459 C1463 1.400 . S
C1460 H1445 0.960 . S
C1460 H1446 0.960 . S
C1460 H1447 0.960 . S
C1460 C1459 1.524 . S
C1461 C1458 1.403 . S
C1461 C1462 1.392 1_554 S
C1461 C1465 1.495 . S
C1462 C1461 1.392 1_556 S
C1462 C1463 1.385 . S
C1462 C1464 1.478 . S
C1463 H1457 0.930 . S
C1463 C1459 1.400 . S
C1463 C1462 1.385 . S
C1464 C1462 1.478 . S
C1464 C1466 1.381 1_556 S
C1464 C1470 1.383 . S
C1465 C1461 1.495 . S
C1465 H1471 0.959 . S
C1465 H1472 0.961 . S
C1465 H1473 0.960 . S
C1466 C1464 1.381 1_554 S
C1466 C1467 1.394 1_554 S
C1466 H1474 0.930 . S
C1467 C1466 1.394 1_556 S
C1467 C1468 1.383 . S
C1467 H1475 0.929 1_556 S
C1468 C1467 1.383 . S
C1468 C1469 1.377 . S
C1469 H1453 0.930 . S
C1469 C1468 1.377 . S
C1469 C1470 1.379 . S
C1470 H1454 0.931 . S
C1470 C1464 1.383 . S
C1470 C1469 1.379 . S
H1471 C1465 0.959 . S
H1472 C1465 0.961 . S
H1473 C1465 0.960 . S
H1474 C1466 0.930 . S
H1475 C1467 0.929 1_554 S
H1476 C1484 0.929 . S
H1477 C1486 0.930 . S
H1478 C1488 0.930 . S
H1479 C1491 0.929 . S
H1480 C1494 0.930 . S
H1481 C1496 0.960 . S
H1482 C1496 0.960 . S
H1483 C1496 0.960 . S
C1484 H1476 0.929 . S
C1484 C1485 1.377 . S
C1484 C1486 1.384 . S
C1485 C1484 1.377 . S
C1485 C1491 1.390 . S
C1486 H1477 0.930 . S
C1486 C1484 1.384 . S
C1486 C1487 1.372 . S
C1487 C1486 1.372 . S
C1487 C1488 1.400 . S
C1487 C1492 1.490 . S
C1488 H1478 0.930 . S
C1488 C1487 1.400 . S
C1488 C1491 1.386 . S
H1489 C1505 0.930 . S
H1490 C1506 0.931 . S
C1491 H1479 0.929 . S
C1491 C1485 1.390 . S
C1491 C1488 1.386 . S
C1492 C1487 1.490 . S
C1492 C1494 1.395 . S
C1492 C1495 1.403 . S
H1493 C1499 0.930 . S
C1494 H1480 0.930 . S
C1494 C1492 1.395 . S
C1494 C1497 1.403 . S
C1495 C1492 1.403 . S
C1495 C1496 1.524 . S
C1495 C1499 1.400 . S
C1496 H1481 0.960 . S
C1496 H1482 0.960 . S
C1496 H1483 0.960 . S
C1496 C1495 1.524 . S
C1497 C1494 1.403 . S
C1497 C1498 1.392 . S
C1497 C1501 1.495 . S
C1498 C1497 1.392 . S
C1498 C1499 1.385 . S
C1498 C1500 1.478 . S
C1499 H1493 0.930 . S
C1499 C1495 1.400 . S
C1499 C1498 1.385 . S
C1500 C1498 1.478 . S
C1500 C1502 1.381 . S
C1500 C1506 1.383 . S
C1501 C1497 1.495 . S
C1501 H1507 0.959 . S
C1501 H1508 0.961 . S
C1501 H1509 0.960 . S
C1502 C1500 1.381 . S
C1502 C1503 1.394 . S
C1502 H1510 0.930 . S
C1503 C1502 1.394 . S
C1503 C1504 1.383 . S
C1503 H1511 0.929 . S
C1504 C1503 1.383 . S
C1504 C1505 1.377 . S
C1505 H1489 0.930 . S
C1505 C1504 1.377 . S
C1505 C1506 1.379 . S
C1506 H1490 0.931 . S
C1506 C1500 1.383 . S
C1506 C1505 1.379 . S
H1507 C1501 0.959 . S
H1508 C1501 0.961 . S
H1509 C1501 0.960 . S
H1510 C1502 0.930 . S
H1511 C1503 0.929 . S
H1512 C1520 0.929 . S
H1513 C1522 0.930 . S
H1514 C1524 0.930 . S
H1515 C1527 0.929 . S
H1516 C1530 0.930 . S
H1517 C1532 0.960 . S
H1518 C1532 0.960 . S
H1519 C1532 0.960 . S
C1520 H1512 0.929 . S
C1520 C1521 1.377 . S
C1520 C1522 1.384 . S
C1521 C1520 1.377 . S
C1521 C1527 1.390 . S
C1522 H1513 0.930 . S
C1522 C1520 1.384 . S
C1522 C1523 1.372 . S
C1523 C1522 1.372 . S
C1523 C1524 1.400 . S
C1523 C1528 1.490 . S
C1524 H1514 0.930 . S
C1524 C1523 1.400 . S
C1524 C1527 1.386 . S
H1525 C1541 0.930 . S
H1526 C1542 0.931 . S
C1527 H1515 0.929 . S
C1527 C1521 1.390 . S
C1527 C1524 1.386 . S
C1528 C1523 1.490 . S
C1528 C1530 1.395 . S
C1528 C1531 1.403 . S
H1529 C1535 0.930 . S
C1530 H1516 0.930 . S
C1530 C1528 1.395 . S
C1530 C1533 1.403 . S
C1531 C1528 1.403 . S
C1531 C1532 1.524 . S
C1531 C1535 1.400 . S
C1532 H1517 0.960 . S
C1532 H1518 0.960 . S
C1532 H1519 0.960 . S
C1532 C1531 1.524 . S
C1533 C1530 1.403 . S
C1533 C1534 1.392 . S
C1533 C1537 1.495 . S
C1534 C1533 1.392 . S
C1534 C1535 1.385 . S
C1534 C1536 1.478 . S
C1535 H1529 0.930 . S
C1535 C1531 1.400 . S
C1535 C1534 1.385 . S
C1536 C1534 1.478 . S
C1536 C1538 1.381 . S
C1536 C1542 1.383 . S
C1537 C1533 1.495 . S
C1537 H1543 0.959 . S
C1537 H1544 0.961 . S
C1537 H1545 0.960 . S
C1538 C1536 1.381 . S
C1538 C1539 1.394 . S
C1538 H1546 0.930 . S
C1539 C1538 1.394 . S
C1539 C1540 1.383 . S
C1539 H1547 0.929 . S
C1540 C1539 1.383 . S
C1540 C1541 1.377 . S
C1541 H1525 0.930 . S
C1541 C1540 1.377 . S
C1541 C1542 1.379 . S
C1542 H1526 0.931 . S
C1542 C1536 1.383 . S
C1542 C1541 1.379 . S
H1543 C1537 0.959 . S
H1544 C1537 0.961 . S
H1545 C1537 0.960 . S
H1546 C1538 0.930 . S
H1547 C1539 0.929 . S
H1548 C1556 0.929 . S
H1549 C1558 0.930 . S
H1550 C1560 0.930 . S
H1551 C1563 0.929 . S
H1552 C1566 0.930 . S
H1553 C1568 0.960 . S
H1554 C1568 0.960 . S
H1555 C1568 0.960 . S
C1556 H1548 0.929 . S
C1556 C1557 1.377 . S
C1556 C1558 1.384 . S
C1557 C1556 1.377 . S
C1557 C1563 1.390 . S
C1558 H1549 0.930 . S
C1558 C1556 1.384 . S
C1558 C1559 1.372 . S
C1559 C1558 1.372 . S
C1559 C1560 1.400 . S
C1559 C1564 1.490 . S
C1560 H1550 0.930 . S
C1560 C1559 1.400 . S
C1560 C1563 1.386 . S
H1561 C1577 0.930 . S
H1562 C1578 0.931 . S
C1563 H1551 0.929 . S
C1563 C1557 1.390 . S
C1563 C1560 1.386 . S
C1564 C1559 1.490 . S
C1564 C1566 1.395 . S
C1564 C1567 1.403 . S
H1565 C1571 0.930 . S
C1566 H1552 0.930 . S
C1566 C1564 1.395 . S
C1566 C1569 1.403 . S
C1567 C1564 1.403 . S
C1567 C1568 1.524 . S
C1567 C1571 1.400 . S
C1568 H1553 0.960 . S
C1568 H1554 0.960 . S
C1568 H1555 0.960 . S
C1568 C1567 1.524 . S
C1569 C1566 1.403 . S
C1569 C1570 1.392 . S
C1569 C1573 1.495 . S
C1570 C1569 1.392 . S
C1570 C1571 1.385 . S
C1570 C1572 1.478 . S
C1571 H1565 0.930 . S
C1571 C1567 1.400 . S
C1571 C1570 1.385 . S
C1572 C1570 1.478 . S
C1572 C1574 1.381 . S
C1572 C1578 1.383 . S
C1573 C1569 1.495 . S
C1573 H1579 0.959 . S
C1573 H1580 0.961 . S
C1573 H1581 0.960 . S
C1574 C1572 1.381 . S
C1574 C1575 1.394 . S
C1574 H1582 0.930 . S
C1575 C1574 1.394 . S
C1575 C1576 1.383 . S
C1575 H1583 0.929 . S
C1576 C1575 1.383 . S
C1576 C1577 1.377 . S
C1577 H1561 0.930 . S
C1577 C1576 1.377 . S
C1577 C1578 1.379 . S
C1578 H1562 0.931 . S
C1578 C1572 1.383 . S
C1578 C1577 1.379 . S
H1579 C1573 0.959 . S
H1580 C1573 0.961 . S
H1581 C1573 0.960 . S
H1582 C1574 0.930 . S
H1583 C1575 0.929 . S
H1584 C1592 0.929 . S
H1585 C1594 0.930 . S
H1586 C1596 0.930 . S
H1587 C1599 0.929 . S
H1588 C1602 0.930 . S
H1589 C1604 0.960 . S
H1590 C1604 0.960 . S
H1591 C1604 0.960 . S
C1592 H1584 0.929 . S
C1592 C1593 1.377 . S
C1592 C1594 1.384 . S
C1593 C1592 1.377 . S
C1593 C1599 1.390 . S
C1594 H1585 0.930 . S
C1594 C1592 1.384 . S
C1594 C1595 1.372 . S
C1595 C1594 1.372 . S
C1595 C1596 1.400 . S
C1595 C1600 1.490 . S
C1596 H1586 0.930 . S
C1596 C1595 1.400 . S
C1596 C1599 1.386 . S
H1597 C1613 0.930 . S
H1598 C1614 0.931 . S
C1599 H1587 0.929 . S
C1599 C1593 1.390 . S
C1599 C1596 1.386 . S
C1600 C1595 1.490 . S
C1600 C1602 1.395 . S
C1600 C1603 1.403 . S
H1601 C1607 0.930 . S
C1602 H1588 0.930 . S
C1602 C1600 1.395 . S
C1602 C1605 1.403 . S
C1603 C1600 1.403 . S
C1603 C1604 1.524 . S
C1603 C1607 1.400 . S
C1604 H1589 0.960 . S
C1604 H1590 0.960 . S
C1604 H1591 0.960 . S
C1604 C1603 1.524 . S
C1605 C1602 1.403 . S
C1605 C1606 1.392 . S
C1605 C1609 1.495 . S
C1606 C1605 1.392 . S
C1606 C1607 1.385 . S
C1606 C1608 1.478 . S
C1607 H1601 0.930 . S
C1607 C1603 1.400 . S
C1607 C1606 1.385 . S
C1608 C1606 1.478 . S
C1608 C1610 1.381 . S
C1608 C1614 1.383 . S
C1609 C1605 1.495 . S
C1609 H1615 0.959 . S
C1609 H1616 0.961 . S
C1609 H1617 0.960 . S
C1610 C1608 1.381 . S
C1610 C1611 1.394 . S
C1610 H1618 0.930 . S
C1611 C1610 1.394 . S
C1611 C1612 1.383 . S
C1611 H1619 0.929 . S
C1612 C1611 1.383 . S
C1612 C1613 1.377 . S
C1613 H1597 0.930 . S
C1613 C1612 1.377 . S
C1613 C1614 1.379 . S
C1614 H1598 0.931 . S
C1614 C1608 1.383 . S
C1614 C1613 1.379 . S
H1615 C1609 0.959 . S
H1616 C1609 0.961 . S
H1617 C1609 0.960 . S
H1618 C1610 0.930 . S
H1619 C1611 0.929 . S
H1620 C1628 0.929 . S
H1621 C1630 0.930 . S
H1622 C1632 0.930 . S
H1623 C1635 0.929 . S
H1624 C1638 0.930 . S
H1625 C1640 0.960 . S
H1626 C1640 0.960 . S
H1627 C1640 0.960 . S
C1628 H1620 0.929 . S
C1628 C1629 1.377 . S
C1628 C1630 1.384 . S
C1629 C1628 1.377 . S
C1629 C1635 1.390 . S
C1630 H1621 0.930 . S
C1630 C1628 1.384 . S
C1630 C1631 1.372 . S
C1631 C1630 1.372 . S
C1631 C1632 1.400 . S
C1631 C1636 1.490 . S
C1632 H1622 0.930 . S
C1632 C1631 1.400 . S
C1632 C1635 1.386 . S
H1633 C1649 0.930 . S
H1634 C1650 0.931 . S
C1635 H1623 0.929 . S
C1635 C1629 1.390 . S
C1635 C1632 1.386 . S
C1636 C1631 1.490 . S
C1636 C1638 1.395 . S
C1636 C1639 1.403 . S
H1637 C1643 0.930 . S
C1638 H1624 0.930 . S
C1638 C1636 1.395 . S
C1638 C1641 1.403 . S
C1639 C1636 1.403 . S
C1639 C1640 1.524 . S
C1639 C1643 1.400 . S
C1640 H1625 0.960 . S
C1640 H1626 0.960 . S
C1640 H1627 0.960 . S
C1640 C1639 1.524 . S
C1641 C1638 1.403 . S
C1641 C1642 1.392 . S
C1641 C1645 1.495 . S
C1642 C1641 1.392 . S
C1642 C1643 1.385 . S
C1642 C1644 1.478 . S
C1643 H1637 0.930 . S
C1643 C1639 1.400 . S
C1643 C1642 1.385 . S
C1644 C1642 1.478 . S
C1644 C1646 1.381 . S
C1644 C1650 1.383 . S
C1645 C1641 1.495 . S
C1645 H1651 0.959 . S
C1645 H1652 0.961 . S
C1645 H1653 0.960 . S
C1646 C1644 1.381 . S
C1646 C1647 1.394 . S
C1646 H1654 0.930 . S
C1647 C1646 1.394 . S
C1647 C1648 1.383 . S
C1647 H1655 0.929 . S
C1648 C1647 1.383 . S
C1648 C1649 1.377 . S
C1649 H1633 0.930 . S
C1649 C1648 1.377 . S
C1649 C1650 1.379 . S
C1650 H1634 0.931 . S
C1650 C1644 1.383 . S
C1650 C1649 1.379 . S
H1651 C1645 0.959 . S
H1652 C1645 0.961 . S
H1653 C1645 0.960 . S
H1654 C1646 0.930 . S
H1655 C1647 0.929 . S
H1656 C1664 0.929 . S
H1657 C1666 0.930 . S
H1658 C1668 0.930 . S
H1659 C1671 0.929 . S
H1660 C1674 0.930 . S
H1661 C1676 0.960 . S
H1662 C1676 0.960 . S
H1663 C1676 0.960 . S
C1664 H1656 0.929 . S
C1664 C1665 1.377 . S
C1664 C1666 1.384 . S
C1665 C1664 1.377 . S
C1665 C1671 1.390 . S
C1666 H1657 0.930 . S
C1666 C1664 1.384 . S
C1666 C1667 1.372 . S
C1667 C1666 1.372 . S
C1667 C1668 1.400 . S
C1667 C1672 1.490 . S
C1668 H1658 0.930 . S
C1668 C1667 1.400 . S
C1668 C1671 1.386 . S
H1669 C1685 0.930 . S
H1670 C1686 0.931 . S
C1671 H1659 0.929 . S
C1671 C1665 1.390 . S
C1671 C1668 1.386 . S
C1672 C1667 1.490 . S
C1672 C1674 1.395 . S
C1672 C1675 1.403 . S
H1673 C1679 0.930 . S
C1674 H1660 0.930 . S
C1674 C1672 1.395 . S
C1674 C1677 1.403 . S
C1675 C1672 1.403 . S
C1675 C1676 1.524 . S
C1675 C1679 1.400 . S
C1676 H1661 0.960 . S
C1676 H1662 0.960 . S
C1676 H1663 0.960 . S
C1676 C1675 1.524 . S
C1677 C1674 1.403 . S
C1677 C1678 1.392 . S
C1677 C1681 1.495 . S
C1678 C1677 1.392 . S
C1678 C1679 1.385 . S
C1678 C1680 1.478 . S
C1679 H1673 0.930 . S
C1679 C1675 1.400 . S
C1679 C1678 1.385 . S
C1680 C1678 1.478 . S
C1680 C1682 1.381 . S
C1680 C1686 1.383 . S
C1681 C1677 1.495 . S
C1681 H1687 0.959 . S
C1681 H1688 0.961 . S
C1681 H1689 0.960 . S
C1682 C1680 1.381 . S
C1682 C1683 1.394 . S
C1682 H1690 0.930 . S
C1683 C1682 1.394 . S
C1683 C1684 1.383 . S
C1683 H1691 0.929 . S
C1684 C1683 1.383 . S
C1684 C1685 1.377 . S
C1685 H1669 0.930 . S
C1685 C1684 1.377 . S
C1685 C1686 1.379 . S
C1686 H1670 0.931 . S
C1686 C1680 1.383 . S
C1686 C1685 1.379 . S
H1687 C1681 0.959 . S
H1688 C1681 0.961 . S
H1689 C1681 0.960 . S
H1690 C1682 0.930 . S
H1691 C1683 0.929 . S
H1692 C1700 0.929 . S
H1693 C1702 0.930 . S
H1694 C1704 0.930 . S
H1695 C1707 0.929 . S
H1696 C1710 0.930 . S
H1697 C1712 0.960 . S
H1698 C1712 0.960 . S
H1699 C1712 0.960 . S
C1700 H1692 0.929 . S
C1700 C1701 1.377 . S
C1700 C1702 1.384 . S
C1701 C1700 1.377 . S
C1701 C1707 1.390 . S
C1702 H1693 0.930 . S
C1702 C1700 1.384 . S
C1702 C1703 1.372 . S
C1703 C1702 1.372 . S
C1703 C1704 1.400 . S
C1703 C1708 1.490 . S
C1704 H1694 0.930 . S
C1704 C1703 1.400 . S
C1704 C1707 1.386 . S
H1705 C1721 0.930 . S
H1706 C1722 0.931 . S
C1707 H1695 0.929 . S
C1707 C1701 1.390 . S
C1707 C1704 1.386 . S
C1708 C1703 1.490 . S
C1708 C1710 1.395 . S
C1708 C1711 1.403 . S
H1709 C1715 0.930 . S
C1710 H1696 0.930 . S
C1710 C1708 1.395 . S
C1710 C1713 1.403 . S
C1711 C1708 1.403 . S
C1711 C1712 1.524 . S
C1711 C1715 1.400 . S
C1712 H1697 0.960 . S
C1712 H1698 0.960 . S
C1712 H1699 0.960 . S
C1712 C1711 1.524 . S
C1713 C1710 1.403 . S
C1713 C1714 1.392 . S
C1713 C1717 1.495 . S
C1714 C1713 1.392 . S
C1714 C1715 1.385 . S
C1714 C1716 1.478 . S
C1715 H1709 0.930 . S
C1715 C1711 1.400 . S
C1715 C1714 1.385 . S
C1716 C1714 1.478 . S
C1716 C1718 1.381 . S
C1716 C1722 1.383 . S
C1717 C1713 1.495 . S
C1717 H1723 0.959 . S
C1717 H1724 0.961 . S
C1717 H1725 0.960 . S
C1718 C1716 1.381 . S
C1718 C1719 1.394 . S
C1718 H1726 0.930 . S
C1719 C1718 1.394 . S
C1719 C1720 1.383 . S
C1719 H1727 0.929 . S
C1720 C1719 1.383 . S
C1720 C1721 1.377 . S
C1721 H1705 0.930 . S
C1721 C1720 1.377 . S
C1721 C1722 1.379 . S
C1722 H1706 0.931 . S
C1722 C1716 1.383 . S
C1722 C1721 1.379 . S
H1723 C1717 0.959 . S
H1724 C1717 0.961 . S
H1725 C1717 0.960 . S
H1726 C1718 0.930 . S
H1727 C1719 0.929 . S
H1728 C1736 0.929 . S
H1729 C1738 0.930 . S
H1730 C1740 0.930 . S
H1731 C1743 0.929 . S
H1732 C1746 0.930 . S
H1733 C1748 0.960 . S
H1734 C1748 0.960 . S
H1735 C1748 0.960 . S
C1736 H1728 0.929 . S
C1736 C1737 1.377 . S
C1736 C1738 1.384 . S
C1737 C1736 1.377 . S
C1737 C1743 1.390 . S
C1738 H1729 0.930 . S
C1738 C1736 1.384 . S
C1738 C1739 1.372 . S
C1739 C1738 1.372 . S
C1739 C1740 1.400 . S
C1739 C1744 1.490 . S
C1740 H1730 0.930 . S
C1740 C1739 1.400 . S
C1740 C1743 1.386 . S
H1741 C1757 0.930 . S
H1742 C1758 0.931 . S
C1743 H1731 0.929 . S
C1743 C1737 1.390 . S
C1743 C1740 1.386 . S
C1744 C1739 1.490 . S
C1744 C1746 1.395 . S
C1744 C1747 1.403 . S
H1745 C1751 0.930 . S
C1746 H1732 0.930 . S
C1746 C1744 1.395 . S
C1746 C1749 1.403 . S
C1747 C1744 1.403 . S
C1747 C1748 1.524 . S
C1747 C1751 1.400 . S
C1748 H1733 0.960 . S
C1748 H1734 0.960 . S
C1748 H1735 0.960 . S
C1748 C1747 1.524 . S
C1749 C1746 1.403 . S
C1749 C1750 1.392 . S
C1749 C1753 1.495 . S
C1750 C1749 1.392 . S
C1750 C1751 1.385 . S
C1750 C1752 1.478 . S
C1751 H1745 0.930 . S
C1751 C1747 1.400 . S
C1751 C1750 1.385 . S
C1752 C1750 1.478 . S
C1752 C1754 1.381 . S
C1752 C1758 1.383 . S
C1753 C1749 1.495 . S
C1753 H1759 0.959 . S
C1753 H1760 0.961 . S
C1753 H1761 0.960 . S
C1754 C1752 1.381 . S
C1754 C1755 1.394 . S
C1754 H1762 0.930 . S
C1755 C1754 1.394 . S
C1755 C1756 1.383 . S
C1755 H1763 0.929 . S
C1756 C1755 1.383 . S
C1756 C1757 1.377 . S
C1757 H1741 0.930 . S
C1757 C1756 1.377 . S
C1757 C1758 1.379 . S
C1758 H1742 0.931 . S
C1758 C1752 1.383 . S
C1758 C1757 1.379 . S
H1759 C1753 0.959 . S
H1760 C1753 0.961 . S
H1761 C1753 0.960 . S
H1762 C1754 0.930 . S
H1763 C1755 0.929 . S
H1764 C1772 0.929 . S
H1765 C1774 0.930 . S
H1766 C1776 0.930 . S
H1767 C1779 0.929 . S
H1768 C1782 0.930 . S
H1769 C1784 0.960 . S
H1770 C1784 0.960 . S
H1771 C1784 0.960 . S
C1772 H1764 0.929 . S
C1772 C1773 1.377 . S
C1772 C1774 1.384 . S
C1773 C1772 1.377 . S
C1773 C1779 1.390 . S
C1774 H1765 0.930 . S
C1774 C1772 1.384 . S
C1774 C1775 1.372 . S
C1775 C1774 1.372 . S
C1775 C1776 1.400 . S
C1775 C1780 1.490 . S
C1776 H1766 0.930 . S
C1776 C1775 1.400 . S
C1776 C1779 1.386 . S
H1777 C1793 0.930 . S
H1778 C1794 0.931 . S
C1779 H1767 0.929 . S
C1779 C1773 1.390 . S
C1779 C1776 1.386 . S
C1780 C1775 1.490 . S
C1780 C1782 1.395 . S
C1780 C1783 1.403 . S
H1781 C1787 0.930 . S
C1782 H1768 0.930 . S
C1782 C1780 1.395 . S
C1782 C1785 1.403 . S
C1783 C1780 1.403 . S
C1783 C1784 1.524 . S
C1783 C1787 1.400 . S
C1784 H1769 0.960 . S
C1784 H1770 0.960 . S
C1784 H1771 0.960 . S
C1784 C1783 1.524 . S
C1785 C1782 1.403 . S
C1785 C1786 1.392 . S
C1785 C1789 1.495 . S
C1786 C1785 1.392 . S
C1786 C1787 1.385 . S
C1786 C1788 1.478 . S
C1787 H1781 0.930 . S
C1787 C1783 1.400 . S
C1787 C1786 1.385 . S
C1788 C1786 1.478 . S
C1788 C1790 1.381 . S
C1788 C1794 1.383 . S
C1789 C1785 1.495 . S
C1789 H1795 0.959 . S
C1789 H1796 0.961 . S
C1789 H1797 0.960 . S
C1790 C1788 1.381 . S
C1790 C1791 1.394 . S
C1790 H1798 0.930 . S
C1791 C1790 1.394 . S
C1791 C1792 1.383 . S
C1791 H1799 0.929 . S
C1792 C1791 1.383 . S
C1792 C1793 1.377 . S
C1793 H1777 0.930 . S
C1793 C1792 1.377 . S
C1793 C1794 1.379 . S
C1794 H1778 0.931 . S
C1794 C1788 1.383 . S
C1794 C1793 1.379 . S
H1795 C1789 0.959 . S
H1796 C1789 0.961 . S
H1797 C1789 0.960 . S
H1798 C1790 0.930 . S
H1799 C1791 0.929 . S
H1800 C1808 0.929 . S
H1801 C1810 0.930 . S
H1802 C1812 0.930 . S
H1803 C1815 0.929 . S
H1804 C1818 0.930 . S
H1805 C1820 0.960 . S
H1806 C1820 0.960 . S
H1807 C1820 0.960 . S
C1808 H1800 0.929 . S
C1808 C1809 1.377 . S
C1808 C1810 1.384 . S
C1809 C1808 1.377 . S
C1809 C1815 1.390 . S
C1810 H1801 0.930 . S
C1810 C1808 1.384 . S
C1810 C1811 1.372 . S
C1811 C1810 1.372 . S
C1811 C1812 1.400 . S
C1811 C1816 1.490 . S
C1812 H1802 0.930 . S
C1812 C1811 1.400 . S
C1812 C1815 1.386 . S
H1813 C1829 0.930 . S
H1814 C1830 0.931 . S
C1815 H1803 0.929 . S
C1815 C1809 1.390 . S
C1815 C1812 1.386 . S
C1816 C1811 1.490 . S
C1816 C1818 1.395 . S
C1816 C1819 1.403 . S
H1817 C1823 0.930 . S
C1818 H1804 0.930 . S
C1818 C1816 1.395 . S
C1818 C1821 1.403 . S
C1819 C1816 1.403 . S
C1819 C1820 1.524 . S
C1819 C1823 1.400 . S
C1820 H1805 0.960 . S
C1820 H1806 0.960 . S
C1820 H1807 0.960 . S
C1820 C1819 1.524 . S
C1821 C1818 1.403 . S
C1821 C1822 1.392 . S
C1821 C1825 1.495 . S
C1822 C1821 1.392 . S
C1822 C1823 1.385 . S
C1822 C1824 1.478 . S
C1823 H1817 0.930 . S
C1823 C1819 1.400 . S
C1823 C1822 1.385 . S
C1824 C1822 1.478 . S
C1824 C1826 1.381 . S
C1824 C1830 1.383 . S
C1825 C1821 1.495 . S
C1825 H1831 0.959 . S
C1825 H1832 0.961 . S
C1825 H1833 0.960 . S
C1826 C1824 1.381 . S
C1826 C1827 1.394 . S
C1826 H1834 0.930 . S
C1827 C1826 1.394 . S
C1827 C1828 1.383 . S
C1827 H1835 0.929 . S
C1828 C1827 1.383 . S
C1828 C1829 1.377 . S
C1829 H1813 0.930 . S
C1829 C1828 1.377 . S
C1829 C1830 1.379 . S
C1830 H1814 0.931 . S
C1830 C1824 1.383 . S
C1830 C1829 1.379 . S
H1831 C1825 0.959 . S
H1832 C1825 0.961 . S
H1833 C1825 0.960 . S
H1834 C1826 0.930 . S
H1835 C1827 0.929 . S
H1836 C1844 0.929 . S
H1837 C1846 0.930 . S
H1838 C1848 0.930 . S
H1839 C1851 0.929 . S
H1840 C1854 0.930 . S
H1841 C1856 0.960 . S
H1842 C1856 0.960 . S
H1843 C1856 0.960 . S
C1844 H1836 0.929 . S
C1844 C1845 1.377 . S
C1844 C1846 1.384 . S
C1845 C1844 1.377 . S
C1845 C1851 1.390 . S
C1846 H1837 0.930 . S
C1846 C1844 1.384 . S
C1846 C1847 1.372 . S
C1847 C1846 1.372 . S
C1847 C1848 1.400 . S
C1847 C1852 1.490 . S
C1848 H1838 0.930 . S
C1848 C1847 1.400 . S
C1848 C1851 1.386 . S
H1849 C1865 0.930 . S
H1850 C1866 0.931 . S
C1851 H1839 0.929 . S
C1851 C1845 1.390 . S
C1851 C1848 1.386 . S
C1852 C1847 1.490 . S
C1852 C1854 1.395 . S
C1852 C1855 1.403 . S
H1853 C1859 0.930 . S
C1854 H1840 0.930 . S
C1854 C1852 1.395 . S
C1854 C1857 1.403 . S
C1855 C1852 1.403 . S
C1855 C1856 1.524 . S
C1855 C1859 1.400 . S
C1856 H1841 0.960 . S
C1856 H1842 0.960 . S
C1856 H1843 0.960 . S
C1856 C1855 1.524 . S
C1857 C1854 1.403 . S
C1857 C1858 1.392 . S
C1857 C1861 1.495 . S
C1858 C1857 1.392 . S
C1858 C1859 1.385 . S
C1858 C1860 1.478 . S
C1859 H1853 0.930 . S
C1859 C1855 1.400 . S
C1859 C1858 1.385 . S
C1860 C1858 1.478 . S
C1860 C1862 1.381 . S
C1860 C1866 1.383 . S
C1861 C1857 1.495 . S
C1861 H1867 0.959 . S
C1861 H1868 0.961 . S
C1861 H1869 0.960 . S
C1862 C1860 1.381 . S
C1862 C1863 1.394 . S
C1862 H1870 0.930 . S
C1863 C1862 1.394 . S
C1863 C1864 1.383 . S
C1863 H1871 0.929 . S
C1864 C1863 1.383 . S
C1864 C1865 1.377 . S
C1865 H1849 0.930 . S
C1865 C1864 1.377 . S
C1865 C1866 1.379 . S
C1866 H1850 0.931 . S
C1866 C1860 1.383 . S
C1866 C1865 1.379 . S
H1867 C1861 0.959 . S
H1868 C1861 0.961 . S
H1869 C1861 0.960 . S
H1870 C1862 0.930 . S
H1871 C1863 0.929 . S
H1872 C1880 0.929 . S
H1873 C1882 0.930 . S
H1874 C1884 0.930 . S
H1875 C1887 0.929 . S
H1876 C1890 0.930 . S
H1877 C1892 0.960 . S
H1878 C1892 0.960 . S
H1879 C1892 0.960 . S
C1880 H1872 0.929 . S
C1880 C1881 1.377 . S
C1880 C1882 1.384 . S
C1881 C1880 1.377 . S
C1881 C1887 1.390 . S
C1882 H1873 0.930 . S
C1882 C1880 1.384 . S
C1882 C1883 1.372 . S
C1883 C1882 1.372 . S
C1883 C1884 1.400 . S
C1883 C1888 1.490 . S
C1884 H1874 0.930 . S
C1884 C1883 1.400 . S
C1884 C1887 1.386 . S
H1885 C1901 0.930 . S
H1886 C1902 0.931 . S
C1887 H1875 0.929 . S
C1887 C1881 1.390 . S
C1887 C1884 1.386 . S
C1888 C1883 1.490 . S
C1888 C1890 1.395 . S
C1888 C1891 1.403 . S
H1889 C1895 0.930 . S
C1890 H1876 0.930 . S
C1890 C1888 1.395 . S
C1890 C1893 1.403 . S
C1891 C1888 1.403 . S
C1891 C1892 1.524 . S
C1891 C1895 1.400 . S
C1892 H1877 0.960 . S
C1892 H1878 0.960 . S
C1892 H1879 0.960 . S
C1892 C1891 1.524 . S
C1893 C1890 1.403 . S
C1893 C1894 1.392 . S
C1893 C1897 1.495 . S
C1894 C1893 1.392 . S
C1894 C1895 1.385 . S
C1894 C1896 1.478 . S
C1895 H1889 0.930 . S
C1895 C1891 1.400 . S
C1895 C1894 1.385 . S
C1896 C1894 1.478 . S
C1896 C1898 1.381 . S
C1896 C1902 1.383 . S
C1897 C1893 1.495 . S
C1897 H1903 0.959 . S
C1897 H1904 0.961 . S
C1897 H1905 0.960 . S
C1898 C1896 1.381 . S
C1898 C1899 1.394 . S
C1898 H1906 0.930 . S
C1899 C1898 1.394 . S
C1899 C1900 1.383 . S
C1899 H1907 0.929 . S
C1900 C1899 1.383 . S
C1900 C1901 1.377 . S
C1901 H1885 0.930 . S
C1901 C1900 1.377 . S
C1901 C1902 1.379 . S
C1902 H1886 0.931 . S
C1902 C1896 1.383 . S
C1902 C1901 1.379 . S
H1903 C1897 0.959 . S
H1904 C1897 0.961 . S
H1905 C1897 0.960 . S
H1906 C1898 0.930 . S
H1907 C1899 0.929 . S
H1908 C1916 0.929 . S
H1909 C1918 0.930 . S
H1910 C1920 0.930 . S
H1911 C1923 0.929 . S
H1912 C1926 0.930 . S
H1913 C1928 0.960 . S
H1914 C1928 0.960 . S
H1915 C1928 0.960 . S
C1916 H1908 0.929 . S
C1916 C1917 1.377 . S
C1916 C1918 1.384 . S
C1917 C1916 1.377 . S
C1917 C1923 1.390 . S
C1918 H1909 0.930 . S
C1918 C1916 1.384 . S
C1918 C1919 1.372 . S
C1919 C1918 1.372 . S
C1919 C1920 1.400 . S
C1919 C1924 1.490 . S
C1920 H1910 0.930 . S
C1920 C1919 1.400 . S
C1920 C1923 1.386 . S
H1921 C1937 0.930 . S
H1922 C1938 0.931 . S
C1923 H1911 0.929 . S
C1923 C1917 1.390 . S
C1923 C1920 1.386 . S
C1924 C1919 1.490 . S
C1924 C1926 1.395 . S
C1924 C1927 1.403 . S
H1925 C1931 0.930 . S
C1926 H1912 0.930 . S
C1926 C1924 1.395 . S
C1926 C1929 1.403 . S
C1927 C1924 1.403 . S
C1927 C1928 1.524 . S
C1927 C1931 1.400 . S
C1928 H1913 0.960 . S
C1928 H1914 0.960 . S
C1928 H1915 0.960 . S
C1928 C1927 1.524 . S
C1929 C1926 1.403 . S
C1929 C1930 1.392 . S
C1929 C1933 1.495 . S
C1930 C1929 1.392 . S
C1930 C1931 1.385 . S
C1930 C1932 1.478 . S
C1931 H1925 0.930 . S
C1931 C1927 1.400 . S
C1931 C1930 1.385 . S
C1932 C1930 1.478 . S
C1932 C1934 1.381 . S
C1932 C1938 1.383 . S
C1933 C1929 1.495 . S
C1933 H1939 0.959 . S
C1933 H1940 0.961 . S
C1933 H1941 0.960 . S
C1934 C1932 1.381 . S
C1934 C1935 1.394 . S
C1934 H1942 0.930 . S
C1935 C1934 1.394 . S
C1935 C1936 1.383 . S
C1935 H1943 0.929 . S
C1936 C1935 1.383 . S
C1936 C1937 1.377 . S
C1937 H1921 0.930 . S
C1937 C1936 1.377 . S
C1937 C1938 1.379 . S
C1938 H1922 0.931 . S
C1938 C1932 1.383 . S
C1938 C1937 1.379 . S
H1939 C1933 0.959 . S
H1940 C1933 0.961 . S
H1941 C1933 0.960 . S
H1942 C1934 0.930 . S
H1943 C1935 0.929 . S
H1944 C1952 0.929 . S
H1945 C1954 0.930 . S
H1946 C1956 0.930 . S
H1947 C1959 0.929 . S
H1948 C1962 0.930 . S
H1949 C1964 0.960 . S
H1950 C1964 0.960 . S
H1951 C1964 0.960 . S
C1952 H1944 0.929 . S
C1952 C1953 1.377 . S
C1952 C1954 1.384 . S
C1953 C1952 1.377 . S
C1953 C1959 1.390 . S
C1954 H1945 0.930 . S
C1954 C1952 1.384 . S
C1954 C1955 1.372 . S
C1955 C1954 1.372 . S
C1955 C1956 1.400 . S
C1955 C1960 1.490 . S
C1956 H1946 0.930 . S
C1956 C1955 1.400 . S
C1956 C1959 1.386 . S
H1957 C1973 0.930 . S
H1958 C1974 0.931 . S
C1959 H1947 0.929 . S
C1959 C1953 1.390 . S
C1959 C1956 1.386 . S
C1960 C1955 1.490 . S
C1960 C1962 1.395 . S
C1960 C1963 1.403 . S
H1961 C1967 0.930 . S
C1962 H1948 0.930 . S
C1962 C1960 1.395 . S
C1962 C1965 1.403 . S
C1963 C1960 1.403 . S
C1963 C1964 1.524 . S
C1963 C1967 1.400 . S
C1964 H1949 0.960 . S
C1964 H1950 0.960 . S
C1964 H1951 0.960 . S
C1964 C1963 1.524 . S
C1965 C1962 1.403 . S
C1965 C1966 1.392 . S
C1965 C1969 1.495 . S
C1966 C1965 1.392 . S
C1966 C1967 1.385 . S
C1966 C1968 1.478 . S
C1967 H1961 0.930 . S
C1967 C1963 1.400 . S
C1967 C1966 1.385 . S
C1968 C1966 1.478 . S
C1968 C1970 1.381 . S
C1968 C1974 1.383 . S
C1969 C1965 1.495 . S
C1969 H1975 0.959 . S
C1969 H1976 0.961 . S
C1969 H1977 0.960 . S
C1970 C1968 1.381 . S
C1970 C1971 1.394 . S
C1970 H1978 0.930 . S
C1971 C1970 1.394 . S
C1971 C1972 1.383 . S
C1971 H1979 0.929 . S
C1972 C1971 1.383 . S
C1972 C1973 1.377 . S
C1973 H1957 0.930 . S
C1973 C1972 1.377 . S
C1973 C1974 1.379 . S
C1974 H1958 0.931 . S
C1974 C1968 1.383 . S
C1974 C1973 1.379 . S
H1975 C1969 0.959 . S
H1976 C1969 0.961 . S
H1977 C1969 0.960 . S
H1978 C1970 0.930 . S
H1979 C1971 0.929 . S
H1980 C1988 0.929 . S
H1981 C1990 0.930 . S
H1982 C1992 0.930 . S
H1983 C1995 0.929 . S
H1984 C1998 0.930 . S
H1985 C2000 0.960 . S
H1986 C2000 0.960 . S
H1987 C2000 0.960 . S
C1988 H1980 0.929 . S
C1988 C1989 1.377 . S
C1988 C1990 1.384 . S
C1989 C1988 1.377 . S
C1989 C1995 1.390 . S
C1990 H1981 0.930 . S
C1990 C1988 1.384 . S
C1990 C1991 1.372 . S
C1991 C1990 1.372 . S
C1991 C1992 1.400 . S
C1991 C1996 1.490 . S
C1992 H1982 0.930 . S
C1992 C1991 1.400 . S
C1992 C1995 1.386 . S
H1993 C2009 0.930 . S
H1994 C2010 0.931 . S
C1995 H1983 0.929 . S
C1995 C1989 1.390 . S
C1995 C1992 1.386 . S
C1996 C1991 1.490 . S
C1996 C1998 1.395 . S
C1996 C1999 1.403 . S
H1997 C2003 0.930 . S
C1998 H1984 0.930 . S
C1998 C1996 1.395 . S
C1998 C2001 1.403 . S
C1999 C1996 1.403 . S
C1999 C2000 1.524 . S
C1999 C2003 1.400 . S
C2000 H1985 0.960 . S
C2000 H1986 0.960 . S
C2000 H1987 0.960 . S
C2000 C1999 1.524 . S
C2001 C1998 1.403 . S
C2001 C2002 1.392 . S
C2001 C2005 1.495 . S
C2002 C2001 1.392 . S
C2002 C2003 1.385 . S
C2002 C2004 1.478 . S
C2003 H1997 0.930 . S
C2003 C1999 1.400 . S
C2003 C2002 1.385 . S
C2004 C2002 1.478 . S
C2004 C2006 1.381 . S
C2004 C2010 1.383 . S
C2005 C2001 1.495 . S
C2005 H2011 0.959 . S
C2005 H2012 0.961 . S
C2005 H2013 0.960 . S
C2006 C2004 1.381 . S
C2006 C2007 1.394 . S
C2006 H2014 0.930 . S
C2007 C2006 1.394 . S
C2007 C2008 1.383 . S
C2007 H2015 0.929 . S
C2008 C2007 1.383 . S
C2008 C2009 1.377 . S
C2009 H1993 0.930 . S
C2009 C2008 1.377 . S
C2009 C2010 1.379 . S
C2010 H1994 0.931 . S
C2010 C2004 1.383 . S
C2010 C2009 1.379 . S
H2011 C2005 0.959 . S
H2012 C2005 0.961 . S
H2013 C2005 0.960 . S
H2014 C2006 0.930 . S
H2015 C2007 0.929 . S
H2016 C2024 0.929 . S
H2017 C2026 0.930 . S
H2018 C2028 0.930 . S
H2019 C2031 0.929 . S
H2020 C2034 0.930 . S
H2021 C2036 0.960 . S
H2022 C2036 0.960 . S
H2023 C2036 0.960 . S
C2024 H2016 0.929 . S
C2024 C2025 1.377 . S
C2024 C2026 1.384 . S
C2025 C2024 1.377 . S
C2025 C2031 1.390 . S
C2026 H2017 0.930 . S
C2026 C2024 1.384 . S
C2026 C2027 1.372 . S
C2027 C2026 1.372 . S
C2027 C2028 1.400 . S
C2027 C2032 1.490 . S
C2028 H2018 0.930 . S
C2028 C2027 1.400 . S
C2028 C2031 1.386 . S
H2029 C2045 0.930 . S
H2030 C2046 0.931 . S
C2031 H2019 0.929 . S
C2031 C2025 1.390 . S
C2031 C2028 1.386 . S
C2032 C2027 1.490 . S
C2032 C2034 1.395 . S
C2032 C2035 1.403 . S
H2033 C2039 0.930 . S
C2034 H2020 0.930 . S
C2034 C2032 1.395 . S
C2034 C2037 1.403 . S
C2035 C2032 1.403 . S
C2035 C2036 1.524 . S
C2035 C2039 1.400 . S
C2036 H2021 0.960 . S
C2036 H2022 0.960 . S
C2036 H2023 0.960 . S
C2036 C2035 1.524 . S
C2037 C2034 1.403 . S
C2037 C2038 1.392 . S
C2037 C2041 1.495 . S
C2038 C2037 1.392 . S
C2038 C2039 1.385 . S
C2038 C2040 1.478 . S
C2039 H2033 0.930 . S
C2039 C2035 1.400 . S
C2039 C2038 1.385 . S
C2040 C2038 1.478 . S
C2040 C2042 1.381 . S
C2040 C2046 1.383 . S
C2041 C2037 1.495 . S
C2041 H2047 0.959 . S
C2041 H2048 0.961 . S
C2041 H2049 0.960 . S
C2042 C2040 1.381 . S
C2042 C2043 1.394 . S
C2042 H2050 0.930 . S
C2043 C2042 1.394 . S
C2043 C2044 1.383 . S
C2043 H2051 0.929 . S
C2044 C2043 1.383 . S
C2044 C2045 1.377 . S
C2045 H2029 0.930 . S
C2045 C2044 1.377 . S
C2045 C2046 1.379 . S
C2046 H2030 0.931 . S
C2046 C2040 1.383 . S
C2046 C2045 1.379 . S
H2047 C2041 0.959 . S
H2048 C2041 0.961 . S
H2049 C2041 0.960 . S
H2050 C2042 0.930 . S
H2051 C2043 0.929 . S
H2052 C2060 0.929 . S
H2053 C2062 0.930 . S
H2054 C2064 0.930 . S
H2055 C2067 0.929 . S
H2056 C2070 0.930 . S
H2057 C2072 0.960 . S
H2058 C2072 0.960 . S
H2059 C2072 0.960 . S
C2060 H2052 0.929 . S
C2060 C2061 1.377 . S
C2060 C2062 1.384 . S
C2061 C2060 1.377 . S
C2061 C2067 1.390 . S
C2062 H2053 0.930 . S
C2062 C2060 1.384 . S
C2062 C2063 1.372 . S
C2063 C2062 1.372 . S
C2063 C2064 1.400 . S
C2063 C2068 1.490 . S
C2064 H2054 0.930 . S
C2064 C2063 1.400 . S
C2064 C2067 1.386 . S
H2065 C2081 0.930 . S
H2066 C2082 0.931 . S
C2067 H2055 0.929 . S
C2067 C2061 1.390 . S
C2067 C2064 1.386 . S
C2068 C2063 1.490 . S
C2068 C2070 1.395 . S
C2068 C2071 1.403 . S
H2069 C2075 0.930 . S
C2070 H2056 0.930 . S
C2070 C2068 1.395 . S
C2070 C2073 1.403 . S
C2071 C2068 1.403 . S
C2071 C2072 1.524 . S
C2071 C2075 1.400 . S
C2072 H2057 0.960 . S
C2072 H2058 0.960 . S
C2072 H2059 0.960 . S
C2072 C2071 1.524 . S
C2073 C2070 1.403 . S
C2073 C2074 1.392 . S
C2073 C2077 1.495 . S
C2074 C2073 1.392 . S
C2074 C2075 1.385 . S
C2074 C2076 1.478 . S
C2075 H2069 0.930 . S
C2075 C2071 1.400 . S
C2075 C2074 1.385 . S
C2076 C2074 1.478 . S
C2076 C2078 1.381 . S
C2076 C2082 1.383 . S
C2077 C2073 1.495 . S
C2077 H2083 0.959 . S
C2077 H2084 0.961 . S
C2077 H2085 0.960 . S
C2078 C2076 1.381 . S
C2078 C2079 1.394 . S
C2078 H2086 0.930 . S
C2079 C2078 1.394 . S
C2079 C2080 1.383 . S
C2079 H2087 0.929 . S
C2080 C2079 1.383 . S
C2080 C2081 1.377 . S
C2081 H2065 0.930 . S
C2081 C2080 1.377 . S
C2081 C2082 1.379 . S
C2082 H2066 0.931 . S
C2082 C2076 1.383 . S
C2082 C2081 1.379 . S
H2083 C2077 0.959 . S
H2084 C2077 0.961 . S
H2085 C2077 0.960 . S
H2086 C2078 0.930 . S
H2087 C2079 0.929 . S
H2088 C2096 0.929 . S
H2089 C2098 0.930 . S
H2090 C2100 0.930 . S
H2091 C2103 0.929 . S
H2092 C2106 0.930 . S
H2093 C2108 0.960 . S
H2094 C2108 0.960 . S
H2095 C2108 0.960 . S
C2096 H2088 0.929 . S
C2096 C2097 1.377 . S
C2096 C2098 1.384 . S
C2097 C2096 1.377 . S
C2097 C2103 1.390 . S
C2098 H2089 0.930 . S
C2098 C2096 1.384 . S
C2098 C2099 1.372 . S
C2099 C2098 1.372 . S
C2099 C2100 1.400 . S
C2099 C2104 1.490 . S
C2100 H2090 0.930 . S
C2100 C2099 1.400 . S
C2100 C2103 1.386 . S
H2101 C2117 0.930 . S
H2102 C2118 0.931 . S
C2103 H2091 0.929 . S
C2103 C2097 1.390 . S
C2103 C2100 1.386 . S
C2104 C2099 1.490 . S
C2104 C2106 1.395 . S
C2104 C2107 1.403 . S
H2105 C2111 0.930 . S
C2106 H2092 0.930 . S
C2106 C2104 1.395 . S
C2106 C2109 1.403 . S
C2107 C2104 1.403 . S
C2107 C2108 1.524 . S
C2107 C2111 1.400 . S
C2108 H2093 0.960 . S
C2108 H2094 0.960 . S
C2108 H2095 0.960 . S
C2108 C2107 1.524 . S
C2109 C2106 1.403 . S
C2109 C2110 1.392 . S
C2109 C2113 1.495 . S
C2110 C2109 1.392 . S
C2110 C2111 1.385 . S
C2110 C2112 1.478 . S
C2111 H2105 0.930 . S
C2111 C2107 1.400 . S
C2111 C2110 1.385 . S
C2112 C2110 1.478 . S
C2112 C2114 1.381 . S
C2112 C2118 1.383 . S
C2113 C2109 1.495 . S
C2113 H2119 0.959 . S
C2113 H2120 0.961 . S
C2113 H2121 0.960 . S
C2114 C2112 1.381 . S
C2114 C2115 1.394 . S
C2114 H2122 0.930 . S
C2115 C2114 1.394 . S
C2115 C2116 1.383 . S
C2115 H2123 0.929 . S
C2116 C2115 1.383 . S
C2116 C2117 1.377 . S
C2117 H2101 0.930 . S
C2117 C2116 1.377 . S
C2117 C2118 1.379 . S
C2118 H2102 0.931 . S
C2118 C2112 1.383 . S
C2118 C2117 1.379 . S
H2119 C2113 0.959 . S
H2120 C2113 0.961 . S
H2121 C2113 0.960 . S
H2122 C2114 0.930 . S
H2123 C2115 0.929 . S
H2124 C2132 0.929 . S
H2125 C2134 0.930 . S
H2126 C2136 0.930 . S
H2127 C2139 0.929 . S
H2128 C2142 0.930 . S
H2129 C2144 0.960 . S
H2130 C2144 0.960 . S
H2131 C2144 0.960 . S
C2132 H2124 0.929 . S
C2132 C2133 1.377 . S
C2132 C2134 1.384 . S
C2133 C2132 1.377 . S
C2133 C2139 1.390 . S
C2134 H2125 0.930 . S
C2134 C2132 1.384 . S
C2134 C2135 1.372 . S
C2135 C2134 1.372 . S
C2135 C2136 1.400 . S
C2135 C2140 1.490 . S
C2136 H2126 0.930 . S
C2136 C2135 1.400 . S
C2136 C2139 1.386 . S
H2137 C2153 0.930 . S
H2138 C2154 0.931 . S
C2139 H2127 0.929 . S
C2139 C2133 1.390 . S
C2139 C2136 1.386 . S
C2140 C2135 1.490 . S
C2140 C2142 1.395 . S
C2140 C2143 1.403 . S
H2141 C2147 0.930 . S
C2142 H2128 0.930 . S
C2142 C2140 1.395 . S
C2142 C2145 1.403 . S
C2143 C2140 1.403 . S
C2143 C2144 1.524 . S
C2143 C2147 1.400 . S
C2144 H2129 0.960 . S
C2144 H2130 0.960 . S
C2144 H2131 0.960 . S
C2144 C2143 1.524 . S
C2145 C2142 1.403 . S
C2145 C2146 1.392 . S
C2145 C2149 1.495 . S
C2146 C2145 1.392 . S
C2146 C2147 1.385 . S
C2146 C2148 1.478 . S
C2147 H2141 0.930 . S
C2147 C2143 1.400 . S
C2147 C2146 1.385 . S
C2148 C2146 1.478 . S
C2148 C2150 1.381 . S
C2148 C2154 1.383 . S
C2149 C2145 1.495 . S
C2149 H2155 0.959 . S
C2149 H2156 0.961 . S
C2149 H2157 0.960 . S
C2150 C2148 1.381 . S
C2150 C2151 1.394 . S
C2150 H2158 0.930 . S
C2151 C2150 1.394 . S
C2151 C2152 1.383 . S
C2151 H2159 0.929 . S
C2152 C2151 1.383 . S
C2152 C2153 1.377 . S
C2153 H2137 0.930 . S
C2153 C2152 1.377 . S
C2153 C2154 1.379 . S
C2154 H2138 0.931 . S
C2154 C2148 1.383 . S
C2154 C2153 1.379 . S
H2155 C2149 0.959 . S
H2156 C2149 0.961 . S
H2157 C2149 0.960 . S
H2158 C2150 0.930 . S
H2159 C2151 0.929 . S
H2160 C2168 0.929 . S
H2161 C2170 0.930 . S
H2162 C2172 0.930 . S
H2163 C2175 0.929 . S
H2164 C2178 0.930 . S
H2165 C2180 0.960 . S
H2166 C2180 0.960 . S
H2167 C2180 0.960 . S
C2168 H2160 0.929 . S
C2168 C2169 1.377 . S
C2168 C2170 1.384 . S
C2169 C2168 1.377 . S
C2169 C2175 1.390 . S
C2170 H2161 0.930 . S
C2170 C2168 1.384 . S
C2170 C2171 1.372 . S
C2171 C2170 1.372 . S
C2171 C2172 1.400 . S
C2171 C2176 1.490 . S
C2172 H2162 0.930 . S
C2172 C2171 1.400 . S
C2172 C2175 1.386 . S
H2173 C2189 0.930 . S
H2174 C2190 0.931 . S
C2175 H2163 0.929 . S
C2175 C2169 1.390 . S
C2175 C2172 1.386 . S
C2176 C2171 1.490 . S
C2176 C2178 1.395 . S
C2176 C2179 1.403 . S
H2177 C2183 0.930 . S
C2178 H2164 0.930 . S
C2178 C2176 1.395 . S
C2178 C2181 1.403 . S
C2179 C2176 1.403 . S
C2179 C2180 1.524 . S
C2179 C2183 1.400 . S
C2180 H2165 0.960 . S
C2180 H2166 0.960 . S
C2180 H2167 0.960 . S
C2180 C2179 1.524 . S
C2181 C2178 1.403 . S
C2181 C2182 1.392 . S
C2181 C2185 1.495 . S
C2182 C2181 1.392 . S
C2182 C2183 1.385 . S
C2182 C2184 1.478 . S
C2183 H2177 0.930 . S
C2183 C2179 1.400 . S
C2183 C2182 1.385 . S
C2184 C2182 1.478 . S
C2184 C2186 1.381 . S
C2184 C2190 1.383 . S
C2185 C2181 1.495 . S
C2185 H2191 0.959 . S
C2185 H2192 0.961 . S
C2185 H2193 0.960 . S
C2186 C2184 1.381 . S
C2186 C2187 1.394 . S
C2186 H2194 0.930 . S
C2187 C2186 1.394 . S
C2187 C2188 1.383 . S
C2187 H2195 0.929 . S
C2188 C2187 1.383 . S
C2188 C2189 1.377 . S
C2189 H2173 0.930 . S
C2189 C2188 1.377 . S
C2189 C2190 1.379 . S
C2190 H2174 0.931 . S
C2190 C2184 1.383 . S
C2190 C2189 1.379 . S
H2191 C2185 0.959 . S
H2192 C2185 0.961 . S
H2193 C2185 0.960 . S
H2194 C2186 0.930 . S
H2195 C2187 0.929 . S
H2196 C2204 0.929 . S
H2197 C2206 0.930 . S
H2198 C2208 0.930 . S
H2199 C2211 0.929 . S
H2200 C2214 0.930 . S
H2201 C2216 0.960 . S
H2202 C2216 0.960 . S
H2203 C2216 0.960 . S
C2204 H2196 0.929 . S
C2204 C2205 1.377 . S
C2204 C2206 1.384 . S
C2205 C2204 1.377 . S
C2205 C2211 1.390 . S
C2206 H2197 0.930 . S
C2206 C2204 1.384 . S
C2206 C2207 1.372 . S
C2207 C2206 1.372 . S
C2207 C2208 1.400 . S
C2207 C2212 1.490 . S
C2208 H2198 0.930 . S
C2208 C2207 1.400 . S
C2208 C2211 1.386 . S
H2209 C2225 0.930 . S
H2210 C2226 0.931 . S
C2211 H2199 0.929 . S
C2211 C2205 1.390 . S
C2211 C2208 1.386 . S
C2212 C2207 1.490 . S
C2212 C2214 1.395 . S
C2212 C2215 1.403 . S
H2213 C2219 0.930 . S
C2214 H2200 0.930 . S
C2214 C2212 1.395 . S
C2214 C2217 1.403 . S
C2215 C2212 1.403 . S
C2215 C2216 1.524 . S
C2215 C2219 1.400 . S
C2216 H2201 0.960 . S
C2216 H2202 0.960 . S
C2216 H2203 0.960 . S
C2216 C2215 1.524 . S
C2217 C2214 1.403 . S
C2217 C2218 1.392 . S
C2217 C2221 1.495 . S
C2218 C2217 1.392 . S
C2218 C2219 1.385 . S
C2218 C2220 1.478 . S
C2219 H2213 0.930 . S
C2219 C2215 1.400 . S
C2219 C2218 1.385 . S
C2220 C2218 1.478 . S
C2220 C2222 1.381 . S
C2220 C2226 1.383 . S
C2221 C2217 1.495 . S
C2221 H2227 0.959 . S
C2221 H2228 0.961 . S
C2221 H2229 0.960 . S
C2222 C2220 1.381 . S
C2222 C2223 1.394 . S
C2222 H2230 0.930 . S
C2223 C2222 1.394 . S
C2223 C2224 1.383 . S
C2223 H2231 0.929 . S
C2224 C2223 1.383 . S
C2224 C2225 1.377 . S
C2225 H2209 0.930 . S
C2225 C2224 1.377 . S
C2225 C2226 1.379 . S
C2226 H2210 0.931 . S
C2226 C2220 1.383 . S
C2226 C2225 1.379 . S
H2227 C2221 0.959 . S
H2228 C2221 0.961 . S
H2229 C2221 0.960 . S
H2230 C2222 0.930 . S
H2231 C2223 0.929 . S
H2232 C2240 0.929 . S
H2233 C2242 0.930 . S
H2234 C2244 0.930 . S
H2235 C2247 0.929 . S
H2236 C2250 0.930 . S
H2237 C2252 0.960 . S
H2238 C2252 0.960 . S
H2239 C2252 0.960 . S
C2240 H2232 0.929 . S
C2240 C2241 1.377 . S
C2240 C2242 1.384 . S
C2241 C2240 1.377 . S
C2241 C2247 1.390 . S
C2242 H2233 0.930 . S
C2242 C2240 1.384 . S
C2242 C2243 1.372 . S
C2243 C2242 1.372 . S
C2243 C2244 1.400 . S
C2243 C2248 1.490 . S
C2244 H2234 0.930 . S
C2244 C2243 1.400 . S
C2244 C2247 1.386 . S
H2245 C2261 0.930 . S
H2246 C2262 0.931 . S
C2247 H2235 0.929 . S
C2247 C2241 1.390 . S
C2247 C2244 1.386 . S
C2248 C2243 1.490 . S
C2248 C2250 1.395 . S
C2248 C2251 1.403 . S
H2249 C2255 0.930 . S
C2250 H2236 0.930 . S
C2250 C2248 1.395 . S
C2250 C2253 1.403 . S
C2251 C2248 1.403 . S
C2251 C2252 1.524 . S
C2251 C2255 1.400 . S
C2252 H2237 0.960 . S
C2252 H2238 0.960 . S
C2252 H2239 0.960 . S
C2252 C2251 1.524 . S
C2253 C2250 1.403 . S
C2253 C2254 1.392 . S
C2253 C2257 1.495 . S
C2254 C2253 1.392 . S
C2254 C2255 1.385 . S
C2254 C2256 1.478 . S
C2255 H2249 0.930 . S
C2255 C2251 1.400 . S
C2255 C2254 1.385 . S
C2256 C2254 1.478 . S
C2256 C2258 1.381 . S
C2256 C2262 1.383 . S
C2257 C2253 1.495 . S
C2257 H2263 0.959 . S
C2257 H2264 0.961 . S
C2257 H2265 0.960 . S
C2258 C2256 1.381 . S
C2258 C2259 1.394 . S
C2258 H2266 0.930 . S
C2259 C2258 1.394 . S
C2259 C2260 1.383 . S
C2259 H2267 0.929 . S
C2260 C2259 1.383 . S
C2260 C2261 1.377 . S
C2261 H2245 0.930 . S
C2261 C2260 1.377 . S
C2261 C2262 1.379 . S
C2262 H2246 0.931 . S
C2262 C2256 1.383 . S
C2262 C2261 1.379 . S
H2263 C2257 0.959 . S
H2264 C2257 0.961 . S
H2265 C2257 0.960 . S
H2266 C2258 0.930 . S
H2267 C2259 0.929 . S
H2268 C2276 0.929 . S
H2269 C2278 0.930 . S
H2270 C2280 0.930 . S
H2271 C2283 0.929 . S
H2272 C2286 0.930 . S
H2273 C2288 0.960 . S
H2274 C2288 0.960 . S
H2275 C2288 0.960 . S
C2276 H2268 0.929 . S
C2276 C2277 1.377 . S
C2276 C2278 1.384 . S
C2277 C2276 1.377 . S
C2277 C2283 1.390 . S
C2278 H2269 0.930 . S
C2278 C2276 1.384 . S
C2278 C2279 1.372 . S
C2279 C2278 1.372 . S
C2279 C2280 1.400 . S
C2279 C2284 1.490 . S
C2280 H2270 0.930 . S
C2280 C2279 1.400 . S
C2280 C2283 1.386 . S
H2281 C2297 0.930 . S
H2282 C2298 0.931 . S
C2283 H2271 0.929 . S
C2283 C2277 1.390 . S
C2283 C2280 1.386 . S
C2284 C2279 1.490 . S
C2284 C2286 1.395 . S
C2284 C2287 1.403 . S
H2285 C2291 0.930 . S
C2286 H2272 0.930 . S
C2286 C2284 1.395 . S
C2286 C2289 1.403 . S
C2287 C2284 1.403 . S
C2287 C2288 1.524 . S
C2287 C2291 1.400 . S
C2288 H2273 0.960 . S
C2288 H2274 0.960 . S
C2288 H2275 0.960 . S
C2288 C2287 1.524 . S
C2289 C2286 1.403 . S
C2289 C2290 1.392 . S
C2289 C2293 1.495 . S
C2290 C2289 1.392 . S
C2290 C2291 1.385 . S
C2290 C2292 1.478 . S
C2291 H2285 0.930 . S
C2291 C2287 1.400 . S
C2291 C2290 1.385 . S
C2292 C2290 1.478 . S
C2292 C2294 1.381 . S
C2292 C2298 1.383 . S
C2293 C2289 1.495 . S
C2293 H2299 0.959 . S
C2293 H2300 0.961 . S
C2293 H2301 0.960 . S
C2294 C2292 1.381 . S
C2294 C2295 1.394 . S
C2294 H2302 0.930 . S
C2295 C2294 1.394 . S
C2295 C2296 1.383 . S
C2295 H2303 0.929 . S
C2296 C2295 1.383 . S
C2296 C2297 1.377 . S
C2297 H2281 0.930 . S
C2297 C2296 1.377 . S
C2297 C2298 1.379 . S
C2298 H2282 0.931 . S
C2298 C2292 1.383 . S
C2298 C2297 1.379 . S
H2299 C2293 0.959 . S
H2300 C2293 0.961 . S
H2301 C2293 0.960 . S
H2302 C2294 0.930 . S
H2303 C2295 0.929 . S
H2304 C2312 0.929 . S
H2305 C2314 0.930 . S
H2306 C2316 0.930 . S
H2307 C2319 0.929 . S
H2308 C2322 0.930 . S
H2309 C2324 0.960 . S
H2310 C2324 0.960 . S
H2311 C2324 0.960 . S
C2312 H2304 0.929 . S
C2312 C2313 1.377 . S
C2312 C2314 1.384 . S
C2313 C2312 1.377 . S
C2313 C2319 1.390 . S
C2314 H2305 0.930 . S
C2314 C2312 1.384 . S
C2314 C2315 1.372 . S
C2315 C2314 1.372 . S
C2315 C2316 1.400 . S
C2315 C2320 1.490 . S
C2316 H2306 0.930 . S
C2316 C2315 1.400 . S
C2316 C2319 1.386 . S
H2317 C2333 0.930 . S
H2318 C2334 0.931 . S
C2319 H2307 0.929 . S
C2319 C2313 1.390 . S
C2319 C2316 1.386 . S
C2320 C2315 1.490 . S
C2320 C2322 1.395 . S
C2320 C2323 1.403 . S
H2321 C2327 0.930 . S
C2322 H2308 0.930 . S
C2322 C2320 1.395 . S
C2322 C2325 1.403 . S
C2323 C2320 1.403 . S
C2323 C2324 1.524 . S
C2323 C2327 1.400 . S
C2324 H2309 0.960 . S
C2324 H2310 0.960 . S
C2324 H2311 0.960 . S
C2324 C2323 1.524 . S
C2325 C2322 1.403 . S
C2325 C2326 1.392 . S
C2325 C2329 1.495 . S
C2326 C2325 1.392 . S
C2326 C2327 1.385 . S
C2326 C2328 1.478 . S
C2327 H2321 0.930 . S
C2327 C2323 1.400 . S
C2327 C2326 1.385 . S
C2328 C2326 1.478 . S
C2328 C2330 1.381 . S
C2328 C2334 1.383 . S
C2329 C2325 1.495 . S
C2329 H2335 0.959 . S
C2329 H2336 0.961 . S
C2329 H2337 0.960 . S
C2330 C2328 1.381 . S
C2330 C2331 1.394 . S
C2330 H2338 0.930 . S
C2331 C2330 1.394 . S
C2331 C2332 1.383 . S
C2331 H2339 0.929 . S
C2332 C2331 1.383 . S
C2332 C2333 1.377 . S
C2333 H2317 0.930 . S
C2333 C2332 1.377 . S
C2333 C2334 1.379 . S
C2334 H2318 0.931 . S
C2334 C2328 1.383 . S
C2334 C2333 1.379 . S
H2335 C2329 0.959 . S
H2336 C2329 0.961 . S
H2337 C2329 0.960 . S
H2338 C2330 0.930 . S
H2339 C2331 0.929 . S
H2340 C2348 0.929 . S
H2341 C2350 0.930 . S
H2342 C2352 0.930 . S
H2343 C2355 0.929 . S
H2344 C2358 0.930 . S
H2345 C2360 0.960 . S
H2346 C2360 0.960 . S
H2347 C2360 0.960 . S
C2348 H2340 0.929 . S
C2348 C2349 1.377 . S
C2348 C2350 1.384 . S
C2349 C2348 1.377 . S
C2349 C2355 1.390 . S
C2350 H2341 0.930 . S
C2350 C2348 1.384 . S
C2350 C2351 1.372 . S
C2351 C2350 1.372 . S
C2351 C2352 1.400 . S
C2351 C2356 1.490 . S
C2352 H2342 0.930 . S
C2352 C2351 1.400 . S
C2352 C2355 1.386 . S
H2353 C2369 0.930 . S
H2354 C2370 0.931 . S
C2355 H2343 0.929 . S
C2355 C2349 1.390 . S
C2355 C2352 1.386 . S
C2356 C2351 1.490 . S
C2356 C2358 1.395 . S
C2356 C2359 1.403 . S
H2357 C2363 0.930 . S
C2358 H2344 0.930 . S
C2358 C2356 1.395 . S
C2358 C2361 1.403 . S
C2359 C2356 1.403 . S
C2359 C2360 1.524 . S
C2359 C2363 1.400 . S
C2360 H2345 0.960 . S
C2360 H2346 0.960 . S
C2360 H2347 0.960 . S
C2360 C2359 1.524 . S
C2361 C2358 1.403 . S
C2361 C2362 1.392 . S
C2361 C2365 1.495 . S
C2362 C2361 1.392 . S
C2362 C2363 1.385 . S
C2362 C2364 1.478 . S
C2363 H2357 0.930 . S
C2363 C2359 1.400 . S
C2363 C2362 1.385 . S
C2364 C2362 1.478 . S
C2364 C2366 1.381 . S
C2364 C2370 1.383 . S
C2365 C2361 1.495 . S
C2365 H2371 0.959 . S
C2365 H2372 0.961 . S
C2365 H2373 0.960 . S
C2366 C2364 1.381 . S
C2366 C2367 1.394 . S
C2366 H2374 0.930 . S
C2367 C2366 1.394 . S
C2367 C2368 1.383 . S
C2367 H2375 0.929 . S
C2368 C2367 1.383 . S
C2368 C2369 1.377 . S
C2369 H2353 0.930 . S
C2369 C2368 1.377 . S
C2369 C2370 1.379 . S
C2370 H2354 0.931 . S
C2370 C2364 1.383 . S
C2370 C2369 1.379 . S
H2371 C2365 0.959 . S
H2372 C2365 0.961 . S
H2373 C2365 0.960 . S
H2374 C2366 0.930 . S
H2375 C2367 0.929 . S
H2376 C2384 0.929 . S
H2377 C2386 0.930 . S
H2378 C2388 0.930 . S
H2379 C2391 0.929 . S
H2380 C2394 0.930 . S
H2381 C2396 0.960 . S
H2382 C2396 0.960 . S
H2383 C2396 0.960 . S
C2384 H2376 0.929 . S
C2384 C2385 1.377 . S
C2384 C2386 1.384 . S
C2385 C2384 1.377 . S
C2385 C2391 1.390 . S
C2386 H2377 0.930 . S
C2386 C2384 1.384 . S
C2386 C2387 1.372 . S
C2387 C2386 1.372 . S
C2387 C2388 1.400 . S
C2387 C2392 1.490 . S
C2388 H2378 0.930 . S
C2388 C2387 1.400 . S
C2388 C2391 1.386 . S
H2389 C2405 0.930 . S
H2390 C2406 0.931 . S
C2391 H2379 0.929 . S
C2391 C2385 1.390 . S
C2391 C2388 1.386 . S
C2392 C2387 1.490 . S
C2392 C2394 1.395 . S
C2392 C2395 1.403 . S
H2393 C2399 0.930 . S
C2394 H2380 0.930 . S
C2394 C2392 1.395 . S
C2394 C2397 1.403 . S
C2395 C2392 1.403 . S
C2395 C2396 1.524 . S
C2395 C2399 1.400 . S
C2396 H2381 0.960 . S
C2396 H2382 0.960 . S
C2396 H2383 0.960 . S
C2396 C2395 1.524 . S
C2397 C2394 1.403 . S
C2397 C2398 1.392 . S
C2397 C2401 1.495 . S
C2398 C2397 1.392 . S
C2398 C2399 1.385 . S
C2398 C2400 1.478 . S
C2399 H2393 0.930 . S
C2399 C2395 1.400 . S
C2399 C2398 1.385 . S
C2400 C2398 1.478 . S
C2400 C2402 1.381 . S
C2400 C2406 1.383 . S
C2401 C2397 1.495 . S
C2401 H2407 0.959 . S
C2401 H2408 0.961 . S
C2401 H2409 0.960 . S
C2402 C2400 1.381 . S
C2402 C2403 1.394 . S
C2402 H2410 0.930 . S
C2403 C2402 1.394 . S
C2403 C2404 1.383 . S
C2403 H2411 0.929 . S
C2404 C2403 1.383 . S
C2404 C2405 1.377 . S
C2405 H2389 0.930 . S
C2405 C2404 1.377 . S
C2405 C2406 1.379 . S
C2406 H2390 0.931 . S
C2406 C2400 1.383 . S
C2406 C2405 1.379 . S
H2407 C2401 0.959 . S
H2408 C2401 0.961 . S
H2409 C2401 0.960 . S
H2410 C2402 0.930 . S
H2411 C2403 0.929 . S
H2412 C2420 0.929 . S
H2413 C2422 0.930 . S
H2414 C2424 0.930 . S
H2415 C2427 0.929 . S
H2416 C2430 0.930 . S
H2417 C2432 0.960 . S
H2418 C2432 0.960 . S
H2419 C2432 0.960 . S
C2420 H2412 0.929 . S
C2420 C2421 1.377 . S
C2420 C2422 1.384 . S
C2421 C2420 1.377 . S
C2421 C2427 1.390 . S
C2422 H2413 0.930 . S
C2422 C2420 1.384 . S
C2422 C2423 1.372 . S
C2423 C2422 1.372 . S
C2423 C2424 1.400 . S
C2423 C2428 1.490 . S
C2424 H2414 0.930 . S
C2424 C2423 1.400 . S
C2424 C2427 1.386 . S
H2425 C2441 0.930 . S
H2426 C2442 0.931 . S
C2427 H2415 0.929 . S
C2427 C2421 1.390 . S
C2427 C2424 1.386 . S
C2428 C2423 1.490 . S
C2428 C2430 1.395 . S
C2428 C2431 1.403 . S
H2429 C2435 0.930 . S
C2430 H2416 0.930 . S
C2430 C2428 1.395 . S
C2430 C2433 1.403 . S
C2431 C2428 1.403 . S
C2431 C2432 1.524 . S
C2431 C2435 1.400 . S
C2432 H2417 0.960 . S
C2432 H2418 0.960 . S
C2432 H2419 0.960 . S
C2432 C2431 1.524 . S
C2433 C2430 1.403 . S
C2433 C2434 1.392 . S
C2433 C2437 1.495 . S
C2434 C2433 1.392 . S
C2434 C2435 1.385 . S
C2434 C2436 1.478 . S
C2435 H2429 0.930 . S
C2435 C2431 1.400 . S
C2435 C2434 1.385 . S
C2436 C2434 1.478 . S
C2436 C2438 1.381 . S
C2436 C2442 1.383 . S
C2437 C2433 1.495 . S
C2437 H2443 0.959 . S
C2437 H2444 0.961 . S
C2437 H2445 0.960 . S
C2438 C2436 1.381 . S
C2438 C2439 1.394 . S
C2438 H2446 0.930 . S
C2439 C2438 1.394 . S
C2439 C2440 1.383 . S
C2439 H2447 0.929 . S
C2440 C2439 1.383 . S
C2440 C2441 1.377 . S
C2441 H2425 0.930 . S
C2441 C2440 1.377 . S
C2441 C2442 1.379 . S
C2442 H2426 0.931 . S
C2442 C2436 1.383 . S
C2442 C2441 1.379 . S
H2443 C2437 0.959 . S
H2444 C2437 0.961 . S
H2445 C2437 0.960 . S
H2446 C2438 0.930 . S
H2447 C2439 0.929 . S
H2448 C2456 0.929 . S
H2449 C2458 0.930 . S
H2450 C2460 0.930 . S
H2451 C2463 0.929 . S
H2452 C2466 0.930 . S
H2453 C2468 0.960 . S
H2454 C2468 0.960 . S
H2455 C2468 0.960 . S
C2456 H2448 0.929 . S
C2456 C2457 1.377 . S
C2456 C2458 1.384 . S
C2457 C2456 1.377 . S
C2457 C2463 1.390 . S
C2458 H2449 0.930 . S
C2458 C2456 1.384 . S
C2458 C2459 1.372 . S
C2459 C2458 1.372 . S
C2459 C2460 1.400 . S
C2459 C2464 1.490 . S
C2460 H2450 0.930 . S
C2460 C2459 1.400 . S
C2460 C2463 1.386 . S
H2461 C2477 0.930 . S
H2462 C2478 0.931 . S
C2463 H2451 0.929 . S
C2463 C2457 1.390 . S
C2463 C2460 1.386 . S
C2464 C2459 1.490 . S
C2464 C2466 1.395 . S
C2464 C2467 1.403 . S
H2465 C2471 0.930 . S
C2466 H2452 0.930 . S
C2466 C2464 1.395 . S
C2466 C2469 1.403 . S
C2467 C2464 1.403 . S
C2467 C2468 1.524 . S
C2467 C2471 1.400 . S
C2468 H2453 0.960 . S
C2468 H2454 0.960 . S
C2468 H2455 0.960 . S
C2468 C2467 1.524 . S
C2469 C2466 1.403 . S
C2469 C2470 1.392 . S
C2469 C2473 1.495 . S
C2470 C2469 1.392 . S
C2470 C2471 1.385 . S
C2470 C2472 1.478 . S
C2471 H2465 0.930 . S
C2471 C2467 1.400 . S
C2471 C2470 1.385 . S
C2472 C2470 1.478 . S
C2472 C2474 1.381 . S
C2472 C2478 1.383 . S
C2473 C2469 1.495 . S
C2473 H2479 0.959 . S
C2473 H2480 0.961 . S
C2473 H2481 0.960 . S
C2474 C2472 1.381 . S
C2474 C2475 1.394 . S
C2474 H2482 0.930 . S
C2475 C2474 1.394 . S
C2475 C2476 1.383 . S
C2475 H2483 0.929 . S
C2476 C2475 1.383 . S
C2476 C2477 1.377 . S
C2477 H2461 0.930 . S
C2477 C2476 1.377 . S
C2477 C2478 1.379 . S
C2478 H2462 0.931 . S
C2478 C2472 1.383 . S
C2478 C2477 1.379 . S
H2479 C2473 0.959 . S
H2480 C2473 0.961 . S
H2481 C2473 0.960 . S
H2482 C2474 0.930 . S
H2483 C2475 0.929 . S
H2484 C2492 0.929 . S
H2485 C2494 0.930 . S
H2486 C2496 0.926 . S
H2487 C2499 0.929 . S
H2488 C2502 0.930 . S
H2489 C2504 0.960 . S
H2490 C2504 0.960 . S
H2491 C2504 0.960 . S
C2492 H2484 0.929 . S
C2492 C2493 1.377 . S
C2492 C2494 1.384 . S
C2493 C2492 1.377 . S
C2493 C2499 1.390 . S
C2494 H2485 0.930 . S
C2494 C2492 1.384 . S
C2494 C2495 1.372 . S
C2495 C2494 1.372 . S
C2495 C2496 1.400 . S
C2495 C2500 1.490 . S
C2496 H2486 0.926 . S
C2496 C2495 1.400 . S
C2496 C2499 1.386 . S
H2497 C2513 0.930 . S
H2498 C2514 0.975 . S
C2499 H2487 0.929 . S
C2499 C2493 1.390 . S
C2499 C2496 1.386 . S
C2500 C2495 1.490 . S
C2500 C2502 1.395 . S
C2500 C2503 1.403 1_545 S
H2501 C2507 0.930 . S
C2502 H2488 0.930 . S
C2502 C2500 1.395 . S
C2502 C2505 1.403 . S
C2503 C2500 1.403 1_565 S
C2503 C2504 1.524 . S
C2503 C2507 1.400 . S
C2504 H2489 0.960 . S
C2504 H2490 0.960 . S
C2504 H2491 0.960 . S
C2504 C2503 1.524 . S
C2505 C2502 1.403 . S
C2505 C2506 1.392 . S
C2505 C2509 1.495 . S
C2506 C2505 1.392 . S
C2506 C2507 1.385 1_545 S
C2506 C2508 1.478 . S
C2507 H2501 0.930 . S
C2507 C2503 1.400 . S
C2507 C2506 1.385 1_565 S
C2508 C2506 1.478 . S
C2508 C2510 1.352 1_545 S
C2508 C2514 1.350 . S
C2509 C2505 1.495 . S
C2509 H2515 0.959 . S
C2509 H2516 0.961 . S
C2509 H2517 0.960 . S
C2510 C2508 1.352 1_565 S
C2510 C2511 1.401 . S
C2510 H2518 0.937 . S
C2511 C2510 1.401 . S
C2511 C2512 1.383 . S
C2511 H2519 0.929 . S
C2512 C2511 1.383 . S
C2512 C2513 1.377 . S
C2513 H2497 0.930 . S
C2513 C2512 1.377 . S
C2513 C2514 1.375 1_565 S
C2514 H2498 0.975 . S
C2514 C2508 1.350 . S
C2514 C2513 1.375 1_545 S
H2515 C2509 0.959 . S
H2516 C2509 0.961 . S
H2517 C2509 0.960 . S
H2518 C2510 0.937 . S
H2519 C2511 0.929 . S
H2520 C2528 0.929 . S
H2521 C2530 0.930 . S
H2522 C2532 0.930 . S
H2523 C2535 0.929 . S
H2524 C2538 0.930 . S
H2525 C2540 0.960 . S
H2526 C2540 0.960 . S
H2527 C2540 0.960 . S
C2528 H2520 0.929 . S
C2528 C2529 1.377 1_655 S
C2528 C2530 1.384 . S
C2529 C2528 1.377 1_455 S
C2529 C2535 1.390 . S
C2530 H2521 0.930 . S
C2530 C2528 1.384 . S
C2530 C2531 1.372 1_655 S
C2531 C2530 1.372 1_455 S
C2531 C2532 1.400 . S
C2531 C2536 1.488 1_455 S
C2532 H2522 0.930 . S
C2532 C2531 1.400 . S
C2532 C2535 1.386 . S
H2533 C2549 0.930 . S
H2534 C2550 0.931 . S
C2535 H2523 0.929 . S
C2535 C2529 1.390 . S
C2535 C2532 1.386 . S
C2536 C2531 1.488 1_655 S
C2536 C2538 1.412 . S
C2536 C2539 1.387 1_655 S
H2537 C2543 0.930 . S
C2538 H2524 0.930 . S
C2538 C2536 1.412 . S
C2538 C2541 1.403 . S
C2539 C2536 1.387 1_455 S
C2539 C2540 1.524 . S
C2539 C2543 1.400 . S
C2540 H2525 0.960 . S
C2540 H2526 0.960 . S
C2540 H2527 0.960 . S
C2540 C2539 1.524 . S
C2541 C2538 1.403 . S
C2541 C2542 1.392 . S
C2541 C2545 1.495 . S
C2542 C2541 1.392 . S
C2542 C2543 1.385 1_655 S
C2542 C2544 1.478 . S
C2543 H2537 0.930 . S
C2543 C2539 1.400 . S
C2543 C2542 1.385 1_455 S
C2544 C2542 1.478 . S
C2544 C2546 1.381 . S
C2544 C2550 1.383 1_655 S
C2545 C2541 1.495 . S
C2545 H2551 0.959 . S
C2545 H2552 0.961 . S
C2545 H2553 0.960 . S
C2546 C2544 1.381 . S
C2546 C2547 1.394 . S
C2546 H2554 0.930 . S
C2547 C2546 1.394 . S
C2547 C2548 1.383 . S
C2547 H2555 0.929 . S
C2548 C2547 1.383 . S
C2548 C2549 1.377 1_655 S
C2549 H2533 0.930 . S
C2549 C2548 1.377 1_455 S
C2549 C2550 1.379 . S
C2550 H2534 0.931 . S
C2550 C2544 1.383 1_455 S
C2550 C2549 1.379 . S
H2551 C2545 0.959 . S
H2552 C2545 0.961 . S
H2553 C2545 0.960 . S
H2554 C2546 0.930 . S
H2555 C2547 0.929 . S
H2556 C2564 0.929 . S
H2557 C2566 0.930 . S
H2558 C2568 0.930 . S
H2559 C2571 0.929 . S
H2560 C2574 0.930 . S
H2561 C2576 0.960 . S
H2562 C2576 0.960 . S
H2563 C2576 0.960 . S
C2564 H2556 0.929 . S
C2564 C2565 1.377 . S
C2564 C2566 1.384 . S
C2565 C2564 1.377 . S
C2565 C2571 1.390 . S
C2566 H2557 0.930 . S
C2566 C2564 1.384 . S
C2566 C2567 1.372 . S
C2567 C2566 1.372 . S
C2567 C2568 1.400 . S
C2567 C2572 1.490 . S
C2568 H2558 0.930 . S
C2568 C2567 1.400 . S
C2568 C2571 1.386 . S
H2569 C2585 0.930 . S
H2570 C2586 0.931 . S
C2571 H2559 0.929 . S
C2571 C2565 1.390 . S
C2571 C2568 1.386 . S
C2572 C2567 1.490 . S
C2572 C2574 1.395 . S
C2572 C2575 1.403 . S
H2573 C2579 0.930 . S
C2574 H2560 0.930 . S
C2574 C2572 1.395 . S
C2574 C2577 1.403 . S
C2575 C2572 1.403 . S
C2575 C2576 1.524 . S
C2575 C2579 1.400 . S
C2576 H2561 0.960 . S
C2576 H2562 0.960 . S
C2576 H2563 0.960 . S
C2576 C2575 1.524 . S
C2577 C2574 1.403 . S
C2577 C2578 1.392 . S
C2577 C2581 1.495 . S
C2578 C2577 1.392 . S
C2578 C2579 1.385 . S
C2578 C2580 1.478 . S
C2579 H2573 0.930 . S
C2579 C2575 1.400 . S
C2579 C2578 1.385 . S
C2580 C2578 1.478 . S
C2580 C2582 1.381 . S
C2580 C2586 1.383 . S
C2581 C2577 1.495 . S
C2581 H2587 0.959 . S
C2581 H2588 0.961 . S
C2581 H2589 0.960 . S
C2582 C2580 1.381 . S
C2582 C2583 1.394 . S
C2582 H2590 0.930 . S
C2583 C2582 1.394 . S
C2583 C2584 1.383 . S
C2583 H2591 0.929 . S
C2584 C2583 1.383 . S
C2584 C2585 1.377 . S
C2585 H2569 0.930 . S
C2585 C2584 1.377 . S
C2585 C2586 1.379 . S
C2586 H2570 0.931 . S
C2586 C2580 1.383 . S
C2586 C2585 1.379 . S
H2587 C2581 0.959 . S
H2588 C2581 0.961 . S
H2589 C2581 0.960 . S
H2590 C2582 0.930 . S
H2591 C2583 0.929 . S
H2592 C2600 0.929 . S
H2593 C2602 0.930 . S
H2594 C2604 0.930 . S
H2595 C2607 0.929 . S
H2596 C2610 0.930 . S
H2597 C2612 0.960 . S
H2598 C2612 0.960 . S
H2599 C2612 0.960 . S
C2600 H2592 0.929 . S
C2600 C2601 1.377 1_565 S
C2600 C2602 1.384 . S
C2601 C2600 1.377 1_545 S
C2601 C2607 1.390 . S
C2602 H2593 0.930 . S
C2602 C2600 1.384 . S
C2602 C2603 1.372 1_565 S
C2603 C2602 1.372 1_545 S
C2603 C2604 1.400 . S
C2603 C2608 1.490 . S
C2604 H2594 0.930 . S
C2604 C2603 1.400 . S
C2604 C2607 1.386 . S
H2605 C2621 0.927 . S
H2606 C2622 0.928 . S
C2607 H2595 0.929 . S
C2607 C2601 1.390 . S
C2607 C2604 1.386 . S
C2608 C2603 1.490 . S
C2608 C2610 1.398 1_545 S
C2608 C2611 1.400 . S
H2609 C2615 0.930 . S
C2610 H2596 0.930 . S
C2610 C2608 1.398 1_565 S
C2610 C2613 1.403 . S
C2611 C2608 1.400 . S
C2611 C2612 1.524 . S
C2611 C2615 1.400 . S
C2612 H2597 0.960 . S
C2612 H2598 0.960 . S
C2612 H2599 0.960 . S
C2612 C2611 1.524 . S
C2613 C2610 1.403 . S
C2613 C2614 1.392 . S
C2613 C2617 1.495 . S
C2614 C2613 1.392 . S
C2614 C2615 1.385 1_565 S
C2614 C2616 1.478 . S
C2615 H2609 0.930 . S
C2615 C2611 1.400 . S
C2615 C2614 1.385 1_545 S
C2616 C2614 1.478 . S
C2616 C2618 1.381 . S
C2616 C2622 1.387 1_565 S
C2617 C2613 1.495 . S
C2617 H2623 0.959 . S
C2617 H2624 0.961 . S
C2617 H2625 0.960 . S
C2618 C2616 1.381 . S
C2618 C2619 1.394 . S
C2618 H2626 0.930 . S
C2619 C2618 1.394 . S
C2619 C2620 1.383 . S
C2619 H2627 0.929 . S
C2620 C2619 1.383 . S
C2620 C2621 1.384 1_565 S
C2621 H2605 0.927 . S
C2621 C2620 1.384 1_545 S
C2621 C2622 1.379 . S
C2622 H2606 0.928 . S
C2622 C2616 1.387 1_545 S
C2622 C2621 1.379 . S
H2623 C2617 0.959 . S
H2624 C2617 0.961 . S
H2625 C2617 0.960 . S
H2626 C2618 0.930 . S
H2627 C2619 0.929 . S
H2628 C2636 0.929 . S
H2629 C2638 0.930 . S
H2630 C2640 0.930 . S
H2631 C2643 0.929 . S
H2632 C2646 0.930 . S
H2633 C2648 0.989 1_455 S
H2634 C2648 1.000 . S
H2635 C2648 0.932 1_455 S
C2636 H2628 0.929 . S
C2636 C2637 1.377 . S
C2636 C2638 1.384 . S
C2637 C2636 1.377 . S
C2637 C2643 1.390 1_655 S
C2638 H2629 0.930 . S
C2638 C2636 1.384 . S
C2638 C2639 1.372 . S
C2639 C2638 1.372 . S
C2639 C2640 1.400 1_655 S
C2639 C2644 1.490 . S
C2640 H2630 0.930 . S
C2640 C2639 1.400 1_455 S
C2640 C2643 1.386 . S
H2641 C2657 0.930 . S
H2642 C2658 0.931 . S
C2643 H2631 0.929 . S
C2643 C2637 1.390 1_455 S
C2643 C2640 1.386 . S
C2644 C2639 1.490 . S
C2644 C2646 1.395 . S
C2644 C2647 1.391 . S
H2645 C2651 0.912 . S
C2646 H2632 0.930 . S
C2646 C2644 1.395 . S
C2646 C2649 1.403 . S
C2647 C2644 1.391 . S
C2647 C2648 1.517 . S
C2647 C2651 1.392 1_655 S
C2648 H2633 0.989 1_655 S
C2648 H2634 1.000 . S
C2648 H2635 0.932 1_655 S
C2648 C2647 1.517 . S
C2649 C2646 1.403 . S
C2649 C2650 1.398 1_655 S
C2649 C2653 1.495 . S
C2650 C2649 1.398 1_455 S
C2650 C2651 1.405 . S
C2650 C2652 1.479 . S
C2651 H2645 0.912 . S
C2651 C2647 1.392 1_455 S
C2651 C2650 1.405 . S
C2652 C2650 1.479 . S
C2652 C2654 1.381 1_455 S
C2652 C2658 1.383 . S
C2653 C2649 1.495 . S
C2653 H2659 0.959 . S
C2653 H2660 0.961 1_655 S
C2653 H2661 0.960 . S
C2654 C2652 1.381 1_655 S
C2654 C2655 1.394 . S
C2654 H2662 0.930 . S
C2655 C2654 1.394 . S
C2655 C2656 1.383 1_655 S
C2655 H2663 0.929 . S
C2656 C2655 1.383 1_455 S
C2656 C2657 1.377 . S
C2657 H2641 0.930 . S
C2657 C2656 1.377 . S
C2657 C2658 1.379 . S
C2658 H2642 0.931 . S
C2658 C2652 1.383 . S
C2658 C2657 1.379 . S
H2659 C2653 0.959 . S
H2660 C2653 0.961 1_455 S
H2661 C2653 0.960 . S
H2662 C2654 0.930 . S
H2663 C2655 0.929 . S
H2664 C2672 0.929 . S
H2665 C2674 0.930 . S
H2666 C2676 0.930 . S
H2667 C2679 0.929 . S
H2668 C2682 0.930 . S
H2669 C2684 0.960 . S
H2670 C2684 0.960 . S
H2671 C2684 0.960 . S
C2672 H2664 0.929 . S
C2672 C2673 1.377 . S
C2672 C2674 1.384 . S
C2673 C2672 1.377 . S
C2673 C2679 1.390 . S
C2674 H2665 0.930 . S
C2674 C2672 1.384 . S
C2674 C2675 1.372 . S
C2675 C2674 1.372 . S
C2675 C2676 1.400 . S
C2675 C2680 1.490 . S
C2676 H2666 0.930 . S
C2676 C2675 1.400 . S
C2676 C2679 1.386 . S
H2677 C2693 0.930 . S
H2678 C2694 0.931 . S
C2679 H2667 0.929 . S
C2679 C2673 1.390 . S
C2679 C2676 1.386 . S
C2680 C2675 1.490 . S
C2680 C2682 1.395 . S
C2680 C2683 1.403 . S
H2681 C2687 0.930 . S
C2682 H2668 0.930 . S
C2682 C2680 1.395 . S
C2682 C2685 1.403 . S
C2683 C2680 1.403 . S
C2683 C2684 1.524 . S
C2683 C2687 1.400 . S
C2684 H2669 0.960 . S
C2684 H2670 0.960 . S
C2684 H2671 0.960 . S
C2684 C2683 1.524 . S
C2685 C2682 1.403 . S
C2685 C2686 1.392 . S
C2685 C2689 1.495 . S
C2686 C2685 1.392 . S
C2686 C2687 1.385 . S
C2686 C2688 1.478 . S
C2687 H2681 0.930 . S
C2687 C2683 1.400 . S
C2687 C2686 1.385 . S
C2688 C2686 1.478 . S
C2688 C2690 1.381 . S
C2688 C2694 1.383 . S
C2689 C2685 1.495 . S
C2689 H2695 0.959 . S
C2689 H2696 0.961 . S
C2689 H2697 0.960 . S
C2690 C2688 1.381 . S
C2690 C2691 1.394 . S
C2690 H2698 0.930 . S
C2691 C2690 1.394 . S
C2691 C2692 1.383 . S
C2691 H2699 0.929 . S
C2692 C2691 1.383 . S
C2692 C2693 1.377 . S
C2693 H2677 0.930 . S
C2693 C2692 1.377 . S
C2693 C2694 1.379 . S
C2694 H2678 0.931 . S
C2694 C2688 1.383 . S
C2694 C2693 1.379 . S
H2695 C2689 0.959 . S
H2696 C2689 0.961 . S
H2697 C2689 0.960 . S
H2698 C2690 0.930 . S
H2699 C2691 0.929 . S
H2700 C2708 0.929 . S
H2701 C2710 0.930 . S
H2702 C2712 0.930 . S
H2703 C2715 0.929 . S
H2704 C2718 0.930 . S
H2705 C2720 0.960 . S
H2706 C2720 0.960 . S
H2707 C2720 0.960 . S
C2708 H2700 0.929 . S
C2708 C2709 1.377 . S
C2708 C2710 1.384 . S
C2709 C2708 1.377 . S
C2709 C2715 1.390 . S
C2710 H2701 0.930 . S
C2710 C2708 1.384 . S
C2710 C2711 1.372 . S
C2711 C2710 1.372 . S
C2711 C2712 1.400 . S
C2711 C2716 1.490 . S
C2712 H2702 0.930 . S
C2712 C2711 1.400 . S
C2712 C2715 1.386 . S
H2713 C2729 0.930 . S
H2714 C2730 0.931 . S
C2715 H2703 0.929 . S
C2715 C2709 1.390 . S
C2715 C2712 1.386 . S
C2716 C2711 1.490 . S
C2716 C2718 1.395 . S
C2716 C2719 1.403 . S
H2717 C2723 0.930 . S
C2718 H2704 0.930 . S
C2718 C2716 1.395 . S
C2718 C2721 1.403 . S
C2719 C2716 1.403 . S
C2719 C2720 1.524 . S
C2719 C2723 1.400 . S
C2720 H2705 0.960 . S
C2720 H2706 0.960 . S
C2720 H2707 0.960 . S
C2720 C2719 1.524 . S
C2721 C2718 1.403 . S
C2721 C2722 1.392 . S
C2721 C2725 1.495 . S
C2722 C2721 1.392 . S
C2722 C2723 1.385 . S
C2722 C2724 1.478 . S
C2723 H2717 0.930 . S
C2723 C2719 1.400 . S
C2723 C2722 1.385 . S
C2724 C2722 1.478 . S
C2724 C2726 1.381 . S
C2724 C2730 1.383 . S
C2725 C2721 1.495 . S
C2725 H2731 0.959 . S
C2725 H2732 0.961 . S
C2725 H2733 0.960 . S
C2726 C2724 1.381 . S
C2726 C2727 1.394 . S
C2726 H2734 0.930 . S
C2727 C2726 1.394 . S
C2727 C2728 1.383 . S
C2727 H2735 0.929 . S
C2728 C2727 1.383 . S
C2728 C2729 1.377 . S
C2729 H2713 0.930 . S
C2729 C2728 1.377 . S
C2729 C2730 1.379 . S
C2730 H2714 0.931 . S
C2730 C2724 1.383 . S
C2730 C2729 1.379 . S
H2731 C2725 0.959 . S
H2732 C2725 0.961 . S
H2733 C2725 0.960 . S
H2734 C2726 0.930 . S
H2735 C2727 0.929 . S
H2736 C2744 0.929 . S
H2737 C2746 0.930 . S
H2738 C2748 0.930 . S
H2739 C2751 0.929 . S
H2740 C2754 0.930 . S
H2741 C2756 0.960 . S
H2742 C2756 0.960 . S
H2743 C2756 0.960 . S
C2744 H2736 0.929 . S
C2744 C2745 1.377 . S
C2744 C2746 1.384 . S
C2745 C2744 1.377 . S
C2745 C2751 1.390 . S
C2746 H2737 0.930 . S
C2746 C2744 1.384 . S
C2746 C2747 1.372 . S
C2747 C2746 1.372 . S
C2747 C2748 1.400 . S
C2747 C2752 1.490 . S
C2748 H2738 0.930 . S
C2748 C2747 1.400 . S
C2748 C2751 1.386 . S
H2749 C2765 0.930 . S
H2750 C2766 0.931 . S
C2751 H2739 0.929 . S
C2751 C2745 1.390 . S
C2751 C2748 1.386 . S
C2752 C2747 1.490 . S
C2752 C2754 1.395 . S
C2752 C2755 1.403 . S
H2753 C2759 0.930 . S
C2754 H2740 0.930 . S
C2754 C2752 1.395 . S
C2754 C2757 1.403 . S
C2755 C2752 1.403 . S
C2755 C2756 1.524 . S
C2755 C2759 1.400 . S
C2756 H2741 0.960 . S
C2756 H2742 0.960 . S
C2756 H2743 0.960 . S
C2756 C2755 1.524 . S
C2757 C2754 1.403 . S
C2757 C2758 1.392 . S
C2757 C2761 1.495 . S
C2758 C2757 1.392 . S
C2758 C2759 1.385 . S
C2758 C2760 1.478 . S
C2759 H2753 0.930 . S
C2759 C2755 1.400 . S
C2759 C2758 1.385 . S
C2760 C2758 1.478 . S
C2760 C2762 1.381 . S
C2760 C2766 1.383 . S
C2761 C2757 1.495 . S
C2761 H2767 0.959 . S
C2761 H2768 0.961 . S
C2761 H2769 0.960 . S
C2762 C2760 1.381 . S
C2762 C2763 1.394 . S
C2762 H2770 0.930 . S
C2763 C2762 1.394 . S
C2763 C2764 1.383 . S
C2763 H2771 0.929 . S
C2764 C2763 1.383 . S
C2764 C2765 1.377 . S
C2765 H2749 0.930 . S
C2765 C2764 1.377 . S
C2765 C2766 1.379 . S
C2766 H2750 0.931 . S
C2766 C2760 1.383 . S
C2766 C2765 1.379 . S
H2767 C2761 0.959 . S
H2768 C2761 0.961 . S
H2769 C2761 0.960 . S
H2770 C2762 0.930 . S
H2771 C2763 0.929 . S
H2772 C2780 0.929 . S
H2773 C2782 0.930 . S
H2774 C2784 0.930 . S
H2775 C2787 0.929 . S
H2776 C2790 0.930 . S
H2777 C2792 0.960 . S
H2778 C2792 0.960 . S
H2779 C2792 0.960 . S
C2780 H2772 0.929 . S
C2780 C2781 1.377 . S
C2780 C2782 1.384 . S
C2781 C2780 1.377 . S
C2781 C2787 1.390 . S
C2782 H2773 0.930 . S
C2782 C2780 1.384 . S
C2782 C2783 1.372 . S
C2783 C2782 1.372 . S
C2783 C2784 1.400 . S
C2783 C2788 1.490 . S
C2784 H2774 0.930 . S
C2784 C2783 1.400 . S
C2784 C2787 1.386 . S
H2785 C2801 0.930 . S
H2786 C2802 0.931 . S
C2787 H2775 0.929 . S
C2787 C2781 1.390 . S
C2787 C2784 1.386 . S
C2788 C2783 1.490 . S
C2788 C2790 1.395 . S
C2788 C2791 1.403 . S
H2789 C2795 0.930 . S
C2790 H2776 0.930 . S
C2790 C2788 1.395 . S
C2790 C2793 1.403 . S
C2791 C2788 1.403 . S
C2791 C2792 1.524 . S
C2791 C2795 1.400 . S
C2792 H2777 0.960 . S
C2792 H2778 0.960 . S
C2792 H2779 0.960 . S
C2792 C2791 1.524 . S
C2793 C2790 1.403 . S
C2793 C2794 1.392 . S
C2793 C2797 1.495 . S
C2794 C2793 1.392 . S
C2794 C2795 1.385 . S
C2794 C2796 1.478 . S
C2795 H2789 0.930 . S
C2795 C2791 1.400 . S
C2795 C2794 1.385 . S
C2796 C2794 1.478 . S
C2796 C2798 1.381 . S
C2796 C2802 1.383 . S
C2797 C2793 1.495 . S
C2797 H2803 0.959 . S
C2797 H2804 0.961 . S
C2797 H2805 0.960 . S
C2798 C2796 1.381 . S
C2798 C2799 1.394 1_554 S
C2798 H2806 0.930 . S
C2799 C2798 1.394 1_556 S
C2799 C2800 1.383 . S
C2799 H2807 0.929 . S
C2800 C2799 1.383 . S
C2800 C2801 1.377 . S
C2801 H2785 0.930 . S
C2801 C2800 1.377 . S
C2801 C2802 1.379 1_556 S
C2802 H2786 0.931 . S
C2802 C2796 1.383 . S
C2802 C2801 1.379 1_554 S
H2803 C2797 0.959 . S
H2804 C2797 0.961 . S
H2805 C2797 0.960 . S
H2806 C2798 0.930 . S
H2807 C2799 0.929 . S
H2808 C2816 0.929 . S
H2809 C2818 0.930 . S
H2810 C2820 0.930 . S
H2811 C2823 0.929 . S
H2812 C2826 0.930 . S
H2813 C2828 0.960 . S
H2814 C2828 0.960 . S
H2815 C2828 0.960 . S
C2816 H2808 0.929 . S
C2816 C2817 1.377 . S
C2816 C2818 1.384 . S
C2817 C2816 1.377 . S
C2817 C2823 1.390 . S
C2818 H2809 0.930 . S
C2818 C2816 1.384 . S
C2818 C2819 1.372 . S
C2819 C2818 1.372 . S
C2819 C2820 1.400 . S
C2819 C2824 1.490 . S
C2820 H2810 0.930 . S
C2820 C2819 1.400 . S
C2820 C2823 1.386 . S
H2821 C2837 0.930 . S
H2822 C2838 0.931 . S
C2823 H2811 0.929 . S
C2823 C2817 1.390 . S
C2823 C2820 1.386 . S
C2824 C2819 1.490 . S
C2824 C2826 1.395 . S
C2824 C2827 1.403 . S
H2825 C2831 0.930 . S
C2826 H2812 0.930 . S
C2826 C2824 1.395 . S
C2826 C2829 1.403 . S
C2827 C2824 1.403 . S
C2827 C2828 1.524 . S
C2827 C2831 1.400 . S
C2828 H2813 0.960 . S
C2828 H2814 0.960 . S
C2828 H2815 0.960 . S
C2828 C2827 1.524 . S
C2829 C2826 1.403 . S
C2829 C2830 1.392 . S
C2829 C2833 1.495 . S
C2830 C2829 1.392 . S
C2830 C2831 1.385 . S
C2830 C2832 1.478 . S
C2831 H2825 0.930 . S
C2831 C2827 1.400 . S
C2831 C2830 1.385 . S
C2832 C2830 1.478 . S
C2832 C2834 1.381 . S
C2832 C2838 1.383 . S
C2833 C2829 1.495 . S
C2833 H2839 0.959 . S
C2833 H2840 0.961 . S
C2833 H2841 0.960 . S
C2834 C2832 1.381 . S
C2834 C2835 1.394 1_554 S
C2834 H2842 0.930 . S
C2835 C2834 1.394 1_556 S
C2835 C2836 1.383 . S
C2835 H2843 0.929 . S
C2836 C2835 1.383 . S
C2836 C2837 1.377 . S
C2837 H2821 0.930 . S
C2837 C2836 1.377 . S
C2837 C2838 1.379 1_556 S
C2838 H2822 0.931 . S
C2838 C2832 1.383 . S
C2838 C2837 1.379 1_554 S
H2839 C2833 0.959 . S
H2840 C2833 0.961 . S
H2841 C2833 0.960 . S
H2842 C2834 0.930 . S
H2843 C2835 0.929 . S
H2844 C2852 0.929 . S
H2845 C2854 0.930 . S
H2846 C2856 0.930 . S
H2847 C2859 0.929 . S
H2848 C2862 0.930 . S
H2849 C2864 0.960 . S
H2850 C2864 0.960 . S
H2851 C2864 0.960 . S
C2852 H2844 0.929 . S
C2852 C2853 1.377 . S
C2852 C2854 1.384 . S
C2853 C2852 1.377 . S
C2853 C2859 1.390 . S
C2854 H2845 0.930 . S
C2854 C2852 1.384 . S
C2854 C2855 1.372 . S
C2855 C2854 1.372 . S
C2855 C2856 1.400 . S
C2855 C2860 1.490 . S
C2856 H2846 0.930 . S
C2856 C2855 1.400 . S
C2856 C2859 1.386 . S
H2857 C2873 0.930 . S
H2858 C2874 0.931 . S
C2859 H2847 0.929 . S
C2859 C2853 1.390 . S
C2859 C2856 1.386 . S
C2860 C2855 1.490 . S
C2860 C2862 1.395 . S
C2860 C2863 1.403 . S
H2861 C2867 0.930 . S
C2862 H2848 0.930 . S
C2862 C2860 1.395 . S
C2862 C2865 1.403 . S
C2863 C2860 1.403 . S
C2863 C2864 1.524 . S
C2863 C2867 1.400 . S
C2864 H2849 0.960 . S
C2864 H2850 0.960 . S
C2864 H2851 0.960 . S
C2864 C2863 1.524 . S
C2865 C2862 1.403 . S
C2865 C2866 1.392 . S
C2865 C2869 1.495 . S
C2866 C2865 1.392 . S
C2866 C2867 1.385 . S
C2866 C2868 1.478 . S
C2867 H2861 0.930 . S
C2867 C2863 1.400 . S
C2867 C2866 1.385 . S
C2868 C2866 1.478 . S
C2868 C2870 1.381 . S
C2868 C2874 1.383 . S
C2869 C2865 1.495 . S
C2869 H2875 0.959 . S
C2869 H2876 0.961 . S
C2869 H2877 0.960 . S
C2870 C2868 1.381 . S
C2870 C2871 1.394 1_554 S
C2870 H2878 0.930 . S
C2871 C2870 1.394 1_556 S
C2871 C2872 1.383 . S
C2871 H2879 0.929 . S
C2872 C2871 1.383 . S
C2872 C2873 1.377 . S
C2873 H2857 0.930 . S
C2873 C2872 1.377 . S
C2873 C2874 1.379 1_556 S
C2874 H2858 0.931 . S
C2874 C2868 1.383 . S
C2874 C2873 1.379 1_554 S
H2875 C2869 0.959 . S
H2876 C2869 0.961 . S
H2877 C2869 0.960 . S
H2878 C2870 0.930 . S
H2879 C2871 0.929 . S
H2880 C2888 0.929 . S
H2881 C2890 0.930 . S
H2882 C2892 0.930 . S
H2883 C2895 0.929 . S
H2884 C2898 0.930 . S
H2885 C2900 0.960 . S
H2886 C2900 0.960 . S
H2887 C2900 0.960 . S
C2888 H2880 0.929 . S
C2888 C2889 1.377 . S
C2888 C2890 1.384 1_554 S
C2889 C2888 1.377 . S
C2889 C2895 1.390 . S
C2890 H2881 0.930 . S
C2890 C2888 1.384 1_556 S
C2890 C2891 1.372 . S
C2891 C2890 1.372 . S
C2891 C2892 1.400 . S
C2891 C2896 1.490 . S
C2892 H2882 0.930 . S
C2892 C2891 1.400 . S
C2892 C2895 1.386 1_556 S
H2893 C2909 0.930 . S
H2894 C2910 0.931 . S
C2895 H2883 0.929 . S
C2895 C2889 1.390 . S
C2895 C2892 1.386 1_554 S
C2896 C2891 1.490 . S
C2896 C2898 1.395 . S
C2896 C2899 1.403 . S
H2897 C2903 0.930 . S
C2898 H2884 0.930 . S
C2898 C2896 1.395 . S
C2898 C2901 1.403 . S
C2899 C2896 1.403 . S
C2899 C2900 1.524 . S
C2899 C2903 1.400 . S
C2900 H2885 0.960 . S
C2900 H2886 0.960 . S
C2900 H2887 0.960 . S
C2900 C2899 1.524 . S
C2901 C2898 1.403 . S
C2901 C2902 1.392 . S
C2901 C2905 1.495 . S
C2902 C2901 1.392 . S
C2902 C2903 1.385 . S
C2902 C2904 1.478 . S
C2903 H2897 0.930 . S
C2903 C2899 1.400 . S
C2903 C2902 1.385 . S
C2904 C2902 1.478 . S
C2904 C2906 1.381 . S
C2904 C2910 1.383 . S
C2905 C2901 1.495 . S
C2905 H2911 0.959 . S
C2905 H2912 0.961 . S
C2905 H2913 0.960 . S
C2906 C2904 1.381 . S
C2906 C2907 1.394 . S
C2906 H2914 0.930 . S
C2907 C2906 1.394 . S
C2907 C2908 1.383 . S
C2907 H2915 0.929 . S
C2908 C2907 1.383 . S
C2908 C2909 1.377 . S
C2909 H2893 0.930 . S
C2909 C2908 1.377 . S
C2909 C2910 1.379 . S
C2910 H2894 0.931 . S
C2910 C2904 1.383 . S
C2910 C2909 1.379 . S
H2911 C2905 0.959 . S
H2912 C2905 0.961 . S
H2913 C2905 0.960 . S
H2914 C2906 0.930 . S
H2915 C2907 0.929 . S
H2916 C2924 0.929 . S
H2917 C2926 0.930 . S
H2918 C2928 0.930 . S
H2919 C2931 0.929 . S
H2920 C2934 0.930 . S
H2921 C2936 0.960 . S
H2922 C2936 0.960 . S
H2923 C2936 0.960 . S
C2924 H2916 0.929 . S
C2924 C2925 1.377 . S
C2924 C2926 1.384 1_554 S
C2925 C2924 1.377 . S
C2925 C2931 1.390 . S
C2926 H2917 0.930 . S
C2926 C2924 1.384 1_556 S
C2926 C2927 1.372 . S
C2927 C2926 1.372 . S
C2927 C2928 1.400 . S
C2927 C2932 1.490 . S
C2928 H2918 0.930 . S
C2928 C2927 1.400 . S
C2928 C2931 1.386 1_556 S
H2929 C2945 0.930 . S
H2930 C2946 0.931 . S
C2931 H2919 0.929 . S
C2931 C2925 1.390 . S
C2931 C2928 1.386 1_554 S
C2932 C2927 1.490 . S
C2932 C2934 1.395 . S
C2932 C2935 1.403 . S
H2933 C2939 0.930 . S
C2934 H2920 0.930 . S
C2934 C2932 1.395 . S
C2934 C2937 1.403 . S
C2935 C2932 1.403 . S
C2935 C2936 1.524 . S
C2935 C2939 1.400 . S
C2936 H2921 0.960 . S
C2936 H2922 0.960 . S
C2936 H2923 0.960 . S
C2936 C2935 1.524 . S
C2937 C2934 1.403 . S
C2937 C2938 1.392 . S
C2937 C2941 1.495 . S
C2938 C2937 1.392 . S
C2938 C2939 1.385 . S
C2938 C2940 1.478 . S
C2939 H2933 0.930 . S
C2939 C2935 1.400 . S
C2939 C2938 1.385 . S
C2940 C2938 1.478 . S
C2940 C2942 1.381 . S
C2940 C2946 1.383 . S
C2941 C2937 1.495 . S
C2941 H2947 0.959 . S
C2941 H2948 0.961 . S
C2941 H2949 0.960 . S
C2942 C2940 1.381 . S
C2942 C2943 1.394 . S
C2942 H2950 0.930 . S
C2943 C2942 1.394 . S
C2943 C2944 1.383 . S
C2943 H2951 0.929 . S
C2944 C2943 1.383 . S
C2944 C2945 1.377 . S
C2945 H2929 0.930 . S
C2945 C2944 1.377 . S
C2945 C2946 1.379 . S
C2946 H2930 0.931 . S
C2946 C2940 1.383 . S
C2946 C2945 1.379 . S
H2947 C2941 0.959 . S
H2948 C2941 0.961 . S
H2949 C2941 0.960 . S
H2950 C2942 0.930 . S
H2951 C2943 0.929 . S
H2952 C2960 0.929 . S
H2953 C2962 0.930 . S
H2954 C2964 0.930 . S
H2955 C2967 0.929 . S
H2956 C2970 0.930 . S
H2957 C2972 0.960 . S
H2958 C2972 0.960 . S
H2959 C2972 0.960 . S
C2960 H2952 0.929 . S
C2960 C2961 1.377 . S
C2960 C2962 1.384 1_554 S
C2961 C2960 1.377 . S
C2961 C2967 1.390 . S
C2962 H2953 0.930 . S
C2962 C2960 1.384 1_556 S
C2962 C2963 1.372 . S
C2963 C2962 1.372 . S
C2963 C2964 1.400 . S
C2963 C2968 1.490 . S
C2964 H2954 0.930 . S
C2964 C2963 1.400 . S
C2964 C2967 1.386 1_556 S
H2965 C2981 0.930 . S
H2966 C2982 0.931 . S
C2967 H2955 0.929 . S
C2967 C2961 1.390 . S
C2967 C2964 1.386 1_554 S
C2968 C2963 1.490 . S
C2968 C2970 1.395 . S
C2968 C2971 1.403 . S
H2969 C2975 0.930 . S
C2970 H2956 0.930 . S
C2970 C2968 1.395 . S
C2970 C2973 1.403 . S
C2971 C2968 1.403 . S
C2971 C2972 1.524 . S
C2971 C2975 1.400 . S
C2972 H2957 0.960 . S
C2972 H2958 0.960 . S
C2972 H2959 0.960 . S
C2972 C2971 1.524 . S
C2973 C2970 1.403 . S
C2973 C2974 1.392 . S
C2973 C2977 1.495 . S
C2974 C2973 1.392 . S
C2974 C2975 1.385 . S
C2974 C2976 1.478 . S
C2975 H2969 0.930 . S
C2975 C2971 1.400 . S
C2975 C2974 1.385 . S
C2976 C2974 1.478 . S
C2976 C2978 1.381 . S
C2976 C2982 1.383 . S
C2977 C2973 1.495 . S
C2977 H2983 0.959 . S
C2977 H2984 0.961 . S
C2977 H2985 0.960 . S
C2978 C2976 1.381 . S
C2978 C2979 1.394 . S
C2978 H2986 0.930 . S
C2979 C2978 1.394 . S
C2979 C2980 1.383 . S
C2979 H2987 0.929 . S
C2980 C2979 1.383 . S
C2980 C2981 1.377 . S
C2981 H2965 0.930 . S
C2981 C2980 1.377 . S
C2981 C2982 1.379 . S
C2982 H2966 0.931 . S
C2982 C2976 1.383 . S
C2982 C2981 1.379 . S
H2983 C2977 0.959 . S
H2984 C2977 0.961 . S
H2985 C2977 0.960 . S
H2986 C2978 0.930 . S
H2987 C2979 0.929 . S
H2988 C2996 0.929 . S
H2989 C2998 0.930 . S
H2990 C3000 0.930 . S
H2991 C3003 0.929 . S
H2992 C3006 0.930 . S
H2993 C3008 0.960 . S
H2994 C3008 0.960 . S
H2995 C3008 0.960 . S
C2996 H2988 0.929 . S
C2996 C2997 1.377 . S
C2996 C2998 1.384 . S
C2997 C2996 1.377 . S
C2997 C3003 1.390 . S
C2998 H2989 0.930 . S
C2998 C2996 1.384 . S
C2998 C2999 1.372 . S
C2999 C2998 1.372 . S
C2999 C3000 1.400 . S
C2999 C3004 1.490 . S
C3000 H2990 0.930 . S
C3000 C2999 1.400 . S
C3000 C3003 1.386 . S
H3001 C3017 0.930 . S
H3002 C3018 0.931 . S
C3003 H2991 0.929 . S
C3003 C2997 1.390 . S
C3003 C3000 1.386 . S
C3004 C2999 1.490 . S
C3004 C3006 1.395 . S
C3004 C3007 1.403 . S
H3005 C3011 0.930 . S
C3006 H2992 0.930 . S
C3006 C3004 1.395 . S
C3006 C3009 1.403 . S
C3007 C3004 1.403 . S
C3007 C3008 1.524 . S
C3007 C3011 1.400 . S
C3008 H2993 0.960 . S
C3008 H2994 0.960 . S
C3008 H2995 0.960 . S
C3008 C3007 1.524 . S
C3009 C3006 1.403 . S
C3009 C3010 1.392 . S
C3009 C3013 1.495 . S
C3010 C3009 1.392 . S
C3010 C3011 1.385 . S
C3010 C3012 1.478 . S
C3011 H3005 0.930 . S
C3011 C3007 1.400 . S
C3011 C3010 1.385 . S
C3012 C3010 1.478 . S
C3012 C3014 1.381 . S
C3012 C3018 1.383 . S
C3013 C3009 1.495 . S
C3013 H3019 0.959 . S
C3013 H3020 0.961 . S
C3013 H3021 0.960 . S
C3014 C3012 1.381 . S
C3014 C3015 1.394 . S
C3014 H3022 0.930 . S
C3015 C3014 1.394 . S
C3015 C3016 1.383 . S
C3015 H3023 0.929 . S
C3016 C3015 1.383 . S
C3016 C3017 1.377 . S
C3017 H3001 0.930 . S
C3017 C3016 1.377 . S
C3017 C3018 1.379 . S
C3018 H3002 0.931 . S
C3018 C3012 1.383 . S
C3018 C3017 1.379 . S
H3019 C3013 0.959 . S
H3020 C3013 0.961 . S
H3021 C3013 0.960 . S
H3022 C3014 0.930 . S
H3023 C3015 0.929 . S
H3024 C3032 0.929 . S
H3025 C3034 0.930 . S
H3026 C3036 0.930 . S
H3027 C3039 0.929 . S
H3028 C3042 0.930 . S
H3029 C3044 0.960 . S
H3030 C3044 0.960 . S
H3031 C3044 0.960 . S
C3032 H3024 0.929 . S
C3032 C3033 1.377 . S
C3032 C3034 1.384 . S
C3033 C3032 1.377 . S
C3033 C3039 1.390 . S
C3034 H3025 0.930 . S
C3034 C3032 1.384 . S
C3034 C3035 1.372 . S
C3035 C3034 1.372 . S
C3035 C3036 1.400 . S
C3035 C3040 1.490 . S
C3036 H3026 0.930 . S
C3036 C3035 1.400 . S
C3036 C3039 1.386 . S
H3037 C3053 0.930 . S
H3038 C3054 0.931 . S
C3039 H3027 0.929 . S
C3039 C3033 1.390 . S
C3039 C3036 1.386 . S
C3040 C3035 1.490 . S
C3040 C3042 1.395 . S
C3040 C3043 1.403 . S
H3041 C3047 0.930 . S
C3042 H3028 0.930 . S
C3042 C3040 1.395 . S
C3042 C3045 1.403 . S
C3043 C3040 1.403 . S
C3043 C3044 1.524 . S
C3043 C3047 1.400 . S
C3044 H3029 0.960 . S
C3044 H3030 0.960 . S
C3044 H3031 0.960 . S
C3044 C3043 1.524 . S
C3045 C3042 1.403 . S
C3045 C3046 1.392 . S
C3045 C3049 1.495 . S
C3046 C3045 1.392 . S
C3046 C3047 1.385 . S
C3046 C3048 1.478 . S
C3047 H3041 0.930 . S
C3047 C3043 1.400 . S
C3047 C3046 1.385 . S
C3048 C3046 1.478 . S
C3048 C3050 1.381 . S
C3048 C3054 1.383 . S
C3049 C3045 1.495 . S
C3049 H3055 0.959 . S
C3049 H3056 0.961 . S
C3049 H3057 0.960 . S
C3050 C3048 1.381 . S
C3050 C3051 1.394 . S
C3050 H3058 0.930 . S
C3051 C3050 1.394 . S
C3051 C3052 1.383 . S
C3051 H3059 0.929 . S
C3052 C3051 1.383 . S
C3052 C3053 1.377 . S
C3053 H3037 0.930 . S
C3053 C3052 1.377 . S
C3053 C3054 1.379 . S
C3054 H3038 0.931 . S
C3054 C3048 1.383 . S
C3054 C3053 1.379 . S
H3055 C3049 0.959 . S
H3056 C3049 0.961 . S
H3057 C3049 0.960 . S
H3058 C3050 0.930 . S
H3059 C3051 0.929 . S
H3060 C3068 0.929 . S
H3061 C3070 0.930 . S
H3062 C3072 0.930 . S
H3063 C3075 0.929 . S
H3064 C3078 0.930 . S
H3065 C3080 0.960 . S
H3066 C3080 0.960 . S
H3067 C3080 0.960 . S
C3068 H3060 0.929 . S
C3068 C3069 1.377 . S
C3068 C3070 1.384 . S
C3069 C3068 1.377 . S
C3069 C3075 1.390 . S
C3070 H3061 0.930 . S
C3070 C3068 1.384 . S
C3070 C3071 1.372 . S
C3071 C3070 1.372 . S
C3071 C3072 1.400 . S
C3071 C3076 1.490 . S
C3072 H3062 0.930 . S
C3072 C3071 1.400 . S
C3072 C3075 1.386 . S
H3073 C3089 0.930 . S
H3074 C3090 0.931 . S
C3075 H3063 0.929 . S
C3075 C3069 1.390 . S
C3075 C3072 1.386 . S
C3076 C3071 1.490 . S
C3076 C3078 1.395 . S
C3076 C3079 1.403 . S
H3077 C3083 0.930 . S
C3078 H3064 0.930 . S
C3078 C3076 1.395 . S
C3078 C3081 1.403 . S
C3079 C3076 1.403 . S
C3079 C3080 1.524 . S
C3079 C3083 1.400 . S
C3080 H3065 0.960 . S
C3080 H3066 0.960 . S
C3080 H3067 0.960 . S
C3080 C3079 1.524 . S
C3081 C3078 1.403 . S
C3081 C3082 1.392 . S
C3081 C3085 1.495 . S
C3082 C3081 1.392 . S
C3082 C3083 1.385 . S
C3082 C3084 1.478 . S
C3083 H3077 0.930 . S
C3083 C3079 1.400 . S
C3083 C3082 1.385 . S
C3084 C3082 1.478 . S
C3084 C3086 1.381 . S
C3084 C3090 1.383 . S
C3085 C3081 1.495 . S
C3085 H3091 0.959 . S
C3085 H3092 0.961 . S
C3085 H3093 0.960 . S
C3086 C3084 1.381 . S
C3086 C3087 1.394 . S
C3086 H3094 0.930 . S
C3087 C3086 1.394 . S
C3087 C3088 1.383 . S
C3087 H3095 0.929 . S
C3088 C3087 1.383 . S
C3088 C3089 1.377 . S
C3089 H3073 0.930 . S
C3089 C3088 1.377 . S
C3089 C3090 1.379 . S
C3090 H3074 0.931 . S
C3090 C3084 1.383 . S
C3090 C3089 1.379 . S
H3091 C3085 0.959 . S
H3092 C3085 0.961 . S
H3093 C3085 0.960 . S
H3094 C3086 0.930 . S
H3095 C3087 0.929 . S
C513 C230 1.013 . S
C532 C6 1.023 . S
C549 C244 1.009 . S
C568 C20 0.978 . S
C585 C34 1.011 . S
C604 C216 0.988 . S
C621 C370 1.018 . S
C640 C48 1.023 . S
C657 C342 1.006 . S
C676 C62 0.972 . S
C693 C76 1.014 . S
C712 C356 1.000 . S
C729 C482 1.006 . S
C748 C90 1.041 . S
C765 C496 1.020 . S
C784 C104 1.030 . S
C801 C468 1.022 . S
C820 C118 0.995 . S
C837 C286 1.022 . S
C856 C132 1.012 . S
C873 C146 1.021 . S
C892 C258 1.021 . S
C909 C272 1.019 . S
C928 C160 0.975 . S
C945 C398 1.020 . S
C964 C174 1.034 . S
C981 C188 1.006 . S
C1000 C412 0.985 . S
C1017 C384 1.019 . S
C1036 C202 1.031 . S
C1053 C454 1.007 . S
C1072 C300 1.048 . S
C1089 C426 1.004 . S
C1108 C314 1.022 . S
C1125 C328 1.010 . S
C1144 C440 0.978 . S
C1161 C105 1.643 . S
C1180 C8 1.705 . S
C1197 C119 1.642 . S
C1216 C22 1.673 . S
C1233 C91 1.641 . S
C1252 C36 1.675 . S
C1269 C50 1.691 . S
C1288 C161 1.620 . S
C1305 C133 1.640 . S
C1324 C64 1.676 . S
C1341 C78 1.689 . S
C1360 C147 1.650 . S
C1377 C21 1.647 . S
C1396 C92 1.706 . S
C1413 C106 1.690 . S
C1432 C35 1.631 . S
C1449 C7 1.638 . S
C1468 C120 1.673 . S
C1485 C77 1.639 . S
C1504 C134 1.674 . S
C1521 C49 1.644 . S
C1540 C148 1.701 . S
C1557 C162 1.693 . S
C1576 C63 1.630 . S
C1593 C176 1.696 . S
C1612 C273 1.655 . S
C1629 C287 1.646 . S
C1648 C190 1.699 . S
C1665 C259 1.637 . S
C1684 C204 1.697 . S
C1701 C218 1.696 . S
C1720 C329 1.648 . S
C1737 C301 1.645 . S
C1756 C232 1.703 . S
C1773 C246 1.690 . S
C1792 C315 1.660 . S
C1809 C260 1.692 . S
C1828 C189 1.647 . S
C1845 C274 1.690 . S
C1864 C203 1.627 . S
C1881 C175 1.645 . S
C1900 C288 1.692 . S
C1917 C245 1.638 . S
C1936 C302 1.681 . S
C1953 C217 1.644 . S
C1972 C316 1.700 . S
C1989 C330 1.693 . S
C2008 C231 1.630 . S
C2025 C441 1.640 . S
C2044 C344 1.674 . S
C2061 C358 1.692 . S
C2080 C455 1.614 . S
C2097 C372 1.689 . S
C2116 C427 1.654 . S
C2133 C497 1.648 . S
C2152 C386 1.683 . S
C2169 C400 1.690 . S
C2188 C469 1.628 . S
C2205 C483 1.639 . S
C2224 C414 1.677 . S
C2241 C357 1.642 . S
C2260 C428 1.696 . S
C2277 C371 1.644 . S
C2296 C442 1.701 . S
C2313 C456 1.696 . S
C2332 C343 1.655 . S
C2349 C470 1.695 . S
C2368 C413 1.647 . S
C2385 C385 1.646 . S
C2404 C484 1.705 . S
C2421 C399 1.643 . S
C2440 C498 1.684 . S
C2457 C9 1.865 . S
C2476 C51 1.860 . S
C2493 C23 1.862 . S
C2512 C65 1.850 . S
C2529 C79 1.865 . S
C2548 C37 1.860 . S
C2565 C93 1.863 . S
C2584 C135 1.857 . S
C2601 C149 1.863 . S
C2620 C107 1.869 . S
C2637 C163 1.866 . S
C2656 C121 1.852 . S
C2673 C177 1.867 . S
C2692 C219 1.869 . S
C2709 C191 1.863 . S
C2728 C233 1.852 . S
C2745 C247 1.866 . S
C2764 C205 1.871 . S
C2781 C261 1.866 . S
C2800 C303 1.849 . S
C2817 C275 1.864 . S
C2836 C317 1.866 . S
C2853 C289 1.866 . S
C2872 C331 1.850 . S
C2889 C387 1.866 . S
C2908 C345 1.872 . S
C2925 C401 1.862 . S
C2944 C359 1.849 . S
C2961 C415 1.862 . S
C2980 C373 1.852 . S
C2997 C429 1.863 . S
C3016 C471 1.860 . S
C3033 C485 1.863 . S
C3052 C443 1.861 . S
C3069 C499 1.866 . S
C3088 C457 1.851 . S
