# Generated by pormake.
# Topology lcy-e, (6)-cn, num edge types: 1
# Building blocks:
#     Node 0, Type 0, BuildingBlock: CIFDUS_clean_sbu_1, # of connection points: 6
#     Node 1, Type 0, BuildingBlock: CIFDUS_clean_sbu_1, # of connection points: 6
#     Node 2, Type 0, BuildingBlock: CIFDUS_clean_sbu_1, # of connection points: 6
#     Node 3, Type 0, BuildingBlock: CIFDUS_clean_sbu_1, # of connection points: 6
#     Node 4, Type 0, BuildingBlock: CIFDUS_clean_sbu_1, # of connection points: 6
#     Node 5, Type 0, BuildingBlock: CIFDUS_clean_sbu_1, # of connection points: 6
#     Node 6, Type 0, BuildingBlock: CIFDUS_clean_sbu_1, # of connection points: 6
#     Node 7, Type 0, BuildingBlock: CIFDUS_clean_sbu_1, # of connection points: 6
#     Node 8, Type 0, BuildingBlock: CIFDUS_clean_sbu_1, # of connection points: 6
#     Node 9, Type 0, BuildingBlock: CIFDUS_clean_sbu_1, # of connection points: 6
#     Node 10, Type 0, BuildingBlock: CIFDUS_clean_sbu_1, # of connection points: 6
#     Node 11, Type 0, BuildingBlock: CIFDUS_clean_sbu_1, # of connection points: 6
#     Edge 12, Type (0, 0), BuildingBlock: EYOCIG_clean_linker_4, # of connection points: 2
#     Edge 13, Type (0, 0), BuildingBlock: EYOCIG_clean_linker_4, # of connection points: 2
#     Edge 14, Type (0, 0), BuildingBlock: EYOCIG_clean_linker_4, # of connection points: 2
#     Edge 15, Type (0, 0), BuildingBlock: EYOCIG_clean_linker_4, # of connection points: 2
#     Edge 16, Type (0, 0), BuildingBlock: EYOCIG_clean_linker_4, # of connection points: 2
#     Edge 17, Type (0, 0), BuildingBlock: EYOCIG_clean_linker_4, # of connection points: 2
#     Edge 18, Type (0, 0), BuildingBlock: EYOCIG_clean_linker_4, # of connection points: 2
#     Edge 19, Type (0, 0), BuildingBlock: EYOCIG_clean_linker_4, # of connection points: 2
#     Edge 20, Type (0, 0), BuildingBlock: EYOCIG_clean_linker_4, # of connection points: 2
#     Edge 21, Type (0, 0), BuildingBlock: EYOCIG_clean_linker_4, # of connection points: 2
#     Edge 22, Type (0, 0), BuildingBlock: EYOCIG_clean_linker_4, # of connection points: 2
#     Edge 23, Type (0, 0), BuildingBlock: EYOCIG_clean_linker_4, # of connection points: 2
#     Edge 24, Type (0, 0), BuildingBlock: EYOCIG_clean_linker_4, # of connection points: 2
#     Edge 25, Type (0, 0), BuildingBlock: EYOCIG_clean_linker_4, # of connection points: 2
#     Edge 26, Type (0, 0), BuildingBlock: EYOCIG_clean_linker_4, # of connection points: 2
#     Edge 27, Type (0, 0), BuildingBlock: EYOCIG_clean_linker_4, # of connection points: 2
#     Edge 28, Type (0, 0), BuildingBlock: EYOCIG_clean_linker_4, # of connection points: 2
#     Edge 29, Type (0, 0), BuildingBlock: EYOCIG_clean_linker_4, # of connection points: 2
#     Edge 30, Type (0, 0), BuildingBlock: EYOCIG_clean_linker_4, # of connection points: 2
#     Edge 31, Type (0, 0), BuildingBlock: EYOCIG_clean_linker_4, # of connection points: 2
#     Edge 32, Type (0, 0), BuildingBlock: EYOCIG_clean_linker_4, # of connection points: 2
#     Edge 33, Type (0, 0), BuildingBlock: EYOCIG_clean_linker_4, # of connection points: 2
#     Edge 34, Type (0, 0), BuildingBlock: EYOCIG_clean_linker_4, # of connection points: 2
#     Edge 35, Type (0, 0), BuildingBlock: EYOCIG_clean_linker_4, # of connection points: 2
#     Edge 36, Type (0, 0), BuildingBlock: EYOCIG_clean_linker_4, # of connection points: 2
#     Edge 37, Type (0, 0), BuildingBlock: EYOCIG_clean_linker_4, # of connection points: 2
#     Edge 38, Type (0, 0), BuildingBlock: EYOCIG_clean_linker_4, # of connection points: 2
#     Edge 39, Type (0, 0), BuildingBlock: EYOCIG_clean_linker_4, # of connection points: 2
#     Edge 40, Type (0, 0), BuildingBlock: EYOCIG_clean_linker_4, # of connection points: 2
#     Edge 41, Type (0, 0), BuildingBlock: EYOCIG_clean_linker_4, # of connection points: 2
#     Edge 42, Type (0, 0), BuildingBlock: EYOCIG_clean_linker_4, # of connection points: 2
#     Edge 43, Type (0, 0), BuildingBlock: EYOCIG_clean_linker_4, # of connection points: 2
#     Edge 44, Type (0, 0), BuildingBlock: EYOCIG_clean_linker_4, # of connection points: 2
#     Edge 45, Type (0, 0), BuildingBlock: EYOCIG_clean_linker_4, # of connection points: 2
#     Edge 46, Type (0, 0), BuildingBlock: EYOCIG_clean_linker_4, # of connection points: 2
#     Edge 47, Type (0, 0), BuildingBlock: EYOCIG_clean_linker_4, # of connection points: 2
# Relax obj value: 0.276
# Max RMSD: 0.264
# Mean RMSD: 0.264
data_MOF--net-lcy-e--node1-CIFDUS_clean_sbu_1--edge1-EYOCIG_clean_linker_4
_symmetry_space_group_name_H-M    P1
_symmetry_Int_Tables_number       1
_symmetry_cell_setting            triclinic
loop_
_symmetry_equiv_pos_as_xyz
'x, y, z'
_cell_length_a     28.588297
_cell_length_b     28.591377
_cell_length_c     28.58253
_cell_angle_alpha  89.994563
_cell_angle_beta   90.011277
_cell_angle_gamma 89.99385
loop_
_atom_site_label
_atom_site_type_symbol
_atom_site_fract_x
_atom_site_fract_y
_atom_site_fract_z
_atom_type_partial_charge
O0 O 0.08294 0.14783 0.43656 0.0
Mn1 Mn 0.12815 0.2028 0.4537 0.0
O2 O 0.0146 0.18339 0.41691 0.0
Mn3 Mn 0.03207 0.24572 0.42364 0.0
O4 O 0.17013 0.25978 0.47157 0.0
O5 O 0.16406 0.16063 0.49567 0.0
Mn6 Mn 0.22413 0.17334 0.49732 0.0
O7 O 0.17381 0.18587 0.39904 0.0
O8 O 0.22706 0.23426 0.5196 0.0
O9 O 0.08571 0.22046 0.51043 0.0
O10 O 0.0286 0.26804 0.48454 0.0
O11 O 0.2142 0.12085 0.53504 0.0
O12 O 0.24204 0.16667 0.43508 0.0
C13 C 0.08505 0.27072 0.37562 0.0
C14 C 0.03962 0.14698 0.42395 0.0
C15 C 0.20361 0.26702 0.50056 0.0
C16 C 0.17118 0.12508 0.52194 0.0
C17 C 0.21722 0.17352 0.39849 0.0
C18 C 0.05199 0.2492 0.51745 0.0
O19 O 0.09222 0.2445 0.41121 0.0
O20 O 0.04196 0.28349 0.37118 0.0
O21 O 0.10809 0.83252 0.68654 0.0
Mn22 Mn 0.053 0.87775 0.70331 0.0
O23 O 0.07276 0.76407 0.66696 0.0
Mn24 Mn 0.0104 0.78139 0.67366 0.0
O25 O 0.99594 0.91985 0.72082 0.0
O26 O 0.09513 0.91399 0.74509 0.0
Mn27 Mn 0.08246 0.97409 0.74606 0.0
O28 O 0.06993 0.92298 0.64829 0.0
O29 O 0.02147 0.97739 0.7681 0.0
O30 O 0.03531 0.83563 0.76028 0.0
O31 O 0.98815 0.77808 0.73458 0.0
O32 O 0.13477 0.96452 0.78412 0.0
O33 O 0.08936 0.99143 0.68372 0.0
C34 C 0.98514 0.83412 0.6255 0.0
C35 C 0.10909 0.78918 0.67403 0.0
C36 C 0.98871 0.95374 0.74933 0.0
C37 C 0.13055 0.92137 0.77148 0.0
C38 C 0.08241 0.96633 0.64735 0.0
C39 C 0.00678 0.80176 0.76741 0.0
O40 O 0.0114 0.84149 0.66103 0.0
O41 O 0.97253 0.79098 0.62121 0.0
O42 O 0.33251 0.81987 0.89877 0.0
Mn43 Mn 0.37794 0.80279 0.95363 0.0
O44 O 0.26439 0.83984 0.93455 0.0
Mn45 Mn 0.28211 0.83318 0.99683 0.0
O46 O 0.42015 0.78504 0.01052 0.0
O47 O 0.4136 0.76061 0.9114 0.0
Mn48 Mn 0.47374 0.75908 0.92391 0.0
O49 O 0.42361 0.85734 0.93631 0.0
O50 O 0.47704 0.73706 0.98491 0.0
O51 O 0.33547 0.7462 0.97169 0.0
O52 O 0.27856 0.77238 0.01934 0.0
O53 O 0.4637 0.72101 0.87174 0.0
O54 O 0.49168 0.82123 0.91682 0.0
C55 C 0.33527 0.8811 0.02159 0.0
C56 C 0.28922 0.83263 0.89805 0.0
C57 C 0.4537 0.75614 0.01771 0.0
C58 C 0.42068 0.73404 0.87604 0.0
C59 C 0.46694 0.85784 0.92371 0.0
C60 C 0.30184 0.73935 1.00058 0.0
O61 O 0.34229 0.84548 0.99536 0.0
O62 O 0.29223 0.88565 0.03448 0.0
O63 O 0.43667 0.08286 0.14844 0.0
Mn64 Mn 0.45357 0.12824 0.20337 0.0
O65 O 0.41692 0.01461 0.18405 0.0
Mn66 Mn 0.42368 0.03218 0.24636 0.0
O67 O 0.47119 0.17045 0.26025 0.0
O68 O 0.49551 0.16415 0.16116 0.0
Mn69 Mn 0.49682 0.22428 0.1736 0.0
O70 O 0.39877 0.17367 0.18619 0.0
O71 O 0.51885 0.22761 0.23461 0.0
O72 O 0.51039 0.08603 0.22127 0.0
O73 O 0.48456 0.02876 0.26868 0.0
O74 O 0.53483 0.21428 0.12133 0.0
O75 O 0.43455 0.24189 0.1666 0.0
C76 C 0.37569 0.08506 0.27155 0.0
C77 C 0.42405 0.03955 0.14761 0.0
C78 C 0.49991 0.20416 0.26742 0.0
C79 C 0.52195 0.17122 0.12573 0.0
C80 C 0.39806 0.21699 0.17357 0.0
C81 C 0.51744 0.05227 0.24998 0.0
O82 O 0.41113 0.09231 0.24513 0.0
O83 O 0.37135 0.04195 0.28428 0.0
O84 O 0.67332 0.31959 0.60803 0.0
Mn85 Mn 0.62789 0.30263 0.55319 0.0
O86 O 0.74165 0.33898 0.57235 0.0
Mn87 Mn 0.72408 0.33207 0.51006 0.0
O88 O 0.5856 0.28492 0.49637 0.0
O89 O 0.59173 0.2611 0.59564 0.0
Mn90 Mn 0.5316 0.26005 0.58307 0.0
O91 O 0.58274 0.35773 0.57002 0.0
O92 O 0.52822 0.23764 0.52221 0.0
O93 O 0.66993 0.24556 0.53556 0.0
O94 O 0.72725 0.27109 0.48801 0.0
O95 O 0.54125 0.22237 0.63564 0.0
O96 O 0.51428 0.32243 0.5896 0.0
C97 C 0.67122 0.38009 0.48481 0.0
C98 C 0.71668 0.33206 0.60881 0.0
C99 C 0.55178 0.25631 0.48933 0.0
C100 C 0.58439 0.23499 0.63129 0.0
C101 C 0.5394 0.35875 0.5825 0.0
C102 C 0.70367 0.23834 0.50688 0.0
O103 O 0.66398 0.34469 0.51126 0.0
O104 O 0.71431 0.38434 0.47201 0.0
O105 O 0.93632 0.42349 0.85755 0.0
Mn106 Mn 0.95327 0.37778 0.80296 0.0
O107 O 0.91689 0.49161 0.82147 0.0
Mn108 Mn 0.92356 0.47363 0.75926 0.0
O109 O 0.97094 0.33528 0.74628 0.0
O110 O 0.99509 0.34201 0.84552 0.0
Mn111 Mn 0.99633 0.28185 0.83313 0.0
O112 O 0.89838 0.33255 0.82022 0.0
O113 O 0.01861 0.27828 0.77223 0.0
O114 O 0.01014 0.41982 0.78495 0.0
O115 O 0.98444 0.47666 0.73692 0.0
O116 O 0.03417 0.29177 0.88552 0.0
O117 O 0.93403 0.2643 0.83994 0.0
C118 C 0.87543 0.4206 0.73461 0.0
C119 C 0.92387 0.46685 0.85808 0.0
C120 C 0.99972 0.30159 0.73929 0.0
C121 C 0.02139 0.33485 0.88108 0.0
C122 C 0.89758 0.28925 0.83289 0.0
C123 C 0.01726 0.45328 0.75592 0.0
O124 O 0.91096 0.41354 0.76095 0.0
O125 O 0.87112 0.4636 0.72151 0.0
O126 O 0.92371 0.64822 0.07047 0.0
Mn127 Mn 0.87838 0.70304 0.05318 0.0
O128 O 0.992 0.68392 0.09 0.0
Mn129 Mn 0.97444 0.74619 0.08299 0.0
O130 O 0.83622 0.75986 0.03515 0.0
O131 O 0.84246 0.66061 0.01142 0.0
Mn132 Mn 0.78232 0.67312 0.0101 0.0
O133 O 0.83291 0.68621 0.10806 0.0
O134 O 0.77897 0.73397 0.98772 0.0
O135 O 0.92068 0.7206 0.99631 0.0
O136 O 0.97781 0.76826 0.02201 0.0
O137 O 0.79219 0.62076 0.97223 0.0
O138 O 0.7647 0.6664 0.07239 0.0
C139 C 0.92144 0.77133 0.1309 0.0
C140 C 0.96703 0.64746 0.08311 0.0
C141 C 0.80251 0.76687 0.00638 0.0
C142 C 0.83528 0.62516 0.985 0.0
C143 C 0.7896 0.67357 0.10885 0.0
C144 C 0.95437 0.74935 0.98917 0.0
O145 O 0.9143 0.74496 0.09542 0.0
O146 O 0.96451 0.78417 0.13528 0.0
O147 O 0.60791 0.67307 0.32016 0.0
Mn148 Mn 0.55307 0.6277 0.30305 0.0
O149 O 0.5722 0.74124 0.34004 0.0
Mn150 Mn 0.50992 0.72362 0.33324 0.0
O151 O 0.49622 0.5855 0.28521 0.0
O152 O 0.59538 0.59194 0.26104 0.0
Mn153 Mn 0.58286 0.53182 0.25952 0.0
O154 O 0.57018 0.58211 0.35772 0.0
O155 O 0.52192 0.52857 0.23731 0.0
O156 O 0.53519 0.67009 0.24635 0.0
O157 O 0.4876 0.72715 0.27236 0.0
O158 O 0.63523 0.54185 0.22168 0.0
O159 O 0.58968 0.51397 0.32175 0.0
C160 C 0.48492 0.6705 0.38107 0.0
C161 C 0.60867 0.71636 0.33288 0.0
C162 C 0.48909 0.55192 0.25632 0.0
C163 C 0.63088 0.58487 0.23469 0.0
C164 C 0.58271 0.53877 0.35832 0.0
C165 C 0.5064 0.70379 0.2394 0.0
O166 O 0.51126 0.66345 0.34555 0.0
O167 O 0.47209 0.71356 0.3856 0.0
O168 O 0.18634 0.39792 0.17388 0.0
Mn169 Mn 0.20315 0.45307 0.12872 0.0
O170 O 0.16684 0.43321 0.24239 0.0
Mn171 Mn 0.17348 0.49559 0.22511 0.0
O172 O 0.22067 0.51024 0.08678 0.0
O173 O 0.24504 0.41108 0.09248 0.0
Mn174 Mn 0.24622 0.42395 0.03241 0.0
O175 O 0.14825 0.43612 0.08326 0.0
O176 O 0.26825 0.48496 0.0294 0.0
O177 O 0.26005 0.47074 0.17092 0.0
O178 O 0.23436 0.51794 0.22843 0.0
O179 O 0.2843 0.37165 0.04196 0.0
O180 O 0.18395 0.41701 0.01484 0.0
C181 C 0.12528 0.52084 0.17239 0.0
C182 C 0.17386 0.3969 0.21724 0.0
C183 C 0.24935 0.51762 0.05308 0.0
C184 C 0.2715 0.37572 0.08509 0.0
C185 C 0.14748 0.42376 0.03985 0.0
C186 C 0.26718 0.49932 0.20476 0.0
O187 O 0.16079 0.49458 0.16499 0.0
O188 O 0.12101 0.53342 0.21556 0.0
O189 O 0.68612 0.1079 0.83308 0.0
Mn190 Mn 0.70336 0.05281 0.87814 0.0
O191 O 0.66625 0.07257 0.7647 0.0
Mn192 Mn 0.67323 0.01023 0.78195 0.0
O193 O 0.72132 0.99576 0.92005 0.0
O194 O 0.7453 0.09499 0.91414 0.0
Mn195 Mn 0.74685 0.08217 0.97421 0.0
O196 O 0.64868 0.06961 0.92384 0.0
O197 O 0.76915 0.02127 0.97715 0.0
O198 O 0.76009 0.03527 0.83563 0.0
O199 O 0.73415 0.98806 0.77824 0.0
O200 O 0.78464 0.13461 0.96446 0.0
O201 O 0.68464 0.08887 0.99209 0.0
C202 C 0.62544 0.98472 0.83486 0.0
C203 C 0.67334 0.1089 0.7898 0.0
C204 C 0.75023 0.98852 0.9536 0.0
C205 C 0.77163 0.13047 0.9214 0.0
C206 C 0.64808 0.08198 0.96724 0.0
C207 C 0.76708 0.00673 0.80173 0.0
O208 O 0.66088 0.01112 0.84215 0.0
O209 O 0.62099 0.97219 0.79169 0.0
O210 O 0.82001 0.89809 0.33285 0.0
Mn211 Mn 0.80305 0.95288 0.37834 0.0
O212 O 0.83956 0.93386 0.2646 0.0
Mn213 Mn 0.83286 0.99611 0.28231 0.0
O214 O 0.78534 0.0097 0.42066 0.0
O215 O 0.76119 0.91052 0.41422 0.0
Mn216 Mn 0.75994 0.92297 0.47438 0.0
O217 O 0.8579 0.9357 0.4237 0.0
O218 O 0.73772 0.98388 0.47777 0.0
O219 O 0.7462 0.97079 0.33614 0.0
O220 O 0.77198 0.01847 0.27906 0.0
O221 O 0.72204 0.87065 0.46449 0.0
O222 O 0.82222 0.91609 0.49197 0.0
C223 C 0.88098 0.02097 0.33526 0.0
C224 C 0.83254 0.89737 0.2895 0.0
C225 C 0.75655 0.01675 0.45435 0.0
C226 C 0.73485 0.87503 0.4214 0.0
C227 C 0.85867 0.92307 0.46702 0.0
C228 C 0.73912 0.99963 0.3025 0.0
O229 O 0.84543 0.9947 0.34245 0.0
O230 O 0.88531 0.03386 0.29219 0.0
O231 O 0.35768 0.56959 0.58279 0.0
Mn232 Mn 0.3029 0.55254 0.62822 0.0
O233 O 0.32186 0.58908 0.51454 0.0
Mn234 Mn 0.25958 0.5826 0.53231 0.0
O235 O 0.2461 0.53469 0.67044 0.0
O236 O 0.34523 0.51057 0.66396 0.0
Mn237 Mn 0.33273 0.50889 0.72409 0.0
O238 O 0.32003 0.60716 0.67382 0.0
O239 O 0.27186 0.4865 0.72713 0.0
O240 O 0.28499 0.49585 0.58586 0.0
O241 O 0.23703 0.5218 0.52907 0.0
O242 O 0.38523 0.47124 0.71397 0.0
O243 O 0.33934 0.5711 0.74202 0.0
C244 C 0.23495 0.63071 0.58538 0.0
C245 C 0.35837 0.58204 0.53942 0.0
C246 C 0.23901 0.50558 0.70384 0.0
C247 C 0.38083 0.48434 0.67097 0.0
C248 C 0.33243 0.6077 0.71722 0.0
C249 C 0.25595 0.48887 0.55237 0.0
O250 O 0.26111 0.59507 0.59246 0.0
O251 O 0.22201 0.63516 0.54233 0.0
C252 C 0.22519 0.35452 0.52019 0.0
C253 C 0.2156 0.31444 0.51145 0.0
C254 C 0.23583 0.4015 0.53069 0.0
C255 C 0.24476 0.44154 0.54028 0.0
C256 C 0.85438 0.98672 0.77957 0.0
C257 C 0.81441 0.99566 0.78945 0.0
C258 C 0.90127 0.97582 0.76884 0.0
C259 C 0.94129 0.96594 0.7601 0.0
C260 C 0.27969 0.65209 0.02077 0.0
C261 C 0.28952 0.69206 0.01179 0.0
C262 C 0.26896 0.60516 0.03151 0.0
C263 C 0.26018 0.5651 0.04116 0.0
C264 C 0.60481 0.03036 0.26994 0.0
C265 C 0.5648 0.04011 0.26104 0.0
C266 C 0.65174 0.01962 0.28066 0.0
C267 C 0.69176 0.01071 0.29038 0.0
C268 C 0.7256 0.15093 0.48717 0.0
C269 C 0.71578 0.19093 0.496 0.0
C270 C 0.73648 0.10405 0.47638 0.0
C271 C 0.74548 0.0641 0.46653 0.0
C272 C 0.10467 0.47494 0.73605 0.0
C273 C 0.06463 0.46532 0.74489 0.0
C274 C 0.15162 0.4856 0.72546 0.0
C275 C 0.19165 0.49449 0.71586 0.0
C276 C 0.77007 0.90109 0.97527 0.0
C277 C 0.7612 0.94111 0.9656 0.0
C278 C 0.78075 0.85418 0.9861 0.0
C279 C 0.79043 0.81419 0.99515 0.0
C280 C 0.40163 0.52996 0.2368 0.0
C281 C 0.44169 0.53971 0.24548 0.0
C282 C 0.35464 0.51924 0.22634 0.0
C283 C 0.31458 0.51038 0.21677 0.0
C284 C 0.5194 0.22598 0.3549 0.0
C285 C 0.51074 0.2163 0.31483 0.0
C286 C 0.52993 0.23656 0.40191 0.0
C287 C 0.5396 0.24532 0.44197 0.0
C288 C 0.03003 0.26892 0.60488 0.0
C289 C 0.03976 0.26017 0.56483 0.0
C290 C 0.01943 0.27955 0.65188 0.0
C291 C 0.01068 0.28931 0.69193 0.0
C292 C 0.98698 0.77985 0.85482 0.0
C293 C 0.99583 0.78962 0.8148 0.0
C294 C 0.97627 0.76911 0.90175 0.0
C295 C 0.96651 0.76029 0.94178 0.0
C296 C 0.48638 0.72584 0.15208 0.0
C297 C 0.49529 0.71604 0.19208 0.0
C298 C 0.47561 0.73652 0.10515 0.0
C299 C 0.46584 0.74528 0.06511 0.0
C300 C 0.14095 0.29826 0.30831 0.0
C301 C 0.11964 0.283 0.34136 0.0
C302 C 0.15785 0.32367 0.26944 0.0
C303 C 0.16681 0.35302 0.2405 0.0
C304 C 0.95725 0.88985 0.55818 0.0
C305 C 0.97265 0.86859 0.59121 0.0
C306 C 0.93177 0.90676 0.51937 0.0
C307 C 0.90244 0.91584 0.49044 0.0
C308 C 0.34819 0.68063 0.76997 0.0
C309 C 0.33941 0.65134 0.74092 0.0
C310 C 0.36485 0.70618 0.80884 0.0
C311 C 0.38607 0.72166 0.84184 0.0
C312 C 0.54973 0.11515 0.05867 0.0
C313 C 0.53435 0.13656 0.0916 0.0
C314 C 0.57517 0.09816 0.01987 0.0
C315 C 0.60441 0.08916 0.99084 0.0
C316 C 0.6401 0.20748 0.69879 0.0
C317 C 0.61886 0.22271 0.66567 0.0
C318 C 0.65702 0.18211 0.73767 0.0
C319 C 0.66613 0.15277 0.76658 0.0
C320 C 0.07447 0.40751 0.98733 0.0
C321 C 0.10372 0.41653 0.01637 0.0
C322 C 0.04907 0.39067 0.94842 0.0
C323 C 0.03372 0.36943 0.91534 0.0
C324 C 0.84862 0.82437 0.23699 0.0
C325 C 0.83964 0.85364 0.26599 0.0
C326 C 0.86552 0.79896 0.19813 0.0
C327 C 0.88685 0.78365 0.16512 0.0
C328 C 0.43146 0.59775 0.4869 0.0
C329 C 0.4021 0.58896 0.51587 0.0
C330 C 0.45705 0.61449 0.4481 0.0
C331 C 0.47251 0.63579 0.41515 0.0
C332 C 0.26986 0.15758 0.32549 0.0
C333 C 0.24087 0.16644 0.35482 0.0
C334 C 0.30863 0.14085 0.29983 0.0
C335 C 0.34156 0.11963 0.2842 0.0
C336 C 0.11536 0.05753 0.54893 0.0
C337 C 0.13665 0.09067 0.53388 0.0
C338 C 0.09847 0.01859 0.57419 0.0
C339 C 0.0895 0.98962 0.6035 0.0
C340 C 0.19788 0.86572 0.79953 0.0
C341 C 0.16487 0.88694 0.78406 0.0
C342 C 0.23671 0.84882 0.82502 0.0
C343 C 0.2657 0.83977 0.8543 0.0
C344 C 0.40815 0.98714 0.07448 0.0
C345 C 0.41706 0.01612 0.10381 0.0
C346 C 0.39131 0.94828 0.04905 0.0
C347 C 0.36998 0.91525 0.03378 0.0
C348 C 0.80804 0.36475 0.70731 0.0
C349 C 0.84113 0.38601 0.72252 0.0
C350 C 0.76913 0.34798 0.68191 0.0
C351 C 0.74014 0.33909 0.65259 0.0
C352 C 0.90798 0.51949 0.93109 0.0
C353 C 0.91683 0.49053 0.90174 0.0
C354 C 0.89121 0.55821 0.95677 0.0
C355 C 0.86992 0.5911 0.97238 0.0
C356 C 0.73712 0.65763 0.18192 0.0
C357 C 0.76613 0.66657 0.15263 0.0
C358 C 0.69822 0.64077 0.20729 0.0
C359 C 0.66516 0.61947 0.22253 0.0
C360 C 0.61545 0.44731 0.45685 0.0
C361 C 0.63669 0.41432 0.47232 0.0
C362 C 0.59867 0.48613 0.43131 0.0
C363 C 0.58977 0.51514 0.40201 0.0
C364 C 0.29949 0.3083 0.14064 0.0
C365 C 0.28402 0.34135 0.11948 0.0
C366 C 0.32501 0.26946 0.15743 0.0
C367 C 0.35433 0.24049 0.16641 0.0
C368 C 0.82447 0.2369 0.84898 0.0
C369 C 0.8538 0.26585 0.84 0.0
C370 C 0.79906 0.19802 0.86577 0.0
C371 C 0.78381 0.16489 0.88695 0.0
C372 C 0.05804 0.54884 0.11662 0.0
C373 C 0.09102 0.53341 0.13792 0.0
C374 C 0.01929 0.57436 0.09963 0.0
C375 C 0.99041 0.6037 0.09047 0.0
C376 C 0.70716 0.80773 0.3656 0.0
C377 C 0.72252 0.84078 0.38683 0.0
C378 C 0.68172 0.76885 0.34882 0.0
C379 C 0.65242 0.73985 0.33989 0.0
C380 C 0.48718 0.43199 0.5982 0.0
C381 C 0.51613 0.40263 0.58937 0.0
C382 C 0.44825 0.45733 0.615 0.0
C383 C 0.41513 0.47241 0.63632 0.0
C384 C 0.20772 0.69809 0.64131 0.0
C385 C 0.22288 0.66499 0.62001 0.0
C386 C 0.18234 0.73698 0.65815 0.0
C387 C 0.15297 0.76592 0.66706 0.0
C388 C 0.51963 0.93073 0.90745 0.0
C389 C 0.49062 0.90146 0.91646 0.0
C390 C 0.5584 0.95634 0.89065 0.0
C391 C 0.59133 0.97198 0.86943 0.0
C392 C 0.94839 0.04845 0.39107 0.0
C393 C 0.9153 0.03319 0.36982 0.0
C394 C 0.98728 0.07386 0.40789 0.0
C395 C 0.01624 0.10318 0.41687 0.0
loop_
_geom_bond_atom_site_label_1
_geom_bond_atom_site_label_2
_geom_bond_distance
_geom_bond_site_symmetry_2
_ccdc_geom_bond_type
O0 Mn1 2.163 . S
O0 C14 1.244 . S
Mn1 O0 2.163 . S
Mn1 O4 2.160 . S
Mn1 O5 2.221 . S
Mn1 O7 2.163 . S
Mn1 O9 2.160 . S
Mn1 O19 2.221 . S
O2 Mn3 2.087 . S
O2 C14 1.256 . S
Mn3 O2 2.087 . S
Mn3 O10 2.089 . S
Mn3 O19 2.290 . S
Mn3 O20 2.251 . S
O4 Mn1 2.160 . S
O4 C15 1.239 . S
O5 Mn1 2.221 . S
O5 Mn6 2.290 . S
O5 C16 1.278 . S
Mn6 O5 2.290 . S
Mn6 O8 2.089 . S
Mn6 O11 2.251 . S
Mn6 O12 2.087 . S
O7 Mn1 2.163 . S
O7 C17 1.244 . S
O8 Mn6 2.089 . S
O8 C15 1.256 . S
O9 Mn1 2.160 . S
O9 C18 1.239 . S
O10 Mn3 2.089 . S
O10 C18 1.256 . S
O11 Mn6 2.251 . S
O11 C16 1.241 . S
O12 Mn6 2.087 . S
O12 C17 1.256 . S
C13 O19 1.278 . S
C13 O20 1.241 . S
C14 O0 1.244 . S
C14 O2 1.256 . S
C15 O4 1.239 . S
C15 O8 1.256 . S
C16 O5 1.278 . S
C16 O11 1.241 . S
C17 O7 1.244 . S
C17 O12 1.256 . S
C18 O9 1.239 . S
C18 O10 1.256 . S
O19 Mn1 2.221 . S
O19 Mn3 2.290 . S
O19 C13 1.278 . S
O20 Mn3 2.251 . S
O20 C13 1.241 . S
O21 Mn22 2.163 . S
O21 C35 1.244 . S
Mn22 O21 2.163 . S
Mn22 O25 2.160 1_455 S
Mn22 O26 2.221 . S
Mn22 O28 2.163 . S
Mn22 O30 2.160 . S
Mn22 O40 2.221 1_455 S
O23 Mn24 2.087 1_455 S
O23 C35 1.256 . S
Mn24 O23 2.087 1_655 S
Mn24 O31 2.089 1_655 S
Mn24 O40 2.290 . S
Mn24 O41 2.251 . S
O25 Mn22 2.160 1_655 S
O25 C36 1.239 . S
O26 Mn22 2.221 . S
O26 Mn27 2.290 . S
O26 C37 1.278 . S
Mn27 O26 2.290 . S
Mn27 O29 2.089 . S
Mn27 O32 2.251 . S
Mn27 O33 2.087 . S
O28 Mn22 2.163 . S
O28 C38 1.244 . S
O29 Mn27 2.089 . S
O29 C36 1.256 1_455 S
O30 Mn22 2.160 . S
O30 C39 1.239 . S
O31 Mn24 2.089 1_455 S
O31 C39 1.256 . S
O32 Mn27 2.251 . S
O32 C37 1.241 . S
O33 Mn27 2.087 . S
O33 C38 1.256 . S
C34 O40 1.278 . S
C34 O41 1.241 . S
C35 O21 1.244 . S
C35 O23 1.256 . S
C36 O25 1.239 . S
C36 O29 1.256 1_655 S
C37 O26 1.278 . S
C37 O32 1.241 . S
C38 O28 1.244 . S
C38 O33 1.256 . S
C39 O30 1.239 . S
C39 O31 1.256 . S
O40 Mn22 2.221 1_655 S
O40 Mn24 2.290 . S
O40 C34 1.278 . S
O41 Mn24 2.251 . S
O41 C34 1.241 . S
O42 Mn43 2.163 . S
O42 C56 1.244 . S
Mn43 O42 2.163 . S
Mn43 O46 2.160 1_556 S
Mn43 O47 2.221 . S
Mn43 O49 2.163 . S
Mn43 O51 2.160 . S
Mn43 O61 2.221 1_556 S
O44 Mn45 2.087 1_556 S
O44 C56 1.256 . S
Mn45 O44 2.087 1_554 S
Mn45 O52 2.089 1_554 S
Mn45 O61 2.290 . S
Mn45 O62 2.251 . S
O46 Mn43 2.160 1_554 S
O46 C57 1.239 . S
O47 Mn43 2.221 . S
O47 Mn48 2.290 . S
O47 C58 1.278 . S
Mn48 O47 2.290 . S
Mn48 O50 2.089 . S
Mn48 O53 2.251 . S
Mn48 O54 2.087 . S
O49 Mn43 2.163 . S
O49 C59 1.244 . S
O50 Mn48 2.089 . S
O50 C57 1.256 1_556 S
O51 Mn43 2.160 . S
O51 C60 1.239 . S
O52 Mn45 2.089 1_556 S
O52 C60 1.256 . S
O53 Mn48 2.251 . S
O53 C58 1.241 . S
O54 Mn48 2.087 . S
O54 C59 1.256 . S
C55 O61 1.278 . S
C55 O62 1.241 . S
C56 O42 1.244 . S
C56 O44 1.256 . S
C57 O46 1.239 . S
C57 O50 1.256 1_554 S
C58 O47 1.278 . S
C58 O53 1.241 . S
C59 O49 1.244 . S
C59 O54 1.256 . S
C60 O51 1.239 . S
C60 O52 1.256 . S
O61 Mn43 2.221 1_554 S
O61 Mn45 2.290 . S
O61 C55 1.278 . S
O62 Mn45 2.251 . S
O62 C55 1.241 . S
O63 Mn64 2.163 . S
O63 C77 1.244 . S
Mn64 O63 2.163 . S
Mn64 O67 2.160 . S
Mn64 O68 2.221 . S
Mn64 O70 2.163 . S
Mn64 O72 2.160 . S
Mn64 O82 2.221 . S
O65 Mn66 2.087 . S
O65 C77 1.256 . S
Mn66 O65 2.087 . S
Mn66 O73 2.089 . S
Mn66 O82 2.290 . S
Mn66 O83 2.251 . S
O67 Mn64 2.160 . S
O67 C78 1.239 . S
O68 Mn64 2.221 . S
O68 Mn69 2.290 . S
O68 C79 1.278 . S
Mn69 O68 2.290 . S
Mn69 O71 2.089 . S
Mn69 O74 2.251 . S
Mn69 O75 2.087 . S
O70 Mn64 2.163 . S
O70 C80 1.244 . S
O71 Mn69 2.089 . S
O71 C78 1.256 . S
O72 Mn64 2.160 . S
O72 C81 1.239 . S
O73 Mn66 2.089 . S
O73 C81 1.256 . S
O74 Mn69 2.251 . S
O74 C79 1.241 . S
O75 Mn69 2.087 . S
O75 C80 1.256 . S
C76 O82 1.278 . S
C76 O83 1.241 . S
C77 O63 1.244 . S
C77 O65 1.256 . S
C78 O67 1.239 . S
C78 O71 1.256 . S
C79 O68 1.278 . S
C79 O74 1.241 . S
C80 O70 1.244 . S
C80 O75 1.256 . S
C81 O72 1.239 . S
C81 O73 1.256 . S
O82 Mn64 2.221 . S
O82 Mn66 2.290 . S
O82 C76 1.278 . S
O83 Mn66 2.251 . S
O83 C76 1.241 . S
O84 Mn85 2.163 . S
O84 C98 1.244 . S
Mn85 O84 2.163 . S
Mn85 O88 2.160 . S
Mn85 O89 2.221 . S
Mn85 O91 2.163 . S
Mn85 O93 2.160 . S
Mn85 O103 2.221 . S
O86 Mn87 2.087 . S
O86 C98 1.256 . S
Mn87 O86 2.087 . S
Mn87 O94 2.089 . S
Mn87 O103 2.290 . S
Mn87 O104 2.251 . S
O88 Mn85 2.160 . S
O88 C99 1.239 . S
O89 Mn85 2.221 . S
O89 Mn90 2.290 . S
O89 C100 1.278 . S
Mn90 O89 2.290 . S
Mn90 O92 2.089 . S
Mn90 O95 2.251 . S
Mn90 O96 2.087 . S
O91 Mn85 2.163 . S
O91 C101 1.244 . S
O92 Mn90 2.089 . S
O92 C99 1.256 . S
O93 Mn85 2.160 . S
O93 C102 1.239 . S
O94 Mn87 2.089 . S
O94 C102 1.256 . S
O95 Mn90 2.251 . S
O95 C100 1.241 . S
O96 Mn90 2.087 . S
O96 C101 1.256 . S
C97 O103 1.278 . S
C97 O104 1.241 . S
C98 O84 1.244 . S
C98 O86 1.256 . S
C99 O88 1.239 . S
C99 O92 1.256 . S
C100 O89 1.278 . S
C100 O95 1.241 . S
C101 O91 1.244 . S
C101 O96 1.256 . S
C102 O93 1.239 . S
C102 O94 1.256 . S
O103 Mn85 2.221 . S
O103 Mn87 2.290 . S
O103 C97 1.278 . S
O104 Mn87 2.251 . S
O104 C97 1.241 . S
O105 Mn106 2.163 . S
O105 C119 1.244 . S
Mn106 O105 2.163 . S
Mn106 O109 2.160 . S
Mn106 O110 2.221 1_655 S
Mn106 O112 2.163 . S
Mn106 O114 2.160 1_655 S
Mn106 O124 2.221 . S
O107 Mn108 2.087 . S
O107 C119 1.256 . S
Mn108 O107 2.087 . S
Mn108 O115 2.089 . S
Mn108 O124 2.290 . S
Mn108 O125 2.251 . S
O109 Mn106 2.160 . S
O109 C120 1.239 . S
O110 Mn106 2.221 1_455 S
O110 Mn111 2.290 . S
O110 C121 1.278 . S
Mn111 O110 2.290 . S
Mn111 O113 2.089 1_455 S
Mn111 O116 2.251 . S
Mn111 O117 2.087 1_455 S
O112 Mn106 2.163 . S
O112 C122 1.244 . S
O113 Mn111 2.089 1_655 S
O113 C120 1.256 . S
O114 Mn106 2.160 1_455 S
O114 C123 1.239 . S
O115 Mn108 2.089 . S
O115 C123 1.256 1_655 S
O116 Mn111 2.251 . S
O116 C121 1.241 . S
O117 Mn111 2.087 1_655 S
O117 C122 1.256 . S
C118 O124 1.278 . S
C118 O125 1.241 . S
C119 O105 1.244 . S
C119 O107 1.256 . S
C120 O109 1.239 . S
C120 O113 1.256 . S
C121 O110 1.278 . S
C121 O116 1.241 . S
C122 O112 1.244 . S
C122 O117 1.256 . S
C123 O114 1.239 . S
C123 O115 1.256 1_455 S
O124 Mn106 2.221 . S
O124 Mn108 2.290 . S
O124 C118 1.278 . S
O125 Mn108 2.251 . S
O125 C118 1.241 . S
O126 Mn127 2.163 . S
O126 C140 1.244 . S
Mn127 O126 2.163 . S
Mn127 O130 2.160 . S
Mn127 O131 2.221 1_554 S
Mn127 O133 2.163 . S
Mn127 O135 2.160 1_554 S
Mn127 O145 2.221 . S
O128 Mn129 2.087 . S
O128 C140 1.256 . S
Mn129 O128 2.087 . S
Mn129 O136 2.089 . S
Mn129 O145 2.290 . S
Mn129 O146 2.251 . S
O130 Mn127 2.160 . S
O130 C141 1.239 . S
O131 Mn127 2.221 1_556 S
O131 Mn132 2.290 . S
O131 C142 1.278 . S
Mn132 O131 2.290 . S
Mn132 O134 2.089 1_556 S
Mn132 O137 2.251 . S
Mn132 O138 2.087 1_556 S
O133 Mn127 2.163 . S
O133 C143 1.244 . S
O134 Mn132 2.089 1_554 S
O134 C141 1.256 . S
O135 Mn127 2.160 1_556 S
O135 C144 1.239 . S
O136 Mn129 2.089 . S
O136 C144 1.256 1_554 S
O137 Mn132 2.251 . S
O137 C142 1.241 . S
O138 Mn132 2.087 1_554 S
O138 C143 1.256 . S
C139 O145 1.278 . S
C139 O146 1.241 . S
C140 O126 1.244 . S
C140 O128 1.256 . S
C141 O130 1.239 . S
C141 O134 1.256 . S
C142 O131 1.278 . S
C142 O137 1.241 . S
C143 O133 1.244 . S
C143 O138 1.256 . S
C144 O135 1.239 . S
C144 O136 1.256 1_556 S
O145 Mn127 2.221 . S
O145 Mn129 2.290 . S
O145 C139 1.278 . S
O146 Mn129 2.251 . S
O146 C139 1.241 . S
O147 Mn148 2.163 . S
O147 C161 1.244 . S
Mn148 O147 2.163 . S
Mn148 O151 2.160 . S
Mn148 O152 2.221 . S
Mn148 O154 2.163 . S
Mn148 O156 2.160 . S
Mn148 O166 2.221 . S
O149 Mn150 2.087 . S
O149 C161 1.256 . S
Mn150 O149 2.087 . S
Mn150 O157 2.089 . S
Mn150 O166 2.290 . S
Mn150 O167 2.251 . S
O151 Mn148 2.160 . S
O151 C162 1.239 . S
O152 Mn148 2.221 . S
O152 Mn153 2.290 . S
O152 C163 1.278 . S
Mn153 O152 2.290 . S
Mn153 O155 2.089 . S
Mn153 O158 2.251 . S
Mn153 O159 2.087 . S
O154 Mn148 2.163 . S
O154 C164 1.244 . S
O155 Mn153 2.089 . S
O155 C162 1.256 . S
O156 Mn148 2.160 . S
O156 C165 1.239 . S
O157 Mn150 2.089 . S
O157 C165 1.256 . S
O158 Mn153 2.251 . S
O158 C163 1.241 . S
O159 Mn153 2.087 . S
O159 C164 1.256 . S
C160 O166 1.278 . S
C160 O167 1.241 . S
C161 O147 1.244 . S
C161 O149 1.256 . S
C162 O151 1.239 . S
C162 O155 1.256 . S
C163 O152 1.278 . S
C163 O158 1.241 . S
C164 O154 1.244 . S
C164 O159 1.256 . S
C165 O156 1.239 . S
C165 O157 1.256 . S
O166 Mn148 2.221 . S
O166 Mn150 2.290 . S
O166 C160 1.278 . S
O167 Mn150 2.251 . S
O167 C160 1.241 . S
O168 Mn169 2.163 . S
O168 C182 1.244 . S
Mn169 O168 2.163 . S
Mn169 O172 2.160 . S
Mn169 O173 2.221 . S
Mn169 O175 2.163 . S
Mn169 O177 2.160 . S
Mn169 O187 2.221 . S
O170 Mn171 2.087 . S
O170 C182 1.256 . S
Mn171 O170 2.087 . S
Mn171 O178 2.089 . S
Mn171 O187 2.290 . S
Mn171 O188 2.251 . S
O172 Mn169 2.160 . S
O172 C183 1.239 . S
O173 Mn169 2.221 . S
O173 Mn174 2.290 . S
O173 C184 1.278 . S
Mn174 O173 2.290 . S
Mn174 O176 2.089 . S
Mn174 O179 2.251 . S
Mn174 O180 2.087 . S
O175 Mn169 2.163 . S
O175 C185 1.244 . S
O176 Mn174 2.089 . S
O176 C183 1.256 . S
O177 Mn169 2.160 . S
O177 C186 1.239 . S
O178 Mn171 2.089 . S
O178 C186 1.256 . S
O179 Mn174 2.251 . S
O179 C184 1.241 . S
O180 Mn174 2.087 . S
O180 C185 1.256 . S
C181 O187 1.278 . S
C181 O188 1.241 . S
C182 O168 1.244 . S
C182 O170 1.256 . S
C183 O172 1.239 . S
C183 O176 1.256 . S
C184 O173 1.278 . S
C184 O179 1.241 . S
C185 O175 1.244 . S
C185 O180 1.256 . S
C186 O177 1.239 . S
C186 O178 1.256 . S
O187 Mn169 2.221 . S
O187 Mn171 2.290 . S
O187 C181 1.278 . S
O188 Mn171 2.251 . S
O188 C181 1.241 . S
O189 Mn190 2.163 . S
O189 C203 1.244 . S
Mn190 O189 2.163 . S
Mn190 O193 2.160 1_545 S
Mn190 O194 2.221 . S
Mn190 O196 2.163 . S
Mn190 O198 2.160 . S
Mn190 O208 2.221 1_545 S
O191 Mn192 2.087 1_545 S
O191 C203 1.256 . S
Mn192 O191 2.087 1_565 S
Mn192 O199 2.089 1_565 S
Mn192 O208 2.290 . S
Mn192 O209 2.251 . S
O193 Mn190 2.160 1_565 S
O193 C204 1.239 . S
O194 Mn190 2.221 . S
O194 Mn195 2.290 . S
O194 C205 1.278 . S
Mn195 O194 2.290 . S
Mn195 O197 2.089 . S
Mn195 O200 2.251 . S
Mn195 O201 2.087 . S
O196 Mn190 2.163 . S
O196 C206 1.244 . S
O197 Mn195 2.089 . S
O197 C204 1.256 1_545 S
O198 Mn190 2.160 . S
O198 C207 1.239 . S
O199 Mn192 2.089 1_545 S
O199 C207 1.256 . S
O200 Mn195 2.251 . S
O200 C205 1.241 . S
O201 Mn195 2.087 . S
O201 C206 1.256 . S
C202 O208 1.278 . S
C202 O209 1.241 . S
C203 O189 1.244 . S
C203 O191 1.256 . S
C204 O193 1.239 . S
C204 O197 1.256 1_565 S
C205 O194 1.278 . S
C205 O200 1.241 . S
C206 O196 1.244 . S
C206 O201 1.256 . S
C207 O198 1.239 . S
C207 O199 1.256 . S
O208 Mn190 2.221 1_565 S
O208 Mn192 2.290 . S
O208 C202 1.278 . S
O209 Mn192 2.251 . S
O209 C202 1.241 . S
O210 Mn211 2.163 . S
O210 C224 1.244 . S
Mn211 O210 2.163 . S
Mn211 O214 2.160 1_565 S
Mn211 O215 2.221 . S
Mn211 O217 2.163 . S
Mn211 O219 2.160 . S
Mn211 O229 2.221 1_565 S
O212 Mn213 2.087 1_565 S
O212 C224 1.256 . S
Mn213 O212 2.087 1_545 S
Mn213 O220 2.089 1_545 S
Mn213 O229 2.290 . S
Mn213 O230 2.251 . S
O214 Mn211 2.160 1_545 S
O214 C225 1.239 . S
O215 Mn211 2.221 . S
O215 Mn216 2.290 . S
O215 C226 1.278 . S
Mn216 O215 2.290 . S
Mn216 O218 2.089 . S
Mn216 O221 2.251 . S
Mn216 O222 2.087 . S
O217 Mn211 2.163 . S
O217 C227 1.244 . S
O218 Mn216 2.089 . S
O218 C225 1.256 1_565 S
O219 Mn211 2.160 . S
O219 C228 1.239 . S
O220 Mn213 2.089 1_565 S
O220 C228 1.256 . S
O221 Mn216 2.251 . S
O221 C226 1.241 . S
O222 Mn216 2.087 . S
O222 C227 1.256 . S
C223 O229 1.278 . S
C223 O230 1.241 . S
C224 O210 1.244 . S
C224 O212 1.256 . S
C225 O214 1.239 . S
C225 O218 1.256 1_545 S
C226 O215 1.278 . S
C226 O221 1.241 . S
C227 O217 1.244 . S
C227 O222 1.256 . S
C228 O219 1.239 . S
C228 O220 1.256 . S
O229 Mn211 2.221 1_545 S
O229 Mn213 2.290 . S
O229 C223 1.278 . S
O230 Mn213 2.251 . S
O230 C223 1.241 . S
O231 Mn232 2.163 . S
O231 C245 1.244 . S
Mn232 O231 2.163 . S
Mn232 O235 2.160 . S
Mn232 O236 2.221 . S
Mn232 O238 2.163 . S
Mn232 O240 2.160 . S
Mn232 O250 2.221 . S
O233 Mn234 2.087 . S
O233 C245 1.256 . S
Mn234 O233 2.087 . S
Mn234 O241 2.089 . S
Mn234 O250 2.290 . S
Mn234 O251 2.251 . S
O235 Mn232 2.160 . S
O235 C246 1.239 . S
O236 Mn232 2.221 . S
O236 Mn237 2.290 . S
O236 C247 1.278 . S
Mn237 O236 2.290 . S
Mn237 O239 2.089 . S
Mn237 O242 2.251 . S
Mn237 O243 2.087 . S
O238 Mn232 2.163 . S
O238 C248 1.244 . S
O239 Mn237 2.089 . S
O239 C246 1.256 . S
O240 Mn232 2.160 . S
O240 C249 1.239 . S
O241 Mn234 2.089 . S
O241 C249 1.256 . S
O242 Mn237 2.251 . S
O242 C247 1.241 . S
O243 Mn237 2.087 . S
O243 C248 1.256 . S
C244 O250 1.278 . S
C244 O251 1.241 . S
C245 O231 1.244 . S
C245 O233 1.256 . S
C246 O235 1.239 . S
C246 O239 1.256 . S
C247 O236 1.278 . S
C247 O242 1.241 . S
C248 O238 1.244 . S
C248 O243 1.256 . S
C249 O240 1.239 . S
C249 O241 1.256 . S
O250 Mn232 2.221 . S
O250 Mn234 2.290 . S
O250 C244 1.278 . S
O251 Mn234 2.251 . S
O251 C244 1.241 . S
C252 C253 1.170 . S
C252 C254 1.380 . S
C253 C252 1.170 . S
C254 C252 1.380 . S
C254 C255 1.170 . S
C255 C254 1.170 . S
C256 C257 1.170 1_565 S
C256 C258 1.380 . S
C257 C256 1.170 1_545 S
C258 C256 1.380 . S
C258 C259 1.170 . S
C259 C258 1.170 . S
C260 C261 1.170 . S
C260 C262 1.380 . S
C261 C260 1.170 . S
C262 C260 1.380 . S
C262 C263 1.170 . S
C263 C262 1.170 . S
C264 C265 1.170 . S
C264 C266 1.380 . S
C265 C264 1.170 . S
C266 C264 1.380 . S
C266 C267 1.170 . S
C267 C266 1.170 . S
C268 C269 1.170 . S
C268 C270 1.380 . S
C269 C268 1.170 . S
C270 C268 1.380 . S
C270 C271 1.170 . S
C271 C270 1.170 . S
C272 C273 1.170 . S
C272 C274 1.380 . S
C273 C272 1.170 . S
C274 C272 1.380 . S
C274 C275 1.170 . S
C275 C274 1.170 . S
C276 C277 1.170 . S
C276 C278 1.380 . S
C277 C276 1.170 . S
C278 C276 1.380 . S
C278 C279 1.170 . S
C279 C278 1.170 . S
C280 C281 1.170 . S
C280 C282 1.380 . S
C281 C280 1.170 . S
C282 C280 1.380 . S
C282 C283 1.170 . S
C283 C282 1.170 . S
C284 C285 1.170 . S
C284 C286 1.380 . S
C285 C284 1.170 . S
C286 C284 1.380 . S
C286 C287 1.170 . S
C287 C286 1.170 . S
C288 C289 1.170 . S
C288 C290 1.380 . S
C289 C288 1.170 . S
C290 C288 1.380 . S
C290 C291 1.170 . S
C291 C290 1.170 . S
C292 C293 1.170 . S
C292 C294 1.380 . S
C293 C292 1.170 . S
C294 C292 1.380 . S
C294 C295 1.170 . S
C295 C294 1.170 . S
C296 C297 1.170 . S
C296 C298 1.380 . S
C297 C296 1.170 . S
C298 C296 1.380 . S
C298 C299 1.170 . S
C299 C298 1.170 . S
C300 C301 1.170 . S
C300 C302 1.380 . S
C301 C300 1.170 . S
C302 C300 1.380 . S
C302 C303 1.170 . S
C303 C302 1.170 . S
C304 C305 1.170 . S
C304 C306 1.380 . S
C305 C304 1.170 . S
C306 C304 1.380 . S
C306 C307 1.170 . S
C307 C306 1.170 . S
C308 C309 1.170 . S
C308 C310 1.380 . S
C309 C308 1.170 . S
C310 C308 1.380 . S
C310 C311 1.170 . S
C311 C310 1.170 . S
C312 C313 1.170 . S
C312 C314 1.380 . S
C313 C312 1.170 . S
C314 C312 1.380 . S
C314 C315 1.170 1_554 S
C315 C314 1.170 1_556 S
C316 C317 1.170 . S
C316 C318 1.380 . S
C317 C316 1.170 . S
C318 C316 1.380 . S
C318 C319 1.170 . S
C319 C318 1.170 . S
C320 C321 1.170 1_556 S
C320 C322 1.380 . S
C321 C320 1.170 1_554 S
C322 C320 1.380 . S
C322 C323 1.170 . S
C323 C322 1.170 . S
C324 C325 1.170 . S
C324 C326 1.380 . S
C325 C324 1.170 . S
C326 C324 1.380 . S
C326 C327 1.170 . S
C327 C326 1.170 . S
C328 C329 1.170 . S
C328 C330 1.380 . S
C329 C328 1.170 . S
C330 C328 1.380 . S
C330 C331 1.170 . S
C331 C330 1.170 . S
C332 C333 1.170 . S
C332 C334 1.380 . S
C333 C332 1.170 . S
C334 C332 1.380 . S
C334 C335 1.170 . S
C335 C334 1.170 . S
C336 C337 1.170 . S
C336 C338 1.380 . S
C337 C336 1.170 . S
C338 C336 1.380 . S
C338 C339 1.170 1_545 S
C339 C338 1.170 1_565 S
C340 C341 1.170 . S
C340 C342 1.380 . S
C341 C340 1.170 . S
C342 C340 1.380 . S
C342 C343 1.170 . S
C343 C342 1.170 . S
C344 C345 1.170 1_565 S
C344 C346 1.380 . S
C345 C344 1.170 1_545 S
C346 C344 1.380 . S
C346 C347 1.170 . S
C347 C346 1.170 . S
C348 C349 1.170 . S
C348 C350 1.380 . S
C349 C348 1.170 . S
C350 C348 1.380 . S
C350 C351 1.170 . S
C351 C350 1.170 . S
C352 C353 1.170 . S
C352 C354 1.380 . S
C353 C352 1.170 . S
C354 C352 1.380 . S
C354 C355 1.170 . S
C355 C354 1.170 . S
C356 C357 1.170 . S
C356 C358 1.380 . S
C357 C356 1.170 . S
C358 C356 1.380 . S
C358 C359 1.170 . S
C359 C358 1.170 . S
C360 C361 1.170 . S
C360 C362 1.380 . S
C361 C360 1.170 . S
C362 C360 1.380 . S
C362 C363 1.170 . S
C363 C362 1.170 . S
C364 C365 1.170 . S
C364 C366 1.380 . S
C365 C364 1.170 . S
C366 C364 1.380 . S
C366 C367 1.170 . S
C367 C366 1.170 . S
C368 C369 1.170 . S
C368 C370 1.380 . S
C369 C368 1.170 . S
C370 C368 1.380 . S
C370 C371 1.170 . S
C371 C370 1.170 . S
C372 C373 1.170 . S
C372 C374 1.380 . S
C373 C372 1.170 . S
C374 C372 1.380 . S
C374 C375 1.170 1_455 S
C375 C374 1.170 1_655 S
C376 C377 1.170 . S
C376 C378 1.380 . S
C377 C376 1.170 . S
C378 C376 1.380 . S
C378 C379 1.170 . S
C379 C378 1.170 . S
C380 C381 1.170 . S
C380 C382 1.380 . S
C381 C380 1.170 . S
C382 C380 1.380 . S
C382 C383 1.170 . S
C383 C382 1.170 . S
C384 C385 1.170 . S
C384 C386 1.380 . S
C385 C384 1.170 . S
C386 C384 1.380 . S
C386 C387 1.170 . S
C387 C386 1.170 . S
C388 C389 1.170 . S
C388 C390 1.380 . S
C389 C388 1.170 . S
C390 C388 1.380 . S
C390 C391 1.170 . S
C391 C390 1.170 . S
C392 C393 1.170 . S
C392 C394 1.380 . S
C393 C392 1.170 . S
C394 C392 1.380 . S
C394 C395 1.170 1_655 S
C395 C394 1.170 1_455 S
C253 C15 1.631 . S
C255 C249 1.637 . S
C257 C207 1.641 . S
C259 C36 1.639 . S
C261 C60 1.641 1_554 S
C263 C183 1.628 . S
C265 C81 1.629 . S
C267 C228 1.640 1_545 S
C269 C102 1.638 . S
C271 C225 1.642 . S
C273 C123 1.631 . S
C275 C246 1.636 . S
C277 C204 1.633 . S
C279 C141 1.634 1_556 S
C281 C162 1.642 . S
C283 C186 1.638 . S
C285 C78 1.635 . S
C287 C99 1.645 . S
C289 C18 1.629 . S
C291 C120 1.646 1_455 S
C293 C39 1.645 1_655 S
C295 C144 1.633 . S
C297 C165 1.644 . S
C299 C57 1.628 . S
C301 C13 1.230 . S
C303 C182 1.280 . S
C305 C34 1.186 . S
C307 C227 1.269 . S
C309 C248 1.243 . S
C311 C58 1.235 . S
C313 C79 1.237 . S
C315 C206 1.244 . S
C317 C100 1.189 . S
C319 C203 1.277 . S
C321 C185 1.283 . S
C323 C121 1.199 . S
C325 C224 1.278 . S
C327 C139 1.190 . S
C329 C245 1.270 . S
C331 C160 1.243 . S
C333 C17 1.243 . S
C335 C76 1.233 . S
C337 C16 1.233 . S
C339 C38 1.278 . S
C341 C37 1.189 . S
C343 C56 1.259 . S
C345 C77 1.282 . S
C347 C55 1.226 . S
C349 C118 1.237 . S
C351 C98 1.276 . S
C353 C119 1.247 . S
C355 C142 1.242 . S
C357 C143 1.284 . S
C359 C163 1.213 . S
C361 C97 1.248 . S
C363 C164 1.257 . S
C365 C184 1.245 . S
C367 C80 1.249 . S
C369 C122 1.269 . S
C371 C205 1.186 . S
C373 C181 1.187 . S
C375 C140 1.262 . S
C377 C226 1.204 . S
C379 C161 1.284 . S
C381 C101 1.283 . S
C383 C247 1.221 . S
C385 C244 1.226 . S
C387 C35 1.281 . S
C389 C59 1.245 . S
C391 C202 1.207 . S
C393 C223 1.209 . S
C395 C14 1.285 . S
