# Generated by pormake.
# Topology bcg, (8)-cn, num edge types: 1
# Building blocks:
#     Node 0, Type 0, BuildingBlock: HISSIN_clean_sbu_1, # of connection points: 8
#     Node 1, Type 0, BuildingBlock: HISSIN_clean_sbu_1, # of connection points: 8
#     Node 2, Type 0, BuildingBlock: HISSIN_clean_sbu_1, # of connection points: 8
#     Node 3, Type 0, BuildingBlock: HISSIN_clean_sbu_1, # of connection points: 8
#     Edge 4, Type (0, 0), BuildingBlock: FUNLAD_clean_linker_1, # of connection points: 2
#     Edge 5, Type (0, 0), BuildingBlock: FUNLAD_clean_linker_1, # of connection points: 2
#     Edge 6, Type (0, 0), BuildingBlock: FUNLAD_clean_linker_1, # of connection points: 2
#     Edge 7, Type (0, 0), BuildingBlock: FUNLAD_clean_linker_1, # of connection points: 2
#     Edge 8, Type (0, 0), BuildingBlock: FUNLAD_clean_linker_1, # of connection points: 2
#     Edge 9, Type (0, 0), BuildingBlock: FUNLAD_clean_linker_1, # of connection points: 2
#     Edge 10, Type (0, 0), BuildingBlock: FUNLAD_clean_linker_1, # of connection points: 2
#     Edge 11, Type (0, 0), BuildingBlock: FUNLAD_clean_linker_1, # of connection points: 2
#     Edge 12, Type (0, 0), BuildingBlock: FUNLAD_clean_linker_1, # of connection points: 2
#     Edge 13, Type (0, 0), BuildingBlock: FUNLAD_clean_linker_1, # of connection points: 2
#     Edge 14, Type (0, 0), BuildingBlock: FUNLAD_clean_linker_1, # of connection points: 2
#     Edge 15, Type (0, 0), BuildingBlock: FUNLAD_clean_linker_1, # of connection points: 2
#     Edge 16, Type (0, 0), BuildingBlock: FUNLAD_clean_linker_1, # of connection points: 2
#     Edge 17, Type (0, 0), BuildingBlock: FUNLAD_clean_linker_1, # of connection points: 2
#     Edge 18, Type (0, 0), BuildingBlock: FUNLAD_clean_linker_1, # of connection points: 2
#     Edge 19, Type (0, 0), BuildingBlock: FUNLAD_clean_linker_1, # of connection points: 2
# Relax obj value: 0.164
# Max RMSD: 0.231
# Mean RMSD: 0.231
data_MOF--net-bcg--node1-HISSIN_clean_sbu_1--edge1-FUNLAD_clean_linker_1
_symmetry_space_group_name_H-M    P1
_symmetry_Int_Tables_number       1
_symmetry_cell_setting            triclinic
loop_
_symmetry_equiv_pos_as_xyz
'x, y, z'
_cell_length_a     22.720658
_cell_length_b     18.774645
_cell_length_c     34.45464
_cell_angle_alpha  80.53022
_cell_angle_beta   89.209495
_cell_angle_gamma 89.22599
loop_
_atom_site_label
_atom_site_type_symbol
_atom_site_fract_x
_atom_site_fract_y
_atom_site_fract_z
_atom_type_partial_charge
Eu0 Eu 0.3549 0.22135 0.99018 0.0
C1 C 0.31434 0.38877 0.98743 0.0
O2 O 0.41413 0.19289 0.04221 0.0
C3 C 0.07007 0.34837 0.07291 0.0
C4 C 0.95588 0.32556 0.10304 0.0
C5 C 0.02339 0.34252 0.04751 0.0
C6 C 0.96598 0.33212 0.06231 0.0
C7 C 0.05953 0.34301 0.11351 0.0
C8 C 1.00207 0.33137 0.12887 0.0
Eu9 Eu 0.17951 0.3571 0.98893 0.0
O10 O 0.27354 0.15151 0.99086 0.0
O11 O 0.11662 0.36393 0.93871 0.0
O12 O 0.26338 0.42233 0.97929 0.0
O13 O 0.23414 0.25993 0.98331 0.0
C14 C 0.12632 0.41062 0.90658 0.0
O15 O 0.16952 0.4567 0.90579 0.0
O16 O 0.15333 0.2986 0.046 0.0
C17 C 0.13019 0.35675 0.05709 0.0
C18 C 0.39188 0.20047 0.07665 0.0
O19 O 0.33703 0.22285 0.07869 0.0
O20 O 0.1403 0.41646 0.03201 0.0
O21 O 0.31382 0.3231 0.00798 0.0
C22 C 0.41146 0.2381 0.9234 0.0
O23 O 0.37831 0.28894 0.93476 0.0
C24 C 0.47006 0.26013 0.90789 0.0
C25 C 0.58082 0.30422 0.87743 0.0
C26 C 0.51416 0.27623 0.93314 0.0
C27 C 0.57008 0.29716 0.9181 0.0
C28 C 0.4822 0.26416 0.86752 0.0
C29 C 0.53791 0.28604 0.85219 0.0
C30 C 0.22516 0.19064 0.98888 0.0
O31 O 0.40914 0.17622 0.94761 0.0
H32 H 0.91201 0.31441 0.11502 0.0
H33 H 0.03188 0.34592 0.01619 0.0
H34 H 0.09634 0.34583 0.1328 0.0
H35 H 0.62322 0.32273 0.86524 0.0
H36 H 0.50505 0.2719 0.96442 0.0
H37 H 0.44821 0.251 0.84818 0.0
Eu38 Eu 0.83655 0.7046 0.02748 0.0
C39 C 0.84942 0.8728 0.99775 0.0
O40 O 0.87092 0.68086 0.08929 0.0
C41 C 0.60408 0.82208 0.05958 0.0
C42 C 0.49885 0.78891 0.10237 0.0
C43 C 0.55359 0.80264 0.04061 0.0
C44 C 0.50039 0.7869 0.06164 0.0
C45 C 0.60125 0.82424 0.10023 0.0
C46 C 0.54869 0.8086 0.12188 0.0
Eu47 Eu 0.72334 0.81469 0.97847 0.0
O48 O 0.74919 0.64671 0.032 0.0
O49 O 0.68001 0.84884 0.91955 0.0
O50 O 0.81089 0.87143 0.96982 0.0
O51 O 0.71311 0.69876 0.97213 0.0
C52 C 0.71352 0.8705 0.88851 0.0
O53 O 0.77048 0.87519 0.89305 0.0
O54 O 0.70366 0.79711 0.04164 0.0
C55 C 0.6594 0.84364 0.0374 0.0
C56 C 0.83464 0.65957 0.11883 0.0
O57 O 0.77918 0.64867 0.11173 0.0
O58 O 0.65433 0.87856 0.00116 0.0
O59 O 0.85027 0.8228 0.02928 0.0
C60 C 0.90896 0.65779 0.97795 0.0
O61 O 0.87059 0.7104 0.96726 0.0
C62 C 0.96875 0.66396 0.96 0.0
C63 C 0.08255 0.6545 0.92836 0.0
C64 C 1.01821 0.68103 0.981 0.0
C65 C 0.07557 0.67767 0.96501 0.0
C66 C 0.97694 0.64515 0.92238 0.0
C67 C 0.03382 0.63968 0.9067 0.0
C68 C 0.7126 0.64698 0.00272 0.0
O69 O 0.90488 0.62918 0.01539 0.0
H70 H 0.4594 0.77268 0.11923 0.0
H71 H 0.55541 0.80088 0.00932 0.0
H72 H 0.63993 0.83929 0.11496 0.0
H73 H 0.12606 0.6467 0.91645 0.0
H74 H 1.01214 0.69578 0.00993 0.0
H75 H 0.93937 0.63106 0.90621 0.0
Eu76 Eu 0.34956 0.82878 0.48791 0.0
C77 C 0.32182 0.65247 0.51472 0.0
O78 O 0.39886 0.82973 0.43021 0.0
C79 C 0.07658 0.68892 0.44775 0.0
C80 C 0.96979 0.72937 0.41065 0.0
C81 C 0.03282 0.72315 0.46736 0.0
C82 C 0.97894 0.74282 0.44908 0.0
C83 C 0.06723 0.6763 0.40934 0.0
C84 C 1.01369 0.69584 0.39068 0.0
Eu85 Eu 0.19215 0.67537 0.52935 0.0
O86 O 0.25722 0.88101 0.48478 0.0
O87 O 0.13578 0.66962 0.58434 0.0
O88 O 0.27773 0.61103 0.5288 0.0
O89 O 0.22702 0.78782 0.53045 0.0
C90 C 0.14203 0.61829 0.615 0.0
O91 O 0.18057 0.56596 0.61353 0.0
O92 O 0.16924 0.72 0.46922 0.0
C93 C 0.13298 0.66735 0.4664 0.0
C94 C 0.36756 0.83728 0.39792 0.0
O95 O 0.31035 0.84615 0.40075 0.0
O96 O 0.13163 0.61711 0.49791 0.0
O97 O 0.30696 0.72064 0.50468 0.0
C98 C 0.4085 0.86682 0.54502 0.0
O99 O 0.39991 0.79907 0.54135 0.0
C100 C 0.46696 0.88424 0.55833 0.0
C101 C 0.57852 0.90573 0.58771 0.0
C102 C 0.51681 0.88425 0.53393 0.0
C103 C 0.57292 0.89505 0.5484 0.0
C104 C 0.47317 0.89514 0.59739 0.0
C105 C 0.52882 0.90566 0.61257 0.0
C106 C 0.21353 0.84592 0.50516 0.0
O107 O 0.38374 0.91367 0.51717 0.0
H108 H 0.92961 0.74814 0.39554 0.0
H109 H 0.04058 0.73401 0.49681 0.0
H110 H 0.10165 0.65106 0.39398 0.0
H111 H 0.62196 0.90804 0.59974 0.0
H112 H 0.51211 0.87348 0.50415 0.0
H113 H 0.43464 0.89284 0.61649 0.0
Eu114 Eu 0.83227 0.29884 0.50394 0.0
C115 C 0.80772 0.12719 0.50163 0.0
O116 O 0.88854 0.32811 0.44969 0.0
C117 C 0.54279 0.1037 0.43136 0.0
C118 C 0.42753 0.11876 0.40297 0.0
C119 C 0.49493 0.10278 0.45774 0.0
C120 C 0.43723 0.11143 0.44362 0.0
C121 C 0.53241 0.11118 0.39079 0.0
C122 C 0.47465 0.11856 0.37618 0.0
Eu123 Eu 0.67679 0.14538 0.49166 0.0
O124 O 0.7405 0.35021 0.5012 0.0
O125 O 0.63148 0.16356 0.54776 0.0
O126 O 0.76447 0.08359 0.49765 0.0
O127 O 0.70534 0.2615 0.47044 0.0
C128 C 0.66185 0.18224 0.57654 0.0
O129 O 0.71912 0.18947 0.57262 0.0
O130 O 0.63895 0.15141 0.43343 0.0
C131 C 0.60416 0.09644 0.44512 0.0
C132 C 0.88592 0.2897 0.42126 0.0
O133 O 0.85027 0.23445 0.42489 0.0
O134 O 0.61298 0.06549 0.48173 0.0
O135 O 0.78972 0.19233 0.50497 0.0
C136 C 0.88962 0.30677 0.56742 0.0
O137 O 0.87811 0.24534 0.55553 0.0
C138 C 0.95126 0.31674 0.57755 0.0
C139 C 0.06869 0.33361 0.59794 0.0
C140 C 0.99731 0.29546 0.55416 0.0
C141 C 0.05594 0.3023 0.56482 0.0
C142 C 0.96428 0.3466 0.61116 0.0
C143 C 0.02306 0.35597 0.62112 0.0
C144 C 0.695 0.31686 0.48887 0.0
O145 O 0.86309 0.36303 0.54669 0.0
H146 H 0.38285 0.12402 0.39211 0.0
H147 H 0.5025 0.09715 0.48911 0.0
H148 H 0.56989 0.1115 0.3711 0.0
H149 H 0.11414 0.33975 0.60594 0.0
H150 H 0.98757 0.27186 0.5283 0.0
H151 H 0.92888 0.36315 0.62927 0.0
H152 H 0.60508 0.3308 0.97205 0.0
C153 C 0.61718 0.31102 0.94504 0.0
H154 H 0.68662 0.2709 0.91275 0.0
H155 H 0.84734 0.47171 0.00687 0.0
H156 H 0.80723 0.57159 0.96064 0.0
H157 H 0.72688 0.55254 0.91633 0.0
H158 H 0.68582 0.43333 0.91783 0.0
C159 C 0.67394 0.29626 0.9378 0.0
C160 C 0.72108 0.30843 0.96503 0.0
C161 C 0.74313 0.37885 0.96441 0.0
C162 C 0.78962 0.38984 0.98982 0.0
C163 C 0.81187 0.46039 0.98822 0.0
C164 C 0.78935 0.51816 0.96181 0.0
C165 C 0.744 0.50741 0.93686 0.0
C166 C 0.72078 0.43877 0.93811 0.0
H167 H 0.92822 0.3046 0.00781 0.0
C168 C 0.91762 0.32462 0.03499 0.0
H169 H 0.84994 0.36754 0.06763 0.0
H170 H 0.69073 0.16623 0.97147 0.0
H171 H 0.73437 0.0652 0.01514 0.0
H172 H 0.81382 0.08456 0.06024 0.0
H173 H 0.85049 0.20477 0.0617 0.0
C174 C 0.86159 0.34221 0.0424 0.0
C175 C 0.81388 0.33037 0.01548 0.0
C176 C 0.7924 0.25976 0.01567 0.0
C177 C 0.74619 0.24873 0.99009 0.0
C178 C 0.72581 0.17764 0.99039 0.0
C179 C 0.75035 0.11919 0.01536 0.0
C180 C 0.79506 0.1301 0.04077 0.0
C181 C 0.81588 0.19942 0.04117 0.0
H182 H 0.12304 0.692 0.01934 0.0
C183 C 0.12791 0.69454 0.98773 0.0
H184 H 0.18548 0.72195 0.93882 0.0
H185 H 0.36905 0.90193 0.01387 0.0
H186 H 0.31705 0.99663 0.97064 0.0
H187 H 0.22688 0.96987 0.9369 0.0
H188 H 0.18696 0.84914 0.94715 0.0
C189 C 0.18061 0.71334 0.9706 0.0
C190 C 0.23343 0.72926 0.99303 0.0
C191 C 0.25612 0.80035 0.98702 0.0
C192 C 0.3085 0.81566 0.00625 0.0
C193 C 0.32954 0.88735 0.99999 0.0
C194 C 0.30024 0.94216 0.97517 0.0
C195 C 0.24947 0.92713 0.95617 0.0
C196 C 0.22722 0.85738 0.96214 0.0
H197 H 0.45398 0.74686 0.01309 0.0
C198 C 0.44728 0.76739 0.04057 0.0
H199 H 0.38308 0.80229 0.07878 0.0
H200 H 0.20644 0.58538 0.00762 0.0
H201 H 0.2599 0.49053 0.04953 0.0
H202 H 0.34932 0.51762 0.08377 0.0
H203 H 0.38674 0.63975 0.07582 0.0
C204 C 0.39158 0.7771 0.05306 0.0
C205 C 0.33903 0.75965 0.03089 0.0
C206 C 0.31719 0.68821 0.03624 0.0
C207 C 0.26458 0.67288 0.01716 0.0
C208 C 0.24513 0.60056 0.02211 0.0
C209 C 0.27562 0.54543 0.04592 0.0
C210 C 0.32612 0.56066 0.06513 0.0
C211 C 0.34697 0.63104 0.06041 0.0
H212 H 0.62205 0.84641 0.50334 0.0
C213 C 0.62566 0.8839 0.52411 0.0
H214 H 0.68292 0.95176 0.54886 0.0
H215 H 0.89374 0.73021 0.54048 0.0
H216 H 0.87895 0.7229 0.61064 0.0
H217 H 0.7979 0.79024 0.63697 0.0
H218 H 0.73071 0.86431 0.59321 0.0
C219 C 0.67828 0.91317 0.52887 0.0
C220 C 0.73276 0.88417 0.51245 0.0
C221 C 0.77345 0.84391 0.53854 0.0
C222 C 0.82125 0.80679 0.52335 0.0
C223 C 0.85829 0.76221 0.55016 0.0
C224 C 0.84996 0.75689 0.59065 0.0
C225 C 0.80425 0.79464 0.60547 0.0
C226 C 0.76605 0.83721 0.57992 0.0
H227 H 0.94771 0.81703 0.48899 0.0
C228 C 0.93356 0.78047 0.46962 0.0
H229 H 0.86142 0.73225 0.44657 0.0
H230 H 0.66656 0.96265 0.4546 0.0
H231 H 0.68399 0.97587 0.38421 0.0
H232 H 0.76883 0.91491 0.35771 0.0
H233 H 0.83617 0.84058 0.40143 0.0
C234 C 0.87588 0.76976 0.46528 0.0
C235 C 0.82956 0.8127 0.48205 0.0
C236 C 0.79085 0.85643 0.45603 0.0
C237 C 0.74223 0.89188 0.47123 0.0
C238 C 0.70408 0.93471 0.44458 0.0
C239 C 0.71368 0.94273 0.40409 0.0
C240 C 0.76137 0.90839 0.38919 0.0
C241 C 0.79959 0.86564 0.41467 0.0
H242 H 0.10929 0.30028 0.51086 0.0
C243 C 0.10393 0.27583 0.54153 0.0
H244 H 0.13252 0.19684 0.58804 0.0
H245 H 0.26288 0.12156 0.42207 0.0
H246 H 0.16465 0.10574 0.39875 0.0
H247 H 0.07715 0.12991 0.43799 0.0
H248 H 0.08769 0.16932 0.50102 0.0
C249 C 0.13938 0.22125 0.55748 0.0
C250 C 0.19114 0.19719 0.53564 0.0
C251 C 0.18408 0.17315 0.49903 0.0
C252 C 0.23448 0.15855 0.47653 0.0
C253 C 0.22618 0.13453 0.44011 0.0
C254 C 0.16995 0.12496 0.4264 0.0
C255 C 0.12076 0.13856 0.4485 0.0
C256 C 0.12747 0.16195 0.48449 0.0
H257 H 0.38805 0.07724 0.49956 0.0
C258 C 0.38722 0.11356 0.47153 0.0
H259 H 0.34328 0.19958 0.4361 0.0
H260 H 0.22019 0.23098 0.60754 0.0
H261 H 0.31799 0.23442 0.63376 0.0
H262 H 0.40518 0.20931 0.59469 0.0
H263 H 0.39548 0.18506 0.52861 0.0
C264 C 0.3434 0.16261 0.46392 0.0
C265 C 0.29186 0.16699 0.49078 0.0
C266 C 0.29885 0.18547 0.52881 0.0
C267 C 0.24834 0.19973 0.55141 0.0
C268 C 0.25658 0.21853 0.58917 0.0
C269 C 0.31262 0.22115 0.6046 0.0
C270 C 0.36174 0.2075 0.58253 0.0
C271 C 0.35533 0.192 0.54471 0.0
H272 H 0.6733 0.54135 0.02675 0.0
C273 C 0.66751 0.59043 0.00547 0.0
H274 H 0.6123 0.65027 0.96302 0.0
H275 H 0.44857 0.41474 0.91899 0.0
H276 H 0.50135 0.45284 0.85767 0.0
H277 H 0.58709 0.53279 0.85504 0.0
H278 H 0.61945 0.57649 0.91347 0.0
C279 C 0.61796 0.60102 0.9842 0.0
C280 C 0.56988 0.54696 0.98728 0.0
C281 C 0.55197 0.52095 0.95289 0.0
C282 C 0.50332 0.47359 0.95451 0.0
C283 C 0.48542 0.45034 0.91949 0.0
C284 C 0.51538 0.47177 0.88406 0.0
C285 C 0.56364 0.51673 0.88259 0.0
C286 C 0.58175 0.54143 0.91642 0.0
H287 H 0.36681 0.48365 0.96268 0.0
C288 C 0.36965 0.42866 0.97853 0.0
H289 H 0.42471 0.34891 0.01042 0.0
H290 H 0.58401 0.59694 0.05736 0.0
H291 H 0.53335 0.55505 0.11885 0.0
H292 H 0.45683 0.46205 0.12317 0.0
H293 H 0.42907 0.41257 0.06549 0.0
C294 C 0.42172 0.40243 0.99283 0.0
C295 C 0.47395 0.45006 0.99082 0.0
C296 C 0.49263 0.47457 0.02541 0.0
C297 C 0.53908 0.52523 0.02339 0.0
C298 C 0.55196 0.55492 0.05754 0.0
C299 C 0.52261 0.532 0.09306 0.0
C300 C 0.4794 0.47985 0.09546 0.0
C301 C 0.46406 0.45171 0.06209 0.0
H302 H 0.59792 0.31565 0.48231 0.0
C303 C 0.63407 0.34602 0.49157 0.0
H304 H 0.65919 0.44231 0.51058 0.0
H305 H 0.43911 0.63045 0.4447 0.0
H306 H 0.51292 0.67503 0.39588 0.0
H307 H 0.61063 0.6163 0.39588 0.0
H308 H 0.63441 0.51102 0.44416 0.0
C309 C 0.62282 0.41027 0.50315 0.0
C310 C 0.56244 0.44414 0.50274 0.0
C311 C 0.54984 0.50802 0.47565 0.0
C312 C 0.49409 0.54397 0.47672 0.0
C313 C 0.48151 0.60353 0.44692 0.0
C314 C 0.52337 0.62928 0.41831 0.0
C315 C 0.57832 0.59607 0.41823 0.0
C316 C 0.59151 0.5359 0.44629 0.0
H317 H 0.41941 0.66028 0.51086 0.0
C318 C 0.38263 0.62375 0.51148 0.0
H319 H 0.3543 0.51887 0.50826 0.0
H320 H 0.56953 0.32088 0.55739 0.0
H321 H 0.49603 0.27628 0.6065 0.0
H322 H 0.40378 0.34427 0.61259 0.0
H323 H 0.38283 0.45495 0.56813 0.0
C324 C 0.39214 0.55379 0.50804 0.0
C325 C 0.4519 0.51859 0.50652 0.0
C326 C 0.46455 0.45441 0.53348 0.0
C327 C 0.51903 0.41645 0.53101 0.0
C328 C 0.52918 0.35186 0.55775 0.0
C329 C 0.48735 0.32565 0.58624 0.0
C330 C 0.43538 0.36386 0.58964 0.0
C331 C 0.42386 0.42737 0.56372 0.0
H332 H 0.13279 0.18882 0.01004 0.0
C333 C 0.16614 0.15902 0.9963 0.0
H334 H 0.18708 0.06679 0.97179 0.0
H335 H 1.00776 0.83851 0.04509 0.0
H336 H 0.10118 0.7829 0.06584 0.0
H337 H 0.19273 0.85302 0.05721 0.0
H338 H 0.19156 0.97853 0.02659 0.0
C339 C 0.15306 0.09528 0.9858 0.0
C340 C 0.09566 0.05775 0.99575 0.0
C341 C 0.09652 0.98527 0.01584 0.0
C342 C 0.04323 0.94597 0.02294 0.0
C343 C 0.04633 0.87208 0.04036 0.0
C344 C 0.09983 0.83916 0.05228 0.0
C345 C 0.15136 0.87855 0.04732 0.0
C346 C 0.15002 0.95063 0.02938 0.0
H347 H 0.90404 0.95562 0.9617 0.0
C348 C 0.89671 0.92704 0.99141 0.0
H349 H 0.92576 0.90865 0.04998 0.0
H350 H 0.0764 0.19169 0.95097 0.0
H351 H 0.98233 0.25221 0.93819 0.0
H352 H 0.88989 0.19105 0.96146 0.0
H353 H 0.89125 0.06773 0.99618 0.0
C354 C 0.93299 0.9379 0.0204 0.0
C355 C 0.98836 0.98044 0.01246 0.0
C356 C 0.98707 0.0543 0.9947 0.0
C357 C 0.04071 0.0918 0.98443 0.0
C358 C 0.03762 0.16253 0.96248 0.0
C359 C 0.98369 0.19767 0.95438 0.0
C360 C 0.93165 0.1631 0.96726 0.0
C361 C 0.93304 0.09213 0.98696 0.0
H362 H 0.90346 0.1491 0.49813 0.0
C363 C 0.87111 0.10665 0.49944 0.0
H364 H 0.85689 0.99608 0.49942 0.0
H365 H 0.09126 0.90125 0.42486 0.0
H366 H 1.02018 0.88775 0.37472 0.0
H367 H 0.91837 0.93309 0.37892 0.0
H368 H 0.88655 0.99178 0.43335 0.0
C369 C 0.88954 0.03798 0.49909 0.0
C370 C 0.95335 0.01648 0.49523 0.0
C371 C 0.97147 0.98157 0.4633 0.0
C372 C 0.03065 0.95586 0.46056 0.0
C373 C 0.0471 0.92184 0.42825 0.0
C374 C 1.00679 0.91389 0.39923 0.0
C375 C 0.94938 0.93926 0.40167 0.0
C376 C 0.93166 0.97261 0.43322 0.0
H377 H 0.11745 0.83318 0.51433 0.0
C378 C 0.15103 0.87071 0.50128 0.0
H379 H 0.16814 0.97847 0.47561 0.0
H380 H 0.93487 0.07606 0.56221 0.0
H381 H 1.00798 0.09619 0.60938 0.0
H382 H 0.1109 0.05623 0.60272 0.0
H383 H 0.14138 0.99625 0.54849 0.0
C384 C 0.13482 0.93906 0.48657 0.0
C385 C 0.07228 0.96517 0.48951 0.0
C386 C 0.05482 1.00153 0.52088 0.0
C387 C 0.99541 0.02628 0.52413 0.0
C388 C 0.97945 0.05902 0.55703 0.0
C389 C 0.02096 0.07017 0.58473 0.0
C390 C 0.07888 0.04754 0.58104 0.0
C391 C 0.09577 0.01316 0.54976 0.0
H392 H 0.41494 0.13716 0.32526 0.0
C393 C 0.46079 0.12737 0.33344 0.0
H394 H 0.54686 0.11613 0.31006 0.0
H395 H 0.36772 0.06149 0.16615 0.0
H396 H 0.34218 0.94966 0.20872 0.0
H397 H 0.37921 0.9226 0.27636 0.0
H398 H 0.44279 1.00628 0.30201 0.0
C399 C 0.50033 0.12393 0.30431 0.0
C400 C 0.48165 0.13637 0.26244 0.0
C401 C 0.44395 0.08688 0.24831 0.0
C402 C 0.42198 0.10279 0.20939 0.0
C403 C 0.38502 0.05231 0.19569 0.0
C404 C 0.37013 0.98791 0.21974 0.0
C405 C 0.39105 0.97265 0.25788 0.0
C406 C 0.42745 0.0213 0.2722 0.0
H407 H 0.47179 0.16205 0.11036 0.0
C408 C 0.42721 0.18281 0.11259 0.0
H409 H 0.35953 0.21003 0.15039 0.0
H410 H 0.55819 0.23885 0.27871 0.0
H411 H 0.58628 0.34823 0.23492 0.0
H412 H 0.54601 0.37687 0.16794 0.0
H413 H 0.47768 0.29595 0.14421 0.0
C414 C 0.40451 0.19081 0.14781 0.0
C415 C 0.43685 0.16843 0.18499 0.0
C416 C 0.47712 0.21589 0.19818 0.0
C417 C 0.50006 0.19947 0.23688 0.0
C418 C 0.53955 0.24842 0.24956 0.0
C419 C 0.55597 0.3115 0.22474 0.0
C420 C 0.53329 0.32764 0.18703 0.0
C421 C 0.49414 0.28073 0.17378 0.0
H422 H 0.58786 0.79844 0.18148 0.0
C423 C 0.5473 0.81027 0.16518 0.0
H424 H 0.45745 0.83933 0.16877 0.0
H425 H 0.40572 0.69675 0.3425 0.0
H426 H 0.36162 0.60971 0.3072 0.0
H427 H 0.37753 0.61711 0.23568 0.0
H428 H 0.43816 0.71097 0.19913 0.0
C429 C 0.4981 0.82605 0.18468 0.0
C430 C 0.49411 0.81829 0.22862 0.0
C431 C 0.45784 0.76372 0.2496 0.0
C432 C 0.44736 0.76051 0.2907 0.0
C433 C 0.41292 0.70357 0.311 0.0
C434 C 0.3879 0.65276 0.29118 0.0
C435 C 0.39696 0.65685 0.25093 0.0
C436 C 0.43165 0.7113 0.23027 0.0
H437 H 0.36306 0.83824 0.33442 0.0
C438 C 0.39357 0.8327 0.35876 0.0
H439 H 0.48241 0.81495 0.37543 0.0
H440 H 0.56694 0.92912 0.19823 0.0
H441 H 0.6159 1.01091 0.23464 0.0
H442 H 0.60188 1.00074 0.30644 0.0
H443 H 0.5364 0.91117 0.34206 0.0
C444 C 0.45085 0.81945 0.35174 0.0
C445 C 0.47175 0.81312 0.31085 0.0
C446 C 0.5124 0.86339 0.29074 0.0
C447 C 0.52247 0.86725 0.24941 0.0
C448 C 0.55935 0.92207 0.22967 0.0
C449 C 0.58754 0.96958 0.2502 0.0
C450 C 0.57947 0.96405 0.29062 0.0
C451 C 0.54196 0.91217 0.31075 0.0
H452 H 0.49968 0.881 0.67496 0.0
C453 C 0.53446 0.90615 0.65561 0.0
H454 H 0.61718 0.95755 0.65382 0.0
H455 H 0.54635 0.95727 0.84084 0.0
H456 H 0.4744 0.0498 0.81597 0.0
H457 H 0.45677 0.0822 0.74472 0.0
H458 H 0.50993 0.021 0.69789 0.0
C459 C 0.58177 0.93129 0.67197 0.0
C460 C 0.59216 0.91331 0.71509 0.0
C461 C 0.56062 0.94931 0.74207 0.0
C462 C 0.57185 0.93173 0.78316 0.0
C463 C 0.53965 0.96853 0.8094 0.0
C464 C 0.49828 0.02179 0.7955 0.0
C465 C 0.48832 0.04002 0.75537 0.0
C466 C 0.519 1.00438 0.72882 0.0
H467 H 0.72057 0.90533 0.82467 0.0
C468 C 0.68987 0.88503 0.84828 0.0
H469 H 0.60279 0.85035 0.86211 0.0
H470 H 0.65893 0.83222 0.67141 0.0
H471 H 0.72846 0.73723 0.69637 0.0
H472 H 0.7455 0.70409 0.76763 0.0
H473 H 0.69349 0.76628 0.81431 0.0
C474 C 0.63458 0.86986 0.8391 0.0
C475 C 0.6161 0.88006 0.79701 0.0
C476 C 0.64541 0.84145 0.77012 0.0
C477 C 0.63425 0.85905 0.72912 0.0
C478 C 0.66533 0.82085 0.7029 0.0
C479 C 0.70534 0.76604 0.71681 0.0
C480 C 0.71502 0.74749 0.75692 0.0
C481 C 0.68533 0.78425 0.78338 0.0
H482 H 0.58815 0.32643 0.79795 0.0
C483 C 0.55423 0.28861 0.81027 0.0
H484 H 0.50741 0.19599 0.80203 0.0
H485 H 0.61597 0.33986 0.62451 0.0
H486 H 0.5507 0.44226 0.62819 0.0
H487 H 0.48838 0.44629 0.68702 0.0
H488 H 0.49349 0.35003 0.74345 0.0
C489 C 0.53676 0.23892 0.78914 0.0
C490 C 0.56747 0.23222 0.75149 0.0
C491 C 0.56018 0.28591 0.71777 0.0
C492 C 0.59309 0.28124 0.68287 0.0
C493 C 0.58981 0.33924 0.65104 0.0
C494 C 0.55285 0.39848 0.65289 0.0
C495 C 0.51787 0.40083 0.68605 0.0
C496 C 0.52129 0.34533 0.71823 0.0
H497 H 0.58391 0.18821 0.61485 0.0
C498 C 0.63139 0.19453 0.61291 0.0
H499 H 0.70832 0.21603 0.64261 0.0
H500 H 0.60071 0.12819 0.81292 0.0
H501 H 0.67053 0.03074 0.81016 0.0
H502 H 0.71744 0.01337 0.74731 0.0
H503 H 0.69856 0.09796 0.68737 0.0
C504 C 0.66064 0.21197 0.64355 0.0
C505 C 0.62953 0.22006 0.6808 0.0
C506 C 0.63769 0.16712 0.71469 0.0
C507 C 0.60789 0.17435 0.75038 0.0
C508 C 0.62081 0.12426 0.78469 0.0
C509 C 0.66084 0.06786 0.78352 0.0
C510 C 0.68745 0.05841 0.74818 0.0
C511 C 0.6761 0.10723 0.71401 0.0
H512 H 0.04321 0.69366 0.32937 0.0
C513 C 1.0056 0.68538 0.34939 0.0
H514 H 0.91599 0.6576 0.35609 0.0
H515 H 0.84306 0.78344 0.18322 0.0
H516 H 0.79059 0.86276 0.22083 0.0
H517 H 0.80738 0.85515 0.29198 0.0
H518 H 0.87672 0.7684 0.32581 0.0
C519 C 0.95348 0.66713 0.33607 0.0
C520 C 0.94288 0.66914 0.29334 0.0
C521 C 0.9014 0.71968 0.2741 0.0
C522 C 0.89107 0.72339 0.23321 0.0
C523 C 0.85108 0.77631 0.21449 0.0
C524 C 0.82106 0.82282 0.23566 0.0
C525 C 0.83057 0.81862 0.27568 0.0
C526 C 0.87043 0.76816 0.29477 0.0
H527 H 0.8213 0.63688 0.18299 0.0
C528 C 0.85363 0.65418 0.15992 0.0
H529 H 0.94026 0.69176 0.14722 0.0
H530 H 1.02042 0.56034 0.32173 0.0
H531 H 0.07651 0.48526 0.28327 0.0
H532 H 0.06466 0.49921 0.21137 0.0
H533 H 0.9942 0.58549 0.17777 0.0
C534 C 0.90703 0.67499 0.16973 0.0
C535 C 0.92171 0.67593 0.21167 0.0
C536 C 0.96501 0.62772 0.23049 0.0
C537 C 0.97423 0.62252 0.27164 0.0
C538 C 1.01395 0.56928 0.29026 0.0
C539 C 0.04615 0.52547 0.26858 0.0
C540 C 0.03938 0.53319 0.2281 0.0
C541 C 0.99886 0.58304 0.20917 0.0
H542 H 0.94571 0.3608 0.38173 0.0
C543 C 0.92015 0.31162 0.38475 0.0
H544 H 0.8943 0.22394 0.35776 0.0
H545 H 0.94311 0.44536 0.1946 0.0
H546 H 0.85749 0.51102 0.2131 0.0
H547 H 0.81294 0.48103 0.27933 0.0
H548 H 0.85315 0.38426 0.32721 0.0
C549 C 0.91842 0.27416 0.35484 0.0
C550 C 0.94939 0.29897 0.31691 0.0
C551 C 0.92524 0.35602 0.2894 0.0
C552 C 0.95067 0.37313 0.25114 0.0
C553 C 0.92513 0.42945 0.22393 0.0
C554 C 0.87614 0.46793 0.23422 0.0
C555 C 0.85115 0.45108 0.27152 0.0
C556 C 0.87492 0.39552 0.29881 0.0
H557 H 0.9451 0.29885 0.18091 0.0
C558 C 0.98765 0.32212 0.17155 0.0
H559 H 0.06426 0.36754 0.19187 0.0
H560 H 1.00837 0.19002 0.36373 0.0
H561 H 0.09475 0.12512 0.34534 0.0
H562 H 0.14025 0.15665 0.27942 0.0
H563 H 0.0987 0.25224 0.23104 0.0
C564 C 0.02149 0.34363 0.19903 0.0
C565 C 1.00035 0.33348 0.24062 0.0
C566 C 0.02648 0.27944 0.26889 0.0
C567 C 1.00054 0.26157 0.30698 0.0
C568 C 0.02625 0.20559 0.33432 0.0
C569 C 0.07601 0.16819 0.32423 0.0
C570 C 0.10152 0.18583 0.28706 0.0
C571 C 0.07722 0.24073 0.25957 0.0
H572 H 0.06599 0.35717 0.87124 0.0
C573 C 0.09518 0.40286 0.87029 0.0
H574 H 0.13641 0.49042 0.83471 0.0
H575 H 0.13719 0.33937 0.68437 0.0
H576 H 0.2406 0.35571 0.69467 0.0
H577 H 0.27421 0.40659 0.75199 0.0
H578 H 0.20448 0.43951 0.7997 0.0
C579 C 0.10584 0.44617 0.83586 0.0
C580 C 0.0841 0.42836 0.79802 0.0
C581 C 0.1255 0.41259 0.76932 0.0
C582 C 0.10594 0.38681 0.73515 0.0
C583 C 0.1488 0.36436 0.70923 0.0
C584 C 0.20868 0.37227 0.71514 0.0
C585 C 0.22759 0.4006 0.74747 0.0
C586 C 0.18684 0.41958 0.77462 0.0
H587 H 0.0671 0.4343 0.65195 0.0
C588 C 0.03785 0.38824 0.65595 0.0
H589 H 0.99506 0.30861 0.69622 0.0
H590 H 0.99296 0.46446 0.84418 0.0
H591 H 0.88886 0.45238 0.83283 0.0
H592 H 0.85463 0.40916 0.77327 0.0
H593 H 0.92429 0.37787 0.72476 0.0
C594 C 0.02324 0.35565 0.69241 0.0
C595 C 0.04464 0.38159 0.72837 0.0
C596 C 1.00326 0.39938 0.75661 0.0
C597 C 0.02296 0.42319 0.79131 0.0
C598 C 0.98057 0.44295 0.81826 0.0
C599 C 0.92059 0.43708 0.81187 0.0
C600 C 0.90133 0.4129 0.7783 0.0
C601 C 0.9419 0.39481 0.75074 0.0
H602 H 0.08242 0.67262 0.65226 0.0
C603 C 0.10988 0.62484 0.65193 0.0
H604 H 0.14578 0.53093 0.68585 0.0
H605 H 0.13891 0.67792 0.83906 0.0
H606 H 0.24337 0.67062 0.82616 0.0
H607 H 0.28083 0.6267 0.76677 0.0
H608 H 0.21373 0.59153 0.71956 0.0
C609 C 0.11678 0.57751 0.68545 0.0
C610 C 0.09329 0.59374 0.72384 0.0
C611 C 0.1331 0.61073 0.75222 0.0
C612 C 0.11151 0.63245 0.78754 0.0
C613 C 0.15251 0.65594 0.81327 0.0
C614 C 0.21282 0.65318 0.80588 0.0
C615 C 0.23389 0.62875 0.77239 0.0
C616 C 0.19475 0.60854 0.74555 0.0
H617 H 0.07605 0.56936 0.8693 0.0
C618 C 0.04465 0.61344 0.86899 0.0
H619 H 0.99701 0.69612 0.83359 0.0
H620 H 1.00526 0.55857 0.67744 0.0
H621 H 0.9003 0.56352 0.69078 0.0
H622 H 0.86264 0.59981 0.7522 0.0
H623 H 0.92967 0.6306 0.8009 0.0
C624 C 0.02704 0.65041 0.83421 0.0
C625 C 0.04996 0.63227 0.7959 0.0
C626 C 1.01018 0.61528 0.76742 0.0
C627 C 0.03185 0.59551 0.73156 0.0
C628 C 0.99113 0.5763 0.70444 0.0
C629 C 0.93078 0.57842 0.71186 0.0
C630 C 0.90959 0.59877 0.74648 0.0
C631 C 0.94859 0.61653 0.77415 0.0
loop_
_geom_bond_atom_site_label_1
_geom_bond_atom_site_label_2
_geom_bond_distance
_geom_bond_site_symmetry_2
_ccdc_geom_bond_type
Eu0 O2 2.323 . S
Eu0 O10 2.328 . S
Eu0 O21 2.316 . S
Eu0 C22 2.837 1_554 S
Eu0 O23 2.488 1_554 S
Eu0 O31 2.461 . S
C1 O12 1.251 1_554 S
C1 O21 1.237 . S
O2 Eu0 2.323 . S
O2 C18 1.279 . S
C3 C5 1.383 . S
C3 C7 1.388 . S
C3 C17 1.491 . S
C4 C6 1.403 . S
C4 C8 1.385 1_655 S
C4 H32 0.931 . S
C5 C3 1.383 . S
C5 C6 1.393 1_455 S
C5 H33 0.930 1_455 S
C6 C4 1.403 . S
C6 C5 1.393 1_655 S
C7 C3 1.388 . S
C7 C8 1.394 . S
C7 H34 0.930 . S
C8 C4 1.385 1_455 S
C8 C7 1.394 . S
Eu9 O11 2.323 . S
Eu9 O12 2.328 . S
Eu9 O13 2.316 . S
Eu9 O16 2.488 1_556 S
Eu9 C17 2.837 1_556 S
Eu9 O20 2.461 . S
O10 Eu0 2.328 . S
O10 C30 1.251 1_554 S
O11 Eu9 2.323 . S
O11 C14 1.279 . S
O12 C1 1.251 1_556 S
O12 Eu9 2.328 . S
O13 Eu9 2.316 . S
O13 C30 1.237 . S
C14 O11 1.279 . S
C14 O15 1.244 . S
O15 C14 1.244 . S
O16 Eu9 2.488 1_554 S
O16 C17 1.271 . S
C17 C3 1.491 . S
C17 Eu9 2.837 1_554 S
C17 O16 1.271 . S
C17 O20 1.261 1_554 S
C18 O2 1.279 . S
C18 O19 1.244 . S
O19 C18 1.244 . S
O20 Eu9 2.461 . S
O20 C17 1.261 1_556 S
O21 Eu0 2.316 . S
O21 C1 1.237 . S
C22 Eu0 2.837 1_556 S
C22 O23 1.271 . S
C22 C24 1.491 . S
C22 O31 1.261 1_556 S
O23 Eu0 2.488 1_556 S
O23 C22 1.271 . S
C24 C22 1.491 . S
C24 C26 1.383 . S
C24 C28 1.388 . S
C25 C27 1.403 . S
C25 C29 1.385 . S
C25 H35 0.931 . S
C26 C24 1.383 . S
C26 C27 1.393 . S
C26 H36 0.930 . S
C27 C25 1.403 . S
C27 C26 1.393 . S
C28 C24 1.388 . S
C28 C29 1.394 . S
C28 H37 0.930 . S
C29 C25 1.385 . S
C29 C28 1.394 . S
C30 O10 1.251 1_556 S
C30 O13 1.237 . S
O31 Eu0 2.461 . S
O31 C22 1.261 1_554 S
H32 C4 0.931 . S
H33 C5 0.930 1_655 S
H34 C7 0.930 . S
H35 C25 0.931 . S
H36 C26 0.930 . S
H37 C28 0.930 . S
Eu38 O40 2.323 . S
Eu38 O48 2.328 . S
Eu38 O59 2.316 . S
Eu38 C60 2.837 1_554 S
Eu38 O61 2.488 1_554 S
Eu38 O69 2.461 . S
C39 O50 1.251 1_554 S
C39 O59 1.237 . S
O40 Eu38 2.323 . S
O40 C56 1.279 . S
C41 C43 1.383 . S
C41 C45 1.388 . S
C41 C55 1.491 . S
C42 C44 1.403 . S
C42 C46 1.385 . S
C42 H70 0.931 . S
C43 C41 1.383 . S
C43 C44 1.393 . S
C43 H71 0.930 . S
C44 C42 1.403 . S
C44 C43 1.393 . S
C45 C41 1.388 . S
C45 C46 1.394 . S
C45 H72 0.930 . S
C46 C42 1.385 . S
C46 C45 1.394 . S
Eu47 O49 2.323 . S
Eu47 O50 2.328 . S
Eu47 O51 2.316 . S
Eu47 O54 2.488 1_556 S
Eu47 C55 2.837 1_556 S
Eu47 O58 2.461 . S
O48 Eu38 2.328 . S
O48 C68 1.251 1_554 S
O49 Eu47 2.323 . S
O49 C52 1.279 . S
O50 C39 1.251 1_556 S
O50 Eu47 2.328 . S
O51 Eu47 2.316 . S
O51 C68 1.237 . S
C52 O49 1.279 . S
C52 O53 1.244 . S
O53 C52 1.244 . S
O54 Eu47 2.488 1_554 S
O54 C55 1.271 . S
C55 C41 1.491 . S
C55 Eu47 2.837 1_554 S
C55 O54 1.271 . S
C55 O58 1.261 1_554 S
C56 O40 1.279 . S
C56 O57 1.244 . S
O57 C56 1.244 . S
O58 Eu47 2.461 . S
O58 C55 1.261 1_556 S
O59 Eu38 2.316 . S
O59 C39 1.237 . S
C60 Eu38 2.837 1_556 S
C60 O61 1.271 . S
C60 C62 1.491 . S
C60 O69 1.261 1_556 S
O61 Eu38 2.488 1_556 S
O61 C60 1.271 . S
C62 C60 1.491 . S
C62 C64 1.383 . S
C62 C66 1.388 . S
C63 C65 1.403 . S
C63 C67 1.385 1_455 S
C63 H73 0.931 . S
C64 C62 1.383 . S
C64 C65 1.393 1_655 S
C64 H74 0.930 1_655 S
C65 C63 1.403 . S
C65 C64 1.393 1_455 S
C66 C62 1.388 . S
C66 C67 1.394 . S
C66 H75 0.930 . S
C67 C63 1.385 1_655 S
C67 C66 1.394 . S
C68 O48 1.251 1_556 S
C68 O51 1.237 . S
O69 Eu38 2.461 . S
O69 C60 1.261 1_554 S
H70 C42 0.931 . S
H71 C43 0.930 . S
H72 C45 0.930 . S
H73 C63 0.931 . S
H74 C64 0.930 1_455 S
H75 C66 0.930 . S
Eu76 O78 2.323 . S
Eu76 O86 2.328 . S
Eu76 O97 2.316 . S
Eu76 C98 2.837 . S
Eu76 O99 2.488 . S
Eu76 O107 2.461 . S
C77 O88 1.251 . S
C77 O97 1.237 . S
O78 Eu76 2.323 . S
O78 C94 1.279 . S
C79 C81 1.383 . S
C79 C83 1.388 . S
C79 C93 1.491 . S
C80 C82 1.403 . S
C80 C84 1.385 1_655 S
C80 H108 0.931 . S
C81 C79 1.383 . S
C81 C82 1.393 1_455 S
C81 H109 0.930 1_455 S
C82 C80 1.403 . S
C82 C81 1.393 1_655 S
C83 C79 1.388 . S
C83 C84 1.394 . S
C83 H110 0.930 . S
C84 C80 1.385 1_455 S
C84 C83 1.394 . S
Eu85 O87 2.323 . S
Eu85 O88 2.328 . S
Eu85 O89 2.316 . S
Eu85 O92 2.488 . S
Eu85 C93 2.837 . S
Eu85 O96 2.461 . S
O86 Eu76 2.328 . S
O86 C106 1.251 . S
O87 Eu85 2.323 . S
O87 C90 1.279 . S
O88 C77 1.251 . S
O88 Eu85 2.328 . S
O89 Eu85 2.316 . S
O89 C106 1.237 . S
C90 O87 1.279 . S
C90 O91 1.244 . S
O91 C90 1.244 . S
O92 Eu85 2.488 . S
O92 C93 1.271 . S
C93 C79 1.491 . S
C93 Eu85 2.837 . S
C93 O92 1.271 . S
C93 O96 1.261 . S
C94 O78 1.279 . S
C94 O95 1.244 . S
O95 C94 1.244 . S
O96 Eu85 2.461 . S
O96 C93 1.261 . S
O97 Eu76 2.316 . S
O97 C77 1.237 . S
C98 Eu76 2.837 . S
C98 O99 1.271 . S
C98 C100 1.491 . S
C98 O107 1.261 . S
O99 Eu76 2.488 . S
O99 C98 1.271 . S
C100 C98 1.491 . S
C100 C102 1.383 . S
C100 C104 1.388 . S
C101 C103 1.403 . S
C101 C105 1.385 . S
C101 H111 0.931 . S
C102 C100 1.383 . S
C102 C103 1.393 . S
C102 H112 0.930 . S
C103 C101 1.403 . S
C103 C102 1.393 . S
C104 C100 1.388 . S
C104 C105 1.394 . S
C104 H113 0.930 . S
C105 C101 1.385 . S
C105 C104 1.394 . S
C106 O86 1.251 . S
C106 O89 1.237 . S
O107 Eu76 2.461 . S
O107 C98 1.261 . S
H108 C80 0.931 . S
H109 C81 0.930 1_655 S
H110 C83 0.930 . S
H111 C101 0.931 . S
H112 C102 0.930 . S
H113 C104 0.930 . S
Eu114 O116 2.323 . S
Eu114 O124 2.328 . S
Eu114 O135 2.316 . S
Eu114 C136 2.837 . S
Eu114 O137 2.488 . S
Eu114 O145 2.461 . S
C115 O126 1.251 . S
C115 O135 1.237 . S
O116 Eu114 2.323 . S
O116 C132 1.279 . S
C117 C119 1.383 . S
C117 C121 1.388 . S
C117 C131 1.491 . S
C118 C120 1.403 . S
C118 C122 1.385 . S
C118 H146 0.931 . S
C119 C117 1.383 . S
C119 C120 1.393 . S
C119 H147 0.930 . S
C120 C118 1.403 . S
C120 C119 1.393 . S
C121 C117 1.388 . S
C121 C122 1.394 . S
C121 H148 0.930 . S
C122 C118 1.385 . S
C122 C121 1.394 . S
Eu123 O125 2.323 . S
Eu123 O126 2.328 . S
Eu123 O127 2.316 . S
Eu123 O130 2.488 . S
Eu123 C131 2.837 . S
Eu123 O134 2.461 . S
O124 Eu114 2.328 . S
O124 C144 1.251 . S
O125 Eu123 2.323 . S
O125 C128 1.279 . S
O126 C115 1.251 . S
O126 Eu123 2.328 . S
O127 Eu123 2.316 . S
O127 C144 1.237 . S
C128 O125 1.279 . S
C128 O129 1.244 . S
O129 C128 1.244 . S
O130 Eu123 2.488 . S
O130 C131 1.271 . S
C131 C117 1.491 . S
C131 Eu123 2.837 . S
C131 O130 1.271 . S
C131 O134 1.261 . S
C132 O116 1.279 . S
C132 O133 1.244 . S
O133 C132 1.244 . S
O134 Eu123 2.461 . S
O134 C131 1.261 . S
O135 Eu114 2.316 . S
O135 C115 1.237 . S
C136 Eu114 2.837 . S
C136 O137 1.271 . S
C136 C138 1.491 . S
C136 O145 1.261 . S
O137 Eu114 2.488 . S
O137 C136 1.271 . S
C138 C136 1.491 . S
C138 C140 1.383 . S
C138 C142 1.388 . S
C139 C141 1.403 . S
C139 C143 1.385 1_455 S
C139 H149 0.931 . S
C140 C138 1.383 . S
C140 C141 1.393 1_655 S
C140 H150 0.930 1_655 S
C141 C139 1.403 . S
C141 C140 1.393 1_455 S
C142 C138 1.388 . S
C142 C143 1.394 . S
C142 H151 0.930 . S
C143 C139 1.385 1_655 S
C143 C142 1.394 . S
C144 O124 1.251 . S
C144 O127 1.237 . S
O145 Eu114 2.461 . S
O145 C136 1.261 . S
H146 C118 0.931 . S
H147 C119 0.930 . S
H148 C121 0.930 . S
H149 C139 0.931 . S
H150 C140 0.930 1_455 S
H151 C142 0.930 . S
H152 C153 0.951 . S
C153 H152 0.951 . S
C153 C159 1.265 . S
H154 C159 0.950 . S
H155 C163 0.949 . S
H156 C164 0.950 . S
H157 C165 0.951 . S
H158 C166 0.951 . S
C159 C153 1.265 . S
C159 H154 0.950 . S
C159 C160 1.478 . S
C160 C159 1.478 . S
C160 C161 1.397 . S
C160 C177 1.394 1_556 S
C161 C160 1.397 . S
C161 C162 1.438 . S
C161 C166 1.429 . S
C162 C161 1.438 . S
C162 C163 1.428 . S
C162 C175 1.394 1_556 S
C163 H155 0.949 . S
C163 C162 1.428 . S
C163 C164 1.345 . S
C164 H156 0.950 . S
C164 C163 1.345 . S
C164 C165 1.424 . S
C165 H157 0.951 . S
C165 C164 1.424 . S
C165 C166 1.347 . S
C166 H158 0.951 . S
C166 C161 1.429 . S
C166 C165 1.347 . S
H167 C168 0.951 . S
C168 H167 0.951 . S
C168 C174 1.265 . S
H169 C174 0.950 . S
H170 C178 0.949 . S
H171 C179 0.950 . S
H172 C180 0.951 . S
H173 C181 0.951 . S
C174 C168 1.265 . S
C174 H169 0.950 . S
C174 C175 1.478 . S
C175 C162 1.394 1_554 S
C175 C174 1.478 . S
C175 C176 1.397 . S
C176 C175 1.397 . S
C176 C177 1.438 . S
C176 C181 1.429 . S
C177 C160 1.394 1_554 S
C177 C176 1.438 . S
C177 C178 1.428 . S
C178 H170 0.949 . S
C178 C177 1.428 . S
C178 C179 1.345 . S
C179 H171 0.950 . S
C179 C178 1.345 . S
C179 C180 1.424 . S
C180 H172 0.951 . S
C180 C179 1.424 . S
C180 C181 1.347 . S
C181 H173 0.951 . S
C181 C176 1.429 . S
C181 C180 1.347 . S
H182 C183 0.951 . S
C183 H182 0.951 . S
C183 C189 1.265 . S
H184 C189 0.950 . S
H185 C193 0.949 . S
H186 C194 0.950 . S
H187 C195 0.951 . S
H188 C196 0.951 . S
C189 C183 1.265 . S
C189 H184 0.950 . S
C189 C190 1.478 . S
C190 C189 1.478 . S
C190 C191 1.397 . S
C190 C207 1.394 1_556 S
C191 C190 1.397 . S
C191 C192 1.438 . S
C191 C196 1.429 . S
C192 C191 1.438 . S
C192 C193 1.428 . S
C192 C205 1.394 1_556 S
C193 H185 0.949 . S
C193 C192 1.428 . S
C193 C194 1.345 . S
C194 H186 0.950 . S
C194 C193 1.345 . S
C194 C195 1.424 . S
C195 H187 0.951 . S
C195 C194 1.424 . S
C195 C196 1.347 . S
C196 H188 0.951 . S
C196 C191 1.429 . S
C196 C195 1.347 . S
H197 C198 0.951 . S
C198 H197 0.951 . S
C198 C204 1.265 . S
H199 C204 0.950 . S
H200 C208 0.949 . S
H201 C209 0.950 . S
H202 C210 0.951 . S
H203 C211 0.951 . S
C204 C198 1.265 . S
C204 H199 0.950 . S
C204 C205 1.478 . S
C205 C192 1.394 1_554 S
C205 C204 1.478 . S
C205 C206 1.397 . S
C206 C205 1.397 . S
C206 C207 1.438 . S
C206 C211 1.429 . S
C207 C190 1.394 1_554 S
C207 C206 1.438 . S
C207 C208 1.428 . S
C208 H200 0.949 . S
C208 C207 1.428 . S
C208 C209 1.345 . S
C209 H201 0.950 . S
C209 C208 1.345 . S
C209 C210 1.424 . S
C210 H202 0.951 . S
C210 C209 1.424 . S
C210 C211 1.347 . S
C211 H203 0.951 . S
C211 C206 1.429 . S
C211 C210 1.347 . S
H212 C213 0.951 . S
C213 H212 0.951 . S
C213 C219 1.265 . S
H214 C219 0.950 . S
H215 C223 0.949 . S
H216 C224 0.950 . S
H217 C225 0.951 . S
H218 C226 0.951 . S
C219 C213 1.265 . S
C219 H214 0.950 . S
C219 C220 1.478 . S
C220 C219 1.478 . S
C220 C221 1.397 . S
C220 C237 1.394 . S
C221 C220 1.397 . S
C221 C222 1.438 . S
C221 C226 1.429 . S
C222 C221 1.438 . S
C222 C223 1.428 . S
C222 C235 1.394 . S
C223 H215 0.949 . S
C223 C222 1.428 . S
C223 C224 1.345 . S
C224 H216 0.950 . S
C224 C223 1.345 . S
C224 C225 1.424 . S
C225 H217 0.951 . S
C225 C224 1.424 . S
C225 C226 1.347 . S
C226 H218 0.951 . S
C226 C221 1.429 . S
C226 C225 1.347 . S
H227 C228 0.951 . S
C228 H227 0.951 . S
C228 C234 1.265 . S
H229 C234 0.950 . S
H230 C238 0.949 . S
H231 C239 0.950 . S
H232 C240 0.951 . S
H233 C241 0.951 . S
C234 C228 1.265 . S
C234 H229 0.950 . S
C234 C235 1.478 . S
C235 C222 1.394 . S
C235 C234 1.478 . S
C235 C236 1.397 . S
C236 C235 1.397 . S
C236 C237 1.438 . S
C236 C241 1.429 . S
C237 C220 1.394 . S
C237 C236 1.438 . S
C237 C238 1.428 . S
C238 H230 0.949 . S
C238 C237 1.428 . S
C238 C239 1.345 . S
C239 H231 0.950 . S
C239 C238 1.345 . S
C239 C240 1.424 . S
C240 H232 0.951 . S
C240 C239 1.424 . S
C240 C241 1.347 . S
C241 H233 0.951 . S
C241 C236 1.429 . S
C241 C240 1.347 . S
H242 C243 0.951 . S
C243 H242 0.951 . S
C243 C249 1.265 . S
H244 C249 0.950 . S
H245 C253 0.949 . S
H246 C254 0.950 . S
H247 C255 0.951 . S
H248 C256 0.951 . S
C249 C243 1.265 . S
C249 H244 0.950 . S
C249 C250 1.478 . S
C250 C249 1.478 . S
C250 C251 1.397 . S
C250 C267 1.394 . S
C251 C250 1.397 . S
C251 C252 1.438 . S
C251 C256 1.429 . S
C252 C251 1.438 . S
C252 C253 1.428 . S
C252 C265 1.394 . S
C253 H245 0.949 . S
C253 C252 1.428 . S
C253 C254 1.345 . S
C254 H246 0.950 . S
C254 C253 1.345 . S
C254 C255 1.424 . S
C255 H247 0.951 . S
C255 C254 1.424 . S
C255 C256 1.347 . S
C256 H248 0.951 . S
C256 C251 1.429 . S
C256 C255 1.347 . S
H257 C258 0.951 . S
C258 H257 0.951 . S
C258 C264 1.265 . S
H259 C264 0.950 . S
H260 C268 0.949 . S
H261 C269 0.950 . S
H262 C270 0.951 . S
H263 C271 0.951 . S
C264 C258 1.265 . S
C264 H259 0.950 . S
C264 C265 1.478 . S
C265 C252 1.394 . S
C265 C264 1.478 . S
C265 C266 1.397 . S
C266 C265 1.397 . S
C266 C267 1.438 . S
C266 C271 1.429 . S
C267 C250 1.394 . S
C267 C266 1.438 . S
C267 C268 1.428 . S
C268 H260 0.949 . S
C268 C267 1.428 . S
C268 C269 1.345 . S
C269 H261 0.950 . S
C269 C268 1.345 . S
C269 C270 1.424 . S
C270 H262 0.951 . S
C270 C269 1.424 . S
C270 C271 1.347 . S
C271 H263 0.951 . S
C271 C266 1.429 . S
C271 C270 1.347 . S
H272 C273 0.947 1_554 S
C273 H272 0.947 1_556 S
C273 C279 1.269 . S
H274 C279 0.950 . S
H275 C283 0.949 . S
H276 C284 0.950 . S
H277 C285 0.951 . S
H278 C286 0.951 . S
C279 C273 1.269 . S
C279 H274 0.950 . S
C279 C280 1.478 . S
C280 C279 1.478 . S
C280 C281 1.397 . S
C280 C297 1.394 1_556 S
C281 C280 1.397 . S
C281 C282 1.438 . S
C281 C286 1.429 . S
C282 C281 1.438 . S
C282 C283 1.428 . S
C282 C295 1.394 1_556 S
C283 H275 0.949 . S
C283 C282 1.428 . S
C283 C284 1.345 . S
C284 H276 0.950 . S
C284 C283 1.345 . S
C284 C285 1.424 . S
C285 H277 0.951 . S
C285 C284 1.424 . S
C285 C286 1.347 . S
C286 H278 0.951 . S
C286 C281 1.429 . S
C286 C285 1.347 . S
H287 C288 0.946 1_556 S
C288 H287 0.946 1_554 S
C288 C294 1.271 . S
H289 C294 0.950 . S
H290 C298 0.949 . S
H291 C299 0.950 . S
H292 C300 0.951 . S
H293 C301 0.951 . S
C294 C288 1.271 . S
C294 H289 0.950 . S
C294 C295 1.478 . S
C295 C282 1.394 1_554 S
C295 C294 1.478 . S
C295 C296 1.397 . S
C296 C295 1.397 . S
C296 C297 1.438 . S
C296 C301 1.429 . S
C297 C280 1.394 1_554 S
C297 C296 1.438 . S
C297 C298 1.428 . S
C298 H290 0.949 . S
C298 C297 1.428 . S
C298 C299 1.345 . S
C299 H291 0.950 . S
C299 C298 1.345 . S
C299 C300 1.424 . S
C300 H292 0.951 . S
C300 C299 1.424 . S
C300 C301 1.347 . S
C301 H293 0.951 . S
C301 C296 1.429 . S
C301 C300 1.347 . S
H302 C303 0.951 . S
C303 H302 0.951 . S
C303 C309 1.265 . S
H304 C309 0.950 . S
H305 C313 0.949 . S
H306 C314 0.950 . S
H307 C315 0.951 . S
H308 C316 0.951 . S
C309 C303 1.265 . S
C309 H304 0.950 . S
C309 C310 1.478 . S
C310 C309 1.478 . S
C310 C311 1.397 . S
C310 C327 1.394 . S
C311 C310 1.397 . S
C311 C312 1.438 . S
C311 C316 1.429 . S
C312 C311 1.438 . S
C312 C313 1.428 . S
C312 C325 1.394 . S
C313 H305 0.949 . S
C313 C312 1.428 . S
C313 C314 1.345 . S
C314 H306 0.950 . S
C314 C313 1.345 . S
C314 C315 1.424 . S
C315 H307 0.951 . S
C315 C314 1.424 . S
C315 C316 1.347 . S
C316 H308 0.951 . S
C316 C311 1.429 . S
C316 C315 1.347 . S
H317 C318 0.951 . S
C318 H317 0.951 . S
C318 C324 1.265 . S
H319 C324 0.950 . S
H320 C328 0.949 . S
H321 C329 0.950 . S
H322 C330 0.951 . S
H323 C331 0.951 . S
C324 C318 1.265 . S
C324 H319 0.950 . S
C324 C325 1.478 . S
C325 C312 1.394 . S
C325 C324 1.478 . S
C325 C326 1.397 . S
C326 C325 1.397 . S
C326 C327 1.438 . S
C326 C331 1.429 . S
C327 C310 1.394 . S
C327 C326 1.438 . S
C327 C328 1.428 . S
C328 H320 0.949 . S
C328 C327 1.428 . S
C328 C329 1.345 . S
C329 H321 0.950 . S
C329 C328 1.345 . S
C329 C330 1.424 . S
C330 H322 0.951 . S
C330 C329 1.424 . S
C330 C331 1.347 . S
C331 H323 0.951 . S
C331 C326 1.429 . S
C331 C330 1.347 . S
H332 C333 0.951 . S
C333 H332 0.951 . S
C333 C339 1.265 1_556 S
H334 C339 0.950 . S
H335 C343 0.949 . S
H336 C344 0.950 . S
H337 C345 0.951 . S
H338 C346 0.951 . S
C339 C333 1.265 1_554 S
C339 H334 0.950 . S
C339 C340 1.479 . S
C340 C339 1.479 . S
C340 C341 1.404 1_545 S
C340 C357 1.387 1_554 S
C341 C340 1.404 1_565 S
C341 C342 1.438 1_455 S
C341 C346 1.429 . S
C342 C341 1.438 1_655 S
C342 C343 1.428 . S
C342 C355 1.392 1_554 S
C343 H335 0.949 . S
C343 C342 1.428 . S
C343 C344 1.345 . S
C344 H336 0.950 . S
C344 C343 1.345 . S
C344 C345 1.424 1_655 S
C345 H337 0.951 . S
C345 C344 1.424 1_455 S
C345 C346 1.347 . S
C346 H338 0.951 . S
C346 C341 1.429 . S
C346 C345 1.347 . S
H347 C348 0.951 . S
C348 H347 0.951 . S
C348 C354 1.267 1_554 S
H349 C354 0.950 . S
H350 C358 0.949 . S
H351 C359 0.950 . S
H352 C360 0.951 . S
H353 C361 0.951 . S
C354 C348 1.267 1_556 S
C354 H349 0.950 . S
C354 C355 1.477 . S
C355 C342 1.392 1_556 S
C355 C354 1.477 . S
C355 C356 1.399 1_565 S
C356 C355 1.399 1_545 S
C356 C357 1.438 1_655 S
C356 C361 1.429 . S
C357 C340 1.387 1_556 S
C357 C356 1.438 1_455 S
C357 C358 1.428 . S
C358 H350 0.949 . S
C358 C357 1.428 . S
C358 C359 1.345 . S
C359 H351 0.950 . S
C359 C358 1.345 . S
C359 C360 1.424 1_455 S
C360 H352 0.951 . S
C360 C359 1.424 1_655 S
C360 C361 1.347 . S
C361 H353 0.951 . S
C361 C356 1.429 . S
C361 C360 1.347 . S
H362 C363 0.951 . S
C363 H362 0.951 . S
C363 C369 1.265 . S
H364 C369 0.950 . S
H365 C373 0.949 . S
H366 C374 0.950 . S
H367 C375 0.951 . S
H368 C376 0.951 . S
C369 C363 1.265 . S
C369 H364 0.950 . S
C369 C370 1.478 . S
C370 C369 1.478 . S
C370 C371 1.397 1_545 S
C370 C387 1.394 . S
C371 C370 1.397 1_565 S
C371 C372 1.438 1_655 S
C371 C376 1.429 . S
C372 C371 1.438 1_455 S
C372 C373 1.428 . S
C372 C385 1.394 . S
C373 H365 0.949 . S
C373 C372 1.428 . S
C373 C374 1.345 . S
C374 H366 0.950 . S
C374 C373 1.345 . S
C374 C375 1.424 1_455 S
C375 H367 0.951 . S
C375 C374 1.424 1_655 S
C375 C376 1.347 . S
C376 H368 0.951 . S
C376 C371 1.429 . S
C376 C375 1.347 . S
H377 C378 0.951 . S
C378 H377 0.951 . S
C378 C384 1.265 . S
H379 C384 0.950 . S
H380 C388 0.949 . S
H381 C389 0.950 . S
H382 C390 0.951 . S
H383 C391 0.951 . S
C384 C378 1.265 . S
C384 H379 0.950 . S
C384 C385 1.478 . S
C385 C372 1.394 . S
C385 C384 1.478 . S
C385 C386 1.397 1_565 S
C386 C385 1.397 1_545 S
C386 C387 1.438 1_455 S
C386 C391 1.429 . S
C387 C370 1.394 . S
C387 C386 1.438 1_655 S
C387 C388 1.428 . S
C388 H380 0.949 . S
C388 C387 1.428 . S
C388 C389 1.345 . S
C389 H381 0.950 . S
C389 C388 1.345 . S
C389 C390 1.424 1_655 S
C390 H382 0.951 . S
C390 C389 1.424 1_455 S
C390 C391 1.347 . S
C391 H383 0.951 . S
C391 C386 1.429 . S
C391 C390 1.347 . S
H392 C393 0.951 . S
C393 H392 0.951 . S
C393 C399 1.265 . S
H394 C399 0.950 . S
H395 C403 0.949 . S
H396 C404 0.950 1_565 S
H397 C405 0.951 1_565 S
H398 C406 0.951 . S
C399 C393 1.265 . S
C399 H394 0.950 . S
C399 C400 1.478 . S
C400 C399 1.478 . S
C400 C401 1.397 . S
C400 C417 1.394 . S
C401 C400 1.397 . S
C401 C402 1.438 . S
C401 C406 1.429 . S
C402 C401 1.438 . S
C402 C403 1.428 . S
C402 C415 1.394 . S
C403 H395 0.949 . S
C403 C402 1.428 . S
C403 C404 1.345 . S
C404 H396 0.950 1_545 S
C404 C403 1.345 . S
C404 C405 1.424 . S
C405 H397 0.951 1_545 S
C405 C404 1.424 . S
C405 C406 1.347 . S
C406 H398 0.951 . S
C406 C401 1.429 . S
C406 C405 1.347 . S
H407 C408 0.951 . S
C408 H407 0.951 . S
C408 C414 1.265 . S
H409 C414 0.950 . S
H410 C418 0.949 . S
H411 C419 0.950 . S
H412 C420 0.951 . S
H413 C421 0.951 . S
C414 C408 1.265 . S
C414 H409 0.950 . S
C414 C415 1.478 . S
C415 C402 1.394 . S
C415 C414 1.478 . S
C415 C416 1.397 . S
C416 C415 1.397 . S
C416 C417 1.438 . S
C416 C421 1.429 . S
C417 C400 1.394 . S
C417 C416 1.438 . S
C417 C418 1.428 . S
C418 H410 0.949 . S
C418 C417 1.428 . S
C418 C419 1.345 . S
C419 H411 0.950 . S
C419 C418 1.345 . S
C419 C420 1.424 . S
C420 H412 0.951 . S
C420 C419 1.424 . S
C420 C421 1.347 . S
C421 H413 0.951 . S
C421 C416 1.429 . S
C421 C420 1.347 . S
H422 C423 0.951 . S
C423 H422 0.951 . S
C423 C429 1.265 . S
H424 C429 0.950 . S
H425 C433 0.949 . S
H426 C434 0.950 . S
H427 C435 0.951 . S
H428 C436 0.951 . S
C429 C423 1.265 . S
C429 H424 0.950 . S
C429 C430 1.478 . S
C430 C429 1.478 . S
C430 C431 1.397 . S
C430 C447 1.394 . S
C431 C430 1.397 . S
C431 C432 1.438 . S
C431 C436 1.429 . S
C432 C431 1.438 . S
C432 C433 1.428 . S
C432 C445 1.394 . S
C433 H425 0.949 . S
C433 C432 1.428 . S
C433 C434 1.345 . S
C434 H426 0.950 . S
C434 C433 1.345 . S
C434 C435 1.424 . S
C435 H427 0.951 . S
C435 C434 1.424 . S
C435 C436 1.347 . S
C436 H428 0.951 . S
C436 C431 1.429 . S
C436 C435 1.347 . S
H437 C438 0.951 . S
C438 H437 0.951 . S
C438 C444 1.265 . S
H439 C444 0.950 . S
H440 C448 0.949 . S
H441 C449 0.950 1_545 S
H442 C450 0.951 1_545 S
H443 C451 0.951 . S
C444 C438 1.265 . S
C444 H439 0.950 . S
C444 C445 1.478 . S
C445 C432 1.394 . S
C445 C444 1.478 . S
C445 C446 1.397 . S
C446 C445 1.397 . S
C446 C447 1.438 . S
C446 C451 1.429 . S
C447 C430 1.394 . S
C447 C446 1.438 . S
C447 C448 1.428 . S
C448 H440 0.949 . S
C448 C447 1.428 . S
C448 C449 1.345 . S
C449 H441 0.950 1_565 S
C449 C448 1.345 . S
C449 C450 1.424 . S
C450 H442 0.951 1_565 S
C450 C449 1.424 . S
C450 C451 1.347 . S
C451 H443 0.951 . S
C451 C446 1.429 . S
C451 C450 1.347 . S
H452 C453 0.951 . S
C453 H452 0.951 . S
C453 C459 1.265 . S
H454 C459 0.950 . S
H455 C463 0.949 . S
H456 C464 0.950 1_545 S
H457 C465 0.951 1_545 S
H458 C466 0.951 . S
C459 C453 1.265 . S
C459 H454 0.950 . S
C459 C460 1.478 . S
C460 C459 1.478 . S
C460 C461 1.397 . S
C460 C477 1.394 . S
C461 C460 1.397 . S
C461 C462 1.438 . S
C461 C466 1.429 . S
C462 C461 1.438 . S
C462 C463 1.428 . S
C462 C475 1.394 . S
C463 H455 0.949 . S
C463 C462 1.428 . S
C463 C464 1.345 . S
C464 H456 0.950 1_565 S
C464 C463 1.345 . S
C464 C465 1.424 . S
C465 H457 0.951 1_565 S
C465 C464 1.424 . S
C465 C466 1.347 . S
C466 H458 0.951 . S
C466 C461 1.429 . S
C466 C465 1.347 . S
H467 C468 0.951 . S
C468 H467 0.951 . S
C468 C474 1.265 . S
H469 C474 0.950 . S
H470 C478 0.949 . S
H471 C479 0.950 . S
H472 C480 0.951 . S
H473 C481 0.951 . S
C474 C468 1.265 . S
C474 H469 0.950 . S
C474 C475 1.478 . S
C475 C462 1.394 . S
C475 C474 1.478 . S
C475 C476 1.397 . S
C476 C475 1.397 . S
C476 C477 1.438 . S
C476 C481 1.429 . S
C477 C460 1.394 . S
C477 C476 1.438 . S
C477 C478 1.428 . S
C478 H470 0.949 . S
C478 C477 1.428 . S
C478 C479 1.345 . S
C479 H471 0.950 . S
C479 C478 1.345 . S
C479 C480 1.424 . S
C480 H472 0.951 . S
C480 C479 1.424 . S
C480 C481 1.347 . S
C481 H473 0.951 . S
C481 C476 1.429 . S
C481 C480 1.347 . S
H482 C483 0.951 . S
C483 H482 0.951 . S
C483 C489 1.265 . S
H484 C489 0.950 . S
H485 C493 0.949 . S
H486 C494 0.950 . S
H487 C495 0.951 . S
H488 C496 0.951 . S
C489 C483 1.265 . S
C489 H484 0.950 . S
C489 C490 1.478 . S
C490 C489 1.478 . S
C490 C491 1.397 . S
C490 C507 1.394 . S
C491 C490 1.397 . S
C491 C492 1.438 . S
C491 C496 1.429 . S
C492 C491 1.438 . S
C492 C493 1.428 . S
C492 C505 1.394 . S
C493 H485 0.949 . S
C493 C492 1.428 . S
C493 C494 1.345 . S
C494 H486 0.950 . S
C494 C493 1.345 . S
C494 C495 1.424 . S
C495 H487 0.951 . S
C495 C494 1.424 . S
C495 C496 1.347 . S
C496 H488 0.951 . S
C496 C491 1.429 . S
C496 C495 1.347 . S
H497 C498 0.951 . S
C498 H497 0.951 . S
C498 C504 1.265 . S
H499 C504 0.950 . S
H500 C508 0.949 . S
H501 C509 0.950 1_565 S
H502 C510 0.951 1_565 S
H503 C511 0.951 . S
C504 C498 1.265 . S
C504 H499 0.950 . S
C504 C505 1.478 . S
C505 C492 1.394 . S
C505 C504 1.478 . S
C505 C506 1.397 . S
C506 C505 1.397 . S
C506 C507 1.438 . S
C506 C511 1.429 . S
C507 C490 1.394 . S
C507 C506 1.438 . S
C507 C508 1.428 . S
C508 H500 0.949 . S
C508 C507 1.428 . S
C508 C509 1.345 . S
C509 H501 0.950 1_545 S
C509 C508 1.345 . S
C509 C510 1.424 . S
C510 H502 0.951 1_545 S
C510 C509 1.424 . S
C510 C511 1.347 . S
C511 H503 0.951 . S
C511 C506 1.429 . S
C511 C510 1.347 . S
H512 C513 0.951 . S
C513 H512 0.951 . S
C513 C519 1.265 1_455 S
H514 C519 0.950 . S
H515 C523 0.949 . S
H516 C524 0.950 . S
H517 C525 0.951 . S
H518 C526 0.951 . S
C519 C513 1.265 1_655 S
C519 H514 0.950 . S
C519 C520 1.478 . S
C520 C519 1.478 . S
C520 C521 1.397 . S
C520 C537 1.394 . S
C521 C520 1.397 . S
C521 C522 1.438 . S
C521 C526 1.429 . S
C522 C521 1.438 . S
C522 C523 1.428 . S
C522 C535 1.394 . S
C523 H515 0.949 . S
C523 C522 1.428 . S
C523 C524 1.345 . S
C524 H516 0.950 . S
C524 C523 1.345 . S
C524 C525 1.424 . S
C525 H517 0.951 . S
C525 C524 1.424 . S
C525 C526 1.347 . S
C526 H518 0.951 . S
C526 C521 1.429 . S
C526 C525 1.347 . S
H527 C528 0.951 . S
C528 H527 0.951 . S
C528 C534 1.265 . S
H529 C534 0.950 . S
H530 C538 0.949 . S
H531 C539 0.950 . S
H532 C540 0.951 . S
H533 C541 0.951 . S
C534 C528 1.265 . S
C534 H529 0.950 . S
C534 C535 1.478 . S
C535 C522 1.394 . S
C535 C534 1.478 . S
C535 C536 1.397 . S
C536 C535 1.397 . S
C536 C537 1.438 . S
C536 C541 1.429 . S
C537 C520 1.394 . S
C537 C536 1.438 . S
C537 C538 1.428 1_655 S
C538 H530 0.949 . S
C538 C537 1.428 1_455 S
C538 C539 1.345 . S
C539 H531 0.950 . S
C539 C538 1.345 . S
C539 C540 1.424 . S
C540 H532 0.951 . S
C540 C539 1.424 . S
C540 C541 1.347 1_455 S
C541 H533 0.951 . S
C541 C536 1.429 . S
C541 C540 1.347 1_655 S
H542 C543 0.951 . S
C543 H542 0.951 . S
C543 C549 1.265 . S
H544 C549 0.950 . S
H545 C553 0.949 . S
H546 C554 0.950 . S
H547 C555 0.951 . S
H548 C556 0.951 . S
C549 C543 1.265 . S
C549 H544 0.950 . S
C549 C550 1.478 . S
C550 C549 1.478 . S
C550 C551 1.397 . S
C550 C567 1.394 . S
C551 C550 1.397 . S
C551 C552 1.438 . S
C551 C556 1.429 . S
C552 C551 1.438 . S
C552 C553 1.428 . S
C552 C565 1.394 1_655 S
C553 H545 0.949 . S
C553 C552 1.428 . S
C553 C554 1.345 . S
C554 H546 0.950 . S
C554 C553 1.345 . S
C554 C555 1.424 . S
C555 H547 0.951 . S
C555 C554 1.424 . S
C555 C556 1.347 . S
C556 H548 0.951 . S
C556 C551 1.429 . S
C556 C555 1.347 . S
H557 C558 0.951 1_655 S
C558 H557 0.951 1_455 S
C558 C564 1.265 . S
H559 C564 0.950 . S
H560 C568 0.949 . S
H561 C569 0.950 . S
H562 C570 0.951 . S
H563 C571 0.951 . S
C564 C558 1.265 . S
C564 H559 0.950 . S
C564 C565 1.478 . S
C565 C552 1.394 1_455 S
C565 C564 1.478 . S
C565 C566 1.397 . S
C566 C565 1.397 . S
C566 C567 1.438 1_455 S
C566 C571 1.429 . S
C567 C550 1.394 . S
C567 C566 1.438 1_655 S
C567 C568 1.428 . S
C568 H560 0.949 . S
C568 C567 1.428 . S
C568 C569 1.345 1_655 S
C569 H561 0.950 . S
C569 C568 1.345 1_455 S
C569 C570 1.424 . S
C570 H562 0.951 . S
C570 C569 1.424 . S
C570 C571 1.347 . S
C571 H563 0.951 . S
C571 C566 1.429 . S
C571 C570 1.347 . S
H572 C573 0.951 . S
C573 H572 0.951 . S
C573 C579 1.265 . S
H574 C579 0.950 . S
H575 C583 0.949 . S
H576 C584 0.950 . S
H577 C585 0.951 . S
H578 C586 0.951 . S
C579 C573 1.265 . S
C579 H574 0.950 . S
C579 C580 1.478 . S
C580 C579 1.478 . S
C580 C581 1.397 . S
C580 C597 1.394 . S
C581 C580 1.397 . S
C581 C582 1.438 . S
C581 C586 1.429 . S
C582 C581 1.438 . S
C582 C583 1.428 . S
C582 C595 1.394 1_455 S
C583 H575 0.949 . S
C583 C582 1.428 . S
C583 C584 1.345 . S
C584 H576 0.950 . S
C584 C583 1.345 . S
C584 C585 1.424 . S
C585 H577 0.951 . S
C585 C584 1.424 . S
C585 C586 1.347 . S
C586 H578 0.951 . S
C586 C581 1.429 . S
C586 C585 1.347 . S
H587 C588 0.951 1_455 S
C588 H587 0.951 1_655 S
C588 C594 1.265 . S
H589 C594 0.950 . S
H590 C598 0.949 . S
H591 C599 0.950 . S
H592 C600 0.951 . S
H593 C601 0.951 . S
C594 C588 1.265 . S
C594 H589 0.950 . S
C594 C595 1.478 . S
C595 C582 1.394 1_655 S
C595 C594 1.478 . S
C595 C596 1.397 1_655 S
C596 C595 1.397 1_455 S
C596 C597 1.438 . S
C596 C601 1.429 1_455 S
C597 C580 1.394 . S
C597 C596 1.438 . S
C597 C598 1.428 . S
C598 H590 0.949 . S
C598 C597 1.428 . S
C598 C599 1.345 . S
C599 H591 0.950 . S
C599 C598 1.345 . S
C599 C600 1.424 1_455 S
C600 H592 0.951 . S
C600 C599 1.424 1_655 S
C600 C601 1.347 . S
C601 H593 0.951 . S
C601 C596 1.429 1_655 S
C601 C600 1.347 . S
H602 C603 0.951 . S
C603 H602 0.951 . S
C603 C609 1.265 . S
H604 C609 0.950 . S
H605 C613 0.949 1_655 S
H606 C614 0.950 . S
H607 C615 0.951 . S
H608 C616 0.951 . S
C609 C603 1.265 . S
C609 H604 0.950 . S
C609 C610 1.478 . S
C610 C609 1.478 . S
C610 C611 1.397 . S
C610 C627 1.394 . S
C611 C610 1.397 . S
C611 C612 1.438 . S
C611 C616 1.429 . S
C612 C611 1.438 . S
C612 C613 1.428 . S
C612 C625 1.394 1_455 S
C613 H605 0.949 1_455 S
C613 C612 1.428 . S
C613 C614 1.345 . S
C614 H606 0.950 . S
C614 C613 1.345 . S
C614 C615 1.424 . S
C615 H607 0.951 . S
C615 C614 1.424 . S
C615 C616 1.347 . S
C616 H608 0.951 . S
C616 C611 1.429 . S
C616 C615 1.347 . S
H617 C618 0.951 1_455 S
C618 H617 0.951 1_655 S
C618 C624 1.265 . S
H619 C624 0.950 . S
H620 C628 0.949 . S
H621 C629 0.950 . S
H622 C630 0.951 . S
H623 C631 0.951 . S
C624 C618 1.265 . S
C624 H619 0.950 . S
C624 C625 1.478 . S
C625 C612 1.394 1_655 S
C625 C624 1.478 . S
C625 C626 1.397 1_655 S
C626 C625 1.397 1_455 S
C626 C627 1.438 . S
C626 C631 1.429 1_455 S
C627 C610 1.394 . S
C627 C626 1.438 . S
C627 C628 1.428 . S
C628 H620 0.949 . S
C628 C627 1.428 . S
C628 C629 1.345 . S
C629 H621 0.950 . S
C629 C628 1.345 . S
C629 C630 1.424 1_455 S
C630 H622 0.951 . S
C630 C629 1.424 1_655 S
C630 C631 1.347 . S
C631 H623 0.951 . S
C631 C626 1.429 1_655 S
C631 C630 1.347 . S
C153 C27 1.978 . S
C168 C6 1.978 . S
C183 C65 1.981 . S
C198 C44 1.981 . S
C213 C103 1.978 . S
C228 C82 1.978 . S
C243 C141 2.006 . S
C258 C120 2.006 . S
C273 C68 1.637 . S
C288 C1 1.637 . S
C303 C144 1.615 . S
C318 C77 1.615 . S
C333 C30 1.615 . S
C348 C39 1.615 . S
C363 C115 1.615 . S
C378 C106 1.615 . S
C393 C122 1.081 . S
C408 C18 1.226 . S
C423 C46 1.241 . S
C438 C94 1.157 . S
C453 C105 1.237 . S
C468 C52 1.145 . S
C483 C29 1.080 . S
C498 C128 1.240 . S
C513 C84 1.241 . S
C528 C56 1.151 . S
C543 C132 1.220 . S
C558 C8 1.081 . S
C573 C14 1.238 . S
C588 C143 1.083 . S
C603 C90 1.234 . S
C618 C67 1.083 . S
