# Generated by pormake.
# Topology bcu-l, (5)-cn, num edge types: 1
# Building blocks:
#     Node 0, Type 0, BuildingBlock: BEQFEK_clean_sbu_0, # of connection points: 5
#     Node 1, Type 0, BuildingBlock: BEQFEK_clean_sbu_0, # of connection points: 5
#     Node 2, Type 0, BuildingBlock: BEQFEK_clean_sbu_0, # of connection points: 5
#     Node 3, Type 0, BuildingBlock: BEQFEK_clean_sbu_0, # of connection points: 5
#     Node 4, Type 0, BuildingBlock: BEQFEK_clean_sbu_0, # of connection points: 5
#     Node 5, Type 0, BuildingBlock: BEQFEK_clean_sbu_0, # of connection points: 5
#     Node 6, Type 0, BuildingBlock: BEQFEK_clean_sbu_0, # of connection points: 5
#     Node 7, Type 0, BuildingBlock: BEQFEK_clean_sbu_0, # of connection points: 5
#     Node 8, Type 0, BuildingBlock: BEQFEK_clean_sbu_0, # of connection points: 5
#     Node 9, Type 0, BuildingBlock: BEQFEK_clean_sbu_0, # of connection points: 5
#     Node 10, Type 0, BuildingBlock: BEQFEK_clean_sbu_0, # of connection points: 5
#     Node 11, Type 0, BuildingBlock: BEQFEK_clean_sbu_0, # of connection points: 5
#     Node 12, Type 0, BuildingBlock: BEQFEK_clean_sbu_0, # of connection points: 5
#     Node 13, Type 0, BuildingBlock: BEQFEK_clean_sbu_0, # of connection points: 5
#     Node 14, Type 0, BuildingBlock: BEQFEK_clean_sbu_0, # of connection points: 5
#     Node 15, Type 0, BuildingBlock: BEQFEK_clean_sbu_0, # of connection points: 5
#     Node 16, Type 0, BuildingBlock: BEQFEK_clean_sbu_0, # of connection points: 5
#     Node 17, Type 0, BuildingBlock: BEQFEK_clean_sbu_0, # of connection points: 5
#     Node 18, Type 0, BuildingBlock: BEQFEK_clean_sbu_0, # of connection points: 5
#     Node 19, Type 0, BuildingBlock: BEQFEK_clean_sbu_0, # of connection points: 5
#     Node 20, Type 0, BuildingBlock: BEQFEK_clean_sbu_0, # of connection points: 5
#     Node 21, Type 0, BuildingBlock: BEQFEK_clean_sbu_0, # of connection points: 5
#     Node 22, Type 0, BuildingBlock: BEQFEK_clean_sbu_0, # of connection points: 5
#     Node 23, Type 0, BuildingBlock: BEQFEK_clean_sbu_0, # of connection points: 5
#     Node 24, Type 0, BuildingBlock: BEQFEK_clean_sbu_0, # of connection points: 5
#     Node 25, Type 0, BuildingBlock: BEQFEK_clean_sbu_0, # of connection points: 5
#     Node 26, Type 0, BuildingBlock: BEQFEK_clean_sbu_0, # of connection points: 5
#     Node 27, Type 0, BuildingBlock: BEQFEK_clean_sbu_0, # of connection points: 5
#     Node 28, Type 0, BuildingBlock: BEQFEK_clean_sbu_0, # of connection points: 5
#     Node 29, Type 0, BuildingBlock: BEQFEK_clean_sbu_0, # of connection points: 5
#     Node 30, Type 0, BuildingBlock: BEQFEK_clean_sbu_0, # of connection points: 5
#     Node 31, Type 0, BuildingBlock: BEQFEK_clean_sbu_0, # of connection points: 5
#     Node 32, Type 0, BuildingBlock: BEQFEK_clean_sbu_0, # of connection points: 5
#     Node 33, Type 0, BuildingBlock: BEQFEK_clean_sbu_0, # of connection points: 5
#     Node 34, Type 0, BuildingBlock: BEQFEK_clean_sbu_0, # of connection points: 5
#     Node 35, Type 0, BuildingBlock: BEQFEK_clean_sbu_0, # of connection points: 5
#     Node 36, Type 0, BuildingBlock: BEQFEK_clean_sbu_0, # of connection points: 5
#     Node 37, Type 0, BuildingBlock: BEQFEK_clean_sbu_0, # of connection points: 5
#     Node 38, Type 0, BuildingBlock: BEQFEK_clean_sbu_0, # of connection points: 5
#     Node 39, Type 0, BuildingBlock: BEQFEK_clean_sbu_0, # of connection points: 5
#     Node 40, Type 0, BuildingBlock: BEQFEK_clean_sbu_0, # of connection points: 5
#     Node 41, Type 0, BuildingBlock: BEQFEK_clean_sbu_0, # of connection points: 5
#     Node 42, Type 0, BuildingBlock: BEQFEK_clean_sbu_0, # of connection points: 5
#     Node 43, Type 0, BuildingBlock: BEQFEK_clean_sbu_0, # of connection points: 5
#     Node 44, Type 0, BuildingBlock: BEQFEK_clean_sbu_0, # of connection points: 5
#     Node 45, Type 0, BuildingBlock: BEQFEK_clean_sbu_0, # of connection points: 5
#     Node 46, Type 0, BuildingBlock: BEQFEK_clean_sbu_0, # of connection points: 5
#     Node 47, Type 0, BuildingBlock: BEQFEK_clean_sbu_0, # of connection points: 5
#     Edge 48, Type (0, 0), BuildingBlock: CIFDUS_clean_linker_0, # of connection points: 2
#     Edge 49, Type (0, 0), BuildingBlock: CIFDUS_clean_linker_0, # of connection points: 2
#     Edge 50, Type (0, 0), BuildingBlock: CIFDUS_clean_linker_0, # of connection points: 2
#     Edge 51, Type (0, 0), BuildingBlock: CIFDUS_clean_linker_0, # of connection points: 2
#     Edge 52, Type (0, 0), BuildingBlock: CIFDUS_clean_linker_0, # of connection points: 2
#     Edge 53, Type (0, 0), BuildingBlock: CIFDUS_clean_linker_0, # of connection points: 2
#     Edge 54, Type (0, 0), BuildingBlock: CIFDUS_clean_linker_0, # of connection points: 2
#     Edge 55, Type (0, 0), BuildingBlock: CIFDUS_clean_linker_0, # of connection points: 2
#     Edge 56, Type (0, 0), BuildingBlock: CIFDUS_clean_linker_0, # of connection points: 2
#     Edge 57, Type (0, 0), BuildingBlock: CIFDUS_clean_linker_0, # of connection points: 2
#     Edge 58, Type (0, 0), BuildingBlock: CIFDUS_clean_linker_0, # of connection points: 2
#     Edge 59, Type (0, 0), BuildingBlock: CIFDUS_clean_linker_0, # of connection points: 2
#     Edge 60, Type (0, 0), BuildingBlock: CIFDUS_clean_linker_0, # of connection points: 2
#     Edge 61, Type (0, 0), BuildingBlock: CIFDUS_clean_linker_0, # of connection points: 2
#     Edge 62, Type (0, 0), BuildingBlock: CIFDUS_clean_linker_0, # of connection points: 2
#     Edge 63, Type (0, 0), BuildingBlock: CIFDUS_clean_linker_0, # of connection points: 2
#     Edge 64, Type (0, 0), BuildingBlock: CIFDUS_clean_linker_0, # of connection points: 2
#     Edge 65, Type (0, 0), BuildingBlock: CIFDUS_clean_linker_0, # of connection points: 2
#     Edge 66, Type (0, 0), BuildingBlock: CIFDUS_clean_linker_0, # of connection points: 2
#     Edge 67, Type (0, 0), BuildingBlock: CIFDUS_clean_linker_0, # of connection points: 2
#     Edge 68, Type (0, 0), BuildingBlock: CIFDUS_clean_linker_0, # of connection points: 2
#     Edge 69, Type (0, 0), BuildingBlock: CIFDUS_clean_linker_0, # of connection points: 2
#     Edge 70, Type (0, 0), BuildingBlock: CIFDUS_clean_linker_0, # of connection points: 2
#     Edge 71, Type (0, 0), BuildingBlock: CIFDUS_clean_linker_0, # of connection points: 2
#     Edge 72, Type (0, 0), BuildingBlock: CIFDUS_clean_linker_0, # of connection points: 2
#     Edge 73, Type (0, 0), BuildingBlock: CIFDUS_clean_linker_0, # of connection points: 2
#     Edge 74, Type (0, 0), BuildingBlock: CIFDUS_clean_linker_0, # of connection points: 2
#     Edge 75, Type (0, 0), BuildingBlock: CIFDUS_clean_linker_0, # of connection points: 2
#     Edge 76, Type (0, 0), BuildingBlock: CIFDUS_clean_linker_0, # of connection points: 2
#     Edge 77, Type (0, 0), BuildingBlock: CIFDUS_clean_linker_0, # of connection points: 2
#     Edge 78, Type (0, 0), BuildingBlock: CIFDUS_clean_linker_0, # of connection points: 2
#     Edge 79, Type (0, 0), BuildingBlock: CIFDUS_clean_linker_0, # of connection points: 2
#     Edge 80, Type (0, 0), BuildingBlock: CIFDUS_clean_linker_0, # of connection points: 2
#     Edge 81, Type (0, 0), BuildingBlock: CIFDUS_clean_linker_0, # of connection points: 2
#     Edge 82, Type (0, 0), BuildingBlock: CIFDUS_clean_linker_0, # of connection points: 2
#     Edge 83, Type (0, 0), BuildingBlock: CIFDUS_clean_linker_0, # of connection points: 2
#     Edge 84, Type (0, 0), BuildingBlock: CIFDUS_clean_linker_0, # of connection points: 2
#     Edge 85, Type (0, 0), BuildingBlock: CIFDUS_clean_linker_0, # of connection points: 2
#     Edge 86, Type (0, 0), BuildingBlock: CIFDUS_clean_linker_0, # of connection points: 2
#     Edge 87, Type (0, 0), BuildingBlock: CIFDUS_clean_linker_0, # of connection points: 2
#     Edge 88, Type (0, 0), BuildingBlock: CIFDUS_clean_linker_0, # of connection points: 2
#     Edge 89, Type (0, 0), BuildingBlock: CIFDUS_clean_linker_0, # of connection points: 2
#     Edge 90, Type (0, 0), BuildingBlock: CIFDUS_clean_linker_0, # of connection points: 2
#     Edge 91, Type (0, 0), BuildingBlock: CIFDUS_clean_linker_0, # of connection points: 2
#     Edge 92, Type (0, 0), BuildingBlock: CIFDUS_clean_linker_0, # of connection points: 2
#     Edge 93, Type (0, 0), BuildingBlock: CIFDUS_clean_linker_0, # of connection points: 2
#     Edge 94, Type (0, 0), BuildingBlock: CIFDUS_clean_linker_0, # of connection points: 2
#     Edge 95, Type (0, 0), BuildingBlock: CIFDUS_clean_linker_0, # of connection points: 2
#     Edge 96, Type (0, 0), BuildingBlock: CIFDUS_clean_linker_0, # of connection points: 2
#     Edge 97, Type (0, 0), BuildingBlock: CIFDUS_clean_linker_0, # of connection points: 2
#     Edge 98, Type (0, 0), BuildingBlock: CIFDUS_clean_linker_0, # of connection points: 2
#     Edge 99, Type (0, 0), BuildingBlock: CIFDUS_clean_linker_0, # of connection points: 2
#     Edge 100, Type (0, 0), BuildingBlock: CIFDUS_clean_linker_0, # of connection points: 2
#     Edge 101, Type (0, 0), BuildingBlock: CIFDUS_clean_linker_0, # of connection points: 2
#     Edge 102, Type (0, 0), BuildingBlock: CIFDUS_clean_linker_0, # of connection points: 2
#     Edge 103, Type (0, 0), BuildingBlock: CIFDUS_clean_linker_0, # of connection points: 2
#     Edge 104, Type (0, 0), BuildingBlock: CIFDUS_clean_linker_0, # of connection points: 2
#     Edge 105, Type (0, 0), BuildingBlock: CIFDUS_clean_linker_0, # of connection points: 2
#     Edge 106, Type (0, 0), BuildingBlock: CIFDUS_clean_linker_0, # of connection points: 2
#     Edge 107, Type (0, 0), BuildingBlock: CIFDUS_clean_linker_0, # of connection points: 2
#     Edge 108, Type (0, 0), BuildingBlock: CIFDUS_clean_linker_0, # of connection points: 2
#     Edge 109, Type (0, 0), BuildingBlock: CIFDUS_clean_linker_0, # of connection points: 2
#     Edge 110, Type (0, 0), BuildingBlock: CIFDUS_clean_linker_0, # of connection points: 2
#     Edge 111, Type (0, 0), BuildingBlock: CIFDUS_clean_linker_0, # of connection points: 2
#     Edge 112, Type (0, 0), BuildingBlock: CIFDUS_clean_linker_0, # of connection points: 2
#     Edge 113, Type (0, 0), BuildingBlock: CIFDUS_clean_linker_0, # of connection points: 2
#     Edge 114, Type (0, 0), BuildingBlock: CIFDUS_clean_linker_0, # of connection points: 2
#     Edge 115, Type (0, 0), BuildingBlock: CIFDUS_clean_linker_0, # of connection points: 2
#     Edge 116, Type (0, 0), BuildingBlock: CIFDUS_clean_linker_0, # of connection points: 2
#     Edge 117, Type (0, 0), BuildingBlock: CIFDUS_clean_linker_0, # of connection points: 2
#     Edge 118, Type (0, 0), BuildingBlock: CIFDUS_clean_linker_0, # of connection points: 2
#     Edge 119, Type (0, 0), BuildingBlock: CIFDUS_clean_linker_0, # of connection points: 2
#     Edge 120, Type (0, 0), BuildingBlock: CIFDUS_clean_linker_0, # of connection points: 2
#     Edge 121, Type (0, 0), BuildingBlock: CIFDUS_clean_linker_0, # of connection points: 2
#     Edge 122, Type (0, 0), BuildingBlock: CIFDUS_clean_linker_0, # of connection points: 2
#     Edge 123, Type (0, 0), BuildingBlock: CIFDUS_clean_linker_0, # of connection points: 2
#     Edge 124, Type (0, 0), BuildingBlock: CIFDUS_clean_linker_0, # of connection points: 2
#     Edge 125, Type (0, 0), BuildingBlock: CIFDUS_clean_linker_0, # of connection points: 2
#     Edge 126, Type (0, 0), BuildingBlock: CIFDUS_clean_linker_0, # of connection points: 2
#     Edge 127, Type (0, 0), BuildingBlock: CIFDUS_clean_linker_0, # of connection points: 2
#     Edge 128, Type (0, 0), BuildingBlock: CIFDUS_clean_linker_0, # of connection points: 2
#     Edge 129, Type (0, 0), BuildingBlock: CIFDUS_clean_linker_0, # of connection points: 2
#     Edge 130, Type (0, 0), BuildingBlock: CIFDUS_clean_linker_0, # of connection points: 2
#     Edge 131, Type (0, 0), BuildingBlock: CIFDUS_clean_linker_0, # of connection points: 2
#     Edge 132, Type (0, 0), BuildingBlock: CIFDUS_clean_linker_0, # of connection points: 2
#     Edge 133, Type (0, 0), BuildingBlock: CIFDUS_clean_linker_0, # of connection points: 2
#     Edge 134, Type (0, 0), BuildingBlock: CIFDUS_clean_linker_0, # of connection points: 2
#     Edge 135, Type (0, 0), BuildingBlock: CIFDUS_clean_linker_0, # of connection points: 2
#     Edge 136, Type (0, 0), BuildingBlock: CIFDUS_clean_linker_0, # of connection points: 2
#     Edge 137, Type (0, 0), BuildingBlock: CIFDUS_clean_linker_0, # of connection points: 2
#     Edge 138, Type (0, 0), BuildingBlock: CIFDUS_clean_linker_0, # of connection points: 2
#     Edge 139, Type (0, 0), BuildingBlock: CIFDUS_clean_linker_0, # of connection points: 2
#     Edge 140, Type (0, 0), BuildingBlock: CIFDUS_clean_linker_0, # of connection points: 2
#     Edge 141, Type (0, 0), BuildingBlock: CIFDUS_clean_linker_0, # of connection points: 2
#     Edge 142, Type (0, 0), BuildingBlock: CIFDUS_clean_linker_0, # of connection points: 2
#     Edge 143, Type (0, 0), BuildingBlock: CIFDUS_clean_linker_0, # of connection points: 2
#     Edge 144, Type (0, 0), BuildingBlock: CIFDUS_clean_linker_0, # of connection points: 2
#     Edge 145, Type (0, 0), BuildingBlock: CIFDUS_clean_linker_0, # of connection points: 2
#     Edge 146, Type (0, 0), BuildingBlock: CIFDUS_clean_linker_0, # of connection points: 2
#     Edge 147, Type (0, 0), BuildingBlock: CIFDUS_clean_linker_0, # of connection points: 2
#     Edge 148, Type (0, 0), BuildingBlock: CIFDUS_clean_linker_0, # of connection points: 2
#     Edge 149, Type (0, 0), BuildingBlock: CIFDUS_clean_linker_0, # of connection points: 2
#     Edge 150, Type (0, 0), BuildingBlock: CIFDUS_clean_linker_0, # of connection points: 2
#     Edge 151, Type (0, 0), BuildingBlock: CIFDUS_clean_linker_0, # of connection points: 2
#     Edge 152, Type (0, 0), BuildingBlock: CIFDUS_clean_linker_0, # of connection points: 2
#     Edge 153, Type (0, 0), BuildingBlock: CIFDUS_clean_linker_0, # of connection points: 2
#     Edge 154, Type (0, 0), BuildingBlock: CIFDUS_clean_linker_0, # of connection points: 2
#     Edge 155, Type (0, 0), BuildingBlock: CIFDUS_clean_linker_0, # of connection points: 2
#     Edge 156, Type (0, 0), BuildingBlock: CIFDUS_clean_linker_0, # of connection points: 2
#     Edge 157, Type (0, 0), BuildingBlock: CIFDUS_clean_linker_0, # of connection points: 2
#     Edge 158, Type (0, 0), BuildingBlock: CIFDUS_clean_linker_0, # of connection points: 2
#     Edge 159, Type (0, 0), BuildingBlock: CIFDUS_clean_linker_0, # of connection points: 2
#     Edge 160, Type (0, 0), BuildingBlock: CIFDUS_clean_linker_0, # of connection points: 2
#     Edge 161, Type (0, 0), BuildingBlock: CIFDUS_clean_linker_0, # of connection points: 2
#     Edge 162, Type (0, 0), BuildingBlock: CIFDUS_clean_linker_0, # of connection points: 2
#     Edge 163, Type (0, 0), BuildingBlock: CIFDUS_clean_linker_0, # of connection points: 2
#     Edge 164, Type (0, 0), BuildingBlock: CIFDUS_clean_linker_0, # of connection points: 2
#     Edge 165, Type (0, 0), BuildingBlock: CIFDUS_clean_linker_0, # of connection points: 2
#     Edge 166, Type (0, 0), BuildingBlock: CIFDUS_clean_linker_0, # of connection points: 2
#     Edge 167, Type (0, 0), BuildingBlock: CIFDUS_clean_linker_0, # of connection points: 2
# Relax obj value: 0.117
# Max RMSD: 0.101
# Mean RMSD: 0.101
data_MOF--net-bcu-l--node1-BEQFEK_clean_sbu_0--edge1-CIFDUS_clean_linker_0
_symmetry_space_group_name_H-M    P1
_symmetry_Int_Tables_number       1
_symmetry_cell_setting            triclinic
loop_
_symmetry_equiv_pos_as_xyz
'x, y, z'
_cell_length_a     60.523304
_cell_length_b     60.637181
_cell_length_c     60.424463
_cell_angle_alpha  90.09464
_cell_angle_beta   89.99012
_cell_angle_gamma 89.953197
loop_
_atom_site_label
_atom_site_type_symbol
_atom_site_fract_x
_atom_site_fract_y
_atom_site_fract_z
_atom_type_partial_charge
Co0 Co 0.02825 0.24182 0.38461 0.0
Co1 Co 0.99032 0.21205 0.36597 0.0
C2 C 0.98244 0.24339 0.40399 0.0
O3 O 1.00256 0.24919 0.40357 0.0
O4 O 0.97505 0.22908 0.39045 0.0
C5 C 0.05457 0.25174 0.41997 0.0
O6 O 0.03968 0.23868 0.4288 0.0
C7 C 0.95996 0.17505 0.37142 0.0
C8 C 0.95051 0.16635 0.33726 0.0
C9 C 0.94739 0.16008 0.35916 0.0
N10 N 0.96989 0.1892 0.35744 0.0
N11 N 0.96405 0.18401 0.33703 0.0
C12 C 0.96452 0.17489 0.39577 0.0
H13 H 0.97997 0.18401 0.39948 0.0
H14 H 0.96599 0.15772 0.40195 0.0
H15 H 0.95076 0.18322 0.40458 0.0
C16 C 0.05323 0.20071 0.38174 0.0
N17 N 0.03374 0.21145 0.38192 0.0
N18 N 0.01808 0.1984 0.37445 0.0
C19 C 0.0272 0.1785 0.36981 0.0
C20 C 0.04987 0.17928 0.37429 0.0
C21 C 0.07507 0.21216 0.38416 0.0
H22 H 0.07423 0.22877 0.37659 0.0
H23 H 0.07897 0.21401 0.402 0.0
H24 H 0.08866 0.20298 0.37601 0.0
O25 O 0.02421 0.25349 0.35465 0.0
O26 O 0.99659 0.23332 0.34068 0.0
H27 H 1.00837 0.16428 0.34344 0.0
H28 H 0.02508 0.14454 0.35857 0.0
C29 C 0.01473 0.15957 0.35999 0.0
H30 H 1.00046 0.15558 0.37068 0.0
H31 H 0.96963 0.19223 0.32294 0.0
O32 O 0.0535 0.25598 0.39943 0.0
C33 C 1.0111 0.24863 0.33887 0.0
Co34 Co 0.81411 0.02632 0.38754 0.0
Co35 Co 0.84575 0.99008 0.36829 0.0
C36 C 0.81373 0.9797 0.40498 0.0
O37 O 0.80585 0.99911 0.40423 0.0
O38 O 0.82992 0.97412 0.39274 0.0
C39 C 0.80219 0.05092 0.42405 0.0
O40 O 0.81395 0.03509 0.43308 0.0
C41 C 0.88356 0.96034 0.37301 0.0
C42 C 0.89229 0.95165 0.33867 0.0
C43 C 0.89865 0.94812 0.36049 0.0
N44 N 0.86925 0.97043 0.35926 0.0
N45 N 0.87448 0.96506 0.33873 0.0
C46 C 0.88366 0.96432 0.39748 0.0
H47 H 0.87446 0.97963 0.40155 0.0
H48 H 0.90084 0.9657 0.40374 0.0
H49 H 0.87535 0.95036 0.40591 0.0
C50 C 0.85496 0.05238 0.38626 0.0
N51 N 0.84474 0.03261 0.38581 0.0
N52 N 0.85831 0.01768 0.37774 0.0
C53 C 0.8779 0.02747 0.37331 0.0
C54 C 0.87645 0.0499 0.37846 0.0
C55 C 0.84288 0.07373 0.38959 0.0
H56 H 0.84 0.07632 0.40753 0.0
H57 H 0.85213 0.08803 0.38296 0.0
H58 H 0.82663 0.07305 0.38114 0.0
O59 O 0.80334 0.02377 0.35714 0.0
O60 O 0.82394 0.99647 0.34308 0.0
H61 H 0.91182 0.02669 0.36159 0.0
H62 H 0.90166 1.00142 0.37294 0.0
C63 C 0.8971 0.0159 0.36281 0.0
H64 H 0.89233 1.00999 0.3461 0.0
H65 H 0.86612 0.97078 0.32476 0.0
O66 O 0.79936 0.05086 0.40322 0.0
C67 C 0.80855 1.01096 0.34123 0.0
Co68 Co 0.03347 0.81475 0.38699 0.0
Co69 Co 0.06913 0.84633 0.367 0.0
C70 C 0.08099 0.81418 0.40268 0.0
O71 O 0.06163 0.8062 0.402 0.0
O72 O 0.0861 0.8308 0.39094 0.0
C73 C 1.01302 0.80614 0.42584 0.0
O74 O 0.02913 0.81964 0.4312 0.0
C75 C 0.09877 0.88398 0.37127 0.0
C76 C 0.10729 0.89269 0.33692 0.0
C77 C 0.111 0.899 0.35875 0.0
N78 N 0.08853 0.86976 0.35753 0.0
N79 N 0.09379 0.87498 0.33699 0.0
C80 C 0.09494 0.88403 0.39576 0.0
H81 H 0.07965 0.87483 0.39988 0.0
H82 H 0.09354 0.90116 0.4021 0.0
H83 H 0.10899 0.87572 0.4041 0.0
C84 C 1.00718 0.8554 0.38615 0.0
N85 N 0.02707 0.84533 0.38541 0.0
N86 N 0.04177 0.85894 0.37711 0.0
C87 C 0.03172 0.87842 0.37279 0.0
C88 C 1.00933 0.87685 0.37825 0.0
C89 C 0.98597 0.8432 0.38991 0.0
H90 H 0.98321 0.84142 0.40797 0.0
H91 H 0.97161 0.85185 0.38256 0.0
H92 H 0.98703 0.8265 0.38249 0.0
O93 O 0.03446 0.80377 0.35641 0.0
O94 O 0.06182 0.82425 0.3422 0.0
H95 H 0.04851 0.89288 0.34521 0.0
H96 H 0.03212 0.91229 0.36117 0.0
C97 C 0.04299 0.89761 0.36208 0.0
H98 H 0.05773 0.90218 0.37186 0.0
H99 H 0.08798 0.86665 0.32303 0.0
O100 O 1.01052 0.80079 0.40563 0.0
C101 C 0.04718 0.80898 0.34039 0.0
Co102 Co 0.24455 0.03298 0.38757 0.0
Co103 Co 0.21401 0.06836 0.36548 0.0
C104 C 0.2455 0.08089 0.40191 0.0
O105 O 0.25221 0.06108 0.40287 0.0
O106 O 0.23016 0.08619 0.38853 0.0
C107 C 0.25312 1.01262 0.42672 0.0
O108 O 0.23974 0.02877 0.4323 0.0
C109 C 0.17638 0.09788 0.36888 0.0
C110 C 0.16704 0.10493 0.33435 0.0
C111 C 0.16089 0.10922 0.35611 0.0
N112 N 0.1907 0.08751 0.35535 0.0
N113 N 0.18514 0.09191 0.33469 0.0
C114 C 0.17651 0.09469 0.39346 0.0
H115 H 0.18593 0.07964 0.39792 0.0
H116 H 0.1594 0.09329 0.39992 0.0
H117 H 0.18472 0.109 0.40142 0.0
C118 C 0.2039 1.00696 0.3858 0.0
N119 N 0.21411 0.02672 0.3851 0.0
N120 N 0.20087 0.04139 0.37615 0.0
C121 C 0.18141 0.03142 0.37139 0.0
C122 C 0.18268 1.00914 0.3772 0.0
C123 C 0.21592 0.98578 0.39019 0.0
H124 H 0.21731 0.98334 0.40833 0.0
H125 H 0.20737 0.97136 0.38286 0.0
H126 H 0.23281 0.98659 0.38316 0.0
O127 O 0.25655 0.03379 0.35725 0.0
O128 O 0.23613 0.0602 0.34129 0.0
H129 H 0.14774 0.03189 0.35896 0.0
H130 H 0.15777 0.05752 0.36952 0.0
C131 C 0.16251 0.04263 0.36005 0.0
H132 H 0.16765 0.0478 0.34322 0.0
H133 H 0.19339 0.08569 0.32085 0.0
O134 O 0.25826 1.01014 0.40646 0.0
C135 C 0.25167 0.04575 0.34057 0.0
Co136 Co 0.02835 0.81301 0.67165 0.0
Co137 Co 0.99365 0.84579 0.6913 0.0
C138 C 0.9813 0.81341 0.65536 0.0
O139 O 1.00064 0.80526 0.6557 0.0
O140 O 0.97634 0.82984 0.66756 0.0
C141 C 0.05438 0.79999 0.63609 0.0
O142 O 0.04298 0.81585 0.62666 0.0
C143 C 0.96507 0.88461 0.68744 0.0
C144 C 0.95663 0.89259 0.72205 0.0
C145 C 0.95311 0.8995 0.70041 0.0
N146 N 0.97495 0.8698 0.70077 0.0
N147 N 0.96978 0.87463 0.72145 0.0
C148 C 0.96862 0.88505 0.66293 0.0
H149 H 0.98397 0.87604 0.6585 0.0
H150 H 0.96967 0.90229 0.65688 0.0
H151 H 0.95458 0.87669 0.65462 0.0
C152 C 0.05539 0.85378 0.67 0.0
N153 N 0.03567 0.84357 0.67212 0.0
N154 N 0.0213 0.85748 0.68071 0.0
C155 C 0.03147 0.87708 0.68408 0.0
C156 C 0.05341 0.87542 0.67736 0.0
C157 C 0.07629 0.8424 0.66312 0.0
H158 H 0.07574 0.8393 0.64506 0.0
H159 H 0.09117 0.85248 0.66649 0.0
H160 H 0.07777 0.82636 0.67177 0.0
O161 O 0.02649 0.80327 0.70247 0.0
O162 O 1.00026 0.82483 0.71692 0.0
H163 H 0.03395 0.9085 0.70112 0.0
H164 H 1.00846 0.9037 0.68648 0.0
C165 C 0.02146 0.89585 0.69672 0.0
H166 H 1.01366 0.88957 0.71206 0.0
H167 H 0.97535 0.86578 0.73517 0.0
O168 O 0.05134 0.79579 0.65642 0.0
C169 C 0.01449 0.80924 0.71871 0.0
Co170 Co 0.24295 0.0227 0.67495 0.0
Co171 Co 0.21297 0.98678 0.69626 0.0
C172 C 0.24433 0.97606 0.65824 0.0
O173 O 0.25161 0.99572 0.65823 0.0
O174 O 0.22872 0.97038 0.67127 0.0
C175 C 0.27432 0.0462 0.64901 0.0
O176 O 0.28428 0.02698 0.64772 0.0
C177 C 0.17343 0.95795 0.69626 0.0
C178 C 0.17275 0.94604 0.73072 0.0
C179 C 0.16173 0.9443 0.71065 0.0
N180 N 0.19036 0.96726 0.70739 0.0
N181 N 0.18973 0.96012 0.72802 0.0
C182 C 0.16958 0.96109 0.67202 0.0
H183 H 0.18447 0.96809 0.66396 0.0
H184 H 0.15568 0.97277 0.6696 0.0
H185 H 0.16509 0.94517 0.66412 0.0
C186 C 0.20082 0.04673 0.67223 0.0
N187 N 0.21208 0.0279 0.6759 0.0
N188 N 0.1995 0.014 0.68679 0.0
C189 C 0.17997 0.02402 0.6912 0.0
C190 C 0.18011 0.04526 0.68214 0.0
C191 C 0.21008 0.06598 0.65982 0.0
H192 H 0.21954 0.06003 0.64526 0.0
H193 H 0.1968 0.07717 0.65398 0.0
H194 H 0.22149 0.07528 0.67075 0.0
O195 O 0.25432 0.02118 0.7055 0.0
O196 O 0.23513 0.99373 0.72066 0.0
H197 H 0.15347 0.02813 0.71489 0.0
H198 H 0.15134 1.00433 0.69713 0.0
C199 C 0.16299 0.0148 0.70665 0.0
H200 H 0.17102 1.00449 0.71946 0.0
H201 H 0.2011 0.96463 0.74021 0.0
O202 O 0.25689 0.04804 0.66049 0.0
C203 C 0.25008 1.00863 0.72184 0.0
Co204 Co 0.0331 0.24049 0.67288 0.0
Co205 Co 0.06879 0.20814 0.69198 0.0
C206 C 0.08049 0.24074 0.65625 0.0
O207 O 0.06101 0.24861 0.65697 0.0
O208 O 0.08586 0.22417 0.66809 0.0
C209 C 1.00857 0.25319 0.63633 0.0
O210 O 0.02427 0.24155 0.62685 0.0
C211 C 0.10055 0.17078 0.69111 0.0
C212 C 0.10048 0.15965 0.72585 0.0
C213 C 0.10914 0.15485 0.70519 0.0
N214 N 0.08714 0.18422 0.70281 0.0
N215 N 0.08729 0.17747 0.72362 0.0
C216 C 0.10455 0.17288 0.66679 0.0
H217 H 0.08919 0.17834 0.65838 0.0
H218 H 0.11039 0.15704 0.65963 0.0
H219 H 0.11737 0.18564 0.664 0.0
C220 C 1.00646 0.20009 0.67352 0.0
N221 N 0.02642 0.21 0.67401 0.0
N222 N 0.0413 0.19602 0.6814 0.0
C223 C 0.03131 0.1764 0.68503 0.0
C224 C 1.00876 0.17831 0.68042 0.0
C225 C 0.98521 0.2126 0.67114 0.0
H226 H 0.98657 0.2288 0.67954 0.0
H227 H 0.98194 0.2155 0.65331 0.0
H228 H 0.971 0.20366 0.67839 0.0
O229 O 0.03473 0.25081 0.70339 0.0
O230 O 0.06162 0.22971 0.71733 0.0
H231 H 0.04651 0.15918 0.71185 0.0
H232 H 0.03261 0.14146 0.69217 0.0
C233 C 0.04283 0.15653 0.69406 0.0
H234 H 0.05861 0.15398 0.68513 0.0
H235 H 0.0781 0.18482 0.73626 0.0
O236 O 1.00888 0.25567 0.65719 0.0
C237 C 0.04716 0.24511 0.71939 0.0
Co238 Co 0.81462 0.02938 0.67763 0.0
Co239 Co 0.84491 0.06678 0.69633 0.0
C240 C 0.81332 0.07518 0.65865 0.0
O241 O 0.80768 0.05504 0.65867 0.0
O242 O 0.82748 0.08244 0.67243 0.0
C243 C 0.80555 0.99975 0.64375 0.0
O244 O 0.82331 1.00922 0.63563 0.0
C245 C 0.88195 0.09719 0.69023 0.0
C246 C 0.89214 0.10551 0.72426 0.0
C247 C 0.8976 0.10919 0.70222 0.0
N248 N 0.86821 0.08702 0.70447 0.0
N249 N 0.87428 0.09222 0.72481 0.0
C250 C 0.88122 0.0933 0.66576 0.0
H251 H 0.87194 0.07797 0.66197 0.0
H252 H 0.89817 0.09202 0.65888 0.0
H253 H 0.87257 0.10728 0.65769 0.0
C254 C 0.85611 1.00397 0.67969 0.0
N255 N 0.84512 0.02334 0.67994 0.0
N256 N 0.85829 0.03906 0.68711 0.0
C257 C 0.87845 0.03012 0.69101 0.0
C258 C 0.87776 1.00754 0.68642 0.0
C259 C 0.84503 0.98196 0.67754 0.0
H260 H 0.84528 0.97675 0.65994 0.0
H261 H 0.85366 0.96919 0.68744 0.0
H262 H 0.82767 0.98297 0.68325 0.0
O263 O 0.80329 0.03336 0.70786 0.0
O264 O 0.8241 0.06028 0.72215 0.0
H265 H 0.9128 0.03245 0.70116 0.0
H266 H 0.90127 0.05689 0.68933 0.0
C267 C 0.89766 0.04269 0.7002 0.0
H268 H 0.89342 0.04906 0.71689 0.0
H269 H 0.86657 0.0863 0.73907 0.0
O270 O 0.79872 1.00521 0.66284 0.0
C271 C 0.80858 0.04597 0.7239 0.0
Co272 Co 0.3884 0.02682 0.24243 0.0
Co273 Co 0.36691 0.98928 0.21371 0.0
C274 C 0.40501 0.97959 0.244 0.0
O275 O 0.40527 0.99976 0.24958 0.0
O276 O 0.39116 0.9725 0.2298 0.0
C277 C 0.42691 0.04906 0.25071 0.0
O278 O 0.43334 0.03332 0.23719 0.0
C279 C 0.36519 0.95791 0.17587 0.0
C280 C 0.32946 0.95139 0.17304 0.0
C281 C 0.34967 0.94629 0.16349 0.0
N282 N 0.35458 0.96957 0.1917 0.0
N283 N 0.33321 0.96552 0.18986 0.0
C284 C 0.38978 0.95728 0.17328 0.0
H285 H 0.39806 0.96446 0.18798 0.0
H286 H 0.39466 0.96699 0.15855 0.0
H287 H 0.3954 0.94003 0.17067 0.0
C288 C 0.38542 0.05107 0.20089 0.0
N289 N 0.38503 0.03177 0.21191 0.0
N290 N 0.37638 0.01632 0.19931 0.0
C291 C 0.37136 0.02543 0.17945 0.0
C292 C 0.3769 0.04784 0.17976 0.0
C293 C 0.38962 0.07279 0.212 0.0
H294 H 0.38301 0.0725 0.22911 0.0
H295 H 0.4077 0.07568 0.21285 0.0
H296 H 0.38177 0.08669 0.20308 0.0
O297 O 0.35861 0.02529 0.25552 0.0
O298 O 0.34339 0.99756 0.23643 0.0
H299 H 0.34331 1.00828 0.16647 0.0
H300 H 0.35897 0.02333 0.14581 0.0
C301 C 0.3601 0.01328 0.16107 0.0
H302 H 0.3696 0.99823 0.15708 0.0
H303 H 0.32115 0.97242 0.20011 0.0
O304 O 0.40654 0.05063 0.2556 0.0
C305 C 0.34238 1.01249 0.25147 0.0
Co306 Co 0.02906 0.38509 0.24305 0.0
Co307 Co 0.06617 0.36472 0.21344 0.0
C308 C 0.07626 0.40172 0.24498 0.0
O309 O 0.05612 0.40179 0.25072 0.0
O310 O 0.08315 0.38837 0.23023 0.0
C311 C 1.00742 0.42325 0.25123 0.0
O312 O 0.02293 0.42899 0.23716 0.0
C313 C 0.0965 0.36804 0.1763 0.0
C314 C 0.10344 0.33351 0.16708 0.0
C315 C 0.10791 0.35514 0.16094 0.0
N316 N 0.0859 0.3547 0.19055 0.0
N317 N 0.09025 0.33405 0.18508 0.0
C318 C 0.09338 0.39254 0.17625 0.0
H319 H 0.0781 0.39711 0.18534 0.0
H320 H 0.09238 0.39889 0.15906 0.0
H321 H 0.10756 0.40044 0.18476 0.0
C322 C 1.00395 0.38268 0.20197 0.0
N323 N 0.02354 0.38255 0.21258 0.0
N324 N 0.03891 0.37444 0.19954 0.0
C325 C 0.02949 0.36967 0.17973 0.0
C326 C 1.00691 0.37463 0.18061 0.0
C327 C 0.98234 0.386 0.21367 0.0
H328 H 0.98334 0.37936 0.23071 0.0
H329 H 0.97875 0.40392 0.21469 0.0
H330 H 0.96851 0.37766 0.20504 0.0
O331 O 0.03079 0.355 0.25499 0.0
O332 O 0.05824 0.34021 0.235 0.0
H333 H 0.04699 0.3424 0.16556 0.0
H334 H 0.03125 0.35836 0.14567 0.0
C335 C 0.04156 0.35921 0.1608 0.0
H336 H 0.05638 0.3691 0.15685 0.0
H337 H 0.08379 0.32035 0.19327 0.0
O338 O 1.00555 0.4031 0.25666 0.0
C339 C 0.04341 0.33881 0.25014 0.0
Co340 Co 0.67169 0.036 0.24552 0.0
Co341 Co 0.69464 0.07154 0.21591 0.0
C342 C 0.65866 0.08432 0.2478 0.0
O343 O 0.65739 0.06434 0.25391 0.0
O344 O 0.67204 0.08987 0.2325 0.0
C345 C 0.63195 0.01657 0.25402 0.0
O346 O 0.62661 0.03299 0.2409 0.0
C347 C 0.6957 0.10136 0.17754 0.0
C348 C 0.73138 0.10604 0.17196 0.0
C349 C 0.71081 0.11146 0.16326 0.0
N350 N 0.70693 0.09046 0.19341 0.0
N351 N 0.72825 0.09357 0.19011 0.0
C352 C 0.6711 0.10003 0.17534 0.0
H353 H 0.66444 0.08656 0.18581 0.0
H354 H 0.66637 0.0971 0.15784 0.0
H355 H 0.66365 0.11579 0.18097 0.0
C356 C 0.67236 1.01102 0.20417 0.0
N357 N 0.67371 0.03054 0.21484 0.0
N358 N 0.68317 0.04519 0.20194 0.0
C359 C 0.68779 0.03539 0.18229 0.0
C360 C 0.68117 0.01331 0.18304 0.0
C361 C 0.66722 0.98977 0.21572 0.0
H362 H 0.67456 0.98987 0.23253 0.0
H363 H 0.64904 0.98811 0.21741 0.0
H364 H 0.67369 0.97524 0.20665 0.0
O365 O 0.70203 0.03517 0.25746 0.0
O366 O 0.71836 0.0618 0.23777 0.0
H367 H 0.71664 0.05145 0.16963 0.0
H368 H 0.70162 0.03556 0.1491 0.0
C369 C 0.70002 0.04638 0.16381 0.0
H370 H 0.69088 0.06128 0.15862 0.0
H371 H 0.74068 0.08668 0.19988 0.0
O372 O 0.65217 0.01358 0.25887 0.0
C373 C 0.71896 0.04682 0.25275 0.0
Co374 Co 0.02691 0.67303 0.24387 0.0
Co375 Co 0.99177 0.6948 0.21267 0.0
C376 C 0.97911 0.65902 0.24541 0.0
O377 O 0.99897 0.6577 0.25207 0.0
O378 O 0.97394 0.67237 0.22996 0.0
C379 C 0.04865 0.63609 0.26013 0.0
O380 O 0.03136 0.62687 0.25081 0.0
C381 C 0.96279 0.69086 0.17412 0.0
C382 C 0.9536 0.72519 0.16644 0.0
C383 C 0.95041 0.70359 0.15939 0.0
N384 N 0.97256 0.70427 0.18897 0.0
N385 N 0.96694 0.7248 0.18432 0.0
C386 C 0.96677 0.66651 0.17349 0.0
H387 H 0.9821 0.66227 0.18259 0.0
H388 H 0.96805 0.66059 0.15614 0.0
H389 H 0.95281 0.65795 0.18171 0.0
C390 C 0.05215 0.67026 0.20231 0.0
N391 N 0.03293 0.67355 0.21315 0.0
N392 N 0.01881 0.68345 0.19992 0.0
C393 C 0.02883 0.68691 0.18017 0.0
C394 C 0.05036 0.67868 0.18102 0.0
C395 C 0.07247 0.66083 0.21281 0.0
H396 H 0.06857 0.64437 0.21973 0.0
H397 H 0.08617 0.65891 0.20077 0.0
H398 H 0.07784 0.67167 0.22661 0.0
O399 O 0.0258 0.70394 0.25447 0.0
O400 O 0.99971 0.71979 0.23368 0.0
H401 H 0.032 0.70591 0.14997 0.0
H402 H 1.00632 0.69127 0.15335 0.0
C403 C 0.01925 0.70083 0.16212 0.0
H404 H 1.01142 0.71573 0.16934 0.0
H405 H 0.97234 0.73854 0.19323 0.0
O406 O 0.0508 0.65691 0.25924 0.0
C407 C 0.01416 0.72069 0.24919 0.0
Co408 Co 0.38743 0.0322 0.8169 0.0
Co409 Co 0.36523 0.06577 0.84914 0.0
C410 C 0.40047 0.08045 0.81758 0.0
O411 O 0.40053 0.06132 0.80906 0.0
O412 O 0.38863 0.08465 0.83452 0.0
C413 C 0.42738 0.01464 0.80512 0.0
O414 O 0.43317 0.03161 0.81735 0.0
C415 C 0.36435 0.09401 0.88882 0.0
C416 C 0.32873 0.09918 0.89436 0.0
C417 C 0.34934 0.10427 0.90318 0.0
N418 N 0.35303 0.08349 0.87274 0.0
N419 N 0.33174 0.08679 0.87609 0.0
C420 C 0.38897 0.09262 0.89078 0.0
H421 H 0.39553 0.07925 0.88007 0.0
H422 H 0.39384 0.08946 0.90819 0.0
H423 H 0.39638 0.10843 0.8853 0.0
C424 C 0.39011 1.00567 0.85749 0.0
N425 N 0.38663 0.02523 0.84748 0.0
N426 N 0.37682 0.03878 0.86136 0.0
C427 C 0.37385 0.02815 0.88086 0.0
C428 C 0.38229 1.00676 0.87911 0.0
C429 C 0.39704 0.98524 0.84532 0.0
H430 H 0.38861 0.98451 0.82905 0.0
H431 H 0.41513 0.98581 0.84239 0.0
H432 H 0.39304 0.97002 0.85463 0.0
O433 O 0.35697 0.03123 0.80573 0.0
O434 O 0.34135 0.05762 0.82639 0.0
H435 H 0.34525 0.04341 0.8951 0.0
H436 H 0.36045 0.02599 0.91416 0.0
C437 C 0.36192 0.03782 0.90029 0.0
H438 H 0.37116 0.05234 0.9064 0.0
H439 H 0.31925 0.08033 0.86608 0.0
O440 O 0.40698 1.01073 0.80205 0.0
C441 C 0.34034 0.04309 0.81092 0.0
Co442 Co 0.02923 0.38228 0.81095 0.0
Co443 Co 0.99391 0.36409 0.84389 0.0
C444 C 0.98269 0.40028 0.81173 0.0
O445 O 1.00197 0.39936 0.80349 0.0
O446 O 0.97741 0.38815 0.82805 0.0
C447 C 0.05797 0.4166 0.80118 0.0
O448 O 0.0487 0.42438 0.81924 0.0
C449 C 0.96487 0.36976 0.88207 0.0
C450 C 0.95606 0.33579 0.89155 0.0
C451 C 0.95273 0.3577 0.89755 0.0
N452 N 0.97473 0.35566 0.86792 0.0
N453 N 0.96929 0.33537 0.87359 0.0
C454 C 0.96897 0.3941 0.88155 0.0
H455 H 0.98411 0.39784 0.87192 0.0
H456 H 0.97081 0.40073 0.89858 0.0
H457 H 0.95484 0.40243 0.87336 0.0
C458 C 0.05683 0.38077 0.85145 0.0
N459 N 0.03679 0.38079 0.84155 0.0
N460 N 0.02188 0.37367 0.85568 0.0
C461 C 0.03191 0.36962 0.87528 0.0
C462 C 0.05448 0.3739 0.87328 0.0
C463 C 0.07822 0.38261 0.83907 0.0
H464 H 0.07617 0.37679 0.82181 0.0
H465 H 0.08355 0.40011 0.83889 0.0
H466 H 0.09143 0.37271 0.84702 0.0
O467 O 0.02631 0.35178 0.80075 0.0
O468 O 0.99989 0.33827 0.82276 0.0
H469 H 0.01407 0.34358 0.89113 0.0
H470 H 0.03133 0.35953 0.90975 0.0
C471 C 0.02037 0.36031 0.89509 0.0
H472 H 1.00615 0.37093 0.8994 0.0
H473 H 0.97481 0.32123 0.86539 0.0
O474 O 0.05255 0.39761 0.79417 0.0
C475 C 0.01391 0.33598 0.80695 0.0
Co476 Co 0.6734 0.02619 0.82016 0.0
Co477 Co 0.69337 0.98963 0.85098 0.0
C478 C 0.65677 0.97905 0.81882 0.0
O479 O 0.65721 0.99868 0.81145 0.0
O480 O 0.66912 0.97328 0.83489 0.0
C481 C 0.63651 0.0507 0.80836 0.0
O482 O 0.62729 0.0346 0.81956 0.0
C483 C 0.69338 0.9586 0.88926 0.0
C484 C 0.72895 0.9519 0.89342 0.0
C485 C 0.70839 0.94694 0.90224 0.0
N486 N 0.70461 0.97013 0.8738 0.0
N487 N 0.72588 0.96597 0.87645 0.0
C488 C 0.66871 0.95814 0.89098 0.0
H489 H 0.66097 0.96517 0.87595 0.0
H490 H 0.66338 0.9681 0.90544 0.0
H491 H 0.66292 0.94097 0.89358 0.0
C492 C 0.67475 0.0515 0.86162 0.0
N493 N 0.67525 0.0319 0.851 0.0
N494 N 0.68342 0.01678 0.86427 0.0
C495 C 0.68785 0.02628 0.88407 0.0
C496 C 0.68263 0.04871 0.88309 0.0
C497 C 0.67126 0.07301 0.84992 0.0
H498 H 0.67958 0.0726 0.83358 0.0
H499 H 0.65331 0.07554 0.8472 0.0
H500 H 0.6779 0.0872 0.85939 0.0
O501 O 0.70369 0.02475 0.80898 0.0
O502 O 0.71806 0.99728 0.82895 0.0
H503 H 0.71537 1.00931 0.89838 0.0
H504 H 0.69896 0.02477 0.91819 0.0
C505 C 0.6984 0.01444 0.90305 0.0
H506 H 0.68873 0.99948 0.9069 0.0
H507 H 0.73834 0.9727 0.86662 0.0
O508 O 0.65734 0.05077 0.80593 0.0
C509 C 0.71977 1.01211 0.8139 0.0
Co510 Co 0.03149 0.67505 0.81482 0.0
Co511 Co 0.06864 0.69374 0.84531 0.0
C512 C 0.07701 0.65528 0.81465 0.0
O513 O 0.05693 0.65549 0.80867 0.0
O514 O 0.08426 0.66929 0.82858 0.0
C515 C 1.00178 0.64156 0.80605 0.0
O516 O 1.01107 0.63386 0.82412 0.0
C517 C 0.09867 0.6883 0.88278 0.0
C518 C 0.10783 0.72236 0.8917 0.0
C519 C 0.11105 0.70053 0.89795 0.0
N520 N 0.08874 0.70222 0.86856 0.0
N521 N 0.09442 0.72257 0.87388 0.0
C522 C 0.09427 0.664 0.88282 0.0
H523 H 0.07891 0.66025 0.87353 0.0
H524 H 0.09272 0.65777 0.90001 0.0
H525 H 0.10816 0.65534 0.87453 0.0
C526 C 1.0053 0.67894 0.85564 0.0
N527 N 0.02496 0.6782 0.84516 0.0
N528 N 0.04058 0.68533 0.85851 0.0
C529 C 0.03128 0.69013 0.87834 0.0
C530 C 1.00853 0.68626 0.87721 0.0
C531 C 0.98352 0.67726 0.84393 0.0
H532 H 0.98522 0.68247 0.82646 0.0
H533 H 0.97775 0.6599 0.84439 0.0
H534 H 0.97079 0.68778 0.85191 0.0
O535 O 0.03593 0.70482 0.80297 0.0
O536 O 0.06269 0.71914 0.82403 0.0
H537 H 0.05011 0.71608 0.89319 0.0
H538 H 0.0333 0.70069 0.91263 0.0
C539 C 0.04371 0.69952 0.89758 0.0
H540 H 0.05792 0.68874 0.90146 0.0
H541 H 0.08883 0.73661 0.86561 0.0
O542 O 1.00736 0.6604 0.79887 0.0
C543 C 0.04858 0.72076 0.80826 0.0
Co544 Co 0.2423 0.38437 0.03071 0.0
Co545 Co 0.21375 0.36488 0.99208 0.0
C546 C 0.24427 0.40332 0.9847 0.0
O547 O 0.24938 0.40327 1.00505 0.0
O548 O 0.23068 0.38931 0.97692 0.0
C549 C 0.24532 0.41908 0.06009 0.0
O550 O 0.22748 0.42446 0.04895 0.0
C551 C 0.17785 0.36901 0.95996 0.0
C552 C 0.16958 0.3346 0.95153 0.0
C553 C 0.16341 0.35627 0.94726 0.0
N554 N 0.19165 0.35552 0.97104 0.0
N555 N 0.18672 0.33496 0.9658 0.0
C556 C 0.17739 0.39344 0.96354 0.0
H557 H 0.18558 0.39777 0.9794 0.0
H558 H 0.16013 0.39963 0.96372 0.0
H559 H 0.18652 0.40165 0.94994 0.0
C560 C 0.20068 0.37947 0.05484 0.0
N561 N 0.21185 0.38036 0.03559 0.0
N562 N 0.19917 0.37334 0.01938 0.0
C563 C 0.17899 0.36859 0.02789 0.0
C564 C 0.17926 0.37244 0.05071 0.0
C565 C 0.21159 0.3805 0.07712 0.0
H566 H 0.2102 0.39748 0.08381 0.0
H567 H 0.20356 0.36909 0.08899 0.0
H568 H 0.22926 0.37594 0.07581 0.0
O569 O 0.25526 0.35471 0.02732 0.0
O570 O 0.23551 0.34029 0.9995 0.0
H571 H 0.16477 0.34252 1.00875 0.0
H572 H 0.14481 0.35844 0.02447 0.0
C573 C 0.16028 0.35925 0.01469 0.0
H574 H 0.15721 0.36981 1.00011 0.0
H575 H 0.19474 0.32116 0.97228 0.0
O576 O 0.25528 0.40115 0.05557 0.0
C577 C 0.25072 0.33877 1.01425 0.0
Co578 Co 0.24349 0.67328 0.03326 0.0
Co579 Co 0.21144 0.69322 0.06907 0.0
C580 C 0.24356 0.65713 0.08074 0.0
O581 O 0.25158 0.6576 0.06129 0.0
O582 O 0.22714 0.66924 0.08599 0.0
C583 C 0.25762 0.63615 1.00977 0.0
O584 O 0.24725 0.62672 0.02634 0.0
C585 C 0.17246 0.69282 0.09916 0.0
C586 C 0.16859 0.72807 0.10729 0.0
C587 C 0.1596 0.70746 0.11139 0.0
N588 N 0.18809 0.70429 0.08813 0.0
N589 N 0.18557 0.72538 0.09308 0.0
C590 C 0.17074 0.66822 0.09899 0.0
H591 H 0.18316 0.66089 0.08764 0.0
H592 H 0.15396 0.6632 0.09363 0.0
H593 H 0.1733 0.66185 0.11601 0.0
C594 C 0.20279 0.67386 1.00696 0.0
N595 N 0.21283 0.67468 0.02688 0.0
N596 N 0.19907 0.68285 0.04163 0.0
C597 C 0.17954 0.68696 0.03157 0.0
C598 C 0.18121 0.68157 1.00914 0.0
C599 C 0.21513 0.67027 0.98574 0.0
H600 H 0.21854 0.65241 0.9837 0.0
H601 H 0.20586 0.67624 0.97112 0.0
H602 H 0.23115 0.67911 0.98638 0.0
O603 O 0.25415 0.70376 0.03467 0.0
O604 O 0.23334 0.71803 0.0617 0.0
H605 H 0.16461 0.71423 0.04844 0.0
H606 H 0.14543 0.69807 0.032 0.0
C607 C 0.16015 0.69736 0.04289 0.0
H608 H 0.15577 0.68752 0.05764 0.0
H609 H 0.19563 0.73795 0.08696 0.0
O610 O 0.25855 0.65707 1.00902 0.0
C611 C 0.24869 0.71983 0.04713 0.0
Co612 Co 0.38605 0.24406 0.03143 0.0
Co613 Co 0.36695 0.21114 0.06634 0.0
C614 C 0.40237 0.24399 0.0786 0.0
O615 O 0.40168 0.2523 0.05933 0.0
O616 O 0.39065 0.22724 0.08347 0.0
C617 C 0.42262 0.25736 1.00827 0.0
O618 O 0.43137 0.24554 0.02423 0.0
C619 C 0.37184 0.17262 0.09502 0.0
C620 C 0.33758 0.16331 0.10311 0.0
C621 C 0.35941 0.15712 0.10677 0.0
N622 N 0.35804 0.18698 0.08512 0.0
N623 N 0.33756 0.18138 0.0901 0.0
C624 C 0.39633 0.17309 0.09149 0.0
H625 H 0.40047 0.18286 0.07655 0.0
H626 H 0.40293 0.15611 0.08958 0.0
H627 H 0.40436 0.18107 0.10593 0.0
C628 C 0.38867 0.20348 1.00467 0.0
N629 N 0.38585 0.21356 0.02439 0.0
N630 N 0.37746 0.19945 0.0386 0.0
C631 C 0.37491 0.17975 0.0283 0.0
C632 C 0.38207 0.18161 1.00642 0.0
C633 C 0.39368 0.21554 0.98362 0.0
H634 H 0.38451 0.23137 0.98324 0.0
H635 H 0.41163 0.2191 0.98285 0.0
H636 H 0.38899 0.20587 0.96876 0.0
O637 O 0.35532 0.25382 0.0333 0.0
O638 O 0.34136 0.23239 0.05994 0.0
H639 H 0.34807 0.16428 0.04534 0.0
H640 H 0.36329 0.14587 0.02719 0.0
C641 C 0.36466 0.15992 0.03886 0.0
H642 H 0.37502 0.15459 0.05296 0.0
H643 H 0.32357 0.18972 0.08444 0.0
O644 O 0.40179 0.25981 1.0077 0.0
C645 C 0.33934 0.24798 0.0457 0.0
Co646 Co 0.81849 0.39048 0.02881 0.0
Co647 Co 0.84608 0.3652 0.06438 0.0
C648 C 0.81442 0.40221 0.07677 0.0
O649 O 0.81013 0.40578 0.05654 0.0
O650 O 0.82783 0.38694 0.08219 0.0
C651 C 0.81406 0.42742 1.00154 0.0
O652 O 0.83191 0.43324 1.01245 0.0
C653 C 0.88185 0.36841 0.09634 0.0
C654 C 0.89133 0.33401 0.10327 0.0
C655 C 0.89697 0.3557 0.10826 0.0
N656 N 0.86827 0.35494 0.08496 0.0
N657 N 0.87389 0.33435 0.08934 0.0
C658 C 0.88155 0.39295 0.09352 0.0
H659 H 0.87241 0.39758 0.07831 0.0
H660 H 0.89863 0.39953 0.09256 0.0
H661 H 0.87298 0.40058 0.10784 0.0
C662 C 0.86021 0.38729 1.00433 0.0
N663 N 0.84908 0.3871 0.0237 0.0
N664 N 0.8612 0.37741 0.03891 0.0
C665 C 0.88098 0.37211 0.02984 0.0
C666 C 0.88101 0.3781 1.00753 0.0
C667 C 0.84928 0.39084 0.98232 0.0
H668 H 0.83155 0.38646 0.98321 0.0
H669 H 0.85089 0.40843 0.97756 0.0
H670 H 0.85698 0.38063 0.96918 0.0
O671 O 0.80628 0.36056 0.02797 0.0
O672 O 0.8256 0.34089 0.05257 0.0
H673 H 0.8929 0.34308 0.04606 0.0
H674 H 0.91417 0.35867 0.03185 0.0
C675 C 0.89882 0.35985 0.04179 0.0
H676 H 0.90293 0.36865 0.05728 0.0
H677 H 0.86621 0.32056 0.0824 0.0
O678 O 0.80512 0.4089 1.00553 0.0
C679 C 0.81066 0.34231 0.0375 0.0
Co680 Co 0.67203 0.81507 0.03636 0.0
Co681 Co 0.69058 0.84843 0.07098 0.0
C682 C 0.65553 0.81521 0.08344 0.0
O683 O 0.65625 0.80701 0.06411 0.0
O684 O 0.66717 0.83202 0.08836 0.0
C685 C 0.63656 0.80276 1.01078 0.0
O686 O 0.62792 0.81914 0.02212 0.0
C687 C 0.68532 0.8878 0.09868 0.0
C688 C 0.71938 0.89579 0.10882 0.0
C689 C 0.69764 0.90289 0.11111 0.0
N690 N 0.69912 0.87279 0.08973 0.0
N691 N 0.71947 0.87762 0.09592 0.0
C692 C 0.66105 0.88806 0.09393 0.0
H693 H 0.65729 0.878 0.07905 0.0
H694 H 0.65518 0.90521 0.09132 0.0
H695 H 0.65204 0.88077 0.10813 0.0
C696 C 0.6701 0.85546 1.00879 0.0
N697 N 0.672 0.84556 0.02873 0.0
N698 N 0.68002 0.85979 0.0431 0.0
C699 C 0.68315 0.87934 0.03271 0.0
C700 C 0.67686 0.87726 1.01064 0.0
C701 C 0.6642 0.84364 0.9878 0.0
H702 H 0.64611 0.84095 0.9874 0.0
H703 H 0.66861 0.85325 0.97287 0.0
H704 H 0.6726 0.8274 0.98718 0.0
O705 O 0.70297 0.80596 0.03818 0.0
O706 O 0.71678 0.82801 0.06442 0.0
H707 H 0.69994 0.91077 0.02992 0.0
H708 H 0.68437 0.90668 0.05499 0.0
C709 C 0.69519 0.89849 0.04266 0.0
H710 H 0.71024 0.89259 0.05127 0.0
H711 H 0.73342 0.86862 0.09124 0.0
O712 O 0.65671 0.79775 1.0136 0.0
C713 C 0.71901 0.81242 0.05018 0.0
Co714 Co 0.81417 0.67944 0.02586 0.0
Co715 Co 0.84551 0.69975 0.99035 0.0
C716 C 0.81296 0.66372 0.97855 0.0
O717 O 0.80665 0.66262 0.99856 0.0
O718 O 0.828 0.67729 0.97295 0.0
C719 C 0.80427 0.64473 0.05435 0.0
O720 O 0.82236 0.63675 0.04536 0.0
C721 C 0.88284 0.69467 0.96021 0.0
C722 C 0.89321 0.72878 0.95311 0.0
C723 C 0.89858 0.70692 0.94865 0.0
N724 N 0.86912 0.7086 0.97086 0.0
N725 N 0.8753 0.72899 0.96641 0.0
C726 C 0.88189 0.67018 0.96324 0.0
H727 H 0.87247 0.66598 0.97841 0.0
H728 H 0.89878 0.66314 0.9644 0.0
H729 H 0.87326 0.66266 0.94889 0.0
C730 C 0.85509 0.68042 0.05253 0.0
N731 N 0.84469 0.68098 0.03275 0.0
N732 N 0.85823 0.68886 0.01768 0.0
C733 C 0.87802 0.69284 0.02737 0.0
C734 C 0.87671 0.68769 0.04985 0.0
C735 C 0.8433 0.67778 0.0742 0.0
H736 H 0.82595 0.68341 0.07276 0.0
H737 H 0.84348 0.66014 0.07901 0.0
H738 H 0.85143 0.68741 0.08753 0.0
O739 O 0.80355 0.70995 0.02384 0.0
O740 O 0.82505 0.7254 0.99811 0.0
H741 H 0.89299 0.71983 1.01023 0.0
H742 H 0.91225 0.70346 0.0263 0.0
C743 C 0.89733 0.70292 0.01569 0.0
H744 H 0.90138 0.69296 1.00089 0.0
H745 H 0.86758 0.74304 0.97279 0.0
O746 O 0.7976 0.66383 0.04898 0.0
C747 C 0.80936 0.72657 1.01235 0.0
Co748 Co 0.38369 0.81507 0.02764 0.0
Co749 Co 0.36361 0.84792 0.99328 0.0
C750 C 0.40016 0.81665 0.9805 0.0
O751 O 0.39955 0.80821 0.9997 0.0
O752 O 0.38793 0.83307 0.97562 0.0
C753 C 0.41998 0.8028 0.05271 0.0
O754 O 0.42858 0.81926 0.04153 0.0
C755 C 0.36409 0.8885 0.96585 0.0
C756 C 0.32887 0.89253 0.95756 0.0
C757 C 0.34941 0.90232 0.95447 0.0
N758 N 0.35262 0.87177 0.97506 0.0
N759 N 0.33159 0.87427 0.96989 0.0
C760 C 0.3884 0.89144 0.96923 0.0
H761 H 0.39433 0.88082 0.98295 0.0
H762 H 0.39224 0.90894 0.97299 0.0
H763 H 0.39727 0.88654 0.95392 0.0
C764 C 0.38485 0.85542 0.05531 0.0
N765 N 0.38259 0.84547 0.03543 0.0
N766 N 0.37384 0.85951 0.02129 0.0
C767 C 0.37051 0.87897 0.03184 0.0
C768 C 0.37749 0.87704 0.05371 0.0
C769 C 0.39198 0.84383 0.076 0.0
H770 H 0.38396 0.82743 0.07702 0.0
H771 H 0.41013 0.84146 0.07555 0.0
H772 H 0.38807 0.85342 0.09112 0.0
O773 O 0.35324 0.80444 0.02589 0.0
O774 O 0.33871 0.8258 0.99959 0.0
H775 H 0.34304 0.89175 1.01347 0.0
H776 H 0.35265 0.90976 0.03533 0.0
C777 C 0.35786 0.89792 0.0223 0.0
H778 H 0.36846 0.90674 1.01028 0.0
H779 H 0.31904 0.86362 0.97498 0.0
O780 O 0.39977 0.79795 0.05002 0.0
C781 C 0.33706 0.81006 1.01368 0.0
Co782 Co 0.67565 0.24693 0.03011 0.0
Co783 Co 0.69482 0.21193 0.9973 0.0
C784 C 0.66064 0.24529 0.98276 0.0
O785 O 0.66072 0.25406 1.00183 0.0
O786 O 0.67246 0.22838 0.97867 0.0
C787 C 0.63968 0.25956 0.05497 0.0
O788 O 0.63167 0.24228 0.04457 0.0
C789 C 0.68928 0.17308 0.96903 0.0
C790 C 0.72339 0.16251 0.96186 0.0
C791 C 0.70146 0.15715 0.95752 0.0
N792 N 0.70332 0.18689 0.9794 0.0
N793 N 0.72371 0.18051 0.97498 0.0
C794 C 0.66473 0.1746 0.97175 0.0
H795 H 0.66051 0.18467 0.98651 0.0
H796 H 0.65741 0.15792 0.97352 0.0
H797 H 0.6575 0.18277 0.95702 0.0
C798 C 0.67223 0.20765 0.05884 0.0
N799 N 0.67495 0.21673 0.03865 0.0
N800 N 0.68277 0.20172 0.02496 0.0
C801 C 0.68478 0.18241 0.03602 0.0
C802 C 0.67802 0.18549 0.05789 0.0
C803 C 0.66867 0.22077 0.0796 0.0
H804 H 0.67602 0.2374 0.07794 0.0
H805 H 0.65069 0.22242 0.0827 0.0
H806 H 0.67624 0.21258 0.09415 0.0
O807 O 0.7067 0.25549 0.02895 0.0
O808 O 0.72138 0.23169 1.00472 0.0
H809 H 0.71167 0.16522 0.02076 0.0
H810 H 0.69442 0.14798 0.03813 0.0
C811 C 0.69451 0.16189 0.02626 0.0
H812 H 0.68474 0.15693 1.01159 0.0
H813 H 0.73783 0.18839 0.98097 0.0
O814 O 0.65963 0.26513 0.05178 0.0
C815 C 0.72317 0.24799 0.0182 0.0
Co816 Co 0.52722 0.74623 0.8855 0.0
Co817 Co 0.49295 0.71258 0.86701 0.0
C818 C 0.48053 0.74497 0.90281 0.0
O819 O 0.49962 0.75355 0.90187 0.0
O820 O 0.47575 0.72824 0.89099 0.0
C821 C 0.55231 0.75804 0.92119 0.0
O822 O 0.54109 0.74129 0.92915 0.0
C823 C 0.46598 0.67311 0.87273 0.0
C824 C 0.45521 0.66478 0.83889 0.0
C825 C 0.45344 0.65787 0.86076 0.0
N826 N 0.47449 0.68805 0.85865 0.0
N827 N 0.46793 0.68302 0.83843 0.0
C828 C 0.47124 0.67305 0.89694 0.0
H829 H 0.48625 0.68299 0.90031 0.0
H830 H 0.47383 0.65594 0.90292 0.0
H831 H 0.45732 0.68059 0.90621 0.0
C832 C 0.55542 0.70616 0.8866 0.0
N833 N 0.53539 0.71588 0.88486 0.0
N834 N 0.52116 0.70153 0.87688 0.0
C835 C 0.53171 0.68208 0.87361 0.0
C836 C 0.55377 0.68434 0.87976 0.0
C837 C 0.57623 0.7181 0.89269 0.0
H838 H 0.57663 0.7205 0.91086 0.0
H839 H 0.59125 0.70873 0.88806 0.0
H840 H 0.5766 0.73449 0.88459 0.0
O841 O 0.52453 0.75592 0.85475 0.0
O842 O 0.49839 0.73367 0.84113 0.0
H843 H 0.53464 0.65065 0.85672 0.0
H844 H 0.50988 0.65445 0.87283 0.0
C845 C 0.52184 0.66278 0.86175 0.0
H846 H 0.51284 0.66852 0.84686 0.0
H847 H 0.47222 0.69195 0.82431 0.0
O848 O 0.54971 0.76359 0.90112 0.0
C849 C 0.51218 0.7496 0.83889 0.0
Co850 Co 0.32026 0.5256 0.89002 0.0
Co851 Co 0.34998 0.48948 0.86726 0.0
C852 C 0.31772 0.47738 0.90305 0.0
O853 O 0.31173 0.4974 0.90446 0.0
O854 O 0.33297 0.4717 0.88966 0.0
C855 C 0.31 0.54549 0.9297 0.0
O856 O 0.32208 0.52859 0.93592 0.0
C857 C 0.38783 0.45857 0.86663 0.0
C858 C 0.39118 0.45066 0.83115 0.0
C859 C 0.40029 0.44624 0.85174 0.0
N860 N 0.37235 0.46997 0.85535 0.0
N861 N 0.3745 0.46513 0.83412 0.0
C862 C 0.38986 0.45866 0.89131 0.0
H863 H 0.37569 0.46739 0.89901 0.0
H864 H 0.40532 0.46717 0.89619 0.0
H865 H 0.3908 0.44147 0.89753 0.0
C866 C 0.36165 0.55012 0.88913 0.0
N867 N 0.35097 0.53064 0.88807 0.0
N868 N 0.3638 0.51579 0.87874 0.0
C869 C 0.3834 0.52541 0.87392 0.0
C870 C 0.38271 0.54759 0.88022 0.0
C871 C 0.35011 0.57147 0.894 0.0
H872 H 0.3335 0.57143 0.88626 0.0
H873 H 0.34797 0.57317 0.91216 0.0
H874 H 0.35933 0.58594 0.88771 0.0
O875 O 0.30851 0.52585 0.85949 0.0
O876 O 0.32828 0.49902 0.8434 0.0
H877 H 0.39584 0.50935 0.84489 0.0
H878 H 0.41658 0.52465 0.86023 0.0
C879 C 0.40169 0.51412 0.86163 0.0
H880 H 0.40647 0.49897 0.87057 0.0
H881 H 0.36445 0.47156 0.82166 0.0
O882 O 0.30668 0.5486 0.90915 0.0
C883 C 0.31325 0.51396 0.84267 0.0
Co884 Co 0.53447 0.31518 0.88832 0.0
Co885 Co 0.56854 0.34755 0.86704 0.0
C886 C 0.58238 0.31597 0.9026 0.0
O887 O 0.56329 0.30737 0.90225 0.0
O888 O 0.5867 0.33281 0.89082 0.0
C889 C 0.51611 0.30173 0.92742 0.0
O890 O 0.53329 0.31317 0.93407 0.0
C891 C 0.59583 0.38691 0.87014 0.0
C892 C 0.6044 0.39476 0.83557 0.0
C893 C 0.60742 0.40203 0.8572 0.0
N894 N 0.58663 0.37163 0.85685 0.0
N895 N 0.59186 0.37637 0.83617 0.0
C896 C 0.59191 0.38756 0.8946 0.0
H897 H 0.57685 0.37811 0.89896 0.0
H898 H 0.59015 0.40483 0.90047 0.0
H899 H 0.6061 0.37977 0.9032 0.0
C900 C 0.50777 0.35577 0.89068 0.0
N901 N 0.5274 0.34564 0.8876 0.0
N902 N 0.54114 0.35937 0.87792 0.0
C903 C 0.53058 0.37878 0.87458 0.0
C904 C 0.50906 0.37716 0.88259 0.0
C905 C 0.48757 0.34446 0.89936 0.0
H906 H 0.49075 0.33885 0.91651 0.0
H907 H 0.47298 0.35553 0.89957 0.0
H908 H 0.48396 0.32973 0.88907 0.0
O909 O 0.53492 0.3044 0.85759 0.0
O910 O 0.56159 0.32517 0.84263 0.0
H911 H 0.5266 0.40914 0.85609 0.0
H912 H 0.55233 0.40622 0.87078 0.0
C913 C 0.53968 0.39728 0.86099 0.0
H914 H 0.5477 0.3906 0.8459 0.0
H915 H 0.58672 0.36719 0.82248 0.0
O916 O 0.51222 0.30002 0.9068 0.0
C917 C 0.54723 0.30962 0.84127 0.0
Co918 Co 0.74122 0.5336 0.88556 0.0
Co919 Co 0.71251 0.57096 0.86417 0.0
C920 C 0.74238 0.58021 0.90309 0.0
O921 O 0.74771 0.55999 0.90378 0.0
O922 O 0.72891 0.58732 0.88854 0.0
C923 C 0.74565 0.50497 0.92111 0.0
O924 O 0.72765 0.51558 0.92703 0.0
C925 C 0.67487 0.60257 0.86375 0.0
C926 C 0.67136 0.60971 0.82815 0.0
C927 C 0.66226 0.61454 0.84867 0.0
N928 N 0.69038 0.591 0.85259 0.0
N929 N 0.68813 0.59542 0.8313 0.0
C930 C 0.67278 0.60277 0.88843 0.0
H931 H 0.68767 0.5956 0.8963 0.0
H932 H 0.65827 0.5928 0.89343 0.0
H933 H 0.67011 0.61988 0.89442 0.0
C934 C 0.69984 0.50884 0.88108 0.0
N935 N 0.71081 0.52818 0.88146 0.0
N936 N 0.69812 0.54387 0.87342 0.0
C937 C 0.67822 0.53493 0.86835 0.0
C938 C 0.67862 0.51239 0.87314 0.0
C939 C 0.71091 0.48682 0.88346 0.0
H940 H 0.7286 0.48798 0.87892 0.0
H941 H 0.70949 0.48122 0.90087 0.0
H942 H 0.70306 0.47423 0.87269 0.0
O943 O 0.75448 0.53574 0.85586 0.0
O944 O 0.73477 0.56267 0.8401 0.0
H945 H 0.66487 0.55277 0.8409 0.0
H946 H 0.64447 0.53735 0.85648 0.0
C947 C 0.65973 0.54737 0.85766 0.0
H948 H 0.65592 0.56219 0.86761 0.0
H949 H 0.69807 0.58868 0.81889 0.0
O950 O 0.75482 0.50955 0.90277 0.0
C951 C 0.75005 0.54799 0.8393 0.0
Co952 Co 0.52533 0.31508 0.17725 0.0
Co953 Co 0.49003 0.34705 0.19695 0.0
C954 C 0.47844 0.31638 0.15976 0.0
O955 O 0.49777 0.30827 0.16066 0.0
O956 O 0.47297 0.33252 0.17215 0.0
C957 C 0.55315 0.30615 0.14175 0.0
O958 O 0.54386 0.32436 0.13452 0.0
C959 C 0.46126 0.38644 0.19721 0.0
C960 C 0.45577 0.39177 0.2329 0.0
C961 C 0.45102 0.40075 0.21228 0.0
N962 N 0.47158 0.3703 0.20854 0.0
N963 N 0.46801 0.37349 0.22985 0.0
C964 C 0.46303 0.38864 0.1726 0.0
H965 H 0.47641 0.37791 0.1661 0.0
H966 H 0.46645 0.40601 0.16798 0.0
H967 H 0.44724 0.38344 0.16487 0.0
C968 C 0.55268 0.35546 0.17905 0.0
N969 N 0.53275 0.34547 0.17954 0.0
N970 N 0.51794 0.35929 0.18747 0.0
C971 C 0.528 0.37881 0.19166 0.0
C972 C 0.5504 0.37705 0.18645 0.0
C973 C 0.5741 0.34337 0.17606 0.0
H974 H 0.57879 0.34366 0.15831 0.0
H975 H 0.58759 0.35119 0.18569 0.0
H976 H 0.57242 0.32601 0.18149 0.0
O977 O 0.5232 0.30367 0.20733 0.0
O978 O 0.49633 0.32462 0.2215 0.0
H979 H 0.52783 0.41277 0.20319 0.0
H980 H 0.50257 0.40318 0.19141 0.0
C981 C 0.51672 0.39831 0.20186 0.0
H982 H 0.51042 0.39384 0.21849 0.0
H983 H 0.47435 0.36345 0.24236 0.0
O984 O 0.54814 0.29886 0.16077 0.0
C985 C 0.51054 0.30901 0.22328 0.0
Co986 Co 0.74197 0.53022 0.17238 0.0
Co987 Co 0.71226 0.49271 0.19143 0.0
C988 C 0.74327 0.48454 0.15303 0.0
O989 O 0.7489 0.50468 0.15327 0.0
O990 O 0.72923 0.47714 0.16688 0.0
C991 C 0.75316 0.55853 0.13826 0.0
O992 O 0.73733 0.54727 0.12858 0.0
C993 C 0.67446 0.46274 0.18728 0.0
C994 C 0.66782 0.45279 0.22173 0.0
C995 C 0.66027 0.44995 0.2002 0.0
N996 N 0.68944 0.47248 0.20055 0.0
N997 N 0.68544 0.46637 0.22113 0.0
C998 C 0.67304 0.46727 0.16298 0.0
H999 H 0.6818 0.4828 0.15887 0.0
H1000 H 0.65554 0.46844 0.15763 0.0
H1001 H 0.68114 0.45363 0.15377 0.0
C1002 C 0.7 0.55509 0.17342 0.0
N1003 N 0.71141 0.53601 0.17465 0.0
N1004 N 0.69856 0.52041 0.18263 0.0
C1005 C 0.67832 0.52924 0.18649 0.0
C1006 C 0.67857 0.55148 0.18067 0.0
C1007 C 0.70999 0.57684 0.16727 0.0
H1008 H 0.72637 0.57867 0.17527 0.0
H1009 H 0.71224 0.57745 0.14909 0.0
H1010 H 0.69933 0.59093 0.17203 0.0
O1011 O 0.75361 0.52621 0.20247 0.0
O1012 O 0.73345 0.49894 0.21677 0.0
H1013 H 0.66671 0.50913 0.21317 0.0
H1014 H 0.6468 0.52918 0.20347 0.0
C1015 C 0.66005 0.51759 0.19835 0.0
H1016 H 0.65281 0.50497 0.18723 0.0
H1017 H 0.69454 0.4717 0.2348 0.0
O1018 O 0.75788 0.55465 0.15833 0.0
C1019 C 0.74881 0.51338 0.21842 0.0
Co1020 Co 0.53005 0.74284 0.17645 0.0
Co1021 Co 0.5634 0.70895 0.19662 0.0
C1022 C 0.57777 0.74162 0.16179 0.0
O1023 O 0.55851 0.7499 0.16178 0.0
O1024 O 0.58225 0.72493 0.17382 0.0
C1025 C 0.50483 0.75407 0.1398 0.0
O1026 O 0.51456 0.73623 0.1322 0.0
C1027 C 0.59284 0.66942 0.19707 0.0
C1028 C 0.59732 0.66412 0.23289 0.0
C1029 C 0.60343 0.65588 0.21236 0.0
N1030 N 0.58089 0.68473 0.20809 0.0
N1031 N 0.58363 0.68132 0.22952 0.0
C1032 C 0.59505 0.66859 0.17242 0.0
H1033 H 0.58735 0.68326 0.16467 0.0
H1034 H 0.5867 0.65362 0.16599 0.0
H1035 H 0.61276 0.66752 0.16776 0.0
C1036 C 0.50201 0.70293 0.17402 0.0
N1037 N 0.522 0.71246 0.17662 0.0
N1038 N 0.53597 0.69785 0.18462 0.0
C1039 C 0.5253 0.67833 0.18679 0.0
C1040 C 0.50337 0.68085 0.18004 0.0
C1041 C 0.48107 0.7156 0.17024 0.0
H1042 H 0.4826 0.73257 0.17687 0.0
H1043 H 0.47769 0.71641 0.15222 0.0
H1044 H 0.46679 0.70751 0.17838 0.0
O1045 O 0.53065 0.75275 0.20719 0.0
O1046 O 0.55544 0.72993 0.22221 0.0
H1047 H 0.53992 0.66116 0.21399 0.0
H1048 H 0.52439 0.6436 0.19531 0.0
C1049 C 0.53555 0.65805 0.19643 0.0
H1050 H 0.55092 0.65414 0.18732 0.0
H1051 H 0.5764 0.69096 0.24187 0.0
O1052 O 0.50851 0.7603 0.15952 0.0
C1053 C 0.54174 0.74602 0.22374 0.0
Co1054 Co 0.31401 0.53065 0.17404 0.0
Co1055 Co 0.34617 0.56444 0.19643 0.0
C1056 C 0.31485 0.57842 0.16016 0.0
O1057 O 0.30687 0.55909 0.15948 0.0
O1058 O 0.33089 0.58301 0.17305 0.0
C1059 C 0.30706 0.50607 0.13617 0.0
O1060 O 0.32401 0.5182 0.13019 0.0
C1061 C 0.38557 0.59339 0.19698 0.0
C1062 C 0.39192 0.5974 0.23267 0.0
C1063 C 0.40024 0.60316 0.21201 0.0
N1064 N 0.36981 0.58244 0.20833 0.0
N1065 N 0.37365 0.5851 0.22967 0.0
C1066 C 0.38712 0.59277 0.17227 0.0
H1067 H 0.37657 0.57941 0.16547 0.0
H1068 H 0.40448 0.59009 0.16699 0.0
H1069 H 0.38123 0.6087 0.16545 0.0
C1070 C 0.35465 0.5038 0.17307 0.0
N1071 N 0.34456 0.52349 0.17566 0.0
N1072 N 0.35852 0.53756 0.18458 0.0
C1073 C 0.37822 0.52726 0.18737 0.0
C1074 C 0.37645 0.50555 0.17992 0.0
C1075 C 0.34266 0.48259 0.16872 0.0
H1076 H 0.32544 0.48359 0.17483 0.0
H1077 H 0.34259 0.47924 0.15068 0.0
H1078 H 0.35089 0.46851 0.17705 0.0
O1079 O 0.30275 0.53043 0.20443 0.0
O1080 O 0.32426 0.55549 0.22102 0.0
H1081 H 0.39328 0.54305 0.21525 0.0
H1082 H 0.41205 0.52599 0.19928 0.0
C1083 C 0.39786 0.53751 0.19836 0.0
H1084 H 0.40314 0.5521 0.18876 0.0
H1085 H 0.36403 0.57816 0.24219 0.0
O1086 O 0.29899 0.50847 0.15545 0.0
C1087 C 0.30846 0.54135 0.22153 0.0
Co1088 Co 0.88487 0.52559 0.7442 0.0
Co1089 Co 0.8648 0.49163 0.71097 0.0
C1090 C 0.90147 0.47869 0.74212 0.0
O1091 O 0.90103 0.49782 0.75068 0.0
O1092 O 0.88895 0.47386 0.72585 0.0
C1093 C 0.92039 0.55224 0.75601 0.0
O1094 O 0.92898 0.5426 0.73852 0.0
C1095 C 0.86503 0.46237 0.6715 0.0
C1096 C 0.82961 0.45484 0.66741 0.0
C1097 C 0.85028 0.45036 0.65858 0.0
N1098 N 0.85357 0.47356 0.68706 0.0
N1099 N 0.83238 0.46904 0.68438 0.0
C1100 C 0.8897 0.4619 0.67014 0.0
H1101 H 0.89712 0.47303 0.68268 0.0
H1102 H 0.89512 0.46714 0.65343 0.0
H1103 H 0.89565 0.44478 0.67275 0.0
C1104 C 0.88634 0.55329 0.70382 0.0
N1105 N 0.88371 0.53355 0.71377 0.0
N1106 N 0.87546 0.51939 0.69945 0.0
C1107 C 0.87307 0.5297 0.67971 0.0
C1108 C 0.88007 0.55154 0.68178 0.0
C1109 C 0.89077 0.57439 0.716 0.0
H1110 H 0.88419 0.57348 0.73307 0.0
H1111 H 0.90885 0.57729 0.71666 0.0
H1112 H 0.883 0.58866 0.70753 0.0
O1113 O 0.8546 0.52382 0.75499 0.0
O1114 O 0.8398 0.49806 0.73319 0.0
H1115 H 0.84636 0.51333 0.66334 0.0
H1116 H 0.86298 0.53046 0.64524 0.0
C1117 C 0.86335 0.51909 0.65958 0.0
H1118 H 0.87341 0.50452 0.65502 0.0
H1119 H 0.81982 0.47528 0.69444 0.0
O1120 O 0.90069 0.54785 0.76164 0.0
C1121 C 0.83831 0.51192 0.7492 0.0
Co1122 Co 0.53135 0.8855 0.74438 0.0
Co1123 Co 0.56644 0.86521 0.71233 0.0
C1124 C 0.57895 0.90084 0.74485 0.0
O1125 O 0.55952 0.90044 0.75284 0.0
O1126 O 0.58405 0.88888 0.72822 0.0
C1127 C 0.50898 0.92276 0.75863 0.0
O1128 O 0.52578 0.93181 0.74831 0.0
C1129 C 0.59666 0.8638 0.67345 0.0
C1130 C 0.60216 0.82801 0.6697 0.0
C1131 C 0.60781 0.84823 0.66067 0.0
N1132 N 0.58484 0.85319 0.68911 0.0
N1133 N 0.5882 0.83179 0.68666 0.0
C1134 C 0.59821 0.88835 0.67164 0.0
H1135 H 0.59075 0.89648 0.68629 0.0
H1136 H 0.58924 0.89395 0.65667 0.0
H1137 H 0.61576 0.89338 0.66987 0.0
C1138 C 0.50573 0.88858 0.70308 0.0
N1139 N 0.52509 0.88522 0.71362 0.0
N1140 N 0.53935 0.87628 0.69983 0.0
C1141 C 0.5294 0.87377 0.6799 0.0
C1142 C 0.50775 0.88163 0.68124 0.0
C1143 C 0.48468 0.89454 0.71473 0.0
H1144 H 0.48335 0.88511 0.73037 0.0
H1145 H 0.48489 0.91239 0.71878 0.0
H1146 H 0.46988 0.89096 0.70455 0.0
O1147 O 0.53178 0.85491 0.75473 0.0
O1148 O 0.55876 0.84055 0.73406 0.0
H1149 H 0.54509 0.8458 0.66502 0.0
H1150 H 0.52873 0.86209 0.64592 0.0
C1151 C 0.53995 0.86275 0.6604 0.0
H1152 H 0.55492 0.87204 0.65561 0.0
H1153 H 0.58113 0.81974 0.69673 0.0
O1154 O 0.50771 0.9019 0.75961 0.0
C1155 C 0.5441 0.83876 0.74927 0.0
Co1156 Co 0.17834 0.53278 0.74542 0.0
Co1157 Co 0.19891 0.56851 0.7144 0.0
C1158 C 0.16158 0.57957 0.74576 0.0
O1159 O 0.16058 0.55966 0.75221 0.0
O1160 O 0.17553 0.58527 0.73107 0.0
C1161 C 0.14381 0.50355 0.75424 0.0
O1162 O 0.13605 0.51273 0.73616 0.0
C1163 C 0.19459 0.59887 0.6772 0.0
C1164 C 0.22901 0.60592 0.66756 0.0
C1165 C 0.20724 0.61051 0.66185 0.0
N1166 N 0.20822 0.58806 0.69107 0.0
N1167 N 0.2288 0.59248 0.68532 0.0
C1168 C 0.17003 0.59597 0.67759 0.0
H1169 H 0.16556 0.58062 0.6865 0.0
H1170 H 0.16331 0.59531 0.66052 0.0
H1171 H 0.16241 0.61008 0.68648 0.0
C1172 C 0.18096 0.50613 0.70438 0.0
N1173 N 0.18115 0.52581 0.7149 0.0
N1174 N 0.18904 0.54096 0.70149 0.0
C1175 C 0.19338 0.53142 0.68167 0.0
C1176 C 0.18846 0.50895 0.68281 0.0
C1177 C 0.17821 0.48447 0.716 0.0
H1178 H 0.18345 0.48588 0.7335 0.0
H1179 H 0.16058 0.47952 0.7154 0.0
H1180 H 0.18815 0.47132 0.70798 0.0
O1181 O 0.20845 0.53596 0.75726 0.0
O1182 O 0.22387 0.56187 0.736 0.0
H1183 H 0.22025 0.5488 0.66669 0.0
H1184 H 0.20375 0.53296 0.64731 0.0
C1185 C 0.20328 0.54335 0.66241 0.0
H1186 H 0.19324 0.55813 0.65867 0.0
H1187 H 0.24268 0.586 0.69325 0.0
O1188 O 0.16268 0.5092 0.76144 0.0
C1189 C 0.22487 0.54803 0.752 0.0
Co1190 Co 0.52788 0.17159 0.74565 0.0
Co1191 Co 0.49373 0.19382 0.71386 0.0
C1192 C 0.4795 0.15837 0.74523 0.0
O1193 O 0.49872 0.15835 0.75364 0.0
O1194 O 0.47517 0.17021 0.72837 0.0
C1195 C 0.54563 0.132 0.75916 0.0
O1196 O 0.52821 0.12563 0.74789 0.0
C1197 C 0.46684 0.19502 0.67332 0.0
C1198 C 0.45849 0.23026 0.67023 0.0
C1199 C 0.4556 0.21002 0.65973 0.0
N1200 N 0.47576 0.20602 0.69054 0.0
N1201 N 0.47059 0.22707 0.68863 0.0
C1202 C 0.47031 0.17081 0.66994 0.0
H1203 H 0.48324 0.16451 0.68132 0.0
H1204 H 0.4753 0.1674 0.6526 0.0
H1205 H 0.45472 0.16191 0.67357 0.0
C1206 C 0.55397 0.16927 0.70448 0.0
N1207 N 0.53451 0.17255 0.71491 0.0
N1208 N 0.52081 0.18271 0.70144 0.0
C1209 C 0.53129 0.1863 0.68196 0.0
C1210 C 0.55263 0.17778 0.6832 0.0
C1211 C 0.57411 0.16004 0.71549 0.0
H1212 H 0.57827 0.17021 0.73019 0.0
H1213 H 0.57055 0.14307 0.72124 0.0
H1214 H 0.58848 0.15943 0.70411 0.0
O1215 O 0.52841 0.20215 0.75692 0.0
O1216 O 0.50154 0.21742 0.73665 0.0
H1217 H 0.53601 0.20673 0.65296 0.0
H1218 H 0.51067 0.19133 0.65374 0.0
C1219 C 0.52257 0.2008 0.66393 0.0
H1220 H 0.5139 0.21521 0.67117 0.0
H1221 H 0.47553 0.2393 0.69976 0.0
O1222 O 0.54993 0.15249 0.76059 0.0
C1223 C 0.51616 0.21857 0.75199 0.0
Co1224 Co 0.88386 0.53009 0.3173 0.0
Co1225 Co 0.86361 0.56812 0.3459 0.0
C1226 C 0.90231 0.57636 0.31539 0.0
O1227 O 0.90234 0.55614 0.30989 0.0
O1228 O 0.88832 0.58376 0.32934 0.0
C1229 C 0.91992 0.50428 0.30608 0.0
O1230 O 0.92972 0.52026 0.31701 0.0
C1231 C 0.86396 0.59921 0.38374 0.0
C1232 C 0.82885 0.60869 0.38632 0.0
C1233 C 0.84936 0.61208 0.39597 0.0
N1234 N 0.85255 0.58847 0.36787 0.0
N1235 N 0.83156 0.59425 0.36955 0.0
C1236 C 0.88851 0.59796 0.38638 0.0
H1237 H 0.8961 0.58865 0.37251 0.0
H1238 H 0.89262 0.58954 0.40212 0.0
H1239 H 0.89552 0.61486 0.3872 0.0
C1240 C 0.88085 0.50601 0.35904 0.0
N1241 N 0.88067 0.52523 0.34787 0.0
N1242 N 0.8723 0.5409 0.36041 0.0
C1243 C 0.86718 0.53201 0.38033 0.0
C1244 C 0.87247 0.50954 0.38017 0.0
C1245 C 0.88467 0.48412 0.34808 0.0
H1246 H 0.87658 0.4839 0.33163 0.0
H1247 H 0.90267 0.48163 0.3457 0.0
H1248 H 0.87797 0.47021 0.35785 0.0
O1249 O 0.8541 0.53293 0.30462 0.0
O1250 O 0.83932 0.56074 0.32383 0.0
H1251 H 0.83976 0.55055 0.39282 0.0
H1252 H 0.85383 0.5342 0.41364 0.0
C1253 C 0.85603 0.54443 0.39862 0.0
H1254 H 0.86625 0.55882 0.40321 0.0
H1255 H 0.81907 0.5884 0.35919 0.0
O1256 O 0.89908 0.50468 0.30383 0.0
C1257 C 0.83803 0.54586 0.30879 0.0
Co1258 Co 0.52949 0.88871 0.32127 0.0
Co1259 Co 0.4945 0.8613 0.34774 0.0
C1260 C 0.48126 0.89794 0.31563 0.0
O1261 O 0.50139 0.90201 0.31138 0.0
O1262 O 0.47614 0.88283 0.32941 0.0
C1263 C 0.55071 0.92692 0.30529 0.0
O1264 O 0.53161 0.93581 0.31053 0.0
C1265 C 0.46435 0.86029 0.386 0.0
C1266 C 0.45288 0.82581 0.38662 0.0
C1267 C 0.4506 0.84589 0.39745 0.0
N1268 N 0.4744 0.8492 0.36945 0.0
N1269 N 0.4675 0.82854 0.36999 0.0
C1270 C 0.46677 0.88458 0.38967 0.0
H1271 H 0.47409 0.89259 0.37489 0.0
H1272 H 0.47784 0.8875 0.404 0.0
H1273 H 0.45047 0.89207 0.39352 0.0
C1274 C 0.55066 0.89139 0.36464 0.0
N1275 N 0.53262 0.88725 0.35224 0.0
N1276 N 0.51898 0.87455 0.36338 0.0
C1277 C 0.52832 0.86981 0.38319 0.0
C1278 C 0.54871 0.8804 0.38467 0.0
C1279 C 0.57065 0.90331 0.35634 0.0
H1280 H 0.56558 0.91929 0.34904 0.0
H1281 H 0.58268 0.90651 0.36982 0.0
H1282 H 0.57874 0.89331 0.34324 0.0
O1283 O 0.53209 0.8584 0.30962 0.0
O1284 O 0.50715 0.83776 0.32716 0.0
H1285 H 0.53351 0.84573 0.40913 0.0
H1286 H 0.50703 0.85916 0.40926 0.0
C1287 C 0.52008 0.85219 0.39844 0.0
H1288 H 0.51285 0.83843 0.38874 0.0
H1289 H 0.47252 0.81637 0.35882 0.0
O1290 O 0.55371 0.90645 0.30853 0.0
C1291 C 0.5228 0.83983 0.31299 0.0
Co1292 Co 0.16732 0.52562 0.32186 0.0
Co1293 Co 0.19578 0.49119 0.34798 0.0
C1294 C 0.15902 0.47713 0.31649 0.0
O1295 O 0.15489 0.49717 0.3122 0.0
O1296 O 0.17422 0.47215 0.33025 0.0
C1297 C 0.12659 0.54355 0.31136 0.0
O1298 O 0.12061 0.52531 0.3214 0.0
C1299 C 0.19712 0.46164 0.3866 0.0
C1300 C 0.23167 0.45023 0.3875 0.0
C1301 C 0.21152 0.44805 0.39829 0.0
N1302 N 0.20825 0.47149 0.36996 0.0
N1303 N 0.22896 0.46462 0.37069 0.0
C1304 C 0.17278 0.46411 0.39017 0.0
H1305 H 0.16476 0.47122 0.37528 0.0
H1306 H 0.16983 0.47538 0.40434 0.0
H1307 H 0.16527 0.44791 0.3942 0.0
C1308 C 0.16532 0.54717 0.36514 0.0
N1309 N 0.16934 0.52906 0.35277 0.0
N1310 N 0.18259 0.51572 0.36364 0.0
C1311 C 0.18791 0.52539 0.38316 0.0
C1312 C 0.17686 0.54548 0.38489 0.0
C1313 C 0.15421 0.56749 0.35652 0.0
H1314 H 0.16286 0.57321 0.3414 0.0
H1315 H 0.13691 0.56351 0.35204 0.0
H1316 H 0.15412 0.58101 0.36892 0.0
O1317 O 0.19743 0.52918 0.30957 0.0
O1318 O 0.2186 0.50419 0.3266 0.0
H1319 H 0.21985 0.51082 0.38822 0.0
H1320 H 0.21191 0.5307 0.40922 0.0
C1321 C 0.20589 0.51738 0.39815 0.0
H1322 H 0.1994 0.50385 0.40861 0.0
H1323 H 0.24118 0.46948 0.35952 0.0
O1324 O 0.14704 0.54801 0.30962 0.0
C1325 C 0.21616 0.51992 0.31256 0.0
Co1326 Co 0.52833 0.17496 0.322 0.0
Co1327 Co 0.56568 0.19567 0.35165 0.0
C1328 C 0.57521 0.15766 0.32073 0.0
O1329 O 0.55508 0.15738 0.31485 0.0
O1330 O 0.5821 0.17141 0.33515 0.0
C1331 C 0.50389 0.13823 0.309 0.0
O1332 O 0.52021 0.12859 0.31957 0.0
C1333 C 0.5955 0.19526 0.3906 0.0
C1334 C 0.60293 0.23056 0.395 0.0
C1335 C 0.60678 0.21001 0.40447 0.0
N1336 N 0.58546 0.20672 0.37429 0.0
N1337 N 0.59021 0.22779 0.37694 0.0
C1338 C 0.59257 0.17092 0.39334 0.0
H1339 H 0.57917 0.16479 0.3824 0.0
H1340 H 0.58852 0.16694 0.4108 0.0
H1341 H 0.60812 0.16238 0.38873 0.0
C1342 C 0.50326 0.17792 0.36307 0.0
N1343 N 0.52286 0.17799 0.3525 0.0
N1344 N 0.53813 0.18654 0.36541 0.0
C1345 C 0.52857 0.19182 0.38502 0.0
C1346 C 0.50608 0.18657 0.38421 0.0
C1347 C 0.48173 0.17403 0.35141 0.0
H1348 H 0.48203 0.18219 0.33501 0.0
H1349 H 0.47949 0.15606 0.34878 0.0
H1350 H 0.46741 0.18057 0.36075 0.0
O1351 O 0.53091 0.20485 0.30976 0.0
O1352 O 0.55823 0.21992 0.32953 0.0
H1353 H 0.54673 0.21928 0.3979 0.0
H1354 H 0.52968 0.20543 0.4183 0.0
C1355 C 0.5404 0.2031 0.40361 0.0
H1356 H 0.55461 0.19289 0.40878 0.0
H1357 H 0.58434 0.24035 0.36671 0.0
O1358 O 0.50346 0.15914 0.30779 0.0
C1359 C 0.54353 0.22107 0.31428 0.0
Co1360 Co 0.74332 0.88171 0.52866 0.0
Co1361 Co 0.71071 0.86255 0.49349 0.0
C1362 C 0.74191 0.89937 0.482 0.0
O1363 O 0.75025 0.89837 0.50126 0.0
O1364 O 0.72564 0.88716 0.47662 0.0
C1365 C 0.75576 0.91699 0.55531 0.0
O1366 O 0.73942 0.92625 0.54444 0.0
C1367 C 0.67071 0.86336 0.46519 0.0
C1368 C 0.66845 0.82875 0.4541 0.0
C1369 C 0.65836 0.84917 0.45202 0.0
N1370 N 0.68719 0.85181 0.47478 0.0
N1371 N 0.6856 0.83109 0.46814 0.0
C1372 C 0.66804 0.88779 0.46719 0.0
H1373 H 0.68044 0.89478 0.47876 0.0
H1374 H 0.65119 0.89175 0.47324 0.0
H1375 H 0.66994 0.89546 0.45063 0.0
C1376 C 0.70243 0.88271 0.55576 0.0
N1377 N 0.71278 0.88052 0.53607 0.0
N1378 N 0.69884 0.87232 0.52148 0.0
C1379 C 0.67904 0.86936 0.53148 0.0
C1380 C 0.68065 0.87596 0.55349 0.0
C1381 C 0.71371 0.88931 0.57683 0.0
H1382 H 0.71596 0.90744 0.57695 0.0
H1383 H 0.7039 0.88494 0.59166 0.0
H1384 H 0.73017 0.88134 0.57788 0.0
O1385 O 0.75409 0.85141 0.52604 0.0
O1386 O 0.73286 0.83764 0.49922 0.0
H1387 H 0.64747 0.85271 0.53376 0.0
H1388 H 0.65186 0.86858 0.509 0.0
C1389 C 0.65991 0.85756 0.52119 0.0
H1390 H 0.66581 0.84262 0.51239 0.0
H1391 H 0.69651 0.81861 0.47283 0.0
O1392 O 0.76043 0.8969 0.55174 0.0
C1393 C 0.74858 0.83563 0.5133 0.0
Co1394 Co 0.74268 0.1716 0.53488 0.0
Co1395 Co 0.71119 0.19414 0.56951 0.0
C1396 C 0.74303 0.15855 0.58326 0.0
O1397 O 0.75008 0.15749 0.56352 0.0
O1398 O 0.72733 0.17165 0.58828 0.0
C1399 C 0.75481 0.13205 0.51618 0.0
O1400 O 0.74276 0.12572 0.53309 0.0
C1401 C 0.67223 0.19453 0.59905 0.0
C1402 C 0.66904 0.22972 0.60775 0.0
C1403 C 0.65978 0.20918 0.61167 0.0
N1404 N 0.68792 0.20591 0.58805 0.0
N1405 N 0.6858 0.22698 0.59328 0.0
C1406 C 0.67034 0.16994 0.59874 0.0
H1407 H 0.68395 0.16246 0.58898 0.0
H1408 H 0.65435 0.16509 0.59124 0.0
H1409 H 0.67062 0.16354 0.61594 0.0
C1410 C 0.70182 0.16937 0.50905 0.0
N1411 N 0.71217 0.17275 0.52851 0.0
N1412 N 0.6986 0.18249 0.54246 0.0
C1413 C 0.67897 0.18558 0.5321 0.0
C1414 C 0.6803 0.17721 0.51056 0.0
C1415 C 0.71359 0.16248 0.48833 0.0
H1416 H 0.72976 0.17099 0.48728 0.0
H1417 H 0.71663 0.14444 0.48885 0.0
H1418 H 0.70399 0.16641 0.47322 0.0
O1419 O 0.75422 0.20213 0.53499 0.0
O1420 O 0.73346 0.21799 0.56123 0.0
H1421 H 0.66534 0.21429 0.54762 0.0
H1422 H 0.64586 0.1993 0.53043 0.0
C1423 C 0.65987 0.1977 0.54212 0.0
H1424 H 0.65402 0.1886 0.55686 0.0
H1425 H 0.6961 0.23944 0.58735 0.0
O1426 O 0.75744 0.15256 0.51264 0.0
C1427 C 0.74911 0.2188 0.5469 0.0
Co1428 Co 0.88585 0.74086 0.53055 0.0
Co1429 Co 0.86518 0.70905 0.5658 0.0
C1430 C 0.9014 0.7409 0.57812 0.0
O1431 O 0.9009 0.74904 0.55876 0.0
O1432 O 0.8894 0.72435 0.58316 0.0
C1433 C 0.92263 0.75807 0.50843 0.0
O1434 O 0.93229 0.75043 0.52631 0.0
C1435 C 0.86482 0.66877 0.59362 0.0
C1436 C 0.8294 0.66524 0.60139 0.0
C1437 C 0.84977 0.65517 0.60469 0.0
N1438 N 0.85372 0.68572 0.58434 0.0
N1439 N 0.83258 0.68353 0.58922 0.0
C1440 C 0.88907 0.66523 0.59041 0.0
H1441 H 0.89523 0.67524 0.57635 0.0
H1442 H 0.89262 0.64752 0.58735 0.0
H1443 H 0.89798 0.67051 0.60556 0.0
C1444 C 0.88854 0.69969 0.50493 0.0
N1445 N 0.88539 0.71019 0.52437 0.0
N1446 N 0.87567 0.69672 0.53838 0.0
C1447 C 0.8721 0.6772 0.52804 0.0
C1448 C 0.88018 0.67845 0.50648 0.0
C1449 C 0.89761 0.71049 0.48461 0.0
H1450 H 0.91409 0.7175 0.48838 0.0
H1451 H 0.89944 0.69866 0.4707 0.0
H1452 H 0.88653 0.72416 0.47953 0.0
O1453 O 0.85509 0.75131 0.53151 0.0
O1454 O 0.84064 0.73103 0.55869 0.0
H1455 H 0.85241 0.64763 0.5241 0.0
H1456 H 0.86789 0.64956 0.54945 0.0
C1457 C 0.85809 0.65908 0.53726 0.0
H1458 H 0.84352 0.66614 0.54583 0.0
H1459 H 0.82024 0.69434 0.58391 0.0
O1460 O 0.90183 0.75609 0.50641 0.0
C1461 C 0.83894 0.74619 0.54401 0.0
Co1462 Co 0.3188 0.88478 0.52991 0.0
Co1463 Co 0.35028 0.86398 0.56527 0.0
C1464 C 0.31795 0.89991 0.5777 0.0
O1465 O 0.31001 0.89964 0.55823 0.0
O1466 O 0.33455 0.88792 0.5827 0.0
C1467 C 0.30228 0.9217 0.50787 0.0
O1468 O 0.31034 0.93113 0.52571 0.0
C1469 C 0.39043 0.86406 0.59325 0.0
C1470 C 0.39378 0.82895 0.60207 0.0
C1471 C 0.40394 0.84932 0.60487 0.0
N1472 N 0.37349 0.85278 0.58414 0.0
N1473 N 0.37556 0.83183 0.58963 0.0
C1474 C 0.39395 0.88817 0.58944 0.0
H1475 H 0.38364 0.89403 0.57544 0.0
H1476 H 0.41162 0.89157 0.58592 0.0
H1477 H 0.38898 0.89745 0.60448 0.0
C1478 C 0.36029 0.88699 0.50446 0.0
N1479 N 0.34964 0.88421 0.52389 0.0
N1480 N 0.36298 0.87449 0.53804 0.0
C1481 C 0.38256 0.87062 0.52786 0.0
C1482 C 0.38152 0.87848 0.50622 0.0
C1483 C 0.34959 0.89576 0.48394 0.0
H1484 H 0.34274 0.91236 0.48738 0.0
H1485 H 0.36147 0.89711 0.47003 0.0
H1486 H 0.33576 0.88478 0.47906 0.0
O1487 O 0.30841 0.85403 0.5304 0.0
O1488 O 0.32857 0.83936 0.55759 0.0
H1489 H 0.41185 0.85036 0.52418 0.0
H1490 H 0.41025 0.86624 0.5493 0.0
C1491 C 0.4005 0.85645 0.53726 0.0
H1492 H 0.39321 0.84216 0.54603 0.0
H1493 H 0.3647 0.81942 0.58462 0.0
O1494 O 0.30378 0.9009 0.50578 0.0
C1495 C 0.31354 0.83777 0.54271 0.0
Co1496 Co 0.17149 0.31714 0.53066 0.0
Co1497 Co 0.19378 0.34791 0.56561 0.0
C1498 C 0.15847 0.31534 0.57891 0.0
O1499 O 0.1581 0.30783 0.55932 0.0
O1500 O 0.17059 0.33182 0.58377 0.0
C1501 C 0.13256 0.30329 0.51218 0.0
O1502 O 0.12564 0.31402 0.52977 0.0
C1503 C 0.19077 0.38606 0.59505 0.0
C1504 C 0.22535 0.39361 0.60362 0.0
C1505 C 0.20378 0.4006 0.60738 0.0
N1506 N 0.20398 0.37135 0.58479 0.0
N1507 N 0.22466 0.37593 0.59003 0.0
C1508 C 0.1663 0.38676 0.59157 0.0
H1509 H 0.16175 0.37804 0.57607 0.0
H1510 H 0.16035 0.40406 0.59081 0.0
H1511 H 0.15798 0.37824 0.6055 0.0
C1512 C 0.16921 0.35857 0.5055 0.0
N1513 N 0.17201 0.34788 0.52488 0.0
N1514 N 0.18217 0.36096 0.53895 0.0
C1515 C 0.18611 0.38051 0.52885 0.0
C1516 C 0.17804 0.37966 0.50724 0.0
C1517 C 0.16043 0.34788 0.48495 0.0
H1518 H 0.17105 0.33363 0.48046 0.0
H1519 H 0.14355 0.3416 0.48819 0.0
H1520 H 0.15967 0.35957 0.47087 0.0
O1521 O 0.20221 0.30679 0.52966 0.0
O1522 O 0.21854 0.32648 0.55643 0.0
H1523 H 0.21561 0.39075 0.54551 0.0
H1524 H 0.20521 0.41059 0.52574 0.0
C1525 C 0.20047 0.39821 0.53838 0.0
H1526 H 0.19141 0.40669 0.55189 0.0
H1527 H 0.23831 0.36711 0.58422 0.0
O1528 O 0.15314 0.30249 0.50805 0.0
C1529 C 0.21917 0.31167 0.54119 0.0
Co1530 Co 0.31735 0.16847 0.53463 0.0
Co1531 Co 0.34436 0.1942 0.49896 0.0
C1532 C 0.31469 0.15581 0.48678 0.0
O1533 O 0.30982 0.15306 0.50695 0.0
O1534 O 0.32779 0.17114 0.48091 0.0
C1535 C 0.31391 0.12904 0.55527 0.0
O1536 O 0.32768 0.12514 0.5389 0.0
C1537 C 0.38101 0.19163 0.46827 0.0
C1538 C 0.38904 0.22608 0.46002 0.0
C1539 C 0.39571 0.20447 0.45601 0.0
N1540 N 0.36662 0.20495 0.47881 0.0
N1541 N 0.3714 0.22557 0.4737 0.0
C1542 C 0.38158 0.1672 0.4719 0.0
H1543 H 0.37243 0.1627 0.48712 0.0
H1544 H 0.39887 0.16125 0.47325 0.0
H1545 H 0.37344 0.1588 0.45775 0.0
C1546 C 0.35984 0.16901 0.55794 0.0
N1547 N 0.34787 0.17193 0.53936 0.0
N1548 N 0.35965 0.1828 0.52472 0.0
C1549 C 0.37982 0.18692 0.53363 0.0
C1550 C 0.38065 0.17803 0.55491 0.0
C1551 C 0.35025 0.16171 0.57962 0.0
H1552 H 0.33305 0.16773 0.5813 0.0
H1553 H 0.35032 0.14344 0.58034 0.0
H1554 H 0.35991 0.16805 0.59386 0.0
O1555 O 0.30414 0.19826 0.53568 0.0
O1556 O 0.32251 0.21761 0.51006 0.0
H1557 H 0.39021 0.21621 0.51684 0.0
H1558 H 0.41149 0.20369 0.5338 0.0
C1559 C 0.39736 0.20039 0.52263 0.0
H1560 H 0.4037 0.19132 0.50803 0.0
H1561 H 0.36295 0.23928 0.47988 0.0
O1562 O 0.30595 0.14835 0.55745 0.0
C1563 C 0.30776 0.21627 0.52533 0.0
Co1564 Co 0.88658 0.31537 0.52823 0.0
Co1565 Co 0.8642 0.34637 0.49313 0.0
C1566 C 0.89974 0.31415 0.47991 0.0
O1567 O 0.90085 0.30738 0.49972 0.0
O1568 O 0.88664 0.32977 0.47479 0.0
C1569 C 0.92586 0.30252 0.54676 0.0
O1570 O 0.93226 0.31436 0.52974 0.0
C1571 C 0.86797 0.38504 0.4649 0.0
C1572 C 0.83369 0.39306 0.4556 0.0
C1573 C 0.85538 0.40009 0.45277 0.0
N1574 N 0.85443 0.37009 0.4742 0.0
N1575 N 0.83392 0.37491 0.46851 0.0
C1576 C 0.89234 0.38544 0.46918 0.0
H1577 H 0.89645 0.37571 0.48414 0.0
H1578 H 0.89823 0.40264 0.47134 0.0
H1579 H 0.90109 0.37782 0.45496 0.0
C1580 C 0.88896 0.3568 0.55346 0.0
N1581 N 0.88564 0.34594 0.53424 0.0
N1582 N 0.87567 0.35907 0.5201 0.0
C1583 C 0.87229 0.37883 0.53005 0.0
C1584 C 0.88066 0.37807 0.55153 0.0
C1585 C 0.89812 0.3463 0.57391 0.0
H1586 H 0.88797 0.33172 0.57833 0.0
H1587 H 0.91518 0.34054 0.57056 0.0
H1588 H 0.89864 0.35793 0.58807 0.0
O1589 O 0.85573 0.30424 0.52773 0.0
O1590 O 0.83984 0.3247 0.50129 0.0
H1591 H 0.84339 0.38968 0.51266 0.0
H1592 H 0.8531 0.40884 0.53344 0.0
C1593 C 0.85828 0.39684 0.52057 0.0
H1594 H 0.86786 0.40574 0.50775 0.0
H1595 H 0.82009 0.366 0.47362 0.0
O1596 O 0.90531 0.3006 0.55076 0.0
C1597 C 0.83903 0.30924 0.51578 0.0
Co1598 Co 0.1791 0.7423 0.52523 0.0
Co1599 Co 0.19793 0.70937 0.48977 0.0
C1600 C 0.16138 0.74091 0.47839 0.0
O1601 O 0.16237 0.74896 0.49777 0.0
O1602 O 0.1736 0.72471 0.47282 0.0
C1603 C 0.14413 0.75141 0.55376 0.0
O1604 O 0.13713 0.73274 0.54522 0.0
C1605 C 0.19756 0.66977 0.46009 0.0
C1606 C 0.23318 0.66275 0.45693 0.0
C1607 C 0.21255 0.65493 0.45069 0.0
N1608 N 0.20888 0.68523 0.4716 0.0
N1609 N 0.23017 0.68089 0.46948 0.0
C1610 C 0.17293 0.66953 0.4579 0.0
H1611 H 0.16588 0.68603 0.46128 0.0
H1612 H 0.16586 0.65786 0.47011 0.0
H1613 H 0.16804 0.66404 0.44107 0.0
C1614 C 0.18148 0.70245 0.55301 0.0
N1615 N 0.18126 0.71203 0.53285 0.0
N1616 N 0.18828 0.69781 0.51795 0.0
C1617 C 0.19234 0.67837 0.52818 0.0
C1618 C 0.18828 0.68065 0.55081 0.0
C1619 C 0.17992 0.71511 0.57429 0.0
H1620 H 0.16258 0.71484 0.58024 0.0
H1621 H 0.19055 0.70773 0.58727 0.0
H1622 H 0.18508 0.73246 0.57178 0.0
O1623 O 0.20919 0.7533 0.52245 0.0
O1624 O 0.22297 0.73159 0.49588 0.0
H1625 H 0.21851 0.66139 0.51151 0.0
H1626 H 0.20058 0.64357 0.52751 0.0
C1627 C 0.2012 0.65834 0.51672 0.0
H1628 H 0.19119 0.6549 0.50183 0.0
H1629 H 0.24269 0.6902 0.47682 0.0
O1630 O 0.16286 0.75892 0.54808 0.0
C1631 C 0.22499 0.7475 0.50981 0.0
H1632 H 0.13611 0.29544 0.46803 0.0
H1633 H 0.09273 0.28717 0.52408 0.0
H1634 H 0.06507 0.26982 0.50046 0.0
H1635 H 0.05294 0.25767 0.464 0.0
H1636 H 0.09481 0.26777 0.40715 0.0
H1637 H 0.12341 0.28383 0.43093 0.0
C1638 C 0.12065 0.28968 0.475 0.0
C1639 C 0.11641 0.29243 0.49769 0.0
C1640 C 0.10458 0.28018 0.46121 0.0
C1641 C 0.09625 0.28525 0.5066 0.0
C1642 C 0.08046 0.27532 0.49314 0.0
C1643 C 0.06837 0.26329 0.45682 0.0
C1644 C 0.07188 0.2615 0.43395 0.0
C1645 C 0.08442 0.27281 0.47045 0.0
C1646 C 0.09178 0.26909 0.42477 0.0
C1647 C 0.10812 0.2782 0.43834 0.0
H1648 H 0.76351 0.13517 0.4721 0.0
H1649 H 0.7682 0.09129 0.52804 0.0
H1650 H 0.78365 0.06247 0.50445 0.0
H1651 H 0.79518 0.0495 0.46803 0.0
H1652 H 0.78875 0.09209 0.41129 0.0
H1653 H 0.77447 0.12166 0.43501 0.0
C1654 C 0.76811 0.11934 0.47905 0.0
C1655 C 0.76488 0.11531 0.50172 0.0
C1656 C 0.77648 0.10261 0.46527 0.0
C1657 C 0.77052 0.09468 0.51059 0.0
C1658 C 0.77935 0.07822 0.49714 0.0
C1659 C 0.7907 0.06527 0.46085 0.0
C1660 C 0.79303 0.06866 0.43801 0.0
C1661 C 0.78227 0.08196 0.47447 0.0
C1662 C 0.78696 0.08908 0.42886 0.0
C1663 C 0.7789 0.10599 0.44242 0.0
H1664 H 0.96445 0.77292 0.51139 0.0
H1665 H 0.91107 0.7638 0.46498 0.0
H1666 H 0.93454 0.77733 0.43491 0.0
H1667 H 0.97063 0.7914 0.42183 0.0
H1668 H 0.02306 0.80166 0.46915 0.0
H1669 H 0.9996 0.7879 0.49881 0.0
C1670 C 0.95793 0.77391 0.4947 0.0
C1671 C 0.93614 0.76732 0.49038 0.0
C1672 C 0.97139 0.78181 0.47764 0.0
C1673 C 0.92781 0.76889 0.46872 0.0
C1674 C 0.94124 0.77652 0.45151 0.0
C1675 C 0.97688 0.79048 0.43863 0.0
C1676 C 0.99854 0.79739 0.44332 0.0
C1677 C 0.96312 0.78291 0.45576 0.0
C1678 C 1.0064 0.79646 0.46517 0.0
C1679 C 0.99303 0.78859 0.48214 0.0
H1680 H 0.2676 0.97028 0.42223 0.0
H1681 H 0.25833 0.02243 0.47005 0.0
H1682 H 0.27262 0.99881 0.49932 0.0
H1683 H 0.28777 0.96357 0.51139 0.0
H1684 H 0.29583 0.91049 0.46444 0.0
H1685 H 0.28182 0.93416 0.43477 0.0
C1686 C 0.26884 0.97643 0.43905 0.0
C1687 C 0.26206 0.99805 0.444 0.0
C1688 C 0.27671 0.96259 0.45594 0.0
C1689 C 0.26341 1.0058 0.46588 0.0
C1690 C 0.27159 0.99233 0.48262 0.0
C1691 C 0.28646 0.95716 0.49467 0.0
C1692 C 0.29287 0.93539 0.49007 0.0
C1693 C 0.27826 0.97073 0.47784 0.0
C1694 C 0.29088 0.92721 0.46839 0.0
C1695 C 0.28297 0.94075 0.45142 0.0
H1696 H 0.08302 0.81682 0.60652 0.0
H1697 H 0.06309 0.75614 0.6377 0.0
H1698 H 0.08948 0.73549 0.61492 0.0
H1699 H 0.11719 0.73474 0.58507 0.0
H1700 H 0.13949 0.79584 0.55638 0.0
H1701 H 0.11335 0.81647 0.5794 0.0
C1702 C 0.08457 0.79908 0.60829 0.0
C1703 C 0.07108 0.78785 0.62339 0.0
C1704 C 0.10016 0.7875 0.59566 0.0
C1705 C 0.07337 0.76499 0.62603 0.0
C1706 C 0.08838 0.75322 0.61302 0.0
C1707 C 0.11634 0.75258 0.58402 0.0
C1708 C 0.12993 0.76383 0.56901 0.0
C1709 C 0.10169 0.7643 0.59763 0.0
C1710 C 0.12911 0.78693 0.56791 0.0
C1711 C 0.11413 0.79869 0.58096 0.0
H1712 H 0.30351 0.04491 0.61509 0.0
H1713 H 0.26052 0.089 0.65118 0.0
H1714 H 0.26929 0.1188 0.62553 0.0
H1715 H 0.28786 0.1318 0.59187 0.0
H1716 H 0.3299 0.08713 0.55532 0.0
H1717 H 0.32269 0.05809 0.58212 0.0
C1718 C 0.29626 0.0611 0.61751 0.0
C1719 C 0.2814 0.06473 0.63496 0.0
C1720 C 0.301 0.078 0.60249 0.0
C1721 C 0.272 0.08577 0.6378 0.0
C1722 C 0.27694 0.1028 0.62312 0.0
C1723 C 0.29543 0.11571 0.58978 0.0
C1724 C 0.30927 0.11161 0.57158 0.0
C1725 C 0.29116 0.099 0.60521 0.0
C1726 C 0.31907 0.09071 0.56914 0.0
C1727 C 0.31502 0.07408 0.58448 0.0
H1728 H 1.00876 0.25986 0.59224 0.0
H1729 H 0.96801 0.26755 0.65032 0.0
H1730 H 0.93806 0.28247 0.62756 0.0
H1731 H 0.92372 0.29383 0.59094 0.0
H1732 H 0.9658 0.28775 0.5336 0.0
H1733 H 0.9949 0.27153 0.55623 0.0
C1734 C 0.9933 0.26475 0.59992 0.0
C1735 C 0.99057 0.26261 0.62287 0.0
C1736 C 0.97638 0.27354 0.58684 0.0
C1737 C 0.97054 0.26919 0.63265 0.0
C1738 C 0.95339 0.27763 0.61965 0.0
C1739 C 0.93921 0.28875 0.58347 0.0
C1740 C 0.94266 0.29185 0.5607 0.0
C1741 C 0.95614 0.27991 0.5967 0.0
C1742 C 0.96286 0.28556 0.55116 0.0
C1743 C 0.97949 0.27629 0.56405 0.0
H1744 H 0.73917 0.94529 0.5854 0.0
H1745 H 0.80005 0.91668 0.56197 0.0
H1746 H 0.82114 0.93972 0.58774 0.0
H1747 H 0.82212 0.96924 0.61578 0.0
H1748 H 0.76103 0.99536 0.64154 0.0
H1749 H 0.73998 0.97189 0.61619 0.0
C1750 C 0.75705 0.94412 0.58608 0.0
C1751 C 0.76819 0.92969 0.57177 0.0
C1752 C 0.76891 0.9569 0.60132 0.0
C1753 C 0.79126 0.92782 0.57291 0.0
C1754 C 0.80327 0.94099 0.58756 0.0
C1755 C 0.8042 0.96961 0.61588 0.0
C1756 C 0.79304 0.98403 0.6302 0.0
C1757 C 0.79227 0.95575 0.60166 0.0
C1758 C 0.76986 0.98427 0.63059 0.0
C1759 C 0.75786 0.97097 0.61606 0.0
H1760 H 0.50835 0.09673 0.29396 0.0
H1761 H 0.46114 0.1497 0.29987 0.0
H1762 H 0.43266 0.12658 0.28268 0.0
H1763 H 0.4213 0.09096 0.26613 0.0
H1764 H 0.46979 0.03928 0.25838 0.0
H1765 H 0.49768 0.06223 0.27613 0.0
C1766 C 0.4918 0.10319 0.29153 0.0
C1767 C 0.48673 0.12475 0.29827 0.0
C1768 C 0.47578 0.09003 0.2813 0.0
C1769 C 0.46537 0.1331 0.29474 0.0
C1770 C 0.4491 0.11988 0.28499 0.0
C1771 C 0.43798 0.0848 0.2684 0.0
C1772 C 0.4435 0.06348 0.26109 0.0
C1773 C 0.45412 0.09828 0.27824 0.0
C1774 C 0.46519 0.0557 0.26381 0.0
C1775 C 0.48114 0.06876 0.27401 0.0
H1776 H 0.96508 0.41944 0.26575 0.0
H1777 H 0.01909 0.46541 0.2594 0.0
H1778 H 0.99689 0.49436 0.27648 0.0
H1779 H 0.96222 0.50671 0.29293 0.0
H1780 H 0.90698 0.46206 0.29714 0.0
H1781 H 0.92949 0.43242 0.28113 0.0
C1782 C 0.97191 0.4358 0.26822 0.0
C1783 C 0.99362 0.44036 0.26148 0.0
C1784 C 0.95886 0.45254 0.27758 0.0
C1785 C 1.00233 0.46162 0.26441 0.0
C1786 C 0.98969 0.47815 0.27421 0.0
C1787 C 0.95515 0.49046 0.29041 0.0
C1788 C 0.93312 0.48644 0.29626 0.0
C1789 C 0.96796 0.4738 0.28081 0.0
C1790 C 0.92397 0.46546 0.29265 0.0
C1791 C 0.93682 0.44855 0.28357 0.0
H1792 H 0.63655 0.97549 0.27157 0.0
H1793 H 0.58814 0.02555 0.25639 0.0
H1794 H 0.55883 1.00225 0.27105 0.0
H1795 H 0.54688 0.96783 0.28813 0.0
H1796 H 0.59468 0.91695 0.30234 0.0
H1797 H 0.62431 0.94037 0.28805 0.0
C1798 C 0.61959 0.98127 0.27157 0.0
C1799 C 0.61451 1.0022 0.263 0.0
C1800 C 0.60272 0.96766 0.27978 0.0
C1801 C 0.59245 1.00945 0.26284 0.0
C1802 C 0.57568 0.99618 0.27125 0.0
C1803 C 0.56378 0.96187 0.28814 0.0
C1804 C 0.56861 0.94076 0.29632 0.0
C1805 C 0.58062 0.97528 0.27975 0.0
C1806 C 0.59056 0.93316 0.29605 0.0
C1807 C 0.6075 0.94655 0.28794 0.0
H1808 H 0.13145 0.58661 0.29965 0.0
H1809 H 0.08364 0.5339 0.30302 0.0
H1810 H 0.05534 0.55807 0.28772 0.0
H1811 H 0.04425 0.5938 0.27297 0.0
H1812 H 0.0913 0.64715 0.2703 0.0
H1813 H 0.11985 0.62311 0.28588 0.0
C1814 C 0.11484 0.58045 0.29698 0.0
C1815 C 0.10965 0.5585 0.30233 0.0
C1816 C 0.09854 0.59452 0.28838 0.0
C1817 C 0.08803 0.55076 0.29906 0.0
C1818 C 0.07184 0.56454 0.29028 0.0
C1819 C 0.06075 0.60019 0.2758 0.0
C1820 C 0.06573 0.62214 0.27042 0.0
C1821 C 0.07693 0.58639 0.28483 0.0
C1822 C 0.08709 0.63028 0.27439 0.0
C1823 C 0.10341 0.61654 0.28321 0.0
H1824 H 0.42394 0.97119 0.7947 0.0
H1825 H 0.4694 0.02597 0.79501 0.0
H1826 H 0.49865 1.00231 0.78053 0.0
H1827 H 0.51139 0.96614 0.76813 0.0
H1828 H 0.46683 0.91066 0.76935 0.0
H1829 H 0.43713 0.93445 0.78305 0.0
C1830 C 0.44022 0.9779 0.79141 0.0
C1831 C 0.44455 1.00025 0.79573 0.0
C1832 C 0.45711 0.96408 0.78355 0.0
C1833 C 0.46575 1.00877 0.7918 0.0
C1834 C 0.48246 0.99528 0.78353 0.0
C1835 C 0.49517 0.95926 0.77139 0.0
C1836 C 0.49125 0.93675 0.76772 0.0
C1837 C 0.47834 0.97292 0.77943 0.0
C1838 C 0.47025 0.92796 0.77219 0.0
C1839 C 0.45325 0.94156 0.77991 0.0
H1840 H 0.08783 0.44455 0.81875 0.0
H1841 H 0.06432 0.41838 0.7567 0.0
H1842 H 0.08917 0.44302 0.73647 0.0
H1843 H 0.11629 0.47326 0.73658 0.0
H1844 H 0.14184 0.49735 0.79867 0.0
H1845 H 0.11756 0.47217 0.81887 0.0
C1846 C 0.08828 0.44423 0.8008 0.0
C1847 C 0.0742 0.42998 0.78914 0.0
C1848 C 0.10288 0.45805 0.78937 0.0
C1849 C 0.07509 0.42929 0.76594 0.0
C1850 C 0.08919 0.4434 0.7544 0.0
C1851 C 0.11654 0.47287 0.75453 0.0
C1852 C 0.13052 0.4872 0.76621 0.0
C1853 C 0.10294 0.45805 0.76595 0.0
C1854 C 0.13113 0.48639 0.78941 0.0
C1855 C 0.11723 0.47209 0.80094 0.0
H1856 H 0.58965 0.13483 0.76823 0.0
H1857 H 0.53331 0.09155 0.77312 0.0
H1858 H 0.55642 0.06281 0.78922 0.0
H1859 H 0.59255 0.04966 0.80121 0.0
H1860 H 0.64966 0.09168 0.79475 0.0
H1861 H 0.6264 0.12121 0.77987 0.0
C1862 C 0.58249 0.11916 0.77301 0.0
C1863 C 0.55985 0.11529 0.76962 0.0
C1864 C 0.596 0.10246 0.78182 0.0
C1865 C 0.55074 0.09484 0.77554 0.0
C1866 C 0.56391 0.07841 0.78475 0.0
C1867 C 0.59992 0.0653 0.79661 0.0
C1868 C 0.62274 0.06852 0.79909 0.0
C1869 C 0.58656 0.08199 0.78783 0.0
C1870 C 0.6321 0.08879 0.79287 0.0
C1871 C 0.61881 0.10569 0.78444 0.0
H1872 H 0.97251 0.61247 0.82265 0.0
H1873 H 0.99662 0.63995 0.76147 0.0
H1874 H 0.97351 0.61438 0.74036 0.0
H1875 H 0.94772 0.58308 0.73945 0.0
H1876 H 0.92122 0.55771 0.80052 0.0
H1877 H 0.944 0.5836 0.82169 0.0
C1878 C 0.97253 0.61289 0.8047 0.0
C1879 C 0.98627 0.62779 0.79354 0.0
C1880 C 0.95893 0.59849 0.79274 0.0
C1881 C 0.98605 0.62856 0.77033 0.0
C1882 C 0.97297 0.61391 0.75828 0.0
C1883 C 0.94699 0.58332 0.75739 0.0
C1884 C 0.93321 0.56847 0.76855 0.0
C1885 C 0.95959 0.59861 0.76933 0.0
C1886 C 0.93187 0.56906 0.79172 0.0
C1887 C 0.94487 0.58379 0.80378 0.0
H1888 H 0.28771 0.43067 0.06708 0.0
H1889 H 0.22136 0.44136 0.09065 0.0
H1890 H 0.23482 0.46846 0.11754 0.0
H1891 H 0.26536 0.49033 0.13306 0.0
H1892 H 0.33104 0.48251 0.10649 0.0
H1893 H 0.31807 0.45314 0.08198 0.0
C1894 C 0.27633 0.43879 0.07834 0.0
C1895 C 0.2537 0.43403 0.0772 0.0
C1896 C 0.28406 0.45498 0.093 0.0
C1897 C 0.2389 0.44486 0.09141 0.0
C1898 C 0.24657 0.46033 0.10671 0.0
C1899 C 0.27678 0.48208 0.12195 0.0
C1900 C 0.29905 0.48845 0.12151 0.0
C1901 C 0.26908 0.46573 0.10745 0.0
C1902 C 0.31374 0.47792 0.10693 0.0
C1903 C 0.30638 0.46109 0.093 0.0
H1904 H 0.29793 0.58868 0.92563 0.0
H1905 H 0.29989 0.53451 0.97183 0.0
H1906 H 0.28366 0.55773 1.00049 0.0
H1907 H 0.26906 0.59327 1.01258 0.0
H1908 H 0.26858 0.6484 0.96757 0.0
H1909 H 0.28417 0.62505 0.93832 0.0
C1910 C 0.29468 0.58202 0.94196 0.0
C1911 C 0.29999 0.55993 0.94662 0.0
C1912 C 0.28572 0.59563 0.95858 0.0
C1913 C 0.29602 0.5515 0.96789 0.0
C1914 C 0.2867 0.56475 0.98428 0.0
C1915 C 0.27234 0.60019 0.99636 0.0
C1916 C 0.26762 0.62246 0.99219 0.0
C1917 C 0.28153 0.58681 0.97983 0.0
C1918 C 0.27218 0.63127 0.97118 0.0
C1919 C 0.28101 0.61792 0.95445 0.0
H1920 H 0.47184 0.29472 0.92415 0.0
H1921 H 0.52758 0.28726 0.96802 0.0
H1922 H 0.50349 0.2727 0.99684 0.0
H1923 H 0.46672 0.26281 1.00983 0.0
H1924 H 0.41029 0.27179 0.96717 0.0
H1925 H 0.43446 0.28525 0.93763 0.0
C1926 C 0.47864 0.28968 0.93996 0.0
C1927 C 0.50138 0.29188 0.944 0.0
C1928 C 0.46459 0.28184 0.95669 0.0
C1929 C 0.51007 0.2857 0.96462 0.0
C1930 C 0.49633 0.2774 0.98109 0.0
C1931 C 0.45969 0.2677 0.99406 0.0
C1932 C 0.43681 0.26632 0.99064 0.0
C1933 C 0.47358 0.27556 0.97736 0.0
C1934 C 0.42789 0.27286 0.97021 0.0
C1935 C 0.44169 0.28044 0.9533 0.0
H1936 H 0.77107 0.43234 0.99081 0.0
H1937 H 0.83649 0.45529 0.97455 0.0
H1938 H 0.8211 0.48025 0.94672 0.0
H1939 H 0.78885 0.49646 0.92806 0.0
H1940 H 0.7233 0.47622 0.9471 0.0
H1941 H 0.73882 0.44913 0.97277 0.0
C1942 C 0.7819 0.44273 0.98103 0.0
C1943 C 0.8048 0.44203 0.98454 0.0
C1944 C 0.7729 0.45748 0.96565 0.0
C1945 C 0.81876 0.45571 0.9721 0.0
C1946 C 0.80999 0.4699 0.9562 0.0
C1947 C 0.77805 0.48594 0.93772 0.0
C1948 C 0.75506 0.4881 0.93572 0.0
C1949 C 0.78707 0.47105 0.95297 0.0
C1950 C 0.74109 0.47476 0.9485 0.0
C1951 C 0.74994 0.45931 0.96313 0.0
H1952 H 0.58118 0.73984 0.94961 0.0
H1953 H 0.55851 0.80222 0.92411 0.0
H1954 H 0.58268 0.82185 0.95005 0.0
H1955 H 0.60908 0.82099 0.98101 0.0
H1956 H 0.63467 0.75867 1.00372 0.0
H1957 H 0.61056 0.73904 0.97773 0.0
C1958 C 0.5817 0.75773 0.94972 0.0
C1959 C 0.56807 0.76971 0.93533 0.0
C1960 C 0.59603 0.76877 0.96414 0.0
C1961 C 0.56897 0.79281 0.93517 0.0
C1962 C 0.58267 0.80397 0.95 0.0
C1963 C 0.60937 0.80312 0.98012 0.0
C1964 C 0.62324 0.79114 0.99426 0.0
C1965 C 0.59607 0.7921 0.96472 0.0
C1966 C 0.62396 0.76807 0.99289 0.0
C1967 C 0.61019 0.75691 0.97813 0.0
H1968 H 0.82021 0.6183 0.08641 0.0
H1969 H 0.75971 0.64139 0.05677 0.0
H1970 H 0.73825 0.61667 0.08045 0.0
H1971 H 0.73701 0.5872 0.10837 0.0
H1972 H 0.79718 0.56651 0.14037 0.0
H1973 H 0.81861 0.59169 0.11712 0.0
C1974 C 0.80232 0.61793 0.08531 0.0
C1975 C 0.79145 0.6313 0.06985 0.0
C1976 C 0.79013 0.60414 0.09932 0.0
C1977 C 0.7683 0.63113 0.06865 0.0
C1978 C 0.75608 0.61698 0.08209 0.0
C1979 C 0.7548 0.58837 0.11026 0.0
C1980 C 0.76565 0.575 0.12572 0.0
C1981 C 0.76685 0.60323 0.09728 0.0
C1982 C 0.7886 0.57676 0.12847 0.0
C1983 C 0.80082 0.59105 0.11516 0.0
H1984 H 0.47452 0.73725 0.11191 0.0
H1985 H 0.50111 0.7985 0.13646 0.0
H1986 H 0.47724 0.81923 0.11119 0.0
H1987 H 0.44956 0.81968 0.08136 0.0
H1988 H 0.42028 0.75864 0.05954 0.0
H1989 H 0.44438 0.73788 0.08458 0.0
C1990 C 0.47498 0.75514 0.11168 0.0
C1991 C 0.48958 0.76645 0.12567 0.0
C1992 C 0.46079 0.76686 0.09765 0.0
C1993 C 0.4899 0.78958 0.12571 0.0
C1994 C 0.47635 0.80138 0.11127 0.0
C1995 C 0.4485 0.80184 0.08219 0.0
C1996 C 0.43352 0.79055 0.06859 0.0
C1997 C 0.46187 0.79017 0.09705 0.0
C1998 C 0.43183 0.76753 0.06995 0.0
C1999 C 0.4456 0.75571 0.08417 0.0
H2000 H 0.61045 0.24206 0.08346 0.0
H2001 H 0.63851 0.30377 0.06211 0.0
H2002 H 0.61391 0.32393 0.08725 0.0
H2003 H 0.58357 0.32381 0.11443 0.0
H2004 H 0.55801 0.26185 0.13815 0.0
H2005 H 0.58261 0.24179 0.11304 0.0
C2006 C 0.61114 0.25992 0.08441 0.0
C2007 C 0.62591 0.27155 0.07091 0.0
C2008 C 0.59746 0.27124 0.09926 0.0
C2009 C 0.62713 0.2946 0.07243 0.0
C2010 C 0.61308 0.30608 0.08671 0.0
C2011 C 0.5835 0.30592 0.11407 0.0
C2012 C 0.56896 0.29422 0.12779 0.0
C2013 C 0.59805 0.29456 0.10005 0.0
C2014 C 0.56915 0.27109 0.12763 0.0
C2015 C 0.58312 0.25966 0.11327 0.0
H2016 H 0.97314 0.76974 0.64903 0.0
H2017 H 0.95145 0.83435 0.62883 0.0
H2018 H 0.92508 0.81767 0.60292 0.0
H2019 H 0.90883 0.78455 0.58527 0.0
H2020 H 0.92757 0.72002 0.60842 0.0
H2021 H 0.9543 0.73668 0.63397 0.0
C2022 C 0.96256 0.78013 0.63898 0.0
C2023 C 0.96441 0.80327 0.64065 0.0
C2024 C 0.94691 0.77039 0.62467 0.0
C2025 C 0.95036 0.81654 0.62782 0.0
C2026 C 0.93532 0.80699 0.61298 0.0
C2027 C 0.91871 0.77417 0.59601 0.0
C2028 C 0.91637 0.75105 0.59481 0.0
C2029 C 0.93355 0.78393 0.61114 0.0
C2030 C 0.92904 0.73781 0.60904 0.0
C2031 C 0.94438 0.74735 0.62359 0.0
H2032 H 0.27405 0.9054 0.58631 0.0
H2033 H 0.33852 0.92717 0.60719 0.0
H2034 H 0.32151 0.95297 0.63348 0.0
H2035 H 0.28813 0.97002 0.65001 0.0
H2036 H 0.22381 0.94523 0.63232 0.0
H2037 H 0.24076 0.91993 0.60547 0.0
C2038 C 0.28434 0.91575 0.5967 0.0
C2039 C 0.30755 0.91452 0.59464 0.0
C2040 C 0.27441 0.93002 0.61236 0.0
C2041 C 0.32067 0.92779 0.60845 0.0
C2042 C 0.31093 0.94259 0.62344 0.0
C2043 C 0.27785 0.95899 0.64032 0.0
C2044 C 0.25469 0.95966 0.64301 0.0
C2045 C 0.28781 0.94395 0.62546 0.0
C2046 C 0.24162 0.94504 0.63059 0.0
C2047 C 0.25134 0.93062 0.61518 0.0
H2048 H 0.08876 0.28462 0.65114 0.0
H2049 H 0.10958 0.22056 0.62824 0.0
H2050 H 0.13533 0.23789 0.60217 0.0
H2051 H 0.15121 0.27145 0.58507 0.0
H2052 H 0.1335 0.33536 0.61088 0.0
H2053 H 0.10745 0.31806 0.63668 0.0
C2054 C 0.09902 0.27449 0.64048 0.0
C2055 C 0.09707 0.25131 0.64143 0.0
C2056 C 0.11436 0.2846 0.62607 0.0
C2057 C 0.11073 0.23839 0.62779 0.0
C2058 C 0.12542 0.24832 0.61286 0.0
C2059 C 0.14174 0.28157 0.59647 0.0
C2060 C 0.14417 0.30471 0.59593 0.0
C2061 C 0.12728 0.27142 0.61172 0.0
C2062 C 0.132 0.31755 0.61099 0.0
C2063 C 0.11702 0.30764 0.62567 0.0
H2064 H 0.76944 0.12275 0.57686 0.0
H2065 H 0.74218 0.16373 0.62853 0.0
H2066 H 0.76285 0.14276 0.65634 0.0
H2067 H 0.78888 0.11243 0.66605 0.0
H2068 H 0.81357 0.07017 0.61425 0.0
H2069 H 0.79408 0.09213 0.58645 0.0
C2070 C 0.76794 0.12713 0.59421 0.0
C2071 C 0.75425 0.14492 0.60051 0.0
C2072 C 0.7797 0.11487 0.61011 0.0
C2073 C 0.75246 0.15011 0.62314 0.0
C2074 C 0.76441 0.13819 0.63907 0.0
C2075 C 0.79018 0.10831 0.64863 0.0
C2076 C 0.80299 0.08999 0.6421 0.0
C2077 C 0.77819 0.12058 0.63275 0.0
C2078 C 0.80406 0.08437 0.61958 0.0
C2079 C 0.79282 0.09685 0.60371 0.0
H2080 H 0.93562 0.28774 0.48616 0.0
H2081 H 0.8941 0.31455 0.43476 0.0
H2082 H 0.91478 0.29366 0.40686 0.0
H2083 H 0.94503 0.26763 0.39696 0.0
H2084 H 0.98798 0.24344 0.44834 0.0
H2085 H 0.96625 0.26307 0.47632 0.0
C2086 C 0.93107 0.28908 0.46885 0.0
C2087 C 0.91321 0.30271 0.46265 0.0
C2088 C 0.94319 0.27722 0.45287 0.0
C2089 C 0.90778 0.30432 0.44007 0.0
C2090 C 0.91955 0.29224 0.42409 0.0
C2091 C 0.94935 0.26646 0.41433 0.0
C2092 C 0.96778 0.25375 0.42069 0.0
C2093 C 0.93724 0.27854 0.43028 0.0
C2094 C 0.97367 0.25287 0.44315 0.0
C2095 C 0.96133 0.26419 0.45911 0.0
H2096 H 0.76998 0.97183 0.41176 0.0
H2097 H 0.83487 0.95058 0.43194 0.0
H2098 H 0.8184 0.92427 0.45792 0.0
H2099 H 0.78545 0.9076 0.47526 0.0
H2100 H 0.72059 0.92571 0.45213 0.0
H2101 H 0.73699 0.95282 0.42687 0.0
C2102 C 0.78046 0.96141 0.42188 0.0
C2103 C 0.80362 0.96331 0.42016 0.0
C2104 C 0.77084 0.94574 0.43619 0.0
C2105 C 0.81703 0.94945 0.43303 0.0
C2106 C 0.80761 0.93444 0.44789 0.0
C2107 C 0.77493 0.91746 0.46462 0.0
C2108 C 0.75181 0.91482 0.4657 0.0
C2109 C 0.78453 0.93248 0.44967 0.0
C2110 C 0.7384 0.92744 0.45159 0.0
C2111 C 0.74779 0.94298 0.43721 0.0
H2112 H 0.15373 0.78452 0.47197 0.0
H2113 H 0.13462 0.72019 0.4484 0.0
H2114 H 0.10755 0.73711 0.42337 0.0
H2115 H 0.08875 0.77038 0.40873 0.0
H2116 H 0.11089 0.83473 0.42937 0.0
H2117 H 0.13734 0.81776 0.45495 0.0
C2118 C 0.14366 0.77423 0.46128 0.0
C2119 C 0.146 0.75111 0.46218 0.0
C2120 C 0.12867 0.78413 0.44645 0.0
C2121 C 0.13313 0.73799 0.448 0.0
C2122 C 0.11761 0.74768 0.43376 0.0
C2123 C 0.09942 0.78064 0.41882 0.0
C2124 C 0.09772 0.8038 0.41736 0.0
C2125 C 0.11513 0.77073 0.43293 0.0
C2126 C 0.11188 0.81691 0.43023 0.0
C2127 C 0.12697 0.8072 0.44488 0.0
H2128 H 0.28656 0.16383 0.45216 0.0
H2129 H 0.32129 0.11193 0.48615 0.0
H2130 H 0.30318 0.08423 0.46295 0.0
H2131 H 0.27648 0.07455 0.43408 0.0
H2132 H 0.23984 0.12595 0.40105 0.0
H2133 H 0.25933 0.15389 0.42286 0.0
C2134 C 0.29039 0.14647 0.45412 0.0
C2135 C 0.30556 0.1399 0.47053 0.0
C2136 C 0.27927 0.1305 0.44114 0.0
C2137 C 0.30993 0.11734 0.4734 0.0
C2138 C 0.29946 0.10151 0.46025 0.0
C2139 C 0.27269 0.09185 0.43158 0.0
C2140 C 0.25662 0.09801 0.41584 0.0
C2141 C 0.28389 0.10785 0.44426 0.0
C2142 C 0.25201 0.1206 0.41304 0.0
C2143 C 0.26325 0.13665 0.42547 0.0
H2144 H 0.58572 0.90815 0.78878 0.0
H2145 H 0.60963 0.92678 0.72429 0.0
H2146 H 0.63527 0.95313 0.74135 0.0
H2147 H 0.65039 0.97154 0.77479 0.0
H2148 H 0.62945 0.94976 0.83931 0.0
H2149 H 0.60325 0.92402 0.82221 0.0
C2150 C 0.59663 0.91793 0.77848 0.0
C2151 C 0.59563 0.91565 0.75526 0.0
C2152 C 0.61183 0.93253 0.78847 0.0
C2153 C 0.61009 0.92819 0.74216 0.0
C2154 C 0.6247 0.94332 0.75193 0.0
C2155 C 0.64009 0.9611 0.78507 0.0
C2156 C 0.64166 0.96273 0.80831 0.0
C2157 C 0.62562 0.94575 0.77507 0.0
C2158 C 0.62852 0.94884 0.82142 0.0
C2159 C 0.61351 0.93416 0.81163 0.0
H2160 H 0.11472 0.66213 0.79093 0.0
H2161 H 0.07164 0.61098 0.81493 0.0
H2162 H 0.09385 0.58299 0.79588 0.0
H2163 H 0.12509 0.57307 0.77169 0.0
H2164 H 0.16652 0.62449 0.74509 0.0
H2165 H 0.14532 0.65224 0.76542 0.0
C2166 C 0.11046 0.6448 0.79219 0.0
C2167 C 0.09186 0.63852 0.80468 0.0
C2168 C 0.12283 0.62886 0.78041 0.0
C2169 C 0.08607 0.61612 0.80567 0.0
C2170 C 0.09869 0.60015 0.79467 0.0
C2171 C 0.12947 0.59035 0.77026 0.0
C2172 C 0.14749 0.59657 0.75683 0.0
C2173 C 0.11701 0.60632 0.78183 0.0
C2174 C 0.15272 0.61913 0.75514 0.0
C2175 C 0.14066 0.63505 0.76691 0.0
H2176 H 0.47109 0.15221 0.78903 0.0
H2177 H 0.44918 0.13251 0.72409 0.0
H2178 H 0.42283 0.10664 0.7407 0.0
H2179 H 0.40704 0.08853 0.77382 0.0
H2180 H 0.42613 0.11098 0.83876 0.0
H2181 H 0.45241 0.13694 0.82216 0.0
C2182 C 0.46042 0.14234 0.77855 0.0
C2183 C 0.46222 0.14412 0.75533 0.0
C2184 C 0.44483 0.12799 0.78826 0.0
C2185 C 0.44809 0.13146 0.74196 0.0
C2186 C 0.43309 0.11662 0.75147 0.0
C2187 C 0.41685 0.09925 0.78432 0.0
C2188 C 0.41478 0.0977 0.80752 0.0
C2189 C 0.43146 0.11458 0.7746 0.0
C2190 C 0.42738 0.11188 0.82089 0.0
C2191 C 0.44247 0.12665 0.81138 0.0
H2192 H 0.97359 0.40715 0.76809 0.0
H2193 H 0.95444 0.42757 0.83369 0.0
H2194 H 0.928 0.45389 0.81799 0.0
H2195 H 0.91067 0.47156 0.78551 0.0
H2196 H 0.92665 0.4483 0.72 0.0
H2197 H 0.9538 0.42257 0.73561 0.0
C2198 C 0.96359 0.41738 0.7789 0.0
C2199 C 0.96615 0.41563 0.80204 0.0
C2200 C 0.94782 0.43192 0.76973 0.0
C2201 C 0.95281 0.42867 0.81587 0.0
C2202 C 0.93772 0.44373 0.80688 0.0
C2203 C 0.92006 0.46078 0.77467 0.0
C2204 C 0.9168 0.46198 0.75159 0.0
C2205 C 0.93513 0.44557 0.78384 0.0
C2206 C 0.92883 0.44768 0.73779 0.0
C2207 C 0.94441 0.43304 0.74673 0.0
H2208 H 0.61225 0.16574 0.29599 0.0
H2209 H 0.57117 0.11333 0.32081 0.0
H2210 H 0.59321 0.08612 0.30056 0.0
H2211 H 0.62344 0.07721 0.27501 0.0
H2212 H 0.66328 0.1295 0.24776 0.0
H2213 H 0.64236 0.15669 0.26932 0.0
C2214 C 0.60844 0.14831 0.2972 0.0
C2215 C 0.59041 0.14146 0.31028 0.0
C2216 C 0.62075 0.13277 0.28476 0.0
C2217 C 0.58518 0.11892 0.31116 0.0
C2218 C 0.59769 0.10339 0.29945 0.0
C2219 C 0.6276 0.09455 0.27371 0.0
C2220 C 0.64504 0.10119 0.25972 0.0
C2221 C 0.61538 0.11011 0.28603 0.0
C2222 C 0.64994 0.12383 0.25824 0.0
C2223 C 0.63803 0.13941 0.2707 0.0
H2224 H 0.89572 0.61414 0.29143 0.0
H2225 H 0.94657 0.57055 0.3154 0.0
H2226 H 0.97475 0.59216 0.29613 0.0
H2227 H 0.98498 0.62291 0.27174 0.0
H2228 H 0.93408 0.66502 0.24508 0.0
H2229 H 0.90601 0.6445 0.26571 0.0
C2230 C 0.91302 0.60964 0.29264 0.0
C2231 C 0.91914 0.59103 0.30521 0.0
C2232 C 0.92912 0.62171 0.28074 0.0
C2233 C 0.94152 0.58497 0.3061 0.0
C2234 C 0.95762 0.59726 0.29498 0.0
C2235 C 0.96775 0.62763 0.27037 0.0
C2236 C 0.96177 0.64561 0.25682 0.0
C2237 C 0.95162 0.61555 0.28209 0.0
C2238 C 0.93926 0.65124 0.25522 0.0
C2239 C 0.92316 0.63956 0.26716 0.0
H2240 H 0.48671 0.9348 0.29057 0.0
H2241 H 0.43653 0.8895 0.31287 0.0
H2242 H 0.40872 0.90942 0.29115 0.0
H2243 H 0.39849 0.94043 0.26598 0.0
H2244 H 0.4489 0.98651 0.24613 0.0
H2245 H 0.47673 0.96542 0.26632 0.0
C2246 C 0.4697 0.92919 0.29076 0.0
C2247 C 0.46384 0.91056 0.30343 0.0
C2248 C 0.4538 0.94081 0.27837 0.0
C2249 C 0.4416 0.90379 0.30342 0.0
C2250 C 0.42567 0.91514 0.29088 0.0
C2251 C 0.41565 0.94555 0.26581 0.0
C2252 C 0.42172 0.9648 0.25423 0.0
C2253 C 0.43156 0.93368 0.27821 0.0
C2254 C 0.44388 0.97163 0.25468 0.0
C2255 C 0.45979 0.95964 0.26634 0.0
H2256 H 0.12154 0.48264 0.29234 0.0
H2257 H 0.16764 0.43247 0.31305 0.0
H2258 H 0.14737 0.4049 0.29128 0.0
H2259 H 0.11587 0.39493 0.26639 0.0
H2260 H 0.06914 0.44541 0.24816 0.0
H2261 H 0.09047 0.47293 0.2685 0.0
C2262 C 0.12725 0.46568 0.29217 0.0
C2263 C 0.14622 0.45976 0.30439 0.0
C2264 C 0.11545 0.44994 0.27976 0.0
C2265 C 0.1531 0.43758 0.30396 0.0
C2266 C 0.14155 0.4218 0.29138 0.0
C2267 C 0.11065 0.41204 0.26662 0.0
C2268 C 0.09114 0.41822 0.25543 0.0
C2269 C 0.12269 0.42778 0.27912 0.0
C2270 C 0.0842 0.44031 0.2564 0.0
C2271 C 0.09634 0.45604 0.26814 0.0
H2272 H 0.76731 0.61711 0.89575 0.0
H2273 H 0.74107 0.57611 0.9476 0.0
H2274 H 0.76038 0.59818 0.97549 0.0
H2275 H 0.78553 0.62852 0.98518 0.0
H2276 H 0.81425 0.66804 0.93331 0.0
H2277 H 0.79359 0.64711 0.90553 0.0
C2278 C 0.7656 0.6133 0.9132 0.0
C2279 C 0.7524 0.5953 0.91968 0.0
C2280 C 0.77751 0.62561 0.92914 0.0
C2281 C 0.75086 0.59008 0.94227 0.0
C2282 C 0.76202 0.60262 0.9582 0.0
C2283 C 0.78735 0.63258 0.9678 0.0
C2284 C 0.80149 0.64996 0.96147 0.0
C2285 C 0.77557 0.6203 0.95184 0.0
C2286 C 0.80363 0.65475 0.93878 0.0
C2287 C 0.79169 0.64284 0.92283 0.0
H2288 H 0.79016 0.43972 0.07112 0.0
H2289 H 0.81135 0.39397 0.12145 0.0
H2290 H 0.78972 0.41409 0.14917 0.0
H2291 H 0.76479 0.44523 0.15932 0.0
H2292 H 0.74611 0.49204 0.10911 0.0
H2293 H 0.7663 0.47085 0.0812 0.0
C2294 C 0.79013 0.43411 0.08816 0.0
C2295 C 0.80244 0.41525 0.09407 0.0
C2296 C 0.77779 0.44588 0.10406 0.0
C2297 C 0.80219 0.40844 0.11634 0.0
C2298 C 0.78968 0.41989 0.13222 0.0
C2299 C 0.76489 0.45051 0.14219 0.0
C2300 C 0.75362 0.46996 0.13618 0.0
C2301 C 0.77732 0.43862 0.12629 0.0
C2302 C 0.75442 0.477 0.11406 0.0
C2303 C 0.76608 0.46495 0.09812 0.0
H2304 H 0.64974 0.77137 0.09145 0.0
H2305 H 0.6286 0.83569 0.11334 0.0
H2306 H 0.60266 0.81865 0.13939 0.0
H2307 H 0.58507 0.78533 0.15511 0.0
H2308 H 0.60893 0.72104 0.13618 0.0
H2309 H 0.6348 0.73805 0.10999 0.0
C2310 C 0.6395 0.78163 0.10202 0.0
C2311 C 0.64091 0.80481 0.10029 0.0
C2312 C 0.62513 0.77167 0.11749 0.0
C2313 C 0.62782 0.81787 0.11433 0.0
C2314 C 0.61294 0.80811 0.12918 0.0
C2315 C 0.59606 0.77506 0.14534 0.0
C2316 C 0.59494 0.75191 0.14745 0.0
C2317 C 0.61132 0.78502 0.13079 0.0
C2318 C 0.60948 0.73885 0.13491 0.0
C2319 C 0.62421 0.7486 0.11986 0.0
H2320 H 0.27134 0.58578 0.15211 0.0
H2321 H 0.33632 0.60949 0.1354 0.0
H2322 H 0.32012 0.63555 0.10889 0.0
H2323 H 0.28729 0.65083 0.08958 0.0
H2324 H 0.22224 0.6299 0.10946 0.0
H2325 H 0.2385 0.60359 0.13559 0.0
C2326 C 0.28193 0.59677 0.14274 0.0
C2327 C 0.30503 0.59559 0.14557 0.0
C2328 C 0.27243 0.61214 0.12804 0.0
C2329 C 0.31852 0.61012 0.13356 0.0
C2330 C 0.30925 0.62494 0.11833 0.0
C2331 C 0.27672 0.64053 0.09971 0.0
C2332 C 0.25357 0.64211 0.09742 0.0
C2333 C 0.28622 0.62598 0.11528 0.0
C2334 C 0.24006 0.62896 0.1109 0.0
C2335 C 0.24937 0.61389 0.1258 0.0
H2336 H 0.40859 0.28771 0.08685 0.0
H2337 H 0.4289 0.2231 0.10844 0.0
H2338 H 0.45454 0.23976 0.13506 0.0
H2339 H 0.47177 0.27282 0.15172 0.0
H2340 H 0.44854 0.33738 0.13317 0.0
H2341 H 0.42341 0.32077 0.10597 0.0
C2342 C 0.41862 0.27731 0.09744 0.0
C2343 C 0.41704 0.25417 0.09552 0.0
C2344 C 0.43278 0.28705 0.11325 0.0
C2345 C 0.42983 0.2409 0.10959 0.0
C2346 C 0.44453 0.25045 0.12477 0.0
C2347 C 0.46114 0.28323 0.14175 0.0
C2348 C 0.46217 0.30634 0.14428 0.0
C2349 C 0.44624 0.2735 0.12667 0.0
C2350 C 0.44805 0.3196 0.13153 0.0
C2351 C 0.43374 0.31008 0.11593 0.0
H2352 H 0.29134 0.48419 0.93898 0.0
H2353 H 0.31664 0.4325 0.89686 0.0
H2354 H 0.29469 0.40525 0.91707 0.0
H2355 H 0.26823 0.39596 0.94711 0.0
H2356 H 0.2455 0.44748 0.99071 0.0
H2357 H 0.2661 0.47492 0.96938 0.0
C2358 C 0.29212 0.46696 0.9342 0.0
C2359 C 0.30565 0.46049 0.91632 0.0
C2360 C 0.27963 0.45134 0.94605 0.0
C2361 C 0.30651 0.438 0.91058 0.0
C2362 C 0.29383 0.4224 0.92207 0.0
C2363 C 0.26757 0.41326 0.95165 0.0
C2364 C 0.25502 0.41981 0.97017 0.0
C2365 C 0.28023 0.42886 0.93979 0.0
C2366 C 0.25481 0.44215 0.97634 0.0
C2367 C 0.26669 0.4578 0.96423 0.0
H2368 H 0.65409 0.28876 0.97394 0.0
H2369 H 0.63501 0.22368 0.95253 0.0
H2370 H 0.60899 0.23975 0.92593 0.0
H2371 H 0.59061 0.27247 0.90973 0.0
H2372 H 0.61247 0.33751 0.92841 0.0
H2373 H 0.63852 0.32143 0.95498 0.0
C2374 C 0.64431 0.27812 0.96333 0.0
C2375 C 0.64631 0.25504 0.96533 0.0
C2376 C 0.62987 0.28752 0.94762 0.0
C2377 C 0.63379 0.24146 0.95128 0.0
C2378 C 0.61886 0.25066 0.93613 0.0
C2379 C 0.6012 0.28309 0.91954 0.0
C2380 C 0.59948 0.30618 0.91727 0.0
C2381 C 0.61659 0.27368 0.93431 0.0
C2382 C 0.6135 0.31973 0.92984 0.0
C2383 C 0.62833 0.31052 0.94508 0.0
H2384 H 0.47204 0.78859 0.90931 0.0
H2385 H 0.45109 0.72378 0.92957 0.0
H2386 H 0.42466 0.74022 0.9556 0.0
H2387 H 0.40809 0.77314 0.97326 0.0
H2388 H 0.42608 0.83789 0.95018 0.0
H2389 H 0.45295 0.82149 0.92452 0.0
C2390 C 0.46163 0.7781 0.91941 0.0
C2391 C 0.46369 0.75497 0.91771 0.0
C2392 C 0.44594 0.7877 0.9338 0.0
C2393 C 0.44984 0.74158 0.93059 0.0
C2394 C 0.43477 0.75099 0.94551 0.0
C2395 C 0.41785 0.78364 0.96252 0.0
C2396 C 0.41526 0.80674 0.96376 0.0
C2397 C 0.43276 0.77403 0.94736 0.0
C2398 C 0.42775 0.82011 0.94953 0.0
C2399 C 0.44316 0.81072 0.93492 0.0
H2400 H 0.12291 0.11659 0.33301 0.0
H2401 H 0.15474 0.1328 0.39485 0.0
H2402 H 0.12213 0.15279 0.40683 0.0
H2403 H 0.08491 0.1672 0.39941 0.0
H2404 H 0.05524 0.15614 0.33552 0.0
H2405 H 0.08622 0.13247 0.3249 0.0
C2406 C 0.12274 0.12444 0.34914 0.0
C2407 C 0.14114 0.12223 0.36331 0.0
C2408 C 0.1041 0.13683 0.35565 0.0
C2409 C 0.14061 0.13297 0.38397 0.0
C2410 C 0.12196 0.1448 0.39077 0.0
C2411 C 0.08518 0.15946 0.38321 0.0
C2412 C 0.06753 0.16309 0.36849 0.0
C2413 C 0.10363 0.14686 0.37676 0.0
C2414 C 0.0682 0.15309 0.34749 0.0
C2415 C 0.08612 0.13982 0.34126 0.0
H2416 H 0.93769 0.123 0.33573 0.0
H2417 H 0.92597 0.15365 0.39919 0.0
H2418 H 0.90538 0.12148 0.4113 0.0
H2419 H 0.88942 0.08481 0.40363 0.0
H2420 H 0.89707 0.05634 0.33868 0.0
H2421 H 0.92053 0.08715 0.32755 0.0
C2422 C 0.93069 0.12268 0.35225 0.0
C2423 C 0.93426 0.14061 0.36673 0.0
C2424 C 0.91809 0.10433 0.35892 0.0
C2425 C 0.92466 0.13987 0.38794 0.0
C2426 C 0.9125 0.12149 0.39484 0.0
C2427 C 0.89635 0.08533 0.38709 0.0
C2428 C 0.89189 0.06802 0.3722 0.0
C2429 C 0.90909 0.10362 0.38048 0.0
C2430 C 0.90079 0.06904 0.35073 0.0
C2431 C 0.91398 0.08683 0.34425 0.0
H2432 H 0.97428 0.8893 0.40369 0.0
H2433 H 1.00231 0.89761 0.33866 0.0
H2434 H 0.97137 0.92117 0.32803 0.0
H2435 H 0.9356 0.93845 0.33669 0.0
H2436 H 0.90534 0.9261 0.40015 0.0
H2437 H 0.93757 0.90522 0.41175 0.0
C2438 C 0.97363 0.89638 0.38723 0.0
C2439 C 0.99093 0.89213 0.37221 0.0
C2440 C 0.95526 0.90922 0.38089 0.0
C2441 C 0.98969 0.9012 0.35084 0.0
C2442 C 0.9718 0.91446 0.34463 0.0
C2443 C 0.93601 0.93126 0.35311 0.0
C2444 C 0.91818 0.93477 0.36775 0.0
C2445 C 0.9544 0.91848 0.35947 0.0
C2446 C 0.91905 0.92488 0.3888 0.0
C2447 C 0.93746 0.91253 0.3954 0.0
H2448 H 0.1696 0.97441 0.40255 0.0
H2449 H 0.16264 1.00189 0.33718 0.0
H2450 H 0.13903 0.97111 0.32629 0.0
H2451 H 0.12129 0.93563 0.33488 0.0
H2452 H 0.1329 0.90566 0.39858 0.0
H2453 H 0.15364 0.93781 0.4104 0.0
C2454 C 0.16282 0.97367 0.38595 0.0
C2455 C 0.16743 0.9908 0.37093 0.0
C2456 C 0.15005 0.95534 0.37944 0.0
C2457 C 0.15875 0.98943 0.34938 0.0
C2458 C 0.14547 0.97162 0.34302 0.0
C2459 C 0.12829 0.93608 0.35139 0.0
C2460 C 0.1245 0.91839 0.36605 0.0
C2461 C 0.14111 0.95439 0.35787 0.0
C2462 C 0.13423 0.91929 0.38721 0.0
C2463 C 0.14652 0.93766 0.39394 0.0
H2464 H 0.12548 0.95104 0.6837 0.0
H2465 H 0.15474 0.904 0.72849 0.0
H2466 H 0.1238 0.87893 0.72265 0.0
H2467 H 0.08848 0.87 0.70467 0.0
H2468 H 0.05878 0.91655 0.65994 0.0
H2469 H 0.08968 0.94217 0.66585 0.0
C2470 C 0.12531 0.93517 0.69186 0.0
C2471 C 0.14272 0.9293 0.70621 0.0
C2472 C 0.10726 0.92077 0.68853 0.0
C2473 C 0.14167 0.90895 0.71729 0.0
C2474 C 0.12396 0.89455 0.71396 0.0
C2475 C 0.08889 0.88574 0.69616 0.0
C2476 C 0.07163 0.89131 0.68165 0.0
C2477 C 0.10669 0.90025 0.69961 0.0
C2478 C 0.07202 0.9119 0.67107 0.0
C2479 C 0.0897 0.92649 0.67442 0.0
H2480 H 0.18831 0.08805 0.69363 0.0
H2481 H 0.13498 0.04341 0.67859 0.0
H2482 H 0.10818 0.07329 0.68412 0.0
H2483 H 0.09994 0.1125 0.69327 0.0
H2484 H 0.15371 0.15707 0.70643 0.0
H2485 H 0.18039 0.12713 0.70086 0.0
C2486 C 0.17087 0.0849 0.69109 0.0
C2487 C 0.16373 0.06348 0.68546 0.0
C2488 C 0.15565 0.10227 0.69382 0.0
C2489 C 0.14095 0.05966 0.68303 0.0
C2490 C 0.12563 0.07679 0.68606 0.0
C2491 C 0.11753 0.11557 0.6947 0.0
C2492 C 0.12498 0.1369 0.70015 0.0
C2493 C 0.13277 0.0982 0.69144 0.0
C2494 C 0.14772 0.14079 0.70213 0.0
C2495 C 0.16292 0.12366 0.69903 0.0
H2496 H 0.97208 0.16742 0.65652 0.0
H2497 H 1.0039 0.15559 0.71922 0.0
H2498 H 0.97306 0.13245 0.73084 0.0
H2499 H 0.93621 0.11679 0.72395 0.0
H2500 H 0.90253 0.13216 0.66296 0.0
H2501 H 0.93459 0.15264 0.65011 0.0
C2502 C 0.97227 0.15967 0.67269 0.0
C2503 C 0.99053 0.16295 0.68678 0.0
C2504 C 0.954 0.14704 0.67966 0.0
C2505 C 0.99045 0.15288 0.70773 0.0
C2506 C 0.97263 0.13985 0.71453 0.0
C2507 C 0.93584 0.12457 0.70781 0.0
C2508 C 0.91705 0.12215 0.69422 0.0
C2509 C 0.9542 0.13699 0.70073 0.0
C2510 C 0.91693 0.13269 0.67348 0.0
C2511 C 0.93526 0.14475 0.66618 0.0
H2512 H 0.94441 0.93647 0.72446 0.0
H2513 H 0.92945 0.90575 0.66175 0.0
H2514 H 0.90704 0.9373 0.65128 0.0
H2515 H 0.89018 0.9732 0.66035 0.0
H2516 H 0.90169 1.00207 0.72453 0.0
H2517 H 0.92692 0.97198 0.73387 0.0
C2518 C 0.93634 0.93668 0.70844 0.0
C2519 C 0.93941 0.91889 0.69368 0.0
C2520 C 0.92278 0.95471 0.70274 0.0
C2521 C 0.92847 0.91945 0.67313 0.0
C2522 C 0.91527 0.93746 0.66721 0.0
C2523 C 0.89836 0.97295 0.67632 0.0
C2524 C 0.89443 0.99014 0.69151 0.0
C2525 C 0.91224 0.95515 0.68188 0.0
C2526 C 0.90496 0.98948 0.71223 0.0
C2527 C 0.91918 0.97209 0.7177 0.0
H2528 H 0.33563 0.12027 0.11649 0.0
H2529 H 0.39916 0.15025 0.12868 0.0
H2530 H 0.41074 0.11814 0.14951 0.0
H2531 H 0.40259 0.08184 0.16583 0.0
H2532 H 0.33738 0.0543 0.15845 0.0
H2533 H 0.3269 0.08475 0.13417 0.0
C2534 C 0.35207 0.11981 0.12361 0.0
C2535 C 0.36672 0.13756 0.12002 0.0
C2536 C 0.3584 0.10151 0.13652 0.0
C2537 C 0.38779 0.13663 0.12986 0.0
C2538 C 0.39438 0.11827 0.14222 0.0
C2539 C 0.38612 0.08247 0.15879 0.0
C2540 C 0.37099 0.06549 0.16359 0.0
C2541 C 0.37984 0.10063 0.1457 0.0
C2542 C 0.34964 0.06667 0.15448 0.0
C2543 C 0.34351 0.08429 0.14084 0.0
H2544 H 0.93464 0.33263 0.11723 0.0
H2545 H 0.90232 0.39435 0.13222 0.0
H2546 H 0.93433 0.40638 0.15315 0.0
H2547 H 0.97141 0.39925 0.16831 0.0
H2548 H 1.00138 0.3355 0.1583 0.0
H2549 H 0.97081 0.32462 0.13426 0.0
C2550 C 0.93455 0.34874 0.12503 0.0
C2551 C 0.91621 0.36286 0.12212 0.0
C2552 C 0.95282 0.3553 0.13796 0.0
C2553 C 0.91642 0.38349 0.13287 0.0
C2554 C 0.93472 0.39032 0.14525 0.0
C2555 C 0.97127 0.383 0.16078 0.0
C2556 C 0.989 0.36846 0.16472 0.0
C2557 C 0.95304 0.37641 0.14788 0.0
C2558 C 0.98844 0.34738 0.15498 0.0
C2559 C 0.97073 0.34099 0.14148 0.0
H2560 H 0.72245 0.93853 0.12246 0.0
H2561 H 0.65689 0.9117 0.13056 0.0
H2562 H 0.64571 0.94427 0.15104 0.0
H2563 H 0.6547 0.98016 0.16817 0.0
H2564 H 0.72148 1.00451 0.16444 0.0
H2565 H 0.73187 0.97346 0.14084 0.0
C2566 C 0.70566 0.93976 0.1286 0.0
C2567 C 0.6904 0.92277 0.12399 0.0
C2568 C 0.69948 0.9583 0.14127 0.0
C2569 C 0.66885 0.92472 0.13257 0.0
C2570 C 0.66245 0.94334 0.14473 0.0
C2571 C 0.67149 0.97871 0.16203 0.0
C2572 C 0.68711 0.995 0.16759 0.0
C2573 C 0.67762 0.96023 0.14922 0.0
C2574 C 0.70889 0.9927 0.1598 0.0
C2575 C 0.71494 0.97475 0.14653 0.0
H2576 H 0.08871 0.70072 0.18809 0.0
H2577 H 0.0529 0.6651 0.13795 0.0
H2578 H 0.08383 0.66986 0.11202 0.0
H2579 H 0.12136 0.68436 0.10371 0.0
H2580 H 0.15611 0.72123 0.1538 0.0
H2581 H 0.12555 0.71568 0.17968 0.0
C2582 C 0.08776 0.69393 0.17149 0.0
C2583 C 0.0687 0.68235 0.16497 0.0
C2584 C 0.10553 0.69686 0.15674 0.0
C2585 C 0.06746 0.674 0.14332 0.0
C2586 C 0.08517 0.67667 0.12856 0.0
C2587 C 0.12234 0.69084 0.12041 0.0
C2588 C 0.14117 0.70285 0.12699 0.0
C2589 C 0.10438 0.68798 0.1351 0.0
C2590 C 0.14188 0.71181 0.14842 0.0
C2591 C 0.12439 0.70867 0.16321 0.0
H2592 H 0.3879 0.91898 0.93511 0.0
H2593 H 0.31865 0.93349 0.94469 0.0
H2594 H 0.32257 0.96703 0.92308 0.0
H2595 H 0.34519 0.9918 0.90011 0.0
H2596 H 0.41475 0.97876 0.89253 0.0
H2597 H 0.41122 0.94539 0.91504 0.0
C2598 C 0.37373 0.92962 0.93322 0.0
C2599 C 0.35303 0.92346 0.94206 0.0
C2600 C 0.37613 0.9493 0.92097 0.0
C2601 C 0.33484 0.9375 0.93821 0.0
C2602 C 0.33703 0.95685 0.92584 0.0
C2603 C 0.35968 0.98198 0.90389 0.0
C2604 C 0.38027 0.98791 0.89485 0.0
C2605 C 0.35755 0.96288 0.91702 0.0
C2606 C 0.39874 0.97459 0.89936 0.0
C2607 C 0.39671 0.95547 0.9122 0.0
H2608 H 0.09045 0.39842 0.88449 0.0
H2609 H 0.06008 0.33518 0.89582 0.0
H2610 H 0.09045 0.32467 0.92025 0.0
H2611 H 0.12617 0.33305 0.93778 0.0
H2612 H 0.15841 0.39479 0.92325 0.0
H2613 H 0.12705 0.40617 0.90084 0.0
C2614 C 0.09048 0.38238 0.8924 0.0
C2615 C 0.07268 0.36787 0.8888 0.0
C2616 C 0.10842 0.37615 0.9059 0.0
C2617 C 0.07311 0.34701 0.89892 0.0
C2618 C 0.09065 0.34087 0.91269 0.0
C2619 C 0.12637 0.34903 0.92975 0.0
C2620 C 0.14447 0.36329 0.93301 0.0
C2621 C 0.10844 0.35527 0.91625 0.0
C2622 C 0.14444 0.38379 0.92211 0.0
C2623 C 0.12654 0.39024 0.90893 0.0
H2624 H 0.65756 0.08364 0.89643 0.0
H2625 H 0.7221 0.05462 0.90445 0.0
H2626 H 0.73289 0.08466 0.92911 0.0
H2627 H 0.72457 0.11998 0.94735 0.0
H2628 H 0.66185 0.15154 0.93479 0.0
H2629 H 0.64995 0.12003 0.91315 0.0
C2630 C 0.67396 0.08388 0.90366 0.0
C2631 C 0.68878 0.06657 0.89899 0.0
C2632 C 0.68044 0.10179 0.91709 0.0
C2633 C 0.71006 0.06726 0.90831 0.0
C2634 C 0.71637 0.08464 0.92221 0.0
C2635 C 0.70824 0.12002 0.93997 0.0
C2636 C 0.6939 0.13801 0.94373 0.0
C2637 C 0.70175 0.10209 0.9266 0.0
C2638 C 0.67297 0.13771 0.93352 0.0
C2639 C 0.6662 0.11969 0.92068 0.0
H2640 H 0.93706 0.72884 0.94097 0.0
H2641 H 0.90328 0.66831 0.92461 0.0
H2642 H 0.93515 0.65582 0.90363 0.0
H2643 H 0.97238 0.66239 0.88863 0.0
H2644 H 1.00417 0.72485 0.90064 0.0
H2645 H 0.97368 0.73607 0.92468 0.0
C2646 C 0.93664 0.71287 0.93287 0.0
C2647 C 0.9179 0.69925 0.93525 0.0
C2648 C 0.95487 0.70605 0.92003 0.0
C2649 C 0.91768 0.67878 0.92423 0.0
C2650 C 0.93589 0.6717 0.91185 0.0
C2651 C 0.97266 0.67842 0.89662 0.0
C2652 C 0.99082 0.69252 0.89322 0.0
C2653 C 0.95457 0.68518 0.90962 0.0
C2654 C 0.99084 0.71332 0.90354 0.0
C2655 C 0.97321 0.71989 0.91705 0.0
H2656 H 0.16756 0.39731 0.08595 0.0
H2657 H 0.15444 0.33465 0.05487 0.0
H2658 H 0.13021 0.3244 0.08561 0.0
H2659 H 0.11456 0.3324 0.12255 0.0
H2660 H 0.13245 0.39304 0.15547 0.0
H2661 H 0.1531 0.40472 0.12312 0.0
C2662 C 0.15928 0.38145 0.08585 0.0
C2663 C 0.16251 0.36696 0.06792 0.0
C2664 C 0.14632 0.37522 0.1041 0.0
C2665 C 0.15173 0.34644 0.06807 0.0
C2666 C 0.13814 0.34042 0.08585 0.0
C2667 C 0.12293 0.34821 0.12265 0.0
C2668 C 0.12111 0.36214 0.1413 0.0
C2669 C 0.13559 0.35455 0.10414 0.0
C2670 C 0.13244 0.38239 0.14115 0.0
C2671 C 0.1446 0.389 0.12266 0.0
H2672 H 0.12043 0.7239 0.93521 0.0
H2673 H 0.1326 0.6607 0.90456 0.0
H2674 H 0.15301 0.6487 0.937 0.0
H2675 H 0.16865 0.65639 0.97396 0.0
H2676 H 0.16058 0.72113 1.00239 0.0
H2677 H 0.13733 0.73212 0.97128 0.0
C2678 C 0.12749 0.70746 0.93558 0.0
C2679 C 0.12409 0.69302 0.91757 0.0
C2680 C 0.14 0.70087 0.95409 0.0
C2681 C 0.13378 0.67192 0.91839 0.0
C2682 C 0.14584 0.66509 0.93693 0.0
C2683 C 0.16168 0.67286 0.97335 0.0
C2684 C 0.16596 0.68773 0.99075 0.0
C2685 C 0.14907 0.67941 0.95489 0.0
C2686 C 0.15701 0.7091 0.98963 0.0
C2687 C 0.14393 0.71551 0.97166 0.0
H2688 H 0.34562 0.15836 0.99327 0.0
H2689 H 0.41402 0.16973 0.97722 0.0
H2690 H 0.41029 0.14719 0.94379 0.0
H2691 H 0.387 0.1263 0.91816 0.0
H2692 H 0.3192 0.11244 0.93561 0.0
H2693 H 0.32325 0.13421 0.96921 0.0
C2694 C 0.35985 0.15539 0.98277 0.0
C2695 C 0.38014 0.16554 0.98783 0.0
C2696 C 0.35762 0.14223 0.96363 0.0
C2697 C 0.39825 0.16203 0.9737 0.0
C2698 C 0.3961 0.14921 0.95455 0.0
C2699 C 0.37323 0.1272 0.92946 0.0
C2700 C 0.3529 0.11711 0.92415 0.0
C2701 C 0.37578 0.13941 0.94919 0.0
C2702 C 0.33511 0.11986 0.93899 0.0
C2703 C 0.3374 0.1323 0.95837 0.0
H2704 H 0.94236 0.33444 0.93461 0.0
H2705 H 0.9317 0.3979 0.90411 0.0
H2706 H 0.91143 0.41032 0.93642 0.0
H2707 H 0.89533 0.403 0.9731 0.0
H2708 H 0.90079 0.33781 1.00094 0.0
H2709 H 0.92452 0.32643 0.97031 0.0
C2710 C 0.93569 0.35103 0.93498 0.0
C2711 C 0.9396 0.36543 0.91708 0.0
C2712 C 0.92307 0.35786 0.95337 0.0
C2713 C 0.9303 0.38671 0.91789 0.0
C2714 C 0.91826 0.39379 0.93635 0.0
C2715 C 0.90185 0.38634 0.97251 0.0
C2716 C 0.89679 0.37152 0.98969 0.0
C2717 C 0.91454 0.37953 0.9542 0.0
C2718 C 0.90511 0.34988 0.9885 0.0
C2719 C 0.91841 0.34323 0.97074 0.0
H2720 H 0.70565 0.87325 0.97643 0.0
H2721 H 0.65676 0.91693 1.00405 0.0
H2722 H 0.66154 0.94231 0.97275 0.0
H2723 H 0.67964 0.95185 0.93724 0.0
H2724 H 0.72901 0.90812 0.91024 0.0
H2725 H 0.72407 0.88302 0.94143 0.0
C2726 C 0.69604 0.88834 0.9755 0.0
C2727 C 0.68067 0.89315 0.99229 0.0
C2728 C 0.6989 0.90276 0.95748 0.0
C2729 C 0.66859 0.91288 0.9912 0.0
C2730 C 0.67129 0.92732 0.97329 0.0
C2731 C 0.68899 0.93664 0.93795 0.0
C2732 C 0.70435 0.93167 0.92111 0.0
C2733 C 0.68627 0.92235 0.95619 0.0
C2734 C 0.71698 0.91228 0.92285 0.0
C2735 C 0.71418 0.89791 0.94071 0.0
H2736 H 0.94082 0.72758 0.12259 0.0
H2737 H 0.92769 0.66449 0.15279 0.0
H2738 H 0.90575 0.65354 0.12096 0.0
H2739 H 0.88904 0.66214 0.08472 0.0
H2740 H 0.8988 0.72658 0.0564 0.0
H2741 H 0.92319 0.73661 0.087 0.0
C2742 C 0.93324 0.71138 0.12222 0.0
C2743 C 0.93675 0.69666 0.13994 0.0
C2744 C 0.91994 0.70537 0.10402 0.0
C2745 C 0.9264 0.67588 0.13916 0.0
C2746 C 0.91346 0.66967 0.12098 0.0
C2747 C 0.89664 0.67832 0.08522 0.0
C2748 C 0.89253 0.69336 0.06795 0.0
C2749 C 0.91009 0.68427 0.10331 0.0
C2750 C 0.90226 0.71439 0.069 0.0
C2751 C 0.916 0.72025 0.08668 0.0
H2752 H 0.37658 0.95167 0.12726 0.0
H2753 H 0.32927 0.9072 0.15635 0.0
H2754 H 0.33322 0.88214 0.12487 0.0
H2755 H 0.35029 0.87261 0.08908 0.0
H2756 H 0.39701 0.9171 0.05938 0.0
H2757 H 0.39317 0.94245 0.09092 0.0
C2758 C 0.36748 0.93631 0.12691 0.0
C2759 C 0.35301 0.93108 0.14442 0.0
C2760 C 0.3696 0.92207 0.10852 0.0
C2761 C 0.34063 0.91152 0.1432 0.0
C2762 C 0.34286 0.89718 0.12519 0.0
C2763 C 0.35961 0.88787 0.0896 0.0
C2764 C 0.37412 0.89294 0.07216 0.0
C2765 C 0.35729 0.90227 0.10776 0.0
C2766 C 0.38585 0.91288 0.07273 0.0
C2767 C 0.38369 0.92729 0.09078 0.0
H2768 H 0.71392 0.1613 0.07094 0.0
H2769 H 0.64674 0.17673 0.0888 0.0
H2770 H 0.65066 0.15566 0.12308 0.0
H2771 H 0.67384 0.13468 0.14879 0.0
H2772 H 0.74035 0.11705 0.12978 0.0
H2773 H 0.73611 0.13745 0.09539 0.0
C2774 C 0.69996 0.15952 0.08204 0.0
C2775 C 0.67997 0.17034 0.07719 0.0
C2776 C 0.70231 0.14726 0.1017 0.0
C2777 C 0.66227 0.16847 0.09212 0.0
C2778 C 0.66453 0.15648 0.11176 0.0
C2779 C 0.68723 0.13452 0.13699 0.0
C2780 C 0.70727 0.12374 0.14203 0.0
C2781 C 0.68456 0.14597 0.11686 0.0
C2782 C 0.72468 0.12506 0.12659 0.0
C2783 C 0.72227 0.13669 0.10676 0.0
H2784 H 0.58829 0.68851 0.8514 0.0
H2785 H 0.56012 0.64453 0.89957 0.0
H2786 H 0.59137 0.61906 0.89483 0.0
H2787 H 0.62696 0.60951 0.87696 0.0
H2788 H 0.65458 0.65357 0.82834 0.0
H2789 H 0.62344 0.67877 0.83323 0.0
C2790 C 0.58911 0.67336 0.86089 0.0
C2791 C 0.57217 0.66848 0.87604 0.0
C2792 C 0.6071 0.65889 0.85806 0.0
C2793 C 0.57309 0.64863 0.88792 0.0
C2794 C 0.59097 0.63414 0.88525 0.0
C2795 C 0.6264 0.62482 0.86777 0.0
C2796 C 0.6434 0.62985 0.85264 0.0
C2797 C 0.6082 0.63917 0.87048 0.0
C2798 C 0.64184 0.64936 0.8402 0.0
C2799 C 0.62401 0.66379 0.84298 0.0
H2800 H 0.39769 0.58129 0.90591 0.0
H2801 H 0.40096 0.55539 0.83953 0.0
H2802 H 0.42418 0.58629 0.82823 0.0
H2803 H 0.44226 0.62161 0.83673 0.0
H2804 H 0.43445 0.64994 0.90185 0.0
H2805 H 0.41448 0.61749 0.91397 0.0
C2806 C 0.40364 0.58238 0.88902 0.0
C2807 C 0.39804 0.56573 0.87376 0.0
C2808 C 0.4162 0.60077 0.88235 0.0
C2809 C 0.40562 0.56752 0.85184 0.0
C2810 C 0.41867 0.58539 0.84527 0.0
C2811 C 0.43629 0.62072 0.85362 0.0
C2812 C 0.44084 0.63809 0.8685 0.0
C2813 C 0.4239 0.60223 0.86033 0.0
C2814 C 0.43249 0.63661 0.8902 0.0
C2815 C 0.42063 0.61806 0.89713 0.0
H2816 H 0.43704 0.45299 0.87737 0.0
H2817 H 0.40562 0.40511 0.83504 0.0
H2818 H 0.43626 0.37945 0.84091 0.0
H2819 H 0.4722 0.3706 0.85794 0.0
H2820 H 0.50462 0.41882 0.89896 0.0
H2821 H 0.47353 0.44438 0.89385 0.0
C2822 C 0.43675 0.4368 0.86977 0.0
C2823 C 0.41884 0.43077 0.85614 0.0
C2824 C 0.4547 0.42226 0.87289 0.0
C2825 C 0.41913 0.41006 0.84571 0.0
C2826 C 0.43665 0.39538 0.84906 0.0
C2827 C 0.47234 0.38669 0.8658 0.0
C2828 C 0.49047 0.3928 0.87902 0.0
C2829 C 0.45454 0.4013 0.86258 0.0
C2830 C 0.49074 0.41379 0.88882 0.0
C2831 C 0.47297 0.42835 0.88592 0.0
H2832 H 0.61533 0.43923 0.83318 0.0
H2833 H 0.63017 0.40922 0.89618 0.0
H2834 H 0.65063 0.44174 0.90736 0.0
H2835 H 0.66593 0.47824 0.89893 0.0
H2836 H 0.65571 0.50635 0.83428 0.0
H2837 H 0.63173 0.47545 0.82425 0.0
C2838 C 0.62295 0.43981 0.84941 0.0
C2839 C 0.62029 0.42193 0.86408 0.0
C2840 C 0.63555 0.45841 0.85551 0.0
C2841 C 0.63072 0.42296 0.88488 0.0
C2842 C 0.64283 0.44154 0.89122 0.0
C2843 C 0.65831 0.47766 0.88269 0.0
C2844 C 0.66226 0.49485 0.86757 0.0
C2845 C 0.6454 0.45933 0.87668 0.0
C2846 C 0.6524 0.49378 0.84653 0.0
C2847 C 0.63894 0.4759 0.84066 0.0
H2848 H 0.58465 0.3892 0.16003 0.0
H2849 H 0.55799 0.39866 0.2255 0.0
H2850 H 0.58892 0.42276 0.235 0.0
H2851 H 0.62421 0.44027 0.22513 0.0
H2852 H 0.65266 0.42783 0.16082 0.0
H2853 H 0.6206 0.40596 0.15051 0.0
C2854 C 0.58559 0.39668 0.17632 0.0
C2855 C 0.56872 0.3926 0.19183 0.0
C2856 C 0.60383 0.41002 0.1819 0.0
C2857 C 0.57031 0.40212 0.21299 0.0
C2858 C 0.58816 0.41571 0.21852 0.0
C2859 C 0.62341 0.43285 0.20881 0.0
C2860 C 0.6407 0.43645 0.19358 0.0
C2861 C 0.60509 0.41968 0.20316 0.0
C2862 C 0.63936 0.42637 0.17263 0.0
C2863 C 0.62106 0.4135 0.16678 0.0
H2864 H 0.68016 0.58485 0.21046 0.0
H2865 H 0.63869 0.55616 0.16026 0.0
H2866 H 0.61174 0.58615 0.16502 0.0
H2867 H 0.60041 0.62111 0.1832 0.0
H2868 H 0.64194 0.64901 0.23399 0.0
H2869 H 0.66839 0.61892 0.22932 0.0
C2870 C 0.66514 0.58519 0.20066 0.0
C2871 C 0.6614 0.56851 0.18492 0.0
C2872 C 0.64985 0.60247 0.20349 0.0
C2873 C 0.64185 0.56889 0.17245 0.0
C2874 C 0.62654 0.58608 0.17511 0.0
C2875 C 0.61542 0.62078 0.19296 0.0
C2876 C 0.61941 0.63757 0.20862 0.0
C2877 C 0.63047 0.60313 0.19042 0.0
C2878 C 0.63854 0.6364 0.22174 0.0
C2879 C 0.65368 0.61918 0.21909 0.0
H2880 H 0.49121 0.65538 0.21548 0.0
H2881 H 0.47236 0.67195 0.14879 0.0
H2882 H 0.4388 0.64977 0.15242 0.0
H2883 H 0.41393 0.62736 0.17524 0.0
H2884 H 0.43398 0.60878 0.24122 0.0
H2885 H 0.46769 0.63022 0.2372 0.0
C2886 C 0.48007 0.65366 0.20155 0.0
C2887 C 0.48442 0.66517 0.18181 0.0
C2888 C 0.46081 0.64072 0.2037 0.0
C2889 C 0.4694 0.66325 0.16416 0.0
C2890 C 0.45018 0.65059 0.16624 0.0
C2891 C 0.42581 0.62726 0.18855 0.0
C2892 C 0.42121 0.61589 0.2084 0.0
C2893 C 0.44556 0.6394 0.18603 0.0
C2894 C 0.4368 0.61722 0.2257 0.0
C2895 C 0.45625 0.62948 0.22343 0.0
H2896 H 0.42953 0.41639 0.17463 0.0
H2897 H 0.44385 0.43318 0.24263 0.0
H2898 H 0.42316 0.46734 0.23868 0.0
H2899 H 0.39966 0.49202 0.21637 0.0
H2900 H 0.38781 0.47649 0.14779 0.0
H2901 H 0.40946 0.44261 0.15137 0.0
C2902 C 0.42896 0.42766 0.18845 0.0
C2903 C 0.43883 0.42201 0.20881 0.0
C2904 C 0.4174 0.44769 0.18596 0.0
C2905 C 0.43654 0.43682 0.22669 0.0
C2906 C 0.42474 0.45652 0.22447 0.0
C2907 C 0.4024 0.48157 0.20205 0.0
C2908 C 0.39236 0.4869 0.18176 0.0
C2909 C 0.415 0.46213 0.20421 0.0
C2910 C 0.39547 0.47278 0.16356 0.0
C2911 C 0.40777 0.45336 0.16563 0.0
H2912 H 0.887 0.63963 0.62664 0.0
H2913 H 0.81945 0.62278 0.61116 0.0
H2914 H 0.82289 0.58891 0.63247 0.0
H2915 H 0.8445 0.56464 0.65706 0.0
H2916 H 0.91237 0.58069 0.67122 0.0
H2917 H 0.90951 0.61395 0.64852 0.0
C2918 C 0.87319 0.62837 0.62723 0.0
C2919 C 0.85307 0.63389 0.61683 0.0
C2920 C 0.87531 0.60863 0.63942 0.0
C2921 C 0.83517 0.61917 0.61891 0.0
C2922 C 0.83711 0.59967 0.63109 0.0
C2923 C 0.85882 0.57511 0.65467 0.0
C2924 C 0.8787 0.57007 0.66563 0.0
C2925 C 0.85704 0.59427 0.64157 0.0
C2926 C 0.8969 0.58419 0.6629 0.0
C2927 C 0.89526 0.60324 0.64997 0.0
H2928 H 0.42049 0.88751 0.62451 0.0
H2929 H 0.43535 0.8186 0.61405 0.0
H2930 H 0.46909 0.82248 0.63558 0.0
H2931 H 0.49379 0.84497 0.65893 0.0
H2932 H 0.48001 0.91413 0.66769 0.0
H2933 H 0.44681 0.91073 0.64478 0.0
C2934 C 0.43127 0.87343 0.62617 0.0
C2935 C 0.42519 0.85283 0.61715 0.0
C2936 C 0.45101 0.87581 0.63839 0.0
C2937 C 0.43935 0.8347 0.6207 0.0
C2938 C 0.4588 0.83688 0.63301 0.0
C2939 C 0.48383 0.8594 0.65532 0.0
C2940 C 0.48943 0.87982 0.66485 0.0
C2941 C 0.46475 0.8573 0.64209 0.0
C2942 C 0.47604 0.89825 0.66048 0.0
C2943 C 0.45702 0.89628 0.64745 0.0
H2944 H 0.16296 0.47407 0.67055 0.0
H2945 H 0.22714 0.50292 0.65992 0.0
H2946 H 0.23697 0.47272 0.63496 0.0
H2947 H 0.22784 0.43733 0.61702 0.0
H2948 H 0.16512 0.4066 0.63115 0.0
H2949 H 0.15436 0.43801 0.65369 0.0
C2950 C 0.17906 0.47377 0.66267 0.0
C2951 C 0.19406 0.49106 0.66671 0.0
C2952 C 0.18491 0.4559 0.6489 0.0
C2953 C 0.21496 0.49028 0.65656 0.0
C2954 C 0.22071 0.47283 0.64248 0.0
C2955 C 0.21176 0.4375 0.62495 0.0
C2956 C 0.19706 0.41977 0.62151 0.0
C2957 C 0.20588 0.45545 0.63862 0.0
C2958 C 0.17646 0.42027 0.63234 0.0
C2959 C 0.17036 0.4382 0.64563 0.0
H2960 H 0.62261 0.18413 0.60528 0.0
H2961 H 0.65593 0.22451 0.6536 0.0
H2962 H 0.62612 0.21806 0.68015 0.0
H2963 H 0.59027 0.20124 0.68962 0.0
H2964 H 0.55581 0.16243 0.64094 0.0
H2965 H 0.58622 0.16782 0.61457 0.0
C2966 C 0.62348 0.19119 0.62174 0.0
C2967 C 0.64167 0.20446 0.62761 0.0
C2968 C 0.60598 0.18776 0.63681 0.0
C2969 C 0.64217 0.21416 0.64874 0.0
C2970 C 0.62513 0.21047 0.66393 0.0
C2971 C 0.58955 0.19388 0.67327 0.0
C2972 C 0.57104 0.18121 0.66726 0.0
C2973 C 0.60693 0.19735 0.65816 0.0
C2974 C 0.57001 0.17211 0.64591 0.0
C2975 C 0.58739 0.17519 0.63088 0.0
H2976 H 0.89843 0.47614 0.39484 0.0
H2977 H 0.83276 0.50292 0.4011 0.0
H2978 H 0.82225 0.4723 0.4252 0.0
H2979 H 0.83113 0.43669 0.44285 0.0
H2980 H 0.8953 0.40762 0.43161 0.0
H2981 H 0.90682 0.43999 0.41122 0.0
C2982 C 0.88187 0.47534 0.40165 0.0
C2983 C 0.86658 0.49207 0.39653 0.0
C2984 C 0.8756 0.45709 0.41458 0.0
C2985 C 0.8451 0.49069 0.4053 0.0
C2986 C 0.83898 0.47297 0.41883 0.0
C2987 C 0.84768 0.43742 0.43603 0.0
C2988 C 0.86254 0.41985 0.43978 0.0
C2989 C 0.85401 0.45589 0.42336 0.0
C2990 C 0.88377 0.42111 0.43032 0.0
C2991 C 0.89033 0.43962 0.41822 0.0
H2992 H 0.61916 0.86964 0.46171 0.0
H2993 H 0.65571 0.83938 0.40849 0.0
H2994 H 0.62512 0.84633 0.383 0.0
H2995 H 0.58785 0.86077 0.37578 0.0
H2996 H 0.55013 0.88944 0.42894 0.0
H2997 H 0.58106 0.88327 0.4546 0.0
C2998 C 0.62046 0.86487 0.44446 0.0
C2999 C 0.63979 0.85435 0.43685 0.0
C3000 C 0.60251 0.86847 0.42998 0.0
C3001 C 0.64104 0.84761 0.41465 0.0
C3002 C 0.62355 0.85156 0.40009 0.0
C3003 C 0.58648 0.8657 0.39299 0.0
C3004 C 0.56693 0.87577 0.40049 0.0
C3005 C 0.6042 0.86191 0.40756 0.0
C3006 C 0.56511 0.88174 0.42286 0.0
C3007 C 0.5828 0.87827 0.43747 0.0
H3008 H 0.17808 0.62501 0.45266 0.0
H3009 H 0.23903 0.63868 0.41829 0.0
H3010 H 0.23425 0.60547 0.39596 0.0
H3011 H 0.21222 0.57286 0.38527 0.0
H3012 H 0.15065 0.55994 0.41839 0.0
H3013 H 0.15594 0.5926 0.44188 0.0
C3014 C 0.19006 0.62113 0.43996 0.0
C3015 C 0.20865 0.63482 0.43689 0.0
C3016 C 0.18716 0.60193 0.42702 0.0
C3017 C 0.22448 0.62865 0.42097 0.0
C3018 C 0.22177 0.60961 0.40815 0.0
C3019 C 0.20017 0.57712 0.39787 0.0
C3020 C 0.18127 0.56391 0.40047 0.0
C3021 C 0.20316 0.59614 0.41098 0.0
C3022 C 0.16548 0.56974 0.41644 0.0
C3023 C 0.16846 0.58846 0.42973 0.0
H3024 H 0.47177 0.16121 0.39784 0.0
H3025 H 0.49917 0.22642 0.40477 0.0
H3026 H 0.46827 0.2372 0.42851 0.0
H3027 H 0.43245 0.22857 0.44606 0.0
H3028 H 0.40253 0.16516 0.43356 0.0
H3029 H 0.435 0.15341 0.41327 0.0
C3030 C 0.471 0.17775 0.40465 0.0
C3031 C 0.48808 0.19278 0.39995 0.0
C3032 C 0.45255 0.18423 0.41729 0.0
C3033 C 0.48672 0.21424 0.40872 0.0
C3034 C 0.46883 0.22054 0.42204 0.0
C3035 C 0.433 0.21215 0.43895 0.0
C3036 C 0.41523 0.19749 0.44246 0.0
C3037 C 0.45151 0.20573 0.42627 0.0
C3038 C 0.41622 0.17648 0.43255 0.0
C3039 C 0.43478 0.16979 0.4205 0.0
H3040 H 0.60411 0.87608 0.62503 0.0
H3041 H 0.64651 0.82685 0.65411 0.0
H3042 H 0.6725 0.83065 0.62343 0.0
H3043 H 0.68341 0.84806 0.58832 0.0
H3044 H 0.64106 0.89673 0.55855 0.0
H3045 H 0.61477 0.8931 0.58933 0.0
C3046 C 0.61922 0.86651 0.62485 0.0
C3047 C 0.62358 0.85152 0.6421 0.0
C3048 C 0.63401 0.86856 0.6069 0.0
C3049 C 0.64284 0.83859 0.64113 0.0
C3050 C 0.65771 0.84075 0.62357 0.0
C3051 C 0.66841 0.85786 0.58867 0.0
C3052 C 0.6642 0.87283 0.57144 0.0
C3053 C 0.65349 0.85566 0.60637 0.0
C3054 C 0.6446 0.88519 0.57176 0.0
C3055 C 0.62966 0.88316 0.58937 0.0
H3056 H 0.65977 0.21441 0.49526 0.0
H3057 H 0.66608 0.14467 0.48314 0.0
H3058 H 0.64421 0.1482 0.44924 0.0
H3059 H 0.62543 0.17152 0.42198 0.0
H3060 H 0.61707 0.24106 0.43537 0.0
H3061 H 0.63787 0.23717 0.46952 0.0
C3062 C 0.65583 0.1999 0.48551 0.0
C3063 C 0.66437 0.17926 0.49183 0.0
C3064 C 0.64316 0.20206 0.46603 0.0
C3065 C 0.65961 0.16072 0.47867 0.0
C3066 C 0.64718 0.16276 0.45923 0.0
C3067 C 0.62738 0.18579 0.43247 0.0
C3068 C 0.6191 0.20653 0.42581 0.0
C3069 C 0.63909 0.18342 0.45255 0.0
C3070 C 0.6231 0.22482 0.43972 0.0
C3071 C 0.63499 0.22264 0.45945 0.0
H3072 H 0.85665 0.68628 0.46924 0.0
H3073 H 0.89433 0.63591 0.50231 0.0
H3074 H 0.8889 0.6109 0.47072 0.0
H3075 H 0.8733 0.60355 0.43348 0.0
H3076 H 0.83458 0.65385 0.40132 0.0
H3077 H 0.84052 0.67874 0.43264 0.0
C3078 C 0.86371 0.66982 0.46944 0.0
C3079 C 0.87608 0.66295 0.48787 0.0
C3080 C 0.8604 0.65562 0.45132 0.0
C3081 C 0.88482 0.64151 0.48821 0.0
C3082 C 0.88176 0.62728 0.47014 0.0
C3083 C 0.86653 0.6201 0.43319 0.0
C3084 C 0.85391 0.62705 0.41489 0.0
C3085 C 0.86969 0.63421 0.45151 0.0
C3086 C 0.84449 0.64822 0.41514 0.0
C3087 C 0.84786 0.66244 0.43304 0.0
H3088 H 0.37447 0.85451 0.46894 0.0
H3089 H 0.42414 0.89265 0.50264 0.0
H3090 H 0.44993 0.88663 0.4718 0.0
H3091 H 0.45823 0.87038 0.43501 0.0
H3092 H 0.4087 0.83099 0.40233 0.0
H3093 H 0.38302 0.83757 0.43286 0.0
C3094 C 0.39094 0.86155 0.46943 0.0
C3095 C 0.39737 0.87424 0.48785 0.0
C3096 C 0.40566 0.85782 0.45176 0.0
C3097 C 0.41884 0.88293 0.48855 0.0
C3098 C 0.43354 0.87951 0.47091 0.0
C3099 C 0.44172 0.86351 0.43445 0.0
C3100 C 0.43527 0.85051 0.41618 0.0
C3101 C 0.4271 0.86706 0.45234 0.0
C3102 C 0.41405 0.84112 0.41611 0.0
C3103 C 0.39934 0.84489 0.43357 0.0
H3104 H 0.20258 0.3725 0.47026 0.0
H3105 H 0.16367 0.42213 0.50318 0.0
H3106 H 0.1699 0.44768 0.47228 0.0
H3107 H 0.18654 0.45581 0.43562 0.0
H3108 H 0.22673 0.40636 0.40375 0.0
H3109 H 0.21998 0.38093 0.43434 0.0
C3110 C 0.19544 0.38891 0.47058 0.0
C3111 C 0.18248 0.39539 0.48882 0.0
C3112 C 0.19931 0.40353 0.45287 0.0
C3113 C 0.17362 0.41679 0.48926 0.0
C3114 C 0.17716 0.43135 0.47157 0.0
C3115 C 0.19356 0.43938 0.43524 0.0
C3116 C 0.20683 0.43289 0.41716 0.0
C3117 C 0.1899 0.42488 0.45319 0.0
C3118 C 0.21639 0.41176 0.41736 0.0
C3119 C 0.21252 0.39718 0.43486 0.0
H3120 H 0.40003 0.2157 0.57066 0.0
H3121 H 0.39859 0.1452 0.57922 0.0
H3122 H 0.42161 0.14842 0.61231 0.0
H3123 H 0.43928 0.17145 0.64022 0.0
H3124 H 0.44308 0.24195 0.63062 0.0
H3125 H 0.42167 0.2385 0.59675 0.0
C3126 C 0.40538 0.20101 0.57937 0.0
C3127 C 0.39784 0.1802 0.57237 0.0
C3128 C 0.41866 0.203 0.59845 0.0
C3129 C 0.40434 0.16137 0.58423 0.0
C3130 C 0.41738 0.16323 0.60323 0.0
C3131 C 0.43631 0.1861 0.63063 0.0
C3132 C 0.44338 0.20693 0.6383 0.0
C3133 C 0.42432 0.18401 0.61074 0.0
C3134 C 0.438 0.22561 0.62547 0.0
C3135 C 0.42575 0.2237 0.60592 0.0
H3136 H 0.87503 0.45643 0.62106 0.0
H3137 H 0.83493 0.40864 0.65521 0.0
H3138 H 0.84087 0.38202 0.62534 0.0
H3139 H 0.85716 0.37232 0.58926 0.0
H3140 H 0.89597 0.42027 0.55406 0.0
H3141 H 0.89091 0.44685 0.5844 0.0
C3142 C 0.86794 0.44006 0.62209 0.0
C3143 C 0.8549 0.43434 0.64053 0.0
C3144 C 0.87107 0.42494 0.60456 0.0
C3145 C 0.84513 0.41335 0.64126 0.0
C3146 C 0.84851 0.39813 0.62418 0.0
C3147 C 0.86457 0.38858 0.58835 0.0
C3148 C 0.87714 0.39432 0.56966 0.0
C3149 C 0.86139 0.40374 0.60573 0.0
C3150 C 0.88633 0.41552 0.56839 0.0
C3151 C 0.88346 0.43066 0.58574 0.0
H3152 H 0.22953 0.6176 0.62344 0.0
H3153 H 0.16918 0.63534 0.65711 0.0
H3154 H 0.15734 0.65662 0.62516 0.0
H3155 H 0.16436 0.67113 0.5877 0.0
H3156 H 0.22648 0.65688 0.55581 0.0
H3157 H 0.23722 0.6333 0.58671 0.0
C3158 C 0.21375 0.62608 0.62382 0.0
C3159 C 0.19998 0.62407 0.64253 0.0
C3160 C 0.20728 0.63894 0.60553 0.0
C3161 C 0.17975 0.63553 0.64272 0.0
C3162 C 0.17305 0.64805 0.62447 0.0
C3163 C 0.18021 0.66278 0.58751 0.0
C3164 C 0.19434 0.66537 0.56918 0.0
C3165 C 0.18665 0.64986 0.60576 0.0
C3166 C 0.21492 0.65461 0.56929 0.0
C3167 C 0.22122 0.64133 0.58713 0.0
H3168 H 0.04857 0.26037 0.31784 0.0
H3169 H 0.97775 0.26695 0.31463 0.0
H3170 H 0.98149 0.29477 0.28542 0.0
H3171 H 1.00525 0.32003 0.26392 0.0
H3172 H 0.076 0.31194 0.26573 0.0
H3173 H 0.07204 0.28166 0.29226 0.0
C3174 C 0.03396 0.26762 0.31041 0.0
C3175 C 1.01291 0.26185 0.31843 0.0
C3176 C 0.03629 0.28341 0.29357 0.0
C3177 C 0.99408 0.27111 0.30862 0.0
C3178 C 0.99625 0.28712 0.29207 0.0
C3179 C 0.01976 0.31138 0.2699 0.0
C3180 C 0.04092 0.31833 0.26316 0.0
C3181 C 0.0173 0.29384 0.28489 0.0
C3182 C 0.05959 0.30685 0.27071 0.0
C3183 C 0.05731 0.28964 0.28595 0.0
H3184 H 0.73563 1.00783 0.26731 0.0
H3185 H 0.7479 0.07786 0.26767 0.0
H3186 H 0.7784 0.07261 0.29378 0.0
H3187 H 0.79885 0.04849 0.31944 0.0
H3188 H 0.78826 0.97826 0.31765 0.0
H3189 H 0.76005 0.98305 0.28884 0.0
C3190 C 0.74521 0.02188 0.2729 0.0
C3191 C 0.73936 0.04326 0.26584 0.0
C3192 C 0.76296 0.01867 0.28762 0.0
C3193 C 0.75208 0.06129 0.27289 0.0
C3194 C 0.76945 0.05829 0.28789 0.0
C3195 C 0.7907 0.0342 0.31234 0.0
C3196 C 0.79549 0.01305 0.32065 0.0
C3197 C 0.77466 0.03713 0.29576 0.0
C3198 C 0.78494 0.99465 0.31135 0.0
C3199 C 0.76868 0.99744 0.29506 0.0
H3200 H 0.05251 0.73876 0.26374 0.0
H3201 H 0.98188 0.74782 0.26509 0.0
H3202 H 0.98598 0.77732 0.29257 0.0
H3203 H 1.00951 0.79773 0.31904 0.0
H3204 H 0.08027 0.79055 0.3159 0.0
H3205 H 0.0764 0.76332 0.28608 0.0
C3206 C 0.03807 0.74749 0.26979 0.0
C3207 C 0.01689 0.74101 0.26259 0.0
C3208 C 0.04061 0.76465 0.28532 0.0
C3209 C 0.99832 0.75257 0.27034 0.0
C3210 C 1.00067 0.76932 0.28615 0.0
C3211 C 0.02408 0.79048 0.31149 0.0
C3212 C 0.04515 0.79596 0.31972 0.0
C3213 C 0.02169 0.7751 0.29418 0.0
C3214 C 0.06392 0.78665 0.30975 0.0
C3215 C 0.06167 0.77097 0.29283 0.0
H3216 H 0.32241 0.05044 0.26427 0.0
H3217 H 0.31763 0.97976 0.26987 0.0
H3218 H 0.28795 0.98378 0.29722 0.0
H3219 H 0.26583 1.0076 0.32198 0.0
H3220 H 0.26862 0.0782 0.31441 0.0
H3221 H 0.29642 0.07411 0.28515 0.0
C3222 C 0.31462 0.03594 0.27128 0.0
C3223 C 0.32231 0.01482 0.26531 0.0
C3224 C 0.29731 0.03841 0.28665 0.0
C3225 C 0.31195 0.99615 0.27422 0.0
C3226 C 0.29508 0.99846 0.28993 0.0
C3227 C 0.27229 0.02205 0.31363 0.0
C3228 C 0.26538 0.0432 0.32043 0.0
C3229 C 0.28798 0.01952 0.29663 0.0
C3230 C 0.27365 0.06179 0.30939 0.0
C3231 C 0.28964 0.05944 0.29279 0.0
H3232 H 0.05281 0.79681 0.73794 0.0
H3233 H 0.98213 0.79356 0.74598 0.0
H3234 H 0.98667 0.76689 0.77613 0.0
H3235 H 1.0107 0.74131 0.79694 0.0
H3236 H 0.08143 0.74588 0.79024 0.0
H3237 H 0.07705 0.77552 0.76297 0.0
C3238 C 0.03844 0.79057 0.74663 0.0
C3239 C 0.01714 0.79692 0.73966 0.0
C3240 C 0.04123 0.77542 0.764 0.0
C3241 C 0.99865 0.78895 0.75112 0.0
C3242 C 1.00126 0.77359 0.76822 0.0
C3243 C 0.02514 0.74913 0.78979 0.0
C3244 C 0.04637 0.74134 0.79535 0.0
C3245 C 0.02244 0.76623 0.77433 0.0
C3246 C 0.06498 0.75167 0.78623 0.0
C3247 C 0.06244 0.76848 0.77054 0.0
H3248 H 0.32157 1.00471 0.79756 0.0
H3249 H 0.31369 0.07526 0.7941 0.0
H3250 H 0.28391 0.07079 0.76695 0.0
H3251 H 0.2627 0.04678 0.74155 0.0
H3252 H 0.26865 0.97617 0.74696 0.0
H3253 H 0.29642 0.98058 0.7762 0.0
C3254 C 0.31304 0.01907 0.79111 0.0
C3255 C 0.31991 0.04032 0.79764 0.0
C3256 C 0.29571 0.01632 0.7758 0.0
C3257 C 0.30863 0.05878 0.78938 0.0
C3258 C 0.29172 0.05621 0.77375 0.0
C3259 C 0.26983 0.03238 0.74943 0.0
C3260 C 0.26381 1.01116 0.74201 0.0
C3261 C 0.2855 0.03508 0.76645 0.0
C3262 C 0.27296 0.99263 0.75245 0.0
C3263 C 0.28894 0.99517 0.76905 0.0
H3264 H 1.00913 0.25731 0.73941 0.0
H3265 H 0.07992 0.26176 0.74564 0.0
H3266 H 0.0757 0.28926 0.77517 0.0
H3267 H 0.05181 0.31533 0.79565 0.0
H3268 H 0.98101 0.30971 0.79068 0.0
H3269 H 0.98518 0.2791 0.76437 0.0
C3270 C 0.02361 0.26397 0.74761 0.0
C3271 C 0.04483 0.25771 0.74028 0.0
C3272 C 0.021 0.27965 0.7646 0.0
C3273 C 0.06346 0.26626 0.75108 0.0
C3274 C 0.06103 0.28211 0.76782 0.0
C3275 C 0.03731 0.30706 0.78912 0.0
C3276 C 0.01611 0.31484 0.79487 0.0
C3277 C 0.03989 0.28943 0.77419 0.0
C3278 C 0.99745 0.30394 0.78653 0.0
C3279 C 0.99986 0.28657 0.77138 0.0
H3280 H 0.79676 1.00803 0.74408 0.0
H3281 H 0.79119 0.07867 0.74979 0.0
H3282 H 0.76415 0.07434 0.77975 0.0
H3283 H 0.73914 0.05029 0.80125 0.0
H3284 H 0.7462 0.97967 0.79694 0.0
H3285 H 0.7759 0.98407 0.76967 0.0
C3286 C 0.78991 0.02247 0.7522 0.0
C3287 C 0.79575 0.04366 0.74465 0.0
C3288 C 0.77459 0.0198 0.76951 0.0
C3289 C 0.78698 0.06224 0.75539 0.0
C3290 C 0.77142 0.05973 0.77239 0.0
C3291 C 0.74749 0.03588 0.79461 0.0
C3292 C 0.74038 0.01465 0.80089 0.0
C3293 C 0.76466 0.03859 0.77914 0.0
C3294 C 0.75143 0.99613 0.7924 0.0
C3295 C 0.76829 0.99867 0.77671 0.0
H3296 H 0.31905 0.26071 1.00803 0.0
H3297 H 0.3138 0.26467 0.07904 0.0
H3298 H 0.2846 0.29254 0.07552 0.0
H3299 H 0.26373 0.31871 0.0521 0.0
H3300 H 0.26751 0.3132 0.98107 0.0
H3301 H 0.29404 0.28283 0.98463 0.0
C3302 C 0.31114 0.26735 0.02271 0.0
C3303 C 0.31861 0.2608 0.04378 0.0
C3304 C 0.29433 0.28323 0.0205 0.0
C3305 C 0.30821 0.26936 0.06269 0.0
C3306 C 0.29168 0.28544 0.06065 0.0
C3307 C 0.27015 0.31061 0.03742 0.0
C3308 C 0.26396 0.31833 0.01632 0.0
C3309 C 0.2851 0.29296 0.03964 0.0
C3310 C 0.27207 0.30754 0.99744 0.0
C3311 C 0.2873 0.29026 0.99949 0.0
H3312 H 0.31696 0.79791 0.0517 0.0
H3313 H 0.31141 0.79271 0.98078 0.0
H3314 H 0.28201 0.76517 0.98495 0.0
H3315 H 0.26107 0.73957 1.00893 0.0
H3316 H 0.26509 0.74632 0.07983 0.0
H3317 H 0.29173 0.77649 0.07561 0.0
C3318 C 0.30895 0.79105 0.03717 0.0
C3319 C 0.31641 0.79715 0.01594 0.0
C3320 C 0.29197 0.77542 0.03975 0.0
C3321 C 0.30586 0.78833 0.99725 0.0
C3322 C 0.28919 0.77247 0.99966 0.0
C3323 C 0.2675 0.74796 0.02343 0.0
C3324 C 0.26134 0.74062 0.04469 0.0
C3325 C 0.28258 0.76544 0.02082 0.0
C3326 C 0.26955 0.75172 0.06334 0.0
C3327 C 0.28489 0.76886 0.06091 0.0
H3328 H 0.74586 0.27538 0.99119 0.0
H3329 H 0.74696 0.24599 0.05592 0.0
H3330 H 0.77649 0.27111 0.06746 0.0
H3331 H 0.79841 0.305 0.06059 0.0
H3332 H 0.79494 0.33554 0.99624 0.0
H3333 H 0.77036 0.30665 0.98316 0.0
C3334 C 0.75319 0.27401 1.00752 0.0
C3335 C 0.74464 0.25865 0.02255 0.0
C3336 C 0.7695 0.28915 1.01431 0.0
C3337 C 0.75367 0.25747 0.04395 0.0
C3338 C 0.77037 0.272 0.05063 0.0
C3339 C 0.79258 0.30505 0.04362 0.0
C3340 C 0.79829 0.32263 0.02957 0.0
C3341 C 0.7779 0.28847 0.0362 0.0
C3342 C 0.79052 0.32245 1.00759 0.0
C3343 C 0.77647 0.30586 1.0 0.0
H3344 H 0.79742 0.74477 0.0514 0.0
H3345 H 0.79257 0.75419 0.98089 0.0
H3346 H 0.76533 0.78364 0.98663 0.0
H3347 H 0.73954 0.80313 1.01165 0.0
H3348 H 0.74558 0.79497 0.08221 0.0
H3349 H 0.77603 0.76878 0.07665 0.0
C3350 C 0.79072 0.75364 0.03733 0.0
C3351 C 0.79677 0.74724 0.01572 0.0
C3352 C 0.77523 0.7706 0.04082 0.0
C3353 C 0.7882 0.7589 0.99763 0.0
C3354 C 0.77252 0.7756 1.00093 0.0
C3355 C 0.74791 0.79598 0.0258 0.0
C3356 C 0.7403 0.80078 0.04732 0.0
C3357 C 0.76542 0.78108 0.02242 0.0
C3358 C 0.75127 0.79158 0.06555 0.0
C3359 C 0.76852 0.77649 0.06233 0.0
H3360 H 0.54955 0.76059 0.81722 0.0
H3361 H 0.47872 0.76705 0.81418 0.0
H3362 H 0.48232 0.79438 0.78449 0.0
H3363 H 0.50599 0.81962 0.76281 0.0
H3364 H 0.57675 0.8117 0.76448 0.0
H3365 H 0.57291 0.7815 0.79113 0.0
C3366 C 0.53491 0.76764 0.80966 0.0
C3367 C 0.51389 0.76199 0.8179 0.0
C3368 C 0.53716 0.78319 0.79256 0.0
C3369 C 0.49502 0.77107 0.80798 0.0
C3370 C 0.49712 0.78683 0.79117 0.0
C3371 C 0.52052 0.81098 0.76873 0.0
C3372 C 0.54166 0.818 0.76193 0.0
C3373 C 0.51813 0.7935 0.78383 0.0
C3374 C 0.56035 0.80656 0.76946 0.0
C3375 C 0.55814 0.7894 0.78479 0.0
H3376 H 0.29904 0.55253 0.82479 0.0
H3377 H 0.29746 0.48209 0.81512 0.0
H3378 H 0.27096 0.48657 0.78483 0.0
H3379 H 0.24553 0.51035 0.76365 0.0
H3380 H 0.24886 0.58091 0.77134 0.0
H3381 H 0.27764 0.5767 0.79965 0.0
C3382 C 0.2931 0.53822 0.8158 0.0
C3383 C 0.29996 0.51698 0.82231 0.0
C3384 C 0.27818 0.54098 0.79814 0.0
C3385 C 0.29242 0.49857 0.81039 0.0
C3386 C 0.27719 0.50114 0.79316 0.0
C3387 C 0.25292 0.5248 0.77124 0.0
C3388 C 0.24507 0.54591 0.76559 0.0
C3389 C 0.26958 0.52221 0.78724 0.0
C3390 C 0.25477 0.56453 0.77537 0.0
C3391 C 0.27108 0.56209 0.79166 0.0
H3392 H 0.55406 0.23805 0.766 0.0
H3393 H 0.48317 0.24443 0.76838 0.0
H3394 H 0.48654 0.27449 0.79533 0.0
H3395 H 0.50966 0.29639 0.8209 0.0
H3396 H 0.58059 0.29202 0.81657 0.0
H3397 H 0.57732 0.26398 0.78746 0.0
C3398 C 0.53939 0.24629 0.7722 0.0
C3399 C 0.51838 0.23891 0.76544 0.0
C3400 C 0.5415 0.26383 0.78736 0.0
C3401 C 0.4995 0.24985 0.77333 0.0
C3402 C 0.50143 0.26694 0.78882 0.0
C3403 C 0.52438 0.28957 0.81324 0.0
C3404 C 0.54535 0.2961 0.82093 0.0
C3405 C 0.52233 0.27371 0.79633 0.0
C3406 C 0.5643 0.28732 0.81082 0.0
C3407 C 0.56241 0.27117 0.79431 0.0
H3408 H 0.81824 0.55006 0.7605 0.0
H3409 H 0.81287 0.47959 0.76772 0.0
H3410 H 0.78389 0.48458 0.79574 0.0
H3411 H 0.76313 0.50927 0.82097 0.0
H3412 H 0.76698 0.57969 0.8121 0.0
H3413 H 0.79342 0.57453 0.78176 0.0
C3414 C 0.81034 0.5358 0.76788 0.0
C3415 C 0.81769 0.51447 0.76217 0.0
C3416 C 0.79366 0.53885 0.78382 0.0
C3417 C 0.80734 0.49612 0.77173 0.0
C3418 C 0.79094 0.49901 0.78789 0.0
C3419 C 0.76956 0.52346 0.81216 0.0
C3420 C 0.76338 0.54487 0.81893 0.0
C3421 C 0.78444 0.52031 0.79451 0.0
C3422 C 0.77152 0.5631 0.80721 0.0
C3423 C 0.7867 0.56013 0.78994 0.0
H3424 H 0.50538 0.23995 0.30062 0.0
H3425 H 0.57616 0.2471 0.29731 0.0
H3426 H 0.57203 0.27648 0.26977 0.0
H3427 H 0.5483 0.2972 0.24386 0.0
H3428 H 0.47748 0.29167 0.24865 0.0
H3429 H 0.48149 0.26474 0.27867 0.0
C3430 C 0.51987 0.24822 0.2941 0.0
C3431 C 0.54108 0.24124 0.30074 0.0
C3432 C 0.51731 0.26525 0.27852 0.0
C3433 C 0.55971 0.25222 0.29245 0.0
C3434 C 0.55733 0.26891 0.27662 0.0
C3435 C 0.53376 0.29037 0.25179 0.0
C3436 C 0.51261 0.29618 0.24398 0.0
C3437 C 0.53624 0.27513 0.26913 0.0
C3438 C 0.49388 0.28746 0.25446 0.0
C3439 C 0.49621 0.27197 0.27149 0.0
H3440 H 0.76133 0.55107 0.23868 0.0
H3441 H 0.76632 0.48035 0.24364 0.0
H3442 H 0.79367 0.48422 0.27338 0.0
H3443 H 0.81884 0.5079 0.29513 0.0
H3444 H 0.81221 0.5786 0.29171 0.0
H3445 H 0.78257 0.57465 0.26433 0.0
C3446 C 0.76816 0.53652 0.24657 0.0
C3447 C 0.76205 0.51544 0.2389 0.0
C3448 C 0.78363 0.53892 0.26376 0.0
C3449 C 0.77076 0.49671 0.24934 0.0
C3450 C 0.78648 0.49894 0.26621 0.0
C3451 C 0.81065 0.52242 0.2886 0.0
C3452 C 0.81783 0.54354 0.29517 0.0
C3453 C 0.79346 0.51997 0.27313 0.0
C3454 C 0.80694 0.56221 0.28689 0.0
C3455 C 0.7901 0.55994 0.27116 0.0
H3456 H 0.56837 0.77501 0.24501 0.0
H3457 H 0.50485 0.74344 0.24873 0.0
H3458 H 0.49374 0.76824 0.2788 0.0
H3459 H 0.50053 0.80204 0.30091 0.0
H3460 H 0.5635 0.83483 0.29496 0.0
H3461 H 0.57633 0.80665 0.2693 0.0
C3462 C 0.5524 0.77317 0.25296 0.0
C3463 C 0.53759 0.75722 0.24505 0.0
C3464 C 0.54583 0.78808 0.26965 0.0
C3465 C 0.51664 0.75539 0.25491 0.0
C3466 C 0.51022 0.76972 0.27195 0.0
C3467 C 0.51717 0.80276 0.29429 0.0
C3468 C 0.53088 0.82072 0.29973 0.0
C3469 C 0.52441 0.78661 0.27901 0.0
C3470 C 0.55242 0.82141 0.29087 0.0
C3471 C 0.55985 0.80524 0.27618 0.0
H3472 H 0.2805 0.56744 0.24536 0.0
H3473 H 0.30931 0.50256 0.24329 0.0
H3474 H 0.28496 0.49041 0.27325 0.0
H3475 H 0.25249 0.49711 0.29731 0.0
H3476 H 0.222 0.56142 0.29705 0.0
H3477 H 0.24976 0.57485 0.27118 0.0
C3478 C 0.28181 0.55086 0.25196 0.0
C3479 C 0.29688 0.53601 0.24244 0.0
C3480 C 0.26711 0.54374 0.26864 0.0
C3481 C 0.298 0.51435 0.25063 0.0
C3482 C 0.28396 0.50735 0.26765 0.0
C3483 C 0.25219 0.51414 0.29188 0.0
C3484 C 0.23505 0.52814 0.29906 0.0
C3485 C 0.268 0.52171 0.27641 0.0
C3486 C 0.23484 0.55017 0.29166 0.0
C3487 C 0.25075 0.55792 0.27683 0.0
H3488 H 0.7607 0.81429 0.55058 0.0
H3489 H 0.7663 0.81137 0.47955 0.0
H3490 H 0.79404 0.782 0.48275 0.0
H3491 H 0.81959 0.76023 0.50607 0.0
H3492 H 0.81232 0.76161 0.57703 0.0
H3493 H 0.78212 0.78835 0.57363 0.0
C3494 C 0.7677 0.80687 0.53581 0.0
C3495 C 0.76164 0.81504 0.51485 0.0
C3496 C 0.78343 0.7899 0.53782 0.0
C3497 C 0.77063 0.80525 0.49581 0.0
C3498 C 0.78661 0.7886 0.49767 0.0
C3499 C 0.81111 0.76613 0.52075 0.0
C3500 C 0.81831 0.75918 0.54181 0.0
C3501 C 0.79358 0.78126 0.51861 0.0
C3502 C 0.80705 0.7667 0.56068 0.0
C3503 C 0.78989 0.78208 0.55873 0.0
H3504 H 0.76306 0.23847 0.50905 0.0
H3505 H 0.76631 0.24387 0.58009 0.0
H3506 H 0.79384 0.27332 0.57684 0.0
H3507 H 0.81946 0.29516 0.55367 0.0
H3508 H 0.81393 0.292 0.48263 0.0
H3509 H 0.78466 0.26428 0.48589 0.0
C3510 C 0.76956 0.24638 0.52378 0.0
C3511 C 0.76284 0.23892 0.5448 0.0
C3512 C 0.78504 0.26361 0.52175 0.0
C3513 C 0.77119 0.2494 0.56376 0.0
C3514 C 0.78702 0.26614 0.5619 0.0
C3515 C 0.81155 0.28864 0.53894 0.0
C3516 C 0.81893 0.29546 0.51792 0.0
C3517 C 0.79443 0.27303 0.54098 0.0
C3518 C 0.80845 0.28708 0.49896 0.0
C3519 C 0.79183 0.27112 0.50084 0.0
H3520 H 0.29955 0.81928 0.50426 0.0
H3521 H 0.29869 0.81006 0.57498 0.0
H3522 H 0.27249 0.77954 0.57077 0.0
H3523 H 0.24672 0.75843 0.54721 0.0
H3524 H 0.24896 0.76612 0.47638 0.0
H3525 H 0.27803 0.79408 0.48026 0.0
C3526 C 0.29387 0.81032 0.5187 0.0
C3527 C 0.3008 0.81706 0.53995 0.0
C3528 C 0.27905 0.79262 0.51609 0.0
C3529 C 0.2936 0.80518 0.5585 0.0
C3530 C 0.27853 0.78782 0.55609 0.0
C3531 C 0.25398 0.76589 0.53261 0.0
C3532 C 0.2457 0.76037 0.51152 0.0
C3533 C 0.27072 0.7818 0.53502 0.0
C3534 C 0.25521 0.77002 0.49272 0.0
C3535 C 0.27167 0.78613 0.49498 0.0
H3536 H 0.2432 0.28583 0.56899 0.0
H3537 H 0.23992 0.30873 0.50169 0.0
H3538 H 0.26908 0.28285 0.49089 0.0
H3539 H 0.29267 0.25065 0.49978 0.0
H3540 H 0.2931 0.22572 0.56658 0.0
H3541 H 0.26829 0.25518 0.57833 0.0
C3542 C 0.24937 0.28552 0.55214 0.0
C3543 C 0.23971 0.29935 0.53623 0.0
C3544 C 0.26546 0.26987 0.54584 0.0
C3545 C 0.24734 0.29838 0.51426 0.0
C3546 C 0.2639 0.28347 0.50805 0.0
C3547 C 0.28759 0.25193 0.51695 0.0
C3548 C 0.29465 0.23589 0.53221 0.0
C3549 C 0.27267 0.26865 0.52355 0.0
C3550 C 0.28774 0.23769 0.5544 0.0
C3551 C 0.27355 0.25458 0.56119 0.0
loop_
_geom_bond_atom_site_label_1
_geom_bond_atom_site_label_2
_geom_bond_distance
_geom_bond_site_symmetry_2
_ccdc_geom_bond_type
Co0 O3 1.970 1_455 S
Co0 N17 1.989 . S
Co0 O25 1.967 . S
Co0 O32 1.920 . S
Co1 O4 1.966 . S
Co1 N10 2.022 . S
Co1 N18 1.993 1_655 S
Co1 O26 1.941 . S
C2 O3 1.258 . S
C2 O4 1.263 . S
O3 Co0 1.970 1_655 S
O3 C2 1.258 . S
O4 Co1 1.966 . S
O4 C2 1.263 . S
C5 O6 1.235 . S
C5 O32 1.289 . S
O6 C5 1.235 . S
C7 C9 1.400 . S
C7 N10 1.351 . S
C7 C12 1.501 . S
C8 C9 1.387 . S
C8 N11 1.341 . S
C9 C7 1.400 . S
C9 C8 1.387 . S
N10 Co1 2.022 . S
N10 C7 1.351 . S
N10 N11 1.365 . S
N11 C8 1.341 . S
N11 N10 1.365 . S
N11 H31 0.862 . S
C12 C7 1.501 . S
C12 H13 0.961 . S
C12 H14 0.961 . S
C12 H15 0.960 . S
H13 C12 0.961 . S
H14 C12 0.961 . S
H15 C12 0.960 . S
C16 N17 1.342 . S
C16 C20 1.401 . S
C16 C21 1.499 . S
N17 Co0 1.989 . S
N17 C16 1.342 . S
N17 N18 1.388 . S
N18 Co1 1.993 1_455 S
N18 N17 1.388 . S
N18 C19 1.346 . S
C19 N18 1.346 . S
C19 C20 1.396 . S
C19 C29 1.510 . S
C20 C16 1.401 . S
C20 C19 1.396 . S
C21 C16 1.499 . S
C21 H22 0.959 . S
C21 H23 0.960 . S
C21 H24 0.961 . S
H22 C21 0.959 . S
H23 C21 0.960 . S
H24 C21 0.961 . S
O25 Co0 1.967 . S
O25 C33 1.258 . S
O26 Co1 1.941 . S
O26 C33 1.266 1_655 S
H27 C29 0.959 . S
H28 C29 0.961 . S
C29 C19 1.510 . S
C29 H27 0.959 . S
C29 H28 0.961 . S
C29 H30 0.960 1_455 S
H30 C29 0.960 1_655 S
H31 N11 0.862 . S
O32 Co0 1.920 . S
O32 C5 1.289 . S
C33 O25 1.258 . S
C33 O26 1.266 1_455 S
Co34 O37 1.970 1_545 S
Co34 N51 1.989 . S
Co34 O59 1.967 . S
Co34 O66 1.920 . S
Co35 O38 1.966 . S
Co35 N44 2.022 . S
Co35 N52 1.993 1_565 S
Co35 O60 1.941 . S
C36 O37 1.258 . S
C36 O38 1.263 . S
O37 Co34 1.970 1_565 S
O37 C36 1.258 . S
O38 Co35 1.966 . S
O38 C36 1.263 . S
C39 O40 1.235 . S
C39 O66 1.289 . S
O40 C39 1.235 . S
C41 C43 1.400 . S
C41 N44 1.351 . S
C41 C46 1.501 . S
C42 C43 1.387 . S
C42 N45 1.341 . S
C43 C41 1.400 . S
C43 C42 1.387 . S
N44 Co35 2.022 . S
N44 C41 1.351 . S
N44 N45 1.365 . S
N45 C42 1.341 . S
N45 N44 1.365 . S
N45 H65 0.862 . S
C46 C41 1.501 . S
C46 H47 0.961 . S
C46 H48 0.961 . S
C46 H49 0.960 . S
H47 C46 0.961 . S
H48 C46 0.961 . S
H49 C46 0.960 . S
C50 N51 1.342 . S
C50 C54 1.401 . S
C50 C55 1.499 . S
N51 Co34 1.989 . S
N51 C50 1.342 . S
N51 N52 1.388 . S
N52 Co35 1.993 1_545 S
N52 N51 1.388 . S
N52 C53 1.346 . S
C53 N52 1.346 . S
C53 C54 1.396 . S
C53 C63 1.510 . S
C54 C50 1.401 . S
C54 C53 1.396 . S
C55 C50 1.499 . S
C55 H56 0.959 . S
C55 H57 0.960 . S
C55 H58 0.961 . S
H56 C55 0.959 . S
H57 C55 0.960 . S
H58 C55 0.961 . S
O59 Co34 1.967 . S
O59 C67 1.258 . S
O60 Co35 1.941 . S
O60 C67 1.266 1_565 S
H61 C63 0.959 . S
H62 C63 0.961 . S
C63 C53 1.510 . S
C63 H61 0.959 . S
C63 H62 0.961 . S
C63 H64 0.960 1_545 S
H64 C63 0.960 1_565 S
H65 N45 0.862 . S
O66 Co34 1.920 . S
O66 C39 1.289 . S
C67 O59 1.258 . S
C67 O60 1.266 1_545 S
Co68 O71 1.970 . S
Co68 N85 1.998 . S
Co68 O93 1.967 . S
Co68 O100 1.920 1_455 S
Co69 O72 1.966 . S
Co69 N78 2.022 . S
Co69 N86 1.993 . S
Co69 O94 1.941 . S
C70 O71 1.258 . S
C70 O72 1.263 . S
O71 Co68 1.970 . S
O71 C70 1.258 . S
O72 Co69 1.966 . S
O72 C70 1.263 . S
C73 O74 1.235 . S
C73 O100 1.289 . S
O74 C73 1.235 . S
C75 C77 1.400 . S
C75 N78 1.351 . S
C75 C80 1.501 . S
C76 C77 1.387 . S
C76 N79 1.341 . S
C77 C75 1.400 . S
C77 C76 1.387 . S
N78 Co69 2.022 . S
N78 C75 1.351 . S
N78 N79 1.365 . S
N79 C76 1.341 . S
N79 N78 1.365 . S
N79 H99 0.862 . S
C80 C75 1.501 . S
C80 H81 0.961 . S
C80 H82 0.961 . S
C80 H83 0.960 . S
H81 C80 0.961 . S
H82 C80 0.961 . S
H83 C80 0.960 . S
C84 N85 1.312 1_655 S
C84 C88 1.401 . S
C84 C89 1.499 . S
N85 Co68 1.998 . S
N85 C84 1.312 1_455 S
N85 N86 1.413 . S
N86 Co69 1.993 . S
N86 N85 1.413 . S
N86 C87 1.346 . S
C87 N86 1.346 . S
C87 C88 1.396 1_455 S
C87 C97 1.510 . S
C88 C84 1.401 . S
C88 C87 1.396 1_655 S
C89 C84 1.499 . S
C89 H90 0.959 . S
C89 H91 0.960 . S
C89 H92 0.961 . S
H90 C89 0.959 . S
H91 C89 0.960 . S
H92 C89 0.961 . S
O93 Co68 1.967 . S
O93 C101 1.258 . S
O94 Co69 1.941 . S
O94 C101 1.266 . S
H95 C97 0.959 . S
H96 C97 0.961 . S
C97 C87 1.510 . S
C97 H95 0.959 . S
C97 H96 0.961 . S
C97 H98 0.960 . S
H98 C97 0.960 . S
H99 N79 0.862 . S
O100 Co68 1.920 1_655 S
O100 C73 1.289 . S
C101 O93 1.258 . S
C101 O94 1.266 . S
Co102 O105 1.970 . S
Co102 N119 1.998 . S
Co102 O127 1.967 . S
Co102 O134 1.920 1_545 S
Co103 O106 1.966 . S
Co103 N112 2.022 . S
Co103 N120 1.993 . S
Co103 O128 1.941 . S
C104 O105 1.258 . S
C104 O106 1.263 . S
O105 Co102 1.970 . S
O105 C104 1.258 . S
O106 Co103 1.966 . S
O106 C104 1.263 . S
C107 O108 1.235 . S
C107 O134 1.289 . S
O108 C107 1.235 . S
C109 C111 1.400 . S
C109 N112 1.351 . S
C109 C114 1.501 . S
C110 C111 1.387 . S
C110 N113 1.341 . S
C111 C109 1.400 . S
C111 C110 1.387 . S
N112 Co103 2.022 . S
N112 C109 1.351 . S
N112 N113 1.365 . S
N113 C110 1.341 . S
N113 N112 1.365 . S
N113 H133 0.862 . S
C114 C109 1.501 . S
C114 H115 0.961 . S
C114 H116 0.961 . S
C114 H117 0.960 . S
H115 C114 0.961 . S
H116 C114 0.961 . S
H117 C114 0.960 . S
C118 N119 1.312 1_565 S
C118 C122 1.401 . S
C118 C123 1.499 . S
N119 Co102 1.998 . S
N119 C118 1.312 1_545 S
N119 N120 1.413 . S
N120 Co103 1.993 . S
N120 N119 1.413 . S
N120 C121 1.346 . S
C121 N120 1.346 . S
C121 C122 1.396 1_545 S
C121 C131 1.510 . S
C122 C118 1.401 . S
C122 C121 1.396 1_565 S
C123 C118 1.499 . S
C123 H124 0.959 . S
C123 H125 0.960 . S
C123 H126 0.961 . S
H124 C123 0.959 . S
H125 C123 0.960 . S
H126 C123 0.961 . S
O127 Co102 1.967 . S
O127 C135 1.258 . S
O128 Co103 1.941 . S
O128 C135 1.266 . S
H129 C131 0.959 . S
H130 C131 0.961 . S
C131 C121 1.510 . S
C131 H129 0.959 . S
C131 H130 0.961 . S
C131 H132 0.960 . S
H132 C131 0.960 . S
H133 N113 0.862 . S
O134 Co102 1.920 1_565 S
O134 C107 1.289 . S
C135 O127 1.258 . S
C135 O128 1.266 . S
Co136 O139 1.970 1_455 S
Co136 N153 1.989 . S
Co136 O161 1.967 . S
Co136 O168 1.920 . S
Co137 O140 1.966 . S
Co137 N146 2.022 . S
Co137 N154 1.993 1_655 S
Co137 O162 1.941 . S
C138 O139 1.258 . S
C138 O140 1.263 . S
O139 Co136 1.970 1_655 S
O139 C138 1.258 . S
O140 Co137 1.966 . S
O140 C138 1.263 . S
C141 O142 1.235 . S
C141 O168 1.289 . S
O142 C141 1.235 . S
C143 C145 1.400 . S
C143 N146 1.351 . S
C143 C148 1.501 . S
C144 C145 1.387 . S
C144 N147 1.341 . S
C145 C143 1.400 . S
C145 C144 1.387 . S
N146 Co137 2.022 . S
N146 C143 1.351 . S
N146 N147 1.365 . S
N147 C144 1.341 . S
N147 N146 1.365 . S
N147 H167 0.862 . S
C148 C143 1.501 . S
C148 H149 0.961 . S
C148 H150 0.961 . S
C148 H151 0.960 . S
H149 C148 0.961 . S
H150 C148 0.961 . S
H151 C148 0.960 . S
C152 N153 1.342 . S
C152 C156 1.401 . S
C152 C157 1.499 . S
N153 Co136 1.989 . S
N153 C152 1.342 . S
N153 N154 1.388 . S
N154 Co137 1.993 1_455 S
N154 N153 1.388 . S
N154 C155 1.346 . S
C155 N154 1.346 . S
C155 C156 1.396 . S
C155 C165 1.510 . S
C156 C152 1.401 . S
C156 C155 1.396 . S
C157 C152 1.499 . S
C157 H158 0.959 . S
C157 H159 0.960 . S
C157 H160 0.961 . S
H158 C157 0.959 . S
H159 C157 0.960 . S
H160 C157 0.961 . S
O161 Co136 1.967 . S
O161 C169 1.258 . S
O162 Co137 1.941 . S
O162 C169 1.266 1_655 S
H163 C165 0.959 . S
H164 C165 0.961 . S
C165 C155 1.510 . S
C165 H163 0.959 . S
C165 H164 0.961 . S
C165 H166 0.960 1_455 S
H166 C165 0.960 1_655 S
H167 N147 0.862 . S
O168 Co136 1.920 . S
O168 C141 1.289 . S
C169 O161 1.258 . S
C169 O162 1.266 1_455 S
Co170 O173 1.970 1_545 S
Co170 N187 1.989 . S
Co170 O195 1.967 . S
Co170 O202 1.920 . S
Co171 O174 1.966 . S
Co171 N180 2.022 . S
Co171 N188 1.993 1_565 S
Co171 O196 1.941 . S
C172 O173 1.258 . S
C172 O174 1.263 . S
O173 Co170 1.970 1_565 S
O173 C172 1.258 . S
O174 Co171 1.966 . S
O174 C172 1.263 . S
C175 O176 1.235 . S
C175 O202 1.289 . S
O176 C175 1.235 . S
C177 C179 1.400 . S
C177 N180 1.351 . S
C177 C182 1.501 . S
C178 C179 1.387 . S
C178 N181 1.341 . S
C179 C177 1.400 . S
C179 C178 1.387 . S
N180 Co171 2.022 . S
N180 C177 1.351 . S
N180 N181 1.365 . S
N181 C178 1.341 . S
N181 N180 1.365 . S
N181 H201 0.862 . S
C182 C177 1.501 . S
C182 H183 0.961 . S
C182 H184 0.961 . S
C182 H185 0.960 . S
H183 C182 0.961 . S
H184 C182 0.961 . S
H185 C182 0.960 . S
C186 N187 1.342 . S
C186 C190 1.401 . S
C186 C191 1.499 . S
N187 Co170 1.989 . S
N187 C186 1.342 . S
N187 N188 1.388 . S
N188 Co171 1.993 1_545 S
N188 N187 1.388 . S
N188 C189 1.346 . S
C189 N188 1.346 . S
C189 C190 1.396 . S
C189 C199 1.510 . S
C190 C186 1.401 . S
C190 C189 1.396 . S
C191 C186 1.499 . S
C191 H192 0.959 . S
C191 H193 0.960 . S
C191 H194 0.961 . S
H192 C191 0.959 . S
H193 C191 0.960 . S
H194 C191 0.961 . S
O195 Co170 1.967 . S
O195 C203 1.258 . S
O196 Co171 1.941 . S
O196 C203 1.266 1_565 S
H197 C199 0.959 . S
H198 C199 0.961 . S
C199 C189 1.510 . S
C199 H197 0.959 . S
C199 H198 0.961 . S
C199 H200 0.960 1_545 S
H200 C199 0.960 1_565 S
H201 N181 0.862 . S
O202 Co170 1.920 . S
O202 C175 1.289 . S
C203 O195 1.258 . S
C203 O196 1.266 1_545 S
Co204 O207 1.970 . S
Co204 N221 1.998 . S
Co204 O229 1.967 . S
Co204 O236 1.920 1_455 S
Co205 O208 1.966 . S
Co205 N214 2.022 . S
Co205 N222 1.993 . S
Co205 O230 1.941 . S
C206 O207 1.258 . S
C206 O208 1.263 . S
O207 Co204 1.970 . S
O207 C206 1.258 . S
O208 Co205 1.966 . S
O208 C206 1.263 . S
C209 O210 1.235 . S
C209 O236 1.289 . S
O210 C209 1.235 . S
C211 C213 1.400 . S
C211 N214 1.351 . S
C211 C216 1.501 . S
C212 C213 1.387 . S
C212 N215 1.341 . S
C213 C211 1.400 . S
C213 C212 1.387 . S
N214 Co205 2.022 . S
N214 C211 1.351 . S
N214 N215 1.365 . S
N215 C212 1.341 . S
N215 N214 1.365 . S
N215 H235 0.862 . S
C216 C211 1.501 . S
C216 H217 0.961 . S
C216 H218 0.961 . S
C216 H219 0.960 . S
H217 C216 0.961 . S
H218 C216 0.961 . S
H219 C216 0.960 . S
C220 N221 1.313 1_655 S
C220 C224 1.401 . S
C220 C225 1.499 . S
N221 Co204 1.998 . S
N221 C220 1.313 1_455 S
N221 N222 1.413 . S
N222 Co205 1.993 . S
N222 N221 1.413 . S
N222 C223 1.346 . S
C223 N222 1.346 . S
C223 C224 1.396 1_455 S
C223 C233 1.510 . S
C224 C220 1.401 . S
C224 C223 1.396 1_655 S
C225 C220 1.499 . S
C225 H226 0.959 . S
C225 H227 0.960 . S
C225 H228 0.961 . S
H226 C225 0.959 . S
H227 C225 0.960 . S
H228 C225 0.961 . S
O229 Co204 1.967 . S
O229 C237 1.258 . S
O230 Co205 1.941 . S
O230 C237 1.266 . S
H231 C233 0.959 . S
H232 C233 0.961 . S
C233 C223 1.510 . S
C233 H231 0.959 . S
C233 H232 0.961 . S
C233 H234 0.960 . S
H234 C233 0.960 . S
H235 N215 0.862 . S
O236 Co204 1.920 1_655 S
O236 C209 1.289 . S
C237 O229 1.258 . S
C237 O230 1.266 . S
Co238 O241 1.970 . S
Co238 N255 1.998 . S
Co238 O263 1.967 . S
Co238 O270 1.920 1_545 S
Co239 O242 1.966 . S
Co239 N248 2.022 . S
Co239 N256 1.993 . S
Co239 O264 1.941 . S
C240 O241 1.258 . S
C240 O242 1.263 . S
O241 Co238 1.970 . S
O241 C240 1.258 . S
O242 Co239 1.966 . S
O242 C240 1.263 . S
C243 O244 1.235 . S
C243 O270 1.289 . S
O244 C243 1.235 . S
C245 C247 1.400 . S
C245 N248 1.351 . S
C245 C250 1.501 . S
C246 C247 1.387 . S
C246 N249 1.341 . S
C247 C245 1.400 . S
C247 C246 1.387 . S
N248 Co239 2.022 . S
N248 C245 1.351 . S
N248 N249 1.365 . S
N249 C246 1.341 . S
N249 N248 1.365 . S
N249 H269 0.862 . S
C250 C245 1.501 . S
C250 H251 0.961 . S
C250 H252 0.961 . S
C250 H253 0.960 . S
H251 C250 0.961 . S
H252 C250 0.961 . S
H253 C250 0.960 . S
C254 N255 1.313 1_565 S
C254 C258 1.401 . S
C254 C259 1.499 . S
N255 Co238 1.998 . S
N255 C254 1.313 1_545 S
N255 N256 1.413 . S
N256 Co239 1.993 . S
N256 N255 1.413 . S
N256 C257 1.346 . S
C257 N256 1.346 . S
C257 C258 1.396 1_545 S
C257 C267 1.510 . S
C258 C254 1.401 . S
C258 C257 1.396 1_565 S
C259 C254 1.499 . S
C259 H260 0.959 . S
C259 H261 0.960 . S
C259 H262 0.961 . S
H260 C259 0.959 . S
H261 C259 0.960 . S
H262 C259 0.961 . S
O263 Co238 1.967 . S
O263 C271 1.258 . S
O264 Co239 1.941 . S
O264 C271 1.266 . S
H265 C267 0.959 . S
H266 C267 0.961 . S
C267 C257 1.510 . S
C267 H265 0.959 . S
C267 H266 0.961 . S
C267 H268 0.960 . S
H268 C267 0.960 . S
H269 N249 0.862 . S
O270 Co238 1.920 1_565 S
O270 C243 1.289 . S
C271 O263 1.258 . S
C271 O264 1.266 . S
Co272 O275 1.970 1_545 S
Co272 N289 1.989 . S
Co272 O297 1.967 . S
Co272 O304 1.920 . S
Co273 O276 1.966 . S
Co273 N282 2.022 . S
Co273 N290 1.993 1_565 S
Co273 O298 1.941 . S
C274 O275 1.258 . S
C274 O276 1.263 . S
O275 Co272 1.970 1_565 S
O275 C274 1.258 . S
O276 Co273 1.966 . S
O276 C274 1.263 . S
C277 O278 1.235 . S
C277 O304 1.289 . S
O278 C277 1.235 . S
C279 C281 1.400 . S
C279 N282 1.351 . S
C279 C284 1.501 . S
C280 C281 1.387 . S
C280 N283 1.341 . S
C281 C279 1.400 . S
C281 C280 1.387 . S
N282 Co273 2.022 . S
N282 C279 1.351 . S
N282 N283 1.365 . S
N283 C280 1.341 . S
N283 N282 1.365 . S
N283 H303 0.862 . S
C284 C279 1.501 . S
C284 H285 0.961 . S
C284 H286 0.961 . S
C284 H287 0.960 . S
H285 C284 0.961 . S
H286 C284 0.961 . S
H287 C284 0.960 . S
C288 N289 1.342 . S
C288 C292 1.401 . S
C288 C293 1.499 . S
N289 Co272 1.989 . S
N289 C288 1.342 . S
N289 N290 1.388 . S
N290 Co273 1.993 1_545 S
N290 N289 1.388 . S
N290 C291 1.346 . S
C291 N290 1.346 . S
C291 C292 1.396 . S
C291 C301 1.510 . S
C292 C288 1.401 . S
C292 C291 1.396 . S
C293 C288 1.499 . S
C293 H294 0.959 . S
C293 H295 0.960 . S
C293 H296 0.961 . S
H294 C293 0.959 . S
H295 C293 0.960 . S
H296 C293 0.961 . S
O297 Co272 1.967 . S
O297 C305 1.258 . S
O298 Co273 1.941 . S
O298 C305 1.266 1_565 S
H299 C301 0.959 . S
H300 C301 0.961 . S
C301 C291 1.510 . S
C301 H299 0.959 . S
C301 H300 0.961 . S
C301 H302 0.960 1_545 S
H302 C301 0.960 1_565 S
H303 N283 0.862 . S
O304 Co272 1.920 . S
O304 C277 1.289 . S
C305 O297 1.258 . S
C305 O298 1.266 1_545 S
Co306 O309 1.970 . S
Co306 N323 1.998 . S
Co306 O331 1.967 . S
Co306 O338 1.920 1_455 S
Co307 O310 1.966 . S
Co307 N316 2.022 . S
Co307 N324 1.993 . S
Co307 O332 1.941 . S
C308 O309 1.258 . S
C308 O310 1.263 . S
O309 Co306 1.970 . S
O309 C308 1.258 . S
O310 Co307 1.966 . S
O310 C308 1.263 . S
C311 O312 1.235 . S
C311 O338 1.289 . S
O312 C311 1.235 . S
C313 C315 1.400 . S
C313 N316 1.351 . S
C313 C318 1.501 . S
C314 C315 1.387 . S
C314 N317 1.341 . S
C315 C313 1.400 . S
C315 C314 1.387 . S
N316 Co307 2.022 . S
N316 C313 1.351 . S
N316 N317 1.365 . S
N317 C314 1.341 . S
N317 N316 1.365 . S
N317 H337 0.862 . S
C318 C313 1.501 . S
C318 H319 0.961 . S
C318 H320 0.961 . S
C318 H321 0.960 . S
H319 C318 0.961 . S
H320 C318 0.961 . S
H321 C318 0.960 . S
C322 N323 1.312 1_655 S
C322 C326 1.401 . S
C322 C327 1.499 . S
N323 Co306 1.998 . S
N323 C322 1.312 1_455 S
N323 N324 1.413 . S
N324 Co307 1.993 . S
N324 N323 1.413 . S
N324 C325 1.346 . S
C325 N324 1.346 . S
C325 C326 1.396 1_455 S
C325 C335 1.510 . S
C326 C322 1.401 . S
C326 C325 1.396 1_655 S
C327 C322 1.499 . S
C327 H328 0.959 . S
C327 H329 0.960 . S
C327 H330 0.961 . S
H328 C327 0.959 . S
H329 C327 0.960 . S
H330 C327 0.961 . S
O331 Co306 1.967 . S
O331 C339 1.258 . S
O332 Co307 1.941 . S
O332 C339 1.266 . S
H333 C335 0.959 . S
H334 C335 0.961 . S
C335 C325 1.510 . S
C335 H333 0.959 . S
C335 H334 0.961 . S
C335 H336 0.960 . S
H336 C335 0.960 . S
H337 N317 0.862 . S
O338 Co306 1.920 1_655 S
O338 C311 1.289 . S
C339 O331 1.258 . S
C339 O332 1.266 . S
Co340 O343 1.970 . S
Co340 N357 1.998 . S
Co340 O365 1.967 . S
Co340 O372 1.920 1_545 S
Co341 O344 1.966 . S
Co341 N350 2.022 . S
Co341 N358 1.993 . S
Co341 O366 1.941 . S
C342 O343 1.258 . S
C342 O344 1.263 . S
O343 Co340 1.970 . S
O343 C342 1.258 . S
O344 Co341 1.966 . S
O344 C342 1.263 . S
C345 O346 1.235 . S
C345 O372 1.289 . S
O346 C345 1.235 . S
C347 C349 1.400 . S
C347 N350 1.351 . S
C347 C352 1.501 . S
C348 C349 1.387 . S
C348 N351 1.341 . S
C349 C347 1.400 . S
C349 C348 1.387 . S
N350 Co341 2.022 . S
N350 C347 1.351 . S
N350 N351 1.365 . S
N351 C348 1.341 . S
N351 N350 1.365 . S
N351 H371 0.862 . S
C352 C347 1.501 . S
C352 H353 0.961 . S
C352 H354 0.961 . S
C352 H355 0.960 . S
H353 C352 0.961 . S
H354 C352 0.961 . S
H355 C352 0.960 . S
C356 N357 1.313 1_565 S
C356 C360 1.401 . S
C356 C361 1.499 . S
N357 Co340 1.998 . S
N357 C356 1.313 1_545 S
N357 N358 1.413 . S
N358 Co341 1.993 . S
N358 N357 1.413 . S
N358 C359 1.346 . S
C359 N358 1.346 . S
C359 C360 1.396 1_545 S
C359 C369 1.510 . S
C360 C356 1.401 . S
C360 C359 1.396 1_565 S
C361 C356 1.499 . S
C361 H362 0.959 . S
C361 H363 0.960 . S
C361 H364 0.961 . S
H362 C361 0.959 . S
H363 C361 0.960 . S
H364 C361 0.961 . S
O365 Co340 1.967 . S
O365 C373 1.258 . S
O366 Co341 1.941 . S
O366 C373 1.266 . S
H367 C369 0.959 . S
H368 C369 0.961 . S
C369 C359 1.510 . S
C369 H367 0.959 . S
C369 H368 0.961 . S
C369 H370 0.960 . S
H370 C369 0.960 . S
H371 N351 0.862 . S
O372 Co340 1.920 1_565 S
O372 C345 1.289 . S
C373 O365 1.258 . S
C373 O366 1.266 . S
Co374 O377 1.970 1_455 S
Co374 N391 1.989 . S
Co374 O399 1.967 . S
Co374 O406 1.920 . S
Co375 O378 1.966 . S
Co375 N384 2.022 . S
Co375 N392 1.993 1_655 S
Co375 O400 1.941 . S
C376 O377 1.258 . S
C376 O378 1.263 . S
O377 Co374 1.970 1_655 S
O377 C376 1.258 . S
O378 Co375 1.966 . S
O378 C376 1.263 . S
C379 O380 1.235 . S
C379 O406 1.289 . S
O380 C379 1.235 . S
C381 C383 1.400 . S
C381 N384 1.351 . S
C381 C386 1.501 . S
C382 C383 1.387 . S
C382 N385 1.341 . S
C383 C381 1.400 . S
C383 C382 1.387 . S
N384 Co375 2.022 . S
N384 C381 1.351 . S
N384 N385 1.365 . S
N385 C382 1.341 . S
N385 N384 1.365 . S
N385 H405 0.862 . S
C386 C381 1.501 . S
C386 H387 0.961 . S
C386 H388 0.961 . S
C386 H389 0.960 . S
H387 C386 0.961 . S
H388 C386 0.961 . S
H389 C386 0.960 . S
C390 N391 1.342 . S
C390 C394 1.401 . S
C390 C395 1.499 . S
N391 Co374 1.989 . S
N391 C390 1.342 . S
N391 N392 1.388 . S
N392 Co375 1.993 1_455 S
N392 N391 1.388 . S
N392 C393 1.346 . S
C393 N392 1.346 . S
C393 C394 1.396 . S
C393 C403 1.510 . S
C394 C390 1.401 . S
C394 C393 1.396 . S
C395 C390 1.499 . S
C395 H396 0.959 . S
C395 H397 0.960 . S
C395 H398 0.961 . S
H396 C395 0.959 . S
H397 C395 0.960 . S
H398 C395 0.961 . S
O399 Co374 1.967 . S
O399 C407 1.258 . S
O400 Co375 1.941 . S
O400 C407 1.266 1_655 S
H401 C403 0.959 . S
H402 C403 0.961 . S
C403 C393 1.510 . S
C403 H401 0.959 . S
C403 H402 0.961 . S
C403 H404 0.960 1_455 S
H404 C403 0.960 1_655 S
H405 N385 0.862 . S
O406 Co374 1.920 . S
O406 C379 1.289 . S
C407 O399 1.258 . S
C407 O400 1.266 1_455 S
Co408 O411 1.970 . S
Co408 N425 1.998 . S
Co408 O433 1.967 . S
Co408 O440 1.920 1_545 S
Co409 O412 1.966 . S
Co409 N418 2.022 . S
Co409 N426 1.993 . S
Co409 O434 1.941 . S
C410 O411 1.258 . S
C410 O412 1.263 . S
O411 Co408 1.970 . S
O411 C410 1.258 . S
O412 Co409 1.966 . S
O412 C410 1.263 . S
C413 O414 1.235 . S
C413 O440 1.289 . S
O414 C413 1.235 . S
C415 C417 1.400 . S
C415 N418 1.351 . S
C415 C420 1.501 . S
C416 C417 1.387 . S
C416 N419 1.341 . S
C417 C415 1.400 . S
C417 C416 1.387 . S
N418 Co409 2.022 . S
N418 C415 1.351 . S
N418 N419 1.365 . S
N419 C416 1.341 . S
N419 N418 1.365 . S
N419 H439 0.862 . S
C420 C415 1.501 . S
C420 H421 0.961 . S
C420 H422 0.961 . S
C420 H423 0.960 . S
H421 C420 0.961 . S
H422 C420 0.961 . S
H423 C420 0.960 . S
C424 N425 1.312 1_565 S
C424 C428 1.401 . S
C424 C429 1.499 . S
N425 Co408 1.998 . S
N425 C424 1.312 1_545 S
N425 N426 1.413 . S
N426 Co409 1.993 . S
N426 N425 1.413 . S
N426 C427 1.346 . S
C427 N426 1.346 . S
C427 C428 1.396 1_545 S
C427 C437 1.510 . S
C428 C424 1.401 . S
C428 C427 1.396 1_565 S
C429 C424 1.499 . S
C429 H430 0.959 . S
C429 H431 0.960 . S
C429 H432 0.961 . S
H430 C429 0.959 . S
H431 C429 0.960 . S
H432 C429 0.961 . S
O433 Co408 1.967 . S
O433 C441 1.258 . S
O434 Co409 1.941 . S
O434 C441 1.266 . S
H435 C437 0.959 . S
H436 C437 0.961 . S
C437 C427 1.510 . S
C437 H435 0.959 . S
C437 H436 0.961 . S
C437 H438 0.960 . S
H438 C437 0.960 . S
H439 N419 0.862 . S
O440 Co408 1.920 1_565 S
O440 C413 1.289 . S
C441 O433 1.258 . S
C441 O434 1.266 . S
Co442 O445 1.970 1_455 S
Co442 N459 1.989 . S
Co442 O467 1.967 . S
Co442 O474 1.920 . S
Co443 O446 1.966 . S
Co443 N452 2.022 . S
Co443 N460 1.993 1_655 S
Co443 O468 1.941 . S
C444 O445 1.258 . S
C444 O446 1.263 . S
O445 Co442 1.970 1_655 S
O445 C444 1.258 . S
O446 Co443 1.966 . S
O446 C444 1.263 . S
C447 O448 1.235 . S
C447 O474 1.289 . S
O448 C447 1.235 . S
C449 C451 1.400 . S
C449 N452 1.351 . S
C449 C454 1.501 . S
C450 C451 1.387 . S
C450 N453 1.341 . S
C451 C449 1.400 . S
C451 C450 1.387 . S
N452 Co443 2.022 . S
N452 C449 1.351 . S
N452 N453 1.365 . S
N453 C450 1.341 . S
N453 N452 1.365 . S
N453 H473 0.862 . S
C454 C449 1.501 . S
C454 H455 0.961 . S
C454 H456 0.961 . S
C454 H457 0.960 . S
H455 C454 0.961 . S
H456 C454 0.961 . S
H457 C454 0.960 . S
C458 N459 1.342 . S
C458 C462 1.401 . S
C458 C463 1.499 . S
N459 Co442 1.989 . S
N459 C458 1.342 . S
N459 N460 1.388 . S
N460 Co443 1.993 1_455 S
N460 N459 1.388 . S
N460 C461 1.346 . S
C461 N460 1.346 . S
C461 C462 1.396 . S
C461 C471 1.510 . S
C462 C458 1.401 . S
C462 C461 1.396 . S
C463 C458 1.499 . S
C463 H464 0.959 . S
C463 H465 0.960 . S
C463 H466 0.961 . S
H464 C463 0.959 . S
H465 C463 0.960 . S
H466 C463 0.961 . S
O467 Co442 1.967 . S
O467 C475 1.258 . S
O468 Co443 1.941 . S
O468 C475 1.266 1_655 S
H469 C471 0.959 . S
H470 C471 0.961 . S
C471 C461 1.510 . S
C471 H469 0.959 . S
C471 H470 0.961 . S
C471 H472 0.960 1_455 S
H472 C471 0.960 1_655 S
H473 N453 0.862 . S
O474 Co442 1.920 . S
O474 C447 1.289 . S
C475 O467 1.258 . S
C475 O468 1.266 1_455 S
Co476 O479 1.970 1_545 S
Co476 N493 1.989 . S
Co476 O501 1.967 . S
Co476 O508 1.920 . S
Co477 O480 1.966 . S
Co477 N486 2.022 . S
Co477 N494 1.993 1_565 S
Co477 O502 1.941 . S
C478 O479 1.258 . S
C478 O480 1.263 . S
O479 Co476 1.970 1_565 S
O479 C478 1.258 . S
O480 Co477 1.966 . S
O480 C478 1.263 . S
C481 O482 1.235 . S
C481 O508 1.289 . S
O482 C481 1.235 . S
C483 C485 1.400 . S
C483 N486 1.351 . S
C483 C488 1.501 . S
C484 C485 1.387 . S
C484 N487 1.341 . S
C485 C483 1.400 . S
C485 C484 1.387 . S
N486 Co477 2.022 . S
N486 C483 1.351 . S
N486 N487 1.365 . S
N487 C484 1.341 . S
N487 N486 1.365 . S
N487 H507 0.862 . S
C488 C483 1.501 . S
C488 H489 0.961 . S
C488 H490 0.961 . S
C488 H491 0.960 . S
H489 C488 0.961 . S
H490 C488 0.961 . S
H491 C488 0.960 . S
C492 N493 1.342 . S
C492 C496 1.401 . S
C492 C497 1.499 . S
N493 Co476 1.989 . S
N493 C492 1.342 . S
N493 N494 1.388 . S
N494 Co477 1.993 1_545 S
N494 N493 1.388 . S
N494 C495 1.346 . S
C495 N494 1.346 . S
C495 C496 1.396 . S
C495 C505 1.510 . S
C496 C492 1.401 . S
C496 C495 1.396 . S
C497 C492 1.499 . S
C497 H498 0.959 . S
C497 H499 0.960 . S
C497 H500 0.961 . S
H498 C497 0.959 . S
H499 C497 0.960 . S
H500 C497 0.961 . S
O501 Co476 1.967 . S
O501 C509 1.258 . S
O502 Co477 1.941 . S
O502 C509 1.266 1_565 S
H503 C505 0.959 . S
H504 C505 0.961 . S
C505 C495 1.510 . S
C505 H503 0.959 . S
C505 H504 0.961 . S
C505 H506 0.960 1_545 S
H506 C505 0.960 1_565 S
H507 N487 0.862 . S
O508 Co476 1.920 . S
O508 C481 1.289 . S
C509 O501 1.258 . S
C509 O502 1.266 1_545 S
Co510 O513 1.970 . S
Co510 N527 1.998 . S
Co510 O535 1.967 . S
Co510 O542 1.920 1_455 S
Co511 O514 1.966 . S
Co511 N520 2.022 . S
Co511 N528 1.993 . S
Co511 O536 1.941 . S
C512 O513 1.258 . S
C512 O514 1.263 . S
O513 Co510 1.970 . S
O513 C512 1.258 . S
O514 Co511 1.966 . S
O514 C512 1.263 . S
C515 O516 1.235 . S
C515 O542 1.289 . S
O516 C515 1.235 . S
C517 C519 1.400 . S
C517 N520 1.351 . S
C517 C522 1.501 . S
C518 C519 1.387 . S
C518 N521 1.341 . S
C519 C517 1.400 . S
C519 C518 1.387 . S
N520 Co511 2.022 . S
N520 C517 1.351 . S
N520 N521 1.365 . S
N521 C518 1.341 . S
N521 N520 1.365 . S
N521 H541 0.862 . S
C522 C517 1.501 . S
C522 H523 0.961 . S
C522 H524 0.961 . S
C522 H525 0.960 . S
H523 C522 0.961 . S
H524 C522 0.961 . S
H525 C522 0.960 . S
C526 N527 1.313 1_655 S
C526 C530 1.401 . S
C526 C531 1.499 . S
N527 Co510 1.998 . S
N527 C526 1.313 1_455 S
N527 N528 1.413 . S
N528 Co511 1.993 . S
N528 N527 1.413 . S
N528 C529 1.346 . S
C529 N528 1.346 . S
C529 C530 1.396 1_455 S
C529 C539 1.510 . S
C530 C526 1.401 . S
C530 C529 1.396 1_655 S
C531 C526 1.499 . S
C531 H532 0.959 . S
C531 H533 0.960 . S
C531 H534 0.961 . S
H532 C531 0.959 . S
H533 C531 0.960 . S
H534 C531 0.961 . S
O535 Co510 1.967 . S
O535 C543 1.258 . S
O536 Co511 1.941 . S
O536 C543 1.266 . S
H537 C539 0.959 . S
H538 C539 0.961 . S
C539 C529 1.510 . S
C539 H537 0.959 . S
C539 H538 0.961 . S
C539 H540 0.960 . S
H540 C539 0.960 . S
H541 N521 0.862 . S
O542 Co510 1.920 1_655 S
O542 C515 1.289 . S
C543 O535 1.258 . S
C543 O536 1.266 . S
Co544 O547 1.970 1_554 S
Co544 N561 1.989 . S
Co544 O569 1.967 . S
Co544 O576 1.920 . S
Co545 O548 1.966 . S
Co545 N554 2.022 . S
Co545 N562 1.993 1_556 S
Co545 O570 1.941 . S
C546 O547 1.258 . S
C546 O548 1.263 . S
O547 Co544 1.970 1_556 S
O547 C546 1.258 . S
O548 Co545 1.966 . S
O548 C546 1.263 . S
C549 O550 1.235 . S
C549 O576 1.289 . S
O550 C549 1.235 . S
C551 C553 1.400 . S
C551 N554 1.351 . S
C551 C556 1.501 . S
C552 C553 1.387 . S
C552 N555 1.341 . S
C553 C551 1.400 . S
C553 C552 1.387 . S
N554 Co545 2.022 . S
N554 C551 1.351 . S
N554 N555 1.365 . S
N555 C552 1.341 . S
N555 N554 1.365 . S
N555 H575 0.862 . S
C556 C551 1.501 . S
C556 H557 0.961 . S
C556 H558 0.961 . S
C556 H559 0.960 . S
H557 C556 0.961 . S
H558 C556 0.961 . S
H559 C556 0.960 . S
C560 N561 1.342 . S
C560 C564 1.401 . S
C560 C565 1.499 . S
N561 Co544 1.989 . S
N561 C560 1.342 . S
N561 N562 1.388 . S
N562 Co545 1.993 1_554 S
N562 N561 1.388 . S
N562 C563 1.346 . S
C563 N562 1.346 . S
C563 C564 1.396 . S
C563 C573 1.510 . S
C564 C560 1.401 . S
C564 C563 1.396 . S
C565 C560 1.499 . S
C565 H566 0.959 . S
C565 H567 0.960 . S
C565 H568 0.961 . S
H566 C565 0.959 . S
H567 C565 0.960 . S
H568 C565 0.961 . S
O569 Co544 1.967 . S
O569 C577 1.258 . S
O570 Co545 1.941 . S
O570 C577 1.266 1_556 S
H571 C573 0.959 . S
H572 C573 0.961 . S
C573 C563 1.510 . S
C573 H571 0.959 . S
C573 H572 0.961 . S
C573 H574 0.960 1_554 S
H574 C573 0.960 1_556 S
H575 N555 0.862 . S
O576 Co544 1.920 . S
O576 C549 1.289 . S
C577 O569 1.258 . S
C577 O570 1.266 1_554 S
Co578 O581 1.970 . S
Co578 N595 1.998 . S
Co578 O603 1.967 . S
Co578 O610 1.920 1_554 S
Co579 O582 1.966 . S
Co579 N588 2.022 . S
Co579 N596 1.993 . S
Co579 O604 1.941 . S
C580 O581 1.258 . S
C580 O582 1.263 . S
O581 Co578 1.970 . S
O581 C580 1.258 . S
O582 Co579 1.966 . S
O582 C580 1.263 . S
C583 O584 1.235 . S
C583 O610 1.289 . S
O584 C583 1.235 . S
C585 C587 1.400 . S
C585 N588 1.351 . S
C585 C590 1.501 . S
C586 C587 1.387 . S
C586 N589 1.341 . S
C587 C585 1.400 . S
C587 C586 1.387 . S
N588 Co579 2.022 . S
N588 C585 1.351 . S
N588 N589 1.365 . S
N589 C586 1.341 . S
N589 N588 1.365 . S
N589 H609 0.862 . S
C590 C585 1.501 . S
C590 H591 0.961 . S
C590 H592 0.961 . S
C590 H593 0.960 . S
H591 C590 0.961 . S
H592 C590 0.961 . S
H593 C590 0.960 . S
C594 N595 1.313 1_556 S
C594 C598 1.401 . S
C594 C599 1.499 . S
N595 Co578 1.998 . S
N595 C594 1.313 1_554 S
N595 N596 1.413 . S
N596 Co579 1.993 . S
N596 N595 1.413 . S
N596 C597 1.346 . S
C597 N596 1.346 . S
C597 C598 1.396 1_554 S
C597 C607 1.510 . S
C598 C594 1.401 . S
C598 C597 1.396 1_556 S
C599 C594 1.499 . S
C599 H600 0.959 . S
C599 H601 0.960 . S
C599 H602 0.961 . S
H600 C599 0.959 . S
H601 C599 0.960 . S
H602 C599 0.961 . S
O603 Co578 1.967 . S
O603 C611 1.258 . S
O604 Co579 1.941 . S
O604 C611 1.266 . S
H605 C607 0.959 . S
H606 C607 0.961 . S
C607 C597 1.510 . S
C607 H605 0.959 . S
C607 H606 0.961 . S
C607 H608 0.960 . S
H608 C607 0.960 . S
H609 N589 0.862 . S
O610 Co578 1.920 1_556 S
O610 C583 1.289 . S
C611 O603 1.258 . S
C611 O604 1.266 . S
Co612 O615 1.970 . S
Co612 N629 1.998 . S
Co612 O637 1.967 . S
Co612 O644 1.920 1_554 S
Co613 O616 1.966 . S
Co613 N622 2.022 . S
Co613 N630 1.993 . S
Co613 O638 1.941 . S
C614 O615 1.258 . S
C614 O616 1.263 . S
O615 Co612 1.970 . S
O615 C614 1.258 . S
O616 Co613 1.966 . S
O616 C614 1.263 . S
C617 O618 1.235 . S
C617 O644 1.289 . S
O618 C617 1.235 . S
C619 C621 1.400 . S
C619 N622 1.351 . S
C619 C624 1.501 . S
C620 C621 1.387 . S
C620 N623 1.341 . S
C621 C619 1.400 . S
C621 C620 1.387 . S
N622 Co613 2.022 . S
N622 C619 1.351 . S
N622 N623 1.365 . S
N623 C620 1.341 . S
N623 N622 1.365 . S
N623 H643 0.862 . S
C624 C619 1.501 . S
C624 H625 0.961 . S
C624 H626 0.961 . S
C624 H627 0.960 . S
H625 C624 0.961 . S
H626 C624 0.961 . S
H627 C624 0.960 . S
C628 N629 1.312 1_556 S
C628 C632 1.401 . S
C628 C633 1.499 . S
N629 Co612 1.998 . S
N629 C628 1.312 1_554 S
N629 N630 1.413 . S
N630 Co613 1.993 . S
N630 N629 1.413 . S
N630 C631 1.346 . S
C631 N630 1.346 . S
C631 C632 1.396 1_554 S
C631 C641 1.510 . S
C632 C628 1.401 . S
C632 C631 1.396 1_556 S
C633 C628 1.499 . S
C633 H634 0.959 . S
C633 H635 0.960 . S
C633 H636 0.961 . S
H634 C633 0.959 . S
H635 C633 0.960 . S
H636 C633 0.961 . S
O637 Co612 1.967 . S
O637 C645 1.258 . S
O638 Co613 1.941 . S
O638 C645 1.266 . S
H639 C641 0.959 . S
H640 C641 0.961 . S
C641 C631 1.510 . S
C641 H639 0.959 . S
C641 H640 0.961 . S
C641 H642 0.960 . S
H642 C641 0.960 . S
H643 N623 0.862 . S
O644 Co612 1.920 1_556 S
O644 C617 1.289 . S
C645 O637 1.258 . S
C645 O638 1.266 . S
Co646 O649 1.970 . S
Co646 N663 1.998 . S
Co646 O671 1.967 . S
Co646 O678 1.920 1_554 S
Co647 O650 1.966 . S
Co647 N656 2.022 . S
Co647 N664 1.993 . S
Co647 O672 1.941 . S
C648 O649 1.258 . S
C648 O650 1.263 . S
O649 Co646 1.970 . S
O649 C648 1.258 . S
O650 Co647 1.966 . S
O650 C648 1.263 . S
C651 O652 1.235 . S
C651 O678 1.289 . S
O652 C651 1.235 . S
C653 C655 1.400 . S
C653 N656 1.351 . S
C653 C658 1.501 . S
C654 C655 1.387 . S
C654 N657 1.341 . S
C655 C653 1.400 . S
C655 C654 1.387 . S
N656 Co647 2.022 . S
N656 C653 1.351 . S
N656 N657 1.365 . S
N657 C654 1.341 . S
N657 N656 1.365 . S
N657 H677 0.862 . S
C658 C653 1.501 . S
C658 H659 0.961 . S
C658 H660 0.961 . S
C658 H661 0.960 . S
H659 C658 0.961 . S
H660 C658 0.961 . S
H661 C658 0.960 . S
C662 N663 1.312 1_556 S
C662 C666 1.401 . S
C662 C667 1.499 . S
N663 Co646 1.998 . S
N663 C662 1.312 1_554 S
N663 N664 1.413 . S
N664 Co647 1.993 . S
N664 N663 1.413 . S
N664 C665 1.346 . S
C665 N664 1.346 . S
C665 C666 1.396 1_554 S
C665 C675 1.510 . S
C666 C662 1.401 . S
C666 C665 1.396 1_556 S
C667 C662 1.499 . S
C667 H668 0.959 . S
C667 H669 0.960 . S
C667 H670 0.961 . S
H668 C667 0.959 . S
H669 C667 0.960 . S
H670 C667 0.961 . S
O671 Co646 1.967 . S
O671 C679 1.258 . S
O672 Co647 1.941 . S
O672 C679 1.266 . S
H673 C675 0.959 . S
H674 C675 0.961 . S
C675 C665 1.510 . S
C675 H673 0.959 . S
C675 H674 0.961 . S
C675 H676 0.960 . S
H676 C675 0.960 . S
H677 N657 0.862 . S
O678 Co646 1.920 1_556 S
O678 C651 1.289 . S
C679 O671 1.258 . S
C679 O672 1.266 . S
Co680 O683 1.970 . S
Co680 N697 1.998 . S
Co680 O705 1.967 . S
Co680 O712 1.920 1_554 S
Co681 O684 1.966 . S
Co681 N690 2.022 . S
Co681 N698 1.993 . S
Co681 O706 1.941 . S
C682 O683 1.258 . S
C682 O684 1.263 . S
O683 Co680 1.970 . S
O683 C682 1.258 . S
O684 Co681 1.966 . S
O684 C682 1.263 . S
C685 O686 1.235 . S
C685 O712 1.289 . S
O686 C685 1.235 . S
C687 C689 1.400 . S
C687 N690 1.351 . S
C687 C692 1.501 . S
C688 C689 1.387 . S
C688 N691 1.341 . S
C689 C687 1.400 . S
C689 C688 1.387 . S
N690 Co681 2.022 . S
N690 C687 1.351 . S
N690 N691 1.365 . S
N691 C688 1.341 . S
N691 N690 1.365 . S
N691 H711 0.862 . S
C692 C687 1.501 . S
C692 H693 0.961 . S
C692 H694 0.961 . S
C692 H695 0.960 . S
H693 C692 0.961 . S
H694 C692 0.961 . S
H695 C692 0.960 . S
C696 N697 1.313 1_556 S
C696 C700 1.401 . S
C696 C701 1.499 . S
N697 Co680 1.998 . S
N697 C696 1.313 1_554 S
N697 N698 1.413 . S
N698 Co681 1.993 . S
N698 N697 1.413 . S
N698 C699 1.346 . S
C699 N698 1.346 . S
C699 C700 1.396 1_554 S
C699 C709 1.510 . S
C700 C696 1.401 . S
C700 C699 1.396 1_556 S
C701 C696 1.499 . S
C701 H702 0.959 . S
C701 H703 0.960 . S
C701 H704 0.961 . S
H702 C701 0.959 . S
H703 C701 0.960 . S
H704 C701 0.961 . S
O705 Co680 1.967 . S
O705 C713 1.258 . S
O706 Co681 1.941 . S
O706 C713 1.266 . S
H707 C709 0.959 . S
H708 C709 0.961 . S
C709 C699 1.510 . S
C709 H707 0.959 . S
C709 H708 0.961 . S
C709 H710 0.960 . S
H710 C709 0.960 . S
H711 N691 0.862 . S
O712 Co680 1.920 1_556 S
O712 C685 1.289 . S
C713 O705 1.258 . S
C713 O706 1.266 . S
Co714 O717 1.970 1_554 S
Co714 N731 1.989 . S
Co714 O739 1.967 . S
Co714 O746 1.920 . S
Co715 O718 1.966 . S
Co715 N724 2.022 . S
Co715 N732 1.993 1_556 S
Co715 O740 1.941 . S
C716 O717 1.258 . S
C716 O718 1.263 . S
O717 Co714 1.970 1_556 S
O717 C716 1.258 . S
O718 Co715 1.966 . S
O718 C716 1.263 . S
C719 O720 1.235 . S
C719 O746 1.289 . S
O720 C719 1.235 . S
C721 C723 1.400 . S
C721 N724 1.351 . S
C721 C726 1.501 . S
C722 C723 1.387 . S
C722 N725 1.341 . S
C723 C721 1.400 . S
C723 C722 1.387 . S
N724 Co715 2.022 . S
N724 C721 1.351 . S
N724 N725 1.365 . S
N725 C722 1.341 . S
N725 N724 1.365 . S
N725 H745 0.862 . S
C726 C721 1.501 . S
C726 H727 0.961 . S
C726 H728 0.961 . S
C726 H729 0.960 . S
H727 C726 0.961 . S
H728 C726 0.961 . S
H729 C726 0.960 . S
C730 N731 1.342 . S
C730 C734 1.401 . S
C730 C735 1.499 . S
N731 Co714 1.989 . S
N731 C730 1.342 . S
N731 N732 1.388 . S
N732 Co715 1.993 1_554 S
N732 N731 1.388 . S
N732 C733 1.346 . S
C733 N732 1.346 . S
C733 C734 1.396 . S
C733 C743 1.510 . S
C734 C730 1.401 . S
C734 C733 1.396 . S
C735 C730 1.499 . S
C735 H736 0.959 . S
C735 H737 0.960 . S
C735 H738 0.961 . S
H736 C735 0.959 . S
H737 C735 0.960 . S
H738 C735 0.961 . S
O739 Co714 1.967 . S
O739 C747 1.258 . S
O740 Co715 1.941 . S
O740 C747 1.266 1_556 S
H741 C743 0.959 . S
H742 C743 0.961 . S
C743 C733 1.510 . S
C743 H741 0.959 . S
C743 H742 0.961 . S
C743 H744 0.960 1_554 S
H744 C743 0.960 1_556 S
H745 N725 0.862 . S
O746 Co714 1.920 . S
O746 C719 1.289 . S
C747 O739 1.258 . S
C747 O740 1.266 1_554 S
Co748 O751 1.970 1_554 S
Co748 N765 1.989 . S
Co748 O773 1.967 . S
Co748 O780 1.920 . S
Co749 O752 1.966 . S
Co749 N758 2.022 . S
Co749 N766 1.993 1_556 S
Co749 O774 1.941 . S
C750 O751 1.258 . S
C750 O752 1.263 . S
O751 Co748 1.970 1_556 S
O751 C750 1.258 . S
O752 Co749 1.966 . S
O752 C750 1.263 . S
C753 O754 1.235 . S
C753 O780 1.289 . S
O754 C753 1.235 . S
C755 C757 1.400 . S
C755 N758 1.351 . S
C755 C760 1.501 . S
C756 C757 1.387 . S
C756 N759 1.341 . S
C757 C755 1.400 . S
C757 C756 1.387 . S
N758 Co749 2.022 . S
N758 C755 1.351 . S
N758 N759 1.365 . S
N759 C756 1.341 . S
N759 N758 1.365 . S
N759 H779 0.862 . S
C760 C755 1.501 . S
C760 H761 0.961 . S
C760 H762 0.961 . S
C760 H763 0.960 . S
H761 C760 0.961 . S
H762 C760 0.961 . S
H763 C760 0.960 . S
C764 N765 1.342 . S
C764 C768 1.401 . S
C764 C769 1.499 . S
N765 Co748 1.989 . S
N765 C764 1.342 . S
N765 N766 1.388 . S
N766 Co749 1.993 1_554 S
N766 N765 1.388 . S
N766 C767 1.346 . S
C767 N766 1.346 . S
C767 C768 1.396 . S
C767 C777 1.510 . S
C768 C764 1.401 . S
C768 C767 1.396 . S
C769 C764 1.499 . S
C769 H770 0.959 . S
C769 H771 0.960 . S
C769 H772 0.961 . S
H770 C769 0.959 . S
H771 C769 0.960 . S
H772 C769 0.961 . S
O773 Co748 1.967 . S
O773 C781 1.258 . S
O774 Co749 1.941 . S
O774 C781 1.266 1_556 S
H775 C777 0.959 . S
H776 C777 0.961 . S
C777 C767 1.510 . S
C777 H775 0.959 . S
C777 H776 0.961 . S
C777 H778 0.960 1_554 S
H778 C777 0.960 1_556 S
H779 N759 0.862 . S
O780 Co748 1.920 . S
O780 C753 1.289 . S
C781 O773 1.258 . S
C781 O774 1.266 1_554 S
Co782 O785 1.970 1_554 S
Co782 N799 1.989 . S
Co782 O807 1.967 . S
Co782 O814 1.920 . S
Co783 O786 1.966 . S
Co783 N792 2.022 . S
Co783 N800 1.993 1_556 S
Co783 O808 1.941 . S
C784 O785 1.258 . S
C784 O786 1.263 . S
O785 Co782 1.970 1_556 S
O785 C784 1.258 . S
O786 Co783 1.966 . S
O786 C784 1.263 . S
C787 O788 1.235 . S
C787 O814 1.289 . S
O788 C787 1.235 . S
C789 C791 1.400 . S
C789 N792 1.351 . S
C789 C794 1.501 . S
C790 C791 1.387 . S
C790 N793 1.341 . S
C791 C789 1.400 . S
C791 C790 1.387 . S
N792 Co783 2.022 . S
N792 C789 1.351 . S
N792 N793 1.365 . S
N793 C790 1.341 . S
N793 N792 1.365 . S
N793 H813 0.862 . S
C794 C789 1.501 . S
C794 H795 0.961 . S
C794 H796 0.961 . S
C794 H797 0.960 . S
H795 C794 0.961 . S
H796 C794 0.961 . S
H797 C794 0.960 . S
C798 N799 1.342 . S
C798 C802 1.401 . S
C798 C803 1.499 . S
N799 Co782 1.989 . S
N799 C798 1.342 . S
N799 N800 1.388 . S
N800 Co783 1.993 1_554 S
N800 N799 1.388 . S
N800 C801 1.346 . S
C801 N800 1.346 . S
C801 C802 1.396 . S
C801 C811 1.510 . S
C802 C798 1.401 . S
C802 C801 1.396 . S
C803 C798 1.499 . S
C803 H804 0.959 . S
C803 H805 0.960 . S
C803 H806 0.961 . S
H804 C803 0.959 . S
H805 C803 0.960 . S
H806 C803 0.961 . S
O807 Co782 1.967 . S
O807 C815 1.258 . S
O808 Co783 1.941 . S
O808 C815 1.266 1_556 S
H809 C811 0.959 . S
H810 C811 0.961 . S
C811 C801 1.510 . S
C811 H809 0.959 . S
C811 H810 0.961 . S
C811 H812 0.960 1_554 S
H812 C811 0.960 1_556 S
H813 N793 0.862 . S
O814 Co782 1.920 . S
O814 C787 1.289 . S
C815 O807 1.258 . S
C815 O808 1.266 1_554 S
Co816 O819 1.970 . S
Co816 N833 1.989 . S
Co816 O841 1.967 . S
Co816 O848 1.920 . S
Co817 O820 1.966 . S
Co817 N826 2.022 . S
Co817 N834 1.993 . S
Co817 O842 1.941 . S
C818 O819 1.258 . S
C818 O820 1.263 . S
O819 Co816 1.970 . S
O819 C818 1.258 . S
O820 Co817 1.966 . S
O820 C818 1.263 . S
C821 O822 1.235 . S
C821 O848 1.289 . S
O822 C821 1.235 . S
C823 C825 1.400 . S
C823 N826 1.351 . S
C823 C828 1.501 . S
C824 C825 1.387 . S
C824 N827 1.341 . S
C825 C823 1.400 . S
C825 C824 1.387 . S
N826 Co817 2.022 . S
N826 C823 1.351 . S
N826 N827 1.365 . S
N827 C824 1.341 . S
N827 N826 1.365 . S
N827 H847 0.862 . S
C828 C823 1.501 . S
C828 H829 0.961 . S
C828 H830 0.961 . S
C828 H831 0.960 . S
H829 C828 0.961 . S
H830 C828 0.961 . S
H831 C828 0.960 . S
C832 N833 1.342 . S
C832 C836 1.401 . S
C832 C837 1.499 . S
N833 Co816 1.989 . S
N833 C832 1.342 . S
N833 N834 1.388 . S
N834 Co817 1.993 . S
N834 N833 1.388 . S
N834 C835 1.346 . S
C835 N834 1.346 . S
C835 C836 1.396 . S
C835 C845 1.510 . S
C836 C832 1.401 . S
C836 C835 1.396 . S
C837 C832 1.499 . S
C837 H838 0.959 . S
C837 H839 0.960 . S
C837 H840 0.961 . S
H838 C837 0.959 . S
H839 C837 0.960 . S
H840 C837 0.961 . S
O841 Co816 1.967 . S
O841 C849 1.258 . S
O842 Co817 1.941 . S
O842 C849 1.266 . S
H843 C845 0.959 . S
H844 C845 0.961 . S
C845 C835 1.510 . S
C845 H843 0.959 . S
C845 H844 0.961 . S
C845 H846 0.960 . S
H846 C845 0.960 . S
H847 N827 0.862 . S
O848 Co816 1.920 . S
O848 C821 1.289 . S
C849 O841 1.258 . S
C849 O842 1.266 . S
Co850 O853 1.970 . S
Co850 N867 1.989 . S
Co850 O875 1.967 . S
Co850 O882 1.920 . S
Co851 O854 1.966 . S
Co851 N860 2.022 . S
Co851 N868 1.993 . S
Co851 O876 1.941 . S
C852 O853 1.258 . S
C852 O854 1.263 . S
O853 Co850 1.970 . S
O853 C852 1.258 . S
O854 Co851 1.966 . S
O854 C852 1.263 . S
C855 O856 1.235 . S
C855 O882 1.289 . S
O856 C855 1.235 . S
C857 C859 1.400 . S
C857 N860 1.351 . S
C857 C862 1.501 . S
C858 C859 1.387 . S
C858 N861 1.341 . S
C859 C857 1.400 . S
C859 C858 1.387 . S
N860 Co851 2.022 . S
N860 C857 1.351 . S
N860 N861 1.365 . S
N861 C858 1.341 . S
N861 N860 1.365 . S
N861 H881 0.862 . S
C862 C857 1.501 . S
C862 H863 0.961 . S
C862 H864 0.961 . S
C862 H865 0.960 . S
H863 C862 0.961 . S
H864 C862 0.961 . S
H865 C862 0.960 . S
C866 N867 1.342 . S
C866 C870 1.401 . S
C866 C871 1.499 . S
N867 Co850 1.989 . S
N867 C866 1.342 . S
N867 N868 1.388 . S
N868 Co851 1.993 . S
N868 N867 1.388 . S
N868 C869 1.346 . S
C869 N868 1.346 . S
C869 C870 1.396 . S
C869 C879 1.510 . S
C870 C866 1.401 . S
C870 C869 1.396 . S
C871 C866 1.499 . S
C871 H872 0.959 . S
C871 H873 0.960 . S
C871 H874 0.961 . S
H872 C871 0.959 . S
H873 C871 0.960 . S
H874 C871 0.961 . S
O875 Co850 1.967 . S
O875 C883 1.258 . S
O876 Co851 1.941 . S
O876 C883 1.266 . S
H877 C879 0.959 . S
H878 C879 0.961 . S
C879 C869 1.510 . S
C879 H877 0.959 . S
C879 H878 0.961 . S
C879 H880 0.960 . S
H880 C879 0.960 . S
H881 N861 0.862 . S
O882 Co850 1.920 . S
O882 C855 1.289 . S
C883 O875 1.258 . S
C883 O876 1.266 . S
Co884 O887 1.970 . S
Co884 N901 1.989 . S
Co884 O909 1.967 . S
Co884 O916 1.920 . S
Co885 O888 1.966 . S
Co885 N894 2.022 . S
Co885 N902 1.993 . S
Co885 O910 1.941 . S
C886 O887 1.258 . S
C886 O888 1.263 . S
O887 Co884 1.970 . S
O887 C886 1.258 . S
O888 Co885 1.966 . S
O888 C886 1.263 . S
C889 O890 1.235 . S
C889 O916 1.289 . S
O890 C889 1.235 . S
C891 C893 1.400 . S
C891 N894 1.351 . S
C891 C896 1.501 . S
C892 C893 1.387 . S
C892 N895 1.341 . S
C893 C891 1.400 . S
C893 C892 1.387 . S
N894 Co885 2.022 . S
N894 C891 1.351 . S
N894 N895 1.365 . S
N895 C892 1.341 . S
N895 N894 1.365 . S
N895 H915 0.862 . S
C896 C891 1.501 . S
C896 H897 0.961 . S
C896 H898 0.961 . S
C896 H899 0.960 . S
H897 C896 0.961 . S
H898 C896 0.961 . S
H899 C896 0.960 . S
C900 N901 1.342 . S
C900 C904 1.401 . S
C900 C905 1.499 . S
N901 Co884 1.989 . S
N901 C900 1.342 . S
N901 N902 1.388 . S
N902 Co885 1.993 . S
N902 N901 1.388 . S
N902 C903 1.346 . S
C903 N902 1.346 . S
C903 C904 1.396 . S
C903 C913 1.510 . S
C904 C900 1.401 . S
C904 C903 1.396 . S
C905 C900 1.499 . S
C905 H906 0.959 . S
C905 H907 0.960 . S
C905 H908 0.961 . S
H906 C905 0.959 . S
H907 C905 0.960 . S
H908 C905 0.961 . S
O909 Co884 1.967 . S
O909 C917 1.258 . S
O910 Co885 1.941 . S
O910 C917 1.266 . S
H911 C913 0.959 . S
H912 C913 0.961 . S
C913 C903 1.510 . S
C913 H911 0.959 . S
C913 H912 0.961 . S
C913 H914 0.960 . S
H914 C913 0.960 . S
H915 N895 0.862 . S
O916 Co884 1.920 . S
O916 C889 1.289 . S
C917 O909 1.258 . S
C917 O910 1.266 . S
Co918 O921 1.970 . S
Co918 N935 1.989 . S
Co918 O943 1.967 . S
Co918 O950 1.920 . S
Co919 O922 1.966 . S
Co919 N928 2.022 . S
Co919 N936 1.993 . S
Co919 O944 1.941 . S
C920 O921 1.258 . S
C920 O922 1.263 . S
O921 Co918 1.970 . S
O921 C920 1.258 . S
O922 Co919 1.966 . S
O922 C920 1.263 . S
C923 O924 1.235 . S
C923 O950 1.289 . S
O924 C923 1.235 . S
C925 C927 1.400 . S
C925 N928 1.351 . S
C925 C930 1.501 . S
C926 C927 1.387 . S
C926 N929 1.341 . S
C927 C925 1.400 . S
C927 C926 1.387 . S
N928 Co919 2.022 . S
N928 C925 1.351 . S
N928 N929 1.365 . S
N929 C926 1.341 . S
N929 N928 1.365 . S
N929 H949 0.862 . S
C930 C925 1.501 . S
C930 H931 0.961 . S
C930 H932 0.961 . S
C930 H933 0.960 . S
H931 C930 0.961 . S
H932 C930 0.961 . S
H933 C930 0.960 . S
C934 N935 1.342 . S
C934 C938 1.401 . S
C934 C939 1.499 . S
N935 Co918 1.989 . S
N935 C934 1.342 . S
N935 N936 1.388 . S
N936 Co919 1.993 . S
N936 N935 1.388 . S
N936 C937 1.346 . S
C937 N936 1.346 . S
C937 C938 1.396 . S
C937 C947 1.510 . S
C938 C934 1.401 . S
C938 C937 1.396 . S
C939 C934 1.499 . S
C939 H940 0.959 . S
C939 H941 0.960 . S
C939 H942 0.961 . S
H940 C939 0.959 . S
H941 C939 0.960 . S
H942 C939 0.961 . S
O943 Co918 1.967 . S
O943 C951 1.258 . S
O944 Co919 1.941 . S
O944 C951 1.266 . S
H945 C947 0.959 . S
H946 C947 0.961 . S
C947 C937 1.510 . S
C947 H945 0.959 . S
C947 H946 0.961 . S
C947 H948 0.960 . S
H948 C947 0.960 . S
H949 N929 0.862 . S
O950 Co918 1.920 . S
O950 C923 1.289 . S
C951 O943 1.258 . S
C951 O944 1.266 . S
Co952 O955 1.970 . S
Co952 N969 1.989 . S
Co952 O977 1.967 . S
Co952 O984 1.920 . S
Co953 O956 1.966 . S
Co953 N962 2.022 . S
Co953 N970 1.993 . S
Co953 O978 1.941 . S
C954 O955 1.258 . S
C954 O956 1.263 . S
O955 Co952 1.970 . S
O955 C954 1.258 . S
O956 Co953 1.966 . S
O956 C954 1.263 . S
C957 O958 1.235 . S
C957 O984 1.289 . S
O958 C957 1.235 . S
C959 C961 1.400 . S
C959 N962 1.351 . S
C959 C964 1.501 . S
C960 C961 1.387 . S
C960 N963 1.341 . S
C961 C959 1.400 . S
C961 C960 1.387 . S
N962 Co953 2.022 . S
N962 C959 1.351 . S
N962 N963 1.365 . S
N963 C960 1.341 . S
N963 N962 1.365 . S
N963 H983 0.862 . S
C964 C959 1.501 . S
C964 H965 0.961 . S
C964 H966 0.961 . S
C964 H967 0.960 . S
H965 C964 0.961 . S
H966 C964 0.961 . S
H967 C964 0.960 . S
C968 N969 1.342 . S
C968 C972 1.401 . S
C968 C973 1.499 . S
N969 Co952 1.989 . S
N969 C968 1.342 . S
N969 N970 1.388 . S
N970 Co953 1.993 . S
N970 N969 1.388 . S
N970 C971 1.346 . S
C971 N970 1.346 . S
C971 C972 1.396 . S
C971 C981 1.510 . S
C972 C968 1.401 . S
C972 C971 1.396 . S
C973 C968 1.499 . S
C973 H974 0.959 . S
C973 H975 0.960 . S
C973 H976 0.961 . S
H974 C973 0.959 . S
H975 C973 0.960 . S
H976 C973 0.961 . S
O977 Co952 1.967 . S
O977 C985 1.258 . S
O978 Co953 1.941 . S
O978 C985 1.266 . S
H979 C981 0.959 . S
H980 C981 0.961 . S
C981 C971 1.510 . S
C981 H979 0.959 . S
C981 H980 0.961 . S
C981 H982 0.960 . S
H982 C981 0.960 . S
H983 N963 0.862 . S
O984 Co952 1.920 . S
O984 C957 1.289 . S
C985 O977 1.258 . S
C985 O978 1.266 . S
Co986 O989 1.970 . S
Co986 N1003 1.989 . S
Co986 O1011 1.967 . S
Co986 O1018 1.920 . S
Co987 O990 1.966 . S
Co987 N996 2.022 . S
Co987 N1004 1.993 . S
Co987 O1012 1.941 . S
C988 O989 1.258 . S
C988 O990 1.263 . S
O989 Co986 1.970 . S
O989 C988 1.258 . S
O990 Co987 1.966 . S
O990 C988 1.263 . S
C991 O992 1.235 . S
C991 O1018 1.289 . S
O992 C991 1.235 . S
C993 C995 1.400 . S
C993 N996 1.351 . S
C993 C998 1.501 . S
C994 C995 1.387 . S
C994 N997 1.341 . S
C995 C993 1.400 . S
C995 C994 1.387 . S
N996 Co987 2.022 . S
N996 C993 1.351 . S
N996 N997 1.365 . S
N997 C994 1.341 . S
N997 N996 1.365 . S
N997 H1017 0.862 . S
C998 C993 1.501 . S
C998 H999 0.961 . S
C998 H1000 0.961 . S
C998 H1001 0.960 . S
H999 C998 0.961 . S
H1000 C998 0.961 . S
H1001 C998 0.960 . S
C1002 N1003 1.342 . S
C1002 C1006 1.401 . S
C1002 C1007 1.499 . S
N1003 Co986 1.989 . S
N1003 C1002 1.342 . S
N1003 N1004 1.388 . S
N1004 Co987 1.993 . S
N1004 N1003 1.388 . S
N1004 C1005 1.346 . S
C1005 N1004 1.346 . S
C1005 C1006 1.396 . S
C1005 C1015 1.510 . S
C1006 C1002 1.401 . S
C1006 C1005 1.396 . S
C1007 C1002 1.499 . S
C1007 H1008 0.959 . S
C1007 H1009 0.960 . S
C1007 H1010 0.961 . S
H1008 C1007 0.959 . S
H1009 C1007 0.960 . S
H1010 C1007 0.961 . S
O1011 Co986 1.967 . S
O1011 C1019 1.258 . S
O1012 Co987 1.941 . S
O1012 C1019 1.266 . S
H1013 C1015 0.959 . S
H1014 C1015 0.961 . S
C1015 C1005 1.510 . S
C1015 H1013 0.959 . S
C1015 H1014 0.961 . S
C1015 H1016 0.960 . S
H1016 C1015 0.960 . S
H1017 N997 0.862 . S
O1018 Co986 1.920 . S
O1018 C991 1.289 . S
C1019 O1011 1.258 . S
C1019 O1012 1.266 . S
Co1020 O1023 1.970 . S
Co1020 N1037 1.989 . S
Co1020 O1045 1.967 . S
Co1020 O1052 1.920 . S
Co1021 O1024 1.966 . S
Co1021 N1030 2.022 . S
Co1021 N1038 1.993 . S
Co1021 O1046 1.941 . S
C1022 O1023 1.258 . S
C1022 O1024 1.263 . S
O1023 Co1020 1.970 . S
O1023 C1022 1.258 . S
O1024 Co1021 1.966 . S
O1024 C1022 1.263 . S
C1025 O1026 1.235 . S
C1025 O1052 1.289 . S
O1026 C1025 1.235 . S
C1027 C1029 1.400 . S
C1027 N1030 1.351 . S
C1027 C1032 1.501 . S
C1028 C1029 1.387 . S
C1028 N1031 1.341 . S
C1029 C1027 1.400 . S
C1029 C1028 1.387 . S
N1030 Co1021 2.022 . S
N1030 C1027 1.351 . S
N1030 N1031 1.365 . S
N1031 C1028 1.341 . S
N1031 N1030 1.365 . S
N1031 H1051 0.862 . S
C1032 C1027 1.501 . S
C1032 H1033 0.961 . S
C1032 H1034 0.961 . S
C1032 H1035 0.960 . S
H1033 C1032 0.961 . S
H1034 C1032 0.961 . S
H1035 C1032 0.960 . S
C1036 N1037 1.342 . S
C1036 C1040 1.401 . S
C1036 C1041 1.499 . S
N1037 Co1020 1.989 . S
N1037 C1036 1.342 . S
N1037 N1038 1.388 . S
N1038 Co1021 1.993 . S
N1038 N1037 1.388 . S
N1038 C1039 1.346 . S
C1039 N1038 1.346 . S
C1039 C1040 1.396 . S
C1039 C1049 1.510 . S
C1040 C1036 1.401 . S
C1040 C1039 1.396 . S
C1041 C1036 1.499 . S
C1041 H1042 0.959 . S
C1041 H1043 0.960 . S
C1041 H1044 0.961 . S
H1042 C1041 0.959 . S
H1043 C1041 0.960 . S
H1044 C1041 0.961 . S
O1045 Co1020 1.967 . S
O1045 C1053 1.258 . S
O1046 Co1021 1.941 . S
O1046 C1053 1.266 . S
H1047 C1049 0.959 . S
H1048 C1049 0.961 . S
C1049 C1039 1.510 . S
C1049 H1047 0.959 . S
C1049 H1048 0.961 . S
C1049 H1050 0.960 . S
H1050 C1049 0.960 . S
H1051 N1031 0.862 . S
O1052 Co1020 1.920 . S
O1052 C1025 1.289 . S
C1053 O1045 1.258 . S
C1053 O1046 1.266 . S
Co1054 O1057 1.970 . S
Co1054 N1071 1.989 . S
Co1054 O1079 1.967 . S
Co1054 O1086 1.920 . S
Co1055 O1058 1.966 . S
Co1055 N1064 2.022 . S
Co1055 N1072 1.993 . S
Co1055 O1080 1.941 . S
C1056 O1057 1.258 . S
C1056 O1058 1.263 . S
O1057 Co1054 1.970 . S
O1057 C1056 1.258 . S
O1058 Co1055 1.966 . S
O1058 C1056 1.263 . S
C1059 O1060 1.235 . S
C1059 O1086 1.289 . S
O1060 C1059 1.235 . S
C1061 C1063 1.400 . S
C1061 N1064 1.351 . S
C1061 C1066 1.501 . S
C1062 C1063 1.387 . S
C1062 N1065 1.341 . S
C1063 C1061 1.400 . S
C1063 C1062 1.387 . S
N1064 Co1055 2.022 . S
N1064 C1061 1.351 . S
N1064 N1065 1.365 . S
N1065 C1062 1.341 . S
N1065 N1064 1.365 . S
N1065 H1085 0.862 . S
C1066 C1061 1.501 . S
C1066 H1067 0.961 . S
C1066 H1068 0.961 . S
C1066 H1069 0.960 . S
H1067 C1066 0.961 . S
H1068 C1066 0.961 . S
H1069 C1066 0.960 . S
C1070 N1071 1.342 . S
C1070 C1074 1.401 . S
C1070 C1075 1.499 . S
N1071 Co1054 1.989 . S
N1071 C1070 1.342 . S
N1071 N1072 1.388 . S
N1072 Co1055 1.993 . S
N1072 N1071 1.388 . S
N1072 C1073 1.346 . S
C1073 N1072 1.346 . S
C1073 C1074 1.396 . S
C1073 C1083 1.510 . S
C1074 C1070 1.401 . S
C1074 C1073 1.396 . S
C1075 C1070 1.499 . S
C1075 H1076 0.959 . S
C1075 H1077 0.960 . S
C1075 H1078 0.961 . S
H1076 C1075 0.959 . S
H1077 C1075 0.960 . S
H1078 C1075 0.961 . S
O1079 Co1054 1.967 . S
O1079 C1087 1.258 . S
O1080 Co1055 1.941 . S
O1080 C1087 1.266 . S
H1081 C1083 0.959 . S
H1082 C1083 0.961 . S
C1083 C1073 1.510 . S
C1083 H1081 0.959 . S
C1083 H1082 0.961 . S
C1083 H1084 0.960 . S
H1084 C1083 0.960 . S
H1085 N1065 0.862 . S
O1086 Co1054 1.920 . S
O1086 C1059 1.289 . S
C1087 O1079 1.258 . S
C1087 O1080 1.266 . S
Co1088 O1091 1.970 . S
Co1088 N1105 1.989 . S
Co1088 O1113 1.967 . S
Co1088 O1120 1.920 . S
Co1089 O1092 1.966 . S
Co1089 N1098 2.022 . S
Co1089 N1106 1.993 . S
Co1089 O1114 1.941 . S
C1090 O1091 1.258 . S
C1090 O1092 1.263 . S
O1091 Co1088 1.970 . S
O1091 C1090 1.258 . S
O1092 Co1089 1.966 . S
O1092 C1090 1.263 . S
C1093 O1094 1.235 . S
C1093 O1120 1.289 . S
O1094 C1093 1.235 . S
C1095 C1097 1.400 . S
C1095 N1098 1.351 . S
C1095 C1100 1.501 . S
C1096 C1097 1.387 . S
C1096 N1099 1.341 . S
C1097 C1095 1.400 . S
C1097 C1096 1.387 . S
N1098 Co1089 2.022 . S
N1098 C1095 1.351 . S
N1098 N1099 1.365 . S
N1099 C1096 1.341 . S
N1099 N1098 1.365 . S
N1099 H1119 0.862 . S
C1100 C1095 1.501 . S
C1100 H1101 0.961 . S
C1100 H1102 0.961 . S
C1100 H1103 0.960 . S
H1101 C1100 0.961 . S
H1102 C1100 0.961 . S
H1103 C1100 0.960 . S
C1104 N1105 1.342 . S
C1104 C1108 1.401 . S
C1104 C1109 1.499 . S
N1105 Co1088 1.989 . S
N1105 C1104 1.342 . S
N1105 N1106 1.388 . S
N1106 Co1089 1.993 . S
N1106 N1105 1.388 . S
N1106 C1107 1.346 . S
C1107 N1106 1.346 . S
C1107 C1108 1.396 . S
C1107 C1117 1.510 . S
C1108 C1104 1.401 . S
C1108 C1107 1.396 . S
C1109 C1104 1.499 . S
C1109 H1110 0.959 . S
C1109 H1111 0.960 . S
C1109 H1112 0.961 . S
H1110 C1109 0.959 . S
H1111 C1109 0.960 . S
H1112 C1109 0.961 . S
O1113 Co1088 1.967 . S
O1113 C1121 1.258 . S
O1114 Co1089 1.941 . S
O1114 C1121 1.266 . S
H1115 C1117 0.959 . S
H1116 C1117 0.961 . S
C1117 C1107 1.510 . S
C1117 H1115 0.959 . S
C1117 H1116 0.961 . S
C1117 H1118 0.960 . S
H1118 C1117 0.960 . S
H1119 N1099 0.862 . S
O1120 Co1088 1.920 . S
O1120 C1093 1.289 . S
C1121 O1113 1.258 . S
C1121 O1114 1.266 . S
Co1122 O1125 1.970 . S
Co1122 N1139 1.989 . S
Co1122 O1147 1.967 . S
Co1122 O1154 1.920 . S
Co1123 O1126 1.966 . S
Co1123 N1132 2.022 . S
Co1123 N1140 1.993 . S
Co1123 O1148 1.941 . S
C1124 O1125 1.258 . S
C1124 O1126 1.263 . S
O1125 Co1122 1.970 . S
O1125 C1124 1.258 . S
O1126 Co1123 1.966 . S
O1126 C1124 1.263 . S
C1127 O1128 1.235 . S
C1127 O1154 1.289 . S
O1128 C1127 1.235 . S
C1129 C1131 1.400 . S
C1129 N1132 1.351 . S
C1129 C1134 1.501 . S
C1130 C1131 1.387 . S
C1130 N1133 1.341 . S
C1131 C1129 1.400 . S
C1131 C1130 1.387 . S
N1132 Co1123 2.022 . S
N1132 C1129 1.351 . S
N1132 N1133 1.365 . S
N1133 C1130 1.341 . S
N1133 N1132 1.365 . S
N1133 H1153 0.862 . S
C1134 C1129 1.501 . S
C1134 H1135 0.961 . S
C1134 H1136 0.961 . S
C1134 H1137 0.960 . S
H1135 C1134 0.961 . S
H1136 C1134 0.961 . S
H1137 C1134 0.960 . S
C1138 N1139 1.342 . S
C1138 C1142 1.401 . S
C1138 C1143 1.499 . S
N1139 Co1122 1.989 . S
N1139 C1138 1.342 . S
N1139 N1140 1.388 . S
N1140 Co1123 1.993 . S
N1140 N1139 1.388 . S
N1140 C1141 1.346 . S
C1141 N1140 1.346 . S
C1141 C1142 1.396 . S
C1141 C1151 1.510 . S
C1142 C1138 1.401 . S
C1142 C1141 1.396 . S
C1143 C1138 1.499 . S
C1143 H1144 0.959 . S
C1143 H1145 0.960 . S
C1143 H1146 0.961 . S
H1144 C1143 0.959 . S
H1145 C1143 0.960 . S
H1146 C1143 0.961 . S
O1147 Co1122 1.967 . S
O1147 C1155 1.258 . S
O1148 Co1123 1.941 . S
O1148 C1155 1.266 . S
H1149 C1151 0.959 . S
H1150 C1151 0.961 . S
C1151 C1141 1.510 . S
C1151 H1149 0.959 . S
C1151 H1150 0.961 . S
C1151 H1152 0.960 . S
H1152 C1151 0.960 . S
H1153 N1133 0.862 . S
O1154 Co1122 1.920 . S
O1154 C1127 1.289 . S
C1155 O1147 1.258 . S
C1155 O1148 1.266 . S
Co1156 O1159 1.970 . S
Co1156 N1173 1.989 . S
Co1156 O1181 1.967 . S
Co1156 O1188 1.920 . S
Co1157 O1160 1.966 . S
Co1157 N1166 2.022 . S
Co1157 N1174 1.993 . S
Co1157 O1182 1.941 . S
C1158 O1159 1.258 . S
C1158 O1160 1.263 . S
O1159 Co1156 1.970 . S
O1159 C1158 1.258 . S
O1160 Co1157 1.966 . S
O1160 C1158 1.263 . S
C1161 O1162 1.235 . S
C1161 O1188 1.289 . S
O1162 C1161 1.235 . S
C1163 C1165 1.400 . S
C1163 N1166 1.351 . S
C1163 C1168 1.501 . S
C1164 C1165 1.387 . S
C1164 N1167 1.341 . S
C1165 C1163 1.400 . S
C1165 C1164 1.387 . S
N1166 Co1157 2.022 . S
N1166 C1163 1.351 . S
N1166 N1167 1.365 . S
N1167 C1164 1.341 . S
N1167 N1166 1.365 . S
N1167 H1187 0.862 . S
C1168 C1163 1.501 . S
C1168 H1169 0.961 . S
C1168 H1170 0.961 . S
C1168 H1171 0.960 . S
H1169 C1168 0.961 . S
H1170 C1168 0.961 . S
H1171 C1168 0.960 . S
C1172 N1173 1.342 . S
C1172 C1176 1.401 . S
C1172 C1177 1.499 . S
N1173 Co1156 1.989 . S
N1173 C1172 1.342 . S
N1173 N1174 1.388 . S
N1174 Co1157 1.993 . S
N1174 N1173 1.388 . S
N1174 C1175 1.346 . S
C1175 N1174 1.346 . S
C1175 C1176 1.396 . S
C1175 C1185 1.510 . S
C1176 C1172 1.401 . S
C1176 C1175 1.396 . S
C1177 C1172 1.499 . S
C1177 H1178 0.959 . S
C1177 H1179 0.960 . S
C1177 H1180 0.961 . S
H1178 C1177 0.959 . S
H1179 C1177 0.960 . S
H1180 C1177 0.961 . S
O1181 Co1156 1.967 . S
O1181 C1189 1.258 . S
O1182 Co1157 1.941 . S
O1182 C1189 1.266 . S
H1183 C1185 0.959 . S
H1184 C1185 0.961 . S
C1185 C1175 1.510 . S
C1185 H1183 0.959 . S
C1185 H1184 0.961 . S
C1185 H1186 0.960 . S
H1186 C1185 0.960 . S
H1187 N1167 0.862 . S
O1188 Co1156 1.920 . S
O1188 C1161 1.289 . S
C1189 O1181 1.258 . S
C1189 O1182 1.266 . S
Co1190 O1193 1.970 . S
Co1190 N1207 1.989 . S
Co1190 O1215 1.967 . S
Co1190 O1222 1.920 . S
Co1191 O1194 1.966 . S
Co1191 N1200 2.022 . S
Co1191 N1208 1.993 . S
Co1191 O1216 1.941 . S
C1192 O1193 1.258 . S
C1192 O1194 1.263 . S
O1193 Co1190 1.970 . S
O1193 C1192 1.258 . S
O1194 Co1191 1.966 . S
O1194 C1192 1.263 . S
C1195 O1196 1.235 . S
C1195 O1222 1.289 . S
O1196 C1195 1.235 . S
C1197 C1199 1.400 . S
C1197 N1200 1.351 . S
C1197 C1202 1.501 . S
C1198 C1199 1.387 . S
C1198 N1201 1.341 . S
C1199 C1197 1.400 . S
C1199 C1198 1.387 . S
N1200 Co1191 2.022 . S
N1200 C1197 1.351 . S
N1200 N1201 1.365 . S
N1201 C1198 1.341 . S
N1201 N1200 1.365 . S
N1201 H1221 0.862 . S
C1202 C1197 1.501 . S
C1202 H1203 0.961 . S
C1202 H1204 0.961 . S
C1202 H1205 0.960 . S
H1203 C1202 0.961 . S
H1204 C1202 0.961 . S
H1205 C1202 0.960 . S
C1206 N1207 1.342 . S
C1206 C1210 1.401 . S
C1206 C1211 1.499 . S
N1207 Co1190 1.989 . S
N1207 C1206 1.342 . S
N1207 N1208 1.388 . S
N1208 Co1191 1.993 . S
N1208 N1207 1.388 . S
N1208 C1209 1.346 . S
C1209 N1208 1.346 . S
C1209 C1210 1.396 . S
C1209 C1219 1.510 . S
C1210 C1206 1.401 . S
C1210 C1209 1.396 . S
C1211 C1206 1.499 . S
C1211 H1212 0.959 . S
C1211 H1213 0.960 . S
C1211 H1214 0.961 . S
H1212 C1211 0.959 . S
H1213 C1211 0.960 . S
H1214 C1211 0.961 . S
O1215 Co1190 1.967 . S
O1215 C1223 1.258 . S
O1216 Co1191 1.941 . S
O1216 C1223 1.266 . S
H1217 C1219 0.959 . S
H1218 C1219 0.961 . S
C1219 C1209 1.510 . S
C1219 H1217 0.959 . S
C1219 H1218 0.961 . S
C1219 H1220 0.960 . S
H1220 C1219 0.960 . S
H1221 N1201 0.862 . S
O1222 Co1190 1.920 . S
O1222 C1195 1.289 . S
C1223 O1215 1.258 . S
C1223 O1216 1.266 . S
Co1224 O1227 1.970 . S
Co1224 N1241 1.989 . S
Co1224 O1249 1.967 . S
Co1224 O1256 1.920 . S
Co1225 O1228 1.966 . S
Co1225 N1234 2.022 . S
Co1225 N1242 1.993 . S
Co1225 O1250 1.941 . S
C1226 O1227 1.258 . S
C1226 O1228 1.263 . S
O1227 Co1224 1.970 . S
O1227 C1226 1.258 . S
O1228 Co1225 1.966 . S
O1228 C1226 1.263 . S
C1229 O1230 1.235 . S
C1229 O1256 1.289 . S
O1230 C1229 1.235 . S
C1231 C1233 1.400 . S
C1231 N1234 1.351 . S
C1231 C1236 1.501 . S
C1232 C1233 1.387 . S
C1232 N1235 1.341 . S
C1233 C1231 1.400 . S
C1233 C1232 1.387 . S
N1234 Co1225 2.022 . S
N1234 C1231 1.351 . S
N1234 N1235 1.365 . S
N1235 C1232 1.341 . S
N1235 N1234 1.365 . S
N1235 H1255 0.862 . S
C1236 C1231 1.501 . S
C1236 H1237 0.961 . S
C1236 H1238 0.961 . S
C1236 H1239 0.960 . S
H1237 C1236 0.961 . S
H1238 C1236 0.961 . S
H1239 C1236 0.960 . S
C1240 N1241 1.342 . S
C1240 C1244 1.401 . S
C1240 C1245 1.499 . S
N1241 Co1224 1.989 . S
N1241 C1240 1.342 . S
N1241 N1242 1.388 . S
N1242 Co1225 1.993 . S
N1242 N1241 1.388 . S
N1242 C1243 1.346 . S
C1243 N1242 1.346 . S
C1243 C1244 1.396 . S
C1243 C1253 1.510 . S
C1244 C1240 1.401 . S
C1244 C1243 1.396 . S
C1245 C1240 1.499 . S
C1245 H1246 0.959 . S
C1245 H1247 0.960 . S
C1245 H1248 0.961 . S
H1246 C1245 0.959 . S
H1247 C1245 0.960 . S
H1248 C1245 0.961 . S
O1249 Co1224 1.967 . S
O1249 C1257 1.258 . S
O1250 Co1225 1.941 . S
O1250 C1257 1.266 . S
H1251 C1253 0.959 . S
H1252 C1253 0.961 . S
C1253 C1243 1.510 . S
C1253 H1251 0.959 . S
C1253 H1252 0.961 . S
C1253 H1254 0.960 . S
H1254 C1253 0.960 . S
H1255 N1235 0.862 . S
O1256 Co1224 1.920 . S
O1256 C1229 1.289 . S
C1257 O1249 1.258 . S
C1257 O1250 1.266 . S
Co1258 O1261 1.970 . S
Co1258 N1275 1.989 . S
Co1258 O1283 1.967 . S
Co1258 O1290 1.920 . S
Co1259 O1262 1.966 . S
Co1259 N1268 2.022 . S
Co1259 N1276 1.993 . S
Co1259 O1284 1.941 . S
C1260 O1261 1.258 . S
C1260 O1262 1.263 . S
O1261 Co1258 1.970 . S
O1261 C1260 1.258 . S
O1262 Co1259 1.966 . S
O1262 C1260 1.263 . S
C1263 O1264 1.235 . S
C1263 O1290 1.289 . S
O1264 C1263 1.235 . S
C1265 C1267 1.400 . S
C1265 N1268 1.351 . S
C1265 C1270 1.501 . S
C1266 C1267 1.387 . S
C1266 N1269 1.341 . S
C1267 C1265 1.400 . S
C1267 C1266 1.387 . S
N1268 Co1259 2.022 . S
N1268 C1265 1.351 . S
N1268 N1269 1.365 . S
N1269 C1266 1.341 . S
N1269 N1268 1.365 . S
N1269 H1289 0.862 . S
C1270 C1265 1.501 . S
C1270 H1271 0.961 . S
C1270 H1272 0.961 . S
C1270 H1273 0.960 . S
H1271 C1270 0.961 . S
H1272 C1270 0.961 . S
H1273 C1270 0.960 . S
C1274 N1275 1.342 . S
C1274 C1278 1.401 . S
C1274 C1279 1.499 . S
N1275 Co1258 1.989 . S
N1275 C1274 1.342 . S
N1275 N1276 1.388 . S
N1276 Co1259 1.993 . S
N1276 N1275 1.388 . S
N1276 C1277 1.346 . S
C1277 N1276 1.346 . S
C1277 C1278 1.396 . S
C1277 C1287 1.510 . S
C1278 C1274 1.401 . S
C1278 C1277 1.396 . S
C1279 C1274 1.499 . S
C1279 H1280 0.959 . S
C1279 H1281 0.960 . S
C1279 H1282 0.961 . S
H1280 C1279 0.959 . S
H1281 C1279 0.960 . S
H1282 C1279 0.961 . S
O1283 Co1258 1.967 . S
O1283 C1291 1.258 . S
O1284 Co1259 1.941 . S
O1284 C1291 1.266 . S
H1285 C1287 0.959 . S
H1286 C1287 0.961 . S
C1287 C1277 1.510 . S
C1287 H1285 0.959 . S
C1287 H1286 0.961 . S
C1287 H1288 0.960 . S
H1288 C1287 0.960 . S
H1289 N1269 0.862 . S
O1290 Co1258 1.920 . S
O1290 C1263 1.289 . S
C1291 O1283 1.258 . S
C1291 O1284 1.266 . S
Co1292 O1295 1.970 . S
Co1292 N1309 1.989 . S
Co1292 O1317 1.967 . S
Co1292 O1324 1.920 . S
Co1293 O1296 1.966 . S
Co1293 N1302 2.022 . S
Co1293 N1310 1.993 . S
Co1293 O1318 1.941 . S
C1294 O1295 1.258 . S
C1294 O1296 1.263 . S
O1295 Co1292 1.970 . S
O1295 C1294 1.258 . S
O1296 Co1293 1.966 . S
O1296 C1294 1.263 . S
C1297 O1298 1.235 . S
C1297 O1324 1.289 . S
O1298 C1297 1.235 . S
C1299 C1301 1.400 . S
C1299 N1302 1.351 . S
C1299 C1304 1.501 . S
C1300 C1301 1.387 . S
C1300 N1303 1.341 . S
C1301 C1299 1.400 . S
C1301 C1300 1.387 . S
N1302 Co1293 2.022 . S
N1302 C1299 1.351 . S
N1302 N1303 1.365 . S
N1303 C1300 1.341 . S
N1303 N1302 1.365 . S
N1303 H1323 0.862 . S
C1304 C1299 1.501 . S
C1304 H1305 0.961 . S
C1304 H1306 0.961 . S
C1304 H1307 0.960 . S
H1305 C1304 0.961 . S
H1306 C1304 0.961 . S
H1307 C1304 0.960 . S
C1308 N1309 1.342 . S
C1308 C1312 1.401 . S
C1308 C1313 1.499 . S
N1309 Co1292 1.989 . S
N1309 C1308 1.342 . S
N1309 N1310 1.388 . S
N1310 Co1293 1.993 . S
N1310 N1309 1.388 . S
N1310 C1311 1.346 . S
C1311 N1310 1.346 . S
C1311 C1312 1.396 . S
C1311 C1321 1.510 . S
C1312 C1308 1.401 . S
C1312 C1311 1.396 . S
C1313 C1308 1.499 . S
C1313 H1314 0.959 . S
C1313 H1315 0.960 . S
C1313 H1316 0.961 . S
H1314 C1313 0.959 . S
H1315 C1313 0.960 . S
H1316 C1313 0.961 . S
O1317 Co1292 1.967 . S
O1317 C1325 1.258 . S
O1318 Co1293 1.941 . S
O1318 C1325 1.266 . S
H1319 C1321 0.959 . S
H1320 C1321 0.961 . S
C1321 C1311 1.510 . S
C1321 H1319 0.959 . S
C1321 H1320 0.961 . S
C1321 H1322 0.960 . S
H1322 C1321 0.960 . S
H1323 N1303 0.862 . S
O1324 Co1292 1.920 . S
O1324 C1297 1.289 . S
C1325 O1317 1.258 . S
C1325 O1318 1.266 . S
Co1326 O1329 1.970 . S
Co1326 N1343 1.989 . S
Co1326 O1351 1.967 . S
Co1326 O1358 1.920 . S
Co1327 O1330 1.966 . S
Co1327 N1336 2.022 . S
Co1327 N1344 1.993 . S
Co1327 O1352 1.941 . S
C1328 O1329 1.258 . S
C1328 O1330 1.263 . S
O1329 Co1326 1.970 . S
O1329 C1328 1.258 . S
O1330 Co1327 1.966 . S
O1330 C1328 1.263 . S
C1331 O1332 1.235 . S
C1331 O1358 1.289 . S
O1332 C1331 1.235 . S
C1333 C1335 1.400 . S
C1333 N1336 1.351 . S
C1333 C1338 1.501 . S
C1334 C1335 1.387 . S
C1334 N1337 1.341 . S
C1335 C1333 1.400 . S
C1335 C1334 1.387 . S
N1336 Co1327 2.022 . S
N1336 C1333 1.351 . S
N1336 N1337 1.365 . S
N1337 C1334 1.341 . S
N1337 N1336 1.365 . S
N1337 H1357 0.862 . S
C1338 C1333 1.501 . S
C1338 H1339 0.961 . S
C1338 H1340 0.961 . S
C1338 H1341 0.960 . S
H1339 C1338 0.961 . S
H1340 C1338 0.961 . S
H1341 C1338 0.960 . S
C1342 N1343 1.342 . S
C1342 C1346 1.401 . S
C1342 C1347 1.499 . S
N1343 Co1326 1.989 . S
N1343 C1342 1.342 . S
N1343 N1344 1.388 . S
N1344 Co1327 1.993 . S
N1344 N1343 1.388 . S
N1344 C1345 1.346 . S
C1345 N1344 1.346 . S
C1345 C1346 1.396 . S
C1345 C1355 1.510 . S
C1346 C1342 1.401 . S
C1346 C1345 1.396 . S
C1347 C1342 1.499 . S
C1347 H1348 0.959 . S
C1347 H1349 0.960 . S
C1347 H1350 0.961 . S
H1348 C1347 0.959 . S
H1349 C1347 0.960 . S
H1350 C1347 0.961 . S
O1351 Co1326 1.967 . S
O1351 C1359 1.258 . S
O1352 Co1327 1.941 . S
O1352 C1359 1.266 . S
H1353 C1355 0.959 . S
H1354 C1355 0.961 . S
C1355 C1345 1.510 . S
C1355 H1353 0.959 . S
C1355 H1354 0.961 . S
C1355 H1356 0.960 . S
H1356 C1355 0.960 . S
H1357 N1337 0.862 . S
O1358 Co1326 1.920 . S
O1358 C1331 1.289 . S
C1359 O1351 1.258 . S
C1359 O1352 1.266 . S
Co1360 O1363 1.970 . S
Co1360 N1377 1.989 . S
Co1360 O1385 1.967 . S
Co1360 O1392 1.920 . S
Co1361 O1364 1.966 . S
Co1361 N1370 2.022 . S
Co1361 N1378 1.993 . S
Co1361 O1386 1.941 . S
C1362 O1363 1.258 . S
C1362 O1364 1.263 . S
O1363 Co1360 1.970 . S
O1363 C1362 1.258 . S
O1364 Co1361 1.966 . S
O1364 C1362 1.263 . S
C1365 O1366 1.235 . S
C1365 O1392 1.289 . S
O1366 C1365 1.235 . S
C1367 C1369 1.400 . S
C1367 N1370 1.351 . S
C1367 C1372 1.501 . S
C1368 C1369 1.387 . S
C1368 N1371 1.341 . S
C1369 C1367 1.400 . S
C1369 C1368 1.387 . S
N1370 Co1361 2.022 . S
N1370 C1367 1.351 . S
N1370 N1371 1.365 . S
N1371 C1368 1.341 . S
N1371 N1370 1.365 . S
N1371 H1391 0.862 . S
C1372 C1367 1.501 . S
C1372 H1373 0.961 . S
C1372 H1374 0.961 . S
C1372 H1375 0.960 . S
H1373 C1372 0.961 . S
H1374 C1372 0.961 . S
H1375 C1372 0.960 . S
C1376 N1377 1.342 . S
C1376 C1380 1.401 . S
C1376 C1381 1.499 . S
N1377 Co1360 1.989 . S
N1377 C1376 1.342 . S
N1377 N1378 1.388 . S
N1378 Co1361 1.993 . S
N1378 N1377 1.388 . S
N1378 C1379 1.346 . S
C1379 N1378 1.346 . S
C1379 C1380 1.396 . S
C1379 C1389 1.510 . S
C1380 C1376 1.401 . S
C1380 C1379 1.396 . S
C1381 C1376 1.499 . S
C1381 H1382 0.959 . S
C1381 H1383 0.960 . S
C1381 H1384 0.961 . S
H1382 C1381 0.959 . S
H1383 C1381 0.960 . S
H1384 C1381 0.961 . S
O1385 Co1360 1.967 . S
O1385 C1393 1.258 . S
O1386 Co1361 1.941 . S
O1386 C1393 1.266 . S
H1387 C1389 0.959 . S
H1388 C1389 0.961 . S
C1389 C1379 1.510 . S
C1389 H1387 0.959 . S
C1389 H1388 0.961 . S
C1389 H1390 0.960 . S
H1390 C1389 0.960 . S
H1391 N1371 0.862 . S
O1392 Co1360 1.920 . S
O1392 C1365 1.289 . S
C1393 O1385 1.258 . S
C1393 O1386 1.266 . S
Co1394 O1397 1.970 . S
Co1394 N1411 1.989 . S
Co1394 O1419 1.967 . S
Co1394 O1426 1.920 . S
Co1395 O1398 1.966 . S
Co1395 N1404 2.022 . S
Co1395 N1412 1.993 . S
Co1395 O1420 1.941 . S
C1396 O1397 1.258 . S
C1396 O1398 1.263 . S
O1397 Co1394 1.970 . S
O1397 C1396 1.258 . S
O1398 Co1395 1.966 . S
O1398 C1396 1.263 . S
C1399 O1400 1.235 . S
C1399 O1426 1.289 . S
O1400 C1399 1.235 . S
C1401 C1403 1.400 . S
C1401 N1404 1.351 . S
C1401 C1406 1.501 . S
C1402 C1403 1.387 . S
C1402 N1405 1.341 . S
C1403 C1401 1.400 . S
C1403 C1402 1.387 . S
N1404 Co1395 2.022 . S
N1404 C1401 1.351 . S
N1404 N1405 1.365 . S
N1405 C1402 1.341 . S
N1405 N1404 1.365 . S
N1405 H1425 0.862 . S
C1406 C1401 1.501 . S
C1406 H1407 0.961 . S
C1406 H1408 0.961 . S
C1406 H1409 0.960 . S
H1407 C1406 0.961 . S
H1408 C1406 0.961 . S
H1409 C1406 0.960 . S
C1410 N1411 1.342 . S
C1410 C1414 1.401 . S
C1410 C1415 1.499 . S
N1411 Co1394 1.989 . S
N1411 C1410 1.342 . S
N1411 N1412 1.388 . S
N1412 Co1395 1.993 . S
N1412 N1411 1.388 . S
N1412 C1413 1.346 . S
C1413 N1412 1.346 . S
C1413 C1414 1.396 . S
C1413 C1423 1.510 . S
C1414 C1410 1.401 . S
C1414 C1413 1.396 . S
C1415 C1410 1.499 . S
C1415 H1416 0.959 . S
C1415 H1417 0.960 . S
C1415 H1418 0.961 . S
H1416 C1415 0.959 . S
H1417 C1415 0.960 . S
H1418 C1415 0.961 . S
O1419 Co1394 1.967 . S
O1419 C1427 1.258 . S
O1420 Co1395 1.941 . S
O1420 C1427 1.266 . S
H1421 C1423 0.959 . S
H1422 C1423 0.961 . S
C1423 C1413 1.510 . S
C1423 H1421 0.959 . S
C1423 H1422 0.961 . S
C1423 H1424 0.960 . S
H1424 C1423 0.960 . S
H1425 N1405 0.862 . S
O1426 Co1394 1.920 . S
O1426 C1399 1.289 . S
C1427 O1419 1.258 . S
C1427 O1420 1.266 . S
Co1428 O1431 1.970 . S
Co1428 N1445 1.989 . S
Co1428 O1453 1.967 . S
Co1428 O1460 1.920 . S
Co1429 O1432 1.966 . S
Co1429 N1438 2.022 . S
Co1429 N1446 1.993 . S
Co1429 O1454 1.941 . S
C1430 O1431 1.258 . S
C1430 O1432 1.263 . S
O1431 Co1428 1.970 . S
O1431 C1430 1.258 . S
O1432 Co1429 1.966 . S
O1432 C1430 1.263 . S
C1433 O1434 1.235 . S
C1433 O1460 1.289 . S
O1434 C1433 1.235 . S
C1435 C1437 1.400 . S
C1435 N1438 1.351 . S
C1435 C1440 1.501 . S
C1436 C1437 1.387 . S
C1436 N1439 1.341 . S
C1437 C1435 1.400 . S
C1437 C1436 1.387 . S
N1438 Co1429 2.022 . S
N1438 C1435 1.351 . S
N1438 N1439 1.365 . S
N1439 C1436 1.341 . S
N1439 N1438 1.365 . S
N1439 H1459 0.862 . S
C1440 C1435 1.501 . S
C1440 H1441 0.961 . S
C1440 H1442 0.961 . S
C1440 H1443 0.960 . S
H1441 C1440 0.961 . S
H1442 C1440 0.961 . S
H1443 C1440 0.960 . S
C1444 N1445 1.342 . S
C1444 C1448 1.401 . S
C1444 C1449 1.499 . S
N1445 Co1428 1.989 . S
N1445 C1444 1.342 . S
N1445 N1446 1.388 . S
N1446 Co1429 1.993 . S
N1446 N1445 1.388 . S
N1446 C1447 1.346 . S
C1447 N1446 1.346 . S
C1447 C1448 1.396 . S
C1447 C1457 1.510 . S
C1448 C1444 1.401 . S
C1448 C1447 1.396 . S
C1449 C1444 1.499 . S
C1449 H1450 0.959 . S
C1449 H1451 0.960 . S
C1449 H1452 0.961 . S
H1450 C1449 0.959 . S
H1451 C1449 0.960 . S
H1452 C1449 0.961 . S
O1453 Co1428 1.967 . S
O1453 C1461 1.258 . S
O1454 Co1429 1.941 . S
O1454 C1461 1.266 . S
H1455 C1457 0.959 . S
H1456 C1457 0.961 . S
C1457 C1447 1.510 . S
C1457 H1455 0.959 . S
C1457 H1456 0.961 . S
C1457 H1458 0.960 . S
H1458 C1457 0.960 . S
H1459 N1439 0.862 . S
O1460 Co1428 1.920 . S
O1460 C1433 1.289 . S
C1461 O1453 1.258 . S
C1461 O1454 1.266 . S
Co1462 O1465 1.970 . S
Co1462 N1479 1.989 . S
Co1462 O1487 1.967 . S
Co1462 O1494 1.920 . S
Co1463 O1466 1.966 . S
Co1463 N1472 2.022 . S
Co1463 N1480 1.993 . S
Co1463 O1488 1.941 . S
C1464 O1465 1.258 . S
C1464 O1466 1.263 . S
O1465 Co1462 1.970 . S
O1465 C1464 1.258 . S
O1466 Co1463 1.966 . S
O1466 C1464 1.263 . S
C1467 O1468 1.235 . S
C1467 O1494 1.289 . S
O1468 C1467 1.235 . S
C1469 C1471 1.400 . S
C1469 N1472 1.351 . S
C1469 C1474 1.501 . S
C1470 C1471 1.387 . S
C1470 N1473 1.341 . S
C1471 C1469 1.400 . S
C1471 C1470 1.387 . S
N1472 Co1463 2.022 . S
N1472 C1469 1.351 . S
N1472 N1473 1.365 . S
N1473 C1470 1.341 . S
N1473 N1472 1.365 . S
N1473 H1493 0.862 . S
C1474 C1469 1.501 . S
C1474 H1475 0.961 . S
C1474 H1476 0.961 . S
C1474 H1477 0.960 . S
H1475 C1474 0.961 . S
H1476 C1474 0.961 . S
H1477 C1474 0.960 . S
C1478 N1479 1.342 . S
C1478 C1482 1.401 . S
C1478 C1483 1.499 . S
N1479 Co1462 1.989 . S
N1479 C1478 1.342 . S
N1479 N1480 1.388 . S
N1480 Co1463 1.993 . S
N1480 N1479 1.388 . S
N1480 C1481 1.346 . S
C1481 N1480 1.346 . S
C1481 C1482 1.396 . S
C1481 C1491 1.510 . S
C1482 C1478 1.401 . S
C1482 C1481 1.396 . S
C1483 C1478 1.499 . S
C1483 H1484 0.959 . S
C1483 H1485 0.960 . S
C1483 H1486 0.961 . S
H1484 C1483 0.959 . S
H1485 C1483 0.960 . S
H1486 C1483 0.961 . S
O1487 Co1462 1.967 . S
O1487 C1495 1.258 . S
O1488 Co1463 1.941 . S
O1488 C1495 1.266 . S
H1489 C1491 0.959 . S
H1490 C1491 0.961 . S
C1491 C1481 1.510 . S
C1491 H1489 0.959 . S
C1491 H1490 0.961 . S
C1491 H1492 0.960 . S
H1492 C1491 0.960 . S
H1493 N1473 0.862 . S
O1494 Co1462 1.920 . S
O1494 C1467 1.289 . S
C1495 O1487 1.258 . S
C1495 O1488 1.266 . S
Co1496 O1499 1.970 . S
Co1496 N1513 1.989 . S
Co1496 O1521 1.967 . S
Co1496 O1528 1.920 . S
Co1497 O1500 1.966 . S
Co1497 N1506 2.022 . S
Co1497 N1514 1.993 . S
Co1497 O1522 1.941 . S
C1498 O1499 1.258 . S
C1498 O1500 1.263 . S
O1499 Co1496 1.970 . S
O1499 C1498 1.258 . S
O1500 Co1497 1.966 . S
O1500 C1498 1.263 . S
C1501 O1502 1.235 . S
C1501 O1528 1.289 . S
O1502 C1501 1.235 . S
C1503 C1505 1.400 . S
C1503 N1506 1.351 . S
C1503 C1508 1.501 . S
C1504 C1505 1.387 . S
C1504 N1507 1.341 . S
C1505 C1503 1.400 . S
C1505 C1504 1.387 . S
N1506 Co1497 2.022 . S
N1506 C1503 1.351 . S
N1506 N1507 1.365 . S
N1507 C1504 1.341 . S
N1507 N1506 1.365 . S
N1507 H1527 0.862 . S
C1508 C1503 1.501 . S
C1508 H1509 0.961 . S
C1508 H1510 0.961 . S
C1508 H1511 0.960 . S
H1509 C1508 0.961 . S
H1510 C1508 0.961 . S
H1511 C1508 0.960 . S
C1512 N1513 1.342 . S
C1512 C1516 1.401 . S
C1512 C1517 1.499 . S
N1513 Co1496 1.989 . S
N1513 C1512 1.342 . S
N1513 N1514 1.388 . S
N1514 Co1497 1.993 . S
N1514 N1513 1.388 . S
N1514 C1515 1.346 . S
C1515 N1514 1.346 . S
C1515 C1516 1.396 . S
C1515 C1525 1.510 . S
C1516 C1512 1.401 . S
C1516 C1515 1.396 . S
C1517 C1512 1.499 . S
C1517 H1518 0.959 . S
C1517 H1519 0.960 . S
C1517 H1520 0.961 . S
H1518 C1517 0.959 . S
H1519 C1517 0.960 . S
H1520 C1517 0.961 . S
O1521 Co1496 1.967 . S
O1521 C1529 1.258 . S
O1522 Co1497 1.941 . S
O1522 C1529 1.266 . S
H1523 C1525 0.959 . S
H1524 C1525 0.961 . S
C1525 C1515 1.510 . S
C1525 H1523 0.959 . S
C1525 H1524 0.961 . S
C1525 H1526 0.960 . S
H1526 C1525 0.960 . S
H1527 N1507 0.862 . S
O1528 Co1496 1.920 . S
O1528 C1501 1.289 . S
C1529 O1521 1.258 . S
C1529 O1522 1.266 . S
Co1530 O1533 1.970 . S
Co1530 N1547 1.989 . S
Co1530 O1555 1.967 . S
Co1530 O1562 1.920 . S
Co1531 O1534 1.966 . S
Co1531 N1540 2.022 . S
Co1531 N1548 1.993 . S
Co1531 O1556 1.941 . S
C1532 O1533 1.258 . S
C1532 O1534 1.263 . S
O1533 Co1530 1.970 . S
O1533 C1532 1.258 . S
O1534 Co1531 1.966 . S
O1534 C1532 1.263 . S
C1535 O1536 1.235 . S
C1535 O1562 1.289 . S
O1536 C1535 1.235 . S
C1537 C1539 1.400 . S
C1537 N1540 1.351 . S
C1537 C1542 1.501 . S
C1538 C1539 1.387 . S
C1538 N1541 1.341 . S
C1539 C1537 1.400 . S
C1539 C1538 1.387 . S
N1540 Co1531 2.022 . S
N1540 C1537 1.351 . S
N1540 N1541 1.365 . S
N1541 C1538 1.341 . S
N1541 N1540 1.365 . S
N1541 H1561 0.862 . S
C1542 C1537 1.501 . S
C1542 H1543 0.961 . S
C1542 H1544 0.961 . S
C1542 H1545 0.960 . S
H1543 C1542 0.961 . S
H1544 C1542 0.961 . S
H1545 C1542 0.960 . S
C1546 N1547 1.342 . S
C1546 C1550 1.401 . S
C1546 C1551 1.499 . S
N1547 Co1530 1.989 . S
N1547 C1546 1.342 . S
N1547 N1548 1.388 . S
N1548 Co1531 1.993 . S
N1548 N1547 1.388 . S
N1548 C1549 1.346 . S
C1549 N1548 1.346 . S
C1549 C1550 1.396 . S
C1549 C1559 1.510 . S
C1550 C1546 1.401 . S
C1550 C1549 1.396 . S
C1551 C1546 1.499 . S
C1551 H1552 0.959 . S
C1551 H1553 0.960 . S
C1551 H1554 0.961 . S
H1552 C1551 0.959 . S
H1553 C1551 0.960 . S
H1554 C1551 0.961 . S
O1555 Co1530 1.967 . S
O1555 C1563 1.258 . S
O1556 Co1531 1.941 . S
O1556 C1563 1.266 . S
H1557 C1559 0.959 . S
H1558 C1559 0.961 . S
C1559 C1549 1.510 . S
C1559 H1557 0.959 . S
C1559 H1558 0.961 . S
C1559 H1560 0.960 . S
H1560 C1559 0.960 . S
H1561 N1541 0.862 . S
O1562 Co1530 1.920 . S
O1562 C1535 1.289 . S
C1563 O1555 1.258 . S
C1563 O1556 1.266 . S
Co1564 O1567 1.970 . S
Co1564 N1581 1.989 . S
Co1564 O1589 1.967 . S
Co1564 O1596 1.920 . S
Co1565 O1568 1.966 . S
Co1565 N1574 2.022 . S
Co1565 N1582 1.993 . S
Co1565 O1590 1.941 . S
C1566 O1567 1.258 . S
C1566 O1568 1.263 . S
O1567 Co1564 1.970 . S
O1567 C1566 1.258 . S
O1568 Co1565 1.966 . S
O1568 C1566 1.263 . S
C1569 O1570 1.235 . S
C1569 O1596 1.289 . S
O1570 C1569 1.235 . S
C1571 C1573 1.400 . S
C1571 N1574 1.351 . S
C1571 C1576 1.501 . S
C1572 C1573 1.387 . S
C1572 N1575 1.341 . S
C1573 C1571 1.400 . S
C1573 C1572 1.387 . S
N1574 Co1565 2.022 . S
N1574 C1571 1.351 . S
N1574 N1575 1.365 . S
N1575 C1572 1.341 . S
N1575 N1574 1.365 . S
N1575 H1595 0.862 . S
C1576 C1571 1.501 . S
C1576 H1577 0.961 . S
C1576 H1578 0.961 . S
C1576 H1579 0.960 . S
H1577 C1576 0.961 . S
H1578 C1576 0.961 . S
H1579 C1576 0.960 . S
C1580 N1581 1.342 . S
C1580 C1584 1.401 . S
C1580 C1585 1.499 . S
N1581 Co1564 1.989 . S
N1581 C1580 1.342 . S
N1581 N1582 1.388 . S
N1582 Co1565 1.993 . S
N1582 N1581 1.388 . S
N1582 C1583 1.346 . S
C1583 N1582 1.346 . S
C1583 C1584 1.396 . S
C1583 C1593 1.510 . S
C1584 C1580 1.401 . S
C1584 C1583 1.396 . S
C1585 C1580 1.499 . S
C1585 H1586 0.959 . S
C1585 H1587 0.960 . S
C1585 H1588 0.961 . S
H1586 C1585 0.959 . S
H1587 C1585 0.960 . S
H1588 C1585 0.961 . S
O1589 Co1564 1.967 . S
O1589 C1597 1.258 . S
O1590 Co1565 1.941 . S
O1590 C1597 1.266 . S
H1591 C1593 0.959 . S
H1592 C1593 0.961 . S
C1593 C1583 1.510 . S
C1593 H1591 0.959 . S
C1593 H1592 0.961 . S
C1593 H1594 0.960 . S
H1594 C1593 0.960 . S
H1595 N1575 0.862 . S
O1596 Co1564 1.920 . S
O1596 C1569 1.289 . S
C1597 O1589 1.258 . S
C1597 O1590 1.266 . S
Co1598 O1601 1.970 . S
Co1598 N1615 1.989 . S
Co1598 O1623 1.967 . S
Co1598 O1630 1.920 . S
Co1599 O1602 1.966 . S
Co1599 N1608 2.022 . S
Co1599 N1616 1.993 . S
Co1599 O1624 1.941 . S
C1600 O1601 1.258 . S
C1600 O1602 1.263 . S
O1601 Co1598 1.970 . S
O1601 C1600 1.258 . S
O1602 Co1599 1.966 . S
O1602 C1600 1.263 . S
C1603 O1604 1.235 . S
C1603 O1630 1.289 . S
O1604 C1603 1.235 . S
C1605 C1607 1.400 . S
C1605 N1608 1.351 . S
C1605 C1610 1.501 . S
C1606 C1607 1.387 . S
C1606 N1609 1.341 . S
C1607 C1605 1.400 . S
C1607 C1606 1.387 . S
N1608 Co1599 2.022 . S
N1608 C1605 1.351 . S
N1608 N1609 1.365 . S
N1609 C1606 1.341 . S
N1609 N1608 1.365 . S
N1609 H1629 0.862 . S
C1610 C1605 1.501 . S
C1610 H1611 0.961 . S
C1610 H1612 0.961 . S
C1610 H1613 0.960 . S
H1611 C1610 0.961 . S
H1612 C1610 0.961 . S
H1613 C1610 0.960 . S
C1614 N1615 1.342 . S
C1614 C1618 1.401 . S
C1614 C1619 1.499 . S
N1615 Co1598 1.989 . S
N1615 C1614 1.342 . S
N1615 N1616 1.388 . S
N1616 Co1599 1.993 . S
N1616 N1615 1.388 . S
N1616 C1617 1.346 . S
C1617 N1616 1.346 . S
C1617 C1618 1.396 . S
C1617 C1627 1.510 . S
C1618 C1614 1.401 . S
C1618 C1617 1.396 . S
C1619 C1614 1.499 . S
C1619 H1620 0.959 . S
C1619 H1621 0.960 . S
C1619 H1622 0.961 . S
H1620 C1619 0.959 . S
H1621 C1619 0.960 . S
H1622 C1619 0.961 . S
O1623 Co1598 1.967 . S
O1623 C1631 1.258 . S
O1624 Co1599 1.941 . S
O1624 C1631 1.266 . S
H1625 C1627 0.959 . S
H1626 C1627 0.961 . S
C1627 C1617 1.510 . S
C1627 H1625 0.959 . S
C1627 H1626 0.961 . S
C1627 H1628 0.960 . S
H1628 C1627 0.960 . S
H1629 N1609 0.862 . S
O1630 Co1598 1.920 . S
O1630 C1603 1.289 . S
C1631 O1623 1.258 . S
C1631 O1624 1.266 . S
H1632 C1638 0.930 . S
H1633 C1641 0.930 . S
H1634 C1642 0.930 . S
H1635 C1643 0.930 . S
H1636 C1646 0.930 . S
H1637 C1647 0.930 . S
C1638 H1632 0.930 . S
C1638 C1639 1.355 . S
C1638 C1640 1.415 . S
C1639 C1638 1.355 . S
C1639 C1641 1.419 . S
C1640 C1638 1.415 . S
C1640 C1645 1.425 . S
C1640 C1647 1.409 . S
C1641 H1633 0.930 . S
C1641 C1639 1.419 . S
C1641 C1642 1.362 . S
C1642 H1634 0.930 . S
C1642 C1641 1.362 . S
C1642 C1645 1.409 . S
C1643 H1635 0.930 . S
C1643 C1644 1.355 . S
C1643 C1645 1.415 . S
C1644 C1643 1.355 . S
C1644 C1646 1.419 . S
C1645 C1640 1.425 . S
C1645 C1642 1.409 . S
C1645 C1643 1.415 . S
C1646 H1636 0.930 . S
C1646 C1644 1.419 . S
C1646 C1647 1.362 . S
C1647 H1637 0.930 . S
C1647 C1640 1.409 . S
C1647 C1646 1.362 . S
H1648 C1654 0.930 . S
H1649 C1657 0.930 . S
H1650 C1658 0.930 . S
H1651 C1659 0.930 . S
H1652 C1662 0.930 . S
H1653 C1663 0.930 . S
C1654 H1648 0.930 . S
C1654 C1655 1.355 . S
C1654 C1656 1.415 . S
C1655 C1654 1.355 . S
C1655 C1657 1.419 . S
C1656 C1654 1.415 . S
C1656 C1661 1.425 . S
C1656 C1663 1.409 . S
C1657 H1649 0.930 . S
C1657 C1655 1.419 . S
C1657 C1658 1.362 . S
C1658 H1650 0.930 . S
C1658 C1657 1.362 . S
C1658 C1661 1.409 . S
C1659 H1651 0.930 . S
C1659 C1660 1.355 . S
C1659 C1661 1.415 . S
C1660 C1659 1.355 . S
C1660 C1662 1.419 . S
C1661 C1656 1.425 . S
C1661 C1658 1.409 . S
C1661 C1659 1.415 . S
C1662 H1652 0.930 . S
C1662 C1660 1.419 . S
C1662 C1663 1.362 . S
C1663 H1653 0.930 . S
C1663 C1656 1.409 . S
C1663 C1662 1.362 . S
H1664 C1670 0.930 . S
H1665 C1673 0.930 . S
H1666 C1674 0.930 . S
H1667 C1675 0.930 . S
H1668 C1678 0.930 . S
H1669 C1679 0.930 . S
C1670 H1664 0.930 . S
C1670 C1671 1.355 . S
C1670 C1672 1.415 . S
C1671 C1670 1.355 . S
C1671 C1673 1.419 . S
C1672 C1670 1.415 . S
C1672 C1677 1.425 . S
C1672 C1679 1.409 . S
C1673 H1665 0.930 . S
C1673 C1671 1.419 . S
C1673 C1674 1.362 . S
C1674 H1666 0.930 . S
C1674 C1673 1.362 . S
C1674 C1677 1.409 . S
C1675 H1667 0.930 . S
C1675 C1676 1.355 . S
C1675 C1677 1.415 . S
C1676 C1675 1.355 . S
C1676 C1678 1.419 . S
C1677 C1672 1.425 . S
C1677 C1674 1.409 . S
C1677 C1675 1.415 . S
C1678 H1668 0.930 . S
C1678 C1676 1.419 . S
C1678 C1679 1.362 . S
C1679 H1669 0.930 . S
C1679 C1672 1.409 . S
C1679 C1678 1.362 . S
H1680 C1686 0.930 . S
H1681 C1689 0.930 . S
H1682 C1690 0.930 . S
H1683 C1691 0.930 . S
H1684 C1694 0.930 . S
H1685 C1695 0.930 . S
C1686 H1680 0.930 . S
C1686 C1687 1.355 . S
C1686 C1688 1.415 . S
C1687 C1686 1.355 . S
C1687 C1689 1.419 . S
C1688 C1686 1.415 . S
C1688 C1693 1.425 . S
C1688 C1695 1.409 . S
C1689 H1681 0.930 . S
C1689 C1687 1.419 . S
C1689 C1690 1.362 . S
C1690 H1682 0.930 . S
C1690 C1689 1.362 . S
C1690 C1693 1.409 . S
C1691 H1683 0.930 . S
C1691 C1692 1.355 . S
C1691 C1693 1.415 . S
C1692 C1691 1.355 . S
C1692 C1694 1.419 . S
C1693 C1688 1.425 . S
C1693 C1690 1.409 . S
C1693 C1691 1.415 . S
C1694 H1684 0.930 . S
C1694 C1692 1.419 . S
C1694 C1695 1.362 . S
C1695 H1685 0.930 . S
C1695 C1688 1.409 . S
C1695 C1694 1.362 . S
H1696 C1702 0.930 . S
H1697 C1705 0.930 . S
H1698 C1706 0.930 . S
H1699 C1707 0.930 . S
H1700 C1710 0.930 . S
H1701 C1711 0.930 . S
C1702 H1696 0.930 . S
C1702 C1703 1.355 . S
C1702 C1704 1.415 . S
C1703 C1702 1.355 . S
C1703 C1705 1.419 . S
C1704 C1702 1.415 . S
C1704 C1709 1.425 . S
C1704 C1711 1.409 . S
C1705 H1697 0.930 . S
C1705 C1703 1.419 . S
C1705 C1706 1.362 . S
C1706 H1698 0.930 . S
C1706 C1705 1.362 . S
C1706 C1709 1.409 . S
C1707 H1699 0.930 . S
C1707 C1708 1.355 . S
C1707 C1709 1.415 . S
C1708 C1707 1.355 . S
C1708 C1710 1.419 . S
C1709 C1704 1.425 . S
C1709 C1706 1.409 . S
C1709 C1707 1.415 . S
C1710 H1700 0.930 . S
C1710 C1708 1.419 . S
C1710 C1711 1.362 . S
C1711 H1701 0.930 . S
C1711 C1704 1.409 . S
C1711 C1710 1.362 . S
H1712 C1718 0.930 . S
H1713 C1721 0.930 . S
H1714 C1722 0.930 . S
H1715 C1723 0.930 . S
H1716 C1726 0.930 . S
H1717 C1727 0.930 . S
C1718 H1712 0.930 . S
C1718 C1719 1.355 . S
C1718 C1720 1.415 . S
C1719 C1718 1.355 . S
C1719 C1721 1.419 . S
C1720 C1718 1.415 . S
C1720 C1725 1.425 . S
C1720 C1727 1.409 . S
C1721 H1713 0.930 . S
C1721 C1719 1.419 . S
C1721 C1722 1.362 . S
C1722 H1714 0.930 . S
C1722 C1721 1.362 . S
C1722 C1725 1.409 . S
C1723 H1715 0.930 . S
C1723 C1724 1.355 . S
C1723 C1725 1.415 . S
C1724 C1723 1.355 . S
C1724 C1726 1.419 . S
C1725 C1720 1.425 . S
C1725 C1722 1.409 . S
C1725 C1723 1.415 . S
C1726 H1716 0.930 . S
C1726 C1724 1.419 . S
C1726 C1727 1.362 . S
C1727 H1717 0.930 . S
C1727 C1720 1.409 . S
C1727 C1726 1.362 . S
H1728 C1734 0.930 . S
H1729 C1737 0.930 . S
H1730 C1738 0.930 . S
H1731 C1739 0.930 . S
H1732 C1742 0.930 . S
H1733 C1743 0.930 . S
C1734 H1728 0.930 . S
C1734 C1735 1.355 . S
C1734 C1736 1.415 . S
C1735 C1734 1.355 . S
C1735 C1737 1.419 . S
C1736 C1734 1.415 . S
C1736 C1741 1.425 . S
C1736 C1743 1.409 . S
C1737 H1729 0.930 . S
C1737 C1735 1.419 . S
C1737 C1738 1.362 . S
C1738 H1730 0.930 . S
C1738 C1737 1.362 . S
C1738 C1741 1.409 . S
C1739 H1731 0.930 . S
C1739 C1740 1.355 . S
C1739 C1741 1.415 . S
C1740 C1739 1.355 . S
C1740 C1742 1.419 . S
C1741 C1736 1.425 . S
C1741 C1738 1.409 . S
C1741 C1739 1.415 . S
C1742 H1732 0.930 . S
C1742 C1740 1.419 . S
C1742 C1743 1.362 . S
C1743 H1733 0.930 . S
C1743 C1736 1.409 . S
C1743 C1742 1.362 . S
H1744 C1750 0.930 . S
H1745 C1753 0.930 . S
H1746 C1754 0.930 . S
H1747 C1755 0.930 . S
H1748 C1758 0.930 . S
H1749 C1759 0.930 . S
C1750 H1744 0.930 . S
C1750 C1751 1.355 . S
C1750 C1752 1.415 . S
C1751 C1750 1.355 . S
C1751 C1753 1.419 . S
C1752 C1750 1.415 . S
C1752 C1757 1.425 . S
C1752 C1759 1.409 . S
C1753 H1745 0.930 . S
C1753 C1751 1.419 . S
C1753 C1754 1.362 . S
C1754 H1746 0.930 . S
C1754 C1753 1.362 . S
C1754 C1757 1.409 . S
C1755 H1747 0.930 . S
C1755 C1756 1.355 . S
C1755 C1757 1.415 . S
C1756 C1755 1.355 . S
C1756 C1758 1.419 . S
C1757 C1752 1.425 . S
C1757 C1754 1.409 . S
C1757 C1755 1.415 . S
C1758 H1748 0.930 . S
C1758 C1756 1.419 . S
C1758 C1759 1.362 . S
C1759 H1749 0.930 . S
C1759 C1752 1.409 . S
C1759 C1758 1.362 . S
H1760 C1766 0.930 . S
H1761 C1769 0.930 . S
H1762 C1770 0.930 . S
H1763 C1771 0.930 . S
H1764 C1774 0.930 . S
H1765 C1775 0.930 . S
C1766 H1760 0.930 . S
C1766 C1767 1.355 . S
C1766 C1768 1.415 . S
C1767 C1766 1.355 . S
C1767 C1769 1.419 . S
C1768 C1766 1.415 . S
C1768 C1773 1.425 . S
C1768 C1775 1.409 . S
C1769 H1761 0.930 . S
C1769 C1767 1.419 . S
C1769 C1770 1.362 . S
C1770 H1762 0.930 . S
C1770 C1769 1.362 . S
C1770 C1773 1.409 . S
C1771 H1763 0.930 . S
C1771 C1772 1.355 . S
C1771 C1773 1.415 . S
C1772 C1771 1.355 . S
C1772 C1774 1.419 . S
C1773 C1768 1.425 . S
C1773 C1770 1.409 . S
C1773 C1771 1.415 . S
C1774 H1764 0.930 . S
C1774 C1772 1.419 . S
C1774 C1775 1.362 . S
C1775 H1765 0.930 . S
C1775 C1768 1.409 . S
C1775 C1774 1.362 . S
H1776 C1782 0.930 . S
H1777 C1785 0.930 . S
H1778 C1786 0.930 . S
H1779 C1787 0.930 . S
H1780 C1790 0.930 . S
H1781 C1791 0.930 . S
C1782 H1776 0.930 . S
C1782 C1783 1.355 . S
C1782 C1784 1.415 . S
C1783 C1782 1.355 . S
C1783 C1785 1.419 . S
C1784 C1782 1.415 . S
C1784 C1789 1.425 . S
C1784 C1791 1.409 . S
C1785 H1777 0.930 . S
C1785 C1783 1.419 . S
C1785 C1786 1.362 . S
C1786 H1778 0.930 . S
C1786 C1785 1.362 . S
C1786 C1789 1.409 . S
C1787 H1779 0.930 . S
C1787 C1788 1.355 . S
C1787 C1789 1.415 . S
C1788 C1787 1.355 . S
C1788 C1790 1.419 . S
C1789 C1784 1.425 . S
C1789 C1786 1.409 . S
C1789 C1787 1.415 . S
C1790 H1780 0.930 . S
C1790 C1788 1.419 . S
C1790 C1791 1.362 . S
C1791 H1781 0.930 . S
C1791 C1784 1.409 . S
C1791 C1790 1.362 . S
H1792 C1798 0.930 . S
H1793 C1801 0.930 . S
H1794 C1802 0.930 . S
H1795 C1803 0.930 . S
H1796 C1806 0.930 . S
H1797 C1807 0.930 . S
C1798 H1792 0.930 . S
C1798 C1799 1.355 . S
C1798 C1800 1.415 . S
C1799 C1798 1.355 . S
C1799 C1801 1.419 . S
C1800 C1798 1.415 . S
C1800 C1805 1.425 . S
C1800 C1807 1.409 . S
C1801 H1793 0.930 . S
C1801 C1799 1.419 . S
C1801 C1802 1.362 . S
C1802 H1794 0.930 . S
C1802 C1801 1.362 . S
C1802 C1805 1.409 . S
C1803 H1795 0.930 . S
C1803 C1804 1.355 . S
C1803 C1805 1.415 . S
C1804 C1803 1.355 . S
C1804 C1806 1.419 . S
C1805 C1800 1.425 . S
C1805 C1802 1.409 . S
C1805 C1803 1.415 . S
C1806 H1796 0.930 . S
C1806 C1804 1.419 . S
C1806 C1807 1.362 . S
C1807 H1797 0.930 . S
C1807 C1800 1.409 . S
C1807 C1806 1.362 . S
H1808 C1814 0.930 . S
H1809 C1817 0.930 . S
H1810 C1818 0.930 . S
H1811 C1819 0.930 . S
H1812 C1822 0.930 . S
H1813 C1823 0.930 . S
C1814 H1808 0.930 . S
C1814 C1815 1.355 . S
C1814 C1816 1.415 . S
C1815 C1814 1.355 . S
C1815 C1817 1.419 . S
C1816 C1814 1.415 . S
C1816 C1821 1.425 . S
C1816 C1823 1.409 . S
C1817 H1809 0.930 . S
C1817 C1815 1.419 . S
C1817 C1818 1.362 . S
C1818 H1810 0.930 . S
C1818 C1817 1.362 . S
C1818 C1821 1.409 . S
C1819 H1811 0.930 . S
C1819 C1820 1.355 . S
C1819 C1821 1.415 . S
C1820 C1819 1.355 . S
C1820 C1822 1.419 . S
C1821 C1816 1.425 . S
C1821 C1818 1.409 . S
C1821 C1819 1.415 . S
C1822 H1812 0.930 . S
C1822 C1820 1.419 . S
C1822 C1823 1.362 . S
C1823 H1813 0.930 . S
C1823 C1816 1.409 . S
C1823 C1822 1.362 . S
H1824 C1830 0.930 . S
H1825 C1833 0.930 . S
H1826 C1834 0.930 . S
H1827 C1835 0.930 . S
H1828 C1838 0.930 . S
H1829 C1839 0.930 . S
C1830 H1824 0.930 . S
C1830 C1831 1.355 . S
C1830 C1832 1.415 . S
C1831 C1830 1.355 . S
C1831 C1833 1.419 . S
C1832 C1830 1.415 . S
C1832 C1837 1.425 . S
C1832 C1839 1.409 . S
C1833 H1825 0.930 . S
C1833 C1831 1.419 . S
C1833 C1834 1.362 . S
C1834 H1826 0.930 . S
C1834 C1833 1.362 . S
C1834 C1837 1.409 . S
C1835 H1827 0.930 . S
C1835 C1836 1.355 . S
C1835 C1837 1.415 . S
C1836 C1835 1.355 . S
C1836 C1838 1.419 . S
C1837 C1832 1.425 . S
C1837 C1834 1.409 . S
C1837 C1835 1.415 . S
C1838 H1828 0.930 . S
C1838 C1836 1.419 . S
C1838 C1839 1.362 . S
C1839 H1829 0.930 . S
C1839 C1832 1.409 . S
C1839 C1838 1.362 . S
H1840 C1846 0.930 . S
H1841 C1849 0.930 . S
H1842 C1850 0.930 . S
H1843 C1851 0.930 . S
H1844 C1854 0.930 . S
H1845 C1855 0.930 . S
C1846 H1840 0.930 . S
C1846 C1847 1.355 . S
C1846 C1848 1.415 . S
C1847 C1846 1.355 . S
C1847 C1849 1.419 . S
C1848 C1846 1.415 . S
C1848 C1853 1.425 . S
C1848 C1855 1.409 . S
C1849 H1841 0.930 . S
C1849 C1847 1.419 . S
C1849 C1850 1.362 . S
C1850 H1842 0.930 . S
C1850 C1849 1.362 . S
C1850 C1853 1.409 . S
C1851 H1843 0.930 . S
C1851 C1852 1.355 . S
C1851 C1853 1.415 . S
C1852 C1851 1.355 . S
C1852 C1854 1.419 . S
C1853 C1848 1.425 . S
C1853 C1850 1.409 . S
C1853 C1851 1.415 . S
C1854 H1844 0.930 . S
C1854 C1852 1.419 . S
C1854 C1855 1.362 . S
C1855 H1845 0.930 . S
C1855 C1848 1.409 . S
C1855 C1854 1.362 . S
H1856 C1862 0.930 . S
H1857 C1865 0.930 . S
H1858 C1866 0.930 . S
H1859 C1867 0.930 . S
H1860 C1870 0.930 . S
H1861 C1871 0.930 . S
C1862 H1856 0.930 . S
C1862 C1863 1.355 . S
C1862 C1864 1.415 . S
C1863 C1862 1.355 . S
C1863 C1865 1.419 . S
C1864 C1862 1.415 . S
C1864 C1869 1.425 . S
C1864 C1871 1.409 . S
C1865 H1857 0.930 . S
C1865 C1863 1.419 . S
C1865 C1866 1.362 . S
C1866 H1858 0.930 . S
C1866 C1865 1.362 . S
C1866 C1869 1.409 . S
C1867 H1859 0.930 . S
C1867 C1868 1.355 . S
C1867 C1869 1.415 . S
C1868 C1867 1.355 . S
C1868 C1870 1.419 . S
C1869 C1864 1.425 . S
C1869 C1866 1.409 . S
C1869 C1867 1.415 . S
C1870 H1860 0.930 . S
C1870 C1868 1.419 . S
C1870 C1871 1.362 . S
C1871 H1861 0.930 . S
C1871 C1864 1.409 . S
C1871 C1870 1.362 . S
H1872 C1878 0.930 . S
H1873 C1881 0.930 . S
H1874 C1882 0.930 . S
H1875 C1883 0.930 . S
H1876 C1886 0.930 . S
H1877 C1887 0.930 . S
C1878 H1872 0.930 . S
C1878 C1879 1.355 . S
C1878 C1880 1.415 . S
C1879 C1878 1.355 . S
C1879 C1881 1.419 . S
C1880 C1878 1.415 . S
C1880 C1885 1.425 . S
C1880 C1887 1.409 . S
C1881 H1873 0.930 . S
C1881 C1879 1.419 . S
C1881 C1882 1.362 . S
C1882 H1874 0.930 . S
C1882 C1881 1.362 . S
C1882 C1885 1.409 . S
C1883 H1875 0.930 . S
C1883 C1884 1.355 . S
C1883 C1885 1.415 . S
C1884 C1883 1.355 . S
C1884 C1886 1.419 . S
C1885 C1880 1.425 . S
C1885 C1882 1.409 . S
C1885 C1883 1.415 . S
C1886 H1876 0.930 . S
C1886 C1884 1.419 . S
C1886 C1887 1.362 . S
C1887 H1877 0.930 . S
C1887 C1880 1.409 . S
C1887 C1886 1.362 . S
H1888 C1894 0.930 . S
H1889 C1897 0.930 . S
H1890 C1898 0.930 . S
H1891 C1899 0.930 . S
H1892 C1902 0.930 . S
H1893 C1903 0.930 . S
C1894 H1888 0.930 . S
C1894 C1895 1.355 . S
C1894 C1896 1.415 . S
C1895 C1894 1.355 . S
C1895 C1897 1.419 . S
C1896 C1894 1.415 . S
C1896 C1901 1.425 . S
C1896 C1903 1.409 . S
C1897 H1889 0.930 . S
C1897 C1895 1.419 . S
C1897 C1898 1.362 . S
C1898 H1890 0.930 . S
C1898 C1897 1.362 . S
C1898 C1901 1.409 . S
C1899 H1891 0.930 . S
C1899 C1900 1.355 . S
C1899 C1901 1.415 . S
C1900 C1899 1.355 . S
C1900 C1902 1.419 . S
C1901 C1896 1.425 . S
C1901 C1898 1.409 . S
C1901 C1899 1.415 . S
C1902 H1892 0.930 . S
C1902 C1900 1.419 . S
C1902 C1903 1.362 . S
C1903 H1893 0.930 . S
C1903 C1896 1.409 . S
C1903 C1902 1.362 . S
H1904 C1910 0.930 . S
H1905 C1913 0.930 . S
H1906 C1914 0.930 . S
H1907 C1915 0.930 . S
H1908 C1918 0.930 . S
H1909 C1919 0.930 . S
C1910 H1904 0.930 . S
C1910 C1911 1.355 . S
C1910 C1912 1.415 . S
C1911 C1910 1.355 . S
C1911 C1913 1.419 . S
C1912 C1910 1.415 . S
C1912 C1917 1.425 . S
C1912 C1919 1.409 . S
C1913 H1905 0.930 . S
C1913 C1911 1.419 . S
C1913 C1914 1.362 . S
C1914 H1906 0.930 . S
C1914 C1913 1.362 . S
C1914 C1917 1.409 . S
C1915 H1907 0.930 . S
C1915 C1916 1.355 . S
C1915 C1917 1.415 . S
C1916 C1915 1.355 . S
C1916 C1918 1.419 . S
C1917 C1912 1.425 . S
C1917 C1914 1.409 . S
C1917 C1915 1.415 . S
C1918 H1908 0.930 . S
C1918 C1916 1.419 . S
C1918 C1919 1.362 . S
C1919 H1909 0.930 . S
C1919 C1912 1.409 . S
C1919 C1918 1.362 . S
H1920 C1926 0.930 . S
H1921 C1929 0.930 . S
H1922 C1930 0.930 . S
H1923 C1931 0.930 . S
H1924 C1934 0.930 . S
H1925 C1935 0.930 . S
C1926 H1920 0.930 . S
C1926 C1927 1.355 . S
C1926 C1928 1.415 . S
C1927 C1926 1.355 . S
C1927 C1929 1.419 . S
C1928 C1926 1.415 . S
C1928 C1933 1.425 . S
C1928 C1935 1.409 . S
C1929 H1921 0.930 . S
C1929 C1927 1.419 . S
C1929 C1930 1.362 . S
C1930 H1922 0.930 . S
C1930 C1929 1.362 . S
C1930 C1933 1.409 . S
C1931 H1923 0.930 . S
C1931 C1932 1.355 . S
C1931 C1933 1.415 . S
C1932 C1931 1.355 . S
C1932 C1934 1.419 . S
C1933 C1928 1.425 . S
C1933 C1930 1.409 . S
C1933 C1931 1.415 . S
C1934 H1924 0.930 . S
C1934 C1932 1.419 . S
C1934 C1935 1.362 . S
C1935 H1925 0.930 . S
C1935 C1928 1.409 . S
C1935 C1934 1.362 . S
H1936 C1942 0.930 . S
H1937 C1945 0.930 . S
H1938 C1946 0.930 . S
H1939 C1947 0.930 . S
H1940 C1950 0.930 . S
H1941 C1951 0.930 . S
C1942 H1936 0.930 . S
C1942 C1943 1.355 . S
C1942 C1944 1.415 . S
C1943 C1942 1.355 . S
C1943 C1945 1.419 . S
C1944 C1942 1.415 . S
C1944 C1949 1.425 . S
C1944 C1951 1.409 . S
C1945 H1937 0.930 . S
C1945 C1943 1.419 . S
C1945 C1946 1.362 . S
C1946 H1938 0.930 . S
C1946 C1945 1.362 . S
C1946 C1949 1.409 . S
C1947 H1939 0.930 . S
C1947 C1948 1.355 . S
C1947 C1949 1.415 . S
C1948 C1947 1.355 . S
C1948 C1950 1.419 . S
C1949 C1944 1.425 . S
C1949 C1946 1.409 . S
C1949 C1947 1.415 . S
C1950 H1940 0.930 . S
C1950 C1948 1.419 . S
C1950 C1951 1.362 . S
C1951 H1941 0.930 . S
C1951 C1944 1.409 . S
C1951 C1950 1.362 . S
H1952 C1958 0.930 . S
H1953 C1961 0.930 . S
H1954 C1962 0.930 . S
H1955 C1963 0.930 . S
H1956 C1966 0.930 . S
H1957 C1967 0.930 . S
C1958 H1952 0.930 . S
C1958 C1959 1.355 . S
C1958 C1960 1.415 . S
C1959 C1958 1.355 . S
C1959 C1961 1.419 . S
C1960 C1958 1.415 . S
C1960 C1965 1.425 . S
C1960 C1967 1.409 . S
C1961 H1953 0.930 . S
C1961 C1959 1.419 . S
C1961 C1962 1.362 . S
C1962 H1954 0.930 . S
C1962 C1961 1.362 . S
C1962 C1965 1.409 . S
C1963 H1955 0.930 . S
C1963 C1964 1.355 . S
C1963 C1965 1.415 . S
C1964 C1963 1.355 . S
C1964 C1966 1.419 . S
C1965 C1960 1.425 . S
C1965 C1962 1.409 . S
C1965 C1963 1.415 . S
C1966 H1956 0.930 . S
C1966 C1964 1.419 . S
C1966 C1967 1.362 . S
C1967 H1957 0.930 . S
C1967 C1960 1.409 . S
C1967 C1966 1.362 . S
H1968 C1974 0.930 . S
H1969 C1977 0.930 . S
H1970 C1978 0.930 . S
H1971 C1979 0.930 . S
H1972 C1982 0.930 . S
H1973 C1983 0.930 . S
C1974 H1968 0.930 . S
C1974 C1975 1.355 . S
C1974 C1976 1.415 . S
C1975 C1974 1.355 . S
C1975 C1977 1.419 . S
C1976 C1974 1.415 . S
C1976 C1981 1.425 . S
C1976 C1983 1.409 . S
C1977 H1969 0.930 . S
C1977 C1975 1.419 . S
C1977 C1978 1.362 . S
C1978 H1970 0.930 . S
C1978 C1977 1.362 . S
C1978 C1981 1.409 . S
C1979 H1971 0.930 . S
C1979 C1980 1.355 . S
C1979 C1981 1.415 . S
C1980 C1979 1.355 . S
C1980 C1982 1.419 . S
C1981 C1976 1.425 . S
C1981 C1978 1.409 . S
C1981 C1979 1.415 . S
C1982 H1972 0.930 . S
C1982 C1980 1.419 . S
C1982 C1983 1.362 . S
C1983 H1973 0.930 . S
C1983 C1976 1.409 . S
C1983 C1982 1.362 . S
H1984 C1990 0.930 . S
H1985 C1993 0.930 . S
H1986 C1994 0.930 . S
H1987 C1995 0.930 . S
H1988 C1998 0.930 . S
H1989 C1999 0.930 . S
C1990 H1984 0.930 . S
C1990 C1991 1.355 . S
C1990 C1992 1.415 . S
C1991 C1990 1.355 . S
C1991 C1993 1.419 . S
C1992 C1990 1.415 . S
C1992 C1997 1.425 . S
C1992 C1999 1.409 . S
C1993 H1985 0.930 . S
C1993 C1991 1.419 . S
C1993 C1994 1.362 . S
C1994 H1986 0.930 . S
C1994 C1993 1.362 . S
C1994 C1997 1.409 . S
C1995 H1987 0.930 . S
C1995 C1996 1.355 . S
C1995 C1997 1.415 . S
C1996 C1995 1.355 . S
C1996 C1998 1.419 . S
C1997 C1992 1.425 . S
C1997 C1994 1.409 . S
C1997 C1995 1.415 . S
C1998 H1988 0.930 . S
C1998 C1996 1.419 . S
C1998 C1999 1.362 . S
C1999 H1989 0.930 . S
C1999 C1992 1.409 . S
C1999 C1998 1.362 . S
H2000 C2006 0.930 . S
H2001 C2009 0.930 . S
H2002 C2010 0.930 . S
H2003 C2011 0.930 . S
H2004 C2014 0.930 . S
H2005 C2015 0.930 . S
C2006 H2000 0.930 . S
C2006 C2007 1.355 . S
C2006 C2008 1.415 . S
C2007 C2006 1.355 . S
C2007 C2009 1.419 . S
C2008 C2006 1.415 . S
C2008 C2013 1.425 . S
C2008 C2015 1.409 . S
C2009 H2001 0.930 . S
C2009 C2007 1.419 . S
C2009 C2010 1.362 . S
C2010 H2002 0.930 . S
C2010 C2009 1.362 . S
C2010 C2013 1.409 . S
C2011 H2003 0.930 . S
C2011 C2012 1.355 . S
C2011 C2013 1.415 . S
C2012 C2011 1.355 . S
C2012 C2014 1.419 . S
C2013 C2008 1.425 . S
C2013 C2010 1.409 . S
C2013 C2011 1.415 . S
C2014 H2004 0.930 . S
C2014 C2012 1.419 . S
C2014 C2015 1.362 . S
C2015 H2005 0.930 . S
C2015 C2008 1.409 . S
C2015 C2014 1.362 . S
H2016 C2022 0.930 . S
H2017 C2025 0.930 . S
H2018 C2026 0.930 . S
H2019 C2027 0.930 . S
H2020 C2030 0.930 . S
H2021 C2031 0.930 . S
C2022 H2016 0.930 . S
C2022 C2023 1.355 . S
C2022 C2024 1.415 . S
C2023 C2022 1.355 . S
C2023 C2025 1.419 . S
C2024 C2022 1.415 . S
C2024 C2029 1.425 . S
C2024 C2031 1.409 . S
C2025 H2017 0.930 . S
C2025 C2023 1.419 . S
C2025 C2026 1.362 . S
C2026 H2018 0.930 . S
C2026 C2025 1.362 . S
C2026 C2029 1.409 . S
C2027 H2019 0.930 . S
C2027 C2028 1.355 . S
C2027 C2029 1.415 . S
C2028 C2027 1.355 . S
C2028 C2030 1.419 . S
C2029 C2024 1.425 . S
C2029 C2026 1.409 . S
C2029 C2027 1.415 . S
C2030 H2020 0.930 . S
C2030 C2028 1.419 . S
C2030 C2031 1.362 . S
C2031 H2021 0.930 . S
C2031 C2024 1.409 . S
C2031 C2030 1.362 . S
H2032 C2038 0.930 . S
H2033 C2041 0.930 . S
H2034 C2042 0.930 . S
H2035 C2043 0.930 . S
H2036 C2046 0.930 . S
H2037 C2047 0.930 . S
C2038 H2032 0.930 . S
C2038 C2039 1.355 . S
C2038 C2040 1.415 . S
C2039 C2038 1.355 . S
C2039 C2041 1.419 . S
C2040 C2038 1.415 . S
C2040 C2045 1.425 . S
C2040 C2047 1.409 . S
C2041 H2033 0.930 . S
C2041 C2039 1.419 . S
C2041 C2042 1.362 . S
C2042 H2034 0.930 . S
C2042 C2041 1.362 . S
C2042 C2045 1.409 . S
C2043 H2035 0.930 . S
C2043 C2044 1.355 . S
C2043 C2045 1.415 . S
C2044 C2043 1.355 . S
C2044 C2046 1.419 . S
C2045 C2040 1.425 . S
C2045 C2042 1.409 . S
C2045 C2043 1.415 . S
C2046 H2036 0.930 . S
C2046 C2044 1.419 . S
C2046 C2047 1.362 . S
C2047 H2037 0.930 . S
C2047 C2040 1.409 . S
C2047 C2046 1.362 . S
H2048 C2054 0.930 . S
H2049 C2057 0.930 . S
H2050 C2058 0.930 . S
H2051 C2059 0.930 . S
H2052 C2062 0.930 . S
H2053 C2063 0.930 . S
C2054 H2048 0.930 . S
C2054 C2055 1.355 . S
C2054 C2056 1.415 . S
C2055 C2054 1.355 . S
C2055 C2057 1.419 . S
C2056 C2054 1.415 . S
C2056 C2061 1.425 . S
C2056 C2063 1.409 . S
C2057 H2049 0.930 . S
C2057 C2055 1.419 . S
C2057 C2058 1.362 . S
C2058 H2050 0.930 . S
C2058 C2057 1.362 . S
C2058 C2061 1.409 . S
C2059 H2051 0.930 . S
C2059 C2060 1.355 . S
C2059 C2061 1.415 . S
C2060 C2059 1.355 . S
C2060 C2062 1.419 . S
C2061 C2056 1.425 . S
C2061 C2058 1.409 . S
C2061 C2059 1.415 . S
C2062 H2052 0.930 . S
C2062 C2060 1.419 . S
C2062 C2063 1.362 . S
C2063 H2053 0.930 . S
C2063 C2056 1.409 . S
C2063 C2062 1.362 . S
H2064 C2070 0.930 . S
H2065 C2073 0.930 . S
H2066 C2074 0.930 . S
H2067 C2075 0.930 . S
H2068 C2078 0.930 . S
H2069 C2079 0.930 . S
C2070 H2064 0.930 . S
C2070 C2071 1.355 . S
C2070 C2072 1.415 . S
C2071 C2070 1.355 . S
C2071 C2073 1.419 . S
C2072 C2070 1.415 . S
C2072 C2077 1.425 . S
C2072 C2079 1.409 . S
C2073 H2065 0.930 . S
C2073 C2071 1.419 . S
C2073 C2074 1.362 . S
C2074 H2066 0.930 . S
C2074 C2073 1.362 . S
C2074 C2077 1.409 . S
C2075 H2067 0.930 . S
C2075 C2076 1.355 . S
C2075 C2077 1.415 . S
C2076 C2075 1.355 . S
C2076 C2078 1.419 . S
C2077 C2072 1.425 . S
C2077 C2074 1.409 . S
C2077 C2075 1.415 . S
C2078 H2068 0.930 . S
C2078 C2076 1.419 . S
C2078 C2079 1.362 . S
C2079 H2069 0.930 . S
C2079 C2072 1.409 . S
C2079 C2078 1.362 . S
H2080 C2086 0.930 . S
H2081 C2089 0.930 . S
H2082 C2090 0.930 . S
H2083 C2091 0.930 . S
H2084 C2094 0.930 . S
H2085 C2095 0.930 . S
C2086 H2080 0.930 . S
C2086 C2087 1.355 . S
C2086 C2088 1.415 . S
C2087 C2086 1.355 . S
C2087 C2089 1.419 . S
C2088 C2086 1.415 . S
C2088 C2093 1.425 . S
C2088 C2095 1.409 . S
C2089 H2081 0.930 . S
C2089 C2087 1.419 . S
C2089 C2090 1.362 . S
C2090 H2082 0.930 . S
C2090 C2089 1.362 . S
C2090 C2093 1.409 . S
C2091 H2083 0.930 . S
C2091 C2092 1.355 . S
C2091 C2093 1.415 . S
C2092 C2091 1.355 . S
C2092 C2094 1.419 . S
C2093 C2088 1.425 . S
C2093 C2090 1.409 . S
C2093 C2091 1.415 . S
C2094 H2084 0.930 . S
C2094 C2092 1.419 . S
C2094 C2095 1.362 . S
C2095 H2085 0.930 . S
C2095 C2088 1.409 . S
C2095 C2094 1.362 . S
H2096 C2102 0.930 . S
H2097 C2105 0.930 . S
H2098 C2106 0.930 . S
H2099 C2107 0.930 . S
H2100 C2110 0.930 . S
H2101 C2111 0.930 . S
C2102 H2096 0.930 . S
C2102 C2103 1.355 . S
C2102 C2104 1.415 . S
C2103 C2102 1.355 . S
C2103 C2105 1.419 . S
C2104 C2102 1.415 . S
C2104 C2109 1.425 . S
C2104 C2111 1.409 . S
C2105 H2097 0.930 . S
C2105 C2103 1.419 . S
C2105 C2106 1.362 . S
C2106 H2098 0.930 . S
C2106 C2105 1.362 . S
C2106 C2109 1.409 . S
C2107 H2099 0.930 . S
C2107 C2108 1.355 . S
C2107 C2109 1.415 . S
C2108 C2107 1.355 . S
C2108 C2110 1.419 . S
C2109 C2104 1.425 . S
C2109 C2106 1.409 . S
C2109 C2107 1.415 . S
C2110 H2100 0.930 . S
C2110 C2108 1.419 . S
C2110 C2111 1.362 . S
C2111 H2101 0.930 . S
C2111 C2104 1.409 . S
C2111 C2110 1.362 . S
H2112 C2118 0.930 . S
H2113 C2121 0.930 . S
H2114 C2122 0.930 . S
H2115 C2123 0.930 . S
H2116 C2126 0.930 . S
H2117 C2127 0.930 . S
C2118 H2112 0.930 . S
C2118 C2119 1.355 . S
C2118 C2120 1.415 . S
C2119 C2118 1.355 . S
C2119 C2121 1.419 . S
C2120 C2118 1.415 . S
C2120 C2125 1.425 . S
C2120 C2127 1.409 . S
C2121 H2113 0.930 . S
C2121 C2119 1.419 . S
C2121 C2122 1.362 . S
C2122 H2114 0.930 . S
C2122 C2121 1.362 . S
C2122 C2125 1.409 . S
C2123 H2115 0.930 . S
C2123 C2124 1.355 . S
C2123 C2125 1.415 . S
C2124 C2123 1.355 . S
C2124 C2126 1.419 . S
C2125 C2120 1.425 . S
C2125 C2122 1.409 . S
C2125 C2123 1.415 . S
C2126 H2116 0.930 . S
C2126 C2124 1.419 . S
C2126 C2127 1.362 . S
C2127 H2117 0.930 . S
C2127 C2120 1.409 . S
C2127 C2126 1.362 . S
H2128 C2134 0.930 . S
H2129 C2137 0.930 . S
H2130 C2138 0.930 . S
H2131 C2139 0.930 . S
H2132 C2142 0.930 . S
H2133 C2143 0.930 . S
C2134 H2128 0.930 . S
C2134 C2135 1.355 . S
C2134 C2136 1.415 . S
C2135 C2134 1.355 . S
C2135 C2137 1.419 . S
C2136 C2134 1.415 . S
C2136 C2141 1.425 . S
C2136 C2143 1.409 . S
C2137 H2129 0.930 . S
C2137 C2135 1.419 . S
C2137 C2138 1.362 . S
C2138 H2130 0.930 . S
C2138 C2137 1.362 . S
C2138 C2141 1.409 . S
C2139 H2131 0.930 . S
C2139 C2140 1.355 . S
C2139 C2141 1.415 . S
C2140 C2139 1.355 . S
C2140 C2142 1.419 . S
C2141 C2136 1.425 . S
C2141 C2138 1.409 . S
C2141 C2139 1.415 . S
C2142 H2132 0.930 . S
C2142 C2140 1.419 . S
C2142 C2143 1.362 . S
C2143 H2133 0.930 . S
C2143 C2136 1.409 . S
C2143 C2142 1.362 . S
H2144 C2150 0.930 . S
H2145 C2153 0.930 . S
H2146 C2154 0.930 . S
H2147 C2155 0.930 . S
H2148 C2158 0.930 . S
H2149 C2159 0.930 . S
C2150 H2144 0.930 . S
C2150 C2151 1.355 . S
C2150 C2152 1.415 . S
C2151 C2150 1.355 . S
C2151 C2153 1.419 . S
C2152 C2150 1.415 . S
C2152 C2157 1.425 . S
C2152 C2159 1.409 . S
C2153 H2145 0.930 . S
C2153 C2151 1.419 . S
C2153 C2154 1.362 . S
C2154 H2146 0.930 . S
C2154 C2153 1.362 . S
C2154 C2157 1.409 . S
C2155 H2147 0.930 . S
C2155 C2156 1.355 . S
C2155 C2157 1.415 . S
C2156 C2155 1.355 . S
C2156 C2158 1.419 . S
C2157 C2152 1.425 . S
C2157 C2154 1.409 . S
C2157 C2155 1.415 . S
C2158 H2148 0.930 . S
C2158 C2156 1.419 . S
C2158 C2159 1.362 . S
C2159 H2149 0.930 . S
C2159 C2152 1.409 . S
C2159 C2158 1.362 . S
H2160 C2166 0.930 . S
H2161 C2169 0.930 . S
H2162 C2170 0.930 . S
H2163 C2171 0.930 . S
H2164 C2174 0.930 . S
H2165 C2175 0.930 . S
C2166 H2160 0.930 . S
C2166 C2167 1.355 . S
C2166 C2168 1.415 . S
C2167 C2166 1.355 . S
C2167 C2169 1.419 . S
C2168 C2166 1.415 . S
C2168 C2173 1.425 . S
C2168 C2175 1.409 . S
C2169 H2161 0.930 . S
C2169 C2167 1.419 . S
C2169 C2170 1.362 . S
C2170 H2162 0.930 . S
C2170 C2169 1.362 . S
C2170 C2173 1.409 . S
C2171 H2163 0.930 . S
C2171 C2172 1.355 . S
C2171 C2173 1.415 . S
C2172 C2171 1.355 . S
C2172 C2174 1.419 . S
C2173 C2168 1.425 . S
C2173 C2170 1.409 . S
C2173 C2171 1.415 . S
C2174 H2164 0.930 . S
C2174 C2172 1.419 . S
C2174 C2175 1.362 . S
C2175 H2165 0.930 . S
C2175 C2168 1.409 . S
C2175 C2174 1.362 . S
H2176 C2182 0.930 . S
H2177 C2185 0.930 . S
H2178 C2186 0.930 . S
H2179 C2187 0.930 . S
H2180 C2190 0.930 . S
H2181 C2191 0.930 . S
C2182 H2176 0.930 . S
C2182 C2183 1.355 . S
C2182 C2184 1.415 . S
C2183 C2182 1.355 . S
C2183 C2185 1.419 . S
C2184 C2182 1.415 . S
C2184 C2189 1.425 . S
C2184 C2191 1.409 . S
C2185 H2177 0.930 . S
C2185 C2183 1.419 . S
C2185 C2186 1.362 . S
C2186 H2178 0.930 . S
C2186 C2185 1.362 . S
C2186 C2189 1.409 . S
C2187 H2179 0.930 . S
C2187 C2188 1.355 . S
C2187 C2189 1.415 . S
C2188 C2187 1.355 . S
C2188 C2190 1.419 . S
C2189 C2184 1.425 . S
C2189 C2186 1.409 . S
C2189 C2187 1.415 . S
C2190 H2180 0.930 . S
C2190 C2188 1.419 . S
C2190 C2191 1.362 . S
C2191 H2181 0.930 . S
C2191 C2184 1.409 . S
C2191 C2190 1.362 . S
H2192 C2198 0.930 . S
H2193 C2201 0.930 . S
H2194 C2202 0.930 . S
H2195 C2203 0.930 . S
H2196 C2206 0.930 . S
H2197 C2207 0.930 . S
C2198 H2192 0.930 . S
C2198 C2199 1.355 . S
C2198 C2200 1.415 . S
C2199 C2198 1.355 . S
C2199 C2201 1.419 . S
C2200 C2198 1.415 . S
C2200 C2205 1.425 . S
C2200 C2207 1.409 . S
C2201 H2193 0.930 . S
C2201 C2199 1.419 . S
C2201 C2202 1.362 . S
C2202 H2194 0.930 . S
C2202 C2201 1.362 . S
C2202 C2205 1.409 . S
C2203 H2195 0.930 . S
C2203 C2204 1.355 . S
C2203 C2205 1.415 . S
C2204 C2203 1.355 . S
C2204 C2206 1.419 . S
C2205 C2200 1.425 . S
C2205 C2202 1.409 . S
C2205 C2203 1.415 . S
C2206 H2196 0.930 . S
C2206 C2204 1.419 . S
C2206 C2207 1.362 . S
C2207 H2197 0.930 . S
C2207 C2200 1.409 . S
C2207 C2206 1.362 . S
H2208 C2214 0.930 . S
H2209 C2217 0.930 . S
H2210 C2218 0.930 . S
H2211 C2219 0.930 . S
H2212 C2222 0.930 . S
H2213 C2223 0.930 . S
C2214 H2208 0.930 . S
C2214 C2215 1.355 . S
C2214 C2216 1.415 . S
C2215 C2214 1.355 . S
C2215 C2217 1.419 . S
C2216 C2214 1.415 . S
C2216 C2221 1.425 . S
C2216 C2223 1.409 . S
C2217 H2209 0.930 . S
C2217 C2215 1.419 . S
C2217 C2218 1.362 . S
C2218 H2210 0.930 . S
C2218 C2217 1.362 . S
C2218 C2221 1.409 . S
C2219 H2211 0.930 . S
C2219 C2220 1.355 . S
C2219 C2221 1.415 . S
C2220 C2219 1.355 . S
C2220 C2222 1.419 . S
C2221 C2216 1.425 . S
C2221 C2218 1.409 . S
C2221 C2219 1.415 . S
C2222 H2212 0.930 . S
C2222 C2220 1.419 . S
C2222 C2223 1.362 . S
C2223 H2213 0.930 . S
C2223 C2216 1.409 . S
C2223 C2222 1.362 . S
H2224 C2230 0.930 . S
H2225 C2233 0.930 . S
H2226 C2234 0.930 . S
H2227 C2235 0.930 . S
H2228 C2238 0.930 . S
H2229 C2239 0.930 . S
C2230 H2224 0.930 . S
C2230 C2231 1.355 . S
C2230 C2232 1.415 . S
C2231 C2230 1.355 . S
C2231 C2233 1.419 . S
C2232 C2230 1.415 . S
C2232 C2237 1.425 . S
C2232 C2239 1.409 . S
C2233 H2225 0.930 . S
C2233 C2231 1.419 . S
C2233 C2234 1.362 . S
C2234 H2226 0.930 . S
C2234 C2233 1.362 . S
C2234 C2237 1.409 . S
C2235 H2227 0.930 . S
C2235 C2236 1.355 . S
C2235 C2237 1.415 . S
C2236 C2235 1.355 . S
C2236 C2238 1.419 . S
C2237 C2232 1.425 . S
C2237 C2234 1.409 . S
C2237 C2235 1.415 . S
C2238 H2228 0.930 . S
C2238 C2236 1.419 . S
C2238 C2239 1.362 . S
C2239 H2229 0.930 . S
C2239 C2232 1.409 . S
C2239 C2238 1.362 . S
H2240 C2246 0.930 . S
H2241 C2249 0.930 . S
H2242 C2250 0.930 . S
H2243 C2251 0.930 . S
H2244 C2254 0.930 . S
H2245 C2255 0.930 . S
C2246 H2240 0.930 . S
C2246 C2247 1.355 . S
C2246 C2248 1.415 . S
C2247 C2246 1.355 . S
C2247 C2249 1.419 . S
C2248 C2246 1.415 . S
C2248 C2253 1.425 . S
C2248 C2255 1.409 . S
C2249 H2241 0.930 . S
C2249 C2247 1.419 . S
C2249 C2250 1.362 . S
C2250 H2242 0.930 . S
C2250 C2249 1.362 . S
C2250 C2253 1.409 . S
C2251 H2243 0.930 . S
C2251 C2252 1.355 . S
C2251 C2253 1.415 . S
C2252 C2251 1.355 . S
C2252 C2254 1.419 . S
C2253 C2248 1.425 . S
C2253 C2250 1.409 . S
C2253 C2251 1.415 . S
C2254 H2244 0.930 . S
C2254 C2252 1.419 . S
C2254 C2255 1.362 . S
C2255 H2245 0.930 . S
C2255 C2248 1.409 . S
C2255 C2254 1.362 . S
H2256 C2262 0.930 . S
H2257 C2265 0.930 . S
H2258 C2266 0.930 . S
H2259 C2267 0.930 . S
H2260 C2270 0.930 . S
H2261 C2271 0.930 . S
C2262 H2256 0.930 . S
C2262 C2263 1.355 . S
C2262 C2264 1.415 . S
C2263 C2262 1.355 . S
C2263 C2265 1.419 . S
C2264 C2262 1.415 . S
C2264 C2269 1.425 . S
C2264 C2271 1.409 . S
C2265 H2257 0.930 . S
C2265 C2263 1.419 . S
C2265 C2266 1.362 . S
C2266 H2258 0.930 . S
C2266 C2265 1.362 . S
C2266 C2269 1.409 . S
C2267 H2259 0.930 . S
C2267 C2268 1.355 . S
C2267 C2269 1.415 . S
C2268 C2267 1.355 . S
C2268 C2270 1.419 . S
C2269 C2264 1.425 . S
C2269 C2266 1.409 . S
C2269 C2267 1.415 . S
C2270 H2260 0.930 . S
C2270 C2268 1.419 . S
C2270 C2271 1.362 . S
C2271 H2261 0.930 . S
C2271 C2264 1.409 . S
C2271 C2270 1.362 . S
H2272 C2278 0.930 . S
H2273 C2281 0.930 . S
H2274 C2282 0.930 . S
H2275 C2283 0.930 . S
H2276 C2286 0.930 . S
H2277 C2287 0.930 . S
C2278 H2272 0.930 . S
C2278 C2279 1.355 . S
C2278 C2280 1.415 . S
C2279 C2278 1.355 . S
C2279 C2281 1.419 . S
C2280 C2278 1.415 . S
C2280 C2285 1.425 . S
C2280 C2287 1.409 . S
C2281 H2273 0.930 . S
C2281 C2279 1.419 . S
C2281 C2282 1.362 . S
C2282 H2274 0.930 . S
C2282 C2281 1.362 . S
C2282 C2285 1.409 . S
C2283 H2275 0.930 . S
C2283 C2284 1.355 . S
C2283 C2285 1.415 . S
C2284 C2283 1.355 . S
C2284 C2286 1.419 . S
C2285 C2280 1.425 . S
C2285 C2282 1.409 . S
C2285 C2283 1.415 . S
C2286 H2276 0.930 . S
C2286 C2284 1.419 . S
C2286 C2287 1.362 . S
C2287 H2277 0.930 . S
C2287 C2280 1.409 . S
C2287 C2286 1.362 . S
H2288 C2294 0.930 . S
H2289 C2297 0.930 . S
H2290 C2298 0.930 . S
H2291 C2299 0.930 . S
H2292 C2302 0.930 . S
H2293 C2303 0.930 . S
C2294 H2288 0.930 . S
C2294 C2295 1.355 . S
C2294 C2296 1.415 . S
C2295 C2294 1.355 . S
C2295 C2297 1.419 . S
C2296 C2294 1.415 . S
C2296 C2301 1.425 . S
C2296 C2303 1.409 . S
C2297 H2289 0.930 . S
C2297 C2295 1.419 . S
C2297 C2298 1.362 . S
C2298 H2290 0.930 . S
C2298 C2297 1.362 . S
C2298 C2301 1.409 . S
C2299 H2291 0.930 . S
C2299 C2300 1.355 . S
C2299 C2301 1.415 . S
C2300 C2299 1.355 . S
C2300 C2302 1.419 . S
C2301 C2296 1.425 . S
C2301 C2298 1.409 . S
C2301 C2299 1.415 . S
C2302 H2292 0.930 . S
C2302 C2300 1.419 . S
C2302 C2303 1.362 . S
C2303 H2293 0.930 . S
C2303 C2296 1.409 . S
C2303 C2302 1.362 . S
H2304 C2310 0.930 . S
H2305 C2313 0.930 . S
H2306 C2314 0.930 . S
H2307 C2315 0.930 . S
H2308 C2318 0.930 . S
H2309 C2319 0.930 . S
C2310 H2304 0.930 . S
C2310 C2311 1.355 . S
C2310 C2312 1.415 . S
C2311 C2310 1.355 . S
C2311 C2313 1.419 . S
C2312 C2310 1.415 . S
C2312 C2317 1.425 . S
C2312 C2319 1.409 . S
C2313 H2305 0.930 . S
C2313 C2311 1.419 . S
C2313 C2314 1.362 . S
C2314 H2306 0.930 . S
C2314 C2313 1.362 . S
C2314 C2317 1.409 . S
C2315 H2307 0.930 . S
C2315 C2316 1.355 . S
C2315 C2317 1.415 . S
C2316 C2315 1.355 . S
C2316 C2318 1.419 . S
C2317 C2312 1.425 . S
C2317 C2314 1.409 . S
C2317 C2315 1.415 . S
C2318 H2308 0.930 . S
C2318 C2316 1.419 . S
C2318 C2319 1.362 . S
C2319 H2309 0.930 . S
C2319 C2312 1.409 . S
C2319 C2318 1.362 . S
H2320 C2326 0.930 . S
H2321 C2329 0.930 . S
H2322 C2330 0.930 . S
H2323 C2331 0.930 . S
H2324 C2334 0.930 . S
H2325 C2335 0.930 . S
C2326 H2320 0.930 . S
C2326 C2327 1.355 . S
C2326 C2328 1.415 . S
C2327 C2326 1.355 . S
C2327 C2329 1.419 . S
C2328 C2326 1.415 . S
C2328 C2333 1.425 . S
C2328 C2335 1.409 . S
C2329 H2321 0.930 . S
C2329 C2327 1.419 . S
C2329 C2330 1.362 . S
C2330 H2322 0.930 . S
C2330 C2329 1.362 . S
C2330 C2333 1.409 . S
C2331 H2323 0.930 . S
C2331 C2332 1.355 . S
C2331 C2333 1.415 . S
C2332 C2331 1.355 . S
C2332 C2334 1.419 . S
C2333 C2328 1.425 . S
C2333 C2330 1.409 . S
C2333 C2331 1.415 . S
C2334 H2324 0.930 . S
C2334 C2332 1.419 . S
C2334 C2335 1.362 . S
C2335 H2325 0.930 . S
C2335 C2328 1.409 . S
C2335 C2334 1.362 . S
H2336 C2342 0.930 . S
H2337 C2345 0.930 . S
H2338 C2346 0.930 . S
H2339 C2347 0.930 . S
H2340 C2350 0.930 . S
H2341 C2351 0.930 . S
C2342 H2336 0.930 . S
C2342 C2343 1.355 . S
C2342 C2344 1.415 . S
C2343 C2342 1.355 . S
C2343 C2345 1.419 . S
C2344 C2342 1.415 . S
C2344 C2349 1.425 . S
C2344 C2351 1.409 . S
C2345 H2337 0.930 . S
C2345 C2343 1.419 . S
C2345 C2346 1.362 . S
C2346 H2338 0.930 . S
C2346 C2345 1.362 . S
C2346 C2349 1.409 . S
C2347 H2339 0.930 . S
C2347 C2348 1.355 . S
C2347 C2349 1.415 . S
C2348 C2347 1.355 . S
C2348 C2350 1.419 . S
C2349 C2344 1.425 . S
C2349 C2346 1.409 . S
C2349 C2347 1.415 . S
C2350 H2340 0.930 . S
C2350 C2348 1.419 . S
C2350 C2351 1.362 . S
C2351 H2341 0.930 . S
C2351 C2344 1.409 . S
C2351 C2350 1.362 . S
H2352 C2358 0.930 . S
H2353 C2361 0.930 . S
H2354 C2362 0.930 . S
H2355 C2363 0.930 . S
H2356 C2366 0.930 . S
H2357 C2367 0.930 . S
C2358 H2352 0.930 . S
C2358 C2359 1.355 . S
C2358 C2360 1.415 . S
C2359 C2358 1.355 . S
C2359 C2361 1.419 . S
C2360 C2358 1.415 . S
C2360 C2365 1.425 . S
C2360 C2367 1.409 . S
C2361 H2353 0.930 . S
C2361 C2359 1.419 . S
C2361 C2362 1.362 . S
C2362 H2354 0.930 . S
C2362 C2361 1.362 . S
C2362 C2365 1.409 . S
C2363 H2355 0.930 . S
C2363 C2364 1.355 . S
C2363 C2365 1.415 . S
C2364 C2363 1.355 . S
C2364 C2366 1.419 . S
C2365 C2360 1.425 . S
C2365 C2362 1.409 . S
C2365 C2363 1.415 . S
C2366 H2356 0.930 . S
C2366 C2364 1.419 . S
C2366 C2367 1.362 . S
C2367 H2357 0.930 . S
C2367 C2360 1.409 . S
C2367 C2366 1.362 . S
H2368 C2374 0.930 . S
H2369 C2377 0.930 . S
H2370 C2378 0.930 . S
H2371 C2379 0.930 . S
H2372 C2382 0.930 . S
H2373 C2383 0.930 . S
C2374 H2368 0.930 . S
C2374 C2375 1.355 . S
C2374 C2376 1.415 . S
C2375 C2374 1.355 . S
C2375 C2377 1.419 . S
C2376 C2374 1.415 . S
C2376 C2381 1.425 . S
C2376 C2383 1.409 . S
C2377 H2369 0.930 . S
C2377 C2375 1.419 . S
C2377 C2378 1.362 . S
C2378 H2370 0.930 . S
C2378 C2377 1.362 . S
C2378 C2381 1.409 . S
C2379 H2371 0.930 . S
C2379 C2380 1.355 . S
C2379 C2381 1.415 . S
C2380 C2379 1.355 . S
C2380 C2382 1.419 . S
C2381 C2376 1.425 . S
C2381 C2378 1.409 . S
C2381 C2379 1.415 . S
C2382 H2372 0.930 . S
C2382 C2380 1.419 . S
C2382 C2383 1.362 . S
C2383 H2373 0.930 . S
C2383 C2376 1.409 . S
C2383 C2382 1.362 . S
H2384 C2390 0.930 . S
H2385 C2393 0.930 . S
H2386 C2394 0.930 . S
H2387 C2395 0.930 . S
H2388 C2398 0.930 . S
H2389 C2399 0.930 . S
C2390 H2384 0.930 . S
C2390 C2391 1.355 . S
C2390 C2392 1.415 . S
C2391 C2390 1.355 . S
C2391 C2393 1.419 . S
C2392 C2390 1.415 . S
C2392 C2397 1.425 . S
C2392 C2399 1.409 . S
C2393 H2385 0.930 . S
C2393 C2391 1.419 . S
C2393 C2394 1.362 . S
C2394 H2386 0.930 . S
C2394 C2393 1.362 . S
C2394 C2397 1.409 . S
C2395 H2387 0.930 . S
C2395 C2396 1.355 . S
C2395 C2397 1.415 . S
C2396 C2395 1.355 . S
C2396 C2398 1.419 . S
C2397 C2392 1.425 . S
C2397 C2394 1.409 . S
C2397 C2395 1.415 . S
C2398 H2388 0.930 . S
C2398 C2396 1.419 . S
C2398 C2399 1.362 . S
C2399 H2389 0.930 . S
C2399 C2392 1.409 . S
C2399 C2398 1.362 . S
H2400 C2406 0.930 . S
H2401 C2409 0.930 . S
H2402 C2410 0.930 . S
H2403 C2411 0.930 . S
H2404 C2414 0.930 . S
H2405 C2415 0.930 . S
C2406 H2400 0.930 . S
C2406 C2407 1.355 . S
C2406 C2408 1.415 . S
C2407 C2406 1.355 . S
C2407 C2409 1.419 . S
C2408 C2406 1.415 . S
C2408 C2413 1.425 . S
C2408 C2415 1.409 . S
C2409 H2401 0.930 . S
C2409 C2407 1.419 . S
C2409 C2410 1.362 . S
C2410 H2402 0.930 . S
C2410 C2409 1.362 . S
C2410 C2413 1.409 . S
C2411 H2403 0.930 . S
C2411 C2412 1.355 . S
C2411 C2413 1.415 . S
C2412 C2411 1.355 . S
C2412 C2414 1.419 . S
C2413 C2408 1.425 . S
C2413 C2410 1.409 . S
C2413 C2411 1.415 . S
C2414 H2404 0.930 . S
C2414 C2412 1.419 . S
C2414 C2415 1.362 . S
C2415 H2405 0.930 . S
C2415 C2408 1.409 . S
C2415 C2414 1.362 . S
H2416 C2422 0.930 . S
H2417 C2425 0.930 . S
H2418 C2426 0.930 . S
H2419 C2427 0.930 . S
H2420 C2430 0.930 . S
H2421 C2431 0.930 . S
C2422 H2416 0.930 . S
C2422 C2423 1.355 . S
C2422 C2424 1.415 . S
C2423 C2422 1.355 . S
C2423 C2425 1.419 . S
C2424 C2422 1.415 . S
C2424 C2429 1.425 . S
C2424 C2431 1.409 . S
C2425 H2417 0.930 . S
C2425 C2423 1.419 . S
C2425 C2426 1.362 . S
C2426 H2418 0.930 . S
C2426 C2425 1.362 . S
C2426 C2429 1.409 . S
C2427 H2419 0.930 . S
C2427 C2428 1.355 . S
C2427 C2429 1.415 . S
C2428 C2427 1.355 . S
C2428 C2430 1.419 . S
C2429 C2424 1.425 . S
C2429 C2426 1.409 . S
C2429 C2427 1.415 . S
C2430 H2420 0.930 . S
C2430 C2428 1.419 . S
C2430 C2431 1.362 . S
C2431 H2421 0.930 . S
C2431 C2424 1.409 . S
C2431 C2430 1.362 . S
H2432 C2438 0.930 . S
H2433 C2441 0.930 . S
H2434 C2442 0.930 . S
H2435 C2443 0.930 . S
H2436 C2446 0.930 . S
H2437 C2447 0.930 . S
C2438 H2432 0.930 . S
C2438 C2439 1.355 . S
C2438 C2440 1.415 . S
C2439 C2438 1.355 . S
C2439 C2441 1.419 . S
C2440 C2438 1.415 . S
C2440 C2445 1.425 . S
C2440 C2447 1.409 . S
C2441 H2433 0.930 . S
C2441 C2439 1.419 . S
C2441 C2442 1.362 . S
C2442 H2434 0.930 . S
C2442 C2441 1.362 . S
C2442 C2445 1.409 . S
C2443 H2435 0.930 . S
C2443 C2444 1.355 . S
C2443 C2445 1.415 . S
C2444 C2443 1.355 . S
C2444 C2446 1.419 . S
C2445 C2440 1.425 . S
C2445 C2442 1.409 . S
C2445 C2443 1.415 . S
C2446 H2436 0.930 . S
C2446 C2444 1.419 . S
C2446 C2447 1.362 . S
C2447 H2437 0.930 . S
C2447 C2440 1.409 . S
C2447 C2446 1.362 . S
H2448 C2454 0.930 . S
H2449 C2457 0.930 . S
H2450 C2458 0.930 . S
H2451 C2459 0.930 . S
H2452 C2462 0.930 . S
H2453 C2463 0.930 . S
C2454 H2448 0.930 . S
C2454 C2455 1.355 . S
C2454 C2456 1.415 . S
C2455 C2454 1.355 . S
C2455 C2457 1.419 . S
C2456 C2454 1.415 . S
C2456 C2461 1.425 . S
C2456 C2463 1.409 . S
C2457 H2449 0.930 . S
C2457 C2455 1.419 . S
C2457 C2458 1.362 . S
C2458 H2450 0.930 . S
C2458 C2457 1.362 . S
C2458 C2461 1.409 . S
C2459 H2451 0.930 . S
C2459 C2460 1.355 . S
C2459 C2461 1.415 . S
C2460 C2459 1.355 . S
C2460 C2462 1.419 . S
C2461 C2456 1.425 . S
C2461 C2458 1.409 . S
C2461 C2459 1.415 . S
C2462 H2452 0.930 . S
C2462 C2460 1.419 . S
C2462 C2463 1.362 . S
C2463 H2453 0.930 . S
C2463 C2456 1.409 . S
C2463 C2462 1.362 . S
H2464 C2470 0.930 . S
H2465 C2473 0.930 . S
H2466 C2474 0.930 . S
H2467 C2475 0.930 . S
H2468 C2478 0.930 . S
H2469 C2479 0.930 . S
C2470 H2464 0.930 . S
C2470 C2471 1.355 . S
C2470 C2472 1.415 . S
C2471 C2470 1.355 . S
C2471 C2473 1.419 . S
C2472 C2470 1.415 . S
C2472 C2477 1.425 . S
C2472 C2479 1.409 . S
C2473 H2465 0.930 . S
C2473 C2471 1.419 . S
C2473 C2474 1.362 . S
C2474 H2466 0.930 . S
C2474 C2473 1.362 . S
C2474 C2477 1.409 . S
C2475 H2467 0.930 . S
C2475 C2476 1.355 . S
C2475 C2477 1.415 . S
C2476 C2475 1.355 . S
C2476 C2478 1.419 . S
C2477 C2472 1.425 . S
C2477 C2474 1.409 . S
C2477 C2475 1.415 . S
C2478 H2468 0.930 . S
C2478 C2476 1.419 . S
C2478 C2479 1.362 . S
C2479 H2469 0.930 . S
C2479 C2472 1.409 . S
C2479 C2478 1.362 . S
H2480 C2486 0.930 . S
H2481 C2489 0.930 . S
H2482 C2490 0.930 . S
H2483 C2491 0.930 . S
H2484 C2494 0.930 . S
H2485 C2495 0.930 . S
C2486 H2480 0.930 . S
C2486 C2487 1.355 . S
C2486 C2488 1.415 . S
C2487 C2486 1.355 . S
C2487 C2489 1.419 . S
C2488 C2486 1.415 . S
C2488 C2493 1.425 . S
C2488 C2495 1.409 . S
C2489 H2481 0.930 . S
C2489 C2487 1.419 . S
C2489 C2490 1.362 . S
C2490 H2482 0.930 . S
C2490 C2489 1.362 . S
C2490 C2493 1.409 . S
C2491 H2483 0.930 . S
C2491 C2492 1.355 . S
C2491 C2493 1.415 . S
C2492 C2491 1.355 . S
C2492 C2494 1.419 . S
C2493 C2488 1.425 . S
C2493 C2490 1.409 . S
C2493 C2491 1.415 . S
C2494 H2484 0.930 . S
C2494 C2492 1.419 . S
C2494 C2495 1.362 . S
C2495 H2485 0.930 . S
C2495 C2488 1.409 . S
C2495 C2494 1.362 . S
H2496 C2502 0.930 . S
H2497 C2505 0.930 . S
H2498 C2506 0.930 . S
H2499 C2507 0.930 . S
H2500 C2510 0.930 . S
H2501 C2511 0.930 . S
C2502 H2496 0.930 . S
C2502 C2503 1.355 . S
C2502 C2504 1.415 . S
C2503 C2502 1.355 . S
C2503 C2505 1.419 . S
C2504 C2502 1.415 . S
C2504 C2509 1.425 . S
C2504 C2511 1.409 . S
C2505 H2497 0.930 . S
C2505 C2503 1.419 . S
C2505 C2506 1.362 . S
C2506 H2498 0.930 . S
C2506 C2505 1.362 . S
C2506 C2509 1.409 . S
C2507 H2499 0.930 . S
C2507 C2508 1.355 . S
C2507 C2509 1.415 . S
C2508 C2507 1.355 . S
C2508 C2510 1.419 . S
C2509 C2504 1.425 . S
C2509 C2506 1.409 . S
C2509 C2507 1.415 . S
C2510 H2500 0.930 . S
C2510 C2508 1.419 . S
C2510 C2511 1.362 . S
C2511 H2501 0.930 . S
C2511 C2504 1.409 . S
C2511 C2510 1.362 . S
H2512 C2518 0.930 . S
H2513 C2521 0.930 . S
H2514 C2522 0.930 . S
H2515 C2523 0.930 . S
H2516 C2526 0.930 . S
H2517 C2527 0.930 . S
C2518 H2512 0.930 . S
C2518 C2519 1.355 . S
C2518 C2520 1.415 . S
C2519 C2518 1.355 . S
C2519 C2521 1.419 . S
C2520 C2518 1.415 . S
C2520 C2525 1.425 . S
C2520 C2527 1.409 . S
C2521 H2513 0.930 . S
C2521 C2519 1.419 . S
C2521 C2522 1.362 . S
C2522 H2514 0.930 . S
C2522 C2521 1.362 . S
C2522 C2525 1.409 . S
C2523 H2515 0.930 . S
C2523 C2524 1.355 . S
C2523 C2525 1.415 . S
C2524 C2523 1.355 . S
C2524 C2526 1.419 . S
C2525 C2520 1.425 . S
C2525 C2522 1.409 . S
C2525 C2523 1.415 . S
C2526 H2516 0.930 . S
C2526 C2524 1.419 . S
C2526 C2527 1.362 . S
C2527 H2517 0.930 . S
C2527 C2520 1.409 . S
C2527 C2526 1.362 . S
H2528 C2534 0.930 . S
H2529 C2537 0.930 . S
H2530 C2538 0.930 . S
H2531 C2539 0.930 . S
H2532 C2542 0.930 . S
H2533 C2543 0.930 . S
C2534 H2528 0.930 . S
C2534 C2535 1.355 . S
C2534 C2536 1.415 . S
C2535 C2534 1.355 . S
C2535 C2537 1.419 . S
C2536 C2534 1.415 . S
C2536 C2541 1.425 . S
C2536 C2543 1.409 . S
C2537 H2529 0.930 . S
C2537 C2535 1.419 . S
C2537 C2538 1.362 . S
C2538 H2530 0.930 . S
C2538 C2537 1.362 . S
C2538 C2541 1.409 . S
C2539 H2531 0.930 . S
C2539 C2540 1.355 . S
C2539 C2541 1.415 . S
C2540 C2539 1.355 . S
C2540 C2542 1.419 . S
C2541 C2536 1.425 . S
C2541 C2538 1.409 . S
C2541 C2539 1.415 . S
C2542 H2532 0.930 . S
C2542 C2540 1.419 . S
C2542 C2543 1.362 . S
C2543 H2533 0.930 . S
C2543 C2536 1.409 . S
C2543 C2542 1.362 . S
H2544 C2550 0.930 . S
H2545 C2553 0.930 . S
H2546 C2554 0.930 . S
H2547 C2555 0.930 . S
H2548 C2558 0.930 . S
H2549 C2559 0.930 . S
C2550 H2544 0.930 . S
C2550 C2551 1.355 . S
C2550 C2552 1.415 . S
C2551 C2550 1.355 . S
C2551 C2553 1.419 . S
C2552 C2550 1.415 . S
C2552 C2557 1.425 . S
C2552 C2559 1.409 . S
C2553 H2545 0.930 . S
C2553 C2551 1.419 . S
C2553 C2554 1.362 . S
C2554 H2546 0.930 . S
C2554 C2553 1.362 . S
C2554 C2557 1.409 . S
C2555 H2547 0.930 . S
C2555 C2556 1.355 . S
C2555 C2557 1.415 . S
C2556 C2555 1.355 . S
C2556 C2558 1.419 . S
C2557 C2552 1.425 . S
C2557 C2554 1.409 . S
C2557 C2555 1.415 . S
C2558 H2548 0.930 . S
C2558 C2556 1.419 . S
C2558 C2559 1.362 . S
C2559 H2549 0.930 . S
C2559 C2552 1.409 . S
C2559 C2558 1.362 . S
H2560 C2566 0.930 . S
H2561 C2569 0.930 . S
H2562 C2570 0.930 . S
H2563 C2571 0.930 . S
H2564 C2574 0.930 . S
H2565 C2575 0.930 . S
C2566 H2560 0.930 . S
C2566 C2567 1.355 . S
C2566 C2568 1.415 . S
C2567 C2566 1.355 . S
C2567 C2569 1.419 . S
C2568 C2566 1.415 . S
C2568 C2573 1.425 . S
C2568 C2575 1.409 . S
C2569 H2561 0.930 . S
C2569 C2567 1.419 . S
C2569 C2570 1.362 . S
C2570 H2562 0.930 . S
C2570 C2569 1.362 . S
C2570 C2573 1.409 . S
C2571 H2563 0.930 . S
C2571 C2572 1.355 . S
C2571 C2573 1.415 . S
C2572 C2571 1.355 . S
C2572 C2574 1.419 . S
C2573 C2568 1.425 . S
C2573 C2570 1.409 . S
C2573 C2571 1.415 . S
C2574 H2564 0.930 . S
C2574 C2572 1.419 . S
C2574 C2575 1.362 . S
C2575 H2565 0.930 . S
C2575 C2568 1.409 . S
C2575 C2574 1.362 . S
H2576 C2582 0.930 . S
H2577 C2585 0.930 . S
H2578 C2586 0.930 . S
H2579 C2587 0.930 . S
H2580 C2590 0.930 . S
H2581 C2591 0.930 . S
C2582 H2576 0.930 . S
C2582 C2583 1.355 . S
C2582 C2584 1.415 . S
C2583 C2582 1.355 . S
C2583 C2585 1.419 . S
C2584 C2582 1.415 . S
C2584 C2589 1.425 . S
C2584 C2591 1.409 . S
C2585 H2577 0.930 . S
C2585 C2583 1.419 . S
C2585 C2586 1.362 . S
C2586 H2578 0.930 . S
C2586 C2585 1.362 . S
C2586 C2589 1.409 . S
C2587 H2579 0.930 . S
C2587 C2588 1.355 . S
C2587 C2589 1.415 . S
C2588 C2587 1.355 . S
C2588 C2590 1.419 . S
C2589 C2584 1.425 . S
C2589 C2586 1.409 . S
C2589 C2587 1.415 . S
C2590 H2580 0.930 . S
C2590 C2588 1.419 . S
C2590 C2591 1.362 . S
C2591 H2581 0.930 . S
C2591 C2584 1.409 . S
C2591 C2590 1.362 . S
H2592 C2598 0.930 . S
H2593 C2601 0.930 . S
H2594 C2602 0.930 . S
H2595 C2603 0.930 . S
H2596 C2606 0.930 . S
H2597 C2607 0.930 . S
C2598 H2592 0.930 . S
C2598 C2599 1.355 . S
C2598 C2600 1.415 . S
C2599 C2598 1.355 . S
C2599 C2601 1.419 . S
C2600 C2598 1.415 . S
C2600 C2605 1.425 . S
C2600 C2607 1.409 . S
C2601 H2593 0.930 . S
C2601 C2599 1.419 . S
C2601 C2602 1.362 . S
C2602 H2594 0.930 . S
C2602 C2601 1.362 . S
C2602 C2605 1.409 . S
C2603 H2595 0.930 . S
C2603 C2604 1.355 . S
C2603 C2605 1.415 . S
C2604 C2603 1.355 . S
C2604 C2606 1.419 . S
C2605 C2600 1.425 . S
C2605 C2602 1.409 . S
C2605 C2603 1.415 . S
C2606 H2596 0.930 . S
C2606 C2604 1.419 . S
C2606 C2607 1.362 . S
C2607 H2597 0.930 . S
C2607 C2600 1.409 . S
C2607 C2606 1.362 . S
H2608 C2614 0.930 . S
H2609 C2617 0.930 . S
H2610 C2618 0.930 . S
H2611 C2619 0.930 . S
H2612 C2622 0.930 . S
H2613 C2623 0.930 . S
C2614 H2608 0.930 . S
C2614 C2615 1.355 . S
C2614 C2616 1.415 . S
C2615 C2614 1.355 . S
C2615 C2617 1.419 . S
C2616 C2614 1.415 . S
C2616 C2621 1.425 . S
C2616 C2623 1.409 . S
C2617 H2609 0.930 . S
C2617 C2615 1.419 . S
C2617 C2618 1.362 . S
C2618 H2610 0.930 . S
C2618 C2617 1.362 . S
C2618 C2621 1.409 . S
C2619 H2611 0.930 . S
C2619 C2620 1.355 . S
C2619 C2621 1.415 . S
C2620 C2619 1.355 . S
C2620 C2622 1.419 . S
C2621 C2616 1.425 . S
C2621 C2618 1.409 . S
C2621 C2619 1.415 . S
C2622 H2612 0.930 . S
C2622 C2620 1.419 . S
C2622 C2623 1.362 . S
C2623 H2613 0.930 . S
C2623 C2616 1.409 . S
C2623 C2622 1.362 . S
H2624 C2630 0.930 . S
H2625 C2633 0.930 . S
H2626 C2634 0.930 . S
H2627 C2635 0.930 . S
H2628 C2638 0.930 . S
H2629 C2639 0.930 . S
C2630 H2624 0.930 . S
C2630 C2631 1.355 . S
C2630 C2632 1.415 . S
C2631 C2630 1.355 . S
C2631 C2633 1.419 . S
C2632 C2630 1.415 . S
C2632 C2637 1.425 . S
C2632 C2639 1.409 . S
C2633 H2625 0.930 . S
C2633 C2631 1.419 . S
C2633 C2634 1.362 . S
C2634 H2626 0.930 . S
C2634 C2633 1.362 . S
C2634 C2637 1.409 . S
C2635 H2627 0.930 . S
C2635 C2636 1.355 . S
C2635 C2637 1.415 . S
C2636 C2635 1.355 . S
C2636 C2638 1.419 . S
C2637 C2632 1.425 . S
C2637 C2634 1.409 . S
C2637 C2635 1.415 . S
C2638 H2628 0.930 . S
C2638 C2636 1.419 . S
C2638 C2639 1.362 . S
C2639 H2629 0.930 . S
C2639 C2632 1.409 . S
C2639 C2638 1.362 . S
H2640 C2646 0.930 . S
H2641 C2649 0.930 . S
H2642 C2650 0.930 . S
H2643 C2651 0.930 . S
H2644 C2654 0.930 . S
H2645 C2655 0.930 . S
C2646 H2640 0.930 . S
C2646 C2647 1.355 . S
C2646 C2648 1.415 . S
C2647 C2646 1.355 . S
C2647 C2649 1.419 . S
C2648 C2646 1.415 . S
C2648 C2653 1.425 . S
C2648 C2655 1.409 . S
C2649 H2641 0.930 . S
C2649 C2647 1.419 . S
C2649 C2650 1.362 . S
C2650 H2642 0.930 . S
C2650 C2649 1.362 . S
C2650 C2653 1.409 . S
C2651 H2643 0.930 . S
C2651 C2652 1.355 . S
C2651 C2653 1.415 . S
C2652 C2651 1.355 . S
C2652 C2654 1.419 . S
C2653 C2648 1.425 . S
C2653 C2650 1.409 . S
C2653 C2651 1.415 . S
C2654 H2644 0.930 . S
C2654 C2652 1.419 . S
C2654 C2655 1.362 . S
C2655 H2645 0.930 . S
C2655 C2648 1.409 . S
C2655 C2654 1.362 . S
H2656 C2662 0.930 . S
H2657 C2665 0.930 . S
H2658 C2666 0.930 . S
H2659 C2667 0.930 . S
H2660 C2670 0.930 . S
H2661 C2671 0.930 . S
C2662 H2656 0.930 . S
C2662 C2663 1.355 . S
C2662 C2664 1.415 . S
C2663 C2662 1.355 . S
C2663 C2665 1.419 . S
C2664 C2662 1.415 . S
C2664 C2669 1.425 . S
C2664 C2671 1.409 . S
C2665 H2657 0.930 . S
C2665 C2663 1.419 . S
C2665 C2666 1.362 . S
C2666 H2658 0.930 . S
C2666 C2665 1.362 . S
C2666 C2669 1.409 . S
C2667 H2659 0.930 . S
C2667 C2668 1.355 . S
C2667 C2669 1.415 . S
C2668 C2667 1.355 . S
C2668 C2670 1.419 . S
C2669 C2664 1.425 . S
C2669 C2666 1.409 . S
C2669 C2667 1.415 . S
C2670 H2660 0.930 . S
C2670 C2668 1.419 . S
C2670 C2671 1.362 . S
C2671 H2661 0.930 . S
C2671 C2664 1.409 . S
C2671 C2670 1.362 . S
H2672 C2678 0.930 . S
H2673 C2681 0.930 . S
H2674 C2682 0.930 . S
H2675 C2683 0.930 . S
H2676 C2686 0.930 . S
H2677 C2687 0.930 . S
C2678 H2672 0.930 . S
C2678 C2679 1.355 . S
C2678 C2680 1.415 . S
C2679 C2678 1.355 . S
C2679 C2681 1.419 . S
C2680 C2678 1.415 . S
C2680 C2685 1.425 . S
C2680 C2687 1.409 . S
C2681 H2673 0.930 . S
C2681 C2679 1.419 . S
C2681 C2682 1.362 . S
C2682 H2674 0.930 . S
C2682 C2681 1.362 . S
C2682 C2685 1.409 . S
C2683 H2675 0.930 . S
C2683 C2684 1.355 . S
C2683 C2685 1.415 . S
C2684 C2683 1.355 . S
C2684 C2686 1.419 . S
C2685 C2680 1.425 . S
C2685 C2682 1.409 . S
C2685 C2683 1.415 . S
C2686 H2676 0.930 . S
C2686 C2684 1.419 . S
C2686 C2687 1.362 . S
C2687 H2677 0.930 . S
C2687 C2680 1.409 . S
C2687 C2686 1.362 . S
H2688 C2694 0.930 . S
H2689 C2697 0.930 . S
H2690 C2698 0.930 . S
H2691 C2699 0.930 . S
H2692 C2702 0.930 . S
H2693 C2703 0.930 . S
C2694 H2688 0.930 . S
C2694 C2695 1.355 . S
C2694 C2696 1.415 . S
C2695 C2694 1.355 . S
C2695 C2697 1.419 . S
C2696 C2694 1.415 . S
C2696 C2701 1.425 . S
C2696 C2703 1.409 . S
C2697 H2689 0.930 . S
C2697 C2695 1.419 . S
C2697 C2698 1.362 . S
C2698 H2690 0.930 . S
C2698 C2697 1.362 . S
C2698 C2701 1.409 . S
C2699 H2691 0.930 . S
C2699 C2700 1.355 . S
C2699 C2701 1.415 . S
C2700 C2699 1.355 . S
C2700 C2702 1.419 . S
C2701 C2696 1.425 . S
C2701 C2698 1.409 . S
C2701 C2699 1.415 . S
C2702 H2692 0.930 . S
C2702 C2700 1.419 . S
C2702 C2703 1.362 . S
C2703 H2693 0.930 . S
C2703 C2696 1.409 . S
C2703 C2702 1.362 . S
H2704 C2710 0.930 . S
H2705 C2713 0.930 . S
H2706 C2714 0.930 . S
H2707 C2715 0.930 . S
H2708 C2718 0.930 . S
H2709 C2719 0.930 . S
C2710 H2704 0.930 . S
C2710 C2711 1.355 . S
C2710 C2712 1.415 . S
C2711 C2710 1.355 . S
C2711 C2713 1.419 . S
C2712 C2710 1.415 . S
C2712 C2717 1.425 . S
C2712 C2719 1.409 . S
C2713 H2705 0.930 . S
C2713 C2711 1.419 . S
C2713 C2714 1.362 . S
C2714 H2706 0.930 . S
C2714 C2713 1.362 . S
C2714 C2717 1.409 . S
C2715 H2707 0.930 . S
C2715 C2716 1.355 . S
C2715 C2717 1.415 . S
C2716 C2715 1.355 . S
C2716 C2718 1.419 . S
C2717 C2712 1.425 . S
C2717 C2714 1.409 . S
C2717 C2715 1.415 . S
C2718 H2708 0.930 . S
C2718 C2716 1.419 . S
C2718 C2719 1.362 . S
C2719 H2709 0.930 . S
C2719 C2712 1.409 . S
C2719 C2718 1.362 . S
H2720 C2726 0.930 . S
H2721 C2729 0.930 . S
H2722 C2730 0.930 . S
H2723 C2731 0.930 . S
H2724 C2734 0.930 . S
H2725 C2735 0.930 . S
C2726 H2720 0.930 . S
C2726 C2727 1.355 . S
C2726 C2728 1.415 . S
C2727 C2726 1.355 . S
C2727 C2729 1.419 . S
C2728 C2726 1.415 . S
C2728 C2733 1.425 . S
C2728 C2735 1.409 . S
C2729 H2721 0.930 . S
C2729 C2727 1.419 . S
C2729 C2730 1.362 . S
C2730 H2722 0.930 . S
C2730 C2729 1.362 . S
C2730 C2733 1.409 . S
C2731 H2723 0.930 . S
C2731 C2732 1.355 . S
C2731 C2733 1.415 . S
C2732 C2731 1.355 . S
C2732 C2734 1.419 . S
C2733 C2728 1.425 . S
C2733 C2730 1.409 . S
C2733 C2731 1.415 . S
C2734 H2724 0.930 . S
C2734 C2732 1.419 . S
C2734 C2735 1.362 . S
C2735 H2725 0.930 . S
C2735 C2728 1.409 . S
C2735 C2734 1.362 . S
H2736 C2742 0.930 . S
H2737 C2745 0.930 . S
H2738 C2746 0.930 . S
H2739 C2747 0.930 . S
H2740 C2750 0.930 . S
H2741 C2751 0.930 . S
C2742 H2736 0.930 . S
C2742 C2743 1.355 . S
C2742 C2744 1.415 . S
C2743 C2742 1.355 . S
C2743 C2745 1.419 . S
C2744 C2742 1.415 . S
C2744 C2749 1.425 . S
C2744 C2751 1.409 . S
C2745 H2737 0.930 . S
C2745 C2743 1.419 . S
C2745 C2746 1.362 . S
C2746 H2738 0.930 . S
C2746 C2745 1.362 . S
C2746 C2749 1.409 . S
C2747 H2739 0.930 . S
C2747 C2748 1.355 . S
C2747 C2749 1.415 . S
C2748 C2747 1.355 . S
C2748 C2750 1.419 . S
C2749 C2744 1.425 . S
C2749 C2746 1.409 . S
C2749 C2747 1.415 . S
C2750 H2740 0.930 . S
C2750 C2748 1.419 . S
C2750 C2751 1.362 . S
C2751 H2741 0.930 . S
C2751 C2744 1.409 . S
C2751 C2750 1.362 . S
H2752 C2758 0.930 . S
H2753 C2761 0.930 . S
H2754 C2762 0.930 . S
H2755 C2763 0.930 . S
H2756 C2766 0.930 . S
H2757 C2767 0.930 . S
C2758 H2752 0.930 . S
C2758 C2759 1.355 . S
C2758 C2760 1.415 . S
C2759 C2758 1.355 . S
C2759 C2761 1.419 . S
C2760 C2758 1.415 . S
C2760 C2765 1.425 . S
C2760 C2767 1.409 . S
C2761 H2753 0.930 . S
C2761 C2759 1.419 . S
C2761 C2762 1.362 . S
C2762 H2754 0.930 . S
C2762 C2761 1.362 . S
C2762 C2765 1.409 . S
C2763 H2755 0.930 . S
C2763 C2764 1.355 . S
C2763 C2765 1.415 . S
C2764 C2763 1.355 . S
C2764 C2766 1.419 . S
C2765 C2760 1.425 . S
C2765 C2762 1.409 . S
C2765 C2763 1.415 . S
C2766 H2756 0.930 . S
C2766 C2764 1.419 . S
C2766 C2767 1.362 . S
C2767 H2757 0.930 . S
C2767 C2760 1.409 . S
C2767 C2766 1.362 . S
H2768 C2774 0.930 . S
H2769 C2777 0.930 . S
H2770 C2778 0.930 . S
H2771 C2779 0.930 . S
H2772 C2782 0.930 . S
H2773 C2783 0.930 . S
C2774 H2768 0.930 . S
C2774 C2775 1.355 . S
C2774 C2776 1.415 . S
C2775 C2774 1.355 . S
C2775 C2777 1.419 . S
C2776 C2774 1.415 . S
C2776 C2781 1.425 . S
C2776 C2783 1.409 . S
C2777 H2769 0.930 . S
C2777 C2775 1.419 . S
C2777 C2778 1.362 . S
C2778 H2770 0.930 . S
C2778 C2777 1.362 . S
C2778 C2781 1.409 . S
C2779 H2771 0.930 . S
C2779 C2780 1.355 . S
C2779 C2781 1.415 . S
C2780 C2779 1.355 . S
C2780 C2782 1.419 . S
C2781 C2776 1.425 . S
C2781 C2778 1.409 . S
C2781 C2779 1.415 . S
C2782 H2772 0.930 . S
C2782 C2780 1.419 . S
C2782 C2783 1.362 . S
C2783 H2773 0.930 . S
C2783 C2776 1.409 . S
C2783 C2782 1.362 . S
H2784 C2790 0.930 . S
H2785 C2793 0.930 . S
H2786 C2794 0.930 . S
H2787 C2795 0.930 . S
H2788 C2798 0.930 . S
H2789 C2799 0.930 . S
C2790 H2784 0.930 . S
C2790 C2791 1.355 . S
C2790 C2792 1.415 . S
C2791 C2790 1.355 . S
C2791 C2793 1.419 . S
C2792 C2790 1.415 . S
C2792 C2797 1.425 . S
C2792 C2799 1.409 . S
C2793 H2785 0.930 . S
C2793 C2791 1.419 . S
C2793 C2794 1.362 . S
C2794 H2786 0.930 . S
C2794 C2793 1.362 . S
C2794 C2797 1.409 . S
C2795 H2787 0.930 . S
C2795 C2796 1.355 . S
C2795 C2797 1.415 . S
C2796 C2795 1.355 . S
C2796 C2798 1.419 . S
C2797 C2792 1.425 . S
C2797 C2794 1.409 . S
C2797 C2795 1.415 . S
C2798 H2788 0.930 . S
C2798 C2796 1.419 . S
C2798 C2799 1.362 . S
C2799 H2789 0.930 . S
C2799 C2792 1.409 . S
C2799 C2798 1.362 . S
H2800 C2806 0.930 . S
H2801 C2809 0.930 . S
H2802 C2810 0.930 . S
H2803 C2811 0.930 . S
H2804 C2814 0.930 . S
H2805 C2815 0.930 . S
C2806 H2800 0.930 . S
C2806 C2807 1.355 . S
C2806 C2808 1.415 . S
C2807 C2806 1.355 . S
C2807 C2809 1.419 . S
C2808 C2806 1.415 . S
C2808 C2813 1.425 . S
C2808 C2815 1.409 . S
C2809 H2801 0.930 . S
C2809 C2807 1.419 . S
C2809 C2810 1.362 . S
C2810 H2802 0.930 . S
C2810 C2809 1.362 . S
C2810 C2813 1.409 . S
C2811 H2803 0.930 . S
C2811 C2812 1.355 . S
C2811 C2813 1.415 . S
C2812 C2811 1.355 . S
C2812 C2814 1.419 . S
C2813 C2808 1.425 . S
C2813 C2810 1.409 . S
C2813 C2811 1.415 . S
C2814 H2804 0.930 . S
C2814 C2812 1.419 . S
C2814 C2815 1.362 . S
C2815 H2805 0.930 . S
C2815 C2808 1.409 . S
C2815 C2814 1.362 . S
H2816 C2822 0.930 . S
H2817 C2825 0.930 . S
H2818 C2826 0.930 . S
H2819 C2827 0.930 . S
H2820 C2830 0.930 . S
H2821 C2831 0.930 . S
C2822 H2816 0.930 . S
C2822 C2823 1.355 . S
C2822 C2824 1.415 . S
C2823 C2822 1.355 . S
C2823 C2825 1.419 . S
C2824 C2822 1.415 . S
C2824 C2829 1.425 . S
C2824 C2831 1.409 . S
C2825 H2817 0.930 . S
C2825 C2823 1.419 . S
C2825 C2826 1.362 . S
C2826 H2818 0.930 . S
C2826 C2825 1.362 . S
C2826 C2829 1.409 . S
C2827 H2819 0.930 . S
C2827 C2828 1.355 . S
C2827 C2829 1.415 . S
C2828 C2827 1.355 . S
C2828 C2830 1.419 . S
C2829 C2824 1.425 . S
C2829 C2826 1.409 . S
C2829 C2827 1.415 . S
C2830 H2820 0.930 . S
C2830 C2828 1.419 . S
C2830 C2831 1.362 . S
C2831 H2821 0.930 . S
C2831 C2824 1.409 . S
C2831 C2830 1.362 . S
H2832 C2838 0.930 . S
H2833 C2841 0.930 . S
H2834 C2842 0.930 . S
H2835 C2843 0.930 . S
H2836 C2846 0.930 . S
H2837 C2847 0.930 . S
C2838 H2832 0.930 . S
C2838 C2839 1.355 . S
C2838 C2840 1.415 . S
C2839 C2838 1.355 . S
C2839 C2841 1.419 . S
C2840 C2838 1.415 . S
C2840 C2845 1.425 . S
C2840 C2847 1.409 . S
C2841 H2833 0.930 . S
C2841 C2839 1.419 . S
C2841 C2842 1.362 . S
C2842 H2834 0.930 . S
C2842 C2841 1.362 . S
C2842 C2845 1.409 . S
C2843 H2835 0.930 . S
C2843 C2844 1.355 . S
C2843 C2845 1.415 . S
C2844 C2843 1.355 . S
C2844 C2846 1.419 . S
C2845 C2840 1.425 . S
C2845 C2842 1.409 . S
C2845 C2843 1.415 . S
C2846 H2836 0.930 . S
C2846 C2844 1.419 . S
C2846 C2847 1.362 . S
C2847 H2837 0.930 . S
C2847 C2840 1.409 . S
C2847 C2846 1.362 . S
H2848 C2854 0.930 . S
H2849 C2857 0.930 . S
H2850 C2858 0.930 . S
H2851 C2859 0.930 . S
H2852 C2862 0.930 . S
H2853 C2863 0.930 . S
C2854 H2848 0.930 . S
C2854 C2855 1.355 . S
C2854 C2856 1.415 . S
C2855 C2854 1.355 . S
C2855 C2857 1.419 . S
C2856 C2854 1.415 . S
C2856 C2861 1.425 . S
C2856 C2863 1.409 . S
C2857 H2849 0.930 . S
C2857 C2855 1.419 . S
C2857 C2858 1.362 . S
C2858 H2850 0.930 . S
C2858 C2857 1.362 . S
C2858 C2861 1.409 . S
C2859 H2851 0.930 . S
C2859 C2860 1.355 . S
C2859 C2861 1.415 . S
C2860 C2859 1.355 . S
C2860 C2862 1.419 . S
C2861 C2856 1.425 . S
C2861 C2858 1.409 . S
C2861 C2859 1.415 . S
C2862 H2852 0.930 . S
C2862 C2860 1.419 . S
C2862 C2863 1.362 . S
C2863 H2853 0.930 . S
C2863 C2856 1.409 . S
C2863 C2862 1.362 . S
H2864 C2870 0.930 . S
H2865 C2873 0.930 . S
H2866 C2874 0.930 . S
H2867 C2875 0.930 . S
H2868 C2878 0.930 . S
H2869 C2879 0.930 . S
C2870 H2864 0.930 . S
C2870 C2871 1.355 . S
C2870 C2872 1.415 . S
C2871 C2870 1.355 . S
C2871 C2873 1.419 . S
C2872 C2870 1.415 . S
C2872 C2877 1.425 . S
C2872 C2879 1.409 . S
C2873 H2865 0.930 . S
C2873 C2871 1.419 . S
C2873 C2874 1.362 . S
C2874 H2866 0.930 . S
C2874 C2873 1.362 . S
C2874 C2877 1.409 . S
C2875 H2867 0.930 . S
C2875 C2876 1.355 . S
C2875 C2877 1.415 . S
C2876 C2875 1.355 . S
C2876 C2878 1.419 . S
C2877 C2872 1.425 . S
C2877 C2874 1.409 . S
C2877 C2875 1.415 . S
C2878 H2868 0.930 . S
C2878 C2876 1.419 . S
C2878 C2879 1.362 . S
C2879 H2869 0.930 . S
C2879 C2872 1.409 . S
C2879 C2878 1.362 . S
H2880 C2886 0.930 . S
H2881 C2889 0.930 . S
H2882 C2890 0.930 . S
H2883 C2891 0.930 . S
H2884 C2894 0.930 . S
H2885 C2895 0.930 . S
C2886 H2880 0.930 . S
C2886 C2887 1.355 . S
C2886 C2888 1.415 . S
C2887 C2886 1.355 . S
C2887 C2889 1.419 . S
C2888 C2886 1.415 . S
C2888 C2893 1.425 . S
C2888 C2895 1.409 . S
C2889 H2881 0.930 . S
C2889 C2887 1.419 . S
C2889 C2890 1.362 . S
C2890 H2882 0.930 . S
C2890 C2889 1.362 . S
C2890 C2893 1.409 . S
C2891 H2883 0.930 . S
C2891 C2892 1.355 . S
C2891 C2893 1.415 . S
C2892 C2891 1.355 . S
C2892 C2894 1.419 . S
C2893 C2888 1.425 . S
C2893 C2890 1.409 . S
C2893 C2891 1.415 . S
C2894 H2884 0.930 . S
C2894 C2892 1.419 . S
C2894 C2895 1.362 . S
C2895 H2885 0.930 . S
C2895 C2888 1.409 . S
C2895 C2894 1.362 . S
H2896 C2902 0.930 . S
H2897 C2905 0.930 . S
H2898 C2906 0.930 . S
H2899 C2907 0.930 . S
H2900 C2910 0.930 . S
H2901 C2911 0.930 . S
C2902 H2896 0.930 . S
C2902 C2903 1.355 . S
C2902 C2904 1.415 . S
C2903 C2902 1.355 . S
C2903 C2905 1.419 . S
C2904 C2902 1.415 . S
C2904 C2909 1.425 . S
C2904 C2911 1.409 . S
C2905 H2897 0.930 . S
C2905 C2903 1.419 . S
C2905 C2906 1.362 . S
C2906 H2898 0.930 . S
C2906 C2905 1.362 . S
C2906 C2909 1.409 . S
C2907 H2899 0.930 . S
C2907 C2908 1.355 . S
C2907 C2909 1.415 . S
C2908 C2907 1.355 . S
C2908 C2910 1.419 . S
C2909 C2904 1.425 . S
C2909 C2906 1.409 . S
C2909 C2907 1.415 . S
C2910 H2900 0.930 . S
C2910 C2908 1.419 . S
C2910 C2911 1.362 . S
C2911 H2901 0.930 . S
C2911 C2904 1.409 . S
C2911 C2910 1.362 . S
H2912 C2918 0.930 . S
H2913 C2921 0.930 . S
H2914 C2922 0.930 . S
H2915 C2923 0.930 . S
H2916 C2926 0.930 . S
H2917 C2927 0.930 . S
C2918 H2912 0.930 . S
C2918 C2919 1.355 . S
C2918 C2920 1.415 . S
C2919 C2918 1.355 . S
C2919 C2921 1.419 . S
C2920 C2918 1.415 . S
C2920 C2925 1.425 . S
C2920 C2927 1.409 . S
C2921 H2913 0.930 . S
C2921 C2919 1.419 . S
C2921 C2922 1.362 . S
C2922 H2914 0.930 . S
C2922 C2921 1.362 . S
C2922 C2925 1.409 . S
C2923 H2915 0.930 . S
C2923 C2924 1.355 . S
C2923 C2925 1.415 . S
C2924 C2923 1.355 . S
C2924 C2926 1.419 . S
C2925 C2920 1.425 . S
C2925 C2922 1.409 . S
C2925 C2923 1.415 . S
C2926 H2916 0.930 . S
C2926 C2924 1.419 . S
C2926 C2927 1.362 . S
C2927 H2917 0.930 . S
C2927 C2920 1.409 . S
C2927 C2926 1.362 . S
H2928 C2934 0.930 . S
H2929 C2937 0.930 . S
H2930 C2938 0.930 . S
H2931 C2939 0.930 . S
H2932 C2942 0.930 . S
H2933 C2943 0.930 . S
C2934 H2928 0.930 . S
C2934 C2935 1.355 . S
C2934 C2936 1.415 . S
C2935 C2934 1.355 . S
C2935 C2937 1.419 . S
C2936 C2934 1.415 . S
C2936 C2941 1.425 . S
C2936 C2943 1.409 . S
C2937 H2929 0.930 . S
C2937 C2935 1.419 . S
C2937 C2938 1.362 . S
C2938 H2930 0.930 . S
C2938 C2937 1.362 . S
C2938 C2941 1.409 . S
C2939 H2931 0.930 . S
C2939 C2940 1.355 . S
C2939 C2941 1.415 . S
C2940 C2939 1.355 . S
C2940 C2942 1.419 . S
C2941 C2936 1.425 . S
C2941 C2938 1.409 . S
C2941 C2939 1.415 . S
C2942 H2932 0.930 . S
C2942 C2940 1.419 . S
C2942 C2943 1.362 . S
C2943 H2933 0.930 . S
C2943 C2936 1.409 . S
C2943 C2942 1.362 . S
H2944 C2950 0.930 . S
H2945 C2953 0.930 . S
H2946 C2954 0.930 . S
H2947 C2955 0.930 . S
H2948 C2958 0.930 . S
H2949 C2959 0.930 . S
C2950 H2944 0.930 . S
C2950 C2951 1.355 . S
C2950 C2952 1.415 . S
C2951 C2950 1.355 . S
C2951 C2953 1.419 . S
C2952 C2950 1.415 . S
C2952 C2957 1.425 . S
C2952 C2959 1.409 . S
C2953 H2945 0.930 . S
C2953 C2951 1.419 . S
C2953 C2954 1.362 . S
C2954 H2946 0.930 . S
C2954 C2953 1.362 . S
C2954 C2957 1.409 . S
C2955 H2947 0.930 . S
C2955 C2956 1.355 . S
C2955 C2957 1.415 . S
C2956 C2955 1.355 . S
C2956 C2958 1.419 . S
C2957 C2952 1.425 . S
C2957 C2954 1.409 . S
C2957 C2955 1.415 . S
C2958 H2948 0.930 . S
C2958 C2956 1.419 . S
C2958 C2959 1.362 . S
C2959 H2949 0.930 . S
C2959 C2952 1.409 . S
C2959 C2958 1.362 . S
H2960 C2966 0.930 . S
H2961 C2969 0.930 . S
H2962 C2970 0.930 . S
H2963 C2971 0.930 . S
H2964 C2974 0.930 . S
H2965 C2975 0.930 . S
C2966 H2960 0.930 . S
C2966 C2967 1.355 . S
C2966 C2968 1.415 . S
C2967 C2966 1.355 . S
C2967 C2969 1.419 . S
C2968 C2966 1.415 . S
C2968 C2973 1.425 . S
C2968 C2975 1.409 . S
C2969 H2961 0.930 . S
C2969 C2967 1.419 . S
C2969 C2970 1.362 . S
C2970 H2962 0.930 . S
C2970 C2969 1.362 . S
C2970 C2973 1.409 . S
C2971 H2963 0.930 . S
C2971 C2972 1.355 . S
C2971 C2973 1.415 . S
C2972 C2971 1.355 . S
C2972 C2974 1.419 . S
C2973 C2968 1.425 . S
C2973 C2970 1.409 . S
C2973 C2971 1.415 . S
C2974 H2964 0.930 . S
C2974 C2972 1.419 . S
C2974 C2975 1.362 . S
C2975 H2965 0.930 . S
C2975 C2968 1.409 . S
C2975 C2974 1.362 . S
H2976 C2982 0.930 . S
H2977 C2985 0.930 . S
H2978 C2986 0.930 . S
H2979 C2987 0.930 . S
H2980 C2990 0.930 . S
H2981 C2991 0.930 . S
C2982 H2976 0.930 . S
C2982 C2983 1.355 . S
C2982 C2984 1.415 . S
C2983 C2982 1.355 . S
C2983 C2985 1.419 . S
C2984 C2982 1.415 . S
C2984 C2989 1.425 . S
C2984 C2991 1.409 . S
C2985 H2977 0.930 . S
C2985 C2983 1.419 . S
C2985 C2986 1.362 . S
C2986 H2978 0.930 . S
C2986 C2985 1.362 . S
C2986 C2989 1.409 . S
C2987 H2979 0.930 . S
C2987 C2988 1.355 . S
C2987 C2989 1.415 . S
C2988 C2987 1.355 . S
C2988 C2990 1.419 . S
C2989 C2984 1.425 . S
C2989 C2986 1.409 . S
C2989 C2987 1.415 . S
C2990 H2980 0.930 . S
C2990 C2988 1.419 . S
C2990 C2991 1.362 . S
C2991 H2981 0.930 . S
C2991 C2984 1.409 . S
C2991 C2990 1.362 . S
H2992 C2998 0.930 . S
H2993 C3001 0.930 . S
H2994 C3002 0.930 . S
H2995 C3003 0.930 . S
H2996 C3006 0.930 . S
H2997 C3007 0.930 . S
C2998 H2992 0.930 . S
C2998 C2999 1.355 . S
C2998 C3000 1.415 . S
C2999 C2998 1.355 . S
C2999 C3001 1.419 . S
C3000 C2998 1.415 . S
C3000 C3005 1.425 . S
C3000 C3007 1.409 . S
C3001 H2993 0.930 . S
C3001 C2999 1.419 . S
C3001 C3002 1.362 . S
C3002 H2994 0.930 . S
C3002 C3001 1.362 . S
C3002 C3005 1.409 . S
C3003 H2995 0.930 . S
C3003 C3004 1.355 . S
C3003 C3005 1.415 . S
C3004 C3003 1.355 . S
C3004 C3006 1.419 . S
C3005 C3000 1.425 . S
C3005 C3002 1.409 . S
C3005 C3003 1.415 . S
C3006 H2996 0.930 . S
C3006 C3004 1.419 . S
C3006 C3007 1.362 . S
C3007 H2997 0.930 . S
C3007 C3000 1.409 . S
C3007 C3006 1.362 . S
H3008 C3014 0.930 . S
H3009 C3017 0.930 . S
H3010 C3018 0.930 . S
H3011 C3019 0.930 . S
H3012 C3022 0.930 . S
H3013 C3023 0.930 . S
C3014 H3008 0.930 . S
C3014 C3015 1.355 . S
C3014 C3016 1.415 . S
C3015 C3014 1.355 . S
C3015 C3017 1.419 . S
C3016 C3014 1.415 . S
C3016 C3021 1.425 . S
C3016 C3023 1.409 . S
C3017 H3009 0.930 . S
C3017 C3015 1.419 . S
C3017 C3018 1.362 . S
C3018 H3010 0.930 . S
C3018 C3017 1.362 . S
C3018 C3021 1.409 . S
C3019 H3011 0.930 . S
C3019 C3020 1.355 . S
C3019 C3021 1.415 . S
C3020 C3019 1.355 . S
C3020 C3022 1.419 . S
C3021 C3016 1.425 . S
C3021 C3018 1.409 . S
C3021 C3019 1.415 . S
C3022 H3012 0.930 . S
C3022 C3020 1.419 . S
C3022 C3023 1.362 . S
C3023 H3013 0.930 . S
C3023 C3016 1.409 . S
C3023 C3022 1.362 . S
H3024 C3030 0.930 . S
H3025 C3033 0.930 . S
H3026 C3034 0.930 . S
H3027 C3035 0.930 . S
H3028 C3038 0.930 . S
H3029 C3039 0.930 . S
C3030 H3024 0.930 . S
C3030 C3031 1.355 . S
C3030 C3032 1.415 . S
C3031 C3030 1.355 . S
C3031 C3033 1.419 . S
C3032 C3030 1.415 . S
C3032 C3037 1.425 . S
C3032 C3039 1.409 . S
C3033 H3025 0.930 . S
C3033 C3031 1.419 . S
C3033 C3034 1.362 . S
C3034 H3026 0.930 . S
C3034 C3033 1.362 . S
C3034 C3037 1.409 . S
C3035 H3027 0.930 . S
C3035 C3036 1.355 . S
C3035 C3037 1.415 . S
C3036 C3035 1.355 . S
C3036 C3038 1.419 . S
C3037 C3032 1.425 . S
C3037 C3034 1.409 . S
C3037 C3035 1.415 . S
C3038 H3028 0.930 . S
C3038 C3036 1.419 . S
C3038 C3039 1.362 . S
C3039 H3029 0.930 . S
C3039 C3032 1.409 . S
C3039 C3038 1.362 . S
H3040 C3046 0.930 . S
H3041 C3049 0.930 . S
H3042 C3050 0.930 . S
H3043 C3051 0.930 . S
H3044 C3054 0.930 . S
H3045 C3055 0.930 . S
C3046 H3040 0.930 . S
C3046 C3047 1.355 . S
C3046 C3048 1.415 . S
C3047 C3046 1.355 . S
C3047 C3049 1.419 . S
C3048 C3046 1.415 . S
C3048 C3053 1.425 . S
C3048 C3055 1.409 . S
C3049 H3041 0.930 . S
C3049 C3047 1.419 . S
C3049 C3050 1.362 . S
C3050 H3042 0.930 . S
C3050 C3049 1.362 . S
C3050 C3053 1.409 . S
C3051 H3043 0.930 . S
C3051 C3052 1.355 . S
C3051 C3053 1.415 . S
C3052 C3051 1.355 . S
C3052 C3054 1.419 . S
C3053 C3048 1.425 . S
C3053 C3050 1.409 . S
C3053 C3051 1.415 . S
C3054 H3044 0.930 . S
C3054 C3052 1.419 . S
C3054 C3055 1.362 . S
C3055 H3045 0.930 . S
C3055 C3048 1.409 . S
C3055 C3054 1.362 . S
H3056 C3062 0.930 . S
H3057 C3065 0.930 . S
H3058 C3066 0.930 . S
H3059 C3067 0.930 . S
H3060 C3070 0.930 . S
H3061 C3071 0.930 . S
C3062 H3056 0.930 . S
C3062 C3063 1.355 . S
C3062 C3064 1.415 . S
C3063 C3062 1.355 . S
C3063 C3065 1.419 . S
C3064 C3062 1.415 . S
C3064 C3069 1.425 . S
C3064 C3071 1.409 . S
C3065 H3057 0.930 . S
C3065 C3063 1.419 . S
C3065 C3066 1.362 . S
C3066 H3058 0.930 . S
C3066 C3065 1.362 . S
C3066 C3069 1.409 . S
C3067 H3059 0.930 . S
C3067 C3068 1.355 . S
C3067 C3069 1.415 . S
C3068 C3067 1.355 . S
C3068 C3070 1.419 . S
C3069 C3064 1.425 . S
C3069 C3066 1.409 . S
C3069 C3067 1.415 . S
C3070 H3060 0.930 . S
C3070 C3068 1.419 . S
C3070 C3071 1.362 . S
C3071 H3061 0.930 . S
C3071 C3064 1.409 . S
C3071 C3070 1.362 . S
H3072 C3078 0.930 . S
H3073 C3081 0.930 . S
H3074 C3082 0.930 . S
H3075 C3083 0.930 . S
H3076 C3086 0.930 . S
H3077 C3087 0.930 . S
C3078 H3072 0.930 . S
C3078 C3079 1.355 . S
C3078 C3080 1.415 . S
C3079 C3078 1.355 . S
C3079 C3081 1.419 . S
C3080 C3078 1.415 . S
C3080 C3085 1.425 . S
C3080 C3087 1.409 . S
C3081 H3073 0.930 . S
C3081 C3079 1.419 . S
C3081 C3082 1.362 . S
C3082 H3074 0.930 . S
C3082 C3081 1.362 . S
C3082 C3085 1.409 . S
C3083 H3075 0.930 . S
C3083 C3084 1.355 . S
C3083 C3085 1.415 . S
C3084 C3083 1.355 . S
C3084 C3086 1.419 . S
C3085 C3080 1.425 . S
C3085 C3082 1.409 . S
C3085 C3083 1.415 . S
C3086 H3076 0.930 . S
C3086 C3084 1.419 . S
C3086 C3087 1.362 . S
C3087 H3077 0.930 . S
C3087 C3080 1.409 . S
C3087 C3086 1.362 . S
H3088 C3094 0.930 . S
H3089 C3097 0.930 . S
H3090 C3098 0.930 . S
H3091 C3099 0.930 . S
H3092 C3102 0.930 . S
H3093 C3103 0.930 . S
C3094 H3088 0.930 . S
C3094 C3095 1.355 . S
C3094 C3096 1.415 . S
C3095 C3094 1.355 . S
C3095 C3097 1.419 . S
C3096 C3094 1.415 . S
C3096 C3101 1.425 . S
C3096 C3103 1.409 . S
C3097 H3089 0.930 . S
C3097 C3095 1.419 . S
C3097 C3098 1.362 . S
C3098 H3090 0.930 . S
C3098 C3097 1.362 . S
C3098 C3101 1.409 . S
C3099 H3091 0.930 . S
C3099 C3100 1.355 . S
C3099 C3101 1.415 . S
C3100 C3099 1.355 . S
C3100 C3102 1.419 . S
C3101 C3096 1.425 . S
C3101 C3098 1.409 . S
C3101 C3099 1.415 . S
C3102 H3092 0.930 . S
C3102 C3100 1.419 . S
C3102 C3103 1.362 . S
C3103 H3093 0.930 . S
C3103 C3096 1.409 . S
C3103 C3102 1.362 . S
H3104 C3110 0.930 . S
H3105 C3113 0.930 . S
H3106 C3114 0.930 . S
H3107 C3115 0.930 . S
H3108 C3118 0.930 . S
H3109 C3119 0.930 . S
C3110 H3104 0.930 . S
C3110 C3111 1.355 . S
C3110 C3112 1.415 . S
C3111 C3110 1.355 . S
C3111 C3113 1.419 . S
C3112 C3110 1.415 . S
C3112 C3117 1.425 . S
C3112 C3119 1.409 . S
C3113 H3105 0.930 . S
C3113 C3111 1.419 . S
C3113 C3114 1.362 . S
C3114 H3106 0.930 . S
C3114 C3113 1.362 . S
C3114 C3117 1.409 . S
C3115 H3107 0.930 . S
C3115 C3116 1.355 . S
C3115 C3117 1.415 . S
C3116 C3115 1.355 . S
C3116 C3118 1.419 . S
C3117 C3112 1.425 . S
C3117 C3114 1.409 . S
C3117 C3115 1.415 . S
C3118 H3108 0.930 . S
C3118 C3116 1.419 . S
C3118 C3119 1.362 . S
C3119 H3109 0.930 . S
C3119 C3112 1.409 . S
C3119 C3118 1.362 . S
H3120 C3126 0.930 . S
H3121 C3129 0.930 . S
H3122 C3130 0.930 . S
H3123 C3131 0.930 . S
H3124 C3134 0.930 . S
H3125 C3135 0.930 . S
C3126 H3120 0.930 . S
C3126 C3127 1.355 . S
C3126 C3128 1.415 . S
C3127 C3126 1.355 . S
C3127 C3129 1.419 . S
C3128 C3126 1.415 . S
C3128 C3133 1.425 . S
C3128 C3135 1.409 . S
C3129 H3121 0.930 . S
C3129 C3127 1.419 . S
C3129 C3130 1.362 . S
C3130 H3122 0.930 . S
C3130 C3129 1.362 . S
C3130 C3133 1.409 . S
C3131 H3123 0.930 . S
C3131 C3132 1.355 . S
C3131 C3133 1.415 . S
C3132 C3131 1.355 . S
C3132 C3134 1.419 . S
C3133 C3128 1.425 . S
C3133 C3130 1.409 . S
C3133 C3131 1.415 . S
C3134 H3124 0.930 . S
C3134 C3132 1.419 . S
C3134 C3135 1.362 . S
C3135 H3125 0.930 . S
C3135 C3128 1.409 . S
C3135 C3134 1.362 . S
H3136 C3142 0.930 . S
H3137 C3145 0.930 . S
H3138 C3146 0.930 . S
H3139 C3147 0.930 . S
H3140 C3150 0.930 . S
H3141 C3151 0.930 . S
C3142 H3136 0.930 . S
C3142 C3143 1.355 . S
C3142 C3144 1.415 . S
C3143 C3142 1.355 . S
C3143 C3145 1.419 . S
C3144 C3142 1.415 . S
C3144 C3149 1.425 . S
C3144 C3151 1.409 . S
C3145 H3137 0.930 . S
C3145 C3143 1.419 . S
C3145 C3146 1.362 . S
C3146 H3138 0.930 . S
C3146 C3145 1.362 . S
C3146 C3149 1.409 . S
C3147 H3139 0.930 . S
C3147 C3148 1.355 . S
C3147 C3149 1.415 . S
C3148 C3147 1.355 . S
C3148 C3150 1.419 . S
C3149 C3144 1.425 . S
C3149 C3146 1.409 . S
C3149 C3147 1.415 . S
C3150 H3140 0.930 . S
C3150 C3148 1.419 . S
C3150 C3151 1.362 . S
C3151 H3141 0.930 . S
C3151 C3144 1.409 . S
C3151 C3150 1.362 . S
H3152 C3158 0.930 . S
H3153 C3161 0.930 . S
H3154 C3162 0.930 . S
H3155 C3163 0.930 . S
H3156 C3166 0.930 . S
H3157 C3167 0.930 . S
C3158 H3152 0.930 . S
C3158 C3159 1.355 . S
C3158 C3160 1.415 . S
C3159 C3158 1.355 . S
C3159 C3161 1.419 . S
C3160 C3158 1.415 . S
C3160 C3165 1.425 . S
C3160 C3167 1.409 . S
C3161 H3153 0.930 . S
C3161 C3159 1.419 . S
C3161 C3162 1.362 . S
C3162 H3154 0.930 . S
C3162 C3161 1.362 . S
C3162 C3165 1.409 . S
C3163 H3155 0.930 . S
C3163 C3164 1.355 . S
C3163 C3165 1.415 . S
C3164 C3163 1.355 . S
C3164 C3166 1.419 . S
C3165 C3160 1.425 . S
C3165 C3162 1.409 . S
C3165 C3163 1.415 . S
C3166 H3156 0.930 . S
C3166 C3164 1.419 . S
C3166 C3167 1.362 . S
C3167 H3157 0.930 . S
C3167 C3160 1.409 . S
C3167 C3166 1.362 . S
H3168 C3174 0.930 . S
H3169 C3177 0.930 . S
H3170 C3178 0.930 . S
H3171 C3179 0.930 1_655 S
H3172 C3182 0.930 . S
H3173 C3183 0.930 . S
C3174 H3168 0.930 . S
C3174 C3175 1.355 . S
C3174 C3176 1.415 . S
C3175 C3174 1.355 . S
C3175 C3177 1.419 1_455 S
C3176 C3174 1.415 . S
C3176 C3181 1.425 . S
C3176 C3183 1.409 . S
C3177 H3169 0.930 . S
C3177 C3175 1.419 1_655 S
C3177 C3178 1.362 . S
C3178 H3170 0.930 . S
C3178 C3177 1.362 . S
C3178 C3181 1.409 1_655 S
C3179 H3171 0.930 1_455 S
C3179 C3180 1.355 . S
C3179 C3181 1.415 . S
C3180 C3179 1.355 . S
C3180 C3182 1.419 . S
C3181 C3176 1.425 . S
C3181 C3178 1.409 1_455 S
C3181 C3179 1.415 . S
C3182 H3172 0.930 . S
C3182 C3180 1.419 . S
C3182 C3183 1.362 . S
C3183 H3173 0.930 . S
C3183 C3176 1.409 . S
C3183 C3182 1.362 . S
H3184 C3190 0.930 . S
H3185 C3193 0.930 . S
H3186 C3194 0.930 . S
H3187 C3195 0.930 . S
H3188 C3198 0.930 . S
H3189 C3199 0.930 . S
C3190 H3184 0.930 . S
C3190 C3191 1.355 . S
C3190 C3192 1.415 . S
C3191 C3190 1.355 . S
C3191 C3193 1.419 . S
C3192 C3190 1.415 . S
C3192 C3197 1.425 . S
C3192 C3199 1.409 . S
C3193 H3185 0.930 . S
C3193 C3191 1.419 . S
C3193 C3194 1.362 . S
C3194 H3186 0.930 . S
C3194 C3193 1.362 . S
C3194 C3197 1.409 . S
C3195 H3187 0.930 . S
C3195 C3196 1.355 . S
C3195 C3197 1.415 . S
C3196 C3195 1.355 . S
C3196 C3198 1.419 . S
C3197 C3192 1.425 . S
C3197 C3194 1.409 . S
C3197 C3195 1.415 . S
C3198 H3188 0.930 . S
C3198 C3196 1.419 . S
C3198 C3199 1.362 . S
C3199 H3189 0.930 . S
C3199 C3192 1.409 . S
C3199 C3198 1.362 . S
H3200 C3206 0.930 . S
H3201 C3209 0.930 . S
H3202 C3210 0.930 . S
H3203 C3211 0.930 . S
H3204 C3214 0.930 . S
H3205 C3215 0.930 . S
C3206 H3200 0.930 . S
C3206 C3207 1.355 . S
C3206 C3208 1.415 . S
C3207 C3206 1.355 . S
C3207 C3209 1.419 . S
C3208 C3206 1.415 . S
C3208 C3213 1.425 . S
C3208 C3215 1.409 . S
C3209 H3201 0.930 . S
C3209 C3207 1.419 . S
C3209 C3210 1.362 . S
C3210 H3202 0.930 . S
C3210 C3209 1.362 . S
C3210 C3213 1.409 . S
C3211 H3203 0.930 . S
C3211 C3212 1.355 . S
C3211 C3213 1.415 . S
C3212 C3211 1.355 . S
C3212 C3214 1.419 . S
C3213 C3208 1.425 . S
C3213 C3210 1.409 . S
C3213 C3211 1.415 . S
C3214 H3204 0.930 . S
C3214 C3212 1.419 . S
C3214 C3215 1.362 . S
C3215 H3205 0.930 . S
C3215 C3208 1.409 . S
C3215 C3214 1.362 . S
H3216 C3222 0.930 . S
H3217 C3225 0.930 1_565 S
H3218 C3226 0.930 . S
H3219 C3227 0.930 . S
H3220 C3230 0.930 . S
H3221 C3231 0.930 . S
C3222 H3216 0.930 . S
C3222 C3223 1.355 . S
C3222 C3224 1.415 . S
C3223 C3222 1.355 . S
C3223 C3225 1.419 . S
C3224 C3222 1.415 . S
C3224 C3229 1.425 . S
C3224 C3231 1.409 . S
C3225 H3217 0.930 1_545 S
C3225 C3223 1.419 . S
C3225 C3226 1.362 . S
C3226 H3218 0.930 . S
C3226 C3225 1.362 . S
C3226 C3229 1.409 . S
C3227 H3219 0.930 . S
C3227 C3228 1.355 . S
C3227 C3229 1.415 . S
C3228 C3227 1.355 . S
C3228 C3230 1.419 . S
C3229 C3224 1.425 . S
C3229 C3226 1.409 . S
C3229 C3227 1.415 . S
C3230 H3220 0.930 . S
C3230 C3228 1.419 . S
C3230 C3231 1.362 . S
C3231 H3221 0.930 . S
C3231 C3224 1.409 . S
C3231 C3230 1.362 . S
H3232 C3238 0.930 . S
H3233 C3241 0.930 . S
H3234 C3242 0.918 1_655 S
H3235 C3243 0.930 . S
H3236 C3246 0.930 . S
H3237 C3247 0.930 . S
C3238 H3232 0.930 . S
C3238 C3239 1.355 . S
C3238 C3240 1.415 . S
C3239 C3238 1.355 . S
C3239 C3241 1.419 1_455 S
C3240 C3238 1.415 . S
C3240 C3245 1.425 . S
C3240 C3247 1.409 . S
C3241 H3233 0.930 . S
C3241 C3239 1.419 1_655 S
C3241 C3242 1.359 1_655 S
C3242 H3234 0.918 1_455 S
C3242 C3241 1.359 1_455 S
C3242 C3245 1.426 . S
C3243 H3235 0.930 . S
C3243 C3244 1.355 . S
C3243 C3245 1.415 . S
C3244 C3243 1.355 . S
C3244 C3246 1.419 . S
C3245 C3240 1.425 . S
C3245 C3242 1.426 . S
C3245 C3243 1.415 . S
C3246 H3236 0.930 . S
C3246 C3244 1.419 . S
C3246 C3247 1.362 . S
C3247 H3237 0.930 . S
C3247 C3240 1.409 . S
C3247 C3246 1.362 . S
H3248 C3254 0.930 1_565 S
H3249 C3257 0.930 . S
H3250 C3258 0.930 . S
H3251 C3259 0.930 . S
H3252 C3262 0.930 . S
H3253 C3263 0.930 . S
C3254 H3248 0.930 1_545 S
C3254 C3255 1.355 . S
C3254 C3256 1.415 . S
C3255 C3254 1.355 . S
C3255 C3257 1.419 . S
C3256 C3254 1.415 . S
C3256 C3261 1.425 . S
C3256 C3263 1.409 1_545 S
C3257 H3249 0.930 . S
C3257 C3255 1.419 . S
C3257 C3258 1.362 . S
C3258 H3250 0.930 . S
C3258 C3257 1.362 . S
C3258 C3261 1.409 . S
C3259 H3251 0.930 . S
C3259 C3260 1.355 . S
C3259 C3261 1.415 . S
C3260 C3259 1.355 . S
C3260 C3262 1.419 1_545 S
C3261 C3256 1.425 . S
C3261 C3258 1.409 . S
C3261 C3259 1.415 . S
C3262 H3252 0.930 . S
C3262 C3260 1.419 1_565 S
C3262 C3263 1.362 . S
C3263 H3253 0.930 . S
C3263 C3256 1.409 1_565 S
C3263 C3262 1.362 . S
H3264 C3270 0.930 1_655 S
H3265 C3273 0.930 . S
H3266 C3274 0.930 . S
H3267 C3275 0.930 . S
H3268 C3278 0.930 . S
H3269 C3279 0.930 . S
C3270 H3264 0.930 1_455 S
C3270 C3271 1.355 . S
C3270 C3272 1.415 . S
C3271 C3270 1.355 . S
C3271 C3273 1.419 . S
C3272 C3270 1.415 . S
C3272 C3277 1.425 . S
C3272 C3279 1.409 1_455 S
C3273 H3265 0.930 . S
C3273 C3271 1.419 . S
C3273 C3274 1.362 . S
C3274 H3266 0.930 . S
C3274 C3273 1.362 . S
C3274 C3277 1.409 . S
C3275 H3267 0.930 . S
C3275 C3276 1.355 . S
C3275 C3277 1.415 . S
C3276 C3275 1.355 . S
C3276 C3278 1.419 1_455 S
C3277 C3272 1.425 . S
C3277 C3274 1.409 . S
C3277 C3275 1.415 . S
C3278 H3268 0.930 . S
C3278 C3276 1.419 1_655 S
C3278 C3279 1.362 . S
C3279 H3269 0.930 . S
C3279 C3272 1.409 1_655 S
C3279 C3278 1.362 . S
H3280 C3286 0.930 . S
H3281 C3289 0.930 . S
H3282 C3290 0.930 . S
H3283 C3291 0.930 . S
H3284 C3294 0.930 . S
H3285 C3295 0.930 . S
C3286 H3280 0.930 . S
C3286 C3287 1.355 . S
C3286 C3288 1.415 . S
C3287 C3286 1.355 . S
C3287 C3289 1.419 . S
C3288 C3286 1.415 . S
C3288 C3293 1.425 . S
C3288 C3295 1.409 1_545 S
C3289 H3281 0.930 . S
C3289 C3287 1.419 . S
C3289 C3290 1.362 . S
C3290 H3282 0.930 . S
C3290 C3289 1.362 . S
C3290 C3293 1.409 . S
C3291 H3283 0.930 . S
C3291 C3292 1.355 . S
C3291 C3293 1.415 . S
C3292 C3291 1.355 . S
C3292 C3294 1.419 1_545 S
C3293 C3288 1.425 . S
C3293 C3290 1.409 . S
C3293 C3291 1.415 . S
C3294 H3284 0.930 . S
C3294 C3292 1.419 1_565 S
C3294 C3295 1.362 . S
C3295 H3285 0.930 . S
C3295 C3288 1.409 1_565 S
C3295 C3294 1.362 . S
H3296 C3302 0.930 . S
H3297 C3305 0.930 . S
H3298 C3306 0.930 . S
H3299 C3307 0.930 . S
H3300 C3310 0.930 . S
H3301 C3311 0.930 . S
C3302 H3296 0.930 . S
C3302 C3303 1.355 . S
C3302 C3304 1.415 . S
C3303 C3302 1.355 . S
C3303 C3305 1.419 . S
C3304 C3302 1.415 . S
C3304 C3309 1.425 . S
C3304 C3311 1.409 . S
C3305 H3297 0.930 . S
C3305 C3303 1.419 . S
C3305 C3306 1.362 . S
C3306 H3298 0.930 . S
C3306 C3305 1.362 . S
C3306 C3309 1.409 . S
C3307 H3299 0.930 . S
C3307 C3308 1.355 . S
C3307 C3309 1.415 . S
C3308 C3307 1.355 . S
C3308 C3310 1.419 . S
C3309 C3304 1.425 . S
C3309 C3306 1.409 . S
C3309 C3307 1.415 . S
C3310 H3300 0.930 . S
C3310 C3308 1.419 . S
C3310 C3311 1.362 . S
C3311 H3301 0.930 . S
C3311 C3304 1.409 . S
C3311 C3310 1.362 . S
H3312 C3318 0.930 1_556 S
H3313 C3321 0.930 . S
H3314 C3322 0.930 . S
H3315 C3323 0.930 . S
H3316 C3326 0.930 . S
H3317 C3327 0.930 . S
C3318 H3312 0.930 1_554 S
C3318 C3319 1.355 . S
C3318 C3320 1.415 . S
C3319 C3318 1.355 . S
C3319 C3321 1.419 . S
C3320 C3318 1.415 . S
C3320 C3325 1.425 . S
C3320 C3327 1.409 . S
C3321 H3313 0.930 . S
C3321 C3319 1.419 . S
C3321 C3322 1.362 . S
C3322 H3314 0.930 . S
C3322 C3321 1.362 . S
C3322 C3325 1.409 . S
C3323 H3315 0.930 . S
C3323 C3324 1.355 . S
C3323 C3325 1.415 . S
C3324 C3323 1.355 . S
C3324 C3326 1.419 . S
C3325 C3320 1.425 . S
C3325 C3322 1.409 . S
C3325 C3323 1.415 . S
C3326 H3316 0.930 . S
C3326 C3324 1.419 . S
C3326 C3327 1.362 . S
C3327 H3317 0.930 . S
C3327 C3320 1.409 . S
C3327 C3326 1.362 . S
H3328 C3334 0.892 1_556 S
H3329 C3337 0.930 . S
H3330 C3338 0.930 . S
H3331 C3339 0.930 . S
H3332 C3342 0.921 1_556 S
H3333 C3343 0.930 . S
C3334 H3328 0.892 1_554 S
C3334 C3335 1.377 . S
C3334 C3336 1.431 . S
C3335 C3334 1.377 . S
C3335 C3337 1.419 . S
C3336 C3334 1.431 . S
C3336 C3341 1.425 . S
C3336 C3343 1.409 1_554 S
C3337 H3329 0.930 . S
C3337 C3335 1.419 . S
C3337 C3338 1.362 . S
C3338 H3330 0.930 . S
C3338 C3337 1.362 . S
C3338 C3341 1.409 . S
C3339 H3331 0.930 . S
C3339 C3340 1.355 . S
C3339 C3341 1.415 . S
C3340 C3339 1.355 . S
C3340 C3342 1.419 . S
C3341 C3336 1.425 . S
C3341 C3338 1.409 . S
C3341 C3339 1.415 . S
C3342 H3332 0.921 1_554 S
C3342 C3340 1.419 . S
C3342 C3343 1.362 1_554 S
C3343 H3333 0.930 . S
C3343 C3336 1.409 1_556 S
C3343 C3342 1.362 1_556 S
H3344 C3350 0.930 . S
H3345 C3353 0.930 . S
H3346 C3354 0.930 . S
H3347 C3355 0.930 1_556 S
H3348 C3358 0.930 . S
H3349 C3359 0.930 . S
C3350 H3344 0.930 . S
C3350 C3351 1.355 . S
C3350 C3352 1.415 . S
C3351 C3350 1.355 . S
C3351 C3353 1.419 1_554 S
C3352 C3350 1.415 . S
C3352 C3357 1.425 . S
C3352 C3359 1.409 . S
C3353 H3345 0.930 . S
C3353 C3351 1.419 1_556 S
C3353 C3354 1.362 . S
C3354 H3346 0.930 . S
C3354 C3353 1.362 . S
C3354 C3357 1.409 1_556 S
C3355 H3347 0.930 1_554 S
C3355 C3356 1.355 . S
C3355 C3357 1.415 . S
C3356 C3355 1.355 . S
C3356 C3358 1.419 . S
C3357 C3352 1.425 . S
C3357 C3354 1.409 1_554 S
C3357 C3355 1.415 . S
C3358 H3348 0.930 . S
C3358 C3356 1.419 . S
C3358 C3359 1.362 . S
C3359 H3349 0.930 . S
C3359 C3352 1.409 . S
C3359 C3358 1.362 . S
H3360 C3366 0.930 . S
H3361 C3369 0.930 . S
H3362 C3370 0.930 . S
H3363 C3371 0.930 . S
H3364 C3374 0.930 . S
H3365 C3375 0.930 . S
C3366 H3360 0.930 . S
C3366 C3367 1.355 . S
C3366 C3368 1.415 . S
C3367 C3366 1.355 . S
C3367 C3369 1.419 . S
C3368 C3366 1.415 . S
C3368 C3373 1.425 . S
C3368 C3375 1.409 . S
C3369 H3361 0.930 . S
C3369 C3367 1.419 . S
C3369 C3370 1.362 . S
C3370 H3362 0.930 . S
C3370 C3369 1.362 . S
C3370 C3373 1.409 . S
C3371 H3363 0.930 . S
C3371 C3372 1.355 . S
C3371 C3373 1.415 . S
C3372 C3371 1.355 . S
C3372 C3374 1.419 . S
C3373 C3368 1.425 . S
C3373 C3370 1.409 . S
C3373 C3371 1.415 . S
C3374 H3364 0.930 . S
C3374 C3372 1.419 . S
C3374 C3375 1.362 . S
C3375 H3365 0.930 . S
C3375 C3368 1.409 . S
C3375 C3374 1.362 . S
H3376 C3382 0.930 . S
H3377 C3385 0.930 . S
H3378 C3386 0.930 . S
H3379 C3387 0.930 . S
H3380 C3390 0.930 . S
H3381 C3391 0.930 . S
C3382 H3376 0.930 . S
C3382 C3383 1.355 . S
C3382 C3384 1.415 . S
C3383 C3382 1.355 . S
C3383 C3385 1.419 . S
C3384 C3382 1.415 . S
C3384 C3389 1.425 . S
C3384 C3391 1.409 . S
C3385 H3377 0.930 . S
C3385 C3383 1.419 . S
C3385 C3386 1.362 . S
C3386 H3378 0.930 . S
C3386 C3385 1.362 . S
C3386 C3389 1.409 . S
C3387 H3379 0.930 . S
C3387 C3388 1.355 . S
C3387 C3389 1.415 . S
C3388 C3387 1.355 . S
C3388 C3390 1.419 . S
C3389 C3384 1.425 . S
C3389 C3386 1.409 . S
C3389 C3387 1.415 . S
C3390 H3380 0.930 . S
C3390 C3388 1.419 . S
C3390 C3391 1.362 . S
C3391 H3381 0.930 . S
C3391 C3384 1.409 . S
C3391 C3390 1.362 . S
H3392 C3398 0.930 . S
H3393 C3401 0.930 . S
H3394 C3402 0.930 . S
H3395 C3403 0.930 . S
H3396 C3406 0.930 . S
H3397 C3407 0.930 . S
C3398 H3392 0.930 . S
C3398 C3399 1.355 . S
C3398 C3400 1.415 . S
C3399 C3398 1.355 . S
C3399 C3401 1.419 . S
C3400 C3398 1.415 . S
C3400 C3405 1.425 . S
C3400 C3407 1.409 . S
C3401 H3393 0.930 . S
C3401 C3399 1.419 . S
C3401 C3402 1.362 . S
C3402 H3394 0.930 . S
C3402 C3401 1.362 . S
C3402 C3405 1.409 . S
C3403 H3395 0.930 . S
C3403 C3404 1.355 . S
C3403 C3405 1.415 . S
C3404 C3403 1.355 . S
C3404 C3406 1.419 . S
C3405 C3400 1.425 . S
C3405 C3402 1.409 . S
C3405 C3403 1.415 . S
C3406 H3396 0.930 . S
C3406 C3404 1.419 . S
C3406 C3407 1.362 . S
C3407 H3397 0.930 . S
C3407 C3400 1.409 . S
C3407 C3406 1.362 . S
H3408 C3414 0.930 . S
H3409 C3417 0.930 . S
H3410 C3418 0.930 . S
H3411 C3419 0.930 . S
H3412 C3422 0.930 . S
H3413 C3423 0.930 . S
C3414 H3408 0.930 . S
C3414 C3415 1.355 . S
C3414 C3416 1.415 . S
C3415 C3414 1.355 . S
C3415 C3417 1.419 . S
C3416 C3414 1.415 . S
C3416 C3421 1.425 . S
C3416 C3423 1.409 . S
C3417 H3409 0.930 . S
C3417 C3415 1.419 . S
C3417 C3418 1.362 . S
C3418 H3410 0.930 . S
C3418 C3417 1.362 . S
C3418 C3421 1.409 . S
C3419 H3411 0.930 . S
C3419 C3420 1.355 . S
C3419 C3421 1.415 . S
C3420 C3419 1.355 . S
C3420 C3422 1.419 . S
C3421 C3416 1.425 . S
C3421 C3418 1.409 . S
C3421 C3419 1.415 . S
C3422 H3412 0.930 . S
C3422 C3420 1.419 . S
C3422 C3423 1.362 . S
C3423 H3413 0.930 . S
C3423 C3416 1.409 . S
C3423 C3422 1.362 . S
H3424 C3430 0.930 . S
H3425 C3433 0.930 . S
H3426 C3434 0.930 . S
H3427 C3435 0.930 . S
H3428 C3438 0.930 . S
H3429 C3439 0.930 . S
C3430 H3424 0.930 . S
C3430 C3431 1.355 . S
C3430 C3432 1.415 . S
C3431 C3430 1.355 . S
C3431 C3433 1.419 . S
C3432 C3430 1.415 . S
C3432 C3437 1.425 . S
C3432 C3439 1.409 . S
C3433 H3425 0.930 . S
C3433 C3431 1.419 . S
C3433 C3434 1.362 . S
C3434 H3426 0.930 . S
C3434 C3433 1.362 . S
C3434 C3437 1.409 . S
C3435 H3427 0.930 . S
C3435 C3436 1.355 . S
C3435 C3437 1.415 . S
C3436 C3435 1.355 . S
C3436 C3438 1.419 . S
C3437 C3432 1.425 . S
C3437 C3434 1.409 . S
C3437 C3435 1.415 . S
C3438 H3428 0.930 . S
C3438 C3436 1.419 . S
C3438 C3439 1.362 . S
C3439 H3429 0.930 . S
C3439 C3432 1.409 . S
C3439 C3438 1.362 . S
H3440 C3446 0.930 . S
H3441 C3449 0.930 . S
H3442 C3450 0.930 . S
H3443 C3451 0.930 . S
H3444 C3454 0.930 . S
H3445 C3455 0.930 . S
C3446 H3440 0.930 . S
C3446 C3447 1.355 . S
C3446 C3448 1.415 . S
C3447 C3446 1.355 . S
C3447 C3449 1.419 . S
C3448 C3446 1.415 . S
C3448 C3453 1.425 . S
C3448 C3455 1.409 . S
C3449 H3441 0.930 . S
C3449 C3447 1.419 . S
C3449 C3450 1.362 . S
C3450 H3442 0.930 . S
C3450 C3449 1.362 . S
C3450 C3453 1.409 . S
C3451 H3443 0.930 . S
C3451 C3452 1.355 . S
C3451 C3453 1.415 . S
C3452 C3451 1.355 . S
C3452 C3454 1.419 . S
C3453 C3448 1.425 . S
C3453 C3450 1.409 . S
C3453 C3451 1.415 . S
C3454 H3444 0.930 . S
C3454 C3452 1.419 . S
C3454 C3455 1.362 . S
C3455 H3445 0.930 . S
C3455 C3448 1.409 . S
C3455 C3454 1.362 . S
H3456 C3462 0.930 . S
H3457 C3465 0.930 . S
H3458 C3466 0.930 . S
H3459 C3467 0.930 . S
H3460 C3470 0.930 . S
H3461 C3471 0.930 . S
C3462 H3456 0.930 . S
C3462 C3463 1.355 . S
C3462 C3464 1.415 . S
C3463 C3462 1.355 . S
C3463 C3465 1.419 . S
C3464 C3462 1.415 . S
C3464 C3469 1.425 . S
C3464 C3471 1.409 . S
C3465 H3457 0.930 . S
C3465 C3463 1.419 . S
C3465 C3466 1.362 . S
C3466 H3458 0.930 . S
C3466 C3465 1.362 . S
C3466 C3469 1.409 . S
C3467 H3459 0.930 . S
C3467 C3468 1.355 . S
C3467 C3469 1.415 . S
C3468 C3467 1.355 . S
C3468 C3470 1.419 . S
C3469 C3464 1.425 . S
C3469 C3466 1.409 . S
C3469 C3467 1.415 . S
C3470 H3460 0.930 . S
C3470 C3468 1.419 . S
C3470 C3471 1.362 . S
C3471 H3461 0.930 . S
C3471 C3464 1.409 . S
C3471 C3470 1.362 . S
H3472 C3478 0.930 . S
H3473 C3481 0.930 . S
H3474 C3482 0.930 . S
H3475 C3483 0.930 . S
H3476 C3486 0.930 . S
H3477 C3487 0.930 . S
C3478 H3472 0.930 . S
C3478 C3479 1.355 . S
C3478 C3480 1.415 . S
C3479 C3478 1.355 . S
C3479 C3481 1.419 . S
C3480 C3478 1.415 . S
C3480 C3485 1.425 . S
C3480 C3487 1.409 . S
C3481 H3473 0.930 . S
C3481 C3479 1.419 . S
C3481 C3482 1.362 . S
C3482 H3474 0.930 . S
C3482 C3481 1.362 . S
C3482 C3485 1.409 . S
C3483 H3475 0.930 . S
C3483 C3484 1.355 . S
C3483 C3485 1.415 . S
C3484 C3483 1.355 . S
C3484 C3486 1.419 . S
C3485 C3480 1.425 . S
C3485 C3482 1.409 . S
C3485 C3483 1.415 . S
C3486 H3476 0.930 . S
C3486 C3484 1.419 . S
C3486 C3487 1.362 . S
C3487 H3477 0.930 . S
C3487 C3480 1.409 . S
C3487 C3486 1.362 . S
H3488 C3494 0.930 . S
H3489 C3497 0.930 . S
H3490 C3498 0.930 . S
H3491 C3499 0.930 . S
H3492 C3502 0.930 . S
H3493 C3503 0.930 . S
C3494 H3488 0.930 . S
C3494 C3495 1.355 . S
C3494 C3496 1.415 . S
C3495 C3494 1.355 . S
C3495 C3497 1.419 . S
C3496 C3494 1.415 . S
C3496 C3501 1.425 . S
C3496 C3503 1.409 . S
C3497 H3489 0.930 . S
C3497 C3495 1.419 . S
C3497 C3498 1.362 . S
C3498 H3490 0.930 . S
C3498 C3497 1.362 . S
C3498 C3501 1.409 . S
C3499 H3491 0.930 . S
C3499 C3500 1.355 . S
C3499 C3501 1.415 . S
C3500 C3499 1.355 . S
C3500 C3502 1.419 . S
C3501 C3496 1.425 . S
C3501 C3498 1.409 . S
C3501 C3499 1.415 . S
C3502 H3492 0.930 . S
C3502 C3500 1.419 . S
C3502 C3503 1.362 . S
C3503 H3493 0.930 . S
C3503 C3496 1.409 . S
C3503 C3502 1.362 . S
H3504 C3510 0.930 . S
H3505 C3513 0.930 . S
H3506 C3514 0.930 . S
H3507 C3515 0.930 . S
H3508 C3518 0.930 . S
H3509 C3519 0.930 . S
C3510 H3504 0.930 . S
C3510 C3511 1.355 . S
C3510 C3512 1.415 . S
C3511 C3510 1.355 . S
C3511 C3513 1.419 . S
C3512 C3510 1.415 . S
C3512 C3517 1.425 . S
C3512 C3519 1.409 . S
C3513 H3505 0.930 . S
C3513 C3511 1.419 . S
C3513 C3514 1.362 . S
C3514 H3506 0.930 . S
C3514 C3513 1.362 . S
C3514 C3517 1.409 . S
C3515 H3507 0.930 . S
C3515 C3516 1.355 . S
C3515 C3517 1.415 . S
C3516 C3515 1.355 . S
C3516 C3518 1.419 . S
C3517 C3512 1.425 . S
C3517 C3514 1.409 . S
C3517 C3515 1.415 . S
C3518 H3508 0.930 . S
C3518 C3516 1.419 . S
C3518 C3519 1.362 . S
C3519 H3509 0.930 . S
C3519 C3512 1.409 . S
C3519 C3518 1.362 . S
H3520 C3526 0.930 . S
H3521 C3529 0.930 . S
H3522 C3530 0.930 . S
H3523 C3531 0.930 . S
H3524 C3534 0.930 . S
H3525 C3535 0.930 . S
C3526 H3520 0.930 . S
C3526 C3527 1.355 . S
C3526 C3528 1.415 . S
C3527 C3526 1.355 . S
C3527 C3529 1.419 . S
C3528 C3526 1.415 . S
C3528 C3533 1.425 . S
C3528 C3535 1.409 . S
C3529 H3521 0.930 . S
C3529 C3527 1.419 . S
C3529 C3530 1.362 . S
C3530 H3522 0.930 . S
C3530 C3529 1.362 . S
C3530 C3533 1.409 . S
C3531 H3523 0.930 . S
C3531 C3532 1.355 . S
C3531 C3533 1.415 . S
C3532 C3531 1.355 . S
C3532 C3534 1.419 . S
C3533 C3528 1.425 . S
C3533 C3530 1.409 . S
C3533 C3531 1.415 . S
C3534 H3524 0.930 . S
C3534 C3532 1.419 . S
C3534 C3535 1.362 . S
C3535 H3525 0.930 . S
C3535 C3528 1.409 . S
C3535 C3534 1.362 . S
H3536 C3542 0.930 . S
H3537 C3545 0.930 . S
H3538 C3546 0.930 . S
H3539 C3547 0.930 . S
H3540 C3550 0.930 . S
H3541 C3551 0.930 . S
C3542 H3536 0.930 . S
C3542 C3543 1.355 . S
C3542 C3544 1.415 . S
C3543 C3542 1.355 . S
C3543 C3545 1.419 . S
C3544 C3542 1.415 . S
C3544 C3549 1.425 . S
C3544 C3551 1.409 . S
C3545 H3537 0.930 . S
C3545 C3543 1.419 . S
C3545 C3546 1.362 . S
C3546 H3538 0.930 . S
C3546 C3545 1.362 . S
C3546 C3549 1.409 . S
C3547 H3539 0.930 . S
C3547 C3548 1.355 . S
C3547 C3549 1.415 . S
C3548 C3547 1.355 . S
C3548 C3550 1.419 . S
C3549 C3544 1.425 . S
C3549 C3546 1.409 . S
C3549 C3547 1.415 . S
C3550 H3540 0.930 . S
C3550 C3548 1.419 . S
C3550 C3551 1.362 . S
C3551 H3541 0.930 . S
C3551 C3544 1.409 . S
C3551 C3550 1.362 . S
C1639 C1501 1.185 . S
C1644 C5 1.239 . S
C1655 C1399 1.205 . S
C1660 C39 1.263 . S
C1671 C1433 1.276 . S
C1676 C73 1.255 . S
C1687 C107 1.181 . S
C1692 C1467 1.226 . S
C1703 C141 1.267 . S
C1708 C1603 1.269 . S
C1719 C175 1.237 . S
C1724 C1535 1.184 . S
C1735 C209 1.262 . S
C1740 C1569 1.203 . S
C1751 C1365 1.269 . S
C1756 C243 1.267 . S
C1767 C1331 1.278 . S
C1772 C277 1.242 . S
C1783 C311 1.195 . S
C1788 C1229 1.254 . S
C1799 C345 1.184 . S
C1804 C1263 1.235 . S
C1815 C1297 1.184 . S
C1820 C379 1.237 . S
C1831 C413 1.186 . S
C1836 C1127 1.241 . S
C1847 C447 1.236 . S
C1852 C1161 1.277 . S
C1863 C1195 1.194 . S
C1868 C481 1.252 . S
C1879 C515 1.210 . S
C1884 C1093 1.267 . S
C1895 C549 1.194 . S
C1900 C1059 1.187 . S
C1911 C855 1.182 . S
C1916 C583 1.229 . S
C1927 C889 1.182 . S
C1932 C617 1.230 . S
C1943 C651 1.226 . S
C1948 C923 1.181 . S
C1959 C821 1.231 . S
C1964 C685 1.276 . S
C1975 C719 1.278 . S
C1980 C991 1.247 . S
C1991 C1025 1.277 . S
C1996 C753 1.252 . S
C2007 C787 1.237 . S
C2012 C957 1.278 . S
C2023 C138 2.292 . S
C2028 C1430 2.297 . S
C2039 C1464 2.304 . S
C2044 C172 2.302 . S
C2055 C206 2.307 . S
C2060 C1498 2.297 . S
C2071 C1396 2.297 . S
C2076 C240 2.292 . S
C2087 C1566 2.305 . S
C2092 C2 2.293 . S
C2103 C36 2.306 . S
C2108 C1362 2.295 . S
C2119 C1600 2.305 . S
C2124 C70 2.301 . S
C2135 C1532 2.291 . S
C2140 C104 2.302 . S
C2151 C1124 2.293 . S
C2156 C478 2.306 . S
C2167 C512 2.291 . S
C2172 C1158 2.299 . S
C2183 C1192 2.291 . S
C2188 C410 2.303 . S
C2199 C444 2.296 . S
C2204 C1090 2.307 . S
C2215 C1328 2.293 . S
C2220 C342 2.305 . S
C2231 C1226 2.293 . S
C2236 C376 2.306 . S
C2247 C1260 2.307 . S
C2252 C274 2.295 . S
C2263 C1294 2.297 . S
C2268 C308 2.292 . S
C2279 C920 2.291 . S
C2284 C716 2.303 . S
C2295 C648 2.298 . S
C2300 C988 2.291 . S
C2311 C682 2.306 . S
C2316 C1022 2.295 . S
C2327 C1056 2.295 . S
C2332 C580 2.306 . S
C2343 C614 2.304 . S
C2348 C954 2.302 . S
C2359 C852 2.302 . S
C2364 C546 2.291 . S
C2375 C784 2.307 . S
C2380 C886 2.295 . S
C2391 C818 2.292 . S
C2396 C750 2.304 . S
C2407 C111 1.617 . S
C2412 C20 1.611 . S
C2423 C9 1.600 . S
C2428 C54 1.587 . S
C2439 C88 1.590 . S
C2444 C43 1.596 . S
C2455 C122 1.592 . S
C2460 C77 1.596 . S
C2471 C179 1.614 . S
C2476 C156 1.616 . S
C2487 C190 1.611 . S
C2492 C213 1.617 . S
C2503 C224 1.602 . S
C2508 C247 1.617 . S
C2519 C145 1.600 . S
C2524 C258 1.586 . S
C2535 C621 1.607 . S
C2540 C292 1.588 . S
C2551 C655 1.614 . S
C2556 C326 1.596 . S
C2567 C689 1.607 . S
C2572 C360 1.588 . S
C2583 C394 1.613 . S
C2588 C587 1.617 . S
C2599 C757 1.597 . S
C2604 C428 1.603 . S
C2615 C462 1.606 . S
C2620 C553 1.618 . S
C2631 C496 1.607 . S
C2636 C791 1.618 . S
C2647 C723 1.616 . S
C2652 C530 1.600 . S
C2663 C564 1.589 . S
C2668 C315 1.597 . S
C2679 C519 1.603 . S
C2684 C598 1.586 . S
C2695 C632 1.595 . S
C2700 C417 1.595 . S
C2711 C451 1.609 . S
C2716 C666 1.589 . S
C2727 C700 1.614 . S
C2732 C485 1.616 . S
C2743 C383 1.616 . S
C2748 C734 1.614 . S
C2759 C281 1.601 . S
C2764 C768 1.610 . S
C2775 C802 1.606 . S
C2780 C349 1.598 . S
C2791 C836 1.614 . S
C2796 C927 1.616 . S
C2807 C870 1.608 . S
C2812 C825 1.618 . S
C2823 C859 1.614 . S
C2828 C904 1.616 . S
C2839 C893 1.618 . S
C2844 C938 1.608 . S
C2855 C972 1.591 . S
C2860 C995 1.596 . S
C2871 C1006 1.616 . S
C2876 C1029 1.608 . S
C2887 C1040 1.596 . S
C2892 C1063 1.596 . S
C2903 C961 1.596 . S
C2908 C1074 1.600 . S
C2919 C1437 1.598 . S
C2924 C1108 1.587 . S
C2935 C1471 1.598 . S
C2940 C1142 1.588 . S
C2951 C1176 1.604 . S
C2956 C1505 1.617 . S
C2967 C1403 1.609 . S
C2972 C1210 1.616 . S
C2983 C1244 1.587 . S
C2988 C1573 1.605 . S
C2999 C1369 1.611 . S
C3004 C1278 1.616 . S
C3015 C1607 1.595 . S
C3020 C1312 1.594 . S
C3031 C1346 1.593 . S
C3036 C1539 1.612 . S
C3047 C1131 1.610 . S
C3052 C1380 1.616 . S
C3063 C1414 1.605 . S
C3068 C1335 1.598 . S
C3079 C1448 1.611 . S
C3084 C1233 1.617 . S
C3095 C1482 1.614 . S
C3100 C1267 1.616 . S
C3111 C1516 1.616 . S
C3116 C1301 1.614 . S
C3127 C1550 1.611 . S
C3132 C1199 1.602 . S
C3143 C1097 1.601 . S
C3148 C1584 1.610 . S
C3159 C1165 1.603 . S
C3164 C1618 1.586 . S
C3175 C33 1.530 . S
C3180 C339 1.537 . S
C3191 C373 1.517 . S
C3196 C67 1.528 . S
C3207 C407 1.516 . S
C3212 C101 1.526 . S
C3223 C305 1.536 . S
C3228 C135 1.527 . S
C3239 C169 1.537 . S
C3244 C543 1.529 . S
C3255 C441 1.527 . S
C3260 C203 1.536 . S
C3271 C237 1.532 . S
C3276 C475 1.537 . S
C3287 C271 1.524 . S
C3292 C509 1.534 . S
C3303 C645 1.515 . S
C3308 C577 1.524 . S
C3319 C781 1.530 . S
C3324 C611 1.519 . S
C3335 C815 1.513 . S
C3340 C679 1.517 . S
C3351 C747 1.529 . S
C3356 C713 1.537 . S
C3367 C849 1.519 . S
C3372 C1155 1.530 . S
C3383 C883 1.532 . S
C3388 C1189 1.537 . S
C3399 C1223 1.535 . S
C3404 C917 1.526 . S
C3415 C1121 1.535 . S
C3420 C951 1.525 . S
C3431 C1359 1.524 . S
C3436 C985 1.534 . S
C3447 C1019 1.514 . S
C3452 C1257 1.523 . S
C3463 C1053 1.513 . S
C3468 C1291 1.516 . S
C3479 C1087 1.513 . S
C3484 C1325 1.516 . S
C3495 C1393 1.518 . S
C3500 C1461 1.529 . S
C3511 C1427 1.531 . S
C3516 C1597 1.521 . S
C3527 C1495 1.530 . S
C3532 C1631 1.519 . S
C3543 C1529 1.514 . S
C3548 C1563 1.515 . S
