# Generated by pormake.
# Topology cdt, (3)-cn, num edge types: 1
# Building blocks:
#     Node 0, Type 0, BuildingBlock: WUSLED_clean_sbu_0, # of connection points: 3
#     Node 1, Type 0, BuildingBlock: WUSLED_clean_sbu_0, # of connection points: 3
#     Node 2, Type 0, BuildingBlock: WUSLED_clean_sbu_0, # of connection points: 3
#     Node 3, Type 0, BuildingBlock: WUSLED_clean_sbu_0, # of connection points: 3
#     Node 4, Type 0, BuildingBlock: WUSLED_clean_sbu_0, # of connection points: 3
#     Node 5, Type 0, BuildingBlock: WUSLED_clean_sbu_0, # of connection points: 3
#     Node 6, Type 0, BuildingBlock: WUSLED_clean_sbu_0, # of connection points: 3
#     Node 7, Type 0, BuildingBlock: WUSLED_clean_sbu_0, # of connection points: 3
#     Edge 8, Type (0, 0), BuildingBlock: XUDNAN_clean_linker_2, # of connection points: 2
#     Edge 9, Type (0, 0), BuildingBlock: XUDNAN_clean_linker_2, # of connection points: 2
#     Edge 10, Type (0, 0), BuildingBlock: XUDNAN_clean_linker_2, # of connection points: 2
#     Edge 11, Type (0, 0), BuildingBlock: XUDNAN_clean_linker_2, # of connection points: 2
#     Edge 12, Type (0, 0), BuildingBlock: XUDNAN_clean_linker_2, # of connection points: 2
#     Edge 13, Type (0, 0), BuildingBlock: XUDNAN_clean_linker_2, # of connection points: 2
#     Edge 14, Type (0, 0), BuildingBlock: XUDNAN_clean_linker_2, # of connection points: 2
#     Edge 15, Type (0, 0), BuildingBlock: XUDNAN_clean_linker_2, # of connection points: 2
#     Edge 16, Type (0, 0), BuildingBlock: XUDNAN_clean_linker_2, # of connection points: 2
#     Edge 17, Type (0, 0), BuildingBlock: XUDNAN_clean_linker_2, # of connection points: 2
#     Edge 18, Type (0, 0), BuildingBlock: XUDNAN_clean_linker_2, # of connection points: 2
#     Edge 19, Type (0, 0), BuildingBlock: XUDNAN_clean_linker_2, # of connection points: 2
# Relax obj value: 0.076
# Max RMSD: 0.067
# Mean RMSD: 0.067
data_MOF--net-cdt--node1-WUSLED_clean_sbu_0--edge1-XUDNAN_clean_linker_2
_symmetry_space_group_name_H-M    P1
_symmetry_Int_Tables_number       1
_symmetry_cell_setting            triclinic
loop_
_symmetry_equiv_pos_as_xyz
'x, y, z'
_cell_length_a     45.448972
_cell_length_b     31.229472
_cell_length_c     72.491599
_cell_angle_alpha  90.291023
_cell_angle_beta   89.904472
_cell_angle_gamma 90.732234
loop_
_atom_site_label
_atom_site_type_symbol
_atom_site_fract_x
_atom_site_fract_y
_atom_site_fract_z
_atom_type_partial_charge
C0 C 0.39227 0.18697 0.09303 0.0
C1 C 0.39601 0.15367 0.10569 0.0
C2 C 0.34932 0.12141 0.09633 0.0
C3 C 0.37486 0.12112 0.10725 0.0
C4 C 0.34613 0.15398 0.08315 0.0
C5 C 0.36744 0.18661 0.08156 0.0
U6 U 0.44558 0.25391 0.12011 0.0
O7 O 0.48806 0.28483 0.11344 0.0
O8 O 0.45119 0.32347 0.12342 0.0
C9 C 0.47822 0.32344 0.11696 0.0
C10 C 0.41262 0.22401 0.09327 0.0
C11 C 0.485 0.35635 0.10316 0.0
C12 C 0.47667 0.39008 0.07352 0.0
C13 C 0.47084 0.35686 0.08597 0.0
C14 C 0.51112 0.42192 0.09525 0.0
C15 C 0.49661 0.4233 0.07815 0.0
C16 C 0.50533 0.38877 0.10762 0.0
C17 C 0.45687 0.21969 0.17014 0.0
C18 C 0.49191 0.25457 0.19074 0.0
C19 C 0.45448 0.20666 0.20306 0.0
C20 C 0.4438 0.19926 0.18527 0.0
C21 C 0.47856 0.23462 0.20606 0.0
C22 C 0.48107 0.24727 0.17292 0.0
C23 C 0.44394 0.21347 0.15176 0.0
O24 O 0.4044 0.25535 0.10421 0.0
O25 O 0.44067 0.21483 0.09492 0.0
O26 O 0.46234 0.20378 0.1384 0.0
O27 O 0.42466 0.24235 0.14701 0.0
H28 H 0.41488 0.15349 0.11481 0.0
H29 H 0.37824 0.09615 0.11731 0.0
H30 H 0.3266 0.15529 0.07464 0.0
H31 H 0.36405 0.21232 0.07184 0.0
H32 H 0.46502 0.3904 0.0605 0.0
H33 H 0.455 0.332 0.08235 0.0
H34 H 0.52696 0.44657 0.09911 0.0
H35 H 0.51651 0.38874 0.12082 0.0
H36 H 0.51066 0.27593 0.19252 0.0
H37 H 0.44327 0.19139 0.21452 0.0
H38 H 0.42491 0.17817 0.18336 0.0
H39 H 0.49134 0.26351 0.16136 0.0
C40 C 0.14541 0.84126 0.09289 0.0
C41 C 0.14192 0.87401 0.106 0.0
C42 C 0.18806 0.90726 0.09626 0.0
C43 C 0.16291 0.90678 0.1076 0.0
C44 C 0.19095 0.87529 0.08264 0.0
C45 C 0.16979 0.84243 0.08102 0.0
U46 U 0.093 0.77325 0.12 0.0
O47 O 0.05098 0.74081 0.11341 0.0
O48 O 0.08849 0.70362 0.12325 0.0
C49 C 0.06139 0.70264 0.11695 0.0
C50 C 0.12542 0.80383 0.0931 0.0
C51 C 0.05484 0.66896 0.10332 0.0
C52 C 0.06456 0.63221 0.07436 0.0
C53 C 0.07006 0.66644 0.0865 0.0
C54 C 0.02826 0.60347 0.09565 0.0
C55 C 0.04389 0.6 0.07896 0.0
C56 C 0.03372 0.63762 0.1077 0.0
C57 C 0.08122 0.80612 0.17009 0.0
C58 C 0.05344 0.76103 0.19123 0.0
C59 C 0.07872 0.82469 0.20257 0.0
C60 C 0.08854 0.83365 0.18472 0.0
C61 C 0.0614 0.78792 0.20609 0.0
C62 C 0.0633 0.77005 0.17336 0.0
C63 C 0.09406 0.81376 0.15181 0.0
O64 O 0.13405 0.77274 0.10389 0.0
O65 O 0.09728 0.81242 0.09496 0.0
O66 O 0.07538 0.82273 0.1386 0.0
O67 O 0.11398 0.78594 0.14676 0.0
H68 H 0.12339 0.87353 0.11543 0.0
H69 H 0.15977 0.93128 0.11802 0.0
H70 H 0.21017 0.87458 0.0738 0.0
H71 H 0.173 0.81715 0.07095 0.0
H72 H 0.07704 0.63029 0.06166 0.0
H73 H 0.08651 0.69045 0.08295 0.0
H74 H 1.01184 0.57965 0.09944 0.0
H75 H 0.02172 0.63921 0.12062 0.0
H76 H 0.03988 0.73274 0.19344 0.0
H77 H 0.08563 0.84572 0.21372 0.0
H78 H 0.10254 0.86147 0.18242 0.0
H79 H 0.05751 0.74842 0.16217 0.0
C80 C 0.39647 0.35531 0.4154 0.0
C81 C 0.39018 0.39245 0.40551 0.0
C82 C 0.34921 0.40751 0.42612 0.0
C83 C 0.36683 0.41837 0.41082 0.0
C84 C 0.35615 0.37082 0.43636 0.0
C85 C 0.37963 0.34487 0.43103 0.0
U86 U 0.4536 0.26625 0.42099 0.0
O87 O 0.46703 0.27363 0.45 0.0
O88 O 0.43297 0.22631 0.44241 0.0
C89 C 0.45069 0.24092 0.4554 0.0
C90 C 0.41984 0.32725 0.4086 0.0
C91 C 0.46572 0.20857 0.46679 0.0
C92 C 0.50078 0.19182 0.49098 0.0
C93 C 0.48641 0.22184 0.48009 0.0
C94 C 0.47356 0.13457 0.47583 0.0
C95 C 0.49454 0.14786 0.48896 0.0
C96 C 0.45932 0.16456 0.46485 0.0
C97 C 0.49614 0.23772 0.37819 0.0
C98 C 0.51583 0.21349 0.34884 0.0
C99 C 0.48876 0.27976 0.35054 0.0
C100 C 0.48471 0.27386 0.36946 0.0
C101 C 0.50417 0.24949 0.33997 0.0
C102 C 0.51186 0.2077 0.36782 0.0
C103 C 0.49039 0.23045 0.39788 0.0
O104 O 0.41296 0.28632 0.40739 0.0
O105 O 0.44628 0.33453 0.41532 0.0
O106 O 0.4979 0.26232 0.40889 0.0
O107 O 0.46421 0.21432 0.40157 0.0
H108 H 0.40308 0.40109 0.39347 0.0
H109 H 0.36246 0.44683 0.40285 0.0
H110 H 0.34291 0.36146 0.44814 0.0
H111 H 0.38426 0.31627 0.43885 0.0
H112 H 0.5165 0.2031 0.50118 0.0
H113 H 0.49148 0.25554 0.48209 0.0
H114 H 0.46844 0.10088 0.47388 0.0
H115 H 0.44337 0.15315 0.45483 0.0
H116 H 0.52796 0.18977 0.34109 0.0
H117 H 0.47906 0.30742 0.3441 0.0
H118 H 0.47222 0.29715 0.37724 0.0
H119 H 0.52072 0.17954 0.37436 0.0
C120 C 0.13315 0.65237 0.41818 0.0
C121 C 0.13469 0.61233 0.40949 0.0
C122 C 0.17639 0.59343 0.42872 0.0
C123 C 0.15605 0.58306 0.41473 0.0
C124 C 0.17393 0.63297 0.43797 0.0
C125 C 0.15245 0.66224 0.43273 0.0
U126 U 0.08804 0.75538 0.42195 0.0
O127 O 0.07498 0.75761 0.45121 0.0
O128 O 0.11488 0.79157 0.44195 0.0
C129 C 0.0961 0.78505 0.45549 0.0
C130 C 0.11288 0.68435 0.41086 0.0
C131 C 0.08655 0.82397 0.4651 0.0
C132 C 0.08193 0.86539 0.49336 0.0
C133 C 0.09021 0.82785 0.48422 0.0
C134 C 0.06604 0.89535 0.4643 0.0
C135 C 0.06999 0.8997 0.48346 0.0
C136 C 0.07417 0.85775 0.45521 0.0
C137 C 0.04929 0.79206 0.37851 0.0
C138 C 0.05469 0.81621 0.34684 0.0
C139 C 0.03031 0.74848 0.35316 0.0
C140 C 0.03461 0.75502 0.37207 0.0
C141 C 0.04081 0.7786 0.34027 0.0
C142 C 0.05872 0.82293 0.36573 0.0
C143 C 0.05648 0.79811 0.39825 0.0
O144 O 0.12441 0.72262 0.40817 0.0
O145 O 0.08646 0.68522 0.41825 0.0
O146 O 0.04498 0.77032 0.40989 0.0
O147 O 0.08428 0.80709 0.40166 0.0
H148 H 0.11988 0.60414 0.39828 0.0
H149 H 0.157 0.55259 0.40756 0.0
H150 H 0.18935 0.64206 0.44871 0.0
H151 H 0.15154 0.69308 0.43961 0.0
H152 H 0.08548 0.86792 0.5081 0.0
H153 H 0.09974 0.80203 0.49205 0.0
H154 H 0.05653 0.92096 0.45635 0.0
H155 H 0.07102 0.85514 0.44043 0.0
H156 H 0.06348 0.83987 0.33738 0.0
H157 H 1.01905 0.71952 0.34864 0.0
H158 H 0.02695 0.73062 0.38156 0.0
H159 H 0.07006 0.85176 0.37035 0.0
C160 C 0.64659 0.83643 0.9455 0.0
C161 C 0.65302 0.85481 0.92833 0.0
C162 C 0.68391 0.90905 0.94318 0.0
C163 C 0.67156 0.89065 0.92717 0.0
C164 C 0.6777 0.89015 0.96037 0.0
C165 C 0.65911 0.85411 0.96152 0.0
U166 U 0.59247 0.7643 0.92127 0.0
O167 O 0.5853 0.69452 0.92192 0.0
O168 O 0.54947 0.73766 0.92954 0.0
C169 C 0.55868 0.69795 0.92887 0.0
C170 C 0.62621 0.79964 0.94655 0.0
C171 C 0.55299 0.67283 0.94559 0.0
C172 C 0.56172 0.6594 0.97806 0.0
C173 C 0.56789 0.68254 0.96204 0.0
C174 C 0.52589 0.61627 0.96131 0.0
C175 C 0.54049 0.62617 0.97793 0.0
C176 C 0.53208 0.63948 0.94528 0.0
C177 C 0.57992 0.79137 0.86999 0.0
C178 C 0.55975 0.74508 0.84598 0.0
C179 C 0.56734 0.82077 0.84016 0.0
C180 C 0.57795 0.82634 0.85807 0.0
C181 C 0.55852 0.77998 0.83379 0.0
C182 C 0.57031 0.75075 0.86398 0.0
C183 C 0.59346 0.798 0.88818 0.0
O184 O 0.59832 0.80916 0.94453 0.0
O185 O 0.63403 0.76608 0.93677 0.0
O186 O 0.6119 0.7685 0.89357 0.0
O187 O 0.57586 0.81124 0.90137 0.0
H188 H 0.64354 0.84153 0.91581 0.0
H189 H 0.67628 0.90387 0.91369 0.0
H190 H 0.68667 0.90375 0.97297 0.0
H191 H 0.65425 0.84037 0.97489 0.0
H192 H 0.57366 0.66744 0.99055 0.0
H193 H 0.58416 0.7082 0.96248 0.0
H194 H 0.50922 0.5912 0.96078 0.0
H195 H 0.52033 0.6317 0.93269 0.0
H196 H 0.55287 0.71335 0.84153 0.0
H197 H 0.56714 0.8482 0.83108 0.0
H198 H 0.58534 0.8579 0.86248 0.0
H199 H 0.57152 0.72337 0.87305 0.0
C200 C 0.88485 0.19255 0.9472 0.0
C201 C 0.87461 0.17953 0.92979 0.0
C202 C 0.83679 0.13508 0.94417 0.0
C203 C 0.85075 0.15117 0.92828 0.0
C204 C 0.84768 0.14719 0.96162 0.0
C205 C 0.8715 0.17593 0.96311 0.0
U206 U 0.94364 0.25737 0.92336 0.0
O207 O 0.95558 0.32563 0.92528 0.0
O208 O 0.98849 0.27699 0.93151 0.0
C209 C 0.98199 0.31791 0.9317 0.0
C210 C 0.90883 0.2244 0.94858 0.0
C211 C 0.98968 0.34124 0.94868 0.0
C212 C 0.98152 0.35589 0.98119 0.0
C213 C 0.97469 0.33266 0.9652 0.0
C214 C 1.01847 0.39643 0.9643 0.0
C215 C 1.00347 0.38812 0.98093 0.0
C216 C 1.01161 0.37314 0.94831 0.0
C217 C 0.95026 0.23831 0.87064 0.0
C218 C 0.94312 0.26539 0.83958 0.0
C219 C 0.98643 0.22422 0.84658 0.0
C220 C 0.97696 0.22017 0.86488 0.0
C221 C 0.96939 0.24637 0.83367 0.0
C222 C 0.93363 0.26126 0.85781 0.0
C223 C 0.93799 0.23004 0.88924 0.0
O224 O 0.93529 0.20978 0.94516 0.0
O225 O 0.90358 0.26079 0.94026 0.0
O226 O 0.92176 0.26045 0.89642 0.0
O227 O 0.95529 0.21184 0.90136 0.0
H228 H 0.88482 0.19184 0.91734 0.0
H229 H 0.84315 0.14189 0.91467 0.0
H230 H 0.83726 0.13543 0.97408 0.0
H231 H 0.87919 0.18564 0.97666 0.0
H232 H 0.96926 0.34909 0.99368 0.0
H233 H 0.95754 0.30826 0.96567 0.0
H234 H 0.0357 0.42066 0.96369 0.0
H235 H 0.02336 0.38014 0.93564 0.0
H236 H 0.92916 0.28196 0.82993 0.0
H237 H 1.00687 0.20943 0.84248 0.0
H238 H 0.99019 0.20191 0.87435 0.0
H239 H 0.91273 0.27495 0.86171 0.0
C240 C 0.65 0.68599 0.58418 0.0
C241 C 0.65989 0.662 0.59921 0.0
C242 C 0.68684 0.61524 0.57838 0.0
C243 C 0.67825 0.627 0.59634 0.0
C244 C 0.67672 0.63934 0.56337 0.0
C245 C 0.65848 0.67447 0.56627 0.0
U246 U 0.60047 0.75096 0.61538 0.0
O247 O 0.59721 0.82041 0.61952 0.0
O248 O 0.55883 0.78368 0.60961 0.0
C249 C 0.57035 0.82179 0.61287 0.0
C250 C 0.63075 0.72284 0.58708 0.0
C251 C 0.56569 0.85397 0.59848 0.0
C252 C 0.5817 0.89076 0.57071 0.0
C253 C 0.58558 0.85855 0.58377 0.0
C254 C 0.5375 0.91327 0.58659 0.0
C255 C 0.55774 0.91871 0.57206 0.0
C256 C 0.54151 0.88122 0.59971 0.0
C257 C 0.58922 0.7146 0.66521 0.0
C258 C 0.54972 0.73553 0.68593 0.0
C259 C 0.59669 0.71407 0.69836 0.0
C260 C 0.60717 0.70702 0.68051 0.0
C261 C 0.56786 0.72856 0.70133 0.0
C262 C 0.56035 0.72883 0.66803 0.0
C263 C 0.60153 0.70883 0.64657 0.0
O264 O 0.6028 0.71331 0.58968 0.0
O265 O 0.64084 0.75201 0.59866 0.0
O266 O 0.62183 0.73704 0.64185 0.0
O267 O 0.5827 0.70011 0.63326 0.0
H268 H 0.65337 0.67033 0.61314 0.0
H269 H 0.68537 0.60877 0.60816 0.0
H270 H 0.68321 0.63137 0.5494 0.0
H271 H 0.65102 0.69268 0.55453 0.0
H272 H 0.59744 0.89381 0.55954 0.0
H273 H 0.60428 0.83755 0.58253 0.0
H274 H 0.51899 0.93452 0.5881 0.0
H275 H 0.52596 0.8781 0.61099 0.0
H276 H 0.52732 0.74624 0.68768 0.0
H277 H 0.61155 0.70922 0.7098 0.0
H278 H 0.62957 0.69633 0.67862 0.0
H279 H 0.54609 0.73512 0.65642 0.0
C280 C 0.88223 0.33121 0.58312 0.0
C281 C 0.86787 0.34944 0.59833 0.0
C282 C 0.8361 0.3894 0.57775 0.0
C283 C 0.84496 0.37824 0.59568 0.0
C284 C 0.85097 0.37144 0.56257 0.0
C285 C 0.87379 0.34256 0.56525 0.0
U286 U 0.93684 0.27469 0.61398 0.0
O287 O 0.94832 0.20672 0.61561 0.0
O288 O 0.98233 0.25448 0.60864 0.0
C289 C 0.97537 0.21355 0.60976 0.0
C290 C 0.90567 0.29989 0.58571 0.0
C291 C 0.98571 0.18593 0.59444 0.0
C292 C 0.97911 0.12437 0.57403 0.0
C293 C 0.96869 0.15088 0.58812 0.0
C294 C 0.02377 0.16725 0.57225 0.0
C295 C 1.00676 0.13227 0.56593 0.0
C296 C 1.01342 0.19364 0.58642 0.0
C297 C 0.94091 0.30278 0.66499 0.0
C298 C 0.97714 0.27094 0.68517 0.0
C299 C 0.93619 0.30988 0.69819 0.0
C300 C 0.92588 0.31829 0.68045 0.0
C301 C 0.96184 0.28583 0.70079 0.0
C302 C 0.9667 0.27923 0.66741 0.0
C303 C 0.92867 0.3096 0.64653 0.0
O304 O 0.93173 0.3161 0.58973 0.0
O305 O 0.89846 0.26663 0.59587 0.0
O306 O 0.91242 0.27776 0.64014 0.0
O307 O 0.94702 0.32544 0.63422 0.0
H308 H 0.87416 0.34102 0.61225 0.0
H309 H 0.83381 0.39107 0.60767 0.0
H310 H 0.84508 0.37987 0.5486 0.0
H311 H 0.88478 0.32892 0.55336 0.0
H312 H 0.96539 0.09787 0.56935 0.0
H313 H 0.94732 0.14373 0.59406 0.0
H314 H 0.04535 0.17378 0.56647 0.0
H315 H 0.02723 0.21997 0.59118 0.0
H316 H 0.99709 0.2527 0.68665 0.0
H317 H 0.92352 0.32116 0.70986 0.0
H318 H 0.90579 0.33621 0.67881 0.0
H319 H 0.97852 0.26682 0.65558 0.0
H320 H 0.31534 0.07753 0.07068 0.0
H321 H 0.32879 0.09364 0.12962 0.0
H322 H 0.28948 0.04064 0.13572 0.0
H323 H 0.23604 0.06654 0.07284 0.0
H324 H 0.23399 0.02674 0.05478 0.0
H325 H 0.26349 0.06583 0.05486 0.0
H326 H 0.30164 1.0049 0.05407 0.0
H327 H 0.27226 0.96562 0.05402 0.0
H328 H 0.30032 0.96402 0.07153 0.0
H329 H 0.24915 0.98649 0.1357 0.0
H330 H 0.2097 0.93362 0.12956 0.0
H331 H 0.2209 0.95268 0.07064 0.0
C332 C 0.30989 0.07002 0.08486 0.0
C333 C 0.32539 0.08947 0.09967 0.0
C334 C 0.31769 0.07858 0.11803 0.0
C335 C 0.29524 0.04871 0.12166 0.0
C336 C 0.28057 0.02998 0.10679 0.0
C337 C 0.28748 0.04011 0.08875 0.0
C338 C 0.26814 0.01506 0.07536 0.0
C339 C 0.2493 0.04536 0.06378 0.0
C340 C 0.2867 0.98566 0.06302 0.0
C341 C 0.24934 0.98935 0.08874 0.0
C342 C 0.25693 0.99862 0.10678 0.0
C343 C 0.24286 0.9791 0.12164 0.0
C344 C 0.22033 0.94931 0.11799 0.0
C345 C 0.21196 0.93928 0.09963 0.0
C346 C 0.22685 0.95953 0.08482 0.0
H347 H 0.30938 0.44161 0.40228 0.0
H348 H 0.32999 0.4325 0.46054 0.0
H349 H 0.28692 0.47729 0.46794 0.0
H350 H 0.28787 0.55096 0.40301 0.0
H351 H 0.25902 0.54319 0.38625 0.0
H352 H 0.2907 0.5092 0.38586 0.0
H353 H 0.2566 0.44221 0.38812 0.0
H354 H 0.2248 0.47603 0.3886 0.0
H355 H 0.23059 0.43811 0.40685 0.0
H356 H 0.24213 0.52565 0.46862 0.0
H357 H 0.19948 0.5721 0.46255 0.0
H358 H 0.20988 0.54972 0.40378 0.0
C359 C 0.30501 0.4492 0.41661 0.0
C360 C 0.32315 0.4337 0.43083 0.0
C361 C 0.31626 0.44374 0.44942 0.0
C362 C 0.29193 0.46928 0.45374 0.0
C363 C 0.27468 0.48433 0.43932 0.0
C364 C 0.28094 0.47451 0.42114 0.0
C365 C 0.25939 0.49498 0.40811 0.0
C366 C 0.27519 0.52645 0.39504 0.0
C367 C 0.24181 0.46078 0.39729 0.0
C368 C 0.24007 0.5182 0.42177 0.0
C369 C 0.24911 0.5117 0.43971 0.0
C370 C 0.23482 0.53081 0.45462 0.0
C371 C 0.21073 0.55728 0.45103 0.0
C372 C 0.20118 0.56432 0.4327 0.0
C373 C 0.21617 0.54433 0.41797 0.0
H374 H 0.82443 0.06009 0.96263 0.0
H375 H 0.78962 0.14653 0.92162 0.0
H376 H 0.74614 0.09926 0.91774 0.0
H377 H 0.80171 0.96331 0.94015 0.0
H378 H 0.7925 0.9355 0.96115 0.0
H379 H 0.82037 0.97699 0.96135 0.0
H380 H 0.79208 0.01702 0.98712 0.0
H381 H 0.7641 0.97562 0.987 0.0
H382 H 0.7541 0.03067 0.98356 0.0
H383 H 0.70706 0.0426 0.91783 0.0
H384 H 0.67503 0.97891 0.92137 0.0
H385 H 0.73534 0.92789 0.96188 0.0
C386 C 0.80746 0.06925 0.953 0.0
C387 C 0.81039 0.10694 0.94239 0.0
C388 C 0.78795 0.11757 0.92973 0.0
C389 C 0.76311 0.09108 0.92752 0.0
C390 C 0.761 0.05402 0.93805 0.0
C391 C 0.78254 0.04298 0.95053 0.0
C392 C 0.77524 1.00056 0.95966 0.0
C393 C 0.79886 0.96712 0.95531 0.0
C394 C 0.77113 1.00633 0.98057 0.0
C395 C 0.74633 0.98944 0.95027 0.0
C396 C 0.7385 0.02088 0.93794 0.0
C397 C 0.71296 0.0177 0.92742 0.0
C398 C 0.69502 0.98124 0.92945 0.0
C399 C 0.70273 0.94821 0.94181 0.0
C400 C 0.72866 0.95272 0.95245 0.0
H401 H 0.73609 0.59331 0.59793 0.0
H402 H 0.68132 0.55277 0.5519 0.0
H403 H 0.71355 0.49075 0.54668 0.0
H404 H 0.80524 0.5643 0.57779 0.0
H405 H 0.82075 0.54623 0.59921 0.0
H406 H 0.79329 0.58731 0.59935 0.0
H407 H 0.76107 0.54184 0.62156 0.0
H408 H 0.78842 0.50061 0.62148 0.0
H409 H 0.75098 0.48775 0.61518 0.0
H410 H 0.7514 0.43281 0.5467 0.0
H411 H 0.79255 0.38344 0.55167 0.0
H412 H 0.82311 0.46252 0.59739 0.0
C413 C 0.73074 0.5712 0.58685 0.0
C414 C 0.70618 0.57788 0.57531 0.0
C415 C 0.70019 0.54855 0.56078 0.0
C416 C 0.71827 0.51312 0.55777 0.0
C417 C 0.74229 0.50753 0.56938 0.0
C418 C 0.7486 0.53577 0.58361 0.0
C419 C 0.77592 0.52266 0.59399 0.0
C420 C 0.80024 0.55718 0.59248 0.0
C421 C 0.76865 0.51261 0.61425 0.0
C422 C 0.78395 0.48254 0.58341 0.0
C423 C 0.76426 0.47435 0.56929 0.0
C424 C 0.76705 0.43901 0.55766 0.0
C425 C 0.79063 0.4113 0.56052 0.0
C426 C 0.81121 0.41912 0.57487 0.0
C427 C 0.80765 0.45532 0.58643 0.0
H428 H 0.50441 0.42136 0.04044 0.0
H429 H 0.50061 0.50817 0.08732 0.0
H430 H 0.51092 0.56923 0.06677 0.0
H431 H 0.56339 0.47462 1.01696 0.0
H432 H 0.54854 0.46552 0.99422 0.0
H433 H 0.54015 0.42852 1.01252 0.0
H434 H 0.48438 0.43894 1.00701 0.0
H435 H 0.4926 0.47594 0.98867 0.0
H436 H 0.46952 0.49218 1.00763 0.0
H437 H 0.52237 0.6207 0.0414 0.0
H438 H 0.53389 0.6595 1.01267 0.0
H439 H 0.53053 0.53955 0.98214 0.0
C440 C 0.50543 0.45327 0.04634 0.0
C441 C 0.50185 0.45995 0.06552 0.0
C442 C 0.50371 0.50218 0.07273 0.0
C443 C 0.50938 0.53711 0.06115 0.0
C444 C 0.51308 0.52938 0.04237 0.0
C445 C 0.51113 0.48857 0.03497 0.0
C446 C 0.51649 0.48911 1.01433 0.0
C447 C 0.54377 0.46289 1.00921 0.0
C448 C 0.48911 0.4731 1.00379 0.0
C449 C 0.52186 0.53656 1.01132 0.0
C450 C 0.51974 0.55918 0.02769 0.0
C451 C 0.52411 0.60336 0.02849 0.0
C452 C 0.53085 0.62507 1.01211 0.0
C453 C 0.53323 0.60261 0.99515 0.0
C454 C 0.52856 0.55773 0.99483 0.0
H455 H 1.01457 0.47469 0.9841 0.0
H456 H 1.00827 0.35792 1.01621 0.0
H457 H 1.0187 0.39934 0.04458 0.0
H458 H 0.07469 0.52327 1.0101 0.0
H459 H 0.0604 0.57665 1.00828 0.0
H460 H 0.05284 0.53775 0.99041 0.0
H461 H 0.99688 0.54969 0.99451 0.0
H462 H 1.00426 0.58857 1.01239 0.0
H463 H 0.98046 0.54324 1.017 0.0
H464 H 0.02898 0.45324 0.06945 0.0
H465 H 0.03848 0.51625 0.08931 0.0
H466 H 0.03847 0.59818 0.04111 0.0
C467 C 1.01575 0.45772 0.99706 0.0
C468 C 1.01054 0.41301 0.99792 0.0
C469 C 1.0118 0.39219 1.01522 0.0
C470 C 1.0179 0.4154 0.0314 0.0
C471 C 0.02278 0.45939 0.03006 0.0
C472 C 0.02184 0.48038 1.01335 0.0
C473 C 0.02742 0.52804 1.01579 0.0
C474 C 0.05551 0.54225 1.00553 0.0
C475 C 1.00066 0.55389 1.00955 0.0
C476 C 0.0315 0.53056 0.0365 0.0
C477 C 0.02877 0.49057 0.04444 0.0
C478 C 0.03117 0.48473 0.0634 0.0
C479 C 0.03639 0.52076 0.07457 0.0
C480 C 0.03909 0.56217 0.06678 0.0
C481 C 0.0368 0.56693 0.04745 0.0
H482 H 0.47036 0.07845 0.50678 0.0
H483 H 0.5532 0.14552 0.49738 0.0
H484 H 0.57862 0.09317 0.517 0.0
H485 H 0.48302 0.05348 0.554 0.0
H486 H 0.46552 1.00143 0.55279 0.0
H487 H 0.45403 0.04335 0.53755 0.0
H488 H 0.46404 0.99444 0.50929 0.0
H489 H 0.47552 0.95231 0.52446 0.0
H490 H 0.49983 0.97102 0.50647 0.0
H491 H 0.59491 0.03381 0.53779 0.0
H492 H 0.60064 0.97313 0.55916 0.0
H493 H 0.50714 0.94484 0.55499 0.0
C494 C 0.49391 0.08184 0.50869 0.0
C495 C 0.50984 0.11602 0.50054 0.0
C496 C 0.54054 0.11979 0.50363 0.0
C497 C 0.55518 0.09009 0.51465 0.0
C498 C 0.5388 0.05686 0.52252 0.0
C499 C 0.50884 0.05262 0.51972 0.0
C500 C 0.49624 0.01467 0.53015 0.0
C501 C 0.47335 0.02911 0.54447 0.0
C502 C 0.48314 0.98113 0.51679 0.0
C503 C 0.52377 0.99839 0.53935 0.0
C504 C 0.54812 0.02297 0.53466 0.0
C505 C 0.57602 0.01423 0.54151 0.0
C506 C 0.57908 0.97958 0.55355 0.0
C507 C 0.55436 0.95422 0.55872 0.0
C508 C 0.5264 0.96383 0.55142 0.0
H509 H 1.00448 0.04447 0.5645 0.0
H510 H 0.03436 0.15591 0.53386 0.0
H511 H 0.05339 0.1086 0.50927 0.0
H512 H 0.0655 0.97786 0.55357 0.0
H513 H 0.04364 0.92948 0.55165 0.0
H514 H 0.03193 0.97213 0.56666 0.0
H515 H 0.98178 0.97435 0.54974 0.0
H516 H 0.99332 0.93163 0.5347 0.0
H517 H 0.98108 0.98143 0.52508 0.0
H518 H 0.06906 0.04912 0.48803 0.0
H519 H 0.08143 0.98166 0.47204 0.0
H520 H 0.0411 0.90916 0.51653 0.0
C521 C 1.01477 0.05894 0.55253 0.0
C522 C 1.01792 0.10388 0.55107 0.0
C523 C 0.03197 0.12155 0.53534 0.0
C524 C 0.04269 0.09496 0.52126 0.0
C525 C 0.03925 0.0508 0.52316 0.0
C526 C 0.02569 0.0329 0.53841 0.0
C527 C 0.02523 0.98446 0.53723 0.0
C528 C 0.04262 0.96484 0.55323 0.0
C529 C 0.99346 0.96695 0.53665 0.0
C530 C 0.04074 0.97789 0.51896 0.0
C531 C 0.04851 0.01655 0.51102 0.0
C532 C 0.06301 0.01865 0.4941 0.0
C533 C 0.06981 0.98019 0.48508 0.0
C534 C 0.06221 0.94017 0.49302 0.0
C535 C 0.04745 0.93922 0.51019 0.0
H536 H 0.49669 0.18788 0.31326 0.0
H537 H 0.5167 0.32306 0.32082 0.0
H538 H 0.51637 0.33291 0.28702 0.0
H539 H 0.54049 0.1733 0.27057 0.0
H540 H 0.51374 0.13667 0.26078 0.0
H541 H 0.51848 0.13962 0.28544 0.0
H542 H 0.46288 0.15478 0.28934 0.0
H543 H 0.458 0.15219 0.26474 0.0
H544 H 0.44696 0.19926 0.27733 0.0
H545 H 0.5095 0.32917 0.25265 0.0
H546 H 0.49654 0.31222 0.22038 0.0
H547 H 0.48275 0.17891 0.23521 0.0
C548 C 0.50178 0.21933 0.3078 0.0
C549 C 0.5068 0.25469 0.31968 0.0
C550 C 0.51258 0.29557 0.31198 0.0
C551 C 0.51264 0.30143 0.29281 0.0
C552 C 0.50706 0.26603 0.28151 0.0
C553 C 0.50192 0.22572 0.28872 0.0
C554 C 0.49469 0.19353 0.27365 0.0
C555 C 0.51826 0.15873 0.27254 0.0
C556 C 0.4638 0.1738 0.27644 0.0
C557 C 0.49578 0.22225 0.25691 0.0
C558 C 0.50324 0.26385 0.26169 0.0
C559 C 0.50411 0.29655 0.24869 0.0
C560 C 0.49685 0.28654 0.23035 0.0
C561 C 0.48873 0.24417 0.22517 0.0
C562 C 0.48868 0.21165 0.23868 0.0
H563 H 0.03079 0.83598 0.31224 0.0
H564 H 0.04769 0.70157 0.32244 0.0
H565 H 0.04902 0.68803 0.28896 0.0
H566 H 0.98676 0.82127 0.26984 0.0
H567 H 1.00292 0.86788 0.25907 0.0
H568 H 0.99904 0.86595 0.2838 0.0
H569 H 0.05492 0.88125 0.28745 0.0
H570 H 0.05899 0.88311 0.26278 0.0
H571 H 0.08086 0.84676 0.27607 0.0
H572 H 0.05373 0.69027 0.25456 0.0
H573 H 0.06229 0.70847 0.22191 0.0
H574 H 0.04338 0.84161 0.23401 0.0
C575 C 0.03451 0.80358 0.30748 0.0
C576 C 0.03892 0.76983 0.32009 0.0
C577 C 0.04358 0.72788 0.31316 0.0
C578 C 0.04453 0.71986 0.29413 0.0
C579 C 0.04073 0.75404 0.28214 0.0
C580 C 0.03573 0.79506 0.28854 0.0
C581 C 0.03469 0.82675 0.27281 0.0
C582 C 1.00402 0.84663 0.2713 0.0
C583 C 0.0588 0.8615 0.27491 0.0
C584 C 0.04084 0.79736 0.25663 0.0
C585 C 0.04381 0.75544 0.26227 0.0
C586 C 0.051 0.72287 0.24993 0.0
C587 C 0.05569 0.7335 0.23138 0.0
C588 C 0.05337 0.77643 0.22534 0.0
C589 C 0.04539 0.80852 0.23817 0.0
H590 H 0.57982 0.68451 0.7332 0.0
H591 H 0.53299 0.79495 0.71279 0.0
H592 H 0.5196 0.81443 0.74468 0.0
H593 H 0.53137 0.66109 0.77315 0.0
H594 H 0.56201 0.64728 0.7876 0.0
H595 H 0.56383 0.63799 0.76306 0.0
H596 H 0.61203 0.6831 0.76132 0.0
H597 H 0.6104 0.6924 0.78579 0.0
H598 H 0.61245 0.73713 0.7702 0.0
H599 H 0.51616 0.82668 0.77884 0.0
H600 H 0.524 0.83159 0.81249 0.0
H601 H 0.57512 0.71525 0.81051 0.0
C602 C 0.56649 0.71257 0.73536 0.0
C603 C 0.55738 0.73803 0.72039 0.0
C604 C 0.53979 0.77435 0.72393 0.0
C605 C 0.53214 0.78581 0.74204 0.0
C606 C 0.54213 0.76057 0.75647 0.0
C607 C 0.55886 0.72464 0.75333 0.0
C608 C 0.56918 0.70522 0.77125 0.0
C609 C 0.55579 0.66022 0.77392 0.0
C610 C 0.60301 0.70445 0.77219 0.0
C611 C 0.55654 0.73677 0.78496 0.0
C612 C 0.54057 0.76803 0.77619 0.0
C613 C 0.52834 0.80211 0.78588 0.0
C614 C 0.53307 0.80477 0.80496 0.0
C615 C 0.55013 0.77377 0.81415 0.0
C616 C 0.56144 0.73892 0.80399 0.0
H617 H 0.96104 0.33662 0.73188 0.0
H618 H 0.98372 0.20928 0.71273 0.0
H619 H 0.99501 0.18843 0.74469 0.0
H620 H 1.01505 0.34345 0.77037 0.0
H621 H 0.98945 0.371 0.78512 0.0
H622 H 0.98792 0.37809 0.76047 0.0
H623 H 0.93299 0.35468 0.7606 0.0
H624 H 0.93436 0.34746 0.78516 0.0
H625 H 0.92263 0.30378 0.77046 0.0
H626 H 0.99766 0.17859 0.77897 0.0
H627 H 0.9905 0.18022 0.81271 0.0
H628 H 0.96558 0.31366 0.80959 0.0
C629 C 0.96875 0.3045 0.73434 0.0
C630 C 0.9716 0.27468 0.71973 0.0
C631 C 0.98187 0.23301 0.7236 0.0
C632 C 0.98826 0.22079 0.74174 0.0
C633 C 0.98447 0.25067 0.75586 0.0
C634 C 0.9751 0.29176 0.75235 0.0
C635 C 0.97022 0.31656 0.77007 0.0
C636 C 0.99196 0.35452 0.77159 0.0
C637 C 0.93815 0.33146 0.77166 0.0
C638 C 0.97704 0.28242 0.78411 0.0
C639 C 0.98578 0.2449 0.77566 0.0
C640 C 0.99137 0.20804 0.78576 0.0
C641 C 0.98737 0.20933 0.80494 0.0
C642 C 0.97759 0.24712 0.81382 0.0
C643 C 0.97304 0.2843 0.80322 0.0
loop_
_geom_bond_atom_site_label_1
_geom_bond_atom_site_label_2
_geom_bond_distance
_geom_bond_site_symmetry_2
_ccdc_geom_bond_type
C0 C1 1.264 . S
C0 C5 1.479 . S
C0 C10 1.465 . S
C1 C0 1.264 . S
C1 C3 1.339 . S
C1 H28 0.931 . S
C2 C3 1.395 . S
C2 C4 1.320 . S
C3 C1 1.339 . S
C3 C2 1.395 . S
C3 H29 0.929 . S
C4 C2 1.320 . S
C4 C5 1.405 . S
C4 H30 0.930 . S
C5 C0 1.479 . S
C5 C4 1.405 . S
C5 H31 0.931 . S
U6 O7 2.454 . S
U6 O8 2.458 . S
U6 C9 2.984 . S
U6 C10 2.847 . S
U6 C23 2.882 . S
U6 O24 2.441 . S
U6 O25 2.420 . S
U6 O26 2.455 . S
U6 O27 2.449 . S
O7 U6 2.454 . S
O7 C9 1.353 . S
O8 U6 2.458 . S
O8 C9 1.286 . S
C9 U6 2.984 . S
C9 O7 1.353 . S
C9 O8 1.286 . S
C9 C11 1.363 . S
C10 C0 1.465 . S
C10 U6 2.847 . S
C10 O24 1.249 . S
C10 O25 1.202 . S
C11 C9 1.363 . S
C11 C13 1.408 . S
C11 C16 1.342 . S
C12 C13 1.310 . S
C12 C15 1.461 . S
C12 H32 0.932 . S
C13 C11 1.408 . S
C13 C12 1.310 . S
C13 H33 0.930 . S
C14 C15 1.474 . S
C14 C16 1.285 . S
C14 H34 0.929 . S
C15 C12 1.461 . S
C15 C14 1.474 . S
C16 C11 1.342 . S
C16 C14 1.285 . S
C16 H35 0.930 . S
C17 C20 1.424 . S
C17 C22 1.245 . S
C17 C23 1.428 . S
C18 C21 1.260 . S
C18 C22 1.477 . S
C18 H36 0.932 . S
C19 C20 1.384 . S
C19 C21 1.479 . S
C19 H37 0.929 . S
C20 C17 1.424 . S
C20 C19 1.384 . S
C20 H38 0.928 . S
C21 C18 1.260 . S
C21 C19 1.479 . S
C22 C17 1.245 . S
C22 C18 1.477 . S
C22 H39 0.932 . S
C23 U6 2.882 . S
C23 C17 1.428 . S
C23 O26 1.301 . S
C23 O27 1.282 . S
O24 U6 2.441 . S
O24 C10 1.249 . S
O25 U6 2.420 . S
O25 C10 1.202 . S
O26 U6 2.455 . S
O26 C23 1.301 . S
O27 U6 2.449 . S
O27 C23 1.282 . S
H28 C1 0.931 . S
H29 C3 0.929 . S
H30 C4 0.930 . S
H31 C5 0.931 . S
H32 C12 0.932 . S
H33 C13 0.930 . S
H34 C14 0.929 . S
H35 C16 0.930 . S
H36 C18 0.932 . S
H37 C19 0.929 . S
H38 C20 0.928 . S
H39 C22 0.932 . S
C40 C41 1.264 . S
C40 C45 1.479 . S
C40 C50 1.465 . S
C41 C40 1.264 . S
C41 C43 1.339 . S
C41 H68 0.931 . S
C42 C43 1.395 . S
C42 C44 1.320 . S
C43 C41 1.339 . S
C43 C42 1.395 . S
C43 H69 0.929 . S
C44 C42 1.320 . S
C44 C45 1.405 . S
C44 H70 0.930 . S
C45 C40 1.479 . S
C45 C44 1.405 . S
C45 H71 0.931 . S
U46 O47 2.454 . S
U46 O48 2.458 1_455 S
U46 C49 2.984 . S
U46 C50 2.847 . S
U46 C63 2.882 1_455 S
U46 O64 2.441 . S
U46 O65 2.420 . S
U46 O66 2.455 1_455 S
U46 O67 2.449 . S
O47 U46 2.454 . S
O47 C49 1.353 . S
O48 U46 2.458 1_655 S
O48 C49 1.286 1_655 S
C49 U46 2.984 . S
C49 O47 1.353 . S
C49 O48 1.286 1_455 S
C49 C51 1.363 1_455 S
C50 C40 1.465 . S
C50 U46 2.847 . S
C50 O64 1.249 . S
C50 O65 1.202 . S
C51 C49 1.363 1_655 S
C51 C53 1.408 1_655 S
C51 C56 1.342 . S
C52 C53 1.310 1_655 S
C52 C55 1.461 . S
C52 H72 0.932 1_655 S
C53 C51 1.408 1_455 S
C53 C52 1.310 1_455 S
C53 H73 0.930 . S
C54 C55 1.474 . S
C54 C56 1.285 . S
C54 H74 0.929 . S
C55 C52 1.461 . S
C55 C54 1.474 . S
C56 C51 1.342 . S
C56 C54 1.285 . S
C56 H75 0.930 . S
C57 C60 1.424 1_655 S
C57 C62 1.245 . S
C57 C63 1.428 . S
C58 C61 1.260 . S
C58 C62 1.477 . S
C58 H76 0.932 . S
C59 C60 1.384 1_655 S
C59 C61 1.479 . S
C59 H77 0.929 1_655 S
C60 C57 1.424 1_455 S
C60 C59 1.384 1_455 S
C60 H78 0.928 . S
C61 C58 1.260 . S
C61 C59 1.479 . S
C62 C57 1.245 . S
C62 C58 1.477 . S
C62 H79 0.932 . S
C63 U46 2.882 1_655 S
C63 C57 1.428 . S
C63 O66 1.301 . S
C63 O67 1.282 1_655 S
O64 U46 2.441 . S
O64 C50 1.249 . S
O65 U46 2.420 . S
O65 C50 1.202 . S
O66 U46 2.455 1_655 S
O66 C63 1.301 . S
O67 U46 2.449 . S
O67 C63 1.282 1_455 S
H68 C41 0.931 . S
H69 C43 0.929 . S
H70 C44 0.930 . S
H71 C45 0.931 . S
H72 C52 0.932 1_455 S
H73 C53 0.930 . S
H74 C54 0.929 . S
H75 C56 0.930 . S
H76 C58 0.932 . S
H77 C59 0.929 1_455 S
H78 C60 0.928 . S
H79 C62 0.932 . S
C80 C81 1.264 . S
C80 C85 1.479 . S
C80 C90 1.465 . S
C81 C80 1.264 . S
C81 C83 1.339 . S
C81 H108 0.931 . S
C82 C83 1.395 . S
C82 C84 1.320 . S
C83 C81 1.339 . S
C83 C82 1.395 . S
C83 H109 0.929 . S
C84 C82 1.320 . S
C84 C85 1.405 . S
C84 H110 0.930 . S
C85 C80 1.479 . S
C85 C84 1.405 . S
C85 H111 0.931 . S
U86 O87 2.454 . S
U86 O88 2.458 . S
U86 C89 2.984 . S
U86 C90 2.847 . S
U86 C103 2.882 . S
U86 O104 2.441 . S
U86 O105 2.420 . S
U86 O106 2.455 . S
U86 O107 2.449 . S
O87 U86 2.454 . S
O87 C89 1.353 . S
O88 U86 2.458 . S
O88 C89 1.286 . S
C89 U86 2.984 . S
C89 O87 1.353 . S
C89 O88 1.286 . S
C89 C91 1.363 . S
C90 C80 1.465 . S
C90 U86 2.847 . S
C90 O104 1.249 . S
C90 O105 1.202 . S
C91 C89 1.363 . S
C91 C93 1.408 . S
C91 C96 1.342 . S
C92 C93 1.310 . S
C92 C95 1.461 . S
C92 H112 0.932 . S
C93 C91 1.408 . S
C93 C92 1.310 . S
C93 H113 0.930 . S
C94 C95 1.474 . S
C94 C96 1.285 . S
C94 H114 0.929 . S
C95 C92 1.461 . S
C95 C94 1.474 . S
C96 C91 1.342 . S
C96 C94 1.285 . S
C96 H115 0.930 . S
C97 C100 1.424 . S
C97 C102 1.245 . S
C97 C103 1.428 . S
C98 C101 1.260 . S
C98 C102 1.477 . S
C98 H116 0.932 . S
C99 C100 1.384 . S
C99 C101 1.479 . S
C99 H117 0.929 . S
C100 C97 1.424 . S
C100 C99 1.384 . S
C100 H118 0.928 . S
C101 C98 1.260 . S
C101 C99 1.479 . S
C102 C97 1.245 . S
C102 C98 1.477 . S
C102 H119 0.932 . S
C103 U86 2.882 . S
C103 C97 1.428 . S
C103 O106 1.301 . S
C103 O107 1.282 . S
O104 U86 2.441 . S
O104 C90 1.249 . S
O105 U86 2.420 . S
O105 C90 1.202 . S
O106 U86 2.455 . S
O106 C103 1.301 . S
O107 U86 2.449 . S
O107 C103 1.282 . S
H108 C81 0.931 . S
H109 C83 0.929 . S
H110 C84 0.930 . S
H111 C85 0.931 . S
H112 C92 0.932 . S
H113 C93 0.930 . S
H114 C94 0.929 . S
H115 C96 0.930 . S
H116 C98 0.932 . S
H117 C99 0.929 . S
H118 C100 0.928 . S
H119 C102 0.932 . S
C120 C121 1.264 . S
C120 C125 1.479 . S
C120 C130 1.465 . S
C121 C120 1.264 . S
C121 C123 1.339 . S
C121 H148 0.931 . S
C122 C123 1.395 . S
C122 C124 1.320 . S
C123 C121 1.339 . S
C123 C122 1.395 . S
C123 H149 0.929 . S
C124 C122 1.320 . S
C124 C125 1.405 . S
C124 H150 0.930 . S
C125 C120 1.479 . S
C125 C124 1.405 . S
C125 H151 0.931 . S
U126 O127 2.454 . S
U126 O128 2.458 1_455 S
U126 C129 2.984 . S
U126 C130 2.847 . S
U126 C143 2.882 1_455 S
U126 O144 2.441 . S
U126 O145 2.420 . S
U126 O146 2.455 1_455 S
U126 O147 2.449 . S
O127 U126 2.454 . S
O127 C129 1.353 . S
O128 U126 2.458 1_655 S
O128 C129 1.286 1_655 S
C129 U126 2.984 . S
C129 O127 1.353 . S
C129 O128 1.286 1_455 S
C129 C131 1.363 1_455 S
C130 C120 1.465 . S
C130 U126 2.847 . S
C130 O144 1.249 . S
C130 O145 1.202 . S
C131 C129 1.363 1_655 S
C131 C133 1.408 1_655 S
C131 C136 1.342 . S
C132 C133 1.310 1_655 S
C132 C135 1.461 . S
C132 H152 0.932 1_655 S
C133 C131 1.408 1_455 S
C133 C132 1.310 1_455 S
C133 H153 0.930 . S
C134 C135 1.474 . S
C134 C136 1.285 . S
C134 H154 0.929 . S
C135 C132 1.461 . S
C135 C134 1.474 . S
C136 C131 1.342 . S
C136 C134 1.285 . S
C136 H155 0.930 . S
C137 C140 1.424 1_655 S
C137 C142 1.245 . S
C137 C143 1.428 . S
C138 C141 1.260 . S
C138 C142 1.477 . S
C138 H156 0.932 . S
C139 C140 1.384 1_655 S
C139 C141 1.479 . S
C139 H157 0.929 1_655 S
C140 C137 1.424 1_455 S
C140 C139 1.384 1_455 S
C140 H158 0.928 . S
C141 C138 1.260 . S
C141 C139 1.479 . S
C142 C137 1.245 . S
C142 C138 1.477 . S
C142 H159 0.932 . S
C143 U126 2.882 1_655 S
C143 C137 1.428 . S
C143 O146 1.301 . S
C143 O147 1.282 1_655 S
O144 U126 2.441 . S
O144 C130 1.249 . S
O145 U126 2.420 . S
O145 C130 1.202 . S
O146 U126 2.455 1_655 S
O146 C143 1.301 . S
O147 U126 2.449 . S
O147 C143 1.282 1_455 S
H148 C121 0.931 . S
H149 C123 0.929 . S
H150 C124 0.930 . S
H151 C125 0.931 . S
H152 C132 0.932 1_455 S
H153 C133 0.930 . S
H154 C134 0.929 . S
H155 C136 0.930 . S
H156 C138 0.932 . S
H157 C139 0.929 1_455 S
H158 C140 0.928 . S
H159 C142 0.932 . S
C160 C161 1.264 . S
C160 C165 1.479 . S
C160 C170 1.465 . S
C161 C160 1.264 . S
C161 C163 1.339 . S
C161 H188 0.931 . S
C162 C163 1.395 . S
C162 C164 1.320 . S
C163 C161 1.339 . S
C163 C162 1.395 . S
C163 H189 0.929 . S
C164 C162 1.320 . S
C164 C165 1.405 . S
C164 H190 0.930 . S
C165 C160 1.479 . S
C165 C164 1.405 . S
C165 H191 0.931 . S
U166 O167 2.454 . S
U166 O168 2.458 . S
U166 C169 2.984 . S
U166 C170 2.847 . S
U166 C183 2.882 . S
U166 O184 2.441 . S
U166 O185 2.420 . S
U166 O186 2.455 . S
U166 O187 2.449 . S
O167 U166 2.454 . S
O167 C169 1.353 . S
O168 U166 2.458 . S
O168 C169 1.286 . S
C169 U166 2.984 . S
C169 O167 1.353 . S
C169 O168 1.286 . S
C169 C171 1.363 . S
C170 C160 1.465 . S
C170 U166 2.847 . S
C170 O184 1.249 . S
C170 O185 1.202 . S
C171 C169 1.363 . S
C171 C173 1.408 . S
C171 C176 1.342 . S
C172 C173 1.310 . S
C172 C175 1.461 . S
C172 H192 0.932 . S
C173 C171 1.408 . S
C173 C172 1.310 . S
C173 H193 0.930 . S
C174 C175 1.474 . S
C174 C176 1.285 . S
C174 H194 0.929 . S
C175 C172 1.461 . S
C175 C174 1.474 . S
C176 C171 1.342 . S
C176 C174 1.285 . S
C176 H195 0.930 . S
C177 C180 1.424 . S
C177 C182 1.245 . S
C177 C183 1.428 . S
C178 C181 1.260 . S
C178 C182 1.477 . S
C178 H196 0.932 . S
C179 C180 1.384 . S
C179 C181 1.479 . S
C179 H197 0.929 . S
C180 C177 1.424 . S
C180 C179 1.384 . S
C180 H198 0.928 . S
C181 C178 1.260 . S
C181 C179 1.479 . S
C182 C177 1.245 . S
C182 C178 1.477 . S
C182 H199 0.932 . S
C183 U166 2.882 . S
C183 C177 1.428 . S
C183 O186 1.301 . S
C183 O187 1.282 . S
O184 U166 2.441 . S
O184 C170 1.249 . S
O185 U166 2.420 . S
O185 C170 1.202 . S
O186 U166 2.455 . S
O186 C183 1.301 . S
O187 U166 2.449 . S
O187 C183 1.282 . S
H188 C161 0.931 . S
H189 C163 0.929 . S
H190 C164 0.930 . S
H191 C165 0.931 . S
H192 C172 0.932 . S
H193 C173 0.930 . S
H194 C174 0.929 . S
H195 C176 0.930 . S
H196 C178 0.932 . S
H197 C179 0.929 . S
H198 C180 0.928 . S
H199 C182 0.932 . S
C200 C201 1.264 . S
C200 C205 1.479 . S
C200 C210 1.465 . S
C201 C200 1.264 . S
C201 C203 1.339 . S
C201 H228 0.931 . S
C202 C203 1.395 . S
C202 C204 1.320 . S
C203 C201 1.339 . S
C203 C202 1.395 . S
C203 H229 0.929 . S
C204 C202 1.320 . S
C204 C205 1.405 . S
C204 H230 0.930 . S
C205 C200 1.479 . S
C205 C204 1.405 . S
C205 H231 0.931 . S
U206 O207 2.454 . S
U206 O208 2.458 . S
U206 C209 2.984 . S
U206 C210 2.847 . S
U206 C223 2.882 . S
U206 O224 2.441 . S
U206 O225 2.420 . S
U206 O226 2.455 . S
U206 O227 2.449 . S
O207 U206 2.454 . S
O207 C209 1.353 . S
O208 U206 2.458 . S
O208 C209 1.286 . S
C209 U206 2.984 . S
C209 O207 1.353 . S
C209 O208 1.286 . S
C209 C211 1.363 . S
C210 C200 1.465 . S
C210 U206 2.847 . S
C210 O224 1.249 . S
C210 O225 1.202 . S
C211 C209 1.363 . S
C211 C213 1.408 . S
C211 C216 1.342 1_655 S
C212 C213 1.316 . S
C212 C215 1.451 1_655 S
C212 H232 0.936 . S
C213 C211 1.408 . S
C213 C212 1.316 . S
C213 H233 0.930 . S
C214 C215 1.474 . S
C214 C216 1.285 . S
C214 H234 0.929 . S
C215 C212 1.451 1_455 S
C215 C214 1.474 . S
C216 C211 1.342 1_455 S
C216 C214 1.285 . S
C216 H235 0.930 . S
C217 C220 1.424 . S
C217 C222 1.245 1_655 S
C217 C223 1.428 . S
C218 C221 1.260 . S
C218 C222 1.477 . S
C218 H236 0.932 . S
C219 C220 1.384 . S
C219 C221 1.479 1_655 S
C219 H237 0.929 . S
C220 C217 1.424 . S
C220 C219 1.384 . S
C220 H238 0.928 . S
C221 C218 1.260 . S
C221 C219 1.479 1_455 S
C222 C217 1.245 1_455 S
C222 C218 1.477 . S
C222 H239 0.932 . S
C223 U206 2.882 . S
C223 C217 1.428 . S
C223 O226 1.301 . S
C223 O227 1.282 . S
O224 U206 2.441 . S
O224 C210 1.249 . S
O225 U206 2.420 . S
O225 C210 1.202 . S
O226 U206 2.455 . S
O226 C223 1.301 . S
O227 U206 2.449 . S
O227 C223 1.282 . S
H228 C201 0.931 . S
H229 C203 0.929 . S
H230 C204 0.930 . S
H231 C205 0.931 . S
H232 C212 0.936 . S
H233 C213 0.930 . S
H234 C214 0.929 . S
H235 C216 0.930 . S
H236 C218 0.932 . S
H237 C219 0.929 . S
H238 C220 0.928 . S
H239 C222 0.932 . S
C240 C241 1.264 . S
C240 C245 1.479 . S
C240 C250 1.465 . S
C241 C240 1.264 . S
C241 C243 1.339 . S
C241 H268 0.931 . S
C242 C243 1.395 . S
C242 C244 1.320 . S
C243 C241 1.339 . S
C243 C242 1.395 . S
C243 H269 0.929 . S
C244 C242 1.320 . S
C244 C245 1.405 . S
C244 H270 0.930 . S
C245 C240 1.479 . S
C245 C244 1.405 . S
C245 H271 0.931 . S
U246 O247 2.454 . S
U246 O248 2.458 . S
U246 C249 2.984 . S
U246 C250 2.847 . S
U246 C263 2.882 . S
U246 O264 2.441 . S
U246 O265 2.420 . S
U246 O266 2.455 . S
U246 O267 2.449 . S
O247 U246 2.454 . S
O247 C249 1.353 . S
O248 U246 2.458 . S
O248 C249 1.286 . S
C249 U246 2.984 . S
C249 O247 1.353 . S
C249 O248 1.286 . S
C249 C251 1.363 . S
C250 C240 1.465 . S
C250 U246 2.847 . S
C250 O264 1.249 . S
C250 O265 1.202 . S
C251 C249 1.363 . S
C251 C253 1.408 . S
C251 C256 1.342 . S
C252 C253 1.310 . S
C252 C255 1.461 . S
C252 H272 0.932 . S
C253 C251 1.408 . S
C253 C252 1.310 . S
C253 H273 0.930 . S
C254 C255 1.474 . S
C254 C256 1.285 . S
C254 H274 0.929 . S
C255 C252 1.461 . S
C255 C254 1.474 . S
C256 C251 1.342 . S
C256 C254 1.285 . S
C256 H275 0.930 . S
C257 C260 1.424 . S
C257 C262 1.245 . S
C257 C263 1.428 . S
C258 C261 1.260 . S
C258 C262 1.477 . S
C258 H276 0.932 . S
C259 C260 1.384 . S
C259 C261 1.479 . S
C259 H277 0.929 . S
C260 C257 1.424 . S
C260 C259 1.384 . S
C260 H278 0.928 . S
C261 C258 1.260 . S
C261 C259 1.479 . S
C262 C257 1.245 . S
C262 C258 1.477 . S
C262 H279 0.932 . S
C263 U246 2.882 . S
C263 C257 1.428 . S
C263 O266 1.301 . S
C263 O267 1.282 . S
O264 U246 2.441 . S
O264 C250 1.249 . S
O265 U246 2.420 . S
O265 C250 1.202 . S
O266 U246 2.455 . S
O266 C263 1.301 . S
O267 U246 2.449 . S
O267 C263 1.282 . S
H268 C241 0.931 . S
H269 C243 0.929 . S
H270 C244 0.930 . S
H271 C245 0.931 . S
H272 C252 0.932 . S
H273 C253 0.930 . S
H274 C254 0.929 . S
H275 C256 0.930 . S
H276 C258 0.932 . S
H277 C259 0.929 . S
H278 C260 0.928 . S
H279 C262 0.932 . S
C280 C281 1.264 . S
C280 C285 1.479 . S
C280 C290 1.465 . S
C281 C280 1.264 . S
C281 C283 1.339 . S
C281 H308 0.931 . S
C282 C283 1.395 . S
C282 C284 1.320 . S
C283 C281 1.339 . S
C283 C282 1.395 . S
C283 H309 0.929 . S
C284 C282 1.320 . S
C284 C285 1.405 . S
C284 H310 0.930 . S
C285 C280 1.479 . S
C285 C284 1.405 . S
C285 H311 0.931 . S
U286 O287 2.454 . S
U286 O288 2.458 . S
U286 C289 2.984 . S
U286 C290 2.847 . S
U286 C303 2.882 . S
U286 O304 2.441 . S
U286 O305 2.420 . S
U286 O306 2.455 . S
U286 O307 2.449 . S
O287 U286 2.454 . S
O287 C289 1.353 . S
O288 U286 2.458 . S
O288 C289 1.286 . S
C289 U286 2.984 . S
C289 O287 1.353 . S
C289 O288 1.286 . S
C289 C291 1.363 . S
C290 C280 1.465 . S
C290 U286 2.847 . S
C290 O304 1.249 . S
C290 O305 1.202 . S
C291 C289 1.363 . S
C291 C293 1.408 . S
C291 C296 1.342 1_655 S
C292 C293 1.316 . S
C292 C295 1.451 1_655 S
C292 H312 0.936 . S
C293 C291 1.408 . S
C293 C292 1.316 . S
C293 H313 0.930 . S
C294 C295 1.474 . S
C294 C296 1.285 . S
C294 H314 0.929 . S
C295 C292 1.451 1_455 S
C295 C294 1.474 . S
C296 C291 1.342 1_455 S
C296 C294 1.285 . S
C296 H315 0.930 . S
C297 C300 1.424 . S
C297 C302 1.245 1_655 S
C297 C303 1.428 . S
C298 C301 1.260 . S
C298 C302 1.477 . S
C298 H316 0.932 . S
C299 C300 1.384 . S
C299 C301 1.479 1_655 S
C299 H317 0.929 . S
C300 C297 1.424 . S
C300 C299 1.384 . S
C300 H318 0.928 . S
C301 C298 1.260 . S
C301 C299 1.479 1_455 S
C302 C297 1.245 1_455 S
C302 C298 1.477 . S
C302 H319 0.932 . S
C303 U286 2.882 . S
C303 C297 1.428 . S
C303 O306 1.301 . S
C303 O307 1.282 . S
O304 U286 2.441 . S
O304 C290 1.249 . S
O305 U286 2.420 . S
O305 C290 1.202 . S
O306 U286 2.455 . S
O306 C303 1.301 . S
O307 U286 2.449 . S
O307 C303 1.282 . S
H308 C281 0.931 . S
H309 C283 0.929 . S
H310 C284 0.930 . S
H311 C285 0.931 . S
H312 C292 0.936 . S
H313 C293 0.930 . S
H314 C294 0.929 . S
H315 C296 0.930 . S
H316 C298 0.932 . S
H317 C299 0.929 . S
H318 C300 0.928 . S
H319 C302 0.932 . S
H320 C332 0.930 . S
H321 C334 0.930 . S
H322 C335 0.930 . S
H323 C339 0.959 . S
H324 C339 0.959 . S
H325 C339 0.961 . S
H326 C340 0.960 . S
H327 C340 0.961 . S
H328 C340 0.959 . S
H329 C343 0.929 . S
H330 C344 0.931 . S
H331 C346 0.930 1_545 S
C332 H320 0.930 . S
C332 C333 1.399 . S
C332 C337 1.399 . S
C333 C332 1.399 . S
C333 C334 1.376 1_545 S
C334 H321 0.930 . S
C334 C333 1.376 1_565 S
C334 C335 1.388 . S
C335 H322 0.930 . S
C335 C334 1.388 . S
C335 C336 1.390 . S
C336 C335 1.390 . S
C336 C337 1.394 1_565 S
C336 C342 1.465 . S
C337 C332 1.399 . S
C337 C336 1.394 1_545 S
C337 C338 1.516 . S
C338 C337 1.516 . S
C338 C339 1.502 . S
C338 C340 1.561 1_545 S
C338 C341 1.526 1_545 S
C339 H323 0.959 . S
C339 H324 0.959 . S
C339 H325 0.961 . S
C339 C338 1.502 . S
C340 H326 0.960 . S
C340 H327 0.961 . S
C340 H328 0.959 . S
C340 C338 1.561 1_565 S
C341 C338 1.526 1_565 S
C341 C342 1.396 . S
C341 C346 1.390 . S
C342 C336 1.465 . S
C342 C341 1.396 . S
C342 C343 1.399 . S
C343 H329 0.929 . S
C343 C342 1.399 . S
C343 C344 1.385 . S
C344 H330 0.931 . S
C344 C343 1.385 . S
C344 C345 1.389 . S
C345 C344 1.389 . S
C345 C346 1.387 . S
C346 H331 0.930 1_565 S
C346 C341 1.390 . S
C346 C345 1.387 . S
H347 C359 0.930 . S
H348 C361 0.930 . S
H349 C362 0.930 . S
H350 C366 0.959 . S
H351 C366 0.959 . S
H352 C366 0.961 . S
H353 C367 0.960 . S
H354 C367 0.961 . S
H355 C367 0.959 . S
H356 C370 0.929 . S
H357 C371 0.931 . S
H358 C373 0.930 . S
C359 H347 0.930 . S
C359 C360 1.399 . S
C359 C364 1.399 . S
C360 C359 1.399 . S
C360 C361 1.376 . S
C361 H348 0.930 . S
C361 C360 1.376 . S
C361 C362 1.388 . S
C362 H349 0.930 . S
C362 C361 1.388 . S
C362 C363 1.390 . S
C363 C362 1.390 . S
C363 C364 1.394 . S
C363 C369 1.465 . S
C364 C359 1.399 . S
C364 C363 1.394 . S
C364 C365 1.516 . S
C365 C364 1.516 . S
C365 C366 1.502 . S
C365 C367 1.561 . S
C365 C368 1.526 . S
C366 H350 0.959 . S
C366 H351 0.959 . S
C366 H352 0.961 . S
C366 C365 1.502 . S
C367 H353 0.960 . S
C367 H354 0.961 . S
C367 H355 0.959 . S
C367 C365 1.561 . S
C368 C365 1.526 . S
C368 C369 1.396 . S
C368 C373 1.390 . S
C369 C363 1.465 . S
C369 C368 1.396 . S
C369 C370 1.399 . S
C370 H356 0.929 . S
C370 C369 1.399 . S
C370 C371 1.385 . S
C371 H357 0.931 . S
C371 C370 1.385 . S
C371 C372 1.389 . S
C372 C371 1.389 . S
C372 C373 1.387 . S
C373 H358 0.930 . S
C373 C368 1.390 . S
C373 C372 1.387 . S
H374 C386 0.930 1_565 S
H375 C388 0.930 . S
H376 C389 0.930 . S
H377 C393 0.959 . S
H378 C393 0.959 . S
H379 C393 0.961 . S
H380 C394 0.960 . S
H381 C394 0.961 . S
H382 C394 0.959 . S
H383 C397 0.929 . S
H384 C398 0.931 . S
H385 C400 0.930 . S
C386 H374 0.930 1_545 S
C386 C387 1.399 . S
C386 C391 1.399 . S
C387 C386 1.399 . S
C387 C388 1.376 . S
C388 H375 0.930 . S
C388 C387 1.376 . S
C388 C389 1.388 . S
C389 H376 0.930 . S
C389 C388 1.388 . S
C389 C390 1.390 . S
C390 C389 1.390 . S
C390 C391 1.394 . S
C390 C396 1.465 . S
C391 C386 1.399 . S
C391 C390 1.394 . S
C391 C392 1.516 1_545 S
C392 C391 1.516 1_565 S
C392 C393 1.502 . S
C392 C394 1.561 1_565 S
C392 C395 1.526 . S
C393 H377 0.959 . S
C393 H378 0.959 . S
C393 H379 0.961 . S
C393 C392 1.502 . S
C394 H380 0.960 . S
C394 H381 0.961 . S
C394 H382 0.959 . S
C394 C392 1.561 1_545 S
C395 C392 1.526 . S
C395 C396 1.396 1_565 S
C395 C400 1.390 . S
C396 C390 1.465 . S
C396 C395 1.396 1_545 S
C396 C397 1.399 . S
C397 H383 0.929 . S
C397 C396 1.399 . S
C397 C398 1.385 . S
C398 H384 0.931 . S
C398 C397 1.385 . S
C398 C399 1.389 1_545 S
C399 C398 1.389 1_565 S
C399 C400 1.387 . S
C400 H385 0.930 . S
C400 C395 1.390 . S
C400 C399 1.387 . S
H401 C413 0.930 . S
H402 C415 0.930 . S
H403 C416 0.930 . S
H404 C420 0.959 . S
H405 C420 0.959 . S
H406 C420 0.961 . S
H407 C421 0.960 . S
H408 C421 0.961 . S
H409 C421 0.959 . S
H410 C424 0.929 . S
H411 C425 0.931 . S
H412 C427 0.930 . S
C413 H401 0.930 . S
C413 C414 1.399 . S
C413 C418 1.399 . S
C414 C413 1.399 . S
C414 C415 1.376 . S
C415 H402 0.930 . S
C415 C414 1.376 . S
C415 C416 1.388 . S
C416 H403 0.930 . S
C416 C415 1.388 . S
C416 C417 1.390 . S
C417 C416 1.390 . S
C417 C418 1.394 . S
C417 C423 1.465 . S
C418 C413 1.399 . S
C418 C417 1.394 . S
C418 C419 1.516 . S
C419 C418 1.516 . S
C419 C420 1.502 . S
C419 C421 1.561 . S
C419 C422 1.526 . S
C420 H404 0.959 . S
C420 H405 0.959 . S
C420 H406 0.961 . S
C420 C419 1.502 . S
C421 H407 0.960 . S
C421 H408 0.961 . S
C421 H409 0.959 . S
C421 C419 1.561 . S
C422 C419 1.526 . S
C422 C423 1.396 . S
C422 C427 1.390 . S
C423 C417 1.465 . S
C423 C422 1.396 . S
C423 C424 1.399 . S
C424 H410 0.929 . S
C424 C423 1.399 . S
C424 C425 1.385 . S
C425 H411 0.931 . S
C425 C424 1.385 . S
C425 C426 1.389 . S
C426 C425 1.389 . S
C426 C427 1.387 . S
C427 H412 0.930 . S
C427 C422 1.390 . S
C427 C426 1.387 . S
H428 C440 0.930 . S
H429 C442 0.930 . S
H430 C443 0.930 . S
H431 C447 0.959 . S
H432 C447 0.959 . S
H433 C447 0.961 . S
H434 C448 0.960 . S
H435 C448 0.961 . S
H436 C448 0.959 . S
H437 C451 0.929 . S
H438 C452 0.931 . S
H439 C454 0.930 . S
C440 H428 0.930 . S
C440 C441 1.399 1_556 S
C440 C445 1.399 . S
C441 C440 1.399 1_554 S
C441 C442 1.376 . S
C442 H429 0.930 . S
C442 C441 1.376 . S
C442 C443 1.388 . S
C443 H430 0.930 . S
C443 C442 1.388 . S
C443 C444 1.390 . S
C444 C443 1.390 . S
C444 C445 1.394 1_554 S
C444 C450 1.465 . S
C445 C440 1.399 . S
C445 C444 1.394 1_556 S
C445 C446 1.516 . S
C446 C445 1.516 . S
C446 C447 1.502 . S
C446 C448 1.561 . S
C446 C449 1.526 . S
C447 H431 0.959 . S
C447 H432 0.959 . S
C447 H433 0.961 . S
C447 C446 1.502 . S
C448 H434 0.960 . S
C448 H435 0.961 . S
C448 H436 0.959 . S
C448 C446 1.561 . S
C449 C446 1.526 . S
C449 C450 1.396 1_556 S
C449 C454 1.390 . S
C450 C444 1.465 . S
C450 C449 1.396 1_554 S
C450 C451 1.399 . S
C451 H437 0.929 . S
C451 C450 1.399 . S
C451 C452 1.385 . S
C452 H438 0.931 . S
C452 C451 1.385 . S
C452 C453 1.389 1_554 S
C453 C452 1.389 1_556 S
C453 C454 1.387 . S
C454 H439 0.930 . S
C454 C449 1.390 . S
C454 C453 1.387 . S
H455 C467 0.930 . S
H456 C469 0.930 . S
H457 C470 0.930 . S
H458 C474 0.959 . S
H459 C474 0.959 . S
H460 C474 0.961 . S
H461 C475 0.960 . S
H462 C475 0.961 . S
H463 C475 0.959 . S
H464 C478 0.929 . S
H465 C479 0.931 . S
H466 C481 0.930 . S
C467 H455 0.930 . S
C467 C468 1.399 . S
C467 C472 1.399 . S
C468 C467 1.399 . S
C468 C469 1.376 1_556 S
C469 H456 0.930 . S
C469 C468 1.376 1_554 S
C469 C470 1.388 . S
C470 H457 0.930 . S
C470 C469 1.388 . S
C470 C471 1.390 . S
C471 C470 1.390 . S
C471 C472 1.394 1_554 S
C471 C477 1.464 1_455 S
C472 C467 1.399 . S
C472 C471 1.394 1_556 S
C472 C473 1.516 1_455 S
C473 C472 1.516 1_655 S
C473 C474 1.502 1_655 S
C473 C475 1.561 . S
C473 C476 1.526 . S
C474 H458 0.959 . S
C474 H459 0.959 . S
C474 H460 0.961 . S
C474 C473 1.502 1_455 S
C475 H461 0.960 . S
C475 H462 0.961 . S
C475 H463 0.959 . S
C475 C473 1.561 . S
C476 C473 1.526 . S
C476 C477 1.396 1_556 S
C476 C481 1.390 . S
C477 C471 1.464 1_655 S
C477 C476 1.396 1_554 S
C477 C478 1.399 . S
C478 H464 0.929 . S
C478 C477 1.399 . S
C478 C479 1.385 . S
C479 H465 0.931 . S
C479 C478 1.385 . S
C479 C480 1.389 . S
C480 C479 1.389 . S
C480 C481 1.387 1_554 S
C481 H466 0.930 . S
C481 C476 1.390 . S
C481 C480 1.387 1_556 S
H482 C494 0.930 . S
H483 C496 0.930 . S
H484 C497 0.930 . S
H485 C501 0.959 1_545 S
H486 C501 0.959 . S
H487 C501 0.961 1_545 S
H488 C502 0.960 . S
H489 C502 0.961 . S
H490 C502 0.959 . S
H491 C505 0.929 . S
H492 C506 0.931 . S
H493 C508 0.930 . S
C494 H482 0.930 . S
C494 C495 1.399 . S
C494 C499 1.399 . S
C495 C494 1.399 . S
C495 C496 1.376 . S
C496 H483 0.930 . S
C496 C495 1.376 . S
C496 C497 1.388 . S
C497 H484 0.930 . S
C497 C496 1.388 . S
C497 C498 1.390 . S
C498 C497 1.390 . S
C498 C499 1.394 . S
C498 C504 1.465 1_545 S
C499 C494 1.399 . S
C499 C498 1.394 . S
C499 C500 1.516 1_545 S
C500 C499 1.516 1_565 S
C500 C501 1.502 . S
C500 C502 1.561 . S
C500 C503 1.526 . S
C501 H485 0.959 1_565 S
C501 H486 0.959 . S
C501 H487 0.961 1_565 S
C501 C500 1.502 . S
C502 H488 0.960 . S
C502 H489 0.961 . S
C502 H490 0.959 . S
C502 C500 1.561 . S
C503 C500 1.526 . S
C503 C504 1.396 . S
C503 C508 1.390 . S
C504 C498 1.465 1_565 S
C504 C503 1.396 . S
C504 C505 1.399 . S
C505 H491 0.929 . S
C505 C504 1.399 . S
C505 C506 1.385 . S
C506 H492 0.931 . S
C506 C505 1.385 . S
C506 C507 1.389 . S
C507 C506 1.389 . S
C507 C508 1.387 . S
C508 H493 0.930 . S
C508 C503 1.390 . S
C508 C507 1.387 . S
H509 C521 0.930 . S
H510 C523 0.930 . S
H511 C524 0.930 . S
H512 C528 0.959 . S
H513 C528 0.959 . S
H514 C528 0.961 1_545 S
H515 C529 0.960 . S
H516 C529 0.961 . S
H517 C529 0.959 . S
H518 C532 0.929 . S
H519 C533 0.931 . S
H520 C535 0.930 . S
C521 H509 0.930 . S
C521 C522 1.399 1_655 S
C521 C526 1.399 . S
C522 C521 1.399 1_455 S
C522 C523 1.376 . S
C523 H510 0.930 . S
C523 C522 1.376 . S
C523 C524 1.388 . S
C524 H511 0.930 . S
C524 C523 1.388 . S
C524 C525 1.390 . S
C525 C524 1.390 . S
C525 C526 1.394 1_455 S
C525 C531 1.465 1_545 S
C526 C521 1.399 . S
C526 C525 1.394 1_655 S
C526 C527 1.516 . S
C527 C526 1.516 . S
C527 C528 1.502 1_545 S
C527 C529 1.561 . S
C527 C530 1.526 1_545 S
C528 H512 0.959 . S
C528 H513 0.959 . S
C528 H514 0.961 1_565 S
C528 C527 1.502 1_565 S
C529 H515 0.960 . S
C529 H516 0.961 . S
C529 H517 0.959 . S
C529 C527 1.561 . S
C530 C527 1.526 1_565 S
C530 C531 1.396 1_655 S
C530 C535 1.390 . S
C531 C525 1.465 1_565 S
C531 C530 1.396 1_455 S
C531 C532 1.399 . S
C532 H518 0.929 . S
C532 C531 1.399 . S
C532 C533 1.385 . S
C533 H519 0.931 . S
C533 C532 1.385 . S
C533 C534 1.389 1_455 S
C534 C533 1.389 1_655 S
C534 C535 1.387 . S
C535 H520 0.930 . S
C535 C530 1.390 . S
C535 C534 1.387 . S
H536 C548 0.930 . S
H537 C550 0.930 . S
H538 C551 0.930 . S
H539 C555 0.959 . S
H540 C555 0.959 . S
H541 C555 0.961 . S
H542 C556 0.960 . S
H543 C556 0.961 . S
H544 C556 0.959 . S
H545 C559 0.929 . S
H546 C560 0.931 . S
H547 C562 0.930 . S
C548 H536 0.930 . S
C548 C549 1.399 . S
C548 C553 1.399 . S
C549 C548 1.399 . S
C549 C550 1.376 . S
C550 H537 0.930 . S
C550 C549 1.376 . S
C550 C551 1.388 . S
C551 H538 0.930 . S
C551 C550 1.388 . S
C551 C552 1.390 . S
C552 C551 1.390 . S
C552 C553 1.394 . S
C552 C558 1.465 . S
C553 C548 1.399 . S
C553 C552 1.394 . S
C553 C554 1.516 . S
C554 C553 1.516 . S
C554 C555 1.502 . S
C554 C556 1.561 . S
C554 C557 1.526 . S
C555 H539 0.959 . S
C555 H540 0.959 . S
C555 H541 0.961 . S
C555 C554 1.502 . S
C556 H542 0.960 . S
C556 H543 0.961 . S
C556 H544 0.959 . S
C556 C554 1.561 . S
C557 C554 1.526 . S
C557 C558 1.396 . S
C557 C562 1.390 . S
C558 C552 1.465 . S
C558 C557 1.396 . S
C558 C559 1.399 . S
C559 H545 0.929 . S
C559 C558 1.399 . S
C559 C560 1.385 . S
C560 H546 0.931 . S
C560 C559 1.385 . S
C560 C561 1.389 . S
C561 C560 1.389 . S
C561 C562 1.387 . S
C562 H547 0.930 . S
C562 C557 1.390 . S
C562 C561 1.387 . S
H563 C575 0.930 . S
H564 C577 0.930 . S
H565 C578 0.930 . S
H566 C582 0.959 . S
H567 C582 0.959 . S
H568 C582 0.961 . S
H569 C583 0.960 . S
H570 C583 0.961 . S
H571 C583 0.959 . S
H572 C586 0.929 . S
H573 C587 0.947 . S
H574 C589 0.930 . S
C575 H563 0.930 . S
C575 C576 1.399 . S
C575 C580 1.399 . S
C576 C575 1.399 . S
C576 C577 1.376 1_655 S
C577 H564 0.930 . S
C577 C576 1.376 1_455 S
C577 C578 1.388 . S
C578 H565 0.930 . S
C578 C577 1.388 . S
C578 C579 1.390 1_455 S
C579 C578 1.390 1_655 S
C579 C580 1.394 . S
C579 C585 1.465 . S
C580 C575 1.399 . S
C580 C579 1.394 . S
C580 C581 1.516 . S
C581 C580 1.516 . S
C581 C582 1.502 . S
C581 C583 1.561 . S
C581 C584 1.526 . S
C582 H566 0.959 . S
C582 H567 0.959 . S
C582 H568 0.961 . S
C582 C581 1.502 . S
C583 H569 0.960 . S
C583 H570 0.961 . S
C583 H571 0.959 . S
C583 C581 1.561 . S
C584 C581 1.526 . S
C584 C585 1.396 . S
C584 C589 1.390 . S
C585 C579 1.465 . S
C585 C584 1.396 . S
C585 C586 1.399 1_655 S
C586 H572 0.929 . S
C586 C585 1.399 1_455 S
C586 C587 1.391 . S
C587 H573 0.947 . S
C587 C586 1.391 . S
C587 C588 1.368 1_455 S
C588 C587 1.368 1_655 S
C588 C589 1.387 . S
C589 H574 0.930 . S
C589 C584 1.390 . S
C589 C588 1.387 . S
H590 C602 0.930 . S
H591 C604 0.930 . S
H592 C605 0.930 . S
H593 C609 0.959 . S
H594 C609 0.959 . S
H595 C609 0.961 . S
H596 C610 0.960 . S
H597 C610 0.961 . S
H598 C610 0.959 . S
H599 C613 0.929 . S
H600 C614 0.931 . S
H601 C616 0.930 . S
C602 H590 0.930 . S
C602 C603 1.399 . S
C602 C607 1.399 . S
C603 C602 1.399 . S
C603 C604 1.376 . S
C604 H591 0.930 . S
C604 C603 1.376 . S
C604 C605 1.388 . S
C605 H592 0.930 . S
C605 C604 1.388 . S
C605 C606 1.390 . S
C606 C605 1.390 . S
C606 C607 1.394 . S
C606 C612 1.465 . S
C607 C602 1.399 . S
C607 C606 1.394 . S
C607 C608 1.516 . S
C608 C607 1.516 . S
C608 C609 1.502 . S
C608 C610 1.561 . S
C608 C611 1.526 . S
C609 H593 0.959 . S
C609 H594 0.959 . S
C609 H595 0.961 . S
C609 C608 1.502 . S
C610 H596 0.960 . S
C610 H597 0.961 . S
C610 H598 0.959 . S
C610 C608 1.561 . S
C611 C608 1.526 . S
C611 C612 1.396 . S
C611 C616 1.390 . S
C612 C606 1.465 . S
C612 C611 1.396 . S
C612 C613 1.399 . S
C613 H599 0.929 . S
C613 C612 1.399 . S
C613 C614 1.385 . S
C614 H600 0.931 . S
C614 C613 1.385 . S
C614 C615 1.389 . S
C615 C614 1.389 . S
C615 C616 1.387 . S
C616 H601 0.930 . S
C616 C611 1.390 . S
C616 C615 1.387 . S
H617 C629 0.930 . S
H618 C631 0.930 . S
H619 C632 0.930 . S
H620 C636 0.959 . S
H621 C636 0.959 . S
H622 C636 0.961 . S
H623 C637 0.960 . S
H624 C637 0.961 . S
H625 C637 0.959 . S
H626 C640 0.929 . S
H627 C641 0.931 . S
H628 C643 0.930 . S
C629 H617 0.930 . S
C629 C630 1.399 . S
C629 C634 1.399 . S
C630 C629 1.399 . S
C630 C631 1.376 1_455 S
C631 H618 0.930 . S
C631 C630 1.376 1_655 S
C631 C632 1.388 . S
C632 H619 0.930 . S
C632 C631 1.388 . S
C632 C633 1.390 1_655 S
C633 C632 1.390 1_455 S
C633 C634 1.394 . S
C633 C639 1.465 . S
C634 C629 1.399 . S
C634 C633 1.394 . S
C634 C635 1.516 . S
C635 C634 1.516 . S
C635 C636 1.502 . S
C635 C637 1.561 . S
C635 C638 1.526 . S
C636 H620 0.959 . S
C636 H621 0.959 . S
C636 H622 0.961 . S
C636 C635 1.502 . S
C637 H623 0.960 . S
C637 H624 0.961 . S
C637 H625 0.959 . S
C637 C635 1.561 . S
C638 C635 1.526 . S
C638 C639 1.396 . S
C638 C643 1.390 . S
C639 C633 1.465 . S
C639 C638 1.396 . S
C639 C640 1.399 1_455 S
C640 H626 0.929 . S
C640 C639 1.399 1_655 S
C640 C641 1.385 . S
C641 H627 0.931 . S
C641 C640 1.385 . S
C641 C642 1.389 1_655 S
C642 C641 1.389 1_455 S
C642 C643 1.387 . S
C643 H628 0.930 . S
C643 C638 1.390 . S
C643 C642 1.387 . S
C333 C2 2.377 . S
C345 C42 2.353 . S
C360 C82 2.355 . S
C372 C122 2.369 . S
C387 C202 2.167 . S
C399 C162 2.206 . S
C414 C242 2.237 . S
C426 C282 2.176 . S
C441 C15 2.515 . S
C453 C175 2.555 . S
C468 C215 2.534 . S
C480 C55 2.530 . S
C495 C95 2.574 . S
C507 C255 2.498 . S
C522 C295 2.557 . S
C534 C135 2.516 . S
C549 C101 2.086 . S
C561 C21 2.084 . S
C576 C141 2.085 . S
C588 C61 2.083 . S
C603 C261 1.960 . S
C615 C181 1.989 . S
C630 C301 1.961 . S
C642 C221 1.981 . S
