# Generated by pormake.
# Topology rac, (4)-cn, num edge types: 1
# Building blocks:
#     Node 0, Type 0, BuildingBlock: ICAMEG_clean_sbu_1, # of connection points: 4
#     Node 1, Type 0, BuildingBlock: ICAMEG_clean_sbu_1, # of connection points: 4
#     Node 2, Type 0, BuildingBlock: ICAMEG_clean_sbu_1, # of connection points: 4
#     Node 3, Type 0, BuildingBlock: ICAMEG_clean_sbu_1, # of connection points: 4
#     Node 4, Type 0, BuildingBlock: ICAMEG_clean_sbu_1, # of connection points: 4
#     Node 5, Type 0, BuildingBlock: ICAMEG_clean_sbu_1, # of connection points: 4
#     Node 6, Type 0, BuildingBlock: ICAMEG_clean_sbu_1, # of connection points: 4
#     Node 7, Type 0, BuildingBlock: ICAMEG_clean_sbu_1, # of connection points: 4
#     Edge 8, Type (0, 0), BuildingBlock: CIFDUS_clean_linker_0, # of connection points: 2
#     Edge 9, Type (0, 0), BuildingBlock: CIFDUS_clean_linker_0, # of connection points: 2
#     Edge 10, Type (0, 0), BuildingBlock: CIFDUS_clean_linker_0, # of connection points: 2
#     Edge 11, Type (0, 0), BuildingBlock: CIFDUS_clean_linker_0, # of connection points: 2
#     Edge 12, Type (0, 0), BuildingBlock: CIFDUS_clean_linker_0, # of connection points: 2
#     Edge 13, Type (0, 0), BuildingBlock: CIFDUS_clean_linker_0, # of connection points: 2
#     Edge 14, Type (0, 0), BuildingBlock: CIFDUS_clean_linker_0, # of connection points: 2
#     Edge 15, Type (0, 0), BuildingBlock: CIFDUS_clean_linker_0, # of connection points: 2
#     Edge 16, Type (0, 0), BuildingBlock: CIFDUS_clean_linker_0, # of connection points: 2
#     Edge 17, Type (0, 0), BuildingBlock: CIFDUS_clean_linker_0, # of connection points: 2
#     Edge 18, Type (0, 0), BuildingBlock: CIFDUS_clean_linker_0, # of connection points: 2
#     Edge 19, Type (0, 0), BuildingBlock: CIFDUS_clean_linker_0, # of connection points: 2
#     Edge 20, Type (0, 0), BuildingBlock: CIFDUS_clean_linker_0, # of connection points: 2
#     Edge 21, Type (0, 0), BuildingBlock: CIFDUS_clean_linker_0, # of connection points: 2
#     Edge 22, Type (0, 0), BuildingBlock: CIFDUS_clean_linker_0, # of connection points: 2
#     Edge 23, Type (0, 0), BuildingBlock: CIFDUS_clean_linker_0, # of connection points: 2
# Relax obj value: 0.286
# Max RMSD: 0.140
# Mean RMSD: 0.140
data_MOF--net-rac--node1-ICAMEG_clean_sbu_1--edge1-CIFDUS_clean_linker_0
_symmetry_space_group_name_H-M    P1
_symmetry_Int_Tables_number       1
_symmetry_cell_setting            triclinic
loop_
_symmetry_equiv_pos_as_xyz
'x, y, z'
_cell_length_a     39.872545
_cell_length_b     18.045548
_cell_length_c     37.107765
_cell_angle_alpha  89.905606
_cell_angle_beta   90.012258
_cell_angle_gamma 90.094506
loop_
_atom_site_label
_atom_site_type_symbol
_atom_site_fract_x
_atom_site_fract_y
_atom_site_fract_z
_atom_type_partial_charge
Co0 Co 0.33401 0.3243 0.07616 0.0
Co1 Co 0.38557 0.26685 0.00916 0.0
O2 O 0.3792 0.31211 0.05661 0.0
C3 C 0.37141 0.26544 0.13957 0.0
O4 O 0.38725 0.21814 0.11885 0.0
C5 C 0.42992 0.4003 0.00748 0.0
O6 O 0.40451 0.4396 0.01923 0.0
O7 O 0.35617 0.34431 0.98715 0.0
O8 O 0.31421 0.33661 0.02701 0.0
H9 H 0.34771 0.17028 0.88892 0.0
H10 H 0.38894 0.41902 0.1037 0.0
O11 O 0.3513 0.31264 0.12618 0.0
H12 H 0.30544 0.59194 0.05343 0.0
H13 H 0.24889 0.41655 0.16572 0.0
H14 H 0.26712 0.26177 0.05814 0.0
H15 H 0.29451 0.4576 0.05417 0.0
H16 H 0.30494 0.40821 0.13799 0.0
O17 O 0.42617 0.33132 0.00124 0.0
H18 H 0.3402 0.22485 0.94929 0.0
H19 H 0.44534 0.21751 0.96726 0.0
H20 H 0.21089 0.26706 0.08561 0.0
H21 H 0.40061 0.5534 0.10421 0.0
H22 H 0.20149 0.34496 0.13977 0.0
H23 H 0.35899 0.64066 0.07826 0.0
O24 O 0.32712 0.21602 0.07278 0.0
H25 H 0.47863 0.17717 0.08939 0.0
H26 H 0.38952 0.10176 0.00481 0.0
H27 H 0.42497 0.00627 0.03321 0.0
H28 H 0.46998 0.04379 0.07576 0.0
H29 H 0.44235 0.27083 0.06069 0.0
H30 H 0.45404 0.16348 0.90697 0.0
H31 H 0.40498 0.13921 0.86742 0.0
O32 O 0.34548 0.19908 0.01634 0.0
C33 C 0.32594 0.35636 0.99657 0.0
C34 C 0.36928 0.18043 0.90594 0.0
C35 C 0.42896 0.17671 0.91605 0.0
N36 N 0.39226 0.22392 0.96184 0.0
C37 C 0.36517 0.21116 0.94017 0.0
C38 C 0.42389 0.20751 0.95012 0.0
C39 C 0.40142 0.16307 0.89388 0.0
C40 C 0.37044 0.45688 0.09304 0.0
N41 N 0.34122 0.43049 0.07873 0.0
C42 C 0.37725 0.53282 0.09321 0.0
C43 C 0.35389 0.58175 0.07862 0.0
C44 C 0.32389 0.55447 0.0646 0.0
C45 C 0.31788 0.47828 0.06503 0.0
C46 C 0.25269 0.38236 0.14215 0.0
C47 C 0.26328 0.29571 0.08173 0.0
C48 C 0.28435 0.37759 0.12624 0.0
N49 N 0.28934 0.3346 0.0964 0.0
C50 C 0.23139 0.29832 0.09723 0.0
C51 C 0.22613 0.34204 0.12763 0.0
C52 C 0.32855 0.17809 0.0439 0.0
C53 C 0.45916 0.16015 0.07082 0.0
C54 C 0.40893 0.11855 0.02344 0.0
C55 C 0.429 0.06422 0.03936 0.0
C56 C 0.45426 0.08531 0.0632 0.0
N57 N 0.41393 0.19187 0.031 0.0
C58 C 0.43863 0.21295 0.05438 0.0
Co59 Co 0.18984 0.68273 0.08719 0.0
Co60 Co 0.14692 0.75949 0.01708 0.0
O61 O 0.1478 0.70647 0.06304 0.0
C62 C 0.15124 0.74943 0.14679 0.0
O63 O 0.14523 0.80572 0.12527 0.0
C64 C 0.10218 0.62989 0.00614 0.0
O65 O 0.12682 0.58863 0.01828 0.0
O66 O 0.17717 0.68406 0.99504 0.0
O67 O 0.21403 0.67181 0.0403 0.0
H68 H 0.19724 0.87298 0.90578 0.0
H69 H 0.12938 0.59648 0.10798 0.0
O70 O 0.16741 0.6935 0.13522 0.0
H71 H 0.20698 0.41576 0.05382 0.0
H72 H 0.26067 0.55746 0.18159 0.0
H73 H 0.26046 0.73247 0.07939 0.0
H74 H 0.22435 0.54514 0.06258 0.0
H75 H 0.20822 0.58511 0.149 0.0
O76 O 0.1064 0.69962 0.00261 0.0
H77 H 0.19831 0.80797 0.9643 0.0
H78 H 0.09213 0.82005 0.97103 0.0
H79 H 0.31308 0.70905 0.11229 0.0
H80 H 0.11185 0.46578 0.10218 0.0
H81 H 0.31361 0.61969 0.16327 0.0
H82 H 0.15063 0.37456 0.07445 0.0
O83 O 0.20202 0.78919 0.08753 0.0
H84 H 0.04848 0.84414 0.09078 0.0
H85 H 0.14599 0.92481 0.01892 0.0
H86 H 0.10973 0.01859 0.04734 0.0
H87 H 0.06051 0.97843 0.08349 0.0
H88 H 0.08558 0.75218 0.06218 0.0
H89 H 0.08987 0.88457 0.91241 0.0
H90 H 0.14271 0.91171 0.87946 0.0
O91 O 0.18718 0.82158 0.03121 0.0
C92 C 0.20558 0.66422 0.00741 0.0
C93 C 0.17405 0.86165 0.91992 0.0
C94 C 0.11378 0.86806 0.92362 0.0
N95 N 0.14534 0.81072 0.97115 0.0
C96 C 0.17451 0.82504 0.95311 0.0
C97 C 0.11521 0.83134 0.95675 0.0
C98 C 0.14345 0.8833 0.90515 0.0
C99 C 0.14675 0.55658 0.09696 0.0
N100 N 0.17781 0.57855 0.08561 0.0
C101 C 0.13658 0.48281 0.09342 0.0
C102 C 0.15831 0.43169 0.07778 0.0
C103 C 0.18997 0.45458 0.06636 0.0
C104 C 0.19955 0.5283 0.07105 0.0
C105 C 0.26083 0.59603 0.15923 0.0
C106 C 0.26035 0.69423 0.10184 0.0
C107 C 0.23124 0.61173 0.14059 0.0
N108 N 0.23132 0.6599 0.11211 0.0
C109 C 0.29026 0.68102 0.12031 0.0
C110 C 0.29051 0.63105 0.14898 0.0
C111 C 0.2031 0.83331 0.06067 0.0
C112 C 0.06979 0.86234 0.075 0.0
C113 C 0.12469 0.90686 0.03472 0.0
C114 C 0.10421 0.96024 0.05068 0.0
C115 C 0.07658 0.93767 0.07094 0.0
N116 N 0.11781 0.83307 0.03873 0.0
C117 C 0.09082 0.81052 0.05863 0.0
Co118 Co 0.3449 0.17465 0.41182 0.0
Co119 Co 0.39103 0.24332 0.48126 0.0
O120 O 0.38825 0.19143 0.43494 0.0
C121 C 0.39414 0.19997 0.35046 0.0
O122 O 0.4199 0.20912 0.37199 0.0
C123 C 0.43461 0.11094 0.48957 0.0
O124 O 0.40947 0.07119 0.47738 0.0
O125 O 0.36029 0.16865 0.50336 0.0
O126 O 0.32179 0.16662 0.45949 0.0
H127 H 0.34472 0.35551 0.59461 0.0
H128 H 0.40227 0.07627 0.39215 0.0
O129 O 0.36515 0.18401 0.36269 0.0
H130 H 0.31504 0.9105 0.4409 0.0
H131 H 0.2664 0.06544 0.31965 0.0
H132 H 0.27636 0.23418 0.42353 0.0
H133 H 0.30441 0.04394 0.43463 0.0
H134 H 0.32097 0.08425 0.34963 0.0
O135 O 0.43096 0.18047 0.49429 0.0
H136 H 0.34149 0.29292 0.53566 0.0
H137 H 0.44763 0.2987 0.5264 0.0
H138 H 0.22147 0.21808 0.39389 0.0
H139 H 0.41335 0.9424 0.39623 0.0
H140 H 0.21618 0.13277 0.34175 0.0
H141 H 0.36973 0.85843 0.42119 0.0
O142 O 0.3373 0.28265 0.41152 0.0
H143 H 0.49038 0.32511 0.40781 0.0
H144 H 0.39393 0.40868 0.48017 0.0
H145 H 0.43127 0.50135 0.45223 0.0
H146 H 0.47997 0.45976 0.41581 0.0
H147 H 0.45223 0.23429 0.43597 0.0
H148 H 0.45204 0.36076 0.5854 0.0
H149 H 0.40031 0.38984 0.61985 0.0
O150 O 0.35133 0.309 0.46862 0.0
C151 C 0.33104 0.15358 0.49169 0.0
C152 C 0.36744 0.34331 0.57981 0.0
C153 C 0.42767 0.34616 0.57466 0.0
N154 N 0.39432 0.29264 0.52751 0.0
C155 C 0.36576 0.30805 0.54638 0.0
C156 C 0.42503 0.31084 0.54132 0.0
C157 C 0.39864 0.36249 0.59397 0.0
C158 C 0.38278 0.04013 0.40197 0.0
N159 N 0.35266 0.06829 0.4128 0.0
C160 C 0.38932 0.96427 0.40459 0.0
C161 C 0.36486 0.91719 0.41867 0.0
C162 C 0.33419 0.94626 0.42965 0.0
C163 C 0.3284 0.02215 0.42621 0.0
C164 C 0.26839 0.10275 0.34236 0.0
C165 C 0.27432 0.19723 0.40074 0.0
C166 C 0.2992 0.11358 0.35948 0.0
N167 N 0.30182 0.15991 0.38847 0.0
C168 C 0.24318 0.18845 0.38402 0.0
C169 C 0.24023 0.14059 0.35475 0.0
C170 C 0.33665 0.32507 0.43889 0.0
C171 C 0.46924 0.34394 0.42361 0.0
C172 C 0.41488 0.39006 0.46411 0.0
C173 C 0.43603 0.44284 0.44848 0.0
C174 C 0.46337 0.41947 0.42808 0.0
N175 N 0.42078 0.31604 0.45957 0.0
C176 C 0.44757 0.29275 0.43966 0.0
Co177 Co 0.19509 0.80452 0.41716 0.0
Co178 Co 0.14995 0.74699 0.48993 0.0
O179 O 0.15224 0.7876 0.44115 0.0
C180 C 0.1584 0.72357 0.35971 0.0
O181 O 0.15378 0.66877 0.38252 0.0
C182 C 0.10457 0.87769 0.49215 0.0
O183 O 0.12911 0.91677 0.47809 0.0
O184 O 0.17964 0.82812 0.50798 0.0
O185 O 0.21796 0.82757 0.46372 0.0
H186 H 0.19703 0.66502 0.60907 0.0
H187 H 0.1353 0.88549 0.39017 0.0
O188 O 0.17362 0.78222 0.36958 0.0
H189 H 0.21448 0.07852 0.43047 0.0
H190 H 0.26903 0.90311 0.31801 0.0
H191 H 0.26545 0.75852 0.43083 0.0
H192 H 0.23016 0.94696 0.43301 0.0
H193 H 0.21549 0.88338 0.34994 0.0
O194 O 0.10904 0.8093 0.4994 0.0
H195 H 0.19978 0.71401 0.54704 0.0
H196 H 0.09388 0.69761 0.53746 0.0
H197 H 0.31925 0.77451 0.39906 0.0
H198 H 0.11923 0.01719 0.38534 0.0
H199 H 0.32141 0.8483 0.34254 0.0
H200 H 0.1589 0.11478 0.40581 0.0
O201 O 0.20703 0.69873 0.42391 0.0
H202 H 0.05392 0.6423 0.41847 0.0
H203 H 0.14889 0.58248 0.49849 0.0
H204 H 0.11345 0.48152 0.47486 0.0
H205 H 0.06551 0.51119 0.43462 0.0
H206 H 0.09016 0.74154 0.44248 0.0
H207 H 0.08995 0.64908 0.5995 0.0
H208 H 0.1418 0.6322 0.63569 0.0
O209 O 0.19049 0.68233 0.4812 0.0
C210 C 0.20849 0.84434 0.49544 0.0
C211 C 0.17427 0.67194 0.59354 0.0
C212 C 0.11416 0.66309 0.58819 0.0
N213 N 0.14705 0.70818 0.53858 0.0
C214 C 0.17568 0.69948 0.55837 0.0
C215 C 0.11654 0.69078 0.55311 0.0
C216 C 0.14327 0.6536 0.60847 0.0
C217 C 0.15294 0.92775 0.39839 0.0
N218 N 0.18362 0.90845 0.4118 0.0
C219 C 0.14363 1.00219 0.39584 0.0
C220 C 0.16586 0.05692 0.40739 0.0
C221 C 0.19708 0.03673 0.42109 0.0
C222 C 0.20571 0.96192 0.42278 0.0
C223 C 0.26845 0.87106 0.34268 0.0
C224 C 0.26607 0.79002 0.40605 0.0
C225 C 0.23822 0.85985 0.36093 0.0
N226 N 0.23737 0.82027 0.39237 0.0
C227 C 0.29663 0.79893 0.38817 0.0
C228 C 0.29781 0.84025 0.35644 0.0
C229 C 0.20756 0.66283 0.45356 0.0
C230 C 0.07467 0.62869 0.43607 0.0
C231 C 0.12813 0.59585 0.48091 0.0
C232 C 0.10812 0.53844 0.46767 0.0
C233 C 0.08121 0.55513 0.44511 0.0
N234 N 0.12147 0.6679 0.47204 0.0
C235 C 0.09521 0.68467 0.44984 0.0
Co236 Co 0.6836 0.69239 0.91014 0.0
Co237 Co 0.64394 0.76797 0.98287 0.0
O238 O 0.64296 0.71708 0.93648 0.0
C239 C 0.64331 0.76631 0.85399 0.0
O240 O 0.63915 0.82151 0.87656 0.0
C241 C 0.6 0.63743 0.99386 0.0
O242 O 0.62463 0.59753 0.98076 0.0
O243 O 0.67518 0.69206 0.00312 0.0
O244 O 0.70916 0.67596 0.95558 0.0
H245 H 0.69826 0.87774 0.09272 0.0
H246 H 0.62093 0.61269 0.89093 0.0
O247 O 0.65945 0.7088 0.86363 0.0
H248 H 0.69838 0.42052 0.93546 0.0
H249 H 0.74876 0.56998 0.81053 0.0
H250 H 0.7555 0.73333 0.9167 0.0
H251 H 0.71688 0.55017 0.93033 0.0
H252 H 0.69786 0.60103 0.84509 0.0
O253 O 0.60404 0.70697 -0.00163 0.0
H254 H 0.69723 0.81507 0.03369 0.0
H255 H 0.59085 0.82575 0.03179 0.0
H256 H 0.80689 0.70494 0.88245 0.0
H257 H 0.60196 0.48256 0.89376 0.0
H258 H 0.80382 0.62162 0.82935 0.0
H259 H 0.64076 0.38547 0.91641 0.0
O260 O 0.69751 0.7978 0.9109 0.0
H261 H 0.54259 0.85509 0.91436 0.0
H262 H 0.64282 0.93327 0.98236 0.0
H263 H 0.60541 0.02802 0.95638 0.0
H264 H 0.55481 0.98912 0.92218 0.0
H265 H 0.58084 0.76217 0.94048 0.0
H266 H 0.59069 0.88789 0.09097 0.0
H267 H 0.6447 0.91455 0.12175 0.0
O268 O 0.68357 0.83087 0.96739 0.0
C269 C 0.70249 0.66988 0.98898 0.0
C270 C 0.67457 0.86661 0.07953 0.0
C271 C 0.61419 0.8722 0.07857 0.0
N272 N 0.64404 0.81728 0.02923 0.0
C273 C 0.67384 0.83134 0.04607 0.0
C274 C 0.61443 0.83683 0.04512 0.0
C275 C 0.64451 0.88718 0.09582 0.0
C276 C 0.6382 0.57045 0.89997 0.0
N277 N 0.66998 0.58909 0.91036 0.0
C278 C 0.62724 0.49696 0.90177 0.0
C279 C 0.649 0.44252 0.91454 0.0
C280 C 0.68137 0.46202 0.92509 0.0
C281 C 0.6916 0.53581 0.92245 0.0
C282 C 0.75047 0.60583 0.8338 0.0
C283 C 0.75391 0.69744 0.89347 0.0
C284 C 0.72174 0.62363 0.85348 0.0
N285 N 0.72376 0.6684 0.88308 0.0
C286 C 0.7831 0.6815 0.8742 0.0
C287 C 0.78135 0.6349 0.84434 0.0
C288 C 0.69909 0.84206 0.93761 0.0
C289 C 0.5645 0.87274 0.9293 0.0
C290 C 0.62092 0.91587 0.9674 0.0
C291 C 0.59979 0.96979 0.95282 0.0
C292 C 0.5714 0.94793 0.93366 0.0
N293 N 0.61393 0.84222 0.96312 0.0
C294 C 0.58619 0.82037 0.94428 0.0
Co295 Co 0.83885 0.32732 0.91269 0.0
Co296 Co 0.88521 0.26757 0.98419 0.0
O297 O 0.88208 0.30868 0.93556 0.0
C298 C 0.87389 0.24565 0.85453 0.0
O299 O 0.87911 0.19141 0.87749 0.0
C300 C 0.93149 0.39719 0.98575 0.0
O301 O 0.90699 0.43718 0.97233 0.0
O302 O 0.85644 0.34909 0.00331 0.0
O303 O 0.81735 0.35107 0.95983 0.0
H304 H 0.84028 0.18505 0.10424 0.0
H305 H 0.8988 0.40558 0.88411 0.0
O306 O 0.85892 0.30435 0.86456 0.0
H307 H 0.82299 0.60215 0.92703 0.0
H308 H 0.76365 0.42922 0.81557 0.0
H309 H 0.76829 0.28546 0.92859 0.0
H310 H 0.80576 0.47135 0.92969 0.0
H311 H 0.81774 0.40636 0.84582 0.0
O312 O 0.92668 0.32881 0.99283 0.0
H313 H 0.83647 0.23508 0.04247 0.0
H314 H 0.942 0.21615 0.03012 0.0
H315 H 0.71379 0.30564 0.89879 0.0
H316 H 0.9163 0.53643 0.87909 0.0
H317 H 0.71113 0.37914 0.84222 0.0
H318 H 0.87834 0.63579 0.90089 0.0
O319 O 0.826 0.22184 0.91962 0.0
H320 H 0.97899 0.16163 0.91006 0.0
H321 H 0.88538 0.10293 0.99216 0.0
H322 H 0.9196 1.00146 0.96729 0.0
H323 H 0.96686 0.03056 0.92599 0.0
H324 H 0.94395 0.26139 0.93531 0.0
H325 H 0.947 0.16656 0.09187 0.0
H326 H 0.89587 0.15042 0.12932 0.0
O327 O 0.84412 0.20401 0.97628 0.0
C328 C 0.82753 0.36663 0.99145 0.0
C329 C 0.86273 0.19164 0.08815 0.0
C330 C 0.92264 0.18136 0.08123 0.0
N331 N 0.88894 0.22804 0.03264 0.0
C332 C 0.86072 0.21977 0.05313 0.0
C333 C 0.91966 0.20966 0.04632 0.0
C334 C 0.89393 0.17228 0.10222 0.0
C335 C 0.88186 0.44862 0.89288 0.0
N336 N 0.85129 0.43073 0.90711 0.0
C337 C 0.89199 0.52258 0.89022 0.0
C338 C 0.87071 0.5783 0.9025 0.0
C339 C 0.8396 0.55956 0.91702 0.0
C340 C 0.83012 0.48519 0.91878 0.0
C341 C 0.76444 0.39763 0.84037 0.0
C342 C 0.76741 0.31702 0.90383 0.0
C343 C 0.795 0.38446 0.85762 0.0
N344 N 0.79616 0.34509 0.88911 0.0
C345 C 0.73646 0.32834 0.88709 0.0
C346 C 0.735 0.36942 0.8553 0.0
C347 C 0.82622 0.18528 0.9491 0.0
C348 C 0.95854 0.14826 0.92811 0.0
C349 C 0.90583 0.11605 0.97412 0.0
C350 C 0.92517 0.05836 0.96018 0.0
C351 C 0.95169 0.07473 0.93703 0.0
N352 N 0.91279 0.18807 0.96535 0.0
C353 C 0.93868 0.20453 0.94259 0.0
Co354 Co 0.68847 0.81852 0.58644 0.0
Co355 Co 0.64828 0.74406 0.51379 0.0
O356 O 0.64763 0.7946 0.56025 0.0
C357 C 0.64741 0.74564 0.64227 0.0
O358 O 0.64301 0.69078 0.61953 0.0
C359 C 0.60449 0.87476 0.50346 0.0
O360 O 0.6292 0.91454 0.5166 0.0
O361 O 0.67954 0.82012 0.4936 0.0
O362 O 0.71402 0.83444 0.54089 0.0
H363 H 0.70188 0.63526 0.40342 0.0
H364 H 0.62639 0.89962 0.60611 0.0
O365 O 0.66428 0.80252 0.63299 0.0
H366 H 0.70451 0.08981 0.56043 0.0
H367 H 0.75464 0.94014 0.6857 0.0
H368 H 0.76013 0.77628 0.57965 0.0
H369 H 0.7224 0.95998 0.56588 0.0
H370 H 0.70342 0.90964 0.65144 0.0
O371 O 0.60845 0.80531 0.49863 0.0
H372 H 0.70125 0.69732 0.46261 0.0
H373 H 0.59485 0.68689 0.465 0.0
H374 H 0.81182 0.80414 0.61357 0.0
H375 H 0.60812 0.03009 0.6032 0.0
H376 H 0.80937 0.88761 0.66664 0.0
H377 H 0.64725 0.12619 0.57993 0.0
O378 O 0.70178 0.71287 0.58562 0.0
H379 H 0.54704 0.65651 0.58253 0.0
H380 H 0.64686 0.57876 0.51397 0.0
H381 H 0.60938 0.48385 0.53991 0.0
H382 H 0.55899 0.52254 0.57439 0.0
H383 H 0.58536 0.7496 0.55645 0.0
H384 H 0.59429 0.62535 0.40567 0.0
H385 H 0.6481 0.59888 0.37456 0.0
O386 O 0.68788 0.68093 0.52894 0.0
C387 C 0.70711 0.8414 0.50758 0.0
C388 C 0.67827 0.64631 0.41675 0.0
C389 C 0.61789 0.64085 0.41799 0.0
N390 N 0.64807 0.69519 0.46732 0.0
C391 C 0.67777 0.68124 0.45031 0.0
C392 C 0.61835 0.67588 0.45153 0.0
C393 C 0.64809 0.62598 0.40056 0.0
C394 C 0.64383 0.94144 0.59688 0.0
N395 N 0.67543 0.92209 0.58626 0.0
C396 C 0.63326 0.01513 0.595 0.0
C397 C 0.6552 0.06901 0.58189 0.0
C398 C 0.68737 0.04878 0.57111 0.0
C399 C 0.69724 0.97486 0.5739 0.0
C400 C 0.75607 0.90412 0.66246 0.0
C401 C 0.7588 0.81222 0.60288 0.0
C402 C 0.72716 0.88664 0.64296 0.0
N403 N 0.72883 0.84173 0.61338 0.0
C404 C 0.78816 0.82782 0.62197 0.0
C405 C 0.78676 0.87455 0.65179 0.0
C406 C 0.70331 0.6691 0.55872 0.0
C407 C 0.56885 0.63896 0.56747 0.0
C408 C 0.62505 0.59607 0.52905 0.0
C409 C 0.60388 0.54206 0.5436 0.0
C410 C 0.5756 0.5638 0.56293 0.0
N411 N 0.61821 0.66969 0.53352 0.0
C412 C 0.59058 0.69143 0.55251 0.0
Co413 Co 0.84188 0.18459 0.58203 0.0
Co414 Co 0.88932 0.24429 0.51135 0.0
O415 O 0.88551 0.20206 0.55973 0.0
C416 C 0.87718 0.26301 0.64112 0.0
O417 O 0.88343 0.31731 0.61847 0.0
C418 C 0.93478 0.11362 0.50951 0.0
O419 O 0.90998 0.0741 0.52274 0.0
O420 O 0.8602 0.16381 0.49162 0.0
O421 O 0.82054 0.16315 0.53449 0.0
H422 H 0.84582 0.33042 0.39132 0.0
H423 H 0.90075 0.10261 0.61048 0.0
O424 O 0.86171 0.20525 0.63055 0.0
H425 H 0.82272 0.91103 0.56615 0.0
H426 H 0.76473 0.08401 0.67782 0.0
H427 H 0.77197 0.23049 0.56578 0.0
H428 H 0.80718 0.04278 0.56399 0.0
H429 H 0.81928 0.10448 0.64809 0.0
O430 O 0.93045 0.18224 0.5027 0.0
H431 H 0.84123 0.27915 0.45279 0.0
H432 H 0.94677 0.29539 0.46619 0.0
H433 H 0.71706 0.21291 0.59513 0.0
H434 H 0.91662 0.97073 0.61489 0.0
H435 H 0.71309 0.13822 0.65124 0.0
H436 H 0.87754 0.87391 0.59238 0.0
O437 O 0.83026 0.29074 0.57573 0.0
H438 H 0.98326 0.34616 0.58683 0.0
H439 H 0.89066 0.4091 0.50421 0.0
H440 H 0.92541 0.50911 0.52987 0.0
H441 H 0.97216 0.47787 0.57143 0.0
H442 H 0.9477 0.2479 0.56078 0.0
H443 H 0.95255 0.34619 0.40475 0.0
H444 H 0.9018 0.36431 0.36692 0.0
O445 O 0.84857 0.30878 0.51918 0.0
C446 C 0.831 0.14721 0.50303 0.0
C447 C 0.8681 0.32297 0.40757 0.0
C448 C 0.92801 0.33172 0.41509 0.0
N449 N 0.89367 0.28478 0.46313 0.0
C450 C 0.86565 0.29414 0.44243 0.0
C451 C 0.9246 0.30274 0.44982 0.0
C452 C 0.89953 0.34191 0.39389 0.0
C453 C 0.88335 0.06066 0.60135 0.0
N454 N 0.8531 0.08046 0.58703 0.0
C455 C 0.89255 0.98612 0.60368 0.0
C456 C 0.87064 0.93182 0.591 0.0
C457 C 0.83984 0.95252 0.5764 0.0
C458 C 0.83131 0.02741 0.57495 0.0
C459 C 0.76609 0.11627 0.65325 0.0
C460 C 0.77052 0.19839 0.59034 0.0
C461 C 0.79691 0.12804 0.63628 0.0
N462 N 0.7988 0.16821 0.60507 0.0
C463 C 0.73935 0.18862 0.60685 0.0
C464 C 0.73715 0.14681 0.63837 0.0
C465 C 0.83078 0.3277 0.54639 0.0
C466 C 0.96303 0.36046 0.56867 0.0
C467 C 0.91089 0.39505 0.52236 0.0
C468 C 0.93053 0.45192 0.53675 0.0
C469 C 0.95676 0.43435 0.56005 0.0
N470 N 0.91727 0.32268 0.53084 0.0
C471 C 0.94288 0.30504 0.55374 0.0
H472 H 0.29618 0.10567 0.09815 0.0
H473 H 0.31215 0.1001 0.98309 0.0
H474 H 0.27378 0.99504 0.97793 0.0
H475 H 0.2351 0.90524 0.00601 0.0
H476 H 0.22143 0.90756 0.12135 0.0
H477 H 0.25925 0.01368 0.12637 0.0
C478 C 0.2914 0.08142 0.07191 0.0
C479 C 0.30702 0.11113 0.04106 0.0
C480 C 0.26949 0.02065 0.06913 0.0
C481 C 0.30061 0.07844 0.00735 0.0
C482 C 0.27852 0.01847 0.00432 0.0
C483 C 0.24025 0.92934 0.0322 0.0
C484 C 0.22528 0.89894 0.06323 0.0
C485 C 0.26265 0.98939 0.035 0.0
C486 C 0.23263 0.92995 0.09705 0.0
C487 C 0.25427 0.9906 0.09995 0.0
H488 H 0.24452 0.59781 0.40052 0.0
H489 H 0.22302 0.5835 0.51439 0.0
H490 H 0.2626 0.48124 0.52042 0.0
H491 H 0.303 0.39423 0.49323 0.0
H492 H 0.32216 0.40541 0.37893 0.0
H493 H 0.2842 0.5108 0.37339 0.0
C494 C 0.24839 0.57237 0.42669 0.0
C495 C 0.23068 0.59862 0.4569 0.0
C496 C 0.27103 0.51313 0.42999 0.0
C497 C 0.23612 0.56455 0.49056 0.0
C498 C 0.25889 0.50609 0.49411 0.0
C499 C 0.29912 0.42034 0.46722 0.0
C500 C 0.31552 0.39231 0.43658 0.0
C501 C 0.27653 0.47991 0.46402 0.0
C502 C 0.30982 0.42593 0.40293 0.0
C503 C 0.28807 0.48612 0.39971 0.0
H504 H 0.73113 0.91735 0.99116 0.0
H505 H 0.71676 0.91411 0.87592 0.0
H506 H 0.75441 0.02012 0.86925 0.0
H507 H 0.79204 0.11289 0.89596 0.0
H508 H 0.80871 0.11215 0.01095 0.0
H509 H 0.76982 0.00865 0.01776 0.0
C510 C 0.73607 0.94022 0.96463 0.0
C511 C 0.72102 0.90806 0.93412 0.0
C512 C 0.75838 1.00027 0.96087 0.0
C513 C 0.72807 0.9377 0.89986 0.0
C514 C 0.7496 0.99836 0.896 0.0
C515 C 0.78721 0.09014 0.92253 0.0
C516 C 0.80334 0.12063 0.95285 0.0
C517 C 0.76505 0.02988 0.92629 0.0
C518 C 0.79683 0.08989 0.98705 0.0
C519 C 0.77446 0.03071 0.99104 0.0
H520 H 0.7363 0.59654 0.50504 0.0
H521 H 0.71995 0.59465 0.61998 0.0
H522 H 0.75768 0.48896 0.62635 0.0
H523 H 0.79585 0.39793 0.59951 0.0
H524 H 0.81452 0.40359 0.4849 0.0
H525 H 0.77565 0.50696 0.47832 0.0
C526 C 0.74082 0.57258 0.53143 0.0
C527 C 0.72519 0.60318 0.56195 0.0
C528 C 0.76319 0.51277 0.53504 0.0
C529 C 0.7317 0.57223 0.59604 0.0
C530 C 0.75329 0.51178 0.59973 0.0
C531 C 0.7915 0.42175 0.57306 0.0
C532 C 0.80815 0.39264 0.54278 0.0
C533 C 0.76932 0.48182 0.56945 0.0
C534 C 0.80222 0.42475 0.50877 0.0
C535 C 0.77985 0.48385 0.50491 0.0
H536 H 0.42306 0.21701 0.1827 0.0
H537 H 0.32112 0.29759 0.18524 0.0
H538 H 0.31978 0.28508 0.25025 0.0
H539 H 0.34645 0.24989 0.3062 0.0
H540 H 0.44908 0.17533 0.30703 0.0
H541 H 0.45148 0.1875 0.241 0.0
C542 C 0.40068 0.23178 0.19765 0.0
C543 C 0.37226 0.25818 0.17916 0.0
C544 C 0.40019 0.22573 0.23555 0.0
C545 C 0.34346 0.27779 0.19878 0.0
C546 C 0.34256 0.27044 0.236 0.0
C547 C 0.36941 0.23622 0.29197 0.0
C548 C 0.39742 0.21098 0.31123 0.0
C549 C 0.37065 0.24432 0.25458 0.0
C550 C 0.42718 0.19487 0.29261 0.0
C551 C 0.42848 0.20154 0.25493 0.0
H552 H 0.14602 0.83224 0.31105 0.0
H553 H 0.15263 0.59465 0.32179 0.0
H554 H 0.14802 0.58101 0.2564 0.0
H555 H 0.14811 0.63768 0.19595 0.0
H556 H 0.13996 0.87524 0.18554 0.0
H557 H 0.1387 0.88771 0.25103 0.0
C558 C 0.14596 0.77742 0.29909 0.0
C559 C 0.15007 0.71459 0.32114 0.0
C560 C 0.1432 0.77002 0.26154 0.0
C561 C 0.14951 0.64386 0.30539 0.0
C562 C 0.14706 0.63607 0.26798 0.0
C563 C 0.14553 0.69209 0.20803 0.0
C564 C 0.14455 0.75551 0.1859 0.0
C565 C 0.1448 0.69889 0.24575 0.0
C566 C 0.1408 0.82553 0.20191 0.0
C567 C 0.14028 0.83277 0.23939 0.0
H568 H 0.63372 0.65745 0.80489 0.0
H569 H 0.63463 0.89529 0.81672 0.0
H570 H 0.63228 0.91005 0.7513 0.0
H571 H 0.63753 0.85511 0.69098 0.0
H572 H 0.63597 0.61727 0.67917 0.0
H573 H 0.63055 0.60274 0.74439 0.0
C574 C 0.63277 0.71251 0.79313 0.0
C575 C 0.63485 0.77518 0.8155 0.0
C576 C 0.63161 0.72055 0.75555 0.0
C577 C 0.63313 0.84618 0.80005 0.0
C578 C 0.63202 0.85466 0.76263 0.0
C579 C 0.63542 0.80014 0.70268 0.0
C580 C 0.63767 0.73732 0.68042 0.0
C581 C 0.63242 0.79222 0.74015 0.0
C582 C 0.6344 0.66647 0.69576 0.0
C583 C 0.6315 0.65812 0.73307 0.0
H584 H 0.88277 0.15433 0.69137 0.0
H585 H 0.88596 0.39193 0.67839 0.0
H586 H 0.88789 0.40737 0.7438 0.0
H587 H 0.88295 0.35361 0.80453 0.0
H588 H 0.88115 0.11598 0.81755 0.0
H589 H 0.88476 0.10026 0.75223 0.0
C590 C 0.88434 0.20948 0.70287 0.0
C591 C 0.88381 0.27195 0.6801 0.0
C592 C 0.88548 0.21791 0.74046 0.0
C593 C 0.88631 0.34297 0.69531 0.0
C594 C 0.88722 0.35184 0.73273 0.0
C595 C 0.8838 0.29836 0.79307 0.0
C596 C 0.88137 0.23603 0.81579 0.0
C597 C 0.88594 0.28977 0.75554 0.0
C598 C 0.88296 0.16482 0.80065 0.0
C599 C 0.88484 0.15582 0.76329 0.0
H600 H 0.44955 0.54169 0.02428 0.0
H601 H 0.48638 0.33606 0.98013 0.0
H602 H 0.54202 0.39023 0.9731 0.0
H603 H 0.58044 0.49588 0.97895 0.0
H604 H 0.54403 0.70203 0.0228 0.0
H605 H 0.48834 0.64761 0.03059 0.0
C606 C 0.4697 0.50876 0.01302 0.0
C607 C 0.46356 0.43484 0.00266 0.0
C608 C 0.5019 0.54022 0.00912 0.0
C609 C 0.49018 0.39305 0.98831 0.0
C610 C 0.52213 0.42397 0.9843 0.0
C611 C 0.56042 0.52889 0.99045 0.0
C612 C 0.5666 0.60299 0.00038 0.0
C613 C 0.52832 0.49744 0.99463 0.0
C614 C 0.54014 0.64485 0.01499 0.0
C615 C 0.50819 0.61379 0.01939 0.0
H616 H 0.08173 0.48804 0.01946 0.0
H617 H 0.04709 0.69691 0.97665 0.0
H618 H 0.99147 0.64391 0.96668 0.0
H619 H 0.95224 0.53853 0.97066 0.0
H620 H 0.98701 0.33014 0.014 0.0
H621 H 0.04271 0.38279 0.02319 0.0
C622 C 0.06211 0.52195 0.00774 0.0
C623 C 0.06876 0.59641 -0.00126 0.0
C624 C 0.03 0.49128 0.0023 0.0
C625 C 0.04282 0.63946 0.98382 0.0
C626 C 1.01091 0.6092 0.97814 0.0
C627 C 0.97196 0.50462 0.9822 0.0
C628 C 0.96523 0.43042 0.9917 0.0
C629 C 1.00413 0.53525 0.98743 0.0
C630 C 0.99128 0.38741 0.00647 0.0
C631 C 0.02325 0.41745 0.01172 0.0
H632 H 0.58475 0.01549 0.51979 0.0
H633 H 0.54869 0.81073 0.47377 0.0
H634 H 0.49302 0.86482 0.4662 0.0
H635 H 0.45428 0.97009 0.47286 0.0
H636 H 0.49052 0.17471 0.51891 0.0
H637 H 0.54614 0.12062 0.52636 0.0
C638 C 0.56481 0.98274 0.50787 0.0
C639 C 0.57109 0.90913 0.49723 0.0
C640 C 0.53269 0.01401 0.50381 0.0
C641 C 0.54473 0.86754 0.48212 0.0
C642 C 0.51279 0.89839 0.47785 0.0
C643 C 0.47427 0.00279 0.48473 0.0
C644 C 0.46803 0.07639 0.49543 0.0
C645 C 0.50641 0.97148 0.48873 0.0
C646 C 0.49444 0.11793 0.51048 0.0
C647 C 0.52636 0.08708 0.51469 0.0
H648 H 0.95499 0.97291 0.52615 0.0
H649 H 0.99028 0.17809 0.47955 0.0
H650 H 0.04566 0.124 0.47049 0.0
H651 H 0.08438 0.01849 0.47569 0.0
H652 H 0.04914 0.81334 0.52237 0.0
H653 H 0.99377 0.86745 0.53146 0.0
C654 C 0.97474 0.0058 0.5139 0.0
C655 C 0.96828 0.07952 0.5035 0.0
C656 C 1.00673 0.97441 0.50885 0.0
C657 C 0.99436 0.12122 0.48783 0.0
C658 C 0.02615 0.09034 0.48264 0.0
C659 C 0.06466 0.98561 0.48798 0.0
C660 C 0.07112 0.91188 0.49838 0.0
C661 C 0.03268 0.01702 0.49308 0.0
C662 C 0.04506 0.87022 0.51411 0.0
C663 C 1.01327 0.90111 0.51931 0.0
H664 H 0.19787 0.53025 0.97686 0.0
H665 H 0.26827 0.70885 0.99088 0.0
H666 H 0.31481 0.62631 0.97625 0.0
H667 H 0.3354 0.49825 0.97695 0.0
H668 H 0.26491 0.31786 0.9714 0.0
H669 H 0.21866 0.405 0.96395 0.0
C670 C 0.22325 0.55162 0.9747 0.0
C671 C 0.22983 0.62517 0.98459 0.0
C672 C 0.25 0.50264 0.96845 0.0
C673 C 0.2628 0.65235 0.9829 0.0
C674 C 0.28941 0.60494 0.97494 0.0
C675 C 0.31015 0.47827 0.97186 0.0
C676 C 0.30341 0.40216 0.97459 0.0
C677 C 0.28347 0.52902 0.97008 0.0
C678 C 0.27055 0.37645 0.96902 0.0
C679 C 0.24405 0.42635 0.96538 0.0
H680 H 0.33832 0.01644 0.5188 0.0
H681 H 0.26871 0.19747 0.50978 0.0
H682 H 0.2217 0.11347 0.52074 0.0
H683 H 0.20059 0.98588 0.51616 0.0
H684 H 0.27037 0.80427 0.51695 0.0
H685 H 0.31699 0.88986 0.52689 0.0
C686 C 0.313 0.03777 0.52137 0.0
C687 C 0.3068 0.11267 0.51385 0.0
C688 C 0.286 0.98826 0.5254 0.0
C689 C 0.27389 0.1399 0.51599 0.0
C690 C 0.247 0.09168 0.52172 0.0
C691 C 0.2258 0.96513 0.52058 0.0
C692 C 0.23222 0.88931 0.51626 0.0
C693 C 0.25264 0.01519 0.52412 0.0
C694 C 0.26501 0.86261 0.52073 0.0
C695 C 0.29168 0.91164 0.52594 0.0
H696 H 0.69725 0.53311 0.01717 0.0
H697 H 0.76492 0.71716 0.00422 0.0
H698 H 0.81297 0.63597 0.01445 0.0
H699 H 0.83507 0.50921 0.01061 0.0
H700 H 0.76704 0.32425 0.01625 0.0
H701 H 0.71995 0.40804 0.02649 0.0
C702 C 0.72244 0.55576 0.01872 0.0
C703 C 0.72775 0.63068 0.01042 0.0
C704 C 0.74997 0.50785 0.02261 0.0
C705 C 0.76045 0.65961 0.01115 0.0
C706 C 0.78791 0.61299 0.01649 0.0
C707 C 0.81021 0.48746 0.01621 0.0
C708 C 0.80436 0.41111 0.0131 0.0
C709 C 0.78303 0.53636 0.01998 0.0
C710 C 0.77198 0.38304 0.01911 0.0
C711 C 0.74501 0.43102 0.02443 0.0
H712 H 0.70139 0.97731 0.47853 0.0
H713 H 0.7698 0.79551 0.4929 0.0
H714 H 0.81751 0.87749 0.48169 0.0
H715 H 0.83913 0.0048 0.48428 0.0
H716 H 0.77041 0.18787 0.47781 0.0
H717 H 0.7236 0.10264 0.4682 0.0
C718 C 0.72666 0.95526 0.47711 0.0
C719 C 0.7323 0.88082 0.48608 0.0
C720 C 0.754 0.00371 0.4727 0.0
C721 C 0.76509 0.85269 0.48549 0.0
C722 C 0.79235 0.89977 0.47956 0.0
C723 C 0.81418 0.02579 0.47863 0.0
C724 C 0.80805 0.10204 0.48135 0.0
C725 C 0.78717 0.97611 0.47539 0.0
C726 C 0.77556 0.12915 0.47525 0.0
C727 C 0.74875 0.08035 0.47032 0.0
loop_
_geom_bond_atom_site_label_1
_geom_bond_atom_site_label_2
_geom_bond_distance
_geom_bond_site_symmetry_2
_ccdc_geom_bond_type
Co0 O2 2.143 . S
Co0 O8 2.074 . S
Co0 O11 2.093 . S
Co0 O24 2.097 . S
Co0 N41 2.151 . S
Co0 N49 2.214 . S
Co1 O2 2.160 . S
Co1 O7 2.058 1_554 S
Co1 O17 2.057 1_554 S
Co1 O32 2.037 . S
Co1 N36 2.145 1_554 S
Co1 N57 2.257 . S
O2 Co0 2.143 . S
O2 Co1 2.160 . S
C3 O4 1.278 . S
C3 O11 1.224 . S
O4 C3 1.278 . S
C5 O6 1.245 . S
C5 O17 1.232 1_554 S
O6 C5 1.245 . S
O7 Co1 2.058 1_556 S
O7 C33 1.269 1_556 S
O8 Co0 2.074 . S
O8 C33 1.257 . S
H9 C34 0.930 . S
H10 C40 0.930 . S
O11 Co0 2.093 . S
O11 C3 1.224 . S
H12 C44 0.929 . S
H13 C46 0.930 . S
H14 C47 0.930 . S
H15 C45 0.929 . S
H16 C48 0.928 . S
O17 Co1 2.057 1_556 S
O17 C5 1.232 1_556 S
H18 C37 0.929 . S
H19 C38 0.929 . S
H20 C50 0.931 . S
H21 C42 0.929 . S
H22 C51 0.930 . S
H23 C43 0.931 . S
O24 Co0 2.097 . S
O24 C52 1.214 . S
H25 C53 0.929 . S
H26 C54 0.929 . S
H27 C55 0.930 1_566 S
H28 C56 0.929 1_565 S
H29 C58 0.930 . S
H30 C35 0.930 . S
H31 C39 0.930 . S
O32 Co1 2.037 . S
O32 C52 1.234 . S
C33 O7 1.269 1_554 S
C33 O8 1.257 . S
C34 H9 0.930 . S
C34 C37 1.388 . S
C34 C39 1.418 . S
C35 H30 0.930 . S
C35 C38 1.404 . S
C35 C39 1.353 . S
N36 Co1 2.145 1_556 S
N36 C37 1.397 . S
N36 C38 1.334 . S
C37 H18 0.929 . S
C37 C34 1.388 . S
C37 N36 1.397 . S
C38 H19 0.929 . S
C38 C35 1.404 . S
C38 N36 1.334 . S
C39 H31 0.930 . S
C39 C34 1.418 . S
C39 C35 1.353 . S
C40 H10 0.930 . S
C40 N41 1.330 . S
C40 C42 1.446 . S
N41 Co0 2.151 . S
N41 C40 1.330 . S
N41 C45 1.418 . S
C42 H21 0.929 . S
C42 C40 1.446 . S
C42 C43 1.332 . S
C43 H23 0.931 . S
C43 C42 1.332 . S
C43 C44 1.267 . S
C44 H12 0.929 . S
C44 C43 1.267 . S
C44 C45 1.251 . S
C45 H15 0.929 . S
C45 N41 1.418 . S
C45 C44 1.251 . S
C46 H13 0.930 . S
C46 C48 1.406 . S
C46 C51 1.261 . S
C47 H14 0.930 . S
C47 N49 1.325 . S
C47 C50 1.357 . S
C48 H16 0.928 . S
C48 C46 1.406 . S
C48 N49 1.261 . S
N49 Co0 2.214 . S
N49 C47 1.325 . S
N49 C48 1.261 . S
C50 H20 0.931 . S
C50 C47 1.357 . S
C50 C51 1.312 . S
C51 H22 0.930 . S
C51 C46 1.261 . S
C51 C50 1.312 . S
C52 O24 1.214 . S
C52 O32 1.234 . S
C53 H25 0.929 . S
C53 C56 1.391 . S
C53 C58 1.391 . S
C54 H26 0.929 . S
C54 C55 1.390 1_556 S
C54 N57 1.391 1_556 S
C55 H27 0.930 1_544 S
C55 C54 1.390 1_554 S
C55 C56 1.392 . S
C56 H28 0.929 1_545 S
C56 C53 1.391 . S
C56 C55 1.392 . S
N57 Co1 2.257 . S
N57 C54 1.391 1_554 S
N57 C58 1.388 . S
C58 H29 0.930 . S
C58 C53 1.391 . S
C58 N57 1.388 . S
Co59 O61 2.143 . S
Co59 O67 2.074 . S
Co59 O70 2.093 . S
Co59 O83 2.097 . S
Co59 N100 2.151 . S
Co59 N108 2.214 . S
Co60 O61 2.160 . S
Co60 O66 2.058 1_554 S
Co60 O76 2.057 1_554 S
Co60 O91 2.037 . S
Co60 N95 2.145 1_554 S
Co60 N116 2.257 . S
O61 Co59 2.143 . S
O61 Co60 2.160 . S
C62 O63 1.278 . S
C62 O70 1.224 . S
O63 C62 1.278 . S
C64 O65 1.245 . S
C64 O76 1.232 1_554 S
O65 C64 1.245 . S
O66 Co60 2.058 1_556 S
O66 C92 1.269 1_556 S
O67 Co59 2.074 . S
O67 C92 1.257 . S
H68 C93 0.930 . S
H69 C99 0.930 . S
O70 Co59 2.093 . S
O70 C62 1.224 . S
H71 C103 0.929 . S
H72 C105 0.930 . S
H73 C106 0.930 . S
H74 C104 0.929 . S
H75 C107 0.928 . S
O76 Co60 2.057 1_556 S
O76 C64 1.232 1_556 S
H77 C96 0.929 . S
H78 C97 0.929 . S
H79 C109 0.931 . S
H80 C101 0.929 . S
H81 C110 0.930 . S
H82 C102 0.931 . S
O83 Co59 2.097 . S
O83 C111 1.214 . S
H84 C112 0.929 . S
H85 C113 0.929 . S
H86 C114 0.930 1_546 S
H87 C115 0.929 1_545 S
H88 C117 0.930 . S
H89 C94 0.930 . S
H90 C98 0.930 . S
O91 Co60 2.037 . S
O91 C111 1.234 . S
C92 O66 1.269 1_554 S
C92 O67 1.257 . S
C93 H68 0.930 . S
C93 C96 1.388 . S
C93 C98 1.418 . S
C94 H89 0.930 . S
C94 C97 1.404 . S
C94 C98 1.353 . S
N95 Co60 2.145 1_556 S
N95 C96 1.397 . S
N95 C97 1.334 . S
C96 H77 0.929 . S
C96 C93 1.388 . S
C96 N95 1.397 . S
C97 H78 0.929 . S
C97 C94 1.404 . S
C97 N95 1.334 . S
C98 H90 0.930 . S
C98 C93 1.418 . S
C98 C94 1.353 . S
C99 H69 0.930 . S
C99 N100 1.330 . S
C99 C101 1.446 . S
N100 Co59 2.151 . S
N100 C99 1.330 . S
N100 C104 1.418 . S
C101 H80 0.929 . S
C101 C99 1.446 . S
C101 C102 1.332 . S
C102 H82 0.931 . S
C102 C101 1.332 . S
C102 C103 1.267 . S
C103 H71 0.929 . S
C103 C102 1.267 . S
C103 C104 1.251 . S
C104 H74 0.929 . S
C104 N100 1.418 . S
C104 C103 1.251 . S
C105 H72 0.930 . S
C105 C107 1.406 . S
C105 C110 1.261 . S
C106 H73 0.930 . S
C106 N108 1.325 . S
C106 C109 1.357 . S
C107 H75 0.928 . S
C107 C105 1.406 . S
C107 N108 1.261 . S
N108 Co59 2.214 . S
N108 C106 1.325 . S
N108 C107 1.261 . S
C109 H79 0.931 . S
C109 C106 1.357 . S
C109 C110 1.312 . S
C110 H81 0.930 . S
C110 C105 1.261 . S
C110 C109 1.312 . S
C111 O83 1.214 . S
C111 O91 1.234 . S
C112 H84 0.929 . S
C112 C115 1.391 . S
C112 C117 1.391 . S
C113 H85 0.929 . S
C113 C114 1.390 1_556 S
C113 N116 1.391 1_556 S
C114 H86 0.930 1_564 S
C114 C113 1.390 1_554 S
C114 C115 1.392 . S
C115 H87 0.929 1_565 S
C115 C112 1.391 . S
C115 C114 1.392 . S
N116 Co60 2.257 . S
N116 C113 1.391 1_554 S
N116 C117 1.388 . S
C117 H88 0.930 . S
C117 C112 1.391 . S
C117 N116 1.388 . S
Co118 O120 2.143 . S
Co118 O126 2.074 . S
Co118 O129 2.093 . S
Co118 O142 2.097 . S
Co118 N159 2.151 . S
Co118 N167 2.214 . S
Co119 O120 2.160 . S
Co119 O125 2.058 . S
Co119 O135 2.057 . S
Co119 O150 2.037 . S
Co119 N154 2.145 . S
Co119 N175 2.257 . S
O120 Co118 2.143 . S
O120 Co119 2.160 . S
C121 O122 1.278 . S
C121 O129 1.224 . S
O122 C121 1.278 . S
C123 O124 1.245 . S
C123 O135 1.232 . S
O124 C123 1.245 . S
O125 Co119 2.058 . S
O125 C151 1.269 . S
O126 Co118 2.074 . S
O126 C151 1.257 . S
H127 C152 0.930 . S
H128 C158 0.930 . S
O129 Co118 2.093 . S
O129 C121 1.224 . S
H130 C162 0.929 1_565 S
H131 C164 0.930 . S
H132 C165 0.930 . S
H133 C163 0.929 . S
H134 C166 0.928 . S
O135 Co119 2.057 . S
O135 C123 1.232 . S
H136 C155 0.929 . S
H137 C156 0.929 . S
H138 C168 0.931 . S
H139 C160 0.929 . S
H140 C169 0.930 . S
H141 C161 0.931 . S
O142 Co118 2.097 . S
O142 C170 1.214 . S
H143 C171 0.929 . S
H144 C172 0.929 . S
H145 C173 0.930 . S
H146 C174 0.929 . S
H147 C176 0.930 . S
H148 C153 0.930 . S
H149 C157 0.930 . S
O150 Co119 2.037 . S
O150 C170 1.234 . S
C151 O125 1.269 . S
C151 O126 1.257 . S
C152 H127 0.930 . S
C152 C155 1.388 . S
C152 C157 1.418 . S
C153 H148 0.930 . S
C153 C156 1.404 . S
C153 C157 1.353 . S
N154 Co119 2.145 . S
N154 C155 1.397 . S
N154 C156 1.334 . S
C155 H136 0.929 . S
C155 C152 1.388 . S
C155 N154 1.397 . S
C156 H137 0.929 . S
C156 C153 1.404 . S
C156 N154 1.334 . S
C157 H149 0.930 . S
C157 C152 1.418 . S
C157 C153 1.353 . S
C158 H128 0.930 . S
C158 N159 1.330 . S
C158 C160 1.446 . S
N159 Co118 2.151 . S
N159 C158 1.330 . S
N159 C163 1.418 . S
C160 H139 0.929 . S
C160 C158 1.446 . S
C160 C161 1.332 1_545 S
C161 H141 0.931 . S
C161 C160 1.332 1_565 S
C161 C162 1.267 1_565 S
C162 H130 0.929 1_545 S
C162 C161 1.267 1_545 S
C162 C163 1.251 . S
C163 H133 0.929 . S
C163 N159 1.418 . S
C163 C162 1.251 . S
C164 H131 0.930 . S
C164 C166 1.406 . S
C164 C169 1.261 . S
C165 H132 0.930 . S
C165 N167 1.325 . S
C165 C168 1.357 . S
C166 H134 0.928 . S
C166 C164 1.406 . S
C166 N167 1.261 . S
N167 Co118 2.214 . S
N167 C165 1.325 . S
N167 C166 1.261 . S
C168 H138 0.931 . S
C168 C165 1.357 . S
C168 C169 1.312 . S
C169 H140 0.930 . S
C169 C164 1.261 . S
C169 C168 1.312 . S
C170 O142 1.214 . S
C170 O150 1.234 . S
C171 H143 0.929 . S
C171 C174 1.391 . S
C171 C176 1.391 . S
C172 H144 0.929 . S
C172 C173 1.390 . S
C172 N175 1.391 . S
C173 H145 0.930 . S
C173 C172 1.390 . S
C173 C174 1.392 . S
C174 H146 0.929 . S
C174 C171 1.391 . S
C174 C173 1.392 . S
N175 Co119 2.257 . S
N175 C172 1.391 . S
N175 C176 1.388 . S
C176 H147 0.930 . S
C176 C171 1.391 . S
C176 N175 1.388 . S
Co177 O179 2.143 . S
Co177 O185 2.074 . S
Co177 O188 2.093 . S
Co177 O201 2.097 . S
Co177 N218 2.151 . S
Co177 N226 2.214 . S
Co178 O179 2.160 . S
Co178 O184 2.058 . S
Co178 O194 2.057 . S
Co178 O209 2.037 . S
Co178 N213 2.145 . S
Co178 N234 2.257 . S
O179 Co177 2.143 . S
O179 Co178 2.160 . S
C180 O181 1.278 . S
C180 O188 1.224 . S
O181 C180 1.278 . S
C182 O183 1.245 . S
C182 O194 1.232 . S
O183 C182 1.245 . S
O184 Co178 2.058 . S
O184 C210 1.269 . S
O185 Co177 2.074 . S
O185 C210 1.257 . S
H186 C211 0.930 . S
H187 C217 0.930 . S
O188 Co177 2.093 . S
O188 C180 1.224 . S
H189 C221 0.929 1_545 S
H190 C223 0.930 . S
H191 C224 0.930 . S
H192 C222 0.929 . S
H193 C225 0.928 . S
O194 Co178 2.057 . S
O194 C182 1.232 . S
H195 C214 0.929 . S
H196 C215 0.929 . S
H197 C227 0.931 . S
H198 C219 0.929 . S
H199 C228 0.930 . S
H200 C220 0.931 . S
O201 Co177 2.097 . S
O201 C229 1.214 . S
H202 C230 0.929 . S
H203 C231 0.929 . S
H204 C232 0.930 . S
H205 C233 0.929 . S
H206 C235 0.930 . S
H207 C212 0.930 . S
H208 C216 0.930 . S
O209 Co178 2.037 . S
O209 C229 1.234 . S
C210 O184 1.269 . S
C210 O185 1.257 . S
C211 H186 0.930 . S
C211 C214 1.388 . S
C211 C216 1.418 . S
C212 H207 0.930 . S
C212 C215 1.404 . S
C212 C216 1.353 . S
N213 Co178 2.145 . S
N213 C214 1.397 . S
N213 C215 1.334 . S
C214 H195 0.929 . S
C214 C211 1.388 . S
C214 N213 1.397 . S
C215 H196 0.929 . S
C215 C212 1.404 . S
C215 N213 1.334 . S
C216 H208 0.930 . S
C216 C211 1.418 . S
C216 C212 1.353 . S
C217 H187 0.930 . S
C217 N218 1.330 . S
C217 C219 1.446 . S
N218 Co177 2.151 . S
N218 C217 1.330 . S
N218 C222 1.418 . S
C219 H198 0.929 . S
C219 C217 1.446 . S
C219 C220 1.332 1_565 S
C220 H200 0.931 . S
C220 C219 1.332 1_545 S
C220 C221 1.267 1_545 S
C221 H189 0.929 1_565 S
C221 C220 1.267 1_565 S
C221 C222 1.251 . S
C222 H192 0.929 . S
C222 N218 1.418 . S
C222 C221 1.251 . S
C223 H190 0.930 . S
C223 C225 1.406 . S
C223 C228 1.261 . S
C224 H191 0.930 . S
C224 N226 1.325 . S
C224 C227 1.357 . S
C225 H193 0.928 . S
C225 C223 1.406 . S
C225 N226 1.261 . S
N226 Co177 2.214 . S
N226 C224 1.325 . S
N226 C225 1.261 . S
C227 H197 0.931 . S
C227 C224 1.357 . S
C227 C228 1.312 . S
C228 H199 0.930 . S
C228 C223 1.261 . S
C228 C227 1.312 . S
C229 O201 1.214 . S
C229 O209 1.234 . S
C230 H202 0.929 . S
C230 C233 1.391 . S
C230 C235 1.391 . S
C231 H203 0.929 . S
C231 C232 1.390 . S
C231 N234 1.391 . S
C232 H204 0.930 . S
C232 C231 1.390 . S
C232 C233 1.392 . S
C233 H205 0.929 . S
C233 C230 1.391 . S
C233 C232 1.392 . S
N234 Co178 2.257 . S
N234 C231 1.391 . S
N234 C235 1.388 . S
C235 H206 0.930 . S
C235 C230 1.391 . S
C235 N234 1.388 . S
Co236 O238 2.143 . S
Co236 O244 2.074 . S
Co236 O247 2.093 . S
Co236 O260 2.097 . S
Co236 N277 2.151 . S
Co236 N285 2.214 . S
Co237 O238 2.160 . S
Co237 O243 2.058 1_556 S
Co237 O253 2.057 1_556 S
Co237 O268 2.037 . S
Co237 N272 2.145 1_556 S
Co237 N293 2.257 . S
O238 Co236 2.143 . S
O238 Co237 2.160 . S
C239 O240 1.278 . S
C239 O247 1.224 . S
O240 C239 1.278 . S
C241 O242 1.245 . S
C241 O253 1.232 1_556 S
O242 C241 1.245 . S
O243 Co237 2.058 1_554 S
O243 C269 1.269 1_554 S
O244 Co236 2.074 . S
O244 C269 1.257 . S
H245 C270 0.930 . S
H246 C276 0.930 . S
O247 Co236 2.093 . S
O247 C239 1.224 . S
H248 C280 0.929 . S
H249 C282 0.930 . S
H250 C283 0.930 . S
H251 C281 0.929 . S
H252 C284 0.928 . S
O253 Co237 2.057 1_554 S
O253 C241 1.232 1_554 S
H254 C273 0.929 . S
H255 C274 0.929 . S
H256 C286 0.931 . S
H257 C278 0.929 . S
H258 C287 0.930 . S
H259 C279 0.931 . S
O260 Co236 2.097 . S
O260 C288 1.214 . S
H261 C289 0.929 . S
H262 C290 0.929 . S
H263 C291 0.930 1_544 S
H264 C292 0.929 1_545 S
H265 C294 0.930 . S
H266 C271 0.930 . S
H267 C275 0.930 . S
O268 Co237 2.037 . S
O268 C288 1.234 . S
C269 O243 1.269 1_556 S
C269 O244 1.257 . S
C270 H245 0.930 . S
C270 C273 1.388 . S
C270 C275 1.418 . S
C271 H266 0.930 . S
C271 C274 1.404 . S
C271 C275 1.353 . S
N272 Co237 2.145 1_554 S
N272 C273 1.397 . S
N272 C274 1.334 . S
C273 H254 0.929 . S
C273 C270 1.388 . S
C273 N272 1.397 . S
C274 H255 0.929 . S
C274 C271 1.404 . S
C274 N272 1.334 . S
C275 H267 0.930 . S
C275 C270 1.418 . S
C275 C271 1.353 . S
C276 H246 0.930 . S
C276 N277 1.330 . S
C276 C278 1.446 . S
N277 Co236 2.151 . S
N277 C276 1.330 . S
N277 C281 1.418 . S
C278 H257 0.929 . S
C278 C276 1.446 . S
C278 C279 1.332 . S
C279 H259 0.931 . S
C279 C278 1.332 . S
C279 C280 1.267 . S
C280 H248 0.929 . S
C280 C279 1.267 . S
C280 C281 1.251 . S
C281 H251 0.929 . S
C281 N277 1.418 . S
C281 C280 1.251 . S
C282 H249 0.930 . S
C282 C284 1.406 . S
C282 C287 1.261 . S
C283 H250 0.930 . S
C283 N285 1.325 . S
C283 C286 1.357 . S
C284 H252 0.928 . S
C284 C282 1.406 . S
C284 N285 1.261 . S
N285 Co236 2.214 . S
N285 C283 1.325 . S
N285 C284 1.261 . S
C286 H256 0.931 . S
C286 C283 1.357 . S
C286 C287 1.312 . S
C287 H258 0.930 . S
C287 C282 1.261 . S
C287 C286 1.312 . S
C288 O260 1.214 . S
C288 O268 1.234 . S
C289 H261 0.929 . S
C289 C292 1.391 . S
C289 C294 1.391 . S
C290 H262 0.929 . S
C290 C291 1.390 1_554 S
C290 N293 1.391 1_554 S
C291 H263 0.930 1_566 S
C291 C290 1.390 1_556 S
C291 C292 1.392 . S
C292 H264 0.929 1_565 S
C292 C289 1.391 . S
C292 C291 1.392 . S
N293 Co237 2.257 . S
N293 C290 1.391 1_556 S
N293 C294 1.388 . S
C294 H265 0.930 . S
C294 C289 1.391 . S
C294 N293 1.388 . S
Co295 O297 2.143 . S
Co295 O303 2.074 . S
Co295 O306 2.093 . S
Co295 O319 2.097 . S
Co295 N336 2.151 . S
Co295 N344 2.214 . S
Co296 O297 2.160 . S
Co296 O302 2.058 1_556 S
Co296 O312 2.057 1_556 S
Co296 O327 2.037 . S
Co296 N331 2.145 1_556 S
Co296 N352 2.257 . S
O297 Co295 2.143 . S
O297 Co296 2.160 . S
C298 O299 1.278 . S
C298 O306 1.224 . S
O299 C298 1.278 . S
C300 O301 1.245 . S
C300 O312 1.232 1_556 S
O301 C300 1.245 . S
O302 Co296 2.058 1_554 S
O302 C328 1.269 1_554 S
O303 Co295 2.074 . S
O303 C328 1.257 . S
H304 C329 0.930 . S
H305 C335 0.930 . S
O306 Co295 2.093 . S
O306 C298 1.224 . S
H307 C339 0.929 . S
H308 C341 0.930 . S
H309 C342 0.930 . S
H310 C340 0.929 . S
H311 C343 0.928 . S
O312 Co296 2.057 1_554 S
O312 C300 1.232 1_554 S
H313 C332 0.929 . S
H314 C333 0.929 . S
H315 C345 0.931 . S
H316 C337 0.929 . S
H317 C346 0.930 . S
H318 C338 0.931 . S
O319 Co295 2.097 . S
O319 C347 1.214 . S
H320 C348 0.929 . S
H321 C349 0.929 . S
H322 C350 0.930 1_564 S
H323 C351 0.929 1_565 S
H324 C353 0.930 . S
H325 C330 0.930 . S
H326 C334 0.930 . S
O327 Co296 2.037 . S
O327 C347 1.234 . S
C328 O302 1.269 1_556 S
C328 O303 1.257 . S
C329 H304 0.930 . S
C329 C332 1.388 . S
C329 C334 1.418 . S
C330 H325 0.930 . S
C330 C333 1.404 . S
C330 C334 1.353 . S
N331 Co296 2.145 1_554 S
N331 C332 1.397 . S
N331 C333 1.334 . S
C332 H313 0.929 . S
C332 C329 1.388 . S
C332 N331 1.397 . S
C333 H314 0.929 . S
C333 C330 1.404 . S
C333 N331 1.334 . S
C334 H326 0.930 . S
C334 C329 1.418 . S
C334 C330 1.353 . S
C335 H305 0.930 . S
C335 N336 1.330 . S
C335 C337 1.446 . S
N336 Co295 2.151 . S
N336 C335 1.330 . S
N336 C340 1.418 . S
C337 H316 0.929 . S
C337 C335 1.446 . S
C337 C338 1.332 . S
C338 H318 0.931 . S
C338 C337 1.332 . S
C338 C339 1.267 . S
C339 H307 0.929 . S
C339 C338 1.267 . S
C339 C340 1.251 . S
C340 H310 0.929 . S
C340 N336 1.418 . S
C340 C339 1.251 . S
C341 H308 0.930 . S
C341 C343 1.406 . S
C341 C346 1.261 . S
C342 H309 0.930 . S
C342 N344 1.325 . S
C342 C345 1.357 . S
C343 H311 0.928 . S
C343 C341 1.406 . S
C343 N344 1.261 . S
N344 Co295 2.214 . S
N344 C342 1.325 . S
N344 C343 1.261 . S
C345 H315 0.931 . S
C345 C342 1.357 . S
C345 C346 1.312 . S
C346 H317 0.930 . S
C346 C341 1.261 . S
C346 C345 1.312 . S
C347 O319 1.214 . S
C347 O327 1.234 . S
C348 H320 0.929 . S
C348 C351 1.391 . S
C348 C353 1.391 . S
C349 H321 0.929 . S
C349 C350 1.390 1_554 S
C349 N352 1.391 1_554 S
C350 H322 0.930 1_546 S
C350 C349 1.390 1_556 S
C350 C351 1.392 . S
C351 H323 0.929 1_545 S
C351 C348 1.391 . S
C351 C350 1.392 . S
N352 Co296 2.257 . S
N352 C349 1.391 1_556 S
N352 C353 1.388 . S
C353 H324 0.930 . S
C353 C348 1.391 . S
C353 N352 1.388 . S
Co354 O356 2.143 . S
Co354 O362 2.074 . S
Co354 O365 2.093 . S
Co354 O378 2.097 . S
Co354 N395 2.151 . S
Co354 N403 2.214 . S
Co355 O356 2.160 . S
Co355 O361 2.058 . S
Co355 O371 2.057 . S
Co355 O386 2.037 . S
Co355 N390 2.145 . S
Co355 N411 2.257 . S
O356 Co354 2.143 . S
O356 Co355 2.160 . S
C357 O358 1.278 . S
C357 O365 1.224 . S
O358 C357 1.278 . S
C359 O360 1.245 . S
C359 O371 1.232 . S
O360 C359 1.245 . S
O361 Co355 2.058 . S
O361 C387 1.269 . S
O362 Co354 2.074 . S
O362 C387 1.257 . S
H363 C388 0.930 . S
H364 C394 0.930 . S
O365 Co354 2.093 . S
O365 C357 1.224 . S
H366 C398 0.929 1_545 S
H367 C400 0.930 . S
H368 C401 0.930 . S
H369 C399 0.929 . S
H370 C402 0.928 . S
O371 Co355 2.057 . S
O371 C359 1.232 . S
H372 C391 0.929 . S
H373 C392 0.929 . S
H374 C404 0.931 . S
H375 C396 0.929 . S
H376 C405 0.930 . S
H377 C397 0.931 . S
O378 Co354 2.097 . S
O378 C406 1.214 . S
H379 C407 0.929 . S
H380 C408 0.929 . S
H381 C409 0.930 . S
H382 C410 0.929 . S
H383 C412 0.930 . S
H384 C389 0.930 . S
H385 C393 0.930 . S
O386 Co355 2.037 . S
O386 C406 1.234 . S
C387 O361 1.269 . S
C387 O362 1.257 . S
C388 H363 0.930 . S
C388 C391 1.388 . S
C388 C393 1.418 . S
C389 H384 0.930 . S
C389 C392 1.404 . S
C389 C393 1.353 . S
N390 Co355 2.145 . S
N390 C391 1.397 . S
N390 C392 1.334 . S
C391 H372 0.929 . S
C391 C388 1.388 . S
C391 N390 1.397 . S
C392 H373 0.929 . S
C392 C389 1.404 . S
C392 N390 1.334 . S
C393 H385 0.930 . S
C393 C388 1.418 . S
C393 C389 1.353 . S
C394 H364 0.930 . S
C394 N395 1.330 . S
C394 C396 1.446 . S
N395 Co354 2.151 . S
N395 C394 1.330 . S
N395 C399 1.418 . S
C396 H375 0.929 . S
C396 C394 1.446 . S
C396 C397 1.332 1_565 S
C397 H377 0.931 . S
C397 C396 1.332 1_545 S
C397 C398 1.267 1_545 S
C398 H366 0.929 1_565 S
C398 C397 1.267 1_565 S
C398 C399 1.251 . S
C399 H369 0.929 . S
C399 N395 1.418 . S
C399 C398 1.251 . S
C400 H367 0.930 . S
C400 C402 1.406 . S
C400 C405 1.261 . S
C401 H368 0.930 . S
C401 N403 1.325 . S
C401 C404 1.357 . S
C402 H370 0.928 . S
C402 C400 1.406 . S
C402 N403 1.261 . S
N403 Co354 2.214 . S
N403 C401 1.325 . S
N403 C402 1.261 . S
C404 H374 0.931 . S
C404 C401 1.357 . S
C404 C405 1.312 . S
C405 H376 0.930 . S
C405 C400 1.261 . S
C405 C404 1.312 . S
C406 O378 1.214 . S
C406 O386 1.234 . S
C407 H379 0.929 . S
C407 C410 1.391 . S
C407 C412 1.391 . S
C408 H380 0.929 . S
C408 C409 1.390 . S
C408 N411 1.391 . S
C409 H381 0.930 . S
C409 C408 1.390 . S
C409 C410 1.392 . S
C410 H382 0.929 . S
C410 C407 1.391 . S
C410 C409 1.392 . S
N411 Co355 2.257 . S
N411 C408 1.391 . S
N411 C412 1.388 . S
C412 H383 0.930 . S
C412 C407 1.391 . S
C412 N411 1.388 . S
Co413 O415 2.143 . S
Co413 O421 2.074 . S
Co413 O424 2.093 . S
Co413 O437 2.097 . S
Co413 N454 2.151 . S
Co413 N462 2.214 . S
Co414 O415 2.160 . S
Co414 O420 2.058 . S
Co414 O430 2.057 . S
Co414 O445 2.037 . S
Co414 N449 2.145 . S
Co414 N470 2.257 . S
O415 Co413 2.143 . S
O415 Co414 2.160 . S
C416 O417 1.278 . S
C416 O424 1.224 . S
O417 C416 1.278 . S
C418 O419 1.245 . S
C418 O430 1.232 . S
O419 C418 1.245 . S
O420 Co414 2.058 . S
O420 C446 1.269 . S
O421 Co413 2.074 . S
O421 C446 1.257 . S
H422 C447 0.930 . S
H423 C453 0.930 . S
O424 Co413 2.093 . S
O424 C416 1.224 . S
H425 C457 0.929 1_565 S
H426 C459 0.930 . S
H427 C460 0.930 . S
H428 C458 0.929 . S
H429 C461 0.928 . S
O430 Co414 2.057 . S
O430 C418 1.232 . S
H431 C450 0.929 . S
H432 C451 0.929 . S
H433 C463 0.931 . S
H434 C455 0.929 . S
H435 C464 0.930 . S
H436 C456 0.931 . S
O437 Co413 2.097 . S
O437 C465 1.214 . S
H438 C466 0.929 . S
H439 C467 0.929 . S
H440 C468 0.930 . S
H441 C469 0.929 . S
H442 C471 0.930 . S
H443 C448 0.930 . S
H444 C452 0.930 . S
O445 Co414 2.037 . S
O445 C465 1.234 . S
C446 O420 1.269 . S
C446 O421 1.257 . S
C447 H422 0.930 . S
C447 C450 1.388 . S
C447 C452 1.418 . S
C448 H443 0.930 . S
C448 C451 1.404 . S
C448 C452 1.353 . S
N449 Co414 2.145 . S
N449 C450 1.397 . S
N449 C451 1.334 . S
C450 H431 0.929 . S
C450 C447 1.388 . S
C450 N449 1.397 . S
C451 H432 0.929 . S
C451 C448 1.404 . S
C451 N449 1.334 . S
C452 H444 0.930 . S
C452 C447 1.418 . S
C452 C448 1.353 . S
C453 H423 0.930 . S
C453 N454 1.330 . S
C453 C455 1.446 . S
N454 Co413 2.151 . S
N454 C453 1.330 . S
N454 C458 1.418 . S
C455 H434 0.929 . S
C455 C453 1.446 . S
C455 C456 1.332 1_545 S
C456 H436 0.931 . S
C456 C455 1.332 1_565 S
C456 C457 1.267 1_565 S
C457 H425 0.929 1_545 S
C457 C456 1.267 1_545 S
C457 C458 1.251 . S
C458 H428 0.929 . S
C458 N454 1.418 . S
C458 C457 1.251 . S
C459 H426 0.930 . S
C459 C461 1.406 . S
C459 C464 1.261 . S
C460 H427 0.930 . S
C460 N462 1.325 . S
C460 C463 1.357 . S
C461 H429 0.928 . S
C461 C459 1.406 . S
C461 N462 1.261 . S
N462 Co413 2.214 . S
N462 C460 1.325 . S
N462 C461 1.261 . S
C463 H433 0.931 . S
C463 C460 1.357 . S
C463 C464 1.312 . S
C464 H435 0.930 . S
C464 C459 1.261 . S
C464 C463 1.312 . S
C465 O437 1.214 . S
C465 O445 1.234 . S
C466 H438 0.929 . S
C466 C469 1.391 . S
C466 C471 1.391 . S
C467 H439 0.929 . S
C467 C468 1.390 . S
C467 N470 1.391 . S
C468 H440 0.930 . S
C468 C467 1.390 . S
C468 C469 1.392 . S
C469 H441 0.929 . S
C469 C466 1.391 . S
C469 C468 1.392 . S
N470 Co414 2.257 . S
N470 C467 1.391 . S
N470 C471 1.388 . S
C471 H442 0.930 . S
C471 C466 1.391 . S
C471 N470 1.388 . S
H472 C478 0.930 . S
H473 C481 0.930 . S
H474 C482 0.930 . S
H475 C483 0.930 1_556 S
H476 C486 0.930 . S
H477 C487 0.930 . S
C478 H472 0.930 . S
C478 C479 1.355 . S
C478 C480 1.415 1_545 S
C479 C478 1.355 . S
C479 C481 1.419 1_554 S
C480 C478 1.415 1_565 S
C480 C485 1.425 1_565 S
C480 C487 1.409 . S
C481 H473 0.930 . S
C481 C479 1.419 1_556 S
C481 C482 1.362 . S
C482 H474 0.930 . S
C482 C481 1.362 . S
C482 C485 1.409 1_556 S
C483 H475 0.930 1_554 S
C483 C484 1.355 . S
C483 C485 1.415 1_565 S
C484 C483 1.355 . S
C484 C486 1.419 . S
C485 C480 1.425 1_545 S
C485 C482 1.409 1_554 S
C485 C483 1.415 1_545 S
C486 H476 0.930 . S
C486 C484 1.419 . S
C486 C487 1.362 . S
C487 H477 0.930 . S
C487 C480 1.409 . S
C487 C486 1.362 . S
H488 C494 0.930 . S
H489 C497 0.930 . S
H490 C498 0.930 . S
H491 C499 0.930 . S
H492 C502 0.930 . S
H493 C503 0.930 . S
C494 H488 0.930 . S
C494 C495 1.355 . S
C494 C496 1.415 . S
C495 C494 1.355 . S
C495 C497 1.419 . S
C496 C494 1.415 . S
C496 C501 1.425 . S
C496 C503 1.409 . S
C497 H489 0.930 . S
C497 C495 1.419 . S
C497 C498 1.362 . S
C498 H490 0.930 . S
C498 C497 1.362 . S
C498 C501 1.409 . S
C499 H491 0.930 . S
C499 C500 1.355 . S
C499 C501 1.415 . S
C500 C499 1.355 . S
C500 C502 1.419 . S
C501 C496 1.425 . S
C501 C498 1.409 . S
C501 C499 1.415 . S
C502 H492 0.930 . S
C502 C500 1.419 . S
C502 C503 1.362 . S
C503 H493 0.930 . S
C503 C496 1.409 . S
C503 C502 1.362 . S
H504 C510 0.930 1_545 S
H505 C513 0.930 . S
H506 C514 0.930 . S
H507 C515 0.930 1_565 S
H508 C518 0.930 . S
H509 C519 0.930 . S
C510 H504 0.930 1_565 S
C510 C511 1.355 . S
C510 C512 1.415 1_565 S
C511 C510 1.355 . S
C511 C513 1.419 . S
C512 C510 1.415 1_545 S
C512 C517 1.425 1_545 S
C512 C519 1.409 . S
C513 H505 0.930 . S
C513 C511 1.419 . S
C513 C514 1.362 . S
C514 H506 0.930 . S
C514 C513 1.362 . S
C514 C517 1.409 . S
C515 H507 0.930 1_545 S
C515 C516 1.355 . S
C515 C517 1.415 1_545 S
C516 C515 1.355 . S
C516 C518 1.419 . S
C517 C512 1.425 1_565 S
C517 C514 1.409 . S
C517 C515 1.415 1_565 S
C518 H508 0.930 . S
C518 C516 1.419 . S
C518 C519 1.362 . S
C519 H509 0.930 . S
C519 C512 1.409 . S
C519 C518 1.362 . S
H520 C526 0.930 . S
H521 C529 0.930 . S
H522 C530 0.930 . S
H523 C531 0.930 . S
H524 C534 0.930 . S
H525 C535 0.930 . S
C526 H520 0.930 . S
C526 C527 1.355 . S
C526 C528 1.415 . S
C527 C526 1.355 . S
C527 C529 1.419 . S
C528 C526 1.415 . S
C528 C533 1.425 . S
C528 C535 1.409 . S
C529 H521 0.930 . S
C529 C527 1.419 . S
C529 C530 1.362 . S
C530 H522 0.930 . S
C530 C529 1.362 . S
C530 C533 1.409 . S
C531 H523 0.930 . S
C531 C532 1.355 . S
C531 C533 1.415 . S
C532 C531 1.355 . S
C532 C534 1.419 . S
C533 C528 1.425 . S
C533 C530 1.409 . S
C533 C531 1.415 . S
C534 H524 0.930 . S
C534 C532 1.419 . S
C534 C535 1.362 . S
C535 H525 0.930 . S
C535 C528 1.409 . S
C535 C534 1.362 . S
H536 C542 0.930 . S
H537 C545 0.930 . S
H538 C546 0.930 . S
H539 C547 0.930 . S
H540 C550 0.930 . S
H541 C551 0.930 . S
C542 H536 0.930 . S
C542 C543 1.355 . S
C542 C544 1.415 . S
C543 C542 1.355 . S
C543 C545 1.419 . S
C544 C542 1.415 . S
C544 C549 1.425 . S
C544 C551 1.409 . S
C545 H537 0.930 . S
C545 C543 1.419 . S
C545 C546 1.362 . S
C546 H538 0.930 . S
C546 C545 1.362 . S
C546 C549 1.409 . S
C547 H539 0.930 . S
C547 C548 1.355 . S
C547 C549 1.415 . S
C548 C547 1.355 . S
C548 C550 1.419 . S
C549 C544 1.425 . S
C549 C546 1.409 . S
C549 C547 1.415 . S
C550 H540 0.930 . S
C550 C548 1.419 . S
C550 C551 1.362 . S
C551 H541 0.930 . S
C551 C544 1.409 . S
C551 C550 1.362 . S
H552 C558 0.930 . S
H553 C561 0.930 . S
H554 C562 0.930 . S
H555 C563 0.930 . S
H556 C566 0.930 . S
H557 C567 0.930 . S
C558 H552 0.930 . S
C558 C559 1.355 . S
C558 C560 1.415 . S
C559 C558 1.355 . S
C559 C561 1.419 . S
C560 C558 1.415 . S
C560 C565 1.425 . S
C560 C567 1.409 . S
C561 H553 0.930 . S
C561 C559 1.419 . S
C561 C562 1.362 . S
C562 H554 0.930 . S
C562 C561 1.362 . S
C562 C565 1.409 . S
C563 H555 0.930 . S
C563 C564 1.355 . S
C563 C565 1.415 . S
C564 C563 1.355 . S
C564 C566 1.419 . S
C565 C560 1.425 . S
C565 C562 1.409 . S
C565 C563 1.415 . S
C566 H556 0.930 . S
C566 C564 1.419 . S
C566 C567 1.362 . S
C567 H557 0.930 . S
C567 C560 1.409 . S
C567 C566 1.362 . S
H568 C574 0.930 . S
H569 C577 0.930 . S
H570 C578 0.930 . S
H571 C579 0.930 . S
H572 C582 0.930 . S
H573 C583 0.930 . S
C574 H568 0.930 . S
C574 C575 1.355 . S
C574 C576 1.415 . S
C575 C574 1.355 . S
C575 C577 1.419 . S
C576 C574 1.415 . S
C576 C581 1.425 . S
C576 C583 1.409 . S
C577 H569 0.930 . S
C577 C575 1.419 . S
C577 C578 1.362 . S
C578 H570 0.930 . S
C578 C577 1.362 . S
C578 C581 1.409 . S
C579 H571 0.930 . S
C579 C580 1.355 . S
C579 C581 1.415 . S
C580 C579 1.355 . S
C580 C582 1.419 . S
C581 C576 1.425 . S
C581 C578 1.409 . S
C581 C579 1.415 . S
C582 H572 0.930 . S
C582 C580 1.419 . S
C582 C583 1.362 . S
C583 H573 0.930 . S
C583 C576 1.409 . S
C583 C582 1.362 . S
H584 C590 0.930 . S
H585 C593 0.930 . S
H586 C594 0.930 . S
H587 C595 0.930 . S
H588 C598 0.930 . S
H589 C599 0.930 . S
C590 H584 0.930 . S
C590 C591 1.355 . S
C590 C592 1.415 . S
C591 C590 1.355 . S
C591 C593 1.419 . S
C592 C590 1.415 . S
C592 C597 1.425 . S
C592 C599 1.409 . S
C593 H585 0.930 . S
C593 C591 1.419 . S
C593 C594 1.362 . S
C594 H586 0.930 . S
C594 C593 1.362 . S
C594 C597 1.409 . S
C595 H587 0.930 . S
C595 C596 1.355 . S
C595 C597 1.415 . S
C596 C595 1.355 . S
C596 C598 1.419 . S
C597 C592 1.425 . S
C597 C594 1.409 . S
C597 C595 1.415 . S
C598 H588 0.930 . S
C598 C596 1.419 . S
C598 C599 1.362 . S
C599 H589 0.930 . S
C599 C592 1.409 . S
C599 C598 1.362 . S
H600 C606 0.930 . S
H601 C609 0.930 . S
H602 C610 0.930 . S
H603 C611 0.930 . S
H604 C614 0.930 . S
H605 C615 0.930 . S
C606 H600 0.930 . S
C606 C607 1.355 1_556 S
C606 C608 1.415 . S
C607 C606 1.355 1_554 S
C607 C609 1.419 . S
C608 C606 1.415 . S
C608 C613 1.425 1_556 S
C608 C615 1.409 . S
C609 H601 0.930 . S
C609 C607 1.419 . S
C609 C610 1.362 . S
C610 H602 0.930 . S
C610 C609 1.362 . S
C610 C613 1.409 . S
C611 H603 0.930 . S
C611 C612 1.355 1_554 S
C611 C613 1.415 . S
C612 C611 1.355 1_556 S
C612 C614 1.419 . S
C613 C608 1.425 1_554 S
C613 C610 1.409 . S
C613 C611 1.415 . S
C614 H604 0.930 . S
C614 C612 1.419 . S
C614 C615 1.362 . S
C615 H605 0.930 . S
C615 C608 1.409 . S
C615 C614 1.362 . S
H616 C622 0.930 . S
H617 C625 0.930 . S
H618 C626 0.930 . S
H619 C627 0.930 . S
H620 C630 0.930 . S
H621 C631 0.930 . S
C622 H616 0.930 . S
C622 C623 1.355 . S
C622 C624 1.415 1_455 S
C623 C622 1.355 . S
C623 C625 1.419 1_554 S
C624 C622 1.415 1_655 S
C624 C629 1.425 1_654 S
C624 C631 1.409 . S
C625 H617 0.930 . S
C625 C623 1.419 1_556 S
C625 C626 1.362 . S
C626 H618 0.930 . S
C626 C625 1.362 . S
C626 C629 1.409 . S
C627 H619 0.930 . S
C627 C628 1.355 . S
C627 C629 1.415 1_655 S
C628 C627 1.355 . S
C628 C630 1.419 1_556 S
C629 C624 1.425 1_456 S
C629 C626 1.409 . S
C629 C627 1.415 1_455 S
C630 H620 0.930 . S
C630 C628 1.419 1_554 S
C630 C631 1.362 . S
C631 H621 0.930 . S
C631 C624 1.409 . S
C631 C630 1.362 . S
H632 C638 0.930 . S
H633 C641 0.930 . S
H634 C642 0.930 . S
H635 C643 0.930 . S
H636 C646 0.930 . S
H637 C647 0.930 . S
C638 H632 0.930 . S
C638 C639 1.355 . S
C638 C640 1.415 1_565 S
C639 C638 1.355 . S
C639 C641 1.419 . S
C640 C638 1.415 1_545 S
C640 C645 1.425 1_545 S
C640 C647 1.409 . S
C641 H633 0.930 . S
C641 C639 1.419 . S
C641 C642 1.362 . S
C642 H634 0.930 . S
C642 C641 1.362 . S
C642 C645 1.409 . S
C643 H635 0.930 . S
C643 C644 1.355 . S
C643 C645 1.415 1_545 S
C644 C643 1.355 . S
C644 C646 1.419 . S
C645 C640 1.425 1_565 S
C645 C642 1.409 . S
C645 C643 1.415 1_565 S
C646 H636 0.930 . S
C646 C644 1.419 . S
C646 C647 1.362 . S
C647 H637 0.930 . S
C647 C640 1.409 . S
C647 C646 1.362 . S
H648 C654 0.930 . S
H649 C657 0.930 . S
H650 C658 0.930 . S
H651 C659 0.930 . S
H652 C662 0.930 . S
H653 C663 0.930 . S
C654 H648 0.930 . S
C654 C655 1.355 . S
C654 C656 1.415 1_545 S
C655 C654 1.355 . S
C655 C657 1.419 . S
C656 C654 1.415 1_565 S
C656 C661 1.425 1_665 S
C656 C663 1.409 . S
C657 H649 0.930 . S
C657 C655 1.419 . S
C657 C658 1.362 1_655 S
C658 H650 0.930 . S
C658 C657 1.362 1_455 S
C658 C661 1.409 . S
C659 H651 0.930 . S
C659 C660 1.355 . S
C659 C661 1.415 1_565 S
C660 C659 1.355 . S
C660 C662 1.419 . S
C661 C656 1.425 1_445 S
C661 C658 1.409 . S
C661 C659 1.415 1_545 S
C662 H652 0.930 . S
C662 C660 1.419 . S
C662 C663 1.362 1_455 S
C663 H653 0.930 . S
C663 C656 1.409 . S
C663 C662 1.362 1_655 S
H664 C670 0.930 . S
H665 C673 0.930 . S
H666 C674 0.930 . S
H667 C675 0.926 1_556 S
H668 C678 0.930 . S
H669 C679 0.930 . S
C670 H664 0.930 . S
C670 C671 1.355 . S
C670 C672 1.415 . S
C671 C670 1.355 . S
C671 C673 1.419 1_554 S
C672 C670 1.415 . S
C672 C677 1.425 . S
C672 C679 1.409 . S
C673 H665 0.930 . S
C673 C671 1.419 1_556 S
C673 C674 1.362 . S
C674 H666 0.930 . S
C674 C673 1.362 . S
C674 C677 1.409 1_556 S
C675 H667 0.926 1_554 S
C675 C676 1.358 . S
C675 C677 1.416 . S
C676 C675 1.358 . S
C676 C678 1.419 . S
C677 C672 1.425 . S
C677 C674 1.409 1_554 S
C677 C675 1.416 . S
C678 H668 0.930 . S
C678 C676 1.419 . S
C678 C679 1.362 . S
C679 H669 0.930 . S
C679 C672 1.409 . S
C679 C678 1.362 . S
H680 C686 0.930 . S
H681 C689 0.930 . S
H682 C690 0.930 . S
H683 C691 0.930 . S
H684 C694 0.930 . S
H685 C695 0.930 . S
C686 H680 0.930 . S
C686 C687 1.355 . S
C686 C688 1.415 1_545 S
C687 C686 1.355 . S
C687 C689 1.419 . S
C688 C686 1.415 1_565 S
C688 C693 1.425 1_565 S
C688 C695 1.409 . S
C689 H681 0.930 . S
C689 C687 1.419 . S
C689 C690 1.362 . S
C690 H682 0.930 . S
C690 C689 1.362 . S
C690 C693 1.409 . S
C691 H683 0.930 . S
C691 C692 1.355 . S
C691 C693 1.415 1_565 S
C692 C691 1.355 . S
C692 C694 1.419 . S
C693 C688 1.425 1_545 S
C693 C690 1.409 . S
C693 C691 1.415 1_545 S
C694 H684 0.930 . S
C694 C692 1.419 . S
C694 C695 1.362 . S
C695 H685 0.930 . S
C695 C688 1.409 . S
C695 C694 1.362 . S
H696 C702 0.930 . S
H697 C705 0.930 . S
H698 C706 0.930 . S
H699 C707 0.930 . S
H700 C710 0.930 . S
H701 C711 0.930 . S
C702 H696 0.930 . S
C702 C703 1.355 . S
C702 C704 1.415 . S
C703 C702 1.355 . S
C703 C705 1.419 . S
C704 C702 1.415 . S
C704 C709 1.425 . S
C704 C711 1.409 . S
C705 H697 0.930 . S
C705 C703 1.419 . S
C705 C706 1.362 . S
C706 H698 0.930 . S
C706 C705 1.362 . S
C706 C709 1.409 . S
C707 H699 0.930 . S
C707 C708 1.355 . S
C707 C709 1.415 . S
C708 C707 1.355 . S
C708 C710 1.419 . S
C709 C704 1.425 . S
C709 C706 1.409 . S
C709 C707 1.415 . S
C710 H700 0.930 . S
C710 C708 1.419 . S
C710 C711 1.362 . S
C711 H701 0.930 . S
C711 C704 1.409 . S
C711 C710 1.362 . S
H712 C718 0.930 . S
H713 C721 0.930 . S
H714 C722 0.930 . S
H715 C723 0.930 . S
H716 C726 0.930 . S
H717 C727 0.930 . S
C718 H712 0.930 . S
C718 C719 1.355 . S
C718 C720 1.415 1_565 S
C719 C718 1.355 . S
C719 C721 1.419 . S
C720 C718 1.415 1_545 S
C720 C725 1.425 1_545 S
C720 C727 1.409 . S
C721 H713 0.930 . S
C721 C719 1.419 . S
C721 C722 1.362 . S
C722 H714 0.930 . S
C722 C721 1.362 . S
C722 C725 1.409 . S
C723 H715 0.930 . S
C723 C724 1.355 . S
C723 C725 1.415 1_545 S
C724 C723 1.355 . S
C724 C726 1.419 . S
C725 C720 1.425 1_565 S
C725 C722 1.409 . S
C725 C723 1.415 1_565 S
C726 H716 0.930 . S
C726 C724 1.419 . S
C726 C727 1.362 . S
C727 H717 0.930 . S
C727 C720 1.409 . S
C727 C726 1.362 . S
C479 C52 1.663 . S
C484 C111 1.635 . S
C495 C229 1.657 . S
C500 C170 1.665 . S
C511 C288 1.635 . S
C516 C347 1.649 . S
C527 C406 1.638 . S
C532 C465 1.667 . S
C543 C3 1.829 . S
C548 C121 1.855 . S
C559 C180 1.883 . S
C564 C62 1.857 . S
C575 C239 1.879 . S
C580 C357 1.830 . S
C591 C416 1.868 . S
C596 C298 1.877 . S
C607 C5 1.361 . S
C612 C241 1.361 . S
C623 C64 1.314 . S
C628 C300 1.314 . S
C639 C359 1.337 . S
C644 C123 1.337 . S
C655 C418 1.372 . S
C660 C182 1.372 . S
C671 C92 1.455 . S
C676 C33 1.459 . S
C687 C151 1.445 . S
C692 C210 1.469 . S
C703 C269 1.468 . S
C708 C328 1.446 . S
C719 C387 1.437 . S
C724 C446 1.476 . S
