# Generated by pormake.
# Topology wjg, (4)-cn, num edge types: 1
# Building blocks:
#     Node 0, Type 0, BuildingBlock: UXUYUI_clean_sbu_0, # of connection points: 4
#     Node 1, Type 0, BuildingBlock: UXUYUI_clean_sbu_0, # of connection points: 4
#     Node 2, Type 0, BuildingBlock: UXUYUI_clean_sbu_0, # of connection points: 4
#     Node 3, Type 0, BuildingBlock: UXUYUI_clean_sbu_0, # of connection points: 4
#     Node 4, Type 0, BuildingBlock: UXUYUI_clean_sbu_0, # of connection points: 4
#     Node 5, Type 0, BuildingBlock: UXUYUI_clean_sbu_0, # of connection points: 4
#     Node 6, Type 0, BuildingBlock: UXUYUI_clean_sbu_0, # of connection points: 4
#     Node 7, Type 0, BuildingBlock: UXUYUI_clean_sbu_0, # of connection points: 4
#     Node 8, Type 0, BuildingBlock: UXUYUI_clean_sbu_0, # of connection points: 4
#     Node 9, Type 0, BuildingBlock: UXUYUI_clean_sbu_0, # of connection points: 4
#     Node 10, Type 0, BuildingBlock: UXUYUI_clean_sbu_0, # of connection points: 4
#     Node 11, Type 0, BuildingBlock: UXUYUI_clean_sbu_0, # of connection points: 4
#     Edge 12, Type (0, 0), None
#     Edge 13, Type (0, 0), None
#     Edge 14, Type (0, 0), None
#     Edge 15, Type (0, 0), None
#     Edge 16, Type (0, 0), None
#     Edge 17, Type (0, 0), None
#     Edge 18, Type (0, 0), None
#     Edge 19, Type (0, 0), None
#     Edge 20, Type (0, 0), None
#     Edge 21, Type (0, 0), None
#     Edge 22, Type (0, 0), None
#     Edge 23, Type (0, 0), None
#     Edge 24, Type (0, 0), None
#     Edge 25, Type (0, 0), None
#     Edge 26, Type (0, 0), None
#     Edge 27, Type (0, 0), None
#     Edge 28, Type (0, 0), None
#     Edge 29, Type (0, 0), None
#     Edge 30, Type (0, 0), None
#     Edge 31, Type (0, 0), None
#     Edge 32, Type (0, 0), None
#     Edge 33, Type (0, 0), None
#     Edge 34, Type (0, 0), None
#     Edge 35, Type (0, 0), None
# Relax obj value: 0.406
# Max RMSD: 0.171
# Mean RMSD: 0.170
data_MOF--net-wjg--node1-UXUYUI_clean_sbu_0--edge1-none
_symmetry_space_group_name_H-M    P1
_symmetry_Int_Tables_number       1
_symmetry_cell_setting            triclinic
loop_
_symmetry_equiv_pos_as_xyz
'x, y, z'
_cell_length_a     32.615604
_cell_length_b     32.584835
_cell_length_c     33.496322
_cell_angle_alpha  90.000491
_cell_angle_beta   90.000082
_cell_angle_gamma 120.03051
loop_
_atom_site_label
_atom_site_type_symbol
_atom_site_fract_x
_atom_site_fract_y
_atom_site_fract_z
_atom_type_partial_charge
Li0 Li 0.21296 0.47015 0.30651 0.0
Li1 Li 0.15658 0.40113 0.34923 0.0
Li2 Li 0.20361 0.39106 0.30088 0.0
Li3 Li 0.13878 0.39854 0.27732 0.0
C4 C 0.26745 0.43885 0.35819 0.0
N5 N 0.35212 0.44635 0.38204 0.0
C6 C 0.26806 0.40931 0.38815 0.0
C7 C 0.31002 0.47214 0.34026 0.0
C8 C 0.31117 0.4136 0.39978 0.0
C9 C 0.35243 0.47548 0.35282 0.0
C10 C 0.11825 0.46453 0.33445 0.0
C11 C 0.04485 0.4651 0.34121 0.0
N12 N 0.06639 0.50243 0.36675 0.0
C13 C 0.13977 0.50327 0.36037 0.0
C14 C 0.0705 0.44559 0.32443 0.0
C15 C 0.11291 0.52175 0.37657 0.0
C16 C 0.27207 0.56764 0.28065 0.0
N17 N 0.25567 0.53641 0.31147 0.0
C18 C 0.31057 0.59516 0.35644 0.0
C19 C 0.27282 0.54985 0.34907 0.0
C20 C 0.33048 0.62788 0.32496 0.0
C21 C 0.3092 0.61404 0.2869 0.0
H22 H 0.25762 0.55609 0.25103 0.0
H23 H 0.25889 0.52431 0.37312 0.0
C24 C 0.13842 0.34456 0.41529 0.0
N25 N 0.14318 0.38671 0.40359 0.0
C26 C 0.15561 0.34062 0.45239 0.0
C27 C 0.17747 0.4219 0.4661 0.0
C28 C 0.16023 0.42441 0.42867 0.0
C29 C 0.17815 0.38061 0.47722 0.0
H30 H 0.12736 0.31601 0.39403 0.0
H31 H 0.16577 0.45805 0.41799 0.0
C32 C 0.2323 0.42516 0.22961 0.0
N33 N 0.28623 0.40769 0.17621 0.0
C34 C 0.21303 0.38121 0.21057 0.0
C35 C 0.27879 0.4604 0.22131 0.0
C36 C 0.24096 0.37301 0.18375 0.0
C37 C 0.30552 0.45084 0.19422 0.0
C38 C 0.08945 0.3139 0.3194 0.0
C39 C 0.0729 0.26611 0.31089 0.0
C40 C 0.05866 0.32725 0.33618 0.0
C41 C 0.02555 0.2327 0.31844 0.0
C42 C 0.01157 0.29281 0.34335 0.0
N43 N 0.9961 0.24664 0.33435 0.0
C44 C 0.21356 0.31453 0.31866 0.0
C45 C 0.28413 0.3761 0.29007 0.0
C46 C 0.23646 0.28994 0.32963 0.0
N47 N 0.23755 0.35706 0.29975 0.0
C48 C 0.30872 0.35286 0.30104 0.0
C49 C 0.28485 0.30959 0.32169 0.0
H50 H 0.17722 0.30085 0.3275 0.0
H51 H 0.30302 0.4106 0.27624 0.0
C52 C 0.07999 0.40964 0.21874 0.0
N53 N 0.09053 0.37879 0.23703 0.0
C54 C 0.04523 0.39376 0.18881 0.0
C55 C 0.03184 0.31462 0.19835 0.0
C56 C 0.06799 0.33234 0.22659 0.0
C57 C 0.02014 0.34533 0.17813 0.0
H58 H 0.09903 0.44672 0.227 0.0
H59 H 0.07823 0.30875 0.23993 0.0
O60 O 0.22543 0.43484 0.34613 0.0
O61 O 0.1442 0.44652 0.31759 0.0
O62 O 0.20559 0.43379 0.25599 0.0
O63 O 0.13592 0.34691 0.31228 0.0
H64 H 0.23559 0.3829 0.40193 0.0
H65 H 0.31032 0.49457 0.31634 0.0
H66 H 0.31203 0.39077 0.4228 0.0
H67 H 0.38556 0.50096 0.33909 0.0
H68 H 0.00785 0.45067 0.33383 0.0
H69 H 0.1768 0.5189 0.36798 0.0
H70 H 0.05342 0.41617 0.30383 0.0
H71 H 0.12909 0.55155 0.39685 0.0
H72 H 0.32549 0.60303 0.38616 0.0
H73 H 0.322 0.63808 0.26175 0.0
H74 H 0.15543 0.30815 0.45964 0.0
H75 H 0.19305 0.45312 0.48491 0.0
H76 H 0.17702 0.35365 0.21671 0.0
H77 H 0.2941 0.49463 0.23581 0.0
H78 H 0.22666 0.33907 0.16894 0.0
H79 H 0.34163 0.47767 0.18759 0.0
H80 H 0.09629 0.25501 0.29811 0.0
H81 H 0.07111 0.36361 0.34422 0.0
H82 H 0.01222 0.19568 0.31167 0.0
H83 H 0.9874 0.30277 0.35627 0.0
H84 H 0.21695 0.25685 0.34578 0.0
H85 H 0.34608 0.36887 0.29415 0.0
H86 H 0.03893 0.41956 0.17399 0.0
H87 H 0.01351 0.2769 0.19289 0.0
Li88 Li 0.74461 0.21193 0.64051 0.0
Li89 Li 0.75747 0.15549 0.68292 0.0
Li90 Li 0.81443 0.20288 0.63459 0.0
Li91 Li 0.74216 0.13794 0.61098 0.0
C92 C 0.8305 0.26651 0.69213 0.0
N93 N 0.90766 0.35128 0.71608 0.0
C94 C 0.86078 0.26709 0.72193 0.0
C95 C 0.83964 0.30915 0.67441 0.0
C96 C 0.89958 0.31025 0.73361 0.0
C97 C 0.87872 0.35162 0.68701 0.0
C98 C 0.65566 0.11697 0.66828 0.0
C99 C 0.58165 0.04344 0.67497 0.0
N100 N 0.5659 0.06492 0.70058 0.0
C101 C 0.63847 0.13842 0.69428 0.0
C102 C 0.62682 0.0692 0.65819 0.0
C103 C 0.59313 0.11146 0.71047 0.0
C104 C 0.70568 0.27058 0.61496 0.0
N105 N 0.72089 0.25444 0.64569 0.0
C106 C 0.71705 0.3093 0.6907 0.0
C107 C 0.72478 0.27169 0.68327 0.0
C108 C 0.70385 0.32896 0.6593 0.0
C109 C 0.69621 0.30754 0.62127 0.0
H110 H 0.70261 0.25603 0.58535 0.0
H111 H 0.73666 0.25795 0.70726 0.0
C112 C 0.79608 0.13736 0.74884 0.0
N113 N 0.75856 0.14187 0.73723 0.0
C114 C 0.81725 0.15463 0.78593 0.0
C115 C 0.75757 0.17598 0.79979 0.0
C116 C 0.73779 0.15867 0.76239 0.0
C117 C 0.7997 0.177 0.81081 0.0
H118 H 0.81364 0.12648 0.72752 0.0
H119 H 0.70956 0.164 0.75178 0.0
C120 C 0.80883 0.23201 0.56354 0.0
N121 N 0.88007 0.28676 0.51024 0.0
C122 C 0.83366 0.21313 0.54421 0.0
C123 C 0.81986 0.27853 0.55559 0.0
C124 C 0.86971 0.24147 0.51745 0.0
C125 C 0.85607 0.30568 0.52854 0.0
C126 C 0.77757 0.08859 0.65273 0.0
C127 C 0.80878 0.07211 0.64401 0.0
C128 C 0.73346 0.05767 0.66953 0.0
C129 C 0.79483 0.0247 0.65139 0.0
C130 C 0.72081 0.01052 0.67652 0.0
N131 N 0.75147 0.99512 0.66733 0.0
C132 C 0.90103 0.21306 0.65202 0.0
C133 C 0.90981 0.28375 0.62386 0.0
C134 C 0.94853 0.23608 0.66294 0.0
N135 N 0.88237 0.23705 0.63336 0.0
C136 C 0.95766 0.30846 0.63479 0.0
C137 C 0.97717 0.28459 0.65522 0.0
H138 H 0.87845 0.1766 0.66071 0.0
H139 H 0.89411 0.30263 0.61021 0.0
C140 C 0.67221 0.07912 0.55239 0.0
N141 N 0.71369 0.08982 0.57055 0.0
C142 C 0.65339 0.04449 0.52232 0.0
C143 C 0.71942 0.03156 0.53143 0.0
C144 C 0.73776 0.06757 0.55984 0.0
C145 C 0.67692 0.01971 0.51135 0.0
H146 H 0.65404 0.09793 0.56086 0.0
H147 H 0.77166 0.07795 0.57309 0.0
O148 O 0.79249 0.22444 0.68003 0.0
O149 O 0.69961 0.14301 0.65142 0.0
O150 O 0.77357 0.20489 0.58986 0.0
O151 O 0.79102 0.13511 0.64576 0.0
H152 H 0.85484 0.23457 0.73553 0.0
H153 H 0.81742 0.30948 0.65061 0.0
H154 H 0.92339 0.3111 0.75651 0.0
H155 H 0.88625 0.3848 0.67344 0.0
H156 H 0.55906 0.00642 0.66753 0.0
H157 H 0.65989 0.17546 0.70195 0.0
H158 H 0.63913 0.05216 0.63753 0.0
H159 H 0.57953 0.12758 0.73081 0.0
H160 H 0.72425 0.32434 0.72039 0.0
H161 H 0.68466 0.32012 0.59619 0.0
H162 H 0.84964 0.15468 0.79312 0.0
H163 H 0.74185 0.19141 0.81866 0.0
H164 H 0.82537 0.1771 0.55008 0.0
H165 H 0.80081 0.29353 0.57031 0.0
H166 H 0.88945 0.22747 0.50242 0.0
H167 H 0.86517 0.34181 0.52217 0.0
H168 H 0.84323 0.0956 0.63121 0.0
H169 H 0.70958 0.07005 0.67772 0.0
H170 H 0.81848 0.01142 0.64446 0.0
H171 H 0.68671 0.98624 0.68947 0.0
H172 H 0.9622 0.21655 0.67892 0.0
H173 H 0.97891 0.34591 0.62807 0.0
H174 H 0.62119 0.03804 0.50762 0.0
H175 H 0.73895 0.01346 0.52573 0.0
Li176 Li 0.6024 0.7562 0.01585 0.0
Li177 Li 0.53312 0.74358 0.97356 0.0
Li178 Li 0.60442 0.74095 0.94389 0.0
Li179 Li 0.61214 0.81334 0.96764 0.0
C180 C 0.53864 0.65438 0.00126 0.0
N181 N 0.50047 0.56457 0.03367 0.0
C182 C 0.50006 0.63738 0.02729 0.0
C183 C 0.55729 0.62532 0.99119 0.0
C184 C 0.48144 0.59201 0.04354 0.0
C185 C 0.53764 0.58013 0.00803 0.0
C186 C 0.56508 0.82957 0.02546 0.0
C187 C 0.52872 0.87825 0.02092 0.0
N188 N 0.55838 0.90709 0.04987 0.0
C189 C 0.59519 0.85977 0.05514 0.0
C190 C 0.53164 0.83899 0.00809 0.0
C191 C 0.59129 0.89876 0.06705 0.0
C192 C 0.65946 0.79441 0.08174 0.0
N193 N 0.61719 0.75714 0.07013 0.0
C194 C 0.58235 0.75653 0.13272 0.0
C195 C 0.57961 0.73666 0.0953 0.0
C196 C 0.62376 0.79845 0.14373 0.0
C197 C 0.66364 0.81566 0.11884 0.0
H198 H 0.68793 0.81177 0.06042 0.0
H199 H 0.54589 0.70865 0.0847 0.0
C200 C 0.43565 0.70488 0.94797 0.0
N201 N 0.46695 0.72003 0.97873 0.0
C202 C 0.38928 0.69553 0.95423 0.0
C203 C 0.40831 0.71633 0.02367 0.0
C204 C 0.4536 0.72396 0.0163 0.0
C205 C 0.37552 0.7032 0.99224 0.0
H206 H 0.44712 0.70177 0.91838 0.0
H207 H 0.47918 0.7358 0.0403 0.0
C208 C 0.68919 0.77606 0.98545 0.0
N209 N 0.75619 0.7495 -0.0003 0.0
C210 C 0.73689 0.80714 0.97662 0.0
C211 C 0.6758 0.73185 0.00219 0.0
C212 C 0.77016 0.79295 0.98382 0.0
C213 C 0.7101 0.71896 0.00901 0.0
C214 C 0.5769 0.80791 0.89677 0.0
C215 C 0.6204 0.83297 0.87715 0.0
C216 C 0.54124 0.81878 0.88929 0.0
C217 C 0.62774 0.86908 0.85058 0.0
C218 C 0.54994 0.85506 0.86242 0.0
N219 N 0.59266 0.87928 0.84384 0.0
C220 C 0.59327 0.67067 0.88556 0.0
C221 C 0.67017 0.73687 0.89246 0.0
C222 C 0.60913 0.65183 0.85557 0.0
N223 N 0.62394 0.71247 0.90342 0.0
C224 C 0.68789 0.71853 0.86414 0.0
C225 C 0.65737 0.67567 0.84439 0.0
H226 H 0.55636 0.65224 0.89423 0.0
H227 H 0.69356 0.77098 0.90551 0.0
C228 C 0.68884 0.89996 0.98502 0.0
N229 N 0.64614 0.88135 0.96645 0.0
C230 C 0.71344 0.94749 -0.00399 0.0
C231 C 0.65025 0.95675 0.96805 0.0
C232 C 0.62698 0.90887 0.95707 0.0
C233 C 0.69367 0.97621 0.98842 0.0
H234 H 0.70264 0.87731 0.9936 0.0
H235 H 0.59236 0.89321 0.94351 0.0
O236 O 0.55678 0.69836 0.98434 0.0
O237 O 0.5687 0.79139 0.01313 0.0
O238 O 0.6563 0.78973 0.97862 0.0
O239 O 0.5691 0.77257 0.92291 0.0
H240 H 0.48466 0.65898 0.03495 0.0
H241 H 0.5866 0.63748 0.97052 0.0
H242 H 0.45175 0.57856 0.06391 0.0
H243 H 0.55185 0.55736 0.00061 0.0
H244 H 0.50312 0.88599 0.00762 0.0
H245 H 0.62175 0.85364 0.06845 0.0
H246 H 0.50878 0.81683 0.98439 0.0
H247 H 0.61457 0.92249 0.08986 0.0
H248 H 0.55121 0.74107 0.15159 0.0
H249 H 0.6962 0.84788 0.12604 0.0
H250 H 0.36518 0.68405 0.92913 0.0
H251 H 0.40048 0.72355 0.05336 0.0
H252 H 0.74801 0.84166 0.96386 0.0
H253 H 0.63952 0.70806 0.01046 0.0
H254 H 0.8071 0.8165 0.9768 0.0
H255 H 0.70012 0.68477 0.02189 0.0
H256 H 0.64826 0.82481 0.88265 0.0
H257 H 0.50735 0.79956 0.90425 0.0
H258 H 0.66131 0.889 0.83533 0.0
H259 H 0.52278 0.86403 0.85643 0.0
H260 H 0.58347 0.61935 0.84112 0.0
H261 H 0.72548 0.73834 0.85827 0.0
H262 H 0.74665 0.9611 0.01195 0.0
H263 H 0.63412 0.97805 0.96142 0.0
Li264 Li 0.84691 0.60113 0.34923 0.0
Li265 Li 0.79047 0.53209 0.30655 0.0
Li266 Li 0.86464 0.60368 0.27732 0.0
Li267 Li 0.79986 0.6112 0.30092 0.0
C268 C 0.88515 0.53765 0.33443 0.0
N269 N 0.93693 0.49965 0.3667 0.0
C270 C 0.86361 0.49891 0.36035 0.0
C271 C 0.93289 0.55654 0.3244 0.0
C272 C 0.89043 0.48038 0.37653 0.0
C273 C 0.95851 0.53697 0.34117 0.0
C274 C 0.73609 0.5635 0.3583 0.0
C275 C 0.6511 0.52694 0.35308 0.0
N276 N 0.65152 0.55615 0.38227 0.0
C277 C 0.7356 0.59314 0.38822 0.0
C278 C 0.69346 0.53019 0.34046 0.0
C279 C 0.69254 0.58892 0.39991 0.0
C280 C 0.86522 0.65773 0.41531 0.0
N281 N 0.86037 0.61555 0.40359 0.0
C282 C 0.82605 0.58036 0.46609 0.0
C283 C 0.84327 0.57784 0.42866 0.0
C284 C 0.82545 0.6217 0.47723 0.0
C285 C 0.84805 0.6617 0.45241 0.0
H286 H 0.87632 0.68629 0.39406 0.0
H287 H 0.83766 0.54417 0.41797 0.0
C288 C 0.7314 0.43459 0.28071 0.0
N289 N 0.74776 0.46584 0.31152 0.0
C290 C 0.6943 0.38819 0.28695 0.0
C291 C 0.69285 0.40709 0.35648 0.0
C292 C 0.73059 0.4524 0.34912 0.0
C293 C 0.67298 0.37435 0.32501 0.0
H294 H 0.74589 0.44614 0.2511 0.0
H295 H 0.74449 0.47795 0.37316 0.0
C296 C 0.91406 0.68831 0.31937 0.0
N297 N 0.00745 0.7555 0.33423 0.0
C298 C 0.93065 0.73611 0.31083 0.0
C299 C 0.94482 0.67491 0.33612 0.0
C300 C 0.97803 0.76948 0.31835 0.0
C301 C 0.99193 0.70932 0.34325 0.0
C302 C 0.77098 0.57696 0.2297 0.0
C303 C 0.79013 0.62086 0.21059 0.0
C304 C 0.72448 0.54166 0.22153 0.0
C305 C 0.76208 0.62895 0.18382 0.0
C306 C 0.69762 0.55111 0.19448 0.0
N307 N 0.7168 0.59421 0.1764 0.0
C308 C 0.92347 0.5926 0.21877 0.0
C309 C 0.9353 0.66985 0.22651 0.0
C310 C 0.95823 0.6085 0.18882 0.0
N311 N 0.91285 0.62342 0.23701 0.0
C312 C 0.97144 0.68759 0.19827 0.0
C313 C 0.98323 0.65692 0.1781 0.0
H314 H 0.9045 0.55554 0.22706 0.0
H315 H 0.92499 0.69341 0.23982 0.0
C316 C 0.78995 0.68778 0.31866 0.0
N317 N 0.76594 0.64522 0.2998 0.0
C318 C 0.76707 0.71238 0.32963 0.0
C319 C 0.69476 0.64943 0.30115 0.0
C320 C 0.71934 0.62616 0.29018 0.0
C321 C 0.71867 0.69273 0.32175 0.0
H322 H 0.82631 0.70148 0.32745 0.0
H323 H 0.70042 0.59164 0.27638 0.0
O324 O 0.85925 0.55571 0.31759 0.0
O325 O 0.77806 0.56743 0.34618 0.0
O326 O 0.86757 0.65533 0.31228 0.0
O327 O 0.79781 0.56844 0.25603 0.0
H328 H 0.82659 0.48331 0.36797 0.0
H329 H 0.95001 0.58596 0.30381 0.0
H330 H 0.87422 0.45057 0.39681 0.0
H331 H 0.9955 0.55137 0.33378 0.0
H332 H 0.61793 0.50144 0.33942 0.0
H333 H 0.76811 0.61957 0.40192 0.0
H334 H 0.69307 0.50769 0.31658 0.0
H335 H 0.69176 0.61183 0.42291 0.0
H336 H 0.81042 0.54914 0.48489 0.0
H337 H 0.84831 0.6942 0.45968 0.0
H338 H 0.68153 0.36414 0.26181 0.0
H339 H 0.6779 0.39922 0.38619 0.0
H340 H 0.90728 0.74723 0.29807 0.0
H341 H 0.93233 0.63855 0.34418 0.0
H342 H 0.9914 0.80649 0.31156 0.0
H343 H 0.01609 0.69933 0.35616 0.0
H344 H 0.82615 0.64846 0.21664 0.0
H345 H 0.70925 0.50746 0.23608 0.0
H346 H 0.7763 0.66285 0.16896 0.0
H347 H 0.6615 0.52423 0.18794 0.0
H348 H 0.9646 0.58273 0.17404 0.0
H349 H 0.9897 0.7253 0.19276 0.0
H350 H 0.78661 0.7455 0.34575 0.0
H351 H 0.6574 0.6334 0.29431 0.0
Li352 Li 0.24607 0.84689 0.68295 0.0
Li353 Li 0.25894 0.79047 0.64054 0.0
Li354 Li 0.26135 0.86444 0.61101 0.0
Li355 Li 0.1891 0.79948 0.63464 0.0
C356 C 0.34787 0.88547 0.6683 0.0
N357 N 0.43761 0.93761 0.7006 0.0
C358 C 0.3651 0.86407 0.6943 0.0
C359 C 0.37667 0.93326 0.6582 0.0
C360 C 0.41043 0.89106 0.71049 0.0
C361 C 0.42183 0.95905 0.67499 0.0
C362 C 0.1731 0.73586 0.69217 0.0
C363 C 0.12493 0.65075 0.68702 0.0
N364 N 0.096 0.65104 0.71612 0.0
C365 C 0.14282 0.73523 0.722 0.0
C366 C 0.16398 0.69323 0.67441 0.0
C367 C 0.10405 0.69205 0.73368 0.0
C368 C 0.20744 0.865 0.74887 0.0
N369 N 0.24498 0.86051 0.73726 0.0
C370 C 0.24598 0.8264 0.79982 0.0
C371 C 0.26576 0.84372 0.76242 0.0
C372 C 0.20384 0.82537 0.81084 0.0
C373 C 0.18627 0.84772 0.78596 0.0
H374 H 0.18988 0.87587 0.72755 0.0
H375 H 0.294 0.83841 0.75181 0.0
C376 C 0.29785 0.73183 0.61494 0.0
N377 N 0.28269 0.74799 0.64569 0.0
C378 C 0.30731 0.69487 0.62123 0.0
C379 C 0.28658 0.69315 0.69068 0.0
C380 C 0.27885 0.73077 0.68328 0.0
C381 C 0.29972 0.67347 0.65927 0.0
H382 H 0.30088 0.74636 0.58533 0.0
H383 H 0.26699 0.74452 0.70727 0.0
C384 C 0.2259 0.91376 0.65276 0.0
N385 N 0.25192 0.00721 0.66736 0.0
C386 C 0.19465 0.93019 0.64404 0.0
C387 C 0.27 0.94471 0.66957 0.0
C388 C 0.20856 0.9776 0.65142 0.0
C389 C 0.28261 0.99185 0.67656 0.0
C390 C 0.19467 0.77042 0.56356 0.0
C391 C 0.16986 0.78935 0.54428 0.0
C392 C 0.18362 0.72391 0.55556 0.0
C393 C 0.1338 0.76106 0.51751 0.0
C394 C 0.14739 0.69681 0.5285 0.0
N395 N 0.12341 0.71577 0.51025 0.0
C396 C 0.33126 0.92323 0.55241 0.0
C397 C 0.26573 0.93481 0.55987 0.0
C398 C 0.35007 0.95784 0.52232 0.0
N399 N 0.28979 0.91255 0.57057 0.0
C400 C 0.28407 0.9708 0.53145 0.0
C401 C 0.32655 0.98262 0.51135 0.0
H402 H 0.34942 0.90441 0.56087 0.0
H403 H 0.23184 0.92446 0.57314 0.0
C404 C 0.10249 0.78927 0.65211 0.0
N405 N 0.12116 0.76529 0.63343 0.0
C406 C 0.055 0.76625 0.66303 0.0
C407 C 0.04587 0.69386 0.63488 0.0
C408 C 0.09372 0.71858 0.62393 0.0
C409 C 0.02636 0.71774 0.6553 0.0
H410 H 0.12508 0.82572 0.6608 0.0
H411 H 0.10942 0.69971 0.61027 0.0
O412 O 0.30392 0.8594 0.65144 0.0
O413 O 0.21108 0.77795 0.68007 0.0
O414 O 0.21248 0.86724 0.64581 0.0
O415 O 0.22995 0.79749 0.5899 0.0
H416 H 0.34371 0.82702 0.70197 0.0
H417 H 0.36433 0.95026 0.63754 0.0
H418 H 0.42406 0.87497 0.73084 0.0
H419 H 0.44439 0.99608 0.66755 0.0
H420 H 0.11742 0.61758 0.67342 0.0
H421 H 0.14874 0.76773 0.73562 0.0
H422 H 0.18619 0.69294 0.65059 0.0
H423 H 0.08026 0.69116 0.7566 0.0
H424 H 0.2617 0.81098 0.81869 0.0
H425 H 0.15388 0.84765 0.79315 0.0
H426 H 0.31882 0.68227 0.59615 0.0
H427 H 0.27941 0.67813 0.72038 0.0
H428 H 0.16021 0.90668 0.63125 0.0
H429 H 0.2939 0.93236 0.67776 0.0
H430 H 0.18489 0.99085 0.64449 0.0
H431 H 0.31671 0.01615 0.6895 0.0
H432 H 0.17817 0.82538 0.5502 0.0
H433 H 0.20265 0.70886 0.57024 0.0
H434 H 0.11407 0.77509 0.50252 0.0
H435 H 0.13826 0.66067 0.5221 0.0
H436 H 0.38225 0.96426 0.5076 0.0
H437 H 0.26454 0.98891 0.52575 0.0
H438 H 0.04133 0.78577 0.67901 0.0
H439 H 0.02462 0.65642 0.62815 0.0
Li440 Li 0.47032 0.25874 0.9735 0.0
Li441 Li 0.40107 0.24612 0.01582 0.0
Li442 Li 0.39131 0.18897 0.96761 0.0
Li443 Li 0.399 0.26136 0.94387 0.0
C444 C 0.43842 0.17277 0.0254 0.0
N445 N 0.4452 0.09529 0.04979 0.0
C446 C 0.40836 0.14258 0.0551 0.0
C447 C 0.47186 0.16336 0.008 0.0
C448 C 0.41229 0.10361 0.06701 0.0
C449 C 0.47482 0.12412 0.02082 0.0
C450 C 0.46479 0.34793 0.00122 0.0
C451 C 0.46574 0.42217 0.00799 0.0
N452 N 0.50292 0.43774 0.03363 0.0
C453 C 0.50337 0.36495 0.02725 0.0
C454 C 0.44611 0.37698 0.99115 0.0
C455 C 0.52197 0.41032 0.0435 0.0
C456 C 0.56778 0.2974 0.94786 0.0
N457 N 0.5365 0.2823 0.97864 0.0
C458 C 0.59516 0.28604 0.02358 0.0
C459 C 0.54987 0.2784 0.01621 0.0
C460 C 0.62793 0.29912 0.99213 0.0
C461 C 0.61415 0.30675 0.95411 0.0
H462 H 0.55629 0.30047 0.91827 0.0
H463 H 0.5243 0.26659 0.04023 0.0
C464 C 0.34404 0.2079 0.08173 0.0
N465 N 0.38631 0.24516 0.07011 0.0
C466 C 0.33986 0.18664 0.11882 0.0
C467 C 0.42116 0.24575 0.13268 0.0
C468 C 0.42389 0.26563 0.09528 0.0
C469 C 0.37975 0.20384 0.1437 0.0
H470 H 0.31556 0.19055 0.06041 0.0
H471 H 0.45762 0.29364 0.08467 0.0
C472 C 0.42643 0.19438 0.89671 0.0
N473 N 0.41049 0.12299 0.84374 0.0
C474 C 0.38289 0.16936 0.87714 0.0
C475 C 0.46204 0.18348 0.88915 0.0
C476 C 0.37546 0.13324 0.85055 0.0
C477 C 0.45325 0.14718 0.86227 0.0
C478 C 0.31425 0.22623 0.98547 0.0
C479 C 0.26654 0.19512 0.97667 0.0
C480 C 0.32763 0.27044 0.00221 0.0
C481 C 0.23325 0.20928 0.9839 0.0
C482 C 0.29331 0.2833 0.00905 0.0
N483 N 0.24722 0.25274 -0.00023 0.0
C484 C 0.31463 0.10235 0.98502 0.0
C485 C 0.37647 0.09344 0.95704 0.0
C486 C 0.29004 0.05483 -0.00398 0.0
N487 N 0.35731 0.12097 0.96643 0.0
C488 C 0.35321 0.04557 0.96803 0.0
C489 C 0.3098 0.02611 0.98842 0.0
H490 H 0.30083 0.12501 0.99362 0.0
H491 H 0.41108 0.1091 0.94347 0.0
C492 C 0.41017 0.33161 0.88552 0.0
N493 N 0.37947 0.28985 0.90342 0.0
C494 C 0.39432 0.35047 0.85554 0.0
C495 C 0.31551 0.28388 0.86421 0.0
C496 C 0.33322 0.26552 0.89251 0.0
C497 C 0.34606 0.3267 0.84441 0.0
H498 H 0.44709 0.34999 0.89415 0.0
H499 H 0.3098 0.23142 0.90559 0.0
O500 O 0.43478 0.21094 0.01307 0.0
O501 O 0.44667 0.30395 0.9843 0.0
O502 O 0.43431 0.22974 0.92286 0.0
O503 O 0.34715 0.21258 0.97862 0.0
H504 H 0.38181 0.14871 0.06844 0.0
H505 H 0.49469 0.18551 0.98428 0.0
H506 H 0.38905 0.07988 0.08983 0.0
H507 H 0.50041 0.11639 0.0075 0.0
H508 H 0.45152 0.44492 0.00057 0.0
H509 H 0.51879 0.34337 0.03491 0.0
H510 H 0.41681 0.3648 0.97048 0.0
H511 H 0.55166 0.42378 0.06387 0.0
H512 H 0.60301 0.27885 0.05327 0.0
H513 H 0.63823 0.31819 0.92901 0.0
H514 H 0.3073 0.15443 0.12602 0.0
H515 H 0.4523 0.2612 0.15155 0.0
H516 H 0.35506 0.17756 0.8827 0.0
H517 H 0.49596 0.20266 0.90406 0.0
H518 H 0.34185 0.11334 0.83535 0.0
H519 H 0.48038 0.13817 0.85621 0.0
H520 H 0.25543 0.1606 0.96391 0.0
H521 H 0.36391 0.29424 0.01045 0.0
H522 H 0.19631 0.18572 0.9769 0.0
H523 H 0.30329 0.31749 0.02193 0.0
H524 H 0.25684 0.04122 0.01197 0.0
H525 H 0.36933 0.02426 0.96139 0.0
H526 H 0.42 0.38291 0.84105 0.0
H527 H 0.27791 0.26412 0.85838 0.0
Li528 Li 0.60539 0.86439 0.37939 0.0
Li529 Li 0.61274 0.79946 0.35577 0.0
Li530 Li 0.60318 0.84686 0.30744 0.0
Li531 Li 0.53386 0.7904 0.34983 0.0
C532 C 0.69016 0.91376 0.33766 0.0
N533 N 0.75751 0.00725 0.3231 0.0
C534 C 0.73784 0.93025 0.3464 0.0
C535 C 0.67697 0.94468 0.32086 0.0
C536 C 0.7713 0.97767 0.33903 0.0
C537 C 0.71145 0.99183 0.31388 0.0
C538 C 0.57794 0.77026 0.4268 0.0
C539 C 0.55143 0.69654 0.46173 0.0
N540 N 0.59432 0.71541 0.48007 0.0
C541 C 0.62162 0.78909 0.44616 0.0
C542 C 0.54242 0.72374 0.4347 0.0
C543 C 0.62927 0.7607 0.47291 0.0
C544 C 0.59426 0.92322 0.43796 0.0
N545 N 0.62503 0.9125 0.41983 0.0
C546 C 0.689 0.97071 0.45897 0.0
C547 C 0.67134 0.93472 0.43057 0.0
C548 C 0.65836 0.98259 0.47904 0.0
C549 C 0.61006 0.95785 0.46804 0.0
H550 H 0.55729 0.90444 0.42947 0.0
H551 H 0.69485 0.92432 0.41732 0.0
C552 C 0.68917 0.78929 0.33837 0.0
N553 N 0.64651 0.76529 0.35701 0.0
C554 C 0.71366 0.76627 0.32745 0.0
C555 C 0.65038 0.69387 0.35556 0.0
C556 C 0.62724 0.71859 0.36649 0.0
C557 C 0.69378 0.71776 0.33515 0.0
H558 H 0.70305 0.82575 0.32969 0.0
H559 H 0.59266 0.6997 0.38012 0.0
C560 C 0.53986 0.88535 0.32207 0.0
N561 N 0.50213 0.93738 0.28978 0.0
C562 C 0.50123 0.8639 0.29608 0.0
C563 C 0.55878 0.93313 0.33217 0.0
C564 C 0.48283 0.89085 0.27988 0.0
C565 C 0.53935 0.95887 0.31539 0.0
C566 C 0.56522 0.73586 0.2982 0.0
C567 C 0.59496 0.73531 0.26842 0.0
C568 C 0.53171 0.6932 0.31589 0.0
C569 C 0.59063 0.69217 0.25672 0.0
C570 C 0.52835 0.65075 0.30327 0.0
N571 N 0.55766 0.65112 0.27421 0.0
C572 C 0.65995 0.86504 0.24153 0.0
C573 C 0.58034 0.8437 0.22798 0.0
C574 C 0.66386 0.84777 0.20444 0.0
N575 N 0.61791 0.86051 0.25314 0.0
C576 C 0.58281 0.82639 0.19058 0.0
C577 C 0.62394 0.82539 0.17956 0.0
H578 H 0.68839 0.87592 0.26285 0.0
H579 H 0.54677 0.83835 0.23858 0.0
C580 C 0.43629 0.73177 0.37538 0.0
N581 N 0.46764 0.74789 0.34465 0.0
C582 C 0.38986 0.69481 0.36907 0.0
C583 C 0.40894 0.69302 0.29964 0.0
C584 C 0.45429 0.73064 0.30706 0.0
C585 C 0.37609 0.67338 0.33104 0.0
H586 H 0.44777 0.74633 0.40498 0.0
H587 H 0.4799 0.74437 0.28308 0.0
O588 O 0.6571 0.86723 0.34461 0.0
O589 O 0.56985 0.79743 0.40049 0.0
O590 O 0.55779 0.85933 0.33893 0.0
O591 O 0.56925 0.77792 0.31032 0.0
H592 H 0.74881 0.90676 0.3592 0.0
H593 H 0.6407 0.93229 0.31266 0.0
H594 H 0.80823 0.99096 0.34597 0.0
H595 H 0.70162 0.01611 0.30094 0.0
H596 H 0.52437 0.6604 0.46806 0.0
H597 H 0.64939 0.82513 0.44033 0.0
H598 H 0.50839 0.70877 0.41995 0.0
H599 H 0.66299 0.77466 0.48797 0.0
H600 H 0.72663 0.98879 0.4647 0.0
H601 H 0.58432 0.96431 0.48272 0.0
H602 H 0.74686 0.7858 0.31148 0.0
H603 H 0.63418 0.65643 0.36227 0.0
H604 H 0.48562 0.82686 0.2884 0.0
H605 H 0.58812 0.95017 0.35283 0.0
H606 H 0.45311 0.87472 0.25954 0.0
H607 H 0.55377 0.99589 0.32283 0.0
H608 H 0.62155 0.76785 0.25484 0.0
H609 H 0.50913 0.69284 0.33967 0.0
H610 H 0.61361 0.69135 0.23383 0.0
H611 H 0.50269 0.61755 0.31681 0.0
H612 H 0.6962 0.84773 0.19725 0.0
H613 H 0.55168 0.81095 0.17171 0.0
H614 H 0.36573 0.68223 0.39414 0.0
H615 H 0.40111 0.67798 0.26995 0.0
Li616 Li 0.81372 0.61128 0.68948 0.0
Li617 Li 0.74141 0.60381 0.71303 0.0
Li618 Li 0.74397 0.53219 0.68384 0.0
Li619 Li 0.75664 0.60122 0.64112 0.0
C620 C 0.8083 0.5772 0.76076 0.0
N621 N 0.87969 0.59473 0.81419 0.0
C622 C 0.83297 0.62117 0.77978 0.0
C623 C 0.81956 0.54198 0.76909 0.0
C624 C 0.86909 0.6294 0.80662 0.0
C625 C 0.85585 0.55157 0.7962 0.0
C626 C 0.77675 0.68845 0.67094 0.0
C627 C 0.71999 0.70957 0.64698 0.0
N628 N 0.75071 0.75575 0.65598 0.0
C629 C 0.80802 0.73625 0.67945 0.0
C630 C 0.73262 0.67512 0.65416 0.0
C631 C 0.79409 0.76967 0.67189 0.0
C632 C 0.90021 0.68779 0.6717 0.0
N633 N 0.88166 0.64526 0.69061 0.0
C634 C 0.95703 0.64945 0.68933 0.0
C635 C 0.90919 0.62621 0.7003 0.0
C636 C 0.97644 0.69272 0.66868 0.0
C637 C 0.94769 0.71237 0.66073 0.0
H638 H 0.87755 0.70147 0.66285 0.0
H639 H 0.89358 0.59172 0.71414 0.0
C640 C 0.67154 0.59271 0.77161 0.0
N641 N 0.71292 0.62357 0.75331 0.0
C642 C 0.65266 0.60859 0.80156 0.0
C643 C 0.71839 0.68774 0.79199 0.0
C644 C 0.73682 0.67003 0.76374 0.0
C645 C 0.676 0.65703 0.81222 0.0
H646 H 0.65351 0.55563 0.76337 0.0
H647 H 0.77064 0.69362 0.75039 0.0
C648 C 0.82976 0.56345 0.63219 0.0
N649 N 0.90691 0.5559 0.60836 0.0
C650 C 0.85992 0.59297 0.60222 0.0
C651 C 0.83902 0.53016 0.65014 0.0
C652 C 0.89872 0.58865 0.5906 0.0
C653 C 0.87809 0.5268 0.6376 0.0
C654 C 0.6549 0.53784 0.65589 0.0
C655 C 0.63767 0.49911 0.62997 0.0
C656 C 0.62611 0.5568 0.66591 0.0
C657 C 0.59233 0.48065 0.61377 0.0
C658 C 0.58095 0.53731 0.64912 0.0
N659 N 0.56516 0.49998 0.62358 0.0
C660 C 0.70558 0.43469 0.7097 0.0
C661 C 0.72412 0.45249 0.64128 0.0
C662 C 0.6963 0.38829 0.70345 0.0
N663 N 0.72041 0.46593 0.67888 0.0
C664 C 0.71656 0.40719 0.63391 0.0
C665 C 0.70375 0.37446 0.66538 0.0
H666 H 0.70268 0.44624 0.73932 0.0
H667 H 0.73573 0.47803 0.61723 0.0
C668 C 0.79508 0.65778 0.57507 0.0
N669 N 0.75767 0.61564 0.58675 0.0
C670 C 0.81622 0.66171 0.53797 0.0
C671 C 0.75675 0.58044 0.52425 0.0
C672 C 0.73701 0.57794 0.56167 0.0
C673 C 0.79875 0.62172 0.51314 0.0
H674 H 0.81258 0.68632 0.59633 0.0
H675 H 0.70888 0.5443 0.57235 0.0
O676 O 0.77297 0.56855 0.73437 0.0
O677 O 0.79019 0.65543 0.67806 0.0
O678 O 0.79176 0.56749 0.64423 0.0
O679 O 0.69886 0.55584 0.67275 0.0
H680 H 0.8245 0.64872 0.77362 0.0
H681 H 0.80065 0.50774 0.7546 0.0
H682 H 0.88871 0.66335 0.82141 0.0
H683 H 0.86513 0.52475 0.80285 0.0
H684 H 0.68587 0.69963 0.63405 0.0
H685 H 0.84249 0.74733 0.69223 0.0
H686 H 0.7087 0.63876 0.64612 0.0
H687 H 0.81778 0.80668 0.67866 0.0
H688 H 0.97837 0.63343 0.69622 0.0
H689 H 0.96128 0.74546 0.64458 0.0
H690 H 0.62057 0.58279 0.81639 0.0
H691 H 0.73777 0.72547 0.79745 0.0
H692 H 0.85388 0.61938 0.58842 0.0
H693 H 0.81688 0.50775 0.67406 0.0
H694 H 0.92243 0.61146 0.56757 0.0
H695 H 0.88571 0.50131 0.65134 0.0
H696 H 0.65905 0.48346 0.62236 0.0
H697 H 0.63845 0.58622 0.68651 0.0
H698 H 0.5787 0.45085 0.59348 0.0
H699 H 0.55839 0.55176 0.6565 0.0
H700 H 0.68506 0.36425 0.72859 0.0
H701 H 0.72361 0.39932 0.60418 0.0
H702 H 0.84851 0.69417 0.53072 0.0
H703 H 0.7411 0.54923 0.50544 0.0
Li704 Li 0.2035 0.81331 0.02276 0.0
Li705 Li 0.13881 0.74093 0.04651 0.0
Li706 Li 0.21276 0.74355 0.01689 0.0
Li707 Li 0.15613 0.75615 0.97455 0.0
C708 C 0.23319 0.80792 0.09367 0.0
N709 N 0.28861 0.87933 0.14665 0.0
C710 C 0.21465 0.83294 0.11322 0.0
C711 C 0.27971 0.81885 0.10125 0.0
C712 C 0.24333 0.86907 0.13981 0.0
C713 C 0.30719 0.85515 0.12813 0.0
C714 C 0.08919 0.77604 0.00488 0.0
C715 C 0.01118 0.71896 0.98131 0.0
N716 N 0.99565 0.74952 0.99057 0.0
C717 C 0.07258 0.80715 0.01367 0.0
C718 C 0.05836 0.73183 0.98815 0.0
C719 C 0.02513 0.79299 0.00643 0.0
C720 C 0.21343 0.89992 0.00532 0.0
N721 N 0.2375 0.88132 0.02393 0.0
C722 C 0.30878 0.95673 0.02233 0.0
C723 C 0.28418 0.90885 0.03332 0.0
C724 C 0.28484 0.97618 0.00193 0.0
C725 C 0.23635 0.94744 0.99431 0.0
H726 H 0.17698 0.87726 -0.00329 0.0
H727 H 0.30313 0.8932 0.04691 0.0
C728 C 0.07973 0.67069 0.10486 0.0
N729 N 0.09079 0.71244 0.08695 0.0
C730 C 0.04502 0.65183 0.13483 0.0
C731 C 0.03278 0.7184 0.12614 0.0
C732 C 0.06886 0.73676 0.09784 0.0
C733 C 0.02052 0.67559 0.14595 0.0
H734 H 0.09829 0.65231 0.09624 0.0
H735 H 0.07953 0.77085 0.08476 0.0
C736 C 0.26683 0.82951 0.96498 0.0
N737 N 0.35108 0.907 0.94058 0.0
C738 C 0.26695 0.85969 0.93527 0.0
C739 C 0.30967 0.83893 0.98239 0.0
C740 C 0.30985 0.89866 0.92336 0.0
C741 C 0.35186 0.87817 0.96957 0.0
C742 C 0.11804 0.65435 0.98917 0.0
C743 C 0.13961 0.63733 0.96314 0.0
C744 C 0.07033 0.6253 -0.00077 0.0
C745 C 0.11284 0.59195 0.94689 0.0
C746 C 0.04476 0.58011 0.9824 0.0
N747 N 0.06636 0.56453 0.95676 0.0
C748 C 0.27158 0.70492 0.04255 0.0
C749 C 0.27265 0.72389 0.97419 0.0
C750 C 0.30861 0.69558 0.0363 0.0
N751 N 0.25539 0.72 0.01176 0.0
C752 C 0.31031 0.71626 0.96683 0.0
C753 C 0.33001 0.7032 -0.00172 0.0
H754 H 0.25702 0.70186 0.07214 0.0
H755 H 0.25888 0.73568 0.95017 0.0
C756 C 0.1373 0.79435 0.90864 0.0
N757 N 0.14233 0.75709 0.92026 0.0
C758 C 0.15438 0.8156 0.87154 0.0
C759 C 0.17662 0.75652 0.85769 0.0
C760 C 0.15947 0.73664 0.8951 0.0
C761 C 0.17709 0.79842 0.84667 0.0
H762 H 0.12615 0.81168 0.92995 0.0
H763 H 0.1652 0.70865 0.90571 0.0
O764 O 0.20574 0.77256 0.06752 0.0
O765 O 0.13573 0.78969 0.01174 0.0
O766 O 0.22501 0.79134 0.97731 0.0
O767 O 0.1439 0.69833 0.00609 0.0
H768 H 0.17862 0.82473 0.10765 0.0
H769 H 0.29446 0.79967 0.08635 0.0
H770 H 0.22959 0.88896 0.155 0.0
H771 H 0.34333 0.86417 0.1342 0.0
H772 H 0.98697 0.68477 0.96843 0.0
H773 H 0.096 0.84168 0.02642 0.0
H774 H 0.07084 0.70802 0.97992 0.0
H775 H 0.01175 0.81655 0.01342 0.0
H776 H 0.34621 0.97804 0.02898 0.0
H777 H 0.21677 0.96104 0.97835 0.0
H778 H 0.03827 0.61939 0.14933 0.0
H779 H 0.01493 0.73815 0.13196 0.0
H780 H 0.23427 0.85355 0.92192 0.0
H781 H 0.31035 0.81679 0.00612 0.0
H782 H 0.31034 0.92238 0.90052 0.0
H783 H 0.38519 0.88592 0.9829 0.0
H784 H 0.17661 0.65891 0.95549 0.0
H785 H 0.05319 0.63748 0.01991 0.0
H786 H 0.12907 0.57849 0.92653 0.0
H787 H 0.00779 0.55736 0.98982 0.0
H788 H 0.32126 0.68416 0.06141 0.0
H789 H 0.32535 0.72344 0.93714 0.0
H790 H 0.15401 0.8478 0.86434 0.0
H791 H 0.19232 0.74108 0.83883 0.0
Li792 Li 0.39075 0.20282 0.35571 0.0
Li793 Li 0.39806 0.13788 0.37935 0.0
Li794 Li 0.46961 0.21184 0.34981 0.0
Li795 Li 0.4003 0.1554 0.30741 0.0
C796 C 0.42547 0.23196 0.42677 0.0
N797 N 0.40897 0.28672 0.48005 0.0
C798 C 0.38176 0.21309 0.44609 0.0
C799 C 0.46096 0.27848 0.43472 0.0
C800 C 0.37405 0.24143 0.47284 0.0
C801 C 0.45189 0.30563 0.46176 0.0
C802 C 0.31329 0.08853 0.33762 0.0
C803 C 0.29193 0.01044 0.31385 0.0
N804 N 0.24587 0.99507 0.32307 0.0
C805 C 0.26561 0.07208 0.34636 0.0
C806 C 0.32644 0.05759 0.32082 0.0
C807 C 0.23212 0.02467 0.339 0.0
C808 C 0.31435 0.21303 0.33829 0.0
N809 N 0.35701 0.23702 0.35693 0.0
C810 C 0.35315 0.30844 0.35547 0.0
C811 C 0.37628 0.28373 0.36641 0.0
C812 C 0.30975 0.28456 0.33507 0.0
C813 C 0.28987 0.23605 0.32736 0.0
H814 H 0.30046 0.17656 0.32961 0.0
H815 H 0.41086 0.30261 0.38005 0.0
C816 C 0.40919 0.07907 0.43794 0.0
N817 N 0.3784 0.08978 0.4198 0.0
C818 C 0.39339 0.04447 0.46803 0.0
C819 C 0.31444 0.03157 0.45895 0.0
C820 C 0.33209 0.06755 0.43053 0.0
C821 C 0.3451 0.01972 0.47903 0.0
H822 H 0.44616 0.09787 0.42945 0.0
H823 H 0.30858 0.07794 0.41728 0.0
C824 C 0.43833 0.26642 0.29816 0.0
N825 N 0.446 0.35121 0.27418 0.0
C826 C 0.40864 0.26701 0.26835 0.0
C827 C 0.47185 0.30906 0.31588 0.0
C828 C 0.41303 0.31018 0.25666 0.0
C829 C 0.47526 0.35154 0.30326 0.0
C830 C 0.46355 0.11684 0.32205 0.0
C831 C 0.50218 0.13826 0.29606 0.0
C832 C 0.44459 0.06907 0.33215 0.0
C833 C 0.52053 0.11128 0.27986 0.0
C834 C 0.46397 0.04328 0.31537 0.0
N835 N 0.50119 0.06474 0.28975 0.0
C836 C 0.56715 0.27046 0.37539 0.0
C837 C 0.54921 0.27156 0.30706 0.0
C838 C 0.61359 0.30743 0.3691 0.0
N839 N 0.53583 0.25432 0.34465 0.0
C840 C 0.59456 0.30917 0.29965 0.0
C841 C 0.62738 0.32885 0.33107 0.0
H842 H 0.55565 0.25592 0.405 0.0
H843 H 0.52361 0.25781 0.28306 0.0
C844 C 0.34354 0.13725 0.2415 0.0
N845 N 0.38558 0.14176 0.2531 0.0
C846 C 0.33964 0.15452 0.20441 0.0
C847 C 0.42068 0.17588 0.19054 0.0
C848 C 0.42314 0.15856 0.22794 0.0
C849 C 0.37956 0.1769 0.17953 0.0
H850 H 0.31511 0.12637 0.26282 0.0
H851 H 0.4567 0.16389 0.23855 0.0
O852 O 0.43362 0.20484 0.40045 0.0
O853 O 0.34637 0.13506 0.34457 0.0
O854 O 0.43425 0.22435 0.31028 0.0
O855 O 0.44566 0.14291 0.33891 0.0
H856 H 0.35401 0.17705 0.44022 0.0
H857 H 0.49501 0.29348 0.42 0.0
H858 H 0.3403 0.22744 0.48787 0.0
H859 H 0.47892 0.34177 0.46812 0.0
H860 H 0.30173 0.98615 0.30091 0.0
H861 H 0.25467 0.09559 0.35916 0.0
H862 H 0.3627 0.06995 0.31262 0.0
H863 H 0.1952 0.01141 0.34595 0.0
H864 H 0.36935 0.34589 0.36218 0.0
H865 H 0.25666 0.21652 0.3114 0.0
H866 H 0.41914 0.03802 0.48273 0.0
H867 H 0.27681 0.01349 0.46468 0.0
H868 H 0.38205 0.23449 0.25476 0.0
H869 H 0.49439 0.30939 0.33968 0.0
H870 H 0.39008 0.31103 0.23375 0.0
H871 H 0.50092 0.38472 0.31682 0.0
H872 H 0.51783 0.17531 0.28838 0.0
H873 H 0.41524 0.05205 0.35281 0.0
H874 H 0.55025 0.12738 0.25951 0.0
H875 H 0.44951 0.00626 0.32281 0.0
H876 H 0.6377 0.32002 0.39418 0.0
H877 H 0.60241 0.3242 0.26996 0.0
H878 H 0.3073 0.15457 0.19722 0.0
H879 H 0.45182 0.19131 0.17168 0.0
Li880 Li 0.26211 0.39862 0.71303 0.0
Li881 Li 0.1898 0.39111 0.68944 0.0
Li882 Li 0.24692 0.40117 0.64112 0.0
Li883 Li 0.25954 0.47021 0.6838 0.0
C884 C 0.22686 0.31398 0.67097 0.0
N885 N 0.25303 0.24676 0.65609 0.0
C886 C 0.19564 0.26618 0.67951 0.0
C887 C 0.27101 0.32736 0.65421 0.0
C888 C 0.20963 0.2328 0.67198 0.0
C889 C 0.2837 0.29294 0.64707 0.0
C890 C 0.19518 0.42532 0.76067 0.0
C891 C 0.14767 0.45112 0.79594 0.0
N892 N 0.12377 0.40801 0.814 0.0
C893 C 0.17045 0.3814 0.77976 0.0
C894 C 0.18397 0.4606 0.76888 0.0
C895 C 0.13431 0.37328 0.80654 0.0
C896 C 0.332 0.40969 0.77159 0.0
N897 N 0.29058 0.37887 0.75334 0.0
C898 C 0.285 0.31469 0.79207 0.0
C899 C 0.2666 0.33243 0.76382 0.0
C900 C 0.32745 0.34536 0.81225 0.0
C901 C 0.35086 0.39379 0.80154 0.0
H902 H 0.35009 0.44675 0.76331 0.0
H903 H 0.23274 0.30887 0.7505 0.0
C904 C 0.10331 0.31455 0.67169 0.0
N905 N 0.12186 0.3571 0.69056 0.0
C906 C 0.05583 0.28995 0.66072 0.0
C907 C 0.04649 0.35291 0.68922 0.0
C908 C 0.09433 0.37617 0.70019 0.0
C909 C 0.02709 0.30961 0.66861 0.0
H910 H 0.12598 0.30085 0.66289 0.0
H911 H 0.10994 0.41068 0.71399 0.0
C912 C 0.34865 0.46463 0.65591 0.0
N913 N 0.43842 0.50259 0.62363 0.0
C914 C 0.36585 0.50336 0.62999 0.0
C915 C 0.37748 0.44572 0.66594 0.0
C916 C 0.4112 0.52187 0.61381 0.0
C917 C 0.42265 0.46526 0.64917 0.0
C918 C 0.17375 0.43884 0.63207 0.0
C919 C 0.14361 0.40923 0.60214 0.0
C920 C 0.16445 0.47215 0.64993 0.0
C921 C 0.10478 0.41347 0.59047 0.0
C922 C 0.12535 0.47543 0.63733 0.0
N923 N 0.09655 0.44624 0.60813 0.0
C924 C 0.20859 0.34458 0.57505 0.0
C925 C 0.26657 0.42446 0.56168 0.0
C926 C 0.18746 0.34062 0.53795 0.0
N927 N 0.24595 0.38675 0.58675 0.0
C928 C 0.24682 0.42194 0.52426 0.0
C929 C 0.20487 0.38062 0.51313 0.0
H930 H 0.19111 0.31602 0.59629 0.0
H931 H 0.29464 0.45811 0.57237 0.0
C932 C 0.29798 0.56771 0.70964 0.0
N933 N 0.28309 0.53647 0.67883 0.0
C934 C 0.30728 0.61412 0.70339 0.0
C935 C 0.28693 0.59521 0.63387 0.0
C936 C 0.27935 0.5499 0.64123 0.0
C937 C 0.29979 0.62795 0.66534 0.0
H938 H 0.30092 0.55617 0.73925 0.0
H939 H 0.2677 0.52435 0.61719 0.0
O940 O 0.21336 0.34697 0.67807 0.0
O941 O 0.23053 0.43386 0.73432 0.0
O942 O 0.30468 0.44658 0.67276 0.0
O943 O 0.21178 0.43488 0.64417 0.0
H944 H 0.16115 0.25507 0.69227 0.0
H945 H 0.2949 0.36372 0.64616 0.0
H946 H 0.18597 0.19578 0.67877 0.0
H947 H 0.31784 0.30292 0.63416 0.0
H948 H 0.13842 0.47799 0.8025 0.0
H949 H 0.17888 0.35381 0.77369 0.0
H950 H 0.20293 0.49481 0.75434 0.0
H951 H 0.11464 0.33937 0.82139 0.0
H952 H 0.26555 0.27697 0.79757 0.0
H953 H 0.38299 0.41956 0.81633 0.0
H954 H 0.04225 0.25684 0.6446 0.0
H955 H 0.02516 0.36894 0.69607 0.0
H956 H 0.34443 0.51897 0.62238 0.0
H957 H 0.36516 0.41629 0.68654 0.0
H958 H 0.4248 0.55168 0.59352 0.0
H959 H 0.44524 0.45085 0.65655 0.0
H960 H 0.14968 0.3828 0.58842 0.0
H961 H 0.18657 0.49463 0.67383 0.0
H962 H 0.08108 0.39058 0.56746 0.0
H963 H 0.1177 0.50093 0.65101 0.0
H964 H 0.1552 0.30813 0.53068 0.0
H965 H 0.26243 0.45316 0.50545 0.0
H966 H 0.31857 0.63818 0.72853 0.0
H967 H 0.27985 0.60308 0.60415 0.0
Li968 Li 0.79995 0.18902 0.02274 0.0
Li969 Li 0.86462 0.26141 0.04649 0.0
Li970 Li 0.79068 0.25877 0.01683 0.0
Li971 Li 0.84734 0.24617 0.97453 0.0
C972 C 0.77015 0.19442 0.09361 0.0
N973 N 0.71459 0.12304 0.14655 0.0
C974 C 0.78862 0.16937 0.11321 0.0
C975 C 0.72364 0.18354 0.10111 0.0
C976 C 0.75987 0.13325 0.13979 0.0
C977 C 0.69607 0.14726 0.12798 0.0
C978 C 0.91428 0.22631 0.0049 0.0
C979 C 0.99229 0.28342 0.98135 0.0
N980 N 0.00784 0.25288 0.99065 0.0
C981 C 0.93091 0.19523 0.01373 0.0
C982 C 0.9451 0.27053 0.98817 0.0
C983 C 0.97837 0.20942 0.00652 0.0
C984 C 0.79004 0.1024 0.00533 0.0
N985 N 0.76596 0.12101 0.02391 0.0
C986 C 0.69468 0.0456 0.02231 0.0
C987 C 0.71928 0.09348 0.0333 0.0
C988 C 0.71863 0.02615 0.00193 0.0
C989 C 0.76712 0.05488 0.99433 0.0
H990 H 0.82649 0.12506 -0.00327 0.0
H991 H 0.70032 0.10913 0.04687 0.0
C992 C 0.92375 0.33168 0.10482 0.0
N993 N 0.91262 0.28988 0.08695 0.0
C994 C 0.95845 0.35051 0.13481 0.0
C995 C 0.97053 0.28383 0.12621 0.0
C996 C 0.93446 0.26549 0.09789 0.0
C997 C 0.98286 0.32668 0.14598 0.0
H998 H 0.90526 0.3501 0.09616 0.0
H999 H 0.92374 0.23138 0.08484 0.0
C1000 C 0.73666 0.17279 0.96492 0.0
N1001 N 0.65244 0.09527 0.94051 0.0
C1002 C 0.73657 0.1426 0.93523 0.0
C1003 C 0.6938 0.16336 0.9823 0.0
C1004 C 0.69369 0.10361 0.92332 0.0
C1005 C 0.65162 0.1241 0.96947 0.0
C1006 C 0.88539 0.34798 0.98913 0.0
C1007 C 0.86381 0.36498 0.96311 0.0
C1008 C 0.93311 0.37704 -0.0008 0.0
C1009 C 0.89056 0.41036 0.94686 0.0
C1010 C 0.95865 0.42224 0.98236 0.0
N1011 N 0.93703 0.4378 0.95673 0.0
C1012 C 0.73189 0.29744 0.04244 0.0
C1013 C 0.73077 0.27839 0.9741 0.0
C1014 C 0.69486 0.30678 0.03619 0.0
N1015 N 0.74805 0.28231 0.01168 0.0
C1016 C 0.69311 0.28601 0.96673 0.0
C1017 C 0.67343 0.29912 -0.00183 0.0
H1018 H 0.74646 0.30054 0.07203 0.0
H1019 H 0.74452 0.26656 0.9501 0.0
C1020 C 0.8662 0.20798 0.90863 0.0
N1021 N 0.86118 0.24524 0.92025 0.0
C1022 C 0.84913 0.18673 0.87153 0.0
C1023 C 0.82694 0.24584 0.85767 0.0
C1024 C 0.84407 0.26571 0.89508 0.0
C1025 C 0.82644 0.20393 0.84664 0.0
H1026 H 0.87733 0.19063 0.92994 0.0
H1027 H 0.83834 0.29371 0.90569 0.0
O1028 O 0.79768 0.22977 0.06747 0.0
O1029 O 0.86773 0.21264 0.01175 0.0
O1030 O 0.77846 0.21098 0.97726 0.0
O1031 O 0.85955 0.304 0.00605 0.0
H1032 H 0.82465 0.17755 0.1077 0.0
H1033 H 0.70895 0.20275 0.08617 0.0
H1034 H 0.77354 0.11334 0.15503 0.0
H1035 H 0.65993 0.13827 0.13399 0.0
H1036 H 0.01649 0.31761 0.96847 0.0
H1037 H 0.9075 0.1607 0.02648 0.0
H1038 H 0.93261 0.29432 0.97992 0.0
H1039 H 0.99176 0.18587 0.01353 0.0
H1040 H 0.65725 0.02429 0.02896 0.0
H1041 H 0.78672 0.04128 0.97838 0.0
H1042 H 0.96526 0.38299 0.14926 0.0
H1043 H 0.98832 0.26402 0.13207 0.0
H1044 H 0.76926 0.14874 0.92191 0.0
H1045 H 0.69309 0.1855 0.00601 0.0
H1046 H 0.69323 0.07989 0.9005 0.0
H1047 H 0.61828 0.11635 0.98278 0.0
H1048 H 0.82681 0.34339 0.95545 0.0
H1049 H 0.95025 0.36488 0.01987 0.0
H1050 H 0.87432 0.42381 0.9265 0.0
H1051 H 0.99562 0.445 0.98978 0.0
H1052 H 0.68223 0.31825 0.06129 0.0
H1053 H 0.67806 0.2788 0.93705 0.0
H1054 H 0.84949 0.15453 0.86432 0.0
H1055 H 0.81125 0.26129 0.8388 0.0
loop_
_geom_bond_atom_site_label_1
_geom_bond_atom_site_label_2
_geom_bond_distance
_geom_bond_site_symmetry_2
_ccdc_geom_bond_type
Li0 N17 1.990 . S
Li0 O60 1.956 . S
Li0 O61 1.970 . S
Li0 O62 1.961 . S
Li1 N25 1.990 . S
Li1 O60 1.970 . S
Li1 O61 1.956 . S
Li1 O63 1.961 . S
Li2 N47 1.990 . S
Li2 O60 1.961 . S
Li2 O62 1.956 . S
Li2 O63 1.970 . S
Li3 N53 1.990 . S
Li3 O61 1.961 . S
Li3 O62 1.970 . S
Li3 O63 1.956 . S
C4 C6 1.348 . S
C4 C7 1.356 . S
C4 O60 1.325 . S
N5 C8 1.314 . S
N5 C9 1.279 . S
C6 C4 1.348 . S
C6 C8 1.353 . S
C6 H64 0.929 . S
C7 C4 1.356 . S
C7 C9 1.358 . S
C7 H65 0.930 . S
C8 N5 1.314 . S
C8 C6 1.353 . S
C8 H66 0.930 . S
C9 N5 1.279 . S
C9 C7 1.358 . S
C9 H67 0.930 . S
C10 C13 1.348 . S
C10 C14 1.356 . S
C10 O61 1.325 . S
C11 N12 1.279 . S
C11 C14 1.358 . S
C11 H68 0.930 . S
N12 C11 1.279 . S
N12 C15 1.314 . S
C13 C10 1.348 . S
C13 C15 1.353 . S
C13 H69 0.929 . S
C14 C10 1.356 . S
C14 C11 1.358 . S
C14 H70 0.930 . S
C15 N12 1.314 . S
C15 C13 1.353 . S
C15 H71 0.930 . S
C16 N17 1.314 . S
C16 C21 1.353 . S
C16 H22 0.930 . S
N17 Li0 1.990 . S
N17 C16 1.314 . S
N17 C19 1.279 . S
C18 C19 1.358 . S
C18 C20 1.356 . S
C18 H72 0.930 . S
C19 N17 1.279 . S
C19 C18 1.358 . S
C19 H23 0.930 . S
C20 C18 1.356 . S
C20 C21 1.348 . S
C21 C16 1.353 . S
C21 C20 1.348 . S
C21 H73 0.929 . S
H22 C16 0.930 . S
H23 C19 0.930 . S
C24 N25 1.314 . S
C24 C26 1.353 . S
C24 H30 0.930 . S
N25 Li1 1.990 . S
N25 C24 1.314 . S
N25 C28 1.279 . S
C26 C24 1.353 . S
C26 C29 1.348 . S
C26 H74 0.929 . S
C27 C28 1.358 . S
C27 C29 1.356 . S
C27 H75 0.930 . S
C28 N25 1.279 . S
C28 C27 1.358 . S
C28 H31 0.930 . S
C29 C26 1.348 . S
C29 C27 1.356 . S
H30 C24 0.930 . S
H31 C28 0.930 . S
C32 C34 1.348 . S
C32 C35 1.356 . S
C32 O62 1.325 . S
N33 C36 1.314 . S
N33 C37 1.279 . S
C34 C32 1.348 . S
C34 C36 1.353 . S
C34 H76 0.929 . S
C35 C32 1.356 . S
C35 C37 1.358 . S
C35 H77 0.930 . S
C36 N33 1.314 . S
C36 C34 1.353 . S
C36 H78 0.930 . S
C37 N33 1.279 . S
C37 C35 1.358 . S
C37 H79 0.930 . S
C38 C39 1.348 . S
C38 C40 1.356 . S
C38 O63 1.325 . S
C39 C38 1.348 . S
C39 C41 1.353 . S
C39 H80 0.929 . S
C40 C38 1.356 . S
C40 C42 1.358 . S
C40 H81 0.930 . S
C41 C39 1.353 . S
C41 N43 1.314 . S
C41 H82 0.930 . S
C42 C40 1.358 . S
C42 N43 1.279 . S
C42 H83 0.930 1_455 S
N43 C41 1.314 . S
N43 C42 1.279 . S
C44 C46 1.353 . S
C44 N47 1.314 . S
C44 H50 0.930 . S
C45 N47 1.279 . S
C45 C48 1.358 . S
C45 H51 0.930 . S
C46 C44 1.353 . S
C46 C49 1.348 . S
C46 H84 0.929 . S
N47 Li2 1.990 . S
N47 C44 1.314 . S
N47 C45 1.279 . S
C48 C45 1.358 . S
C48 C49 1.356 . S
C48 H85 0.930 . S
C49 C46 1.348 . S
C49 C48 1.356 . S
H50 C44 0.930 . S
H51 C45 0.930 . S
C52 N53 1.314 . S
C52 C54 1.353 . S
C52 H58 0.930 . S
N53 Li3 1.990 . S
N53 C52 1.314 . S
N53 C56 1.279 . S
C54 C52 1.353 . S
C54 C57 1.348 . S
C54 H86 0.929 . S
C55 C56 1.358 . S
C55 C57 1.356 . S
C55 H87 0.930 1_455 S
C56 N53 1.279 . S
C56 C55 1.358 . S
C56 H59 0.930 . S
C57 C54 1.348 . S
C57 C55 1.356 . S
H58 C52 0.930 . S
H59 C56 0.930 . S
O60 Li0 1.956 . S
O60 Li1 1.970 . S
O60 Li2 1.961 . S
O60 C4 1.325 . S
O61 Li0 1.970 . S
O61 Li1 1.956 . S
O61 Li3 1.961 . S
O61 C10 1.325 . S
O62 Li0 1.961 . S
O62 Li2 1.956 . S
O62 Li3 1.970 . S
O62 C32 1.325 . S
O63 Li1 1.961 . S
O63 Li2 1.970 . S
O63 Li3 1.956 . S
O63 C38 1.325 . S
H64 C6 0.929 . S
H65 C7 0.930 . S
H66 C8 0.930 . S
H67 C9 0.930 . S
H68 C11 0.930 . S
H69 C13 0.929 . S
H70 C14 0.930 . S
H71 C15 0.930 . S
H72 C18 0.930 . S
H73 C21 0.929 . S
H74 C26 0.929 . S
H75 C27 0.930 . S
H76 C34 0.929 . S
H77 C35 0.930 . S
H78 C36 0.930 . S
H79 C37 0.930 . S
H80 C39 0.929 . S
H81 C40 0.930 . S
H82 C41 0.930 . S
H83 C42 0.930 1_655 S
H84 C46 0.929 . S
H85 C48 0.930 . S
H86 C54 0.929 . S
H87 C55 0.930 1_655 S
Li88 N105 1.990 . S
Li88 O148 1.956 . S
Li88 O149 1.970 . S
Li88 O150 1.961 . S
Li89 N113 1.990 . S
Li89 O148 1.970 . S
Li89 O149 1.956 . S
Li89 O151 1.961 . S
Li90 N135 1.990 . S
Li90 O148 1.961 . S
Li90 O150 1.956 . S
Li90 O151 1.970 . S
Li91 N141 1.990 . S
Li91 O149 1.961 . S
Li91 O150 1.970 . S
Li91 O151 1.956 . S
C92 C94 1.348 . S
C92 C95 1.356 . S
C92 O148 1.325 . S
N93 C96 1.314 . S
N93 C97 1.279 . S
C94 C92 1.348 . S
C94 C96 1.353 . S
C94 H152 0.929 . S
C95 C92 1.356 . S
C95 C97 1.358 . S
C95 H153 0.930 . S
C96 N93 1.314 . S
C96 C94 1.353 . S
C96 H154 0.930 . S
C97 N93 1.279 . S
C97 C95 1.358 . S
C97 H155 0.930 . S
C98 C101 1.348 . S
C98 C102 1.356 . S
C98 O149 1.325 . S
C99 N100 1.279 . S
C99 C102 1.358 . S
C99 H156 0.930 . S
N100 C99 1.279 . S
N100 C103 1.314 . S
C101 C98 1.348 . S
C101 C103 1.353 . S
C101 H157 0.929 . S
C102 C98 1.356 . S
C102 C99 1.358 . S
C102 H158 0.930 . S
C103 N100 1.314 . S
C103 C101 1.353 . S
C103 H159 0.930 . S
C104 N105 1.314 . S
C104 C109 1.353 . S
C104 H110 0.930 . S
N105 Li88 1.990 . S
N105 C104 1.314 . S
N105 C107 1.279 . S
C106 C107 1.358 . S
C106 C108 1.356 . S
C106 H160 0.930 . S
C107 N105 1.279 . S
C107 C106 1.358 . S
C107 H111 0.930 . S
C108 C106 1.356 . S
C108 C109 1.348 . S
C109 C104 1.353 . S
C109 C108 1.348 . S
C109 H161 0.929 . S
H110 C104 0.930 . S
H111 C107 0.930 . S
C112 N113 1.314 . S
C112 C114 1.353 . S
C112 H118 0.930 . S
N113 Li89 1.990 . S
N113 C112 1.314 . S
N113 C116 1.279 . S
C114 C112 1.353 . S
C114 C117 1.348 . S
C114 H162 0.929 . S
C115 C116 1.358 . S
C115 C117 1.356 . S
C115 H163 0.930 . S
C116 N113 1.279 . S
C116 C115 1.358 . S
C116 H119 0.930 . S
C117 C114 1.348 . S
C117 C115 1.356 . S
H118 C112 0.930 . S
H119 C116 0.930 . S
C120 C122 1.348 . S
C120 C123 1.356 . S
C120 O150 1.325 . S
N121 C124 1.314 . S
N121 C125 1.279 . S
C122 C120 1.348 . S
C122 C124 1.353 . S
C122 H164 0.929 . S
C123 C120 1.356 . S
C123 C125 1.358 . S
C123 H165 0.930 . S
C124 N121 1.314 . S
C124 C122 1.353 . S
C124 H166 0.930 . S
C125 N121 1.279 . S
C125 C123 1.358 . S
C125 H167 0.930 . S
C126 C127 1.348 . S
C126 C128 1.356 . S
C126 O151 1.325 . S
C127 C126 1.348 . S
C127 C129 1.353 . S
C127 H168 0.929 . S
C128 C126 1.356 . S
C128 C130 1.358 . S
C128 H169 0.930 . S
C129 C127 1.353 . S
C129 N131 1.314 . S
C129 H170 0.930 . S
C130 C128 1.358 . S
C130 N131 1.279 . S
C130 H171 0.930 1_545 S
N131 C129 1.314 . S
N131 C130 1.279 . S
C132 C134 1.353 . S
C132 N135 1.314 . S
C132 H138 0.930 . S
C133 N135 1.279 . S
C133 C136 1.358 . S
C133 H139 0.930 . S
C134 C132 1.353 . S
C134 C137 1.348 . S
C134 H172 0.929 . S
N135 Li90 1.990 . S
N135 C132 1.314 . S
N135 C133 1.279 . S
C136 C133 1.358 . S
C136 C137 1.356 . S
C136 H173 0.930 . S
C137 C134 1.348 . S
C137 C136 1.356 . S
H138 C132 0.930 . S
H139 C133 0.930 . S
C140 N141 1.314 . S
C140 C142 1.353 . S
C140 H146 0.930 . S
N141 Li91 1.990 . S
N141 C140 1.314 . S
N141 C144 1.279 . S
C142 C140 1.353 . S
C142 C145 1.348 . S
C142 H174 0.929 . S
C143 C144 1.358 . S
C143 C145 1.356 . S
C143 H175 0.930 1_545 S
C144 N141 1.279 . S
C144 C143 1.358 . S
C144 H147 0.930 . S
C145 C142 1.348 . S
C145 C143 1.356 . S
H146 C140 0.930 . S
H147 C144 0.930 . S
O148 Li88 1.956 . S
O148 Li89 1.970 . S
O148 Li90 1.961 . S
O148 C92 1.325 . S
O149 Li88 1.970 . S
O149 Li89 1.956 . S
O149 Li91 1.961 . S
O149 C98 1.325 . S
O150 Li88 1.961 . S
O150 Li90 1.956 . S
O150 Li91 1.970 . S
O150 C120 1.325 . S
O151 Li89 1.961 . S
O151 Li90 1.970 . S
O151 Li91 1.956 . S
O151 C126 1.325 . S
H152 C94 0.929 . S
H153 C95 0.930 . S
H154 C96 0.930 . S
H155 C97 0.930 . S
H156 C99 0.930 . S
H157 C101 0.929 . S
H158 C102 0.930 . S
H159 C103 0.930 . S
H160 C106 0.930 . S
H161 C109 0.929 . S
H162 C114 0.929 . S
H163 C115 0.930 . S
H164 C122 0.929 . S
H165 C123 0.930 . S
H166 C124 0.930 . S
H167 C125 0.930 . S
H168 C127 0.929 . S
H169 C128 0.930 . S
H170 C129 0.930 . S
H171 C130 0.930 1_565 S
H172 C134 0.929 . S
H173 C136 0.930 . S
H174 C142 0.929 . S
H175 C143 0.930 1_565 S
Li176 N193 1.990 . S
Li176 O236 1.956 . S
Li176 O237 1.970 . S
Li176 O238 1.961 . S
Li177 N201 1.990 . S
Li177 O236 1.970 1_556 S
Li177 O237 1.956 1_556 S
Li177 O239 1.961 . S
Li178 N223 1.990 . S
Li178 O236 1.961 1_556 S
Li178 O238 1.956 1_556 S
Li178 O239 1.970 . S
Li179 N229 1.990 . S
Li179 O237 1.961 1_556 S
Li179 O238 1.970 1_556 S
Li179 O239 1.956 . S
C180 C182 1.348 . S
C180 C183 1.356 . S
C180 O236 1.325 . S
N181 C184 1.314 . S
N181 C185 1.279 . S
C182 C180 1.348 . S
C182 C184 1.353 . S
C182 H240 0.929 . S
C183 C180 1.356 . S
C183 C185 1.358 . S
C183 H241 0.930 . S
C184 N181 1.314 . S
C184 C182 1.353 . S
C184 H242 0.930 . S
C185 N181 1.279 . S
C185 C183 1.358 . S
C185 H243 0.930 . S
C186 C189 1.348 . S
C186 C190 1.356 . S
C186 O237 1.325 . S
C187 N188 1.279 . S
C187 C190 1.358 . S
C187 H244 0.930 . S
N188 C187 1.279 . S
N188 C191 1.314 . S
C189 C186 1.348 . S
C189 C191 1.353 . S
C189 H245 0.929 . S
C190 C186 1.356 . S
C190 C187 1.358 . S
C190 H246 0.930 . S
C191 N188 1.314 . S
C191 C189 1.353 . S
C191 H247 0.930 . S
C192 N193 1.314 . S
C192 C197 1.353 . S
C192 H198 0.930 . S
N193 Li176 1.990 . S
N193 C192 1.314 . S
N193 C195 1.279 . S
C194 C195 1.358 . S
C194 C196 1.356 . S
C194 H248 0.930 . S
C195 N193 1.279 . S
C195 C194 1.358 . S
C195 H199 0.930 . S
C196 C194 1.356 . S
C196 C197 1.348 . S
C197 C192 1.353 . S
C197 C196 1.348 . S
C197 H249 0.929 . S
H198 C192 0.930 . S
H199 C195 0.930 . S
C200 N201 1.314 . S
C200 C202 1.353 . S
C200 H206 0.930 . S
N201 Li177 1.990 . S
N201 C200 1.314 . S
N201 C204 1.279 1_556 S
C202 C200 1.353 . S
C202 C205 1.348 . S
C202 H250 0.929 . S
C203 C204 1.358 1_556 S
C203 C205 1.356 . S
C203 H251 0.930 1_556 S
C204 N201 1.279 1_554 S
C204 C203 1.358 1_554 S
C204 H207 0.930 . S
C205 C202 1.348 . S
C205 C203 1.356 . S
H206 C200 0.930 . S
H207 C204 0.930 . S
C208 C210 1.348 . S
C208 C211 1.356 . S
C208 O238 1.325 . S
N209 C212 1.314 . S
N209 C213 1.279 . S
C210 C208 1.348 . S
C210 C212 1.353 . S
C210 H252 0.929 1_554 S
C211 C208 1.356 . S
C211 C213 1.358 . S
C211 H253 0.930 . S
C212 N209 1.314 . S
C212 C210 1.353 . S
C212 H254 0.930 . S
C213 N209 1.279 . S
C213 C211 1.358 . S
C213 H255 0.930 . S
C214 C215 1.348 . S
C214 C216 1.356 . S
C214 O239 1.325 . S
C215 C214 1.348 . S
C215 C217 1.353 . S
C215 H256 0.929 . S
C216 C214 1.356 . S
C216 C218 1.358 . S
C216 H257 0.930 . S
C217 C215 1.353 . S
C217 N219 1.314 . S
C217 H258 0.930 . S
C218 C216 1.358 . S
C218 N219 1.279 . S
C218 H259 0.930 . S
N219 C217 1.314 . S
N219 C218 1.279 . S
C220 C222 1.353 . S
C220 N223 1.314 . S
C220 H226 0.930 . S
C221 N223 1.279 . S
C221 C224 1.358 . S
C221 H227 0.930 . S
C222 C220 1.353 . S
C222 C225 1.348 . S
C222 H260 0.929 . S
N223 Li178 1.990 . S
N223 C220 1.314 . S
N223 C221 1.279 . S
C224 C221 1.358 . S
C224 C225 1.356 . S
C224 H261 0.930 . S
C225 C222 1.348 . S
C225 C224 1.356 . S
H226 C220 0.930 . S
H227 C221 0.930 . S
C228 N229 1.314 1_554 S
C228 C230 1.353 . S
C228 H234 0.930 . S
N229 Li179 1.990 . S
N229 C228 1.314 1_556 S
N229 C232 1.279 . S
C230 C228 1.353 . S
C230 C233 1.348 1_554 S
C230 H262 0.929 . S
C231 C232 1.358 . S
C231 C233 1.356 . S
C231 H263 0.930 . S
C232 N229 1.279 . S
C232 C231 1.358 . S
C232 H235 0.930 . S
C233 C230 1.348 1_556 S
C233 C231 1.356 . S
H234 C228 0.930 . S
H235 C232 0.930 . S
O236 Li176 1.956 . S
O236 Li177 1.970 1_554 S
O236 Li178 1.961 1_554 S
O236 C180 1.325 . S
O237 Li176 1.970 . S
O237 Li177 1.956 1_554 S
O237 Li179 1.961 1_554 S
O237 C186 1.325 . S
O238 Li176 1.961 . S
O238 Li178 1.956 1_554 S
O238 Li179 1.970 1_554 S
O238 C208 1.325 . S
O239 Li177 1.961 . S
O239 Li178 1.970 . S
O239 Li179 1.956 . S
O239 C214 1.325 . S
H240 C182 0.929 . S
H241 C183 0.930 . S
H242 C184 0.930 . S
H243 C185 0.930 . S
H244 C187 0.930 . S
H245 C189 0.929 . S
H246 C190 0.930 . S
H247 C191 0.930 . S
H248 C194 0.930 . S
H249 C197 0.929 . S
H250 C202 0.929 . S
H251 C203 0.930 1_554 S
H252 C210 0.929 1_556 S
H253 C211 0.930 . S
H254 C212 0.930 . S
H255 C213 0.930 . S
H256 C215 0.929 . S
H257 C216 0.930 . S
H258 C217 0.930 . S
H259 C218 0.930 . S
H260 C222 0.929 . S
H261 C224 0.930 . S
H262 C230 0.929 . S
H263 C231 0.930 . S
Li264 N281 1.990 . S
Li264 O324 1.956 . S
Li264 O325 1.970 . S
Li264 O326 1.961 . S
Li265 N289 1.990 . S
Li265 O324 1.970 . S
Li265 O325 1.956 . S
Li265 O327 1.961 . S
Li266 N311 1.990 . S
Li266 O324 1.961 . S
Li266 O326 1.956 . S
Li266 O327 1.970 . S
Li267 N317 1.990 . S
Li267 O325 1.961 . S
Li267 O326 1.970 . S
Li267 O327 1.956 . S
C268 C270 1.348 . S
C268 C271 1.356 . S
C268 O324 1.325 . S
N269 C272 1.314 . S
N269 C273 1.279 . S
C270 C268 1.348 . S
C270 C272 1.353 . S
C270 H328 0.929 . S
C271 C268 1.356 . S
C271 C273 1.358 . S
C271 H329 0.930 . S
C272 N269 1.314 . S
C272 C270 1.353 . S
C272 H330 0.930 . S
C273 N269 1.279 . S
C273 C271 1.358 . S
C273 H331 0.930 . S
C274 C277 1.348 . S
C274 C278 1.356 . S
C274 O325 1.325 . S
C275 N276 1.279 . S
C275 C278 1.358 . S
C275 H332 0.930 . S
N276 C275 1.279 . S
N276 C279 1.314 . S
C277 C274 1.348 . S
C277 C279 1.353 . S
C277 H333 0.929 . S
C278 C274 1.356 . S
C278 C275 1.358 . S
C278 H334 0.930 . S
C279 N276 1.314 . S
C279 C277 1.353 . S
C279 H335 0.930 . S
C280 N281 1.314 . S
C280 C285 1.353 . S
C280 H286 0.930 . S
N281 Li264 1.990 . S
N281 C280 1.314 . S
N281 C283 1.279 . S
C282 C283 1.358 . S
C282 C284 1.356 . S
C282 H336 0.930 . S
C283 N281 1.279 . S
C283 C282 1.358 . S
C283 H287 0.930 . S
C284 C282 1.356 . S
C284 C285 1.348 . S
C285 C280 1.353 . S
C285 C284 1.348 . S
C285 H337 0.929 . S
H286 C280 0.930 . S
H287 C283 0.930 . S
C288 N289 1.314 . S
C288 C290 1.353 . S
C288 H294 0.930 . S
N289 Li265 1.990 . S
N289 C288 1.314 . S
N289 C292 1.279 . S
C290 C288 1.353 . S
C290 C293 1.348 . S
C290 H338 0.929 . S
C291 C292 1.358 . S
C291 C293 1.356 . S
C291 H339 0.930 . S
C292 N289 1.279 . S
C292 C291 1.358 . S
C292 H295 0.930 . S
C293 C290 1.348 . S
C293 C291 1.356 . S
H294 C288 0.930 . S
H295 C292 0.930 . S
C296 C298 1.348 . S
C296 C299 1.356 . S
C296 O326 1.325 . S
N297 C300 1.314 . S
N297 C301 1.279 . S
C298 C296 1.348 . S
C298 C300 1.353 . S
C298 H340 0.929 . S
C299 C296 1.356 . S
C299 C301 1.358 . S
C299 H341 0.930 . S
C300 N297 1.314 . S
C300 C298 1.353 . S
C300 H342 0.930 . S
C301 N297 1.279 . S
C301 C299 1.358 . S
C301 H343 0.930 1_655 S
C302 C303 1.348 . S
C302 C304 1.356 . S
C302 O327 1.325 . S
C303 C302 1.348 . S
C303 C305 1.353 . S
C303 H344 0.929 . S
C304 C302 1.356 . S
C304 C306 1.358 . S
C304 H345 0.930 . S
C305 C303 1.353 . S
C305 N307 1.314 . S
C305 H346 0.930 . S
C306 C304 1.358 . S
C306 N307 1.279 . S
C306 H347 0.930 . S
N307 C305 1.314 . S
N307 C306 1.279 . S
C308 C310 1.353 . S
C308 N311 1.314 . S
C308 H314 0.930 . S
C309 N311 1.279 . S
C309 C312 1.358 . S
C309 H315 0.930 . S
C310 C308 1.353 . S
C310 C313 1.348 . S
C310 H348 0.929 . S
N311 Li266 1.990 . S
N311 C308 1.314 . S
N311 C309 1.279 . S
C312 C309 1.358 . S
C312 C313 1.356 . S
C312 H349 0.930 1_655 S
C313 C310 1.348 . S
C313 C312 1.356 . S
H314 C308 0.930 . S
H315 C309 0.930 . S
C316 N317 1.314 . S
C316 C318 1.353 . S
C316 H322 0.930 . S
N317 Li267 1.990 . S
N317 C316 1.314 . S
N317 C320 1.279 . S
C318 C316 1.353 . S
C318 C321 1.348 . S
C318 H350 0.929 . S
C319 C320 1.358 . S
C319 C321 1.356 . S
C319 H351 0.930 . S
C320 N317 1.279 . S
C320 C319 1.358 . S
C320 H323 0.930 . S
C321 C318 1.348 . S
C321 C319 1.356 . S
H322 C316 0.930 . S
H323 C320 0.930 . S
O324 Li264 1.956 . S
O324 Li265 1.970 . S
O324 Li266 1.961 . S
O324 C268 1.325 . S
O325 Li264 1.970 . S
O325 Li265 1.956 . S
O325 Li267 1.961 . S
O325 C274 1.325 . S
O326 Li264 1.961 . S
O326 Li266 1.956 . S
O326 Li267 1.970 . S
O326 C296 1.325 . S
O327 Li265 1.961 . S
O327 Li266 1.970 . S
O327 Li267 1.956 . S
O327 C302 1.325 . S
H328 C270 0.929 . S
H329 C271 0.930 . S
H330 C272 0.930 . S
H331 C273 0.930 . S
H332 C275 0.930 . S
H333 C277 0.929 . S
H334 C278 0.930 . S
H335 C279 0.930 . S
H336 C282 0.930 . S
H337 C285 0.929 . S
H338 C290 0.929 . S
H339 C291 0.930 . S
H340 C298 0.929 . S
H341 C299 0.930 . S
H342 C300 0.930 . S
H343 C301 0.930 1_455 S
H344 C303 0.929 . S
H345 C304 0.930 . S
H346 C305 0.930 . S
H347 C306 0.930 . S
H348 C310 0.929 . S
H349 C312 0.930 1_455 S
H350 C318 0.929 . S
H351 C319 0.930 . S
Li352 N369 1.990 . S
Li352 O412 1.956 . S
Li352 O413 1.970 . S
Li352 O414 1.961 . S
Li353 N377 1.990 . S
Li353 O412 1.970 . S
Li353 O413 1.956 . S
Li353 O415 1.961 . S
Li354 N399 1.990 . S
Li354 O412 1.961 . S
Li354 O414 1.956 . S
Li354 O415 1.970 . S
Li355 N405 1.990 . S
Li355 O413 1.961 . S
Li355 O414 1.970 . S
Li355 O415 1.956 . S
C356 C358 1.348 . S
C356 C359 1.356 . S
C356 O412 1.325 . S
N357 C360 1.314 . S
N357 C361 1.279 . S
C358 C356 1.348 . S
C358 C360 1.353 . S
C358 H416 0.929 . S
C359 C356 1.356 . S
C359 C361 1.358 . S
C359 H417 0.930 . S
C360 N357 1.314 . S
C360 C358 1.353 . S
C360 H418 0.930 . S
C361 N357 1.279 . S
C361 C359 1.358 . S
C361 H419 0.930 . S
C362 C365 1.348 . S
C362 C366 1.356 . S
C362 O413 1.325 . S
C363 N364 1.279 . S
C363 C366 1.358 . S
C363 H420 0.930 . S
N364 C363 1.279 . S
N364 C367 1.314 . S
C365 C362 1.348 . S
C365 C367 1.353 . S
C365 H421 0.929 . S
C366 C362 1.356 . S
C366 C363 1.358 . S
C366 H422 0.930 . S
C367 N364 1.314 . S
C367 C365 1.353 . S
C367 H423 0.930 . S
C368 N369 1.314 . S
C368 C373 1.353 . S
C368 H374 0.930 . S
N369 Li352 1.990 . S
N369 C368 1.314 . S
N369 C371 1.279 . S
C370 C371 1.358 . S
C370 C372 1.356 . S
C370 H424 0.930 . S
C371 N369 1.279 . S
C371 C370 1.358 . S
C371 H375 0.930 . S
C372 C370 1.356 . S
C372 C373 1.348 . S
C373 C368 1.353 . S
C373 C372 1.348 . S
C373 H425 0.929 . S
H374 C368 0.930 . S
H375 C371 0.930 . S
C376 N377 1.314 . S
C376 C378 1.353 . S
C376 H382 0.930 . S
N377 Li353 1.990 . S
N377 C376 1.314 . S
N377 C380 1.279 . S
C378 C376 1.353 . S
C378 C381 1.348 . S
C378 H426 0.929 . S
C379 C380 1.358 . S
C379 C381 1.356 . S
C379 H427 0.930 . S
C380 N377 1.279 . S
C380 C379 1.358 . S
C380 H383 0.930 . S
C381 C378 1.348 . S
C381 C379 1.356 . S
H382 C376 0.930 . S
H383 C380 0.930 . S
C384 C386 1.348 . S
C384 C387 1.356 . S
C384 O414 1.325 . S
N385 C388 1.314 . S
N385 C389 1.279 . S
C386 C384 1.348 . S
C386 C388 1.353 . S
C386 H428 0.929 . S
C387 C384 1.356 . S
C387 C389 1.358 . S
C387 H429 0.930 . S
C388 N385 1.314 . S
C388 C386 1.353 . S
C388 H430 0.930 . S
C389 N385 1.279 . S
C389 C387 1.358 . S
C389 H431 0.930 1_565 S
C390 C391 1.348 . S
C390 C392 1.356 . S
C390 O415 1.325 . S
C391 C390 1.348 . S
C391 C393 1.353 . S
C391 H432 0.929 . S
C392 C390 1.356 . S
C392 C394 1.358 . S
C392 H433 0.930 . S
C393 C391 1.353 . S
C393 N395 1.314 . S
C393 H434 0.930 . S
C394 C392 1.358 . S
C394 N395 1.279 . S
C394 H435 0.930 . S
N395 C393 1.314 . S
N395 C394 1.279 . S
C396 C398 1.353 . S
C396 N399 1.314 . S
C396 H402 0.930 . S
C397 N399 1.279 . S
C397 C400 1.358 . S
C397 H403 0.930 . S
C398 C396 1.353 . S
C398 C401 1.348 . S
C398 H436 0.929 . S
N399 Li354 1.990 . S
N399 C396 1.314 . S
N399 C397 1.279 . S
C400 C397 1.358 . S
C400 C401 1.356 . S
C400 H437 0.930 1_565 S
C401 C398 1.348 . S
C401 C400 1.356 . S
H402 C396 0.930 . S
H403 C397 0.930 . S
C404 N405 1.314 . S
C404 C406 1.353 . S
C404 H410 0.930 . S
N405 Li355 1.990 . S
N405 C404 1.314 . S
N405 C408 1.279 . S
C406 C404 1.353 . S
C406 C409 1.348 . S
C406 H438 0.929 . S
C407 C408 1.358 . S
C407 C409 1.356 . S
C407 H439 0.930 . S
C408 N405 1.279 . S
C408 C407 1.358 . S
C408 H411 0.930 . S
C409 C406 1.348 . S
C409 C407 1.356 . S
H410 C404 0.930 . S
H411 C408 0.930 . S
O412 Li352 1.956 . S
O412 Li353 1.970 . S
O412 Li354 1.961 . S
O412 C356 1.325 . S
O413 Li352 1.970 . S
O413 Li353 1.956 . S
O413 Li355 1.961 . S
O413 C362 1.325 . S
O414 Li352 1.961 . S
O414 Li354 1.956 . S
O414 Li355 1.970 . S
O414 C384 1.325 . S
O415 Li353 1.961 . S
O415 Li354 1.970 . S
O415 Li355 1.956 . S
O415 C390 1.325 . S
H416 C358 0.929 . S
H417 C359 0.930 . S
H418 C360 0.930 . S
H419 C361 0.930 . S
H420 C363 0.930 . S
H421 C365 0.929 . S
H422 C366 0.930 . S
H423 C367 0.930 . S
H424 C370 0.930 . S
H425 C373 0.929 . S
H426 C378 0.929 . S
H427 C379 0.930 . S
H428 C386 0.929 . S
H429 C387 0.930 . S
H430 C388 0.930 . S
H431 C389 0.930 1_545 S
H432 C391 0.929 . S
H433 C392 0.930 . S
H434 C393 0.930 . S
H435 C394 0.930 . S
H436 C398 0.929 . S
H437 C400 0.930 1_545 S
H438 C406 0.929 . S
H439 C407 0.930 . S
Li440 N457 1.990 . S
Li440 O500 1.956 1_556 S
Li440 O501 1.970 1_556 S
Li440 O502 1.961 . S
Li441 N465 1.990 . S
Li441 O500 1.970 . S
Li441 O501 1.956 . S
Li441 O503 1.961 . S
Li442 N487 1.990 . S
Li442 O500 1.961 1_556 S
Li442 O502 1.956 . S
Li442 O503 1.970 1_556 S
Li443 N493 1.990 . S
Li443 O501 1.961 1_556 S
Li443 O502 1.970 . S
Li443 O503 1.956 1_556 S
C444 C446 1.348 . S
C444 C447 1.356 . S
C444 O500 1.325 . S
N445 C448 1.314 . S
N445 C449 1.279 . S
C446 C444 1.348 . S
C446 C448 1.353 . S
C446 H504 0.929 . S
C447 C444 1.356 . S
C447 C449 1.358 . S
C447 H505 0.930 . S
C448 N445 1.314 . S
C448 C446 1.353 . S
C448 H506 0.930 . S
C449 N445 1.279 . S
C449 C447 1.358 . S
C449 H507 0.930 . S
C450 C453 1.348 . S
C450 C454 1.356 . S
C450 O501 1.325 . S
C451 N452 1.279 . S
C451 C454 1.358 . S
C451 H508 0.930 . S
N452 C451 1.279 . S
N452 C455 1.314 . S
C453 C450 1.348 . S
C453 C455 1.353 . S
C453 H509 0.929 . S
C454 C450 1.356 . S
C454 C451 1.358 . S
C454 H510 0.930 . S
C455 N452 1.314 . S
C455 C453 1.353 . S
C455 H511 0.930 . S
C456 N457 1.314 . S
C456 C461 1.353 . S
C456 H462 0.930 . S
N457 Li440 1.990 . S
N457 C456 1.314 . S
N457 C459 1.279 1_556 S
C458 C459 1.358 1_556 S
C458 C460 1.356 . S
C458 H512 0.930 1_556 S
C459 N457 1.279 1_554 S
C459 C458 1.358 1_554 S
C459 H463 0.930 . S
C460 C458 1.356 . S
C460 C461 1.348 . S
C461 C456 1.353 . S
C461 C460 1.348 . S
C461 H513 0.929 . S
H462 C456 0.930 . S
H463 C459 0.930 . S
C464 N465 1.314 . S
C464 C466 1.353 . S
C464 H470 0.930 . S
N465 Li441 1.990 . S
N465 C464 1.314 . S
N465 C468 1.279 . S
C466 C464 1.353 . S
C466 C469 1.348 . S
C466 H514 0.929 . S
C467 C468 1.358 . S
C467 C469 1.356 . S
C467 H515 0.930 . S
C468 N465 1.279 . S
C468 C467 1.358 . S
C468 H471 0.930 . S
C469 C466 1.348 . S
C469 C467 1.356 . S
H470 C464 0.930 . S
H471 C468 0.930 . S
C472 C474 1.348 . S
C472 C475 1.356 . S
C472 O502 1.325 . S
N473 C476 1.314 . S
N473 C477 1.279 . S
C474 C472 1.348 . S
C474 C476 1.353 . S
C474 H516 0.929 . S
C475 C472 1.356 . S
C475 C477 1.358 . S
C475 H517 0.930 . S
C476 N473 1.314 . S
C476 C474 1.353 . S
C476 H518 0.930 . S
C477 N473 1.279 . S
C477 C475 1.358 . S
C477 H519 0.930 . S
C478 C479 1.348 . S
C478 C480 1.356 . S
C478 O503 1.325 . S
C479 C478 1.348 . S
C479 C481 1.353 . S
C479 H520 0.929 1_554 S
C480 C478 1.356 . S
C480 C482 1.358 . S
C480 H521 0.930 . S
C481 C479 1.353 . S
C481 N483 1.314 . S
C481 H522 0.930 . S
C482 C480 1.358 . S
C482 N483 1.279 . S
C482 H523 0.930 . S
N483 C481 1.314 . S
N483 C482 1.279 . S
C484 C486 1.353 . S
C484 N487 1.314 1_554 S
C484 H490 0.930 . S
C485 N487 1.279 . S
C485 C488 1.358 . S
C485 H491 0.930 . S
C486 C484 1.353 . S
C486 C489 1.348 1_554 S
C486 H524 0.929 . S
N487 Li442 1.990 . S
N487 C484 1.314 1_556 S
N487 C485 1.279 . S
C488 C485 1.358 . S
C488 C489 1.356 . S
C488 H525 0.930 . S
C489 C486 1.348 1_556 S
C489 C488 1.356 . S
H490 C484 0.930 . S
H491 C485 0.930 . S
C492 N493 1.314 . S
C492 C494 1.353 . S
C492 H498 0.930 . S
N493 Li443 1.990 . S
N493 C492 1.314 . S
N493 C496 1.279 . S
C494 C492 1.353 . S
C494 C497 1.348 . S
C494 H526 0.929 . S
C495 C496 1.358 . S
C495 C497 1.356 . S
C495 H527 0.930 . S
C496 N493 1.279 . S
C496 C495 1.358 . S
C496 H499 0.930 . S
C497 C494 1.348 . S
C497 C495 1.356 . S
H498 C492 0.930 . S
H499 C496 0.930 . S
O500 Li440 1.956 1_554 S
O500 Li441 1.970 . S
O500 Li442 1.961 1_554 S
O500 C444 1.325 . S
O501 Li440 1.970 1_554 S
O501 Li441 1.956 . S
O501 Li443 1.961 1_554 S
O501 C450 1.325 . S
O502 Li440 1.961 . S
O502 Li442 1.956 . S
O502 Li443 1.970 . S
O502 C472 1.325 . S
O503 Li441 1.961 . S
O503 Li442 1.970 1_554 S
O503 Li443 1.956 1_554 S
O503 C478 1.325 . S
H504 C446 0.929 . S
H505 C447 0.930 . S
H506 C448 0.930 . S
H507 C449 0.930 . S
H508 C451 0.930 . S
H509 C453 0.929 . S
H510 C454 0.930 . S
H511 C455 0.930 . S
H512 C458 0.930 1_554 S
H513 C461 0.929 . S
H514 C466 0.929 . S
H515 C467 0.930 . S
H516 C474 0.929 . S
H517 C475 0.930 . S
H518 C476 0.930 . S
H519 C477 0.930 . S
H520 C479 0.929 1_556 S
H521 C480 0.930 . S
H522 C481 0.930 . S
H523 C482 0.930 . S
H524 C486 0.929 . S
H525 C488 0.930 . S
H526 C494 0.929 . S
H527 C495 0.930 . S
Li528 N545 1.990 . S
Li528 O588 1.956 . S
Li528 O589 1.970 . S
Li528 O590 1.961 . S
Li529 N553 1.990 . S
Li529 O588 1.970 . S
Li529 O589 1.956 . S
Li529 O591 1.961 . S
Li530 N575 1.990 . S
Li530 O588 1.961 . S
Li530 O590 1.956 . S
Li530 O591 1.970 . S
Li531 N581 1.990 . S
Li531 O589 1.961 . S
Li531 O590 1.970 . S
Li531 O591 1.956 . S
C532 C534 1.348 . S
C532 C535 1.356 . S
C532 O588 1.325 . S
N533 C536 1.314 . S
N533 C537 1.279 . S
C534 C532 1.348 . S
C534 C536 1.353 . S
C534 H592 0.929 . S
C535 C532 1.356 . S
C535 C537 1.358 . S
C535 H593 0.930 . S
C536 N533 1.314 . S
C536 C534 1.353 . S
C536 H594 0.930 . S
C537 N533 1.279 . S
C537 C535 1.358 . S
C537 H595 0.930 1_565 S
C538 C541 1.348 . S
C538 C542 1.356 . S
C538 O589 1.325 . S
C539 N540 1.279 . S
C539 C542 1.358 . S
C539 H596 0.930 . S
N540 C539 1.279 . S
N540 C543 1.314 . S
C541 C538 1.348 . S
C541 C543 1.353 . S
C541 H597 0.929 . S
C542 C538 1.356 . S
C542 C539 1.358 . S
C542 H598 0.930 . S
C543 N540 1.314 . S
C543 C541 1.353 . S
C543 H599 0.930 . S
C544 N545 1.314 . S
C544 C549 1.353 . S
C544 H550 0.930 . S
N545 Li528 1.990 . S
N545 C544 1.314 . S
N545 C547 1.279 . S
C546 C547 1.358 . S
C546 C548 1.356 . S
C546 H600 0.930 1_565 S
C547 N545 1.279 . S
C547 C546 1.358 . S
C547 H551 0.930 . S
C548 C546 1.356 . S
C548 C549 1.348 . S
C549 C544 1.353 . S
C549 C548 1.348 . S
C549 H601 0.929 . S
H550 C544 0.930 . S
H551 C547 0.930 . S
C552 N553 1.314 . S
C552 C554 1.353 . S
C552 H558 0.930 . S
N553 Li529 1.990 . S
N553 C552 1.314 . S
N553 C556 1.279 . S
C554 C552 1.353 . S
C554 C557 1.348 . S
C554 H602 0.929 . S
C555 C556 1.358 . S
C555 C557 1.356 . S
C555 H603 0.930 . S
C556 N553 1.279 . S
C556 C555 1.358 . S
C556 H559 0.930 . S
C557 C554 1.348 . S
C557 C555 1.356 . S
H558 C552 0.930 . S
H559 C556 0.930 . S
C560 C562 1.348 . S
C560 C563 1.356 . S
C560 O590 1.325 . S
N561 C564 1.314 . S
N561 C565 1.279 . S
C562 C560 1.348 . S
C562 C564 1.353 . S
C562 H604 0.929 . S
C563 C560 1.356 . S
C563 C565 1.358 . S
C563 H605 0.930 . S
C564 N561 1.314 . S
C564 C562 1.353 . S
C564 H606 0.930 . S
C565 N561 1.279 . S
C565 C563 1.358 . S
C565 H607 0.930 . S
C566 C567 1.348 . S
C566 C568 1.356 . S
C566 O591 1.325 . S
C567 C566 1.348 . S
C567 C569 1.353 . S
C567 H608 0.929 . S
C568 C566 1.356 . S
C568 C570 1.358 . S
C568 H609 0.930 . S
C569 C567 1.353 . S
C569 N571 1.314 . S
C569 H610 0.930 . S
C570 C568 1.358 . S
C570 N571 1.279 . S
C570 H611 0.930 . S
N571 C569 1.314 . S
N571 C570 1.279 . S
C572 C574 1.353 . S
C572 N575 1.314 . S
C572 H578 0.930 . S
C573 N575 1.279 . S
C573 C576 1.358 . S
C573 H579 0.930 . S
C574 C572 1.353 . S
C574 C577 1.348 . S
C574 H612 0.929 . S
N575 Li530 1.990 . S
N575 C572 1.314 . S
N575 C573 1.279 . S
C576 C573 1.358 . S
C576 C577 1.356 . S
C576 H613 0.930 . S
C577 C574 1.348 . S
C577 C576 1.356 . S
H578 C572 0.930 . S
H579 C573 0.930 . S
C580 N581 1.314 . S
C580 C582 1.353 . S
C580 H586 0.930 . S
N581 Li531 1.990 . S
N581 C580 1.314 . S
N581 C584 1.279 . S
C582 C580 1.353 . S
C582 C585 1.348 . S
C582 H614 0.929 . S
C583 C584 1.358 . S
C583 C585 1.356 . S
C583 H615 0.930 . S
C584 N581 1.279 . S
C584 C583 1.358 . S
C584 H587 0.930 . S
C585 C582 1.348 . S
C585 C583 1.356 . S
H586 C580 0.930 . S
H587 C584 0.930 . S
O588 Li528 1.956 . S
O588 Li529 1.970 . S
O588 Li530 1.961 . S
O588 C532 1.325 . S
O589 Li528 1.970 . S
O589 Li529 1.956 . S
O589 Li531 1.961 . S
O589 C538 1.325 . S
O590 Li528 1.961 . S
O590 Li530 1.956 . S
O590 Li531 1.970 . S
O590 C560 1.325 . S
O591 Li529 1.961 . S
O591 Li530 1.970 . S
O591 Li531 1.956 . S
O591 C566 1.325 . S
H592 C534 0.929 . S
H593 C535 0.930 . S
H594 C536 0.930 . S
H595 C537 0.930 1_545 S
H596 C539 0.930 . S
H597 C541 0.929 . S
H598 C542 0.930 . S
H599 C543 0.930 . S
H600 C546 0.930 1_545 S
H601 C549 0.929 . S
H602 C554 0.929 . S
H603 C555 0.930 . S
H604 C562 0.929 . S
H605 C563 0.930 . S
H606 C564 0.930 . S
H607 C565 0.930 . S
H608 C567 0.929 . S
H609 C568 0.930 . S
H610 C569 0.930 . S
H611 C570 0.930 . S
H612 C574 0.929 . S
H613 C576 0.930 . S
H614 C582 0.929 . S
H615 C583 0.930 . S
Li616 N633 1.990 . S
Li616 O676 1.956 . S
Li616 O677 1.970 . S
Li616 O678 1.961 . S
Li617 N641 1.990 . S
Li617 O676 1.970 . S
Li617 O677 1.956 . S
Li617 O679 1.961 . S
Li618 N663 1.990 . S
Li618 O676 1.961 . S
Li618 O678 1.956 . S
Li618 O679 1.970 . S
Li619 N669 1.990 . S
Li619 O677 1.961 . S
Li619 O678 1.970 . S
Li619 O679 1.956 . S
C620 C622 1.348 . S
C620 C623 1.356 . S
C620 O676 1.325 . S
N621 C624 1.314 . S
N621 C625 1.279 . S
C622 C620 1.348 . S
C622 C624 1.353 . S
C622 H680 0.929 . S
C623 C620 1.356 . S
C623 C625 1.358 . S
C623 H681 0.930 . S
C624 N621 1.314 . S
C624 C622 1.353 . S
C624 H682 0.930 . S
C625 N621 1.279 . S
C625 C623 1.358 . S
C625 H683 0.930 . S
C626 C629 1.348 . S
C626 C630 1.356 . S
C626 O677 1.325 . S
C627 N628 1.279 . S
C627 C630 1.358 . S
C627 H684 0.930 . S
N628 C627 1.279 . S
N628 C631 1.314 . S
C629 C626 1.348 . S
C629 C631 1.353 . S
C629 H685 0.929 . S
C630 C626 1.356 . S
C630 C627 1.358 . S
C630 H686 0.930 . S
C631 N628 1.314 . S
C631 C629 1.353 . S
C631 H687 0.930 . S
C632 N633 1.314 . S
C632 C637 1.353 . S
C632 H638 0.930 . S
N633 Li616 1.990 . S
N633 C632 1.314 . S
N633 C635 1.279 . S
C634 C635 1.358 . S
C634 C636 1.356 . S
C634 H688 0.930 . S
C635 N633 1.279 . S
C635 C634 1.358 . S
C635 H639 0.930 . S
C636 C634 1.356 . S
C636 C637 1.348 . S
C637 C632 1.353 . S
C637 C636 1.348 . S
C637 H689 0.929 . S
H638 C632 0.930 . S
H639 C635 0.930 . S
C640 N641 1.314 . S
C640 C642 1.353 . S
C640 H646 0.930 . S
N641 Li617 1.990 . S
N641 C640 1.314 . S
N641 C644 1.279 . S
C642 C640 1.353 . S
C642 C645 1.348 . S
C642 H690 0.929 . S
C643 C644 1.358 . S
C643 C645 1.356 . S
C643 H691 0.930 . S
C644 N641 1.279 . S
C644 C643 1.358 . S
C644 H647 0.930 . S
C645 C642 1.348 . S
C645 C643 1.356 . S
H646 C640 0.930 . S
H647 C644 0.930 . S
C648 C650 1.348 . S
C648 C651 1.356 . S
C648 O678 1.325 . S
N649 C652 1.314 . S
N649 C653 1.279 . S
C650 C648 1.348 . S
C650 C652 1.353 . S
C650 H692 0.929 . S
C651 C648 1.356 . S
C651 C653 1.358 . S
C651 H693 0.930 . S
C652 N649 1.314 . S
C652 C650 1.353 . S
C652 H694 0.930 . S
C653 N649 1.279 . S
C653 C651 1.358 . S
C653 H695 0.930 . S
C654 C655 1.348 . S
C654 C656 1.356 . S
C654 O679 1.325 . S
C655 C654 1.348 . S
C655 C657 1.353 . S
C655 H696 0.929 . S
C656 C654 1.356 . S
C656 C658 1.358 . S
C656 H697 0.930 . S
C657 C655 1.353 . S
C657 N659 1.314 . S
C657 H698 0.930 . S
C658 C656 1.358 . S
C658 N659 1.279 . S
C658 H699 0.930 . S
N659 C657 1.314 . S
N659 C658 1.279 . S
C660 C662 1.353 . S
C660 N663 1.314 . S
C660 H666 0.930 . S
C661 N663 1.279 . S
C661 C664 1.358 . S
C661 H667 0.930 . S
C662 C660 1.353 . S
C662 C665 1.348 . S
C662 H700 0.929 . S
N663 Li618 1.990 . S
N663 C660 1.314 . S
N663 C661 1.279 . S
C664 C661 1.358 . S
C664 C665 1.356 . S
C664 H701 0.930 . S
C665 C662 1.348 . S
C665 C664 1.356 . S
H666 C660 0.930 . S
H667 C661 0.930 . S
C668 N669 1.314 . S
C668 C670 1.353 . S
C668 H674 0.930 . S
N669 Li619 1.990 . S
N669 C668 1.314 . S
N669 C672 1.279 . S
C670 C668 1.353 . S
C670 C673 1.348 . S
C670 H702 0.929 . S
C671 C672 1.358 . S
C671 C673 1.356 . S
C671 H703 0.930 . S
C672 N669 1.279 . S
C672 C671 1.358 . S
C672 H675 0.930 . S
C673 C670 1.348 . S
C673 C671 1.356 . S
H674 C668 0.930 . S
H675 C672 0.930 . S
O676 Li616 1.956 . S
O676 Li617 1.970 . S
O676 Li618 1.961 . S
O676 C620 1.325 . S
O677 Li616 1.970 . S
O677 Li617 1.956 . S
O677 Li619 1.961 . S
O677 C626 1.325 . S
O678 Li616 1.961 . S
O678 Li618 1.956 . S
O678 Li619 1.970 . S
O678 C648 1.325 . S
O679 Li617 1.961 . S
O679 Li618 1.970 . S
O679 Li619 1.956 . S
O679 C654 1.325 . S
H680 C622 0.929 . S
H681 C623 0.930 . S
H682 C624 0.930 . S
H683 C625 0.930 . S
H684 C627 0.930 . S
H685 C629 0.929 . S
H686 C630 0.930 . S
H687 C631 0.930 . S
H688 C634 0.930 . S
H689 C637 0.929 . S
H690 C642 0.929 . S
H691 C643 0.930 . S
H692 C650 0.929 . S
H693 C651 0.930 . S
H694 C652 0.930 . S
H695 C653 0.930 . S
H696 C655 0.929 . S
H697 C656 0.930 . S
H698 C657 0.930 . S
H699 C658 0.930 . S
H700 C662 0.929 . S
H701 C664 0.930 . S
H702 C670 0.929 . S
H703 C671 0.930 . S
Li704 N721 1.990 . S
Li704 O764 1.956 . S
Li704 O765 1.970 1_554 S
Li704 O766 1.961 1_554 S
Li705 N729 1.990 . S
Li705 O764 1.970 . S
Li705 O765 1.956 1_554 S
Li705 O767 1.961 1_554 S
Li706 N751 1.990 . S
Li706 O764 1.961 . S
Li706 O766 1.956 1_554 S
Li706 O767 1.970 1_554 S
Li707 N757 1.990 . S
Li707 O765 1.961 . S
Li707 O766 1.970 . S
Li707 O767 1.956 . S
C708 C710 1.348 . S
C708 C711 1.356 . S
C708 O764 1.325 . S
N709 C712 1.314 . S
N709 C713 1.279 . S
C710 C708 1.348 . S
C710 C712 1.353 . S
C710 H768 0.929 . S
C711 C708 1.356 . S
C711 C713 1.358 . S
C711 H769 0.930 . S
C712 N709 1.314 . S
C712 C710 1.353 . S
C712 H770 0.930 . S
C713 N709 1.279 . S
C713 C711 1.358 . S
C713 H771 0.930 . S
C714 C717 1.348 . S
C714 C718 1.356 . S
C714 O765 1.325 . S
C715 N716 1.279 . S
C715 C718 1.358 . S
C715 H772 0.930 1_455 S
N716 C715 1.279 . S
N716 C719 1.314 . S
C717 C714 1.348 . S
C717 C719 1.353 . S
C717 H773 0.929 1_556 S
C718 C714 1.356 . S
C718 C715 1.358 . S
C718 H774 0.930 . S
C719 N716 1.314 . S
C719 C717 1.353 . S
C719 H775 0.930 . S
C720 N721 1.314 1_556 S
C720 C725 1.353 . S
C720 H726 0.930 . S
N721 Li704 1.990 . S
N721 C720 1.314 1_554 S
N721 C723 1.279 . S
C722 C723 1.358 . S
C722 C724 1.356 . S
C722 H776 0.930 . S
C723 N721 1.279 . S
C723 C722 1.358 . S
C723 H727 0.930 . S
C724 C722 1.356 . S
C724 C725 1.348 1_554 S
C725 C720 1.353 . S
C725 C724 1.348 1_556 S
C725 H777 0.929 . S
H726 C720 0.930 . S
H727 C723 0.930 . S
C728 N729 1.314 . S
C728 C730 1.353 . S
C728 H734 0.930 . S
N729 Li705 1.990 . S
N729 C728 1.314 . S
N729 C732 1.279 . S
C730 C728 1.353 . S
C730 C733 1.348 . S
C730 H778 0.929 . S
C731 C732 1.358 . S
C731 C733 1.356 . S
C731 H779 0.930 1_455 S
C732 N729 1.279 . S
C732 C731 1.358 . S
C732 H735 0.930 . S
C733 C730 1.348 . S
C733 C731 1.356 . S
H734 C728 0.930 . S
H735 C732 0.930 . S
C736 C738 1.348 . S
C736 C739 1.356 . S
C736 O766 1.325 . S
N737 C740 1.314 . S
N737 C741 1.279 . S
C738 C736 1.348 . S
C738 C740 1.353 . S
C738 H780 0.929 . S
C739 C736 1.356 . S
C739 C741 1.358 . S
C739 H781 0.930 . S
C740 N737 1.314 . S
C740 C738 1.353 . S
C740 H782 0.930 . S
C741 N737 1.279 . S
C741 C739 1.358 . S
C741 H783 0.930 . S
C742 C743 1.348 . S
C742 C744 1.356 . S
C742 O767 1.325 . S
C743 C742 1.348 . S
C743 C745 1.353 . S
C743 H784 0.929 . S
C744 C742 1.356 . S
C744 C746 1.358 . S
C744 H785 0.930 . S
C745 C743 1.353 . S
C745 N747 1.314 . S
C745 H786 0.930 . S
C746 C744 1.358 . S
C746 N747 1.279 . S
C746 H787 0.930 . S
N747 C745 1.314 . S
N747 C746 1.279 . S
C748 C750 1.353 . S
C748 N751 1.314 . S
C748 H754 0.930 . S
C749 N751 1.279 1_556 S
C749 C752 1.358 1_556 S
C749 H755 0.930 . S
C750 C748 1.353 . S
C750 C753 1.348 . S
C750 H788 0.929 . S
N751 Li706 1.990 . S
N751 C748 1.314 . S
N751 C749 1.279 1_554 S
C752 C749 1.358 1_554 S
C752 C753 1.356 . S
C752 H789 0.930 1_554 S
C753 C750 1.348 . S
C753 C752 1.356 . S
H754 C748 0.930 . S
H755 C749 0.930 . S
C756 N757 1.314 . S
C756 C758 1.353 . S
C756 H762 0.930 . S
N757 Li707 1.990 . S
N757 C756 1.314 . S
N757 C760 1.279 . S
C758 C756 1.353 . S
C758 C761 1.348 . S
C758 H790 0.929 . S
C759 C760 1.358 . S
C759 C761 1.356 . S
C759 H791 0.930 . S
C760 N757 1.279 . S
C760 C759 1.358 . S
C760 H763 0.930 . S
C761 C758 1.348 . S
C761 C759 1.356 . S
H762 C756 0.930 . S
H763 C760 0.930 . S
O764 Li704 1.956 . S
O764 Li705 1.970 . S
O764 Li706 1.961 . S
O764 C708 1.325 . S
O765 Li704 1.970 1_556 S
O765 Li705 1.956 1_556 S
O765 Li707 1.961 . S
O765 C714 1.325 . S
O766 Li704 1.961 1_556 S
O766 Li706 1.956 1_556 S
O766 Li707 1.970 . S
O766 C736 1.325 . S
O767 Li705 1.961 1_556 S
O767 Li706 1.970 1_556 S
O767 Li707 1.956 . S
O767 C742 1.325 . S
H768 C710 0.929 . S
H769 C711 0.930 . S
H770 C712 0.930 . S
H771 C713 0.930 . S
H772 C715 0.930 1_655 S
H773 C717 0.929 1_554 S
H774 C718 0.930 . S
H775 C719 0.930 . S
H776 C722 0.930 . S
H777 C725 0.929 . S
H778 C730 0.929 . S
H779 C731 0.930 1_655 S
H780 C738 0.929 . S
H781 C739 0.930 . S
H782 C740 0.930 . S
H783 C741 0.930 . S
H784 C743 0.929 . S
H785 C744 0.930 . S
H786 C745 0.930 . S
H787 C746 0.930 . S
H788 C750 0.929 . S
H789 C752 0.930 1_556 S
H790 C758 0.929 . S
H791 C759 0.930 . S
Li792 N809 1.990 . S
Li792 O852 1.956 . S
Li792 O853 1.970 . S
Li792 O854 1.961 . S
Li793 N817 1.990 . S
Li793 O852 1.970 . S
Li793 O853 1.956 . S
Li793 O855 1.961 . S
Li794 N839 1.990 . S
Li794 O852 1.961 . S
Li794 O854 1.956 . S
Li794 O855 1.970 . S
Li795 N845 1.990 . S
Li795 O853 1.961 . S
Li795 O854 1.970 . S
Li795 O855 1.956 . S
C796 C798 1.348 . S
C796 C799 1.356 . S
C796 O852 1.325 . S
N797 C800 1.314 . S
N797 C801 1.279 . S
C798 C796 1.348 . S
C798 C800 1.353 . S
C798 H856 0.929 . S
C799 C796 1.356 . S
C799 C801 1.358 . S
C799 H857 0.930 . S
C800 N797 1.314 . S
C800 C798 1.353 . S
C800 H858 0.930 . S
C801 N797 1.279 . S
C801 C799 1.358 . S
C801 H859 0.930 . S
C802 C805 1.348 . S
C802 C806 1.356 . S
C802 O853 1.325 . S
C803 N804 1.279 . S
C803 C806 1.358 . S
C803 H860 0.930 1_545 S
N804 C803 1.279 . S
N804 C807 1.314 . S
C805 C802 1.348 . S
C805 C807 1.353 . S
C805 H861 0.929 . S
C806 C802 1.356 . S
C806 C803 1.358 . S
C806 H862 0.930 . S
C807 N804 1.314 . S
C807 C805 1.353 . S
C807 H863 0.930 . S
C808 N809 1.314 . S
C808 C813 1.353 . S
C808 H814 0.930 . S
N809 Li792 1.990 . S
N809 C808 1.314 . S
N809 C811 1.279 . S
C810 C811 1.358 . S
C810 C812 1.356 . S
C810 H864 0.930 . S
C811 N809 1.279 . S
C811 C810 1.358 . S
C811 H815 0.930 . S
C812 C810 1.356 . S
C812 C813 1.348 . S
C813 C808 1.353 . S
C813 C812 1.348 . S
C813 H865 0.929 . S
H814 C808 0.930 . S
H815 C811 0.930 . S
C816 N817 1.314 . S
C816 C818 1.353 . S
C816 H822 0.930 . S
N817 Li793 1.990 . S
N817 C816 1.314 . S
N817 C820 1.279 . S
C818 C816 1.353 . S
C818 C821 1.348 . S
C818 H866 0.929 . S
C819 C820 1.358 . S
C819 C821 1.356 . S
C819 H867 0.930 1_545 S
C820 N817 1.279 . S
C820 C819 1.358 . S
C820 H823 0.930 . S
C821 C818 1.348 . S
C821 C819 1.356 . S
H822 C816 0.930 . S
H823 C820 0.930 . S
C824 C826 1.348 . S
C824 C827 1.356 . S
C824 O854 1.325 . S
N825 C828 1.314 . S
N825 C829 1.279 . S
C826 C824 1.348 . S
C826 C828 1.353 . S
C826 H868 0.929 . S
C827 C824 1.356 . S
C827 C829 1.358 . S
C827 H869 0.930 . S
C828 N825 1.314 . S
C828 C826 1.353 . S
C828 H870 0.930 . S
C829 N825 1.279 . S
C829 C827 1.358 . S
C829 H871 0.930 . S
C830 C831 1.348 . S
C830 C832 1.356 . S
C830 O855 1.325 . S
C831 C830 1.348 . S
C831 C833 1.353 . S
C831 H872 0.929 . S
C832 C830 1.356 . S
C832 C834 1.358 . S
C832 H873 0.930 . S
C833 C831 1.353 . S
C833 N835 1.314 . S
C833 H874 0.930 . S
C834 C832 1.358 . S
C834 N835 1.279 . S
C834 H875 0.930 . S
N835 C833 1.314 . S
N835 C834 1.279 . S
C836 C838 1.353 . S
C836 N839 1.314 . S
C836 H842 0.930 . S
C837 N839 1.279 . S
C837 C840 1.358 . S
C837 H843 0.930 . S
C838 C836 1.353 . S
C838 C841 1.348 . S
C838 H876 0.929 . S
N839 Li794 1.990 . S
N839 C836 1.314 . S
N839 C837 1.279 . S
C840 C837 1.358 . S
C840 C841 1.356 . S
C840 H877 0.930 . S
C841 C838 1.348 . S
C841 C840 1.356 . S
H842 C836 0.930 . S
H843 C837 0.930 . S
C844 N845 1.314 . S
C844 C846 1.353 . S
C844 H850 0.930 . S
N845 Li795 1.990 . S
N845 C844 1.314 . S
N845 C848 1.279 . S
C846 C844 1.353 . S
C846 C849 1.348 . S
C846 H878 0.929 . S
C847 C848 1.358 . S
C847 C849 1.356 . S
C847 H879 0.930 . S
C848 N845 1.279 . S
C848 C847 1.358 . S
C848 H851 0.930 . S
C849 C846 1.348 . S
C849 C847 1.356 . S
H850 C844 0.930 . S
H851 C848 0.930 . S
O852 Li792 1.956 . S
O852 Li793 1.970 . S
O852 Li794 1.961 . S
O852 C796 1.325 . S
O853 Li792 1.970 . S
O853 Li793 1.956 . S
O853 Li795 1.961 . S
O853 C802 1.325 . S
O854 Li792 1.961 . S
O854 Li794 1.956 . S
O854 Li795 1.970 . S
O854 C824 1.325 . S
O855 Li793 1.961 . S
O855 Li794 1.970 . S
O855 Li795 1.956 . S
O855 C830 1.325 . S
H856 C798 0.929 . S
H857 C799 0.930 . S
H858 C800 0.930 . S
H859 C801 0.930 . S
H860 C803 0.930 1_565 S
H861 C805 0.929 . S
H862 C806 0.930 . S
H863 C807 0.930 . S
H864 C810 0.930 . S
H865 C813 0.929 . S
H866 C818 0.929 . S
H867 C819 0.930 1_565 S
H868 C826 0.929 . S
H869 C827 0.930 . S
H870 C828 0.930 . S
H871 C829 0.930 . S
H872 C831 0.929 . S
H873 C832 0.930 . S
H874 C833 0.930 . S
H875 C834 0.930 . S
H876 C838 0.929 . S
H877 C840 0.930 . S
H878 C846 0.929 . S
H879 C847 0.930 . S
Li880 N897 1.990 . S
Li880 O940 1.956 . S
Li880 O941 1.970 . S
Li880 O942 1.961 . S
Li881 N905 1.990 . S
Li881 O940 1.970 . S
Li881 O941 1.956 . S
Li881 O943 1.961 . S
Li882 N927 1.990 . S
Li882 O940 1.961 . S
Li882 O942 1.956 . S
Li882 O943 1.970 . S
Li883 N933 1.990 . S
Li883 O941 1.961 . S
Li883 O942 1.970 . S
Li883 O943 1.956 . S
C884 C886 1.348 . S
C884 C887 1.356 . S
C884 O940 1.325 . S
N885 C888 1.314 . S
N885 C889 1.279 . S
C886 C884 1.348 . S
C886 C888 1.353 . S
C886 H944 0.929 . S
C887 C884 1.356 . S
C887 C889 1.358 . S
C887 H945 0.930 . S
C888 N885 1.314 . S
C888 C886 1.353 . S
C888 H946 0.930 . S
C889 N885 1.279 . S
C889 C887 1.358 . S
C889 H947 0.930 . S
C890 C893 1.348 . S
C890 C894 1.356 . S
C890 O941 1.325 . S
C891 N892 1.279 . S
C891 C894 1.358 . S
C891 H948 0.930 . S
N892 C891 1.279 . S
N892 C895 1.314 . S
C893 C890 1.348 . S
C893 C895 1.353 . S
C893 H949 0.929 . S
C894 C890 1.356 . S
C894 C891 1.358 . S
C894 H950 0.930 . S
C895 N892 1.314 . S
C895 C893 1.353 . S
C895 H951 0.930 . S
C896 N897 1.314 . S
C896 C901 1.353 . S
C896 H902 0.930 . S
N897 Li880 1.990 . S
N897 C896 1.314 . S
N897 C899 1.279 . S
C898 C899 1.358 . S
C898 C900 1.356 . S
C898 H952 0.930 . S
C899 N897 1.279 . S
C899 C898 1.358 . S
C899 H903 0.930 . S
C900 C898 1.356 . S
C900 C901 1.348 . S
C901 C896 1.353 . S
C901 C900 1.348 . S
C901 H953 0.929 . S
H902 C896 0.930 . S
H903 C899 0.930 . S
C904 N905 1.314 . S
C904 C906 1.353 . S
C904 H910 0.930 . S
N905 Li881 1.990 . S
N905 C904 1.314 . S
N905 C908 1.279 . S
C906 C904 1.353 . S
C906 C909 1.348 . S
C906 H954 0.929 . S
C907 C908 1.358 . S
C907 C909 1.356 . S
C907 H955 0.930 . S
C908 N905 1.279 . S
C908 C907 1.358 . S
C908 H911 0.930 . S
C909 C906 1.348 . S
C909 C907 1.356 . S
H910 C904 0.930 . S
H911 C908 0.930 . S
C912 C914 1.348 . S
C912 C915 1.356 . S
C912 O942 1.325 . S
N913 C916 1.314 . S
N913 C917 1.279 . S
C914 C912 1.348 . S
C914 C916 1.353 . S
C914 H956 0.929 . S
C915 C912 1.356 . S
C915 C917 1.358 . S
C915 H957 0.930 . S
C916 N913 1.314 . S
C916 C914 1.353 . S
C916 H958 0.930 . S
C917 N913 1.279 . S
C917 C915 1.358 . S
C917 H959 0.930 . S
C918 C919 1.348 . S
C918 C920 1.356 . S
C918 O943 1.325 . S
C919 C918 1.348 . S
C919 C921 1.353 . S
C919 H960 0.929 . S
C920 C918 1.356 . S
C920 C922 1.358 . S
C920 H961 0.930 . S
C921 C919 1.353 . S
C921 N923 1.314 . S
C921 H962 0.930 . S
C922 C920 1.358 . S
C922 N923 1.279 . S
C922 H963 0.930 . S
N923 C921 1.314 . S
N923 C922 1.279 . S
C924 C926 1.353 . S
C924 N927 1.314 . S
C924 H930 0.930 . S
C925 N927 1.279 . S
C925 C928 1.358 . S
C925 H931 0.930 . S
C926 C924 1.353 . S
C926 C929 1.348 . S
C926 H964 0.929 . S
N927 Li882 1.990 . S
N927 C924 1.314 . S
N927 C925 1.279 . S
C928 C925 1.358 . S
C928 C929 1.356 . S
C928 H965 0.930 . S
C929 C926 1.348 . S
C929 C928 1.356 . S
H930 C924 0.930 . S
H931 C925 0.930 . S
C932 N933 1.314 . S
C932 C934 1.353 . S
C932 H938 0.930 . S
N933 Li883 1.990 . S
N933 C932 1.314 . S
N933 C936 1.279 . S
C934 C932 1.353 . S
C934 C937 1.348 . S
C934 H966 0.929 . S
C935 C936 1.358 . S
C935 C937 1.356 . S
C935 H967 0.930 . S
C936 N933 1.279 . S
C936 C935 1.358 . S
C936 H939 0.930 . S
C937 C934 1.348 . S
C937 C935 1.356 . S
H938 C932 0.930 . S
H939 C936 0.930 . S
O940 Li880 1.956 . S
O940 Li881 1.970 . S
O940 Li882 1.961 . S
O940 C884 1.325 . S
O941 Li880 1.970 . S
O941 Li881 1.956 . S
O941 Li883 1.961 . S
O941 C890 1.325 . S
O942 Li880 1.961 . S
O942 Li882 1.956 . S
O942 Li883 1.970 . S
O942 C912 1.325 . S
O943 Li881 1.961 . S
O943 Li882 1.970 . S
O943 Li883 1.956 . S
O943 C918 1.325 . S
H944 C886 0.929 . S
H945 C887 0.930 . S
H946 C888 0.930 . S
H947 C889 0.930 . S
H948 C891 0.930 . S
H949 C893 0.929 . S
H950 C894 0.930 . S
H951 C895 0.930 . S
H952 C898 0.930 . S
H953 C901 0.929 . S
H954 C906 0.929 . S
H955 C907 0.930 . S
H956 C914 0.929 . S
H957 C915 0.930 . S
H958 C916 0.930 . S
H959 C917 0.930 . S
H960 C919 0.929 . S
H961 C920 0.930 . S
H962 C921 0.930 . S
H963 C922 0.930 . S
H964 C926 0.929 . S
H965 C928 0.930 . S
H966 C934 0.929 . S
H967 C935 0.930 . S
Li968 N985 1.990 . S
Li968 O1028 1.956 . S
Li968 O1029 1.970 1_554 S
Li968 O1030 1.961 1_554 S
Li969 N993 1.990 . S
Li969 O1028 1.970 . S
Li969 O1029 1.956 1_554 S
Li969 O1031 1.961 1_554 S
Li970 N1015 1.990 . S
Li970 O1028 1.961 . S
Li970 O1030 1.956 1_554 S
Li970 O1031 1.970 1_554 S
Li971 N1021 1.990 . S
Li971 O1029 1.961 . S
Li971 O1030 1.970 . S
Li971 O1031 1.956 . S
C972 C974 1.348 . S
C972 C975 1.356 . S
C972 O1028 1.325 . S
N973 C976 1.314 . S
N973 C977 1.279 . S
C974 C972 1.348 . S
C974 C976 1.353 . S
C974 H1032 0.929 . S
C975 C972 1.356 . S
C975 C977 1.358 . S
C975 H1033 0.930 . S
C976 N973 1.314 . S
C976 C974 1.353 . S
C976 H1034 0.930 . S
C977 N973 1.279 . S
C977 C975 1.358 . S
C977 H1035 0.930 . S
C978 C981 1.348 . S
C978 C982 1.356 . S
C978 O1029 1.325 . S
C979 N980 1.279 . S
C979 C982 1.358 . S
C979 H1036 0.930 1_655 S
N980 C979 1.279 . S
N980 C983 1.314 . S
C981 C978 1.348 . S
C981 C983 1.353 . S
C981 H1037 0.929 1_556 S
C982 C978 1.356 . S
C982 C979 1.358 . S
C982 H1038 0.930 . S
C983 N980 1.314 . S
C983 C981 1.353 . S
C983 H1039 0.930 . S
C984 N985 1.314 1_556 S
C984 C989 1.353 . S
C984 H990 0.930 . S
N985 Li968 1.990 . S
N985 C984 1.314 1_554 S
N985 C987 1.279 . S
C986 C987 1.358 . S
C986 C988 1.356 . S
C986 H1040 0.930 . S
C987 N985 1.279 . S
C987 C986 1.358 . S
C987 H991 0.930 . S
C988 C986 1.356 . S
C988 C989 1.348 1_554 S
C989 C984 1.353 . S
C989 C988 1.348 1_556 S
C989 H1041 0.929 . S
H990 C984 0.930 . S
H991 C987 0.930 . S
C992 N993 1.314 . S
C992 C994 1.353 . S
C992 H998 0.930 . S
N993 Li969 1.990 . S
N993 C992 1.314 . S
N993 C996 1.279 . S
C994 C992 1.353 . S
C994 C997 1.348 . S
C994 H1042 0.929 . S
C995 C996 1.358 . S
C995 C997 1.356 . S
C995 H1043 0.930 1_655 S
C996 N993 1.279 . S
C996 C995 1.358 . S
C996 H999 0.930 . S
C997 C994 1.348 . S
C997 C995 1.356 . S
H998 C992 0.930 . S
H999 C996 0.930 . S
C1000 C1002 1.348 . S
C1000 C1003 1.356 . S
C1000 O1030 1.325 . S
N1001 C1004 1.314 . S
N1001 C1005 1.279 . S
C1002 C1000 1.348 . S
C1002 C1004 1.353 . S
C1002 H1044 0.929 . S
C1003 C1000 1.356 . S
C1003 C1005 1.358 . S
C1003 H1045 0.930 . S
C1004 N1001 1.314 . S
C1004 C1002 1.353 . S
C1004 H1046 0.930 . S
C1005 N1001 1.279 . S
C1005 C1003 1.358 . S
C1005 H1047 0.930 . S
C1006 C1007 1.348 . S
C1006 C1008 1.356 . S
C1006 O1031 1.325 . S
C1007 C1006 1.348 . S
C1007 C1009 1.353 . S
C1007 H1048 0.929 . S
C1008 C1006 1.356 . S
C1008 C1010 1.358 . S
C1008 H1049 0.930 . S
C1009 C1007 1.353 . S
C1009 N1011 1.314 . S
C1009 H1050 0.930 . S
C1010 C1008 1.358 . S
C1010 N1011 1.279 . S
C1010 H1051 0.930 . S
N1011 C1009 1.314 . S
N1011 C1010 1.279 . S
C1012 C1014 1.353 . S
C1012 N1015 1.314 . S
C1012 H1018 0.930 . S
C1013 N1015 1.279 1_556 S
C1013 C1016 1.358 1_556 S
C1013 H1019 0.930 . S
C1014 C1012 1.353 . S
C1014 C1017 1.348 . S
C1014 H1052 0.929 . S
N1015 Li970 1.990 . S
N1015 C1012 1.314 . S
N1015 C1013 1.279 1_554 S
C1016 C1013 1.358 1_554 S
C1016 C1017 1.356 . S
C1016 H1053 0.930 1_554 S
C1017 C1014 1.348 . S
C1017 C1016 1.356 . S
H1018 C1012 0.930 . S
H1019 C1013 0.930 . S
C1020 N1021 1.314 . S
C1020 C1022 1.353 . S
C1020 H1026 0.930 . S
N1021 Li971 1.990 . S
N1021 C1020 1.314 . S
N1021 C1024 1.279 . S
C1022 C1020 1.353 . S
C1022 C1025 1.348 . S
C1022 H1054 0.929 . S
C1023 C1024 1.358 . S
C1023 C1025 1.356 . S
C1023 H1055 0.930 . S
C1024 N1021 1.279 . S
C1024 C1023 1.358 . S
C1024 H1027 0.930 . S
C1025 C1022 1.348 . S
C1025 C1023 1.356 . S
H1026 C1020 0.930 . S
H1027 C1024 0.930 . S
O1028 Li968 1.956 . S
O1028 Li969 1.970 . S
O1028 Li970 1.961 . S
O1028 C972 1.325 . S
O1029 Li968 1.970 1_556 S
O1029 Li969 1.956 1_556 S
O1029 Li971 1.961 . S
O1029 C978 1.325 . S
O1030 Li968 1.961 1_556 S
O1030 Li970 1.956 1_556 S
O1030 Li971 1.970 . S
O1030 C1000 1.325 . S
O1031 Li969 1.961 1_556 S
O1031 Li970 1.970 1_556 S
O1031 Li971 1.956 . S
O1031 C1006 1.325 . S
H1032 C974 0.929 . S
H1033 C975 0.930 . S
H1034 C976 0.930 . S
H1035 C977 0.930 . S
H1036 C979 0.930 1_455 S
H1037 C981 0.929 1_554 S
H1038 C982 0.930 . S
H1039 C983 0.930 . S
H1040 C986 0.930 . S
H1041 C989 0.929 . S
H1042 C994 0.929 . S
H1043 C995 0.930 1_455 S
H1044 C1002 0.929 . S
H1045 C1003 0.930 . S
H1046 C1004 0.930 . S
H1047 C1005 0.930 . S
H1048 C1007 0.929 . S
H1049 C1008 0.930 . S
H1050 C1009 0.930 . S
H1051 C1010 0.930 . S
H1052 C1014 0.929 . S
H1053 C1016 0.930 1_556 S
H1054 C1022 0.929 . S
H1055 C1023 0.930 . S
C20 C585 2.624 . S
C108 C665 2.624 . S
C205 C753 2.706 1_556 S
C841 C293 2.624 . S
C381 C937 2.624 . S
C1017 C460 2.706 1_554 S
C49 C812 1.616 . S
C137 C909 1.616 1_655 S
C988 C233 1.742 1_544 S
C557 C321 1.616 . S
C409 C636 1.616 1_455 S
C489 C724 1.742 1_546 S
C997 C57 3.061 1_655 S
C145 C548 3.141 1_545 S
C225 C645 3.061 . S
C733 C313 3.060 1_455 S
C821 C401 3.141 1_545 S
C497 C900 3.061 . S
C29 C929 5.871 . S
C1025 C117 5.859 . S
C577 C196 5.860 . S
C284 C673 5.872 . S
C761 C372 5.859 . S
C849 C469 5.859 . S
