# Generated by pormake.
# Topology unm, (4)-cn, num edge types: 1
# Building blocks:
#     Node 0, Type 0, BuildingBlock: NAHDIM_clean_sbu_0, # of connection points: 4
#     Node 1, Type 0, BuildingBlock: NAHDIM_clean_sbu_0, # of connection points: 4
#     Node 2, Type 0, BuildingBlock: NAHDIM_clean_sbu_0, # of connection points: 4
#     Node 3, Type 0, BuildingBlock: NAHDIM_clean_sbu_0, # of connection points: 4
#     Node 4, Type 0, BuildingBlock: NAHDIM_clean_sbu_0, # of connection points: 4
#     Node 5, Type 0, BuildingBlock: NAHDIM_clean_sbu_0, # of connection points: 4
#     Node 6, Type 0, BuildingBlock: NAHDIM_clean_sbu_0, # of connection points: 4
#     Node 7, Type 0, BuildingBlock: NAHDIM_clean_sbu_0, # of connection points: 4
#     Edge 8, Type (0, 0), BuildingBlock: ZUJKAS_clean_linker_0, # of connection points: 2
#     Edge 9, Type (0, 0), BuildingBlock: ZUJKAS_clean_linker_0, # of connection points: 2
#     Edge 10, Type (0, 0), BuildingBlock: ZUJKAS_clean_linker_0, # of connection points: 2
#     Edge 11, Type (0, 0), BuildingBlock: ZUJKAS_clean_linker_0, # of connection points: 2
#     Edge 12, Type (0, 0), BuildingBlock: ZUJKAS_clean_linker_0, # of connection points: 2
#     Edge 13, Type (0, 0), BuildingBlock: ZUJKAS_clean_linker_0, # of connection points: 2
#     Edge 14, Type (0, 0), BuildingBlock: ZUJKAS_clean_linker_0, # of connection points: 2
#     Edge 15, Type (0, 0), BuildingBlock: ZUJKAS_clean_linker_0, # of connection points: 2
#     Edge 16, Type (0, 0), BuildingBlock: ZUJKAS_clean_linker_0, # of connection points: 2
#     Edge 17, Type (0, 0), BuildingBlock: ZUJKAS_clean_linker_0, # of connection points: 2
#     Edge 18, Type (0, 0), BuildingBlock: ZUJKAS_clean_linker_0, # of connection points: 2
#     Edge 19, Type (0, 0), BuildingBlock: ZUJKAS_clean_linker_0, # of connection points: 2
#     Edge 20, Type (0, 0), BuildingBlock: ZUJKAS_clean_linker_0, # of connection points: 2
#     Edge 21, Type (0, 0), BuildingBlock: ZUJKAS_clean_linker_0, # of connection points: 2
#     Edge 22, Type (0, 0), BuildingBlock: ZUJKAS_clean_linker_0, # of connection points: 2
#     Edge 23, Type (0, 0), BuildingBlock: ZUJKAS_clean_linker_0, # of connection points: 2
# Relax obj value: 0.218
# Max RMSD: 0.179
# Mean RMSD: 0.179
data_MOF--net-unm--node1-NAHDIM_clean_sbu_0--edge1-ZUJKAS_clean_linker_0
_symmetry_space_group_name_H-M    P1
_symmetry_Int_Tables_number       1
_symmetry_cell_setting            triclinic
loop_
_symmetry_equiv_pos_as_xyz
'x, y, z'
_cell_length_a     33.979408
_cell_length_b     34.023521
_cell_length_c     54.253933
_cell_angle_alpha  90.01367
_cell_angle_beta   89.882097
_cell_angle_gamma 90.003663
loop_
_atom_site_label
_atom_site_type_symbol
_atom_site_fract_x
_atom_site_fract_y
_atom_site_fract_z
_atom_type_partial_charge
C0 C 0.19608 0.22034 0.18545 0.0
O1 O 0.19889 0.19554 0.16698 0.0
O2 O 0.0709 0.19967 0.19457 0.0
Zn3 Zn 0.1125 0.22335 0.17284 0.0
O4 O 0.1217 0.19182 0.14204 0.0
C5 C 0.06284 0.27884 0.14766 0.0
O6 O 0.04774 0.24687 0.13793 0.0
O7 O 0.16254 0.23388 0.19143 0.0
C8 C 0.1389 0.2094 0.1244 0.0
O9 O 0.1512 0.24563 0.12775 0.0
C10 C 0.04392 0.17807 0.18569 0.0
O11 O 0.04624 0.16703 0.16253 0.0
O12 O 0.09119 0.27583 0.16277 0.0
C13 C 0.26911 0.68804 0.68143 0.0
O14 O 0.27247 0.68879 0.65732 0.0
O15 O 0.30635 0.56353 0.69379 0.0
Zn16 Zn 0.27914 0.60497 0.67384 0.0
O17 O 0.30617 0.61315 0.64106 0.0
C18 C 0.20683 0.56609 0.68534 0.0
O19 O 0.22442 0.56163 0.70671 0.0
O20 O 0.27288 0.65552 0.69272 0.0
C21 C 0.28483 0.61738 0.62202 0.0
O22 O 0.24637 0.61714 0.62449 0.0
C23 C 0.3149 0.53175 0.68271 0.0
O24 O 0.31094 0.53016 0.65864 0.0
O25 O 0.22462 0.58415 0.66813 0.0
C26 C 0.80593 0.76206 0.17788 0.0
O27 O 0.81052 0.79394 0.16453 0.0
O28 O 0.92764 0.7585 0.17874 0.0
Zn29 Zn 0.8825 0.74002 0.1581 0.0
O30 O 0.87526 0.77447 0.12854 0.0
C31 C 0.89928 0.65952 0.16317 0.0
O32 O 0.89358 0.6693 0.18634 0.0
O33 O 0.83295 0.7363 0.17813 0.0
C34 C 0.85051 0.76333 0.11249 0.0
O35 O 0.8305 0.73085 0.11637 0.0
C36 C 0.9613 0.75878 0.16851 0.0
O37 O 0.96402 0.74963 0.14504 0.0
O38 O 0.8958 0.6857 0.14665 0.0
C39 C 0.76261 0.3015 0.66751 0.0
O40 O 0.77982 0.31054 0.64655 0.0
O41 O 0.71705 0.41965 0.68839 0.0
Zn42 Zn 0.74238 0.38203 0.66467 0.0
O43 O 0.71475 0.3819 0.63178 0.0
C44 C 0.80778 0.43542 0.65954 0.0
O45 O 0.77956 0.46173 0.65852 0.0
O46 O 0.74311 0.32776 0.67886 0.0
C47 C 0.73213 0.39237 0.61208 0.0
O48 O 0.76912 0.40339 0.61304 0.0
C49 C 0.6971 0.44894 0.68101 0.0
O50 O 0.68906 0.45219 0.65742 0.0
O51 O 0.79884 0.39927 0.6614 0.0
C52 C 0.66773 0.25545 0.2895 0.0
O53 O 0.63494 0.23946 0.28154 0.0
O54 O 0.57637 0.31451 0.29802 0.0
Zn55 Zn 0.61331 0.28996 0.32256 0.0
O56 O 0.61892 0.32164 0.35365 0.0
C57 C 0.5619 0.22196 0.32079 0.0
O58 O 0.54566 0.24126 0.30249 0.0
O59 O 0.66612 0.28003 0.30712 0.0
C60 C 0.59335 0.31713 0.37056 0.0
O61 O 0.56312 0.29393 0.36653 0.0
C62 C 0.54854 0.3377 0.30381 0.0
O63 O 0.54674 0.35162 0.32636 0.0
O64 O 0.59112 0.23693 0.33198 0.0
C65 C 0.23731 0.15993 0.79245 0.0
O66 O 0.25205 0.12799 0.78241 0.0
O67 O 0.1905 0.06443 0.8047 0.0
Zn68 Zn 0.21453 0.10372 0.82797 0.0
O69 O 0.18724 0.10713 0.86088 0.0
C70 C 0.28148 0.05136 0.83162 0.0
O71 O 0.25537 0.02432 0.82608 0.0
O72 O 0.21769 0.15695 0.81232 0.0
C73 C 0.19306 0.08076 0.87708 0.0
O74 O 0.21478 0.05013 0.87142 0.0
C75 C 0.16695 0.0372 0.81098 0.0
O76 O 0.15277 0.03671 0.83351 0.0
O77 O 0.2706 0.08695 0.83371 0.0
C78 C 0.32017 0.7388 0.30514 0.0
O79 O 0.34213 0.70751 0.30159 0.0
O80 O 0.42583 0.74518 0.31182 0.0
Zn81 Zn 0.38472 0.76227 0.33615 0.0
O82 O 0.3804 0.72751 0.36596 0.0
C83 C 0.43618 0.82524 0.34925 0.0
O84 O 0.46266 0.79765 0.34584 0.0
O85 O 0.3324 0.76579 0.31936 0.0
C86 C 0.40926 0.71831 0.37967 0.0
O87 O 0.44485 0.72988 0.37362 0.0
C88 C 0.44512 0.71329 0.31054 0.0
O89 O 0.43746 0.68468 0.32607 0.0
O90 O 0.39996 0.81679 0.34677 0.0
C91 C 0.76591 0.8033 0.81296 0.0
O92 O 0.79794 0.80728 0.82625 0.0
O93 O 0.77604 0.92164 0.79937 0.0
Zn94 Zn 0.75168 0.88591 0.82462 0.0
O95 O 0.7825 0.88179 0.85613 0.0
C96 C 0.68814 0.94239 0.83023 0.0
O97 O 0.71487 0.96812 0.82343 0.0
O98 O 0.74338 0.83264 0.80986 0.0
C99 C 0.78044 0.90865 0.87237 0.0
O100 O 0.75986 0.94046 0.86771 0.0
C101 C 0.80195 0.94769 0.80357 0.0
O102 O 0.81718 0.9506 0.82573 0.0
O103 O 0.69762 0.90642 0.83233 0.0
H104 H 0.17606 0.23872 0.08385 0.0
H105 H 0.18084 0.20897 0.04303 0.0
H106 H 0.117 0.10744 0.06889 0.0
H107 H 0.1117 0.13717 0.10993 0.0
H108 H 0.21461 0.13553 0.02983 0.0
H109 H 0.05516 0.14461 0.00713 0.0
H110 H 0.07695 0.17237 0.03198 0.0
H111 H 0.06761 0.12079 0.03567 0.0
C112 C 0.16306 0.21003 0.08093 0.0
C113 C 0.14336 0.19036 0.1001 0.0
C114 C 0.16585 0.19309 0.05759 0.0
C115 C 0.14885 0.1563 0.05294 0.0
C116 C 0.12976 0.13616 0.07208 0.0
H117 H 0.20201 0.03085 0.9161 0.0
H118 H 0.18778 0.04449 0.95946 0.0
C119 C 0.12699 0.15309 0.09551 0.0
C120 C 0.15149 0.1393 0.02794 0.0
H121 H 0.09697 0.1169 0.97704 0.0
C122 C 0.18892 0.13107 0.01833 0.0
C123 C 0.11783 0.13395 0.01302 0.0
C124 C 0.07706 0.1436 0.0223 0.0
C125 C 0.19373 0.11826 0.99396 0.0
C126 C 0.1601 0.113 0.979 0.0
C127 C 0.12258 0.12065 0.98871 0.0
C128 C 0.16377 0.10236 0.95269 0.0
C129 C 0.23486 0.11196 0.98414 0.0
C130 C 0.15328 0.1297 0.93452 0.0
C131 C 0.16117 0.12196 0.90972 0.0
C132 C 0.17968 0.08671 0.90274 0.0
C133 C 0.18809 0.05845 0.9209 0.0
C134 C 0.18011 0.0662 0.94569 0.0
H135 H 0.25758 0.12478 -0.00354 0.0
H136 H 0.24062 0.07996 0.98253 0.0
H137 H 0.23813 0.12518 0.96554 0.0
H138 H 0.14048 0.15772 0.93962 0.0
H139 H 0.15413 0.14424 0.89618 0.0
H140 H 0.24659 0.63004 0.57873 0.0
H141 H 0.27539 0.64191 0.53822 0.0
H142 H 0.39185 0.63092 0.56889 0.0
H143 H 0.36323 0.61871 0.60973 0.0
H144 H 0.32889 0.70518 0.52749 0.0
H145 H 0.39198 0.55761 0.50681 0.0
H146 H 0.35399 0.56481 0.52972 0.0
H147 H 0.40367 0.57922 0.5362 0.0
C148 C 0.27834 0.62987 0.57692 0.0
C149 C 0.30265 0.62349 0.59746 0.0
C150 C 0.29471 0.63663 0.55374 0.0
C151 C 0.33565 0.63691 0.5506 0.0
C152 C 0.36014 0.63022 0.57095 0.0
H153 H 0.46276 0.70092 0.41579 0.0
H154 H 0.44847 0.67842 0.4578 0.0
C155 C 0.34375 0.6235 0.59425 0.0
C156 C 0.35222 0.64639 0.52614 0.0
H157 H 0.40013 0.6069 0.47658 0.0
C158 C 0.34471 0.68381 0.51642 0.0
C159 C 0.37298 0.61841 0.51189 0.0
C160 C 0.38106 0.57762 0.5215 0.0
C161 C 0.35669 0.69378 0.49254 0.0
C162 C 0.37621 0.66541 0.47796 0.0
C163 C 0.38498 0.6284 0.4879 0.0
C164 C 0.38575 0.67354 0.45194 0.0
C165 C 0.34797 0.73447 0.48289 0.0
C166 C 0.35528 0.67687 0.43471 0.0
C167 C 0.36324 0.68965 0.41081 0.0
C168 C 0.40187 0.69938 0.40375 0.0
C169 C 0.43267 0.69386 0.4207 0.0
C170 C 0.42463 0.68097 0.44467 0.0
H171 H 0.34035 0.75523 0.49798 0.0
H172 H 0.3736 0.74631 0.47256 0.0
H173 H 0.32265 0.73297 0.47004 0.0
H174 H 0.32511 0.67091 0.44005 0.0
H175 H 0.33887 0.69327 0.39817 0.0
H176 H 0.88979 0.82955 0.09766 0.0
H177 H 0.88249 0.86482 0.05858 0.0
H178 H 0.7931 0.78247 0.03593 0.0
H179 H 0.79982 0.74733 0.0749 0.0
H180 H 0.89398 0.8349 0.01111 0.0
H181 H 0.74162 0.88937 0.02326 0.0
H182 H 0.77086 0.87138 0.04863 0.0
H183 H 0.74586 0.83748 0.02858 0.0
C184 C 0.86832 0.81917 0.08445 0.0
C185 C 0.84528 0.7857 0.08939 0.0
C186 C 0.86425 0.83933 0.06215 0.0
C187 C 0.83688 0.82655 0.04458 0.0
C188 C 0.81382 0.79326 0.0495 0.0
H189 H 0.81771 0.84302 0.88956 0.0
H190 H 0.83679 0.82909 0.93197 0.0
C191 C 0.81787 0.77309 0.07172 0.0
C192 C 0.8335 0.84669 0.02054 0.0
H193 H 0.76655 0.88836 0.98184 0.0
C194 C 0.86632 0.84717 0.0048 0.0
C195 C 0.79759 0.86326 0.01256 0.0
C196 C 0.76209 0.86577 0.02924 0.0
C197 C 0.86352 0.86186 0.9807 0.0
C198 C 0.82681 0.8758 0.97213 0.0
C199 C 0.79461 0.8773 0.98836 0.0
C200 C 0.82013 0.8863 0.94601 0.0
C201 C 0.89974 0.86187 0.96458 0.0
C202 C 0.80435 0.92309 0.93981 0.0
C203 C 0.79302 0.93103 0.91559 0.0
C204 C 0.79706 0.90218 0.89718 0.0
C205 C 0.81431 0.86592 0.90327 0.0
C206 C 0.82552 0.85799 0.9275 0.0
H207 H 0.92703 0.86298 0.97581 0.0
H208 H 0.90047 0.83435 0.95361 0.0
H209 H 0.89969 0.88717 0.95166 0.0
H210 H 0.79978 0.94525 0.95387 0.0
H211 H 0.77991 0.95929 0.91148 0.0
H212 H 0.54641 0.30941 0.41117 0.0
H213 H 0.56084 0.3307 0.45321 0.0
H214 H 0.66899 0.38378 0.42813 0.0
H215 H 0.6547 0.36297 0.38599 0.0
H216 H 0.62706 0.30513 0.47825 0.0
H217 H 0.62357 0.46787 0.47417 0.0
H218 H 0.60106 0.43722 0.45094 0.0
H219 H 0.65327 0.4459 0.45047 0.0
C220 C 0.57292 0.32627 0.41449 0.0
C221 C 0.59955 0.33431 0.39527 0.0
C222 C 0.58106 0.33843 0.43852 0.0
C223 C 0.61576 0.35911 0.44371 0.0
C224 C 0.64166 0.36852 0.42442 0.0
H225 H 0.7609 0.41322 0.56695 0.0
H226 H 0.72826 0.40706 0.52707 0.0
C227 C 0.63357 0.35635 0.40038 0.0
C228 C 0.62712 0.36688 0.46955 0.0
H229 H 0.6559 0.43933 0.5091 0.0
C230 C 0.63277 0.3345 0.48516 0.0
C231 C 0.63468 0.40521 0.47838 0.0
C232 C 0.62749 0.44109 0.4627 0.0
C233 C 0.6474 0.33928 0.50909 0.0
C234 C 0.65591 0.37755 0.51774 0.0
C235 C 0.64931 0.41005 0.50236 0.0
C236 C 0.67398 0.38402 0.54214 0.0
C237 C 0.65529 0.30323 0.52454 0.0
C238 C 0.65388 0.37383 0.56382 0.0
C239 C 0.6725 0.37715 0.58667 0.0
C240 C 0.71148 0.39086 0.58816 0.0
C241 C 0.73098 0.40229 0.56643 0.0
C242 C 0.71235 0.39896 0.54363 0.0
H243 H 0.65471 0.27585 0.51339 0.0
H244 H 0.68435 0.30545 0.53377 0.0
H245 H 0.63237 0.30078 0.53905 0.0
H246 H 0.62402 0.36277 0.56302 0.0
H247 H 0.65656 0.3684 0.60309 0.0
H248 H 0.27285 0.20251 0.17494 0.0
H249 H 0.33189 0.23031 0.19397 0.0
H250 H 0.25943 0.30055 0.2422 0.0
H251 H 0.20029 0.27275 0.22354 0.0
H252 H 0.35342 0.31189 0.19683 0.0
H253 H 0.33558 0.24329 0.28921 0.0
H254 H 0.30946 0.22601 0.26237 0.0
H255 H 0.29339 0.26966 0.27807 0.0
C256 C 0.26945 0.2236 0.18975 0.0
C257 C 0.23186 0.23527 0.1978 0.0
C258 C 0.3032 0.23957 0.2005 0.0
C259 C 0.29993 0.26722 0.21958 0.0
C260 C 0.26252 0.27883 0.22772 0.0
H261 H 0.47777 0.37302 0.31339 0.0
H262 H 0.4164 0.36338 0.29073 0.0
C263 C 0.22878 0.26293 0.21699 0.0
C264 C 0.3357 0.28424 0.23079 0.0
H265 H 0.3873 0.28888 0.28453 0.0
C266 C 0.36089 0.30696 0.21601 0.0
C267 C 0.3451 0.27788 0.25583 0.0
C268 C 0.3197 0.25264 0.27231 0.0
C269 C 0.39541 0.32355 0.22566 0.0
C270 C 0.40514 0.31664 0.25061 0.0
C271 C 0.37958 0.29442 0.26545 0.0
C272 C 0.44302 0.32937 0.26142 0.0
C273 C 0.42099 0.34845 0.20913 0.0
C274 C 0.47851 0.31459 0.25197 0.0
C275 C 0.51363 0.32017 0.2648 0.0
C276 C 0.51381 0.34022 0.28749 0.0
C277 C 0.47867 0.35736 0.29601 0.0
C278 C 0.44353 0.3518 0.28313 0.0
H279 H 0.40385 0.36108 0.19362 0.0
H280 H 0.43496 0.37281 0.21956 0.0
H281 H 0.44465 0.32986 0.20116 0.0
H282 H 0.47873 0.2966 0.2355 0.0
H283 H 0.54016 0.30659 0.25769 0.0
H284 H 0.24473 0.69368 0.72938 0.0
H285 H 0.21965 0.752 0.75054 0.0
H286 H 0.24151 0.82156 0.68548 0.0
H287 H 0.26567 0.76322 0.66396 0.0
H288 H 0.25503 0.82084 0.76136 0.0
H289 H 0.12793 0.84842 0.69987 0.0
H290 H 0.15569 0.80322 0.69902 0.0
H291 H 0.17393 0.84642 0.68364 0.0
C292 C 0.24429 0.7214 0.71958 0.0
C293 C 0.25694 0.72379 0.69493 0.0
C294 C 0.22983 0.75467 0.73168 0.0
C295 C 0.22781 0.7909 0.71939 0.0
C296 C 0.24166 0.79364 0.69506 0.0
H297 H 0.19054 0.02938 0.76309 0.0
H298 H 0.19964 0.96793 0.74043 0.0
C299 C 0.25582 0.76034 0.68287 0.0
C300 C 0.21231 0.82605 0.73228 0.0
H301 H 0.14429 0.89976 0.72819 0.0
C302 C 0.23054 0.83783 0.75426 0.0
C303 C 0.18025 0.84811 0.72298 0.0
C304 C 0.15804 0.83571 0.70022 0.0
C305 C 0.21836 0.87174 0.76681 0.0
C306 C 0.18694 0.8942 0.75721 0.0
C307 C 0.16833 0.88229 0.73544 0.0
C308 C 0.17474 0.93132 0.76904 0.0
C309 C 0.23988 0.88402 0.78988 0.0
C310 C 0.15607 0.93101 0.79211 0.0
C311 C 0.15061 0.96609 0.80509 0.0
C312 C 0.16406 0.00188 0.79521 0.0
C313 C 0.1801 0.00227 0.77128 0.0
C314 C 0.18532 0.96723 0.75829 0.0
H315 H 0.26714 0.86663 0.79284 0.0
H316 H 0.24779 0.91567 0.78898 0.0
H317 H 0.22034 0.8798 0.80608 0.0
H318 H 0.14745 0.90346 0.80055 0.0
H319 H 0.13809 0.96477 0.82345 0.0
H320 H 0.46534 0.76581 0.27488 0.0
H321 H 0.52639 0.76834 0.25132 0.0
H322 H 0.56452 0.66005 0.28492 0.0
H323 H 0.50309 0.65707 0.30869 0.0
H324 H 0.60129 0.77109 0.27562 0.0
H325 H 0.58891 0.64602 0.20989 0.0
H326 H 0.54648 0.66778 0.22468 0.0
H327 H 0.57829 0.63577 0.24176 0.0
C328 C 0.48634 0.74211 0.27702 0.0
C329 C 0.47947 0.71133 0.29381 0.0
C330 C 0.52122 0.74366 0.26353 0.0
C331 C 0.54982 0.71439 0.26638 0.0
C332 C 0.54251 0.68268 0.28228 0.0
H333 H 0.7871 0.69859 0.20644 0.0
H334 H 0.72565 0.68659 0.2287 0.0
C335 C 0.50746 0.68107 0.29587 0.0
C336 C 0.58851 0.71927 0.25429 0.0
H337 H 0.64868 0.68154 0.20977 0.0
C338 C 0.61172 0.75152 0.26122 0.0
C339 C 0.60197 0.69347 0.2357 0.0
C340 C 0.57764 0.6589 0.22735 0.0
C341 C 0.64812 0.75884 0.24996 0.0
C342 C 0.66122 0.73362 0.23093 0.0
C343 C 0.63837 0.70089 0.22431 0.0
C344 C 0.69835 0.74111 0.21748 0.0
C345 C 0.67242 0.79323 0.25871 0.0
C346 C 0.70315 0.77565 0.20365 0.0
C347 C 0.73825 0.78271 0.19096 0.0
C348 C 0.76907 0.75519 0.19176 0.0
C349 C 0.76401 0.72048 0.20552 0.0
C350 C 0.7289 0.71348 0.2182 0.0
H351 H 0.66346 0.80297 0.27745 0.0
H352 H 0.70422 0.78573 0.25899 0.0
H353 H 0.66823 0.81832 0.24592 0.0
H354 H 0.67959 0.79702 0.20253 0.0
H355 H 0.7411 0.80958 0.1804 0.0
H356 H 0.80044 0.23812 0.64745 0.0
H357 H 0.81103 0.17367 0.66636 0.0
H358 H 0.74866 0.21182 0.73141 0.0
H359 H 0.73733 0.27596 0.71257 0.0
H360 H 0.85022 0.15573 0.70983 0.0
H361 H 0.69426 0.10861 0.71449 0.0
H362 H 0.71032 0.1496 0.69589 0.0
H363 H 0.70258 0.15565 0.7285 0.0
C364 C 0.78869 0.23269 0.6657 0.0
C365 C 0.76783 0.26208 0.67846 0.0
C366 C 0.79486 0.1959 0.67648 0.0
C367 C 0.78017 0.18786 0.70012 0.0
C368 C 0.75951 0.21717 0.71293 0.0
H369 H 0.84031 0.01773 0.80975 0.0
H370 H 0.8399 0.07373 0.78157 0.0
C371 C 0.75319 0.25387 0.70216 0.0
C372 C 0.78722 0.1492 0.71176 0.0
H373 H 0.73992 0.07201 0.73875 0.0
C374 C 0.82617 0.13715 0.71593 0.0
C375 C 0.75578 0.12481 0.71935 0.0
C376 C 0.7134 0.13509 0.71412 0.0
C377 C 0.83447 0.10195 0.72838 0.0
C378 C 0.80296 0.07865 0.73713 0.0
C379 C 0.76407 0.09005 0.73215 0.0
C380 C 0.80916 0.04314 0.75238 0.0
C381 C 0.87681 0.09005 0.73206 0.0
C382 C 0.79248 0.00723 0.74521 0.0
C383 C 0.79233 0.97531 0.76135 0.0
C384 C 0.80876 0.97878 0.78502 0.0
C385 C 0.82754 0.01406 0.79162 0.0
C386 C 0.8275 0.04607 0.77547 0.0
H387 H 0.89641 0.10402 0.71818 0.0
H388 H 0.8866 0.09973 0.75059 0.0
H389 H 0.88032 0.05765 0.7309 0.0
H390 H 0.77814 0.00439 0.72748 0.0
H391 H 0.7778 0.94848 0.75565 0.0
H392 H 0.74134 0.27871 0.30383 0.0
H393 H 0.80458 0.25708 0.28692 0.0
H394 H 0.74416 0.18266 0.23498 0.0
H395 H 0.68081 0.20422 0.25159 0.0
H396 H 0.83408 0.17705 0.28302 0.0
H397 H 0.81863 0.25147 0.19223 0.0
H398 H 0.78888 0.26446 0.21861 0.0
H399 H 0.77819 0.22067 0.2014 0.0
C400 C 0.74147 0.2579 0.28873 0.0
C401 C 0.70603 0.24335 0.27896 0.0
C402 C 0.77761 0.24546 0.27918 0.0
C403 C 0.77892 0.21854 0.25962 0.0
C404 C 0.74368 0.20383 0.24989 0.0
H405 H 0.97721 0.14 0.17069 0.0
H406 H 0.91237 0.14252 0.19024 0.0
C407 C 0.70754 0.21616 0.25944 0.0
C408 C 0.81723 0.20596 0.24935 0.0
H409 H 0.87479 0.21206 0.19796 0.0
C410 C 0.84304 0.18455 0.2644 0.0
C411 C 0.82857 0.21566 0.22504 0.0
C412 C 0.80234 0.23958 0.20836 0.0
C413 C 0.88013 0.17262 0.25574 0.0
C414 C 0.89183 0.18307 0.23159 0.0
C415 C 0.86565 0.20386 0.21642 0.0
C416 C 0.93198 0.17539 0.22207 0.0
C417 C 0.90629 0.14877 0.27246 0.0
C418 C 0.96469 0.19212 0.23382 0.0
C419 C 0.0018 0.19058 0.22277 0.0
C420 C 0.00678 0.17272 0.19958 0.0
C421 C 0.97439 0.15407 0.18851 0.0
C422 C 0.93728 0.15552 0.19963 0.0
H423 H 0.88884 0.1327 0.28657 0.0
H424 H 0.92407 0.12724 0.26183 0.0
H425 H 0.9267 0.16882 0.28228 0.0
H426 H 0.96119 0.20827 0.25088 0.0
H427 H 0.02609 0.2053 0.23179 0.0
H428 H 0.30426 0.52078 0.73222 0.0
H429 H 0.29851 0.45788 0.7537 0.0
H430 H 0.32941 0.39665 0.68683 0.0
H431 H 0.33521 0.45934 0.66513 0.0
H432 H 0.24186 0.40108 0.73538 0.0
H433 H 0.39292 0.33941 0.74213 0.0
H434 H 0.38355 0.3914 0.73852 0.0
H435 H 0.37945 0.359 0.71253 0.0
C436 C 0.31095 0.49403 0.72223 0.0
C437 C 0.31989 0.49501 0.6969 0.0
C438 C 0.30754 0.45814 0.73453 0.0
C439 C 0.31363 0.42276 0.72184 0.0
C440 C 0.32508 0.42371 0.697 0.0
H441 H 0.27271 0.17609 0.74837 0.0
H442 H 0.29045 0.24058 0.73184 0.0
C443 C 0.32822 0.45957 0.68462 0.0
C444 C 0.30306 0.38499 0.73352 0.0
H445 H 0.33993 0.29607 0.751 0.0
C446 C 0.2633 0.3782 0.73906 0.0
C447 C 0.3311 0.35522 0.73793 0.0
C448 C 0.37423 0.36153 0.73267 0.0
C449 C 0.25058 0.34194 0.74839 0.0
C450 C 0.27862 0.31206 0.75289 0.0
C451 C 0.3185 0.31903 0.74754 0.0
C452 C 0.2671 0.27319 0.76284 0.0
C453 C 0.20709 0.33556 0.75251 0.0
C454 C 0.24812 0.27017 0.78576 0.0
C455 C 0.23752 0.23342 0.79512 0.0
C456 C 0.24629 0.19896 0.78189 0.0
C457 C 0.26545 0.20208 0.75898 0.0
C458 C 0.27575 0.23887 0.74955 0.0
H459 H 0.18906 0.35674 0.74179 0.0
H460 H 0.19824 0.30527 0.7473 0.0
H461 H 0.2002 0.33991 0.77232 0.0
H462 H 0.24195 0.29622 0.79657 0.0
H463 H 0.22319 0.23199 0.81295 0.0
H464 H 0.26836 0.80003 0.30845 0.0
H465 H 0.20556 0.80747 0.28706 0.0
H466 H 0.22299 0.69554 0.25138 0.0
H467 H 0.28568 0.68754 0.27288 0.0
H468 H 0.19188 0.80908 0.23621 0.0
H469 H 0.11225 0.68612 0.28134 0.0
H470 H 0.15757 0.70604 0.29338 0.0
H471 H 0.15856 0.6722 0.26793 0.0
C472 C 0.25878 0.77685 0.29615 0.0
C473 C 0.28195 0.74308 0.29244 0.0
C474 C 0.22292 0.78122 0.28394 0.0
C475 C 0.20947 0.75184 0.26792 0.0
C476 C 0.23256 0.7182 0.26404 0.0
H477 H 0.03746 0.75882 0.15241 0.0
H478 H 0.09701 0.76149 0.17745 0.0
C479 C 0.26845 0.71378 0.27625 0.0
C480 C 0.17172 0.75684 0.25477 0.0
H481 H 0.08172 0.71466 0.24617 0.0
C482 C 0.16765 0.78863 0.23849 0.0
C483 C 0.14003 0.73044 0.2581 0.0
C484 C 0.14204 0.69698 0.27631 0.0
C485 C 0.13306 0.79402 0.22483 0.0
C486 C 0.10206 0.76659 0.22734 0.0
C487 C 0.10568 0.7355 0.24418 0.0
C488 C 0.0661 0.76863 0.21207 0.0
C489 C 0.12994 0.82904 0.20789 0.0
C490 C 0.02898 0.77161 0.22327 0.0
C491 C 0.99481 0.7699 0.20902 0.0
C492 C -0.00275 0.76483 0.18333 0.0
C493 C 0.03455 0.76285 0.17213 0.0
C494 C 0.06866 0.7646 0.18639 0.0
H495 H 0.15077 0.85271 0.21325 0.0
H496 H 0.13725 0.81979 0.18881 0.0
H497 H 0.0996 0.84119 0.20791 0.0
H498 H 0.02644 0.77456 0.2431 0.0
H499 H 0.96654 0.77146 0.21822 0.0
H500 H 0.67211 0.52281 0.66891 0.0
H501 H 0.67735 0.58192 0.69435 0.0
H502 H 0.7163 0.51179 0.75578 0.0
H503 H 0.71126 0.45241 0.73055 0.0
H504 H 0.65928 0.58015 0.76577 0.0
H505 H 0.79553 0.61518 0.71293 0.0
H506 H 0.7523 0.60368 0.69522 0.0
H507 H 0.7747 0.56636 0.71387 0.0
C508 C 0.68086 0.51976 0.688 0.0
C509 C 0.69182 0.48298 0.69761 0.0
C510 C 0.68393 0.55358 0.70245 0.0
C511 C 0.69771 0.55106 0.72673 0.0
C512 C 0.70573 0.51417 0.73701 0.0
H513 H 0.80947 0.73553 0.81251 0.0
H514 H 0.79203 0.6727 0.79331 0.0
C515 C 0.70286 0.48033 0.72255 0.0
C516 C 0.70768 0.58706 0.74051 0.0
H517 H 0.77454 0.66179 0.74233 0.0
C518 C 0.68441 0.5981 0.76071 0.0
C519 C 0.74093 0.6098 0.73401 0.0
C520 C 0.7676 0.5982 0.71294 0.0
C521 C 0.69314 0.63207 0.77435 0.0
C522 C 0.72579 0.65541 0.76741 0.0
C523 C 0.74948 0.64383 0.74751 0.0
C524 C 0.7354 0.6926 0.7801 0.0
C525 C 0.66765 0.6426 0.79617 0.0
C526 C 0.70945 0.72452 0.77877 0.0
C527 C 0.71937 0.76039 0.78955 0.0
C528 C 0.75552 0.76502 0.80183 0.0
C529 C 0.78142 0.73289 0.80322 0.0
C530 C 0.7715 0.69701 0.79231 0.0
H531 H 0.65005 0.61708 0.80265 0.0
H532 H 0.68583 0.65361 0.8117 0.0
H533 H 0.64695 0.66629 0.79077 0.0
H534 H 0.68179 0.72187 0.76901 0.0
H535 H 0.69875 0.78455 0.78811 0.0
H536 H 0.91485 0.62989 0.11723 0.0
H537 H 0.93689 0.56335 0.10688 0.0
H538 H 0.93316 0.53174 0.18383 0.0
H539 H 0.91069 0.59773 0.19431 0.0
H540 H 0.00464 0.5272 0.12262 0.0
H541 H 0.87457 0.44101 0.15159 0.0
H542 H 0.87279 0.49355 0.14697 0.0
H543 H 0.89107 0.47354 0.17545 0.0
C544 C 0.91831 0.60862 0.13191 0.0
C545 C 0.91096 0.61903 0.15659 0.0
C546 C 0.93088 0.57067 0.12596 0.0
C547 C 0.93599 0.54249 0.14454 0.0
C548 C 0.92846 0.55277 0.16915 0.0
H549 H 0.08718 0.35001 0.16502 0.0
H550 H 0.05569 0.41363 0.15914 0.0
C551 C 0.9159 0.59062 0.17512 0.0
C552 C 0.95182 0.50311 0.13866 0.0
H553 H 0.93594 0.40553 0.14895 0.0
C554 C 0.98936 0.50052 0.12795 0.0
C555 C 0.93153 0.46835 0.14519 0.0
C556 C 0.89008 0.46918 0.15519 0.0
C557 C 0.0082 0.46415 0.12508 0.0
C558 C 0.98922 0.42971 0.13355 0.0
C559 C 0.95066 0.43206 0.14275 0.0
C560 C 0.00995 0.39158 0.1351 0.0
C561 C 0.04857 0.46304 0.11347 0.0
C562 C 0.99435 0.35794 0.1238 0.0
C563 C 0.01214 0.32131 0.12731 0.0
C564 C 0.04561 0.31778 0.14235 0.0
C565 C 0.06151 0.35171 0.15326 0.0
C566 C 0.04373 0.3882 0.14976 0.0
H567 H 0.05305 0.48831 0.1008 0.0
H568 H 0.07117 0.46498 0.12816 0.0
H569 H 0.0533 0.43534 0.10305 0.0
H570 H 0.96807 0.35994 0.1126 0.0
H571 H -0.00085 0.29572 0.11867 0.0
H572 H 0.87306 0.38887 0.66348 0.0
H573 H 0.94164 0.41008 0.66662 0.0
H574 H 0.90541 0.53091 0.65881 0.0
H575 H 0.83671 0.51012 0.65604 0.0
H576 H 0.98902 0.45343 0.63427 0.0
H577 H 0.96773 0.53067 0.72347 0.0
H578 H 0.93174 0.49715 0.711 0.0
H579 H 0.93506 0.54658 0.69948 0.0
C580 C 0.87967 0.41996 0.66235 0.0
C581 C 0.84942 0.44786 0.65974 0.0
C582 C 0.91885 0.43199 0.66411 0.0
C583 C 0.92842 0.47206 0.66336 0.0
C584 C 0.89848 0.49989 0.65992 0.0
H585 H 0.15951 0.57649 0.64518 0.0
H586 H 0.09246 0.5522 0.63939 0.0
C587 C 0.85928 0.48792 0.65822 0.0
C588 C 0.96968 0.48477 0.66658 0.0
H589 H 0.0295 0.53913 0.70375 0.0
C590 C -0.00202 0.47209 0.64947 0.0
C591 C 0.98124 0.50858 0.68666 0.0
C592 C 0.95247 0.52128 0.70635 0.0
C593 C 0.03758 0.4832 0.65169 0.0
C594 C 0.04887 0.50813 0.67131 0.0
C595 C 0.02065 0.52027 0.68861 0.0
C596 C 0.08986 0.52185 0.67441 0.0
C597 C 0.06704 0.46762 0.63327 0.0
C598 C 0.11026 0.51352 0.69624 0.0
C599 C 0.14839 0.52772 0.69974 0.0
C600 C 0.16674 0.55057 0.68146 0.0
C601 C 0.14625 0.55878 0.65956 0.0
C602 C 0.10804 0.54471 0.65613 0.0
H603 H 0.05594 0.44093 0.62375 0.0
H604 H 0.07273 0.49041 0.61907 0.0
H605 H 0.09541 0.4604 0.64233 0.0
H606 H 0.09662 0.49606 0.71061 0.0
H607 H 0.1634 0.52083 0.71679 0.0
H608 H 0.503 0.18048 0.29877 0.0
H609 H 0.48057 0.11417 0.30872 0.0
H610 H 0.56484 0.10778 0.3679 0.0
H611 H 0.58749 0.17435 0.35818 0.0
H612 H 0.53097 0.04691 0.30824 0.0
H613 H 0.45885 0.07032 0.39924 0.0
H614 H 0.46807 0.10997 0.37784 0.0
H615 H 0.50766 0.09012 0.39579 0.0
C616 C 0.51657 0.16518 0.31406 0.0
C617 C 0.54712 0.18262 0.32765 0.0
C618 C 0.50367 0.12733 0.31971 0.0
C619 C 0.52082 0.10637 0.33916 0.0
C620 C 0.55086 0.12382 0.35306 0.0
H621 H 0.51111 0.85282 0.35445 0.0
H622 H 0.53243 0.92141 0.35488 0.0
C623 C 0.56391 0.16171 0.34737 0.0
C624 C 0.50901 0.06524 0.34367 0.0
H625 H 0.46417 0.00453 0.38522 0.0
C626 C 0.51643 0.03758 0.32508 0.0
C627 C 0.48987 0.05344 0.3656 0.0
C628 C 0.48029 0.08247 0.38575 0.0
C629 C 0.50519 -0.00176 0.32782 0.0
C630 C 0.4865 0.98626 0.34987 0.0
C631 C 0.47888 0.01391 0.36846 0.0
C632 C 0.4735 0.94525 0.35332 0.0
C633 C 0.51269 0.96994 0.30689 0.0
C634 C 0.43325 0.9362 0.35334 0.0
C635 C 0.4209 0.89703 0.35313 0.0
C636 C 0.44871 0.8664 0.35291 0.0
C637 C 0.48896 0.87571 0.35435 0.0
C638 C 0.50123 0.91484 0.35458 0.0
H639 H 0.52001 0.98543 0.28945 0.0
H640 H 0.53783 0.95061 0.3117 0.0
H641 H 0.48658 0.95099 0.30369 0.0
H642 H 0.41147 0.9594 0.35243 0.0
H643 H 0.38968 0.89082 0.35217 0.0
H644 H 0.31327 0.97771 0.83247 0.0
H645 H 0.38273 0.96007 0.83601 0.0
H646 H 0.41369 0.08283 0.8405 0.0
H647 H 0.34423 0.10074 0.83753 0.0
H648 H 0.44121 0.98016 0.8041 0.0
H649 H 0.47534 0.03682 0.89756 0.0
H650 H 0.42557 0.03068 0.88665 0.0
H651 H 0.45392 0.07291 0.87754 0.0
C652 C 0.3348 0.00096 0.83447 0.0
C653 C 0.32327 0.04062 0.83477 0.0
C654 C 0.37446 0.99082 0.8365 0.0
C655 C 0.40327 0.02011 0.83888 0.0
C656 C 0.39185 0.05973 0.83929 0.0
H657 H 0.65783 0.01685 0.82843 0.0
H658 H 0.58851 0.03605 0.83173 0.0
C659 C 0.35216 0.06991 0.83742 0.0
C660 C 0.4454 0.00922 0.83928 0.0
H661 H 0.53001 0.01726 0.8728 0.0
C662 C 0.46055 0.98803 0.8192 0.0
C663 C 0.47054 0.0197 0.85898 0.0
C664 C 0.4555 0.04096 0.88152 0.0
C665 C 0.50033 0.97741 0.81814 0.0
C666 C 0.52544 0.98804 0.83775 0.0
C667 C 0.51048 0.0093 0.85781 0.0
C668 C 0.56735 0.97686 0.83765 0.0
C669 C 0.51545 0.95535 0.79592 0.0
C670 C 0.57814 0.93738 0.84043 0.0
C671 C 0.61757 0.92631 0.83863 0.0
C672 C 0.64684 0.9546 0.83396 0.0
C673 C 0.63597 0.99435 0.83192 0.0
C674 C 0.59647 0.0054 0.83385 0.0
H675 H 0.49405 0.95567 0.78046 0.0
H676 H 0.54368 0.96816 0.78941 0.0
H677 H 0.52104 0.92429 0.80108 0.0
H678 H 0.55595 0.91506 0.84359 0.0
H679 H 0.62496 0.89547 0.84039 0.0
loop_
_geom_bond_atom_site_label_1
_geom_bond_atom_site_label_2
_geom_bond_distance
_geom_bond_site_symmetry_2
_ccdc_geom_bond_type
C0 O1 1.160 . S
C0 O7 1.185 . S
O1 C0 1.160 . S
O2 Zn3 1.899 . S
O2 C10 1.284 . S
Zn3 O2 1.899 . S
Zn3 O4 2.032 . S
Zn3 O7 2.086 . S
Zn3 O12 1.977 . S
O4 Zn3 2.032 . S
O4 C8 1.278 . S
C5 O6 1.203 . S
C5 O12 1.267 . S
O6 C5 1.203 . S
O7 C0 1.185 . S
O7 Zn3 2.086 . S
C8 O4 1.278 . S
C8 O9 1.211 . S
O9 C8 1.211 . S
C10 O2 1.284 . S
C10 O11 1.273 . S
O11 C10 1.273 . S
O12 Zn3 1.977 . S
O12 C5 1.267 . S
C13 O14 1.160 . S
C13 O20 1.185 . S
O14 C13 1.160 . S
O15 Zn16 1.899 . S
O15 C23 1.284 . S
Zn16 O15 1.899 . S
Zn16 O17 2.032 . S
Zn16 O20 2.086 . S
Zn16 O25 1.977 . S
O17 Zn16 2.032 . S
O17 C21 1.278 . S
C18 O19 1.203 . S
C18 O25 1.267 . S
O19 C18 1.203 . S
O20 C13 1.185 . S
O20 Zn16 2.086 . S
C21 O17 1.278 . S
C21 O22 1.211 . S
O22 C21 1.211 . S
C23 O15 1.284 . S
C23 O24 1.273 . S
O24 C23 1.273 . S
O25 Zn16 1.977 . S
O25 C18 1.267 . S
C26 O27 1.160 . S
C26 O33 1.185 . S
O27 C26 1.160 . S
O28 Zn29 1.899 . S
O28 C36 1.284 . S
Zn29 O28 1.899 . S
Zn29 O30 2.032 . S
Zn29 O33 2.086 . S
Zn29 O38 1.977 . S
O30 Zn29 2.032 . S
O30 C34 1.278 . S
C31 O32 1.203 . S
C31 O38 1.267 . S
O32 C31 1.203 . S
O33 C26 1.185 . S
O33 Zn29 2.086 . S
C34 O30 1.278 . S
C34 O35 1.211 . S
O35 C34 1.211 . S
C36 O28 1.284 . S
C36 O37 1.273 . S
O37 C36 1.273 . S
O38 Zn29 1.977 . S
O38 C31 1.267 . S
C39 O40 1.160 . S
C39 O46 1.185 . S
O40 C39 1.160 . S
O41 Zn42 1.899 . S
O41 C49 1.284 . S
Zn42 O41 1.899 . S
Zn42 O43 2.032 . S
Zn42 O46 2.086 . S
Zn42 O51 1.977 . S
O43 Zn42 2.032 . S
O43 C47 1.278 . S
C44 O45 1.203 . S
C44 O51 1.267 . S
O45 C44 1.203 . S
O46 C39 1.185 . S
O46 Zn42 2.086 . S
C47 O43 1.278 . S
C47 O48 1.211 . S
O48 C47 1.211 . S
C49 O41 1.284 . S
C49 O50 1.273 . S
O50 C49 1.273 . S
O51 Zn42 1.977 . S
O51 C44 1.267 . S
C52 O53 1.160 . S
C52 O59 1.185 . S
O53 C52 1.160 . S
O54 Zn55 1.899 . S
O54 C62 1.284 . S
Zn55 O54 1.899 . S
Zn55 O56 2.032 . S
Zn55 O59 2.086 . S
Zn55 O64 1.977 . S
O56 Zn55 2.032 . S
O56 C60 1.278 . S
C57 O58 1.203 . S
C57 O64 1.267 . S
O58 C57 1.203 . S
O59 C52 1.185 . S
O59 Zn55 2.086 . S
C60 O56 1.278 . S
C60 O61 1.211 . S
O61 C60 1.211 . S
C62 O54 1.284 . S
C62 O63 1.273 . S
O63 C62 1.273 . S
O64 Zn55 1.977 . S
O64 C57 1.267 . S
C65 O66 1.160 . S
C65 O72 1.185 . S
O66 C65 1.160 . S
O67 Zn68 1.899 . S
O67 C75 1.284 . S
Zn68 O67 1.899 . S
Zn68 O69 2.032 . S
Zn68 O72 2.086 . S
Zn68 O77 1.977 . S
O69 Zn68 2.032 . S
O69 C73 1.278 . S
C70 O71 1.203 . S
C70 O77 1.267 . S
O71 C70 1.203 . S
O72 C65 1.185 . S
O72 Zn68 2.086 . S
C73 O69 1.278 . S
C73 O74 1.211 . S
O74 C73 1.211 . S
C75 O67 1.284 . S
C75 O76 1.273 . S
O76 C75 1.273 . S
O77 Zn68 1.977 . S
O77 C70 1.267 . S
C78 O79 1.160 . S
C78 O85 1.185 . S
O79 C78 1.160 . S
O80 Zn81 1.899 . S
O80 C88 1.284 . S
Zn81 O80 1.899 . S
Zn81 O82 2.032 . S
Zn81 O85 2.086 . S
Zn81 O90 1.977 . S
O82 Zn81 2.032 . S
O82 C86 1.278 . S
C83 O84 1.203 . S
C83 O90 1.267 . S
O84 C83 1.203 . S
O85 C78 1.185 . S
O85 Zn81 2.086 . S
C86 O82 1.278 . S
C86 O87 1.211 . S
O87 C86 1.211 . S
C88 O80 1.284 . S
C88 O89 1.273 . S
O89 C88 1.273 . S
O90 Zn81 1.977 . S
O90 C83 1.267 . S
C91 O92 1.160 . S
C91 O98 1.185 . S
O92 C91 1.160 . S
O93 Zn94 1.899 . S
O93 C101 1.284 . S
Zn94 O93 1.899 . S
Zn94 O95 2.032 . S
Zn94 O98 2.086 . S
Zn94 O103 1.977 . S
O95 Zn94 2.032 . S
O95 C99 1.278 . S
C96 O97 1.203 . S
C96 O103 1.267 . S
O97 C96 1.203 . S
O98 C91 1.185 . S
O98 Zn94 2.086 . S
C99 O95 1.278 . S
C99 O100 1.211 . S
O100 C99 1.211 . S
C101 O93 1.284 . S
C101 O102 1.273 . S
O102 C101 1.273 . S
O103 Zn94 1.977 . S
O103 C96 1.267 . S
H104 C112 0.929 . S
H105 C114 0.930 . S
H106 C116 0.930 . S
H107 C119 0.929 . S
H108 C122 0.930 . S
H109 C124 0.960 . S
H110 C124 0.960 . S
H111 C124 0.960 . S
C112 H104 0.929 . S
C112 C113 1.377 . S
C112 C114 1.384 . S
C113 C112 1.377 . S
C113 C119 1.390 . S
C114 H105 0.930 . S
C114 C112 1.384 . S
C114 C115 1.372 . S
C115 C114 1.372 . S
C115 C116 1.400 . S
C115 C120 1.490 . S
C116 H106 0.930 . S
C116 C115 1.400 . S
C116 C119 1.386 . S
H117 C133 0.930 . S
H118 C134 0.931 . S
C119 H107 0.929 . S
C119 C113 1.390 . S
C119 C116 1.386 . S
C120 C115 1.490 . S
C120 C122 1.395 . S
C120 C123 1.403 . S
H121 C127 0.930 . S
C122 H108 0.930 . S
C122 C120 1.395 . S
C122 C125 1.403 1_554 S
C123 C120 1.403 . S
C123 C124 1.524 . S
C123 C127 1.400 1_554 S
C124 H109 0.960 . S
C124 H110 0.960 . S
C124 H111 0.960 . S
C124 C123 1.524 . S
C125 C122 1.403 1_556 S
C125 C126 1.392 . S
C125 C129 1.495 . S
C126 C125 1.392 . S
C126 C127 1.385 . S
C126 C128 1.478 . S
C127 H121 0.930 . S
C127 C123 1.400 1_556 S
C127 C126 1.385 . S
C128 C126 1.478 . S
C128 C130 1.381 . S
C128 C134 1.383 . S
C129 C125 1.495 . S
C129 H135 0.959 . S
C129 H136 0.961 . S
C129 H137 0.960 . S
C130 C128 1.381 . S
C130 C131 1.394 . S
C130 H138 0.930 . S
C131 C130 1.394 . S
C131 C132 1.383 . S
C131 H139 0.929 . S
C132 C131 1.383 . S
C132 C133 1.377 . S
C133 H117 0.930 . S
C133 C132 1.377 . S
C133 C134 1.379 . S
C134 H118 0.931 . S
C134 C128 1.383 . S
C134 C133 1.379 . S
H135 C129 0.959 . S
H136 C129 0.961 . S
H137 C129 0.960 . S
H138 C130 0.930 . S
H139 C131 0.929 . S
H140 C148 0.929 . S
H141 C150 0.930 . S
H142 C152 0.930 . S
H143 C155 0.929 . S
H144 C158 0.930 . S
H145 C160 0.960 . S
H146 C160 0.960 . S
H147 C160 0.960 . S
C148 H140 0.929 . S
C148 C149 1.377 . S
C148 C150 1.384 . S
C149 C148 1.377 . S
C149 C155 1.390 . S
C150 H141 0.930 . S
C150 C148 1.384 . S
C150 C151 1.372 . S
C151 C150 1.372 . S
C151 C152 1.400 . S
C151 C156 1.490 . S
C152 H142 0.930 . S
C152 C151 1.400 . S
C152 C155 1.386 . S
H153 C169 0.930 . S
H154 C170 0.931 . S
C155 H143 0.929 . S
C155 C149 1.390 . S
C155 C152 1.386 . S
C156 C151 1.490 . S
C156 C158 1.395 . S
C156 C159 1.403 . S
H157 C163 0.930 . S
C158 H144 0.930 . S
C158 C156 1.395 . S
C158 C161 1.403 . S
C159 C156 1.403 . S
C159 C160 1.524 . S
C159 C163 1.400 . S
C160 H145 0.960 . S
C160 H146 0.960 . S
C160 H147 0.960 . S
C160 C159 1.524 . S
C161 C158 1.403 . S
C161 C162 1.392 . S
C161 C165 1.495 . S
C162 C161 1.392 . S
C162 C163 1.385 . S
C162 C164 1.478 . S
C163 H157 0.930 . S
C163 C159 1.400 . S
C163 C162 1.385 . S
C164 C162 1.478 . S
C164 C166 1.381 . S
C164 C170 1.383 . S
C165 C161 1.495 . S
C165 H171 0.959 . S
C165 H172 0.961 . S
C165 H173 0.960 . S
C166 C164 1.381 . S
C166 C167 1.394 . S
C166 H174 0.930 . S
C167 C166 1.394 . S
C167 C168 1.383 . S
C167 H175 0.929 . S
C168 C167 1.383 . S
C168 C169 1.377 . S
C169 H153 0.930 . S
C169 C168 1.377 . S
C169 C170 1.379 . S
C170 H154 0.931 . S
C170 C164 1.383 . S
C170 C169 1.379 . S
H171 C165 0.959 . S
H172 C165 0.961 . S
H173 C165 0.960 . S
H174 C166 0.930 . S
H175 C167 0.929 . S
H176 C184 0.929 . S
H177 C186 0.930 . S
H178 C188 0.930 . S
H179 C191 0.929 . S
H180 C194 0.930 . S
H181 C196 0.960 . S
H182 C196 0.960 . S
H183 C196 0.960 . S
C184 H176 0.929 . S
C184 C185 1.377 . S
C184 C186 1.384 . S
C185 C184 1.377 . S
C185 C191 1.390 . S
C186 H177 0.930 . S
C186 C184 1.384 . S
C186 C187 1.372 . S
C187 C186 1.372 . S
C187 C188 1.400 . S
C187 C192 1.490 . S
C188 H178 0.930 . S
C188 C187 1.400 . S
C188 C191 1.386 . S
H189 C205 0.930 . S
H190 C206 0.931 . S
C191 H179 0.929 . S
C191 C185 1.390 . S
C191 C188 1.386 . S
C192 C187 1.490 . S
C192 C194 1.395 . S
C192 C195 1.403 . S
H193 C199 0.930 . S
C194 H180 0.930 . S
C194 C192 1.395 . S
C194 C197 1.403 1_554 S
C195 C192 1.403 . S
C195 C196 1.524 . S
C195 C199 1.400 1_554 S
C196 H181 0.960 . S
C196 H182 0.960 . S
C196 H183 0.960 . S
C196 C195 1.524 . S
C197 C194 1.403 1_556 S
C197 C198 1.392 . S
C197 C201 1.495 . S
C198 C197 1.392 . S
C198 C199 1.385 . S
C198 C200 1.478 . S
C199 H193 0.930 . S
C199 C195 1.400 1_556 S
C199 C198 1.385 . S
C200 C198 1.478 . S
C200 C202 1.381 . S
C200 C206 1.383 . S
C201 C197 1.495 . S
C201 H207 0.959 . S
C201 H208 0.961 . S
C201 H209 0.960 . S
C202 C200 1.381 . S
C202 C203 1.394 . S
C202 H210 0.930 . S
C203 C202 1.394 . S
C203 C204 1.383 . S
C203 H211 0.929 . S
C204 C203 1.383 . S
C204 C205 1.377 . S
C205 H189 0.930 . S
C205 C204 1.377 . S
C205 C206 1.379 . S
C206 H190 0.931 . S
C206 C200 1.383 . S
C206 C205 1.379 . S
H207 C201 0.959 . S
H208 C201 0.961 . S
H209 C201 0.960 . S
H210 C202 0.930 . S
H211 C203 0.929 . S
H212 C220 0.929 . S
H213 C222 0.930 . S
H214 C224 0.930 . S
H215 C227 0.929 . S
H216 C230 0.930 . S
H217 C232 0.960 . S
H218 C232 0.960 . S
H219 C232 0.960 . S
C220 H212 0.929 . S
C220 C221 1.377 . S
C220 C222 1.384 . S
C221 C220 1.377 . S
C221 C227 1.390 . S
C222 H213 0.930 . S
C222 C220 1.384 . S
C222 C223 1.372 . S
C223 C222 1.372 . S
C223 C224 1.400 . S
C223 C228 1.490 . S
C224 H214 0.930 . S
C224 C223 1.400 . S
C224 C227 1.386 . S
H225 C241 0.930 . S
H226 C242 0.931 . S
C227 H215 0.929 . S
C227 C221 1.390 . S
C227 C224 1.386 . S
C228 C223 1.490 . S
C228 C230 1.395 . S
C228 C231 1.403 . S
H229 C235 0.930 . S
C230 H216 0.930 . S
C230 C228 1.395 . S
C230 C233 1.403 . S
C231 C228 1.403 . S
C231 C232 1.524 . S
C231 C235 1.400 . S
C232 H217 0.960 . S
C232 H218 0.960 . S
C232 H219 0.960 . S
C232 C231 1.524 . S
C233 C230 1.403 . S
C233 C234 1.392 . S
C233 C237 1.495 . S
C234 C233 1.392 . S
C234 C235 1.385 . S
C234 C236 1.478 . S
C235 H229 0.930 . S
C235 C231 1.400 . S
C235 C234 1.385 . S
C236 C234 1.478 . S
C236 C238 1.381 . S
C236 C242 1.383 . S
C237 C233 1.495 . S
C237 H243 0.959 . S
C237 H244 0.961 . S
C237 H245 0.960 . S
C238 C236 1.381 . S
C238 C239 1.394 . S
C238 H246 0.930 . S
C239 C238 1.394 . S
C239 C240 1.383 . S
C239 H247 0.929 . S
C240 C239 1.383 . S
C240 C241 1.377 . S
C241 H225 0.930 . S
C241 C240 1.377 . S
C241 C242 1.379 . S
C242 H226 0.931 . S
C242 C236 1.383 . S
C242 C241 1.379 . S
H243 C237 0.959 . S
H244 C237 0.961 . S
H245 C237 0.960 . S
H246 C238 0.930 . S
H247 C239 0.929 . S
H248 C256 0.929 . S
H249 C258 0.930 . S
H250 C260 0.930 . S
H251 C263 0.929 . S
H252 C266 0.930 . S
H253 C268 0.960 . S
H254 C268 0.960 . S
H255 C268 0.960 . S
C256 H248 0.929 . S
C256 C257 1.377 . S
C256 C258 1.384 . S
C257 C256 1.377 . S
C257 C263 1.390 . S
C258 H249 0.930 . S
C258 C256 1.384 . S
C258 C259 1.372 . S
C259 C258 1.372 . S
C259 C260 1.400 . S
C259 C264 1.490 . S
C260 H250 0.930 . S
C260 C259 1.400 . S
C260 C263 1.386 . S
H261 C277 0.930 . S
H262 C278 0.931 . S
C263 H251 0.929 . S
C263 C257 1.390 . S
C263 C260 1.386 . S
C264 C259 1.490 . S
C264 C266 1.395 . S
C264 C267 1.403 . S
H265 C271 0.930 . S
C266 H252 0.930 . S
C266 C264 1.395 . S
C266 C269 1.403 . S
C267 C264 1.403 . S
C267 C268 1.524 . S
C267 C271 1.400 . S
C268 H253 0.960 . S
C268 H254 0.960 . S
C268 H255 0.960 . S
C268 C267 1.524 . S
C269 C266 1.403 . S
C269 C270 1.392 . S
C269 C273 1.495 . S
C270 C269 1.392 . S
C270 C271 1.385 . S
C270 C272 1.478 . S
C271 H265 0.930 . S
C271 C267 1.400 . S
C271 C270 1.385 . S
C272 C270 1.478 . S
C272 C274 1.381 . S
C272 C278 1.383 . S
C273 C269 1.495 . S
C273 H279 0.959 . S
C273 H280 0.961 . S
C273 H281 0.960 . S
C274 C272 1.381 . S
C274 C275 1.394 . S
C274 H282 0.930 . S
C275 C274 1.394 . S
C275 C276 1.383 . S
C275 H283 0.929 . S
C276 C275 1.383 . S
C276 C277 1.377 . S
C277 H261 0.930 . S
C277 C276 1.377 . S
C277 C278 1.379 . S
C278 H262 0.931 . S
C278 C272 1.383 . S
C278 C277 1.379 . S
H279 C273 0.959 . S
H280 C273 0.961 . S
H281 C273 0.960 . S
H282 C274 0.930 . S
H283 C275 0.929 . S
H284 C292 0.929 . S
H285 C294 0.930 . S
H286 C296 0.930 . S
H287 C299 0.929 . S
H288 C302 0.930 . S
H289 C304 0.960 . S
H290 C304 0.960 . S
H291 C304 0.960 . S
C292 H284 0.929 . S
C292 C293 1.377 . S
C292 C294 1.384 . S
C293 C292 1.377 . S
C293 C299 1.390 . S
C294 H285 0.930 . S
C294 C292 1.384 . S
C294 C295 1.372 . S
C295 C294 1.372 . S
C295 C296 1.400 . S
C295 C300 1.490 . S
C296 H286 0.930 . S
C296 C295 1.400 . S
C296 C299 1.386 . S
H297 C313 0.930 . S
H298 C314 0.931 . S
C299 H287 0.929 . S
C299 C293 1.390 . S
C299 C296 1.386 . S
C300 C295 1.490 . S
C300 C302 1.395 . S
C300 C303 1.403 . S
H301 C307 0.930 . S
C302 H288 0.930 . S
C302 C300 1.395 . S
C302 C305 1.403 . S
C303 C300 1.403 . S
C303 C304 1.524 . S
C303 C307 1.400 . S
C304 H289 0.960 . S
C304 H290 0.960 . S
C304 H291 0.960 . S
C304 C303 1.524 . S
C305 C302 1.403 . S
C305 C306 1.392 . S
C305 C309 1.495 . S
C306 C305 1.392 . S
C306 C307 1.385 . S
C306 C308 1.478 . S
C307 H301 0.930 . S
C307 C303 1.400 . S
C307 C306 1.385 . S
C308 C306 1.478 . S
C308 C310 1.381 . S
C308 C314 1.383 . S
C309 C305 1.495 . S
C309 H315 0.959 . S
C309 H316 0.961 . S
C309 H317 0.960 . S
C310 C308 1.381 . S
C310 C311 1.394 . S
C310 H318 0.930 . S
C311 C310 1.394 . S
C311 C312 1.383 1_565 S
C311 H319 0.929 1_565 S
C312 C311 1.383 1_545 S
C312 C313 1.377 1_545 S
C313 H297 0.930 . S
C313 C312 1.377 1_565 S
C313 C314 1.379 . S
C314 H298 0.931 . S
C314 C308 1.383 . S
C314 C313 1.379 . S
H315 C309 0.959 . S
H316 C309 0.961 . S
H317 C309 0.960 . S
H318 C310 0.930 . S
H319 C311 0.929 1_545 S
H320 C328 0.929 . S
H321 C330 0.930 . S
H322 C332 0.930 . S
H323 C335 0.929 . S
H324 C338 0.930 . S
H325 C340 0.960 . S
H326 C340 0.960 . S
H327 C340 0.960 . S
C328 H320 0.929 . S
C328 C329 1.377 . S
C328 C330 1.384 . S
C329 C328 1.377 . S
C329 C335 1.390 . S
C330 H321 0.930 . S
C330 C328 1.384 . S
C330 C331 1.372 . S
C331 C330 1.372 . S
C331 C332 1.400 . S
C331 C336 1.490 . S
C332 H322 0.930 . S
C332 C331 1.400 . S
C332 C335 1.386 . S
H333 C349 0.930 . S
H334 C350 0.931 . S
C335 H323 0.929 . S
C335 C329 1.390 . S
C335 C332 1.386 . S
C336 C331 1.490 . S
C336 C338 1.395 . S
C336 C339 1.403 . S
H337 C343 0.930 . S
C338 H324 0.930 . S
C338 C336 1.395 . S
C338 C341 1.403 . S
C339 C336 1.403 . S
C339 C340 1.524 . S
C339 C343 1.400 . S
C340 H325 0.960 . S
C340 H326 0.960 . S
C340 H327 0.960 . S
C340 C339 1.524 . S
C341 C338 1.403 . S
C341 C342 1.392 . S
C341 C345 1.495 . S
C342 C341 1.392 . S
C342 C343 1.385 . S
C342 C344 1.478 . S
C343 H337 0.930 . S
C343 C339 1.400 . S
C343 C342 1.385 . S
C344 C342 1.478 . S
C344 C346 1.381 . S
C344 C350 1.383 . S
C345 C341 1.495 . S
C345 H351 0.959 . S
C345 H352 0.961 . S
C345 H353 0.960 . S
C346 C344 1.381 . S
C346 C347 1.394 . S
C346 H354 0.930 . S
C347 C346 1.394 . S
C347 C348 1.383 . S
C347 H355 0.929 . S
C348 C347 1.383 . S
C348 C349 1.377 . S
C349 H333 0.930 . S
C349 C348 1.377 . S
C349 C350 1.379 . S
C350 H334 0.931 . S
C350 C344 1.383 . S
C350 C349 1.379 . S
H351 C345 0.959 . S
H352 C345 0.961 . S
H353 C345 0.960 . S
H354 C346 0.930 . S
H355 C347 0.929 . S
H356 C364 0.929 . S
H357 C366 0.930 . S
H358 C368 0.930 . S
H359 C371 0.929 . S
H360 C374 0.930 . S
H361 C376 0.960 . S
H362 C376 0.960 . S
H363 C376 0.960 . S
C364 H356 0.929 . S
C364 C365 1.377 . S
C364 C366 1.384 . S
C365 C364 1.377 . S
C365 C371 1.390 . S
C366 H357 0.930 . S
C366 C364 1.384 . S
C366 C367 1.372 . S
C367 C366 1.372 . S
C367 C368 1.400 . S
C367 C372 1.490 . S
C368 H358 0.930 . S
C368 C367 1.400 . S
C368 C371 1.386 . S
H369 C385 0.930 . S
H370 C386 0.931 . S
C371 H359 0.929 . S
C371 C365 1.390 . S
C371 C368 1.386 . S
C372 C367 1.490 . S
C372 C374 1.395 . S
C372 C375 1.403 . S
H373 C379 0.930 . S
C374 H360 0.930 . S
C374 C372 1.395 . S
C374 C377 1.403 . S
C375 C372 1.403 . S
C375 C376 1.524 . S
C375 C379 1.400 . S
C376 H361 0.960 . S
C376 H362 0.960 . S
C376 H363 0.960 . S
C376 C375 1.524 . S
C377 C374 1.403 . S
C377 C378 1.392 . S
C377 C381 1.495 . S
C378 C377 1.392 . S
C378 C379 1.385 . S
C378 C380 1.478 . S
C379 H373 0.930 . S
C379 C375 1.400 . S
C379 C378 1.385 . S
C380 C378 1.478 . S
C380 C382 1.381 . S
C380 C386 1.383 . S
C381 C377 1.495 . S
C381 H387 0.959 . S
C381 H388 0.961 . S
C381 H389 0.960 . S
C382 C380 1.381 . S
C382 C383 1.394 1_545 S
C382 H390 0.930 . S
C383 C382 1.394 1_565 S
C383 C384 1.383 . S
C383 H391 0.929 . S
C384 C383 1.383 . S
C384 C385 1.377 1_565 S
C385 H369 0.930 . S
C385 C384 1.377 1_545 S
C385 C386 1.379 . S
C386 H370 0.931 . S
C386 C380 1.383 . S
C386 C385 1.379 . S
H387 C381 0.959 . S
H388 C381 0.961 . S
H389 C381 0.960 . S
H390 C382 0.930 . S
H391 C383 0.929 . S
H392 C400 0.929 . S
H393 C402 0.930 . S
H394 C404 0.930 . S
H395 C407 0.929 . S
H396 C410 0.930 . S
H397 C412 0.960 . S
H398 C412 0.960 . S
H399 C412 0.960 . S
C400 H392 0.929 . S
C400 C401 1.377 . S
C400 C402 1.384 . S
C401 C400 1.377 . S
C401 C407 1.390 . S
C402 H393 0.930 . S
C402 C400 1.384 . S
C402 C403 1.372 . S
C403 C402 1.372 . S
C403 C404 1.400 . S
C403 C408 1.490 . S
C404 H394 0.930 . S
C404 C403 1.400 . S
C404 C407 1.386 . S
H405 C421 0.930 . S
H406 C422 0.931 . S
C407 H395 0.929 . S
C407 C401 1.390 . S
C407 C404 1.386 . S
C408 C403 1.490 . S
C408 C410 1.395 . S
C408 C411 1.403 . S
H409 C415 0.930 . S
C410 H396 0.930 . S
C410 C408 1.395 . S
C410 C413 1.403 . S
C411 C408 1.403 . S
C411 C412 1.524 . S
C411 C415 1.400 . S
C412 H397 0.960 . S
C412 H398 0.960 . S
C412 H399 0.960 . S
C412 C411 1.524 . S
C413 C410 1.403 . S
C413 C414 1.392 . S
C413 C417 1.495 . S
C414 C413 1.392 . S
C414 C415 1.385 . S
C414 C416 1.478 . S
C415 H409 0.930 . S
C415 C411 1.400 . S
C415 C414 1.385 . S
C416 C414 1.478 . S
C416 C418 1.381 . S
C416 C422 1.383 . S
C417 C413 1.495 . S
C417 H423 0.959 . S
C417 H424 0.961 . S
C417 H425 0.960 . S
C418 C416 1.381 . S
C418 C419 1.394 1_655 S
C418 H426 0.930 . S
C419 C418 1.394 1_455 S
C419 C420 1.383 . S
C419 H427 0.929 . S
C420 C419 1.383 . S
C420 C421 1.377 1_455 S
C421 H405 0.930 . S
C421 C420 1.377 1_655 S
C421 C422 1.379 . S
C422 H406 0.931 . S
C422 C416 1.383 . S
C422 C421 1.379 . S
H423 C417 0.959 . S
H424 C417 0.961 . S
H425 C417 0.960 . S
H426 C418 0.930 . S
H427 C419 0.929 . S
H428 C436 0.929 . S
H429 C438 0.930 . S
H430 C440 0.930 . S
H431 C443 0.929 . S
H432 C446 0.930 . S
H433 C448 0.960 . S
H434 C448 0.960 . S
H435 C448 0.960 . S
C436 H428 0.929 . S
C436 C437 1.377 . S
C436 C438 1.384 . S
C437 C436 1.377 . S
C437 C443 1.390 . S
C438 H429 0.930 . S
C438 C436 1.384 . S
C438 C439 1.372 . S
C439 C438 1.372 . S
C439 C440 1.400 . S
C439 C444 1.490 . S
C440 H430 0.930 . S
C440 C439 1.400 . S
C440 C443 1.386 . S
H441 C457 0.930 . S
H442 C458 0.931 . S
C443 H431 0.929 . S
C443 C437 1.390 . S
C443 C440 1.386 . S
C444 C439 1.490 . S
C444 C446 1.395 . S
C444 C447 1.403 . S
H445 C451 0.930 . S
C446 H432 0.930 . S
C446 C444 1.395 . S
C446 C449 1.403 . S
C447 C444 1.403 . S
C447 C448 1.524 . S
C447 C451 1.400 . S
C448 H433 0.960 . S
C448 H434 0.960 . S
C448 H435 0.960 . S
C448 C447 1.524 . S
C449 C446 1.403 . S
C449 C450 1.392 . S
C449 C453 1.495 . S
C450 C449 1.392 . S
C450 C451 1.385 . S
C450 C452 1.478 . S
C451 H445 0.930 . S
C451 C447 1.400 . S
C451 C450 1.385 . S
C452 C450 1.478 . S
C452 C454 1.381 . S
C452 C458 1.383 . S
C453 C449 1.495 . S
C453 H459 0.959 . S
C453 H460 0.961 . S
C453 H461 0.960 . S
C454 C452 1.381 . S
C454 C455 1.394 . S
C454 H462 0.930 . S
C455 C454 1.394 . S
C455 C456 1.383 . S
C455 H463 0.929 . S
C456 C455 1.383 . S
C456 C457 1.377 . S
C457 H441 0.930 . S
C457 C456 1.377 . S
C457 C458 1.379 . S
C458 H442 0.931 . S
C458 C452 1.383 . S
C458 C457 1.379 . S
H459 C453 0.959 . S
H460 C453 0.961 . S
H461 C453 0.960 . S
H462 C454 0.930 . S
H463 C455 0.929 . S
H464 C472 0.929 . S
H465 C474 0.930 . S
H466 C476 0.930 . S
H467 C479 0.929 . S
H468 C482 0.930 . S
H469 C484 0.960 . S
H470 C484 0.960 . S
H471 C484 0.960 . S
C472 H464 0.929 . S
C472 C473 1.377 . S
C472 C474 1.384 . S
C473 C472 1.377 . S
C473 C479 1.390 . S
C474 H465 0.930 . S
C474 C472 1.384 . S
C474 C475 1.372 . S
C475 C474 1.372 . S
C475 C476 1.400 . S
C475 C480 1.490 . S
C476 H466 0.930 . S
C476 C475 1.400 . S
C476 C479 1.386 . S
H477 C493 0.930 . S
H478 C494 0.931 . S
C479 H467 0.929 . S
C479 C473 1.390 . S
C479 C476 1.386 . S
C480 C475 1.490 . S
C480 C482 1.395 . S
C480 C483 1.403 . S
H481 C487 0.930 . S
C482 H468 0.930 . S
C482 C480 1.395 . S
C482 C485 1.403 . S
C483 C480 1.403 . S
C483 C484 1.524 . S
C483 C487 1.400 . S
C484 H469 0.960 . S
C484 H470 0.960 . S
C484 H471 0.960 . S
C484 C483 1.524 . S
C485 C482 1.403 . S
C485 C486 1.392 . S
C485 C489 1.495 . S
C486 C485 1.392 . S
C486 C487 1.385 . S
C486 C488 1.478 . S
C487 H481 0.930 . S
C487 C483 1.400 . S
C487 C486 1.385 . S
C488 C486 1.478 . S
C488 C490 1.381 . S
C488 C494 1.383 . S
C489 C485 1.495 . S
C489 H495 0.959 . S
C489 H496 0.961 . S
C489 H497 0.960 . S
C490 C488 1.381 . S
C490 C491 1.368 1_455 S
C490 H498 0.930 . S
C491 C490 1.368 1_655 S
C491 C492 1.390 . S
C491 H499 0.949 . S
C492 C491 1.390 . S
C492 C493 1.377 1_655 S
C493 H477 0.930 . S
C493 C492 1.377 1_455 S
C493 C494 1.379 . S
C494 H478 0.931 . S
C494 C488 1.383 . S
C494 C493 1.379 . S
H495 C489 0.959 . S
H496 C489 0.961 . S
H497 C489 0.960 . S
H498 C490 0.930 . S
H499 C491 0.949 . S
H500 C508 0.929 . S
H501 C510 0.930 . S
H502 C512 0.930 . S
H503 C515 0.929 . S
H504 C518 0.930 . S
H505 C520 0.960 . S
H506 C520 0.960 . S
H507 C520 0.960 . S
C508 H500 0.929 . S
C508 C509 1.377 . S
C508 C510 1.384 . S
C509 C508 1.377 . S
C509 C515 1.390 . S
C510 H501 0.930 . S
C510 C508 1.384 . S
C510 C511 1.372 . S
C511 C510 1.372 . S
C511 C512 1.400 . S
C511 C516 1.490 . S
C512 H502 0.930 . S
C512 C511 1.400 . S
C512 C515 1.386 . S
H513 C529 0.930 . S
H514 C530 0.931 . S
C515 H503 0.929 . S
C515 C509 1.390 . S
C515 C512 1.386 . S
C516 C511 1.490 . S
C516 C518 1.395 . S
C516 C519 1.403 . S
H517 C523 0.930 . S
C518 H504 0.930 . S
C518 C516 1.395 . S
C518 C521 1.403 . S
C519 C516 1.403 . S
C519 C520 1.524 . S
C519 C523 1.400 . S
C520 H505 0.960 . S
C520 H506 0.960 . S
C520 H507 0.960 . S
C520 C519 1.524 . S
C521 C518 1.403 . S
C521 C522 1.392 . S
C521 C525 1.495 . S
C522 C521 1.392 . S
C522 C523 1.385 . S
C522 C524 1.478 . S
C523 H517 0.930 . S
C523 C519 1.400 . S
C523 C522 1.385 . S
C524 C522 1.478 . S
C524 C526 1.381 . S
C524 C530 1.383 . S
C525 C521 1.495 . S
C525 H531 0.959 . S
C525 H532 0.961 . S
C525 H533 0.960 . S
C526 C524 1.381 . S
C526 C527 1.394 . S
C526 H534 0.930 . S
C527 C526 1.394 . S
C527 C528 1.383 . S
C527 H535 0.929 . S
C528 C527 1.383 . S
C528 C529 1.377 . S
C529 H513 0.930 . S
C529 C528 1.377 . S
C529 C530 1.379 . S
C530 H514 0.931 . S
C530 C524 1.383 . S
C530 C529 1.379 . S
H531 C525 0.959 . S
H532 C525 0.961 . S
H533 C525 0.960 . S
H534 C526 0.930 . S
H535 C527 0.929 . S
H536 C544 0.929 . S
H537 C546 0.930 . S
H538 C548 0.930 . S
H539 C551 0.929 . S
H540 C554 0.930 . S
H541 C556 0.960 . S
H542 C556 0.960 . S
H543 C556 0.960 . S
C544 H536 0.929 . S
C544 C545 1.377 . S
C544 C546 1.384 . S
C545 C544 1.377 . S
C545 C551 1.390 . S
C546 H537 0.930 . S
C546 C544 1.384 . S
C546 C547 1.372 . S
C547 C546 1.372 . S
C547 C548 1.400 . S
C547 C552 1.490 . S
C548 H538 0.930 . S
C548 C547 1.400 . S
C548 C551 1.386 . S
H549 C565 0.930 . S
H550 C566 0.931 . S
C551 H539 0.929 . S
C551 C545 1.390 . S
C551 C548 1.386 . S
C552 C547 1.490 . S
C552 C554 1.395 1_655 S
C552 C555 1.403 . S
H553 C559 0.930 . S
C554 H540 0.930 . S
C554 C552 1.395 1_455 S
C554 C557 1.403 . S
C555 C552 1.403 . S
C555 C556 1.524 . S
C555 C559 1.400 . S
C556 H541 0.960 . S
C556 H542 0.960 . S
C556 H543 0.960 . S
C556 C555 1.524 . S
C557 C554 1.403 . S
C557 C558 1.392 . S
C557 C561 1.495 . S
C558 C557 1.392 . S
C558 C559 1.385 1_455 S
C558 C560 1.478 . S
C559 H553 0.930 . S
C559 C555 1.400 . S
C559 C558 1.385 1_655 S
C560 C558 1.478 . S
C560 C562 1.381 . S
C560 C566 1.383 . S
C561 C557 1.495 . S
C561 H567 0.959 . S
C561 H568 0.961 . S
C561 H569 0.960 . S
C562 C560 1.381 . S
C562 C563 1.394 . S
C562 H570 0.930 . S
C563 C562 1.394 . S
C563 C564 1.383 . S
C563 H571 0.929 . S
C564 C563 1.383 . S
C564 C565 1.377 . S
C565 H549 0.930 . S
C565 C564 1.377 . S
C565 C566 1.379 . S
C566 H550 0.931 . S
C566 C560 1.383 . S
C566 C565 1.379 . S
H567 C561 0.959 . S
H568 C561 0.961 . S
H569 C561 0.960 . S
H570 C562 0.930 . S
H571 C563 0.929 . S
H572 C580 0.929 . S
H573 C582 0.930 . S
H574 C584 0.930 . S
H575 C587 0.929 . S
H576 C590 0.930 . S
H577 C592 0.960 . S
H578 C592 0.960 . S
H579 C592 0.960 . S
C580 H572 0.929 . S
C580 C581 1.377 . S
C580 C582 1.384 . S
C581 C580 1.377 . S
C581 C587 1.390 . S
C582 H573 0.930 . S
C582 C580 1.384 . S
C582 C583 1.372 . S
C583 C582 1.372 . S
C583 C584 1.400 . S
C583 C588 1.490 . S
C584 H574 0.930 . S
C584 C583 1.400 . S
C584 C587 1.386 . S
H585 C601 0.930 . S
H586 C602 0.931 . S
C587 H575 0.929 . S
C587 C581 1.390 . S
C587 C584 1.386 . S
C588 C583 1.490 . S
C588 C590 1.395 . S
C588 C591 1.403 . S
H589 C595 0.930 . S
C590 H576 0.930 . S
C590 C588 1.395 . S
C590 C593 1.403 1_655 S
C591 C588 1.403 . S
C591 C592 1.524 . S
C591 C595 1.400 1_655 S
C592 H577 0.960 . S
C592 H578 0.960 . S
C592 H579 0.960 . S
C592 C591 1.524 . S
C593 C590 1.403 1_455 S
C593 C594 1.392 . S
C593 C597 1.495 . S
C594 C593 1.392 . S
C594 C595 1.385 . S
C594 C596 1.478 . S
C595 H589 0.930 . S
C595 C591 1.400 1_455 S
C595 C594 1.385 . S
C596 C594 1.478 . S
C596 C598 1.381 . S
C596 C602 1.383 . S
C597 C593 1.495 . S
C597 H603 0.959 . S
C597 H604 0.961 . S
C597 H605 0.960 . S
C598 C596 1.381 . S
C598 C599 1.394 . S
C598 H606 0.930 . S
C599 C598 1.394 . S
C599 C600 1.383 . S
C599 H607 0.929 . S
C600 C599 1.383 . S
C600 C601 1.377 . S
C601 H585 0.930 . S
C601 C600 1.377 . S
C601 C602 1.379 . S
C602 H586 0.931 . S
C602 C596 1.383 . S
C602 C601 1.379 . S
H603 C597 0.959 . S
H604 C597 0.961 . S
H605 C597 0.960 . S
H606 C598 0.930 . S
H607 C599 0.929 . S
H608 C616 0.929 . S
H609 C618 0.930 . S
H610 C620 0.930 . S
H611 C623 0.929 . S
H612 C626 0.930 . S
H613 C628 0.960 . S
H614 C628 0.960 . S
H615 C628 0.960 . S
C616 H608 0.929 . S
C616 C617 1.377 . S
C616 C618 1.384 . S
C617 C616 1.377 . S
C617 C623 1.390 . S
C618 H609 0.930 . S
C618 C616 1.384 . S
C618 C619 1.372 . S
C619 C618 1.372 . S
C619 C620 1.400 . S
C619 C624 1.490 . S
C620 H610 0.930 . S
C620 C619 1.400 . S
C620 C623 1.386 . S
H621 C637 0.930 . S
H622 C638 0.931 . S
C623 H611 0.929 . S
C623 C617 1.390 . S
C623 C620 1.386 . S
C624 C619 1.490 . S
C624 C626 1.395 . S
C624 C627 1.403 . S
H625 C631 0.930 . S
C626 H612 0.930 . S
C626 C624 1.395 . S
C626 C629 1.403 1_545 S
C627 C624 1.403 . S
C627 C628 1.524 . S
C627 C631 1.400 1_545 S
C628 H613 0.960 . S
C628 H614 0.960 . S
C628 H615 0.960 . S
C628 C627 1.524 . S
C629 C626 1.403 1_565 S
C629 C630 1.392 . S
C629 C633 1.495 . S
C630 C629 1.392 . S
C630 C631 1.385 . S
C630 C632 1.478 . S
C631 H625 0.930 . S
C631 C627 1.400 1_565 S
C631 C630 1.385 . S
C632 C630 1.478 . S
C632 C634 1.381 . S
C632 C638 1.383 . S
C633 C629 1.495 . S
C633 H639 0.959 . S
C633 H640 0.961 . S
C633 H641 0.960 . S
C634 C632 1.381 . S
C634 C635 1.394 . S
C634 H642 0.930 . S
C635 C634 1.394 . S
C635 C636 1.383 . S
C635 H643 0.929 . S
C636 C635 1.383 . S
C636 C637 1.377 . S
C637 H621 0.930 . S
C637 C636 1.377 . S
C637 C638 1.379 . S
C638 H622 0.931 . S
C638 C632 1.383 . S
C638 C637 1.379 . S
H639 C633 0.959 . S
H640 C633 0.961 . S
H641 C633 0.960 . S
H642 C634 0.930 . S
H643 C635 0.929 . S
H644 C652 0.929 . S
H645 C654 0.919 1_565 S
H646 C656 0.930 . S
H647 C659 0.929 . S
H648 C662 0.930 . S
H649 C664 0.960 . S
H650 C664 0.960 . S
H651 C664 0.960 . S
C652 H644 0.929 . S
C652 C653 1.377 . S
C652 C654 1.384 . S
C653 C652 1.377 . S
C653 C659 1.390 . S
C654 H645 0.919 1_545 S
C654 C652 1.384 . S
C654 C655 1.372 . S
C655 C654 1.372 . S
C655 C656 1.400 . S
C655 C660 1.490 . S
C656 H646 0.930 . S
C656 C655 1.400 . S
C656 C659 1.386 . S
H657 C673 0.930 . S
H658 C674 0.931 1_545 S
C659 H647 0.929 . S
C659 C653 1.390 . S
C659 C656 1.386 . S
C660 C655 1.490 . S
C660 C662 1.395 . S
C660 C663 1.403 . S
H661 C667 0.930 . S
C662 H648 0.930 . S
C662 C660 1.395 . S
C662 C665 1.403 1_545 S
C663 C660 1.403 . S
C663 C664 1.524 . S
C663 C667 1.400 1_545 S
C664 H649 0.960 . S
C664 H650 0.960 . S
C664 H651 0.960 . S
C664 C663 1.524 . S
C665 C662 1.403 1_565 S
C665 C666 1.392 . S
C665 C669 1.495 . S
C666 C665 1.392 . S
C666 C667 1.385 . S
C666 C668 1.478 . S
C667 H661 0.930 . S
C667 C663 1.400 1_565 S
C667 C666 1.385 . S
C668 C666 1.478 . S
C668 C670 1.381 . S
C668 C674 1.383 . S
C669 C665 1.495 . S
C669 H675 0.959 . S
C669 H676 0.961 . S
C669 H677 0.960 . S
C670 C668 1.381 . S
C670 C671 1.394 . S
C670 H678 0.930 . S
C671 C670 1.394 . S
C671 C672 1.383 . S
C671 H679 0.929 . S
C672 C671 1.383 . S
C672 C673 1.377 . S
C673 H657 0.930 . S
C673 C672 1.377 . S
C673 C674 1.379 . S
C674 H658 0.931 1_565 S
C674 C668 1.383 . S
C674 C673 1.379 . S
H675 C669 0.959 . S
H676 C669 0.961 . S
H677 C669 0.960 . S
H678 C670 0.930 . S
H679 C671 0.929 . S
C113 C8 1.203 . S
C132 C73 1.188 . S
C149 C21 1.200 . S
C168 C86 1.175 . S
C185 C34 1.211 . S
C204 C99 1.231 . S
C221 C60 1.203 . S
C240 C47 1.186 . S
C257 C0 1.482 . S
C276 C62 1.478 . S
C293 C13 1.485 . S
C312 C75 1.468 . S
C329 C88 1.470 . S
C348 C26 1.466 . S
C365 C39 1.483 . S
C384 C101 1.483 . S
C401 C52 1.486 . S
C420 C10 1.485 . S
C437 C23 1.474 . S
C456 C65 1.494 . S
C473 C78 1.486 . S
C492 C36 1.475 . S
C509 C49 1.471 . S
C528 C91 1.490 . S
C545 C31 0.457 . S
C564 C5 0.530 . S
C581 C44 0.441 . S
C600 C18 0.394 . S
C617 C57 0.420 . S
C636 C83 0.341 . S
C653 C70 0.422 . S
C672 C96 0.425 . S
