# Generated by pormake.
# Topology sra, (4)-cn, num edge types: 1
# Building blocks:
#     Node 0, Type 0, BuildingBlock: AZAVOO_clean_sbu_0, # of connection points: 4
#     Node 1, Type 0, BuildingBlock: AZAVOO_clean_sbu_0, # of connection points: 4
#     Node 2, Type 0, BuildingBlock: AZAVOO_clean_sbu_0, # of connection points: 4
#     Node 3, Type 0, BuildingBlock: AZAVOO_clean_sbu_0, # of connection points: 4
#     Node 4, Type 0, BuildingBlock: AZAVOO_clean_sbu_0, # of connection points: 4
#     Node 5, Type 0, BuildingBlock: AZAVOO_clean_sbu_0, # of connection points: 4
#     Node 6, Type 0, BuildingBlock: AZAVOO_clean_sbu_0, # of connection points: 4
#     Node 7, Type 0, BuildingBlock: AZAVOO_clean_sbu_0, # of connection points: 4
#     Edge 8, Type (0, 0), BuildingBlock: OJICUG_clean_linker_0, # of connection points: 2
#     Edge 9, Type (0, 0), BuildingBlock: OJICUG_clean_linker_0, # of connection points: 2
#     Edge 10, Type (0, 0), BuildingBlock: OJICUG_clean_linker_0, # of connection points: 2
#     Edge 11, Type (0, 0), BuildingBlock: OJICUG_clean_linker_0, # of connection points: 2
#     Edge 12, Type (0, 0), BuildingBlock: OJICUG_clean_linker_0, # of connection points: 2
#     Edge 13, Type (0, 0), BuildingBlock: OJICUG_clean_linker_0, # of connection points: 2
#     Edge 14, Type (0, 0), BuildingBlock: OJICUG_clean_linker_0, # of connection points: 2
#     Edge 15, Type (0, 0), BuildingBlock: OJICUG_clean_linker_0, # of connection points: 2
#     Edge 16, Type (0, 0), BuildingBlock: OJICUG_clean_linker_0, # of connection points: 2
#     Edge 17, Type (0, 0), BuildingBlock: OJICUG_clean_linker_0, # of connection points: 2
#     Edge 18, Type (0, 0), BuildingBlock: OJICUG_clean_linker_0, # of connection points: 2
#     Edge 19, Type (0, 0), BuildingBlock: OJICUG_clean_linker_0, # of connection points: 2
#     Edge 20, Type (0, 0), BuildingBlock: OJICUG_clean_linker_0, # of connection points: 2
#     Edge 21, Type (0, 0), BuildingBlock: OJICUG_clean_linker_0, # of connection points: 2
#     Edge 22, Type (0, 0), BuildingBlock: OJICUG_clean_linker_0, # of connection points: 2
#     Edge 23, Type (0, 0), BuildingBlock: OJICUG_clean_linker_0, # of connection points: 2
# Relax obj value: 0.076
# Max RMSD: 0.076
# Mean RMSD: 0.076
data_MOF--net-sra--node1-AZAVOO_clean_sbu_0--edge1-OJICUG_clean_linker_0
_symmetry_space_group_name_H-M    P1
_symmetry_Int_Tables_number       1
_symmetry_cell_setting            triclinic
loop_
_symmetry_equiv_pos_as_xyz
'x, y, z'
_cell_length_a     20.056787
_cell_length_b     28.094968
_cell_length_c     33.367426
_cell_angle_alpha  89.994139
_cell_angle_beta   89.926819
_cell_angle_gamma 90.000238
loop_
_atom_site_label
_atom_site_type_symbol
_atom_site_fract_x
_atom_site_fract_y
_atom_site_fract_z
_atom_type_partial_charge
Mg0 Mg 0.01946 0.03832 0.15932 0.0
O1 O 0.01565 0.11965 0.15118 0.0
O2 O 0.11049 0.14355 0.12223 0.0
Mg3 Mg 0.17156 0.07732 0.10779 0.0
C4 C 0.05366 0.15247 0.1377 0.0
C5 C 0.88637 0.00061 0.19378 0.0
O6 O 0.923 0.96184 0.19395 0.0
O7 O -0.00587 0.0271 0.09318 0.0
O8 O 0.08954 0.05149 0.06477 0.0
O9 O 0.07455 0.04654 0.21676 0.0
O10 O 0.12364 0.03951 0.15778 0.0
C11 C 0.03027 0.03504 0.06235 0.0
C12 C 0.12896 0.04586 0.19586 0.0
O13 O 0.91067 0.03863 0.17916 0.0
Mg14 Mg -0.00192 0.46209 0.15996 0.0
O15 O 0.0025 0.38089 0.15134 0.0
O16 O 0.90822 0.35713 0.12182 0.0
Mg17 Mg 0.84669 0.42332 0.10788 0.0
C18 C 0.96484 0.34815 0.13746 0.0
C19 C 0.13073 0.50009 0.19438 0.0
O20 O 0.09394 0.53879 0.19457 0.0
O21 O 0.02386 0.47418 0.094 0.0
O22 O 0.92853 0.45055 0.0652 0.0
O23 O 0.94273 0.45309 0.21728 0.0
O24 O 0.89397 0.46057 0.15831 0.0
C25 C 0.98783 0.46698 0.06306 0.0
C26 C 0.88846 0.4538 0.19633 0.0
O27 O 0.10664 0.46202 0.17978 0.0
Mg28 Mg 0.01959 0.96161 0.8076 0.0
O29 O 0.0149 0.88041 0.81613 0.0
O30 O 0.10906 0.85637 0.84561 0.0
Mg31 Mg 0.17072 0.92243 0.85973 0.0
C32 C 0.05242 0.84755 0.82994 0.0
C33 C 0.88704 0.99961 0.77292 0.0
O34 O 0.9239 0.03827 0.7725 0.0
O35 O -0.00623 0.97365 0.87357 0.0
O36 O 0.08884 0.94961 0.90243 0.0
O37 O 0.07495 0.95255 0.75031 0.0
O38 O 0.12372 0.95989 0.80929 0.0
C39 C 0.02963 0.96623 0.90454 0.0
C40 C 0.12921 0.95311 0.77127 0.0
O41 O 0.91104 0.96163 0.78774 0.0
Mg42 Mg -0.00334 0.53781 0.80813 0.0
O43 O 0.00066 0.61917 0.81603 0.0
O44 O 0.90586 0.64332 0.84488 0.0
Mg45 Mg 0.84471 0.57722 0.85956 0.0
C46 C 0.96273 0.65209 0.8294 0.0
C47 C 0.12904 0.50014 0.7729 0.0
O48 O 0.09174 0.4617 0.77195 0.0
O49 O 0.02207 0.52692 0.87428 0.0
O50 O 0.92682 0.55168 0.90264 0.0
O51 O 0.94159 0.54584 0.75068 0.0
O52 O 0.8925 0.53914 0.80969 0.0
C53 C 0.98605 0.53517 0.90511 0.0
C54 C 0.8872 0.54535 0.7716 0.0
O55 O 0.1054 0.53793 0.78829 0.0
Mg56 Mg 0.51924 0.53782 0.65966 0.0
O57 O 0.51543 0.6191 0.65123 0.0
O58 O 0.61022 0.64282 0.62212 0.0
Mg59 Mg 0.6713 0.57652 0.60794 0.0
C60 C 0.55342 0.65184 0.63758 0.0
C61 C 0.38617 0.50014 0.69406 0.0
O62 O 0.42277 0.46135 0.69418 0.0
O63 O 0.49383 0.5263 0.5936 0.0
O64 O 0.58926 0.55043 0.56505 0.0
O65 O 0.57434 0.54629 0.71706 0.0
O66 O 0.62341 0.539 0.65809 0.0
C67 C 0.52996 0.53404 0.56272 0.0
C68 C 0.62874 0.54551 0.69615 0.0
O69 O 0.4105 0.53818 0.6795 0.0
Mg70 Mg 0.49764 0.9614 0.6597 0.0
O71 O 0.50221 0.88024 0.65087 0.0
O72 O 0.40801 0.85653 0.62124 0.0
Mg73 Mg 0.34636 0.92271 0.60746 0.0
C74 C 0.46461 0.84753 0.63689 0.0
C75 C 0.63011 0.99938 0.69433 0.0
O76 O 0.59316 0.038 0.69472 0.0
O77 O 0.52342 0.97381 0.59376 0.0
O78 O 0.42812 0.9503 0.56486 0.0
O79 O 0.44229 0.95212 0.71699 0.0
O80 O 0.39351 0.95979 0.65803 0.0
C81 C 0.4874 0.96678 0.56279 0.0
C82 C 0.38801 0.95286 0.69604 0.0
O83 O 0.60619 0.96137 0.67954 0.0
Mg84 Mg 0.51998 0.46216 0.30784 0.0
O85 O 0.51535 0.38089 0.31595 0.0
O86 O 0.60957 0.35664 0.34526 0.0
Mg87 Mg 0.67112 0.42262 0.35977 0.0
C88 C 0.55291 0.34793 0.32957 0.0
C89 C 0.38762 0.50022 0.27299 0.0
O90 O 0.42464 0.5388 0.27244 0.0
O91 O 0.4941 0.47365 0.37385 0.0
O92 O 0.58908 0.44923 0.4026 0.0
O93 O 0.57538 0.45356 0.25052 0.0
O94 O 0.62409 0.46049 0.30956 0.0
C95 C 0.52988 0.46585 0.40479 0.0
C96 C 0.62962 0.454 0.2715 0.0
O97 O 0.41146 0.46227 0.28795 0.0
Mg98 Mg 0.49683 0.03819 0.30798 0.0
O99 O 0.50089 0.11955 0.31576 0.0
O100 O 0.40608 0.14382 0.34453 0.0
Mg101 Mg 0.34481 0.07779 0.35926 0.0
C102 C 0.46298 0.15253 0.32906 0.0
C103 C 0.62922 0.00054 0.27264 0.0
O104 O 0.59185 0.96215 0.27154 0.0
O105 O 0.52207 0.02736 0.37419 0.0
O106 O 0.42678 0.05222 0.40243 0.0
O107 O 0.4418 0.04616 0.25049 0.0
O108 O 0.39265 0.03956 0.30948 0.0
C109 C 0.48597 0.03565 0.40497 0.0
C110 C 0.38738 0.0457 0.27138 0.0
O111 O 0.60563 0.03827 0.28817 0.0
C112 C 0.05596 0.28728 0.13992 0.0
C113 C 0.98762 0.29813 0.13909 0.0
H114 H 0.13042 0.23264 0.1396 0.0
C115 C 0.9411 0.26068 0.139 0.0
H116 H 0.09295 0.31538 0.1399 0.0
C117 C 0.96251 0.21333 0.13957 0.0
C118 C 0.03087 0.20248 0.13932 0.0
H119 H 0.88807 0.26797 0.1386 0.0
H120 H 0.92552 0.18523 0.13925 0.0
C121 C 0.07738 0.23993 0.13957 0.0
C122 C 0.96104 0.7869 0.82725 0.0
C123 C 0.02943 0.79759 0.82819 0.0
H124 H 0.88634 0.73243 0.82741 0.0
C125 C 0.07578 0.76003 0.82826 0.0
H126 H 0.92418 0.81508 0.82726 0.0
C127 C 0.05416 0.71274 0.82759 0.0
C128 C 0.98575 0.70205 0.82776 0.0
H129 H 0.12884 0.7672 0.82873 0.0
H130 H 0.09102 0.68455 0.82793 0.0
C131 C 0.93941 0.7396 0.82749 0.0
C132 C 0.46227 0.71271 0.63917 0.0
C133 C 0.53063 0.70186 0.639 0.0
H134 H 0.38784 0.76735 0.63803 0.0
C135 C 0.57714 0.7393 0.63918 0.0
H136 H 0.42528 0.68461 0.6389 0.0
C137 C 0.55573 0.78666 0.63941 0.0
C138 C 0.48739 0.79751 0.63852 0.0
H139 H 0.63018 0.73201 0.63927 0.0
H140 H 0.59272 0.81476 0.63937 0.0
C141 C 0.44087 0.76006 0.63847 0.0
C142 C 0.57616 0.26041 0.32771 0.0
C143 C 0.52986 0.29799 0.3277 0.0
H144 H 0.5913 0.18491 0.3274 0.0
C145 C 0.46145 0.28735 0.32681 0.0
H146 H 0.62923 0.26753 0.32815 0.0
C147 C 0.43976 0.24006 0.32709 0.0
C148 C 0.48606 0.20248 0.32734 0.0
H149 H 0.42462 0.31555 0.32687 0.0
H150 H 0.38668 0.23292 0.32706 0.0
C151 C 0.55448 0.21312 0.32708 0.0
C152 C 0.2629 0.05174 0.27536 0.0
C153 C 0.32142 0.05094 0.25214 0.0
H154 H 0.15624 0.05153 0.27579 0.0
C155 C 0.31604 0.05183 0.21019 0.0
H156 H 0.26512 0.05076 0.30773 0.0
C157 C 0.25347 0.05158 0.19185 0.0
C158 C 0.19495 0.05102 0.21507 0.0
H159 H 0.36014 0.05109 0.19143 0.0
H160 H 0.25124 0.05047 0.15949 0.0
C161 C 0.20034 0.05209 0.25702 0.0
C162 C 0.70136 0.44755 0.21043 0.0
C163 C 0.69568 0.44851 0.25237 0.0
H164 H 0.76652 0.4489 0.1598 0.0
C165 C 0.75401 0.44763 0.27567 0.0
H166 H 0.65741 0.44832 0.19161 0.0
C167 C 0.8167 0.44728 0.2574 0.0
C168 C 0.82239 0.44839 0.21546 0.0
H169 H 0.75154 0.44862 0.30803 0.0
H170 H 0.86066 0.44785 0.27621 0.0
C171 C 0.76405 0.44778 0.19216 0.0
C172 C 0.20092 0.94647 0.71018 0.0
C173 C 0.19526 0.94752 0.75213 0.0
H174 H 0.26605 0.94775 0.65954 0.0
C175 C 0.2536 0.94668 0.77541 0.0
H176 H 0.15695 0.9472 0.69138 0.0
C177 C 0.31629 0.94631 0.75712 0.0
C178 C 0.32195 0.94738 0.71518 0.0
H179 H 0.25116 0.94772 0.80777 0.0
H180 H 0.36026 0.94692 0.77593 0.0
C181 C 0.2636 0.9467 0.6919 0.0
C182 C 0.75324 0.55123 0.6921 0.0
C183 C 0.69474 0.5507 0.71534 0.0
H184 H 0.8599 0.55071 0.69165 0.0
C185 C 0.70015 0.55178 0.75729 0.0
H186 H 0.75099 0.55011 0.65974 0.0
C187 C 0.76273 0.55142 0.77561 0.0
C188 C 0.82123 0.55059 0.75238 0.0
H189 H 0.65606 0.55124 0.77607 0.0
H190 H 0.76497 0.55046 0.80798 0.0
C191 C 0.81582 0.55148 0.71043 0.0
C192 C 0.72802 0.95628 0.72364 0.0
C193 C 0.69645 0.99936 0.7137 0.0
H194 H 0.81237 0.92255 0.75081 0.0
C195 C 0.72765 0.04247 0.7239 0.0
H196 H 0.70504 0.92246 0.71645 0.0
C197 C 0.78935 0.04252 0.74335 0.0
C198 C 0.8207 0.99947 0.75355 0.0
H199 H 0.70455 0.07625 0.71671 0.0
H200 H 0.81234 0.07635 0.75053 0.0
C201 C 0.78928 0.95634 0.74362 0.0
C202 C 0.28807 0.45719 0.72326 0.0
C203 C 0.31977 0.50027 0.71348 0.0
H204 H 0.20299 0.42338 0.74962 0.0
C205 C 0.28864 0.54337 0.72392 0.0
H206 H 0.31082 0.42339 0.71569 0.0
C207 C 0.22735 0.54335 0.74397 0.0
C208 C 0.19544 0.50024 0.75348 0.0
H209 H 0.31201 0.57717 0.71706 0.0
H210 H 0.2046 0.57715 0.75155 0.0
C211 C 0.22635 0.45718 0.74277 0.0
C212 C 0.72757 0.04379 0.24376 0.0
C213 C 0.69563 0.00068 0.25322 0.0
H214 H 0.81225 0.07764 0.21688 0.0
C215 C 0.72652 0.95763 0.24246 0.0
H216 H 0.70483 0.07758 0.25139 0.0
C217 C 0.78824 0.95766 0.22294 0.0
C218 C 0.81996 0.00074 0.21321 0.0
H219 H 0.70314 0.92382 0.24926 0.0
H220 H 0.81096 0.92387 0.21533 0.0
C221 C 0.78886 0.04383 0.2237 0.0
C222 C 0.22845 0.54315 0.22376 0.0
C223 C 0.19707 0.50005 0.21375 0.0
H224 H 0.31327 0.577 0.25026 0.0
C225 C 0.22845 0.45696 0.22387 0.0
H226 H 0.20548 0.57694 0.21643 0.0
C227 C 0.2897 0.457 0.24385 0.0
C228 C 0.3213 0.50012 0.2536 0.0
H229 H 0.20533 0.42314 0.21682 0.0
H230 H 0.31265 0.42321 0.25118 0.0
C231 C 0.29014 0.54318 0.24322 0.0
C232 C 0.00078 0.96992 0.01551 0.0
C233 C 0.00811 0.01888 0.02267 0.0
H234 H 0.00241 0.91435 0.97132 0.0
C235 C 0.00964 0.0505 -0.00986 0.0
H236 H 0.0009 0.9449 0.04023 0.0
C237 C 0.00833 0.03315 0.95088 0.0
C238 C 0.00765 0.98394 0.94378 0.0
H239 H 0.01641 0.08831 -0.00491 0.0
H240 H 0.01432 0.05792 0.92623 0.0
C241 C 0.00172 0.95247 0.97623 0.0
C242 C 0.0176 0.47073 0.9522 0.0
C243 C 0.00841 0.51949 0.94488 0.0
H244 H 0.01773 0.41531 -0.00344 0.0
C245 C 0.00548 0.55119 0.97732 0.0
H246 H 0.01862 0.44562 0.92756 0.0
C247 C 0.00714 0.53403 0.01663 0.0
C248 C 0.00965 0.48488 0.02387 0.0
H249 H -0.00266 0.58885 0.97225 0.0
H250 H 0.0 0.55877 0.04118 0.0
C251 C 0.01704 0.45341 -0.00847 0.0
C252 C 0.50388 0.45123 0.47658 0.0
C253 C 0.50771 0.48295 0.44418 0.0
H254 H 0.50456 0.4434 0.54054 0.0
C255 C 0.50603 0.53213 0.45142 0.0
H256 H 0.50635 0.41317 0.47156 0.0
C257 C 0.50718 0.54935 0.49073 0.0
C258 C 0.50778 0.51757 0.52316 0.0
H259 H 0.51037 0.55712 0.42681 0.0
H260 H 0.51221 0.58728 0.49577 0.0
C261 C 0.50276 0.4685 0.5159 0.0
C262 C 0.50588 0.03416 0.51658 0.0
C263 C 0.50918 0.98501 0.52369 0.0
H264 H 0.49564 0.08908 0.47235 0.0
C265 C 0.51741 0.95374 0.49129 0.0
H266 H 0.4981 0.05872 0.54119 0.0
C267 C 0.51808 0.97123 0.452 0.0
C268 C 0.50815 0.01996 0.4448 0.0
H269 H 0.51871 0.91563 0.49621 0.0
H270 H 0.51978 0.94624 0.42729 0.0
C271 C 0.50435 0.05148 0.47733 0.0
loop_
_geom_bond_atom_site_label_1
_geom_bond_atom_site_label_2
_geom_bond_distance
_geom_bond_site_symmetry_2
_ccdc_geom_bond_type
Mg0 O1 2.028 . S
Mg0 O7 1.986 . S
Mg0 O9 2.114 . S
Mg0 O10 2.251 . S
Mg0 O13 2.010 1_455 S
O1 Mg0 2.028 . S
O1 C4 1.250 . S
O2 Mg3 2.028 . S
O2 C4 1.248 . S
Mg3 O2 2.028 . S
Mg3 O8 2.032 . S
Mg3 O10 2.079 . S
C4 O1 1.250 . S
C4 O2 1.248 . S
C5 O6 1.264 1_545 S
C5 O13 1.249 . S
O6 C5 1.264 1_565 S
O7 Mg0 1.986 . S
O7 C11 1.246 . S
O8 Mg3 2.032 . S
O8 C11 1.259 . S
O9 Mg0 2.114 . S
O9 C12 1.252 . S
O10 Mg0 2.251 . S
O10 Mg3 2.079 . S
O10 C12 1.273 . S
C11 O7 1.246 . S
C11 O8 1.259 . S
C12 O9 1.252 . S
C12 O10 1.273 . S
O13 Mg0 2.010 1_655 S
O13 C5 1.249 . S
Mg14 O15 2.028 . S
Mg14 O21 1.986 . S
Mg14 O23 2.114 1_455 S
Mg14 O24 2.251 1_455 S
Mg14 O27 2.010 . S
O15 Mg14 2.028 . S
O15 C18 1.250 1_455 S
O16 Mg17 2.028 . S
O16 C18 1.248 . S
Mg17 O16 2.028 . S
Mg17 O22 2.032 . S
Mg17 O24 2.079 . S
C18 O15 1.250 1_655 S
C18 O16 1.248 . S
C19 O20 1.264 . S
C19 O27 1.249 . S
O20 C19 1.264 . S
O21 Mg14 1.986 . S
O21 C25 1.246 1_455 S
O22 Mg17 2.032 . S
O22 C25 1.259 . S
O23 Mg14 2.114 1_655 S
O23 C26 1.252 . S
O24 Mg14 2.251 1_655 S
O24 Mg17 2.079 . S
O24 C26 1.273 . S
C25 O21 1.246 1_655 S
C25 O22 1.259 . S
C26 O23 1.252 . S
C26 O24 1.273 . S
O27 Mg14 2.010 . S
O27 C19 1.249 . S
Mg28 O29 2.028 . S
Mg28 O35 1.986 . S
Mg28 O37 2.114 . S
Mg28 O38 2.251 . S
Mg28 O41 2.010 1_455 S
O29 Mg28 2.028 . S
O29 C32 1.250 . S
O30 Mg31 2.028 . S
O30 C32 1.248 . S
Mg31 O30 2.028 . S
Mg31 O36 2.032 . S
Mg31 O38 2.079 . S
C32 O29 1.250 . S
C32 O30 1.248 . S
C33 O34 1.264 1_565 S
C33 O41 1.249 . S
O34 C33 1.264 1_545 S
O35 Mg28 1.986 . S
O35 C39 1.246 . S
O36 Mg31 2.032 . S
O36 C39 1.259 . S
O37 Mg28 2.114 . S
O37 C40 1.252 . S
O38 Mg28 2.251 . S
O38 Mg31 2.079 . S
O38 C40 1.273 . S
C39 O35 1.246 . S
C39 O36 1.259 . S
C40 O37 1.252 . S
C40 O38 1.273 . S
O41 Mg28 2.010 1_655 S
O41 C33 1.249 . S
Mg42 O43 2.028 . S
Mg42 O49 1.986 . S
Mg42 O51 2.114 1_455 S
Mg42 O52 2.251 1_455 S
Mg42 O55 2.010 . S
O43 Mg42 2.028 . S
O43 C46 1.250 1_455 S
O44 Mg45 2.028 . S
O44 C46 1.248 . S
Mg45 O44 2.028 . S
Mg45 O50 2.032 . S
Mg45 O52 2.079 . S
C46 O43 1.250 1_655 S
C46 O44 1.248 . S
C47 O48 1.264 . S
C47 O55 1.249 . S
O48 C47 1.264 . S
O49 Mg42 1.986 . S
O49 C53 1.246 1_455 S
O50 Mg45 2.032 . S
O50 C53 1.259 . S
O51 Mg42 2.114 1_655 S
O51 C54 1.252 . S
O52 Mg42 2.251 1_655 S
O52 Mg45 2.079 . S
O52 C54 1.273 . S
C53 O49 1.246 1_655 S
C53 O50 1.259 . S
C54 O51 1.252 . S
C54 O52 1.273 . S
O55 Mg42 2.010 . S
O55 C47 1.249 . S
Mg56 O57 2.028 . S
Mg56 O63 1.986 . S
Mg56 O65 2.114 . S
Mg56 O66 2.251 . S
Mg56 O69 2.010 . S
O57 Mg56 2.028 . S
O57 C60 1.250 . S
O58 Mg59 2.028 . S
O58 C60 1.248 . S
Mg59 O58 2.028 . S
Mg59 O64 2.032 . S
Mg59 O66 2.079 . S
C60 O57 1.250 . S
C60 O58 1.248 . S
C61 O62 1.264 . S
C61 O69 1.249 . S
O62 C61 1.264 . S
O63 Mg56 1.986 . S
O63 C67 1.246 . S
O64 Mg59 2.032 . S
O64 C67 1.259 . S
O65 Mg56 2.114 . S
O65 C68 1.252 . S
O66 Mg56 2.251 . S
O66 Mg59 2.079 . S
O66 C68 1.273 . S
C67 O63 1.246 . S
C67 O64 1.259 . S
C68 O65 1.252 . S
C68 O66 1.273 . S
O69 Mg56 2.010 . S
O69 C61 1.249 . S
Mg70 O71 2.028 . S
Mg70 O77 1.986 . S
Mg70 O79 2.114 . S
Mg70 O80 2.251 . S
Mg70 O83 2.010 . S
O71 Mg70 2.028 . S
O71 C74 1.250 . S
O72 Mg73 2.028 . S
O72 C74 1.248 . S
Mg73 O72 2.028 . S
Mg73 O78 2.032 . S
Mg73 O80 2.079 . S
C74 O71 1.250 . S
C74 O72 1.248 . S
C75 O76 1.264 1_565 S
C75 O83 1.249 . S
O76 C75 1.264 1_545 S
O77 Mg70 1.986 . S
O77 C81 1.246 . S
O78 Mg73 2.032 . S
O78 C81 1.259 . S
O79 Mg70 2.114 . S
O79 C82 1.252 . S
O80 Mg70 2.251 . S
O80 Mg73 2.079 . S
O80 C82 1.273 . S
C81 O77 1.246 . S
C81 O78 1.259 . S
C82 O79 1.252 . S
C82 O80 1.273 . S
O83 Mg70 2.010 . S
O83 C75 1.249 . S
Mg84 O85 2.028 . S
Mg84 O91 1.986 . S
Mg84 O93 2.114 . S
Mg84 O94 2.251 . S
Mg84 O97 2.010 . S
O85 Mg84 2.028 . S
O85 C88 1.250 . S
O86 Mg87 2.028 . S
O86 C88 1.248 . S
Mg87 O86 2.028 . S
Mg87 O92 2.032 . S
Mg87 O94 2.079 . S
C88 O85 1.250 . S
C88 O86 1.248 . S
C89 O90 1.264 . S
C89 O97 1.249 . S
O90 C89 1.264 . S
O91 Mg84 1.986 . S
O91 C95 1.246 . S
O92 Mg87 2.032 . S
O92 C95 1.259 . S
O93 Mg84 2.114 . S
O93 C96 1.252 . S
O94 Mg84 2.251 . S
O94 Mg87 2.079 . S
O94 C96 1.273 . S
C95 O91 1.246 . S
C95 O92 1.259 . S
C96 O93 1.252 . S
C96 O94 1.273 . S
O97 Mg84 2.010 . S
O97 C89 1.249 . S
Mg98 O99 2.028 . S
Mg98 O105 1.986 . S
Mg98 O107 2.114 . S
Mg98 O108 2.251 . S
Mg98 O111 2.010 . S
O99 Mg98 2.028 . S
O99 C102 1.250 . S
O100 Mg101 2.028 . S
O100 C102 1.248 . S
Mg101 O100 2.028 . S
Mg101 O106 2.032 . S
Mg101 O108 2.079 . S
C102 O99 1.250 . S
C102 O100 1.248 . S
C103 O104 1.264 1_545 S
C103 O111 1.249 . S
O104 C103 1.264 1_565 S
O105 Mg98 1.986 . S
O105 C109 1.246 . S
O106 Mg101 2.032 . S
O106 C109 1.259 . S
O107 Mg98 2.114 . S
O107 C110 1.252 . S
O108 Mg98 2.251 . S
O108 Mg101 2.079 . S
O108 C110 1.273 . S
C109 O105 1.246 . S
C109 O106 1.259 . S
C110 O107 1.252 . S
C110 O108 1.273 . S
O111 Mg98 2.010 . S
O111 C103 1.249 . S
C112 C113 1.387 . S
C112 H116 0.950 . S
C112 C121 1.390 . S
C113 C112 1.387 . S
C113 C115 1.387 . S
H114 C121 0.950 . S
C115 C113 1.387 . S
C115 C117 1.390 . S
C115 H119 0.950 . S
H116 C112 0.950 . S
C117 C115 1.390 . S
C117 C118 1.387 . S
C117 H120 0.950 . S
C118 C117 1.387 . S
C118 C121 1.387 . S
H119 C115 0.950 . S
H120 C117 0.950 . S
C121 C112 1.390 . S
C121 H114 0.950 . S
C121 C118 1.387 . S
C122 C123 1.387 . S
C122 H126 0.950 . S
C122 C131 1.390 . S
C123 C122 1.387 . S
C123 C125 1.387 . S
H124 C131 0.950 . S
C125 C123 1.387 . S
C125 C127 1.390 . S
C125 H129 0.950 . S
H126 C122 0.950 . S
C127 C125 1.390 . S
C127 C128 1.387 . S
C127 H130 0.950 . S
C128 C127 1.387 . S
C128 C131 1.387 . S
H129 C125 0.950 . S
H130 C127 0.950 . S
C131 C122 1.390 . S
C131 H124 0.950 . S
C131 C128 1.387 . S
C132 C133 1.387 . S
C132 H136 0.950 . S
C132 C141 1.390 . S
C133 C132 1.387 . S
C133 C135 1.387 . S
H134 C141 0.950 . S
C135 C133 1.387 . S
C135 C137 1.390 . S
C135 H139 0.950 . S
H136 C132 0.950 . S
C137 C135 1.390 . S
C137 C138 1.387 . S
C137 H140 0.950 . S
C138 C137 1.387 . S
C138 C141 1.387 . S
H139 C135 0.950 . S
H140 C137 0.950 . S
C141 C132 1.390 . S
C141 H134 0.950 . S
C141 C138 1.387 . S
C142 C143 1.387 . S
C142 H146 0.950 . S
C142 C151 1.390 . S
C143 C142 1.387 . S
C143 C145 1.387 . S
H144 C151 0.950 . S
C145 C143 1.387 . S
C145 C147 1.390 . S
C145 H149 0.950 . S
H146 C142 0.950 . S
C147 C145 1.390 . S
C147 C148 1.387 . S
C147 H150 0.950 . S
C148 C147 1.387 . S
C148 C151 1.387 . S
H149 C145 0.950 . S
H150 C147 0.950 . S
C151 C142 1.390 . S
C151 H144 0.950 . S
C151 C148 1.387 . S
C152 C153 1.387 . S
C152 H156 0.950 . S
C152 C161 1.390 . S
C153 C152 1.387 . S
C153 C155 1.387 . S
H154 C161 0.950 . S
C155 C153 1.387 . S
C155 C157 1.390 . S
C155 H159 0.950 1_545 S
H156 C152 0.950 . S
C157 C155 1.390 . S
C157 C158 1.387 . S
C157 H160 0.950 1_545 S
C158 C157 1.387 . S
C158 C161 1.387 . S
H159 C155 0.950 1_565 S
H160 C157 0.950 1_565 S
C161 C152 1.390 . S
C161 H154 0.950 . S
C161 C158 1.387 . S
C162 C163 1.387 . S
C162 H166 0.950 . S
C162 C171 1.390 . S
C163 C162 1.387 . S
C163 C165 1.387 . S
H164 C171 0.950 . S
C165 C163 1.387 . S
C165 C167 1.390 . S
C165 H169 0.950 . S
H166 C162 0.950 . S
C167 C165 1.390 . S
C167 C168 1.387 . S
C167 H170 0.950 . S
C168 C167 1.387 . S
C168 C171 1.387 . S
H169 C165 0.950 . S
H170 C167 0.950 . S
C171 C162 1.390 . S
C171 H164 0.950 . S
C171 C168 1.387 . S
C172 C173 1.387 . S
C172 H176 0.950 . S
C172 C181 1.390 . S
C173 C172 1.387 . S
C173 C175 1.387 . S
H174 C181 0.950 . S
C175 C173 1.387 . S
C175 C177 1.390 . S
C175 H179 0.950 1_565 S
H176 C172 0.950 . S
C177 C175 1.390 . S
C177 C178 1.387 . S
C177 H180 0.950 1_565 S
C178 C177 1.387 . S
C178 C181 1.387 . S
H179 C175 0.950 1_545 S
H180 C177 0.950 1_545 S
C181 C172 1.390 . S
C181 H174 0.950 . S
C181 C178 1.387 . S
C182 C183 1.387 . S
C182 H186 0.950 . S
C182 C191 1.390 . S
C183 C182 1.387 . S
C183 C185 1.387 . S
H184 C191 0.950 . S
C185 C183 1.387 . S
C185 C187 1.390 . S
C185 H189 0.950 . S
H186 C182 0.950 . S
C187 C185 1.390 . S
C187 C188 1.387 . S
C187 H190 0.950 . S
C188 C187 1.387 . S
C188 C191 1.387 . S
H189 C185 0.950 . S
H190 C187 0.950 . S
C191 C182 1.390 . S
C191 H184 0.950 . S
C191 C188 1.387 . S
C192 C193 1.387 . S
C192 H196 0.950 . S
C192 C201 1.390 . S
C193 C192 1.387 . S
C193 C195 1.396 . S
H194 C201 0.950 . S
C195 C193 1.396 . S
C195 C197 1.390 . S
C195 H199 0.942 1_565 S
H196 C192 0.950 . S
C197 C195 1.390 . S
C197 C198 1.396 . S
C197 H200 0.942 1_565 S
C198 C197 1.396 . S
C198 C201 1.387 . S
H199 C195 0.942 1_545 S
H200 C197 0.942 1_545 S
C201 C192 1.390 . S
C201 H194 0.950 . S
C201 C198 1.387 . S
C202 C203 1.387 . S
C202 H206 0.950 . S
C202 C211 1.390 . S
C203 C202 1.387 . S
C203 C205 1.387 . S
H204 C211 0.950 . S
C205 C203 1.387 . S
C205 C207 1.390 . S
C205 H209 0.950 . S
H206 C202 0.950 . S
C207 C205 1.390 . S
C207 C208 1.387 . S
C207 H210 0.950 . S
C208 C207 1.387 . S
C208 C211 1.387 . S
H209 C205 0.950 . S
H210 C207 0.950 . S
C211 C202 1.390 . S
C211 H204 0.950 . S
C211 C208 1.387 . S
C212 C213 1.387 . S
C212 H216 0.950 . S
C212 C221 1.390 . S
C213 C212 1.387 . S
C213 C215 1.396 . S
H214 C221 0.950 . S
C215 C213 1.396 . S
C215 C217 1.390 . S
C215 H219 0.942 1_545 S
H216 C212 0.950 . S
C217 C215 1.390 . S
C217 C218 1.396 . S
C217 H220 0.942 1_545 S
C218 C217 1.396 . S
C218 C221 1.387 . S
H219 C215 0.942 1_565 S
H220 C217 0.942 1_565 S
C221 C212 1.390 . S
C221 H214 0.950 . S
C221 C218 1.387 . S
C222 C223 1.387 . S
C222 H226 0.950 . S
C222 C231 1.390 . S
C223 C222 1.387 . S
C223 C225 1.387 . S
H224 C231 0.950 . S
C225 C223 1.387 . S
C225 C227 1.390 . S
C225 H229 0.950 . S
H226 C222 0.950 . S
C227 C225 1.390 . S
C227 C228 1.387 . S
C227 H230 0.950 . S
C228 C227 1.387 . S
C228 C231 1.387 . S
H229 C225 0.950 . S
H230 C227 0.950 . S
C231 C222 1.390 . S
C231 H224 0.950 . S
C231 C228 1.387 . S
C232 C233 1.387 1_655 S
C232 H236 0.950 . S
C232 C241 1.390 1_544 S
C233 C232 1.387 1_455 S
C233 C235 1.387 . S
H234 C241 0.950 . S
C235 C233 1.387 . S
C235 C237 1.390 1_544 S
C235 H239 0.950 . S
H236 C232 0.950 . S
C237 C235 1.390 1_566 S
C237 C238 1.387 . S
C237 H240 0.950 . S
C238 C237 1.387 . S
C238 C241 1.387 1_455 S
H239 C235 0.950 . S
H240 C237 0.950 . S
C241 C232 1.390 1_566 S
C241 H234 0.950 . S
C241 C238 1.387 1_655 S
C242 C243 1.387 . S
C242 H246 0.950 . S
C242 C251 1.390 1_556 S
C243 C242 1.387 . S
C243 C245 1.387 1_455 S
H244 C251 0.950 . S
C245 C243 1.387 1_655 S
C245 C247 1.390 1_556 S
C245 H249 0.950 . S
H246 C242 0.950 . S
C247 C245 1.390 1_554 S
C247 C248 1.387 1_655 S
C247 H250 0.950 . S
C248 C247 1.387 1_455 S
C248 C251 1.387 . S
H249 C245 0.950 . S
H250 C247 0.950 . S
C251 C242 1.390 1_554 S
C251 H244 0.950 . S
C251 C248 1.387 . S
C252 C253 1.387 . S
C252 H256 0.950 . S
C252 C261 1.390 . S
C253 C252 1.387 . S
C253 C255 1.387 . S
H254 C261 0.950 . S
C255 C253 1.387 . S
C255 C257 1.390 . S
C255 H259 0.950 . S
H256 C252 0.950 . S
C257 C255 1.390 . S
C257 C258 1.387 . S
C257 H260 0.950 . S
C258 C257 1.387 . S
C258 C261 1.387 . S
H259 C255 0.950 . S
H260 C257 0.950 . S
C261 C252 1.390 . S
C261 H254 0.950 . S
C261 C258 1.387 . S
C262 C263 1.387 . S
C262 H266 0.950 . S
C262 C271 1.390 1_565 S
C263 C262 1.387 . S
C263 C265 1.387 . S
H264 C271 0.950 . S
C265 C263 1.387 . S
C265 C267 1.390 1_565 S
C265 H269 0.950 . S
H266 C262 0.950 . S
C267 C265 1.390 1_545 S
C267 C268 1.387 . S
C267 H270 0.950 . S
C268 C267 1.387 . S
C268 C271 1.387 . S
H269 C265 0.950 . S
H270 C267 0.950 . S
C271 C262 1.390 1_545 S
C271 H264 0.950 . S
C271 C268 1.387 . S
C113 C18 1.484 1_455 S
C118 C4 1.484 . S
C123 C32 1.484 . S
C128 C46 1.484 1_455 S
C133 C60 1.482 . S
C138 C74 1.482 . S
C143 C88 1.482 . S
C148 C102 1.482 . S
C153 C110 1.517 . S
C158 C12 1.517 . S
C163 C96 1.517 . S
C168 C26 1.517 . S
C173 C40 1.517 . S
C178 C82 1.517 . S
C183 C68 1.517 . S
C188 C54 1.517 . S
C193 C75 1.278 . S
C198 C33 1.278 . S
C203 C61 1.278 . S
C208 C47 1.279 . S
C213 C103 1.278 . S
C218 C5 1.278 . S
C223 C19 1.279 . S
C228 C89 1.278 . S
C233 C11 1.378 . S
C238 C39 1.378 . S
C243 C53 1.378 1_455 S
C248 C25 1.378 1_455 S
C253 C95 1.378 . S
C258 C67 1.378 . S
C263 C81 1.376 . S
C268 C109 1.376 . S
