# Generated by pormake.
# Topology upc, (4)-cn, num edge types: 1
# Building blocks:
#     Node 0, Type 0, BuildingBlock: KOZSID_clean_sbu_0, # of connection points: 4
#     Node 1, Type 0, BuildingBlock: KOZSID_clean_sbu_0, # of connection points: 4
#     Node 2, Type 0, BuildingBlock: KOZSID_clean_sbu_0, # of connection points: 4
#     Node 3, Type 0, BuildingBlock: KOZSID_clean_sbu_0, # of connection points: 4
#     Node 4, Type 0, BuildingBlock: KOZSID_clean_sbu_0, # of connection points: 4
#     Node 5, Type 0, BuildingBlock: KOZSID_clean_sbu_0, # of connection points: 4
#     Node 6, Type 0, BuildingBlock: KOZSID_clean_sbu_0, # of connection points: 4
#     Node 7, Type 0, BuildingBlock: KOZSID_clean_sbu_0, # of connection points: 4
#     Node 8, Type 0, BuildingBlock: KOZSID_clean_sbu_0, # of connection points: 4
#     Node 9, Type 0, BuildingBlock: KOZSID_clean_sbu_0, # of connection points: 4
#     Node 10, Type 0, BuildingBlock: KOZSID_clean_sbu_0, # of connection points: 4
#     Node 11, Type 0, BuildingBlock: KOZSID_clean_sbu_0, # of connection points: 4
#     Node 12, Type 0, BuildingBlock: KOZSID_clean_sbu_0, # of connection points: 4
#     Node 13, Type 0, BuildingBlock: KOZSID_clean_sbu_0, # of connection points: 4
#     Node 14, Type 0, BuildingBlock: KOZSID_clean_sbu_0, # of connection points: 4
#     Node 15, Type 0, BuildingBlock: KOZSID_clean_sbu_0, # of connection points: 4
#     Edge 16, Type (0, 0), BuildingBlock: CIFDUS_clean_linker_0, # of connection points: 2
#     Edge 17, Type (0, 0), BuildingBlock: CIFDUS_clean_linker_0, # of connection points: 2
#     Edge 18, Type (0, 0), BuildingBlock: CIFDUS_clean_linker_0, # of connection points: 2
#     Edge 19, Type (0, 0), BuildingBlock: CIFDUS_clean_linker_0, # of connection points: 2
#     Edge 20, Type (0, 0), BuildingBlock: CIFDUS_clean_linker_0, # of connection points: 2
#     Edge 21, Type (0, 0), BuildingBlock: CIFDUS_clean_linker_0, # of connection points: 2
#     Edge 22, Type (0, 0), BuildingBlock: CIFDUS_clean_linker_0, # of connection points: 2
#     Edge 23, Type (0, 0), BuildingBlock: CIFDUS_clean_linker_0, # of connection points: 2
#     Edge 24, Type (0, 0), BuildingBlock: CIFDUS_clean_linker_0, # of connection points: 2
#     Edge 25, Type (0, 0), BuildingBlock: CIFDUS_clean_linker_0, # of connection points: 2
#     Edge 26, Type (0, 0), BuildingBlock: CIFDUS_clean_linker_0, # of connection points: 2
#     Edge 27, Type (0, 0), BuildingBlock: CIFDUS_clean_linker_0, # of connection points: 2
#     Edge 28, Type (0, 0), BuildingBlock: CIFDUS_clean_linker_0, # of connection points: 2
#     Edge 29, Type (0, 0), BuildingBlock: CIFDUS_clean_linker_0, # of connection points: 2
#     Edge 30, Type (0, 0), BuildingBlock: CIFDUS_clean_linker_0, # of connection points: 2
#     Edge 31, Type (0, 0), BuildingBlock: CIFDUS_clean_linker_0, # of connection points: 2
#     Edge 32, Type (0, 0), BuildingBlock: CIFDUS_clean_linker_0, # of connection points: 2
#     Edge 33, Type (0, 0), BuildingBlock: CIFDUS_clean_linker_0, # of connection points: 2
#     Edge 34, Type (0, 0), BuildingBlock: CIFDUS_clean_linker_0, # of connection points: 2
#     Edge 35, Type (0, 0), BuildingBlock: CIFDUS_clean_linker_0, # of connection points: 2
#     Edge 36, Type (0, 0), BuildingBlock: CIFDUS_clean_linker_0, # of connection points: 2
#     Edge 37, Type (0, 0), BuildingBlock: CIFDUS_clean_linker_0, # of connection points: 2
#     Edge 38, Type (0, 0), BuildingBlock: CIFDUS_clean_linker_0, # of connection points: 2
#     Edge 39, Type (0, 0), BuildingBlock: CIFDUS_clean_linker_0, # of connection points: 2
#     Edge 40, Type (0, 0), BuildingBlock: CIFDUS_clean_linker_0, # of connection points: 2
#     Edge 41, Type (0, 0), BuildingBlock: CIFDUS_clean_linker_0, # of connection points: 2
#     Edge 42, Type (0, 0), BuildingBlock: CIFDUS_clean_linker_0, # of connection points: 2
#     Edge 43, Type (0, 0), BuildingBlock: CIFDUS_clean_linker_0, # of connection points: 2
#     Edge 44, Type (0, 0), BuildingBlock: CIFDUS_clean_linker_0, # of connection points: 2
#     Edge 45, Type (0, 0), BuildingBlock: CIFDUS_clean_linker_0, # of connection points: 2
#     Edge 46, Type (0, 0), BuildingBlock: CIFDUS_clean_linker_0, # of connection points: 2
#     Edge 47, Type (0, 0), BuildingBlock: CIFDUS_clean_linker_0, # of connection points: 2
# Relax obj value: 0.185
# Max RMSD: 0.236
# Mean RMSD: 0.231
data_MOF--net-upc--node1-KOZSID_clean_sbu_0--edge1-CIFDUS_clean_linker_0
_symmetry_space_group_name_H-M    P1
_symmetry_Int_Tables_number       1
_symmetry_cell_setting            triclinic
loop_
_symmetry_equiv_pos_as_xyz
'x, y, z'
_cell_length_a     40.095095
_cell_length_b     40.152901
_cell_length_c     41.111537
_cell_angle_alpha  90.006943
_cell_angle_beta   89.974007
_cell_angle_gamma 90.049225
loop_
_atom_site_label
_atom_site_type_symbol
_atom_site_fract_x
_atom_site_fract_y
_atom_site_fract_z
_atom_type_partial_charge
C0 C 0.22487 0.63534 0.14092 0.0
C1 C 0.25837 0.62668 0.141 0.0
C2 C 0.26009 0.59346 0.14828 0.0
C3 C 0.22775 0.58323 0.15277 0.0
N4 N 0.20543 0.60788 0.14818 0.0
Co5 Co 0.15614 0.60306 0.15682 0.0
N6 N 0.16041 0.56031 0.18194 0.0
C7 C 0.18971 0.54483 0.18728 0.0
C8 C 0.18818 0.52182 0.21176 0.0
C9 C 0.15581 0.52238 0.22234 0.0
C10 C 0.1385 0.54453 0.20258 0.0
N11 N 0.10699 0.59818 0.16373 0.0
C12 C 0.08868 0.57323 0.1779 0.0
C13 C 0.05579 0.57481 0.16717 0.0
C14 C 0.05287 0.60276 0.14833 0.0
C15 C 0.08426 0.61611 0.1471 0.0
N16 N 0.15272 0.64803 0.13506 0.0
C17 C 0.12372 0.66269 0.12683 0.0
C18 C 0.1276 0.69477 0.11587 0.0
C19 C 0.16111 0.70134 0.11806 0.0
C20 C 0.17612 0.67288 0.13025 0.0
N21 N 0.14904 0.57766 0.11485 0.0
C22 C 0.1104 0.53632 0.07294 0.0
C23 C 0.11136 0.57099 0.06866 0.0
C24 C 0.13139 0.59102 0.08927 0.0
C25 C 0.13342 0.52284 0.09491 0.0
C26 C 0.15295 0.54367 0.11467 0.0
N27 N 0.16123 0.62642 0.19811 0.0
C28 C 0.14074 0.66671 0.23609 0.0
C29 C 0.17114 0.66589 0.25257 0.0
C30 C 0.1952 0.64272 0.24355 0.0
C31 C 0.18947 0.62276 0.21651 0.0
C32 C 0.13648 0.64715 0.2086 0.0
H33 H 0.20896 0.60597 0.20977 0.0
H34 H 0.11394 0.65051 0.19492 0.0
H35 H 0.13082 0.61735 0.08515 0.0
H36 H 0.16965 0.53138 0.13097 0.0
C37 C 0.21883 0.55537 0.1714 0.0
C38 C 0.21295 0.6703 0.13539 0.0
C39 C 0.10125 0.54831 0.20213 0.0
C40 C 0.09334 0.64594 0.13157 0.0
H41 H 0.27968 0.64291 0.13821 0.0
H42 H 0.28254 0.57941 0.15328 0.0
H43 H 0.20861 0.50773 0.22208 0.0
H44 H 0.147 0.50898 0.24337 0.0
H45 H 0.03574 0.55753 0.17206 0.0
H46 H 0.03054 0.61201 0.13664 0.0
H47 H 0.10824 0.71175 0.10807 0.0
H48 H 0.17312 0.72454 0.11155 0.0
H49 H 0.09536 0.58281 0.05087 0.0
H50 H 0.13546 0.4961 0.09782 0.0
H51 H 0.12192 0.68509 0.24209 0.0
H52 H 0.21925 0.64204 0.25556 0.0
C53 C 0.88782 0.22912 0.14222 0.0
C54 C 0.89778 0.26185 0.14745 0.0
C55 C 0.93159 0.26202 0.15076 0.0
C56 C 0.94118 0.22937 0.14972 0.0
N57 N 0.91528 0.20821 0.14506 0.0
Co58 Co 0.91721 0.15899 0.1557 0.0
N59 N 0.96192 0.16136 0.17792 0.0
C60 C 0.98119 0.18881 0.17937 0.0
C61 C 1.01042 0.18418 0.19607 0.0
C62 C 1.0097 0.15169 0.20611 0.0
C63 C 0.98002 0.13818 0.19482 0.0
N64 N 0.91801 0.11012 0.16645 0.0
C65 C 0.94002 0.09112 0.18399 0.0
C66 C 0.93054 0.05791 0.1839 0.0
C67 C 0.90193 0.05582 0.16579 0.0
C68 C 0.89541 0.08775 0.15572 0.0
N69 N 0.87136 0.15756 0.13527 0.0
C70 C 0.85456 0.12927 0.12852 0.0
C71 C 0.82443 0.13474 0.11378 0.0
C72 C 0.82104 0.16863 0.11241 0.0
C73 C 0.8488 0.18238 0.12752 0.0
N74 N 0.9404 0.1475 0.11307 0.0
C75 C 0.98259 0.11104 0.06963 0.0
C76 C 0.94809 0.10566 0.07042 0.0
C77 C 0.92761 0.12427 0.09177 0.0
C78 C 0.99457 0.13812 0.08765 0.0
C79 C 0.9731 0.15646 0.10802 0.0
N80 N 0.89588 0.16887 0.19736 0.0
C81 C 0.8479 0.16164 0.23114 0.0
C82 C 0.85309 0.19324 0.24434 0.0
C83 C 0.88228 0.21035 0.23736 0.0
C84 C 0.90406 0.19703 0.21447 0.0
C85 C 0.86959 0.14994 0.20752 0.0
H86 H 0.92588 0.21122 0.20902 0.0
H87 H 0.86325 0.12697 0.19583 0.0
H88 H 0.90172 0.11855 0.0911 0.0
H89 H 0.98404 0.17707 0.1203 0.0
C90 C 0.97043 0.21852 0.16509 0.0
C91 C 0.85205 0.21896 0.13497 0.0
C92 C 0.97066 0.10305 0.20034 0.0
C93 C 0.86704 0.09817 0.13847 0.0
H94 H 0.88266 0.28341 0.15228 0.0
H95 H 0.94664 0.28308 0.15825 0.0
H96 H 0.02984 0.20233 0.20064 0.0
H97 H 0.02888 0.13928 0.2201 0.0
H98 H 0.94308 0.03733 0.19568 0.0
H99 H 0.88732 0.03368 0.16098 0.0
H100 H 0.80659 0.11627 0.10567 0.0
H101 H 0.80018 0.18149 0.10156 0.0
H102 H 0.93707 0.08599 0.05593 0.0
H103 H 0.02074 0.14476 0.08663 0.0
H104 H 0.82537 0.14772 0.23647 0.0
H105 H 0.88697 0.23473 0.24757 0.0
C106 C 0.32612 0.87512 0.12465 0.0
C107 C 0.29398 0.88462 0.11648 0.0
C108 C 0.29168 0.91811 0.1225 0.0
C109 C 0.32261 0.92763 0.13349 0.0
N110 N 0.34481 0.90244 0.13361 0.0
Co111 Co 0.39187 0.90597 0.15035 0.0
N112 N 0.38441 0.95003 0.17235 0.0
C113 C 0.35545 0.96713 0.17169 0.0
C114 C 0.35667 0.99636 0.18897 0.0
C115 C 0.38829 0.9979 0.2015 0.0
C116 C 0.40491 0.9696 0.19094 0.0
N117 N 0.43917 0.90915 0.16615 0.0
C118 C 0.45535 0.93267 0.18443 0.0
C119 C 0.48899 0.92517 0.1873 0.0
C120 C 0.49421 0.89629 0.17033 0.0
C121 C 0.46364 0.88774 0.15786 0.0
N122 N 0.39757 0.86014 0.13057 0.0
C123 C 0.42691 0.84378 0.12879 0.0
C124 C 0.42356 0.81102 0.12005 0.0
C125 C 0.38999 0.80564 0.1172 0.0
C126 C 0.3742 0.83555 0.12414 0.0
N127 N 0.40729 0.92983 0.1094 0.0
C128 C 0.44556 0.97212 0.06755 0.0
C129 C 0.45169 0.9378 0.06925 0.0
C130 C 0.4322 0.91723 0.08987 0.0
C131 C 0.41752 0.98388 0.0842 0.0
C132 C 0.39845 0.96245 0.10391 0.0
N133 N 0.37807 0.88343 0.19047 0.0
C134 C 0.38398 0.83043 0.21597 0.0
C135 C 0.34928 0.82783 0.21743 0.0
C136 C 0.33017 0.85657 0.21347 0.0
C137 C 0.34554 0.88486 0.20054 0.0
C138 C 0.39804 0.85897 0.20282 0.0
H139 H 0.33001 0.90579 0.19467 0.0
H140 H 0.42439 0.85868 0.19866 0.0
H141 H 0.43867 0.89146 0.09048 0.0
H142 H 0.37749 0.9735 0.11553 0.0
C143 C 0.32872 0.95618 0.15231 0.0
C144 C 0.33697 0.8395 0.12559 0.0
C145 C 0.44038 0.96303 0.19853 0.0
C146 C 0.45619 0.85821 0.14114 0.0
H147 H 0.2737 0.86863 0.10887 0.0
H148 H 0.26919 0.933 0.12195 0.0
H149 H 0.3371 1.01472 0.19162 0.0
H150 H 0.3982 0.01787 0.21631 0.0
H151 H 0.50784 0.93921 0.20023 0.0
H152 H 0.51746 0.88285 0.16783 0.0
H153 H 0.44305 0.79246 0.11855 0.0
H154 H 0.37891 0.78168 0.11253 0.0
H155 H 0.47253 0.92712 0.05613 0.0
H156 H 0.41083 1.00998 0.08284 0.0
H157 H 0.39977 0.80911 0.2209 0.0
H158 H 0.30333 0.85605 0.21645 0.0
C159 C 0.63899 0.32104 0.14826 0.0
C160 C 0.63075 0.2884 0.15642 0.0
C161 C 0.59725 0.28718 0.162 0.0
C162 C 0.58633 0.31932 0.15977 0.0
N163 N 0.61108 0.34091 0.15248 0.0
Co164 Co 0.60773 0.39033 0.16038 0.0
N165 N 0.56811 0.38683 0.18981 0.0
C166 C 0.54895 0.35953 0.19243 0.0
C167 C 0.5225 0.36349 0.21323 0.0
C168 C 0.5247 0.39566 0.22411 0.0
C169 C 0.55255 0.40968 0.20935 0.0
N170 N 0.60451 0.43954 0.16689 0.0
C171 C 0.58451 0.45862 0.18649 0.0
C172 C 0.58965 0.49219 0.18028 0.0
C173 C 0.61275 0.49415 0.15564 0.0
C174 C 0.62072 0.46178 0.14814 0.0
N175 N 0.64939 0.3923 0.1333 0.0
C176 C 0.66051 0.42027 0.11898 0.0
C177 C 0.68912 0.4152 0.10132 0.0
C178 C 0.69698 0.3821 0.10533 0.0
C179 C 0.67324 0.36845 0.12603 0.0
N180 N 0.57794 0.39744 0.12141 0.0
C181 C 0.54385 0.43416 0.07233 0.0
C182 C 0.57384 0.41737 0.06543 0.0
C183 C 0.59014 0.39862 0.09012 0.0
C184 C 0.52964 0.42871 0.10276 0.0
C185 C 0.54654 0.41033 0.12642 0.0
N186 N 0.63637 0.38587 0.19831 0.0
C187 C 0.69137 0.39956 0.21546 0.0
C188 C 0.69672 0.36592 0.22251 0.0
C189 C 0.66903 0.3449 0.22567 0.0
C190 C 0.63816 0.35629 0.21465 0.0
C191 C 0.66086 0.40902 0.20281 0.0
H192 H 0.61741 0.33923 0.21471 0.0
H193 H 0.65924 0.43356 0.19258 0.0
H194 H 0.61359 0.38701 0.08415 0.0
H195 H 0.53431 0.40959 0.14944 0.0
C196 C 0.55826 0.33013 0.17694 0.0
C197 C 0.67333 0.33238 0.13688 0.0
C198 C 0.55949 0.44592 0.21013 0.0
C199 C 0.64566 0.45116 0.12631 0.0
H200 H 0.64695 0.26788 0.16209 0.0
H201 H 0.5837 0.26617 0.17196 0.0
H202 H 0.50375 0.34522 0.21965 0.0
H203 H 0.50684 0.40783 0.23985 0.0
H204 H 0.57774 0.51313 0.19207 0.0
H205 H 0.62293 0.51656 0.14488 0.0
H206 H 0.70319 0.43356 0.08776 0.0
H207 H 0.71762 0.36958 0.09371 0.0
H208 H 0.58556 0.42018 0.04186 0.0
H209 H 0.50617 0.44043 0.1091 0.0
H210 H 0.71175 0.4173 0.21526 0.0
H211 H 0.67169 0.31907 0.23279 0.0
C212 C 0.20981 0.89148 0.37541 0.0
C213 C 0.24267 0.90191 0.37867 0.0
C214 C 0.24321 0.93552 0.37349 0.0
C215 C 0.21091 0.94426 0.3668 0.0
N216 N 0.18941 0.91833 0.36819 0.0
Co217 Co 0.141 0.92093 0.35389 0.0
N218 N 0.14467 0.96728 0.33568 0.0
C219 C 0.1727 0.9858 0.33608 0.0
C220 C 0.16915 0.01613 0.32109 0.0
C221 C 0.13689 0.01691 0.31018 0.0
C222 C 0.12239 0.9869 0.31907 0.0
N223 N 0.09254 0.92302 0.34083 0.0
C224 C 0.07432 0.94684 0.32493 0.0
C225 C 0.04144 0.9367 0.32106 0.0
C226 C 0.03875 0.90587 0.33493 0.0
C227 C 0.06999 0.89867 0.34646 0.0
N228 N 0.13848 0.87322 0.36991 0.0
C229 C 0.11027 0.85487 0.37059 0.0
C230 C 0.1154 0.82217 0.37884 0.0
C231 C 0.14908 0.81896 0.38279 0.0
C232 C 0.16302 0.84988 0.3764 0.0
N233 N 0.12715 0.94006 0.39731 0.0
C234 C 0.09406 0.97994 0.44506 0.0
C235 C 0.08187 0.9485 0.43614 0.0
C236 C 0.09914 0.9288 0.41319 0.0
C237 C 0.12492 0.98933 0.43185 0.0
C238 C 0.14091 0.96922 0.40851 0.0
N239 N 0.15344 0.90333 0.31083 0.0
C240 C 0.14191 0.8609 0.27161 0.0
C241 C 0.17603 0.85488 0.26916 0.0
C242 C 0.19826 0.87878 0.28058 0.0
C243 C 0.18595 0.90404 0.30045 0.0
C244 C 0.13104 0.8851 0.2931 0.0
H245 H 0.20361 0.92158 0.30976 0.0
H246 H 0.10477 0.88605 0.29712 0.0
H247 H 0.08872 0.90496 0.4079 0.0
H248 H 0.16377 0.97853 0.39895 0.0
C249 C 0.20175 0.97384 0.35098 0.0
C250 C 0.19988 0.8554 0.37681 0.0
C251 C 0.0871 0.97875 0.31193 0.0
C252 C 0.08005 0.86805 0.35943 0.0
H253 H 0.26462 0.88675 0.38203 0.0
H254 H 0.26516 0.9511 0.37154 0.0
H255 H 0.18782 0.03542 0.31839 0.0
H256 H 0.1253 0.03731 0.29724 0.0
H257 H 0.02157 0.94983 0.30873 0.0
H258 H 0.01687 0.89007 0.33549 0.0
H259 H 0.09695 0.80253 0.38027 0.0
H260 H 0.16195 0.79613 0.38881 0.0
H261 H 0.05896 0.93913 0.4467 0.0
H262 H 0.13617 1.01293 0.43838 0.0
H263 H 0.12395 0.84354 0.26153 0.0
H264 H 0.22495 0.87574 0.27765 0.0
C265 C 0.65036 0.20054 0.37651 0.0
C266 C 0.63984 0.23246 0.38418 0.0
C267 C 0.60578 0.23269 0.38148 0.0
C268 C 0.59704 0.2009 0.37259 0.0
N269 N 0.62336 0.18001 0.37049 0.0
Co270 Co 0.62096 0.13265 0.35367 0.0
N271 N 0.57323 0.13612 0.33924 0.0
C272 C 0.55322 0.16246 0.3451 0.0
C273 C 0.52164 0.15852 0.33279 0.0
C274 C 0.52151 0.12781 0.3182 0.0
C275 C 0.55315 0.11455 0.32225 0.0
N276 N 0.61989 0.08584 0.336 0.0
C277 C 0.59605 0.06868 0.31908 0.0
C278 C 0.60728 0.03705 0.31085 0.0
C279 C 0.6387 0.03392 0.32333 0.0
C280 C 0.64519 0.06376 0.3382 0.0
N281 N 0.66943 0.13009 0.36739 0.0
C282 C 0.688 0.10206 0.36669 0.0
C283 C 0.72115 0.10753 0.37286 0.0
C284 C 0.72431 0.14114 0.37699 0.0
C285 C 0.69274 0.15474 0.37349 0.0
N286 N 0.60449 0.11486 0.3971 0.0
C287 C 0.56465 0.08164 0.44535 0.0
C288 C 0.59203 0.06599 0.43058 0.0
C289 C 0.61176 0.08305 0.4074 0.0
C290 C 0.5599 0.11534 0.43753 0.0
C291 C 0.58009 0.13129 0.4142 0.0
N292 N 0.63531 0.14928 0.311 0.0
C293 C 0.67724 0.14905 0.26958 0.0
C294 C 0.67165 0.18296 0.26435 0.0
C295 C 0.64325 0.1976 0.27739 0.0
C296 C 0.62453 0.17962 0.29992 0.0
C297 C 0.6593 0.13286 0.29372 0.0
H298 H 0.60357 0.19196 0.31044 0.0
H299 H 0.66742 0.10842 0.30016 0.0
H300 H 0.63237 0.06958 0.39773 0.0
H301 H 0.57461 0.15677 0.40989 0.0
C302 C 0.5656 0.19124 0.3605 0.0
C303 C 0.68648 0.1914 0.3747 0.0
C304 C 0.56247 0.08094 0.31037 0.0
C305 C 0.67538 0.07278 0.35289 0.0
H306 H 0.65531 0.25374 0.38998 0.0
H307 H 0.58955 0.25409 0.38366 0.0
H308 H 0.5012 0.17608 0.3339 0.0
H309 H 0.50049 0.11643 0.30598 0.0
H310 H 0.59425 0.01817 0.29702 0.0
H311 H 0.65511 1.01264 0.32123 0.0
H312 H 0.74122 0.08955 0.37167 0.0
H313 H 0.74769 0.15403 0.38037 0.0
H314 H 0.59832 0.04055 0.43674 0.0
H315 H 0.53978 0.12942 0.44842 0.0
H316 H 0.69898 0.13688 0.25935 0.0
H317 H 0.63785 0.2237 0.27329 0.0
C318 C 0.32497 0.6559 0.38931 0.0
C319 C 0.29623 0.64414 0.40406 0.0
C320 C 0.29988 0.61011 0.40722 0.0
C321 C 0.33073 0.6026 0.39443 0.0
N322 N 0.34677 0.6299 0.38385 0.0
Co323 Co 0.38961 0.62912 0.35912 0.0
N324 N 0.38625 0.58129 0.34678 0.0
C325 C 0.36598 0.5595 0.3619 0.0
C326 C 0.36996 0.52751 0.35062 0.0
C327 C 0.39466 0.52925 0.32739 0.0
C328 C 0.4046 0.56229 0.32563 0.0
N329 N 0.43179 0.63048 0.33317 0.0
C330 C 0.44527 0.60844 0.31148 0.0
C331 C 0.47601 0.61981 0.30053 0.0
C332 C 0.48217 0.64935 0.3162 0.0
C333 C 0.45501 0.65455 0.33589 0.0
N334 N 0.39242 0.67727 0.37174 0.0
C335 C 0.42057 0.69549 0.3708 0.0
C336 C 0.41503 0.72855 0.37749 0.0
C337 C 0.38131 0.73151 0.3825 0.0
C338 C 0.36774 0.69995 0.3789 0.0
N339 N 0.41567 0.61414 0.3983 0.0
C340 C 0.44818 0.57937 0.45031 0.0
C341 C 0.42131 0.60153 0.45612 0.0
C342 C 0.40566 0.61885 0.42992 0.0
C343 C 0.45852 0.57624 0.41804 0.0
C344 C 0.44232 0.59329 0.39307 0.0
N345 N 0.36435 0.64114 0.32055 0.0
C346 C 0.35526 0.67809 0.27601 0.0
C347 C 0.3237 0.6639 0.27055 0.0
C348 C 0.31378 0.63673 0.28922 0.0
C349 C 0.33493 0.6252 0.31368 0.0
C350 C 0.37506 0.66651 0.30123 0.0
H351 H 0.32653 0.60451 0.32811 0.0
H352 H 0.39821 0.67915 0.30615 0.0
H353 H 0.38481 0.63502 0.43517 0.0
H354 H 0.45076 0.58725 0.3692 0.0
C355 C 0.34154 0.57083 0.38411 0.0
C356 C 0.33149 0.69217 0.38258 0.0
C357 C 0.4331 0.57414 0.30542 0.0
C358 C 0.44874 0.68313 0.35456 0.0
H359 H 0.27467 0.6586 0.41123 0.0
H360 H 0.28116 0.59271 0.4157 0.0
H361 H 0.35631 0.50554 0.35809 0.0
H362 H 0.40466 0.50849 0.31374 0.0
H363 H 0.49296 0.60733 0.28407 0.0
H364 H 0.50385 0.66518 0.31345 0.0
H365 H 0.43289 0.74873 0.37597 0.0
H366 H 0.36838 0.75462 0.38701 0.0
H367 H 0.41213 0.60523 0.48061 0.0
H368 H 0.47815 0.55903 0.41138 0.0
H369 H 0.36354 0.69978 0.26255 0.0
H370 H 0.2894 0.62557 0.28594 0.0
C371 C 0.89127 0.30395 0.38054 0.0
C372 C 0.90018 0.27105 0.38617 0.0
C373 C 0.93418 0.26932 0.38422 0.0
C374 C 0.94472 0.30094 0.37694 0.0
N375 N 0.91944 0.32306 0.37499 0.0
Co376 Co 0.9247 0.37039 0.35895 0.0
N377 N 0.97136 0.36403 0.34225 0.0
C378 C 0.98806 0.33489 0.34388 0.0
C379 C 1.01475 0.33347 0.32322 0.0
C380 C 1.01538 0.36364 0.30784 0.0
C381 C 0.99002 0.38299 0.32112 0.0
N382 N 0.92928 0.41779 0.34369 0.0
C383 C 0.95571 0.43482 0.33041 0.0
C384 C 0.95035 0.46896 0.33276 0.0
C385 C 0.91895 0.47342 0.34492 0.0
C386 C 0.90715 0.44203 0.35088 0.0
N387 N 0.87661 0.37561 0.37307 0.0
C388 C 0.85984 0.40473 0.37324 0.0
C389 C 0.82649 0.40125 0.37996 0.0
C390 C 0.82128 0.36773 0.38323 0.0
C391 C 0.85175 0.3523 0.37814 0.0
N392 N 0.94307 0.38555 0.40246 0.0
C393 C 0.98094 0.42076 0.45041 0.0
C394 C 0.94867 0.43078 0.44183 0.0
C395 C 0.92995 0.41235 0.41893 0.0
C396 C 0.99235 0.39085 0.43691 0.0
C397 C 0.97327 0.37383 0.41342 0.0
N398 N 0.90828 0.35634 0.31631 0.0
C399 C 0.86841 0.36346 0.27368 0.0
C400 C 0.8724 0.33004 0.26473 0.0
C401 C 0.89763 0.31147 0.27894 0.0
C402 C 0.91586 0.32543 0.3042 0.0
C403 C 0.88649 0.37606 0.29968 0.0
H404 H 0.93413 0.30979 0.31511 0.0
H405 H 0.88074 0.40081 0.30764 0.0
H406 H 0.90518 0.42073 0.41457 0.0
H407 H 0.98416 0.35182 0.40372 0.0
C408 C 0.97516 0.3078 0.36147 0.0
C409 C 0.85562 0.31534 0.37873 0.0
C410 C 0.98565 0.41961 0.31466 0.0
C411 C 0.8755 0.43429 0.36335 0.0
H412 H 0.88398 0.24975 0.38898 0.0
H413 H 0.94903 0.24681 0.38425 0.0
H414 H 0.03061 0.31224 0.31834 0.0
H415 H 0.03212 0.36975 0.28816 0.0
H416 H 0.96741 0.48895 0.32712 0.0
H417 H 0.9065 0.49685 0.34956 0.0
H418 H 0.80782 0.42068 0.38085 0.0
H419 H 0.79752 0.35597 0.38811 0.0
H420 H 0.93779 0.45276 0.45282 0.0
H421 H 0.01666 0.38119 0.44344 0.0
H422 H 0.84883 0.37865 0.26321 0.0
H423 H 0.90146 0.28565 0.27245 0.0
C424 C 0.92841 0.34089 0.84662 0.0
C425 C 0.90019 0.34791 0.82824 0.0
C426 C 0.88221 0.37132 0.84514 0.0
C427 C 0.90013 0.37724 0.87299 0.0
N428 N 0.92847 0.35928 0.87438 0.0
Co429 Co 0.95876 0.35784 0.91239 0.0
N430 N 0.94103 0.40004 0.93066 0.0
C431 C 0.91175 0.4142 0.92292 0.0
C432 C 0.90754 0.44462 0.93783 0.0
C433 C 0.93608 0.44979 0.95583 0.0
C434 C 0.95623 0.42226 0.95084 0.0
N435 N 0.98859 0.35646 0.95094 0.0
C436 C 0.99939 0.38173 0.97027 0.0
C437 C 0.02208 0.3701 0.9931 0.0
C438 C 0.02534 0.33656 0.98788 0.0
C439 C 1.00484 0.32947 0.96206 0.0
N440 N 0.97823 0.31633 0.89427 0.0
C441 C 0.99771 0.29467 0.91052 0.0
C442 C 1.01067 0.27031 0.8909 0.0
C443 C 0.99798 0.27661 0.86061 0.0
C444 C 0.97707 0.30409 0.86355 0.0
N445 N 0.99189 0.38378 0.88779 0.0
C446 C 0.03314 0.41345 0.84077 0.0
C447 C 0.04467 0.38672 0.85965 0.0
C448 C 0.02388 0.37267 0.88354 0.0
C449 C 1.00148 0.42628 0.84746 0.0
C450 C 0.98129 0.41103 0.87072 0.0
N451 N 0.92359 0.33132 0.93525 0.0
C452 C 0.88225 0.28755 0.92963 0.0
C453 C 0.86219 0.30111 0.95415 0.0
C454 C 0.87547 0.32857 0.9713 0.0
C455 C 0.90635 0.34296 0.96179 0.0
C456 C 0.91194 0.30303 0.92033 0.0
H457 H 0.91522 0.36454 0.97486 0.0
H458 H 0.92391 0.2927 0.89934 0.0
H459 H 0.03309 0.35181 0.89738 0.0
H460 H 0.9563 0.42032 0.87344 0.0
C461 C 0.89321 0.4018 0.89653 0.0
C462 C 0.95282 0.31456 0.83849 0.0
C463 C 0.98863 0.4167 0.96711 0.0
C464 C 1.0078 0.30125 0.94241 0.0
H465 H 0.89285 0.33681 0.80537 0.0
H466 H 0.85903 0.38286 0.83779 0.0
H467 H 0.88712 0.46189 0.93455 0.0
H468 H 0.94159 0.47136 0.97068 0.0
H469 H 0.03595 0.38419 0.01092 0.0
H470 H 0.04286 0.31998 0.99965 0.0
H471 H 0.02826 0.25103 0.8975 0.0
H472 H 1.00311 0.26205 0.83906 0.0
H473 H 0.06924 0.37635 0.85554 0.0
H474 H 0.99149 0.44681 0.83342 0.0
H475 H 0.87456 0.26553 0.91642 0.0
H476 H 0.86155 0.33991 0.99094 0.0
C477 C 0.1616 0.91353 0.83403 0.0
C478 C 0.146 0.8906 0.81383 0.0
C479 C 0.11696 0.88151 0.82884 0.0
C480 C 0.11608 0.89958 0.8571 0.0
N481 N 0.14287 0.91967 0.86105 0.0
Co482 Co 0.14977 0.95219 0.89746 0.0
N483 N 0.10483 0.94244 0.9172 0.0
C484 C 0.08333 0.9184 0.90762 0.0
C485 C 0.05368 0.91878 0.92429 0.0
C486 C 0.05601 0.94519 0.94516 0.0
C487 C 0.08694 0.9597 0.93988 0.0
N488 N 0.15598 0.98549 0.93357 0.0
C489 C 0.13319 0.99953 0.95418 0.0
C490 C 0.1475 0.0249 0.97242 0.0
C491 C 0.18008 0.02702 0.96315 0.0
C492 C 0.18392 1.00329 0.93953 0.0
N493 N 0.19459 0.96241 0.87816 0.0
C494 C 0.2181 0.98254 0.89116 0.0
C495 C 0.24741 0.98309 0.87411 0.0
C496 C 0.24225 0.96228 0.84841 0.0
C497 C 0.20967 0.9506 0.85095 0.0
N498 N 0.12922 0.98745 0.87002 0.0
C499 C 0.10199 0.0328 0.8248 0.0
C500 C 0.13302 0.03891 0.83924 0.0
C501 C 0.14589 0.01625 0.86218 0.0
C502 C 0.08463 1.00425 0.83402 0.0
C503 C 0.09862 0.98204 0.85615 0.0
N504 N 0.17118 0.91528 0.92372 0.0
C505 C 0.22232 0.88999 0.94429 0.0
C506 C 0.20913 0.8577 0.94133 0.0
C507 C 0.17537 0.85547 0.93294 0.0
C508 C 0.1571 0.8841 0.92475 0.0
C509 C 0.20293 0.9181 0.93604 0.0
H510 H 0.13184 0.87992 0.91837 0.0
H511 H 0.21461 0.94176 0.93892 0.0
H512 H 0.16951 0.02209 0.87301 0.0
H513 H 0.08441 0.96023 0.86109 0.0
C514 C 0.0896 0.89976 0.8794 0.0
C515 C 0.19407 0.92893 0.82658 0.0
C516 C 0.09753 0.99074 0.95597 0.0
C517 C 0.21164 1.00088 0.91923 0.0
H518 H 0.15436 0.88156 0.79044 0.0
H519 H 0.0983 0.86435 0.81981 0.0
H520 H 0.03214 0.90303 0.92033 0.0
H521 H 0.03662 0.95362 0.96152 0.0
H522 H 0.13563 0.04138 0.98963 0.0
H523 H 0.19821 0.04527 0.97112 0.0
H524 H 0.26985 0.99696 0.87969 0.0
H525 H 0.26053 0.9565 0.82991 0.0
H526 H 0.14707 0.06107 0.83306 0.0
H527 H 0.06053 0.99855 0.82345 0.0
H528 H 0.24795 0.89373 0.9517 0.0
H529 H 0.16292 0.83154 0.93213 0.0
C530 C 0.60617 0.19059 0.84264 0.0
C531 C 0.63424 0.1865 0.8232 0.0
C532 C 0.65374 0.16275 0.83785 0.0
C533 C 0.63681 0.15372 0.8655 0.0
N534 N 0.60766 0.17005 0.86891 0.0
Co535 Co 0.57844 0.16695 0.90778 0.0
N536 N 0.59862 0.1243 0.92233 0.0
C537 C 0.62805 0.11202 0.91235 0.0
C538 C 0.63446 0.081 0.92513 0.0
C539 C 0.60721 0.07337 0.94415 0.0
C540 C 0.58556 0.10015 0.94191 0.0
N541 N 0.54998 0.1641 0.94738 0.0
C542 C 0.5414 0.1372 0.96572 0.0
C543 C 0.51874 0.14621 0.98973 0.0
C544 C 0.51337 0.1797 0.98647 0.0
C545 C 0.53254 0.18939 0.9605 0.0
N546 N 0.55625 0.20852 0.89296 0.0
C547 C 0.53585 0.2277 0.91099 0.0
C548 C 0.52115 0.25273 0.89347 0.0
C549 C 0.5336 0.24955 0.86263 0.0
C550 C 0.55605 0.22315 0.86318 0.0
N551 N 0.54578 0.14124 0.88249 0.0
C552 C 0.50279 0.11257 0.8359 0.0
C553 C 0.49056 0.13419 0.86017 0.0
C554 C 0.51246 0.1484 0.88303 0.0
C555 C 0.5368 0.10435 0.83717 0.0
C556 C 0.55742 0.11825 0.8608 0.0
N557 N 0.61318 0.19338 0.9314 0.0
C558 C 0.65354 0.23796 0.92544 0.0
C559 C 0.67593 0.22232 0.94646 0.0
C560 C 0.66465 0.19367 0.96285 0.0
C561 C 0.63291 0.17992 0.95537 0.0
C562 C 0.62282 0.22333 0.91826 0.0
H563 H 0.62561 0.15709 0.9673 0.0
H564 H 0.60875 0.23529 0.89947 0.0
H565 H 0.50264 0.16603 0.90035 0.0
H566 H 0.58338 0.11157 0.86027 0.0
C567 C 0.6453 0.12749 0.88667 0.0
C568 C 0.58024 0.2161 0.83691 0.0
C569 C 0.55407 0.10308 0.96052 0.0
C570 C 0.52722 0.21845 0.94263 0.0
H571 H 0.64043 0.19971 0.80108 0.0
H572 H 0.67723 0.15295 0.8291 0.0
H573 H 0.65561 0.06511 0.92003 0.0
H574 H 0.60363 0.05076 0.95806 0.0
H575 H 0.50611 0.13043 0.00706 0.0
H576 H 0.49526 0.19451 0.99958 0.0
H577 H 0.50274 0.27049 0.9018 0.0
H578 H 0.52733 0.26547 0.84232 0.0
H579 H 0.46444 0.14077 0.86128 0.0
H580 H 0.5483 0.08843 0.81918 0.0
H581 H 0.66087 0.26025 0.91238 0.0
H582 H 0.68098 0.18073 0.97956 0.0
C583 C 0.35197 0.62236 0.84398 0.0
C584 C 0.36117 0.65074 0.82688 0.0
C585 C 0.3876 0.66453 0.84312 0.0
C586 C 0.39293 0.64415 0.86937 0.0
N587 N 0.3715 0.61823 0.87068 0.0
Co588 Co 0.36858 0.58518 0.90671 0.0
N589 N 0.41235 0.59943 0.92593 0.0
C590 C 0.43095 0.62568 0.91636 0.0
C591 C 0.46201 0.62633 0.93043 0.0
C592 C 0.4636 0.59825 0.94936 0.0
C593 C 0.43321 0.58212 0.94602 0.0
N594 N 0.36542 0.55282 0.94343 0.0
C595 C 0.38966 0.54114 0.96347 0.0
C596 C 0.37713 0.51789 0.98519 0.0
C597 C 0.34411 0.51393 0.97773 0.0
C598 C 0.3383 0.53506 0.95208 0.0
N599 N 0.32628 0.56843 0.8867 0.0
C600 C 0.30607 0.54475 0.89932 0.0
C601 C 0.28122 0.53492 0.87864 0.0
C602 C 0.28587 0.55342 0.85116 0.0
C603 C 0.31291 0.57438 0.85695 0.0
N604 N 0.39323 0.55235 0.88026 0.0
C605 C 0.42413 0.50912 0.83588 0.0
C606 C 0.39784 0.49794 0.85541 0.0
C607 C 0.383 0.51985 0.87777 0.0
C608 C 0.43548 0.54167 0.83978 0.0
C609 C 0.41972 0.56279 0.86184 0.0
N610 N 0.34285 0.62007 0.93203 0.0
C611 C 0.28897 0.64723 0.93799 0.0
C612 C 0.30377 0.67864 0.9416 0.0
C613 C 0.33851 0.67917 0.94538 0.0
C614 C 0.35731 0.64971 0.94131 0.0
C615 C 0.30865 0.61862 0.9339 0.0
H616 H 0.38358 0.65199 0.9447 0.0
H617 H 0.29529 0.59588 0.93098 0.0
H618 H 0.36289 0.51052 0.89244 0.0
H619 H 0.42875 0.58783 0.86318 0.0
C620 C 0.42003 0.64626 0.89091 0.0
C621 C 0.32431 0.60035 0.83427 0.0
C622 C 0.42508 0.54993 0.96134 0.0
C623 C 0.3118 0.53168 0.93034 0.0
H624 H 0.35001 0.66049 0.8049 0.0
H625 H 0.40174 0.68638 0.83615 0.0
H626 H 0.4819 0.64398 0.92592 0.0
H627 H 0.48505 0.59008 0.96313 0.0
H628 H 0.39085 0.504 1.00335 0.0
H629 H 0.32725 0.49554 0.98778 0.0
H630 H 0.26241 0.51603 0.88275 0.0
H631 H 0.27093 0.5513 0.8294 0.0
H632 H 0.38878 0.47261 0.85331 0.0
H633 H 0.45599 0.55105 0.82524 0.0
H634 H 0.26208 0.64471 0.93721 0.0
H635 H 0.35146 0.70241 0.9498 0.0
C636 C 0.92267 0.19514 0.66012 0.0
C637 C 0.89453 0.19123 0.67955 0.0
C638 C 0.87477 0.16774 0.66482 0.0
C639 C 0.89156 0.15878 0.63711 0.0
N640 N 0.92084 0.1749 0.63371 0.0
Co641 Co 0.94974 0.17218 0.5947 0.0
N642 N 0.92907 0.12982 0.57974 0.0
C643 C 0.89966 0.11756 0.58989 0.0
C644 C 0.89337 0.08633 0.57765 0.0
C645 C 0.92058 0.07854 0.55872 0.0
C646 C 0.94199 0.10567 0.5601 0.0
N647 N 0.97795 0.16961 0.55514 0.0
C648 C 0.98598 0.1429 0.53649 0.0
C649 C 1.00671 0.15217 0.51101 0.0
C650 C 1.01238 0.18569 0.51439 0.0
C651 C 0.99467 0.19508 0.5415 0.0
N652 N 0.97221 0.21357 0.6096 0.0
C653 C 0.99226 0.233 0.59138 0.0
C654 C 1.00727 0.25781 0.60901 0.0
C655 C 0.99536 0.2542 0.64004 0.0
C656 C 0.97284 0.22782 0.63954 0.0
N657 N 0.98252 0.14619 0.61956 0.0
C658 C 0.02545 0.11776 0.66592 0.0
C659 C 0.03754 0.14053 0.6428 0.0
C660 C 1.01567 0.15441 0.61977 0.0
C661 C 0.99207 0.10776 0.66356 0.0
C662 C 0.97122 0.12207 0.6403 0.0
N663 N 0.91518 0.19908 0.57147 0.0
C664 C 0.87708 0.24582 0.5752 0.0
C665 C 0.85514 0.23179 0.55252 0.0
C666 C 0.86586 0.20222 0.5371 0.0
C667 C 0.89612 0.18661 0.54654 0.0
C668 C 0.90601 0.22912 0.58464 0.0
H669 H 0.90302 0.16359 0.53477 0.0
H670 H 0.91949 0.24021 0.60436 0.0
H671 H 0.02523 0.17289 0.60316 0.0
H672 H 0.94544 0.11463 0.64022 0.0
C673 C 0.88273 0.13285 0.61579 0.0
C674 C 0.94907 0.22016 0.66607 0.0
C675 C 0.97378 0.10876 0.54181 0.0
C676 C 1.00031 0.22416 0.55939 0.0
H677 H 0.88837 0.2044 0.70169 0.0
H678 H 0.85118 0.15811 0.67353 0.0
H679 H 0.87254 0.07021 0.58342 0.0
H680 H 0.92429 0.05527 0.54602 0.0
H681 H 0.0172 0.13628 0.49238 0.0
H682 H 0.02934 0.2008 0.50017 0.0
H683 H 0.02557 0.27567 0.60061 0.0
H684 H 1.00217 0.26977 0.66045 0.0
H685 H 0.06327 0.14874 0.64341 0.0
H686 H 0.98179 0.08948 0.68015 0.0
H687 H 0.87153 0.26932 0.58689 0.0
H688 H 0.85044 0.1903 0.5189 0.0
C689 C 0.3435 0.91709 0.66947 0.0
C690 C 0.35441 0.90004 0.69687 0.0
C691 C 0.38786 0.89493 0.69301 0.0
C692 C 0.39564 0.90922 0.66372 0.0
N693 N 0.3692 0.92275 0.64841 0.0
Co694 Co 0.37113 0.94858 0.60666 0.0
N695 N 0.41909 0.93615 0.5982 0.0
C696 C 0.43918 0.9201 0.61929 0.0
C697 C 0.47125 0.9163 0.60832 0.0
C698 C 0.47198 0.9316 0.57864 0.0
C699 C 0.44018 0.94394 0.57312 0.0
N700 N 0.37333 0.97518 0.56524 0.0
C701 C 0.39872 0.98033 0.54367 0.0
C702 C 0.38928 1.00183 0.51891 0.0
C703 C 0.35735 1.01133 0.5254 0.0
C704 C 0.34901 0.99506 0.55355 0.0
N705 N 0.32327 0.96077 0.61438 0.0
C706 C 0.30486 0.98192 0.59635 0.0
C707 C 0.27194 0.98307 0.6052 0.0
C708 C 0.26925 0.96166 0.63083 0.0
C709 C 0.30094 0.94896 0.63647 0.0
N710 N 0.38616 0.98787 0.63206 0.0
C711 C 0.41714 0.02754 0.67958 0.0
C712 C 0.38471 0.01585 0.68416 0.0
C713 C 0.36973 0.99617 0.66018 0.0
C714 C 0.43225 0.02235 0.6493 0.0
C715 C 0.41594 1.00327 0.62559 0.0
N716 N 0.35562 0.90811 0.58301 0.0
C717 C 0.3109 0.8793 0.5548 0.0
C718 C 0.32232 0.84809 0.56569 0.0
C719 C 0.35263 0.84778 0.5828 0.0
C720 C 0.36874 0.87769 0.591 0.0
C721 C 0.32801 0.90874 0.56335 0.0
H722 H 0.39096 0.8759 0.6054 0.0
H723 H 0.31768 0.932 0.55534 0.0
H724 H 0.34584 0.98586 0.66587 0.0
H725 H 0.42863 0.99951 0.60298 0.0
C726 C 0.42709 0.90918 0.64925 0.0
C727 C 0.30938 0.93015 0.66599 0.0
C728 C 0.43282 0.9674 0.54651 0.0
C729 C 0.31835 0.9974 0.56915 0.0
H730 H 0.34004 0.89271 0.71793 0.0
H731 H 0.40456 0.88245 0.7097 0.0
H732 H 0.49191 0.90463 0.62083 0.0
H733 H 0.49387 0.93482 0.56356 0.0
H734 H 0.40423 1.01031 0.4986 0.0
H735 H 0.34208 0.02831 0.5114 0.0
H736 H 0.25213 0.99733 0.59401 0.0
H737 H 0.24674 0.95675 0.64457 0.0
H738 H 0.37199 0.0196 0.70713 0.0
H739 H 0.45712 0.03172 0.64452 0.0
H740 H 0.28796 0.88134 0.54108 0.0
H741 H 0.36363 0.82453 0.59068 0.0
C742 C 0.60521 0.34947 0.66692 0.0
C743 C 0.63344 0.3521 0.6864 0.0
C744 C 0.6533 0.37626 0.67289 0.0
C745 C 0.63645 0.38694 0.64582 0.0
N746 N 0.60704 0.37126 0.64167 0.0
Co747 Co 0.57808 0.37651 0.60291 0.0
N748 N 0.59907 0.41949 0.59019 0.0
C749 C 0.62867 0.4308 0.60085 0.0
C750 C 0.63544 0.4625 0.5901 0.0
C751 C 0.60834 0.47164 0.57164 0.0
C752 C 0.58648 0.44482 0.57179 0.0
N753 N 0.54969 0.38178 0.56367 0.0
C754 C 0.54161 0.40972 0.54671 0.0
C755 C 0.52028 0.40218 0.52118 0.0
C756 C 0.51431 0.36858 0.52274 0.0
C757 C 0.53242 0.35736 0.5489 0.0
N758 N 0.55532 0.33448 0.61567 0.0
C759 C 0.53501 0.31636 0.59648 0.0
C760 C 0.52011 0.29046 0.61265 0.0
C761 C 0.53236 0.29194 0.64373 0.0
C762 C 0.55489 0.31828 0.64469 0.0
N763 N 0.54567 0.40132 0.62917 0.0
C764 C 0.50292 0.42843 0.67634 0.0
C765 C 0.49066 0.40666 0.65241 0.0
C766 C 0.51245 0.39345 0.62897 0.0
C767 C 0.53644 0.43804 0.67456 0.0
C768 C 0.55723 0.42434 0.65092 0.0
N769 N 0.61242 0.35069 0.57815 0.0
C770 C 0.6519 0.30509 0.58165 0.0
C771 C 0.67407 0.32099 0.56062 0.0
C772 C 0.66325 0.35065 0.54575 0.0
C773 C 0.63201 0.36475 0.55439 0.0
C774 C 0.62173 0.32011 0.59008 0.0
H775 H 0.62501 0.38821 0.54353 0.0
H776 H 0.60786 0.30777 0.6088 0.0
H777 H 0.50272 0.37583 0.6116 0.0
H778 H 0.5831 0.43143 0.65123 0.0
C779 C 0.64548 0.41391 0.62585 0.0
C780 C 0.57884 0.3241 0.67152 0.0
C781 C 0.55457 0.44337 0.55345 0.0
C782 C 0.52671 0.32731 0.56518 0.0
H783 H 0.63961 0.3376 0.70772 0.0
H784 H 0.67702 0.38517 0.68197 0.0
H785 H 0.65655 0.47797 0.59654 0.0
H786 H 0.60497 0.49553 0.55999 0.0
H787 H 0.5096 0.41927 0.5037 0.0
H788 H 0.4969 0.35453 0.50801 0.0
H789 H 0.5017 0.2732 0.60332 0.0
H790 H 0.52581 0.27501 0.66315 0.0
H791 H 0.46483 0.39877 0.65259 0.0
H792 H 0.54685 0.4556 0.6918 0.0
H793 H 0.6591 0.28226 0.59383 0.0
H794 H 0.6796 0.36394 0.52928 0.0
C795 C 0.17827 0.61912 0.66748 0.0
C796 C 0.1713 0.64931 0.68251 0.0
C797 C 0.14639 0.66405 0.66491 0.0
C798 C 0.13972 0.64235 0.63999 0.0
N799 N 0.15877 0.61469 0.6408 0.0
Co800 Co 0.15964 0.57944 0.60673 0.0
N801 N 0.11732 0.59559 0.58604 0.0
C802 C 0.10107 0.62398 0.5936 0.0
C803 C 0.07057 0.62665 0.57876 0.0
C804 C 0.06696 0.59796 0.56106 0.0
C805 C 0.09584 0.57945 0.5656 0.0
N806 N 0.16083 0.54482 0.57188 0.0
C807 C 0.13663 0.53434 0.55103 0.0
C808 C 0.14853 0.50972 0.53037 0.0
C809 C 0.18083 0.50377 0.53927 0.0
C810 C 0.18703 0.52521 0.56455 0.0
N811 N 0.2004 0.56107 0.62834 0.0
C812 C 0.21956 0.536 0.61692 0.0
C813 C 0.2437 0.52596 0.63829 0.0
C814 C 0.23978 0.54596 0.66489 0.0
C815 C 0.21389 0.56788 0.65788 0.0
N816 N 0.13266 0.55003 0.63491 0.0
C817 C 0.10481 0.5157 0.68825 0.0
C818 C 0.12925 0.50075 0.66858 0.0
C819 C 0.14236 0.51808 0.64173 0.0
C820 C 0.09226 0.54662 0.67822 0.0
C821 C 0.10661 0.56334 0.65198 0.0
N822 N 0.18793 0.61109 0.57997 0.0
C823 C 0.24141 0.63965 0.57892 0.0
C824 C 0.2266 0.66968 0.56956 0.0
C825 C 0.19296 0.66826 0.56032 0.0
C826 C 0.17441 0.63863 0.56495 0.0
C827 C 0.22207 0.61091 0.58326 0.0
H828 H 0.14887 0.63913 0.55738 0.0
H829 H 0.23555 0.58941 0.59087 0.0
H830 H 0.16162 0.50619 0.62773 0.0
H831 H 0.09758 0.5879 0.6469 0.0
C832 C 0.11347 0.64528 0.61772 0.0
C833 C 0.20413 0.5959 0.67888 0.0
C834 C 0.10213 0.54672 0.5502 0.0
C835 C 0.21333 0.52185 0.5865 0.0
H836 H 0.18305 0.65975 0.70389 0.0
H837 H 0.13417 0.68749 0.67006 0.0
H838 H 0.05233 0.64626 0.58179 0.0
H839 H 0.04509 0.59127 0.54717 0.0
H840 H 0.13499 0.49668 0.51149 0.0
H841 H 0.19703 0.48443 0.52995 0.0
H842 H 0.26164 0.50608 0.63517 0.0
H843 H 0.25456 0.54439 0.6868 0.0
H844 H 0.13949 0.47661 0.67466 0.0
H845 H 0.0722 0.5587 0.6913 0.0
H846 H 0.26784 0.63858 0.58429 0.0
H847 H 0.18048 0.6903 0.55128 0.0
H848 H 0.21747 0.73509 0.16401 0.0
H849 H 0.26446 0.67517 0.09024 0.0
H850 H 0.30567 0.71908 0.08084 0.0
H851 H 0.32899 0.77603 0.09215 0.0
H852 H 0.28133 0.83656 0.16507 0.0
H853 H 0.23909 0.79398 0.17243 0.0
C854 C 0.23667 0.73138 0.14582 0.0
C855 C 0.23763 0.70016 0.12882 0.0
C856 C 0.2607 0.75772 0.13982 0.0
C857 C 0.26293 0.69751 0.1049 0.0
C858 C 0.28675 0.72313 0.09923 0.0
C859 C 0.31081 0.77953 0.11123 0.0
C860 C 0.3108 0.81026 0.12924 0.0
C861 C 0.28641 0.75342 0.11675 0.0
C862 C 0.28383 0.81382 0.15123 0.0
C863 C 0.25944 0.78867 0.15607 0.0
H864 H 0.78077 0.21029 0.14425 0.0
H865 H 0.84905 0.28686 0.11322 0.0
H866 H 0.80571 0.32835 0.12013 0.0
H867 H 0.74551 0.34357 0.13329 0.0
H868 H 0.67648 0.26303 0.12067 0.0
H869 H 0.72031 0.22305 0.13096 0.0
C870 C 0.78701 0.23559 0.13768 0.0
C871 C 0.82143 0.24444 0.13238 0.0
C872 C 0.7599 0.25925 0.13446 0.0
C873 C 0.82573 0.27842 0.1233 0.0
C874 C 0.79979 0.30258 0.12541 0.0
C875 C 0.73919 0.31748 0.13279 0.0
C876 C 0.70453 0.30772 0.13296 0.0
C877 C 0.76636 0.29351 0.13144 0.0
C878 C 0.70014 0.27285 0.12848 0.0
C879 C 0.72631 0.24933 0.13215 0.0
H880 H 0.20884 0.79234 0.34525 0.0
H881 H 0.2494 0.8497 0.4243 0.0
H882 H 0.29238 0.80744 0.4327 0.0
H883 H 0.32025 0.75321 0.4179 0.0
H884 H 0.27578 0.69218 0.34394 0.0
H885 H 0.23337 0.73531 0.334 0.0
C886 C 0.227 0.79595 0.36427 0.0
C887 C 0.22575 0.82627 0.38286 0.0
C888 C 0.25168 0.77018 0.37 0.0
C889 C 0.24971 0.82844 0.40812 0.0
C890 C 0.2745 0.80365 0.4133 0.0
C891 C 0.3018 0.74934 0.39906 0.0
C892 C 0.3032 0.71923 0.38022 0.0
C893 C 0.27626 0.7744 0.39421 0.0
C894 C 0.27691 0.71504 0.35777 0.0
C895 C 0.25224 0.73993 0.35229 0.0
H896 H 0.79522 0.30856 0.34225 0.0
H897 H 0.84373 0.26761 0.42671 0.0
H898 H 0.79902 0.22669 0.43249 0.0
H899 H 0.74501 0.20091 0.41404 0.0
H900 H 0.69273 0.24598 0.33393 0.0
H901 H 0.73766 0.28676 0.32778 0.0
C902 C 0.79627 0.29076 0.36202 0.0
C903 C 0.82498 0.29101 0.38293 0.0
C904 C 0.76892 0.2675 0.36632 0.0
C905 C 0.82393 0.26774 0.40883 0.0
C906 C 0.79769 0.24422 0.41251 0.0
C907 C 0.74352 0.21905 0.39462 0.0
C908 C 0.71506 0.21838 0.37346 0.0
C909 C 0.77005 0.24332 0.39123 0.0
C910 C 0.71388 0.24439 0.35024 0.0
C911 C 0.74012 0.26796 0.34647 0.0
H912 H 0.8194 0.27461 0.90912 0.0
H913 H 0.82524 0.29671 0.01167 0.0
H914 H 0.76917 0.27329 0.01938 0.0
H915 H 0.71735 0.24629 0.99628 0.0
H916 H 0.71531 0.22333 0.89378 0.0
H917 H 0.77118 0.24598 0.88726 0.0
C918 C 0.80909 0.27377 0.93348 0.0
C919 C 0.82742 0.28724 0.95979 0.0
C920 C 0.77717 0.25969 0.93783 0.0
C921 C 0.81217 0.28685 0.99074 0.0
C922 C 0.78 0.27314 0.99523 0.0
C923 C 0.72942 0.24585 0.97269 0.0
C924 C 0.71189 0.23303 0.94549 0.0
C925 C 0.76212 0.25936 0.96892 0.0
C926 C 0.72797 0.23304 0.91507 0.0
C927 C 0.75999 0.24613 0.91126 0.0
H928 H 0.30982 0.73864 0.97548 0.0
H929 H 0.25117 0.69023 0.90113 0.0
H930 H 0.21731 0.73999 0.89506 0.0
H931 H 0.20449 0.79774 0.90938 0.0
H932 H 0.26174 0.84717 0.98402 0.0
H933 H 0.29599 0.79724 0.99068 0.0
C934 C 0.28969 0.73894 0.95791 0.0
C935 C 0.28311 0.71005 0.93914 0.0
C936 C 0.26997 0.76814 0.9543 0.0
C937 C 0.25665 0.71139 0.91658 0.0
C938 C 0.23728 0.74011 0.91283 0.0
C939 C 0.22408 0.79768 0.92754 0.0
C940 C 0.23007 0.82669 0.94618 0.0
C941 C 0.24362 0.76865 0.93151 0.0
C942 C 0.25641 0.82574 0.96891 0.0
C943 C 0.27604 0.79694 0.97291 0.0
H944 H 0.71138 0.28995 0.51166 0.0
H945 H 0.71647 0.32508 0.61066 0.0
H946 H 0.77156 0.30041 0.61692 0.0
H947 H 0.8166 0.26628 0.59623 0.0
H948 H 0.81554 0.23251 0.49655 0.0
H949 H 0.76054 0.25811 0.48902 0.0
C950 C 0.72494 0.29271 0.53431 0.0
C951 C 0.70976 0.30967 0.56066 0.0
C952 C 0.75712 0.27807 0.5379 0.0
C953 C 0.72754 0.31246 0.59 0.0
C954 C 0.75903 0.29813 0.59366 0.0
C955 C 0.80513 0.26504 0.57241 0.0
C956 C 0.82114 0.24749 0.54695 0.0
C957 C 0.77389 0.28053 0.56802 0.0
C958 C 0.80427 0.24541 0.51688 0.0
C959 C 0.77271 0.26038 0.51245 0.0
H960 H 0.22977 0.7237 0.52686 0.0
H961 H 0.26659 0.68878 0.61939 0.0
H962 H 0.29889 0.73959 0.62605 0.0
H963 H 0.31663 0.79431 0.60662 0.0
H964 H 0.28224 0.82996 0.51349 0.0
H965 H 0.24907 0.77928 0.50651 0.0
C966 C 0.24481 0.72726 0.54848 0.0
C967 C 0.24581 0.70188 0.5724 0.0
C968 C 0.26386 0.75694 0.55223 0.0
C969 C 0.26563 0.70726 0.60022 0.0
C970 C 0.28408 0.73655 0.6042 0.0
C971 C 0.30239 0.79101 0.58445 0.0
C972 C 0.30241 0.81642 0.56064 0.0
C973 C 0.28356 0.76153 0.58038 0.0
C974 C 0.28275 0.8114 0.53258 0.0
C975 C 0.26377 0.78216 0.52845 0.0
H976 H 0.9769 0.47759 0.27499 0.0
H977 H 0.0557 0.41379 0.31035 0.0
H978 H 0.09421 0.43971 0.27242 0.0
H979 H 0.10492 0.48133 0.22775 0.0
H980 H 0.03938 0.56683 0.22788 0.0
H981 H 0.99615 0.53288 0.25287 0.0
C982 C 1.00265 0.46981 0.27645 0.0
C983 C 1.01141 0.44073 0.2947 0.0
C984 C 0.02717 0.48951 0.25989 0.0
C985 C 0.04583 0.43258 0.29425 0.0
C986 C 0.06871 0.44858 0.27324 0.0
C987 C 0.08275 0.49449 0.23508 0.0
C988 C 0.07652 0.52756 0.22364 0.0
C989 C 0.05967 0.47723 0.25569 0.0
C990 C 0.04524 0.54108 0.23296 0.0
C991 C 0.02032 0.52176 0.24837 0.0
H992 H 0.97241 0.08072 0.26465 0.0
H993 H 0.02444 0.07105 0.17359 0.0
H994 H 0.06491 0.03329 0.19903 0.0
H995 H 0.08611 1.00204 0.24768 0.0
H996 H 0.03405 1.01199 0.33875 0.0
H997 H 0.99389 0.04995 0.31336 0.0
C998 C 0.99255 0.07027 0.25034 0.0
C999 C 0.99498 0.07889 0.21691 0.0
C1000 C 1.01614 0.04838 0.2654 0.0
C1001 C 0.02159 0.065 0.19912 0.0
C1002 C 0.04491 0.04332 0.2138 0.0
C1003 C 0.06609 1.01265 0.26204 0.0
C1004 C 0.06345 1.00375 0.29543 0.0
C1005 C 0.04261 0.03471 0.24699 0.0
C1006 C 0.03699 0.01801 0.31323 0.0
C1007 C 1.01384 0.03983 0.29858 0.0
H1008 H 0.53218 0.08451 0.24909 0.0
H1009 H 0.53586 0.02343 0.33507 0.0
H1010 H 0.49958 0.98215 0.30909 0.0
H1011 H 0.46742 0.96178 0.26093 0.0
H1012 H 0.46238 0.02322 0.17533 0.0
H1013 H 0.4979 0.06517 0.20161 0.0
C1014 C 0.52477 0.06234 0.26228 0.0
C1015 C 0.53719 0.05737 0.29428 0.0
C1016 C 0.50353 0.03831 0.24695 0.0
C1017 C 0.52705 0.02818 0.31061 0.0
C1018 C 0.50624 1.00437 0.29561 0.0
C1019 C 0.474 0.98441 0.24806 0.0
C1020 C 0.46196 0.98905 0.21592 0.0
C1021 C 0.49446 1.00886 0.26364 0.0
C1022 C 0.47098 0.01876 0.19992 0.0
C1023 C 0.49144 0.04287 0.21505 0.0
H1024 H 0.51387 0.49594 0.19342 0.0
H1025 H 0.55662 0.44684 0.27661 0.0
H1026 H 0.52129 0.47995 0.31299 0.0
H1027 H 0.47766 0.52359 0.32191 0.0
H1028 H 0.43556 0.57341 0.23889 0.0
H1029 H 0.47052 0.53992 0.20237 0.0
C1030 C 0.5158 0.49276 0.21953 0.0
C1031 C 0.53862 0.46888 0.23201 0.0
C1032 C 0.49497 0.51206 0.24062 0.0
C1033 C 0.53984 0.465 0.26606 0.0
C1034 C 0.51939 0.48396 0.28699 0.0
C1035 C 0.47584 0.52683 0.2958 0.0
C1036 C 0.45323 0.55087 0.28334 0.0
C1037 C 0.49667 0.50757 0.2747 0.0
C1038 C 0.45208 0.55496 0.24934 0.0
C1039 C 0.47235 0.53582 0.22836 0.0
H1040 H 0.09795 0.44912 0.70485 0.0
H1041 H 0.08745 0.54843 0.74415 0.0
H1042 H 0.06593 0.52572 0.79459 0.0
H1043 H 0.0476 0.47805 0.82732 0.0
H1044 H 0.0608 0.3785 0.7905 0.0
H1045 H 0.08474 0.40082 0.74009 0.0
C1046 C 0.09139 0.46586 0.7245 0.0
C1047 C 0.09352 0.50066 0.71986 0.0
C1048 C 0.0797 0.45256 0.75423 0.0
C1049 C 0.08489 0.52166 0.74606 0.0
C1050 C 0.07291 0.50869 0.7753 0.0
C1051 C 0.05611 0.46126 0.80839 0.0
C1052 C 0.05237 0.42671 0.8126 0.0
C1053 C 0.06975 0.47426 0.77952 0.0
C1054 C 0.0637 0.4052 0.78797 0.0
C1055 C 0.0771 0.41799 0.75901 0.0
H1056 H 0.12665 0.05045 0.76513 0.0
H1057 H 0.04265 0.06442 0.82913 0.0
H1058 H 1.0125 0.09377 0.7862 0.0
H1059 H 1.00809 0.11148 0.72945 0.0
H1060 H 0.09062 0.09611 0.66391 0.0
H1061 H 0.12338 0.07179 0.70832 0.0
C1062 C 0.10205 0.06062 0.76975 0.0
C1063 C 0.08689 0.05543 0.80027 0.0
C1064 C 0.08444 0.07684 0.74455 0.0
C1065 C 0.0548 0.06822 0.80587 0.0
C1066 C 0.0375 0.08484 0.78128 0.0
C1067 C 0.03323 0.10274 0.7248 0.0
C1068 C 0.04663 0.10517 0.6932 0.0
C1069 C 0.05171 0.08854 0.75032 0.0
C1070 C 0.07962 0.09454 0.68793 0.0
C1071 C 0.09833 0.0805 0.71332 0.0
H1072 H 0.50988 0.05489 0.80004 0.0
H1073 H 0.44642 0.14148 0.80892 0.0
H1074 H 0.41377 0.12253 0.76258 0.0
H1075 H 0.40431 0.08228 0.71749 0.0
H1076 H 0.47292 1.00071 0.70503 0.0
H1077 H 0.50336 0.01779 0.75374 0.0
C1078 C 0.48949 0.07034 0.79172 0.0
C1079 C 0.48122 0.09994 0.80851 0.0
C1080 C 0.47187 0.0604 0.76379 0.0
C1081 C 0.45347 0.11831 0.7974 0.0
C1082 C 0.43488 0.10772 0.77041 0.0
C1083 C 0.42613 0.06855 0.7254 0.0
C1084 C 0.43658 0.04044 0.70762 0.0
C1085 C 0.44405 0.07899 0.75315 0.0
C1086 C 0.46475 0.02269 0.71809 0.0
C1087 C 0.48199 0.0323 0.74607 0.0
H1088 H 0.51991 0.43352 0.74011 0.0
H1089 H 0.43793 0.45016 0.67421 0.0
H1090 H 0.40474 0.47343 0.71879 0.0
H1091 H 0.4008 0.49326 0.77588 0.0
H1092 H 0.48407 0.47874 0.84045 0.0
H1093 H 0.51506 0.45046 0.79715 0.0
C1094 C 0.49481 0.44234 0.73542 0.0
C1095 C 0.48163 0.44051 0.70369 0.0
C1096 C 0.47611 0.45604 0.76103 0.0
C1097 C 0.44871 0.45123 0.69833 0.0
C1098 C 0.42977 0.46469 0.72381 0.0
C1099 C 0.42546 0.48321 0.78047 0.0
C1100 C 0.44015 0.48758 0.81125 0.0
C1101 C 0.4434 0.4677 0.75517 0.0
C1102 C 0.4723 0.4752 0.81698 0.0
C1103 C 0.49002 0.45927 0.7922 0.0
H1104 H 0.21357 0.71024 0.23014 0.0
H1105 H 0.14793 0.68947 0.31061 0.0
H1106 H 0.14806 0.74863 0.32562 0.0
H1107 H 0.15768 0.80603 0.30843 0.0
H1108 H 0.21907 0.8272 0.22478 0.0
H1109 H 0.22998 0.76705 0.21836 0.0
C1110 C 0.20054 0.71859 0.25183 0.0
C1111 C 0.18108 0.69606 0.26963 0.0
C1112 C 0.19887 0.75247 0.25867 0.0
C1113 C 0.16347 0.70671 0.29713 0.0
C1114 C 0.16309 0.74041 0.30522 0.0
C1115 C 0.17361 0.79741 0.28879 0.0
C1116 C 0.18668 0.82028 0.2663 0.0
C1117 C 0.17915 0.76351 0.28493 0.0
C1118 C 0.2082 0.80958 0.24169 0.0
C1119 C 0.21425 0.7756 0.23796 0.0
H1120 H 0.80723 0.22574 0.21084 0.0
H1121 H 0.8345 0.19567 0.3078 0.0
H1122 H 0.77618 0.19913 0.32489 0.0
H1123 H 0.71875 0.19304 0.30698 0.0
H1124 H 0.69067 0.21583 0.20851 0.0
H1125 H 0.7482 0.23325 0.19681 0.0
C1126 C 0.80032 0.22162 0.23606 0.0
C1127 C 0.82438 0.2102 0.25818 0.0
C1128 C 0.76672 0.22127 0.24483 0.0
C1129 C 0.81598 0.20462 0.29072 0.0
C1130 C 0.78271 0.20613 0.30023 0.0
C1131 C 0.72499 0.20373 0.28352 0.0
C1132 C 0.70118 0.20338 0.25861 0.0
C1133 C 0.75793 0.21187 0.2768 0.0
C1134 C 0.70902 0.21593 0.22784 0.0
C1135 C 0.7418 0.22556 0.22117 0.0
H1136 H 0.32582 0.6767 0.20581 0.0
H1137 H 0.26694 0.69505 0.29062 0.0
H1138 H 0.26855 0.75497 0.28058 0.0
H1139 H 0.29975 0.8015 0.25525 0.0
H1140 H 0.3643 0.78029 0.17406 0.0
H1141 H 0.34575 0.7228 0.17298 0.0
C1142 C 0.31121 0.6937 0.22058 0.0
C1143 C 0.2997 0.68285 0.25088 0.0
C1144 C 0.31383 0.72797 0.21512 0.0
C1145 C 0.27896 0.70403 0.26886 0.0
C1146 C 0.28017 0.73827 0.26327 0.0
C1147 C 0.30919 0.78428 0.23712 0.0
C1148 C 0.33401 0.7946 0.2154 0.0
C1149 C 0.29991 0.7506 0.23789 0.0
C1150 C 0.34576 0.77245 0.19152 0.0
C1151 C 0.33503 0.73963 0.19075 0.0
H1152 H 0.72561 0.3169 0.25916 0.0
H1153 H 0.7438 0.38368 0.1787 0.0
H1154 H 0.80155 0.36638 0.17632 0.0
H1155 H 0.84876 0.3428 0.20497 0.0
H1156 H 0.83247 0.2828 0.29014 0.0
H1157 H 0.77248 0.28488 0.28153 0.0
C1158 C 0.7421 0.32717 0.2408 0.0
C1159 C 0.73081 0.35246 0.22008 0.0
C1160 C 0.77573 0.31778 0.24002 0.0
C1161 C 0.75233 0.36529 0.19608 0.0
C1162 C 0.78527 0.35504 0.19424 0.0
C1163 C 0.83197 0.32857 0.22036 0.0
C1164 C 0.84444 0.31364 0.24849 0.0
C1165 C 0.79759 0.33256 0.21708 0.0
C1166 C 0.82308 0.29486 0.26841 0.0
C1167 C 0.7887 0.29684 0.26406 0.0
H1168 H 0.94685 0.20247 0.73022 0.0
H1169 H 0.94323 0.28837 0.6675 0.0
H1170 H 0.94548 0.32527 0.71471 0.0
H1171 H 0.9512 0.33307 0.77435 0.0
H1172 H 0.94026 0.24755 0.83676 0.0
H1173 H 0.94028 0.21066 0.78952 0.0
C1174 C 0.94628 0.22927 0.72693 0.0
C1175 C 0.94686 0.24258 0.69527 0.0
C1176 C 0.94501 0.25042 0.75427 0.0
C1177 C 0.94477 0.27739 0.69152 0.0
C1178 C 0.94561 0.29857 0.71854 0.0
C1179 C 0.94844 0.3064 0.77752 0.0
C1180 C 0.94761 0.29295 0.80911 0.0
C1181 C 0.94632 0.28537 0.75009 0.0
C1182 C 0.94267 0.25842 0.81276 0.0
C1183 C 0.94244 0.23729 0.78574 0.0
H1184 H 0.28023 0.88179 0.70457 0.0
H1185 H 0.28931 0.98822 0.69368 0.0
H1186 H 0.25124 0.99688 0.73913 0.0
H1187 H 0.21611 0.97462 0.7829 0.0
H1188 H 0.21434 0.86894 0.80065 0.0
H1189 H 0.24799 0.85943 0.75166 0.0
C1190 C 0.27408 0.90682 0.71242 0.0
C1191 C 0.28741 0.9343 0.69543 0.0
C1192 C 0.25305 0.91173 0.73965 0.0
C1193 C 0.27915 0.96661 0.70597 0.0
C1194 C 0.25736 0.97162 0.73201 0.0
C1195 C 0.22295 0.94948 0.77591 0.0
C1196 C 0.2121 0.92251 0.79508 0.0
C1197 C 0.24414 0.94441 0.74904 0.0
C1198 C 0.22156 0.8901 0.7859 0.0
C1199 C 0.2412 0.88471 0.75811 0.0
H1200 H 0.58094 0.20288 0.77137 0.0
H1201 H 0.58946 0.28363 0.83991 0.0
H1202 H 0.58774 0.32406 0.79554 0.0
H1203 H 0.58102 0.33673 0.73696 0.0
H1204 H 0.58542 0.25605 0.668 0.0
H1205 H 0.58485 0.21555 0.71236 0.0
C1206 C 0.58273 0.22932 0.77651 0.0
C1207 C 0.58364 0.24022 0.80906 0.0
C1208 C 0.58363 0.25251 0.75067 0.0
C1209 C 0.58717 0.27456 0.81519 0.0
C1210 C 0.58641 0.29775 0.78979 0.0
C1211 C 0.58205 0.31028 0.73168 0.0
C1212 C 0.58146 0.2995 0.69909 0.0
C1213 C 0.58401 0.28707 0.75741 0.0
C1214 C 0.58406 0.2651 0.69278 0.0
C1215 C 0.58414 0.24187 0.71818 0.0
H1216 H 0.2579 0.61134 0.82314 0.0
H1217 H 0.35195 0.60038 0.77353 0.0
H1218 H 0.32344 0.60319 0.72089 0.0
H1219 H 0.27121 0.60392 0.68908 0.0
H1220 H 0.17689 0.60241 0.73938 0.0
H1221 H 0.20566 0.60939 0.79151 0.0
C1222 C 0.2721 0.60932 0.80077 0.0
C1223 C 0.30697 0.60513 0.80227 0.0
C1224 C 0.25531 0.6085 0.77072 0.0
C1225 C 0.32512 0.6035 0.77306 0.0
C1226 C 0.30878 0.60488 0.74299 0.0
C1227 C 0.25699 0.60478 0.71152 0.0
C1228 C 0.22195 0.60213 0.71039 0.0
C1229 C 0.27382 0.60652 0.74153 0.0
C1230 C 0.20385 0.60426 0.73959 0.0
C1231 C 0.22031 0.6081 0.76939 0.0
H1232 H 0.0892 0.53327 0.00819 0.0
H1233 H 0.07225 0.48945 0.10256 0.0
H1234 H 0.0314 0.45133 0.07929 0.0
H1235 H 1.00155 0.42826 0.03195 0.0
H1236 H 0.02025 0.46851 0.93669 0.0
H1237 H 0.05798 0.51037 0.96026 0.0
C1238 C 0.07644 0.5155 0.02366 0.0
C1239 C 0.0844 0.51421 0.05723 0.0
C1240 C 0.05294 0.49288 0.00987 0.0
C1241 C 0.06735 0.49083 0.07668 0.0
C1242 C 0.04371 0.46901 0.06338 0.0
C1243 C 1.01398 0.44614 0.01631 0.0
C1244 C 1.00844 0.44474 0.98242 0.0
C1245 C 0.03655 0.46942 0.02998 0.0
C1246 C 0.0241 0.4688 0.96277 0.0
C1247 C 0.04592 0.49265 0.97628 0.0
H1248 H 0.09567 1.01085 0.02054 0.0
H1249 H 0.04162 0.01983 0.9305 0.0
H1250 H 1.00065 0.05616 0.95704 0.0
H1251 H 0.98065 0.08721 0.00603 0.0
H1252 H 0.03818 0.08175 0.09442 0.0
H1253 H 0.07726 0.0434 0.06844 0.0
C1254 C 0.07526 0.0212 0.00653 0.0
C1255 C 0.07229 1.01287 0.97321 0.0
C1256 C 0.05229 0.0431 0.02178 0.0
C1257 C 0.04483 0.0258 0.956 0.0
C1258 C 0.02137 0.04675 0.97122 0.0
C1259 C 1.00174 0.07762 0.01959 0.0
C1260 C 1.0063 0.0877 0.05232 0.0
C1261 C 0.02488 0.05587 1.00411 0.0
C1262 C 0.03403 0.07493 0.06924 0.0
C1263 C 0.05643 0.05277 0.05438 0.0
H1264 H 0.4655 0.97721 1.0027 0.0
H1265 H 0.47943 0.02199 0.09699 0.0
H1266 H 0.51667 0.06373 0.07339 0.0
H1267 H 0.54394 0.08942 0.02572 0.0
H1268 H 0.52637 0.04886 0.93036 0.0
H1269 H 0.49332 1.00345 0.95431 0.0
C1270 C 0.47689 0.99599 0.01805 0.0
C1271 C 0.4695 0.9963 0.05176 0.0
C1272 C 0.49789 0.02082 1.00401 0.0
C1273 C 0.48442 0.0211 0.07109 0.0
C1274 C 0.50584 0.04504 0.05757 0.0
C1275 C 0.53265 0.07081 0.01009 0.0
C1276 C 0.53714 0.07319 0.97605 0.0
C1277 C 0.51249 0.04549 0.02402 0.0
C1278 C 0.52323 0.04797 0.95652 0.0
C1279 C 0.50408 0.02205 0.97027 0.0
H1280 H 0.46788 0.55909 0.01333 0.0
H1281 H 0.43879 0.4868 0.94142 0.0
H1282 H 0.47483 0.445 0.96695 0.0
H1283 H 0.51193 0.42742 0.01266 0.0
H1284 H 0.53996 0.50004 0.08476 0.0
H1285 H 0.50807 0.5429 0.05626 0.0
C1286 C 0.47012 0.53446 1.00276 0.0
C1287 C 0.45094 0.52638 0.97508 0.0
C1288 C 0.49083 0.51031 0.01785 0.0
C1289 C 0.45348 0.49388 0.96244 0.0
C1290 C 0.47406 0.46987 0.97715 0.0
C1291 C 0.51165 0.4528 0.02164 0.0
C1292 C 0.5287 0.46045 0.05078 0.0
C1293 C 0.49256 0.47753 0.00523 0.0
C1294 C 0.52737 0.49344 0.06234 0.0
C1295 C 0.50892 0.51801 0.0461 0.0
H1296 H 0.02677 0.99505 0.44575 0.0
H1297 H 0.11874 0.01711 0.49567 0.0
H1298 H 0.08963 0.05674 0.53071 0.0
H1299 H 0.03829 0.08724 0.54628 0.0
H1300 H 0.94717 0.06822 0.49409 0.0
H1301 H 0.97518 0.02539 0.46169 0.0
C1302 C 0.0404 1.0082 0.46456 0.0
C1303 C 0.07516 1.00281 0.46781 0.0
C1304 C 0.02344 0.0316 0.48456 0.0
C1305 C 0.09222 0.02071 0.49216 0.0
C1306 C 0.07549 0.04343 0.51239 0.0
C1307 C 0.02444 0.07332 0.52815 0.0
C1308 C 0.99017 0.08024 0.52369 0.0
C1309 C 0.04115 0.04937 0.50869 0.0
C1310 C 0.97301 0.06257 0.49929 0.0
C1311 C 0.98926 0.03831 0.48032 0.0
H1312 H 0.5436 0.01553 0.44472 0.0
H1313 H 0.53274 0.10662 0.49955 0.0
H1314 H 0.49224 0.07977 0.53501 0.0
H1315 H 0.45804 0.03078 0.55033 0.0
H1316 H 0.46932 0.9392 0.49713 0.0
H1317 H 0.51142 0.96543 0.46196 0.0
C1318 C 0.53279 0.02951 0.46464 0.0
C1319 C 0.5414 0.06358 0.46871 0.0
C1320 C 0.50931 1.01366 0.48553 0.0
C1321 C 0.52647 0.08085 0.49483 0.0
C1322 C 0.50327 0.06536 0.51549 0.0
C1323 C 0.46994 0.01652 0.53117 0.0
C1324 C 0.4605 0.98295 0.52646 0.0
C1325 C 0.49418 0.03189 0.51096 0.0
C1326 C 0.47616 0.96493 0.50144 0.0
C1327 C 0.50021 0.98004 0.48124 0.0
H1328 H 0.49185 0.47158 0.55742 0.0
H1329 H 0.58474 0.47995 0.50535 0.0
H1330 H 0.56141 0.52446 0.47182 0.0
H1331 H 0.51404 0.55936 0.45512 0.0
H1332 H 0.41942 0.5492 0.50418 0.0
H1333 H 0.44407 0.50823 0.54123 0.0
C1334 C 0.50711 0.48355 0.53905 0.0
C1335 C 0.54056 0.47288 0.53477 0.0
C1336 C 0.49311 0.50898 0.51912 0.0
C1337 C 0.55952 0.48822 0.51017 0.0
C1338 C 0.54598 0.51355 0.49067 0.0
C1339 C 0.49852 0.54826 0.4738 0.0
C1340 C 0.46444 0.55763 0.47621 0.0
C1341 C 0.51272 0.52395 0.49464 0.0
C1342 C 0.44558 0.54314 0.50148 0.0
C1343 C 0.45968 0.51928 0.52261 0.0
H1344 H 0.9969 0.48754 0.44806 0.0
H1345 H 1.01431 0.39875 0.50436 0.0
H1346 H 0.05133 0.42979 0.54077 0.0
H1347 H 0.08039 0.48212 0.55617 0.0
H1348 H 0.0673 0.56946 0.49677 0.0
H1349 H 0.02714 0.53959 0.4627 0.0
C1350 C 1.00854 0.47507 0.4685 0.0
C1351 C 1.00245 0.44071 0.47344 0.0
C1352 C 0.03067 0.49303 0.48904 0.0
C1353 C 0.0184 0.42501 0.49981 0.0
C1354 C 0.03963 0.44283 0.52072 0.0
C1355 C 0.06848 0.4947 0.53594 0.0
C1356 C 0.07615 0.52856 0.52995 0.0
C1357 C 0.0462 0.47683 0.51553 0.0
C1358 C 0.06104 0.544 0.50297 0.0
C1359 C 0.03827 0.52671 0.48315 0.0
loop_
_geom_bond_atom_site_label_1
_geom_bond_atom_site_label_2
_geom_bond_distance
_geom_bond_site_symmetry_2
_ccdc_geom_bond_type
C0 C1 1.443 . S
C0 N4 1.376 . S
C0 C38 1.389 . S
C1 C0 1.443 . S
C1 C2 1.340 . S
C1 H41 0.951 . S
C2 C1 1.340 . S
C2 C3 1.439 . S
C2 H42 0.950 . S
C3 C2 1.439 . S
C3 N4 1.374 . S
C3 C37 1.395 . S
N4 C0 1.376 . S
N4 C3 1.374 . S
N4 Co5 2.008 . S
Co5 N4 2.008 . S
Co5 N6 1.995 . S
Co5 N11 2.008 . S
Co5 N16 1.995 . S
Co5 N21 2.282 . S
Co5 N27 2.282 . S
N6 Co5 1.995 . S
N6 C7 1.376 . S
N6 C10 1.383 . S
C7 N6 1.376 . S
C7 C8 1.446 . S
C7 C37 1.391 . S
C8 C7 1.446 . S
C8 C9 1.339 . S
C8 H43 0.949 . S
C9 C8 1.339 . S
C9 C10 1.439 . S
C9 H44 0.950 . S
C10 N6 1.383 . S
C10 C9 1.439 . S
C10 C39 1.392 . S
N11 Co5 2.008 . S
N11 C12 1.376 . S
N11 C15 1.374 . S
C12 N11 1.376 . S
C12 C13 1.443 . S
C12 C39 1.389 . S
C13 C12 1.443 . S
C13 C14 1.340 . S
C13 H45 0.951 . S
C14 C13 1.340 . S
C14 C15 1.439 . S
C14 H46 0.950 . S
C15 N11 1.374 . S
C15 C14 1.439 . S
C15 C40 1.395 . S
N16 Co5 1.995 . S
N16 C17 1.376 . S
N16 C20 1.383 . S
C17 N16 1.376 . S
C17 C18 1.446 . S
C17 C40 1.391 . S
C18 C17 1.446 . S
C18 C19 1.339 . S
C18 H47 0.949 . S
C19 C18 1.339 . S
C19 C20 1.439 . S
C19 H48 0.950 . S
C20 N16 1.383 . S
C20 C19 1.439 . S
C20 C38 1.392 . S
N21 Co5 2.282 . S
N21 C24 1.332 . S
N21 C26 1.332 . S
C22 C23 1.386 . S
C22 C25 1.388 . S
C23 C22 1.386 . S
C23 C24 1.382 . S
C23 H49 0.950 . S
C24 N21 1.332 . S
C24 C23 1.382 . S
C24 H35 0.952 . S
C25 C22 1.388 . S
C25 C26 1.382 . S
C25 H50 0.950 . S
C26 N21 1.332 . S
C26 C25 1.382 . S
C26 H36 0.948 . S
N27 Co5 2.282 . S
N27 C31 1.332 . S
N27 C32 1.332 . S
C28 C29 1.388 . S
C28 C32 1.382 . S
C28 H51 0.950 . S
C29 C28 1.388 . S
C29 C30 1.386 . S
C30 C29 1.386 . S
C30 C31 1.382 . S
C30 H52 0.950 . S
C31 N27 1.332 . S
C31 C30 1.382 . S
C31 H33 0.952 . S
C32 N27 1.332 . S
C32 C28 1.382 . S
C32 H34 0.948 . S
H33 C31 0.952 . S
H34 C32 0.948 . S
H35 C24 0.952 . S
H36 C26 0.948 . S
C37 C3 1.395 . S
C37 C7 1.391 . S
C38 C0 1.389 . S
C38 C20 1.392 . S
C39 C10 1.392 . S
C39 C12 1.389 . S
C40 C15 1.395 . S
C40 C17 1.391 . S
H41 C1 0.951 . S
H42 C2 0.950 . S
H43 C8 0.949 . S
H44 C9 0.950 . S
H45 C13 0.951 . S
H46 C14 0.950 . S
H47 C18 0.949 . S
H48 C19 0.950 . S
H49 C23 0.950 . S
H50 C25 0.950 . S
H51 C28 0.950 . S
H52 C30 0.950 . S
C53 C54 1.443 . S
C53 N57 1.376 . S
C53 C91 1.389 . S
C54 C53 1.443 . S
C54 C55 1.340 . S
C54 H94 0.951 . S
C55 C54 1.340 . S
C55 C56 1.439 . S
C55 H95 0.950 . S
C56 C55 1.439 . S
C56 N57 1.374 . S
C56 C90 1.395 . S
N57 C53 1.376 . S
N57 C56 1.374 . S
N57 Co58 2.008 . S
Co58 N57 2.008 . S
Co58 N59 1.995 . S
Co58 N64 2.008 . S
Co58 N69 1.995 . S
Co58 N74 2.282 . S
Co58 N80 2.282 . S
N59 Co58 1.995 . S
N59 C60 1.376 . S
N59 C63 1.383 . S
C60 N59 1.376 . S
C60 C61 1.446 . S
C60 C90 1.391 . S
C61 C60 1.446 . S
C61 C62 1.339 . S
C61 H96 0.949 1_655 S
C62 C61 1.339 . S
C62 C63 1.439 . S
C62 H97 0.950 1_655 S
C63 N59 1.383 . S
C63 C62 1.439 . S
C63 C92 1.392 . S
N64 Co58 2.008 . S
N64 C65 1.376 . S
N64 C68 1.374 . S
C65 N64 1.376 . S
C65 C66 1.443 . S
C65 C92 1.389 . S
C66 C65 1.443 . S
C66 C67 1.340 . S
C66 H98 0.951 . S
C67 C66 1.340 . S
C67 C68 1.439 . S
C67 H99 0.950 . S
C68 N64 1.374 . S
C68 C67 1.439 . S
C68 C93 1.395 . S
N69 Co58 1.995 . S
N69 C70 1.376 . S
N69 C73 1.383 . S
C70 N69 1.376 . S
C70 C71 1.446 . S
C70 C93 1.391 . S
C71 C70 1.446 . S
C71 C72 1.339 . S
C71 H100 0.949 . S
C72 C71 1.339 . S
C72 C73 1.439 . S
C72 H101 0.950 . S
C73 N69 1.383 . S
C73 C72 1.439 . S
C73 C91 1.392 . S
N74 Co58 2.282 . S
N74 C77 1.332 . S
N74 C79 1.332 . S
C75 C76 1.386 . S
C75 C78 1.388 . S
C76 C75 1.386 . S
C76 C77 1.382 . S
C76 H102 0.950 . S
C77 N74 1.332 . S
C77 C76 1.382 . S
C77 H88 0.952 . S
C78 C75 1.388 . S
C78 C79 1.382 . S
C78 H103 0.950 1_655 S
C79 N74 1.332 . S
C79 C78 1.382 . S
C79 H89 0.948 . S
N80 Co58 2.282 . S
N80 C84 1.332 . S
N80 C85 1.332 . S
C81 C82 1.388 . S
C81 C85 1.382 . S
C81 H104 0.950 . S
C82 C81 1.388 . S
C82 C83 1.386 . S
C83 C82 1.386 . S
C83 C84 1.382 . S
C83 H105 0.950 . S
C84 N80 1.332 . S
C84 C83 1.382 . S
C84 H86 0.952 . S
C85 N80 1.332 . S
C85 C81 1.382 . S
C85 H87 0.948 . S
H86 C84 0.952 . S
H87 C85 0.948 . S
H88 C77 0.952 . S
H89 C79 0.948 . S
C90 C56 1.395 . S
C90 C60 1.391 . S
C91 C53 1.389 . S
C91 C73 1.392 . S
C92 C63 1.392 . S
C92 C65 1.389 . S
C93 C68 1.395 . S
C93 C70 1.391 . S
H94 C54 0.951 . S
H95 C55 0.950 . S
H96 C61 0.949 1_455 S
H97 C62 0.950 1_455 S
H98 C66 0.951 . S
H99 C67 0.950 . S
H100 C71 0.949 . S
H101 C72 0.950 . S
H102 C76 0.950 . S
H103 C78 0.950 1_455 S
H104 C81 0.950 . S
H105 C83 0.950 . S
C106 C107 1.443 . S
C106 N110 1.376 . S
C106 C144 1.389 . S
C107 C106 1.443 . S
C107 C108 1.340 . S
C107 H147 0.951 . S
C108 C107 1.340 . S
C108 C109 1.439 . S
C108 H148 0.950 . S
C109 C108 1.439 . S
C109 N110 1.374 . S
C109 C143 1.395 . S
N110 C106 1.376 . S
N110 C109 1.374 . S
N110 Co111 2.008 . S
Co111 N110 2.008 . S
Co111 N112 1.995 . S
Co111 N117 2.008 . S
Co111 N122 1.995 . S
Co111 N127 2.282 . S
Co111 N133 2.282 . S
N112 Co111 1.995 . S
N112 C113 1.376 . S
N112 C116 1.383 . S
C113 N112 1.376 . S
C113 C114 1.446 . S
C113 C143 1.391 . S
C114 C113 1.446 . S
C114 C115 1.339 . S
C114 H149 0.949 1_565 S
C115 C114 1.339 . S
C115 C116 1.439 . S
C115 H150 0.950 1_565 S
C116 N112 1.383 . S
C116 C115 1.439 . S
C116 C145 1.392 . S
N117 Co111 2.008 . S
N117 C118 1.376 . S
N117 C121 1.374 . S
C118 N117 1.376 . S
C118 C119 1.443 . S
C118 C145 1.389 . S
C119 C118 1.443 . S
C119 C120 1.340 . S
C119 H151 0.951 . S
C120 C119 1.340 . S
C120 C121 1.439 . S
C120 H152 0.950 . S
C121 N117 1.374 . S
C121 C120 1.439 . S
C121 C146 1.395 . S
N122 Co111 1.995 . S
N122 C123 1.376 . S
N122 C126 1.383 . S
C123 N122 1.376 . S
C123 C124 1.446 . S
C123 C146 1.391 . S
C124 C123 1.446 . S
C124 C125 1.339 . S
C124 H153 0.949 . S
C125 C124 1.339 . S
C125 C126 1.439 . S
C125 H154 0.950 . S
C126 N122 1.383 . S
C126 C125 1.439 . S
C126 C144 1.392 . S
N127 Co111 2.282 . S
N127 C130 1.332 . S
N127 C132 1.332 . S
C128 C129 1.386 . S
C128 C131 1.388 . S
C129 C128 1.386 . S
C129 C130 1.382 . S
C129 H155 0.950 . S
C130 N127 1.332 . S
C130 C129 1.382 . S
C130 H141 0.952 . S
C131 C128 1.388 . S
C131 C132 1.382 . S
C131 H156 0.950 1_565 S
C132 N127 1.332 . S
C132 C131 1.382 . S
C132 H142 0.948 . S
N133 Co111 2.282 . S
N133 C137 1.332 . S
N133 C138 1.332 . S
C134 C135 1.388 . S
C134 C138 1.382 . S
C134 H157 0.950 . S
C135 C134 1.388 . S
C135 C136 1.386 . S
C136 C135 1.386 . S
C136 C137 1.382 . S
C136 H158 0.950 . S
C137 N133 1.332 . S
C137 C136 1.382 . S
C137 H139 0.952 . S
C138 N133 1.332 . S
C138 C134 1.382 . S
C138 H140 0.948 . S
H139 C137 0.952 . S
H140 C138 0.948 . S
H141 C130 0.952 . S
H142 C132 0.948 . S
C143 C109 1.395 . S
C143 C113 1.391 . S
C144 C106 1.389 . S
C144 C126 1.392 . S
C145 C116 1.392 . S
C145 C118 1.389 . S
C146 C121 1.395 . S
C146 C123 1.391 . S
H147 C107 0.951 . S
H148 C108 0.950 . S
H149 C114 0.949 1_545 S
H150 C115 0.950 1_545 S
H151 C119 0.951 . S
H152 C120 0.950 . S
H153 C124 0.949 . S
H154 C125 0.950 . S
H155 C129 0.950 . S
H156 C131 0.950 1_545 S
H157 C134 0.950 . S
H158 C136 0.950 . S
C159 C160 1.443 . S
C159 N163 1.376 . S
C159 C197 1.389 . S
C160 C159 1.443 . S
C160 C161 1.340 . S
C160 H200 0.951 . S
C161 C160 1.340 . S
C161 C162 1.439 . S
C161 H201 0.950 . S
C162 C161 1.439 . S
C162 N163 1.374 . S
C162 C196 1.395 . S
N163 C159 1.376 . S
N163 C162 1.374 . S
N163 Co164 2.008 . S
Co164 N163 2.008 . S
Co164 N165 1.995 . S
Co164 N170 2.008 . S
Co164 N175 1.995 . S
Co164 N180 2.282 . S
Co164 N186 2.282 . S
N165 Co164 1.995 . S
N165 C166 1.376 . S
N165 C169 1.383 . S
C166 N165 1.376 . S
C166 C167 1.446 . S
C166 C196 1.391 . S
C167 C166 1.446 . S
C167 C168 1.339 . S
C167 H202 0.949 . S
C168 C167 1.339 . S
C168 C169 1.439 . S
C168 H203 0.950 . S
C169 N165 1.383 . S
C169 C168 1.439 . S
C169 C198 1.392 . S
N170 Co164 2.008 . S
N170 C171 1.376 . S
N170 C174 1.374 . S
C171 N170 1.376 . S
C171 C172 1.443 . S
C171 C198 1.389 . S
C172 C171 1.443 . S
C172 C173 1.340 . S
C172 H204 0.951 . S
C173 C172 1.340 . S
C173 C174 1.439 . S
C173 H205 0.950 . S
C174 N170 1.374 . S
C174 C173 1.439 . S
C174 C199 1.395 . S
N175 Co164 1.995 . S
N175 C176 1.376 . S
N175 C179 1.383 . S
C176 N175 1.376 . S
C176 C177 1.446 . S
C176 C199 1.391 . S
C177 C176 1.446 . S
C177 C178 1.339 . S
C177 H206 0.949 . S
C178 C177 1.339 . S
C178 C179 1.439 . S
C178 H207 0.950 . S
C179 N175 1.383 . S
C179 C178 1.439 . S
C179 C197 1.392 . S
N180 Co164 2.282 . S
N180 C183 1.332 . S
N180 C185 1.332 . S
C181 C182 1.386 . S
C181 C184 1.388 . S
C182 C181 1.386 . S
C182 C183 1.382 . S
C182 H208 0.950 . S
C183 N180 1.332 . S
C183 C182 1.382 . S
C183 H194 0.952 . S
C184 C181 1.388 . S
C184 C185 1.382 . S
C184 H209 0.950 . S
C185 N180 1.332 . S
C185 C184 1.382 . S
C185 H195 0.948 . S
N186 Co164 2.282 . S
N186 C190 1.332 . S
N186 C191 1.332 . S
C187 C188 1.388 . S
C187 C191 1.382 . S
C187 H210 0.950 . S
C188 C187 1.388 . S
C188 C189 1.386 . S
C189 C188 1.386 . S
C189 C190 1.382 . S
C189 H211 0.950 . S
C190 N186 1.332 . S
C190 C189 1.382 . S
C190 H192 0.952 . S
C191 N186 1.332 . S
C191 C187 1.382 . S
C191 H193 0.948 . S
H192 C190 0.952 . S
H193 C191 0.948 . S
H194 C183 0.952 . S
H195 C185 0.948 . S
C196 C162 1.395 . S
C196 C166 1.391 . S
C197 C159 1.389 . S
C197 C179 1.392 . S
C198 C169 1.392 . S
C198 C171 1.389 . S
C199 C174 1.395 . S
C199 C176 1.391 . S
H200 C160 0.951 . S
H201 C161 0.950 . S
H202 C167 0.949 . S
H203 C168 0.950 . S
H204 C172 0.951 . S
H205 C173 0.950 . S
H206 C177 0.949 . S
H207 C178 0.950 . S
H208 C182 0.950 . S
H209 C184 0.950 . S
H210 C187 0.950 . S
H211 C189 0.950 . S
C212 C213 1.443 . S
C212 N216 1.376 . S
C212 C250 1.389 . S
C213 C212 1.443 . S
C213 C214 1.340 . S
C213 H253 0.951 . S
C214 C213 1.340 . S
C214 C215 1.439 . S
C214 H254 0.950 . S
C215 C214 1.439 . S
C215 N216 1.374 . S
C215 C249 1.395 . S
N216 C212 1.376 . S
N216 C215 1.374 . S
N216 Co217 2.008 . S
Co217 N216 2.008 . S
Co217 N218 1.995 . S
Co217 N223 2.008 . S
Co217 N228 1.995 . S
Co217 N233 2.282 . S
Co217 N239 2.282 . S
N218 Co217 1.995 . S
N218 C219 1.376 . S
N218 C222 1.383 . S
C219 N218 1.376 . S
C219 C220 1.446 . S
C219 C249 1.391 . S
C220 C219 1.446 . S
C220 C221 1.339 . S
C220 H255 0.949 1_565 S
C221 C220 1.339 . S
C221 C222 1.439 . S
C221 H256 0.950 1_565 S
C222 N218 1.383 . S
C222 C221 1.439 . S
C222 C251 1.392 . S
N223 Co217 2.008 . S
N223 C224 1.376 . S
N223 C227 1.374 . S
C224 N223 1.376 . S
C224 C225 1.443 . S
C224 C251 1.389 . S
C225 C224 1.443 . S
C225 C226 1.340 . S
C225 H257 0.951 . S
C226 C225 1.340 . S
C226 C227 1.439 . S
C226 H258 0.950 . S
C227 N223 1.374 . S
C227 C226 1.439 . S
C227 C252 1.395 . S
N228 Co217 1.995 . S
N228 C229 1.376 . S
N228 C232 1.383 . S
C229 N228 1.376 . S
C229 C230 1.446 . S
C229 C252 1.391 . S
C230 C229 1.446 . S
C230 C231 1.339 . S
C230 H259 0.949 . S
C231 C230 1.339 . S
C231 C232 1.439 . S
C231 H260 0.950 . S
C232 N228 1.383 . S
C232 C231 1.439 . S
C232 C250 1.392 . S
N233 Co217 2.282 . S
N233 C236 1.332 . S
N233 C238 1.332 . S
C234 C235 1.386 . S
C234 C237 1.388 . S
C235 C234 1.386 . S
C235 C236 1.382 . S
C235 H261 0.950 . S
C236 N233 1.332 . S
C236 C235 1.382 . S
C236 H247 0.952 . S
C237 C234 1.388 . S
C237 C238 1.382 . S
C237 H262 0.950 1_565 S
C238 N233 1.332 . S
C238 C237 1.382 . S
C238 H248 0.948 . S
N239 Co217 2.282 . S
N239 C243 1.332 . S
N239 C244 1.332 . S
C240 C241 1.388 . S
C240 C244 1.382 . S
C240 H263 0.950 . S
C241 C240 1.388 . S
C241 C242 1.386 . S
C242 C241 1.386 . S
C242 C243 1.382 . S
C242 H264 0.950 . S
C243 N239 1.332 . S
C243 C242 1.382 . S
C243 H245 0.952 . S
C244 N239 1.332 . S
C244 C240 1.382 . S
C244 H246 0.948 . S
H245 C243 0.952 . S
H246 C244 0.948 . S
H247 C236 0.952 . S
H248 C238 0.948 . S
C249 C215 1.395 . S
C249 C219 1.391 . S
C250 C212 1.389 . S
C250 C232 1.392 . S
C251 C222 1.392 . S
C251 C224 1.389 . S
C252 C227 1.395 . S
C252 C229 1.391 . S
H253 C213 0.951 . S
H254 C214 0.950 . S
H255 C220 0.949 1_545 S
H256 C221 0.950 1_545 S
H257 C225 0.951 . S
H258 C226 0.950 . S
H259 C230 0.949 . S
H260 C231 0.950 . S
H261 C235 0.950 . S
H262 C237 0.950 1_545 S
H263 C240 0.950 . S
H264 C242 0.950 . S
C265 C266 1.443 . S
C265 N269 1.376 . S
C265 C303 1.389 . S
C266 C265 1.443 . S
C266 C267 1.340 . S
C266 H306 0.951 . S
C267 C266 1.340 . S
C267 C268 1.439 . S
C267 H307 0.950 . S
C268 C267 1.439 . S
C268 N269 1.374 . S
C268 C302 1.395 . S
N269 C265 1.376 . S
N269 C268 1.374 . S
N269 Co270 2.008 . S
Co270 N269 2.008 . S
Co270 N271 1.995 . S
Co270 N276 2.008 . S
Co270 N281 1.995 . S
Co270 N286 2.282 . S
Co270 N292 2.282 . S
N271 Co270 1.995 . S
N271 C272 1.376 . S
N271 C275 1.383 . S
C272 N271 1.376 . S
C272 C273 1.446 . S
C272 C302 1.391 . S
C273 C272 1.446 . S
C273 C274 1.339 . S
C273 H308 0.949 . S
C274 C273 1.339 . S
C274 C275 1.439 . S
C274 H309 0.950 . S
C275 N271 1.383 . S
C275 C274 1.439 . S
C275 C304 1.392 . S
N276 Co270 2.008 . S
N276 C277 1.376 . S
N276 C280 1.374 . S
C277 N276 1.376 . S
C277 C278 1.443 . S
C277 C304 1.389 . S
C278 C277 1.443 . S
C278 C279 1.340 . S
C278 H310 0.951 . S
C279 C278 1.340 . S
C279 C280 1.439 . S
C279 H311 0.950 . S
C280 N276 1.374 . S
C280 C279 1.439 . S
C280 C305 1.395 . S
N281 Co270 1.995 . S
N281 C282 1.376 . S
N281 C285 1.383 . S
C282 N281 1.376 . S
C282 C283 1.446 . S
C282 C305 1.391 . S
C283 C282 1.446 . S
C283 C284 1.339 . S
C283 H312 0.949 . S
C284 C283 1.339 . S
C284 C285 1.439 . S
C284 H313 0.950 . S
C285 N281 1.383 . S
C285 C284 1.439 . S
C285 C303 1.392 . S
N286 Co270 2.282 . S
N286 C289 1.332 . S
N286 C291 1.332 . S
C287 C288 1.386 . S
C287 C290 1.388 . S
C288 C287 1.386 . S
C288 C289 1.382 . S
C288 H314 0.950 . S
C289 N286 1.332 . S
C289 C288 1.382 . S
C289 H300 0.952 . S
C290 C287 1.388 . S
C290 C291 1.382 . S
C290 H315 0.950 . S
C291 N286 1.332 . S
C291 C290 1.382 . S
C291 H301 0.948 . S
N292 Co270 2.282 . S
N292 C296 1.332 . S
N292 C297 1.332 . S
C293 C294 1.388 . S
C293 C297 1.382 . S
C293 H316 0.950 . S
C294 C293 1.388 . S
C294 C295 1.386 . S
C295 C294 1.386 . S
C295 C296 1.382 . S
C295 H317 0.950 . S
C296 N292 1.332 . S
C296 C295 1.382 . S
C296 H298 0.952 . S
C297 N292 1.332 . S
C297 C293 1.382 . S
C297 H299 0.948 . S
H298 C296 0.952 . S
H299 C297 0.948 . S
H300 C289 0.952 . S
H301 C291 0.948 . S
C302 C268 1.395 . S
C302 C272 1.391 . S
C303 C265 1.389 . S
C303 C285 1.392 . S
C304 C275 1.392 . S
C304 C277 1.389 . S
C305 C280 1.395 . S
C305 C282 1.391 . S
H306 C266 0.951 . S
H307 C267 0.950 . S
H308 C273 0.949 . S
H309 C274 0.950 . S
H310 C278 0.951 . S
H311 C279 0.950 . S
H312 C283 0.949 . S
H313 C284 0.950 . S
H314 C288 0.950 . S
H315 C290 0.950 . S
H316 C293 0.950 . S
H317 C295 0.950 . S
C318 C319 1.443 . S
C318 N322 1.376 . S
C318 C356 1.389 . S
C319 C318 1.443 . S
C319 C320 1.340 . S
C319 H359 0.951 . S
C320 C319 1.340 . S
C320 C321 1.439 . S
C320 H360 0.950 . S
C321 C320 1.439 . S
C321 N322 1.374 . S
C321 C355 1.395 . S
N322 C318 1.376 . S
N322 C321 1.374 . S
N322 Co323 2.008 . S
Co323 N322 2.008 . S
Co323 N324 1.995 . S
Co323 N329 2.008 . S
Co323 N334 1.995 . S
Co323 N339 2.282 . S
Co323 N345 2.282 . S
N324 Co323 1.995 . S
N324 C325 1.376 . S
N324 C328 1.383 . S
C325 N324 1.376 . S
C325 C326 1.446 . S
C325 C355 1.391 . S
C326 C325 1.446 . S
C326 C327 1.339 . S
C326 H361 0.949 . S
C327 C326 1.339 . S
C327 C328 1.439 . S
C327 H362 0.950 . S
C328 N324 1.383 . S
C328 C327 1.439 . S
C328 C357 1.392 . S
N329 Co323 2.008 . S
N329 C330 1.376 . S
N329 C333 1.374 . S
C330 N329 1.376 . S
C330 C331 1.443 . S
C330 C357 1.389 . S
C331 C330 1.443 . S
C331 C332 1.340 . S
C331 H363 0.951 . S
C332 C331 1.340 . S
C332 C333 1.439 . S
C332 H364 0.950 . S
C333 N329 1.374 . S
C333 C332 1.439 . S
C333 C358 1.395 . S
N334 Co323 1.995 . S
N334 C335 1.376 . S
N334 C338 1.383 . S
C335 N334 1.376 . S
C335 C336 1.446 . S
C335 C358 1.391 . S
C336 C335 1.446 . S
C336 C337 1.339 . S
C336 H365 0.949 . S
C337 C336 1.339 . S
C337 C338 1.439 . S
C337 H366 0.950 . S
C338 N334 1.383 . S
C338 C337 1.439 . S
C338 C356 1.392 . S
N339 Co323 2.282 . S
N339 C342 1.332 . S
N339 C344 1.332 . S
C340 C341 1.386 . S
C340 C343 1.388 . S
C341 C340 1.386 . S
C341 C342 1.382 . S
C341 H367 0.950 . S
C342 N339 1.332 . S
C342 C341 1.382 . S
C342 H353 0.952 . S
C343 C340 1.388 . S
C343 C344 1.382 . S
C343 H368 0.950 . S
C344 N339 1.332 . S
C344 C343 1.382 . S
C344 H354 0.948 . S
N345 Co323 2.282 . S
N345 C349 1.332 . S
N345 C350 1.332 . S
C346 C347 1.388 . S
C346 C350 1.382 . S
C346 H369 0.950 . S
C347 C346 1.388 . S
C347 C348 1.386 . S
C348 C347 1.386 . S
C348 C349 1.382 . S
C348 H370 0.950 . S
C349 N345 1.332 . S
C349 C348 1.382 . S
C349 H351 0.952 . S
C350 N345 1.332 . S
C350 C346 1.382 . S
C350 H352 0.948 . S
H351 C349 0.952 . S
H352 C350 0.948 . S
H353 C342 0.952 . S
H354 C344 0.948 . S
C355 C321 1.395 . S
C355 C325 1.391 . S
C356 C318 1.389 . S
C356 C338 1.392 . S
C357 C328 1.392 . S
C357 C330 1.389 . S
C358 C333 1.395 . S
C358 C335 1.391 . S
H359 C319 0.951 . S
H360 C320 0.950 . S
H361 C326 0.949 . S
H362 C327 0.950 . S
H363 C331 0.951 . S
H364 C332 0.950 . S
H365 C336 0.949 . S
H366 C337 0.950 . S
H367 C341 0.950 . S
H368 C343 0.950 . S
H369 C346 0.950 . S
H370 C348 0.950 . S
C371 C372 1.443 . S
C371 N375 1.376 . S
C371 C409 1.389 . S
C372 C371 1.443 . S
C372 C373 1.340 . S
C372 H412 0.951 . S
C373 C372 1.340 . S
C373 C374 1.439 . S
C373 H413 0.950 . S
C374 C373 1.439 . S
C374 N375 1.374 . S
C374 C408 1.395 . S
N375 C371 1.376 . S
N375 C374 1.374 . S
N375 Co376 2.008 . S
Co376 N375 2.008 . S
Co376 N377 1.995 . S
Co376 N382 2.008 . S
Co376 N387 1.995 . S
Co376 N392 2.282 . S
Co376 N398 2.282 . S
N377 Co376 1.995 . S
N377 C378 1.376 . S
N377 C381 1.383 . S
C378 N377 1.376 . S
C378 C379 1.446 . S
C378 C408 1.391 . S
C379 C378 1.446 . S
C379 C380 1.339 . S
C379 H414 0.949 1_655 S
C380 C379 1.339 . S
C380 C381 1.439 . S
C380 H415 0.950 1_655 S
C381 N377 1.383 . S
C381 C380 1.439 . S
C381 C410 1.392 . S
N382 Co376 2.008 . S
N382 C383 1.376 . S
N382 C386 1.374 . S
C383 N382 1.376 . S
C383 C384 1.443 . S
C383 C410 1.389 . S
C384 C383 1.443 . S
C384 C385 1.340 . S
C384 H416 0.951 . S
C385 C384 1.340 . S
C385 C386 1.439 . S
C385 H417 0.950 . S
C386 N382 1.374 . S
C386 C385 1.439 . S
C386 C411 1.395 . S
N387 Co376 1.995 . S
N387 C388 1.376 . S
N387 C391 1.383 . S
C388 N387 1.376 . S
C388 C389 1.446 . S
C388 C411 1.391 . S
C389 C388 1.446 . S
C389 C390 1.339 . S
C389 H418 0.949 . S
C390 C389 1.339 . S
C390 C391 1.439 . S
C390 H419 0.950 . S
C391 N387 1.383 . S
C391 C390 1.439 . S
C391 C409 1.392 . S
N392 Co376 2.282 . S
N392 C395 1.332 . S
N392 C397 1.332 . S
C393 C394 1.386 . S
C393 C396 1.388 . S
C394 C393 1.386 . S
C394 C395 1.382 . S
C394 H420 0.950 . S
C395 N392 1.332 . S
C395 C394 1.382 . S
C395 H406 0.952 . S
C396 C393 1.388 . S
C396 C397 1.382 . S
C396 H421 0.950 1_655 S
C397 N392 1.332 . S
C397 C396 1.382 . S
C397 H407 0.948 . S
N398 Co376 2.282 . S
N398 C402 1.332 . S
N398 C403 1.332 . S
C399 C400 1.388 . S
C399 C403 1.382 . S
C399 H422 0.950 . S
C400 C399 1.388 . S
C400 C401 1.386 . S
C401 C400 1.386 . S
C401 C402 1.382 . S
C401 H423 0.950 . S
C402 N398 1.332 . S
C402 C401 1.382 . S
C402 H404 0.952 . S
C403 N398 1.332 . S
C403 C399 1.382 . S
C403 H405 0.948 . S
H404 C402 0.952 . S
H405 C403 0.948 . S
H406 C395 0.952 . S
H407 C397 0.948 . S
C408 C374 1.395 . S
C408 C378 1.391 . S
C409 C371 1.389 . S
C409 C391 1.392 . S
C410 C381 1.392 . S
C410 C383 1.389 . S
C411 C386 1.395 . S
C411 C388 1.391 . S
H412 C372 0.951 . S
H413 C373 0.950 . S
H414 C379 0.949 1_455 S
H415 C380 0.950 1_455 S
H416 C384 0.951 . S
H417 C385 0.950 . S
H418 C389 0.949 . S
H419 C390 0.950 . S
H420 C394 0.950 . S
H421 C396 0.950 1_455 S
H422 C399 0.950 . S
H423 C401 0.950 . S
C424 C425 1.443 . S
C424 N428 1.376 . S
C424 C462 1.389 . S
C425 C424 1.443 . S
C425 C426 1.340 . S
C425 H465 0.951 . S
C426 C425 1.340 . S
C426 C427 1.439 . S
C426 H466 0.950 . S
C427 C426 1.439 . S
C427 N428 1.374 . S
C427 C461 1.395 . S
N428 C424 1.376 . S
N428 C427 1.374 . S
N428 Co429 2.008 . S
Co429 N428 2.008 . S
Co429 N430 1.995 . S
Co429 N435 2.008 . S
Co429 N440 1.995 . S
Co429 N445 2.282 . S
Co429 N451 2.282 . S
N430 Co429 1.995 . S
N430 C431 1.376 . S
N430 C434 1.383 . S
C431 N430 1.376 . S
C431 C432 1.446 . S
C431 C461 1.391 . S
C432 C431 1.446 . S
C432 C433 1.339 . S
C432 H467 0.949 . S
C433 C432 1.339 . S
C433 C434 1.439 . S
C433 H468 0.950 . S
C434 N430 1.383 . S
C434 C433 1.439 . S
C434 C463 1.392 . S
N435 Co429 2.008 . S
N435 C436 1.376 . S
N435 C439 1.374 . S
C436 N435 1.376 . S
C436 C437 1.443 . S
C436 C463 1.389 . S
C437 C436 1.443 . S
C437 C438 1.340 . S
C437 H469 0.951 . S
C438 C437 1.340 . S
C438 C439 1.439 . S
C438 H470 0.950 1_655 S
C439 N435 1.374 . S
C439 C438 1.439 . S
C439 C464 1.395 . S
N440 Co429 1.995 . S
N440 C441 1.376 . S
N440 C444 1.383 . S
C441 N440 1.376 . S
C441 C442 1.446 . S
C441 C464 1.391 . S
C442 C441 1.446 . S
C442 C443 1.339 . S
C442 H471 0.949 . S
C443 C442 1.339 . S
C443 C444 1.439 . S
C443 H472 0.950 . S
C444 N440 1.383 . S
C444 C443 1.439 . S
C444 C462 1.392 . S
N445 Co429 2.282 . S
N445 C448 1.332 . S
N445 C450 1.332 . S
C446 C447 1.386 . S
C446 C449 1.388 . S
C447 C446 1.386 . S
C447 C448 1.382 . S
C447 H473 0.950 1_655 S
C448 N445 1.332 . S
C448 C447 1.382 . S
C448 H459 0.952 . S
C449 C446 1.388 . S
C449 C450 1.382 . S
C449 H474 0.950 . S
C450 N445 1.332 . S
C450 C449 1.382 . S
C450 H460 0.948 . S
N451 Co429 2.282 . S
N451 C455 1.332 . S
N451 C456 1.332 . S
C452 C453 1.388 . S
C452 C456 1.382 . S
C452 H475 0.950 . S
C453 C452 1.388 . S
C453 C454 1.386 . S
C454 C453 1.386 . S
C454 C455 1.382 . S
C454 H476 0.950 . S
C455 N451 1.332 . S
C455 C454 1.382 . S
C455 H457 0.952 . S
C456 N451 1.332 . S
C456 C452 1.382 . S
C456 H458 0.948 . S
H457 C455 0.952 . S
H458 C456 0.948 . S
H459 C448 0.952 . S
H460 C450 0.948 . S
C461 C427 1.395 . S
C461 C431 1.391 . S
C462 C424 1.389 . S
C462 C444 1.392 . S
C463 C434 1.392 . S
C463 C436 1.389 . S
C464 C439 1.395 . S
C464 C441 1.391 . S
H465 C425 0.951 . S
H466 C426 0.950 . S
H467 C432 0.949 . S
H468 C433 0.950 . S
H469 C437 0.951 . S
H470 C438 0.950 1_455 S
H471 C442 0.949 . S
H472 C443 0.950 . S
H473 C447 0.950 1_455 S
H474 C449 0.950 . S
H475 C452 0.950 . S
H476 C454 0.950 . S
C477 C478 1.443 . S
C477 N481 1.376 . S
C477 C515 1.389 . S
C478 C477 1.443 . S
C478 C479 1.340 . S
C478 H518 0.951 . S
C479 C478 1.340 . S
C479 C480 1.439 . S
C479 H519 0.950 . S
C480 C479 1.439 . S
C480 N481 1.374 . S
C480 C514 1.395 . S
N481 C477 1.376 . S
N481 C480 1.374 . S
N481 Co482 2.008 . S
Co482 N481 2.008 . S
Co482 N483 1.995 . S
Co482 N488 2.008 . S
Co482 N493 1.995 . S
Co482 N498 2.282 . S
Co482 N504 2.282 . S
N483 Co482 1.995 . S
N483 C484 1.376 . S
N483 C487 1.383 . S
C484 N483 1.376 . S
C484 C485 1.446 . S
C484 C514 1.391 . S
C485 C484 1.446 . S
C485 C486 1.339 . S
C485 H520 0.949 . S
C486 C485 1.339 . S
C486 C487 1.439 . S
C486 H521 0.950 . S
C487 N483 1.383 . S
C487 C486 1.439 . S
C487 C516 1.392 . S
N488 Co482 2.008 . S
N488 C489 1.376 . S
N488 C492 1.374 . S
C489 N488 1.376 . S
C489 C490 1.443 . S
C489 C516 1.389 . S
C490 C489 1.443 . S
C490 C491 1.340 . S
C490 H522 0.951 . S
C491 C490 1.340 . S
C491 C492 1.439 . S
C491 H523 0.950 1_565 S
C492 N488 1.374 . S
C492 C491 1.439 . S
C492 C517 1.395 . S
N493 Co482 1.995 . S
N493 C494 1.376 . S
N493 C497 1.383 . S
C494 N493 1.376 . S
C494 C495 1.446 . S
C494 C517 1.391 . S
C495 C494 1.446 . S
C495 C496 1.339 . S
C495 H524 0.949 . S
C496 C495 1.339 . S
C496 C497 1.439 . S
C496 H525 0.950 . S
C497 N493 1.383 . S
C497 C496 1.439 . S
C497 C515 1.392 . S
N498 Co482 2.282 . S
N498 C501 1.332 . S
N498 C503 1.332 . S
C499 C500 1.386 . S
C499 C502 1.388 . S
C500 C499 1.386 . S
C500 C501 1.382 . S
C500 H526 0.950 1_565 S
C501 N498 1.332 . S
C501 C500 1.382 . S
C501 H512 0.952 . S
C502 C499 1.388 . S
C502 C503 1.382 . S
C502 H527 0.950 . S
C503 N498 1.332 . S
C503 C502 1.382 . S
C503 H513 0.948 . S
N504 Co482 2.282 . S
N504 C508 1.332 . S
N504 C509 1.332 . S
C505 C506 1.388 . S
C505 C509 1.382 . S
C505 H528 0.950 . S
C506 C505 1.388 . S
C506 C507 1.386 . S
C507 C506 1.386 . S
C507 C508 1.382 . S
C507 H529 0.950 . S
C508 N504 1.332 . S
C508 C507 1.382 . S
C508 H510 0.952 . S
C509 N504 1.332 . S
C509 C505 1.382 . S
C509 H511 0.948 . S
H510 C508 0.952 . S
H511 C509 0.948 . S
H512 C501 0.952 . S
H513 C503 0.948 . S
C514 C480 1.395 . S
C514 C484 1.391 . S
C515 C477 1.389 . S
C515 C497 1.392 . S
C516 C487 1.392 . S
C516 C489 1.389 . S
C517 C492 1.395 . S
C517 C494 1.391 . S
H518 C478 0.951 . S
H519 C479 0.950 . S
H520 C485 0.949 . S
H521 C486 0.950 . S
H522 C490 0.951 . S
H523 C491 0.950 1_545 S
H524 C495 0.949 . S
H525 C496 0.950 . S
H526 C500 0.950 1_545 S
H527 C502 0.950 . S
H528 C505 0.950 . S
H529 C507 0.950 . S
C530 C531 1.443 . S
C530 N534 1.376 . S
C530 C568 1.389 . S
C531 C530 1.443 . S
C531 C532 1.340 . S
C531 H571 0.951 . S
C532 C531 1.340 . S
C532 C533 1.439 . S
C532 H572 0.950 . S
C533 C532 1.439 . S
C533 N534 1.374 . S
C533 C567 1.395 . S
N534 C530 1.376 . S
N534 C533 1.374 . S
N534 Co535 2.008 . S
Co535 N534 2.008 . S
Co535 N536 1.995 . S
Co535 N541 2.008 . S
Co535 N546 1.995 . S
Co535 N551 2.282 . S
Co535 N557 2.282 . S
N536 Co535 1.995 . S
N536 C537 1.376 . S
N536 C540 1.383 . S
C537 N536 1.376 . S
C537 C538 1.446 . S
C537 C567 1.391 . S
C538 C537 1.446 . S
C538 C539 1.339 . S
C538 H573 0.949 . S
C539 C538 1.339 . S
C539 C540 1.439 . S
C539 H574 0.950 . S
C540 N536 1.383 . S
C540 C539 1.439 . S
C540 C569 1.392 . S
N541 Co535 2.008 . S
N541 C542 1.376 . S
N541 C545 1.374 . S
C542 N541 1.376 . S
C542 C543 1.443 . S
C542 C569 1.389 . S
C543 C542 1.443 . S
C543 C544 1.340 . S
C543 H575 0.951 . S
C544 C543 1.340 . S
C544 C545 1.439 . S
C544 H576 0.950 . S
C545 N541 1.374 . S
C545 C544 1.439 . S
C545 C570 1.395 . S
N546 Co535 1.995 . S
N546 C547 1.376 . S
N546 C550 1.383 . S
C547 N546 1.376 . S
C547 C548 1.446 . S
C547 C570 1.391 . S
C548 C547 1.446 . S
C548 C549 1.339 . S
C548 H577 0.949 . S
C549 C548 1.339 . S
C549 C550 1.439 . S
C549 H578 0.950 . S
C550 N546 1.383 . S
C550 C549 1.439 . S
C550 C568 1.392 . S
N551 Co535 2.282 . S
N551 C554 1.332 . S
N551 C556 1.332 . S
C552 C553 1.386 . S
C552 C555 1.388 . S
C553 C552 1.386 . S
C553 C554 1.382 . S
C553 H579 0.950 . S
C554 N551 1.332 . S
C554 C553 1.382 . S
C554 H565 0.952 . S
C555 C552 1.388 . S
C555 C556 1.382 . S
C555 H580 0.950 . S
C556 N551 1.332 . S
C556 C555 1.382 . S
C556 H566 0.948 . S
N557 Co535 2.282 . S
N557 C561 1.332 . S
N557 C562 1.332 . S
C558 C559 1.388 . S
C558 C562 1.382 . S
C558 H581 0.950 . S
C559 C558 1.388 . S
C559 C560 1.386 . S
C560 C559 1.386 . S
C560 C561 1.382 . S
C560 H582 0.950 . S
C561 N557 1.332 . S
C561 C560 1.382 . S
C561 H563 0.952 . S
C562 N557 1.332 . S
C562 C558 1.382 . S
C562 H564 0.948 . S
H563 C561 0.952 . S
H564 C562 0.948 . S
H565 C554 0.952 . S
H566 C556 0.948 . S
C567 C533 1.395 . S
C567 C537 1.391 . S
C568 C530 1.389 . S
C568 C550 1.392 . S
C569 C540 1.392 . S
C569 C542 1.389 . S
C570 C545 1.395 . S
C570 C547 1.391 . S
H571 C531 0.951 . S
H572 C532 0.950 . S
H573 C538 0.949 . S
H574 C539 0.950 . S
H575 C543 0.951 . S
H576 C544 0.950 . S
H577 C548 0.949 . S
H578 C549 0.950 . S
H579 C553 0.950 . S
H580 C555 0.950 . S
H581 C558 0.950 . S
H582 C560 0.950 . S
C583 C584 1.443 . S
C583 N587 1.376 . S
C583 C621 1.389 . S
C584 C583 1.443 . S
C584 C585 1.340 . S
C584 H624 0.951 . S
C585 C584 1.340 . S
C585 C586 1.439 . S
C585 H625 0.950 . S
C586 C585 1.439 . S
C586 N587 1.374 . S
C586 C620 1.395 . S
N587 C583 1.376 . S
N587 C586 1.374 . S
N587 Co588 2.008 . S
Co588 N587 2.008 . S
Co588 N589 1.995 . S
Co588 N594 2.008 . S
Co588 N599 1.995 . S
Co588 N604 2.282 . S
Co588 N610 2.282 . S
N589 Co588 1.995 . S
N589 C590 1.376 . S
N589 C593 1.383 . S
C590 N589 1.376 . S
C590 C591 1.446 . S
C590 C620 1.391 . S
C591 C590 1.446 . S
C591 C592 1.339 . S
C591 H626 0.949 . S
C592 C591 1.339 . S
C592 C593 1.439 . S
C592 H627 0.950 . S
C593 N589 1.383 . S
C593 C592 1.439 . S
C593 C622 1.392 . S
N594 Co588 2.008 . S
N594 C595 1.376 . S
N594 C598 1.374 . S
C595 N594 1.376 . S
C595 C596 1.443 . S
C595 C622 1.389 . S
C596 C595 1.443 . S
C596 C597 1.340 . S
C596 H628 0.951 . S
C597 C596 1.340 . S
C597 C598 1.439 . S
C597 H629 0.950 . S
C598 N594 1.374 . S
C598 C597 1.439 . S
C598 C623 1.395 . S
N599 Co588 1.995 . S
N599 C600 1.376 . S
N599 C603 1.383 . S
C600 N599 1.376 . S
C600 C601 1.446 . S
C600 C623 1.391 . S
C601 C600 1.446 . S
C601 C602 1.339 . S
C601 H630 0.949 . S
C602 C601 1.339 . S
C602 C603 1.439 . S
C602 H631 0.950 . S
C603 N599 1.383 . S
C603 C602 1.439 . S
C603 C621 1.392 . S
N604 Co588 2.282 . S
N604 C607 1.332 . S
N604 C609 1.332 . S
C605 C606 1.386 . S
C605 C608 1.388 . S
C606 C605 1.386 . S
C606 C607 1.382 . S
C606 H632 0.950 . S
C607 N604 1.332 . S
C607 C606 1.382 . S
C607 H618 0.952 . S
C608 C605 1.388 . S
C608 C609 1.382 . S
C608 H633 0.950 . S
C609 N604 1.332 . S
C609 C608 1.382 . S
C609 H619 0.948 . S
N610 Co588 2.282 . S
N610 C614 1.332 . S
N610 C615 1.332 . S
C611 C612 1.388 . S
C611 C615 1.382 . S
C611 H634 0.950 . S
C612 C611 1.388 . S
C612 C613 1.386 . S
C613 C612 1.386 . S
C613 C614 1.382 . S
C613 H635 0.950 . S
C614 N610 1.332 . S
C614 C613 1.382 . S
C614 H616 0.952 . S
C615 N610 1.332 . S
C615 C611 1.382 . S
C615 H617 0.948 . S
H616 C614 0.952 . S
H617 C615 0.948 . S
H618 C607 0.952 . S
H619 C609 0.948 . S
C620 C586 1.395 . S
C620 C590 1.391 . S
C621 C583 1.389 . S
C621 C603 1.392 . S
C622 C593 1.392 . S
C622 C595 1.389 . S
C623 C598 1.395 . S
C623 C600 1.391 . S
H624 C584 0.951 . S
H625 C585 0.950 . S
H626 C591 0.949 . S
H627 C592 0.950 . S
H628 C596 0.951 . S
H629 C597 0.950 . S
H630 C601 0.949 . S
H631 C602 0.950 . S
H632 C606 0.950 . S
H633 C608 0.950 . S
H634 C611 0.950 . S
H635 C613 0.950 . S
C636 C637 1.443 . S
C636 N640 1.376 . S
C636 C674 1.389 . S
C637 C636 1.443 . S
C637 C638 1.340 . S
C637 H677 0.951 . S
C638 C637 1.340 . S
C638 C639 1.439 . S
C638 H678 0.950 . S
C639 C638 1.439 . S
C639 N640 1.374 . S
C639 C673 1.395 . S
N640 C636 1.376 . S
N640 C639 1.374 . S
N640 Co641 2.008 . S
Co641 N640 2.008 . S
Co641 N642 1.995 . S
Co641 N647 2.008 . S
Co641 N652 1.995 . S
Co641 N657 2.282 . S
Co641 N663 2.282 . S
N642 Co641 1.995 . S
N642 C643 1.376 . S
N642 C646 1.383 . S
C643 N642 1.376 . S
C643 C644 1.446 . S
C643 C673 1.391 . S
C644 C643 1.446 . S
C644 C645 1.339 . S
C644 H679 0.949 . S
C645 C644 1.339 . S
C645 C646 1.439 . S
C645 H680 0.950 . S
C646 N642 1.383 . S
C646 C645 1.439 . S
C646 C675 1.392 . S
N647 Co641 2.008 . S
N647 C648 1.376 . S
N647 C651 1.374 . S
C648 N647 1.376 . S
C648 C649 1.443 . S
C648 C675 1.389 . S
C649 C648 1.443 . S
C649 C650 1.340 . S
C649 H681 0.951 . S
C650 C649 1.340 . S
C650 C651 1.439 . S
C650 H682 0.950 1_655 S
C651 N647 1.374 . S
C651 C650 1.439 . S
C651 C676 1.395 . S
N652 Co641 1.995 . S
N652 C653 1.376 . S
N652 C656 1.383 . S
C653 N652 1.376 . S
C653 C654 1.446 . S
C653 C676 1.391 . S
C654 C653 1.446 . S
C654 C655 1.339 . S
C654 H683 0.949 . S
C655 C654 1.339 . S
C655 C656 1.439 . S
C655 H684 0.950 . S
C656 N652 1.383 . S
C656 C655 1.439 . S
C656 C674 1.392 . S
N657 Co641 2.282 . S
N657 C660 1.332 . S
N657 C662 1.332 . S
C658 C659 1.386 . S
C658 C661 1.388 . S
C659 C658 1.386 . S
C659 C660 1.382 . S
C659 H685 0.950 1_655 S
C660 N657 1.332 . S
C660 C659 1.382 . S
C660 H671 0.952 . S
C661 C658 1.388 . S
C661 C662 1.382 . S
C661 H686 0.950 . S
C662 N657 1.332 . S
C662 C661 1.382 . S
C662 H672 0.948 . S
N663 Co641 2.282 . S
N663 C667 1.332 . S
N663 C668 1.332 . S
C664 C665 1.388 . S
C664 C668 1.382 . S
C664 H687 0.950 . S
C665 C664 1.388 . S
C665 C666 1.386 . S
C666 C665 1.386 . S
C666 C667 1.382 . S
C666 H688 0.950 . S
C667 N663 1.332 . S
C667 C666 1.382 . S
C667 H669 0.952 . S
C668 N663 1.332 . S
C668 C664 1.382 . S
C668 H670 0.948 . S
H669 C667 0.952 . S
H670 C668 0.948 . S
H671 C660 0.952 . S
H672 C662 0.948 . S
C673 C639 1.395 . S
C673 C643 1.391 . S
C674 C636 1.389 . S
C674 C656 1.392 . S
C675 C646 1.392 . S
C675 C648 1.389 . S
C676 C651 1.395 . S
C676 C653 1.391 . S
H677 C637 0.951 . S
H678 C638 0.950 . S
H679 C644 0.949 . S
H680 C645 0.950 . S
H681 C649 0.951 . S
H682 C650 0.950 1_455 S
H683 C654 0.949 . S
H684 C655 0.950 . S
H685 C659 0.950 1_455 S
H686 C661 0.950 . S
H687 C664 0.950 . S
H688 C666 0.950 . S
C689 C690 1.443 . S
C689 N693 1.376 . S
C689 C727 1.389 . S
C690 C689 1.443 . S
C690 C691 1.340 . S
C690 H730 0.951 . S
C691 C690 1.340 . S
C691 C692 1.439 . S
C691 H731 0.950 . S
C692 C691 1.439 . S
C692 N693 1.374 . S
C692 C726 1.395 . S
N693 C689 1.376 . S
N693 C692 1.374 . S
N693 Co694 2.008 . S
Co694 N693 2.008 . S
Co694 N695 1.995 . S
Co694 N700 2.008 . S
Co694 N705 1.995 . S
Co694 N710 2.282 . S
Co694 N716 2.282 . S
N695 Co694 1.995 . S
N695 C696 1.376 . S
N695 C699 1.383 . S
C696 N695 1.376 . S
C696 C697 1.446 . S
C696 C726 1.391 . S
C697 C696 1.446 . S
C697 C698 1.339 . S
C697 H732 0.949 . S
C698 C697 1.339 . S
C698 C699 1.439 . S
C698 H733 0.950 . S
C699 N695 1.383 . S
C699 C698 1.439 . S
C699 C728 1.392 . S
N700 Co694 2.008 . S
N700 C701 1.376 . S
N700 C704 1.374 . S
C701 N700 1.376 . S
C701 C702 1.443 . S
C701 C728 1.389 . S
C702 C701 1.443 . S
C702 C703 1.340 . S
C702 H734 0.951 . S
C703 C702 1.340 . S
C703 C704 1.439 . S
C703 H735 0.950 1_565 S
C704 N700 1.374 . S
C704 C703 1.439 . S
C704 C729 1.395 . S
N705 Co694 1.995 . S
N705 C706 1.376 . S
N705 C709 1.383 . S
C706 N705 1.376 . S
C706 C707 1.446 . S
C706 C729 1.391 . S
C707 C706 1.446 . S
C707 C708 1.339 . S
C707 H736 0.949 . S
C708 C707 1.339 . S
C708 C709 1.439 . S
C708 H737 0.950 . S
C709 N705 1.383 . S
C709 C708 1.439 . S
C709 C727 1.392 . S
N710 Co694 2.282 . S
N710 C713 1.332 . S
N710 C715 1.332 . S
C711 C712 1.386 . S
C711 C714 1.388 . S
C712 C711 1.386 . S
C712 C713 1.382 . S
C712 H738 0.950 1_565 S
C713 N710 1.332 . S
C713 C712 1.382 . S
C713 H724 0.952 . S
C714 C711 1.388 . S
C714 C715 1.382 . S
C714 H739 0.950 . S
C715 N710 1.332 . S
C715 C714 1.382 . S
C715 H725 0.948 . S
N716 Co694 2.282 . S
N716 C720 1.332 . S
N716 C721 1.332 . S
C717 C718 1.388 . S
C717 C721 1.382 . S
C717 H740 0.950 . S
C718 C717 1.388 . S
C718 C719 1.386 . S
C719 C718 1.386 . S
C719 C720 1.382 . S
C719 H741 0.950 . S
C720 N716 1.332 . S
C720 C719 1.382 . S
C720 H722 0.952 . S
C721 N716 1.332 . S
C721 C717 1.382 . S
C721 H723 0.948 . S
H722 C720 0.952 . S
H723 C721 0.948 . S
H724 C713 0.952 . S
H725 C715 0.948 . S
C726 C692 1.395 . S
C726 C696 1.391 . S
C727 C689 1.389 . S
C727 C709 1.392 . S
C728 C699 1.392 . S
C728 C701 1.389 . S
C729 C704 1.395 . S
C729 C706 1.391 . S
H730 C690 0.951 . S
H731 C691 0.950 . S
H732 C697 0.949 . S
H733 C698 0.950 . S
H734 C702 0.951 . S
H735 C703 0.950 1_545 S
H736 C707 0.949 . S
H737 C708 0.950 . S
H738 C712 0.950 1_545 S
H739 C714 0.950 . S
H740 C717 0.950 . S
H741 C719 0.950 . S
C742 C743 1.443 . S
C742 N746 1.376 . S
C742 C780 1.389 . S
C743 C742 1.443 . S
C743 C744 1.340 . S
C743 H783 0.951 . S
C744 C743 1.340 . S
C744 C745 1.439 . S
C744 H784 0.950 . S
C745 C744 1.439 . S
C745 N746 1.374 . S
C745 C779 1.395 . S
N746 C742 1.376 . S
N746 C745 1.374 . S
N746 Co747 2.008 . S
Co747 N746 2.008 . S
Co747 N748 1.995 . S
Co747 N753 2.008 . S
Co747 N758 1.995 . S
Co747 N763 2.282 . S
Co747 N769 2.282 . S
N748 Co747 1.995 . S
N748 C749 1.376 . S
N748 C752 1.383 . S
C749 N748 1.376 . S
C749 C750 1.446 . S
C749 C779 1.391 . S
C750 C749 1.446 . S
C750 C751 1.339 . S
C750 H785 0.949 . S
C751 C750 1.339 . S
C751 C752 1.439 . S
C751 H786 0.950 . S
C752 N748 1.383 . S
C752 C751 1.439 . S
C752 C781 1.392 . S
N753 Co747 2.008 . S
N753 C754 1.376 . S
N753 C757 1.374 . S
C754 N753 1.376 . S
C754 C755 1.443 . S
C754 C781 1.389 . S
C755 C754 1.443 . S
C755 C756 1.340 . S
C755 H787 0.951 . S
C756 C755 1.340 . S
C756 C757 1.439 . S
C756 H788 0.950 . S
C757 N753 1.374 . S
C757 C756 1.439 . S
C757 C782 1.395 . S
N758 Co747 1.995 . S
N758 C759 1.376 . S
N758 C762 1.383 . S
C759 N758 1.376 . S
C759 C760 1.446 . S
C759 C782 1.391 . S
C760 C759 1.446 . S
C760 C761 1.339 . S
C760 H789 0.949 . S
C761 C760 1.339 . S
C761 C762 1.439 . S
C761 H790 0.950 . S
C762 N758 1.383 . S
C762 C761 1.439 . S
C762 C780 1.392 . S
N763 Co747 2.282 . S
N763 C766 1.332 . S
N763 C768 1.332 . S
C764 C765 1.386 . S
C764 C767 1.388 . S
C765 C764 1.386 . S
C765 C766 1.382 . S
C765 H791 0.950 . S
C766 N763 1.332 . S
C766 C765 1.382 . S
C766 H777 0.952 . S
C767 C764 1.388 . S
C767 C768 1.382 . S
C767 H792 0.950 . S
C768 N763 1.332 . S
C768 C767 1.382 . S
C768 H778 0.948 . S
N769 Co747 2.282 . S
N769 C773 1.332 . S
N769 C774 1.332 . S
C770 C771 1.388 . S
C770 C774 1.382 . S
C770 H793 0.950 . S
C771 C770 1.388 . S
C771 C772 1.386 . S
C772 C771 1.386 . S
C772 C773 1.382 . S
C772 H794 0.950 . S
C773 N769 1.332 . S
C773 C772 1.382 . S
C773 H775 0.952 . S
C774 N769 1.332 . S
C774 C770 1.382 . S
C774 H776 0.948 . S
H775 C773 0.952 . S
H776 C774 0.948 . S
H777 C766 0.952 . S
H778 C768 0.948 . S
C779 C745 1.395 . S
C779 C749 1.391 . S
C780 C742 1.389 . S
C780 C762 1.392 . S
C781 C752 1.392 . S
C781 C754 1.389 . S
C782 C757 1.395 . S
C782 C759 1.391 . S
H783 C743 0.951 . S
H784 C744 0.950 . S
H785 C750 0.949 . S
H786 C751 0.950 . S
H787 C755 0.951 . S
H788 C756 0.950 . S
H789 C760 0.949 . S
H790 C761 0.950 . S
H791 C765 0.950 . S
H792 C767 0.950 . S
H793 C770 0.950 . S
H794 C772 0.950 . S
C795 C796 1.443 . S
C795 N799 1.376 . S
C795 C833 1.389 . S
C796 C795 1.443 . S
C796 C797 1.340 . S
C796 H836 0.951 . S
C797 C796 1.340 . S
C797 C798 1.439 . S
C797 H837 0.950 . S
C798 C797 1.439 . S
C798 N799 1.374 . S
C798 C832 1.395 . S
N799 C795 1.376 . S
N799 C798 1.374 . S
N799 Co800 2.008 . S
Co800 N799 2.008 . S
Co800 N801 1.995 . S
Co800 N806 2.008 . S
Co800 N811 1.995 . S
Co800 N816 2.282 . S
Co800 N822 2.282 . S
N801 Co800 1.995 . S
N801 C802 1.376 . S
N801 C805 1.383 . S
C802 N801 1.376 . S
C802 C803 1.446 . S
C802 C832 1.391 . S
C803 C802 1.446 . S
C803 C804 1.339 . S
C803 H838 0.949 . S
C804 C803 1.339 . S
C804 C805 1.439 . S
C804 H839 0.950 . S
C805 N801 1.383 . S
C805 C804 1.439 . S
C805 C834 1.392 . S
N806 Co800 2.008 . S
N806 C807 1.376 . S
N806 C810 1.374 . S
C807 N806 1.376 . S
C807 C808 1.443 . S
C807 C834 1.389 . S
C808 C807 1.443 . S
C808 C809 1.340 . S
C808 H840 0.951 . S
C809 C808 1.340 . S
C809 C810 1.439 . S
C809 H841 0.950 . S
C810 N806 1.374 . S
C810 C809 1.439 . S
C810 C835 1.395 . S
N811 Co800 1.995 . S
N811 C812 1.376 . S
N811 C815 1.383 . S
C812 N811 1.376 . S
C812 C813 1.446 . S
C812 C835 1.391 . S
C813 C812 1.446 . S
C813 C814 1.339 . S
C813 H842 0.949 . S
C814 C813 1.339 . S
C814 C815 1.439 . S
C814 H843 0.950 . S
C815 N811 1.383 . S
C815 C814 1.439 . S
C815 C833 1.392 . S
N816 Co800 2.282 . S
N816 C819 1.332 . S
N816 C821 1.332 . S
C817 C818 1.386 . S
C817 C820 1.388 . S
C818 C817 1.386 . S
C818 C819 1.382 . S
C818 H844 0.950 . S
C819 N816 1.332 . S
C819 C818 1.382 . S
C819 H830 0.952 . S
C820 C817 1.388 . S
C820 C821 1.382 . S
C820 H845 0.950 . S
C821 N816 1.332 . S
C821 C820 1.382 . S
C821 H831 0.948 . S
N822 Co800 2.282 . S
N822 C826 1.332 . S
N822 C827 1.332 . S
C823 C824 1.388 . S
C823 C827 1.382 . S
C823 H846 0.950 . S
C824 C823 1.388 . S
C824 C825 1.386 . S
C825 C824 1.386 . S
C825 C826 1.382 . S
C825 H847 0.950 . S
C826 N822 1.332 . S
C826 C825 1.382 . S
C826 H828 0.952 . S
C827 N822 1.332 . S
C827 C823 1.382 . S
C827 H829 0.948 . S
H828 C826 0.952 . S
H829 C827 0.948 . S
H830 C819 0.952 . S
H831 C821 0.948 . S
C832 C798 1.395 . S
C832 C802 1.391 . S
C833 C795 1.389 . S
C833 C815 1.392 . S
C834 C805 1.392 . S
C834 C807 1.389 . S
C835 C810 1.395 . S
C835 C812 1.391 . S
H836 C796 0.951 . S
H837 C797 0.950 . S
H838 C803 0.949 . S
H839 C804 0.950 . S
H840 C808 0.951 . S
H841 C809 0.950 . S
H842 C813 0.949 . S
H843 C814 0.950 . S
H844 C818 0.950 . S
H845 C820 0.950 . S
H846 C823 0.950 . S
H847 C825 0.950 . S
H848 C854 0.930 . S
H849 C857 0.930 . S
H850 C858 0.930 . S
H851 C859 0.930 . S
H852 C862 0.930 . S
H853 C863 0.930 . S
C854 H848 0.930 . S
C854 C855 1.355 . S
C854 C856 1.415 . S
C855 C854 1.355 . S
C855 C857 1.419 . S
C856 C854 1.415 . S
C856 C861 1.425 . S
C856 C863 1.409 . S
C857 H849 0.930 . S
C857 C855 1.419 . S
C857 C858 1.362 . S
C858 H850 0.930 . S
C858 C857 1.362 . S
C858 C861 1.409 . S
C859 H851 0.930 . S
C859 C860 1.355 . S
C859 C861 1.415 . S
C860 C859 1.355 . S
C860 C862 1.419 . S
C861 C856 1.425 . S
C861 C858 1.409 . S
C861 C859 1.415 . S
C862 H852 0.930 . S
C862 C860 1.419 . S
C862 C863 1.362 . S
C863 H853 0.930 . S
C863 C856 1.409 . S
C863 C862 1.362 . S
H864 C870 0.930 . S
H865 C873 0.930 . S
H866 C874 0.930 . S
H867 C875 0.930 . S
H868 C878 0.930 . S
H869 C879 0.930 . S
C870 H864 0.930 . S
C870 C871 1.355 . S
C870 C872 1.415 . S
C871 C870 1.355 . S
C871 C873 1.419 . S
C872 C870 1.415 . S
C872 C877 1.425 . S
C872 C879 1.409 . S
C873 H865 0.930 . S
C873 C871 1.419 . S
C873 C874 1.362 . S
C874 H866 0.930 . S
C874 C873 1.362 . S
C874 C877 1.409 . S
C875 H867 0.930 . S
C875 C876 1.355 . S
C875 C877 1.415 . S
C876 C875 1.355 . S
C876 C878 1.419 . S
C877 C872 1.425 . S
C877 C874 1.409 . S
C877 C875 1.415 . S
C878 H868 0.930 . S
C878 C876 1.419 . S
C878 C879 1.362 . S
C879 H869 0.930 . S
C879 C872 1.409 . S
C879 C878 1.362 . S
H880 C886 0.930 . S
H881 C889 0.930 . S
H882 C890 0.930 . S
H883 C891 0.930 . S
H884 C894 0.930 . S
H885 C895 0.930 . S
C886 H880 0.930 . S
C886 C887 1.355 . S
C886 C888 1.415 . S
C887 C886 1.355 . S
C887 C889 1.419 . S
C888 C886 1.415 . S
C888 C893 1.425 . S
C888 C895 1.409 . S
C889 H881 0.930 . S
C889 C887 1.419 . S
C889 C890 1.362 . S
C890 H882 0.930 . S
C890 C889 1.362 . S
C890 C893 1.409 . S
C891 H883 0.930 . S
C891 C892 1.355 . S
C891 C893 1.415 . S
C892 C891 1.355 . S
C892 C894 1.419 . S
C893 C888 1.425 . S
C893 C890 1.409 . S
C893 C891 1.415 . S
C894 H884 0.930 . S
C894 C892 1.419 . S
C894 C895 1.362 . S
C895 H885 0.930 . S
C895 C888 1.409 . S
C895 C894 1.362 . S
H896 C902 0.930 . S
H897 C905 0.930 . S
H898 C906 0.930 . S
H899 C907 0.930 . S
H900 C910 0.930 . S
H901 C911 0.930 . S
C902 H896 0.930 . S
C902 C903 1.355 . S
C902 C904 1.415 . S
C903 C902 1.355 . S
C903 C905 1.419 . S
C904 C902 1.415 . S
C904 C909 1.425 . S
C904 C911 1.409 . S
C905 H897 0.930 . S
C905 C903 1.419 . S
C905 C906 1.362 . S
C906 H898 0.930 . S
C906 C905 1.362 . S
C906 C909 1.409 . S
C907 H899 0.930 . S
C907 C908 1.355 . S
C907 C909 1.415 . S
C908 C907 1.355 . S
C908 C910 1.419 . S
C909 C904 1.425 . S
C909 C906 1.409 . S
C909 C907 1.415 . S
C910 H900 0.930 . S
C910 C908 1.419 . S
C910 C911 1.362 . S
C911 H901 0.930 . S
C911 C904 1.409 . S
C911 C910 1.362 . S
H912 C918 0.930 . S
H913 C921 0.930 . S
H914 C922 0.930 . S
H915 C923 0.930 . S
H916 C926 0.930 . S
H917 C927 0.930 . S
C918 H912 0.930 . S
C918 C919 1.355 . S
C918 C920 1.415 . S
C919 C918 1.355 . S
C919 C921 1.419 . S
C920 C918 1.415 . S
C920 C925 1.425 . S
C920 C927 1.409 . S
C921 H913 0.930 . S
C921 C919 1.419 . S
C921 C922 1.362 . S
C922 H914 0.930 . S
C922 C921 1.362 . S
C922 C925 1.409 . S
C923 H915 0.930 . S
C923 C924 1.355 . S
C923 C925 1.415 . S
C924 C923 1.355 . S
C924 C926 1.419 . S
C925 C920 1.425 . S
C925 C922 1.409 . S
C925 C923 1.415 . S
C926 H916 0.930 . S
C926 C924 1.419 . S
C926 C927 1.362 . S
C927 H917 0.930 . S
C927 C920 1.409 . S
C927 C926 1.362 . S
H928 C934 0.930 . S
H929 C937 0.930 . S
H930 C938 0.930 . S
H931 C939 0.930 . S
H932 C942 0.930 . S
H933 C943 0.930 . S
C934 H928 0.930 . S
C934 C935 1.355 . S
C934 C936 1.415 . S
C935 C934 1.355 . S
C935 C937 1.419 . S
C936 C934 1.415 . S
C936 C941 1.425 . S
C936 C943 1.409 . S
C937 H929 0.930 . S
C937 C935 1.419 . S
C937 C938 1.362 . S
C938 H930 0.930 . S
C938 C937 1.362 . S
C938 C941 1.409 . S
C939 H931 0.930 . S
C939 C940 1.355 . S
C939 C941 1.415 . S
C940 C939 1.355 . S
C940 C942 1.419 . S
C941 C936 1.425 . S
C941 C938 1.409 . S
C941 C939 1.415 . S
C942 H932 0.930 . S
C942 C940 1.419 . S
C942 C943 1.362 . S
C943 H933 0.930 . S
C943 C936 1.409 . S
C943 C942 1.362 . S
H944 C950 0.930 . S
H945 C953 0.930 . S
H946 C954 0.930 . S
H947 C955 0.930 . S
H948 C958 0.930 . S
H949 C959 0.930 . S
C950 H944 0.930 . S
C950 C951 1.355 . S
C950 C952 1.415 . S
C951 C950 1.355 . S
C951 C953 1.419 . S
C952 C950 1.415 . S
C952 C957 1.425 . S
C952 C959 1.409 . S
C953 H945 0.930 . S
C953 C951 1.419 . S
C953 C954 1.362 . S
C954 H946 0.930 . S
C954 C953 1.362 . S
C954 C957 1.409 . S
C955 H947 0.930 . S
C955 C956 1.355 . S
C955 C957 1.415 . S
C956 C955 1.355 . S
C956 C958 1.419 . S
C957 C952 1.425 . S
C957 C954 1.409 . S
C957 C955 1.415 . S
C958 H948 0.930 . S
C958 C956 1.419 . S
C958 C959 1.362 . S
C959 H949 0.930 . S
C959 C952 1.409 . S
C959 C958 1.362 . S
H960 C966 0.930 . S
H961 C969 0.930 . S
H962 C970 0.930 . S
H963 C971 0.930 . S
H964 C974 0.930 . S
H965 C975 0.930 . S
C966 H960 0.930 . S
C966 C967 1.355 . S
C966 C968 1.415 . S
C967 C966 1.355 . S
C967 C969 1.419 . S
C968 C966 1.415 . S
C968 C973 1.425 . S
C968 C975 1.409 . S
C969 H961 0.930 . S
C969 C967 1.419 . S
C969 C970 1.362 . S
C970 H962 0.930 . S
C970 C969 1.362 . S
C970 C973 1.409 . S
C971 H963 0.930 . S
C971 C972 1.355 . S
C971 C973 1.415 . S
C972 C971 1.355 . S
C972 C974 1.419 . S
C973 C968 1.425 . S
C973 C970 1.409 . S
C973 C971 1.415 . S
C974 H964 0.930 . S
C974 C972 1.419 . S
C974 C975 1.362 . S
C975 H965 0.930 . S
C975 C968 1.409 . S
C975 C974 1.362 . S
H976 C982 0.930 . S
H977 C985 0.930 . S
H978 C986 0.930 . S
H979 C987 0.930 . S
H980 C990 0.930 . S
H981 C991 0.930 . S
C982 H976 0.930 . S
C982 C983 1.355 . S
C982 C984 1.415 1_655 S
C983 C982 1.355 . S
C983 C985 1.419 1_655 S
C984 C982 1.415 1_455 S
C984 C989 1.425 . S
C984 C991 1.409 1_455 S
C985 H977 0.930 . S
C985 C983 1.419 1_455 S
C985 C986 1.362 . S
C986 H978 0.930 . S
C986 C985 1.362 . S
C986 C989 1.409 . S
C987 H979 0.930 . S
C987 C988 1.355 . S
C987 C989 1.415 . S
C988 C987 1.355 . S
C988 C990 1.419 . S
C989 C984 1.425 . S
C989 C986 1.409 . S
C989 C987 1.415 . S
C990 H980 0.930 . S
C990 C988 1.419 . S
C990 C991 1.362 1_455 S
C991 H981 0.930 . S
C991 C984 1.409 1_655 S
C991 C990 1.362 1_655 S
H992 C998 0.930 . S
H993 C1001 0.930 . S
H994 C1002 0.930 . S
H995 C1003 0.930 . S
H996 C1006 0.930 . S
H997 C1007 0.930 . S
C998 H992 0.930 . S
C998 C999 1.355 . S
C998 C1000 1.415 1_655 S
C999 C998 1.355 . S
C999 C1001 1.419 1_655 S
C1000 C998 1.415 1_455 S
C1000 C1005 1.425 . S
C1000 C1007 1.409 1_455 S
C1001 H993 0.930 . S
C1001 C999 1.419 1_455 S
C1001 C1002 1.362 . S
C1002 H994 0.930 . S
C1002 C1001 1.362 . S
C1002 C1005 1.409 . S
C1003 H995 0.930 . S
C1003 C1004 1.355 . S
C1003 C1005 1.415 1_565 S
C1004 C1003 1.355 . S
C1004 C1006 1.419 1_565 S
C1005 C1000 1.425 . S
C1005 C1002 1.409 . S
C1005 C1003 1.415 1_545 S
C1006 H996 0.930 . S
C1006 C1004 1.419 1_545 S
C1006 C1007 1.362 1_455 S
C1007 H997 0.930 . S
C1007 C1000 1.409 1_655 S
C1007 C1006 1.362 1_655 S
H1008 C1014 0.930 . S
H1009 C1017 0.930 . S
H1010 C1018 0.930 . S
H1011 C1019 0.930 . S
H1012 C1022 0.930 . S
H1013 C1023 0.930 . S
C1014 H1008 0.930 . S
C1014 C1015 1.355 . S
C1014 C1016 1.415 . S
C1015 C1014 1.355 . S
C1015 C1017 1.419 . S
C1016 C1014 1.415 . S
C1016 C1021 1.425 . S
C1016 C1023 1.409 . S
C1017 H1009 0.930 . S
C1017 C1015 1.419 . S
C1017 C1018 1.362 1_545 S
C1018 H1010 0.930 . S
C1018 C1017 1.362 1_565 S
C1018 C1021 1.409 1_565 S
C1019 H1011 0.930 . S
C1019 C1020 1.355 . S
C1019 C1021 1.415 1_565 S
C1020 C1019 1.355 . S
C1020 C1022 1.419 1_565 S
C1021 C1016 1.425 . S
C1021 C1018 1.409 1_545 S
C1021 C1019 1.415 1_545 S
C1022 H1012 0.930 . S
C1022 C1020 1.419 1_545 S
C1022 C1023 1.362 . S
C1023 H1013 0.930 . S
C1023 C1016 1.409 . S
C1023 C1022 1.362 . S
H1024 C1030 0.930 . S
H1025 C1033 0.930 . S
H1026 C1034 0.930 . S
H1027 C1035 0.930 . S
H1028 C1038 0.930 . S
H1029 C1039 0.930 . S
C1030 H1024 0.930 . S
C1030 C1031 1.355 . S
C1030 C1032 1.415 . S
C1031 C1030 1.355 . S
C1031 C1033 1.419 . S
C1032 C1030 1.415 . S
C1032 C1037 1.425 . S
C1032 C1039 1.409 . S
C1033 H1025 0.930 . S
C1033 C1031 1.419 . S
C1033 C1034 1.362 . S
C1034 H1026 0.930 . S
C1034 C1033 1.362 . S
C1034 C1037 1.409 . S
C1035 H1027 0.930 . S
C1035 C1036 1.355 . S
C1035 C1037 1.415 . S
C1036 C1035 1.355 . S
C1036 C1038 1.419 . S
C1037 C1032 1.425 . S
C1037 C1034 1.409 . S
C1037 C1035 1.415 . S
C1038 H1028 0.930 . S
C1038 C1036 1.419 . S
C1038 C1039 1.362 . S
C1039 H1029 0.930 . S
C1039 C1032 1.409 . S
C1039 C1038 1.362 . S
H1040 C1046 0.930 . S
H1041 C1049 0.930 . S
H1042 C1050 0.930 . S
H1043 C1051 0.930 . S
H1044 C1054 0.930 . S
H1045 C1055 0.930 . S
C1046 H1040 0.930 . S
C1046 C1047 1.355 . S
C1046 C1048 1.415 . S
C1047 C1046 1.355 . S
C1047 C1049 1.419 . S
C1048 C1046 1.415 . S
C1048 C1053 1.425 . S
C1048 C1055 1.409 1_455 S
C1049 H1041 0.930 . S
C1049 C1047 1.419 . S
C1049 C1050 1.362 . S
C1050 H1042 0.930 . S
C1050 C1049 1.362 . S
C1050 C1053 1.409 . S
C1051 H1043 0.930 . S
C1051 C1052 1.355 . S
C1051 C1053 1.415 . S
C1052 C1051 1.355 . S
C1052 C1054 1.419 1_455 S
C1053 C1048 1.425 . S
C1053 C1050 1.409 . S
C1053 C1051 1.415 . S
C1054 H1044 0.930 . S
C1054 C1052 1.419 1_655 S
C1054 C1055 1.362 . S
C1055 H1045 0.930 . S
C1055 C1048 1.409 1_655 S
C1055 C1054 1.362 . S
H1056 C1062 0.930 . S
H1057 C1065 0.930 1_655 S
H1058 C1066 0.930 . S
H1059 C1067 0.930 . S
H1060 C1070 0.930 . S
H1061 C1071 0.930 . S
C1062 H1056 0.930 . S
C1062 C1063 1.355 . S
C1062 C1064 1.415 . S
C1063 C1062 1.355 . S
C1063 C1065 1.419 1_545 S
C1064 C1062 1.415 . S
C1064 C1069 1.425 . S
C1064 C1071 1.409 . S
C1065 H1057 0.930 1_455 S
C1065 C1063 1.419 1_565 S
C1065 C1066 1.362 1_455 S
C1066 H1058 0.930 . S
C1066 C1065 1.362 1_655 S
C1066 C1069 1.409 1_665 S
C1067 H1059 0.930 . S
C1067 C1068 1.355 1_655 S
C1067 C1069 1.415 1_655 S
C1068 C1067 1.355 1_455 S
C1068 C1070 1.419 . S
C1069 C1064 1.425 . S
C1069 C1066 1.409 1_445 S
C1069 C1067 1.415 1_455 S
C1070 H1060 0.930 . S
C1070 C1068 1.419 . S
C1070 C1071 1.362 . S
C1071 H1061 0.930 . S
C1071 C1064 1.409 . S
C1071 C1070 1.362 . S
H1072 C1078 0.930 1_565 S
H1073 C1081 0.930 . S
H1074 C1082 0.930 . S
H1075 C1083 0.930 . S
H1076 C1086 0.930 . S
H1077 C1087 0.930 . S
C1078 H1072 0.930 1_545 S
C1078 C1079 1.355 . S
C1078 C1080 1.415 . S
C1079 C1078 1.355 . S
C1079 C1081 1.419 . S
C1080 C1078 1.415 . S
C1080 C1085 1.425 . S
C1080 C1087 1.409 1_545 S
C1081 H1073 0.930 . S
C1081 C1079 1.419 . S
C1081 C1082 1.362 . S
C1082 H1074 0.930 . S
C1082 C1081 1.362 . S
C1082 C1085 1.409 . S
C1083 H1075 0.930 . S
C1083 C1084 1.355 . S
C1083 C1085 1.415 . S
C1084 C1083 1.355 . S
C1084 C1086 1.419 1_545 S
C1085 C1080 1.425 . S
C1085 C1082 1.409 . S
C1085 C1083 1.415 . S
C1086 H1076 0.930 . S
C1086 C1084 1.419 1_565 S
C1086 C1087 1.362 . S
C1087 H1077 0.930 . S
C1087 C1080 1.409 1_565 S
C1087 C1086 1.362 . S
H1088 C1094 0.930 . S
H1089 C1097 0.930 . S
H1090 C1098 0.930 . S
H1091 C1099 0.930 . S
H1092 C1102 0.930 . S
H1093 C1103 0.930 . S
C1094 H1088 0.930 . S
C1094 C1095 1.355 . S
C1094 C1096 1.415 . S
C1095 C1094 1.355 . S
C1095 C1097 1.419 . S
C1096 C1094 1.415 . S
C1096 C1101 1.425 . S
C1096 C1103 1.409 . S
C1097 H1089 0.930 . S
C1097 C1095 1.419 . S
C1097 C1098 1.362 . S
C1098 H1090 0.930 . S
C1098 C1097 1.362 . S
C1098 C1101 1.409 . S
C1099 H1091 0.930 . S
C1099 C1100 1.355 . S
C1099 C1101 1.415 . S
C1100 C1099 1.355 . S
C1100 C1102 1.419 . S
C1101 C1096 1.425 . S
C1101 C1098 1.409 . S
C1101 C1099 1.415 . S
C1102 H1092 0.930 . S
C1102 C1100 1.419 . S
C1102 C1103 1.362 . S
C1103 H1093 0.930 . S
C1103 C1096 1.409 . S
C1103 C1102 1.362 . S
H1104 C1110 0.930 . S
H1105 C1113 0.930 . S
H1106 C1114 0.930 . S
H1107 C1115 0.930 . S
H1108 C1118 0.930 . S
H1109 C1119 0.930 . S
C1110 H1104 0.930 . S
C1110 C1111 1.355 . S
C1110 C1112 1.415 . S
C1111 C1110 1.355 . S
C1111 C1113 1.419 . S
C1112 C1110 1.415 . S
C1112 C1117 1.425 . S
C1112 C1119 1.409 . S
C1113 H1105 0.930 . S
C1113 C1111 1.419 . S
C1113 C1114 1.362 . S
C1114 H1106 0.930 . S
C1114 C1113 1.362 . S
C1114 C1117 1.409 . S
C1115 H1107 0.930 . S
C1115 C1116 1.355 . S
C1115 C1117 1.415 . S
C1116 C1115 1.355 . S
C1116 C1118 1.419 . S
C1117 C1112 1.425 . S
C1117 C1114 1.409 . S
C1117 C1115 1.415 . S
C1118 H1108 0.930 . S
C1118 C1116 1.419 . S
C1118 C1119 1.362 . S
C1119 H1109 0.930 . S
C1119 C1112 1.409 . S
C1119 C1118 1.362 . S
H1120 C1126 0.930 . S
H1121 C1129 0.930 . S
H1122 C1130 0.930 . S
H1123 C1131 0.930 . S
H1124 C1134 0.930 . S
H1125 C1135 0.930 . S
C1126 H1120 0.930 . S
C1126 C1127 1.355 . S
C1126 C1128 1.415 . S
C1127 C1126 1.355 . S
C1127 C1129 1.419 . S
C1128 C1126 1.415 . S
C1128 C1133 1.425 . S
C1128 C1135 1.409 . S
C1129 H1121 0.930 . S
C1129 C1127 1.419 . S
C1129 C1130 1.362 . S
C1130 H1122 0.930 . S
C1130 C1129 1.362 . S
C1130 C1133 1.409 . S
C1131 H1123 0.930 . S
C1131 C1132 1.355 . S
C1131 C1133 1.415 . S
C1132 C1131 1.355 . S
C1132 C1134 1.419 . S
C1133 C1128 1.425 . S
C1133 C1130 1.409 . S
C1133 C1131 1.415 . S
C1134 H1124 0.930 . S
C1134 C1132 1.419 . S
C1134 C1135 1.362 . S
C1135 H1125 0.930 . S
C1135 C1128 1.409 . S
C1135 C1134 1.362 . S
H1136 C1142 0.930 . S
H1137 C1145 0.930 . S
H1138 C1146 0.930 . S
H1139 C1147 0.930 . S
H1140 C1150 0.930 . S
H1141 C1151 0.930 . S
C1142 H1136 0.930 . S
C1142 C1143 1.355 . S
C1142 C1144 1.415 . S
C1143 C1142 1.355 . S
C1143 C1145 1.419 . S
C1144 C1142 1.415 . S
C1144 C1149 1.425 . S
C1144 C1151 1.409 . S
C1145 H1137 0.930 . S
C1145 C1143 1.419 . S
C1145 C1146 1.362 . S
C1146 H1138 0.930 . S
C1146 C1145 1.362 . S
C1146 C1149 1.409 . S
C1147 H1139 0.930 . S
C1147 C1148 1.355 . S
C1147 C1149 1.415 . S
C1148 C1147 1.355 . S
C1148 C1150 1.419 . S
C1149 C1144 1.425 . S
C1149 C1146 1.409 . S
C1149 C1147 1.415 . S
C1150 H1140 0.930 . S
C1150 C1148 1.419 . S
C1150 C1151 1.362 . S
C1151 H1141 0.930 . S
C1151 C1144 1.409 . S
C1151 C1150 1.362 . S
H1152 C1158 0.930 . S
H1153 C1161 0.930 . S
H1154 C1162 0.930 . S
H1155 C1163 0.930 . S
H1156 C1166 0.930 . S
H1157 C1167 0.930 . S
C1158 H1152 0.930 . S
C1158 C1159 1.355 . S
C1158 C1160 1.415 . S
C1159 C1158 1.355 . S
C1159 C1161 1.419 . S
C1160 C1158 1.415 . S
C1160 C1165 1.425 . S
C1160 C1167 1.409 . S
C1161 H1153 0.930 . S
C1161 C1159 1.419 . S
C1161 C1162 1.362 . S
C1162 H1154 0.930 . S
C1162 C1161 1.362 . S
C1162 C1165 1.409 . S
C1163 H1155 0.930 . S
C1163 C1164 1.355 . S
C1163 C1165 1.415 . S
C1164 C1163 1.355 . S
C1164 C1166 1.419 . S
C1165 C1160 1.425 . S
C1165 C1162 1.409 . S
C1165 C1163 1.415 . S
C1166 H1156 0.930 . S
C1166 C1164 1.419 . S
C1166 C1167 1.362 . S
C1167 H1157 0.930 . S
C1167 C1160 1.409 . S
C1167 C1166 1.362 . S
H1168 C1174 0.930 . S
H1169 C1177 0.930 . S
H1170 C1178 0.930 . S
H1171 C1179 0.930 . S
H1172 C1182 0.930 . S
H1173 C1183 0.930 . S
C1174 H1168 0.930 . S
C1174 C1175 1.355 . S
C1174 C1176 1.415 . S
C1175 C1174 1.355 . S
C1175 C1177 1.419 . S
C1176 C1174 1.415 . S
C1176 C1181 1.425 . S
C1176 C1183 1.409 . S
C1177 H1169 0.930 . S
C1177 C1175 1.419 . S
C1177 C1178 1.362 . S
C1178 H1170 0.930 . S
C1178 C1177 1.362 . S
C1178 C1181 1.409 . S
C1179 H1171 0.930 . S
C1179 C1180 1.355 . S
C1179 C1181 1.415 . S
C1180 C1179 1.355 . S
C1180 C1182 1.419 . S
C1181 C1176 1.425 . S
C1181 C1178 1.409 . S
C1181 C1179 1.415 . S
C1182 H1172 0.930 . S
C1182 C1180 1.419 . S
C1182 C1183 1.362 . S
C1183 H1173 0.930 . S
C1183 C1176 1.409 . S
C1183 C1182 1.362 . S
H1184 C1190 0.930 . S
H1185 C1193 0.930 . S
H1186 C1194 0.930 . S
H1187 C1195 0.930 . S
H1188 C1198 0.930 . S
H1189 C1199 0.930 . S
C1190 H1184 0.930 . S
C1190 C1191 1.355 . S
C1190 C1192 1.415 . S
C1191 C1190 1.355 . S
C1191 C1193 1.419 . S
C1192 C1190 1.415 . S
C1192 C1197 1.425 . S
C1192 C1199 1.409 . S
C1193 H1185 0.930 . S
C1193 C1191 1.419 . S
C1193 C1194 1.362 . S
C1194 H1186 0.930 . S
C1194 C1193 1.362 . S
C1194 C1197 1.409 . S
C1195 H1187 0.930 . S
C1195 C1196 1.355 . S
C1195 C1197 1.415 . S
C1196 C1195 1.355 . S
C1196 C1198 1.419 . S
C1197 C1192 1.425 . S
C1197 C1194 1.409 . S
C1197 C1195 1.415 . S
C1198 H1188 0.930 . S
C1198 C1196 1.419 . S
C1198 C1199 1.362 . S
C1199 H1189 0.930 . S
C1199 C1192 1.409 . S
C1199 C1198 1.362 . S
H1200 C1206 0.930 . S
H1201 C1209 0.930 . S
H1202 C1210 0.930 . S
H1203 C1211 0.930 . S
H1204 C1214 0.930 . S
H1205 C1215 0.930 . S
C1206 H1200 0.930 . S
C1206 C1207 1.355 . S
C1206 C1208 1.415 . S
C1207 C1206 1.355 . S
C1207 C1209 1.419 . S
C1208 C1206 1.415 . S
C1208 C1213 1.425 . S
C1208 C1215 1.409 . S
C1209 H1201 0.930 . S
C1209 C1207 1.419 . S
C1209 C1210 1.362 . S
C1210 H1202 0.930 . S
C1210 C1209 1.362 . S
C1210 C1213 1.409 . S
C1211 H1203 0.930 . S
C1211 C1212 1.355 . S
C1211 C1213 1.415 . S
C1212 C1211 1.355 . S
C1212 C1214 1.419 . S
C1213 C1208 1.425 . S
C1213 C1210 1.409 . S
C1213 C1211 1.415 . S
C1214 H1204 0.930 . S
C1214 C1212 1.419 . S
C1214 C1215 1.362 . S
C1215 H1205 0.930 . S
C1215 C1208 1.409 . S
C1215 C1214 1.362 . S
H1216 C1222 0.930 . S
H1217 C1225 0.930 . S
H1218 C1226 0.930 . S
H1219 C1227 0.930 . S
H1220 C1230 0.930 . S
H1221 C1231 0.930 . S
C1222 H1216 0.930 . S
C1222 C1223 1.355 . S
C1222 C1224 1.415 . S
C1223 C1222 1.355 . S
C1223 C1225 1.419 . S
C1224 C1222 1.415 . S
C1224 C1229 1.425 . S
C1224 C1231 1.409 . S
C1225 H1217 0.930 . S
C1225 C1223 1.419 . S
C1225 C1226 1.362 . S
C1226 H1218 0.930 . S
C1226 C1225 1.362 . S
C1226 C1229 1.409 . S
C1227 H1219 0.930 . S
C1227 C1228 1.355 . S
C1227 C1229 1.415 . S
C1228 C1227 1.355 . S
C1228 C1230 1.419 . S
C1229 C1224 1.425 . S
C1229 C1226 1.409 . S
C1229 C1227 1.415 . S
C1230 H1220 0.930 . S
C1230 C1228 1.419 . S
C1230 C1231 1.362 . S
C1231 H1221 0.930 . S
C1231 C1224 1.409 . S
C1231 C1230 1.362 . S
H1232 C1238 0.930 . S
H1233 C1241 0.930 . S
H1234 C1242 0.930 . S
H1235 C1243 0.930 . S
H1236 C1246 0.930 . S
H1237 C1247 0.930 . S
C1238 H1232 0.930 . S
C1238 C1239 1.355 1_556 S
C1238 C1240 1.415 . S
C1239 C1238 1.355 1_554 S
C1239 C1241 1.419 . S
C1240 C1238 1.415 . S
C1240 C1245 1.425 . S
C1240 C1247 1.409 . S
C1241 H1233 0.930 . S
C1241 C1239 1.419 . S
C1241 C1242 1.362 . S
C1242 H1234 0.930 . S
C1242 C1241 1.362 . S
C1242 C1245 1.409 1_554 S
C1243 H1235 0.930 . S
C1243 C1244 1.355 . S
C1243 C1245 1.415 1_655 S
C1244 C1243 1.355 . S
C1244 C1246 1.419 . S
C1245 C1240 1.425 . S
C1245 C1242 1.409 1_556 S
C1245 C1243 1.415 1_455 S
C1246 H1236 0.930 . S
C1246 C1244 1.419 . S
C1246 C1247 1.362 1_655 S
C1247 H1237 0.930 . S
C1247 C1240 1.409 . S
C1247 C1246 1.362 1_455 S
H1248 C1254 0.930 1_554 S
H1249 C1257 0.930 . S
H1250 C1258 0.930 . S
H1251 C1259 0.930 . S
H1252 C1262 0.930 . S
H1253 C1263 0.950 . S
C1254 H1248 0.930 1_556 S
C1254 C1255 1.355 . S
C1254 C1256 1.415 1_565 S
C1255 C1254 1.355 . S
C1255 C1257 1.419 . S
C1256 C1254 1.415 1_545 S
C1256 C1261 1.425 . S
C1256 C1263 1.409 1_556 S
C1257 H1249 0.930 . S
C1257 C1255 1.419 . S
C1257 C1258 1.362 1_565 S
C1258 H1250 0.930 . S
C1258 C1257 1.362 1_545 S
C1258 C1261 1.409 . S
C1259 H1251 0.930 . S
C1259 C1260 1.355 1_556 S
C1259 C1261 1.415 . S
C1260 C1259 1.355 1_554 S
C1260 C1262 1.419 . S
C1261 C1256 1.425 . S
C1261 C1258 1.409 . S
C1261 C1259 1.415 . S
C1262 H1252 0.930 . S
C1262 C1260 1.419 . S
C1262 C1263 1.362 . S
C1263 H1253 0.950 . S
C1263 C1256 1.409 1_554 S
C1263 C1262 1.362 . S
H1264 C1270 0.930 . S
H1265 C1273 0.930 . S
H1266 C1274 0.930 . S
H1267 C1275 0.930 1_554 S
H1268 C1278 0.930 . S
H1269 C1279 0.930 . S
C1270 H1264 0.930 . S
C1270 C1271 1.355 1_556 S
C1270 C1272 1.415 . S
C1271 C1270 1.355 1_554 S
C1271 C1273 1.419 . S
C1272 C1270 1.415 . S
C1272 C1277 1.425 . S
C1272 C1279 1.409 . S
C1273 H1265 0.930 . S
C1273 C1271 1.419 . S
C1273 C1274 1.362 . S
C1274 H1266 0.930 . S
C1274 C1273 1.362 . S
C1274 C1277 1.409 1_554 S
C1275 H1267 0.930 1_556 S
C1275 C1276 1.355 . S
C1275 C1277 1.415 . S
C1276 C1275 1.355 . S
C1276 C1278 1.419 . S
C1277 C1272 1.425 . S
C1277 C1274 1.409 1_556 S
C1277 C1275 1.415 . S
C1278 H1268 0.930 . S
C1278 C1276 1.419 . S
C1278 C1279 1.362 . S
C1279 H1269 0.930 . S
C1279 C1272 1.409 . S
C1279 C1278 1.362 . S
H1280 C1286 0.930 . S
H1281 C1289 0.930 . S
H1282 C1290 0.930 . S
H1283 C1291 0.930 . S
H1284 C1294 0.930 . S
H1285 C1295 0.930 . S
C1286 H1280 0.930 . S
C1286 C1287 1.355 . S
C1286 C1288 1.415 . S
C1287 C1286 1.355 . S
C1287 C1289 1.419 . S
C1288 C1286 1.415 . S
C1288 C1293 1.425 . S
C1288 C1295 1.409 1_556 S
C1289 H1281 0.930 . S
C1289 C1287 1.419 . S
C1289 C1290 1.362 . S
C1290 H1282 0.930 . S
C1290 C1289 1.362 . S
C1290 C1293 1.409 . S
C1291 H1283 0.930 . S
C1291 C1292 1.355 1_556 S
C1291 C1293 1.415 . S
C1292 C1291 1.355 1_554 S
C1292 C1294 1.419 . S
C1293 C1288 1.425 . S
C1293 C1290 1.409 . S
C1293 C1291 1.415 . S
C1294 H1284 0.930 . S
C1294 C1292 1.419 . S
C1294 C1295 1.362 . S
C1295 H1285 0.930 . S
C1295 C1288 1.409 1_554 S
C1295 C1294 1.362 . S
H1296 C1302 0.900 1_565 S
H1297 C1305 0.930 . S
H1298 C1306 0.930 . S
H1299 C1307 0.930 . S
H1300 C1310 0.930 . S
H1301 C1311 0.930 1_565 S
C1302 H1296 0.900 1_545 S
C1302 C1303 1.369 . S
C1302 C1304 1.431 . S
C1303 C1302 1.369 . S
C1303 C1305 1.419 . S
C1304 C1302 1.431 . S
C1304 C1309 1.425 . S
C1304 C1311 1.409 1_455 S
C1305 H1297 0.930 . S
C1305 C1303 1.419 . S
C1305 C1306 1.362 . S
C1306 H1298 0.930 . S
C1306 C1305 1.362 . S
C1306 C1309 1.409 . S
C1307 H1299 0.930 . S
C1307 C1308 1.355 . S
C1307 C1309 1.415 1_655 S
C1308 C1307 1.355 . S
C1308 C1310 1.419 . S
C1309 C1304 1.425 . S
C1309 C1306 1.409 . S
C1309 C1307 1.415 1_455 S
C1310 H1300 0.930 . S
C1310 C1308 1.419 . S
C1310 C1311 1.362 . S
C1311 H1301 0.930 1_545 S
C1311 C1304 1.409 1_655 S
C1311 C1310 1.362 . S
H1312 C1318 0.930 . S
H1313 C1321 0.930 . S
H1314 C1322 0.930 . S
H1315 C1323 0.930 . S
H1316 C1326 0.930 . S
H1317 C1327 0.930 . S
C1318 H1312 0.930 . S
C1318 C1319 1.355 . S
C1318 C1320 1.415 . S
C1319 C1318 1.355 . S
C1319 C1321 1.419 . S
C1320 C1318 1.415 . S
C1320 C1325 1.425 . S
C1320 C1327 1.409 1_545 S
C1321 H1313 0.930 . S
C1321 C1319 1.419 . S
C1321 C1322 1.362 . S
C1322 H1314 0.930 . S
C1322 C1321 1.362 . S
C1322 C1325 1.409 . S
C1323 H1315 0.930 . S
C1323 C1324 1.355 . S
C1323 C1325 1.415 1_565 S
C1324 C1323 1.355 . S
C1324 C1326 1.419 . S
C1325 C1320 1.425 . S
C1325 C1322 1.409 . S
C1325 C1323 1.415 1_545 S
C1326 H1316 0.930 . S
C1326 C1324 1.419 . S
C1326 C1327 1.362 . S
C1327 H1317 0.930 . S
C1327 C1320 1.409 1_565 S
C1327 C1326 1.362 . S
H1328 C1334 0.930 . S
H1329 C1337 0.930 . S
H1330 C1338 0.930 . S
H1331 C1339 0.930 . S
H1332 C1342 0.930 . S
H1333 C1343 0.930 . S
C1334 H1328 0.930 . S
C1334 C1335 1.355 . S
C1334 C1336 1.415 . S
C1335 C1334 1.355 . S
C1335 C1337 1.419 . S
C1336 C1334 1.415 . S
C1336 C1341 1.425 . S
C1336 C1343 1.409 . S
C1337 H1329 0.930 . S
C1337 C1335 1.419 . S
C1337 C1338 1.362 . S
C1338 H1330 0.930 . S
C1338 C1337 1.362 . S
C1338 C1341 1.409 . S
C1339 H1331 0.930 . S
C1339 C1340 1.355 . S
C1339 C1341 1.415 . S
C1340 C1339 1.355 . S
C1340 C1342 1.419 . S
C1341 C1336 1.425 . S
C1341 C1338 1.409 . S
C1341 C1339 1.415 . S
C1342 H1332 0.930 . S
C1342 C1340 1.419 . S
C1342 C1343 1.362 . S
C1343 H1333 0.930 . S
C1343 C1336 1.409 . S
C1343 C1342 1.362 . S
H1344 C1350 0.930 1_655 S
H1345 C1353 0.930 . S
H1346 C1354 0.930 . S
H1347 C1355 0.930 . S
H1348 C1358 0.930 . S
H1349 C1359 0.930 1_655 S
C1350 H1344 0.930 1_455 S
C1350 C1351 1.355 . S
C1350 C1352 1.415 . S
C1351 C1350 1.355 . S
C1351 C1353 1.419 . S
C1352 C1350 1.415 . S
C1352 C1357 1.425 . S
C1352 C1359 1.409 . S
C1353 H1345 0.930 . S
C1353 C1351 1.419 . S
C1353 C1354 1.362 . S
C1354 H1346 0.930 . S
C1354 C1353 1.362 . S
C1354 C1357 1.409 . S
C1355 H1347 0.930 . S
C1355 C1356 1.355 . S
C1355 C1357 1.415 . S
C1356 C1355 1.355 . S
C1356 C1358 1.419 . S
C1357 C1352 1.425 . S
C1357 C1354 1.409 . S
C1357 C1355 1.415 . S
C1358 H1348 0.930 . S
C1358 C1356 1.419 . S
C1358 C1359 1.362 . S
C1359 H1349 0.930 1_455 S
C1359 C1352 1.409 . S
C1359 C1358 1.362 . S
C855 C38 2.566 . S
C860 C144 2.545 . S
C871 C91 2.563 . S
C876 C197 2.550 . S
C887 C250 2.568 . S
C892 C356 2.538 . S
C903 C409 2.567 . S
C908 C303 2.543 . S
C919 C453 1.092 . S
C924 C559 1.065 . S
C935 C612 1.083 . S
C940 C506 1.076 . S
C951 C771 1.087 . S
C956 C665 1.072 . S
C967 C824 1.056 . S
C972 C718 1.098 . S
C983 C410 2.431 . S
C988 C39 2.425 . S
C999 C92 2.451 . S
C1004 C251 2.447 . S
C1015 C304 2.453 . S
C1020 C145 2.453 . S
C1031 C198 2.417 . S
C1036 C357 2.415 . S
C1047 C817 1.065 . S
C1052 C446 1.071 1_455 S
C1063 C499 1.160 1_545 S
C1068 C658 1.170 1_455 S
C1079 C552 1.059 . S
C1084 C711 1.059 1_545 S
C1095 C764 1.183 . S
C1100 C605 1.176 . S
C1111 C29 0.800 . S
C1116 C241 0.864 . S
C1127 C82 0.886 . S
C1132 C294 0.833 . S
C1143 C347 0.792 . S
C1148 C135 0.768 . S
C1159 C188 0.773 . S
C1164 C400 0.827 . S
C1175 C674 1.368 . S
C1180 C462 1.334 . S
C1191 C727 1.334 . S
C1196 C515 1.374 . S
C1207 C568 1.357 . S
C1212 C780 1.341 . S
C1223 C621 1.352 . S
C1228 C833 1.367 . S
C1239 C22 2.260 . S
C1244 C463 2.264 . S
C1255 C516 2.273 . S
C1260 C75 2.270 1_455 S
C1271 C128 2.245 1_545 S
C1276 C569 2.248 . S
C1287 C622 2.249 . S
C1292 C181 2.246 . S
C1303 C234 2.298 1_545 S
C1308 C675 2.301 . S
C1319 C287 2.301 . S
C1324 C728 2.303 . S
C1335 C781 2.278 . S
C1340 C340 2.277 . S
C1351 C393 2.299 1_455 S
C1356 C834 2.302 . S
