# Generated by pormake.
# Topology fnj, (5)-cn, num edge types: 1
# Building blocks:
#     Node 0, Type 0, BuildingBlock: XOMCOT_clean_sbu_0, # of connection points: 5
#     Node 1, Type 0, BuildingBlock: XOMCOT_clean_sbu_0, # of connection points: 5
#     Node 2, Type 0, BuildingBlock: XOMCOT_clean_sbu_0, # of connection points: 5
#     Node 3, Type 0, BuildingBlock: XOMCOT_clean_sbu_0, # of connection points: 5
#     Node 4, Type 0, BuildingBlock: XOMCOT_clean_sbu_0, # of connection points: 5
#     Node 5, Type 0, BuildingBlock: XOMCOT_clean_sbu_0, # of connection points: 5
#     Node 6, Type 0, BuildingBlock: XOMCOT_clean_sbu_0, # of connection points: 5
#     Node 7, Type 0, BuildingBlock: XOMCOT_clean_sbu_0, # of connection points: 5
#     Node 8, Type 0, BuildingBlock: XOMCOT_clean_sbu_0, # of connection points: 5
#     Node 9, Type 0, BuildingBlock: XOMCOT_clean_sbu_0, # of connection points: 5
#     Node 10, Type 0, BuildingBlock: XOMCOT_clean_sbu_0, # of connection points: 5
#     Node 11, Type 0, BuildingBlock: XOMCOT_clean_sbu_0, # of connection points: 5
#     Node 12, Type 0, BuildingBlock: XOMCOT_clean_sbu_0, # of connection points: 5
#     Node 13, Type 0, BuildingBlock: XOMCOT_clean_sbu_0, # of connection points: 5
#     Node 14, Type 0, BuildingBlock: XOMCOT_clean_sbu_0, # of connection points: 5
#     Node 15, Type 0, BuildingBlock: XOMCOT_clean_sbu_0, # of connection points: 5
#     Edge 16, Type (0, 0), BuildingBlock: TEMPAE_clean_linker_10, # of connection points: 2
#     Edge 17, Type (0, 0), BuildingBlock: TEMPAE_clean_linker_10, # of connection points: 2
#     Edge 18, Type (0, 0), BuildingBlock: TEMPAE_clean_linker_10, # of connection points: 2
#     Edge 19, Type (0, 0), BuildingBlock: TEMPAE_clean_linker_10, # of connection points: 2
#     Edge 20, Type (0, 0), BuildingBlock: TEMPAE_clean_linker_10, # of connection points: 2
#     Edge 21, Type (0, 0), BuildingBlock: TEMPAE_clean_linker_10, # of connection points: 2
#     Edge 22, Type (0, 0), BuildingBlock: TEMPAE_clean_linker_10, # of connection points: 2
#     Edge 23, Type (0, 0), BuildingBlock: TEMPAE_clean_linker_10, # of connection points: 2
#     Edge 24, Type (0, 0), BuildingBlock: TEMPAE_clean_linker_10, # of connection points: 2
#     Edge 25, Type (0, 0), BuildingBlock: TEMPAE_clean_linker_10, # of connection points: 2
#     Edge 26, Type (0, 0), BuildingBlock: TEMPAE_clean_linker_10, # of connection points: 2
#     Edge 27, Type (0, 0), BuildingBlock: TEMPAE_clean_linker_10, # of connection points: 2
#     Edge 28, Type (0, 0), BuildingBlock: TEMPAE_clean_linker_10, # of connection points: 2
#     Edge 29, Type (0, 0), BuildingBlock: TEMPAE_clean_linker_10, # of connection points: 2
#     Edge 30, Type (0, 0), BuildingBlock: TEMPAE_clean_linker_10, # of connection points: 2
#     Edge 31, Type (0, 0), BuildingBlock: TEMPAE_clean_linker_10, # of connection points: 2
#     Edge 32, Type (0, 0), BuildingBlock: TEMPAE_clean_linker_10, # of connection points: 2
#     Edge 33, Type (0, 0), BuildingBlock: TEMPAE_clean_linker_10, # of connection points: 2
#     Edge 34, Type (0, 0), BuildingBlock: TEMPAE_clean_linker_10, # of connection points: 2
#     Edge 35, Type (0, 0), BuildingBlock: TEMPAE_clean_linker_10, # of connection points: 2
#     Edge 36, Type (0, 0), BuildingBlock: TEMPAE_clean_linker_10, # of connection points: 2
#     Edge 37, Type (0, 0), BuildingBlock: TEMPAE_clean_linker_10, # of connection points: 2
#     Edge 38, Type (0, 0), BuildingBlock: TEMPAE_clean_linker_10, # of connection points: 2
#     Edge 39, Type (0, 0), BuildingBlock: TEMPAE_clean_linker_10, # of connection points: 2
#     Edge 40, Type (0, 0), BuildingBlock: TEMPAE_clean_linker_10, # of connection points: 2
#     Edge 41, Type (0, 0), BuildingBlock: TEMPAE_clean_linker_10, # of connection points: 2
#     Edge 42, Type (0, 0), BuildingBlock: TEMPAE_clean_linker_10, # of connection points: 2
#     Edge 43, Type (0, 0), BuildingBlock: TEMPAE_clean_linker_10, # of connection points: 2
#     Edge 44, Type (0, 0), BuildingBlock: TEMPAE_clean_linker_10, # of connection points: 2
#     Edge 45, Type (0, 0), BuildingBlock: TEMPAE_clean_linker_10, # of connection points: 2
#     Edge 46, Type (0, 0), BuildingBlock: TEMPAE_clean_linker_10, # of connection points: 2
#     Edge 47, Type (0, 0), BuildingBlock: TEMPAE_clean_linker_10, # of connection points: 2
#     Edge 48, Type (0, 0), BuildingBlock: TEMPAE_clean_linker_10, # of connection points: 2
#     Edge 49, Type (0, 0), BuildingBlock: TEMPAE_clean_linker_10, # of connection points: 2
#     Edge 50, Type (0, 0), BuildingBlock: TEMPAE_clean_linker_10, # of connection points: 2
#     Edge 51, Type (0, 0), BuildingBlock: TEMPAE_clean_linker_10, # of connection points: 2
#     Edge 52, Type (0, 0), BuildingBlock: TEMPAE_clean_linker_10, # of connection points: 2
#     Edge 53, Type (0, 0), BuildingBlock: TEMPAE_clean_linker_10, # of connection points: 2
#     Edge 54, Type (0, 0), BuildingBlock: TEMPAE_clean_linker_10, # of connection points: 2
#     Edge 55, Type (0, 0), BuildingBlock: TEMPAE_clean_linker_10, # of connection points: 2
# Relax obj value: 0.071
# Max RMSD: 0.155
# Mean RMSD: 0.154
data_MOF--net-fnj--node1-XOMCOT_clean_sbu_0--edge1-TEMPAE_clean_linker_10
_symmetry_space_group_name_H-M    P1
_symmetry_Int_Tables_number       1
_symmetry_cell_setting            triclinic
loop_
_symmetry_equiv_pos_as_xyz
'x, y, z'
_cell_length_a     77.988004
_cell_length_b     77.987719
_cell_length_c     17.8023
_cell_angle_alpha  90.852022
_cell_angle_beta   90.879301
_cell_angle_gamma 90.066684
loop_
_atom_site_label
_atom_site_type_symbol
_atom_site_fract_x
_atom_site_fract_y
_atom_site_fract_z
_atom_type_partial_charge
Co0 Co 0.37593 0.00465 0.02511 0.0
C1 C 0.37557 0.00736 0.85777 0.0
C2 C 0.36305 0.02887 0.90855 0.0
C3 C 0.36186 0.03038 0.83167 0.0
N4 N 0.37213 0.01465 0.9256 0.0
N5 N 0.36967 0.0168 0.7999 0.0
H6 H 0.38176 0.99508 0.85021 0.0
H7 H 0.35672 0.03718 0.94813 0.0
C8 C 0.37265 0.04212 0.07554 0.0
O9 O 0.38591 0.04719 0.03702 0.0
N10 N 0.37944 0.99451 0.12302 0.0
C11 C 0.39091 0.98216 0.13938 0.0
C12 C 0.39158 0.98012 0.21608 0.0
C13 C 0.37311 0.99968 0.18996 0.0
N14 N 0.38044 0.99118 0.24784 0.0
C15 C 0.41011 0.00407 0.97133 0.0
C16 C 0.42536 0.02083 0.09269 0.0
C17 C 0.43588 0.0134 0.03767 0.0
C18 C 0.42791 0.0051 0.97605 0.0
C19 C 0.40751 0.01923 0.08636 0.0
N20 N 0.40005 0.01106 0.02572 0.0
H21 H 0.40454 0.99652 0.92628 0.0
H22 H 0.39975 0.02386 0.13209 0.0
H23 H 0.39885 0.97567 0.09861 0.0
H24 H 0.36405 0.01007 0.19674 0.0
O25 O 0.37782 0.98226 0.97822 0.0
O26 O 0.35364 0.99426 0.01732 0.0
O27 O 0.36816 0.0264 0.07583 0.0
C28 C 0.36124 0.9814 0.98458 0.0
H29 H 0.355 0.04025 0.80145 0.0
H30 H 0.39994 0.97147 0.24632 0.0
H31 H 0.43082 0.0274 0.14143 0.0
H32 H 0.43531 0.99854 0.93347 0.0
Co33 Co 0.25486 0.13427 0.28222 0.0
C34 C 0.25314 0.13197 0.11378 0.0
C35 C 0.23509 0.11521 0.16443 0.0
C36 C 0.23375 0.11316 0.0876 0.0
N37 N 0.24676 0.12756 0.18127 0.0
N38 N 0.24516 0.12368 0.056 0.0
H39 H 0.26386 0.14045 0.10617 0.0
H40 H 0.22843 0.1076 0.20497 0.0
C41 C 0.21665 0.13033 0.3047 0.0
O42 O 0.21362 0.14065 0.24835 0.0
N43 N 0.26304 0.14037 0.38223 0.0
C44 C 0.27353 0.15353 0.40117 0.0
C45 C 0.27502 0.15447 0.47836 0.0
C46 C 0.25852 0.13329 0.44782 0.0
N47 N 0.26558 0.14174 0.50751 0.0
C48 C 0.25744 0.16741 0.21796 0.0
C49 C 0.23701 0.18475 0.31891 0.0
C50 C 0.24694 0.19421 0.26895 0.0
C51 C 0.25677 0.18522 0.21661 0.0
C52 C 0.238 0.16673 0.31817 0.0
N53 N 0.24823 0.15822 0.26812 0.0
H54 H 0.2667 0.16129 0.1828 0.0
H55 H 0.23157 0.15979 0.36161 0.0
H56 H 0.2793 0.16213 0.36167 0.0
H57 H 0.24977 0.12257 0.45195 0.0
O58 O 0.27795 0.13576 0.24532 0.0
O59 O 0.26611 0.11223 0.29028 0.0
O60 O 0.23209 0.12742 0.32606 0.0
C61 C 0.27935 0.1196 0.26079 0.0
H62 H 0.22556 0.10411 0.05738 0.0
H63 H 0.28237 0.16386 0.51062 0.0
H64 H 0.22946 0.19122 0.36127 0.0
H65 H 0.26469 0.19197 0.17717 0.0
Co66 Co 0.12796 0.0027 0.48177 0.0
C67 C 0.12843 0.0067 0.65035 0.0
C68 C 0.15049 0.01743 0.59828 0.0
C69 C 0.15266 0.01887 0.67492 0.0
N70 N 0.13523 0.00992 0.5825 0.0
N71 N 0.13878 0.01211 0.70752 0.0
H72 H 0.11669 0.9998 0.65895 0.0
H73 H 0.15967 0.02119 0.55662 0.0
C74 C 0.13236 0.04097 0.47458 0.0
O75 O 0.1238 0.04253 0.53731 0.0
N76 N 0.12134 0.99547 0.38135 0.0
C77 C 0.10985 0.98319 0.36234 0.0
C78 C 0.10896 0.9818 0.28514 0.0
C79 C 0.12727 0.00141 0.3159 0.0
N80 N 0.11989 0.99329 0.25614 0.0
C81 C 0.09477 0.99775 0.54408 0.0
C82 C 0.07753 0.02205 0.46096 0.0
C83 C 0.0681 0.01136 0.50794 0.0
C84 C 0.07703 0.99924 0.55033 0.0
C85 C 0.09544 0.02034 0.45743 0.0
N86 N 0.10394 0.00847 0.49981 0.0
H87 H 0.10095 0.98722 0.57209 0.0
H88 H 0.10224 0.02793 0.41735 0.0
H89 H 0.10261 0.9758 0.40187 0.0
H90 H 0.13698 0.01128 0.31203 0.0
O91 O 0.12765 0.97903 0.51342 0.0
O92 O 0.15028 0.99228 0.46839 0.0
O93 O 0.13394 0.02622 0.4431 0.0
C94 C 0.14371 0.97834 0.49515 0.0
H95 H 0.16371 0.02424 0.70439 0.0
H96 H 0.10072 0.97318 0.25284 0.0
H97 H 0.07109 0.03137 0.42597 0.0
H98 H 0.07025 0.99027 0.58507 0.0
Co99 Co 0.25609 0.88095 0.72689 0.0
C100 C 0.25354 0.88114 0.8933 0.0
C101 C 0.2394 0.90165 0.84228 0.0
C102 C 0.23881 0.90375 0.91904 0.0
N103 N 0.24862 0.88751 0.82617 0.0
N104 N 0.24768 0.89088 0.95091 0.0
H105 H 0.26196 0.87024 0.8999 0.0
H106 H 0.23417 0.91031 0.80098 0.0
C107 C 0.22309 0.882 0.63158 0.0
O108 O 0.22757 0.86897 0.58855 0.0
N109 N 0.26381 0.87482 0.62686 0.0
C110 C 0.27474 0.86215 0.60766 0.0
C111 C 0.2772 0.86245 0.5313 0.0
C112 C 0.26029 0.88303 0.56212 0.0
N113 N 0.26796 0.87547 0.50275 0.0
C114 C 0.26443 0.84707 0.77182 0.0
C115 C 0.23266 0.83204 0.75081 0.0
C116 C 0.24671 0.82174 0.7709 0.0
C117 C 0.26262 0.8296 0.783 0.0
C118 C 0.23501 0.84974 0.74116 0.0
N119 N 0.25099 0.85692 0.7479 0.0
H120 H 0.27703 0.85244 0.78048 0.0
H121 H 0.22393 0.85743 0.72866 0.0
H122 H 0.2807 0.8533 0.64592 0.0
H123 H 0.25212 0.89421 0.55832 0.0
O124 O 0.27957 0.88158 0.76216 0.0
O125 O 0.26557 0.90372 0.71533 0.0
O126 O 0.23233 0.88655 0.68828 0.0
C127 C 0.27957 0.8977 0.74548 0.0
H128 H 0.23266 0.91416 0.94919 0.0
H129 H 0.28483 0.85351 0.49896 0.0
H130 H 0.22002 0.82649 0.74292 0.0
H131 H 0.27383 0.82219 0.79851 0.0
Co132 Co 0.62518 0.00352 0.04427 0.0
C133 C 0.6276 0.00231 0.21142 0.0
C134 C 0.64027 0.98091 0.15975 0.0
C135 C 0.64216 0.97971 0.23655 0.0
N136 N 0.63093 0.99496 0.14378 0.0
N137 N 0.63422 0.99318 0.26908 0.0
H138 H 0.6206 0.01415 0.21856 0.0
H139 H 0.64578 0.97233 0.11874 0.0
C140 C 0.62493 0.97233 0.93794 0.0
O141 O 0.61311 0.97881 0.89334 0.0
N142 N 0.6196 0.01253 0.94538 0.0
C143 C 0.6056 0.02176 0.92705 0.0
C144 C 0.60539 0.02439 0.85087 0.0
C145 C 0.62819 0.01043 0.88026 0.0
N146 N 0.61942 0.01701 0.82105 0.0
C147 C 0.593 0.01291 0.10641 0.0
C148 C 0.57319 0.98728 0.04121 0.0
C149 C 0.56496 1.00095 0.07817 0.0
C150 C 0.57528 0.01336 0.11427 0.0
C151 C 0.59112 0.98701 0.03681 0.0
N152 N 0.60078 1.00031 0.06507 0.0
H153 H 0.6003 0.02327 0.13151 0.0
H154 H 0.5969 0.9762 1.00949 0.0
H155 H 0.59587 0.02593 0.96572 0.0
H156 H 0.63986 0.00302 0.87549 0.0
O157 O 0.62779 0.02672 0.08186 0.0
O158 O 0.64865 0.01098 0.03362 0.0
O159 O 0.62874 0.97957 1.00108 0.0
C160 C 0.64387 0.02531 0.0651 0.0
H161 H 0.64928 0.96991 0.26607 0.0
H162 H 0.59537 0.03085 0.81954 0.0
H163 H 0.56592 0.97713 0.01346 0.0
H164 H 0.56976 0.02374 0.14686 0.0
Co165 Co 0.74554 0.88141 0.74953 0.0
C166 C 0.74951 0.88157 0.91794 0.0
C167 C 0.7616 0.90297 0.86635 0.0
C168 C 0.76298 0.90507 0.94303 0.0
N169 N 0.75333 0.88812 0.85022 0.0
N170 N 0.75537 0.89161 0.97533 0.0
H171 H 0.74176 0.87036 0.92626 0.0
H172 H 0.76578 0.91202 0.82498 0.0
C173 C 0.78375 0.88616 0.73656 0.0
O174 O 0.78624 0.87615 0.7944 0.0
N175 N 0.73778 0.87533 0.64913 0.0
C176 C 0.72516 0.86419 0.63034 0.0
C177 C 0.72357 0.86344 0.55318 0.0
C178 C 0.74375 0.88116 0.58353 0.0
N179 N 0.7353 0.87407 0.52396 0.0
C180 C 0.74147 0.84794 0.80947 0.0
C181 C 0.765 0.83116 0.72067 0.0
C182 C 0.75481 0.82148 0.76884 0.0
C183 C 0.74306 0.83019 0.81397 0.0
C184 C 0.76319 0.84909 0.71885 0.0
N185 N 0.75171 0.85736 0.76411 0.0
H186 H 0.7311 0.85387 0.83937 0.0
H187 H 0.77035 0.85615 0.67807 0.0
H188 H 0.71772 0.85703 0.66997 0.0
H189 H 0.75392 0.89054 0.57934 0.0
O190 O 0.72212 0.88049 0.78376 0.0
O191 O 0.73476 0.90367 0.74043 0.0
O192 O 0.76866 0.88818 0.70916 0.0
C193 C 0.72111 0.89666 0.76789 0.0
H194 H 0.76881 0.91586 0.97271 0.0
H195 H 0.71469 0.85545 0.521 0.0
H196 H 0.774 0.82491 0.68355 0.0
H197 H 0.7344 0.82324 0.84956 0.0
Co198 Co 0.87813 0.0086 0.5365 0.0
C199 C 0.87109 0.00914 0.36983 0.0
C200 C 0.87665 0.98397 0.41059 0.0
C201 C 0.87526 0.98308 0.33362 0.0
N202 N 0.87404 1.00029 0.43384 0.0
N203 N 0.87182 0.99888 0.30793 0.0
H204 H 0.86956 0.02291 0.36774 0.0
H205 H 0.88034 0.97351 0.44653 0.0
C206 C 0.87254 0.97689 0.63511 0.0
O207 O 0.88139 0.98329 0.6922 0.0
N208 N 0.8825 0.01715 0.63832 0.0
C209 C 0.89683 0.0254 0.66175 0.0
C210 C 0.89558 0.02916 0.73706 0.0
C211 C 0.87231 0.01683 0.69924 0.0
N212 N 0.88025 0.0236 0.76125 0.0
C213 C 0.9107 0.01289 0.47154 0.0
C214 C 0.92973 0.99212 0.56528 0.0
C215 C 0.93835 0.00275 0.51516 0.0
C216 C 0.92852 0.01281 0.46642 0.0
C217 C 0.91175 0.99267 0.56894 0.0
N218 N 0.90249 0.00346 0.52413 0.0
H219 H 0.90348 0.02117 0.43472 0.0
H220 H 0.90555 0.98499 0.60994 0.0
H221 H 0.90768 0.02821 0.62692 0.0
H222 H 0.8597 0.01101 0.69877 0.0
O223 O 0.87859 0.03213 0.50388 0.0
O224 O 0.85528 0.01835 0.53899 0.0
O225 O 0.87173 0.98468 0.57225 0.0
C226 C 0.86217 0.03246 0.5153 0.0
H227 H 0.87723 0.97176 0.29889 0.0
H228 H 0.90565 0.03479 0.77194 0.0
H229 H 0.93684 0.98406 0.60372 0.0
H230 H 0.93458 0.02089 0.42553 0.0
Co231 Co 0.75464 0.1304 0.25068 0.0
C232 C 0.75581 0.12817 0.08343 0.0
C233 C 0.7762 0.11399 0.13534 0.0
C234 C 0.77735 0.11202 0.05858 0.0
N235 N 0.76286 0.12433 0.15111 0.0
N236 N 0.76451 0.12091 0.02594 0.0
H237 H 0.74446 0.13593 0.07612 0.0
H238 H 0.78424 0.10779 0.17655 0.0
C239 C 0.78619 0.12984 0.35516 0.0
O240 O 0.78009 0.14159 0.40109 0.0
N241 N 0.74599 0.13629 0.34982 0.0
C242 C 0.73711 0.1505 0.3683 0.0
C243 C 0.73455 0.15078 0.4445 0.0
C244 C 0.74795 0.12766 0.4149 0.0
N245 N 0.74161 0.13658 0.47415 0.0
C246 C 0.74552 0.1627 0.18904 0.0
C247 C 0.77153 0.18221 0.25315 0.0
C248 C 0.75773 0.19057 0.21775 0.0
C249 C 0.74509 0.18044 0.18236 0.0
C250 C 0.77165 0.16425 0.25731 0.0
N251 N 0.7582 0.15474 0.22929 0.0
H252 H 0.73499 0.15555 0.1645 0.0
H253 H 0.7824 0.15832 0.28458 0.0
H254 H 0.73307 0.16031 0.32973 0.0
H255 H 0.75506 0.1158 0.4196 0.0
O256 O 0.73131 0.12819 0.21426 0.0
O257 O 0.74676 0.10709 0.26222 0.0
O258 O 0.77866 0.12642 0.29228 0.0
C259 C 0.73245 0.11211 0.23128 0.0
H260 H 0.78661 0.10419 0.02915 0.0
H261 H 0.72835 0.16094 0.47599 0.0
H262 H 0.78183 0.18945 0.28006 0.0
H263 H 0.73454 0.18619 0.15154 0.0
Co264 Co 0.87443 0.50269 0.53556 0.0
C265 C 0.8739 0.50592 0.36778 0.0
C266 C 0.85514 0.52189 0.42033 0.0
C267 C 0.85342 0.52349 0.34363 0.0
N268 N 0.86841 0.51133 0.43599 0.0
N269 N 0.86517 0.51336 0.31086 0.0
H270 H 0.88347 0.4962 0.35885 0.0
H271 H 0.84678 0.52755 0.46172 0.0
C272 C 0.87106 0.54074 0.56087 0.0
O273 O 0.87992 0.54358 0.50009 0.0
N274 N 0.87989 0.49397 0.63425 0.0
C275 C 0.89276 0.48318 0.65196 0.0
C276 C 0.89381 0.48191 0.72902 0.0
C277 C 0.87308 0.49889 0.70049 0.0
N278 N 0.88144 0.49178 0.75931 0.0
C279 C 0.90787 0.49821 0.47631 0.0
C280 C 0.92499 0.52039 0.57383 0.0
C281 C 0.93449 0.50975 0.52587 0.0
C282 C 0.92567 0.4989 0.47552 0.0
C283 C 0.90703 0.5193 0.57281 0.0
N284 N 0.89863 0.50833 0.52402 0.0
H285 H 0.90174 0.48842 0.44234 0.0
H286 H 0.90007 0.52639 0.61497 0.0
H287 H 0.9012 0.47717 0.6118 0.0
H288 H 0.86275 0.50807 0.70582 0.0
O289 O 0.87475 0.47974 0.49413 0.0
O290 O 0.85181 0.49273 0.53997 0.0
O291 O 0.86872 0.52548 0.58342 0.0
C292 C 0.85841 0.47932 0.50703 0.0
H293 H 0.84374 0.53084 0.31413 0.0
H294 H 0.90312 0.4745 0.7605 0.0
H295 H 0.93138 0.52868 0.61484 0.0
H296 H 0.93252 0.49037 0.43792 0.0
Co297 Co 0.75237 0.63133 0.77301 0.0
C298 C 0.74987 0.63037 0.60474 0.0
C299 C 0.73214 0.61317 0.6549 0.0
C300 C 0.73055 0.61149 0.57804 0.0
N301 N 0.7438 0.6255 0.67209 0.0
N302 N 0.74176 0.62227 0.54677 0.0
H303 H 0.76044 0.63904 0.59733 0.0
H304 H 0.7257 0.60532 0.69528 0.0
C305 C 0.71397 0.62841 0.79612 0.0
O306 O 0.71104 0.63856 0.73907 0.0
N307 N 0.76098 0.63664 0.87307 0.0
C308 C 0.77219 0.6492 0.892 0.0
C309 C 0.77362 0.65016 0.96914 0.0
C310 C 0.75595 0.62993 0.93867 0.0
N311 N 0.7634 0.63807 0.99828 0.0
C312 C 0.75671 0.66479 0.71351 0.0
C313 C 0.73557 0.68227 0.81113 0.0
C314 C 0.74599 0.69169 0.76293 0.0
C315 C 0.7563 0.68263 0.71261 0.0
C316 C 0.73637 0.66424 0.81023 0.0
N317 N 0.74682 0.65565 0.76138 0.0
H318 H 0.76612 0.65853 0.67941 0.0
H319 H 0.72945 0.65734 0.85229 0.0
H320 H 0.77844 0.65745 0.8525 0.0
H321 H 0.74652 0.61981 0.94291 0.0
O322 O 0.77558 0.63184 0.73633 0.0
O323 O 0.76246 0.60868 0.77772 0.0
O324 O 0.72938 0.62528 0.81724 0.0
C325 C 0.77614 0.61552 0.74957 0.0
H326 H 0.72239 0.60247 0.54749 0.0
H327 H 0.7814 0.65921 1.00142 0.0
H328 H 0.72766 0.68877 0.85211 0.0
H329 H 0.76463 0.68933 0.67463 0.0
Co330 Co 0.62522 0.50398 1.00627 0.0
C331 C 0.62616 0.50654 0.17459 0.0
C332 C 0.64425 0.52332 0.12416 0.0
C333 C 0.64598 0.52492 0.201 0.0
N334 N 0.63138 0.51225 0.10718 0.0
N335 N 0.63464 0.5143 0.23242 0.0
H336 H 0.61689 0.49649 0.18217 0.0
H337 H 0.65234 0.52939 0.08355 0.0
C338 C 0.62852 0.5424 0.98634 0.0
O339 O 0.61875 0.54512 0.04484 0.0
N340 N 0.61959 0.49569 0.90609 0.0
C341 C 0.60676 0.48482 0.88696 0.0
C342 C 0.60572 0.48354 0.80979 0.0
C343 C 0.62639 0.50067 0.84062 0.0
N344 N 0.61805 0.4935 0.78089 0.0
C345 C 0.5918 0.4995 0.06614 0.0
C346 C 0.57439 0.52165 0.97268 0.0
C347 C 0.56494 0.51102 0.01991 0.0
C348 C 0.57397 0.50016 0.06808 0.0
C349 C 0.5924 0.52058 0.97246 0.0
N350 N 0.60096 0.50965 0.01941 0.0
H351 H 0.59802 0.48973 0.0985 0.0
H352 H 0.59927 0.52771 0.93102 0.0
H353 H 0.5984 0.47867 0.92633 0.0
H354 H 0.63674 0.50984 0.83657 0.0
O355 O 0.62469 0.48067 0.04177 0.0
O356 O 0.6478 0.49376 0.99986 0.0
O357 O 0.63129 0.52708 0.96306 0.0
C358 C 0.64096 0.48004 0.02762 0.0
H359 H 0.65536 0.53268 0.23144 0.0
H360 H 0.59649 0.47602 0.77732 0.0
H361 H 0.5679 0.52997 0.93326 0.0
H362 H 0.56727 0.49165 0.10522 0.0
Co363 Co 0.75314 0.37986 0.23247 0.0
C364 C 0.74978 0.38007 0.40003 0.0
C365 C 0.734 0.39907 0.34802 0.0
C366 C 0.73243 0.4007 0.42475 0.0
N367 N 0.74441 0.38572 0.33199 0.0
N368 N 0.74244 0.3888 0.45718 0.0
H369 H 0.7594 0.37038 0.4086 0.0
H370 H 0.72845 0.40758 0.30687 0.0
C371 C 0.71511 0.38354 0.20692 0.0
O372 O 0.7122 0.37459 0.26738 0.0
N373 N 0.76198 0.37454 0.1339 0.0
C374 C 0.77293 0.3618 0.11649 0.0
C375 C 0.77431 0.36076 0.03948 0.0
C376 C 0.75704 0.38129 0.06752 0.0
N377 N 0.76432 0.373 1.0089 0.0
C378 C 0.75751 0.34622 0.29041 0.0
C379 C 0.73484 0.32952 0.19381 0.0
C380 C 0.74514 0.31974 0.24235 0.0
C381 C 0.75643 0.32842 0.29154 0.0
C382 C 0.73634 0.34744 0.19443 0.0
N383 N 0.74745 0.35565 0.24316 0.0
H384 H 0.76747 0.3522 0.32399 0.0
H385 H 0.7293 0.35451 0.15251 0.0
H386 H 0.77901 0.35344 0.15682 0.0
H387 H 0.74775 0.3915 0.06192 0.0
O388 O 0.77605 0.37953 0.27461 0.0
O389 O 0.76306 0.40249 0.22883 0.0
O390 O 0.73039 0.38572 0.18428 0.0
C391 C 0.77642 0.3959 0.26217 0.0
H392 H 0.72522 0.41044 0.45453 0.0
H393 H 0.78185 0.35154 1.00823 0.0
H394 H 0.72606 0.32338 0.15408 0.0
H395 H 0.7652 0.32149 0.32779 0.0
Co396 Co 0.12369 0.50694 0.50879 0.0
C397 C 0.12329 0.50218 0.67603 0.0
C398 C 0.14475 0.4901 0.62353 0.0
C399 C 0.14676 0.48881 0.70016 0.0
N400 N 0.12993 0.49833 0.60794 0.0
N401 N 0.13328 0.49644 0.7331 0.0
H402 H 0.1121 0.50997 0.68485 0.0
H403 H 0.15387 0.48596 0.58188 0.0
C404 C 0.12701 0.46878 0.48819 0.0
O405 O 0.11976 0.46625 0.55325 0.0
N406 N 0.1181 0.51558 0.41019 0.0
C407 C 0.10755 0.52869 0.39357 0.0
C408 C 0.10681 0.53039 0.31654 0.0
C409 C 0.12363 0.50948 0.34345 0.0
N410 N 0.11687 0.51825 0.28518 0.0
C411 C 0.09062 0.51349 0.56885 0.0
C412 C 0.07265 0.48961 0.48286 0.0
C413 C 0.06361 0.50068 0.53083 0.0
C414 C 0.07287 0.51262 0.5745 0.0
C415 C 0.09056 0.49079 0.47951 0.0
N416 N 0.09939 0.50244 0.52334 0.0
H417 H 0.09716 0.5237 0.59893 0.0
H418 H 0.09709 0.48289 0.43879 0.0
H419 H 0.10073 0.53634 0.4345 0.0
H420 H 0.13252 0.49893 0.33755 0.0
O421 O 0.12484 0.52998 0.54938 0.0
O422 O 0.14669 0.51572 0.50045 0.0
O423 O 0.12818 0.48383 0.46183 0.0
C424 C 0.14106 0.52951 0.53374 0.0
H425 H 0.15756 0.48311 0.7294 0.0
H426 H 0.09915 0.53959 0.28595 0.0
H427 H 0.06593 0.48039 0.44706 0.0
H428 H 0.06638 0.52185 0.61015 0.0
Co429 Co 0.24772 0.38351 0.26474 0.0
C430 C 0.25195 0.38351 0.43308 0.0
C431 C 0.26392 0.40498 0.38153 0.0
C432 C 0.26524 0.40711 0.45822 0.0
N433 N 0.25577 0.39007 0.36533 0.0
N434 N 0.2577 0.39361 0.49051 0.0
H435 H 0.2442 0.37231 0.4414 0.0
H436 H 0.268 0.41409 0.34019 0.0
C437 C 0.28585 0.38869 0.24926 0.0
O438 O 0.28848 0.37953 0.3097 0.0
N439 N 0.23967 0.37763 0.16447 0.0
C440 C 0.22711 0.36642 0.1457 0.0
C441 C 0.22544 0.36572 0.06853 0.0
C442 C 0.24551 0.38357 0.09881 0.0
N443 N 0.23707 0.37646 0.03924 0.0
C444 C 0.2442 0.34993 0.32361 0.0
C445 C 0.26747 0.33352 0.23226 0.0
C446 C 0.2575 0.32368 0.28067 0.0
C447 C 0.24592 0.3322 0.32717 0.0
C448 C 0.26557 0.35145 0.23146 0.0
N449 N 0.25418 0.35951 0.27779 0.0
H450 H 0.23392 0.3557 0.35456 0.0
H451 H 0.27255 0.35864 0.19055 0.0
H452 H 0.2198 0.35913 0.18534 0.0
H453 H 0.25563 0.39299 0.09454 0.0
O454 O 0.2245 0.38215 0.30047 0.0
O455 O 0.23664 0.40571 0.258 0.0
O456 O 0.27065 0.39041 0.22257 0.0
C457 C 0.22323 0.39836 0.28618 0.0
H458 H 0.27093 0.41797 0.48791 0.0
H459 H 0.21663 0.35766 0.03639 0.0
H460 H 0.27634 0.3274 0.19413 0.0
H461 H 0.23743 0.32512 0.36305 0.0
Co462 Co 0.37517 0.514 0.04995 0.0
C463 C 0.3736 0.51179 0.88144 0.0
C464 C 0.35469 0.49606 0.93263 0.0
C465 C 0.35279 0.49448 0.85583 0.0
N466 N 0.36814 0.50646 0.94906 0.0
N467 N 0.36466 0.50444 0.82394 0.0
H468 H 0.3835 0.52118 0.87339 0.0
H469 H 0.34647 0.49032 0.97369 0.0
C470 C 0.37112 0.47558 0.06485 0.0
O471 O 0.38044 0.47315 1.00474 0.0
N472 N 0.38163 0.52152 0.15026 0.0
C473 C 0.39507 0.53161 0.16971 0.0
C474 C 0.39624 0.5326 0.24694 0.0
C475 C 0.37461 0.51675 0.21554 0.0
N476 N 0.38337 0.52327 0.27549 0.0
C477 C 0.40834 0.51797 0.98598 0.0
C478 C 0.42556 0.49445 0.07335 0.0
C479 C 0.435 0.50455 0.02395 0.0
C480 C 0.42605 0.51629 0.97952 0.0
C481 C 0.40768 0.49637 0.07732 0.0
N482 N 0.39917 0.50785 0.03287 0.0
H483 H 0.40229 0.52836 0.95684 0.0
H484 H 0.40089 0.48932 0.11929 0.0
H485 H 0.40368 0.53746 0.13051 0.0
H486 H 0.36371 0.50822 0.2192 0.0
O487 O 0.37587 0.53752 0.01687 0.0
O488 O 0.35292 0.52465 0.0612 0.0
O489 O 0.36889 0.49076 0.09105 0.0
C490 C 0.35975 0.53843 0.03397 0.0
H491 H 0.34305 0.48711 0.82571 0.0
H492 H 0.40586 0.53954 0.27967 0.0
H493 H 0.43198 0.48543 0.10992 0.0
H494 H 0.43281 0.5249 0.94304 0.0
Co495 Co 0.24886 0.63213 0.77334 0.0
C496 C 0.25204 0.63344 0.60746 0.0
C497 C 0.26912 0.61515 0.65764 0.0
C498 C 0.26991 0.61332 0.58084 0.0
N499 N 0.25794 0.62774 0.67441 0.0
N500 N 0.25915 0.62477 0.54941 0.0
H501 H 0.2419 0.64281 0.6014 0.0
H502 H 0.27538 0.60704 0.69838 0.0
C503 C 0.28102 0.6331 0.87467 0.0
O504 O 0.27533 0.6458 0.91671 0.0
N505 N 0.2395 0.63607 0.87293 0.0
C506 C 0.22665 0.64681 0.89164 0.0
C507 C 0.224 0.64594 0.96774 0.0
C508 C 0.24396 0.62828 0.93777 0.0
N509 N 0.23503 0.63445 0.9968 0.0
C510 C 0.23795 0.66597 0.73958 0.0
C511 C 0.26821 0.68313 0.77084 0.0
C512 C 0.25319 0.69263 0.75788 0.0
C513 C 0.23816 0.68375 0.73876 0.0
C514 C 0.26744 0.66512 0.77061 0.0
N515 N 0.25212 0.65679 0.76031 0.0
H516 H 0.22596 0.65974 0.72612 0.0
H517 H 0.27915 0.65808 0.77929 0.0
H518 H 0.21957 0.65479 0.85324 0.0
H519 H 0.25369 0.61846 0.94208 0.0
O520 O 0.22596 0.63012 0.73212 0.0
O521 O 0.24121 0.6085 0.77644 0.0
O522 O 0.27256 0.62797 0.81656 0.0
C523 C 0.22713 0.61383 0.74441 0.0
H524 H 0.27732 0.60385 0.55037 0.0
H525 H 0.21505 0.65362 0.99966 0.0
H526 H 0.28029 0.68952 0.7832 0.0
H527 H 0.22644 0.69052 0.72467 0.0
C528 C 0.3733 0.02595 0.66906 0.0
C529 C 0.37065 0.01283 0.72063 0.0
C530 C 0.3745 0.02236 0.5917 0.0
C531 C 0.37266 0.00525 0.56488 0.0
C532 C 0.36965 0.99197 0.61668 0.0
C533 C 0.36887 0.9959 0.69399 0.0
C534 C 0.37807 0.03686 0.53882 0.0
C535 C 0.36726 0.97362 0.59047 0.0
C536 C 0.36227 0.99896 0.35591 0.0
C537 C 0.37833 0.99448 0.32723 0.0
C538 C 0.36013 0.00216 0.43329 0.0
C539 C 0.37448 0.00122 0.48298 0.0
C540 C 0.39074 0.99682 0.45407 0.0
C541 C 0.39242 0.99338 0.37684 0.0
C542 C 0.34253 0.00653 0.46189 0.0
C543 C 0.40645 0.99602 0.50458 0.0
H544 H 0.3748 0.03902 0.68965 0.0
H545 H 0.36657 0.98577 0.73361 0.0
H546 H 0.39022 0.03438 0.5089 0.0
H547 H 0.36771 0.03764 0.49563 0.0
H548 H 0.37911 0.04945 0.56856 0.0
H549 H 0.36419 0.96495 0.63737 0.0
H550 H 0.35676 0.97281 0.54777 0.0
H551 H 0.37911 0.96895 0.56326 0.0
H552 H 0.35133 0.99971 0.31784 0.0
H553 H 0.40491 0.99019 0.35485 0.0
H554 H 0.34264 0.01956 0.48772 0.0
H555 H 0.33888 0.99744 0.50628 0.0
H556 H 0.33258 0.0061 0.41655 0.0
H557 H 0.40862 0.00866 0.53258 0.0
H558 H 0.41817 0.99245 0.47332 0.0
H559 H 0.40448 0.98652 0.54939 0.0
C560 C 0.2346 0.12568 0.92525 0.0
C561 C 0.24833 0.12543 0.97691 0.0
C562 C 0.23736 0.12798 0.84821 0.0
C563 C 0.25433 0.12966 0.82188 0.0
C564 C 0.26829 0.12899 0.87375 0.0
C565 C 0.2651 0.1271 0.95077 0.0
C566 C 0.2221 0.12901 0.79526 0.0
C567 C 0.28658 0.13033 0.84794 0.0
C568 C 0.26139 0.12185 0.61251 0.0
C569 C 0.26279 0.13862 0.58608 0.0
C570 C 0.25891 0.1187 0.68925 0.0
C571 C 0.25741 0.13269 0.7405 0.0
C572 C 0.25861 0.14966 0.71378 0.0
C573 C 0.26146 0.15241 0.63715 0.0
C574 C 0.25804 0.10042 0.71559 0.0
C575 C 0.25668 0.16495 0.766 0.0
H576 H 0.22163 0.12453 0.94561 0.0
H577 H 0.27574 0.12669 0.9906 0.0
H578 H 0.22201 0.14161 0.76712 0.0
H579 H 0.22301 0.11899 0.75066 0.0
H580 H 0.20975 0.12739 0.82461 0.0
H581 H 0.29599 0.12857 0.89467 0.0
H582 H 0.28904 0.12052 0.8036 0.0
H583 H 0.28877 0.14307 0.82292 0.0
H584 H 0.26255 0.11118 0.57323 0.0
H585 H 0.2623 0.16539 0.61672 0.0
H586 H 0.2454 0.09795 0.74112 0.0
H587 H 0.26798 0.09826 0.75971 0.0
H588 H 0.25994 0.09099 0.66909 0.0
H589 H 0.24407 0.16443 0.7939 0.0
H590 H 0.25767 0.17732 0.73615 0.0
H591 H 0.26671 0.16467 0.81081 0.0
C592 C 0.12185 0.9827 0.12528 0.0
C593 C 0.12288 0.99628 0.17769 0.0
C594 C 0.12456 0.98541 0.04857 0.0
C595 C 0.12816 0.00215 0.02339 0.0
C596 C 0.12918 0.01593 0.07603 0.0
C597 C 0.12664 0.01281 0.15262 0.0
C598 C 0.12365 0.97032 0.9945 0.0
C599 C 0.13278 0.034 0.05136 0.0
C600 C 0.15007 0.00676 0.83534 0.0
C601 C 0.13613 0.00995 0.78682 0.0
C602 C 0.14767 0.00425 0.91243 0.0
C603 C 0.13094 0.00518 0.94198 0.0
C604 C 0.11683 0.00862 0.89343 0.0
C605 C 0.11959 0.01084 0.81635 0.0
C606 C 0.16301 1.00035 0.96203 0.0
C607 C 0.09883 0.00994 0.92291 0.0
H608 H 0.11917 0.96988 0.14456 0.0
H609 H 0.12725 0.02336 0.19282 0.0
H610 H 0.11345 0.97245 0.95155 0.0
H611 H 0.13594 0.96902 0.96439 0.0
H612 H 0.12096 0.95808 0.02325 0.0
H613 H 0.13307 0.04331 0.09925 0.0
H614 H 0.14529 0.03451 0.02263 0.0
H615 H 0.12281 0.03809 1.01028 0.0
H616 H 0.16285 0.00582 0.81263 0.0
H617 H 0.10883 0.01349 0.77914 0.0
H618 H 0.16132 0.98767 0.98841 0.0
H619 H 0.16412 0.01003 1.00813 0.0
H620 H 0.17518 1.0002 0.93043 0.0
H621 H 0.09502 0.99759 0.94794 0.0
H622 H 0.08933 0.01322 0.87823 0.0
H623 H 0.09829 0.01988 0.96808 0.0
C624 C 0.24918 0.88362 0.3965 0.0
C625 C 0.26545 0.87915 0.42431 0.0
C626 C 0.2462 0.8857 0.31911 0.0
C627 C 0.25992 0.88358 0.26852 0.0
C628 C 0.27651 0.87959 0.29671 0.0
C629 C 0.27901 0.87724 0.37417 0.0
C630 C 0.22827 0.88969 0.29139 0.0
C631 C 0.29157 0.87767 0.24501 0.0
C632 C 0.25042 0.87272 0.06267 0.0
C633 C 0.25121 0.8889 0.02992 0.0
C634 C 0.25302 0.87082 0.14045 0.0
C635 C 0.25694 0.8854 0.18606 0.0
C636 C 0.25813 0.90173 0.15274 0.0
C637 C 0.25505 0.9033 0.07524 0.0
C638 C 0.25132 0.85324 0.174 0.0
C639 C 0.26274 0.91752 0.19886 0.0
H640 H 0.23863 0.88487 0.43512 0.0
H641 H 0.29162 0.87391 0.39579 0.0
H642 H 0.22827 0.90172 0.25891 0.0
H643 H 0.22368 0.87929 0.2529 0.0
H644 H 0.21907 0.89111 0.3381 0.0
H645 H 0.30377 0.87533 0.27622 0.0
H646 H 0.28929 0.86682 0.20511 0.0
H647 H 0.29304 0.88941 0.2112 0.0
H648 H 0.24732 0.86164 0.02756 0.0
H649 H 0.25587 0.91578 0.04964 0.0
H650 H 0.24134 0.85347 0.2178 0.0
H651 H 0.26356 0.84952 0.20176 0.0
H652 H 0.24785 0.84328 0.13115 0.0
H653 H 0.25297 0.91978 0.24256 0.0
H654 H 0.26364 0.92917 0.16399 0.0
H655 H 0.27521 0.9156 0.22832 0.0
C656 C 0.6087 0.01258 0.69082 0.0
C657 C 0.62255 0.01421 0.74186 0.0
C658 C 0.61129 0.00942 0.61398 0.0
C659 C 0.62818 0.00795 0.58667 0.0
C660 C 0.64226 0.00964 0.63765 0.0
C661 C 0.63928 0.01263 0.71471 0.0
C662 C 0.59587 0.0074 0.56215 0.0
C663 C 0.66047 0.00829 0.61078 0.0
C664 C 0.63295 0.98364 0.40082 0.0
C665 C 0.63325 0.99698 0.34873 0.0
C666 C 0.63171 0.98703 0.47837 0.0
C667 C 0.63091 0.00422 0.50498 0.0
C668 C 0.6316 0.01777 0.45283 0.0
C669 C 0.63265 0.01399 0.37542 0.0
C670 C 0.63078 0.97218 0.53169 0.0
C671 C 0.631 0.03627 0.47876 0.0
H672 H 0.59572 0.01336 0.71126 0.0
H673 H 0.65003 0.0139 0.75366 0.0
H674 H 0.59638 0.01699 0.51681 0.0
H675 H 0.596 0.99451 0.53491 0.0
H676 H 0.58358 0.00899 0.59214 0.0
H677 H 0.67001 0.01048 0.65692 0.0
H678 H 0.66267 0.99539 0.5857 0.0
H679 H 0.66271 0.01779 0.56618 0.0
H680 H 0.63324 0.97047 0.3807 0.0
H681 H 0.63315 0.02436 0.33575 0.0
H682 H 0.61823 0.97231 0.56029 0.0
H683 H 0.64089 0.97342 0.57594 0.0
H684 H 0.63229 0.9596 0.5025 0.0
H685 H 0.61845 0.039 0.50485 0.0
H686 H 0.63283 0.0453 0.43186 0.0
H687 H 0.64107 0.03875 0.52227 0.0
C688 C 0.72465 0.87657 0.39339 0.0
C689 C 0.73833 0.87692 0.44545 0.0
C690 C 0.7274 0.8791 0.31657 0.0
C691 C 0.74429 0.8818 0.29097 0.0
C692 C 0.75816 0.88212 0.34329 0.0
C693 C 0.75499 0.87981 0.41998 0.0
C694 C 0.71223 0.87897 0.26284 0.0
C695 C 0.77637 0.88472 0.31816 0.0
C696 C 0.75265 0.8726 0.08416 0.0
C697 C 0.75278 0.88915 0.05448 0.0
C698 C 0.75012 0.87002 0.16117 0.0
C699 C 0.7474 0.88433 0.20946 0.0
C700 C 0.74743 0.90107 0.17969 0.0
C701 C 0.75023 0.90327 0.10269 0.0
C702 C 0.75039 0.85199 0.19088 0.0
C703 C 0.74431 0.91664 0.229 0.0
H704 H 0.71174 0.87454 0.41303 0.0
H705 H 0.7656 0.87988 0.45996 0.0
H706 H 0.71158 0.89128 0.2325 0.0
H707 H 0.71375 0.86862 0.22004 0.0
H708 H 0.69989 0.87699 0.29192 0.0
H709 H 0.78573 0.88449 0.3658 0.0
H710 H 0.77985 0.87455 0.27693 0.0
H711 H 0.77753 0.89719 0.28948 0.0
H712 H 0.75478 0.86168 0.04717 0.0
H713 H 0.75008 0.91606 0.07983 0.0
H714 H 0.73787 0.84894 0.21624 0.0
H715 H 0.76032 0.85091 0.23585 0.0
H716 H 0.75305 0.84228 0.14628 0.0
H717 H 0.73159 0.9156 0.25567 0.0
H718 H 0.74473 0.92877 0.19712 0.0
H719 H 0.75408 0.91733 0.27489 0.0
C720 C 0.85934 0.01569 0.20347 0.0
C721 C 0.87138 0.00381 0.23006 0.0
C722 C 0.85849 0.01992 0.1267 0.0
C723 C 0.87024 0.01239 0.07587 0.0
C724 C 0.88259 1.00061 0.10306 0.0
C725 C 0.88289 0.99636 0.1794 0.0
C726 C 0.84492 0.03226 0.09983 0.0
C727 C 0.89568 0.99259 0.05164 0.0
C728 C 0.86426 0.00948 0.86307 0.0
C729 C 0.87523 0.02255 0.83915 0.0
C730 C 0.86158 0.00672 0.94007 0.0
C731 C 0.87023 0.01712 0.99466 0.0
C732 C 0.8805 0.03092 0.97078 0.0
C733 C 0.88271 0.03356 0.89363 0.0
C734 C 0.85026 0.99204 0.96289 0.0
C735 C 0.89011 0.04225 0.02666 0.0
H736 H 0.85036 0.02135 0.24249 0.0
H737 H 0.89237 0.98736 0.19999 0.0
H738 H 0.85101 0.04352 0.07369 0.0
H739 H 0.83674 0.02595 0.05598 0.0
H740 H 0.83663 0.03686 0.14614 0.0
H741 H 0.90454 0.98383 0.0818 0.0
H742 H 0.88911 0.98524 1.00578 0.0
H743 H 0.90337 0.00277 0.02513 0.0
H744 H 0.85843 1.00083 0.82197 0.0
H745 H 0.89085 0.04396 0.87605 0.0
H746 H 0.84142 0.99624 1.00781 0.0
H747 H 0.85831 0.98158 0.98587 0.0
H748 H 0.84257 0.98678 0.91477 0.0
H749 H 0.88135 0.04719 0.07041 0.0
H750 H 0.89634 0.05332 0.99947 0.0
H751 H 0.90018 0.03462 0.05551 0.0
C752 C 0.74667 0.14716 0.60402 0.0
C753 C 0.74435 0.13337 0.55324 0.0
C754 C 0.7497 0.14448 0.68086 0.0
C755 C 0.75032 0.12756 0.70837 0.0
C756 C 0.74793 0.11353 0.6576 0.0
C757 C 0.74512 0.1166 0.58052 0.0
C758 C 0.7525 0.15981 0.73249 0.0
C759 C 0.74834 0.0953 0.68475 0.0
C760 C 0.77421 0.12164 0.89445 0.0
C761 C 0.76083 0.12208 0.94631 0.0
C762 C 0.77094 0.12302 0.81687 0.0
C763 C 0.75384 0.1247 0.79008 0.0
C764 C 0.74023 0.12477 0.84201 0.0
C765 C 0.7439 0.12358 0.91946 0.0
C766 C 0.78586 0.12316 0.76375 0.0
C767 C 0.72181 0.12632 0.81583 0.0
H768 H 0.7465 0.16015 0.58335 0.0
H769 H 0.74331 0.10591 0.54166 0.0
H770 H 0.74285 0.15987 0.77764 0.0
H771 H 0.76533 0.15903 0.75999 0.0
H772 H 0.7516 0.17215 0.70227 0.0
H773 H 0.74574 0.08584 0.63868 0.0
H774 H 0.76108 0.09247 0.7102 0.0
H775 H 0.73868 0.09358 0.72913 0.0
H776 H 0.78732 0.12065 0.9148 0.0
H777 H 0.73348 0.12365 0.95903 0.0
H778 H 0.78639 0.13567 0.73497 0.0
H779 H 0.78414 0.11309 0.71962 0.0
H780 H 0.79833 0.12103 0.79314 0.0
H781 H 0.71975 0.13897 0.7895 0.0
H782 H 0.71266 0.12501 0.86263 0.0
H783 H 0.71884 0.11634 0.77244 0.0
C784 C 0.86654 0.52391 0.18127 0.0
C785 C 0.86712 0.51024 0.23145 0.0
C786 C 0.86868 0.52115 0.10373 0.0
C787 C 0.87099 0.50424 0.07545 0.0
C788 C 0.87122 0.49034 0.12594 0.0
C789 C 0.86951 0.49355 0.20343 0.0
C790 C 0.86879 0.53637 0.05229 0.0
C791 C 0.87321 0.47209 0.09809 0.0
C792 C 0.86211 0.49611 0.86651 0.0
C793 C 0.87874 0.49507 0.83814 0.0
C794 C 0.85937 0.49887 0.94373 0.0
C795 C 0.87361 0.50113 0.99337 0.0
C796 C 0.89043 0.50044 0.96452 0.0
C797 C 0.89278 0.4972 0.88751 0.0
C798 C 0.84125 0.49912 0.97235 0.0
C799 C 0.90596 0.50326 0.01491 0.0
H800 H 0.86479 0.53682 0.20315 0.0
H801 H 0.86972 0.48296 0.24218 0.0
H802 H 0.88117 0.53691 0.02245 0.0
H803 H 0.8585 0.535 1.00892 0.0
H804 H 0.86694 0.54869 0.08319 0.0
H805 H 0.87219 0.46268 0.14407 0.0
H806 H 0.86324 0.46908 0.05473 0.0
H807 H 0.88586 0.47047 0.07125 0.0
H808 H 0.85126 0.49435 0.82837 0.0
H809 H 0.90564 0.49664 0.86541 0.0
H810 H 0.8385 0.5117 0.99939 0.0
H811 H 0.83973 0.48919 0.01578 0.0
H812 H 0.8316 0.49676 0.9268 0.0
H813 H 0.90502 0.51586 0.04432 0.0
H814 H 0.91813 0.50288 0.98328 0.0
H815 H 0.9065 0.49328 0.05862 0.0
C816 C 0.76174 0.62526 0.44161 0.0
C817 C 0.74494 0.62406 0.46779 0.0
C818 C 0.76496 0.62685 0.36452 0.0
C819 C 0.75102 0.62771 0.31268 0.0
C820 C 0.73402 0.62659 0.3391 0.0
C821 C 0.7312 0.62455 0.41623 0.0
C822 C 0.78328 0.62757 0.33856 0.0
C823 C 0.71879 0.62788 0.2861 0.0
C824 C 0.75917 0.64942 0.12658 0.0
C825 C 0.76019 0.63538 0.07675 0.0
C826 C 0.756 0.6471 0.20321 0.0
C827 C 0.7542 0.6303 0.23114 0.0
C828 C 0.75534 0.61604 0.1811 0.0
C829 C 0.75811 0.61878 0.10428 0.0
C830 C 0.75444 0.66266 0.25413 0.0
C831 C 0.75384 0.59792 0.20884 0.0
H832 H 0.77236 0.62465 0.48145 0.0
H833 H 0.71822 0.62374 0.43673 0.0
H834 H 0.78549 0.61748 0.29521 0.0
H835 H 0.7858 0.64011 0.31224 0.0
H836 H 0.79266 0.62582 0.38545 0.0
H837 H 0.70639 0.62683 0.31565 0.0
H838 H 0.71911 0.64033 0.25677 0.0
H839 H 0.71935 0.61762 0.24243 0.0
H840 H 0.76052 0.66227 0.10516 0.0
H841 H 0.75903 0.60793 0.06583 0.0
H842 H 0.76447 0.66234 0.29895 0.0
H843 H 0.74182 0.66257 0.28212 0.0
H844 H 0.75572 0.67486 0.22322 0.0
H845 H 0.76371 0.59561 0.25309 0.0
H846 H 0.75542 0.58824 0.16306 0.0
H847 H 0.74114 0.59599 0.23463 0.0
C848 C 0.60681 0.49844 0.65299 0.0
C849 C 0.62082 0.49671 0.70253 0.0
C850 C 0.60921 0.50155 0.57639 0.0
C851 C 0.62607 0.50255 0.5482 0.0
C852 C 0.64028 0.50071 0.598 0.0
C853 C 0.63748 0.49804 0.67483 0.0
C854 C 0.59371 0.50389 0.52573 0.0
C855 C 0.65844 0.50133 0.56996 0.0
C856 C 0.63061 0.4946 0.33786 0.0
C857 C 0.63267 0.51129 0.31143 0.0
C858 C 0.62888 0.49152 0.41498 0.0
C859 C 0.62874 0.50554 0.46661 0.0
C860 C 0.63071 0.52244 0.43995 0.0
C861 C 0.63287 0.52508 0.36277 0.0
C862 C 0.62724 0.47328 0.44123 0.0
C863 C 0.6302 0.53776 0.49274 0.0
H864 H 0.59393 0.49765 0.67464 0.0
H865 H 0.6483 0.49657 0.71312 0.0
H866 H 0.59443 0.51646 0.49752 0.0
H867 H 0.59347 0.49382 0.48109 0.0
H868 H 0.5815 0.50328 0.55691 0.0
H869 H 0.66807 0.49933 0.61562 0.0
H870 H 0.66024 0.49131 0.52584 0.0
H871 H 0.66095 0.51389 0.54392 0.0
H872 H 0.63069 0.48393 0.29817 0.0
H873 H 0.63434 0.53799 0.34207 0.0
H874 H 0.61462 0.47144 0.46785 0.0
H875 H 0.63726 0.4706 0.4844 0.0
H876 H 0.62846 0.4638 0.39444 0.0
H877 H 0.61777 0.53807 0.52227 0.0
H878 H 0.63183 0.55006 0.46299 0.0
H879 H 0.64045 0.53673 0.53627 0.0
C880 C 0.7624 0.38473 0.56434 0.0
C881 C 0.74564 0.38683 0.5365 0.0
C882 C 0.76569 0.38313 0.64184 0.0
C883 C 0.75182 0.38313 0.69247 0.0
C884 C 0.73485 0.38512 0.66432 0.0
C885 C 0.73201 0.3872 0.5868 0.0
C886 C 0.784 0.38151 0.66954 0.0
C887 C 0.71967 0.38476 0.71591 0.0
C888 C 0.75923 0.36154 0.88068 0.0
C889 C 0.76106 0.37564 0.92996 0.0
C890 C 0.75601 0.36381 0.80359 0.0
C891 C 0.75502 0.3806 0.77457 0.0
C892 C 0.757 0.3949 0.82412 0.0
C893 C 0.75975 0.39224 0.90141 0.0
C894 C 0.7535 0.34821 0.75331 0.0
C895 C 0.75643 0.413 0.79533 0.0
H896 H 0.77296 0.38471 0.52544 0.0
H897 H 0.71906 0.38874 0.56501 0.0
H898 H 0.78683 0.39155 0.71282 0.0
H899 H 0.78589 0.36891 0.69644 0.0
H900 H 0.79335 0.38271 0.62346 0.0
H901 H 0.7073 0.38633 0.68507 0.0
H902 H 0.7194 0.37241 0.74606 0.0
H903 H 0.72085 0.39512 0.75901 0.0
H904 H 0.76 0.3487 0.90289 0.0
H905 H 0.76129 0.40312 0.93947 0.0
H906 H 0.76347 0.34788 0.70956 0.0
H907 H 0.74087 0.34889 0.72396 0.0
H908 H 0.75414 0.33606 0.78502 0.0
H909 H 0.7663 0.41467 0.75176 0.0
H910 H 0.75866 0.4227 0.84076 0.0
H911 H 0.74378 0.41553 0.76841 0.0
C912 C 0.14508 0.50214 0.86072 0.0
C913 C 0.1309 0.49936 0.81257 0.0
C914 C 0.14298 0.50523 0.93803 0.0
C915 C 0.12629 0.50532 0.96834 0.0
C916 C 0.11192 0.5024 0.92007 0.0
C917 C 0.1144 0.49959 0.84273 0.0
C918 C 0.15862 0.50858 0.98714 0.0
C919 C 0.09394 0.50216 0.9502 0.0
C920 C 0.1222 0.49828 0.17881 0.0
C921 C 0.11942 0.51502 0.206 0.0
C922 C 0.1243 0.49492 0.10166 0.0
C923 C 0.12387 0.50864 0.05039 0.0
C924 C 0.12124 0.52559 0.07763 0.0
C925 C 0.11893 0.52854 0.15492 0.0
C926 C 0.12689 0.47665 0.07498 0.0
C927 C 0.12098 0.54062 0.02515 0.0
H928 H 0.15784 0.50225 0.8376 0.0
H929 H 0.10343 0.49731 0.80584 0.0
H930 H 0.15757 0.52135 0.01498 0.0
H931 H 0.15943 0.49891 0.03213 0.0
H932 H 0.17069 0.50818 0.95483 0.0
H933 H 0.08417 0.49938 0.90558 0.0
H934 H 0.09292 0.49231 0.99428 0.0
H935 H 0.09093 0.51473 0.97681 0.0
H936 H 0.12238 0.48775 0.21779 0.0
H937 H 0.117 0.54151 0.17566 0.0
H938 H 0.13959 0.47536 0.04829 0.0
H939 H 0.11703 0.47318 0.03177 0.0
H940 H 0.12618 0.46736 0.12153 0.0
H941 H 0.13325 0.54127 0.9946 0.0
H942 H 0.11899 0.55302 0.0553 0.0
H943 H 0.11059 0.53891 0.98244 0.0
C944 C 0.25678 0.3824 0.93547 0.0
C945 C 0.24013 0.37929 0.96069 0.0
C946 C 0.26 0.38467 0.85879 0.0
C947 C 0.24619 0.38408 0.80615 0.0
C948 C 0.22932 0.38117 0.83148 0.0
C949 C 0.22652 0.37868 0.90833 0.0
C950 C 0.2782 0.38751 0.834 0.0
C951 C 0.2142 0.38076 0.77744 0.0
C952 C 0.25215 0.40537 0.61738 0.0
C953 C 0.25496 0.39121 0.56962 0.0
C954 C 0.24923 0.40323 0.69434 0.0
C955 C 0.24936 0.38654 0.7246 0.0
C956 C 0.25234 0.3722 0.67675 0.0
C957 C 0.25497 0.37471 0.59974 0.0
C958 C 0.24582 0.41883 0.74311 0.0
C959 C 0.2528 0.35422 0.70695 0.0
H960 H 0.26736 0.38266 0.97563 0.0
H961 H 0.21362 0.37649 0.92774 0.0
H962 H 0.28189 0.37729 0.79333 0.0
H963 H 0.2792 0.39992 0.80477 0.0
H964 H 0.2875 0.38753 0.88189 0.0
H965 H 0.20186 0.37867 0.80632 0.0
H966 H 0.21343 0.39302 0.74671 0.0
H967 H 0.21591 0.37037 0.73499 0.0
H968 H 0.25188 0.41812 0.59417 0.0
H969 H 0.2573 0.36377 0.5631 0.0
H970 H 0.25553 0.41974 0.78919 0.0
H971 H 0.23309 0.41763 0.76953 0.0
H972 H 0.24609 0.43091 0.71086 0.0
H973 H 0.2627 0.35333 0.75217 0.0
H974 H 0.25564 0.34449 0.66267 0.0
H975 H 0.24029 0.35104 0.73212 0.0
C976 C 0.36595 0.49318 0.69414 0.0
C977 C 0.3669 0.50708 0.74482 0.0
C978 C 0.36845 0.49546 0.61692 0.0
C979 C 0.37152 0.51214 0.58953 0.0
C980 C 0.37214 0.52627 0.64048 0.0
C981 C 0.37004 0.52353 0.71765 0.0
C982 C 0.36813 0.48 0.56488 0.0
C983 C 0.37497 0.5443 0.61343 0.0
C984 C 0.39412 0.51763 0.40358 0.0
C985 C 0.38031 0.52019 0.35372 0.0
C986 C 0.39142 0.5147 0.48012 0.0
C987 C 0.37449 0.51475 0.5079 0.0
C988 C 0.36048 0.5174 0.45774 0.0
C989 C 0.36356 0.51986 0.381 0.0
C990 C 0.40668 0.51147 0.53119 0.0
C991 C 0.34228 0.5179 0.48532 0.0
H992 H 0.36366 0.48045 0.7154 0.0
H993 H 0.37056 0.5343 0.75682 0.0
H994 H 0.35804 0.48153 0.52091 0.0
H995 H 0.38057 0.47885 0.53583 0.0
H996 H 0.36568 0.4679 0.59515 0.0
H997 H 0.3743 0.55397 0.65975 0.0
H998 H 0.38772 0.54527 0.58703 0.0
H999 H 0.3652 0.5475 0.56989 0.0
H1000 H 0.40705 0.51765 0.38224 0.0
H1001 H 0.35291 0.52197 0.34247 0.0
H1002 H 0.40511 0.49905 0.55991 0.0
H1003 H 0.40752 0.52161 0.57544 0.0
H1004 H 0.41894 0.51122 0.50024 0.0
H1005 H 0.33901 0.50557 0.5119 0.0
H1006 H 0.33285 0.52032 0.43931 0.0
H1007 H 0.341 0.52812 0.5289 0.0
C1008 C 0.25489 0.6294 0.10348 0.0
C1009 C 0.23811 0.63139 0.07557 0.0
C1010 C 0.25823 0.62822 0.18107 0.0
C1011 C 0.24443 0.62869 0.23195 0.0
C1012 C 0.22741 0.63014 0.20378 0.0
C1013 C 0.22448 0.63166 0.12605 0.0
C1014 C 0.27658 0.62691 0.20864 0.0
C1015 C 0.2123 0.63023 0.25578 0.0
C1016 C 0.25275 0.61087 0.42699 0.0
C1017 C 0.25481 0.62587 0.47067 0.0
C1018 C 0.24906 0.6116 0.34964 0.0
C1019 C 0.24779 0.62774 0.31462 0.0
C1020 C 0.24982 0.64295 0.35861 0.0
C1021 C 0.25308 0.64182 0.43638 0.0
C1022 C 0.24653 0.59509 0.30544 0.0
C1023 C 0.24888 0.6604 0.32326 0.0
H1024 H 0.26546 0.62942 0.06474 0.0
H1025 H 0.2115 0.63308 0.10451 0.0
H1026 H 0.27959 0.63772 0.2479 0.0
H1027 H 0.27842 0.61488 0.24018 0.0
H1028 H 0.28584 0.6271 0.1619 0.0
H1029 H 0.19985 0.63065 0.22472 0.0
H1030 H 0.21255 0.61861 0.29103 0.0
H1031 H 0.2131 0.64151 0.29435 0.0
H1032 H 0.25386 0.59853 0.45376 0.0
H1033 H 0.25478 0.65338 0.47018 0.0
H1034 H 0.25644 0.59391 0.26166 0.0
H1035 H 0.23386 0.59517 0.27619 0.0
H1036 H 0.24725 0.58363 0.34165 0.0
H1037 H 0.25872 0.66141 0.27917 0.0
H1038 H 0.25092 0.67096 0.36501 0.0
H1039 H 0.23619 0.66216 0.29549 0.0
C1040 C 0.3428 0.05158 0.09707 0.0
C1041 C 0.36042 0.05475 0.10613 0.0
C1042 C 0.33062 0.06314 0.1244 0.0
C1043 C 0.33615 0.078 0.16441 0.0
C1044 C 0.35395 0.0812 0.17477 0.0
C1045 C 0.36594 0.06965 0.14412 0.0
C1046 C 0.31182 0.05949 0.10971 0.0
C1047 C 0.36028 0.09664 0.21916 0.0
C1048 C 0.30333 0.11378 0.174 0.0
C1049 C 0.29481 0.1099 0.24034 0.0
C1050 C 0.31722 0.10384 0.14969 0.0
C1051 C 0.32309 0.09009 0.19434 0.0
C1052 C 0.31507 0.08674 0.26354 0.0
C1053 C 0.30076 0.09647 0.28499 0.0
C1054 C 0.32491 0.10743 0.07418 0.0
C1055 C 0.32125 0.07251 0.31371 0.0
H1056 H 0.3385 0.04012 0.06705 0.0
H1057 H 0.37956 0.07202 0.15147 0.0
H1058 H 0.30516 0.05772 0.16364 0.0
H1059 H 0.30571 0.07055 0.08133 0.0
H1060 H 0.30974 0.04783 0.07415 0.0
H1061 H 0.3745 0.09707 0.22369 0.0
H1062 H 0.35572 0.10858 0.19238 0.0
H1063 H 0.35494 0.09646 0.27658 0.0
H1064 H 0.29859 0.12409 0.13919 0.0
H1065 H 0.29423 0.09361 0.33667 0.0
H1066 H 0.32242 0.0964 0.03541 0.0
H1067 H 0.33902 0.10892 0.07965 0.0
H1068 H 0.31951 0.11917 0.04835 0.0
H1069 H 0.31812 0.0599 0.28721 0.0
H1070 H 0.31526 0.07311 0.36989 0.0
H1071 H 0.3354 0.07313 0.32115 0.0
C1072 C 0.14231 0.07168 0.48408 0.0
C1073 C 0.14214 0.05584 0.44538 0.0
C1074 C 0.15309 0.08516 0.46207 0.0
C1075 C 0.16403 0.08279 0.39997 0.0
C1076 C 0.16341 0.06709 0.35891 0.0
C1077 C 0.15249 0.05386 0.38196 0.0
C1078 C 0.15321 0.10173 0.50702 0.0
C1079 C 0.17481 0.06398 0.29227 0.0
C1080 C 0.18586 0.12041 0.30465 0.0
C1081 C 0.20256 0.11963 0.33513 0.0
C1082 C 0.17302 0.10889 0.32687 0.0
C1083 C 0.17694 0.09621 0.3807 0.0
C1084 C 0.19358 0.09579 0.41366 0.0
C1085 C 0.20613 0.10748 0.39071 0.0
C1086 C 0.15541 0.10991 0.29085 0.0
C1087 C 0.19836 0.08254 0.47134 0.0
H1088 H 0.13438 0.07341 0.53305 0.0
H1089 H 0.15247 0.04174 0.35136 0.0
H1090 H 0.16575 0.10327 0.53663 0.0
H1091 H 0.15164 0.11281 0.46921 0.0
H1092 H 0.1429 0.10215 0.54937 0.0
H1093 H 0.17202 0.05153 0.26341 0.0
H1094 H 0.17321 0.07441 0.25109 0.0
H1095 H 0.18844 0.06404 0.31111 0.0
H1096 H 0.18291 0.12972 0.26176 0.0
H1097 H 0.21893 0.10674 0.41498 0.0
H1098 H 0.14543 0.11039 0.3346 0.0
H1099 H 0.15298 0.09824 0.25593 0.0
H1100 H 0.15397 0.12132 0.25468 0.0
H1101 H 0.18924 0.08298 0.5185 0.0
H1102 H 0.21156 0.08445 0.49439 0.0
H1103 H 0.19751 0.06953 0.44547 0.0
C1104 C 0.20194 0.89315 0.53616 0.0
C1105 C 0.20855 0.89324 0.60992 0.0
C1106 C 0.19017 0.90574 0.51261 0.0
C1107 C 0.18497 0.91872 0.564 0.0
C1108 C 0.19096 0.91833 0.6394 0.0
C1109 C 0.20259 0.90559 0.6614 0.0
C1110 C 0.18398 0.90562 0.4319 0.0
C1111 C 0.18575 0.93186 0.69618 0.0
C1112 C 0.17187 0.96295 0.497 0.0
C1113 C 0.15407 0.96265 0.50684 0.0
C1114 C 0.182 0.94852 0.51287 0.0
C1115 C 0.17413 0.93336 0.53869 0.0
C1116 C 0.15609 0.93278 0.54607 0.0
C1117 C 0.14629 0.94745 0.53041 0.0
C1118 C 0.20121 0.94972 0.50469 0.0
C1119 C 0.1472 0.91683 0.57266 0.0
H1120 H 0.20652 0.88373 0.49587 0.0
H1121 H 0.20748 0.90568 0.71872 0.0
H1122 H 0.16989 0.90753 0.42875 0.0
H1123 H 0.19002 0.91636 0.40188 0.0
H1124 H 0.1872 0.89344 0.40216 0.0
H1125 H 0.19085 0.92923 0.75345 0.0
H1126 H 0.19055 0.94458 0.67877 0.0
H1127 H 0.17157 0.93271 0.69866 0.0
H1128 H 0.17798 0.97463 0.47874 0.0
H1129 H 0.13252 0.94708 0.53768 0.0
H1130 H 0.2059 0.93903 0.46875 0.0
H1131 H 0.20754 0.94851 0.56061 0.0
H1132 H 0.20524 0.96204 0.47987 0.0
H1133 H 0.15125 0.90552 0.53884 0.0
H1134 H 0.13301 0.91792 0.56899 0.0
H1135 H 0.15093 0.9144 0.63193 0.0
C1136 C 0.33488 0.96359 0.97552 0.0
C1137 C 0.3512 0.96747 0.94899 0.0
C1138 C 0.32445 0.95149 0.93806 0.0
C1139 C 0.33037 0.94345 0.87151 0.0
C1140 C 0.34693 0.94722 0.84481 0.0
C1141 C 0.35727 0.95909 0.88453 0.0
C1142 C 0.30697 0.94754 0.96904 0.0
C1143 C 0.3535 0.93914 0.77327 0.0
C1144 C 0.30684 0.90266 0.81659 0.0
C1145 C 0.29403 0.9089 0.76813 0.0
C1146 C 0.31929 0.91365 0.84817 0.0
C1147 C 0.31901 0.93124 0.82995 0.0
C1148 C 0.30677 0.9374 0.77734 0.0
C1149 C 0.2943 0.92615 0.7474 0.0
C1150 C 0.33205 0.90665 0.90452 0.0
C1151 C 0.30632 0.95603 0.7556 0.0
H1152 H 0.33024 0.9701 0.02543 0.0
H1153 H 0.36981 0.96232 0.86342 0.0
H1154 H 0.29685 0.95128 0.92801 0.0
H1155 H 0.30566 0.93355 0.97801 0.0
H1156 H 0.30463 0.95437 0.0231 0.0
H1157 H 0.36684 0.94315 0.76119 0.0
H1158 H 0.3531 0.92496 0.77691 0.0
H1159 H 0.3451 0.94278 0.72525 0.0
H1160 H 0.30669 0.88932 0.83282 0.0
H1161 H 0.28448 0.93098 0.70957 0.0
H1162 H 0.32929 0.91202 0.96114 0.0
H1163 H 0.34527 0.91059 0.89039 0.0
H1164 H 0.33157 0.89244 0.90724 0.0
H1165 H 0.30218 0.96397 0.80426 0.0
H1166 H 0.29735 0.95834 0.70773 0.0
H1167 H 0.3193 0.96047 0.74016 0.0
C1168 C 0.6901 0.8983 0.80101 0.0
C1169 C 0.70542 0.90668 0.78344 0.0
C1170 C 0.6754 0.90763 0.82075 0.0
C1171 C 0.67614 0.92576 0.82419 0.0
C1172 C 0.69145 0.93429 0.80456 0.0
C1173 C 0.70587 0.92464 0.78391 0.0
C1174 C 0.65924 0.89809 0.83999 0.0
C1175 C 0.69283 0.9536 0.80826 0.0
C1176 C 0.63634 0.9539 0.8334 0.0
C1177 C 0.63599 0.95817 0.91027 0.0
C1178 C 0.64891 0.94276 0.80469 0.0
C1179 C 0.66143 0.93582 0.85399 0.0
C1180 C 0.66057 0.93938 0.93204 0.0
C1181 C 0.64781 0.9504 0.95915 0.0
C1182 C 0.64925 0.93911 0.72122 0.0
C1183 C 0.67367 0.93228 0.98664 0.0
H1184 H 0.68963 0.88441 0.80014 0.0
H1185 H 0.71769 0.93118 0.77048 0.0
H1186 H 0.65652 0.89991 0.90057 0.0
H1187 H 0.64813 0.90328 0.80799 0.0
H1188 H 0.66025 0.88412 0.82775 0.0
H1189 H 0.70535 0.95829 0.78775 0.0
H1190 H 0.68242 0.95948 0.77426 0.0
H1191 H 0.69128 0.95813 0.86716 0.0
H1192 H 0.62731 0.95985 0.79498 0.0
H1193 H 0.64751 0.95339 0.01861 0.0
H1194 H 0.65053 0.92513 0.71012 0.0
H1195 H 0.66056 0.94546 0.69672 0.0
H1196 H 0.63754 0.94381 0.69185 0.0
H1197 H 0.67437 0.91812 0.98072 0.0
H1198 H 0.67071 0.93559 0.04595 0.0
H1199 H 0.68655 0.93745 0.97384 0.0
C1200 C 0.81508 0.89319 0.72318 0.0
C1201 C 0.79781 0.89755 0.71146 0.0
C1202 C 0.82834 0.90473 0.70589 0.0
C1203 C 0.82423 0.92125 0.6787 0.0
C1204 C 0.8068 0.92557 0.66568 0.0
C1205 C 0.79387 0.91361 0.68108 0.0
C1206 C 0.84674 0.89938 0.7183 0.0
C1207 C 0.80173 0.94315 0.63874 0.0
C1208 C 0.85505 0.95839 0.71821 0.0
C1209 C 0.86158 0.96157 0.64671 0.0
C1210 C 0.84313 0.94517 0.72951 0.0
C1211 C 0.83794 0.93445 0.66829 0.0
C1212 C 0.84508 0.93712 0.59658 0.0
C1213 C 0.85657 0.95082 0.58635 0.0
C1214 C 0.83554 0.94318 0.80644 0.0
C1215 C 0.84031 0.9257 0.5303 0.0
H1216 H 0.81824 0.88079 0.74638 0.0
H1217 H 0.78056 0.91719 0.6726 0.0
H1218 H 0.85435 0.90199 0.66754 0.0
H1219 H 0.85251 0.90698 0.7654 0.0
H1220 H 0.84789 0.88555 0.73169 0.0
H1221 H 0.78765 0.9444 0.63001 0.0
H1222 H 0.806 0.95302 0.68054 0.0
H1223 H 0.80814 0.94598 0.58518 0.0
H1224 H 0.85867 0.96676 0.76499 0.0
H1225 H 0.8616 0.95317 0.53101 0.0
H1226 H 0.83766 0.92998 0.82682 0.0
H1227 H 0.82147 0.94525 0.80316 0.0
H1228 H 0.84111 0.95239 0.84837 0.0
H1229 H 0.84178 0.91202 0.54542 0.0
H1230 H 0.84829 0.92829 0.48056 0.0
H1231 H 0.82666 0.92771 0.51449 0.0
C1232 C 0.86004 0.06354 0.4838 0.0
C1233 C 0.85187 0.04796 0.49911 0.0
C1234 C 0.85055 0.07819 0.46475 0.0
C1235 C 0.83244 0.07719 0.45988 0.0
C1236 C 0.8241 0.06157 0.47668 0.0
C1237 C 0.83392 0.04718 0.49653 0.0
C1238 C 0.85991 0.09463 0.44825 0.0
C1239 C 0.80483 0.05992 0.47145 0.0
C1240 C 0.80428 0.11707 0.4578 0.0
C1241 C 0.80018 0.11832 0.381 0.0
C1242 C 0.81525 0.10411 0.48426 0.0
C1243 C 0.82224 0.09209 0.43273 0.0
C1244 C 0.81881 0.09383 0.35489 0.0
C1245 C 0.80794 0.10697 0.33005 0.0
C1246 C 0.81875 0.10283 0.56763 0.0
C1247 C 0.826 0.08131 0.29794 0.0
H1248 H 0.87392 0.06428 0.48616 0.0
H1249 H 0.82753 0.03518 0.50819 0.0
H1250 H 0.85794 0.09795 0.38837 0.0
H1251 H 0.85467 0.10535 0.48252 0.0
H1252 H 0.87391 0.09365 0.45985 0.0
H1253 H 0.80027 0.04712 0.48914 0.0
H1254 H 0.79869 0.06988 0.5071 0.0
H1255 H 0.80044 0.06203 0.41271 0.0
H1256 H 0.79831 0.12572 0.49778 0.0
H1257 H 0.8051 0.10798 0.27063 0.0
H1258 H 0.83274 0.10184 0.57897 0.0
H1259 H 0.8127 0.09103 0.58914 0.0
H1260 H 0.81365 0.11402 0.59949 0.0
H1261 H 0.84016 0.08064 0.30389 0.0
H1262 H 0.82269 0.08485 0.23926 0.0
H1263 H 0.8209 0.06828 0.30819 0.0
C1264 C 0.70659 0.10429 0.15489 0.0
C1265 C 0.71869 0.09993 0.21036 0.0
C1266 C 0.69414 0.09247 0.12992 0.0
C1267 C 0.69363 0.07602 0.1623 0.0
C1268 C 0.70557 0.07169 0.21964 0.0
C1269 C 0.71811 0.08366 0.2425 0.0
C1270 C 0.68179 0.09744 0.06784 0.0
C1271 C 0.70519 0.05436 0.25635 0.0
C1272 C 0.65226 0.05069 0.14342 0.0
C1273 C 0.65631 0.03878 0.08673 0.0
C1274 C 0.66433 0.06286 0.16883 0.0
C1275 C 0.68068 0.06329 0.13562 0.0
C1276 C 0.6847 0.05153 0.07715 0.0
C1277 C 0.67249 0.03926 0.0539 0.0
C1278 C 0.65969 0.07502 0.23212 0.0
C1279 C 0.70192 0.05184 0.03953 0.0
H1280 H 0.70713 0.11681 0.12936 0.0
H1281 H 0.72746 0.0803 0.2855 0.0
H1282 H 0.68317 0.08855 0.01909 0.0
H1283 H 0.66839 0.09633 0.08726 0.0
H1284 H 0.68392 0.11076 0.04863 0.0
H1285 H 0.71495 0.05327 0.30216 0.0
H1286 H 0.69233 0.05198 0.27991 0.0
H1287 H 0.70756 0.04413 0.21384 0.0
H1288 H 0.6398 0.0502 0.16951 0.0
H1289 H 0.6756 0.03005 1.00996 0.0
H1290 H 0.66084 0.08848 0.21354 0.0
H1291 H 0.66876 0.07339 0.28012 0.0
H1292 H 0.64644 0.07292 0.25214 0.0
H1293 H 0.70435 0.06475 0.01652 0.0
H1294 H 0.70279 0.04221 0.99314 0.0
H1295 H 0.71225 0.04926 0.08134 0.0
C1296 C 0.80761 0.61281 0.72893 0.0
C1297 C 0.79132 0.6052 0.72977 0.0
C1298 C 0.82205 0.6034 0.70651 0.0
C1299 C 0.82003 0.58616 0.68191 0.0
C1300 C 0.80357 0.57843 0.68286 0.0
C1301 C 0.78945 0.58798 0.70794 0.0
C1302 C 0.83944 0.61193 0.70862 0.0
C1303 C 0.80077 0.56021 0.6553 0.0
C1304 C 0.85209 0.56622 0.54776 0.0
C1305 C 0.86047 0.55446 0.59427 0.0
C1306 C 0.83918 0.57697 0.57601 0.0
C1307 C 0.83496 0.57627 0.65307 0.0
C1308 C 0.84423 0.56521 0.70122 0.0
C1309 C 0.85667 0.5542 0.67094 0.0
C1310 C 0.82933 0.58825 0.52237 0.0
C1311 C 0.84053 0.56446 0.7841 0.0
H1312 H 0.80906 0.62613 0.74622 0.0
H1313 H 0.77683 0.58214 0.70784 0.0
H1314 H 0.84869 0.60406 0.74122 0.0
H1315 H 0.84443 0.6129 0.65083 0.0
H1316 H 0.83902 0.62501 0.73413 0.0
H1317 H 0.78715 0.55618 0.65876 0.0
H1318 H 0.80485 0.55893 0.59603 0.0
H1319 H 0.80874 0.55129 0.68887 0.0
H1320 H 0.8548 0.56621 0.4882 0.0
H1321 H 0.86314 0.54507 0.70689 0.0
H1322 H 0.82927 0.60171 0.54337 0.0
H1323 H 0.81578 0.58391 0.51857 0.0
H1324 H 0.83476 0.58797 0.46503 0.0
H1325 H 0.84013 0.57759 0.80895 0.0
H1326 H 0.85026 0.55683 0.81521 0.0
H1327 H 0.82776 0.55855 0.7923 0.0
C1328 C 0.703 0.60714 0.88852 0.0
C1329 C 0.6997 0.61833 0.82889 0.0
C1330 C 0.69028 0.59598 0.91449 0.0
C1331 C 0.67376 0.59593 0.88028 0.0
C1332 C 0.67012 0.60767 0.82212 0.0
C1333 C 0.68311 0.61871 0.79714 0.0
C1334 C 0.69477 0.58377 0.97684 0.0
C1335 C 0.65267 0.60813 0.78438 0.0
C1336 C 0.64926 0.55376 0.89251 0.0
C1337 C 0.6385 0.55678 0.95387 0.0
C1338 C 0.66033 0.56655 0.86654 0.0
C1339 C 0.66073 0.58288 0.90257 0.0
C1340 C 0.64942 0.58626 0.96257 0.0
C1341 C 0.63846 0.57319 0.98747 0.0
C1342 C 0.67209 0.56236 0.80221 0.0
C1343 C 0.64934 0.60348 1.00232 0.0
H1344 H 0.71571 0.60673 0.91386 0.0
H1345 H 0.68037 0.62726 0.75107 0.0
H1346 H 0.68537 0.58497 0.02276 0.0
H1347 H 0.6941 0.57037 0.95512 0.0
H1348 H 0.70783 0.58611 1.00065 0.0
H1349 H 0.65141 0.61892 0.7446 0.0
H1350 H 0.65036 0.59594 0.75295 0.0
H1351 H 0.6425 0.60933 0.82703 0.0
H1352 H 0.6494 0.54118 0.86576 0.0
H1353 H 0.63024 0.57572 0.03488 0.0
H1354 H 0.68562 0.56277 0.82234 0.0
H1355 H 0.67069 0.57205 0.75759 0.0
H1356 H 0.66947 0.54946 0.77716 0.0
H1357 H 0.66175 0.60549 0.03256 0.0
H1358 H 0.63883 0.60459 0.04349 0.0
H1359 H 0.64797 0.61392 0.96101 0.0
C1360 C 0.64354 0.44845 0.04529 0.0
C1361 C 0.65122 0.46471 0.04584 0.0
C1362 C 0.6529 0.43384 0.06616 0.0
C1363 C 0.67017 0.43566 0.09067 0.0
C1364 C 0.67798 0.45209 0.0911 0.0
C1365 C 0.66848 0.46638 0.06749 0.0
C1366 C 0.64427 0.4165 0.06255 0.0
C1367 C 0.69623 0.45466 0.11867 0.0
C1368 C 0.68988 0.40277 0.22178 0.0
C1369 C 0.70154 0.39448 0.17449 0.0
C1370 C 0.67926 0.41594 0.19478 0.0
C1371 C 0.67998 0.42053 0.11814 0.0
C1372 C 0.69095 0.41139 0.06915 0.0
C1373 C 0.70183 0.39868 0.09823 0.0
C1374 C 0.66809 0.42564 0.24934 0.0
C1375 C 0.69172 0.41549 0.98666 0.0
H1376 H 0.63019 0.44714 0.02812 0.0
H1377 H 0.67438 0.47898 0.06865 0.0
H1378 H 0.65209 0.40737 0.02917 0.0
H1379 H 0.64328 0.41126 0.11988 0.0
H1380 H 0.63119 0.41711 0.0371 0.0
H1381 H 0.70034 0.46828 0.11628 0.0
H1382 H 0.69753 0.45032 0.17758 0.0
H1383 H 0.70509 0.44679 0.08438 0.0
H1384 H 0.68986 0.39977 0.28105 0.0
H1385 H 0.71089 0.39229 0.06167 0.0
H1386 H 0.65461 0.42585 0.22856 0.0
H1387 H 0.6725 0.43915 0.25408 0.0
H1388 H 0.66839 0.41997 0.30624 0.0
H1389 H 0.67859 0.41608 0.96188 0.0
H1390 H 0.69928 0.40586 0.95467 0.0
H1391 H 0.69771 0.42826 0.97961 0.0
C1392 C 0.79229 0.42365 0.26893 0.0
C1393 C 0.79029 0.40681 0.29341 0.0
C1394 C 0.80425 0.43471 0.30398 0.0
C1395 C 0.81414 0.42882 0.36578 0.0
C1396 C 0.81239 0.41171 0.38977 0.0
C1397 C 0.80056 0.40084 0.3528 0.0
C1398 C 0.80599 0.45282 0.27608 0.0
C1399 C 0.82253 0.40506 0.45613 0.0
C1400 C 0.85388 0.45436 0.42046 0.0
C1401 C 0.84759 0.46523 0.47708 0.0
C1402 C 0.8432 0.44222 0.3845 0.0
C1403 C 0.82593 0.44077 0.40663 0.0
C1404 C 0.8197 0.45125 0.46587 0.0
C1405 C 0.8306 0.46349 0.50001 0.0
C1406 C 0.85022 0.43142 0.32092 0.0
C1407 C 0.80141 0.44985 0.49176 0.0
H1408 H 0.78435 0.42827 0.22301 0.0
H1409 H 0.79888 0.38787 0.37248 0.0
H1410 H 0.80199 0.46204 0.32047 0.0
H1411 H 0.8196 0.45562 0.26347 0.0
H1412 H 0.79808 0.45507 0.22475 0.0
H1413 H 0.82013 0.39123 0.46586 0.0
H1414 H 0.83646 0.40696 0.44745 0.0
H1415 H 0.8191 0.4124 0.5076 0.0
H1416 H 0.86698 0.45578 0.40204 0.0
H1417 H 0.82573 0.47188 0.54386 0.0
H1418 H 0.84334 0.43452 0.26782 0.0
H1419 H 0.84805 0.41762 0.33154 0.0
H1420 H 0.86416 0.43356 0.31295 0.0
H1421 H 0.7925 0.45366 0.44576 0.0
H1422 H 0.79892 0.45812 0.54178 0.0
H1423 H 0.79838 0.43637 0.50571 0.0
C1424 C 0.14697 0.444 0.49747 0.0
C1425 C 0.1374 0.4552 0.45264 0.0
C1426 C 0.15997 0.43381 0.46632 0.0
C1427 C 0.16312 0.43455 0.38821 0.0
C1428 C 0.1526 0.44491 0.34194 0.0
C1429 C 0.14002 0.45532 0.37492 0.0
C1430 C 0.1711 0.42319 0.51785 0.0
C1431 C 0.15519 0.44568 0.25819 0.0
C1432 C 0.20864 0.4254 0.32567 0.0
C1433 C 0.20761 0.40801 0.30557 0.0
C1434 C 0.19419 0.43423 0.35203 0.0
C1435 C 0.17825 0.42555 0.35627 0.0
C1436 C 0.17701 0.40817 0.33286 0.0
C1437 C 0.19179 0.39952 0.30889 0.0
C1438 C 0.19613 0.45267 0.37791 0.0
C1439 C 0.16017 0.39863 0.33436 0.0
H1440 H 0.14515 0.44411 0.55774 0.0
H1441 H 0.13262 0.464 0.34021 0.0
H1442 H 0.17173 0.40975 0.49697 0.0
H1443 H 0.18438 0.42835 0.51862 0.0
H1444 H 0.16634 0.42321 0.57636 0.0
H1445 H 0.1446 0.45259 0.22921 0.0
H1446 H 0.16739 0.45239 0.24669 0.0
H1447 H 0.15613 0.43256 0.23369 0.0
H1448 H 0.22091 0.43192 0.32379 0.0
H1449 H 0.19097 0.38607 0.2929 0.0
H1450 H 0.19282 0.45387 0.43818 0.0
H1451 H 0.18714 0.46095 0.3461 0.0
H1452 H 0.20937 0.45757 0.37065 0.0
H1453 H 0.15598 0.3973 0.39323 0.0
H1454 H 0.16107 0.38563 0.30839 0.0
H1455 H 0.15009 0.40596 0.30414 0.0
C1456 C 0.3165 0.39901 0.25092 0.0
C1457 C 0.30008 0.39897 0.21738 0.0
C1458 C 0.32945 0.41015 0.22643 0.0
C1459 C 0.32592 0.42161 0.16712 0.0
C1460 C 0.30958 0.42116 0.1312 0.0
C1461 C 0.29692 0.40986 0.15656 0.0
C1462 C 0.34673 0.41007 0.26579 0.0
C1463 C 0.30521 0.4331 0.0677 0.0
C1464 C 0.34992 0.46409 0.15635 0.0
C1465 C 0.36105 0.46113 0.09623 0.0
C1466 C 0.33882 0.4512 0.18122 0.0
C1467 C 0.33883 0.43484 0.14556 0.0
C1468 C 0.3505 0.43153 0.08687 0.0
C1469 C 0.36144 0.4447 0.06283 0.0
C1470 C 0.32662 0.45534 0.244 0.0
C1471 C 0.35106 0.41424 0.04776 0.0
H1472 H 0.31915 0.39066 0.2978 0.0
H1473 H 0.28433 0.40995 0.1299 0.0
H1474 H 0.35712 0.40892 0.22416 0.0
H1475 H 0.34868 0.42238 0.29679 0.0
H1476 H 0.34796 0.39941 0.30623 0.0
H1477 H 0.29232 0.43046 0.04269 0.0
H1478 H 0.30553 0.44657 0.0887 0.0
H1479 H 0.31488 0.43194 0.02284 0.0
H1480 H 0.34949 0.47668 0.18286 0.0
H1481 H 0.36997 0.44223 0.01644 0.0
H1482 H 0.32799 0.44581 0.28935 0.0
H1483 H 0.31321 0.45456 0.22248 0.0
H1484 H 0.32881 0.46835 0.26852 0.0
H1485 H 0.3524 0.40391 0.08959 0.0
H1486 H 0.3618 0.41324 1.00765 0.0
H1487 H 0.33884 0.41196 0.01644 0.0
C1488 C 0.30254 0.61006 0.85115 0.0
C1489 C 0.29576 0.6225 0.90009 0.0
C1490 C 0.31414 0.59767 0.87681 0.0
C1491 C 0.31933 0.59777 0.95334 0.0
C1492 C 0.31345 0.61098 1.00208 0.0
C1493 C 0.30166 0.62317 0.97494 0.0
C1494 C 0.32011 0.58389 0.82269 0.0
C1495 C 0.31883 0.61174 0.08384 0.0
C1496 C 0.33169 0.55393 0.02706 0.0
C1497 C 0.34956 0.55413 0.02001 0.0
C1498 C 0.32176 0.56831 1.00832 0.0
C1499 C 0.3299 0.58332 0.98248 0.0
C1500 C 0.34801 0.58384 0.97837 0.0
C1501 C 0.35762 0.56921 0.99672 0.0
C1502 C 0.30248 0.5672 0.01338 0.0
C1503 C 0.35718 0.5997 0.9525 0.0
H1504 H 0.29827 0.60957 0.79298 0.0
H1505 H 0.29652 0.63271 0.01328 0.0
H1506 H 0.33431 0.58315 0.82338 0.0
H1507 H 0.3152 0.57123 0.84035 0.0
H1508 H 0.31564 0.58617 0.76413 0.0
H1509 H 0.31663 0.62465 0.10901 0.0
H1510 H 0.3112 0.60231 0.11538 0.0
H1511 H 0.33257 0.60839 0.09121 0.0
H1512 H 0.32538 0.54234 0.04517 0.0
H1513 H 0.37145 0.56952 0.99175 0.0
H1514 H 0.29663 0.56828 0.95642 0.0
H1515 H 0.29754 0.57801 0.04799 0.0
H1516 H 0.29818 0.55496 0.03815 0.0
H1517 H 0.35405 0.60193 0.89244 0.0
H1518 H 0.37133 0.59861 0.95902 0.0
H1519 H 0.35279 0.61111 0.98477 0.0
C1520 C 0.1482 0.55384 0.62045 0.0
C1521 C 0.15288 0.54306 0.56053 0.0
C1522 C 0.15993 0.56556 0.65231 0.0
C1523 C 0.17659 0.56674 0.62238 0.0
C1524 C 0.18121 0.55624 0.56036 0.0
C1525 C 0.16932 0.54437 0.53063 0.0
C1526 C 0.15466 0.57638 0.71913 0.0
C1527 C 0.19875 0.55743 0.52602 0.0
C1528 C 0.20203 0.60732 0.66146 0.0
C1529 C 0.21372 0.60193 0.7168 0.0
C1530 C 0.18987 0.59598 0.6302 0.0
C1531 C 0.18921 0.57894 0.65602 0.0
C1532 C 0.20073 0.57352 0.71317 0.0
C1533 C 0.21301 0.58507 0.74241 0.0
C1534 C 0.17798 0.60213 0.56845 0.0
C1535 C 0.20015 0.5555 0.74291 0.0
H1536 H 0.13555 0.55268 0.64426 0.0
H1537 H 0.17293 0.53603 0.48426 0.0
H1538 H 0.16321 0.57368 0.76793 0.0
H1539 H 0.15606 0.59019 0.70646 0.0
H1540 H 0.14119 0.57393 0.73545 0.0
H1541 H 0.20006 0.54885 0.47608 0.0
H1542 H 0.20134 0.57081 0.50902 0.0
H1543 H 0.20872 0.55395 0.56818 0.0
H1544 H 0.20267 0.62033 0.64095 0.0
H1545 H 0.22205 0.58091 0.78528 0.0
H1546 H 0.16444 0.6005 0.58503 0.0
H1547 H 0.17987 0.59429 0.51672 0.0
H1548 H 0.18014 0.61582 0.55501 0.0
H1549 H 0.1871 0.55258 0.76326 0.0
H1550 H 0.20952 0.55354 0.78961 0.0
H1551 H 0.20295 0.54616 0.69712 0.0
C1552 C 0.46544 0.01325 0.98294 0.0
C1553 C 0.45496 0.01303 0.04645 0.0
C1554 C 0.48325 0.01107 0.98934 0.0
C1555 C 0.49094 0.00924 0.06126 0.0
C1556 C 0.4806 0.0097 0.1259 0.0
C1557 C 0.46273 0.01135 0.1177 0.0
C1558 C 0.49381 0.01043 0.9189 0.0
C1559 C 0.48839 0.00826 0.20372 0.0
C1560 C 0.53501 0.9885 0.07456 0.0
C1561 C 0.54589 0.00287 0.07644 0.0
C1562 C 0.5171 0.99036 0.06965 0.0
C1563 C 0.50983 0.00699 0.06861 0.0
C1564 C 0.52065 0.02154 0.07221 0.0
C1565 C 0.53848 0.01931 0.07468 0.0
C1566 C 0.50596 0.97453 0.06428 0.0
C1567 C 0.51341 0.0395 0.07263 0.0
H1568 H 0.45972 0.01495 0.92773 0.0
H1569 H 0.45486 0.01088 0.16722 0.0
H1570 H 0.50334 0.02099 0.92001 0.0
H1571 H 0.50105 0.9982 0.91611 0.0
H1572 H 0.48579 0.0115 0.86705 0.0
H1573 H 0.4787 0.00977 0.24841 0.0
H1574 H 0.49466 0.99559 0.20989 0.0
H1575 H 0.49846 0.01819 0.21252 0.0
H1576 H 0.54045 0.97574 0.07693 0.0
H1577 H 0.54661 0.03057 0.07386 0.0
H1578 H 0.49818 0.97472 1.01157 0.0
H1579 H 0.49689 0.97437 0.11164 0.0
H1580 H 0.5136 0.96252 0.06508 0.0
H1581 H 0.5067 0.04196 0.0185 0.0
H1582 H 0.52351 0.04943 0.08138 0.0
H1583 H 0.50382 0.04094 0.11772 0.0
C1584 C 0.25761 0.29553 0.347 0.0
C1585 C 0.25784 0.30458 0.27942 0.0
C1586 C 0.25591 0.2776 0.34732 0.0
C1587 C 0.25428 0.26842 0.27835 0.0
C1588 C 0.25486 0.27743 0.20985 0.0
C1589 C 0.2567 0.29539 0.21119 0.0
C1590 C 0.25563 0.26849 0.42157 0.0
C1591 C 0.25315 0.26814 0.13513 0.0
C1592 C 0.26486 0.22084 0.27371 0.0
C1593 C 0.24853 0.21322 0.27478 0.0
C1594 C 0.26689 0.23872 0.27534 0.0
C1595 C 0.25223 0.24936 0.27794 0.0
C1596 C 0.23569 0.24178 0.28031 0.0
C1597 C 0.23405 0.22378 0.27917 0.0
C1598 C 0.28475 0.24621 0.27387 0.0
C1599 C 0.21975 0.2527 0.28293 0.0
H1600 H 0.25859 0.30256 0.39991 0.0
H1601 H 0.25661 0.30232 0.15883 0.0
H1602 H 0.24325 0.26167 0.42751 0.0
H1603 H 0.26593 0.2587 0.42365 0.0
H1604 H 0.25738 0.27746 0.47018 0.0
H1605 H 0.25397 0.27697 0.08694 0.0
H1606 H 0.26337 0.25833 0.12986 0.0
H1607 H 0.24066 0.26131 0.13164 0.0
H1608 H 0.27614 0.21274 0.27174 0.0
H1609 H 0.22142 0.21796 0.27983 0.0
H1610 H 0.28695 0.25464 0.32384 0.0
H1611 H 0.28616 0.25426 0.22349 0.0
H1612 H 0.29483 0.23616 0.27307 0.0
H1613 H 0.22026 0.26135 0.33296 0.0
H1614 H 0.20786 0.24487 0.28498 0.0
H1615 H 0.21905 0.26093 0.23265 0.0
C1616 C 0.04037 0.01099 0.5777 0.0
C1617 C 0.049 0.01172 0.5092 0.0
C1618 C 0.02239 0.00979 0.57982 0.0
C1619 C 0.01275 0.00907 0.51175 0.0
C1620 C 0.02137 0.01003 0.4424 0.0
C1621 C 0.03937 0.01146 0.44197 0.0
C1622 C 0.01372 0.00912 0.65499 0.0
C1623 C 0.01161 0.00917 0.36856 0.0
C1624 C 0.96784 0.9895 0.51614 0.0
C1625 C 0.95743 0.00415 0.51556 0.0
C1626 C 0.98584 0.99089 0.51436 0.0
C1627 C 0.99364 0.00733 0.51319 0.0
C1628 C 0.98318 0.02215 0.51379 0.0
C1629 C 0.96525 0.02038 0.51459 0.0
C1630 C 0.99652 0.97477 0.51302 0.0
C1631 C 0.99091 0.03991 0.51386 0.0
H1632 H 0.04773 0.01129 0.62984 0.0
H1633 H 0.04596 0.01177 0.38885 0.0
H1634 H 0.00414 0.01957 0.65961 0.0
H1635 H 0.00672 0.99682 0.65998 0.0
H1636 H 0.023 0.01035 0.70276 0.0
H1637 H 0.02018 0.01022 0.31955 0.0
H1638 H 0.00448 0.99687 0.36384 0.0
H1639 H 0.00201 0.01964 0.36604 0.0
H1640 H 0.96188 0.97694 0.51644 0.0
H1641 H 0.95729 0.03177 0.51531 0.0
H1642 H 0.00535 0.97464 0.56247 0.0
H1643 H 0.00456 0.97448 0.46212 0.0
H1644 H 0.98853 0.96297 0.51331 0.0
H1645 H 0.99961 0.04165 0.56332 0.0
H1646 H 0.98101 0.05013 0.5153 0.0
H1647 H 0.99875 0.04156 0.46298 0.0
C1648 C 0.2388 0.7194 0.80253 0.0
C1649 C 0.25263 0.71162 0.76572 0.0
C1650 C 0.2371 0.73727 0.80622 0.0
C1651 C 0.2496 0.74769 0.77271 0.0
C1652 C 0.26386 0.73997 0.73715 0.0
C1653 C 0.26523 0.72199 0.73419 0.0
C1654 C 0.22179 0.74498 0.84517 0.0
C1655 C 0.2775 0.75071 0.70116 0.0
C1656 C 0.23764 0.79316 0.71793 0.0
C1657 C 0.2454 0.80281 0.77617 0.0
C1658 C 0.23872 0.77517 0.71654 0.0
C1659 C 0.24771 0.76668 0.77492 0.0
C1660 C 0.25495 0.77634 0.83539 0.0
C1661 C 0.25368 0.79428 0.83531 0.0
C1662 C 0.23072 0.76528 0.6514 0.0
C1663 C 0.26445 0.76778 0.89914 0.0
H1664 H 0.22918 0.71145 0.8283 0.0
H1665 H 0.27589 0.71604 0.70542 0.0
H1666 H 0.22612 0.75382 0.89105 0.0
H1667 H 0.21413 0.75265 0.80482 0.0
H1668 H 0.21333 0.73507 0.86928 0.0
H1669 H 0.28793 0.74277 0.67706 0.0
H1670 H 0.27167 0.75847 0.6557 0.0
H1671 H 0.28317 0.75979 0.74318 0.0
H1672 H 0.23139 0.79971 0.67175 0.0
H1673 H 0.25954 0.8017 0.88086 0.0
H1674 H 0.22173 0.75548 0.67233 0.0
H1675 H 0.24085 0.75839 0.61994 0.0
H1676 H 0.22365 0.77373 0.61196 0.0
H1677 H 0.25612 0.75807 0.92537 0.0
H1678 H 0.2688 0.77709 0.94324 0.0
H1679 H 0.27582 0.76092 0.87717 0.0
C1680 C 0.73265 0.72112 0.77008 0.0
C1681 C 0.74732 0.71076 0.76802 0.0
C1682 C 0.73402 0.73915 0.77054 0.0
C1683 C 0.75044 0.747 0.76987 0.0
C1684 C 0.76527 0.73656 0.7696 0.0
C1685 C 0.76353 0.71864 0.76853 0.0
C1686 C 0.71788 0.74981 0.77058 0.0
C1687 C 0.78303 0.74433 0.77002 0.0
C1688 C 0.75463 0.79293 0.70106 0.0
C1689 C 0.75518 0.80235 0.76881 0.0
C1690 C 0.75307 0.77494 0.70055 0.0
C1691 C 0.75219 0.7661 0.76944 0.0
C1692 C 0.75318 0.77553 0.838 0.0
C1693 C 0.7546 0.79349 0.83683 0.0
C1694 C 0.752 0.7654 0.62621 0.0
C1695 C 0.75257 0.76664 0.91269 0.0
H1696 H 0.7201 0.71512 0.76943 0.0
H1697 H 0.77495 0.71072 0.76832 0.0
H1698 H 0.71793 0.7586 0.82017 0.0
H1699 H 0.71739 0.75789 0.71981 0.0
H1700 H 0.7061 0.7418 0.77158 0.0
H1701 H 0.79327 0.73444 0.77112 0.0
H1702 H 0.78466 0.75225 0.71938 0.0
H1703 H 0.78477 0.75294 0.81974 0.0
H1704 H 0.75482 0.79968 0.64829 0.0
H1705 H 0.75515 0.80068 0.88942 0.0
H1706 H 0.73968 0.75832 0.6216 0.0
H1707 H 0.76244 0.75578 0.62277 0.0
H1708 H 0.75297 0.77411 0.57764 0.0
H1709 H 0.74027 0.7596 0.91743 0.0
H1710 H 0.75382 0.77578 0.96095 0.0
H1711 H 0.76303 0.75706 0.9167 0.0
C1712 C 0.73951 0.21691 0.22965 0.0
C1713 C 0.75583 0.2096 0.22047 0.0
C1714 C 0.73721 0.23474 0.23172 0.0
C1715 C 0.75161 0.24564 0.22591 0.0
C1716 C 0.76815 0.23842 0.21755 0.0
C1717 C 0.77006 0.22049 0.21462 0.0
C1718 C 0.71934 0.2419 0.24047 0.0
C1719 C 0.78384 0.24966 0.21197 0.0
C1720 C 0.74466 0.29197 0.16857 0.0
C1721 C 0.74537 0.30063 0.23825 0.0
C1722 C 0.74651 0.27406 0.16374 0.0
C1723 C 0.74933 0.26459 0.23005 0.0
C1724 C 0.74977 0.2732 0.30059 0.0
C1725 C 0.74764 0.29106 0.30387 0.0
C1726 C 0.7457 0.2653 0.08756 0.0
C1727 C 0.75275 0.26357 0.37262 0.0
H1728 H 0.72845 0.20868 0.2362 0.0
H1729 H 0.78269 0.21501 0.207 0.0
H1730 H 0.71863 0.24959 0.29325 0.0
H1731 H 0.71626 0.25061 0.19345 0.0
H1732 H 0.70943 0.23167 0.2417 0.0
H1733 H 0.7958 0.24208 0.20604 0.0
H1734 H 0.78251 0.25821 0.16296 0.0
H1735 H 0.78508 0.258 0.26283 0.0
H1736 H 0.74317 0.29922 0.11745 0.0
H1737 H 0.74795 0.29758 0.35807 0.0
H1738 H 0.73565 0.25522 0.08673 0.0
H1739 H 0.75809 0.25888 0.07605 0.0
H1740 H 0.7429 0.27442 0.04164 0.0
H1741 H 0.74259 0.25378 0.3794 0.0
H1742 H 0.75287 0.27219 0.42288 0.0
H1743 H 0.76518 0.2567 0.37039 0.0
C1744 C 0.96367 0.52342 0.53218 0.0
C1745 C 0.95345 0.50865 0.53191 0.0
C1746 C 0.98167 0.52219 0.53337 0.0
C1747 C 0.98953 0.50581 0.5352 0.0
C1748 C 0.97922 0.4909 0.53703 0.0
C1749 C 0.96133 0.4925 0.53525 0.0
C1750 C 0.99227 0.53837 0.53118 0.0
C1751 C 0.98708 0.47322 0.53999 0.0
C1752 C 0.03502 0.50065 0.46466 0.0
C1753 C 0.04458 0.50084 0.53201 0.0
C1754 C 0.0171 0.50235 0.46488 0.0
C1755 C 0.00853 0.50417 0.53414 0.0
C1756 C 0.01809 0.50406 0.60236 0.0
C1757 C 0.03599 0.50242 0.60046 0.0
C1758 C 0.00734 0.50243 0.39096 0.0
C1759 C 0.00941 0.50575 0.67735 0.0
H1760 H 0.9576 0.5359 0.52944 0.0
H1761 H 0.95344 0.48105 0.53644 0.0
H1762 H 0.00121 0.53898 0.58023 0.0
H1763 H 1.00019 0.53829 0.47991 0.0
H1764 H 0.98422 0.55012 0.5314 0.0
H1765 H 0.97725 0.46295 0.54325 0.0
H1766 H 0.99486 0.47086 0.48924 0.0
H1767 H 0.99583 0.47229 0.58947 0.0
H1768 H 0.04161 0.49969 0.41159 0.0
H1769 H 0.04333 0.50245 0.65268 0.0
H1770 H 1.00016 0.51463 0.38541 0.0
H1771 H 0.99779 0.49187 0.38912 0.0
H1772 H 0.01592 0.50093 0.34203 0.0
H1773 H 0.00225 0.51802 0.68041 0.0
H1774 H 0.01868 0.50535 0.72527 0.0
H1775 H 0.99994 0.49525 0.6836 0.0
C1776 C 0.46266 0.50481 0.95333 0.0
C1777 C 0.45412 0.50407 0.0221 0.0
C1778 C 0.48064 0.50594 0.95063 0.0
C1779 C 0.4904 0.50645 0.01837 0.0
C1780 C 0.48189 0.50543 0.08797 0.0
C1781 C 0.46388 0.50419 0.089 0.0
C1782 C 0.48917 0.50675 0.8752 0.0
C1783 C 0.4918 0.50595 0.16149 0.0
C1784 C 0.5376 0.49407 0.01438 0.0
C1785 C 0.54583 0.51011 0.016 0.0
C1786 C 0.51964 0.49272 0.01443 0.0
C1787 C 0.50953 0.50778 0.01638 0.0
C1788 C 0.51773 0.52404 0.01673 0.0
C1789 C 0.53578 0.52501 0.01611 0.0
C1790 C 0.51148 0.47514 0.01294 0.0
C1791 C 0.50743 0.5404 0.019 0.0
H1792 H 0.45523 0.50458 0.90136 0.0
H1793 H 0.4574 0.50388 0.14238 0.0
H1794 H 0.49651 0.51888 0.87106 0.0
H1795 H 0.49846 0.49606 0.86924 0.0
H1796 H 0.47979 0.50598 0.8277 0.0
H1797 H 0.4833 0.50497 0.21077 0.0
H1798 H 0.50117 0.49527 0.16318 0.0
H1799 H 0.49919 0.51809 0.16646 0.0
H1800 H 0.54526 0.48249 0.01287 0.0
H1801 H 0.54205 0.53743 0.01763 0.0
H1802 H 0.50262 0.47385 0.96382 0.0
H1803 H 0.50376 0.47342 0.06408 0.0
H1804 H 0.52114 0.4647 1.00998 0.0
H1805 H 0.49841 0.54076 0.97024 0.0
H1806 H 0.51569 0.55201 0.01823 0.0
H1807 H 0.49961 0.54084 0.07054 0.0
loop_
_geom_bond_atom_site_label_1
_geom_bond_atom_site_label_2
_geom_bond_distance
_geom_bond_site_symmetry_2
_ccdc_geom_bond_type
Co0 N4 2.148 1_554 S
Co0 N10 2.128 1_545 S
Co0 N20 2.194 1_554 S
Co0 O25 2.351 1_544 S
Co0 O26 2.155 1_544 S
Co0 O27 2.096 . S
C1 N4 1.301 . S
C1 N5 1.328 . S
C1 H6 0.930 1_545 S
C2 C3 1.333 . S
C2 N4 1.317 . S
C2 H7 0.930 . S
C3 C2 1.333 . S
C3 N5 1.350 . S
C3 H29 0.931 . S
N4 Co0 2.148 1_556 S
N4 C1 1.301 . S
N4 C2 1.317 . S
N5 C1 1.328 . S
N5 C3 1.350 . S
H6 C1 0.930 1_565 S
H7 C2 0.930 . S
C8 O9 1.224 . S
C8 O27 1.247 . S
O9 C8 1.224 . S
N10 Co0 2.128 1_565 S
N10 C11 1.355 . S
N10 C13 1.311 1_565 S
C11 N10 1.355 . S
C11 C12 1.363 . S
C11 H23 0.929 . S
C12 C11 1.363 . S
C12 N14 1.375 . S
C12 H30 0.931 . S
C13 N10 1.311 1_545 S
C13 N14 1.347 1_545 S
C13 H24 0.929 . S
N14 C12 1.375 . S
N14 C13 1.347 1_565 S
C15 C18 1.365 . S
C15 N20 1.328 1_565 S
C15 H21 0.929 . S
C16 C17 1.362 . S
C16 C19 1.378 . S
C16 H31 0.929 . S
C17 C16 1.362 . S
C17 C18 1.366 1_544 S
C18 C15 1.365 . S
C18 C17 1.366 1_566 S
C18 H32 0.930 . S
C19 C16 1.378 . S
C19 N20 1.315 1_554 S
C19 H22 0.930 . S
N20 Co0 2.194 1_556 S
N20 C15 1.328 1_545 S
N20 C19 1.315 1_556 S
H21 C15 0.929 . S
H22 C19 0.930 . S
H23 C11 0.929 . S
H24 C13 0.929 . S
O25 Co0 2.351 1_566 S
O25 C28 1.244 . S
O26 Co0 2.155 1_566 S
O26 C28 1.240 . S
O27 Co0 2.096 . S
O27 C8 1.247 . S
C28 O25 1.244 . S
C28 O26 1.240 . S
H29 C3 0.931 . S
H30 C12 0.931 . S
H31 C16 0.929 . S
H32 C18 0.930 . S
Co33 N37 2.148 . S
Co33 N43 2.128 . S
Co33 N53 2.194 . S
Co33 O58 2.351 . S
Co33 O59 2.155 . S
Co33 O60 2.096 . S
C34 N37 1.301 . S
C34 N38 1.328 . S
C34 H39 0.930 . S
C35 C36 1.333 . S
C35 N37 1.317 . S
C35 H40 0.930 . S
C36 C35 1.333 . S
C36 N38 1.350 . S
C36 H62 0.931 . S
N37 Co33 2.148 . S
N37 C34 1.301 . S
N37 C35 1.317 . S
N38 C34 1.328 . S
N38 C36 1.350 . S
H39 C34 0.930 . S
H40 C35 0.930 . S
C41 O42 1.224 . S
C41 O60 1.247 . S
O42 C41 1.224 . S
N43 Co33 2.128 . S
N43 C44 1.355 . S
N43 C46 1.311 . S
C44 N43 1.355 . S
C44 C45 1.363 . S
C44 H56 0.929 . S
C45 C44 1.363 . S
C45 N47 1.375 . S
C45 H63 0.931 . S
C46 N43 1.311 . S
C46 N47 1.347 . S
C46 H57 0.929 . S
N47 C45 1.375 . S
N47 C46 1.347 . S
C48 C51 1.365 . S
C48 N53 1.328 . S
C48 H54 0.929 . S
C49 C50 1.362 . S
C49 C52 1.378 . S
C49 H64 0.929 . S
C50 C49 1.362 . S
C50 C51 1.366 . S
C51 C48 1.365 . S
C51 C50 1.366 . S
C51 H65 0.930 . S
C52 C49 1.378 . S
C52 N53 1.315 . S
C52 H55 0.930 . S
N53 Co33 2.194 . S
N53 C48 1.328 . S
N53 C52 1.315 . S
H54 C48 0.929 . S
H55 C52 0.930 . S
H56 C44 0.929 . S
H57 C46 0.929 . S
O58 Co33 2.351 . S
O58 C61 1.244 . S
O59 Co33 2.155 . S
O59 C61 1.240 . S
O60 Co33 2.096 . S
O60 C41 1.247 . S
C61 O58 1.244 . S
C61 O59 1.240 . S
H62 C36 0.931 . S
H63 C45 0.931 . S
H64 C49 0.929 . S
H65 C51 0.930 . S
Co66 N70 2.148 . S
Co66 N76 2.128 1_545 S
Co66 N86 2.194 . S
Co66 O91 2.351 1_545 S
Co66 O92 2.155 1_545 S
Co66 O93 2.096 . S
C67 N70 1.301 . S
C67 N71 1.328 . S
C67 H72 0.930 1_545 S
C68 C69 1.333 . S
C68 N70 1.317 . S
C68 H73 0.930 . S
C69 C68 1.333 . S
C69 N71 1.350 . S
C69 H95 0.931 . S
N70 Co66 2.148 . S
N70 C67 1.301 . S
N70 C68 1.317 . S
N71 C67 1.328 . S
N71 C69 1.350 . S
H72 C67 0.930 1_565 S
H73 C68 0.930 . S
C74 O75 1.224 . S
C74 O93 1.247 . S
O75 C74 1.224 . S
N76 Co66 2.128 1_565 S
N76 C77 1.355 . S
N76 C79 1.311 1_565 S
C77 N76 1.355 . S
C77 C78 1.363 . S
C77 H89 0.929 . S
C78 C77 1.363 . S
C78 N80 1.375 . S
C78 H96 0.931 . S
C79 N76 1.311 1_545 S
C79 N80 1.347 1_545 S
C79 H90 0.929 . S
N80 C78 1.375 . S
N80 C79 1.347 1_565 S
C81 C84 1.365 . S
C81 N86 1.328 1_565 S
C81 H87 0.929 . S
C82 C83 1.362 . S
C82 C85 1.378 . S
C82 H97 0.929 . S
C83 C82 1.362 . S
C83 C84 1.366 1_545 S
C84 C81 1.365 . S
C84 C83 1.366 1_565 S
C84 H98 0.930 . S
C85 C82 1.378 . S
C85 N86 1.315 . S
C85 H88 0.930 . S
N86 Co66 2.194 . S
N86 C81 1.328 1_545 S
N86 C85 1.315 . S
H87 C81 0.929 . S
H88 C85 0.930 . S
H89 C77 0.929 . S
H90 C79 0.929 . S
O91 Co66 2.351 1_565 S
O91 C94 1.244 . S
O92 Co66 2.155 1_565 S
O92 C94 1.240 . S
O93 Co66 2.096 . S
O93 C74 1.247 . S
C94 O91 1.244 . S
C94 O92 1.240 . S
H95 C69 0.931 . S
H96 C78 0.931 . S
H97 C82 0.929 . S
H98 C84 0.930 . S
Co99 N103 2.148 . S
Co99 N109 2.128 . S
Co99 N119 2.194 . S
Co99 O124 2.351 . S
Co99 O125 2.155 . S
Co99 O126 2.096 . S
C100 N103 1.301 . S
C100 N104 1.328 . S
C100 H105 0.930 . S
C101 C102 1.333 . S
C101 N103 1.317 . S
C101 H106 0.930 . S
C102 C101 1.333 . S
C102 N104 1.350 . S
C102 H128 0.931 . S
N103 Co99 2.148 . S
N103 C100 1.301 . S
N103 C101 1.317 . S
N104 C100 1.328 . S
N104 C102 1.350 . S
H105 C100 0.930 . S
H106 C101 0.930 . S
C107 O108 1.224 . S
C107 O126 1.247 . S
O108 C107 1.224 . S
N109 Co99 2.128 . S
N109 C110 1.355 . S
N109 C112 1.311 . S
C110 N109 1.355 . S
C110 C111 1.363 . S
C110 H122 0.929 . S
C111 C110 1.363 . S
C111 N113 1.375 . S
C111 H129 0.931 . S
C112 N109 1.311 . S
C112 N113 1.347 . S
C112 H123 0.929 . S
N113 C111 1.375 . S
N113 C112 1.347 . S
C114 C117 1.365 . S
C114 N119 1.328 . S
C114 H120 0.929 . S
C115 C116 1.362 . S
C115 C118 1.378 . S
C115 H130 0.929 . S
C116 C115 1.362 . S
C116 C117 1.366 . S
C117 C114 1.365 . S
C117 C116 1.366 . S
C117 H131 0.930 . S
C118 C115 1.378 . S
C118 N119 1.315 . S
C118 H121 0.930 . S
N119 Co99 2.194 . S
N119 C114 1.328 . S
N119 C118 1.315 . S
H120 C114 0.929 . S
H121 C118 0.930 . S
H122 C110 0.929 . S
H123 C112 0.929 . S
O124 Co99 2.351 . S
O124 C127 1.244 . S
O125 Co99 2.155 . S
O125 C127 1.240 . S
O126 Co99 2.096 . S
O126 C107 1.247 . S
C127 O124 1.244 . S
C127 O125 1.240 . S
H128 C102 0.931 . S
H129 C111 0.931 . S
H130 C115 0.929 . S
H131 C117 0.930 . S
Co132 N136 2.148 1_545 S
Co132 N142 2.128 1_554 S
Co132 N152 2.194 . S
Co132 O157 2.351 . S
Co132 O158 2.155 . S
Co132 O159 2.096 1_544 S
C133 N136 1.301 1_545 S
C133 N137 1.328 1_545 S
C133 H138 0.930 . S
C134 C135 1.333 . S
C134 N136 1.317 . S
C134 H139 0.930 . S
C135 C134 1.333 . S
C135 N137 1.350 . S
C135 H161 0.931 . S
N136 Co132 2.148 1_565 S
N136 C133 1.301 1_565 S
N136 C134 1.317 . S
N137 C133 1.328 1_565 S
N137 C135 1.350 . S
H138 C133 0.930 . S
H139 C134 0.930 . S
C140 O141 1.224 . S
C140 O159 1.247 . S
O141 C140 1.224 . S
N142 Co132 2.128 1_556 S
N142 C143 1.355 . S
N142 C145 1.311 . S
C143 N142 1.355 . S
C143 C144 1.363 . S
C143 H155 0.929 . S
C144 C143 1.363 . S
C144 N146 1.375 . S
C144 H162 0.931 . S
C145 N142 1.311 . S
C145 N146 1.347 . S
C145 H156 0.929 1_545 S
N146 C144 1.375 . S
N146 C145 1.347 . S
C147 C150 1.365 . S
C147 N152 1.328 . S
C147 H153 0.929 . S
C148 C149 1.362 1_566 S
C148 C151 1.378 . S
C148 H163 0.929 . S
C149 C148 1.362 1_544 S
C149 C150 1.366 . S
C150 C147 1.365 . S
C150 C149 1.366 . S
C150 H164 0.930 . S
C151 C148 1.378 . S
C151 N152 1.315 1_566 S
C151 H154 0.930 . S
N152 Co132 2.194 . S
N152 C147 1.328 . S
N152 C151 1.315 1_544 S
H153 C147 0.929 . S
H154 C151 0.930 . S
H155 C143 0.929 . S
H156 C145 0.929 1_565 S
O157 Co132 2.351 . S
O157 C160 1.244 . S
O158 Co132 2.155 . S
O158 C160 1.240 . S
O159 Co132 2.096 1_566 S
O159 C140 1.247 . S
C160 O157 1.244 . S
C160 O158 1.240 . S
H161 C135 0.931 . S
H162 C144 0.931 . S
H163 C148 0.929 . S
H164 C150 0.930 . S
Co165 N169 2.148 . S
Co165 N175 2.128 . S
Co165 N185 2.194 . S
Co165 O190 2.351 . S
Co165 O191 2.155 . S
Co165 O192 2.096 . S
C166 N169 1.301 . S
C166 N170 1.328 . S
C166 H171 0.930 . S
C167 C168 1.333 . S
C167 N169 1.317 . S
C167 H172 0.930 . S
C168 C167 1.333 . S
C168 N170 1.350 . S
C168 H194 0.931 . S
N169 Co165 2.148 . S
N169 C166 1.301 . S
N169 C167 1.317 . S
N170 C166 1.328 . S
N170 C168 1.350 . S
H171 C166 0.930 . S
H172 C167 0.930 . S
C173 O174 1.224 . S
C173 O192 1.247 . S
O174 C173 1.224 . S
N175 Co165 2.128 . S
N175 C176 1.355 . S
N175 C178 1.311 . S
C176 N175 1.355 . S
C176 C177 1.363 . S
C176 H188 0.929 . S
C177 C176 1.363 . S
C177 N179 1.375 . S
C177 H195 0.931 . S
C178 N175 1.311 . S
C178 N179 1.347 . S
C178 H189 0.929 . S
N179 C177 1.375 . S
N179 C178 1.347 . S
C180 C183 1.365 . S
C180 N185 1.328 . S
C180 H186 0.929 . S
C181 C182 1.362 . S
C181 C184 1.378 . S
C181 H196 0.929 . S
C182 C181 1.362 . S
C182 C183 1.366 . S
C183 C180 1.365 . S
C183 C182 1.366 . S
C183 H197 0.930 . S
C184 C181 1.378 . S
C184 N185 1.315 . S
C184 H187 0.930 . S
N185 Co165 2.194 . S
N185 C180 1.328 . S
N185 C184 1.315 . S
H186 C180 0.929 . S
H187 C184 0.930 . S
H188 C176 0.929 . S
H189 C178 0.929 . S
O190 Co165 2.351 . S
O190 C193 1.244 . S
O191 Co165 2.155 . S
O191 C193 1.240 . S
O192 Co165 2.096 . S
O192 C173 1.247 . S
C193 O190 1.244 . S
C193 O191 1.240 . S
H194 C168 0.931 . S
H195 C177 0.931 . S
H196 C181 0.929 . S
H197 C183 0.930 . S
Co198 N202 2.148 1_545 S
Co198 N208 2.128 . S
Co198 N218 2.194 . S
Co198 O223 2.351 . S
Co198 O224 2.155 . S
Co198 O225 2.096 1_545 S
C199 N202 1.301 1_545 S
C199 N203 1.328 1_545 S
C199 H204 0.930 . S
C200 C201 1.333 . S
C200 N202 1.317 . S
C200 H205 0.930 . S
C201 C200 1.333 . S
C201 N203 1.350 . S
C201 H227 0.931 . S
N202 Co198 2.148 1_565 S
N202 C199 1.301 1_565 S
N202 C200 1.317 . S
N203 C199 1.328 1_565 S
N203 C201 1.350 . S
H204 C199 0.930 . S
H205 C200 0.930 . S
C206 O207 1.224 . S
C206 O225 1.247 . S
O207 C206 1.224 . S
N208 Co198 2.128 . S
N208 C209 1.355 . S
N208 C211 1.311 . S
C209 N208 1.355 . S
C209 C210 1.363 . S
C209 H221 0.929 . S
C210 C209 1.363 . S
C210 N212 1.375 . S
C210 H228 0.931 . S
C211 N208 1.311 . S
C211 N212 1.347 . S
C211 H222 0.929 1_545 S
N212 C210 1.375 . S
N212 C211 1.347 . S
C213 C216 1.365 . S
C213 N218 1.328 . S
C213 H219 0.929 . S
C214 C215 1.362 1_565 S
C214 C217 1.378 . S
C214 H229 0.929 . S
C215 C214 1.362 1_545 S
C215 C216 1.366 . S
C216 C213 1.365 . S
C216 C215 1.366 . S
C216 H230 0.930 . S
C217 C214 1.378 . S
C217 N218 1.315 1_565 S
C217 H220 0.930 . S
N218 Co198 2.194 . S
N218 C213 1.328 . S
N218 C217 1.315 1_545 S
H219 C213 0.929 . S
H220 C217 0.930 . S
H221 C209 0.929 . S
H222 C211 0.929 1_565 S
O223 Co198 2.351 . S
O223 C226 1.244 . S
O224 Co198 2.155 . S
O224 C226 1.240 . S
O225 Co198 2.096 1_565 S
O225 C206 1.247 . S
C226 O223 1.244 . S
C226 O224 1.240 . S
H227 C201 0.931 . S
H228 C210 0.931 . S
H229 C214 0.929 . S
H230 C216 0.930 . S
Co231 N235 2.148 . S
Co231 N241 2.128 . S
Co231 N251 2.194 . S
Co231 O256 2.351 . S
Co231 O257 2.155 . S
Co231 O258 2.096 . S
C232 N235 1.301 . S
C232 N236 1.328 . S
C232 H237 0.930 . S
C233 C234 1.333 . S
C233 N235 1.317 . S
C233 H238 0.930 . S
C234 C233 1.333 . S
C234 N236 1.350 . S
C234 H260 0.931 . S
N235 Co231 2.148 . S
N235 C232 1.301 . S
N235 C233 1.317 . S
N236 C232 1.328 . S
N236 C234 1.350 . S
H237 C232 0.930 . S
H238 C233 0.930 . S
C239 O240 1.224 . S
C239 O258 1.247 . S
O240 C239 1.224 . S
N241 Co231 2.128 . S
N241 C242 1.355 . S
N241 C244 1.311 . S
C242 N241 1.355 . S
C242 C243 1.363 . S
C242 H254 0.929 . S
C243 C242 1.363 . S
C243 N245 1.375 . S
C243 H261 0.931 . S
C244 N241 1.311 . S
C244 N245 1.347 . S
C244 H255 0.929 . S
N245 C243 1.375 . S
N245 C244 1.347 . S
C246 C249 1.365 . S
C246 N251 1.328 . S
C246 H252 0.929 . S
C247 C248 1.362 . S
C247 C250 1.378 . S
C247 H262 0.929 . S
C248 C247 1.362 . S
C248 C249 1.366 . S
C249 C246 1.365 . S
C249 C248 1.366 . S
C249 H263 0.930 . S
C250 C247 1.378 . S
C250 N251 1.315 . S
C250 H253 0.930 . S
N251 Co231 2.194 . S
N251 C246 1.328 . S
N251 C250 1.315 . S
H252 C246 0.929 . S
H253 C250 0.930 . S
H254 C242 0.929 . S
H255 C244 0.929 . S
O256 Co231 2.351 . S
O256 C259 1.244 . S
O257 Co231 2.155 . S
O257 C259 1.240 . S
O258 Co231 2.096 . S
O258 C239 1.247 . S
C259 O256 1.244 . S
C259 O257 1.240 . S
H260 C234 0.931 . S
H261 C243 0.931 . S
H262 C247 0.929 . S
H263 C249 0.930 . S
Co264 N268 2.148 . S
Co264 N274 2.128 . S
Co264 N284 2.194 . S
Co264 O289 2.351 . S
Co264 O290 2.155 . S
Co264 O291 2.096 . S
C265 N268 1.301 . S
C265 N269 1.328 . S
C265 H270 0.930 . S
C266 C267 1.333 . S
C266 N268 1.317 . S
C266 H271 0.930 . S
C267 C266 1.333 . S
C267 N269 1.350 . S
C267 H293 0.931 . S
N268 Co264 2.148 . S
N268 C265 1.301 . S
N268 C266 1.317 . S
N269 C265 1.328 . S
N269 C267 1.350 . S
H270 C265 0.930 . S
H271 C266 0.930 . S
C272 O273 1.224 . S
C272 O291 1.247 . S
O273 C272 1.224 . S
N274 Co264 2.128 . S
N274 C275 1.355 . S
N274 C277 1.311 . S
C275 N274 1.355 . S
C275 C276 1.363 . S
C275 H287 0.929 . S
C276 C275 1.363 . S
C276 N278 1.375 . S
C276 H294 0.931 . S
C277 N274 1.311 . S
C277 N278 1.347 . S
C277 H288 0.929 . S
N278 C276 1.375 . S
N278 C277 1.347 . S
C279 C282 1.365 . S
C279 N284 1.328 . S
C279 H285 0.929 . S
C280 C281 1.362 . S
C280 C283 1.378 . S
C280 H295 0.929 . S
C281 C280 1.362 . S
C281 C282 1.366 . S
C282 C279 1.365 . S
C282 C281 1.366 . S
C282 H296 0.930 . S
C283 C280 1.378 . S
C283 N284 1.315 . S
C283 H286 0.930 . S
N284 Co264 2.194 . S
N284 C279 1.328 . S
N284 C283 1.315 . S
H285 C279 0.929 . S
H286 C283 0.930 . S
H287 C275 0.929 . S
H288 C277 0.929 . S
O289 Co264 2.351 . S
O289 C292 1.244 . S
O290 Co264 2.155 . S
O290 C292 1.240 . S
O291 Co264 2.096 . S
O291 C272 1.247 . S
C292 O289 1.244 . S
C292 O290 1.240 . S
H293 C267 0.931 . S
H294 C276 0.931 . S
H295 C280 0.929 . S
H296 C282 0.930 . S
Co297 N301 2.148 . S
Co297 N307 2.128 . S
Co297 N317 2.194 . S
Co297 O322 2.351 . S
Co297 O323 2.155 . S
Co297 O324 2.096 . S
C298 N301 1.301 . S
C298 N302 1.328 . S
C298 H303 0.930 . S
C299 C300 1.333 . S
C299 N301 1.317 . S
C299 H304 0.930 . S
C300 C299 1.333 . S
C300 N302 1.350 . S
C300 H326 0.931 . S
N301 Co297 2.148 . S
N301 C298 1.301 . S
N301 C299 1.317 . S
N302 C298 1.328 . S
N302 C300 1.350 . S
H303 C298 0.930 . S
H304 C299 0.930 . S
C305 O306 1.224 . S
C305 O324 1.247 . S
O306 C305 1.224 . S
N307 Co297 2.128 . S
N307 C308 1.355 . S
N307 C310 1.311 . S
C308 N307 1.355 . S
C308 C309 1.363 . S
C308 H320 0.929 . S
C309 C308 1.363 . S
C309 N311 1.375 . S
C309 H327 0.931 1_556 S
C310 N307 1.311 . S
C310 N311 1.347 . S
C310 H321 0.929 . S
N311 C309 1.375 . S
N311 C310 1.347 . S
C312 C315 1.365 . S
C312 N317 1.328 . S
C312 H318 0.929 . S
C313 C314 1.362 . S
C313 C316 1.378 . S
C313 H328 0.929 . S
C314 C313 1.362 . S
C314 C315 1.366 . S
C315 C312 1.365 . S
C315 C314 1.366 . S
C315 H329 0.930 . S
C316 C313 1.378 . S
C316 N317 1.315 . S
C316 H319 0.930 . S
N317 Co297 2.194 . S
N317 C312 1.328 . S
N317 C316 1.315 . S
H318 C312 0.929 . S
H319 C316 0.930 . S
H320 C308 0.929 . S
H321 C310 0.929 . S
O322 Co297 2.351 . S
O322 C325 1.244 . S
O323 Co297 2.155 . S
O323 C325 1.240 . S
O324 Co297 2.096 . S
O324 C305 1.247 . S
C325 O322 1.244 . S
C325 O323 1.240 . S
H326 C300 0.931 . S
H327 C309 0.931 1_554 S
H328 C313 0.929 . S
H329 C315 0.930 . S
Co330 N334 2.148 . S
Co330 N340 2.128 1_554 S
Co330 N350 2.194 . S
Co330 O355 2.351 . S
Co330 O356 2.155 . S
Co330 O357 2.096 1_554 S
C331 N334 1.301 . S
C331 N335 1.328 . S
C331 H336 0.930 . S
C332 C333 1.333 . S
C332 N334 1.317 . S
C332 H337 0.930 . S
C333 C332 1.333 . S
C333 N335 1.350 . S
C333 H359 0.931 . S
N334 Co330 2.148 . S
N334 C331 1.301 . S
N334 C332 1.317 . S
N335 C331 1.328 . S
N335 C333 1.350 . S
H336 C331 0.930 . S
H337 C332 0.930 . S
C338 O339 1.224 . S
C338 O357 1.247 . S
O339 C338 1.224 . S
N340 Co330 2.128 1_556 S
N340 C341 1.355 . S
N340 C343 1.311 . S
C341 N340 1.355 . S
C341 C342 1.363 . S
C341 H353 0.929 . S
C342 C341 1.363 . S
C342 N344 1.375 . S
C342 H360 0.931 . S
C343 N340 1.311 . S
C343 N344 1.347 . S
C343 H354 0.929 . S
N344 C342 1.375 . S
N344 C343 1.347 . S
C345 C348 1.365 . S
C345 N350 1.328 . S
C345 H351 0.929 . S
C346 C347 1.362 1_556 S
C346 C349 1.378 . S
C346 H361 0.929 . S
C347 C346 1.362 1_554 S
C347 C348 1.366 . S
C348 C345 1.365 . S
C348 C347 1.366 . S
C348 H362 0.930 . S
C349 C346 1.378 . S
C349 N350 1.315 1_556 S
C349 H352 0.930 . S
N350 Co330 2.194 . S
N350 C345 1.328 . S
N350 C349 1.315 1_554 S
H351 C345 0.929 . S
H352 C349 0.930 . S
H353 C341 0.929 . S
H354 C343 0.929 . S
O355 Co330 2.351 . S
O355 C358 1.244 . S
O356 Co330 2.155 . S
O356 C358 1.240 . S
O357 Co330 2.096 1_556 S
O357 C338 1.247 . S
C358 O355 1.244 . S
C358 O356 1.240 . S
H359 C333 0.931 . S
H360 C342 0.931 . S
H361 C346 0.929 . S
H362 C348 0.930 . S
Co363 N367 2.148 . S
Co363 N373 2.128 . S
Co363 N383 2.194 . S
Co363 O388 2.351 . S
Co363 O389 2.155 . S
Co363 O390 2.096 . S
C364 N367 1.301 . S
C364 N368 1.328 . S
C364 H369 0.930 . S
C365 C366 1.333 . S
C365 N367 1.317 . S
C365 H370 0.930 . S
C366 C365 1.333 . S
C366 N368 1.350 . S
C366 H392 0.931 . S
N367 Co363 2.148 . S
N367 C364 1.301 . S
N367 C365 1.317 . S
N368 C364 1.328 . S
N368 C366 1.350 . S
H369 C364 0.930 . S
H370 C365 0.930 . S
C371 O372 1.224 . S
C371 O390 1.247 . S
O372 C371 1.224 . S
N373 Co363 2.128 . S
N373 C374 1.355 . S
N373 C376 1.311 . S
C374 N373 1.355 . S
C374 C375 1.363 . S
C374 H386 0.929 . S
C375 C374 1.363 . S
C375 N377 1.375 . S
C375 H393 0.931 . S
C376 N373 1.311 . S
C376 N377 1.347 . S
C376 H387 0.929 . S
N377 C375 1.375 . S
N377 C376 1.347 . S
C378 C381 1.365 . S
C378 N383 1.328 . S
C378 H384 0.929 . S
C379 C380 1.362 . S
C379 C382 1.378 . S
C379 H394 0.929 . S
C380 C379 1.362 . S
C380 C381 1.366 . S
C381 C378 1.365 . S
C381 C380 1.366 . S
C381 H395 0.930 . S
C382 C379 1.378 . S
C382 N383 1.315 . S
C382 H385 0.930 . S
N383 Co363 2.194 . S
N383 C378 1.328 . S
N383 C382 1.315 . S
H384 C378 0.929 . S
H385 C382 0.930 . S
H386 C374 0.929 . S
H387 C376 0.929 . S
O388 Co363 2.351 . S
O388 C391 1.244 . S
O389 Co363 2.155 . S
O389 C391 1.240 . S
O390 Co363 2.096 . S
O390 C371 1.247 . S
C391 O388 1.244 . S
C391 O389 1.240 . S
H392 C366 0.931 . S
H393 C375 0.931 . S
H394 C379 0.929 . S
H395 C381 0.930 . S
Co396 N400 2.148 . S
Co396 N406 2.128 . S
Co396 N416 2.194 . S
Co396 O421 2.351 . S
Co396 O422 2.155 . S
Co396 O423 2.096 . S
C397 N400 1.301 . S
C397 N401 1.328 . S
C397 H402 0.930 . S
C398 C399 1.333 . S
C398 N400 1.317 . S
C398 H403 0.930 . S
C399 C398 1.333 . S
C399 N401 1.350 . S
C399 H425 0.931 . S
N400 Co396 2.148 . S
N400 C397 1.301 . S
N400 C398 1.317 . S
N401 C397 1.328 . S
N401 C399 1.350 . S
H402 C397 0.930 . S
H403 C398 0.930 . S
C404 O405 1.224 . S
C404 O423 1.247 . S
O405 C404 1.224 . S
N406 Co396 2.128 . S
N406 C407 1.355 . S
N406 C409 1.311 . S
C407 N406 1.355 . S
C407 C408 1.363 . S
C407 H419 0.929 . S
C408 C407 1.363 . S
C408 N410 1.375 . S
C408 H426 0.931 . S
C409 N406 1.311 . S
C409 N410 1.347 . S
C409 H420 0.929 . S
N410 C408 1.375 . S
N410 C409 1.347 . S
C411 C414 1.365 . S
C411 N416 1.328 . S
C411 H417 0.929 . S
C412 C413 1.362 . S
C412 C415 1.378 . S
C412 H427 0.929 . S
C413 C412 1.362 . S
C413 C414 1.366 . S
C414 C411 1.365 . S
C414 C413 1.366 . S
C414 H428 0.930 . S
C415 C412 1.378 . S
C415 N416 1.315 . S
C415 H418 0.930 . S
N416 Co396 2.194 . S
N416 C411 1.328 . S
N416 C415 1.315 . S
H417 C411 0.929 . S
H418 C415 0.930 . S
H419 C407 0.929 . S
H420 C409 0.929 . S
O421 Co396 2.351 . S
O421 C424 1.244 . S
O422 Co396 2.155 . S
O422 C424 1.240 . S
O423 Co396 2.096 . S
O423 C404 1.247 . S
C424 O421 1.244 . S
C424 O422 1.240 . S
H425 C399 0.931 . S
H426 C408 0.931 . S
H427 C412 0.929 . S
H428 C414 0.930 . S
Co429 N433 2.148 . S
Co429 N439 2.128 . S
Co429 N449 2.194 . S
Co429 O454 2.351 . S
Co429 O455 2.155 . S
Co429 O456 2.096 . S
C430 N433 1.301 . S
C430 N434 1.328 . S
C430 H435 0.930 . S
C431 C432 1.333 . S
C431 N433 1.317 . S
C431 H436 0.930 . S
C432 C431 1.333 . S
C432 N434 1.350 . S
C432 H458 0.931 . S
N433 Co429 2.148 . S
N433 C430 1.301 . S
N433 C431 1.317 . S
N434 C430 1.328 . S
N434 C432 1.350 . S
H435 C430 0.930 . S
H436 C431 0.930 . S
C437 O438 1.224 . S
C437 O456 1.247 . S
O438 C437 1.224 . S
N439 Co429 2.128 . S
N439 C440 1.355 . S
N439 C442 1.311 . S
C440 N439 1.355 . S
C440 C441 1.363 . S
C440 H452 0.929 . S
C441 C440 1.363 . S
C441 N443 1.375 . S
C441 H459 0.931 . S
C442 N439 1.311 . S
C442 N443 1.347 . S
C442 H453 0.929 . S
N443 C441 1.375 . S
N443 C442 1.347 . S
C444 C447 1.365 . S
C444 N449 1.328 . S
C444 H450 0.929 . S
C445 C446 1.362 . S
C445 C448 1.378 . S
C445 H460 0.929 . S
C446 C445 1.362 . S
C446 C447 1.366 . S
C447 C444 1.365 . S
C447 C446 1.366 . S
C447 H461 0.930 . S
C448 C445 1.378 . S
C448 N449 1.315 . S
C448 H451 0.930 . S
N449 Co429 2.194 . S
N449 C444 1.328 . S
N449 C448 1.315 . S
H450 C444 0.929 . S
H451 C448 0.930 . S
H452 C440 0.929 . S
H453 C442 0.929 . S
O454 Co429 2.351 . S
O454 C457 1.244 . S
O455 Co429 2.155 . S
O455 C457 1.240 . S
O456 Co429 2.096 . S
O456 C437 1.247 . S
C457 O454 1.244 . S
C457 O455 1.240 . S
H458 C432 0.931 . S
H459 C441 0.931 . S
H460 C445 0.929 . S
H461 C447 0.930 . S
Co462 N466 2.148 1_554 S
Co462 N472 2.128 . S
Co462 N482 2.194 1_554 S
Co462 O487 2.351 1_554 S
Co462 O488 2.155 1_554 S
Co462 O489 2.096 . S
C463 N466 1.301 . S
C463 N467 1.328 . S
C463 H468 0.930 . S
C464 C465 1.333 . S
C464 N466 1.317 . S
C464 H469 0.930 . S
C465 C464 1.333 . S
C465 N467 1.350 . S
C465 H491 0.931 . S
N466 Co462 2.148 1_556 S
N466 C463 1.301 . S
N466 C464 1.317 . S
N467 C463 1.328 . S
N467 C465 1.350 . S
H468 C463 0.930 . S
H469 C464 0.930 . S
C470 O471 1.224 . S
C470 O489 1.247 . S
O471 C470 1.224 . S
N472 Co462 2.128 . S
N472 C473 1.355 . S
N472 C475 1.311 . S
C473 N472 1.355 . S
C473 C474 1.363 . S
C473 H485 0.929 . S
C474 C473 1.363 . S
C474 N476 1.375 . S
C474 H492 0.931 . S
C475 N472 1.311 . S
C475 N476 1.347 . S
C475 H486 0.929 . S
N476 C474 1.375 . S
N476 C475 1.347 . S
C477 C480 1.365 . S
C477 N482 1.328 . S
C477 H483 0.929 . S
C478 C479 1.362 . S
C478 C481 1.378 . S
C478 H493 0.929 . S
C479 C478 1.362 . S
C479 C480 1.366 1_554 S
C480 C477 1.365 . S
C480 C479 1.366 1_556 S
C480 H494 0.930 . S
C481 C478 1.378 . S
C481 N482 1.315 1_554 S
C481 H484 0.930 . S
N482 Co462 2.194 1_556 S
N482 C477 1.328 . S
N482 C481 1.315 1_556 S
H483 C477 0.929 . S
H484 C481 0.930 . S
H485 C473 0.929 . S
H486 C475 0.929 . S
O487 Co462 2.351 1_556 S
O487 C490 1.244 . S
O488 Co462 2.155 1_556 S
O488 C490 1.240 . S
O489 Co462 2.096 . S
O489 C470 1.247 . S
C490 O487 1.244 . S
C490 O488 1.240 . S
H491 C465 0.931 . S
H492 C474 0.931 . S
H493 C478 0.929 . S
H494 C480 0.930 . S
Co495 N499 2.148 . S
Co495 N505 2.128 . S
Co495 N515 2.194 . S
Co495 O520 2.351 . S
Co495 O521 2.155 . S
Co495 O522 2.096 . S
C496 N499 1.301 . S
C496 N500 1.328 . S
C496 H501 0.930 . S
C497 C498 1.333 . S
C497 N499 1.317 . S
C497 H502 0.930 . S
C498 C497 1.333 . S
C498 N500 1.350 . S
C498 H524 0.931 . S
N499 Co495 2.148 . S
N499 C496 1.301 . S
N499 C497 1.317 . S
N500 C496 1.328 . S
N500 C498 1.350 . S
H501 C496 0.930 . S
H502 C497 0.930 . S
C503 O504 1.224 . S
C503 O522 1.247 . S
O504 C503 1.224 . S
N505 Co495 2.128 . S
N505 C506 1.355 . S
N505 C508 1.311 . S
C506 N505 1.355 . S
C506 C507 1.363 . S
C506 H518 0.929 . S
C507 C506 1.363 . S
C507 N509 1.375 . S
C507 H525 0.931 . S
C508 N505 1.311 . S
C508 N509 1.347 . S
C508 H519 0.929 . S
N509 C507 1.375 . S
N509 C508 1.347 . S
C510 C513 1.365 . S
C510 N515 1.328 . S
C510 H516 0.929 . S
C511 C512 1.362 . S
C511 C514 1.378 . S
C511 H526 0.929 . S
C512 C511 1.362 . S
C512 C513 1.366 . S
C513 C510 1.365 . S
C513 C512 1.366 . S
C513 H527 0.930 . S
C514 C511 1.378 . S
C514 N515 1.315 . S
C514 H517 0.930 . S
N515 Co495 2.194 . S
N515 C510 1.328 . S
N515 C514 1.315 . S
H516 C510 0.929 . S
H517 C514 0.930 . S
H518 C506 0.929 . S
H519 C508 0.929 . S
O520 Co495 2.351 . S
O520 C523 1.244 . S
O521 Co495 2.155 . S
O521 C523 1.240 . S
O522 Co495 2.096 . S
O522 C503 1.247 . S
C523 O520 1.244 . S
C523 O521 1.240 . S
H524 C498 0.931 . S
H525 C507 0.931 . S
H526 C511 0.929 . S
H527 C513 0.930 . S
C528 C529 1.391 . S
C528 C530 1.394 . S
C528 H544 0.931 . S
C529 C528 1.391 . S
C529 C533 1.376 1_545 S
C530 C528 1.394 . S
C530 C531 1.369 . S
C530 C534 1.531 . S
C531 C530 1.369 . S
C531 C532 1.410 1_545 S
C531 C539 1.503 . S
C532 C531 1.410 1_565 S
C532 C533 1.392 . S
C532 C535 1.511 . S
C533 C529 1.376 1_565 S
C533 C532 1.392 . S
C533 H545 0.929 . S
C534 C530 1.531 . S
C534 H546 0.960 . S
C534 H547 0.962 . S
C534 H548 0.960 . S
C535 C532 1.511 . S
C535 H549 0.961 . S
C535 H550 0.961 . S
C535 H551 0.961 . S
C536 C537 1.384 . S
C536 C538 1.363 . S
C536 H552 0.931 . S
C537 C536 1.384 . S
C537 C541 1.402 1_545 S
C538 C536 1.363 . S
C538 C539 1.370 . S
C538 C542 1.524 . S
C539 C531 1.503 . S
C539 C538 1.370 . S
C539 C540 1.413 . S
C540 C539 1.413 . S
C540 C541 1.401 1_545 S
C540 C543 1.531 1_545 S
C541 C537 1.402 1_565 S
C541 C540 1.401 1_565 S
C541 H553 0.936 . S
C542 C538 1.524 . S
C542 H554 0.956 . S
C542 H555 0.937 1_545 S
C542 H556 0.961 . S
C543 C540 1.531 1_565 S
C543 H557 0.958 1_565 S
C543 H558 0.961 . S
C543 H559 0.960 . S
H544 C528 0.931 . S
H545 C533 0.929 . S
H546 C534 0.960 . S
H547 C534 0.962 . S
H548 C534 0.960 . S
H549 C535 0.961 . S
H550 C535 0.961 . S
H551 C535 0.961 . S
H552 C536 0.931 . S
H553 C541 0.936 . S
H554 C542 0.956 . S
H555 C542 0.937 1_565 S
H556 C542 0.961 . S
H557 C543 0.958 1_545 S
H558 C543 0.961 . S
H559 C543 0.960 . S
C560 C561 1.391 . S
C560 C562 1.394 . S
C560 H576 0.931 . S
C561 C560 1.391 . S
C561 C565 1.376 . S
C562 C560 1.394 . S
C562 C563 1.369 . S
C562 C566 1.531 . S
C563 C562 1.369 . S
C563 C564 1.410 . S
C563 C571 1.503 . S
C564 C563 1.410 . S
C564 C565 1.392 . S
C564 C567 1.511 . S
C565 C561 1.376 . S
C565 C564 1.392 . S
C565 H577 0.929 . S
C566 C562 1.531 . S
C566 H578 0.960 . S
C566 H579 0.962 . S
C566 H580 0.960 . S
C567 C564 1.511 . S
C567 H581 0.961 . S
C567 H582 0.961 . S
C567 H583 0.961 . S
C568 C569 1.370 . S
C568 C570 1.363 . S
C568 H584 0.931 . S
C569 C568 1.370 . S
C569 C573 1.408 . S
C570 C568 1.363 . S
C570 C571 1.370 . S
C570 C574 1.524 . S
C571 C563 1.503 . S
C571 C570 1.370 . S
C571 C572 1.403 . S
C572 C571 1.403 . S
C572 C573 1.404 . S
C572 C575 1.539 . S
C573 C569 1.408 . S
C573 C572 1.404 . S
C573 H585 0.930 . S
C574 C570 1.524 . S
C574 H586 0.956 . S
C574 H587 0.961 . S
C574 H588 0.961 . S
C575 C572 1.539 . S
C575 H589 0.958 . S
C575 H590 0.961 . S
C575 H591 0.960 . S
H576 C560 0.931 . S
H577 C565 0.929 . S
H578 C566 0.960 . S
H579 C566 0.962 . S
H580 C566 0.960 . S
H581 C567 0.961 . S
H582 C567 0.961 . S
H583 C567 0.961 . S
H584 C568 0.931 . S
H585 C573 0.930 . S
H586 C574 0.956 . S
H587 C574 0.961 . S
H588 C574 0.961 . S
H589 C575 0.958 . S
H590 C575 0.961 . S
H591 C575 0.960 . S
C592 C593 1.391 1_565 S
C592 C594 1.394 . S
C592 H608 0.931 . S
C593 C592 1.391 1_545 S
C593 C597 1.376 . S
C594 C592 1.394 . S
C594 C595 1.369 1_565 S
C594 C598 1.531 . S
C595 C594 1.369 1_545 S
C595 C596 1.410 . S
C595 C603 1.503 1_554 S
C596 C595 1.410 . S
C596 C597 1.392 . S
C596 C599 1.511 . S
C597 C593 1.376 . S
C597 C596 1.392 . S
C597 H609 0.929 . S
C598 C594 1.531 . S
C598 H610 0.960 1_554 S
C598 H611 0.962 . S
C598 H612 0.960 . S
C599 C596 1.511 . S
C599 H613 0.961 . S
C599 H614 0.961 . S
C599 H615 0.961 . S
C600 C601 1.400 . S
C600 C602 1.360 1_545 S
C600 H616 0.908 1_545 S
C601 C600 1.400 . S
C601 C605 1.408 . S
C602 C600 1.360 1_565 S
C602 C603 1.372 1_565 S
C602 C606 1.522 . S
C603 C595 1.503 1_556 S
C603 C602 1.372 1_545 S
C603 C604 1.403 . S
C604 C603 1.403 . S
C604 C605 1.404 . S
C604 C607 1.539 . S
C605 C601 1.408 . S
C605 C604 1.404 . S
C605 H617 0.930 . S
C606 C602 1.522 . S
C606 H618 0.956 . S
C606 H619 0.961 1_556 S
C606 H620 0.961 . S
C607 C604 1.539 . S
C607 H621 0.958 . S
C607 H622 0.961 . S
C607 H623 0.960 1_556 S
H608 C592 0.931 . S
H609 C597 0.929 . S
H610 C598 0.960 1_556 S
H611 C598 0.962 . S
H612 C598 0.960 . S
H613 C599 0.961 . S
H614 C599 0.961 . S
H615 C599 0.961 . S
H616 C600 0.908 1_565 S
H617 C605 0.930 . S
H618 C606 0.956 . S
H619 C606 0.961 1_554 S
H620 C606 0.961 . S
H621 C607 0.958 . S
H622 C607 0.961 . S
H623 C607 0.960 1_554 S
C624 C625 1.391 . S
C624 C626 1.394 . S
C624 H640 0.931 . S
C625 C624 1.391 . S
C625 C629 1.376 . S
C626 C624 1.394 . S
C626 C627 1.369 . S
C626 C630 1.531 . S
C627 C626 1.369 . S
C627 C628 1.410 . S
C627 C635 1.503 . S
C628 C627 1.410 . S
C628 C629 1.392 . S
C628 C631 1.511 . S
C629 C625 1.376 . S
C629 C628 1.392 . S
C629 H641 0.929 . S
C630 C626 1.531 . S
C630 H642 0.960 . S
C630 H643 0.962 . S
C630 H644 0.960 . S
C631 C628 1.511 . S
C631 H645 0.961 . S
C631 H646 0.961 . S
C631 H647 0.961 . S
C632 C633 1.370 . S
C632 C634 1.363 . S
C632 H648 0.931 . S
C633 C632 1.370 . S
C633 C637 1.408 . S
C634 C632 1.363 . S
C634 C635 1.370 . S
C634 C638 1.524 . S
C635 C627 1.503 . S
C635 C634 1.370 . S
C635 C636 1.403 . S
C636 C635 1.403 . S
C636 C637 1.404 . S
C636 C639 1.539 . S
C637 C633 1.408 . S
C637 C636 1.404 . S
C637 H649 0.930 . S
C638 C634 1.524 . S
C638 H650 0.956 . S
C638 H651 0.961 . S
C638 H652 0.961 . S
C639 C636 1.539 . S
C639 H653 0.958 . S
C639 H654 0.961 . S
C639 H655 0.960 . S
H640 C624 0.931 . S
H641 C629 0.929 . S
H642 C630 0.960 . S
H643 C630 0.962 . S
H644 C630 0.960 . S
H645 C631 0.961 . S
H646 C631 0.961 . S
H647 C631 0.961 . S
H648 C632 0.931 . S
H649 C637 0.930 . S
H650 C638 0.956 . S
H651 C638 0.961 . S
H652 C638 0.961 . S
H653 C639 0.958 . S
H654 C639 0.961 . S
H655 C639 0.960 . S
C656 C657 1.391 . S
C656 C658 1.394 . S
C656 H672 0.931 . S
C657 C656 1.391 . S
C657 C661 1.376 . S
C658 C656 1.394 . S
C658 C659 1.369 . S
C658 C662 1.531 . S
C659 C658 1.369 . S
C659 C660 1.410 . S
C659 C667 1.503 . S
C660 C659 1.410 . S
C660 C661 1.392 . S
C660 C663 1.511 . S
C661 C657 1.376 . S
C661 C660 1.392 . S
C661 H673 0.929 . S
C662 C658 1.531 . S
C662 H674 0.960 . S
C662 H675 0.962 . S
C662 H676 0.960 . S
C663 C660 1.511 . S
C663 H677 0.961 1_545 S
C663 H678 0.961 1_545 S
C663 H679 0.961 . S
C664 C665 1.370 1_565 S
C664 C666 1.363 . S
C664 H680 0.931 . S
C665 C664 1.370 1_545 S
C665 C669 1.408 . S
C666 C664 1.363 . S
C666 C667 1.370 1_565 S
C666 C670 1.524 . S
C667 C659 1.503 . S
C667 C666 1.370 1_545 S
C667 C668 1.403 . S
C668 C667 1.403 . S
C668 C669 1.404 . S
C668 C671 1.539 . S
C669 C665 1.408 . S
C669 C668 1.404 . S
C669 H681 0.930 . S
C670 C666 1.524 . S
C670 H682 0.956 . S
C670 H683 0.961 . S
C670 H684 0.961 . S
C671 C668 1.539 . S
C671 H685 0.958 . S
C671 H686 0.961 . S
C671 H687 0.960 . S
H672 C656 0.931 . S
H673 C661 0.929 . S
H674 C662 0.960 . S
H675 C662 0.962 . S
H676 C662 0.960 . S
H677 C663 0.961 1_565 S
H678 C663 0.961 1_565 S
H679 C663 0.961 . S
H680 C664 0.931 . S
H681 C669 0.930 . S
H682 C670 0.956 . S
H683 C670 0.961 . S
H684 C670 0.961 . S
H685 C671 0.958 . S
H686 C671 0.961 . S
H687 C671 0.960 . S
C688 C689 1.391 . S
C688 C690 1.394 . S
C688 H704 0.931 . S
C689 C688 1.391 . S
C689 C693 1.376 . S
C690 C688 1.394 . S
C690 C691 1.369 . S
C690 C694 1.531 . S
C691 C690 1.369 . S
C691 C692 1.410 . S
C691 C699 1.503 . S
C692 C691 1.410 . S
C692 C693 1.392 . S
C692 C695 1.511 . S
C693 C689 1.376 . S
C693 C692 1.392 . S
C693 H705 0.929 . S
C694 C690 1.531 . S
C694 H706 0.960 . S
C694 H707 0.962 . S
C694 H708 0.960 . S
C695 C692 1.511 . S
C695 H709 0.961 . S
C695 H710 0.961 . S
C695 H711 0.961 . S
C696 C697 1.370 . S
C696 C698 1.363 . S
C696 H712 0.931 . S
C697 C696 1.370 . S
C697 C701 1.408 . S
C698 C696 1.363 . S
C698 C699 1.370 . S
C698 C702 1.524 . S
C699 C691 1.503 . S
C699 C698 1.370 . S
C699 C700 1.403 . S
C700 C699 1.403 . S
C700 C701 1.404 . S
C700 C703 1.539 . S
C701 C697 1.408 . S
C701 C700 1.404 . S
C701 H713 0.930 . S
C702 C698 1.524 . S
C702 H714 0.956 . S
C702 H715 0.961 . S
C702 H716 0.961 . S
C703 C700 1.539 . S
C703 H717 0.958 . S
C703 H718 0.961 . S
C703 H719 0.960 . S
H704 C688 0.931 . S
H705 C693 0.929 . S
H706 C694 0.960 . S
H707 C694 0.962 . S
H708 C694 0.960 . S
H709 C695 0.961 . S
H710 C695 0.961 . S
H711 C695 0.961 . S
H712 C696 0.931 . S
H713 C701 0.930 . S
H714 C702 0.956 . S
H715 C702 0.961 . S
H716 C702 0.961 . S
H717 C703 0.958 . S
H718 C703 0.961 . S
H719 C703 0.960 . S
C720 C721 1.391 . S
C720 C722 1.394 . S
C720 H736 0.931 . S
C721 C720 1.391 . S
C721 C725 1.376 1_545 S
C722 C720 1.394 . S
C722 C723 1.369 . S
C722 C726 1.531 . S
C723 C722 1.369 . S
C723 C724 1.410 1_545 S
C723 C731 1.503 1_554 S
C724 C723 1.410 1_565 S
C724 C725 1.392 . S
C724 C727 1.511 . S
C725 C721 1.376 1_565 S
C725 C724 1.392 . S
C725 H737 0.929 . S
C726 C722 1.531 . S
C726 H738 0.960 . S
C726 H739 0.962 . S
C726 H740 0.960 . S
C727 C724 1.511 . S
C727 H741 0.961 . S
C727 H742 0.961 1_554 S
C727 H743 0.961 . S
C728 C729 1.370 1_565 S
C728 C730 1.363 . S
C728 H744 0.931 . S
C729 C728 1.370 1_545 S
C729 C733 1.408 . S
C730 C728 1.363 . S
C730 C731 1.370 1_565 S
C730 C734 1.524 . S
C731 C723 1.503 1_556 S
C731 C730 1.370 1_545 S
C731 C732 1.403 . S
C732 C731 1.403 . S
C732 C733 1.404 . S
C732 C735 1.539 . S
C733 C729 1.408 . S
C733 C732 1.404 . S
C733 H745 0.930 . S
C734 C730 1.524 . S
C734 H746 0.956 . S
C734 H747 0.961 . S
C734 H748 0.961 . S
C735 C732 1.539 . S
C735 H749 0.958 . S
C735 H750 0.961 . S
C735 H751 0.960 1_556 S
H736 C720 0.931 . S
H737 C725 0.929 . S
H738 C726 0.960 . S
H739 C726 0.962 . S
H740 C726 0.960 . S
H741 C727 0.961 . S
H742 C727 0.961 1_556 S
H743 C727 0.961 . S
H744 C728 0.931 . S
H745 C733 0.930 . S
H746 C734 0.956 . S
H747 C734 0.961 . S
H748 C734 0.961 . S
H749 C735 0.958 . S
H750 C735 0.961 . S
H751 C735 0.960 1_554 S
C752 C753 1.391 . S
C752 C754 1.394 . S
C752 H768 0.931 . S
C753 C752 1.391 . S
C753 C757 1.376 . S
C754 C752 1.394 . S
C754 C755 1.369 . S
C754 C758 1.531 . S
C755 C754 1.369 . S
C755 C756 1.410 . S
C755 C763 1.503 . S
C756 C755 1.410 . S
C756 C757 1.392 . S
C756 C759 1.511 . S
C757 C753 1.376 . S
C757 C756 1.392 . S
C757 H769 0.929 . S
C758 C754 1.531 . S
C758 H770 0.960 . S
C758 H771 0.962 . S
C758 H772 0.960 . S
C759 C756 1.511 . S
C759 H773 0.961 . S
C759 H774 0.961 . S
C759 H775 0.961 . S
C760 C761 1.370 . S
C760 C762 1.363 . S
C760 H776 0.931 . S
C761 C760 1.370 . S
C761 C765 1.408 . S
C762 C760 1.363 . S
C762 C763 1.370 . S
C762 C766 1.524 . S
C763 C755 1.503 . S
C763 C762 1.370 . S
C763 C764 1.403 . S
C764 C763 1.403 . S
C764 C765 1.404 . S
C764 C767 1.539 . S
C765 C761 1.408 . S
C765 C764 1.404 . S
C765 H777 0.930 . S
C766 C762 1.524 . S
C766 H778 0.956 . S
C766 H779 0.961 . S
C766 H780 0.961 . S
C767 C764 1.539 . S
C767 H781 0.958 . S
C767 H782 0.961 . S
C767 H783 0.960 . S
H768 C752 0.931 . S
H769 C757 0.929 . S
H770 C758 0.960 . S
H771 C758 0.962 . S
H772 C758 0.960 . S
H773 C759 0.961 . S
H774 C759 0.961 . S
H775 C759 0.961 . S
H776 C760 0.931 . S
H777 C765 0.930 . S
H778 C766 0.956 . S
H779 C766 0.961 . S
H780 C766 0.961 . S
H781 C767 0.958 . S
H782 C767 0.961 . S
H783 C767 0.960 . S
C784 C785 1.391 . S
C784 C786 1.394 . S
C784 H800 0.931 . S
C785 C784 1.391 . S
C785 C789 1.376 . S
C786 C784 1.394 . S
C786 C787 1.369 . S
C786 C790 1.531 . S
C787 C786 1.369 . S
C787 C788 1.410 . S
C787 C795 1.503 1_554 S
C788 C787 1.410 . S
C788 C789 1.392 . S
C788 C791 1.511 . S
C789 C785 1.376 . S
C789 C788 1.392 . S
C789 H801 0.929 . S
C790 C786 1.531 . S
C790 H802 0.960 1_554 S
C790 H803 0.962 . S
C790 H804 0.960 . S
C791 C788 1.511 . S
C791 H805 0.961 . S
C791 H806 0.961 . S
C791 H807 0.961 . S
C792 C793 1.370 . S
C792 C794 1.363 . S
C792 H808 0.931 . S
C793 C792 1.370 . S
C793 C797 1.408 . S
C794 C792 1.363 . S
C794 C795 1.370 . S
C794 C798 1.524 . S
C795 C787 1.503 1_556 S
C795 C794 1.370 . S
C795 C796 1.403 . S
C796 C795 1.403 . S
C796 C797 1.404 . S
C796 C799 1.539 . S
C797 C793 1.408 . S
C797 C796 1.404 . S
C797 H809 0.930 . S
C798 C794 1.524 . S
C798 H810 0.956 1_556 S
C798 H811 0.961 1_556 S
C798 H812 0.961 . S
C799 C796 1.539 . S
C799 H813 0.958 . S
C799 H814 0.961 . S
C799 H815 0.971 . S
H800 C784 0.931 . S
H801 C789 0.929 . S
H802 C790 0.960 1_556 S
H803 C790 0.962 . S
H804 C790 0.960 . S
H805 C791 0.961 . S
H806 C791 0.961 . S
H807 C791 0.961 . S
H808 C792 0.931 . S
H809 C797 0.930 . S
H810 C798 0.956 1_554 S
H811 C798 0.961 1_554 S
H812 C798 0.961 . S
H813 C799 0.958 . S
H814 C799 0.961 . S
H815 C799 0.971 . S
C816 C817 1.391 . S
C816 C818 1.394 . S
C816 H832 0.931 . S
C817 C816 1.391 . S
C817 C821 1.376 . S
C818 C816 1.394 . S
C818 C819 1.369 . S
C818 C822 1.531 . S
C819 C818 1.369 . S
C819 C820 1.410 . S
C819 C827 1.503 . S
C820 C819 1.410 . S
C820 C821 1.392 . S
C820 C823 1.511 . S
C821 C817 1.376 . S
C821 C820 1.392 . S
C821 H833 0.929 . S
C822 C818 1.531 . S
C822 H834 0.960 . S
C822 H835 0.962 . S
C822 H836 0.960 . S
C823 C820 1.511 . S
C823 H837 0.961 . S
C823 H838 0.961 . S
C823 H839 0.961 . S
C824 C825 1.370 . S
C824 C826 1.363 . S
C824 H840 0.931 . S
C825 C824 1.370 . S
C825 C829 1.408 . S
C826 C824 1.363 . S
C826 C827 1.370 . S
C826 C830 1.524 . S
C827 C819 1.503 . S
C827 C826 1.370 . S
C827 C828 1.403 . S
C828 C827 1.403 . S
C828 C829 1.404 . S
C828 C831 1.539 . S
C829 C825 1.408 . S
C829 C828 1.404 . S
C829 H841 0.930 . S
C830 C826 1.524 . S
C830 H842 0.956 . S
C830 H843 0.961 . S
C830 H844 0.961 . S
C831 C828 1.539 . S
C831 H845 0.958 . S
C831 H846 0.961 . S
C831 H847 0.960 . S
H832 C816 0.931 . S
H833 C821 0.929 . S
H834 C822 0.960 . S
H835 C822 0.962 . S
H836 C822 0.960 . S
H837 C823 0.961 . S
H838 C823 0.961 . S
H839 C823 0.961 . S
H840 C824 0.931 . S
H841 C829 0.930 . S
H842 C830 0.956 . S
H843 C830 0.961 . S
H844 C830 0.961 . S
H845 C831 0.958 . S
H846 C831 0.961 . S
H847 C831 0.960 . S
C848 C849 1.391 . S
C848 C850 1.394 . S
C848 H864 0.931 . S
C849 C848 1.391 . S
C849 C853 1.376 . S
C850 C848 1.394 . S
C850 C851 1.369 . S
C850 C854 1.531 . S
C851 C850 1.369 . S
C851 C852 1.410 . S
C851 C859 1.503 . S
C852 C851 1.410 . S
C852 C853 1.392 . S
C852 C855 1.511 . S
C853 C849 1.376 . S
C853 C852 1.392 . S
C853 H865 0.929 . S
C854 C850 1.531 . S
C854 H866 0.960 . S
C854 H867 0.962 . S
C854 H868 0.960 . S
C855 C852 1.511 . S
C855 H869 0.961 . S
C855 H870 0.961 . S
C855 H871 0.961 . S
C856 C857 1.370 . S
C856 C858 1.363 . S
C856 H872 0.931 . S
C857 C856 1.370 . S
C857 C861 1.408 . S
C858 C856 1.363 . S
C858 C859 1.370 . S
C858 C862 1.524 . S
C859 C851 1.503 . S
C859 C858 1.370 . S
C859 C860 1.403 . S
C860 C859 1.403 . S
C860 C861 1.404 . S
C860 C863 1.539 . S
C861 C857 1.408 . S
C861 C860 1.404 . S
C861 H873 0.930 . S
C862 C858 1.524 . S
C862 H874 0.956 . S
C862 H875 0.961 . S
C862 H876 0.961 . S
C863 C860 1.539 . S
C863 H877 0.958 . S
C863 H878 0.961 . S
C863 H879 0.960 . S
H864 C848 0.931 . S
H865 C853 0.929 . S
H866 C854 0.960 . S
H867 C854 0.962 . S
H868 C854 0.960 . S
H869 C855 0.961 . S
H870 C855 0.961 . S
H871 C855 0.961 . S
H872 C856 0.931 . S
H873 C861 0.930 . S
H874 C862 0.956 . S
H875 C862 0.961 . S
H876 C862 0.961 . S
H877 C863 0.958 . S
H878 C863 0.961 . S
H879 C863 0.960 . S
C880 C881 1.391 . S
C880 C882 1.394 . S
C880 H896 0.931 . S
C881 C880 1.391 . S
C881 C885 1.376 . S
C882 C880 1.394 . S
C882 C883 1.369 . S
C882 C886 1.531 . S
C883 C882 1.369 . S
C883 C884 1.410 . S
C883 C891 1.503 . S
C884 C883 1.410 . S
C884 C885 1.392 . S
C884 C887 1.511 . S
C885 C881 1.376 . S
C885 C884 1.392 . S
C885 H897 0.929 . S
C886 C882 1.531 . S
C886 H898 0.960 . S
C886 H899 0.962 . S
C886 H900 0.960 . S
C887 C884 1.511 . S
C887 H901 0.961 . S
C887 H902 0.961 . S
C887 H903 0.961 . S
C888 C889 1.370 . S
C888 C890 1.363 . S
C888 H904 0.931 . S
C889 C888 1.370 . S
C889 C893 1.408 . S
C890 C888 1.363 . S
C890 C891 1.370 . S
C890 C894 1.524 . S
C891 C883 1.503 . S
C891 C890 1.370 . S
C891 C892 1.403 . S
C892 C891 1.403 . S
C892 C893 1.404 . S
C892 C895 1.539 . S
C893 C889 1.408 . S
C893 C892 1.404 . S
C893 H905 0.930 . S
C894 C890 1.524 . S
C894 H906 0.956 . S
C894 H907 0.961 . S
C894 H908 0.961 . S
C895 C892 1.539 . S
C895 H909 0.958 . S
C895 H910 0.961 . S
C895 H911 0.960 . S
H896 C880 0.931 . S
H897 C885 0.929 . S
H898 C886 0.960 . S
H899 C886 0.962 . S
H900 C886 0.960 . S
H901 C887 0.961 . S
H902 C887 0.961 . S
H903 C887 0.961 . S
H904 C888 0.931 . S
H905 C893 0.930 . S
H906 C894 0.956 . S
H907 C894 0.961 . S
H908 C894 0.961 . S
H909 C895 0.958 . S
H910 C895 0.961 . S
H911 C895 0.960 . S
C912 C913 1.391 . S
C912 C914 1.394 . S
C912 H928 0.931 . S
C913 C912 1.391 . S
C913 C917 1.376 . S
C914 C912 1.394 . S
C914 C915 1.369 . S
C914 C918 1.531 . S
C915 C914 1.369 . S
C915 C916 1.410 . S
C915 C923 1.503 1_556 S
C916 C915 1.410 . S
C916 C917 1.392 . S
C916 C919 1.511 . S
C917 C913 1.376 . S
C917 C916 1.392 . S
C917 H929 0.929 . S
C918 C914 1.531 . S
C918 H930 0.960 1_556 S
C918 H931 0.962 . S
C918 H932 0.960 . S
C919 C916 1.511 . S
C919 H933 0.961 . S
C919 H934 0.961 1_556 S
C919 H935 0.961 . S
C920 C921 1.370 . S
C920 C922 1.363 . S
C920 H936 0.931 . S
C921 C920 1.370 . S
C921 C925 1.408 . S
C922 C920 1.363 . S
C922 C923 1.370 . S
C922 C926 1.524 . S
C923 C915 1.503 1_554 S
C923 C922 1.370 . S
C923 C924 1.403 . S
C924 C923 1.403 . S
C924 C925 1.404 . S
C924 C927 1.539 . S
C925 C921 1.408 . S
C925 C924 1.404 . S
C925 H937 0.930 . S
C926 C922 1.524 . S
C926 H938 0.956 . S
C926 H939 0.961 . S
C926 H940 0.961 . S
C927 C924 1.539 . S
C927 H941 0.958 . S
C927 H942 0.961 . S
C927 H943 0.960 1_554 S
H928 C912 0.931 . S
H929 C917 0.929 . S
H930 C918 0.960 1_554 S
H931 C918 0.962 . S
H932 C918 0.960 . S
H933 C919 0.961 . S
H934 C919 0.961 1_554 S
H935 C919 0.961 . S
H936 C920 0.931 . S
H937 C925 0.930 . S
H938 C926 0.956 . S
H939 C926 0.961 . S
H940 C926 0.961 . S
H941 C927 0.958 . S
H942 C927 0.961 . S
H943 C927 0.960 1_556 S
C944 C945 1.391 . S
C944 C946 1.394 . S
C944 H960 0.931 . S
C945 C944 1.391 . S
C945 C949 1.376 . S
C946 C944 1.394 . S
C946 C947 1.369 . S
C946 C950 1.531 . S
C947 C946 1.369 . S
C947 C948 1.410 . S
C947 C955 1.503 . S
C948 C947 1.410 . S
C948 C949 1.392 . S
C948 C951 1.511 . S
C949 C945 1.376 . S
C949 C948 1.392 . S
C949 H961 0.929 . S
C950 C946 1.531 . S
C950 H962 0.960 . S
C950 H963 0.962 . S
C950 H964 0.960 . S
C951 C948 1.511 . S
C951 H965 0.961 . S
C951 H966 0.961 . S
C951 H967 0.961 . S
C952 C953 1.370 . S
C952 C954 1.363 . S
C952 H968 0.931 . S
C953 C952 1.370 . S
C953 C957 1.408 . S
C954 C952 1.363 . S
C954 C955 1.370 . S
C954 C958 1.524 . S
C955 C947 1.503 . S
C955 C954 1.370 . S
C955 C956 1.403 . S
C956 C955 1.403 . S
C956 C957 1.404 . S
C956 C959 1.539 . S
C957 C953 1.408 . S
C957 C956 1.404 . S
C957 H969 0.930 . S
C958 C954 1.524 . S
C958 H970 0.956 . S
C958 H971 0.961 . S
C958 H972 0.961 . S
C959 C956 1.539 . S
C959 H973 0.958 . S
C959 H974 0.961 . S
C959 H975 0.960 . S
H960 C944 0.931 . S
H961 C949 0.929 . S
H962 C950 0.960 . S
H963 C950 0.962 . S
H964 C950 0.960 . S
H965 C951 0.961 . S
H966 C951 0.961 . S
H967 C951 0.961 . S
H968 C952 0.931 . S
H969 C957 0.930 . S
H970 C958 0.956 . S
H971 C958 0.961 . S
H972 C958 0.961 . S
H973 C959 0.958 . S
H974 C959 0.961 . S
H975 C959 0.960 . S
C976 C977 1.391 . S
C976 C978 1.394 . S
C976 H992 0.931 . S
C977 C976 1.391 . S
C977 C981 1.376 . S
C978 C976 1.394 . S
C978 C979 1.369 . S
C978 C982 1.531 . S
C979 C978 1.369 . S
C979 C980 1.410 . S
C979 C987 1.503 . S
C980 C979 1.410 . S
C980 C981 1.392 . S
C980 C983 1.511 . S
C981 C977 1.376 . S
C981 C980 1.392 . S
C981 H993 0.929 . S
C982 C978 1.531 . S
C982 H994 0.960 . S
C982 H995 0.962 . S
C982 H996 0.960 . S
C983 C980 1.511 . S
C983 H997 0.961 . S
C983 H998 0.961 . S
C983 H999 0.961 . S
C984 C985 1.370 . S
C984 C986 1.363 . S
C984 H1000 0.931 . S
C985 C984 1.370 . S
C985 C989 1.408 . S
C986 C984 1.363 . S
C986 C987 1.370 . S
C986 C990 1.524 . S
C987 C979 1.503 . S
C987 C986 1.370 . S
C987 C988 1.403 . S
C988 C987 1.403 . S
C988 C989 1.404 . S
C988 C991 1.539 . S
C989 C985 1.408 . S
C989 C988 1.404 . S
C989 H1001 0.930 . S
C990 C986 1.524 . S
C990 H1002 0.956 . S
C990 H1003 0.961 . S
C990 H1004 0.961 . S
C991 C988 1.539 . S
C991 H1005 0.958 . S
C991 H1006 0.961 . S
C991 H1007 0.960 . S
H992 C976 0.931 . S
H993 C981 0.929 . S
H994 C982 0.960 . S
H995 C982 0.962 . S
H996 C982 0.960 . S
H997 C983 0.961 . S
H998 C983 0.961 . S
H999 C983 0.961 . S
H1000 C984 0.931 . S
H1001 C989 0.930 . S
H1002 C990 0.956 . S
H1003 C990 0.961 . S
H1004 C990 0.961 . S
H1005 C991 0.958 . S
H1006 C991 0.961 . S
H1007 C991 0.960 . S
C1008 C1009 1.391 . S
C1008 C1010 1.394 . S
C1008 H1024 0.931 . S
C1009 C1008 1.391 . S
C1009 C1013 1.376 . S
C1010 C1008 1.394 . S
C1010 C1011 1.369 . S
C1010 C1014 1.531 . S
C1011 C1010 1.369 . S
C1011 C1012 1.410 . S
C1011 C1019 1.503 . S
C1012 C1011 1.410 . S
C1012 C1013 1.392 . S
C1012 C1015 1.511 . S
C1013 C1009 1.376 . S
C1013 C1012 1.392 . S
C1013 H1025 0.929 . S
C1014 C1010 1.531 . S
C1014 H1026 0.960 . S
C1014 H1027 0.962 . S
C1014 H1028 0.960 . S
C1015 C1012 1.511 . S
C1015 H1029 0.961 . S
C1015 H1030 0.961 . S
C1015 H1031 0.961 . S
C1016 C1017 1.370 . S
C1016 C1018 1.363 . S
C1016 H1032 0.931 . S
C1017 C1016 1.370 . S
C1017 C1021 1.408 . S
C1018 C1016 1.363 . S
C1018 C1019 1.370 . S
C1018 C1022 1.524 . S
C1019 C1011 1.503 . S
C1019 C1018 1.370 . S
C1019 C1020 1.403 . S
C1020 C1019 1.403 . S
C1020 C1021 1.404 . S
C1020 C1023 1.539 . S
C1021 C1017 1.408 . S
C1021 C1020 1.404 . S
C1021 H1033 0.930 . S
C1022 C1018 1.524 . S
C1022 H1034 0.956 . S
C1022 H1035 0.961 . S
C1022 H1036 0.961 . S
C1023 C1020 1.539 . S
C1023 H1037 0.958 . S
C1023 H1038 0.961 . S
C1023 H1039 0.960 . S
H1024 C1008 0.931 . S
H1025 C1013 0.929 . S
H1026 C1014 0.960 . S
H1027 C1014 0.962 . S
H1028 C1014 0.960 . S
H1029 C1015 0.961 . S
H1030 C1015 0.961 . S
H1031 C1015 0.961 . S
H1032 C1016 0.931 . S
H1033 C1021 0.930 . S
H1034 C1022 0.956 . S
H1035 C1022 0.961 . S
H1036 C1022 0.961 . S
H1037 C1023 0.958 . S
H1038 C1023 0.961 . S
H1039 C1023 0.960 . S
C1040 C1041 1.391 . S
C1040 C1042 1.394 . S
C1040 H1056 0.931 . S
C1041 C1040 1.391 . S
C1041 C1045 1.376 . S
C1042 C1040 1.394 . S
C1042 C1043 1.369 . S
C1042 C1046 1.531 . S
C1043 C1042 1.369 . S
C1043 C1044 1.410 . S
C1043 C1051 1.503 . S
C1044 C1043 1.410 . S
C1044 C1045 1.392 . S
C1044 C1047 1.511 . S
C1045 C1041 1.376 . S
C1045 C1044 1.392 . S
C1045 H1057 0.929 . S
C1046 C1042 1.531 . S
C1046 H1058 0.960 . S
C1046 H1059 0.962 . S
C1046 H1060 0.960 . S
C1047 C1044 1.511 . S
C1047 H1061 0.961 . S
C1047 H1062 0.961 . S
C1047 H1063 0.961 . S
C1048 C1049 1.370 . S
C1048 C1050 1.363 . S
C1048 H1064 0.931 . S
C1049 C1048 1.370 . S
C1049 C1053 1.408 . S
C1050 C1048 1.363 . S
C1050 C1051 1.370 . S
C1050 C1054 1.524 . S
C1051 C1043 1.503 . S
C1051 C1050 1.370 . S
C1051 C1052 1.403 . S
C1052 C1051 1.403 . S
C1052 C1053 1.404 . S
C1052 C1055 1.539 . S
C1053 C1049 1.408 . S
C1053 C1052 1.404 . S
C1053 H1065 0.930 . S
C1054 C1050 1.524 . S
C1054 H1066 0.956 . S
C1054 H1067 0.961 . S
C1054 H1068 0.957 1_554 S
C1055 C1052 1.539 . S
C1055 H1069 0.958 . S
C1055 H1070 0.961 . S
C1055 H1071 0.960 . S
H1056 C1040 0.931 . S
H1057 C1045 0.929 . S
H1058 C1046 0.960 . S
H1059 C1046 0.962 . S
H1060 C1046 0.960 . S
H1061 C1047 0.961 . S
H1062 C1047 0.961 . S
H1063 C1047 0.961 . S
H1064 C1048 0.931 . S
H1065 C1053 0.930 . S
H1066 C1054 0.956 . S
H1067 C1054 0.961 . S
H1068 C1054 0.957 1_556 S
H1069 C1055 0.958 . S
H1070 C1055 0.961 . S
H1071 C1055 0.960 . S
C1072 C1073 1.391 . S
C1072 C1074 1.394 . S
C1072 H1088 0.931 . S
C1073 C1072 1.391 . S
C1073 C1077 1.376 . S
C1074 C1072 1.394 . S
C1074 C1075 1.369 . S
C1074 C1078 1.531 . S
C1075 C1074 1.369 . S
C1075 C1076 1.410 . S
C1075 C1083 1.503 . S
C1076 C1075 1.410 . S
C1076 C1077 1.392 . S
C1076 C1079 1.511 . S
C1077 C1073 1.376 . S
C1077 C1076 1.392 . S
C1077 H1089 0.929 . S
C1078 C1074 1.531 . S
C1078 H1090 0.960 . S
C1078 H1091 0.962 . S
C1078 H1092 0.960 . S
C1079 C1076 1.511 . S
C1079 H1093 0.961 . S
C1079 H1094 0.961 . S
C1079 H1095 0.961 . S
C1080 C1081 1.370 . S
C1080 C1082 1.363 . S
C1080 H1096 0.931 . S
C1081 C1080 1.370 . S
C1081 C1085 1.408 . S
C1082 C1080 1.363 . S
C1082 C1083 1.370 . S
C1082 C1086 1.524 . S
C1083 C1075 1.503 . S
C1083 C1082 1.370 . S
C1083 C1084 1.403 . S
C1084 C1083 1.403 . S
C1084 C1085 1.404 . S
C1084 C1087 1.539 . S
C1085 C1081 1.408 . S
C1085 C1084 1.404 . S
C1085 H1097 0.930 . S
C1086 C1082 1.524 . S
C1086 H1098 0.956 . S
C1086 H1099 0.961 . S
C1086 H1100 0.961 . S
C1087 C1084 1.539 . S
C1087 H1101 0.958 . S
C1087 H1102 0.961 . S
C1087 H1103 0.960 . S
H1088 C1072 0.931 . S
H1089 C1077 0.929 . S
H1090 C1078 0.960 . S
H1091 C1078 0.962 . S
H1092 C1078 0.960 . S
H1093 C1079 0.961 . S
H1094 C1079 0.961 . S
H1095 C1079 0.961 . S
H1096 C1080 0.931 . S
H1097 C1085 0.930 . S
H1098 C1086 0.956 . S
H1099 C1086 0.961 . S
H1100 C1086 0.961 . S
H1101 C1087 0.958 . S
H1102 C1087 0.961 . S
H1103 C1087 0.960 . S
C1104 C1105 1.391 . S
C1104 C1106 1.394 . S
C1104 H1120 0.931 . S
C1105 C1104 1.391 . S
C1105 C1109 1.376 . S
C1106 C1104 1.394 . S
C1106 C1107 1.369 . S
C1106 C1110 1.531 . S
C1107 C1106 1.369 . S
C1107 C1108 1.410 . S
C1107 C1115 1.503 . S
C1108 C1107 1.410 . S
C1108 C1109 1.392 . S
C1108 C1111 1.511 . S
C1109 C1105 1.376 . S
C1109 C1108 1.392 . S
C1109 H1121 0.929 . S
C1110 C1106 1.531 . S
C1110 H1122 0.960 . S
C1110 H1123 0.962 . S
C1110 H1124 0.960 . S
C1111 C1108 1.511 . S
C1111 H1125 0.961 . S
C1111 H1126 0.961 . S
C1111 H1127 0.961 . S
C1112 C1113 1.370 . S
C1112 C1114 1.363 . S
C1112 H1128 0.931 . S
C1113 C1112 1.370 . S
C1113 C1117 1.408 . S
C1114 C1112 1.363 . S
C1114 C1115 1.370 . S
C1114 C1118 1.524 . S
C1115 C1107 1.503 . S
C1115 C1114 1.370 . S
C1115 C1116 1.403 . S
C1116 C1115 1.403 . S
C1116 C1117 1.404 . S
C1116 C1119 1.539 . S
C1117 C1113 1.408 . S
C1117 C1116 1.404 . S
C1117 H1129 0.930 . S
C1118 C1114 1.524 . S
C1118 H1130 0.956 . S
C1118 H1131 0.961 . S
C1118 H1132 0.961 . S
C1119 C1116 1.539 . S
C1119 H1133 0.958 . S
C1119 H1134 0.961 . S
C1119 H1135 0.960 . S
H1120 C1104 0.931 . S
H1121 C1109 0.929 . S
H1122 C1110 0.960 . S
H1123 C1110 0.962 . S
H1124 C1110 0.960 . S
H1125 C1111 0.961 . S
H1126 C1111 0.961 . S
H1127 C1111 0.961 . S
H1128 C1112 0.931 . S
H1129 C1117 0.930 . S
H1130 C1118 0.956 . S
H1131 C1118 0.961 . S
H1132 C1118 0.961 . S
H1133 C1119 0.958 . S
H1134 C1119 0.961 . S
H1135 C1119 0.960 . S
C1136 C1137 1.391 . S
C1136 C1138 1.394 . S
C1136 H1152 0.931 . S
C1137 C1136 1.391 . S
C1137 C1141 1.376 . S
C1138 C1136 1.394 . S
C1138 C1139 1.369 . S
C1138 C1142 1.531 . S
C1139 C1138 1.369 . S
C1139 C1140 1.410 . S
C1139 C1147 1.503 . S
C1140 C1139 1.410 . S
C1140 C1141 1.392 . S
C1140 C1143 1.511 . S
C1141 C1137 1.376 . S
C1141 C1140 1.392 . S
C1141 H1153 0.929 . S
C1142 C1138 1.531 . S
C1142 H1154 0.960 . S
C1142 H1155 0.962 . S
C1142 H1156 0.960 . S
C1143 C1140 1.511 . S
C1143 H1157 0.961 . S
C1143 H1158 0.961 . S
C1143 H1159 0.961 . S
C1144 C1145 1.370 . S
C1144 C1146 1.363 . S
C1144 H1160 0.931 . S
C1145 C1144 1.370 . S
C1145 C1149 1.408 . S
C1146 C1144 1.363 . S
C1146 C1147 1.370 . S
C1146 C1150 1.524 . S
C1147 C1139 1.503 . S
C1147 C1146 1.370 . S
C1147 C1148 1.403 . S
C1148 C1147 1.403 . S
C1148 C1149 1.404 . S
C1148 C1151 1.539 . S
C1149 C1145 1.408 . S
C1149 C1148 1.404 . S
C1149 H1161 0.930 . S
C1150 C1146 1.524 . S
C1150 H1162 0.956 1_556 S
C1150 H1163 0.961 . S
C1150 H1164 0.961 . S
C1151 C1148 1.539 . S
C1151 H1165 0.958 . S
C1151 H1166 0.961 . S
C1151 H1167 0.960 . S
H1152 C1136 0.931 . S
H1153 C1141 0.929 . S
H1154 C1142 0.960 . S
H1155 C1142 0.962 . S
H1156 C1142 0.960 . S
H1157 C1143 0.961 . S
H1158 C1143 0.961 . S
H1159 C1143 0.961 . S
H1160 C1144 0.931 . S
H1161 C1149 0.930 . S
H1162 C1150 0.956 1_554 S
H1163 C1150 0.961 . S
H1164 C1150 0.961 . S
H1165 C1151 0.958 . S
H1166 C1151 0.961 . S
H1167 C1151 0.960 . S
C1168 C1169 1.391 . S
C1168 C1170 1.394 . S
C1168 H1184 0.931 . S
C1169 C1168 1.391 . S
C1169 C1173 1.376 . S
C1170 C1168 1.394 . S
C1170 C1171 1.369 . S
C1170 C1174 1.531 . S
C1171 C1170 1.369 . S
C1171 C1172 1.410 . S
C1171 C1179 1.503 . S
C1172 C1171 1.410 . S
C1172 C1173 1.392 . S
C1172 C1175 1.511 . S
C1173 C1169 1.376 . S
C1173 C1172 1.392 . S
C1173 H1185 0.929 . S
C1174 C1170 1.531 . S
C1174 H1186 0.960 . S
C1174 H1187 0.962 . S
C1174 H1188 0.960 . S
C1175 C1172 1.511 . S
C1175 H1189 0.961 . S
C1175 H1190 0.961 . S
C1175 H1191 0.961 . S
C1176 C1177 1.370 . S
C1176 C1178 1.363 . S
C1176 H1192 0.931 . S
C1177 C1176 1.370 . S
C1177 C1181 1.408 . S
C1178 C1176 1.363 . S
C1178 C1179 1.370 . S
C1178 C1182 1.524 . S
C1179 C1171 1.503 . S
C1179 C1178 1.370 . S
C1179 C1180 1.403 . S
C1180 C1179 1.403 . S
C1180 C1181 1.404 . S
C1180 C1183 1.539 1_556 S
C1181 C1177 1.408 . S
C1181 C1180 1.404 . S
C1181 H1193 0.930 1_556 S
C1182 C1178 1.524 . S
C1182 H1194 0.956 . S
C1182 H1195 0.961 . S
C1182 H1196 0.961 . S
C1183 C1180 1.539 1_554 S
C1183 H1197 0.958 . S
C1183 H1198 0.961 . S
C1183 H1199 0.960 . S
H1184 C1168 0.931 . S
H1185 C1173 0.929 . S
H1186 C1174 0.960 . S
H1187 C1174 0.962 . S
H1188 C1174 0.960 . S
H1189 C1175 0.961 . S
H1190 C1175 0.961 . S
H1191 C1175 0.961 . S
H1192 C1176 0.931 . S
H1193 C1181 0.930 1_554 S
H1194 C1182 0.956 . S
H1195 C1182 0.961 . S
H1196 C1182 0.961 . S
H1197 C1183 0.958 . S
H1198 C1183 0.961 . S
H1199 C1183 0.960 . S
C1200 C1201 1.391 . S
C1200 C1202 1.394 . S
C1200 H1216 0.931 . S
C1201 C1200 1.391 . S
C1201 C1205 1.376 . S
C1202 C1200 1.394 . S
C1202 C1203 1.369 . S
C1202 C1206 1.531 . S
C1203 C1202 1.369 . S
C1203 C1204 1.410 . S
C1203 C1211 1.503 . S
C1204 C1203 1.410 . S
C1204 C1205 1.392 . S
C1204 C1207 1.511 . S
C1205 C1201 1.376 . S
C1205 C1204 1.392 . S
C1205 H1217 0.929 . S
C1206 C1202 1.531 . S
C1206 H1218 0.960 . S
C1206 H1219 0.962 . S
C1206 H1220 0.960 . S
C1207 C1204 1.511 . S
C1207 H1221 0.961 . S
C1207 H1222 0.961 . S
C1207 H1223 0.961 . S
C1208 C1209 1.370 . S
C1208 C1210 1.363 . S
C1208 H1224 0.931 . S
C1209 C1208 1.370 . S
C1209 C1213 1.408 . S
C1210 C1208 1.363 . S
C1210 C1211 1.370 . S
C1210 C1214 1.524 . S
C1211 C1203 1.503 . S
C1211 C1210 1.370 . S
C1211 C1212 1.403 . S
C1212 C1211 1.403 . S
C1212 C1213 1.404 . S
C1212 C1215 1.539 . S
C1213 C1209 1.408 . S
C1213 C1212 1.404 . S
C1213 H1225 0.930 . S
C1214 C1210 1.524 . S
C1214 H1226 0.956 . S
C1214 H1227 0.961 . S
C1214 H1228 0.961 . S
C1215 C1212 1.539 . S
C1215 H1229 0.958 . S
C1215 H1230 0.961 . S
C1215 H1231 0.960 . S
H1216 C1200 0.931 . S
H1217 C1205 0.929 . S
H1218 C1206 0.960 . S
H1219 C1206 0.962 . S
H1220 C1206 0.960 . S
H1221 C1207 0.961 . S
H1222 C1207 0.961 . S
H1223 C1207 0.961 . S
H1224 C1208 0.931 . S
H1225 C1213 0.930 . S
H1226 C1214 0.956 . S
H1227 C1214 0.961 . S
H1228 C1214 0.961 . S
H1229 C1215 0.958 . S
H1230 C1215 0.961 . S
H1231 C1215 0.960 . S
C1232 C1233 1.391 . S
C1232 C1234 1.394 . S
C1232 H1248 0.931 . S
C1233 C1232 1.391 . S
C1233 C1237 1.376 . S
C1234 C1232 1.394 . S
C1234 C1235 1.369 . S
C1234 C1238 1.531 . S
C1235 C1234 1.369 . S
C1235 C1236 1.410 . S
C1235 C1243 1.503 . S
C1236 C1235 1.410 . S
C1236 C1237 1.392 . S
C1236 C1239 1.511 . S
C1237 C1233 1.376 . S
C1237 C1236 1.392 . S
C1237 H1249 0.929 . S
C1238 C1234 1.531 . S
C1238 H1250 0.960 . S
C1238 H1251 0.962 . S
C1238 H1252 0.960 . S
C1239 C1236 1.511 . S
C1239 H1253 0.961 . S
C1239 H1254 0.961 . S
C1239 H1255 0.961 . S
C1240 C1241 1.370 . S
C1240 C1242 1.363 . S
C1240 H1256 0.931 . S
C1241 C1240 1.370 . S
C1241 C1245 1.408 . S
C1242 C1240 1.363 . S
C1242 C1243 1.370 . S
C1242 C1246 1.524 . S
C1243 C1235 1.503 . S
C1243 C1242 1.370 . S
C1243 C1244 1.403 . S
C1244 C1243 1.403 . S
C1244 C1245 1.404 . S
C1244 C1247 1.539 . S
C1245 C1241 1.408 . S
C1245 C1244 1.404 . S
C1245 H1257 0.930 . S
C1246 C1242 1.524 . S
C1246 H1258 0.956 . S
C1246 H1259 0.961 . S
C1246 H1260 0.961 . S
C1247 C1244 1.539 . S
C1247 H1261 0.958 . S
C1247 H1262 0.961 . S
C1247 H1263 0.960 . S
H1248 C1232 0.931 . S
H1249 C1237 0.929 . S
H1250 C1238 0.960 . S
H1251 C1238 0.962 . S
H1252 C1238 0.960 . S
H1253 C1239 0.961 . S
H1254 C1239 0.961 . S
H1255 C1239 0.961 . S
H1256 C1240 0.931 . S
H1257 C1245 0.930 . S
H1258 C1246 0.956 . S
H1259 C1246 0.961 . S
H1260 C1246 0.961 . S
H1261 C1247 0.958 . S
H1262 C1247 0.961 . S
H1263 C1247 0.960 . S
C1264 C1265 1.391 . S
C1264 C1266 1.394 . S
C1264 H1280 0.931 . S
C1265 C1264 1.391 . S
C1265 C1269 1.376 . S
C1266 C1264 1.394 . S
C1266 C1267 1.369 . S
C1266 C1270 1.531 . S
C1267 C1266 1.369 . S
C1267 C1268 1.410 . S
C1267 C1275 1.503 . S
C1268 C1267 1.410 . S
C1268 C1269 1.392 . S
C1268 C1271 1.511 . S
C1269 C1265 1.376 . S
C1269 C1268 1.392 . S
C1269 H1281 0.929 . S
C1270 C1266 1.531 . S
C1270 H1282 0.960 . S
C1270 H1283 0.962 . S
C1270 H1284 0.960 . S
C1271 C1268 1.511 . S
C1271 H1285 0.961 . S
C1271 H1286 0.961 . S
C1271 H1287 0.961 . S
C1272 C1273 1.370 . S
C1272 C1274 1.363 . S
C1272 H1288 0.931 . S
C1273 C1272 1.370 . S
C1273 C1277 1.408 . S
C1274 C1272 1.363 . S
C1274 C1275 1.370 . S
C1274 C1278 1.524 . S
C1275 C1267 1.503 . S
C1275 C1274 1.370 . S
C1275 C1276 1.403 . S
C1276 C1275 1.403 . S
C1276 C1277 1.404 . S
C1276 C1279 1.539 1_554 S
C1277 C1273 1.408 . S
C1277 C1276 1.404 . S
C1277 H1289 0.930 1_554 S
C1278 C1274 1.524 . S
C1278 H1290 0.956 . S
C1278 H1291 0.961 . S
C1278 H1292 0.961 . S
C1279 C1276 1.539 1_556 S
C1279 H1293 0.958 . S
C1279 H1294 0.961 . S
C1279 H1295 0.960 . S
H1280 C1264 0.931 . S
H1281 C1269 0.929 . S
H1282 C1270 0.960 . S
H1283 C1270 0.962 . S
H1284 C1270 0.960 . S
H1285 C1271 0.961 . S
H1286 C1271 0.961 . S
H1287 C1271 0.961 . S
H1288 C1272 0.931 . S
H1289 C1277 0.930 1_556 S
H1290 C1278 0.956 . S
H1291 C1278 0.961 . S
H1292 C1278 0.961 . S
H1293 C1279 0.958 . S
H1294 C1279 0.961 . S
H1295 C1279 0.960 . S
C1296 C1297 1.391 . S
C1296 C1298 1.394 . S
C1296 H1312 0.931 . S
C1297 C1296 1.391 . S
C1297 C1301 1.376 . S
C1298 C1296 1.394 . S
C1298 C1299 1.369 . S
C1298 C1302 1.531 . S
C1299 C1298 1.369 . S
C1299 C1300 1.410 . S
C1299 C1307 1.503 . S
C1300 C1299 1.410 . S
C1300 C1301 1.392 . S
C1300 C1303 1.511 . S
C1301 C1297 1.376 . S
C1301 C1300 1.392 . S
C1301 H1313 0.929 . S
C1302 C1298 1.531 . S
C1302 H1314 0.960 . S
C1302 H1315 0.962 . S
C1302 H1316 0.960 . S
C1303 C1300 1.511 . S
C1303 H1317 0.961 . S
C1303 H1318 0.961 . S
C1303 H1319 0.961 . S
C1304 C1305 1.370 . S
C1304 C1306 1.363 . S
C1304 H1320 0.931 . S
C1305 C1304 1.370 . S
C1305 C1309 1.408 . S
C1306 C1304 1.363 . S
C1306 C1307 1.370 . S
C1306 C1310 1.524 . S
C1307 C1299 1.503 . S
C1307 C1306 1.370 . S
C1307 C1308 1.403 . S
C1308 C1307 1.403 . S
C1308 C1309 1.404 . S
C1308 C1311 1.539 . S
C1309 C1305 1.408 . S
C1309 C1308 1.404 . S
C1309 H1321 0.930 . S
C1310 C1306 1.524 . S
C1310 H1322 0.956 . S
C1310 H1323 0.961 . S
C1310 H1324 0.961 . S
C1311 C1308 1.539 . S
C1311 H1325 0.958 . S
C1311 H1326 0.961 . S
C1311 H1327 0.960 . S
H1312 C1296 0.931 . S
H1313 C1301 0.929 . S
H1314 C1302 0.960 . S
H1315 C1302 0.962 . S
H1316 C1302 0.960 . S
H1317 C1303 0.961 . S
H1318 C1303 0.961 . S
H1319 C1303 0.961 . S
H1320 C1304 0.931 . S
H1321 C1309 0.930 . S
H1322 C1310 0.956 . S
H1323 C1310 0.961 . S
H1324 C1310 0.961 . S
H1325 C1311 0.958 . S
H1326 C1311 0.961 . S
H1327 C1311 0.960 . S
C1328 C1329 1.391 . S
C1328 C1330 1.394 . S
C1328 H1344 0.931 . S
C1329 C1328 1.391 . S
C1329 C1333 1.376 . S
C1330 C1328 1.394 . S
C1330 C1331 1.369 . S
C1330 C1334 1.531 . S
C1331 C1330 1.369 . S
C1331 C1332 1.410 . S
C1331 C1339 1.503 . S
C1332 C1331 1.410 . S
C1332 C1333 1.392 . S
C1332 C1335 1.511 . S
C1333 C1329 1.376 . S
C1333 C1332 1.392 . S
C1333 H1345 0.929 . S
C1334 C1330 1.531 . S
C1334 H1346 0.960 1_556 S
C1334 H1347 0.962 . S
C1334 H1348 0.960 1_556 S
C1335 C1332 1.511 . S
C1335 H1349 0.961 . S
C1335 H1350 0.961 . S
C1335 H1351 0.961 . S
C1336 C1337 1.370 . S
C1336 C1338 1.363 . S
C1336 H1352 0.931 . S
C1337 C1336 1.370 . S
C1337 C1341 1.408 . S
C1338 C1336 1.363 . S
C1338 C1339 1.370 . S
C1338 C1342 1.524 . S
C1339 C1331 1.503 . S
C1339 C1338 1.370 . S
C1339 C1340 1.403 . S
C1340 C1339 1.403 . S
C1340 C1341 1.404 . S
C1340 C1343 1.539 . S
C1341 C1337 1.408 . S
C1341 C1340 1.404 . S
C1341 H1353 0.930 . S
C1342 C1338 1.524 . S
C1342 H1354 0.956 . S
C1342 H1355 0.961 . S
C1342 H1356 0.961 . S
C1343 C1340 1.539 . S
C1343 H1357 0.958 1_556 S
C1343 H1358 0.961 . S
C1343 H1359 0.960 . S
H1344 C1328 0.931 . S
H1345 C1333 0.929 . S
H1346 C1334 0.960 1_554 S
H1347 C1334 0.962 . S
H1348 C1334 0.960 1_554 S
H1349 C1335 0.961 . S
H1350 C1335 0.961 . S
H1351 C1335 0.961 . S
H1352 C1336 0.931 . S
H1353 C1341 0.930 . S
H1354 C1342 0.956 . S
H1355 C1342 0.961 . S
H1356 C1342 0.961 . S
H1357 C1343 0.958 1_554 S
H1358 C1343 0.961 . S
H1359 C1343 0.960 . S
C1360 C1361 1.391 . S
C1360 C1362 1.394 . S
C1360 H1376 0.931 1_554 S
C1361 C1360 1.391 . S
C1361 C1365 1.376 . S
C1362 C1360 1.394 . S
C1362 C1363 1.369 . S
C1362 C1366 1.531 . S
C1363 C1362 1.369 . S
C1363 C1364 1.410 . S
C1363 C1371 1.503 . S
C1364 C1363 1.410 . S
C1364 C1365 1.392 . S
C1364 C1367 1.511 . S
C1365 C1361 1.376 . S
C1365 C1364 1.392 . S
C1365 H1377 0.929 . S
C1366 C1362 1.531 . S
C1366 H1378 0.960 . S
C1366 H1379 0.962 . S
C1366 H1380 0.960 1_554 S
C1367 C1364 1.511 . S
C1367 H1381 0.961 . S
C1367 H1382 0.961 . S
C1367 H1383 0.961 . S
C1368 C1369 1.370 . S
C1368 C1370 1.363 . S
C1368 H1384 0.931 . S
C1369 C1368 1.370 . S
C1369 C1373 1.408 . S
C1370 C1368 1.363 . S
C1370 C1371 1.370 . S
C1370 C1374 1.524 . S
C1371 C1363 1.503 . S
C1371 C1370 1.370 . S
C1371 C1372 1.403 . S
C1372 C1371 1.403 . S
C1372 C1373 1.404 . S
C1372 C1375 1.539 . S
C1373 C1369 1.408 . S
C1373 C1372 1.404 . S
C1373 H1385 0.930 . S
C1374 C1370 1.524 . S
C1374 H1386 0.956 . S
C1374 H1387 0.961 . S
C1374 H1388 0.961 . S
C1375 C1372 1.539 . S
C1375 H1389 0.958 1_554 S
C1375 H1390 0.961 . S
C1375 H1391 0.960 . S
H1376 C1360 0.931 1_556 S
H1377 C1365 0.929 . S
H1378 C1366 0.960 . S
H1379 C1366 0.962 . S
H1380 C1366 0.960 1_556 S
H1381 C1367 0.961 . S
H1382 C1367 0.961 . S
H1383 C1367 0.961 . S
H1384 C1368 0.931 . S
H1385 C1373 0.930 . S
H1386 C1374 0.956 . S
H1387 C1374 0.961 . S
H1388 C1374 0.961 . S
H1389 C1375 0.958 1_556 S
H1390 C1375 0.961 . S
H1391 C1375 0.960 . S
C1392 C1393 1.391 . S
C1392 C1394 1.394 . S
C1392 H1408 0.931 . S
C1393 C1392 1.391 . S
C1393 C1397 1.376 . S
C1394 C1392 1.394 . S
C1394 C1395 1.369 . S
C1394 C1398 1.531 . S
C1395 C1394 1.369 . S
C1395 C1396 1.410 . S
C1395 C1403 1.503 . S
C1396 C1395 1.410 . S
C1396 C1397 1.392 . S
C1396 C1399 1.511 . S
C1397 C1393 1.376 . S
C1397 C1396 1.392 . S
C1397 H1409 0.929 . S
C1398 C1394 1.531 . S
C1398 H1410 0.960 . S
C1398 H1411 0.962 . S
C1398 H1412 0.960 . S
C1399 C1396 1.511 . S
C1399 H1413 0.961 . S
C1399 H1414 0.961 . S
C1399 H1415 0.961 . S
C1400 C1401 1.370 . S
C1400 C1402 1.363 . S
C1400 H1416 0.931 . S
C1401 C1400 1.370 . S
C1401 C1405 1.408 . S
C1402 C1400 1.363 . S
C1402 C1403 1.370 . S
C1402 C1406 1.524 . S
C1403 C1395 1.503 . S
C1403 C1402 1.370 . S
C1403 C1404 1.403 . S
C1404 C1403 1.403 . S
C1404 C1405 1.404 . S
C1404 C1407 1.539 . S
C1405 C1401 1.408 . S
C1405 C1404 1.404 . S
C1405 H1417 0.930 . S
C1406 C1402 1.524 . S
C1406 H1418 0.956 . S
C1406 H1419 0.961 . S
C1406 H1420 0.961 . S
C1407 C1404 1.539 . S
C1407 H1421 0.958 . S
C1407 H1422 0.961 . S
C1407 H1423 0.960 . S
H1408 C1392 0.931 . S
H1409 C1397 0.929 . S
H1410 C1398 0.960 . S
H1411 C1398 0.962 . S
H1412 C1398 0.960 . S
H1413 C1399 0.961 . S
H1414 C1399 0.961 . S
H1415 C1399 0.961 . S
H1416 C1400 0.931 . S
H1417 C1405 0.930 . S
H1418 C1406 0.956 . S
H1419 C1406 0.961 . S
H1420 C1406 0.961 . S
H1421 C1407 0.958 . S
H1422 C1407 0.961 . S
H1423 C1407 0.960 . S
C1424 C1425 1.391 . S
C1424 C1426 1.394 . S
C1424 H1440 0.931 . S
C1425 C1424 1.391 . S
C1425 C1429 1.376 . S
C1426 C1424 1.394 . S
C1426 C1427 1.369 . S
C1426 C1430 1.531 . S
C1427 C1426 1.369 . S
C1427 C1428 1.410 . S
C1427 C1435 1.503 . S
C1428 C1427 1.410 . S
C1428 C1429 1.392 . S
C1428 C1431 1.511 . S
C1429 C1425 1.376 . S
C1429 C1428 1.392 . S
C1429 H1441 0.929 . S
C1430 C1426 1.531 . S
C1430 H1442 0.960 . S
C1430 H1443 0.962 . S
C1430 H1444 0.960 . S
C1431 C1428 1.511 . S
C1431 H1445 0.961 . S
C1431 H1446 0.961 . S
C1431 H1447 0.961 . S
C1432 C1433 1.370 . S
C1432 C1434 1.363 . S
C1432 H1448 0.931 . S
C1433 C1432 1.370 . S
C1433 C1437 1.408 . S
C1434 C1432 1.363 . S
C1434 C1435 1.370 . S
C1434 C1438 1.524 . S
C1435 C1427 1.503 . S
C1435 C1434 1.370 . S
C1435 C1436 1.403 . S
C1436 C1435 1.403 . S
C1436 C1437 1.404 . S
C1436 C1439 1.539 . S
C1437 C1433 1.408 . S
C1437 C1436 1.404 . S
C1437 H1449 0.930 . S
C1438 C1434 1.524 . S
C1438 H1450 0.956 . S
C1438 H1451 0.961 . S
C1438 H1452 0.961 . S
C1439 C1436 1.539 . S
C1439 H1453 0.958 . S
C1439 H1454 0.961 . S
C1439 H1455 0.960 . S
H1440 C1424 0.931 . S
H1441 C1429 0.929 . S
H1442 C1430 0.960 . S
H1443 C1430 0.962 . S
H1444 C1430 0.960 . S
H1445 C1431 0.961 . S
H1446 C1431 0.961 . S
H1447 C1431 0.961 . S
H1448 C1432 0.931 . S
H1449 C1437 0.930 . S
H1450 C1438 0.956 . S
H1451 C1438 0.961 . S
H1452 C1438 0.961 . S
H1453 C1439 0.958 . S
H1454 C1439 0.961 . S
H1455 C1439 0.960 . S
C1456 C1457 1.391 . S
C1456 C1458 1.394 . S
C1456 H1472 0.931 . S
C1457 C1456 1.391 . S
C1457 C1461 1.376 . S
C1458 C1456 1.394 . S
C1458 C1459 1.369 . S
C1458 C1462 1.531 . S
C1459 C1458 1.369 . S
C1459 C1460 1.410 . S
C1459 C1467 1.503 . S
C1460 C1459 1.410 . S
C1460 C1461 1.392 . S
C1460 C1463 1.511 . S
C1461 C1457 1.376 . S
C1461 C1460 1.392 . S
C1461 H1473 0.929 . S
C1462 C1458 1.531 . S
C1462 H1474 0.960 . S
C1462 H1475 0.962 . S
C1462 H1476 0.960 . S
C1463 C1460 1.511 . S
C1463 H1477 0.961 . S
C1463 H1478 0.961 . S
C1463 H1479 0.961 . S
C1464 C1465 1.370 . S
C1464 C1466 1.363 . S
C1464 H1480 0.931 . S
C1465 C1464 1.370 . S
C1465 C1469 1.408 . S
C1466 C1464 1.363 . S
C1466 C1467 1.370 . S
C1466 C1470 1.524 . S
C1467 C1459 1.503 . S
C1467 C1466 1.370 . S
C1467 C1468 1.403 . S
C1468 C1467 1.403 . S
C1468 C1469 1.404 . S
C1468 C1471 1.539 1_554 S
C1469 C1465 1.408 . S
C1469 C1468 1.404 . S
C1469 H1481 0.930 1_554 S
C1470 C1466 1.524 . S
C1470 H1482 0.956 . S
C1470 H1483 0.961 . S
C1470 H1484 0.961 . S
C1471 C1468 1.539 1_556 S
C1471 H1485 0.958 1_556 S
C1471 H1486 0.961 . S
C1471 H1487 0.960 . S
H1472 C1456 0.931 . S
H1473 C1461 0.929 . S
H1474 C1462 0.960 . S
H1475 C1462 0.962 . S
H1476 C1462 0.960 . S
H1477 C1463 0.961 . S
H1478 C1463 0.961 . S
H1479 C1463 0.961 . S
H1480 C1464 0.931 . S
H1481 C1469 0.930 1_556 S
H1482 C1470 0.956 . S
H1483 C1470 0.961 . S
H1484 C1470 0.961 . S
H1485 C1471 0.958 1_554 S
H1486 C1471 0.961 . S
H1487 C1471 0.960 . S
C1488 C1489 1.391 . S
C1488 C1490 1.394 . S
C1488 H1504 0.931 . S
C1489 C1488 1.391 . S
C1489 C1493 1.376 . S
C1490 C1488 1.394 . S
C1490 C1491 1.369 . S
C1490 C1494 1.531 . S
C1491 C1490 1.369 . S
C1491 C1492 1.410 . S
C1491 C1499 1.503 . S
C1492 C1491 1.410 . S
C1492 C1493 1.392 . S
C1492 C1495 1.511 . S
C1493 C1489 1.376 . S
C1493 C1492 1.392 . S
C1493 H1505 0.929 . S
C1494 C1490 1.531 . S
C1494 H1506 0.960 . S
C1494 H1507 0.962 . S
C1494 H1508 0.960 . S
C1495 C1492 1.511 . S
C1495 H1509 0.961 . S
C1495 H1510 0.961 . S
C1495 H1511 0.961 . S
C1496 C1497 1.370 . S
C1496 C1498 1.363 . S
C1496 H1512 0.931 1_556 S
C1497 C1496 1.370 . S
C1497 C1501 1.408 . S
C1498 C1496 1.363 . S
C1498 C1499 1.370 . S
C1498 C1502 1.524 1_556 S
C1499 C1491 1.503 . S
C1499 C1498 1.370 . S
C1499 C1500 1.403 . S
C1500 C1499 1.403 . S
C1500 C1501 1.404 . S
C1500 C1503 1.539 . S
C1501 C1497 1.408 . S
C1501 C1500 1.404 . S
C1501 H1513 0.930 . S
C1502 C1498 1.524 1_554 S
C1502 H1514 0.956 1_554 S
C1502 H1515 0.961 . S
C1502 H1516 0.961 . S
C1503 C1500 1.539 . S
C1503 H1517 0.958 . S
C1503 H1518 0.961 . S
C1503 H1519 0.960 . S
H1504 C1488 0.931 . S
H1505 C1493 0.929 . S
H1506 C1494 0.960 . S
H1507 C1494 0.962 . S
H1508 C1494 0.960 . S
H1509 C1495 0.961 . S
H1510 C1495 0.961 . S
H1511 C1495 0.961 . S
H1512 C1496 0.931 1_554 S
H1513 C1501 0.930 . S
H1514 C1502 0.956 1_556 S
H1515 C1502 0.961 . S
H1516 C1502 0.961 . S
H1517 C1503 0.958 . S
H1518 C1503 0.961 . S
H1519 C1503 0.960 . S
C1520 C1521 1.391 . S
C1520 C1522 1.394 . S
C1520 H1536 0.931 . S
C1521 C1520 1.391 . S
C1521 C1525 1.376 . S
C1522 C1520 1.394 . S
C1522 C1523 1.369 . S
C1522 C1526 1.531 . S
C1523 C1522 1.369 . S
C1523 C1524 1.410 . S
C1523 C1531 1.503 . S
C1524 C1523 1.410 . S
C1524 C1525 1.392 . S
C1524 C1527 1.511 . S
C1525 C1521 1.376 . S
C1525 C1524 1.392 . S
C1525 H1537 0.929 . S
C1526 C1522 1.531 . S
C1526 H1538 0.960 . S
C1526 H1539 0.962 . S
C1526 H1540 0.960 . S
C1527 C1524 1.511 . S
C1527 H1541 0.961 . S
C1527 H1542 0.961 . S
C1527 H1543 0.961 . S
C1528 C1529 1.370 . S
C1528 C1530 1.363 . S
C1528 H1544 0.931 . S
C1529 C1528 1.370 . S
C1529 C1533 1.408 . S
C1530 C1528 1.363 . S
C1530 C1531 1.370 . S
C1530 C1534 1.524 . S
C1531 C1523 1.503 . S
C1531 C1530 1.370 . S
C1531 C1532 1.403 . S
C1532 C1531 1.403 . S
C1532 C1533 1.404 . S
C1532 C1535 1.539 . S
C1533 C1529 1.408 . S
C1533 C1532 1.404 . S
C1533 H1545 0.930 . S
C1534 C1530 1.524 . S
C1534 H1546 0.956 . S
C1534 H1547 0.961 . S
C1534 H1548 0.961 . S
C1535 C1532 1.539 . S
C1535 H1549 0.958 . S
C1535 H1550 0.961 . S
C1535 H1551 0.960 . S
H1536 C1520 0.931 . S
H1537 C1525 0.929 . S
H1538 C1526 0.960 . S
H1539 C1526 0.962 . S
H1540 C1526 0.960 . S
H1541 C1527 0.961 . S
H1542 C1527 0.961 . S
H1543 C1527 0.961 . S
H1544 C1528 0.931 . S
H1545 C1533 0.930 . S
H1546 C1534 0.956 . S
H1547 C1534 0.961 . S
H1548 C1534 0.961 . S
H1549 C1535 0.958 . S
H1550 C1535 0.961 . S
H1551 C1535 0.960 . S
C1552 C1553 1.391 1_566 S
C1552 C1554 1.397 . S
C1552 H1568 0.931 . S
C1553 C1552 1.391 1_544 S
C1553 C1557 1.376 . S
C1554 C1552 1.397 . S
C1554 C1555 1.347 1_565 S
C1554 C1558 1.551 . S
C1555 C1554 1.347 1_545 S
C1555 C1556 1.410 1_556 S
C1555 C1563 1.503 . S
C1556 C1555 1.410 1_554 S
C1556 C1557 1.392 . S
C1556 C1559 1.511 . S
C1557 C1553 1.376 . S
C1557 C1556 1.392 . S
C1557 H1569 0.929 . S
C1558 C1554 1.551 . S
C1558 H1570 0.960 . S
C1558 H1571 0.962 . S
C1558 H1572 0.960 . S
C1559 C1556 1.511 . S
C1559 H1573 0.961 . S
C1559 H1574 0.961 . S
C1559 H1575 0.961 . S
C1560 C1561 1.370 1_564 S
C1560 C1562 1.363 . S
C1560 H1576 0.931 . S
C1561 C1560 1.370 1_546 S
C1561 C1565 1.408 . S
C1562 C1560 1.363 . S
C1562 C1563 1.370 1_564 S
C1562 C1566 1.524 . S
C1563 C1555 1.503 . S
C1563 C1562 1.370 1_546 S
C1563 C1564 1.403 . S
C1564 C1563 1.403 . S
C1564 C1565 1.404 . S
C1564 C1567 1.539 . S
C1565 C1561 1.408 . S
C1565 C1564 1.404 . S
C1565 H1577 0.930 . S
C1566 C1562 1.524 . S
C1566 H1578 0.956 . S
C1566 H1579 0.961 . S
C1566 H1580 0.961 . S
C1567 C1564 1.539 . S
C1567 H1581 0.958 . S
C1567 H1582 0.961 . S
C1567 H1583 0.960 . S
H1568 C1552 0.931 . S
H1569 C1557 0.929 . S
H1570 C1558 0.960 . S
H1571 C1558 0.962 . S
H1572 C1558 0.960 . S
H1573 C1559 0.961 . S
H1574 C1559 0.961 . S
H1575 C1559 0.961 . S
H1576 C1560 0.931 . S
H1577 C1565 0.930 . S
H1578 C1566 0.956 . S
H1579 C1566 0.961 . S
H1580 C1566 0.961 . S
H1581 C1567 0.958 . S
H1582 C1567 0.961 . S
H1583 C1567 0.960 . S
C1584 C1585 1.391 . S
C1584 C1586 1.394 . S
C1584 H1600 0.931 . S
C1585 C1584 1.391 . S
C1585 C1589 1.376 . S
C1586 C1584 1.394 . S
C1586 C1587 1.369 . S
C1586 C1590 1.531 . S
C1587 C1586 1.369 . S
C1587 C1588 1.410 . S
C1587 C1595 1.503 . S
C1588 C1587 1.410 . S
C1588 C1589 1.392 . S
C1588 C1591 1.511 . S
C1589 C1585 1.376 . S
C1589 C1588 1.392 . S
C1589 H1601 0.929 . S
C1590 C1586 1.531 . S
C1590 H1602 0.960 . S
C1590 H1603 0.962 . S
C1590 H1604 0.960 . S
C1591 C1588 1.511 . S
C1591 H1605 0.961 . S
C1591 H1606 0.961 . S
C1591 H1607 0.961 . S
C1592 C1593 1.370 . S
C1592 C1594 1.363 . S
C1592 H1608 0.931 . S
C1593 C1592 1.370 . S
C1593 C1597 1.408 . S
C1594 C1592 1.363 . S
C1594 C1595 1.370 . S
C1594 C1598 1.524 . S
C1595 C1587 1.503 . S
C1595 C1594 1.370 . S
C1595 C1596 1.403 . S
C1596 C1595 1.403 . S
C1596 C1597 1.404 . S
C1596 C1599 1.539 . S
C1597 C1593 1.408 . S
C1597 C1596 1.404 . S
C1597 H1609 0.930 . S
C1598 C1594 1.524 . S
C1598 H1610 0.956 . S
C1598 H1611 0.961 . S
C1598 H1612 0.961 . S
C1599 C1596 1.539 . S
C1599 H1613 0.958 . S
C1599 H1614 0.961 . S
C1599 H1615 0.960 . S
H1600 C1584 0.931 . S
H1601 C1589 0.929 . S
H1602 C1590 0.960 . S
H1603 C1590 0.962 . S
H1604 C1590 0.960 . S
H1605 C1591 0.961 . S
H1606 C1591 0.961 . S
H1607 C1591 0.961 . S
H1608 C1592 0.931 . S
H1609 C1597 0.930 . S
H1610 C1598 0.956 . S
H1611 C1598 0.961 . S
H1612 C1598 0.961 . S
H1613 C1599 0.958 . S
H1614 C1599 0.961 . S
H1615 C1599 0.960 . S
C1616 C1617 1.391 . S
C1616 C1618 1.394 . S
C1616 H1632 0.931 . S
C1617 C1616 1.391 . S
C1617 C1621 1.376 . S
C1618 C1616 1.394 . S
C1618 C1619 1.369 . S
C1618 C1622 1.531 . S
C1619 C1618 1.369 . S
C1619 C1620 1.410 . S
C1619 C1627 1.503 1_455 S
C1620 C1619 1.410 . S
C1620 C1621 1.392 . S
C1620 C1623 1.511 1_545 S
C1621 C1617 1.376 . S
C1621 C1620 1.392 . S
C1621 H1633 0.929 1_545 S
C1622 C1618 1.531 . S
C1622 H1634 0.917 1_455 S
C1622 H1635 0.962 . S
C1622 H1636 0.960 . S
C1623 C1620 1.511 1_565 S
C1623 H1637 0.961 . S
C1623 H1638 0.961 1_455 S
C1623 H1639 0.961 1_565 S
C1624 C1625 1.370 1_565 S
C1624 C1626 1.363 . S
C1624 H1640 0.931 . S
C1625 C1624 1.370 1_545 S
C1625 C1629 1.408 . S
C1626 C1624 1.363 . S
C1626 C1627 1.370 1_565 S
C1626 C1630 1.524 . S
C1627 C1619 1.503 1_655 S
C1627 C1626 1.370 1_545 S
C1627 C1628 1.403 . S
C1628 C1627 1.403 . S
C1628 C1629 1.404 . S
C1628 C1631 1.539 . S
C1629 C1625 1.408 . S
C1629 C1628 1.404 . S
C1629 H1641 0.930 . S
C1630 C1626 1.524 . S
C1630 H1642 0.952 . S
C1630 H1643 0.961 1_655 S
C1630 H1644 0.961 . S
C1631 C1628 1.539 . S
C1631 H1645 0.958 . S
C1631 H1646 0.961 . S
C1631 H1647 1.017 . S
H1632 C1616 0.931 . S
H1633 C1621 0.929 1_565 S
H1634 C1622 0.917 1_655 S
H1635 C1622 0.962 . S
H1636 C1622 0.960 . S
H1637 C1623 0.961 . S
H1638 C1623 0.961 1_655 S
H1639 C1623 0.961 1_545 S
H1640 C1624 0.931 . S
H1641 C1629 0.930 . S
H1642 C1630 0.952 . S
H1643 C1630 0.961 1_455 S
H1644 C1630 0.961 . S
H1645 C1631 0.958 . S
H1646 C1631 0.961 . S
H1647 C1631 1.017 . S
C1648 C1649 1.391 . S
C1648 C1650 1.394 . S
C1648 H1664 0.931 . S
C1649 C1648 1.391 . S
C1649 C1653 1.376 . S
C1650 C1648 1.394 . S
C1650 C1651 1.369 . S
C1650 C1654 1.531 . S
C1651 C1650 1.369 . S
C1651 C1652 1.410 . S
C1651 C1659 1.503 . S
C1652 C1651 1.410 . S
C1652 C1653 1.392 . S
C1652 C1655 1.511 . S
C1653 C1649 1.376 . S
C1653 C1652 1.392 . S
C1653 H1665 0.929 . S
C1654 C1650 1.531 . S
C1654 H1666 0.960 . S
C1654 H1667 0.962 . S
C1654 H1668 0.960 . S
C1655 C1652 1.511 . S
C1655 H1669 0.961 . S
C1655 H1670 0.961 . S
C1655 H1671 0.961 . S
C1656 C1657 1.370 . S
C1656 C1658 1.363 . S
C1656 H1672 0.931 . S
C1657 C1656 1.370 . S
C1657 C1661 1.408 . S
C1658 C1656 1.363 . S
C1658 C1659 1.370 . S
C1658 C1662 1.524 . S
C1659 C1651 1.503 . S
C1659 C1658 1.370 . S
C1659 C1660 1.403 . S
C1660 C1659 1.403 . S
C1660 C1661 1.404 . S
C1660 C1663 1.539 . S
C1661 C1657 1.408 . S
C1661 C1660 1.404 . S
C1661 H1673 0.930 . S
C1662 C1658 1.524 . S
C1662 H1674 0.956 . S
C1662 H1675 0.961 . S
C1662 H1676 0.961 . S
C1663 C1660 1.539 . S
C1663 H1677 0.958 . S
C1663 H1678 0.961 . S
C1663 H1679 0.960 . S
H1664 C1648 0.931 . S
H1665 C1653 0.929 . S
H1666 C1654 0.960 . S
H1667 C1654 0.962 . S
H1668 C1654 0.960 . S
H1669 C1655 0.961 . S
H1670 C1655 0.961 . S
H1671 C1655 0.961 . S
H1672 C1656 0.931 . S
H1673 C1661 0.930 . S
H1674 C1662 0.956 . S
H1675 C1662 0.961 . S
H1676 C1662 0.961 . S
H1677 C1663 0.958 . S
H1678 C1663 0.961 . S
H1679 C1663 0.960 . S
C1680 C1681 1.391 . S
C1680 C1682 1.394 . S
C1680 H1696 0.931 . S
C1681 C1680 1.391 . S
C1681 C1685 1.376 . S
C1682 C1680 1.394 . S
C1682 C1683 1.369 . S
C1682 C1686 1.531 . S
C1683 C1682 1.369 . S
C1683 C1684 1.410 . S
C1683 C1691 1.503 . S
C1684 C1683 1.410 . S
C1684 C1685 1.392 . S
C1684 C1687 1.511 . S
C1685 C1681 1.376 . S
C1685 C1684 1.392 . S
C1685 H1697 0.929 . S
C1686 C1682 1.531 . S
C1686 H1698 0.960 . S
C1686 H1699 0.962 . S
C1686 H1700 0.960 . S
C1687 C1684 1.511 . S
C1687 H1701 0.961 . S
C1687 H1702 0.961 . S
C1687 H1703 0.961 . S
C1688 C1689 1.370 . S
C1688 C1690 1.363 . S
C1688 H1704 0.931 . S
C1689 C1688 1.370 . S
C1689 C1693 1.408 . S
C1690 C1688 1.363 . S
C1690 C1691 1.370 . S
C1690 C1694 1.524 . S
C1691 C1683 1.503 . S
C1691 C1690 1.370 . S
C1691 C1692 1.403 . S
C1692 C1691 1.403 . S
C1692 C1693 1.404 . S
C1692 C1695 1.539 . S
C1693 C1689 1.408 . S
C1693 C1692 1.404 . S
C1693 H1705 0.930 . S
C1694 C1690 1.524 . S
C1694 H1706 0.956 . S
C1694 H1707 0.961 . S
C1694 H1708 0.961 . S
C1695 C1692 1.539 . S
C1695 H1709 0.958 . S
C1695 H1710 0.961 . S
C1695 H1711 0.960 . S
H1696 C1680 0.931 . S
H1697 C1685 0.929 . S
H1698 C1686 0.960 . S
H1699 C1686 0.962 . S
H1700 C1686 0.960 . S
H1701 C1687 0.961 . S
H1702 C1687 0.961 . S
H1703 C1687 0.961 . S
H1704 C1688 0.931 . S
H1705 C1693 0.930 . S
H1706 C1694 0.956 . S
H1707 C1694 0.961 . S
H1708 C1694 0.961 . S
H1709 C1695 0.958 . S
H1710 C1695 0.961 . S
H1711 C1695 0.960 . S
C1712 C1713 1.391 . S
C1712 C1714 1.394 . S
C1712 H1728 0.931 . S
C1713 C1712 1.391 . S
C1713 C1717 1.376 . S
C1714 C1712 1.394 . S
C1714 C1715 1.369 . S
C1714 C1718 1.531 . S
C1715 C1714 1.369 . S
C1715 C1716 1.410 . S
C1715 C1723 1.503 . S
C1716 C1715 1.410 . S
C1716 C1717 1.392 . S
C1716 C1719 1.511 . S
C1717 C1713 1.376 . S
C1717 C1716 1.392 . S
C1717 H1729 0.929 . S
C1718 C1714 1.531 . S
C1718 H1730 0.960 . S
C1718 H1731 0.962 . S
C1718 H1732 0.960 . S
C1719 C1716 1.511 . S
C1719 H1733 0.961 . S
C1719 H1734 0.961 . S
C1719 H1735 0.961 . S
C1720 C1721 1.370 . S
C1720 C1722 1.363 . S
C1720 H1736 0.931 . S
C1721 C1720 1.370 . S
C1721 C1725 1.408 . S
C1722 C1720 1.363 . S
C1722 C1723 1.370 . S
C1722 C1726 1.524 . S
C1723 C1715 1.503 . S
C1723 C1722 1.370 . S
C1723 C1724 1.403 . S
C1724 C1723 1.403 . S
C1724 C1725 1.404 . S
C1724 C1727 1.539 . S
C1725 C1721 1.408 . S
C1725 C1724 1.404 . S
C1725 H1737 0.930 . S
C1726 C1722 1.524 . S
C1726 H1738 0.956 . S
C1726 H1739 0.961 . S
C1726 H1740 0.961 . S
C1727 C1724 1.539 . S
C1727 H1741 0.958 . S
C1727 H1742 0.961 . S
C1727 H1743 0.960 . S
H1728 C1712 0.931 . S
H1729 C1717 0.929 . S
H1730 C1718 0.960 . S
H1731 C1718 0.962 . S
H1732 C1718 0.960 . S
H1733 C1719 0.961 . S
H1734 C1719 0.961 . S
H1735 C1719 0.961 . S
H1736 C1720 0.931 . S
H1737 C1725 0.930 . S
H1738 C1726 0.956 . S
H1739 C1726 0.961 . S
H1740 C1726 0.961 . S
H1741 C1727 0.958 . S
H1742 C1727 0.961 . S
H1743 C1727 0.960 . S
C1744 C1745 1.391 . S
C1744 C1746 1.394 . S
C1744 H1760 0.931 . S
C1745 C1744 1.391 . S
C1745 C1749 1.376 . S
C1746 C1744 1.394 . S
C1746 C1747 1.369 . S
C1746 C1750 1.531 . S
C1747 C1746 1.369 . S
C1747 C1748 1.410 . S
C1747 C1755 1.503 1_655 S
C1748 C1747 1.410 . S
C1748 C1749 1.392 . S
C1748 C1751 1.511 . S
C1749 C1745 1.376 . S
C1749 C1748 1.392 . S
C1749 H1761 0.929 . S
C1750 C1746 1.531 . S
C1750 H1762 0.960 1_655 S
C1750 H1763 0.962 . S
C1750 H1764 0.960 . S
C1751 C1748 1.511 . S
C1751 H1765 0.961 . S
C1751 H1766 0.961 1_655 S
C1751 H1767 0.961 . S
C1752 C1753 1.370 . S
C1752 C1754 1.363 . S
C1752 H1768 0.931 . S
C1753 C1752 1.370 . S
C1753 C1757 1.408 . S
C1754 C1752 1.363 . S
C1754 C1755 1.370 . S
C1754 C1758 1.524 . S
C1755 C1747 1.503 1_455 S
C1755 C1754 1.370 . S
C1755 C1756 1.403 . S
C1756 C1755 1.403 . S
C1756 C1757 1.404 . S
C1756 C1759 1.539 . S
C1757 C1753 1.408 . S
C1757 C1756 1.404 . S
C1757 H1769 0.930 . S
C1758 C1754 1.524 . S
C1758 H1770 0.948 1_455 S
C1758 H1771 0.961 1_455 S
C1758 H1772 0.961 . S
C1759 C1756 1.539 . S
C1759 H1773 0.958 . S
C1759 H1774 0.961 . S
C1759 H1775 0.960 . S
H1760 C1744 0.931 . S
H1761 C1749 0.929 . S
H1762 C1750 0.960 1_455 S
H1763 C1750 0.962 . S
H1764 C1750 0.960 . S
H1765 C1751 0.961 . S
H1766 C1751 0.961 1_455 S
H1767 C1751 0.961 . S
H1768 C1752 0.931 . S
H1769 C1757 0.930 . S
H1770 C1758 0.948 1_655 S
H1771 C1758 0.961 1_655 S
H1772 C1758 0.961 . S
H1773 C1759 0.958 . S
H1774 C1759 0.961 . S
H1775 C1759 0.960 . S
C1776 C1777 1.391 1_556 S
C1776 C1778 1.394 . S
C1776 H1792 0.931 . S
C1777 C1776 1.391 1_554 S
C1777 C1781 1.376 . S
C1778 C1776 1.394 . S
C1778 C1779 1.369 1_556 S
C1778 C1782 1.531 . S
C1779 C1778 1.369 1_554 S
C1779 C1780 1.410 . S
C1779 C1787 1.503 . S
C1780 C1779 1.410 . S
C1780 C1781 1.392 . S
C1780 C1783 1.511 . S
C1781 C1777 1.376 . S
C1781 C1780 1.392 . S
C1781 H1793 0.929 . S
C1782 C1778 1.531 . S
C1782 H1794 0.960 . S
C1782 H1795 0.962 . S
C1782 H1796 0.960 . S
C1783 C1780 1.511 . S
C1783 H1797 0.961 . S
C1783 H1798 0.961 . S
C1783 H1799 0.961 . S
C1784 C1785 1.370 1_556 S
C1784 C1786 1.363 . S
C1784 H1800 0.931 . S
C1785 C1784 1.370 1_554 S
C1785 C1789 1.408 . S
C1786 C1784 1.363 . S
C1786 C1787 1.370 1_556 S
C1786 C1790 1.524 . S
C1787 C1779 1.503 . S
C1787 C1786 1.370 1_554 S
C1787 C1788 1.403 . S
C1788 C1787 1.403 . S
C1788 C1789 1.404 . S
C1788 C1791 1.539 . S
C1789 C1785 1.408 . S
C1789 C1788 1.404 . S
C1789 H1801 0.930 . S
C1790 C1786 1.524 . S
C1790 H1802 0.956 . S
C1790 H1803 0.961 1_556 S
C1790 H1804 0.961 . S
C1791 C1788 1.539 . S
C1791 H1805 0.958 1_554 S
C1791 H1806 0.961 . S
C1791 H1807 0.960 . S
H1792 C1776 0.931 . S
H1793 C1781 0.929 . S
H1794 C1782 0.960 . S
H1795 C1782 0.962 . S
H1796 C1782 0.960 . S
H1797 C1783 0.961 . S
H1798 C1783 0.961 . S
H1799 C1783 0.961 . S
H1800 C1784 0.931 . S
H1801 C1789 0.930 . S
H1802 C1790 0.956 . S
H1803 C1790 0.961 1_554 S
H1804 C1790 0.961 . S
H1805 C1791 0.958 1_556 S
H1806 C1791 0.961 . S
H1807 C1791 0.960 . S
C529 N5 1.425 . S
C537 N14 1.394 1_545 S
C561 N38 1.437 1_556 S
C569 N47 1.412 . S
C593 N80 1.409 1_545 S
C601 N71 1.425 . S
C625 N113 1.413 . S
C633 N104 1.416 1_554 S
C657 N146 1.398 . S
C665 N137 1.419 1_545 S
C689 N179 1.435 . S
C697 N170 1.418 1_554 S
C721 N203 1.437 1_545 S
C729 N212 1.412 . S
C753 N245 1.390 . S
C761 N236 1.421 1_556 S
C785 N269 1.411 . S
C793 N278 1.409 . S
C817 N302 1.405 . S
C825 N311 1.427 1_554 S
C849 N344 1.434 . S
C857 N335 1.418 . S
C881 N368 1.398 . S
C889 N377 1.419 1_556 S
C913 N401 1.429 . S
C921 N410 1.402 . S
C945 N443 1.397 1_556 S
C953 N434 1.431 . S
C977 N467 1.410 . S
C985 N476 1.425 . S
C1009 N509 1.392 1_554 S
C1017 N500 1.421 . S
C1041 C8 1.337 . S
C1049 C61 1.344 . S
C1073 C74 1.424 . S
C1081 C41 1.423 . S
C1105 C107 1.344 . S
C1113 C94 1.338 . S
C1137 C28 1.245 . S
C1145 C127 1.257 . S
C1169 C193 1.340 . S
C1177 C140 1.350 . S
C1201 C173 1.419 . S
C1209 C206 1.430 . S
C1233 C226 1.329 . S
C1241 C239 1.346 . S
C1265 C259 1.257 . S
C1273 C160 1.259 . S
C1297 C325 1.326 . S
C1305 C272 1.341 . S
C1329 C305 1.433 . S
C1337 C338 1.434 . S
C1361 C358 1.329 . S
C1369 C371 1.342 . S
C1393 C391 1.262 . S
C1401 C292 1.264 . S
C1425 C404 1.351 . S
C1433 C457 1.348 . S
C1457 C437 1.427 . S
C1465 C470 1.433 . S
C1489 C503 1.354 . S
C1497 C490 1.346 . S
C1521 C424 1.252 . S
C1529 C523 1.257 . S
C1553 C17 1.194 . S
C1561 C149 1.202 1_556 S
C1585 C446 1.261 . S
C1593 C50 1.271 . S
C1617 C83 1.270 . S
C1625 C215 1.267 . S
C1649 C512 1.207 . S
C1657 C116 1.197 . S
C1681 C314 1.273 . S
C1689 C182 1.266 . S
C1713 C248 1.207 . S
C1721 C380 1.197 . S
C1745 C281 1.207 . S
C1753 C413 1.197 . S
C1777 C479 1.265 . S
C1785 C347 1.268 . S
