# Generated by pormake.
# Topology nbo, (4)-cn, num edge types: 1
# Building blocks:
#     Node 0, Type 0, BuildingBlock: NAWXER_clean_sbu_0, # of connection points: 4
#     Node 1, Type 0, BuildingBlock: NAWXER_clean_sbu_0, # of connection points: 4
#     Node 2, Type 0, BuildingBlock: NAWXER_clean_sbu_0, # of connection points: 4
#     Node 3, Type 0, BuildingBlock: NAWXER_clean_sbu_0, # of connection points: 4
#     Node 4, Type 0, BuildingBlock: NAWXER_clean_sbu_0, # of connection points: 4
#     Node 5, Type 0, BuildingBlock: NAWXER_clean_sbu_0, # of connection points: 4
#     Edge 6, Type (0, 0), BuildingBlock: FUNLAD_clean_linker_0, # of connection points: 2
#     Edge 7, Type (0, 0), BuildingBlock: FUNLAD_clean_linker_0, # of connection points: 2
#     Edge 8, Type (0, 0), BuildingBlock: FUNLAD_clean_linker_0, # of connection points: 2
#     Edge 9, Type (0, 0), BuildingBlock: FUNLAD_clean_linker_0, # of connection points: 2
#     Edge 10, Type (0, 0), BuildingBlock: FUNLAD_clean_linker_0, # of connection points: 2
#     Edge 11, Type (0, 0), BuildingBlock: FUNLAD_clean_linker_0, # of connection points: 2
#     Edge 12, Type (0, 0), BuildingBlock: FUNLAD_clean_linker_0, # of connection points: 2
#     Edge 13, Type (0, 0), BuildingBlock: FUNLAD_clean_linker_0, # of connection points: 2
#     Edge 14, Type (0, 0), BuildingBlock: FUNLAD_clean_linker_0, # of connection points: 2
#     Edge 15, Type (0, 0), BuildingBlock: FUNLAD_clean_linker_0, # of connection points: 2
#     Edge 16, Type (0, 0), BuildingBlock: FUNLAD_clean_linker_0, # of connection points: 2
#     Edge 17, Type (0, 0), BuildingBlock: FUNLAD_clean_linker_0, # of connection points: 2
# Relax obj value: 0.000
# Max RMSD: 0.000
# Mean RMSD: 0.000
data_MOF--net-nbo--node1-NAWXER_clean_sbu_0--edge1-FUNLAD_clean_linker_0
_symmetry_space_group_name_H-M    P1
_symmetry_Int_Tables_number       1
_symmetry_cell_setting            triclinic
loop_
_symmetry_equiv_pos_as_xyz
'x, y, z'
_cell_length_a     34.264543
_cell_length_b     34.382066
_cell_length_c     34.353659
_cell_angle_alpha  97.362173
_cell_angle_beta   96.987269
_cell_angle_gamma 97.416003
loop_
_atom_site_label
_atom_site_type_symbol
_atom_site_fract_x
_atom_site_fract_y
_atom_site_fract_z
_atom_type_partial_charge
C0 C 0.99875 0.03139 0.53024 0.0
C1 C 0.99 0.88713 0.52518 0.0
O2 O 0.99628 0.01224 0.49533 0.0
Zn3 Zn 0.99407 0.95343 0.46663 0.0
O4 O 1.00204 0.0129 0.56003 0.0
Zn5 Zn 0.99841 0.95957 0.53045 0.0
O6 O 0.05382 0.95967 0.5086 0.0
O7 O 0.04379 0.95506 0.44348 0.0
O8 O 0.99546 0.91244 0.55657 0.0
O9 O 0.98946 0.89908 0.49127 0.0
O10 O 0.94188 0.94711 0.43422 0.0
O11 O 0.93964 0.95158 0.49868 0.0
C12 C 0.0676 0.95787 0.4755 0.0
C13 C 0.92173 0.9473 0.46309 0.0
C14 C 0.49411 0.12836 0.02381 0.0
C15 C 0.49348 0.98405 0.00626 0.0
O16 O 0.52877 0.11784 0.02679 0.0
Zn17 Zn 0.55557 0.06512 0.02187 0.0
O18 O 0.46355 0.10197 0.01458 0.0
Zn19 Zn 0.49141 0.05578 0.0111 0.0
O20 O 0.51778 0.05782 0.07097 0.0
O21 O 0.58337 0.06918 0.0757 0.0
O22 O 0.46303 1.00154 1.00134 0.0
O23 O 0.5282 1.00458 0.01317 0.0
O24 O 0.58423 0.06811 0.97632 0.0
O25 O 0.51919 0.05981 0.95952 0.0
C26 C 0.55209 0.06262 0.0919 0.0
C27 C 0.5542 0.06432 0.94971 0.0
C28 C 0.07724 0.5413 0.0076 0.0
C29 C 0.93306 0.52372 1.005 0.0
O30 O 0.06205 0.50514 0.00704 0.0
Zn31 Zn 1.00509 0.47147 0.00771 0.0
O32 O 0.05526 0.56832 0.01074 0.0
Zn33 Zn 1.00563 0.53355 0.01003 0.0
O34 O 0.01163 0.51383 0.06717 0.0
O35 O 0.01183 0.44931 0.05702 0.0
O36 O 0.95675 0.5559 0.00764 0.0
O37 O 0.94715 0.49084 1.00513 0.0
O38 O 1.0012 0.43701 0.95739 0.0
O39 O 0.99927 0.50008 0.95161 0.0
C40 C 0.01386 0.4811 0.08099 0.0
C41 C 0.99871 0.46416 0.93567 0.0
C42 C 0.51265 0.63004 0.0274 0.0
C43 C 0.49291 0.48565 0.0261 0.0
O44 O 0.50763 0.60972 0.99274 0.0
Zn45 Zn 0.49971 0.54936 0.9654 0.0
O46 O 0.51537 0.61231 0.05777 0.0
Zn47 Zn 0.50655 0.5582 0.02933 0.0
O48 O 0.56033 0.55344 1.00525 0.0
O49 O 0.54753 0.54562 0.94007 0.0
O50 O 0.50072 0.51183 0.05683 0.0
O51 O 0.49217 0.49643 0.9917 0.0
O52 O 0.44706 0.54572 0.93471 0.0
O53 O 0.4476 0.55602 0.99964 0.0
C54 C 0.57244 0.54873 0.97136 0.0
C55 C 0.42859 0.55157 0.96449 0.0
C56 C 0.98646 0.52791 0.51786 0.0
C57 C 0.97986 0.38336 0.50508 0.0
O58 O 0.0205 0.51595 0.51993 0.0
Zn59 Zn 0.04483 0.46137 0.51496 0.0
O60 O 0.95494 0.5026 0.51005 0.0
Zn61 Zn 0.98084 0.45537 0.50718 0.0
O62 O 1.00958 0.46104 0.56694 0.0
O63 O 0.07469 0.46526 0.56813 0.0
O64 O 0.95035 0.4022 0.50092 0.0
O65 O 0.01518 0.40233 0.50959 0.0
O66 O 0.07093 0.46171 0.46719 0.0
O67 O 1.00585 0.45659 0.45352 0.0
C68 C 0.04445 0.46429 0.58647 0.0
C69 C 0.04005 0.45909 0.4418 0.0
C70 C 0.57536 0.97943 0.50497 0.0
C71 C 0.43502 0.99469 0.49634 0.0
O72 O 0.54551 0.95255 0.50196 0.0
Zn73 Zn 0.50613 0.98754 0.50482 0.0
O74 O 0.57038 0.01606 0.51019 0.0
Zn75 Zn 0.52048 0.04936 0.51362 0.0
O76 O 0.52999 0.07817 0.56651 0.0
O77 O 0.51755 0.01373 0.56633 0.0
O78 O 0.45731 0.0285 0.50261 0.0
O79 O 0.45108 0.96344 0.49598 0.0
O80 O 0.51389 0.01509 0.45214 0.0
O81 O 0.5276 0.07981 0.47121 0.0
C82 C 0.52634 0.04896 0.58554 0.0
C83 C 0.52274 0.05029 0.44385 0.0
C84 C 0.98187 0.09071 0.50068 0.0
C85 C 0.99525 0.07423 0.53443 0.0
C86 C 0.97814 0.13083 0.50338 0.0
C87 C 0.98778 0.15574 0.53997 0.0
C88 C 1.00132 0.13945 0.57377 0.0
C89 C 1.00461 0.09895 0.57116 0.0
C90 C 0.98723 0.1992 0.5427 0.0
C91 C 0.96304 0.21553 0.51744 0.0
C92 C 0.96698 0.2589 0.51598 0.0
C93 C 0.93379 0.27586 0.50179 0.0
C94 C 0.93751 0.31634 0.49819 0.0
C95 C 0.97474 0.34035 0.50789 0.0
H96 H 0.03064 0.27088 0.5354 0.0
C97 C 1.00792 0.32311 0.52162 0.0
C98 C 1.00412 0.28302 0.52566 0.0
H99 H 0.03712 0.34063 0.52945 0.0
H100 H 0.97427 0.0726 0.47185 0.0
H101 H 0.96885 0.14238 0.47643 0.0
H102 H 1.00948 0.15813 0.60225 0.0
H103 H 0.01503 0.08718 0.59766 0.0
H104 H 1.00785 0.21828 0.56605 0.0
H105 H 0.93967 0.19657 0.49673 0.0
H106 H 0.90492 0.25776 0.49356 0.0
H107 H 0.9114 0.32869 0.48752 0.0
C108 C 0.85687 0.93109 0.48704 0.0
C109 C 0.87788 0.94417 0.45733 0.0
C110 C 0.81644 0.9333 0.48587 0.0
C111 C 0.79578 0.94867 0.4548 0.0
C112 C 0.81644 0.96047 0.42426 0.0
C113 C 0.85711 0.9579 0.42528 0.0
C114 C 0.75411 0.95644 0.45591 0.0
C115 C 0.72868 0.93675 0.47625 0.0
C116 C 0.68926 0.94816 0.48257 0.0
C117 C 0.65921 0.91931 0.48995 0.0
C118 C 0.62234 0.92941 0.4977 0.0
C119 C 0.61501 0.96882 0.49901 0.0
H120 H 0.7049 0.01097 0.47999 0.0
C121 C 0.64539 0.99785 0.49241 0.0
C122 C 0.68206 0.98766 0.48421 0.0
H123 H 0.64075 0.02849 0.49312 0.0
H124 H 0.87205 0.92031 0.51216 0.0
H125 H 0.80217 0.92484 0.51055 0.0
H126 H 0.80134 0.97272 0.40013 0.0
H127 H 0.87262 0.96849 0.40216 0.0
H128 H 0.74446 0.97963 0.44 0.0
H129 H 0.73676 0.91099 0.48879 0.0
H130 H 0.66417 0.88877 0.48947 0.0
H131 H 0.59959 0.90633 0.50266 0.0
C132 C 0.94942 0.5867 0.51712 0.0
C133 C 0.98484 0.57104 0.52597 0.0
C134 C 0.94899 0.62774 0.52436 0.0
C135 C 0.98399 0.6538 0.54082 0.0
C136 C 0.01891 0.6379 0.55072 0.0
C137 C 0.01946 0.59715 0.54312 0.0
C138 C 0.98568 0.69765 0.54762 0.0
C139 C 0.96268 0.71713 0.52468 0.0
C140 C 0.96898 0.76101 0.52676 0.0
C141 C 0.95926 0.77706 0.49198 0.0
C142 C 0.96628 0.81788 0.49177 0.0
C143 C 0.98258 0.84393 0.52659 0.0
H144 H 0.99159 0.77568 0.58958 0.0
C145 C 0.99122 0.82811 0.56188 0.0
C146 C 0.98465 0.78697 0.56196 0.0
H147 H 1.00346 0.84743 0.58924 0.0
H148 H 0.92219 0.56735 0.50426 0.0
H149 H 0.92123 0.63885 0.51728 0.0
H150 H 0.0462 0.65718 0.56367 0.0
H151 H 0.04719 0.58614 0.5508 0.0
H152 H 1.00959 0.71448 0.56931 0.0
H153 H 0.94131 0.70032 0.50049 0.0
H154 H 0.94691 0.75786 0.46454 0.0
H155 H 0.95874 0.82901 0.46413 0.0
C156 C 0.36642 0.95557 0.48662 0.0
C157 C 0.39102 0.9921 0.48895 0.0
C158 C 0.32498 0.95305 0.47957 0.0
C159 C 0.30708 0.98706 0.47459 0.0
C160 C 0.33167 0.02337 0.47609 0.0
C161 C 0.37312 0.02597 0.48351 0.0
C162 C 0.26302 0.98555 0.46758 0.0
C163 C 0.23798 0.95972 0.48256 0.0
C164 C 0.19424 0.9598 0.47918 0.0
C165 C 0.17443 0.94739 0.50982 0.0
C166 C 0.1335 0.94694 0.50832 0.0
C167 C 0.11097 0.95803 0.47563 0.0
H168 H 0.1861 0.97968 0.42162 0.0
C169 C 0.13048 0.96957 0.44431 0.0
C170 C 0.17186 0.97077 0.44619 0.0
H171 H 0.11391 0.97818 0.4187 0.0
H172 H 0.37915 0.92881 0.49031 0.0
H173 H 0.30714 0.9243 0.4775 0.0
H174 H 0.31876 0.04999 0.47207 0.0
H175 H 0.39113 0.05453 0.48476 0.0
H176 H 0.25124 0.00828 0.4524 0.0
H177 H 0.25024 0.93964 0.50108 0.0
H178 H 0.1908 0.93847 0.53541 0.0
H179 H 0.11943 0.93754 0.53283 0.0
C180 C 0.53475 0.0226 0.37637 0.0
C181 C 0.5309 0.05568 0.40343 0.0
C182 C 0.54488 0.02725 0.33898 0.0
C183 C 0.55066 0.06513 0.32733 0.0
C184 C 0.54739 0.09829 0.35456 0.0
C185 C 0.53758 0.09366 0.39227 0.0
C186 C 0.55959 0.07075 0.28692 0.0
C187 C 0.54734 0.0424 0.25541 0.0
C188 C 0.55109 0.04811 0.21395 0.0
C189 C 0.52212 0.02638 0.1841 0.0
C190 C 0.52318 0.03111 0.14467 0.0
C191 C 0.55375 0.05713 0.13389 0.0
H192 H 0.60569 0.09018 0.22572 0.0
C193 C 0.58385 0.07792 0.16341 0.0
C194 C 0.58236 0.07371 0.20337 0.0
H195 H 0.60778 0.09802 0.15574 0.0
H196 H 0.53076 0.99299 0.3843 0.0
H197 H 0.54868 1.00103 0.31962 0.0
H198 H 0.55199 0.12783 0.34651 0.0
H199 H 0.53531 0.11978 0.41264 0.0
H200 H 0.57342 0.09983 0.28254 0.0
H201 H 0.53005 0.01478 0.25938 0.0
H202 H 0.49799 1.00618 0.19137 0.0
H203 H 0.49985 0.01424 0.12248 0.0
C204 C 0.02877 0.44761 0.14125 0.0
C205 C 0.01821 0.48077 0.12456 0.0
C206 C 0.03227 0.44758 0.18241 0.0
C207 C 0.02489 0.48062 0.2077 0.0
C208 C 0.01429 0.51359 0.19092 0.0
C209 C 0.01137 0.51385 0.15 0.0
C210 C 0.0251 0.48092 0.25117 0.0
C211 C 0.04736 0.46007 0.27351 0.0
C212 C 0.04558 0.46045 0.31678 0.0
C213 C 0.07937 0.4555 0.3423 0.0
C214 C 0.07805 0.45546 0.38302 0.0
C215 C 0.0426 0.45956 0.39891 0.0
H216 H 0.98316 0.467 0.31397 0.0
C217 C 1.00871 0.46386 0.37315 0.0
C218 C 0.01015 0.46434 0.33274 0.0
H219 H 0.98079 0.46692 0.38419 0.0
H220 H 0.0342 0.42161 0.1225 0.0
H221 H 0.03962 0.42127 0.19414 0.0
H222 H 1.00809 0.53931 0.20958 0.0
H223 H 1.00302 0.53985 0.13826 0.0
H224 H 1.00699 0.50049 0.26561 0.0
H225 H 0.06852 0.44348 0.26024 0.0
H226 H 0.10697 0.45202 0.33076 0.0
H227 H 0.10463 0.45186 0.40194 0.0
C228 C 0.5382 0.02408 0.65096 0.0
C229 C 0.53235 0.05553 0.62948 0.0
C230 C 0.54359 0.03034 0.69247 0.0
C231 C 0.54285 0.06817 0.71334 0.0
C232 C 0.53689 0.09949 0.69185 0.0
C233 C 0.53214 0.09339 0.65042 0.0
C234 C 0.5449 0.07523 0.75718 0.0
C235 C 0.56477 0.05466 0.78182 0.0
C236 C 0.56308 0.05986 0.82522 0.0
C237 C 0.59546 0.05331 0.85163 0.0
C238 C 0.59341 0.05603 0.89242 0.0
C239 C 0.55851 0.06442 0.90732 0.0
H240 H 0.50251 0.07302 0.82088 0.0
C241 C 0.52624 0.07105 0.88082 0.0
C242 C 0.52848 0.06888 0.84036 0.0
H243 H 0.49885 0.0775 0.89128 0.0
H244 H 0.53852 0.99455 0.63569 0.0
H245 H 0.54709 1.00529 0.70803 0.0
H246 H 0.53575 0.12882 0.70719 0.0
H247 H 0.52757 0.11822 0.6348 0.0
H248 H 0.52987 0.09889 0.76959 0.0
H249 H 0.58317 0.03377 0.77008 0.0
H250 H 0.62232 0.04592 0.84066 0.0
H251 H 0.61864 0.05048 0.91207 0.0
C252 C 0.01835 0.48118 0.64975 0.0
C253 C 0.04773 0.46571 0.62997 0.0
C254 C 0.01685 0.47807 0.68958 0.0
C255 C 0.04426 0.45853 0.71068 0.0
C256 C 0.0751 0.445 0.69153 0.0
C257 C 0.07687 0.44855 0.65144 0.0
C258 C 0.04154 0.45274 0.75267 0.0
C259 C 1.00708 0.45201 0.76813 0.0
C260 C 1.004 0.4517 0.81081 0.0
C261 C 0.9763 0.47302 0.82745 0.0
C262 C 0.97366 0.47571 0.86788 0.0
C263 C 0.9977 0.45599 0.89234 0.0
H264 H 0.04854 0.41368 0.82284 0.0
C265 C 0.02404 0.43285 0.87551 0.0
C266 C 0.0275 0.43104 0.83503 0.0
H267 H 0.04319 0.41774 0.89396 0.0
H268 H 0.99594 0.49531 0.63416 0.0
H269 H 0.99398 0.49106 0.7035 0.0
H270 H 0.09714 0.43059 0.70725 0.0
H271 H 0.09985 0.43637 0.63688 0.0
H272 H 0.0686 0.44957 0.77129 0.0
H273 H 0.97991 0.45459 0.74944 0.0
H274 H 0.95763 0.48891 0.80937 0.0
H275 H 0.95325 0.49385 0.88022 0.0
C276 C 0.14017 0.519 0.98991 0.0
C277 C 0.11928 0.55027 1.00127 0.0
C278 C 0.17918 0.52662 0.98201 0.0
C279 C 0.19843 0.56579 0.98532 0.0
C280 C 0.17786 0.5971 0.99725 0.0
C281 C 0.13851 0.58947 1.00478 0.0
C282 C 0.24088 0.57445 0.97983 0.0
C283 C 0.25888 0.5499 0.95635 0.0
C284 C 0.30269 0.55446 0.95665 0.0
C285 C 0.31856 0.53677 0.92401 0.0
C286 C 0.35971 0.53694 0.92551 0.0
C287 C 0.38553 0.55412 0.96007 0.0
H288 H 0.31799 0.58566 0.01689 0.0
C289 C 0.36964 0.57253 0.99228 0.0
C290 C 0.32886 0.57271 0.99066 0.0
H291 H 0.38873 0.58623 0.01934 0.0
H292 H 0.12634 0.4884 0.98687 0.0
H293 H 0.19442 0.50165 0.97428 0.0
H294 H 0.19224 0.62754 1.00065 0.0
H295 H 0.12325 0.6142 0.01346 0.0
H296 H 0.25784 0.60175 0.99621 0.0
H297 H 0.24111 0.52479 0.93691 0.0
H298 H 0.29901 0.52212 0.89759 0.0
H299 H 0.37109 0.52243 0.90029 0.0
C300 C 0.49365 0.42768 0.0644 0.0
C301 C 0.48411 0.44276 0.02886 0.0
C302 C 0.4869 0.38668 0.06543 0.0
C303 C 0.47022 0.3601 0.03091 0.0
C304 C 0.4593 0.37549 0.99599 0.0
C305 C 0.46642 0.41617 0.99485 0.0
C306 C 0.46446 0.31621 0.02951 0.0
C307 C 0.48795 0.29732 0.05265 0.0
C308 C 0.48732 0.25354 0.04631 0.0
C309 C 0.52253 0.23868 0.05765 0.0
C310 C 0.52437 0.19815 0.05039 0.0
C311 C 0.49079 0.17116 0.03209 0.0
H312 H 0.42526 0.23678 0.02063 0.0
C313 C 0.455 0.18571 0.0219 0.0
C314 C 0.45326 0.22656 0.02883 0.0
H315 H 0.42852 0.16565 0.00811 0.0
H316 H 0.50698 0.44742 0.09117 0.0
H317 H 0.49471 0.376 0.09322 0.0
H318 H 0.44613 0.35585 0.96906 0.0
H319 H 0.45819 0.42673 0.96704 0.0
H320 H 0.44318 0.29893 1.00554 0.0
H321 H 0.51164 0.31469 0.07423 0.0
H322 H 0.54912 0.25862 0.07141 0.0
H323 H 0.55236 0.18803 0.05912 0.0
C324 C 0.87277 0.55704 0.99062 0.0
C325 C 0.88945 0.52385 1.00103 0.0
C326 C 0.83152 0.55677 0.9864 0.0
C327 C 0.8061 0.52337 0.99289 0.0
C328 C 0.82285 0.49044 1.00365 0.0
C329 C 0.86395 0.49046 0.00726 0.0
C330 C 0.76242 0.5228 0.99134 0.0
C331 C 0.7408 0.54333 0.96805 0.0
C332 C 0.6974 0.54351 0.96867 0.0
C333 C 0.67284 0.54844 0.93429 0.0
C334 C 0.63205 0.54954 0.93464 0.0
C335 C 0.61525 0.54657 0.96969 0.0
H336 H 0.69857 0.53791 0.03104 0.0
C337 C 0.64003 0.54208 1.00413 0.0
C338 C 0.68048 0.54054 1.00364 0.0
H339 H 0.62821 0.53984 0.03173 0.0
H340 H 0.89158 0.58324 0.98561 0.0
H341 H 0.81977 0.58308 0.97905 0.0
H342 H 0.80402 0.46449 0.00923 0.0
H343 H 0.87578 0.46446 0.01545 0.0
H344 H 0.74733 0.50353 0.0093 0.0
H345 H 0.7549 0.55949 0.94706 0.0
H346 H 0.68519 0.55123 0.90703 0.0
H347 H 0.61386 0.55325 0.90768 0.0
C348 C 0.50073 0.69017 0.99657 0.0
C349 C 0.51193 0.67342 0.0308 0.0
C350 C 0.49811 0.73053 0.99887 0.0
C351 C 0.50674 0.75541 0.03552 0.0
C352 C 0.51864 0.73896 0.06972 0.0
C353 C 0.52082 0.69826 0.06749 0.0
C354 C 0.50612 0.79888 0.03821 0.0
C355 C 0.48215 0.81514 0.01266 0.0
C356 C 0.48482 0.85865 0.0123 0.0
C357 C 0.4512 0.87473 0.99765 0.0
C358 C 0.45359 0.91546 0.99553 0.0
C359 C 0.48992 0.9407 0.00725 0.0
H360 H 0.54795 0.87259 0.03409 0.0
C361 C 0.52359 0.92435 0.02134 0.0
C362 C 0.5211 0.88396 0.02388 0.0
H363 H 0.55213 0.94281 0.03068 0.0
H364 H 0.49365 0.67204 0.96772 0.0
H365 H 0.49014 0.74223 0.97168 0.0
H366 H 0.52602 0.75761 0.09828 0.0
H367 H 0.52956 0.68634 0.09438 0.0
H368 H 0.52591 0.81794 0.06221 0.0
H369 H 0.45952 0.79602 0.99124 0.0
H370 H 0.42299 0.85576 0.98801 0.0
H371 H 0.42713 0.92708 0.98453 0.0
loop_
_geom_bond_atom_site_label_1
_geom_bond_atom_site_label_2
_geom_bond_distance
_geom_bond_site_symmetry_2
_ccdc_geom_bond_type
C0 O2 1.247 1_455 S
C0 O4 1.258 . S
C1 O8 1.247 1_655 S
C1 O9 1.258 . S
O2 C0 1.247 1_655 S
O2 Zn3 2.028 1_545 S
Zn3 O2 2.028 1_565 S
Zn3 O7 2.035 1_655 S
Zn3 O9 2.035 . S
Zn3 O10 2.028 . S
O4 C0 1.258 . S
O4 Zn5 2.035 . S
Zn5 O4 2.035 . S
Zn5 O6 2.028 . S
Zn5 O8 2.028 1_545 S
Zn5 O11 2.035 1_455 S
O6 Zn5 2.028 . S
O6 C12 1.247 . S
O7 Zn3 2.035 1_455 S
O7 C12 1.258 1_565 S
O8 C1 1.247 1_455 S
O8 Zn5 2.028 1_565 S
O9 C1 1.258 . S
O9 Zn3 2.035 . S
O10 Zn3 2.028 . S
O10 C13 1.247 . S
O11 Zn5 2.035 1_655 S
O11 C13 1.258 1_545 S
C12 O6 1.247 . S
C12 O7 1.258 1_545 S
C13 O10 1.247 . S
C13 O11 1.258 1_565 S
C14 O16 1.247 . S
C14 O18 1.258 1_554 S
C15 O22 1.247 . S
C15 O23 1.258 1_556 S
O16 C14 1.247 . S
O16 Zn17 2.028 . S
Zn17 O16 2.028 . S
Zn17 O21 2.035 . S
Zn17 O23 2.035 1_545 S
Zn17 O24 2.028 1_554 S
O18 C14 1.258 1_556 S
O18 Zn19 2.035 1_545 S
Zn19 O18 2.035 1_565 S
Zn19 O20 2.028 1_556 S
Zn19 O22 2.028 . S
Zn19 O25 2.035 . S
O20 Zn19 2.028 1_554 S
O20 C26 1.247 1_565 S
O21 Zn17 2.035 . S
O21 C26 1.258 . S
O22 C15 1.247 . S
O22 Zn19 2.028 . S
O23 C15 1.258 1_554 S
O23 Zn17 2.035 1_565 S
O24 Zn17 2.028 1_556 S
O24 C27 1.247 1_545 S
O25 Zn19 2.035 . S
O25 C27 1.258 . S
C26 O20 1.247 1_545 S
C26 O21 1.258 . S
C27 O24 1.247 1_565 S
C27 O25 1.258 . S
C28 O30 1.247 1_554 S
C28 O32 1.258 . S
C29 O36 1.247 1_556 S
C29 O37 1.258 . S
O30 C28 1.247 1_556 S
O30 Zn31 2.028 1_455 S
Zn31 O30 2.028 1_655 S
Zn31 O35 2.035 1_556 S
Zn31 O37 2.035 . S
Zn31 O38 2.028 . S
O32 C28 1.258 . S
O32 Zn33 2.035 . S
Zn33 O32 2.035 . S
Zn33 O34 2.028 . S
Zn33 O36 2.028 1_455 S
Zn33 O39 2.035 1_554 S
O34 Zn33 2.028 . S
O34 C40 1.247 . S
O35 Zn31 2.035 1_554 S
O35 C40 1.258 1_655 S
O36 C29 1.247 1_554 S
O36 Zn33 2.028 1_655 S
O37 C29 1.258 . S
O37 Zn31 2.035 . S
O38 Zn31 2.028 . S
O38 C41 1.247 . S
O39 Zn33 2.035 1_556 S
O39 C41 1.258 1_455 S
C40 O34 1.247 . S
C40 O35 1.258 1_455 S
C41 O38 1.247 . S
C41 O39 1.258 1_655 S
C42 O44 1.245 . S
C42 O46 1.260 1_556 S
C43 O50 1.251 . S
C43 O51 1.254 1_554 S
O44 C42 1.245 . S
O44 Zn45 2.028 . S
Zn45 O44 2.028 . S
Zn45 O49 2.035 . S
Zn45 O51 2.035 . S
Zn45 O52 2.028 . S
O46 C42 1.260 1_554 S
O46 Zn47 2.035 . S
Zn47 O46 2.035 . S
Zn47 O48 2.028 . S
Zn47 O50 2.028 . S
Zn47 O53 2.035 . S
O48 Zn47 2.028 . S
O48 C54 1.251 . S
O49 Zn45 2.035 . S
O49 C54 1.254 1_556 S
O50 C43 1.251 . S
O50 Zn47 2.028 . S
O51 C43 1.254 1_556 S
O51 Zn45 2.035 . S
O52 Zn45 2.028 . S
O52 C55 1.245 . S
O53 Zn47 2.035 . S
O53 C55 1.260 1_554 S
C54 O48 1.251 . S
C54 O49 1.254 1_554 S
C55 O52 1.245 . S
C55 O53 1.260 1_556 S
C56 O58 1.251 . S
C56 O60 1.254 1_455 S
C57 O64 1.245 . S
C57 O65 1.260 1_655 S
O58 C56 1.251 . S
O58 Zn59 2.028 . S
Zn59 O58 2.028 . S
Zn59 O63 2.035 . S
Zn59 O65 2.035 . S
Zn59 O66 2.028 . S
O60 C56 1.254 1_655 S
O60 Zn61 2.035 . S
Zn61 O60 2.035 . S
Zn61 O62 2.028 . S
Zn61 O64 2.028 . S
Zn61 O67 2.035 . S
O62 Zn61 2.028 . S
O62 C68 1.245 . S
O63 Zn59 2.035 . S
O63 C68 1.260 1_455 S
O64 C57 1.245 . S
O64 Zn61 2.028 . S
O65 C57 1.260 1_455 S
O65 Zn59 2.035 . S
O66 Zn59 2.028 . S
O66 C69 1.251 . S
O67 Zn61 2.035 . S
O67 C69 1.254 1_655 S
C68 O62 1.245 . S
C68 O63 1.260 1_655 S
C69 O66 1.251 . S
C69 O67 1.254 1_455 S
C70 O72 1.245 . S
C70 O74 1.260 1_565 S
C71 O78 1.251 . S
C71 O79 1.254 1_545 S
O72 C70 1.245 . S
O72 Zn73 2.028 . S
Zn73 O72 2.028 . S
Zn73 O77 2.035 . S
Zn73 O79 2.035 . S
Zn73 O80 2.028 . S
O74 C70 1.260 1_545 S
O74 Zn75 2.035 . S
Zn75 O74 2.035 . S
Zn75 O76 2.028 . S
Zn75 O78 2.028 . S
Zn75 O81 2.035 . S
O76 Zn75 2.028 . S
O76 C82 1.251 . S
O77 Zn73 2.035 . S
O77 C82 1.254 1_565 S
O78 C71 1.251 . S
O78 Zn75 2.028 . S
O79 C71 1.254 1_565 S
O79 Zn73 2.035 . S
O80 Zn73 2.028 . S
O80 C83 1.245 . S
O81 Zn75 2.035 . S
O81 C83 1.260 1_545 S
C82 O76 1.251 . S
C82 O77 1.254 1_545 S
C83 O80 1.245 . S
C83 O81 1.260 1_565 S
C84 C85 1.391 . S
C84 C86 1.383 . S
C84 H100 0.951 . S
C85 C84 1.391 . S
C85 C89 1.380 1_655 S
C86 C84 1.383 . S
C86 C87 1.402 . S
C86 H101 0.951 . S
C87 C86 1.402 . S
C87 C88 1.375 1_655 S
C87 C90 1.481 . S
C88 C87 1.375 1_455 S
C88 C89 1.367 . S
C88 H102 0.951 . S
C89 C85 1.380 1_455 S
C89 C88 1.367 . S
C89 H103 0.950 . S
C90 C87 1.481 . S
C90 C91 1.297 . S
C90 H104 0.950 1_655 S
C91 C90 1.297 . S
C91 C92 1.479 . S
C91 H105 0.950 . S
C92 C91 1.479 . S
C92 C93 1.375 . S
C92 C98 1.407 . S
C93 C92 1.375 . S
C93 C94 1.369 . S
C93 H106 0.950 . S
C94 C93 1.369 . S
C94 C95 1.392 . S
C94 H107 0.951 . S
C95 C94 1.392 . S
C95 C97 1.384 1_655 S
H96 C98 0.946 1_455 S
C97 C95 1.384 1_455 S
C97 C98 1.385 1_455 S
C97 H99 0.950 . S
C98 C92 1.407 . S
C98 H96 0.946 1_655 S
C98 C97 1.385 1_655 S
H99 C97 0.950 . S
H100 C84 0.951 . S
H101 C86 0.951 . S
H102 C88 0.951 . S
H103 C89 0.950 . S
H104 C90 0.950 1_455 S
H105 C91 0.950 . S
H106 C93 0.950 . S
H107 C94 0.951 . S
C108 C109 1.386 . S
C108 C110 1.383 . S
C108 H124 0.951 . S
C109 C108 1.386 . S
C109 C113 1.383 1_565 S
C110 C108 1.383 . S
C110 C111 1.402 . S
C110 H125 0.951 . S
C111 C110 1.402 . S
C111 C112 1.375 1_565 S
C111 C114 1.481 . S
C112 C111 1.375 1_545 S
C112 C113 1.367 . S
C112 H126 0.951 . S
C113 C109 1.383 1_545 S
C113 C112 1.367 . S
C113 H127 0.950 . S
C114 C111 1.481 . S
C114 C115 1.297 . S
C114 H128 0.950 . S
C115 C114 1.297 . S
C115 C116 1.479 . S
C115 H129 0.950 . S
C116 C115 1.479 . S
C116 C117 1.375 . S
C116 C122 1.404 . S
C117 C116 1.375 . S
C117 C118 1.369 . S
C117 H130 0.950 . S
C118 C117 1.369 . S
C118 C119 1.392 . S
C118 H131 0.951 . S
C119 C118 1.392 . S
C119 C121 1.384 . S
H120 C122 0.949 . S
C121 C119 1.384 . S
C121 C122 1.385 . S
C121 H123 0.950 . S
C122 C116 1.404 . S
C122 H120 0.949 . S
C122 C121 1.385 . S
H123 C121 0.950 . S
H124 C108 0.951 . S
H125 C110 0.951 . S
H126 C112 0.951 . S
H127 C113 0.950 . S
H128 C114 0.950 . S
H129 C115 0.950 . S
H130 C117 0.950 . S
H131 C118 0.951 . S
C132 C133 1.394 . S
C132 C134 1.383 . S
C132 H148 0.951 . S
C133 C132 1.394 . S
C133 C137 1.380 1_655 S
C134 C132 1.383 . S
C134 C135 1.402 . S
C134 H149 0.951 . S
C135 C134 1.402 . S
C135 C136 1.375 1_655 S
C135 C138 1.481 . S
C136 C135 1.375 1_455 S
C136 C137 1.367 . S
C136 H150 0.951 . S
C137 C133 1.380 1_455 S
C137 C136 1.367 . S
C137 H151 0.950 . S
C138 C135 1.481 . S
C138 C139 1.297 . S
C138 H152 0.950 1_655 S
C139 C138 1.297 . S
C139 C140 1.479 . S
C139 H153 0.950 . S
C140 C139 1.479 . S
C140 C141 1.375 . S
C140 C146 1.404 . S
C141 C140 1.375 . S
C141 C142 1.369 . S
C141 H154 0.950 . S
C142 C141 1.369 . S
C142 C143 1.392 . S
C142 H155 0.951 . S
C143 C142 1.392 . S
C143 C145 1.384 1_655 S
H144 C146 0.949 1_455 S
C145 C143 1.384 1_455 S
C145 C146 1.385 1_455 S
C145 H147 0.950 . S
C146 C140 1.404 . S
C146 H144 0.949 1_655 S
C146 C145 1.385 1_655 S
H147 C145 0.950 . S
H148 C132 0.951 . S
H149 C134 0.951 . S
H150 C136 0.951 . S
H151 C137 0.950 . S
H152 C138 0.950 1_455 S
H153 C139 0.950 . S
H154 C141 0.950 . S
H155 C142 0.951 . S
C156 C157 1.386 1_565 S
C156 C158 1.383 . S
C156 H172 0.951 . S
C157 C156 1.386 1_545 S
C157 C161 1.383 . S
C158 C156 1.383 . S
C158 C159 1.402 1_565 S
C158 H173 0.951 . S
C159 C158 1.402 1_545 S
C159 C160 1.375 . S
C159 C162 1.481 . S
C160 C159 1.375 . S
C160 C161 1.367 . S
C160 H174 0.951 . S
C161 C157 1.383 . S
C161 C160 1.367 . S
C161 H175 0.950 . S
C162 C159 1.481 . S
C162 C163 1.297 . S
C162 H176 0.950 . S
C163 C162 1.297 . S
C163 C164 1.479 . S
C163 H177 0.950 . S
C164 C163 1.479 . S
C164 C165 1.375 1_545 S
C164 C170 1.404 . S
C165 C164 1.375 1_565 S
C165 C166 1.369 . S
C165 H178 0.950 . S
C166 C165 1.369 . S
C166 C167 1.392 1_565 S
C166 H179 0.951 . S
C167 C166 1.392 1_545 S
C167 C169 1.384 . S
H168 C170 0.949 . S
C169 C167 1.384 . S
C169 C170 1.385 . S
C169 H171 0.950 . S
C170 C164 1.404 . S
C170 H168 0.949 . S
C170 C169 1.385 . S
H171 C169 0.950 . S
H172 C156 0.951 . S
H173 C158 0.951 . S
H174 C160 0.951 . S
H175 C161 0.950 . S
H176 C162 0.950 . S
H177 C163 0.950 . S
H178 C165 0.950 . S
H179 C166 0.951 . S
C180 C181 1.386 1_565 S
C180 C182 1.383 . S
C180 H196 0.951 . S
C181 C180 1.386 1_545 S
C181 C185 1.383 . S
C182 C180 1.383 . S
C182 C183 1.402 1_565 S
C182 H197 0.951 . S
C183 C182 1.402 1_545 S
C183 C184 1.375 . S
C183 C186 1.481 . S
C184 C183 1.375 . S
C184 C185 1.367 . S
C184 H198 0.951 . S
C185 C181 1.383 . S
C185 C184 1.367 . S
C185 H199 0.950 . S
C186 C183 1.481 . S
C186 C187 1.297 . S
C186 H200 0.950 . S
C187 C186 1.297 . S
C187 C188 1.479 . S
C187 H201 0.950 1_545 S
C188 C187 1.479 . S
C188 C189 1.375 1_545 S
C188 C194 1.404 . S
C189 C188 1.375 1_565 S
C189 C190 1.369 . S
C189 H202 0.950 . S
C190 C189 1.369 . S
C190 C191 1.392 1_565 S
C190 H203 0.951 . S
C191 C190 1.392 1_545 S
C191 C193 1.384 . S
H192 C194 0.949 . S
C193 C191 1.384 . S
C193 C194 1.385 . S
C193 H195 0.950 . S
C194 C188 1.404 . S
C194 H192 0.949 . S
C194 C193 1.385 . S
H195 C193 0.950 . S
H196 C180 0.951 . S
H197 C182 0.951 . S
H198 C184 0.951 . S
H199 C185 0.950 . S
H200 C186 0.950 . S
H201 C187 0.950 1_565 S
H202 C189 0.950 . S
H203 C190 0.951 . S
C204 C205 1.385 1_455 S
C204 C206 1.383 . S
C204 H220 0.951 . S
C205 C204 1.385 1_655 S
C205 C209 1.383 . S
C206 C204 1.383 . S
C206 C207 1.402 1_455 S
C206 H221 0.951 . S
C207 C206 1.402 1_655 S
C207 C208 1.375 . S
C207 C210 1.481 . S
C208 C207 1.375 . S
C208 C209 1.367 . S
C208 H222 0.951 . S
C209 C205 1.383 . S
C209 C208 1.367 . S
C209 H223 0.950 . S
C210 C207 1.481 . S
C210 C211 1.297 1_655 S
C210 H224 0.950 . S
C211 C210 1.297 1_455 S
C211 C212 1.479 . S
C211 H225 0.950 . S
C212 C211 1.479 . S
C212 C213 1.375 . S
C212 C218 1.404 1_455 S
C213 C212 1.375 . S
C213 C214 1.369 . S
C213 H226 0.950 . S
C214 C213 1.369 . S
C214 C215 1.392 . S
C214 H227 0.951 . S
C215 C214 1.392 . S
C215 C217 1.384 1_455 S
H216 C218 0.949 . S
C217 C215 1.384 1_655 S
C217 C218 1.385 . S
C217 H219 0.950 . S
C218 C212 1.404 1_655 S
C218 H216 0.949 . S
C218 C217 1.385 . S
H219 C217 0.950 . S
H220 C204 0.951 . S
H221 C206 0.951 . S
H222 C208 0.951 . S
H223 C209 0.950 . S
H224 C210 0.950 . S
H225 C211 0.950 . S
H226 C213 0.950 . S
H227 C214 0.951 . S
C228 C229 1.386 1_565 S
C228 C230 1.383 . S
C228 H244 0.951 . S
C229 C228 1.386 1_545 S
C229 C233 1.383 . S
C230 C228 1.383 . S
C230 C231 1.402 1_565 S
C230 H245 0.951 . S
C231 C230 1.402 1_545 S
C231 C232 1.375 . S
C231 C234 1.481 . S
C232 C231 1.375 . S
C232 C233 1.367 . S
C232 H246 0.951 . S
C233 C229 1.383 . S
C233 C232 1.367 . S
C233 H247 0.950 . S
C234 C231 1.481 . S
C234 C235 1.297 . S
C234 H248 0.950 . S
C235 C234 1.297 . S
C235 C236 1.479 . S
C235 H249 0.950 . S
C236 C235 1.479 . S
C236 C237 1.375 1_545 S
C236 C242 1.404 . S
C237 C236 1.375 1_565 S
C237 C238 1.369 . S
C237 H250 0.950 . S
C238 C237 1.369 . S
C238 C239 1.392 1_565 S
C238 H251 0.951 . S
C239 C238 1.392 1_545 S
C239 C241 1.384 . S
H240 C242 0.949 . S
C241 C239 1.384 . S
C241 C242 1.385 . S
C241 H243 0.950 . S
C242 C236 1.404 . S
C242 H240 0.949 . S
C242 C241 1.385 . S
H243 C241 0.950 . S
H244 C228 0.951 . S
H245 C230 0.951 . S
H246 C232 0.951 . S
H247 C233 0.950 . S
H248 C234 0.950 . S
H249 C235 0.950 . S
H250 C237 0.950 . S
H251 C238 0.951 . S
C252 C253 1.363 1_655 S
C252 C254 1.383 . S
C252 H268 0.951 . S
C253 C252 1.363 1_455 S
C253 C257 1.403 . S
C254 C252 1.383 . S
C254 C255 1.402 1_655 S
C254 H269 0.951 . S
C255 C254 1.402 1_455 S
C255 C256 1.375 . S
C255 C258 1.481 . S
C256 C255 1.375 . S
C256 C257 1.367 . S
C256 H270 0.951 . S
C257 C253 1.403 . S
C257 C256 1.367 . S
C257 H271 0.950 . S
C258 C255 1.481 . S
C258 C259 1.297 1_455 S
C258 H272 0.950 . S
C259 C258 1.297 1_655 S
C259 C260 1.479 . S
C259 H273 0.950 . S
C260 C259 1.479 . S
C260 C261 1.375 . S
C260 C266 1.404 1_655 S
C261 C260 1.375 . S
C261 C262 1.369 . S
C261 H274 0.950 . S
C262 C261 1.369 . S
C262 C263 1.392 . S
C262 H275 0.951 . S
C263 C262 1.392 . S
C263 C265 1.384 1_655 S
H264 C266 0.949 . S
C265 C263 1.384 1_455 S
C265 C266 1.385 . S
C265 H267 0.950 . S
C266 C260 1.404 1_455 S
C266 H264 0.949 . S
C266 C265 1.385 . S
H267 C265 0.950 . S
H268 C252 0.951 . S
H269 C254 0.951 . S
H270 C256 0.951 . S
H271 C257 0.950 . S
H272 C258 0.950 . S
H273 C259 0.950 . S
H274 C261 0.950 . S
H275 C262 0.951 . S
C276 C277 1.386 . S
C276 C278 1.383 . S
C276 H292 0.951 . S
C277 C276 1.386 . S
C277 C281 1.383 . S
C278 C276 1.383 . S
C278 C279 1.402 . S
C278 H293 0.951 . S
C279 C278 1.402 . S
C279 C280 1.375 . S
C279 C282 1.481 . S
C280 C279 1.375 . S
C280 C281 1.367 . S
C280 H294 0.951 . S
C281 C277 1.383 . S
C281 C280 1.367 . S
C281 H295 0.950 . S
C282 C279 1.481 . S
C282 C283 1.297 . S
C282 H296 0.950 . S
C283 C282 1.297 . S
C283 C284 1.479 . S
C283 H297 0.950 . S
C284 C283 1.479 . S
C284 C285 1.375 . S
C284 C290 1.404 . S
C285 C284 1.375 . S
C285 C286 1.369 . S
C285 H298 0.950 . S
C286 C285 1.369 . S
C286 C287 1.392 . S
C286 H299 0.951 . S
C287 C286 1.392 . S
C287 C289 1.384 . S
H288 C290 0.949 . S
C289 C287 1.384 . S
C289 C290 1.385 . S
C289 H291 0.950 . S
C290 C284 1.404 . S
C290 H288 0.949 . S
C290 C289 1.385 . S
H291 C289 0.950 . S
H292 C276 0.951 . S
H293 C278 0.951 . S
H294 C280 0.951 . S
H295 C281 0.950 . S
H296 C282 0.950 . S
H297 C283 0.950 . S
H298 C285 0.950 . S
H299 C286 0.951 . S
C300 C301 1.386 . S
C300 C302 1.383 . S
C300 H316 0.951 . S
C301 C300 1.386 . S
C301 C305 1.383 1_554 S
C302 C300 1.383 . S
C302 C303 1.402 . S
C302 H317 0.951 . S
C303 C302 1.402 . S
C303 C304 1.375 1_554 S
C303 C306 1.481 . S
C304 C303 1.375 1_556 S
C304 C305 1.367 . S
C304 H318 0.951 . S
C305 C301 1.383 1_556 S
C305 C304 1.367 . S
C305 H319 0.950 . S
C306 C303 1.481 . S
C306 C307 1.297 . S
C306 H320 0.950 1_554 S
C307 C306 1.297 . S
C307 C308 1.479 . S
C307 H321 0.950 . S
C308 C307 1.479 . S
C308 C309 1.375 . S
C308 C314 1.404 . S
C309 C308 1.375 . S
C309 C310 1.369 . S
C309 H322 0.950 . S
C310 C309 1.369 . S
C310 C311 1.392 . S
C310 H323 0.951 . S
C311 C310 1.392 . S
C311 C313 1.384 1_554 S
H312 C314 0.949 . S
C313 C311 1.384 1_556 S
C313 C314 1.385 1_556 S
C313 H315 0.950 . S
C314 C308 1.404 . S
C314 H312 0.949 . S
C314 C313 1.385 1_554 S
H315 C313 0.950 . S
H316 C300 0.951 . S
H317 C302 0.951 . S
H318 C304 0.951 . S
H319 C305 0.950 . S
H320 C306 0.950 1_556 S
H321 C307 0.950 . S
H322 C309 0.950 . S
H323 C310 0.951 . S
C324 C325 1.373 1_556 S
C324 C326 1.383 . S
C324 H340 0.951 . S
C325 C324 1.373 1_554 S
C325 C329 1.399 . S
C326 C324 1.383 . S
C326 C327 1.402 1_556 S
C326 H341 0.951 . S
C327 C326 1.402 1_554 S
C327 C328 1.375 . S
C327 C330 1.481 . S
C328 C327 1.375 . S
C328 C329 1.367 . S
C328 H342 0.951 . S
C329 C325 1.399 . S
C329 C328 1.367 . S
C329 H343 0.950 . S
C330 C327 1.481 . S
C330 C331 1.297 1_554 S
C330 H344 0.950 . S
C331 C330 1.297 1_556 S
C331 C332 1.479 . S
C331 H345 0.950 . S
C332 C331 1.479 . S
C332 C333 1.375 . S
C332 C338 1.404 1_556 S
C333 C332 1.375 . S
C333 C334 1.369 . S
C333 H346 0.950 . S
C334 C333 1.369 . S
C334 C335 1.392 . S
C334 H347 0.951 . S
C335 C334 1.392 . S
C335 C337 1.384 1_556 S
H336 C338 0.949 . S
C337 C335 1.384 1_554 S
C337 C338 1.385 . S
C337 H339 0.950 . S
C338 C332 1.404 1_554 S
C338 H336 0.949 . S
C338 C337 1.385 . S
H339 C337 0.950 . S
H340 C324 0.951 . S
H341 C326 0.951 . S
H342 C328 0.951 . S
H343 C329 0.950 . S
H344 C330 0.950 . S
H345 C331 0.950 . S
H346 C333 0.950 . S
H347 C334 0.951 . S
C348 C349 1.386 1_556 S
C348 C350 1.383 . S
C348 H364 0.951 . S
C349 C348 1.386 1_554 S
C349 C353 1.383 . S
C350 C348 1.383 . S
C350 C351 1.402 1_556 S
C350 H365 0.951 . S
C351 C350 1.402 1_554 S
C351 C352 1.375 . S
C351 C354 1.481 . S
C352 C351 1.375 . S
C352 C353 1.367 . S
C352 H366 0.951 . S
C353 C349 1.383 . S
C353 C352 1.367 . S
C353 H367 0.950 . S
C354 C351 1.481 . S
C354 C355 1.297 1_554 S
C354 H368 0.950 . S
C355 C354 1.297 1_556 S
C355 C356 1.479 . S
C355 H369 0.950 . S
C356 C355 1.479 . S
C356 C357 1.384 . S
C356 C362 1.396 1_556 S
C357 C356 1.384 . S
C357 C358 1.369 . S
C357 H370 0.950 . S
C358 C357 1.369 . S
C358 C359 1.373 1_556 S
C358 H371 0.951 . S
C359 C358 1.373 1_554 S
C359 C361 1.408 . S
H360 C362 0.949 . S
C361 C359 1.408 . S
C361 C362 1.385 . S
C361 H363 0.950 . S
C362 C356 1.396 1_554 S
C362 H360 0.949 . S
C362 C361 1.385 . S
H363 C361 0.950 . S
H364 C348 0.951 . S
H365 C350 0.951 . S
H366 C352 0.951 . S
H367 C353 0.950 . S
H368 C354 0.950 . S
H369 C355 0.950 . S
H370 C357 0.950 . S
H371 C358 0.951 . S
C85 C0 1.494 1_655 S
C95 C57 1.486 . S
C109 C13 1.492 . S
C119 C70 1.488 . S
C133 C56 1.485 1_655 S
C143 C1 1.482 . S
C157 C71 1.493 . S
C167 C12 1.476 . S
C181 C83 1.495 1_545 S
C191 C26 1.478 . S
C205 C40 1.495 1_655 S
C215 C69 1.489 . S
C229 C82 1.496 . S
C239 C27 1.496 1_545 S
C253 C68 1.502 1_455 S
C263 C41 1.485 . S
C277 C28 1.498 1_556 S
C287 C55 1.482 . S
C301 C43 1.490 . S
C311 C14 1.475 . S
C325 C29 1.493 1_554 S
C335 C54 1.495 1_556 S
C349 C42 1.497 1_554 S
C359 C15 1.487 1_554 S
