# Generated by pormake.
# Topology sof, (5)-cn, num edge types: 1
# Building blocks:
#     Node 0, Type 0, BuildingBlock: XOMCOT_clean_sbu_1, # of connection points: 5
#     Node 1, Type 0, BuildingBlock: XOMCOT_clean_sbu_1, # of connection points: 5
#     Node 2, Type 0, BuildingBlock: XOMCOT_clean_sbu_1, # of connection points: 5
#     Node 3, Type 0, BuildingBlock: XOMCOT_clean_sbu_1, # of connection points: 5
#     Node 4, Type 0, BuildingBlock: XOMCOT_clean_sbu_1, # of connection points: 5
#     Node 5, Type 0, BuildingBlock: XOMCOT_clean_sbu_1, # of connection points: 5
#     Node 6, Type 0, BuildingBlock: XOMCOT_clean_sbu_1, # of connection points: 5
#     Node 7, Type 0, BuildingBlock: XOMCOT_clean_sbu_1, # of connection points: 5
#     Edge 8, Type (0, 0), BuildingBlock: EYOCIG_clean_linker_4, # of connection points: 2
#     Edge 9, Type (0, 0), BuildingBlock: EYOCIG_clean_linker_4, # of connection points: 2
#     Edge 10, Type (0, 0), BuildingBlock: EYOCIG_clean_linker_4, # of connection points: 2
#     Edge 11, Type (0, 0), BuildingBlock: EYOCIG_clean_linker_4, # of connection points: 2
#     Edge 12, Type (0, 0), BuildingBlock: EYOCIG_clean_linker_4, # of connection points: 2
#     Edge 13, Type (0, 0), BuildingBlock: EYOCIG_clean_linker_4, # of connection points: 2
#     Edge 14, Type (0, 0), BuildingBlock: EYOCIG_clean_linker_4, # of connection points: 2
#     Edge 15, Type (0, 0), BuildingBlock: EYOCIG_clean_linker_4, # of connection points: 2
#     Edge 16, Type (0, 0), BuildingBlock: EYOCIG_clean_linker_4, # of connection points: 2
#     Edge 17, Type (0, 0), BuildingBlock: EYOCIG_clean_linker_4, # of connection points: 2
#     Edge 18, Type (0, 0), BuildingBlock: EYOCIG_clean_linker_4, # of connection points: 2
#     Edge 19, Type (0, 0), BuildingBlock: EYOCIG_clean_linker_4, # of connection points: 2
#     Edge 20, Type (0, 0), BuildingBlock: EYOCIG_clean_linker_4, # of connection points: 2
#     Edge 21, Type (0, 0), BuildingBlock: EYOCIG_clean_linker_4, # of connection points: 2
#     Edge 22, Type (0, 0), BuildingBlock: EYOCIG_clean_linker_4, # of connection points: 2
#     Edge 23, Type (0, 0), BuildingBlock: EYOCIG_clean_linker_4, # of connection points: 2
#     Edge 24, Type (0, 0), BuildingBlock: EYOCIG_clean_linker_4, # of connection points: 2
#     Edge 25, Type (0, 0), BuildingBlock: EYOCIG_clean_linker_4, # of connection points: 2
#     Edge 26, Type (0, 0), BuildingBlock: EYOCIG_clean_linker_4, # of connection points: 2
#     Edge 27, Type (0, 0), BuildingBlock: EYOCIG_clean_linker_4, # of connection points: 2
# Relax obj value: 0.153
# Max RMSD: 0.158
# Mean RMSD: 0.158
data_MOF--net-sof--node1-XOMCOT_clean_sbu_1--edge1-EYOCIG_clean_linker_4
_symmetry_space_group_name_H-M    P1
_symmetry_Int_Tables_number       1
_symmetry_cell_setting            triclinic
loop_
_symmetry_equiv_pos_as_xyz
'x, y, z'
_cell_length_a     48.594337
_cell_length_b     14.292077
_cell_length_c     38.044463
_cell_angle_alpha  90.02908
_cell_angle_beta   89.992685
_cell_angle_gamma 89.976393
loop_
_atom_site_label
_atom_site_type_symbol
_atom_site_fract_x
_atom_site_fract_y
_atom_site_fract_z
_atom_type_partial_charge
C0 C 0.08427 0.23156 0.07358 0.0
C1 C 0.08277 0.32697 0.06855 0.0
N2 N 0.06746 0.36298 0.09463 0.0
N3 N 0.07007 0.20851 0.10283 0.0
C4 C 0.05984 0.29046 0.11491 0.0
H5 H 0.09538 0.18219 0.05735 0.0
Co6 Co 0.06613 0.08824 0.12137 0.0
C7 C 0.06868 0.14508 0.19783 0.0
O8 O 0.09119 0.09655 0.20332 0.0
N9 N 0.06121 0.96506 0.13928 0.0
C10 C 0.05558 0.83556 0.17141 0.0
C11 C 0.05802 0.93136 0.17235 0.0
C12 C 0.05951 0.8877 0.11877 0.0
N13 N 0.05651 0.80899 0.13772 0.0
O14 O 0.02855 0.08812 0.10728 0.0
H15 H 0.05694 0.97175 0.19609 0.0
H16 H 0.06125 0.88866 0.09042 0.0
O17 O 0.05682 0.14416 0.16776 0.0
C18 C 0.02855 0.06349 0.07504 0.0
O19 O 0.05208 0.04846 0.05911 0.0
N20 N 0.10427 0.0844 0.13062 0.0
C21 C 0.16105 0.06576 0.13596 0.0
C22 C 0.14809 0.14674 0.1484 0.0
C23 C 0.11949 0.15568 0.14477 0.0
C24 C 0.11728 1.00947 0.11583 0.0
C25 C 0.14554 0.99768 0.11892 0.0
H26 H 0.10957 0.21919 0.1536 0.0
H27 H 0.10595 0.95916 0.10059 0.0
H28 H 0.04747 0.2975 0.13842 0.0
H29 H 0.09264 0.36698 0.04795 0.0
H30 H 0.05351 0.78901 0.1937 0.0
H31 H 0.15986 0.20227 0.16063 0.0
H32 H 0.15521 0.93616 0.10769 0.0
C33 C 0.37136 0.79515 0.07387 0.0
C34 C 0.37287 0.69972 0.06885 0.0
N35 N 0.3882 0.66383 0.09491 0.0
N36 N 0.38557 0.81833 0.1031 0.0
C37 C 0.39582 0.73644 0.11517 0.0
H38 H 0.36023 0.84443 0.05765 0.0
Co39 Co 0.38952 0.93867 0.12163 0.0
C40 C 0.38693 0.88191 0.19807 0.0
O41 O 0.3644 0.93035 0.20357 0.0
N42 N 0.39446 0.0619 0.13954 0.0
C43 C 0.40001 0.19148 0.17168 0.0
C44 C 0.39755 0.0957 0.17262 0.0
C45 C 0.39623 0.13919 0.11903 0.0
N46 N 0.39919 0.21795 0.13799 0.0
O47 O 0.4271 0.93867 0.10753 0.0
H48 H 0.39852 0.05539 0.19637 0.0
H49 H 0.39456 0.13815 0.09068 0.0
O50 O 0.39882 0.88286 0.16802 0.0
C51 C 0.42706 0.96316 0.07528 0.0
O52 O 0.40351 0.97817 0.05941 0.0
N53 N 0.35138 0.94262 0.13087 0.0
C54 C 0.2946 0.9614 0.13613 0.0
C55 C 0.30753 0.8804 0.14857 0.0
C56 C 0.33613 0.8714 0.14498 0.0
C57 C 0.3384 0.01758 0.11609 0.0
C58 C 0.31014 0.02943 0.11913 0.0
H59 H 0.34603 0.80786 0.15381 0.0
H60 H 0.34976 0.06785 0.10088 0.0
H61 H 0.40821 0.7295 0.13866 0.0
H62 H 0.363 0.65962 0.04826 0.0
H63 H 0.40201 0.23811 0.19399 0.0
H64 H 0.29573 0.82491 0.16076 0.0
H65 H 0.3005 0.09096 0.10791 0.0
C66 C 0.08438 0.29464 0.46687 0.0
C67 C 0.0829 0.19923 0.4719 0.0
N68 N 0.06754 0.16325 0.44588 0.0
N69 N 0.07012 0.31772 0.43768 0.0
C70 C 0.05987 0.23579 0.42564 0.0
H71 H 0.09551 0.34399 0.48306 0.0
Co72 Co 0.06608 0.438 0.41917 0.0
C73 C 0.06858 0.38151 0.34269 0.0
O74 O 0.09098 0.43053 0.33716 0.0
N75 N 0.06105 0.56119 0.40129 0.0
C76 C 0.05516 0.69063 0.3692 0.0
C77 C 0.0576 0.59483 0.36826 0.0
C78 C 0.05948 0.63858 0.42181 0.0
N79 N 0.05633 0.71726 0.40288 0.0
O80 O 0.02852 0.43791 0.43335 0.0
H81 H 0.05632 0.55438 0.34455 0.0
H82 H 0.06139 0.63766 0.45014 0.0
O83 O 0.05676 0.38207 0.37279 0.0
C84 C 0.02856 0.46257 0.46559 0.0
O85 O 0.05211 0.47778 0.48143 0.0
N86 N 0.1042 0.44202 0.40983 0.0
C87 C 0.16097 0.46098 0.40433 0.0
C88 C 0.14804 0.38003 0.39185 0.0
C89 C 0.11945 0.37093 0.39556 0.0
C90 C 0.1172 0.51688 0.42467 0.0
C91 C 0.14544 0.52884 0.4215 0.0
H92 H 0.10955 0.30743 0.3867 0.0
H93 H 0.10587 0.56699 0.44002 0.0
H94 H 0.04744 0.22879 0.40219 0.0
H95 H 0.09281 0.1592 0.49247 0.0
H96 H 0.0529 0.73714 0.34693 0.0
H97 H 0.15983 0.32465 0.37953 0.0
H98 H 0.15509 0.59032 0.43277 0.0
C99 C 0.37104 0.73212 0.46697 0.0
C100 C 0.37249 0.82755 0.47201 0.0
N101 N 0.3878 0.86354 0.44595 0.0
N102 N 0.38527 0.70904 0.43774 0.0
C103 C 0.39547 0.79099 0.42568 0.0
H104 H 0.35995 0.68276 0.48319 0.0
Co105 Co 0.38931 0.58874 0.41921 0.0
C106 C 0.3869 0.64489 0.34273 0.0
O107 O 0.36457 0.59552 0.33715 0.0
N108 N 0.39433 0.46552 0.40131 0.0
C109 C 0.40043 0.33608 0.36923 0.0
C110 C 0.39803 0.4319 0.3683 0.0
C111 C 0.39574 0.38811 0.42181 0.0
N112 N 0.399 0.30943 0.40287 0.0
O113 O 0.42686 0.58878 0.4334 0.0
H114 H 0.39955 0.47239 0.34464 0.0
H115 H 0.39368 0.38903 0.45012 0.0
O116 O 0.39866 0.64461 0.37287 0.0
C117 C 0.4268 0.56402 0.46562 0.0
O118 O 0.40324 0.54879 0.48144 0.0
N119 N 0.35119 0.5848 0.40984 0.0
C120 C 0.29443 0.56603 0.4043 0.0
C121 C 0.3074 0.6468 0.39174 0.0
C122 C 0.33598 0.65581 0.39547 0.0
C123 C 0.33816 0.51016 0.42474 0.0
C124 C 0.30991 0.49828 0.42156 0.0
H125 H 0.34592 0.71919 0.38656 0.0
H126 H 0.34946 0.46018 0.44017 0.0
H127 H 0.40786 0.79802 0.40219 0.0
H128 H 0.36259 0.86758 0.49261 0.0
H129 H 0.40287 0.28958 0.34696 0.0
H130 H 0.29564 0.70211 0.37936 0.0
H131 H 0.30024 0.43697 0.43289 0.0
C132 C 0.87086 0.79395 0.96712 0.0
C133 C 0.8723 0.69853 0.97216 0.0
N134 N 0.88764 0.66241 0.94614 0.0
N135 N 0.88513 0.81689 0.93792 0.0
C136 C 0.89534 0.73487 0.92588 0.0
H137 H 0.85976 0.84341 0.98332 0.0
Co138 Co 0.88923 0.93712 0.91942 0.0
C139 C 0.88678 0.8813 0.84291 0.0
O140 O 0.86455 0.93126 0.83738 0.0
N141 N 0.89431 0.06029 0.90156 0.0
C142 C 0.90064 0.1896 0.86953 0.0
C143 C 0.89825 0.09379 0.86859 0.0
C144 C 0.8956 0.13776 0.92206 0.0
N145 N 0.899 0.21636 0.90316 0.0
O146 O 0.92678 0.93681 0.93361 0.0
H147 H 0.89996 0.05319 0.84495 0.0
H148 H 0.8934 0.13693 0.95036 0.0
O149 O 0.89854 0.88114 0.87305 0.0
C150 C 0.92674 0.96167 0.96583 0.0
O151 O 0.90318 0.97712 0.98166 0.0
N152 N 0.85111 0.94134 0.91004 0.0
C153 C 0.79436 0.9605 0.90439 0.0
C154 C 0.80732 0.87968 0.8918 0.0
C155 C 0.83589 0.87047 0.89558 0.0
C156 C 0.83808 0.01601 0.92498 0.0
C157 C 0.80984 0.02809 0.92174 0.0
H158 H 0.84582 0.80705 0.88664 0.0
H159 H 0.84937 0.06584 0.94048 0.0
H160 H 0.90777 0.72775 0.90243 0.0
H161 H 0.86237 0.6586 0.99275 0.0
H162 H 0.90326 0.236 0.84729 0.0
H163 H 0.79556 0.82449 0.87934 0.0
H164 H 0.80017 0.08943 0.93309 0.0
C165 C 0.58436 0.23248 0.96679 0.0
C166 C 0.58286 0.32791 0.97182 0.0
N167 N 0.56746 0.36381 0.94584 0.0
N168 N 0.57006 0.20932 0.93764 0.0
C169 C 0.55977 0.29122 0.92562 0.0
H170 H 0.59552 0.18318 0.98296 0.0
Co171 Co 0.56602 0.08899 0.91913 0.0
C172 C 0.56842 0.14542 0.84267 0.0
O173 O 0.59086 0.09658 0.83709 0.0
N174 N 0.56099 0.96576 0.90126 0.0
C175 C 0.55516 0.83622 0.86916 0.0
C176 C 0.55761 0.93201 0.86821 0.0
C177 C 0.55938 0.88844 0.92178 0.0
N178 N 0.55626 0.80971 0.90284 0.0
O179 O 0.52848 0.08913 0.93339 0.0
H180 H 0.5564 0.97237 0.84449 0.0
H181 H 0.56125 0.88945 0.95011 0.0
O182 O 0.55663 0.1448 0.87278 0.0
C183 C 0.52858 0.06459 0.96563 0.0
O184 O 0.55217 0.04947 0.98141 0.0
N185 N 0.60413 0.08491 0.90972 0.0
C186 C 0.6609 0.06596 0.9042 0.0
C187 C 0.64795 0.14693 0.89176 0.0
C188 C 0.61936 0.15602 0.89548 0.0
C189 C 0.61714 1.01001 0.9245 0.0
C190 C 0.64539 0.99807 0.92132 0.0
H191 H 0.60945 0.21954 0.88665 0.0
H192 H 0.60583 0.95987 0.93982 0.0
H193 H 0.54731 0.29816 0.90219 0.0
H194 H 0.5928 0.368 0.99237 0.0
H195 H 0.55295 0.78964 0.84688 0.0
H196 H 0.65972 0.20233 0.87947 0.0
H197 H 0.65506 0.93657 0.93255 0.0
C198 C 0.87112 0.73192 0.57364 0.0
C199 C 0.87262 0.82733 0.56861 0.0
N200 N 0.88792 0.8633 0.59469 0.0
N201 N 0.88531 0.70884 0.60289 0.0
C202 C 0.89554 0.79077 0.61497 0.0
H203 H 0.86002 0.68258 0.55741 0.0
Co204 Co 0.88928 0.58856 0.62142 0.0
C205 C 0.88668 0.64519 0.69788 0.0
O206 O 0.86421 0.59653 0.70335 0.0
N207 N 0.89423 0.46536 0.63931 0.0
C208 C 0.89992 0.33586 0.67143 0.0
C209 C 0.89749 0.43166 0.67237 0.0
C210 C 0.89589 0.38799 0.6188 0.0
N211 N 0.89894 0.30928 0.63774 0.0
O212 O 0.92686 0.58846 0.60731 0.0
H213 H 0.89862 0.47205 0.69611 0.0
H214 H 0.89412 0.38895 0.59045 0.0
O215 O 0.89857 0.64443 0.66782 0.0
C216 C 0.92685 0.56383 0.57507 0.0
O217 O 0.9033 0.54874 0.55918 0.0
N218 N 0.85114 0.58473 0.63067 0.0
C219 C 0.79437 0.56606 0.63605 0.0
C220 C 0.8073 0.64703 0.64849 0.0
C221 C 0.8359 0.65598 0.64484 0.0
C222 C 0.83814 0.50983 0.61587 0.0
C223 C 0.80989 0.49803 0.61897 0.0
H224 H 0.84581 0.71948 0.65369 0.0
H225 H 0.84948 0.45956 0.6006 0.0
H226 H 0.90791 0.79778 0.63847 0.0
H227 H 0.86276 0.86736 0.548 0.0
H228 H 0.90205 0.28931 0.69372 0.0
H229 H 0.79552 0.70253 0.66075 0.0
H230 H 0.80023 0.43652 0.60774 0.0
C231 C 0.5843 0.29455 0.57374 0.0
C232 C 0.58281 0.19913 0.56872 0.0
N233 N 0.56743 0.16326 0.59473 0.0
N234 N 0.57003 0.31775 0.60293 0.0
C235 C 0.55976 0.23588 0.61497 0.0
H236 H 0.59545 0.34383 0.55756 0.0
Co237 Co 0.566 0.4381 0.62143 0.0
C238 C 0.56849 0.38151 0.6979 0.0
O239 O 0.59098 0.43004 0.70344 0.0
N240 N 0.56099 0.56134 0.63931 0.0
C241 C 0.55533 0.69094 0.67142 0.0
C242 C 0.55778 0.59515 0.67237 0.0
C243 C 0.55928 0.63863 0.61879 0.0
N244 N 0.55626 0.7174 0.63773 0.0
O245 O 0.52844 0.43801 0.60728 0.0
H246 H 0.55673 0.55484 0.69612 0.0
H247 H 0.56104 0.63758 0.59044 0.0
O248 O 0.55666 0.38234 0.66781 0.0
C249 C 0.52848 0.46248 0.57503 0.0
O250 O 0.55204 0.47752 0.55916 0.0
N251 N 0.60412 0.44213 0.63074 0.0
C252 C 0.66089 0.46112 0.63612 0.0
C253 C 0.64798 0.38015 0.64859 0.0
C254 C 0.61939 0.37103 0.64494 0.0
C255 C 0.61709 0.51703 0.61592 0.0
C256 C 0.64534 0.529 0.61903 0.0
H257 H 0.60951 0.30751 0.65379 0.0
H258 H 0.60574 0.56717 0.60063 0.0
H259 H 0.54732 0.22896 0.63841 0.0
H260 H 0.59273 0.15902 0.54815 0.0
H261 H 0.55326 0.73757 0.69372 0.0
H262 H 0.65979 0.32476 0.66086 0.0
H263 H 0.65497 0.59049 0.60777 0.0
C264 C 0.21402 0.02873 0.14138 0.0
C265 C 0.19013 0.05083 0.13997 0.0
C266 C 0.24163 0.99849 0.14142 0.0
C267 C 0.26552 0.97636 0.14006 0.0
C268 C 0.24149 0.52877 0.3988 0.0
C269 C 0.26536 0.55101 0.40023 0.0
C270 C 0.2139 0.49836 0.39882 0.0
C271 C 0.19003 0.47608 0.40026 0.0
C272 C 0.74144 0.99811 0.89877 0.0
C273 C 0.7653 0.97574 0.90025 0.0
C274 C 0.71385 0.0286 0.89873 0.0
C275 C 0.68997 0.05091 0.90015 0.0
C276 C 0.71383 0.4985 0.64152 0.0
C277 C 0.68996 0.47622 0.64013 0.0
C278 C 0.74142 0.52889 0.6415 0.0
C279 C 0.76529 0.55109 0.64008 0.0
C280 C -0.01328 0.02549 0.03409 0.0
C281 C 0.00384 0.04548 0.05572 0.0
C282 C 0.96854 0.99929 1.00689 0.0
C283 C 0.95143 0.97943 0.98523 0.0
C284 C 0.46881 1.00089 0.03417 0.0
C285 C 0.45174 0.98101 0.05589 0.0
C286 C 0.4869 0.02698 1.00686 0.0
C287 C 0.50394 0.0468 0.98511 0.0
C288 C -0.01321 0.50009 0.50672 0.0
C289 C 0.00387 0.4803 0.48501 0.0
C290 C 0.96864 0.52616 0.53399 0.0
C291 C 0.95154 0.54601 0.55569 0.0
C292 C 0.46856 0.5263 0.50671 0.0
C293 C 0.45148 0.54618 0.48503 0.0
C294 C 0.48671 0.50017 0.53395 0.0
C295 C 0.5038 0.48033 0.55564 0.0
C296 C 0.0531 0.28634 0.28675 0.0
C297 C 0.05793 0.32657 0.31402 0.0
C298 C 0.05311 0.24004 0.25379 0.0
C299 C 0.05796 0.19987 0.22651 0.0
C300 C 0.4024 0.7403 0.28688 0.0
C301 C 0.39753 0.69997 0.3141 0.0
C302 C 0.40244 0.78675 0.25397 0.0
C303 C 0.39762 0.82701 0.22672 0.0
C304 C 0.90216 0.7861 0.7869 0.0
C305 C 0.89734 0.82627 0.81419 0.0
C306 C 0.90218 0.73994 0.75392 0.0
C307 C 0.89736 0.69989 0.72661 0.0
C308 C 0.55285 0.24044 0.78676 0.0
C309 C 0.55771 0.20028 0.81403 0.0
C310 C 0.55286 0.28667 0.75381 0.0
C311 C 0.55774 0.32678 0.72655 0.0
C312 C 0.05681 0.63586 0.11609 0.0
C313 C 0.05672 0.71658 0.12534 0.0
C314 C 0.05908 0.54007 0.1074 0.0
C315 C 0.06294 0.45816 0.10154 0.0
C316 C 0.39891 0.39103 0.11636 0.0
C317 C 0.39899 0.31033 0.12561 0.0
C318 C 0.39663 0.48679 0.10768 0.0
C319 C 0.39275 0.56868 0.10181 0.0
C320 C 0.05909 0.98619 0.43316 0.0
C321 C 0.06298 0.06808 0.43901 0.0
C322 C 0.05677 0.89042 0.42448 0.0
C323 C 0.05662 0.80969 0.41524 0.0
C324 C 0.39616 0.04059 0.43318 0.0
C325 C 0.3923 0.95872 0.43906 0.0
C326 C 0.39848 0.13632 0.42446 0.0
C327 C 0.39866 0.21701 0.4152 0.0
C328 C 0.89604 0.4853 0.93343 0.0
C329 C 0.89217 0.5672 0.93928 0.0
C330 C 0.8984 0.38954 0.92473 0.0
C331 C 0.89861 0.30882 0.91548 0.0
C332 C 0.55666 0.63662 0.92445 0.0
C333 C 0.55653 0.71731 0.91521 0.0
C334 C 0.55898 0.54085 0.93312 0.0
C335 C 0.56288 0.45897 0.93896 0.0
C336 C 0.89632 0.04037 0.60744 0.0
C337 C 0.89245 0.95847 0.60158 0.0
C338 C 0.8986 0.13615 0.61612 0.0
C339 C 0.89871 0.21687 0.62536 0.0
C340 C 0.55664 0.89048 0.61611 0.0
C341 C 0.55651 0.80978 0.62535 0.0
C342 C 0.55896 0.98624 0.60745 0.0
C343 C 0.56286 0.06812 0.6016 0.0
loop_
_geom_bond_atom_site_label_1
_geom_bond_atom_site_label_2
_geom_bond_distance
_geom_bond_site_symmetry_2
_ccdc_geom_bond_type
C0 C1 1.351 . S
C0 N3 1.368 . S
C0 H5 0.931 . S
C1 C0 1.351 . S
C1 N2 1.373 . S
C1 H29 0.930 . S
N2 C1 1.373 . S
N2 C4 1.340 . S
N3 C0 1.368 . S
N3 C4 1.321 . S
N3 Co6 2.135 . S
C4 N2 1.340 . S
C4 N3 1.321 . S
C4 H28 0.930 . S
H5 C0 0.931 . S
Co6 N3 2.135 . S
Co6 N9 2.121 1_545 S
Co6 O14 2.055 . S
Co6 O17 2.039 . S
Co6 N20 2.140 . S
C7 O8 1.227 . S
C7 O17 1.265 . S
O8 C7 1.227 . S
N9 Co6 2.121 1_565 S
N9 C11 1.375 . S
N9 C12 1.313 . S
C10 C11 1.338 . S
C10 N13 1.377 . S
C10 H30 0.930 . S
C11 N9 1.375 . S
C11 C10 1.338 . S
C11 H15 0.931 . S
C12 N9 1.313 . S
C12 N13 1.344 . S
C12 H16 0.930 . S
N13 C10 1.377 . S
N13 C12 1.344 . S
O14 Co6 2.055 . S
O14 C18 1.253 . S
H15 C11 0.931 . S
H16 C12 0.930 . S
O17 Co6 2.039 . S
O17 C7 1.265 . S
C18 O14 1.253 . S
C18 O19 1.227 . S
O19 C18 1.227 . S
N20 Co6 2.140 . S
N20 C23 1.346 . S
N20 C24 1.345 . S
C21 C22 1.387 . S
C21 C25 1.399 . S
C22 C21 1.387 . S
C22 C23 1.369 . S
C22 H31 0.929 . S
C23 N20 1.346 . S
C23 C22 1.369 . S
C23 H26 0.928 . S
C24 N20 1.345 . S
C24 C25 1.372 . S
C24 H27 0.931 1_545 S
C25 C21 1.399 . S
C25 C24 1.372 . S
C25 H32 0.921 1_545 S
H26 C23 0.928 . S
H27 C24 0.931 1_565 S
H28 C4 0.930 . S
H29 C1 0.930 . S
H30 C10 0.930 . S
H31 C22 0.929 . S
H32 C25 0.921 1_565 S
C33 C34 1.351 . S
C33 N36 1.368 . S
C33 H38 0.931 . S
C34 C33 1.351 . S
C34 N35 1.373 . S
C34 H62 0.930 . S
N35 C34 1.373 . S
N35 C37 1.340 . S
N36 C33 1.368 . S
N36 C37 1.321 . S
N36 Co39 2.135 . S
C37 N35 1.340 . S
C37 N36 1.321 . S
C37 H61 0.930 . S
H38 C33 0.931 . S
Co39 N36 2.135 . S
Co39 N42 2.121 1_565 S
Co39 O47 2.055 . S
Co39 O50 2.039 . S
Co39 N53 2.140 . S
C40 O41 1.227 . S
C40 O50 1.265 . S
O41 C40 1.227 . S
N42 Co39 2.121 1_545 S
N42 C44 1.375 . S
N42 C45 1.313 . S
C43 C44 1.338 . S
C43 N46 1.377 . S
C43 H63 0.930 . S
C44 N42 1.375 . S
C44 C43 1.338 . S
C44 H48 0.931 . S
C45 N42 1.313 . S
C45 N46 1.344 . S
C45 H49 0.930 . S
N46 C43 1.377 . S
N46 C45 1.344 . S
O47 Co39 2.055 . S
O47 C51 1.253 . S
H48 C44 0.931 . S
H49 C45 0.930 . S
O50 Co39 2.039 . S
O50 C40 1.265 . S
C51 O47 1.253 . S
C51 O52 1.227 . S
O52 C51 1.227 . S
N53 Co39 2.140 . S
N53 C56 1.346 . S
N53 C57 1.345 . S
C54 C55 1.387 . S
C54 C58 1.399 . S
C55 C54 1.387 . S
C55 C56 1.369 . S
C55 H64 0.929 . S
C56 N53 1.346 . S
C56 C55 1.369 . S
C56 H59 0.928 . S
C57 N53 1.345 . S
C57 C58 1.372 . S
C57 H60 0.931 1_565 S
C58 C54 1.399 . S
C58 C57 1.372 . S
C58 H65 0.921 1_565 S
H59 C56 0.928 . S
H60 C57 0.931 1_545 S
H61 C37 0.930 . S
H62 C34 0.930 . S
H63 C43 0.930 . S
H64 C55 0.929 . S
H65 C58 0.921 1_545 S
C66 C67 1.351 . S
C66 N69 1.368 . S
C66 H71 0.931 . S
C67 C66 1.351 . S
C67 N68 1.373 . S
C67 H95 0.930 . S
N68 C67 1.373 . S
N68 C70 1.340 . S
N69 C66 1.368 . S
N69 C70 1.321 . S
N69 Co72 2.135 . S
C70 N68 1.340 . S
C70 N69 1.321 . S
C70 H94 0.930 . S
H71 C66 0.931 . S
Co72 N69 2.135 . S
Co72 N75 2.121 . S
Co72 O80 2.055 . S
Co72 O83 2.039 . S
Co72 N86 2.140 . S
C73 O74 1.227 . S
C73 O83 1.265 . S
O74 C73 1.227 . S
N75 Co72 2.121 . S
N75 C77 1.375 . S
N75 C78 1.313 . S
C76 C77 1.338 . S
C76 N79 1.377 . S
C76 H96 0.930 . S
C77 N75 1.375 . S
C77 C76 1.338 . S
C77 H81 0.931 . S
C78 N75 1.313 . S
C78 N79 1.344 . S
C78 H82 0.930 . S
N79 C76 1.377 . S
N79 C78 1.344 . S
O80 Co72 2.055 . S
O80 C84 1.253 . S
H81 C77 0.931 . S
H82 C78 0.930 . S
O83 Co72 2.039 . S
O83 C73 1.265 . S
C84 O80 1.253 . S
C84 O85 1.227 . S
O85 C84 1.227 . S
N86 Co72 2.140 . S
N86 C89 1.346 . S
N86 C90 1.345 . S
C87 C88 1.387 . S
C87 C91 1.391 . S
C88 C87 1.387 . S
C88 C89 1.369 . S
C88 H97 0.929 . S
C89 N86 1.346 . S
C89 C88 1.369 . S
C89 H92 0.928 . S
C90 N86 1.345 . S
C90 C91 1.371 . S
C90 H93 0.931 . S
C91 C87 1.391 . S
C91 C90 1.371 . S
C91 H98 0.930 . S
H92 C89 0.928 . S
H93 C90 0.931 . S
H94 C70 0.930 . S
H95 C67 0.930 . S
H96 C76 0.930 . S
H97 C88 0.929 . S
H98 C91 0.930 . S
C99 C100 1.351 . S
C99 N102 1.368 . S
C99 H104 0.931 . S
C100 C99 1.351 . S
C100 N101 1.373 . S
C100 H128 0.930 . S
N101 C100 1.373 . S
N101 C103 1.340 . S
N102 C99 1.368 . S
N102 C103 1.321 . S
N102 Co105 2.135 . S
C103 N101 1.340 . S
C103 N102 1.321 . S
C103 H127 0.930 . S
H104 C99 0.931 . S
Co105 N102 2.135 . S
Co105 N108 2.121 . S
Co105 O113 2.055 . S
Co105 O116 2.039 . S
Co105 N119 2.140 . S
C106 O107 1.227 . S
C106 O116 1.265 . S
O107 C106 1.227 . S
N108 Co105 2.121 . S
N108 C110 1.375 . S
N108 C111 1.313 . S
C109 C110 1.338 . S
C109 N112 1.377 . S
C109 H129 0.930 . S
C110 N108 1.375 . S
C110 C109 1.338 . S
C110 H114 0.931 . S
C111 N108 1.313 . S
C111 N112 1.344 . S
C111 H115 0.930 . S
N112 C109 1.377 . S
N112 C111 1.344 . S
O113 Co105 2.055 . S
O113 C117 1.253 . S
H114 C110 0.931 . S
H115 C111 0.930 . S
O116 Co105 2.039 . S
O116 C106 1.265 . S
C117 O113 1.253 . S
C117 O118 1.227 . S
O118 C117 1.227 . S
N119 Co105 2.140 . S
N119 C122 1.346 . S
N119 C123 1.345 . S
C120 C121 1.387 . S
C120 C124 1.391 . S
C121 C120 1.387 . S
C121 C122 1.369 . S
C121 H130 0.929 . S
C122 N119 1.346 . S
C122 C121 1.369 . S
C122 H125 0.928 . S
C123 N119 1.345 . S
C123 C124 1.371 . S
C123 H126 0.931 . S
C124 C120 1.391 . S
C124 C123 1.371 . S
C124 H131 0.930 . S
H125 C122 0.928 . S
H126 C123 0.931 . S
H127 C103 0.930 . S
H128 C100 0.930 . S
H129 C109 0.930 . S
H130 C121 0.929 . S
H131 C124 0.930 . S
C132 C133 1.351 . S
C132 N135 1.368 . S
C132 H137 0.931 . S
C133 C132 1.351 . S
C133 N134 1.373 . S
C133 H161 0.930 . S
N134 C133 1.373 . S
N134 C136 1.340 . S
N135 C132 1.368 . S
N135 C136 1.321 . S
N135 Co138 2.135 . S
C136 N134 1.340 . S
C136 N135 1.321 . S
C136 H160 0.930 . S
H137 C132 0.931 . S
Co138 N135 2.135 . S
Co138 N141 2.121 1_565 S
Co138 O146 2.055 . S
Co138 O149 2.039 . S
Co138 N152 2.140 . S
C139 O140 1.227 . S
C139 O149 1.265 . S
O140 C139 1.227 . S
N141 Co138 2.121 1_545 S
N141 C143 1.375 . S
N141 C144 1.313 . S
C142 C143 1.338 . S
C142 N145 1.377 . S
C142 H162 0.930 . S
C143 N141 1.375 . S
C143 C142 1.338 . S
C143 H147 0.931 . S
C144 N141 1.313 . S
C144 N145 1.344 . S
C144 H148 0.930 . S
N145 C142 1.377 . S
N145 C144 1.344 . S
O146 Co138 2.055 . S
O146 C150 1.253 . S
H147 C143 0.931 . S
H148 C144 0.930 . S
O149 Co138 2.039 . S
O149 C139 1.265 . S
C150 O146 1.253 . S
C150 O151 1.227 . S
O151 C150 1.227 . S
N152 Co138 2.140 . S
N152 C155 1.346 . S
N152 C156 1.345 . S
C153 C154 1.387 . S
C153 C157 1.399 . S
C154 C153 1.387 . S
C154 C155 1.369 . S
C154 H163 0.929 . S
C155 N152 1.346 . S
C155 C154 1.369 . S
C155 H158 0.928 . S
C156 N152 1.345 . S
C156 C157 1.372 . S
C156 H159 0.931 1_565 S
C157 C153 1.399 . S
C157 C156 1.372 . S
C157 H164 0.921 1_565 S
H158 C155 0.928 . S
H159 C156 0.931 1_545 S
H160 C136 0.930 . S
H161 C133 0.930 . S
H162 C142 0.930 . S
H163 C154 0.929 . S
H164 C157 0.921 1_545 S
C165 C166 1.351 . S
C165 N168 1.368 . S
C165 H170 0.931 . S
C166 C165 1.351 . S
C166 N167 1.373 . S
C166 H194 0.930 . S
N167 C166 1.373 . S
N167 C169 1.340 . S
N168 C165 1.368 . S
N168 C169 1.321 . S
N168 Co171 2.135 . S
C169 N167 1.340 . S
C169 N168 1.321 . S
C169 H193 0.930 . S
H170 C165 0.931 . S
Co171 N168 2.135 . S
Co171 N174 2.121 1_545 S
Co171 O179 2.055 . S
Co171 O182 2.039 . S
Co171 N185 2.140 . S
C172 O173 1.227 . S
C172 O182 1.265 . S
O173 C172 1.227 . S
N174 Co171 2.121 1_565 S
N174 C176 1.375 . S
N174 C177 1.313 . S
C175 C176 1.338 . S
C175 N178 1.377 . S
C175 H195 0.930 . S
C176 N174 1.375 . S
C176 C175 1.338 . S
C176 H180 0.931 . S
C177 N174 1.313 . S
C177 N178 1.344 . S
C177 H181 0.930 . S
N178 C175 1.377 . S
N178 C177 1.344 . S
O179 Co171 2.055 . S
O179 C183 1.253 . S
H180 C176 0.931 . S
H181 C177 0.930 . S
O182 Co171 2.039 . S
O182 C172 1.265 . S
C183 O179 1.253 . S
C183 O184 1.227 . S
O184 C183 1.227 . S
N185 Co171 2.140 . S
N185 C188 1.346 . S
N185 C189 1.345 . S
C186 C187 1.387 . S
C186 C190 1.399 . S
C187 C186 1.387 . S
C187 C188 1.369 . S
C187 H196 0.929 . S
C188 N185 1.346 . S
C188 C187 1.369 . S
C188 H191 0.928 . S
C189 N185 1.345 . S
C189 C190 1.372 . S
C189 H192 0.931 1_545 S
C190 C186 1.399 . S
C190 C189 1.372 . S
C190 H197 0.921 1_545 S
H191 C188 0.928 . S
H192 C189 0.931 1_565 S
H193 C169 0.930 . S
H194 C166 0.930 . S
H195 C175 0.930 . S
H196 C187 0.929 . S
H197 C190 0.921 1_565 S
C198 C199 1.351 . S
C198 N201 1.368 . S
C198 H203 0.931 . S
C199 C198 1.351 . S
C199 N200 1.373 . S
C199 H227 0.930 . S
N200 C199 1.373 . S
N200 C202 1.340 . S
N201 C198 1.368 . S
N201 C202 1.321 . S
N201 Co204 2.135 . S
C202 N200 1.340 . S
C202 N201 1.321 . S
C202 H226 0.930 . S
H203 C198 0.931 . S
Co204 N201 2.135 . S
Co204 N207 2.121 . S
Co204 O212 2.055 . S
Co204 O215 2.039 . S
Co204 N218 2.140 . S
C205 O206 1.227 . S
C205 O215 1.265 . S
O206 C205 1.227 . S
N207 Co204 2.121 . S
N207 C209 1.375 . S
N207 C210 1.313 . S
C208 C209 1.338 . S
C208 N211 1.377 . S
C208 H228 0.930 . S
C209 N207 1.375 . S
C209 C208 1.338 . S
C209 H213 0.931 . S
C210 N207 1.313 . S
C210 N211 1.344 . S
C210 H214 0.930 . S
N211 C208 1.377 . S
N211 C210 1.344 . S
O212 Co204 2.055 . S
O212 C216 1.253 . S
H213 C209 0.931 . S
H214 C210 0.930 . S
O215 Co204 2.039 . S
O215 C205 1.265 . S
C216 O212 1.253 . S
C216 O217 1.227 . S
O217 C216 1.227 . S
N218 Co204 2.140 . S
N218 C221 1.346 . S
N218 C222 1.345 . S
C219 C220 1.387 . S
C219 C223 1.391 . S
C220 C219 1.387 . S
C220 C221 1.369 . S
C220 H229 0.929 . S
C221 N218 1.346 . S
C221 C220 1.369 . S
C221 H224 0.928 . S
C222 N218 1.345 . S
C222 C223 1.371 . S
C222 H225 0.931 . S
C223 C219 1.391 . S
C223 C222 1.371 . S
C223 H230 0.930 . S
H224 C221 0.928 . S
H225 C222 0.931 . S
H226 C202 0.930 . S
H227 C199 0.930 . S
H228 C208 0.930 . S
H229 C220 0.929 . S
H230 C223 0.930 . S
C231 C232 1.351 . S
C231 N234 1.368 . S
C231 H236 0.931 . S
C232 C231 1.351 . S
C232 N233 1.373 . S
C232 H260 0.930 . S
N233 C232 1.373 . S
N233 C235 1.340 . S
N234 C231 1.368 . S
N234 C235 1.321 . S
N234 Co237 2.135 . S
C235 N233 1.340 . S
C235 N234 1.321 . S
C235 H259 0.930 . S
H236 C231 0.931 . S
Co237 N234 2.135 . S
Co237 N240 2.121 . S
Co237 O245 2.055 . S
Co237 O248 2.039 . S
Co237 N251 2.140 . S
C238 O239 1.227 . S
C238 O248 1.265 . S
O239 C238 1.227 . S
N240 Co237 2.121 . S
N240 C242 1.375 . S
N240 C243 1.313 . S
C241 C242 1.338 . S
C241 N244 1.377 . S
C241 H261 0.930 . S
C242 N240 1.375 . S
C242 C241 1.338 . S
C242 H246 0.931 . S
C243 N240 1.313 . S
C243 N244 1.344 . S
C243 H247 0.930 . S
N244 C241 1.377 . S
N244 C243 1.344 . S
O245 Co237 2.055 . S
O245 C249 1.253 . S
H246 C242 0.931 . S
H247 C243 0.930 . S
O248 Co237 2.039 . S
O248 C238 1.265 . S
C249 O245 1.253 . S
C249 O250 1.227 . S
O250 C249 1.227 . S
N251 Co237 2.140 . S
N251 C254 1.346 . S
N251 C255 1.345 . S
C252 C253 1.387 . S
C252 C256 1.391 . S
C253 C252 1.387 . S
C253 C254 1.369 . S
C253 H262 0.929 . S
C254 N251 1.346 . S
C254 C253 1.369 . S
C254 H257 0.928 . S
C255 N251 1.345 . S
C255 C256 1.371 . S
C255 H258 0.931 . S
C256 C252 1.391 . S
C256 C255 1.371 . S
C256 H263 0.930 . S
H257 C254 0.928 . S
H258 C255 0.931 . S
H259 C235 0.930 . S
H260 C232 0.930 . S
H261 C241 0.930 . S
H262 C253 0.929 . S
H263 C256 0.930 . S
C264 C265 1.170 . S
C264 C266 1.380 1_545 S
C265 C264 1.170 . S
C266 C264 1.380 1_565 S
C266 C267 1.170 . S
C267 C266 1.170 . S
C268 C269 1.170 . S
C268 C270 1.380 . S
C269 C268 1.170 . S
C270 C268 1.380 . S
C270 C271 1.170 . S
C271 C270 1.170 . S
C272 C273 1.170 . S
C272 C274 1.380 1_565 S
C273 C272 1.170 . S
C274 C272 1.380 1_545 S
C274 C275 1.170 . S
C275 C274 1.170 . S
C276 C277 1.170 . S
C276 C278 1.380 . S
C277 C276 1.170 . S
C278 C276 1.380 . S
C278 C279 1.170 . S
C279 C278 1.170 . S
C280 C281 1.170 . S
C280 C282 1.380 1_444 S
C281 C280 1.170 . S
C282 C280 1.380 1_666 S
C282 C283 1.170 . S
C283 C282 1.170 . S
C284 C285 1.170 . S
C284 C286 1.380 1_564 S
C285 C284 1.170 . S
C286 C284 1.380 1_546 S
C286 C287 1.170 . S
C287 C286 1.170 . S
C288 C289 1.170 . S
C288 C290 1.380 1_455 S
C289 C288 1.170 . S
C290 C288 1.380 1_655 S
C290 C291 1.170 . S
C291 C290 1.170 . S
C292 C293 1.170 . S
C292 C294 1.380 . S
C293 C292 1.170 . S
C294 C292 1.380 . S
C294 C295 1.170 . S
C295 C294 1.170 . S
C296 C297 1.170 . S
C296 C298 1.380 . S
C297 C296 1.170 . S
C298 C296 1.380 . S
C298 C299 1.170 . S
C299 C298 1.170 . S
C300 C301 1.170 . S
C300 C302 1.380 . S
C301 C300 1.170 . S
C302 C300 1.380 . S
C302 C303 1.170 . S
C303 C302 1.170 . S
C304 C305 1.170 . S
C304 C306 1.380 . S
C305 C304 1.170 . S
C306 C304 1.380 . S
C306 C307 1.170 . S
C307 C306 1.170 . S
C308 C309 1.170 . S
C308 C310 1.380 . S
C309 C308 1.170 . S
C310 C308 1.380 . S
C310 C311 1.170 . S
C311 C310 1.170 . S
C312 C313 1.170 . S
C312 C314 1.380 . S
C313 C312 1.170 . S
C314 C312 1.380 . S
C314 C315 1.170 . S
C315 C314 1.170 . S
C316 C317 1.170 . S
C316 C318 1.380 . S
C317 C316 1.170 . S
C318 C316 1.380 . S
C318 C319 1.170 . S
C319 C318 1.170 . S
C320 C321 1.170 1_565 S
C320 C322 1.380 . S
C321 C320 1.170 1_545 S
C322 C320 1.380 . S
C322 C323 1.170 . S
C323 C322 1.170 . S
C324 C325 1.170 1_545 S
C324 C326 1.380 . S
C325 C324 1.170 1_565 S
C326 C324 1.380 . S
C326 C327 1.170 . S
C327 C326 1.170 . S
C328 C329 1.170 . S
C328 C330 1.380 . S
C329 C328 1.170 . S
C330 C328 1.380 . S
C330 C331 1.170 . S
C331 C330 1.170 . S
C332 C333 1.170 . S
C332 C334 1.380 . S
C333 C332 1.170 . S
C334 C332 1.380 . S
C334 C335 1.170 . S
C335 C334 1.170 . S
C336 C337 1.170 1_545 S
C336 C338 1.380 . S
C337 C336 1.170 1_565 S
C338 C336 1.380 . S
C338 C339 1.170 . S
C339 C338 1.170 . S
C340 C341 1.170 . S
C340 C342 1.380 . S
C341 C340 1.170 . S
C342 C340 1.380 . S
C342 C343 1.170 1_565 S
C343 C342 1.170 1_545 S
C265 C21 1.556 . S
C267 C54 1.547 . S
C269 C120 1.550 . S
C271 C87 1.548 . S
C273 C153 1.553 . S
C275 C186 1.557 . S
C277 C252 1.547 . S
C279 C219 1.567 . S
C281 C18 1.212 . S
C283 C150 1.224 . S
C285 C51 1.213 . S
C287 C183 1.225 . S
C289 C84 1.213 . S
C291 C216 1.222 . S
C293 C117 1.213 . S
C295 C249 1.225 . S
C297 C73 1.442 . S
C299 C7 1.453 . S
C301 C106 1.466 . S
C303 C40 1.483 . S
C305 C139 1.442 . S
C307 C205 1.479 . S
C309 C172 1.451 . S
C311 C238 1.482 . S
C313 N13 1.383 . S
C315 N2 1.349 . S
C317 N46 1.383 . S
C319 N35 1.360 . S
C321 N68 1.350 . S
C323 N79 1.385 . S
C325 N101 1.366 . S
C327 N112 1.359 . S
C329 N134 1.380 . S
C331 N145 1.363 . S
C333 N178 1.376 . S
C335 N167 1.352 . S
C337 N200 1.380 . S
C339 N211 1.352 . S
C341 N244 1.366 . S
C343 N233 1.360 . S
