# Generated by pormake.
# Topology vbm, (6)-cn, num edge types: 1
# Building blocks:
#     Node 0, Type 0, BuildingBlock: VOLQOD_clean_sbu_1, # of connection points: 6
#     Node 1, Type 0, BuildingBlock: VOLQOD_clean_sbu_1, # of connection points: 6
#     Node 2, Type 0, BuildingBlock: VOLQOD_clean_sbu_1, # of connection points: 6
#     Node 3, Type 0, BuildingBlock: VOLQOD_clean_sbu_1, # of connection points: 6
#     Node 4, Type 0, BuildingBlock: VOLQOD_clean_sbu_1, # of connection points: 6
#     Node 5, Type 0, BuildingBlock: VOLQOD_clean_sbu_1, # of connection points: 6
#     Node 6, Type 0, BuildingBlock: VOLQOD_clean_sbu_1, # of connection points: 6
#     Node 7, Type 0, BuildingBlock: VOLQOD_clean_sbu_1, # of connection points: 6
#     Node 8, Type 0, BuildingBlock: VOLQOD_clean_sbu_1, # of connection points: 6
#     Node 9, Type 0, BuildingBlock: VOLQOD_clean_sbu_1, # of connection points: 6
#     Node 10, Type 0, BuildingBlock: VOLQOD_clean_sbu_1, # of connection points: 6
#     Node 11, Type 0, BuildingBlock: VOLQOD_clean_sbu_1, # of connection points: 6
#     Node 12, Type 0, BuildingBlock: VOLQOD_clean_sbu_1, # of connection points: 6
#     Node 13, Type 0, BuildingBlock: VOLQOD_clean_sbu_1, # of connection points: 6
#     Node 14, Type 0, BuildingBlock: VOLQOD_clean_sbu_1, # of connection points: 6
#     Node 15, Type 0, BuildingBlock: VOLQOD_clean_sbu_1, # of connection points: 6
#     Edge 16, Type (0, 0), BuildingBlock: XIVTED_clean_linker_0, # of connection points: 2
#     Edge 17, Type (0, 0), BuildingBlock: XIVTED_clean_linker_0, # of connection points: 2
#     Edge 18, Type (0, 0), BuildingBlock: XIVTED_clean_linker_0, # of connection points: 2
#     Edge 19, Type (0, 0), BuildingBlock: XIVTED_clean_linker_0, # of connection points: 2
#     Edge 20, Type (0, 0), BuildingBlock: XIVTED_clean_linker_0, # of connection points: 2
#     Edge 21, Type (0, 0), BuildingBlock: XIVTED_clean_linker_0, # of connection points: 2
#     Edge 22, Type (0, 0), BuildingBlock: XIVTED_clean_linker_0, # of connection points: 2
#     Edge 23, Type (0, 0), BuildingBlock: XIVTED_clean_linker_0, # of connection points: 2
#     Edge 24, Type (0, 0), BuildingBlock: XIVTED_clean_linker_0, # of connection points: 2
#     Edge 25, Type (0, 0), BuildingBlock: XIVTED_clean_linker_0, # of connection points: 2
#     Edge 26, Type (0, 0), BuildingBlock: XIVTED_clean_linker_0, # of connection points: 2
#     Edge 27, Type (0, 0), BuildingBlock: XIVTED_clean_linker_0, # of connection points: 2
#     Edge 28, Type (0, 0), BuildingBlock: XIVTED_clean_linker_0, # of connection points: 2
#     Edge 29, Type (0, 0), BuildingBlock: XIVTED_clean_linker_0, # of connection points: 2
#     Edge 30, Type (0, 0), BuildingBlock: XIVTED_clean_linker_0, # of connection points: 2
#     Edge 31, Type (0, 0), BuildingBlock: XIVTED_clean_linker_0, # of connection points: 2
#     Edge 32, Type (0, 0), BuildingBlock: XIVTED_clean_linker_0, # of connection points: 2
#     Edge 33, Type (0, 0), BuildingBlock: XIVTED_clean_linker_0, # of connection points: 2
#     Edge 34, Type (0, 0), BuildingBlock: XIVTED_clean_linker_0, # of connection points: 2
#     Edge 35, Type (0, 0), BuildingBlock: XIVTED_clean_linker_0, # of connection points: 2
#     Edge 36, Type (0, 0), BuildingBlock: XIVTED_clean_linker_0, # of connection points: 2
#     Edge 37, Type (0, 0), BuildingBlock: XIVTED_clean_linker_0, # of connection points: 2
#     Edge 38, Type (0, 0), BuildingBlock: XIVTED_clean_linker_0, # of connection points: 2
#     Edge 39, Type (0, 0), BuildingBlock: XIVTED_clean_linker_0, # of connection points: 2
#     Edge 40, Type (0, 0), BuildingBlock: XIVTED_clean_linker_0, # of connection points: 2
#     Edge 41, Type (0, 0), BuildingBlock: XIVTED_clean_linker_0, # of connection points: 2
#     Edge 42, Type (0, 0), BuildingBlock: XIVTED_clean_linker_0, # of connection points: 2
#     Edge 43, Type (0, 0), BuildingBlock: XIVTED_clean_linker_0, # of connection points: 2
#     Edge 44, Type (0, 0), BuildingBlock: XIVTED_clean_linker_0, # of connection points: 2
#     Edge 45, Type (0, 0), BuildingBlock: XIVTED_clean_linker_0, # of connection points: 2
#     Edge 46, Type (0, 0), BuildingBlock: XIVTED_clean_linker_0, # of connection points: 2
#     Edge 47, Type (0, 0), BuildingBlock: XIVTED_clean_linker_0, # of connection points: 2
#     Edge 48, Type (0, 0), BuildingBlock: XIVTED_clean_linker_0, # of connection points: 2
#     Edge 49, Type (0, 0), BuildingBlock: XIVTED_clean_linker_0, # of connection points: 2
#     Edge 50, Type (0, 0), BuildingBlock: XIVTED_clean_linker_0, # of connection points: 2
#     Edge 51, Type (0, 0), BuildingBlock: XIVTED_clean_linker_0, # of connection points: 2
#     Edge 52, Type (0, 0), BuildingBlock: XIVTED_clean_linker_0, # of connection points: 2
#     Edge 53, Type (0, 0), BuildingBlock: XIVTED_clean_linker_0, # of connection points: 2
#     Edge 54, Type (0, 0), BuildingBlock: XIVTED_clean_linker_0, # of connection points: 2
#     Edge 55, Type (0, 0), BuildingBlock: XIVTED_clean_linker_0, # of connection points: 2
#     Edge 56, Type (0, 0), BuildingBlock: XIVTED_clean_linker_0, # of connection points: 2
#     Edge 57, Type (0, 0), BuildingBlock: XIVTED_clean_linker_0, # of connection points: 2
#     Edge 58, Type (0, 0), BuildingBlock: XIVTED_clean_linker_0, # of connection points: 2
#     Edge 59, Type (0, 0), BuildingBlock: XIVTED_clean_linker_0, # of connection points: 2
#     Edge 60, Type (0, 0), BuildingBlock: XIVTED_clean_linker_0, # of connection points: 2
#     Edge 61, Type (0, 0), BuildingBlock: XIVTED_clean_linker_0, # of connection points: 2
#     Edge 62, Type (0, 0), BuildingBlock: XIVTED_clean_linker_0, # of connection points: 2
#     Edge 63, Type (0, 0), BuildingBlock: XIVTED_clean_linker_0, # of connection points: 2
# Relax obj value: 0.098
# Max RMSD: 0.118
# Mean RMSD: 0.118
data_MOF--net-vbm--node1-VOLQOD_clean_sbu_1--edge1-XIVTED_clean_linker_0
_symmetry_space_group_name_H-M    P1
_symmetry_Int_Tables_number       1
_symmetry_cell_setting            triclinic
loop_
_symmetry_equiv_pos_as_xyz
'x, y, z'
_cell_length_a     64.925529
_cell_length_b     17.139012
_cell_length_c     68.391029
_cell_angle_alpha  90.027683
_cell_angle_beta   89.980764
_cell_angle_gamma 89.945137
loop_
_atom_site_label
_atom_site_type_symbol
_atom_site_fract_x
_atom_site_fract_y
_atom_site_fract_z
_atom_type_partial_charge
O0 O 0.0946 0.26039 0.10609 0.0
Zn1 Zn 0.09237 0.1461 0.10022 0.0
O2 O 0.1095 0.08402 0.11778 0.0
Zn3 Zn 0.1304 0.02787 0.10258 0.0
Zn4 Zn 0.12274 0.15128 0.13653 0.0
Zn5 Zn 0.09256 0.01198 0.1325 0.0
O6 O 0.12898 0.91228 0.10758 0.0
O7 O 0.10254 0.90491 0.12819 0.0
O8 O 0.10131 0.13264 0.07242 0.0
O9 O 0.12609 0.04341 0.0739 0.0
O10 O 0.15893 0.06863 0.10849 0.0
O11 O 0.15307 0.14892 0.13339 0.0
O12 O 0.11622 0.12475 0.16404 0.0
O13 O 0.06273 0.11229 0.10174 0.0
O14 O 0.09369 0.02832 0.16162 0.0
O15 O 0.06338 0.01557 0.12337 0.0
C16 C 0.10391 0.29653 0.11971 0.0
C17 C 0.11678 0.87295 0.11829 0.0
C18 C 0.16533 0.11596 0.12149 0.0
C19 C 0.11446 0.08865 0.06414 0.0
C20 C 0.10428 0.07529 0.17189 0.0
C21 C 0.05371 0.05829 0.11124 0.0
O22 O 0.11458 0.26095 0.13244 0.0
O23 O 0.85857 0.75581 0.09914 0.0
Zn24 Zn 0.86462 0.86875 0.09368 0.0
O25 O 0.84748 0.93704 0.10929 0.0
Zn26 Zn 0.82532 -0.01762 0.09371 0.0
Zn27 Zn 0.83637 0.87705 0.13081 0.0
Zn28 Zn 0.86421 0.01934 0.11936 0.0
O29 O 0.82242 0.09988 0.09853 0.0
O30 O 0.85184 0.12244 0.11417 0.0
O31 O 0.85835 0.88654 0.06562 0.0
O32 O 0.83179 0.9687 0.06508 0.0
O33 O 0.79909 0.92318 0.10013 0.0
O34 O 0.80578 0.88267 0.13039 0.0
O35 O 0.84676 0.91334 0.15696 0.0
O36 O 0.89486 0.89353 0.09716 0.0
O37 O 0.86622 0.01382 0.14824 0.0
O38 O 0.89267 0.01453 0.10873 0.0
C39 C 0.84957 0.72258 0.11342 0.0
C40 C 0.83517 0.14648 0.10659 0.0
C41 C 0.79346 0.89076 0.11607 0.0
C42 C 0.84533 0.9277 0.05632 0.0
C43 C 0.85855 0.97003 0.16131 0.0
C44 C 0.90317 0.95842 0.10172 0.0
O45 O 0.84173 0.76208 0.12733 0.0
O46 O 0.11946 0.8352 0.38135 0.0
Zn47 Zn 0.11458 0.95039 0.38463 0.0
O48 O 0.13362 0.01028 0.36878 0.0
Zn49 Zn 0.15557 0.05543 0.38481 0.0
Zn50 Zn 0.14513 0.94321 0.34898 0.0
Zn51 Zn 0.11873 0.09092 0.35566 0.0
O52 O 0.15648 0.17435 0.38186 0.0
O53 O 0.12745 0.1941 0.36524 0.0
O54 O 0.11941 0.9748 0.41252 0.0
O55 O 0.14978 0.0348 0.41344 0.0
O56 O 0.18272 0.00385 0.37786 0.0
O57 O 0.17559 0.95186 0.34883 0.0
O58 O 0.13442 0.96692 0.32206 0.0
O59 O 0.08502 0.97724 0.37923 0.0
O60 O 0.12188 0.08594 0.32671 0.0
O61 O 0.08876 0.08148 0.36033 0.0
C62 C 0.13036 0.79688 0.36919 0.0
C63 C 0.14284 0.2198 0.3747 0.0
C64 C 0.18832 0.96834 0.36234 0.0
C65 C 0.13414 0.00557 0.42199 0.0
C66 C 0.1267 0.02986 0.31543 0.0
C67 C 0.07742 0.03356 0.3695 0.0
O68 O 0.14038 0.831 0.3557 0.0
O69 O 0.8809 0.29604 0.37262 0.0
Zn70 Zn 0.88561 0.1801 0.37539 0.0
O71 O 0.87022 0.12415 0.3556 0.0
Zn72 Zn 0.84716 0.06773 0.36705 0.0
Zn73 Zn 0.86093 0.1981 0.33653 0.0
Zn74 Zn 0.88787 0.05304 0.34231 0.0
O75 O 0.84868 0.95214 0.36065 0.0
O76 O 0.88081 0.94543 0.3494 0.0
O77 O 0.87729 0.14376 0.40198 0.0
O78 O 0.84956 0.07126 0.39625 0.0
O79 O 0.82005 0.11844 0.35943 0.0
O80 O 0.83107 0.21549 0.34051 0.0
O81 O 0.86524 0.16259 0.30878 0.0
O82 O 0.91602 0.15889 0.37278 0.0
O83 O 0.8842 0.05696 0.31365 0.0
O84 O 0.91715 0.07301 0.34842 0.0
C85 C 0.87823 0.33485 0.35693 0.0
C86 C 0.8643 0.91281 0.35507 0.0
C87 C 0.81669 0.17997 0.34941 0.0
C88 C 0.86254 0.1012 0.40799 0.0
C89 C 0.87483 0.10331 0.30227 0.0
C90 C 0.92607 0.11544 0.36106 0.0
O91 O 0.87373 0.30168 0.34085 0.0
O92 O 0.87932 0.7618 0.84282 0.0
Zn93 Zn 0.88126 0.87954 0.83982 0.0
O94 O 0.86155 0.93408 0.85671 0.0
Zn95 Zn 0.84049 -0.01301 0.8408 0.0
Zn96 Zn 0.84909 0.85973 0.87392 0.0
Zn97 Zn 0.87534 0.00749 0.87367 0.0
O98 O 0.84109 0.10456 0.84532 0.0
O99 O 0.86652 0.11398 0.867 0.0
O100 O 0.8758 0.90351 0.8117 0.0
O101 O 0.84667 0.97165 0.81246 0.0
O102 O 0.81216 0.93908 0.84499 0.0
O103 O 0.81947 0.85497 0.86873 0.0
O104 O 0.85246 0.88189 0.90209 0.0
O105 O 0.91011 0.9152 0.84571 0.0
O106 O 0.86951 -0.00656 0.90235 0.0
O107 O 0.90561 0.00142 0.86968 0.0
C108 C 0.87037 0.72167 0.85597 0.0
C109 C 0.85301 0.1452 0.8561 0.0
C110 C 0.80672 0.88659 0.85713 0.0
C111 C 0.86122 0.93905 0.80305 0.0
C112 C 0.86048 0.93835 0.91131 0.0
C113 C 0.91726 0.96376 0.85807 0.0
O114 O 0.85939 0.75342 0.86909 0.0
O115 O 0.10902 0.2677 0.84758 0.0
Zn116 Zn 0.106 0.15063 0.84535 0.0
O117 O 0.12323 0.09645 0.86448 0.0
Zn118 Zn 0.14406 0.03396 0.85121 0.0
Zn119 Zn 0.13598 0.1723 0.8812 0.0
Zn120 Zn 0.10698 0.03057 0.88113 0.0
O121 O 0.14274 0.92087 0.85913 0.0
O122 O 0.11354 0.91997 0.87613 0.0
O123 O 0.11274 0.11662 0.81798 0.0
O124 O 0.13801 0.03106 0.82262 0.0
O125 O 0.17238 0.08124 0.85465 0.0
O126 O 0.16547 0.18127 0.87432 0.0
O127 O 0.13339 0.14912 0.90977 0.0
O128 O 0.07618 0.12376 0.84991 0.0
O129 O 0.11227 0.04772 0.90949 0.0
O130 O 0.07724 0.04641 0.87601 0.0
C131 C 0.11532 0.30788 0.86206 0.0
C132 C 0.12848 0.88445 0.86809 0.0
C133 C 0.17799 0.14229 0.86389 0.0
C134 C 0.1255 0.06659 0.81143 0.0
C135 C 0.12318 0.09694 0.9187 0.0
C136 C 0.06722 0.08301 0.86295 0.0
O137 O 0.12421 0.2767 0.87662 0.0
O138 O 0.87138 0.14482 0.61605 0.0
Zn139 Zn 0.87445 0.02929 0.62071 0.0
O140 O 0.85626 0.96917 0.6038 0.0
Zn141 Zn 0.8363 0.91176 0.61978 0.0
Zn142 Zn 0.84156 0.03765 0.58662 0.0
Zn143 Zn 0.87232 0.90119 0.58699 0.0
O144 O 0.83709 0.79733 0.61272 0.0
O145 O 0.86239 0.79277 0.59067 0.0
O146 O 0.86862 0.00777 0.64883 0.0
O147 O 0.84353 0.91987 0.64809 0.0
O148 O 0.80758 0.95861 0.61788 0.0
O149 O 0.8122 0.04079 0.59321 0.0
O150 O 0.84395 0.01066 0.55864 0.0
O151 O 0.90382 -0.00315 0.6169 0.0
O152 O 0.86985 0.92652 0.55826 0.0
O153 O 0.90216 0.90427 0.59419 0.0
C154 C 0.86203 0.18161 0.60252 0.0
C155 C 0.84864 0.75948 0.60097 0.0
C156 C 0.80073 0.00951 0.60599 0.0
C157 C 0.85632 0.96162 0.65749 0.0
C158 C 0.85669 0.9685 0.54937 0.0
C159 C 0.9124 0.94539 0.60623 0.0
O160 O 0.85117 0.14651 0.58984 0.0
O161 O 0.10936 0.71269 0.63315 0.0
Zn162 Zn 0.10367 0.82684 0.63662 0.0
O163 O 0.12053 0.88531 0.61823 0.0
Zn164 Zn 0.14136 0.94552 0.63173 0.0
Zn165 Zn 0.13364 0.81784 0.5997 0.0
Zn166 Zn 0.10332 0.95488 0.60382 0.0
O167 O 0.13948 0.05867 0.6243 0.0
O168 O 0.10698 0.06198 0.61396 0.0
O169 O 0.10963 0.85998 0.66442 0.0
O170 O 0.13518 0.94473 0.66015 0.0
O171 O 0.17008 0.90172 0.62783 0.0
O172 O 0.16358 0.81712 0.60405 0.0
O173 O 0.12992 0.85143 0.57198 0.0
O174 O 0.07332 0.84319 0.63126 0.0
O175 O 0.11044 0.95682 0.57542 0.0
O176 O 0.07397 0.92513 0.6061 0.0
C177 C 0.11713 0.67469 0.61891 0.0
C178 C 0.12316 0.09619 0.61993 0.0
C179 C 0.17606 0.85062 0.61556 0.0
C180 C 0.12252 0.90916 0.67116 0.0
C181 C 0.12089 0.91061 0.56478 0.0
C182 C 0.06417 0.88201 0.61798 0.0
O183 O 0.12519 0.70845 0.60422 0.0
O184 O 0.61467 0.63051 0.09648 0.0
Zn185 Zn 0.6099 0.51464 0.09434 0.0
O186 O 0.62624 0.45858 0.11367 0.0
Zn187 Zn 0.64958 0.4055 0.10171 0.0
Zn188 Zn 0.63646 0.52961 0.13305 0.0
Zn189 Zn 0.60899 0.38419 0.12654 0.0
O190 O 0.64903 0.28913 0.10715 0.0
O191 O 0.61727 0.27755 0.11906 0.0
O192 O 0.61839 0.48076 0.06774 0.0
O193 O 0.64728 0.41373 0.07274 0.0
O194 O 0.67635 0.45759 0.10914 0.0
O195 O 0.66696 0.52565 0.13527 0.0
O196 O 0.62407 0.51165 0.15924 0.0
O197 O 0.57956 0.49234 0.09685 0.0
O198 O 0.60961 0.39533 0.15553 0.0
O199 O 0.57971 0.39853 0.1192 0.0
C200 C 0.62355 0.67038 0.10973 0.0
C201 C 0.63373 0.24745 0.11241 0.0
C202 C 0.68075 0.50212 0.12346 0.0
C203 C 0.63381 0.44267 0.06137 0.0
C204 C 0.61472 0.45279 0.16622 0.0
C205 C 0.57013 0.44312 0.1075 0.0
O206 O 0.63151 0.63848 0.12469 0.0
O207 O 0.37328 0.20644 0.10107 0.0
Zn208 Zn 0.37765 0.31965 0.09546 0.0
O209 O 0.36096 0.38402 0.11275 0.0
Zn210 Zn 0.33975 0.43816 0.09756 0.0
Zn211 Zn 0.3484 0.32001 0.13281 0.0
Zn212 Zn 0.37835 0.45827 0.12575 0.0
O213 O 0.34034 0.55397 0.10267 0.0
O214 O 0.3691 0.56505 0.12013 0.0
O215 O 0.36971 0.33675 0.06777 0.0
O216 O 0.34455 0.4246 0.0688 0.0
O217 O 0.31166 0.39421 0.10378 0.0
O218 O 0.31792 0.32297 0.13029 0.0
O219 O 0.35602 0.35083 0.16012 0.0
O220 O 0.40787 0.34553 0.09758 0.0
O221 O 0.37715 0.4497 0.15462 0.0
O222 O 0.40761 0.44598 0.11812 0.0
C223 C 0.36468 0.17158 0.1153 0.0
C224 C 0.35366 0.59513 0.11161 0.0
C225 C 0.3055 0.35087 0.11774 0.0
C226 C 0.35675 0.38069 0.05927 0.0
C227 C 0.36773 0.40479 0.16631 0.0
C228 C 0.41721 0.39861 0.1071 0.0
O229 O 0.3557 0.20869 0.12895 0.0
O230 O 0.60969 0.27261 0.38023 0.0
Zn231 Zn 0.60454 0.38811 0.38173 0.0
O232 O 0.6208 0.44466 0.36252 0.0
Zn233 Zn 0.64404 0.49907 0.37455 0.0
Zn234 Zn 0.63106 0.37225 0.34353 0.0
Zn235 Zn 0.60312 0.51825 0.34961 0.0
O236 O 0.64203 0.61546 0.37043 0.0
O237 O 0.61141 0.62553 0.3561 0.0
O238 O 0.61282 0.42391 0.40817 0.0
O239 O 0.64258 0.48591 0.40359 0.0
O240 O 0.67143 0.45748 0.36505 0.0
O241 O 0.66143 0.37697 0.34149 0.0
O242 O 0.61884 0.38941 0.31728 0.0
O243 O 0.57413 0.4083 0.37907 0.0
O244 O 0.60297 0.50347 0.32065 0.0
O245 O 0.57418 0.50802 0.35842 0.0
C246 C 0.61864 0.23248 0.36708 0.0
C247 C 0.62715 0.65636 0.36392 0.0
C248 C 0.67557 0.40929 0.35141 0.0
C249 C 0.62859 0.45918 0.41477 0.0
C250 C 0.60879 0.44635 0.31014 0.0
C251 C 0.56468 0.46136 0.36966 0.0
O252 O 0.62641 0.26385 0.352 0.0
O253 O 0.36693 0.71191 0.37387 0.0
Zn254 Zn 0.37335 0.59807 0.3779 0.0
O255 O 0.35598 0.53219 0.36204 0.0
Zn256 Zn 0.33419 0.48563 0.37785 0.0
Zn257 Zn 0.34435 0.59531 0.34147 0.0
Zn258 Zn 0.3727 0.45195 0.35068 0.0
O259 O 0.33187 0.36853 0.37281 0.0
O260 O 0.36082 0.34834 0.35608 0.0
O261 O 0.36884 0.57278 0.40586 0.0
O262 O 0.34086 0.49804 0.40637 0.0
O263 O 0.30762 0.54343 0.37254 0.0
O264 O 0.31379 0.59528 0.34331 0.0
O265 O 0.35321 0.56099 0.31481 0.0
O266 O 0.40327 0.5761 0.3731 0.0
O267 O 0.3734 0.4601 0.32167 0.0
O268 O 0.40169 0.457 0.36032 0.0
C269 C 0.35861 0.74643 0.3594 0.0
C270 C 0.34455 0.32307 0.36421 0.0
C271 C 0.3017 0.58167 0.35756 0.0
C272 C 0.35546 0.53323 0.41509 0.0
C273 C 0.36491 0.50548 0.3094 0.0
C274 C 0.41194 0.51305 0.36765 0.0
O275 O 0.35112 0.70827 0.34512 0.0
O276 O 0.39275 0.21968 0.84328 0.0
Zn277 Zn 0.39477 0.33797 0.84221 0.0
O278 O 0.37669 0.38804 0.86115 0.0
Zn279 Zn 0.35571 0.45107 0.84831 0.0
Zn280 Zn 0.36373 0.30778 0.87594 0.0
Zn281 Zn 0.39209 0.45146 0.87926 0.0
O282 O 0.35891 0.5655 0.85492 0.0
O283 O 0.38683 0.56315 0.87373 0.0
O284 O 0.38833 0.37464 0.81513 0.0
O285 O 0.36021 0.44669 0.81956 0.0
O286 O 0.32698 0.40876 0.85297 0.0
O287 O 0.33484 0.29658 0.86748 0.0
O288 O 0.36358 0.32973 0.90438 0.0
O289 O 0.42401 0.36688 0.84801 0.0
O290 O 0.38385 0.43316 0.90714 0.0
O291 O 0.42229 0.4336 0.87591 0.0
C292 C 0.38656 0.17711 0.85736 0.0
C293 C 0.37303 0.60049 0.86446 0.0
C294 C 0.32186 0.34173 0.85942 0.0
C295 C 0.37379 0.41673 0.80845 0.0
C296 C 0.37222 0.38175 0.91472 0.0
C297 C 0.43264 0.40223 0.86219 0.0
O298 O 0.37694 0.2056 0.87185 0.0
O299 O 0.62943 0.63501 0.8539 0.0
Zn300 Zn 0.6244 0.52354 0.84808 0.0
O301 O 0.64225 0.45849 0.86378 0.0
Zn302 Zn 0.66176 0.4029 0.84719 0.0
Zn303 Zn 0.65744 0.52041 0.88233 0.0
Zn304 Zn 0.62547 0.38602 0.87789 0.0
O305 O 0.662 0.28789 0.85354 0.0
O306 O 0.63194 0.27954 0.86913 0.0
O307 O 0.62956 0.50622 0.81981 0.0
O308 O 0.65302 0.41169 0.81929 0.0
O309 O 0.69007 0.45194 0.84869 0.0
O310 O 0.68713 0.51763 0.87652 0.0
O311 O 0.6535 0.48551 0.90979 0.0
O312 O 0.5945 0.50158 0.85274 0.0
O313 O 0.63072 0.39009 0.90647 0.0
O314 O 0.59554 0.40483 0.87422 0.0
C315 C 0.63969 0.67011 0.86705 0.0
C316 C 0.64737 0.24793 0.86088 0.0
C317 C 0.6978 0.49415 0.86213 0.0
C318 C 0.6407 0.45766 0.81056 0.0
C319 C 0.64228 0.43224 0.91706 0.0
C320 C 0.58548 0.45253 0.86372 0.0
O321 O 0.65033 0.63328 0.87964 0.0
O322 O 0.38484 0.73428 0.62744 0.0
Zn323 Zn 0.38844 0.61868 0.63097 0.0
O324 O 0.36974 0.56224 0.61366 0.0
Zn325 Zn 0.34911 0.50499 0.62872 0.0
Zn326 Zn 0.35553 0.63257 0.59649 0.0
Zn327 Zn 0.38576 0.4924 0.5976 0.0
O328 O 0.35132 0.38983 0.62347 0.0
O329 O 0.38002 0.38404 0.6057 0.0
O330 O 0.38277 0.59188 0.65896 0.0
O331 O 0.35486 0.51728 0.65706 0.0
O332 O 0.32009 0.54453 0.62469 0.0
O333 O 0.32566 0.63206 0.60145 0.0
O334 O 0.35879 0.60573 0.56844 0.0
O335 O 0.41808 0.5909 0.62592 0.0
O336 O 0.37923 0.50205 0.56911 0.0
O337 O 0.41585 0.5086 0.60095 0.0
C338 C 0.37478 0.77358 0.61486 0.0
C339 C 0.36563 0.35111 0.61519 0.0
C340 C 0.31356 0.59633 0.61291 0.0
C341 C 0.36866 0.55169 0.66701 0.0
C342 C 0.36829 0.55095 0.55978 0.0
C343 C 0.42649 0.54725 0.61315 0.0
O344 O 0.36393 0.74112 0.60171 0.0
O345 O 0.62024 0.25925 0.62294 0.0
Zn346 Zn 0.61608 0.37247 0.62855 0.0
O347 O 0.63441 0.4349 0.61241 0.0
Zn348 Zn 0.65487 0.48948 0.6283 0.0
Zn349 Zn 0.64846 0.37019 0.59376 0.0
Zn350 Zn 0.61819 0.50877 0.59813 0.0
O351 O 0.65441 0.60569 0.62301 0.0
O352 O 0.62407 0.61432 0.60794 0.0
O353 O 0.6222 0.38972 0.65676 0.0
O354 O 0.6474 0.47759 0.65636 0.0
O355 O 0.68339 0.44158 0.62549 0.0
O356 O 0.67809 0.36837 0.59922 0.0
O357 O 0.64518 0.40611 0.56638 0.0
O358 O 0.58617 0.39948 0.62424 0.0
O359 O 0.62431 0.50777 0.56958 0.0
O360 O 0.58825 0.49034 0.60122 0.0
C361 C 0.62994 0.22307 0.60955 0.0
C362 C 0.63939 0.64569 0.61638 0.0
C363 C 0.68992 0.39508 0.61235 0.0
C364 C 0.63467 0.43487 0.66555 0.0
C365 C 0.63531 0.46302 0.55908 0.0
C366 C 0.57769 0.44689 0.6124 0.0
O367 O 0.6403 0.25899 0.5966 0.0
H368 H 0.1873 0.16923 0.15256 0.0
H369 H 0.27813 0.3395 0.08745 0.0
H370 H 0.19215 0.12255 0.09071 0.0
H371 H 0.28424 0.29938 0.1495 0.0
H372 H 0.2442 0.27687 0.08837 0.0
H373 H 0.22129 0.22997 0.15175 0.0
C374 C 0.19567 0.17091 0.13886 0.0
C375 C 0.18699 0.14081 0.12168 0.0
C376 C 0.25299 0.28222 0.10176 0.0
C377 C 0.22554 0.21182 0.12056 0.0
C378 C 0.27218 0.31875 0.1013 0.0
C379 C 0.28396 0.32448 0.11843 0.0
C380 C 0.2455 0.2525 0.11951 0.0
C381 C 0.27566 0.29583 0.13595 0.0
C382 C 0.21501 0.20573 0.1384 0.0
C383 C 0.19842 0.14452 0.1043 0.0
N384 N 0.25692 0.2611 0.13605 0.0
N385 N 0.21708 0.18042 0.10412 0.0
H386 H 0.77153 0.83005 0.08546 0.0
H387 H 0.69898 0.57416 0.15451 0.0
H388 H 0.77243 0.8439 0.14848 0.0
H389 H 0.70679 0.52962 0.09283 0.0
H390 H 0.72559 0.67422 0.15267 0.0
H391 H 0.74553 0.72715 0.08764 0.0
C392 C 0.76586 0.813 0.09973 0.0
C393 C 0.77418 0.84543 0.11683 0.0
C394 C 0.72171 0.64182 0.13958 0.0
C395 C 0.74496 0.72642 0.11942 0.0
C396 C 0.70669 0.58406 0.14068 0.0
C397 C 0.70061 0.54372 0.12379 0.0
C398 C 0.73056 0.66002 0.12142 0.0
C399 C 0.71106 0.55906 0.10624 0.0
C400 C 0.75129 0.7533 0.10097 0.0
C401 C 0.76648 0.82024 0.13493 0.0
N402 N 0.72532 0.61695 0.10544 0.0
N403 N 0.75241 0.76189 0.13576 0.0
H404 H 0.27911 0.62241 0.38984 0.0
H405 H 0.20971 0.9243 0.32995 0.0
H406 H 0.28115 0.6482 0.32707 0.0
H407 H 0.21163 0.91661 0.39299 0.0
H408 H 0.2366 0.82515 0.32874 0.0
H409 H 0.25305 0.72536 0.39133 0.0
C410 C 0.2737 0.64822 0.37633 0.0
C411 C 0.28239 0.62694 0.3583 0.0
C412 C 0.23138 0.84582 0.34286 0.0
C413 C 0.2531 0.74613 0.35997 0.0
C414 C 0.2162 0.90312 0.34355 0.0
C415 C 0.20839 0.92841 0.36159 0.0
C416 C 0.23865 0.81294 0.36034 0.0
C417 C 0.2173 0.89899 0.37877 0.0
C418 C 0.25908 0.70791 0.37723 0.0
C419 C 0.27496 0.66308 0.34129 0.0
N420 N 0.23177 0.84178 0.37773 0.0
N421 N 0.26087 0.7213 0.34257 0.0
H422 H 0.80733 0.33356 0.34582 0.0
H423 H 0.68751 0.27291 0.33457 0.0
H424 H 0.77925 0.1068 0.35228 0.0
H425 H 0.71184 0.47854 0.36287 0.0
H426 H 0.72206 0.21735 0.33374 0.0
H427 H 0.77308 0.39305 0.34537 0.0
C428 C 0.79392 0.29625 0.34701 0.0
C429 C 0.79603 0.21509 0.34902 0.0
C430 C 0.7198 0.27479 0.34001 0.0
C431 C 0.75705 0.28275 0.34828 0.0
C432 C 0.70017 0.30705 0.34033 0.0
C433 C 0.69681 0.38066 0.34881 0.0
C434 C 0.73628 0.31694 0.34786 0.0
C435 C 0.71378 0.42164 0.35623 0.0
C436 C 0.77447 0.33035 0.34687 0.0
C437 C 0.77823 0.16956 0.35074 0.0
N438 N 0.73289 0.38926 0.35552 0.0
N439 N 0.75938 0.20405 0.35014 0.0
H440 H 0.72558 0.53092 0.89004 0.0
H441 H 0.78636 0.83805 0.82441 0.0
H442 H 0.71386 0.55197 0.82821 0.0
H443 H 0.78266 0.84372 0.88733 0.0
H444 H 0.76089 0.73197 0.82407 0.0
H445 H 0.75073 0.63565 0.88772 0.0
C446 C 0.72885 0.55608 0.87584 0.0
C447 C 0.71766 0.53323 0.85932 0.0
C448 C 0.76534 0.75777 0.83789 0.0
C449 C 0.74567 0.65547 0.85665 0.0
C450 C 0.7795 0.81925 0.83806 0.0
C451 C 0.7865 0.84927 0.85594 0.0
C452 C 0.75844 0.72663 0.85573 0.0
C453 C 0.77759 0.82188 0.87326 0.0
C454 C 0.74289 0.61688 0.87456 0.0
C455 C 0.72234 0.56778 0.84125 0.0
N456 N 0.76427 0.76128 0.87274 0.0
N457 N 0.73583 0.6284 0.84042 0.0
H458 H 0.3093 0.19112 0.85779 0.0
H459 H 0.19151 0.28911 0.8718 0.0
H460 H 0.28624 0.42743 0.85634 0.0
H461 H 0.21234 0.06505 0.85059 0.0
H462 H 0.2263 0.33978 0.8681 0.0
H463 H 0.27406 0.14278 0.8567 0.0
C464 C 0.29677 0.23289 0.85719 0.0
C465 C 0.30061 0.31346 0.85738 0.0
C466 C 0.22324 0.2797 0.86415 0.0
C467 C 0.26032 0.25835 0.85623 0.0
C468 C 0.20343 0.25039 0.86642 0.0
C469 C 0.19909 0.17238 0.86167 0.0
C470 C 0.2389 0.23042 0.85737 0.0
C471 C 0.21507 0.12538 0.8545 0.0
C472 C 0.27669 0.20516 0.85645 0.0
C473 C 0.28388 0.36491 0.85629 0.0
N474 N 0.23438 0.15499 0.85274 0.0
N475 N 0.26436 0.33641 0.85602 0.0
H476 H 0.70866 0.33856 0.64521 0.0
H477 H 0.77358 0.04926 0.57792 0.0
H478 H 0.71565 0.35921 0.58274 0.0
H479 H 0.78341 0.05892 0.6402 0.0
H480 H 0.74768 0.15127 0.58086 0.0
H481 H 0.73446 0.23333 0.64518 0.0
C482 C 0.71626 0.32316 0.63164 0.0
C483 C 0.71011 0.35724 0.61393 0.0
C484 C 0.75525 0.13054 0.59398 0.0
C485 C 0.73857 0.23558 0.61366 0.0
C486 C 0.76971 0.07122 0.59232 0.0
C487 C 0.78054 0.04596 0.60883 0.0
C488 C 0.75171 0.16537 0.61226 0.0
C489 C 0.77517 0.0766 0.62717 0.0
C490 C 0.73063 0.2622 0.63157 0.0
C491 C 0.72 0.33419 0.59668 0.0
N492 N 0.76127 0.13596 0.6284 0.0
N493 N 0.7335 0.27401 0.59694 0.0
H494 H 0.19778 0.8071 0.58376 0.0
H495 H 0.28756 0.60277 0.64446 0.0
H496 H 0.20234 0.82896 0.64645 0.0
H497 H 0.29123 0.65293 0.58273 0.0
H498 H 0.25412 0.67018 0.64564 0.0
H499 H 0.23075 0.7395 0.58327 0.0
C500 C 0.20597 0.79864 0.59741 0.0
C501 C 0.19749 0.82373 0.61516 0.0
C502 C 0.26225 0.66578 0.63186 0.0
C503 C 0.23493 0.74465 0.61481 0.0
C504 C 0.2811 0.62647 0.63112 0.0
C505 C 0.29205 0.62252 0.61347 0.0
C506 C 0.25436 0.70005 0.61477 0.0
C507 C 0.28326 0.65504 0.59664 0.0
C508 C 0.22471 0.75974 0.59714 0.0
C509 C 0.20858 0.81115 0.63246 0.0
N510 N 0.26495 0.69254 0.59771 0.0
N511 N 0.22673 0.77147 0.6319 0.0
H512 H 0.11914 0.16348 0.29505 0.0
H513 H 0.09456 0.9483 0.19434 0.0
H514 H 0.1241 0.91369 0.28801 0.0
H515 H 0.11382 0.18889 0.19811 0.0
H516 H 0.09862 0.93669 0.22988 0.0
H517 H 0.11095 0.17524 0.26037 0.0
C518 C 0.11852 0.11109 0.2862 0.0
C519 C 0.12243 0.03751 0.29437 0.0
C520 C 0.10179 -0.00795 0.22288 0.0
C521 C 0.11282 0.05062 0.2548 0.0
C522 C 0.09932 -0.00109 0.20268 0.0
C523 C 0.104 0.06952 0.19334 0.0
C524 C 0.10866 0.0566 0.23369 0.0
C525 C 0.11024 0.13321 0.20476 0.0
C526 C 0.11385 0.1179 0.26643 0.0
C527 C 0.12138 0.97159 0.28223 0.0
N528 N 0.11241 0.12521 0.22436 0.0
N529 N 0.1166 0.97966 0.26301 0.0
H530 H 0.88157 0.96183 0.28541 0.0
H531 H 0.87062 0.10987 0.17621 0.0
H532 H 0.86609 0.2007 0.27159 0.0
H533 H 0.85519 0.87438 0.19322 0.0
H534 H 0.87565 0.14333 0.21058 0.0
H535 H 0.8786 0.92847 0.25083 0.0
C536 C 0.87772 0.00744 0.27507 0.0
C537 C 0.87405 0.08423 0.28132 0.0
C538 C 0.87121 0.08438 0.20674 0.0
C539 C 0.87074 0.04626 0.2419 0.0
C540 C 0.86846 0.06501 0.18717 0.0
C541 C 0.86248 -0.01084 0.18192 0.0
C542 C 0.8683 0.02719 0.22108 0.0
C543 C 0.85972 0.93355 0.1967 0.0
C544 C 0.87591 -0.01186 0.25541 0.0
C545 C 0.86896 0.1408 0.26734 0.0
N546 N 0.86276 0.95362 0.21569 0.0
N547 N 0.86753 0.12072 0.24819 0.0
H548 H 0.82563 0.91407 0.68197 0.0
H549 H 0.89381 0.92379 0.77808 0.0
H550 H 0.88841 -0.00281 0.68161 0.0
H551 H 0.82797 0.95953 0.77931 0.0
H552 H 0.89279 0.92807 0.74228 0.0
H553 H 0.82693 0.90743 0.71771 0.0
C554 C 0.83969 0.9306 0.68942 0.0
C555 C 0.85692 0.95647 0.67891 0.0
C556 C 0.87862 0.93508 0.75046 0.0
C557 C 0.85852 0.94827 0.7195 0.0
C558 C 0.87916 0.93233 0.77081 0.0
C559 C 0.86095 0.94159 0.78159 0.0
C560 C 0.85969 0.94553 0.74094 0.0
C561 C 0.84237 0.95274 0.77151 0.0
C562 C 0.84037 0.92716 0.70974 0.0
C563 C 0.87474 0.9775 0.68923 0.0
N564 N 0.84219 0.95387 0.75169 0.0
N565 N 0.87514 0.97248 0.70902 0.0
H566 H 0.11424 0.15771 0.78044 0.0
H567 H 0.11279 0.81616 0.70244 0.0
H568 H 0.13487 0.92578 0.7954 0.0
H569 H 0.13115 0.05017 0.687 0.0
H570 H 0.11305 0.85462 0.73714 0.0
H571 H 0.11265 0.11811 0.74596 0.0
C572 C 0.11841 0.0986 0.77644 0.0
C573 C 0.12487 0.04506 0.79065 0.0
C574 C 0.11699 0.8972 0.72605 0.0
C575 C 0.1226 -0.00068 0.75167 0.0
C576 C 0.11677 0.8755 0.70637 0.0
C577 C 0.12213 0.93 0.69199 0.0
C578 C 0.12202 0.97423 0.73114 0.0
C579 C 0.12716 0.00623 0.69773 0.0
C580 C 0.11752 0.07618 0.75687 0.0
C581 C 0.13006 0.96902 0.7848 0.0
N582 N 0.12685 0.02634 0.71689 0.0
N583 N 0.12865 0.94809 0.76571 0.0
H584 H 0.59836 0.5714 0.28743 0.0
H585 H 0.6031 0.32729 0.18822 0.0
H586 H 0.60969 0.32314 0.285 0.0
H587 H 0.61464 0.57518 0.1917 0.0
H588 H 0.59671 0.32549 0.22344 0.0
H589 H 0.59528 0.57312 0.25179 0.0
C590 C 0.59994 0.51717 0.27942 0.0
C591 C 0.60463 0.44723 0.28906 0.0
C592 C 0.6005 0.38025 0.21641 0.0
C593 C 0.60106 0.44888 0.24859 0.0
C594 C 0.60415 0.38137 0.19636 0.0
C595 C 0.60973 0.45129 0.18715 0.0
C596 C 0.60227 0.44959 0.22716 0.0
C597 C 0.61072 0.51979 0.19833 0.0
C598 C 0.59824 0.51827 0.25914 0.0
C599 C 0.60642 0.37854 0.27805 0.0
N600 N 0.60711 0.51717 0.21782 0.0
N601 N 0.60475 0.38115 0.25833 0.0
H602 H 0.37541 0.36805 0.29203 0.0
H603 H 0.37914 0.53946 0.18436 0.0
H604 H 0.36093 0.60866 0.27922 0.0
H605 H 0.36066 0.30206 0.19617 0.0
H606 H 0.38055 0.56428 0.21952 0.0
H607 H 0.37807 0.34207 0.25693 0.0
C608 C 0.37301 0.41555 0.28183 0.0
C609 C 0.36785 0.49057 0.28844 0.0
C610 C 0.37628 0.50676 0.21436 0.0
C611 C 0.37103 0.46127 0.24857 0.0
C612 C 0.37557 0.49236 0.19436 0.0
C613 C 0.36968 0.41865 0.18742 0.0
C614 C 0.37143 0.44667 0.22743 0.0
C615 C 0.36512 0.35983 0.20098 0.0
C616 C 0.37441 0.40052 0.26188 0.0
C617 C 0.36478 0.54992 0.27466 0.0
N618 N 0.36615 0.37506 0.22043 0.0
N619 N 0.36648 0.53404 0.2553 0.0
H620 H 0.40538 0.41012 0.78209 0.0
H621 H 0.33625 0.51449 0.69042 0.0
H622 H 0.34074 0.46622 0.78731 0.0
H623 H 0.40161 0.56075 0.6917 0.0
H624 H 0.33745 0.48254 0.7252 0.0
H625 H 0.40418 0.44888 0.74766 0.0
C626 C 0.39092 0.42996 0.77595 0.0
C627 C 0.37312 0.43499 0.78749 0.0
C628 C 0.35148 0.50032 0.71788 0.0
C629 C 0.3717 0.47924 0.74839 0.0
C630 C 0.35082 0.51842 0.69808 0.0
C631 C 0.36887 0.54009 0.68826 0.0
C632 C 0.37038 0.50254 0.72776 0.0
C633 C 0.38734 0.54461 0.69882 0.0
C634 C 0.39031 0.45269 0.75641 0.0
C635 C 0.35482 0.46173 0.7789 0.0
N636 N 0.38768 0.52503 0.71803 0.0
N637 N 0.35455 0.48254 0.75979 0.0
H638 H 0.63052 0.57637 0.78606 0.0
H639 H 0.62416 0.31813 0.69065 0.0
H640 H 0.64748 0.33269 0.78678 0.0
H641 H 0.64494 0.55728 0.68884 0.0
H642 H 0.62516 0.32304 0.72649 0.0
H643 H 0.6283 0.57078 0.75035 0.0
C644 C 0.63369 0.52171 0.77867 0.0
C645 C 0.63926 0.4549 0.78923 0.0
C646 C 0.62946 0.37424 0.71815 0.0
C647 C 0.63645 0.44809 0.74879 0.0
C648 C 0.62879 0.37169 0.69783 0.0
C649 C 0.63455 0.43737 0.68693 0.0
C650 C 0.63545 0.44343 0.72746 0.0
C651 C 0.64054 0.50531 0.6968 0.0
C652 C 0.6325 0.51872 0.7584 0.0
C653 C 0.64329 0.38553 0.77907 0.0
N654 N 0.6407 0.50683 0.7166 0.0
N655 N 0.64165 0.38367 0.75931 0.0
H656 H 0.11723 0.97028 0.94205 0.0
H657 H 0.10526 0.20948 0.03974 0.0
H658 H 0.12964 0.21758 0.94401 0.0
H659 H 0.12826 0.97303 0.04003 0.0
H660 H 0.10884 0.21199 0.00408 0.0
H661 H 0.11618 0.96811 0.97784 0.0
C662 C 0.11977 0.02401 0.95004 0.0
C663 C 0.12351 0.09426 0.94016 0.0
C664 C 0.11316 0.1598 0.01202 0.0
C665 C 0.12201 0.09224 0.98081 0.0
C666 C 0.11099 0.15809 0.03228 0.0
C667 C 0.11646 0.09088 0.04275 0.0
C668 C 0.12038 0.09329 0.00224 0.0
C669 C 0.12396 0.02604 0.03245 0.0
C670 C 0.11926 0.02261 0.97038 0.0
C671 C 0.12681 0.16222 0.95114 0.0
N672 N 0.12551 0.02853 0.01267 0.0
N673 N 0.12573 0.15976 0.97095 0.0
H674 H 0.86134 0.06501 0.93578 0.0
H675 H 0.85986 0.81286 0.03273 0.0
H676 H 0.85571 0.814 0.93542 0.0
H677 H 0.83393 0.04483 0.03133 0.0
H678 H 0.8638 0.81703 -0.00273 0.0
H679 H 0.85683 0.06378 0.97147 0.0
C680 C 0.8593 0.00979 0.94323 0.0
C681 C 0.85886 0.9395 0.93273 0.0
C682 C 0.85716 0.86684 0.00472 0.0
C683 C 0.85386 0.9378 0.97315 0.0
C684 C 0.85495 0.8646 0.02492 0.0
C685 C 0.84652 0.92857 0.03488 0.0
C686 C 0.85127 0.93406 -0.00552 0.0
C687 C 0.84035 -0.00587 0.02409 0.0
C688 C 0.85658 0.00923 0.96347 0.0
C689 C 0.85604 0.8695 0.94298 0.0
N690 N 0.84303 -0.00442 0.00439 0.0
N691 N 0.85377 0.87038 0.96266 0.0
H692 H 0.09974 0.01818 0.44414 0.0
H693 H 0.15155 0.86147 0.54036 0.0
H694 H 0.16562 -0.01073 0.44826 0.0
H695 H 0.09617 0.00115 0.54184 0.0
H696 H 0.15593 0.89499 0.50582 0.0
H697 H 0.09706 0.00154 0.47951 0.0
C698 C 0.11366 0.00899 0.45258 0.0
C699 C 0.13293 0.00474 0.44339 0.0
C700 C 0.14291 0.9185 0.51378 0.0
C701 C 0.12992 -0.0157 0.48362 0.0
C702 C 0.14027 0.89883 0.53339 0.0
C703 C 0.12339 0.92828 0.54388 0.0
C704 C 0.12836 0.96659 0.50461 0.0
C705 C 0.10937 0.97719 0.53424 0.0
C706 C 0.11212 -0.00025 0.4727 0.0
C707 C 0.15052 -0.00684 0.45489 0.0
N708 N 0.11206 -0.00574 0.51505 0.0
N709 N 0.14857 -0.01796 0.47448 0.0
H710 H 0.82421 -0.00162 0.52554 0.0
H711 H 0.89347 0.10776 0.43494 0.0
H712 H 0.88961 0.95304 0.52476 0.0
H713 H 0.8294 0.04557 0.42828 0.0
H714 H 0.89205 0.06466 0.46897 0.0
H715 H 0.82541 0.0259 0.49051 0.0
C716 C 0.83878 -0.00664 0.5179 0.0
C717 C 0.85687 0.97378 0.52796 0.0
C718 C 0.87835 0.06034 0.46001 0.0
C719 C 0.85839 0.00667 0.48817 0.0
C720 C 0.87906 0.0857 0.44069 0.0
C721 C 0.86148 0.08052 0.42884 0.0
C722 C 0.85985 0.03095 0.46758 0.0
C723 C 0.84329 0.05057 0.43695 0.0
C724 C 0.83943 0.00896 0.49796 0.0
C725 C 0.87533 0.96771 0.51745 0.0
N726 N 0.84289 0.02737 0.45591 0.0
N727 N 0.87569 -0.01463 0.4981 0.0
H728 H 0.66924 0.42003 0.04069 0.0
H729 H 0.61201 0.36576 0.93896 0.0
H730 H 0.60323 0.4383 0.03431 0.0
H731 H 0.67201 0.47316 0.94328 0.0
H732 H 0.61071 0.35707 0.97462 0.0
H733 H 0.67233 0.40563 0.00512 0.0
C734 C 0.65543 0.4204 0.0318 0.0
C735 C 0.63597 0.43114 0.04027 0.0
C736 C 0.6242 0.38191 0.96768 0.0
C737 C 0.63939 0.41348 9e-05 0.0
C738 C 0.625 0.38666 0.94741 0.0
C739 C 0.64205 0.42106 0.93829 0.0
C740 C 0.64069 0.41057 0.97874 0.0
C741 C 0.65848 0.44721 0.94985 0.0
C742 C 0.65722 0.41238 0.01163 0.0
C743 C 0.61852 0.43119 0.02824 0.0
N744 N 0.6574 0.4415 0.96959 0.0
N745 N 0.62064 0.42231 0.00867 0.0
H746 H 0.36064 0.25907 0.93735 0.0
H747 H 0.34665 0.50214 0.03523 0.0
H748 H 0.37524 0.50464 0.9401 0.0
H749 H 0.36629 0.26143 0.0348 0.0
H750 H 0.34903 0.50395 -0.00064 0.0
H751 H 0.35466 0.25944 0.97261 0.0
C752 C 0.36251 0.31311 0.94538 0.0
C753 C 0.36858 0.38185 0.9359 0.0
C754 C 0.35268 0.45084 0.00722 0.0
C755 C 0.36148 0.38268 0.97598 0.0
C756 C 0.35121 0.44958 0.02755 0.0
C757 C 0.3564 0.38163 0.03784 0.0
C758 C 0.35892 0.38321 -0.00271 0.0
C759 C 0.36234 0.31511 0.02734 0.0
C760 C 0.35913 0.31316 0.96544 0.0
C761 C 0.37078 0.45029 0.94695 0.0
N762 N 0.36337 0.31746 0.00758 0.0
N763 N 0.36714 0.44912 0.9665 0.0
H764 H 0.59729 0.47185 0.44083 0.0
H765 H 0.66534 0.4161 0.53382 0.0
H766 H 0.66364 0.47399 0.43652 0.0
H767 H 0.60722 0.53855 0.53634 0.0
H768 H 0.66493 0.42808 0.49818 0.0
H769 H 0.60013 0.48681 0.47621 0.0
C770 C 0.61245 0.47553 0.44738 0.0
C771 C 0.63028 0.47097 0.4359 0.0
C772 C 0.65244 0.45317 0.50661 0.0
C773 C 0.63359 0.48766 0.47613 0.0
C774 C 0.65258 0.44591 0.52686 0.0
C775 C 0.63616 0.47566 0.53791 0.0
C776 C 0.63557 0.4888 0.49747 0.0
C777 C 0.62012 0.51459 0.52829 0.0
C778 C 0.61405 0.48477 0.46748 0.0
C779 C 0.64956 0.4771 0.44497 0.0
N780 N 0.62005 0.51896 0.50851 0.0
N781 N 0.65074 0.48399 0.4647 0.0
H782 H 0.33578 0.59724 0.53759 0.0
H783 H 0.39057 0.53867 0.43655 0.0
H784 H 0.39528 0.48546 0.5339 0.0
H785 H 0.32461 0.51515 0.44188 0.0
H786 H 0.39349 0.53526 0.47219 0.0
H787 H 0.33208 0.58428 0.50214 0.0
C788 C 0.34807 0.57015 0.52928 0.0
C789 C 0.36592 0.54274 0.53855 0.0
C790 C 0.37842 0.53023 0.46551 0.0
C791 C 0.36182 0.52837 0.49828 0.0
C792 C 0.37672 0.53269 0.44527 0.0
C793 C 0.3573 0.52761 0.4364 0.0
C794 C 0.36055 0.52455 0.47688 0.0
C795 C 0.33984 0.51916 0.44825 0.0
C796 C 0.34586 0.56223 0.50916 0.0
C797 C 0.3813 0.5073 0.52723 0.0
N798 N 0.34184 0.51899 0.468 0.0
N799 N 0.37901 0.50196 0.50756 0.0
H800 H 0.93331 0.84633 0.10124 0.0
H801 H 0.02532 0.15425 0.09395 0.0
H802 H 0.92383 0.09528 0.09765 0.0
H803 H 0.03212 0.92651 0.1202 0.0
H804 H 0.98875 0.1269 0.08863 0.0
H805 H 0.97065 0.86855 0.10128 0.0
C806 C 0.93909 0.90545 0.1002 0.0
C807 C 0.92555 0.96914 0.09966 0.0
C808 C -0.00168 0.08298 0.0955 0.0
C809 C 0.96792 -0.00526 0.09961 0.0
C810 C 0.01915 0.09849 0.09853 0.0
C811 C 0.0317 0.04289 0.10772 0.0
C812 C 0.99012 0.01103 0.10144 0.0
C813 C 0.02293 0.97142 0.1133 0.0
C814 C 0.96033 0.91808 0.10033 0.0
C815 C 0.93378 0.04463 0.09835 0.0
N816 N 0.00265 0.95748 0.11005 0.0
N817 N 0.95446 0.05538 0.0984 0.0
H818 H 0.95291 0.09442 0.33122 0.0
H819 H 0.04875 -0.00618 0.3971 0.0
H820 H 0.95002 0.125 0.39381 0.0
H821 H 0.05547 0.1 0.34022 0.0
H822 H 0.01151 0.01983 0.39564 0.0
H823 H 0.99015 0.07585 0.33365 0.0
C824 C 0.9602 0.09766 0.34546 0.0
C825 C 0.94856 0.11138 0.36235 0.0
C826 C 0.02126 0.03741 0.38356 0.0
C827 C 0.99079 0.08859 0.36524 0.0
C828 C 0.04235 0.02203 0.38429 0.0
C829 C 0.05505 0.04485 0.36874 0.0
C830 C 0.01298 0.07398 0.36698 0.0
C831 C 0.04615 0.08182 0.35253 0.0
C832 C 0.98136 0.0872 0.34681 0.0
C833 C 0.95861 0.11514 0.38046 0.0
N834 N 0.02559 0.0947 0.35199 0.0
N835 N 0.97925 0.10273 0.38149 0.0
H836 H 0.04186 0.05372 0.89365 0.0
H837 H 0.9454 0.94387 0.8287 0.0
H838 H 0.04177 0.08927 0.83116 0.0
H839 H 0.93945 0.02121 0.88855 0.0
H840 H 0.98202 0.97881 0.8296 0.0
H841 H 0.00503 0.0255 0.89236 0.0
C842 C 0.03402 0.05609 0.87968 0.0
C843 C 0.04476 0.07379 0.86248 0.0
C844 C 0.97261 -0.01191 0.84248 0.0
C845 C 0.00291 0.04027 0.86088 0.0
C846 C 0.95184 0.96756 0.84205 0.0
C847 C 0.93947 0.97971 0.85858 0.0
C848 C 0.981 0.01942 0.85967 0.0
C849 C 0.94847 0.01122 0.87546 0.0
C850 C 0.01305 0.04011 0.87897 0.0
C851 C 0.03394 0.07632 0.84475 0.0
N852 N 0.96876 0.0296 0.87561 0.0
N853 N 0.01355 0.05872 0.84436 0.0
H854 H 0.93659 0.97663 0.63792 0.0
H855 H 0.04162 0.89326 0.58476 0.0
H856 H 0.9386 0.88036 0.57958 0.0
H857 H 0.03573 0.86535 0.64722 0.0
H858 H 0.00415 0.90123 0.58211 0.0
H859 H 0.97351 0.95045 0.64132 0.0
C860 C 0.94482 0.95029 0.62581 0.0
C861 C 0.93462 0.93102 0.60839 0.0
C862 C 0.01106 0.89254 0.59636 0.0
C863 C 0.9766 0.9013 0.61221 0.0
C864 C 0.03237 0.88828 0.5979 0.0
C865 C 0.04165 0.87896 0.61625 0.0
C866 C -0.00099 0.88937 0.61334 0.0
C867 C 0.02907 0.87233 0.63281 0.0
C868 C 0.96578 0.93474 0.62785 0.0
C869 C 0.94592 0.89614 0.59325 0.0
N870 N 0.00829 0.87891 0.63102 0.0
N871 N 0.96641 0.88313 0.59542 0.0
H872 H 0.44264 0.36013 0.07651 0.0
H873 H 0.54476 0.40483 0.13736 0.0
H874 H 0.44285 0.45094 0.13541 0.0
H875 H 0.54444 0.469 0.07633 0.0
H876 H 0.50729 0.39374 0.13648 0.0
H877 H 0.48043 0.37323 0.07565 0.0
C878 C 0.45065 0.38247 0.08923 0.0
C879 C 0.43974 0.40461 0.10605 0.0
C880 C 0.51545 0.41032 0.12331 0.0
C881 C 0.48241 0.41842 0.10523 0.0
C882 C 0.53676 0.4164 0.12376 0.0
C883 C 0.54758 0.43812 0.1069 0.0
C884 C 0.50495 0.42433 0.10577 0.0
C885 C 0.53653 0.45274 0.08966 0.0
C886 C 0.47205 0.39037 0.08867 0.0
C887 C 0.45071 0.43366 0.12212 0.0
N888 N 0.51569 0.44486 0.08946 0.0
N889 N 0.47149 0.43899 0.12139 0.0
H890 H 0.43439 0.37825 0.3671 0.0
H891 H 0.542 0.59183 0.36294 0.0
H892 H 0.44047 0.62794 0.37342 0.0
H893 H 0.53647 0.35125 0.38091 0.0
H894 H 0.50466 0.60492 0.36451 0.0
H895 H 0.47176 0.3654 0.36991 0.0
C896 C 0.44359 0.43035 0.36909 0.0
C897 C 0.43437 0.50438 0.36989 0.0
C898 C 0.51162 0.54945 0.36826 0.0
C899 C 0.47697 0.48994 0.37304 0.0
C900 C 0.5329 0.54175 0.36726 0.0
C901 C 0.54226 0.47013 0.37167 0.0
C902 C 0.4996 0.48472 0.37337 0.0
C903 C 0.5298 0.40743 0.37739 0.0
C904 C 0.46486 0.42285 0.37082 0.0
C905 C 0.44697 0.56982 0.37269 0.0
N906 N 0.509 0.4159 0.37786 0.0
N907 N 0.46769 0.56112 0.37397 0.0
H908 H 0.45874 0.39672 0.83099 0.0
H909 H 0.56102 0.40068 0.89331 0.0
H910 H 0.45765 0.42516 0.89372 0.0
H911 H 0.55874 0.49653 0.83497 0.0
H912 H 0.52344 0.39018 0.89315 0.0
H913 H 0.49618 0.41308 0.83149 0.0
C914 C 0.4664 0.40592 0.84486 0.0
C915 C 0.45517 0.40951 0.86236 0.0
C916 C 0.53121 0.41387 0.88046 0.0
C917 C 0.49773 0.42776 0.86299 0.0
C918 C 0.55258 0.41959 0.88049 0.0
C919 C 0.56289 0.44942 0.8641 0.0
C920 C 0.52021 0.43654 0.86377 0.0
C921 C 0.5513 0.47353 0.84791 0.0
C922 C 0.48768 0.41583 0.8451 0.0
C923 C 0.46579 0.42225 0.87992 0.0
N924 N 0.5305 0.46577 0.84806 0.0
N925 N 0.48657 0.43033 0.87982 0.0
H926 H 0.45312 0.56369 0.64383 0.0
H927 H 0.55391 0.48907 0.58152 0.0
H928 H 0.45076 0.50538 0.58245 0.0
H929 H 0.55054 0.42582 0.64252 0.0
H930 H 0.51687 0.51466 0.58169 0.0
H931 H 0.49016 0.53485 0.64378 0.0
C932 C 0.46045 0.54571 0.63032 0.0
C933 C 0.44896 0.53687 0.6131 0.0
C934 C 0.52424 0.49466 0.59498 0.0
C935 C 0.49097 0.5041 0.61299 0.0
C936 C 0.54531 0.48014 0.59491 0.0
C937 C 0.55518 0.45521 0.61203 0.0
C938 C 0.5131 0.48586 0.6124 0.0
C939 C 0.5434 0.44441 0.629 0.0
C940 C 0.48145 0.52858 0.63036 0.0
C941 C 0.45909 0.51265 0.59603 0.0
N942 N 0.52292 0.46074 0.62883 0.0
N943 N 0.47958 0.49748 0.59638 0.0
H944 H 0.12756 0.77437 0.08857 0.0
H945 H 0.10901 0.39061 0.15122 0.0
H946 H 0.10815 0.77909 0.14893 0.0
H947 H 0.10038 0.39553 0.08864 0.0
H948 H 0.11413 0.53161 0.15096 0.0
H949 H 0.1241 0.63152 0.08874 0.0
C950 C 0.12296 0.74509 0.10191 0.0
C951 C 0.11804 0.78781 0.11874 0.0
C952 C 0.11097 0.50185 0.13732 0.0
C953 C 0.11398 0.62662 0.119 0.0
C954 C 0.10799 0.42168 0.13746 0.0
C955 C 0.10419 0.38192 0.11993 0.0
C956 C 0.11049 0.54209 0.11949 0.0
C957 C 0.10307 0.42452 0.10247 0.0
C958 C 0.12076 0.66416 0.10193 0.0
C959 C 0.11194 0.74786 0.13563 0.0
N960 N 0.10642 0.50267 0.10265 0.0
N961 N 0.11007 0.66929 0.13534 0.0
H962 H 0.82556 0.24647 0.0767 0.0
H963 H 0.83848 0.62661 0.14363 0.0
H964 H 0.83718 0.23728 0.1387 0.0
H965 H 0.85228 0.62468 0.08186 0.0
H966 H 0.83078 0.48707 0.1419 0.0
H967 H 0.82718 0.39003 0.07826 0.0
C968 C 0.82782 0.2749 0.09069 0.0
C969 C 0.83119 0.23074 0.10761 0.0
C970 C 0.83551 0.51732 0.12874 0.0
C971 C 0.8333 0.39312 0.10949 0.0
C972 C 0.83999 0.59681 0.12973 0.0
C973 C 0.84627 0.63721 0.11291 0.0
C974 C 0.837 0.47812 0.11077 0.0
C975 C 0.84778 0.59564 0.09525 0.0
C976 C 0.82901 0.35639 0.09154 0.0
C977 C 0.83449 0.26975 0.12536 0.0
N978 N 0.84311 0.51837 0.09461 0.0
N979 N 0.83552 0.34873 0.12584 0.0
H980 H 0.17563 0.31979 0.37021 0.0
H981 H 0.10639 0.69791 0.39082 0.0
H982 H 0.11144 0.31102 0.38625 0.0
H983 H 0.16021 0.7026 0.35371 0.0
H984 H 0.11146 0.55777 0.39551 0.0
H985 H 0.17381 0.4636 0.37081 0.0
C986 C 0.16134 0.34825 0.37426 0.0
C987 C 0.14362 0.3043 0.37807 0.0
C988 C 0.12215 0.58964 0.38636 0.0
C989 C 0.1414 0.46665 0.37878 0.0
C990 C 0.11924 0.66948 0.38364 0.0
C991 C 0.13273 0.71176 0.37165 0.0
C992 C 0.13882 0.55203 0.37724 0.0
C993 C 0.14925 0.67199 0.36283 0.0
C994 C 0.16024 0.42984 0.37443 0.0
C995 C 0.12538 0.3433 0.38307 0.0
N996 N 0.15185 0.59425 0.36582 0.0
N997 N 0.12472 0.42225 0.38325 0.0
H998 H 0.88656 0.43291 0.32689 0.0
H999 H 0.84471 0.81387 0.38062 0.0
H1000 H 0.86874 0.43063 0.3877 0.0
H1001 H 0.88359 0.8183 0.32944 0.0
H1002 H 0.84866 0.67092 0.38185 0.0
H1003 H 0.88168 0.57371 0.32626 0.0
C1004 C 0.88184 0.46237 0.34018 0.0
C1005 C 0.87812 0.42045 0.35739 0.0
C1006 C 0.85621 0.70355 0.37035 0.0
C1007 C 0.8721 0.58115 0.35669 0.0
C1008 C 0.85377 0.78457 0.36952 0.0
C1009 C 0.86391 0.82731 0.35495 0.0
C1010 C 0.86855 0.66599 0.35632 0.0
C1011 C 0.87566 0.78727 0.34099 0.0
C1012 C 0.87899 0.54261 0.33981 0.0
C1013 C 0.87197 0.46125 0.37421 0.0
N1014 N 0.87765 0.70887 0.34202 0.0
N1015 N 0.86894 0.53967 0.3734 0.0
H1016 H 0.84529 0.24173 0.82483 0.0
H1017 H 0.86973 0.62493 0.88706 0.0
H1018 H 0.86047 0.24246 0.88624 0.0
H1019 H 0.87092 0.62475 0.824 0.0
H1020 H 0.86399 0.48486 0.88677 0.0
H1021 H 0.85091 0.38389 0.824 0.0
C1022 C 0.84937 0.27209 0.83817 0.0
C1023 C 0.85244 0.23083 0.85563 0.0
C1024 C 0.86571 0.51498 0.87295 0.0
C1025 C 0.85917 0.39142 0.85474 0.0
C1026 C 0.8691 0.59487 0.87313 0.0
C1027 C 0.87086 0.63604 0.85554 0.0
C1028 C 0.86377 0.47581 0.85502 0.0
C1029 C 0.86986 0.5946 0.83787 0.0
C1030 C 0.85285 0.35268 0.83764 0.0
C1031 C 0.85803 0.27224 0.87247 0.0
N1032 N 0.86614 0.51643 0.83803 0.0
N1033 N 0.86125 0.35009 0.87158 0.0
H1034 H 0.1186 0.40548 0.83054 0.0
H1035 H 0.11133 0.79032 0.89538 0.0
H1036 H 0.10997 0.40317 0.89311 0.0
H1037 H 0.14364 0.78523 0.84022 0.0
H1038 H 0.10619 0.64979 0.89312 0.0
H1039 H 0.12231 0.54822 0.83183 0.0
C1040 C 0.11707 0.43528 0.84444 0.0
C1041 C 0.11403 0.39316 0.86176 0.0
C1042 C 0.11455 0.67927 0.88157 0.0
C1043 C 0.11841 0.55437 0.86335 0.0
C1044 C 0.11754 0.75926 0.88288 0.0
C1045 C 0.12799 0.79895 0.86799 0.0
C1046 C 0.12179 0.63891 0.86511 0.0
C1047 C 0.13569 0.75629 0.85209 0.0
C1048 C 0.11944 0.51618 0.84521 0.0
C1049 C 0.11241 0.43383 0.87946 0.0
N1050 N 0.13226 0.67822 0.85095 0.0
N1051 N 0.11464 0.51227 0.87981 0.0
H1052 H 0.85686 0.66604 0.56992 0.0
H1053 H 0.86678 0.28112 0.63347 0.0
H1054 H 0.83929 0.6595 0.63076 0.0
H1055 H 0.85638 0.27617 0.57114 0.0
H1056 H 0.86184 0.42311 0.63306 0.0
H1057 H 0.86071 0.52431 0.57025 0.0
C1058 C 0.85355 0.63444 0.58327 0.0
C1059 C 0.84771 0.67403 0.60033 0.0
C1060 C 0.86072 0.39067 0.61951 0.0
C1061 C 0.85261 0.51287 0.60095 0.0
C1062 C 0.86379 0.3101 0.61969 0.0
C1063 C 0.86197 0.26727 0.60231 0.0
C1064 C 0.85618 0.42816 0.60178 0.0
C1065 C 0.85783 0.30722 0.58486 0.0
C1066 C 0.8558 0.55381 0.58347 0.0
C1067 C 0.84364 0.63074 0.61727 0.0
N1068 N 0.85512 0.38559 0.58503 0.0
N1069 N 0.84644 0.55218 0.61724 0.0
H1070 H 0.08975 0.18699 0.627 0.0
H1071 H 0.14488 0.5805 0.60089 0.0
H1072 H 0.15542 0.19778 0.61732 0.0
H1073 H 0.09227 0.57582 0.63956 0.0
H1074 H 0.14723 0.43872 0.60315 0.0
H1075 H 0.08865 0.32934 0.62846 0.0
C1076 C 0.10394 0.21949 0.62522 0.0
C1077 C 0.1227 0.18117 0.62187 0.0
C1078 C 0.13525 0.4689 0.61119 0.0
C1079 C 0.12146 0.34283 0.62337 0.0
C1080 C 0.13375 0.54949 0.60977 0.0
C1081 C 0.11824 0.58946 0.61996 0.0
C1082 C 0.12092 0.4282 0.62257 0.0
C1083 C 0.10441 0.54684 0.63147 0.0
C1084 C 0.1033 0.30037 0.62619 0.0
C1085 C 0.14067 0.22551 0.6199 0.0
N1086 N 0.10594 0.46797 0.63232 0.0
N1087 N 0.13958 0.3045 0.62041 0.0
H1088 H 0.59924 0.77111 0.08888 0.0
H1089 H 0.6669 0.14767 0.11348 0.0
H1090 H 0.65373 0.7614 0.12499 0.0
H1091 H 0.60114 0.15519 0.10428 0.0
H1092 H 0.66573 0.00471 0.10998 0.0
H1093 H 0.60333 0.9132 0.08659 0.0
C1094 C 0.61209 0.79885 0.0962 0.0
C1095 C 0.62595 0.75507 0.10741 0.0
C1096 C 0.65164 0.03818 0.10863 0.0
C1097 C 0.63091 0.91588 0.10457 0.0
C1098 C 0.65231 0.11927 0.11059 0.0
C1099 C 0.63405 0.16261 0.10948 0.0
C1100 C 0.63268 0.00131 0.1051 0.0
C1101 C 0.61552 0.12353 0.1056 0.0
C1102 C 0.61441 0.87955 0.09491 0.0
C1103 C 0.64246 0.79347 0.11652 0.0
N1104 N 0.6153 0.04501 0.10354 0.0
N1105 N 0.64449 0.87188 0.11491 0.0
H1106 H 0.34036 0.69385 0.08283 0.0
H1107 H 0.35892 0.07591 0.14653 0.0
H1108 H 0.36282 0.68792 0.14219 0.0
H1109 H 0.36632 0.07421 0.08377 0.0
H1110 H 0.35335 0.93503 0.14578 0.0
H1111 H 0.34209 0.83733 0.08368 0.0
C1112 C 0.34527 0.72295 0.0961 0.0
C1113 C 0.3516 0.67992 0.11242 0.0
C1114 C 0.35626 0.96563 0.1322 0.0
C1115 C 0.35358 0.84155 0.11349 0.0
C1116 C 0.35949 0.0457 0.13262 0.0
C1117 C 0.36324 0.08626 0.1152 0.0
C1118 C 0.35645 0.92634 0.11422 0.0
C1119 C 0.36374 0.04465 0.09754 0.0
C1120 C 0.34644 0.80422 0.09651 0.0
C1121 C 0.35801 0.71953 0.12926 0.0
N1122 N 0.36024 0.96663 0.09747 0.0
N1123 N 0.35885 0.79835 0.12937 0.0
H1124 H 0.65004 0.14374 0.3534 0.0
H1125 H 0.59363 0.74754 0.36914 0.0
H1126 H 0.59363 0.13059 0.38669 0.0
H1127 H 0.66001 0.75672 0.36604 0.0
H1128 H 0.5927 0.88853 0.37347 0.0
H1129 H 0.65368 0.00234 0.35589 0.0
C1130 C 0.63843 0.1109 0.36127 0.0
C1131 C 0.62132 0.14824 0.36962 0.0
C1132 C 0.60747 0.85963 0.37202 0.0
C1133 C 0.62541 -0.01264 0.37242 0.0
C1134 C 0.60803 0.77945 0.36933 0.0
C1135 C 0.62694 0.74099 0.36695 0.0
C1136 C 0.62591 0.90178 0.3719 0.0
C1137 C 0.64514 0.78463 0.3677 0.0
C1138 C 0.64065 0.03055 0.36283 0.0
C1139 C 0.60694 0.10358 0.37996 0.0
N1140 N 0.64418 0.86338 0.36981 0.0
N1141 N 0.60913 0.02488 0.3808 0.0
H1142 H 0.34991 0.8426 0.32872 0.0
H1143 H 0.33393 0.22469 0.39414 0.0
H1144 H 0.35999 0.8442 0.39113 0.0
H1145 H 0.34847 0.23023 0.33265 0.0
H1146 H 0.33577 0.08106 0.3932 0.0
H1147 H 0.34257 -0.0178 0.32995 0.0
C1148 C 0.35069 0.8724 0.34267 0.0
C1149 C 0.35577 0.83188 0.35982 0.0
C1150 C 0.33824 0.11396 0.37989 0.0
C1151 C 0.34697 -0.00874 0.36136 0.0
C1152 C 0.33694 0.19546 0.38038 0.0
C1153 C 0.34106 0.23858 0.36344 0.0
C1154 C 0.34339 0.0763 0.36228 0.0
C1155 C 0.34525 0.19861 0.34601 0.0
C1156 C 0.34642 0.95197 0.34336 0.0
C1157 C 0.3564 0.87344 0.37752 0.0
N1158 N 0.34636 0.1197 0.34588 0.0
N1159 N 0.35197 0.951 0.37785 0.0
H1160 H 0.39218 0.69494 0.89063 0.0
H1161 H 0.38292 0.08012 0.82571 0.0
H1162 H 0.3585 0.69995 0.83622 0.0
H1163 H 0.39439 0.0816 0.88783 0.0
H1164 H 0.38004 0.93697 0.82687 0.0
H1165 H 0.39831 0.83461 0.88767 0.0
C1166 C 0.38593 0.72566 0.87811 0.0
C1167 C 0.37471 0.68606 0.86369 0.0
C1168 C 0.38342 0.96887 0.84016 0.0
C1169 C 0.38201 0.84557 0.86005 0.0
C1170 C 0.38533 0.05006 0.83946 0.0
C1171 C 0.38886 0.09205 0.85672 0.0
C1172 C 0.3854 0.93028 0.85819 0.0
C1173 C 0.39157 0.05102 0.87423 0.0
C1174 C 0.3895 0.80527 0.87641 0.0
C1175 C 0.36702 0.72864 0.84776 0.0
N1176 N 0.38973 0.97237 0.87453 0.0
N1177 N 0.37093 0.80635 0.84628 0.0
H1178 H 0.68066 0.14932 0.86236 0.0
H1179 H 0.61176 0.7686 0.85075 0.0
H1180 H 0.61442 0.15406 0.85701 0.0
H1181 H 0.66983 0.76488 0.88155 0.0
H1182 H 0.61471 0.90979 0.84751 0.0
H1183 H 0.6793 0.00575 0.8636 0.0
C1184 C 0.66594 0.12001 0.86122 0.0
C1185 C 0.64762 0.16279 0.85975 0.0
C1186 C 0.62676 0.87802 0.85505 0.0
C1187 C 0.64597 0.00109 0.86105 0.0
C1188 C 0.62507 0.79768 0.85693 0.0
C1189 C 0.6405 0.75548 0.86655 0.0
C1190 C 0.64413 0.91608 0.8626 0.0
C1191 C 0.65748 0.79573 0.87424 0.0
C1192 C 0.66515 0.03869 0.86208 0.0
C1193 C 0.62886 0.12285 0.85838 0.0
N1194 N 0.65893 0.87419 0.872 0.0
N1195 N 0.62852 0.04411 0.85905 0.0
H1196 H 0.40374 0.87216 0.63023 0.0
H1197 H 0.33341 0.25045 0.62032 0.0
H1198 H 0.34346 0.86757 0.60356 0.0
H1199 H 0.39965 0.25963 0.61509 0.0
H1200 H 0.33555 0.10759 0.62235 0.0
H1201 H 0.40114 0.01494 0.63266 0.0
C1202 C 0.39001 0.90123 0.62494 0.0
C1203 C 0.37392 0.85871 0.61645 0.0
C1204 C 0.34956 0.14134 0.62085 0.0
C1205 C 0.37067 0.01973 0.61961 0.0
C1206 C 0.34836 0.22236 0.61974 0.0
C1207 C 0.36635 0.26616 0.61726 0.0
C1208 C 0.36891 0.10488 0.61991 0.0
C1209 C 0.3854 0.2275 0.61666 0.0
C1210 C 0.38853 -0.01783 0.62633 0.0
C1211 C 0.35635 0.89861 0.60991 0.0
N1212 N 0.3862 0.14877 0.61801 0.0
N1213 N 0.35514 0.97709 0.61169 0.0
H1214 H 0.60631 0.73465 0.62458 0.0
H1215 H 0.65877 0.12903 0.59257 0.0
H1216 H 0.67144 0.74846 0.61254 0.0
H1217 H 0.60436 0.12318 0.62893 0.0
H1218 H 0.66236 -0.01199 0.59657 0.0
H1219 H 0.60426 0.87661 0.62392 0.0
C1220 C 0.62023 0.76798 0.62198 0.0
C1221 C 0.63906 0.73053 0.6185 0.0
C1222 C 0.64969 0.01782 0.60368 0.0
C1223 C 0.63675 0.89214 0.61738 0.0
C1224 C 0.64745 0.09796 0.60121 0.0
C1225 C 0.63114 0.13758 0.61035 0.0
C1226 C 0.63534 0.97719 0.61509 0.0
C1227 C 0.61711 0.09475 0.62161 0.0
C1228 C 0.61905 0.84875 0.62165 0.0
C1229 C 0.65668 0.77574 0.61533 0.0
N1230 N 0.61947 0.01657 0.62357 0.0
N1231 N 0.65505 0.85473 0.61454 0.0
loop_
_geom_bond_atom_site_label_1
_geom_bond_atom_site_label_2
_geom_bond_distance
_geom_bond_site_symmetry_2
_ccdc_geom_bond_type
O0 Zn1 1.953 . S
O0 C16 1.225 . S
Zn1 O0 1.953 . S
Zn1 O2 1.949 . S
Zn1 O8 1.919 . S
Zn1 O13 1.924 . S
O2 Zn1 1.949 . S
O2 Zn3 1.923 1_545 S
O2 Zn4 1.950 . S
O2 Zn5 1.945 1_545 S
Zn3 O2 1.923 1_565 S
Zn3 O6 1.933 . S
Zn3 O9 1.941 1_565 S
Zn3 O10 1.965 1_565 S
Zn4 O2 1.950 . S
Zn4 O11 1.938 . S
Zn4 O12 1.906 . S
Zn4 O22 1.953 . S
Zn5 O2 1.945 1_565 S
Zn5 O7 1.932 . S
Zn5 O14 1.977 . S
Zn5 O15 1.910 . S
O6 Zn3 1.933 . S
O6 C17 1.226 . S
O7 Zn5 1.932 . S
O7 C17 1.307 . S
O8 Zn1 1.919 . S
O8 C19 1.253 . S
O9 Zn3 1.941 1_545 S
O9 C19 1.283 . S
O10 Zn3 1.965 1_545 S
O10 C18 1.303 . S
O11 Zn4 1.938 . S
O11 C18 1.247 . S
O12 Zn4 1.906 . S
O12 C20 1.304 . S
O13 Zn1 1.924 . S
O13 C21 1.311 . S
O14 Zn5 1.977 . S
O14 C20 1.272 1_565 S
O15 Zn5 1.910 . S
O15 C21 1.231 1_565 S
C16 O0 1.225 . S
C16 O22 1.298 . S
C17 O6 1.226 . S
C17 O7 1.307 . S
C18 O10 1.303 . S
C18 O11 1.247 . S
C19 O8 1.253 . S
C19 O9 1.283 . S
C20 O12 1.304 . S
C20 O14 1.272 1_545 S
C21 O13 1.311 . S
C21 O15 1.231 1_545 S
O22 Zn4 1.953 . S
O22 C16 1.298 . S
O23 Zn24 1.953 . S
O23 C39 1.225 . S
Zn24 O23 1.953 . S
Zn24 O25 1.949 . S
Zn24 O31 1.919 . S
Zn24 O36 1.924 . S
O25 Zn24 1.949 . S
O25 Zn26 1.923 1_565 S
O25 Zn27 1.950 . S
O25 Zn28 1.945 1_565 S
Zn26 O25 1.923 1_545 S
Zn26 O29 1.933 . S
Zn26 O32 1.941 1_545 S
Zn26 O33 1.965 1_545 S
Zn27 O25 1.950 . S
Zn27 O34 1.938 . S
Zn27 O35 1.906 . S
Zn27 O45 1.953 . S
Zn28 O25 1.945 1_545 S
Zn28 O30 1.932 . S
Zn28 O37 1.977 . S
Zn28 O38 1.910 . S
O29 Zn26 1.933 . S
O29 C40 1.226 . S
O30 Zn28 1.932 . S
O30 C40 1.307 . S
O31 Zn24 1.919 . S
O31 C42 1.253 . S
O32 Zn26 1.941 1_565 S
O32 C42 1.283 . S
O33 Zn26 1.965 1_565 S
O33 C41 1.303 . S
O34 Zn27 1.938 . S
O34 C41 1.247 . S
O35 Zn27 1.906 . S
O35 C43 1.304 . S
O36 Zn24 1.924 . S
O36 C44 1.311 . S
O37 Zn28 1.977 . S
O37 C43 1.272 1_545 S
O38 Zn28 1.910 . S
O38 C44 1.231 1_545 S
C39 O23 1.225 . S
C39 O45 1.298 . S
C40 O29 1.226 . S
C40 O30 1.307 . S
C41 O33 1.303 . S
C41 O34 1.247 . S
C42 O31 1.253 . S
C42 O32 1.283 . S
C43 O35 1.304 . S
C43 O37 1.272 1_565 S
C44 O36 1.311 . S
C44 O38 1.231 1_565 S
O45 Zn27 1.953 . S
O45 C39 1.298 . S
O46 Zn47 1.953 . S
O46 C62 1.225 . S
Zn47 O46 1.953 . S
Zn47 O48 1.949 . S
Zn47 O54 1.919 . S
Zn47 O59 1.924 . S
O48 Zn47 1.949 . S
O48 Zn49 1.923 1_565 S
O48 Zn50 1.950 . S
O48 Zn51 1.945 1_565 S
Zn49 O48 1.923 1_545 S
Zn49 O52 1.933 . S
Zn49 O55 1.941 1_545 S
Zn49 O56 1.965 1_545 S
Zn50 O48 1.950 . S
Zn50 O57 1.938 . S
Zn50 O58 1.906 . S
Zn50 O68 1.953 . S
Zn51 O48 1.945 1_545 S
Zn51 O53 1.932 . S
Zn51 O60 1.977 . S
Zn51 O61 1.910 . S
O52 Zn49 1.933 . S
O52 C63 1.226 . S
O53 Zn51 1.932 . S
O53 C63 1.307 . S
O54 Zn47 1.919 . S
O54 C65 1.253 . S
O55 Zn49 1.941 1_565 S
O55 C65 1.283 . S
O56 Zn49 1.965 1_565 S
O56 C64 1.303 . S
O57 Zn50 1.938 . S
O57 C64 1.247 . S
O58 Zn50 1.906 . S
O58 C66 1.304 . S
O59 Zn47 1.924 . S
O59 C67 1.311 . S
O60 Zn51 1.977 . S
O60 C66 1.272 1_545 S
O61 Zn51 1.910 . S
O61 C67 1.231 1_545 S
C62 O46 1.225 . S
C62 O68 1.298 . S
C63 O52 1.226 . S
C63 O53 1.307 . S
C64 O56 1.303 . S
C64 O57 1.247 . S
C65 O54 1.253 . S
C65 O55 1.283 . S
C66 O58 1.304 . S
C66 O60 1.272 1_565 S
C67 O59 1.311 . S
C67 O61 1.231 1_565 S
O68 Zn50 1.953 . S
O68 C62 1.298 . S
O69 Zn70 1.953 . S
O69 C85 1.225 . S
Zn70 O69 1.953 . S
Zn70 O71 1.949 . S
Zn70 O77 1.919 . S
Zn70 O82 1.924 . S
O71 Zn70 1.949 . S
O71 Zn72 1.923 1_545 S
O71 Zn73 1.950 . S
O71 Zn74 1.945 1_545 S
Zn72 O71 1.923 1_565 S
Zn72 O75 1.933 . S
Zn72 O78 1.941 1_565 S
Zn72 O79 1.965 1_565 S
Zn73 O71 1.950 . S
Zn73 O80 1.938 . S
Zn73 O81 1.906 . S
Zn73 O91 1.953 . S
Zn74 O71 1.945 1_565 S
Zn74 O76 1.932 . S
Zn74 O83 1.977 . S
Zn74 O84 1.910 . S
O75 Zn72 1.933 . S
O75 C86 1.226 . S
O76 Zn74 1.932 . S
O76 C86 1.307 . S
O77 Zn70 1.919 . S
O77 C88 1.253 . S
O78 Zn72 1.941 1_545 S
O78 C88 1.283 . S
O79 Zn72 1.965 1_545 S
O79 C87 1.303 . S
O80 Zn73 1.938 . S
O80 C87 1.247 . S
O81 Zn73 1.906 . S
O81 C89 1.304 . S
O82 Zn70 1.924 . S
O82 C90 1.311 . S
O83 Zn74 1.977 . S
O83 C89 1.272 1_565 S
O84 Zn74 1.910 . S
O84 C90 1.231 1_565 S
C85 O69 1.225 . S
C85 O91 1.298 . S
C86 O75 1.226 . S
C86 O76 1.307 . S
C87 O79 1.303 . S
C87 O80 1.247 . S
C88 O77 1.253 . S
C88 O78 1.283 . S
C89 O81 1.304 . S
C89 O83 1.272 1_545 S
C90 O82 1.311 . S
C90 O84 1.231 1_545 S
O91 Zn73 1.953 . S
O91 C85 1.298 . S
O92 Zn93 1.953 . S
O92 C108 1.225 . S
Zn93 O92 1.953 . S
Zn93 O94 1.949 . S
Zn93 O100 1.919 . S
Zn93 O105 1.924 . S
O94 Zn93 1.949 . S
O94 Zn95 1.923 1_565 S
O94 Zn96 1.950 . S
O94 Zn97 1.945 1_565 S
Zn95 O94 1.923 1_545 S
Zn95 O98 1.933 . S
Zn95 O101 1.941 1_545 S
Zn95 O102 1.965 1_545 S
Zn96 O94 1.950 . S
Zn96 O103 1.938 . S
Zn96 O104 1.906 . S
Zn96 O114 1.953 . S
Zn97 O94 1.945 1_545 S
Zn97 O99 1.932 . S
Zn97 O106 1.977 . S
Zn97 O107 1.910 . S
O98 Zn95 1.933 . S
O98 C109 1.226 . S
O99 Zn97 1.932 . S
O99 C109 1.307 . S
O100 Zn93 1.919 . S
O100 C111 1.253 . S
O101 Zn95 1.941 1_565 S
O101 C111 1.283 . S
O102 Zn95 1.965 1_565 S
O102 C110 1.303 . S
O103 Zn96 1.938 . S
O103 C110 1.247 . S
O104 Zn96 1.906 . S
O104 C112 1.304 . S
O105 Zn93 1.924 . S
O105 C113 1.311 . S
O106 Zn97 1.977 . S
O106 C112 1.272 1_545 S
O107 Zn97 1.910 . S
O107 C113 1.231 1_545 S
C108 O92 1.225 . S
C108 O114 1.298 . S
C109 O98 1.226 . S
C109 O99 1.307 . S
C110 O102 1.303 . S
C110 O103 1.247 . S
C111 O100 1.253 . S
C111 O101 1.283 . S
C112 O104 1.304 . S
C112 O106 1.272 1_565 S
C113 O105 1.311 . S
C113 O107 1.231 1_565 S
O114 Zn96 1.953 . S
O114 C108 1.298 . S
O115 Zn116 1.953 . S
O115 C131 1.225 . S
Zn116 O115 1.953 . S
Zn116 O117 1.949 . S
Zn116 O123 1.919 . S
Zn116 O128 1.924 . S
O117 Zn116 1.949 . S
O117 Zn118 1.923 1_545 S
O117 Zn119 1.950 . S
O117 Zn120 1.945 1_545 S
Zn118 O117 1.923 1_565 S
Zn118 O121 1.933 . S
Zn118 O124 1.941 1_565 S
Zn118 O125 1.965 1_565 S
Zn119 O117 1.950 . S
Zn119 O126 1.938 . S
Zn119 O127 1.906 . S
Zn119 O137 1.953 . S
Zn120 O117 1.945 1_565 S
Zn120 O122 1.932 . S
Zn120 O129 1.977 . S
Zn120 O130 1.910 . S
O121 Zn118 1.933 . S
O121 C132 1.226 . S
O122 Zn120 1.932 . S
O122 C132 1.307 . S
O123 Zn116 1.919 . S
O123 C134 1.253 . S
O124 Zn118 1.941 1_545 S
O124 C134 1.283 . S
O125 Zn118 1.965 1_545 S
O125 C133 1.303 . S
O126 Zn119 1.938 . S
O126 C133 1.247 . S
O127 Zn119 1.906 . S
O127 C135 1.304 . S
O128 Zn116 1.924 . S
O128 C136 1.311 . S
O129 Zn120 1.977 . S
O129 C135 1.272 1_565 S
O130 Zn120 1.910 . S
O130 C136 1.231 1_565 S
C131 O115 1.225 . S
C131 O137 1.298 . S
C132 O121 1.226 . S
C132 O122 1.307 . S
C133 O125 1.303 . S
C133 O126 1.247 . S
C134 O123 1.253 . S
C134 O124 1.283 . S
C135 O127 1.304 . S
C135 O129 1.272 1_545 S
C136 O128 1.311 . S
C136 O130 1.231 1_545 S
O137 Zn119 1.953 . S
O137 C131 1.298 . S
O138 Zn139 1.953 . S
O138 C154 1.225 . S
Zn139 O138 1.953 . S
Zn139 O140 1.949 . S
Zn139 O146 1.919 . S
Zn139 O151 1.924 . S
O140 Zn139 1.949 . S
O140 Zn141 1.923 1_545 S
O140 Zn142 1.950 . S
O140 Zn143 1.945 1_545 S
Zn141 O140 1.923 1_565 S
Zn141 O144 1.933 . S
Zn141 O147 1.941 1_565 S
Zn141 O148 1.965 1_565 S
Zn142 O140 1.950 . S
Zn142 O149 1.938 . S
Zn142 O150 1.906 . S
Zn142 O160 1.953 . S
Zn143 O140 1.945 1_565 S
Zn143 O145 1.932 . S
Zn143 O152 1.977 . S
Zn143 O153 1.910 . S
O144 Zn141 1.933 . S
O144 C155 1.226 . S
O145 Zn143 1.932 . S
O145 C155 1.307 . S
O146 Zn139 1.919 . S
O146 C157 1.253 . S
O147 Zn141 1.941 1_545 S
O147 C157 1.283 . S
O148 Zn141 1.965 1_545 S
O148 C156 1.303 . S
O149 Zn142 1.938 . S
O149 C156 1.247 . S
O150 Zn142 1.906 . S
O150 C158 1.304 . S
O151 Zn139 1.924 . S
O151 C159 1.311 . S
O152 Zn143 1.977 . S
O152 C158 1.272 1_565 S
O153 Zn143 1.910 . S
O153 C159 1.231 1_565 S
C154 O138 1.225 . S
C154 O160 1.298 . S
C155 O144 1.226 . S
C155 O145 1.307 . S
C156 O148 1.303 . S
C156 O149 1.247 . S
C157 O146 1.253 . S
C157 O147 1.283 . S
C158 O150 1.304 . S
C158 O152 1.272 1_545 S
C159 O151 1.311 . S
C159 O153 1.231 1_545 S
O160 Zn142 1.953 . S
O160 C154 1.298 . S
O161 Zn162 1.953 . S
O161 C177 1.225 . S
Zn162 O161 1.953 . S
Zn162 O163 1.949 . S
Zn162 O169 1.919 . S
Zn162 O174 1.924 . S
O163 Zn162 1.949 . S
O163 Zn164 1.923 1_565 S
O163 Zn165 1.950 . S
O163 Zn166 1.945 1_565 S
Zn164 O163 1.923 1_545 S
Zn164 O167 1.933 . S
Zn164 O170 1.941 1_545 S
Zn164 O171 1.965 1_545 S
Zn165 O163 1.950 . S
Zn165 O172 1.938 . S
Zn165 O173 1.906 . S
Zn165 O183 1.953 . S
Zn166 O163 1.945 1_545 S
Zn166 O168 1.932 . S
Zn166 O175 1.977 . S
Zn166 O176 1.910 . S
O167 Zn164 1.933 . S
O167 C178 1.226 . S
O168 Zn166 1.932 . S
O168 C178 1.307 . S
O169 Zn162 1.919 . S
O169 C180 1.253 . S
O170 Zn164 1.941 1_565 S
O170 C180 1.283 . S
O171 Zn164 1.965 1_565 S
O171 C179 1.303 . S
O172 Zn165 1.938 . S
O172 C179 1.247 . S
O173 Zn165 1.906 . S
O173 C181 1.304 . S
O174 Zn162 1.924 . S
O174 C182 1.311 . S
O175 Zn166 1.977 . S
O175 C181 1.272 1_545 S
O176 Zn166 1.910 . S
O176 C182 1.231 1_545 S
C177 O161 1.225 . S
C177 O183 1.298 . S
C178 O167 1.226 . S
C178 O168 1.307 . S
C179 O171 1.303 . S
C179 O172 1.247 . S
C180 O169 1.253 . S
C180 O170 1.283 . S
C181 O173 1.304 . S
C181 O175 1.272 1_565 S
C182 O174 1.311 . S
C182 O176 1.231 1_565 S
O183 Zn165 1.953 . S
O183 C177 1.298 . S
O184 Zn185 1.953 . S
O184 C200 1.225 . S
Zn185 O184 1.953 . S
Zn185 O186 1.949 . S
Zn185 O192 1.919 . S
Zn185 O197 1.924 . S
O186 Zn185 1.949 . S
O186 Zn187 1.923 . S
O186 Zn188 1.950 . S
O186 Zn189 1.945 . S
Zn187 O186 1.923 . S
Zn187 O190 1.933 . S
Zn187 O193 1.941 . S
Zn187 O194 1.965 . S
Zn188 O186 1.950 . S
Zn188 O195 1.938 . S
Zn188 O196 1.906 . S
Zn188 O206 1.953 . S
Zn189 O186 1.945 . S
Zn189 O191 1.932 . S
Zn189 O198 1.977 . S
Zn189 O199 1.910 . S
O190 Zn187 1.933 . S
O190 C201 1.226 . S
O191 Zn189 1.932 . S
O191 C201 1.307 . S
O192 Zn185 1.919 . S
O192 C203 1.253 . S
O193 Zn187 1.941 . S
O193 C203 1.283 . S
O194 Zn187 1.965 . S
O194 C202 1.303 . S
O195 Zn188 1.938 . S
O195 C202 1.247 . S
O196 Zn188 1.906 . S
O196 C204 1.304 . S
O197 Zn185 1.924 . S
O197 C205 1.311 . S
O198 Zn189 1.977 . S
O198 C204 1.272 . S
O199 Zn189 1.910 . S
O199 C205 1.231 . S
C200 O184 1.225 . S
C200 O206 1.298 . S
C201 O190 1.226 . S
C201 O191 1.307 . S
C202 O194 1.303 . S
C202 O195 1.247 . S
C203 O192 1.253 . S
C203 O193 1.283 . S
C204 O196 1.304 . S
C204 O198 1.272 . S
C205 O197 1.311 . S
C205 O199 1.231 . S
O206 Zn188 1.953 . S
O206 C200 1.298 . S
O207 Zn208 1.953 . S
O207 C223 1.225 . S
Zn208 O207 1.953 . S
Zn208 O209 1.949 . S
Zn208 O215 1.919 . S
Zn208 O220 1.924 . S
O209 Zn208 1.949 . S
O209 Zn210 1.923 . S
O209 Zn211 1.950 . S
O209 Zn212 1.945 . S
Zn210 O209 1.923 . S
Zn210 O213 1.933 . S
Zn210 O216 1.941 . S
Zn210 O217 1.965 . S
Zn211 O209 1.950 . S
Zn211 O218 1.938 . S
Zn211 O219 1.906 . S
Zn211 O229 1.953 . S
Zn212 O209 1.945 . S
Zn212 O214 1.932 . S
Zn212 O221 1.977 . S
Zn212 O222 1.910 . S
O213 Zn210 1.933 . S
O213 C224 1.226 . S
O214 Zn212 1.932 . S
O214 C224 1.307 . S
O215 Zn208 1.919 . S
O215 C226 1.253 . S
O216 Zn210 1.941 . S
O216 C226 1.283 . S
O217 Zn210 1.965 . S
O217 C225 1.303 . S
O218 Zn211 1.938 . S
O218 C225 1.247 . S
O219 Zn211 1.906 . S
O219 C227 1.304 . S
O220 Zn208 1.924 . S
O220 C228 1.311 . S
O221 Zn212 1.977 . S
O221 C227 1.272 . S
O222 Zn212 1.910 . S
O222 C228 1.231 . S
C223 O207 1.225 . S
C223 O229 1.298 . S
C224 O213 1.226 . S
C224 O214 1.307 . S
C225 O217 1.303 . S
C225 O218 1.247 . S
C226 O215 1.253 . S
C226 O216 1.283 . S
C227 O219 1.304 . S
C227 O221 1.272 . S
C228 O220 1.311 . S
C228 O222 1.231 . S
O229 Zn211 1.953 . S
O229 C223 1.298 . S
O230 Zn231 1.953 . S
O230 C246 1.225 . S
Zn231 O230 1.953 . S
Zn231 O232 1.949 . S
Zn231 O238 1.919 . S
Zn231 O243 1.924 . S
O232 Zn231 1.949 . S
O232 Zn233 1.923 . S
O232 Zn234 1.950 . S
O232 Zn235 1.945 . S
Zn233 O232 1.923 . S
Zn233 O236 1.933 . S
Zn233 O239 1.941 . S
Zn233 O240 1.965 . S
Zn234 O232 1.950 . S
Zn234 O241 1.938 . S
Zn234 O242 1.906 . S
Zn234 O252 1.953 . S
Zn235 O232 1.945 . S
Zn235 O237 1.932 . S
Zn235 O244 1.977 . S
Zn235 O245 1.910 . S
O236 Zn233 1.933 . S
O236 C247 1.226 . S
O237 Zn235 1.932 . S
O237 C247 1.307 . S
O238 Zn231 1.919 . S
O238 C249 1.253 . S
O239 Zn233 1.941 . S
O239 C249 1.283 . S
O240 Zn233 1.965 . S
O240 C248 1.303 . S
O241 Zn234 1.938 . S
O241 C248 1.247 . S
O242 Zn234 1.906 . S
O242 C250 1.304 . S
O243 Zn231 1.924 . S
O243 C251 1.311 . S
O244 Zn235 1.977 . S
O244 C250 1.272 . S
O245 Zn235 1.910 . S
O245 C251 1.231 . S
C246 O230 1.225 . S
C246 O252 1.298 . S
C247 O236 1.226 . S
C247 O237 1.307 . S
C248 O240 1.303 . S
C248 O241 1.247 . S
C249 O238 1.253 . S
C249 O239 1.283 . S
C250 O242 1.304 . S
C250 O244 1.272 . S
C251 O243 1.311 . S
C251 O245 1.231 . S
O252 Zn234 1.953 . S
O252 C246 1.298 . S
O253 Zn254 1.953 . S
O253 C269 1.225 . S
Zn254 O253 1.953 . S
Zn254 O255 1.949 . S
Zn254 O261 1.919 . S
Zn254 O266 1.924 . S
O255 Zn254 1.949 . S
O255 Zn256 1.923 . S
O255 Zn257 1.950 . S
O255 Zn258 1.945 . S
Zn256 O255 1.923 . S
Zn256 O259 1.933 . S
Zn256 O262 1.941 . S
Zn256 O263 1.965 . S
Zn257 O255 1.950 . S
Zn257 O264 1.938 . S
Zn257 O265 1.906 . S
Zn257 O275 1.953 . S
Zn258 O255 1.945 . S
Zn258 O260 1.932 . S
Zn258 O267 1.977 . S
Zn258 O268 1.910 . S
O259 Zn256 1.933 . S
O259 C270 1.226 . S
O260 Zn258 1.932 . S
O260 C270 1.307 . S
O261 Zn254 1.919 . S
O261 C272 1.253 . S
O262 Zn256 1.941 . S
O262 C272 1.283 . S
O263 Zn256 1.965 . S
O263 C271 1.303 . S
O264 Zn257 1.938 . S
O264 C271 1.247 . S
O265 Zn257 1.906 . S
O265 C273 1.304 . S
O266 Zn254 1.924 . S
O266 C274 1.311 . S
O267 Zn258 1.977 . S
O267 C273 1.272 . S
O268 Zn258 1.910 . S
O268 C274 1.231 . S
C269 O253 1.225 . S
C269 O275 1.298 . S
C270 O259 1.226 . S
C270 O260 1.307 . S
C271 O263 1.303 . S
C271 O264 1.247 . S
C272 O261 1.253 . S
C272 O262 1.283 . S
C273 O265 1.304 . S
C273 O267 1.272 . S
C274 O266 1.311 . S
C274 O268 1.231 . S
O275 Zn257 1.953 . S
O275 C269 1.298 . S
O276 Zn277 1.953 . S
O276 C292 1.225 . S
Zn277 O276 1.953 . S
Zn277 O278 1.949 . S
Zn277 O284 1.919 . S
Zn277 O289 1.924 . S
O278 Zn277 1.949 . S
O278 Zn279 1.923 . S
O278 Zn280 1.950 . S
O278 Zn281 1.945 . S
Zn279 O278 1.923 . S
Zn279 O282 1.933 . S
Zn279 O285 1.941 . S
Zn279 O286 1.965 . S
Zn280 O278 1.950 . S
Zn280 O287 1.938 . S
Zn280 O288 1.906 . S
Zn280 O298 1.953 . S
Zn281 O278 1.945 . S
Zn281 O283 1.932 . S
Zn281 O290 1.977 . S
Zn281 O291 1.910 . S
O282 Zn279 1.933 . S
O282 C293 1.226 . S
O283 Zn281 1.932 . S
O283 C293 1.307 . S
O284 Zn277 1.919 . S
O284 C295 1.253 . S
O285 Zn279 1.941 . S
O285 C295 1.283 . S
O286 Zn279 1.965 . S
O286 C294 1.303 . S
O287 Zn280 1.938 . S
O287 C294 1.247 . S
O288 Zn280 1.906 . S
O288 C296 1.304 . S
O289 Zn277 1.924 . S
O289 C297 1.311 . S
O290 Zn281 1.977 . S
O290 C296 1.272 . S
O291 Zn281 1.910 . S
O291 C297 1.231 . S
C292 O276 1.225 . S
C292 O298 1.298 . S
C293 O282 1.226 . S
C293 O283 1.307 . S
C294 O286 1.303 . S
C294 O287 1.247 . S
C295 O284 1.253 . S
C295 O285 1.283 . S
C296 O288 1.304 . S
C296 O290 1.272 . S
C297 O289 1.311 . S
C297 O291 1.231 . S
O298 Zn280 1.953 . S
O298 C292 1.298 . S
O299 Zn300 1.953 . S
O299 C315 1.225 . S
Zn300 O299 1.953 . S
Zn300 O301 1.949 . S
Zn300 O307 1.919 . S
Zn300 O312 1.924 . S
O301 Zn300 1.949 . S
O301 Zn302 1.923 . S
O301 Zn303 1.950 . S
O301 Zn304 1.945 . S
Zn302 O301 1.923 . S
Zn302 O305 1.933 . S
Zn302 O308 1.941 . S
Zn302 O309 1.965 . S
Zn303 O301 1.950 . S
Zn303 O310 1.938 . S
Zn303 O311 1.906 . S
Zn303 O321 1.953 . S
Zn304 O301 1.945 . S
Zn304 O306 1.932 . S
Zn304 O313 1.977 . S
Zn304 O314 1.910 . S
O305 Zn302 1.933 . S
O305 C316 1.226 . S
O306 Zn304 1.932 . S
O306 C316 1.307 . S
O307 Zn300 1.919 . S
O307 C318 1.253 . S
O308 Zn302 1.941 . S
O308 C318 1.283 . S
O309 Zn302 1.965 . S
O309 C317 1.303 . S
O310 Zn303 1.938 . S
O310 C317 1.247 . S
O311 Zn303 1.906 . S
O311 C319 1.304 . S
O312 Zn300 1.924 . S
O312 C320 1.311 . S
O313 Zn304 1.977 . S
O313 C319 1.272 . S
O314 Zn304 1.910 . S
O314 C320 1.231 . S
C315 O299 1.225 . S
C315 O321 1.298 . S
C316 O305 1.226 . S
C316 O306 1.307 . S
C317 O309 1.303 . S
C317 O310 1.247 . S
C318 O307 1.253 . S
C318 O308 1.283 . S
C319 O311 1.304 . S
C319 O313 1.272 . S
C320 O312 1.311 . S
C320 O314 1.231 . S
O321 Zn303 1.953 . S
O321 C315 1.298 . S
O322 Zn323 1.953 . S
O322 C338 1.225 . S
Zn323 O322 1.953 . S
Zn323 O324 1.949 . S
Zn323 O330 1.919 . S
Zn323 O335 1.924 . S
O324 Zn323 1.949 . S
O324 Zn325 1.923 . S
O324 Zn326 1.950 . S
O324 Zn327 1.945 . S
Zn325 O324 1.923 . S
Zn325 O328 1.933 . S
Zn325 O331 1.941 . S
Zn325 O332 1.965 . S
Zn326 O324 1.950 . S
Zn326 O333 1.938 . S
Zn326 O334 1.906 . S
Zn326 O344 1.953 . S
Zn327 O324 1.945 . S
Zn327 O329 1.932 . S
Zn327 O336 1.977 . S
Zn327 O337 1.910 . S
O328 Zn325 1.933 . S
O328 C339 1.226 . S
O329 Zn327 1.932 . S
O329 C339 1.307 . S
O330 Zn323 1.919 . S
O330 C341 1.253 . S
O331 Zn325 1.941 . S
O331 C341 1.283 . S
O332 Zn325 1.965 . S
O332 C340 1.303 . S
O333 Zn326 1.938 . S
O333 C340 1.247 . S
O334 Zn326 1.906 . S
O334 C342 1.304 . S
O335 Zn323 1.924 . S
O335 C343 1.311 . S
O336 Zn327 1.977 . S
O336 C342 1.272 . S
O337 Zn327 1.910 . S
O337 C343 1.231 . S
C338 O322 1.225 . S
C338 O344 1.298 . S
C339 O328 1.226 . S
C339 O329 1.307 . S
C340 O332 1.303 . S
C340 O333 1.247 . S
C341 O330 1.253 . S
C341 O331 1.283 . S
C342 O334 1.304 . S
C342 O336 1.272 . S
C343 O335 1.311 . S
C343 O337 1.231 . S
O344 Zn326 1.953 . S
O344 C338 1.298 . S
O345 Zn346 1.953 . S
O345 C361 1.225 . S
Zn346 O345 1.953 . S
Zn346 O347 1.949 . S
Zn346 O353 1.919 . S
Zn346 O358 1.924 . S
O347 Zn346 1.949 . S
O347 Zn348 1.923 . S
O347 Zn349 1.950 . S
O347 Zn350 1.945 . S
Zn348 O347 1.923 . S
Zn348 O351 1.933 . S
Zn348 O354 1.941 . S
Zn348 O355 1.965 . S
Zn349 O347 1.950 . S
Zn349 O356 1.938 . S
Zn349 O357 1.906 . S
Zn349 O367 1.953 . S
Zn350 O347 1.945 . S
Zn350 O352 1.932 . S
Zn350 O359 1.977 . S
Zn350 O360 1.910 . S
O351 Zn348 1.933 . S
O351 C362 1.226 . S
O352 Zn350 1.932 . S
O352 C362 1.307 . S
O353 Zn346 1.919 . S
O353 C364 1.253 . S
O354 Zn348 1.941 . S
O354 C364 1.283 . S
O355 Zn348 1.965 . S
O355 C363 1.303 . S
O356 Zn349 1.938 . S
O356 C363 1.247 . S
O357 Zn349 1.906 . S
O357 C365 1.304 . S
O358 Zn346 1.924 . S
O358 C366 1.311 . S
O359 Zn350 1.977 . S
O359 C365 1.272 . S
O360 Zn350 1.910 . S
O360 C366 1.231 . S
C361 O345 1.225 . S
C361 O367 1.298 . S
C362 O351 1.226 . S
C362 O352 1.307 . S
C363 O355 1.303 . S
C363 O356 1.247 . S
C364 O353 1.253 . S
C364 O354 1.283 . S
C365 O357 1.304 . S
C365 O359 1.272 . S
C366 O358 1.311 . S
C366 O360 1.231 . S
O367 Zn349 1.953 . S
O367 C361 1.298 . S
H368 C374 0.930 . S
H369 C378 0.930 . S
H370 C383 0.929 . S
H371 C381 0.929 . S
H372 C376 0.929 . S
H373 C382 0.929 . S
C374 H368 0.930 . S
C374 C375 1.367 . S
C374 C382 1.378 . S
C375 C374 1.367 . S
C375 C383 1.433 . S
C376 H372 0.929 . S
C376 C378 1.378 . S
C376 C380 1.350 . S
C377 C380 1.463 . S
C377 C382 1.350 . S
C377 N385 1.427 . S
C378 H369 0.930 . S
C378 C376 1.378 . S
C378 C379 1.367 . S
C379 C378 1.367 . S
C379 C381 1.433 . S
C380 C376 1.350 . S
C380 C377 1.463 . S
C380 N384 1.427 . S
C381 H371 0.929 . S
C381 C379 1.433 . S
C381 N384 1.384 . S
C382 H373 0.929 . S
C382 C374 1.378 . S
C382 C377 1.350 . S
C383 H370 0.929 . S
C383 C375 1.433 . S
C383 N385 1.384 . S
N384 C380 1.427 . S
N384 C381 1.384 . S
N385 C377 1.427 . S
N385 C383 1.384 . S
H386 C392 0.930 . S
H387 C396 0.930 . S
H388 C401 0.929 . S
H389 C399 0.929 . S
H390 C394 0.929 . S
H391 C400 0.929 . S
C392 H386 0.930 . S
C392 C393 1.367 . S
C392 C400 1.378 . S
C393 C392 1.367 . S
C393 C401 1.433 . S
C394 H390 0.929 . S
C394 C396 1.378 . S
C394 C398 1.350 . S
C395 C398 1.463 . S
C395 C400 1.350 . S
C395 N403 1.427 . S
C396 H387 0.930 . S
C396 C394 1.378 . S
C396 C397 1.367 . S
C397 C396 1.367 . S
C397 C399 1.433 . S
C398 C394 1.350 . S
C398 C395 1.463 . S
C398 N402 1.427 . S
C399 H389 0.929 . S
C399 C397 1.433 . S
C399 N402 1.384 . S
C400 H391 0.929 . S
C400 C392 1.378 . S
C400 C395 1.350 . S
C401 H388 0.929 . S
C401 C393 1.433 . S
C401 N403 1.384 . S
N402 C398 1.427 . S
N402 C399 1.384 . S
N403 C395 1.427 . S
N403 C401 1.384 . S
H404 C410 0.930 . S
H405 C414 0.930 . S
H406 C419 0.929 . S
H407 C417 0.929 . S
H408 C412 0.929 . S
H409 C418 0.929 . S
C410 H404 0.930 . S
C410 C411 1.367 . S
C410 C418 1.378 . S
C411 C410 1.367 . S
C411 C419 1.433 . S
C412 H408 0.929 . S
C412 C414 1.378 . S
C412 C416 1.350 . S
C413 C416 1.463 . S
C413 C418 1.350 . S
C413 N421 1.427 . S
C414 H405 0.930 . S
C414 C412 1.378 . S
C414 C415 1.367 . S
C415 C414 1.367 . S
C415 C417 1.433 . S
C416 C412 1.350 . S
C416 C413 1.463 . S
C416 N420 1.427 . S
C417 H407 0.929 . S
C417 C415 1.433 . S
C417 N420 1.384 . S
C418 H409 0.929 . S
C418 C410 1.378 . S
C418 C413 1.350 . S
C419 H406 0.929 . S
C419 C411 1.433 . S
C419 N421 1.384 . S
N420 C416 1.427 . S
N420 C417 1.384 . S
N421 C413 1.427 . S
N421 C419 1.384 . S
H422 C428 0.930 . S
H423 C432 0.930 . S
H424 C437 0.929 . S
H425 C435 0.929 . S
H426 C430 0.929 . S
H427 C436 0.929 . S
C428 H422 0.930 . S
C428 C429 1.367 . S
C428 C436 1.378 . S
C429 C428 1.367 . S
C429 C437 1.433 . S
C430 H426 0.929 . S
C430 C432 1.378 . S
C430 C434 1.350 . S
C431 C434 1.463 . S
C431 C436 1.350 . S
C431 N439 1.427 . S
C432 H423 0.930 . S
C432 C430 1.378 . S
C432 C433 1.367 . S
C433 C432 1.367 . S
C433 C435 1.433 . S
C434 C430 1.350 . S
C434 C431 1.463 . S
C434 N438 1.427 . S
C435 H425 0.929 . S
C435 C433 1.433 . S
C435 N438 1.384 . S
C436 H427 0.929 . S
C436 C428 1.378 . S
C436 C431 1.350 . S
C437 H424 0.929 . S
C437 C429 1.433 . S
C437 N439 1.384 . S
N438 C434 1.427 . S
N438 C435 1.384 . S
N439 C431 1.427 . S
N439 C437 1.384 . S
H440 C446 0.930 . S
H441 C450 0.930 . S
H442 C455 0.929 . S
H443 C453 0.929 . S
H444 C448 0.929 . S
H445 C454 0.929 . S
C446 H440 0.930 . S
C446 C447 1.367 . S
C446 C454 1.378 . S
C447 C446 1.367 . S
C447 C455 1.433 . S
C448 H444 0.929 . S
C448 C450 1.378 . S
C448 C452 1.350 . S
C449 C452 1.463 . S
C449 C454 1.350 . S
C449 N457 1.427 . S
C450 H441 0.930 . S
C450 C448 1.378 . S
C450 C451 1.367 . S
C451 C450 1.367 . S
C451 C453 1.433 . S
C452 C448 1.350 . S
C452 C449 1.463 . S
C452 N456 1.427 . S
C453 H443 0.929 . S
C453 C451 1.433 . S
C453 N456 1.384 . S
C454 H445 0.929 . S
C454 C446 1.378 . S
C454 C449 1.350 . S
C455 H442 0.929 . S
C455 C447 1.433 . S
C455 N457 1.384 . S
N456 C452 1.427 . S
N456 C453 1.384 . S
N457 C449 1.427 . S
N457 C455 1.384 . S
H458 C464 0.930 . S
H459 C468 0.930 . S
H460 C473 0.929 . S
H461 C471 0.929 . S
H462 C466 0.929 . S
H463 C472 0.929 . S
C464 H458 0.930 . S
C464 C465 1.367 . S
C464 C472 1.378 . S
C465 C464 1.367 . S
C465 C473 1.433 . S
C466 H462 0.929 . S
C466 C468 1.378 . S
C466 C470 1.350 . S
C467 C470 1.463 . S
C467 C472 1.350 . S
C467 N475 1.427 . S
C468 H459 0.930 . S
C468 C466 1.378 . S
C468 C469 1.367 . S
C469 C468 1.367 . S
C469 C471 1.433 . S
C470 C466 1.350 . S
C470 C467 1.463 . S
C470 N474 1.427 . S
C471 H461 0.929 . S
C471 C469 1.433 . S
C471 N474 1.384 . S
C472 H463 0.929 . S
C472 C464 1.378 . S
C472 C467 1.350 . S
C473 H460 0.929 . S
C473 C465 1.433 . S
C473 N475 1.384 . S
N474 C470 1.427 . S
N474 C471 1.384 . S
N475 C467 1.427 . S
N475 C473 1.384 . S
H476 C482 0.930 . S
H477 C486 0.930 . S
H478 C491 0.929 . S
H479 C489 0.929 . S
H480 C484 0.929 . S
H481 C490 0.929 . S
C482 H476 0.930 . S
C482 C483 1.367 . S
C482 C490 1.378 . S
C483 C482 1.367 . S
C483 C491 1.433 . S
C484 H480 0.929 . S
C484 C486 1.378 . S
C484 C488 1.350 . S
C485 C488 1.463 . S
C485 C490 1.350 . S
C485 N493 1.427 . S
C486 H477 0.930 . S
C486 C484 1.378 . S
C486 C487 1.367 . S
C487 C486 1.367 . S
C487 C489 1.433 . S
C488 C484 1.350 . S
C488 C485 1.463 . S
C488 N492 1.427 . S
C489 H479 0.929 . S
C489 C487 1.433 . S
C489 N492 1.384 . S
C490 H481 0.929 . S
C490 C482 1.378 . S
C490 C485 1.350 . S
C491 H478 0.929 . S
C491 C483 1.433 . S
C491 N493 1.384 . S
N492 C488 1.427 . S
N492 C489 1.384 . S
N493 C485 1.427 . S
N493 C491 1.384 . S
H494 C500 0.930 . S
H495 C504 0.930 . S
H496 C509 0.929 . S
H497 C507 0.929 . S
H498 C502 0.929 . S
H499 C508 0.929 . S
C500 H494 0.930 . S
C500 C501 1.367 . S
C500 C508 1.378 . S
C501 C500 1.367 . S
C501 C509 1.433 . S
C502 H498 0.929 . S
C502 C504 1.378 . S
C502 C506 1.350 . S
C503 C506 1.463 . S
C503 C508 1.350 . S
C503 N511 1.427 . S
C504 H495 0.930 . S
C504 C502 1.378 . S
C504 C505 1.367 . S
C505 C504 1.367 . S
C505 C507 1.433 . S
C506 C502 1.350 . S
C506 C503 1.463 . S
C506 N510 1.427 . S
C507 H497 0.929 . S
C507 C505 1.433 . S
C507 N510 1.384 . S
C508 H499 0.929 . S
C508 C500 1.378 . S
C508 C503 1.350 . S
C509 H496 0.929 . S
C509 C501 1.433 . S
C509 N511 1.384 . S
N510 C506 1.427 . S
N510 C507 1.384 . S
N511 C503 1.427 . S
N511 C509 1.384 . S
H512 C518 0.930 . S
H513 C522 0.930 . S
H514 C527 0.929 . S
H515 C525 0.929 . S
H516 C520 0.929 . S
H517 C526 0.929 . S
C518 H512 0.930 . S
C518 C519 1.367 . S
C518 C526 1.378 . S
C519 C518 1.367 . S
C519 C527 1.433 1_545 S
C520 H516 0.929 . S
C520 C522 1.378 . S
C520 C524 1.350 . S
C521 C524 1.463 1_545 S
C521 C526 1.350 . S
C521 N529 1.427 1_545 S
C522 H513 0.930 . S
C522 C520 1.378 . S
C522 C523 1.367 . S
C523 C522 1.367 . S
C523 C525 1.433 1_565 S
C524 C520 1.350 . S
C524 C521 1.463 1_565 S
C524 N528 1.427 1_565 S
C525 H515 0.929 . S
C525 C523 1.433 1_545 S
C525 N528 1.384 . S
C526 H517 0.929 . S
C526 C518 1.378 . S
C526 C521 1.350 . S
C527 H514 0.929 . S
C527 C519 1.433 1_565 S
C527 N529 1.384 . S
N528 C524 1.427 1_545 S
N528 C525 1.384 . S
N529 C521 1.427 1_565 S
N529 C527 1.384 . S
H530 C536 0.930 . S
H531 C540 0.930 . S
H532 C545 0.929 . S
H533 C543 0.929 . S
H534 C538 0.929 . S
H535 C544 0.929 . S
C536 H530 0.930 . S
C536 C537 1.367 . S
C536 C544 1.378 . S
C537 C536 1.367 . S
C537 C545 1.433 1_565 S
C538 H534 0.929 . S
C538 C540 1.378 . S
C538 C542 1.350 . S
C539 C542 1.463 1_565 S
C539 C544 1.350 . S
C539 N547 1.427 1_565 S
C540 H531 0.930 . S
C540 C538 1.378 . S
C540 C541 1.367 . S
C541 C540 1.367 . S
C541 C543 1.433 1_545 S
C542 C538 1.350 . S
C542 C539 1.463 1_545 S
C542 N546 1.427 1_545 S
C543 H533 0.929 . S
C543 C541 1.433 1_565 S
C543 N546 1.384 . S
C544 H535 0.929 . S
C544 C536 1.378 . S
C544 C539 1.350 . S
C545 H532 0.929 . S
C545 C537 1.433 1_545 S
C545 N547 1.384 . S
N546 C542 1.427 1_565 S
N546 C543 1.384 . S
N547 C539 1.427 1_545 S
N547 C545 1.384 . S
H548 C554 0.930 . S
H549 C558 0.930 . S
H550 C563 0.929 . S
H551 C561 0.929 . S
H552 C556 0.929 . S
H553 C562 0.929 . S
C554 H548 0.930 . S
C554 C555 1.367 . S
C554 C562 1.378 . S
C555 C554 1.367 . S
C555 C563 1.433 1_545 S
C556 H552 0.929 . S
C556 C558 1.378 . S
C556 C560 1.350 . S
C557 C560 1.463 1_545 S
C557 C562 1.350 . S
C557 N565 1.427 1_545 S
C558 H549 0.930 . S
C558 C556 1.378 . S
C558 C559 1.367 . S
C559 C558 1.367 . S
C559 C561 1.433 1_565 S
C560 C556 1.350 . S
C560 C557 1.463 1_565 S
C560 N564 1.427 1_565 S
C561 H551 0.929 . S
C561 C559 1.433 1_545 S
C561 N564 1.384 . S
C562 H553 0.929 . S
C562 C554 1.378 . S
C562 C557 1.350 . S
C563 H550 0.929 . S
C563 C555 1.433 1_565 S
C563 N565 1.384 . S
N564 C560 1.427 1_545 S
N564 C561 1.384 . S
N565 C557 1.427 1_565 S
N565 C563 1.384 . S
H566 C572 0.930 . S
H567 C576 0.930 . S
H568 C581 0.929 . S
H569 C579 0.929 . S
H570 C574 0.929 . S
H571 C580 0.929 . S
C572 H566 0.930 . S
C572 C573 1.367 . S
C572 C580 1.378 . S
C573 C572 1.367 . S
C573 C581 1.433 1_545 S
C574 H570 0.929 . S
C574 C576 1.378 . S
C574 C578 1.350 . S
C575 C578 1.463 1_545 S
C575 C580 1.350 . S
C575 N583 1.427 1_545 S
C576 H567 0.930 . S
C576 C574 1.378 . S
C576 C577 1.367 . S
C577 C576 1.367 . S
C577 C579 1.433 1_565 S
C578 C574 1.350 . S
C578 C575 1.463 1_565 S
C578 N582 1.427 1_565 S
C579 H569 0.929 . S
C579 C577 1.433 1_545 S
C579 N582 1.384 . S
C580 H571 0.929 . S
C580 C572 1.378 . S
C580 C575 1.350 . S
C581 H568 0.929 . S
C581 C573 1.433 1_565 S
C581 N583 1.384 . S
N582 C578 1.427 1_545 S
N582 C579 1.384 . S
N583 C575 1.427 1_565 S
N583 C581 1.384 . S
H584 C590 0.930 . S
H585 C594 0.930 . S
H586 C599 0.929 . S
H587 C597 0.929 . S
H588 C592 0.929 . S
H589 C598 0.929 . S
C590 H584 0.930 . S
C590 C591 1.367 . S
C590 C598 1.378 . S
C591 C590 1.367 . S
C591 C599 1.433 . S
C592 H588 0.929 . S
C592 C594 1.378 . S
C592 C596 1.350 . S
C593 C596 1.463 . S
C593 C598 1.350 . S
C593 N601 1.427 . S
C594 H585 0.930 . S
C594 C592 1.378 . S
C594 C595 1.367 . S
C595 C594 1.367 . S
C595 C597 1.433 . S
C596 C592 1.350 . S
C596 C593 1.463 . S
C596 N600 1.427 . S
C597 H587 0.929 . S
C597 C595 1.433 . S
C597 N600 1.384 . S
C598 H589 0.929 . S
C598 C590 1.378 . S
C598 C593 1.350 . S
C599 H586 0.929 . S
C599 C591 1.433 . S
C599 N601 1.384 . S
N600 C596 1.427 . S
N600 C597 1.384 . S
N601 C593 1.427 . S
N601 C599 1.384 . S
H602 C608 0.930 . S
H603 C612 0.930 . S
H604 C617 0.929 . S
H605 C615 0.929 . S
H606 C610 0.929 . S
H607 C616 0.929 . S
C608 H602 0.930 . S
C608 C609 1.367 . S
C608 C616 1.378 . S
C609 C608 1.367 . S
C609 C617 1.433 . S
C610 H606 0.929 . S
C610 C612 1.378 . S
C610 C614 1.350 . S
C611 C614 1.463 . S
C611 C616 1.350 . S
C611 N619 1.427 . S
C612 H603 0.930 . S
C612 C610 1.378 . S
C612 C613 1.367 . S
C613 C612 1.367 . S
C613 C615 1.433 . S
C614 C610 1.350 . S
C614 C611 1.463 . S
C614 N618 1.427 . S
C615 H605 0.929 . S
C615 C613 1.433 . S
C615 N618 1.384 . S
C616 H607 0.929 . S
C616 C608 1.378 . S
C616 C611 1.350 . S
C617 H604 0.929 . S
C617 C609 1.433 . S
C617 N619 1.384 . S
N618 C614 1.427 . S
N618 C615 1.384 . S
N619 C611 1.427 . S
N619 C617 1.384 . S
H620 C626 0.930 . S
H621 C630 0.930 . S
H622 C635 0.929 . S
H623 C633 0.929 . S
H624 C628 0.929 . S
H625 C634 0.929 . S
C626 H620 0.930 . S
C626 C627 1.367 . S
C626 C634 1.378 . S
C627 C626 1.367 . S
C627 C635 1.433 . S
C628 H624 0.929 . S
C628 C630 1.378 . S
C628 C632 1.350 . S
C629 C632 1.463 . S
C629 C634 1.350 . S
C629 N637 1.427 . S
C630 H621 0.930 . S
C630 C628 1.378 . S
C630 C631 1.367 . S
C631 C630 1.367 . S
C631 C633 1.433 . S
C632 C628 1.350 . S
C632 C629 1.463 . S
C632 N636 1.427 . S
C633 H623 0.929 . S
C633 C631 1.433 . S
C633 N636 1.384 . S
C634 H625 0.929 . S
C634 C626 1.378 . S
C634 C629 1.350 . S
C635 H622 0.929 . S
C635 C627 1.433 . S
C635 N637 1.384 . S
N636 C632 1.427 . S
N636 C633 1.384 . S
N637 C629 1.427 . S
N637 C635 1.384 . S
H638 C644 0.930 . S
H639 C648 0.930 . S
H640 C653 0.929 . S
H641 C651 0.929 . S
H642 C646 0.929 . S
H643 C652 0.929 . S
C644 H638 0.930 . S
C644 C645 1.367 . S
C644 C652 1.378 . S
C645 C644 1.367 . S
C645 C653 1.433 . S
C646 H642 0.929 . S
C646 C648 1.378 . S
C646 C650 1.350 . S
C647 C650 1.463 . S
C647 C652 1.350 . S
C647 N655 1.427 . S
C648 H639 0.930 . S
C648 C646 1.378 . S
C648 C649 1.367 . S
C649 C648 1.367 . S
C649 C651 1.433 . S
C650 C646 1.350 . S
C650 C647 1.463 . S
C650 N654 1.427 . S
C651 H641 0.929 . S
C651 C649 1.433 . S
C651 N654 1.384 . S
C652 H643 0.929 . S
C652 C644 1.378 . S
C652 C647 1.350 . S
C653 H640 0.929 . S
C653 C645 1.433 . S
C653 N655 1.384 . S
N654 C650 1.427 . S
N654 C651 1.384 . S
N655 C647 1.427 . S
N655 C653 1.384 . S
H656 C662 0.930 . S
H657 C666 0.930 . S
H658 C671 0.929 . S
H659 C669 0.929 . S
H660 C664 0.929 . S
H661 C670 0.929 . S
C662 H656 0.930 . S
C662 C663 1.367 1_565 S
C662 C670 1.378 . S
C663 C662 1.367 1_545 S
C663 C671 1.433 . S
C664 H660 0.929 . S
C664 C666 1.378 . S
C664 C668 1.350 . S
C665 C668 1.463 1_556 S
C665 C670 1.350 1_545 S
C665 N673 1.427 . S
C666 H657 0.930 . S
C666 C664 1.378 . S
C666 C667 1.367 . S
C667 C666 1.367 . S
C667 C669 1.433 1_545 S
C668 C664 1.350 . S
C668 C665 1.463 1_554 S
C668 N672 1.427 1_545 S
C669 H659 0.929 . S
C669 C667 1.433 1_565 S
C669 N672 1.384 . S
C670 H661 0.929 . S
C670 C662 1.378 . S
C670 C665 1.350 1_565 S
C671 H658 0.929 . S
C671 C663 1.433 . S
C671 N673 1.384 . S
N672 C668 1.427 1_565 S
N672 C669 1.384 . S
N673 C665 1.427 . S
N673 C671 1.384 . S
H674 C680 0.930 . S
H675 C684 0.930 . S
H676 C689 0.929 . S
H677 C687 0.929 . S
H678 C682 0.929 . S
H679 C688 0.929 . S
C680 H674 0.930 . S
C680 C681 1.367 1_545 S
C680 C688 1.378 . S
C681 C680 1.367 1_565 S
C681 C689 1.433 . S
C682 H678 0.929 . S
C682 C684 1.378 . S
C682 C686 1.350 . S
C683 C686 1.463 1_556 S
C683 C688 1.350 1_565 S
C683 N691 1.427 . S
C684 H675 0.930 . S
C684 C682 1.378 . S
C684 C685 1.367 . S
C685 C684 1.367 . S
C685 C687 1.433 1_565 S
C686 C682 1.350 . S
C686 C683 1.463 1_554 S
C686 N690 1.427 1_565 S
C687 H677 0.929 . S
C687 C685 1.433 1_545 S
C687 N690 1.384 . S
C688 H679 0.929 . S
C688 C680 1.378 . S
C688 C683 1.350 1_545 S
C689 H676 0.929 . S
C689 C681 1.433 . S
C689 N691 1.384 . S
N690 C686 1.427 1_545 S
N690 C687 1.384 . S
N691 C683 1.427 . S
N691 C689 1.384 . S
H692 C698 0.930 . S
H693 C702 0.930 . S
H694 C707 0.929 . S
H695 C705 0.929 . S
H696 C700 0.929 . S
H697 C706 0.929 . S
C698 H692 0.930 . S
C698 C699 1.367 1_545 S
C698 C706 1.378 . S
C699 C698 1.367 1_565 S
C699 C707 1.433 . S
C700 H696 0.929 . S
C700 C702 1.378 . S
C700 C704 1.350 . S
C701 C704 1.463 . S
C701 C706 1.350 1_565 S
C701 N709 1.427 . S
C702 H693 0.930 . S
C702 C700 1.378 . S
C702 C703 1.367 . S
C703 C702 1.367 . S
C703 C705 1.433 1_565 S
C704 C700 1.350 . S
C704 C701 1.463 . S
C704 N708 1.427 1_565 S
C705 H695 0.929 . S
C705 C703 1.433 1_545 S
C705 N708 1.384 . S
C706 H697 0.929 . S
C706 C698 1.378 . S
C706 C701 1.350 1_545 S
C707 H694 0.929 . S
C707 C699 1.433 . S
C707 N709 1.384 . S
N708 C704 1.427 1_545 S
N708 C705 1.384 . S
N709 C701 1.427 . S
N709 C707 1.384 . S
H710 C716 0.930 . S
H711 C720 0.930 . S
H712 C725 0.929 . S
H713 C723 0.929 . S
H714 C718 0.929 . S
H715 C724 0.929 . S
C716 H710 0.930 . S
C716 C717 1.367 . S
C716 C724 1.378 . S
C717 C716 1.367 . S
C717 C725 1.433 1_545 S
C718 H714 0.929 . S
C718 C720 1.378 . S
C718 C722 1.350 1_565 S
C719 C722 1.463 . S
C719 C724 1.350 . S
C719 N727 1.427 1_545 S
C720 H711 0.930 . S
C720 C718 1.378 . S
C720 C721 1.367 1_565 S
C721 C720 1.367 1_545 S
C721 C723 1.433 . S
C722 C718 1.350 1_545 S
C722 C719 1.463 . S
C722 N726 1.427 . S
C723 H713 0.929 . S
C723 C721 1.433 . S
C723 N726 1.384 . S
C724 H715 0.929 . S
C724 C716 1.378 . S
C724 C719 1.350 . S
C725 H712 0.929 . S
C725 C717 1.433 1_565 S
C725 N727 1.384 . S
N726 C722 1.427 . S
N726 C723 1.384 . S
N727 C719 1.427 1_565 S
N727 C725 1.384 . S
H728 C734 0.930 . S
H729 C738 0.930 . S
H730 C743 0.929 . S
H731 C741 0.929 . S
H732 C736 0.929 . S
H733 C742 0.929 . S
C734 H728 0.930 . S
C734 C735 1.367 . S
C734 C742 1.378 . S
C735 C734 1.367 . S
C735 C743 1.433 . S
C736 H732 0.929 . S
C736 C738 1.378 . S
C736 C740 1.350 . S
C737 C740 1.463 1_554 S
C737 C742 1.350 . S
C737 N745 1.427 . S
C738 H729 0.930 . S
C738 C736 1.378 . S
C738 C739 1.367 . S
C739 C738 1.367 . S
C739 C741 1.433 . S
C740 C736 1.350 . S
C740 C737 1.463 1_556 S
C740 N744 1.427 . S
C741 H731 0.929 . S
C741 C739 1.433 . S
C741 N744 1.384 . S
C742 H733 0.929 . S
C742 C734 1.378 . S
C742 C737 1.350 . S
C743 H730 0.929 . S
C743 C735 1.433 . S
C743 N745 1.384 . S
N744 C740 1.427 . S
N744 C741 1.384 . S
N745 C737 1.427 . S
N745 C743 1.384 . S
H746 C752 0.930 . S
H747 C756 0.930 . S
H748 C761 0.929 . S
H749 C759 0.929 . S
H750 C754 0.929 . S
H751 C760 0.929 . S
C752 H746 0.930 . S
C752 C753 1.367 . S
C752 C760 1.378 . S
C753 C752 1.367 . S
C753 C761 1.433 . S
C754 H750 0.929 . S
C754 C756 1.378 . S
C754 C758 1.350 . S
C755 C758 1.463 1_556 S
C755 C760 1.350 . S
C755 N763 1.427 . S
C756 H747 0.930 . S
C756 C754 1.378 . S
C756 C757 1.367 . S
C757 C756 1.367 . S
C757 C759 1.433 . S
C758 C754 1.350 . S
C758 C755 1.463 1_554 S
C758 N762 1.427 . S
C759 H749 0.929 . S
C759 C757 1.433 . S
C759 N762 1.384 . S
C760 H751 0.929 . S
C760 C752 1.378 . S
C760 C755 1.350 . S
C761 H748 0.929 . S
C761 C753 1.433 . S
C761 N763 1.384 . S
N762 C758 1.427 . S
N762 C759 1.384 . S
N763 C755 1.427 . S
N763 C761 1.384 . S
H764 C770 0.930 . S
H765 C774 0.930 . S
H766 C779 0.929 . S
H767 C777 0.929 . S
H768 C772 0.929 . S
H769 C778 0.929 . S
C770 H764 0.930 . S
C770 C771 1.367 . S
C770 C778 1.378 . S
C771 C770 1.367 . S
C771 C779 1.433 . S
C772 H768 0.929 . S
C772 C774 1.378 . S
C772 C776 1.350 . S
C773 C776 1.463 . S
C773 C778 1.350 . S
C773 N781 1.427 . S
C774 H765 0.930 . S
C774 C772 1.378 . S
C774 C775 1.367 . S
C775 C774 1.367 . S
C775 C777 1.433 . S
C776 C772 1.350 . S
C776 C773 1.463 . S
C776 N780 1.427 . S
C777 H767 0.929 . S
C777 C775 1.433 . S
C777 N780 1.384 . S
C778 H769 0.929 . S
C778 C770 1.378 . S
C778 C773 1.350 . S
C779 H766 0.929 . S
C779 C771 1.433 . S
C779 N781 1.384 . S
N780 C776 1.427 . S
N780 C777 1.384 . S
N781 C773 1.427 . S
N781 C779 1.384 . S
H782 C788 0.930 . S
H783 C792 0.930 . S
H784 C797 0.929 . S
H785 C795 0.929 . S
H786 C790 0.929 . S
H787 C796 0.929 . S
C788 H782 0.930 . S
C788 C789 1.367 . S
C788 C796 1.378 . S
C789 C788 1.367 . S
C789 C797 1.433 . S
C790 H786 0.929 . S
C790 C792 1.378 . S
C790 C794 1.350 . S
C791 C794 1.463 . S
C791 C796 1.350 . S
C791 N799 1.427 . S
C792 H783 0.930 . S
C792 C790 1.378 . S
C792 C793 1.367 . S
C793 C792 1.367 . S
C793 C795 1.433 . S
C794 C790 1.350 . S
C794 C791 1.463 . S
C794 N798 1.427 . S
C795 H785 0.929 . S
C795 C793 1.433 . S
C795 N798 1.384 . S
C796 H787 0.929 . S
C796 C788 1.378 . S
C796 C791 1.350 . S
C797 H784 0.929 . S
C797 C789 1.433 . S
C797 N799 1.384 . S
N798 C794 1.427 . S
N798 C795 1.384 . S
N799 C791 1.427 . S
N799 C797 1.384 . S
H800 C806 0.930 . S
H801 C810 0.930 . S
H802 C815 0.929 . S
H803 C813 0.929 . S
H804 C808 0.929 . S
H805 C814 0.929 . S
C806 H800 0.930 . S
C806 C807 1.367 . S
C806 C814 1.378 . S
C807 C806 1.367 . S
C807 C815 1.433 1_565 S
C808 H804 0.929 . S
C808 C810 1.378 . S
C808 C812 1.350 . S
C809 C812 1.463 1_665 S
C809 C814 1.350 . S
C809 N817 1.427 1_565 S
C810 H801 0.930 . S
C810 C808 1.378 . S
C810 C811 1.367 . S
C811 C810 1.367 . S
C811 C813 1.433 1_545 S
C812 C808 1.350 . S
C812 C809 1.463 1_445 S
C812 N816 1.427 1_545 S
C813 H803 0.929 . S
C813 C811 1.433 1_565 S
C813 N816 1.384 . S
C814 H805 0.929 . S
C814 C806 1.378 . S
C814 C809 1.350 . S
C815 H802 0.929 . S
C815 C807 1.433 1_545 S
C815 N817 1.384 . S
N816 C812 1.427 1_565 S
N816 C813 1.384 . S
N817 C809 1.427 1_545 S
N817 C815 1.384 . S
H818 C824 0.930 . S
H819 C828 0.930 . S
H820 C833 0.929 . S
H821 C831 0.929 . S
H822 C826 0.929 . S
H823 C832 0.929 . S
C824 H818 0.930 . S
C824 C825 1.367 . S
C824 C832 1.378 . S
C825 C824 1.367 . S
C825 C833 1.433 . S
C826 H822 0.929 . S
C826 C828 1.378 . S
C826 C830 1.350 . S
C827 C830 1.463 1_645 S
C827 C832 1.350 . S
C827 N835 1.426 1_545 S
C828 H819 0.930 . S
C828 C826 1.378 . S
C828 C829 1.367 . S
C829 C828 1.367 . S
C829 C831 1.433 . S
C830 C826 1.350 . S
C830 C827 1.463 1_465 S
C830 N834 1.426 1_565 S
C831 H821 0.929 . S
C831 C829 1.433 . S
C831 N834 1.381 1_565 S
C832 H823 0.929 . S
C832 C824 1.378 . S
C832 C827 1.350 . S
C833 H820 0.929 . S
C833 C825 1.433 . S
C833 N835 1.381 1_545 S
N834 C830 1.426 1_545 S
N834 C831 1.381 1_545 S
N835 C827 1.426 1_565 S
N835 C833 1.381 1_565 S
H836 C842 0.930 . S
H837 C846 0.930 . S
H838 C851 0.929 1_565 S
H839 C849 0.929 1_545 S
H840 C844 0.929 . S
H841 C850 0.929 . S
C842 H836 0.930 . S
C842 C843 1.367 . S
C842 C850 1.378 . S
C843 C842 1.367 . S
C843 C851 1.433 . S
C844 H840 0.929 . S
C844 C846 1.378 . S
C844 C848 1.350 . S
C845 C848 1.463 1_445 S
C845 C850 1.350 . S
C845 N853 1.427 1_545 S
C846 H837 0.930 . S
C846 C844 1.378 . S
C846 C847 1.367 . S
C847 C846 1.367 . S
C847 C849 1.433 . S
C848 C844 1.350 . S
C848 C845 1.463 1_665 S
C848 N852 1.427 1_565 S
C849 H839 0.929 1_565 S
C849 C847 1.433 . S
C849 N852 1.384 1_565 S
C850 H841 0.929 . S
C850 C842 1.378 . S
C850 C845 1.350 . S
C851 H838 0.929 1_545 S
C851 C843 1.433 . S
C851 N853 1.384 1_545 S
N852 C848 1.427 1_545 S
N852 C849 1.384 1_545 S
N853 C845 1.427 1_565 S
N853 C851 1.384 1_565 S
H854 C860 0.930 1_565 S
H855 C864 0.930 1_545 S
H856 C869 0.929 . S
H857 C867 0.929 . S
H858 C862 0.929 . S
H859 C868 0.929 . S
C860 H854 0.930 1_545 S
C860 C861 1.367 . S
C860 C868 1.378 1_545 S
C861 C860 1.367 . S
C861 C869 1.433 . S
C862 H858 0.929 . S
C862 C864 1.378 1_545 S
C862 C866 1.350 1_545 S
C863 C866 1.463 1_645 S
C863 C868 1.350 1_545 S
C863 N871 1.427 . S
C864 H855 0.930 1_565 S
C864 C862 1.378 1_565 S
C864 C865 1.367 . S
C865 C864 1.367 . S
C865 C867 1.433 . S
C866 C862 1.350 1_565 S
C866 C863 1.463 1_465 S
C866 N870 1.427 . S
C867 H857 0.929 . S
C867 C865 1.433 . S
C867 N870 1.384 . S
C868 H859 0.929 . S
C868 C860 1.378 1_565 S
C868 C863 1.350 1_565 S
C869 H856 0.929 . S
C869 C861 1.433 . S
C869 N871 1.384 . S
N870 C866 1.427 . S
N870 C867 1.384 . S
N871 C863 1.427 . S
N871 C869 1.384 . S
H872 C878 0.930 . S
H873 C882 0.930 . S
H874 C887 0.929 . S
H875 C885 0.929 . S
H876 C880 0.929 . S
H877 C886 0.929 . S
C878 H872 0.930 . S
C878 C879 1.367 . S
C878 C886 1.378 . S
C879 C878 1.367 . S
C879 C887 1.433 . S
C880 H876 0.929 . S
C880 C882 1.378 . S
C880 C884 1.350 . S
C881 C884 1.463 . S
C881 C886 1.350 . S
C881 N889 1.427 . S
C882 H873 0.930 . S
C882 C880 1.378 . S
C882 C883 1.367 . S
C883 C882 1.367 . S
C883 C885 1.433 . S
C884 C880 1.350 . S
C884 C881 1.463 . S
C884 N888 1.427 . S
C885 H875 0.929 . S
C885 C883 1.433 . S
C885 N888 1.384 . S
C886 H877 0.929 . S
C886 C878 1.378 . S
C886 C881 1.350 . S
C887 H874 0.929 . S
C887 C879 1.433 . S
C887 N889 1.384 . S
N888 C884 1.427 . S
N888 C885 1.384 . S
N889 C881 1.427 . S
N889 C887 1.384 . S
H890 C896 0.930 . S
H891 C900 0.930 . S
H892 C905 0.929 . S
H893 C903 0.929 . S
H894 C898 0.929 . S
H895 C904 0.929 . S
C896 H890 0.930 . S
C896 C897 1.367 . S
C896 C904 1.378 . S
C897 C896 1.367 . S
C897 C905 1.433 . S
C898 H894 0.929 . S
C898 C900 1.378 . S
C898 C902 1.350 . S
C899 C902 1.463 . S
C899 C904 1.350 . S
C899 N907 1.427 . S
C900 H891 0.930 . S
C900 C898 1.378 . S
C900 C901 1.367 . S
C901 C900 1.367 . S
C901 C903 1.433 . S
C902 C898 1.350 . S
C902 C899 1.463 . S
C902 N906 1.427 . S
C903 H893 0.929 . S
C903 C901 1.433 . S
C903 N906 1.384 . S
C904 H895 0.929 . S
C904 C896 1.378 . S
C904 C899 1.350 . S
C905 H892 0.929 . S
C905 C897 1.433 . S
C905 N907 1.384 . S
N906 C902 1.427 . S
N906 C903 1.384 . S
N907 C899 1.427 . S
N907 C905 1.384 . S
H908 C914 0.930 . S
H909 C918 0.930 . S
H910 C923 0.929 . S
H911 C921 0.929 . S
H912 C916 0.929 . S
H913 C922 0.929 . S
C914 H908 0.930 . S
C914 C915 1.367 . S
C914 C922 1.378 . S
C915 C914 1.367 . S
C915 C923 1.433 . S
C916 H912 0.929 . S
C916 C918 1.378 . S
C916 C920 1.350 . S
C917 C920 1.463 . S
C917 C922 1.350 . S
C917 N925 1.427 . S
C918 H909 0.930 . S
C918 C916 1.378 . S
C918 C919 1.367 . S
C919 C918 1.367 . S
C919 C921 1.433 . S
C920 C916 1.350 . S
C920 C917 1.463 . S
C920 N924 1.427 . S
C921 H911 0.929 . S
C921 C919 1.433 . S
C921 N924 1.384 . S
C922 H913 0.929 . S
C922 C914 1.378 . S
C922 C917 1.350 . S
C923 H910 0.929 . S
C923 C915 1.433 . S
C923 N925 1.384 . S
N924 C920 1.427 . S
N924 C921 1.384 . S
N925 C917 1.427 . S
N925 C923 1.384 . S
H926 C932 0.930 . S
H927 C936 0.930 . S
H928 C941 0.929 . S
H929 C939 0.929 . S
H930 C934 0.929 . S
H931 C940 0.929 . S
C932 H926 0.930 . S
C932 C933 1.367 . S
C932 C940 1.378 . S
C933 C932 1.367 . S
C933 C941 1.433 . S
C934 H930 0.929 . S
C934 C936 1.378 . S
C934 C938 1.350 . S
C935 C938 1.463 . S
C935 C940 1.350 . S
C935 N943 1.427 . S
C936 H927 0.930 . S
C936 C934 1.378 . S
C936 C937 1.367 . S
C937 C936 1.367 . S
C937 C939 1.433 . S
C938 C934 1.350 . S
C938 C935 1.463 . S
C938 N942 1.427 . S
C939 H929 0.929 . S
C939 C937 1.433 . S
C939 N942 1.384 . S
C940 H931 0.929 . S
C940 C932 1.378 . S
C940 C935 1.350 . S
C941 H928 0.929 . S
C941 C933 1.433 . S
C941 N943 1.384 . S
N942 C938 1.427 . S
N942 C939 1.384 . S
N943 C935 1.427 . S
N943 C941 1.384 . S
H944 C950 0.930 . S
H945 C954 0.930 . S
H946 C959 0.929 . S
H947 C957 0.929 . S
H948 C952 0.929 . S
H949 C958 0.929 . S
C950 H944 0.930 . S
C950 C951 1.367 . S
C950 C958 1.378 . S
C951 C950 1.367 . S
C951 C959 1.433 . S
C952 H948 0.929 . S
C952 C954 1.378 . S
C952 C956 1.350 . S
C953 C956 1.463 . S
C953 C958 1.350 . S
C953 N961 1.427 . S
C954 H945 0.930 . S
C954 C952 1.378 . S
C954 C955 1.367 . S
C955 C954 1.367 . S
C955 C957 1.433 . S
C956 C952 1.350 . S
C956 C953 1.463 . S
C956 N960 1.427 . S
C957 H947 0.929 . S
C957 C955 1.433 . S
C957 N960 1.384 . S
C958 H949 0.929 . S
C958 C950 1.378 . S
C958 C953 1.350 . S
C959 H946 0.929 . S
C959 C951 1.433 . S
C959 N961 1.384 . S
N960 C956 1.427 . S
N960 C957 1.384 . S
N961 C953 1.427 . S
N961 C959 1.384 . S
H962 C968 0.930 . S
H963 C972 0.930 . S
H964 C977 0.929 . S
H965 C975 0.929 . S
H966 C970 0.929 . S
H967 C976 0.929 . S
C968 H962 0.930 . S
C968 C969 1.367 . S
C968 C976 1.378 . S
C969 C968 1.367 . S
C969 C977 1.433 . S
C970 H966 0.929 . S
C970 C972 1.378 . S
C970 C974 1.350 . S
C971 C974 1.463 . S
C971 C976 1.350 . S
C971 N979 1.427 . S
C972 H963 0.930 . S
C972 C970 1.378 . S
C972 C973 1.367 . S
C973 C972 1.367 . S
C973 C975 1.433 . S
C974 C970 1.350 . S
C974 C971 1.463 . S
C974 N978 1.427 . S
C975 H965 0.929 . S
C975 C973 1.433 . S
C975 N978 1.384 . S
C976 H967 0.929 . S
C976 C968 1.378 . S
C976 C971 1.350 . S
C977 H964 0.929 . S
C977 C969 1.433 . S
C977 N979 1.384 . S
N978 C974 1.427 . S
N978 C975 1.384 . S
N979 C971 1.427 . S
N979 C977 1.384 . S
H980 C986 0.930 . S
H981 C990 0.930 . S
H982 C995 0.929 . S
H983 C993 0.929 . S
H984 C988 0.929 . S
H985 C994 0.929 . S
C986 H980 0.930 . S
C986 C987 1.367 . S
C986 C994 1.378 . S
C987 C986 1.367 . S
C987 C995 1.433 . S
C988 H984 0.929 . S
C988 C990 1.378 . S
C988 C992 1.350 . S
C989 C992 1.463 . S
C989 C994 1.350 . S
C989 N997 1.427 . S
C990 H981 0.930 . S
C990 C988 1.378 . S
C990 C991 1.367 . S
C991 C990 1.367 . S
C991 C993 1.433 . S
C992 C988 1.350 . S
C992 C989 1.463 . S
C992 N996 1.427 . S
C993 H983 0.929 . S
C993 C991 1.433 . S
C993 N996 1.384 . S
C994 H985 0.929 . S
C994 C986 1.378 . S
C994 C989 1.350 . S
C995 H982 0.929 . S
C995 C987 1.433 . S
C995 N997 1.384 . S
N996 C992 1.427 . S
N996 C993 1.384 . S
N997 C989 1.427 . S
N997 C995 1.384 . S
H998 C1004 0.930 . S
H999 C1008 0.930 . S
H1000 C1013 0.929 . S
H1001 C1011 0.929 . S
H1002 C1006 0.929 . S
H1003 C1012 0.929 . S
C1004 H998 0.930 . S
C1004 C1005 1.367 . S
C1004 C1012 1.378 . S
C1005 C1004 1.367 . S
C1005 C1013 1.433 . S
C1006 H1002 0.929 . S
C1006 C1008 1.378 . S
C1006 C1010 1.350 . S
C1007 C1010 1.463 . S
C1007 C1012 1.350 . S
C1007 N1015 1.427 . S
C1008 H999 0.930 . S
C1008 C1006 1.378 . S
C1008 C1009 1.367 . S
C1009 C1008 1.367 . S
C1009 C1011 1.433 . S
C1010 C1006 1.350 . S
C1010 C1007 1.463 . S
C1010 N1014 1.427 . S
C1011 H1001 0.929 . S
C1011 C1009 1.433 . S
C1011 N1014 1.384 . S
C1012 H1003 0.929 . S
C1012 C1004 1.378 . S
C1012 C1007 1.350 . S
C1013 H1000 0.929 . S
C1013 C1005 1.433 . S
C1013 N1015 1.384 . S
N1014 C1010 1.427 . S
N1014 C1011 1.384 . S
N1015 C1007 1.427 . S
N1015 C1013 1.384 . S
H1016 C1022 0.930 . S
H1017 C1026 0.930 . S
H1018 C1031 0.929 . S
H1019 C1029 0.929 . S
H1020 C1024 0.929 . S
H1021 C1030 0.929 . S
C1022 H1016 0.930 . S
C1022 C1023 1.367 . S
C1022 C1030 1.378 . S
C1023 C1022 1.367 . S
C1023 C1031 1.433 . S
C1024 H1020 0.929 . S
C1024 C1026 1.378 . S
C1024 C1028 1.350 . S
C1025 C1028 1.463 . S
C1025 C1030 1.350 . S
C1025 N1033 1.427 . S
C1026 H1017 0.930 . S
C1026 C1024 1.378 . S
C1026 C1027 1.367 . S
C1027 C1026 1.367 . S
C1027 C1029 1.433 . S
C1028 C1024 1.350 . S
C1028 C1025 1.463 . S
C1028 N1032 1.427 . S
C1029 H1019 0.929 . S
C1029 C1027 1.433 . S
C1029 N1032 1.384 . S
C1030 H1021 0.929 . S
C1030 C1022 1.378 . S
C1030 C1025 1.350 . S
C1031 H1018 0.929 . S
C1031 C1023 1.433 . S
C1031 N1033 1.384 . S
N1032 C1028 1.427 . S
N1032 C1029 1.384 . S
N1033 C1025 1.427 . S
N1033 C1031 1.384 . S
H1034 C1040 0.930 . S
H1035 C1044 0.930 . S
H1036 C1049 0.929 . S
H1037 C1047 0.929 . S
H1038 C1042 0.929 . S
H1039 C1048 0.929 . S
C1040 H1034 0.930 . S
C1040 C1041 1.367 . S
C1040 C1048 1.378 . S
C1041 C1040 1.367 . S
C1041 C1049 1.433 . S
C1042 H1038 0.929 . S
C1042 C1044 1.378 . S
C1042 C1046 1.350 . S
C1043 C1046 1.463 . S
C1043 C1048 1.350 . S
C1043 N1051 1.427 . S
C1044 H1035 0.930 . S
C1044 C1042 1.378 . S
C1044 C1045 1.367 . S
C1045 C1044 1.367 . S
C1045 C1047 1.433 . S
C1046 C1042 1.350 . S
C1046 C1043 1.463 . S
C1046 N1050 1.427 . S
C1047 H1037 0.929 . S
C1047 C1045 1.433 . S
C1047 N1050 1.384 . S
C1048 H1039 0.929 . S
C1048 C1040 1.378 . S
C1048 C1043 1.350 . S
C1049 H1036 0.929 . S
C1049 C1041 1.433 . S
C1049 N1051 1.384 . S
N1050 C1046 1.427 . S
N1050 C1047 1.384 . S
N1051 C1043 1.427 . S
N1051 C1049 1.384 . S
H1052 C1058 0.930 . S
H1053 C1062 0.930 . S
H1054 C1067 0.929 . S
H1055 C1065 0.929 . S
H1056 C1060 0.929 . S
H1057 C1066 0.929 . S
C1058 H1052 0.930 . S
C1058 C1059 1.367 . S
C1058 C1066 1.378 . S
C1059 C1058 1.367 . S
C1059 C1067 1.433 . S
C1060 H1056 0.929 . S
C1060 C1062 1.378 . S
C1060 C1064 1.350 . S
C1061 C1064 1.463 . S
C1061 C1066 1.350 . S
C1061 N1069 1.427 . S
C1062 H1053 0.930 . S
C1062 C1060 1.378 . S
C1062 C1063 1.367 . S
C1063 C1062 1.367 . S
C1063 C1065 1.433 . S
C1064 C1060 1.350 . S
C1064 C1061 1.463 . S
C1064 N1068 1.427 . S
C1065 H1055 0.929 . S
C1065 C1063 1.433 . S
C1065 N1068 1.384 . S
C1066 H1057 0.929 . S
C1066 C1058 1.378 . S
C1066 C1061 1.350 . S
C1067 H1054 0.929 . S
C1067 C1059 1.433 . S
C1067 N1069 1.384 . S
N1068 C1064 1.427 . S
N1068 C1065 1.384 . S
N1069 C1061 1.427 . S
N1069 C1067 1.384 . S
H1070 C1076 0.930 . S
H1071 C1080 0.930 . S
H1072 C1085 0.929 . S
H1073 C1083 0.929 . S
H1074 C1078 0.929 . S
H1075 C1084 0.929 . S
C1076 H1070 0.930 . S
C1076 C1077 1.367 . S
C1076 C1084 1.378 . S
C1077 C1076 1.367 . S
C1077 C1085 1.433 . S
C1078 H1074 0.929 . S
C1078 C1080 1.378 . S
C1078 C1082 1.350 . S
C1079 C1082 1.463 . S
C1079 C1084 1.350 . S
C1079 N1087 1.427 . S
C1080 H1071 0.930 . S
C1080 C1078 1.378 . S
C1080 C1081 1.367 . S
C1081 C1080 1.367 . S
C1081 C1083 1.433 . S
C1082 C1078 1.350 . S
C1082 C1079 1.463 . S
C1082 N1086 1.427 . S
C1083 H1073 0.929 . S
C1083 C1081 1.433 . S
C1083 N1086 1.384 . S
C1084 H1075 0.929 . S
C1084 C1076 1.378 . S
C1084 C1079 1.350 . S
C1085 H1072 0.929 . S
C1085 C1077 1.433 . S
C1085 N1087 1.384 . S
N1086 C1082 1.427 . S
N1086 C1083 1.384 . S
N1087 C1079 1.427 . S
N1087 C1085 1.384 . S
H1088 C1094 0.930 . S
H1089 C1098 0.930 . S
H1090 C1103 0.929 . S
H1091 C1101 0.929 . S
H1092 C1096 0.929 . S
H1093 C1102 0.929 1_545 S
C1094 H1088 0.930 . S
C1094 C1095 1.367 . S
C1094 C1102 1.378 . S
C1095 C1094 1.367 . S
C1095 C1103 1.433 . S
C1096 H1092 0.929 . S
C1096 C1098 1.378 . S
C1096 C1100 1.350 . S
C1097 C1100 1.463 . S
C1097 C1102 1.350 1_545 S
C1097 N1105 1.427 1_545 S
C1098 H1089 0.930 . S
C1098 C1096 1.378 . S
C1098 C1099 1.367 . S
C1099 C1098 1.367 . S
C1099 C1101 1.433 . S
C1100 C1096 1.350 . S
C1100 C1097 1.463 . S
C1100 N1104 1.427 . S
C1101 H1091 0.929 . S
C1101 C1099 1.433 . S
C1101 N1104 1.384 . S
C1102 H1093 0.929 1_565 S
C1102 C1094 1.378 . S
C1102 C1097 1.350 1_565 S
C1103 H1090 0.929 . S
C1103 C1095 1.433 . S
C1103 N1105 1.384 . S
N1104 C1100 1.427 . S
N1104 C1101 1.384 . S
N1105 C1097 1.427 1_565 S
N1105 C1103 1.384 . S
H1106 C1112 0.930 . S
H1107 C1116 0.930 . S
H1108 C1121 0.929 . S
H1109 C1119 0.929 . S
H1110 C1114 0.929 . S
H1111 C1120 0.929 . S
C1112 H1106 0.930 . S
C1112 C1113 1.367 . S
C1112 C1120 1.378 . S
C1113 C1112 1.367 . S
C1113 C1121 1.433 . S
C1114 H1110 0.929 . S
C1114 C1116 1.378 . S
C1114 C1118 1.350 1_545 S
C1115 C1118 1.463 . S
C1115 C1120 1.350 . S
C1115 N1123 1.427 . S
C1116 H1107 0.930 . S
C1116 C1114 1.378 . S
C1116 C1117 1.367 . S
C1117 C1116 1.367 . S
C1117 C1119 1.433 . S
C1118 C1114 1.350 1_565 S
C1118 C1115 1.463 . S
C1118 N1122 1.427 1_565 S
C1119 H1109 0.929 . S
C1119 C1117 1.433 . S
C1119 N1122 1.384 . S
C1120 H1111 0.929 . S
C1120 C1112 1.378 . S
C1120 C1115 1.350 . S
C1121 H1108 0.929 . S
C1121 C1113 1.433 . S
C1121 N1123 1.384 . S
N1122 C1118 1.427 1_545 S
N1122 C1119 1.384 . S
N1123 C1115 1.427 . S
N1123 C1121 1.384 . S
H1124 C1130 0.930 . S
H1125 C1134 0.930 . S
H1126 C1139 0.929 . S
H1127 C1137 0.929 . S
H1128 C1132 0.929 . S
H1129 C1138 0.929 . S
C1130 H1124 0.930 . S
C1130 C1131 1.367 . S
C1130 C1138 1.378 . S
C1131 C1130 1.367 . S
C1131 C1139 1.433 . S
C1132 H1128 0.929 . S
C1132 C1134 1.378 . S
C1132 C1136 1.350 . S
C1133 C1136 1.463 . S
C1133 C1138 1.350 1_565 S
C1133 N1141 1.427 1_565 S
C1134 H1125 0.930 . S
C1134 C1132 1.378 . S
C1134 C1135 1.367 . S
C1135 C1134 1.367 . S
C1135 C1137 1.433 . S
C1136 C1132 1.350 . S
C1136 C1133 1.463 . S
C1136 N1140 1.427 . S
C1137 H1127 0.929 . S
C1137 C1135 1.433 . S
C1137 N1140 1.384 . S
C1138 H1129 0.929 . S
C1138 C1130 1.378 . S
C1138 C1133 1.350 1_545 S
C1139 H1126 0.929 . S
C1139 C1131 1.433 . S
C1139 N1141 1.384 . S
N1140 C1136 1.427 . S
N1140 C1137 1.384 . S
N1141 C1133 1.427 1_545 S
N1141 C1139 1.384 . S
H1142 C1148 0.930 . S
H1143 C1152 0.930 . S
H1144 C1157 0.929 . S
H1145 C1155 0.929 . S
H1146 C1150 0.929 . S
H1147 C1156 0.929 . S
C1148 H1142 0.930 . S
C1148 C1149 1.367 . S
C1148 C1156 1.378 . S
C1149 C1148 1.367 . S
C1149 C1157 1.433 . S
C1150 H1146 0.929 . S
C1150 C1152 1.378 . S
C1150 C1154 1.350 . S
C1151 C1154 1.463 . S
C1151 C1156 1.350 1_545 S
C1151 N1159 1.427 1_545 S
C1152 H1143 0.930 . S
C1152 C1150 1.378 . S
C1152 C1153 1.367 . S
C1153 C1152 1.367 . S
C1153 C1155 1.433 . S
C1154 C1150 1.350 . S
C1154 C1151 1.463 . S
C1154 N1158 1.427 . S
C1155 H1145 0.929 . S
C1155 C1153 1.433 . S
C1155 N1158 1.384 . S
C1156 H1147 0.929 . S
C1156 C1148 1.378 . S
C1156 C1151 1.350 1_565 S
C1157 H1144 0.929 . S
C1157 C1149 1.433 . S
C1157 N1159 1.384 . S
N1158 C1154 1.427 . S
N1158 C1155 1.384 . S
N1159 C1151 1.427 1_565 S
N1159 C1157 1.384 . S
H1160 C1166 0.930 . S
H1161 C1170 0.930 . S
H1162 C1175 0.929 . S
H1163 C1173 0.929 . S
H1164 C1168 0.929 . S
H1165 C1174 0.929 . S
C1166 H1160 0.930 . S
C1166 C1167 1.367 . S
C1166 C1174 1.378 . S
C1167 C1166 1.367 . S
C1167 C1175 1.433 . S
C1168 H1164 0.929 . S
C1168 C1170 1.378 . S
C1168 C1172 1.350 1_545 S
C1169 C1172 1.463 . S
C1169 C1174 1.350 . S
C1169 N1177 1.427 . S
C1170 H1161 0.930 . S
C1170 C1168 1.378 . S
C1170 C1171 1.367 . S
C1171 C1170 1.367 . S
C1171 C1173 1.433 . S
C1172 C1168 1.350 1_565 S
C1172 C1169 1.463 . S
C1172 N1176 1.427 1_565 S
C1173 H1163 0.929 . S
C1173 C1171 1.433 . S
C1173 N1176 1.384 . S
C1174 H1165 0.929 . S
C1174 C1166 1.378 . S
C1174 C1169 1.350 . S
C1175 H1162 0.929 . S
C1175 C1167 1.433 . S
C1175 N1177 1.384 . S
N1176 C1172 1.427 1_545 S
N1176 C1173 1.384 . S
N1177 C1169 1.427 . S
N1177 C1175 1.384 . S
H1178 C1184 0.930 . S
H1179 C1188 0.930 . S
H1180 C1193 0.929 . S
H1181 C1191 0.929 . S
H1182 C1186 0.929 1_545 S
H1183 C1192 0.929 . S
C1184 H1178 0.930 . S
C1184 C1185 1.367 . S
C1184 C1192 1.378 . S
C1185 C1184 1.367 . S
C1185 C1193 1.433 . S
C1186 H1182 0.929 1_565 S
C1186 C1188 1.378 . S
C1186 C1190 1.350 1_565 S
C1187 C1190 1.463 . S
C1187 C1192 1.350 . S
C1187 N1195 1.427 . S
C1188 H1179 0.930 . S
C1188 C1186 1.378 . S
C1188 C1189 1.367 . S
C1189 C1188 1.367 . S
C1189 C1191 1.433 . S
C1190 C1186 1.350 1_545 S
C1190 C1187 1.463 . S
C1190 N1194 1.427 1_545 S
C1191 H1181 0.929 . S
C1191 C1189 1.433 . S
C1191 N1194 1.384 . S
C1192 H1183 0.929 . S
C1192 C1184 1.378 . S
C1192 C1187 1.350 . S
C1193 H1180 0.929 . S
C1193 C1185 1.433 . S
C1193 N1195 1.384 . S
N1194 C1190 1.427 1_565 S
N1194 C1191 1.384 . S
N1195 C1187 1.427 . S
N1195 C1193 1.384 . S
H1196 C1202 0.930 . S
H1197 C1206 0.930 . S
H1198 C1211 0.929 . S
H1199 C1209 0.929 . S
H1200 C1204 0.929 . S
H1201 C1210 0.929 1_545 S
C1202 H1196 0.930 . S
C1202 C1203 1.367 . S
C1202 C1210 1.378 . S
C1203 C1202 1.367 . S
C1203 C1211 1.433 . S
C1204 H1200 0.929 . S
C1204 C1206 1.378 . S
C1204 C1208 1.350 . S
C1205 C1208 1.463 . S
C1205 C1210 1.350 1_545 S
C1205 N1213 1.427 1_545 S
C1206 H1197 0.930 . S
C1206 C1204 1.378 . S
C1206 C1207 1.367 . S
C1207 C1206 1.367 . S
C1207 C1209 1.433 . S
C1208 C1204 1.350 . S
C1208 C1205 1.463 . S
C1208 N1212 1.427 . S
C1209 H1199 0.929 . S
C1209 C1207 1.433 . S
C1209 N1212 1.384 . S
C1210 H1201 0.929 1_565 S
C1210 C1202 1.378 . S
C1210 C1205 1.350 1_565 S
C1211 H1198 0.929 . S
C1211 C1203 1.433 . S
C1211 N1213 1.384 . S
N1212 C1208 1.427 . S
N1212 C1209 1.384 . S
N1213 C1205 1.427 1_565 S
N1213 C1211 1.384 . S
H1214 C1220 0.930 . S
H1215 C1224 0.930 . S
H1216 C1229 0.929 . S
H1217 C1227 0.929 . S
H1218 C1222 0.929 . S
H1219 C1228 0.929 . S
C1220 H1214 0.930 . S
C1220 C1221 1.367 . S
C1220 C1228 1.378 . S
C1221 C1220 1.367 . S
C1221 C1229 1.433 . S
C1222 H1218 0.929 . S
C1222 C1224 1.378 . S
C1222 C1226 1.350 1_545 S
C1223 C1226 1.463 . S
C1223 C1228 1.350 . S
C1223 N1231 1.427 . S
C1224 H1215 0.930 . S
C1224 C1222 1.378 . S
C1224 C1225 1.367 . S
C1225 C1224 1.367 . S
C1225 C1227 1.433 . S
C1226 C1222 1.350 1_565 S
C1226 C1223 1.463 . S
C1226 N1230 1.427 1_565 S
C1227 H1217 0.929 . S
C1227 C1225 1.433 . S
C1227 N1230 1.384 . S
C1228 H1219 0.929 . S
C1228 C1220 1.378 . S
C1228 C1223 1.350 . S
C1229 H1216 0.929 . S
C1229 C1221 1.433 . S
C1229 N1231 1.384 . S
N1230 C1226 1.427 1_545 S
N1230 C1227 1.384 . S
N1231 C1223 1.427 . S
N1231 C1229 1.384 . S
C375 C18 1.537 . S
C379 C225 1.545 . S
C393 C41 1.545 . S
C397 C202 1.537 . S
C411 C271 1.545 . S
C415 C64 1.537 . S
C429 C87 1.544 . S
C433 C248 1.538 . S
C447 C317 1.451 . S
C451 C110 1.460 . S
C465 C294 1.454 . S
C469 C133 1.457 . S
C483 C363 1.459 . S
C487 C156 1.452 . S
C501 C179 1.451 . S
C505 C340 1.460 . S
C519 C66 1.437 1_545 S
C523 C20 1.433 1_565 S
C537 C89 1.438 1_565 S
C541 C43 1.434 1_545 S
C555 C157 1.415 . S
C559 C111 1.417 . S
C573 C134 1.414 . S
C577 C180 1.414 . S
C591 C250 1.437 . S
C595 C204 1.434 . S
C609 C273 1.437 . S
C613 C227 1.433 . S
C627 C295 1.428 . S
C631 C341 1.427 . S
C645 C318 1.414 . S
C649 C364 1.415 . S
C663 C135 1.448 . S
C667 C19 1.430 . S
C681 C112 1.447 . S
C685 C42 1.429 . S
C699 C65 1.441 . S
C703 C181 1.440 . S
C717 C158 1.443 . S
C721 C88 1.440 . S
C735 C203 1.429 . S
C739 C319 1.447 . S
C753 C296 1.437 . S
C757 C226 1.441 . S
C771 C249 1.438 . S
C775 C365 1.445 . S
C789 C342 1.441 . S
C793 C272 1.441 . S
C807 C44 1.460 . S
C811 C21 1.462 . S
C825 C90 1.458 . S
C829 C67 1.454 . S
C843 C136 1.563 . S
C847 C113 1.560 . S
C861 C159 1.554 . S
C865 C182 1.557 . S
C879 C228 1.456 . S
C883 C205 1.460 . S
C897 C274 1.447 . S
C901 C251 1.449 . S
C915 C297 1.558 . S
C919 C320 1.562 . S
C933 C343 1.554 . S
C937 C366 1.557 . S
C951 C17 1.291 . S
C955 C16 1.289 . S
C969 C40 1.285 . S
C973 C39 1.281 . S
C987 C63 1.291 . S
C991 C62 1.289 . S
C1005 C85 1.286 . S
C1009 C86 1.288 . S
C1023 C109 1.288 . S
C1027 C108 1.286 . S
C1041 C131 1.286 . S
C1045 C132 1.289 . S
C1059 C155 1.287 . S
C1063 C154 1.284 . S
C1077 C178 1.290 . S
C1081 C177 1.287 . S
C1095 C200 1.287 . S
C1099 C201 1.289 . S
C1113 C224 1.290 . S
C1117 C223 1.287 . S
C1131 C246 1.283 . S
C1135 C247 1.286 . S
C1149 C269 1.284 . S
C1153 C270 1.287 . S
C1167 C293 1.287 . S
C1171 C292 1.284 . S
C1185 C316 1.290 . S
C1189 C315 1.288 . S
C1203 C338 1.289 . S
C1207 C339 1.291 . S
C1221 C362 1.288 . S
C1225 C361 1.285 . S
