# Generated by pormake.
# Topology hal, (4)-cn, num edge types: 1
# Building blocks:
#     Node 0, Type 0, BuildingBlock: AZAVOO_clean_sbu_0, # of connection points: 4
#     Node 1, Type 0, BuildingBlock: AZAVOO_clean_sbu_0, # of connection points: 4
#     Node 2, Type 0, BuildingBlock: AZAVOO_clean_sbu_0, # of connection points: 4
#     Node 3, Type 0, BuildingBlock: AZAVOO_clean_sbu_0, # of connection points: 4
#     Node 4, Type 0, BuildingBlock: AZAVOO_clean_sbu_0, # of connection points: 4
#     Node 5, Type 0, BuildingBlock: AZAVOO_clean_sbu_0, # of connection points: 4
#     Node 6, Type 0, BuildingBlock: AZAVOO_clean_sbu_0, # of connection points: 4
#     Node 7, Type 0, BuildingBlock: AZAVOO_clean_sbu_0, # of connection points: 4
#     Node 8, Type 0, BuildingBlock: AZAVOO_clean_sbu_0, # of connection points: 4
#     Node 9, Type 0, BuildingBlock: AZAVOO_clean_sbu_0, # of connection points: 4
#     Node 10, Type 0, BuildingBlock: AZAVOO_clean_sbu_0, # of connection points: 4
#     Node 11, Type 0, BuildingBlock: AZAVOO_clean_sbu_0, # of connection points: 4
#     Node 12, Type 0, BuildingBlock: AZAVOO_clean_sbu_0, # of connection points: 4
#     Node 13, Type 0, BuildingBlock: AZAVOO_clean_sbu_0, # of connection points: 4
#     Node 14, Type 0, BuildingBlock: AZAVOO_clean_sbu_0, # of connection points: 4
#     Node 15, Type 0, BuildingBlock: AZAVOO_clean_sbu_0, # of connection points: 4
#     Node 16, Type 0, BuildingBlock: AZAVOO_clean_sbu_0, # of connection points: 4
#     Node 17, Type 0, BuildingBlock: AZAVOO_clean_sbu_0, # of connection points: 4
#     Node 18, Type 0, BuildingBlock: AZAVOO_clean_sbu_0, # of connection points: 4
#     Node 19, Type 0, BuildingBlock: AZAVOO_clean_sbu_0, # of connection points: 4
#     Node 20, Type 0, BuildingBlock: AZAVOO_clean_sbu_0, # of connection points: 4
#     Node 21, Type 0, BuildingBlock: AZAVOO_clean_sbu_0, # of connection points: 4
#     Node 22, Type 0, BuildingBlock: AZAVOO_clean_sbu_0, # of connection points: 4
#     Node 23, Type 0, BuildingBlock: AZAVOO_clean_sbu_0, # of connection points: 4
#     Node 24, Type 0, BuildingBlock: AZAVOO_clean_sbu_0, # of connection points: 4
#     Node 25, Type 0, BuildingBlock: AZAVOO_clean_sbu_0, # of connection points: 4
#     Node 26, Type 0, BuildingBlock: AZAVOO_clean_sbu_0, # of connection points: 4
#     Node 27, Type 0, BuildingBlock: AZAVOO_clean_sbu_0, # of connection points: 4
#     Node 28, Type 0, BuildingBlock: AZAVOO_clean_sbu_0, # of connection points: 4
#     Node 29, Type 0, BuildingBlock: AZAVOO_clean_sbu_0, # of connection points: 4
#     Node 30, Type 0, BuildingBlock: AZAVOO_clean_sbu_0, # of connection points: 4
#     Node 31, Type 0, BuildingBlock: AZAVOO_clean_sbu_0, # of connection points: 4
#     Node 32, Type 0, BuildingBlock: AZAVOO_clean_sbu_0, # of connection points: 4
#     Node 33, Type 0, BuildingBlock: AZAVOO_clean_sbu_0, # of connection points: 4
#     Node 34, Type 0, BuildingBlock: AZAVOO_clean_sbu_0, # of connection points: 4
#     Node 35, Type 0, BuildingBlock: AZAVOO_clean_sbu_0, # of connection points: 4
#     Node 36, Type 0, BuildingBlock: AZAVOO_clean_sbu_0, # of connection points: 4
#     Node 37, Type 0, BuildingBlock: AZAVOO_clean_sbu_0, # of connection points: 4
#     Node 38, Type 0, BuildingBlock: AZAVOO_clean_sbu_0, # of connection points: 4
#     Node 39, Type 0, BuildingBlock: AZAVOO_clean_sbu_0, # of connection points: 4
#     Node 40, Type 0, BuildingBlock: AZAVOO_clean_sbu_0, # of connection points: 4
#     Node 41, Type 0, BuildingBlock: AZAVOO_clean_sbu_0, # of connection points: 4
#     Node 42, Type 0, BuildingBlock: AZAVOO_clean_sbu_0, # of connection points: 4
#     Node 43, Type 0, BuildingBlock: AZAVOO_clean_sbu_0, # of connection points: 4
#     Node 44, Type 0, BuildingBlock: AZAVOO_clean_sbu_0, # of connection points: 4
#     Node 45, Type 0, BuildingBlock: AZAVOO_clean_sbu_0, # of connection points: 4
#     Node 46, Type 0, BuildingBlock: AZAVOO_clean_sbu_0, # of connection points: 4
#     Node 47, Type 0, BuildingBlock: AZAVOO_clean_sbu_0, # of connection points: 4
#     Node 48, Type 0, BuildingBlock: AZAVOO_clean_sbu_0, # of connection points: 4
#     Node 49, Type 0, BuildingBlock: AZAVOO_clean_sbu_0, # of connection points: 4
#     Node 50, Type 0, BuildingBlock: AZAVOO_clean_sbu_0, # of connection points: 4
#     Node 51, Type 0, BuildingBlock: AZAVOO_clean_sbu_0, # of connection points: 4
#     Node 52, Type 0, BuildingBlock: AZAVOO_clean_sbu_0, # of connection points: 4
#     Node 53, Type 0, BuildingBlock: AZAVOO_clean_sbu_0, # of connection points: 4
#     Node 54, Type 0, BuildingBlock: AZAVOO_clean_sbu_0, # of connection points: 4
#     Node 55, Type 0, BuildingBlock: AZAVOO_clean_sbu_0, # of connection points: 4
#     Node 56, Type 0, BuildingBlock: AZAVOO_clean_sbu_0, # of connection points: 4
#     Node 57, Type 0, BuildingBlock: AZAVOO_clean_sbu_0, # of connection points: 4
#     Node 58, Type 0, BuildingBlock: AZAVOO_clean_sbu_0, # of connection points: 4
#     Node 59, Type 0, BuildingBlock: AZAVOO_clean_sbu_0, # of connection points: 4
#     Node 60, Type 0, BuildingBlock: AZAVOO_clean_sbu_0, # of connection points: 4
#     Node 61, Type 0, BuildingBlock: AZAVOO_clean_sbu_0, # of connection points: 4
#     Node 62, Type 0, BuildingBlock: AZAVOO_clean_sbu_0, # of connection points: 4
#     Node 63, Type 0, BuildingBlock: AZAVOO_clean_sbu_0, # of connection points: 4
#     Node 64, Type 0, BuildingBlock: AZAVOO_clean_sbu_0, # of connection points: 4
#     Node 65, Type 0, BuildingBlock: AZAVOO_clean_sbu_0, # of connection points: 4
#     Node 66, Type 0, BuildingBlock: AZAVOO_clean_sbu_0, # of connection points: 4
#     Node 67, Type 0, BuildingBlock: AZAVOO_clean_sbu_0, # of connection points: 4
#     Node 68, Type 0, BuildingBlock: AZAVOO_clean_sbu_0, # of connection points: 4
#     Node 69, Type 0, BuildingBlock: AZAVOO_clean_sbu_0, # of connection points: 4
#     Node 70, Type 0, BuildingBlock: AZAVOO_clean_sbu_0, # of connection points: 4
#     Node 71, Type 0, BuildingBlock: AZAVOO_clean_sbu_0, # of connection points: 4
#     Node 72, Type 0, BuildingBlock: AZAVOO_clean_sbu_0, # of connection points: 4
#     Node 73, Type 0, BuildingBlock: AZAVOO_clean_sbu_0, # of connection points: 4
#     Node 74, Type 0, BuildingBlock: AZAVOO_clean_sbu_0, # of connection points: 4
#     Node 75, Type 0, BuildingBlock: AZAVOO_clean_sbu_0, # of connection points: 4
#     Node 76, Type 0, BuildingBlock: AZAVOO_clean_sbu_0, # of connection points: 4
#     Node 77, Type 0, BuildingBlock: AZAVOO_clean_sbu_0, # of connection points: 4
#     Node 78, Type 0, BuildingBlock: AZAVOO_clean_sbu_0, # of connection points: 4
#     Node 79, Type 0, BuildingBlock: AZAVOO_clean_sbu_0, # of connection points: 4
#     Node 80, Type 0, BuildingBlock: AZAVOO_clean_sbu_0, # of connection points: 4
#     Node 81, Type 0, BuildingBlock: AZAVOO_clean_sbu_0, # of connection points: 4
#     Node 82, Type 0, BuildingBlock: AZAVOO_clean_sbu_0, # of connection points: 4
#     Node 83, Type 0, BuildingBlock: AZAVOO_clean_sbu_0, # of connection points: 4
#     Node 84, Type 0, BuildingBlock: AZAVOO_clean_sbu_0, # of connection points: 4
#     Node 85, Type 0, BuildingBlock: AZAVOO_clean_sbu_0, # of connection points: 4
#     Node 86, Type 0, BuildingBlock: AZAVOO_clean_sbu_0, # of connection points: 4
#     Node 87, Type 0, BuildingBlock: AZAVOO_clean_sbu_0, # of connection points: 4
#     Node 88, Type 0, BuildingBlock: AZAVOO_clean_sbu_0, # of connection points: 4
#     Node 89, Type 0, BuildingBlock: AZAVOO_clean_sbu_0, # of connection points: 4
#     Node 90, Type 0, BuildingBlock: AZAVOO_clean_sbu_0, # of connection points: 4
#     Node 91, Type 0, BuildingBlock: AZAVOO_clean_sbu_0, # of connection points: 4
#     Node 92, Type 0, BuildingBlock: AZAVOO_clean_sbu_0, # of connection points: 4
#     Node 93, Type 0, BuildingBlock: AZAVOO_clean_sbu_0, # of connection points: 4
#     Node 94, Type 0, BuildingBlock: AZAVOO_clean_sbu_0, # of connection points: 4
#     Node 95, Type 0, BuildingBlock: AZAVOO_clean_sbu_0, # of connection points: 4
#     Edge 96, Type (0, 0), BuildingBlock: XIVTED_clean_linker_0, # of connection points: 2
#     Edge 97, Type (0, 0), BuildingBlock: XIVTED_clean_linker_0, # of connection points: 2
#     Edge 98, Type (0, 0), BuildingBlock: XIVTED_clean_linker_0, # of connection points: 2
#     Edge 99, Type (0, 0), BuildingBlock: XIVTED_clean_linker_0, # of connection points: 2
#     Edge 100, Type (0, 0), BuildingBlock: XIVTED_clean_linker_0, # of connection points: 2
#     Edge 101, Type (0, 0), BuildingBlock: XIVTED_clean_linker_0, # of connection points: 2
#     Edge 102, Type (0, 0), BuildingBlock: XIVTED_clean_linker_0, # of connection points: 2
#     Edge 103, Type (0, 0), BuildingBlock: XIVTED_clean_linker_0, # of connection points: 2
#     Edge 104, Type (0, 0), BuildingBlock: XIVTED_clean_linker_0, # of connection points: 2
#     Edge 105, Type (0, 0), BuildingBlock: XIVTED_clean_linker_0, # of connection points: 2
#     Edge 106, Type (0, 0), BuildingBlock: XIVTED_clean_linker_0, # of connection points: 2
#     Edge 107, Type (0, 0), BuildingBlock: XIVTED_clean_linker_0, # of connection points: 2
#     Edge 108, Type (0, 0), BuildingBlock: XIVTED_clean_linker_0, # of connection points: 2
#     Edge 109, Type (0, 0), BuildingBlock: XIVTED_clean_linker_0, # of connection points: 2
#     Edge 110, Type (0, 0), BuildingBlock: XIVTED_clean_linker_0, # of connection points: 2
#     Edge 111, Type (0, 0), BuildingBlock: XIVTED_clean_linker_0, # of connection points: 2
#     Edge 112, Type (0, 0), BuildingBlock: XIVTED_clean_linker_0, # of connection points: 2
#     Edge 113, Type (0, 0), BuildingBlock: XIVTED_clean_linker_0, # of connection points: 2
#     Edge 114, Type (0, 0), BuildingBlock: XIVTED_clean_linker_0, # of connection points: 2
#     Edge 115, Type (0, 0), BuildingBlock: XIVTED_clean_linker_0, # of connection points: 2
#     Edge 116, Type (0, 0), BuildingBlock: XIVTED_clean_linker_0, # of connection points: 2
#     Edge 117, Type (0, 0), BuildingBlock: XIVTED_clean_linker_0, # of connection points: 2
#     Edge 118, Type (0, 0), BuildingBlock: XIVTED_clean_linker_0, # of connection points: 2
#     Edge 119, Type (0, 0), BuildingBlock: XIVTED_clean_linker_0, # of connection points: 2
#     Edge 120, Type (0, 0), BuildingBlock: XIVTED_clean_linker_0, # of connection points: 2
#     Edge 121, Type (0, 0), BuildingBlock: XIVTED_clean_linker_0, # of connection points: 2
#     Edge 122, Type (0, 0), BuildingBlock: XIVTED_clean_linker_0, # of connection points: 2
#     Edge 123, Type (0, 0), BuildingBlock: XIVTED_clean_linker_0, # of connection points: 2
#     Edge 124, Type (0, 0), BuildingBlock: XIVTED_clean_linker_0, # of connection points: 2
#     Edge 125, Type (0, 0), BuildingBlock: XIVTED_clean_linker_0, # of connection points: 2
#     Edge 126, Type (0, 0), BuildingBlock: XIVTED_clean_linker_0, # of connection points: 2
#     Edge 127, Type (0, 0), BuildingBlock: XIVTED_clean_linker_0, # of connection points: 2
#     Edge 128, Type (0, 0), BuildingBlock: XIVTED_clean_linker_0, # of connection points: 2
#     Edge 129, Type (0, 0), BuildingBlock: XIVTED_clean_linker_0, # of connection points: 2
#     Edge 130, Type (0, 0), BuildingBlock: XIVTED_clean_linker_0, # of connection points: 2
#     Edge 131, Type (0, 0), BuildingBlock: XIVTED_clean_linker_0, # of connection points: 2
#     Edge 132, Type (0, 0), BuildingBlock: XIVTED_clean_linker_0, # of connection points: 2
#     Edge 133, Type (0, 0), BuildingBlock: XIVTED_clean_linker_0, # of connection points: 2
#     Edge 134, Type (0, 0), BuildingBlock: XIVTED_clean_linker_0, # of connection points: 2
#     Edge 135, Type (0, 0), BuildingBlock: XIVTED_clean_linker_0, # of connection points: 2
#     Edge 136, Type (0, 0), BuildingBlock: XIVTED_clean_linker_0, # of connection points: 2
#     Edge 137, Type (0, 0), BuildingBlock: XIVTED_clean_linker_0, # of connection points: 2
#     Edge 138, Type (0, 0), BuildingBlock: XIVTED_clean_linker_0, # of connection points: 2
#     Edge 139, Type (0, 0), BuildingBlock: XIVTED_clean_linker_0, # of connection points: 2
#     Edge 140, Type (0, 0), BuildingBlock: XIVTED_clean_linker_0, # of connection points: 2
#     Edge 141, Type (0, 0), BuildingBlock: XIVTED_clean_linker_0, # of connection points: 2
#     Edge 142, Type (0, 0), BuildingBlock: XIVTED_clean_linker_0, # of connection points: 2
#     Edge 143, Type (0, 0), BuildingBlock: XIVTED_clean_linker_0, # of connection points: 2
#     Edge 144, Type (0, 0), BuildingBlock: XIVTED_clean_linker_0, # of connection points: 2
#     Edge 145, Type (0, 0), BuildingBlock: XIVTED_clean_linker_0, # of connection points: 2
#     Edge 146, Type (0, 0), BuildingBlock: XIVTED_clean_linker_0, # of connection points: 2
#     Edge 147, Type (0, 0), BuildingBlock: XIVTED_clean_linker_0, # of connection points: 2
#     Edge 148, Type (0, 0), BuildingBlock: XIVTED_clean_linker_0, # of connection points: 2
#     Edge 149, Type (0, 0), BuildingBlock: XIVTED_clean_linker_0, # of connection points: 2
#     Edge 150, Type (0, 0), BuildingBlock: XIVTED_clean_linker_0, # of connection points: 2
#     Edge 151, Type (0, 0), BuildingBlock: XIVTED_clean_linker_0, # of connection points: 2
#     Edge 152, Type (0, 0), BuildingBlock: XIVTED_clean_linker_0, # of connection points: 2
#     Edge 153, Type (0, 0), BuildingBlock: XIVTED_clean_linker_0, # of connection points: 2
#     Edge 154, Type (0, 0), BuildingBlock: XIVTED_clean_linker_0, # of connection points: 2
#     Edge 155, Type (0, 0), BuildingBlock: XIVTED_clean_linker_0, # of connection points: 2
#     Edge 156, Type (0, 0), BuildingBlock: XIVTED_clean_linker_0, # of connection points: 2
#     Edge 157, Type (0, 0), BuildingBlock: XIVTED_clean_linker_0, # of connection points: 2
#     Edge 158, Type (0, 0), BuildingBlock: XIVTED_clean_linker_0, # of connection points: 2
#     Edge 159, Type (0, 0), BuildingBlock: XIVTED_clean_linker_0, # of connection points: 2
#     Edge 160, Type (0, 0), BuildingBlock: XIVTED_clean_linker_0, # of connection points: 2
#     Edge 161, Type (0, 0), BuildingBlock: XIVTED_clean_linker_0, # of connection points: 2
#     Edge 162, Type (0, 0), BuildingBlock: XIVTED_clean_linker_0, # of connection points: 2
#     Edge 163, Type (0, 0), BuildingBlock: XIVTED_clean_linker_0, # of connection points: 2
#     Edge 164, Type (0, 0), BuildingBlock: XIVTED_clean_linker_0, # of connection points: 2
#     Edge 165, Type (0, 0), BuildingBlock: XIVTED_clean_linker_0, # of connection points: 2
#     Edge 166, Type (0, 0), BuildingBlock: XIVTED_clean_linker_0, # of connection points: 2
#     Edge 167, Type (0, 0), BuildingBlock: XIVTED_clean_linker_0, # of connection points: 2
#     Edge 168, Type (0, 0), BuildingBlock: XIVTED_clean_linker_0, # of connection points: 2
#     Edge 169, Type (0, 0), BuildingBlock: XIVTED_clean_linker_0, # of connection points: 2
#     Edge 170, Type (0, 0), BuildingBlock: XIVTED_clean_linker_0, # of connection points: 2
#     Edge 171, Type (0, 0), BuildingBlock: XIVTED_clean_linker_0, # of connection points: 2
#     Edge 172, Type (0, 0), BuildingBlock: XIVTED_clean_linker_0, # of connection points: 2
#     Edge 173, Type (0, 0), BuildingBlock: XIVTED_clean_linker_0, # of connection points: 2
#     Edge 174, Type (0, 0), BuildingBlock: XIVTED_clean_linker_0, # of connection points: 2
#     Edge 175, Type (0, 0), BuildingBlock: XIVTED_clean_linker_0, # of connection points: 2
#     Edge 176, Type (0, 0), BuildingBlock: XIVTED_clean_linker_0, # of connection points: 2
#     Edge 177, Type (0, 0), BuildingBlock: XIVTED_clean_linker_0, # of connection points: 2
#     Edge 178, Type (0, 0), BuildingBlock: XIVTED_clean_linker_0, # of connection points: 2
#     Edge 179, Type (0, 0), BuildingBlock: XIVTED_clean_linker_0, # of connection points: 2
#     Edge 180, Type (0, 0), BuildingBlock: XIVTED_clean_linker_0, # of connection points: 2
#     Edge 181, Type (0, 0), BuildingBlock: XIVTED_clean_linker_0, # of connection points: 2
#     Edge 182, Type (0, 0), BuildingBlock: XIVTED_clean_linker_0, # of connection points: 2
#     Edge 183, Type (0, 0), BuildingBlock: XIVTED_clean_linker_0, # of connection points: 2
#     Edge 184, Type (0, 0), BuildingBlock: XIVTED_clean_linker_0, # of connection points: 2
#     Edge 185, Type (0, 0), BuildingBlock: XIVTED_clean_linker_0, # of connection points: 2
#     Edge 186, Type (0, 0), BuildingBlock: XIVTED_clean_linker_0, # of connection points: 2
#     Edge 187, Type (0, 0), BuildingBlock: XIVTED_clean_linker_0, # of connection points: 2
#     Edge 188, Type (0, 0), BuildingBlock: XIVTED_clean_linker_0, # of connection points: 2
#     Edge 189, Type (0, 0), BuildingBlock: XIVTED_clean_linker_0, # of connection points: 2
#     Edge 190, Type (0, 0), BuildingBlock: XIVTED_clean_linker_0, # of connection points: 2
#     Edge 191, Type (0, 0), BuildingBlock: XIVTED_clean_linker_0, # of connection points: 2
#     Edge 192, Type (0, 0), BuildingBlock: XIVTED_clean_linker_0, # of connection points: 2
#     Edge 193, Type (0, 0), BuildingBlock: XIVTED_clean_linker_0, # of connection points: 2
#     Edge 194, Type (0, 0), BuildingBlock: XIVTED_clean_linker_0, # of connection points: 2
#     Edge 195, Type (0, 0), BuildingBlock: XIVTED_clean_linker_0, # of connection points: 2
#     Edge 196, Type (0, 0), BuildingBlock: XIVTED_clean_linker_0, # of connection points: 2
#     Edge 197, Type (0, 0), BuildingBlock: XIVTED_clean_linker_0, # of connection points: 2
#     Edge 198, Type (0, 0), BuildingBlock: XIVTED_clean_linker_0, # of connection points: 2
#     Edge 199, Type (0, 0), BuildingBlock: XIVTED_clean_linker_0, # of connection points: 2
#     Edge 200, Type (0, 0), BuildingBlock: XIVTED_clean_linker_0, # of connection points: 2
#     Edge 201, Type (0, 0), BuildingBlock: XIVTED_clean_linker_0, # of connection points: 2
#     Edge 202, Type (0, 0), BuildingBlock: XIVTED_clean_linker_0, # of connection points: 2
#     Edge 203, Type (0, 0), BuildingBlock: XIVTED_clean_linker_0, # of connection points: 2
#     Edge 204, Type (0, 0), BuildingBlock: XIVTED_clean_linker_0, # of connection points: 2
#     Edge 205, Type (0, 0), BuildingBlock: XIVTED_clean_linker_0, # of connection points: 2
#     Edge 206, Type (0, 0), BuildingBlock: XIVTED_clean_linker_0, # of connection points: 2
#     Edge 207, Type (0, 0), BuildingBlock: XIVTED_clean_linker_0, # of connection points: 2
#     Edge 208, Type (0, 0), BuildingBlock: XIVTED_clean_linker_0, # of connection points: 2
#     Edge 209, Type (0, 0), BuildingBlock: XIVTED_clean_linker_0, # of connection points: 2
#     Edge 210, Type (0, 0), BuildingBlock: XIVTED_clean_linker_0, # of connection points: 2
#     Edge 211, Type (0, 0), BuildingBlock: XIVTED_clean_linker_0, # of connection points: 2
#     Edge 212, Type (0, 0), BuildingBlock: XIVTED_clean_linker_0, # of connection points: 2
#     Edge 213, Type (0, 0), BuildingBlock: XIVTED_clean_linker_0, # of connection points: 2
#     Edge 214, Type (0, 0), BuildingBlock: XIVTED_clean_linker_0, # of connection points: 2
#     Edge 215, Type (0, 0), BuildingBlock: XIVTED_clean_linker_0, # of connection points: 2
#     Edge 216, Type (0, 0), BuildingBlock: XIVTED_clean_linker_0, # of connection points: 2
#     Edge 217, Type (0, 0), BuildingBlock: XIVTED_clean_linker_0, # of connection points: 2
#     Edge 218, Type (0, 0), BuildingBlock: XIVTED_clean_linker_0, # of connection points: 2
#     Edge 219, Type (0, 0), BuildingBlock: XIVTED_clean_linker_0, # of connection points: 2
#     Edge 220, Type (0, 0), BuildingBlock: XIVTED_clean_linker_0, # of connection points: 2
#     Edge 221, Type (0, 0), BuildingBlock: XIVTED_clean_linker_0, # of connection points: 2
#     Edge 222, Type (0, 0), BuildingBlock: XIVTED_clean_linker_0, # of connection points: 2
#     Edge 223, Type (0, 0), BuildingBlock: XIVTED_clean_linker_0, # of connection points: 2
#     Edge 224, Type (0, 0), BuildingBlock: XIVTED_clean_linker_0, # of connection points: 2
#     Edge 225, Type (0, 0), BuildingBlock: XIVTED_clean_linker_0, # of connection points: 2
#     Edge 226, Type (0, 0), BuildingBlock: XIVTED_clean_linker_0, # of connection points: 2
#     Edge 227, Type (0, 0), BuildingBlock: XIVTED_clean_linker_0, # of connection points: 2
#     Edge 228, Type (0, 0), BuildingBlock: XIVTED_clean_linker_0, # of connection points: 2
#     Edge 229, Type (0, 0), BuildingBlock: XIVTED_clean_linker_0, # of connection points: 2
#     Edge 230, Type (0, 0), BuildingBlock: XIVTED_clean_linker_0, # of connection points: 2
#     Edge 231, Type (0, 0), BuildingBlock: XIVTED_clean_linker_0, # of connection points: 2
#     Edge 232, Type (0, 0), BuildingBlock: XIVTED_clean_linker_0, # of connection points: 2
#     Edge 233, Type (0, 0), BuildingBlock: XIVTED_clean_linker_0, # of connection points: 2
#     Edge 234, Type (0, 0), BuildingBlock: XIVTED_clean_linker_0, # of connection points: 2
#     Edge 235, Type (0, 0), BuildingBlock: XIVTED_clean_linker_0, # of connection points: 2
#     Edge 236, Type (0, 0), BuildingBlock: XIVTED_clean_linker_0, # of connection points: 2
#     Edge 237, Type (0, 0), BuildingBlock: XIVTED_clean_linker_0, # of connection points: 2
#     Edge 238, Type (0, 0), BuildingBlock: XIVTED_clean_linker_0, # of connection points: 2
#     Edge 239, Type (0, 0), BuildingBlock: XIVTED_clean_linker_0, # of connection points: 2
#     Edge 240, Type (0, 0), BuildingBlock: XIVTED_clean_linker_0, # of connection points: 2
#     Edge 241, Type (0, 0), BuildingBlock: XIVTED_clean_linker_0, # of connection points: 2
#     Edge 242, Type (0, 0), BuildingBlock: XIVTED_clean_linker_0, # of connection points: 2
#     Edge 243, Type (0, 0), BuildingBlock: XIVTED_clean_linker_0, # of connection points: 2
#     Edge 244, Type (0, 0), BuildingBlock: XIVTED_clean_linker_0, # of connection points: 2
#     Edge 245, Type (0, 0), BuildingBlock: XIVTED_clean_linker_0, # of connection points: 2
#     Edge 246, Type (0, 0), BuildingBlock: XIVTED_clean_linker_0, # of connection points: 2
#     Edge 247, Type (0, 0), BuildingBlock: XIVTED_clean_linker_0, # of connection points: 2
#     Edge 248, Type (0, 0), BuildingBlock: XIVTED_clean_linker_0, # of connection points: 2
#     Edge 249, Type (0, 0), BuildingBlock: XIVTED_clean_linker_0, # of connection points: 2
#     Edge 250, Type (0, 0), BuildingBlock: XIVTED_clean_linker_0, # of connection points: 2
#     Edge 251, Type (0, 0), BuildingBlock: XIVTED_clean_linker_0, # of connection points: 2
#     Edge 252, Type (0, 0), BuildingBlock: XIVTED_clean_linker_0, # of connection points: 2
#     Edge 253, Type (0, 0), BuildingBlock: XIVTED_clean_linker_0, # of connection points: 2
#     Edge 254, Type (0, 0), BuildingBlock: XIVTED_clean_linker_0, # of connection points: 2
#     Edge 255, Type (0, 0), BuildingBlock: XIVTED_clean_linker_0, # of connection points: 2
#     Edge 256, Type (0, 0), BuildingBlock: XIVTED_clean_linker_0, # of connection points: 2
#     Edge 257, Type (0, 0), BuildingBlock: XIVTED_clean_linker_0, # of connection points: 2
#     Edge 258, Type (0, 0), BuildingBlock: XIVTED_clean_linker_0, # of connection points: 2
#     Edge 259, Type (0, 0), BuildingBlock: XIVTED_clean_linker_0, # of connection points: 2
#     Edge 260, Type (0, 0), BuildingBlock: XIVTED_clean_linker_0, # of connection points: 2
#     Edge 261, Type (0, 0), BuildingBlock: XIVTED_clean_linker_0, # of connection points: 2
#     Edge 262, Type (0, 0), BuildingBlock: XIVTED_clean_linker_0, # of connection points: 2
#     Edge 263, Type (0, 0), BuildingBlock: XIVTED_clean_linker_0, # of connection points: 2
#     Edge 264, Type (0, 0), BuildingBlock: XIVTED_clean_linker_0, # of connection points: 2
#     Edge 265, Type (0, 0), BuildingBlock: XIVTED_clean_linker_0, # of connection points: 2
#     Edge 266, Type (0, 0), BuildingBlock: XIVTED_clean_linker_0, # of connection points: 2
#     Edge 267, Type (0, 0), BuildingBlock: XIVTED_clean_linker_0, # of connection points: 2
#     Edge 268, Type (0, 0), BuildingBlock: XIVTED_clean_linker_0, # of connection points: 2
#     Edge 269, Type (0, 0), BuildingBlock: XIVTED_clean_linker_0, # of connection points: 2
#     Edge 270, Type (0, 0), BuildingBlock: XIVTED_clean_linker_0, # of connection points: 2
#     Edge 271, Type (0, 0), BuildingBlock: XIVTED_clean_linker_0, # of connection points: 2
#     Edge 272, Type (0, 0), BuildingBlock: XIVTED_clean_linker_0, # of connection points: 2
#     Edge 273, Type (0, 0), BuildingBlock: XIVTED_clean_linker_0, # of connection points: 2
#     Edge 274, Type (0, 0), BuildingBlock: XIVTED_clean_linker_0, # of connection points: 2
#     Edge 275, Type (0, 0), BuildingBlock: XIVTED_clean_linker_0, # of connection points: 2
#     Edge 276, Type (0, 0), BuildingBlock: XIVTED_clean_linker_0, # of connection points: 2
#     Edge 277, Type (0, 0), BuildingBlock: XIVTED_clean_linker_0, # of connection points: 2
#     Edge 278, Type (0, 0), BuildingBlock: XIVTED_clean_linker_0, # of connection points: 2
#     Edge 279, Type (0, 0), BuildingBlock: XIVTED_clean_linker_0, # of connection points: 2
#     Edge 280, Type (0, 0), BuildingBlock: XIVTED_clean_linker_0, # of connection points: 2
#     Edge 281, Type (0, 0), BuildingBlock: XIVTED_clean_linker_0, # of connection points: 2
#     Edge 282, Type (0, 0), BuildingBlock: XIVTED_clean_linker_0, # of connection points: 2
#     Edge 283, Type (0, 0), BuildingBlock: XIVTED_clean_linker_0, # of connection points: 2
#     Edge 284, Type (0, 0), BuildingBlock: XIVTED_clean_linker_0, # of connection points: 2
#     Edge 285, Type (0, 0), BuildingBlock: XIVTED_clean_linker_0, # of connection points: 2
#     Edge 286, Type (0, 0), BuildingBlock: XIVTED_clean_linker_0, # of connection points: 2
#     Edge 287, Type (0, 0), BuildingBlock: XIVTED_clean_linker_0, # of connection points: 2
# Relax obj value: 0.386
# Max RMSD: 0.323
# Mean RMSD: 0.301
data_MOF--net-hal--node1-AZAVOO_clean_sbu_0--edge1-XIVTED_clean_linker_0
_symmetry_space_group_name_H-M    P1
_symmetry_Int_Tables_number       1
_symmetry_cell_setting            triclinic
loop_
_symmetry_equiv_pos_as_xyz
'x, y, z'
_cell_length_a     91.484976
_cell_length_b     85.032395
_cell_length_c     84.995966
_cell_angle_alpha  89.987503
_cell_angle_beta   89.999546
_cell_angle_gamma 89.992202
loop_
_atom_site_label
_atom_site_type_symbol
_atom_site_fract_x
_atom_site_fract_y
_atom_site_fract_z
_atom_type_partial_charge
Mg0 Mg 0.06525 0.15828 0.27262 0.0
O1 O 0.0794 0.16494 0.29444 0.0
O2 O 0.077 0.19111 0.29677 0.0
Mg3 Mg 0.0627 0.20109 0.27744 0.0
C4 C 0.08203 0.17794 0.30155 0.0
C5 C 0.0722 0.12317 0.28647 0.0
O6 O 0.06758 0.10907 0.29034 0.0
O7 O 0.04516 0.16213 0.28773 0.0
O8 O 0.04413 0.18827 0.2902 0.0
O9 O 0.08446 0.1624 0.25612 0.0
O10 O 0.0686 0.18041 0.26369 0.0
C11 C 0.03925 0.17453 0.29324 0.0
C12 C 0.08036 0.17696 0.25629 0.0
O13 O 0.06357 0.13239 0.27933 0.0
Mg14 Mg 0.81766 0.09059 0.29822 0.0
O15 O 0.79848 0.10081 0.31154 0.0
O16 O 0.77797 0.08665 0.31011 0.0
Mg17 Mg 0.78503 0.06546 0.29546 0.0
C18 C 0.78505 0.09866 0.31481 0.0
C19 C 0.82823 0.12281 0.31099 0.0
O20 O 0.81611 0.12679 0.30373 0.0
O21 O 0.82096 0.07299 0.31823 0.0
O22 O 0.80031 0.0591 0.31587 0.0
O23 O 0.80966 0.10277 0.27668 0.0
O24 O 0.80275 0.07888 0.28382 0.0
C25 C 0.81228 0.06223 0.32295 0.0
C26 C 0.80115 0.09078 0.27461 0.0
O27 O 0.8324 0.10854 0.31052 0.0
Mg28 Mg 0.92693 0.80817 0.277 0.0
O29 O 0.91523 0.80118 0.29987 0.0
O30 O 0.92576 0.77961 0.30985 0.0
Mg31 Mg 0.94518 0.77382 0.29425 0.0
C32 C 0.91608 0.79041 0.31033 0.0
C33 C 0.90427 0.83488 0.26812 0.0
O34 O 0.90031 0.82472 0.25729 0.0
O35 O 0.9452 0.81897 0.29179 0.0
O36 O 0.95494 0.79727 0.3023 0.0
O37 O 0.91269 0.7917 0.26331 0.0
O38 O 0.93356 0.78481 0.27445 0.0
C39 C 0.95426 0.8122 0.30097 0.0
C40 C 0.92181 0.78072 0.26714 0.0
O41 O 0.91481 0.83151 0.27728 0.0
Mg42 Mg 0.18074 0.91702 0.29898 0.0
O43 O 0.19407 0.90335 0.31673 0.0
O44 O 0.21611 0.91378 0.321 0.0
Mg45 Mg 0.2166 0.93554 0.30531 0.0
C46 C 0.20644 0.90329 0.3236 0.0
C47 C 0.15725 0.89154 0.29668 0.0
O48 O 0.1627 0.89189 0.28239 0.0
O49 O 0.17605 0.93532 0.31796 0.0
O50 O 0.19838 0.94559 0.32088 0.0
O51 O 0.19067 0.90315 0.27957 0.0
O52 O 0.20049 0.9249 0.2891 0.0
C53 C 0.18488 0.94481 0.32468 0.0
C54 C 0.20153 0.91284 0.27998 0.0
O55 O 0.16127 0.90196 0.30647 0.0
Mg56 Mg 0.06411 0.82846 0.69905 0.0
O57 O 0.08442 0.82938 0.68279 0.0
O58 O 0.08393 0.80626 0.67008 0.0
Mg59 Mg 0.06518 0.79069 0.67839 0.0
C60 C 0.08966 0.81967 0.67279 0.0
C61 C 0.07026 0.86713 0.69991 0.0
O62 O 0.06413 0.88107 0.70099 0.0
O63 O 0.04895 0.83118 0.67826 0.0
O64 O 0.0481 0.80736 0.66736 0.0
O65 O 0.07706 0.81711 0.71903 0.0
O66 O 0.06566 0.80428 0.70031 0.0
C67 C 0.04375 0.82162 0.66819 0.0
C68 C 0.07353 0.80376 0.71276 0.0
O69 O 0.06223 0.85509 0.70161 0.0
Mg70 Mg 0.17399 0.07982 0.70007 0.0
O71 O 0.18928 0.08948 0.68146 0.0
O72 O 0.20915 0.0746 0.67817 0.0
Mg73 Mg 0.20672 0.05505 0.69652 0.0
C74 C 0.20141 0.08657 0.67469 0.0
C75 C 0.1431 0.09432 0.6895 0.0
O76 O 0.13761 0.08085 0.69423 0.0
O77 O 0.16665 0.05998 0.68376 0.0
O78 O 0.18681 0.04512 0.68332 0.0
O79 O 0.18551 0.09385 0.71836 0.0
O80 O 0.19211 0.06984 0.71115 0.0
C81 C 0.17352 0.04766 0.67938 0.0
C82 C 0.19471 0.08233 0.71927 0.0
O83 O 0.15676 0.0967 0.69063 0.0
Mg84 Mg 0.91941 0.18263 0.71907 0.0
O85 O 0.9068 0.19267 0.69788 0.0
O86 O 0.9187 0.21355 0.68833 0.0
Mg87 Mg 0.93939 0.21642 0.70286 0.0
C88 C 0.90803 0.20389 0.68795 0.0
C89 C 0.90692 0.1481 0.72496 0.0
O90 O 0.91956 0.1454 0.73179 0.0
O91 O 0.93532 0.17108 0.70196 0.0
O92 O 0.94665 0.1926 0.69292 0.0
O93 O 0.90861 0.19924 0.7358 0.0
O94 O 0.92897 0.20457 0.72283 0.0
C95 C 0.94464 0.17772 0.693 0.0
C96 C 0.91882 0.20915 0.73225 0.0
O97 O 0.90438 0.16148 0.71889 0.0
Mg98 Mg 0.83265 0.90687 0.70229 0.0
O99 O 0.82143 0.89065 0.6846 0.0
O100 O 0.7972 0.89343 0.68749 0.0
Mg101 Mg 0.79291 0.91123 0.70686 0.0
C102 C 0.80829 0.88731 0.68072 0.0
C103 C 0.86242 0.89866 0.67958 0.0
O104 O 0.87442 0.90535 0.67433 0.0
O105 O 0.82639 0.9272 0.68643 0.0
O106 O 0.80224 0.92947 0.6896 0.0
O107 O 0.8317 0.8878 0.72098 0.0
O108 O 0.81447 0.9054 0.7164 0.0
C109 C 0.81421 0.93371 0.68312 0.0
C110 C 0.8187 0.8931 0.72381 0.0
O111 O 0.85447 0.90644 0.68907 0.0
Mg112 Mg 0.31187 0.04534 0.17748 0.0
O113 O 0.3028 0.06512 0.16216 0.0
O114 O 0.28226 0.05663 0.15072 0.0
Mg115 Mg 0.2787 0.0311 0.15812 0.0
C116 C 0.29168 0.06739 0.15338 0.0
C117 C 0.33737 0.0679 0.18051 0.0
O118 O 0.33711 0.06436 0.16547 0.0
O119 O 0.29377 0.05028 0.19514 0.0
O120 O 0.274 0.04053 0.18308 0.0
O121 O 0.32504 0.03541 0.15771 0.0
O122 O 0.30223 0.02879 0.16294 0.0
C123 C 0.2801 0.04724 0.19485 0.0
C124 C 0.31357 0.02731 0.15407 0.0
O125 O 0.32751 0.06234 0.18943 0.0
Mg126 Mg 0.92397 0.29493 0.16946 0.0
O127 O 0.90815 0.31476 0.17594 0.0
O128 O 0.91165 0.32151 0.20104 0.0
Mg129 Mg 0.93019 0.30622 0.21054 0.0
C130 C 0.90488 0.32298 0.188 0.0
C131 C 0.92315 0.29189 0.132 0.0
O132 O 0.93382 0.28174 0.134 0.0
O133 O 0.94315 0.31206 0.16802 0.0
O134 O 0.94668 0.31751 0.19346 0.0
O135 O 0.90762 0.2772 0.17819 0.0
O136 O 0.92471 0.28823 0.19294 0.0
C137 C 0.95023 0.31895 0.17898 0.0
C138 C 0.91334 0.2794 0.19194 0.0
O139 O 0.91791 0.29898 0.14388 0.0
Mg140 Mg 0.67909 0.94399 0.18454 0.0
O141 O 0.6889 0.92515 0.16874 0.0
O142 O 0.70882 0.93447 0.15677 0.0
Mg143 Mg 0.71117 0.96014 0.16451 0.0
C144 C 0.69985 0.92333 0.15963 0.0
C145 C 0.66041 0.92449 0.20991 0.0
O146 O 0.6646 0.93517 0.22012 0.0
O147 O 0.69774 0.93999 0.20189 0.0
O148 O 0.7166 0.95116 0.1894 0.0
O149 O 0.66515 0.95342 0.16506 0.0
O150 O 0.68767 0.96131 0.17016 0.0
C151 C 0.71118 0.94407 0.20132 0.0
C152 C 0.67619 0.96223 0.16144 0.0
O153 O 0.66484 0.92529 0.19576 0.0
Mg154 Mg 0.07684 0.70927 0.16685 0.0
O155 O 0.09706 0.69307 0.16521 0.0
O156 O 0.09938 0.68285 0.18944 0.0
Mg157 Mg 0.08113 0.69068 0.20566 0.0
C158 C 0.10379 0.68453 0.17528 0.0
C159 C 0.07993 0.70911 0.1272 0.0
O160 O 0.07231 0.71052 0.11416 0.0
O161 O 0.06258 0.68757 0.16612 0.0
O162 O 0.06478 0.67713 0.1901 0.0
O163 O 0.0901 0.73002 0.17608 0.0
O164 O 0.08035 0.71146 0.19071 0.0
C165 C 0.0594 0.67704 0.17622 0.0
C166 C 0.08824 0.72386 0.18987 0.0
O167 O 0.07336 0.71114 0.14022 0.0
Mg168 Mg 0.32754 0.94404 0.79208 0.0
O169 O 0.32985 0.91911 0.80359 0.0
O170 O 0.31456 0.91956 0.8243 0.0
Mg171 Mg 0.30252 0.94298 0.82562 0.0
C172 C 0.32406 0.91265 0.81573 0.0
C173 C 0.3454 0.92685 0.76418 0.0
O174 O 0.34929 0.92514 0.74941 0.0
O175 O 0.30595 0.93658 0.78202 0.0
O176 O 0.29051 0.93683 0.80233 0.0
O177 O 0.34504 0.95441 0.80733 0.0
O178 O 0.32176 0.95269 0.81373 0.0
C179 C 0.2932 0.93477 0.7877 0.0
C180 C 0.33478 0.95699 0.81751 0.0
O181 O 0.33792 0.93869 0.76821 0.0
Mg182 Mg 0.06884 0.28443 0.8166 0.0
O183 O 0.09066 0.29753 0.82113 0.0
O184 O 0.09118 0.31568 0.80192 0.0
Mg185 Mg 0.07229 0.31338 0.78491 0.0
C186 C 0.09654 0.30932 0.81424 0.0
C187 C 0.07569 0.27298 0.85272 0.0
O188 O 0.07197 0.26489 0.86525 0.0
O189 O 0.05679 0.30602 0.82549 0.0
O190 O 0.05802 0.32266 0.80519 0.0
O191 O 0.07996 0.26659 0.80153 0.0
O192 O 0.07089 0.28893 0.79272 0.0
C193 C 0.05382 0.31923 0.81912 0.0
C194 C 0.07799 0.27617 0.78987 0.0
O195 O 0.06727 0.27301 0.84087 0.0
Mg196 Mg 0.68236 0.05167 0.81353 0.0
O197 O 0.68978 0.06955 0.83181 0.0
O198 O 0.70979 0.06025 0.84363 0.0
Mg199 Mg 0.71322 0.03487 0.83503 0.0
C200 C 0.70041 0.07116 0.84139 0.0
C201 C 0.66155 0.06816 0.78913 0.0
O202 O 0.66177 0.05421 0.78249 0.0
O203 O 0.70227 0.05769 0.79873 0.0
O204 O 0.72018 0.04434 0.81078 0.0
O205 O 0.66708 0.03926 0.83015 0.0
O206 O 0.69041 0.03358 0.82699 0.0
C207 C 0.71543 0.05274 0.79938 0.0
C208 C 0.6782 0.03058 0.83384 0.0
O209 O 0.66888 0.0705 0.80161 0.0
Mg210 Mg 0.9295 0.71155 0.82694 0.0
O211 O 0.90845 0.69673 0.83165 0.0
O212 O 0.90552 0.68356 0.80892 0.0
Mg213 Mg 0.92297 0.68919 0.79079 0.0
C214 C 0.90142 0.68709 0.82285 0.0
C215 C 0.92808 0.72018 0.86502 0.0
O216 O 0.93484 0.72609 0.8773 0.0
O217 O 0.94345 0.68966 0.82935 0.0
O218 O 0.94083 0.67761 0.80621 0.0
O219 O 0.91637 0.73165 0.81738 0.0
O220 O 0.92423 0.7115 0.8034 0.0
C221 C 0.94674 0.67865 0.8198 0.0
C222 C 0.91681 0.72433 0.80404 0.0
O223 O 0.93506 0.7186 0.85223 0.0
Mg224 Mg 0.15708 0.28684 0.08821 0.0
O225 O 0.16839 0.30648 0.10202 0.0
O226 O 0.19262 0.30283 0.10069 0.0
Mg227 Mg 0.19686 0.28099 0.08593 0.0
C228 C 0.18148 0.31059 0.10534 0.0
C229 C 0.12827 0.31115 0.09349 0.0
O230 O 0.11675 0.31714 0.08646 0.0
O231 O 0.16418 0.29917 0.06593 0.0
O232 O 0.18833 0.29544 0.06499 0.0
O233 O 0.15715 0.27113 0.10986 0.0
O234 O 0.17496 0.27265 0.09243 0.0
C235 C 0.17656 0.30128 0.0594 0.0
C236 C 0.17026 0.26738 0.10561 0.0
O237 O 0.13573 0.30091 0.08608 0.0
Mg238 Mg 0.17823 0.70919 0.90947 0.0
O239 O 0.17343 0.69033 0.89029 0.0
O240 O 0.19393 0.67579 0.88966 0.0
Mg241 Mg 0.21116 0.68503 0.90681 0.0
C242 C 0.18102 0.67888 0.88485 0.0
C243 C 0.14131 0.72037 0.9117 0.0
O244 O 0.13347 0.72547 0.92361 0.0
O245 O 0.17567 0.69064 0.92823 0.0
O246 O 0.19684 0.67763 0.9282 0.0
O247 O 0.18773 0.72634 0.89217 0.0
O248 O 0.20034 0.70793 0.90428 0.0
C249 C 0.18417 0.68029 0.93402 0.0
C250 C 0.20021 0.71953 0.89456 0.0
O251 O 0.15462 0.71684 0.91415 0.0
Mg252 Mg 0.30807 0.18755 0.94227 0.0
O253 O 0.30212 0.16703 0.92613 0.0
O254 O 0.28053 0.15742 0.93381 0.0
Mg255 Mg 0.27332 0.17098 0.95566 0.0
C256 C 0.29143 0.15752 0.92442 0.0
C257 C 0.33663 0.18627 0.92334 0.0
O258 O 0.33665 0.1725 0.93037 0.0
O259 O 0.29084 0.2023 0.92991 0.0
O260 O 0.26996 0.19251 0.93953 0.0
O261 O 0.31969 0.17216 0.95954 0.0
O262 O 0.29613 0.17772 0.96039 0.0
C263 C 0.27691 0.20231 0.93089 0.0
C264 C 0.30716 0.1705 0.96642 0.0
O265 O 0.32583 0.19543 0.92539 0.0
Mg266 Mg 0.82456 0.29322 0.91735 0.0
O267 O 0.81843 0.31425 0.90151 0.0
O268 O 0.79678 0.32311 0.90985 0.0
Mg269 Mg 0.78879 0.30771 0.93003 0.0
C270 C 0.80777 0.32393 0.90063 0.0
C271 C 0.85424 0.28264 0.90262 0.0
O272 O 0.84737 0.26908 0.90212 0.0
O273 O 0.8298 0.30985 0.93758 0.0
O274 O 0.80752 0.31729 0.94538 0.0
O275 O 0.81337 0.27646 0.90113 0.0
O276 O 0.80256 0.2885 0.92105 0.0
C277 C 0.82143 0.31753 0.94681 0.0
C278 C 0.80156 0.27937 0.90901 0.0
O279 O 0.84783 0.29453 0.90848 0.0
Mg280 Mg 0.68351 0.80676 0.94572 0.0
O281 O 0.69212 0.82401 0.92737 0.0
O282 O 0.71198 0.83594 0.93693 0.0
Mg283 Mg 0.71557 0.82668 0.96188 0.0
C284 C 0.70276 0.83359 0.9259 0.0
C285 C 0.65918 0.80476 0.92177 0.0
O286 O 0.65907 0.81952 0.92632 0.0
O287 O 0.70242 0.79038 0.93993 0.0
O288 O 0.7215 0.80261 0.95093 0.0
O289 O 0.66929 0.82502 0.95662 0.0
O290 O 0.69218 0.82056 0.96355 0.0
C291 C 0.71601 0.79106 0.94331 0.0
C292 C 0.68041 0.82873 0.96523 0.0
O293 O 0.66881 0.79557 0.92736 0.0
Mg294 Mg 0.8188 0.68814 0.08832 0.0
O295 O 0.80074 0.67618 0.10243 0.0
O296 O 0.77928 0.6779 0.08992 0.0
Mg297 Mg 0.78397 0.69109 0.06711 0.0
C298 C 0.78703 0.67353 0.1016 0.0
C299 C 0.84618 0.68663 0.10835 0.0
O300 O 0.84617 0.70086 0.10232 0.0
O301 O 0.81962 0.66729 0.07135 0.0
O302 O 0.79807 0.67022 0.05925 0.0
O303 O 0.81289 0.71073 0.1001 0.0
O304 O 0.80325 0.70245 0.07769 0.0
C305 C 0.81006 0.6628 0.06136 0.0
C306 C 0.80339 0.71256 0.08895 0.0
O307 O 0.83598 0.67726 0.1045 0.0
Mg308 Mg 0.31555 0.81079 0.05306 0.0
O309 O 0.30237 0.82502 0.07078 0.0
O310 O 0.27988 0.82997 0.06174 0.0
Mg311 Mg 0.27843 0.81748 0.03805 0.0
C312 C 0.28967 0.83103 0.07238 0.0
C313 C 0.33961 0.81657 0.07952 0.0
O314 O 0.3367 0.83145 0.07679 0.0
O315 O 0.30309 0.78903 0.061 0.0
O316 O 0.28066 0.79444 0.05193 0.0
O317 O 0.32256 0.83251 0.03991 0.0
O318 O 0.30228 0.81932 0.03512 0.0
C319 C 0.2896 0.78562 0.05938 0.0
C320 C 0.31053 0.83117 0.032 0.0
O321 O 0.33297 0.806 0.07171 0.0
Mg322 Mg 0.6752 0.18419 0.06264 0.0
O323 O 0.68901 0.16777 0.07749 0.0
O324 O 0.70831 0.15846 0.06437 0.0
Mg325 Mg 0.70688 0.17022 0.04018 0.0
C326 C 0.70062 0.1595 0.07684 0.0
C327 C 0.65657 0.18071 0.09298 0.0
O328 O 0.65805 0.16585 0.08906 0.0
O329 O 0.69232 0.20321 0.06678 0.0
O330 O 0.71116 0.19368 0.05288 0.0
O331 O 0.66218 0.16443 0.05208 0.0
O332 O 0.68308 0.17344 0.04263 0.0
C333 C 0.70546 0.20413 0.0618 0.0
C334 C 0.67249 0.16353 0.0417 0.0
O335 O 0.66252 0.19123 0.08449 0.0
Mg336 Mg 0.9267 0.77355 0.67296 0.0
O337 O 0.90599 0.78896 0.66797 0.0
O338 O 0.90568 0.80532 0.68877 0.0
Mg339 Mg 0.92471 0.8017 0.70541 0.0
C340 C 0.90015 0.80011 0.67599 0.0
C341 C 0.92223 0.75949 0.63658 0.0
O342 O 0.92774 0.75051 0.62549 0.0
O343 O 0.94103 0.79373 0.66534 0.0
O344 O 0.94076 0.80998 0.68594 0.0
O345 O 0.91359 0.75632 0.68673 0.0
O346 O 0.92382 0.77757 0.69671 0.0
C347 C 0.94523 0.80627 0.67217 0.0
C348 C 0.91567 0.76539 0.69874 0.0
O349 O 0.9296 0.76181 0.64898 0.0
Mg350 Mg 0.17066 0.92768 0.71991 0.0
O351 O 0.17057 0.90868 0.70062 0.0
O352 O 0.18268 0.91875 0.68005 0.0
Mg353 Mg 0.19086 0.94345 0.68604 0.0
C354 C 0.17539 0.90769 0.68655 0.0
C355 C 0.15971 0.89668 0.74116 0.0
O356 O 0.16046 0.88949 0.75482 0.0
O357 O 0.19438 0.9228 0.72469 0.0
O358 O 0.20676 0.93383 0.70498 0.0
O359 O 0.15 0.93929 0.71035 0.0
O360 O 0.17233 0.94463 0.70248 0.0
C361 C 0.20638 0.92646 0.71808 0.0
C362 C 0.15855 0.94687 0.7009 0.0
O363 O 0.1658 0.91007 0.73979 0.0
Mg364 Mg 0.06134 0.21861 0.66438 0.0
O365 O 0.0776 0.19772 0.66674 0.0
O366 O 0.07579 0.19054 0.69213 0.0
Mg367 Mg 0.06096 0.20679 0.70592 0.0
C368 C 0.08083 0.18862 0.67826 0.0
C369 C 0.06714 0.21049 0.62739 0.0
O370 O 0.06242 0.20978 0.61282 0.0
O371 O 0.04317 0.20057 0.66642 0.0
O372 O 0.04277 0.19446 0.692 0.0
O373 O 0.07853 0.23694 0.67028 0.0
O374 O 0.06507 0.22399 0.68747 0.0
C375 C 0.03796 0.19283 0.67798 0.0
C376 C 0.07538 0.23383 0.6848 0.0
O377 O 0.05911 0.21685 0.63775 0.0
Mg378 Mg 0.80438 0.05502 0.68406 0.0
O379 O 0.79663 0.07441 0.6678 0.0
O380 O 0.77642 0.06643 0.65543 0.0
Mg381 Mg 0.77236 0.04079 0.66277 0.0
C382 C 0.78605 0.0769 0.65836 0.0
C383 C 0.83042 0.06766 0.70374 0.0
O384 O 0.83356 0.05258 0.70379 0.0
O385 O 0.7854 0.06012 0.70041 0.0
O386 O 0.76659 0.04873 0.68798 0.0
O387 O 0.81855 0.04479 0.66536 0.0
O388 O 0.79552 0.03818 0.66938 0.0
C389 C 0.77204 0.05587 0.69986 0.0
C390 C 0.80735 0.03636 0.66137 0.0
O391 O 0.81891 0.07235 0.69681 0.0
Mg392 Mg 0.9253 0.23002 0.32234 0.0
O393 O 0.90577 0.21414 0.32934 0.0
O394 O 0.90375 0.19683 0.3095 0.0
Mg395 Mg 0.91995 0.2019 0.29004 0.0
C396 C 0.89979 0.20219 0.32285 0.0
C397 C 0.92235 0.23837 0.35981 0.0
O398 O 0.9272 0.24531 0.37257 0.0
O399 O 0.94079 0.20987 0.32788 0.0
O400 O 0.93796 0.19411 0.30707 0.0
O401 O 0.91073 0.24706 0.30966 0.0
O402 O 0.92057 0.22604 0.29884 0.0
C403 C 0.94407 0.19749 0.32016 0.0
C404 C 0.91226 0.23815 0.29741 0.0
O405 O 0.9291 0.24033 0.34692 0.0
Mg406 Mg 0.8129 0.94514 0.30623 0.0
O407 O 0.80466 0.92615 0.32287 0.0
O408 O 0.78572 0.93538 0.33666 0.0
Mg409 Mg 0.78231 0.96095 0.3292 0.0
C410 C 0.79453 0.92432 0.33302 0.0
C411 C 0.83659 0.92055 0.30168 0.0
O412 O 0.83776 0.92475 0.3165 0.0
O413 O 0.79294 0.94098 0.29064 0.0
O414 O 0.77501 0.95178 0.30494 0.0
O415 O 0.82818 0.95468 0.32441 0.0
O416 O 0.8053 0.96237 0.32158 0.0
C417 C 0.77954 0.94481 0.29253 0.0
C418 C 0.81742 0.96327 0.32924 0.0
O419 O 0.82659 0.92674 0.29334 0.0
Mg420 Mg 0.06759 0.77638 0.32013 0.0
O421 O 0.08752 0.79273 0.32381 0.0
O422 O 0.08834 0.80663 0.30133 0.0
Mg423 Mg 0.07029 0.80029 0.28432 0.0
C424 C 0.09329 0.80317 0.31493 0.0
C425 C 0.07315 0.77172 0.35824 0.0
O426 O 0.06845 0.76623 0.37177 0.0
O427 O 0.0525 0.79723 0.32448 0.0
O428 O 0.05381 0.81053 0.30189 0.0
O429 O 0.08155 0.75788 0.30847 0.0
O430 O 0.07082 0.77743 0.29598 0.0
C431 C 0.04872 0.80875 0.31576 0.0
C432 C 0.07943 0.76548 0.29547 0.0
O433 O 0.06553 0.76941 0.34599 0.0
Mg434 Mg 0.18487 0.06479 0.30668 0.0
O435 O 0.19917 0.07918 0.32285 0.0
O436 O 0.21647 0.06525 0.33501 0.0
Mg437 Mg 0.2137 0.04058 0.32454 0.0
C438 C 0.20994 0.07822 0.33227 0.0
C439 C 0.16982 0.097 0.30815 0.0
O440 O 0.17312 0.09422 0.32293 0.0
O441 O 0.20315 0.06556 0.28854 0.0
O442 O 0.22004 0.05042 0.30016 0.0
O443 O 0.17007 0.05754 0.32633 0.0
O444 O 0.19033 0.04499 0.31963 0.0
C445 C 0.21571 0.05897 0.28867 0.0
C446 C 0.17927 0.04628 0.32892 0.0
O447 O 0.17395 0.08722 0.29771 0.0
Mg448 Mg 0.70186 0.89864 0.79008 0.0
O449 O 0.70913 0.88556 0.81223 0.0
O450 O 0.7305 0.8952 0.82059 0.0
Mg451 Mg 0.73664 0.91509 0.8039 0.0
C452 C 0.71974 0.88573 0.82198 0.0
C453 C 0.66999 0.88679 0.78147 0.0
O454 O 0.67318 0.89308 0.76777 0.0
O455 O 0.69499 0.91905 0.80597 0.0
O456 O 0.7167 0.92812 0.81389 0.0
O457 O 0.71454 0.88205 0.77478 0.0
O458 O 0.72375 0.90366 0.78524 0.0
C459 C 0.70274 0.92853 0.8141 0.0
C460 C 0.7258 0.89088 0.77738 0.0
O461 O 0.67931 0.88746 0.79255 0.0
Mg462 Mg 0.07462 0.67731 0.78695 0.0
O463 O 0.08289 0.69081 0.80828 0.0
O464 O 0.07075 0.71322 0.81189 0.0
Mg465 Mg 0.05248 0.71256 0.79351 0.0
C466 C 0.08087 0.70363 0.81569 0.0
C467 C 0.10249 0.66043 0.79761 0.0
O468 O 0.10644 0.67527 0.79718 0.0
O469 O 0.05543 0.66783 0.80136 0.0
O470 O 0.04313 0.69028 0.80518 0.0
O471 O 0.08879 0.69226 0.7715 0.0
O472 O 0.06591 0.69803 0.77759 0.0
C473 C 0.04475 0.67549 0.80727 0.0
C474 C 0.0779 0.70195 0.77071 0.0
O475 O 0.08942 0.65686 0.79397 0.0
Mg476 Mg 0.30997 0.07963 0.79715 0.0
O477 O 0.29941 0.09408 0.81674 0.0
O478 O 0.27841 0.08309 0.82436 0.0
Mg479 Mg 0.27554 0.06116 0.80925 0.0
C480 C 0.28812 0.09381 0.82553 0.0
C481 C 0.32953 0.10862 0.8004 0.0
O482 O 0.31642 0.11484 0.79949 0.0
O483 O 0.31689 0.06205 0.81585 0.0
O484 O 0.29557 0.05087 0.82223 0.0
O485 O 0.29802 0.09253 0.77849 0.0
O486 O 0.28939 0.07148 0.79068 0.0
C487 C 0.30941 0.05225 0.82389 0.0
C488 C 0.28741 0.08272 0.78072 0.0
O489 O 0.3309 0.09375 0.79984 0.0
Mg490 Mg 0.93446 0.3379 0.79948 0.0
O491 O 0.92843 0.32123 0.81953 0.0
O492 O 0.94144 0.29903 0.82031 0.0
Mg493 Mg 0.95883 0.30344 0.8016 0.0
C494 C 0.93131 0.30786 0.82557 0.0
C495 C 0.90609 0.3509 0.81375 0.0
O496 O 0.904 0.33564 0.81381 0.0
O497 O 0.95287 0.34695 0.815 0.0
O498 O 0.96613 0.32484 0.81616 0.0
O499 O 0.92077 0.32451 0.78246 0.0
O500 O 0.94368 0.31837 0.78804 0.0
C501 C 0.96368 0.33907 0.82025 0.0
C502 C 0.93164 0.31492 0.78096 0.0
O503 O 0.91823 0.35625 0.80872 0.0
Mg504 Mg 0.68677 0.08927 0.19526 0.0
O505 O 0.7029 0.10128 0.17911 0.0
O506 O 0.72385 0.08814 0.17616 0.0
Mg507 Mg 0.72054 0.06614 0.19113 0.0
C508 C 0.71565 0.09991 0.17327 0.0
C509 C 0.65963 0.10534 0.17673 0.0
O510 O 0.65711 0.09132 0.17085 0.0
O511 O 0.68143 0.07195 0.17555 0.0
O512 O 0.70266 0.05899 0.17357 0.0
O513 O 0.69733 0.10122 0.21555 0.0
O514 O 0.70429 0.07805 0.20635 0.0
C515 C 0.68959 0.06169 0.16897 0.0
C516 C 0.70662 0.08972 0.21569 0.0
O517 O 0.66985 0.1072 0.1867 0.0
Mg518 Mg 0.93796 0.64766 0.2211 0.0
O519 O 0.92236 0.65467 0.20042 0.0
O520 O 0.92764 0.68004 0.19587 0.0
Mg521 Mg 0.94603 0.68878 0.21125 0.0
C522 C 0.92019 0.66766 0.19308 0.0
C523 C 0.92646 0.61231 0.21084 0.0
O524 O 0.92909 0.59713 0.21037 0.0
O525 O 0.95686 0.64623 0.20387 0.0
O526 O 0.96107 0.6715 0.19829 0.0
O527 O 0.92148 0.65641 0.23895 0.0
O528 O 0.9386 0.67092 0.2278 0.0
C529 C 0.96381 0.65688 0.19647 0.0
C530 C 0.92729 0.6701 0.23667 0.0
O531 O 0.93526 0.62114 0.21823 0.0
Mg532 Mg 0.30872 0.90318 0.19163 0.0
O533 O 0.29313 0.88854 0.17696 0.0
O534 O 0.27113 0.89956 0.1742 0.0
Mg535 Mg 0.2728 0.92239 0.1882 0.0
C536 C 0.28015 0.88845 0.17153 0.0
C537 C 0.3254 0.87282 0.1832 0.0
O538 O 0.31359 0.86724 0.19001 0.0
O539 O 0.31137 0.9196 0.17058 0.0
O540 O 0.28915 0.93054 0.16944 0.0
O541 O 0.30068 0.89171 0.21373 0.0
O542 O 0.29066 0.91277 0.20283 0.0
C543 C 0.30211 0.92879 0.16411 0.0
C544 C 0.29022 0.90195 0.2134 0.0
O545 O 0.32729 0.88763 0.18271 0.0
Mg546 Mg 0.07317 0.31177 0.2238 0.0
O547 O 0.09225 0.31871 0.20717 0.0
O548 O 0.09129 0.29996 0.18857 0.0
Mg549 Mg 0.07282 0.28257 0.1921 0.0
C550 C 0.09712 0.31216 0.19465 0.0
C551 C 0.07905 0.34773 0.24028 0.0
O552 O 0.07413 0.35692 0.25152 0.0
O553 O 0.05668 0.32137 0.20614 0.0
O554 O 0.05595 0.30238 0.188 0.0
O555 O 0.08775 0.29567 0.23772 0.0
O556 O 0.07511 0.28838 0.21694 0.0
C557 C 0.05147 0.31553 0.19348 0.0
C558 C 0.08434 0.28475 0.22776 0.0
O559 O 0.07256 0.33473 0.23789 0.0
Mg560 Mg 0.81473 0.68375 0.94045 0.0
O561 O 0.80763 0.6665 0.92174 0.0
O562 O 0.78794 0.65294 0.92901 0.0
Mg563 Mg 0.78232 0.66236 0.95358 0.0
C564 C 0.79795 0.65613 0.91905 0.0
C565 C 0.83801 0.68528 0.915 0.0
O566 O 0.83757 0.6703 0.91874 0.0
O567 O 0.79589 0.70001 0.93404 0.0
O568 O 0.77657 0.68672 0.94314 0.0
O569 O 0.82856 0.66544 0.95182 0.0
O570 O 0.80532 0.66958 0.95768 0.0
C571 C 0.78217 0.69883 0.93654 0.0
C572 C 0.81708 0.66147 0.95979 0.0
O573 O 0.82974 0.69485 0.92229 0.0
Mg574 Mg 0.81652 0.28743 0.07144 0.0
O575 O 0.81519 0.30711 0.09007 0.0
O576 O 0.80015 0.32503 0.0794 0.0
Mg577 Mg 0.79424 0.31865 0.05406 0.0
C578 C 0.80805 0.32004 0.09077 0.0
C579 C 0.83477 0.26262 0.09358 0.0
O580 O 0.83461 0.25024 0.10283 0.0
O581 O 0.79294 0.28109 0.07612 0.0
O582 O 0.77933 0.29865 0.06325 0.0
O583 O 0.83677 0.29782 0.06036 0.0
O584 O 0.81413 0.30413 0.0542 0.0
C585 C 0.78055 0.28619 0.07157 0.0
C586 C 0.82788 0.30641 0.0522 0.0
O587 O 0.82266 0.26845 0.0892 0.0
Mg588 Mg 0.68965 0.79327 0.09094 0.0
O589 O 0.70068 0.81228 0.10579 0.0
O590 O 0.72214 0.81923 0.09537 0.0
Mg591 Mg 0.72423 0.80542 0.07257 0.0
C592 C 0.71235 0.82051 0.10597 0.0
C593 C 0.67008 0.79543 0.12057 0.0
O594 O 0.68315 0.79448 0.12688 0.0
O595 O 0.68254 0.81283 0.07411 0.0
O596 O 0.70436 0.81955 0.0642 0.0
O597 O 0.70253 0.77441 0.103 0.0
O598 O 0.70979 0.78697 0.08163 0.0
C599 C 0.69055 0.82153 0.06537 0.0
C600 C 0.71254 0.77691 0.09252 0.0
O601 O 0.66887 0.79546 0.10566 0.0
Mg602 Mg 0.18796 0.70719 0.06389 0.0
O603 O 0.18256 0.69004 0.08375 0.0
O604 O 0.1967 0.66909 0.07852 0.0
Mg605 Mg 0.20699 0.67068 0.05401 0.0
C606 C 0.18779 0.6766 0.08735 0.0
C607 C 0.17517 0.73346 0.0903 0.0
O608 O 0.17662 0.74804 0.09518 0.0
O609 O 0.2109 0.70913 0.07343 0.0
O610 O 0.22348 0.68873 0.06388 0.0
O611 O 0.16873 0.69977 0.04889 0.0
O612 O 0.19035 0.68853 0.04869 0.0
C613 C 0.22285 0.70167 0.07147 0.0
C614 C 0.17729 0.68904 0.04322 0.0
O615 O 0.18251 0.72916 0.07834 0.0
Mg616 Mg 0.28657 0.20944 0.10495 0.0
O617 O 0.28007 0.18599 0.11597 0.0
O618 O 0.25791 0.17867 0.10765 0.0
Mg619 Mg 0.25022 0.19768 0.09061 0.0
C620 C 0.26946 0.17626 0.11575 0.0
C621 C 0.31205 0.20142 0.12763 0.0
O622 O 0.30067 0.1993 0.1368 0.0
O623 O 0.29138 0.19567 0.08239 0.0
O624 O 0.2688 0.18925 0.07465 0.0
O625 O 0.27529 0.22306 0.12416 0.0
O626 O 0.26454 0.21466 0.10246 0.0
C627 C 0.28265 0.18884 0.07284 0.0
C628 C 0.26345 0.22122 0.11604 0.0
O629 O 0.31003 0.20601 0.11356 0.0
Mg630 Mg 0.18572 0.31064 0.92527 0.0
O631 O 0.19488 0.33259 0.91391 0.0
O632 O 0.21491 0.34093 0.92642 0.0
Mg633 Mg 0.21784 0.32419 0.94722 0.0
C634 C 0.20547 0.3422 0.91546 0.0
C635 C 0.16334 0.31667 0.89805 0.0
O636 O 0.16333 0.33067 0.90458 0.0
O637 O 0.20442 0.29599 0.9154 0.0
O638 O 0.22328 0.30412 0.93005 0.0
O639 O 0.17175 0.32502 0.94125 0.0
O640 O 0.19442 0.31776 0.94658 0.0
C641 C 0.21787 0.29529 0.91937 0.0
C642 C 0.18282 0.32527 0.95074 0.0
O643 O 0.17157 0.30601 0.9037 0.0
Mg644 Mg 0.68691 0.20251 0.91152 0.0
O645 O 0.6974 0.1828 0.89701 0.0
O646 O 0.71936 0.17649 0.90655 0.0
Mg647 Mg 0.72287 0.19235 0.92785 0.0
C648 C 0.70902 0.17452 0.89667 0.0
C649 C 0.66695 0.19896 0.88347 0.0
O650 O 0.68007 0.20083 0.87748 0.0
O651 O 0.68153 0.18396 0.93011 0.0
O652 O 0.70391 0.17883 0.93941 0.0
O653 O 0.69763 0.22128 0.89737 0.0
O654 O 0.70775 0.21004 0.91814 0.0
C655 C 0.69011 0.17646 0.93931 0.0
C656 C 0.70882 0.21972 0.90652 0.0
O657 O 0.66547 0.19883 0.89835 0.0
Mg658 Mg 0.30634 0.79868 0.9111 0.0
O659 O 0.31278 0.81372 0.88925 0.0
O660 O 0.29162 0.82466 0.88154 0.0
Mg661 Mg 0.27246 0.81645 0.8969 0.0
C662 C 0.3054 0.82263 0.88 0.0
C663 C 0.34177 0.79143 0.91911 0.0
O664 O 0.35148 0.79012 0.93042 0.0
O665 O 0.30365 0.82117 0.92462 0.0
O666 O 0.28154 0.8304 0.91845 0.0
O667 O 0.30185 0.77675 0.89709 0.0
O668 O 0.28581 0.7955 0.90152 0.0
C669 C 0.29336 0.83107 0.92646 0.0
C670 C 0.28868 0.78204 0.89532 0.0
O671 O 0.32895 0.79598 0.92257 0.0
Mg672 Mg 0.81855 0.59522 0.77999 0.0
O673 O 0.81309 0.60422 0.80491 0.0
O674 O 0.79024 0.59591 0.80972 0.0
Mg675 Mg 0.78125 0.58218 0.789 0.0
C676 C 0.80186 0.60315 0.81385 0.0
C677 C 0.85361 0.60388 0.79085 0.0
O678 O 0.86705 0.59964 0.7874 0.0
O679 O 0.82115 0.57054 0.78993 0.0
O680 O 0.7982 0.56309 0.79482 0.0
O681 O 0.80902 0.61726 0.76892 0.0
O682 O 0.79656 0.59585 0.77478 0.0
C683 C 0.81194 0.56044 0.79486 0.0
C684 C 0.79654 0.61013 0.76992 0.0
O685 O 0.84325 0.59787 0.78291 0.0
Mg686 Mg 0.19808 0.40237 0.78223 0.0
O687 O 0.20692 0.39808 0.80655 0.0
O688 O 0.22725 0.41113 0.81268 0.0
Mg689 Mg 0.23041 0.42656 0.79086 0.0
C690 C 0.21709 0.40148 0.81616 0.0
C691 C 0.18066 0.37449 0.79525 0.0
O692 O 0.19414 0.36916 0.79495 0.0
O693 O 0.18815 0.42528 0.79161 0.0
O694 O 0.20864 0.43847 0.79725 0.0
O695 O 0.213 0.38414 0.77229 0.0
O696 O 0.21934 0.40901 0.77562 0.0
C697 C 0.19471 0.43731 0.79717 0.0
C698 C 0.22305 0.39481 0.77203 0.0
O699 O 0.17805 0.38819 0.78985 0.0
Mg700 Mg 0.16425 0.57492 0.19523 0.0
O701 O 0.1678 0.59725 0.18027 0.0
O702 O 0.1921 0.60011 0.17794 0.0
Mg703 Mg 0.20384 0.5797 0.18954 0.0
C704 C 0.17904 0.60482 0.17549 0.0
C705 C 0.13014 0.57974 0.18224 0.0
O706 O 0.11737 0.57315 0.1797 0.0
O707 O 0.16971 0.56064 0.17367 0.0
O708 O 0.19389 0.56299 0.17098 0.0
O709 O 0.16619 0.58876 0.21788 0.0
O710 O 0.18461 0.57834 0.20467 0.0
C711 C 0.18157 0.55753 0.16644 0.0
C712 C 0.18015 0.58699 0.21606 0.0
O713 O 0.13993 0.57185 0.18934 0.0
Mg714 Mg 0.825 0.42731 0.19842 0.0
O715 O 0.82148 0.40509 0.18299 0.0
O716 O 0.79709 0.40278 0.18197 0.0
Mg717 Mg 0.78535 0.42152 0.19618 0.0
C718 C 0.8099 0.39803 0.17828 0.0
C719 C 0.85855 0.42424 0.18364 0.0
O720 O 0.87006 0.43189 0.17845 0.0
O721 O 0.81719 0.44225 0.17807 0.0
O722 O 0.79289 0.43995 0.17791 0.0
O723 O 0.82535 0.41279 0.22088 0.0
O724 O 0.80564 0.42265 0.20967 0.0
C725 C 0.80472 0.44577 0.17239 0.0
C726 C 0.81125 0.41403 0.22047 0.0
O727 O 0.84816 0.43207 0.18968 0.0
Mg728 Mg 0.31246 0.55119 0.68908 0.0
O729 O 0.30909 0.57426 0.67549 0.0
O730 O 0.28582 0.57449 0.66747 0.0
Mg731 Mg 0.27467 0.55191 0.67539 0.0
C732 C 0.2984 0.5809 0.66849 0.0
C733 C 0.33779 0.55922 0.71276 0.0
O734 O 0.32874 0.55331 0.72319 0.0
O735 O 0.29995 0.5612 0.70997 0.0
O736 O 0.27701 0.56099 0.7008 0.0
O737 O 0.3185 0.53884 0.66704 0.0
O738 O 0.29603 0.54019 0.67641 0.0
C739 C 0.28632 0.56385 0.71165 0.0
C740 C 0.30479 0.53536 0.66556 0.0
O741 O 0.33399 0.56011 0.69841 0.0
Mg742 Mg 0.67776 0.43199 0.6835 0.0
O743 O 0.69039 0.41963 0.66432 0.0
O744 O 0.7125 0.43008 0.6603 0.0
Mg745 Mg 0.71315 0.45115 0.6771 0.0
C746 C 0.70264 0.41995 0.6572 0.0
C747 C 0.65719 0.40362 0.67378 0.0
O748 O 0.66025 0.40826 0.65941 0.0
O749 O 0.6924 0.42149 0.70225 0.0
O750 O 0.71359 0.43401 0.69805 0.0
O751 O 0.66775 0.4485 0.6661 0.0
O752 O 0.68893 0.45228 0.67811 0.0
C753 C 0.70572 0.42422 0.70568 0.0
C754 C 0.67932 0.45704 0.66813 0.0
O755 O 0.66245 0.41108 0.68544 0.0
Mg756 Mg 0.30537 0.44875 0.31121 0.0
O757 O 0.29821 0.42924 0.32773 0.0
O758 O 0.27804 0.43656 0.34058 0.0
Mg759 Mg 0.2728 0.46159 0.33245 0.0
C760 C 0.28793 0.42644 0.33745 0.0
C761 C 0.33074 0.42624 0.30805 0.0
O762 O 0.33042 0.42967 0.32311 0.0
O763 O 0.28659 0.44228 0.29503 0.0
O764 O 0.26704 0.45127 0.30802 0.0
O765 O 0.31919 0.45975 0.32965 0.0
O766 O 0.29589 0.46541 0.32581 0.0
C767 C 0.27283 0.44457 0.29606 0.0
C768 C 0.30772 0.46761 0.33379 0.0
O769 O 0.32099 0.43197 0.29909 0.0
Mg770 Mg 0.68973 0.56539 0.28655 0.0
O771 O 0.68811 0.58051 0.30873 0.0
O772 O 0.69806 0.56621 0.32809 0.0
Mg773 Mg 0.70258 0.54116 0.31945 0.0
C774 C 0.69247 0.57899 0.32293 0.0
C775 C 0.67952 0.59804 0.27013 0.0
O776 O 0.68218 0.61042 0.26135 0.0
O777 O 0.71432 0.56813 0.28747 0.0
O778 O 0.7222 0.55074 0.30532 0.0
O779 O 0.66704 0.55493 0.2897 0.0
O780 O 0.68732 0.54557 0.30002 0.0
C781 C 0.72462 0.56108 0.29471 0.0
C782 C 0.67342 0.5446 0.29851 0.0
O783 O 0.68898 0.58716 0.27088 0.0
Mg784 Mg 0.18706 0.78643 0.59508 0.0
O785 O 0.1803 0.80494 0.61332 0.0
O786 O 0.19854 0.82256 0.61338 0.0
Mg787 Mg 0.21728 0.81451 0.59758 0.0
C788 C 0.18607 0.81774 0.61809 0.0
C789 C 0.15123 0.78067 0.59669 0.0
O790 O 0.13991 0.7728 0.59138 0.0
O791 O 0.18284 0.80413 0.57553 0.0
O792 O 0.20265 0.8195 0.57602 0.0
O793 O 0.1983 0.77142 0.6132 0.0
O794 O 0.20896 0.79045 0.59991 0.0
C795 C 0.19049 0.81535 0.56988 0.0
C796 C 0.20999 0.77953 0.61032 0.0
O797 O 0.16393 0.7767 0.59211 0.0
Mg798 Mg 0.17739 0.19316 0.41118 0.0
O799 O 0.19279 0.17656 0.39816 0.0
O800 O 0.2147 0.17563 0.40989 0.0
Mg801 Mg 0.21335 0.19261 0.43056 0.0
C802 C 0.20588 0.17141 0.39907 0.0
C803 C 0.14708 0.19167 0.3948 0.0
O804 O 0.14627 0.20542 0.40179 0.0
O805 O 0.17462 0.17484 0.43076 0.0
O806 O 0.19684 0.17575 0.44168 0.0
O807 O 0.18521 0.21301 0.39623 0.0
O808 O 0.19578 0.20563 0.41847 0.0
C809 C 0.18389 0.17017 0.44098 0.0
C810 C 0.19606 0.21413 0.40592 0.0
O811 O 0.15832 0.1832 0.39705 0.0
Mg812 Mg 0.30458 0.67909 0.44093 0.0
O813 O 0.29638 0.66201 0.42222 0.0
O814 O 0.27385 0.65426 0.42882 0.0
Mg815 Mg 0.268 0.66563 0.45226 0.0
C816 C 0.2847 0.6543 0.41938 0.0
C817 C 0.32692 0.70104 0.42358 0.0
O818 O 0.31938 0.71186 0.43106 0.0
O819 O 0.28932 0.69748 0.43053 0.0
O820 O 0.26745 0.68906 0.43877 0.0
O821 O 0.31385 0.65983 0.45584 0.0
O822 O 0.29127 0.66872 0.45765 0.0
C823 C 0.27546 0.69895 0.4314 0.0
C824 C 0.30115 0.65914 0.46256 0.0
O825 O 0.32333 0.68667 0.42505 0.0
Mg826 Mg 0.81252 0.79951 0.41093 0.0
O827 O 0.80187 0.81656 0.3936 0.0
O828 O 0.7792 0.82203 0.40174 0.0
Mg829 Mg 0.77542 0.80843 0.4244 0.0
C830 C 0.7897 0.82374 0.39201 0.0
C831 C 0.84286 0.79206 0.39754 0.0
O832 O 0.83917 0.77855 0.40392 0.0
O833 O 0.8157 0.82006 0.42775 0.0
O834 O 0.79276 0.82442 0.43568 0.0
O835 O 0.80383 0.77897 0.39781 0.0
O836 O 0.7919 0.79108 0.41694 0.0
C837 C 0.80639 0.82775 0.43586 0.0
C838 C 0.79199 0.78059 0.40598 0.0
O839 O 0.83438 0.80378 0.3992 0.0
Mg840 Mg 0.68918 0.31251 0.4299 0.0
O841 O 0.69842 0.33523 0.42026 0.0
O842 O 0.71751 0.3438 0.4342 0.0
Mg843 Mg 0.7192 0.32639 0.45477 0.0
C844 C 0.7086 0.34512 0.42273 0.0
C845 C 0.66981 0.3197 0.40073 0.0
O846 O 0.67013 0.33355 0.40755 0.0
O847 O 0.70904 0.29904 0.42113 0.0
O848 O 0.72662 0.30689 0.43765 0.0
O849 O 0.67343 0.32556 0.44501 0.0
O850 O 0.69594 0.31926 0.45218 0.0
C851 C 0.72216 0.29837 0.42621 0.0
C852 C 0.68371 0.32607 0.45547 0.0
O853 O 0.67686 0.30839 0.40693 0.0
Mg854 Mg 0.80815 0.20445 0.58257 0.0
O855 O 0.79764 0.18453 0.59678 0.0
O856 O 0.77501 0.18008 0.58781 0.0
Mg857 Mg 0.77133 0.19675 0.56725 0.0
C858 C 0.7855 0.1771 0.59725 0.0
C859 C 0.83821 0.21086 0.59737 0.0
O860 O 0.83456 0.22484 0.5921 0.0
O861 O 0.81218 0.1869 0.56255 0.0
O862 O 0.78925 0.18309 0.5543 0.0
O863 O 0.79864 0.22209 0.59897 0.0
O864 O 0.78718 0.21297 0.57795 0.0
C865 C 0.80293 0.1802 0.5535 0.0
C866 C 0.78678 0.22108 0.59077 0.0
O867 O 0.82999 0.19923 0.59422 0.0
Mg868 Mg 0.31039 0.30705 0.55883 0.0
O869 O 0.30296 0.32711 0.57403 0.0
O870 O 0.2832 0.33966 0.56526 0.0
Mg871 Mg 0.2785 0.32696 0.54193 0.0
C872 C 0.29333 0.33777 0.57537 0.0
C873 C 0.33261 0.31001 0.58479 0.0
O874 O 0.33208 0.32392 0.5781 0.0
O875 O 0.29106 0.29261 0.56728 0.0
O876 O 0.2721 0.30464 0.55582 0.0
O877 O 0.32487 0.32297 0.54527 0.0
O878 O 0.30157 0.31876 0.53956 0.0
C879 C 0.2774 0.29367 0.5644 0.0
C880 C 0.3136 0.32616 0.53665 0.0
O881 O 0.32481 0.29897 0.57916 0.0
Mg882 Mg 0.68392 0.69162 0.56173 0.0
O883 O 0.69175 0.67345 0.57924 0.0
O884 O 0.70996 0.65878 0.56994 0.0
Mg885 Mg 0.71398 0.66853 0.54513 0.0
C886 C 0.70101 0.66242 0.58086 0.0
C887 C 0.66316 0.69368 0.58929 0.0
O888 O 0.6635 0.67869 0.58561 0.0
O889 O 0.70406 0.70628 0.56688 0.0
O890 O 0.72187 0.69212 0.55571 0.0
O891 O 0.66819 0.67466 0.55122 0.0
O892 O 0.69117 0.67728 0.54355 0.0
C893 C 0.71746 0.70431 0.56317 0.0
C894 C 0.67881 0.67009 0.54227 0.0
O895 O 0.67072 0.70328 0.58122 0.0
Mg896 Mg 0.17887 0.43814 0.18423 0.0
O897 O 0.18563 0.41813 0.1685 0.0
O898 O 0.20625 0.42325 0.15554 0.0
Mg899 Mg 0.21275 0.44805 0.16349 0.0
C900 C 0.19559 0.41417 0.15886 0.0
C901 C 0.15365 0.41379 0.18774 0.0
O902 O 0.15306 0.41647 0.17253 0.0
O903 O 0.19686 0.4319 0.2017 0.0
O904 O 0.21702 0.43903 0.18864 0.0
O905 O 0.16653 0.44916 0.16442 0.0
O906 O 0.1898 0.45382 0.16959 0.0
C907 C 0.21071 0.43359 0.20092 0.0
C908 C 0.1786 0.4562 0.16071 0.0
O909 O 0.16284 0.42134 0.19606 0.0
Mg910 Mg 0.81199 0.56716 0.18039 0.0
O911 O 0.79474 0.58373 0.17123 0.0
O912 O 0.77324 0.5716 0.16813 0.0
Mg913 Mg 0.77733 0.54595 0.17581 0.0
C914 C 0.78126 0.58388 0.1675 0.0
C915 C 0.83103 0.59731 0.17489 0.0
O916 O 0.82626 0.59533 0.16044 0.0
O917 O 0.80164 0.56876 0.20468 0.0
O918 O 0.78183 0.55361 0.2013 0.0
O919 O 0.8181 0.55888 0.15602 0.0
O920 O 0.80071 0.5485 0.17067 0.0
C921 C 0.79037 0.56172 0.21001 0.0
C922 C 0.80775 0.54862 0.15761 0.0
O923 O 0.82691 0.58785 0.18559 0.0
Mg924 Mg 0.80801 0.42556 0.78597 0.0
O925 O 0.80999 0.41097 0.80885 0.0
O926 O 0.79606 0.42413 0.82611 0.0
Mg927 Mg 0.78755 0.44723 0.81588 0.0
C928 C 0.80415 0.41241 0.82248 0.0
C929 C 0.82122 0.39299 0.77086 0.0
O930 O 0.82085 0.3824 0.75962 0.0
O931 O 0.78468 0.41773 0.78417 0.0
O932 O 0.77159 0.43299 0.8002 0.0
O933 O 0.82812 0.4402 0.79096 0.0
O934 O 0.80589 0.44549 0.79931 0.0
C935 C 0.77248 0.42217 0.7898 0.0
C936 C 0.81946 0.44929 0.79886 0.0
O937 O 0.81344 0.40524 0.76947 0.0
Mg938 Mg 0.1861 0.5648 0.78549 0.0
O939 O 0.17923 0.58447 0.80288 0.0
O940 O 0.18851 0.57687 0.82613 0.0
Mg941 Mg 0.19978 0.55276 0.82401 0.0
C942 C 0.18146 0.58668 0.8176 0.0
C943 C 0.17679 0.59166 0.75976 0.0
O944 O 0.17834 0.59796 0.74575 0.0
O945 O 0.20904 0.57387 0.78715 0.0
O946 O 0.21867 0.56343 0.80893 0.0
O947 O 0.16588 0.55013 0.78874 0.0
O948 O 0.18554 0.54887 0.80361 0.0
C949 C 0.21985 0.57142 0.79624 0.0
C950 C 0.17275 0.54353 0.80032 0.0
O951 O 0.18338 0.57893 0.76286 0.0
Mg952 Mg 0.6963 0.40501 0.2891 0.0
O953 O 0.70487 0.40071 0.31369 0.0
O954 O 0.7244 0.41518 0.3198 0.0
Mg955 Mg 0.72738 0.43086 0.29815 0.0
C956 C 0.71482 0.40486 0.3233 0.0
C957 C 0.66381 0.39365 0.29915 0.0
O958 O 0.66 0.40848 0.29777 0.0
O959 O 0.68533 0.42745 0.29813 0.0
O960 O 0.70503 0.442 0.30373 0.0
O961 O 0.71229 0.38788 0.27904 0.0
O962 O 0.71714 0.4131 0.2826 0.0
C963 C 0.69118 0.44002 0.30338 0.0
C964 C 0.72162 0.39931 0.27854 0.0
O965 O 0.6768 0.38949 0.29584 0.0
Mg966 Mg 0.29625 0.58964 0.28616 0.0
O967 O 0.28608 0.6048 0.30541 0.0
O968 O 0.2639 0.59603 0.31199 0.0
Mg969 Mg 0.26073 0.57343 0.29823 0.0
C970 C 0.27439 0.60579 0.31353 0.0
C971 C 0.31746 0.61777 0.28974 0.0
O972 O 0.30481 0.62503 0.28884 0.0
O973 O 0.30236 0.57251 0.30582 0.0
O974 O 0.28003 0.56432 0.31275 0.0
O975 O 0.28411 0.60298 0.2676 0.0
O976 O 0.27547 0.58201 0.2798 0.0
C977 C 0.29386 0.56464 0.31478 0.0
C978 C 0.27332 0.59348 0.27021 0.0
O979 O 0.31781 0.60285 0.28889 0.0
Mg980 Mg 0.68096 0.59398 0.71477 0.0
O981 O 0.68921 0.60696 0.693 0.0
O982 O 0.71311 0.60209 0.69027 0.0
Mg983 Mg 0.72023 0.58646 0.71065 0.0
C984 C 0.70125 0.60847 0.68557 0.0
C985 C 0.6448 0.59827 0.70062 0.0
O986 O 0.6354 0.58674 0.70252 0.0
O987 O 0.68252 0.57146 0.70072 0.0
O988 O 0.70654 0.56715 0.69875 0.0
O989 O 0.68653 0.6149 0.73008 0.0
O990 O 0.70162 0.59542 0.72432 0.0
C991 C 0.69331 0.56337 0.69576 0.0
C992 C 0.69955 0.60896 0.73063 0.0
O993 O 0.65776 0.59669 0.70571 0.0
Mg994 Mg 0.32539 0.41203 0.69926 0.0
O995 O 0.31504 0.39382 0.68309 0.0
O996 O 0.29098 0.39294 0.68794 0.0
Mg997 Mg 0.28599 0.41022 0.70767 0.0
C998 C 0.30225 0.38849 0.68026 0.0
C999 C 0.35388 0.40675 0.67429 0.0
O1000 O 0.36452 0.41435 0.66721 0.0
O1001 O 0.31486 0.4303 0.68357 0.0
O1002 O 0.29102 0.42945 0.6894 0.0
O1003 O 0.32862 0.39388 0.71859 0.0
O1004 O 0.30889 0.40844 0.71507 0.0
C1005 C 0.30174 0.43497 0.68149 0.0
C1006 C 0.31535 0.39738 0.72254 0.0
O1007 O 0.34595 0.41433 0.68397 0.0
Mg1008 Mg 0.81416 0.18461 0.42679 0.0
O1009 O 0.80206 0.16766 0.41079 0.0
O1010 O 0.78177 0.15872 0.42238 0.0
Mg1011 Mg 0.78119 0.17039 0.44663 0.0
C1012 C 0.79041 0.15943 0.41062 0.0
C1013 C 0.83648 0.18283 0.39898 0.0
O1014 O 0.83627 0.16789 0.4029 0.0
O1015 O 0.79703 0.20306 0.42109 0.0
O1016 O 0.77738 0.19408 0.43396 0.0
O1017 O 0.82688 0.1655 0.43874 0.0
O1018 O 0.8051 0.17386 0.44623 0.0
C1019 C 0.78368 0.20431 0.42524 0.0
C1020 C 0.81598 0.16451 0.4484 0.0
O1021 O 0.82838 0.19247 0.40637 0.0
Mg1022 Mg 0.81873 0.80969 0.55322 0.0
O1023 O 0.81088 0.82546 0.57264 0.0
O1024 O 0.79108 0.83932 0.5664 0.0
Mg1025 Mg 0.78604 0.8313 0.54119 0.0
C1026 C 0.80102 0.83537 0.57615 0.0
C1027 C 0.84136 0.80696 0.57951 0.0
O1028 O 0.84123 0.82216 0.57677 0.0
O1029 O 0.80011 0.79297 0.5588 0.0
O1030 O 0.78053 0.8066 0.55091 0.0
O1031 O 0.83237 0.82887 0.54318 0.0
O1032 O 0.80921 0.82464 0.5369 0.0
C1033 C 0.78633 0.79427 0.55685 0.0
C1034 C 0.82085 0.83308 0.53538 0.0
O1035 O 0.83346 0.79796 0.57112 0.0
Mg1036 Mg 0.67396 0.29194 0.59724 0.0
O1037 O 0.68875 0.31098 0.60678 0.0
O1038 O 0.71166 0.31004 0.5979 0.0
Mg1039 Mg 0.71104 0.28956 0.58046 0.0
C1040 C 0.70174 0.31636 0.60632 0.0
C1041 C 0.64139 0.30164 0.60688 0.0
O1042 O 0.63768 0.29097 0.59643 0.0
O1043 O 0.67203 0.30657 0.57462 0.0
O1044 O 0.69518 0.30469 0.56614 0.0
O1045 O 0.68195 0.27516 0.61576 0.0
O1046 O 0.69237 0.27852 0.59247 0.0
C1047 C 0.68217 0.31002 0.56484 0.0
C1048 C 0.69255 0.27212 0.60616 0.0
O1049 O 0.65485 0.30457 0.60912 0.0
Mg1050 Mg 0.18172 0.18306 0.56799 0.0
O1051 O 0.19404 0.16517 0.58263 0.0
O1052 O 0.21271 0.1542 0.56976 0.0
Mg1053 Mg 0.21283 0.16697 0.546 0.0
C1054 C 0.20481 0.1557 0.58203 0.0
C1055 C 0.16311 0.17988 0.59817 0.0
O1056 O 0.16565 0.16509 0.59463 0.0
O1057 O 0.19995 0.20054 0.57283 0.0
O1058 O 0.21836 0.19012 0.55895 0.0
O1059 O 0.16759 0.16467 0.55689 0.0
O1060 O 0.18918 0.172 0.54777 0.0
C1061 C 0.21315 0.20078 0.56798 0.0
C1062 C 0.17788 0.16303 0.54658 0.0
O1063 O 0.16874 0.19059 0.58965 0.0
Mg1064 Mg 0.31551 0.70749 0.58655 0.0
O1065 O 0.31367 0.68976 0.60703 0.0
O1066 O 0.28949 0.68695 0.61054 0.0
Mg1067 Mg 0.27628 0.70198 0.59362 0.0
C1068 C 0.30271 0.68365 0.61414 0.0
C1069 C 0.34974 0.69404 0.587 0.0
O1070 O 0.3613 0.69067 0.57846 0.0
O1071 O 0.30833 0.68788 0.57037 0.0
O1072 O 0.28419 0.68564 0.57364 0.0
O1073 O 0.31497 0.72857 0.6031 0.0
O1074 O 0.2957 0.71684 0.59291 0.0
C1075 C 0.29612 0.68147 0.56703 0.0
C1076 C 0.30089 0.72724 0.60228 0.0
O1077 O 0.339 0.70078 0.58037 0.0
Mg1078 Mg 0.18452 0.80609 0.43306 0.0
O1079 O 0.19245 0.8276 0.42002 0.0
O1080 O 0.21222 0.83809 0.4312 0.0
Mg1081 Mg 0.21641 0.82305 0.45307 0.0
C1082 C 0.20261 0.83782 0.42034 0.0
C1083 C 0.1614 0.81047 0.40663 0.0
O1084 O 0.16132 0.82445 0.41322 0.0
O1085 O 0.20386 0.79248 0.42304 0.0
O1086 O 0.22259 0.80268 0.43657 0.0
O1087 O 0.17029 0.82032 0.44907 0.0
O1088 O 0.19347 0.81481 0.45378 0.0
C1089 C 0.21747 0.79304 0.42642 0.0
C1090 C 0.18158 0.82165 0.45815 0.0
O1091 O 0.16995 0.79997 0.41205 0.0
Mg1092 Mg 0.68006 0.7004 0.41257 0.0
O1093 O 0.68792 0.68144 0.39535 0.0
O1094 O 0.71043 0.67403 0.40242 0.0
Mg1095 Mg 0.71711 0.68837 0.42383 0.0
C1096 C 0.69927 0.6729 0.39347 0.0
C1097 C 0.65026 0.70939 0.39733 0.0
O1098 O 0.65608 0.72348 0.39841 0.0
O1099 O 0.67632 0.68115 0.43085 0.0
O1100 O 0.69931 0.6751 0.43742 0.0
O1101 O 0.68984 0.71944 0.39787 0.0
O1102 O 0.70161 0.70676 0.41675 0.0
C1103 C 0.68552 0.67314 0.43883 0.0
C1104 C 0.70187 0.71681 0.40542 0.0
O1105 O 0.65718 0.69766 0.40284 0.0
Mg1106 Mg 0.3076 0.29471 0.40392 0.0
O1107 O 0.29643 0.31401 0.38962 0.0
O1108 O 0.27415 0.3187 0.39937 0.0
Mg1109 Mg 0.27111 0.3024 0.42032 0.0
C1110 C 0.28433 0.32151 0.3895 0.0
C1111 C 0.33695 0.28865 0.38716 0.0
O1112 O 0.33306 0.27429 0.39106 0.0
O1113 O 0.31195 0.31299 0.42304 0.0
O1114 O 0.28928 0.31659 0.43224 0.0
O1115 O 0.29753 0.27596 0.38899 0.0
O1116 O 0.28717 0.28622 0.41015 0.0
C1117 C 0.30294 0.31976 0.43231 0.0
C1118 C 0.28627 0.27711 0.39811 0.0
O1119 O 0.32899 0.3001 0.39148 0.0
Mg1120 Mg 0.56785 0.17863 0.77814 0.0
O1121 O 0.58251 0.18768 0.79795 0.0
O1122 O 0.57194 0.20784 0.81043 0.0
Mg1123 Mg 0.54992 0.21135 0.79853 0.0
C1124 C 0.58252 0.19823 0.80864 0.0
C1125 C 0.5852 0.14821 0.76523 0.0
O1126 O 0.57801 0.14991 0.75196 0.0
O1127 O 0.55371 0.1664 0.79653 0.0
O1128 O 0.54367 0.18716 0.80848 0.0
O1129 O 0.57783 0.19568 0.76155 0.0
O1130 O 0.55869 0.2011 0.77654 0.0
C1131 C 0.54563 0.17234 0.80721 0.0
C1132 C 0.56861 0.20592 0.76687 0.0
O1133 O 0.58267 0.15741 0.77668 0.0
Mg1134 Mg 0.42091 0.81928 0.805 0.0
O1135 O 0.40656 0.80513 0.8216 0.0
O1136 O 0.41566 0.78127 0.82627 0.0
Mg1137 Mg 0.43689 0.78041 0.81213 0.0
C1138 C 0.40578 0.79168 0.82813 0.0
C1139 C 0.39404 0.83936 0.81057 0.0
O1140 O 0.38868 0.82562 0.80652 0.0
O1141 O 0.43716 0.82374 0.82462 0.0
O1142 O 0.44706 0.79991 0.82754 0.0
O1143 O 0.40906 0.80961 0.78442 0.0
O1144 O 0.42826 0.79818 0.79552 0.0
C1145 C 0.44629 0.81449 0.83116 0.0
C1146 C 0.41775 0.79766 0.78542 0.0
O1147 O 0.40784 0.84105 0.81119 0.0
Mg1148 Mg 0.56502 0.81438 0.21977 0.0
O1149 O 0.58075 0.80589 0.20068 0.0
O1150 O 0.57154 0.78501 0.18824 0.0
Mg1151 Mg 0.54918 0.78054 0.19928 0.0
C1152 C 0.58165 0.79514 0.19026 0.0
C1153 C 0.58514 0.84222 0.23323 0.0
O1154 O 0.58371 0.83526 0.24694 0.0
O1155 O 0.5505 0.82565 0.201 0.0
O1156 O 0.54173 0.80422 0.18901 0.0
O1157 O 0.57509 0.79725 0.23657 0.0
O1158 O 0.55608 0.7919 0.22144 0.0
C1159 C 0.54282 0.81914 0.19029 0.0
C1160 C 0.56569 0.7871 0.2314 0.0
O1161 O 0.57865 0.83662 0.22125 0.0
Mg1162 Mg 0.43269 0.17074 0.20126 0.0
O1163 O 0.41444 0.17753 0.18396 0.0
O1164 O 0.42089 0.1997 0.17169 0.0
Mg1165 Mg 0.44294 0.20735 0.18143 0.0
C1166 C 0.4119 0.18848 0.17403 0.0
C1167 C 0.41426 0.14259 0.21433 0.0
O1168 O 0.41211 0.15248 0.22597 0.0
O1169 O 0.4474 0.16263 0.18123 0.0
O1170 O 0.45379 0.18561 0.17056 0.0
O1171 O 0.42183 0.18477 0.21994 0.0
O1172 O 0.43824 0.19446 0.20344 0.0
C1173 C 0.45452 0.17061 0.17109 0.0
C1174 C 0.42891 0.19681 0.21456 0.0
O1175 O 0.42268 0.14649 0.2031 0.0
Mg1176 Mg 0.42265 0.2862 0.67376 0.0
O1177 O 0.40004 0.29823 0.66963 0.0
O1178 O 0.39413 0.30739 0.69361 0.0
Mg1179 Mg 0.41126 0.30174 0.71208 0.0
C1180 C 0.39135 0.30552 0.679 0.0
C1181 C 0.42458 0.28688 0.635 0.0
O1182 O 0.4327 0.28576 0.6223 0.0
O1183 O 0.43214 0.3106 0.67504 0.0
O1184 O 0.42676 0.31901 0.69926 0.0
O1185 O 0.41344 0.26252 0.68026 0.0
O1186 O 0.4168 0.28227 0.69661 0.0
C1187 C 0.43285 0.32096 0.68584 0.0
C1188 C 0.41266 0.26802 0.69444 0.0
O1189 O 0.43031 0.28416 0.64828 0.0
Mg1190 Mg 0.55907 0.70861 0.66036 0.0
O1191 O 0.58011 0.69328 0.66194 0.0
O1192 O 0.581 0.68543 0.68716 0.0
Mg1193 Mg 0.56148 0.69427 0.70102 0.0
C1194 C 0.58636 0.686 0.67331 0.0
C1195 C 0.56599 0.71147 0.62242 0.0
O1196 O 0.56106 0.71297 0.60799 0.0
O1197 O 0.54543 0.68651 0.66075 0.0
O1198 O 0.5458 0.67911 0.68594 0.0
O1199 O 0.57111 0.73053 0.66746 0.0
O1200 O 0.56136 0.71335 0.68388 0.0
C1201 C 0.54136 0.67735 0.67178 0.0
C1202 C 0.56892 0.72589 0.68178 0.0
O1203 O 0.55695 0.70945 0.63355 0.0
Mg1204 Mg 0.57132 0.27926 0.32913 0.0
O1205 O 0.58832 0.29968 0.32808 0.0
O1206 O 0.58473 0.31036 0.30416 0.0
Mg1207 Mg 0.56796 0.29694 0.28995 0.0
C1208 C 0.59103 0.3101 0.31756 0.0
C1209 C 0.57927 0.28231 0.3664 0.0
O1210 O 0.57579 0.28006 0.38122 0.0
O1211 O 0.55365 0.29779 0.33163 0.0
O1212 O 0.5515 0.30755 0.30734 0.0
O1213 O 0.58731 0.26151 0.31935 0.0
O1214 O 0.57323 0.27713 0.30522 0.0
C1215 C 0.54782 0.30724 0.32183 0.0
C1216 C 0.58336 0.26669 0.30567 0.0
O1217 O 0.5711 0.27668 0.35578 0.0
Mg1218 Mg 0.4261 0.71156 0.31841 0.0
O1219 O 0.40912 0.69372 0.30976 0.0
O1220 O 0.41745 0.68208 0.28794 0.0
Mg1221 Mg 0.43981 0.69252 0.28271 0.0
C1222 C 0.40768 0.68389 0.29851 0.0
C1223 C 0.40599 0.72383 0.34614 0.0
O1224 O 0.40504 0.73642 0.33723 0.0
O1225 O 0.44024 0.69147 0.32766 0.0
O1226 O 0.44811 0.68065 0.30528 0.0
O1227 O 0.41589 0.7301 0.30344 0.0
O1228 O 0.43347 0.7143 0.29521 0.0
C1229 C 0.44751 0.681 0.32029 0.0
C1230 C 0.424 0.72509 0.29201 0.0
O1231 O 0.41404 0.71246 0.34178 0.0
Mg1232 Mg 0.43685 0.78267 0.15943 0.0
O1233 O 0.41491 0.79556 0.15585 0.0
O1234 O 0.41217 0.80992 0.17782 0.0
Mg1235 Mg 0.43031 0.80535 0.19545 0.0
C1236 C 0.40791 0.8055 0.16423 0.0
C1237 C 0.43184 0.77816 0.12129 0.0
O1238 O 0.43672 0.77303 0.1077 0.0
O1239 O 0.44916 0.80566 0.15575 0.0
O1240 O 0.44645 0.81779 0.17886 0.0
O1241 O 0.42599 0.76178 0.17072 0.0
O1242 O 0.43348 0.78278 0.18357 0.0
C1243 C 0.45188 0.8171 0.16503 0.0
C1244 C 0.42719 0.76927 0.18392 0.0
O1245 O 0.43974 0.77641 0.13346 0.0
Mg1246 Mg 0.56675 0.22001 0.17413 0.0
O1247 O 0.58629 0.20389 0.16776 0.0
O1248 O 0.58737 0.18641 0.18757 0.0
Mg1249 Mg 0.57031 0.19154 0.20624 0.0
C1250 C 0.59189 0.19182 0.17444 0.0
C1251 C 0.57105 0.22888 0.13709 0.0
O1252 O 0.56659 0.23576 0.12412 0.0
O1253 O 0.55189 0.19984 0.16748 0.0
O1254 O 0.55331 0.18338 0.18789 0.0
O1255 O 0.58103 0.23687 0.18719 0.0
O1256 O 0.57085 0.21585 0.1977 0.0
C1257 C 0.54823 0.18713 0.17439 0.0
C1258 C 0.57931 0.22785 0.19932 0.0
O1259 O 0.56367 0.23053 0.1496 0.0
Mg1260 Mg 0.43624 0.20559 0.82208 0.0
O1261 O 0.41919 0.18781 0.81358 0.0
O1262 O 0.42591 0.17838 0.79011 0.0
Mg1263 Mg 0.44765 0.18959 0.78399 0.0
C1264 C 0.41703 0.17899 0.80165 0.0
C1265 C 0.41756 0.21612 0.85081 0.0
O1266 O 0.41673 0.22898 0.84228 0.0
O1267 O 0.45129 0.18534 0.82874 0.0
O1268 O 0.45739 0.17622 0.80498 0.0
O1269 O 0.42419 0.22425 0.80934 0.0
O1270 O 0.44186 0.21005 0.79867 0.0
C1271 C 0.45791 0.17544 0.81998 0.0
C1272 C 0.43142 0.22011 0.79693 0.0
O1273 O 0.4255 0.20482 0.84607 0.0
Mg1274 Mg 0.56633 0.78854 0.81196 0.0
O1275 O 0.58061 0.80934 0.80402 0.0
O1276 O 0.57053 0.81998 0.78256 0.0
Mg1277 Mg 0.54956 0.80649 0.7774 0.0
C1278 C 0.58062 0.81949 0.79291 0.0
C1279 C 0.58651 0.77698 0.83948 0.0
O1280 O 0.5882 0.76477 0.8302 0.0
O1281 O 0.54965 0.80533 0.82208 0.0
O1282 O 0.53941 0.81567 0.80062 0.0
O1283 O 0.57905 0.77269 0.7966 0.0
O1284 O 0.55926 0.78554 0.78884 0.0
C1285 C 0.54047 0.81452 0.81558 0.0
C1286 C 0.57025 0.77665 0.78534 0.0
O1287 O 0.57818 0.78816 0.83525 0.0
Mg1288 Mg 0.56277 0.65535 0.29365 0.0
O1289 O 0.57413 0.671 0.31155 0.0
O1290 O 0.56345 0.69445 0.31396 0.0
Mg1291 Mg 0.54298 0.69252 0.2987 0.0
C1292 C 0.57349 0.68471 0.31758 0.0
C1293 C 0.57974 0.6229 0.29401 0.0
O1294 O 0.57082 0.61953 0.28237 0.0
O1295 O 0.54581 0.64894 0.31235 0.0
O1296 O 0.53527 0.67257 0.31485 0.0
O1297 O 0.57505 0.66763 0.27442 0.0
O1298 O 0.55337 0.67514 0.28311 0.0
C1299 C 0.53668 0.65818 0.31896 0.0
C1300 C 0.56448 0.67774 0.27421 0.0
O1301 O 0.57823 0.63586 0.30124 0.0
Mg1302 Mg 0.43126 0.32697 0.27992 0.0
O1303 O 0.41634 0.31558 0.29858 0.0
O1304 O 0.4256 0.29216 0.30521 0.0
Mg1305 Mg 0.44685 0.28903 0.29179 0.0
C1306 C 0.41584 0.3028 0.3065 0.0
C1307 C 0.41056 0.35504 0.27236 0.0
O1308 O 0.40956 0.34746 0.25894 0.0
O1309 O 0.4472 0.33366 0.29936 0.0
O1310 O 0.45573 0.3099 0.30591 0.0
O1311 O 0.41937 0.31448 0.26066 0.0
O1312 O 0.4384 0.30473 0.27344 0.0
C1313 C 0.45516 0.32478 0.30789 0.0
C1314 C 0.428 0.30276 0.26343 0.0
O1315 O 0.41903 0.34984 0.28299 0.0
Mg1316 Mg 0.41988 0.67182 0.71375 0.0
O1317 O 0.40265 0.67752 0.69465 0.0
O1318 O 0.40876 0.70094 0.68458 0.0
Mg1319 Mg 0.42994 0.7093 0.69584 0.0
C1320 C 0.40025 0.68907 0.68536 0.0
C1321 C 0.40988 0.64029 0.72846 0.0
O1322 O 0.41207 0.64839 0.74141 0.0
O1323 O 0.43634 0.66505 0.69515 0.0
O1324 O 0.44262 0.68834 0.68506 0.0
O1325 O 0.40691 0.68462 0.73166 0.0
O1326 O 0.42397 0.69562 0.71684 0.0
C1327 C 0.44385 0.67336 0.68566 0.0
C1328 C 0.41386 0.69715 0.72729 0.0
O1329 O 0.41203 0.64676 0.7152 0.0
Mg1330 Mg 0.5549 0.34281 0.72227 0.0
O1331 O 0.5684 0.33864 0.69924 0.0
O1332 O 0.55968 0.31589 0.68961 0.0
Mg1333 Mg 0.54262 0.30527 0.70572 0.0
C1334 C 0.56812 0.32782 0.6887 0.0
C1335 C 0.56835 0.37819 0.71746 0.0
O1336 O 0.5673 0.39339 0.71994 0.0
O1337 O 0.53502 0.34907 0.70766 0.0
O1338 O 0.52774 0.32573 0.69848 0.0
O1339 O 0.57146 0.32984 0.73704 0.0
O1340 O 0.553 0.31883 0.72449 0.0
C1341 C 0.52631 0.34063 0.69961 0.0
C1342 C 0.56452 0.31721 0.73296 0.0
O1343 O 0.55937 0.36905 0.72417 0.0
H1344 H 0.10151 0.27263 0.25125 0.0
H1345 H 0.083 0.18494 0.22545 0.0
H1346 H 0.08008 0.25974 0.2079 0.0
H1347 H 0.09618 0.1986 0.2721 0.0
H1348 H 0.08974 0.21119 0.21585 0.0
H1349 H 0.107 0.24486 0.25595 0.0
C1350 C 0.0982 0.26402 0.24256 0.0
C1351 C 0.09007 0.26852 0.2293 0.0
C1352 C 0.09159 0.2083 0.2281 0.0
C1353 C 0.09628 0.23672 0.23463 0.0
C1354 C 0.08791 0.19328 0.23351 0.0
C1355 C 0.08908 0.18974 0.24954 0.0
C1356 C 0.09628 0.21979 0.23889 0.0
C1357 C 0.09516 0.20098 0.25964 0.0
C1358 C 0.10134 0.24816 0.24526 0.0
C1359 C 0.08619 0.25685 0.21839 0.0
N1360 N 0.09832 0.21561 0.25421 0.0
N1361 N 0.08915 0.24148 0.2214 0.0
H1362 H 0.71816 0.11551 0.23054 0.0
H1363 H 0.78906 0.11691 0.26085 0.0
H1364 H 0.72654 0.06646 0.22112 0.0
H1365 H 0.78413 0.06657 0.26437 0.0
H1366 H 0.76624 0.11816 0.24597 0.0
H1367 H 0.7417 0.11728 0.24395 0.0
C1368 C 0.725 0.10513 0.23123 0.0
C1369 C 0.72046 0.09086 0.22455 0.0
C1370 C 0.77002 0.10686 0.25015 0.0
C1371 C 0.74764 0.09287 0.23949 0.0
C1372 C 0.78319 0.10612 0.25845 0.0
C1373 C 0.78836 0.09164 0.26407 0.0
C1374 C 0.762 0.09299 0.2475 0.0
C1375 C 0.78039 0.07801 0.26051 0.0
C1376 C 0.73856 0.1062 0.2387 0.0
C1377 C 0.72969 0.07775 0.2259 0.0
N1378 N 0.7676 0.07903 0.25249 0.0
N1379 N 0.74281 0.07907 0.23324 0.0
H1380 H 0.92499 0.6795 0.26724 0.0
H1381 H 0.90739 0.76828 0.24193 0.0
H1382 H 0.91548 0.69387 0.21975 0.0
H1383 H 0.92827 0.75515 0.28545 0.0
H1384 H 0.90412 0.74029 0.23576 0.0
H1385 H 0.91974 0.7064 0.27623 0.0
C1386 C 0.92139 0.68823 0.2588 0.0
C1387 C 0.92075 0.68464 0.24275 0.0
C1388 C 0.90933 0.74358 0.24672 0.0
C1389 C 0.91499 0.71525 0.25278 0.0
C1390 C 0.91118 0.75952 0.25023 0.0
C1391 C 0.91853 0.76402 0.26398 0.0
C1392 C 0.91469 0.73212 0.25716 0.0
C1393 C 0.92309 0.75223 0.27443 0.0
C1394 C 0.91852 0.70357 0.26388 0.0
C1395 C 0.91623 0.69631 0.2322 0.0
N1396 N 0.92119 0.73682 0.27077 0.0
N1397 N 0.91364 0.71116 0.23736 0.0
H1398 H 0.26192 0.90052 0.20428 0.0
H1399 H 0.22998 0.91875 0.28834 0.0
H1400 H 0.28936 0.89994 0.24546 0.0
H1401 H 0.20358 0.89867 0.25144 0.0
H1402 H 0.25189 0.91341 0.27277 0.0
H1403 H 0.24032 0.90101 0.22115 0.0
C1404 C 0.26335 0.90046 0.21691 0.0
C1405 C 0.27734 0.9004 0.22356 0.0
C1406 C 0.2413 0.91012 0.26813 0.0
C1407 C 0.25278 0.90111 0.24292 0.0
C1408 C 0.22877 0.91337 0.27692 0.0
C1409 C 0.21494 0.90945 0.27101 0.0
C1410 C 0.23992 0.90319 0.25323 0.0
C1411 C 0.21406 0.90198 0.25634 0.0
C1412 C 0.25105 0.90062 0.22653 0.0
C1413 C 0.27869 0.90001 0.23997 0.0
N1414 N 0.22638 0.89928 0.24784 0.0
N1415 N 0.26651 0.90065 0.24916 0.0
H1416 H 0.10244 0.71994 0.76518 0.0
H1417 H 0.06271 0.77522 0.7046 0.0
H1418 H 0.0559 0.71837 0.75719 0.0
H1419 H 0.09198 0.79723 0.73782 0.0
H1420 H 0.06545 0.75045 0.71857 0.0
H1421 H 0.10347 0.74512 0.75065 0.0
C1422 C 0.09249 0.72488 0.76036 0.0
C1423 C 0.07905 0.71713 0.76237 0.0
C1424 C 0.07141 0.76066 0.72267 0.0
C1425 C 0.08024 0.74538 0.74563 0.0
C1426 C 0.06995 0.77482 0.71466 0.0
C1427 C 0.07706 0.78841 0.72009 0.0
C1428 C 0.0802 0.75991 0.73612 0.0
C1429 C 0.08624 0.78706 0.73329 0.0
C1430 C 0.09309 0.7392 0.75219 0.0
C1431 C 0.06645 0.724 0.75598 0.0
N1432 N 0.08755 0.773 0.74094 0.0
N1433 N 0.06739 0.73761 0.74773 0.0
H1434 H 0.28406 0.0924 0.75053 0.0
H1435 H 0.19755 0.09287 0.74932 0.0
H1436 H 0.25957 0.07685 0.791 0.0
H1437 H 0.22244 0.07554 0.7099 0.0
H1438 H 0.22025 0.09428 0.76486 0.0
H1439 H 0.26124 0.09361 0.73538 0.0
C1440 C 0.27385 0.0894 0.75625 0.0
C1441 C 0.27364 0.08436 0.77195 0.0
C1442 C 0.22067 0.09022 0.75279 0.0
C1443 C 0.24768 0.08602 0.75488 0.0
C1444 C 0.20782 0.08947 0.74395 0.0
C1445 C 0.20822 0.08388 0.72845 0.0
C1446 C 0.23396 0.08582 0.74584 0.0
C1447 C 0.22171 0.07962 0.72193 0.0
C1448 C 0.26091 0.09002 0.7476 0.0
C1449 C 0.26018 0.08055 0.77884 0.0
N1450 N 0.23411 0.08079 0.73063 0.0
N1451 N 0.24766 0.08155 0.77027 0.0
H1452 H 0.91333 0.21745 0.76249 0.0
H1453 H 0.91898 0.30947 0.75248 0.0
H1454 H 0.92491 0.23687 0.71733 0.0
H1455 H 0.93918 0.28587 0.79174 0.0
H1456 H 0.91489 0.28371 0.73991 0.0
H1457 H 0.91613 0.24369 0.77424 0.0
C1458 C 0.91626 0.22729 0.75504 0.0
C1459 C 0.91904 0.22507 0.73899 0.0
C1460 C 0.92026 0.28428 0.75126 0.0
C1461 C 0.92201 0.25489 0.7522 0.0
C1462 C 0.92257 0.29887 0.7584 0.0
C1463 C 0.9296 0.29971 0.77304 0.0
C1464 C 0.92453 0.27053 0.75913 0.0
C1465 C 0.93398 0.28572 0.78034 0.0
C1466 C 0.91795 0.24216 0.76174 0.0
C1467 C 0.9229 0.23813 0.7298 0.0
N1468 N 0.93123 0.27165 0.77339 0.0
N1469 N 0.92419 0.25257 0.73653 0.0
H1470 H 0.75228 0.89743 0.79096 0.0
H1471 H 0.79666 0.87404 0.71458 0.0
H1472 H 0.73294 0.87354 0.75139 0.0
H1473 H 0.81609 0.89522 0.75553 0.0
H1474 H 0.77445 0.86875 0.72975 0.0
H1475 H 0.77644 0.89237 0.78014 0.0
C1476 C 0.7531 0.89115 0.77996 0.0
C1477 C 0.74054 0.88631 0.77185 0.0
C1478 C 0.7837 0.87413 0.7356 0.0
C1479 C 0.76831 0.88034 0.75934 0.0
C1480 C 0.79642 0.87699 0.72698 0.0
C1481 C 0.80817 0.88493 0.73392 0.0
C1482 C 0.78266 0.87961 0.75116 0.0
C1483 C 0.80728 0.88888 0.74987 0.0
C1484 C 0.76695 0.8881 0.77385 0.0
C1485 C 0.74235 0.87764 0.75794 0.0
N1486 N 0.79462 0.88642 0.7579 0.0
N1487 N 0.75597 0.87517 0.75197 0.0
H1488 H 0.2891 0.05504 0.22462 0.0
H1489 H 0.2082 0.06672 0.25839 0.0
H1490 H 0.25025 0.04928 0.19635 0.0
H1491 H 0.24525 0.05454 0.2874 0.0
H1492 H 0.22416 0.06628 0.23522 0.0
H1493 H 0.27365 0.06067 0.24744 0.0
C1494 C 0.27734 0.05506 0.22317 0.0
C1495 C 0.27096 0.05149 0.20858 0.0
C1496 C 0.22878 0.06384 0.24669 0.0
C1497 C 0.25327 0.05806 0.2346 0.0
C1498 C 0.21971 0.06416 0.25992 0.0
C1499 C 0.22538 0.06048 0.27482 0.0
C1500 C 0.24363 0.06003 0.24844 0.0
C1501 C 0.24038 0.05725 0.27611 0.0
C1502 C 0.26854 0.05825 0.2362 0.0
C1503 C 0.25564 0.05176 0.20741 0.0
N1504 N 0.24898 0.05706 0.26308 0.0
N1505 N 0.24732 0.05496 0.22025 0.0
H1506 H 0.90515 0.2955 0.21798 0.0
H1507 H 0.91103 0.22029 0.27056 0.0
H1508 H 0.90668 0.24878 0.19849 0.0
H1509 H 0.89929 0.26588 0.28892 0.0
H1510 H 0.90551 0.22952 0.24412 0.0
H1511 H 0.89902 0.28444 0.24361 0.0
C1512 C 0.90399 0.28289 0.21911 0.0
C1513 C 0.90668 0.27298 0.20629 0.0
C1514 C 0.90384 0.23743 0.25394 0.0
C1515 C 0.89994 0.26016 0.2356 0.0
C1516 C 0.90702 0.23216 0.26911 0.0
C1517 C 0.90592 0.24242 0.28198 0.0
C1518 C 0.89979 0.25317 0.2516 0.0
C1519 C 0.90048 0.25761 0.27932 0.0
C1520 C 0.90042 0.27656 0.23372 0.0
C1521 C 0.90476 0.25676 0.2082 0.0
N1522 N 0.89791 0.26264 0.26439 0.0
N1523 N 0.90183 0.25079 0.22272 0.0
H1524 H 0.70349 0.93311 0.23062 0.0
H1525 H 0.74968 0.94561 0.29428 0.0
H1526 H 0.74083 0.94793 0.20329 0.0
H1527 H 0.78502 0.93697 0.26173 0.0
H1528 H 0.7323 0.94277 0.2728 0.0
H1529 H 0.71939 0.93015 0.25353 0.0
C1530 C 0.71502 0.93575 0.22942 0.0
C1531 C 0.72076 0.94106 0.21505 0.0
C1532 C 0.7438 0.94109 0.27037 0.0
C1533 C 0.73899 0.93802 0.24133 0.0
C1534 C 0.75379 0.9429 0.28264 0.0
C1535 C 0.76887 0.94161 0.27981 0.0
C1536 C 0.74892 0.93808 0.25509 0.0
C1537 C 0.77351 0.93806 0.26447 0.0
C1538 C 0.72408 0.9342 0.24257 0.0
C1539 C 0.73585 0.94406 0.21417 0.0
N1540 N 0.76358 0.93664 0.25264 0.0
N1541 N 0.74441 0.94255 0.22714 0.0
H1542 H 0.09928 0.70874 0.21551 0.0
H1543 H 0.08527 0.78352 0.26949 0.0
H1544 H 0.08997 0.75504 0.19752 0.0
H1545 H 0.08943 0.73624 0.28727 0.0
H1546 H 0.0928 0.7744 0.2436 0.0
H1547 H 0.10187 0.71974 0.24189 0.0
C1548 C 0.09797 0.72128 0.2171 0.0
C1549 C 0.09399 0.73095 0.20444 0.0
C1550 C 0.09222 0.76603 0.25318 0.0
C1551 C 0.09689 0.74364 0.23459 0.0
C1552 C 0.0878 0.77122 0.26799 0.0
C1553 C 0.0863 0.76056 0.28049 0.0
C1554 C 0.09505 0.75 0.25076 0.0
C1555 C 0.09029 0.74484 0.27792 0.0
C1556 C 0.0995 0.72756 0.23216 0.0
C1557 C 0.09295 0.74718 0.20702 0.0
N1558 N 0.09425 0.73997 0.26327 0.0
N1559 N 0.09409 0.753 0.22189 0.0
H1560 H 0.20953 0.9121 0.74669 0.0
H1561 H 0.29393 0.93416 0.75551 0.0
H1562 H 0.23454 0.93446 0.70983 0.0
H1563 H 0.26506 0.926 0.79489 0.0
H1564 H 0.27366 0.92894 0.73757 0.0
H1565 H 0.23136 0.91141 0.76308 0.0
C1566 C 0.21964 0.91669 0.74193 0.0
C1567 C 0.2201 0.92362 0.72691 0.0
C1568 C 0.27181 0.92821 0.75014 0.0
C1569 C 0.24515 0.92287 0.74574 0.0
C1570 C 0.28336 0.93116 0.76042 0.0
C1571 C 0.28117 0.93068 0.77679 0.0
C1572 C 0.25797 0.92461 0.75623 0.0
C1573 C 0.26723 0.92667 0.78239 0.0
C1574 C 0.23209 0.91634 0.75135 0.0
C1575 C 0.23361 0.92918 0.72137 0.0
N1576 N 0.25615 0.92383 0.77213 0.0
N1577 N 0.24558 0.92882 0.73085 0.0
H1578 H 0.08751 0.21915 0.70981 0.0
H1579 H 0.07504 0.29348 0.76276 0.0
H1580 H 0.07955 0.26513 0.69036 0.0
H1581 H 0.09247 0.24972 0.78035 0.0
H1582 H 0.08019 0.28476 0.73595 0.0
H1583 H 0.09344 0.23118 0.73507 0.0
C1584 C 0.0874 0.23185 0.71082 0.0
C1585 C 0.08294 0.2412 0.69814 0.0
C1586 C 0.08315 0.27719 0.74569 0.0
C1587 C 0.08915 0.25507 0.72712 0.0
C1588 C 0.08019 0.28216 0.76103 0.0
C1589 C 0.08311 0.27221 0.77384 0.0
C1590 C 0.08888 0.26207 0.74313 0.0
C1591 C 0.08985 0.25769 0.77084 0.0
C1592 C 0.09074 0.23874 0.72524 0.0
C1593 C 0.08298 0.25757 0.69993 0.0
N1594 N 0.09227 0.25296 0.7558 0.0
N1595 N 0.08567 0.26401 0.71431 0.0
H1596 H 0.77324 0.07949 0.72177 0.0
H1597 H 0.73759 0.03401 0.78921 0.0
H1598 H 0.75058 0.03646 0.71035 0.0
H1599 H 0.71489 0.07719 0.7783 0.0
H1600 H 0.75127 0.03652 0.76456 0.0
H1601 H 0.75957 0.08072 0.74677 0.0
C1602 C 0.76532 0.07042 0.72447 0.0
C1603 C 0.76297 0.05787 0.71403 0.0
C1604 C 0.74343 0.04552 0.76777 0.0
C1605 C 0.74787 0.05902 0.74243 0.0
C1606 C 0.7357 0.04418 0.78181 0.0
C1607 C 0.72505 0.05538 0.78572 0.0
C1608 C 0.74076 0.05832 0.75784 0.0
C1609 C 0.72295 0.06826 0.77561 0.0
C1610 C 0.75757 0.07116 0.73862 0.0
C1611 C 0.75261 0.04639 0.71802 0.0
N1612 N 0.73079 0.06943 0.76204 0.0
N1613 N 0.74562 0.04707 0.73208 0.0
H1614 H 0.91573 0.78326 0.72563 0.0
H1615 H 0.90676 0.70844 0.77828 0.0
H1616 H 0.90194 0.73826 0.70746 0.0
H1617 H 0.91121 0.75514 0.79745 0.0
H1618 H 0.90059 0.7198 0.75281 0.0
H1619 H 0.90989 0.77434 0.75214 0.0
C1620 C 0.91125 0.77159 0.72717 0.0
C1621 C 0.90966 0.76136 0.71434 0.0
C1622 C 0.90266 0.72761 0.76263 0.0
C1623 C 0.90313 0.75098 0.74471 0.0
C1624 C 0.90627 0.7211 0.77716 0.0
C1625 C 0.90993 0.73088 0.78982 0.0
C1626 C 0.90304 0.74401 0.76068 0.0
C1627 C 0.90867 0.7472 0.78788 0.0
C1628 C 0.90787 0.76651 0.74233 0.0
C1629 C 0.90358 0.74645 0.71704 0.0
N1630 N 0.90567 0.75328 0.77345 0.0
N1631 N 0.90082 0.74159 0.73196 0.0
H1632 H 0.17289 0.23587 0.10996 0.0
H1633 H 0.25637 0.24838 0.13148 0.0
H1634 H 0.1914 0.28035 0.12363 0.0
H1635 H 0.23782 0.20504 0.11445 0.0
H1636 H 0.23157 0.25839 0.13622 0.0
H1637 H 0.19498 0.22261 0.11946 0.0
C1638 C 0.18141 0.24274 0.11555 0.0
C1639 C 0.18047 0.25915 0.11603 0.0
C1640 C 0.23294 0.24658 0.1317 0.0
C1641 C 0.20594 0.2443 0.12623 0.0
C1642 C 0.24707 0.24087 0.12904 0.0
C1643 C 0.24905 0.2261 0.12206 0.0
C1644 C 0.2208 0.23737 0.12737 0.0
C1645 C 0.23672 0.21676 0.11922 0.0
C1646 C 0.19408 0.23524 0.12081 0.0
C1647 C 0.19184 0.26764 0.12305 0.0
N1648 N 0.22312 0.22262 0.12167 0.0
N1649 N 0.20426 0.26016 0.12761 0.0
H1650 H 0.22788 0.70722 0.89631 0.0
H1651 H 0.29026 0.75125 0.88581 0.0
H1652 H 0.20395 0.74717 0.87854 0.0
H1653 H 0.26031 0.79031 0.88907 0.0
H1654 H 0.26971 0.7339 0.87983 0.0
H1655 H 0.25067 0.72099 0.89106 0.0
C1656 C 0.22742 0.71872 0.89089 0.0
C1657 C 0.21395 0.7261 0.88806 0.0
C1658 C 0.26761 0.74626 0.88183 0.0
C1659 C 0.24014 0.74208 0.88193 0.0
C1660 C 0.27939 0.75624 0.88505 0.0
C1661 C 0.27698 0.77222 0.88831 0.0
C1662 C 0.2533 0.75231 0.88199 0.0
C1663 C 0.26268 0.77803 0.88693 0.0
C1664 C 0.24051 0.72661 0.88777 0.0
C1665 C 0.21407 0.74105 0.88102 0.0
N1666 N 0.25138 0.76806 0.88407 0.0
N1667 N 0.22693 0.74867 0.87853 0.0
H1668 H 0.24762 0.29442 0.91714 0.0
H1669 H 0.24749 0.20325 0.92498 0.0
H1670 H 0.20906 0.2666 0.90826 0.0
H1671 H 0.28721 0.22983 0.91825 0.0
H1672 H 0.23343 0.22572 0.9155 0.0
H1673 H 0.26263 0.27094 0.91378 0.0
C1674 C 0.24235 0.28342 0.91412 0.0
C1675 C 0.22707 0.28238 0.91329 0.0
C1676 C 0.24524 0.22655 0.91581 0.0
C1677 C 0.24413 0.25539 0.90983 0.0
C1678 C 0.25328 0.21374 0.92131 0.0
C1679 C 0.26853 0.21478 0.92276 0.0
C1680 C 0.25248 0.24061 0.91202 0.0
C1681 C 0.27545 0.22857 0.91756 0.0
C1682 C 0.25092 0.27 0.9122 0.0
C1683 C 0.2208 0.26789 0.90916 0.0
N1684 N 0.26735 0.24107 0.91273 0.0
N1685 N 0.22934 0.25485 0.90798 0.0
H1686 H 0.71117 0.2489 0.89357 0.0
H1687 H 0.77413 0.29188 0.91142 0.0
H1688 H 0.73708 0.2111 0.91272 0.0
H1689 H 0.79721 0.25001 0.89724 0.0
H1690 H 0.75093 0.27804 0.90767 0.0
H1691 H 0.73346 0.26473 0.89078 0.0
C1692 C 0.72156 0.24391 0.89708 0.0
C1693 C 0.72229 0.22879 0.90367 0.0
C1694 C 0.76106 0.272 0.90505 0.0
C1695 C 0.74766 0.2467 0.90047 0.0
C1696 C 0.77429 0.27983 0.90736 0.0
C1697 C 0.78755 0.272 0.90476 0.0
C1698 C 0.76118 0.25614 0.90047 0.0
C1699 C 0.78718 0.25644 0.89933 0.0
C1700 C 0.73421 0.25296 0.89558 0.0
C1701 C 0.736 0.22282 0.90796 0.0
N1702 N 0.77418 0.24887 0.8977 0.0
N1703 N 0.74818 0.23179 0.90624 0.0
H1704 H 0.79018 0.72931 0.93029 0.0
H1705 H 0.7081 0.76178 0.9327 0.0
H1706 H 0.75224 0.69949 0.93512 0.0
H1707 H 0.74597 0.79015 0.94338 0.0
H1708 H 0.72423 0.73948 0.92733 0.0
H1709 H 0.77405 0.75221 0.92861 0.0
C1710 C 0.77846 0.72753 0.93075 0.0
C1711 C 0.77257 0.71245 0.93309 0.0
C1712 C 0.72899 0.75063 0.93073 0.0
C1713 C 0.75409 0.73862 0.9312 0.0
C1714 C 0.7198 0.76338 0.93378 0.0
C1715 C 0.72566 0.77782 0.93873 0.0
C1716 C 0.74417 0.75234 0.9325 0.0
C1717 C 0.74094 0.77919 0.93982 0.0
C1718 C 0.76928 0.74062 0.92987 0.0
C1719 C 0.75729 0.71089 0.93355 0.0
N1720 N 0.74965 0.7666 0.93681 0.0
N1721 N 0.74859 0.72382 0.93273 0.0
H1722 H 0.7246 0.76002 0.11688 0.0
H1723 H 0.78903 0.72629 0.06471 0.0
H1724 H 0.73308 0.7757 0.06944 0.0
H1725 H 0.79114 0.72546 0.1154 0.0
H1726 H 0.76783 0.74366 0.06625 0.0
H1727 H 0.7482 0.74623 0.11678 0.0
C1728 C 0.73145 0.76063 0.1065 0.0
C1729 C 0.72689 0.769 0.09314 0.0
C1730 C 0.773 0.73983 0.07705 0.0
C1731 C 0.75369 0.75325 0.09293 0.0
C1732 C 0.78507 0.72991 0.07617 0.0
C1733 C 0.79176 0.72445 0.08995 0.0
C1734 C 0.76736 0.74403 0.09182 0.0
C1735 C 0.78628 0.7295 0.10451 0.0
C1736 C 0.74492 0.75285 0.10648 0.0
C1737 C 0.73618 0.76945 0.08002 0.0
N1738 N 0.77422 0.73886 0.10509 0.0
N1739 N 0.74906 0.76157 0.08019 0.0
H1740 H 0.30028 0.75549 0.0579 0.0
H1741 H 0.22601 0.72351 0.09463 0.0
H1742 H 0.26552 0.78355 0.07749 0.0
H1743 H 0.25056 0.69813 0.05948 0.0
H1744 H 0.2463 0.74189 0.09738 0.0
H1745 H 0.28739 0.73154 0.06668 0.0
C1746 C 0.29013 0.75657 0.06438 0.0
C1747 C 0.28373 0.77136 0.06677 0.0
C1748 C 0.24738 0.73209 0.08932 0.0
C1749 C 0.26925 0.7444 0.07699 0.0
C1750 C 0.23582 0.72159 0.08775 0.0
C1751 C 0.23643 0.70961 0.07642 0.0
C1752 C 0.25954 0.73073 0.07935 0.0
C1753 C 0.24955 0.70742 0.06812 0.0
C1754 C 0.28282 0.74299 0.06935 0.0
C1755 C 0.27063 0.77229 0.07521 0.0
N1756 N 0.26049 0.71817 0.06944 0.0
N1757 N 0.26377 0.75899 0.07992 0.0
H1758 H 0.77905 0.25961 0.08953 0.0
H1759 H 0.69797 0.23528 0.06496 0.0
H1760 H 0.75229 0.29012 0.06083 0.0
H1761 H 0.73401 0.20294 0.06984 0.0
H1762 H 0.71476 0.25722 0.07096 0.0
H1763 H 0.75903 0.24079 0.09063 0.0
C1764 C 0.7689 0.26249 0.08363 0.0
C1765 C 0.76751 0.27632 0.07471 0.0
C1766 C 0.71886 0.24527 0.07088 0.0
C1767 C 0.74453 0.25475 0.07603 0.0
C1768 C 0.70934 0.23281 0.06753 0.0
C1769 C 0.71473 0.21737 0.06676 0.0
C1770 C 0.73366 0.24209 0.0739 0.0
C1771 C 0.7295 0.21471 0.07013 0.0
C1772 C 0.75749 0.25171 0.08427 0.0
C1773 C 0.75394 0.2795 0.06762 0.0
N1774 N 0.73845 0.22694 0.07357 0.0
N1775 N 0.74299 0.26866 0.06824 0.0
H1776 H 0.70443 0.61753 0.76111 0.0
H1777 H 0.78974 0.62728 0.74368 0.0
H1778 H 0.72341 0.6191 0.71478 0.0
H1779 H 0.7716 0.61013 0.78719 0.0
H1780 H 0.76494 0.63408 0.73479 0.0
H1781 H 0.7283 0.62472 0.77231 0.0
C1782 C 0.71351 0.61994 0.75329 0.0
C1783 C 0.71211 0.61759 0.73707 0.0
C1784 C 0.76645 0.62917 0.74644 0.0
C1785 C 0.73929 0.62556 0.74966 0.0
C1786 C 0.78058 0.62538 0.75152 0.0
C1787 C 0.78259 0.61785 0.76602 0.0
C1788 C 0.75438 0.62551 0.75604 0.0
C1789 C 0.77041 0.61557 0.77576 0.0
C1790 C 0.72713 0.62392 0.75966 0.0
C1791 C 0.72418 0.62065 0.72738 0.0
N1792 N 0.7568 0.61921 0.77053 0.0
N1793 N 0.73733 0.62429 0.73383 0.0
H1794 H 0.24805 0.40766 0.78423 0.0
H1795 H 0.29709 0.37302 0.71707 0.0
H1796 H 0.23295 0.37198 0.75211 0.0
H1797 H 0.31323 0.40334 0.75368 0.0
H1798 H 0.27538 0.36755 0.73296 0.0
H1799 H 0.27309 0.4023 0.7763 0.0
C1800 C 0.24999 0.39875 0.77544 0.0
C1801 C 0.23836 0.39063 0.76844 0.0
C1802 C 0.2839 0.37494 0.73783 0.0
C1803 C 0.26713 0.38426 0.75932 0.0
C1804 C 0.29638 0.37786 0.72884 0.0
C1805 C 0.30691 0.38855 0.73418 0.0
C1806 C 0.28185 0.38311 0.75203 0.0
C1807 C 0.30537 0.39491 0.74927 0.0
C1808 C 0.26435 0.39551 0.77105 0.0
C1809 C 0.24161 0.37868 0.75761 0.0
N1810 N 0.29288 0.39238 0.75754 0.0
N1811 N 0.25569 0.37606 0.75313 0.0
H1812 H 0.2014 0.60724 0.20717 0.0
H1813 H 0.26382 0.61868 0.25265 0.0
H1814 H 0.1839 0.58315 0.24756 0.0
H1815 H 0.24927 0.57465 0.27253 0.0
H1816 H 0.2393 0.62258 0.24158 0.0
H1817 H 0.22354 0.61323 0.22203 0.0
C1818 C 0.20206 0.60372 0.21939 0.0
C1819 C 0.19093 0.59469 0.22621 0.0
C1820 C 0.24152 0.6121 0.24842 0.0
C1821 C 0.21624 0.6012 0.2432 0.0
C1822 C 0.25549 0.60987 0.25474 0.0
C1823 C 0.25862 0.59631 0.26354 0.0
C1824 C 0.23067 0.60068 0.25097 0.0
C1825 C 0.24738 0.58536 0.266 0.0
C1826 C 0.21468 0.60718 0.2279 0.0
C1827 C 0.19227 0.59024 0.24198 0.0
N1828 N 0.23393 0.58779 0.25975 0.0
N1829 N 0.20492 0.59317 0.24985 0.0
H1830 H 0.81135 0.41525 0.25257 0.0
H1831 H 0.73133 0.37757 0.25736 0.0
H1832 H 0.78882 0.39464 0.21314 0.0
H1833 H 0.74648 0.41502 0.28741 0.0
H1834 H 0.75576 0.37611 0.24553 0.0
H1835 H 0.79103 0.40721 0.26978 0.0
C1836 C 0.80236 0.40856 0.24767 0.0
C1837 C 0.80158 0.4057 0.23147 0.0
C1838 C 0.75376 0.38446 0.25491 0.0
C1839 C 0.77848 0.39661 0.25086 0.0
C1840 C 0.73985 0.38529 0.26167 0.0
C1841 C 0.73678 0.39672 0.27311 0.0
C1842 C 0.7647 0.39496 0.25983 0.0
C1843 C 0.74824 0.40637 0.27832 0.0
C1844 C 0.79075 0.40411 0.25743 0.0
C1845 C 0.78968 0.39718 0.22558 0.0
N1846 N 0.76167 0.40536 0.27156 0.0
N1847 N 0.7785 0.39305 0.23525 0.0
H1848 H 0.265 0.58553 0.71588 0.0
H1849 H 0.24596 0.55577 0.7993 0.0
H1850 H 0.295 0.55603 0.74153 0.0
H1851 H 0.22649 0.59709 0.77866 0.0
H1852 H 0.26664 0.5584 0.78114 0.0
H1853 H 0.25309 0.59259 0.7405 0.0
C1854 C 0.26919 0.58072 0.72679 0.0
C1855 C 0.28081 0.57003 0.72672 0.0
C1856 C 0.25808 0.5672 0.78095 0.0
C1857 C 0.26704 0.57772 0.75499 0.0
C1858 C 0.24632 0.56576 0.7914 0.0
C1859 C 0.23435 0.57599 0.79015 0.0
C1860 C 0.25767 0.57885 0.7692 0.0
C1861 C 0.23536 0.58872 0.77972 0.0
C1862 C 0.26245 0.5848 0.74089 0.0
C1863 C 0.28597 0.56425 0.74116 0.0
N1864 N 0.24663 0.58957 0.76939 0.0
N1865 N 0.2788 0.56785 0.75473 0.0
H1866 H 0.69403 0.42358 0.73513 0.0
H1867 H 0.77011 0.39624 0.77112 0.0
H1868 H 0.73185 0.40943 0.70839 0.0
H1869 H 0.7444 0.43384 0.79114 0.0
H1870 H 0.75028 0.39067 0.75279 0.0
H1871 H 0.7073 0.41733 0.75957 0.0
C1872 C 0.70493 0.41864 0.73443 0.0
C1873 C 0.712 0.41711 0.71987 0.0
C1874 C 0.74886 0.39986 0.76149 0.0
C1875 C 0.72693 0.4098 0.74744 0.0
C1876 C 0.76015 0.40309 0.77195 0.0
C1877 C 0.75912 0.41593 0.78228 0.0
C1878 C 0.73644 0.40948 0.7614 0.0
C1879 C 0.74579 0.42408 0.78311 0.0
C1880 C 0.71246 0.41516 0.74831 0.0
C1881 C 0.72613 0.41086 0.71946 0.0
N1882 N 0.73504 0.42095 0.7725 0.0
N1883 N 0.73319 0.40751 0.73308 0.0
H1884 H 0.24037 0.42992 0.20261 0.0
H1885 H 0.24283 0.44415 0.29489 0.0
H1886 H 0.20164 0.431 0.2316 0.0
H1887 H 0.2811 0.43379 0.26699 0.0
H1888 H 0.22747 0.43782 0.27225 0.0
H1889 H 0.25537 0.42941 0.22631 0.0
C1890 C 0.23501 0.42986 0.21397 0.0
C1891 C 0.21972 0.43071 0.2151 0.0
C1892 C 0.23922 0.43679 0.27114 0.0
C1893 C 0.23688 0.43037 0.24235 0.0
C1894 C 0.24802 0.44047 0.28405 0.0
C1895 C 0.26332 0.43971 0.28281 0.0
C1896 C 0.24575 0.43247 0.25682 0.0
C1897 C 0.26938 0.43468 0.26849 0.0
C1898 C 0.24359 0.42956 0.22752 0.0
C1899 C 0.21339 0.43043 0.23015 0.0
N1900 N 0.26059 0.43143 0.25602 0.0
N1901 N 0.222 0.43053 0.2432 0.0
H1902 H 0.78919 0.58807 0.22843 0.0
H1903 H 0.74749 0.54036 0.2954 0.0
H1904 H 0.78329 0.53779 0.22951 0.0
H1905 H 0.73587 0.58729 0.28065 0.0
H1906 H 0.76949 0.5419 0.27905 0.0
H1907 H 0.77825 0.58975 0.25487 0.0
C1908 C 0.78598 0.57738 0.23445 0.0
C1909 C 0.7868 0.56281 0.22681 0.0
C1910 C 0.76232 0.55202 0.2798 0.0
C1911 C 0.77468 0.56458 0.25681 0.0
C1912 C 0.74981 0.55118 0.28915 0.0
C1913 C 0.73965 0.56354 0.28895 0.0
C1914 C 0.76468 0.56535 0.27038 0.0
C1915 C 0.74325 0.57733 0.28075 0.0
C1916 C 0.77977 0.57834 0.24945 0.0
C1917 C 0.78255 0.54926 0.23498 0.0
N1918 N 0.75536 0.57777 0.27153 0.0
N1919 N 0.77654 0.55048 0.24951 0.0
H1920 H 0.21653 0.75435 0.62921 0.0
H1921 H 0.30037 0.75929 0.60517 0.0
H1922 H 0.2364 0.79424 0.60623 0.0
H1923 H 0.2781 0.71716 0.61992 0.0
H1924 H 0.27922 0.77487 0.61387 0.0
H1925 H 0.24088 0.74362 0.6342 0.0
C1926 C 0.226 0.76107 0.62555 0.0
C1927 C 0.22439 0.77504 0.61695 0.0
C1928 C 0.27912 0.76225 0.61558 0.0
C1929 C 0.2523 0.76272 0.62245 0.0
C1930 C 0.29123 0.7534 0.61074 0.0
C1931 C 0.29077 0.73695 0.61159 0.0
C1932 C 0.26659 0.75451 0.6213 0.0
C1933 C 0.27869 0.72983 0.61878 0.0
C1934 C 0.23992 0.7549 0.62836 0.0
C1935 C 0.23709 0.78329 0.61265 0.0
N1936 N 0.26699 0.73861 0.62314 0.0
N1937 N 0.2505 0.77686 0.61517 0.0
H1938 H 0.22435 0.20455 0.40742 0.0
H1939 H 0.25839 0.28832 0.39939 0.0
H1940 H 0.19747 0.24406 0.39433 0.0
H1941 H 0.28334 0.24656 0.38922 0.0
H1942 H 0.23586 0.27287 0.39788 0.0
H1943 H 0.24614 0.21993 0.40153 0.0
C1944 C 0.22305 0.21652 0.40341 0.0
C1945 C 0.20916 0.2232 0.4017 0.0
C1946 C 0.24625 0.26714 0.39576 0.0
C1947 C 0.23402 0.24086 0.39484 0.0
C1948 C 0.25909 0.2759 0.39677 0.0
C1949 C 0.27267 0.26857 0.39477 0.0
C1950 C 0.2471 0.25089 0.3931 0.0
C1951 C 0.27303 0.25256 0.39093 0.0
C1952 C 0.23548 0.22522 0.39983 0.0
C1953 C 0.20806 0.23859 0.39593 0.0
N1954 N 0.26041 0.24414 0.39054 0.0
N1955 N 0.22038 0.24706 0.39297 0.0
H1956 H 0.24736 0.79316 0.42664 0.0
H1957 H 0.28832 0.72593 0.42009 0.0
H1958 H 0.21041 0.76543 0.41155 0.0
H1959 H 0.24633 0.70354 0.42618 0.0
H1960 H 0.27583 0.75003 0.41197 0.0
H1961 H 0.26328 0.77082 0.42183 0.0
C1962 C 0.24264 0.78247 0.42192 0.0
C1963 C 0.22747 0.78104 0.41989 0.0
C1964 C 0.26936 0.73986 0.41511 0.0
C1965 C 0.24571 0.75533 0.41418 0.0
C1966 C 0.27648 0.72605 0.41964 0.0
C1967 C 0.26834 0.71286 0.42434 0.0
C1968 C 0.25399 0.74045 0.41539 0.0
C1969 C 0.25305 0.71356 0.42313 0.0
C1970 C 0.2518 0.7697 0.41901 0.0
C1971 C 0.22201 0.76699 0.41353 0.0
N1972 N 0.24639 0.72718 0.41896 0.0
N1973 N 0.23108 0.75455 0.41128 0.0
H1974 H 0.79107 0.75168 0.3921 0.0
H1975 H 0.72969 0.70517 0.40542 0.0
H1976 H 0.76324 0.78774 0.41151 0.0
H1977 H 0.70486 0.74725 0.39612 0.0
H1978 H 0.75227 0.72012 0.40221 0.0
H1979 H 0.76946 0.73512 0.38799 0.0
C1980 C 0.78042 0.75614 0.39545 0.0
C1981 C 0.77897 0.77098 0.4025 0.0
C1982 C 0.74191 0.72602 0.4005 0.0
C1983 C 0.75434 0.75218 0.39789 0.0
C1984 C 0.72902 0.71754 0.40257 0.0
C1985 C 0.71545 0.72508 0.40129 0.0
C1986 C 0.74117 0.74221 0.39737 0.0
C1987 C 0.71515 0.74105 0.39723 0.0
C1988 C 0.76814 0.74665 0.3932 0.0
C1989 C 0.76493 0.77626 0.40646 0.0
N1990 N 0.72785 0.7492 0.39575 0.0
N1991 N 0.75315 0.76686 0.4041 0.0
H1992 H 0.71466 0.27149 0.41041 0.0
H1993 H 0.79424 0.23348 0.41761 0.0
H1994 H 0.752 0.29675 0.42847 0.0
H1995 H 0.7541 0.20717 0.42202 0.0
H1996 H 0.77987 0.2574 0.41291 0.0
H1997 H 0.73038 0.24872 0.40559 0.0
C1998 C 0.72622 0.2724 0.41302 0.0
C1999 C 0.73198 0.28595 0.42015 0.0
C2000 C 0.77426 0.24632 0.41468 0.0
C2001 C 0.74994 0.25997 0.41462 0.0
C2002 C 0.78242 0.23268 0.41732 0.0
C2003 C 0.77532 0.21838 0.42046 0.0
C2004 C 0.75894 0.24554 0.41488 0.0
C2005 C 0.76 0.21801 0.41992 0.0
C2006 C 0.73514 0.25937 0.41034 0.0
C2007 C 0.74706 0.28645 0.42322 0.0
N2008 N 0.75231 0.23141 0.41726 0.0
N2009 N 0.75551 0.27357 0.42058 0.0
H2010 H 0.78306 0.24787 0.60799 0.0
H2011 H 0.69591 0.24047 0.6064 0.0
H2012 H 0.75922 0.20895 0.5881 0.0
H2013 H 0.71861 0.28387 0.61555 0.0
H2014 H 0.71937 0.22651 0.60675 0.0
H2015 H 0.75984 0.25917 0.61711 0.0
C2016 C 0.77295 0.2417 0.60557 0.0
C2017 C 0.77299 0.22772 0.59682 0.0
C2018 C 0.71921 0.23903 0.60904 0.0
C2019 C 0.74657 0.24031 0.60745 0.0
C2020 C 0.70583 0.24693 0.60901 0.0
C2021 C 0.70548 0.26324 0.61098 0.0
C2022 C 0.73223 0.24763 0.61085 0.0
C2023 C 0.71856 0.27123 0.61401 0.0
C2024 C 0.75974 0.24811 0.6108 0.0
C2025 C 0.75966 0.22005 0.5942 0.0
N2026 N 0.73148 0.26338 0.61367 0.0
N2027 N 0.74699 0.22647 0.59942 0.0
H2028 H 0.24295 0.20154 0.56904 0.0
H2029 H 0.24741 0.29364 0.5651 0.0
H2030 H 0.20489 0.2307 0.57611 0.0
H2031 H 0.28487 0.26473 0.57606 0.0
H2032 H 0.23149 0.27113 0.57023 0.0
H2033 H 0.25848 0.22461 0.57259 0.0
C2034 C 0.23787 0.21279 0.57149 0.0
C2035 C 0.22261 0.21425 0.5721 0.0
C2036 C 0.24318 0.2698 0.57177 0.0
C2037 C 0.24031 0.24075 0.57597 0.0
C2038 C 0.25229 0.28262 0.56879 0.0
C2039 C 0.26753 0.281 0.56988 0.0
C2040 C 0.24937 0.25518 0.57559 0.0
C2041 C 0.2732 0.2665 0.5749 0.0
C2042 C 0.24674 0.22594 0.5736 0.0
C2043 C 0.21662 0.22907 0.57549 0.0
N2044 N 0.26414 0.25407 0.57729 0.0
N2045 N 0.22548 0.24182 0.57701 0.0
H2046 H 0.79421 0.76374 0.56307 0.0
H2047 H 0.7117 0.73433 0.5732 0.0
H2048 H 0.7566 0.79434 0.56054 0.0
H2049 H 0.74734 0.70359 0.56035 0.0
H2050 H 0.72893 0.75621 0.57489 0.0
H2051 H 0.77788 0.74149 0.56812 0.0
C2052 C 0.78254 0.76582 0.56372 0.0
C2053 C 0.77675 0.78091 0.56116 0.0
C2054 C 0.73298 0.74463 0.57185 0.0
C2055 C 0.75807 0.75553 0.56703 0.0
C2056 C 0.72317 0.7321 0.57094 0.0
C2057 C 0.72803 0.71712 0.56637 0.0
C2058 C 0.74778 0.74215 0.56828 0.0
C2059 C 0.74305 0.71497 0.56368 0.0
C2060 C 0.77324 0.75311 0.56657 0.0
C2061 C 0.76154 0.78289 0.56221 0.0
N2062 N 0.75238 0.72738 0.56457 0.0
N2063 N 0.75273 0.77034 0.56501 0.0
H2064 H 0.56249 0.23168 0.78512 0.0
H2065 H 0.5758 0.30855 0.76142 0.0
H2066 H 0.57858 0.21832 0.73935 0.0
H2067 H 0.56388 0.29011 0.71595 0.0
H2068 H 0.57936 0.2815 0.77092 0.0
H2069 H 0.56467 0.2593 0.77769 0.0
C2070 C 0.56645 0.23454 0.7735 0.0
C2071 C 0.57017 0.22269 0.76276 0.0
C2072 C 0.576 0.28342 0.75886 0.0
C2073 C 0.57303 0.25428 0.75429 0.0
C2074 C 0.57416 0.29881 0.7534 0.0
C2075 C 0.56925 0.30145 0.738 0.0
C2076 C 0.57307 0.27073 0.74874 0.0
C2077 C 0.5673 0.2885 0.72803 0.0
C2078 C 0.56796 0.25033 0.76937 0.0
C2079 C 0.57557 0.22712 0.74796 0.0
N2080 N 0.56918 0.27367 0.73357 0.0
N2081 N 0.5766 0.24259 0.74405 0.0
H2082 H 0.40148 0.70248 0.75588 0.0
H2083 H 0.41062 0.79563 0.75441 0.0
H2084 H 0.41948 0.72663 0.71564 0.0
H2085 H 0.41792 0.76746 0.79585 0.0
H2086 H 0.40672 0.77137 0.73914 0.0
H2087 H 0.39984 0.72767 0.76972 0.0
C2088 C 0.40485 0.71311 0.74986 0.0
C2089 C 0.41086 0.71246 0.7347 0.0
C2090 C 0.4091 0.77059 0.7516 0.0
C2091 C 0.40889 0.74115 0.75036 0.0
C2092 C 0.41131 0.78433 0.76026 0.0
C2093 C 0.41488 0.78339 0.77627 0.0
C2094 C 0.41005 0.75597 0.75919 0.0
C2095 C 0.41557 0.7686 0.78344 0.0
C2096 C 0.40397 0.72741 0.75778 0.0
C2097 C 0.41504 0.72658 0.72742 0.0
N2098 N 0.41312 0.75542 0.77485 0.0
N2099 N 0.41403 0.7404 0.73535 0.0
H2100 H 0.58929 0.69387 0.26568 0.0
H2101 H 0.54476 0.76479 0.22682 0.0
H2102 H 0.54222 0.69588 0.26353 0.0
H2103 H 0.58776 0.77129 0.24668 0.0
H2104 H 0.54522 0.73739 0.23531 0.0
H2105 H 0.59038 0.72026 0.2538 0.0
C2106 C 0.57922 0.69977 0.26251 0.0
C2107 C 0.56563 0.69278 0.26565 0.0
C2108 C 0.55458 0.74479 0.23776 0.0
C2109 C 0.56681 0.72269 0.25206 0.0
C2110 C 0.55436 0.76043 0.23287 0.0
C2111 C 0.56622 0.77037 0.23612 0.0
C2112 C 0.56681 0.73895 0.24582 0.0
C2113 C 0.57834 0.76405 0.24405 0.0
C2114 C 0.57985 0.71482 0.25585 0.0
C2115 C 0.5529 0.70092 0.26141 0.0
N2116 N 0.57834 0.7487 0.24864 0.0
N2117 N 0.5538 0.71542 0.25482 0.0
H2118 H 0.428 0.27432 0.27803 0.0
H2119 H 0.43303 0.22526 0.19999 0.0
H2120 H 0.42185 0.29618 0.23276 0.0
H2121 H 0.41858 0.20446 0.2436 0.0
H2122 H 0.43015 0.25133 0.2116 0.0
H2123 H 0.42574 0.2485 0.26571 0.0
C2124 C 0.42623 0.27365 0.26548 0.0
C2125 C 0.4254 0.2873 0.25631 0.0
C2126 C 0.42747 0.24105 0.21856 0.0
C2127 C 0.42278 0.2579 0.24216 0.0
C2128 C 0.42923 0.22616 0.21198 0.0
C2129 C 0.42622 0.21267 0.22091 0.0
C2130 C 0.42297 0.24243 0.23427 0.0
C2131 C 0.42107 0.21457 0.23633 0.0
C2132 C 0.42476 0.25894 0.25848 0.0
C2133 C 0.42263 0.28585 0.24017 0.0
N2134 N 0.41982 0.22919 0.24262 0.0
N2135 N 0.42166 0.27135 0.23351 0.0
H2136 H 0.44391 0.2133 0.76841 0.0
H2137 H 0.41679 0.23635 0.69686 0.0
H2138 H 0.40809 0.23881 0.78944 0.0
H2139 H 0.40184 0.27666 0.7231 0.0
H2140 H 0.41895 0.22164 0.72153 0.0
H2141 H 0.43547 0.22145 0.74252 0.0
C2142 C 0.43412 0.22038 0.7676 0.0
C2143 C 0.42661 0.22522 0.78114 0.0
C2144 C 0.4151 0.23368 0.72185 0.0
C2145 C 0.4168 0.23455 0.75144 0.0
C2146 C 0.41361 0.24198 0.70777 0.0
C2147 C 0.40954 0.25787 0.70805 0.0
C2148 C 0.41246 0.2414 0.73619 0.0
C2149 C 0.40545 0.26457 0.72246 0.0
C2150 C 0.42921 0.22492 0.75275 0.0
C2151 C 0.41421 0.23478 0.77932 0.0
N2152 N 0.40719 0.25636 0.73603 0.0
N2153 N 0.40979 0.2393 0.76474 0.0
H2154 H 0.58121 0.71434 0.70849 0.0
H2155 H 0.55733 0.78692 0.75801 0.0
H2156 H 0.56821 0.75759 0.68605 0.0
H2157 H 0.58939 0.75408 0.77561 0.0
H2158 H 0.56106 0.7765 0.73154 0.0
H2159 H 0.58482 0.72864 0.73315 0.0
C2160 C 0.57935 0.72692 0.70874 0.0
C2161 C 0.57424 0.73483 0.69539 0.0
C2162 C 0.56744 0.77176 0.74118 0.0
C2163 C 0.57798 0.75114 0.72349 0.0
C2164 C 0.56525 0.77764 0.75632 0.0
C2165 C 0.57298 0.7713 0.76908 0.0
C2166 C 0.57718 0.75922 0.73885 0.0
C2167 C 0.58314 0.75927 0.76612 0.0
C2168 C 0.58146 0.73508 0.72277 0.0
C2169 C 0.57215 0.75113 0.69617 0.0
N2170 N 0.58478 0.75345 0.75135 0.0
N2171 N 0.5737 0.75873 0.71014 0.0
H2172 H 0.58075 0.2096 0.22594 0.0
H2173 H 0.59067 0.28344 0.27963 0.0
H2174 H 0.59296 0.25515 0.20782 0.0
H2175 H 0.5901 0.23631 0.29821 0.0
H2176 H 0.59536 0.27287 0.25342 0.0
H2177 H 0.58772 0.21818 0.25227 0.0
C2178 C 0.58512 0.22132 0.22743 0.0
C2179 C 0.58598 0.23177 0.21468 0.0
C2180 C 0.5945 0.2648 0.26324 0.0
C2181 C 0.59381 0.24177 0.24488 0.0
C2182 C 0.59177 0.27085 0.27818 0.0
C2183 C 0.5897 0.26068 0.29095 0.0
C2184 C 0.59475 0.24843 0.26099 0.0
C2185 C 0.59154 0.2445 0.28858 0.0
C2186 C 0.58915 0.22621 0.2425 0.0
C2187 C 0.59192 0.24676 0.21733 0.0
N2188 N 0.59361 0.23881 0.27378 0.0
N2189 N 0.59532 0.25141 0.23218 0.0
H2190 H 0.42453 0.73807 0.19095 0.0
H2191 H 0.40995 0.75193 0.28272 0.0
H2192 H 0.41967 0.78423 0.21131 0.0
H2193 H 0.43332 0.71193 0.26422 0.0
H2194 H 0.40753 0.7622 0.25587 0.0
H2195 H 0.42126 0.72651 0.21715 0.0
C2196 C 0.42249 0.74576 0.20087 0.0
C2197 C 0.42261 0.76215 0.199 0.0
C2198 C 0.41308 0.7511 0.25774 0.0
C2199 C 0.41887 0.74904 0.2289 0.0
C2200 C 0.41446 0.74522 0.27304 0.0
C2201 C 0.42195 0.73107 0.27578 0.0
C2202 C 0.419 0.74262 0.24509 0.0
C2203 C 0.42757 0.7229 0.26277 0.0
C2204 C 0.42074 0.73917 0.21581 0.0
C2205 C 0.41995 0.77156 0.21226 0.0
N2206 N 0.42596 0.72877 0.248 0.0
N2207 N 0.41825 0.76488 0.22668 0.0
H2208 H 0.0928 0.13441 0.26638 0.0
H2209 H 0.15538 0.11625 0.32866 0.0
H2210 H 0.08575 0.12103 0.31466 0.0
H2211 H 0.15871 0.10513 0.27921 0.0
H2212 H 0.1326 0.13024 0.32343 0.0
H2213 H 0.11926 0.13551 0.27146 0.0
C2214 C 0.09681 0.13237 0.27819 0.0
C2215 C 0.08725 0.12767 0.29016 0.0
C2216 C 0.13855 0.12508 0.31369 0.0
C2217 C 0.11715 0.12874 0.29597 0.0
C2218 C 0.15155 0.11708 0.31663 0.0
C2219 C 0.15867 0.10901 0.30441 0.0
C2220 C 0.13272 0.12508 0.29845 0.0
C2221 C 0.15335 0.11082 0.28903 0.0
C2222 C 0.11184 0.13286 0.28103 0.0
C2223 C 0.09288 0.12464 0.30515 0.0
N2224 N 0.14048 0.11841 0.28651 0.0
N2225 N 0.10751 0.12508 0.30761 0.0
H2226 H 0.85371 0.11895 0.32762 0.0
H2227 H 0.87098 0.20992 0.32423 0.0
H2228 H 0.82282 0.1544 0.31288 0.0
H2229 H 0.90203 0.17446 0.33798 0.0
H2230 H 0.85117 0.1908 0.32764 0.0
H2231 H 0.86941 0.13966 0.3382 0.0
C2232 C 0.85017 0.13108 0.32672 0.0
C2233 C 0.83712 0.13497 0.31897 0.0
C2234 C 0.86226 0.1873 0.33039 0.0
C2235 C 0.85504 0.15876 0.33104 0.0
C2236 C 0.87351 0.19827 0.32862 0.0
C2237 C 0.88804 0.19361 0.33077 0.0
C2238 C 0.86573 0.17157 0.33397 0.0
C2239 C 0.89089 0.17839 0.3362 0.0
C2240 C 0.8591 0.1429 0.33283 0.0
C2241 C 0.83295 0.15086 0.31844 0.0
N2242 N 0.87986 0.16778 0.33731 0.0
N2243 N 0.84199 0.16218 0.32415 0.0
H2244 H 0.90962 0.85808 0.28956 0.0
H2245 H 0.83548 0.90534 0.27307 0.0
H2246 H 0.87921 0.8446 0.25312 0.0
H2247 H 0.86159 0.90973 0.31516 0.0
H2248 H 0.85296 0.88581 0.26303 0.0
H2249 H 0.8939 0.88021 0.29618 0.0
C2250 C 0.89968 0.85983 0.28285 0.0
C2251 C 0.89563 0.84932 0.27091 0.0
C2252 C 0.85484 0.89112 0.27443 0.0
C2253 C 0.87749 0.87467 0.27853 0.0
C2254 C 0.84489 0.90225 0.28016 0.0
C2255 C 0.84702 0.90908 0.29502 0.0
C2256 C 0.86703 0.88697 0.2836 0.0
C2257 C 0.85942 0.90469 0.3037 0.0
C2258 C 0.89068 0.87247 0.28668 0.0
C2259 C 0.88269 0.85233 0.26251 0.0
N2260 N 0.86892 0.89394 0.29786 0.0
N2261 N 0.874 0.86468 0.26657 0.0
H2262 H 0.15311 0.86425 0.2807 0.0
H2263 H 0.09467 0.82704 0.33621 0.0
H2264 H 0.14249 0.88699 0.32466 0.0
H2265 H 0.12049 0.80019 0.30349 0.0
H2266 H 0.1126 0.84851 0.33454 0.0
H2267 H 0.14078 0.84067 0.28971 0.0
C2268 C 0.14811 0.86433 0.29225 0.0
C2269 C 0.14877 0.87768 0.3019 0.0
C2270 C 0.11462 0.83769 0.32819 0.0
C2271 C 0.13465 0.85048 0.31241 0.0
C2272 C 0.10451 0.82538 0.32932 0.0
C2273 C 0.1062 0.81195 0.31995 0.0
C2274 C 0.1262 0.83648 0.31738 0.0
C2275 C 0.11889 0.81041 0.31091 0.0
C2276 C 0.14121 0.85075 0.29749 0.0
C2277 C 0.14216 0.87697 0.31682 0.0
N2278 N 0.12825 0.82268 0.30956 0.0
N2279 N 0.13521 0.86361 0.32158 0.0
H2280 H 0.08901 0.84536 0.71231 0.0
H2281 H 0.14585 0.91143 0.71701 0.0
H2282 H 0.08761 0.88699 0.68344 0.0
H2283 H 0.15355 0.8656 0.73678 0.0
H2284 H 0.12802 0.90014 0.69911 0.0
H2285 H 0.11533 0.84902 0.71566 0.0
C2286 C 0.09436 0.85492 0.70619 0.0
C2287 C 0.08617 0.8661 0.69791 0.0
C2288 C 0.13384 0.89239 0.70705 0.0
C2289 C 0.11603 0.87071 0.70207 0.0
C2290 C 0.14413 0.8989 0.71719 0.0
C2291 C 0.15115 0.88951 0.72835 0.0
C2292 C 0.13004 0.87645 0.70862 0.0
C2293 C 0.14819 0.87332 0.72845 0.0
C2294 C 0.10938 0.85709 0.70816 0.0
C2295 C 0.09355 0.87833 0.69026 0.0
N2296 N 0.1376 0.86734 0.71899 0.0
N2297 N 0.10803 0.88053 0.69281 0.0
H2298 H 0.15113 0.12206 0.67554 0.0
H2299 H 0.07245 0.15959 0.68653 0.0
H2300 H 0.1132 0.09596 0.69076 0.0
H2301 H 0.10771 0.18459 0.66408 0.0
H2302 H 0.08685 0.13555 0.68576 0.0
H2303 H 0.13533 0.14431 0.66897 0.0
C2304 C 0.13946 0.12095 0.6774 0.0
C2305 C 0.1335 0.10719 0.68395 0.0
C2306 C 0.09145 0.14618 0.68079 0.0
C2307 C 0.11538 0.13266 0.67649 0.0
C2308 C 0.08323 0.15991 0.68124 0.0
C2309 C 0.08901 0.17402 0.67546 0.0
C2310 C 0.10573 0.14659 0.67477 0.0
C2311 C 0.10293 0.17387 0.66862 0.0
C2312 C 0.13045 0.13366 0.67358 0.0
C2313 C 0.1183 0.10636 0.68587 0.0
N2314 N 0.11097 0.16036 0.66869 0.0
N2315 N 0.10981 0.11899 0.68234 0.0
H2316 H 0.82661 0.09934 0.70652 0.0
H2317 H 0.90896 0.11678 0.73307 0.0
H2318 H 0.8579 0.06245 0.71571 0.0
H2319 H 0.87867 0.15161 0.71559 0.0
H2320 H 0.88967 0.09681 0.73077 0.0
H2321 H 0.84475 0.11874 0.71431 0.0
C2322 C 0.83728 0.0953 0.71029 0.0
C2323 C 0.84082 0.07926 0.71022 0.0
C2324 C 0.88729 0.10885 0.72753 0.0
C2325 C 0.86175 0.10148 0.71906 0.0
C2326 C 0.89827 0.12024 0.72883 0.0
C2327 C 0.89547 0.13585 0.72436 0.0
C2328 C 0.87344 0.11319 0.72183 0.0
C2329 C 0.8814 0.1397 0.71902 0.0
C2330 C 0.84766 0.1064 0.71472 0.0
C2331 C 0.85477 0.07472 0.71543 0.0
N2332 N 0.87097 0.12847 0.71788 0.0
N2333 N 0.86481 0.0858 0.7195 0.0
H2334 H 0.86736 0.88572 0.65098 0.0
H2335 H 0.87475 0.80339 0.6918 0.0
H2336 H 0.85086 0.87455 0.69712 0.0
H2337 H 0.89624 0.81663 0.64874 0.0
H2338 H 0.85802 0.82558 0.68878 0.0
H2339 H 0.86971 0.85769 0.64533 0.0
C2340 C 0.86382 0.87731 0.65977 0.0
C2341 C 0.85919 0.8824 0.67466 0.0
C2342 C 0.86603 0.82336 0.67967 0.0
C2343 C 0.86225 0.85031 0.66843 0.0
C2344 C 0.87548 0.81059 0.6813 0.0
C2345 C 0.88692 0.8083 0.67055 0.0
C2346 C 0.86826 0.83409 0.66737 0.0
C2347 C 0.88753 0.81799 0.65725 0.0
C2348 C 0.86521 0.8613 0.65654 0.0
C2349 C 0.8546 0.87108 0.68555 0.0
N2350 N 0.87857 0.83074 0.65624 0.0
N2351 N 0.8566 0.85552 0.68237 0.0
H2352 H 0.30876 0.09366 0.1568 0.0
H2353 H 0.25096 0.15087 0.11537 0.0
H2354 H 0.26799 0.07783 0.13659 0.0
H2355 H 0.2928 0.16623 0.13327 0.0
H2356 H 0.25631 0.12434 0.12466 0.0
H2357 H 0.30274 0.12049 0.14901 0.0
C2358 C 0.29859 0.09578 0.15062 0.0
C2359 C 0.28886 0.08343 0.14736 0.0
C2360 C 0.26427 0.13355 0.12665 0.0
C2361 C 0.28183 0.11421 0.13858 0.0
C2362 C 0.26119 0.14874 0.12144 0.0
C2363 C 0.27149 0.16081 0.12343 0.0
C2364 C 0.27775 0.13039 0.1339 0.0
C2365 C 0.28455 0.15731 0.13139 0.0
C2366 C 0.29513 0.11114 0.14624 0.0
C2367 C 0.27584 0.08695 0.13934 0.0
N2368 N 0.28734 0.1424 0.13623 0.0
N2369 N 0.27269 0.10202 0.13528 0.0
H2370 H 0.84168 0.2938 0.09254 0.0
H2371 H 0.9233 0.27019 0.10809 0.0
H2372 H 0.85994 0.24755 0.08607 0.0
H2373 H 0.90322 0.31381 0.12244 0.0
H2374 H 0.90326 0.266 0.08956 0.0
H2375 H 0.86642 0.30475 0.09302 0.0
C2376 C 0.85089 0.28605 0.09059 0.0
C2377 C 0.84886 0.26978 0.08943 0.0
C2378 C 0.90346 0.27671 0.09645 0.0
C2379 C 0.8771 0.28205 0.09043 0.0
C2380 C 0.91494 0.27915 0.10699 0.0
C2381 C 0.91456 0.29203 0.11729 0.0
C2382 C 0.89156 0.28718 0.09636 0.0
C2383 C 0.90363 0.30341 0.11511 0.0
C2384 C 0.86502 0.29227 0.09098 0.0
C2385 C 0.86113 0.26017 0.08722 0.0
N2386 N 0.89233 0.30052 0.10517 0.0
N2387 N 0.87475 0.26641 0.08807 0.0
H2388 H 0.68375 0.89659 0.16402 0.0
H2389 H 0.73304 0.84384 0.10735 0.0
H2390 H 0.72238 0.91386 0.1404 0.0
H2391 H 0.69362 0.82755 0.1301 0.0
H2392 H 0.73126 0.86839 0.12209 0.0
H2393 H 0.68872 0.87045 0.15373 0.0
C2394 C 0.69327 0.89492 0.15663 0.0
C2395 C 0.7026 0.90752 0.15298 0.0
C2396 C 0.72311 0.85936 0.12399 0.0
C2397 C 0.70841 0.87745 0.14123 0.0
C2398 C 0.72417 0.84527 0.11566 0.0
C2399 C 0.71331 0.8337 0.11726 0.0
C2400 C 0.71112 0.86188 0.13399 0.0
C2401 C 0.70213 0.83621 0.12829 0.0
C2402 C 0.69614 0.87993 0.15082 0.0
C2403 C 0.71482 0.90454 0.14344 0.0
N2404 N 0.70122 0.8501 0.13607 0.0
N2405 N 0.71734 0.88981 0.13784 0.0
H2406 H 0.10184 0.71903 0.14684 0.0
H2407 H 0.15885 0.70934 0.07801 0.0
H2408 H 0.09385 0.6924 0.10456 0.0
H2409 H 0.16741 0.73448 0.12106 0.0
H2410 H 0.13763 0.697 0.09048 0.0
H2411 H 0.12802 0.71875 0.14089 0.0
C2412 C 0.10566 0.7127 0.13658 0.0
C2413 C 0.09572 0.70589 0.12608 0.0
C2414 C 0.14434 0.70494 0.09734 0.0
C2415 C 0.12549 0.70595 0.11888 0.0
C2416 C 0.15652 0.71188 0.09023 0.0
C2417 C 0.16473 0.72307 0.09845 0.0
C2418 C 0.14029 0.70948 0.11267 0.0
C2419 C 0.16117 0.7261 0.11422 0.0
C2420 C 0.12059 0.71263 0.13309 0.0
C2421 C 0.10118 0.69802 0.11282 0.0
N2422 N 0.14906 0.71957 0.12073 0.0
N2423 N 0.11567 0.6985 0.10944 0.0
H2424 H 0.33249 0.83676 0.88059 0.0
H2425 H 0.31469 0.88546 0.80227 0.0
H2426 H 0.29498 0.82931 0.85081 0.0
H2427 H 0.34091 0.90337 0.84031 0.0
H2428 H 0.31415 0.85965 0.81527 0.0
H2429 H 0.34187 0.85599 0.86142 0.0
C2430 C 0.32644 0.83884 0.86984 0.0
C2431 C 0.31283 0.83163 0.86738 0.0
C2432 C 0.32039 0.8691 0.82054 0.0
C2433 C 0.32348 0.85345 0.84546 0.0
C2434 C 0.32083 0.88375 0.81305 0.0
C2435 C 0.32787 0.89645 0.82026 0.0
C2436 C 0.327 0.86724 0.83538 0.0
C2437 C 0.33541 0.89378 0.83438 0.0
C2438 C 0.33175 0.84986 0.85896 0.0
C2439 C 0.3054 0.83481 0.85328 0.0
N2440 N 0.33463 0.87951 0.84161 0.0
N2441 N 0.31075 0.84555 0.84294 0.0
H2442 H 0.14106 0.33502 0.88664 0.0
H2443 H 0.10255 0.26127 0.84654 0.0
H2444 H 0.16089 0.28924 0.88141 0.0
H2445 H 0.08001 0.30374 0.85969 0.0
H2446 H 0.12595 0.27417 0.85213 0.0
H2447 H 0.12087 0.32646 0.86983 0.0
C2448 C 0.1413 0.32325 0.88177 0.0
C2449 C 0.15249 0.31268 0.88578 0.0
C2450 C 0.11592 0.28079 0.8535 0.0
C2451 C 0.12942 0.30284 0.86661 0.0
C2452 C 0.10263 0.27346 0.85026 0.0
C2453 C 0.08953 0.28154 0.85273 0.0
C2454 C 0.11599 0.29618 0.85955 0.0
C2455 C 0.09001 0.29722 0.85768 0.0
C2456 C 0.12976 0.31838 0.87219 0.0
C2457 C 0.15233 0.29767 0.87892 0.0
N2458 N 0.10306 0.30401 0.86114 0.0
N2459 N 0.14086 0.29313 0.86987 0.0
H2460 H 0.68968 0.16683 0.8733 0.0
H2461 H 0.72252 0.08044 0.8613 0.0
H2462 H 0.7293 0.15071 0.89577 0.0
H2463 H 0.68294 0.09722 0.83921 0.0
H2464 H 0.72601 0.10646 0.87298 0.0
H2465 H 0.6883 0.14206 0.859 0.0
C2466 C 0.69821 0.15818 0.87509 0.0
C2467 C 0.70954 0.16083 0.88592 0.0
C2468 C 0.71657 0.10443 0.86556 0.0
C2469 C 0.70789 0.13225 0.8697 0.0
C2470 C 0.71452 0.08954 0.85895 0.0
C2471 C 0.70238 0.08656 0.84929 0.0
C2472 C 0.7064 0.11643 0.86251 0.0
C2473 C 0.69245 0.09889 0.84661 0.0
C2474 C 0.69738 0.14398 0.86696 0.0
C2475 C 0.72032 0.14918 0.88762 0.0
N2476 N 0.69468 0.11323 0.85318 0.0
N2477 N 0.71914 0.13533 0.87973 0.0
H2478 H 0.91705 0.69079 0.86241 0.0
H2479 H 0.84362 0.71565 0.90587 0.0
H2480 H 0.90504 0.73875 0.87228 0.0
H2481 H 0.85659 0.66759 0.89722 0.0
H2482 H 0.86348 0.72456 0.88882 0.0
H2483 H 0.89253 0.68231 0.87027 0.0
C2484 C 0.90903 0.69954 0.86579 0.0
C2485 C 0.91282 0.71544 0.86654 0.0
C2486 C 0.86187 0.71206 0.89052 0.0
C2487 C 0.88508 0.70594 0.87599 0.0
C2488 C 0.85055 0.70697 0.90027 0.0
C2489 C 0.84869 0.69088 0.90328 0.0
C2490 C 0.87141 0.70096 0.88383 0.0
C2491 C 0.85783 0.68014 0.89551 0.0
C2492 C 0.8951 0.69474 0.87036 0.0
C2493 C 0.90235 0.72638 0.87144 0.0
N2494 N 0.86891 0.68538 0.88631 0.0
N2495 N 0.88894 0.72141 0.87612 0.0
H2496 H 0.14207 0.29426 0.11648 0.0
H2497 H 0.09792 0.34005 0.17911 0.0
H2498 H 0.12125 0.33878 0.10775 0.0
H2499 H 0.12329 0.29862 0.18906 0.0
H2500 H 0.11283 0.34472 0.1557 0.0
H2501 H 0.14188 0.29989 0.14464 0.0
C2502 C 0.13791 0.30543 0.12047 0.0
C2503 C 0.13151 0.3159 0.10983 0.0
C2504 C 0.11556 0.33493 0.1633 0.0
C2505 C 0.13066 0.32233 0.14206 0.0
C2506 C 0.10718 0.33245 0.17683 0.0
C2507 C 0.1094 0.31893 0.1859 0.0
C2508 C 0.12589 0.32353 0.15872 0.0
C2509 C 0.12124 0.30914 0.18223 0.0
C2510 C 0.13769 0.30866 0.13658 0.0
C2511 C 0.12604 0.3302 0.11562 0.0
N2512 N 0.12881 0.31138 0.16869 0.0
N2513 N 0.12545 0.33285 0.13136 0.0
H2514 H 0.14704 0.69933 0.88818 0.0
H2515 H 0.0813 0.73019 0.83413 0.0
H2516 H 0.11994 0.73907 0.89995 0.0
H2517 H 0.10315 0.68563 0.82743 0.0
H2518 H 0.09768 0.7357 0.85619 0.0
H2519 H 0.13359 0.69639 0.86343 0.0
C2520 C 0.1385 0.70764 0.88535 0.0
C2521 C 0.13462 0.71945 0.89601 0.0
C2522 C 0.09889 0.72475 0.84983 0.0
C2523 C 0.11901 0.71609 0.86802 0.0
C2524 C 0.08953 0.72158 0.83725 0.0
C2525 C 0.09077 0.70739 0.82893 0.0
C2526 C 0.10958 0.71366 0.85409 0.0
C2527 C 0.10174 0.69673 0.83347 0.0
C2528 C 0.13071 0.70588 0.87134 0.0
C2529 C 0.12319 0.72971 0.89204 0.0
N2530 N 0.11068 0.70007 0.84575 0.0
N2531 N 0.11575 0.72777 0.87838 0.0
H2532 H 0.27029 0.13626 0.91588 0.0
H2533 H 0.30702 0.11779 0.83251 0.0
H2534 H 0.31122 0.15623 0.90025 0.0
H2535 H 0.26755 0.09528 0.84901 0.0
H2536 H 0.30763 0.13345 0.85649 0.0
H2537 H 0.26852 0.12191 0.89109 0.0
C2538 C 0.27897 0.13754 0.90732 0.0
C2539 C 0.29093 0.1475 0.9102 0.0
C2540 C 0.29878 0.12515 0.85483 0.0
C2541 C 0.28884 0.13123 0.88168 0.0
C2542 C 0.29837 0.11625 0.84107 0.0
C2543 C 0.28729 0.10506 0.83878 0.0
C2544 C 0.28806 0.12286 0.86642 0.0
C2545 C 0.27635 0.10369 0.8503 0.0
C2546 C 0.2779 0.1294 0.89311 0.0
C2547 C 0.30181 0.14869 0.8986 0.0
N2548 N 0.27708 0.11239 0.86368 0.0
N2549 N 0.30047 0.1407 0.88485 0.0
H2550 H 0.87193 0.30842 0.90323 0.0
H2551 H 0.92542 0.27772 0.83551 0.0
H2552 H 0.86888 0.26162 0.88377 0.0
H2553 H 0.91721 0.32648 0.84652 0.0
H2554 H 0.90895 0.27006 0.85709 0.0
H2555 H 0.89325 0.31333 0.88684 0.0
C2556 C 0.87583 0.2991 0.89562 0.0
C2557 C 0.86843 0.28471 0.89461 0.0
C2558 C 0.91091 0.28241 0.85482 0.0
C2559 C 0.8928 0.29032 0.87571 0.0
C2560 C 0.9203 0.28677 0.84257 0.0
C2561 C 0.9225 0.30274 0.83914 0.0
C2562 C 0.90397 0.29413 0.86375 0.0
C2563 C 0.91564 0.31404 0.84862 0.0
C2564 C 0.888 0.30193 0.88625 0.0
C2565 C 0.87416 0.27297 0.88475 0.0
N2566 N 0.90667 0.30951 0.86044 0.0
N2567 N 0.88593 0.27611 0.87548 0.0
H2568 H 0.68546 0.83187 0.89964 0.0
H2569 H 0.7389 0.88429 0.84676 0.0
H2570 H 0.72545 0.85268 0.9169 0.0
H2571 H 0.69786 0.86533 0.83024 0.0
H2572 H 0.73501 0.87122 0.87196 0.0
H2573 H 0.69034 0.84316 0.87381 0.0
C2574 C 0.69523 0.83888 0.89804 0.0
C2575 C 0.70506 0.84132 0.9105 0.0
C2576 C 0.72691 0.86984 0.86278 0.0
C2577 C 0.71077 0.85416 0.88085 0.0
C2578 C 0.72915 0.87723 0.84834 0.0
C2579 C 0.71863 0.87604 0.83637 0.0
C2580 C 0.71405 0.86119 0.8653 0.0
C2581 C 0.70624 0.86668 0.83912 0.0
C2582 C 0.69804 0.84527 0.88325 0.0
C2583 C 0.71755 0.8505 0.90767 0.0
N2584 N 0.70425 0.85971 0.85333 0.0
N2585 N 0.72006 0.85656 0.89314 0.0
H2586 H 0.85098 0.65775 0.12242 0.0
H2587 H 0.90627 0.69437 0.1846 0.0
H2588 H 0.86647 0.70571 0.12176 0.0
H2589 H 0.90718 0.64462 0.17473 0.0
H2590 H 0.8882 0.69792 0.16409 0.0
H2591 H 0.86866 0.65186 0.14351 0.0
C2592 C 0.85811 0.667 0.12663 0.0
C2593 C 0.8572 0.68228 0.12035 0.0
C2594 C 0.89231 0.68618 0.16635 0.0
C2595 C 0.87715 0.67567 0.14444 0.0
C2596 C 0.90265 0.68412 0.1781 0.0
C2597 C 0.90835 0.66915 0.18132 0.0
C2598 C 0.88748 0.6732 0.15764 0.0
C2599 C 0.90296 0.65631 0.1727 0.0
C2600 C 0.86818 0.66361 0.13862 0.0
C2601 C 0.86672 0.69379 0.12622 0.0
N2602 N 0.8928 0.65861 0.16115 0.0
N2603 N 0.87617 0.69027 0.13797 0.0
H2604 H 0.29204 0.85927 0.16875 0.0
H2605 H 0.26602 0.84966 0.07968 0.0
H2606 H 0.26073 0.89046 0.14707 0.0
H2607 H 0.30452 0.82837 0.1 0.0
H2608 H 0.26 0.86078 0.10553 0.0
H2609 H 0.29175 0.84298 0.14522 0.0
C2610 C 0.28485 0.86249 0.15915 0.0
C2611 C 0.27665 0.87641 0.15969 0.0
C2612 C 0.2697 0.85359 0.10427 0.0
C2613 C 0.27651 0.85803 0.13261 0.0
C2614 C 0.27319 0.84732 0.08955 0.0
C2615 C 0.2859 0.83825 0.08764 0.0
C2616 C 0.2789 0.85056 0.11714 0.0
C2617 C 0.29473 0.83547 0.10084 0.0
C2618 C 0.28476 0.85324 0.14568 0.0
C2619 C 0.26732 0.87988 0.14705 0.0
N2620 N 0.29106 0.84161 0.11499 0.0
N2621 N 0.26773 0.87091 0.13382 0.0
H2622 H 0.69234 0.16681 0.1066 0.0
H2623 H 0.73191 0.09469 0.14673 0.0
H2624 H 0.72103 0.1359 0.08067 0.0
H2625 H 0.70815 0.13069 0.17173 0.0
H2626 H 0.73165 0.11131 0.12315 0.0
H2627 H 0.70068 0.1551 0.13093 0.0
C2628 C 0.70038 0.15747 0.10601 0.0
C2629 C 0.70581 0.15214 0.09154 0.0
C2630 C 0.72684 0.11572 0.13391 0.0
C2631 C 0.71552 0.1386 0.11958 0.0
C2632 C 0.7271 0.10632 0.1474 0.0
C2633 C 0.71978 0.11126 0.16103 0.0
C2634 C 0.71918 0.13005 0.13421 0.0
C2635 C 0.71368 0.12635 0.16132 0.0
C2636 C 0.70527 0.15088 0.11998 0.0
C2637 C 0.71645 0.14023 0.09158 0.0
N2638 N 0.7133 0.1351 0.14803 0.0
N2639 N 0.72083 0.13368 0.10542 0.0
H2640 H 0.13093 0.66451 0.80624 0.0
H2641 H 0.15456 0.57925 0.77712 0.0
H2642 H 0.09979 0.62844 0.79376 0.0
H2643 H 0.17824 0.62216 0.76833 0.0
H2644 H 0.13695 0.59416 0.79322 0.0
H2645 H 0.15066 0.64544 0.80322 0.0
C2646 C 0.1282 0.6525 0.80316 0.0
C2647 C 0.11376 0.64818 0.79965 0.0
C2648 C 0.14622 0.60017 0.78807 0.0
C2649 C 0.13626 0.62641 0.79624 0.0
C2650 C 0.15622 0.59172 0.77896 0.0
C2651 C 0.16773 0.59961 0.77149 0.0
C2652 C 0.14796 0.61649 0.7897 0.0
C2653 C 0.16942 0.61575 0.77392 0.0
C2654 C 0.13947 0.64165 0.80148 0.0
C2655 C 0.11083 0.63235 0.79617 0.0
N2656 N 0.15958 0.62371 0.78277 0.0
N2657 N 0.12205 0.62206 0.79421 0.0
H2658 H 0.89864 0.66413 0.84504 0.0
H2659 H 0.83783 0.63123 0.7897 0.0
H2660 H 0.87412 0.69157 0.81167 0.0
H2661 H 0.86546 0.60355 0.81995 0.0
H2662 H 0.84342 0.65451 0.80567 0.0
H2663 H 0.87943 0.64407 0.84446 0.0
C2664 C 0.88884 0.66629 0.83822 0.0
C2665 C 0.88796 0.67938 0.82829 0.0
C2666 C 0.84784 0.64323 0.80918 0.0
C2667 C 0.86632 0.65625 0.82691 0.0
C2668 C 0.84452 0.62992 0.80014 0.0
C2669 C 0.85146 0.61561 0.80338 0.0
C2670 C 0.85825 0.6421 0.82136 0.0
C2671 C 0.8601 0.61451 0.81696 0.0
C2672 C 0.87793 0.65475 0.83771 0.0
C2673 C 0.87518 0.68153 0.81943 0.0
N2674 N 0.86354 0.62764 0.82524 0.0
N2675 N 0.86503 0.66989 0.81862 0.0
H2676 H 0.88017 0.34335 0.82746 0.0
H2677 H 0.84046 0.41373 0.78371 0.0
H2678 H 0.90291 0.38202 0.80548 0.0
H2679 H 0.82433 0.36633 0.78784 0.0
H2680 H 0.86036 0.4072 0.80203 0.0
H2681 H 0.85714 0.35739 0.82399 0.0
C2682 C 0.88037 0.35498 0.82227 0.0
C2683 C 0.89337 0.36129 0.81618 0.0
C2684 C 0.85216 0.39842 0.79932 0.0
C2685 C 0.86711 0.3773 0.81216 0.0
C2686 C 0.84078 0.40217 0.78902 0.0
C2687 C 0.83085 0.39053 0.78439 0.0
C2688 C 0.85342 0.38297 0.80498 0.0
C2689 C 0.8319 0.37556 0.79111 0.0
C2690 C 0.86723 0.36297 0.82032 0.0
C2691 C 0.89306 0.37657 0.80997 0.0
N2692 N 0.8431 0.37216 0.80098 0.0
N2693 N 0.88003 0.38393 0.80773 0.0
H2694 H 0.15315 0.38368 0.80407 0.0
H2695 H 0.12417 0.29716 0.81523 0.0
H2696 H 0.18171 0.34329 0.80297 0.0
H2697 H 0.09891 0.3385 0.82601 0.0
H2698 H 0.14643 0.3133 0.81515 0.0
H2699 H 0.13394 0.36723 0.81531 0.0
C2700 C 0.15538 0.37135 0.80619 0.0
C2701 C 0.16897 0.3648 0.80233 0.0
C2702 C 0.13608 0.31877 0.81803 0.0
C2703 C 0.14702 0.34584 0.81525 0.0
C2704 C 0.12344 0.30951 0.81827 0.0
C2705 C 0.10981 0.31664 0.82049 0.0
C2706 C 0.13488 0.33519 0.81977 0.0
C2707 C 0.1093 0.33267 0.82415 0.0
C2708 C 0.14445 0.36197 0.81276 0.0
C2709 C 0.17133 0.34879 0.80561 0.0
N2710 N 0.12162 0.3415 0.82335 0.0
N2711 N 0.1604 0.33981 0.81167 0.0
H2712 H 0.08221 0.35014 0.20836 0.0
H2713 H 0.15364 0.40351 0.21823 0.0
H2714 H 0.10461 0.35786 0.25226 0.0
H2715 H 0.13171 0.39678 0.17376 0.0
H2716 H 0.13725 0.38433 0.23017 0.0
H2717 H 0.10181 0.36446 0.19465 0.0
C2718 C 0.09153 0.35438 0.21499 0.0
C2719 C 0.09198 0.35274 0.23138 0.0
C2720 C 0.13603 0.38698 0.21778 0.0
C2721 C 0.11415 0.36925 0.21597 0.0
C2722 C 0.14537 0.398 0.21097 0.0
C2723 C 0.14394 0.40192 0.19501 0.0
C2724 C 0.12509 0.37985 0.20863 0.0
C2725 C 0.13313 0.39423 0.18614 0.0
C2726 C 0.10262 0.36265 0.20722 0.0
C2727 C 0.10398 0.35884 0.23958 0.0
N2728 N 0.12404 0.38365 0.1931 0.0
N2729 N 0.11455 0.36688 0.23181 0.0
H2730 H 0.12185 0.59284 0.15457 0.0
H2731 H 0.1286 0.67727 0.19117 0.0
H2732 H 0.143 0.60357 0.19857 0.0
H2733 H 0.10514 0.66708 0.14841 0.0
H2734 H 0.14135 0.65219 0.18885 0.0
H2735 H 0.1219 0.62085 0.14793 0.0
C2736 C 0.1268 0.60112 0.16266 0.0
C2737 C 0.13253 0.596 0.17706 0.0
C2738 C 0.13373 0.65558 0.1797 0.0
C2739 C 0.13243 0.62798 0.16973 0.0
C2740 C 0.12657 0.66997 0.18094 0.0
C2741 C 0.11554 0.67393 0.17021 0.0
C2742 C 0.12949 0.645 0.16788 0.0
C2743 C 0.11342 0.66427 0.15707 0.0
C2744 C 0.12684 0.61708 0.15887 0.0
C2745 C 0.13866 0.6071 0.18725 0.0
N2746 N 0.11998 0.64993 0.15654 0.0
N2747 N 0.13832 0.62261 0.18346 0.0
H2748 H 0.85085 0.6094 0.15402 0.0
H2749 H 0.90571 0.63176 0.22314 0.0
H2750 H 0.83912 0.60972 0.2032 0.0
H2751 H 0.91719 0.60588 0.18135 0.0
H2752 H 0.88105 0.63594 0.2123 0.0
H2753 H 0.87454 0.62098 0.16084 0.0
C2754 C 0.85306 0.61236 0.16618 0.0
C2755 C 0.84325 0.60814 0.17815 0.0
C2756 C 0.88916 0.62981 0.20533 0.0
C2757 C 0.87012 0.62139 0.18591 0.0
C2758 C 0.90317 0.62748 0.21146 0.0
C2759 C 0.91332 0.61842 0.20309 0.0
C2760 C 0.88549 0.62311 0.19076 0.0
C2761 C 0.90956 0.61286 0.18814 0.0
C2762 C 0.86657 0.61893 0.17004 0.0
C2763 C 0.84659 0.61239 0.19369 0.0
N2764 N 0.89586 0.61516 0.18249 0.0
N2765 N 0.85989 0.61854 0.19718 0.0
H2766 H 0.85072 0.40331 0.20648 0.0
H2767 H 0.89149 0.33378 0.16124 0.0
H2768 H 0.86687 0.40632 0.15896 0.0
H2769 H 0.89142 0.33928 0.21176 0.0
H2770 H 0.87441 0.35581 0.15916 0.0
H2771 H 0.85732 0.37528 0.20697 0.0
C2772 C 0.85513 0.3979 0.19598 0.0
C2773 C 0.8584 0.40702 0.18271 0.0
C2774 C 0.87799 0.35201 0.1707 0.0
C2775 C 0.86605 0.37533 0.1832 0.0
C2776 C 0.88776 0.33947 0.17191 0.0
C2777 C 0.89321 0.33495 0.18668 0.0
C2778 C 0.87358 0.36001 0.18433 0.0
C2779 C 0.88778 0.34262 0.20011 0.0
C2780 C 0.85901 0.38201 0.1963 0.0
C2781 C 0.86433 0.39962 0.16946 0.0
N2782 N 0.87839 0.3549 0.1986 0.0
N2783 N 0.86812 0.38422 0.17008 0.0
H2784 H 0.32643 0.66396 0.61774 0.0
H2785 H 0.27706 0.60212 0.66189 0.0
H2786 H 0.28389 0.6745 0.63702 0.0
H2787 H 0.32394 0.59628 0.66065 0.0
H2788 H 0.27988 0.62857 0.65161 0.0
H2789 H 0.32682 0.63949 0.63319 0.0
C2790 C 0.31736 0.66134 0.6255 0.0
C2791 C 0.30497 0.67108 0.62586 0.0
C2792 C 0.2896 0.62158 0.65367 0.0
C2793 C 0.30523 0.64319 0.64319 0.0
C2794 C 0.28798 0.60639 0.65941 0.0
C2795 C 0.30028 0.59693 0.66206 0.0
C2796 C 0.30361 0.62739 0.65027 0.0
C2797 C 0.31417 0.6032 0.65876 0.0
C2798 C 0.31756 0.64736 0.63423 0.0
C2799 C 0.29352 0.66715 0.6361 0.0
N2800 N 0.31547 0.61804 0.65285 0.0
N2801 N 0.29384 0.65341 0.64414 0.0
H2802 H 0.89711 0.74432 0.62982 0.0
H2803 H 0.85944 0.82301 0.59952 0.0
H2804 H 0.91526 0.79052 0.63684 0.0
H2805 H 0.84466 0.77616 0.58807 0.0
H2806 H 0.87668 0.81179 0.61838 0.0
H2807 H 0.87455 0.75628 0.62007 0.0
C2808 C 0.89613 0.75702 0.62965 0.0
C2809 C 0.90785 0.76653 0.6342 0.0
C2810 C 0.86957 0.80399 0.61184 0.0
C2811 C 0.88247 0.78027 0.62258 0.0
C2812 C 0.85976 0.81037 0.60103 0.0
C2813 C 0.85086 0.80046 0.59193 0.0
C2814 C 0.8705 0.78759 0.61349 0.0
C2815 C 0.85151 0.78421 0.59461 0.0
C2816 C 0.88332 0.76385 0.62404 0.0
C2817 C 0.90628 0.78288 0.63361 0.0
N2818 N 0.86131 0.77827 0.60502 0.0
N2819 N 0.89385 0.78928 0.62767 0.0
H2820 H 0.72745 0.33355 0.60791 0.0
H2821 H 0.68339 0.40846 0.63623 0.0
H2822 H 0.68211 0.33416 0.62228 0.0
H2823 H 0.72779 0.40291 0.65237 0.0
H2824 H 0.68531 0.38358 0.62222 0.0
H2825 H 0.72997 0.36072 0.61782 0.0
C2826 C 0.71811 0.33927 0.61325 0.0
C2827 C 0.70451 0.33158 0.61414 0.0
C2828 C 0.69473 0.38791 0.62863 0.0
C2829 C 0.70724 0.36245 0.62483 0.0
C2830 C 0.69366 0.40211 0.63653 0.0
C2831 C 0.70535 0.40747 0.64566 0.0
C2832 C 0.70752 0.37894 0.62999 0.0
C2833 C 0.71852 0.39899 0.64548 0.0
C2834 C 0.71956 0.35472 0.61879 0.0
C2835 C 0.69278 0.33954 0.62119 0.0
N2836 N 0.7192 0.38485 0.63798 0.0
N2837 N 0.69439 0.35455 0.62606 0.0
H2838 H 0.15516 0.20903 0.60913 0.0
H2839 H 0.07659 0.18069 0.62312 0.0
H2840 H 0.14487 0.15969 0.61369 0.0
H2841 H 0.09047 0.22629 0.63931 0.0
H2842 H 0.10205 0.17198 0.62296 0.0
H2843 H 0.13276 0.21541 0.62345 0.0
C2844 C 0.14835 0.19953 0.61341 0.0
C2845 C 0.15166 0.18382 0.60979 0.0
C2846 C 0.09956 0.18378 0.62696 0.0
C2847 C 0.12597 0.19104 0.62598 0.0
C2848 C 0.08505 0.18871 0.62704 0.0
C2849 C 0.0816 0.20419 0.63115 0.0
C2850 C 0.11069 0.19464 0.63038 0.0
C2851 C 0.09282 0.21423 0.63608 0.0
C2852 C 0.13559 0.20317 0.62165 0.0
C2853 C 0.14258 0.17198 0.61589 0.0
N2854 N 0.10698 0.20942 0.63517 0.0
N2855 N 0.12996 0.17585 0.62334 0.0
H2856 H 0.26193 0.34292 0.38823 0.0
H2857 H 0.30711 0.40206 0.3338 0.0
H2858 H 0.3037 0.33187 0.36723 0.0
H2859 H 0.26659 0.41445 0.35678 0.0
H2860 H 0.30495 0.37554 0.34428 0.0
H2861 H 0.26203 0.36808 0.37444 0.0
C2862 C 0.27102 0.34565 0.38054 0.0
C2863 C 0.28293 0.33533 0.37907 0.0
C2864 C 0.29651 0.38405 0.34703 0.0
C2865 C 0.28317 0.36421 0.36343 0.0
C2866 C 0.29777 0.39924 0.3411 0.0
C2867 C 0.28704 0.41056 0.34446 0.0
C2868 C 0.28445 0.38008 0.35642 0.0
C2869 C 0.27516 0.40615 0.35395 0.0
C2870 C 0.2711 0.36008 0.37275 0.0
C2871 C 0.29435 0.3395 0.36887 0.0
N2872 N 0.2742 0.39125 0.35962 0.0
N2873 N 0.29425 0.35369 0.36156 0.0
H2874 H 0.07794 0.80252 0.36458 0.0
H2875 H 0.15903 0.78328 0.3894 0.0
H2876 H 0.09987 0.75947 0.35224 0.0
H2877 H 0.13916 0.82892 0.3955 0.0
H2878 H 0.1391 0.77595 0.37174 0.0
H2879 H 0.10155 0.81424 0.37141 0.0
C2880 C 0.08784 0.79575 0.36284 0.0
C2881 C 0.08712 0.7801 0.35783 0.0
C2882 C 0.1392 0.78766 0.37676 0.0
C2883 C 0.114 0.79305 0.36623 0.0
C2884 C 0.15056 0.79183 0.3869 0.0
C2885 C 0.15059 0.8066 0.39424 0.0
C2886 C 0.12766 0.79826 0.3741 0.0
C2887 C 0.13946 0.81729 0.39033 0.0
C2888 C 0.1013 0.80236 0.36683 0.0
C2889 C 0.10011 0.77163 0.356 0.0
N2890 N 0.12832 0.81281 0.38075 0.0
N2891 N 0.11304 0.77812 0.36047 0.0
H2892 H 0.67714 0.60655 0.31927 0.0
H2893 H 0.7192 0.64931 0.38934 0.0
H2894 H 0.70773 0.58327 0.35018 0.0
H2895 H 0.6785 0.6672 0.37076 0.0
H2896 H 0.71715 0.62668 0.37196 0.0
H2897 H 0.67899 0.63025 0.3356 0.0
C2898 C 0.68417 0.60639 0.32951 0.0
C2899 C 0.69231 0.59291 0.33334 0.0
C2900 C 0.70868 0.63558 0.37165 0.0
C2901 C 0.69463 0.61997 0.35184 0.0
C2902 C 0.70989 0.64859 0.3815 0.0
C2903 C 0.69894 0.66016 0.38162 0.0
C2904 C 0.69651 0.63413 0.36172 0.0
C2905 C 0.68715 0.65853 0.37114 0.0
C2906 C 0.68522 0.6199 0.3388 0.0
C2907 C 0.7012 0.59334 0.34679 0.0
N2908 N 0.68623 0.64572 0.36161 0.0
N2909 N 0.70221 0.60668 0.35546 0.0
H2910 H 0.89468 0.24679 0.35238 0.0
H2911 H 0.86082 0.16768 0.38778 0.0
H2912 H 0.92052 0.20817 0.36975 0.0
H2913 H 0.83754 0.21177 0.38509 0.0
H2914 H 0.88134 0.17975 0.37376 0.0
H2915 H 0.8724 0.23142 0.35733 0.0
C2916 C 0.89559 0.23496 0.35701 0.0
C2917 C 0.90926 0.22861 0.36073 0.0
C2918 C 0.87164 0.18669 0.37607 0.0
C2919 C 0.88411 0.21115 0.3665 0.0
C2920 C 0.8599 0.1798 0.384 0.0
C2921 C 0.84762 0.18887 0.38795 0.0
C2922 C 0.87099 0.20267 0.37201 0.0
C2923 C 0.84695 0.20446 0.38259 0.0
C2924 C 0.88296 0.22623 0.35986 0.0
C2925 C 0.91006 0.21334 0.36678 0.0
N2926 N 0.85856 0.21093 0.37505 0.0
N2927 N 0.89761 0.20511 0.36958 0.0
H2928 H 0.13697 0.80805 0.59131 0.0
H2929 H 0.11734 0.81243 0.68144 0.0
H2930 H 0.15869 0.78161 0.62763 0.0
H2931 H 0.09224 0.8337 0.64427 0.0
H2932 H 0.1379 0.8092 0.66323 0.0
H2933 H 0.12634 0.82518 0.61143 0.0
C2934 C 0.13988 0.80623 0.60353 0.0
C2935 C 0.14869 0.7935 0.60791 0.0
C2936 C 0.12809 0.81506 0.65916 0.0
C2937 C 0.13613 0.81253 0.631 0.0
C2938 C 0.11643 0.81704 0.66959 0.0
C2939 C 0.10317 0.82332 0.66425 0.0
C2940 C 0.12628 0.81911 0.64324 0.0
C2941 C 0.10235 0.82886 0.64878 0.0
C2942 C 0.13376 0.81593 0.61502 0.0
C2943 C 0.15198 0.7914 0.62385 0.0
N2944 N 0.11366 0.82634 0.6387 0.0
N2945 N 0.14548 0.80064 0.63488 0.0
H2946 H 0.14744 0.16631 0.37467 0.0
H2947 H 0.07953 0.19885 0.32541 0.0
H2948 H 0.12166 0.20686 0.38751 0.0
H2949 H 0.10358 0.1575 0.31155 0.0
H2950 H 0.09391 0.20035 0.34934 0.0
H2951 H 0.13053 0.16117 0.3529 0.0
C2952 C 0.13814 0.17402 0.37305 0.0
C2953 C 0.13606 0.18715 0.38285 0.0
C2954 C 0.09607 0.19086 0.34117 0.0
C2955 C 0.11676 0.18136 0.35793 0.0
C2956 C 0.08788 0.19003 0.32742 0.0
C2957 C 0.09045 0.17807 0.3164 0.0
C2958 C 0.10709 0.17974 0.34396 0.0
C2959 C 0.10123 0.16684 0.31979 0.0
C2960 C 0.12852 0.17109 0.36059 0.0
C2961 C 0.1238 0.19669 0.3802 0.0
N2962 N 0.10929 0.16803 0.33324 0.0
N2963 N 0.11471 0.19367 0.36794 0.0
H2964 H 0.29561 0.62669 0.3225 0.0
H2965 H 0.26108 0.63799 0.40806 0.0
H2966 H 0.25309 0.6091 0.33595 0.0
H2967 H 0.30417 0.65413 0.39487 0.0
H2968 H 0.25736 0.62862 0.38125 0.0
H2969 H 0.29777 0.6393 0.34811 0.0
C2970 C 0.28659 0.62572 0.3307 0.0
C2971 C 0.27424 0.61657 0.32714 0.0
C2972 C 0.26764 0.6342 0.38423 0.0
C2973 C 0.2768 0.63076 0.35661 0.0
C2974 C 0.26982 0.63944 0.39959 0.0
C2975 C 0.28297 0.64686 0.40377 0.0
C2976 C 0.27866 0.63637 0.37296 0.0
C2977 C 0.29386 0.64846 0.39223 0.0
C2978 C 0.2879 0.63283 0.34539 0.0
C2979 C 0.26288 0.61587 0.33823 0.0
N2980 N 0.29145 0.64329 0.37735 0.0
N2981 N 0.26453 0.62268 0.35255 0.0
H2982 H 0.85157 0.81717 0.37965 0.0
H2983 H 0.91243 0.7681 0.33324 0.0
H2984 H 0.8625 0.76891 0.39025 0.0
H2985 H 0.89659 0.81359 0.31831 0.0
H2986 H 0.89597 0.7692 0.35579 0.0
H2987 H 0.87022 0.81723 0.3591 0.0
C2988 C 0.858 0.80663 0.37779 0.0
C2989 C 0.85537 0.79295 0.38659 0.0
C2990 C 0.89611 0.77894 0.34758 0.0
C2991 C 0.87663 0.79292 0.36299 0.0
C2992 C 0.90549 0.77833 0.33468 0.0
C2993 C 0.90586 0.79075 0.3238 0.0
C2994 C 0.88707 0.79211 0.3497 0.0
C2995 C 0.89662 0.80369 0.32632 0.0
C2996 C 0.86859 0.80666 0.36599 0.0
C2997 C 0.86408 0.77968 0.38368 0.0
N2998 N 0.88761 0.80403 0.33901 0.0
N2999 N 0.87426 0.77996 0.37206 0.0
H3000 H 0.7339 0.3589 0.41191 0.0
H3001 H 0.69155 0.39131 0.33754 0.0
H3002 H 0.68696 0.36027 0.40735 0.0
H3003 H 0.73681 0.40336 0.34555 0.0
H3004 H 0.69031 0.38008 0.36363 0.0
H3005 H 0.73592 0.37616 0.38874 0.0
C3006 C 0.72404 0.36314 0.40626 0.0
C3007 C 0.71025 0.35795 0.41127 0.0
C3008 C 0.70053 0.38525 0.35981 0.0
C3009 C 0.71246 0.37734 0.38493 0.0
C3010 C 0.70129 0.39156 0.3448 0.0
C3011 C 0.71436 0.39815 0.33929 0.0
C3012 C 0.71298 0.38526 0.36945 0.0
C3013 C 0.72654 0.39832 0.34936 0.0
C3014 C 0.7252 0.37289 0.39303 0.0
C3015 C 0.69781 0.3637 0.4036 0.0
N3016 N 0.72562 0.39178 0.36396 0.0
N3017 N 0.69922 0.37292 0.39073 0.0
H3018 H 0.88686 0.18266 0.67951 0.0
H3019 H 0.85823 0.23305 0.60632 0.0
H3020 H 0.90534 0.22744 0.66609 0.0
H3021 H 0.8451 0.18512 0.61533 0.0
H3022 H 0.87552 0.23134 0.62816 0.0
H3023 H 0.87089 0.18378 0.65651 0.0
C3024 C 0.88749 0.19279 0.67182 0.0
C3025 C 0.89747 0.20498 0.67478 0.0
C3026 C 0.86894 0.22115 0.62528 0.0
C3027 C 0.87927 0.20626 0.64832 0.0
C3028 C 0.85909 0.22211 0.61278 0.0
C3029 C 0.85012 0.20924 0.60905 0.0
C3030 C 0.86974 0.20729 0.63423 0.0
C3031 C 0.85176 0.19535 0.6178 0.0
C3032 C 0.87844 0.19336 0.65861 0.0
C3033 C 0.89784 0.21776 0.6643 0.0
N3034 N 0.86127 0.19479 0.63007 0.0
N3035 N 0.88887 0.21807 0.65155 0.0
H3036 H 0.31768 0.34835 0.58972 0.0
H3037 H 0.27644 0.38019 0.66602 0.0
H3038 H 0.27068 0.34874 0.59354 0.0
H3039 H 0.32326 0.37524 0.66172 0.0
H3040 H 0.27364 0.36872 0.63982 0.0
H3041 H 0.3195 0.35964 0.61584 0.0
C3042 C 0.30772 0.35098 0.59606 0.0
C3043 C 0.29402 0.34748 0.5896 0.0
C3044 C 0.2845 0.37005 0.6447 0.0
C3045 C 0.29598 0.36024 0.61967 0.0
C3046 C 0.28613 0.37645 0.65972 0.0
C3047 C 0.30015 0.37884 0.66603 0.0
C3048 C 0.29699 0.36603 0.63601 0.0
C3049 C 0.31227 0.37379 0.65731 0.0
C3050 C 0.30875 0.35736 0.61102 0.0
C3051 C 0.28144 0.35134 0.59816 0.0
N3052 N 0.31041 0.36776 0.64271 0.0
N3053 N 0.28271 0.35742 0.61291 0.0
H3054 H 0.67944 0.62664 0.67297 0.0
H3055 H 0.71982 0.63903 0.59053 0.0
H3056 H 0.72296 0.6093 0.66346 0.0
H3057 H 0.68266 0.66642 0.60586 0.0
H3058 H 0.71993 0.62573 0.61612 0.0
H3059 H 0.67928 0.63928 0.64718 0.0
C3060 C 0.68899 0.62555 0.66551 0.0
C3061 C 0.70127 0.61696 0.67042 0.0
C3062 C 0.71177 0.63467 0.61381 0.0
C3063 C 0.70108 0.63125 0.64085 0.0
C3064 C 0.71168 0.64222 0.59921 0.0
C3065 C 0.70123 0.65388 0.59601 0.0
C3066 C 0.70128 0.63874 0.62518 0.0
C3067 C 0.69092 0.65751 0.60772 0.0
C3068 C 0.68889 0.63276 0.65079 0.0
C3069 C 0.71331 0.61591 0.66021 0.0
N3070 N 0.6912 0.64996 0.62175 0.0
N3071 N 0.71288 0.62291 0.64587 0.0
H3072 H 0.66039 0.09861 0.79887 0.0
H3073 H 0.59208 0.12336 0.74562 0.0
H3074 H 0.6409 0.06645 0.76561 0.0
H3075 H 0.60542 0.14652 0.78851 0.0
H3076 H 0.61205 0.10426 0.74929 0.0
H3077 H 0.64283 0.11857 0.7911 0.0
C3078 C 0.65245 0.09575 0.78985 0.0
C3079 C 0.65194 0.08074 0.78308 0.0
C3080 C 0.61054 0.11358 0.75782 0.0
C3081 C 0.63167 0.1036 0.77418 0.0
C3082 C 0.59919 0.12445 0.75575 0.0
C3083 C 0.59701 0.13647 0.76684 0.0
C3084 C 0.61982 0.11498 0.77093 0.0
C3085 C 0.60656 0.13739 0.77972 0.0
C3086 C 0.64239 0.10717 0.78543 0.0
C3087 C 0.64155 0.07784 0.77125 0.0
N3088 N 0.61751 0.12683 0.78137 0.0
N3089 N 0.63169 0.08915 0.76725 0.0
H3090 H 0.41277 0.15263 0.78396 0.0
H3091 H 0.33043 0.13926 0.80977 0.0
H3092 H 0.39183 0.1819 0.81882 0.0
H3093 H 0.35794 0.1014 0.79339 0.0
H3094 H 0.35179 0.15657 0.81038 0.0
H3095 H 0.39151 0.13526 0.78419 0.0
C3096 C 0.40367 0.15545 0.79161 0.0
C3097 C 0.40406 0.16871 0.80141 0.0
C3098 C 0.35313 0.14445 0.80673 0.0
C3099 C 0.37975 0.14893 0.80166 0.0
C3100 C 0.34097 0.13459 0.80633 0.0
C3101 C 0.34245 0.1189 0.80149 0.0
C3102 C 0.36678 0.13864 0.80199 0.0
C3103 C 0.35635 0.11342 0.79723 0.0
C3104 C 0.39161 0.14547 0.7918 0.0
C3105 C 0.39199 0.17175 0.81114 0.0
N3106 N 0.36799 0.12334 0.79744 0.0
N3107 N 0.38026 0.16196 0.81096 0.0
H3108 H 0.40135 0.87014 0.8162 0.0
H3109 H 0.3364 0.89663 0.76489 0.0
H3110 H 0.36444 0.83992 0.80678 0.0
H3111 H 0.36325 0.93032 0.78933 0.0
H3112 H 0.34487 0.8761 0.78287 0.0
H3113 H 0.3861 0.89295 0.81033 0.0
C3114 C 0.38996 0.86832 0.81323 0.0
C3115 C 0.3843 0.85312 0.8113 0.0
C3116 C 0.34875 0.88802 0.78452 0.0
C3117 C 0.36693 0.87904 0.80441 0.0
C3118 C 0.34401 0.89963 0.77419 0.0
C3119 C 0.34934 0.91493 0.77569 0.0
C3120 C 0.35924 0.89174 0.79602 0.0
C3121 C 0.35906 0.9185 0.78788 0.0
C3122 C 0.38124 0.88135 0.80992 0.0
C3123 C 0.36939 0.85143 0.80785 0.0
N3124 N 0.36394 0.90687 0.79747 0.0
N3125 N 0.36129 0.86424 0.80409 0.0
H3126 H 0.66039 0.87198 0.80813 0.0
H3127 H 0.58659 0.84007 0.76891 0.0
H3128 H 0.6478 0.88206 0.76022 0.0
H3129 H 0.60288 0.82445 0.81399 0.0
H3130 H 0.60762 0.85759 0.76652 0.0
H3131 H 0.63802 0.85673 0.81144 0.0
C3132 C 0.6529 0.87104 0.79831 0.0
C3133 C 0.65605 0.87824 0.78383 0.0
C3134 C 0.60656 0.85037 0.77695 0.0
C3135 C 0.63037 0.86072 0.78756 0.0
C3136 C 0.59453 0.84037 0.77836 0.0
C3137 C 0.59297 0.83069 0.79166 0.0
C3138 C 0.6171 0.85078 0.78895 0.0
C3139 C 0.60364 0.83162 0.80349 0.0
C3140 C 0.64012 0.8623 0.80021 0.0
C3141 C 0.64587 0.87667 0.77156 0.0
N3142 N 0.61525 0.84146 0.80184 0.0
N3143 N 0.63351 0.86803 0.77369 0.0
H3144 H 0.64826 0.90255 0.19065 0.0
H3145 H 0.60152 0.85779 0.25565 0.0
H3146 H 0.64811 0.91835 0.23895 0.0
H3147 H 0.59235 0.8568 0.20581 0.0
H3148 H 0.62005 0.87822 0.25085 0.0
H3149 H 0.62971 0.88325 0.19714 0.0
C3150 C 0.64436 0.90195 0.20267 0.0
C3151 C 0.64971 0.91219 0.21425 0.0
C3152 C 0.61386 0.87355 0.24104 0.0
C3153 C 0.62829 0.88998 0.22176 0.0
C3154 C 0.60331 0.86192 0.24375 0.0
C3155 C 0.59544 0.85547 0.2311 0.0
C3156 C 0.61662 0.87854 0.22557 0.0
C3157 C 0.59817 0.8613 0.21594 0.0
C3158 C 0.63369 0.89094 0.20635 0.0
C3159 C 0.64424 0.91073 0.22964 0.0
N3160 N 0.60859 0.87237 0.21361 0.0
N3161 N 0.6338 0.89979 0.23299 0.0
H3162 H 0.62123 0.19688 0.17504 0.0
H3163 H 0.63426 0.1056 0.15942 0.0
H3164 H 0.58823 0.16542 0.1574 0.0
H3165 H 0.66523 0.13644 0.18213 0.0
H3166 H 0.61935 0.12853 0.15259 0.0
H3167 H 0.63972 0.17646 0.17064 0.0
C3168 C 0.61802 0.18586 0.16965 0.0
C3169 C 0.6033 0.1827 0.16656 0.0
C3170 C 0.6295 0.13029 0.15891 0.0
C3171 C 0.62408 0.15914 0.16219 0.0
C3172 C 0.63799 0.11719 0.16286 0.0
C3173 C 0.65086 0.11907 0.17164 0.0
C3174 C 0.63395 0.14536 0.16373 0.0
C3175 C 0.65523 0.13439 0.17563 0.0
C3176 C 0.6285 0.17414 0.16732 0.0
C3177 C 0.59955 0.16821 0.15986 0.0
N3178 N 0.64674 0.14691 0.17177 0.0
N3179 N 0.60983 0.15682 0.15816 0.0
H3180 H 0.36247 0.07617 0.16555 0.0
H3181 H 0.39063 0.13383 0.23224 0.0
H3182 H 0.34009 0.08089 0.21003 0.0
H3183 H 0.41646 0.11947 0.19222 0.0
H3184 H 0.37262 0.11358 0.22562 0.0
H3185 H 0.3826 0.09165 0.17588 0.0
C3186 C 0.36178 0.08049 0.17752 0.0
C3187 C 0.34953 0.07734 0.18691 0.0
C3188 C 0.38235 0.11472 0.21845 0.0
C3189 C 0.37266 0.09511 0.19888 0.0
C3190 C 0.39266 0.12624 0.22225 0.0
C3191 C 0.40491 0.12856 0.21257 0.0
C3192 C 0.38432 0.10559 0.20485 0.0
C3193 C 0.40704 0.11831 0.19984 0.0
C3194 C 0.37335 0.08924 0.18347 0.0
C3195 C 0.34932 0.08312 0.20238 0.0
N3196 N 0.39674 0.10744 0.19623 0.0
N3197 N 0.36068 0.09188 0.20786 0.0
H3198 H 0.40498 0.83302 0.14868 0.0
H3199 H 0.32389 0.84076 0.18146 0.0
H3200 H 0.38037 0.79454 0.16818 0.0
H3201 H 0.35098 0.88008 0.16794 0.0
H3202 H 0.34209 0.82284 0.17053 0.0
H3203 H 0.38275 0.8491 0.14849 0.0
C3204 C 0.39471 0.8278 0.15231 0.0
C3205 C 0.39436 0.81253 0.15843 0.0
C3206 C 0.34399 0.83539 0.16982 0.0
C3207 C 0.36917 0.83091 0.15896 0.0
C3208 C 0.33365 0.84564 0.17615 0.0
C3209 C 0.33606 0.86195 0.17592 0.0
C3210 C 0.35689 0.84146 0.16323 0.0
C3211 C 0.34877 0.86759 0.16861 0.0
C3212 C 0.38209 0.837 0.15239 0.0
C3213 C 0.38096 0.80628 0.16328 0.0
N3214 N 0.35879 0.85735 0.16271 0.0
N3215 N 0.36891 0.8156 0.16372 0.0
H3216 H 0.76278 0.15618 0.59962 0.0
H3217 H 0.80448 0.10195 0.66189 0.0
H3218 H 0.80477 0.16748 0.61996 0.0
H3219 H 0.76527 0.08752 0.6375 0.0
H3220 H 0.80311 0.12736 0.64886 0.0
H3221 H 0.76182 0.13252 0.61587 0.0
C3222 C 0.77174 0.15379 0.60761 0.0
C3223 C 0.78397 0.16376 0.60828 0.0
C3224 C 0.79478 0.11866 0.64637 0.0
C3225 C 0.78293 0.13666 0.62684 0.0
C3226 C 0.79555 0.1041 0.65381 0.0
C3227 C 0.78503 0.09248 0.6507 0.0
C3228 C 0.78342 0.1217 0.63572 0.0
C3229 C 0.77368 0.09607 0.64018 0.0
C3230 C 0.77119 0.14025 0.61684 0.0
C3231 C 0.79519 0.16008 0.61892 0.0
N3232 N 0.7732 0.11035 0.63301 0.0
N3233 N 0.79444 0.14678 0.62769 0.0
H3234 H 0.40032 0.27063 0.6439 0.0
H3235 H 0.34805 0.33203 0.60095 0.0
H3236 H 0.41459 0.31365 0.62196 0.0
H3237 H 0.34093 0.28189 0.59815 0.0
H3238 H 0.36854 0.3274 0.61871 0.0
H3239 H 0.37492 0.27697 0.63644 0.0
C3240 C 0.39799 0.28159 0.6379 0.0
C3241 C 0.40935 0.29172 0.63349 0.0
C3242 C 0.36232 0.31745 0.61438 0.0
C3243 C 0.38078 0.29896 0.62513 0.0
C3244 C 0.35067 0.32004 0.60421 0.0
C3245 C 0.34311 0.30727 0.59765 0.0
C3246 C 0.36642 0.302 0.61801 0.0
C3247 C 0.3467 0.29203 0.60269 0.0
C3248 C 0.38362 0.28514 0.63362 0.0
C3249 C 0.40602 0.30563 0.62553 0.0
N3250 N 0.35833 0.28977 0.6124 0.0
N3251 N 0.392 0.30884 0.62154 0.0
H3252 H 0.17104 0.84355 0.6096 0.0
H3253 H 0.16934 0.87776 0.6971 0.0
H3254 H 0.18316 0.81593 0.65 0.0
H3255 H 0.17403 0.90525 0.6547 0.0
H3256 H 0.16651 0.854 0.68085 0.0
H3257 H 0.16329 0.86483 0.6271 0.0
C3258 C 0.17164 0.84186 0.62222 0.0
C3259 C 0.1778 0.82817 0.62848 0.0
C3260 C 0.16797 0.86529 0.67518 0.0
C3261 C 0.16943 0.85246 0.64848 0.0
C3262 C 0.16961 0.87882 0.6844 0.0
C3263 C 0.17228 0.89342 0.67722 0.0
C3264 C 0.16873 0.86651 0.65872 0.0
C3265 C 0.17235 0.89418 0.66074 0.0
C3266 C 0.16733 0.85399 0.63219 0.0
C3267 C 0.17846 0.82642 0.64484 0.0
N3268 N 0.17069 0.88092 0.65207 0.0
N3269 N 0.17456 0.83859 0.65436 0.0
H3270 H 0.58236 0.687 0.63217 0.0
H3271 H 0.65237 0.72354 0.59354 0.0
H3272 H 0.58515 0.73524 0.61714 0.0
H3273 H 0.64961 0.67626 0.61174 0.0
H3274 H 0.63041 0.73041 0.60847 0.0
H3275 H 0.60896 0.68509 0.63125 0.0
C3276 C 0.5887 0.69737 0.62931 0.0
C3277 C 0.58175 0.71138 0.62511 0.0
C3278 C 0.63479 0.71862 0.60947 0.0
C3279 C 0.61204 0.70911 0.62299 0.0
C3280 C 0.64734 0.71472 0.60097 0.0
C3281 C 0.65245 0.69917 0.60099 0.0
C3282 C 0.62736 0.70684 0.61789 0.0
C3283 C 0.64571 0.68826 0.611 0.0
C3284 C 0.60386 0.69627 0.6286 0.0
C3285 C 0.59027 0.72429 0.62064 0.0
N3286 N 0.63333 0.69221 0.6188 0.0
N3287 N 0.60501 0.7228 0.61947 0.0
H3288 H 0.80934 0.83102 0.36875 0.0
H3289 H 0.77257 0.91436 0.3526 0.0
H3290 H 0.7675 0.84494 0.38777 0.0
H3291 H 0.81211 0.89846 0.32979 0.0
H3292 H 0.76971 0.88832 0.36428 0.0
H3293 H 0.80939 0.85461 0.35245 0.0
C3294 C 0.80005 0.83889 0.36933 0.0
C3295 C 0.78852 0.83612 0.37987 0.0
C3296 C 0.77897 0.89051 0.35665 0.0
C3297 C 0.78862 0.86327 0.3614 0.0
C3298 C 0.78066 0.90542 0.35006 0.0
C3299 C 0.79267 0.90867 0.34031 0.0
C3300 C 0.78941 0.87879 0.35357 0.0
C3301 C 0.80272 0.89655 0.33731 0.0
C3302 C 0.80011 0.8524 0.36005 0.0
C3303 C 0.77671 0.84667 0.37997 0.0
N3304 N 0.80091 0.88218 0.34399 0.0
N3305 N 0.77717 0.85991 0.37106 0.0
H3306 H 0.58496 0.31297 0.37218 0.0
H3307 H 0.66611 0.29261 0.38364 0.0
H3308 H 0.60392 0.27082 0.35291 0.0
H3309 H 0.6495 0.33988 0.38847 0.0
H3310 H 0.64506 0.28606 0.36727 0.0
H3311 H 0.60917 0.32505 0.37286 0.0
C3312 C 0.59425 0.30647 0.36767 0.0
C3313 C 0.59264 0.29092 0.36263 0.0
C3314 C 0.64618 0.29798 0.37159 0.0
C3315 C 0.62037 0.30424 0.36405 0.0
C3316 C 0.65819 0.30171 0.38101 0.0
C3317 C 0.65927 0.31665 0.38791 0.0
C3318 C 0.63508 0.30919 0.36935 0.0
C3319 C 0.64888 0.32807 0.38377 0.0
C3320 C 0.60807 0.31331 0.36806 0.0
C3321 C 0.60487 0.28286 0.35694 0.0
N3322 N 0.63702 0.32399 0.37509 0.0
N3323 N 0.61835 0.28947 0.35819 0.0
H3324 H 0.22469 0.08137 0.36037 0.0
H3325 H 0.19677 0.16856 0.36885 0.0
H3326 H 0.20531 0.10815 0.32259 0.0
H3327 H 0.2257 0.1476 0.40302 0.0
H3328 H 0.20213 0.14715 0.35079 0.0
H3329 H 0.22781 0.10586 0.37533 0.0
C3330 C 0.22136 0.09241 0.35512 0.0
C3331 C 0.21439 0.09272 0.34042 0.0
C3332 C 0.2075 0.14727 0.36214 0.0
C3333 C 0.21786 0.12056 0.35734 0.0
C3334 C 0.20437 0.15948 0.37247 0.0
C3335 C 0.21064 0.15966 0.38748 0.0
C3336 C 0.21668 0.13495 0.367 0.0
C3337 C 0.22059 0.14777 0.39154 0.0
C3338 C 0.22314 0.10636 0.36363 0.0
C3339 C 0.21038 0.10732 0.33407 0.0
N3340 N 0.2231 0.13566 0.38145 0.0
N3341 N 0.21199 0.1206 0.34265 0.0
H3342 H 0.33497 0.73048 0.41356 0.0
H3343 H 0.40443 0.69867 0.36606 0.0
H3344 H 0.34775 0.68166 0.41116 0.0
H3345 H 0.38542 0.7444 0.35769 0.0
H3346 H 0.38632 0.694 0.38655 0.0
H3347 H 0.35572 0.73724 0.39658 0.0
C3348 C 0.34216 0.7212 0.40953 0.0
C3349 C 0.33955 0.70546 0.41367 0.0
C3350 C 0.38615 0.7051 0.3803 0.0
C3351 C 0.36332 0.71314 0.39444 0.0
C3352 C 0.39654 0.70781 0.36862 0.0
C3353 C 0.39631 0.72186 0.35996 0.0
C3354 C 0.37546 0.71651 0.3834 0.0
C3355 C 0.3859 0.73333 0.36396 0.0
C3356 C 0.35398 0.72508 0.39984 0.0
C3357 C 0.34924 0.69393 0.40815 0.0
N3358 N 0.3758 0.73035 0.37532 0.0
N3359 N 0.36068 0.698 0.39882 0.0
H3360 H 0.56232 0.31793 0.65906 0.0
H3361 H 0.64557 0.32271 0.63094 0.0
H3362 H 0.59653 0.33823 0.68733 0.0
H3363 H 0.61169 0.29732 0.60635 0.0
H3364 H 0.62724 0.33249 0.64948 0.0
H3365 H 0.57963 0.31453 0.63753 0.0
C3366 C 0.57347 0.32194 0.66062 0.0
C3367 C 0.57803 0.32842 0.67499 0.0
C3368 C 0.62381 0.32489 0.63995 0.0
C3369 C 0.59803 0.32432 0.65042 0.0
C3370 C 0.63426 0.31929 0.62933 0.0
C3371 C 0.6302 0.30899 0.61715 0.0
C3372 C 0.60918 0.32017 0.63838 0.0
C3373 C 0.61537 0.3051 0.61561 0.0
C3374 C 0.58337 0.31996 0.64833 0.0
C3375 C 0.59256 0.33346 0.67636 0.0
N3376 N 0.60544 0.31059 0.62617 0.0
N3377 N 0.60212 0.33113 0.66428 0.0
H3378 H 0.59277 0.66516 0.3322 0.0
H3379 H 0.63394 0.73122 0.38115 0.0
H3380 H 0.57891 0.71372 0.33085 0.0
H3381 H 0.63662 0.68153 0.39128 0.0
H3382 H 0.61429 0.72579 0.36229 0.0
H3383 H 0.61002 0.67167 0.35287 0.0
C3384 C 0.59337 0.67724 0.33621 0.0
C3385 C 0.58435 0.68892 0.32975 0.0
C3386 C 0.6191 0.71614 0.3688 0.0
C3387 C 0.60416 0.69644 0.3536 0.0
C3388 C 0.63029 0.71921 0.37957 0.0
C3389 C 0.63706 0.70678 0.38766 0.0
C3390 C 0.61481 0.70053 0.36604 0.0
C3391 C 0.63184 0.69147 0.3852 0.0
C3392 C 0.60318 0.68092 0.34812 0.0
C3393 C 0.58564 0.70434 0.33552 0.0
N3394 N 0.62116 0.68877 0.3745 0.0
N3395 N 0.59543 0.7077 0.3471 0.0
H3396 H 0.80013 0.16663 0.38134 0.0
H3397 H 0.76816 0.09151 0.34031 0.0
H3398 H 0.77099 0.13509 0.4059 0.0
H3399 H 0.78793 0.13029 0.31554 0.0
H3400 H 0.76559 0.1083 0.36362 0.0
H3401 H 0.7935 0.15425 0.3567 0.0
C3402 C 0.79235 0.15702 0.38156 0.0
C3403 C 0.78628 0.1517 0.39574 0.0
C3404 C 0.77008 0.11327 0.35293 0.0
C3405 C 0.77853 0.13743 0.36737 0.0
C3406 C 0.7714 0.10374 0.3396 0.0
C3407 C 0.77853 0.10953 0.32619 0.0
C3408 C 0.77601 0.12851 0.35269 0.0
C3409 C 0.78264 0.12536 0.32582 0.0
C3410 C 0.78842 0.15006 0.36741 0.0
C3411 C 0.77602 0.13943 0.39522 0.0
N3412 N 0.78159 0.13423 0.33899 0.0
N3413 N 0.77262 0.13251 0.38125 0.0
H3414 H 0.40938 0.27611 0.32308 0.0
H3415 H 0.34609 0.3164 0.37402 0.0
H3416 H 0.3955 0.32425 0.31674 0.0
H3417 H 0.35612 0.2668 0.37561 0.0
H3418 H 0.36537 0.31997 0.35444 0.0
H3419 H 0.3908 0.27287 0.34337 0.0
C3420 C 0.4024 0.286 0.3259 0.0
C3421 C 0.40403 0.30049 0.31817 0.0
C3422 C 0.36337 0.30832 0.3591 0.0
C3423 C 0.38276 0.29686 0.34154 0.0
C3424 C 0.35241 0.30628 0.37035 0.0
C3425 C 0.34943 0.29126 0.37641 0.0
C3426 C 0.37144 0.29526 0.35392 0.0
C3427 C 0.35799 0.27858 0.37122 0.0
C3428 C 0.39179 0.28413 0.33752 0.0
C3429 C 0.39462 0.31286 0.32234 0.0
N3430 N 0.36857 0.28087 0.36024 0.0
N3431 N 0.38443 0.31077 0.33378 0.0
H3432 H 0.19143 0.87613 0.3283 0.0
H3433 H 0.22497 0.8584 0.41318 0.0
H3434 H 0.22622 0.90431 0.34793 0.0
H3435 H 0.1835 0.8411 0.39604 0.0
H3436 H 0.22791 0.87327 0.3886 0.0
H3437 H 0.19159 0.85995 0.35183 0.0
C3438 C 0.19925 0.8788 0.3375 0.0
C3439 C 0.20866 0.89175 0.33629 0.0
C3440 C 0.21818 0.86623 0.39034 0.0
C3441 C 0.20873 0.8734 0.36343 0.0
C3442 C 0.21643 0.85785 0.40437 0.0
C3443 C 0.20399 0.84843 0.40667 0.0
C3444 C 0.20746 0.86504 0.37858 0.0
C3445 C 0.19332 0.84809 0.39482 0.0
C3446 C 0.19927 0.86961 0.35099 0.0
C3447 C 0.21872 0.89448 0.34847 0.0
N3448 N 0.19535 0.85619 0.3813 0.0
N3449 N 0.21837 0.88548 0.36169 0.0
H3450 H 0.35921 0.66726 0.60084 0.0
H3451 H 0.38513 0.71395 0.6734 0.0
H3452 H 0.34185 0.71315 0.61137 0.0
H3453 H 0.3867 0.66325 0.67261 0.0
H3454 H 0.36703 0.71341 0.65231 0.0
H3455 H 0.36655 0.66436 0.62832 0.0
C3456 C 0.35657 0.67653 0.60911 0.0
C3457 C 0.35005 0.6905 0.60392 0.0
C3458 C 0.37108 0.70238 0.65695 0.0
C3459 C 0.35891 0.68757 0.63516 0.0
C3460 C 0.38149 0.70268 0.66892 0.0
C3461 C 0.38761 0.68862 0.67454 0.0
C3462 C 0.36702 0.68794 0.65026 0.0
C3463 C 0.38235 0.67436 0.6685 0.0
C3464 C 0.36077 0.67489 0.62478 0.0
C3465 C 0.34685 0.7022 0.61499 0.0
N3466 N 0.37259 0.67438 0.65641 0.0
N3467 N 0.35169 0.70066 0.63006 0.0
H3468 H 0.82066 0.82911 0.5994 0.0
H3469 H 0.78322 0.88429 0.66345 0.0
H3470 H 0.78176 0.85632 0.58974 0.0
H3471 H 0.82782 0.86782 0.66618 0.0
H3472 H 0.78042 0.87042 0.63845 0.0
H3473 H 0.8213 0.83984 0.62577 0.0
C3474 C 0.81224 0.83739 0.60277 0.0
C3475 C 0.80122 0.84197 0.59221 0.0
C3476 C 0.79076 0.86977 0.64461 0.0
C3477 C 0.80188 0.85421 0.62263 0.0
C3478 C 0.79236 0.87757 0.65893 0.0
C3479 C 0.80584 0.8773 0.66684 0.0
C3480 C 0.80268 0.86155 0.63831 0.0
C3481 C 0.8173 0.86846 0.66041 0.0
C3482 C 0.81262 0.84348 0.6179 0.0
C3483 C 0.79052 0.85258 0.59744 0.0
N3484 N 0.81547 0.86098 0.64648 0.0
N3485 N 0.79114 0.85839 0.61233 0.0
H3486 H 0.19889 0.16408 0.61203 0.0
H3487 H 0.21863 0.08046 0.64882 0.0
H3488 H 0.21865 0.12698 0.58467 0.0
H3489 H 0.19514 0.11758 0.67247 0.0
H3490 H 0.22321 0.09845 0.62666 0.0
H3491 H 0.20211 0.14847 0.63563 0.0
C3492 C 0.20395 0.15261 0.61101 0.0
C3493 C 0.20823 0.14666 0.59635 0.0
C3494 C 0.21723 0.10266 0.63682 0.0
C3495 C 0.21182 0.12853 0.62342 0.0
C3496 C 0.21467 0.09245 0.64945 0.0
C3497 C 0.20625 0.09749 0.6623 0.0
C3498 C 0.21145 0.11797 0.63726 0.0
C3499 C 0.20141 0.11311 0.66263 0.0
C3500 C 0.20584 0.14369 0.62452 0.0
C3501 C 0.21506 0.13189 0.59577 0.0
N3502 N 0.20398 0.12272 0.65025 0.0
N3503 N 0.21644 0.12316 0.60913 0.0
H3504 H 0.60167 0.62841 0.3152 0.0
H3505 H 0.65838 0.57584 0.26722 0.0
H3506 H 0.58924 0.59699 0.2776 0.0
H3507 H 0.66911 0.61867 0.29164 0.0
H3508 H 0.63343 0.5773 0.2779 0.0
H3509 H 0.62654 0.61814 0.31386 0.0
C3510 C 0.60407 0.6191 0.30689 0.0
C3511 C 0.59345 0.61389 0.29614 0.0
C3512 C 0.64137 0.58614 0.28124 0.0
C3513 C 0.62191 0.60217 0.29457 0.0
C3514 C 0.65557 0.58524 0.27527 0.0
C3515 C 0.66569 0.59708 0.27875 0.0
C3516 C 0.63739 0.59897 0.29072 0.0
C3517 C 0.66153 0.6093 0.28879 0.0
C3518 C 0.61829 0.61329 0.30612 0.0
C3519 C 0.59715 0.60159 0.28587 0.0
N3520 N 0.64766 0.60999 0.29439 0.0
N3521 N 0.61118 0.59634 0.28512 0.0
H3522 H 0.38152 0.68876 0.31342 0.0
H3523 H 0.34571 0.60815 0.28478 0.0
H3524 H 0.40359 0.65657 0.28212 0.0
H3525 H 0.3201 0.64829 0.2992 0.0
H3526 H 0.36793 0.62405 0.28745 0.0
H3527 H 0.35964 0.67227 0.31196 0.0
C3528 C 0.38178 0.67822 0.30627 0.0
C3529 C 0.39437 0.67408 0.2978 0.0
C3530 C 0.35742 0.62933 0.29002 0.0
C3531 C 0.36947 0.65513 0.29623 0.0
C3532 C 0.34477 0.62027 0.28857 0.0
C3533 C 0.33104 0.62695 0.29168 0.0
C3534 C 0.35634 0.64508 0.29487 0.0
C3535 C 0.33045 0.64271 0.29655 0.0
C3536 C 0.36928 0.66886 0.30541 0.0
C3537 C 0.39408 0.66028 0.28873 0.0
N3538 N 0.34293 0.65123 0.29804 0.0
N3539 N 0.38184 0.65126 0.28823 0.0
H3540 H 0.41044 0.37366 0.29849 0.0
H3541 H 0.33448 0.41544 0.27782 0.0
H3542 H 0.3875 0.36587 0.25476 0.0
H3543 H 0.35464 0.41548 0.32377 0.0
H3544 H 0.35508 0.39996 0.26778 0.0
H3545 H 0.39166 0.39238 0.30624 0.0
C3546 C 0.40151 0.37599 0.29044 0.0
C3547 C 0.40042 0.36801 0.27606 0.0
C3548 C 0.35497 0.40341 0.28004 0.0
C3549 C 0.37876 0.38935 0.28495 0.0
C3550 C 0.34322 0.4122 0.28578 0.0
C3551 C 0.34282 0.41668 0.30167 0.0
C3552 C 0.36639 0.3992 0.29026 0.0
C3553 C 0.35444 0.41222 0.31146 0.0
C3554 C 0.39075 0.38666 0.29491 0.0
C3555 C 0.3887 0.37167 0.26603 0.0
N3556 N 0.36573 0.40374 0.30559 0.0
N3557 N 0.37822 0.38198 0.27074 0.0
H3558 H 0.66932 0.36338 0.30845 0.0
H3559 H 0.58536 0.34095 0.31458 0.0
H3560 H 0.63425 0.39698 0.30348 0.0
H3561 H 0.61978 0.30862 0.32685 0.0
H3562 H 0.60315 0.36225 0.31339 0.0
H3563 H 0.65166 0.34375 0.31738 0.0
C3564 C 0.6579 0.36664 0.30924 0.0
C3565 C 0.65324 0.38181 0.30499 0.0
C3566 C 0.60686 0.3506 0.31664 0.0
C3567 C 0.63296 0.35936 0.31529 0.0
C3568 C 0.59669 0.33846 0.31739 0.0
C3569 C 0.60119 0.32308 0.32076 0.0
C3570 C 0.62173 0.34728 0.31893 0.0
C3571 C 0.61593 0.32038 0.32428 0.0
C3572 C 0.64784 0.35545 0.31446 0.0
C3573 C 0.63834 0.38542 0.3065 0.0
N3574 N 0.62577 0.33235 0.32298 0.0
N3575 N 0.62873 0.37424 0.31137 0.0
H3576 H 0.59128 0.36011 0.72645 0.0
H3577 H 0.63579 0.39331 0.65369 0.0
H3578 H 0.57262 0.38393 0.6865 0.0
H3579 H 0.65318 0.38619 0.70034 0.0
H3580 H 0.61396 0.37842 0.66122 0.0
H3581 H 0.61469 0.35841 0.7124 0.0
C3582 C 0.59199 0.36437 0.71445 0.0
C3583 C 0.58023 0.37232 0.70757 0.0
C3584 C 0.62275 0.37978 0.66965 0.0
C3585 C 0.60669 0.37054 0.69161 0.0
C3586 C 0.6352 0.38826 0.66537 0.0
C3587 C 0.64601 0.39147 0.67662 0.0
C3588 C 0.62123 0.37449 0.68522 0.0
C3589 C 0.64483 0.38442 0.69149 0.0
C3590 C 0.60532 0.3635 0.7065 0.0
C3591 C 0.58158 0.37782 0.69214 0.0
N3592 N 0.63251 0.37651 0.69547 0.0
N3593 N 0.59468 0.37702 0.6847 0.0
H3594 H 0.65591 0.62797 0.70349 0.0
H3595 H 0.59188 0.66381 0.65079 0.0
H3596 H 0.62444 0.60072 0.67735 0.0
H3597 H 0.61112 0.6873 0.69065 0.0
H3598 H 0.61084 0.64341 0.65268 0.0
H3599 H 0.64617 0.652 0.69135 0.0
C3600 C 0.64713 0.62704 0.69499 0.0
C3601 C 0.64061 0.61247 0.69177 0.0
C3602 C 0.61116 0.65331 0.66069 0.0
C3603 C 0.62973 0.63968 0.67763 0.0
C3604 C 0.60044 0.66499 0.65952 0.0
C3605 C 0.5999 0.67704 0.67072 0.0
C3606 C 0.62132 0.65384 0.6731 0.0
C3607 C 0.61113 0.67802 0.68191 0.0
C3608 C 0.64162 0.64072 0.68805 0.0
C3609 C 0.62944 0.61182 0.6805 0.0
N3610 N 0.62127 0.66642 0.68299 0.0
N3611 N 0.62425 0.62526 0.67394 0.0
H3612 H 0.39526 0.62634 0.75294 0.0
H3613 H 0.36217 0.56278 0.69494 0.0
H3614 H 0.40991 0.61817 0.70537 0.0
H3615 H 0.34526 0.57132 0.74154 0.0
H3616 H 0.38369 0.57832 0.70135 0.0
H3617 H 0.38096 0.60202 0.75168 0.0
C3618 C 0.39569 0.61927 0.74235 0.0
C3619 C 0.40344 0.62444 0.72908 0.0
C3620 C 0.3754 0.57666 0.71029 0.0
C3621 C 0.38719 0.59675 0.72756 0.0
C3622 C 0.3631 0.56781 0.70661 0.0
C3623 C 0.35181 0.56614 0.71761 0.0
C3624 C 0.37626 0.5842 0.72496 0.0
C3625 C 0.35367 0.57255 0.73267 0.0
C3626 C 0.38752 0.60541 0.74163 0.0
C3627 C 0.40377 0.6148 0.71573 0.0
N3628 N 0.36555 0.58164 0.73581 0.0
N3629 N 0.39559 0.60153 0.71524 0.0
H3630 H 0.3601 0.39131 0.64719 0.0
H3631 H 0.36513 0.31073 0.69315 0.0
H3632 H 0.34411 0.38361 0.69425 0.0
H3633 H 0.38983 0.32212 0.65154 0.0
H3634 H 0.34952 0.33356 0.68841 0.0
H3635 H 0.36307 0.36295 0.64392 0.0
C3636 C 0.35689 0.38359 0.65673 0.0
C3637 C 0.35207 0.38979 0.67113 0.0
C3638 C 0.35804 0.33079 0.68001 0.0
C3639 C 0.35565 0.35736 0.66752 0.0
C3640 C 0.36689 0.31769 0.68263 0.0
C3641 C 0.37891 0.31468 0.67281 0.0
C3642 C 0.36135 0.34102 0.66757 0.0
C3643 C 0.38066 0.32398 0.65934 0.0
C3644 C 0.35858 0.36741 0.65483 0.0
C3645 C 0.34789 0.3793 0.683 0.0
N3646 N 0.37221 0.33699 0.65731 0.0
N3647 N 0.35006 0.36358 0.68106 0.0
H3648 H 0.76147 0.58865 0.14365 0.0
H3649 H 0.794 0.67345 0.13262 0.0
H3650 H 0.78785 0.61305 0.17787 0.0
H3651 H 0.76495 0.65199 0.09894 0.0
H3652 H 0.78655 0.65407 0.15211 0.0
H3653 H 0.75725 0.61373 0.13004 0.0
C3654 C 0.76598 0.59936 0.14855 0.0
C3655 C 0.7753 0.59883 0.16162 0.0
C3656 C 0.78157 0.65368 0.14056 0.0
C3657 C 0.77069 0.62732 0.14619 0.0
C3658 C 0.78586 0.66475 0.12944 0.0
C3659 C 0.78031 0.66404 0.11411 0.0
C3660 C 0.77201 0.64151 0.13617 0.0
C3661 C 0.76959 0.65277 0.11063 0.0
C3662 C 0.76364 0.61365 0.14076 0.0
C3663 C 0.78088 0.61297 0.16757 0.0
N3664 N 0.76605 0.64165 0.12147 0.0
N3665 N 0.77868 0.62658 0.15967 0.0
H3666 H 0.34449 0.78768 0.09253 0.0
H3667 H 0.42504 0.80914 0.11874 0.0
H3668 H 0.36127 0.83511 0.09206 0.0
H3669 H 0.40591 0.76321 0.12422 0.0
H3670 H 0.40068 0.81997 0.11328 0.0
H3671 H 0.36548 0.7795 0.10819 0.0
C3672 C 0.35255 0.79641 0.09583 0.0
C3673 C 0.35129 0.81203 0.09068 0.0
C3674 C 0.40173 0.80759 0.11603 0.0
C3675 C 0.3755 0.80271 0.10853 0.0
C3676 C 0.41559 0.80146 0.11922 0.0
C3677 C 0.41731 0.78533 0.12195 0.0
C3678 C 0.38965 0.7974 0.11526 0.0
C3679 C 0.40491 0.77574 0.12223 0.0
C3680 C 0.36453 0.79175 0.10484 0.0
C3681 C 0.36191 0.82289 0.0956 0.0
N3682 N 0.3916 0.78188 0.11871 0.0
N3683 N 0.37371 0.81797 0.10401 0.0
H3684 H 0.21543 0.39918 0.1396 0.0
H3685 H 0.16109 0.3285 0.12054 0.0
H3686 H 0.17282 0.39365 0.16086 0.0
H3687 H 0.20725 0.32632 0.11009 0.0
H3688 H 0.16498 0.35342 0.13393 0.0
H3689 H 0.21246 0.37338 0.12708 0.0
C3690 C 0.20549 0.39258 0.14164 0.0
C3691 C 0.19435 0.39862 0.15126 0.0
C3692 C 0.17428 0.34744 0.12879 0.0
C3693 C 0.1909 0.36929 0.137 0.0
C3694 C 0.17206 0.3332 0.12114 0.0
C3695 C 0.18385 0.32527 0.11421 0.0
C3696 C 0.18838 0.35394 0.12938 0.0
C3697 C 0.19784 0.332 0.11532 0.0
C3698 C 0.20383 0.37786 0.13455 0.0
C3699 C 0.18171 0.38953 0.15354 0.0
N3700 N 0.19971 0.34603 0.12268 0.0
N3701 N 0.18031 0.37538 0.14641 0.0
H3702 H 0.59807 0.2379 0.14638 0.0
H3703 H 0.63522 0.16283 0.10681 0.0
H3704 H 0.57413 0.19897 0.1267 0.0
H3705 H 0.65459 0.20911 0.10781 0.0
H3706 H 0.61531 0.17247 0.12351 0.0
H3707 H 0.62104 0.22371 0.14141 0.0
C3708 C 0.59771 0.2262 0.14133 0.0
C3709 C 0.5844 0.21951 0.1368 0.0
C3710 C 0.62409 0.18039 0.12029 0.0
C3711 C 0.6103 0.20341 0.13106 0.0
C3712 C 0.63546 0.17492 0.1108 0.0
C3713 C 0.64632 0.18534 0.10556 0.0
C3714 C 0.62372 0.19631 0.1246 0.0
C3715 C 0.64621 0.20081 0.11126 0.0
C3716 C 0.61073 0.21815 0.13849 0.0
C3717 C 0.58431 0.20443 0.13024 0.0
N3718 N 0.63495 0.2059 0.12032 0.0
N3719 N 0.59712 0.19689 0.12743 0.0
H3720 H 0.79103 0.41026 0.85122 0.0
H3721 H 0.82713 0.32831 0.87608 0.0
H3722 H 0.82154 0.38586 0.82113 0.0
H3723 H 0.78932 0.34904 0.89837 0.0
H3724 H 0.82732 0.3501 0.8571 0.0
H3725 H 0.79273 0.38899 0.87012 0.0
C3726 C 0.79816 0.40045 0.84856 0.0
C3727 C 0.80605 0.39982 0.8344 0.0
C3728 C 0.819 0.34981 0.86616 0.0
C3729 C 0.808 0.37519 0.85619 0.0
C3730 C 0.81889 0.3374 0.87701 0.0
C3731 C 0.80818 0.3368 0.88886 0.0
C3732 C 0.80843 0.36174 0.8673 0.0
C3733 C 0.79777 0.34891 0.88945 0.0
C3734 C 0.79908 0.38823 0.85939 0.0
C3735 C 0.81516 0.38676 0.83178 0.0
N3736 N 0.7982 0.36085 0.87889 0.0
N3737 N 0.81586 0.37491 0.84256 0.0
H3738 H 0.65743 0.77599 0.90707 0.0
H3739 H 0.58357 0.79913 0.8624 0.0
H3740 H 0.63497 0.82041 0.91185 0.0
H3741 H 0.60973 0.75896 0.84924 0.0
H3742 H 0.60027 0.80431 0.88405 0.0
H3743 H 0.63832 0.76721 0.88879 0.0
C3744 C 0.64848 0.78386 0.90431 0.0
C3745 C 0.64784 0.799 0.91087 0.0
C3746 C 0.60234 0.7943 0.87649 0.0
C3747 C 0.62599 0.78901 0.89022 0.0
C3748 C 0.59278 0.79131 0.86413 0.0
C3749 C 0.59542 0.77876 0.85382 0.0
C3750 C 0.61469 0.78473 0.87854 0.0
C3751 C 0.60739 0.76887 0.85682 0.0
C3752 C 0.63759 0.77885 0.89392 0.0
C3753 C 0.63599 0.8087 0.90697 0.0
N3754 N 0.61672 0.77217 0.86884 0.0
N3755 N 0.62557 0.80354 0.8969 0.0
H3756 H 0.16091 0.65556 0.88841 0.0
H3757 H 0.18194 0.61656 0.8056 0.0
H3758 H 0.18857 0.67787 0.85404 0.0
H3759 H 0.16996 0.59023 0.84695 0.0
H3760 H 0.17705 0.6411 0.81998 0.0
H3761 H 0.15668 0.6338 0.86988 0.0
C3762 C 0.16564 0.65612 0.87673 0.0
C3763 C 0.17501 0.66848 0.87262 0.0
C3764 C 0.17523 0.62993 0.82578 0.0
C3765 C 0.17051 0.64365 0.85159 0.0
C3766 C 0.17789 0.61596 0.81755 0.0
C3767 C 0.17639 0.6014 0.82513 0.0
C3768 C 0.1709 0.62929 0.84165 0.0
C3769 C 0.17139 0.60125 0.84074 0.0
C3770 C 0.16336 0.64367 0.86624 0.0
C3771 C 0.18118 0.66855 0.85753 0.0
N3772 N 0.1689 0.61497 0.84851 0.0
N3773 N 0.17893 0.65625 0.84758 0.0
H3774 H 0.36156 0.16969 0.91722 0.0
H3775 H 0.39571 0.23561 0.86116 0.0
H3776 H 0.34066 0.21427 0.90791 0.0
H3777 H 0.41611 0.19078 0.87054 0.0
H3778 H 0.37665 0.2292 0.88026 0.0
H3779 H 0.38253 0.17815 0.90168 0.0
C3780 C 0.36137 0.18127 0.9119 0.0
C3781 C 0.34929 0.19125 0.9138 0.0
C3782 C 0.38538 0.22084 0.87824 0.0
C3783 C 0.37333 0.20106 0.89603 0.0
C3784 C 0.39631 0.22452 0.86739 0.0
C3785 C 0.40741 0.21362 0.86408 0.0
C3786 C 0.38557 0.20615 0.88581 0.0
C3787 C 0.40767 0.19947 0.87257 0.0
C3788 C 0.37338 0.18611 0.90307 0.0
C3789 C 0.3497 0.20615 0.90669 0.0
N3790 N 0.39683 0.19608 0.88293 0.0
N3791 N 0.36152 0.21059 0.89807 0.0
H3792 H 0.58486 0.77999 0.16199 0.0
H3793 H 0.66885 0.8025 0.15183 0.0
H3794 H 0.60805 0.80949 0.19496 0.0
H3795 H 0.64159 0.78929 0.11256 0.0
H3796 H 0.64732 0.80234 0.16885 0.0
H3797 H 0.60632 0.7803 0.14476 0.0
C3798 C 0.59448 0.78646 0.16565 0.0
C3799 C 0.59466 0.79474 0.17994 0.0
C3800 C 0.64605 0.79953 0.1565 0.0
C3801 C 0.61919 0.79508 0.16032 0.0
C3802 C 0.65833 0.79958 0.14679 0.0
C3803 C 0.657 0.79591 0.13076 0.0
C3804 C 0.63236 0.79554 0.1502 0.0
C3805 C 0.64308 0.79226 0.12484 0.0
C3806 C 0.60667 0.7867 0.15577 0.0
C3807 C 0.6074 0.80299 0.18403 0.0
N3808 N 0.6313 0.79205 0.1346 0.0
N3809 N 0.61917 0.80289 0.1743 0.0
H3810 H 0.66725 0.19179 0.85235 0.0
H3811 H 0.58354 0.21233 0.83761 0.0
H3812 H 0.63788 0.20362 0.8903 0.0
H3813 H 0.60957 0.18508 0.80515 0.0
H3814 H 0.60384 0.21183 0.85638 0.0
H3815 H 0.64661 0.19157 0.83422 0.0
C3816 C 0.65643 0.19429 0.85688 0.0
C3817 C 0.65426 0.19777 0.87284 0.0
C3818 C 0.60506 0.20597 0.84514 0.0
C3819 C 0.63061 0.19768 0.8521 0.0
C3820 C 0.59355 0.20634 0.83438 0.0
C3821 C 0.59489 0.19875 0.81978 0.0
C3822 C 0.61805 0.19814 0.84117 0.0
C3823 C 0.60805 0.19106 0.81628 0.0
C3824 C 0.64465 0.19412 0.84653 0.0
C3825 C 0.64 0.20084 0.87808 0.0
N3826 N 0.61915 0.19101 0.82687 0.0
N3827 N 0.62869 0.20086 0.86769 0.0
H3828 H 0.82305 0.62206 0.82695 0.0
H3829 H 0.77905 0.6337 0.90766 0.0
H3830 H 0.78099 0.60107 0.83669 0.0
H3831 H 0.81832 0.65932 0.89574 0.0
H3832 H 0.78044 0.62027 0.88228 0.0
H3833 H 0.82242 0.63452 0.85289 0.0
C3834 C 0.81372 0.62004 0.83452 0.0
C3835 C 0.80204 0.61056 0.82958 0.0
C3836 C 0.78875 0.62883 0.88526 0.0
C3837 C 0.80125 0.62472 0.85923 0.0
C3838 C 0.78797 0.63649 0.89975 0.0
C3839 C 0.79856 0.64768 0.90386 0.0
C3840 C 0.80024 0.63234 0.87484 0.0
C3841 C 0.80989 0.65079 0.89312 0.0
C3842 C 0.81335 0.62716 0.84932 0.0
C3843 C 0.79022 0.60833 0.83992 0.0
N3844 N 0.81042 0.64317 0.87911 0.0
N3845 N 0.79014 0.61536 0.85423 0.0
H3846 H 0.33907 0.81069 0.8941 0.0
H3847 H 0.4011 0.76602 0.84721 0.0
H3848 H 0.35621 0.76577 0.90824 0.0
H3849 H 0.38165 0.81 0.83275 0.0
H3850 H 0.38164 0.76293 0.86671 0.0
H3851 H 0.35085 0.80775 0.86854 0.0
C3852 C 0.34467 0.79983 0.89143 0.0
C3853 C 0.34626 0.78823 0.90292 0.0
C3854 C 0.38154 0.77314 0.85909 0.0
C3855 C 0.36081 0.7852 0.87432 0.0
C3856 C 0.39267 0.77493 0.84799 0.0
C3857 C 0.39323 0.78848 0.83858 0.0
C3858 C 0.37097 0.78502 0.86079 0.0
C3859 C 0.38188 0.79952 0.83994 0.0
C3860 C 0.35171 0.79826 0.877 0.0
C3861 C 0.35465 0.77488 0.89949 0.0
N3862 N 0.37135 0.79764 0.85097 0.0
N3863 N 0.36179 0.7738 0.88553 0.0
H3864 H 0.23787 0.40131 0.83981 0.0
H3865 H 0.18406 0.35491 0.89749 0.0
H3866 H 0.19387 0.38633 0.82887 0.0
H3867 H 0.23049 0.3575 0.90613 0.0
H3868 H 0.18707 0.37191 0.8748 0.0
H3869 H 0.23511 0.38971 0.86621 0.0
C3870 C 0.22768 0.39563 0.84294 0.0
C3871 C 0.21615 0.39466 0.83207 0.0
C3872 C 0.19663 0.36887 0.88168 0.0
C3873 C 0.21287 0.38178 0.86206 0.0
C3874 C 0.1949 0.35918 0.89466 0.0
C3875 C 0.20709 0.35454 0.90347 0.0
C3876 C 0.21068 0.37385 0.87732 0.0
C3877 C 0.22084 0.36072 0.8995 0.0
C3878 C 0.22611 0.38908 0.85796 0.0
C3879 C 0.20315 0.38725 0.83673 0.0
N3880 N 0.22233 0.36991 0.88649 0.0
N3881 N 0.20189 0.38114 0.85132 0.0
H3882 H 0.40442 0.20593 0.14817 0.0
H3883 H 0.31963 0.18623 0.15472 0.0
H3884 H 0.38702 0.17182 0.18083 0.0
H3885 H 0.33838 0.2094 0.11428 0.0
H3886 H 0.3442 0.18162 0.16493 0.0
H3887 H 0.38035 0.20797 0.13589 0.0
C3888 C 0.39557 0.19879 0.15271 0.0
C3889 C 0.39774 0.18875 0.16562 0.0
C3890 C 0.34295 0.18764 0.15378 0.0
C3891 C 0.37012 0.19116 0.15169 0.0
C3892 C 0.32892 0.19035 0.14797 0.0
C3893 C 0.32694 0.1983 0.13366 0.0
C3894 C 0.35512 0.19307 0.14533 0.0
C3895 C 0.3394 0.20325 0.12538 0.0
C3896 C 0.38183 0.19994 0.14566 0.0
C3897 C 0.38587 0.17972 0.17091 0.0
N3898 N 0.35297 0.20067 0.1314 0.0
N3899 N 0.37254 0.18126 0.16403 0.0
H3900 H 0.83447 0.3844 0.1648 0.0
H3901 H 0.78689 0.33917 0.10209 0.0
H3902 H 0.78745 0.38019 0.16732 0.0
H3903 H 0.8307 0.32315 0.11198 0.0
H3904 H 0.78811 0.3564 0.12486 0.0
H3905 H 0.83469 0.36347 0.14473 0.0
C3906 C 0.82425 0.37903 0.16128 0.0
C3907 C 0.8109 0.38432 0.16755 0.0
C3908 C 0.79744 0.34905 0.12217 0.0
C3909 C 0.8111 0.36064 0.14469 0.0
C3910 C 0.79678 0.33926 0.10911 0.0
C3911 C 0.80871 0.32973 0.10516 0.0
C3912 C 0.81024 0.34962 0.13125 0.0
C3913 C 0.82123 0.33028 0.11473 0.0
C3914 C 0.8244 0.36709 0.14988 0.0
C3915 C 0.79801 0.3768 0.16267 0.0
N3916 N 0.82177 0.34024 0.1273 0.0
N3917 N 0.79844 0.36554 0.15143 0.0
H3918 H 0.19663 0.63042 0.17568 0.0
H3919 H 0.16089 0.67205 0.10095 0.0
H3920 H 0.1577 0.61179 0.15403 0.0
H3921 H 0.20713 0.66589 0.10858 0.0
H3922 H 0.15608 0.65777 0.12579 0.0
H3923 H 0.19651 0.65202 0.15672 0.0
C3924 C 0.18786 0.6311 0.16713 0.0
C3925 C 0.17721 0.61929 0.16625 0.0
C3926 C 0.16724 0.65983 0.12206 0.0
C3927 C 0.17703 0.64387 0.14465 0.0
C3928 C 0.16997 0.66792 0.10801 0.0
C3929 C 0.1844 0.66983 0.10277 0.0
C3930 C 0.17907 0.65419 0.13094 0.0
C3931 C 0.19586 0.66439 0.11219 0.0
C3932 C 0.18778 0.64341 0.15639 0.0
C3933 C 0.16599 0.62078 0.15512 0.0
N3934 N 0.19295 0.65681 0.12583 0.0
N3935 N 0.16629 0.63277 0.14451 0.0
H3936 H 0.96529 0.20522 0.34163 0.0
H3937 H 0.01967 0.15014 0.29517 0.0
H3938 H 0.95218 0.16832 0.30972 0.0
H3939 H 0.02986 0.19545 0.31524 0.0
H3940 H 0.99655 0.1501 0.30978 0.0
H3941 H 0.98992 0.19418 0.34212 0.0
C3942 C 0.96745 0.19452 0.3351 0.0
C3943 C 0.95689 0.18812 0.32498 0.0
C3944 C 0.00403 0.15986 0.31123 0.0
C3945 C 0.98498 0.17563 0.32537 0.0
C3946 C 0.01716 0.15994 0.30285 0.0
C3947 C 0.02639 0.17309 0.30357 0.0
C3948 C 0.00024 0.17298 0.32041 0.0
C3949 C 0.02279 0.18533 0.31392 0.0
C3950 C 0.98153 0.18826 0.33536 0.0
C3951 C 0.96019 0.17402 0.31715 0.0
N3952 N 0.0099 0.18508 0.32177 0.0
N3953 N 0.97409 0.16847 0.31715 0.0
H3954 H 0.8396 0.05107 0.3302 0.0
H3955 H 0.79707 0.977 0.34847 0.0
H3956 H 0.79459 0.04922 0.34503 0.0
H3957 H 0.84292 0.97803 0.33691 0.0
H3958 H 0.79918 0.00332 0.35949 0.0
H3959 H 0.84418 0.02647 0.34429 0.0
C3960 C 0.83082 0.0458 0.33695 0.0
C3961 C 0.81655 0.05167 0.33589 0.0
C3962 C 0.80892 -0.00231 0.35494 0.0
C3963 C 0.82155 0.02348 0.35161 0.0
C3964 C 0.80768 0.98263 0.34862 0.0
C3965 C 0.81966 0.97573 0.34105 0.0
C3966 C 0.82205 0.00609 0.35294 0.0
C3967 C 0.83327 0.98323 0.34214 0.0
C3968 C 0.83341 0.0317 0.34496 0.0
C3969 C 0.80563 0.04462 0.34505 0.0
N3970 N 0.83401 -0.0017 0.34738 0.0
N3971 N 0.80825 0.03065 0.35218 0.0
H3972 H 0.0383 0.83534 0.3013 0.0
H3973 H 0.9634 0.80792 0.331 0.0
H3974 H 0.03095 0.80553 0.34163 0.0
H3975 H 0.9702 0.8373 0.29036 0.0
H3976 H 0.98666 0.81686 0.34177 0.0
H3977 H 0.01368 0.84585 0.3042 0.0
C3978 C 0.03165 0.83127 0.31102 0.0
C3979 C 0.03638 0.81888 0.3207 0.0
C3980 C 0.98294 0.82174 0.3307 0.0
C3981 C 0.00812 0.83069 0.3239 0.0
C3982 C 0.96966 0.81662 0.32456 0.0
C3983 C 0.96523 0.82148 0.30955 0.0
C3984 C 0.99208 0.83122 0.32141 0.0
C3985 C 0.97346 0.83302 0.30183 0.0
C3986 C 0.01756 0.83732 0.31269 0.0
C3987 C 0.02753 0.81458 0.33347 0.0
N3988 N 0.98678 0.83712 0.3076 0.0
N3989 N 0.01363 0.82012 0.33441 0.0
H3990 H 0.15745 0.95786 0.32637 0.0
H3991 H 0.19827 0.03191 0.34895 0.0
H3992 H 0.1998 0.95871 0.34861 0.0
H3993 H 0.15325 0.03178 0.33417 0.0
H3994 H 0.19528 0.00531 0.35906 0.0
H3995 H 0.15179 0.98317 0.33858 0.0
C3996 C 0.16536 0.96312 0.33425 0.0
C3997 C 0.17937 0.95663 0.33591 0.0
C3998 C 0.18587 0.01117 0.35403 0.0
C3999 C 0.17313 0.9856 0.34964 0.0
C4000 C 0.18762 0.0264 0.34829 0.0
C4001 C 0.17614 0.03371 0.34026 0.0
C4002 C 0.1728 0.00301 0.35091 0.0
C4003 C 0.16246 0.0263 0.34001 0.0
C4004 C 0.16215 0.9776 0.34123 0.0
C4005 C 0.18909 0.96372 0.3465 0.0
N4006 N 0.16129 0.01107 0.34469 0.0
N4007 N 0.18595 0.97803 0.35264 0.0
H4008 H 0.95858 0.83305 0.68327 0.0
H4009 H 0.02937 0.80557 0.64479 0.0
H4010 H 0.95927 0.80055 0.64424 0.0
H4011 H 0.02688 0.84791 0.67268 0.0
H4012 H 0.00345 0.80813 0.63881 0.0
H4013 H 0.98217 0.84331 0.67477 0.0
C4014 C 0.96352 0.8283 0.67271 0.0
C4015 C 0.95721 0.81546 0.66486 0.0
C4016 C 0.00863 0.81713 0.64589 0.0
C4017 C 0.98435 0.827 0.65518 0.0
C4018 C 0.02349 0.81567 0.6493 0.0
C4019 C 0.03017 0.82613 0.65984 0.0
C4020 C 0.00038 0.8289 0.6534 0.0
C4021 C 0.02207 0.83923 0.66494 0.0
C4022 C 0.97701 0.83421 0.66781 0.0
C4023 C 0.96396 0.81009 0.65101 0.0
N4024 N 0.00748 0.83995 0.66212 0.0
N4025 N 0.97736 0.81557 0.64687 0.0
H4026 H 0.13549 0.96696 0.70462 0.0
H4027 H 0.14412 0.04124 0.68133 0.0
H4028 H 0.16949 0.95425 0.67199 0.0
H4029 H 0.18432 0.02357 0.66162 0.0
H4030 H 0.1334 0.01507 0.67881 0.0
H4031 H 0.13273 0.99205 0.69118 0.0
C4032 C 0.14199 0.96923 0.69422 0.0
C4033 C 0.15316 0.95887 0.68979 0.0
C4034 C 0.14451 0.01689 0.67486 0.0
C4035 C 0.15023 0.98764 0.67428 0.0
C4036 C 0.15057 0.03195 0.67605 0.0
C4037 C 0.16536 0.03438 0.67236 0.0
C4038 C 0.15344 0.00426 0.67012 0.0
C4039 C 0.17304 0.02205 0.6652 0.0
C4040 C 0.14045 0.98366 0.68646 0.0
C4041 C 0.16119 0.96227 0.67618 0.0
N4042 N 0.16712 0.00744 0.66468 0.0
N4043 N 0.15983 0.97652 0.66915 0.0
H4044 H 0.95271 0.18135 0.66249 0.0
H4045 H 0.02813 0.16936 0.69726 0.0
H4046 H 0.96113 0.15334 0.70371 0.0
H4047 H 0.01999 0.19104 0.65219 0.0
H4048 H 0.00522 0.15502 0.69488 0.0
H4049 H 0.97718 0.17544 0.65288 0.0
C4050 C 0.95954 0.17336 0.66918 0.0
C4051 C 0.95521 0.16826 0.68414 0.0
C4052 C 0.00855 0.16264 0.68532 0.0
C4053 C 0.98343 0.16227 0.67379 0.0
C4054 C 0.02159 0.17098 0.68676 0.0
C4055 C 0.02562 0.18197 0.67525 0.0
C4056 C -0.00072 0.16568 0.6725 0.0
C4057 C 0.01704 0.18309 0.66162 0.0
C4058 C 0.97358 0.17007 0.66377 0.0
C4059 C 0.96428 0.15778 0.69226 0.0
N4060 N 0.00406 0.17539 0.66081 0.0
N4061 N 0.97824 0.15561 0.68728 0.0
H4062 H 0.83747 0.94864 0.66914 0.0
H4063 H 0.78592 0.01835 0.64793 0.0
H4064 H 0.79027 0.9479 0.67005 0.0
H4065 H 0.83275 0.02194 0.65241 0.0
H4066 H 0.78837 0.99013 0.64382 0.0
H4067 H 0.83657 0.97221 0.65272 0.0
C4068 C 0.82691 0.95331 0.66574 0.0
C4069 C 0.81392 0.94665 0.6715 0.0
C4070 C 0.79817 0.99714 0.64523 0.0
C4071 C 0.81284 0.97351 0.6526 0.0
C4072 C 0.79677 0.0133 0.64748 0.0
C4073 C 0.80908 0.02229 0.65142 0.0
C4074 C 0.81192 0.99006 0.6473 0.0
C4075 C 0.8229 0.01528 0.65006 0.0
C4076 C 0.82641 0.9667 0.65625 0.0
C4077 C 0.80058 0.95295 0.66635 0.0
N4078 N 0.82394 -0.0006 0.64874 0.0
N4079 N 0.80039 0.96618 0.65744 0.0
H4080 H 0.28512 0.94109 0.14085 0.0
H4081 H 0.33791 0.0118 0.14382 0.0
H4082 H 0.32954 0.94024 0.1578 0.0
H4083 H 0.29112 0.01334 0.13803 0.0
H4084 H 0.3379 0.98465 0.13446 0.0
H4085 H 0.29074 0.96464 0.12564 0.0
C4086 C 0.29618 0.94564 0.14102 0.0
C4087 C 0.30671 0.9392 0.15115 0.0
C4088 C 0.3277 0.99112 0.13465 0.0
C4089 C 0.31307 0.9663 0.13414 0.0
C4090 C 0.32769 0.00666 0.13996 0.0
C4091 C 0.31438 0.01447 0.14247 0.0
C4092 C 0.3143 0.98352 0.13197 0.0
C4093 C 0.30154 0.00742 0.13695 0.0
C4094 C 0.2994 0.95905 0.13228 0.0
C4095 C 0.32098 0.94517 0.15051 0.0
N4096 N 0.30176 0.99216 0.13234 0.0
N4097 N 0.32364 0.95875 0.14258 0.0
H4098 H 0.96773 0.31455 0.1531 0.0
H4099 H 0.03594 0.34123 0.2038 0.0
H4100 H 0.9654 0.34011 0.19689 0.0
H4101 H 0.03731 0.307 0.16631 0.0
H4102 H 0.01149 0.34898 0.19523 0.0
H4103 H 0.99393 0.32017 0.15182 0.0
C4104 C 0.97261 0.32178 0.16219 0.0
C4105 C 0.96446 0.32644 0.1754 0.0
C4106 C 0.01728 0.33999 0.18868 0.0
C4107 C 0.99441 0.33273 0.17407 0.0
C4108 C 0.03126 0.33556 0.19356 0.0
C4109 C 0.03851 0.32303 0.18612 0.0
C4110 C 0.01047 0.33182 0.17633 0.0
C4111 C 0.03198 0.31639 0.17271 0.0
C4112 C 0.9876 0.32489 0.16149 0.0
C4113 C 0.97136 0.3359 0.18672 0.0
N4114 N 0.01821 0.32063 0.16844 0.0
N4115 N 0.98599 0.33845 0.18597 0.0
H4116 H 0.69761 0.97486 0.14306 0.0
H4117 H 0.70313 0.05061 0.14269 0.0
H4118 H 0.65181 0.9791 0.15392 0.0
H4119 H 0.6623 0.04869 0.16787 0.0
H4120 H 0.69625 0.02693 0.12833 0.0
H4121 H 0.69771 0.00164 0.1336 0.0
C4122 C 0.68742 0.98134 0.14293 0.0
C4123 C 0.67486 0.97506 0.1499 0.0
C4124 C 0.68871 0.03163 0.13693 0.0
C4125 C 0.67481 0.00611 0.13947 0.0
C4126 C 0.69258 0.04529 0.14498 0.0
C4127 C 0.68352 0.05114 0.15692 0.0
C4128 C 0.67609 0.02338 0.14153 0.0
C4129 C 0.66977 0.04424 0.15905 0.0
C4130 C 0.6874 0.99677 0.13744 0.0
C4131 C 0.66185 0.98372 0.14901 0.0
N4132 N 0.66667 0.03038 0.15181 0.0
N4133 N 0.66227 -0.00095 0.14449 0.0
H4134 H 0.97332 0.67143 0.16988 0.0
H4135 H 0.05075 0.65113 0.19309 0.0
H4136 H 0.98293 0.63251 0.20072 0.0
H4137 H 0.04067 0.67747 0.15104 0.0
H4138 H 0.02688 0.63856 0.19148 0.0
H4139 H -0.0026 0.66863 0.15801 0.0
C4140 C 0.98043 0.66205 0.1739 0.0
C4141 C 0.97639 0.65252 0.18661 0.0
C4142 C 0.03002 0.64676 0.18233 0.0
C4143 C 0.00412 0.64952 0.17346 0.0
C4144 C 0.04366 0.654 0.18329 0.0
C4145 C 0.04742 0.66593 0.17262 0.0
C4146 C 0.01999 0.65181 0.17088 0.0
C4147 C 0.03801 0.66876 0.15988 0.0
C4148 C 0.99417 0.66038 0.16707 0.0
C4149 C 0.9858 0.64032 0.19114 0.0
N4150 N 0.02452 0.66213 0.15964 0.0
N4151 N -0.00054 0.63948 0.18491 0.0
H4152 H 0.31719 0.96138 0.84326 0.0
H4153 H 0.29794 0.0341 0.8475 0.0
H4154 H 0.3576 0.97716 0.82259 0.0
H4155 H 0.33853 0.04451 0.82391 0.0
H4156 H 0.3089 0.01064 0.85857 0.0
H4157 H 0.31499 0.9862 0.8569 0.0
C4158 C 0.32584 0.96997 0.84193 0.0
C4159 C 0.33707 0.96766 0.83098 0.0
C4160 C 0.31557 0.01795 0.85107 0.0
C4161 C 0.33429 0.99662 0.84586 0.0
C4162 C 0.30926 0.0315 0.84478 0.0
C4163 C 0.31708 0.04079 0.83406 0.0
C4164 C 0.32962 0.01338 0.84608 0.0
C4165 C 0.33189 0.03732 0.83161 0.0
C4166 C 0.32453 0.98437 0.84965 0.0
C4167 C 0.34835 0.97879 0.83037 0.0
N4168 N 0.33754 0.02364 0.83717 0.0
N4169 N 0.34639 0.99307 0.83719 0.0
H4170 H 0.97361 0.32965 0.84875 0.0
H4171 H 0.04594 0.34912 0.81036 0.0
H4172 H 0.97971 0.36507 0.81317 0.0
H4173 H 0.03936 0.3148 0.8471 0.0
H4174 H 0.02475 0.3636 0.81988 0.0
H4175 H -0.00133 0.33371 0.85755 0.0
C4176 C 0.98009 0.33881 0.84325 0.0
C4177 C 0.9749 0.34668 0.82991 0.0
C4178 C 0.02814 0.35312 0.82613 0.0
C4179 C 0.00375 0.35062 0.83913 0.0
C4180 C 0.04022 0.34477 0.82063 0.0
C4181 C 0.04391 0.33024 0.82738 0.0
C4182 C 0.01951 0.34665 0.83819 0.0
C4183 C 0.0365 0.32558 0.84106 0.0
C4184 C 0.99445 0.34106 0.84819 0.0
C4185 C 0.98353 0.35853 0.82329 0.0
N4186 N 0.02438 0.33351 0.84573 0.0
N4187 N -0.0022 0.35974 0.82758 0.0
H4188 H 0.7143 0.94397 0.83928 0.0
H4189 H 0.65507 0.01046 0.83226 0.0
H4190 H 0.67481 0.9404 0.81175 0.0
H4191 H 0.69777 0.01582 0.85296 0.0
H4192 H 0.6576 0.98189 0.8343 0.0
H4193 H 0.70408 0.96663 0.85291 0.0
C4194 C 0.7034 0.94788 0.83619 0.0
C4195 C 0.69559 0.94062 0.82398 0.0
C4196 C 0.6662 0.98932 0.83893 0.0
C4197 C 0.68385 0.96669 0.83952 0.0
C4198 C 0.66468 0.00565 0.83796 0.0
C4199 C 0.67648 0.01541 0.84195 0.0
C4200 C 0.67956 0.98291 0.84396 0.0
C4201 C 0.68862 0.00862 0.84931 0.0
C4202 C 0.69753 0.96076 0.84407 0.0
C4203 C 0.68133 0.94587 0.82085 0.0
N4204 N 0.69003 0.99275 0.84971 0.0
N4205 N 0.67604 0.95884 0.82832 0.0
H4206 H 0.03067 0.64882 0.79766 0.0
H4207 H 0.96279 0.67777 0.84709 0.0
H4208 H 0.03116 0.68372 0.83441 0.0
H4209 H 0.96037 0.65688 0.80087 0.0
H4210 H 0.98797 0.66863 0.84935 0.0
H4211 H 0.00592 0.6411 0.80584 0.0
C4212 C 0.02581 0.65438 0.80787 0.0
C4213 C 0.03274 0.66712 0.81521 0.0
C4214 C 0.98178 0.66567 0.83889 0.0
C4215 C 0.00463 0.65848 0.8245 0.0
C4216 C 0.96738 0.67089 0.83757 0.0
C4217 C 0.95966 0.66873 0.82345 0.0
C4218 C 0.98851 0.65835 0.82599 0.0
C4219 C 0.96607 0.6593 0.81176 0.0
C4220 C 0.01168 0.65004 0.81246 0.0
C4221 C 0.02601 0.67401 0.82831 0.0
N4222 N 0.98029 0.65483 0.8131 0.0
N4223 N 0.01222 0.66978 0.83238 0.0
H4224 H 0.20096 0.3131 0.04503 0.0
H4225 H 0.15778 0.33174 0.96713 0.0
H4226 H 0.1539 0.31191 0.04111 0.0
H4227 H 0.20477 0.33224 0.97139 0.0
H4228 H 0.15583 0.33248 0.99578 0.0
H4229 H 0.20218 0.32706 0.02006 0.0
C4230 C 0.19086 0.31582 0.03895 0.0
C4231 C 0.17733 0.3109 0.04495 0.0
C4232 C 0.16657 0.33283 0.99044 0.0
C4233 C 0.17866 0.32692 0.01629 0.0
C4234 C 0.16769 0.33252 0.97406 0.0
C4235 C 0.18148 0.3313 0.96693 0.0
C4236 C 0.17933 0.33183 -0.0004 0.0
C4237 C 0.19393 0.33259 0.97644 0.0
C4238 C 0.19156 0.32392 0.02473 0.0
C4239 C 0.1646 0.31517 0.03676 0.0
N4240 N 0.19257 0.3324 0.99232 0.0
N4241 N 0.16559 0.32268 0.0227 0.0
H4242 H 0.19009 0.66192 0.03254 0.0
H4243 H 0.20108 0.66243 0.95393 0.0
H4244 H 0.15558 0.69475 0.02185 0.0
H4245 H 0.15772 0.68183 0.94909 0.0
H4246 H 0.19613 0.65717 0.98146 0.0
H4247 H 0.18869 0.65182 0.00577 0.0
C4248 C 0.18207 0.66687 0.0246 0.0
C4249 C 0.17333 0.67962 0.02924 0.0
C4250 C 0.18744 0.66207 0.97438 0.0
C4251 C 0.17214 0.66866 -0.00171 0.0
C4252 C 0.19034 0.66516 0.95854 0.0
C4253 C 0.17999 0.67305 0.94926 0.0
C4254 C 0.17408 0.66698 0.98102 0.0
C4255 C 0.1662 0.67613 0.95589 0.0
C4256 C 0.18139 0.66121 0.0092 0.0
C4257 C 0.16276 0.68515 0.01866 0.0
N4258 N 0.16379 0.67345 0.97143 0.0
N4259 N 0.16272 0.67991 0.00355 0.0
H4260 H 0.31086 0.18829 0.06137 0.0
H4261 H 0.28335 0.15686 0.98016 0.0
H4262 H 0.26783 0.16904 0.05329 0.0
H4263 H 0.32831 0.16923 0.98896 0.0
H4264 H 0.27932 0.15474 0.00841 0.0
H4265 H 0.31915 0.1761 0.03684 0.0
C4266 C 0.3032 0.18137 0.05455 0.0
C4267 C 0.28851 0.18013 0.05914 0.0
C4268 C 0.29018 0.15758 0.00422 0.0
C4269 C 0.29791 0.1661 0.03115 0.0
C4270 C 0.29248 0.15872 0.98805 0.0
C4271 C 0.30604 0.16369 0.98229 0.0
C4272 C 0.30142 0.16195 0.01463 0.0
C4273 C 0.31759 0.16562 0.99298 0.0
C4274 C 0.30796 0.17433 0.04059 0.0
C4275 C 0.27915 0.17075 0.05 0.0
N4276 N 0.31491 0.16525 0.0087 0.0
N4277 N 0.28395 0.16432 0.03635 0.0
H4278 H 0.81567 0.33399 0.04243 0.0
H4279 H 0.8094 0.34072 0.96492 0.0
H4280 H 0.8516 0.30261 0.03315 0.0
H4281 H 0.84762 0.31129 0.96123 0.0
H4282 H 0.81593 0.34692 0.99175 0.0
H4283 H 0.81903 0.34585 0.01676 0.0
C4284 C 0.82444 0.32977 0.03499 0.0
C4285 C 0.83298 0.31691 0.03958 0.0
C4286 C 0.82314 0.33929 0.98523 0.0
C4287 C 0.83643 0.32973 0.00961 0.0
C4288 C 0.81937 0.33579 0.96973 0.0
C4289 C 0.82765 0.32498 0.96104 0.0
C4290 C 0.8351 0.33154 0.99225 0.0
C4291 C 0.84069 0.31937 0.96765 0.0
C4292 C 0.82632 0.33645 0.02014 0.0
C4293 C 0.84455 0.3123 0.02984 0.0
N4294 N 0.84378 0.32234 0.98301 0.0
N4295 N 0.84565 0.31836 0.01509 0.0
H4296 H 0.70184 0.84525 0.98034 0.0
H4297 H 0.70184 0.84966 0.05609 0.0
H4298 H 0.65536 0.83702 0.98053 0.0
H4299 H 0.6641 0.81988 0.05037 0.0
H4300 H 0.69537 0.86346 0.03187 0.0
H4301 H 0.70031 0.85468 0.00716 0.0
C4302 C 0.69121 0.84594 0.98589 0.0
C4303 C 0.67883 0.83974 0.9785 0.0
C4304 C 0.68836 0.85408 0.03601 0.0
C4305 C 0.67689 0.85026 0.00943 0.0
C4306 C 0.69198 0.84628 0.04989 0.0
C4307 C 0.68386 0.83315 0.05474 0.0
C4308 C 0.67692 0.84821 0.02671 0.0
C4309 C 0.67091 0.82963 0.04671 0.0
C4310 C 0.69026 0.85148 0.00128 0.0
C4311 C 0.66526 0.8413 0.98603 0.0
N4312 N 0.66808 0.83678 0.03274 0.0
N4313 N 0.66472 0.84581 0.00135 0.0
H4314 H 0.79132 0.64215 0.04748 0.0
H4315 H 0.84164 0.65076 0.97472 0.0
H4316 H 0.83677 0.65546 0.04881 0.0
H4317 H 0.79472 0.64595 0.97449 0.0
H4318 H 0.84225 0.63951 0.00118 0.0
H4319 H 0.79524 0.63007 0.02181 0.0
C4320 C 0.80226 0.64204 0.04258 0.0
C4321 C 0.81361 0.65035 0.04991 0.0
C4322 C 0.83187 0.64043 0.99513 0.0
C4323 C 0.81803 0.63713 0.02036 0.0
C4324 C 0.8315 0.64683 0.98 0.0
C4325 C 0.81803 0.64993 0.97272 0.0
C4326 C 0.81866 0.63721 0.00294 0.0
C4327 C 0.80529 0.64434 0.97995 0.0
C4328 C 0.80449 0.63517 0.0279 0.0
C4329 C 0.82763 0.64951 0.04331 0.0
N4330 N 0.80588 0.6386 0.99483 0.0
N4331 N 0.82936 0.64353 0.02859 0.0
H4332 H 0.27147 0.84255 0.94532 0.0
H4333 H 0.32962 0.84749 0.01336 0.0
H4334 H 0.31821 0.84368 0.93883 0.0
H4335 H 0.28368 0.8382 0.01962 0.0
H4336 H 0.32448 0.85711 0.98678 0.0
H4337 H 0.27482 0.85206 0.97227 0.0
C4338 C 0.28239 0.84535 0.94936 0.0
C4339 C 0.29462 0.84185 0.94004 0.0
C4340 C 0.31547 0.85335 0.99413 0.0
C4341 C 0.29855 0.85241 0.97085 0.0
C4342 C 0.31839 0.84792 0.00934 0.0
C4343 C 0.30712 0.84146 0.01846 0.0
C4344 C 0.30118 0.85224 0.98808 0.0
C4345 C 0.29277 0.84247 0.01274 0.0
C4346 C 0.28432 0.85068 0.96479 0.0
C4347 C 0.30851 0.84581 0.94583 0.0
N4348 N 0.29024 0.8474 -0.00221 0.0
N4349 N 0.31013 0.85052 0.96098 0.0
H4350 H 0.64837 0.15903 0.02354 0.0
H4351 H 0.70416 0.15232 0.95403 0.0
H4352 H 0.69382 0.14642 0.02742 0.0
H4353 H 0.66227 0.17551 0.95151 0.0
H4354 H 0.69624 0.13887 0.97788 0.0
H4355 H 0.64931 0.15325 0.99532 0.0
C4356 C 0.65836 0.15432 0.01858 0.0
C4357 C 0.67119 0.15368 0.02758 0.0
C4358 C 0.68864 0.14661 0.97193 0.0
C4359 C 0.67242 0.14736 0.99551 0.0
C4360 C 0.69318 0.15437 0.95835 0.0
C4361 C 0.68406 0.16552 0.95115 0.0
C4362 C 0.67502 0.15031 0.97856 0.0
C4363 C 0.66979 0.1673 0.95693 0.0
C4364 C 0.65893 0.15116 0.00245 0.0
C4365 C 0.68383 0.1475 0.02069 0.0
N4366 N 0.66583 0.16012 0.97059 0.0
N4367 N 0.68423 0.14492 0.00495 0.0
H4368 H 0.83802 0.54572 0.78835 0.0
H4369 H 0.80786 0.46554 0.82351 0.0
H4370 H 0.79786 0.54002 0.81436 0.0
H4371 H 0.84172 0.46799 0.78833 0.0
H4372 H 0.81021 0.49378 0.82777 0.0
H4373 H 0.84473 0.51858 0.79508 0.0
C4374 C 0.83073 0.53886 0.79567 0.0
C4375 C 0.81718 0.54497 0.80046 0.0
C4376 C 0.81736 0.48811 0.81934 0.0
C4377 C 0.82486 0.51414 0.80833 0.0
C4378 C 0.81603 0.47198 0.81694 0.0
C4379 C 0.82426 0.46457 0.80518 0.0
C4380 C 0.82678 0.4969 0.80972 0.0
C4381 C 0.835 0.47335 0.79732 0.0
C4382 C 0.83458 0.52341 0.79952 0.0
C4383 C 0.80823 0.53565 0.81008 0.0
N4384 N 0.83568 0.4892 0.79941 0.0
N4385 N 0.81216 0.52067 0.81355 0.0
H4386 H 0.17974 0.53052 0.82881 0.0
H4387 H 0.20246 0.4564 0.82124 0.0
H4388 H 0.15514 0.52164 0.7865 0.0
H4389 H 0.16784 0.44859 0.78776 0.0
H4390 H 0.19144 0.48112 0.82856 0.0
H4391 H 0.17949 0.50248 0.83458 0.0
C4392 C 0.17406 0.52265 0.82087 0.0
C4393 C 0.16795 0.52831 0.80686 0.0
C4394 C 0.18583 0.47399 0.81996 0.0
C4395 C 0.16867 0.49602 0.81262 0.0
C4396 C 0.19231 0.45983 0.81563 0.0
C4397 C 0.18625 0.45064 0.80361 0.0
C4398 C 0.17327 0.47925 0.81198 0.0
C4399 C 0.17295 0.45546 0.79696 0.0
C4400 C 0.17415 0.50654 0.82399 0.0
C4401 C 0.16031 0.5177 0.79726 0.0
N4402 N 0.1671 0.46965 0.80095 0.0
N4403 N 0.1613 0.50199 0.80003 0.0
H4404 H 0.15546 0.47075 0.14629 0.0
H4405 H 0.20472 0.54378 0.15108 0.0
H4406 H 0.20258 0.47054 0.14782 0.0
H4407 H 0.15756 0.54385 0.15284 0.0
H4408 H 0.20394 0.51871 0.13721 0.0
H4409 H 0.15616 0.49739 0.13566 0.0
C4410 C 0.16598 0.47608 0.14388 0.0
C4411 C 0.17897 0.46878 0.14874 0.0
C4412 C 0.19374 0.52441 0.14025 0.0
C4413 C 0.17983 0.49931 0.13697 0.0
C4414 C 0.19418 0.53874 0.14821 0.0
C4415 C 0.18121 0.54548 0.1539 0.0
C4416 C 0.18027 0.51668 0.1383 0.0
C4417 C 0.16788 0.53869 0.14933 0.0
C4418 C 0.16638 0.49134 0.13784 0.0
C4419 C 0.19227 0.47604 0.14493 0.0
N4420 N 0.16775 0.52441 0.14222 0.0
N4421 N 0.19236 0.49112 0.13972 0.0
H4422 H 0.82889 0.53275 0.14153 0.0
H4423 H 0.78031 0.46005 0.16004 0.0
H4424 H 0.78239 0.53392 0.14939 0.0
H4425 H 0.8274 0.45988 0.15675 0.0
H4426 H 0.77979 0.48457 0.14513 0.0
H4427 H 0.82708 0.50482 0.13506 0.0
C4428 C 0.81819 0.52731 0.14118 0.0
C4429 C 0.80585 0.53539 0.14666 0.0
C4430 C 0.79023 0.47898 0.14735 0.0
C4431 C 0.80375 0.50348 0.13983 0.0
C4432 C 0.79053 0.46497 0.15591 0.0
C4433 C 0.80395 0.45824 0.16024 0.0
C4434 C 0.80344 0.48639 0.14328 0.0
C4435 C 0.81681 0.46495 0.15419 0.0
C4436 C 0.81717 0.51129 0.13766 0.0
C4437 C 0.79225 0.52785 0.14585 0.0
N4438 N 0.81626 0.47885 0.14636 0.0
N4439 N 0.7916 0.51217 0.14301 0.0
H4440 H 0.27724 0.5234 0.66116 0.0
H4441 H 0.32038 0.44614 0.65889 0.0
H4442 H 0.32167 0.51849 0.64496 0.0
H4443 H 0.27658 0.45193 0.67691 0.0
H4444 H 0.31714 0.46973 0.643 0.0
H4445 H 0.27279 0.49597 0.65451 0.0
C4446 C 0.28593 0.51673 0.65565 0.0
C4447 C 0.30013 0.52286 0.65461 0.0
C4448 C 0.30811 0.46568 0.65017 0.0
C4449 C 0.29526 0.49147 0.6475 0.0
C4450 C 0.31001 0.45228 0.65939 0.0
C4451 C 0.29898 0.4475 0.66982 0.0
C4452 C 0.29524 0.47456 0.65169 0.0
C4453 C 0.28558 0.45552 0.66946 0.0
C4454 C 0.2834 0.501 0.65192 0.0
C4455 C 0.31075 0.51393 0.64675 0.0
N4456 N 0.28423 0.4689 0.66088 0.0
N4457 N 0.30829 0.49843 0.64406 0.0
H4458 H 0.66678 0.55088 0.6872 0.0
H4459 H 0.70384 0.47251 0.65869 0.0
H4460 H 0.71328 0.54421 0.68134 0.0
H4461 H 0.65731 0.47818 0.6641 0.0
H4462 H 0.70668 0.501 0.65897 0.0
H4463 H 0.66248 0.52676 0.67233 0.0
C4464 C 0.6761 0.54441 0.68272 0.0
C4465 C 0.69044 0.54936 0.68591 0.0
C4466 C 0.69578 0.49609 0.65971 0.0
C4467 C 0.68556 0.52182 0.66874 0.0
C4468 C 0.69417 0.47981 0.65946 0.0
C4469 C 0.68039 0.47308 0.66187 0.0
C4470 C 0.68355 0.50558 0.66285 0.0
C4471 C 0.66816 0.48299 0.66245 0.0
C4472 C 0.67362 0.5307 0.67411 0.0
C4473 C 0.70204 0.54067 0.67951 0.0
N4474 N 0.67006 0.4988 0.66346 0.0
N4475 N 0.69935 0.52723 0.67143 0.0
H4476 H 0.33254 0.4836 0.34161 0.0
H4477 H 0.28008 0.55527 0.34156 0.0
H4478 H 0.28601 0.48309 0.34967 0.0
H4479 H 0.32143 0.55195 0.31739 0.0
H4480 H 0.28734 0.5335 0.3585 0.0
H4481 H 0.33294 0.51165 0.34773 0.0
C4482 C 0.3225 0.48921 0.34537 0.0
C4483 C 0.30906 0.4813 0.3443 0.0
C4484 C 0.29501 0.53784 0.34982 0.0
C4485 C 0.3095 0.51319 0.3512 0.0
C4486 C 0.29084 0.55016 0.34003 0.0
C4487 C 0.29989 0.55483 0.32754 0.0
C4488 C 0.30816 0.52993 0.34682 0.0
C4489 C 0.31392 0.54831 0.32654 0.0
C4490 C 0.32276 0.50525 0.34882 0.0
C4491 C 0.29649 0.48899 0.34966 0.0
N4492 N 0.31748 0.53581 0.33575 0.0
N4493 N 0.29693 0.50468 0.35248 0.0
H4494 H 0.6739 0.53388 0.3286 0.0
H4495 H 0.69661 0.46033 0.32719 0.0
H4496 H 0.65676 0.5235 0.2826 0.0
H4497 H 0.66496 0.44998 0.2911 0.0
H4498 H 0.68489 0.48538 0.33177 0.0
H4499 H 0.67101 0.50629 0.33587 0.0
C4500 C 0.66911 0.5258 0.3202 0.0
C4501 C 0.66588 0.53078 0.30489 0.0
C4502 C 0.68001 0.47757 0.32322 0.0
C4503 C 0.66393 0.49901 0.31249 0.0
C4504 C 0.68689 0.46323 0.3205 0.0
C4505 C 0.68192 0.45326 0.30854 0.0
C4506 C 0.66821 0.4822 0.31365 0.0
C4507 C 0.66921 0.45747 0.30033 0.0
C4508 C 0.66776 0.50996 0.3242 0.0
C4509 C 0.65954 0.52 0.29448 0.0
N4510 N 0.66303 0.47185 0.30272 0.0
N4511 N 0.65924 0.50446 0.29828 0.0
H4512 H 0.15682 0.82744 0.47537 0.0
H4513 H 0.16479 0.81105 0.55373 0.0
H4514 H 0.20378 0.83147 0.4773 0.0
H4515 H 0.2057 0.83628 0.55159 0.0
H4516 H 0.15969 0.81889 0.52676 0.0
H4517 H 0.15578 0.83207 0.50377 0.0
C4518 C 0.16689 0.82962 0.4817 0.0
C4519 C 0.18046 0.82859 0.47404 0.0
C4520 C 0.16956 0.8232 0.53229 0.0
C4521 C 0.17939 0.83337 0.50653 0.0
C4522 C 0.17256 0.81856 0.54772 0.0
C4523 C 0.18587 0.82268 0.55485 0.0
C4524 C 0.18001 0.83193 0.52388 0.0
C4525 C 0.19541 0.83257 0.54651 0.0
C4526 C 0.1663 0.83204 0.49796 0.0
C4527 C 0.19312 0.83172 0.48278 0.0
N4528 N 0.19246 0.83654 0.53136 0.0
N4529 N 0.1923 0.83374 0.49858 0.0
H4530 H 0.15684 0.16676 0.45462 0.0
H4531 H 0.19846 0.14603 0.53082 0.0
H4532 H 0.20097 0.14902 0.45636 0.0
H4533 H 0.15281 0.15841 0.52994 0.0
H4534 H 0.19686 0.13812 0.50332 0.0
H4535 H 0.15233 0.15534 0.48063 0.0
C4536 C 0.16542 0.16 0.46024 0.0
C4537 C 0.17945 0.1593 0.45365 0.0
C4538 C 0.18705 0.14219 0.50917 0.0
C4539 C 0.17449 0.14649 0.48339 0.0
C4540 C 0.188 0.14669 0.5249 0.0
C4541 C 0.17587 0.15332 0.53242 0.0
C4542 C 0.17404 0.14498 0.50079 0.0
C4543 C 0.16248 0.15358 0.52441 0.0
C4544 C 0.16287 0.15352 0.47513 0.0
C4545 C 0.19012 0.15027 0.46131 0.0
N4546 N 0.16202 0.15001 0.50882 0.0
N4547 N 0.18753 0.14453 0.47593 0.0
H4548 H 0.31912 0.66486 0.55493 0.0
H4549 H 0.27539 0.65251 0.47761 0.0
H4550 H 0.27242 0.67055 0.55049 0.0
H4551 H 0.32204 0.64667 0.48193 0.0
H4552 H 0.27297 0.64904 0.50592 0.0
H4553 H 0.31921 0.64921 0.53092 0.0
C4554 C 0.30883 0.66265 0.54901 0.0
C4555 C 0.29581 0.66952 0.55439 0.0
C4556 C 0.28371 0.64807 0.50066 0.0
C4557 C 0.29586 0.65171 0.52679 0.0
C4558 C 0.2851 0.65001 0.48443 0.0
C4559 C 0.29901 0.65063 0.47752 0.0
C4560 C 0.29637 0.6471 0.50996 0.0
C4561 C 0.31114 0.64679 0.48686 0.0
C4562 C 0.30888 0.65361 0.53533 0.0
C4563 C 0.28277 0.66582 0.54654 0.0
N4564 N 0.3096 0.64572 0.50272 0.0
N4565 N 0.28318 0.65749 0.53291 0.0
H4566 H 0.84507 0.84256 0.51915 0.0
H4567 H 0.7903 0.85065 0.45038 0.0
H4568 H 0.79867 0.85058 0.52282 0.0
H4569 H 0.83418 0.8323 0.44723 0.0
H4570 H 0.79698 0.86428 0.47456 0.0
H4571 H 0.8445 0.85283 0.49231 0.0
C4572 C 0.83485 0.84709 0.51456 0.0
C4573 C 0.82173 0.84498 0.52284 0.0
C4574 C 0.80528 0.85764 0.46835 0.0
C4575 C 0.82101 0.85649 0.49224 0.0
C4576 C 0.80145 0.84977 0.45458 0.0
C4577 C 0.8115 0.83967 0.44725 0.0
C4578 C 0.8191 0.85501 0.47502 0.0
C4579 C 0.82592 0.8395 0.45284 0.0
C4580 C 0.83454 0.85291 0.4992 0.0
C4581 C 0.8089 0.85134 0.5165 0.0
N4582 N 0.82919 0.84663 0.4667 0.0
N4583 N 0.80877 0.85642 0.50138 0.0
H4584 H 0.70023 0.33157 0.55181 0.0
H4585 H 0.65756 0.32791 0.47089 0.0
H4586 H 0.65739 0.3111 0.54652 0.0
H4587 H 0.70352 0.33766 0.47648 0.0
H4588 H 0.6543 0.33091 0.49936 0.0
H4589 H 0.69805 0.34317 0.52571 0.0
C4590 C 0.69022 0.32979 0.54522 0.0
C4591 C 0.67912 0.32005 0.55109 0.0
C4592 C 0.66502 0.33279 0.49428 0.0
C4593 C 0.67669 0.33298 0.52107 0.0
C4594 C 0.66688 0.33116 0.47804 0.0
C4595 C 0.68092 0.33213 0.47143 0.0
C4596 C 0.67727 0.33553 0.50384 0.0
C4597 C 0.69259 0.33641 0.48117 0.0
C4598 C 0.68898 0.33641 0.53033 0.0
C4599 C 0.66626 0.31838 0.54228 0.0
N4600 N 0.69054 0.33773 0.49692 0.0
N4601 N 0.66553 0.32446 0.52747 0.0
H4602 H 0.84033 0.1598 0.46626 0.0
H4603 H 0.78729 0.15705 0.53915 0.0
H4604 H 0.79412 0.15009 0.46473 0.0
H4605 H 0.82993 0.17873 0.53922 0.0
H4606 H 0.79339 0.14375 0.51462 0.0
H4607 H 0.84002 0.15553 0.49477 0.0
C4608 C 0.83024 0.15608 0.47182 0.0
C4609 C 0.81711 0.15577 0.4633 0.0
C4610 C 0.80155 0.15114 0.52016 0.0
C4611 C 0.81667 0.15109 0.49572 0.0
C4612 C 0.79805 0.15881 0.53413 0.0
C4613 C 0.80794 0.16945 0.54092 0.0
C4614 C 0.81491 0.15437 0.51273 0.0
C4615 C 0.82187 0.17089 0.53418 0.0
C4616 C 0.83006 0.15379 0.48811 0.0
C4617 C 0.80439 0.15087 0.471 0.0
N4618 N 0.82482 0.16375 0.5202 0.0
N4619 N 0.80441 0.14905 0.48686 0.0
H4620 H 0.33053 0.32162 0.44504 0.0
H4621 H 0.29239 0.34328 0.52181 0.0
H4622 H 0.2876 0.34245 0.44776 0.0
H4623 H 0.33811 0.33129 0.51919 0.0
H4624 H 0.29323 0.35194 0.49453 0.0
H4625 H 0.33654 0.33345 0.47043 0.0
C4626 C 0.32252 0.32906 0.45075 0.0
C4627 C 0.30832 0.33046 0.4447 0.0
C4628 C 0.30322 0.34778 0.49996 0.0
C4629 C 0.31499 0.34379 0.47376 0.0
C4630 C 0.30269 0.3428 0.51556 0.0
C4631 C 0.31503 0.33597 0.52248 0.0
C4632 C 0.316 0.34525 0.49111 0.0
C4633 C 0.32823 0.33611 0.51408 0.0
C4634 C 0.32594 0.33583 0.46528 0.0
C4635 C 0.29848 0.34051 0.45239 0.0
N4636 N 0.32827 0.34012 0.49862 0.0
N4637 N 0.30187 0.34646 0.46672 0.0
H4638 H 0.65824 0.67177 0.45239 0.0
H4639 H 0.69846 0.65064 0.52784 0.0
H4640 H 0.7009 0.65018 0.45404 0.0
H4641 H 0.65327 0.66491 0.52659 0.0
H4642 H 0.69617 0.64077 0.50107 0.0
H4643 H 0.65271 0.66029 0.47803 0.0
C4644 C 0.6663 0.66426 0.45793 0.0
C4645 C 0.68032 0.66258 0.45147 0.0
C4646 C 0.6866 0.64567 0.50673 0.0
C4647 C 0.67418 0.64964 0.48087 0.0
C4648 C 0.68794 0.65132 0.52204 0.0
C4649 C 0.67622 0.6592 0.52911 0.0
C4650 C 0.67365 0.64859 0.49828 0.0
C4651 C 0.6627 0.6593 0.52134 0.0
C4652 C 0.66314 0.65768 0.47261 0.0
C4653 C 0.69018 0.65238 0.45896 0.0
N4654 N 0.6619 0.65463 0.50608 0.0
N4655 N 0.68707 0.64665 0.47346 0.0
H4656 H 0.53813 0.17702 0.83785 0.0
H4657 H 0.4669 0.14724 0.80804 0.0
H4658 H 0.53272 0.14432 0.79959 0.0
H4659 H 0.47261 0.17783 0.848 0.0
H4660 H 0.49034 0.13497 0.81383 0.0
H4661 H 0.51635 0.16629 0.85035 0.0
C4662 C 0.53257 0.16722 0.83232 0.0
C4663 C 0.5367 0.16207 0.81731 0.0
C4664 C 0.48631 0.14402 0.82168 0.0
C4665 C 0.51143 0.15031 0.83108 0.0
C4666 C 0.47291 0.15106 0.81834 0.0
C4667 C 0.46829 0.16418 0.82701 0.0
C4668 C 0.49533 0.15069 0.83328 0.0
C4669 C 0.47612 0.16819 0.84059 0.0
C4670 C 0.52012 0.16105 0.83947 0.0
C4671 C 0.52952 0.14901 0.81092 0.0
N4672 N 0.48957 0.16186 0.843 0.0
N4673 N 0.51686 0.14394 0.81756 0.0
H4674 H 0.52287 0.83948 0.80801 0.0
H4675 H 0.46399 0.79987 0.85265 0.0
H4676 H 0.53265 0.80734 0.84587 0.0
H4677 H 0.45692 0.84455 0.82988 0.0
H4678 H 0.48931 0.80721 0.85739 0.0
H4679 H 0.50032 0.8468 0.82136 0.0
C4680 C 0.52043 0.83423 0.81932 0.0
C4681 C 0.52933 0.8223 0.8255 0.0
C4682 C 0.48215 0.81569 0.85184 0.0
C4683 C 0.50335 0.83034 0.8407 0.0
C4684 C 0.46763 0.81148 0.84916 0.0
C4685 C 0.45857 0.82129 0.84016 0.0
C4686 C 0.48765 0.82952 0.84496 0.0
C4687 C 0.46371 0.83637 0.83636 0.0
C4688 C 0.50757 0.83848 0.82703 0.0
C4689 C 0.52587 0.81625 0.84042 0.0
N4690 N 0.47811 0.8398 0.8382 0.0
N4691 N 0.5129 0.81994 0.84727 0.0
H4692 H 0.53647 0.81437 0.15941 0.0
H4693 H 0.4607 0.84351 0.18103 0.0
H4694 H 0.52735 0.84555 0.19814 0.0
H4695 H 0.47083 0.81576 0.13995 0.0
H4696 H 0.48546 0.85395 0.18071 0.0
H4697 H 0.51482 0.82415 0.14587 0.0
C4698 C 0.5301 0.82365 0.16485 0.0
C4699 C 0.53333 0.82878 0.18012 0.0
C4700 C 0.48218 0.84594 0.17146 0.0
C4701 C 0.50819 0.83951 0.16507 0.0
C4702 C 0.46798 0.83995 0.17164 0.0
C4703 C 0.46396 0.82801 0.16107 0.0
C4704 C 0.49243 0.83964 0.16088 0.0
C4705 C 0.47366 0.82439 0.1488 0.0
C4706 C 0.51771 0.82925 0.15713 0.0
C4707 C 0.52499 0.84104 0.1865 0.0
N4708 N 0.48763 0.82976 0.14936 0.0
N4709 N 0.51248 0.84561 0.17918 0.0
H4710 H 0.53529 0.19059 0.14546 0.0
H4711 H 0.46946 0.14367 0.17851 0.0
H4712 H 0.53569 0.16029 0.18623 0.0
H4713 H 0.46723 0.18049 0.1437 0.0
H4714 H 0.49512 0.13958 0.17186 0.0
H4715 H 0.51316 0.17746 0.13632 0.0
C4716 C 0.53088 0.181 0.15238 0.0
C4717 C 0.53695 0.17705 0.16704 0.0
C4718 C 0.48888 0.14817 0.16526 0.0
C4719 C 0.51161 0.16202 0.15662 0.0
C4720 C 0.47416 0.15044 0.16897 0.0
C4721 C 0.46649 0.16304 0.16223 0.0
C4722 C 0.49581 0.15869 0.1549 0.0
C4723 C 0.47302 0.17112 0.14968 0.0
C4724 C 0.51829 0.17343 0.14708 0.0
C4725 C 0.53106 0.16415 0.17516 0.0
N4726 N 0.48748 0.16918 0.14676 0.0
N4727 N 0.5185 0.15736 0.17005 0.0
H4728 H 0.44663 0.32996 0.65866 0.0
H4729 H 0.509 0.36368 0.71201 0.0
H4730 H 0.44218 0.34267 0.70761 0.0
H4731 H 0.51389 0.33374 0.67143 0.0
H4732 H 0.48369 0.3691 0.70409 0.0
H4733 H 0.46916 0.3452 0.65738 0.0
C4734 C 0.45014 0.33631 0.66904 0.0
C4735 C 0.44297 0.33432 0.68352 0.0
C4736 C 0.49051 0.36184 0.69662 0.0
C4737 C 0.46871 0.35166 0.68207 0.0
C4738 C 0.50491 0.35875 0.70111 0.0
C4739 C 0.51325 0.34784 0.69259 0.0
C4740 C 0.48462 0.35403 0.68351 0.0
C4741 C 0.50759 0.34185 0.67853 0.0
C4742 C 0.46298 0.34507 0.66826 0.0
C4743 C 0.44771 0.34334 0.69637 0.0
N4744 N 0.49351 0.3448 0.67456 0.0
N4745 N 0.46058 0.35125 0.69549 0.0
H4746 H 0.52837 0.65631 0.69201 0.0
H4747 H 0.4574 0.68355 0.65883 0.0
H4748 H 0.5257 0.67395 0.64446 0.0
H4749 H 0.45837 0.64629 0.69327 0.0
H4750 H 0.48161 0.6756 0.64987 0.0
H4751 H 0.50328 0.64698 0.68982 0.0
C4752 C 0.52268 0.65782 0.68093 0.0
C4753 C 0.5289 0.66665 0.66869 0.0
C4754 C 0.47638 0.66882 0.65907 0.0
C4755 C 0.5001 0.6563 0.66623 0.0
C4756 C 0.46255 0.67343 0.66422 0.0
C4757 C 0.45608 0.66589 0.67712 0.0
C4758 C 0.48395 0.65699 0.66727 0.0
C4759 C 0.46311 0.65265 0.68349 0.0
C4760 C 0.50832 0.65244 0.67966 0.0
C4761 C 0.52115 0.66778 0.65446 0.0
N4762 N 0.47691 0.64894 0.67886 0.0
N4763 N 0.50695 0.66319 0.6538 0.0
H4764 H 0.46301 0.31387 0.33674 0.0
H4765 H 0.53855 0.33458 0.3083 0.0
H4766 H 0.47186 0.35102 0.30362 0.0
H4767 H 0.53004 0.30377 0.34757 0.0
H4768 H 0.51555 0.34804 0.31337 0.0
H4769 H 0.48696 0.31799 0.34852 0.0
C4770 C 0.46984 0.32331 0.33233 0.0
C4771 C 0.46582 0.33168 0.31881 0.0
C4772 C 0.51881 0.33858 0.32115 0.0
C4773 C 0.49345 0.3359 0.3316 0.0
C4774 C 0.53192 0.3308 0.31816 0.0
C4775 C 0.53583 0.31758 0.32707 0.0
C4776 C 0.50935 0.33272 0.33278 0.0
C4777 C 0.52716 0.31359 0.34007 0.0
C4778 C 0.48356 0.32565 0.33902 0.0
C4779 C 0.4748 0.34402 0.31378 0.0
N4780 N 0.51408 0.32082 0.34225 0.0
N4781 N 0.48849 0.34538 0.31981 0.0
H4782 H 0.46011 0.68501 0.34934 0.0
H4783 H 0.52084 0.63106 0.31648 0.0
H4784 H 0.45637 0.65176 0.31124 0.0
H4785 H 0.52692 0.67178 0.3459 0.0
H4786 H 0.49582 0.62865 0.32635 0.0
H4787 H 0.48149 0.67063 0.35901 0.0
C4788 C 0.46348 0.67438 0.34331 0.0
C4789 C 0.45693 0.66995 0.32906 0.0
C4790 C 0.50283 0.63772 0.33117 0.0
C4791 C 0.48133 0.6536 0.33995 0.0
C4792 C 0.51716 0.63901 0.32562 0.0
C4793 C 0.52563 0.65204 0.32992 0.0
C4794 C 0.49708 0.64969 0.34081 0.0
C4795 C 0.52044 0.66189 0.34191 0.0
C4796 C 0.47567 0.66616 0.34885 0.0
C4797 C 0.46152 0.65593 0.32192 0.0
N4798 N 0.50631 0.66083 0.3466 0.0
N4799 N 0.47367 0.64846 0.32721 0.0
loop_
_geom_bond_atom_site_label_1
_geom_bond_atom_site_label_2
_geom_bond_distance
_geom_bond_site_symmetry_2
_ccdc_geom_bond_type
Mg0 O1 2.028 . S
Mg0 O7 1.986 . S
Mg0 O9 2.114 . S
Mg0 O10 2.251 . S
Mg0 O13 2.010 . S
O1 Mg0 2.028 . S
O1 C4 1.250 . S
O2 Mg3 2.028 . S
O2 C4 1.248 . S
Mg3 O2 2.028 . S
Mg3 O8 2.032 . S
Mg3 O10 2.079 . S
C4 O1 1.250 . S
C4 O2 1.248 . S
C5 O6 1.264 . S
C5 O13 1.249 . S
O6 C5 1.264 . S
O7 Mg0 1.986 . S
O7 C11 1.246 . S
O8 Mg3 2.032 . S
O8 C11 1.259 . S
O9 Mg0 2.114 . S
O9 C12 1.252 . S
O10 Mg0 2.251 . S
O10 Mg3 2.079 . S
O10 C12 1.273 . S
C11 O7 1.246 . S
C11 O8 1.259 . S
C12 O9 1.252 . S
C12 O10 1.273 . S
O13 Mg0 2.010 . S
O13 C5 1.249 . S
Mg14 O15 2.028 . S
Mg14 O21 1.986 . S
Mg14 O23 2.114 . S
Mg14 O24 2.251 . S
Mg14 O27 2.010 . S
O15 Mg14 2.028 . S
O15 C18 1.250 . S
O16 Mg17 2.028 . S
O16 C18 1.248 . S
Mg17 O16 2.028 . S
Mg17 O22 2.032 . S
Mg17 O24 2.079 . S
C18 O15 1.250 . S
C18 O16 1.248 . S
C19 O20 1.264 . S
C19 O27 1.249 . S
O20 C19 1.264 . S
O21 Mg14 1.986 . S
O21 C25 1.246 . S
O22 Mg17 2.032 . S
O22 C25 1.259 . S
O23 Mg14 2.114 . S
O23 C26 1.252 . S
O24 Mg14 2.251 . S
O24 Mg17 2.079 . S
O24 C26 1.273 . S
C25 O21 1.246 . S
C25 O22 1.259 . S
C26 O23 1.252 . S
C26 O24 1.273 . S
O27 Mg14 2.010 . S
O27 C19 1.249 . S
Mg28 O29 2.028 . S
Mg28 O35 1.986 . S
Mg28 O37 2.114 . S
Mg28 O38 2.251 . S
Mg28 O41 2.010 . S
O29 Mg28 2.028 . S
O29 C32 1.250 . S
O30 Mg31 2.028 . S
O30 C32 1.248 . S
Mg31 O30 2.028 . S
Mg31 O36 2.032 . S
Mg31 O38 2.079 . S
C32 O29 1.250 . S
C32 O30 1.248 . S
C33 O34 1.264 . S
C33 O41 1.249 . S
O34 C33 1.264 . S
O35 Mg28 1.986 . S
O35 C39 1.246 . S
O36 Mg31 2.032 . S
O36 C39 1.259 . S
O37 Mg28 2.114 . S
O37 C40 1.252 . S
O38 Mg28 2.251 . S
O38 Mg31 2.079 . S
O38 C40 1.273 . S
C39 O35 1.246 . S
C39 O36 1.259 . S
C40 O37 1.252 . S
C40 O38 1.273 . S
O41 Mg28 2.010 . S
O41 C33 1.249 . S
Mg42 O43 2.028 . S
Mg42 O49 1.986 . S
Mg42 O51 2.114 . S
Mg42 O52 2.251 . S
Mg42 O55 2.010 . S
O43 Mg42 2.028 . S
O43 C46 1.250 . S
O44 Mg45 2.028 . S
O44 C46 1.248 . S
Mg45 O44 2.028 . S
Mg45 O50 2.032 . S
Mg45 O52 2.079 . S
C46 O43 1.250 . S
C46 O44 1.248 . S
C47 O48 1.264 . S
C47 O55 1.249 . S
O48 C47 1.264 . S
O49 Mg42 1.986 . S
O49 C53 1.246 . S
O50 Mg45 2.032 . S
O50 C53 1.259 . S
O51 Mg42 2.114 . S
O51 C54 1.252 . S
O52 Mg42 2.251 . S
O52 Mg45 2.079 . S
O52 C54 1.273 . S
C53 O49 1.246 . S
C53 O50 1.259 . S
C54 O51 1.252 . S
C54 O52 1.273 . S
O55 Mg42 2.010 . S
O55 C47 1.249 . S
Mg56 O57 2.028 . S
Mg56 O63 1.986 . S
Mg56 O65 2.114 . S
Mg56 O66 2.251 . S
Mg56 O69 2.010 . S
O57 Mg56 2.028 . S
O57 C60 1.250 . S
O58 Mg59 2.028 . S
O58 C60 1.248 . S
Mg59 O58 2.028 . S
Mg59 O64 2.032 . S
Mg59 O66 2.079 . S
C60 O57 1.250 . S
C60 O58 1.248 . S
C61 O62 1.264 . S
C61 O69 1.249 . S
O62 C61 1.264 . S
O63 Mg56 1.986 . S
O63 C67 1.246 . S
O64 Mg59 2.032 . S
O64 C67 1.259 . S
O65 Mg56 2.114 . S
O65 C68 1.252 . S
O66 Mg56 2.251 . S
O66 Mg59 2.079 . S
O66 C68 1.273 . S
C67 O63 1.246 . S
C67 O64 1.259 . S
C68 O65 1.252 . S
C68 O66 1.273 . S
O69 Mg56 2.010 . S
O69 C61 1.249 . S
Mg70 O71 2.028 . S
Mg70 O77 1.986 . S
Mg70 O79 2.114 . S
Mg70 O80 2.251 . S
Mg70 O83 2.010 . S
O71 Mg70 2.028 . S
O71 C74 1.250 . S
O72 Mg73 2.028 . S
O72 C74 1.248 . S
Mg73 O72 2.028 . S
Mg73 O78 2.032 . S
Mg73 O80 2.079 . S
C74 O71 1.250 . S
C74 O72 1.248 . S
C75 O76 1.264 . S
C75 O83 1.249 . S
O76 C75 1.264 . S
O77 Mg70 1.986 . S
O77 C81 1.246 . S
O78 Mg73 2.032 . S
O78 C81 1.259 . S
O79 Mg70 2.114 . S
O79 C82 1.252 . S
O80 Mg70 2.251 . S
O80 Mg73 2.079 . S
O80 C82 1.273 . S
C81 O77 1.246 . S
C81 O78 1.259 . S
C82 O79 1.252 . S
C82 O80 1.273 . S
O83 Mg70 2.010 . S
O83 C75 1.249 . S
Mg84 O85 2.028 . S
Mg84 O91 1.986 . S
Mg84 O93 2.114 . S
Mg84 O94 2.251 . S
Mg84 O97 2.010 . S
O85 Mg84 2.028 . S
O85 C88 1.250 . S
O86 Mg87 2.028 . S
O86 C88 1.248 . S
Mg87 O86 2.028 . S
Mg87 O92 2.032 . S
Mg87 O94 2.079 . S
C88 O85 1.250 . S
C88 O86 1.248 . S
C89 O90 1.264 . S
C89 O97 1.249 . S
O90 C89 1.264 . S
O91 Mg84 1.986 . S
O91 C95 1.246 . S
O92 Mg87 2.032 . S
O92 C95 1.259 . S
O93 Mg84 2.114 . S
O93 C96 1.252 . S
O94 Mg84 2.251 . S
O94 Mg87 2.079 . S
O94 C96 1.273 . S
C95 O91 1.246 . S
C95 O92 1.259 . S
C96 O93 1.252 . S
C96 O94 1.273 . S
O97 Mg84 2.010 . S
O97 C89 1.249 . S
Mg98 O99 2.028 . S
Mg98 O105 1.986 . S
Mg98 O107 2.114 . S
Mg98 O108 2.251 . S
Mg98 O111 2.010 . S
O99 Mg98 2.028 . S
O99 C102 1.250 . S
O100 Mg101 2.028 . S
O100 C102 1.248 . S
Mg101 O100 2.028 . S
Mg101 O106 2.032 . S
Mg101 O108 2.079 . S
C102 O99 1.250 . S
C102 O100 1.248 . S
C103 O104 1.264 . S
C103 O111 1.249 . S
O104 C103 1.264 . S
O105 Mg98 1.986 . S
O105 C109 1.246 . S
O106 Mg101 2.032 . S
O106 C109 1.259 . S
O107 Mg98 2.114 . S
O107 C110 1.252 . S
O108 Mg98 2.251 . S
O108 Mg101 2.079 . S
O108 C110 1.273 . S
C109 O105 1.246 . S
C109 O106 1.259 . S
C110 O107 1.252 . S
C110 O108 1.273 . S
O111 Mg98 2.010 . S
O111 C103 1.249 . S
Mg112 O113 2.028 . S
Mg112 O119 1.986 . S
Mg112 O121 2.114 . S
Mg112 O122 2.251 . S
Mg112 O125 2.010 . S
O113 Mg112 2.028 . S
O113 C116 1.250 . S
O114 Mg115 2.028 . S
O114 C116 1.248 . S
Mg115 O114 2.028 . S
Mg115 O120 2.032 . S
Mg115 O122 2.079 . S
C116 O113 1.250 . S
C116 O114 1.248 . S
C117 O118 1.264 . S
C117 O125 1.249 . S
O118 C117 1.264 . S
O119 Mg112 1.986 . S
O119 C123 1.246 . S
O120 Mg115 2.032 . S
O120 C123 1.259 . S
O121 Mg112 2.114 . S
O121 C124 1.252 . S
O122 Mg112 2.251 . S
O122 Mg115 2.079 . S
O122 C124 1.273 . S
C123 O119 1.246 . S
C123 O120 1.259 . S
C124 O121 1.252 . S
C124 O122 1.273 . S
O125 Mg112 2.010 . S
O125 C117 1.249 . S
Mg126 O127 2.028 . S
Mg126 O133 1.986 . S
Mg126 O135 2.114 . S
Mg126 O136 2.251 . S
Mg126 O139 2.010 . S
O127 Mg126 2.028 . S
O127 C130 1.250 . S
O128 Mg129 2.028 . S
O128 C130 1.248 . S
Mg129 O128 2.028 . S
Mg129 O134 2.032 . S
Mg129 O136 2.079 . S
C130 O127 1.250 . S
C130 O128 1.248 . S
C131 O132 1.264 . S
C131 O139 1.249 . S
O132 C131 1.264 . S
O133 Mg126 1.986 . S
O133 C137 1.246 . S
O134 Mg129 2.032 . S
O134 C137 1.259 . S
O135 Mg126 2.114 . S
O135 C138 1.252 . S
O136 Mg126 2.251 . S
O136 Mg129 2.079 . S
O136 C138 1.273 . S
C137 O133 1.246 . S
C137 O134 1.259 . S
C138 O135 1.252 . S
C138 O136 1.273 . S
O139 Mg126 2.010 . S
O139 C131 1.249 . S
Mg140 O141 2.028 . S
Mg140 O147 1.986 . S
Mg140 O149 2.114 . S
Mg140 O150 2.251 . S
Mg140 O153 2.010 . S
O141 Mg140 2.028 . S
O141 C144 1.250 . S
O142 Mg143 2.028 . S
O142 C144 1.248 . S
Mg143 O142 2.028 . S
Mg143 O148 2.032 . S
Mg143 O150 2.079 . S
C144 O141 1.250 . S
C144 O142 1.248 . S
C145 O146 1.264 . S
C145 O153 1.249 . S
O146 C145 1.264 . S
O147 Mg140 1.986 . S
O147 C151 1.246 . S
O148 Mg143 2.032 . S
O148 C151 1.259 . S
O149 Mg140 2.114 . S
O149 C152 1.252 . S
O150 Mg140 2.251 . S
O150 Mg143 2.079 . S
O150 C152 1.273 . S
C151 O147 1.246 . S
C151 O148 1.259 . S
C152 O149 1.252 . S
C152 O150 1.273 . S
O153 Mg140 2.010 . S
O153 C145 1.249 . S
Mg154 O155 2.028 . S
Mg154 O161 1.986 . S
Mg154 O163 2.114 . S
Mg154 O164 2.251 . S
Mg154 O167 2.010 . S
O155 Mg154 2.028 . S
O155 C158 1.250 . S
O156 Mg157 2.028 . S
O156 C158 1.248 . S
Mg157 O156 2.028 . S
Mg157 O162 2.032 . S
Mg157 O164 2.079 . S
C158 O155 1.250 . S
C158 O156 1.248 . S
C159 O160 1.264 . S
C159 O167 1.249 . S
O160 C159 1.264 . S
O161 Mg154 1.986 . S
O161 C165 1.246 . S
O162 Mg157 2.032 . S
O162 C165 1.259 . S
O163 Mg154 2.114 . S
O163 C166 1.252 . S
O164 Mg154 2.251 . S
O164 Mg157 2.079 . S
O164 C166 1.273 . S
C165 O161 1.246 . S
C165 O162 1.259 . S
C166 O163 1.252 . S
C166 O164 1.273 . S
O167 Mg154 2.010 . S
O167 C159 1.249 . S
Mg168 O169 2.028 . S
Mg168 O175 1.986 . S
Mg168 O177 2.114 . S
Mg168 O178 2.251 . S
Mg168 O181 2.010 . S
O169 Mg168 2.028 . S
O169 C172 1.250 . S
O170 Mg171 2.028 . S
O170 C172 1.248 . S
Mg171 O170 2.028 . S
Mg171 O176 2.032 . S
Mg171 O178 2.079 . S
C172 O169 1.250 . S
C172 O170 1.248 . S
C173 O174 1.264 . S
C173 O181 1.249 . S
O174 C173 1.264 . S
O175 Mg168 1.986 . S
O175 C179 1.246 . S
O176 Mg171 2.032 . S
O176 C179 1.259 . S
O177 Mg168 2.114 . S
O177 C180 1.252 . S
O178 Mg168 2.251 . S
O178 Mg171 2.079 . S
O178 C180 1.273 . S
C179 O175 1.246 . S
C179 O176 1.259 . S
C180 O177 1.252 . S
C180 O178 1.273 . S
O181 Mg168 2.010 . S
O181 C173 1.249 . S
Mg182 O183 2.028 . S
Mg182 O189 1.986 . S
Mg182 O191 2.114 . S
Mg182 O192 2.251 . S
Mg182 O195 2.010 . S
O183 Mg182 2.028 . S
O183 C186 1.250 . S
O184 Mg185 2.028 . S
O184 C186 1.248 . S
Mg185 O184 2.028 . S
Mg185 O190 2.032 . S
Mg185 O192 2.079 . S
C186 O183 1.250 . S
C186 O184 1.248 . S
C187 O188 1.264 . S
C187 O195 1.249 . S
O188 C187 1.264 . S
O189 Mg182 1.986 . S
O189 C193 1.246 . S
O190 Mg185 2.032 . S
O190 C193 1.259 . S
O191 Mg182 2.114 . S
O191 C194 1.252 . S
O192 Mg182 2.251 . S
O192 Mg185 2.079 . S
O192 C194 1.273 . S
C193 O189 1.246 . S
C193 O190 1.259 . S
C194 O191 1.252 . S
C194 O192 1.273 . S
O195 Mg182 2.010 . S
O195 C187 1.249 . S
Mg196 O197 2.028 . S
Mg196 O203 1.986 . S
Mg196 O205 2.114 . S
Mg196 O206 2.251 . S
Mg196 O209 2.010 . S
O197 Mg196 2.028 . S
O197 C200 1.250 . S
O198 Mg199 2.028 . S
O198 C200 1.248 . S
Mg199 O198 2.028 . S
Mg199 O204 2.032 . S
Mg199 O206 2.079 . S
C200 O197 1.250 . S
C200 O198 1.248 . S
C201 O202 1.264 . S
C201 O209 1.249 . S
O202 C201 1.264 . S
O203 Mg196 1.986 . S
O203 C207 1.246 . S
O204 Mg199 2.032 . S
O204 C207 1.259 . S
O205 Mg196 2.114 . S
O205 C208 1.252 . S
O206 Mg196 2.251 . S
O206 Mg199 2.079 . S
O206 C208 1.273 . S
C207 O203 1.246 . S
C207 O204 1.259 . S
C208 O205 1.252 . S
C208 O206 1.273 . S
O209 Mg196 2.010 . S
O209 C201 1.249 . S
Mg210 O211 2.028 . S
Mg210 O217 1.986 . S
Mg210 O219 2.114 . S
Mg210 O220 2.251 . S
Mg210 O223 2.010 . S
O211 Mg210 2.028 . S
O211 C214 1.250 . S
O212 Mg213 2.028 . S
O212 C214 1.248 . S
Mg213 O212 2.028 . S
Mg213 O218 2.032 . S
Mg213 O220 2.079 . S
C214 O211 1.250 . S
C214 O212 1.248 . S
C215 O216 1.264 . S
C215 O223 1.249 . S
O216 C215 1.264 . S
O217 Mg210 1.986 . S
O217 C221 1.246 . S
O218 Mg213 2.032 . S
O218 C221 1.259 . S
O219 Mg210 2.114 . S
O219 C222 1.252 . S
O220 Mg210 2.251 . S
O220 Mg213 2.079 . S
O220 C222 1.273 . S
C221 O217 1.246 . S
C221 O218 1.259 . S
C222 O219 1.252 . S
C222 O220 1.273 . S
O223 Mg210 2.010 . S
O223 C215 1.249 . S
Mg224 O225 2.028 . S
Mg224 O231 1.986 . S
Mg224 O233 2.114 . S
Mg224 O234 2.251 . S
Mg224 O237 2.010 . S
O225 Mg224 2.028 . S
O225 C228 1.250 . S
O226 Mg227 2.028 . S
O226 C228 1.248 . S
Mg227 O226 2.028 . S
Mg227 O232 2.032 . S
Mg227 O234 2.079 . S
C228 O225 1.250 . S
C228 O226 1.248 . S
C229 O230 1.264 . S
C229 O237 1.249 . S
O230 C229 1.264 . S
O231 Mg224 1.986 . S
O231 C235 1.246 . S
O232 Mg227 2.032 . S
O232 C235 1.259 . S
O233 Mg224 2.114 . S
O233 C236 1.252 . S
O234 Mg224 2.251 . S
O234 Mg227 2.079 . S
O234 C236 1.273 . S
C235 O231 1.246 . S
C235 O232 1.259 . S
C236 O233 1.252 . S
C236 O234 1.273 . S
O237 Mg224 2.010 . S
O237 C229 1.249 . S
Mg238 O239 2.028 . S
Mg238 O245 1.986 . S
Mg238 O247 2.114 . S
Mg238 O248 2.251 . S
Mg238 O251 2.010 . S
O239 Mg238 2.028 . S
O239 C242 1.250 . S
O240 Mg241 2.028 . S
O240 C242 1.248 . S
Mg241 O240 2.028 . S
Mg241 O246 2.032 . S
Mg241 O248 2.079 . S
C242 O239 1.250 . S
C242 O240 1.248 . S
C243 O244 1.264 . S
C243 O251 1.249 . S
O244 C243 1.264 . S
O245 Mg238 1.986 . S
O245 C249 1.246 . S
O246 Mg241 2.032 . S
O246 C249 1.259 . S
O247 Mg238 2.114 . S
O247 C250 1.252 . S
O248 Mg238 2.251 . S
O248 Mg241 2.079 . S
O248 C250 1.273 . S
C249 O245 1.246 . S
C249 O246 1.259 . S
C250 O247 1.252 . S
C250 O248 1.273 . S
O251 Mg238 2.010 . S
O251 C243 1.249 . S
Mg252 O253 2.028 . S
Mg252 O259 1.986 . S
Mg252 O261 2.114 . S
Mg252 O262 2.251 . S
Mg252 O265 2.010 . S
O253 Mg252 2.028 . S
O253 C256 1.250 . S
O254 Mg255 2.028 . S
O254 C256 1.248 . S
Mg255 O254 2.028 . S
Mg255 O260 2.032 . S
Mg255 O262 2.079 . S
C256 O253 1.250 . S
C256 O254 1.248 . S
C257 O258 1.264 . S
C257 O265 1.249 . S
O258 C257 1.264 . S
O259 Mg252 1.986 . S
O259 C263 1.246 . S
O260 Mg255 2.032 . S
O260 C263 1.259 . S
O261 Mg252 2.114 . S
O261 C264 1.252 . S
O262 Mg252 2.251 . S
O262 Mg255 2.079 . S
O262 C264 1.273 . S
C263 O259 1.246 . S
C263 O260 1.259 . S
C264 O261 1.252 . S
C264 O262 1.273 . S
O265 Mg252 2.010 . S
O265 C257 1.249 . S
Mg266 O267 2.028 . S
Mg266 O273 1.986 . S
Mg266 O275 2.114 . S
Mg266 O276 2.251 . S
Mg266 O279 2.010 . S
O267 Mg266 2.028 . S
O267 C270 1.250 . S
O268 Mg269 2.028 . S
O268 C270 1.248 . S
Mg269 O268 2.028 . S
Mg269 O274 2.032 . S
Mg269 O276 2.079 . S
C270 O267 1.250 . S
C270 O268 1.248 . S
C271 O272 1.264 . S
C271 O279 1.249 . S
O272 C271 1.264 . S
O273 Mg266 1.986 . S
O273 C277 1.246 . S
O274 Mg269 2.032 . S
O274 C277 1.259 . S
O275 Mg266 2.114 . S
O275 C278 1.252 . S
O276 Mg266 2.251 . S
O276 Mg269 2.079 . S
O276 C278 1.273 . S
C277 O273 1.246 . S
C277 O274 1.259 . S
C278 O275 1.252 . S
C278 O276 1.273 . S
O279 Mg266 2.010 . S
O279 C271 1.249 . S
Mg280 O281 2.028 . S
Mg280 O287 1.986 . S
Mg280 O289 2.114 . S
Mg280 O290 2.251 . S
Mg280 O293 2.010 . S
O281 Mg280 2.028 . S
O281 C284 1.250 . S
O282 Mg283 2.028 . S
O282 C284 1.248 . S
Mg283 O282 2.028 . S
Mg283 O288 2.032 . S
Mg283 O290 2.079 . S
C284 O281 1.250 . S
C284 O282 1.248 . S
C285 O286 1.264 . S
C285 O293 1.249 . S
O286 C285 1.264 . S
O287 Mg280 1.986 . S
O287 C291 1.246 . S
O288 Mg283 2.032 . S
O288 C291 1.259 . S
O289 Mg280 2.114 . S
O289 C292 1.252 . S
O290 Mg280 2.251 . S
O290 Mg283 2.079 . S
O290 C292 1.273 . S
C291 O287 1.246 . S
C291 O288 1.259 . S
C292 O289 1.252 . S
C292 O290 1.273 . S
O293 Mg280 2.010 . S
O293 C285 1.249 . S
Mg294 O295 2.028 . S
Mg294 O301 1.986 . S
Mg294 O303 2.114 . S
Mg294 O304 2.251 . S
Mg294 O307 2.010 . S
O295 Mg294 2.028 . S
O295 C298 1.250 . S
O296 Mg297 2.028 . S
O296 C298 1.248 . S
Mg297 O296 2.028 . S
Mg297 O302 2.032 . S
Mg297 O304 2.079 . S
C298 O295 1.250 . S
C298 O296 1.248 . S
C299 O300 1.264 . S
C299 O307 1.249 . S
O300 C299 1.264 . S
O301 Mg294 1.986 . S
O301 C305 1.246 . S
O302 Mg297 2.032 . S
O302 C305 1.259 . S
O303 Mg294 2.114 . S
O303 C306 1.252 . S
O304 Mg294 2.251 . S
O304 Mg297 2.079 . S
O304 C306 1.273 . S
C305 O301 1.246 . S
C305 O302 1.259 . S
C306 O303 1.252 . S
C306 O304 1.273 . S
O307 Mg294 2.010 . S
O307 C299 1.249 . S
Mg308 O309 2.028 . S
Mg308 O315 1.986 . S
Mg308 O317 2.114 . S
Mg308 O318 2.251 . S
Mg308 O321 2.010 . S
O309 Mg308 2.028 . S
O309 C312 1.250 . S
O310 Mg311 2.028 . S
O310 C312 1.248 . S
Mg311 O310 2.028 . S
Mg311 O316 2.032 . S
Mg311 O318 2.079 . S
C312 O309 1.250 . S
C312 O310 1.248 . S
C313 O314 1.264 . S
C313 O321 1.249 . S
O314 C313 1.264 . S
O315 Mg308 1.986 . S
O315 C319 1.246 . S
O316 Mg311 2.032 . S
O316 C319 1.259 . S
O317 Mg308 2.114 . S
O317 C320 1.252 . S
O318 Mg308 2.251 . S
O318 Mg311 2.079 . S
O318 C320 1.273 . S
C319 O315 1.246 . S
C319 O316 1.259 . S
C320 O317 1.252 . S
C320 O318 1.273 . S
O321 Mg308 2.010 . S
O321 C313 1.249 . S
Mg322 O323 2.028 . S
Mg322 O329 1.986 . S
Mg322 O331 2.114 . S
Mg322 O332 2.251 . S
Mg322 O335 2.010 . S
O323 Mg322 2.028 . S
O323 C326 1.250 . S
O324 Mg325 2.028 . S
O324 C326 1.248 . S
Mg325 O324 2.028 . S
Mg325 O330 2.032 . S
Mg325 O332 2.079 . S
C326 O323 1.250 . S
C326 O324 1.248 . S
C327 O328 1.264 . S
C327 O335 1.249 . S
O328 C327 1.264 . S
O329 Mg322 1.986 . S
O329 C333 1.246 . S
O330 Mg325 2.032 . S
O330 C333 1.259 . S
O331 Mg322 2.114 . S
O331 C334 1.252 . S
O332 Mg322 2.251 . S
O332 Mg325 2.079 . S
O332 C334 1.273 . S
C333 O329 1.246 . S
C333 O330 1.259 . S
C334 O331 1.252 . S
C334 O332 1.273 . S
O335 Mg322 2.010 . S
O335 C327 1.249 . S
Mg336 O337 2.028 . S
Mg336 O343 1.986 . S
Mg336 O345 2.114 . S
Mg336 O346 2.251 . S
Mg336 O349 2.010 . S
O337 Mg336 2.028 . S
O337 C340 1.250 . S
O338 Mg339 2.028 . S
O338 C340 1.248 . S
Mg339 O338 2.028 . S
Mg339 O344 2.032 . S
Mg339 O346 2.079 . S
C340 O337 1.250 . S
C340 O338 1.248 . S
C341 O342 1.264 . S
C341 O349 1.249 . S
O342 C341 1.264 . S
O343 Mg336 1.986 . S
O343 C347 1.246 . S
O344 Mg339 2.032 . S
O344 C347 1.259 . S
O345 Mg336 2.114 . S
O345 C348 1.252 . S
O346 Mg336 2.251 . S
O346 Mg339 2.079 . S
O346 C348 1.273 . S
C347 O343 1.246 . S
C347 O344 1.259 . S
C348 O345 1.252 . S
C348 O346 1.273 . S
O349 Mg336 2.010 . S
O349 C341 1.249 . S
Mg350 O351 2.028 . S
Mg350 O357 1.986 . S
Mg350 O359 2.114 . S
Mg350 O360 2.251 . S
Mg350 O363 2.010 . S
O351 Mg350 2.028 . S
O351 C354 1.250 . S
O352 Mg353 2.028 . S
O352 C354 1.248 . S
Mg353 O352 2.028 . S
Mg353 O358 2.032 . S
Mg353 O360 2.079 . S
C354 O351 1.250 . S
C354 O352 1.248 . S
C355 O356 1.264 . S
C355 O363 1.249 . S
O356 C355 1.264 . S
O357 Mg350 1.986 . S
O357 C361 1.246 . S
O358 Mg353 2.032 . S
O358 C361 1.259 . S
O359 Mg350 2.114 . S
O359 C362 1.252 . S
O360 Mg350 2.251 . S
O360 Mg353 2.079 . S
O360 C362 1.273 . S
C361 O357 1.246 . S
C361 O358 1.259 . S
C362 O359 1.252 . S
C362 O360 1.273 . S
O363 Mg350 2.010 . S
O363 C355 1.249 . S
Mg364 O365 2.028 . S
Mg364 O371 1.986 . S
Mg364 O373 2.114 . S
Mg364 O374 2.251 . S
Mg364 O377 2.010 . S
O365 Mg364 2.028 . S
O365 C368 1.250 . S
O366 Mg367 2.028 . S
O366 C368 1.248 . S
Mg367 O366 2.028 . S
Mg367 O372 2.032 . S
Mg367 O374 2.079 . S
C368 O365 1.250 . S
C368 O366 1.248 . S
C369 O370 1.264 . S
C369 O377 1.249 . S
O370 C369 1.264 . S
O371 Mg364 1.986 . S
O371 C375 1.246 . S
O372 Mg367 2.032 . S
O372 C375 1.259 . S
O373 Mg364 2.114 . S
O373 C376 1.252 . S
O374 Mg364 2.251 . S
O374 Mg367 2.079 . S
O374 C376 1.273 . S
C375 O371 1.246 . S
C375 O372 1.259 . S
C376 O373 1.252 . S
C376 O374 1.273 . S
O377 Mg364 2.010 . S
O377 C369 1.249 . S
Mg378 O379 2.028 . S
Mg378 O385 1.986 . S
Mg378 O387 2.114 . S
Mg378 O388 2.251 . S
Mg378 O391 2.010 . S
O379 Mg378 2.028 . S
O379 C382 1.250 . S
O380 Mg381 2.028 . S
O380 C382 1.248 . S
Mg381 O380 2.028 . S
Mg381 O386 2.032 . S
Mg381 O388 2.079 . S
C382 O379 1.250 . S
C382 O380 1.248 . S
C383 O384 1.264 . S
C383 O391 1.249 . S
O384 C383 1.264 . S
O385 Mg378 1.986 . S
O385 C389 1.246 . S
O386 Mg381 2.032 . S
O386 C389 1.259 . S
O387 Mg378 2.114 . S
O387 C390 1.252 . S
O388 Mg378 2.251 . S
O388 Mg381 2.079 . S
O388 C390 1.273 . S
C389 O385 1.246 . S
C389 O386 1.259 . S
C390 O387 1.252 . S
C390 O388 1.273 . S
O391 Mg378 2.010 . S
O391 C383 1.249 . S
Mg392 O393 2.028 . S
Mg392 O399 1.986 . S
Mg392 O401 2.114 . S
Mg392 O402 2.251 . S
Mg392 O405 2.010 . S
O393 Mg392 2.028 . S
O393 C396 1.250 . S
O394 Mg395 2.028 . S
O394 C396 1.248 . S
Mg395 O394 2.028 . S
Mg395 O400 2.032 . S
Mg395 O402 2.079 . S
C396 O393 1.250 . S
C396 O394 1.248 . S
C397 O398 1.264 . S
C397 O405 1.249 . S
O398 C397 1.264 . S
O399 Mg392 1.986 . S
O399 C403 1.246 . S
O400 Mg395 2.032 . S
O400 C403 1.259 . S
O401 Mg392 2.114 . S
O401 C404 1.252 . S
O402 Mg392 2.251 . S
O402 Mg395 2.079 . S
O402 C404 1.273 . S
C403 O399 1.246 . S
C403 O400 1.259 . S
C404 O401 1.252 . S
C404 O402 1.273 . S
O405 Mg392 2.010 . S
O405 C397 1.249 . S
Mg406 O407 2.028 . S
Mg406 O413 1.986 . S
Mg406 O415 2.114 . S
Mg406 O416 2.251 . S
Mg406 O419 2.010 . S
O407 Mg406 2.028 . S
O407 C410 1.250 . S
O408 Mg409 2.028 . S
O408 C410 1.248 . S
Mg409 O408 2.028 . S
Mg409 O414 2.032 . S
Mg409 O416 2.079 . S
C410 O407 1.250 . S
C410 O408 1.248 . S
C411 O412 1.264 . S
C411 O419 1.249 . S
O412 C411 1.264 . S
O413 Mg406 1.986 . S
O413 C417 1.246 . S
O414 Mg409 2.032 . S
O414 C417 1.259 . S
O415 Mg406 2.114 . S
O415 C418 1.252 . S
O416 Mg406 2.251 . S
O416 Mg409 2.079 . S
O416 C418 1.273 . S
C417 O413 1.246 . S
C417 O414 1.259 . S
C418 O415 1.252 . S
C418 O416 1.273 . S
O419 Mg406 2.010 . S
O419 C411 1.249 . S
Mg420 O421 2.028 . S
Mg420 O427 1.986 . S
Mg420 O429 2.114 . S
Mg420 O430 2.251 . S
Mg420 O433 2.010 . S
O421 Mg420 2.028 . S
O421 C424 1.250 . S
O422 Mg423 2.028 . S
O422 C424 1.248 . S
Mg423 O422 2.028 . S
Mg423 O428 2.032 . S
Mg423 O430 2.079 . S
C424 O421 1.250 . S
C424 O422 1.248 . S
C425 O426 1.264 . S
C425 O433 1.249 . S
O426 C425 1.264 . S
O427 Mg420 1.986 . S
O427 C431 1.246 . S
O428 Mg423 2.032 . S
O428 C431 1.259 . S
O429 Mg420 2.114 . S
O429 C432 1.252 . S
O430 Mg420 2.251 . S
O430 Mg423 2.079 . S
O430 C432 1.273 . S
C431 O427 1.246 . S
C431 O428 1.259 . S
C432 O429 1.252 . S
C432 O430 1.273 . S
O433 Mg420 2.010 . S
O433 C425 1.249 . S
Mg434 O435 2.028 . S
Mg434 O441 1.986 . S
Mg434 O443 2.114 . S
Mg434 O444 2.251 . S
Mg434 O447 2.010 . S
O435 Mg434 2.028 . S
O435 C438 1.250 . S
O436 Mg437 2.028 . S
O436 C438 1.248 . S
Mg437 O436 2.028 . S
Mg437 O442 2.032 . S
Mg437 O444 2.079 . S
C438 O435 1.250 . S
C438 O436 1.248 . S
C439 O440 1.264 . S
C439 O447 1.249 . S
O440 C439 1.264 . S
O441 Mg434 1.986 . S
O441 C445 1.246 . S
O442 Mg437 2.032 . S
O442 C445 1.259 . S
O443 Mg434 2.114 . S
O443 C446 1.252 . S
O444 Mg434 2.251 . S
O444 Mg437 2.079 . S
O444 C446 1.273 . S
C445 O441 1.246 . S
C445 O442 1.259 . S
C446 O443 1.252 . S
C446 O444 1.273 . S
O447 Mg434 2.010 . S
O447 C439 1.249 . S
Mg448 O449 2.028 . S
Mg448 O455 1.986 . S
Mg448 O457 2.114 . S
Mg448 O458 2.251 . S
Mg448 O461 2.010 . S
O449 Mg448 2.028 . S
O449 C452 1.250 . S
O450 Mg451 2.028 . S
O450 C452 1.248 . S
Mg451 O450 2.028 . S
Mg451 O456 2.032 . S
Mg451 O458 2.079 . S
C452 O449 1.250 . S
C452 O450 1.248 . S
C453 O454 1.264 . S
C453 O461 1.249 . S
O454 C453 1.264 . S
O455 Mg448 1.986 . S
O455 C459 1.246 . S
O456 Mg451 2.032 . S
O456 C459 1.259 . S
O457 Mg448 2.114 . S
O457 C460 1.252 . S
O458 Mg448 2.251 . S
O458 Mg451 2.079 . S
O458 C460 1.273 . S
C459 O455 1.246 . S
C459 O456 1.259 . S
C460 O457 1.252 . S
C460 O458 1.273 . S
O461 Mg448 2.010 . S
O461 C453 1.249 . S
Mg462 O463 2.028 . S
Mg462 O469 1.986 . S
Mg462 O471 2.114 . S
Mg462 O472 2.251 . S
Mg462 O475 2.010 . S
O463 Mg462 2.028 . S
O463 C466 1.250 . S
O464 Mg465 2.028 . S
O464 C466 1.248 . S
Mg465 O464 2.028 . S
Mg465 O470 2.032 . S
Mg465 O472 2.079 . S
C466 O463 1.250 . S
C466 O464 1.248 . S
C467 O468 1.264 . S
C467 O475 1.249 . S
O468 C467 1.264 . S
O469 Mg462 1.986 . S
O469 C473 1.246 . S
O470 Mg465 2.032 . S
O470 C473 1.259 . S
O471 Mg462 2.114 . S
O471 C474 1.252 . S
O472 Mg462 2.251 . S
O472 Mg465 2.079 . S
O472 C474 1.273 . S
C473 O469 1.246 . S
C473 O470 1.259 . S
C474 O471 1.252 . S
C474 O472 1.273 . S
O475 Mg462 2.010 . S
O475 C467 1.249 . S
Mg476 O477 2.028 . S
Mg476 O483 1.986 . S
Mg476 O485 2.114 . S
Mg476 O486 2.251 . S
Mg476 O489 2.010 . S
O477 Mg476 2.028 . S
O477 C480 1.250 . S
O478 Mg479 2.028 . S
O478 C480 1.248 . S
Mg479 O478 2.028 . S
Mg479 O484 2.032 . S
Mg479 O486 2.079 . S
C480 O477 1.250 . S
C480 O478 1.248 . S
C481 O482 1.264 . S
C481 O489 1.249 . S
O482 C481 1.264 . S
O483 Mg476 1.986 . S
O483 C487 1.246 . S
O484 Mg479 2.032 . S
O484 C487 1.259 . S
O485 Mg476 2.114 . S
O485 C488 1.252 . S
O486 Mg476 2.251 . S
O486 Mg479 2.079 . S
O486 C488 1.273 . S
C487 O483 1.246 . S
C487 O484 1.259 . S
C488 O485 1.252 . S
C488 O486 1.273 . S
O489 Mg476 2.010 . S
O489 C481 1.249 . S
Mg490 O491 2.028 . S
Mg490 O497 1.986 . S
Mg490 O499 2.114 . S
Mg490 O500 2.251 . S
Mg490 O503 2.010 . S
O491 Mg490 2.028 . S
O491 C494 1.250 . S
O492 Mg493 2.028 . S
O492 C494 1.248 . S
Mg493 O492 2.028 . S
Mg493 O498 2.032 . S
Mg493 O500 2.079 . S
C494 O491 1.250 . S
C494 O492 1.248 . S
C495 O496 1.264 . S
C495 O503 1.249 . S
O496 C495 1.264 . S
O497 Mg490 1.986 . S
O497 C501 1.246 . S
O498 Mg493 2.032 . S
O498 C501 1.259 . S
O499 Mg490 2.114 . S
O499 C502 1.252 . S
O500 Mg490 2.251 . S
O500 Mg493 2.079 . S
O500 C502 1.273 . S
C501 O497 1.246 . S
C501 O498 1.259 . S
C502 O499 1.252 . S
C502 O500 1.273 . S
O503 Mg490 2.010 . S
O503 C495 1.249 . S
Mg504 O505 2.028 . S
Mg504 O511 1.986 . S
Mg504 O513 2.114 . S
Mg504 O514 2.251 . S
Mg504 O517 2.010 . S
O505 Mg504 2.028 . S
O505 C508 1.250 . S
O506 Mg507 2.028 . S
O506 C508 1.248 . S
Mg507 O506 2.028 . S
Mg507 O512 2.032 . S
Mg507 O514 2.079 . S
C508 O505 1.250 . S
C508 O506 1.248 . S
C509 O510 1.264 . S
C509 O517 1.249 . S
O510 C509 1.264 . S
O511 Mg504 1.986 . S
O511 C515 1.246 . S
O512 Mg507 2.032 . S
O512 C515 1.259 . S
O513 Mg504 2.114 . S
O513 C516 1.252 . S
O514 Mg504 2.251 . S
O514 Mg507 2.079 . S
O514 C516 1.273 . S
C515 O511 1.246 . S
C515 O512 1.259 . S
C516 O513 1.252 . S
C516 O514 1.273 . S
O517 Mg504 2.010 . S
O517 C509 1.249 . S
Mg518 O519 2.028 . S
Mg518 O525 1.986 . S
Mg518 O527 2.114 . S
Mg518 O528 2.251 . S
Mg518 O531 2.010 . S
O519 Mg518 2.028 . S
O519 C522 1.250 . S
O520 Mg521 2.028 . S
O520 C522 1.248 . S
Mg521 O520 2.028 . S
Mg521 O526 2.032 . S
Mg521 O528 2.079 . S
C522 O519 1.250 . S
C522 O520 1.248 . S
C523 O524 1.264 . S
C523 O531 1.249 . S
O524 C523 1.264 . S
O525 Mg518 1.986 . S
O525 C529 1.246 . S
O526 Mg521 2.032 . S
O526 C529 1.259 . S
O527 Mg518 2.114 . S
O527 C530 1.252 . S
O528 Mg518 2.251 . S
O528 Mg521 2.079 . S
O528 C530 1.273 . S
C529 O525 1.246 . S
C529 O526 1.259 . S
C530 O527 1.252 . S
C530 O528 1.273 . S
O531 Mg518 2.010 . S
O531 C523 1.249 . S
Mg532 O533 2.028 . S
Mg532 O539 1.986 . S
Mg532 O541 2.114 . S
Mg532 O542 2.251 . S
Mg532 O545 2.010 . S
O533 Mg532 2.028 . S
O533 C536 1.250 . S
O534 Mg535 2.028 . S
O534 C536 1.248 . S
Mg535 O534 2.028 . S
Mg535 O540 2.032 . S
Mg535 O542 2.079 . S
C536 O533 1.250 . S
C536 O534 1.248 . S
C537 O538 1.264 . S
C537 O545 1.249 . S
O538 C537 1.264 . S
O539 Mg532 1.986 . S
O539 C543 1.246 . S
O540 Mg535 2.032 . S
O540 C543 1.259 . S
O541 Mg532 2.114 . S
O541 C544 1.252 . S
O542 Mg532 2.251 . S
O542 Mg535 2.079 . S
O542 C544 1.273 . S
C543 O539 1.246 . S
C543 O540 1.259 . S
C544 O541 1.252 . S
C544 O542 1.273 . S
O545 Mg532 2.010 . S
O545 C537 1.249 . S
Mg546 O547 2.028 . S
Mg546 O553 1.986 . S
Mg546 O555 2.114 . S
Mg546 O556 2.251 . S
Mg546 O559 2.010 . S
O547 Mg546 2.028 . S
O547 C550 1.250 . S
O548 Mg549 2.028 . S
O548 C550 1.248 . S
Mg549 O548 2.028 . S
Mg549 O554 2.032 . S
Mg549 O556 2.079 . S
C550 O547 1.250 . S
C550 O548 1.248 . S
C551 O552 1.264 . S
C551 O559 1.249 . S
O552 C551 1.264 . S
O553 Mg546 1.986 . S
O553 C557 1.246 . S
O554 Mg549 2.032 . S
O554 C557 1.259 . S
O555 Mg546 2.114 . S
O555 C558 1.252 . S
O556 Mg546 2.251 . S
O556 Mg549 2.079 . S
O556 C558 1.273 . S
C557 O553 1.246 . S
C557 O554 1.259 . S
C558 O555 1.252 . S
C558 O556 1.273 . S
O559 Mg546 2.010 . S
O559 C551 1.249 . S
Mg560 O561 2.028 . S
Mg560 O567 1.986 . S
Mg560 O569 2.114 . S
Mg560 O570 2.251 . S
Mg560 O573 2.010 . S
O561 Mg560 2.028 . S
O561 C564 1.250 . S
O562 Mg563 2.028 . S
O562 C564 1.248 . S
Mg563 O562 2.028 . S
Mg563 O568 2.032 . S
Mg563 O570 2.079 . S
C564 O561 1.250 . S
C564 O562 1.248 . S
C565 O566 1.264 . S
C565 O573 1.249 . S
O566 C565 1.264 . S
O567 Mg560 1.986 . S
O567 C571 1.246 . S
O568 Mg563 2.032 . S
O568 C571 1.259 . S
O569 Mg560 2.114 . S
O569 C572 1.252 . S
O570 Mg560 2.251 . S
O570 Mg563 2.079 . S
O570 C572 1.273 . S
C571 O567 1.246 . S
C571 O568 1.259 . S
C572 O569 1.252 . S
C572 O570 1.273 . S
O573 Mg560 2.010 . S
O573 C565 1.249 . S
Mg574 O575 2.028 . S
Mg574 O581 1.986 . S
Mg574 O583 2.114 . S
Mg574 O584 2.251 . S
Mg574 O587 2.010 . S
O575 Mg574 2.028 . S
O575 C578 1.250 . S
O576 Mg577 2.028 . S
O576 C578 1.248 . S
Mg577 O576 2.028 . S
Mg577 O582 2.032 . S
Mg577 O584 2.079 . S
C578 O575 1.250 . S
C578 O576 1.248 . S
C579 O580 1.264 . S
C579 O587 1.249 . S
O580 C579 1.264 . S
O581 Mg574 1.986 . S
O581 C585 1.246 . S
O582 Mg577 2.032 . S
O582 C585 1.259 . S
O583 Mg574 2.114 . S
O583 C586 1.252 . S
O584 Mg574 2.251 . S
O584 Mg577 2.079 . S
O584 C586 1.273 . S
C585 O581 1.246 . S
C585 O582 1.259 . S
C586 O583 1.252 . S
C586 O584 1.273 . S
O587 Mg574 2.010 . S
O587 C579 1.249 . S
Mg588 O589 2.028 . S
Mg588 O595 1.986 . S
Mg588 O597 2.114 . S
Mg588 O598 2.251 . S
Mg588 O601 2.010 . S
O589 Mg588 2.028 . S
O589 C592 1.250 . S
O590 Mg591 2.028 . S
O590 C592 1.248 . S
Mg591 O590 2.028 . S
Mg591 O596 2.032 . S
Mg591 O598 2.079 . S
C592 O589 1.250 . S
C592 O590 1.248 . S
C593 O594 1.264 . S
C593 O601 1.249 . S
O594 C593 1.264 . S
O595 Mg588 1.986 . S
O595 C599 1.246 . S
O596 Mg591 2.032 . S
O596 C599 1.259 . S
O597 Mg588 2.114 . S
O597 C600 1.252 . S
O598 Mg588 2.251 . S
O598 Mg591 2.079 . S
O598 C600 1.273 . S
C599 O595 1.246 . S
C599 O596 1.259 . S
C600 O597 1.252 . S
C600 O598 1.273 . S
O601 Mg588 2.010 . S
O601 C593 1.249 . S
Mg602 O603 2.028 . S
Mg602 O609 1.986 . S
Mg602 O611 2.114 . S
Mg602 O612 2.251 . S
Mg602 O615 2.010 . S
O603 Mg602 2.028 . S
O603 C606 1.250 . S
O604 Mg605 2.028 . S
O604 C606 1.248 . S
Mg605 O604 2.028 . S
Mg605 O610 2.032 . S
Mg605 O612 2.079 . S
C606 O603 1.250 . S
C606 O604 1.248 . S
C607 O608 1.264 . S
C607 O615 1.249 . S
O608 C607 1.264 . S
O609 Mg602 1.986 . S
O609 C613 1.246 . S
O610 Mg605 2.032 . S
O610 C613 1.259 . S
O611 Mg602 2.114 . S
O611 C614 1.252 . S
O612 Mg602 2.251 . S
O612 Mg605 2.079 . S
O612 C614 1.273 . S
C613 O609 1.246 . S
C613 O610 1.259 . S
C614 O611 1.252 . S
C614 O612 1.273 . S
O615 Mg602 2.010 . S
O615 C607 1.249 . S
Mg616 O617 2.028 . S
Mg616 O623 1.986 . S
Mg616 O625 2.114 . S
Mg616 O626 2.251 . S
Mg616 O629 2.010 . S
O617 Mg616 2.028 . S
O617 C620 1.250 . S
O618 Mg619 2.028 . S
O618 C620 1.248 . S
Mg619 O618 2.028 . S
Mg619 O624 2.032 . S
Mg619 O626 2.079 . S
C620 O617 1.250 . S
C620 O618 1.248 . S
C621 O622 1.264 . S
C621 O629 1.249 . S
O622 C621 1.264 . S
O623 Mg616 1.986 . S
O623 C627 1.246 . S
O624 Mg619 2.032 . S
O624 C627 1.259 . S
O625 Mg616 2.114 . S
O625 C628 1.252 . S
O626 Mg616 2.251 . S
O626 Mg619 2.079 . S
O626 C628 1.273 . S
C627 O623 1.246 . S
C627 O624 1.259 . S
C628 O625 1.252 . S
C628 O626 1.273 . S
O629 Mg616 2.010 . S
O629 C621 1.249 . S
Mg630 O631 2.028 . S
Mg630 O637 1.986 . S
Mg630 O639 2.114 . S
Mg630 O640 2.251 . S
Mg630 O643 2.010 . S
O631 Mg630 2.028 . S
O631 C634 1.250 . S
O632 Mg633 2.028 . S
O632 C634 1.248 . S
Mg633 O632 2.028 . S
Mg633 O638 2.032 . S
Mg633 O640 2.079 . S
C634 O631 1.250 . S
C634 O632 1.248 . S
C635 O636 1.264 . S
C635 O643 1.249 . S
O636 C635 1.264 . S
O637 Mg630 1.986 . S
O637 C641 1.246 . S
O638 Mg633 2.032 . S
O638 C641 1.259 . S
O639 Mg630 2.114 . S
O639 C642 1.252 . S
O640 Mg630 2.251 . S
O640 Mg633 2.079 . S
O640 C642 1.273 . S
C641 O637 1.246 . S
C641 O638 1.259 . S
C642 O639 1.252 . S
C642 O640 1.273 . S
O643 Mg630 2.010 . S
O643 C635 1.249 . S
Mg644 O645 2.028 . S
Mg644 O651 1.986 . S
Mg644 O653 2.114 . S
Mg644 O654 2.251 . S
Mg644 O657 2.010 . S
O645 Mg644 2.028 . S
O645 C648 1.250 . S
O646 Mg647 2.028 . S
O646 C648 1.248 . S
Mg647 O646 2.028 . S
Mg647 O652 2.032 . S
Mg647 O654 2.079 . S
C648 O645 1.250 . S
C648 O646 1.248 . S
C649 O650 1.264 . S
C649 O657 1.249 . S
O650 C649 1.264 . S
O651 Mg644 1.986 . S
O651 C655 1.246 . S
O652 Mg647 2.032 . S
O652 C655 1.259 . S
O653 Mg644 2.114 . S
O653 C656 1.252 . S
O654 Mg644 2.251 . S
O654 Mg647 2.079 . S
O654 C656 1.273 . S
C655 O651 1.246 . S
C655 O652 1.259 . S
C656 O653 1.252 . S
C656 O654 1.273 . S
O657 Mg644 2.010 . S
O657 C649 1.249 . S
Mg658 O659 2.028 . S
Mg658 O665 1.986 . S
Mg658 O667 2.114 . S
Mg658 O668 2.251 . S
Mg658 O671 2.010 . S
O659 Mg658 2.028 . S
O659 C662 1.250 . S
O660 Mg661 2.028 . S
O660 C662 1.248 . S
Mg661 O660 2.028 . S
Mg661 O666 2.032 . S
Mg661 O668 2.079 . S
C662 O659 1.250 . S
C662 O660 1.248 . S
C663 O664 1.264 . S
C663 O671 1.249 . S
O664 C663 1.264 . S
O665 Mg658 1.986 . S
O665 C669 1.246 . S
O666 Mg661 2.032 . S
O666 C669 1.259 . S
O667 Mg658 2.114 . S
O667 C670 1.252 . S
O668 Mg658 2.251 . S
O668 Mg661 2.079 . S
O668 C670 1.273 . S
C669 O665 1.246 . S
C669 O666 1.259 . S
C670 O667 1.252 . S
C670 O668 1.273 . S
O671 Mg658 2.010 . S
O671 C663 1.249 . S
Mg672 O673 2.028 . S
Mg672 O679 1.986 . S
Mg672 O681 2.114 . S
Mg672 O682 2.251 . S
Mg672 O685 2.010 . S
O673 Mg672 2.028 . S
O673 C676 1.250 . S
O674 Mg675 2.028 . S
O674 C676 1.248 . S
Mg675 O674 2.028 . S
Mg675 O680 2.032 . S
Mg675 O682 2.079 . S
C676 O673 1.250 . S
C676 O674 1.248 . S
C677 O678 1.264 . S
C677 O685 1.249 . S
O678 C677 1.264 . S
O679 Mg672 1.986 . S
O679 C683 1.246 . S
O680 Mg675 2.032 . S
O680 C683 1.259 . S
O681 Mg672 2.114 . S
O681 C684 1.252 . S
O682 Mg672 2.251 . S
O682 Mg675 2.079 . S
O682 C684 1.273 . S
C683 O679 1.246 . S
C683 O680 1.259 . S
C684 O681 1.252 . S
C684 O682 1.273 . S
O685 Mg672 2.010 . S
O685 C677 1.249 . S
Mg686 O687 2.028 . S
Mg686 O693 1.986 . S
Mg686 O695 2.114 . S
Mg686 O696 2.251 . S
Mg686 O699 2.010 . S
O687 Mg686 2.028 . S
O687 C690 1.250 . S
O688 Mg689 2.028 . S
O688 C690 1.248 . S
Mg689 O688 2.028 . S
Mg689 O694 2.032 . S
Mg689 O696 2.079 . S
C690 O687 1.250 . S
C690 O688 1.248 . S
C691 O692 1.264 . S
C691 O699 1.249 . S
O692 C691 1.264 . S
O693 Mg686 1.986 . S
O693 C697 1.246 . S
O694 Mg689 2.032 . S
O694 C697 1.259 . S
O695 Mg686 2.114 . S
O695 C698 1.252 . S
O696 Mg686 2.251 . S
O696 Mg689 2.079 . S
O696 C698 1.273 . S
C697 O693 1.246 . S
C697 O694 1.259 . S
C698 O695 1.252 . S
C698 O696 1.273 . S
O699 Mg686 2.010 . S
O699 C691 1.249 . S
Mg700 O701 2.028 . S
Mg700 O707 1.986 . S
Mg700 O709 2.114 . S
Mg700 O710 2.251 . S
Mg700 O713 2.010 . S
O701 Mg700 2.028 . S
O701 C704 1.250 . S
O702 Mg703 2.028 . S
O702 C704 1.248 . S
Mg703 O702 2.028 . S
Mg703 O708 2.032 . S
Mg703 O710 2.079 . S
C704 O701 1.250 . S
C704 O702 1.248 . S
C705 O706 1.264 . S
C705 O713 1.249 . S
O706 C705 1.264 . S
O707 Mg700 1.986 . S
O707 C711 1.246 . S
O708 Mg703 2.032 . S
O708 C711 1.259 . S
O709 Mg700 2.114 . S
O709 C712 1.252 . S
O710 Mg700 2.251 . S
O710 Mg703 2.079 . S
O710 C712 1.273 . S
C711 O707 1.246 . S
C711 O708 1.259 . S
C712 O709 1.252 . S
C712 O710 1.273 . S
O713 Mg700 2.010 . S
O713 C705 1.249 . S
Mg714 O715 2.028 . S
Mg714 O721 1.986 . S
Mg714 O723 2.114 . S
Mg714 O724 2.251 . S
Mg714 O727 2.010 . S
O715 Mg714 2.028 . S
O715 C718 1.250 . S
O716 Mg717 2.028 . S
O716 C718 1.248 . S
Mg717 O716 2.028 . S
Mg717 O722 2.032 . S
Mg717 O724 2.079 . S
C718 O715 1.250 . S
C718 O716 1.248 . S
C719 O720 1.264 . S
C719 O727 1.249 . S
O720 C719 1.264 . S
O721 Mg714 1.986 . S
O721 C725 1.246 . S
O722 Mg717 2.032 . S
O722 C725 1.259 . S
O723 Mg714 2.114 . S
O723 C726 1.252 . S
O724 Mg714 2.251 . S
O724 Mg717 2.079 . S
O724 C726 1.273 . S
C725 O721 1.246 . S
C725 O722 1.259 . S
C726 O723 1.252 . S
C726 O724 1.273 . S
O727 Mg714 2.010 . S
O727 C719 1.249 . S
Mg728 O729 2.028 . S
Mg728 O735 1.986 . S
Mg728 O737 2.114 . S
Mg728 O738 2.251 . S
Mg728 O741 2.010 . S
O729 Mg728 2.028 . S
O729 C732 1.250 . S
O730 Mg731 2.028 . S
O730 C732 1.248 . S
Mg731 O730 2.028 . S
Mg731 O736 2.032 . S
Mg731 O738 2.079 . S
C732 O729 1.250 . S
C732 O730 1.248 . S
C733 O734 1.264 . S
C733 O741 1.249 . S
O734 C733 1.264 . S
O735 Mg728 1.986 . S
O735 C739 1.246 . S
O736 Mg731 2.032 . S
O736 C739 1.259 . S
O737 Mg728 2.114 . S
O737 C740 1.252 . S
O738 Mg728 2.251 . S
O738 Mg731 2.079 . S
O738 C740 1.273 . S
C739 O735 1.246 . S
C739 O736 1.259 . S
C740 O737 1.252 . S
C740 O738 1.273 . S
O741 Mg728 2.010 . S
O741 C733 1.249 . S
Mg742 O743 2.028 . S
Mg742 O749 1.986 . S
Mg742 O751 2.114 . S
Mg742 O752 2.251 . S
Mg742 O755 2.010 . S
O743 Mg742 2.028 . S
O743 C746 1.250 . S
O744 Mg745 2.028 . S
O744 C746 1.248 . S
Mg745 O744 2.028 . S
Mg745 O750 2.032 . S
Mg745 O752 2.079 . S
C746 O743 1.250 . S
C746 O744 1.248 . S
C747 O748 1.264 . S
C747 O755 1.249 . S
O748 C747 1.264 . S
O749 Mg742 1.986 . S
O749 C753 1.246 . S
O750 Mg745 2.032 . S
O750 C753 1.259 . S
O751 Mg742 2.114 . S
O751 C754 1.252 . S
O752 Mg742 2.251 . S
O752 Mg745 2.079 . S
O752 C754 1.273 . S
C753 O749 1.246 . S
C753 O750 1.259 . S
C754 O751 1.252 . S
C754 O752 1.273 . S
O755 Mg742 2.010 . S
O755 C747 1.249 . S
Mg756 O757 2.028 . S
Mg756 O763 1.986 . S
Mg756 O765 2.114 . S
Mg756 O766 2.251 . S
Mg756 O769 2.010 . S
O757 Mg756 2.028 . S
O757 C760 1.250 . S
O758 Mg759 2.028 . S
O758 C760 1.248 . S
Mg759 O758 2.028 . S
Mg759 O764 2.032 . S
Mg759 O766 2.079 . S
C760 O757 1.250 . S
C760 O758 1.248 . S
C761 O762 1.264 . S
C761 O769 1.249 . S
O762 C761 1.264 . S
O763 Mg756 1.986 . S
O763 C767 1.246 . S
O764 Mg759 2.032 . S
O764 C767 1.259 . S
O765 Mg756 2.114 . S
O765 C768 1.252 . S
O766 Mg756 2.251 . S
O766 Mg759 2.079 . S
O766 C768 1.273 . S
C767 O763 1.246 . S
C767 O764 1.259 . S
C768 O765 1.252 . S
C768 O766 1.273 . S
O769 Mg756 2.010 . S
O769 C761 1.249 . S
Mg770 O771 2.028 . S
Mg770 O777 1.986 . S
Mg770 O779 2.114 . S
Mg770 O780 2.251 . S
Mg770 O783 2.010 . S
O771 Mg770 2.028 . S
O771 C774 1.250 . S
O772 Mg773 2.028 . S
O772 C774 1.248 . S
Mg773 O772 2.028 . S
Mg773 O778 2.032 . S
Mg773 O780 2.079 . S
C774 O771 1.250 . S
C774 O772 1.248 . S
C775 O776 1.264 . S
C775 O783 1.249 . S
O776 C775 1.264 . S
O777 Mg770 1.986 . S
O777 C781 1.246 . S
O778 Mg773 2.032 . S
O778 C781 1.259 . S
O779 Mg770 2.114 . S
O779 C782 1.252 . S
O780 Mg770 2.251 . S
O780 Mg773 2.079 . S
O780 C782 1.273 . S
C781 O777 1.246 . S
C781 O778 1.259 . S
C782 O779 1.252 . S
C782 O780 1.273 . S
O783 Mg770 2.010 . S
O783 C775 1.249 . S
Mg784 O785 2.028 . S
Mg784 O791 1.986 . S
Mg784 O793 2.114 . S
Mg784 O794 2.251 . S
Mg784 O797 2.010 . S
O785 Mg784 2.028 . S
O785 C788 1.250 . S
O786 Mg787 2.028 . S
O786 C788 1.248 . S
Mg787 O786 2.028 . S
Mg787 O792 2.032 . S
Mg787 O794 2.079 . S
C788 O785 1.250 . S
C788 O786 1.248 . S
C789 O790 1.264 . S
C789 O797 1.249 . S
O790 C789 1.264 . S
O791 Mg784 1.986 . S
O791 C795 1.246 . S
O792 Mg787 2.032 . S
O792 C795 1.259 . S
O793 Mg784 2.114 . S
O793 C796 1.252 . S
O794 Mg784 2.251 . S
O794 Mg787 2.079 . S
O794 C796 1.273 . S
C795 O791 1.246 . S
C795 O792 1.259 . S
C796 O793 1.252 . S
C796 O794 1.273 . S
O797 Mg784 2.010 . S
O797 C789 1.249 . S
Mg798 O799 2.028 . S
Mg798 O805 1.986 . S
Mg798 O807 2.114 . S
Mg798 O808 2.251 . S
Mg798 O811 2.010 . S
O799 Mg798 2.028 . S
O799 C802 1.250 . S
O800 Mg801 2.028 . S
O800 C802 1.248 . S
Mg801 O800 2.028 . S
Mg801 O806 2.032 . S
Mg801 O808 2.079 . S
C802 O799 1.250 . S
C802 O800 1.248 . S
C803 O804 1.264 . S
C803 O811 1.249 . S
O804 C803 1.264 . S
O805 Mg798 1.986 . S
O805 C809 1.246 . S
O806 Mg801 2.032 . S
O806 C809 1.259 . S
O807 Mg798 2.114 . S
O807 C810 1.252 . S
O808 Mg798 2.251 . S
O808 Mg801 2.079 . S
O808 C810 1.273 . S
C809 O805 1.246 . S
C809 O806 1.259 . S
C810 O807 1.252 . S
C810 O808 1.273 . S
O811 Mg798 2.010 . S
O811 C803 1.249 . S
Mg812 O813 2.028 . S
Mg812 O819 1.986 . S
Mg812 O821 2.114 . S
Mg812 O822 2.251 . S
Mg812 O825 2.010 . S
O813 Mg812 2.028 . S
O813 C816 1.250 . S
O814 Mg815 2.028 . S
O814 C816 1.248 . S
Mg815 O814 2.028 . S
Mg815 O820 2.032 . S
Mg815 O822 2.079 . S
C816 O813 1.250 . S
C816 O814 1.248 . S
C817 O818 1.264 . S
C817 O825 1.249 . S
O818 C817 1.264 . S
O819 Mg812 1.986 . S
O819 C823 1.246 . S
O820 Mg815 2.032 . S
O820 C823 1.259 . S
O821 Mg812 2.114 . S
O821 C824 1.252 . S
O822 Mg812 2.251 . S
O822 Mg815 2.079 . S
O822 C824 1.273 . S
C823 O819 1.246 . S
C823 O820 1.259 . S
C824 O821 1.252 . S
C824 O822 1.273 . S
O825 Mg812 2.010 . S
O825 C817 1.249 . S
Mg826 O827 2.028 . S
Mg826 O833 1.986 . S
Mg826 O835 2.114 . S
Mg826 O836 2.251 . S
Mg826 O839 2.010 . S
O827 Mg826 2.028 . S
O827 C830 1.250 . S
O828 Mg829 2.028 . S
O828 C830 1.248 . S
Mg829 O828 2.028 . S
Mg829 O834 2.032 . S
Mg829 O836 2.079 . S
C830 O827 1.250 . S
C830 O828 1.248 . S
C831 O832 1.264 . S
C831 O839 1.249 . S
O832 C831 1.264 . S
O833 Mg826 1.986 . S
O833 C837 1.246 . S
O834 Mg829 2.032 . S
O834 C837 1.259 . S
O835 Mg826 2.114 . S
O835 C838 1.252 . S
O836 Mg826 2.251 . S
O836 Mg829 2.079 . S
O836 C838 1.273 . S
C837 O833 1.246 . S
C837 O834 1.259 . S
C838 O835 1.252 . S
C838 O836 1.273 . S
O839 Mg826 2.010 . S
O839 C831 1.249 . S
Mg840 O841 2.028 . S
Mg840 O847 1.986 . S
Mg840 O849 2.114 . S
Mg840 O850 2.251 . S
Mg840 O853 2.010 . S
O841 Mg840 2.028 . S
O841 C844 1.250 . S
O842 Mg843 2.028 . S
O842 C844 1.248 . S
Mg843 O842 2.028 . S
Mg843 O848 2.032 . S
Mg843 O850 2.079 . S
C844 O841 1.250 . S
C844 O842 1.248 . S
C845 O846 1.264 . S
C845 O853 1.249 . S
O846 C845 1.264 . S
O847 Mg840 1.986 . S
O847 C851 1.246 . S
O848 Mg843 2.032 . S
O848 C851 1.259 . S
O849 Mg840 2.114 . S
O849 C852 1.252 . S
O850 Mg840 2.251 . S
O850 Mg843 2.079 . S
O850 C852 1.273 . S
C851 O847 1.246 . S
C851 O848 1.259 . S
C852 O849 1.252 . S
C852 O850 1.273 . S
O853 Mg840 2.010 . S
O853 C845 1.249 . S
Mg854 O855 2.028 . S
Mg854 O861 1.986 . S
Mg854 O863 2.114 . S
Mg854 O864 2.251 . S
Mg854 O867 2.010 . S
O855 Mg854 2.028 . S
O855 C858 1.250 . S
O856 Mg857 2.028 . S
O856 C858 1.248 . S
Mg857 O856 2.028 . S
Mg857 O862 2.032 . S
Mg857 O864 2.079 . S
C858 O855 1.250 . S
C858 O856 1.248 . S
C859 O860 1.264 . S
C859 O867 1.249 . S
O860 C859 1.264 . S
O861 Mg854 1.986 . S
O861 C865 1.246 . S
O862 Mg857 2.032 . S
O862 C865 1.259 . S
O863 Mg854 2.114 . S
O863 C866 1.252 . S
O864 Mg854 2.251 . S
O864 Mg857 2.079 . S
O864 C866 1.273 . S
C865 O861 1.246 . S
C865 O862 1.259 . S
C866 O863 1.252 . S
C866 O864 1.273 . S
O867 Mg854 2.010 . S
O867 C859 1.249 . S
Mg868 O869 2.028 . S
Mg868 O875 1.986 . S
Mg868 O877 2.114 . S
Mg868 O878 2.251 . S
Mg868 O881 2.010 . S
O869 Mg868 2.028 . S
O869 C872 1.250 . S
O870 Mg871 2.028 . S
O870 C872 1.248 . S
Mg871 O870 2.028 . S
Mg871 O876 2.032 . S
Mg871 O878 2.079 . S
C872 O869 1.250 . S
C872 O870 1.248 . S
C873 O874 1.264 . S
C873 O881 1.249 . S
O874 C873 1.264 . S
O875 Mg868 1.986 . S
O875 C879 1.246 . S
O876 Mg871 2.032 . S
O876 C879 1.259 . S
O877 Mg868 2.114 . S
O877 C880 1.252 . S
O878 Mg868 2.251 . S
O878 Mg871 2.079 . S
O878 C880 1.273 . S
C879 O875 1.246 . S
C879 O876 1.259 . S
C880 O877 1.252 . S
C880 O878 1.273 . S
O881 Mg868 2.010 . S
O881 C873 1.249 . S
Mg882 O883 2.028 . S
Mg882 O889 1.986 . S
Mg882 O891 2.114 . S
Mg882 O892 2.251 . S
Mg882 O895 2.010 . S
O883 Mg882 2.028 . S
O883 C886 1.250 . S
O884 Mg885 2.028 . S
O884 C886 1.248 . S
Mg885 O884 2.028 . S
Mg885 O890 2.032 . S
Mg885 O892 2.079 . S
C886 O883 1.250 . S
C886 O884 1.248 . S
C887 O888 1.264 . S
C887 O895 1.249 . S
O888 C887 1.264 . S
O889 Mg882 1.986 . S
O889 C893 1.246 . S
O890 Mg885 2.032 . S
O890 C893 1.259 . S
O891 Mg882 2.114 . S
O891 C894 1.252 . S
O892 Mg882 2.251 . S
O892 Mg885 2.079 . S
O892 C894 1.273 . S
C893 O889 1.246 . S
C893 O890 1.259 . S
C894 O891 1.252 . S
C894 O892 1.273 . S
O895 Mg882 2.010 . S
O895 C887 1.249 . S
Mg896 O897 2.028 . S
Mg896 O903 1.986 . S
Mg896 O905 2.114 . S
Mg896 O906 2.251 . S
Mg896 O909 2.010 . S
O897 Mg896 2.028 . S
O897 C900 1.250 . S
O898 Mg899 2.028 . S
O898 C900 1.248 . S
Mg899 O898 2.028 . S
Mg899 O904 2.032 . S
Mg899 O906 2.079 . S
C900 O897 1.250 . S
C900 O898 1.248 . S
C901 O902 1.264 . S
C901 O909 1.249 . S
O902 C901 1.264 . S
O903 Mg896 1.986 . S
O903 C907 1.246 . S
O904 Mg899 2.032 . S
O904 C907 1.259 . S
O905 Mg896 2.114 . S
O905 C908 1.252 . S
O906 Mg896 2.251 . S
O906 Mg899 2.079 . S
O906 C908 1.273 . S
C907 O903 1.246 . S
C907 O904 1.259 . S
C908 O905 1.252 . S
C908 O906 1.273 . S
O909 Mg896 2.010 . S
O909 C901 1.249 . S
Mg910 O911 2.028 . S
Mg910 O917 1.986 . S
Mg910 O919 2.114 . S
Mg910 O920 2.251 . S
Mg910 O923 2.010 . S
O911 Mg910 2.028 . S
O911 C914 1.250 . S
O912 Mg913 2.028 . S
O912 C914 1.248 . S
Mg913 O912 2.028 . S
Mg913 O918 2.032 . S
Mg913 O920 2.079 . S
C914 O911 1.250 . S
C914 O912 1.248 . S
C915 O916 1.264 . S
C915 O923 1.249 . S
O916 C915 1.264 . S
O917 Mg910 1.986 . S
O917 C921 1.246 . S
O918 Mg913 2.032 . S
O918 C921 1.259 . S
O919 Mg910 2.114 . S
O919 C922 1.252 . S
O920 Mg910 2.251 . S
O920 Mg913 2.079 . S
O920 C922 1.273 . S
C921 O917 1.246 . S
C921 O918 1.259 . S
C922 O919 1.252 . S
C922 O920 1.273 . S
O923 Mg910 2.010 . S
O923 C915 1.249 . S
Mg924 O925 2.028 . S
Mg924 O931 1.986 . S
Mg924 O933 2.114 . S
Mg924 O934 2.251 . S
Mg924 O937 2.010 . S
O925 Mg924 2.028 . S
O925 C928 1.250 . S
O926 Mg927 2.028 . S
O926 C928 1.248 . S
Mg927 O926 2.028 . S
Mg927 O932 2.032 . S
Mg927 O934 2.079 . S
C928 O925 1.250 . S
C928 O926 1.248 . S
C929 O930 1.264 . S
C929 O937 1.249 . S
O930 C929 1.264 . S
O931 Mg924 1.986 . S
O931 C935 1.246 . S
O932 Mg927 2.032 . S
O932 C935 1.259 . S
O933 Mg924 2.114 . S
O933 C936 1.252 . S
O934 Mg924 2.251 . S
O934 Mg927 2.079 . S
O934 C936 1.273 . S
C935 O931 1.246 . S
C935 O932 1.259 . S
C936 O933 1.252 . S
C936 O934 1.273 . S
O937 Mg924 2.010 . S
O937 C929 1.249 . S
Mg938 O939 2.028 . S
Mg938 O945 1.986 . S
Mg938 O947 2.114 . S
Mg938 O948 2.251 . S
Mg938 O951 2.010 . S
O939 Mg938 2.028 . S
O939 C942 1.250 . S
O940 Mg941 2.028 . S
O940 C942 1.248 . S
Mg941 O940 2.028 . S
Mg941 O946 2.032 . S
Mg941 O948 2.079 . S
C942 O939 1.250 . S
C942 O940 1.248 . S
C943 O944 1.264 . S
C943 O951 1.249 . S
O944 C943 1.264 . S
O945 Mg938 1.986 . S
O945 C949 1.246 . S
O946 Mg941 2.032 . S
O946 C949 1.259 . S
O947 Mg938 2.114 . S
O947 C950 1.252 . S
O948 Mg938 2.251 . S
O948 Mg941 2.079 . S
O948 C950 1.273 . S
C949 O945 1.246 . S
C949 O946 1.259 . S
C950 O947 1.252 . S
C950 O948 1.273 . S
O951 Mg938 2.010 . S
O951 C943 1.249 . S
Mg952 O953 2.028 . S
Mg952 O959 1.986 . S
Mg952 O961 2.114 . S
Mg952 O962 2.251 . S
Mg952 O965 2.010 . S
O953 Mg952 2.028 . S
O953 C956 1.250 . S
O954 Mg955 2.028 . S
O954 C956 1.248 . S
Mg955 O954 2.028 . S
Mg955 O960 2.032 . S
Mg955 O962 2.079 . S
C956 O953 1.250 . S
C956 O954 1.248 . S
C957 O958 1.264 . S
C957 O965 1.249 . S
O958 C957 1.264 . S
O959 Mg952 1.986 . S
O959 C963 1.246 . S
O960 Mg955 2.032 . S
O960 C963 1.259 . S
O961 Mg952 2.114 . S
O961 C964 1.252 . S
O962 Mg952 2.251 . S
O962 Mg955 2.079 . S
O962 C964 1.273 . S
C963 O959 1.246 . S
C963 O960 1.259 . S
C964 O961 1.252 . S
C964 O962 1.273 . S
O965 Mg952 2.010 . S
O965 C957 1.249 . S
Mg966 O967 2.028 . S
Mg966 O973 1.986 . S
Mg966 O975 2.114 . S
Mg966 O976 2.251 . S
Mg966 O979 2.010 . S
O967 Mg966 2.028 . S
O967 C970 1.250 . S
O968 Mg969 2.028 . S
O968 C970 1.248 . S
Mg969 O968 2.028 . S
Mg969 O974 2.032 . S
Mg969 O976 2.079 . S
C970 O967 1.250 . S
C970 O968 1.248 . S
C971 O972 1.264 . S
C971 O979 1.249 . S
O972 C971 1.264 . S
O973 Mg966 1.986 . S
O973 C977 1.246 . S
O974 Mg969 2.032 . S
O974 C977 1.259 . S
O975 Mg966 2.114 . S
O975 C978 1.252 . S
O976 Mg966 2.251 . S
O976 Mg969 2.079 . S
O976 C978 1.273 . S
C977 O973 1.246 . S
C977 O974 1.259 . S
C978 O975 1.252 . S
C978 O976 1.273 . S
O979 Mg966 2.010 . S
O979 C971 1.249 . S
Mg980 O981 2.028 . S
Mg980 O987 1.986 . S
Mg980 O989 2.114 . S
Mg980 O990 2.251 . S
Mg980 O993 2.010 . S
O981 Mg980 2.028 . S
O981 C984 1.250 . S
O982 Mg983 2.028 . S
O982 C984 1.248 . S
Mg983 O982 2.028 . S
Mg983 O988 2.032 . S
Mg983 O990 2.079 . S
C984 O981 1.250 . S
C984 O982 1.248 . S
C985 O986 1.264 . S
C985 O993 1.249 . S
O986 C985 1.264 . S
O987 Mg980 1.986 . S
O987 C991 1.246 . S
O988 Mg983 2.032 . S
O988 C991 1.259 . S
O989 Mg980 2.114 . S
O989 C992 1.252 . S
O990 Mg980 2.251 . S
O990 Mg983 2.079 . S
O990 C992 1.273 . S
C991 O987 1.246 . S
C991 O988 1.259 . S
C992 O989 1.252 . S
C992 O990 1.273 . S
O993 Mg980 2.010 . S
O993 C985 1.249 . S
Mg994 O995 2.028 . S
Mg994 O1001 1.986 . S
Mg994 O1003 2.114 . S
Mg994 O1004 2.251 . S
Mg994 O1007 2.010 . S
O995 Mg994 2.028 . S
O995 C998 1.250 . S
O996 Mg997 2.028 . S
O996 C998 1.248 . S
Mg997 O996 2.028 . S
Mg997 O1002 2.032 . S
Mg997 O1004 2.079 . S
C998 O995 1.250 . S
C998 O996 1.248 . S
C999 O1000 1.264 . S
C999 O1007 1.249 . S
O1000 C999 1.264 . S
O1001 Mg994 1.986 . S
O1001 C1005 1.246 . S
O1002 Mg997 2.032 . S
O1002 C1005 1.259 . S
O1003 Mg994 2.114 . S
O1003 C1006 1.252 . S
O1004 Mg994 2.251 . S
O1004 Mg997 2.079 . S
O1004 C1006 1.273 . S
C1005 O1001 1.246 . S
C1005 O1002 1.259 . S
C1006 O1003 1.252 . S
C1006 O1004 1.273 . S
O1007 Mg994 2.010 . S
O1007 C999 1.249 . S
Mg1008 O1009 2.028 . S
Mg1008 O1015 1.986 . S
Mg1008 O1017 2.114 . S
Mg1008 O1018 2.251 . S
Mg1008 O1021 2.010 . S
O1009 Mg1008 2.028 . S
O1009 C1012 1.250 . S
O1010 Mg1011 2.028 . S
O1010 C1012 1.248 . S
Mg1011 O1010 2.028 . S
Mg1011 O1016 2.032 . S
Mg1011 O1018 2.079 . S
C1012 O1009 1.250 . S
C1012 O1010 1.248 . S
C1013 O1014 1.264 . S
C1013 O1021 1.249 . S
O1014 C1013 1.264 . S
O1015 Mg1008 1.986 . S
O1015 C1019 1.246 . S
O1016 Mg1011 2.032 . S
O1016 C1019 1.259 . S
O1017 Mg1008 2.114 . S
O1017 C1020 1.252 . S
O1018 Mg1008 2.251 . S
O1018 Mg1011 2.079 . S
O1018 C1020 1.273 . S
C1019 O1015 1.246 . S
C1019 O1016 1.259 . S
C1020 O1017 1.252 . S
C1020 O1018 1.273 . S
O1021 Mg1008 2.010 . S
O1021 C1013 1.249 . S
Mg1022 O1023 2.028 . S
Mg1022 O1029 1.986 . S
Mg1022 O1031 2.114 . S
Mg1022 O1032 2.251 . S
Mg1022 O1035 2.010 . S
O1023 Mg1022 2.028 . S
O1023 C1026 1.250 . S
O1024 Mg1025 2.028 . S
O1024 C1026 1.248 . S
Mg1025 O1024 2.028 . S
Mg1025 O1030 2.032 . S
Mg1025 O1032 2.079 . S
C1026 O1023 1.250 . S
C1026 O1024 1.248 . S
C1027 O1028 1.264 . S
C1027 O1035 1.249 . S
O1028 C1027 1.264 . S
O1029 Mg1022 1.986 . S
O1029 C1033 1.246 . S
O1030 Mg1025 2.032 . S
O1030 C1033 1.259 . S
O1031 Mg1022 2.114 . S
O1031 C1034 1.252 . S
O1032 Mg1022 2.251 . S
O1032 Mg1025 2.079 . S
O1032 C1034 1.273 . S
C1033 O1029 1.246 . S
C1033 O1030 1.259 . S
C1034 O1031 1.252 . S
C1034 O1032 1.273 . S
O1035 Mg1022 2.010 . S
O1035 C1027 1.249 . S
Mg1036 O1037 2.028 . S
Mg1036 O1043 1.986 . S
Mg1036 O1045 2.114 . S
Mg1036 O1046 2.251 . S
Mg1036 O1049 2.010 . S
O1037 Mg1036 2.028 . S
O1037 C1040 1.250 . S
O1038 Mg1039 2.028 . S
O1038 C1040 1.248 . S
Mg1039 O1038 2.028 . S
Mg1039 O1044 2.032 . S
Mg1039 O1046 2.079 . S
C1040 O1037 1.250 . S
C1040 O1038 1.248 . S
C1041 O1042 1.264 . S
C1041 O1049 1.249 . S
O1042 C1041 1.264 . S
O1043 Mg1036 1.986 . S
O1043 C1047 1.246 . S
O1044 Mg1039 2.032 . S
O1044 C1047 1.259 . S
O1045 Mg1036 2.114 . S
O1045 C1048 1.252 . S
O1046 Mg1036 2.251 . S
O1046 Mg1039 2.079 . S
O1046 C1048 1.273 . S
C1047 O1043 1.246 . S
C1047 O1044 1.259 . S
C1048 O1045 1.252 . S
C1048 O1046 1.273 . S
O1049 Mg1036 2.010 . S
O1049 C1041 1.249 . S
Mg1050 O1051 2.028 . S
Mg1050 O1057 1.986 . S
Mg1050 O1059 2.114 . S
Mg1050 O1060 2.251 . S
Mg1050 O1063 2.010 . S
O1051 Mg1050 2.028 . S
O1051 C1054 1.250 . S
O1052 Mg1053 2.028 . S
O1052 C1054 1.248 . S
Mg1053 O1052 2.028 . S
Mg1053 O1058 2.032 . S
Mg1053 O1060 2.079 . S
C1054 O1051 1.250 . S
C1054 O1052 1.248 . S
C1055 O1056 1.264 . S
C1055 O1063 1.249 . S
O1056 C1055 1.264 . S
O1057 Mg1050 1.986 . S
O1057 C1061 1.246 . S
O1058 Mg1053 2.032 . S
O1058 C1061 1.259 . S
O1059 Mg1050 2.114 . S
O1059 C1062 1.252 . S
O1060 Mg1050 2.251 . S
O1060 Mg1053 2.079 . S
O1060 C1062 1.273 . S
C1061 O1057 1.246 . S
C1061 O1058 1.259 . S
C1062 O1059 1.252 . S
C1062 O1060 1.273 . S
O1063 Mg1050 2.010 . S
O1063 C1055 1.249 . S
Mg1064 O1065 2.028 . S
Mg1064 O1071 1.986 . S
Mg1064 O1073 2.114 . S
Mg1064 O1074 2.251 . S
Mg1064 O1077 2.010 . S
O1065 Mg1064 2.028 . S
O1065 C1068 1.250 . S
O1066 Mg1067 2.028 . S
O1066 C1068 1.248 . S
Mg1067 O1066 2.028 . S
Mg1067 O1072 2.032 . S
Mg1067 O1074 2.079 . S
C1068 O1065 1.250 . S
C1068 O1066 1.248 . S
C1069 O1070 1.264 . S
C1069 O1077 1.249 . S
O1070 C1069 1.264 . S
O1071 Mg1064 1.986 . S
O1071 C1075 1.246 . S
O1072 Mg1067 2.032 . S
O1072 C1075 1.259 . S
O1073 Mg1064 2.114 . S
O1073 C1076 1.252 . S
O1074 Mg1064 2.251 . S
O1074 Mg1067 2.079 . S
O1074 C1076 1.273 . S
C1075 O1071 1.246 . S
C1075 O1072 1.259 . S
C1076 O1073 1.252 . S
C1076 O1074 1.273 . S
O1077 Mg1064 2.010 . S
O1077 C1069 1.249 . S
Mg1078 O1079 2.028 . S
Mg1078 O1085 1.986 . S
Mg1078 O1087 2.114 . S
Mg1078 O1088 2.251 . S
Mg1078 O1091 2.010 . S
O1079 Mg1078 2.028 . S
O1079 C1082 1.250 . S
O1080 Mg1081 2.028 . S
O1080 C1082 1.248 . S
Mg1081 O1080 2.028 . S
Mg1081 O1086 2.032 . S
Mg1081 O1088 2.079 . S
C1082 O1079 1.250 . S
C1082 O1080 1.248 . S
C1083 O1084 1.264 . S
C1083 O1091 1.249 . S
O1084 C1083 1.264 . S
O1085 Mg1078 1.986 . S
O1085 C1089 1.246 . S
O1086 Mg1081 2.032 . S
O1086 C1089 1.259 . S
O1087 Mg1078 2.114 . S
O1087 C1090 1.252 . S
O1088 Mg1078 2.251 . S
O1088 Mg1081 2.079 . S
O1088 C1090 1.273 . S
C1089 O1085 1.246 . S
C1089 O1086 1.259 . S
C1090 O1087 1.252 . S
C1090 O1088 1.273 . S
O1091 Mg1078 2.010 . S
O1091 C1083 1.249 . S
Mg1092 O1093 2.028 . S
Mg1092 O1099 1.986 . S
Mg1092 O1101 2.114 . S
Mg1092 O1102 2.251 . S
Mg1092 O1105 2.010 . S
O1093 Mg1092 2.028 . S
O1093 C1096 1.250 . S
O1094 Mg1095 2.028 . S
O1094 C1096 1.248 . S
Mg1095 O1094 2.028 . S
Mg1095 O1100 2.032 . S
Mg1095 O1102 2.079 . S
C1096 O1093 1.250 . S
C1096 O1094 1.248 . S
C1097 O1098 1.264 . S
C1097 O1105 1.249 . S
O1098 C1097 1.264 . S
O1099 Mg1092 1.986 . S
O1099 C1103 1.246 . S
O1100 Mg1095 2.032 . S
O1100 C1103 1.259 . S
O1101 Mg1092 2.114 . S
O1101 C1104 1.252 . S
O1102 Mg1092 2.251 . S
O1102 Mg1095 2.079 . S
O1102 C1104 1.273 . S
C1103 O1099 1.246 . S
C1103 O1100 1.259 . S
C1104 O1101 1.252 . S
C1104 O1102 1.273 . S
O1105 Mg1092 2.010 . S
O1105 C1097 1.249 . S
Mg1106 O1107 2.028 . S
Mg1106 O1113 1.986 . S
Mg1106 O1115 2.114 . S
Mg1106 O1116 2.251 . S
Mg1106 O1119 2.010 . S
O1107 Mg1106 2.028 . S
O1107 C1110 1.250 . S
O1108 Mg1109 2.028 . S
O1108 C1110 1.248 . S
Mg1109 O1108 2.028 . S
Mg1109 O1114 2.032 . S
Mg1109 O1116 2.079 . S
C1110 O1107 1.250 . S
C1110 O1108 1.248 . S
C1111 O1112 1.264 . S
C1111 O1119 1.249 . S
O1112 C1111 1.264 . S
O1113 Mg1106 1.986 . S
O1113 C1117 1.246 . S
O1114 Mg1109 2.032 . S
O1114 C1117 1.259 . S
O1115 Mg1106 2.114 . S
O1115 C1118 1.252 . S
O1116 Mg1106 2.251 . S
O1116 Mg1109 2.079 . S
O1116 C1118 1.273 . S
C1117 O1113 1.246 . S
C1117 O1114 1.259 . S
C1118 O1115 1.252 . S
C1118 O1116 1.273 . S
O1119 Mg1106 2.010 . S
O1119 C1111 1.249 . S
Mg1120 O1121 2.028 . S
Mg1120 O1127 1.986 . S
Mg1120 O1129 2.114 . S
Mg1120 O1130 2.251 . S
Mg1120 O1133 2.010 . S
O1121 Mg1120 2.028 . S
O1121 C1124 1.250 . S
O1122 Mg1123 2.028 . S
O1122 C1124 1.248 . S
Mg1123 O1122 2.028 . S
Mg1123 O1128 2.032 . S
Mg1123 O1130 2.079 . S
C1124 O1121 1.250 . S
C1124 O1122 1.248 . S
C1125 O1126 1.264 . S
C1125 O1133 1.249 . S
O1126 C1125 1.264 . S
O1127 Mg1120 1.986 . S
O1127 C1131 1.246 . S
O1128 Mg1123 2.032 . S
O1128 C1131 1.259 . S
O1129 Mg1120 2.114 . S
O1129 C1132 1.252 . S
O1130 Mg1120 2.251 . S
O1130 Mg1123 2.079 . S
O1130 C1132 1.273 . S
C1131 O1127 1.246 . S
C1131 O1128 1.259 . S
C1132 O1129 1.252 . S
C1132 O1130 1.273 . S
O1133 Mg1120 2.010 . S
O1133 C1125 1.249 . S
Mg1134 O1135 2.028 . S
Mg1134 O1141 1.986 . S
Mg1134 O1143 2.114 . S
Mg1134 O1144 2.251 . S
Mg1134 O1147 2.010 . S
O1135 Mg1134 2.028 . S
O1135 C1138 1.250 . S
O1136 Mg1137 2.028 . S
O1136 C1138 1.248 . S
Mg1137 O1136 2.028 . S
Mg1137 O1142 2.032 . S
Mg1137 O1144 2.079 . S
C1138 O1135 1.250 . S
C1138 O1136 1.248 . S
C1139 O1140 1.264 . S
C1139 O1147 1.249 . S
O1140 C1139 1.264 . S
O1141 Mg1134 1.986 . S
O1141 C1145 1.246 . S
O1142 Mg1137 2.032 . S
O1142 C1145 1.259 . S
O1143 Mg1134 2.114 . S
O1143 C1146 1.252 . S
O1144 Mg1134 2.251 . S
O1144 Mg1137 2.079 . S
O1144 C1146 1.273 . S
C1145 O1141 1.246 . S
C1145 O1142 1.259 . S
C1146 O1143 1.252 . S
C1146 O1144 1.273 . S
O1147 Mg1134 2.010 . S
O1147 C1139 1.249 . S
Mg1148 O1149 2.028 . S
Mg1148 O1155 1.986 . S
Mg1148 O1157 2.114 . S
Mg1148 O1158 2.251 . S
Mg1148 O1161 2.010 . S
O1149 Mg1148 2.028 . S
O1149 C1152 1.250 . S
O1150 Mg1151 2.028 . S
O1150 C1152 1.248 . S
Mg1151 O1150 2.028 . S
Mg1151 O1156 2.032 . S
Mg1151 O1158 2.079 . S
C1152 O1149 1.250 . S
C1152 O1150 1.248 . S
C1153 O1154 1.264 . S
C1153 O1161 1.249 . S
O1154 C1153 1.264 . S
O1155 Mg1148 1.986 . S
O1155 C1159 1.246 . S
O1156 Mg1151 2.032 . S
O1156 C1159 1.259 . S
O1157 Mg1148 2.114 . S
O1157 C1160 1.252 . S
O1158 Mg1148 2.251 . S
O1158 Mg1151 2.079 . S
O1158 C1160 1.273 . S
C1159 O1155 1.246 . S
C1159 O1156 1.259 . S
C1160 O1157 1.252 . S
C1160 O1158 1.273 . S
O1161 Mg1148 2.010 . S
O1161 C1153 1.249 . S
Mg1162 O1163 2.028 . S
Mg1162 O1169 1.986 . S
Mg1162 O1171 2.114 . S
Mg1162 O1172 2.251 . S
Mg1162 O1175 2.010 . S
O1163 Mg1162 2.028 . S
O1163 C1166 1.250 . S
O1164 Mg1165 2.028 . S
O1164 C1166 1.248 . S
Mg1165 O1164 2.028 . S
Mg1165 O1170 2.032 . S
Mg1165 O1172 2.079 . S
C1166 O1163 1.250 . S
C1166 O1164 1.248 . S
C1167 O1168 1.264 . S
C1167 O1175 1.249 . S
O1168 C1167 1.264 . S
O1169 Mg1162 1.986 . S
O1169 C1173 1.246 . S
O1170 Mg1165 2.032 . S
O1170 C1173 1.259 . S
O1171 Mg1162 2.114 . S
O1171 C1174 1.252 . S
O1172 Mg1162 2.251 . S
O1172 Mg1165 2.079 . S
O1172 C1174 1.273 . S
C1173 O1169 1.246 . S
C1173 O1170 1.259 . S
C1174 O1171 1.252 . S
C1174 O1172 1.273 . S
O1175 Mg1162 2.010 . S
O1175 C1167 1.249 . S
Mg1176 O1177 2.028 . S
Mg1176 O1183 1.986 . S
Mg1176 O1185 2.114 . S
Mg1176 O1186 2.251 . S
Mg1176 O1189 2.010 . S
O1177 Mg1176 2.028 . S
O1177 C1180 1.250 . S
O1178 Mg1179 2.028 . S
O1178 C1180 1.248 . S
Mg1179 O1178 2.028 . S
Mg1179 O1184 2.032 . S
Mg1179 O1186 2.079 . S
C1180 O1177 1.250 . S
C1180 O1178 1.248 . S
C1181 O1182 1.264 . S
C1181 O1189 1.249 . S
O1182 C1181 1.264 . S
O1183 Mg1176 1.986 . S
O1183 C1187 1.246 . S
O1184 Mg1179 2.032 . S
O1184 C1187 1.259 . S
O1185 Mg1176 2.114 . S
O1185 C1188 1.252 . S
O1186 Mg1176 2.251 . S
O1186 Mg1179 2.079 . S
O1186 C1188 1.273 . S
C1187 O1183 1.246 . S
C1187 O1184 1.259 . S
C1188 O1185 1.252 . S
C1188 O1186 1.273 . S
O1189 Mg1176 2.010 . S
O1189 C1181 1.249 . S
Mg1190 O1191 2.028 . S
Mg1190 O1197 1.986 . S
Mg1190 O1199 2.114 . S
Mg1190 O1200 2.251 . S
Mg1190 O1203 2.010 . S
O1191 Mg1190 2.028 . S
O1191 C1194 1.250 . S
O1192 Mg1193 2.028 . S
O1192 C1194 1.248 . S
Mg1193 O1192 2.028 . S
Mg1193 O1198 2.032 . S
Mg1193 O1200 2.079 . S
C1194 O1191 1.250 . S
C1194 O1192 1.248 . S
C1195 O1196 1.264 . S
C1195 O1203 1.249 . S
O1196 C1195 1.264 . S
O1197 Mg1190 1.986 . S
O1197 C1201 1.246 . S
O1198 Mg1193 2.032 . S
O1198 C1201 1.259 . S
O1199 Mg1190 2.114 . S
O1199 C1202 1.252 . S
O1200 Mg1190 2.251 . S
O1200 Mg1193 2.079 . S
O1200 C1202 1.273 . S
C1201 O1197 1.246 . S
C1201 O1198 1.259 . S
C1202 O1199 1.252 . S
C1202 O1200 1.273 . S
O1203 Mg1190 2.010 . S
O1203 C1195 1.249 . S
Mg1204 O1205 2.028 . S
Mg1204 O1211 1.986 . S
Mg1204 O1213 2.114 . S
Mg1204 O1214 2.251 . S
Mg1204 O1217 2.010 . S
O1205 Mg1204 2.028 . S
O1205 C1208 1.250 . S
O1206 Mg1207 2.028 . S
O1206 C1208 1.248 . S
Mg1207 O1206 2.028 . S
Mg1207 O1212 2.032 . S
Mg1207 O1214 2.079 . S
C1208 O1205 1.250 . S
C1208 O1206 1.248 . S
C1209 O1210 1.264 . S
C1209 O1217 1.249 . S
O1210 C1209 1.264 . S
O1211 Mg1204 1.986 . S
O1211 C1215 1.246 . S
O1212 Mg1207 2.032 . S
O1212 C1215 1.259 . S
O1213 Mg1204 2.114 . S
O1213 C1216 1.252 . S
O1214 Mg1204 2.251 . S
O1214 Mg1207 2.079 . S
O1214 C1216 1.273 . S
C1215 O1211 1.246 . S
C1215 O1212 1.259 . S
C1216 O1213 1.252 . S
C1216 O1214 1.273 . S
O1217 Mg1204 2.010 . S
O1217 C1209 1.249 . S
Mg1218 O1219 2.028 . S
Mg1218 O1225 1.986 . S
Mg1218 O1227 2.114 . S
Mg1218 O1228 2.251 . S
Mg1218 O1231 2.010 . S
O1219 Mg1218 2.028 . S
O1219 C1222 1.250 . S
O1220 Mg1221 2.028 . S
O1220 C1222 1.248 . S
Mg1221 O1220 2.028 . S
Mg1221 O1226 2.032 . S
Mg1221 O1228 2.079 . S
C1222 O1219 1.250 . S
C1222 O1220 1.248 . S
C1223 O1224 1.264 . S
C1223 O1231 1.249 . S
O1224 C1223 1.264 . S
O1225 Mg1218 1.986 . S
O1225 C1229 1.246 . S
O1226 Mg1221 2.032 . S
O1226 C1229 1.259 . S
O1227 Mg1218 2.114 . S
O1227 C1230 1.252 . S
O1228 Mg1218 2.251 . S
O1228 Mg1221 2.079 . S
O1228 C1230 1.273 . S
C1229 O1225 1.246 . S
C1229 O1226 1.259 . S
C1230 O1227 1.252 . S
C1230 O1228 1.273 . S
O1231 Mg1218 2.010 . S
O1231 C1223 1.249 . S
Mg1232 O1233 2.028 . S
Mg1232 O1239 1.986 . S
Mg1232 O1241 2.114 . S
Mg1232 O1242 2.251 . S
Mg1232 O1245 2.010 . S
O1233 Mg1232 2.028 . S
O1233 C1236 1.250 . S
O1234 Mg1235 2.028 . S
O1234 C1236 1.248 . S
Mg1235 O1234 2.028 . S
Mg1235 O1240 2.032 . S
Mg1235 O1242 2.079 . S
C1236 O1233 1.250 . S
C1236 O1234 1.248 . S
C1237 O1238 1.264 . S
C1237 O1245 1.249 . S
O1238 C1237 1.264 . S
O1239 Mg1232 1.986 . S
O1239 C1243 1.246 . S
O1240 Mg1235 2.032 . S
O1240 C1243 1.259 . S
O1241 Mg1232 2.114 . S
O1241 C1244 1.252 . S
O1242 Mg1232 2.251 . S
O1242 Mg1235 2.079 . S
O1242 C1244 1.273 . S
C1243 O1239 1.246 . S
C1243 O1240 1.259 . S
C1244 O1241 1.252 . S
C1244 O1242 1.273 . S
O1245 Mg1232 2.010 . S
O1245 C1237 1.249 . S
Mg1246 O1247 2.028 . S
Mg1246 O1253 1.986 . S
Mg1246 O1255 2.114 . S
Mg1246 O1256 2.251 . S
Mg1246 O1259 2.010 . S
O1247 Mg1246 2.028 . S
O1247 C1250 1.250 . S
O1248 Mg1249 2.028 . S
O1248 C1250 1.248 . S
Mg1249 O1248 2.028 . S
Mg1249 O1254 2.032 . S
Mg1249 O1256 2.079 . S
C1250 O1247 1.250 . S
C1250 O1248 1.248 . S
C1251 O1252 1.264 . S
C1251 O1259 1.249 . S
O1252 C1251 1.264 . S
O1253 Mg1246 1.986 . S
O1253 C1257 1.246 . S
O1254 Mg1249 2.032 . S
O1254 C1257 1.259 . S
O1255 Mg1246 2.114 . S
O1255 C1258 1.252 . S
O1256 Mg1246 2.251 . S
O1256 Mg1249 2.079 . S
O1256 C1258 1.273 . S
C1257 O1253 1.246 . S
C1257 O1254 1.259 . S
C1258 O1255 1.252 . S
C1258 O1256 1.273 . S
O1259 Mg1246 2.010 . S
O1259 C1251 1.249 . S
Mg1260 O1261 2.028 . S
Mg1260 O1267 1.986 . S
Mg1260 O1269 2.114 . S
Mg1260 O1270 2.251 . S
Mg1260 O1273 2.010 . S
O1261 Mg1260 2.028 . S
O1261 C1264 1.250 . S
O1262 Mg1263 2.028 . S
O1262 C1264 1.248 . S
Mg1263 O1262 2.028 . S
Mg1263 O1268 2.032 . S
Mg1263 O1270 2.079 . S
C1264 O1261 1.250 . S
C1264 O1262 1.248 . S
C1265 O1266 1.264 . S
C1265 O1273 1.249 . S
O1266 C1265 1.264 . S
O1267 Mg1260 1.986 . S
O1267 C1271 1.246 . S
O1268 Mg1263 2.032 . S
O1268 C1271 1.259 . S
O1269 Mg1260 2.114 . S
O1269 C1272 1.252 . S
O1270 Mg1260 2.251 . S
O1270 Mg1263 2.079 . S
O1270 C1272 1.273 . S
C1271 O1267 1.246 . S
C1271 O1268 1.259 . S
C1272 O1269 1.252 . S
C1272 O1270 1.273 . S
O1273 Mg1260 2.010 . S
O1273 C1265 1.249 . S
Mg1274 O1275 2.028 . S
Mg1274 O1281 1.986 . S
Mg1274 O1283 2.114 . S
Mg1274 O1284 2.251 . S
Mg1274 O1287 2.010 . S
O1275 Mg1274 2.028 . S
O1275 C1278 1.250 . S
O1276 Mg1277 2.028 . S
O1276 C1278 1.248 . S
Mg1277 O1276 2.028 . S
Mg1277 O1282 2.032 . S
Mg1277 O1284 2.079 . S
C1278 O1275 1.250 . S
C1278 O1276 1.248 . S
C1279 O1280 1.264 . S
C1279 O1287 1.249 . S
O1280 C1279 1.264 . S
O1281 Mg1274 1.986 . S
O1281 C1285 1.246 . S
O1282 Mg1277 2.032 . S
O1282 C1285 1.259 . S
O1283 Mg1274 2.114 . S
O1283 C1286 1.252 . S
O1284 Mg1274 2.251 . S
O1284 Mg1277 2.079 . S
O1284 C1286 1.273 . S
C1285 O1281 1.246 . S
C1285 O1282 1.259 . S
C1286 O1283 1.252 . S
C1286 O1284 1.273 . S
O1287 Mg1274 2.010 . S
O1287 C1279 1.249 . S
Mg1288 O1289 2.028 . S
Mg1288 O1295 1.986 . S
Mg1288 O1297 2.114 . S
Mg1288 O1298 2.251 . S
Mg1288 O1301 2.010 . S
O1289 Mg1288 2.028 . S
O1289 C1292 1.250 . S
O1290 Mg1291 2.028 . S
O1290 C1292 1.248 . S
Mg1291 O1290 2.028 . S
Mg1291 O1296 2.032 . S
Mg1291 O1298 2.079 . S
C1292 O1289 1.250 . S
C1292 O1290 1.248 . S
C1293 O1294 1.264 . S
C1293 O1301 1.249 . S
O1294 C1293 1.264 . S
O1295 Mg1288 1.986 . S
O1295 C1299 1.246 . S
O1296 Mg1291 2.032 . S
O1296 C1299 1.259 . S
O1297 Mg1288 2.114 . S
O1297 C1300 1.252 . S
O1298 Mg1288 2.251 . S
O1298 Mg1291 2.079 . S
O1298 C1300 1.273 . S
C1299 O1295 1.246 . S
C1299 O1296 1.259 . S
C1300 O1297 1.252 . S
C1300 O1298 1.273 . S
O1301 Mg1288 2.010 . S
O1301 C1293 1.249 . S
Mg1302 O1303 2.028 . S
Mg1302 O1309 1.986 . S
Mg1302 O1311 2.114 . S
Mg1302 O1312 2.251 . S
Mg1302 O1315 2.010 . S
O1303 Mg1302 2.028 . S
O1303 C1306 1.250 . S
O1304 Mg1305 2.028 . S
O1304 C1306 1.248 . S
Mg1305 O1304 2.028 . S
Mg1305 O1310 2.032 . S
Mg1305 O1312 2.079 . S
C1306 O1303 1.250 . S
C1306 O1304 1.248 . S
C1307 O1308 1.264 . S
C1307 O1315 1.249 . S
O1308 C1307 1.264 . S
O1309 Mg1302 1.986 . S
O1309 C1313 1.246 . S
O1310 Mg1305 2.032 . S
O1310 C1313 1.259 . S
O1311 Mg1302 2.114 . S
O1311 C1314 1.252 . S
O1312 Mg1302 2.251 . S
O1312 Mg1305 2.079 . S
O1312 C1314 1.273 . S
C1313 O1309 1.246 . S
C1313 O1310 1.259 . S
C1314 O1311 1.252 . S
C1314 O1312 1.273 . S
O1315 Mg1302 2.010 . S
O1315 C1307 1.249 . S
Mg1316 O1317 2.028 . S
Mg1316 O1323 1.986 . S
Mg1316 O1325 2.114 . S
Mg1316 O1326 2.251 . S
Mg1316 O1329 2.010 . S
O1317 Mg1316 2.028 . S
O1317 C1320 1.250 . S
O1318 Mg1319 2.028 . S
O1318 C1320 1.248 . S
Mg1319 O1318 2.028 . S
Mg1319 O1324 2.032 . S
Mg1319 O1326 2.079 . S
C1320 O1317 1.250 . S
C1320 O1318 1.248 . S
C1321 O1322 1.264 . S
C1321 O1329 1.249 . S
O1322 C1321 1.264 . S
O1323 Mg1316 1.986 . S
O1323 C1327 1.246 . S
O1324 Mg1319 2.032 . S
O1324 C1327 1.259 . S
O1325 Mg1316 2.114 . S
O1325 C1328 1.252 . S
O1326 Mg1316 2.251 . S
O1326 Mg1319 2.079 . S
O1326 C1328 1.273 . S
C1327 O1323 1.246 . S
C1327 O1324 1.259 . S
C1328 O1325 1.252 . S
C1328 O1326 1.273 . S
O1329 Mg1316 2.010 . S
O1329 C1321 1.249 . S
Mg1330 O1331 2.028 . S
Mg1330 O1337 1.986 . S
Mg1330 O1339 2.114 . S
Mg1330 O1340 2.251 . S
Mg1330 O1343 2.010 . S
O1331 Mg1330 2.028 . S
O1331 C1334 1.250 . S
O1332 Mg1333 2.028 . S
O1332 C1334 1.248 . S
Mg1333 O1332 2.028 . S
Mg1333 O1338 2.032 . S
Mg1333 O1340 2.079 . S
C1334 O1331 1.250 . S
C1334 O1332 1.248 . S
C1335 O1336 1.264 . S
C1335 O1343 1.249 . S
O1336 C1335 1.264 . S
O1337 Mg1330 1.986 . S
O1337 C1341 1.246 . S
O1338 Mg1333 2.032 . S
O1338 C1341 1.259 . S
O1339 Mg1330 2.114 . S
O1339 C1342 1.252 . S
O1340 Mg1330 2.251 . S
O1340 Mg1333 2.079 . S
O1340 C1342 1.273 . S
C1341 O1337 1.246 . S
C1341 O1338 1.259 . S
C1342 O1339 1.252 . S
C1342 O1340 1.273 . S
O1343 Mg1330 2.010 . S
O1343 C1335 1.249 . S
H1344 C1350 0.930 . S
H1345 C1354 0.930 . S
H1346 C1359 0.929 . S
H1347 C1357 0.929 . S
H1348 C1352 0.929 . S
H1349 C1358 0.929 . S
C1350 H1344 0.930 . S
C1350 C1351 1.367 . S
C1350 C1358 1.378 . S
C1351 C1350 1.367 . S
C1351 C1359 1.433 . S
C1352 H1348 0.929 . S
C1352 C1354 1.378 . S
C1352 C1356 1.350 . S
C1353 C1356 1.463 . S
C1353 C1358 1.350 . S
C1353 N1361 1.427 . S
C1354 H1345 0.930 . S
C1354 C1352 1.378 . S
C1354 C1355 1.367 . S
C1355 C1354 1.367 . S
C1355 C1357 1.433 . S
C1356 C1352 1.350 . S
C1356 C1353 1.463 . S
C1356 N1360 1.427 . S
C1357 H1347 0.929 . S
C1357 C1355 1.433 . S
C1357 N1360 1.384 . S
C1358 H1349 0.929 . S
C1358 C1350 1.378 . S
C1358 C1353 1.350 . S
C1359 H1346 0.929 . S
C1359 C1351 1.433 . S
C1359 N1361 1.384 . S
N1360 C1356 1.427 . S
N1360 C1357 1.384 . S
N1361 C1353 1.427 . S
N1361 C1359 1.384 . S
H1362 C1368 0.930 . S
H1363 C1372 0.930 . S
H1364 C1377 0.929 . S
H1365 C1375 0.929 . S
H1366 C1370 0.929 . S
H1367 C1376 0.929 . S
C1368 H1362 0.930 . S
C1368 C1369 1.367 . S
C1368 C1376 1.378 . S
C1369 C1368 1.367 . S
C1369 C1377 1.433 . S
C1370 H1366 0.929 . S
C1370 C1372 1.378 . S
C1370 C1374 1.350 . S
C1371 C1374 1.463 . S
C1371 C1376 1.350 . S
C1371 N1379 1.427 . S
C1372 H1363 0.930 . S
C1372 C1370 1.378 . S
C1372 C1373 1.367 . S
C1373 C1372 1.367 . S
C1373 C1375 1.433 . S
C1374 C1370 1.350 . S
C1374 C1371 1.463 . S
C1374 N1378 1.427 . S
C1375 H1365 0.929 . S
C1375 C1373 1.433 . S
C1375 N1378 1.384 . S
C1376 H1367 0.929 . S
C1376 C1368 1.378 . S
C1376 C1371 1.350 . S
C1377 H1364 0.929 . S
C1377 C1369 1.433 . S
C1377 N1379 1.384 . S
N1378 C1374 1.427 . S
N1378 C1375 1.384 . S
N1379 C1371 1.427 . S
N1379 C1377 1.384 . S
H1380 C1386 0.930 . S
H1381 C1390 0.930 . S
H1382 C1395 0.929 . S
H1383 C1393 0.929 . S
H1384 C1388 0.929 . S
H1385 C1394 0.929 . S
C1386 H1380 0.930 . S
C1386 C1387 1.367 . S
C1386 C1394 1.378 . S
C1387 C1386 1.367 . S
C1387 C1395 1.433 . S
C1388 H1384 0.929 . S
C1388 C1390 1.378 . S
C1388 C1392 1.350 . S
C1389 C1392 1.463 . S
C1389 C1394 1.350 . S
C1389 N1397 1.427 . S
C1390 H1381 0.930 . S
C1390 C1388 1.378 . S
C1390 C1391 1.367 . S
C1391 C1390 1.367 . S
C1391 C1393 1.433 . S
C1392 C1388 1.350 . S
C1392 C1389 1.463 . S
C1392 N1396 1.427 . S
C1393 H1383 0.929 . S
C1393 C1391 1.433 . S
C1393 N1396 1.384 . S
C1394 H1385 0.929 . S
C1394 C1386 1.378 . S
C1394 C1389 1.350 . S
C1395 H1382 0.929 . S
C1395 C1387 1.433 . S
C1395 N1397 1.384 . S
N1396 C1392 1.427 . S
N1396 C1393 1.384 . S
N1397 C1389 1.427 . S
N1397 C1395 1.384 . S
H1398 C1404 0.930 . S
H1399 C1408 0.930 . S
H1400 C1413 0.929 . S
H1401 C1411 0.929 . S
H1402 C1406 0.929 . S
H1403 C1412 0.929 . S
C1404 H1398 0.930 . S
C1404 C1405 1.367 . S
C1404 C1412 1.378 . S
C1405 C1404 1.367 . S
C1405 C1413 1.433 . S
C1406 H1402 0.929 . S
C1406 C1408 1.378 . S
C1406 C1410 1.350 . S
C1407 C1410 1.463 . S
C1407 C1412 1.350 . S
C1407 N1415 1.427 . S
C1408 H1399 0.930 . S
C1408 C1406 1.378 . S
C1408 C1409 1.367 . S
C1409 C1408 1.367 . S
C1409 C1411 1.433 . S
C1410 C1406 1.350 . S
C1410 C1407 1.463 . S
C1410 N1414 1.427 . S
C1411 H1401 0.929 . S
C1411 C1409 1.433 . S
C1411 N1414 1.384 . S
C1412 H1403 0.929 . S
C1412 C1404 1.378 . S
C1412 C1407 1.350 . S
C1413 H1400 0.929 . S
C1413 C1405 1.433 . S
C1413 N1415 1.384 . S
N1414 C1410 1.427 . S
N1414 C1411 1.384 . S
N1415 C1407 1.427 . S
N1415 C1413 1.384 . S
H1416 C1422 0.930 . S
H1417 C1426 0.930 . S
H1418 C1431 0.929 . S
H1419 C1429 0.929 . S
H1420 C1424 0.929 . S
H1421 C1430 0.929 . S
C1422 H1416 0.930 . S
C1422 C1423 1.367 . S
C1422 C1430 1.378 . S
C1423 C1422 1.367 . S
C1423 C1431 1.433 . S
C1424 H1420 0.929 . S
C1424 C1426 1.378 . S
C1424 C1428 1.350 . S
C1425 C1428 1.463 . S
C1425 C1430 1.350 . S
C1425 N1433 1.427 . S
C1426 H1417 0.930 . S
C1426 C1424 1.378 . S
C1426 C1427 1.367 . S
C1427 C1426 1.367 . S
C1427 C1429 1.433 . S
C1428 C1424 1.350 . S
C1428 C1425 1.463 . S
C1428 N1432 1.427 . S
C1429 H1419 0.929 . S
C1429 C1427 1.433 . S
C1429 N1432 1.384 . S
C1430 H1421 0.929 . S
C1430 C1422 1.378 . S
C1430 C1425 1.350 . S
C1431 H1418 0.929 . S
C1431 C1423 1.433 . S
C1431 N1433 1.384 . S
N1432 C1428 1.427 . S
N1432 C1429 1.384 . S
N1433 C1425 1.427 . S
N1433 C1431 1.384 . S
H1434 C1440 0.930 . S
H1435 C1444 0.930 . S
H1436 C1449 0.929 . S
H1437 C1447 0.929 . S
H1438 C1442 0.929 . S
H1439 C1448 0.929 . S
C1440 H1434 0.930 . S
C1440 C1441 1.367 . S
C1440 C1448 1.378 . S
C1441 C1440 1.367 . S
C1441 C1449 1.433 . S
C1442 H1438 0.929 . S
C1442 C1444 1.378 . S
C1442 C1446 1.350 . S
C1443 C1446 1.463 . S
C1443 C1448 1.350 . S
C1443 N1451 1.427 . S
C1444 H1435 0.930 . S
C1444 C1442 1.378 . S
C1444 C1445 1.367 . S
C1445 C1444 1.367 . S
C1445 C1447 1.433 . S
C1446 C1442 1.350 . S
C1446 C1443 1.463 . S
C1446 N1450 1.427 . S
C1447 H1437 0.929 . S
C1447 C1445 1.433 . S
C1447 N1450 1.384 . S
C1448 H1439 0.929 . S
C1448 C1440 1.378 . S
C1448 C1443 1.350 . S
C1449 H1436 0.929 . S
C1449 C1441 1.433 . S
C1449 N1451 1.384 . S
N1450 C1446 1.427 . S
N1450 C1447 1.384 . S
N1451 C1443 1.427 . S
N1451 C1449 1.384 . S
H1452 C1458 0.930 . S
H1453 C1462 0.930 . S
H1454 C1467 0.929 . S
H1455 C1465 0.929 . S
H1456 C1460 0.929 . S
H1457 C1466 0.929 . S
C1458 H1452 0.930 . S
C1458 C1459 1.367 . S
C1458 C1466 1.378 . S
C1459 C1458 1.367 . S
C1459 C1467 1.433 . S
C1460 H1456 0.929 . S
C1460 C1462 1.378 . S
C1460 C1464 1.350 . S
C1461 C1464 1.463 . S
C1461 C1466 1.350 . S
C1461 N1469 1.427 . S
C1462 H1453 0.930 . S
C1462 C1460 1.378 . S
C1462 C1463 1.367 . S
C1463 C1462 1.367 . S
C1463 C1465 1.433 . S
C1464 C1460 1.350 . S
C1464 C1461 1.463 . S
C1464 N1468 1.427 . S
C1465 H1455 0.929 . S
C1465 C1463 1.433 . S
C1465 N1468 1.384 . S
C1466 H1457 0.929 . S
C1466 C1458 1.378 . S
C1466 C1461 1.350 . S
C1467 H1454 0.929 . S
C1467 C1459 1.433 . S
C1467 N1469 1.384 . S
N1468 C1464 1.427 . S
N1468 C1465 1.384 . S
N1469 C1461 1.427 . S
N1469 C1467 1.384 . S
H1470 C1476 0.930 . S
H1471 C1480 0.930 . S
H1472 C1485 0.929 . S
H1473 C1483 0.929 . S
H1474 C1478 0.929 . S
H1475 C1484 0.929 . S
C1476 H1470 0.930 . S
C1476 C1477 1.367 . S
C1476 C1484 1.378 . S
C1477 C1476 1.367 . S
C1477 C1485 1.433 . S
C1478 H1474 0.929 . S
C1478 C1480 1.378 . S
C1478 C1482 1.350 . S
C1479 C1482 1.463 . S
C1479 C1484 1.350 . S
C1479 N1487 1.427 . S
C1480 H1471 0.930 . S
C1480 C1478 1.378 . S
C1480 C1481 1.367 . S
C1481 C1480 1.367 . S
C1481 C1483 1.433 . S
C1482 C1478 1.350 . S
C1482 C1479 1.463 . S
C1482 N1486 1.427 . S
C1483 H1473 0.929 . S
C1483 C1481 1.433 . S
C1483 N1486 1.384 . S
C1484 H1475 0.929 . S
C1484 C1476 1.378 . S
C1484 C1479 1.350 . S
C1485 H1472 0.929 . S
C1485 C1477 1.433 . S
C1485 N1487 1.384 . S
N1486 C1482 1.427 . S
N1486 C1483 1.384 . S
N1487 C1479 1.427 . S
N1487 C1485 1.384 . S
H1488 C1494 0.930 . S
H1489 C1498 0.930 . S
H1490 C1503 0.929 . S
H1491 C1501 0.929 . S
H1492 C1496 0.929 . S
H1493 C1502 0.929 . S
C1494 H1488 0.930 . S
C1494 C1495 1.367 . S
C1494 C1502 1.378 . S
C1495 C1494 1.367 . S
C1495 C1503 1.433 . S
C1496 H1492 0.929 . S
C1496 C1498 1.378 . S
C1496 C1500 1.350 . S
C1497 C1500 1.463 . S
C1497 C1502 1.350 . S
C1497 N1505 1.427 . S
C1498 H1489 0.930 . S
C1498 C1496 1.378 . S
C1498 C1499 1.367 . S
C1499 C1498 1.367 . S
C1499 C1501 1.433 . S
C1500 C1496 1.350 . S
C1500 C1497 1.463 . S
C1500 N1504 1.427 . S
C1501 H1491 0.929 . S
C1501 C1499 1.433 . S
C1501 N1504 1.384 . S
C1502 H1493 0.929 . S
C1502 C1494 1.378 . S
C1502 C1497 1.350 . S
C1503 H1490 0.929 . S
C1503 C1495 1.433 . S
C1503 N1505 1.384 . S
N1504 C1500 1.427 . S
N1504 C1501 1.384 . S
N1505 C1497 1.427 . S
N1505 C1503 1.384 . S
H1506 C1512 0.930 . S
H1507 C1516 0.930 . S
H1508 C1521 0.929 . S
H1509 C1519 0.929 . S
H1510 C1514 0.929 . S
H1511 C1520 0.929 . S
C1512 H1506 0.930 . S
C1512 C1513 1.367 . S
C1512 C1520 1.378 . S
C1513 C1512 1.367 . S
C1513 C1521 1.433 . S
C1514 H1510 0.929 . S
C1514 C1516 1.378 . S
C1514 C1518 1.350 . S
C1515 C1518 1.463 . S
C1515 C1520 1.350 . S
C1515 N1523 1.427 . S
C1516 H1507 0.930 . S
C1516 C1514 1.378 . S
C1516 C1517 1.367 . S
C1517 C1516 1.367 . S
C1517 C1519 1.433 . S
C1518 C1514 1.350 . S
C1518 C1515 1.463 . S
C1518 N1522 1.427 . S
C1519 H1509 0.929 . S
C1519 C1517 1.433 . S
C1519 N1522 1.384 . S
C1520 H1511 0.929 . S
C1520 C1512 1.378 . S
C1520 C1515 1.350 . S
C1521 H1508 0.929 . S
C1521 C1513 1.433 . S
C1521 N1523 1.384 . S
N1522 C1518 1.427 . S
N1522 C1519 1.384 . S
N1523 C1515 1.427 . S
N1523 C1521 1.384 . S
H1524 C1530 0.930 . S
H1525 C1534 0.930 . S
H1526 C1539 0.929 . S
H1527 C1537 0.929 . S
H1528 C1532 0.929 . S
H1529 C1538 0.929 . S
C1530 H1524 0.930 . S
C1530 C1531 1.367 . S
C1530 C1538 1.378 . S
C1531 C1530 1.367 . S
C1531 C1539 1.433 . S
C1532 H1528 0.929 . S
C1532 C1534 1.378 . S
C1532 C1536 1.350 . S
C1533 C1536 1.463 . S
C1533 C1538 1.350 . S
C1533 N1541 1.427 . S
C1534 H1525 0.930 . S
C1534 C1532 1.378 . S
C1534 C1535 1.367 . S
C1535 C1534 1.367 . S
C1535 C1537 1.433 . S
C1536 C1532 1.350 . S
C1536 C1533 1.463 . S
C1536 N1540 1.427 . S
C1537 H1527 0.929 . S
C1537 C1535 1.433 . S
C1537 N1540 1.384 . S
C1538 H1529 0.929 . S
C1538 C1530 1.378 . S
C1538 C1533 1.350 . S
C1539 H1526 0.929 . S
C1539 C1531 1.433 . S
C1539 N1541 1.384 . S
N1540 C1536 1.427 . S
N1540 C1537 1.384 . S
N1541 C1533 1.427 . S
N1541 C1539 1.384 . S
H1542 C1548 0.930 . S
H1543 C1552 0.930 . S
H1544 C1557 0.929 . S
H1545 C1555 0.929 . S
H1546 C1550 0.929 . S
H1547 C1556 0.929 . S
C1548 H1542 0.930 . S
C1548 C1549 1.367 . S
C1548 C1556 1.378 . S
C1549 C1548 1.367 . S
C1549 C1557 1.433 . S
C1550 H1546 0.929 . S
C1550 C1552 1.378 . S
C1550 C1554 1.350 . S
C1551 C1554 1.463 . S
C1551 C1556 1.350 . S
C1551 N1559 1.427 . S
C1552 H1543 0.930 . S
C1552 C1550 1.378 . S
C1552 C1553 1.367 . S
C1553 C1552 1.367 . S
C1553 C1555 1.433 . S
C1554 C1550 1.350 . S
C1554 C1551 1.463 . S
C1554 N1558 1.427 . S
C1555 H1545 0.929 . S
C1555 C1553 1.433 . S
C1555 N1558 1.384 . S
C1556 H1547 0.929 . S
C1556 C1548 1.378 . S
C1556 C1551 1.350 . S
C1557 H1544 0.929 . S
C1557 C1549 1.433 . S
C1557 N1559 1.384 . S
N1558 C1554 1.427 . S
N1558 C1555 1.384 . S
N1559 C1551 1.427 . S
N1559 C1557 1.384 . S
H1560 C1566 0.930 . S
H1561 C1570 0.930 . S
H1562 C1575 0.929 . S
H1563 C1573 0.929 . S
H1564 C1568 0.929 . S
H1565 C1574 0.929 . S
C1566 H1560 0.930 . S
C1566 C1567 1.367 . S
C1566 C1574 1.378 . S
C1567 C1566 1.367 . S
C1567 C1575 1.433 . S
C1568 H1564 0.929 . S
C1568 C1570 1.378 . S
C1568 C1572 1.350 . S
C1569 C1572 1.463 . S
C1569 C1574 1.350 . S
C1569 N1577 1.427 . S
C1570 H1561 0.930 . S
C1570 C1568 1.378 . S
C1570 C1571 1.367 . S
C1571 C1570 1.367 . S
C1571 C1573 1.433 . S
C1572 C1568 1.350 . S
C1572 C1569 1.463 . S
C1572 N1576 1.427 . S
C1573 H1563 0.929 . S
C1573 C1571 1.433 . S
C1573 N1576 1.384 . S
C1574 H1565 0.929 . S
C1574 C1566 1.378 . S
C1574 C1569 1.350 . S
C1575 H1562 0.929 . S
C1575 C1567 1.433 . S
C1575 N1577 1.384 . S
N1576 C1572 1.427 . S
N1576 C1573 1.384 . S
N1577 C1569 1.427 . S
N1577 C1575 1.384 . S
H1578 C1584 0.930 . S
H1579 C1588 0.930 . S
H1580 C1593 0.929 . S
H1581 C1591 0.929 . S
H1582 C1586 0.929 . S
H1583 C1592 0.929 . S
C1584 H1578 0.930 . S
C1584 C1585 1.367 . S
C1584 C1592 1.378 . S
C1585 C1584 1.367 . S
C1585 C1593 1.433 . S
C1586 H1582 0.929 . S
C1586 C1588 1.378 . S
C1586 C1590 1.350 . S
C1587 C1590 1.463 . S
C1587 C1592 1.350 . S
C1587 N1595 1.427 . S
C1588 H1579 0.930 . S
C1588 C1586 1.378 . S
C1588 C1589 1.367 . S
C1589 C1588 1.367 . S
C1589 C1591 1.433 . S
C1590 C1586 1.350 . S
C1590 C1587 1.463 . S
C1590 N1594 1.427 . S
C1591 H1581 0.929 . S
C1591 C1589 1.433 . S
C1591 N1594 1.384 . S
C1592 H1583 0.929 . S
C1592 C1584 1.378 . S
C1592 C1587 1.350 . S
C1593 H1580 0.929 . S
C1593 C1585 1.433 . S
C1593 N1595 1.384 . S
N1594 C1590 1.427 . S
N1594 C1591 1.384 . S
N1595 C1587 1.427 . S
N1595 C1593 1.384 . S
H1596 C1602 0.930 . S
H1597 C1606 0.930 . S
H1598 C1611 0.929 . S
H1599 C1609 0.929 . S
H1600 C1604 0.929 . S
H1601 C1610 0.929 . S
C1602 H1596 0.930 . S
C1602 C1603 1.367 . S
C1602 C1610 1.378 . S
C1603 C1602 1.367 . S
C1603 C1611 1.433 . S
C1604 H1600 0.929 . S
C1604 C1606 1.378 . S
C1604 C1608 1.350 . S
C1605 C1608 1.463 . S
C1605 C1610 1.350 . S
C1605 N1613 1.427 . S
C1606 H1597 0.930 . S
C1606 C1604 1.378 . S
C1606 C1607 1.367 . S
C1607 C1606 1.367 . S
C1607 C1609 1.433 . S
C1608 C1604 1.350 . S
C1608 C1605 1.463 . S
C1608 N1612 1.427 . S
C1609 H1599 0.929 . S
C1609 C1607 1.433 . S
C1609 N1612 1.384 . S
C1610 H1601 0.929 . S
C1610 C1602 1.378 . S
C1610 C1605 1.350 . S
C1611 H1598 0.929 . S
C1611 C1603 1.433 . S
C1611 N1613 1.384 . S
N1612 C1608 1.427 . S
N1612 C1609 1.384 . S
N1613 C1605 1.427 . S
N1613 C1611 1.384 . S
H1614 C1620 0.930 . S
H1615 C1624 0.930 . S
H1616 C1629 0.929 . S
H1617 C1627 0.929 . S
H1618 C1622 0.929 . S
H1619 C1628 0.929 . S
C1620 H1614 0.930 . S
C1620 C1621 1.367 . S
C1620 C1628 1.378 . S
C1621 C1620 1.367 . S
C1621 C1629 1.433 . S
C1622 H1618 0.929 . S
C1622 C1624 1.378 . S
C1622 C1626 1.350 . S
C1623 C1626 1.463 . S
C1623 C1628 1.350 . S
C1623 N1631 1.427 . S
C1624 H1615 0.930 . S
C1624 C1622 1.378 . S
C1624 C1625 1.367 . S
C1625 C1624 1.367 . S
C1625 C1627 1.433 . S
C1626 C1622 1.350 . S
C1626 C1623 1.463 . S
C1626 N1630 1.427 . S
C1627 H1617 0.929 . S
C1627 C1625 1.433 . S
C1627 N1630 1.384 . S
C1628 H1619 0.929 . S
C1628 C1620 1.378 . S
C1628 C1623 1.350 . S
C1629 H1616 0.929 . S
C1629 C1621 1.433 . S
C1629 N1631 1.384 . S
N1630 C1626 1.427 . S
N1630 C1627 1.384 . S
N1631 C1623 1.427 . S
N1631 C1629 1.384 . S
H1632 C1638 0.930 . S
H1633 C1642 0.930 . S
H1634 C1647 0.929 . S
H1635 C1645 0.929 . S
H1636 C1640 0.929 . S
H1637 C1646 0.929 . S
C1638 H1632 0.930 . S
C1638 C1639 1.367 . S
C1638 C1646 1.378 . S
C1639 C1638 1.367 . S
C1639 C1647 1.433 . S
C1640 H1636 0.929 . S
C1640 C1642 1.378 . S
C1640 C1644 1.350 . S
C1641 C1644 1.463 . S
C1641 C1646 1.350 . S
C1641 N1649 1.427 . S
C1642 H1633 0.930 . S
C1642 C1640 1.378 . S
C1642 C1643 1.367 . S
C1643 C1642 1.367 . S
C1643 C1645 1.433 . S
C1644 C1640 1.350 . S
C1644 C1641 1.463 . S
C1644 N1648 1.427 . S
C1645 H1635 0.929 . S
C1645 C1643 1.433 . S
C1645 N1648 1.384 . S
C1646 H1637 0.929 . S
C1646 C1638 1.378 . S
C1646 C1641 1.350 . S
C1647 H1634 0.929 . S
C1647 C1639 1.433 . S
C1647 N1649 1.384 . S
N1648 C1644 1.427 . S
N1648 C1645 1.384 . S
N1649 C1641 1.427 . S
N1649 C1647 1.384 . S
H1650 C1656 0.930 . S
H1651 C1660 0.930 . S
H1652 C1665 0.929 . S
H1653 C1663 0.929 . S
H1654 C1658 0.929 . S
H1655 C1664 0.929 . S
C1656 H1650 0.930 . S
C1656 C1657 1.367 . S
C1656 C1664 1.378 . S
C1657 C1656 1.367 . S
C1657 C1665 1.433 . S
C1658 H1654 0.929 . S
C1658 C1660 1.378 . S
C1658 C1662 1.350 . S
C1659 C1662 1.463 . S
C1659 C1664 1.350 . S
C1659 N1667 1.427 . S
C1660 H1651 0.930 . S
C1660 C1658 1.378 . S
C1660 C1661 1.367 . S
C1661 C1660 1.367 . S
C1661 C1663 1.433 . S
C1662 C1658 1.350 . S
C1662 C1659 1.463 . S
C1662 N1666 1.427 . S
C1663 H1653 0.929 . S
C1663 C1661 1.433 . S
C1663 N1666 1.384 . S
C1664 H1655 0.929 . S
C1664 C1656 1.378 . S
C1664 C1659 1.350 . S
C1665 H1652 0.929 . S
C1665 C1657 1.433 . S
C1665 N1667 1.384 . S
N1666 C1662 1.427 . S
N1666 C1663 1.384 . S
N1667 C1659 1.427 . S
N1667 C1665 1.384 . S
H1668 C1674 0.930 . S
H1669 C1678 0.930 . S
H1670 C1683 0.929 . S
H1671 C1681 0.929 . S
H1672 C1676 0.929 . S
H1673 C1682 0.929 . S
C1674 H1668 0.930 . S
C1674 C1675 1.367 . S
C1674 C1682 1.378 . S
C1675 C1674 1.367 . S
C1675 C1683 1.433 . S
C1676 H1672 0.929 . S
C1676 C1678 1.378 . S
C1676 C1680 1.350 . S
C1677 C1680 1.463 . S
C1677 C1682 1.350 . S
C1677 N1685 1.427 . S
C1678 H1669 0.930 . S
C1678 C1676 1.378 . S
C1678 C1679 1.367 . S
C1679 C1678 1.367 . S
C1679 C1681 1.433 . S
C1680 C1676 1.350 . S
C1680 C1677 1.463 . S
C1680 N1684 1.427 . S
C1681 H1671 0.929 . S
C1681 C1679 1.433 . S
C1681 N1684 1.384 . S
C1682 H1673 0.929 . S
C1682 C1674 1.378 . S
C1682 C1677 1.350 . S
C1683 H1670 0.929 . S
C1683 C1675 1.433 . S
C1683 N1685 1.384 . S
N1684 C1680 1.427 . S
N1684 C1681 1.384 . S
N1685 C1677 1.427 . S
N1685 C1683 1.384 . S
H1686 C1692 0.930 . S
H1687 C1696 0.930 . S
H1688 C1701 0.929 . S
H1689 C1699 0.929 . S
H1690 C1694 0.929 . S
H1691 C1700 0.929 . S
C1692 H1686 0.930 . S
C1692 C1693 1.367 . S
C1692 C1700 1.378 . S
C1693 C1692 1.367 . S
C1693 C1701 1.433 . S
C1694 H1690 0.929 . S
C1694 C1696 1.378 . S
C1694 C1698 1.350 . S
C1695 C1698 1.463 . S
C1695 C1700 1.350 . S
C1695 N1703 1.427 . S
C1696 H1687 0.930 . S
C1696 C1694 1.378 . S
C1696 C1697 1.367 . S
C1697 C1696 1.367 . S
C1697 C1699 1.433 . S
C1698 C1694 1.350 . S
C1698 C1695 1.463 . S
C1698 N1702 1.427 . S
C1699 H1689 0.929 . S
C1699 C1697 1.433 . S
C1699 N1702 1.384 . S
C1700 H1691 0.929 . S
C1700 C1692 1.378 . S
C1700 C1695 1.350 . S
C1701 H1688 0.929 . S
C1701 C1693 1.433 . S
C1701 N1703 1.384 . S
N1702 C1698 1.427 . S
N1702 C1699 1.384 . S
N1703 C1695 1.427 . S
N1703 C1701 1.384 . S
H1704 C1710 0.930 . S
H1705 C1714 0.930 . S
H1706 C1719 0.929 . S
H1707 C1717 0.929 . S
H1708 C1712 0.929 . S
H1709 C1718 0.929 . S
C1710 H1704 0.930 . S
C1710 C1711 1.367 . S
C1710 C1718 1.378 . S
C1711 C1710 1.367 . S
C1711 C1719 1.433 . S
C1712 H1708 0.929 . S
C1712 C1714 1.378 . S
C1712 C1716 1.350 . S
C1713 C1716 1.463 . S
C1713 C1718 1.350 . S
C1713 N1721 1.427 . S
C1714 H1705 0.930 . S
C1714 C1712 1.378 . S
C1714 C1715 1.367 . S
C1715 C1714 1.367 . S
C1715 C1717 1.433 . S
C1716 C1712 1.350 . S
C1716 C1713 1.463 . S
C1716 N1720 1.427 . S
C1717 H1707 0.929 . S
C1717 C1715 1.433 . S
C1717 N1720 1.384 . S
C1718 H1709 0.929 . S
C1718 C1710 1.378 . S
C1718 C1713 1.350 . S
C1719 H1706 0.929 . S
C1719 C1711 1.433 . S
C1719 N1721 1.384 . S
N1720 C1716 1.427 . S
N1720 C1717 1.384 . S
N1721 C1713 1.427 . S
N1721 C1719 1.384 . S
H1722 C1728 0.930 . S
H1723 C1732 0.930 . S
H1724 C1737 0.929 . S
H1725 C1735 0.929 . S
H1726 C1730 0.929 . S
H1727 C1736 0.929 . S
C1728 H1722 0.930 . S
C1728 C1729 1.367 . S
C1728 C1736 1.378 . S
C1729 C1728 1.367 . S
C1729 C1737 1.433 . S
C1730 H1726 0.929 . S
C1730 C1732 1.378 . S
C1730 C1734 1.350 . S
C1731 C1734 1.463 . S
C1731 C1736 1.350 . S
C1731 N1739 1.427 . S
C1732 H1723 0.930 . S
C1732 C1730 1.378 . S
C1732 C1733 1.367 . S
C1733 C1732 1.367 . S
C1733 C1735 1.433 . S
C1734 C1730 1.350 . S
C1734 C1731 1.463 . S
C1734 N1738 1.427 . S
C1735 H1725 0.929 . S
C1735 C1733 1.433 . S
C1735 N1738 1.384 . S
C1736 H1727 0.929 . S
C1736 C1728 1.378 . S
C1736 C1731 1.350 . S
C1737 H1724 0.929 . S
C1737 C1729 1.433 . S
C1737 N1739 1.384 . S
N1738 C1734 1.427 . S
N1738 C1735 1.384 . S
N1739 C1731 1.427 . S
N1739 C1737 1.384 . S
H1740 C1746 0.930 . S
H1741 C1750 0.930 . S
H1742 C1755 0.929 . S
H1743 C1753 0.929 . S
H1744 C1748 0.929 . S
H1745 C1754 0.929 . S
C1746 H1740 0.930 . S
C1746 C1747 1.367 . S
C1746 C1754 1.378 . S
C1747 C1746 1.367 . S
C1747 C1755 1.433 . S
C1748 H1744 0.929 . S
C1748 C1750 1.378 . S
C1748 C1752 1.350 . S
C1749 C1752 1.463 . S
C1749 C1754 1.350 . S
C1749 N1757 1.427 . S
C1750 H1741 0.930 . S
C1750 C1748 1.378 . S
C1750 C1751 1.367 . S
C1751 C1750 1.367 . S
C1751 C1753 1.433 . S
C1752 C1748 1.350 . S
C1752 C1749 1.463 . S
C1752 N1756 1.427 . S
C1753 H1743 0.929 . S
C1753 C1751 1.433 . S
C1753 N1756 1.384 . S
C1754 H1745 0.929 . S
C1754 C1746 1.378 . S
C1754 C1749 1.350 . S
C1755 H1742 0.929 . S
C1755 C1747 1.433 . S
C1755 N1757 1.384 . S
N1756 C1752 1.427 . S
N1756 C1753 1.384 . S
N1757 C1749 1.427 . S
N1757 C1755 1.384 . S
H1758 C1764 0.930 . S
H1759 C1768 0.930 . S
H1760 C1773 0.929 . S
H1761 C1771 0.929 . S
H1762 C1766 0.929 . S
H1763 C1772 0.929 . S
C1764 H1758 0.930 . S
C1764 C1765 1.367 . S
C1764 C1772 1.378 . S
C1765 C1764 1.367 . S
C1765 C1773 1.433 . S
C1766 H1762 0.929 . S
C1766 C1768 1.378 . S
C1766 C1770 1.350 . S
C1767 C1770 1.463 . S
C1767 C1772 1.350 . S
C1767 N1775 1.427 . S
C1768 H1759 0.930 . S
C1768 C1766 1.378 . S
C1768 C1769 1.367 . S
C1769 C1768 1.367 . S
C1769 C1771 1.433 . S
C1770 C1766 1.350 . S
C1770 C1767 1.463 . S
C1770 N1774 1.427 . S
C1771 H1761 0.929 . S
C1771 C1769 1.433 . S
C1771 N1774 1.384 . S
C1772 H1763 0.929 . S
C1772 C1764 1.378 . S
C1772 C1767 1.350 . S
C1773 H1760 0.929 . S
C1773 C1765 1.433 . S
C1773 N1775 1.384 . S
N1774 C1770 1.427 . S
N1774 C1771 1.384 . S
N1775 C1767 1.427 . S
N1775 C1773 1.384 . S
H1776 C1782 0.930 . S
H1777 C1786 0.930 . S
H1778 C1791 0.929 . S
H1779 C1789 0.929 . S
H1780 C1784 0.929 . S
H1781 C1790 0.929 . S
C1782 H1776 0.930 . S
C1782 C1783 1.367 . S
C1782 C1790 1.378 . S
C1783 C1782 1.367 . S
C1783 C1791 1.433 . S
C1784 H1780 0.929 . S
C1784 C1786 1.378 . S
C1784 C1788 1.350 . S
C1785 C1788 1.463 . S
C1785 C1790 1.350 . S
C1785 N1793 1.427 . S
C1786 H1777 0.930 . S
C1786 C1784 1.378 . S
C1786 C1787 1.367 . S
C1787 C1786 1.367 . S
C1787 C1789 1.433 . S
C1788 C1784 1.350 . S
C1788 C1785 1.463 . S
C1788 N1792 1.427 . S
C1789 H1779 0.929 . S
C1789 C1787 1.433 . S
C1789 N1792 1.384 . S
C1790 H1781 0.929 . S
C1790 C1782 1.378 . S
C1790 C1785 1.350 . S
C1791 H1778 0.929 . S
C1791 C1783 1.433 . S
C1791 N1793 1.384 . S
N1792 C1788 1.427 . S
N1792 C1789 1.384 . S
N1793 C1785 1.427 . S
N1793 C1791 1.384 . S
H1794 C1800 0.930 . S
H1795 C1804 0.930 . S
H1796 C1809 0.929 . S
H1797 C1807 0.929 . S
H1798 C1802 0.929 . S
H1799 C1808 0.929 . S
C1800 H1794 0.930 . S
C1800 C1801 1.367 . S
C1800 C1808 1.378 . S
C1801 C1800 1.367 . S
C1801 C1809 1.433 . S
C1802 H1798 0.929 . S
C1802 C1804 1.378 . S
C1802 C1806 1.350 . S
C1803 C1806 1.463 . S
C1803 C1808 1.350 . S
C1803 N1811 1.427 . S
C1804 H1795 0.930 . S
C1804 C1802 1.378 . S
C1804 C1805 1.367 . S
C1805 C1804 1.367 . S
C1805 C1807 1.433 . S
C1806 C1802 1.350 . S
C1806 C1803 1.463 . S
C1806 N1810 1.427 . S
C1807 H1797 0.929 . S
C1807 C1805 1.433 . S
C1807 N1810 1.384 . S
C1808 H1799 0.929 . S
C1808 C1800 1.378 . S
C1808 C1803 1.350 . S
C1809 H1796 0.929 . S
C1809 C1801 1.433 . S
C1809 N1811 1.384 . S
N1810 C1806 1.427 . S
N1810 C1807 1.384 . S
N1811 C1803 1.427 . S
N1811 C1809 1.384 . S
H1812 C1818 0.930 . S
H1813 C1822 0.930 . S
H1814 C1827 0.929 . S
H1815 C1825 0.929 . S
H1816 C1820 0.929 . S
H1817 C1826 0.929 . S
C1818 H1812 0.930 . S
C1818 C1819 1.367 . S
C1818 C1826 1.378 . S
C1819 C1818 1.367 . S
C1819 C1827 1.433 . S
C1820 H1816 0.929 . S
C1820 C1822 1.378 . S
C1820 C1824 1.350 . S
C1821 C1824 1.463 . S
C1821 C1826 1.350 . S
C1821 N1829 1.427 . S
C1822 H1813 0.930 . S
C1822 C1820 1.378 . S
C1822 C1823 1.367 . S
C1823 C1822 1.367 . S
C1823 C1825 1.433 . S
C1824 C1820 1.350 . S
C1824 C1821 1.463 . S
C1824 N1828 1.427 . S
C1825 H1815 0.929 . S
C1825 C1823 1.433 . S
C1825 N1828 1.384 . S
C1826 H1817 0.929 . S
C1826 C1818 1.378 . S
C1826 C1821 1.350 . S
C1827 H1814 0.929 . S
C1827 C1819 1.433 . S
C1827 N1829 1.384 . S
N1828 C1824 1.427 . S
N1828 C1825 1.384 . S
N1829 C1821 1.427 . S
N1829 C1827 1.384 . S
H1830 C1836 0.930 . S
H1831 C1840 0.930 . S
H1832 C1845 0.929 . S
H1833 C1843 0.929 . S
H1834 C1838 0.929 . S
H1835 C1844 0.929 . S
C1836 H1830 0.930 . S
C1836 C1837 1.367 . S
C1836 C1844 1.378 . S
C1837 C1836 1.367 . S
C1837 C1845 1.433 . S
C1838 H1834 0.929 . S
C1838 C1840 1.378 . S
C1838 C1842 1.350 . S
C1839 C1842 1.463 . S
C1839 C1844 1.350 . S
C1839 N1847 1.427 . S
C1840 H1831 0.930 . S
C1840 C1838 1.378 . S
C1840 C1841 1.367 . S
C1841 C1840 1.367 . S
C1841 C1843 1.433 . S
C1842 C1838 1.350 . S
C1842 C1839 1.463 . S
C1842 N1846 1.427 . S
C1843 H1833 0.929 . S
C1843 C1841 1.433 . S
C1843 N1846 1.384 . S
C1844 H1835 0.929 . S
C1844 C1836 1.378 . S
C1844 C1839 1.350 . S
C1845 H1832 0.929 . S
C1845 C1837 1.433 . S
C1845 N1847 1.384 . S
N1846 C1842 1.427 . S
N1846 C1843 1.384 . S
N1847 C1839 1.427 . S
N1847 C1845 1.384 . S
H1848 C1854 0.930 . S
H1849 C1858 0.930 . S
H1850 C1863 0.929 . S
H1851 C1861 0.929 . S
H1852 C1856 0.929 . S
H1853 C1862 0.929 . S
C1854 H1848 0.930 . S
C1854 C1855 1.367 . S
C1854 C1862 1.378 . S
C1855 C1854 1.367 . S
C1855 C1863 1.433 . S
C1856 H1852 0.929 . S
C1856 C1858 1.378 . S
C1856 C1860 1.350 . S
C1857 C1860 1.463 . S
C1857 C1862 1.350 . S
C1857 N1865 1.427 . S
C1858 H1849 0.930 . S
C1858 C1856 1.378 . S
C1858 C1859 1.367 . S
C1859 C1858 1.367 . S
C1859 C1861 1.433 . S
C1860 C1856 1.350 . S
C1860 C1857 1.463 . S
C1860 N1864 1.427 . S
C1861 H1851 0.929 . S
C1861 C1859 1.433 . S
C1861 N1864 1.384 . S
C1862 H1853 0.929 . S
C1862 C1854 1.378 . S
C1862 C1857 1.350 . S
C1863 H1850 0.929 . S
C1863 C1855 1.433 . S
C1863 N1865 1.384 . S
N1864 C1860 1.427 . S
N1864 C1861 1.384 . S
N1865 C1857 1.427 . S
N1865 C1863 1.384 . S
H1866 C1872 0.930 . S
H1867 C1876 0.930 . S
H1868 C1881 0.929 . S
H1869 C1879 0.929 . S
H1870 C1874 0.929 . S
H1871 C1880 0.929 . S
C1872 H1866 0.930 . S
C1872 C1873 1.367 . S
C1872 C1880 1.378 . S
C1873 C1872 1.367 . S
C1873 C1881 1.433 . S
C1874 H1870 0.929 . S
C1874 C1876 1.378 . S
C1874 C1878 1.350 . S
C1875 C1878 1.463 . S
C1875 C1880 1.350 . S
C1875 N1883 1.427 . S
C1876 H1867 0.930 . S
C1876 C1874 1.378 . S
C1876 C1877 1.367 . S
C1877 C1876 1.367 . S
C1877 C1879 1.433 . S
C1878 C1874 1.350 . S
C1878 C1875 1.463 . S
C1878 N1882 1.427 . S
C1879 H1869 0.929 . S
C1879 C1877 1.433 . S
C1879 N1882 1.384 . S
C1880 H1871 0.929 . S
C1880 C1872 1.378 . S
C1880 C1875 1.350 . S
C1881 H1868 0.929 . S
C1881 C1873 1.433 . S
C1881 N1883 1.384 . S
N1882 C1878 1.427 . S
N1882 C1879 1.384 . S
N1883 C1875 1.427 . S
N1883 C1881 1.384 . S
H1884 C1890 0.930 . S
H1885 C1894 0.930 . S
H1886 C1899 0.929 . S
H1887 C1897 0.929 . S
H1888 C1892 0.929 . S
H1889 C1898 0.929 . S
C1890 H1884 0.930 . S
C1890 C1891 1.367 . S
C1890 C1898 1.378 . S
C1891 C1890 1.367 . S
C1891 C1899 1.433 . S
C1892 H1888 0.929 . S
C1892 C1894 1.378 . S
C1892 C1896 1.350 . S
C1893 C1896 1.463 . S
C1893 C1898 1.350 . S
C1893 N1901 1.427 . S
C1894 H1885 0.930 . S
C1894 C1892 1.378 . S
C1894 C1895 1.367 . S
C1895 C1894 1.367 . S
C1895 C1897 1.433 . S
C1896 C1892 1.350 . S
C1896 C1893 1.463 . S
C1896 N1900 1.427 . S
C1897 H1887 0.929 . S
C1897 C1895 1.433 . S
C1897 N1900 1.384 . S
C1898 H1889 0.929 . S
C1898 C1890 1.378 . S
C1898 C1893 1.350 . S
C1899 H1886 0.929 . S
C1899 C1891 1.433 . S
C1899 N1901 1.384 . S
N1900 C1896 1.427 . S
N1900 C1897 1.384 . S
N1901 C1893 1.427 . S
N1901 C1899 1.384 . S
H1902 C1908 0.930 . S
H1903 C1912 0.930 . S
H1904 C1917 0.929 . S
H1905 C1915 0.929 . S
H1906 C1910 0.929 . S
H1907 C1916 0.929 . S
C1908 H1902 0.930 . S
C1908 C1909 1.367 . S
C1908 C1916 1.378 . S
C1909 C1908 1.367 . S
C1909 C1917 1.433 . S
C1910 H1906 0.929 . S
C1910 C1912 1.378 . S
C1910 C1914 1.350 . S
C1911 C1914 1.463 . S
C1911 C1916 1.350 . S
C1911 N1919 1.427 . S
C1912 H1903 0.930 . S
C1912 C1910 1.378 . S
C1912 C1913 1.367 . S
C1913 C1912 1.367 . S
C1913 C1915 1.433 . S
C1914 C1910 1.350 . S
C1914 C1911 1.463 . S
C1914 N1918 1.427 . S
C1915 H1905 0.929 . S
C1915 C1913 1.433 . S
C1915 N1918 1.384 . S
C1916 H1907 0.929 . S
C1916 C1908 1.378 . S
C1916 C1911 1.350 . S
C1917 H1904 0.929 . S
C1917 C1909 1.433 . S
C1917 N1919 1.384 . S
N1918 C1914 1.427 . S
N1918 C1915 1.384 . S
N1919 C1911 1.427 . S
N1919 C1917 1.384 . S
H1920 C1926 0.930 . S
H1921 C1930 0.930 . S
H1922 C1935 0.929 . S
H1923 C1933 0.929 . S
H1924 C1928 0.929 . S
H1925 C1934 0.929 . S
C1926 H1920 0.930 . S
C1926 C1927 1.367 . S
C1926 C1934 1.378 . S
C1927 C1926 1.367 . S
C1927 C1935 1.433 . S
C1928 H1924 0.929 . S
C1928 C1930 1.378 . S
C1928 C1932 1.350 . S
C1929 C1932 1.463 . S
C1929 C1934 1.350 . S
C1929 N1937 1.427 . S
C1930 H1921 0.930 . S
C1930 C1928 1.378 . S
C1930 C1931 1.367 . S
C1931 C1930 1.367 . S
C1931 C1933 1.433 . S
C1932 C1928 1.350 . S
C1932 C1929 1.463 . S
C1932 N1936 1.427 . S
C1933 H1923 0.929 . S
C1933 C1931 1.433 . S
C1933 N1936 1.384 . S
C1934 H1925 0.929 . S
C1934 C1926 1.378 . S
C1934 C1929 1.350 . S
C1935 H1922 0.929 . S
C1935 C1927 1.433 . S
C1935 N1937 1.384 . S
N1936 C1932 1.427 . S
N1936 C1933 1.384 . S
N1937 C1929 1.427 . S
N1937 C1935 1.384 . S
H1938 C1944 0.930 . S
H1939 C1948 0.930 . S
H1940 C1953 0.929 . S
H1941 C1951 0.929 . S
H1942 C1946 0.929 . S
H1943 C1952 0.929 . S
C1944 H1938 0.930 . S
C1944 C1945 1.367 . S
C1944 C1952 1.378 . S
C1945 C1944 1.367 . S
C1945 C1953 1.433 . S
C1946 H1942 0.929 . S
C1946 C1948 1.378 . S
C1946 C1950 1.350 . S
C1947 C1950 1.463 . S
C1947 C1952 1.350 . S
C1947 N1955 1.427 . S
C1948 H1939 0.930 . S
C1948 C1946 1.378 . S
C1948 C1949 1.367 . S
C1949 C1948 1.367 . S
C1949 C1951 1.433 . S
C1950 C1946 1.350 . S
C1950 C1947 1.463 . S
C1950 N1954 1.427 . S
C1951 H1941 0.929 . S
C1951 C1949 1.433 . S
C1951 N1954 1.384 . S
C1952 H1943 0.929 . S
C1952 C1944 1.378 . S
C1952 C1947 1.350 . S
C1953 H1940 0.929 . S
C1953 C1945 1.433 . S
C1953 N1955 1.384 . S
N1954 C1950 1.427 . S
N1954 C1951 1.384 . S
N1955 C1947 1.427 . S
N1955 C1953 1.384 . S
H1956 C1962 0.930 . S
H1957 C1966 0.930 . S
H1958 C1971 0.929 . S
H1959 C1969 0.929 . S
H1960 C1964 0.929 . S
H1961 C1970 0.929 . S
C1962 H1956 0.930 . S
C1962 C1963 1.367 . S
C1962 C1970 1.378 . S
C1963 C1962 1.367 . S
C1963 C1971 1.433 . S
C1964 H1960 0.929 . S
C1964 C1966 1.378 . S
C1964 C1968 1.350 . S
C1965 C1968 1.463 . S
C1965 C1970 1.350 . S
C1965 N1973 1.427 . S
C1966 H1957 0.930 . S
C1966 C1964 1.378 . S
C1966 C1967 1.367 . S
C1967 C1966 1.367 . S
C1967 C1969 1.433 . S
C1968 C1964 1.350 . S
C1968 C1965 1.463 . S
C1968 N1972 1.427 . S
C1969 H1959 0.929 . S
C1969 C1967 1.433 . S
C1969 N1972 1.384 . S
C1970 H1961 0.929 . S
C1970 C1962 1.378 . S
C1970 C1965 1.350 . S
C1971 H1958 0.929 . S
C1971 C1963 1.433 . S
C1971 N1973 1.384 . S
N1972 C1968 1.427 . S
N1972 C1969 1.384 . S
N1973 C1965 1.427 . S
N1973 C1971 1.384 . S
H1974 C1980 0.930 . S
H1975 C1984 0.930 . S
H1976 C1989 0.929 . S
H1977 C1987 0.929 . S
H1978 C1982 0.929 . S
H1979 C1988 0.929 . S
C1980 H1974 0.930 . S
C1980 C1981 1.367 . S
C1980 C1988 1.378 . S
C1981 C1980 1.367 . S
C1981 C1989 1.433 . S
C1982 H1978 0.929 . S
C1982 C1984 1.378 . S
C1982 C1986 1.350 . S
C1983 C1986 1.463 . S
C1983 C1988 1.350 . S
C1983 N1991 1.427 . S
C1984 H1975 0.930 . S
C1984 C1982 1.378 . S
C1984 C1985 1.367 . S
C1985 C1984 1.367 . S
C1985 C1987 1.433 . S
C1986 C1982 1.350 . S
C1986 C1983 1.463 . S
C1986 N1990 1.427 . S
C1987 H1977 0.929 . S
C1987 C1985 1.433 . S
C1987 N1990 1.384 . S
C1988 H1979 0.929 . S
C1988 C1980 1.378 . S
C1988 C1983 1.350 . S
C1989 H1976 0.929 . S
C1989 C1981 1.433 . S
C1989 N1991 1.384 . S
N1990 C1986 1.427 . S
N1990 C1987 1.384 . S
N1991 C1983 1.427 . S
N1991 C1989 1.384 . S
H1992 C1998 0.930 . S
H1993 C2002 0.930 . S
H1994 C2007 0.929 . S
H1995 C2005 0.929 . S
H1996 C2000 0.929 . S
H1997 C2006 0.929 . S
C1998 H1992 0.930 . S
C1998 C1999 1.367 . S
C1998 C2006 1.378 . S
C1999 C1998 1.367 . S
C1999 C2007 1.433 . S
C2000 H1996 0.929 . S
C2000 C2002 1.378 . S
C2000 C2004 1.350 . S
C2001 C2004 1.463 . S
C2001 C2006 1.350 . S
C2001 N2009 1.427 . S
C2002 H1993 0.930 . S
C2002 C2000 1.378 . S
C2002 C2003 1.367 . S
C2003 C2002 1.367 . S
C2003 C2005 1.433 . S
C2004 C2000 1.350 . S
C2004 C2001 1.463 . S
C2004 N2008 1.427 . S
C2005 H1995 0.929 . S
C2005 C2003 1.433 . S
C2005 N2008 1.384 . S
C2006 H1997 0.929 . S
C2006 C1998 1.378 . S
C2006 C2001 1.350 . S
C2007 H1994 0.929 . S
C2007 C1999 1.433 . S
C2007 N2009 1.384 . S
N2008 C2004 1.427 . S
N2008 C2005 1.384 . S
N2009 C2001 1.427 . S
N2009 C2007 1.384 . S
H2010 C2016 0.930 . S
H2011 C2020 0.930 . S
H2012 C2025 0.929 . S
H2013 C2023 0.929 . S
H2014 C2018 0.929 . S
H2015 C2024 0.929 . S
C2016 H2010 0.930 . S
C2016 C2017 1.367 . S
C2016 C2024 1.378 . S
C2017 C2016 1.367 . S
C2017 C2025 1.433 . S
C2018 H2014 0.929 . S
C2018 C2020 1.378 . S
C2018 C2022 1.350 . S
C2019 C2022 1.463 . S
C2019 C2024 1.350 . S
C2019 N2027 1.427 . S
C2020 H2011 0.930 . S
C2020 C2018 1.378 . S
C2020 C2021 1.367 . S
C2021 C2020 1.367 . S
C2021 C2023 1.433 . S
C2022 C2018 1.350 . S
C2022 C2019 1.463 . S
C2022 N2026 1.427 . S
C2023 H2013 0.929 . S
C2023 C2021 1.433 . S
C2023 N2026 1.384 . S
C2024 H2015 0.929 . S
C2024 C2016 1.378 . S
C2024 C2019 1.350 . S
C2025 H2012 0.929 . S
C2025 C2017 1.433 . S
C2025 N2027 1.384 . S
N2026 C2022 1.427 . S
N2026 C2023 1.384 . S
N2027 C2019 1.427 . S
N2027 C2025 1.384 . S
H2028 C2034 0.930 . S
H2029 C2038 0.930 . S
H2030 C2043 0.929 . S
H2031 C2041 0.929 . S
H2032 C2036 0.929 . S
H2033 C2042 0.929 . S
C2034 H2028 0.930 . S
C2034 C2035 1.367 . S
C2034 C2042 1.378 . S
C2035 C2034 1.367 . S
C2035 C2043 1.433 . S
C2036 H2032 0.929 . S
C2036 C2038 1.378 . S
C2036 C2040 1.350 . S
C2037 C2040 1.463 . S
C2037 C2042 1.350 . S
C2037 N2045 1.427 . S
C2038 H2029 0.930 . S
C2038 C2036 1.378 . S
C2038 C2039 1.367 . S
C2039 C2038 1.367 . S
C2039 C2041 1.433 . S
C2040 C2036 1.350 . S
C2040 C2037 1.463 . S
C2040 N2044 1.427 . S
C2041 H2031 0.929 . S
C2041 C2039 1.433 . S
C2041 N2044 1.384 . S
C2042 H2033 0.929 . S
C2042 C2034 1.378 . S
C2042 C2037 1.350 . S
C2043 H2030 0.929 . S
C2043 C2035 1.433 . S
C2043 N2045 1.384 . S
N2044 C2040 1.427 . S
N2044 C2041 1.384 . S
N2045 C2037 1.427 . S
N2045 C2043 1.384 . S
H2046 C2052 0.930 . S
H2047 C2056 0.930 . S
H2048 C2061 0.929 . S
H2049 C2059 0.929 . S
H2050 C2054 0.929 . S
H2051 C2060 0.929 . S
C2052 H2046 0.930 . S
C2052 C2053 1.367 . S
C2052 C2060 1.378 . S
C2053 C2052 1.367 . S
C2053 C2061 1.433 . S
C2054 H2050 0.929 . S
C2054 C2056 1.378 . S
C2054 C2058 1.350 . S
C2055 C2058 1.463 . S
C2055 C2060 1.350 . S
C2055 N2063 1.427 . S
C2056 H2047 0.930 . S
C2056 C2054 1.378 . S
C2056 C2057 1.367 . S
C2057 C2056 1.367 . S
C2057 C2059 1.433 . S
C2058 C2054 1.350 . S
C2058 C2055 1.463 . S
C2058 N2062 1.427 . S
C2059 H2049 0.929 . S
C2059 C2057 1.433 . S
C2059 N2062 1.384 . S
C2060 H2051 0.929 . S
C2060 C2052 1.378 . S
C2060 C2055 1.350 . S
C2061 H2048 0.929 . S
C2061 C2053 1.433 . S
C2061 N2063 1.384 . S
N2062 C2058 1.427 . S
N2062 C2059 1.384 . S
N2063 C2055 1.427 . S
N2063 C2061 1.384 . S
H2064 C2070 0.930 . S
H2065 C2074 0.930 . S
H2066 C2079 0.929 . S
H2067 C2077 0.929 . S
H2068 C2072 0.929 . S
H2069 C2078 0.929 . S
C2070 H2064 0.930 . S
C2070 C2071 1.367 . S
C2070 C2078 1.378 . S
C2071 C2070 1.367 . S
C2071 C2079 1.433 . S
C2072 H2068 0.929 . S
C2072 C2074 1.378 . S
C2072 C2076 1.350 . S
C2073 C2076 1.463 . S
C2073 C2078 1.350 . S
C2073 N2081 1.427 . S
C2074 H2065 0.930 . S
C2074 C2072 1.378 . S
C2074 C2075 1.367 . S
C2075 C2074 1.367 . S
C2075 C2077 1.433 . S
C2076 C2072 1.350 . S
C2076 C2073 1.463 . S
C2076 N2080 1.427 . S
C2077 H2067 0.929 . S
C2077 C2075 1.433 . S
C2077 N2080 1.384 . S
C2078 H2069 0.929 . S
C2078 C2070 1.378 . S
C2078 C2073 1.350 . S
C2079 H2066 0.929 . S
C2079 C2071 1.433 . S
C2079 N2081 1.384 . S
N2080 C2076 1.427 . S
N2080 C2077 1.384 . S
N2081 C2073 1.427 . S
N2081 C2079 1.384 . S
H2082 C2088 0.930 . S
H2083 C2092 0.930 . S
H2084 C2097 0.929 . S
H2085 C2095 0.929 . S
H2086 C2090 0.929 . S
H2087 C2096 0.929 . S
C2088 H2082 0.930 . S
C2088 C2089 1.367 . S
C2088 C2096 1.378 . S
C2089 C2088 1.367 . S
C2089 C2097 1.433 . S
C2090 H2086 0.929 . S
C2090 C2092 1.378 . S
C2090 C2094 1.350 . S
C2091 C2094 1.463 . S
C2091 C2096 1.350 . S
C2091 N2099 1.427 . S
C2092 H2083 0.930 . S
C2092 C2090 1.378 . S
C2092 C2093 1.367 . S
C2093 C2092 1.367 . S
C2093 C2095 1.433 . S
C2094 C2090 1.350 . S
C2094 C2091 1.463 . S
C2094 N2098 1.427 . S
C2095 H2085 0.929 . S
C2095 C2093 1.433 . S
C2095 N2098 1.384 . S
C2096 H2087 0.929 . S
C2096 C2088 1.378 . S
C2096 C2091 1.350 . S
C2097 H2084 0.929 . S
C2097 C2089 1.433 . S
C2097 N2099 1.384 . S
N2098 C2094 1.427 . S
N2098 C2095 1.384 . S
N2099 C2091 1.427 . S
N2099 C2097 1.384 . S
H2100 C2106 0.930 . S
H2101 C2110 0.930 . S
H2102 C2115 0.929 . S
H2103 C2113 0.929 . S
H2104 C2108 0.929 . S
H2105 C2114 0.929 . S
C2106 H2100 0.930 . S
C2106 C2107 1.367 . S
C2106 C2114 1.378 . S
C2107 C2106 1.367 . S
C2107 C2115 1.433 . S
C2108 H2104 0.929 . S
C2108 C2110 1.378 . S
C2108 C2112 1.350 . S
C2109 C2112 1.463 . S
C2109 C2114 1.350 . S
C2109 N2117 1.427 . S
C2110 H2101 0.930 . S
C2110 C2108 1.378 . S
C2110 C2111 1.367 . S
C2111 C2110 1.367 . S
C2111 C2113 1.433 . S
C2112 C2108 1.350 . S
C2112 C2109 1.463 . S
C2112 N2116 1.427 . S
C2113 H2103 0.929 . S
C2113 C2111 1.433 . S
C2113 N2116 1.384 . S
C2114 H2105 0.929 . S
C2114 C2106 1.378 . S
C2114 C2109 1.350 . S
C2115 H2102 0.929 . S
C2115 C2107 1.433 . S
C2115 N2117 1.384 . S
N2116 C2112 1.427 . S
N2116 C2113 1.384 . S
N2117 C2109 1.427 . S
N2117 C2115 1.384 . S
H2118 C2124 0.930 . S
H2119 C2128 0.930 . S
H2120 C2133 0.929 . S
H2121 C2131 0.929 . S
H2122 C2126 0.929 . S
H2123 C2132 0.929 . S
C2124 H2118 0.930 . S
C2124 C2125 1.367 . S
C2124 C2132 1.378 . S
C2125 C2124 1.367 . S
C2125 C2133 1.433 . S
C2126 H2122 0.929 . S
C2126 C2128 1.378 . S
C2126 C2130 1.350 . S
C2127 C2130 1.463 . S
C2127 C2132 1.350 . S
C2127 N2135 1.427 . S
C2128 H2119 0.930 . S
C2128 C2126 1.378 . S
C2128 C2129 1.367 . S
C2129 C2128 1.367 . S
C2129 C2131 1.433 . S
C2130 C2126 1.350 . S
C2130 C2127 1.463 . S
C2130 N2134 1.427 . S
C2131 H2121 0.929 . S
C2131 C2129 1.433 . S
C2131 N2134 1.384 . S
C2132 H2123 0.929 . S
C2132 C2124 1.378 . S
C2132 C2127 1.350 . S
C2133 H2120 0.929 . S
C2133 C2125 1.433 . S
C2133 N2135 1.384 . S
N2134 C2130 1.427 . S
N2134 C2131 1.384 . S
N2135 C2127 1.427 . S
N2135 C2133 1.384 . S
H2136 C2142 0.930 . S
H2137 C2146 0.930 . S
H2138 C2151 0.929 . S
H2139 C2149 0.929 . S
H2140 C2144 0.929 . S
H2141 C2150 0.929 . S
C2142 H2136 0.930 . S
C2142 C2143 1.367 . S
C2142 C2150 1.378 . S
C2143 C2142 1.367 . S
C2143 C2151 1.433 . S
C2144 H2140 0.929 . S
C2144 C2146 1.378 . S
C2144 C2148 1.350 . S
C2145 C2148 1.463 . S
C2145 C2150 1.350 . S
C2145 N2153 1.427 . S
C2146 H2137 0.930 . S
C2146 C2144 1.378 . S
C2146 C2147 1.367 . S
C2147 C2146 1.367 . S
C2147 C2149 1.433 . S
C2148 C2144 1.350 . S
C2148 C2145 1.463 . S
C2148 N2152 1.427 . S
C2149 H2139 0.929 . S
C2149 C2147 1.433 . S
C2149 N2152 1.384 . S
C2150 H2141 0.929 . S
C2150 C2142 1.378 . S
C2150 C2145 1.350 . S
C2151 H2138 0.929 . S
C2151 C2143 1.433 . S
C2151 N2153 1.384 . S
N2152 C2148 1.427 . S
N2152 C2149 1.384 . S
N2153 C2145 1.427 . S
N2153 C2151 1.384 . S
H2154 C2160 0.930 . S
H2155 C2164 0.930 . S
H2156 C2169 0.929 . S
H2157 C2167 0.929 . S
H2158 C2162 0.929 . S
H2159 C2168 0.929 . S
C2160 H2154 0.930 . S
C2160 C2161 1.367 . S
C2160 C2168 1.378 . S
C2161 C2160 1.367 . S
C2161 C2169 1.433 . S
C2162 H2158 0.929 . S
C2162 C2164 1.378 . S
C2162 C2166 1.350 . S
C2163 C2166 1.463 . S
C2163 C2168 1.350 . S
C2163 N2171 1.427 . S
C2164 H2155 0.930 . S
C2164 C2162 1.378 . S
C2164 C2165 1.367 . S
C2165 C2164 1.367 . S
C2165 C2167 1.433 . S
C2166 C2162 1.350 . S
C2166 C2163 1.463 . S
C2166 N2170 1.427 . S
C2167 H2157 0.929 . S
C2167 C2165 1.433 . S
C2167 N2170 1.384 . S
C2168 H2159 0.929 . S
C2168 C2160 1.378 . S
C2168 C2163 1.350 . S
C2169 H2156 0.929 . S
C2169 C2161 1.433 . S
C2169 N2171 1.384 . S
N2170 C2166 1.427 . S
N2170 C2167 1.384 . S
N2171 C2163 1.427 . S
N2171 C2169 1.384 . S
H2172 C2178 0.930 . S
H2173 C2182 0.930 . S
H2174 C2187 0.929 . S
H2175 C2185 0.929 . S
H2176 C2180 0.929 . S
H2177 C2186 0.929 . S
C2178 H2172 0.930 . S
C2178 C2179 1.367 . S
C2178 C2186 1.378 . S
C2179 C2178 1.367 . S
C2179 C2187 1.433 . S
C2180 H2176 0.929 . S
C2180 C2182 1.378 . S
C2180 C2184 1.350 . S
C2181 C2184 1.463 . S
C2181 C2186 1.350 . S
C2181 N2189 1.427 . S
C2182 H2173 0.930 . S
C2182 C2180 1.378 . S
C2182 C2183 1.367 . S
C2183 C2182 1.367 . S
C2183 C2185 1.433 . S
C2184 C2180 1.350 . S
C2184 C2181 1.463 . S
C2184 N2188 1.427 . S
C2185 H2175 0.929 . S
C2185 C2183 1.433 . S
C2185 N2188 1.384 . S
C2186 H2177 0.929 . S
C2186 C2178 1.378 . S
C2186 C2181 1.350 . S
C2187 H2174 0.929 . S
C2187 C2179 1.433 . S
C2187 N2189 1.384 . S
N2188 C2184 1.427 . S
N2188 C2185 1.384 . S
N2189 C2181 1.427 . S
N2189 C2187 1.384 . S
H2190 C2196 0.930 . S
H2191 C2200 0.930 . S
H2192 C2205 0.929 . S
H2193 C2203 0.929 . S
H2194 C2198 0.929 . S
H2195 C2204 0.929 . S
C2196 H2190 0.930 . S
C2196 C2197 1.367 . S
C2196 C2204 1.378 . S
C2197 C2196 1.367 . S
C2197 C2205 1.433 . S
C2198 H2194 0.929 . S
C2198 C2200 1.378 . S
C2198 C2202 1.350 . S
C2199 C2202 1.463 . S
C2199 C2204 1.350 . S
C2199 N2207 1.427 . S
C2200 H2191 0.930 . S
C2200 C2198 1.378 . S
C2200 C2201 1.367 . S
C2201 C2200 1.367 . S
C2201 C2203 1.433 . S
C2202 C2198 1.350 . S
C2202 C2199 1.463 . S
C2202 N2206 1.427 . S
C2203 H2193 0.929 . S
C2203 C2201 1.433 . S
C2203 N2206 1.384 . S
C2204 H2195 0.929 . S
C2204 C2196 1.378 . S
C2204 C2199 1.350 . S
C2205 H2192 0.929 . S
C2205 C2197 1.433 . S
C2205 N2207 1.384 . S
N2206 C2202 1.427 . S
N2206 C2203 1.384 . S
N2207 C2199 1.427 . S
N2207 C2205 1.384 . S
H2208 C2214 0.930 . S
H2209 C2218 0.930 . S
H2210 C2223 0.929 . S
H2211 C2221 0.929 . S
H2212 C2216 0.929 . S
H2213 C2222 0.929 . S
C2214 H2208 0.930 . S
C2214 C2215 1.367 . S
C2214 C2222 1.378 . S
C2215 C2214 1.367 . S
C2215 C2223 1.433 . S
C2216 H2212 0.929 . S
C2216 C2218 1.378 . S
C2216 C2220 1.350 . S
C2217 C2220 1.463 . S
C2217 C2222 1.350 . S
C2217 N2225 1.427 . S
C2218 H2209 0.930 . S
C2218 C2216 1.378 . S
C2218 C2219 1.367 . S
C2219 C2218 1.367 . S
C2219 C2221 1.433 . S
C2220 C2216 1.350 . S
C2220 C2217 1.463 . S
C2220 N2224 1.427 . S
C2221 H2211 0.929 . S
C2221 C2219 1.433 . S
C2221 N2224 1.384 . S
C2222 H2213 0.929 . S
C2222 C2214 1.378 . S
C2222 C2217 1.350 . S
C2223 H2210 0.929 . S
C2223 C2215 1.433 . S
C2223 N2225 1.384 . S
N2224 C2220 1.427 . S
N2224 C2221 1.384 . S
N2225 C2217 1.427 . S
N2225 C2223 1.384 . S
H2226 C2232 0.930 . S
H2227 C2236 0.930 . S
H2228 C2241 0.929 . S
H2229 C2239 0.929 . S
H2230 C2234 0.929 . S
H2231 C2240 0.929 . S
C2232 H2226 0.930 . S
C2232 C2233 1.367 . S
C2232 C2240 1.378 . S
C2233 C2232 1.367 . S
C2233 C2241 1.433 . S
C2234 H2230 0.929 . S
C2234 C2236 1.378 . S
C2234 C2238 1.350 . S
C2235 C2238 1.463 . S
C2235 C2240 1.350 . S
C2235 N2243 1.427 . S
C2236 H2227 0.930 . S
C2236 C2234 1.378 . S
C2236 C2237 1.367 . S
C2237 C2236 1.367 . S
C2237 C2239 1.433 . S
C2238 C2234 1.350 . S
C2238 C2235 1.463 . S
C2238 N2242 1.427 . S
C2239 H2229 0.929 . S
C2239 C2237 1.433 . S
C2239 N2242 1.384 . S
C2240 H2231 0.929 . S
C2240 C2232 1.378 . S
C2240 C2235 1.350 . S
C2241 H2228 0.929 . S
C2241 C2233 1.433 . S
C2241 N2243 1.384 . S
N2242 C2238 1.427 . S
N2242 C2239 1.384 . S
N2243 C2235 1.427 . S
N2243 C2241 1.384 . S
H2244 C2250 0.930 . S
H2245 C2254 0.930 . S
H2246 C2259 0.929 . S
H2247 C2257 0.929 . S
H2248 C2252 0.929 . S
H2249 C2258 0.929 . S
C2250 H2244 0.930 . S
C2250 C2251 1.367 . S
C2250 C2258 1.378 . S
C2251 C2250 1.367 . S
C2251 C2259 1.433 . S
C2252 H2248 0.929 . S
C2252 C2254 1.378 . S
C2252 C2256 1.350 . S
C2253 C2256 1.463 . S
C2253 C2258 1.350 . S
C2253 N2261 1.427 . S
C2254 H2245 0.930 . S
C2254 C2252 1.378 . S
C2254 C2255 1.367 . S
C2255 C2254 1.367 . S
C2255 C2257 1.433 . S
C2256 C2252 1.350 . S
C2256 C2253 1.463 . S
C2256 N2260 1.427 . S
C2257 H2247 0.929 . S
C2257 C2255 1.433 . S
C2257 N2260 1.384 . S
C2258 H2249 0.929 . S
C2258 C2250 1.378 . S
C2258 C2253 1.350 . S
C2259 H2246 0.929 . S
C2259 C2251 1.433 . S
C2259 N2261 1.384 . S
N2260 C2256 1.427 . S
N2260 C2257 1.384 . S
N2261 C2253 1.427 . S
N2261 C2259 1.384 . S
H2262 C2268 0.930 . S
H2263 C2272 0.930 . S
H2264 C2277 0.929 . S
H2265 C2275 0.929 . S
H2266 C2270 0.929 . S
H2267 C2276 0.929 . S
C2268 H2262 0.930 . S
C2268 C2269 1.367 . S
C2268 C2276 1.378 . S
C2269 C2268 1.367 . S
C2269 C2277 1.433 . S
C2270 H2266 0.929 . S
C2270 C2272 1.378 . S
C2270 C2274 1.350 . S
C2271 C2274 1.463 . S
C2271 C2276 1.350 . S
C2271 N2279 1.427 . S
C2272 H2263 0.930 . S
C2272 C2270 1.378 . S
C2272 C2273 1.367 . S
C2273 C2272 1.367 . S
C2273 C2275 1.433 . S
C2274 C2270 1.350 . S
C2274 C2271 1.463 . S
C2274 N2278 1.427 . S
C2275 H2265 0.929 . S
C2275 C2273 1.433 . S
C2275 N2278 1.384 . S
C2276 H2267 0.929 . S
C2276 C2268 1.378 . S
C2276 C2271 1.350 . S
C2277 H2264 0.929 . S
C2277 C2269 1.433 . S
C2277 N2279 1.384 . S
N2278 C2274 1.427 . S
N2278 C2275 1.384 . S
N2279 C2271 1.427 . S
N2279 C2277 1.384 . S
H2280 C2286 0.930 . S
H2281 C2290 0.930 . S
H2282 C2295 0.929 . S
H2283 C2293 0.929 . S
H2284 C2288 0.929 . S
H2285 C2294 0.929 . S
C2286 H2280 0.930 . S
C2286 C2287 1.367 . S
C2286 C2294 1.378 . S
C2287 C2286 1.367 . S
C2287 C2295 1.433 . S
C2288 H2284 0.929 . S
C2288 C2290 1.378 . S
C2288 C2292 1.350 . S
C2289 C2292 1.463 . S
C2289 C2294 1.350 . S
C2289 N2297 1.427 . S
C2290 H2281 0.930 . S
C2290 C2288 1.378 . S
C2290 C2291 1.367 . S
C2291 C2290 1.367 . S
C2291 C2293 1.433 . S
C2292 C2288 1.350 . S
C2292 C2289 1.463 . S
C2292 N2296 1.427 . S
C2293 H2283 0.929 . S
C2293 C2291 1.433 . S
C2293 N2296 1.384 . S
C2294 H2285 0.929 . S
C2294 C2286 1.378 . S
C2294 C2289 1.350 . S
C2295 H2282 0.929 . S
C2295 C2287 1.433 . S
C2295 N2297 1.384 . S
N2296 C2292 1.427 . S
N2296 C2293 1.384 . S
N2297 C2289 1.427 . S
N2297 C2295 1.384 . S
H2298 C2304 0.930 . S
H2299 C2308 0.930 . S
H2300 C2313 0.929 . S
H2301 C2311 0.929 . S
H2302 C2306 0.929 . S
H2303 C2312 0.929 . S
C2304 H2298 0.930 . S
C2304 C2305 1.367 . S
C2304 C2312 1.378 . S
C2305 C2304 1.367 . S
C2305 C2313 1.433 . S
C2306 H2302 0.929 . S
C2306 C2308 1.378 . S
C2306 C2310 1.350 . S
C2307 C2310 1.463 . S
C2307 C2312 1.350 . S
C2307 N2315 1.427 . S
C2308 H2299 0.930 . S
C2308 C2306 1.378 . S
C2308 C2309 1.367 . S
C2309 C2308 1.367 . S
C2309 C2311 1.433 . S
C2310 C2306 1.350 . S
C2310 C2307 1.463 . S
C2310 N2314 1.427 . S
C2311 H2301 0.929 . S
C2311 C2309 1.433 . S
C2311 N2314 1.384 . S
C2312 H2303 0.929 . S
C2312 C2304 1.378 . S
C2312 C2307 1.350 . S
C2313 H2300 0.929 . S
C2313 C2305 1.433 . S
C2313 N2315 1.384 . S
N2314 C2310 1.427 . S
N2314 C2311 1.384 . S
N2315 C2307 1.427 . S
N2315 C2313 1.384 . S
H2316 C2322 0.930 . S
H2317 C2326 0.930 . S
H2318 C2331 0.929 . S
H2319 C2329 0.929 . S
H2320 C2324 0.929 . S
H2321 C2330 0.929 . S
C2322 H2316 0.930 . S
C2322 C2323 1.367 . S
C2322 C2330 1.378 . S
C2323 C2322 1.367 . S
C2323 C2331 1.433 . S
C2324 H2320 0.929 . S
C2324 C2326 1.378 . S
C2324 C2328 1.350 . S
C2325 C2328 1.463 . S
C2325 C2330 1.350 . S
C2325 N2333 1.427 . S
C2326 H2317 0.930 . S
C2326 C2324 1.378 . S
C2326 C2327 1.367 . S
C2327 C2326 1.367 . S
C2327 C2329 1.433 . S
C2328 C2324 1.350 . S
C2328 C2325 1.463 . S
C2328 N2332 1.427 . S
C2329 H2319 0.929 . S
C2329 C2327 1.433 . S
C2329 N2332 1.384 . S
C2330 H2321 0.929 . S
C2330 C2322 1.378 . S
C2330 C2325 1.350 . S
C2331 H2318 0.929 . S
C2331 C2323 1.433 . S
C2331 N2333 1.384 . S
N2332 C2328 1.427 . S
N2332 C2329 1.384 . S
N2333 C2325 1.427 . S
N2333 C2331 1.384 . S
H2334 C2340 0.930 . S
H2335 C2344 0.930 . S
H2336 C2349 0.929 . S
H2337 C2347 0.929 . S
H2338 C2342 0.929 . S
H2339 C2348 0.929 . S
C2340 H2334 0.930 . S
C2340 C2341 1.367 . S
C2340 C2348 1.378 . S
C2341 C2340 1.367 . S
C2341 C2349 1.433 . S
C2342 H2338 0.929 . S
C2342 C2344 1.378 . S
C2342 C2346 1.350 . S
C2343 C2346 1.463 . S
C2343 C2348 1.350 . S
C2343 N2351 1.427 . S
C2344 H2335 0.930 . S
C2344 C2342 1.378 . S
C2344 C2345 1.367 . S
C2345 C2344 1.367 . S
C2345 C2347 1.433 . S
C2346 C2342 1.350 . S
C2346 C2343 1.463 . S
C2346 N2350 1.427 . S
C2347 H2337 0.929 . S
C2347 C2345 1.433 . S
C2347 N2350 1.384 . S
C2348 H2339 0.929 . S
C2348 C2340 1.378 . S
C2348 C2343 1.350 . S
C2349 H2336 0.929 . S
C2349 C2341 1.433 . S
C2349 N2351 1.384 . S
N2350 C2346 1.427 . S
N2350 C2347 1.384 . S
N2351 C2343 1.427 . S
N2351 C2349 1.384 . S
H2352 C2358 0.930 . S
H2353 C2362 0.930 . S
H2354 C2367 0.929 . S
H2355 C2365 0.929 . S
H2356 C2360 0.929 . S
H2357 C2366 0.929 . S
C2358 H2352 0.930 . S
C2358 C2359 1.367 . S
C2358 C2366 1.378 . S
C2359 C2358 1.367 . S
C2359 C2367 1.433 . S
C2360 H2356 0.929 . S
C2360 C2362 1.378 . S
C2360 C2364 1.350 . S
C2361 C2364 1.463 . S
C2361 C2366 1.350 . S
C2361 N2369 1.427 . S
C2362 H2353 0.930 . S
C2362 C2360 1.378 . S
C2362 C2363 1.367 . S
C2363 C2362 1.367 . S
C2363 C2365 1.433 . S
C2364 C2360 1.350 . S
C2364 C2361 1.463 . S
C2364 N2368 1.427 . S
C2365 H2355 0.929 . S
C2365 C2363 1.433 . S
C2365 N2368 1.384 . S
C2366 H2357 0.929 . S
C2366 C2358 1.378 . S
C2366 C2361 1.350 . S
C2367 H2354 0.929 . S
C2367 C2359 1.433 . S
C2367 N2369 1.384 . S
N2368 C2364 1.427 . S
N2368 C2365 1.384 . S
N2369 C2361 1.427 . S
N2369 C2367 1.384 . S
H2370 C2376 0.930 . S
H2371 C2380 0.930 . S
H2372 C2385 0.929 . S
H2373 C2383 0.929 . S
H2374 C2378 0.929 . S
H2375 C2384 0.929 . S
C2376 H2370 0.930 . S
C2376 C2377 1.367 . S
C2376 C2384 1.378 . S
C2377 C2376 1.367 . S
C2377 C2385 1.433 . S
C2378 H2374 0.929 . S
C2378 C2380 1.378 . S
C2378 C2382 1.350 . S
C2379 C2382 1.463 . S
C2379 C2384 1.350 . S
C2379 N2387 1.427 . S
C2380 H2371 0.930 . S
C2380 C2378 1.378 . S
C2380 C2381 1.367 . S
C2381 C2380 1.367 . S
C2381 C2383 1.433 . S
C2382 C2378 1.350 . S
C2382 C2379 1.463 . S
C2382 N2386 1.427 . S
C2383 H2373 0.929 . S
C2383 C2381 1.433 . S
C2383 N2386 1.384 . S
C2384 H2375 0.929 . S
C2384 C2376 1.378 . S
C2384 C2379 1.350 . S
C2385 H2372 0.929 . S
C2385 C2377 1.433 . S
C2385 N2387 1.384 . S
N2386 C2382 1.427 . S
N2386 C2383 1.384 . S
N2387 C2379 1.427 . S
N2387 C2385 1.384 . S
H2388 C2394 0.930 . S
H2389 C2398 0.930 . S
H2390 C2403 0.929 . S
H2391 C2401 0.929 . S
H2392 C2396 0.929 . S
H2393 C2402 0.929 . S
C2394 H2388 0.930 . S
C2394 C2395 1.367 . S
C2394 C2402 1.378 . S
C2395 C2394 1.367 . S
C2395 C2403 1.433 . S
C2396 H2392 0.929 . S
C2396 C2398 1.378 . S
C2396 C2400 1.350 . S
C2397 C2400 1.463 . S
C2397 C2402 1.350 . S
C2397 N2405 1.427 . S
C2398 H2389 0.930 . S
C2398 C2396 1.378 . S
C2398 C2399 1.367 . S
C2399 C2398 1.367 . S
C2399 C2401 1.433 . S
C2400 C2396 1.350 . S
C2400 C2397 1.463 . S
C2400 N2404 1.427 . S
C2401 H2391 0.929 . S
C2401 C2399 1.433 . S
C2401 N2404 1.384 . S
C2402 H2393 0.929 . S
C2402 C2394 1.378 . S
C2402 C2397 1.350 . S
C2403 H2390 0.929 . S
C2403 C2395 1.433 . S
C2403 N2405 1.384 . S
N2404 C2400 1.427 . S
N2404 C2401 1.384 . S
N2405 C2397 1.427 . S
N2405 C2403 1.384 . S
H2406 C2412 0.930 . S
H2407 C2416 0.930 . S
H2408 C2421 0.929 . S
H2409 C2419 0.929 . S
H2410 C2414 0.929 . S
H2411 C2420 0.929 . S
C2412 H2406 0.930 . S
C2412 C2413 1.367 . S
C2412 C2420 1.378 . S
C2413 C2412 1.367 . S
C2413 C2421 1.433 . S
C2414 H2410 0.929 . S
C2414 C2416 1.378 . S
C2414 C2418 1.350 . S
C2415 C2418 1.463 . S
C2415 C2420 1.350 . S
C2415 N2423 1.427 . S
C2416 H2407 0.930 . S
C2416 C2414 1.378 . S
C2416 C2417 1.367 . S
C2417 C2416 1.367 . S
C2417 C2419 1.433 . S
C2418 C2414 1.350 . S
C2418 C2415 1.463 . S
C2418 N2422 1.427 . S
C2419 H2409 0.929 . S
C2419 C2417 1.433 . S
C2419 N2422 1.384 . S
C2420 H2411 0.929 . S
C2420 C2412 1.378 . S
C2420 C2415 1.350 . S
C2421 H2408 0.929 . S
C2421 C2413 1.433 . S
C2421 N2423 1.384 . S
N2422 C2418 1.427 . S
N2422 C2419 1.384 . S
N2423 C2415 1.427 . S
N2423 C2421 1.384 . S
H2424 C2430 0.930 . S
H2425 C2434 0.930 . S
H2426 C2439 0.929 . S
H2427 C2437 0.929 . S
H2428 C2432 0.929 . S
H2429 C2438 0.929 . S
C2430 H2424 0.930 . S
C2430 C2431 1.367 . S
C2430 C2438 1.378 . S
C2431 C2430 1.367 . S
C2431 C2439 1.433 . S
C2432 H2428 0.929 . S
C2432 C2434 1.378 . S
C2432 C2436 1.350 . S
C2433 C2436 1.463 . S
C2433 C2438 1.350 . S
C2433 N2441 1.427 . S
C2434 H2425 0.930 . S
C2434 C2432 1.378 . S
C2434 C2435 1.367 . S
C2435 C2434 1.367 . S
C2435 C2437 1.433 . S
C2436 C2432 1.350 . S
C2436 C2433 1.463 . S
C2436 N2440 1.427 . S
C2437 H2427 0.929 . S
C2437 C2435 1.433 . S
C2437 N2440 1.384 . S
C2438 H2429 0.929 . S
C2438 C2430 1.378 . S
C2438 C2433 1.350 . S
C2439 H2426 0.929 . S
C2439 C2431 1.433 . S
C2439 N2441 1.384 . S
N2440 C2436 1.427 . S
N2440 C2437 1.384 . S
N2441 C2433 1.427 . S
N2441 C2439 1.384 . S
H2442 C2448 0.930 . S
H2443 C2452 0.930 . S
H2444 C2457 0.929 . S
H2445 C2455 0.929 . S
H2446 C2450 0.929 . S
H2447 C2456 0.929 . S
C2448 H2442 0.930 . S
C2448 C2449 1.367 . S
C2448 C2456 1.378 . S
C2449 C2448 1.367 . S
C2449 C2457 1.433 . S
C2450 H2446 0.929 . S
C2450 C2452 1.378 . S
C2450 C2454 1.350 . S
C2451 C2454 1.463 . S
C2451 C2456 1.350 . S
C2451 N2459 1.427 . S
C2452 H2443 0.930 . S
C2452 C2450 1.378 . S
C2452 C2453 1.367 . S
C2453 C2452 1.367 . S
C2453 C2455 1.433 . S
C2454 C2450 1.350 . S
C2454 C2451 1.463 . S
C2454 N2458 1.427 . S
C2455 H2445 0.929 . S
C2455 C2453 1.433 . S
C2455 N2458 1.384 . S
C2456 H2447 0.929 . S
C2456 C2448 1.378 . S
C2456 C2451 1.350 . S
C2457 H2444 0.929 . S
C2457 C2449 1.433 . S
C2457 N2459 1.384 . S
N2458 C2454 1.427 . S
N2458 C2455 1.384 . S
N2459 C2451 1.427 . S
N2459 C2457 1.384 . S
H2460 C2466 0.930 . S
H2461 C2470 0.930 . S
H2462 C2475 0.929 . S
H2463 C2473 0.929 . S
H2464 C2468 0.929 . S
H2465 C2474 0.929 . S
C2466 H2460 0.930 . S
C2466 C2467 1.367 . S
C2466 C2474 1.378 . S
C2467 C2466 1.367 . S
C2467 C2475 1.433 . S
C2468 H2464 0.929 . S
C2468 C2470 1.378 . S
C2468 C2472 1.350 . S
C2469 C2472 1.463 . S
C2469 C2474 1.350 . S
C2469 N2477 1.427 . S
C2470 H2461 0.930 . S
C2470 C2468 1.378 . S
C2470 C2471 1.367 . S
C2471 C2470 1.367 . S
C2471 C2473 1.433 . S
C2472 C2468 1.350 . S
C2472 C2469 1.463 . S
C2472 N2476 1.427 . S
C2473 H2463 0.929 . S
C2473 C2471 1.433 . S
C2473 N2476 1.384 . S
C2474 H2465 0.929 . S
C2474 C2466 1.378 . S
C2474 C2469 1.350 . S
C2475 H2462 0.929 . S
C2475 C2467 1.433 . S
C2475 N2477 1.384 . S
N2476 C2472 1.427 . S
N2476 C2473 1.384 . S
N2477 C2469 1.427 . S
N2477 C2475 1.384 . S
H2478 C2484 0.930 . S
H2479 C2488 0.930 . S
H2480 C2493 0.929 . S
H2481 C2491 0.929 . S
H2482 C2486 0.929 . S
H2483 C2492 0.929 . S
C2484 H2478 0.930 . S
C2484 C2485 1.367 . S
C2484 C2492 1.378 . S
C2485 C2484 1.367 . S
C2485 C2493 1.433 . S
C2486 H2482 0.929 . S
C2486 C2488 1.378 . S
C2486 C2490 1.350 . S
C2487 C2490 1.463 . S
C2487 C2492 1.350 . S
C2487 N2495 1.427 . S
C2488 H2479 0.930 . S
C2488 C2486 1.378 . S
C2488 C2489 1.367 . S
C2489 C2488 1.367 . S
C2489 C2491 1.433 . S
C2490 C2486 1.350 . S
C2490 C2487 1.463 . S
C2490 N2494 1.427 . S
C2491 H2481 0.929 . S
C2491 C2489 1.433 . S
C2491 N2494 1.384 . S
C2492 H2483 0.929 . S
C2492 C2484 1.378 . S
C2492 C2487 1.350 . S
C2493 H2480 0.929 . S
C2493 C2485 1.433 . S
C2493 N2495 1.384 . S
N2494 C2490 1.427 . S
N2494 C2491 1.384 . S
N2495 C2487 1.427 . S
N2495 C2493 1.384 . S
H2496 C2502 0.930 . S
H2497 C2506 0.930 . S
H2498 C2511 0.929 . S
H2499 C2509 0.929 . S
H2500 C2504 0.929 . S
H2501 C2510 0.929 . S
C2502 H2496 0.930 . S
C2502 C2503 1.367 . S
C2502 C2510 1.378 . S
C2503 C2502 1.367 . S
C2503 C2511 1.433 . S
C2504 H2500 0.929 . S
C2504 C2506 1.378 . S
C2504 C2508 1.350 . S
C2505 C2508 1.463 . S
C2505 C2510 1.350 . S
C2505 N2513 1.427 . S
C2506 H2497 0.930 . S
C2506 C2504 1.378 . S
C2506 C2507 1.367 . S
C2507 C2506 1.367 . S
C2507 C2509 1.433 . S
C2508 C2504 1.350 . S
C2508 C2505 1.463 . S
C2508 N2512 1.427 . S
C2509 H2499 0.929 . S
C2509 C2507 1.433 . S
C2509 N2512 1.384 . S
C2510 H2501 0.929 . S
C2510 C2502 1.378 . S
C2510 C2505 1.350 . S
C2511 H2498 0.929 . S
C2511 C2503 1.433 . S
C2511 N2513 1.384 . S
N2512 C2508 1.427 . S
N2512 C2509 1.384 . S
N2513 C2505 1.427 . S
N2513 C2511 1.384 . S
H2514 C2520 0.930 . S
H2515 C2524 0.930 . S
H2516 C2529 0.929 . S
H2517 C2527 0.929 . S
H2518 C2522 0.929 . S
H2519 C2528 0.929 . S
C2520 H2514 0.930 . S
C2520 C2521 1.367 . S
C2520 C2528 1.378 . S
C2521 C2520 1.367 . S
C2521 C2529 1.433 . S
C2522 H2518 0.929 . S
C2522 C2524 1.378 . S
C2522 C2526 1.350 . S
C2523 C2526 1.463 . S
C2523 C2528 1.350 . S
C2523 N2531 1.427 . S
C2524 H2515 0.930 . S
C2524 C2522 1.378 . S
C2524 C2525 1.367 . S
C2525 C2524 1.367 . S
C2525 C2527 1.433 . S
C2526 C2522 1.350 . S
C2526 C2523 1.463 . S
C2526 N2530 1.427 . S
C2527 H2517 0.929 . S
C2527 C2525 1.433 . S
C2527 N2530 1.384 . S
C2528 H2519 0.929 . S
C2528 C2520 1.378 . S
C2528 C2523 1.350 . S
C2529 H2516 0.929 . S
C2529 C2521 1.433 . S
C2529 N2531 1.384 . S
N2530 C2526 1.427 . S
N2530 C2527 1.384 . S
N2531 C2523 1.427 . S
N2531 C2529 1.384 . S
H2532 C2538 0.930 . S
H2533 C2542 0.930 . S
H2534 C2547 0.929 . S
H2535 C2545 0.929 . S
H2536 C2540 0.929 . S
H2537 C2546 0.929 . S
C2538 H2532 0.930 . S
C2538 C2539 1.367 . S
C2538 C2546 1.378 . S
C2539 C2538 1.367 . S
C2539 C2547 1.433 . S
C2540 H2536 0.929 . S
C2540 C2542 1.378 . S
C2540 C2544 1.350 . S
C2541 C2544 1.463 . S
C2541 C2546 1.350 . S
C2541 N2549 1.427 . S
C2542 H2533 0.930 . S
C2542 C2540 1.378 . S
C2542 C2543 1.367 . S
C2543 C2542 1.367 . S
C2543 C2545 1.433 . S
C2544 C2540 1.350 . S
C2544 C2541 1.463 . S
C2544 N2548 1.427 . S
C2545 H2535 0.929 . S
C2545 C2543 1.433 . S
C2545 N2548 1.384 . S
C2546 H2537 0.929 . S
C2546 C2538 1.378 . S
C2546 C2541 1.350 . S
C2547 H2534 0.929 . S
C2547 C2539 1.433 . S
C2547 N2549 1.384 . S
N2548 C2544 1.427 . S
N2548 C2545 1.384 . S
N2549 C2541 1.427 . S
N2549 C2547 1.384 . S
H2550 C2556 0.930 . S
H2551 C2560 0.930 . S
H2552 C2565 0.929 . S
H2553 C2563 0.929 . S
H2554 C2558 0.929 . S
H2555 C2564 0.929 . S
C2556 H2550 0.930 . S
C2556 C2557 1.367 . S
C2556 C2564 1.378 . S
C2557 C2556 1.367 . S
C2557 C2565 1.433 . S
C2558 H2554 0.929 . S
C2558 C2560 1.378 . S
C2558 C2562 1.350 . S
C2559 C2562 1.463 . S
C2559 C2564 1.350 . S
C2559 N2567 1.427 . S
C2560 H2551 0.930 . S
C2560 C2558 1.378 . S
C2560 C2561 1.367 . S
C2561 C2560 1.367 . S
C2561 C2563 1.433 . S
C2562 C2558 1.350 . S
C2562 C2559 1.463 . S
C2562 N2566 1.427 . S
C2563 H2553 0.929 . S
C2563 C2561 1.433 . S
C2563 N2566 1.384 . S
C2564 H2555 0.929 . S
C2564 C2556 1.378 . S
C2564 C2559 1.350 . S
C2565 H2552 0.929 . S
C2565 C2557 1.433 . S
C2565 N2567 1.384 . S
N2566 C2562 1.427 . S
N2566 C2563 1.384 . S
N2567 C2559 1.427 . S
N2567 C2565 1.384 . S
H2568 C2574 0.930 . S
H2569 C2578 0.930 . S
H2570 C2583 0.929 . S
H2571 C2581 0.929 . S
H2572 C2576 0.929 . S
H2573 C2582 0.929 . S
C2574 H2568 0.930 . S
C2574 C2575 1.367 . S
C2574 C2582 1.378 . S
C2575 C2574 1.367 . S
C2575 C2583 1.433 . S
C2576 H2572 0.929 . S
C2576 C2578 1.378 . S
C2576 C2580 1.350 . S
C2577 C2580 1.463 . S
C2577 C2582 1.350 . S
C2577 N2585 1.427 . S
C2578 H2569 0.930 . S
C2578 C2576 1.378 . S
C2578 C2579 1.367 . S
C2579 C2578 1.367 . S
C2579 C2581 1.433 . S
C2580 C2576 1.350 . S
C2580 C2577 1.463 . S
C2580 N2584 1.427 . S
C2581 H2571 0.929 . S
C2581 C2579 1.433 . S
C2581 N2584 1.384 . S
C2582 H2573 0.929 . S
C2582 C2574 1.378 . S
C2582 C2577 1.350 . S
C2583 H2570 0.929 . S
C2583 C2575 1.433 . S
C2583 N2585 1.384 . S
N2584 C2580 1.427 . S
N2584 C2581 1.384 . S
N2585 C2577 1.427 . S
N2585 C2583 1.384 . S
H2586 C2592 0.930 . S
H2587 C2596 0.930 . S
H2588 C2601 0.929 . S
H2589 C2599 0.929 . S
H2590 C2594 0.929 . S
H2591 C2600 0.929 . S
C2592 H2586 0.930 . S
C2592 C2593 1.367 . S
C2592 C2600 1.378 . S
C2593 C2592 1.367 . S
C2593 C2601 1.433 . S
C2594 H2590 0.929 . S
C2594 C2596 1.378 . S
C2594 C2598 1.350 . S
C2595 C2598 1.463 . S
C2595 C2600 1.350 . S
C2595 N2603 1.427 . S
C2596 H2587 0.930 . S
C2596 C2594 1.378 . S
C2596 C2597 1.367 . S
C2597 C2596 1.367 . S
C2597 C2599 1.433 . S
C2598 C2594 1.350 . S
C2598 C2595 1.463 . S
C2598 N2602 1.427 . S
C2599 H2589 0.929 . S
C2599 C2597 1.433 . S
C2599 N2602 1.384 . S
C2600 H2591 0.929 . S
C2600 C2592 1.378 . S
C2600 C2595 1.350 . S
C2601 H2588 0.929 . S
C2601 C2593 1.433 . S
C2601 N2603 1.384 . S
N2602 C2598 1.427 . S
N2602 C2599 1.384 . S
N2603 C2595 1.427 . S
N2603 C2601 1.384 . S
H2604 C2610 0.930 . S
H2605 C2614 0.930 . S
H2606 C2619 0.929 . S
H2607 C2617 0.929 . S
H2608 C2612 0.929 . S
H2609 C2618 0.929 . S
C2610 H2604 0.930 . S
C2610 C2611 1.367 . S
C2610 C2618 1.378 . S
C2611 C2610 1.367 . S
C2611 C2619 1.433 . S
C2612 H2608 0.929 . S
C2612 C2614 1.378 . S
C2612 C2616 1.350 . S
C2613 C2616 1.463 . S
C2613 C2618 1.350 . S
C2613 N2621 1.427 . S
C2614 H2605 0.930 . S
C2614 C2612 1.378 . S
C2614 C2615 1.367 . S
C2615 C2614 1.367 . S
C2615 C2617 1.433 . S
C2616 C2612 1.350 . S
C2616 C2613 1.463 . S
C2616 N2620 1.427 . S
C2617 H2607 0.929 . S
C2617 C2615 1.433 . S
C2617 N2620 1.384 . S
C2618 H2609 0.929 . S
C2618 C2610 1.378 . S
C2618 C2613 1.350 . S
C2619 H2606 0.929 . S
C2619 C2611 1.433 . S
C2619 N2621 1.384 . S
N2620 C2616 1.427 . S
N2620 C2617 1.384 . S
N2621 C2613 1.427 . S
N2621 C2619 1.384 . S
H2622 C2628 0.930 . S
H2623 C2632 0.930 . S
H2624 C2637 0.929 . S
H2625 C2635 0.929 . S
H2626 C2630 0.929 . S
H2627 C2636 0.929 . S
C2628 H2622 0.930 . S
C2628 C2629 1.367 . S
C2628 C2636 1.378 . S
C2629 C2628 1.367 . S
C2629 C2637 1.433 . S
C2630 H2626 0.929 . S
C2630 C2632 1.378 . S
C2630 C2634 1.350 . S
C2631 C2634 1.463 . S
C2631 C2636 1.350 . S
C2631 N2639 1.427 . S
C2632 H2623 0.930 . S
C2632 C2630 1.378 . S
C2632 C2633 1.367 . S
C2633 C2632 1.367 . S
C2633 C2635 1.433 . S
C2634 C2630 1.350 . S
C2634 C2631 1.463 . S
C2634 N2638 1.427 . S
C2635 H2625 0.929 . S
C2635 C2633 1.433 . S
C2635 N2638 1.384 . S
C2636 H2627 0.929 . S
C2636 C2628 1.378 . S
C2636 C2631 1.350 . S
C2637 H2624 0.929 . S
C2637 C2629 1.433 . S
C2637 N2639 1.384 . S
N2638 C2634 1.427 . S
N2638 C2635 1.384 . S
N2639 C2631 1.427 . S
N2639 C2637 1.384 . S
H2640 C2646 0.930 . S
H2641 C2650 0.930 . S
H2642 C2655 0.929 . S
H2643 C2653 0.929 . S
H2644 C2648 0.929 . S
H2645 C2654 0.929 . S
C2646 H2640 0.930 . S
C2646 C2647 1.367 . S
C2646 C2654 1.378 . S
C2647 C2646 1.367 . S
C2647 C2655 1.433 . S
C2648 H2644 0.929 . S
C2648 C2650 1.378 . S
C2648 C2652 1.350 . S
C2649 C2652 1.463 . S
C2649 C2654 1.350 . S
C2649 N2657 1.427 . S
C2650 H2641 0.930 . S
C2650 C2648 1.378 . S
C2650 C2651 1.367 . S
C2651 C2650 1.367 . S
C2651 C2653 1.433 . S
C2652 C2648 1.350 . S
C2652 C2649 1.463 . S
C2652 N2656 1.427 . S
C2653 H2643 0.929 . S
C2653 C2651 1.433 . S
C2653 N2656 1.384 . S
C2654 H2645 0.929 . S
C2654 C2646 1.378 . S
C2654 C2649 1.350 . S
C2655 H2642 0.929 . S
C2655 C2647 1.433 . S
C2655 N2657 1.384 . S
N2656 C2652 1.427 . S
N2656 C2653 1.384 . S
N2657 C2649 1.427 . S
N2657 C2655 1.384 . S
H2658 C2664 0.930 . S
H2659 C2668 0.930 . S
H2660 C2673 0.929 . S
H2661 C2671 0.929 . S
H2662 C2666 0.929 . S
H2663 C2672 0.929 . S
C2664 H2658 0.930 . S
C2664 C2665 1.367 . S
C2664 C2672 1.378 . S
C2665 C2664 1.367 . S
C2665 C2673 1.433 . S
C2666 H2662 0.929 . S
C2666 C2668 1.378 . S
C2666 C2670 1.350 . S
C2667 C2670 1.463 . S
C2667 C2672 1.350 . S
C2667 N2675 1.427 . S
C2668 H2659 0.930 . S
C2668 C2666 1.378 . S
C2668 C2669 1.367 . S
C2669 C2668 1.367 . S
C2669 C2671 1.433 . S
C2670 C2666 1.350 . S
C2670 C2667 1.463 . S
C2670 N2674 1.427 . S
C2671 H2661 0.929 . S
C2671 C2669 1.433 . S
C2671 N2674 1.384 . S
C2672 H2663 0.929 . S
C2672 C2664 1.378 . S
C2672 C2667 1.350 . S
C2673 H2660 0.929 . S
C2673 C2665 1.433 . S
C2673 N2675 1.384 . S
N2674 C2670 1.427 . S
N2674 C2671 1.384 . S
N2675 C2667 1.427 . S
N2675 C2673 1.384 . S
H2676 C2682 0.930 . S
H2677 C2686 0.930 . S
H2678 C2691 0.929 . S
H2679 C2689 0.929 . S
H2680 C2684 0.929 . S
H2681 C2690 0.929 . S
C2682 H2676 0.930 . S
C2682 C2683 1.367 . S
C2682 C2690 1.378 . S
C2683 C2682 1.367 . S
C2683 C2691 1.433 . S
C2684 H2680 0.929 . S
C2684 C2686 1.378 . S
C2684 C2688 1.350 . S
C2685 C2688 1.463 . S
C2685 C2690 1.350 . S
C2685 N2693 1.427 . S
C2686 H2677 0.930 . S
C2686 C2684 1.378 . S
C2686 C2687 1.367 . S
C2687 C2686 1.367 . S
C2687 C2689 1.433 . S
C2688 C2684 1.350 . S
C2688 C2685 1.463 . S
C2688 N2692 1.427 . S
C2689 H2679 0.929 . S
C2689 C2687 1.433 . S
C2689 N2692 1.384 . S
C2690 H2681 0.929 . S
C2690 C2682 1.378 . S
C2690 C2685 1.350 . S
C2691 H2678 0.929 . S
C2691 C2683 1.433 . S
C2691 N2693 1.384 . S
N2692 C2688 1.427 . S
N2692 C2689 1.384 . S
N2693 C2685 1.427 . S
N2693 C2691 1.384 . S
H2694 C2700 0.930 . S
H2695 C2704 0.930 . S
H2696 C2709 0.929 . S
H2697 C2707 0.929 . S
H2698 C2702 0.929 . S
H2699 C2708 0.929 . S
C2700 H2694 0.930 . S
C2700 C2701 1.367 . S
C2700 C2708 1.378 . S
C2701 C2700 1.367 . S
C2701 C2709 1.433 . S
C2702 H2698 0.929 . S
C2702 C2704 1.378 . S
C2702 C2706 1.350 . S
C2703 C2706 1.463 . S
C2703 C2708 1.350 . S
C2703 N2711 1.427 . S
C2704 H2695 0.930 . S
C2704 C2702 1.378 . S
C2704 C2705 1.367 . S
C2705 C2704 1.367 . S
C2705 C2707 1.433 . S
C2706 C2702 1.350 . S
C2706 C2703 1.463 . S
C2706 N2710 1.427 . S
C2707 H2697 0.929 . S
C2707 C2705 1.433 . S
C2707 N2710 1.384 . S
C2708 H2699 0.929 . S
C2708 C2700 1.378 . S
C2708 C2703 1.350 . S
C2709 H2696 0.929 . S
C2709 C2701 1.433 . S
C2709 N2711 1.384 . S
N2710 C2706 1.427 . S
N2710 C2707 1.384 . S
N2711 C2703 1.427 . S
N2711 C2709 1.384 . S
H2712 C2718 0.930 . S
H2713 C2722 0.930 . S
H2714 C2727 0.929 . S
H2715 C2725 0.929 . S
H2716 C2720 0.929 . S
H2717 C2726 0.929 . S
C2718 H2712 0.930 . S
C2718 C2719 1.367 . S
C2718 C2726 1.378 . S
C2719 C2718 1.367 . S
C2719 C2727 1.433 . S
C2720 H2716 0.929 . S
C2720 C2722 1.378 . S
C2720 C2724 1.350 . S
C2721 C2724 1.463 . S
C2721 C2726 1.350 . S
C2721 N2729 1.427 . S
C2722 H2713 0.930 . S
C2722 C2720 1.378 . S
C2722 C2723 1.367 . S
C2723 C2722 1.367 . S
C2723 C2725 1.433 . S
C2724 C2720 1.350 . S
C2724 C2721 1.463 . S
C2724 N2728 1.427 . S
C2725 H2715 0.929 . S
C2725 C2723 1.433 . S
C2725 N2728 1.384 . S
C2726 H2717 0.929 . S
C2726 C2718 1.378 . S
C2726 C2721 1.350 . S
C2727 H2714 0.929 . S
C2727 C2719 1.433 . S
C2727 N2729 1.384 . S
N2728 C2724 1.427 . S
N2728 C2725 1.384 . S
N2729 C2721 1.427 . S
N2729 C2727 1.384 . S
H2730 C2736 0.930 . S
H2731 C2740 0.930 . S
H2732 C2745 0.929 . S
H2733 C2743 0.929 . S
H2734 C2738 0.929 . S
H2735 C2744 0.929 . S
C2736 H2730 0.930 . S
C2736 C2737 1.367 . S
C2736 C2744 1.378 . S
C2737 C2736 1.367 . S
C2737 C2745 1.433 . S
C2738 H2734 0.929 . S
C2738 C2740 1.378 . S
C2738 C2742 1.350 . S
C2739 C2742 1.463 . S
C2739 C2744 1.350 . S
C2739 N2747 1.427 . S
C2740 H2731 0.930 . S
C2740 C2738 1.378 . S
C2740 C2741 1.367 . S
C2741 C2740 1.367 . S
C2741 C2743 1.433 . S
C2742 C2738 1.350 . S
C2742 C2739 1.463 . S
C2742 N2746 1.427 . S
C2743 H2733 0.929 . S
C2743 C2741 1.433 . S
C2743 N2746 1.384 . S
C2744 H2735 0.929 . S
C2744 C2736 1.378 . S
C2744 C2739 1.350 . S
C2745 H2732 0.929 . S
C2745 C2737 1.433 . S
C2745 N2747 1.384 . S
N2746 C2742 1.427 . S
N2746 C2743 1.384 . S
N2747 C2739 1.427 . S
N2747 C2745 1.384 . S
H2748 C2754 0.930 . S
H2749 C2758 0.930 . S
H2750 C2763 0.929 . S
H2751 C2761 0.929 . S
H2752 C2756 0.929 . S
H2753 C2762 0.929 . S
C2754 H2748 0.930 . S
C2754 C2755 1.367 . S
C2754 C2762 1.378 . S
C2755 C2754 1.367 . S
C2755 C2763 1.433 . S
C2756 H2752 0.929 . S
C2756 C2758 1.378 . S
C2756 C2760 1.350 . S
C2757 C2760 1.463 . S
C2757 C2762 1.350 . S
C2757 N2765 1.427 . S
C2758 H2749 0.930 . S
C2758 C2756 1.378 . S
C2758 C2759 1.367 . S
C2759 C2758 1.367 . S
C2759 C2761 1.433 . S
C2760 C2756 1.350 . S
C2760 C2757 1.463 . S
C2760 N2764 1.427 . S
C2761 H2751 0.929 . S
C2761 C2759 1.433 . S
C2761 N2764 1.384 . S
C2762 H2753 0.929 . S
C2762 C2754 1.378 . S
C2762 C2757 1.350 . S
C2763 H2750 0.929 . S
C2763 C2755 1.433 . S
C2763 N2765 1.384 . S
N2764 C2760 1.427 . S
N2764 C2761 1.384 . S
N2765 C2757 1.427 . S
N2765 C2763 1.384 . S
H2766 C2772 0.930 . S
H2767 C2776 0.930 . S
H2768 C2781 0.929 . S
H2769 C2779 0.929 . S
H2770 C2774 0.929 . S
H2771 C2780 0.929 . S
C2772 H2766 0.930 . S
C2772 C2773 1.367 . S
C2772 C2780 1.378 . S
C2773 C2772 1.367 . S
C2773 C2781 1.433 . S
C2774 H2770 0.929 . S
C2774 C2776 1.378 . S
C2774 C2778 1.350 . S
C2775 C2778 1.463 . S
C2775 C2780 1.350 . S
C2775 N2783 1.427 . S
C2776 H2767 0.930 . S
C2776 C2774 1.378 . S
C2776 C2777 1.367 . S
C2777 C2776 1.367 . S
C2777 C2779 1.433 . S
C2778 C2774 1.350 . S
C2778 C2775 1.463 . S
C2778 N2782 1.427 . S
C2779 H2769 0.929 . S
C2779 C2777 1.433 . S
C2779 N2782 1.384 . S
C2780 H2771 0.929 . S
C2780 C2772 1.378 . S
C2780 C2775 1.350 . S
C2781 H2768 0.929 . S
C2781 C2773 1.433 . S
C2781 N2783 1.384 . S
N2782 C2778 1.427 . S
N2782 C2779 1.384 . S
N2783 C2775 1.427 . S
N2783 C2781 1.384 . S
H2784 C2790 0.930 . S
H2785 C2794 0.930 . S
H2786 C2799 0.929 . S
H2787 C2797 0.929 . S
H2788 C2792 0.929 . S
H2789 C2798 0.929 . S
C2790 H2784 0.930 . S
C2790 C2791 1.367 . S
C2790 C2798 1.378 . S
C2791 C2790 1.367 . S
C2791 C2799 1.433 . S
C2792 H2788 0.929 . S
C2792 C2794 1.378 . S
C2792 C2796 1.350 . S
C2793 C2796 1.463 . S
C2793 C2798 1.350 . S
C2793 N2801 1.427 . S
C2794 H2785 0.930 . S
C2794 C2792 1.378 . S
C2794 C2795 1.367 . S
C2795 C2794 1.367 . S
C2795 C2797 1.433 . S
C2796 C2792 1.350 . S
C2796 C2793 1.463 . S
C2796 N2800 1.427 . S
C2797 H2787 0.929 . S
C2797 C2795 1.433 . S
C2797 N2800 1.384 . S
C2798 H2789 0.929 . S
C2798 C2790 1.378 . S
C2798 C2793 1.350 . S
C2799 H2786 0.929 . S
C2799 C2791 1.433 . S
C2799 N2801 1.384 . S
N2800 C2796 1.427 . S
N2800 C2797 1.384 . S
N2801 C2793 1.427 . S
N2801 C2799 1.384 . S
H2802 C2808 0.930 . S
H2803 C2812 0.930 . S
H2804 C2817 0.929 . S
H2805 C2815 0.929 . S
H2806 C2810 0.929 . S
H2807 C2816 0.929 . S
C2808 H2802 0.930 . S
C2808 C2809 1.367 . S
C2808 C2816 1.378 . S
C2809 C2808 1.367 . S
C2809 C2817 1.433 . S
C2810 H2806 0.929 . S
C2810 C2812 1.378 . S
C2810 C2814 1.350 . S
C2811 C2814 1.463 . S
C2811 C2816 1.350 . S
C2811 N2819 1.427 . S
C2812 H2803 0.930 . S
C2812 C2810 1.378 . S
C2812 C2813 1.367 . S
C2813 C2812 1.367 . S
C2813 C2815 1.433 . S
C2814 C2810 1.350 . S
C2814 C2811 1.463 . S
C2814 N2818 1.427 . S
C2815 H2805 0.929 . S
C2815 C2813 1.433 . S
C2815 N2818 1.384 . S
C2816 H2807 0.929 . S
C2816 C2808 1.378 . S
C2816 C2811 1.350 . S
C2817 H2804 0.929 . S
C2817 C2809 1.433 . S
C2817 N2819 1.384 . S
N2818 C2814 1.427 . S
N2818 C2815 1.384 . S
N2819 C2811 1.427 . S
N2819 C2817 1.384 . S
H2820 C2826 0.930 . S
H2821 C2830 0.930 . S
H2822 C2835 0.929 . S
H2823 C2833 0.929 . S
H2824 C2828 0.929 . S
H2825 C2834 0.929 . S
C2826 H2820 0.930 . S
C2826 C2827 1.367 . S
C2826 C2834 1.378 . S
C2827 C2826 1.367 . S
C2827 C2835 1.433 . S
C2828 H2824 0.929 . S
C2828 C2830 1.378 . S
C2828 C2832 1.350 . S
C2829 C2832 1.463 . S
C2829 C2834 1.350 . S
C2829 N2837 1.427 . S
C2830 H2821 0.930 . S
C2830 C2828 1.378 . S
C2830 C2831 1.367 . S
C2831 C2830 1.367 . S
C2831 C2833 1.433 . S
C2832 C2828 1.350 . S
C2832 C2829 1.463 . S
C2832 N2836 1.427 . S
C2833 H2823 0.929 . S
C2833 C2831 1.433 . S
C2833 N2836 1.384 . S
C2834 H2825 0.929 . S
C2834 C2826 1.378 . S
C2834 C2829 1.350 . S
C2835 H2822 0.929 . S
C2835 C2827 1.433 . S
C2835 N2837 1.384 . S
N2836 C2832 1.427 . S
N2836 C2833 1.384 . S
N2837 C2829 1.427 . S
N2837 C2835 1.384 . S
H2838 C2844 0.930 . S
H2839 C2848 0.930 . S
H2840 C2853 0.929 . S
H2841 C2851 0.929 . S
H2842 C2846 0.929 . S
H2843 C2852 0.929 . S
C2844 H2838 0.930 . S
C2844 C2845 1.367 . S
C2844 C2852 1.378 . S
C2845 C2844 1.367 . S
C2845 C2853 1.433 . S
C2846 H2842 0.929 . S
C2846 C2848 1.378 . S
C2846 C2850 1.350 . S
C2847 C2850 1.463 . S
C2847 C2852 1.350 . S
C2847 N2855 1.427 . S
C2848 H2839 0.930 . S
C2848 C2846 1.378 . S
C2848 C2849 1.367 . S
C2849 C2848 1.367 . S
C2849 C2851 1.433 . S
C2850 C2846 1.350 . S
C2850 C2847 1.463 . S
C2850 N2854 1.427 . S
C2851 H2841 0.929 . S
C2851 C2849 1.433 . S
C2851 N2854 1.384 . S
C2852 H2843 0.929 . S
C2852 C2844 1.378 . S
C2852 C2847 1.350 . S
C2853 H2840 0.929 . S
C2853 C2845 1.433 . S
C2853 N2855 1.384 . S
N2854 C2850 1.427 . S
N2854 C2851 1.384 . S
N2855 C2847 1.427 . S
N2855 C2853 1.384 . S
H2856 C2862 0.930 . S
H2857 C2866 0.930 . S
H2858 C2871 0.929 . S
H2859 C2869 0.929 . S
H2860 C2864 0.929 . S
H2861 C2870 0.929 . S
C2862 H2856 0.930 . S
C2862 C2863 1.367 . S
C2862 C2870 1.378 . S
C2863 C2862 1.367 . S
C2863 C2871 1.433 . S
C2864 H2860 0.929 . S
C2864 C2866 1.378 . S
C2864 C2868 1.350 . S
C2865 C2868 1.463 . S
C2865 C2870 1.350 . S
C2865 N2873 1.427 . S
C2866 H2857 0.930 . S
C2866 C2864 1.378 . S
C2866 C2867 1.367 . S
C2867 C2866 1.367 . S
C2867 C2869 1.433 . S
C2868 C2864 1.350 . S
C2868 C2865 1.463 . S
C2868 N2872 1.427 . S
C2869 H2859 0.929 . S
C2869 C2867 1.433 . S
C2869 N2872 1.384 . S
C2870 H2861 0.929 . S
C2870 C2862 1.378 . S
C2870 C2865 1.350 . S
C2871 H2858 0.929 . S
C2871 C2863 1.433 . S
C2871 N2873 1.384 . S
N2872 C2868 1.427 . S
N2872 C2869 1.384 . S
N2873 C2865 1.427 . S
N2873 C2871 1.384 . S
H2874 C2880 0.930 . S
H2875 C2884 0.930 . S
H2876 C2889 0.929 . S
H2877 C2887 0.929 . S
H2878 C2882 0.929 . S
H2879 C2888 0.929 . S
C2880 H2874 0.930 . S
C2880 C2881 1.367 . S
C2880 C2888 1.378 . S
C2881 C2880 1.367 . S
C2881 C2889 1.433 . S
C2882 H2878 0.929 . S
C2882 C2884 1.378 . S
C2882 C2886 1.350 . S
C2883 C2886 1.463 . S
C2883 C2888 1.350 . S
C2883 N2891 1.427 . S
C2884 H2875 0.930 . S
C2884 C2882 1.378 . S
C2884 C2885 1.367 . S
C2885 C2884 1.367 . S
C2885 C2887 1.433 . S
C2886 C2882 1.350 . S
C2886 C2883 1.463 . S
C2886 N2890 1.427 . S
C2887 H2877 0.929 . S
C2887 C2885 1.433 . S
C2887 N2890 1.384 . S
C2888 H2879 0.929 . S
C2888 C2880 1.378 . S
C2888 C2883 1.350 . S
C2889 H2876 0.929 . S
C2889 C2881 1.433 . S
C2889 N2891 1.384 . S
N2890 C2886 1.427 . S
N2890 C2887 1.384 . S
N2891 C2883 1.427 . S
N2891 C2889 1.384 . S
H2892 C2898 0.930 . S
H2893 C2902 0.930 . S
H2894 C2907 0.929 . S
H2895 C2905 0.929 . S
H2896 C2900 0.929 . S
H2897 C2906 0.929 . S
C2898 H2892 0.930 . S
C2898 C2899 1.367 . S
C2898 C2906 1.378 . S
C2899 C2898 1.367 . S
C2899 C2907 1.433 . S
C2900 H2896 0.929 . S
C2900 C2902 1.378 . S
C2900 C2904 1.350 . S
C2901 C2904 1.463 . S
C2901 C2906 1.350 . S
C2901 N2909 1.427 . S
C2902 H2893 0.930 . S
C2902 C2900 1.378 . S
C2902 C2903 1.367 . S
C2903 C2902 1.367 . S
C2903 C2905 1.433 . S
C2904 C2900 1.350 . S
C2904 C2901 1.463 . S
C2904 N2908 1.427 . S
C2905 H2895 0.929 . S
C2905 C2903 1.433 . S
C2905 N2908 1.384 . S
C2906 H2897 0.929 . S
C2906 C2898 1.378 . S
C2906 C2901 1.350 . S
C2907 H2894 0.929 . S
C2907 C2899 1.433 . S
C2907 N2909 1.384 . S
N2908 C2904 1.427 . S
N2908 C2905 1.384 . S
N2909 C2901 1.427 . S
N2909 C2907 1.384 . S
H2910 C2916 0.930 . S
H2911 C2920 0.930 . S
H2912 C2925 0.929 . S
H2913 C2923 0.929 . S
H2914 C2918 0.929 . S
H2915 C2924 0.929 . S
C2916 H2910 0.930 . S
C2916 C2917 1.367 . S
C2916 C2924 1.378 . S
C2917 C2916 1.367 . S
C2917 C2925 1.433 . S
C2918 H2914 0.929 . S
C2918 C2920 1.378 . S
C2918 C2922 1.350 . S
C2919 C2922 1.463 . S
C2919 C2924 1.350 . S
C2919 N2927 1.427 . S
C2920 H2911 0.930 . S
C2920 C2918 1.378 . S
C2920 C2921 1.367 . S
C2921 C2920 1.367 . S
C2921 C2923 1.433 . S
C2922 C2918 1.350 . S
C2922 C2919 1.463 . S
C2922 N2926 1.427 . S
C2923 H2913 0.929 . S
C2923 C2921 1.433 . S
C2923 N2926 1.384 . S
C2924 H2915 0.929 . S
C2924 C2916 1.378 . S
C2924 C2919 1.350 . S
C2925 H2912 0.929 . S
C2925 C2917 1.433 . S
C2925 N2927 1.384 . S
N2926 C2922 1.427 . S
N2926 C2923 1.384 . S
N2927 C2919 1.427 . S
N2927 C2925 1.384 . S
H2928 C2934 0.930 . S
H2929 C2938 0.930 . S
H2930 C2943 0.929 . S
H2931 C2941 0.929 . S
H2932 C2936 0.929 . S
H2933 C2942 0.929 . S
C2934 H2928 0.930 . S
C2934 C2935 1.367 . S
C2934 C2942 1.378 . S
C2935 C2934 1.367 . S
C2935 C2943 1.433 . S
C2936 H2932 0.929 . S
C2936 C2938 1.378 . S
C2936 C2940 1.350 . S
C2937 C2940 1.463 . S
C2937 C2942 1.350 . S
C2937 N2945 1.427 . S
C2938 H2929 0.930 . S
C2938 C2936 1.378 . S
C2938 C2939 1.367 . S
C2939 C2938 1.367 . S
C2939 C2941 1.433 . S
C2940 C2936 1.350 . S
C2940 C2937 1.463 . S
C2940 N2944 1.427 . S
C2941 H2931 0.929 . S
C2941 C2939 1.433 . S
C2941 N2944 1.384 . S
C2942 H2933 0.929 . S
C2942 C2934 1.378 . S
C2942 C2937 1.350 . S
C2943 H2930 0.929 . S
C2943 C2935 1.433 . S
C2943 N2945 1.384 . S
N2944 C2940 1.427 . S
N2944 C2941 1.384 . S
N2945 C2937 1.427 . S
N2945 C2943 1.384 . S
H2946 C2952 0.930 . S
H2947 C2956 0.930 . S
H2948 C2961 0.929 . S
H2949 C2959 0.929 . S
H2950 C2954 0.929 . S
H2951 C2960 0.929 . S
C2952 H2946 0.930 . S
C2952 C2953 1.367 . S
C2952 C2960 1.378 . S
C2953 C2952 1.367 . S
C2953 C2961 1.433 . S
C2954 H2950 0.929 . S
C2954 C2956 1.378 . S
C2954 C2958 1.350 . S
C2955 C2958 1.463 . S
C2955 C2960 1.350 . S
C2955 N2963 1.427 . S
C2956 H2947 0.930 . S
C2956 C2954 1.378 . S
C2956 C2957 1.367 . S
C2957 C2956 1.367 . S
C2957 C2959 1.433 . S
C2958 C2954 1.350 . S
C2958 C2955 1.463 . S
C2958 N2962 1.427 . S
C2959 H2949 0.929 . S
C2959 C2957 1.433 . S
C2959 N2962 1.384 . S
C2960 H2951 0.929 . S
C2960 C2952 1.378 . S
C2960 C2955 1.350 . S
C2961 H2948 0.929 . S
C2961 C2953 1.433 . S
C2961 N2963 1.384 . S
N2962 C2958 1.427 . S
N2962 C2959 1.384 . S
N2963 C2955 1.427 . S
N2963 C2961 1.384 . S
H2964 C2970 0.930 . S
H2965 C2974 0.930 . S
H2966 C2979 0.929 . S
H2967 C2977 0.929 . S
H2968 C2972 0.929 . S
H2969 C2978 0.929 . S
C2970 H2964 0.930 . S
C2970 C2971 1.367 . S
C2970 C2978 1.378 . S
C2971 C2970 1.367 . S
C2971 C2979 1.433 . S
C2972 H2968 0.929 . S
C2972 C2974 1.378 . S
C2972 C2976 1.350 . S
C2973 C2976 1.463 . S
C2973 C2978 1.350 . S
C2973 N2981 1.427 . S
C2974 H2965 0.930 . S
C2974 C2972 1.378 . S
C2974 C2975 1.367 . S
C2975 C2974 1.367 . S
C2975 C2977 1.433 . S
C2976 C2972 1.350 . S
C2976 C2973 1.463 . S
C2976 N2980 1.427 . S
C2977 H2967 0.929 . S
C2977 C2975 1.433 . S
C2977 N2980 1.384 . S
C2978 H2969 0.929 . S
C2978 C2970 1.378 . S
C2978 C2973 1.350 . S
C2979 H2966 0.929 . S
C2979 C2971 1.433 . S
C2979 N2981 1.384 . S
N2980 C2976 1.427 . S
N2980 C2977 1.384 . S
N2981 C2973 1.427 . S
N2981 C2979 1.384 . S
H2982 C2988 0.930 . S
H2983 C2992 0.930 . S
H2984 C2997 0.929 . S
H2985 C2995 0.929 . S
H2986 C2990 0.929 . S
H2987 C2996 0.929 . S
C2988 H2982 0.930 . S
C2988 C2989 1.367 . S
C2988 C2996 1.378 . S
C2989 C2988 1.367 . S
C2989 C2997 1.433 . S
C2990 H2986 0.929 . S
C2990 C2992 1.378 . S
C2990 C2994 1.350 . S
C2991 C2994 1.463 . S
C2991 C2996 1.350 . S
C2991 N2999 1.427 . S
C2992 H2983 0.930 . S
C2992 C2990 1.378 . S
C2992 C2993 1.367 . S
C2993 C2992 1.367 . S
C2993 C2995 1.433 . S
C2994 C2990 1.350 . S
C2994 C2991 1.463 . S
C2994 N2998 1.427 . S
C2995 H2985 0.929 . S
C2995 C2993 1.433 . S
C2995 N2998 1.384 . S
C2996 H2987 0.929 . S
C2996 C2988 1.378 . S
C2996 C2991 1.350 . S
C2997 H2984 0.929 . S
C2997 C2989 1.433 . S
C2997 N2999 1.384 . S
N2998 C2994 1.427 . S
N2998 C2995 1.384 . S
N2999 C2991 1.427 . S
N2999 C2997 1.384 . S
H3000 C3006 0.930 . S
H3001 C3010 0.930 . S
H3002 C3015 0.929 . S
H3003 C3013 0.929 . S
H3004 C3008 0.929 . S
H3005 C3014 0.929 . S
C3006 H3000 0.930 . S
C3006 C3007 1.367 . S
C3006 C3014 1.378 . S
C3007 C3006 1.367 . S
C3007 C3015 1.433 . S
C3008 H3004 0.929 . S
C3008 C3010 1.378 . S
C3008 C3012 1.350 . S
C3009 C3012 1.463 . S
C3009 C3014 1.350 . S
C3009 N3017 1.427 . S
C3010 H3001 0.930 . S
C3010 C3008 1.378 . S
C3010 C3011 1.367 . S
C3011 C3010 1.367 . S
C3011 C3013 1.433 . S
C3012 C3008 1.350 . S
C3012 C3009 1.463 . S
C3012 N3016 1.427 . S
C3013 H3003 0.929 . S
C3013 C3011 1.433 . S
C3013 N3016 1.384 . S
C3014 H3005 0.929 . S
C3014 C3006 1.378 . S
C3014 C3009 1.350 . S
C3015 H3002 0.929 . S
C3015 C3007 1.433 . S
C3015 N3017 1.384 . S
N3016 C3012 1.427 . S
N3016 C3013 1.384 . S
N3017 C3009 1.427 . S
N3017 C3015 1.384 . S
H3018 C3024 0.930 . S
H3019 C3028 0.930 . S
H3020 C3033 0.929 . S
H3021 C3031 0.929 . S
H3022 C3026 0.929 . S
H3023 C3032 0.929 . S
C3024 H3018 0.930 . S
C3024 C3025 1.367 . S
C3024 C3032 1.378 . S
C3025 C3024 1.367 . S
C3025 C3033 1.433 . S
C3026 H3022 0.929 . S
C3026 C3028 1.378 . S
C3026 C3030 1.350 . S
C3027 C3030 1.463 . S
C3027 C3032 1.350 . S
C3027 N3035 1.427 . S
C3028 H3019 0.930 . S
C3028 C3026 1.378 . S
C3028 C3029 1.367 . S
C3029 C3028 1.367 . S
C3029 C3031 1.433 . S
C3030 C3026 1.350 . S
C3030 C3027 1.463 . S
C3030 N3034 1.427 . S
C3031 H3021 0.929 . S
C3031 C3029 1.433 . S
C3031 N3034 1.384 . S
C3032 H3023 0.929 . S
C3032 C3024 1.378 . S
C3032 C3027 1.350 . S
C3033 H3020 0.929 . S
C3033 C3025 1.433 . S
C3033 N3035 1.384 . S
N3034 C3030 1.427 . S
N3034 C3031 1.384 . S
N3035 C3027 1.427 . S
N3035 C3033 1.384 . S
H3036 C3042 0.930 . S
H3037 C3046 0.930 . S
H3038 C3051 0.929 . S
H3039 C3049 0.929 . S
H3040 C3044 0.929 . S
H3041 C3050 0.929 . S
C3042 H3036 0.930 . S
C3042 C3043 1.367 . S
C3042 C3050 1.378 . S
C3043 C3042 1.367 . S
C3043 C3051 1.433 . S
C3044 H3040 0.929 . S
C3044 C3046 1.378 . S
C3044 C3048 1.350 . S
C3045 C3048 1.463 . S
C3045 C3050 1.350 . S
C3045 N3053 1.427 . S
C3046 H3037 0.930 . S
C3046 C3044 1.378 . S
C3046 C3047 1.367 . S
C3047 C3046 1.367 . S
C3047 C3049 1.433 . S
C3048 C3044 1.350 . S
C3048 C3045 1.463 . S
C3048 N3052 1.427 . S
C3049 H3039 0.929 . S
C3049 C3047 1.433 . S
C3049 N3052 1.384 . S
C3050 H3041 0.929 . S
C3050 C3042 1.378 . S
C3050 C3045 1.350 . S
C3051 H3038 0.929 . S
C3051 C3043 1.433 . S
C3051 N3053 1.384 . S
N3052 C3048 1.427 . S
N3052 C3049 1.384 . S
N3053 C3045 1.427 . S
N3053 C3051 1.384 . S
H3054 C3060 0.930 . S
H3055 C3064 0.930 . S
H3056 C3069 0.929 . S
H3057 C3067 0.929 . S
H3058 C3062 0.929 . S
H3059 C3068 0.929 . S
C3060 H3054 0.930 . S
C3060 C3061 1.367 . S
C3060 C3068 1.378 . S
C3061 C3060 1.367 . S
C3061 C3069 1.433 . S
C3062 H3058 0.929 . S
C3062 C3064 1.378 . S
C3062 C3066 1.350 . S
C3063 C3066 1.463 . S
C3063 C3068 1.350 . S
C3063 N3071 1.427 . S
C3064 H3055 0.930 . S
C3064 C3062 1.378 . S
C3064 C3065 1.367 . S
C3065 C3064 1.367 . S
C3065 C3067 1.433 . S
C3066 C3062 1.350 . S
C3066 C3063 1.463 . S
C3066 N3070 1.427 . S
C3067 H3057 0.929 . S
C3067 C3065 1.433 . S
C3067 N3070 1.384 . S
C3068 H3059 0.929 . S
C3068 C3060 1.378 . S
C3068 C3063 1.350 . S
C3069 H3056 0.929 . S
C3069 C3061 1.433 . S
C3069 N3071 1.384 . S
N3070 C3066 1.427 . S
N3070 C3067 1.384 . S
N3071 C3063 1.427 . S
N3071 C3069 1.384 . S
H3072 C3078 0.930 . S
H3073 C3082 0.930 . S
H3074 C3087 0.929 . S
H3075 C3085 0.929 . S
H3076 C3080 0.929 . S
H3077 C3086 0.929 . S
C3078 H3072 0.930 . S
C3078 C3079 1.367 . S
C3078 C3086 1.378 . S
C3079 C3078 1.367 . S
C3079 C3087 1.433 . S
C3080 H3076 0.929 . S
C3080 C3082 1.378 . S
C3080 C3084 1.350 . S
C3081 C3084 1.463 . S
C3081 C3086 1.350 . S
C3081 N3089 1.427 . S
C3082 H3073 0.930 . S
C3082 C3080 1.378 . S
C3082 C3083 1.367 . S
C3083 C3082 1.367 . S
C3083 C3085 1.433 . S
C3084 C3080 1.350 . S
C3084 C3081 1.463 . S
C3084 N3088 1.427 . S
C3085 H3075 0.929 . S
C3085 C3083 1.433 . S
C3085 N3088 1.384 . S
C3086 H3077 0.929 . S
C3086 C3078 1.378 . S
C3086 C3081 1.350 . S
C3087 H3074 0.929 . S
C3087 C3079 1.433 . S
C3087 N3089 1.384 . S
N3088 C3084 1.427 . S
N3088 C3085 1.384 . S
N3089 C3081 1.427 . S
N3089 C3087 1.384 . S
H3090 C3096 0.930 . S
H3091 C3100 0.930 . S
H3092 C3105 0.929 . S
H3093 C3103 0.929 . S
H3094 C3098 0.929 . S
H3095 C3104 0.929 . S
C3096 H3090 0.930 . S
C3096 C3097 1.367 . S
C3096 C3104 1.378 . S
C3097 C3096 1.367 . S
C3097 C3105 1.433 . S
C3098 H3094 0.929 . S
C3098 C3100 1.378 . S
C3098 C3102 1.350 . S
C3099 C3102 1.463 . S
C3099 C3104 1.350 . S
C3099 N3107 1.427 . S
C3100 H3091 0.930 . S
C3100 C3098 1.378 . S
C3100 C3101 1.367 . S
C3101 C3100 1.367 . S
C3101 C3103 1.433 . S
C3102 C3098 1.350 . S
C3102 C3099 1.463 . S
C3102 N3106 1.427 . S
C3103 H3093 0.929 . S
C3103 C3101 1.433 . S
C3103 N3106 1.384 . S
C3104 H3095 0.929 . S
C3104 C3096 1.378 . S
C3104 C3099 1.350 . S
C3105 H3092 0.929 . S
C3105 C3097 1.433 . S
C3105 N3107 1.384 . S
N3106 C3102 1.427 . S
N3106 C3103 1.384 . S
N3107 C3099 1.427 . S
N3107 C3105 1.384 . S
H3108 C3114 0.930 . S
H3109 C3118 0.930 . S
H3110 C3123 0.929 . S
H3111 C3121 0.929 . S
H3112 C3116 0.929 . S
H3113 C3122 0.929 . S
C3114 H3108 0.930 . S
C3114 C3115 1.367 . S
C3114 C3122 1.378 . S
C3115 C3114 1.367 . S
C3115 C3123 1.433 . S
C3116 H3112 0.929 . S
C3116 C3118 1.378 . S
C3116 C3120 1.350 . S
C3117 C3120 1.463 . S
C3117 C3122 1.350 . S
C3117 N3125 1.427 . S
C3118 H3109 0.930 . S
C3118 C3116 1.378 . S
C3118 C3119 1.367 . S
C3119 C3118 1.367 . S
C3119 C3121 1.433 . S
C3120 C3116 1.350 . S
C3120 C3117 1.463 . S
C3120 N3124 1.427 . S
C3121 H3111 0.929 . S
C3121 C3119 1.433 . S
C3121 N3124 1.384 . S
C3122 H3113 0.929 . S
C3122 C3114 1.378 . S
C3122 C3117 1.350 . S
C3123 H3110 0.929 . S
C3123 C3115 1.433 . S
C3123 N3125 1.384 . S
N3124 C3120 1.427 . S
N3124 C3121 1.384 . S
N3125 C3117 1.427 . S
N3125 C3123 1.384 . S
H3126 C3132 0.930 . S
H3127 C3136 0.930 . S
H3128 C3141 0.929 . S
H3129 C3139 0.929 . S
H3130 C3134 0.929 . S
H3131 C3140 0.929 . S
C3132 H3126 0.930 . S
C3132 C3133 1.367 . S
C3132 C3140 1.378 . S
C3133 C3132 1.367 . S
C3133 C3141 1.433 . S
C3134 H3130 0.929 . S
C3134 C3136 1.378 . S
C3134 C3138 1.350 . S
C3135 C3138 1.463 . S
C3135 C3140 1.350 . S
C3135 N3143 1.427 . S
C3136 H3127 0.930 . S
C3136 C3134 1.378 . S
C3136 C3137 1.367 . S
C3137 C3136 1.367 . S
C3137 C3139 1.433 . S
C3138 C3134 1.350 . S
C3138 C3135 1.463 . S
C3138 N3142 1.427 . S
C3139 H3129 0.929 . S
C3139 C3137 1.433 . S
C3139 N3142 1.384 . S
C3140 H3131 0.929 . S
C3140 C3132 1.378 . S
C3140 C3135 1.350 . S
C3141 H3128 0.929 . S
C3141 C3133 1.433 . S
C3141 N3143 1.384 . S
N3142 C3138 1.427 . S
N3142 C3139 1.384 . S
N3143 C3135 1.427 . S
N3143 C3141 1.384 . S
H3144 C3150 0.930 . S
H3145 C3154 0.930 . S
H3146 C3159 0.929 . S
H3147 C3157 0.929 . S
H3148 C3152 0.929 . S
H3149 C3158 0.929 . S
C3150 H3144 0.930 . S
C3150 C3151 1.367 . S
C3150 C3158 1.378 . S
C3151 C3150 1.367 . S
C3151 C3159 1.433 . S
C3152 H3148 0.929 . S
C3152 C3154 1.378 . S
C3152 C3156 1.350 . S
C3153 C3156 1.463 . S
C3153 C3158 1.350 . S
C3153 N3161 1.427 . S
C3154 H3145 0.930 . S
C3154 C3152 1.378 . S
C3154 C3155 1.367 . S
C3155 C3154 1.367 . S
C3155 C3157 1.433 . S
C3156 C3152 1.350 . S
C3156 C3153 1.463 . S
C3156 N3160 1.427 . S
C3157 H3147 0.929 . S
C3157 C3155 1.433 . S
C3157 N3160 1.384 . S
C3158 H3149 0.929 . S
C3158 C3150 1.378 . S
C3158 C3153 1.350 . S
C3159 H3146 0.929 . S
C3159 C3151 1.433 . S
C3159 N3161 1.384 . S
N3160 C3156 1.427 . S
N3160 C3157 1.384 . S
N3161 C3153 1.427 . S
N3161 C3159 1.384 . S
H3162 C3168 0.930 . S
H3163 C3172 0.930 . S
H3164 C3177 0.929 . S
H3165 C3175 0.929 . S
H3166 C3170 0.929 . S
H3167 C3176 0.929 . S
C3168 H3162 0.930 . S
C3168 C3169 1.367 . S
C3168 C3176 1.378 . S
C3169 C3168 1.367 . S
C3169 C3177 1.433 . S
C3170 H3166 0.929 . S
C3170 C3172 1.378 . S
C3170 C3174 1.350 . S
C3171 C3174 1.463 . S
C3171 C3176 1.350 . S
C3171 N3179 1.427 . S
C3172 H3163 0.930 . S
C3172 C3170 1.378 . S
C3172 C3173 1.367 . S
C3173 C3172 1.367 . S
C3173 C3175 1.433 . S
C3174 C3170 1.350 . S
C3174 C3171 1.463 . S
C3174 N3178 1.427 . S
C3175 H3165 0.929 . S
C3175 C3173 1.433 . S
C3175 N3178 1.384 . S
C3176 H3167 0.929 . S
C3176 C3168 1.378 . S
C3176 C3171 1.350 . S
C3177 H3164 0.929 . S
C3177 C3169 1.433 . S
C3177 N3179 1.384 . S
N3178 C3174 1.427 . S
N3178 C3175 1.384 . S
N3179 C3171 1.427 . S
N3179 C3177 1.384 . S
H3180 C3186 0.930 . S
H3181 C3190 0.930 . S
H3182 C3195 0.929 . S
H3183 C3193 0.929 . S
H3184 C3188 0.929 . S
H3185 C3194 0.929 . S
C3186 H3180 0.930 . S
C3186 C3187 1.367 . S
C3186 C3194 1.378 . S
C3187 C3186 1.367 . S
C3187 C3195 1.433 . S
C3188 H3184 0.929 . S
C3188 C3190 1.378 . S
C3188 C3192 1.350 . S
C3189 C3192 1.463 . S
C3189 C3194 1.350 . S
C3189 N3197 1.427 . S
C3190 H3181 0.930 . S
C3190 C3188 1.378 . S
C3190 C3191 1.367 . S
C3191 C3190 1.367 . S
C3191 C3193 1.433 . S
C3192 C3188 1.350 . S
C3192 C3189 1.463 . S
C3192 N3196 1.427 . S
C3193 H3183 0.929 . S
C3193 C3191 1.433 . S
C3193 N3196 1.384 . S
C3194 H3185 0.929 . S
C3194 C3186 1.378 . S
C3194 C3189 1.350 . S
C3195 H3182 0.929 . S
C3195 C3187 1.433 . S
C3195 N3197 1.384 . S
N3196 C3192 1.427 . S
N3196 C3193 1.384 . S
N3197 C3189 1.427 . S
N3197 C3195 1.384 . S
H3198 C3204 0.930 . S
H3199 C3208 0.930 . S
H3200 C3213 0.929 . S
H3201 C3211 0.929 . S
H3202 C3206 0.929 . S
H3203 C3212 0.929 . S
C3204 H3198 0.930 . S
C3204 C3205 1.367 . S
C3204 C3212 1.378 . S
C3205 C3204 1.367 . S
C3205 C3213 1.433 . S
C3206 H3202 0.929 . S
C3206 C3208 1.378 . S
C3206 C3210 1.350 . S
C3207 C3210 1.463 . S
C3207 C3212 1.350 . S
C3207 N3215 1.427 . S
C3208 H3199 0.930 . S
C3208 C3206 1.378 . S
C3208 C3209 1.367 . S
C3209 C3208 1.367 . S
C3209 C3211 1.433 . S
C3210 C3206 1.350 . S
C3210 C3207 1.463 . S
C3210 N3214 1.427 . S
C3211 H3201 0.929 . S
C3211 C3209 1.433 . S
C3211 N3214 1.384 . S
C3212 H3203 0.929 . S
C3212 C3204 1.378 . S
C3212 C3207 1.350 . S
C3213 H3200 0.929 . S
C3213 C3205 1.433 . S
C3213 N3215 1.384 . S
N3214 C3210 1.427 . S
N3214 C3211 1.384 . S
N3215 C3207 1.427 . S
N3215 C3213 1.384 . S
H3216 C3222 0.930 . S
H3217 C3226 0.930 . S
H3218 C3231 0.929 . S
H3219 C3229 0.929 . S
H3220 C3224 0.929 . S
H3221 C3230 0.929 . S
C3222 H3216 0.930 . S
C3222 C3223 1.367 . S
C3222 C3230 1.378 . S
C3223 C3222 1.367 . S
C3223 C3231 1.433 . S
C3224 H3220 0.929 . S
C3224 C3226 1.378 . S
C3224 C3228 1.350 . S
C3225 C3228 1.463 . S
C3225 C3230 1.350 . S
C3225 N3233 1.427 . S
C3226 H3217 0.930 . S
C3226 C3224 1.378 . S
C3226 C3227 1.367 . S
C3227 C3226 1.367 . S
C3227 C3229 1.433 . S
C3228 C3224 1.350 . S
C3228 C3225 1.463 . S
C3228 N3232 1.427 . S
C3229 H3219 0.929 . S
C3229 C3227 1.433 . S
C3229 N3232 1.384 . S
C3230 H3221 0.929 . S
C3230 C3222 1.378 . S
C3230 C3225 1.350 . S
C3231 H3218 0.929 . S
C3231 C3223 1.433 . S
C3231 N3233 1.384 . S
N3232 C3228 1.427 . S
N3232 C3229 1.384 . S
N3233 C3225 1.427 . S
N3233 C3231 1.384 . S
H3234 C3240 0.930 . S
H3235 C3244 0.930 . S
H3236 C3249 0.929 . S
H3237 C3247 0.929 . S
H3238 C3242 0.929 . S
H3239 C3248 0.929 . S
C3240 H3234 0.930 . S
C3240 C3241 1.367 . S
C3240 C3248 1.378 . S
C3241 C3240 1.367 . S
C3241 C3249 1.433 . S
C3242 H3238 0.929 . S
C3242 C3244 1.378 . S
C3242 C3246 1.350 . S
C3243 C3246 1.463 . S
C3243 C3248 1.350 . S
C3243 N3251 1.427 . S
C3244 H3235 0.930 . S
C3244 C3242 1.378 . S
C3244 C3245 1.367 . S
C3245 C3244 1.367 . S
C3245 C3247 1.433 . S
C3246 C3242 1.350 . S
C3246 C3243 1.463 . S
C3246 N3250 1.427 . S
C3247 H3237 0.929 . S
C3247 C3245 1.433 . S
C3247 N3250 1.384 . S
C3248 H3239 0.929 . S
C3248 C3240 1.378 . S
C3248 C3243 1.350 . S
C3249 H3236 0.929 . S
C3249 C3241 1.433 . S
C3249 N3251 1.384 . S
N3250 C3246 1.427 . S
N3250 C3247 1.384 . S
N3251 C3243 1.427 . S
N3251 C3249 1.384 . S
H3252 C3258 0.930 . S
H3253 C3262 0.930 . S
H3254 C3267 0.929 . S
H3255 C3265 0.929 . S
H3256 C3260 0.929 . S
H3257 C3266 0.929 . S
C3258 H3252 0.930 . S
C3258 C3259 1.367 . S
C3258 C3266 1.378 . S
C3259 C3258 1.367 . S
C3259 C3267 1.433 . S
C3260 H3256 0.929 . S
C3260 C3262 1.378 . S
C3260 C3264 1.350 . S
C3261 C3264 1.463 . S
C3261 C3266 1.350 . S
C3261 N3269 1.427 . S
C3262 H3253 0.930 . S
C3262 C3260 1.378 . S
C3262 C3263 1.367 . S
C3263 C3262 1.367 . S
C3263 C3265 1.433 . S
C3264 C3260 1.350 . S
C3264 C3261 1.463 . S
C3264 N3268 1.427 . S
C3265 H3255 0.929 . S
C3265 C3263 1.433 . S
C3265 N3268 1.384 . S
C3266 H3257 0.929 . S
C3266 C3258 1.378 . S
C3266 C3261 1.350 . S
C3267 H3254 0.929 . S
C3267 C3259 1.433 . S
C3267 N3269 1.384 . S
N3268 C3264 1.427 . S
N3268 C3265 1.384 . S
N3269 C3261 1.427 . S
N3269 C3267 1.384 . S
H3270 C3276 0.930 . S
H3271 C3280 0.930 . S
H3272 C3285 0.929 . S
H3273 C3283 0.929 . S
H3274 C3278 0.929 . S
H3275 C3284 0.929 . S
C3276 H3270 0.930 . S
C3276 C3277 1.367 . S
C3276 C3284 1.378 . S
C3277 C3276 1.367 . S
C3277 C3285 1.433 . S
C3278 H3274 0.929 . S
C3278 C3280 1.378 . S
C3278 C3282 1.350 . S
C3279 C3282 1.463 . S
C3279 C3284 1.350 . S
C3279 N3287 1.427 . S
C3280 H3271 0.930 . S
C3280 C3278 1.378 . S
C3280 C3281 1.367 . S
C3281 C3280 1.367 . S
C3281 C3283 1.433 . S
C3282 C3278 1.350 . S
C3282 C3279 1.463 . S
C3282 N3286 1.427 . S
C3283 H3273 0.929 . S
C3283 C3281 1.433 . S
C3283 N3286 1.384 . S
C3284 H3275 0.929 . S
C3284 C3276 1.378 . S
C3284 C3279 1.350 . S
C3285 H3272 0.929 . S
C3285 C3277 1.433 . S
C3285 N3287 1.384 . S
N3286 C3282 1.427 . S
N3286 C3283 1.384 . S
N3287 C3279 1.427 . S
N3287 C3285 1.384 . S
H3288 C3294 0.930 . S
H3289 C3298 0.930 . S
H3290 C3303 0.929 . S
H3291 C3301 0.929 . S
H3292 C3296 0.929 . S
H3293 C3302 0.929 . S
C3294 H3288 0.930 . S
C3294 C3295 1.367 . S
C3294 C3302 1.378 . S
C3295 C3294 1.367 . S
C3295 C3303 1.433 . S
C3296 H3292 0.929 . S
C3296 C3298 1.378 . S
C3296 C3300 1.350 . S
C3297 C3300 1.463 . S
C3297 C3302 1.350 . S
C3297 N3305 1.427 . S
C3298 H3289 0.930 . S
C3298 C3296 1.378 . S
C3298 C3299 1.367 . S
C3299 C3298 1.367 . S
C3299 C3301 1.433 . S
C3300 C3296 1.350 . S
C3300 C3297 1.463 . S
C3300 N3304 1.427 . S
C3301 H3291 0.929 . S
C3301 C3299 1.433 . S
C3301 N3304 1.384 . S
C3302 H3293 0.929 . S
C3302 C3294 1.378 . S
C3302 C3297 1.350 . S
C3303 H3290 0.929 . S
C3303 C3295 1.433 . S
C3303 N3305 1.384 . S
N3304 C3300 1.427 . S
N3304 C3301 1.384 . S
N3305 C3297 1.427 . S
N3305 C3303 1.384 . S
H3306 C3312 0.930 . S
H3307 C3316 0.930 . S
H3308 C3321 0.929 . S
H3309 C3319 0.929 . S
H3310 C3314 0.929 . S
H3311 C3320 0.929 . S
C3312 H3306 0.930 . S
C3312 C3313 1.367 . S
C3312 C3320 1.378 . S
C3313 C3312 1.367 . S
C3313 C3321 1.433 . S
C3314 H3310 0.929 . S
C3314 C3316 1.378 . S
C3314 C3318 1.350 . S
C3315 C3318 1.463 . S
C3315 C3320 1.350 . S
C3315 N3323 1.427 . S
C3316 H3307 0.930 . S
C3316 C3314 1.378 . S
C3316 C3317 1.367 . S
C3317 C3316 1.367 . S
C3317 C3319 1.433 . S
C3318 C3314 1.350 . S
C3318 C3315 1.463 . S
C3318 N3322 1.427 . S
C3319 H3309 0.929 . S
C3319 C3317 1.433 . S
C3319 N3322 1.384 . S
C3320 H3311 0.929 . S
C3320 C3312 1.378 . S
C3320 C3315 1.350 . S
C3321 H3308 0.929 . S
C3321 C3313 1.433 . S
C3321 N3323 1.384 . S
N3322 C3318 1.427 . S
N3322 C3319 1.384 . S
N3323 C3315 1.427 . S
N3323 C3321 1.384 . S
H3324 C3330 0.930 . S
H3325 C3334 0.930 . S
H3326 C3339 0.929 . S
H3327 C3337 0.929 . S
H3328 C3332 0.929 . S
H3329 C3338 0.929 . S
C3330 H3324 0.930 . S
C3330 C3331 1.367 . S
C3330 C3338 1.378 . S
C3331 C3330 1.367 . S
C3331 C3339 1.433 . S
C3332 H3328 0.929 . S
C3332 C3334 1.378 . S
C3332 C3336 1.350 . S
C3333 C3336 1.463 . S
C3333 C3338 1.350 . S
C3333 N3341 1.427 . S
C3334 H3325 0.930 . S
C3334 C3332 1.378 . S
C3334 C3335 1.367 . S
C3335 C3334 1.367 . S
C3335 C3337 1.433 . S
C3336 C3332 1.350 . S
C3336 C3333 1.463 . S
C3336 N3340 1.427 . S
C3337 H3327 0.929 . S
C3337 C3335 1.433 . S
C3337 N3340 1.384 . S
C3338 H3329 0.929 . S
C3338 C3330 1.378 . S
C3338 C3333 1.350 . S
C3339 H3326 0.929 . S
C3339 C3331 1.433 . S
C3339 N3341 1.384 . S
N3340 C3336 1.427 . S
N3340 C3337 1.384 . S
N3341 C3333 1.427 . S
N3341 C3339 1.384 . S
H3342 C3348 0.930 . S
H3343 C3352 0.930 . S
H3344 C3357 0.929 . S
H3345 C3355 0.929 . S
H3346 C3350 0.929 . S
H3347 C3356 0.929 . S
C3348 H3342 0.930 . S
C3348 C3349 1.367 . S
C3348 C3356 1.378 . S
C3349 C3348 1.367 . S
C3349 C3357 1.433 . S
C3350 H3346 0.929 . S
C3350 C3352 1.378 . S
C3350 C3354 1.350 . S
C3351 C3354 1.463 . S
C3351 C3356 1.350 . S
C3351 N3359 1.427 . S
C3352 H3343 0.930 . S
C3352 C3350 1.378 . S
C3352 C3353 1.367 . S
C3353 C3352 1.367 . S
C3353 C3355 1.433 . S
C3354 C3350 1.350 . S
C3354 C3351 1.463 . S
C3354 N3358 1.427 . S
C3355 H3345 0.929 . S
C3355 C3353 1.433 . S
C3355 N3358 1.384 . S
C3356 H3347 0.929 . S
C3356 C3348 1.378 . S
C3356 C3351 1.350 . S
C3357 H3344 0.929 . S
C3357 C3349 1.433 . S
C3357 N3359 1.384 . S
N3358 C3354 1.427 . S
N3358 C3355 1.384 . S
N3359 C3351 1.427 . S
N3359 C3357 1.384 . S
H3360 C3366 0.930 . S
H3361 C3370 0.930 . S
H3362 C3375 0.929 . S
H3363 C3373 0.929 . S
H3364 C3368 0.929 . S
H3365 C3374 0.929 . S
C3366 H3360 0.930 . S
C3366 C3367 1.367 . S
C3366 C3374 1.378 . S
C3367 C3366 1.367 . S
C3367 C3375 1.433 . S
C3368 H3364 0.929 . S
C3368 C3370 1.378 . S
C3368 C3372 1.350 . S
C3369 C3372 1.463 . S
C3369 C3374 1.350 . S
C3369 N3377 1.427 . S
C3370 H3361 0.930 . S
C3370 C3368 1.378 . S
C3370 C3371 1.367 . S
C3371 C3370 1.367 . S
C3371 C3373 1.433 . S
C3372 C3368 1.350 . S
C3372 C3369 1.463 . S
C3372 N3376 1.427 . S
C3373 H3363 0.929 . S
C3373 C3371 1.433 . S
C3373 N3376 1.384 . S
C3374 H3365 0.929 . S
C3374 C3366 1.378 . S
C3374 C3369 1.350 . S
C3375 H3362 0.929 . S
C3375 C3367 1.433 . S
C3375 N3377 1.384 . S
N3376 C3372 1.427 . S
N3376 C3373 1.384 . S
N3377 C3369 1.427 . S
N3377 C3375 1.384 . S
H3378 C3384 0.930 . S
H3379 C3388 0.930 . S
H3380 C3393 0.929 . S
H3381 C3391 0.929 . S
H3382 C3386 0.929 . S
H3383 C3392 0.929 . S
C3384 H3378 0.930 . S
C3384 C3385 1.367 . S
C3384 C3392 1.378 . S
C3385 C3384 1.367 . S
C3385 C3393 1.433 . S
C3386 H3382 0.929 . S
C3386 C3388 1.378 . S
C3386 C3390 1.350 . S
C3387 C3390 1.463 . S
C3387 C3392 1.350 . S
C3387 N3395 1.427 . S
C3388 H3379 0.930 . S
C3388 C3386 1.378 . S
C3388 C3389 1.367 . S
C3389 C3388 1.367 . S
C3389 C3391 1.433 . S
C3390 C3386 1.350 . S
C3390 C3387 1.463 . S
C3390 N3394 1.427 . S
C3391 H3381 0.929 . S
C3391 C3389 1.433 . S
C3391 N3394 1.384 . S
C3392 H3383 0.929 . S
C3392 C3384 1.378 . S
C3392 C3387 1.350 . S
C3393 H3380 0.929 . S
C3393 C3385 1.433 . S
C3393 N3395 1.384 . S
N3394 C3390 1.427 . S
N3394 C3391 1.384 . S
N3395 C3387 1.427 . S
N3395 C3393 1.384 . S
H3396 C3402 0.930 . S
H3397 C3406 0.930 . S
H3398 C3411 0.929 . S
H3399 C3409 0.929 . S
H3400 C3404 0.929 . S
H3401 C3410 0.929 . S
C3402 H3396 0.930 . S
C3402 C3403 1.367 . S
C3402 C3410 1.378 . S
C3403 C3402 1.367 . S
C3403 C3411 1.433 . S
C3404 H3400 0.929 . S
C3404 C3406 1.378 . S
C3404 C3408 1.350 . S
C3405 C3408 1.463 . S
C3405 C3410 1.350 . S
C3405 N3413 1.427 . S
C3406 H3397 0.930 . S
C3406 C3404 1.378 . S
C3406 C3407 1.367 . S
C3407 C3406 1.367 . S
C3407 C3409 1.433 . S
C3408 C3404 1.350 . S
C3408 C3405 1.463 . S
C3408 N3412 1.427 . S
C3409 H3399 0.929 . S
C3409 C3407 1.433 . S
C3409 N3412 1.384 . S
C3410 H3401 0.929 . S
C3410 C3402 1.378 . S
C3410 C3405 1.350 . S
C3411 H3398 0.929 . S
C3411 C3403 1.433 . S
C3411 N3413 1.384 . S
N3412 C3408 1.427 . S
N3412 C3409 1.384 . S
N3413 C3405 1.427 . S
N3413 C3411 1.384 . S
H3414 C3420 0.930 . S
H3415 C3424 0.930 . S
H3416 C3429 0.929 . S
H3417 C3427 0.929 . S
H3418 C3422 0.929 . S
H3419 C3428 0.929 . S
C3420 H3414 0.930 . S
C3420 C3421 1.367 . S
C3420 C3428 1.378 . S
C3421 C3420 1.367 . S
C3421 C3429 1.433 . S
C3422 H3418 0.929 . S
C3422 C3424 1.378 . S
C3422 C3426 1.350 . S
C3423 C3426 1.463 . S
C3423 C3428 1.350 . S
C3423 N3431 1.427 . S
C3424 H3415 0.930 . S
C3424 C3422 1.378 . S
C3424 C3425 1.367 . S
C3425 C3424 1.367 . S
C3425 C3427 1.433 . S
C3426 C3422 1.350 . S
C3426 C3423 1.463 . S
C3426 N3430 1.427 . S
C3427 H3417 0.929 . S
C3427 C3425 1.433 . S
C3427 N3430 1.384 . S
C3428 H3419 0.929 . S
C3428 C3420 1.378 . S
C3428 C3423 1.350 . S
C3429 H3416 0.929 . S
C3429 C3421 1.433 . S
C3429 N3431 1.384 . S
N3430 C3426 1.427 . S
N3430 C3427 1.384 . S
N3431 C3423 1.427 . S
N3431 C3429 1.384 . S
H3432 C3438 0.930 . S
H3433 C3442 0.930 . S
H3434 C3447 0.929 . S
H3435 C3445 0.929 . S
H3436 C3440 0.929 . S
H3437 C3446 0.929 . S
C3438 H3432 0.930 . S
C3438 C3439 1.367 . S
C3438 C3446 1.378 . S
C3439 C3438 1.367 . S
C3439 C3447 1.433 . S
C3440 H3436 0.929 . S
C3440 C3442 1.378 . S
C3440 C3444 1.350 . S
C3441 C3444 1.463 . S
C3441 C3446 1.350 . S
C3441 N3449 1.427 . S
C3442 H3433 0.930 . S
C3442 C3440 1.378 . S
C3442 C3443 1.367 . S
C3443 C3442 1.367 . S
C3443 C3445 1.433 . S
C3444 C3440 1.350 . S
C3444 C3441 1.463 . S
C3444 N3448 1.427 . S
C3445 H3435 0.929 . S
C3445 C3443 1.433 . S
C3445 N3448 1.384 . S
C3446 H3437 0.929 . S
C3446 C3438 1.378 . S
C3446 C3441 1.350 . S
C3447 H3434 0.929 . S
C3447 C3439 1.433 . S
C3447 N3449 1.384 . S
N3448 C3444 1.427 . S
N3448 C3445 1.384 . S
N3449 C3441 1.427 . S
N3449 C3447 1.384 . S
H3450 C3456 0.930 . S
H3451 C3460 0.930 . S
H3452 C3465 0.929 . S
H3453 C3463 0.929 . S
H3454 C3458 0.929 . S
H3455 C3464 0.929 . S
C3456 H3450 0.930 . S
C3456 C3457 1.367 . S
C3456 C3464 1.378 . S
C3457 C3456 1.367 . S
C3457 C3465 1.433 . S
C3458 H3454 0.929 . S
C3458 C3460 1.378 . S
C3458 C3462 1.350 . S
C3459 C3462 1.463 . S
C3459 C3464 1.350 . S
C3459 N3467 1.427 . S
C3460 H3451 0.930 . S
C3460 C3458 1.378 . S
C3460 C3461 1.367 . S
C3461 C3460 1.367 . S
C3461 C3463 1.433 . S
C3462 C3458 1.350 . S
C3462 C3459 1.463 . S
C3462 N3466 1.427 . S
C3463 H3453 0.929 . S
C3463 C3461 1.433 . S
C3463 N3466 1.384 . S
C3464 H3455 0.929 . S
C3464 C3456 1.378 . S
C3464 C3459 1.350 . S
C3465 H3452 0.929 . S
C3465 C3457 1.433 . S
C3465 N3467 1.384 . S
N3466 C3462 1.427 . S
N3466 C3463 1.384 . S
N3467 C3459 1.427 . S
N3467 C3465 1.384 . S
H3468 C3474 0.930 . S
H3469 C3478 0.930 . S
H3470 C3483 0.929 . S
H3471 C3481 0.929 . S
H3472 C3476 0.929 . S
H3473 C3482 0.929 . S
C3474 H3468 0.930 . S
C3474 C3475 1.367 . S
C3474 C3482 1.378 . S
C3475 C3474 1.367 . S
C3475 C3483 1.433 . S
C3476 H3472 0.929 . S
C3476 C3478 1.378 . S
C3476 C3480 1.350 . S
C3477 C3480 1.463 . S
C3477 C3482 1.350 . S
C3477 N3485 1.427 . S
C3478 H3469 0.930 . S
C3478 C3476 1.378 . S
C3478 C3479 1.367 . S
C3479 C3478 1.367 . S
C3479 C3481 1.433 . S
C3480 C3476 1.350 . S
C3480 C3477 1.463 . S
C3480 N3484 1.427 . S
C3481 H3471 0.929 . S
C3481 C3479 1.433 . S
C3481 N3484 1.384 . S
C3482 H3473 0.929 . S
C3482 C3474 1.378 . S
C3482 C3477 1.350 . S
C3483 H3470 0.929 . S
C3483 C3475 1.433 . S
C3483 N3485 1.384 . S
N3484 C3480 1.427 . S
N3484 C3481 1.384 . S
N3485 C3477 1.427 . S
N3485 C3483 1.384 . S
H3486 C3492 0.930 . S
H3487 C3496 0.930 . S
H3488 C3501 0.929 . S
H3489 C3499 0.929 . S
H3490 C3494 0.929 . S
H3491 C3500 0.929 . S
C3492 H3486 0.930 . S
C3492 C3493 1.367 . S
C3492 C3500 1.378 . S
C3493 C3492 1.367 . S
C3493 C3501 1.433 . S
C3494 H3490 0.929 . S
C3494 C3496 1.378 . S
C3494 C3498 1.350 . S
C3495 C3498 1.463 . S
C3495 C3500 1.350 . S
C3495 N3503 1.427 . S
C3496 H3487 0.930 . S
C3496 C3494 1.378 . S
C3496 C3497 1.367 . S
C3497 C3496 1.367 . S
C3497 C3499 1.433 . S
C3498 C3494 1.350 . S
C3498 C3495 1.463 . S
C3498 N3502 1.427 . S
C3499 H3489 0.929 . S
C3499 C3497 1.433 . S
C3499 N3502 1.384 . S
C3500 H3491 0.929 . S
C3500 C3492 1.378 . S
C3500 C3495 1.350 . S
C3501 H3488 0.929 . S
C3501 C3493 1.433 . S
C3501 N3503 1.384 . S
N3502 C3498 1.427 . S
N3502 C3499 1.384 . S
N3503 C3495 1.427 . S
N3503 C3501 1.384 . S
H3504 C3510 0.930 . S
H3505 C3514 0.930 . S
H3506 C3519 0.929 . S
H3507 C3517 0.929 . S
H3508 C3512 0.929 . S
H3509 C3518 0.929 . S
C3510 H3504 0.930 . S
C3510 C3511 1.367 . S
C3510 C3518 1.378 . S
C3511 C3510 1.367 . S
C3511 C3519 1.433 . S
C3512 H3508 0.929 . S
C3512 C3514 1.378 . S
C3512 C3516 1.350 . S
C3513 C3516 1.463 . S
C3513 C3518 1.350 . S
C3513 N3521 1.427 . S
C3514 H3505 0.930 . S
C3514 C3512 1.378 . S
C3514 C3515 1.367 . S
C3515 C3514 1.367 . S
C3515 C3517 1.433 . S
C3516 C3512 1.350 . S
C3516 C3513 1.463 . S
C3516 N3520 1.427 . S
C3517 H3507 0.929 . S
C3517 C3515 1.433 . S
C3517 N3520 1.384 . S
C3518 H3509 0.929 . S
C3518 C3510 1.378 . S
C3518 C3513 1.350 . S
C3519 H3506 0.929 . S
C3519 C3511 1.433 . S
C3519 N3521 1.384 . S
N3520 C3516 1.427 . S
N3520 C3517 1.384 . S
N3521 C3513 1.427 . S
N3521 C3519 1.384 . S
H3522 C3528 0.930 . S
H3523 C3532 0.930 . S
H3524 C3537 0.929 . S
H3525 C3535 0.929 . S
H3526 C3530 0.929 . S
H3527 C3536 0.929 . S
C3528 H3522 0.930 . S
C3528 C3529 1.367 . S
C3528 C3536 1.378 . S
C3529 C3528 1.367 . S
C3529 C3537 1.433 . S
C3530 H3526 0.929 . S
C3530 C3532 1.378 . S
C3530 C3534 1.350 . S
C3531 C3534 1.463 . S
C3531 C3536 1.350 . S
C3531 N3539 1.427 . S
C3532 H3523 0.930 . S
C3532 C3530 1.378 . S
C3532 C3533 1.367 . S
C3533 C3532 1.367 . S
C3533 C3535 1.433 . S
C3534 C3530 1.350 . S
C3534 C3531 1.463 . S
C3534 N3538 1.427 . S
C3535 H3525 0.929 . S
C3535 C3533 1.433 . S
C3535 N3538 1.384 . S
C3536 H3527 0.929 . S
C3536 C3528 1.378 . S
C3536 C3531 1.350 . S
C3537 H3524 0.929 . S
C3537 C3529 1.433 . S
C3537 N3539 1.384 . S
N3538 C3534 1.427 . S
N3538 C3535 1.384 . S
N3539 C3531 1.427 . S
N3539 C3537 1.384 . S
H3540 C3546 0.930 . S
H3541 C3550 0.930 . S
H3542 C3555 0.929 . S
H3543 C3553 0.929 . S
H3544 C3548 0.929 . S
H3545 C3554 0.929 . S
C3546 H3540 0.930 . S
C3546 C3547 1.367 . S
C3546 C3554 1.378 . S
C3547 C3546 1.367 . S
C3547 C3555 1.433 . S
C3548 H3544 0.929 . S
C3548 C3550 1.378 . S
C3548 C3552 1.350 . S
C3549 C3552 1.463 . S
C3549 C3554 1.350 . S
C3549 N3557 1.427 . S
C3550 H3541 0.930 . S
C3550 C3548 1.378 . S
C3550 C3551 1.367 . S
C3551 C3550 1.367 . S
C3551 C3553 1.433 . S
C3552 C3548 1.350 . S
C3552 C3549 1.463 . S
C3552 N3556 1.427 . S
C3553 H3543 0.929 . S
C3553 C3551 1.433 . S
C3553 N3556 1.384 . S
C3554 H3545 0.929 . S
C3554 C3546 1.378 . S
C3554 C3549 1.350 . S
C3555 H3542 0.929 . S
C3555 C3547 1.433 . S
C3555 N3557 1.384 . S
N3556 C3552 1.427 . S
N3556 C3553 1.384 . S
N3557 C3549 1.427 . S
N3557 C3555 1.384 . S
H3558 C3564 0.930 . S
H3559 C3568 0.930 . S
H3560 C3573 0.929 . S
H3561 C3571 0.929 . S
H3562 C3566 0.929 . S
H3563 C3572 0.929 . S
C3564 H3558 0.930 . S
C3564 C3565 1.367 . S
C3564 C3572 1.378 . S
C3565 C3564 1.367 . S
C3565 C3573 1.433 . S
C3566 H3562 0.929 . S
C3566 C3568 1.378 . S
C3566 C3570 1.350 . S
C3567 C3570 1.463 . S
C3567 C3572 1.350 . S
C3567 N3575 1.427 . S
C3568 H3559 0.930 . S
C3568 C3566 1.378 . S
C3568 C3569 1.367 . S
C3569 C3568 1.367 . S
C3569 C3571 1.433 . S
C3570 C3566 1.350 . S
C3570 C3567 1.463 . S
C3570 N3574 1.427 . S
C3571 H3561 0.929 . S
C3571 C3569 1.433 . S
C3571 N3574 1.384 . S
C3572 H3563 0.929 . S
C3572 C3564 1.378 . S
C3572 C3567 1.350 . S
C3573 H3560 0.929 . S
C3573 C3565 1.433 . S
C3573 N3575 1.384 . S
N3574 C3570 1.427 . S
N3574 C3571 1.384 . S
N3575 C3567 1.427 . S
N3575 C3573 1.384 . S
H3576 C3582 0.930 . S
H3577 C3586 0.930 . S
H3578 C3591 0.929 . S
H3579 C3589 0.929 . S
H3580 C3584 0.929 . S
H3581 C3590 0.929 . S
C3582 H3576 0.930 . S
C3582 C3583 1.367 . S
C3582 C3590 1.378 . S
C3583 C3582 1.367 . S
C3583 C3591 1.433 . S
C3584 H3580 0.929 . S
C3584 C3586 1.378 . S
C3584 C3588 1.350 . S
C3585 C3588 1.463 . S
C3585 C3590 1.350 . S
C3585 N3593 1.427 . S
C3586 H3577 0.930 . S
C3586 C3584 1.378 . S
C3586 C3587 1.367 . S
C3587 C3586 1.367 . S
C3587 C3589 1.433 . S
C3588 C3584 1.350 . S
C3588 C3585 1.463 . S
C3588 N3592 1.427 . S
C3589 H3579 0.929 . S
C3589 C3587 1.433 . S
C3589 N3592 1.384 . S
C3590 H3581 0.929 . S
C3590 C3582 1.378 . S
C3590 C3585 1.350 . S
C3591 H3578 0.929 . S
C3591 C3583 1.433 . S
C3591 N3593 1.384 . S
N3592 C3588 1.427 . S
N3592 C3589 1.384 . S
N3593 C3585 1.427 . S
N3593 C3591 1.384 . S
H3594 C3600 0.930 . S
H3595 C3604 0.930 . S
H3596 C3609 0.929 . S
H3597 C3607 0.929 . S
H3598 C3602 0.929 . S
H3599 C3608 0.929 . S
C3600 H3594 0.930 . S
C3600 C3601 1.367 . S
C3600 C3608 1.378 . S
C3601 C3600 1.367 . S
C3601 C3609 1.433 . S
C3602 H3598 0.929 . S
C3602 C3604 1.378 . S
C3602 C3606 1.350 . S
C3603 C3606 1.463 . S
C3603 C3608 1.350 . S
C3603 N3611 1.427 . S
C3604 H3595 0.930 . S
C3604 C3602 1.378 . S
C3604 C3605 1.367 . S
C3605 C3604 1.367 . S
C3605 C3607 1.433 . S
C3606 C3602 1.350 . S
C3606 C3603 1.463 . S
C3606 N3610 1.427 . S
C3607 H3597 0.929 . S
C3607 C3605 1.433 . S
C3607 N3610 1.384 . S
C3608 H3599 0.929 . S
C3608 C3600 1.378 . S
C3608 C3603 1.350 . S
C3609 H3596 0.929 . S
C3609 C3601 1.433 . S
C3609 N3611 1.384 . S
N3610 C3606 1.427 . S
N3610 C3607 1.384 . S
N3611 C3603 1.427 . S
N3611 C3609 1.384 . S
H3612 C3618 0.930 . S
H3613 C3622 0.930 . S
H3614 C3627 0.929 . S
H3615 C3625 0.929 . S
H3616 C3620 0.929 . S
H3617 C3626 0.929 . S
C3618 H3612 0.930 . S
C3618 C3619 1.367 . S
C3618 C3626 1.378 . S
C3619 C3618 1.367 . S
C3619 C3627 1.433 . S
C3620 H3616 0.929 . S
C3620 C3622 1.378 . S
C3620 C3624 1.350 . S
C3621 C3624 1.463 . S
C3621 C3626 1.350 . S
C3621 N3629 1.427 . S
C3622 H3613 0.930 . S
C3622 C3620 1.378 . S
C3622 C3623 1.367 . S
C3623 C3622 1.367 . S
C3623 C3625 1.433 . S
C3624 C3620 1.350 . S
C3624 C3621 1.463 . S
C3624 N3628 1.427 . S
C3625 H3615 0.929 . S
C3625 C3623 1.433 . S
C3625 N3628 1.384 . S
C3626 H3617 0.929 . S
C3626 C3618 1.378 . S
C3626 C3621 1.350 . S
C3627 H3614 0.929 . S
C3627 C3619 1.433 . S
C3627 N3629 1.384 . S
N3628 C3624 1.427 . S
N3628 C3625 1.384 . S
N3629 C3621 1.427 . S
N3629 C3627 1.384 . S
H3630 C3636 0.930 . S
H3631 C3640 0.930 . S
H3632 C3645 0.929 . S
H3633 C3643 0.929 . S
H3634 C3638 0.929 . S
H3635 C3644 0.929 . S
C3636 H3630 0.930 . S
C3636 C3637 1.367 . S
C3636 C3644 1.378 . S
C3637 C3636 1.367 . S
C3637 C3645 1.433 . S
C3638 H3634 0.929 . S
C3638 C3640 1.378 . S
C3638 C3642 1.350 . S
C3639 C3642 1.463 . S
C3639 C3644 1.350 . S
C3639 N3647 1.427 . S
C3640 H3631 0.930 . S
C3640 C3638 1.378 . S
C3640 C3641 1.367 . S
C3641 C3640 1.367 . S
C3641 C3643 1.433 . S
C3642 C3638 1.350 . S
C3642 C3639 1.463 . S
C3642 N3646 1.427 . S
C3643 H3633 0.929 . S
C3643 C3641 1.433 . S
C3643 N3646 1.384 . S
C3644 H3635 0.929 . S
C3644 C3636 1.378 . S
C3644 C3639 1.350 . S
C3645 H3632 0.929 . S
C3645 C3637 1.433 . S
C3645 N3647 1.384 . S
N3646 C3642 1.427 . S
N3646 C3643 1.384 . S
N3647 C3639 1.427 . S
N3647 C3645 1.384 . S
H3648 C3654 0.930 . S
H3649 C3658 0.930 . S
H3650 C3663 0.929 . S
H3651 C3661 0.929 . S
H3652 C3656 0.929 . S
H3653 C3662 0.929 . S
C3654 H3648 0.930 . S
C3654 C3655 1.367 . S
C3654 C3662 1.378 . S
C3655 C3654 1.367 . S
C3655 C3663 1.433 . S
C3656 H3652 0.929 . S
C3656 C3658 1.378 . S
C3656 C3660 1.350 . S
C3657 C3660 1.463 . S
C3657 C3662 1.350 . S
C3657 N3665 1.427 . S
C3658 H3649 0.930 . S
C3658 C3656 1.378 . S
C3658 C3659 1.367 . S
C3659 C3658 1.367 . S
C3659 C3661 1.433 . S
C3660 C3656 1.350 . S
C3660 C3657 1.463 . S
C3660 N3664 1.427 . S
C3661 H3651 0.929 . S
C3661 C3659 1.433 . S
C3661 N3664 1.384 . S
C3662 H3653 0.929 . S
C3662 C3654 1.378 . S
C3662 C3657 1.350 . S
C3663 H3650 0.929 . S
C3663 C3655 1.433 . S
C3663 N3665 1.384 . S
N3664 C3660 1.427 . S
N3664 C3661 1.384 . S
N3665 C3657 1.427 . S
N3665 C3663 1.384 . S
H3666 C3672 0.930 . S
H3667 C3676 0.930 . S
H3668 C3681 0.929 . S
H3669 C3679 0.929 . S
H3670 C3674 0.929 . S
H3671 C3680 0.929 . S
C3672 H3666 0.930 . S
C3672 C3673 1.367 . S
C3672 C3680 1.378 . S
C3673 C3672 1.367 . S
C3673 C3681 1.433 . S
C3674 H3670 0.929 . S
C3674 C3676 1.378 . S
C3674 C3678 1.350 . S
C3675 C3678 1.463 . S
C3675 C3680 1.350 . S
C3675 N3683 1.427 . S
C3676 H3667 0.930 . S
C3676 C3674 1.378 . S
C3676 C3677 1.367 . S
C3677 C3676 1.367 . S
C3677 C3679 1.433 . S
C3678 C3674 1.350 . S
C3678 C3675 1.463 . S
C3678 N3682 1.427 . S
C3679 H3669 0.929 . S
C3679 C3677 1.433 . S
C3679 N3682 1.384 . S
C3680 H3671 0.929 . S
C3680 C3672 1.378 . S
C3680 C3675 1.350 . S
C3681 H3668 0.929 . S
C3681 C3673 1.433 . S
C3681 N3683 1.384 . S
N3682 C3678 1.427 . S
N3682 C3679 1.384 . S
N3683 C3675 1.427 . S
N3683 C3681 1.384 . S
H3684 C3690 0.930 . S
H3685 C3694 0.930 . S
H3686 C3699 0.929 . S
H3687 C3697 0.929 . S
H3688 C3692 0.929 . S
H3689 C3698 0.929 . S
C3690 H3684 0.930 . S
C3690 C3691 1.367 . S
C3690 C3698 1.378 . S
C3691 C3690 1.367 . S
C3691 C3699 1.433 . S
C3692 H3688 0.929 . S
C3692 C3694 1.378 . S
C3692 C3696 1.350 . S
C3693 C3696 1.463 . S
C3693 C3698 1.350 . S
C3693 N3701 1.427 . S
C3694 H3685 0.930 . S
C3694 C3692 1.378 . S
C3694 C3695 1.367 . S
C3695 C3694 1.367 . S
C3695 C3697 1.433 . S
C3696 C3692 1.350 . S
C3696 C3693 1.463 . S
C3696 N3700 1.427 . S
C3697 H3687 0.929 . S
C3697 C3695 1.433 . S
C3697 N3700 1.384 . S
C3698 H3689 0.929 . S
C3698 C3690 1.378 . S
C3698 C3693 1.350 . S
C3699 H3686 0.929 . S
C3699 C3691 1.433 . S
C3699 N3701 1.384 . S
N3700 C3696 1.427 . S
N3700 C3697 1.384 . S
N3701 C3693 1.427 . S
N3701 C3699 1.384 . S
H3702 C3708 0.930 . S
H3703 C3712 0.930 . S
H3704 C3717 0.929 . S
H3705 C3715 0.929 . S
H3706 C3710 0.929 . S
H3707 C3716 0.929 . S
C3708 H3702 0.930 . S
C3708 C3709 1.367 . S
C3708 C3716 1.378 . S
C3709 C3708 1.367 . S
C3709 C3717 1.433 . S
C3710 H3706 0.929 . S
C3710 C3712 1.378 . S
C3710 C3714 1.350 . S
C3711 C3714 1.463 . S
C3711 C3716 1.350 . S
C3711 N3719 1.427 . S
C3712 H3703 0.930 . S
C3712 C3710 1.378 . S
C3712 C3713 1.367 . S
C3713 C3712 1.367 . S
C3713 C3715 1.433 . S
C3714 C3710 1.350 . S
C3714 C3711 1.463 . S
C3714 N3718 1.427 . S
C3715 H3705 0.929 . S
C3715 C3713 1.433 . S
C3715 N3718 1.384 . S
C3716 H3707 0.929 . S
C3716 C3708 1.378 . S
C3716 C3711 1.350 . S
C3717 H3704 0.929 . S
C3717 C3709 1.433 . S
C3717 N3719 1.384 . S
N3718 C3714 1.427 . S
N3718 C3715 1.384 . S
N3719 C3711 1.427 . S
N3719 C3717 1.384 . S
H3720 C3726 0.930 . S
H3721 C3730 0.930 . S
H3722 C3735 0.929 . S
H3723 C3733 0.929 . S
H3724 C3728 0.929 . S
H3725 C3734 0.929 . S
C3726 H3720 0.930 . S
C3726 C3727 1.367 . S
C3726 C3734 1.378 . S
C3727 C3726 1.367 . S
C3727 C3735 1.433 . S
C3728 H3724 0.929 . S
C3728 C3730 1.378 . S
C3728 C3732 1.350 . S
C3729 C3732 1.463 . S
C3729 C3734 1.350 . S
C3729 N3737 1.427 . S
C3730 H3721 0.930 . S
C3730 C3728 1.378 . S
C3730 C3731 1.367 . S
C3731 C3730 1.367 . S
C3731 C3733 1.433 . S
C3732 C3728 1.350 . S
C3732 C3729 1.463 . S
C3732 N3736 1.427 . S
C3733 H3723 0.929 . S
C3733 C3731 1.433 . S
C3733 N3736 1.384 . S
C3734 H3725 0.929 . S
C3734 C3726 1.378 . S
C3734 C3729 1.350 . S
C3735 H3722 0.929 . S
C3735 C3727 1.433 . S
C3735 N3737 1.384 . S
N3736 C3732 1.427 . S
N3736 C3733 1.384 . S
N3737 C3729 1.427 . S
N3737 C3735 1.384 . S
H3738 C3744 0.930 . S
H3739 C3748 0.930 . S
H3740 C3753 0.929 . S
H3741 C3751 0.929 . S
H3742 C3746 0.929 . S
H3743 C3752 0.929 . S
C3744 H3738 0.930 . S
C3744 C3745 1.367 . S
C3744 C3752 1.378 . S
C3745 C3744 1.367 . S
C3745 C3753 1.433 . S
C3746 H3742 0.929 . S
C3746 C3748 1.378 . S
C3746 C3750 1.350 . S
C3747 C3750 1.463 . S
C3747 C3752 1.350 . S
C3747 N3755 1.427 . S
C3748 H3739 0.930 . S
C3748 C3746 1.378 . S
C3748 C3749 1.367 . S
C3749 C3748 1.367 . S
C3749 C3751 1.433 . S
C3750 C3746 1.350 . S
C3750 C3747 1.463 . S
C3750 N3754 1.427 . S
C3751 H3741 0.929 . S
C3751 C3749 1.433 . S
C3751 N3754 1.384 . S
C3752 H3743 0.929 . S
C3752 C3744 1.378 . S
C3752 C3747 1.350 . S
C3753 H3740 0.929 . S
C3753 C3745 1.433 . S
C3753 N3755 1.384 . S
N3754 C3750 1.427 . S
N3754 C3751 1.384 . S
N3755 C3747 1.427 . S
N3755 C3753 1.384 . S
H3756 C3762 0.930 . S
H3757 C3766 0.930 . S
H3758 C3771 0.929 . S
H3759 C3769 0.929 . S
H3760 C3764 0.929 . S
H3761 C3770 0.929 . S
C3762 H3756 0.930 . S
C3762 C3763 1.367 . S
C3762 C3770 1.378 . S
C3763 C3762 1.367 . S
C3763 C3771 1.433 . S
C3764 H3760 0.929 . S
C3764 C3766 1.378 . S
C3764 C3768 1.350 . S
C3765 C3768 1.463 . S
C3765 C3770 1.350 . S
C3765 N3773 1.427 . S
C3766 H3757 0.930 . S
C3766 C3764 1.378 . S
C3766 C3767 1.367 . S
C3767 C3766 1.367 . S
C3767 C3769 1.433 . S
C3768 C3764 1.350 . S
C3768 C3765 1.463 . S
C3768 N3772 1.427 . S
C3769 H3759 0.929 . S
C3769 C3767 1.433 . S
C3769 N3772 1.384 . S
C3770 H3761 0.929 . S
C3770 C3762 1.378 . S
C3770 C3765 1.350 . S
C3771 H3758 0.929 . S
C3771 C3763 1.433 . S
C3771 N3773 1.384 . S
N3772 C3768 1.427 . S
N3772 C3769 1.384 . S
N3773 C3765 1.427 . S
N3773 C3771 1.384 . S
H3774 C3780 0.930 . S
H3775 C3784 0.930 . S
H3776 C3789 0.929 . S
H3777 C3787 0.929 . S
H3778 C3782 0.929 . S
H3779 C3788 0.929 . S
C3780 H3774 0.930 . S
C3780 C3781 1.367 . S
C3780 C3788 1.378 . S
C3781 C3780 1.367 . S
C3781 C3789 1.433 . S
C3782 H3778 0.929 . S
C3782 C3784 1.378 . S
C3782 C3786 1.350 . S
C3783 C3786 1.463 . S
C3783 C3788 1.350 . S
C3783 N3791 1.427 . S
C3784 H3775 0.930 . S
C3784 C3782 1.378 . S
C3784 C3785 1.367 . S
C3785 C3784 1.367 . S
C3785 C3787 1.433 . S
C3786 C3782 1.350 . S
C3786 C3783 1.463 . S
C3786 N3790 1.427 . S
C3787 H3777 0.929 . S
C3787 C3785 1.433 . S
C3787 N3790 1.384 . S
C3788 H3779 0.929 . S
C3788 C3780 1.378 . S
C3788 C3783 1.350 . S
C3789 H3776 0.929 . S
C3789 C3781 1.433 . S
C3789 N3791 1.384 . S
N3790 C3786 1.427 . S
N3790 C3787 1.384 . S
N3791 C3783 1.427 . S
N3791 C3789 1.384 . S
H3792 C3798 0.930 . S
H3793 C3802 0.930 . S
H3794 C3807 0.929 . S
H3795 C3805 0.929 . S
H3796 C3800 0.929 . S
H3797 C3806 0.929 . S
C3798 H3792 0.930 . S
C3798 C3799 1.367 . S
C3798 C3806 1.378 . S
C3799 C3798 1.367 . S
C3799 C3807 1.433 . S
C3800 H3796 0.929 . S
C3800 C3802 1.378 . S
C3800 C3804 1.350 . S
C3801 C3804 1.463 . S
C3801 C3806 1.350 . S
C3801 N3809 1.427 . S
C3802 H3793 0.930 . S
C3802 C3800 1.378 . S
C3802 C3803 1.367 . S
C3803 C3802 1.367 . S
C3803 C3805 1.433 . S
C3804 C3800 1.350 . S
C3804 C3801 1.463 . S
C3804 N3808 1.427 . S
C3805 H3795 0.929 . S
C3805 C3803 1.433 . S
C3805 N3808 1.384 . S
C3806 H3797 0.929 . S
C3806 C3798 1.378 . S
C3806 C3801 1.350 . S
C3807 H3794 0.929 . S
C3807 C3799 1.433 . S
C3807 N3809 1.384 . S
N3808 C3804 1.427 . S
N3808 C3805 1.384 . S
N3809 C3801 1.427 . S
N3809 C3807 1.384 . S
H3810 C3816 0.930 . S
H3811 C3820 0.930 . S
H3812 C3825 0.929 . S
H3813 C3823 0.929 . S
H3814 C3818 0.929 . S
H3815 C3824 0.929 . S
C3816 H3810 0.930 . S
C3816 C3817 1.367 . S
C3816 C3824 1.378 . S
C3817 C3816 1.367 . S
C3817 C3825 1.433 . S
C3818 H3814 0.929 . S
C3818 C3820 1.378 . S
C3818 C3822 1.350 . S
C3819 C3822 1.463 . S
C3819 C3824 1.350 . S
C3819 N3827 1.427 . S
C3820 H3811 0.930 . S
C3820 C3818 1.378 . S
C3820 C3821 1.367 . S
C3821 C3820 1.367 . S
C3821 C3823 1.433 . S
C3822 C3818 1.350 . S
C3822 C3819 1.463 . S
C3822 N3826 1.427 . S
C3823 H3813 0.929 . S
C3823 C3821 1.433 . S
C3823 N3826 1.384 . S
C3824 H3815 0.929 . S
C3824 C3816 1.378 . S
C3824 C3819 1.350 . S
C3825 H3812 0.929 . S
C3825 C3817 1.433 . S
C3825 N3827 1.384 . S
N3826 C3822 1.427 . S
N3826 C3823 1.384 . S
N3827 C3819 1.427 . S
N3827 C3825 1.384 . S
H3828 C3834 0.930 . S
H3829 C3838 0.930 . S
H3830 C3843 0.929 . S
H3831 C3841 0.929 . S
H3832 C3836 0.929 . S
H3833 C3842 0.929 . S
C3834 H3828 0.930 . S
C3834 C3835 1.367 . S
C3834 C3842 1.378 . S
C3835 C3834 1.367 . S
C3835 C3843 1.433 . S
C3836 H3832 0.929 . S
C3836 C3838 1.378 . S
C3836 C3840 1.350 . S
C3837 C3840 1.463 . S
C3837 C3842 1.350 . S
C3837 N3845 1.427 . S
C3838 H3829 0.930 . S
C3838 C3836 1.378 . S
C3838 C3839 1.367 . S
C3839 C3838 1.367 . S
C3839 C3841 1.433 . S
C3840 C3836 1.350 . S
C3840 C3837 1.463 . S
C3840 N3844 1.427 . S
C3841 H3831 0.929 . S
C3841 C3839 1.433 . S
C3841 N3844 1.384 . S
C3842 H3833 0.929 . S
C3842 C3834 1.378 . S
C3842 C3837 1.350 . S
C3843 H3830 0.929 . S
C3843 C3835 1.433 . S
C3843 N3845 1.384 . S
N3844 C3840 1.427 . S
N3844 C3841 1.384 . S
N3845 C3837 1.427 . S
N3845 C3843 1.384 . S
H3846 C3852 0.930 . S
H3847 C3856 0.930 . S
H3848 C3861 0.929 . S
H3849 C3859 0.929 . S
H3850 C3854 0.929 . S
H3851 C3860 0.929 . S
C3852 H3846 0.930 . S
C3852 C3853 1.367 . S
C3852 C3860 1.378 . S
C3853 C3852 1.367 . S
C3853 C3861 1.433 . S
C3854 H3850 0.929 . S
C3854 C3856 1.378 . S
C3854 C3858 1.350 . S
C3855 C3858 1.463 . S
C3855 C3860 1.350 . S
C3855 N3863 1.427 . S
C3856 H3847 0.930 . S
C3856 C3854 1.378 . S
C3856 C3857 1.367 . S
C3857 C3856 1.367 . S
C3857 C3859 1.433 . S
C3858 C3854 1.350 . S
C3858 C3855 1.463 . S
C3858 N3862 1.427 . S
C3859 H3849 0.929 . S
C3859 C3857 1.433 . S
C3859 N3862 1.384 . S
C3860 H3851 0.929 . S
C3860 C3852 1.378 . S
C3860 C3855 1.350 . S
C3861 H3848 0.929 . S
C3861 C3853 1.433 . S
C3861 N3863 1.384 . S
N3862 C3858 1.427 . S
N3862 C3859 1.384 . S
N3863 C3855 1.427 . S
N3863 C3861 1.384 . S
H3864 C3870 0.930 . S
H3865 C3874 0.930 . S
H3866 C3879 0.929 . S
H3867 C3877 0.929 . S
H3868 C3872 0.929 . S
H3869 C3878 0.929 . S
C3870 H3864 0.930 . S
C3870 C3871 1.367 . S
C3870 C3878 1.378 . S
C3871 C3870 1.367 . S
C3871 C3879 1.433 . S
C3872 H3868 0.929 . S
C3872 C3874 1.378 . S
C3872 C3876 1.350 . S
C3873 C3876 1.463 . S
C3873 C3878 1.350 . S
C3873 N3881 1.427 . S
C3874 H3865 0.930 . S
C3874 C3872 1.378 . S
C3874 C3875 1.367 . S
C3875 C3874 1.367 . S
C3875 C3877 1.433 . S
C3876 C3872 1.350 . S
C3876 C3873 1.463 . S
C3876 N3880 1.427 . S
C3877 H3867 0.929 . S
C3877 C3875 1.433 . S
C3877 N3880 1.384 . S
C3878 H3869 0.929 . S
C3878 C3870 1.378 . S
C3878 C3873 1.350 . S
C3879 H3866 0.929 . S
C3879 C3871 1.433 . S
C3879 N3881 1.384 . S
N3880 C3876 1.427 . S
N3880 C3877 1.384 . S
N3881 C3873 1.427 . S
N3881 C3879 1.384 . S
H3882 C3888 0.930 . S
H3883 C3892 0.930 . S
H3884 C3897 0.929 . S
H3885 C3895 0.929 . S
H3886 C3890 0.929 . S
H3887 C3896 0.929 . S
C3888 H3882 0.930 . S
C3888 C3889 1.367 . S
C3888 C3896 1.378 . S
C3889 C3888 1.367 . S
C3889 C3897 1.433 . S
C3890 H3886 0.929 . S
C3890 C3892 1.378 . S
C3890 C3894 1.350 . S
C3891 C3894 1.463 . S
C3891 C3896 1.350 . S
C3891 N3899 1.427 . S
C3892 H3883 0.930 . S
C3892 C3890 1.378 . S
C3892 C3893 1.367 . S
C3893 C3892 1.367 . S
C3893 C3895 1.433 . S
C3894 C3890 1.350 . S
C3894 C3891 1.463 . S
C3894 N3898 1.427 . S
C3895 H3885 0.929 . S
C3895 C3893 1.433 . S
C3895 N3898 1.384 . S
C3896 H3887 0.929 . S
C3896 C3888 1.378 . S
C3896 C3891 1.350 . S
C3897 H3884 0.929 . S
C3897 C3889 1.433 . S
C3897 N3899 1.384 . S
N3898 C3894 1.427 . S
N3898 C3895 1.384 . S
N3899 C3891 1.427 . S
N3899 C3897 1.384 . S
H3900 C3906 0.930 . S
H3901 C3910 0.930 . S
H3902 C3915 0.929 . S
H3903 C3913 0.929 . S
H3904 C3908 0.929 . S
H3905 C3914 0.929 . S
C3906 H3900 0.930 . S
C3906 C3907 1.367 . S
C3906 C3914 1.378 . S
C3907 C3906 1.367 . S
C3907 C3915 1.433 . S
C3908 H3904 0.929 . S
C3908 C3910 1.378 . S
C3908 C3912 1.350 . S
C3909 C3912 1.463 . S
C3909 C3914 1.350 . S
C3909 N3917 1.427 . S
C3910 H3901 0.930 . S
C3910 C3908 1.378 . S
C3910 C3911 1.367 . S
C3911 C3910 1.367 . S
C3911 C3913 1.433 . S
C3912 C3908 1.350 . S
C3912 C3909 1.463 . S
C3912 N3916 1.427 . S
C3913 H3903 0.929 . S
C3913 C3911 1.433 . S
C3913 N3916 1.384 . S
C3914 H3905 0.929 . S
C3914 C3906 1.378 . S
C3914 C3909 1.350 . S
C3915 H3902 0.929 . S
C3915 C3907 1.433 . S
C3915 N3917 1.384 . S
N3916 C3912 1.427 . S
N3916 C3913 1.384 . S
N3917 C3909 1.427 . S
N3917 C3915 1.384 . S
H3918 C3924 0.930 . S
H3919 C3928 0.930 . S
H3920 C3933 0.929 . S
H3921 C3931 0.929 . S
H3922 C3926 0.929 . S
H3923 C3932 0.929 . S
C3924 H3918 0.930 . S
C3924 C3925 1.367 . S
C3924 C3932 1.378 . S
C3925 C3924 1.367 . S
C3925 C3933 1.433 . S
C3926 H3922 0.929 . S
C3926 C3928 1.378 . S
C3926 C3930 1.350 . S
C3927 C3930 1.463 . S
C3927 C3932 1.350 . S
C3927 N3935 1.427 . S
C3928 H3919 0.930 . S
C3928 C3926 1.378 . S
C3928 C3929 1.367 . S
C3929 C3928 1.367 . S
C3929 C3931 1.433 . S
C3930 C3926 1.350 . S
C3930 C3927 1.463 . S
C3930 N3934 1.427 . S
C3931 H3921 0.929 . S
C3931 C3929 1.433 . S
C3931 N3934 1.384 . S
C3932 H3923 0.929 . S
C3932 C3924 1.378 . S
C3932 C3927 1.350 . S
C3933 H3920 0.929 . S
C3933 C3925 1.433 . S
C3933 N3935 1.384 . S
N3934 C3930 1.427 . S
N3934 C3931 1.384 . S
N3935 C3927 1.427 . S
N3935 C3933 1.384 . S
H3936 C3942 0.930 . S
H3937 C3946 0.930 . S
H3938 C3951 0.929 . S
H3939 C3949 0.929 . S
H3940 C3944 0.929 . S
H3941 C3950 0.929 . S
C3942 H3936 0.930 . S
C3942 C3943 1.367 . S
C3942 C3950 1.378 . S
C3943 C3942 1.367 . S
C3943 C3951 1.433 . S
C3944 H3940 0.929 . S
C3944 C3946 1.378 . S
C3944 C3948 1.350 . S
C3945 C3948 1.463 1_655 S
C3945 C3950 1.350 . S
C3945 N3953 1.427 . S
C3946 H3937 0.930 . S
C3946 C3944 1.378 . S
C3946 C3947 1.367 . S
C3947 C3946 1.367 . S
C3947 C3949 1.433 . S
C3948 C3944 1.350 . S
C3948 C3945 1.463 1_455 S
C3948 N3952 1.427 . S
C3949 H3939 0.929 . S
C3949 C3947 1.433 . S
C3949 N3952 1.384 . S
C3950 H3941 0.929 . S
C3950 C3942 1.378 . S
C3950 C3945 1.350 . S
C3951 H3938 0.929 . S
C3951 C3943 1.433 . S
C3951 N3953 1.384 . S
N3952 C3948 1.427 . S
N3952 C3949 1.384 . S
N3953 C3945 1.427 . S
N3953 C3951 1.384 . S
H3954 C3960 0.930 . S
H3955 C3964 0.930 . S
H3956 C3969 0.929 . S
H3957 C3967 0.929 . S
H3958 C3962 0.929 . S
H3959 C3968 0.929 . S
C3960 H3954 0.930 . S
C3960 C3961 1.367 . S
C3960 C3968 1.378 . S
C3961 C3960 1.367 . S
C3961 C3969 1.433 . S
C3962 H3958 0.929 . S
C3962 C3964 1.378 . S
C3962 C3966 1.350 . S
C3963 C3966 1.463 1_545 S
C3963 C3968 1.350 . S
C3963 N3971 1.427 . S
C3964 H3955 0.930 . S
C3964 C3962 1.378 . S
C3964 C3965 1.367 . S
C3965 C3964 1.367 . S
C3965 C3967 1.433 . S
C3966 C3962 1.350 . S
C3966 C3963 1.463 1_565 S
C3966 N3970 1.427 . S
C3967 H3957 0.929 . S
C3967 C3965 1.433 . S
C3967 N3970 1.384 . S
C3968 H3959 0.929 . S
C3968 C3960 1.378 . S
C3968 C3963 1.350 . S
C3969 H3956 0.929 . S
C3969 C3961 1.433 . S
C3969 N3971 1.384 . S
N3970 C3966 1.427 . S
N3970 C3967 1.384 . S
N3971 C3963 1.427 . S
N3971 C3969 1.384 . S
H3972 C3978 0.930 . S
H3973 C3982 0.930 . S
H3974 C3987 0.929 . S
H3975 C3985 0.929 . S
H3976 C3980 0.929 . S
H3977 C3986 0.929 . S
C3978 H3972 0.930 . S
C3978 C3979 1.367 . S
C3978 C3986 1.378 . S
C3979 C3978 1.367 . S
C3979 C3987 1.433 . S
C3980 H3976 0.929 . S
C3980 C3982 1.378 . S
C3980 C3984 1.350 . S
C3981 C3984 1.463 1_455 S
C3981 C3986 1.350 . S
C3981 N3989 1.427 . S
C3982 H3973 0.930 . S
C3982 C3980 1.378 . S
C3982 C3983 1.367 . S
C3983 C3982 1.367 . S
C3983 C3985 1.433 . S
C3984 C3980 1.350 . S
C3984 C3981 1.463 1_655 S
C3984 N3988 1.427 . S
C3985 H3975 0.929 . S
C3985 C3983 1.433 . S
C3985 N3988 1.384 . S
C3986 H3977 0.929 . S
C3986 C3978 1.378 . S
C3986 C3981 1.350 . S
C3987 H3974 0.929 . S
C3987 C3979 1.433 . S
C3987 N3989 1.384 . S
N3988 C3984 1.427 . S
N3988 C3985 1.384 . S
N3989 C3981 1.427 . S
N3989 C3987 1.384 . S
H3990 C3996 0.930 . S
H3991 C4000 0.930 . S
H3992 C4005 0.929 . S
H3993 C4003 0.929 . S
H3994 C3998 0.929 . S
H3995 C4004 0.929 . S
C3996 H3990 0.930 . S
C3996 C3997 1.367 . S
C3996 C4004 1.378 . S
C3997 C3996 1.367 . S
C3997 C4005 1.433 . S
C3998 H3994 0.929 . S
C3998 C4000 1.378 . S
C3998 C4002 1.350 . S
C3999 C4002 1.463 1_565 S
C3999 C4004 1.350 . S
C3999 N4007 1.427 . S
C4000 H3991 0.930 . S
C4000 C3998 1.378 . S
C4000 C4001 1.367 . S
C4001 C4000 1.367 . S
C4001 C4003 1.433 . S
C4002 C3998 1.350 . S
C4002 C3999 1.463 1_545 S
C4002 N4006 1.427 . S
C4003 H3993 0.929 . S
C4003 C4001 1.433 . S
C4003 N4006 1.384 . S
C4004 H3995 0.929 . S
C4004 C3996 1.378 . S
C4004 C3999 1.350 . S
C4005 H3992 0.929 . S
C4005 C3997 1.433 . S
C4005 N4007 1.384 . S
N4006 C4002 1.427 . S
N4006 C4003 1.384 . S
N4007 C3999 1.427 . S
N4007 C4005 1.384 . S
H4008 C4014 0.930 . S
H4009 C4018 0.930 . S
H4010 C4023 0.929 . S
H4011 C4021 0.929 . S
H4012 C4016 0.929 . S
H4013 C4022 0.929 . S
C4014 H4008 0.930 . S
C4014 C4015 1.367 . S
C4014 C4022 1.378 . S
C4015 C4014 1.367 . S
C4015 C4023 1.433 . S
C4016 H4012 0.929 . S
C4016 C4018 1.378 . S
C4016 C4020 1.350 . S
C4017 C4020 1.463 1_655 S
C4017 C4022 1.350 . S
C4017 N4025 1.427 . S
C4018 H4009 0.930 . S
C4018 C4016 1.378 . S
C4018 C4019 1.367 . S
C4019 C4018 1.367 . S
C4019 C4021 1.433 . S
C4020 C4016 1.350 . S
C4020 C4017 1.463 1_455 S
C4020 N4024 1.427 . S
C4021 H4011 0.929 . S
C4021 C4019 1.433 . S
C4021 N4024 1.384 . S
C4022 H4013 0.929 . S
C4022 C4014 1.378 . S
C4022 C4017 1.350 . S
C4023 H4010 0.929 . S
C4023 C4015 1.433 . S
C4023 N4025 1.384 . S
N4024 C4020 1.427 . S
N4024 C4021 1.384 . S
N4025 C4017 1.427 . S
N4025 C4023 1.384 . S
H4026 C4032 0.930 . S
H4027 C4036 0.930 . S
H4028 C4041 0.929 . S
H4029 C4039 0.929 . S
H4030 C4034 0.929 . S
H4031 C4040 0.929 . S
C4032 H4026 0.930 . S
C4032 C4033 1.367 . S
C4032 C4040 1.378 . S
C4033 C4032 1.367 . S
C4033 C4041 1.433 . S
C4034 H4030 0.929 . S
C4034 C4036 1.378 . S
C4034 C4038 1.350 . S
C4035 C4038 1.463 1_565 S
C4035 C4040 1.350 . S
C4035 N4043 1.427 . S
C4036 H4027 0.930 . S
C4036 C4034 1.378 . S
C4036 C4037 1.367 . S
C4037 C4036 1.367 . S
C4037 C4039 1.433 . S
C4038 C4034 1.350 . S
C4038 C4035 1.463 1_545 S
C4038 N4042 1.427 . S
C4039 H4029 0.929 . S
C4039 C4037 1.433 . S
C4039 N4042 1.384 . S
C4040 H4031 0.929 . S
C4040 C4032 1.378 . S
C4040 C4035 1.350 . S
C4041 H4028 0.929 . S
C4041 C4033 1.433 . S
C4041 N4043 1.384 . S
N4042 C4038 1.427 . S
N4042 C4039 1.384 . S
N4043 C4035 1.427 . S
N4043 C4041 1.384 . S
H4044 C4050 0.930 . S
H4045 C4054 0.930 . S
H4046 C4059 0.929 . S
H4047 C4057 0.929 . S
H4048 C4052 0.929 . S
H4049 C4058 0.929 . S
C4050 H4044 0.930 . S
C4050 C4051 1.367 . S
C4050 C4058 1.378 . S
C4051 C4050 1.367 . S
C4051 C4059 1.433 . S
C4052 H4048 0.929 . S
C4052 C4054 1.378 . S
C4052 C4056 1.350 . S
C4053 C4056 1.463 1_655 S
C4053 C4058 1.350 . S
C4053 N4061 1.427 . S
C4054 H4045 0.930 . S
C4054 C4052 1.378 . S
C4054 C4055 1.367 . S
C4055 C4054 1.367 . S
C4055 C4057 1.433 . S
C4056 C4052 1.350 . S
C4056 C4053 1.463 1_455 S
C4056 N4060 1.427 . S
C4057 H4047 0.929 . S
C4057 C4055 1.433 . S
C4057 N4060 1.384 . S
C4058 H4049 0.929 . S
C4058 C4050 1.378 . S
C4058 C4053 1.350 . S
C4059 H4046 0.929 . S
C4059 C4051 1.433 . S
C4059 N4061 1.384 . S
N4060 C4056 1.427 . S
N4060 C4057 1.384 . S
N4061 C4053 1.427 . S
N4061 C4059 1.384 . S
H4062 C4068 0.930 . S
H4063 C4072 0.930 . S
H4064 C4077 0.929 . S
H4065 C4075 0.929 . S
H4066 C4070 0.929 . S
H4067 C4076 0.929 . S
C4068 H4062 0.930 . S
C4068 C4069 1.367 . S
C4068 C4076 1.378 . S
C4069 C4068 1.367 . S
C4069 C4077 1.433 . S
C4070 H4066 0.929 . S
C4070 C4072 1.378 . S
C4070 C4074 1.350 . S
C4071 C4074 1.463 1_565 S
C4071 C4076 1.350 . S
C4071 N4079 1.427 . S
C4072 H4063 0.930 . S
C4072 C4070 1.378 . S
C4072 C4073 1.367 . S
C4073 C4072 1.367 . S
C4073 C4075 1.433 . S
C4074 C4070 1.350 . S
C4074 C4071 1.463 1_545 S
C4074 N4078 1.427 . S
C4075 H4065 0.929 . S
C4075 C4073 1.433 . S
C4075 N4078 1.384 . S
C4076 H4067 0.929 . S
C4076 C4068 1.378 . S
C4076 C4071 1.350 . S
C4077 H4064 0.929 . S
C4077 C4069 1.433 . S
C4077 N4079 1.384 . S
N4078 C4074 1.427 . S
N4078 C4075 1.384 . S
N4079 C4071 1.427 . S
N4079 C4077 1.384 . S
H4080 C4086 0.930 . S
H4081 C4090 0.930 . S
H4082 C4095 0.929 . S
H4083 C4093 0.929 . S
H4084 C4088 0.929 . S
H4085 C4094 0.929 . S
C4086 H4080 0.930 . S
C4086 C4087 1.367 . S
C4086 C4094 1.378 . S
C4087 C4086 1.367 . S
C4087 C4095 1.433 . S
C4088 H4084 0.929 . S
C4088 C4090 1.378 . S
C4088 C4092 1.350 . S
C4089 C4092 1.463 1_565 S
C4089 C4094 1.350 . S
C4089 N4097 1.427 . S
C4090 H4081 0.930 . S
C4090 C4088 1.378 . S
C4090 C4091 1.367 . S
C4091 C4090 1.367 . S
C4091 C4093 1.433 . S
C4092 C4088 1.350 . S
C4092 C4089 1.463 1_545 S
C4092 N4096 1.427 . S
C4093 H4083 0.929 . S
C4093 C4091 1.433 . S
C4093 N4096 1.384 . S
C4094 H4085 0.929 . S
C4094 C4086 1.378 . S
C4094 C4089 1.350 . S
C4095 H4082 0.929 . S
C4095 C4087 1.433 . S
C4095 N4097 1.384 . S
N4096 C4092 1.427 . S
N4096 C4093 1.384 . S
N4097 C4089 1.427 . S
N4097 C4095 1.384 . S
H4098 C4104 0.930 . S
H4099 C4108 0.930 . S
H4100 C4113 0.929 . S
H4101 C4111 0.929 . S
H4102 C4106 0.929 . S
H4103 C4112 0.929 . S
C4104 H4098 0.930 . S
C4104 C4105 1.367 . S
C4104 C4112 1.378 . S
C4105 C4104 1.367 . S
C4105 C4113 1.433 . S
C4106 H4102 0.929 . S
C4106 C4108 1.378 . S
C4106 C4110 1.350 . S
C4107 C4110 1.463 1_655 S
C4107 C4112 1.350 . S
C4107 N4115 1.427 . S
C4108 H4099 0.930 . S
C4108 C4106 1.378 . S
C4108 C4109 1.367 . S
C4109 C4108 1.367 . S
C4109 C4111 1.433 . S
C4110 C4106 1.350 . S
C4110 C4107 1.463 1_455 S
C4110 N4114 1.427 . S
C4111 H4101 0.929 . S
C4111 C4109 1.433 . S
C4111 N4114 1.384 . S
C4112 H4103 0.929 . S
C4112 C4104 1.378 . S
C4112 C4107 1.350 . S
C4113 H4100 0.929 . S
C4113 C4105 1.433 . S
C4113 N4115 1.384 . S
N4114 C4110 1.427 . S
N4114 C4111 1.384 . S
N4115 C4107 1.427 . S
N4115 C4113 1.384 . S
H4116 C4122 0.930 . S
H4117 C4126 0.930 . S
H4118 C4131 0.929 . S
H4119 C4129 0.929 . S
H4120 C4124 0.929 . S
H4121 C4130 0.929 . S
C4122 H4116 0.930 . S
C4122 C4123 1.367 . S
C4122 C4130 1.378 . S
C4123 C4122 1.367 . S
C4123 C4131 1.433 . S
C4124 H4120 0.929 . S
C4124 C4126 1.378 . S
C4124 C4128 1.350 . S
C4125 C4128 1.463 1_565 S
C4125 C4130 1.350 . S
C4125 N4133 1.427 . S
C4126 H4117 0.930 . S
C4126 C4124 1.378 . S
C4126 C4127 1.367 . S
C4127 C4126 1.367 . S
C4127 C4129 1.433 . S
C4128 C4124 1.350 . S
C4128 C4125 1.463 1_545 S
C4128 N4132 1.427 . S
C4129 H4119 0.929 . S
C4129 C4127 1.433 . S
C4129 N4132 1.384 . S
C4130 H4121 0.929 . S
C4130 C4122 1.378 . S
C4130 C4125 1.350 . S
C4131 H4118 0.929 . S
C4131 C4123 1.433 . S
C4131 N4133 1.384 . S
N4132 C4128 1.427 . S
N4132 C4129 1.384 . S
N4133 C4125 1.427 . S
N4133 C4131 1.384 . S
H4134 C4140 0.930 . S
H4135 C4144 0.930 . S
H4136 C4149 0.929 . S
H4137 C4147 0.929 . S
H4138 C4142 0.929 . S
H4139 C4148 0.929 . S
C4140 H4134 0.930 . S
C4140 C4141 1.367 . S
C4140 C4148 1.378 . S
C4141 C4140 1.367 . S
C4141 C4149 1.433 . S
C4142 H4138 0.929 . S
C4142 C4144 1.378 . S
C4142 C4146 1.350 . S
C4143 C4146 1.463 1_655 S
C4143 C4148 1.350 . S
C4143 N4151 1.427 . S
C4144 H4135 0.930 . S
C4144 C4142 1.378 . S
C4144 C4145 1.367 . S
C4145 C4144 1.367 . S
C4145 C4147 1.433 . S
C4146 C4142 1.350 . S
C4146 C4143 1.463 1_455 S
C4146 N4150 1.427 . S
C4147 H4137 0.929 . S
C4147 C4145 1.433 . S
C4147 N4150 1.384 . S
C4148 H4139 0.929 . S
C4148 C4140 1.378 . S
C4148 C4143 1.350 . S
C4149 H4136 0.929 . S
C4149 C4141 1.433 . S
C4149 N4151 1.384 . S
N4150 C4146 1.427 . S
N4150 C4147 1.384 . S
N4151 C4143 1.427 . S
N4151 C4149 1.384 . S
H4152 C4158 0.930 . S
H4153 C4162 0.930 . S
H4154 C4167 0.929 . S
H4155 C4165 0.929 . S
H4156 C4160 0.929 . S
H4157 C4166 0.929 . S
C4158 H4152 0.930 . S
C4158 C4159 1.367 . S
C4158 C4166 1.378 . S
C4159 C4158 1.367 . S
C4159 C4167 1.433 . S
C4160 H4156 0.929 . S
C4160 C4162 1.378 . S
C4160 C4164 1.350 . S
C4161 C4164 1.463 1_565 S
C4161 C4166 1.350 . S
C4161 N4169 1.427 . S
C4162 H4153 0.930 . S
C4162 C4160 1.378 . S
C4162 C4163 1.367 . S
C4163 C4162 1.367 . S
C4163 C4165 1.433 . S
C4164 C4160 1.350 . S
C4164 C4161 1.463 1_545 S
C4164 N4168 1.427 . S
C4165 H4155 0.929 . S
C4165 C4163 1.433 . S
C4165 N4168 1.384 . S
C4166 H4157 0.929 . S
C4166 C4158 1.378 . S
C4166 C4161 1.350 . S
C4167 H4154 0.929 . S
C4167 C4159 1.433 . S
C4167 N4169 1.384 . S
N4168 C4164 1.427 . S
N4168 C4165 1.384 . S
N4169 C4161 1.427 . S
N4169 C4167 1.384 . S
H4170 C4176 0.930 . S
H4171 C4180 0.930 . S
H4172 C4185 0.929 . S
H4173 C4183 0.929 . S
H4174 C4178 0.929 . S
H4175 C4184 0.929 . S
C4176 H4170 0.930 . S
C4176 C4177 1.367 . S
C4176 C4184 1.378 . S
C4177 C4176 1.367 . S
C4177 C4185 1.433 . S
C4178 H4174 0.929 . S
C4178 C4180 1.378 . S
C4178 C4182 1.350 . S
C4179 C4182 1.463 1_655 S
C4179 C4184 1.350 . S
C4179 N4187 1.427 . S
C4180 H4171 0.930 . S
C4180 C4178 1.378 . S
C4180 C4181 1.367 . S
C4181 C4180 1.367 . S
C4181 C4183 1.433 . S
C4182 C4178 1.350 . S
C4182 C4179 1.463 1_455 S
C4182 N4186 1.427 . S
C4183 H4173 0.929 . S
C4183 C4181 1.433 . S
C4183 N4186 1.384 . S
C4184 H4175 0.929 . S
C4184 C4176 1.378 . S
C4184 C4179 1.350 . S
C4185 H4172 0.929 . S
C4185 C4177 1.433 . S
C4185 N4187 1.384 . S
N4186 C4182 1.427 . S
N4186 C4183 1.384 . S
N4187 C4179 1.427 . S
N4187 C4185 1.384 . S
H4188 C4194 0.930 . S
H4189 C4198 0.930 . S
H4190 C4203 0.929 . S
H4191 C4201 0.929 . S
H4192 C4196 0.929 . S
H4193 C4202 0.929 . S
C4194 H4188 0.930 . S
C4194 C4195 1.367 . S
C4194 C4202 1.378 . S
C4195 C4194 1.367 . S
C4195 C4203 1.433 . S
C4196 H4192 0.929 . S
C4196 C4198 1.378 . S
C4196 C4200 1.350 . S
C4197 C4200 1.463 1_565 S
C4197 C4202 1.350 . S
C4197 N4205 1.427 . S
C4198 H4189 0.930 . S
C4198 C4196 1.378 . S
C4198 C4199 1.367 . S
C4199 C4198 1.367 . S
C4199 C4201 1.433 . S
C4200 C4196 1.350 . S
C4200 C4197 1.463 1_545 S
C4200 N4204 1.427 . S
C4201 H4191 0.929 . S
C4201 C4199 1.433 . S
C4201 N4204 1.384 . S
C4202 H4193 0.929 . S
C4202 C4194 1.378 . S
C4202 C4197 1.350 . S
C4203 H4190 0.929 . S
C4203 C4195 1.433 . S
C4203 N4205 1.384 . S
N4204 C4200 1.427 . S
N4204 C4201 1.384 . S
N4205 C4197 1.427 . S
N4205 C4203 1.384 . S
H4206 C4212 0.930 . S
H4207 C4216 0.930 . S
H4208 C4221 0.929 . S
H4209 C4219 0.929 . S
H4210 C4214 0.929 . S
H4211 C4220 0.929 . S
C4212 H4206 0.930 . S
C4212 C4213 1.367 . S
C4212 C4220 1.378 . S
C4213 C4212 1.367 . S
C4213 C4221 1.433 . S
C4214 H4210 0.929 . S
C4214 C4216 1.378 . S
C4214 C4218 1.350 . S
C4215 C4218 1.463 1_455 S
C4215 C4220 1.350 . S
C4215 N4223 1.427 . S
C4216 H4207 0.930 . S
C4216 C4214 1.378 . S
C4216 C4217 1.367 . S
C4217 C4216 1.367 . S
C4217 C4219 1.433 . S
C4218 C4214 1.350 . S
C4218 C4215 1.463 1_655 S
C4218 N4222 1.427 . S
C4219 H4209 0.929 . S
C4219 C4217 1.433 . S
C4219 N4222 1.384 . S
C4220 H4211 0.929 . S
C4220 C4212 1.378 . S
C4220 C4215 1.350 . S
C4221 H4208 0.929 . S
C4221 C4213 1.433 . S
C4221 N4223 1.384 . S
N4222 C4218 1.427 . S
N4222 C4219 1.384 . S
N4223 C4215 1.427 . S
N4223 C4221 1.384 . S
H4224 C4230 0.930 . S
H4225 C4234 0.930 . S
H4226 C4239 0.929 . S
H4227 C4237 0.929 . S
H4228 C4232 0.929 . S
H4229 C4238 0.929 . S
C4230 H4224 0.930 . S
C4230 C4231 1.367 . S
C4230 C4238 1.378 . S
C4231 C4230 1.367 . S
C4231 C4239 1.433 . S
C4232 H4228 0.929 . S
C4232 C4234 1.378 . S
C4232 C4236 1.350 . S
C4233 C4236 1.463 1_554 S
C4233 C4238 1.350 . S
C4233 N4241 1.427 . S
C4234 H4225 0.930 . S
C4234 C4232 1.378 . S
C4234 C4235 1.367 . S
C4235 C4234 1.367 . S
C4235 C4237 1.433 . S
C4236 C4232 1.350 . S
C4236 C4233 1.463 1_556 S
C4236 N4240 1.427 . S
C4237 H4227 0.929 . S
C4237 C4235 1.433 . S
C4237 N4240 1.384 . S
C4238 H4229 0.929 . S
C4238 C4230 1.378 . S
C4238 C4233 1.350 . S
C4239 H4226 0.929 . S
C4239 C4231 1.433 . S
C4239 N4241 1.384 . S
N4240 C4236 1.427 . S
N4240 C4237 1.384 . S
N4241 C4233 1.427 . S
N4241 C4239 1.384 . S
H4242 C4248 0.930 . S
H4243 C4252 0.930 . S
H4244 C4257 0.929 . S
H4245 C4255 0.929 . S
H4246 C4250 0.929 . S
H4247 C4256 0.929 . S
C4248 H4242 0.930 . S
C4248 C4249 1.367 . S
C4248 C4256 1.378 . S
C4249 C4248 1.367 . S
C4249 C4257 1.433 . S
C4250 H4246 0.929 . S
C4250 C4252 1.378 . S
C4250 C4254 1.350 . S
C4251 C4254 1.463 1_554 S
C4251 C4256 1.350 . S
C4251 N4259 1.427 . S
C4252 H4243 0.930 . S
C4252 C4250 1.378 . S
C4252 C4253 1.367 . S
C4253 C4252 1.367 . S
C4253 C4255 1.433 . S
C4254 C4250 1.350 . S
C4254 C4251 1.463 1_556 S
C4254 N4258 1.427 . S
C4255 H4245 0.929 . S
C4255 C4253 1.433 . S
C4255 N4258 1.384 . S
C4256 H4247 0.929 . S
C4256 C4248 1.378 . S
C4256 C4251 1.350 . S
C4257 H4244 0.929 . S
C4257 C4249 1.433 . S
C4257 N4259 1.384 . S
N4258 C4254 1.427 . S
N4258 C4255 1.384 . S
N4259 C4251 1.427 . S
N4259 C4257 1.384 . S
H4260 C4266 0.930 . S
H4261 C4270 0.930 . S
H4262 C4275 0.929 . S
H4263 C4273 0.929 . S
H4264 C4268 0.929 . S
H4265 C4274 0.929 . S
C4266 H4260 0.930 . S
C4266 C4267 1.367 . S
C4266 C4274 1.378 . S
C4267 C4266 1.367 . S
C4267 C4275 1.433 . S
C4268 H4264 0.929 . S
C4268 C4270 1.378 . S
C4268 C4272 1.350 . S
C4269 C4272 1.463 1_554 S
C4269 C4274 1.350 . S
C4269 N4277 1.427 . S
C4270 H4261 0.930 . S
C4270 C4268 1.378 . S
C4270 C4271 1.367 . S
C4271 C4270 1.367 . S
C4271 C4273 1.433 . S
C4272 C4268 1.350 . S
C4272 C4269 1.463 1_556 S
C4272 N4276 1.427 . S
C4273 H4263 0.929 . S
C4273 C4271 1.433 . S
C4273 N4276 1.384 . S
C4274 H4265 0.929 . S
C4274 C4266 1.378 . S
C4274 C4269 1.350 . S
C4275 H4262 0.929 . S
C4275 C4267 1.433 . S
C4275 N4277 1.384 . S
N4276 C4272 1.427 . S
N4276 C4273 1.384 . S
N4277 C4269 1.427 . S
N4277 C4275 1.384 . S
H4278 C4284 0.930 . S
H4279 C4288 0.930 . S
H4280 C4293 0.929 . S
H4281 C4291 0.929 . S
H4282 C4286 0.929 . S
H4283 C4292 0.929 . S
C4284 H4278 0.930 . S
C4284 C4285 1.367 . S
C4284 C4292 1.378 . S
C4285 C4284 1.367 . S
C4285 C4293 1.433 . S
C4286 H4282 0.929 . S
C4286 C4288 1.378 . S
C4286 C4290 1.350 . S
C4287 C4290 1.463 1_554 S
C4287 C4292 1.350 . S
C4287 N4295 1.427 . S
C4288 H4279 0.930 . S
C4288 C4286 1.378 . S
C4288 C4289 1.367 . S
C4289 C4288 1.367 . S
C4289 C4291 1.433 . S
C4290 C4286 1.350 . S
C4290 C4287 1.463 1_556 S
C4290 N4294 1.427 . S
C4291 H4281 0.929 . S
C4291 C4289 1.433 . S
C4291 N4294 1.384 . S
C4292 H4283 0.929 . S
C4292 C4284 1.378 . S
C4292 C4287 1.350 . S
C4293 H4280 0.929 . S
C4293 C4285 1.433 . S
C4293 N4295 1.384 . S
N4294 C4290 1.427 . S
N4294 C4291 1.384 . S
N4295 C4287 1.427 . S
N4295 C4293 1.384 . S
H4296 C4302 0.930 . S
H4297 C4306 0.930 . S
H4298 C4311 0.929 . S
H4299 C4309 0.929 . S
H4300 C4304 0.929 . S
H4301 C4310 0.929 . S
C4302 H4296 0.930 . S
C4302 C4303 1.367 . S
C4302 C4310 1.378 . S
C4303 C4302 1.367 . S
C4303 C4311 1.433 . S
C4304 H4300 0.929 . S
C4304 C4306 1.378 . S
C4304 C4308 1.350 . S
C4305 C4308 1.463 1_556 S
C4305 C4310 1.350 . S
C4305 N4313 1.427 . S
C4306 H4297 0.930 . S
C4306 C4304 1.378 . S
C4306 C4307 1.367 . S
C4307 C4306 1.367 . S
C4307 C4309 1.433 . S
C4308 C4304 1.350 . S
C4308 C4305 1.463 1_554 S
C4308 N4312 1.427 . S
C4309 H4299 0.929 . S
C4309 C4307 1.433 . S
C4309 N4312 1.384 . S
C4310 H4301 0.929 . S
C4310 C4302 1.378 . S
C4310 C4305 1.350 . S
C4311 H4298 0.929 . S
C4311 C4303 1.433 . S
C4311 N4313 1.384 . S
N4312 C4308 1.427 . S
N4312 C4309 1.384 . S
N4313 C4305 1.427 . S
N4313 C4311 1.384 . S
H4314 C4320 0.930 . S
H4315 C4324 0.930 . S
H4316 C4329 0.929 . S
H4317 C4327 0.929 . S
H4318 C4322 0.929 . S
H4319 C4328 0.929 . S
C4320 H4314 0.930 . S
C4320 C4321 1.367 . S
C4320 C4328 1.378 . S
C4321 C4320 1.367 . S
C4321 C4329 1.433 . S
C4322 H4318 0.929 . S
C4322 C4324 1.378 . S
C4322 C4326 1.350 . S
C4323 C4326 1.463 1_554 S
C4323 C4328 1.350 . S
C4323 N4331 1.427 . S
C4324 H4315 0.930 . S
C4324 C4322 1.378 . S
C4324 C4325 1.367 . S
C4325 C4324 1.367 . S
C4325 C4327 1.433 . S
C4326 C4322 1.350 . S
C4326 C4323 1.463 1_556 S
C4326 N4330 1.427 . S
C4327 H4317 0.929 . S
C4327 C4325 1.433 . S
C4327 N4330 1.384 . S
C4328 H4319 0.929 . S
C4328 C4320 1.378 . S
C4328 C4323 1.350 . S
C4329 H4316 0.929 . S
C4329 C4321 1.433 . S
C4329 N4331 1.384 . S
N4330 C4326 1.427 . S
N4330 C4327 1.384 . S
N4331 C4323 1.427 . S
N4331 C4329 1.384 . S
H4332 C4338 0.930 . S
H4333 C4342 0.930 . S
H4334 C4347 0.929 . S
H4335 C4345 0.929 . S
H4336 C4340 0.929 . S
H4337 C4346 0.929 . S
C4338 H4332 0.930 . S
C4338 C4339 1.367 . S
C4338 C4346 1.378 . S
C4339 C4338 1.367 . S
C4339 C4347 1.433 . S
C4340 H4336 0.929 . S
C4340 C4342 1.378 . S
C4340 C4344 1.350 . S
C4341 C4344 1.463 1_556 S
C4341 C4346 1.350 . S
C4341 N4349 1.427 . S
C4342 H4333 0.930 . S
C4342 C4340 1.378 . S
C4342 C4343 1.367 . S
C4343 C4342 1.367 . S
C4343 C4345 1.433 . S
C4344 C4340 1.350 . S
C4344 C4341 1.463 1_554 S
C4344 N4348 1.427 . S
C4345 H4335 0.929 . S
C4345 C4343 1.433 . S
C4345 N4348 1.384 . S
C4346 H4337 0.929 . S
C4346 C4338 1.378 . S
C4346 C4341 1.350 . S
C4347 H4334 0.929 . S
C4347 C4339 1.433 . S
C4347 N4349 1.384 . S
N4348 C4344 1.427 . S
N4348 C4345 1.384 . S
N4349 C4341 1.427 . S
N4349 C4347 1.384 . S
H4350 C4356 0.930 . S
H4351 C4360 0.930 . S
H4352 C4365 0.929 . S
H4353 C4363 0.929 . S
H4354 C4358 0.929 . S
H4355 C4364 0.929 . S
C4356 H4350 0.930 . S
C4356 C4357 1.367 . S
C4356 C4364 1.378 . S
C4357 C4356 1.367 . S
C4357 C4365 1.433 . S
C4358 H4354 0.929 . S
C4358 C4360 1.378 . S
C4358 C4362 1.350 . S
C4359 C4362 1.463 1_554 S
C4359 C4364 1.350 . S
C4359 N4367 1.427 . S
C4360 H4351 0.930 . S
C4360 C4358 1.378 . S
C4360 C4361 1.367 . S
C4361 C4360 1.367 . S
C4361 C4363 1.433 . S
C4362 C4358 1.350 . S
C4362 C4359 1.463 1_556 S
C4362 N4366 1.427 . S
C4363 H4353 0.929 . S
C4363 C4361 1.433 . S
C4363 N4366 1.384 . S
C4364 H4355 0.929 . S
C4364 C4356 1.378 . S
C4364 C4359 1.350 . S
C4365 H4352 0.929 . S
C4365 C4357 1.433 . S
C4365 N4367 1.384 . S
N4366 C4362 1.427 . S
N4366 C4363 1.384 . S
N4367 C4359 1.427 . S
N4367 C4365 1.384 . S
H4368 C4374 0.930 . S
H4369 C4378 0.930 . S
H4370 C4383 0.929 . S
H4371 C4381 0.929 . S
H4372 C4376 0.929 . S
H4373 C4382 0.929 . S
C4374 H4368 0.930 . S
C4374 C4375 1.367 . S
C4374 C4382 1.378 . S
C4375 C4374 1.367 . S
C4375 C4383 1.433 . S
C4376 H4372 0.929 . S
C4376 C4378 1.378 . S
C4376 C4380 1.350 . S
C4377 C4380 1.463 . S
C4377 C4382 1.350 . S
C4377 N4385 1.427 . S
C4378 H4369 0.930 . S
C4378 C4376 1.378 . S
C4378 C4379 1.367 . S
C4379 C4378 1.367 . S
C4379 C4381 1.433 . S
C4380 C4376 1.350 . S
C4380 C4377 1.463 . S
C4380 N4384 1.427 . S
C4381 H4371 0.929 . S
C4381 C4379 1.433 . S
C4381 N4384 1.384 . S
C4382 H4373 0.929 . S
C4382 C4374 1.378 . S
C4382 C4377 1.350 . S
C4383 H4370 0.929 . S
C4383 C4375 1.433 . S
C4383 N4385 1.384 . S
N4384 C4380 1.427 . S
N4384 C4381 1.384 . S
N4385 C4377 1.427 . S
N4385 C4383 1.384 . S
H4386 C4392 0.930 . S
H4387 C4396 0.930 . S
H4388 C4401 0.929 . S
H4389 C4399 0.929 . S
H4390 C4394 0.929 . S
H4391 C4400 0.929 . S
C4392 H4386 0.930 . S
C4392 C4393 1.367 . S
C4392 C4400 1.378 . S
C4393 C4392 1.367 . S
C4393 C4401 1.433 . S
C4394 H4390 0.929 . S
C4394 C4396 1.378 . S
C4394 C4398 1.350 . S
C4395 C4398 1.463 . S
C4395 C4400 1.350 . S
C4395 N4403 1.427 . S
C4396 H4387 0.930 . S
C4396 C4394 1.378 . S
C4396 C4397 1.367 . S
C4397 C4396 1.367 . S
C4397 C4399 1.433 . S
C4398 C4394 1.350 . S
C4398 C4395 1.463 . S
C4398 N4402 1.427 . S
C4399 H4389 0.929 . S
C4399 C4397 1.433 . S
C4399 N4402 1.384 . S
C4400 H4391 0.929 . S
C4400 C4392 1.378 . S
C4400 C4395 1.350 . S
C4401 H4388 0.929 . S
C4401 C4393 1.433 . S
C4401 N4403 1.384 . S
N4402 C4398 1.427 . S
N4402 C4399 1.384 . S
N4403 C4395 1.427 . S
N4403 C4401 1.384 . S
H4404 C4410 0.930 . S
H4405 C4414 0.930 . S
H4406 C4419 0.929 . S
H4407 C4417 0.929 . S
H4408 C4412 0.929 . S
H4409 C4418 0.929 . S
C4410 H4404 0.930 . S
C4410 C4411 1.367 . S
C4410 C4418 1.378 . S
C4411 C4410 1.367 . S
C4411 C4419 1.433 . S
C4412 H4408 0.929 . S
C4412 C4414 1.378 . S
C4412 C4416 1.350 . S
C4413 C4416 1.463 . S
C4413 C4418 1.350 . S
C4413 N4421 1.427 . S
C4414 H4405 0.930 . S
C4414 C4412 1.378 . S
C4414 C4415 1.367 . S
C4415 C4414 1.367 . S
C4415 C4417 1.433 . S
C4416 C4412 1.350 . S
C4416 C4413 1.463 . S
C4416 N4420 1.427 . S
C4417 H4407 0.929 . S
C4417 C4415 1.433 . S
C4417 N4420 1.384 . S
C4418 H4409 0.929 . S
C4418 C4410 1.378 . S
C4418 C4413 1.350 . S
C4419 H4406 0.929 . S
C4419 C4411 1.433 . S
C4419 N4421 1.384 . S
N4420 C4416 1.427 . S
N4420 C4417 1.384 . S
N4421 C4413 1.427 . S
N4421 C4419 1.384 . S
H4422 C4428 0.930 . S
H4423 C4432 0.930 . S
H4424 C4437 0.929 . S
H4425 C4435 0.929 . S
H4426 C4430 0.929 . S
H4427 C4436 0.929 . S
C4428 H4422 0.930 . S
C4428 C4429 1.367 . S
C4428 C4436 1.378 . S
C4429 C4428 1.367 . S
C4429 C4437 1.433 . S
C4430 H4426 0.929 . S
C4430 C4432 1.378 . S
C4430 C4434 1.350 . S
C4431 C4434 1.463 . S
C4431 C4436 1.350 . S
C4431 N4439 1.427 . S
C4432 H4423 0.930 . S
C4432 C4430 1.378 . S
C4432 C4433 1.367 . S
C4433 C4432 1.367 . S
C4433 C4435 1.433 . S
C4434 C4430 1.350 . S
C4434 C4431 1.463 . S
C4434 N4438 1.427 . S
C4435 H4425 0.929 . S
C4435 C4433 1.433 . S
C4435 N4438 1.384 . S
C4436 H4427 0.929 . S
C4436 C4428 1.378 . S
C4436 C4431 1.350 . S
C4437 H4424 0.929 . S
C4437 C4429 1.433 . S
C4437 N4439 1.384 . S
N4438 C4434 1.427 . S
N4438 C4435 1.384 . S
N4439 C4431 1.427 . S
N4439 C4437 1.384 . S
H4440 C4446 0.930 . S
H4441 C4450 0.930 . S
H4442 C4455 0.929 . S
H4443 C4453 0.929 . S
H4444 C4448 0.929 . S
H4445 C4454 0.929 . S
C4446 H4440 0.930 . S
C4446 C4447 1.367 . S
C4446 C4454 1.378 . S
C4447 C4446 1.367 . S
C4447 C4455 1.433 . S
C4448 H4444 0.929 . S
C4448 C4450 1.378 . S
C4448 C4452 1.350 . S
C4449 C4452 1.463 . S
C4449 C4454 1.350 . S
C4449 N4457 1.427 . S
C4450 H4441 0.930 . S
C4450 C4448 1.378 . S
C4450 C4451 1.367 . S
C4451 C4450 1.367 . S
C4451 C4453 1.433 . S
C4452 C4448 1.350 . S
C4452 C4449 1.463 . S
C4452 N4456 1.427 . S
C4453 H4443 0.929 . S
C4453 C4451 1.433 . S
C4453 N4456 1.384 . S
C4454 H4445 0.929 . S
C4454 C4446 1.378 . S
C4454 C4449 1.350 . S
C4455 H4442 0.929 . S
C4455 C4447 1.433 . S
C4455 N4457 1.384 . S
N4456 C4452 1.427 . S
N4456 C4453 1.384 . S
N4457 C4449 1.427 . S
N4457 C4455 1.384 . S
H4458 C4464 0.930 . S
H4459 C4468 0.930 . S
H4460 C4473 0.929 . S
H4461 C4471 0.929 . S
H4462 C4466 0.929 . S
H4463 C4472 0.929 . S
C4464 H4458 0.930 . S
C4464 C4465 1.367 . S
C4464 C4472 1.378 . S
C4465 C4464 1.367 . S
C4465 C4473 1.433 . S
C4466 H4462 0.929 . S
C4466 C4468 1.378 . S
C4466 C4470 1.350 . S
C4467 C4470 1.463 . S
C4467 C4472 1.350 . S
C4467 N4475 1.427 . S
C4468 H4459 0.930 . S
C4468 C4466 1.378 . S
C4468 C4469 1.367 . S
C4469 C4468 1.367 . S
C4469 C4471 1.433 . S
C4470 C4466 1.350 . S
C4470 C4467 1.463 . S
C4470 N4474 1.427 . S
C4471 H4461 0.929 . S
C4471 C4469 1.433 . S
C4471 N4474 1.384 . S
C4472 H4463 0.929 . S
C4472 C4464 1.378 . S
C4472 C4467 1.350 . S
C4473 H4460 0.929 . S
C4473 C4465 1.433 . S
C4473 N4475 1.384 . S
N4474 C4470 1.427 . S
N4474 C4471 1.384 . S
N4475 C4467 1.427 . S
N4475 C4473 1.384 . S
H4476 C4482 0.930 . S
H4477 C4486 0.930 . S
H4478 C4491 0.929 . S
H4479 C4489 0.929 . S
H4480 C4484 0.929 . S
H4481 C4490 0.929 . S
C4482 H4476 0.930 . S
C4482 C4483 1.367 . S
C4482 C4490 1.378 . S
C4483 C4482 1.367 . S
C4483 C4491 1.433 . S
C4484 H4480 0.929 . S
C4484 C4486 1.378 . S
C4484 C4488 1.350 . S
C4485 C4488 1.463 . S
C4485 C4490 1.350 . S
C4485 N4493 1.427 . S
C4486 H4477 0.930 . S
C4486 C4484 1.378 . S
C4486 C4487 1.367 . S
C4487 C4486 1.367 . S
C4487 C4489 1.433 . S
C4488 C4484 1.350 . S
C4488 C4485 1.463 . S
C4488 N4492 1.427 . S
C4489 H4479 0.929 . S
C4489 C4487 1.433 . S
C4489 N4492 1.384 . S
C4490 H4481 0.929 . S
C4490 C4482 1.378 . S
C4490 C4485 1.350 . S
C4491 H4478 0.929 . S
C4491 C4483 1.433 . S
C4491 N4493 1.384 . S
N4492 C4488 1.427 . S
N4492 C4489 1.384 . S
N4493 C4485 1.427 . S
N4493 C4491 1.384 . S
H4494 C4500 0.930 . S
H4495 C4504 0.930 . S
H4496 C4509 0.929 . S
H4497 C4507 0.929 . S
H4498 C4502 0.929 . S
H4499 C4508 0.929 . S
C4500 H4494 0.930 . S
C4500 C4501 1.367 . S
C4500 C4508 1.378 . S
C4501 C4500 1.367 . S
C4501 C4509 1.433 . S
C4502 H4498 0.929 . S
C4502 C4504 1.378 . S
C4502 C4506 1.350 . S
C4503 C4506 1.463 . S
C4503 C4508 1.350 . S
C4503 N4511 1.427 . S
C4504 H4495 0.930 . S
C4504 C4502 1.378 . S
C4504 C4505 1.367 . S
C4505 C4504 1.367 . S
C4505 C4507 1.433 . S
C4506 C4502 1.350 . S
C4506 C4503 1.463 . S
C4506 N4510 1.427 . S
C4507 H4497 0.929 . S
C4507 C4505 1.433 . S
C4507 N4510 1.384 . S
C4508 H4499 0.929 . S
C4508 C4500 1.378 . S
C4508 C4503 1.350 . S
C4509 H4496 0.929 . S
C4509 C4501 1.433 . S
C4509 N4511 1.384 . S
N4510 C4506 1.427 . S
N4510 C4507 1.384 . S
N4511 C4503 1.427 . S
N4511 C4509 1.384 . S
H4512 C4518 0.930 . S
H4513 C4522 0.930 . S
H4514 C4527 0.929 . S
H4515 C4525 0.929 . S
H4516 C4520 0.929 . S
H4517 C4526 0.929 . S
C4518 H4512 0.930 . S
C4518 C4519 1.367 . S
C4518 C4526 1.378 . S
C4519 C4518 1.367 . S
C4519 C4527 1.433 . S
C4520 H4516 0.929 . S
C4520 C4522 1.378 . S
C4520 C4524 1.350 . S
C4521 C4524 1.463 . S
C4521 C4526 1.350 . S
C4521 N4529 1.427 . S
C4522 H4513 0.930 . S
C4522 C4520 1.378 . S
C4522 C4523 1.367 . S
C4523 C4522 1.367 . S
C4523 C4525 1.433 . S
C4524 C4520 1.350 . S
C4524 C4521 1.463 . S
C4524 N4528 1.427 . S
C4525 H4515 0.929 . S
C4525 C4523 1.433 . S
C4525 N4528 1.384 . S
C4526 H4517 0.929 . S
C4526 C4518 1.378 . S
C4526 C4521 1.350 . S
C4527 H4514 0.929 . S
C4527 C4519 1.433 . S
C4527 N4529 1.384 . S
N4528 C4524 1.427 . S
N4528 C4525 1.384 . S
N4529 C4521 1.427 . S
N4529 C4527 1.384 . S
H4530 C4536 0.930 . S
H4531 C4540 0.930 . S
H4532 C4545 0.929 . S
H4533 C4543 0.929 . S
H4534 C4538 0.929 . S
H4535 C4544 0.929 . S
C4536 H4530 0.930 . S
C4536 C4537 1.367 . S
C4536 C4544 1.378 . S
C4537 C4536 1.367 . S
C4537 C4545 1.433 . S
C4538 H4534 0.929 . S
C4538 C4540 1.378 . S
C4538 C4542 1.350 . S
C4539 C4542 1.463 . S
C4539 C4544 1.350 . S
C4539 N4547 1.427 . S
C4540 H4531 0.930 . S
C4540 C4538 1.378 . S
C4540 C4541 1.367 . S
C4541 C4540 1.367 . S
C4541 C4543 1.433 . S
C4542 C4538 1.350 . S
C4542 C4539 1.463 . S
C4542 N4546 1.427 . S
C4543 H4533 0.929 . S
C4543 C4541 1.433 . S
C4543 N4546 1.384 . S
C4544 H4535 0.929 . S
C4544 C4536 1.378 . S
C4544 C4539 1.350 . S
C4545 H4532 0.929 . S
C4545 C4537 1.433 . S
C4545 N4547 1.384 . S
N4546 C4542 1.427 . S
N4546 C4543 1.384 . S
N4547 C4539 1.427 . S
N4547 C4545 1.384 . S
H4548 C4554 0.930 . S
H4549 C4558 0.930 . S
H4550 C4563 0.929 . S
H4551 C4561 0.929 . S
H4552 C4556 0.929 . S
H4553 C4562 0.929 . S
C4554 H4548 0.930 . S
C4554 C4555 1.367 . S
C4554 C4562 1.378 . S
C4555 C4554 1.367 . S
C4555 C4563 1.433 . S
C4556 H4552 0.929 . S
C4556 C4558 1.378 . S
C4556 C4560 1.350 . S
C4557 C4560 1.463 . S
C4557 C4562 1.350 . S
C4557 N4565 1.427 . S
C4558 H4549 0.930 . S
C4558 C4556 1.378 . S
C4558 C4559 1.367 . S
C4559 C4558 1.367 . S
C4559 C4561 1.433 . S
C4560 C4556 1.350 . S
C4560 C4557 1.463 . S
C4560 N4564 1.427 . S
C4561 H4551 0.929 . S
C4561 C4559 1.433 . S
C4561 N4564 1.384 . S
C4562 H4553 0.929 . S
C4562 C4554 1.378 . S
C4562 C4557 1.350 . S
C4563 H4550 0.929 . S
C4563 C4555 1.433 . S
C4563 N4565 1.384 . S
N4564 C4560 1.427 . S
N4564 C4561 1.384 . S
N4565 C4557 1.427 . S
N4565 C4563 1.384 . S
H4566 C4572 0.930 . S
H4567 C4576 0.930 . S
H4568 C4581 0.929 . S
H4569 C4579 0.929 . S
H4570 C4574 0.929 . S
H4571 C4580 0.929 . S
C4572 H4566 0.930 . S
C4572 C4573 1.367 . S
C4572 C4580 1.378 . S
C4573 C4572 1.367 . S
C4573 C4581 1.433 . S
C4574 H4570 0.929 . S
C4574 C4576 1.378 . S
C4574 C4578 1.350 . S
C4575 C4578 1.463 . S
C4575 C4580 1.350 . S
C4575 N4583 1.427 . S
C4576 H4567 0.930 . S
C4576 C4574 1.378 . S
C4576 C4577 1.367 . S
C4577 C4576 1.367 . S
C4577 C4579 1.433 . S
C4578 C4574 1.350 . S
C4578 C4575 1.463 . S
C4578 N4582 1.427 . S
C4579 H4569 0.929 . S
C4579 C4577 1.433 . S
C4579 N4582 1.384 . S
C4580 H4571 0.929 . S
C4580 C4572 1.378 . S
C4580 C4575 1.350 . S
C4581 H4568 0.929 . S
C4581 C4573 1.433 . S
C4581 N4583 1.384 . S
N4582 C4578 1.427 . S
N4582 C4579 1.384 . S
N4583 C4575 1.427 . S
N4583 C4581 1.384 . S
H4584 C4590 0.930 . S
H4585 C4594 0.930 . S
H4586 C4599 0.929 . S
H4587 C4597 0.929 . S
H4588 C4592 0.929 . S
H4589 C4598 0.929 . S
C4590 H4584 0.930 . S
C4590 C4591 1.367 . S
C4590 C4598 1.378 . S
C4591 C4590 1.367 . S
C4591 C4599 1.433 . S
C4592 H4588 0.929 . S
C4592 C4594 1.378 . S
C4592 C4596 1.350 . S
C4593 C4596 1.463 . S
C4593 C4598 1.350 . S
C4593 N4601 1.427 . S
C4594 H4585 0.930 . S
C4594 C4592 1.378 . S
C4594 C4595 1.367 . S
C4595 C4594 1.367 . S
C4595 C4597 1.433 . S
C4596 C4592 1.350 . S
C4596 C4593 1.463 . S
C4596 N4600 1.427 . S
C4597 H4587 0.929 . S
C4597 C4595 1.433 . S
C4597 N4600 1.384 . S
C4598 H4589 0.929 . S
C4598 C4590 1.378 . S
C4598 C4593 1.350 . S
C4599 H4586 0.929 . S
C4599 C4591 1.433 . S
C4599 N4601 1.384 . S
N4600 C4596 1.427 . S
N4600 C4597 1.384 . S
N4601 C4593 1.427 . S
N4601 C4599 1.384 . S
H4602 C4608 0.930 . S
H4603 C4612 0.930 . S
H4604 C4617 0.929 . S
H4605 C4615 0.929 . S
H4606 C4610 0.929 . S
H4607 C4616 0.929 . S
C4608 H4602 0.930 . S
C4608 C4609 1.367 . S
C4608 C4616 1.378 . S
C4609 C4608 1.367 . S
C4609 C4617 1.433 . S
C4610 H4606 0.929 . S
C4610 C4612 1.378 . S
C4610 C4614 1.350 . S
C4611 C4614 1.463 . S
C4611 C4616 1.350 . S
C4611 N4619 1.427 . S
C4612 H4603 0.930 . S
C4612 C4610 1.378 . S
C4612 C4613 1.367 . S
C4613 C4612 1.367 . S
C4613 C4615 1.433 . S
C4614 C4610 1.350 . S
C4614 C4611 1.463 . S
C4614 N4618 1.427 . S
C4615 H4605 0.929 . S
C4615 C4613 1.433 . S
C4615 N4618 1.384 . S
C4616 H4607 0.929 . S
C4616 C4608 1.378 . S
C4616 C4611 1.350 . S
C4617 H4604 0.929 . S
C4617 C4609 1.433 . S
C4617 N4619 1.384 . S
N4618 C4614 1.427 . S
N4618 C4615 1.384 . S
N4619 C4611 1.427 . S
N4619 C4617 1.384 . S
H4620 C4626 0.930 . S
H4621 C4630 0.930 . S
H4622 C4635 0.929 . S
H4623 C4633 0.929 . S
H4624 C4628 0.929 . S
H4625 C4634 0.929 . S
C4626 H4620 0.930 . S
C4626 C4627 1.367 . S
C4626 C4634 1.378 . S
C4627 C4626 1.367 . S
C4627 C4635 1.433 . S
C4628 H4624 0.929 . S
C4628 C4630 1.378 . S
C4628 C4632 1.350 . S
C4629 C4632 1.463 . S
C4629 C4634 1.350 . S
C4629 N4637 1.427 . S
C4630 H4621 0.930 . S
C4630 C4628 1.378 . S
C4630 C4631 1.367 . S
C4631 C4630 1.367 . S
C4631 C4633 1.433 . S
C4632 C4628 1.350 . S
C4632 C4629 1.463 . S
C4632 N4636 1.427 . S
C4633 H4623 0.929 . S
C4633 C4631 1.433 . S
C4633 N4636 1.384 . S
C4634 H4625 0.929 . S
C4634 C4626 1.378 . S
C4634 C4629 1.350 . S
C4635 H4622 0.929 . S
C4635 C4627 1.433 . S
C4635 N4637 1.384 . S
N4636 C4632 1.427 . S
N4636 C4633 1.384 . S
N4637 C4629 1.427 . S
N4637 C4635 1.384 . S
H4638 C4644 0.930 . S
H4639 C4648 0.930 . S
H4640 C4653 0.929 . S
H4641 C4651 0.929 . S
H4642 C4646 0.929 . S
H4643 C4652 0.929 . S
C4644 H4638 0.930 . S
C4644 C4645 1.367 . S
C4644 C4652 1.378 . S
C4645 C4644 1.367 . S
C4645 C4653 1.433 . S
C4646 H4642 0.929 . S
C4646 C4648 1.378 . S
C4646 C4650 1.350 . S
C4647 C4650 1.463 . S
C4647 C4652 1.350 . S
C4647 N4655 1.427 . S
C4648 H4639 0.930 . S
C4648 C4646 1.378 . S
C4648 C4649 1.367 . S
C4649 C4648 1.367 . S
C4649 C4651 1.433 . S
C4650 C4646 1.350 . S
C4650 C4647 1.463 . S
C4650 N4654 1.427 . S
C4651 H4641 0.929 . S
C4651 C4649 1.433 . S
C4651 N4654 1.384 . S
C4652 H4643 0.929 . S
C4652 C4644 1.378 . S
C4652 C4647 1.350 . S
C4653 H4640 0.929 . S
C4653 C4645 1.433 . S
C4653 N4655 1.384 . S
N4654 C4650 1.427 . S
N4654 C4651 1.384 . S
N4655 C4647 1.427 . S
N4655 C4653 1.384 . S
H4656 C4662 0.930 . S
H4657 C4666 0.930 . S
H4658 C4671 0.929 . S
H4659 C4669 0.929 . S
H4660 C4664 0.929 . S
H4661 C4670 0.929 . S
C4662 H4656 0.930 . S
C4662 C4663 1.367 . S
C4662 C4670 1.378 . S
C4663 C4662 1.367 . S
C4663 C4671 1.433 . S
C4664 H4660 0.929 . S
C4664 C4666 1.378 . S
C4664 C4668 1.350 . S
C4665 C4668 1.463 . S
C4665 C4670 1.350 . S
C4665 N4673 1.427 . S
C4666 H4657 0.930 . S
C4666 C4664 1.378 . S
C4666 C4667 1.367 . S
C4667 C4666 1.367 . S
C4667 C4669 1.433 . S
C4668 C4664 1.350 . S
C4668 C4665 1.463 . S
C4668 N4672 1.427 . S
C4669 H4659 0.929 . S
C4669 C4667 1.433 . S
C4669 N4672 1.384 . S
C4670 H4661 0.929 . S
C4670 C4662 1.378 . S
C4670 C4665 1.350 . S
C4671 H4658 0.929 . S
C4671 C4663 1.433 . S
C4671 N4673 1.384 . S
N4672 C4668 1.427 . S
N4672 C4669 1.384 . S
N4673 C4665 1.427 . S
N4673 C4671 1.384 . S
H4674 C4680 0.930 . S
H4675 C4684 0.930 . S
H4676 C4689 0.929 . S
H4677 C4687 0.929 . S
H4678 C4682 0.929 . S
H4679 C4688 0.929 . S
C4680 H4674 0.930 . S
C4680 C4681 1.367 . S
C4680 C4688 1.378 . S
C4681 C4680 1.367 . S
C4681 C4689 1.433 . S
C4682 H4678 0.929 . S
C4682 C4684 1.378 . S
C4682 C4686 1.350 . S
C4683 C4686 1.463 . S
C4683 C4688 1.350 . S
C4683 N4691 1.427 . S
C4684 H4675 0.930 . S
C4684 C4682 1.378 . S
C4684 C4685 1.367 . S
C4685 C4684 1.367 . S
C4685 C4687 1.433 . S
C4686 C4682 1.350 . S
C4686 C4683 1.463 . S
C4686 N4690 1.427 . S
C4687 H4677 0.929 . S
C4687 C4685 1.433 . S
C4687 N4690 1.384 . S
C4688 H4679 0.929 . S
C4688 C4680 1.378 . S
C4688 C4683 1.350 . S
C4689 H4676 0.929 . S
C4689 C4681 1.433 . S
C4689 N4691 1.384 . S
N4690 C4686 1.427 . S
N4690 C4687 1.384 . S
N4691 C4683 1.427 . S
N4691 C4689 1.384 . S
H4692 C4698 0.930 . S
H4693 C4702 0.930 . S
H4694 C4707 0.929 . S
H4695 C4705 0.929 . S
H4696 C4700 0.929 . S
H4697 C4706 0.929 . S
C4698 H4692 0.930 . S
C4698 C4699 1.367 . S
C4698 C4706 1.378 . S
C4699 C4698 1.367 . S
C4699 C4707 1.433 . S
C4700 H4696 0.929 . S
C4700 C4702 1.378 . S
C4700 C4704 1.350 . S
C4701 C4704 1.463 . S
C4701 C4706 1.350 . S
C4701 N4709 1.427 . S
C4702 H4693 0.930 . S
C4702 C4700 1.378 . S
C4702 C4703 1.367 . S
C4703 C4702 1.367 . S
C4703 C4705 1.433 . S
C4704 C4700 1.350 . S
C4704 C4701 1.463 . S
C4704 N4708 1.427 . S
C4705 H4695 0.929 . S
C4705 C4703 1.433 . S
C4705 N4708 1.384 . S
C4706 H4697 0.929 . S
C4706 C4698 1.378 . S
C4706 C4701 1.350 . S
C4707 H4694 0.929 . S
C4707 C4699 1.433 . S
C4707 N4709 1.384 . S
N4708 C4704 1.427 . S
N4708 C4705 1.384 . S
N4709 C4701 1.427 . S
N4709 C4707 1.384 . S
H4710 C4716 0.930 . S
H4711 C4720 0.930 . S
H4712 C4725 0.929 . S
H4713 C4723 0.929 . S
H4714 C4718 0.929 . S
H4715 C4724 0.929 . S
C4716 H4710 0.930 . S
C4716 C4717 1.367 . S
C4716 C4724 1.378 . S
C4717 C4716 1.367 . S
C4717 C4725 1.433 . S
C4718 H4714 0.929 . S
C4718 C4720 1.378 . S
C4718 C4722 1.350 . S
C4719 C4722 1.463 . S
C4719 C4724 1.350 . S
C4719 N4727 1.427 . S
C4720 H4711 0.930 . S
C4720 C4718 1.378 . S
C4720 C4721 1.367 . S
C4721 C4720 1.367 . S
C4721 C4723 1.433 . S
C4722 C4718 1.350 . S
C4722 C4719 1.463 . S
C4722 N4726 1.427 . S
C4723 H4713 0.929 . S
C4723 C4721 1.433 . S
C4723 N4726 1.384 . S
C4724 H4715 0.929 . S
C4724 C4716 1.378 . S
C4724 C4719 1.350 . S
C4725 H4712 0.929 . S
C4725 C4717 1.433 . S
C4725 N4727 1.384 . S
N4726 C4722 1.427 . S
N4726 C4723 1.384 . S
N4727 C4719 1.427 . S
N4727 C4725 1.384 . S
H4728 C4734 0.930 . S
H4729 C4738 0.930 . S
H4730 C4743 0.929 . S
H4731 C4741 0.929 . S
H4732 C4736 0.929 . S
H4733 C4742 0.929 . S
C4734 H4728 0.930 . S
C4734 C4735 1.367 . S
C4734 C4742 1.378 . S
C4735 C4734 1.367 . S
C4735 C4743 1.433 . S
C4736 H4732 0.929 . S
C4736 C4738 1.378 . S
C4736 C4740 1.350 . S
C4737 C4740 1.463 . S
C4737 C4742 1.350 . S
C4737 N4745 1.427 . S
C4738 H4729 0.930 . S
C4738 C4736 1.378 . S
C4738 C4739 1.367 . S
C4739 C4738 1.367 . S
C4739 C4741 1.433 . S
C4740 C4736 1.350 . S
C4740 C4737 1.463 . S
C4740 N4744 1.427 . S
C4741 H4731 0.929 . S
C4741 C4739 1.433 . S
C4741 N4744 1.384 . S
C4742 H4733 0.929 . S
C4742 C4734 1.378 . S
C4742 C4737 1.350 . S
C4743 H4730 0.929 . S
C4743 C4735 1.433 . S
C4743 N4745 1.384 . S
N4744 C4740 1.427 . S
N4744 C4741 1.384 . S
N4745 C4737 1.427 . S
N4745 C4743 1.384 . S
H4746 C4752 0.930 . S
H4747 C4756 0.930 . S
H4748 C4761 0.929 . S
H4749 C4759 0.929 . S
H4750 C4754 0.929 . S
H4751 C4760 0.929 . S
C4752 H4746 0.930 . S
C4752 C4753 1.367 . S
C4752 C4760 1.378 . S
C4753 C4752 1.367 . S
C4753 C4761 1.433 . S
C4754 H4750 0.929 . S
C4754 C4756 1.378 . S
C4754 C4758 1.350 . S
C4755 C4758 1.463 . S
C4755 C4760 1.350 . S
C4755 N4763 1.427 . S
C4756 H4747 0.930 . S
C4756 C4754 1.378 . S
C4756 C4757 1.367 . S
C4757 C4756 1.367 . S
C4757 C4759 1.433 . S
C4758 C4754 1.350 . S
C4758 C4755 1.463 . S
C4758 N4762 1.427 . S
C4759 H4749 0.929 . S
C4759 C4757 1.433 . S
C4759 N4762 1.384 . S
C4760 H4751 0.929 . S
C4760 C4752 1.378 . S
C4760 C4755 1.350 . S
C4761 H4748 0.929 . S
C4761 C4753 1.433 . S
C4761 N4763 1.384 . S
N4762 C4758 1.427 . S
N4762 C4759 1.384 . S
N4763 C4755 1.427 . S
N4763 C4761 1.384 . S
H4764 C4770 0.930 . S
H4765 C4774 0.930 . S
H4766 C4779 0.929 . S
H4767 C4777 0.929 . S
H4768 C4772 0.929 . S
H4769 C4778 0.929 . S
C4770 H4764 0.930 . S
C4770 C4771 1.367 . S
C4770 C4778 1.378 . S
C4771 C4770 1.367 . S
C4771 C4779 1.433 . S
C4772 H4768 0.929 . S
C4772 C4774 1.378 . S
C4772 C4776 1.350 . S
C4773 C4776 1.463 . S
C4773 C4778 1.350 . S
C4773 N4781 1.427 . S
C4774 H4765 0.930 . S
C4774 C4772 1.378 . S
C4774 C4775 1.367 . S
C4775 C4774 1.367 . S
C4775 C4777 1.433 . S
C4776 C4772 1.350 . S
C4776 C4773 1.463 . S
C4776 N4780 1.427 . S
C4777 H4767 0.929 . S
C4777 C4775 1.433 . S
C4777 N4780 1.384 . S
C4778 H4769 0.929 . S
C4778 C4770 1.378 . S
C4778 C4773 1.350 . S
C4779 H4766 0.929 . S
C4779 C4771 1.433 . S
C4779 N4781 1.384 . S
N4780 C4776 1.427 . S
N4780 C4777 1.384 . S
N4781 C4773 1.427 . S
N4781 C4779 1.384 . S
H4782 C4788 0.930 . S
H4783 C4792 0.930 . S
H4784 C4797 0.929 . S
H4785 C4795 0.929 . S
H4786 C4790 0.929 . S
H4787 C4796 0.929 . S
C4788 H4782 0.930 . S
C4788 C4789 1.367 . S
C4788 C4796 1.378 . S
C4789 C4788 1.367 . S
C4789 C4797 1.433 . S
C4790 H4786 0.929 . S
C4790 C4792 1.378 . S
C4790 C4794 1.350 . S
C4791 C4794 1.463 . S
C4791 C4796 1.350 . S
C4791 N4799 1.427 . S
C4792 H4783 0.930 . S
C4792 C4790 1.378 . S
C4792 C4793 1.367 . S
C4793 C4792 1.367 . S
C4793 C4795 1.433 . S
C4794 C4790 1.350 . S
C4794 C4791 1.463 . S
C4794 N4798 1.427 . S
C4795 H4785 0.929 . S
C4795 C4793 1.433 . S
C4795 N4798 1.384 . S
C4796 H4787 0.929 . S
C4796 C4788 1.378 . S
C4796 C4791 1.350 . S
C4797 H4784 0.929 . S
C4797 C4789 1.433 . S
C4797 N4799 1.384 . S
N4798 C4794 1.427 . S
N4798 C4795 1.384 . S
N4799 C4791 1.427 . S
N4799 C4797 1.384 . S
C1351 C558 1.323 . S
C1355 C12 1.321 . S
C1369 C516 1.566 . S
C1373 C26 1.563 . S
C1387 C530 1.321 . S
C1391 C40 1.323 . S
C1405 C544 1.563 . S
C1409 C54 1.566 . S
C1423 C474 1.323 . S
C1427 C68 1.321 . S
C1441 C488 1.565 . S
C1445 C82 1.563 . S
C1459 C96 1.322 . S
C1463 C502 1.323 . S
C1477 C460 1.565 . S
C1481 C110 1.564 . S
C1495 C123 1.317 . S
C1499 C445 1.323 . S
C1513 C138 1.322 . S
C1517 C404 1.321 . S
C1531 C151 1.322 . S
C1535 C417 1.313 . S
C1549 C166 1.321 . S
C1553 C432 1.323 . S
C1567 C361 1.323 . S
C1571 C179 1.318 . S
C1585 C376 1.323 . S
C1589 C194 1.321 . S
C1603 C389 1.321 . S
C1607 C207 1.313 . S
C1621 C348 1.322 . S
C1625 C222 1.321 . S
C1639 C236 1.564 . S
C1643 C628 1.564 . S
C1657 C250 1.563 . S
C1661 C670 1.566 . S
C1675 C641 1.313 . S
C1679 C263 1.320 . S
C1693 C656 1.566 . S
C1697 C278 1.563 . S
C1711 C571 1.320 . S
C1715 C291 1.322 . S
C1729 C600 1.566 . S
C1733 C306 1.563 . S
C1747 C319 1.316 . S
C1751 C613 1.323 . S
C1765 C585 1.318 . S
C1769 C333 1.323 . S
C1783 C992 1.564 . S
C1787 C684 1.564 . S
C1801 C698 1.563 . S
C1805 C1006 1.566 . S
C1819 C712 1.563 . S
C1823 C978 1.566 . S
C1837 C726 1.563 . S
C1841 C964 1.565 . S
C1855 C739 1.320 . S
C1859 C949 1.313 . S
C1873 C753 1.323 . S
C1877 C935 1.319 . S
C1891 C907 1.320 . S
C1895 C767 1.313 . S
C1909 C921 1.321 . S
C1913 C781 1.313 . S
C1927 C796 1.566 . S
C1931 C1076 1.563 . S
C1945 C810 1.565 . S
C1949 C1118 1.565 . S
C1963 C1089 1.314 . S
C1967 C823 1.323 . S
C1981 C838 1.566 . S
C1985 C1104 1.563 . S
C1999 C851 1.322 . S
C2003 C1019 1.320 . S
C2017 C866 1.566 . S
C2021 C1048 1.563 . S
C2035 C1061 1.319 . S
C2039 C879 1.313 . S
C2053 C1033 1.318 . S
C2057 C893 1.323 . S
C2071 C1132 1.321 . S
C2075 C1342 1.323 . S
C2089 C1328 1.322 . S
C2093 C1146 1.323 . S
C2107 C1300 1.321 . S
C2111 C1160 1.322 . S
C2125 C1314 1.322 . S
C2129 C1174 1.321 . S
C2143 C1272 1.321 . S
C2147 C1188 1.323 . S
C2161 C1202 1.322 . S
C2165 C1286 1.321 . S
C2179 C1258 1.321 . S
C2183 C1216 1.322 . S
C2197 C1244 1.323 . S
C2201 C1230 1.322 . S
C2215 C5 0.620 . S
C2219 C439 0.675 . S
C2233 C19 0.762 . S
C2237 C396 0.756 . S
C2251 C33 0.648 . S
C2255 C411 0.646 . S
C2269 C47 0.742 . S
C2273 C424 0.765 . S
C2287 C61 0.631 . S
C2291 C355 0.660 . S
C2305 C75 0.777 . S
C2309 C368 0.758 . S
C2323 C383 0.694 . S
C2327 C89 0.611 . S
C2341 C103 0.767 . S
C2345 C340 0.756 . S
C2359 C116 0.793 . S
C2363 C620 0.792 . S
C2377 C579 0.692 . S
C2381 C131 0.614 . S
C2395 C144 0.792 . S
C2399 C592 0.792 . S
C2413 C159 0.628 . S
C2417 C607 0.664 . S
C2431 C662 0.798 . S
C2435 C172 0.792 . S
C2449 C635 0.665 . S
C2453 C187 0.627 . S
C2467 C648 0.798 . S
C2471 C200 0.792 . S
C2485 C215 0.636 . S
C2489 C565 0.666 . S
C2503 C229 0.749 . S
C2507 C550 0.766 . S
C2521 C243 0.764 . S
C2525 C466 0.756 . S
C2539 C256 0.800 . S
C2543 C480 0.797 . S
C2557 C271 0.776 . S
C2561 C494 0.757 . S
C2575 C284 0.799 . S
C2579 C452 0.793 . S
C2593 C299 0.774 . S
C2597 C522 0.757 . S
C2611 C536 0.798 . S
C2615 C312 0.800 . S
C2629 C326 0.795 . S
C2633 C508 0.792 . S
C2647 C467 0.635 . S
C2651 C943 0.655 . S
C2665 C214 0.766 . S
C2669 C677 0.747 . S
C2683 C495 0.633 . S
C2687 C929 0.657 . S
C2701 C691 0.760 . S
C2705 C186 0.756 . S
C2719 C551 0.643 . S
C2723 C901 0.656 . S
C2737 C705 0.765 . S
C2741 C158 0.756 . S
C2755 C915 0.669 . S
C2759 C523 0.624 . S
C2773 C719 0.744 . S
C2777 C130 0.766 . S
C2791 C1068 0.797 . S
C2795 C732 0.791 . S
C2809 C341 0.611 . S
C2813 C1027 0.690 . S
C2827 C1040 0.793 . S
C2831 C746 0.799 . S
C2845 C1055 0.656 . S
C2849 C369 0.643 . S
C2863 C1110 0.793 . S
C2867 C760 0.791 . S
C2881 C425 0.645 . S
C2885 C1083 0.653 . S
C2899 C774 0.791 . S
C2903 C1096 0.793 . S
C2917 C397 0.616 . S
C2921 C1013 0.680 . S
C2935 C789 0.771 . S
C2939 C60 0.756 . S
C2953 C803 0.776 . S
C2957 C4 0.757 . S
C2971 C970 0.797 . S
C2975 C816 0.791 . S
C2989 C831 0.757 . S
C2993 C32 0.756 . S
C3007 C844 0.800 . S
C3011 C956 0.798 . S
C3025 C88 0.763 . S
C3029 C859 0.739 . S
C3043 C872 0.792 . S
C3047 C998 0.793 . S
C3061 C984 0.796 . S
C3065 C886 0.800 . S
C3079 C201 0.693 . S
C3083 C1125 0.610 . S
C3097 C1264 0.761 . S
C3101 C481 0.776 . S
C3115 C1139 0.620 . S
C3119 C173 0.686 . S
C3133 C453 0.761 . S
C3137 C1278 0.756 . S
C3151 C145 0.694 . S
C3155 C1153 0.611 . S
C3169 C1250 0.762 . S
C3173 C509 0.739 . S
C3187 C117 0.694 . S
C3191 C1167 0.610 . S
C3205 C1236 0.762 . S
C3209 C537 0.774 . S
C3223 C858 0.794 . S
C3227 C382 0.790 . S
C3241 C1181 0.621 . S
C3245 C873 0.674 . S
C3259 C788 0.796 . S
C3263 C354 0.790 . S
C3277 C1195 0.645 . S
C3281 C887 0.653 . S
C3295 C830 0.796 . S
C3299 C410 0.800 . S
C3313 C1209 0.641 . S
C3317 C845 0.659 . S
C3331 C438 0.799 . S
C3335 C802 0.799 . S
C3349 C817 0.643 . S
C3353 C1223 0.647 . S
C3367 C1334 0.758 . S
C3371 C1041 0.777 . S
C3385 C1292 0.764 . S
C3389 C1097 0.739 . S
C3403 C1012 0.792 . S
C3407 C18 0.793 . S
C3421 C1306 0.758 . S
C3425 C1111 0.777 . S
C3439 C46 0.799 . S
C3443 C1082 0.795 . S
C3457 C1069 0.762 . S
C3461 C1320 0.756 . S
C3475 C1026 0.792 . S
C3479 C102 0.793 . S
C3493 C1054 0.793 . S
C3497 C74 0.792 . S
C3511 C1293 0.646 . S
C3515 C775 0.644 . S
C3529 C1222 0.757 . S
C3533 C971 0.755 . S
C3547 C1307 0.649 . S
C3551 C761 0.644 . S
C3565 C957 0.776 . S
C3569 C1208 0.758 . S
C3583 C1335 0.612 . S
C3587 C747 0.686 . S
C3601 C985 0.743 . S
C3605 C1194 0.766 . S
C3619 C1321 0.611 . S
C3623 C733 0.694 . S
C3637 C999 0.765 . S
C3641 C1180 0.756 . S
C3655 C914 0.800 . S
C3659 C298 0.795 . S
C3673 C313 0.662 . S
C3677 C1237 0.640 . S
C3691 C900 0.799 . S
C3695 C228 0.799 . S
C3709 C1251 0.621 . S
C3713 C327 0.673 . S
C3727 C928 0.800 . S
C3731 C270 0.795 . S
C3745 C285 0.643 . S
C3749 C1279 0.648 . S
C3763 C242 0.795 . S
C3767 C942 0.790 . S
C3781 C257 0.694 . S
C3785 C1265 0.610 . S
C3799 C1152 0.764 . S
C3803 C593 0.768 . S
C3817 C649 0.762 . S
C3821 C1124 0.765 . S
C3835 C676 0.797 . S
C3839 C564 0.800 . S
C3853 C663 0.773 . S
C3857 C1138 0.756 . S
C3871 C690 0.794 . S
C3875 C634 0.799 . S
C3889 C1166 0.764 . S
C3893 C621 0.769 . S
C3907 C718 0.799 . S
C3911 C578 0.796 . S
C3925 C704 0.794 . S
C3929 C606 0.799 . S
C3943 C403 0.945 . S
C3947 C11 0.948 . S
C3961 C25 1.130 . S
C3965 C418 1.140 . S
C3979 C431 0.945 . S
C3983 C39 0.928 . S
C3997 C53 1.127 . S
C4001 C446 1.145 . S
C4015 C347 0.945 . S
C4019 C67 0.928 . S
C4033 C362 1.146 . S
C4037 C81 1.118 . S
C4051 C95 0.933 . S
C4055 C375 0.931 . S
C4069 C109 1.126 . S
C4073 C390 1.145 . S
C4087 C543 1.119 . S
C4091 C124 1.134 . S
C4105 C137 0.948 . S
C4109 C557 0.945 . S
C4123 C152 1.135 . S
C4127 C515 1.127 . S
C4141 C529 0.928 . S
C4145 C165 0.942 . S
C4159 C180 1.134 . S
C4163 C487 1.125 . S
C4177 C501 0.935 . S
C4181 C193 0.930 . S
C4195 C459 1.117 . S
C4199 C208 1.134 . S
C4213 C473 0.941 . S
C4217 C221 0.950 . S
C4231 C235 1.115 . S
C4235 C642 1.135 . S
C4249 C614 1.135 . S
C4253 C249 1.127 . S
C4267 C627 1.130 . S
C4271 C264 1.138 . S
C4285 C586 1.135 . S
C4289 C277 1.126 . S
C4303 C292 1.134 . S
C4307 C599 1.124 . S
C4321 C305 1.115 . S
C4325 C572 1.135 . S
C4339 C669 1.113 . S
C4343 C320 1.138 . S
C4357 C334 1.140 . S
C4361 C655 1.112 . S
C4375 C683 1.124 . S
C4379 C936 1.146 . S
C4393 C950 1.135 . S
C4397 C697 1.127 . S
C4411 C908 1.135 . S
C4415 C711 1.117 . S
C4429 C922 1.141 . S
C4433 C725 1.112 . S
C4447 C740 1.138 . S
C4451 C1005 1.130 . S
C4465 C991 1.129 . S
C4469 C754 1.143 . S
C4483 C768 1.143 . S
C4487 C977 1.113 . S
C4501 C782 1.136 . S
C4505 C963 1.128 . S
C4519 C1090 1.146 . S
C4523 C795 1.117 . S
C4537 C809 1.126 . S
C4541 C1062 1.145 . S
C4555 C1075 1.128 . S
C4559 C824 1.144 . S
C4573 C1034 1.136 . S
C4577 C837 1.115 . S
C4591 C1047 1.120 . S
C4595 C852 1.134 . S
C4609 C1020 1.142 . S
C4613 C865 1.112 . S
C4627 C1117 1.124 . S
C4631 C880 1.146 . S
C4645 C1103 1.124 . S
C4649 C894 1.146 . S
C4663 C1131 0.942 . S
C4667 C1271 0.928 . S
C4681 C1285 0.937 . S
C4685 C1145 0.928 . S
C4699 C1159 0.928 . S
C4703 C1243 0.940 . S
C4717 C1257 0.939 . S
C4721 C1173 0.951 . S
C4735 C1187 0.950 . S
C4739 C1341 0.933 . S
C4753 C1201 0.928 . S
C4757 C1327 0.946 . S
C4771 C1313 0.928 . S
C4775 C1215 0.938 . S
C4789 C1229 0.932 . S
C4793 C1299 0.950 . S
