# Generated by pormake.
# Topology why, (6)-cn, num edge types: 1
# Building blocks:
#     Node 0, Type 0, BuildingBlock: BETFEN_clean_sbu_0, # of connection points: 6
#     Node 1, Type 0, BuildingBlock: BETFEN_clean_sbu_0, # of connection points: 6
#     Node 2, Type 0, BuildingBlock: BETFEN_clean_sbu_0, # of connection points: 6
#     Node 3, Type 0, BuildingBlock: BETFEN_clean_sbu_0, # of connection points: 6
#     Node 4, Type 0, BuildingBlock: BETFEN_clean_sbu_0, # of connection points: 6
#     Node 5, Type 0, BuildingBlock: BETFEN_clean_sbu_0, # of connection points: 6
#     Node 6, Type 0, BuildingBlock: BETFEN_clean_sbu_0, # of connection points: 6
#     Node 7, Type 0, BuildingBlock: BETFEN_clean_sbu_0, # of connection points: 6
#     Node 8, Type 0, BuildingBlock: BETFEN_clean_sbu_0, # of connection points: 6
#     Node 9, Type 0, BuildingBlock: BETFEN_clean_sbu_0, # of connection points: 6
#     Node 10, Type 0, BuildingBlock: BETFEN_clean_sbu_0, # of connection points: 6
#     Node 11, Type 0, BuildingBlock: BETFEN_clean_sbu_0, # of connection points: 6
#     Node 12, Type 0, BuildingBlock: BETFEN_clean_sbu_0, # of connection points: 6
#     Node 13, Type 0, BuildingBlock: BETFEN_clean_sbu_0, # of connection points: 6
#     Node 14, Type 0, BuildingBlock: BETFEN_clean_sbu_0, # of connection points: 6
#     Node 15, Type 0, BuildingBlock: BETFEN_clean_sbu_0, # of connection points: 6
#     Edge 16, Type (0, 0), BuildingBlock: TEMPAE_clean_linker_10, # of connection points: 2
#     Edge 17, Type (0, 0), BuildingBlock: TEMPAE_clean_linker_10, # of connection points: 2
#     Edge 18, Type (0, 0), BuildingBlock: TEMPAE_clean_linker_10, # of connection points: 2
#     Edge 19, Type (0, 0), BuildingBlock: TEMPAE_clean_linker_10, # of connection points: 2
#     Edge 20, Type (0, 0), BuildingBlock: TEMPAE_clean_linker_10, # of connection points: 2
#     Edge 21, Type (0, 0), BuildingBlock: TEMPAE_clean_linker_10, # of connection points: 2
#     Edge 22, Type (0, 0), BuildingBlock: TEMPAE_clean_linker_10, # of connection points: 2
#     Edge 23, Type (0, 0), BuildingBlock: TEMPAE_clean_linker_10, # of connection points: 2
#     Edge 24, Type (0, 0), BuildingBlock: TEMPAE_clean_linker_10, # of connection points: 2
#     Edge 25, Type (0, 0), BuildingBlock: TEMPAE_clean_linker_10, # of connection points: 2
#     Edge 26, Type (0, 0), BuildingBlock: TEMPAE_clean_linker_10, # of connection points: 2
#     Edge 27, Type (0, 0), BuildingBlock: TEMPAE_clean_linker_10, # of connection points: 2
#     Edge 28, Type (0, 0), BuildingBlock: TEMPAE_clean_linker_10, # of connection points: 2
#     Edge 29, Type (0, 0), BuildingBlock: TEMPAE_clean_linker_10, # of connection points: 2
#     Edge 30, Type (0, 0), BuildingBlock: TEMPAE_clean_linker_10, # of connection points: 2
#     Edge 31, Type (0, 0), BuildingBlock: TEMPAE_clean_linker_10, # of connection points: 2
#     Edge 32, Type (0, 0), BuildingBlock: TEMPAE_clean_linker_10, # of connection points: 2
#     Edge 33, Type (0, 0), BuildingBlock: TEMPAE_clean_linker_10, # of connection points: 2
#     Edge 34, Type (0, 0), BuildingBlock: TEMPAE_clean_linker_10, # of connection points: 2
#     Edge 35, Type (0, 0), BuildingBlock: TEMPAE_clean_linker_10, # of connection points: 2
#     Edge 36, Type (0, 0), BuildingBlock: TEMPAE_clean_linker_10, # of connection points: 2
#     Edge 37, Type (0, 0), BuildingBlock: TEMPAE_clean_linker_10, # of connection points: 2
#     Edge 38, Type (0, 0), BuildingBlock: TEMPAE_clean_linker_10, # of connection points: 2
#     Edge 39, Type (0, 0), BuildingBlock: TEMPAE_clean_linker_10, # of connection points: 2
#     Edge 40, Type (0, 0), BuildingBlock: TEMPAE_clean_linker_10, # of connection points: 2
#     Edge 41, Type (0, 0), BuildingBlock: TEMPAE_clean_linker_10, # of connection points: 2
#     Edge 42, Type (0, 0), BuildingBlock: TEMPAE_clean_linker_10, # of connection points: 2
#     Edge 43, Type (0, 0), BuildingBlock: TEMPAE_clean_linker_10, # of connection points: 2
#     Edge 44, Type (0, 0), BuildingBlock: TEMPAE_clean_linker_10, # of connection points: 2
#     Edge 45, Type (0, 0), BuildingBlock: TEMPAE_clean_linker_10, # of connection points: 2
#     Edge 46, Type (0, 0), BuildingBlock: TEMPAE_clean_linker_10, # of connection points: 2
#     Edge 47, Type (0, 0), BuildingBlock: TEMPAE_clean_linker_10, # of connection points: 2
#     Edge 48, Type (0, 0), BuildingBlock: TEMPAE_clean_linker_10, # of connection points: 2
#     Edge 49, Type (0, 0), BuildingBlock: TEMPAE_clean_linker_10, # of connection points: 2
#     Edge 50, Type (0, 0), BuildingBlock: TEMPAE_clean_linker_10, # of connection points: 2
#     Edge 51, Type (0, 0), BuildingBlock: TEMPAE_clean_linker_10, # of connection points: 2
#     Edge 52, Type (0, 0), BuildingBlock: TEMPAE_clean_linker_10, # of connection points: 2
#     Edge 53, Type (0, 0), BuildingBlock: TEMPAE_clean_linker_10, # of connection points: 2
#     Edge 54, Type (0, 0), BuildingBlock: TEMPAE_clean_linker_10, # of connection points: 2
#     Edge 55, Type (0, 0), BuildingBlock: TEMPAE_clean_linker_10, # of connection points: 2
#     Edge 56, Type (0, 0), BuildingBlock: TEMPAE_clean_linker_10, # of connection points: 2
#     Edge 57, Type (0, 0), BuildingBlock: TEMPAE_clean_linker_10, # of connection points: 2
#     Edge 58, Type (0, 0), BuildingBlock: TEMPAE_clean_linker_10, # of connection points: 2
#     Edge 59, Type (0, 0), BuildingBlock: TEMPAE_clean_linker_10, # of connection points: 2
#     Edge 60, Type (0, 0), BuildingBlock: TEMPAE_clean_linker_10, # of connection points: 2
#     Edge 61, Type (0, 0), BuildingBlock: TEMPAE_clean_linker_10, # of connection points: 2
#     Edge 62, Type (0, 0), BuildingBlock: TEMPAE_clean_linker_10, # of connection points: 2
#     Edge 63, Type (0, 0), BuildingBlock: TEMPAE_clean_linker_10, # of connection points: 2
# Relax obj value: 0.421
# Max RMSD: 0.229
# Mean RMSD: 0.229
data_MOF--net-why--node1-BETFEN_clean_sbu_0--edge1-TEMPAE_clean_linker_10
_symmetry_space_group_name_H-M    P1
_symmetry_Int_Tables_number       1
_symmetry_cell_setting            triclinic
loop_
_symmetry_equiv_pos_as_xyz
'x, y, z'
_cell_length_a     53.323325
_cell_length_b     53.271959
_cell_length_c     38.879521
_cell_angle_alpha  90.004954
_cell_angle_beta   90.00003
_cell_angle_gamma 90.191438
loop_
_atom_site_label
_atom_site_type_symbol
_atom_site_fract_x
_atom_site_fract_y
_atom_site_fract_z
_atom_type_partial_charge
Pr0 Pr 0.44892 0.1901 0.05494 0.0
Pr1 Pr 0.42717 0.21634 0.09583 0.0
C2 C 0.48005 0.16698 0.01044 0.0
C3 C 0.49326 0.17211 0.9779 0.0
C4 C 0.48814 0.15712 0.94908 0.0
C5 C 0.50099 0.16102 0.91827 0.0
C6 C 0.51943 0.17985 0.91576 0.0
C7 C 0.52428 0.19511 0.94455 0.0
C8 C 0.51127 0.19133 0.9753 0.0
C9 C 0.43933 0.15536 0.11341 0.0
C10 C 0.48447 0.2425 0.08372 0.0
C11 C 0.39603 0.22738 0.14828 0.0
C12 C 0.37032 0.23631 0.15331 0.0
C13 C 0.36506 0.25156 0.18163 0.0
C14 C 0.34067 0.25981 0.18749 0.0
C15 C 0.32112 0.25297 0.16501 0.0
C16 C 0.32642 0.23762 0.13661 0.0
C17 C 0.35089 0.22938 0.13074 0.0
C18 C 0.43249 0.24744 0.03898 0.0
C19 C 0.38717 0.19702 0.03024 0.0
O20 O 0.45569 0.16498 0.00885 0.0
O21 O 0.48779 0.17881 0.0379 0.0
O22 O 0.44771 0.17835 0.11517 0.0
O23 O 0.4338 0.15188 0.08129 0.0
O24 O 0.46581 0.24155 0.10674 0.0
O25 O 0.48195 0.22464 0.05942 0.0
O26 O 0.3984 0.20492 0.13534 0.0
O27 O 0.41221 0.24342 0.13597 0.0
O28 O 0.42698 0.2244 0.03717 0.0
O29 O 0.43456 0.25533 0.07045 0.0
O30 O 0.40951 0.18833 0.01989 0.0
O31 O 0.38835 0.2082 0.06107 0.0
H32 H 0.47427 0.14223 0.95047 0.0
H33 H 0.49651 0.14921 0.89642 0.0
H34 H 0.53858 0.20958 0.94363 0.0
H35 H 0.5156 0.20325 0.9971 0.0
H36 H 0.37979 0.25693 0.1994 0.0
H37 H 0.33704 0.27128 0.20994 0.0
H38 H 0.31172 0.23218 0.11883 0.0
H39 H 0.35456 0.21751 0.10875 0.0
Pr40 Pr 0.68638 0.70954 0.30583 0.0
Pr41 Pr 0.6588 0.68717 0.34492 0.0
C42 C 0.71104 0.74123 0.26334 0.0
C43 C 0.70749 0.75652 0.23212 0.0
C44 C 0.6906 0.77673 0.23136 0.0
C45 C 0.68857 0.79166 0.20193 0.0
C46 C 0.70324 0.78654 0.17274 0.0
C47 C 0.71985 0.76614 0.17344 0.0
C48 C 0.72203 0.75136 0.20291 0.0
C49 C 0.72104 0.6972 0.36318 0.0
C50 C 0.6333 0.74506 0.33318 0.0
C51 C 0.64302 0.65817 0.39747 0.0
C52 C 0.65254 0.6406 0.42355 0.0
C53 C 0.64328 0.61602 0.4234 0.0
C54 C 0.64941 0.59953 0.44976 0.0
C55 C 0.6649 0.60727 0.47714 0.0
C56 C 0.67537 0.63154 0.4763 0.0
C57 C 0.66927 0.64811 0.44961 0.0
C58 C 0.62877 0.69542 0.28759 0.0
C59 C 0.67971 0.64776 0.28082 0.0
O60 O 0.71107 0.71691 0.25946 0.0
O61 O 0.69983 0.74845 0.29151 0.0
O62 O 0.69801 0.70504 0.36587 0.0
O63 O 0.7246 0.6936 0.3306 0.0
O64 O 0.63176 0.7247 0.35316 0.0
O65 O 0.65309 0.74388 0.31157 0.0
O66 O 0.64828 0.68198 0.4009 0.0
O67 O 0.64368 0.65054 0.36565 0.0
O68 O 0.65154 0.68906 0.28595 0.0
O69 O 0.6208 0.6974 0.31901 0.0
O70 O 0.68832 0.67024 0.27061 0.0
O71 O 0.66878 0.64846 0.31175 0.0
H72 H 0.67911 0.78116 0.25349 0.0
H73 H 0.67545 0.80714 0.20193 0.0
H74 H 0.73157 0.76195 0.15143 0.0
H75 H 0.73532 0.73602 0.203 0.0
H76 H 0.63032 0.60984 0.40362 0.0
H77 H 0.64043 0.58127 0.44979 0.0
H78 H 0.68736 0.63803 0.49697 0.0
H79 H 0.6769 0.66697 0.45011 0.0
Pr80 Pr 0.1684 0.94593 0.55664 0.0
Pr81 Pr 0.1905 0.91856 0.59756 0.0
C82 C 0.13864 0.97081 0.51234 0.0
C83 C 0.12185 0.96576 0.48316 0.0
C84 C 0.12502 0.97976 0.45295 0.0
C85 C 0.11019 0.97488 0.4242 0.0
C86 C 0.09176 0.956 0.4252 0.0
C87 C 0.08835 0.94212 0.4556 0.0
C88 C 0.10343 0.94684 0.48436 0.0
C89 C 0.18118 0.98074 0.61409 0.0
C90 C 0.13293 0.89221 0.58247 0.0
C91 C 0.20928 0.89597 0.65387 0.0
C92 C 0.22275 0.87246 0.65941 0.0
C93 C 0.22542 0.85519 0.63241 0.0
C94 C 0.23806 0.83263 0.63773 0.0
C95 C 0.24823 0.82708 0.67015 0.0
C96 C 0.24517 0.84436 0.69724 0.0
C97 C 0.23254 0.86692 0.69186 0.0
C98 C 0.19304 0.89262 0.53576 0.0
C99 C 0.23039 0.93893 0.53389 0.0
O100 O 0.16243 0.96674 0.50676 0.0
O101 O 0.13127 0.9639 0.54301 0.0
O102 O 0.17256 0.95798 0.61668 0.0
O103 O 0.18571 0.98381 0.58164 0.0
O104 O 0.1541 0.88937 0.60034 0.0
O105 O 0.13305 0.91359 0.56365 0.0
O106 O 0.22137 0.91344 0.63705 0.0
O107 O 0.1861 0.8934 0.64383 0.0
O108 O 0.17384 0.90405 0.54623 0.0
O109 O 0.21149 0.89391 0.55736 0.0
O110 O 0.20787 0.9459 0.52224 0.0
O111 O 0.22974 0.92986 0.56606 0.0
H112 H 0.13915 0.9944 0.45153 0.0
H113 H 0.11296 0.98605 0.40122 0.0
H114 H 0.07432 0.9274 0.45691 0.0
H115 H 0.1008 0.93562 0.50732 0.0
H116 H 0.21775 0.85918 0.60721 0.0
H117 H 0.24032 0.81979 0.61636 0.0
H118 H 0.25252 0.8404 0.72264 0.0
H119 H 0.2304 0.87999 0.713 0.0
Pr120 Pr 0.93128 0.42579 0.80529 0.0
Pr121 Pr 0.95547 0.44978 0.84485 0.0
C122 C 0.90573 0.40357 0.75359 0.0
C123 C 0.91192 0.38981 0.72196 0.0
C124 C 0.89625 0.39187 0.69318 0.0
C125 C 0.90122 0.37794 0.66351 0.0
C126 C 0.92184 0.36159 0.66234 0.0
C127 C 0.93787 0.36003 0.69092 0.0
C128 C 0.93305 0.37417 0.72043 0.0
C129 C 0.89702 0.43182 0.86561 0.0
C130 C 0.98317 0.39103 0.83245 0.0
C131 C 0.97014 0.4611 0.90915 0.0
C132 C 0.99067 0.4564 0.93354 0.0
C133 C 1.01554 0.46279 0.92561 0.0
C134 C 1.03408 0.46127 0.95082 0.0
C135 C 1.02813 0.45323 0.98437 0.0
C136 C 1.00361 0.44492 0.99133 0.0
C137 C 0.98502 0.44662 0.96615 0.0
C138 C 0.98595 0.45026 0.78762 0.0
C139 C 0.93798 0.48921 0.78234 0.0
O140 O 0.91097 0.4275 0.75395 0.0
O141 O 0.91117 0.39239 0.78247 0.0
O142 O 0.9103 0.4489 0.8503 0.0
O143 O 0.9046 0.41083 0.85212 0.0
O144 O 0.98425 0.41236 0.85076 0.0
O145 O 0.96325 0.39092 0.81125 0.0
O146 O 0.97466 0.47565 0.88271 0.0
O147 O 0.95565 0.44197 0.90194 0.0
O148 O 0.9736 0.43109 0.79723 0.0
O149 O 0.9835 0.46943 0.80812 0.0
O150 O 0.93144 0.46616 0.77149 0.0
O151 O 0.94627 0.48945 0.81475 0.0
H152 H 0.87994 0.40393 0.69388 0.0
H153 H 0.88849 0.37935 0.64188 0.0
H154 H 0.95403 0.34776 0.69049 0.0
H155 H 0.94561 0.37256 0.74223 0.0
H156 H 1.02047 0.47007 0.90049 0.0
H157 H 1.05266 0.46818 0.9446 0.0
H158 H 0.99849 0.43839 0.01677 0.0
H159 H 0.96597 0.4413 0.97264 0.0
Pr160 Pr 0.69225 0.92149 0.89988 0.0
Pr161 Pr 0.66927 0.94719 0.94338 0.0
C162 C 0.71537 0.90724 0.84166 0.0
C163 C 0.7408 0.8992 0.83326 0.0
C164 C 0.75738 0.89193 0.85941 0.0
C165 C 0.78219 0.88599 0.85152 0.0
C166 C 0.79075 0.88741 0.81739 0.0
C167 C 0.77409 0.89511 0.7914 0.0
C168 C 0.74928 0.90094 0.79932 0.0
C169 C 0.69606 0.89437 0.9604 0.0
C170 C 0.73125 0.94139 0.96547 0.0
C171 C 0.63896 0.97058 0.9886 0.0
C172 C 0.62276 0.9644 0.01784 0.0
C173 C 0.60688 0.98285 0.03113 0.0
C174 C 0.59287 0.97811 0.06074 0.0
C175 C 0.59462 0.95483 0.07766 0.0
C176 C 0.61005 0.93607 0.06361 0.0
C177 C 0.62405 0.94084 0.03388 0.0
C178 C 0.68076 0.98273 0.88606 0.0
C179 C 0.63475 0.89412 0.91373 0.0
O180 O 0.71368 0.93059 0.8515 0.0
O181 O 0.70183 0.89188 0.86023 0.0
O182 O 0.67632 0.90519 0.95044 0.0
O183 O 0.71463 0.89718 0.93912 0.0
O184 O 0.70847 0.94625 0.97809 0.0
O185 O 0.73083 0.93441 0.93227 0.0
O186 O 0.66294 0.96735 0.99355 0.0
O187 O 0.63142 0.9633 0.9582 0.0
O188 O 0.67172 0.96014 0.88383 0.0
O189 O 0.68634 0.98538 0.91832 0.0
O190 O 0.65505 0.89327 0.89345 0.0
O191 O 0.6353 0.91384 0.93562 0.0
H192 H 0.75115 0.89096 0.8859 0.0
H193 H 0.79451 0.87985 0.87199 0.0
H194 H 0.78027 0.89668 0.76495 0.0
H195 H 0.73679 0.90706 0.77901 0.0
H196 H 0.60565 1.0011 0.01895 0.0
H197 H 0.58078 0.99276 0.07055 0.0
H198 H 0.61187 0.918 0.07613 0.0
H199 H 0.63631 0.92638 0.02387 0.0
Pr200 Pr 0.45827 0.44857 0.65077 0.0
Pr201 Pr 0.4317 0.42746 0.69021 0.0
C202 C 0.47583 0.47817 0.6001 0.0
C203 C 0.49906 0.4926 0.59678 0.0
C204 C 0.5134 0.49844 0.62603 0.0
C205 C 0.53618 0.51121 0.62265 0.0
C206 C 0.54495 0.51817 0.58994 0.0
C207 C 0.53052 0.51203 0.56075 0.0
C208 C 0.50773 0.4994 0.56418 0.0
C209 C 0.4891 0.44267 0.70812 0.0
C210 C 0.43916 0.48896 0.71532 0.0
C211 C 0.40683 0.39658 0.73361 0.0
C212 C 0.4113 0.38286 0.76599 0.0
C213 C 0.39648 0.38824 0.79486 0.0
C214 C 0.40001 0.37521 0.82563 0.0
C215 C 0.4183 0.35633 0.82809 0.0
C216 C 0.43328 0.35111 0.79918 0.0
C217 C 0.42987 0.36428 0.76846 0.0
C218 C 0.39748 0.43908 0.6319 0.0
C219 C 0.48464 0.39157 0.66329 0.0
O220 O 0.46016 0.48599 0.62347 0.0
O221 O 0.47852 0.45387 0.60013 0.0
O222 O 0.46623 0.44827 0.70976 0.0
O223 O 0.49697 0.44052 0.67677 0.0
O224 O 0.43096 0.46648 0.72607 0.0
O225 O 0.44953 0.48791 0.684 0.0
O226 O 0.40583 0.42097 0.73566 0.0
O227 O 0.41849 0.38878 0.70611 0.0
O228 O 0.41969 0.42919 0.63036 0.0
O229 O 0.39496 0.44606 0.66368 0.0
O230 O 0.48533 0.41124 0.64206 0.0
O231 O 0.46538 0.3933 0.68571 0.0
H232 H 0.50702 0.49301 0.65144 0.0
H233 H 0.54679 0.51579 0.64557 0.0
H234 H 0.53702 0.51667 0.53513 0.0
H235 H 0.49702 0.49467 0.54138 0.0
H236 H 0.38209 0.40252 0.79358 0.0
H237 H 0.38842 0.37999 0.84753 0.0
H238 H 0.44731 0.33647 0.80002 0.0
H239 H 0.44163 0.35972 0.74664 0.0
Pr240 Pr 0.92814 0.21676 0.39978 0.0
Pr241 Pr 0.9515 0.19155 0.4391 0.0
C242 C 0.91493 0.23175 0.3363 0.0
C243 C 0.90013 0.22309 0.3066 0.0
C244 C 0.87435 0.21825 0.30967 0.0
C245 C 0.85978 0.21444 0.28036 0.0
C246 C 0.87072 0.21526 0.2474 0.0
C247 C 0.89694 0.2175 0.24476 0.0
C248 C 0.91149 0.22159 0.27413 0.0
C249 C 0.92809 0.24595 0.4583 0.0
C250 C 0.88783 0.19843 0.46088 0.0
C251 C 0.97325 0.16562 0.4907 0.0
C252 C 0.9878 0.17158 0.52177 0.0
C253 C 0.98575 0.1561 0.55076 0.0
C254 C 1.00024 0.16095 0.57999 0.0
C255 C 1.01712 0.18128 0.58052 0.0
C256 C 1.01875 0.19707 0.55166 0.0
C257 C 1.00408 0.19236 0.52258 0.0
C258 C 0.94565 0.15804 0.37821 0.0
C259 C 0.98701 0.2437 0.41282 0.0
O260 O 0.93584 0.21987 0.34262 0.0
O261 O 0.90268 0.23812 0.36407 0.0
O262 O 0.94712 0.23389 0.44799 0.0
O263 O 0.90874 0.24362 0.43821 0.0
O264 O 0.91035 0.19001 0.47116 0.0
O265 O 0.88826 0.20878 0.42965 0.0
O266 O 0.94963 0.17189 0.49092 0.0
O267 O 0.98421 0.17028 0.46139 0.0
O268 O 0.92857 0.17152 0.39305 0.0
O269 O 0.96656 0.16505 0.39253 0.0
O270 O 0.96587 0.24512 0.39431 0.0
O271 O 0.98668 0.22362 0.43382 0.0
H272 H 0.86512 0.21889 0.33447 0.0
H273 H 0.83965 0.21304 0.28356 0.0
H274 H 0.906 0.2178 0.21983 0.0
H275 H 0.93144 0.22491 0.27126 0.0
H276 H 0.97322 0.14005 0.55061 0.0
H277 H 0.99877 0.14838 0.6018 0.0
H278 H 1.03142 0.21301 0.55157 0.0
H279 H 1.00572 0.20474 0.50059 0.0
Pr280 Pr 0.16249 0.68833 0.15032 0.0
Pr281 Pr 0.18821 0.71 0.19021 0.0
C282 C 0.15256 0.65696 0.09761 0.0
C283 C 0.14362 0.63131 0.09249 0.0
C284 C 0.13326 0.61747 0.11974 0.0
C285 C 0.12509 0.59282 0.11429 0.0
C286 C 0.12724 0.58186 0.08155 0.0
C287 C 0.13838 0.59564 0.05472 0.0
C288 C 0.14647 0.6202 0.06018 0.0
C289 C 0.13041 0.69307 0.20614 0.0
C290 C 0.18108 0.6486 0.21615 0.0
C291 C 0.21274 0.74208 0.23225 0.0
C292 C 0.20876 0.75682 0.26346 0.0
C293 C 0.22677 0.77467 0.27294 0.0
C294 C 0.22323 0.78934 0.30221 0.0
C295 C 0.20158 0.78637 0.32245 0.0
C296 C 0.18356 0.76832 0.3129 0.0
C297 C 0.1871 0.75366 0.28347 0.0
C298 C 0.22305 0.70001 0.13201 0.0
C299 C 0.13585 0.74518 0.16184 0.0
O300 O 0.17455 0.65898 0.11197 0.0
O301 O 0.13641 0.67325 0.10915 0.0
O302 O 0.1536 0.68856 0.20912 0.0
O303 O 0.12312 0.69463 0.17436 0.0
O304 O 0.18982 0.67105 0.22623 0.0
O305 O 0.17013 0.64953 0.18519 0.0
O306 O 0.21339 0.71775 0.23584 0.0
O307 O 0.20034 0.74923 0.20509 0.0
O308 O 0.20033 0.70886 0.13028 0.0
O309 O 0.22604 0.69383 0.16401 0.0
O310 O 0.13698 0.72654 0.13885 0.0
O311 O 0.15365 0.74279 0.18618 0.0
H312 H 0.13126 0.6258 0.14501 0.0
H313 H 0.11642 0.58266 0.13531 0.0
H314 H 0.14056 0.58751 0.02936 0.0
H315 H 0.15485 0.63057 0.0391 0.0
H316 H 0.24358 0.77727 0.25766 0.0
H317 H 0.23759 0.80284 0.30922 0.0
H318 H 0.16663 0.76578 0.3279 0.0
H319 H 0.17296 0.73999 0.27625 0.0
Pr320 Pr 0.95076 0.68978 0.55425 0.0
Pr321 Pr 0.92735 0.7147 0.59368 0.0
C322 C 0.97239 0.66366 0.50263 0.0
C323 C 0.98639 0.66878 0.47077 0.0
C324 C 1.00345 0.68886 0.4687 0.0
C325 C 1.01756 0.69265 0.43883 0.0
C326 C 1.01471 0.67657 0.41035 0.0
C327 C 0.99702 0.65693 0.41228 0.0
C328 C 0.98307 0.65305 0.44225 0.0
C329 C 0.94502 0.65619 0.61518 0.0
C330 C 0.98604 0.7421 0.58065 0.0
C331 C 0.91638 0.73111 0.65723 0.0
C332 C 0.92096 0.75314 0.67914 0.0
C333 C 0.91428 0.77732 0.66834 0.0
C334 C 0.91574 0.79744 0.69119 0.0
C335 C 0.92407 0.79379 0.7252 0.0
C336 C 0.93284 0.76995 0.73488 0.0
C337 C 0.93113 0.74976 0.71208 0.0
C338 C 0.927 0.74417 0.5354 0.0
C339 C 0.88702 0.69653 0.53257 0.0
O340 O 0.94867 0.66957 0.50282 0.0
O341 O 0.9837 0.66912 0.53144 0.0
O342 O 0.92792 0.66953 0.60023 0.0
O343 O 0.96592 0.66336 0.60098 0.0
O344 O 0.96486 0.74342 0.59909 0.0
O345 O 0.98582 0.72202 0.55961 0.0
O346 O 0.90122 0.73379 0.63103 0.0
O347 O 0.93582 0.71705 0.65056 0.0
O348 O 0.9461 0.73212 0.54554 0.0
O349 O 0.90778 0.74188 0.55578 0.0
O350 O 0.9096 0.68831 0.52218 0.0
O351 O 0.88742 0.70674 0.56389 0.0
H352 H 1.0062 0.70138 0.49035 0.0
H353 H 1.03116 0.70779 0.43844 0.0
H354 H 0.99398 0.6445 0.39063 0.0
H355 H 0.96983 0.63759 0.44329 0.0
H356 H 0.90678 0.78052 0.64283 0.0
H357 H 0.90851 0.81541 0.68285 0.0
H358 H 0.93967 0.76659 0.7607 0.0
H359 H 0.93678 0.73128 0.72069 0.0
Pr360 Pr 0.18587 0.2106 0.80541 0.0
Pr361 Pr 0.15981 0.18615 0.84509 0.0
C362 C 0.21198 0.233 0.75437 0.0
C363 C 0.20672 0.2478 0.7233 0.0
C364 C 0.22203 0.24498 0.69429 0.0
C365 C 0.21794 0.25961 0.665 0.0
C366 C 0.19855 0.27742 0.6644 0.0
C367 C 0.18293 0.27988 0.69331 0.0
C368 C 0.18688 0.26508 0.72247 0.0
C369 C 0.21874 0.20446 0.86664 0.0
C370 C 0.13379 0.24551 0.83305 0.0
C371 C 0.14456 0.1678 0.90608 0.0
C372 C 0.15095 0.14554 0.92657 0.0
C373 C 0.15382 0.12206 0.91069 0.0
C374 C 0.15691 0.10051 0.93052 0.0
C375 C 0.15756 0.10202 0.96664 0.0
C376 C 0.15687 0.12588 0.98224 0.0
C377 C 0.1534 0.14745 0.96234 0.0
C378 C 0.13245 0.18675 0.78492 0.0
C379 C 0.1799 0.1468 0.78331 0.0
O380 O 0.20559 0.20934 0.75362 0.0
O381 O 0.20708 0.24373 0.78376 0.0
O382 O 0.20507 0.18742 0.85179 0.0
O383 O 0.21229 0.22543 0.8521 0.0
O384 O 0.13294 0.22469 0.85248 0.0
O385 O 0.15325 0.24501 0.81097 0.0
O386 O 0.16186 0.18512 0.90346 0.0
O387 O 0.13278 0.1636 0.87723 0.0
O388 O 0.14363 0.2058 0.7971 0.0
O389 O 0.13488 0.16683 0.80394 0.0
O390 O 0.18821 0.16951 0.7733 0.0
O391 O 0.16902 0.14692 0.81421 0.0
H392 H 0.23738 0.2317 0.69446 0.0
H393 H 0.23037 0.25747 0.64316 0.0
H394 H 0.16768 0.29327 0.69335 0.0
H395 H 0.17463 0.26735 0.74447 0.0
H396 H 0.15252 0.12016 0.883 0.0
H397 H 0.15708 0.08255 0.91748 0.0
H398 H 0.15784 0.12779 0.00994 0.0
H399 H 0.15175 0.1655 0.97497 0.0
Pr400 Pr 0.66764 0.44567 0.05575 0.0
Pr401 Pr 0.69025 0.41896 0.09636 0.0
C402 C 0.63755 0.47048 0.0118 0.0
C403 C 0.62152 0.46477 0.98229 0.0
C404 C 0.60597 0.48349 0.96902 0.0
C405 C 0.59232 0.47916 0.93899 0.0
C406 C 0.59412 0.45604 0.92169 0.0
C407 C 0.6092 0.437 0.93574 0.0
C408 C 0.62283 0.44135 0.96587 0.0
C409 C 0.68049 0.48088 0.11286 0.0
C410 C 0.63241 0.39221 0.08242 0.0
C411 C 0.71007 0.39636 0.15187 0.0
C412 C 0.72455 0.37326 0.15622 0.0
C413 C 0.74063 0.36487 0.13008 0.0
C414 C 0.75306 0.34199 0.13339 0.0
C415 C 0.74945 0.32707 0.16279 0.0
C416 C 0.73299 0.33541 0.18865 0.0
C417 C 0.72066 0.35834 0.18537 0.0
C418 C 0.69273 0.39272 0.03487 0.0
C419 C 0.72933 0.43921 0.03169 0.0
O420 O 0.66153 0.4673 0.00677 0.0
O421 O 0.62994 0.4625 0.04184 0.0
O422 O 0.67198 0.4581 0.11569 0.0
O423 O 0.68494 0.48376 0.08034 0.0
O424 O 0.65384 0.38956 0.09984 0.0
O425 O 0.63224 0.41356 0.06356 0.0
O426 O 0.72116 0.4149 0.13589 0.0
O427 O 0.68694 0.39298 0.14207 0.0
O428 O 0.6734 0.4038 0.04554 0.0
O429 O 0.71138 0.39452 0.05604 0.0
O430 O 0.70642 0.44456 0.01984 0.0
O431 O 0.72913 0.43171 0.06465 0.0
H432 H 0.60478 0.50164 0.98149 0.0
H433 H 0.58047 0.49401 0.92916 0.0
H434 H 0.61106 0.41905 0.92291 0.0
H435 H 0.63486 0.4267 0.97588 0.0
H436 H 0.74357 0.37596 0.10707 0.0
H437 H 0.76586 0.33624 0.11328 0.0
H438 H 0.72962 0.32417 0.21141 0.0
H439 H 0.7079 0.36433 0.20543 0.0
Pr440 Pr 0.43077 0.92725 0.30616 0.0
Pr441 Pr 0.45827 0.9496 0.34761 0.0
C442 C 0.40788 0.89607 0.26139 0.0
C443 C 0.41421 0.88141 0.23049 0.0
C444 C 0.40099 0.88578 0.19991 0.0
C445 C 0.40626 0.87181 0.17045 0.0
C446 C 0.4247 0.85305 0.17117 0.0
C447 C 0.43809 0.84879 0.2017 0.0
C448 C 0.43299 0.86294 0.23111 0.0
C449 C 0.39596 0.93835 0.36373 0.0
C450 C 0.48347 0.8916 0.33447 0.0
C451 C 0.47329 0.97444 0.40433 0.0
C452 C 0.49251 0.97095 0.4308 0.0
C453 C 0.51638 0.96167 0.42253 0.0
C454 C 0.53467 0.9595 0.44806 0.0
C455 C 0.52918 0.96627 0.48217 0.0
C456 C 0.50481 0.97409 0.4906 0.0
C457 C 0.48663 0.97647 0.46506 0.0
C458 C 0.48824 0.94194 0.29034 0.0
C459 C 0.43771 0.98959 0.28345 0.0
O460 O 0.40773 0.92043 0.25805 0.0
O461 O 0.41741 0.88864 0.2906 0.0
O462 O 0.41899 0.93039 0.36602 0.0
O463 O 0.3923 0.94243 0.33126 0.0
O464 O 0.48435 0.91132 0.35578 0.0
O465 O 0.4644 0.89335 0.31178 0.0
O466 O 0.48087 0.98031 0.37346 0.0
O467 O 0.45526 0.9579 0.40445 0.0
O468 O 0.46559 0.94875 0.28906 0.0
O469 O 0.49637 0.93926 0.32169 0.0
O470 O 0.42926 0.96723 0.27248 0.0
O471 O 0.44823 0.98863 0.31476 0.0
H472 H 0.3864 0.89987 0.1989 0.0
H473 H 0.39547 0.87525 0.14732 0.0
H474 H 0.45251 0.83453 0.20279 0.0
H475 H 0.44364 0.85927 0.25429 0.0
H476 H 0.52107 0.95674 0.39628 0.0
H477 H 0.55336 0.95349 0.44098 0.0
H478 H 0.50022 0.97985 0.51657 0.0
H479 H 0.46816 0.98328 0.4719 0.0
Pr480 Pr 0.19157 0.42244 0.40162 0.0
Pr481 Pr 0.16746 0.44663 0.44156 0.0
C482 C 0.20335 0.40667 0.33799 0.0
C483 C 0.19821 0.38489 0.31618 0.0
C484 C 0.18858 0.36257 0.33013 0.0
C485 C 0.18615 0.34121 0.3095 0.0
C486 C 0.19339 0.34198 0.27472 0.0
C487 C 0.20136 0.36496 0.26049 0.0
C488 C 0.20375 0.38623 0.28111 0.0
C489 C 0.19203 0.39234 0.45924 0.0
C490 C 0.23091 0.44035 0.46386 0.0
C491 C 0.1451 0.47319 0.49222 0.0
C492 C 0.13095 0.46894 0.52407 0.0
C493 C 0.11523 0.48794 0.53626 0.0
C494 C 0.10016 0.48385 0.56507 0.0
C495 C 0.10057 0.46064 0.58226 0.0
C496 C 0.11675 0.44171 0.57033 0.0
C497 C 0.13175 0.44578 0.54128 0.0
C498 C 0.1735 0.48058 0.38091 0.0
C499 C 0.13267 0.39468 0.4143 0.0
O500 O 0.2177 0.40284 0.36474 0.0
O501 O 0.1842 0.42116 0.34444 0.0
O502 O 0.17281 0.40428 0.44931 0.0
O503 O 0.21132 0.39509 0.43908 0.0
O504 O 0.2078 0.44583 0.47537 0.0
O505 O 0.23115 0.43294 0.43108 0.0
O506 O 0.16891 0.46757 0.49234 0.0
O507 O 0.13381 0.46652 0.46393 0.0
O508 O 0.19056 0.46752 0.39632 0.0
O509 O 0.15255 0.47295 0.39448 0.0
O510 O 0.15388 0.39382 0.39577 0.0
O511 O 0.13268 0.41444 0.4358 0.0
H512 H 0.18391 0.36138 0.3572 0.0
H513 H 0.17987 0.32381 0.32111 0.0
H514 H 0.20754 0.36614 0.23399 0.0
H515 H 0.21098 0.40344 0.26997 0.0
H516 H 0.11434 0.50588 0.52317 0.0
H517 H 0.08816 0.49889 0.57394 0.0
H518 H 0.11732 0.42359 0.58294 0.0
H519 H 0.14362 0.43079 0.53193 0.0
Pr520 Pr 0.95864 0.95065 0.15149 0.0
Pr521 Pr 0.93291 0.92609 0.18982 0.0
C522 C 0.97963 0.96486 0.09176 0.0
C523 C 1.00552 0.96537 0.07888 0.0
C524 C 1.02531 0.97253 0.10059 0.0
C525 C 1.04943 0.97564 0.08743 0.0
C526 C 1.05433 0.97127 0.05238 0.0
C527 C 1.03483 0.96201 0.03142 0.0
C528 C 1.01056 0.95928 0.04454 0.0
C529 C 0.98653 0.94977 0.21142 0.0
C530 C 0.93955 0.98975 0.21348 0.0
C531 C 0.90664 0.90357 0.24063 0.0
C532 C 0.91229 0.88934 0.27211 0.0
C533 C 0.93258 0.87258 0.2733 0.0
C534 C 0.93684 0.8581 0.30267 0.0
C535 C 0.92112 0.86039 0.33149 0.0
C536 C 0.90136 0.87779 0.33064 0.0
C537 C 0.89693 0.89207 0.30111 0.0
C538 C 0.90011 0.93218 0.12824 0.0
C539 C 0.98559 0.89156 0.16349 0.0
O540 O 0.97452 0.9805 0.11664 0.0
O541 O 0.96957 0.94269 0.09613 0.0
O542 O 0.97489 0.93093 0.19967 0.0
O543 O 0.98485 0.96941 0.19179 0.0
O544 O 0.93199 0.96675 0.22351 0.0
O545 O 0.9494 0.98999 0.18198 0.0
O546 O 0.91212 0.92745 0.24086 0.0
O547 O 0.91221 0.89268 0.21159 0.0
O548 O 0.91358 0.94923 0.14332 0.0
O549 O 0.90669 0.91124 0.14273 0.0
O550 O 0.98735 0.91323 0.14609 0.0
O551 O 0.96506 0.89117 0.18366 0.0
H552 H 1.02196 0.9768 0.12744 0.0
H553 H 0.06379 0.98303 0.10436 0.0
H554 H 1.03805 0.95794 0.00449 0.0
H555 H 0.99559 0.95319 0.02761 0.0
H556 H 0.94491 0.8704 0.25136 0.0
H557 H 0.95236 0.84503 0.30283 0.0
H558 H 0.88887 0.87979 0.35244 0.0
H559 H 0.88126 0.90497 0.3007 0.0
Pr560 Pr 0.42903 0.71697 0.90046 0.0
Pr561 Pr 0.4525 0.69104 0.93931 0.0
C562 C 0.4155 0.733 0.83757 0.0
C563 C 0.40038 0.72409 0.80865 0.0
C564 C 0.4012 0.7373 0.77765 0.0
C565 C 0.38405 0.7318 0.75167 0.0
C566 C 0.36571 0.71302 0.75642 0.0
C567 C 0.36641 0.69835 0.7865 0.0
C568 C 0.38368 0.70387 0.81251 0.0
C569 C 0.42978 0.74521 0.95989 0.0
C570 C 0.38889 0.69855 0.96182 0.0
C571 C 0.47392 0.66397 0.99011 0.0
C572 C 0.48706 0.66888 0.02251 0.0
C573 C 0.50097 0.64967 0.03777 0.0
C574 C 0.51456 0.65426 0.06781 0.0
C575 C 0.51441 0.67819 0.08315 0.0
C576 C 0.50023 0.69741 0.0678 0.0
C577 C 0.48669 0.6928 0.03763 0.0
C578 C 0.44643 0.65818 0.87797 0.0
C579 C 0.48809 0.74354 0.91337 0.0
O580 O 0.43638 0.72096 0.8434 0.0
O581 O 0.40317 0.73859 0.86556 0.0
O582 O 0.44853 0.73315 0.94885 0.0
O583 O 0.4103 0.74364 0.93989 0.0
O584 O 0.41145 0.68999 0.97186 0.0
O585 O 0.38924 0.709 0.93064 0.0
O586 O 0.45007 0.66935 0.98928 0.0
O587 O 0.48574 0.67076 0.96227 0.0
O588 O 0.42943 0.67174 0.89286 0.0
O589 O 0.46738 0.66485 0.89245 0.0
O590 O 0.46685 0.74521 0.89511 0.0
O591 O 0.48777 0.72323 0.93407 0.0
H592 H 0.41412 0.75285 0.77429 0.0
H593 H 0.38385 0.74376 0.72915 0.0
H594 H 0.35262 0.68371 0.79079 0.0
H595 H 0.38311 0.69328 0.8363 0.0
H596 H 0.50161 0.63118 0.02618 0.0
H597 H 0.52563 0.63917 0.07858 0.0
H598 H 0.49956 0.71598 0.07912 0.0
H599 H 0.47609 0.7079 0.02597 0.0
Pr600 Pr 0.66151 0.18841 0.65097 0.0
Pr601 Pr 0.68806 0.20998 0.68923 0.0
C602 C 0.6505 0.15404 0.60278 0.0
C603 C 0.64026 0.12857 0.60525 0.0
C604 C 0.62253 0.1224 0.63063 0.0
C605 C 0.61365 0.09782 0.63354 0.0
C606 C 0.62276 0.07904 0.61156 0.0
C607 C 0.64123 0.0851 0.58713 0.0
C608 C 0.64988 0.10972 0.58396 0.0
C609 C 0.63044 0.19416 0.70744 0.0
C610 C 0.68076 0.14876 0.71633 0.0
C611 C 0.71237 0.24225 0.73117 0.0
C612 C 0.70788 0.25745 0.76216 0.0
C613 C 0.72254 0.25322 0.79152 0.0
C614 C 0.71908 0.2677 0.82101 0.0
C615 C 0.70106 0.28685 0.8215 0.0
C616 C 0.68631 0.29107 0.79215 0.0
C617 C 0.6896 0.27641 0.76273 0.0
C618 C 0.72225 0.19963 0.63074 0.0
C619 C 0.63515 0.24521 0.66143 0.0
O620 O 0.67288 0.15672 0.61583 0.0
O621 O 0.63544 0.17252 0.61042 0.0
O622 O 0.65361 0.18932 0.70992 0.0
O623 O 0.62267 0.19565 0.67586 0.0
O624 O 0.6919 0.1706 0.72432 0.0
O625 O 0.6673 0.15026 0.68744 0.0
O626 O 0.71289 0.21796 0.73527 0.0
O627 O 0.70121 0.24909 0.70283 0.0
O628 O 0.6994 0.20822 0.62909 0.0
O629 O 0.72568 0.19395 0.6628 0.0
O630 O 0.63564 0.22618 0.639 0.0
O631 O 0.65353 0.24306 0.68508 0.0
H632 H 0.61541 0.1366 0.648 0.0
H633 H 0.59932 0.09354 0.65242 0.0
H634 H 0.64818 0.07101 0.56946 0.0
H635 H 0.66394 0.1141 0.56474 0.0
H636 H 0.73682 0.23879 0.79157 0.0
H637 H 0.73087 0.26427 0.84321 0.0
H638 H 0.67216 0.30562 0.79205 0.0
H639 H 0.67794 0.28004 0.74048 0.0
C640 C 0.50795 0.28469 0.10786 0.0
C641 C 0.50652 0.26429 0.0837 0.0
C642 C 0.52714 0.30476 0.10772 0.0
C643 C 0.54732 0.3064 0.08286 0.0
C644 C 0.54603 0.28588 0.0584 0.0
C645 C 0.52653 0.26609 0.05901 0.0
C646 C 0.52559 0.32479 0.13492 0.0
C647 C 0.56572 0.28471 0.03074 0.0
C648 C 0.58692 0.37187 0.0639 0.0
C649 C 0.61016 0.37062 0.08259 0.0
C650 C 0.56728 0.35217 0.0638 0.0
C651 C 0.56912 0.32873 0.08264 0.0
C652 C 0.59254 0.32735 0.10138 0.0
C653 C 0.61179 0.34734 0.10117 0.0
C654 C 0.54399 0.35668 0.0429 0.0
C655 C 0.59759 0.30409 0.12217 0.0
H656 H 0.49357 0.28523 0.12751 0.0
H657 H 0.52711 0.25166 0.03941 0.0
H658 H 0.54303 0.32483 0.1505 0.0
H659 H 0.5241 0.34351 0.12257 0.0
H660 H 0.5093 0.32205 0.15234 0.0
H661 H 0.5634 0.26804 0.01385 0.0
H662 H 0.56484 0.3019 0.01469 0.0
H663 H 0.58464 0.28416 0.04261 0.0
H664 H 0.58382 0.38865 0.0488 0.0
H665 H 0.62871 0.34441 0.11602 0.0
H666 H 0.5272 0.35531 0.05968 0.0
H667 H 0.54216 0.34192 0.0229 0.0
H668 H 0.54414 0.37534 0.03018 0.0
H669 H 0.58277 0.30171 0.14195 0.0
H670 H 0.61614 0.30474 0.13516 0.0
H671 H 0.59688 0.28734 0.10522 0.0
C672 C 0.61175 0.78917 0.31186 0.0
C673 C 0.61168 0.7671 0.33314 0.0
C674 C 0.59198 0.80858 0.3116 0.0
C675 C 0.56965 0.80763 0.33289 0.0
C676 C 0.56944 0.78536 0.35423 0.0
C677 C 0.58949 0.76634 0.35412 0.0
C678 C 0.59517 0.83064 0.28784 0.0
C679 C 0.5474 0.78133 0.37777 0.0
C680 C 0.52683 0.8697 0.35613 0.0
C681 C 0.50517 0.86964 0.33412 0.0
C682 C 0.54693 0.85072 0.35588 0.0
C683 C 0.54729 0.82922 0.33309 0.0
C684 C 0.5255 0.829 0.31076 0.0
C685 C 0.50569 0.84835 0.3114 0.0
C686 C 0.56838 0.85394 0.38064 0.0
C687 C 0.52295 0.8078 0.28542 0.0
H688 H 0.62764 0.79151 0.2948 0.0
H689 H 0.58749 0.75029 0.37101 0.0
H690 H 0.57941 0.83115 0.26921 0.0
H691 H 0.59453 0.84837 0.30281 0.0
H692 H 0.61311 0.82993 0.27336 0.0
H693 H 0.54886 0.76359 0.39262 0.0
H694 H 0.54594 0.79725 0.39607 0.0
H695 H 0.5298 0.78092 0.36251 0.0
H696 H 0.52838 0.88514 0.37413 0.0
H697 H 0.49024 0.8466 0.29348 0.0
H698 H 0.58633 0.85487 0.36623 0.0
H699 H 0.56942 0.83742 0.39796 0.0
H700 H 0.56653 0.87116 0.39653 0.0
H701 H 0.53915 0.80797 0.26751 0.0
H702 H 0.50537 0.80901 0.27018 0.0
H703 H 0.52326 0.78956 0.29922 0.0
C704 C 0.08849 0.87116 0.56121 0.0
C705 C 0.11072 0.87066 0.58209 0.0
C706 C 0.06902 0.85135 0.56053 0.0
C707 C 0.06996 0.82869 0.58118 0.0
C708 C 0.09232 0.82812 0.60224 0.0
C709 C 0.11151 0.84811 0.60236 0.0
C710 C 1.04693 0.85481 0.53694 0.0
C711 C 0.09623 0.80581 0.62532 0.0
C712 C 1.00756 0.78567 0.60304 0.0
C713 C 1.00787 0.76402 0.58098 0.0
C714 C 1.02663 0.8058 0.60333 0.0
C715 C 1.04831 0.8063 0.58091 0.0
C716 C 1.04871 0.78457 0.55847 0.0
C717 C 1.0294 0.76463 0.55877 0.0
C718 C 1.02337 0.82708 0.62836 0.0
C719 C 0.07002 0.78227 0.53332 0.0
H720 H 0.08615 0.88735 0.54469 0.0
H721 H 0.12766 0.84583 0.61894 0.0
H722 H 1.04582 0.83888 0.51861 0.0
H723 H 1.02933 0.85474 0.55216 0.0
H724 H 1.04808 0.87261 0.52215 0.0
H725 H 0.11376 0.80732 0.64062 0.0
H726 H 0.08011 0.80387 0.64321 0.0
H727 H 0.09698 0.78842 0.60963 0.0
H728 H 0.99194 0.7871 0.62073 0.0
H729 H 1.03131 0.74919 0.54086 0.0
H730 H 1.02214 0.8451 0.61415 0.0
H731 H 1.03999 0.82832 0.64546 0.0
H732 H 1.0063 0.82485 0.64446 0.0
H733 H 0.07046 0.79896 0.51624 0.0
H734 H 0.06849 0.76512 0.5172 0.0
H735 H 0.08811 0.78183 0.54741 0.0
C736 C 1.00517 0.34718 0.81191 0.0
C737 C 1.0051 0.36933 0.833 0.0
C738 C 1.02504 0.32792 0.81171 0.0
C739 C 1.04733 0.32907 0.83301 0.0
C740 C 1.04741 0.35141 0.85427 0.0
C741 C 1.02726 0.37035 0.85402 0.0
C742 C 1.02202 0.30582 0.78796 0.0
C743 C 0.06937 0.35557 0.87789 0.0
C744 C 0.0903 0.26696 0.85546 0.0
C745 C 0.11195 0.2673 0.83345 0.0
C746 C 0.07019 0.28594 0.85557 0.0
C747 C 0.06979 0.30763 0.83311 0.0
C748 C 0.09156 0.3081 0.81079 0.0
C749 C 0.1114 0.28882 0.81115 0.0
C750 C 1.04879 0.28253 0.88036 0.0
C751 C 0.09403 0.32947 0.7857 0.0
H752 H 0.9893 0.34468 0.79485 0.0
H753 H 1.02914 0.38647 0.8708 0.0
H754 H 1.03797 0.30519 0.76965 0.0
H755 H 1.02243 0.28813 0.80304 0.0
H756 H 1.00424 0.30656 0.77313 0.0
H757 H 0.06767 0.3732 0.89295 0.0
H758 H 0.07103 0.33955 0.89599 0.0
H759 H 0.08697 0.35631 0.86266 0.0
H760 H 0.0888 0.25134 0.87318 0.0
H761 H 0.12685 0.29076 0.79326 0.0
H762 H 1.03085 0.28135 0.86597 0.0
H763 H 1.04756 0.29908 0.89761 0.0
H764 H 1.05085 0.26537 0.89632 0.0
H765 H 0.07773 0.32946 0.76795 0.0
H766 H 0.11152 0.32833 0.77029 0.0
H767 H 0.09383 0.3476 0.79976 0.0
C768 C 0.59136 0.87164 0.93591 0.0
C769 C 0.61278 0.87229 0.91347 0.0
C770 C 0.57197 0.85176 0.93625 0.0
C771 C 0.57222 0.83006 0.91374 0.0
C772 C 0.59379 0.83057 0.89113 0.0
C773 C 0.61289 0.8507 0.89128 0.0
C774 C 0.55072 0.85411 0.96148 0.0
C775 C 0.59697 0.80927 0.86611 0.0
C776 C 0.5322 0.76525 0.93428 0.0
C777 C 0.51003 0.76538 0.91325 0.0
C778 C 0.55161 0.78513 0.93468 0.0
C779 C 0.55061 0.8076 0.91369 0.0
C780 C 0.52827 0.80786 0.89252 0.0
C781 C 0.50918 0.78773 0.89257 0.0
C782 C 0.5737 0.78191 0.95832 0.0
C783 C 0.52425 0.83003 0.86921 0.0
H784 H 0.58958 0.88703 0.95393 0.0
H785 H 0.6284 0.84928 0.87342 0.0
H786 H 0.53257 0.85415 0.94751 0.0
H787 H 0.55056 0.83764 0.97894 0.0
H788 H 0.55211 0.87147 0.9772 0.0
H789 H 0.6141 0.81138 0.85011 0.0
H790 H 0.59801 0.79124 0.88032 0.0
H791 H 0.58039 0.80817 0.84892 0.0
H792 H 0.53459 0.74924 0.9511 0.0
H793 H 0.49307 0.78977 0.87586 0.0
H794 H 0.57444 0.79772 0.97688 0.0
H795 H 0.59135 0.78245 0.9432 0.0
H796 H 0.57286 0.76398 0.97287 0.0
H797 H 0.52373 0.84754 0.88467 0.0
H798 H 0.50657 0.82848 0.85423 0.0
H799 H 0.54021 0.83176 0.85103 0.0
C800 C 0.52841 0.37024 0.64195 0.0
C801 C 0.50638 0.36957 0.66328 0.0
C802 C 0.54854 0.35126 0.64174 0.0
C803 C 0.54853 0.32903 0.66318 0.0
C804 C 0.52633 0.32814 0.68476 0.0
C805 C 0.50655 0.34757 0.68472 0.0
C806 C 0.57046 0.35534 0.61802 0.0
C807 C 0.52326 0.30609 0.70858 0.0
C808 C 0.59171 0.26714 0.63944 0.0
C809 C 0.61327 0.26707 0.66168 0.0
C810 C 0.57151 0.28607 0.63982 0.0
C811 C 0.57097 0.30745 0.66285 0.0
C812 C 0.5927 0.30757 0.68531 0.0
C813 C 0.61253 0.28822 0.68466 0.0
C814 C 0.55011 0.28287 0.61498 0.0
C815 C 0.59519 0.32868 0.71079 0.0
H816 H 0.53026 0.38621 0.6249 0.0
H817 H 0.49079 0.34526 0.70202 0.0
H818 H 0.58817 0.35538 0.63304 0.0
H819 H 0.57161 0.33963 0.59935 0.0
H820 H 0.56908 0.37326 0.60357 0.0
H821 H 0.50517 0.30656 0.72272 0.0
H822 H 0.52436 0.28833 0.69374 0.0
H823 H 0.53883 0.30593 0.72752 0.0
H824 H 0.5903 0.25183 0.62122 0.0
H825 H 0.62789 0.2899 0.70275 0.0
H826 H 0.54932 0.29925 0.59741 0.0
H827 H 0.53209 0.28225 0.62928 0.0
H828 H 0.55183 0.2655 0.59936 0.0
H829 H 0.59433 0.34699 0.69721 0.0
H830 H 0.61299 0.32773 0.72556 0.0
H831 H 0.57925 0.32808 0.72912 0.0
C832 C 1.00829 0.28757 0.39134 0.0
C833 C 1.00886 0.26556 0.41269 0.0
C834 C 1.02734 0.3077 0.39131 0.0
C835 C 1.04928 0.30778 0.41324 0.0
C836 C 1.04997 0.28567 0.43493 0.0
C837 C 1.03063 0.26577 0.43444 0.0
C838 C 1.02373 0.32948 0.3672 0.0
C839 C 0.07162 0.28289 0.45942 0.0
C840 C 0.11179 0.35077 0.39211 0.0
C841 C 0.11101 0.37266 0.41365 0.0
C842 C 0.09282 0.33055 0.39174 0.0
C843 C 0.07076 0.33029 0.41346 0.0
C844 C 0.06987 0.35229 0.43532 0.0
C845 C 0.08912 0.37226 0.43519 0.0
C846 C 0.09665 0.30889 0.36748 0.0
C847 C 1.04806 0.35488 0.45961 0.0
H848 H 0.99246 0.2893 0.37406 0.0
H849 H 1.03274 0.25002 0.4518 0.0
H850 H 1.02272 0.34721 0.38213 0.0
H851 H 1.0401 0.33106 0.3497 0.0
H852 H 1.00643 0.32757 0.3515 0.0
H853 H 0.07053 0.26522 0.47453 0.0
H854 H 0.08955 0.28318 0.44492 0.0
H855 H 0.07202 0.29902 0.47748 0.0
H856 H 0.12772 0.34919 0.37497 0.0
H857 H 0.08685 0.38792 0.45266 0.0
H858 H 0.08043 0.30741 0.3497 0.0
H859 H 0.09753 0.29109 0.38225 0.0
H860 H 0.11408 0.31089 0.35207 0.0
H861 H 1.03023 0.35468 0.44491 0.0
H862 H 1.04905 0.37245 0.47496 0.0
H863 H 1.04757 0.33863 0.47746 0.0
C864 C 0.09354 0.76817 0.13777 0.0
C865 C 0.11404 0.76708 0.16177 0.0
C866 C 0.07346 0.78721 0.13785 0.0
C867 C 0.07192 0.80759 0.16244 0.0
C868 C 0.09255 0.80665 0.18671 0.0
C869 C 0.11233 0.78727 0.1862 0.0
C870 C 1.05329 0.78526 0.11091 0.0
C871 C 0.09385 0.82659 0.21404 0.0
C872 C 1.03048 0.87151 0.14385 0.0
C873 C 1.00744 0.86971 0.16293 0.0
C874 C 1.05057 0.85249 0.14356 0.0
C875 C 1.04952 0.82917 0.16269 0.0
C876 C 1.02632 0.82719 0.182 0.0
C877 C 1.00656 0.8466 0.18201 0.0
C878 C 0.07357 0.85768 0.12228 0.0
C879 C 1.02215 0.80398 0.20331 0.0
H880 H 0.09293 0.75363 0.11833 0.0
H881 H 0.12684 0.78812 0.20565 0.0
H882 H 1.03466 0.78374 0.1235 0.0
H883 H 1.05313 0.80258 0.09505 0.0
H884 H 1.05593 0.76883 0.09373 0.0
H885 H 0.11072 0.82468 0.23059 0.0
H886 H 0.09407 0.84545 0.20189 0.0
H887 H 0.07688 0.82556 0.2305 0.0
H888 H 1.03312 0.88837 0.12869 0.0
H889 H 0.98999 0.84341 0.19751 0.0
H890 H 0.0758 0.84278 0.10258 0.0
H891 H 0.09048 0.85719 0.13891 0.0
H892 H 0.07273 0.87618 0.10916 0.0
H893 H 1.02359 0.78705 0.18679 0.0
H894 H 1.00357 0.80393 0.21622 0.0
H895 H 1.03701 0.80256 0.2232 0.0
C896 C 0.25114 0.17948 0.90852 0.0
C897 C 0.2433 0.20173 0.89099 0.0
C898 C 0.27339 0.178 0.93074 0.0
C899 C 0.2901 0.19899 0.93683 0.0
C900 C 0.28234 0.22133 0.91895 0.0
C901 C 0.25988 0.2224 0.89743 0.0
C902 C 0.27898 0.15345 0.9482 0.0
C903 C 0.29813 0.24468 0.92237 0.0
C904 C 0.3379 0.20426 0.01841 0.0
C905 C 0.36217 0.19685 0.00651 0.0
C906 C 0.31522 0.20461 0.99713 0.0
C907 C 0.31505 0.19783 0.96118 0.0
C908 C 0.33952 0.19053 0.94894 0.0
C909 C 0.36185 0.18997 0.97093 0.0
C910 C 0.29093 0.2124 0.01366 0.0
C911 C 0.34236 0.18341 0.91169 0.0
H912 H 0.23962 0.16288 0.90522 0.0
H913 H 0.25537 0.24005 0.8851 0.0
H914 H 0.29739 0.14629 0.93933 0.0
H915 H 0.28035 0.15634 0.97641 0.0
H916 H 0.26441 0.139 0.94293 0.0
H917 H 0.29099 0.26038 0.90636 0.0
H918 H 0.29854 0.25081 0.94963 0.0
H919 H 0.31775 0.24062 0.91469 0.0
H920 H 0.33642 0.20987 0.04511 0.0
H921 H 0.37952 0.1843 0.95967 0.0
H922 H 0.27643 0.19773 0.0094 0.0
H923 H 0.28407 0.22991 0.00149 0.0
H924 H 0.29296 0.21566 0.04175 0.0
H925 H 0.3301 0.16711 0.90573 0.0
H926 H 0.362 0.17854 0.90499 0.0
H927 H 0.3362 0.1992 0.89512 0.0
C928 C 0.67583 0.52954 0.12783 0.0
C929 C 0.67935 0.50432 0.1394 0.0
C930 C 0.67527 0.55167 0.15002 0.0
C931 C 0.6797 0.55066 0.18666 0.0
C932 C 0.68374 0.52515 0.19854 0.0
C933 C 0.68298 0.50313 0.17578 0.0
C934 C 0.66944 0.57638 0.13301 0.0
C935 C 0.68952 0.52038 0.23587 0.0
C936 C 0.6977 0.61839 0.22994 0.0
C937 C 0.6802 0.62275 0.25709 0.0
C938 C 0.69827 0.59573 0.20857 0.0
C939 C 0.68008 0.57556 0.21148 0.0
C940 C 0.66197 0.58026 0.23846 0.0
C941 C 0.66266 0.60256 0.26049 0.0
C942 C 0.71932 0.59381 0.18289 0.0
C943 C 0.64089 0.5619 0.24449 0.0
H944 H 0.67296 0.53223 0.10049 0.0
H945 H 0.68612 0.48474 0.18684 0.0
H946 H 0.66237 0.59062 0.1514 0.0
H947 H 0.68668 0.58369 0.12053 0.0
H948 H 0.6552 0.57378 0.11244 0.0
H949 H 0.70374 0.5053 0.23844 0.0
H950 H 0.69656 0.53738 0.24928 0.0
H951 H 0.67224 0.51372 0.24892 0.0
H952 H 0.71177 0.63275 0.22552 0.0
H953 H 0.6485 0.60438 0.28032 0.0
H954 H 0.71488 0.60571 0.1603 0.0
H955 H 0.72256 0.57428 0.17409 0.0
H956 H 0.73702 0.60116 0.19416 0.0
H957 H 0.63697 0.55004 0.22166 0.0
H958 H 0.62342 0.57196 0.2516 0.0
H959 H 0.64586 0.54959 0.26645 0.0
C960 C 0.37437 0.94199 0.42703 0.0
C961 C 0.37295 0.93703 0.39095 0.0
C962 C 0.35257 0.94287 0.45014 0.0
C963 C 0.32706 0.93767 0.43902 0.0
C964 C 0.32584 0.93187 0.40275 0.0
C965 C 0.34773 0.93232 0.38013 0.0
C966 C 0.35751 0.95006 0.48697 0.0
C967 C 0.30116 0.92466 0.38662 0.0
C968 C 0.27589 0.92212 0.51462 0.0
C969 C 0.25544 0.93911 0.51024 0.0
C970 C 0.29808 0.92114 0.4924 0.0
C971 C 0.30236 0.93837 0.46416 0.0
C972 C 0.28191 0.956 0.46025 0.0
C973 C 0.2594 0.95568 0.48186 0.0
C974 C 0.31676 0.90068 0.49962 0.0
C975 C 0.28333 0.97612 0.43312 0.0
H976 H 0.39276 0.94613 0.4375 0.0
H977 H 0.34484 0.92844 0.35306 0.0
H978 H 0.34053 0.95728 0.5001 0.0
H979 H 0.36438 0.93334 0.50108 0.0
H980 H 0.37246 0.96459 0.48843 0.0
H981 H 0.30393 0.90971 0.36707 0.0
H982 H 0.28726 0.91789 0.40574 0.0
H983 H 0.29335 0.94119 0.37302 0.0
H984 H 0.27435 0.90861 0.53535 0.0
H985 H 0.24479 0.96924 0.47659 0.0
H986 H 0.32911 0.9067 0.52107 0.0
H987 H 0.32856 0.89623 0.47693 0.0
H988 H 0.30703 0.88325 0.50798 0.0
H989 H 0.30274 0.97954 0.42394 0.0
H990 H 0.2757 0.99405 0.4432 0.0
H991 H 0.27145 0.97054 0.41096 0.0
C992 C 0.96354 0.61634 0.64841 0.0
C993 C 0.94248 0.63177 0.63996 0.0
C994 C 0.96256 0.59407 0.67039 0.0
C995 C 0.93987 0.58527 0.68658 0.0
C996 C 0.91847 0.60078 0.67837 0.0
C997 C 0.91993 0.62292 0.65587 0.0
C998 C 0.98641 0.57963 0.67622 0.0
C999 C 0.89347 0.59399 0.69376 0.0
C1000 C 0.93283 0.5134 0.72173 0.0
C1001 C 0.93774 0.51392 0.75792 0.0
C1002 C 0.93339 0.53549 0.69922 0.0
C1003 C 0.93875 0.56054 0.71143 0.0
C1004 C 0.94356 0.5612 0.74795 0.0
C1005 C 0.94319 0.53878 0.76982 0.0
C1006 C 0.92837 0.53178 0.66146 0.0
C1007 C 0.94928 0.58613 0.76445 0.0
H1008 H 0.98145 0.62166 0.6374 0.0
H1009 H 0.903 0.6335 0.65094 0.0
H1010 H 0.9911 0.57961 0.70402 0.0
H1011 H 0.98374 0.55978 0.66832 0.0
H1012 H 1.00251 0.58764 0.66173 0.0
H1013 H 0.87855 0.60748 0.68651 0.0
H1014 H 0.88783 0.57494 0.68512 0.0
H1015 H 0.89501 0.59342 0.72222 0.0
H1016 H 0.92873 0.49527 0.71043 0.0
H1017 H 0.94725 0.54093 0.79695 0.0
H1018 H 0.94478 0.53833 0.64632 0.0
H1019 H 0.91207 0.54328 0.65351 0.0
H1020 H 0.92454 0.51184 0.65495 0.0
H1021 H 0.96688 0.59394 0.75354 0.0
H1022 H 0.95139 0.58463 0.7928 0.0
H1023 H 0.93408 0.59966 0.75864 0.0
C1024 C 0.75636 0.945 0.02541 0.0
C1025 C 0.75639 0.94123 0.98897 0.0
C1026 C 0.77874 0.94414 0.04726 0.0
C1027 C 0.8036 0.9395 0.03409 0.0
C1028 C 0.80376 0.93571 0.99731 0.0
C1029 C 0.78105 0.93645 0.97607 0.0
C1030 C 0.77556 0.94805 0.08535 0.0
C1031 C 0.82843 0.93068 0.97987 0.0
C1032 C 0.86652 0.95776 0.08895 0.0
C1033 C 0.87556 0.93496 0.10385 0.0
C1034 C 0.84415 0.95946 0.06698 0.0
C1035 C 0.82864 0.93807 0.05824 0.0
C1036 C 0.83765 0.91512 0.07334 0.0
C1037 C 0.8601 0.91391 0.09491 0.0
C1038 C 0.83707 0.98474 0.0528 0.0
C1039 C 0.82325 0.89122 0.06678 0.0
H1040 H 0.73839 0.94847 0.03744 0.0
H1041 H 0.7828 0.93318 0.94869 0.0
H1042 H 0.78215 0.93119 0.09941 0.0
H1043 H 0.78728 0.96412 0.09393 0.0
H1044 H 0.75575 0.95171 0.09255 0.0
H1045 H 0.82648 0.92898 0.95152 0.0
H1046 H 0.84188 0.94604 0.98573 0.0
H1047 H 0.83661 0.91304 0.99002 0.0
H1048 H 0.87708 0.9747 0.09435 0.0
H1049 H 0.86555 0.89583 0.10515 0.0
H1050 H 0.81806 0.98991 0.06195 0.0
H1051 H 0.8363 0.98387 0.0243 0.0
H1052 H 0.8505 0.99969 0.06053 0.0
H1053 H 0.80355 0.89341 0.07544 0.0
H1054 H 0.83159 0.87484 0.08018 0.0
H1055 H 0.82276 0.88728 0.03877 0.0
C1056 C 0.46441 0.61711 0.84726 0.0
C1057 C 0.44371 0.63351 0.85374 0.0
C1058 C 0.46335 0.59455 0.82588 0.0
C1059 C 0.441 0.58645 0.80823 0.0
C1060 C 0.41998 0.60298 0.81437 0.0
C1061 C 0.42146 0.62537 0.83641 0.0
C1062 C 0.48675 0.57902 0.82234 0.0
C1063 C 0.39539 0.59704 0.79718 0.0
C1064 C 0.44604 0.53845 0.72681 0.0
C1065 C 0.439 0.51407 0.73894 0.0
C1066 C 0.44636 0.56122 0.74799 0.0
C1067 C 0.43987 0.56139 0.78404 0.0
C1068 C 0.43291 0.53681 0.79649 0.0
C1069 C 0.43243 0.51438 0.77463 0.0
C1070 C 0.45384 0.58561 0.73127 0.0
C1071 C 0.42606 0.53396 0.83384 0.0
H1072 H 0.48206 0.62186 0.85944 0.0
H1073 H 0.40484 0.63674 0.83974 0.0
H1074 H 0.48287 0.55939 0.83035 0.0
H1075 H 0.49266 0.57848 0.79499 0.0
H1076 H 0.50251 0.58648 0.83801 0.0
H1077 H 0.38092 0.61148 0.80246 0.0
H1078 H 0.39814 0.59556 0.76895 0.0
H1079 H 0.38837 0.57857 0.80628 0.0
H1080 H 0.45142 0.53995 0.70002 0.0
H1081 H 0.42704 0.49663 0.78607 0.0
H1082 H 0.4713 0.59281 0.74329 0.0
H1083 H 0.43905 0.59989 0.73556 0.0
H1084 H 0.457 0.58355 0.70318 0.0
H1085 H 0.44193 0.5403 0.85019 0.0
H1086 H 0.4213 0.51427 0.84066 0.0
H1087 H 0.4098 0.5461 0.83996 0.0
C1088 C 0.7438 0.19734 0.56727 0.0
C1089 C 0.74531 0.20092 0.60364 0.0
C1090 C 0.76564 0.19631 0.54424 0.0
C1091 C 0.7913 0.19994 0.55584 0.0
C1092 C 0.79263 0.20436 0.59245 0.0
C1093 C 0.77066 0.20408 0.61489 0.0
C1094 C 0.76055 0.1907 0.50694 0.0
C1095 C 0.81755 0.20981 0.60917 0.0
C1096 C 0.85828 0.18076 0.51192 0.0
C1097 C 0.86297 0.19828 0.48485 0.0
C1098 C 0.83571 0.18054 0.53344 0.0
C1099 C 0.81603 0.19916 0.53081 0.0
C1100 C 0.82111 0.21731 0.50397 0.0
C1101 C 0.84327 0.21627 0.48176 0.0
C1102 C 0.83335 0.15944 0.55901 0.0
C1103 C 0.80334 0.23883 0.4983 0.0
H1104 H 0.7253 0.1944 0.55645 0.0
H1105 H 0.77361 0.20684 0.64221 0.0
H1106 H 0.75439 0.20818 0.49399 0.0
H1107 H 0.77726 0.18329 0.49338 0.0
H1108 H 0.74504 0.17685 0.50442 0.0
H1109 H 0.81538 0.22401 0.62988 0.0
H1110 H 0.82461 0.19241 0.62141 0.0
H1111 H 0.83177 0.21678 0.59064 0.0
H1112 H 0.87227 0.16638 0.51612 0.0
H1113 H 0.84541 0.2305 0.46207 0.0
H1114 H 0.8138 0.15655 0.56795 0.0
H1115 H 0.84544 0.16359 0.58154 0.0
H1116 H 0.84018 0.14162 0.54759 0.0
H1117 H 0.79076 0.2342 0.47646 0.0
H1118 H 0.81383 0.25612 0.49121 0.0
H1119 H 0.79174 0.2429 0.5213 0.0
C1120 C 0.15522 0.52125 0.34939 0.0
C1121 C 0.17605 0.50519 0.35655 0.0
C1122 C 0.15626 0.54369 0.32776 0.0
C1123 C 0.17872 0.55191 0.31044 0.0
C1124 C 0.19986 0.5357 0.31725 0.0
C1125 C 0.1984 0.51351 0.33962 0.0
C1126 C 0.13275 0.55898 0.32363 0.0
C1127 C 0.22454 0.54175 0.30038 0.0
C1128 C 0.17398 0.59927 0.22832 0.0
C1129 C 0.1811 0.62371 0.24015 0.0
C1130 C 0.17355 0.57667 0.24981 0.0
C1131 C 0.17989 0.57678 0.28591 0.0
C1132 C 0.18686 0.60144 0.29807 0.0
C1133 C 0.18756 0.62367 0.27587 0.0
C1134 C 0.16617 0.55217 0.23333 0.0
C1135 C 0.19343 0.60459 0.33547 0.0
H1136 H 0.13749 0.51635 0.36124 0.0
H1137 H 0.21513 0.50239 0.3435 0.0
H1138 H 0.13647 0.57879 0.33091 0.0
H1139 H 0.12686 0.55892 0.29627 0.0
H1140 H 0.11704 0.55169 0.33954 0.0
H1141 H 0.23908 0.52745 0.30603 0.0
H1142 H 0.22201 0.54305 0.2721 0.0
H1143 H 0.23135 0.56031 0.3094 0.0
H1144 H 0.16867 0.59759 0.20153 0.0
H1145 H 0.19298 0.6415 0.28708 0.0
H1146 H 0.14855 0.54512 0.24508 0.0
H1147 H 0.18086 0.53787 0.23814 0.0
H1148 H 0.16332 0.55399 0.20514 0.0
H1149 H 0.17761 0.59801 0.35172 0.0
H1150 H 0.19778 0.6244 0.34217 0.0
H1151 H 0.20991 0.59282 0.34186 0.0
C1152 C 0.76942 0.70239 0.37911 0.0
C1153 C 0.74418 0.6982 0.39022 0.0
C1154 C 0.79141 0.70271 0.40152 0.0
C1155 C 0.79025 0.69735 0.4379 0.0
C1156 C 0.76472 0.69264 0.44934 0.0
C1157 C 0.74283 0.6936 0.42639 0.0
C1158 C 0.81615 0.70926 0.38504 0.0
C1159 C 0.75984 0.68594 0.48635 0.0
C1160 C 0.85781 0.67909 0.48097 0.0
C1161 C 0.8621 0.69621 0.50866 0.0
C1162 C 0.83522 0.67871 0.45948 0.0
C1163 C 0.81504 0.69671 0.46287 0.0
C1164 C 0.81967 0.71445 0.49037 0.0
C1165 C 0.84192 0.71359 0.51246 0.0
C1166 C 0.83339 0.65809 0.4331 0.0
C1167 C 0.8013 0.73531 0.49693 0.0
H1168 H 0.77225 0.70597 0.35194 0.0
H1169 H 0.72443 0.68986 0.43709 0.0
H1170 H 0.83014 0.71631 0.40387 0.0
H1171 H 0.82377 0.69232 0.37222 0.0
H1172 H 0.81356 0.72377 0.36484 0.0
H1173 H 0.74471 0.67161 0.48822 0.0
H1174 H 0.77678 0.67865 0.4995 0.0
H1175 H 0.75323 0.7029 0.50015 0.0
H1176 H 0.87217 0.66518 0.47619 0.0
H1177 H 0.84371 0.72748 0.53267 0.0
H1178 H 0.84533 0.66304 0.41072 0.0
H1179 H 0.81391 0.65485 0.42409 0.0
H1180 H 0.84073 0.64023 0.4438 0.0
H1181 H 0.78967 0.73962 0.47404 0.0
H1182 H 0.81127 0.7527 0.50492 0.0
H1183 H 0.78876 0.72978 0.51843 0.0
C1184 C 0.16269 0.102 0.76198 0.0
C1185 C 0.18053 0.12199 0.75925 0.0
C1186 C 0.16207 0.07982 0.73975 0.0
C1187 C 0.18052 0.07502 0.71327 0.0
C1188 C 0.19897 0.095 0.71099 0.0
C1189 C 0.19835 0.11758 0.73253 0.0
C1190 C 0.14065 1.06172 0.745 0.0
C1191 C 0.22033 0.09296 0.68582 0.0
C1192 C 0.1832 1.00272 0.67721 0.0
C1193 C 0.17998 1.00407 0.64078 0.0
C1194 C 0.1839 1.02465 0.70012 0.0
C1195 C 0.18022 1.05023 0.6883 0.0
C1196 C 0.17619 1.05142 0.6516 0.0
C1197 C 0.1768 1.02936 0.62929 0.0
C1198 C 0.18918 1.01973 0.73755 0.0
C1199 C 0.17078 0.07624 0.63464 0.0
H1200 H 0.14826 0.10391 0.78141 0.0
H1201 H 0.21264 0.13181 0.72862 0.0
H1202 H 0.13696 1.04999 0.72197 0.0
H1203 H 0.1451 1.04926 0.76701 0.0
H1204 H 0.1232 0.07198 0.75163 0.0
H1205 H 0.23796 0.10011 0.69756 0.0
H1206 H 0.2235 0.07344 0.67698 0.0
H1207 H 0.21629 0.10498 0.6632 0.0
H1208 H 0.18605 0.98427 0.68822 0.0
H1209 H 0.17424 1.03217 0.60191 0.0
H1210 H 0.17164 1.01331 0.75021 0.0
H1211 H 0.1963 1.0366 0.75117 0.0
H1212 H 0.20313 1.00442 0.74038 0.0
H1213 H 0.16355 0.09044 0.65297 0.0
H1214 H 0.15682 0.07384 0.61367 0.0
H1215 H 0.18825 0.08349 0.6227 0.0
C1216 C 0.77912 0.43475 0.01993 0.0
C1217 C 0.75424 0.43925 0.0076 0.0
C1218 C 0.80163 0.43428 0.99821 0.0
C1219 C 0.80106 0.43803 0.96142 0.0
C1220 C 0.77598 0.44237 0.9488 0.0
C1221 C 0.75382 0.44302 0.97114 0.0
C1222 C 0.82655 0.42961 0.01516 0.0
C1223 C 0.77232 0.44618 0.91078 0.0
C1224 C 0.86323 0.45703 0.90517 0.0
C1225 C 0.87253 0.43431 0.89027 0.0
C1226 C 0.84103 0.45847 0.92755 0.0
C1227 C 0.8259 0.43689 0.93674 0.0
C1228 C 0.83515 0.41403 0.92159 0.0
C1229 C 0.85746 0.41307 0.89966 0.0
C1230 C 0.83373 0.48369 0.94171 0.0
C1231 C 0.82118 0.38995 0.92852 0.0
H1232 H 0.78123 0.43152 0.04728 0.0
H1233 H 0.73568 0.4463 0.95948 0.0
H1234 H 0.83475 0.41196 0.0051 0.0
H1235 H 0.8398 0.44503 0.00875 0.0
H1236 H 0.82496 0.42814 0.04357 0.0
H1237 H 0.75236 0.44942 0.90396 0.0
H1238 H 0.78363 0.46246 0.90195 0.0
H1239 H 0.7791 0.42944 0.89661 0.0
H1240 H 0.87348 0.47411 0.89951 0.0
H1241 H 0.86311 0.39503 0.88948 0.0
H1242 H 0.8332 0.48289 0.97023 0.0
H1243 H 0.81458 0.48858 0.93284 0.0
H1244 H 0.84689 0.4988 0.93371 0.0
H1245 H 0.82117 0.38598 0.95654 0.0
H1246 H 0.82953 0.37368 0.91486 0.0
H1247 H 0.80132 0.39188 0.92043 0.0
C1248 C 0.42073 1.0189 0.23192 0.0
C1249 C 0.43763 1.01468 0.25982 0.0
C1250 C 0.42057 1.04145 0.21033 0.0
C1251 C 0.43866 1.06167 0.21379 0.0
C1252 C 0.45616 1.05715 0.24157 0.0
C1253 C 0.45506 1.03493 0.26376 0.0
C1254 C 0.4001 1.04318 0.18377 0.0
C1255 C 0.47704 0.07559 0.24831 0.0
C1256 C 0.44453 0.10703 0.12965 0.0
C1257 C 0.44063 0.13234 0.14062 0.0
C1258 C 0.44478 0.0851 0.15223 0.0
C1259 C 0.43955 0.0864 0.18865 0.0
C1260 C 0.43514 0.11201 0.19993 0.0
C1261 C 0.43623 0.13383 0.17682 0.0
C1262 C 0.45112 1.06028 0.13586 0.0
C1263 C 0.42857 0.11706 0.23693 0.0
H1264 H 0.4068 1.00448 0.227 0.0
H1265 H 0.46879 1.03321 0.28415 0.0
H1266 H 0.39701 1.06265 0.17463 0.0
H1267 H 0.40506 1.03116 0.1615 0.0
H1268 H 0.38217 1.03586 0.19437 0.0
H1269 H 0.49436 0.06565 0.25636 0.0
H1270 H 0.48147 0.0873 0.2255 0.0
H1271 H 0.4715 0.08807 0.26984 0.0
H1272 H 0.44791 0.10409 0.10247 0.0
H1273 H 0.43267 0.15229 0.18741 0.0
H1274 H 0.43421 1.05279 0.12273 0.0
H1275 H 0.45782 1.04623 0.15476 0.0
H1276 H 0.46582 0.0628 0.11589 0.0
H1277 H 0.42129 0.10015 0.25032 0.0
H1278 H 0.41428 0.13214 0.23872 0.0
H1279 H 0.44556 0.12385 0.25057 0.0
C1280 C 0.28064 0.44399 0.47539 0.0
C1281 C 0.2557 0.44038 0.48794 0.0
C1282 C 0.30321 0.44409 0.49691 0.0
C1283 C 0.30282 0.4391 0.53352 0.0
C1284 C 0.27761 0.43461 0.54606 0.0
C1285 C 0.25529 0.43588 0.52416 0.0
C1286 C 0.32769 0.44997 0.47933 0.0
C1287 C 0.27342 0.42772 0.58319 0.0
C1288 C 0.37047 0.42152 0.5775 0.0
C1289 C 0.37436 0.43903 0.60485 0.0
C1290 C 0.34811 0.42097 0.55539 0.0
C1291 C 0.32785 0.43901 0.55801 0.0
C1292 C 0.33221 0.4571 0.58507 0.0
C1293 C 0.35411 0.45645 0.60763 0.0
C1294 C 0.34649 0.4001 0.52939 0.0
C1295 C 0.31374 0.47801 0.59089 0.0
H1296 H 0.28274 0.44741 0.44807 0.0
H1297 H 0.23714 0.43249 0.53582 0.0
H1298 H 0.34208 0.4572 0.49743 0.0
H1299 H 0.33487 0.43265 0.46698 0.0
H1300 H 0.32491 0.46408 0.45864 0.0
H1301 H 0.25888 0.41281 0.58526 0.0
H1302 H 0.29072 0.42104 0.59605 0.0
H1303 H 0.26623 0.44437 0.59716 0.0
H1304 H 0.38473 0.40734 0.57374 0.0
H1305 H 0.35546 0.47039 0.62784 0.0
H1306 H 0.35817 0.40509 0.50677 0.0
H1307 H 0.327 0.39651 0.52066 0.0
H1308 H 0.35418 0.38244 0.54025 0.0
H1309 H 0.30234 0.4821 0.5677 0.0
H1310 H 0.32361 0.49549 0.59874 0.0
H1311 H 0.301 0.4727 0.61226 0.0
C1312 C 0.96398 0.11737 0.34678 0.0
C1313 C 0.94309 0.13338 0.3539 0.0
C1314 C 0.96304 0.09486 0.32526 0.0
C1315 C 0.94059 0.0864 0.30816 0.0
C1316 C 0.91936 0.10251 0.31498 0.0
C1317 C 0.92075 0.12486 0.33711 0.0
C1318 C 0.98667 0.07979 0.32094 0.0
C1319 C 0.89464 0.09616 0.29843 0.0
C1320 C 0.94531 1.03917 0.22591 0.0
C1321 C 0.93895 1.01452 0.23777 0.0
C1322 C 0.94551 1.06175 0.24744 0.0
C1323 C 0.93958 1.06148 0.28365 0.0
C1324 C 0.9333 1.03664 0.29588 0.0
C1325 C 0.93293 1.01437 0.27365 0.0
C1326 C 0.95225 0.08642 0.23092 0.0
C1327 C 0.92709 1.03335 0.33336 0.0
H1328 H 0.98172 0.12241 0.35851 0.0
H1329 H 0.90397 0.1359 0.34096 0.0
H1330 H 0.98327 1.06004 0.32878 0.0
H1331 H 0.99223 0.07955 0.29345 0.0
H1332 H 1.0025 0.08745 0.33632 0.0
H1333 H 0.87988 0.11012 0.30459 0.0
H1334 H 0.89694 0.09521 0.27008 0.0
H1335 H 0.88828 0.07737 0.30718 0.0
H1336 H 0.95027 1.04103 0.19902 0.0
H1337 H 0.9281 0.99641 0.28493 0.0
H1338 H 0.96974 0.09387 0.24257 0.0
H1339 H 0.93725 0.10036 0.23583 0.0
H1340 H 0.95504 0.08466 0.20271 0.0
H1341 H 0.94316 1.0397 0.34933 0.0
H1342 H 0.92265 1.01354 0.33994 0.0
H1343 H 0.9108 1.04524 0.34022 0.0
C1344 C 0.27166 0.70383 0.1164 0.0
C1345 C 0.24627 0.70121 0.10505 0.0
C1346 C 0.29368 0.70408 0.09399 0.0
C1347 C 0.29236 0.70018 0.05725 0.0
C1348 C 0.26665 0.69707 0.04555 0.0
C1349 C 0.24479 0.69813 0.06859 0.0
C1350 C 0.31864 0.70897 0.11091 0.0
C1351 C 0.2615 0.69199 0.00813 0.0
C1352 C 0.34451 0.71666 0.98328 0.0
C1353 C 0.36408 0.69847 0.98599 0.0
C1354 C 0.32238 0.71772 0.00558 0.0
C1355 C 0.31713 0.6994 0.03216 0.0
C1356 C 0.33667 0.68059 0.03442 0.0
C1357 C 0.35923 0.68077 0.01282 0.0
C1358 C 0.30484 0.73948 0.0003 0.0
C1359 C 0.33415 0.65928 0.05963 0.0
H1360 H 0.27461 0.70619 0.14379 0.0
H1361 H 0.22627 0.69562 0.05764 0.0
H1362 H 0.3254 0.69134 0.12287 0.0
H1363 H 0.33302 0.71589 0.09257 0.0
H1364 H 0.31664 0.723 0.13187 0.0
H1365 H 0.24585 0.67833 0.0053 0.0
H1366 H 0.25551 0.70969 0.9956 0.0
H1367 H 0.27813 0.68457 0.99439 0.0
H1368 H 0.34675 0.73103 0.9638 0.0
H1369 H 0.37308 0.66622 0.01676 0.0
H1370 H 0.29322 0.74341 0.02333 0.0
H1371 H 0.29228 0.73524 0.97829 0.0
H1372 H 0.31553 0.75675 0.99364 0.0
H1373 H 0.34631 0.66311 0.08219 0.0
H1374 H 0.34079 0.6415 0.04788 0.0
H1375 H 0.31458 0.65649 0.06857 0.0
C1376 C 0.6623 0.1047 0.73889 0.0
C1377 C 0.681 0.12396 0.74049 0.0
C1378 C 0.66151 0.08252 0.76114 0.0
C1379 C 0.68057 0.07697 0.78653 0.0
C1380 C 0.6999 0.09617 0.78759 0.0
C1381 C 0.69952 0.11875 0.76603 0.0
C1382 C 0.63931 0.06523 0.75705 0.0
C1383 C 0.72196 0.09324 0.8114 0.0
C1384 C 0.67786 1.03154 0.87094 0.0
C1385 C 0.67963 1.00611 0.8594 0.0
C1386 C 0.67738 1.05358 0.84857 0.0
C1387 C 0.68009 1.05221 0.81163 0.0
C1388 C 0.68233 1.02647 0.79974 0.0
C1389 C 0.68155 1.0046 0.82279 0.0
C1390 C 0.67356 0.07863 0.86575 0.0
C1391 C 0.68611 1.02127 0.76204 0.0
H1392 H 0.64737 0.10716 0.72028 0.0
H1393 H 0.71454 0.13233 0.76898 0.0
H1394 H 0.64262 1.0527 0.73472 0.0
H1395 H 0.63591 1.05356 0.78021 0.0
H1396 H 0.62206 0.07614 0.75146 0.0
H1397 H 0.73946 0.09966 0.79856 0.0
H1398 H 0.71918 0.1054 0.83424 0.0
H1399 H 0.72462 0.07359 0.82005 0.0
H1400 H 0.67636 1.03449 0.89844 0.0
H1401 H 0.68328 0.98603 0.8117 0.0
H1402 H 0.66636 0.09311 0.84783 0.0
H1403 H 0.69169 0.08515 0.8766 0.0
H1404 H 0.66021 0.07683 0.88754 0.0
H1405 H 0.66791 1.01556 0.75056 0.0
H1406 H 0.69931 1.0054 0.75839 0.0
H1407 H 0.69344 1.03781 0.74788 0.0
C1408 C 0.54255 0.16176 0.86557 0.0
C1409 C 0.53422 0.18294 0.88367 0.0
C1410 C 0.55731 0.16424 0.83596 0.0
C1411 C 0.56417 0.18848 0.82439 0.0
C1412 C 0.55564 0.20997 0.84224 0.0
C1413 C 0.54065 0.20694 0.87161 0.0
C1414 C 0.566 0.14089 0.81746 0.0
C1415 C 0.56272 0.23611 0.83068 0.0
C1416 C 0.62325 0.19204 0.77055 0.0
C1417 C 0.61341 0.19359 0.73722 0.0
C1418 C 0.6074 0.19095 0.79923 0.0
C1419 C 0.5811 0.19121 0.79434 0.0
C1420 C 0.57105 0.19312 0.76074 0.0
C1421 C 0.58739 0.19443 0.7325 0.0
C1422 C 0.61879 0.18918 0.83471 0.0
C1423 C 0.5431 0.19327 0.75459 0.0
H1424 H 0.53802 0.14315 0.875 0.0
H1425 H 0.53399 0.22339 0.88518 0.0
H1426 H 0.56068 0.14181 0.7899 0.0
H1427 H 0.58674 0.13963 0.81863 0.0
H1428 H 0.55792 0.12349 0.82874 0.0
H1429 H 0.55398 0.25087 0.84687 0.0
H1430 H 0.5834 0.23845 0.83172 0.0
H1431 H 0.55693 0.23906 0.80358 0.0
H1432 H 0.6434 0.19159 0.77424 0.0
H1433 H 0.57976 0.19573 0.70672 0.0
H1434 H 0.61332 0.17114 0.84687 0.0
H1435 H 0.61154 0.20448 0.85129 0.0
H1436 H 0.63959 0.19037 0.83415 0.0
H1437 H 0.53477 0.17536 0.76375 0.0
H1438 H 0.53834 0.19569 0.72697 0.0
H1439 H 0.53422 0.20862 0.76947 0.0
C1440 C 0.70232 0.82885 0.14492 0.0
C1441 C 0.70161 0.80264 0.14179 0.0
C1442 C 0.70159 0.8443 0.11572 0.0
C1443 C 0.6999 0.83322 0.08271 0.0
C1444 C 0.69893 0.80677 0.07943 0.0
C1445 C 0.6999 0.79179 0.10903 0.0
C1446 C 0.70287 0.87244 0.12015 0.0
C1447 C 0.69685 0.79431 0.04465 0.0
C1448 C 0.67498 0.87239 0.00893 0.0
C1449 C 0.69711 0.87866 0.99147 0.0
C1450 C 0.67562 0.85764 0.03876 0.0
C1451 C 0.699 0.84926 0.05153 0.0
C1452 C 0.72145 0.85589 0.03425 0.0
C1453 C 0.72021 0.87043 0.00423 0.0
C1454 C 0.65129 0.85092 0.05644 0.0
C1455 C 0.74675 0.84764 0.04746 0.0
H1456 H 0.70394 0.83726 0.17022 0.0
H1457 H 0.69909 0.77153 0.10661 0.0
H1458 H 0.71938 0.88006 0.10622 0.0
H1459 H 0.68596 0.88128 0.10883 0.0
H1460 H 0.70422 0.87807 0.14761 0.0
H1461 H 0.69611 0.77351 0.04657 0.0
H1462 H 0.67971 0.80088 0.03127 0.0
H1463 H 0.71313 0.79965 0.02841 0.0
H1464 H 0.65709 0.87886 0.99913 0.0
H1465 H 0.73735 0.87558 0.99094 0.0
H1466 H 0.6516 0.85764 0.08344 0.0
H1467 H 0.649 0.83022 0.05721 0.0
H1468 H 0.63473 0.85915 0.04331 0.0
H1469 H 0.74936 0.85406 0.07438 0.0
H1470 H 0.76244 0.85509 0.03163 0.0
H1471 H 0.74777 0.82684 0.04759 0.0
C1472 C 1.00757 0.92586 0.25831 0.0
C1473 C 1.00213 0.94888 0.24258 0.0
C1474 C 1.02193 0.92491 0.28851 0.0
C1475 C 1.03069 0.94755 0.30341 0.0
C1476 C 1.02497 0.97084 0.28776 0.0
C1477 C 1.01087 0.9712 0.25736 0.0
C1478 C 1.02783 0.89973 0.30434 0.0
C1479 C 1.0337 0.9954 0.30315 0.0
C1480 C 1.04989 0.95044 0.39727 0.0
C1481 C 0.07608 0.95123 0.39451 0.0
C1482 C 1.03479 0.94848 0.36782 0.0
C1483 C 1.04626 0.94703 0.33503 0.0
C1484 C 0.07272 0.94669 0.33229 0.0
C1485 C 0.08732 0.94893 0.36209 0.0
C1486 C 1.00662 0.94904 0.37168 0.0
C1487 C 0.0856 0.94481 0.2978 0.0
H1488 H 1.00071 0.90857 0.24691 0.0
H1489 H 1.00637 0.98902 0.24541 0.0
H1490 H 1.04844 0.89711 0.30565 0.0
H1491 H 1.02062 0.89896 0.33108 0.0
H1492 H 1.01955 0.8839 0.28955 0.0
H1493 H 1.027 1.0119 0.28832 0.0
H1494 H 1.02687 0.99707 0.33001 0.0
H1495 H 1.05449 0.99595 0.30401 0.0
H1496 H 1.04121 0.95237 0.42235 0.0
H1497 H 0.1076 0.94921 0.36004 0.0
H1498 H 0.99799 0.9329 0.35805 0.0
H1499 H 0.99915 0.9664 0.35974 0.0
H1500 H 1.00068 0.94853 0.39906 0.0
H1501 H 0.07825 0.92847 0.28321 0.0
H1502 H 0.10626 0.94289 0.30033 0.0
H1503 H 0.08159 0.96186 0.28238 0.0
C1504 C 0.95162 0.27223 0.50061 0.0
C1505 C 0.92873 0.2635 0.4875 0.0
C1506 C 0.95226 0.28889 0.52858 0.0
C1507 C 0.92948 0.29642 0.54413 0.0
C1508 C 0.90633 0.28742 0.53108 0.0
C1509 C 0.90625 0.27125 0.50266 0.0
C1510 C 0.97726 0.2984 0.54145 0.0
C1511 C 0.88167 0.29463 0.54738 0.0
C1512 C 0.92915 0.31939 0.63645 0.0
C1513 C 0.92579 0.34527 0.63203 0.0
C1514 C 0.93095 0.3033 0.60801 0.0
C1515 C 0.92968 0.31344 0.5744 0.0
C1516 C 0.92719 0.33968 0.5698 0.0
C1517 C 0.92504 0.35528 0.59873 0.0
C1518 C 0.93325 0.27538 0.61394 0.0
C1519 C 0.92621 0.35119 0.53435 0.0
H1520 H 0.96903 0.26625 0.48879 0.0
H1521 H 0.88855 0.26426 0.49268 0.0
H1522 H 0.97751 0.31923 0.54131 0.0
H1523 H 0.98018 0.29231 0.56843 0.0
H1524 H 0.99316 0.29152 0.52561 0.0
H1525 H 0.86538 0.28564 0.53442 0.0
H1526 H 0.88156 0.28907 0.57488 0.0
H1527 H 0.87926 0.31529 0.54639 0.0
H1528 H 0.92948 0.31161 0.66221 0.0
H1529 H 0.92268 0.37534 0.59534 0.0
H1530 H 0.9498 0.26791 0.60008 0.0
H1531 H 0.91645 0.26565 0.60352 0.0
H1532 H 0.93506 0.27064 0.64165 0.0
H1533 H 0.94255 0.34497 0.5189 0.0
H1534 H 0.92611 0.37204 0.53521 0.0
H1535 H 0.90906 0.34473 0.52078 0.0
C1536 C 0.58002 0.96952 0.13531 0.0
C1537 C 0.58078 0.95057 0.11029 0.0
C1538 C 0.566 0.96653 0.16551 0.0
C1539 C 0.55249 0.94397 0.17094 0.0
C1540 C 0.55383 0.92441 0.14636 0.0
C1541 C 0.56797 0.92795 0.11625 0.0
C1542 C 0.56508 0.98782 0.19115 0.0
C1543 C 0.53969 0.90008 0.15135 0.0
C1544 C 0.52919 0.93255 0.26198 0.0
C1545 C 0.50453 0.94137 0.25975 0.0
C1546 C 0.54489 0.93252 0.23297 0.0
C1547 C 0.53566 0.94172 0.20123 0.0
C1548 C 0.51058 0.95016 0.19878 0.0
C1549 C 0.49529 0.94977 0.22805 0.0
C1550 C 0.57145 0.92314 0.23642 0.0
C1551 C 0.50007 0.96021 0.16545 0.0
H1552 H 0.59032 0.98683 0.13118 0.0
H1553 H 0.56841 0.91329 0.09693 0.0
H1554 H 0.54562 0.995 0.19313 0.0
H1555 H 0.57058 0.98105 0.21704 0.0
H1556 H 0.57761 1.00365 0.18385 0.0
H1557 H 0.54432 0.88599 0.13129 0.0
H1558 H 0.54396 0.89198 0.17698 0.0
H1559 H 0.51922 0.90369 0.15052 0.0
H1560 H 0.53625 0.92578 0.28642 0.0
H1561 H 0.47616 0.95649 0.22622 0.0
H1562 H 0.58479 0.93885 0.23213 0.0
H1563 H 0.57535 0.90872 0.21655 0.0
H1564 H 0.57515 0.91492 0.26219 0.0
H1565 H 0.51065 0.97725 0.15761 0.0
H1566 H 0.4799 0.96514 0.16758 0.0
H1567 H 0.50229 0.94613 0.14467 0.0
C1568 C 0.4001 0.33404 0.87913 0.0
C1569 C 0.42128 0.34168 0.86038 0.0
C1570 C 0.40248 0.31961 0.90908 0.0
C1571 C 0.42662 0.31236 0.92039 0.0
C1572 C 0.44811 0.32016 0.90184 0.0
C1573 C 0.44519 0.33483 0.87213 0.0
C1574 C 0.37912 0.3117 0.92828 0.0
C1575 C 0.47415 0.31264 0.91303 0.0
C1576 C 0.43331 0.29027 0.01282 0.0
C1577 C 0.43179 0.26418 0.00883 0.0
C1578 C 0.43192 0.30625 0.98418 0.0
C1579 C 0.42922 0.29579 0.95089 0.0
C1580 C 0.42823 0.26941 0.94673 0.0
C1581 C 0.42943 0.25392 0.9758 0.0
C1582 C 0.43286 0.33431 0.98957 0.0
C1583 C 0.42563 0.25754 0.91163 0.0
H1584 H 0.38154 0.33889 0.86998 0.0
H1585 H 0.46167 0.34097 0.8581 0.0
H1586 H 0.37726 0.29095 0.92769 0.0
H1587 H 0.38051 0.31738 0.95567 0.0
H1588 H 0.36185 0.32001 0.91714 0.0
H1589 H 0.48895 0.32079 0.89626 0.0
H1590 H 0.47759 0.31879 0.93988 0.0
H1591 H 0.47585 0.29189 0.91254 0.0
H1592 H 0.43524 0.29821 0.03836 0.0
H1593 H 0.42845 0.23372 0.97264 0.0
H1594 H 0.41511 0.34287 0.98049 0.0
H1595 H 0.44829 0.34265 0.97419 0.0
H1596 H 0.43568 0.33941 0.01701 0.0
H1597 H 0.40764 0.26332 0.89972 0.0
H1598 H 0.42613 0.2367 0.91275 0.0
H1599 H 0.44094 0.26413 0.89451 0.0
C1600 C 0.10711 0.21072 0.7421 0.0
C1601 C 0.11559 0.1877 0.75498 0.0
C1602 C 0.09077 0.21158 0.7138 0.0
C1603 C 0.08324 0.1889 0.69776 0.0
C1604 C 0.09213 0.16565 0.71043 0.0
C1605 C 0.10805 0.16533 0.7391 0.0
C1606 C 0.08144 0.23669 0.70125 0.0
C1607 C 0.08489 0.14108 0.69368 0.0
C1608 C 1.02402 0.1845 0.64403 0.0
C1609 C 1.03374 0.18528 0.61056 0.0
C1610 C 1.03985 0.18665 0.67271 0.0
C1611 C 0.06603 0.18928 0.66772 0.0
C1612 C 0.07588 0.19067 0.63396 0.0
C1613 C 1.05957 0.18878 0.60576 0.0
C1614 C 1.02863 0.18547 0.70834 0.0
C1615 C 0.10372 0.19316 0.62762 0.0
H1616 H 0.11296 0.22803 0.75444 0.0
H1617 H 0.11485 0.14754 0.74887 0.0
H1618 H 0.08714 0.23961 0.6741 0.0
H1619 H 1.06065 0.23708 0.70202 0.0
H1620 H 0.08877 0.25254 0.71693 0.0
H1621 H 0.09399 0.12471 0.70616 0.0
H1622 H 0.06426 0.13848 0.6949 0.0
H1623 H 0.09024 0.14133 0.6661 0.0
H1624 H 1.004 0.18207 0.64775 0.0
H1625 H 0.06715 0.18915 0.57989 0.0
H1626 H 1.03501 0.20178 0.72384 0.0
H1627 H 1.03515 0.16827 0.72164 0.0
H1628 H 1.0078 0.18529 0.7078 0.0
H1629 H 0.11137 0.20956 0.64178 0.0
H1630 H 0.10821 0.19536 0.59988 0.0
H1631 H 0.11347 0.17625 0.63744 0.0
C1632 C 0.17153 0.87413 0.48485 0.0
C1633 C 0.19319 0.87658 0.50499 0.0
C1634 C 0.17155 0.85928 0.45509 0.0
C1635 C 0.19378 0.84668 0.44538 0.0
C1636 C 0.21568 0.84905 0.46575 0.0
C1637 C 0.21512 0.86403 0.49536 0.0
C1638 C 0.1479 0.85727 0.43389 0.0
C1639 C 0.23975 0.83595 0.45609 0.0
C1640 C 0.19033 0.79111 0.38458 0.0
C1641 C 0.19809 0.80203 0.35354 0.0
C1642 C 0.18842 0.80553 0.41465 0.0
C1643 C 0.19437 0.83143 0.41349 0.0
C1644 C 0.20163 0.84267 0.38205 0.0
C1645 C 0.20341 0.82781 0.35244 0.0
C1646 C 0.18066 0.79294 0.4478 0.0
C1647 C 0.20794 0.87029 0.37982 0.0
H1648 H 0.15457 0.88392 0.49226 0.0
H1649 H 0.23192 0.86605 0.51084 0.0
H1650 H 0.15141 0.86445 0.40753 0.0
H1651 H 0.14217 0.83731 0.43143 0.0
H1652 H 0.13211 0.86798 0.44529 0.0
H1653 H 0.25496 0.83938 0.47506 0.0
H1654 H 0.23648 0.81542 0.45413 0.0
H1655 H 0.2462 0.84253 0.4305 0.0
H1656 H 0.18642 0.77114 0.38557 0.0
H1657 H 0.20906 0.83637 0.32834 0.0
H1658 H 0.16429 0.80274 0.45911 0.0
H1659 H 0.19618 0.79418 0.46675 0.0
H1660 H 0.17571 0.77286 0.44405 0.0
H1661 H 0.19199 0.88165 0.38936 0.0
H1662 H 0.21242 0.87627 0.35314 0.0
H1663 H 0.2243 0.87457 0.39648 0.0
C1664 C 1.04041 0.65867 0.36222 0.0
C1665 C 1.03069 0.67975 0.37922 0.0
C1666 C 1.05606 0.66129 0.33343 0.0
C1667 C 0.06243 0.68559 0.32154 0.0
C1668 C 1.05264 0.70697 0.33841 0.0
C1669 C 1.03679 0.70379 0.36693 0.0
C1670 C 0.06606 0.63802 0.31602 0.0
C1671 C 1.05916 0.73319 0.32658 0.0
C1672 C 0.12229 0.69093 0.26917 0.0
C1673 C 0.11293 0.69192 0.23552 0.0
C1674 C 0.10603 0.68938 0.29745 0.0
C1675 C 0.0798 0.68855 0.29187 0.0
C1676 C 0.07025 0.68982 0.25793 0.0
C1677 C 0.08696 0.69165 0.23012 0.0
C1678 C 0.11694 0.68839 0.33327 0.0
C1679 C 1.04241 0.68878 0.25096 0.0
H1680 H 1.0362 0.64003 0.37182 0.0
H1681 H 1.0291 0.72019 0.37957 0.0
H1682 H 1.06121 0.63828 0.28827 0.0
H1683 H 0.08681 0.63765 0.31792 0.0
H1684 H 1.05849 0.62049 0.32757 0.0
H1685 H 1.04985 0.74785 0.34234 0.0
H1686 H 0.07975 0.7361 0.32797 0.0
H1687 H 1.05356 0.73574 0.29933 0.0
H1688 H 0.14239 0.69134 0.27343 0.0
H1689 H 0.07967 0.69249 0.20412 0.0
H1690 H 0.11195 0.67029 0.34564 0.0
H1691 H 0.10888 0.70357 0.34933 0.0
H1692 H 0.1377 0.69035 0.33325 0.0
H1693 H 1.0346 0.67074 0.26051 0.0
H1694 H 1.038 0.69053 0.22314 0.0
H1695 H 1.03274 0.70406 0.26504 0.0
C1696 C 0.19546 0.28394 0.60081 0.0
C1697 C 0.19526 0.29397 0.63413 0.0
C1698 C 0.19362 0.29959 0.5719 0.0
C1699 C 0.19186 0.32589 0.5765 0.0
C1700 C 0.19125 0.33609 0.61011 0.0
C1701 C 0.19283 0.31997 0.63856 0.0
C1702 C 0.19398 0.28802 0.53645 0.0
C1703 C 0.18967 0.36406 0.61601 0.0
C1704 C 0.21448 0.3673 0.5034 0.0
C1705 C 0.19181 0.375 0.48869 0.0
C1706 C 0.21473 0.35147 0.53218 0.0
C1707 C 0.19174 0.34281 0.54613 0.0
C1708 C 0.16877 0.3504 0.53116 0.0
C1709 C 0.16908 0.36665 0.50276 0.0
C1710 C 0.23959 0.3442 0.54784 0.0
C1711 C 0.14391 0.34137 0.54513 0.0
H1712 H 0.19707 0.26381 0.59739 0.0
H1713 H 0.19293 0.32778 0.66431 0.0
H1714 H 0.17738 0.29424 0.52155 0.0
H1715 H 0.21089 0.29446 0.5223 0.0
H1716 H 0.19407 0.26718 0.53734 0.0
H1717 H 0.18851 0.3689 0.64376 0.0
H1718 H 0.20643 0.37344 0.6049 0.0
H1719 H 0.17299 0.37184 0.60275 0.0
H1720 H 0.23205 0.37406 0.49277 0.0
H1721 H 0.15153 0.37265 0.49138 0.0
H1722 H 0.24178 0.32351 0.54722 0.0
H1723 H 0.24023 0.35007 0.57521 0.0
H1724 H 0.25574 0.35288 0.53418 0.0
H1725 H 0.14331 0.32054 0.54517 0.0
H1726 H 0.12778 0.34845 0.5299 0.0
H1727 H 0.14167 0.34763 0.57217 0.0
C1728 C 0.53044 0.43476 0.73613 0.0
C1729 C 0.50563 0.44313 0.73838 0.0
C1730 C 0.54614 0.43512 0.76512 0.0
C1731 C 0.53675 0.4443 0.79677 0.0
C1732 C 0.51163 0.45261 0.79912 0.0
C1733 C 0.49633 0.45178 0.76991 0.0
C1734 C 0.57277 0.42591 0.76184 0.0
C1735 C 0.50098 0.46274 0.83234 0.0
C1736 C 0.5679 0.42967 0.88208 0.0
C1737 C 0.58072 0.45218 0.88871 0.0
C1738 C 0.55419 0.42644 0.85159 0.0
C1739 C 0.5533 0.44622 0.82731 0.0
C1740 C 0.56682 0.46867 0.8334 0.0
C1741 C 0.58043 0.47134 0.86398 0.0
C1742 C 0.54 0.40222 0.84587 0.0
C1743 C 0.56629 0.49019 0.80809 0.0
H1744 H 0.53752 0.42784 0.71178 0.0
H1745 H 0.47711 0.45823 0.77171 0.0
H1746 H 0.58603 0.44154 0.76714 0.0
H1747 H 0.57644 0.41105 0.78117 0.0
H1748 H 0.5768 0.41829 0.73583 0.0
H1749 H 0.48095 0.46811 0.82988 0.0
H1750 H 0.50267 0.44847 0.85299 0.0
H1751 H 0.51184 0.47949 0.84062 0.0
H1752 H 0.56798 0.41485 0.90119 0.0
H1753 H 0.59076 0.48857 0.86866 0.0
H1754 H 0.54452 0.39433 0.8202 0.0
H1755 H 0.51954 0.40592 0.84634 0.0
H1756 H 0.54434 0.38792 0.86579 0.0
H1757 H 0.57189 0.48359 0.78216 0.0
H1758 H 0.57893 0.50582 0.81582 0.0
H1759 H 0.54692 0.49757 0.806 0.0
C1760 C 0.40861 0.77099 0.00436 0.0
C1761 C 0.43081 0.7615 0.99034 0.0
C1762 C 0.4091 0.78581 0.03411 0.0
C1763 C 0.4324 0.79147 0.04983 0.0
C1764 C 0.45491 0.78206 0.0356 0.0
C1765 C 0.45383 0.76698 0.00608 0.0
C1766 C 0.38466 0.7952 0.04887 0.0
C1767 C 0.48009 0.78786 0.05156 0.0
C1768 C 0.43172 0.84847 0.108 0.0
C1769 C 0.4291 0.83733 0.14045 0.0
C1770 C 0.43385 0.8337 0.07831 0.0
C1771 C 0.43301 0.80723 0.08124 0.0
C1772 C 0.43114 0.79589 0.11406 0.0
C1773 C 0.42932 0.81112 0.14335 0.0
C1774 C 0.43623 0.84642 0.04375 0.0
C1775 C 0.42999 0.76771 0.11812 0.0
H1776 H 0.39079 0.76648 0.99239 0.0
H1777 H 0.47101 0.75955 0.99525 0.0
H1778 H 0.38254 0.78862 0.07579 0.0
H1779 H 0.38468 0.81602 0.04941 0.0
H1780 H 0.36815 0.78871 0.03383 0.0
H1781 H 0.49587 0.77968 0.03668 0.0
H1782 H 0.48285 0.80848 0.05325 0.0
H1783 H 0.48078 0.78038 0.07817 0.0
H1784 H 0.43185 0.86876 0.10584 0.0
H1785 H 0.42708 0.80251 0.16844 0.0
H1786 H 0.41925 0.84255 0.02812 0.0
H1787 H 0.45253 0.83878 0.02947 0.0
H1788 H 0.43854 0.86708 0.04615 0.0
H1789 H 0.41264 0.76039 0.10589 0.0
H1790 H 0.43011 0.76186 0.14555 0.0
H1791 H 0.4461 0.7588 0.10489 0.0
C1792 C 0.0931 0.44545 0.6425 0.0
C1793 C 0.08385 0.4563 0.61221 0.0
C1794 C 0.07773 0.44276 0.67163 0.0
C1795 C 1.0525 0.45094 0.67027 0.0
C1796 C 1.04287 0.46117 0.6394 0.0
C1797 C 1.05868 0.46379 0.6108 0.0
C1798 C 0.08868 0.43189 0.70417 0.0
C1799 C 1.016 0.46986 0.63678 0.0
C1800 C 1.00528 0.42881 0.73707 0.0
C1801 C 1.00385 0.44982 0.75868 0.0
C1802 C 1.02136 0.42869 0.70846 0.0
C1803 C 1.03643 0.45003 0.70153 0.0
C1804 C 1.03538 0.4711 0.7237 0.0
C1805 C 1.019 0.47078 0.75192 0.0
C1806 C 1.02178 0.40597 0.68524 0.0
C1807 C 1.0512 0.49419 0.71724 0.0
H1808 H 0.11259 0.43978 0.64375 0.0
H1809 H 1.05135 0.4718 0.58723 0.0
H1810 H 0.08865 0.44635 0.72472 0.0
H1811 H 0.077 0.41598 0.71335 0.0
H1812 H 0.10821 0.4252 0.70048 0.0
H1813 H 1.01106 0.47612 0.61039 0.0
H1814 H 1.00304 0.45449 0.64438 0.0
H1815 H 1.01281 0.4857 0.65478 0.0
H1816 H 0.9935 0.4126 0.74216 0.0
H1817 H 1.01791 0.48708 0.76855 0.0
H1818 H 1.0412 0.39877 0.68285 0.0
H1819 H 1.01547 0.41131 0.65906 0.0
H1820 H 1.00952 0.39059 0.69484 0.0
H1821 H 0.07127 0.48896 0.71526 0.0
H1822 H 1.04913 0.50845 0.73789 0.0
H1823 H 1.04577 0.50287 0.6924 0.0
C1824 C 0.92697 0.81787 0.3573 0.0
C1825 C 0.92455 0.84386 0.36177 0.0
C1826 C 0.92857 0.80172 0.3857 0.0
C1827 C 0.92806 0.81187 0.41935 0.0
C1828 C 0.9264 0.83818 0.42399 0.0
C1829 C 0.92446 0.85387 0.39511 0.0
C1830 C 0.92998 0.77375 0.37971 0.0
C1831 C 0.92624 0.84971 0.45946 0.0
C1832 C 0.90494 0.77011 0.49184 0.0
C1833 C 0.9275 0.76184 0.50627 0.0
C1834 C 0.90489 0.78635 0.46347 0.0
C1835 C 0.92798 0.79485 0.44965 0.0
C1836 C 0.95085 0.78678 0.46446 0.0
C1837 C 0.95034 0.77011 0.49243 0.0
C1838 C 0.88012 0.79414 0.44802 0.0
C1839 C 0.97582 0.79571 0.45075 0.0
H1840 H 0.92679 0.81009 0.33153 0.0
H1841 H 0.92283 0.87399 0.39856 0.0
H1842 H 0.94662 0.76585 0.3929 0.0
H1843 H 0.91317 0.76446 0.39084 0.0
H1844 H 0.93106 0.76894 0.35194 0.0
H1845 H 0.92649 0.87055 0.4586 0.0
H1846 H 0.90922 0.84354 0.47359 0.0
H1847 H 0.94273 0.8432 0.47436 0.0
H1848 H 0.88728 0.76349 0.50235 0.0
H1849 H 0.96781 0.76373 0.50365 0.0
H1850 H 0.87935 0.78854 0.42055 0.0
H1851 H 0.87824 0.81486 0.44901 0.0
H1852 H 0.86386 0.78559 0.46158 0.0
H1853 H 0.97814 0.7895 0.4237 0.0
H1854 H 0.99184 0.78849 0.46608 0.0
H1855 H 0.97655 0.81653 0.45081 0.0
C1856 C 0.53074 0.66494 0.14073 0.0
C1857 C 0.52954 0.68303 0.11457 0.0
C1858 C 0.54636 0.66832 0.16936 0.0
C1859 C 0.56101 0.69043 0.17206 0.0
C1860 C 0.55931 0.70916 0.14635 0.0
C1861 C 0.54364 0.7052 0.11783 0.0
C1862 C 0.54766 0.64792 0.19629 0.0
C1863 C 0.57455 0.73304 0.1485 0.0
C1864 C 0.58751 0.70489 0.26053 0.0
C1865 C 0.61188 0.69538 0.25761 0.0
C1866 C 0.57093 0.70413 0.23252 0.0
C1867 C 0.57889 0.69333 0.2011 0.0
C1868 C 0.60368 0.68415 0.19789 0.0
C1869 C 0.61995 0.68545 0.22616 0.0
C1870 C 0.54476 0.71443 0.23674 0.0
C1871 C 0.61282 0.67236 0.16488 0.0
H1872 H 0.51955 0.64798 0.1387 0.0
H1873 H 0.54301 0.71915 0.09756 0.0
H1874 H 0.56699 0.64033 0.19755 0.0
H1875 H 0.54321 0.65575 0.222 0.0
H1876 H 0.53451 0.6322 0.19086 0.0
H1877 H 0.56976 0.74648 0.12768 0.0
H1878 H 0.57151 0.74234 0.17368 0.0
H1879 H 0.59481 0.72855 0.14666 0.0
H1880 H 0.58137 0.71284 0.28477 0.0
H1881 H 0.63883 0.67813 0.22387 0.0
H1882 H 0.53087 0.69897 0.23443 0.0
H1883 H 0.54064 0.72814 0.21604 0.0
H1884 H 0.5421 0.72379 0.26202 0.0
H1885 H 0.6015 0.65536 0.15906 0.0
H1886 H 0.63289 0.66689 0.16626 0.0
H1887 H 0.61035 0.68559 0.14313 0.0
C1888 C 0.67084 0.37125 0.9866 0.0
C1889 C 0.69322 0.37741 0.00349 0.0
C1890 C 0.6711 0.35676 0.95653 0.0
C1891 C 0.69433 0.34864 0.94296 0.0
C1892 C 0.71702 0.35524 0.95964 0.0
C1893 C 0.71617 0.36944 0.98994 0.0
C1894 C 0.64655 0.34997 0.93948 0.0
C1895 C 0.74217 0.34731 0.94553 0.0
C1896 C 0.6964 0.29158 0.885 0.0
C1897 C 0.6981 0.30268 0.85242 0.0
C1898 C 0.69469 0.30636 0.91469 0.0
C1899 C 0.69494 0.33283 0.91163 0.0
C1900 C 0.69635 0.34415 0.87875 0.0
C1901 C 0.69779 0.32889 0.84945 0.0
C1902 C 0.69289 0.29368 0.94935 0.0
C1903 C 0.69691 0.37234 0.8746 0.0
H1904 H 0.65309 0.37754 0.99708 0.0
H1905 H 0.73348 0.37455 0.00282 0.0
H1906 H 0.64639 0.35682 0.91255 0.0
H1907 H 0.64439 0.32925 0.93858 0.0
H1908 H 0.63015 0.35801 0.95319 0.0
H1909 H 0.75806 0.35484 0.96091 0.0
H1910 H 0.74339 0.32653 0.94518 0.0
H1911 H 0.74425 0.35388 0.91859 0.0
H1912 H 0.69638 0.27129 0.88721 0.0
H1913 H 0.69936 0.33745 0.82424 0.0
H1914 H 0.67595 0.30025 0.96321 0.0
H1915 H 0.7094 0.2988 0.96528 0.0
H1916 H 0.69202 0.2729 0.94716 0.0
H1917 H 0.68015 0.38079 0.88685 0.0
H1918 H 0.69745 0.37814 0.84717 0.0
H1919 H 0.71363 0.38019 0.88781 0.0
C1920 C 0.27484 0.24529 0.17087 0.0
C1921 C 0.29535 0.26186 0.17185 0.0
C1922 C 0.25106 0.25297 0.18223 0.0
C1923 C 0.24805 0.27758 0.19525 0.0
C1924 C 0.26834 0.29483 0.19384 0.0
C1925 C 0.29165 0.28677 0.18191 0.0
C1926 C 0.22982 0.23421 0.18207 0.0
C1927 C 0.26601 0.32145 0.20702 0.0
C1928 C 0.19407 0.31779 0.21951 0.0
C1929 C 0.19795 0.31854 0.2552 0.0
C1930 C 0.20752 0.3009 0.19894 0.0
C1931 C 0.2253 0.28497 0.21464 0.0
C1932 C 0.22565 0.28251 0.25087 0.0
C1933 C 0.21188 0.29941 0.27084 0.0
C1934 C 0.20534 0.30268 0.16037 0.0
C1935 C 0.24363 0.26496 0.26866 0.0
H1936 H 0.27761 0.22601 0.16283 0.0
H1937 H 0.30734 0.29977 0.18168 0.0
H1938 H 0.23065 0.22278 0.20589 0.0
H1939 H 0.21122 0.24346 0.18091 0.0
H1940 H 0.23156 0.22116 0.15991 0.0
H1941 H 0.28345 0.33256 0.20312 0.0
H1942 H 0.25044 0.33122 0.19374 0.0
H1943 H 0.26166 0.32125 0.23494 0.0
H1944 H 0.18254 0.33199 0.2074 0.0
H1945 H 0.21467 0.29954 0.29846 0.0
H1946 H 0.20824 0.28407 0.14817 0.0
H1947 H 0.21997 0.31566 0.15045 0.0
H1948 H 0.18674 0.31009 0.15259 0.0
H1949 H 0.24383 0.2464 0.25577 0.0
H1950 H 0.23869 0.26222 0.29617 0.0
H1951 H 0.26288 0.2729 0.26729 0.0
C1952 C 0.65968 0.60264 0.54053 0.0
C1953 C 0.66554 0.59163 0.50873 0.0
C1954 C 0.64746 0.58854 0.56602 0.0
C1955 C 0.64034 0.56357 0.55854 0.0
C1956 C 0.65137 0.55116 0.53019 0.0
C1957 C 0.66439 0.5654 0.5057 0.0
C1958 C 0.63839 0.60152 0.5981 0.0
C1959 C 0.64558 0.52402 0.52239 0.0
C1960 C 0.59052 0.52481 0.60434 0.0
C1961 C 0.56904 0.53179 0.58579 0.0
C1962 C 0.61387 0.53609 0.59758 0.0
C1963 C 0.61573 0.55428 0.57117 0.0
C1964 C 0.59376 0.56229 0.55374 0.0
C1965 C 0.57073 0.55118 0.56167 0.0
C1966 C 0.63638 0.5276 0.61793 0.0
C1967 C 0.59453 0.5818 0.52546 0.0
H1968 H 0.66141 0.62276 0.5439 0.0
H1969 H 0.67027 0.55659 0.4819 0.0
H1970 H 0.61946 0.60942 0.59342 0.0
H1971 H 0.63703 0.5881 0.61989 0.0
H1972 H 0.65112 0.61721 0.60532 0.0
H1973 H 0.65837 0.51626 0.50253 0.0
H1974 H 0.64711 0.51249 0.54602 0.0
H1975 H 0.62602 0.5224 0.51279 0.0
H1976 H 0.58932 0.50991 0.62325 0.0
H1977 H 0.55401 0.55724 0.54818 0.0
H1978 H 0.65223 0.54111 0.61655 0.0
H1979 H 0.64276 0.50919 0.60794 0.0
H1980 H 0.6312 0.52482 0.64535 0.0
H1981 H 0.60158 0.5999 0.53576 0.0
H1982 H 0.57579 0.58516 0.51388 0.0
H1983 H 0.60743 0.57575 0.5047 0.0
C1984 C 0.28534 0.80497 0.69388 0.0
C1985 C 0.26278 0.80382 0.67561 0.0
C1986 C 0.29908 0.78328 0.70078 0.0
C1987 C 0.29013 0.75973 0.68884 0.0
C1988 C 0.26782 0.75848 0.66922 0.0
C1989 C 0.25428 0.78061 0.66296 0.0
C1990 C 0.32297 0.78564 0.72155 0.0
C1991 C 0.25765 0.7339 0.65579 0.0
C1992 C 0.34558 0.71855 0.69886 0.0
C1993 C 0.34319 0.71323 0.73406 0.0
C1994 C 0.32604 0.73034 0.68103 0.0
C1995 C 0.30397 0.73681 0.69907 0.0
C1996 C 0.29969 0.7268 0.73224 0.0
C1997 C 0.3195 0.71508 0.74951 0.0
C1998 C 0.33062 0.73937 0.64482 0.0
C1999 C 0.27585 0.73222 0.75172 0.0
H2000 H 0.29226 0.82295 0.70292 0.0
H2001 H 0.23677 0.77965 0.64886 0.0
H2002 H 0.32131 0.77463 0.74568 0.0
H2003 H 0.33903 0.77799 0.70679 0.0
H2004 H 0.32735 0.80541 0.72846 0.0
H2005 H 0.24626 0.7368 0.63219 0.0
H2006 H 0.27283 0.72036 0.64998 0.0
H2007 H 0.24526 0.72539 0.67555 0.0
H2008 H 0.36362 0.71623 0.68641 0.0
H2009 H 0.31723 0.71055 0.77652 0.0
H2010 H 0.33748 0.75906 0.6456 0.0
H2011 H 0.31305 0.73897 0.62953 0.0
H2012 H 0.34501 0.72778 0.63167 0.0
H2013 H 0.27671 0.75162 0.76212 0.0
H2014 H 0.27323 0.71905 0.77359 0.0
H2015 H 0.25932 0.73094 0.73451 0.0
C2016 C 0.11961 0.53657 0.0966 0.0
C2017 C 0.11605 0.55698 0.07435 0.0
C2018 C 0.10823 0.51323 0.08984 0.0
C2019 C 0.09304 0.51049 0.0602 0.0
C2020 C 0.08963 0.5311 0.03762 0.0
C2021 C 0.10114 0.55402 0.04504 0.0
C2022 C 0.11275 0.49162 0.11411 0.0
C2023 C 0.07335 0.52923 0.00581 0.0
C2024 C 0.07189 0.4564 0.00741 0.0
C2025 C 1.04597 0.4585 0.01278 0.0
C2026 C 0.08878 0.47048 0.02729 0.0
C2027 C 0.0793 0.48688 0.05272 0.0
C2028 C 1.05381 0.48522 0.06245 0.0
C2029 C 1.03732 0.47107 0.04218 0.0
C2030 C 0.11613 0.47072 0.01748 0.0
C2031 C 1.04312 0.50165 0.09044 0.0
H2032 H 0.13138 0.53882 0.11913 0.0
H2033 H 0.09799 0.5699 0.02817 0.0
H2034 H 0.09546 0.48035 0.11812 0.0
H2035 H 0.12708 0.47902 0.10281 0.0
H2036 H 0.11975 0.49818 0.1395 0.0
H2037 H 0.07297 0.54702 0.99091 0.0
H2038 H 0.08034 0.51414 0.98869 0.0
H2039 H 1.05383 0.5244 0.01318 0.0
H2040 H 0.07878 0.44585 0.98553 0.0
H2041 H 1.01736 0.47251 0.04705 0.0
H2042 H 0.12818 0.47304 0.04053 0.0
H2043 H 0.11979 0.48682 3e-05 0.0
H2044 H 0.1215 0.45321 0.00387 0.0
H2045 H 1.05638 0.50342 0.1123 0.0
H2046 H 1.02499 0.49415 0.10015 0.0
H2047 H 1.03979 0.52073 0.07996 0.0
C2048 C 0.82013 0.86381 0.77995 0.0
C2049 C 0.81647 0.87933 0.80851 0.0
C2050 C 0.84381 0.85429 0.77218 0.0
C2051 C 0.86448 0.86041 0.7936 0.0
C2052 C 0.86118 0.87689 0.82175 0.0
C2053 C 0.83709 0.88605 0.82905 0.0
C2054 C 0.84639 0.83678 0.74173 0.0
C2055 C 0.88265 0.88417 0.84502 0.0
C2056 C 0.90634 0.80581 0.782 0.0
C2057 C 0.91842 0.81314 0.75152 0.0
C2058 C 0.89148 0.82281 0.80026 0.0
C2059 C 0.8886 0.84744 0.78739 0.0
C2060 C 0.90452 0.8561 0.76081 0.0
C2061 C 0.91936 0.83873 0.74302 0.0
C2062 C 0.8757 0.81319 0.82969 0.0
C2063 C 0.90304 0.88271 0.74779 0.0
H2064 H 0.80421 0.85829 0.7643 0.0
H2065 H 0.83436 0.8983 0.851 0.0
H2066 H 0.861 0.84386 0.72386 0.0
H2067 H 0.85229 0.81792 0.75067 0.0
H2068 H 0.82859 0.83468 0.72715 0.0
H2069 H 0.87958 0.90302 0.85648 0.0
H2070 H 0.88387 0.87047 0.86644 0.0
H2071 H 0.90086 0.88422 0.83124 0.0
H2072 H 0.9058 0.78619 0.78933 0.0
H2073 H 0.92957 0.84473 0.72033 0.0
H2074 H 0.85649 0.80901 0.82021 0.0
H2075 H 0.87416 0.82752 0.85025 0.0
H2076 H 0.88359 0.79573 0.84088 0.0
H2077 H 0.88707 0.88431 0.72962 0.0
H2078 H 0.92044 0.88819 0.73394 0.0
H2079 H 0.8998 0.89604 0.76925 0.0
C2080 C 0.76814 0.28708 0.14017 0.0
C2081 C 0.76414 0.30378 0.16756 0.0
C2082 C 0.78403 0.26628 0.14397 0.0
C2083 C 0.79637 0.26245 0.17574 0.0
C2084 C 0.79145 0.27867 0.20386 0.0
C2085 C 0.77543 0.29909 0.19937 0.0
C2086 C 0.78832 0.2493 0.1135 0.0
C2087 C 0.80411 0.27529 0.23838 0.0
C2088 C 0.83031 0.20893 0.2155 0.0
C2089 C 0.85438 0.21966 0.21706 0.0
C2090 C 0.81115 0.2207 0.19685 0.0
C2091 C 0.81644 0.24346 0.1796 0.0
C2092 C 0.8416 0.25135 0.17556 0.0
C2093 C 0.86037 0.23937 0.19452 0.0
C2094 C 0.7847 0.21085 0.19988 0.0
C2095 C 0.84819 0.27491 0.15593 0.0
H2096 H 0.75914 0.29045 0.11561 0.0
H2097 H 0.77265 0.31208 0.22048 0.0
H2098 H 0.8041 0.25682 0.09797 0.0
H2099 H 0.79312 0.2299 0.12147 0.0
H2100 H 0.7715 0.24863 0.09667 0.0
H2101 H 0.79737 0.28895 0.25786 0.0
H2102 H 0.80064 0.25608 0.24833 0.0
H2103 H 0.82468 0.27771 0.23554 0.0
H2104 H 0.8258 0.19298 0.23169 0.0
H2105 H 0.87897 0.24761 0.19485 0.0
H2106 H 0.77402 0.21421 0.17583 0.0
H2107 H 0.77499 0.22084 0.22107 0.0
H2108 H 0.78447 0.19045 0.20579 0.0
H2109 H 0.83729 0.27606 0.1317 0.0
H2110 H 0.8685 0.27579 0.14967 0.0
H2111 H 0.84343 0.29155 0.17181 0.0
C2112 C 0.16457 1.05587 0.97632 0.0
C2113 C 0.15434 0.07877 0.98737 0.0
C2114 C 0.1553 1.03295 0.98893 0.0
C2115 C 0.13551 1.03312 0.01312 0.0
C2116 C 0.12774 1.05613 0.02786 0.0
C2117 C 0.13716 0.07868 0.01468 0.0
C2118 C 0.16484 1.00879 0.97361 0.0
C2119 C 0.10712 1.05717 0.05449 0.0
C2120 C 0.07748 0.99382 0.00599 0.0
C2121 C 0.0782 0.98051 0.03708 0.0
C2122 C 0.09764 1.00889 0.99573 0.0
C2123 C 0.11896 1.0109 0.01728 0.0
C2124 C 0.12116 0.99511 0.04634 0.0
C2125 C 0.10069 0.98 0.05591 0.0
C2126 C 0.09474 1.02495 0.96394 0.0
C2127 C 0.14396 0.99596 0.06927 0.0
H2128 H 0.17852 1.05576 0.95605 0.0
H2129 H 0.12911 0.09615 0.02363 0.0
H2130 H 0.16416 0.99322 0.99255 0.0
H2131 H 0.15286 1.00348 0.95143 0.0
H2132 H 0.18439 1.01095 0.96414 0.0
H2133 H 0.10574 0.07598 0.06666 0.0
H2134 H 0.08887 1.05279 0.04209 0.0
H2135 H 0.1103 1.04303 0.07493 0.0
H2136 H 1.06031 0.99443 0.99111 0.0
H2137 H 0.10175 0.9691 0.07941 0.0
H2138 H 0.11201 1.02439 0.94809 0.0
H2139 H 0.09159 1.04476 0.97166 0.0
H2140 H 0.07867 1.01882 0.94777 0.0
H2141 H 0.16124 1.00011 0.0544 0.0
H2142 H 0.14643 0.97793 0.08321 0.0
H2143 H 0.14155 1.01101 0.08869 0.0
C2144 C 0.62443 1.03221 0.60798 0.0
C2145 C 0.61033 1.05433 0.60975 0.0
C2146 C 0.61347 1.00985 0.59613 0.0
C2147 C 0.58836 1.01022 0.58446 0.0
C2148 C 0.57336 1.03172 0.59033 0.0
C2149 C 0.58455 1.0535 0.60333 0.0
C2150 C 0.62947 0.98668 0.59298 0.0
C2151 C 0.54633 1.03293 0.57871 0.0
C2152 C 0.56962 0.98563 0.49825 0.0
C2153 C 0.54951 0.9701 0.50741 0.0
C2154 C 0.58461 0.99679 0.52348 0.0
C2155 C 0.57962 0.99172 0.55862 0.0
C2156 C 0.56186 0.97306 0.56761 0.0
C2157 C 0.54656 0.96276 0.54182 0.0
C2158 C 0.60349 1.01647 0.51253 0.0
C2159 C 0.55728 0.96569 0.60452 0.0
H2160 H 0.64432 1.03278 0.61377 0.0
H2161 H 0.57364 0.07061 0.60494 0.0
H2162 H 0.61797 0.9693 0.59438 0.0
H2163 H 0.63939 0.9869 0.5679 0.0
H2164 H 0.64391 0.9862 0.61357 0.0
H2165 H 0.53695 1.05046 0.58719 0.0
H2166 H 0.54546 1.032 0.55021 0.0
H2167 H 0.53561 1.01674 0.58899 0.0
H2168 H 0.57195 0.99127 0.47164 0.0
H2169 H 0.53128 0.95029 0.54881 0.0
H2170 H 0.62196 1.0128 0.52451 0.0
H2171 H 0.59718 1.03527 0.52123 0.0
H2172 H 0.60603 1.01706 0.48418 0.0
H2173 H 0.57406 0.96901 0.6208 0.0
H2174 H 0.55188 0.94557 0.60626 0.0
H2175 H 0.5415 0.97684 0.61502 0.0
loop_
_geom_bond_atom_site_label_1
_geom_bond_atom_site_label_2
_geom_bond_distance
_geom_bond_site_symmetry_2
_ccdc_geom_bond_type
Pr0 C2 2.880 . S
Pr0 O20 2.562 . S
Pr0 O21 2.490 . S
Pr0 O22 2.695 1_556 S
Pr0 O23 2.512 1_556 S
Pr0 O25 2.437 1_556 S
Pr0 O28 2.436 1_556 S
Pr0 O30 2.438 . S
Pr1 C11 2.880 . S
Pr1 O22 2.436 . S
Pr1 O24 2.438 . S
Pr1 O26 2.562 . S
Pr1 O27 2.490 . S
Pr1 O28 2.695 . S
Pr1 O29 2.512 . S
Pr1 O31 2.437 . S
C2 Pr0 2.880 . S
C2 C3 1.491 . S
C2 O20 1.254 . S
C2 O21 1.225 . S
C3 C2 1.491 . S
C3 C4 1.392 . S
C3 C8 1.356 . S
C4 C3 1.392 . S
C4 C5 1.368 . S
C4 H32 0.929 . S
C5 C4 1.368 . S
C5 C6 1.386 . S
C5 H33 0.929 . S
C6 C5 1.386 . S
C6 C7 1.373 . S
C7 C6 1.373 . S
C7 C8 1.409 . S
C7 H34 0.931 . S
C8 C3 1.356 . S
C8 C7 1.409 . S
C8 H35 0.930 . S
C9 O22 1.270 . S
C9 O23 1.248 . S
C10 O24 1.267 . S
C10 O25 1.278 . S
C11 Pr1 2.880 . S
C11 C12 1.491 . S
C11 O26 1.254 . S
C11 O27 1.225 . S
C12 C11 1.491 . S
C12 C13 1.392 . S
C12 C17 1.356 . S
C13 C12 1.392 . S
C13 C14 1.368 . S
C13 H36 0.929 . S
C14 C13 1.368 . S
C14 C15 1.386 . S
C14 H37 0.929 . S
C15 C14 1.386 . S
C15 C16 1.373 . S
C16 C15 1.373 . S
C16 C17 1.409 . S
C16 H38 0.931 . S
C17 C12 1.356 . S
C17 C16 1.409 . S
C17 H39 0.930 . S
C18 O28 1.270 1_556 S
C18 O29 1.248 1_556 S
C19 O30 1.267 1_554 S
C19 O31 1.278 . S
O20 Pr0 2.562 . S
O20 C2 1.254 . S
O21 Pr0 2.490 . S
O21 C2 1.225 . S
O22 Pr0 2.695 1_554 S
O22 Pr1 2.436 . S
O22 C9 1.270 . S
O23 Pr0 2.512 1_554 S
O23 C9 1.248 . S
O24 Pr1 2.438 . S
O24 C10 1.267 . S
O25 Pr0 2.437 1_554 S
O25 C10 1.278 . S
O26 Pr1 2.562 . S
O26 C11 1.254 . S
O27 Pr1 2.490 . S
O27 C11 1.225 . S
O28 Pr0 2.436 1_554 S
O28 Pr1 2.695 . S
O28 C18 1.270 1_554 S
O29 Pr1 2.512 . S
O29 C18 1.248 1_554 S
O30 Pr0 2.438 . S
O30 C19 1.267 1_556 S
O31 Pr1 2.437 . S
O31 C19 1.278 . S
H32 C4 0.929 . S
H33 C5 0.929 . S
H34 C7 0.931 . S
H35 C8 0.930 . S
H36 C13 0.929 . S
H37 C14 0.929 . S
H38 C16 0.931 . S
H39 C17 0.930 . S
Pr40 C42 2.880 . S
Pr40 O60 2.562 . S
Pr40 O61 2.490 . S
Pr40 O62 2.695 . S
Pr40 O63 2.512 . S
Pr40 O65 2.437 . S
Pr40 O68 2.436 . S
Pr40 O70 2.438 . S
Pr41 C51 2.880 . S
Pr41 O62 2.436 . S
Pr41 O64 2.438 . S
Pr41 O66 2.562 . S
Pr41 O67 2.490 . S
Pr41 O68 2.695 . S
Pr41 O69 2.512 . S
Pr41 O71 2.437 . S
C42 Pr40 2.880 . S
C42 C43 1.491 . S
C42 O60 1.254 . S
C42 O61 1.225 . S
C43 C42 1.491 . S
C43 C44 1.392 . S
C43 C48 1.356 . S
C44 C43 1.392 . S
C44 C45 1.368 . S
C44 H72 0.929 . S
C45 C44 1.368 . S
C45 C46 1.386 . S
C45 H73 0.929 . S
C46 C45 1.386 . S
C46 C47 1.373 . S
C47 C46 1.373 . S
C47 C48 1.409 . S
C47 H74 0.931 . S
C48 C43 1.356 . S
C48 C47 1.409 . S
C48 H75 0.930 . S
C49 O62 1.270 . S
C49 O63 1.248 . S
C50 O64 1.267 . S
C50 O65 1.278 . S
C51 Pr41 2.880 . S
C51 C52 1.491 . S
C51 O66 1.254 . S
C51 O67 1.225 . S
C52 C51 1.491 . S
C52 C53 1.392 . S
C52 C57 1.356 . S
C53 C52 1.392 . S
C53 C54 1.368 . S
C53 H76 0.929 . S
C54 C53 1.368 . S
C54 C55 1.386 . S
C54 H77 0.929 . S
C55 C54 1.386 . S
C55 C56 1.373 . S
C56 C55 1.373 . S
C56 C57 1.409 . S
C56 H78 0.931 . S
C57 C52 1.356 . S
C57 C56 1.409 . S
C57 H79 0.930 . S
C58 O68 1.270 . S
C58 O69 1.248 . S
C59 O70 1.267 . S
C59 O71 1.278 . S
O60 Pr40 2.562 . S
O60 C42 1.254 . S
O61 Pr40 2.490 . S
O61 C42 1.225 . S
O62 Pr40 2.695 . S
O62 Pr41 2.436 . S
O62 C49 1.270 . S
O63 Pr40 2.512 . S
O63 C49 1.248 . S
O64 Pr41 2.438 . S
O64 C50 1.267 . S
O65 Pr40 2.437 . S
O65 C50 1.278 . S
O66 Pr41 2.562 . S
O66 C51 1.254 . S
O67 Pr41 2.490 . S
O67 C51 1.225 . S
O68 Pr40 2.436 . S
O68 Pr41 2.695 . S
O68 C58 1.270 . S
O69 Pr41 2.512 . S
O69 C58 1.248 . S
O70 Pr40 2.438 . S
O70 C59 1.267 . S
O71 Pr41 2.437 . S
O71 C59 1.278 . S
H72 C44 0.929 . S
H73 C45 0.929 . S
H74 C47 0.931 . S
H75 C48 0.930 . S
H76 C53 0.929 . S
H77 C54 0.929 . S
H78 C56 0.931 . S
H79 C57 0.930 . S
Pr80 C82 2.880 . S
Pr80 O100 2.562 . S
Pr80 O101 2.490 . S
Pr80 O102 2.695 . S
Pr80 O103 2.512 . S
Pr80 O105 2.437 . S
Pr80 O108 2.436 . S
Pr80 O110 2.438 . S
Pr81 C91 2.880 . S
Pr81 O102 2.436 . S
Pr81 O104 2.438 . S
Pr81 O106 2.562 . S
Pr81 O107 2.490 . S
Pr81 O108 2.695 . S
Pr81 O109 2.512 . S
Pr81 O111 2.437 . S
C82 Pr80 2.880 . S
C82 C83 1.491 . S
C82 O100 1.254 . S
C82 O101 1.225 . S
C83 C82 1.491 . S
C83 C84 1.392 . S
C83 C88 1.356 . S
C84 C83 1.392 . S
C84 C85 1.368 . S
C84 H112 0.929 . S
C85 C84 1.368 . S
C85 C86 1.386 . S
C85 H113 0.929 . S
C86 C85 1.386 . S
C86 C87 1.373 . S
C87 C86 1.373 . S
C87 C88 1.409 . S
C87 H114 0.931 . S
C88 C83 1.356 . S
C88 C87 1.409 . S
C88 H115 0.930 . S
C89 O102 1.270 . S
C89 O103 1.248 . S
C90 O104 1.267 . S
C90 O105 1.278 . S
C91 Pr81 2.880 . S
C91 C92 1.491 . S
C91 O106 1.254 . S
C91 O107 1.225 . S
C92 C91 1.491 . S
C92 C93 1.392 . S
C92 C97 1.356 . S
C93 C92 1.392 . S
C93 C94 1.368 . S
C93 H116 0.929 . S
C94 C93 1.368 . S
C94 C95 1.386 . S
C94 H117 0.929 . S
C95 C94 1.386 . S
C95 C96 1.373 . S
C96 C95 1.373 . S
C96 C97 1.409 . S
C96 H118 0.931 . S
C97 C92 1.356 . S
C97 C96 1.409 . S
C97 H119 0.930 . S
C98 O108 1.270 . S
C98 O109 1.248 . S
C99 O110 1.267 . S
C99 O111 1.278 . S
O100 Pr80 2.562 . S
O100 C82 1.254 . S
O101 Pr80 2.490 . S
O101 C82 1.225 . S
O102 Pr80 2.695 . S
O102 Pr81 2.436 . S
O102 C89 1.270 . S
O103 Pr80 2.512 . S
O103 C89 1.248 . S
O104 Pr81 2.438 . S
O104 C90 1.267 . S
O105 Pr80 2.437 . S
O105 C90 1.278 . S
O106 Pr81 2.562 . S
O106 C91 1.254 . S
O107 Pr81 2.490 . S
O107 C91 1.225 . S
O108 Pr80 2.436 . S
O108 Pr81 2.695 . S
O108 C98 1.270 . S
O109 Pr81 2.512 . S
O109 C98 1.248 . S
O110 Pr80 2.438 . S
O110 C99 1.267 . S
O111 Pr81 2.437 . S
O111 C99 1.278 . S
H112 C84 0.929 . S
H113 C85 0.929 . S
H114 C87 0.931 . S
H115 C88 0.930 . S
H116 C93 0.929 . S
H117 C94 0.929 . S
H118 C96 0.931 . S
H119 C97 0.930 . S
Pr120 C122 2.880 . S
Pr120 O140 2.562 . S
Pr120 O141 2.490 . S
Pr120 O142 2.695 . S
Pr120 O143 2.512 . S
Pr120 O145 2.437 . S
Pr120 O148 2.436 . S
Pr120 O150 2.438 . S
Pr121 C131 2.880 . S
Pr121 O142 2.436 . S
Pr121 O144 2.438 . S
Pr121 O146 2.562 . S
Pr121 O147 2.490 . S
Pr121 O148 2.695 . S
Pr121 O149 2.512 . S
Pr121 O151 2.437 . S
C122 Pr120 2.880 . S
C122 C123 1.491 . S
C122 O140 1.254 . S
C122 O141 1.225 . S
C123 C122 1.491 . S
C123 C124 1.392 . S
C123 C128 1.356 . S
C124 C123 1.392 . S
C124 C125 1.368 . S
C124 H152 0.929 . S
C125 C124 1.368 . S
C125 C126 1.386 . S
C125 H153 0.929 . S
C126 C125 1.386 . S
C126 C127 1.373 . S
C127 C126 1.373 . S
C127 C128 1.409 . S
C127 H154 0.931 . S
C128 C123 1.356 . S
C128 C127 1.409 . S
C128 H155 0.930 . S
C129 O142 1.270 . S
C129 O143 1.248 . S
C130 O144 1.267 . S
C130 O145 1.278 . S
C131 Pr121 2.880 . S
C131 C132 1.491 . S
C131 O146 1.254 . S
C131 O147 1.225 . S
C132 C131 1.491 . S
C132 C133 1.392 . S
C132 C137 1.356 . S
C133 C132 1.392 . S
C133 C134 1.368 . S
C133 H156 0.929 . S
C134 C133 1.368 . S
C134 C135 1.386 . S
C134 H157 0.929 . S
C135 C134 1.386 . S
C135 C136 1.373 . S
C136 C135 1.373 . S
C136 C137 1.409 . S
C136 H158 0.931 . S
C137 C132 1.356 . S
C137 C136 1.409 . S
C137 H159 0.930 . S
C138 O148 1.270 . S
C138 O149 1.248 . S
C139 O150 1.267 . S
C139 O151 1.278 . S
O140 Pr120 2.562 . S
O140 C122 1.254 . S
O141 Pr120 2.490 . S
O141 C122 1.225 . S
O142 Pr120 2.695 . S
O142 Pr121 2.436 . S
O142 C129 1.270 . S
O143 Pr120 2.512 . S
O143 C129 1.248 . S
O144 Pr121 2.438 . S
O144 C130 1.267 . S
O145 Pr120 2.437 . S
O145 C130 1.278 . S
O146 Pr121 2.562 . S
O146 C131 1.254 . S
O147 Pr121 2.490 . S
O147 C131 1.225 . S
O148 Pr120 2.436 . S
O148 Pr121 2.695 . S
O148 C138 1.270 . S
O149 Pr121 2.512 . S
O149 C138 1.248 . S
O150 Pr120 2.438 . S
O150 C139 1.267 . S
O151 Pr121 2.437 . S
O151 C139 1.278 . S
H152 C124 0.929 . S
H153 C125 0.929 . S
H154 C127 0.931 . S
H155 C128 0.930 . S
H156 C133 0.929 . S
H157 C134 0.929 . S
H158 C136 0.931 . S
H159 C137 0.930 . S
Pr160 C162 2.880 . S
Pr160 O180 2.562 . S
Pr160 O181 2.490 . S
Pr160 O182 2.695 . S
Pr160 O183 2.512 . S
Pr160 O185 2.437 . S
Pr160 O188 2.436 . S
Pr160 O190 2.438 . S
Pr161 C171 2.880 . S
Pr161 O182 2.436 1_554 S
Pr161 O184 2.438 . S
Pr161 O186 2.562 . S
Pr161 O187 2.490 . S
Pr161 O188 2.695 1_554 S
Pr161 O189 2.512 1_554 S
Pr161 O191 2.437 1_554 S
C162 Pr160 2.880 . S
C162 C163 1.491 . S
C162 O180 1.254 . S
C162 O181 1.225 . S
C163 C162 1.491 . S
C163 C164 1.392 . S
C163 C168 1.356 . S
C164 C163 1.392 . S
C164 C165 1.368 . S
C164 H192 0.929 . S
C165 C164 1.368 . S
C165 C166 1.386 . S
C165 H193 0.929 . S
C166 C165 1.386 . S
C166 C167 1.373 . S
C167 C166 1.373 . S
C167 C168 1.409 . S
C167 H194 0.931 . S
C168 C163 1.356 . S
C168 C167 1.409 . S
C168 H195 0.930 . S
C169 O182 1.270 1_554 S
C169 O183 1.248 1_554 S
C170 O184 1.267 1_556 S
C170 O185 1.278 . S
C171 Pr161 2.880 . S
C171 C172 1.491 . S
C171 O186 1.254 . S
C171 O187 1.225 . S
C172 C171 1.491 . S
C172 C173 1.392 . S
C172 C177 1.356 . S
C173 C172 1.392 . S
C173 C174 1.368 . S
C173 H196 0.929 . S
C174 C173 1.368 . S
C174 C175 1.386 . S
C174 H197 0.929 . S
C175 C174 1.386 . S
C175 C176 1.373 . S
C176 C175 1.373 . S
C176 C177 1.409 . S
C176 H198 0.931 . S
C177 C172 1.356 . S
C177 C176 1.409 . S
C177 H199 0.930 . S
C178 O188 1.270 . S
C178 O189 1.248 . S
C179 O190 1.267 . S
C179 O191 1.278 . S
O180 Pr160 2.562 . S
O180 C162 1.254 . S
O181 Pr160 2.490 . S
O181 C162 1.225 . S
O182 Pr160 2.695 . S
O182 Pr161 2.436 1_556 S
O182 C169 1.270 1_556 S
O183 Pr160 2.512 . S
O183 C169 1.248 1_556 S
O184 Pr161 2.438 . S
O184 C170 1.267 1_554 S
O185 Pr160 2.437 . S
O185 C170 1.278 . S
O186 Pr161 2.562 . S
O186 C171 1.254 . S
O187 Pr161 2.490 . S
O187 C171 1.225 . S
O188 Pr160 2.436 . S
O188 Pr161 2.695 1_556 S
O188 C178 1.270 . S
O189 Pr161 2.512 1_556 S
O189 C178 1.248 . S
O190 Pr160 2.438 . S
O190 C179 1.267 . S
O191 Pr161 2.437 1_556 S
O191 C179 1.278 . S
H192 C164 0.929 . S
H193 C165 0.929 . S
H194 C167 0.931 . S
H195 C168 0.930 . S
H196 C173 0.929 . S
H197 C174 0.929 . S
H198 C176 0.931 . S
H199 C177 0.930 . S
Pr200 C202 2.880 . S
Pr200 O220 2.562 . S
Pr200 O221 2.490 . S
Pr200 O222 2.695 . S
Pr200 O223 2.512 . S
Pr200 O225 2.437 . S
Pr200 O228 2.436 . S
Pr200 O230 2.438 . S
Pr201 C211 2.880 . S
Pr201 O222 2.436 . S
Pr201 O224 2.438 . S
Pr201 O226 2.562 . S
Pr201 O227 2.490 . S
Pr201 O228 2.695 . S
Pr201 O229 2.512 . S
Pr201 O231 2.437 . S
C202 Pr200 2.880 . S
C202 C203 1.491 . S
C202 O220 1.254 . S
C202 O221 1.225 . S
C203 C202 1.491 . S
C203 C204 1.392 . S
C203 C208 1.356 . S
C204 C203 1.392 . S
C204 C205 1.368 . S
C204 H232 0.929 . S
C205 C204 1.368 . S
C205 C206 1.386 . S
C205 H233 0.929 . S
C206 C205 1.386 . S
C206 C207 1.373 . S
C207 C206 1.373 . S
C207 C208 1.409 . S
C207 H234 0.931 . S
C208 C203 1.356 . S
C208 C207 1.409 . S
C208 H235 0.930 . S
C209 O222 1.270 . S
C209 O223 1.248 . S
C210 O224 1.267 . S
C210 O225 1.278 . S
C211 Pr201 2.880 . S
C211 C212 1.491 . S
C211 O226 1.254 . S
C211 O227 1.225 . S
C212 C211 1.491 . S
C212 C213 1.392 . S
C212 C217 1.356 . S
C213 C212 1.392 . S
C213 C214 1.368 . S
C213 H236 0.929 . S
C214 C213 1.368 . S
C214 C215 1.386 . S
C214 H237 0.929 . S
C215 C214 1.386 . S
C215 C216 1.373 . S
C216 C215 1.373 . S
C216 C217 1.409 . S
C216 H238 0.931 . S
C217 C212 1.356 . S
C217 C216 1.409 . S
C217 H239 0.930 . S
C218 O228 1.270 . S
C218 O229 1.248 . S
C219 O230 1.267 . S
C219 O231 1.278 . S
O220 Pr200 2.562 . S
O220 C202 1.254 . S
O221 Pr200 2.490 . S
O221 C202 1.225 . S
O222 Pr200 2.695 . S
O222 Pr201 2.436 . S
O222 C209 1.270 . S
O223 Pr200 2.512 . S
O223 C209 1.248 . S
O224 Pr201 2.438 . S
O224 C210 1.267 . S
O225 Pr200 2.437 . S
O225 C210 1.278 . S
O226 Pr201 2.562 . S
O226 C211 1.254 . S
O227 Pr201 2.490 . S
O227 C211 1.225 . S
O228 Pr200 2.436 . S
O228 Pr201 2.695 . S
O228 C218 1.270 . S
O229 Pr201 2.512 . S
O229 C218 1.248 . S
O230 Pr200 2.438 . S
O230 C219 1.267 . S
O231 Pr201 2.437 . S
O231 C219 1.278 . S
H232 C204 0.929 . S
H233 C205 0.929 . S
H234 C207 0.931 . S
H235 C208 0.930 . S
H236 C213 0.929 . S
H237 C214 0.929 . S
H238 C216 0.931 . S
H239 C217 0.930 . S
Pr240 C242 2.880 . S
Pr240 O260 2.562 . S
Pr240 O261 2.490 . S
Pr240 O262 2.695 . S
Pr240 O263 2.512 . S
Pr240 O265 2.437 . S
Pr240 O268 2.436 . S
Pr240 O270 2.438 . S
Pr241 C251 2.880 . S
Pr241 O262 2.436 . S
Pr241 O264 2.438 . S
Pr241 O266 2.562 . S
Pr241 O267 2.490 . S
Pr241 O268 2.695 . S
Pr241 O269 2.512 . S
Pr241 O271 2.437 . S
C242 Pr240 2.880 . S
C242 C243 1.491 . S
C242 O260 1.254 . S
C242 O261 1.225 . S
C243 C242 1.491 . S
C243 C244 1.392 . S
C243 C248 1.356 . S
C244 C243 1.392 . S
C244 C245 1.368 . S
C244 H272 0.929 . S
C245 C244 1.368 . S
C245 C246 1.386 . S
C245 H273 0.929 . S
C246 C245 1.386 . S
C246 C247 1.373 . S
C247 C246 1.373 . S
C247 C248 1.409 . S
C247 H274 0.931 . S
C248 C243 1.356 . S
C248 C247 1.409 . S
C248 H275 0.930 . S
C249 O262 1.270 . S
C249 O263 1.248 . S
C250 O264 1.267 . S
C250 O265 1.278 . S
C251 Pr241 2.880 . S
C251 C252 1.491 . S
C251 O266 1.254 . S
C251 O267 1.225 . S
C252 C251 1.491 . S
C252 C253 1.392 . S
C252 C257 1.356 . S
C253 C252 1.392 . S
C253 C254 1.368 . S
C253 H276 0.929 . S
C254 C253 1.368 . S
C254 C255 1.386 . S
C254 H277 0.929 . S
C255 C254 1.386 . S
C255 C256 1.373 . S
C256 C255 1.373 . S
C256 C257 1.409 . S
C256 H278 0.931 . S
C257 C252 1.356 . S
C257 C256 1.409 . S
C257 H279 0.930 . S
C258 O268 1.270 . S
C258 O269 1.248 . S
C259 O270 1.267 . S
C259 O271 1.278 . S
O260 Pr240 2.562 . S
O260 C242 1.254 . S
O261 Pr240 2.490 . S
O261 C242 1.225 . S
O262 Pr240 2.695 . S
O262 Pr241 2.436 . S
O262 C249 1.270 . S
O263 Pr240 2.512 . S
O263 C249 1.248 . S
O264 Pr241 2.438 . S
O264 C250 1.267 . S
O265 Pr240 2.437 . S
O265 C250 1.278 . S
O266 Pr241 2.562 . S
O266 C251 1.254 . S
O267 Pr241 2.490 . S
O267 C251 1.225 . S
O268 Pr240 2.436 . S
O268 Pr241 2.695 . S
O268 C258 1.270 . S
O269 Pr241 2.512 . S
O269 C258 1.248 . S
O270 Pr240 2.438 . S
O270 C259 1.267 . S
O271 Pr241 2.437 . S
O271 C259 1.278 . S
H272 C244 0.929 . S
H273 C245 0.929 . S
H274 C247 0.931 . S
H275 C248 0.930 . S
H276 C253 0.929 . S
H277 C254 0.929 . S
H278 C256 0.931 . S
H279 C257 0.930 . S
Pr280 C282 2.880 . S
Pr280 O300 2.562 . S
Pr280 O301 2.490 . S
Pr280 O302 2.695 . S
Pr280 O303 2.512 . S
Pr280 O305 2.437 . S
Pr280 O308 2.436 . S
Pr280 O310 2.438 . S
Pr281 C291 2.880 . S
Pr281 O302 2.436 . S
Pr281 O304 2.438 . S
Pr281 O306 2.562 . S
Pr281 O307 2.490 . S
Pr281 O308 2.695 . S
Pr281 O309 2.512 . S
Pr281 O311 2.437 . S
C282 Pr280 2.880 . S
C282 C283 1.491 . S
C282 O300 1.254 . S
C282 O301 1.225 . S
C283 C282 1.491 . S
C283 C284 1.392 . S
C283 C288 1.356 . S
C284 C283 1.392 . S
C284 C285 1.368 . S
C284 H312 0.929 . S
C285 C284 1.368 . S
C285 C286 1.386 . S
C285 H313 0.929 . S
C286 C285 1.386 . S
C286 C287 1.373 . S
C287 C286 1.373 . S
C287 C288 1.409 . S
C287 H314 0.931 . S
C288 C283 1.356 . S
C288 C287 1.409 . S
C288 H315 0.930 . S
C289 O302 1.270 . S
C289 O303 1.248 . S
C290 O304 1.267 . S
C290 O305 1.278 . S
C291 Pr281 2.880 . S
C291 C292 1.491 . S
C291 O306 1.254 . S
C291 O307 1.225 . S
C292 C291 1.491 . S
C292 C293 1.392 . S
C292 C297 1.356 . S
C293 C292 1.392 . S
C293 C294 1.368 . S
C293 H316 0.929 . S
C294 C293 1.368 . S
C294 C295 1.386 . S
C294 H317 0.929 . S
C295 C294 1.386 . S
C295 C296 1.373 . S
C296 C295 1.373 . S
C296 C297 1.409 . S
C296 H318 0.931 . S
C297 C292 1.356 . S
C297 C296 1.409 . S
C297 H319 0.930 . S
C298 O308 1.270 . S
C298 O309 1.248 . S
C299 O310 1.267 . S
C299 O311 1.278 . S
O300 Pr280 2.562 . S
O300 C282 1.254 . S
O301 Pr280 2.490 . S
O301 C282 1.225 . S
O302 Pr280 2.695 . S
O302 Pr281 2.436 . S
O302 C289 1.270 . S
O303 Pr280 2.512 . S
O303 C289 1.248 . S
O304 Pr281 2.438 . S
O304 C290 1.267 . S
O305 Pr280 2.437 . S
O305 C290 1.278 . S
O306 Pr281 2.562 . S
O306 C291 1.254 . S
O307 Pr281 2.490 . S
O307 C291 1.225 . S
O308 Pr280 2.436 . S
O308 Pr281 2.695 . S
O308 C298 1.270 . S
O309 Pr281 2.512 . S
O309 C298 1.248 . S
O310 Pr280 2.438 . S
O310 C299 1.267 . S
O311 Pr281 2.437 . S
O311 C299 1.278 . S
H312 C284 0.929 . S
H313 C285 0.929 . S
H314 C287 0.931 . S
H315 C288 0.930 . S
H316 C293 0.929 . S
H317 C294 0.929 . S
H318 C296 0.931 . S
H319 C297 0.930 . S
Pr320 C322 2.880 . S
Pr320 O340 2.562 . S
Pr320 O341 2.490 . S
Pr320 O342 2.695 . S
Pr320 O343 2.512 . S
Pr320 O345 2.437 . S
Pr320 O348 2.436 . S
Pr320 O350 2.438 . S
Pr321 C331 2.880 . S
Pr321 O342 2.436 . S
Pr321 O344 2.438 . S
Pr321 O346 2.562 . S
Pr321 O347 2.490 . S
Pr321 O348 2.695 . S
Pr321 O349 2.512 . S
Pr321 O351 2.437 . S
C322 Pr320 2.880 . S
C322 C323 1.491 . S
C322 O340 1.254 . S
C322 O341 1.225 . S
C323 C322 1.491 . S
C323 C324 1.392 . S
C323 C328 1.356 . S
C324 C323 1.392 . S
C324 C325 1.368 . S
C324 H352 0.929 . S
C325 C324 1.368 . S
C325 C326 1.386 . S
C325 H353 0.929 . S
C326 C325 1.386 . S
C326 C327 1.373 . S
C327 C326 1.373 . S
C327 C328 1.409 . S
C327 H354 0.931 . S
C328 C323 1.356 . S
C328 C327 1.409 . S
C328 H355 0.930 . S
C329 O342 1.270 . S
C329 O343 1.248 . S
C330 O344 1.267 . S
C330 O345 1.278 . S
C331 Pr321 2.880 . S
C331 C332 1.491 . S
C331 O346 1.254 . S
C331 O347 1.225 . S
C332 C331 1.491 . S
C332 C333 1.392 . S
C332 C337 1.356 . S
C333 C332 1.392 . S
C333 C334 1.368 . S
C333 H356 0.929 . S
C334 C333 1.368 . S
C334 C335 1.386 . S
C334 H357 0.929 . S
C335 C334 1.386 . S
C335 C336 1.373 . S
C336 C335 1.373 . S
C336 C337 1.409 . S
C336 H358 0.931 . S
C337 C332 1.356 . S
C337 C336 1.409 . S
C337 H359 0.930 . S
C338 O348 1.270 . S
C338 O349 1.248 . S
C339 O350 1.267 . S
C339 O351 1.278 . S
O340 Pr320 2.562 . S
O340 C322 1.254 . S
O341 Pr320 2.490 . S
O341 C322 1.225 . S
O342 Pr320 2.695 . S
O342 Pr321 2.436 . S
O342 C329 1.270 . S
O343 Pr320 2.512 . S
O343 C329 1.248 . S
O344 Pr321 2.438 . S
O344 C330 1.267 . S
O345 Pr320 2.437 . S
O345 C330 1.278 . S
O346 Pr321 2.562 . S
O346 C331 1.254 . S
O347 Pr321 2.490 . S
O347 C331 1.225 . S
O348 Pr320 2.436 . S
O348 Pr321 2.695 . S
O348 C338 1.270 . S
O349 Pr321 2.512 . S
O349 C338 1.248 . S
O350 Pr320 2.438 . S
O350 C339 1.267 . S
O351 Pr321 2.437 . S
O351 C339 1.278 . S
H352 C324 0.929 . S
H353 C325 0.929 . S
H354 C327 0.931 . S
H355 C328 0.930 . S
H356 C333 0.929 . S
H357 C334 0.929 . S
H358 C336 0.931 . S
H359 C337 0.930 . S
Pr360 C362 2.880 . S
Pr360 O380 2.562 . S
Pr360 O381 2.490 . S
Pr360 O382 2.695 . S
Pr360 O383 2.512 . S
Pr360 O385 2.437 . S
Pr360 O388 2.436 . S
Pr360 O390 2.438 . S
Pr361 C371 2.880 . S
Pr361 O382 2.436 . S
Pr361 O384 2.438 . S
Pr361 O386 2.562 . S
Pr361 O387 2.490 . S
Pr361 O388 2.695 . S
Pr361 O389 2.512 . S
Pr361 O391 2.437 . S
C362 Pr360 2.880 . S
C362 C363 1.491 . S
C362 O380 1.254 . S
C362 O381 1.225 . S
C363 C362 1.491 . S
C363 C364 1.392 . S
C363 C368 1.356 . S
C364 C363 1.392 . S
C364 C365 1.368 . S
C364 H392 0.929 . S
C365 C364 1.368 . S
C365 C366 1.386 . S
C365 H393 0.929 . S
C366 C365 1.386 . S
C366 C367 1.373 . S
C367 C366 1.373 . S
C367 C368 1.409 . S
C367 H394 0.931 . S
C368 C363 1.356 . S
C368 C367 1.409 . S
C368 H395 0.930 . S
C369 O382 1.270 . S
C369 O383 1.248 . S
C370 O384 1.267 . S
C370 O385 1.278 . S
C371 Pr361 2.880 . S
C371 C372 1.491 . S
C371 O386 1.254 . S
C371 O387 1.225 . S
C372 C371 1.491 . S
C372 C373 1.392 . S
C372 C377 1.356 . S
C373 C372 1.392 . S
C373 C374 1.368 . S
C373 H396 0.929 . S
C374 C373 1.368 . S
C374 C375 1.386 . S
C374 H397 0.929 . S
C375 C374 1.386 . S
C375 C376 1.373 . S
C376 C375 1.373 . S
C376 C377 1.409 . S
C376 H398 0.931 . S
C377 C372 1.356 . S
C377 C376 1.409 . S
C377 H399 0.930 . S
C378 O388 1.270 . S
C378 O389 1.248 . S
C379 O390 1.267 . S
C379 O391 1.278 . S
O380 Pr360 2.562 . S
O380 C362 1.254 . S
O381 Pr360 2.490 . S
O381 C362 1.225 . S
O382 Pr360 2.695 . S
O382 Pr361 2.436 . S
O382 C369 1.270 . S
O383 Pr360 2.512 . S
O383 C369 1.248 . S
O384 Pr361 2.438 . S
O384 C370 1.267 . S
O385 Pr360 2.437 . S
O385 C370 1.278 . S
O386 Pr361 2.562 . S
O386 C371 1.254 . S
O387 Pr361 2.490 . S
O387 C371 1.225 . S
O388 Pr360 2.436 . S
O388 Pr361 2.695 . S
O388 C378 1.270 . S
O389 Pr361 2.512 . S
O389 C378 1.248 . S
O390 Pr360 2.438 . S
O390 C379 1.267 . S
O391 Pr361 2.437 . S
O391 C379 1.278 . S
H392 C364 0.929 . S
H393 C365 0.929 . S
H394 C367 0.931 . S
H395 C368 0.930 . S
H396 C373 0.929 . S
H397 C374 0.929 . S
H398 C376 0.931 . S
H399 C377 0.930 . S
Pr400 C402 2.880 . S
Pr400 O420 2.562 . S
Pr400 O421 2.490 . S
Pr400 O422 2.695 1_556 S
Pr400 O423 2.512 1_556 S
Pr400 O425 2.437 1_556 S
Pr400 O428 2.436 1_556 S
Pr400 O430 2.438 . S
Pr401 C411 2.880 . S
Pr401 O422 2.436 . S
Pr401 O424 2.438 . S
Pr401 O426 2.562 . S
Pr401 O427 2.490 . S
Pr401 O428 2.695 . S
Pr401 O429 2.512 . S
Pr401 O431 2.437 . S
C402 Pr400 2.880 . S
C402 C403 1.491 . S
C402 O420 1.254 . S
C402 O421 1.225 . S
C403 C402 1.491 . S
C403 C404 1.392 . S
C403 C408 1.356 . S
C404 C403 1.392 . S
C404 C405 1.368 . S
C404 H432 0.929 . S
C405 C404 1.368 . S
C405 C406 1.386 . S
C405 H433 0.929 . S
C406 C405 1.386 . S
C406 C407 1.373 . S
C407 C406 1.373 . S
C407 C408 1.409 . S
C407 H434 0.931 . S
C408 C403 1.356 . S
C408 C407 1.409 . S
C408 H435 0.930 . S
C409 O422 1.270 . S
C409 O423 1.248 . S
C410 O424 1.267 . S
C410 O425 1.278 . S
C411 Pr401 2.880 . S
C411 C412 1.491 . S
C411 O426 1.254 . S
C411 O427 1.225 . S
C412 C411 1.491 . S
C412 C413 1.392 . S
C412 C417 1.356 . S
C413 C412 1.392 . S
C413 C414 1.368 . S
C413 H436 0.929 . S
C414 C413 1.368 . S
C414 C415 1.386 . S
C414 H437 0.929 . S
C415 C414 1.386 . S
C415 C416 1.373 . S
C416 C415 1.373 . S
C416 C417 1.409 . S
C416 H438 0.931 . S
C417 C412 1.356 . S
C417 C416 1.409 . S
C417 H439 0.930 . S
C418 O428 1.270 1_556 S
C418 O429 1.248 1_556 S
C419 O430 1.267 1_554 S
C419 O431 1.278 . S
O420 Pr400 2.562 . S
O420 C402 1.254 . S
O421 Pr400 2.490 . S
O421 C402 1.225 . S
O422 Pr400 2.695 1_554 S
O422 Pr401 2.436 . S
O422 C409 1.270 . S
O423 Pr400 2.512 1_554 S
O423 C409 1.248 . S
O424 Pr401 2.438 . S
O424 C410 1.267 . S
O425 Pr400 2.437 1_554 S
O425 C410 1.278 . S
O426 Pr401 2.562 . S
O426 C411 1.254 . S
O427 Pr401 2.490 . S
O427 C411 1.225 . S
O428 Pr400 2.436 1_554 S
O428 Pr401 2.695 . S
O428 C418 1.270 1_554 S
O429 Pr401 2.512 . S
O429 C418 1.248 1_554 S
O430 Pr400 2.438 . S
O430 C419 1.267 1_556 S
O431 Pr401 2.437 . S
O431 C419 1.278 . S
H432 C404 0.929 . S
H433 C405 0.929 . S
H434 C407 0.931 . S
H435 C408 0.930 . S
H436 C413 0.929 . S
H437 C414 0.929 . S
H438 C416 0.931 . S
H439 C417 0.930 . S
Pr440 C442 2.880 . S
Pr440 O460 2.562 . S
Pr440 O461 2.490 . S
Pr440 O462 2.695 . S
Pr440 O463 2.512 . S
Pr440 O465 2.437 . S
Pr440 O468 2.436 . S
Pr440 O470 2.438 . S
Pr441 C451 2.880 . S
Pr441 O462 2.436 . S
Pr441 O464 2.438 . S
Pr441 O466 2.562 . S
Pr441 O467 2.490 . S
Pr441 O468 2.695 . S
Pr441 O469 2.512 . S
Pr441 O471 2.437 . S
C442 Pr440 2.880 . S
C442 C443 1.491 . S
C442 O460 1.254 . S
C442 O461 1.225 . S
C443 C442 1.491 . S
C443 C444 1.392 . S
C443 C448 1.356 . S
C444 C443 1.392 . S
C444 C445 1.368 . S
C444 H472 0.929 . S
C445 C444 1.368 . S
C445 C446 1.386 . S
C445 H473 0.929 . S
C446 C445 1.386 . S
C446 C447 1.373 . S
C447 C446 1.373 . S
C447 C448 1.409 . S
C447 H474 0.931 . S
C448 C443 1.356 . S
C448 C447 1.409 . S
C448 H475 0.930 . S
C449 O462 1.270 . S
C449 O463 1.248 . S
C450 O464 1.267 . S
C450 O465 1.278 . S
C451 Pr441 2.880 . S
C451 C452 1.491 . S
C451 O466 1.254 . S
C451 O467 1.225 . S
C452 C451 1.491 . S
C452 C453 1.392 . S
C452 C457 1.356 . S
C453 C452 1.392 . S
C453 C454 1.368 . S
C453 H476 0.929 . S
C454 C453 1.368 . S
C454 C455 1.386 . S
C454 H477 0.929 . S
C455 C454 1.386 . S
C455 C456 1.373 . S
C456 C455 1.373 . S
C456 C457 1.409 . S
C456 H478 0.931 . S
C457 C452 1.356 . S
C457 C456 1.409 . S
C457 H479 0.930 . S
C458 O468 1.270 . S
C458 O469 1.248 . S
C459 O470 1.267 . S
C459 O471 1.278 . S
O460 Pr440 2.562 . S
O460 C442 1.254 . S
O461 Pr440 2.490 . S
O461 C442 1.225 . S
O462 Pr440 2.695 . S
O462 Pr441 2.436 . S
O462 C449 1.270 . S
O463 Pr440 2.512 . S
O463 C449 1.248 . S
O464 Pr441 2.438 . S
O464 C450 1.267 . S
O465 Pr440 2.437 . S
O465 C450 1.278 . S
O466 Pr441 2.562 . S
O466 C451 1.254 . S
O467 Pr441 2.490 . S
O467 C451 1.225 . S
O468 Pr440 2.436 . S
O468 Pr441 2.695 . S
O468 C458 1.270 . S
O469 Pr441 2.512 . S
O469 C458 1.248 . S
O470 Pr440 2.438 . S
O470 C459 1.267 . S
O471 Pr441 2.437 . S
O471 C459 1.278 . S
H472 C444 0.929 . S
H473 C445 0.929 . S
H474 C447 0.931 . S
H475 C448 0.930 . S
H476 C453 0.929 . S
H477 C454 0.929 . S
H478 C456 0.931 . S
H479 C457 0.930 . S
Pr480 C482 2.880 . S
Pr480 O500 2.562 . S
Pr480 O501 2.490 . S
Pr480 O502 2.695 . S
Pr480 O503 2.512 . S
Pr480 O505 2.437 . S
Pr480 O508 2.436 . S
Pr480 O510 2.438 . S
Pr481 C491 2.880 . S
Pr481 O502 2.436 . S
Pr481 O504 2.438 . S
Pr481 O506 2.562 . S
Pr481 O507 2.490 . S
Pr481 O508 2.695 . S
Pr481 O509 2.512 . S
Pr481 O511 2.437 . S
C482 Pr480 2.880 . S
C482 C483 1.491 . S
C482 O500 1.254 . S
C482 O501 1.225 . S
C483 C482 1.491 . S
C483 C484 1.392 . S
C483 C488 1.356 . S
C484 C483 1.392 . S
C484 C485 1.368 . S
C484 H512 0.929 . S
C485 C484 1.368 . S
C485 C486 1.386 . S
C485 H513 0.929 . S
C486 C485 1.386 . S
C486 C487 1.373 . S
C487 C486 1.373 . S
C487 C488 1.409 . S
C487 H514 0.931 . S
C488 C483 1.356 . S
C488 C487 1.409 . S
C488 H515 0.930 . S
C489 O502 1.270 . S
C489 O503 1.248 . S
C490 O504 1.267 . S
C490 O505 1.278 . S
C491 Pr481 2.880 . S
C491 C492 1.491 . S
C491 O506 1.254 . S
C491 O507 1.225 . S
C492 C491 1.491 . S
C492 C493 1.392 . S
C492 C497 1.356 . S
C493 C492 1.392 . S
C493 C494 1.368 . S
C493 H516 0.929 . S
C494 C493 1.368 . S
C494 C495 1.386 . S
C494 H517 0.929 . S
C495 C494 1.386 . S
C495 C496 1.373 . S
C496 C495 1.373 . S
C496 C497 1.409 . S
C496 H518 0.931 . S
C497 C492 1.356 . S
C497 C496 1.409 . S
C497 H519 0.930 . S
C498 O508 1.270 . S
C498 O509 1.248 . S
C499 O510 1.267 . S
C499 O511 1.278 . S
O500 Pr480 2.562 . S
O500 C482 1.254 . S
O501 Pr480 2.490 . S
O501 C482 1.225 . S
O502 Pr480 2.695 . S
O502 Pr481 2.436 . S
O502 C489 1.270 . S
O503 Pr480 2.512 . S
O503 C489 1.248 . S
O504 Pr481 2.438 . S
O504 C490 1.267 . S
O505 Pr480 2.437 . S
O505 C490 1.278 . S
O506 Pr481 2.562 . S
O506 C491 1.254 . S
O507 Pr481 2.490 . S
O507 C491 1.225 . S
O508 Pr480 2.436 . S
O508 Pr481 2.695 . S
O508 C498 1.270 . S
O509 Pr481 2.512 . S
O509 C498 1.248 . S
O510 Pr480 2.438 . S
O510 C499 1.267 . S
O511 Pr481 2.437 . S
O511 C499 1.278 . S
H512 C484 0.929 . S
H513 C485 0.929 . S
H514 C487 0.931 . S
H515 C488 0.930 . S
H516 C493 0.929 . S
H517 C494 0.929 . S
H518 C496 0.931 . S
H519 C497 0.930 . S
Pr520 C522 2.880 . S
Pr520 O540 2.562 . S
Pr520 O541 2.490 . S
Pr520 O542 2.695 . S
Pr520 O543 2.512 . S
Pr520 O545 2.437 . S
Pr520 O548 2.436 . S
Pr520 O550 2.438 . S
Pr521 C531 2.880 . S
Pr521 O542 2.436 . S
Pr521 O544 2.438 . S
Pr521 O546 2.562 . S
Pr521 O547 2.490 . S
Pr521 O548 2.695 . S
Pr521 O549 2.512 . S
Pr521 O551 2.437 . S
C522 Pr520 2.880 . S
C522 C523 1.491 . S
C522 O540 1.254 . S
C522 O541 1.225 . S
C523 C522 1.491 . S
C523 C524 1.392 . S
C523 C528 1.356 . S
C524 C523 1.392 . S
C524 C525 1.368 . S
C524 H552 0.929 . S
C525 C524 1.368 . S
C525 C526 1.386 . S
C525 H553 0.929 . S
C526 C525 1.386 . S
C526 C527 1.373 . S
C527 C526 1.373 . S
C527 C528 1.409 . S
C527 H554 0.931 . S
C528 C523 1.356 . S
C528 C527 1.409 . S
C528 H555 0.930 . S
C529 O542 1.270 . S
C529 O543 1.248 . S
C530 O544 1.267 . S
C530 O545 1.278 . S
C531 Pr521 2.880 . S
C531 C532 1.491 . S
C531 O546 1.254 . S
C531 O547 1.225 . S
C532 C531 1.491 . S
C532 C533 1.392 . S
C532 C537 1.356 . S
C533 C532 1.392 . S
C533 C534 1.368 . S
C533 H556 0.929 . S
C534 C533 1.368 . S
C534 C535 1.386 . S
C534 H557 0.929 . S
C535 C534 1.386 . S
C535 C536 1.373 . S
C536 C535 1.373 . S
C536 C537 1.409 . S
C536 H558 0.931 . S
C537 C532 1.356 . S
C537 C536 1.409 . S
C537 H559 0.930 . S
C538 O548 1.270 . S
C538 O549 1.248 . S
C539 O550 1.267 . S
C539 O551 1.278 . S
O540 Pr520 2.562 . S
O540 C522 1.254 . S
O541 Pr520 2.490 . S
O541 C522 1.225 . S
O542 Pr520 2.695 . S
O542 Pr521 2.436 . S
O542 C529 1.270 . S
O543 Pr520 2.512 . S
O543 C529 1.248 . S
O544 Pr521 2.438 . S
O544 C530 1.267 . S
O545 Pr520 2.437 . S
O545 C530 1.278 . S
O546 Pr521 2.562 . S
O546 C531 1.254 . S
O547 Pr521 2.490 . S
O547 C531 1.225 . S
O548 Pr520 2.436 . S
O548 Pr521 2.695 . S
O548 C538 1.270 . S
O549 Pr521 2.512 . S
O549 C538 1.248 . S
O550 Pr520 2.438 . S
O550 C539 1.267 . S
O551 Pr521 2.437 . S
O551 C539 1.278 . S
H552 C524 0.929 . S
H553 C525 0.929 . S
H554 C527 0.931 . S
H555 C528 0.930 . S
H556 C533 0.929 . S
H557 C534 0.929 . S
H558 C536 0.931 . S
H559 C537 0.930 . S
Pr560 C562 2.880 . S
Pr560 O580 2.562 . S
Pr560 O581 2.490 . S
Pr560 O582 2.695 . S
Pr560 O583 2.512 . S
Pr560 O585 2.437 . S
Pr560 O588 2.436 . S
Pr560 O590 2.438 . S
Pr561 C571 2.880 . S
Pr561 O582 2.436 1_554 S
Pr561 O584 2.438 . S
Pr561 O586 2.562 . S
Pr561 O587 2.490 . S
Pr561 O588 2.695 1_554 S
Pr561 O589 2.512 1_554 S
Pr561 O591 2.437 1_554 S
C562 Pr560 2.880 . S
C562 C563 1.491 . S
C562 O580 1.254 . S
C562 O581 1.225 . S
C563 C562 1.491 . S
C563 C564 1.392 . S
C563 C568 1.356 . S
C564 C563 1.392 . S
C564 C565 1.368 . S
C564 H592 0.929 . S
C565 C564 1.368 . S
C565 C566 1.386 . S
C565 H593 0.929 . S
C566 C565 1.386 . S
C566 C567 1.373 . S
C567 C566 1.373 . S
C567 C568 1.409 . S
C567 H594 0.931 . S
C568 C563 1.356 . S
C568 C567 1.409 . S
C568 H595 0.930 . S
C569 O582 1.270 1_554 S
C569 O583 1.248 1_554 S
C570 O584 1.267 1_556 S
C570 O585 1.278 . S
C571 Pr561 2.880 . S
C571 C572 1.491 . S
C571 O586 1.254 . S
C571 O587 1.225 . S
C572 C571 1.491 . S
C572 C573 1.392 . S
C572 C577 1.356 . S
C573 C572 1.392 . S
C573 C574 1.368 . S
C573 H596 0.929 . S
C574 C573 1.368 . S
C574 C575 1.386 . S
C574 H597 0.929 . S
C575 C574 1.386 . S
C575 C576 1.373 . S
C576 C575 1.373 . S
C576 C577 1.409 . S
C576 H598 0.931 . S
C577 C572 1.356 . S
C577 C576 1.409 . S
C577 H599 0.930 . S
C578 O588 1.270 . S
C578 O589 1.248 . S
C579 O590 1.267 . S
C579 O591 1.278 . S
O580 Pr560 2.562 . S
O580 C562 1.254 . S
O581 Pr560 2.490 . S
O581 C562 1.225 . S
O582 Pr560 2.695 . S
O582 Pr561 2.436 1_556 S
O582 C569 1.270 1_556 S
O583 Pr560 2.512 . S
O583 C569 1.248 1_556 S
O584 Pr561 2.438 . S
O584 C570 1.267 1_554 S
O585 Pr560 2.437 . S
O585 C570 1.278 . S
O586 Pr561 2.562 . S
O586 C571 1.254 . S
O587 Pr561 2.490 . S
O587 C571 1.225 . S
O588 Pr560 2.436 . S
O588 Pr561 2.695 1_556 S
O588 C578 1.270 . S
O589 Pr561 2.512 1_556 S
O589 C578 1.248 . S
O590 Pr560 2.438 . S
O590 C579 1.267 . S
O591 Pr561 2.437 1_556 S
O591 C579 1.278 . S
H592 C564 0.929 . S
H593 C565 0.929 . S
H594 C567 0.931 . S
H595 C568 0.930 . S
H596 C573 0.929 . S
H597 C574 0.929 . S
H598 C576 0.931 . S
H599 C577 0.930 . S
Pr600 C602 2.880 . S
Pr600 O620 2.562 . S
Pr600 O621 2.490 . S
Pr600 O622 2.695 . S
Pr600 O623 2.512 . S
Pr600 O625 2.437 . S
Pr600 O628 2.436 . S
Pr600 O630 2.438 . S
Pr601 C611 2.880 . S
Pr601 O622 2.436 . S
Pr601 O624 2.438 . S
Pr601 O626 2.562 . S
Pr601 O627 2.490 . S
Pr601 O628 2.695 . S
Pr601 O629 2.512 . S
Pr601 O631 2.437 . S
C602 Pr600 2.880 . S
C602 C603 1.491 . S
C602 O620 1.254 . S
C602 O621 1.225 . S
C603 C602 1.491 . S
C603 C604 1.392 . S
C603 C608 1.356 . S
C604 C603 1.392 . S
C604 C605 1.368 . S
C604 H632 0.929 . S
C605 C604 1.368 . S
C605 C606 1.386 . S
C605 H633 0.929 . S
C606 C605 1.386 . S
C606 C607 1.373 . S
C607 C606 1.373 . S
C607 C608 1.409 . S
C607 H634 0.931 . S
C608 C603 1.356 . S
C608 C607 1.409 . S
C608 H635 0.930 . S
C609 O622 1.270 . S
C609 O623 1.248 . S
C610 O624 1.267 . S
C610 O625 1.278 . S
C611 Pr601 2.880 . S
C611 C612 1.491 . S
C611 O626 1.254 . S
C611 O627 1.225 . S
C612 C611 1.491 . S
C612 C613 1.392 . S
C612 C617 1.356 . S
C613 C612 1.392 . S
C613 C614 1.368 . S
C613 H636 0.929 . S
C614 C613 1.368 . S
C614 C615 1.386 . S
C614 H637 0.929 . S
C615 C614 1.386 . S
C615 C616 1.373 . S
C616 C615 1.373 . S
C616 C617 1.409 . S
C616 H638 0.931 . S
C617 C612 1.356 . S
C617 C616 1.409 . S
C617 H639 0.930 . S
C618 O628 1.270 . S
C618 O629 1.248 . S
C619 O630 1.267 . S
C619 O631 1.278 . S
O620 Pr600 2.562 . S
O620 C602 1.254 . S
O621 Pr600 2.490 . S
O621 C602 1.225 . S
O622 Pr600 2.695 . S
O622 Pr601 2.436 . S
O622 C609 1.270 . S
O623 Pr600 2.512 . S
O623 C609 1.248 . S
O624 Pr601 2.438 . S
O624 C610 1.267 . S
O625 Pr600 2.437 . S
O625 C610 1.278 . S
O626 Pr601 2.562 . S
O626 C611 1.254 . S
O627 Pr601 2.490 . S
O627 C611 1.225 . S
O628 Pr600 2.436 . S
O628 Pr601 2.695 . S
O628 C618 1.270 . S
O629 Pr601 2.512 . S
O629 C618 1.248 . S
O630 Pr600 2.438 . S
O630 C619 1.267 . S
O631 Pr601 2.437 . S
O631 C619 1.278 . S
H632 C604 0.929 . S
H633 C605 0.929 . S
H634 C607 0.931 . S
H635 C608 0.930 . S
H636 C613 0.929 . S
H637 C614 0.929 . S
H638 C616 0.931 . S
H639 C617 0.930 . S
C640 C641 1.391 . S
C640 C642 1.394 . S
C640 H656 0.931 . S
C641 C640 1.391 . S
C641 C645 1.376 . S
C642 C640 1.394 . S
C642 C643 1.369 . S
C642 C646 1.531 . S
C643 C642 1.369 . S
C643 C644 1.410 . S
C643 C651 1.503 . S
C644 C643 1.410 . S
C644 C645 1.392 . S
C644 C647 1.511 . S
C645 C641 1.376 . S
C645 C644 1.392 . S
C645 H657 0.929 . S
C646 C642 1.531 . S
C646 H658 0.960 . S
C646 H659 0.962 . S
C646 H660 0.960 . S
C647 C644 1.511 . S
C647 H661 0.961 . S
C647 H662 0.961 . S
C647 H663 0.961 . S
C648 C649 1.370 . S
C648 C650 1.363 . S
C648 H664 0.931 1_554 S
C649 C648 1.370 . S
C649 C653 1.408 . S
C650 C648 1.363 . S
C650 C651 1.370 . S
C650 C654 1.524 1_554 S
C651 C643 1.503 . S
C651 C650 1.370 . S
C651 C652 1.403 . S
C652 C651 1.403 . S
C652 C653 1.404 . S
C652 C655 1.539 . S
C653 C649 1.408 . S
C653 C652 1.404 . S
C653 H665 0.930 . S
C654 C650 1.524 1_556 S
C654 H666 0.956 . S
C654 H667 0.961 . S
C654 H668 0.961 . S
C655 C652 1.539 . S
C655 H669 0.958 . S
C655 H670 0.961 . S
C655 H671 0.960 . S
H656 C640 0.931 . S
H657 C645 0.929 . S
H658 C646 0.960 . S
H659 C646 0.962 . S
H660 C646 0.960 . S
H661 C647 0.961 . S
H662 C647 0.961 . S
H663 C647 0.961 . S
H664 C648 0.931 1_556 S
H665 C653 0.930 . S
H666 C654 0.956 . S
H667 C654 0.961 . S
H668 C654 0.961 . S
H669 C655 0.958 . S
H670 C655 0.961 . S
H671 C655 0.960 . S
C672 C673 1.391 . S
C672 C674 1.394 . S
C672 H688 0.931 . S
C673 C672 1.391 . S
C673 C677 1.376 . S
C674 C672 1.394 . S
C674 C675 1.369 . S
C674 C678 1.531 . S
C675 C674 1.369 . S
C675 C676 1.410 . S
C675 C683 1.503 . S
C676 C675 1.410 . S
C676 C677 1.392 . S
C676 C679 1.511 . S
C677 C673 1.376 . S
C677 C676 1.392 . S
C677 H689 0.929 . S
C678 C674 1.531 . S
C678 H690 0.960 . S
C678 H691 0.962 . S
C678 H692 0.960 . S
C679 C676 1.511 . S
C679 H693 0.961 . S
C679 H694 0.961 . S
C679 H695 0.961 . S
C680 C681 1.370 . S
C680 C682 1.363 . S
C680 H696 0.931 . S
C681 C680 1.370 . S
C681 C685 1.408 . S
C682 C680 1.363 . S
C682 C683 1.370 . S
C682 C686 1.524 . S
C683 C675 1.503 . S
C683 C682 1.370 . S
C683 C684 1.403 . S
C684 C683 1.403 . S
C684 C685 1.404 . S
C684 C687 1.539 . S
C685 C681 1.408 . S
C685 C684 1.404 . S
C685 H697 0.930 . S
C686 C682 1.524 . S
C686 H698 0.956 . S
C686 H699 0.961 . S
C686 H700 0.961 . S
C687 C684 1.539 . S
C687 H701 0.958 . S
C687 H702 0.961 . S
C687 H703 0.960 . S
H688 C672 0.931 . S
H689 C677 0.929 . S
H690 C678 0.960 . S
H691 C678 0.962 . S
H692 C678 0.960 . S
H693 C679 0.961 . S
H694 C679 0.961 . S
H695 C679 0.961 . S
H696 C680 0.931 . S
H697 C685 0.930 . S
H698 C686 0.956 . S
H699 C686 0.961 . S
H700 C686 0.961 . S
H701 C687 0.958 . S
H702 C687 0.961 . S
H703 C687 0.960 . S
C704 C705 1.391 . S
C704 C706 1.394 . S
C704 H720 0.931 . S
C705 C704 1.391 . S
C705 C709 1.376 . S
C706 C704 1.394 . S
C706 C707 1.369 . S
C706 C710 1.531 . S
C707 C706 1.369 . S
C707 C708 1.410 . S
C707 C715 1.503 1_455 S
C708 C707 1.410 . S
C708 C709 1.392 . S
C708 C711 1.511 1_455 S
C709 C705 1.376 . S
C709 C708 1.392 . S
C709 H721 0.929 . S
C710 C706 1.531 . S
C710 H722 0.960 . S
C710 H723 0.962 . S
C710 H724 0.960 . S
C711 C708 1.511 1_655 S
C711 H725 0.961 . S
C711 H726 0.961 . S
C711 H727 0.961 . S
C712 C713 1.370 . S
C712 C714 1.363 . S
C712 H728 0.931 . S
C713 C712 1.370 . S
C713 C717 1.408 . S
C714 C712 1.363 . S
C714 C715 1.370 . S
C714 C718 1.524 . S
C715 C707 1.503 1_655 S
C715 C714 1.370 . S
C715 C716 1.403 . S
C716 C715 1.403 . S
C716 C717 1.404 . S
C716 C719 1.539 1_655 S
C717 C713 1.408 . S
C717 C716 1.404 . S
C717 H729 0.930 . S
C718 C714 1.524 . S
C718 H730 0.956 . S
C718 H731 0.961 . S
C718 H732 0.961 . S
C719 C716 1.539 1_455 S
C719 H733 0.958 . S
C719 H734 0.961 . S
C719 H735 0.960 . S
H720 C704 0.931 . S
H721 C709 0.929 . S
H722 C710 0.960 . S
H723 C710 0.962 . S
H724 C710 0.960 . S
H725 C711 0.961 . S
H726 C711 0.961 . S
H727 C711 0.961 . S
H728 C712 0.931 . S
H729 C717 0.930 . S
H730 C718 0.956 . S
H731 C718 0.961 . S
H732 C718 0.961 . S
H733 C719 0.958 . S
H734 C719 0.961 . S
H735 C719 0.960 . S
C736 C737 1.391 . S
C736 C738 1.394 . S
C736 H752 0.931 . S
C737 C736 1.391 . S
C737 C741 1.376 . S
C738 C736 1.394 . S
C738 C739 1.369 . S
C738 C742 1.531 . S
C739 C738 1.369 . S
C739 C740 1.410 . S
C739 C747 1.503 1_655 S
C740 C739 1.410 . S
C740 C741 1.392 . S
C740 C743 1.511 1_655 S
C741 C737 1.376 . S
C741 C740 1.392 . S
C741 H753 0.929 . S
C742 C738 1.531 . S
C742 H754 0.960 . S
C742 H755 0.962 . S
C742 H756 0.960 . S
C743 C740 1.511 1_455 S
C743 H757 0.961 . S
C743 H758 0.961 . S
C743 H759 0.961 . S
C744 C745 1.370 . S
C744 C746 1.363 . S
C744 H760 0.931 . S
C745 C744 1.370 . S
C745 C749 1.408 . S
C746 C744 1.363 . S
C746 C747 1.370 . S
C746 C750 1.524 1_455 S
C747 C739 1.503 1_455 S
C747 C746 1.370 . S
C747 C748 1.403 . S
C748 C747 1.403 . S
C748 C749 1.404 . S
C748 C751 1.539 . S
C749 C745 1.408 . S
C749 C748 1.404 . S
C749 H761 0.930 . S
C750 C746 1.524 1_655 S
C750 H762 0.956 . S
C750 H763 0.961 . S
C750 H764 0.961 . S
C751 C748 1.539 . S
C751 H765 0.958 . S
C751 H766 0.961 . S
C751 H767 0.960 . S
H752 C736 0.931 . S
H753 C741 0.929 . S
H754 C742 0.960 . S
H755 C742 0.962 . S
H756 C742 0.960 . S
H757 C743 0.961 . S
H758 C743 0.961 . S
H759 C743 0.961 . S
H760 C744 0.931 . S
H761 C749 0.930 . S
H762 C750 0.956 . S
H763 C750 0.961 . S
H764 C750 0.961 . S
H765 C751 0.958 . S
H766 C751 0.961 . S
H767 C751 0.960 . S
C768 C769 1.391 . S
C768 C770 1.394 . S
C768 H784 0.931 1_556 S
C769 C768 1.391 . S
C769 C773 1.376 . S
C770 C768 1.394 . S
C770 C771 1.369 . S
C770 C774 1.531 1_556 S
C771 C770 1.369 . S
C771 C772 1.410 . S
C771 C779 1.503 . S
C772 C771 1.410 . S
C772 C773 1.392 . S
C772 C775 1.511 . S
C773 C769 1.376 . S
C773 C772 1.392 . S
C773 H785 0.929 . S
C774 C770 1.531 1_554 S
C774 H786 0.960 . S
C774 H787 0.962 . S
C774 H788 0.960 . S
C775 C772 1.511 . S
C775 H789 0.961 . S
C775 H790 0.961 . S
C775 H791 0.961 . S
C776 C777 1.370 . S
C776 C778 1.363 . S
C776 H792 0.931 . S
C777 C776 1.370 . S
C777 C781 1.408 . S
C778 C776 1.363 . S
C778 C779 1.370 . S
C778 C782 1.524 . S
C779 C771 1.503 . S
C779 C778 1.370 . S
C779 C780 1.403 . S
C780 C779 1.403 . S
C780 C781 1.404 . S
C780 C783 1.539 . S
C781 C777 1.408 . S
C781 C780 1.404 . S
C781 H793 0.930 . S
C782 C778 1.524 . S
C782 H794 0.956 . S
C782 H795 0.961 . S
C782 H796 0.961 . S
C783 C780 1.539 . S
C783 H797 0.958 1_556 S
C783 H798 0.961 . S
C783 H799 0.960 . S
H784 C768 0.931 1_554 S
H785 C773 0.929 . S
H786 C774 0.960 . S
H787 C774 0.962 . S
H788 C774 0.960 . S
H789 C775 0.961 . S
H790 C775 0.961 . S
H791 C775 0.961 . S
H792 C776 0.931 . S
H793 C781 0.930 . S
H794 C782 0.956 . S
H795 C782 0.961 . S
H796 C782 0.961 . S
H797 C783 0.958 1_554 S
H798 C783 0.961 . S
H799 C783 0.960 . S
C800 C801 1.391 . S
C800 C802 1.394 . S
C800 H816 0.931 . S
C801 C800 1.391 . S
C801 C805 1.376 . S
C802 C800 1.394 . S
C802 C803 1.369 . S
C802 C806 1.531 . S
C803 C802 1.369 . S
C803 C804 1.410 . S
C803 C811 1.503 . S
C804 C803 1.410 . S
C804 C805 1.392 . S
C804 C807 1.511 . S
C805 C801 1.376 . S
C805 C804 1.392 . S
C805 H817 0.929 . S
C806 C802 1.531 . S
C806 H818 0.960 . S
C806 H819 0.962 . S
C806 H820 0.960 . S
C807 C804 1.511 . S
C807 H821 0.961 . S
C807 H822 0.961 . S
C807 H823 0.961 . S
C808 C809 1.370 . S
C808 C810 1.363 . S
C808 H824 0.931 . S
C809 C808 1.370 . S
C809 C813 1.408 . S
C810 C808 1.363 . S
C810 C811 1.370 . S
C810 C814 1.524 . S
C811 C803 1.503 . S
C811 C810 1.370 . S
C811 C812 1.403 . S
C812 C811 1.403 . S
C812 C813 1.404 . S
C812 C815 1.539 . S
C813 C809 1.408 . S
C813 C812 1.404 . S
C813 H825 0.930 . S
C814 C810 1.524 . S
C814 H826 0.956 . S
C814 H827 0.961 . S
C814 H828 0.961 . S
C815 C812 1.539 . S
C815 H829 0.958 . S
C815 H830 0.961 . S
C815 H831 0.960 . S
H816 C800 0.931 . S
H817 C805 0.929 . S
H818 C806 0.960 . S
H819 C806 0.962 . S
H820 C806 0.960 . S
H821 C807 0.961 . S
H822 C807 0.961 . S
H823 C807 0.961 . S
H824 C808 0.931 . S
H825 C813 0.930 . S
H826 C814 0.956 . S
H827 C814 0.961 . S
H828 C814 0.961 . S
H829 C815 0.958 . S
H830 C815 0.961 . S
H831 C815 0.960 . S
C832 C833 1.391 . S
C832 C834 1.394 . S
C832 H848 0.931 . S
C833 C832 1.391 . S
C833 C837 1.376 . S
C834 C832 1.394 . S
C834 C835 1.369 . S
C834 C838 1.531 . S
C835 C834 1.369 . S
C835 C836 1.408 1_655 S
C835 C843 1.503 1_655 S
C836 C835 1.408 1_455 S
C836 C837 1.388 1_455 S
C836 C839 1.517 . S
C837 C833 1.376 . S
C837 C836 1.388 1_655 S
C837 H849 0.929 . S
C838 C834 1.531 . S
C838 H850 0.960 . S
C838 H851 0.962 . S
C838 H852 0.960 . S
C839 C836 1.517 . S
C839 H853 0.961 . S
C839 H854 0.961 . S
C839 H855 0.961 . S
C840 C841 1.370 . S
C840 C842 1.363 . S
C840 H856 0.931 . S
C841 C840 1.370 . S
C841 C845 1.408 . S
C842 C840 1.363 . S
C842 C843 1.370 . S
C842 C846 1.524 1_455 S
C843 C835 1.503 1_455 S
C843 C842 1.370 . S
C843 C844 1.403 . S
C844 C843 1.403 . S
C844 C845 1.404 . S
C844 C847 1.539 . S
C845 C841 1.408 . S
C845 C844 1.404 . S
C845 H857 0.930 . S
C846 C842 1.524 1_655 S
C846 H858 0.956 . S
C846 H859 0.961 . S
C846 H860 0.961 . S
C847 C844 1.539 . S
C847 H861 0.958 . S
C847 H862 0.961 . S
C847 H863 0.960 . S
H848 C832 0.931 . S
H849 C837 0.929 . S
H850 C838 0.960 . S
H851 C838 0.962 . S
H852 C838 0.960 . S
H853 C839 0.961 . S
H854 C839 0.961 . S
H855 C839 0.961 . S
H856 C840 0.931 . S
H857 C845 0.930 . S
H858 C846 0.956 . S
H859 C846 0.961 . S
H860 C846 0.961 . S
H861 C847 0.958 . S
H862 C847 0.961 . S
H863 C847 0.960 . S
C864 C865 1.391 . S
C864 C866 1.394 . S
C864 H880 0.931 . S
C865 C864 1.391 . S
C865 C869 1.376 . S
C866 C864 1.394 . S
C866 C867 1.369 . S
C866 C870 1.531 1_455 S
C867 C866 1.369 . S
C867 C868 1.410 . S
C867 C875 1.503 1_455 S
C868 C867 1.410 . S
C868 C869 1.392 . S
C868 C871 1.511 . S
C869 C865 1.376 . S
C869 C868 1.392 . S
C869 H881 0.929 . S
C870 C866 1.531 1_655 S
C870 H882 0.960 . S
C870 H883 0.962 . S
C870 H884 0.960 . S
C871 C868 1.511 . S
C871 H885 0.961 . S
C871 H886 0.961 . S
C871 H887 0.961 . S
C872 C873 1.370 . S
C872 C874 1.363 . S
C872 H888 0.931 . S
C873 C872 1.370 . S
C873 C877 1.408 . S
C874 C872 1.363 . S
C874 C875 1.370 . S
C874 C878 1.524 1_655 S
C875 C867 1.503 1_655 S
C875 C874 1.370 . S
C875 C876 1.403 . S
C876 C875 1.403 . S
C876 C877 1.404 . S
C876 C879 1.539 . S
C877 C873 1.408 . S
C877 C876 1.404 . S
C877 H889 0.930 . S
C878 C874 1.524 1_455 S
C878 H890 0.956 . S
C878 H891 0.961 . S
C878 H892 0.961 . S
C879 C876 1.539 . S
C879 H893 0.958 . S
C879 H894 0.961 . S
C879 H895 0.960 . S
H880 C864 0.931 . S
H881 C869 0.929 . S
H882 C870 0.960 . S
H883 C870 0.962 . S
H884 C870 0.960 . S
H885 C871 0.961 . S
H886 C871 0.961 . S
H887 C871 0.961 . S
H888 C872 0.931 . S
H889 C877 0.930 . S
H890 C878 0.956 . S
H891 C878 0.961 . S
H892 C878 0.961 . S
H893 C879 0.958 . S
H894 C879 0.961 . S
H895 C879 0.960 . S
C896 C897 1.391 . S
C896 C898 1.394 . S
C896 H912 0.931 . S
C897 C896 1.391 . S
C897 C901 1.376 . S
C898 C896 1.394 . S
C898 C899 1.369 . S
C898 C902 1.531 . S
C899 C898 1.369 . S
C899 C900 1.410 . S
C899 C907 1.503 . S
C900 C899 1.410 . S
C900 C901 1.392 . S
C900 C903 1.511 . S
C901 C897 1.376 . S
C901 C900 1.392 . S
C901 H913 0.929 . S
C902 C898 1.531 . S
C902 H914 0.960 . S
C902 H915 0.962 . S
C902 H916 0.960 . S
C903 C900 1.511 . S
C903 H917 0.961 . S
C903 H918 0.961 . S
C903 H919 0.961 . S
C904 C905 1.370 . S
C904 C906 1.363 . S
C904 H920 0.931 . S
C905 C904 1.370 . S
C905 C909 1.408 . S
C906 C904 1.363 . S
C906 C907 1.370 . S
C906 C910 1.524 . S
C907 C899 1.503 . S
C907 C906 1.370 . S
C907 C908 1.403 . S
C908 C907 1.403 . S
C908 C909 1.404 . S
C908 C911 1.539 . S
C909 C905 1.408 . S
C909 C908 1.404 . S
C909 H921 0.930 . S
C910 C906 1.524 . S
C910 H922 0.956 . S
C910 H923 0.961 . S
C910 H924 0.961 . S
C911 C908 1.539 . S
C911 H925 0.958 . S
C911 H926 0.961 . S
C911 H927 0.960 . S
H912 C896 0.931 . S
H913 C901 0.929 . S
H914 C902 0.960 . S
H915 C902 0.962 . S
H916 C902 0.960 . S
H917 C903 0.961 . S
H918 C903 0.961 . S
H919 C903 0.961 . S
H920 C904 0.931 . S
H921 C909 0.930 . S
H922 C910 0.956 . S
H923 C910 0.961 . S
H924 C910 0.961 . S
H925 C911 0.958 . S
H926 C911 0.961 . S
H927 C911 0.960 . S
C928 C929 1.391 . S
C928 C930 1.394 . S
C928 H944 0.931 . S
C929 C928 1.391 . S
C929 C933 1.376 . S
C930 C928 1.394 . S
C930 C931 1.369 . S
C930 C934 1.531 . S
C931 C930 1.369 . S
C931 C932 1.410 . S
C931 C939 1.503 . S
C932 C931 1.410 . S
C932 C933 1.392 . S
C932 C935 1.511 . S
C933 C929 1.376 . S
C933 C932 1.392 . S
C933 H945 0.929 . S
C934 C930 1.531 . S
C934 H946 0.960 . S
C934 H947 0.962 . S
C934 H948 0.960 . S
C935 C932 1.511 . S
C935 H949 0.961 . S
C935 H950 0.961 . S
C935 H951 0.961 . S
C936 C937 1.370 . S
C936 C938 1.363 . S
C936 H952 0.931 . S
C937 C936 1.370 . S
C937 C941 1.408 . S
C938 C936 1.363 . S
C938 C939 1.370 . S
C938 C942 1.524 . S
C939 C931 1.503 . S
C939 C938 1.370 . S
C939 C940 1.403 . S
C940 C939 1.403 . S
C940 C941 1.404 . S
C940 C943 1.539 . S
C941 C937 1.408 . S
C941 C940 1.404 . S
C941 H953 0.930 . S
C942 C938 1.524 . S
C942 H954 0.956 . S
C942 H955 0.961 . S
C942 H956 0.961 . S
C943 C940 1.539 . S
C943 H957 0.958 . S
C943 H958 0.961 . S
C943 H959 0.960 . S
H944 C928 0.931 . S
H945 C933 0.929 . S
H946 C934 0.960 . S
H947 C934 0.962 . S
H948 C934 0.960 . S
H949 C935 0.961 . S
H950 C935 0.961 . S
H951 C935 0.961 . S
H952 C936 0.931 . S
H953 C941 0.930 . S
H954 C942 0.956 . S
H955 C942 0.961 . S
H956 C942 0.961 . S
H957 C943 0.958 . S
H958 C943 0.961 . S
H959 C943 0.960 . S
C960 C961 1.391 . S
C960 C962 1.394 . S
C960 H976 0.931 . S
C961 C960 1.391 . S
C961 C965 1.376 . S
C962 C960 1.394 . S
C962 C963 1.369 . S
C962 C966 1.531 . S
C963 C962 1.369 . S
C963 C964 1.410 . S
C963 C971 1.503 . S
C964 C963 1.410 . S
C964 C965 1.392 . S
C964 C967 1.511 . S
C965 C961 1.376 . S
C965 C964 1.392 . S
C965 H977 0.929 . S
C966 C962 1.531 . S
C966 H978 0.960 . S
C966 H979 0.962 . S
C966 H980 0.960 . S
C967 C964 1.511 . S
C967 H981 0.961 . S
C967 H982 0.961 . S
C967 H983 0.961 . S
C968 C969 1.370 . S
C968 C970 1.363 . S
C968 H984 0.931 . S
C969 C968 1.370 . S
C969 C973 1.408 . S
C970 C968 1.363 . S
C970 C971 1.370 . S
C970 C974 1.524 . S
C971 C963 1.503 . S
C971 C970 1.370 . S
C971 C972 1.403 . S
C972 C971 1.403 . S
C972 C973 1.404 . S
C972 C975 1.539 . S
C973 C969 1.408 . S
C973 C972 1.404 . S
C973 H985 0.930 . S
C974 C970 1.524 . S
C974 H986 0.956 . S
C974 H987 0.961 . S
C974 H988 0.961 . S
C975 C972 1.539 . S
C975 H989 0.958 . S
C975 H990 0.961 . S
C975 H991 0.960 . S
H976 C960 0.931 . S
H977 C965 0.929 . S
H978 C966 0.960 . S
H979 C966 0.962 . S
H980 C966 0.960 . S
H981 C967 0.961 . S
H982 C967 0.961 . S
H983 C967 0.961 . S
H984 C968 0.931 . S
H985 C973 0.930 . S
H986 C974 0.956 . S
H987 C974 0.961 . S
H988 C974 0.961 . S
H989 C975 0.958 . S
H990 C975 0.961 . S
H991 C975 0.960 . S
C992 C993 1.391 . S
C992 C994 1.394 . S
C992 H1008 0.931 . S
C993 C992 1.391 . S
C993 C997 1.376 . S
C994 C992 1.394 . S
C994 C995 1.369 . S
C994 C998 1.531 . S
C995 C994 1.369 . S
C995 C996 1.410 . S
C995 C1003 1.503 . S
C996 C995 1.410 . S
C996 C997 1.392 . S
C996 C999 1.511 . S
C997 C993 1.376 . S
C997 C996 1.392 . S
C997 H1009 0.929 . S
C998 C994 1.531 . S
C998 H1010 0.960 . S
C998 H1011 0.962 . S
C998 H1012 0.960 . S
C999 C996 1.511 . S
C999 H1013 0.961 . S
C999 H1014 0.961 . S
C999 H1015 0.961 . S
C1000 C1001 1.370 . S
C1000 C1002 1.363 . S
C1000 H1016 0.931 . S
C1001 C1000 1.370 . S
C1001 C1005 1.408 . S
C1002 C1000 1.363 . S
C1002 C1003 1.370 . S
C1002 C1006 1.524 . S
C1003 C995 1.503 . S
C1003 C1002 1.370 . S
C1003 C1004 1.403 . S
C1004 C1003 1.403 . S
C1004 C1005 1.404 . S
C1004 C1007 1.539 . S
C1005 C1001 1.408 . S
C1005 C1004 1.404 . S
C1005 H1017 0.930 . S
C1006 C1002 1.524 . S
C1006 H1018 0.956 . S
C1006 H1019 0.961 . S
C1006 H1020 0.961 . S
C1007 C1004 1.539 . S
C1007 H1021 0.958 . S
C1007 H1022 0.961 . S
C1007 H1023 0.960 . S
H1008 C992 0.931 . S
H1009 C997 0.929 . S
H1010 C998 0.960 . S
H1011 C998 0.962 . S
H1012 C998 0.960 . S
H1013 C999 0.961 . S
H1014 C999 0.961 . S
H1015 C999 0.961 . S
H1016 C1000 0.931 . S
H1017 C1005 0.930 . S
H1018 C1006 0.956 . S
H1019 C1006 0.961 . S
H1020 C1006 0.961 . S
H1021 C1007 0.958 . S
H1022 C1007 0.961 . S
H1023 C1007 0.960 . S
C1024 C1025 1.391 . S
C1024 C1026 1.394 . S
C1024 H1040 0.931 . S
C1025 C1024 1.391 . S
C1025 C1029 1.376 . S
C1026 C1024 1.394 . S
C1026 C1027 1.369 . S
C1026 C1030 1.531 . S
C1027 C1026 1.369 . S
C1027 C1028 1.410 . S
C1027 C1035 1.503 . S
C1028 C1027 1.410 . S
C1028 C1029 1.392 . S
C1028 C1031 1.511 . S
C1029 C1025 1.376 . S
C1029 C1028 1.392 . S
C1029 H1041 0.929 1_554 S
C1030 C1026 1.531 . S
C1030 H1042 0.960 . S
C1030 H1043 0.962 . S
C1030 H1044 0.960 . S
C1031 C1028 1.511 . S
C1031 H1045 0.961 1_554 S
C1031 H1046 0.961 . S
C1031 H1047 0.961 . S
C1032 C1033 1.370 . S
C1032 C1034 1.363 . S
C1032 H1048 0.931 . S
C1033 C1032 1.370 . S
C1033 C1037 1.408 . S
C1034 C1032 1.363 . S
C1034 C1035 1.370 . S
C1034 C1038 1.524 . S
C1035 C1027 1.503 . S
C1035 C1034 1.370 . S
C1035 C1036 1.403 . S
C1036 C1035 1.403 . S
C1036 C1037 1.404 . S
C1036 C1039 1.539 . S
C1037 C1033 1.408 . S
C1037 C1036 1.404 . S
C1037 H1049 0.930 . S
C1038 C1034 1.524 . S
C1038 H1050 0.956 . S
C1038 H1051 0.961 . S
C1038 H1052 0.961 . S
C1039 C1036 1.539 . S
C1039 H1053 0.958 . S
C1039 H1054 0.961 . S
C1039 H1055 0.960 . S
H1040 C1024 0.931 . S
H1041 C1029 0.929 1_556 S
H1042 C1030 0.960 . S
H1043 C1030 0.962 . S
H1044 C1030 0.960 . S
H1045 C1031 0.961 1_556 S
H1046 C1031 0.961 . S
H1047 C1031 0.961 . S
H1048 C1032 0.931 . S
H1049 C1037 0.930 . S
H1050 C1038 0.956 . S
H1051 C1038 0.961 . S
H1052 C1038 0.961 . S
H1053 C1039 0.958 . S
H1054 C1039 0.961 . S
H1055 C1039 0.960 . S
C1056 C1057 1.391 . S
C1056 C1058 1.394 . S
C1056 H1072 0.931 . S
C1057 C1056 1.391 . S
C1057 C1061 1.376 . S
C1058 C1056 1.394 . S
C1058 C1059 1.369 . S
C1058 C1062 1.531 . S
C1059 C1058 1.369 . S
C1059 C1060 1.410 . S
C1059 C1067 1.503 . S
C1060 C1059 1.410 . S
C1060 C1061 1.392 . S
C1060 C1063 1.511 . S
C1061 C1057 1.376 . S
C1061 C1060 1.392 . S
C1061 H1073 0.929 . S
C1062 C1058 1.531 . S
C1062 H1074 0.960 . S
C1062 H1075 0.962 . S
C1062 H1076 0.960 . S
C1063 C1060 1.511 . S
C1063 H1077 0.961 . S
C1063 H1078 0.961 . S
C1063 H1079 0.961 . S
C1064 C1065 1.370 . S
C1064 C1066 1.363 . S
C1064 H1080 0.931 . S
C1065 C1064 1.370 . S
C1065 C1069 1.408 . S
C1066 C1064 1.363 . S
C1066 C1067 1.370 . S
C1066 C1070 1.524 . S
C1067 C1059 1.503 . S
C1067 C1066 1.370 . S
C1067 C1068 1.403 . S
C1068 C1067 1.403 . S
C1068 C1069 1.404 . S
C1068 C1071 1.539 . S
C1069 C1065 1.408 . S
C1069 C1068 1.404 . S
C1069 H1081 0.930 . S
C1070 C1066 1.524 . S
C1070 H1082 0.956 . S
C1070 H1083 0.961 . S
C1070 H1084 0.961 . S
C1071 C1068 1.539 . S
C1071 H1085 0.958 . S
C1071 H1086 0.961 . S
C1071 H1087 0.960 . S
H1072 C1056 0.931 . S
H1073 C1061 0.929 . S
H1074 C1062 0.960 . S
H1075 C1062 0.962 . S
H1076 C1062 0.960 . S
H1077 C1063 0.961 . S
H1078 C1063 0.961 . S
H1079 C1063 0.961 . S
H1080 C1064 0.931 . S
H1081 C1069 0.930 . S
H1082 C1070 0.956 . S
H1083 C1070 0.961 . S
H1084 C1070 0.961 . S
H1085 C1071 0.958 . S
H1086 C1071 0.961 . S
H1087 C1071 0.960 . S
C1088 C1089 1.391 . S
C1088 C1090 1.394 . S
C1088 H1104 0.931 . S
C1089 C1088 1.391 . S
C1089 C1093 1.376 . S
C1090 C1088 1.394 . S
C1090 C1091 1.369 . S
C1090 C1094 1.531 . S
C1091 C1090 1.369 . S
C1091 C1092 1.410 . S
C1091 C1099 1.503 . S
C1092 C1091 1.410 . S
C1092 C1093 1.392 . S
C1092 C1095 1.511 . S
C1093 C1089 1.376 . S
C1093 C1092 1.392 . S
C1093 H1105 0.929 . S
C1094 C1090 1.531 . S
C1094 H1106 0.960 . S
C1094 H1107 0.962 . S
C1094 H1108 0.960 . S
C1095 C1092 1.511 . S
C1095 H1109 0.961 . S
C1095 H1110 0.961 . S
C1095 H1111 0.961 . S
C1096 C1097 1.370 . S
C1096 C1098 1.363 . S
C1096 H1112 0.931 . S
C1097 C1096 1.370 . S
C1097 C1101 1.408 . S
C1098 C1096 1.363 . S
C1098 C1099 1.370 . S
C1098 C1102 1.524 . S
C1099 C1091 1.503 . S
C1099 C1098 1.370 . S
C1099 C1100 1.403 . S
C1100 C1099 1.403 . S
C1100 C1101 1.404 . S
C1100 C1103 1.539 . S
C1101 C1097 1.408 . S
C1101 C1100 1.404 . S
C1101 H1113 0.930 . S
C1102 C1098 1.524 . S
C1102 H1114 0.956 . S
C1102 H1115 0.961 . S
C1102 H1116 0.961 . S
C1103 C1100 1.539 . S
C1103 H1117 0.958 . S
C1103 H1118 0.961 . S
C1103 H1119 0.960 . S
H1104 C1088 0.931 . S
H1105 C1093 0.929 . S
H1106 C1094 0.960 . S
H1107 C1094 0.962 . S
H1108 C1094 0.960 . S
H1109 C1095 0.961 . S
H1110 C1095 0.961 . S
H1111 C1095 0.961 . S
H1112 C1096 0.931 . S
H1113 C1101 0.930 . S
H1114 C1102 0.956 . S
H1115 C1102 0.961 . S
H1116 C1102 0.961 . S
H1117 C1103 0.958 . S
H1118 C1103 0.961 . S
H1119 C1103 0.960 . S
C1120 C1121 1.391 . S
C1120 C1122 1.394 . S
C1120 H1136 0.931 . S
C1121 C1120 1.391 . S
C1121 C1125 1.376 . S
C1122 C1120 1.394 . S
C1122 C1123 1.369 . S
C1122 C1126 1.531 . S
C1123 C1122 1.369 . S
C1123 C1124 1.410 . S
C1123 C1131 1.503 . S
C1124 C1123 1.410 . S
C1124 C1125 1.392 . S
C1124 C1127 1.511 . S
C1125 C1121 1.376 . S
C1125 C1124 1.392 . S
C1125 H1137 0.929 . S
C1126 C1122 1.531 . S
C1126 H1138 0.960 . S
C1126 H1139 0.962 . S
C1126 H1140 0.960 . S
C1127 C1124 1.511 . S
C1127 H1141 0.961 . S
C1127 H1142 0.961 . S
C1127 H1143 0.961 . S
C1128 C1129 1.370 . S
C1128 C1130 1.363 . S
C1128 H1144 0.931 . S
C1129 C1128 1.370 . S
C1129 C1133 1.408 . S
C1130 C1128 1.363 . S
C1130 C1131 1.370 . S
C1130 C1134 1.524 . S
C1131 C1123 1.503 . S
C1131 C1130 1.370 . S
C1131 C1132 1.403 . S
C1132 C1131 1.403 . S
C1132 C1133 1.404 . S
C1132 C1135 1.539 . S
C1133 C1129 1.408 . S
C1133 C1132 1.404 . S
C1133 H1145 0.930 . S
C1134 C1130 1.524 . S
C1134 H1146 0.956 . S
C1134 H1147 0.961 . S
C1134 H1148 0.961 . S
C1135 C1132 1.539 . S
C1135 H1149 0.958 . S
C1135 H1150 0.961 . S
C1135 H1151 0.960 . S
H1136 C1120 0.931 . S
H1137 C1125 0.929 . S
H1138 C1126 0.960 . S
H1139 C1126 0.962 . S
H1140 C1126 0.960 . S
H1141 C1127 0.961 . S
H1142 C1127 0.961 . S
H1143 C1127 0.961 . S
H1144 C1128 0.931 . S
H1145 C1133 0.930 . S
H1146 C1134 0.956 . S
H1147 C1134 0.961 . S
H1148 C1134 0.961 . S
H1149 C1135 0.958 . S
H1150 C1135 0.961 . S
H1151 C1135 0.960 . S
C1152 C1153 1.391 . S
C1152 C1154 1.394 . S
C1152 H1168 0.931 . S
C1153 C1152 1.391 . S
C1153 C1157 1.376 . S
C1154 C1152 1.394 . S
C1154 C1155 1.369 . S
C1154 C1158 1.531 . S
C1155 C1154 1.369 . S
C1155 C1156 1.410 . S
C1155 C1163 1.503 . S
C1156 C1155 1.410 . S
C1156 C1157 1.392 . S
C1156 C1159 1.511 . S
C1157 C1153 1.376 . S
C1157 C1156 1.392 . S
C1157 H1169 0.929 . S
C1158 C1154 1.531 . S
C1158 H1170 0.960 . S
C1158 H1171 0.962 . S
C1158 H1172 0.960 . S
C1159 C1156 1.511 . S
C1159 H1173 0.961 . S
C1159 H1174 0.961 . S
C1159 H1175 0.961 . S
C1160 C1161 1.370 . S
C1160 C1162 1.363 . S
C1160 H1176 0.931 . S
C1161 C1160 1.370 . S
C1161 C1165 1.408 . S
C1162 C1160 1.363 . S
C1162 C1163 1.370 . S
C1162 C1166 1.524 . S
C1163 C1155 1.503 . S
C1163 C1162 1.370 . S
C1163 C1164 1.403 . S
C1164 C1163 1.403 . S
C1164 C1165 1.404 . S
C1164 C1167 1.539 . S
C1165 C1161 1.408 . S
C1165 C1164 1.404 . S
C1165 H1177 0.930 . S
C1166 C1162 1.524 . S
C1166 H1178 0.956 . S
C1166 H1179 0.961 . S
C1166 H1180 0.961 . S
C1167 C1164 1.539 . S
C1167 H1181 0.958 . S
C1167 H1182 0.961 . S
C1167 H1183 0.960 . S
H1168 C1152 0.931 . S
H1169 C1157 0.929 . S
H1170 C1158 0.960 . S
H1171 C1158 0.962 . S
H1172 C1158 0.960 . S
H1173 C1159 0.961 . S
H1174 C1159 0.961 . S
H1175 C1159 0.961 . S
H1176 C1160 0.931 . S
H1177 C1165 0.930 . S
H1178 C1166 0.956 . S
H1179 C1166 0.961 . S
H1180 C1166 0.961 . S
H1181 C1167 0.958 . S
H1182 C1167 0.961 . S
H1183 C1167 0.960 . S
C1184 C1185 1.391 . S
C1184 C1186 1.394 . S
C1184 H1200 0.931 . S
C1185 C1184 1.391 . S
C1185 C1189 1.376 . S
C1186 C1184 1.394 . S
C1186 C1187 1.369 1_545 S
C1186 C1190 1.531 . S
C1187 C1186 1.369 1_565 S
C1187 C1188 1.410 . S
C1187 C1195 1.503 . S
C1188 C1187 1.410 . S
C1188 C1189 1.392 1_565 S
C1188 C1191 1.511 . S
C1189 C1185 1.376 . S
C1189 C1188 1.392 1_545 S
C1189 H1201 0.929 . S
C1190 C1186 1.531 . S
C1190 H1202 0.960 1_545 S
C1190 H1203 0.962 1_545 S
C1190 H1204 0.960 . S
C1191 C1188 1.511 . S
C1191 H1205 0.961 . S
C1191 H1206 0.961 . S
C1191 H1207 0.961 . S
C1192 C1193 1.370 . S
C1192 C1194 1.363 . S
C1192 H1208 0.931 . S
C1193 C1192 1.370 . S
C1193 C1197 1.408 . S
C1194 C1192 1.363 . S
C1194 C1195 1.370 . S
C1194 C1198 1.524 . S
C1195 C1187 1.503 . S
C1195 C1194 1.370 . S
C1195 C1196 1.403 . S
C1196 C1195 1.403 . S
C1196 C1197 1.404 . S
C1196 C1199 1.539 . S
C1197 C1193 1.408 . S
C1197 C1196 1.404 . S
C1197 H1209 0.930 . S
C1198 C1194 1.524 . S
C1198 H1210 0.956 . S
C1198 H1211 0.961 . S
C1198 H1212 0.961 . S
C1199 C1196 1.539 . S
C1199 H1213 0.958 . S
C1199 H1214 0.961 . S
C1199 H1215 0.960 . S
H1200 C1184 0.931 . S
H1201 C1189 0.929 . S
H1202 C1190 0.960 1_565 S
H1203 C1190 0.962 1_565 S
H1204 C1190 0.960 . S
H1205 C1191 0.961 . S
H1206 C1191 0.961 . S
H1207 C1191 0.961 . S
H1208 C1192 0.931 . S
H1209 C1197 0.930 . S
H1210 C1198 0.956 . S
H1211 C1198 0.961 . S
H1212 C1198 0.961 . S
H1213 C1199 0.958 . S
H1214 C1199 0.961 . S
H1215 C1199 0.960 . S
C1216 C1217 1.391 . S
C1216 C1218 1.394 . S
C1216 H1232 0.931 1_556 S
C1217 C1216 1.391 . S
C1217 C1221 1.376 . S
C1218 C1216 1.394 . S
C1218 C1219 1.369 . S
C1218 C1222 1.531 . S
C1219 C1218 1.369 . S
C1219 C1220 1.410 . S
C1219 C1227 1.503 . S
C1220 C1219 1.410 . S
C1220 C1221 1.392 . S
C1220 C1223 1.511 . S
C1221 C1217 1.376 . S
C1221 C1220 1.392 . S
C1221 H1233 0.929 . S
C1222 C1218 1.531 . S
C1222 H1234 0.960 . S
C1222 H1235 0.962 . S
C1222 H1236 0.960 1_556 S
C1223 C1220 1.511 . S
C1223 H1237 0.961 . S
C1223 H1238 0.961 . S
C1223 H1239 0.961 . S
C1224 C1225 1.370 . S
C1224 C1226 1.363 . S
C1224 H1240 0.931 . S
C1225 C1224 1.370 . S
C1225 C1229 1.408 . S
C1226 C1224 1.363 . S
C1226 C1227 1.370 . S
C1226 C1230 1.524 . S
C1227 C1219 1.503 . S
C1227 C1226 1.370 . S
C1227 C1228 1.403 . S
C1228 C1227 1.403 . S
C1228 C1229 1.404 . S
C1228 C1231 1.539 . S
C1229 C1225 1.408 . S
C1229 C1228 1.404 . S
C1229 H1241 0.930 . S
C1230 C1226 1.524 . S
C1230 H1242 0.956 . S
C1230 H1243 0.961 . S
C1230 H1244 0.961 . S
C1231 C1228 1.539 . S
C1231 H1245 0.958 . S
C1231 H1246 0.961 . S
C1231 H1247 0.960 . S
H1232 C1216 0.931 1_554 S
H1233 C1221 0.929 . S
H1234 C1222 0.960 . S
H1235 C1222 0.962 . S
H1236 C1222 0.960 1_554 S
H1237 C1223 0.961 . S
H1238 C1223 0.961 . S
H1239 C1223 0.961 . S
H1240 C1224 0.931 . S
H1241 C1229 0.930 . S
H1242 C1230 0.956 . S
H1243 C1230 0.961 . S
H1244 C1230 0.961 . S
H1245 C1231 0.958 . S
H1246 C1231 0.961 . S
H1247 C1231 0.960 . S
C1248 C1249 1.391 . S
C1248 C1250 1.394 1_565 S
C1248 H1264 0.931 . S
C1249 C1248 1.391 . S
C1249 C1253 1.376 . S
C1250 C1248 1.394 1_545 S
C1250 C1251 1.369 . S
C1250 C1254 1.531 . S
C1251 C1250 1.369 . S
C1251 C1252 1.410 . S
C1251 C1259 1.503 . S
C1252 C1251 1.410 . S
C1252 C1253 1.392 1_545 S
C1252 C1255 1.511 . S
C1253 C1249 1.376 . S
C1253 C1252 1.392 1_565 S
C1253 H1265 0.929 . S
C1254 C1250 1.531 . S
C1254 H1266 0.960 . S
C1254 H1267 0.962 . S
C1254 H1268 0.960 . S
C1255 C1252 1.511 . S
C1255 H1269 0.961 . S
C1255 H1270 0.961 . S
C1255 H1271 0.961 . S
C1256 C1257 1.370 . S
C1256 C1258 1.363 . S
C1256 H1272 0.931 . S
C1257 C1256 1.370 . S
C1257 C1261 1.408 . S
C1258 C1256 1.363 . S
C1258 C1259 1.370 . S
C1258 C1262 1.524 . S
C1259 C1251 1.503 . S
C1259 C1258 1.370 . S
C1259 C1260 1.403 . S
C1260 C1259 1.403 . S
C1260 C1261 1.404 . S
C1260 C1263 1.539 . S
C1261 C1257 1.408 . S
C1261 C1260 1.404 . S
C1261 H1273 0.930 . S
C1262 C1258 1.524 . S
C1262 H1274 0.956 1_545 S
C1262 H1275 0.961 1_545 S
C1262 H1276 0.961 . S
C1263 C1260 1.539 . S
C1263 H1277 0.958 . S
C1263 H1278 0.961 . S
C1263 H1279 0.960 . S
H1264 C1248 0.931 . S
H1265 C1253 0.929 . S
H1266 C1254 0.960 . S
H1267 C1254 0.962 . S
H1268 C1254 0.960 . S
H1269 C1255 0.961 . S
H1270 C1255 0.961 . S
H1271 C1255 0.961 . S
H1272 C1256 0.931 . S
H1273 C1261 0.930 . S
H1274 C1262 0.956 1_565 S
H1275 C1262 0.961 1_565 S
H1276 C1262 0.961 . S
H1277 C1263 0.958 . S
H1278 C1263 0.961 . S
H1279 C1263 0.960 . S
C1280 C1281 1.391 . S
C1280 C1282 1.394 . S
C1280 H1296 0.931 . S
C1281 C1280 1.391 . S
C1281 C1285 1.376 . S
C1282 C1280 1.394 . S
C1282 C1283 1.369 . S
C1282 C1286 1.531 . S
C1283 C1282 1.369 . S
C1283 C1284 1.410 . S
C1283 C1291 1.503 . S
C1284 C1283 1.410 . S
C1284 C1285 1.392 . S
C1284 C1287 1.511 . S
C1285 C1281 1.376 . S
C1285 C1284 1.392 . S
C1285 H1297 0.929 . S
C1286 C1282 1.531 . S
C1286 H1298 0.960 . S
C1286 H1299 0.962 . S
C1286 H1300 0.960 . S
C1287 C1284 1.511 . S
C1287 H1301 0.961 . S
C1287 H1302 0.961 . S
C1287 H1303 0.961 . S
C1288 C1289 1.370 . S
C1288 C1290 1.363 . S
C1288 H1304 0.931 . S
C1289 C1288 1.370 . S
C1289 C1293 1.408 . S
C1290 C1288 1.363 . S
C1290 C1291 1.370 . S
C1290 C1294 1.524 . S
C1291 C1283 1.503 . S
C1291 C1290 1.370 . S
C1291 C1292 1.403 . S
C1292 C1291 1.403 . S
C1292 C1293 1.404 . S
C1292 C1295 1.539 . S
C1293 C1289 1.408 . S
C1293 C1292 1.404 . S
C1293 H1305 0.930 . S
C1294 C1290 1.524 . S
C1294 H1306 0.956 . S
C1294 H1307 0.961 . S
C1294 H1308 0.961 . S
C1295 C1292 1.539 . S
C1295 H1309 0.958 . S
C1295 H1310 0.961 . S
C1295 H1311 0.960 . S
H1296 C1280 0.931 . S
H1297 C1285 0.929 . S
H1298 C1286 0.960 . S
H1299 C1286 0.962 . S
H1300 C1286 0.960 . S
H1301 C1287 0.961 . S
H1302 C1287 0.961 . S
H1303 C1287 0.961 . S
H1304 C1288 0.931 . S
H1305 C1293 0.930 . S
H1306 C1294 0.956 . S
H1307 C1294 0.961 . S
H1308 C1294 0.961 . S
H1309 C1295 0.958 . S
H1310 C1295 0.961 . S
H1311 C1295 0.960 . S
C1312 C1313 1.391 . S
C1312 C1314 1.394 . S
C1312 H1328 0.931 . S
C1313 C1312 1.391 . S
C1313 C1317 1.376 . S
C1314 C1312 1.394 . S
C1314 C1315 1.369 . S
C1314 C1318 1.531 . S
C1315 C1314 1.369 . S
C1315 C1316 1.410 . S
C1315 C1323 1.503 . S
C1316 C1315 1.410 . S
C1316 C1317 1.392 . S
C1316 C1319 1.511 . S
C1317 C1313 1.376 . S
C1317 C1316 1.392 . S
C1317 H1329 0.929 . S
C1318 C1314 1.531 . S
C1318 H1330 0.960 . S
C1318 H1331 0.962 . S
C1318 H1332 0.960 . S
C1319 C1316 1.511 . S
C1319 H1333 0.961 . S
C1319 H1334 0.961 . S
C1319 H1335 0.961 . S
C1320 C1321 1.370 . S
C1320 C1322 1.363 1_565 S
C1320 H1336 0.931 . S
C1321 C1320 1.370 . S
C1321 C1325 1.408 . S
C1322 C1320 1.363 1_545 S
C1322 C1323 1.370 . S
C1322 C1326 1.524 . S
C1323 C1315 1.503 . S
C1323 C1322 1.370 . S
C1323 C1324 1.403 1_545 S
C1324 C1323 1.403 1_565 S
C1324 C1325 1.404 . S
C1324 C1327 1.539 . S
C1325 C1321 1.408 . S
C1325 C1324 1.404 . S
C1325 H1337 0.930 . S
C1326 C1322 1.524 . S
C1326 H1338 0.956 . S
C1326 H1339 0.961 . S
C1326 H1340 0.961 . S
C1327 C1324 1.539 . S
C1327 H1341 0.958 . S
C1327 H1342 0.961 . S
C1327 H1343 0.960 . S
H1328 C1312 0.931 . S
H1329 C1317 0.929 . S
H1330 C1318 0.960 . S
H1331 C1318 0.962 . S
H1332 C1318 0.960 . S
H1333 C1319 0.961 . S
H1334 C1319 0.961 . S
H1335 C1319 0.961 . S
H1336 C1320 0.931 . S
H1337 C1325 0.930 . S
H1338 C1326 0.956 . S
H1339 C1326 0.961 . S
H1340 C1326 0.961 . S
H1341 C1327 0.958 . S
H1342 C1327 0.961 . S
H1343 C1327 0.960 . S
C1344 C1345 1.391 . S
C1344 C1346 1.394 . S
C1344 H1360 0.931 . S
C1345 C1344 1.391 . S
C1345 C1349 1.376 . S
C1346 C1344 1.394 . S
C1346 C1347 1.369 . S
C1346 C1350 1.531 . S
C1347 C1346 1.369 . S
C1347 C1348 1.410 . S
C1347 C1355 1.503 . S
C1348 C1347 1.410 . S
C1348 C1349 1.392 . S
C1348 C1351 1.511 . S
C1349 C1345 1.376 . S
C1349 C1348 1.392 . S
C1349 H1361 0.929 . S
C1350 C1346 1.531 . S
C1350 H1362 0.960 . S
C1350 H1363 0.962 . S
C1350 H1364 0.960 . S
C1351 C1348 1.511 . S
C1351 H1365 0.961 . S
C1351 H1366 0.961 . S
C1351 H1367 0.961 . S
C1352 C1353 1.370 . S
C1352 C1354 1.363 . S
C1352 H1368 0.931 . S
C1353 C1352 1.370 . S
C1353 C1357 1.408 . S
C1354 C1352 1.363 . S
C1354 C1355 1.370 . S
C1354 C1358 1.524 . S
C1355 C1347 1.503 . S
C1355 C1354 1.370 . S
C1355 C1356 1.403 . S
C1356 C1355 1.403 . S
C1356 C1357 1.404 . S
C1356 C1359 1.539 . S
C1357 C1353 1.408 . S
C1357 C1356 1.404 . S
C1357 H1369 0.930 . S
C1358 C1354 1.524 . S
C1358 H1370 0.956 . S
C1358 H1371 0.961 . S
C1358 H1372 0.961 . S
C1359 C1356 1.539 . S
C1359 H1373 0.958 . S
C1359 H1374 0.961 . S
C1359 H1375 0.960 . S
H1360 C1344 0.931 . S
H1361 C1349 0.929 . S
H1362 C1350 0.960 . S
H1363 C1350 0.962 . S
H1364 C1350 0.960 . S
H1365 C1351 0.961 . S
H1366 C1351 0.961 . S
H1367 C1351 0.961 . S
H1368 C1352 0.931 . S
H1369 C1357 0.930 . S
H1370 C1358 0.956 . S
H1371 C1358 0.961 . S
H1372 C1358 0.961 . S
H1373 C1359 0.958 . S
H1374 C1359 0.961 . S
H1375 C1359 0.960 . S
C1376 C1377 1.391 . S
C1376 C1378 1.394 . S
C1376 H1392 0.931 . S
C1377 C1376 1.391 . S
C1377 C1381 1.376 . S
C1378 C1376 1.394 . S
C1378 C1379 1.369 1_545 S
C1378 C1382 1.523 1_545 S
C1379 C1378 1.369 1_565 S
C1379 C1380 1.410 . S
C1379 C1387 1.503 . S
C1380 C1379 1.410 . S
C1380 C1381 1.392 1_565 S
C1380 C1383 1.511 . S
C1381 C1377 1.376 . S
C1381 C1380 1.392 1_545 S
C1381 H1393 0.929 . S
C1382 C1378 1.523 1_565 S
C1382 H1394 1.002 . S
C1382 H1395 0.949 1_565 S
C1382 H1396 0.942 1_565 S
C1383 C1380 1.511 . S
C1383 H1397 0.961 . S
C1383 H1398 0.961 . S
C1383 H1399 0.961 . S
C1384 C1385 1.370 . S
C1384 C1386 1.363 . S
C1384 H1400 0.931 . S
C1385 C1384 1.370 . S
C1385 C1389 1.408 . S
C1386 C1384 1.363 . S
C1386 C1387 1.370 . S
C1386 C1390 1.524 . S
C1387 C1379 1.503 . S
C1387 C1386 1.370 . S
C1387 C1388 1.403 . S
C1388 C1387 1.403 . S
C1388 C1389 1.404 . S
C1388 C1391 1.539 . S
C1389 C1385 1.408 . S
C1389 C1388 1.404 . S
C1389 H1401 0.930 . S
C1390 C1386 1.524 . S
C1390 H1402 0.956 1_565 S
C1390 H1403 0.961 . S
C1390 H1404 0.961 . S
C1391 C1388 1.539 . S
C1391 H1405 0.958 . S
C1391 H1406 0.961 . S
C1391 H1407 0.960 . S
H1392 C1376 0.931 . S
H1393 C1381 0.929 . S
H1394 C1382 1.002 . S
H1395 C1382 0.949 1_545 S
H1396 C1382 0.942 1_545 S
H1397 C1383 0.961 . S
H1398 C1383 0.961 . S
H1399 C1383 0.961 . S
H1400 C1384 0.931 . S
H1401 C1389 0.930 . S
H1402 C1390 0.956 1_545 S
H1403 C1390 0.961 . S
H1404 C1390 0.961 . S
H1405 C1391 0.958 . S
H1406 C1391 0.961 . S
H1407 C1391 0.960 . S
C1408 C1409 1.391 . S
C1408 C1410 1.394 . S
C1408 H1424 0.931 . S
C1409 C1408 1.391 . S
C1409 C1413 1.376 . S
C1410 C1408 1.394 . S
C1410 C1411 1.369 . S
C1410 C1414 1.531 . S
C1411 C1410 1.369 . S
C1411 C1412 1.410 . S
C1411 C1419 1.503 . S
C1412 C1411 1.410 . S
C1412 C1413 1.392 . S
C1412 C1415 1.511 . S
C1413 C1409 1.376 . S
C1413 C1412 1.392 . S
C1413 H1425 0.929 . S
C1414 C1410 1.531 . S
C1414 H1426 0.960 . S
C1414 H1427 0.962 . S
C1414 H1428 0.960 . S
C1415 C1412 1.511 . S
C1415 H1429 0.961 . S
C1415 H1430 0.961 . S
C1415 H1431 0.961 . S
C1416 C1417 1.370 . S
C1416 C1418 1.363 . S
C1416 H1432 0.931 . S
C1417 C1416 1.370 . S
C1417 C1421 1.408 . S
C1418 C1416 1.363 . S
C1418 C1419 1.370 . S
C1418 C1422 1.524 . S
C1419 C1411 1.503 . S
C1419 C1418 1.370 . S
C1419 C1420 1.403 . S
C1420 C1419 1.403 . S
C1420 C1421 1.404 . S
C1420 C1423 1.539 . S
C1421 C1417 1.408 . S
C1421 C1420 1.404 . S
C1421 H1433 0.930 . S
C1422 C1418 1.524 . S
C1422 H1434 0.956 . S
C1422 H1435 0.961 . S
C1422 H1436 0.961 . S
C1423 C1420 1.539 . S
C1423 H1437 0.958 . S
C1423 H1438 0.961 . S
C1423 H1439 0.960 . S
H1424 C1408 0.931 . S
H1425 C1413 0.929 . S
H1426 C1414 0.960 . S
H1427 C1414 0.962 . S
H1428 C1414 0.960 . S
H1429 C1415 0.961 . S
H1430 C1415 0.961 . S
H1431 C1415 0.961 . S
H1432 C1416 0.931 . S
H1433 C1421 0.930 . S
H1434 C1422 0.956 . S
H1435 C1422 0.961 . S
H1436 C1422 0.961 . S
H1437 C1423 0.958 . S
H1438 C1423 0.961 . S
H1439 C1423 0.960 . S
C1440 C1441 1.391 . S
C1440 C1442 1.394 . S
C1440 H1456 0.931 . S
C1441 C1440 1.391 . S
C1441 C1445 1.376 . S
C1442 C1440 1.394 . S
C1442 C1443 1.369 . S
C1442 C1446 1.531 . S
C1443 C1442 1.369 . S
C1443 C1444 1.410 . S
C1443 C1451 1.503 . S
C1444 C1443 1.410 . S
C1444 C1445 1.392 . S
C1444 C1447 1.511 . S
C1445 C1441 1.376 . S
C1445 C1444 1.392 . S
C1445 H1457 0.929 . S
C1446 C1442 1.531 . S
C1446 H1458 0.960 . S
C1446 H1459 0.962 . S
C1446 H1460 0.960 . S
C1447 C1444 1.511 . S
C1447 H1461 0.961 . S
C1447 H1462 0.961 . S
C1447 H1463 0.961 . S
C1448 C1449 1.370 . S
C1448 C1450 1.363 . S
C1448 H1464 0.931 . S
C1449 C1448 1.370 . S
C1449 C1453 1.410 . S
C1450 C1448 1.363 . S
C1450 C1451 1.370 . S
C1450 C1454 1.524 . S
C1451 C1443 1.503 . S
C1451 C1450 1.370 . S
C1451 C1452 1.403 . S
C1452 C1451 1.403 . S
C1452 C1453 1.415 . S
C1452 C1455 1.539 . S
C1453 C1449 1.410 . S
C1453 C1452 1.415 . S
C1453 H1465 0.918 1_554 S
C1454 C1450 1.524 . S
C1454 H1466 0.956 . S
C1454 H1467 0.961 . S
C1454 H1468 0.961 . S
C1455 C1452 1.539 . S
C1455 H1469 0.958 . S
C1455 H1470 0.961 . S
C1455 H1471 0.960 . S
H1456 C1440 0.931 . S
H1457 C1445 0.929 . S
H1458 C1446 0.960 . S
H1459 C1446 0.962 . S
H1460 C1446 0.960 . S
H1461 C1447 0.961 . S
H1462 C1447 0.961 . S
H1463 C1447 0.961 . S
H1464 C1448 0.931 . S
H1465 C1453 0.918 1_556 S
H1466 C1454 0.956 . S
H1467 C1454 0.961 . S
H1468 C1454 0.961 . S
H1469 C1455 0.958 . S
H1470 C1455 0.961 . S
H1471 C1455 0.960 . S
C1472 C1473 1.391 . S
C1472 C1474 1.394 . S
C1472 H1488 0.931 . S
C1473 C1472 1.391 . S
C1473 C1477 1.376 . S
C1474 C1472 1.394 . S
C1474 C1475 1.369 . S
C1474 C1478 1.531 1_655 S
C1475 C1474 1.369 . S
C1475 C1476 1.410 . S
C1475 C1483 1.503 . S
C1476 C1475 1.410 . S
C1476 C1477 1.392 . S
C1476 C1479 1.511 . S
C1477 C1473 1.376 . S
C1477 C1476 1.392 . S
C1477 H1489 0.929 . S
C1478 C1474 1.531 1_455 S
C1478 H1490 0.960 . S
C1478 H1491 0.962 . S
C1478 H1492 0.960 . S
C1479 C1476 1.511 . S
C1479 H1493 0.961 . S
C1479 H1494 0.961 . S
C1479 H1495 0.961 . S
C1480 C1481 1.370 1_655 S
C1480 C1482 1.363 . S
C1480 H1496 0.931 . S
C1481 C1480 1.370 1_455 S
C1481 C1485 1.408 . S
C1482 C1480 1.363 . S
C1482 C1483 1.370 . S
C1482 C1486 1.524 . S
C1483 C1475 1.503 . S
C1483 C1482 1.370 . S
C1483 C1484 1.403 . S
C1484 C1483 1.403 . S
C1484 C1485 1.404 1_655 S
C1484 C1487 1.539 . S
C1485 C1481 1.408 . S
C1485 C1484 1.404 1_455 S
C1485 H1497 0.930 . S
C1486 C1482 1.524 . S
C1486 H1498 0.956 . S
C1486 H1499 0.961 . S
C1486 H1500 0.961 . S
C1487 C1484 1.539 . S
C1487 H1501 0.984 . S
C1487 H1502 0.961 . S
C1487 H1503 0.960 . S
H1488 C1472 0.931 . S
H1489 C1477 0.929 . S
H1490 C1478 0.960 . S
H1491 C1478 0.962 . S
H1492 C1478 0.960 . S
H1493 C1479 0.961 . S
H1494 C1479 0.961 . S
H1495 C1479 0.961 . S
H1496 C1480 0.931 . S
H1497 C1485 0.930 . S
H1498 C1486 0.956 . S
H1499 C1486 0.961 . S
H1500 C1486 0.961 . S
H1501 C1487 0.984 . S
H1502 C1487 0.961 . S
H1503 C1487 0.960 . S
C1504 C1505 1.391 . S
C1504 C1506 1.394 . S
C1504 H1520 0.931 . S
C1505 C1504 1.391 . S
C1505 C1509 1.376 . S
C1506 C1504 1.394 . S
C1506 C1507 1.369 . S
C1506 C1510 1.531 . S
C1507 C1506 1.369 . S
C1507 C1508 1.410 . S
C1507 C1515 1.503 . S
C1508 C1507 1.410 . S
C1508 C1509 1.392 . S
C1508 C1511 1.511 . S
C1509 C1505 1.376 . S
C1509 C1508 1.392 . S
C1509 H1521 0.929 . S
C1510 C1506 1.531 . S
C1510 H1522 0.960 . S
C1510 H1523 0.962 . S
C1510 H1524 0.960 . S
C1511 C1508 1.511 . S
C1511 H1525 0.961 . S
C1511 H1526 0.961 . S
C1511 H1527 0.961 . S
C1512 C1513 1.370 . S
C1512 C1514 1.363 . S
C1512 H1528 0.931 . S
C1513 C1512 1.370 . S
C1513 C1517 1.408 . S
C1514 C1512 1.363 . S
C1514 C1515 1.370 . S
C1514 C1518 1.524 . S
C1515 C1507 1.503 . S
C1515 C1514 1.370 . S
C1515 C1516 1.403 . S
C1516 C1515 1.403 . S
C1516 C1517 1.404 . S
C1516 C1519 1.539 . S
C1517 C1513 1.408 . S
C1517 C1516 1.404 . S
C1517 H1529 0.930 . S
C1518 C1514 1.524 . S
C1518 H1530 0.956 . S
C1518 H1531 0.961 . S
C1518 H1532 0.961 . S
C1519 C1516 1.539 . S
C1519 H1533 0.958 . S
C1519 H1534 0.961 . S
C1519 H1535 0.960 . S
H1520 C1504 0.931 . S
H1521 C1509 0.929 . S
H1522 C1510 0.960 . S
H1523 C1510 0.962 . S
H1524 C1510 0.960 . S
H1525 C1511 0.961 . S
H1526 C1511 0.961 . S
H1527 C1511 0.961 . S
H1528 C1512 0.931 . S
H1529 C1517 0.930 . S
H1530 C1518 0.956 . S
H1531 C1518 0.961 . S
H1532 C1518 0.961 . S
H1533 C1519 0.958 . S
H1534 C1519 0.961 . S
H1535 C1519 0.960 . S
C1536 C1537 1.391 . S
C1536 C1538 1.394 . S
C1536 H1552 0.931 . S
C1537 C1536 1.391 . S
C1537 C1541 1.376 . S
C1538 C1536 1.394 . S
C1538 C1539 1.369 . S
C1538 C1542 1.531 . S
C1539 C1538 1.369 . S
C1539 C1540 1.410 . S
C1539 C1547 1.503 . S
C1540 C1539 1.410 . S
C1540 C1541 1.392 . S
C1540 C1543 1.511 . S
C1541 C1537 1.376 . S
C1541 C1540 1.392 . S
C1541 H1553 0.929 . S
C1542 C1538 1.531 . S
C1542 H1554 0.960 . S
C1542 H1555 0.962 . S
C1542 H1556 0.960 . S
C1543 C1540 1.511 . S
C1543 H1557 0.961 . S
C1543 H1558 0.961 . S
C1543 H1559 0.961 . S
C1544 C1545 1.370 . S
C1544 C1546 1.363 . S
C1544 H1560 0.931 . S
C1545 C1544 1.370 . S
C1545 C1549 1.408 . S
C1546 C1544 1.363 . S
C1546 C1547 1.370 . S
C1546 C1550 1.524 . S
C1547 C1539 1.503 . S
C1547 C1546 1.370 . S
C1547 C1548 1.403 . S
C1548 C1547 1.403 . S
C1548 C1549 1.404 . S
C1548 C1551 1.539 . S
C1549 C1545 1.408 . S
C1549 C1548 1.404 . S
C1549 H1561 0.930 . S
C1550 C1546 1.524 . S
C1550 H1562 0.956 . S
C1550 H1563 0.961 . S
C1550 H1564 0.961 . S
C1551 C1548 1.539 . S
C1551 H1565 0.958 . S
C1551 H1566 0.961 . S
C1551 H1567 0.960 . S
H1552 C1536 0.931 . S
H1553 C1541 0.929 . S
H1554 C1542 0.960 . S
H1555 C1542 0.962 . S
H1556 C1542 0.960 . S
H1557 C1543 0.961 . S
H1558 C1543 0.961 . S
H1559 C1543 0.961 . S
H1560 C1544 0.931 . S
H1561 C1549 0.930 . S
H1562 C1550 0.956 . S
H1563 C1550 0.961 . S
H1564 C1550 0.961 . S
H1565 C1551 0.958 . S
H1566 C1551 0.961 . S
H1567 C1551 0.960 . S
C1568 C1569 1.391 . S
C1568 C1570 1.394 . S
C1568 H1584 0.931 . S
C1569 C1568 1.391 . S
C1569 C1573 1.376 . S
C1570 C1568 1.394 . S
C1570 C1571 1.369 . S
C1570 C1574 1.531 . S
C1571 C1570 1.369 . S
C1571 C1572 1.410 . S
C1571 C1579 1.503 . S
C1572 C1571 1.410 . S
C1572 C1573 1.392 . S
C1572 C1575 1.511 . S
C1573 C1569 1.376 . S
C1573 C1572 1.392 . S
C1573 H1585 0.929 . S
C1574 C1570 1.531 . S
C1574 H1586 0.960 . S
C1574 H1587 0.962 . S
C1574 H1588 0.960 . S
C1575 C1572 1.511 . S
C1575 H1589 0.961 . S
C1575 H1590 0.961 . S
C1575 H1591 0.961 . S
C1576 C1577 1.370 . S
C1576 C1578 1.363 . S
C1576 H1592 0.931 1_556 S
C1577 C1576 1.370 . S
C1577 C1581 1.408 . S
C1578 C1576 1.363 . S
C1578 C1579 1.370 . S
C1578 C1582 1.524 . S
C1579 C1571 1.503 . S
C1579 C1578 1.370 . S
C1579 C1580 1.403 . S
C1580 C1579 1.403 . S
C1580 C1581 1.404 . S
C1580 C1583 1.539 . S
C1581 C1577 1.408 . S
C1581 C1580 1.404 . S
C1581 H1593 0.930 . S
C1582 C1578 1.524 . S
C1582 H1594 0.956 . S
C1582 H1595 0.961 . S
C1582 H1596 0.961 . S
C1583 C1580 1.539 . S
C1583 H1597 0.958 . S
C1583 H1598 0.961 . S
C1583 H1599 0.960 . S
H1584 C1568 0.931 . S
H1585 C1573 0.929 . S
H1586 C1574 0.960 . S
H1587 C1574 0.962 . S
H1588 C1574 0.960 . S
H1589 C1575 0.961 . S
H1590 C1575 0.961 . S
H1591 C1575 0.961 . S
H1592 C1576 0.931 1_554 S
H1593 C1581 0.930 . S
H1594 C1582 0.956 . S
H1595 C1582 0.961 . S
H1596 C1582 0.961 . S
H1597 C1583 0.958 . S
H1598 C1583 0.961 . S
H1599 C1583 0.960 . S
C1600 C1601 1.391 . S
C1600 C1602 1.394 . S
C1600 H1616 0.931 . S
C1601 C1600 1.391 . S
C1601 C1605 1.376 . S
C1602 C1600 1.394 . S
C1602 C1603 1.369 . S
C1602 C1606 1.531 . S
C1603 C1602 1.369 . S
C1603 C1604 1.410 . S
C1603 C1611 1.503 . S
C1604 C1603 1.410 . S
C1604 C1605 1.392 . S
C1604 C1607 1.511 . S
C1605 C1601 1.376 . S
C1605 C1604 1.392 . S
C1605 H1617 0.929 . S
C1606 C1602 1.531 . S
C1606 H1618 0.960 1_455 S
C1606 H1619 0.962 1_455 S
C1606 H1620 0.958 1_455 S
C1607 C1604 1.511 . S
C1607 H1621 0.961 . S
C1607 H1622 0.961 . S
C1607 H1623 0.961 . S
C1608 C1609 1.370 . S
C1608 C1610 1.363 1_655 S
C1608 H1624 0.931 . S
C1609 C1608 1.370 . S
C1609 C1613 1.408 1_655 S
C1610 C1608 1.363 1_455 S
C1610 C1611 1.370 . S
C1610 C1614 1.524 . S
C1611 C1603 1.503 . S
C1611 C1610 1.370 . S
C1611 C1612 1.403 . S
C1612 C1611 1.403 . S
C1612 C1613 1.404 . S
C1612 C1615 1.539 . S
C1613 C1609 1.408 1_455 S
C1613 C1612 1.404 . S
C1613 H1625 0.930 . S
C1614 C1610 1.524 . S
C1614 H1626 0.956 . S
C1614 H1627 0.961 . S
C1614 H1628 0.961 . S
C1615 C1612 1.539 . S
C1615 H1629 0.958 . S
C1615 H1630 0.961 . S
C1615 H1631 0.960 . S
H1616 C1600 0.931 . S
H1617 C1605 0.929 . S
H1618 C1606 0.960 1_655 S
H1619 C1606 0.962 1_655 S
H1620 C1606 0.958 1_655 S
H1621 C1607 0.961 . S
H1622 C1607 0.961 . S
H1623 C1607 0.961 . S
H1624 C1608 0.931 . S
H1625 C1613 0.930 . S
H1626 C1614 0.956 . S
H1627 C1614 0.961 . S
H1628 C1614 0.961 . S
H1629 C1615 0.958 . S
H1630 C1615 0.961 . S
H1631 C1615 0.960 . S
C1632 C1633 1.391 . S
C1632 C1634 1.394 . S
C1632 H1648 0.931 . S
C1633 C1632 1.391 . S
C1633 C1637 1.376 . S
C1634 C1632 1.394 . S
C1634 C1635 1.369 . S
C1634 C1638 1.531 . S
C1635 C1634 1.369 . S
C1635 C1636 1.410 . S
C1635 C1643 1.503 . S
C1636 C1635 1.410 . S
C1636 C1637 1.392 . S
C1636 C1639 1.511 . S
C1637 C1633 1.376 . S
C1637 C1636 1.392 . S
C1637 H1649 0.929 . S
C1638 C1634 1.531 . S
C1638 H1650 0.960 . S
C1638 H1651 0.962 . S
C1638 H1652 0.960 . S
C1639 C1636 1.511 . S
C1639 H1653 0.961 . S
C1639 H1654 0.961 . S
C1639 H1655 0.961 . S
C1640 C1641 1.370 . S
C1640 C1642 1.363 . S
C1640 H1656 0.931 . S
C1641 C1640 1.370 . S
C1641 C1645 1.408 . S
C1642 C1640 1.363 . S
C1642 C1643 1.370 . S
C1642 C1646 1.524 . S
C1643 C1635 1.503 . S
C1643 C1642 1.370 . S
C1643 C1644 1.403 . S
C1644 C1643 1.403 . S
C1644 C1645 1.404 . S
C1644 C1647 1.539 . S
C1645 C1641 1.408 . S
C1645 C1644 1.404 . S
C1645 H1657 0.930 . S
C1646 C1642 1.524 . S
C1646 H1658 0.956 . S
C1646 H1659 0.961 . S
C1646 H1660 0.961 . S
C1647 C1644 1.539 . S
C1647 H1661 0.958 . S
C1647 H1662 0.961 . S
C1647 H1663 0.960 . S
H1648 C1632 0.931 . S
H1649 C1637 0.929 . S
H1650 C1638 0.960 . S
H1651 C1638 0.962 . S
H1652 C1638 0.960 . S
H1653 C1639 0.961 . S
H1654 C1639 0.961 . S
H1655 C1639 0.961 . S
H1656 C1640 0.931 . S
H1657 C1645 0.930 . S
H1658 C1646 0.956 . S
H1659 C1646 0.961 . S
H1660 C1646 0.961 . S
H1661 C1647 0.958 . S
H1662 C1647 0.961 . S
H1663 C1647 0.960 . S
C1664 C1665 1.391 . S
C1664 C1666 1.394 . S
C1664 H1680 0.931 . S
C1665 C1664 1.391 . S
C1665 C1669 1.376 1_655 S
C1666 C1664 1.394 . S
C1666 C1667 1.369 1_655 S
C1666 C1670 1.531 . S
C1667 C1666 1.369 1_455 S
C1667 C1668 1.410 . S
C1667 C1675 1.503 . S
C1668 C1667 1.410 . S
C1668 C1669 1.392 . S
C1668 C1671 1.511 . S
C1669 C1665 1.376 1_455 S
C1669 C1668 1.392 . S
C1669 H1681 0.929 . S
C1670 C1666 1.531 . S
C1670 H1682 0.960 . S
C1670 H1683 0.962 . S
C1670 H1684 0.960 . S
C1671 C1668 1.511 . S
C1671 H1685 0.961 . S
C1671 H1686 0.961 . S
C1671 H1687 0.961 . S
C1672 C1673 1.370 . S
C1672 C1674 1.363 . S
C1672 H1688 0.931 . S
C1673 C1672 1.370 . S
C1673 C1677 1.408 . S
C1674 C1672 1.363 . S
C1674 C1675 1.370 . S
C1674 C1678 1.524 . S
C1675 C1667 1.503 . S
C1675 C1674 1.370 . S
C1675 C1676 1.403 . S
C1676 C1675 1.403 . S
C1676 C1677 1.404 . S
C1676 C1679 1.539 . S
C1677 C1673 1.408 . S
C1677 C1676 1.404 . S
C1677 H1689 0.930 . S
C1678 C1674 1.524 . S
C1678 H1690 0.956 . S
C1678 H1691 0.961 . S
C1678 H1692 0.961 . S
C1679 C1676 1.539 . S
C1679 H1693 0.958 . S
C1679 H1694 0.961 . S
C1679 H1695 0.960 . S
H1680 C1664 0.931 . S
H1681 C1669 0.929 . S
H1682 C1670 0.960 . S
H1683 C1670 0.962 . S
H1684 C1670 0.960 . S
H1685 C1671 0.961 . S
H1686 C1671 0.961 . S
H1687 C1671 0.961 . S
H1688 C1672 0.931 . S
H1689 C1677 0.930 . S
H1690 C1678 0.956 . S
H1691 C1678 0.961 . S
H1692 C1678 0.961 . S
H1693 C1679 0.958 . S
H1694 C1679 0.961 . S
H1695 C1679 0.960 . S
C1696 C1697 1.391 . S
C1696 C1698 1.394 . S
C1696 H1712 0.931 . S
C1697 C1696 1.391 . S
C1697 C1701 1.376 . S
C1698 C1696 1.394 . S
C1698 C1699 1.369 . S
C1698 C1702 1.531 . S
C1699 C1698 1.369 . S
C1699 C1700 1.410 . S
C1699 C1707 1.503 . S
C1700 C1699 1.410 . S
C1700 C1701 1.392 . S
C1700 C1703 1.511 . S
C1701 C1697 1.376 . S
C1701 C1700 1.392 . S
C1701 H1713 0.929 . S
C1702 C1698 1.531 . S
C1702 H1714 0.960 . S
C1702 H1715 0.962 . S
C1702 H1716 0.960 . S
C1703 C1700 1.511 . S
C1703 H1717 0.961 . S
C1703 H1718 0.961 . S
C1703 H1719 0.961 . S
C1704 C1705 1.370 . S
C1704 C1706 1.363 . S
C1704 H1720 0.931 . S
C1705 C1704 1.370 . S
C1705 C1709 1.408 . S
C1706 C1704 1.363 . S
C1706 C1707 1.370 . S
C1706 C1710 1.524 . S
C1707 C1699 1.503 . S
C1707 C1706 1.370 . S
C1707 C1708 1.403 . S
C1708 C1707 1.403 . S
C1708 C1709 1.404 . S
C1708 C1711 1.539 . S
C1709 C1705 1.408 . S
C1709 C1708 1.404 . S
C1709 H1721 0.930 . S
C1710 C1706 1.524 . S
C1710 H1722 0.956 . S
C1710 H1723 0.961 . S
C1710 H1724 0.961 . S
C1711 C1708 1.539 . S
C1711 H1725 0.958 . S
C1711 H1726 0.961 . S
C1711 H1727 0.960 . S
H1712 C1696 0.931 . S
H1713 C1701 0.929 . S
H1714 C1702 0.960 . S
H1715 C1702 0.962 . S
H1716 C1702 0.960 . S
H1717 C1703 0.961 . S
H1718 C1703 0.961 . S
H1719 C1703 0.961 . S
H1720 C1704 0.931 . S
H1721 C1709 0.930 . S
H1722 C1710 0.956 . S
H1723 C1710 0.961 . S
H1724 C1710 0.961 . S
H1725 C1711 0.958 . S
H1726 C1711 0.961 . S
H1727 C1711 0.960 . S
C1728 C1729 1.391 . S
C1728 C1730 1.394 . S
C1728 H1744 0.931 . S
C1729 C1728 1.391 . S
C1729 C1733 1.376 . S
C1730 C1728 1.394 . S
C1730 C1731 1.369 . S
C1730 C1734 1.531 . S
C1731 C1730 1.369 . S
C1731 C1732 1.410 . S
C1731 C1739 1.503 . S
C1732 C1731 1.410 . S
C1732 C1733 1.392 . S
C1732 C1735 1.511 . S
C1733 C1729 1.376 . S
C1733 C1732 1.392 . S
C1733 H1745 0.929 . S
C1734 C1730 1.531 . S
C1734 H1746 0.960 . S
C1734 H1747 0.962 . S
C1734 H1748 0.960 . S
C1735 C1732 1.511 . S
C1735 H1749 0.961 . S
C1735 H1750 0.961 . S
C1735 H1751 0.961 . S
C1736 C1737 1.370 . S
C1736 C1738 1.363 . S
C1736 H1752 0.931 . S
C1737 C1736 1.370 . S
C1737 C1741 1.408 . S
C1738 C1736 1.363 . S
C1738 C1739 1.370 . S
C1738 C1742 1.524 . S
C1739 C1731 1.503 . S
C1739 C1738 1.370 . S
C1739 C1740 1.403 . S
C1740 C1739 1.403 . S
C1740 C1741 1.404 . S
C1740 C1743 1.539 . S
C1741 C1737 1.408 . S
C1741 C1740 1.404 . S
C1741 H1753 0.930 . S
C1742 C1738 1.524 . S
C1742 H1754 0.956 . S
C1742 H1755 0.961 . S
C1742 H1756 0.961 . S
C1743 C1740 1.539 . S
C1743 H1757 0.958 . S
C1743 H1758 0.961 . S
C1743 H1759 0.960 . S
H1744 C1728 0.931 . S
H1745 C1733 0.929 . S
H1746 C1734 0.960 . S
H1747 C1734 0.962 . S
H1748 C1734 0.960 . S
H1749 C1735 0.961 . S
H1750 C1735 0.961 . S
H1751 C1735 0.961 . S
H1752 C1736 0.931 . S
H1753 C1741 0.930 . S
H1754 C1742 0.956 . S
H1755 C1742 0.961 . S
H1756 C1742 0.961 . S
H1757 C1743 0.958 . S
H1758 C1743 0.961 . S
H1759 C1743 0.960 . S
C1760 C1761 1.391 . S
C1760 C1762 1.394 . S
C1760 H1776 0.931 . S
C1761 C1760 1.391 . S
C1761 C1765 1.376 . S
C1762 C1760 1.394 . S
C1762 C1763 1.369 . S
C1762 C1766 1.531 . S
C1763 C1762 1.369 . S
C1763 C1764 1.410 . S
C1763 C1771 1.503 . S
C1764 C1763 1.410 . S
C1764 C1765 1.392 . S
C1764 C1767 1.511 . S
C1765 C1761 1.376 . S
C1765 C1764 1.392 . S
C1765 H1777 0.929 1_554 S
C1766 C1762 1.531 . S
C1766 H1778 0.960 . S
C1766 H1779 0.962 . S
C1766 H1780 0.960 . S
C1767 C1764 1.511 . S
C1767 H1781 0.961 . S
C1767 H1782 0.961 . S
C1767 H1783 0.961 . S
C1768 C1769 1.370 . S
C1768 C1770 1.363 . S
C1768 H1784 0.931 . S
C1769 C1768 1.370 . S
C1769 C1773 1.408 . S
C1770 C1768 1.363 . S
C1770 C1771 1.370 . S
C1770 C1774 1.524 . S
C1771 C1763 1.503 . S
C1771 C1770 1.370 . S
C1771 C1772 1.403 . S
C1772 C1771 1.403 . S
C1772 C1773 1.404 . S
C1772 C1775 1.539 . S
C1773 C1769 1.408 . S
C1773 C1772 1.404 . S
C1773 H1785 0.930 . S
C1774 C1770 1.524 . S
C1774 H1786 0.956 . S
C1774 H1787 0.961 . S
C1774 H1788 0.961 . S
C1775 C1772 1.539 . S
C1775 H1789 0.958 . S
C1775 H1790 0.961 . S
C1775 H1791 0.960 . S
H1776 C1760 0.931 . S
H1777 C1765 0.929 1_556 S
H1778 C1766 0.960 . S
H1779 C1766 0.962 . S
H1780 C1766 0.960 . S
H1781 C1767 0.961 . S
H1782 C1767 0.961 . S
H1783 C1767 0.961 . S
H1784 C1768 0.931 . S
H1785 C1773 0.930 . S
H1786 C1774 0.956 . S
H1787 C1774 0.961 . S
H1788 C1774 0.961 . S
H1789 C1775 0.958 . S
H1790 C1775 0.961 . S
H1791 C1775 0.960 . S
C1792 C1793 1.391 . S
C1792 C1794 1.394 1_455 S
C1792 H1808 0.931 . S
C1793 C1792 1.391 . S
C1793 C1797 1.376 1_455 S
C1794 C1792 1.394 1_655 S
C1794 C1795 1.369 . S
C1794 C1798 1.531 1_655 S
C1795 C1794 1.369 . S
C1795 C1796 1.410 . S
C1795 C1803 1.503 . S
C1796 C1795 1.410 . S
C1796 C1797 1.392 . S
C1796 C1799 1.511 . S
C1797 C1793 1.376 1_655 S
C1797 C1796 1.392 . S
C1797 H1809 0.929 . S
C1798 C1794 1.531 1_455 S
C1798 H1810 0.960 . S
C1798 H1811 0.962 1_455 S
C1798 H1812 0.960 . S
C1799 C1796 1.511 . S
C1799 H1813 0.961 . S
C1799 H1814 0.961 . S
C1799 H1815 0.961 . S
C1800 C1801 1.370 . S
C1800 C1802 1.363 . S
C1800 H1816 0.931 . S
C1801 C1800 1.370 . S
C1801 C1805 1.408 . S
C1802 C1800 1.363 . S
C1802 C1803 1.370 . S
C1802 C1806 1.524 . S
C1803 C1795 1.503 . S
C1803 C1802 1.370 . S
C1803 C1804 1.403 . S
C1804 C1803 1.403 . S
C1804 C1805 1.404 . S
C1804 C1807 1.564 . S
C1805 C1801 1.408 . S
C1805 C1804 1.404 . S
C1805 H1817 0.930 . S
C1806 C1802 1.524 . S
C1806 H1818 0.956 . S
C1806 H1819 0.961 . S
C1806 H1820 0.961 . S
C1807 C1804 1.564 . S
C1807 H1821 0.937 1_655 S
C1807 H1822 0.964 . S
C1807 H1823 0.954 1_655 S
H1808 C1792 0.931 . S
H1809 C1797 0.929 . S
H1810 C1798 0.960 . S
H1811 C1798 0.962 1_655 S
H1812 C1798 0.960 . S
H1813 C1799 0.961 . S
H1814 C1799 0.961 . S
H1815 C1799 0.961 . S
H1816 C1800 0.931 . S
H1817 C1805 0.930 . S
H1818 C1806 0.956 . S
H1819 C1806 0.961 . S
H1820 C1806 0.961 . S
H1821 C1807 0.937 1_455 S
H1822 C1807 0.964 . S
H1823 C1807 0.954 1_455 S
C1824 C1825 1.391 . S
C1824 C1826 1.394 . S
C1824 H1840 0.931 . S
C1825 C1824 1.391 . S
C1825 C1829 1.376 . S
C1826 C1824 1.394 . S
C1826 C1827 1.369 . S
C1826 C1830 1.531 . S
C1827 C1826 1.369 . S
C1827 C1828 1.410 . S
C1827 C1835 1.503 . S
C1828 C1827 1.410 . S
C1828 C1829 1.392 . S
C1828 C1831 1.511 . S
C1829 C1825 1.376 . S
C1829 C1828 1.392 . S
C1829 H1841 0.929 . S
C1830 C1826 1.531 . S
C1830 H1842 0.960 . S
C1830 H1843 0.962 . S
C1830 H1844 0.960 . S
C1831 C1828 1.511 . S
C1831 H1845 0.961 . S
C1831 H1846 0.961 . S
C1831 H1847 0.961 . S
C1832 C1833 1.370 . S
C1832 C1834 1.363 . S
C1832 H1848 0.931 . S
C1833 C1832 1.370 . S
C1833 C1837 1.408 . S
C1834 C1832 1.363 . S
C1834 C1835 1.370 . S
C1834 C1838 1.524 . S
C1835 C1827 1.503 . S
C1835 C1834 1.370 . S
C1835 C1836 1.403 . S
C1836 C1835 1.403 . S
C1836 C1837 1.404 . S
C1836 C1839 1.539 . S
C1837 C1833 1.408 . S
C1837 C1836 1.404 . S
C1837 H1849 0.930 . S
C1838 C1834 1.524 . S
C1838 H1850 0.956 . S
C1838 H1851 0.961 . S
C1838 H1852 0.961 . S
C1839 C1836 1.539 . S
C1839 H1853 0.958 . S
C1839 H1854 0.961 . S
C1839 H1855 0.960 . S
H1840 C1824 0.931 . S
H1841 C1829 0.929 . S
H1842 C1830 0.960 . S
H1843 C1830 0.962 . S
H1844 C1830 0.960 . S
H1845 C1831 0.961 . S
H1846 C1831 0.961 . S
H1847 C1831 0.961 . S
H1848 C1832 0.931 . S
H1849 C1837 0.930 . S
H1850 C1838 0.956 . S
H1851 C1838 0.961 . S
H1852 C1838 0.961 . S
H1853 C1839 0.958 . S
H1854 C1839 0.961 . S
H1855 C1839 0.960 . S
C1856 C1857 1.391 . S
C1856 C1858 1.394 . S
C1856 H1872 0.931 . S
C1857 C1856 1.391 . S
C1857 C1861 1.376 . S
C1858 C1856 1.394 . S
C1858 C1859 1.369 . S
C1858 C1862 1.531 . S
C1859 C1858 1.369 . S
C1859 C1860 1.410 . S
C1859 C1867 1.503 . S
C1860 C1859 1.410 . S
C1860 C1861 1.392 . S
C1860 C1863 1.511 . S
C1861 C1857 1.376 . S
C1861 C1860 1.392 . S
C1861 H1873 0.929 . S
C1862 C1858 1.531 . S
C1862 H1874 0.960 . S
C1862 H1875 0.962 . S
C1862 H1876 0.960 . S
C1863 C1860 1.511 . S
C1863 H1877 0.961 . S
C1863 H1878 0.961 . S
C1863 H1879 0.961 . S
C1864 C1865 1.370 . S
C1864 C1866 1.363 . S
C1864 H1880 0.931 . S
C1865 C1864 1.370 . S
C1865 C1869 1.408 . S
C1866 C1864 1.363 . S
C1866 C1867 1.370 . S
C1866 C1870 1.524 . S
C1867 C1859 1.503 . S
C1867 C1866 1.370 . S
C1867 C1868 1.403 . S
C1868 C1867 1.403 . S
C1868 C1869 1.404 . S
C1868 C1871 1.539 . S
C1869 C1865 1.408 . S
C1869 C1868 1.404 . S
C1869 H1881 0.930 . S
C1870 C1866 1.524 . S
C1870 H1882 0.956 . S
C1870 H1883 0.961 . S
C1870 H1884 0.961 . S
C1871 C1868 1.539 . S
C1871 H1885 0.958 . S
C1871 H1886 0.961 . S
C1871 H1887 0.960 . S
H1872 C1856 0.931 . S
H1873 C1861 0.929 . S
H1874 C1862 0.960 . S
H1875 C1862 0.962 . S
H1876 C1862 0.960 . S
H1877 C1863 0.961 . S
H1878 C1863 0.961 . S
H1879 C1863 0.961 . S
H1880 C1864 0.931 . S
H1881 C1869 0.930 . S
H1882 C1870 0.956 . S
H1883 C1870 0.961 . S
H1884 C1870 0.961 . S
H1885 C1871 0.958 . S
H1886 C1871 0.961 . S
H1887 C1871 0.960 . S
C1888 C1889 1.391 . S
C1888 C1890 1.394 . S
C1888 H1904 0.931 . S
C1889 C1888 1.391 . S
C1889 C1893 1.376 . S
C1890 C1888 1.394 . S
C1890 C1891 1.369 . S
C1890 C1894 1.531 . S
C1891 C1890 1.369 . S
C1891 C1892 1.410 . S
C1891 C1899 1.503 . S
C1892 C1891 1.410 . S
C1892 C1893 1.392 . S
C1892 C1895 1.511 . S
C1893 C1889 1.376 . S
C1893 C1892 1.392 . S
C1893 H1905 0.929 . S
C1894 C1890 1.531 . S
C1894 H1906 0.960 . S
C1894 H1907 0.962 . S
C1894 H1908 0.960 . S
C1895 C1892 1.511 . S
C1895 H1909 0.961 . S
C1895 H1910 0.961 . S
C1895 H1911 0.961 . S
C1896 C1897 1.370 . S
C1896 C1898 1.363 . S
C1896 H1912 0.931 . S
C1897 C1896 1.370 . S
C1897 C1901 1.408 . S
C1898 C1896 1.363 . S
C1898 C1899 1.370 . S
C1898 C1902 1.524 . S
C1899 C1891 1.503 . S
C1899 C1898 1.370 . S
C1899 C1900 1.403 . S
C1900 C1899 1.403 . S
C1900 C1901 1.404 . S
C1900 C1903 1.539 . S
C1901 C1897 1.408 . S
C1901 C1900 1.404 . S
C1901 H1913 0.930 . S
C1902 C1898 1.524 . S
C1902 H1914 0.956 . S
C1902 H1915 0.961 . S
C1902 H1916 0.961 . S
C1903 C1900 1.539 . S
C1903 H1917 0.958 . S
C1903 H1918 0.961 . S
C1903 H1919 0.960 . S
H1904 C1888 0.931 . S
H1905 C1893 0.929 . S
H1906 C1894 0.960 . S
H1907 C1894 0.962 . S
H1908 C1894 0.960 . S
H1909 C1895 0.961 . S
H1910 C1895 0.961 . S
H1911 C1895 0.961 . S
H1912 C1896 0.931 . S
H1913 C1901 0.930 . S
H1914 C1902 0.956 . S
H1915 C1902 0.961 . S
H1916 C1902 0.961 . S
H1917 C1903 0.958 . S
H1918 C1903 0.961 . S
H1919 C1903 0.960 . S
C1920 C1921 1.391 . S
C1920 C1922 1.394 . S
C1920 H1936 0.931 . S
C1921 C1920 1.391 . S
C1921 C1925 1.376 . S
C1922 C1920 1.394 . S
C1922 C1923 1.369 . S
C1922 C1926 1.531 . S
C1923 C1922 1.369 . S
C1923 C1924 1.410 . S
C1923 C1931 1.503 . S
C1924 C1923 1.410 . S
C1924 C1925 1.392 . S
C1924 C1927 1.511 . S
C1925 C1921 1.376 . S
C1925 C1924 1.392 . S
C1925 H1937 0.929 . S
C1926 C1922 1.531 . S
C1926 H1938 0.960 . S
C1926 H1939 0.962 . S
C1926 H1940 0.960 . S
C1927 C1924 1.511 . S
C1927 H1941 0.961 . S
C1927 H1942 0.961 . S
C1927 H1943 0.961 . S
C1928 C1929 1.370 . S
C1928 C1930 1.363 . S
C1928 H1944 0.931 . S
C1929 C1928 1.370 . S
C1929 C1933 1.408 . S
C1930 C1928 1.363 . S
C1930 C1931 1.370 . S
C1930 C1934 1.524 . S
C1931 C1923 1.503 . S
C1931 C1930 1.370 . S
C1931 C1932 1.403 . S
C1932 C1931 1.403 . S
C1932 C1933 1.404 . S
C1932 C1935 1.539 . S
C1933 C1929 1.408 . S
C1933 C1932 1.404 . S
C1933 H1945 0.930 . S
C1934 C1930 1.524 . S
C1934 H1946 0.956 . S
C1934 H1947 0.961 . S
C1934 H1948 0.961 . S
C1935 C1932 1.539 . S
C1935 H1949 0.958 . S
C1935 H1950 0.961 . S
C1935 H1951 0.960 . S
H1936 C1920 0.931 . S
H1937 C1925 0.929 . S
H1938 C1926 0.960 . S
H1939 C1926 0.962 . S
H1940 C1926 0.960 . S
H1941 C1927 0.961 . S
H1942 C1927 0.961 . S
H1943 C1927 0.961 . S
H1944 C1928 0.931 . S
H1945 C1933 0.930 . S
H1946 C1934 0.956 . S
H1947 C1934 0.961 . S
H1948 C1934 0.961 . S
H1949 C1935 0.958 . S
H1950 C1935 0.961 . S
H1951 C1935 0.960 . S
C1952 C1953 1.391 . S
C1952 C1954 1.394 . S
C1952 H1968 0.931 . S
C1953 C1952 1.391 . S
C1953 C1957 1.376 . S
C1954 C1952 1.394 . S
C1954 C1955 1.369 . S
C1954 C1958 1.531 . S
C1955 C1954 1.369 . S
C1955 C1956 1.410 . S
C1955 C1963 1.503 . S
C1956 C1955 1.410 . S
C1956 C1957 1.392 . S
C1956 C1959 1.511 . S
C1957 C1953 1.376 . S
C1957 C1956 1.392 . S
C1957 H1969 0.929 . S
C1958 C1954 1.531 . S
C1958 H1970 0.960 . S
C1958 H1971 0.962 . S
C1958 H1972 0.960 . S
C1959 C1956 1.511 . S
C1959 H1973 0.961 . S
C1959 H1974 0.961 . S
C1959 H1975 0.961 . S
C1960 C1961 1.370 . S
C1960 C1962 1.363 . S
C1960 H1976 0.931 . S
C1961 C1960 1.370 . S
C1961 C1965 1.408 . S
C1962 C1960 1.363 . S
C1962 C1963 1.370 . S
C1962 C1966 1.524 . S
C1963 C1955 1.503 . S
C1963 C1962 1.370 . S
C1963 C1964 1.403 . S
C1964 C1963 1.403 . S
C1964 C1965 1.404 . S
C1964 C1967 1.539 . S
C1965 C1961 1.408 . S
C1965 C1964 1.404 . S
C1965 H1977 0.930 . S
C1966 C1962 1.524 . S
C1966 H1978 0.956 . S
C1966 H1979 0.961 . S
C1966 H1980 0.961 . S
C1967 C1964 1.539 . S
C1967 H1981 0.958 . S
C1967 H1982 0.961 . S
C1967 H1983 0.960 . S
H1968 C1952 0.931 . S
H1969 C1957 0.929 . S
H1970 C1958 0.960 . S
H1971 C1958 0.962 . S
H1972 C1958 0.960 . S
H1973 C1959 0.961 . S
H1974 C1959 0.961 . S
H1975 C1959 0.961 . S
H1976 C1960 0.931 . S
H1977 C1965 0.930 . S
H1978 C1966 0.956 . S
H1979 C1966 0.961 . S
H1980 C1966 0.961 . S
H1981 C1967 0.958 . S
H1982 C1967 0.961 . S
H1983 C1967 0.960 . S
C1984 C1985 1.391 . S
C1984 C1986 1.394 . S
C1984 H2000 0.931 . S
C1985 C1984 1.391 . S
C1985 C1989 1.376 . S
C1986 C1984 1.394 . S
C1986 C1987 1.369 . S
C1986 C1990 1.531 . S
C1987 C1986 1.369 . S
C1987 C1988 1.410 . S
C1987 C1995 1.503 . S
C1988 C1987 1.410 . S
C1988 C1989 1.392 . S
C1988 C1991 1.511 . S
C1989 C1985 1.376 . S
C1989 C1988 1.392 . S
C1989 H2001 0.929 . S
C1990 C1986 1.531 . S
C1990 H2002 0.960 . S
C1990 H2003 0.962 . S
C1990 H2004 0.960 . S
C1991 C1988 1.511 . S
C1991 H2005 0.961 . S
C1991 H2006 0.961 . S
C1991 H2007 0.961 . S
C1992 C1993 1.370 . S
C1992 C1994 1.363 . S
C1992 H2008 0.931 . S
C1993 C1992 1.370 . S
C1993 C1997 1.408 . S
C1994 C1992 1.363 . S
C1994 C1995 1.370 . S
C1994 C1998 1.524 . S
C1995 C1987 1.503 . S
C1995 C1994 1.370 . S
C1995 C1996 1.403 . S
C1996 C1995 1.403 . S
C1996 C1997 1.404 . S
C1996 C1999 1.539 . S
C1997 C1993 1.408 . S
C1997 C1996 1.404 . S
C1997 H2009 0.930 . S
C1998 C1994 1.524 . S
C1998 H2010 0.956 . S
C1998 H2011 0.961 . S
C1998 H2012 0.961 . S
C1999 C1996 1.539 . S
C1999 H2013 0.958 . S
C1999 H2014 0.961 . S
C1999 H2015 0.960 . S
H2000 C1984 0.931 . S
H2001 C1989 0.929 . S
H2002 C1990 0.960 . S
H2003 C1990 0.962 . S
H2004 C1990 0.960 . S
H2005 C1991 0.961 . S
H2006 C1991 0.961 . S
H2007 C1991 0.961 . S
H2008 C1992 0.931 . S
H2009 C1997 0.930 . S
H2010 C1998 0.956 . S
H2011 C1998 0.961 . S
H2012 C1998 0.961 . S
H2013 C1999 0.958 . S
H2014 C1999 0.961 . S
H2015 C1999 0.960 . S
C2016 C2017 1.391 . S
C2016 C2018 1.394 . S
C2016 H2032 0.931 . S
C2017 C2016 1.391 . S
C2017 C2021 1.376 . S
C2018 C2016 1.394 . S
C2018 C2019 1.369 . S
C2018 C2022 1.531 1_455 S
C2019 C2018 1.369 . S
C2019 C2020 1.410 . S
C2019 C2027 1.503 1_454 S
C2020 C2019 1.410 . S
C2020 C2021 1.392 . S
C2020 C2023 1.511 1_554 S
C2021 C2017 1.376 . S
C2021 C2020 1.392 . S
C2021 H2033 0.929 . S
C2022 C2018 1.531 1_655 S
C2022 H2034 0.960 . S
C2022 H2035 0.962 . S
C2022 H2036 0.960 . S
C2023 C2020 1.511 1_556 S
C2023 H2037 0.961 . S
C2023 H2038 0.961 . S
C2023 H2039 0.961 . S
C2024 C2025 1.370 . S
C2024 C2026 1.363 . S
C2024 H2040 0.931 . S
C2025 C2024 1.370 . S
C2025 C2029 1.408 . S
C2026 C2024 1.363 . S
C2026 C2027 1.370 . S
C2026 C2030 1.524 1_655 S
C2027 C2019 1.503 1_656 S
C2027 C2026 1.370 . S
C2027 C2028 1.403 . S
C2028 C2027 1.403 . S
C2028 C2029 1.404 . S
C2028 C2031 1.539 . S
C2029 C2025 1.408 . S
C2029 C2028 1.404 . S
C2029 H2041 0.930 . S
C2030 C2026 1.524 1_455 S
C2030 H2042 0.956 1_556 S
C2030 H2043 0.961 . S
C2030 H2044 0.961 . S
C2031 C2028 1.539 . S
C2031 H2045 0.958 1_556 S
C2031 H2046 0.961 . S
C2031 H2047 0.960 1_556 S
H2032 C2016 0.931 . S
H2033 C2021 0.929 . S
H2034 C2022 0.960 . S
H2035 C2022 0.962 . S
H2036 C2022 0.960 . S
H2037 C2023 0.961 . S
H2038 C2023 0.961 . S
H2039 C2023 0.961 . S
H2040 C2024 0.931 . S
H2041 C2029 0.930 . S
H2042 C2030 0.956 1_554 S
H2043 C2030 0.961 . S
H2044 C2030 0.961 . S
H2045 C2031 0.958 1_554 S
H2046 C2031 0.961 . S
H2047 C2031 0.960 1_554 S
C2048 C2049 1.391 . S
C2048 C2050 1.394 . S
C2048 H2064 0.931 . S
C2049 C2048 1.391 . S
C2049 C2053 1.376 . S
C2050 C2048 1.394 . S
C2050 C2051 1.369 . S
C2050 C2054 1.531 . S
C2051 C2050 1.369 . S
C2051 C2052 1.410 . S
C2051 C2059 1.503 . S
C2052 C2051 1.410 . S
C2052 C2053 1.392 . S
C2052 C2055 1.511 . S
C2053 C2049 1.376 . S
C2053 C2052 1.392 . S
C2053 H2065 0.929 . S
C2054 C2050 1.531 . S
C2054 H2066 0.960 . S
C2054 H2067 0.962 . S
C2054 H2068 0.960 . S
C2055 C2052 1.511 . S
C2055 H2069 0.961 . S
C2055 H2070 0.961 . S
C2055 H2071 0.961 . S
C2056 C2057 1.370 . S
C2056 C2058 1.363 . S
C2056 H2072 0.931 . S
C2057 C2056 1.370 . S
C2057 C2061 1.408 . S
C2058 C2056 1.363 . S
C2058 C2059 1.370 . S
C2058 C2062 1.524 . S
C2059 C2051 1.503 . S
C2059 C2058 1.370 . S
C2059 C2060 1.403 . S
C2060 C2059 1.403 . S
C2060 C2061 1.404 . S
C2060 C2063 1.539 . S
C2061 C2057 1.408 . S
C2061 C2060 1.404 . S
C2061 H2073 0.930 . S
C2062 C2058 1.524 . S
C2062 H2074 0.956 . S
C2062 H2075 0.961 . S
C2062 H2076 0.961 . S
C2063 C2060 1.539 . S
C2063 H2077 0.958 . S
C2063 H2078 0.961 . S
C2063 H2079 0.960 . S
H2064 C2048 0.931 . S
H2065 C2053 0.929 . S
H2066 C2054 0.960 . S
H2067 C2054 0.962 . S
H2068 C2054 0.960 . S
H2069 C2055 0.961 . S
H2070 C2055 0.961 . S
H2071 C2055 0.961 . S
H2072 C2056 0.931 . S
H2073 C2061 0.930 . S
H2074 C2062 0.956 . S
H2075 C2062 0.961 . S
H2076 C2062 0.961 . S
H2077 C2063 0.958 . S
H2078 C2063 0.961 . S
H2079 C2063 0.960 . S
C2080 C2081 1.391 . S
C2080 C2082 1.394 . S
C2080 H2096 0.931 . S
C2081 C2080 1.391 . S
C2081 C2085 1.376 . S
C2082 C2080 1.394 . S
C2082 C2083 1.369 . S
C2082 C2086 1.531 . S
C2083 C2082 1.369 . S
C2083 C2084 1.410 . S
C2083 C2091 1.503 . S
C2084 C2083 1.410 . S
C2084 C2085 1.392 . S
C2084 C2087 1.511 . S
C2085 C2081 1.376 . S
C2085 C2084 1.392 . S
C2085 H2097 0.929 . S
C2086 C2082 1.531 . S
C2086 H2098 0.960 . S
C2086 H2099 0.962 . S
C2086 H2100 0.960 . S
C2087 C2084 1.511 . S
C2087 H2101 0.961 . S
C2087 H2102 0.961 . S
C2087 H2103 0.961 . S
C2088 C2089 1.370 . S
C2088 C2090 1.363 . S
C2088 H2104 0.931 . S
C2089 C2088 1.370 . S
C2089 C2093 1.408 . S
C2090 C2088 1.363 . S
C2090 C2091 1.370 . S
C2090 C2094 1.524 . S
C2091 C2083 1.503 . S
C2091 C2090 1.370 . S
C2091 C2092 1.403 . S
C2092 C2091 1.403 . S
C2092 C2093 1.404 . S
C2092 C2095 1.539 . S
C2093 C2089 1.408 . S
C2093 C2092 1.404 . S
C2093 H2105 0.930 . S
C2094 C2090 1.524 . S
C2094 H2106 0.956 . S
C2094 H2107 0.961 . S
C2094 H2108 0.961 . S
C2095 C2092 1.539 . S
C2095 H2109 0.958 . S
C2095 H2110 0.961 . S
C2095 H2111 0.960 . S
H2096 C2080 0.931 . S
H2097 C2085 0.929 . S
H2098 C2086 0.960 . S
H2099 C2086 0.962 . S
H2100 C2086 0.960 . S
H2101 C2087 0.961 . S
H2102 C2087 0.961 . S
H2103 C2087 0.961 . S
H2104 C2088 0.931 . S
H2105 C2093 0.930 . S
H2106 C2094 0.956 . S
H2107 C2094 0.961 . S
H2108 C2094 0.961 . S
H2109 C2095 0.958 . S
H2110 C2095 0.961 . S
H2111 C2095 0.960 . S
C2112 C2113 1.391 1_565 S
C2112 C2114 1.394 . S
C2112 H2128 0.931 . S
C2113 C2112 1.391 1_545 S
C2113 C2117 1.376 . S
C2114 C2112 1.394 . S
C2114 C2115 1.369 . S
C2114 C2118 1.531 1_455 S
C2115 C2114 1.369 . S
C2115 C2116 1.410 1_565 S
C2115 C2123 1.503 1_456 S
C2116 C2115 1.410 1_545 S
C2116 C2117 1.392 . S
C2116 C2119 1.511 1_556 S
C2117 C2113 1.376 . S
C2117 C2116 1.392 . S
C2117 H2129 0.929 . S
C2118 C2114 1.531 1_655 S
C2118 H2130 0.960 . S
C2118 H2131 0.962 . S
C2118 H2132 0.960 . S
C2119 C2116 1.511 1_554 S
C2119 H2133 0.961 . S
C2119 H2134 0.961 . S
C2119 H2135 0.961 1_545 S
C2120 C2121 1.370 1_545 S
C2120 C2122 1.363 . S
C2120 H2136 0.931 . S
C2121 C2120 1.370 1_565 S
C2121 C2125 1.408 . S
C2122 C2120 1.363 . S
C2122 C2123 1.370 1_545 S
C2122 C2126 1.524 . S
C2123 C2115 1.503 1_654 S
C2123 C2122 1.370 1_565 S
C2123 C2124 1.403 . S
C2124 C2123 1.403 . S
C2124 C2125 1.404 . S
C2124 C2127 1.525 1_655 S
C2125 C2121 1.408 . S
C2125 C2124 1.404 . S
C2125 H2137 0.930 . S
C2126 C2122 1.524 . S
C2126 H2138 0.956 1_554 S
C2126 H2139 0.914 1_655 S
C2126 H2140 0.961 . S
C2127 C2124 1.525 1_455 S
C2127 H2141 0.946 1_455 S
C2127 H2142 0.963 . S
C2127 H2143 0.985 . S
H2128 C2112 0.931 . S
H2129 C2117 0.929 . S
H2130 C2118 0.960 . S
H2131 C2118 0.962 . S
H2132 C2118 0.960 . S
H2133 C2119 0.961 . S
H2134 C2119 0.961 . S
H2135 C2119 0.961 1_565 S
H2136 C2120 0.931 . S
H2137 C2125 0.930 . S
H2138 C2126 0.956 1_556 S
H2139 C2126 0.914 1_455 S
H2140 C2126 0.961 . S
H2141 C2127 0.946 1_655 S
H2142 C2127 0.963 . S
H2143 C2127 0.985 . S
C2144 C2145 1.391 1_565 S
C2144 C2146 1.394 . S
C2144 H2160 0.931 . S
C2145 C2144 1.391 1_545 S
C2145 C2149 1.376 . S
C2146 C2144 1.394 . S
C2146 C2147 1.369 . S
C2146 C2150 1.531 . S
C2147 C2146 1.369 . S
C2147 C2148 1.410 1_565 S
C2147 C2155 1.503 . S
C2148 C2147 1.410 1_545 S
C2148 C2149 1.392 . S
C2148 C2151 1.511 . S
C2149 C2145 1.376 . S
C2149 C2148 1.392 . S
C2149 H2161 0.929 . S
C2150 C2146 1.531 . S
C2150 H2162 0.960 . S
C2150 H2163 0.962 . S
C2150 H2164 0.960 . S
C2151 C2148 1.511 . S
C2151 H2165 0.961 . S
C2151 H2166 0.961 . S
C2151 H2167 0.961 . S
C2152 C2153 1.370 1_545 S
C2152 C2154 1.363 . S
C2152 H2168 0.931 . S
C2153 C2152 1.370 1_565 S
C2153 C2157 1.408 . S
C2154 C2152 1.363 . S
C2154 C2155 1.370 1_545 S
C2154 C2158 1.524 . S
C2155 C2147 1.503 . S
C2155 C2154 1.370 1_565 S
C2155 C2156 1.403 . S
C2156 C2155 1.403 . S
C2156 C2157 1.404 . S
C2156 C2159 1.539 . S
C2157 C2153 1.408 . S
C2157 C2156 1.404 . S
C2157 H2169 0.930 . S
C2158 C2154 1.524 . S
C2158 H2170 0.956 . S
C2158 H2171 0.961 . S
C2158 H2172 0.961 . S
C2159 C2156 1.539 . S
C2159 H2173 0.958 . S
C2159 H2174 0.961 . S
C2159 H2175 0.960 . S
H2160 C2144 0.931 . S
H2161 C2149 0.929 . S
H2162 C2150 0.960 . S
H2163 C2150 0.962 . S
H2164 C2150 0.960 . S
H2165 C2151 0.961 . S
H2166 C2151 0.961 . S
H2167 C2151 0.961 . S
H2168 C2152 0.931 . S
H2169 C2157 0.930 . S
H2170 C2158 0.956 . S
H2171 C2158 0.961 . S
H2172 C2158 0.961 . S
H2173 C2159 0.958 . S
H2174 C2159 0.961 . S
H2175 C2159 0.960 . S
C641 C10 3.310 . S
C649 C410 3.312 . S
C673 C50 3.309 . S
C681 C450 3.316 . S
C705 C90 3.298 . S
C713 C330 3.317 . S
C737 C130 3.301 . S
C745 C370 3.319 . S
C769 C179 3.320 . S
C777 C579 3.309 . S
C801 C219 3.311 . S
C809 C619 3.313 . S
C833 C259 3.315 . S
C841 C499 3.311 . S
C865 C299 3.298 . S
C873 C539 3.318 . S
C897 C369 3.740 . S
C905 C19 3.709 1_556 S
C929 C409 3.735 . S
C937 C59 3.705 . S
C961 C449 3.738 . S
C969 C99 3.708 . S
C993 C329 3.756 . S
C1001 C139 3.716 . S
C1025 C170 3.691 1_554 S
C1033 C538 3.747 . S
C1057 C578 3.731 . S
C1065 C210 3.704 . S
C1089 C618 3.737 . S
C1097 C250 3.704 . S
C1121 C498 3.731 . S
C1129 C290 3.705 . S
C1153 C49 3.753 . S
C1161 C339 3.714 . S
C1185 C379 3.698 . S
C1193 C89 3.747 . S
C1217 C419 3.696 1_556 S
C1225 C129 3.748 . S
C1249 C459 3.716 . S
C1257 C9 3.755 . S
C1281 C490 3.713 . S
C1289 C218 3.751 . S
C1313 C258 3.731 . S
C1321 C530 3.703 . S
C1345 C298 3.751 . S
C1353 C570 3.715 1_554 S
C1377 C610 3.710 . S
C1385 C178 3.754 . S
C1409 C6 0.405 . S
C1417 C609 0.136 . S
C1441 C46 0.296 . S
C1449 C169 0.179 . S
C1473 C529 0.071 . S
C1481 C86 0.419 . S
C1505 C249 0.063 . S
C1513 C126 0.407 . S
C1537 C175 0.489 . S
C1545 C458 0.155 . S
C1569 C215 0.421 . S
C1577 C18 0.230 . S
C1601 C378 0.298 . S
C1609 C255 0.393 . S
C1633 C98 0.253 . S
C1641 C295 0.436 . S
C1665 C326 0.343 . S
C1673 C289 0.229 . S
C1697 C366 0.297 . S
C1705 C489 0.178 . S
C1729 C209 0.119 . S
C1737 C406 0.375 . S
C1761 C569 0.298 . S
C1769 C446 0.379 . S
C1793 C495 0.357 . S
C1801 C138 0.139 . S
C1825 C535 0.492 . S
C1833 C338 0.213 . S
C1857 C575 0.498 . S
C1865 C58 0.164 . S
C1889 C418 0.282 . S
C1897 C615 0.423 . S
C1921 C15 1.577 . S
C1929 C486 1.637 . S
C1953 C55 1.574 . S
C1961 C206 1.636 . S
C1985 C95 1.640 . S
C1993 C566 1.613 . S
C2017 C286 1.571 . S
C2025 C135 1.638 . S
C2049 C166 1.658 . S
C2057 C335 1.604 . S
C2081 C415 1.649 . S
C2089 C246 1.604 . S
C2113 C375 1.661 . S
C2121 C526 1.601 . S
C2145 C606 1.640 . S
C2153 C455 1.613 . S
