# Generated by pormake.
# Topology zfg, (5)-cn, num edge types: 1
# Building blocks:
#     Node 0, Type 0, BuildingBlock: BEQFEK_clean_sbu_0, # of connection points: 5
#     Node 1, Type 0, BuildingBlock: BEQFEK_clean_sbu_0, # of connection points: 5
#     Node 2, Type 0, BuildingBlock: BEQFEK_clean_sbu_0, # of connection points: 5
#     Node 3, Type 0, BuildingBlock: BEQFEK_clean_sbu_0, # of connection points: 5
#     Node 4, Type 0, BuildingBlock: BEQFEK_clean_sbu_0, # of connection points: 5
#     Node 5, Type 0, BuildingBlock: BEQFEK_clean_sbu_0, # of connection points: 5
#     Node 6, Type 0, BuildingBlock: BEQFEK_clean_sbu_0, # of connection points: 5
#     Node 7, Type 0, BuildingBlock: BEQFEK_clean_sbu_0, # of connection points: 5
#     Node 8, Type 0, BuildingBlock: BEQFEK_clean_sbu_0, # of connection points: 5
#     Node 9, Type 0, BuildingBlock: BEQFEK_clean_sbu_0, # of connection points: 5
#     Node 10, Type 0, BuildingBlock: BEQFEK_clean_sbu_0, # of connection points: 5
#     Node 11, Type 0, BuildingBlock: BEQFEK_clean_sbu_0, # of connection points: 5
#     Node 12, Type 0, BuildingBlock: BEQFEK_clean_sbu_0, # of connection points: 5
#     Node 13, Type 0, BuildingBlock: BEQFEK_clean_sbu_0, # of connection points: 5
#     Node 14, Type 0, BuildingBlock: BEQFEK_clean_sbu_0, # of connection points: 5
#     Node 15, Type 0, BuildingBlock: BEQFEK_clean_sbu_0, # of connection points: 5
#     Edge 16, Type (0, 0), BuildingBlock: XIVTED_clean_linker_0, # of connection points: 2
#     Edge 17, Type (0, 0), BuildingBlock: XIVTED_clean_linker_0, # of connection points: 2
#     Edge 18, Type (0, 0), BuildingBlock: XIVTED_clean_linker_0, # of connection points: 2
#     Edge 19, Type (0, 0), BuildingBlock: XIVTED_clean_linker_0, # of connection points: 2
#     Edge 20, Type (0, 0), BuildingBlock: XIVTED_clean_linker_0, # of connection points: 2
#     Edge 21, Type (0, 0), BuildingBlock: XIVTED_clean_linker_0, # of connection points: 2
#     Edge 22, Type (0, 0), BuildingBlock: XIVTED_clean_linker_0, # of connection points: 2
#     Edge 23, Type (0, 0), BuildingBlock: XIVTED_clean_linker_0, # of connection points: 2
#     Edge 24, Type (0, 0), BuildingBlock: XIVTED_clean_linker_0, # of connection points: 2
#     Edge 25, Type (0, 0), BuildingBlock: XIVTED_clean_linker_0, # of connection points: 2
#     Edge 26, Type (0, 0), BuildingBlock: XIVTED_clean_linker_0, # of connection points: 2
#     Edge 27, Type (0, 0), BuildingBlock: XIVTED_clean_linker_0, # of connection points: 2
#     Edge 28, Type (0, 0), BuildingBlock: XIVTED_clean_linker_0, # of connection points: 2
#     Edge 29, Type (0, 0), BuildingBlock: XIVTED_clean_linker_0, # of connection points: 2
#     Edge 30, Type (0, 0), BuildingBlock: XIVTED_clean_linker_0, # of connection points: 2
#     Edge 31, Type (0, 0), BuildingBlock: XIVTED_clean_linker_0, # of connection points: 2
#     Edge 32, Type (0, 0), BuildingBlock: XIVTED_clean_linker_0, # of connection points: 2
#     Edge 33, Type (0, 0), BuildingBlock: XIVTED_clean_linker_0, # of connection points: 2
#     Edge 34, Type (0, 0), BuildingBlock: XIVTED_clean_linker_0, # of connection points: 2
#     Edge 35, Type (0, 0), BuildingBlock: XIVTED_clean_linker_0, # of connection points: 2
#     Edge 36, Type (0, 0), BuildingBlock: XIVTED_clean_linker_0, # of connection points: 2
#     Edge 37, Type (0, 0), BuildingBlock: XIVTED_clean_linker_0, # of connection points: 2
#     Edge 38, Type (0, 0), BuildingBlock: XIVTED_clean_linker_0, # of connection points: 2
#     Edge 39, Type (0, 0), BuildingBlock: XIVTED_clean_linker_0, # of connection points: 2
#     Edge 40, Type (0, 0), BuildingBlock: XIVTED_clean_linker_0, # of connection points: 2
#     Edge 41, Type (0, 0), BuildingBlock: XIVTED_clean_linker_0, # of connection points: 2
#     Edge 42, Type (0, 0), BuildingBlock: XIVTED_clean_linker_0, # of connection points: 2
#     Edge 43, Type (0, 0), BuildingBlock: XIVTED_clean_linker_0, # of connection points: 2
#     Edge 44, Type (0, 0), BuildingBlock: XIVTED_clean_linker_0, # of connection points: 2
#     Edge 45, Type (0, 0), BuildingBlock: XIVTED_clean_linker_0, # of connection points: 2
#     Edge 46, Type (0, 0), BuildingBlock: XIVTED_clean_linker_0, # of connection points: 2
#     Edge 47, Type (0, 0), BuildingBlock: XIVTED_clean_linker_0, # of connection points: 2
#     Edge 48, Type (0, 0), BuildingBlock: XIVTED_clean_linker_0, # of connection points: 2
#     Edge 49, Type (0, 0), BuildingBlock: XIVTED_clean_linker_0, # of connection points: 2
#     Edge 50, Type (0, 0), BuildingBlock: XIVTED_clean_linker_0, # of connection points: 2
#     Edge 51, Type (0, 0), BuildingBlock: XIVTED_clean_linker_0, # of connection points: 2
#     Edge 52, Type (0, 0), BuildingBlock: XIVTED_clean_linker_0, # of connection points: 2
#     Edge 53, Type (0, 0), BuildingBlock: XIVTED_clean_linker_0, # of connection points: 2
#     Edge 54, Type (0, 0), BuildingBlock: XIVTED_clean_linker_0, # of connection points: 2
#     Edge 55, Type (0, 0), BuildingBlock: XIVTED_clean_linker_0, # of connection points: 2
# Relax obj value: 0.045
# Max RMSD: 0.068
# Mean RMSD: 0.068
data_MOF--net-zfg--node1-BEQFEK_clean_sbu_0--edge1-XIVTED_clean_linker_0
_symmetry_space_group_name_H-M    P1
_symmetry_Int_Tables_number       1
_symmetry_cell_setting            triclinic
loop_
_symmetry_equiv_pos_as_xyz
'x, y, z'
_cell_length_a     42.922221
_cell_length_b     42.967299
_cell_length_c     58.5695
_cell_angle_alpha  89.98459
_cell_angle_beta   89.956517
_cell_angle_gamma 89.949119
loop_
_atom_site_label
_atom_site_type_symbol
_atom_site_fract_x
_atom_site_fract_y
_atom_site_fract_z
_atom_type_partial_charge
Co0 Co 0.08821 0.23386 0.1306 0.0
Co1 Co 0.04732 0.29401 0.13074 0.0
C2 C 0.08318 0.27467 0.08912 0.0
O3 O 0.09398 0.25078 0.09934 0.0
O4 O 0.06504 0.29372 0.09928 0.0
C5 C 0.14041 0.1917 0.12441 0.0
O6 O 0.15128 0.2124 0.10995 0.0
C7 C 0.02899 0.36013 0.12925 0.0
C8 C 0.98546 0.35875 0.14946 0.0
C9 C 0.00526 0.3787 0.1379 0.0
N10 N 0.02339 0.33059 0.13553 0.0
N11 N -0.00283 0.32989 0.14735 0.0
C12 C 0.05776 0.37031 0.11693 0.0
H13 H 0.07646 0.35262 0.11881 0.0
H14 H 0.06591 0.39311 0.12353 0.0
H15 H 0.05237 0.37293 0.09851 0.0
C16 C 0.11682 0.26588 0.17043 0.0
N17 N 0.09622 0.26462 0.1531 0.0
N18 N 0.07887 0.28988 0.15337 0.0
C19 C 0.08765 0.3079 0.17108 0.0
C20 C 0.11213 0.29339 0.18245 0.0
C21 C 0.1412 0.24165 0.17468 0.0
H22 H 0.15412 0.23713 0.15862 0.0
H23 H 0.15799 0.24896 0.18801 0.0
H24 H 0.12976 0.21963 0.17991 0.0
O25 O 0.04533 0.21724 0.13334 0.0
O26 O 0.01681 0.26014 0.13346 0.0
H27 H 0.07812 0.3449 0.19535 0.0
H28 H 0.07687 0.35588 0.16559 0.0
C29 C 0.07128 0.33721 0.178 0.0
H30 H 0.04577 0.3334 0.17783 0.0
H31 H 0.98765 0.30977 0.15448 0.0
O32 O 0.11517 0.19714 0.135 0.0
C33 C 0.01897 0.23071 0.13424 0.0
Co34 Co 0.7608 0.08855 0.12618 0.0
Co35 Co 0.70126 0.04678 0.12589 0.0
C36 C 0.72272 0.08173 0.08399 0.0
O37 O 0.74588 0.0936 0.0944 0.0
O38 O 0.70392 0.06347 0.09419 0.0
C39 C 0.82216 0.10756 0.12093 0.0
O40 O 0.82196 0.0823 0.10828 0.0
C41 C 0.63428 0.03236 0.1228 0.0
C42 C 0.63336 0.98456 0.13678 0.0
C43 C 0.61451 0.00762 0.12769 0.0
N44 N 0.66337 0.02422 0.12889 0.0
N45 N 0.66263 0.99565 0.13722 0.0
C46 C 0.62622 0.06248 0.11138 0.0
H47 H 0.64719 0.0734 0.10383 0.0
H48 H 0.61653 0.07885 0.12418 0.0
H49 H 0.60838 0.05869 0.09795 0.0
C50 C 0.7266 0.11835 0.16458 0.0
N51 N 0.7288 0.09722 0.14765 0.0
N52 N 0.70416 0.07902 0.14814 0.0
C53 C 0.68581 0.08756 0.16576 0.0
C54 C 0.69923 0.11299 0.17668 0.0
C55 C 0.75008 0.14347 0.16862 0.0
H56 H 0.75823 0.15295 0.15205 0.0
H57 H 0.7402 0.16263 0.17907 0.0
H58 H 0.77049 0.13341 0.17762 0.0
O59 O 0.77699 0.04561 0.13038 0.0
O60 O 0.73482 0.016 0.13029 0.0
H61 H 0.65245 0.07413 0.19169 0.0
H62 H 0.63732 0.07697 0.16308 0.0
C63 C 0.6577 0.06976 0.17342 0.0
H64 H 0.66152 0.04448 0.17099 0.0
H65 H 0.68216 0.98361 0.14309 0.0
O66 O 0.79708 0.11613 0.13062 0.0
C67 C 0.76421 0.01898 0.13162 0.0
Co68 Co 0.90959 0.76108 0.13063 0.0
Co69 Co 0.94346 0.69663 0.13171 0.0
C70 C 0.91265 0.71846 0.08928 0.0
O71 O 0.90462 0.7437 0.09919 0.0
O72 O 0.92762 0.6973 0.09992 0.0
C73 C 0.89367 0.825 0.12687 0.0
O74 O 0.92192 0.82667 0.11832 0.0
C75 C 0.95927 0.62961 0.13085 0.0
C76 C -0.00315 0.6286 0.15668 0.0
C77 C 0.97979 0.60987 0.1421 0.0
N78 N 0.96404 0.65867 0.13856 0.0
N79 N 0.98675 0.65792 0.15377 0.0
C80 C 0.93397 0.62092 0.11452 0.0
H81 H 0.91498 0.63846 0.11499 0.0
H82 H 0.92451 0.59754 0.11865 0.0
H83 H 0.9437 0.62028 0.09697 0.0
C84 C 0.87669 0.73294 0.17028 0.0
N85 N 0.89746 0.73158 0.15303 0.0
N86 N 0.911 0.70411 0.1531 0.0
C87 C 0.8989 0.6869 0.1702 0.0
C88 C 0.87679 0.7046 0.18166 0.0
C89 C 0.85715 0.76087 0.17556 0.0
H90 H 0.87257 0.78103 0.17908 0.0
H91 H 0.84281 0.76678 0.16041 0.0
H92 H 0.84162 0.75677 0.19041 0.0
O93 O 0.95355 0.77404 0.13524 0.0
O94 O 0.97669 0.72803 0.13459 0.0
H95 H 0.93469 0.65569 0.18112 0.0
H96 H 0.89636 0.64493 0.19079 0.0
C97 C 0.90973 0.65484 0.17632 0.0
H98 H 0.90735 0.6394 0.16127 0.0
H99 H 0.99489 0.6774 0.16256 0.0
O100 O 0.88315 0.79873 0.13318 0.0
C101 C 0.97811 0.75749 0.13602 0.0
Co102 Co 0.22993 0.91201 0.13039 0.0
Co103 Co 0.29639 0.94127 0.12676 0.0
C104 C 0.2699 0.9078 0.08733 0.0
O105 O 0.24482 0.90279 0.0985 0.0
O106 O 0.2928 0.92206 0.09638 0.0
C107 C 0.18742 0.86048 0.13126 0.0
O108 O 0.21165 0.84446 0.12417 0.0
C109 C 0.36311 0.95783 0.12058 0.0
C110 C 0.36845 0.99184 0.14864 0.0
C111 C 0.38449 0.97743 0.13108 0.0
N112 N 0.3358 0.96039 0.13169 0.0
N113 N 0.33917 0.98085 0.14835 0.0
C114 C 0.36759 0.9387 0.09949 0.0
H115 H 0.34786 0.94277 0.08768 0.0
H116 H 0.36764 0.91367 0.10415 0.0
H117 H 0.38956 0.94462 0.09053 0.0
C118 C 0.25923 0.88332 0.1719 0.0
N119 N 0.26016 0.9008 0.15274 0.0
N120 N 0.28856 0.91165 0.15006 0.0
C121 C 0.30693 0.90037 0.16673 0.0
C122 C 0.28894 0.88245 0.1815 0.0
C123 C 0.22994 0.87002 0.18174 0.0
H124 H 0.20973 0.88488 0.17724 0.0
H125 H 0.22612 0.84646 0.17451 0.0
H126 H 0.23154 0.86806 0.20059 0.0
O127 O 0.21978 0.95669 0.13275 0.0
O128 O 0.26697 0.97664 0.12857 0.0
H129 H 0.3468 0.92749 0.17581 0.0
H130 H 0.35313 0.88597 0.17707 0.0
C131 C 0.34151 0.90495 0.16745 0.0
H132 H 0.35103 0.90541 0.14986 0.0
H133 H 0.32138 0.98729 0.15955 0.0
O134 O 0.19043 0.88936 0.13525 0.0
C135 C 0.23777 0.98008 0.13117 0.0
Co136 Co 0.58652 0.25988 0.37362 0.0
Co137 Co 0.5485 0.19757 0.37464 0.0
C138 C 0.58486 0.21995 0.41548 0.0
O139 O 0.59478 0.24397 0.40496 0.0
O140 O 0.56705 0.20037 0.40567 0.0
C141 C 0.63856 0.30288 0.37549 0.0
O142 O 0.65342 0.28042 0.38613 0.0
C143 C 0.53463 0.12997 0.37821 0.0
C144 C 0.48945 0.12815 0.36017 0.0
C145 C 0.51106 0.1098 0.37143 0.0
N146 N 0.52729 0.15883 0.37102 0.0
N147 N 0.50024 0.1575 0.3603 0.0
C148 C 0.56297 0.12226 0.39199 0.0
H149 H 0.57199 0.14311 0.40083 0.0
H150 H 0.58154 0.11353 0.38047 0.0
H151 H 0.55761 0.10384 0.40469 0.0
C152 C 0.61366 0.22931 0.33239 0.0
N153 N 0.59491 0.22934 0.35089 0.0
N154 N 0.57882 0.20327 0.35129 0.0
C155 C 0.58669 0.18592 0.33299 0.0
C156 C 0.60903 0.20181 0.3204 0.0
C157 C 0.63374 0.25616 0.32548 0.0
H158 H 0.62001 0.27802 0.3263 0.0
H159 H 0.65339 0.25823 0.33768 0.0
H160 H 0.64316 0.25319 0.30798 0.0
O161 O 0.54259 0.27365 0.37207 0.0
O162 O 0.51569 0.22967 0.37216 0.0
H163 H 0.54766 0.157 0.32503 0.0
H164 H 0.58394 0.14383 0.31253 0.0
C165 C 0.57312 0.15465 0.32778 0.0
H166 H 0.57685 0.13902 0.34255 0.0
H167 H 0.48908 0.1767 0.35308 0.0
O168 O 0.61094 0.29828 0.36854 0.0
C169 C 0.51673 0.25922 0.37156 0.0
Co170 Co 0.72912 0.58384 0.37513 0.0
Co171 Co 0.79458 0.55157 0.3755 0.0
C172 C 0.76991 0.58244 0.41729 0.0
O173 O 0.74486 0.59 0.40695 0.0
O174 O 0.79157 0.56771 0.40706 0.0
C175 C 0.6647 0.59859 0.37759 0.0
O176 O 0.66323 0.57035 0.38612 0.0
C177 C 0.86249 0.53833 0.37793 0.0
C178 C 0.86433 0.49523 0.35733 0.0
C179 C 0.88261 0.51541 0.36994 0.0
N180 N 0.83366 0.53188 0.37026 0.0
N181 N 0.83504 0.50617 0.35792 0.0
C182 C 0.87011 0.56487 0.39349 0.0
H183 H 0.84899 0.57353 0.40226 0.0
H184 H 0.87991 0.58429 0.38329 0.0
H185 H 0.88775 0.55768 0.40631 0.0
C186 C 0.75805 0.61651 0.33561 0.0
N187 N 0.7593 0.59625 0.35317 0.0
N188 N 0.78703 0.58317 0.35359 0.0
C189 C 0.8044 0.59488 0.33645 0.0
C190 C 0.78665 0.61645 0.3245 0.0
C191 C 0.72994 0.6355 0.32976 0.0
H192 H 0.71026 0.61971 0.32572 0.0
H193 H 0.72307 0.64963 0.3448 0.0
H194 H 0.73436 0.65118 0.31505 0.0
O195 O 0.71747 0.5393 0.37078 0.0
O196 O 0.7642 0.5176 0.37224 0.0
H197 H 0.83625 0.55834 0.32805 0.0
H198 H 0.84565 0.59513 0.31495 0.0
C199 C 0.83654 0.5839 0.33064 0.0
H200 H 0.85238 0.58905 0.34508 0.0
H201 H 0.81583 0.49586 0.35007 0.0
O202 O 0.69099 0.60947 0.37162 0.0
C203 C 0.73481 0.51526 0.37043 0.0
Co204 Co 0.40247 0.73162 0.37623 0.0
Co205 Co 0.44208 0.79293 0.37744 0.0
C206 C 0.40745 0.77104 0.41872 0.0
O207 O 0.39701 0.74741 0.40802 0.0
O208 O 0.42502 0.79083 0.40888 0.0
C209 C 0.38357 0.67009 0.38188 0.0
O210 O 0.40932 0.67011 0.39399 0.0
C211 C 0.46137 0.85903 0.38208 0.0
C212 C 0.49966 0.86089 0.35685 0.0
C213 C 0.48301 0.87894 0.37217 0.0
N214 N 0.46478 0.83065 0.37268 0.0
N215 N 0.48788 0.83193 0.35778 0.0
C216 C 0.4387 0.86633 0.40075 0.0
H217 H 0.4386 0.84723 0.41338 0.0
H218 H 0.41493 0.86827 0.39347 0.0
H219 H 0.44476 0.88828 0.40966 0.0
C220 C 0.37525 0.76355 0.3357 0.0
N221 N 0.39415 0.76277 0.35408 0.0
N222 N 0.40976 0.78905 0.35528 0.0
C223 C 0.40049 0.80786 0.33817 0.0
C224 C 0.3786 0.79224 0.3249 0.0
C225 C 0.35669 0.73621 0.32765 0.0
H226 H 0.36983 0.71439 0.33075 0.0
H227 H 0.33461 0.73506 0.33748 0.0
H228 H 0.3512 0.73798 0.30919 0.0
O229 O 0.44541 0.71611 0.37258 0.0
O230 O 0.47353 0.75927 0.37369 0.0
H231 H 0.43509 0.8408 0.32788 0.0
H232 H 0.39548 0.85435 0.32421 0.0
C233 C 0.41133 0.84075 0.33535 0.0
H234 H 0.41224 0.85227 0.35222 0.0
H235 H 0.49537 0.81304 0.34801 0.0
O236 O 0.37477 0.69521 0.37239 0.0
C237 C 0.47163 0.7298 0.37204 0.0
Co238 Co 0.25849 0.40257 0.37982 0.0
Co239 Co 0.19845 0.44404 0.37956 0.0
C240 C 0.21874 0.40943 0.4216 0.0
O241 O 0.24215 0.39769 0.41134 0.0
O242 O 0.2 0.42765 0.41129 0.0
C243 C 0.31929 0.38208 0.3862 0.0
O244 O 0.31925 0.40746 0.39871 0.0
C245 C 0.13199 0.4622 0.38223 0.0
C246 C 0.13286 0.50624 0.3627 0.0
C247 C 0.11324 0.48639 0.37451 0.0
N248 N 0.16128 0.46744 0.37501 0.0
N249 N 0.1616 0.49385 0.36344 0.0
C250 C 0.12258 0.4352 0.39686 0.0
H251 H 0.11404 0.41605 0.38583 0.0
H252 H 0.1036 0.44201 0.40874 0.0
H253 H 0.14263 0.42629 0.40674 0.0
C254 C 0.22668 0.37478 0.3397 0.0
N255 N 0.2274 0.3944 0.35764 0.0
N256 N 0.20224 0.41194 0.35737 0.0
C257 C 0.18483 0.4042 0.33909 0.0
C258 C 0.1997 0.3804 0.32728 0.0
C259 C 0.25283 0.35329 0.33358 0.0
H260 H 0.27467 0.36689 0.33186 0.0
H261 H 0.25628 0.33628 0.34762 0.0
H262 H 0.24827 0.34067 0.3174 0.0
O263 O 0.27513 0.44541 0.37599 0.0
O264 O 0.23241 0.47435 0.37574 0.0
H265 H 0.15906 0.44473 0.32941 0.0
H266 H 0.14371 0.40885 0.31776 0.0
C267 C 0.15477 0.41972 0.33288 0.0
H268 H 0.13842 0.41802 0.34745 0.0
H269 H 0.18149 0.50341 0.35599 0.0
O270 O 0.29435 0.37408 0.37612 0.0
C271 C 0.26187 0.47184 0.37469 0.0
Co272 Co 0.90713 0.75826 0.87681 0.0
Co273 Co 0.94264 0.69525 0.87759 0.0
C274 C 0.90973 0.71745 0.91904 0.0
O275 O 0.90144 0.74221 0.90862 0.0
O276 O 0.92541 0.69633 0.90893 0.0
C277 C 0.85532 0.8005 0.88195 0.0
O278 O 0.84277 0.77848 0.89452 0.0
C279 C 0.95967 0.62889 0.87888 0.0
C280 C 0.0016 0.62951 0.85686 0.0
C281 C 0.98239 0.60999 0.86929 0.0
N282 N 0.96523 0.65826 0.87225 0.0
N283 N 0.99052 0.65852 0.85936 0.0
C284 C 0.93176 0.6192 0.89241 0.0
H285 H 0.91323 0.63718 0.89132 0.0
H286 H 0.92274 0.59653 0.88621 0.0
H287 H 0.93856 0.61651 0.91058 0.0
C288 C 0.87569 0.7273 0.83731 0.0
N289 N 0.89633 0.72763 0.85469 0.0
N290 N 0.91137 0.70095 0.85509 0.0
C291 C 0.90093 0.68281 0.83795 0.0
C292 C 0.87782 0.69879 0.82617 0.0
C293 C 0.85367 0.75339 0.8322 0.0
H294 H 0.83843 0.75726 0.84723 0.0
H295 H 0.8388 0.74836 0.81719 0.0
H296 H 0.86708 0.77508 0.82921 0.0
O297 O 0.95083 0.77256 0.87283 0.0
O298 O 0.97474 0.72715 0.87501 0.0
H299 H 0.94015 0.65359 0.83088 0.0
H300 H 0.90571 0.6429 0.81541 0.0
C301 C 0.91447 0.65172 0.83198 0.0
H302 H 0.90862 0.63477 0.8456 0.0
H303 H -0.00025 0.67845 0.85176 0.0
O304 O 0.88172 0.79598 0.87277 0.0
C305 C 0.9757 0.75648 0.87297 0.0
Co306 Co 0.22728 0.90999 0.87479 0.0
Co307 Co 0.29218 0.94196 0.87785 0.0
C308 C 0.26612 0.90782 0.91776 0.0
O309 O 0.24144 0.90119 0.90668 0.0
O310 O 0.28814 0.9232 0.90853 0.0
C311 C 0.18454 0.85936 0.87685 0.0
O312 O 0.20747 0.84518 0.88747 0.0
C313 C 0.35985 0.95459 0.88209 0.0
C314 C 0.36236 -0.00048 0.86372 0.0
C315 C 0.38021 0.97806 0.87551 0.0
N316 N 0.33127 0.96195 0.87438 0.0
N317 N 0.33301 0.98878 0.86342 0.0
C318 C 0.36704 0.92657 0.89635 0.0
H319 H 0.34575 0.91752 0.90466 0.0
H320 H 0.37659 0.90793 0.88528 0.0
H321 H 0.38474 0.93231 0.9095 0.0
C322 C 0.25769 0.88033 0.83433 0.0
N323 N 0.25807 0.89916 0.85276 0.0
N324 N 0.28571 0.91222 0.85438 0.0
C325 C 0.3039 0.9018 0.83723 0.0
C326 C 0.2868 0.88119 0.82401 0.0
C327 C 0.23002 0.86178 0.82692 0.0
H328 H 0.20906 0.87691 0.82661 0.0
H329 H 0.22585 0.8429 0.83947 0.0
H330 H 0.23361 0.85121 0.80984 0.0
O331 O 0.21572 0.95439 0.87225 0.0
O332 O 0.26204 0.97641 0.8755 0.0
H333 H 0.33647 0.93861 0.83142 0.0
H334 H 0.34608 0.90291 0.81679 0.0
C335 C 0.33638 0.91287 0.83276 0.0
H336 H 0.3515 0.90616 0.84727 0.0
H337 H 0.31406 -9e-05 0.85582 0.0
O338 O 0.18851 0.88685 0.86953 0.0
C339 C 0.23271 0.97856 0.87323 0.0
Co340 Co 0.08111 0.23076 0.87827 0.0
Co341 Co 0.04609 0.29409 0.87778 0.0
C342 C 0.07965 0.2738 0.91936 0.0
O343 O 0.08769 0.2485 0.90953 0.0
O344 O 0.06371 0.29438 0.90891 0.0
C345 C 0.13414 0.18961 0.88197 0.0
O346 O 0.14834 0.21324 0.89165 0.0
C347 C 0.02787 0.36014 0.8792 0.0
C348 C 0.9894 0.35995 0.85405 0.0
C349 C 0.00621 0.37912 0.86847 0.0
N350 N 0.02399 0.33105 0.87136 0.0
N351 N 0.00076 0.33103 0.85656 0.0
C352 C 0.05359 0.36964 0.89494 0.0
H353 H 0.0732 0.35286 0.89389 0.0
H354 H 0.06199 0.39337 0.89072 0.0
H355 H 0.04467 0.36975 0.91273 0.0
C356 C 0.11094 0.25912 0.83694 0.0
N357 N 0.09161 0.26008 0.85513 0.0
N358 N 0.07697 0.28699 0.85527 0.0
C359 C 0.08656 0.30404 0.8373 0.0
C360 C 0.10826 0.28695 0.82502 0.0
C361 C 0.12992 0.23135 0.83031 0.0
H362 H 0.15007 0.22932 0.84207 0.0
H363 H 0.1387 0.23334 0.81254 0.0
H364 H 0.11568 0.20994 0.832 0.0
O365 O 0.03721 0.21674 0.87508 0.0
O366 O 0.01356 0.2624 0.87619 0.0
H367 H 0.05094 0.33524 0.82606 0.0
H368 H 0.0899 0.34764 0.81881 0.0
C369 C 0.0754 0.33628 0.83209 0.0
H370 H 0.07618 0.35059 0.84779 0.0
H371 H 0.99311 0.31133 0.8478 0.0
O372 O 0.1063 0.19275 0.87506 0.0
C373 C 0.01243 0.23298 0.87492 0.0
Co374 Co 0.76077 0.07934 0.87163 0.0
Co375 Co 0.69614 0.04663 0.87325 0.0
C376 C 0.72017 0.08039 0.9139 0.0
O377 O 0.74516 0.08733 0.90325 0.0
O378 O 0.69849 0.06508 0.90419 0.0
C379 C 0.80297 0.1306 0.87453 0.0
O380 O 0.77932 0.14495 0.88414 0.0
C381 C 0.63009 0.02994 0.8791 0.0
C382 C 0.62547 0.99275 0.8532 0.0
C383 C 0.60914 0.00893 0.86976 0.0
N384 N 0.6575 0.02644 0.86834 0.0
N385 N 0.65461 0.00413 0.85296 0.0
C386 C 0.62544 0.05099 0.89917 0.0
H387 H 0.64255 0.04472 0.91254 0.0
H388 H 0.63005 0.0754 0.89397 0.0
H389 H 0.60181 0.04899 0.90662 0.0
C390 C 0.73145 0.10953 0.83089 0.0
N391 N 0.73072 0.09043 0.84919 0.0
N392 N 0.70332 0.07679 0.85016 0.0
C393 C 0.68569 0.08691 0.83264 0.0
C394 C 0.70292 0.10786 0.81977 0.0
C395 C 0.7596 0.12732 0.8234 0.0
H396 H 0.78064 0.11248 0.82499 0.0
H397 H 0.76261 0.14781 0.83471 0.0
H398 H 0.7573 0.1355 0.80551 0.0
O399 O 0.77277 0.03499 0.86892 0.0
O400 O 0.72654 0.01254 0.8714 0.0
H401 H 0.65255 0.05311 0.82153 0.0
H402 H 0.64088 0.09283 0.81621 0.0
C403 C 0.65272 0.07711 0.82849 0.0
H404 H 0.63963 0.07721 0.84481 0.0
H405 H 0.67264 -0.00339 0.84235 0.0
O406 O 0.7996 0.1029 0.86748 0.0
C407 C 0.75594 0.01067 0.86959 0.0
Co408 Co 0.40919 0.73203 0.63169 0.0
Co409 Co 0.44288 0.79608 0.62913 0.0
C410 C 0.40908 0.77089 0.58879 0.0
O411 O 0.40167 0.74632 0.59972 0.0
O412 O 0.42463 0.79254 0.59828 0.0
C413 C 0.39288 0.66863 0.62933 0.0
O414 O 0.41974 0.66715 0.61861 0.0
C415 C 0.45424 0.8634 0.62576 0.0
C416 C 0.5028 0.86601 0.63827 0.0
C417 C 0.47866 0.88377 0.62964 0.0
N418 N 0.46359 0.83476 0.63187 0.0
N419 N 0.49258 0.83651 0.63939 0.0
C420 C 0.42354 0.87051 0.61484 0.0
H421 H 0.4103 0.84885 0.61147 0.0
H422 H 0.4095 0.88556 0.62626 0.0
H423 H 0.42734 0.88344 0.59867 0.0
C424 C 0.37861 0.76314 0.6712 0.0
N425 N 0.39843 0.76325 0.65334 0.0
N426 N 0.41258 0.79038 0.65237 0.0
C427 C 0.40223 0.8084 0.66964 0.0
C428 C 0.38025 0.79181 0.68208 0.0
C429 C 0.35829 0.73615 0.67739 0.0
H430 H 0.37316 0.71615 0.6824 0.0
H431 H 0.34457 0.72901 0.66223 0.0
H432 H 0.34213 0.74193 0.69156 0.0
O433 O 0.45361 0.71928 0.63512 0.0
O434 O 0.47636 0.76523 0.63194 0.0
H435 H 0.44053 0.83996 0.6736 0.0
H436 H 0.40834 0.84733 0.69271 0.0
C437 C 0.4148 0.83999 0.67517 0.0
H438 H 0.40522 0.8571 0.66287 0.0
H439 H 0.50556 0.81748 0.64503 0.0
O440 O 0.38329 0.69474 0.63666 0.0
C441 C 0.47808 0.73593 0.63434 0.0
Co442 Co 0.2592 0.40648 0.63277 0.0
Co443 Co 0.19951 0.44813 0.63365 0.0
C444 C 0.21863 0.41235 0.59162 0.0
O445 O 0.24241 0.40086 0.60155 0.0
O446 O 0.20016 0.43074 0.60208 0.0
C447 C 0.30239 0.35589 0.62547 0.0
O448 O 0.28169 0.34552 0.61082 0.0
C449 C 0.13281 0.46307 0.63161 0.0
C450 C 0.13213 0.51025 0.64661 0.0
C451 C 0.11298 0.48766 0.63718 0.0
N452 N 0.16199 0.47106 0.63746 0.0
N453 N 0.16144 0.49929 0.64634 0.0
C454 C 0.12465 0.43179 0.62215 0.0
H455 H 0.14362 0.41485 0.62563 0.0
H456 H 0.10255 0.42323 0.62972 0.0
H457 H 0.1218 0.43363 0.60337 0.0
C458 C 0.2268 0.3768 0.67197 0.0
N459 N 0.22842 0.39821 0.6552 0.0
N460 N 0.20358 0.41616 0.65605 0.0
C461 C 0.18559 0.40706 0.67372 0.0
C462 C 0.19956 0.38164 0.68432 0.0
C463 C 0.25028 0.35143 0.67521 0.0
H464 H 0.27218 0.36161 0.68193 0.0
H465 H 0.25558 0.34054 0.6585 0.0
H466 H 0.24182 0.33322 0.68711 0.0
O467 O 0.27546 0.44922 0.63576 0.0
O468 O 0.23333 0.47889 0.63677 0.0
H469 H 0.15985 0.44923 0.67932 0.0
H470 H 0.15134 0.4187 0.69949 0.0
C471 C 0.15679 0.42378 0.68135 0.0
H472 H 0.13685 0.41627 0.67067 0.0
H473 H 0.1811 0.51107 0.65227 0.0
O474 O 0.2965 0.38022 0.63697 0.0
C475 C 0.26276 0.47587 0.63719 0.0
Co476 Co 0.58423 0.26166 0.62762 0.0
Co477 Co 0.54836 0.19883 0.62603 0.0
C478 C 0.58312 0.22108 0.58536 0.0
O479 O 0.59081 0.24593 0.59586 0.0
O480 O 0.56723 0.19994 0.59522 0.0
C481 C 0.60195 0.32407 0.62297 0.0
O482 O 0.57569 0.32465 0.61147 0.0
C483 C 0.5321 0.13242 0.62385 0.0
C484 C 0.48526 0.13343 0.63959 0.0
C485 C 0.50692 0.11359 0.62976 0.0
N486 N 0.52527 0.16177 0.62991 0.0
N487 N 0.49726 0.16222 0.63924 0.0
C488 C 0.56283 0.12315 0.61387 0.0
H489 H 0.58048 0.14153 0.61701 0.0
H490 H 0.57089 0.10082 0.62136 0.0
H491 H 0.56031 0.12024 0.59514 0.0
C492 C 0.61514 0.22963 0.66685 0.0
N493 N 0.59432 0.23052 0.64961 0.0
N494 N 0.57854 0.20429 0.64935 0.0
C495 C 0.5883 0.18612 0.66669 0.0
C496 C 0.61209 0.20139 0.67828 0.0
C497 C 0.63833 0.25485 0.67143 0.0
H498 H 0.64861 0.26293 0.6551 0.0
H499 H 0.65727 0.24676 0.68286 0.0
H500 H 0.62622 0.27491 0.67943 0.0
O501 O 0.54017 0.27625 0.6312 0.0
O502 O 0.5164 0.23096 0.62771 0.0
H503 H 0.57872 0.14929 0.69099 0.0
H504 H 0.58229 0.13724 0.66159 0.0
C505 C 0.57348 0.15579 0.67307 0.0
H506 H 0.54788 0.15739 0.6711 0.0
H507 H 0.48634 0.18221 0.64545 0.0
O508 O 0.61102 0.29858 0.63173 0.0
C509 C 0.51531 0.26024 0.63005 0.0
Co510 Co 0.73253 0.58715 0.62926 0.0
Co511 Co 0.79353 0.54727 0.62887 0.0
C512 C 0.77221 0.58337 0.58748 0.0
O513 O 0.74842 0.59407 0.59788 0.0
O514 O 0.79144 0.56534 0.59751 0.0
C515 C 0.69049 0.63966 0.62592 0.0
O516 O 0.71276 0.65309 0.61409 0.0
C517 C 0.86104 0.5346 0.62707 0.0
C518 C 0.86266 0.48605 0.63955 0.0
C519 C 0.88117 0.51013 0.63171 0.0
N520 N 0.8319 0.52541 0.63213 0.0
N521 N 0.83306 0.49637 0.63954 0.0
C522 C 0.869 0.56533 0.61655 0.0
H523 H 0.84761 0.57852 0.61218 0.0
H524 H 0.88299 0.57936 0.62864 0.0
H525 H 0.88334 0.56161 0.60101 0.0
C526 C 0.76386 0.61509 0.66962 0.0
N527 N 0.76334 0.59544 0.65169 0.0
N528 N 0.78867 0.57813 0.652 0.0
C529 C 0.8058 0.58582 0.67046 0.0
C530 C 0.79076 0.60966 0.68212 0.0
C531 C 0.73793 0.63696 0.67552 0.0
H532 H 0.71559 0.62403 0.67597 0.0
H533 H 0.73613 0.65504 0.66206 0.0
H534 H 0.74174 0.64839 0.69227 0.0
O535 O 0.71753 0.54381 0.63169 0.0
O536 O 0.76064 0.51543 0.63184 0.0
H537 H 0.83298 0.54475 0.67637 0.0
H538 H 0.84389 0.57749 0.69409 0.0
C539 C 0.83581 0.57039 0.6769 0.0
H540 H 0.85397 0.57698 0.66438 0.0
H541 H 0.81361 0.4835 0.64451 0.0
O542 O 0.69488 0.61266 0.63408 0.0
C543 C 0.73111 0.51752 0.63257 0.0
H544 H 0.06311 0.32279 0.9469 0.0
H545 H 0.11867 0.23757 0.06124 0.0
H546 H 0.11195 0.23487 0.94807 0.0
H547 H 0.06205 0.32071 0.06043 0.0
H548 H 0.12331 0.24066 0.01979 0.0
H549 H 0.06939 0.3266 0.98823 0.0
C550 C 0.07546 0.30442 0.95577 0.0
C551 C 0.08668 0.27825 0.94394 0.0
C552 C 0.11011 0.2584 0.02868 0.0
C553 C 0.09383 0.28249 0.9914 0.0
C554 C 0.10748 0.2567 0.05241 0.0
C555 C 0.08959 0.2787 0.06439 0.0
C556 C 0.09472 0.28223 0.01676 0.0
C557 C 0.07584 0.30306 0.05194 0.0
C558 C 0.07898 0.30661 0.97942 0.0
C559 C 0.10265 0.25533 0.95643 0.0
N560 N 0.07846 0.304 0.02881 0.0
N561 N 0.10551 0.25787 0.97947 0.0
H562 H 0.76222 0.11098 0.94122 0.0
H563 H 0.67439 0.06371 0.05639 0.0
H564 H 0.67232 0.06605 0.94319 0.0
H565 H 0.76214 0.11277 0.05492 0.0
H566 H 0.67096 0.06885 0.01497 0.0
H567 H 0.76029 0.11654 0.98271 0.0
C568 C 0.7419 0.10259 0.95029 0.0
C569 C 0.71754 0.08767 0.93861 0.0
C570 C 0.69085 0.07874 0.02371 0.0
C571 C 0.71533 0.09379 0.98624 0.0
C572 C 0.69283 0.07579 0.0474 0.0
C573 C 0.71876 0.08753 0.05919 0.0
C574 C 0.71505 0.09336 0.01161 0.0
C575 C 0.74179 0.10318 0.04658 0.0
C576 C 0.74084 0.10575 0.97403 0.0
C577 C 0.69176 0.07746 0.95137 0.0
N578 N 0.73954 0.10536 0.02348 0.0
N579 N 0.69149 0.08042 0.97446 0.0
H580 H 0.87883 0.75835 0.94708 0.0
H581 H 0.92812 0.66928 0.06149 0.0
H582 H 0.92665 0.66987 0.94782 0.0
H583 H 0.88303 0.75917 0.06042 0.0
H584 H 0.92226 0.66617 0.02005 0.0
H585 H 0.87451 0.75596 0.9886 0.0
C586 C 0.88815 0.73824 0.95591 0.0
C587 C 0.90346 0.71444 0.94387 0.0
C588 C 0.91342 0.68646 0.02891 0.0
C589 C 0.89874 0.71169 0.99158 0.0
C590 C 0.91673 0.68825 0.05261 0.0
C591 C 0.90635 0.71469 0.06451 0.0
C592 C 0.89969 0.71128 0.01696 0.0
C593 C 0.89162 0.73843 0.05202 0.0
C594 C 0.88571 0.73693 0.97967 0.0
C595 C 0.91488 0.6889 0.95633 0.0
N596 N 0.88896 0.73626 0.02895 0.0
N597 N 0.91254 0.68835 0.97949 0.0
H598 H 0.22096 0.88274 0.94554 0.0
H599 H 0.32065 0.91049 0.05898 0.0
H600 H 0.31622 0.91499 0.94624 0.0
H601 H 0.22297 0.88657 0.05944 0.0
H602 H 0.32139 0.90404 0.01767 0.0
H603 H 0.22333 0.87603 0.98699 0.0
C604 C 0.2425 0.88805 0.95433 0.0
C605 C 0.26831 0.89983 0.94236 0.0
C606 C 0.29983 0.89993 0.0268 0.0
C607 C 0.27111 0.89227 0.98985 0.0
C608 C 0.29938 0.90361 0.05046 0.0
C609 C 0.27157 0.89957 0.06275 0.0
C610 C 0.27226 0.89223 0.01521 0.0
C611 C 0.24489 0.89019 0.05069 0.0
C612 C 0.2438 0.88427 0.97802 0.0
C613 C 0.29562 0.90617 0.95472 0.0
N614 N 0.24581 0.88718 0.02756 0.0
N615 N 0.29619 0.90255 0.97776 0.0
H616 H 0.56921 0.17116 0.44343 0.0
H617 H 0.6142 0.26225 0.55761 0.0
H618 H 0.61564 0.26028 0.44403 0.0
H619 H 0.5686 0.1727 0.5567 0.0
H620 H 0.62049 0.25916 0.51622 0.0
H621 H 0.57445 0.16854 0.48486 0.0
C622 C 0.58083 0.19005 0.45221 0.0
C623 C 0.59167 0.21617 0.44017 0.0
C624 C 0.60938 0.24004 0.5251 0.0
C625 C 0.59752 0.21339 0.48779 0.0
C626 C 0.6058 0.24176 0.54878 0.0
C627 C 0.59051 0.21786 0.56071 0.0
C628 C 0.59749 0.21429 0.51318 0.0
C629 C 0.58029 0.19184 0.54827 0.0
C630 C 0.58378 0.18854 0.47592 0.0
C631 C 0.60672 0.23978 0.45255 0.0
N632 N 0.5837 0.1909 0.5252 0.0
N633 N 0.60889 0.23798 0.47568 0.0
H634 H 0.72867 0.61264 0.44556 0.0
H635 H 0.81997 0.56521 0.55922 0.0
H636 H 0.81822 0.56671 0.44572 0.0
H637 H 0.73274 0.61539 0.55905 0.0
H638 H 0.82215 0.56998 0.5177 0.0
H639 H 0.73206 0.61817 0.48699 0.0
C640 C 0.74919 0.60396 0.45424 0.0
C641 C 0.77305 0.5889 0.44208 0.0
C642 C 0.80268 0.58022 0.52676 0.0
C643 C 0.77698 0.595 0.48965 0.0
C644 C 0.80142 0.57753 0.55051 0.0
C645 C 0.77595 0.58961 0.56271 0.0
C646 C 0.77821 0.59493 0.51503 0.0
C647 C 0.75274 0.60551 0.55042 0.0
C648 C 0.7511 0.60713 0.47794 0.0
C649 C 0.79913 0.57829 0.45433 0.0
N650 N 0.75427 0.60741 0.52728 0.0
N651 N 0.80025 0.58129 0.47743 0.0
H652 H 0.38035 0.7278 0.56123 0.0
H653 H 0.4224 0.81982 0.44686 0.0
H654 H 0.42147 0.81949 0.55986 0.0
H655 H 0.37843 0.72949 0.44738 0.0
H656 H 0.41716 0.82221 0.48821 0.0
H657 H 0.37436 0.73009 0.51976 0.0
C658 C 0.38781 0.74857 0.55228 0.0
C659 C 0.40178 0.77334 0.56409 0.0
C660 C 0.40838 0.80196 0.47929 0.0
C661 C 0.39514 0.776 0.51653 0.0
C662 C 0.41136 0.80059 0.4556 0.0
C663 C 0.40113 0.77428 0.44353 0.0
C664 C 0.39528 0.77676 0.49116 0.0
C665 C 0.38682 0.75018 0.45592 0.0
C666 C 0.38441 0.74983 0.52857 0.0
C667 C 0.41085 0.79968 0.55152 0.0
N668 N 0.38462 0.75186 0.47906 0.0
N669 N 0.40764 0.80018 0.52845 0.0
H670 H 0.17219 0.43454 0.56373 0.0
H671 H 0.25465 0.37322 0.44983 0.0
H672 H 0.25432 0.37639 0.56307 0.0
H673 H 0.17365 0.43292 0.4501 0.0
H674 H 0.25099 0.36898 0.49129 0.0
H675 H 0.16852 0.42905 0.52229 0.0
C676 C 0.18928 0.42035 0.55494 0.0
C677 C 0.21384 0.40622 0.56694 0.0
C678 C 0.23384 0.3828 0.48228 0.0
C679 C 0.20982 0.39998 0.51941 0.0
C680 C 0.23589 0.3852 0.45855 0.0
C681 C 0.21463 0.40375 0.44641 0.0
C682 C 0.21045 0.39914 0.49404 0.0
C683 C 0.19073 0.41856 0.45871 0.0
C684 C 0.18718 0.41726 0.53124 0.0
C685 C 0.23514 0.38795 0.55458 0.0
N686 N 0.18947 0.41617 0.48185 0.0
N687 N 0.23279 0.38561 0.5315 0.0
H688 H 0.26718 0.03476 0.12072 0.0
H689 H 0.11927 0.14119 0.1481 0.0
H690 H 0.17852 -0.00199 0.14286 0.0
H691 H 0.19712 0.17292 0.10758 0.0
H692 H 0.14378 0.09015 0.15116 0.0
H693 H 0.24469 0.087 0.12051 0.0
C694 C 0.24302 0.03766 0.12564 0.0
C695 C 0.22466 0.0119 0.13174 0.0
C696 C 0.15553 0.1083 0.14165 0.0
C697 C 0.1989 0.07169 0.1316 0.0
C698 C 0.14163 0.13751 0.13995 0.0
C699 C 0.1561 0.16136 0.12744 0.0
C700 C 0.18426 0.10288 0.13094 0.0
C701 C 0.18507 0.15518 0.11728 0.0
C702 C 0.23021 0.06749 0.12544 0.0
C703 C 0.1935 0.01713 0.13793 0.0
N704 N 0.19821 0.12649 0.11924 0.0
N705 N 0.18162 0.04645 0.13773 0.0
H706 H 0.88081 0.09015 0.1083 0.0
H707 H 0.95973 0.25082 0.14323 0.0
H708 H 0.83012 0.16459 0.14113 0.0
H709 H 0.01239 0.16807 0.12684 0.0
H710 H 0.91181 0.22036 0.14155 0.0
H711 H 0.92904 0.11923 0.11358 0.0
C712 C 0.87981 0.11265 0.11661 0.0
C713 C 0.85138 0.12505 0.1242 0.0
C714 C 0.93387 0.20883 0.13849 0.0
C715 C 0.90655 0.15845 0.13028 0.0
C716 C 0.96125 0.2262 0.1394 0.0
C717 C 0.99013 0.21199 0.13504 0.0
C718 C 0.9353 0.1771 0.13293 0.0
C719 C 0.99066 0.17999 0.1303 0.0
C720 C 0.9074 0.12916 0.11972 0.0
C721 C 0.85153 0.1542 0.13498 0.0
N722 N 0.96361 0.16367 0.12917 0.0
N723 N 0.87871 0.17003 0.13758 0.0
H724 H 0.82787 0.01518 0.12927 0.0
H725 H 0.83265 0.82954 0.14039 0.0
H726 H 0.7456 0.95854 0.13792 0.0
H727 H 0.91104 0.88519 0.11878 0.0
H728 H 0.80134 0.87694 0.14352 0.0
H729 H 0.8597 0.96808 0.12966 0.0
C730 C 0.81649 0.99288 0.13141 0.0
C731 C 0.78396 0.99084 0.13344 0.0
C732 C 0.8254 0.87875 0.13812 0.0
C733 C 0.82033 0.93679 0.13384 0.0
C734 C 0.8433 0.85171 0.13633 0.0
C735 C 0.87447 0.85339 0.12919 0.0
C736 C 0.83883 0.90768 0.13286 0.0
C737 C 0.88706 0.88277 0.12423 0.0
C738 C 0.83469 0.96598 0.13155 0.0
C739 C 0.77056 0.96125 0.13618 0.0
N740 N 0.8692 0.90874 0.12616 0.0
N741 N 0.7888 0.93538 0.13625 0.0
H742 H 0.13172 0.88808 0.14179 0.0
H743 H 0.03518 0.72917 0.13618 0.0
H744 H 0.17298 0.79865 0.12699 0.0
H745 H 0.99185 0.81985 0.13948 0.0
H746 H 0.08617 0.75398 0.13673 0.0
H747 H 0.08077 0.86313 0.14481 0.0
C748 C 0.13011 0.86317 0.13926 0.0
C749 C 0.15667 0.84543 0.13401 0.0
C750 C 0.06553 0.76847 0.1374 0.0
C751 C 0.09837 0.81676 0.13749 0.0
C752 C 0.03633 0.75433 0.13713 0.0
C753 C 0.00909 0.77246 0.13766 0.0
C754 C 0.06765 0.80102 0.13828 0.0
C755 C 0.01218 0.80494 0.13896 0.0
C756 C 0.10098 0.84896 0.14095 0.0
C757 C 0.15314 0.81325 0.13095 0.0
N758 N 0.04095 0.81819 0.13917 0.0
N759 N 0.12452 0.79996 0.13271 0.0
H760 H 0.76494 0.45932 0.37295 0.0
H761 H 0.6111 0.35633 0.35992 0.0
H762 H 0.6732 0.49915 0.3646 0.0
H763 H 0.69878 0.32021 0.38451 0.0
H764 H 0.63454 0.40797 0.35695 0.0
H765 H 0.742 0.40754 0.37251 0.0
C766 C 0.73995 0.45724 0.3709 0.0
C767 C 0.72095 0.48376 0.36891 0.0
C768 C 0.64865 0.38873 0.36294 0.0
C769 C 0.69455 0.42422 0.36841 0.0
C770 C 0.63534 0.35919 0.36458 0.0
C771 C 0.65299 0.33388 0.37258 0.0
C772 C 0.67991 0.39299 0.36915 0.0
C773 C 0.68427 0.33905 0.37837 0.0
C774 C 0.72688 0.42758 0.37073 0.0
C775 C 0.68874 0.47942 0.36627 0.0
N776 N 0.69672 0.36802 0.37654 0.0
N777 N 0.67653 0.4502 0.36612 0.0
H778 H 0.53204 0.74999 0.36736 0.0
H779 H 0.60452 0.58033 0.38467 0.0
H780 H 0.47687 0.66638 0.37361 0.0
H781 H 0.65973 0.66003 0.36527 0.0
H782 H 0.55761 0.61211 0.38166 0.0
H783 H 0.57925 0.71802 0.36728 0.0
C784 C 0.52981 0.72493 0.3686 0.0
C785 C 0.5004 0.71088 0.37058 0.0
C786 C 0.57996 0.62265 0.37797 0.0
C787 C 0.55434 0.67423 0.37065 0.0
C788 C 0.60679 0.60452 0.37975 0.0
C789 C 0.63612 0.61756 0.37529 0.0
C790 C 0.58241 0.65416 0.37186 0.0
C791 C 0.63759 0.64903 0.36889 0.0
C792 C 0.55678 0.70671 0.36854 0.0
C793 C 0.49898 0.67829 0.37208 0.0
N794 N 0.61111 0.66632 0.36748 0.0
N795 N 0.52555 0.66113 0.37223 0.0
H796 H 0.32499 0.47771 0.38033 0.0
H797 H 0.32572 0.66247 0.36275 0.0
H798 H 0.24214 0.53113 0.36549 0.0
H799 H 0.40086 0.6114 0.3944 0.0
H800 H 0.29663 0.61375 0.35881 0.0
H801 H 0.35524 0.52588 0.38035 0.0
C802 C 0.31319 0.49951 0.37689 0.0
C803 C 0.28094 0.50039 0.37306 0.0
C804 C 0.3195 0.61327 0.36659 0.0
C805 C 0.31542 0.55556 0.37309 0.0
C806 C 0.33611 0.64103 0.36883 0.0
C807 C 0.36566 0.64101 0.37906 0.0
C808 C 0.33269 0.5853 0.37443 0.0
C809 C 0.37805 0.61255 0.38656 0.0
C810 C 0.33046 0.527 0.37701 0.0
C811 C 0.26691 0.52935 0.3687 0.0
N812 N 0.36152 0.58585 0.38408 0.0
N813 N 0.28423 0.55579 0.36888 0.0
H814 H 0.37791 0.39862 0.39927 0.0
H815 H 0.45727 0.23766 0.36481 0.0
H816 H 0.3268 0.32452 0.36655 0.0
H817 H 0.50912 0.32171 0.37852 0.0
H818 H 0.40882 0.26755 0.36737 0.0
H819 H 0.42587 0.369 0.39425 0.0
C820 C 0.37675 0.37606 0.39106 0.0
C821 C 0.34829 0.36398 0.38335 0.0
C822 C 0.43084 0.27942 0.36966 0.0
C823 C 0.40321 0.32991 0.37757 0.0
C824 C 0.4585 0.2624 0.36824 0.0
C825 C 0.48733 0.27718 0.37152 0.0
C826 C 0.43201 0.31134 0.37468 0.0
C827 C 0.48748 0.30931 0.37585 0.0
C828 C 0.40419 0.35923 0.38811 0.0
C829 C 0.34826 0.33468 0.37274 0.0
N830 N 0.46025 0.32524 0.37747 0.0
N831 N 0.37532 0.31854 0.37026 0.0
H832 H 0.79599 0.8168 0.8946 0.0
H833 H 0.81727 -0.00417 0.86174 0.0
H834 H 0.8788 0.85309 0.86226 0.0
H835 H 0.728 0.9545 0.87723 0.0
H836 H 0.84104 0.94413 0.86354 0.0
H837 H 0.77124 0.86778 0.89019 0.0
C838 C 0.80893 0.83544 0.88654 0.0
C839 C 0.8395 0.83072 0.87884 0.0
C840 C 0.81621 0.94641 0.86641 0.0
C841 C 0.81147 0.88902 0.87385 0.0
C842 C 0.80265 0.97591 0.86542 0.0
C843 C 0.77062 0.97954 0.86939 0.0
C844 C 0.79766 0.92043 0.87164 0.0
C845 C 0.75279 0.95286 0.87404 0.0
C846 C 0.79478 0.86449 0.88397 0.0
C847 C 0.85517 0.85568 0.86845 0.0
N848 N 0.7666 0.92448 0.87519 0.0
N849 N 0.84104 0.8838 0.86638 0.0
H850 H 0.13029 0.88527 0.86136 0.0
H851 H 0.03262 0.72857 0.8756 0.0
H852 H 0.16907 0.79899 0.88638 0.0
H853 H 0.9893 0.81863 0.86699 0.0
H854 H 0.08347 0.75329 0.87485 0.0
H855 H 0.07927 0.86034 0.85873 0.0
C856 C 0.12813 0.86103 0.86619 0.0
C857 C 0.15396 0.84417 0.8742 0.0
C858 C 0.06288 0.76768 0.8731 0.0
C859 C 0.0957 0.81563 0.87118 0.0
C860 C 0.03375 0.75359 0.87347 0.0
C861 C 0.00654 0.77159 0.87149 0.0
C862 C 0.06502 0.80004 0.87061 0.0
C863 C 0.00963 0.80388 0.86868 0.0
C864 C 0.09897 0.84689 0.86475 0.0
C865 C 0.14978 0.81289 0.88023 0.0
N866 N 0.03841 0.81712 0.86835 0.0
N867 N 0.12118 0.79962 0.87859 0.0
H868 H 0.17143 0.9935 0.86559 0.0
H869 H 0.19471 0.17449 0.89216 0.0
H870 H 0.26106 0.03487 0.87971 0.0
H871 H 0.10925 0.13541 0.86596 0.0
H872 H 0.21933 0.12331 0.88869 0.0
H873 H 0.14794 0.04528 0.86654 0.0
C874 C 0.1862 0.01345 0.8688 0.0
C875 C 0.21825 0.00979 0.87264 0.0
C876 C 0.19522 0.12601 0.88362 0.0
C877 C 0.19149 0.06911 0.87388 0.0
C878 C 0.18116 0.1552 0.88564 0.0
C879 C 0.14986 0.15922 0.87942 0.0
C880 C 0.17778 0.10067 0.87547 0.0
C881 C 0.13343 0.13341 0.871 0.0
C882 C 0.17278 0.04302 0.86932 0.0
C883 C 0.23624 0.03654 0.87667 0.0
N884 N 0.14754 0.10523 0.86938 0.0
N885 N 0.22258 0.06504 0.87731 0.0
H886 H 0.85805 0.10464 0.86071 0.0
H887 H 0.95552 0.26097 0.87781 0.0
H888 H 0.81803 0.19096 0.88458 0.0
H889 H -0.0013 0.1709 0.86896 0.0
H890 H 0.90458 0.23641 0.87639 0.0
H891 H 0.90921 0.12941 0.85968 0.0
C892 C 0.85998 0.12886 0.86564 0.0
C893 C 0.83372 0.14576 0.87284 0.0
C894 C 0.92516 0.22198 0.87476 0.0
C895 C 0.89222 0.17416 0.87166 0.0
C896 C 0.95434 0.23598 0.87553 0.0
C897 C 0.98153 0.21793 0.8736 0.0
C898 C 0.92297 0.18967 0.87192 0.0
C899 C 0.97839 0.18568 0.87061 0.0
C900 C 0.88923 0.14292 0.86511 0.0
C901 C 0.83764 0.17703 0.87901 0.0
N902 N 0.94959 0.17256 0.86986 0.0
N903 N 0.86636 0.19023 0.87828 0.0
H904 H 0.33334 0.66433 0.64594 0.0
H905 H 0.32616 0.47921 0.63293 0.0
H906 H 0.40912 0.60853 0.61981 0.0
H907 H 0.24474 0.53642 0.64406 0.0
H908 H 0.3583 0.52599 0.63275 0.0
H909 H 0.30189 0.61717 0.6498 0.0
C910 C 0.3434 0.64216 0.64108 0.0
C911 C 0.37384 0.64035 0.63241 0.0
C912 C 0.33341 0.52829 0.63529 0.0
C913 C 0.33807 0.58642 0.6369 0.0
C914 C 0.31503 0.50158 0.63548 0.0
C915 C 0.28265 0.50389 0.63839 0.0
C916 C 0.31938 0.55755 0.63817 0.0
C917 C 0.26958 0.53354 0.64163 0.0
C918 C 0.32542 0.61529 0.64326 0.0
C919 C 0.38571 0.61103 0.62644 0.0
N920 N 0.288 0.55923 0.64139 0.0
N921 N 0.36778 0.58522 0.62879 0.0
H922 H 0.32066 0.29933 0.60868 0.0
H923 H 0.50046 0.32139 0.63975 0.0
H924 H 0.35451 0.37862 0.64651 0.0
H925 H 0.45925 0.23311 0.62156 0.0
H926 H 0.44817 0.34475 0.63969 0.0
H927 H 0.37267 0.2763 0.61057 0.0
C928 C 0.33899 0.31183 0.61745 0.0
C929 C 0.33324 0.34089 0.62746 0.0
C930 C 0.45073 0.32024 0.63582 0.0
C931 C 0.39286 0.31488 0.6295 0.0
C932 C 0.48051 0.30695 0.63579 0.0
C933 C 0.48429 0.27526 0.63067 0.0
C934 C 0.42473 0.30176 0.63039 0.0
C935 C 0.45758 0.25762 0.62567 0.0
C936 C 0.36867 0.29868 0.61856 0.0
C937 C 0.3579 0.35608 0.63863 0.0
N938 N 0.42905 0.27113 0.62555 0.0
N939 N 0.38671 0.34299 0.63922 0.0
H940 H 0.58507 0.38336 0.61176 0.0
H941 H 0.75097 0.45753 0.63947 0.0
H942 H 0.66097 0.33009 0.64032 0.0
H943 H 0.66802 0.51208 0.62737 0.0
H944 H 0.7193 0.41026 0.6385 0.0
H945 H 0.61614 0.43054 0.61573 0.0
C946 C 0.60829 0.38158 0.61887 0.0
C947 C 0.6205 0.35274 0.62565 0.0
C948 C 0.70805 0.43261 0.63621 0.0
C949 C 0.65623 0.40669 0.6302 0.0
C950 C 0.7261 0.45961 0.63672 0.0
C951 C 0.71215 0.48884 0.63341 0.0
C952 C 0.6759 0.43485 0.63212 0.0
C953 C 0.67981 0.49009 0.62999 0.0
C954 C 0.62597 0.40856 0.62122 0.0
C955 C 0.65067 0.35186 0.63487 0.0
N956 N 0.66283 0.46347 0.62928 0.0
N957 N 0.6676 0.37846 0.63675 0.0
H958 H 0.49312 0.67445 0.64188 0.0
H959 H 0.67385 0.69931 0.61461 0.0
H960 H 0.5344 0.7643 0.62847 0.0
H961 H 0.63724 0.61454 0.64372 0.0
H962 H 0.62225 0.72297 0.61812 0.0
H963 H 0.5453 0.65126 0.64126 0.0
C964 C 0.51309 0.68931 0.63891 0.0
C965 C 0.50932 0.72136 0.63518 0.0
C966 C 0.62556 0.69924 0.62384 0.0
C967 C 0.56893 0.69499 0.63428 0.0
C968 C 0.65501 0.68571 0.62181 0.0
C969 C 0.65986 0.6549 0.62883 0.0
C970 C 0.60072 0.68172 0.63276 0.0
C971 C 0.63458 0.63839 0.63809 0.0
C972 C 0.54286 0.67608 0.63859 0.0
C973 C 0.53609 0.73948 0.63144 0.0
N974 N 0.60605 0.65194 0.63965 0.0
N975 N 0.56467 0.72602 0.63095 0.0
H976 H 0.19013 0.41084 0.28723 0.0
H977 H 0.12286 0.26167 0.22217 0.0
H978 H 0.18831 0.31936 0.31727 0.0
H979 H 0.13825 0.35033 0.18968 0.0
H980 H 0.14749 0.28168 0.25698 0.0
H981 H 0.17164 0.3888 0.25117 0.0
C982 C 0.18589 0.38604 0.2861 0.0
C983 C 0.19045 0.36683 0.30513 0.0
C984 C 0.14569 0.2967 0.2422 0.0
C985 C 0.16928 0.34137 0.26408 0.0
C986 C 0.13177 0.28525 0.22234 0.0
C987 C 0.12853 0.30446 0.20313 0.0
C988 C 0.15623 0.32766 0.24285 0.0
C989 C 0.14006 0.33492 0.20425 0.0
C990 C 0.17543 0.37343 0.26556 0.0
C991 C 0.18498 0.33484 0.30289 0.0
N992 N 0.15323 0.34565 0.22381 0.0
N993 N 0.17442 0.32309 0.28275 0.0
H994 H 0.73117 0.12901 0.21546 0.0
H995 H 0.57843 0.18762 0.28113 0.0
H996 H 0.64029 0.13428 0.18442 0.0
H997 H 0.67062 0.19474 0.30963 0.0
H998 H 0.60098 0.16874 0.24532 0.0
H999 H 0.71011 0.15398 0.24981 0.0
C1000 C 0.70686 0.13577 0.2158 0.0
C1001 C 0.68739 0.12955 0.19714 0.0
C1002 C 0.61638 0.17457 0.25931 0.0
C1003 C 0.66301 0.15762 0.23642 0.0
C1004 C 0.60349 0.18526 0.27973 0.0
C1005 C 0.62275 0.19242 0.29828 0.0
C1006 C 0.64883 0.17084 0.25747 0.0
C1007 C 0.65506 0.18935 0.29564 0.0
C1008 C 0.69481 0.14986 0.23544 0.0
C1009 C 0.65598 0.13834 0.19857 0.0
N1010 N 0.66713 0.17853 0.27565 0.0
N1011 N 0.64474 0.15176 0.2179 0.0
H1012 H 0.76081 0.61207 0.28215 0.0
H1013 H 0.88146 0.73033 0.22398 0.0
H1014 H 0.83342 0.65865 0.31958 0.0
H1015 H 0.83357 0.6587 0.18647 0.0
H1016 H 0.85628 0.71208 0.25924 0.0
H1017 H 0.77955 0.63679 0.24684 0.0
C1018 C 0.78044 0.62787 0.28289 0.0
C1019 C 0.79573 0.63342 0.30361 0.0
C1020 C 0.85109 0.70053 0.24327 0.0
C1021 C 0.81719 0.66165 0.26361 0.0
C1022 C 0.86528 0.71102 0.22321 0.0
C1023 C 0.8595 0.69585 0.20249 0.0
C1024 C 0.83074 0.67494 0.24244 0.0
C1025 C 0.83857 0.67086 0.20223 0.0
C1026 C 0.79121 0.6418 0.26282 0.0
C1027 C 0.82115 0.65384 0.30382 0.0
N1028 N 0.82492 0.66112 0.22194 0.0
N1029 N 0.83115 0.66724 0.2841 0.0
H1030 H 0.40751 0.82184 0.28958 0.0
H1031 H 0.27327 0.82503 0.19926 0.0
H1032 H 0.31777 0.78662 0.31038 0.0
H1033 H 0.32754 0.90718 0.21369 0.0
H1034 H 0.29322 0.80132 0.23469 0.0
H1035 H 0.38357 0.8435 0.25521 0.0
C1036 C 0.38274 0.81874 0.28697 0.0
C1037 C 0.36447 0.80303 0.30314 0.0
C1038 C 0.30058 0.82455 0.22996 0.0
C1039 C 0.33732 0.82655 0.26337 0.0
C1040 C 0.28916 0.83815 0.20989 0.0
C1041 C 0.29913 0.86798 0.20331 0.0
C1042 C 0.32261 0.84068 0.24309 0.0
C1043 C 0.32 0.88378 0.21764 0.0
C1044 C 0.3692 0.83092 0.26731 0.0
C1045 C 0.33269 0.7986 0.29835 0.0
N1046 N 0.33142 0.86977 0.23663 0.0
N1047 N 0.32003 0.81027 0.2788 0.0
H1048 H 0.84516 0.64489 0.82183 0.0
H1049 H 0.80407 0.67083 0.68961 0.0
H1050 H 0.87144 0.72731 0.78462 0.0
H1051 H 0.79857 0.58209 0.72357 0.0
H1052 H 0.82194 0.69461 0.72548 0.0
H1053 H 0.82088 0.62416 0.7872 0.0
C1054 C 0.84553 0.65869 0.80635 0.0
C1055 C 0.86036 0.68772 0.80596 0.0
C1056 C 0.81676 0.66995 0.7251 0.0
C1057 C 0.83269 0.66431 0.76632 0.0
C1058 C 0.80654 0.65647 0.70471 0.0
C1059 C 0.80028 0.62452 0.70375 0.0
C1060 C 0.82035 0.6513 0.74465 0.0
C1061 C 0.80359 0.60678 0.72367 0.0
C1062 C 0.83175 0.64688 0.78661 0.0
C1063 C 0.86004 0.70488 0.78559 0.0
N1064 N 0.81346 0.62039 0.74331 0.0
N1065 N 0.84655 0.69286 0.76651 0.0
H1066 H 0.38081 0.76498 0.72429 0.0
H1067 H 0.26556 0.88993 0.78067 0.0
H1068 H 0.3425 0.84235 0.68685 0.0
H1069 H 0.33192 0.83705 0.81988 0.0
H1070 H 0.28604 0.86611 0.74554 0.0
H1071 H 0.35556 0.78458 0.75914 0.0
C1072 C 0.36677 0.78592 0.72344 0.0
C1073 C 0.36361 0.80217 0.70284 0.0
C1074 C 0.29597 0.85957 0.76185 0.0
C1075 C 0.33474 0.82459 0.74233 0.0
C1076 C 0.2842 0.87299 0.78181 0.0
C1077 C 0.29715 0.86526 0.803 0.0
C1078 C 0.32057 0.83803 0.76323 0.0
C1079 C 0.32141 0.84347 0.80375 0.0
C1080 C 0.35254 0.79716 0.74327 0.0
C1081 C 0.34546 0.82929 0.70251 0.0
N1082 N 0.33235 0.83053 0.78412 0.0
N1083 N 0.33161 0.83966 0.72197 0.0
H1084 H 0.0784 0.30174 0.78575 0.0
H1085 H 0.23105 0.36508 0.72314 0.0
H1086 H 0.17019 0.29245 0.81463 0.0
H1087 H 0.14127 0.35816 0.69065 0.0
H1088 H 0.21004 0.33771 0.75655 0.0
H1089 H 0.10149 0.3215 0.75044 0.0
C1090 C 0.10351 0.30367 0.78447 0.0
C1091 C 0.12251 0.29569 0.80299 0.0
C1092 C 0.195 0.34196 0.74205 0.0
C1093 C 0.14918 0.31858 0.76285 0.0
C1094 C 0.207 0.35748 0.72299 0.0
C1095 C 0.18778 0.36391 0.70421 0.0
C1096 C 0.1635 0.33305 0.74234 0.0
C1097 C 0.15672 0.35397 0.70493 0.0
C1098 C 0.11671 0.31492 0.76436 0.0
C1099 C 0.15487 0.2984 0.80061 0.0
N1100 N 0.1455 0.3392 0.72372 0.0
N1101 N 0.16724 0.30996 0.78094 0.0
H1102 H 0.62551 0.2319 0.71826 0.0
H1103 H 0.68413 0.07852 0.78118 0.0
H1104 H 0.63877 0.1443 0.68373 0.0
H1105 H 0.70053 0.16984 0.80898 0.0
H1106 H 0.66545 0.10236 0.74579 0.0
H1107 H 0.65152 0.2103 0.75209 0.0
C1108 C 0.63426 0.20826 0.71772 0.0
C1109 C 0.62983 0.18975 0.69827 0.0
C1110 C 0.67334 0.11727 0.75952 0.0
C1111 C 0.65895 0.16476 0.73691 0.0
C1112 C 0.68389 0.10366 0.77969 0.0
C1113 C 0.6937 0.12234 0.7979 0.0
C1114 C 0.67215 0.14985 0.75764 0.0
C1115 C 0.69315 0.15475 0.79521 0.0
C1116 C 0.64897 0.19592 0.73703 0.0
C1117 C 0.64126 0.15917 0.69853 0.0
N1118 N 0.68221 0.16757 0.7755 0.0
N1119 N 0.65501 0.14754 0.7176 0.0
H1120 H 0.98738 0.57027 0.17752 0.0
H1121 H 0.01572 0.41885 0.10209 0.0
H1122 H 0.97901 0.57221 0.10415 0.0
H1123 H 0.9868 0.41589 0.17261 0.0
H1124 H 0.00893 0.47566 0.10241 0.0
H1125 H 0.9938 0.51387 0.176 0.0
C1126 C 0.98678 0.55872 0.16109 0.0
C1127 C 0.98229 0.57573 0.14096 0.0
C1128 C 0.00412 0.46247 0.11777 0.0
C1129 C 0.99003 0.51136 0.13904 0.0
C1130 C 0.00831 0.4302 0.11767 0.0
C1131 C 0.00216 0.41284 0.13744 0.0
C1132 C 0.99414 0.47727 0.13786 0.0
C1133 C 0.99182 0.42849 0.15702 0.0
C1134 C 0.99035 0.52657 0.16023 0.0
C1135 C 0.9818 0.55975 0.12008 0.0
N1136 N 0.98835 0.45983 0.15679 0.0
N1137 N 0.98583 0.52834 0.11962 0.0
H1138 H 0.42833 0.9337 0.11941 0.0
H1139 H 0.56964 0.05298 0.13262 0.0
H1140 H 0.41664 0.03168 0.13296 0.0
H1141 H 0.58175 0.9557 0.11661 0.0
H1142 H 0.51347 0.04652 0.12949 0.0
H1143 H 0.48433 0.94202 0.11495 0.0
C1144 C 0.43746 0.9571 0.12085 0.0
C1145 C 0.41783 0.98217 0.12612 0.0
C1146 C 0.5284 0.02665 0.12636 0.0
C1147 C 0.48192 0.99171 0.12187 0.0
C1148 C 0.5606 0.03044 0.12787 0.0
C1149 C 0.58049 0.00497 0.12444 0.0
C1150 C 0.51599 -0.0029 0.12165 0.0
C1151 C 0.56721 0.97596 0.11936 0.0
C1152 C 0.46948 0.96179 0.11857 0.0
C1153 C 0.43104 0.01177 0.12879 0.0
N1154 N 0.53579 0.97278 0.11818 0.0
N1155 N 0.46228 0.01572 0.1267 0.0
H1156 H 0.55741 0.06535 0.37046 0.0
H1157 H 0.43769 0.92339 0.37742 0.0
H1158 H 0.45811 0.07663 0.37853 0.0
H1159 H 0.53727 0.91159 0.37249 0.0
H1160 H 0.44505 0.97956 0.38021 0.0
H1161 H 0.551 0.00912 0.37359 0.0
C1162 C 0.53435 0.05612 0.37345 0.0
C1163 C 0.50832 0.0758 0.3747 0.0
C1164 C 0.46535 0.9647 0.37882 0.0
C1165 C 0.50066 0.01129 0.37749 0.0
C1166 C 0.46116 0.93257 0.3775 0.0
C1167 C 0.48698 0.91279 0.37531 0.0
C1168 C 0.49556 0.97718 0.37762 0.0
C1169 C 0.51678 0.92609 0.37436 0.0
C1170 C 0.53065 0.02391 0.37496 0.0
C1171 C 0.47882 0.06229 0.37754 0.0
N1172 N 0.52027 0.95747 0.3755 0.0
N1173 N 0.47578 0.03089 0.3788 0.0
H1174 H 0.91398 0.46106 0.37492 0.0
H1175 H 0.08202 0.54103 0.37957 0.0
H1176 H 0.92815 0.56043 0.37282 0.0
H1177 H 0.06716 0.44203 0.37392 0.0
H1178 H 0.02559 0.54874 0.3811 0.0
H1179 H 0.97009 0.45372 0.37868 0.0
C1180 C 0.92891 0.48137 0.37548 0.0
C1181 C 0.91633 0.51142 0.37388 0.0
C1182 C 0.03472 0.5253 0.37982 0.0
C1183 C 0.98061 0.50322 0.37799 0.0
C1184 C 0.06688 0.52089 0.37893 0.0
C1185 C 0.07932 0.4908 0.37709 0.0
C1186 C 0.01486 0.49941 0.37862 0.0
C1187 C 0.05873 0.46553 0.37615 0.0
C1188 C 0.96092 0.47717 0.37764 0.0
C1189 C 0.93669 0.5369 0.37465 0.0
N1190 N 0.0275 0.47043 0.37687 0.0
N1191 N 0.96789 0.53221 0.37656 0.0
H1192 H -0.00314 0.57266 0.83376 0.0
H1193 H 0.00827 0.41663 0.9064 0.0
H1194 H 0.97456 0.57024 0.90557 0.0
H1195 H 0.99559 0.41845 0.83334 0.0
H1196 H 0.00194 0.47343 0.90725 0.0
H1197 H 0.0027 0.51622 0.83405 0.0
C1198 C 0.9931 0.56013 0.84959 0.0
C1199 C 0.98486 0.5759 0.86961 0.0
C1200 C 0.00057 0.4613 0.89108 0.0
C1201 C 0.99176 0.51153 0.87014 0.0
C1202 C 0.00448 0.42905 0.89056 0.0
C1203 C 0.00283 0.41309 0.86973 0.0
C1204 C 0.99532 0.47743 0.87059 0.0
C1205 C -0.00294 0.43 0.84974 0.0
C1206 C -0.00369 0.52798 0.84972 0.0
C1207 C 0.98031 0.55874 0.88969 0.0
N1208 N 0.99372 0.46132 0.85064 0.0
N1209 N 0.98399 0.52731 0.8895 0.0
H1210 H 0.56479 0.05357 0.87682 0.0
H1211 H 0.42479 0.93199 0.87534 0.0
H1212 H 0.57798 0.95418 0.87315 0.0
H1213 H 0.41255 0.03108 0.8834 0.0
H1214 H 0.48102 0.93897 0.87819 0.0
H1215 H 0.50913 0.04536 0.88276 0.0
C1216 C 0.55603 0.02998 0.87787 0.0
C1217 C 0.57596 0.00446 0.87505 0.0
C1218 C 0.46601 0.95914 0.87968 0.0
C1219 C 0.51225 0.99486 0.88091 0.0
C1220 C 0.43384 0.9551 0.87832 0.0
C1221 C 0.41397 0.98096 0.87944 0.0
C1222 C 0.47831 0.98927 0.88192 0.0
C1223 C 0.42712 0.01053 0.8824 0.0
C1224 C 0.52422 0.02529 0.88101 0.0
C1225 C 0.56327 0.97443 0.87543 0.0
N1226 N 0.45848 0.01391 0.88342 0.0
N1227 N 0.53215 0.97043 0.87824 0.0
H1228 H 0.43611 0.92707 0.64332 0.0
H1229 H 0.53293 0.07272 0.59822 0.0
H1230 H 0.52459 0.91696 0.60918 0.0
H1231 H 0.46912 0.0769 0.65525 0.0
H1232 H 0.5245 0.01668 0.59601 0.0
H1233 H 0.44135 0.98363 0.64082 0.0
C1234 C 0.45622 0.9368 0.63476 0.0
C1235 C 0.47976 0.91756 0.62613 0.0
C1236 C 0.51254 0.03 0.60905 0.0
C1237 C 0.48627 0.98188 0.62371 0.0
C1238 C 0.51769 0.06199 0.61058 0.0
C1239 C 0.50255 0.07959 0.62747 0.0
C1240 C 0.49158 0.01573 0.62415 0.0
C1241 C 0.48156 0.06432 0.64207 0.0
C1242 C 0.45941 0.969 0.63362 0.0
C1243 C 0.50595 0.93124 0.61596 0.0
N1244 N 0.47671 0.03329 0.64009 0.0
N1245 N 0.50855 0.96269 0.615 0.0
H1246 H 0.92308 0.5528 0.64747 0.0
H1247 H 0.07324 0.4594 0.60591 0.0
H1248 H 0.91674 0.46432 0.6131 0.0
H1249 H 0.07435 0.52459 0.66204 0.0
H1250 H 0.0169 0.46561 0.60331 0.0
H1251 H 0.97991 0.54833 0.64713 0.0
C1252 C 0.93371 0.53282 0.63934 0.0
C1253 C 0.91537 0.50915 0.62991 0.0
C1254 C 0.02957 0.47834 0.61628 0.0
C1255 C 0.98012 0.5035 0.62995 0.0
C1256 C 0.06179 0.47447 0.61803 0.0
C1257 C 0.07869 0.49067 0.63476 0.0
C1258 C 0.01425 0.4991 0.63098 0.0
C1259 C 0.06237 0.51137 0.649 0.0
C1260 C 0.96608 0.53005 0.63945 0.0
C1261 C 0.93023 0.48311 0.62043 0.0
N1262 N 0.03112 0.51498 0.64679 0.0
N1263 N 0.96181 0.48099 0.6206 0.0
loop_
_geom_bond_atom_site_label_1
_geom_bond_atom_site_label_2
_geom_bond_distance
_geom_bond_site_symmetry_2
_ccdc_geom_bond_type
Co0 O3 1.970 . S
Co0 N17 1.989 . S
Co0 O25 1.967 . S
Co0 O32 1.920 . S
Co1 O4 1.966 . S
Co1 N10 2.022 . S
Co1 N18 1.993 . S
Co1 O26 1.941 . S
C2 O3 1.258 . S
C2 O4 1.263 . S
O3 Co0 1.970 . S
O3 C2 1.258 . S
O4 Co1 1.966 . S
O4 C2 1.263 . S
C5 O6 1.235 . S
C5 O32 1.289 . S
O6 C5 1.235 . S
C7 C9 1.400 . S
C7 N10 1.351 . S
C7 C12 1.501 . S
C8 C9 1.387 . S
C8 N11 1.341 . S
C9 C7 1.400 . S
C9 C8 1.387 . S
N10 Co1 2.022 . S
N10 C7 1.351 . S
N10 N11 1.365 . S
N11 C8 1.341 . S
N11 N10 1.365 . S
N11 H31 0.862 . S
C12 C7 1.501 . S
C12 H13 0.961 . S
C12 H14 0.961 . S
C12 H15 0.960 . S
H13 C12 0.961 . S
H14 C12 0.961 . S
H15 C12 0.960 . S
C16 N17 1.342 . S
C16 C20 1.401 . S
C16 C21 1.499 . S
N17 Co0 1.989 . S
N17 C16 1.342 . S
N17 N18 1.388 . S
N18 Co1 1.993 . S
N18 N17 1.388 . S
N18 C19 1.346 . S
C19 N18 1.346 . S
C19 C20 1.396 . S
C19 C29 1.510 . S
C20 C16 1.401 . S
C20 C19 1.396 . S
C21 C16 1.499 . S
C21 H22 0.959 . S
C21 H23 0.960 . S
C21 H24 0.961 . S
H22 C21 0.959 . S
H23 C21 0.960 . S
H24 C21 0.961 . S
O25 Co0 1.967 . S
O25 C33 1.258 . S
O26 Co1 1.941 . S
O26 C33 1.266 . S
H27 C29 0.959 . S
H28 C29 0.961 . S
C29 C19 1.510 . S
C29 H27 0.959 . S
C29 H28 0.961 . S
C29 H30 0.960 . S
H30 C29 0.960 . S
H31 N11 0.862 . S
O32 Co0 1.920 . S
O32 C5 1.289 . S
C33 O25 1.258 . S
C33 O26 1.266 . S
Co34 O37 1.970 . S
Co34 N51 1.989 . S
Co34 O59 1.967 . S
Co34 O66 1.920 . S
Co35 O38 1.966 . S
Co35 N44 2.022 . S
Co35 N52 1.993 . S
Co35 O60 1.941 . S
C36 O37 1.258 . S
C36 O38 1.263 . S
O37 Co34 1.970 . S
O37 C36 1.258 . S
O38 Co35 1.966 . S
O38 C36 1.263 . S
C39 O40 1.235 . S
C39 O66 1.289 . S
O40 C39 1.235 . S
C41 C43 1.400 . S
C41 N44 1.351 . S
C41 C46 1.501 . S
C42 C43 1.387 . S
C42 N45 1.341 . S
C43 C41 1.400 . S
C43 C42 1.387 . S
N44 Co35 2.022 . S
N44 C41 1.351 . S
N44 N45 1.365 . S
N45 C42 1.341 . S
N45 N44 1.365 . S
N45 H65 0.862 . S
C46 C41 1.501 . S
C46 H47 0.961 . S
C46 H48 0.961 . S
C46 H49 0.960 . S
H47 C46 0.961 . S
H48 C46 0.961 . S
H49 C46 0.960 . S
C50 N51 1.342 . S
C50 C54 1.401 . S
C50 C55 1.499 . S
N51 Co34 1.989 . S
N51 C50 1.342 . S
N51 N52 1.388 . S
N52 Co35 1.993 . S
N52 N51 1.388 . S
N52 C53 1.346 . S
C53 N52 1.346 . S
C53 C54 1.396 . S
C53 C63 1.510 . S
C54 C50 1.401 . S
C54 C53 1.396 . S
C55 C50 1.499 . S
C55 H56 0.959 . S
C55 H57 0.960 . S
C55 H58 0.961 . S
H56 C55 0.959 . S
H57 C55 0.960 . S
H58 C55 0.961 . S
O59 Co34 1.967 . S
O59 C67 1.258 . S
O60 Co35 1.941 . S
O60 C67 1.266 . S
H61 C63 0.959 . S
H62 C63 0.961 . S
C63 C53 1.510 . S
C63 H61 0.959 . S
C63 H62 0.961 . S
C63 H64 0.960 . S
H64 C63 0.960 . S
H65 N45 0.862 . S
O66 Co34 1.920 . S
O66 C39 1.289 . S
C67 O59 1.258 . S
C67 O60 1.266 . S
Co68 O71 1.970 . S
Co68 N85 1.989 . S
Co68 O93 1.967 . S
Co68 O100 1.920 . S
Co69 O72 1.966 . S
Co69 N78 2.022 . S
Co69 N86 1.993 . S
Co69 O94 1.941 . S
C70 O71 1.258 . S
C70 O72 1.263 . S
O71 Co68 1.970 . S
O71 C70 1.258 . S
O72 Co69 1.966 . S
O72 C70 1.263 . S
C73 O74 1.235 . S
C73 O100 1.289 . S
O74 C73 1.235 . S
C75 C77 1.400 . S
C75 N78 1.351 . S
C75 C80 1.501 . S
C76 C77 1.387 . S
C76 N79 1.341 . S
C77 C75 1.400 . S
C77 C76 1.387 . S
N78 Co69 2.022 . S
N78 C75 1.351 . S
N78 N79 1.365 . S
N79 C76 1.341 . S
N79 N78 1.365 . S
N79 H99 0.862 . S
C80 C75 1.501 . S
C80 H81 0.961 . S
C80 H82 0.961 . S
C80 H83 0.960 . S
H81 C80 0.961 . S
H82 C80 0.961 . S
H83 C80 0.960 . S
C84 N85 1.342 . S
C84 C88 1.401 . S
C84 C89 1.499 . S
N85 Co68 1.989 . S
N85 C84 1.342 . S
N85 N86 1.388 . S
N86 Co69 1.993 . S
N86 N85 1.388 . S
N86 C87 1.346 . S
C87 N86 1.346 . S
C87 C88 1.396 . S
C87 C97 1.510 . S
C88 C84 1.401 . S
C88 C87 1.396 . S
C89 C84 1.499 . S
C89 H90 0.959 . S
C89 H91 0.960 . S
C89 H92 0.961 . S
H90 C89 0.959 . S
H91 C89 0.960 . S
H92 C89 0.961 . S
O93 Co68 1.967 . S
O93 C101 1.258 . S
O94 Co69 1.941 . S
O94 C101 1.266 . S
H95 C97 0.959 . S
H96 C97 0.961 . S
C97 C87 1.510 . S
C97 H95 0.959 . S
C97 H96 0.961 . S
C97 H98 0.960 . S
H98 C97 0.960 . S
H99 N79 0.862 . S
O100 Co68 1.920 . S
O100 C73 1.289 . S
C101 O93 1.258 . S
C101 O94 1.266 . S
Co102 O105 1.970 . S
Co102 N119 1.989 . S
Co102 O127 1.967 . S
Co102 O134 1.920 . S
Co103 O106 1.966 . S
Co103 N112 2.022 . S
Co103 N120 1.993 . S
Co103 O128 1.941 . S
C104 O105 1.258 . S
C104 O106 1.263 . S
O105 Co102 1.970 . S
O105 C104 1.258 . S
O106 Co103 1.966 . S
O106 C104 1.263 . S
C107 O108 1.235 . S
C107 O134 1.289 . S
O108 C107 1.235 . S
C109 C111 1.400 . S
C109 N112 1.351 . S
C109 C114 1.501 . S
C110 C111 1.387 . S
C110 N113 1.341 . S
C111 C109 1.400 . S
C111 C110 1.387 . S
N112 Co103 2.022 . S
N112 C109 1.351 . S
N112 N113 1.365 . S
N113 C110 1.341 . S
N113 N112 1.365 . S
N113 H133 0.862 . S
C114 C109 1.501 . S
C114 H115 0.961 . S
C114 H116 0.961 . S
C114 H117 0.960 . S
H115 C114 0.961 . S
H116 C114 0.961 . S
H117 C114 0.960 . S
C118 N119 1.342 . S
C118 C122 1.401 . S
C118 C123 1.499 . S
N119 Co102 1.989 . S
N119 C118 1.342 . S
N119 N120 1.388 . S
N120 Co103 1.993 . S
N120 N119 1.388 . S
N120 C121 1.346 . S
C121 N120 1.346 . S
C121 C122 1.396 . S
C121 C131 1.510 . S
C122 C118 1.401 . S
C122 C121 1.396 . S
C123 C118 1.499 . S
C123 H124 0.959 . S
C123 H125 0.960 . S
C123 H126 0.961 . S
H124 C123 0.959 . S
H125 C123 0.960 . S
H126 C123 0.961 . S
O127 Co102 1.967 . S
O127 C135 1.258 . S
O128 Co103 1.941 . S
O128 C135 1.266 . S
H129 C131 0.959 . S
H130 C131 0.961 . S
C131 C121 1.510 . S
C131 H129 0.959 . S
C131 H130 0.961 . S
C131 H132 0.960 . S
H132 C131 0.960 . S
H133 N113 0.862 . S
O134 Co102 1.920 . S
O134 C107 1.289 . S
C135 O127 1.258 . S
C135 O128 1.266 . S
Co136 O139 1.970 . S
Co136 N153 1.989 . S
Co136 O161 1.967 . S
Co136 O168 1.920 . S
Co137 O140 1.966 . S
Co137 N146 2.022 . S
Co137 N154 1.993 . S
Co137 O162 1.941 . S
C138 O139 1.258 . S
C138 O140 1.263 . S
O139 Co136 1.970 . S
O139 C138 1.258 . S
O140 Co137 1.966 . S
O140 C138 1.263 . S
C141 O142 1.235 . S
C141 O168 1.289 . S
O142 C141 1.235 . S
C143 C145 1.400 . S
C143 N146 1.351 . S
C143 C148 1.501 . S
C144 C145 1.387 . S
C144 N147 1.341 . S
C145 C143 1.400 . S
C145 C144 1.387 . S
N146 Co137 2.022 . S
N146 C143 1.351 . S
N146 N147 1.365 . S
N147 C144 1.341 . S
N147 N146 1.365 . S
N147 H167 0.862 . S
C148 C143 1.501 . S
C148 H149 0.961 . S
C148 H150 0.961 . S
C148 H151 0.960 . S
H149 C148 0.961 . S
H150 C148 0.961 . S
H151 C148 0.960 . S
C152 N153 1.342 . S
C152 C156 1.401 . S
C152 C157 1.499 . S
N153 Co136 1.989 . S
N153 C152 1.342 . S
N153 N154 1.388 . S
N154 Co137 1.993 . S
N154 N153 1.388 . S
N154 C155 1.346 . S
C155 N154 1.346 . S
C155 C156 1.396 . S
C155 C165 1.510 . S
C156 C152 1.401 . S
C156 C155 1.396 . S
C157 C152 1.499 . S
C157 H158 0.959 . S
C157 H159 0.960 . S
C157 H160 0.961 . S
H158 C157 0.959 . S
H159 C157 0.960 . S
H160 C157 0.961 . S
O161 Co136 1.967 . S
O161 C169 1.258 . S
O162 Co137 1.941 . S
O162 C169 1.266 . S
H163 C165 0.959 . S
H164 C165 0.961 . S
C165 C155 1.510 . S
C165 H163 0.959 . S
C165 H164 0.961 . S
C165 H166 0.960 . S
H166 C165 0.960 . S
H167 N147 0.862 . S
O168 Co136 1.920 . S
O168 C141 1.289 . S
C169 O161 1.258 . S
C169 O162 1.266 . S
Co170 O173 1.970 . S
Co170 N187 1.989 . S
Co170 O195 1.967 . S
Co170 O202 1.920 . S
Co171 O174 1.966 . S
Co171 N180 2.022 . S
Co171 N188 1.993 . S
Co171 O196 1.941 . S
C172 O173 1.258 . S
C172 O174 1.263 . S
O173 Co170 1.970 . S
O173 C172 1.258 . S
O174 Co171 1.966 . S
O174 C172 1.263 . S
C175 O176 1.235 . S
C175 O202 1.289 . S
O176 C175 1.235 . S
C177 C179 1.400 . S
C177 N180 1.351 . S
C177 C182 1.501 . S
C178 C179 1.387 . S
C178 N181 1.341 . S
C179 C177 1.400 . S
C179 C178 1.387 . S
N180 Co171 2.022 . S
N180 C177 1.351 . S
N180 N181 1.365 . S
N181 C178 1.341 . S
N181 N180 1.365 . S
N181 H201 0.862 . S
C182 C177 1.501 . S
C182 H183 0.961 . S
C182 H184 0.961 . S
C182 H185 0.960 . S
H183 C182 0.961 . S
H184 C182 0.961 . S
H185 C182 0.960 . S
C186 N187 1.342 . S
C186 C190 1.401 . S
C186 C191 1.499 . S
N187 Co170 1.989 . S
N187 C186 1.342 . S
N187 N188 1.388 . S
N188 Co171 1.993 . S
N188 N187 1.388 . S
N188 C189 1.346 . S
C189 N188 1.346 . S
C189 C190 1.396 . S
C189 C199 1.510 . S
C190 C186 1.401 . S
C190 C189 1.396 . S
C191 C186 1.499 . S
C191 H192 0.959 . S
C191 H193 0.960 . S
C191 H194 0.961 . S
H192 C191 0.959 . S
H193 C191 0.960 . S
H194 C191 0.961 . S
O195 Co170 1.967 . S
O195 C203 1.258 . S
O196 Co171 1.941 . S
O196 C203 1.266 . S
H197 C199 0.959 . S
H198 C199 0.961 . S
C199 C189 1.510 . S
C199 H197 0.959 . S
C199 H198 0.961 . S
C199 H200 0.960 . S
H200 C199 0.960 . S
H201 N181 0.862 . S
O202 Co170 1.920 . S
O202 C175 1.289 . S
C203 O195 1.258 . S
C203 O196 1.266 . S
Co204 O207 1.970 . S
Co204 N221 1.989 . S
Co204 O229 1.967 . S
Co204 O236 1.920 . S
Co205 O208 1.966 . S
Co205 N214 2.022 . S
Co205 N222 1.993 . S
Co205 O230 1.941 . S
C206 O207 1.258 . S
C206 O208 1.263 . S
O207 Co204 1.970 . S
O207 C206 1.258 . S
O208 Co205 1.966 . S
O208 C206 1.263 . S
C209 O210 1.235 . S
C209 O236 1.289 . S
O210 C209 1.235 . S
C211 C213 1.400 . S
C211 N214 1.351 . S
C211 C216 1.501 . S
C212 C213 1.387 . S
C212 N215 1.341 . S
C213 C211 1.400 . S
C213 C212 1.387 . S
N214 Co205 2.022 . S
N214 C211 1.351 . S
N214 N215 1.365 . S
N215 C212 1.341 . S
N215 N214 1.365 . S
N215 H235 0.862 . S
C216 C211 1.501 . S
C216 H217 0.961 . S
C216 H218 0.961 . S
C216 H219 0.960 . S
H217 C216 0.961 . S
H218 C216 0.961 . S
H219 C216 0.960 . S
C220 N221 1.342 . S
C220 C224 1.401 . S
C220 C225 1.499 . S
N221 Co204 1.989 . S
N221 C220 1.342 . S
N221 N222 1.388 . S
N222 Co205 1.993 . S
N222 N221 1.388 . S
N222 C223 1.346 . S
C223 N222 1.346 . S
C223 C224 1.396 . S
C223 C233 1.510 . S
C224 C220 1.401 . S
C224 C223 1.396 . S
C225 C220 1.499 . S
C225 H226 0.959 . S
C225 H227 0.960 . S
C225 H228 0.961 . S
H226 C225 0.959 . S
H227 C225 0.960 . S
H228 C225 0.961 . S
O229 Co204 1.967 . S
O229 C237 1.258 . S
O230 Co205 1.941 . S
O230 C237 1.266 . S
H231 C233 0.959 . S
H232 C233 0.961 . S
C233 C223 1.510 . S
C233 H231 0.959 . S
C233 H232 0.961 . S
C233 H234 0.960 . S
H234 C233 0.960 . S
H235 N215 0.862 . S
O236 Co204 1.920 . S
O236 C209 1.289 . S
C237 O229 1.258 . S
C237 O230 1.266 . S
Co238 O241 1.970 . S
Co238 N255 1.989 . S
Co238 O263 1.967 . S
Co238 O270 1.920 . S
Co239 O242 1.966 . S
Co239 N248 2.022 . S
Co239 N256 1.993 . S
Co239 O264 1.941 . S
C240 O241 1.258 . S
C240 O242 1.263 . S
O241 Co238 1.970 . S
O241 C240 1.258 . S
O242 Co239 1.966 . S
O242 C240 1.263 . S
C243 O244 1.235 . S
C243 O270 1.289 . S
O244 C243 1.235 . S
C245 C247 1.400 . S
C245 N248 1.351 . S
C245 C250 1.501 . S
C246 C247 1.387 . S
C246 N249 1.341 . S
C247 C245 1.400 . S
C247 C246 1.387 . S
N248 Co239 2.022 . S
N248 C245 1.351 . S
N248 N249 1.365 . S
N249 C246 1.341 . S
N249 N248 1.365 . S
N249 H269 0.862 . S
C250 C245 1.501 . S
C250 H251 0.961 . S
C250 H252 0.961 . S
C250 H253 0.960 . S
H251 C250 0.961 . S
H252 C250 0.961 . S
H253 C250 0.960 . S
C254 N255 1.342 . S
C254 C258 1.401 . S
C254 C259 1.499 . S
N255 Co238 1.989 . S
N255 C254 1.342 . S
N255 N256 1.388 . S
N256 Co239 1.993 . S
N256 N255 1.388 . S
N256 C257 1.346 . S
C257 N256 1.346 . S
C257 C258 1.396 . S
C257 C267 1.510 . S
C258 C254 1.401 . S
C258 C257 1.396 . S
C259 C254 1.499 . S
C259 H260 0.959 . S
C259 H261 0.960 . S
C259 H262 0.961 . S
H260 C259 0.959 . S
H261 C259 0.960 . S
H262 C259 0.961 . S
O263 Co238 1.967 . S
O263 C271 1.258 . S
O264 Co239 1.941 . S
O264 C271 1.266 . S
H265 C267 0.959 . S
H266 C267 0.961 . S
C267 C257 1.510 . S
C267 H265 0.959 . S
C267 H266 0.961 . S
C267 H268 0.960 . S
H268 C267 0.960 . S
H269 N249 0.862 . S
O270 Co238 1.920 . S
O270 C243 1.289 . S
C271 O263 1.258 . S
C271 O264 1.266 . S
Co272 O275 1.970 . S
Co272 N289 1.989 . S
Co272 O297 1.967 . S
Co272 O304 1.920 . S
Co273 O276 1.966 . S
Co273 N282 2.022 . S
Co273 N290 1.993 . S
Co273 O298 1.941 . S
C274 O275 1.258 . S
C274 O276 1.263 . S
O275 Co272 1.970 . S
O275 C274 1.258 . S
O276 Co273 1.966 . S
O276 C274 1.263 . S
C277 O278 1.235 . S
C277 O304 1.289 . S
O278 C277 1.235 . S
C279 C281 1.400 . S
C279 N282 1.351 . S
C279 C284 1.501 . S
C280 C281 1.387 . S
C280 N283 1.341 . S
C281 C279 1.400 . S
C281 C280 1.387 . S
N282 Co273 2.022 . S
N282 C279 1.351 . S
N282 N283 1.365 . S
N283 C280 1.341 . S
N283 N282 1.365 . S
N283 H303 0.862 . S
C284 C279 1.501 . S
C284 H285 0.961 . S
C284 H286 0.961 . S
C284 H287 0.960 . S
H285 C284 0.961 . S
H286 C284 0.961 . S
H287 C284 0.960 . S
C288 N289 1.342 . S
C288 C292 1.401 . S
C288 C293 1.499 . S
N289 Co272 1.989 . S
N289 C288 1.342 . S
N289 N290 1.388 . S
N290 Co273 1.993 . S
N290 N289 1.388 . S
N290 C291 1.346 . S
C291 N290 1.346 . S
C291 C292 1.396 . S
C291 C301 1.510 . S
C292 C288 1.401 . S
C292 C291 1.396 . S
C293 C288 1.499 . S
C293 H294 0.959 . S
C293 H295 0.960 . S
C293 H296 0.961 . S
H294 C293 0.959 . S
H295 C293 0.960 . S
H296 C293 0.961 . S
O297 Co272 1.967 . S
O297 C305 1.258 . S
O298 Co273 1.941 . S
O298 C305 1.266 . S
H299 C301 0.959 . S
H300 C301 0.961 . S
C301 C291 1.510 . S
C301 H299 0.959 . S
C301 H300 0.961 . S
C301 H302 0.960 . S
H302 C301 0.960 . S
H303 N283 0.862 . S
O304 Co272 1.920 . S
O304 C277 1.289 . S
C305 O297 1.258 . S
C305 O298 1.266 . S
Co306 O309 1.970 . S
Co306 N323 1.989 . S
Co306 O331 1.967 . S
Co306 O338 1.920 . S
Co307 O310 1.966 . S
Co307 N316 2.022 . S
Co307 N324 1.993 . S
Co307 O332 1.941 . S
C308 O309 1.258 . S
C308 O310 1.263 . S
O309 Co306 1.970 . S
O309 C308 1.258 . S
O310 Co307 1.966 . S
O310 C308 1.263 . S
C311 O312 1.235 . S
C311 O338 1.289 . S
O312 C311 1.235 . S
C313 C315 1.400 . S
C313 N316 1.351 . S
C313 C318 1.501 . S
C314 C315 1.387 . S
C314 N317 1.341 . S
C315 C313 1.400 . S
C315 C314 1.387 . S
N316 Co307 2.022 . S
N316 C313 1.351 . S
N316 N317 1.365 . S
N317 C314 1.341 . S
N317 N316 1.365 . S
N317 H337 0.862 . S
C318 C313 1.501 . S
C318 H319 0.961 . S
C318 H320 0.961 . S
C318 H321 0.960 . S
H319 C318 0.961 . S
H320 C318 0.961 . S
H321 C318 0.960 . S
C322 N323 1.342 . S
C322 C326 1.401 . S
C322 C327 1.499 . S
N323 Co306 1.989 . S
N323 C322 1.342 . S
N323 N324 1.388 . S
N324 Co307 1.993 . S
N324 N323 1.388 . S
N324 C325 1.346 . S
C325 N324 1.346 . S
C325 C326 1.396 . S
C325 C335 1.510 . S
C326 C322 1.401 . S
C326 C325 1.396 . S
C327 C322 1.499 . S
C327 H328 0.959 . S
C327 H329 0.960 . S
C327 H330 0.961 . S
H328 C327 0.959 . S
H329 C327 0.960 . S
H330 C327 0.961 . S
O331 Co306 1.967 . S
O331 C339 1.258 . S
O332 Co307 1.941 . S
O332 C339 1.266 . S
H333 C335 0.959 . S
H334 C335 0.961 . S
C335 C325 1.510 . S
C335 H333 0.959 . S
C335 H334 0.961 . S
C335 H336 0.960 . S
H336 C335 0.960 . S
H337 N317 0.862 . S
O338 Co306 1.920 . S
O338 C311 1.289 . S
C339 O331 1.258 . S
C339 O332 1.266 . S
Co340 O343 1.970 . S
Co340 N357 1.989 . S
Co340 O365 1.967 . S
Co340 O372 1.920 . S
Co341 O344 1.966 . S
Co341 N350 2.022 . S
Co341 N358 1.993 . S
Co341 O366 1.941 . S
C342 O343 1.258 . S
C342 O344 1.263 . S
O343 Co340 1.970 . S
O343 C342 1.258 . S
O344 Co341 1.966 . S
O344 C342 1.263 . S
C345 O346 1.235 . S
C345 O372 1.289 . S
O346 C345 1.235 . S
C347 C349 1.400 . S
C347 N350 1.351 . S
C347 C352 1.501 . S
C348 C349 1.387 . S
C348 N351 1.341 . S
C349 C347 1.400 . S
C349 C348 1.387 . S
N350 Co341 2.022 . S
N350 C347 1.351 . S
N350 N351 1.365 . S
N351 C348 1.341 . S
N351 N350 1.365 . S
N351 H371 0.862 . S
C352 C347 1.501 . S
C352 H353 0.961 . S
C352 H354 0.961 . S
C352 H355 0.960 . S
H353 C352 0.961 . S
H354 C352 0.961 . S
H355 C352 0.960 . S
C356 N357 1.342 . S
C356 C360 1.401 . S
C356 C361 1.499 . S
N357 Co340 1.989 . S
N357 C356 1.342 . S
N357 N358 1.388 . S
N358 Co341 1.993 . S
N358 N357 1.388 . S
N358 C359 1.346 . S
C359 N358 1.346 . S
C359 C360 1.396 . S
C359 C369 1.510 . S
C360 C356 1.401 . S
C360 C359 1.396 . S
C361 C356 1.499 . S
C361 H362 0.959 . S
C361 H363 0.960 . S
C361 H364 0.961 . S
H362 C361 0.959 . S
H363 C361 0.960 . S
H364 C361 0.961 . S
O365 Co340 1.967 . S
O365 C373 1.258 . S
O366 Co341 1.941 . S
O366 C373 1.266 . S
H367 C369 0.959 . S
H368 C369 0.961 . S
C369 C359 1.510 . S
C369 H367 0.959 . S
C369 H368 0.961 . S
C369 H370 0.960 . S
H370 C369 0.960 . S
H371 N351 0.862 . S
O372 Co340 1.920 . S
O372 C345 1.289 . S
C373 O365 1.258 . S
C373 O366 1.266 . S
Co374 O377 1.970 . S
Co374 N391 1.989 . S
Co374 O399 1.967 . S
Co374 O406 1.920 . S
Co375 O378 1.966 . S
Co375 N384 2.022 . S
Co375 N392 1.993 . S
Co375 O400 1.941 . S
C376 O377 1.258 . S
C376 O378 1.263 . S
O377 Co374 1.970 . S
O377 C376 1.258 . S
O378 Co375 1.966 . S
O378 C376 1.263 . S
C379 O380 1.235 . S
C379 O406 1.289 . S
O380 C379 1.235 . S
C381 C383 1.400 . S
C381 N384 1.351 . S
C381 C386 1.501 . S
C382 C383 1.387 . S
C382 N385 1.341 . S
C383 C381 1.400 . S
C383 C382 1.387 . S
N384 Co375 2.022 . S
N384 C381 1.351 . S
N384 N385 1.365 . S
N385 C382 1.341 . S
N385 N384 1.365 . S
N385 H405 0.862 . S
C386 C381 1.501 . S
C386 H387 0.961 . S
C386 H388 0.961 . S
C386 H389 0.960 . S
H387 C386 0.961 . S
H388 C386 0.961 . S
H389 C386 0.960 . S
C390 N391 1.342 . S
C390 C394 1.401 . S
C390 C395 1.499 . S
N391 Co374 1.989 . S
N391 C390 1.342 . S
N391 N392 1.388 . S
N392 Co375 1.993 . S
N392 N391 1.388 . S
N392 C393 1.346 . S
C393 N392 1.346 . S
C393 C394 1.396 . S
C393 C403 1.510 . S
C394 C390 1.401 . S
C394 C393 1.396 . S
C395 C390 1.499 . S
C395 H396 0.959 . S
C395 H397 0.960 . S
C395 H398 0.961 . S
H396 C395 0.959 . S
H397 C395 0.960 . S
H398 C395 0.961 . S
O399 Co374 1.967 . S
O399 C407 1.258 . S
O400 Co375 1.941 . S
O400 C407 1.266 . S
H401 C403 0.959 . S
H402 C403 0.961 . S
C403 C393 1.510 . S
C403 H401 0.959 . S
C403 H402 0.961 . S
C403 H404 0.960 . S
H404 C403 0.960 . S
H405 N385 0.862 . S
O406 Co374 1.920 . S
O406 C379 1.289 . S
C407 O399 1.258 . S
C407 O400 1.266 . S
Co408 O411 1.970 . S
Co408 N425 1.989 . S
Co408 O433 1.967 . S
Co408 O440 1.920 . S
Co409 O412 1.966 . S
Co409 N418 2.022 . S
Co409 N426 1.993 . S
Co409 O434 1.941 . S
C410 O411 1.258 . S
C410 O412 1.263 . S
O411 Co408 1.970 . S
O411 C410 1.258 . S
O412 Co409 1.966 . S
O412 C410 1.263 . S
C413 O414 1.235 . S
C413 O440 1.289 . S
O414 C413 1.235 . S
C415 C417 1.400 . S
C415 N418 1.351 . S
C415 C420 1.501 . S
C416 C417 1.387 . S
C416 N419 1.341 . S
C417 C415 1.400 . S
C417 C416 1.387 . S
N418 Co409 2.022 . S
N418 C415 1.351 . S
N418 N419 1.365 . S
N419 C416 1.341 . S
N419 N418 1.365 . S
N419 H439 0.862 . S
C420 C415 1.501 . S
C420 H421 0.961 . S
C420 H422 0.961 . S
C420 H423 0.960 . S
H421 C420 0.961 . S
H422 C420 0.961 . S
H423 C420 0.960 . S
C424 N425 1.342 . S
C424 C428 1.401 . S
C424 C429 1.499 . S
N425 Co408 1.989 . S
N425 C424 1.342 . S
N425 N426 1.388 . S
N426 Co409 1.993 . S
N426 N425 1.388 . S
N426 C427 1.346 . S
C427 N426 1.346 . S
C427 C428 1.396 . S
C427 C437 1.510 . S
C428 C424 1.401 . S
C428 C427 1.396 . S
C429 C424 1.499 . S
C429 H430 0.959 . S
C429 H431 0.960 . S
C429 H432 0.961 . S
H430 C429 0.959 . S
H431 C429 0.960 . S
H432 C429 0.961 . S
O433 Co408 1.967 . S
O433 C441 1.258 . S
O434 Co409 1.941 . S
O434 C441 1.266 . S
H435 C437 0.959 . S
H436 C437 0.961 . S
C437 C427 1.510 . S
C437 H435 0.959 . S
C437 H436 0.961 . S
C437 H438 0.960 . S
H438 C437 0.960 . S
H439 N419 0.862 . S
O440 Co408 1.920 . S
O440 C413 1.289 . S
C441 O433 1.258 . S
C441 O434 1.266 . S
Co442 O445 1.970 . S
Co442 N459 1.989 . S
Co442 O467 1.967 . S
Co442 O474 1.920 . S
Co443 O446 1.966 . S
Co443 N452 2.022 . S
Co443 N460 1.993 . S
Co443 O468 1.941 . S
C444 O445 1.258 . S
C444 O446 1.263 . S
O445 Co442 1.970 . S
O445 C444 1.258 . S
O446 Co443 1.966 . S
O446 C444 1.263 . S
C447 O448 1.235 . S
C447 O474 1.289 . S
O448 C447 1.235 . S
C449 C451 1.400 . S
C449 N452 1.351 . S
C449 C454 1.501 . S
C450 C451 1.387 . S
C450 N453 1.341 . S
C451 C449 1.400 . S
C451 C450 1.387 . S
N452 Co443 2.022 . S
N452 C449 1.351 . S
N452 N453 1.365 . S
N453 C450 1.341 . S
N453 N452 1.365 . S
N453 H473 0.862 . S
C454 C449 1.501 . S
C454 H455 0.961 . S
C454 H456 0.961 . S
C454 H457 0.960 . S
H455 C454 0.961 . S
H456 C454 0.961 . S
H457 C454 0.960 . S
C458 N459 1.342 . S
C458 C462 1.401 . S
C458 C463 1.499 . S
N459 Co442 1.989 . S
N459 C458 1.342 . S
N459 N460 1.388 . S
N460 Co443 1.993 . S
N460 N459 1.388 . S
N460 C461 1.346 . S
C461 N460 1.346 . S
C461 C462 1.396 . S
C461 C471 1.510 . S
C462 C458 1.401 . S
C462 C461 1.396 . S
C463 C458 1.499 . S
C463 H464 0.959 . S
C463 H465 0.960 . S
C463 H466 0.961 . S
H464 C463 0.959 . S
H465 C463 0.960 . S
H466 C463 0.961 . S
O467 Co442 1.967 . S
O467 C475 1.258 . S
O468 Co443 1.941 . S
O468 C475 1.266 . S
H469 C471 0.959 . S
H470 C471 0.961 . S
C471 C461 1.510 . S
C471 H469 0.959 . S
C471 H470 0.961 . S
C471 H472 0.960 . S
H472 C471 0.960 . S
H473 N453 0.862 . S
O474 Co442 1.920 . S
O474 C447 1.289 . S
C475 O467 1.258 . S
C475 O468 1.266 . S
Co476 O479 1.970 . S
Co476 N493 1.989 . S
Co476 O501 1.967 . S
Co476 O508 1.920 . S
Co477 O480 1.966 . S
Co477 N486 2.022 . S
Co477 N494 1.993 . S
Co477 O502 1.941 . S
C478 O479 1.258 . S
C478 O480 1.263 . S
O479 Co476 1.970 . S
O479 C478 1.258 . S
O480 Co477 1.966 . S
O480 C478 1.263 . S
C481 O482 1.235 . S
C481 O508 1.289 . S
O482 C481 1.235 . S
C483 C485 1.400 . S
C483 N486 1.351 . S
C483 C488 1.501 . S
C484 C485 1.387 . S
C484 N487 1.341 . S
C485 C483 1.400 . S
C485 C484 1.387 . S
N486 Co477 2.022 . S
N486 C483 1.351 . S
N486 N487 1.365 . S
N487 C484 1.341 . S
N487 N486 1.365 . S
N487 H507 0.862 . S
C488 C483 1.501 . S
C488 H489 0.961 . S
C488 H490 0.961 . S
C488 H491 0.960 . S
H489 C488 0.961 . S
H490 C488 0.961 . S
H491 C488 0.960 . S
C492 N493 1.342 . S
C492 C496 1.401 . S
C492 C497 1.499 . S
N493 Co476 1.989 . S
N493 C492 1.342 . S
N493 N494 1.388 . S
N494 Co477 1.993 . S
N494 N493 1.388 . S
N494 C495 1.346 . S
C495 N494 1.346 . S
C495 C496 1.396 . S
C495 C505 1.510 . S
C496 C492 1.401 . S
C496 C495 1.396 . S
C497 C492 1.499 . S
C497 H498 0.959 . S
C497 H499 0.960 . S
C497 H500 0.961 . S
H498 C497 0.959 . S
H499 C497 0.960 . S
H500 C497 0.961 . S
O501 Co476 1.967 . S
O501 C509 1.258 . S
O502 Co477 1.941 . S
O502 C509 1.266 . S
H503 C505 0.959 . S
H504 C505 0.961 . S
C505 C495 1.510 . S
C505 H503 0.959 . S
C505 H504 0.961 . S
C505 H506 0.960 . S
H506 C505 0.960 . S
H507 N487 0.862 . S
O508 Co476 1.920 . S
O508 C481 1.289 . S
C509 O501 1.258 . S
C509 O502 1.266 . S
Co510 O513 1.970 . S
Co510 N527 1.989 . S
Co510 O535 1.967 . S
Co510 O542 1.920 . S
Co511 O514 1.966 . S
Co511 N520 2.022 . S
Co511 N528 1.993 . S
Co511 O536 1.941 . S
C512 O513 1.258 . S
C512 O514 1.263 . S
O513 Co510 1.970 . S
O513 C512 1.258 . S
O514 Co511 1.966 . S
O514 C512 1.263 . S
C515 O516 1.235 . S
C515 O542 1.289 . S
O516 C515 1.235 . S
C517 C519 1.400 . S
C517 N520 1.351 . S
C517 C522 1.501 . S
C518 C519 1.387 . S
C518 N521 1.341 . S
C519 C517 1.400 . S
C519 C518 1.387 . S
N520 Co511 2.022 . S
N520 C517 1.351 . S
N520 N521 1.365 . S
N521 C518 1.341 . S
N521 N520 1.365 . S
N521 H541 0.862 . S
C522 C517 1.501 . S
C522 H523 0.961 . S
C522 H524 0.961 . S
C522 H525 0.960 . S
H523 C522 0.961 . S
H524 C522 0.961 . S
H525 C522 0.960 . S
C526 N527 1.342 . S
C526 C530 1.401 . S
C526 C531 1.499 . S
N527 Co510 1.989 . S
N527 C526 1.342 . S
N527 N528 1.388 . S
N528 Co511 1.993 . S
N528 N527 1.388 . S
N528 C529 1.346 . S
C529 N528 1.346 . S
C529 C530 1.396 . S
C529 C539 1.510 . S
C530 C526 1.401 . S
C530 C529 1.396 . S
C531 C526 1.499 . S
C531 H532 0.959 . S
C531 H533 0.960 . S
C531 H534 0.961 . S
H532 C531 0.959 . S
H533 C531 0.960 . S
H534 C531 0.961 . S
O535 Co510 1.967 . S
O535 C543 1.258 . S
O536 Co511 1.941 . S
O536 C543 1.266 . S
H537 C539 0.959 . S
H538 C539 0.961 . S
C539 C529 1.510 . S
C539 H537 0.959 . S
C539 H538 0.961 . S
C539 H540 0.960 . S
H540 C539 0.960 . S
H541 N521 0.862 . S
O542 Co510 1.920 . S
O542 C515 1.289 . S
C543 O535 1.258 . S
C543 O536 1.266 . S
H544 C550 0.930 . S
H545 C554 0.930 . S
H546 C559 0.929 . S
H547 C557 0.929 . S
H548 C552 0.929 . S
H549 C558 0.929 . S
C550 H544 0.930 . S
C550 C551 1.367 . S
C550 C558 1.378 . S
C551 C550 1.367 . S
C551 C559 1.433 . S
C552 H548 0.929 . S
C552 C554 1.378 . S
C552 C556 1.350 . S
C553 C556 1.463 1_556 S
C553 C558 1.350 . S
C553 N561 1.427 . S
C554 H545 0.930 . S
C554 C552 1.378 . S
C554 C555 1.367 . S
C555 C554 1.367 . S
C555 C557 1.433 . S
C556 C552 1.350 . S
C556 C553 1.463 1_554 S
C556 N560 1.427 . S
C557 H547 0.929 . S
C557 C555 1.433 . S
C557 N560 1.384 . S
C558 H549 0.929 . S
C558 C550 1.378 . S
C558 C553 1.350 . S
C559 H546 0.929 . S
C559 C551 1.433 . S
C559 N561 1.384 . S
N560 C556 1.427 . S
N560 C557 1.384 . S
N561 C553 1.427 . S
N561 C559 1.384 . S
H562 C568 0.930 . S
H563 C572 0.930 . S
H564 C577 0.929 . S
H565 C575 0.929 . S
H566 C570 0.929 . S
H567 C576 0.929 . S
C568 H562 0.930 . S
C568 C569 1.367 . S
C568 C576 1.378 . S
C569 C568 1.367 . S
C569 C577 1.433 . S
C570 H566 0.929 . S
C570 C572 1.378 . S
C570 C574 1.350 . S
C571 C574 1.463 1_556 S
C571 C576 1.350 . S
C571 N579 1.427 . S
C572 H563 0.930 . S
C572 C570 1.378 . S
C572 C573 1.367 . S
C573 C572 1.367 . S
C573 C575 1.433 . S
C574 C570 1.350 . S
C574 C571 1.463 1_554 S
C574 N578 1.427 . S
C575 H565 0.929 . S
C575 C573 1.433 . S
C575 N578 1.384 . S
C576 H567 0.929 . S
C576 C568 1.378 . S
C576 C571 1.350 . S
C577 H564 0.929 . S
C577 C569 1.433 . S
C577 N579 1.384 . S
N578 C574 1.427 . S
N578 C575 1.384 . S
N579 C571 1.427 . S
N579 C577 1.384 . S
H580 C586 0.930 . S
H581 C590 0.930 . S
H582 C595 0.929 . S
H583 C593 0.929 . S
H584 C588 0.929 . S
H585 C594 0.929 . S
C586 H580 0.930 . S
C586 C587 1.367 . S
C586 C594 1.378 . S
C587 C586 1.367 . S
C587 C595 1.433 . S
C588 H584 0.929 . S
C588 C590 1.378 . S
C588 C592 1.350 . S
C589 C592 1.463 1_556 S
C589 C594 1.350 . S
C589 N597 1.427 . S
C590 H581 0.930 . S
C590 C588 1.378 . S
C590 C591 1.367 . S
C591 C590 1.367 . S
C591 C593 1.433 . S
C592 C588 1.350 . S
C592 C589 1.463 1_554 S
C592 N596 1.427 . S
C593 H583 0.929 . S
C593 C591 1.433 . S
C593 N596 1.384 . S
C594 H585 0.929 . S
C594 C586 1.378 . S
C594 C589 1.350 . S
C595 H582 0.929 . S
C595 C587 1.433 . S
C595 N597 1.384 . S
N596 C592 1.427 . S
N596 C593 1.384 . S
N597 C589 1.427 . S
N597 C595 1.384 . S
H598 C604 0.930 . S
H599 C608 0.930 . S
H600 C613 0.929 . S
H601 C611 0.929 . S
H602 C606 0.929 . S
H603 C612 0.929 . S
C604 H598 0.930 . S
C604 C605 1.367 . S
C604 C612 1.378 . S
C605 C604 1.367 . S
C605 C613 1.433 . S
C606 H602 0.929 . S
C606 C608 1.378 . S
C606 C610 1.350 . S
C607 C610 1.463 1_556 S
C607 C612 1.350 . S
C607 N615 1.427 . S
C608 H599 0.930 . S
C608 C606 1.378 . S
C608 C609 1.367 . S
C609 C608 1.367 . S
C609 C611 1.433 . S
C610 C606 1.350 . S
C610 C607 1.463 1_554 S
C610 N614 1.427 . S
C611 H601 0.929 . S
C611 C609 1.433 . S
C611 N614 1.384 . S
C612 H603 0.929 . S
C612 C604 1.378 . S
C612 C607 1.350 . S
C613 H600 0.929 . S
C613 C605 1.433 . S
C613 N615 1.384 . S
N614 C610 1.427 . S
N614 C611 1.384 . S
N615 C607 1.427 . S
N615 C613 1.384 . S
H616 C622 0.930 . S
H617 C626 0.930 . S
H618 C631 0.929 . S
H619 C629 0.929 . S
H620 C624 0.929 . S
H621 C630 0.929 . S
C622 H616 0.930 . S
C622 C623 1.367 . S
C622 C630 1.378 . S
C623 C622 1.367 . S
C623 C631 1.433 . S
C624 H620 0.929 . S
C624 C626 1.378 . S
C624 C628 1.350 . S
C625 C628 1.463 . S
C625 C630 1.350 . S
C625 N633 1.427 . S
C626 H617 0.930 . S
C626 C624 1.378 . S
C626 C627 1.367 . S
C627 C626 1.367 . S
C627 C629 1.433 . S
C628 C624 1.350 . S
C628 C625 1.463 . S
C628 N632 1.427 . S
C629 H619 0.929 . S
C629 C627 1.433 . S
C629 N632 1.384 . S
C630 H621 0.929 . S
C630 C622 1.378 . S
C630 C625 1.350 . S
C631 H618 0.929 . S
C631 C623 1.433 . S
C631 N633 1.384 . S
N632 C628 1.427 . S
N632 C629 1.384 . S
N633 C625 1.427 . S
N633 C631 1.384 . S
H634 C640 0.930 . S
H635 C644 0.930 . S
H636 C649 0.929 . S
H637 C647 0.929 . S
H638 C642 0.929 . S
H639 C648 0.929 . S
C640 H634 0.930 . S
C640 C641 1.367 . S
C640 C648 1.378 . S
C641 C640 1.367 . S
C641 C649 1.433 . S
C642 H638 0.929 . S
C642 C644 1.378 . S
C642 C646 1.350 . S
C643 C646 1.463 . S
C643 C648 1.350 . S
C643 N651 1.427 . S
C644 H635 0.930 . S
C644 C642 1.378 . S
C644 C645 1.367 . S
C645 C644 1.367 . S
C645 C647 1.433 . S
C646 C642 1.350 . S
C646 C643 1.463 . S
C646 N650 1.427 . S
C647 H637 0.929 . S
C647 C645 1.433 . S
C647 N650 1.384 . S
C648 H639 0.929 . S
C648 C640 1.378 . S
C648 C643 1.350 . S
C649 H636 0.929 . S
C649 C641 1.433 . S
C649 N651 1.384 . S
N650 C646 1.427 . S
N650 C647 1.384 . S
N651 C643 1.427 . S
N651 C649 1.384 . S
H652 C658 0.930 . S
H653 C662 0.930 . S
H654 C667 0.929 . S
H655 C665 0.929 . S
H656 C660 0.929 . S
H657 C666 0.929 . S
C658 H652 0.930 . S
C658 C659 1.367 . S
C658 C666 1.378 . S
C659 C658 1.367 . S
C659 C667 1.433 . S
C660 H656 0.929 . S
C660 C662 1.378 . S
C660 C664 1.350 . S
C661 C664 1.463 . S
C661 C666 1.350 . S
C661 N669 1.427 . S
C662 H653 0.930 . S
C662 C660 1.378 . S
C662 C663 1.367 . S
C663 C662 1.367 . S
C663 C665 1.433 . S
C664 C660 1.350 . S
C664 C661 1.463 . S
C664 N668 1.427 . S
C665 H655 0.929 . S
C665 C663 1.433 . S
C665 N668 1.384 . S
C666 H657 0.929 . S
C666 C658 1.378 . S
C666 C661 1.350 . S
C667 H654 0.929 . S
C667 C659 1.433 . S
C667 N669 1.384 . S
N668 C664 1.427 . S
N668 C665 1.384 . S
N669 C661 1.427 . S
N669 C667 1.384 . S
H670 C676 0.930 . S
H671 C680 0.930 . S
H672 C685 0.929 . S
H673 C683 0.929 . S
H674 C678 0.929 . S
H675 C684 0.929 . S
C676 H670 0.930 . S
C676 C677 1.367 . S
C676 C684 1.378 . S
C677 C676 1.367 . S
C677 C685 1.433 . S
C678 H674 0.929 . S
C678 C680 1.378 . S
C678 C682 1.350 . S
C679 C682 1.463 . S
C679 C684 1.350 . S
C679 N687 1.427 . S
C680 H671 0.930 . S
C680 C678 1.378 . S
C680 C681 1.367 . S
C681 C680 1.367 . S
C681 C683 1.433 . S
C682 C678 1.350 . S
C682 C679 1.463 . S
C682 N686 1.427 . S
C683 H673 0.929 . S
C683 C681 1.433 . S
C683 N686 1.384 . S
C684 H675 0.929 . S
C684 C676 1.378 . S
C684 C679 1.350 . S
C685 H672 0.929 . S
C685 C677 1.433 . S
C685 N687 1.384 . S
N686 C682 1.427 . S
N686 C683 1.384 . S
N687 C679 1.427 . S
N687 C685 1.384 . S
H688 C694 0.930 . S
H689 C698 0.930 . S
H690 C703 0.929 1_565 S
H691 C701 0.929 . S
H692 C696 0.929 . S
H693 C702 0.929 . S
C694 H688 0.930 . S
C694 C695 1.367 . S
C694 C702 1.378 . S
C695 C694 1.367 . S
C695 C703 1.433 . S
C696 H692 0.929 . S
C696 C698 1.378 . S
C696 C700 1.350 . S
C697 C700 1.463 . S
C697 C702 1.350 . S
C697 N705 1.427 . S
C698 H689 0.930 . S
C698 C696 1.378 . S
C698 C699 1.367 . S
C699 C698 1.367 . S
C699 C701 1.433 . S
C700 C696 1.350 . S
C700 C697 1.463 . S
C700 N704 1.427 . S
C701 H691 0.929 . S
C701 C699 1.433 . S
C701 N704 1.384 . S
C702 H693 0.929 . S
C702 C694 1.378 . S
C702 C697 1.350 . S
C703 H690 0.929 1_545 S
C703 C695 1.433 . S
C703 N705 1.384 . S
N704 C700 1.427 . S
N704 C701 1.384 . S
N705 C697 1.427 . S
N705 C703 1.384 . S
H706 C712 0.930 . S
H707 C716 0.930 . S
H708 C721 0.929 . S
H709 C719 0.929 . S
H710 C714 0.929 . S
H711 C720 0.929 . S
C712 H706 0.930 . S
C712 C713 1.367 . S
C712 C720 1.378 . S
C713 C712 1.367 . S
C713 C721 1.433 . S
C714 H710 0.929 . S
C714 C716 1.378 . S
C714 C718 1.350 . S
C715 C718 1.463 . S
C715 C720 1.350 . S
C715 N723 1.427 . S
C716 H707 0.930 . S
C716 C714 1.378 . S
C716 C717 1.367 . S
C717 C716 1.367 . S
C717 C719 1.433 . S
C718 C714 1.350 . S
C718 C715 1.463 . S
C718 N722 1.427 . S
C719 H709 0.929 . S
C719 C717 1.433 . S
C719 N722 1.384 . S
C720 H711 0.929 . S
C720 C712 1.378 . S
C720 C715 1.350 . S
C721 H708 0.929 . S
C721 C713 1.433 . S
C721 N723 1.384 . S
N722 C718 1.427 . S
N722 C719 1.384 . S
N723 C715 1.427 . S
N723 C721 1.384 . S
H724 C730 0.930 . S
H725 C734 0.930 . S
H726 C739 0.929 . S
H727 C737 0.929 . S
H728 C732 0.929 . S
H729 C738 0.929 . S
C730 H724 0.930 . S
C730 C731 1.367 . S
C730 C738 1.378 . S
C731 C730 1.367 . S
C731 C739 1.433 . S
C732 H728 0.929 . S
C732 C734 1.378 . S
C732 C736 1.350 . S
C733 C736 1.463 . S
C733 C738 1.350 . S
C733 N741 1.427 . S
C734 H725 0.930 . S
C734 C732 1.378 . S
C734 C735 1.367 . S
C735 C734 1.367 . S
C735 C737 1.433 . S
C736 C732 1.350 . S
C736 C733 1.463 . S
C736 N740 1.427 . S
C737 H727 0.929 . S
C737 C735 1.433 . S
C737 N740 1.384 . S
C738 H729 0.929 . S
C738 C730 1.378 . S
C738 C733 1.350 . S
C739 H726 0.929 . S
C739 C731 1.433 . S
C739 N741 1.384 . S
N740 C736 1.427 . S
N740 C737 1.384 . S
N741 C733 1.427 . S
N741 C739 1.384 . S
H742 C748 0.930 . S
H743 C752 0.930 . S
H744 C757 0.929 . S
H745 C755 0.929 1_655 S
H746 C750 0.929 . S
H747 C756 0.929 . S
C748 H742 0.930 . S
C748 C749 1.367 . S
C748 C756 1.378 . S
C749 C748 1.367 . S
C749 C757 1.433 . S
C750 H746 0.929 . S
C750 C752 1.378 . S
C750 C754 1.350 . S
C751 C754 1.463 . S
C751 C756 1.350 . S
C751 N759 1.427 . S
C752 H743 0.930 . S
C752 C750 1.378 . S
C752 C753 1.367 . S
C753 C752 1.367 . S
C753 C755 1.433 . S
C754 C750 1.350 . S
C754 C751 1.463 . S
C754 N758 1.427 . S
C755 H745 0.929 1_455 S
C755 C753 1.433 . S
C755 N758 1.384 . S
C756 H747 0.929 . S
C756 C748 1.378 . S
C756 C751 1.350 . S
C757 H744 0.929 . S
C757 C749 1.433 . S
C757 N759 1.384 . S
N758 C754 1.427 . S
N758 C755 1.384 . S
N759 C751 1.427 . S
N759 C757 1.384 . S
H760 C766 0.930 . S
H761 C770 0.930 . S
H762 C775 0.929 . S
H763 C773 0.929 . S
H764 C768 0.929 . S
H765 C774 0.929 . S
C766 H760 0.930 . S
C766 C767 1.367 . S
C766 C774 1.378 . S
C767 C766 1.367 . S
C767 C775 1.433 . S
C768 H764 0.929 . S
C768 C770 1.378 . S
C768 C772 1.350 . S
C769 C772 1.463 . S
C769 C774 1.350 . S
C769 N777 1.427 . S
C770 H761 0.930 . S
C770 C768 1.378 . S
C770 C771 1.367 . S
C771 C770 1.367 . S
C771 C773 1.433 . S
C772 C768 1.350 . S
C772 C769 1.463 . S
C772 N776 1.427 . S
C773 H763 0.929 . S
C773 C771 1.433 . S
C773 N776 1.384 . S
C774 H765 0.929 . S
C774 C766 1.378 . S
C774 C769 1.350 . S
C775 H762 0.929 . S
C775 C767 1.433 . S
C775 N777 1.384 . S
N776 C772 1.427 . S
N776 C773 1.384 . S
N777 C769 1.427 . S
N777 C775 1.384 . S
H778 C784 0.930 . S
H779 C788 0.930 . S
H780 C793 0.929 . S
H781 C791 0.929 . S
H782 C786 0.929 . S
H783 C792 0.929 . S
C784 H778 0.930 . S
C784 C785 1.367 . S
C784 C792 1.378 . S
C785 C784 1.367 . S
C785 C793 1.433 . S
C786 H782 0.929 . S
C786 C788 1.378 . S
C786 C790 1.350 . S
C787 C790 1.463 . S
C787 C792 1.350 . S
C787 N795 1.427 . S
C788 H779 0.930 . S
C788 C786 1.378 . S
C788 C789 1.367 . S
C789 C788 1.367 . S
C789 C791 1.433 . S
C790 C786 1.350 . S
C790 C787 1.463 . S
C790 N794 1.427 . S
C791 H781 0.929 . S
C791 C789 1.433 . S
C791 N794 1.384 . S
C792 H783 0.929 . S
C792 C784 1.378 . S
C792 C787 1.350 . S
C793 H780 0.929 . S
C793 C785 1.433 . S
C793 N795 1.384 . S
N794 C790 1.427 . S
N794 C791 1.384 . S
N795 C787 1.427 . S
N795 C793 1.384 . S
H796 C802 0.930 . S
H797 C806 0.930 . S
H798 C811 0.929 . S
H799 C809 0.929 . S
H800 C804 0.929 . S
H801 C810 0.929 . S
C802 H796 0.930 . S
C802 C803 1.367 . S
C802 C810 1.378 . S
C803 C802 1.367 . S
C803 C811 1.433 . S
C804 H800 0.929 . S
C804 C806 1.378 . S
C804 C808 1.350 . S
C805 C808 1.463 . S
C805 C810 1.350 . S
C805 N813 1.427 . S
C806 H797 0.930 . S
C806 C804 1.378 . S
C806 C807 1.367 . S
C807 C806 1.367 . S
C807 C809 1.433 . S
C808 C804 1.350 . S
C808 C805 1.463 . S
C808 N812 1.427 . S
C809 H799 0.929 . S
C809 C807 1.433 . S
C809 N812 1.384 . S
C810 H801 0.929 . S
C810 C802 1.378 . S
C810 C805 1.350 . S
C811 H798 0.929 . S
C811 C803 1.433 . S
C811 N813 1.384 . S
N812 C808 1.427 . S
N812 C809 1.384 . S
N813 C805 1.427 . S
N813 C811 1.384 . S
H814 C820 0.930 . S
H815 C824 0.930 . S
H816 C829 0.929 . S
H817 C827 0.929 . S
H818 C822 0.929 . S
H819 C828 0.929 . S
C820 H814 0.930 . S
C820 C821 1.367 . S
C820 C828 1.378 . S
C821 C820 1.367 . S
C821 C829 1.433 . S
C822 H818 0.929 . S
C822 C824 1.378 . S
C822 C826 1.350 . S
C823 C826 1.463 . S
C823 C828 1.350 . S
C823 N831 1.427 . S
C824 H815 0.930 . S
C824 C822 1.378 . S
C824 C825 1.367 . S
C825 C824 1.367 . S
C825 C827 1.433 . S
C826 C822 1.350 . S
C826 C823 1.463 . S
C826 N830 1.427 . S
C827 H817 0.929 . S
C827 C825 1.433 . S
C827 N830 1.384 . S
C828 H819 0.929 . S
C828 C820 1.378 . S
C828 C823 1.350 . S
C829 H816 0.929 . S
C829 C821 1.433 . S
C829 N831 1.384 . S
N830 C826 1.427 . S
N830 C827 1.384 . S
N831 C823 1.427 . S
N831 C829 1.384 . S
H832 C838 0.930 . S
H833 C842 0.930 1_545 S
H834 C847 0.929 . S
H835 C845 0.929 . S
H836 C840 0.929 . S
H837 C846 0.929 . S
C838 H832 0.930 . S
C838 C839 1.367 . S
C838 C846 1.378 . S
C839 C838 1.367 . S
C839 C847 1.433 . S
C840 H836 0.929 . S
C840 C842 1.378 . S
C840 C844 1.350 . S
C841 C844 1.463 . S
C841 C846 1.350 . S
C841 N849 1.427 . S
C842 H833 0.930 1_565 S
C842 C840 1.378 . S
C842 C843 1.367 . S
C843 C842 1.367 . S
C843 C845 1.433 . S
C844 C840 1.350 . S
C844 C841 1.463 . S
C844 N848 1.427 . S
C845 H835 0.929 . S
C845 C843 1.433 . S
C845 N848 1.384 . S
C846 H837 0.929 . S
C846 C838 1.378 . S
C846 C841 1.350 . S
C847 H834 0.929 . S
C847 C839 1.433 . S
C847 N849 1.384 . S
N848 C844 1.427 . S
N848 C845 1.384 . S
N849 C841 1.427 . S
N849 C847 1.384 . S
H850 C856 0.930 . S
H851 C860 0.930 . S
H852 C865 0.929 . S
H853 C863 0.929 1_655 S
H854 C858 0.929 . S
H855 C864 0.929 . S
C856 H850 0.930 . S
C856 C857 1.367 . S
C856 C864 1.378 . S
C857 C856 1.367 . S
C857 C865 1.433 . S
C858 H854 0.929 . S
C858 C860 1.378 . S
C858 C862 1.350 . S
C859 C862 1.463 . S
C859 C864 1.350 . S
C859 N867 1.427 . S
C860 H851 0.930 . S
C860 C858 1.378 . S
C860 C861 1.367 . S
C861 C860 1.367 . S
C861 C863 1.433 . S
C862 C858 1.350 . S
C862 C859 1.463 . S
C862 N866 1.427 . S
C863 H853 0.929 1_455 S
C863 C861 1.433 . S
C863 N866 1.384 . S
C864 H855 0.929 . S
C864 C856 1.378 . S
C864 C859 1.350 . S
C865 H852 0.929 . S
C865 C857 1.433 . S
C865 N867 1.384 . S
N866 C862 1.427 . S
N866 C863 1.384 . S
N867 C859 1.427 . S
N867 C865 1.384 . S
H868 C874 0.930 . S
H869 C878 0.930 . S
H870 C883 0.929 . S
H871 C881 0.929 . S
H872 C876 0.929 . S
H873 C882 0.929 . S
C874 H868 0.930 . S
C874 C875 1.367 . S
C874 C882 1.378 . S
C875 C874 1.367 . S
C875 C883 1.433 . S
C876 H872 0.929 . S
C876 C878 1.378 . S
C876 C880 1.350 . S
C877 C880 1.463 . S
C877 C882 1.350 . S
C877 N885 1.427 . S
C878 H869 0.930 . S
C878 C876 1.378 . S
C878 C879 1.367 . S
C879 C878 1.367 . S
C879 C881 1.433 . S
C880 C876 1.350 . S
C880 C877 1.463 . S
C880 N884 1.427 . S
C881 H871 0.929 . S
C881 C879 1.433 . S
C881 N884 1.384 . S
C882 H873 0.929 . S
C882 C874 1.378 . S
C882 C877 1.350 . S
C883 H870 0.929 . S
C883 C875 1.433 . S
C883 N885 1.384 . S
N884 C880 1.427 . S
N884 C881 1.384 . S
N885 C877 1.427 . S
N885 C883 1.384 . S
H886 C892 0.930 . S
H887 C896 0.930 . S
H888 C901 0.929 . S
H889 C899 0.929 . S
H890 C894 0.929 . S
H891 C900 0.929 . S
C892 H886 0.930 . S
C892 C893 1.367 . S
C892 C900 1.378 . S
C893 C892 1.367 . S
C893 C901 1.433 . S
C894 H890 0.929 . S
C894 C896 1.378 . S
C894 C898 1.350 . S
C895 C898 1.463 . S
C895 C900 1.350 . S
C895 N903 1.427 . S
C896 H887 0.930 . S
C896 C894 1.378 . S
C896 C897 1.367 . S
C897 C896 1.367 . S
C897 C899 1.433 . S
C898 C894 1.350 . S
C898 C895 1.463 . S
C898 N902 1.427 . S
C899 H889 0.929 . S
C899 C897 1.433 . S
C899 N902 1.384 . S
C900 H891 0.929 . S
C900 C892 1.378 . S
C900 C895 1.350 . S
C901 H888 0.929 . S
C901 C893 1.433 . S
C901 N903 1.384 . S
N902 C898 1.427 . S
N902 C899 1.384 . S
N903 C895 1.427 . S
N903 C901 1.384 . S
H904 C910 0.930 . S
H905 C914 0.930 . S
H906 C919 0.929 . S
H907 C917 0.929 . S
H908 C912 0.929 . S
H909 C918 0.929 . S
C910 H904 0.930 . S
C910 C911 1.367 . S
C910 C918 1.378 . S
C911 C910 1.367 . S
C911 C919 1.433 . S
C912 H908 0.929 . S
C912 C914 1.378 . S
C912 C916 1.350 . S
C913 C916 1.463 . S
C913 C918 1.350 . S
C913 N921 1.427 . S
C914 H905 0.930 . S
C914 C912 1.378 . S
C914 C915 1.367 . S
C915 C914 1.367 . S
C915 C917 1.433 . S
C916 C912 1.350 . S
C916 C913 1.463 . S
C916 N920 1.427 . S
C917 H907 0.929 . S
C917 C915 1.433 . S
C917 N920 1.384 . S
C918 H909 0.929 . S
C918 C910 1.378 . S
C918 C913 1.350 . S
C919 H906 0.929 . S
C919 C911 1.433 . S
C919 N921 1.384 . S
N920 C916 1.427 . S
N920 C917 1.384 . S
N921 C913 1.427 . S
N921 C919 1.384 . S
H922 C928 0.930 . S
H923 C932 0.930 . S
H924 C937 0.929 . S
H925 C935 0.929 . S
H926 C930 0.929 . S
H927 C936 0.929 . S
C928 H922 0.930 . S
C928 C929 1.367 . S
C928 C936 1.378 . S
C929 C928 1.367 . S
C929 C937 1.433 . S
C930 H926 0.929 . S
C930 C932 1.378 . S
C930 C934 1.350 . S
C931 C934 1.463 . S
C931 C936 1.350 . S
C931 N939 1.427 . S
C932 H923 0.930 . S
C932 C930 1.378 . S
C932 C933 1.367 . S
C933 C932 1.367 . S
C933 C935 1.433 . S
C934 C930 1.350 . S
C934 C931 1.463 . S
C934 N938 1.427 . S
C935 H925 0.929 . S
C935 C933 1.433 . S
C935 N938 1.384 . S
C936 H927 0.929 . S
C936 C928 1.378 . S
C936 C931 1.350 . S
C937 H924 0.929 . S
C937 C929 1.433 . S
C937 N939 1.384 . S
N938 C934 1.427 . S
N938 C935 1.384 . S
N939 C931 1.427 . S
N939 C937 1.384 . S
H940 C946 0.930 . S
H941 C950 0.930 . S
H942 C955 0.929 . S
H943 C953 0.929 . S
H944 C948 0.929 . S
H945 C954 0.929 . S
C946 H940 0.930 . S
C946 C947 1.367 . S
C946 C954 1.378 . S
C947 C946 1.367 . S
C947 C955 1.433 . S
C948 H944 0.929 . S
C948 C950 1.378 . S
C948 C952 1.350 . S
C949 C952 1.463 . S
C949 C954 1.350 . S
C949 N957 1.427 . S
C950 H941 0.930 . S
C950 C948 1.378 . S
C950 C951 1.367 . S
C951 C950 1.367 . S
C951 C953 1.433 . S
C952 C948 1.350 . S
C952 C949 1.463 . S
C952 N956 1.427 . S
C953 H943 0.929 . S
C953 C951 1.433 . S
C953 N956 1.384 . S
C954 H945 0.929 . S
C954 C946 1.378 . S
C954 C949 1.350 . S
C955 H942 0.929 . S
C955 C947 1.433 . S
C955 N957 1.384 . S
N956 C952 1.427 . S
N956 C953 1.384 . S
N957 C949 1.427 . S
N957 C955 1.384 . S
H958 C964 0.930 . S
H959 C968 0.930 . S
H960 C973 0.929 . S
H961 C971 0.929 . S
H962 C966 0.929 . S
H963 C972 0.929 . S
C964 H958 0.930 . S
C964 C965 1.367 . S
C964 C972 1.378 . S
C965 C964 1.367 . S
C965 C973 1.433 . S
C966 H962 0.929 . S
C966 C968 1.378 . S
C966 C970 1.350 . S
C967 C970 1.463 . S
C967 C972 1.350 . S
C967 N975 1.427 . S
C968 H959 0.930 . S
C968 C966 1.378 . S
C968 C969 1.367 . S
C969 C968 1.367 . S
C969 C971 1.433 . S
C970 C966 1.350 . S
C970 C967 1.463 . S
C970 N974 1.427 . S
C971 H961 0.929 . S
C971 C969 1.433 . S
C971 N974 1.384 . S
C972 H963 0.929 . S
C972 C964 1.378 . S
C972 C967 1.350 . S
C973 H960 0.929 . S
C973 C965 1.433 . S
C973 N975 1.384 . S
N974 C970 1.427 . S
N974 C971 1.384 . S
N975 C967 1.427 . S
N975 C973 1.384 . S
H976 C982 0.930 . S
H977 C986 0.930 . S
H978 C991 0.929 . S
H979 C989 0.929 . S
H980 C984 0.929 . S
H981 C990 0.929 . S
C982 H976 0.930 . S
C982 C983 1.367 . S
C982 C990 1.378 . S
C983 C982 1.367 . S
C983 C991 1.433 . S
C984 H980 0.929 . S
C984 C986 1.378 . S
C984 C988 1.350 . S
C985 C988 1.463 . S
C985 C990 1.350 . S
C985 N993 1.427 . S
C986 H977 0.930 . S
C986 C984 1.378 . S
C986 C987 1.367 . S
C987 C986 1.367 . S
C987 C989 1.433 . S
C988 C984 1.350 . S
C988 C985 1.463 . S
C988 N992 1.427 . S
C989 H979 0.929 . S
C989 C987 1.433 . S
C989 N992 1.384 . S
C990 H981 0.929 . S
C990 C982 1.378 . S
C990 C985 1.350 . S
C991 H978 0.929 . S
C991 C983 1.433 . S
C991 N993 1.384 . S
N992 C988 1.427 . S
N992 C989 1.384 . S
N993 C985 1.427 . S
N993 C991 1.384 . S
H994 C1000 0.930 . S
H995 C1004 0.930 . S
H996 C1009 0.929 . S
H997 C1007 0.929 . S
H998 C1002 0.929 . S
H999 C1008 0.929 . S
C1000 H994 0.930 . S
C1000 C1001 1.367 . S
C1000 C1008 1.378 . S
C1001 C1000 1.367 . S
C1001 C1009 1.433 . S
C1002 H998 0.929 . S
C1002 C1004 1.378 . S
C1002 C1006 1.350 . S
C1003 C1006 1.463 . S
C1003 C1008 1.350 . S
C1003 N1011 1.427 . S
C1004 H995 0.930 . S
C1004 C1002 1.378 . S
C1004 C1005 1.367 . S
C1005 C1004 1.367 . S
C1005 C1007 1.433 . S
C1006 C1002 1.350 . S
C1006 C1003 1.463 . S
C1006 N1010 1.427 . S
C1007 H997 0.929 . S
C1007 C1005 1.433 . S
C1007 N1010 1.384 . S
C1008 H999 0.929 . S
C1008 C1000 1.378 . S
C1008 C1003 1.350 . S
C1009 H996 0.929 . S
C1009 C1001 1.433 . S
C1009 N1011 1.384 . S
N1010 C1006 1.427 . S
N1010 C1007 1.384 . S
N1011 C1003 1.427 . S
N1011 C1009 1.384 . S
H1012 C1018 0.930 . S
H1013 C1022 0.930 . S
H1014 C1027 0.929 . S
H1015 C1025 0.929 . S
H1016 C1020 0.929 . S
H1017 C1026 0.929 . S
C1018 H1012 0.930 . S
C1018 C1019 1.367 . S
C1018 C1026 1.378 . S
C1019 C1018 1.367 . S
C1019 C1027 1.433 . S
C1020 H1016 0.929 . S
C1020 C1022 1.378 . S
C1020 C1024 1.350 . S
C1021 C1024 1.463 . S
C1021 C1026 1.350 . S
C1021 N1029 1.427 . S
C1022 H1013 0.930 . S
C1022 C1020 1.378 . S
C1022 C1023 1.367 . S
C1023 C1022 1.367 . S
C1023 C1025 1.433 . S
C1024 C1020 1.350 . S
C1024 C1021 1.463 . S
C1024 N1028 1.427 . S
C1025 H1015 0.929 . S
C1025 C1023 1.433 . S
C1025 N1028 1.384 . S
C1026 H1017 0.929 . S
C1026 C1018 1.378 . S
C1026 C1021 1.350 . S
C1027 H1014 0.929 . S
C1027 C1019 1.433 . S
C1027 N1029 1.384 . S
N1028 C1024 1.427 . S
N1028 C1025 1.384 . S
N1029 C1021 1.427 . S
N1029 C1027 1.384 . S
H1030 C1036 0.930 . S
H1031 C1040 0.930 . S
H1032 C1045 0.929 . S
H1033 C1043 0.929 . S
H1034 C1038 0.929 . S
H1035 C1044 0.929 . S
C1036 H1030 0.930 . S
C1036 C1037 1.367 . S
C1036 C1044 1.378 . S
C1037 C1036 1.367 . S
C1037 C1045 1.433 . S
C1038 H1034 0.929 . S
C1038 C1040 1.378 . S
C1038 C1042 1.350 . S
C1039 C1042 1.463 . S
C1039 C1044 1.350 . S
C1039 N1047 1.427 . S
C1040 H1031 0.930 . S
C1040 C1038 1.378 . S
C1040 C1041 1.367 . S
C1041 C1040 1.367 . S
C1041 C1043 1.433 . S
C1042 C1038 1.350 . S
C1042 C1039 1.463 . S
C1042 N1046 1.427 . S
C1043 H1033 0.929 . S
C1043 C1041 1.433 . S
C1043 N1046 1.384 . S
C1044 H1035 0.929 . S
C1044 C1036 1.378 . S
C1044 C1039 1.350 . S
C1045 H1032 0.929 . S
C1045 C1037 1.433 . S
C1045 N1047 1.384 . S
N1046 C1042 1.427 . S
N1046 C1043 1.384 . S
N1047 C1039 1.427 . S
N1047 C1045 1.384 . S
H1048 C1054 0.930 . S
H1049 C1058 0.930 . S
H1050 C1063 0.929 . S
H1051 C1061 0.929 . S
H1052 C1056 0.929 . S
H1053 C1062 0.929 . S
C1054 H1048 0.930 . S
C1054 C1055 1.367 . S
C1054 C1062 1.378 . S
C1055 C1054 1.367 . S
C1055 C1063 1.433 . S
C1056 H1052 0.929 . S
C1056 C1058 1.378 . S
C1056 C1060 1.350 . S
C1057 C1060 1.463 . S
C1057 C1062 1.350 . S
C1057 N1065 1.427 . S
C1058 H1049 0.930 . S
C1058 C1056 1.378 . S
C1058 C1059 1.367 . S
C1059 C1058 1.367 . S
C1059 C1061 1.433 . S
C1060 C1056 1.350 . S
C1060 C1057 1.463 . S
C1060 N1064 1.427 . S
C1061 H1051 0.929 . S
C1061 C1059 1.433 . S
C1061 N1064 1.384 . S
C1062 H1053 0.929 . S
C1062 C1054 1.378 . S
C1062 C1057 1.350 . S
C1063 H1050 0.929 . S
C1063 C1055 1.433 . S
C1063 N1065 1.384 . S
N1064 C1060 1.427 . S
N1064 C1061 1.384 . S
N1065 C1057 1.427 . S
N1065 C1063 1.384 . S
H1066 C1072 0.930 . S
H1067 C1076 0.930 . S
H1068 C1081 0.929 . S
H1069 C1079 0.929 . S
H1070 C1074 0.929 . S
H1071 C1080 0.929 . S
C1072 H1066 0.930 . S
C1072 C1073 1.367 . S
C1072 C1080 1.378 . S
C1073 C1072 1.367 . S
C1073 C1081 1.433 . S
C1074 H1070 0.929 . S
C1074 C1076 1.378 . S
C1074 C1078 1.350 . S
C1075 C1078 1.463 . S
C1075 C1080 1.350 . S
C1075 N1083 1.427 . S
C1076 H1067 0.930 . S
C1076 C1074 1.378 . S
C1076 C1077 1.367 . S
C1077 C1076 1.367 . S
C1077 C1079 1.433 . S
C1078 C1074 1.350 . S
C1078 C1075 1.463 . S
C1078 N1082 1.427 . S
C1079 H1069 0.929 . S
C1079 C1077 1.433 . S
C1079 N1082 1.384 . S
C1080 H1071 0.929 . S
C1080 C1072 1.378 . S
C1080 C1075 1.350 . S
C1081 H1068 0.929 . S
C1081 C1073 1.433 . S
C1081 N1083 1.384 . S
N1082 C1078 1.427 . S
N1082 C1079 1.384 . S
N1083 C1075 1.427 . S
N1083 C1081 1.384 . S
H1084 C1090 0.930 . S
H1085 C1094 0.930 . S
H1086 C1099 0.929 . S
H1087 C1097 0.929 . S
H1088 C1092 0.929 . S
H1089 C1098 0.929 . S
C1090 H1084 0.930 . S
C1090 C1091 1.367 . S
C1090 C1098 1.378 . S
C1091 C1090 1.367 . S
C1091 C1099 1.433 . S
C1092 H1088 0.929 . S
C1092 C1094 1.378 . S
C1092 C1096 1.350 . S
C1093 C1096 1.463 . S
C1093 C1098 1.350 . S
C1093 N1101 1.427 . S
C1094 H1085 0.930 . S
C1094 C1092 1.378 . S
C1094 C1095 1.367 . S
C1095 C1094 1.367 . S
C1095 C1097 1.433 . S
C1096 C1092 1.350 . S
C1096 C1093 1.463 . S
C1096 N1100 1.427 . S
C1097 H1087 0.929 . S
C1097 C1095 1.433 . S
C1097 N1100 1.384 . S
C1098 H1089 0.929 . S
C1098 C1090 1.378 . S
C1098 C1093 1.350 . S
C1099 H1086 0.929 . S
C1099 C1091 1.433 . S
C1099 N1101 1.384 . S
N1100 C1096 1.427 . S
N1100 C1097 1.384 . S
N1101 C1093 1.427 . S
N1101 C1099 1.384 . S
H1102 C1108 0.930 . S
H1103 C1112 0.930 . S
H1104 C1117 0.929 . S
H1105 C1115 0.929 . S
H1106 C1110 0.929 . S
H1107 C1116 0.929 . S
C1108 H1102 0.930 . S
C1108 C1109 1.367 . S
C1108 C1116 1.378 . S
C1109 C1108 1.367 . S
C1109 C1117 1.433 . S
C1110 H1106 0.929 . S
C1110 C1112 1.378 . S
C1110 C1114 1.350 . S
C1111 C1114 1.463 . S
C1111 C1116 1.350 . S
C1111 N1119 1.427 . S
C1112 H1103 0.930 . S
C1112 C1110 1.378 . S
C1112 C1113 1.367 . S
C1113 C1112 1.367 . S
C1113 C1115 1.433 . S
C1114 C1110 1.350 . S
C1114 C1111 1.463 . S
C1114 N1118 1.427 . S
C1115 H1105 0.929 . S
C1115 C1113 1.433 . S
C1115 N1118 1.384 . S
C1116 H1107 0.929 . S
C1116 C1108 1.378 . S
C1116 C1111 1.350 . S
C1117 H1104 0.929 . S
C1117 C1109 1.433 . S
C1117 N1119 1.384 . S
N1118 C1114 1.427 . S
N1118 C1115 1.384 . S
N1119 C1111 1.427 . S
N1119 C1117 1.384 . S
H1120 C1126 0.930 . S
H1121 C1130 0.930 . S
H1122 C1135 0.929 . S
H1123 C1133 0.929 . S
H1124 C1128 0.929 . S
H1125 C1134 0.929 . S
C1126 H1120 0.930 . S
C1126 C1127 1.367 . S
C1126 C1134 1.378 . S
C1127 C1126 1.367 . S
C1127 C1135 1.433 . S
C1128 H1124 0.929 . S
C1128 C1130 1.378 . S
C1128 C1132 1.350 . S
C1129 C1132 1.463 1_655 S
C1129 C1134 1.350 . S
C1129 N1137 1.427 . S
C1130 H1121 0.930 . S
C1130 C1128 1.378 . S
C1130 C1131 1.367 . S
C1131 C1130 1.367 . S
C1131 C1133 1.433 . S
C1132 C1128 1.350 . S
C1132 C1129 1.463 1_455 S
C1132 N1136 1.427 . S
C1133 H1123 0.929 . S
C1133 C1131 1.433 . S
C1133 N1136 1.384 . S
C1134 H1125 0.929 . S
C1134 C1126 1.378 . S
C1134 C1129 1.350 . S
C1135 H1122 0.929 . S
C1135 C1127 1.433 . S
C1135 N1137 1.384 . S
N1136 C1132 1.427 . S
N1136 C1133 1.384 . S
N1137 C1129 1.427 . S
N1137 C1135 1.384 . S
H1138 C1144 0.930 . S
H1139 C1148 0.930 . S
H1140 C1153 0.929 . S
H1141 C1151 0.929 . S
H1142 C1146 0.929 . S
H1143 C1152 0.929 . S
C1144 H1138 0.930 . S
C1144 C1145 1.367 . S
C1144 C1152 1.378 . S
C1145 C1144 1.367 . S
C1145 C1153 1.433 1_565 S
C1146 H1142 0.929 . S
C1146 C1148 1.378 . S
C1146 C1150 1.350 . S
C1147 C1150 1.463 1_565 S
C1147 C1152 1.350 . S
C1147 N1155 1.427 1_565 S
C1148 H1139 0.930 . S
C1148 C1146 1.378 . S
C1148 C1149 1.367 . S
C1149 C1148 1.367 . S
C1149 C1151 1.433 1_545 S
C1150 C1146 1.350 . S
C1150 C1147 1.463 1_545 S
C1150 N1154 1.427 1_545 S
C1151 H1141 0.929 . S
C1151 C1149 1.433 1_565 S
C1151 N1154 1.384 . S
C1152 H1143 0.929 . S
C1152 C1144 1.378 . S
C1152 C1147 1.350 . S
C1153 H1140 0.929 . S
C1153 C1145 1.433 1_545 S
C1153 N1155 1.384 . S
N1154 C1150 1.427 1_565 S
N1154 C1151 1.384 . S
N1155 C1147 1.427 1_545 S
N1155 C1153 1.384 . S
H1156 C1162 0.930 . S
H1157 C1166 0.930 . S
H1158 C1171 0.929 . S
H1159 C1169 0.929 . S
H1160 C1164 0.929 . S
H1161 C1170 0.929 . S
C1162 H1156 0.930 . S
C1162 C1163 1.367 . S
C1162 C1170 1.378 . S
C1163 C1162 1.367 . S
C1163 C1171 1.433 . S
C1164 H1160 0.929 . S
C1164 C1166 1.378 . S
C1164 C1168 1.350 . S
C1165 C1168 1.463 1_545 S
C1165 C1170 1.350 . S
C1165 N1173 1.427 . S
C1166 H1157 0.930 . S
C1166 C1164 1.378 . S
C1166 C1167 1.367 . S
C1167 C1166 1.367 . S
C1167 C1169 1.433 . S
C1168 C1164 1.350 . S
C1168 C1165 1.463 1_565 S
C1168 N1172 1.427 . S
C1169 H1159 0.929 . S
C1169 C1167 1.433 . S
C1169 N1172 1.384 . S
C1170 H1161 0.929 . S
C1170 C1162 1.378 . S
C1170 C1165 1.350 . S
C1171 H1158 0.929 . S
C1171 C1163 1.433 . S
C1171 N1173 1.384 . S
N1172 C1168 1.427 . S
N1172 C1169 1.384 . S
N1173 C1165 1.427 . S
N1173 C1171 1.384 . S
H1174 C1180 0.930 . S
H1175 C1184 0.930 . S
H1176 C1189 0.929 . S
H1177 C1187 0.929 . S
H1178 C1182 0.929 . S
H1179 C1188 0.929 . S
C1180 H1174 0.930 . S
C1180 C1181 1.367 . S
C1180 C1188 1.378 . S
C1181 C1180 1.367 . S
C1181 C1189 1.433 . S
C1182 H1178 0.929 . S
C1182 C1184 1.378 . S
C1182 C1186 1.350 . S
C1183 C1186 1.463 1_655 S
C1183 C1188 1.350 . S
C1183 N1191 1.427 . S
C1184 H1175 0.930 . S
C1184 C1182 1.378 . S
C1184 C1185 1.367 . S
C1185 C1184 1.367 . S
C1185 C1187 1.433 . S
C1186 C1182 1.350 . S
C1186 C1183 1.463 1_455 S
C1186 N1190 1.427 . S
C1187 H1177 0.929 . S
C1187 C1185 1.433 . S
C1187 N1190 1.384 . S
C1188 H1179 0.929 . S
C1188 C1180 1.378 . S
C1188 C1183 1.350 . S
C1189 H1176 0.929 . S
C1189 C1181 1.433 . S
C1189 N1191 1.384 . S
N1190 C1186 1.427 . S
N1190 C1187 1.384 . S
N1191 C1183 1.427 . S
N1191 C1189 1.384 . S
H1192 C1198 0.930 . S
H1193 C1202 0.930 . S
H1194 C1207 0.929 . S
H1195 C1205 0.929 . S
H1196 C1200 0.929 1_655 S
H1197 C1206 0.929 1_455 S
C1198 H1192 0.930 . S
C1198 C1199 1.367 . S
C1198 C1206 1.378 . S
C1199 C1198 1.367 . S
C1199 C1207 1.433 . S
C1200 H1196 0.929 1_455 S
C1200 C1202 1.378 . S
C1200 C1204 1.350 . S
C1201 C1204 1.463 1_655 S
C1201 C1206 1.350 . S
C1201 N1209 1.427 . S
C1202 H1193 0.930 . S
C1202 C1200 1.378 . S
C1202 C1203 1.367 . S
C1203 C1202 1.367 . S
C1203 C1205 1.433 . S
C1204 C1200 1.350 . S
C1204 C1201 1.463 1_455 S
C1204 N1208 1.427 . S
C1205 H1195 0.929 . S
C1205 C1203 1.433 . S
C1205 N1208 1.384 . S
C1206 H1197 0.929 1_655 S
C1206 C1198 1.378 . S
C1206 C1201 1.350 . S
C1207 H1194 0.929 . S
C1207 C1199 1.433 . S
C1207 N1209 1.384 . S
N1208 C1204 1.427 . S
N1208 C1205 1.384 . S
N1209 C1201 1.427 . S
N1209 C1207 1.384 . S
H1210 C1216 0.930 . S
H1211 C1220 0.930 . S
H1212 C1225 0.929 . S
H1213 C1223 0.929 . S
H1214 C1218 0.929 . S
H1215 C1224 0.929 . S
C1216 H1210 0.930 . S
C1216 C1217 1.367 . S
C1216 C1224 1.378 . S
C1217 C1216 1.367 . S
C1217 C1225 1.433 1_545 S
C1218 H1214 0.929 . S
C1218 C1220 1.378 . S
C1218 C1222 1.350 . S
C1219 C1222 1.463 1_545 S
C1219 C1224 1.350 . S
C1219 N1227 1.427 1_545 S
C1220 H1211 0.930 . S
C1220 C1218 1.378 . S
C1220 C1221 1.367 . S
C1221 C1220 1.367 . S
C1221 C1223 1.433 1_565 S
C1222 C1218 1.350 . S
C1222 C1219 1.463 1_565 S
C1222 N1226 1.427 1_565 S
C1223 H1213 0.929 . S
C1223 C1221 1.433 1_545 S
C1223 N1226 1.384 . S
C1224 H1215 0.929 . S
C1224 C1216 1.378 . S
C1224 C1219 1.350 . S
C1225 H1212 0.929 . S
C1225 C1217 1.433 1_565 S
C1225 N1227 1.384 . S
N1226 C1222 1.427 1_545 S
N1226 C1223 1.384 . S
N1227 C1219 1.427 1_565 S
N1227 C1225 1.384 . S
H1228 C1234 0.930 . S
H1229 C1238 0.930 . S
H1230 C1243 0.929 . S
H1231 C1241 0.929 . S
H1232 C1236 0.929 . S
H1233 C1242 0.929 . S
C1234 H1228 0.930 . S
C1234 C1235 1.367 . S
C1234 C1242 1.378 . S
C1235 C1234 1.367 . S
C1235 C1243 1.433 . S
C1236 H1232 0.929 . S
C1236 C1238 1.378 . S
C1236 C1240 1.350 . S
C1237 C1240 1.463 1_565 S
C1237 C1242 1.350 . S
C1237 N1245 1.427 . S
C1238 H1229 0.930 . S
C1238 C1236 1.378 . S
C1238 C1239 1.367 . S
C1239 C1238 1.367 . S
C1239 C1241 1.433 . S
C1240 C1236 1.350 . S
C1240 C1237 1.463 1_545 S
C1240 N1244 1.427 . S
C1241 H1231 0.929 . S
C1241 C1239 1.433 . S
C1241 N1244 1.384 . S
C1242 H1233 0.929 . S
C1242 C1234 1.378 . S
C1242 C1237 1.350 . S
C1243 H1230 0.929 . S
C1243 C1235 1.433 . S
C1243 N1245 1.384 . S
N1244 C1240 1.427 . S
N1244 C1241 1.384 . S
N1245 C1237 1.427 . S
N1245 C1243 1.384 . S
H1246 C1252 0.930 . S
H1247 C1256 0.930 . S
H1248 C1261 0.929 . S
H1249 C1259 0.929 . S
H1250 C1254 0.929 . S
H1251 C1260 0.929 . S
C1252 H1246 0.930 . S
C1252 C1253 1.367 . S
C1252 C1260 1.378 . S
C1253 C1252 1.367 . S
C1253 C1261 1.433 . S
C1254 H1250 0.929 . S
C1254 C1256 1.378 . S
C1254 C1258 1.350 . S
C1255 C1258 1.463 1_655 S
C1255 C1260 1.350 . S
C1255 N1263 1.427 . S
C1256 H1247 0.930 . S
C1256 C1254 1.378 . S
C1256 C1257 1.367 . S
C1257 C1256 1.367 . S
C1257 C1259 1.433 . S
C1258 C1254 1.350 . S
C1258 C1255 1.463 1_455 S
C1258 N1262 1.427 . S
C1259 H1249 0.929 . S
C1259 C1257 1.433 . S
C1259 N1262 1.384 . S
C1260 H1251 0.929 . S
C1260 C1252 1.378 . S
C1260 C1255 1.350 . S
C1261 H1248 0.929 . S
C1261 C1253 1.433 . S
C1261 N1263 1.384 . S
N1262 C1258 1.427 . S
N1262 C1259 1.384 . S
N1263 C1255 1.427 . S
N1263 C1261 1.384 . S
C551 C342 1.495 . S
C555 C2 1.494 . S
C569 C376 1.493 . S
C573 C36 1.496 . S
C587 C274 1.493 . S
C591 C70 1.495 . S
C605 C308 1.495 . S
C609 C104 1.493 . S
C623 C138 1.494 . S
C627 C478 1.494 . S
C641 C172 1.495 . S
C645 C512 1.493 . S
C659 C410 1.494 . S
C663 C206 1.494 . S
C677 C444 1.493 . S
C681 C240 1.495 . S
C695 C135 1.562 1_545 S
C699 C5 1.566 . S
C713 C39 1.564 . S
C717 C33 1.565 1_655 S
C731 C67 1.564 1_565 S
C735 C73 1.566 . S
C749 C107 1.566 . S
C753 C101 1.562 1_455 S
C767 C203 1.564 . S
C771 C141 1.565 . S
C785 C237 1.564 . S
C789 C175 1.565 . S
C803 C271 1.563 . S
C807 C209 1.566 . S
C821 C243 1.564 . S
C825 C169 1.564 . S
C839 C277 1.563 . S
C843 C407 1.566 1_565 S
C857 C311 1.567 . S
C861 C305 1.561 1_455 S
C875 C339 1.566 1_545 S
C879 C345 1.563 . S
C893 C379 1.567 . S
C897 C373 1.562 1_655 S
C911 C413 1.566 . S
C915 C475 1.563 . S
C929 C447 1.563 . S
C933 C509 1.566 . S
C947 C481 1.565 . S
C951 C543 1.564 . S
C965 C441 1.566 . S
C969 C515 1.563 . S
C983 C258 1.534 . S
C987 C20 1.535 . S
C1001 C54 1.535 . S
C1005 C156 1.534 . S
C1019 C190 1.535 . S
C1023 C88 1.535 . S
C1037 C224 1.532 . S
C1041 C122 1.533 . S
C1055 C292 1.532 . S
C1059 C530 1.532 . S
C1073 C428 1.535 . S
C1077 C326 1.535 . S
C1091 C360 1.535 . S
C1095 C462 1.535 . S
C1109 C496 1.535 . S
C1113 C394 1.534 . S
C1127 C77 1.208 . S
C1131 C9 1.219 . S
C1145 C111 1.222 . S
C1149 C43 1.218 . S
C1163 C145 1.219 . S
C1167 C213 1.221 . S
C1181 C179 1.202 . S
C1185 C247 1.209 . S
C1199 C281 1.204 . S
C1203 C349 1.215 . S
C1217 C383 1.222 . S
C1221 C315 1.218 . S
C1235 C417 1.213 . S
C1239 C485 1.222 . S
C1253 C519 1.212 . S
C1257 C451 1.221 . S
