# Generated by pormake.
# Topology ske, (6)-cn, num edge types: 1
# Building blocks:
#     Node 0, Type 0, BuildingBlock: CUWYAW_clean_sbu_0, # of connection points: 6
#     Node 1, Type 0, BuildingBlock: CUWYAW_clean_sbu_0, # of connection points: 6
#     Node 2, Type 0, BuildingBlock: CUWYAW_clean_sbu_0, # of connection points: 6
#     Node 3, Type 0, BuildingBlock: CUWYAW_clean_sbu_0, # of connection points: 6
#     Node 4, Type 0, BuildingBlock: CUWYAW_clean_sbu_0, # of connection points: 6
#     Node 5, Type 0, BuildingBlock: CUWYAW_clean_sbu_0, # of connection points: 6
#     Node 6, Type 0, BuildingBlock: CUWYAW_clean_sbu_0, # of connection points: 6
#     Node 7, Type 0, BuildingBlock: CUWYAW_clean_sbu_0, # of connection points: 6
#     Edge 8, Type (0, 0), BuildingBlock: EZIPEK_clean_linker_0, # of connection points: 2
#     Edge 9, Type (0, 0), BuildingBlock: EZIPEK_clean_linker_0, # of connection points: 2
#     Edge 10, Type (0, 0), BuildingBlock: EZIPEK_clean_linker_0, # of connection points: 2
#     Edge 11, Type (0, 0), BuildingBlock: EZIPEK_clean_linker_0, # of connection points: 2
#     Edge 12, Type (0, 0), BuildingBlock: EZIPEK_clean_linker_0, # of connection points: 2
#     Edge 13, Type (0, 0), BuildingBlock: EZIPEK_clean_linker_0, # of connection points: 2
#     Edge 14, Type (0, 0), BuildingBlock: EZIPEK_clean_linker_0, # of connection points: 2
#     Edge 15, Type (0, 0), BuildingBlock: EZIPEK_clean_linker_0, # of connection points: 2
#     Edge 16, Type (0, 0), BuildingBlock: EZIPEK_clean_linker_0, # of connection points: 2
#     Edge 17, Type (0, 0), BuildingBlock: EZIPEK_clean_linker_0, # of connection points: 2
#     Edge 18, Type (0, 0), BuildingBlock: EZIPEK_clean_linker_0, # of connection points: 2
#     Edge 19, Type (0, 0), BuildingBlock: EZIPEK_clean_linker_0, # of connection points: 2
#     Edge 20, Type (0, 0), BuildingBlock: EZIPEK_clean_linker_0, # of connection points: 2
#     Edge 21, Type (0, 0), BuildingBlock: EZIPEK_clean_linker_0, # of connection points: 2
#     Edge 22, Type (0, 0), BuildingBlock: EZIPEK_clean_linker_0, # of connection points: 2
#     Edge 23, Type (0, 0), BuildingBlock: EZIPEK_clean_linker_0, # of connection points: 2
#     Edge 24, Type (0, 0), BuildingBlock: EZIPEK_clean_linker_0, # of connection points: 2
#     Edge 25, Type (0, 0), BuildingBlock: EZIPEK_clean_linker_0, # of connection points: 2
#     Edge 26, Type (0, 0), BuildingBlock: EZIPEK_clean_linker_0, # of connection points: 2
#     Edge 27, Type (0, 0), BuildingBlock: EZIPEK_clean_linker_0, # of connection points: 2
#     Edge 28, Type (0, 0), BuildingBlock: EZIPEK_clean_linker_0, # of connection points: 2
#     Edge 29, Type (0, 0), BuildingBlock: EZIPEK_clean_linker_0, # of connection points: 2
#     Edge 30, Type (0, 0), BuildingBlock: EZIPEK_clean_linker_0, # of connection points: 2
#     Edge 31, Type (0, 0), BuildingBlock: EZIPEK_clean_linker_0, # of connection points: 2
# Relax obj value: 0.180
# Max RMSD: 0.199
# Mean RMSD: 0.191
data_MOF--net-ske--node1-CUWYAW_clean_sbu_0--edge1-EZIPEK_clean_linker_0
_symmetry_space_group_name_H-M    P1
_symmetry_Int_Tables_number       1
_symmetry_cell_setting            triclinic
loop_
_symmetry_equiv_pos_as_xyz
'x, y, z'
_cell_length_a     87.299629
_cell_length_b     21.252603
_cell_length_c     11.572315
_cell_angle_alpha  90.254993
_cell_angle_beta   90.164952
_cell_angle_gamma 97.489079
loop_
_atom_site_label
_atom_site_type_symbol
_atom_site_fract_x
_atom_site_fract_y
_atom_site_fract_z
_atom_type_partial_charge
C0 C 0.1955 0.2445 0.51556 0.0
Eu1 Eu 0.16649 0.26174 0.49726 0.0
C2 C 0.21012 0.24557 0.58107 0.0
C3 C 0.21703 0.30009 0.63999 0.0
C4 C 0.23193 0.30194 0.68707 0.0
C5 C 0.24015 0.24964 0.67488 0.0
C6 C 0.23308 0.19479 0.61869 0.0
C7 C 0.2182 0.19279 0.57242 0.0
C8 C 0.15454 0.37442 0.48418 0.0
C9 C 0.14879 0.25714 0.7456 0.0
C10 C 0.1027 0.25531 0.46536 0.0
Eu11 Eu 0.13185 0.24845 0.49688 0.0
C12 C 0.08599 0.25629 0.44593 0.0
C13 C 0.07663 0.20074 0.40963 0.0
C14 C 0.06074 0.20033 0.39461 0.0
C15 C 0.05393 0.25542 0.41561 0.0
C16 C 0.06325 0.3114 0.44931 0.0
C17 C 0.07919 0.31186 0.46435 0.0
C18 C 0.14261 0.13665 0.53281 0.0
C19 C 0.15059 0.25644 0.25035 0.0
O20 O 0.18405 0.19992 0.53667 0.0
O21 O 0.19092 0.29832 0.4857 0.0
O22 O 0.16706 0.36291 0.43258 0.0
O23 O 0.14954 0.3276 0.54575 0.0
O24 O 0.16199 0.25903 0.68939 0.0
O25 O 0.13538 0.25686 0.69107 0.0
O26 O 0.11203 0.30283 0.50918 0.0
O27 O 0.10923 0.20509 0.44019 0.0
O28 O 0.13025 0.15341 0.57865 0.0
O29 O 0.14845 0.17886 0.46166 0.0
O30 O 0.13783 0.26533 0.30615 0.0
O31 O 0.16322 0.24768 0.30665 0.0
H32 H 0.21112 0.34167 0.64717 0.0
H33 H 0.23719 0.34461 0.7306 0.0
H34 H 0.2392 0.15392 0.60883 0.0
H35 H 0.21319 0.15052 0.52633 0.0
H36 H 0.08153 0.15716 0.39452 0.0
H37 H 0.05369 0.15669 0.36906 0.0
H38 H 0.05812 0.35428 0.46612 0.0
H39 H 0.08614 0.35539 0.49161 0.0
C40 C 0.84754 0.26205 0.5149 0.0
Eu41 Eu 0.87654 0.24318 0.5023 0.0
C42 C 0.83277 0.25451 0.58035 0.0
C43 C 0.82121 0.20368 0.55468 0.0
C44 C 0.80637 0.20161 0.60138 0.0
C45 C 0.80274 0.25037 0.6744 0.0
C46 C 0.81433 0.30019 0.70326 0.0
C47 C 0.82918 0.30243 0.65628 0.0
C48 C 0.88792 0.12883 0.50562 0.0
C49 C 0.89289 0.2508 0.75422 0.0
C50 C 0.94024 0.23817 0.50828 0.0
Eu51 Eu 0.91115 0.25576 0.51165 0.0
C52 C 0.95584 0.24873 0.45648 0.0
C53 C 0.96641 0.30105 0.49179 0.0
C54 C 0.98213 0.3032 0.46748 0.0
C55 C 0.98756 0.25328 0.40726 0.0
C56 C 0.97697 0.2032 0.36443 0.0
C57 C 0.96122 0.20074 0.38947 0.0
C58 C 0.90058 0.37 0.5236 0.0
C59 C 0.89386 0.25065 0.25821 0.0
O60 O 0.85904 0.30306 0.55167 0.0
O61 O 0.85215 0.21171 0.46795 0.0
O62 O 0.87548 0.13918 0.4515 0.0
O63 O 0.8931 0.17773 0.56311 0.0
O64 O 0.88002 0.25241 0.69519 0.0
O65 O 0.90603 0.24403 0.70218 0.0
O66 O 0.92931 0.20012 0.45722 0.0
O67 O 0.93505 0.28534 0.56156 0.0
O68 O 0.91322 0.357 0.57082 0.0
O69 O 0.89481 0.32393 0.45964 0.0
O70 O 0.90696 0.24896 0.31601 0.0
O71 O 0.8807 0.25362 0.31195 0.0
H72 H 0.82347 0.16652 0.49518 0.0
H73 H 0.79759 0.16272 0.57831 0.0
H74 H 0.81175 0.33826 0.75953 0.0
H75 H 0.83769 0.34279 0.67646 0.0
H76 H 0.96271 0.33848 0.54452 0.0
H77 H 0.99017 0.34211 0.50125 0.0
H78 H 0.98102 0.16412 0.31828 0.0
H79 H 0.95342 0.1594 0.36244 0.0
C80 C 0.10285 0.75987 0.51792 0.0
Eu81 Eu 0.13196 0.74603 0.54251 0.0
C82 C 0.0869 0.75468 0.56356 0.0
C83 C 0.07834 0.69593 0.59102 0.0
C84 C 0.06248 0.69198 0.61478 0.0
C85 C 0.05494 0.74652 0.60988 0.0
C86 C 0.06365 0.80545 0.58808 0.0
C87 C 0.07946 0.80947 0.56537 0.0
C88 C 0.1445 0.63579 0.57267 0.0
C89 C 0.14933 0.75179 0.78896 0.0
C90 C 0.19656 0.76772 0.53015 0.0
Eu91 Eu 0.16664 0.76428 0.54436 0.0
C92 C 0.21053 0.75677 0.46469 0.0
C93 C 0.21735 0.80241 0.38604 0.0
C94 C 0.23204 0.7983 0.34124 0.0
C95 C 0.24022 0.74878 0.37481 0.0
C96 C 0.23327 0.70185 0.44968 0.0
C97 C 0.21855 0.70586 0.49442 0.0
C98 C 0.15331 0.87256 0.57547 0.0
C99 C 0.14956 0.75102 0.29427 0.0
O100 O 0.11321 0.80388 0.56111 0.0
O101 O 0.1086 0.7084 0.48702 0.0
O102 O 0.13208 0.64925 0.62379 0.0
O103 O 0.14942 0.68036 0.50512 0.0
O104 O 0.13703 0.76662 0.73342 0.0
O105 O 0.16159 0.73837 0.73186 0.0
O106 O 0.18752 0.71916 0.57212 0.0
O107 O 0.18905 0.81408 0.49779 0.0
O108 O 0.16517 0.85906 0.63295 0.0
O109 O 0.14922 0.8287 0.5044 0.0
O110 O 0.16288 0.75449 0.35037 0.0
O111 O 0.13623 0.74883 0.34893 0.0
H112 H 0.08374 0.65284 0.58981 0.0
H113 H 0.05594 0.64605 0.63145 0.0
H114 H 0.05807 0.84803 0.58382 0.0
H115 H 0.08575 0.85524 0.5437 0.0
H116 H 0.21162 0.84281 0.36264 0.0
H117 H 0.23727 0.83491 0.28354 0.0
H118 H 0.23944 0.66327 0.47619 0.0
H119 H 0.21373 0.67057 0.55613 0.0
C120 C 0.9405 0.73751 0.51779 0.0
Eu121 Eu 0.91176 0.75586 0.545 0.0
C122 C 0.95659 0.74599 0.56321 0.0
C123 C 0.96748 0.79454 0.51917 0.0
C124 C 0.98325 0.79544 0.54246 0.0
C125 C 0.98845 0.74787 0.6102 0.0
C126 C 0.9776 0.70129 0.65967 0.0
C127 C 0.9618 0.70018 0.63604 0.0
C128 C 0.89969 0.8672 0.57937 0.0
C129 C 0.89363 0.74828 0.78725 0.0
C130 C 0.84685 0.77742 0.54681 0.0
Eu131 Eu 0.87475 0.7463 0.53929 0.0
C132 C 0.83172 0.77122 0.48831 0.0
C133 C 0.82592 0.71677 0.42468 0.0
C134 C 0.81107 0.71166 0.37596 0.0
C135 C 0.8019 0.76078 0.391 0.0
C136 C 0.80787 0.81552 0.45249 0.0
C137 C 0.82267 0.82069 0.50058 0.0
C138 C 0.88467 0.62843 0.52406 0.0
C139 C 0.89222 0.74699 0.29495 0.0
O140 O 0.93012 0.69672 0.56878 0.0
O141 O 0.93479 0.78722 0.47754 0.0
O142 O 0.91267 0.85457 0.6234 0.0
O143 O 0.89454 0.82225 0.51223 0.0
O144 O 0.90631 0.73548 0.73384 0.0
O145 O 0.88129 0.76189 0.72988 0.0
O146 O 0.85837 0.81187 0.49575 0.0
O147 O 0.8509 0.72705 0.59737 0.0
O148 O 0.87019 0.6367 0.5184 0.0
O149 O 0.89227 0.68231 0.53543 0.0
O150 O 0.87904 0.75298 0.34777 0.0
O151 O 0.90535 0.74301 0.35225 0.0
H152 H 0.96392 0.83006 0.4617 0.0
H153 H 0.99148 0.83159 0.50316 0.0
H154 H 0.98142 0.66394 0.71149 0.0
H155 H 0.95378 0.66163 0.67021 0.0
H156 H 0.83276 0.67814 0.41389 0.0
H157 H 0.80663 0.66922 0.32813 0.0
H158 H 0.80099 0.85397 0.46418 0.0
H159 H 0.82698 0.8631 0.54906 0.0
C160 C 0.69601 0.74565 0.03854 0.0
Eu161 Eu 0.66678 0.75931 0.02322 0.0
C162 C 0.70998 0.74491 0.1105 0.0
C163 C 0.71608 0.79736 0.17847 0.0
C164 C 0.73064 0.79878 0.23065 0.0
C165 C 0.73928 0.74809 0.21472 0.0
C166 C 0.73292 0.69482 0.15081 0.0
C167 C 0.71839 0.69324 0.0993 0.0
C168 C 0.65519 0.87192 1.00117 0.0
C169 C 0.64915 0.75364 0.27407 0.0
C170 C 0.60326 0.75158 1.00384 0.0
Eu171 Eu 0.63257 0.74581 0.02836 0.0
C172 C 0.58651 0.75288 0.98909 0.0
C173 C 0.57679 0.69683 0.96083 0.0
C174 C 0.56084 0.69694 0.95172 0.0
C175 C 0.55437 0.75299 0.97126 0.0
C176 C 0.56404 0.80935 0.99719 0.0
C177 C 0.58002 0.80934 1.00579 0.0
C178 C 0.64443 0.63399 0.04692 0.0
C179 C 0.65002 0.75228 0.77871 0.0
O180 O 0.68489 0.69838 0.04734 0.0
O181 O 0.69098 0.79996 1.01958 0.0
O182 O 0.66744 0.85791 0.94974 0.0
O183 O 0.6502 0.82775 0.0699 0.0
O184 O 0.66193 0.7468 0.21652 0.0
O185 O 0.63619 0.76106 0.21988 0.0
O186 O 0.61323 0.80248 1.01982 0.0
O187 O 0.60923 0.6984 1.00163 0.0
O188 O 0.63264 0.64813 0.10429 0.0
O189 O 0.64908 0.67855 0.97834 0.0
O190 O 0.63753 0.76219 0.8367 0.0
O191 O 0.6627 0.74127 0.83273 0.0
H192 H 0.70987 0.83797 0.1882 0.0
H193 H 0.73539 0.84019 0.28014 0.0
H194 H 0.73941 0.65524 0.13813 0.0
H195 H 0.71397 0.65254 0.04671 0.0
H196 H 0.58147 0.65264 0.94705 0.0
H197 H 0.55351 0.65308 0.93167 0.0
H198 H 0.55917 0.85298 1.01256 0.0
H199 H 0.58725 0.85319 0.02746 0.0
C200 C 0.3461 0.74461 0.04026 0.0
Eu201 Eu 0.37585 0.74126 0.02582 0.0
C202 C 0.33243 0.74921 0.11361 0.0
C203 C 0.32599 0.69813 0.18256 0.0
C204 C 0.31151 0.69886 0.23389 0.0
C205 C 0.30322 0.75036 0.21625 0.0
C206 C 0.30992 0.80257 0.15215 0.0
C207 C 0.3244 0.80199 0.10127 0.0
C208 C 0.38917 0.63277 1.00519 0.0
C209 C 0.3935 0.75204 0.27681 0.0
C210 C 0.4395 0.76014 1.0098 0.0
Eu211 Eu 0.41004 0.76253 0.0327 0.0
C212 C 0.45624 0.7586 0.99662 0.0
C213 C 0.46685 0.80938 0.03701 0.0
C214 C 0.48272 0.8073 0.02703 0.0
C215 C 0.48818 0.75478 0.97541 0.0
C216 C 0.47764 0.70456 0.93272 0.0
C217 C 0.46176 0.70629 0.94387 0.0
C218 C 0.39669 0.87124 0.04705 0.0
C219 C 0.3924 0.75169 0.781 0.0
O220 O 0.35617 0.79523 0.02718 0.0
O221 O 0.35245 0.69222 0.04201 0.0
O222 O 0.37708 0.64438 0.94808 0.0
O223 O 0.3934 0.67788 0.07476 0.0
O224 O 0.3807 0.75871 0.21881 0.0
O225 O 0.40642 0.74439 0.22282 0.0
O226 O 0.42943 0.70922 1.0011 0.0
O227 O 0.43363 0.81224 0.03273 0.0
O228 O 0.40872 0.86051 0.1059 0.0
O229 O 0.39257 0.82492 0.98023 0.0
O230 O 0.40535 0.74808 0.83885 0.0
O231 O 0.37934 0.75669 0.83479 0.0
H232 H 0.33183 0.65656 0.19313 0.0
H233 H 0.30649 0.65825 0.28345 0.0
H234 H 0.30369 0.84276 0.13808 0.0
H235 H 0.32901 0.84168 0.04778 0.0
H236 H 0.46289 0.85028 0.07784 0.0
H237 H 0.49075 0.84637 0.06036 0.0
H238 H 0.48172 0.66369 0.89277 0.0
H239 H 0.45381 0.66671 0.91141 0.0
C240 C 0.60288 0.26262 0.97533 0.0
Eu241 Eu 0.6319 0.24752 1.00497 0.0
C242 C 0.58692 0.25966 1.0207 0.0
C243 C 0.57828 0.20198 0.05389 0.0
C244 C 0.56239 0.19876 0.0756 0.0
C245 C 0.55485 0.25296 0.06354 0.0
C246 C 0.5636 0.31106 0.03609 0.0
C247 C 0.57947 0.31435 1.01494 0.0
C248 C 0.64338 0.13544 0.0312 0.0
C249 C 0.64845 0.25207 0.2507 0.0
C250 C 0.69623 0.247 1.01878 0.0
Eu251 Eu 0.66687 0.2596 1.00035 0.0
C252 C 0.71087 0.2507 0.95211 0.0
C253 C 0.72279 0.30051 0.97449 0.0
C254 C 0.73733 0.30117 0.92323 0.0
C255 C 0.74027 0.25195 0.84869 0.0
C256 C 0.72828 0.20312 0.82294 0.0
C257 C 0.71372 0.20231 0.87451 0.0
C258 C 0.65517 0.37177 0.97905 0.0
C259 C 0.65033 0.25597 0.75532 0.0
O260 O 0.6134 0.30798 1.01153 0.0
O261 O 0.60845 0.20959 0.95371 0.0
O262 O 0.63093 0.14939 0.0808 0.0
O263 O 0.64855 0.1794 0.96253 0.0
O264 O 0.63537 0.25872 0.19727 0.0
O265 O 0.66139 0.24725 0.19327 0.0
O266 O 0.68539 0.19969 0.99773 0.0
O267 O 0.69064 0.30004 0.0397 0.0
O268 O 0.6674 0.35822 0.92593 0.0
O269 O 0.65024 0.32683 0.04587 0.0
O270 O 0.66326 0.24726 0.80852 0.0
O271 O 0.63758 0.26277 0.81315 0.0
H272 H 0.58365 0.15889 0.05843 0.0
H273 H 0.55583 0.15345 0.0966 0.0
H274 H 0.55802 0.35337 0.02618 0.0
H275 H 0.58579 0.35923 0.98849 0.0
H276 H 0.72102 0.33817 0.03442 0.0
H277 H 0.74641 0.33933 0.94389 0.0
H278 H 0.73033 0.16474 0.7655 0.0
H279 H 0.70487 0.16298 0.85576 0.0
C280 C 0.43993 0.23942 0.97581 0.0
Eu281 Eu 0.41099 0.25584 1.00541 0.0
C282 C 0.45609 0.24716 1.01997 0.0
C283 C 0.46677 0.29795 0.98087 0.0
C284 C 0.4826 0.29922 1.00218 0.0
C285 C 0.48811 0.24982 0.06309 0.0
C286 C 0.47748 0.20068 0.10758 0.0
C287 C 0.46162 0.19916 0.0857 0.0
C288 C 0.40032 0.36927 0.0375 0.0
C289 C 0.39459 0.25209 0.25129 0.0
C290 C 0.34703 0.26334 1.02014 0.0
Eu291 Eu 0.37613 0.24733 1.0005 0.0
C292 C 0.33246 0.26241 0.95341 0.0
C293 C 0.32631 0.20956 0.88638 0.0
C294 C 0.3117 0.20759 0.83458 0.0
C295 C 0.30299 0.25819 0.84947 0.0
C296 C 0.30934 0.31169 0.91307 0.0
C297 C 0.32393 0.31376 0.96449 0.0
C298 C 0.38706 0.13367 0.97373 0.0
C299 C 0.39241 0.24953 0.75584 0.0
O300 O 0.42963 0.19689 0.0227 0.0
O301 O 0.43408 0.28991 0.94197 0.0
O302 O 0.41275 0.35365 0.08496 0.0
O303 O 0.39481 0.32639 0.96685 0.0
O304 O 0.40764 0.24557 0.19784 0.0
O305 O 0.38164 0.25727 0.19392 0.0
O306 O 0.35807 0.30991 1.00107 0.0
O307 O 0.35227 0.20927 0.03761 0.0
O308 O 0.37491 0.14909 0.92183 0.0
O309 O 0.39231 0.17764 0.04254 0.0
O310 O 0.37974 0.26099 0.80923 0.0
O311 O 0.40497 0.2396 0.81378 0.0
H312 H 0.46298 0.33525 0.92871 0.0
H313 H 0.49063 0.33743 0.96689 0.0
H314 H 0.48153 0.16193 0.15421 0.0
H315 H 0.45378 0.15887 0.1157 0.0
H316 H 0.33261 0.16924 0.87612 0.0
H317 H 0.30699 0.16597 0.78546 0.0
H318 H 0.30284 0.35128 0.92499 0.0
H319 H 0.32839 0.35493 1.01572 0.0
C320 C 0.25901 0.22163 0.82512 0.0
C321 C 0.2563 0.25205 0.71937 0.0
C322 C 0.28425 0.28507 0.69671 0.0
C323 C 0.28694 0.25463 0.80259 0.0
N324 N 0.27749 0.18769 0.96142 0.0
N325 N 0.26575 0.31537 0.55608 0.0
C326 C 0.27447 0.22111 0.86501 0.0
C327 C 0.26879 0.28447 0.65544 0.0
N328 N 0.2467 0.19572 0.88985 0.0
N329 N 0.29662 0.3124 0.63398 0.0
H330 H 0.2547 0.31333 0.5206 0.0
H331 H 0.27391 0.34502 0.50985 0.0
H332 H 0.30802 0.31354 0.66189 0.0
H333 H 0.29588 0.33139 0.55188 0.0
H334 H 0.24759 0.17856 0.97327 0.0
H335 H 0.23525 0.19496 0.86325 0.0
H336 H 0.26932 0.15599 1.00358 0.0
H337 H 0.28853 0.18864 0.99657 0.0
C338 C 0.76619 0.21188 0.85641 0.0
C339 C 0.75616 0.25042 0.80193 0.0
C340 C 0.77654 0.28795 0.66238 0.0
C341 C 0.78663 0.25003 0.71789 0.0
N342 N 0.79199 0.18096 0.87299 0.0
N343 N 0.75075 0.31932 0.64678 0.0
C344 C 0.78165 0.21294 0.81588 0.0
C345 C 0.7611 0.28718 0.7034 0.0
N346 N 0.76076 0.17335 0.94576 0.0
N347 N 0.78191 0.32565 0.57176 0.0
H348 H 0.73943 0.31996 0.67494 0.0
H349 H 0.75289 0.34267 0.56863 0.0
H350 H 0.79284 0.32509 0.53595 0.0
H351 H 0.77595 0.35963 0.53421 0.0
H352 H 0.76665 0.13859 0.98141 0.0
H353 H 0.74983 0.17361 0.98163 0.0
H354 H 0.78983 0.1581 0.9516 0.0
H355 H 0.80331 0.18012 0.84505 0.0
C356 C 0.2842 0.78159 0.36129 0.0
C357 C 0.28709 0.74829 0.25879 0.0
C358 C 0.25927 0.71276 0.23474 0.0
C359 C 0.25639 0.74769 0.33548 0.0
N360 N 0.26543 0.82031 0.48903 0.0
N361 N 0.27803 0.68101 0.09787 0.0
C362 C 0.26869 0.78337 0.3974 0.0
C363 C 0.27478 0.7134 0.19545 0.0
N364 N 0.29639 0.80957 0.42608 0.0
N365 N 0.24705 0.68052 0.17564 0.0
H366 H 0.28916 0.68231 0.06463 0.0
H367 H 0.26996 0.65209 0.04888 0.0
H368 H 0.23562 0.67929 0.20242 0.0
H369 H 0.2479 0.65543 0.09925 0.0
H370 H 0.29531 0.82905 0.50779 0.0
H371 H 0.30788 0.80972 0.40154 0.0
H372 H 0.27354 0.85338 0.52973 0.0
H373 H 0.2543 0.82074 0.52122 0.0
C374 C 0.76769 0.78611 0.19847 0.0
C375 C 0.75533 0.75145 0.26034 0.0
C376 C 0.77356 0.72042 0.40511 0.0
C377 C 0.7859 0.75542 0.34363 0.0
N378 N 0.79542 0.81474 0.17609 0.0
N379 N 0.74583 0.69083 0.4264 0.0
C380 C 0.78314 0.78671 0.23892 0.0
C381 C 0.7581 0.71957 0.3644 0.0
N382 N 0.76454 0.81946 0.10223 0.0
N383 N 0.77674 0.68721 0.50143 0.0
H384 H 0.7344 0.68923 0.39882 0.0
H385 H 0.74667 0.67147 0.50811 0.0
H386 H 0.78781 0.68899 0.53652 0.0
H387 H 0.7687 0.65532 0.54432 0.0
H388 H 0.7726 0.8516 0.05996 0.0
H389 H 0.7535 0.81757 0.06662 0.0
H390 H 0.79455 0.83333 0.09376 0.0
H391 H 0.80686 0.81607 0.20328 0.0
C392 C 0.1558 0.97484 0.46228 0.0
C393 C 0.15011 0.93899 0.55979 0.0
C394 C 0.14177 0.03428 0.64454 0.0
C395 C 0.14589 0.06914 0.54148 0.0
N396 N 0.15102 0.06046 0.33718 0.0
N397 N 0.13281 0.93076 0.72192 0.0
C398 C 0.15144 0.03643 0.44587 0.0
C399 C 0.14166 0.96752 0.64463 0.0
N400 N 0.16523 0.95044 0.38474 0.0
N401 N 0.1382 0.06421 0.74375 0.0
H402 H 0.13161 0.88139 0.71872 0.0
H403 H 0.12528 0.94899 0.77908 0.0
H404 H 0.13846 0.11309 0.75136 0.0
H405 H 0.1366 0.04073 0.82258 0.0
H406 H 0.17072 0.97743 0.31807 0.0
H407 H 0.16858 0.90531 0.3928 0.0
H408 H 0.15396 0.03589 0.26403 0.0
H409 H 0.14537 0.09942 0.31859 0.0
C410 C 0.89689 0.47119 0.41627 0.0
C411 C 0.89677 0.43687 0.52171 0.0
C412 C 0.89221 0.53355 0.62896 0.0
C413 C 0.89074 0.56557 0.52311 0.0
N414 N 0.89245 0.56762 0.31622 0.0
N415 N 0.89842 0.44054 0.73036 0.0
C416 C 0.89332 0.53503 0.41684 0.0
C417 C 0.89558 0.4696 0.62864 0.0
N418 N 0.90192 0.44503 0.3175 0.0
N419 N 0.88999 0.5642 0.73035 0.0
H420 H 0.90038 0.39341 0.73589 0.0
H421 H 0.89979 0.46369 0.80979 0.0
H422 H 0.88931 0.61266 0.73379 0.0
H423 H 0.88842 0.54203 0.81019 0.0
H424 H 0.90355 0.46876 0.23922 0.0
H425 H 0.90584 0.40078 0.31539 0.0
H426 H 0.892 0.54694 0.23443 0.0
H427 H 0.89189 0.6162 0.3155 0.0
C428 C 0.8845 0.95869 0.62172 0.0
C429 C 0.89661 0.93421 0.56122 0.0
C430 C 0.90329 0.03779 0.4669 0.0
C431 C 0.89161 0.06311 0.53078 0.0
N432 N 0.8728 0.05118 0.6832 0.0
N433 N 0.9184 0.95147 0.43203 0.0
C434 C 0.88269 0.02444 0.61227 0.0
C435 C 0.90626 0.97418 0.48557 0.0
N436 N 0.87445 0.91864 0.68609 0.0
N437 N 0.91131 0.07456 0.38566 0.0
H438 H 0.92032 0.90416 0.43556 0.0
H439 H 0.92707 0.97977 0.38794 0.0
H440 H 0.9101 0.12217 0.37749 0.0
H441 H 0.9185 0.05808 0.3241 0.0
H442 H 0.86435 0.93122 0.72201 0.0
H443 H 0.87559 0.8709 0.69629 0.0
H444 H 0.86718 0.02789 0.75311 0.0
H445 H 0.87117 0.09886 0.67825 0.0
C446 C 0.13683 0.53007 0.4743 0.0
C447 C 0.14702 0.56866 0.55002 0.0
C448 C 0.16088 0.47765 0.59189 0.0
C449 C 0.15138 0.44022 0.5109 0.0
N450 N 0.12983 0.42765 0.37947 0.0
N451 N 0.16991 0.58227 0.66879 0.0
C452 C 0.13915 0.46556 0.45376 0.0
C453 C 0.15935 0.54321 0.60556 0.0
N454 N 0.12496 0.55542 0.42204 0.0
N455 N 0.17095 0.44973 0.65942 0.0
H456 H 0.16901 0.63007 0.68223 0.0
H457 H 0.18017 0.56884 0.7005 0.0
H458 H 0.17244 0.40198 0.65201 0.0
H459 H 0.17687 0.47213 0.72964 0.0
H460 H 0.11624 0.52972 0.37356 0.0
H461 H 0.12355 0.60325 0.4283 0.0
H462 H 0.12155 0.4431 0.32565 0.0
H463 H 0.1305 0.37932 0.3703 0.0
C464 C 0.63797 0.52765 0.94901 0.0
C465 C 0.64717 0.56684 0.02956 0.0
C466 C 0.66172 0.47854 0.07566 0.0
C467 C 0.65223 0.43865 0.99774 0.0
N468 N 0.63053 0.4224 0.86744 0.0
N469 N 0.66563 0.57703 0.18552 0.0
C470 C 0.64013 0.46251 0.93635 0.0
C471 C 0.65845 0.54155 0.0973 0.0
N472 N 0.62719 0.55304 0.88423 0.0
N473 N 0.6741 0.45666 0.12723 0.0
H474 H 0.66361 0.62336 0.20317 0.0
H475 H 0.67262 0.5592 0.24703 0.0
H476 H 0.67658 0.41027 0.11751 0.0
H477 H 0.68254 0.48539 0.17381 0.0
H478 H 0.62137 0.53034 0.81402 0.0
H479 H 0.62441 0.59867 0.89797 0.0
H480 H 0.62045 0.43396 0.82968 0.0
H481 H 0.6322 0.37545 0.85254 0.0
C482 C 0.38151 0.96225 0.08271 0.0
C483 C 0.39357 0.93717 0.02315 0.0
C484 C 0.40127 0.04049 0.93056 0.0
C485 C 0.38932 0.06597 0.99085 0.0
N486 N 0.36834 0.05361 0.12731 0.0
N487 N 0.41333 0.94772 0.87697 0.0
C488 C 0.37944 0.02732 0.06733 0.0
C489 C 0.40302 0.97507 0.94338 0.0
N490 N 0.37183 0.92303 0.15172 0.0
N491 N 0.41125 0.07954 0.86358 0.0
H492 H 0.41512 0.90037 0.88504 0.0
H493 H 0.41934 0.97005 0.80787 0.0
H494 H 0.41001 0.12694 0.84945 0.0
H495 H 0.42129 0.06666 0.82745 0.0
H496 H 0.36216 0.93573 0.19343 0.0
H497 H 0.37306 0.87541 0.16382 0.0
H498 H 0.36144 0.03072 0.1914 0.0
H499 H 0.36628 0.10043 0.11657 0.0
C500 C 0.40654 0.47881 0.95373 0.0
C501 C 0.39753 0.43702 0.03025 0.0
C502 C 0.38422 0.52547 0.09937 0.0
C503 C 0.39283 0.56662 1.01978 0.0
N504 N 0.4136 0.58627 0.88333 0.0
N505 N 0.37726 0.41824 0.17126 0.0
C506 C 0.40437 0.54421 0.95009 0.0
C507 C 0.38627 0.45988 0.1023 0.0
N508 N 0.41689 0.45529 0.88198 0.0
N509 N 0.3744 0.54983 0.17454 0.0
H510 H 0.37879 0.37071 0.17785 0.0
H511 H 0.36775 0.42919 0.21739 0.0
H512 H 0.37247 0.59722 0.1738 0.0
H513 H 0.36887 0.52481 0.24287 0.0
H514 H 0.42255 0.48036 0.81421 0.0
H515 H 0.41939 0.40874 0.88632 0.0
H516 H 0.42332 0.57578 0.83929 0.0
H517 H 0.41206 0.63382 0.87699 0.0
C518 C 0.63772 0.02552 0.94549 0.0
C519 C 0.64672 0.06844 1.02115 0.0
C520 C 0.66036 0.98121 0.09049 0.0
C521 C 0.65185 0.93901 1.01088 0.0
N522 N 0.63458 0.92355 0.84761 0.0
N523 N 0.66766 0.08951 0.15739 0.0
C524 C 0.64111 0.9619 0.93435 0.0
C525 C 0.65832 0.04683 0.09154 0.0
N526 N 0.62568 0.0452 0.88569 0.0
N527 N 0.6704 0.95831 0.16549 0.0
H528 H 0.66623 0.13723 0.16206 0.0
H529 H 0.67742 0.07909 0.20137 0.0
H530 H 0.67318 0.91218 0.1605 0.0
H531 H 0.67549 0.98367 0.23586 0.0
H532 H 0.6175 0.01457 0.84029 0.0
H533 H 0.62318 0.09184 0.88755 0.0
H534 H 0.62812 0.93927 0.78035 0.0
H535 H 0.63668 0.87686 0.83728 0.0
C536 C 0.15638 0.20849 0.05635 0.0
C537 C 0.15084 0.25818 0.12057 0.0
C538 C 0.14374 0.30724 0.93796 0.0
C539 C 0.14936 0.25753 0.87456 0.0
N540 N 0.16392 0.16796 0.87258 0.0
N541 N 0.14239 0.36158 0.12247 0.0
C542 C 0.15655 0.21047 0.9335 0.0
C543 C 0.14523 0.30919 0.06117 0.0
N544 N 0.16087 0.1573 0.11196 0.0
N545 N 0.13775 0.35442 0.87973 0.0
H546 H 0.14538 0.36797 0.20922 0.0
H547 H 0.13846 0.40145 0.08727 0.0
H548 H 0.13819 0.35911 0.79016 0.0
H549 H 0.13203 0.3888 0.91878 0.0
H550 H 0.16239 0.11495 0.07058 0.0
H551 H 0.16227 0.15494 0.20067 0.0
H552 H 0.17148 0.13987 0.91015 0.0
H553 H 0.16338 0.16274 0.7832 0.0
C554 C 0.88691 0.29897 0.06886 0.0
C555 C 0.89369 0.25094 0.12853 0.0
C556 C 0.89848 0.20026 0.94214 0.0
C557 C 0.89234 0.24967 0.88283 0.0
N558 N 0.8775 0.33828 0.88969 0.0
N559 N 0.90675 0.15774 0.12106 0.0
C560 C 0.88561 0.29671 0.94604 0.0
C561 C 0.89979 0.20249 0.06463 0.0
N562 N 0.8826 0.34939 0.12891 0.0
N563 N 0.90163 0.14771 0.88214 0.0
H564 H 0.90576 0.15137 0.20915 0.0
H565 H 0.91387 0.12846 0.08141 0.0
H566 H 0.8997 0.14152 0.79368 0.0
H567 H 0.90455 0.10673 0.92063 0.0
H568 H 0.8798 0.39055 0.09032 0.0
H569 H 0.88301 0.35321 0.21845 0.0
H570 H 0.87033 0.36664 0.93116 0.0
H571 H 0.87687 0.34204 0.80041 0.0
C572 C 0.14661 0.80588 0.10429 0.0
C573 C 0.14956 0.75083 0.16515 0.0
C574 C 0.15122 0.69457 0.97976 0.0
C575 C 0.14957 0.75132 0.91882 0.0
N576 N 0.14981 0.8647 0.92549 0.0
N577 N 0.15674 0.64511 0.16167 0.0
C578 C 0.14828 0.80795 0.98179 0.0
C579 C 0.15258 0.69599 0.10299 0.0
N580 N 0.14234 0.85663 0.16336 0.0
N581 N 0.15074 0.63861 0.92041 0.0
H582 H 0.15704 0.64297 0.25169 0.0
H583 H 0.16089 0.60687 0.12134 0.0
H584 H 0.14929 0.63543 0.83112 0.0
H585 H 0.15037 0.59458 0.96009 0.0
H586 H 0.13827 0.89488 0.12276 0.0
H587 H 0.14178 0.85858 0.25329 0.0
H588 H 0.15031 0.90842 0.96728 0.0
H589 H 0.1525 0.86843 0.83807 0.0
C590 C 0.90372 0.79131 0.98226 0.0
C591 C 0.89311 0.74823 0.91745 0.0
C592 C 0.88175 0.70364 0.10034 0.0
C593 C 0.89244 0.74687 0.16479 0.0
N594 N 0.91076 0.84215 0.16653 0.0
N595 N 0.87231 0.66159 0.91353 0.0
C596 C 0.90276 0.79307 0.1055 0.0
C597 C 0.88207 0.70446 0.9764 0.0
N598 N 0.9148 0.83103 0.92602 0.0
N599 N 0.871 0.6627 0.1577 0.0
H600 H 0.87138 0.66294 0.82396 0.0
H601 H 0.86545 0.62262 0.94801 0.0
H602 H 0.87083 0.65734 0.24698 0.0
H603 H 0.86169 0.63513 0.11869 0.0
H604 H 0.92424 0.85678 0.96724 0.0
H605 H 0.91512 0.83587 0.8367 0.0
H606 H 0.91701 0.88168 0.12851 0.0
H607 H 0.90993 0.84711 0.2558 0.0
C608 C 0.63977 0.70563 0.46488 0.0
C609 C 0.64938 0.75339 0.40354 0.0
C610 C 0.65933 0.80066 0.58846 0.0
C611 C 0.64972 0.75289 0.64954 0.0
N612 N 0.62928 0.66492 0.6478 0.0
N613 N 0.66943 0.84288 0.40545 0.0
C614 C 0.63948 0.70697 0.58812 0.0
C615 C 0.65949 0.79981 0.46512 0.0
N616 N 0.63172 0.65621 0.40541 0.0
N617 N 0.6675 0.84956 0.64854 0.0
H618 H 0.66905 0.84738 0.31615 0.0
H619 H 0.67859 0.87219 0.44289 0.0
H620 H 0.66753 0.85234 0.73816 0.0
H621 H 0.6733 0.89012 0.61083 0.0
H622 H 0.62598 0.61575 0.44394 0.0
H623 H 0.63182 0.65269 0.31591 0.0
H624 H 0.62005 0.63618 0.60993 0.0
H625 H 0.62943 0.66121 0.73733 0.0
C626 C 0.39098 0.80845 0.59112 0.0
C627 C 0.3926 0.75172 0.65188 0.0
C628 C 0.39546 0.69594 0.46729 0.0
C629 C 0.39329 0.75208 0.40617 0.0
N630 N 0.38861 0.86132 0.40715 0.0
N631 N 0.39431 0.63966 0.65044 0.0
C632 C 0.39086 0.80811 0.46755 0.0
C633 C 0.39442 0.69507 0.59057 0.0
N634 N 0.3902 0.8633 0.65208 0.0
N635 N 0.39828 0.64312 0.40701 0.0
H636 H 0.39264 0.63692 0.73939 0.0
H637 H 0.39468 0.59539 0.61283 0.0
H638 H 0.39788 0.64009 0.31711 0.0
H639 H 0.40165 0.60277 0.44472 0.0
H640 H 0.39046 0.9079 0.61508 0.0
H641 H 0.3901 0.8652 0.74211 0.0
H642 H 0.38481 0.9013 0.44357 0.0
H643 H 0.39019 0.86506 0.31817 0.0
C644 C 0.64051 0.20263 0.44377 0.0
C645 C 0.64892 0.2528 0.38006 0.0
C646 C 0.65826 0.30528 0.56225 0.0
C647 C 0.6498 0.25531 0.626 0.0
N648 N 0.63444 0.15265 0.62991 0.0
N649 N 0.66387 0.35634 0.3767 0.0
C650 C 0.6412 0.20328 0.56726 0.0
C651 C 0.65741 0.30505 0.43891 0.0
N652 N 0.63175 0.1545 0.38578 0.0
N653 N 0.66729 0.35275 0.61992 0.0
H654 H 0.66331 0.35828 0.28687 0.0
H655 H 0.6688 0.39908 0.41304 0.0
H656 H 0.66735 0.3571 0.70945 0.0
H657 H 0.67533 0.38619 0.58037 0.0
H658 H 0.62379 0.1205 0.4246 0.0
H659 H 0.63195 0.14968 0.29638 0.0
H660 H 0.62927 0.11014 0.59423 0.0
H661 H 0.63482 0.15118 0.71984 0.0
C662 C 0.38561 0.19975 0.43864 0.0
C663 C 0.39418 0.25159 0.38067 0.0
C664 C 0.402 0.30118 0.56886 0.0
C665 C 0.39291 0.25036 0.62646 0.0
N666 N 0.37468 0.15498 0.61739 0.0
N667 N 0.41001 0.35315 0.38745 0.0
C668 C 0.38429 0.20086 0.56152 0.0
C669 C 0.40232 0.30262 0.44516 0.0
N670 N 0.37942 0.14771 0.37625 0.0
N671 N 0.40995 0.34893 0.63323 0.0
H672 H 0.40989 0.35674 0.29794 0.0
H673 H 0.41615 0.39288 0.42609 0.0
H674 H 0.40928 0.35087 0.72294 0.0
H675 H 0.41735 0.38672 0.60015 0.0
H676 H 0.37448 0.10525 0.41281 0.0
H677 H 0.38035 0.14485 0.28673 0.0
H678 H 0.36659 0.12225 0.57576 0.0
H679 H 0.37409 0.15183 0.70691 0.0
C680 C 0.02983 0.27937 0.31386 0.0
C681 C 0.03686 0.25307 0.40992 0.0
C682 C 1.01137 0.21811 0.49286 0.0
C683 C 1.00444 0.24996 0.40296 0.0
N684 N 1.00678 0.31518 0.2327 0.0
N685 N 0.03473 0.20474 0.59842 0.0
C686 C 1.01359 0.28173 0.31452 0.0
C687 C 0.02773 0.22408 0.50123 0.0
N688 N 0.03864 0.30043 0.22086 0.0
N689 N 1.0023 0.18165 0.56983 0.0
H690 H 0.04669 0.20819 0.60819 0.0
H691 H 0.02878 0.19004 0.67345 0.0
H692 H 0.99027 0.17794 0.56986 0.0
H693 H 1.00658 0.15108 0.62821 0.0
H694 H 0.03406 0.31407 0.14314 0.0
H695 H 0.05056 0.29979 0.21811 0.0
H696 H 1.01294 0.34538 0.17369 0.0
H697 H 0.99485 0.31565 0.22805 0.0
C698 C 1.01448 0.77381 0.70745 0.0
C699 C 1.00531 0.74291 0.61731 0.0
C700 C 0.02858 0.71416 0.52293 0.0
C701 C 0.03773 0.74185 0.61633 0.0
N702 N 0.03927 0.78843 0.80687 0.0
N703 N 1.0031 0.67296 0.4517 0.0
C704 C 0.03063 0.76888 0.71154 0.0
C705 C 1.01221 0.70954 0.52922 0.0
N706 N 1.00782 0.80915 0.78737 0.0
N707 N 0.03553 0.69558 0.42496 0.0
H708 H 0.99107 0.66969 0.45106 0.0
H709 H 1.00735 0.64164 0.3943 0.0
H710 H 0.04747 0.699 0.41521 0.0
H711 H 0.02952 0.68203 0.3491 0.0
H712 H 1.0141 0.8388 0.84741 0.0
H713 H 0.99598 0.81199 0.78888 0.0
H714 H 0.03458 0.80296 0.8836 0.0
H715 H 0.05106 0.78506 0.81271 0.0
C716 C 0.53008 0.77836 0.87512 0.0
C717 C 0.53734 0.7519 0.96985 0.0
C718 C 0.51213 0.71981 0.05936 0.0
C719 C 0.50503 0.7516 0.97038 0.0
N720 N 0.50701 0.81597 0.79873 0.0
N721 N 0.53579 0.70509 0.15973 0.0
C722 C 0.51395 0.78226 0.87955 0.0
C723 C 0.52849 0.72437 0.06385 0.0
N724 N 0.53855 0.79784 0.77953 0.0
N725 N 0.5032 0.68477 0.13903 0.0
H726 H 0.54777 0.70776 0.16674 0.0
H727 H 0.5301 0.69124 0.23625 0.0
H728 H 0.4912 0.68236 0.14175 0.0
H729 H 0.50754 0.65423 0.1972 0.0
H730 H 0.53372 0.81138 0.7027 0.0
H731 H 0.5504 0.79581 0.77359 0.0
H732 H 0.51309 0.84559 0.73843 0.0
H733 H 0.49512 0.81745 0.79623 0.0
C734 C 0.51218 0.21376 0.98157 0.0
C735 C 0.50508 0.24664 0.06945 0.0
C736 C 0.53038 0.27553 0.163 0.0
C737 C 0.53762 0.2482 0.06881 0.0
N738 N 0.53568 0.19979 0.87931 0.0
N739 N 0.5073 0.31372 0.23848 0.0
C740 C 0.52858 0.21918 0.97597 0.0
C741 C 0.51416 0.27884 0.15893 0.0
N742 N 0.50321 0.17693 0.90353 0.0
N743 N 0.53898 0.2968 0.25758 0.0
H744 H 0.4954 0.31516 0.24052 0.0
H745 H 0.51343 0.34429 0.29784 0.0
H746 H 0.55085 0.29493 0.26321 0.0
H747 H 0.53425 0.3115 0.33398 0.0
H748 H 0.50757 0.14572 0.84648 0.0
H749 H 0.49119 0.17361 0.90151 0.0
H750 H 0.52981 0.18524 0.80341 0.0
H751 H 0.54765 0.20327 0.87071 0.0
loop_
_geom_bond_atom_site_label_1
_geom_bond_atom_site_label_2
_geom_bond_distance
_geom_bond_site_symmetry_2
_ccdc_geom_bond_type
C0 Eu1 2.835 . S
C0 C2 1.500 . S
C0 O20 1.257 . S
C0 O21 1.260 . S
Eu1 C0 2.835 . S
Eu1 O20 2.473 . S
Eu1 O21 2.480 . S
Eu1 O22 2.430 . S
Eu1 O23 2.670 . S
Eu1 O24 2.394 . S
Eu1 O29 2.355 . S
Eu1 O31 2.374 . S
C2 C0 1.500 . S
C2 C3 1.377 . S
C2 C7 1.377 . S
C3 C2 1.377 . S
C3 C4 1.395 . S
C3 H32 0.931 . S
C4 C3 1.395 . S
C4 C5 1.383 . S
C4 H33 0.931 . S
C5 C4 1.383 . S
C5 C6 1.394 . S
C6 C5 1.394 . S
C6 C7 1.378 . S
C6 H34 0.931 . S
C7 C2 1.377 . S
C7 C6 1.378 . S
C7 H35 0.931 . S
C8 O22 1.259 . S
C8 O23 1.270 . S
C9 O24 1.251 . S
C9 O25 1.251 . S
C10 Eu11 2.835 . S
C10 C12 1.500 . S
C10 O26 1.257 . S
C10 O27 1.260 . S
Eu11 C10 2.835 . S
Eu11 O23 2.355 . S
Eu11 O25 2.374 . S
Eu11 O26 2.473 . S
Eu11 O27 2.480 . S
Eu11 O28 2.430 . S
Eu11 O29 2.670 . S
Eu11 O30 2.394 . S
C12 C10 1.500 . S
C12 C13 1.377 . S
C12 C17 1.377 . S
C13 C12 1.377 . S
C13 C14 1.395 . S
C13 H36 0.931 . S
C14 C13 1.395 . S
C14 C15 1.383 . S
C14 H37 0.931 . S
C15 C14 1.383 . S
C15 C16 1.394 . S
C16 C15 1.394 . S
C16 C17 1.378 . S
C16 H38 0.931 . S
C17 C12 1.377 . S
C17 C16 1.378 . S
C17 H39 0.931 . S
C18 O28 1.259 . S
C18 O29 1.270 . S
C19 O30 1.251 . S
C19 O31 1.251 . S
O20 C0 1.257 . S
O20 Eu1 2.473 . S
O21 C0 1.260 . S
O21 Eu1 2.480 . S
O22 Eu1 2.430 . S
O22 C8 1.259 . S
O23 Eu1 2.670 . S
O23 C8 1.270 . S
O23 Eu11 2.355 . S
O24 Eu1 2.394 . S
O24 C9 1.251 . S
O25 C9 1.251 . S
O25 Eu11 2.374 . S
O26 C10 1.257 . S
O26 Eu11 2.473 . S
O27 C10 1.260 . S
O27 Eu11 2.480 . S
O28 Eu11 2.430 . S
O28 C18 1.259 . S
O29 Eu1 2.355 . S
O29 Eu11 2.670 . S
O29 C18 1.270 . S
O30 Eu11 2.394 . S
O30 C19 1.251 . S
O31 Eu1 2.374 . S
O31 C19 1.251 . S
H32 C3 0.931 . S
H33 C4 0.931 . S
H34 C6 0.931 . S
H35 C7 0.931 . S
H36 C13 0.931 . S
H37 C14 0.931 . S
H38 C16 0.931 . S
H39 C17 0.931 . S
C40 Eu41 2.835 . S
C40 C42 1.500 . S
C40 O60 1.257 . S
C40 O61 1.260 . S
Eu41 C40 2.835 . S
Eu41 O60 2.473 . S
Eu41 O61 2.480 . S
Eu41 O62 2.430 . S
Eu41 O63 2.670 . S
Eu41 O64 2.394 . S
Eu41 O69 2.355 . S
Eu41 O71 2.374 . S
C42 C40 1.500 . S
C42 C43 1.377 . S
C42 C47 1.377 . S
C43 C42 1.377 . S
C43 C44 1.395 . S
C43 H72 0.931 . S
C44 C43 1.395 . S
C44 C45 1.383 . S
C44 H73 0.931 . S
C45 C44 1.383 . S
C45 C46 1.394 . S
C46 C45 1.394 . S
C46 C47 1.378 . S
C46 H74 0.931 . S
C47 C42 1.377 . S
C47 C46 1.378 . S
C47 H75 0.931 . S
C48 O62 1.259 . S
C48 O63 1.270 . S
C49 O64 1.251 . S
C49 O65 1.251 . S
C50 Eu51 2.835 . S
C50 C52 1.500 . S
C50 O66 1.257 . S
C50 O67 1.260 . S
Eu51 C50 2.835 . S
Eu51 O63 2.355 . S
Eu51 O65 2.374 . S
Eu51 O66 2.473 . S
Eu51 O67 2.480 . S
Eu51 O68 2.430 . S
Eu51 O69 2.670 . S
Eu51 O70 2.394 . S
C52 C50 1.500 . S
C52 C53 1.377 . S
C52 C57 1.377 . S
C53 C52 1.377 . S
C53 C54 1.395 . S
C53 H76 0.931 . S
C54 C53 1.395 . S
C54 C55 1.383 . S
C54 H77 0.931 . S
C55 C54 1.383 . S
C55 C56 1.394 . S
C56 C55 1.394 . S
C56 C57 1.378 . S
C56 H78 0.931 . S
C57 C52 1.377 . S
C57 C56 1.378 . S
C57 H79 0.931 . S
C58 O68 1.259 . S
C58 O69 1.270 . S
C59 O70 1.251 . S
C59 O71 1.251 . S
O60 C40 1.257 . S
O60 Eu41 2.473 . S
O61 C40 1.260 . S
O61 Eu41 2.480 . S
O62 Eu41 2.430 . S
O62 C48 1.259 . S
O63 Eu41 2.670 . S
O63 C48 1.270 . S
O63 Eu51 2.355 . S
O64 Eu41 2.394 . S
O64 C49 1.251 . S
O65 C49 1.251 . S
O65 Eu51 2.374 . S
O66 C50 1.257 . S
O66 Eu51 2.473 . S
O67 C50 1.260 . S
O67 Eu51 2.480 . S
O68 Eu51 2.430 . S
O68 C58 1.259 . S
O69 Eu41 2.355 . S
O69 Eu51 2.670 . S
O69 C58 1.270 . S
O70 Eu51 2.394 . S
O70 C59 1.251 . S
O71 Eu41 2.374 . S
O71 C59 1.251 . S
H72 C43 0.931 . S
H73 C44 0.931 . S
H74 C46 0.931 . S
H75 C47 0.931 . S
H76 C53 0.931 . S
H77 C54 0.931 . S
H78 C56 0.931 . S
H79 C57 0.931 . S
C80 Eu81 2.835 . S
C80 C82 1.500 . S
C80 O100 1.257 . S
C80 O101 1.260 . S
Eu81 C80 2.835 . S
Eu81 O100 2.473 . S
Eu81 O101 2.480 . S
Eu81 O102 2.430 . S
Eu81 O103 2.670 . S
Eu81 O104 2.394 . S
Eu81 O109 2.355 . S
Eu81 O111 2.374 . S
C82 C80 1.500 . S
C82 C83 1.377 . S
C82 C87 1.377 . S
C83 C82 1.377 . S
C83 C84 1.395 . S
C83 H112 0.931 . S
C84 C83 1.395 . S
C84 C85 1.383 . S
C84 H113 0.931 . S
C85 C84 1.383 . S
C85 C86 1.394 . S
C86 C85 1.394 . S
C86 C87 1.378 . S
C86 H114 0.931 . S
C87 C82 1.377 . S
C87 C86 1.378 . S
C87 H115 0.931 . S
C88 O102 1.259 . S
C88 O103 1.270 . S
C89 O104 1.251 . S
C89 O105 1.251 . S
C90 Eu91 2.835 . S
C90 C92 1.500 . S
C90 O106 1.257 . S
C90 O107 1.260 . S
Eu91 C90 2.835 . S
Eu91 O103 2.355 . S
Eu91 O105 2.374 . S
Eu91 O106 2.473 . S
Eu91 O107 2.480 . S
Eu91 O108 2.430 . S
Eu91 O109 2.670 . S
Eu91 O110 2.394 . S
C92 C90 1.500 . S
C92 C93 1.377 . S
C92 C97 1.377 . S
C93 C92 1.377 . S
C93 C94 1.395 . S
C93 H116 0.931 . S
C94 C93 1.395 . S
C94 C95 1.383 . S
C94 H117 0.931 . S
C95 C94 1.383 . S
C95 C96 1.394 . S
C96 C95 1.394 . S
C96 C97 1.378 . S
C96 H118 0.931 . S
C97 C92 1.377 . S
C97 C96 1.378 . S
C97 H119 0.931 . S
C98 O108 1.259 . S
C98 O109 1.270 . S
C99 O110 1.251 . S
C99 O111 1.251 . S
O100 C80 1.257 . S
O100 Eu81 2.473 . S
O101 C80 1.260 . S
O101 Eu81 2.480 . S
O102 Eu81 2.430 . S
O102 C88 1.259 . S
O103 Eu81 2.670 . S
O103 C88 1.270 . S
O103 Eu91 2.355 . S
O104 Eu81 2.394 . S
O104 C89 1.251 . S
O105 C89 1.251 . S
O105 Eu91 2.374 . S
O106 C90 1.257 . S
O106 Eu91 2.473 . S
O107 C90 1.260 . S
O107 Eu91 2.480 . S
O108 Eu91 2.430 . S
O108 C98 1.259 . S
O109 Eu81 2.355 . S
O109 Eu91 2.670 . S
O109 C98 1.270 . S
O110 Eu91 2.394 . S
O110 C99 1.251 . S
O111 Eu81 2.374 . S
O111 C99 1.251 . S
H112 C83 0.931 . S
H113 C84 0.931 . S
H114 C86 0.931 . S
H115 C87 0.931 . S
H116 C93 0.931 . S
H117 C94 0.931 . S
H118 C96 0.931 . S
H119 C97 0.931 . S
C120 Eu121 2.835 . S
C120 C122 1.500 . S
C120 O140 1.257 . S
C120 O141 1.260 . S
Eu121 C120 2.835 . S
Eu121 O140 2.473 . S
Eu121 O141 2.480 . S
Eu121 O142 2.430 . S
Eu121 O143 2.670 . S
Eu121 O144 2.394 . S
Eu121 O149 2.355 . S
Eu121 O151 2.374 . S
C122 C120 1.500 . S
C122 C123 1.377 . S
C122 C127 1.377 . S
C123 C122 1.377 . S
C123 C124 1.395 . S
C123 H152 0.931 . S
C124 C123 1.395 . S
C124 C125 1.383 . S
C124 H153 0.931 . S
C125 C124 1.383 . S
C125 C126 1.394 . S
C126 C125 1.394 . S
C126 C127 1.378 . S
C126 H154 0.931 . S
C127 C122 1.377 . S
C127 C126 1.378 . S
C127 H155 0.931 . S
C128 O142 1.259 . S
C128 O143 1.270 . S
C129 O144 1.251 . S
C129 O145 1.251 . S
C130 Eu131 2.835 . S
C130 C132 1.500 . S
C130 O146 1.257 . S
C130 O147 1.260 . S
Eu131 C130 2.835 . S
Eu131 O143 2.355 . S
Eu131 O145 2.374 . S
Eu131 O146 2.473 . S
Eu131 O147 2.480 . S
Eu131 O148 2.430 . S
Eu131 O149 2.670 . S
Eu131 O150 2.394 . S
C132 C130 1.500 . S
C132 C133 1.377 . S
C132 C137 1.377 . S
C133 C132 1.377 . S
C133 C134 1.395 . S
C133 H156 0.931 . S
C134 C133 1.395 . S
C134 C135 1.383 . S
C134 H157 0.931 . S
C135 C134 1.383 . S
C135 C136 1.394 . S
C136 C135 1.394 . S
C136 C137 1.378 . S
C136 H158 0.931 . S
C137 C132 1.377 . S
C137 C136 1.378 . S
C137 H159 0.931 . S
C138 O148 1.259 . S
C138 O149 1.270 . S
C139 O150 1.251 . S
C139 O151 1.251 . S
O140 C120 1.257 . S
O140 Eu121 2.473 . S
O141 C120 1.260 . S
O141 Eu121 2.480 . S
O142 Eu121 2.430 . S
O142 C128 1.259 . S
O143 Eu121 2.670 . S
O143 C128 1.270 . S
O143 Eu131 2.355 . S
O144 Eu121 2.394 . S
O144 C129 1.251 . S
O145 C129 1.251 . S
O145 Eu131 2.374 . S
O146 C130 1.257 . S
O146 Eu131 2.473 . S
O147 C130 1.260 . S
O147 Eu131 2.480 . S
O148 Eu131 2.430 . S
O148 C138 1.259 . S
O149 Eu121 2.355 . S
O149 Eu131 2.670 . S
O149 C138 1.270 . S
O150 Eu131 2.394 . S
O150 C139 1.251 . S
O151 Eu121 2.374 . S
O151 C139 1.251 . S
H152 C123 0.931 . S
H153 C124 0.931 . S
H154 C126 0.931 . S
H155 C127 0.931 . S
H156 C133 0.931 . S
H157 C134 0.931 . S
H158 C136 0.931 . S
H159 C137 0.931 . S
C160 Eu161 2.835 1_554 S
C160 C162 1.500 . S
C160 O180 1.257 . S
C160 O181 1.260 . S
Eu161 C160 2.835 1_556 S
Eu161 O180 2.473 1_556 S
Eu161 O181 2.480 1_556 S
Eu161 O182 2.430 . S
Eu161 O183 2.670 . S
Eu161 O184 2.394 1_556 S
Eu161 O189 2.355 1_556 S
Eu161 O191 2.374 . S
C162 C160 1.500 . S
C162 C163 1.377 . S
C162 C167 1.377 . S
C163 C162 1.377 . S
C163 C164 1.395 . S
C163 H192 0.931 . S
C164 C163 1.395 . S
C164 C165 1.383 . S
C164 H193 0.931 . S
C165 C164 1.383 . S
C165 C166 1.394 . S
C166 C165 1.394 . S
C166 C167 1.378 . S
C166 H194 0.931 . S
C167 C162 1.377 . S
C167 C166 1.378 . S
C167 H195 0.931 . S
C168 O182 1.259 . S
C168 O183 1.270 . S
C169 O184 1.251 . S
C169 O185 1.251 . S
C170 Eu171 2.835 1_556 S
C170 C172 1.500 . S
C170 O186 1.257 . S
C170 O187 1.260 . S
Eu171 C170 2.835 1_554 S
Eu171 O183 2.355 1_554 S
Eu171 O185 2.374 . S
Eu171 O186 2.473 1_554 S
Eu171 O187 2.480 1_554 S
Eu171 O188 2.430 . S
Eu171 O189 2.670 . S
Eu171 O190 2.394 1_554 S
C172 C170 1.500 . S
C172 C173 1.377 . S
C172 C177 1.377 . S
C173 C172 1.377 . S
C173 C174 1.395 . S
C173 H196 0.931 . S
C174 C173 1.395 . S
C174 C175 1.383 . S
C174 H197 0.931 . S
C175 C174 1.383 . S
C175 C176 1.394 . S
C176 C175 1.394 . S
C176 C177 1.378 . S
C176 H198 0.931 . S
C177 C172 1.377 . S
C177 C176 1.378 . S
C177 H199 0.931 . S
C178 O188 1.259 . S
C178 O189 1.270 . S
C179 O190 1.251 . S
C179 O191 1.251 . S
O180 C160 1.257 . S
O180 Eu161 2.473 1_554 S
O181 C160 1.260 . S
O181 Eu161 2.480 1_554 S
O182 Eu161 2.430 . S
O182 C168 1.259 . S
O183 Eu161 2.670 . S
O183 C168 1.270 . S
O183 Eu171 2.355 1_556 S
O184 Eu161 2.394 1_554 S
O184 C169 1.251 . S
O185 C169 1.251 . S
O185 Eu171 2.374 . S
O186 C170 1.257 . S
O186 Eu171 2.473 1_556 S
O187 C170 1.260 . S
O187 Eu171 2.480 1_556 S
O188 Eu171 2.430 . S
O188 C178 1.259 . S
O189 Eu161 2.355 1_554 S
O189 Eu171 2.670 . S
O189 C178 1.270 . S
O190 Eu171 2.394 1_556 S
O190 C179 1.251 . S
O191 Eu161 2.374 . S
O191 C179 1.251 . S
H192 C163 0.931 . S
H193 C164 0.931 . S
H194 C166 0.931 . S
H195 C167 0.931 . S
H196 C173 0.931 . S
H197 C174 0.931 . S
H198 C176 0.931 . S
H199 C177 0.931 . S
C200 Eu201 2.835 1_554 S
C200 C202 1.500 . S
C200 O220 1.257 . S
C200 O221 1.260 . S
Eu201 C200 2.835 1_556 S
Eu201 O220 2.473 1_556 S
Eu201 O221 2.480 1_556 S
Eu201 O222 2.430 . S
Eu201 O223 2.670 . S
Eu201 O224 2.394 1_556 S
Eu201 O229 2.355 1_556 S
Eu201 O231 2.374 . S
C202 C200 1.500 . S
C202 C203 1.377 . S
C202 C207 1.377 . S
C203 C202 1.377 . S
C203 C204 1.395 . S
C203 H232 0.931 . S
C204 C203 1.395 . S
C204 C205 1.383 . S
C204 H233 0.931 . S
C205 C204 1.383 . S
C205 C206 1.394 . S
C206 C205 1.394 . S
C206 C207 1.378 . S
C206 H234 0.931 . S
C207 C202 1.377 . S
C207 C206 1.378 . S
C207 H235 0.931 . S
C208 O222 1.259 . S
C208 O223 1.270 . S
C209 O224 1.251 . S
C209 O225 1.251 . S
C210 Eu211 2.835 1_556 S
C210 C212 1.500 . S
C210 O226 1.257 . S
C210 O227 1.260 . S
Eu211 C210 2.835 1_554 S
Eu211 O223 2.355 1_554 S
Eu211 O225 2.374 . S
Eu211 O226 2.473 1_554 S
Eu211 O227 2.480 1_554 S
Eu211 O228 2.430 . S
Eu211 O229 2.670 . S
Eu211 O230 2.394 1_554 S
C212 C210 1.500 . S
C212 C213 1.377 . S
C212 C217 1.377 . S
C213 C212 1.377 . S
C213 C214 1.395 . S
C213 H236 0.931 . S
C214 C213 1.395 . S
C214 C215 1.383 . S
C214 H237 0.931 . S
C215 C214 1.383 . S
C215 C216 1.394 . S
C216 C215 1.394 . S
C216 C217 1.378 . S
C216 H238 0.931 . S
C217 C212 1.377 . S
C217 C216 1.378 . S
C217 H239 0.931 . S
C218 O228 1.259 . S
C218 O229 1.270 . S
C219 O230 1.251 . S
C219 O231 1.251 . S
O220 C200 1.257 . S
O220 Eu201 2.473 1_554 S
O221 C200 1.260 . S
O221 Eu201 2.480 1_554 S
O222 Eu201 2.430 . S
O222 C208 1.259 . S
O223 Eu201 2.670 . S
O223 C208 1.270 . S
O223 Eu211 2.355 1_556 S
O224 Eu201 2.394 1_554 S
O224 C209 1.251 . S
O225 C209 1.251 . S
O225 Eu211 2.374 . S
O226 C210 1.257 . S
O226 Eu211 2.473 1_556 S
O227 C210 1.260 . S
O227 Eu211 2.480 1_556 S
O228 Eu211 2.430 . S
O228 C218 1.259 . S
O229 Eu201 2.355 1_554 S
O229 Eu211 2.670 . S
O229 C218 1.270 . S
O230 Eu211 2.394 1_556 S
O230 C219 1.251 . S
O231 Eu201 2.374 . S
O231 C219 1.251 . S
H232 C203 0.931 . S
H233 C204 0.931 . S
H234 C206 0.931 . S
H235 C207 0.931 . S
H236 C213 0.931 . S
H237 C214 0.931 . S
H238 C216 0.931 . S
H239 C217 0.931 . S
C240 Eu241 2.835 1_554 S
C240 C242 1.500 . S
C240 O260 1.257 . S
C240 O261 1.260 . S
Eu241 C240 2.835 1_556 S
Eu241 O260 2.473 1_556 S
Eu241 O261 2.480 1_556 S
Eu241 O262 2.430 . S
Eu241 O263 2.670 . S
Eu241 O264 2.394 1_556 S
Eu241 O269 2.355 1_556 S
Eu241 O271 2.374 . S
C242 C240 1.500 . S
C242 C243 1.377 . S
C242 C247 1.377 . S
C243 C242 1.377 . S
C243 C244 1.395 . S
C243 H272 0.931 . S
C244 C243 1.395 . S
C244 C245 1.383 . S
C244 H273 0.931 . S
C245 C244 1.383 . S
C245 C246 1.394 . S
C246 C245 1.394 . S
C246 C247 1.378 . S
C246 H274 0.931 . S
C247 C242 1.377 . S
C247 C246 1.378 . S
C247 H275 0.931 . S
C248 O262 1.259 . S
C248 O263 1.270 . S
C249 O264 1.251 . S
C249 O265 1.251 . S
C250 Eu251 2.835 1_556 S
C250 C252 1.500 . S
C250 O266 1.257 . S
C250 O267 1.260 . S
Eu251 C250 2.835 1_554 S
Eu251 O263 2.355 1_554 S
Eu251 O265 2.374 . S
Eu251 O266 2.473 1_554 S
Eu251 O267 2.480 1_554 S
Eu251 O268 2.430 . S
Eu251 O269 2.670 . S
Eu251 O270 2.394 1_554 S
C252 C250 1.500 . S
C252 C253 1.377 . S
C252 C257 1.377 . S
C253 C252 1.377 . S
C253 C254 1.395 . S
C253 H276 0.931 . S
C254 C253 1.395 . S
C254 C255 1.383 . S
C254 H277 0.931 . S
C255 C254 1.383 . S
C255 C256 1.394 . S
C256 C255 1.394 . S
C256 C257 1.378 . S
C256 H278 0.931 . S
C257 C252 1.377 . S
C257 C256 1.378 . S
C257 H279 0.931 . S
C258 O268 1.259 . S
C258 O269 1.270 . S
C259 O270 1.251 . S
C259 O271 1.251 . S
O260 C240 1.257 . S
O260 Eu241 2.473 1_554 S
O261 C240 1.260 . S
O261 Eu241 2.480 1_554 S
O262 Eu241 2.430 . S
O262 C248 1.259 . S
O263 Eu241 2.670 . S
O263 C248 1.270 . S
O263 Eu251 2.355 1_556 S
O264 Eu241 2.394 1_554 S
O264 C249 1.251 . S
O265 C249 1.251 . S
O265 Eu251 2.374 . S
O266 C250 1.257 . S
O266 Eu251 2.473 1_556 S
O267 C250 1.260 . S
O267 Eu251 2.480 1_556 S
O268 Eu251 2.430 . S
O268 C258 1.259 . S
O269 Eu241 2.355 1_554 S
O269 Eu251 2.670 . S
O269 C258 1.270 . S
O270 Eu251 2.394 1_556 S
O270 C259 1.251 . S
O271 Eu241 2.374 . S
O271 C259 1.251 . S
H272 C243 0.931 . S
H273 C244 0.931 . S
H274 C246 0.931 . S
H275 C247 0.931 . S
H276 C253 0.931 . S
H277 C254 0.931 . S
H278 C256 0.931 . S
H279 C257 0.931 . S
C280 Eu281 2.835 1_554 S
C280 C282 1.500 . S
C280 O300 1.257 . S
C280 O301 1.260 . S
Eu281 C280 2.835 1_556 S
Eu281 O300 2.473 1_556 S
Eu281 O301 2.480 1_556 S
Eu281 O302 2.430 . S
Eu281 O303 2.670 . S
Eu281 O304 2.394 1_556 S
Eu281 O309 2.355 1_556 S
Eu281 O311 2.374 . S
C282 C280 1.500 . S
C282 C283 1.377 . S
C282 C287 1.377 . S
C283 C282 1.377 . S
C283 C284 1.395 . S
C283 H312 0.931 . S
C284 C283 1.395 . S
C284 C285 1.383 . S
C284 H313 0.931 . S
C285 C284 1.383 . S
C285 C286 1.394 . S
C286 C285 1.394 . S
C286 C287 1.378 . S
C286 H314 0.931 . S
C287 C282 1.377 . S
C287 C286 1.378 . S
C287 H315 0.931 . S
C288 O302 1.259 . S
C288 O303 1.270 . S
C289 O304 1.251 . S
C289 O305 1.251 . S
C290 Eu291 2.835 1_556 S
C290 C292 1.500 . S
C290 O306 1.257 . S
C290 O307 1.260 . S
Eu291 C290 2.835 1_554 S
Eu291 O303 2.355 1_554 S
Eu291 O305 2.374 . S
Eu291 O306 2.473 1_554 S
Eu291 O307 2.480 1_554 S
Eu291 O308 2.430 . S
Eu291 O309 2.670 . S
Eu291 O310 2.394 1_554 S
C292 C290 1.500 . S
C292 C293 1.377 . S
C292 C297 1.377 . S
C293 C292 1.377 . S
C293 C294 1.395 . S
C293 H316 0.931 . S
C294 C293 1.395 . S
C294 C295 1.383 . S
C294 H317 0.931 . S
C295 C294 1.383 . S
C295 C296 1.394 . S
C296 C295 1.394 . S
C296 C297 1.378 . S
C296 H318 0.931 . S
C297 C292 1.377 . S
C297 C296 1.378 . S
C297 H319 0.931 . S
C298 O308 1.259 . S
C298 O309 1.270 . S
C299 O310 1.251 . S
C299 O311 1.251 . S
O300 C280 1.257 . S
O300 Eu281 2.473 1_554 S
O301 C280 1.260 . S
O301 Eu281 2.480 1_554 S
O302 Eu281 2.430 . S
O302 C288 1.259 . S
O303 Eu281 2.670 . S
O303 C288 1.270 . S
O303 Eu291 2.355 1_556 S
O304 Eu281 2.394 1_554 S
O304 C289 1.251 . S
O305 C289 1.251 . S
O305 Eu291 2.374 . S
O306 C290 1.257 . S
O306 Eu291 2.473 1_556 S
O307 C290 1.260 . S
O307 Eu291 2.480 1_556 S
O308 Eu291 2.430 . S
O308 C298 1.259 . S
O309 Eu281 2.355 1_554 S
O309 Eu291 2.670 . S
O309 C298 1.270 . S
O310 Eu291 2.394 1_556 S
O310 C299 1.251 . S
O311 Eu281 2.374 . S
O311 C299 1.251 . S
H312 C283 0.931 . S
H313 C284 0.931 . S
H314 C286 0.931 . S
H315 C287 0.931 . S
H316 C293 0.931 . S
H317 C294 0.931 . S
H318 C296 0.931 . S
H319 C297 0.931 . S
C320 C321 1.363 . S
C320 C326 1.379 . S
C320 N328 1.356 . S
C321 C320 1.363 . S
C321 C327 1.363 . S
C322 C323 1.363 . S
C322 C327 1.379 . S
C322 N329 1.356 . S
C323 C322 1.363 . S
C323 C326 1.363 . S
N324 C326 1.356 . S
N324 H336 0.984 . S
N324 H337 0.985 . S
N325 C327 1.356 . S
N325 H330 0.984 . S
N325 H331 0.985 . S
C326 C320 1.379 . S
C326 C323 1.363 . S
C326 N324 1.356 . S
C327 C321 1.363 . S
C327 C322 1.379 . S
C327 N325 1.356 . S
N328 C320 1.356 . S
N328 H334 0.984 . S
N328 H335 0.984 . S
N329 C322 1.356 . S
N329 H332 0.984 . S
N329 H333 0.985 . S
H330 N325 0.984 . S
H331 N325 0.985 . S
H332 N329 0.984 . S
H333 N329 0.985 . S
H334 N328 0.984 . S
H335 N328 0.984 . S
H336 N324 0.984 . S
H337 N324 0.985 . S
C338 C339 1.363 . S
C338 C344 1.379 . S
C338 N346 1.356 . S
C339 C338 1.363 . S
C339 C345 1.363 . S
C340 C341 1.363 . S
C340 C345 1.379 . S
C340 N347 1.356 . S
C341 C340 1.363 . S
C341 C344 1.363 . S
N342 C344 1.356 . S
N342 H354 0.984 . S
N342 H355 0.985 . S
N343 C345 1.356 . S
N343 H348 0.984 . S
N343 H349 0.985 . S
C344 C338 1.379 . S
C344 C341 1.363 . S
C344 N342 1.356 . S
C345 C339 1.363 . S
C345 C340 1.379 . S
C345 N343 1.356 . S
N346 C338 1.356 . S
N346 H352 0.984 . S
N346 H353 0.984 . S
N347 C340 1.356 . S
N347 H350 0.984 . S
N347 H351 0.985 . S
H348 N343 0.984 . S
H349 N343 0.985 . S
H350 N347 0.984 . S
H351 N347 0.985 . S
H352 N346 0.984 . S
H353 N346 0.984 . S
H354 N342 0.984 . S
H355 N342 0.985 . S
C356 C357 1.363 . S
C356 C362 1.379 . S
C356 N364 1.356 . S
C357 C356 1.363 . S
C357 C363 1.363 . S
C358 C359 1.363 . S
C358 C363 1.379 . S
C358 N365 1.356 . S
C359 C358 1.363 . S
C359 C362 1.363 . S
N360 C362 1.356 . S
N360 H372 0.984 . S
N360 H373 0.985 . S
N361 C363 1.356 . S
N361 H366 0.984 . S
N361 H367 0.985 . S
C362 C356 1.379 . S
C362 C359 1.363 . S
C362 N360 1.356 . S
C363 C357 1.363 . S
C363 C358 1.379 . S
C363 N361 1.356 . S
N364 C356 1.356 . S
N364 H370 0.984 . S
N364 H371 0.984 . S
N365 C358 1.356 . S
N365 H368 0.984 . S
N365 H369 0.985 . S
H366 N361 0.984 . S
H367 N361 0.985 . S
H368 N365 0.984 . S
H369 N365 0.985 . S
H370 N364 0.984 . S
H371 N364 0.984 . S
H372 N360 0.984 . S
H373 N360 0.985 . S
C374 C375 1.363 . S
C374 C380 1.379 . S
C374 N382 1.356 . S
C375 C374 1.363 . S
C375 C381 1.363 . S
C376 C377 1.363 . S
C376 C381 1.379 . S
C376 N383 1.356 . S
C377 C376 1.363 . S
C377 C380 1.363 . S
N378 C380 1.356 . S
N378 H390 0.984 . S
N378 H391 0.985 . S
N379 C381 1.356 . S
N379 H384 0.984 . S
N379 H385 0.985 . S
C380 C374 1.379 . S
C380 C377 1.363 . S
C380 N378 1.356 . S
C381 C375 1.363 . S
C381 C376 1.379 . S
C381 N379 1.356 . S
N382 C374 1.356 . S
N382 H388 0.984 . S
N382 H389 0.984 . S
N383 C376 1.356 . S
N383 H386 0.984 . S
N383 H387 0.985 . S
H384 N379 0.984 . S
H385 N379 0.985 . S
H386 N383 0.984 . S
H387 N383 0.985 . S
H388 N382 0.984 . S
H389 N382 0.984 . S
H390 N378 0.984 . S
H391 N378 0.985 . S
C392 C393 1.363 . S
C392 C398 1.379 1_565 S
C392 N400 1.356 . S
C393 C392 1.363 . S
C393 C399 1.363 . S
C394 C395 1.363 . S
C394 C399 1.379 1_545 S
C394 N401 1.356 . S
C395 C394 1.363 . S
C395 C398 1.363 . S
N396 C398 1.356 . S
N396 H408 0.984 . S
N396 H409 0.985 . S
N397 C399 1.356 . S
N397 H402 0.984 . S
N397 H403 0.985 . S
C398 C392 1.379 1_545 S
C398 C395 1.363 . S
C398 N396 1.356 . S
C399 C393 1.363 . S
C399 C394 1.379 1_565 S
C399 N397 1.356 . S
N400 C392 1.356 . S
N400 H406 0.984 . S
N400 H407 0.984 . S
N401 C394 1.356 . S
N401 H404 0.984 . S
N401 H405 0.985 . S
H402 N397 0.984 . S
H403 N397 0.985 . S
H404 N401 0.984 . S
H405 N401 0.985 . S
H406 N400 0.984 . S
H407 N400 0.984 . S
H408 N396 0.984 . S
H409 N396 0.985 . S
C410 C411 1.363 . S
C410 C416 1.379 . S
C410 N418 1.356 . S
C411 C410 1.363 . S
C411 C417 1.363 . S
C412 C413 1.363 . S
C412 C417 1.379 . S
C412 N419 1.356 . S
C413 C412 1.363 . S
C413 C416 1.363 . S
N414 C416 1.356 . S
N414 H426 0.984 . S
N414 H427 0.985 . S
N415 C417 1.356 . S
N415 H420 0.984 . S
N415 H421 0.985 . S
C416 C410 1.379 . S
C416 C413 1.363 . S
C416 N414 1.356 . S
C417 C411 1.363 . S
C417 C412 1.379 . S
C417 N415 1.356 . S
N418 C410 1.356 . S
N418 H424 0.984 . S
N418 H425 0.984 . S
N419 C412 1.356 . S
N419 H422 0.984 . S
N419 H423 0.985 . S
H420 N415 0.984 . S
H421 N415 0.985 . S
H422 N419 0.984 . S
H423 N419 0.985 . S
H424 N418 0.984 . S
H425 N418 0.984 . S
H426 N414 0.984 . S
H427 N414 0.985 . S
C428 C429 1.363 . S
C428 C434 1.379 1_565 S
C428 N436 1.356 . S
C429 C428 1.363 . S
C429 C435 1.363 . S
C430 C431 1.363 . S
C430 C435 1.379 1_545 S
C430 N437 1.356 . S
C431 C430 1.363 . S
C431 C434 1.363 . S
N432 C434 1.356 . S
N432 H444 0.984 . S
N432 H445 0.985 . S
N433 C435 1.356 . S
N433 H438 0.984 . S
N433 H439 0.985 . S
C434 C428 1.379 1_545 S
C434 C431 1.363 . S
C434 N432 1.356 . S
C435 C429 1.363 . S
C435 C430 1.379 1_565 S
C435 N433 1.356 . S
N436 C428 1.356 . S
N436 H442 0.984 . S
N436 H443 0.984 . S
N437 C430 1.356 . S
N437 H440 0.984 . S
N437 H441 0.985 . S
H438 N433 0.984 . S
H439 N433 0.985 . S
H440 N437 0.984 . S
H441 N437 0.985 . S
H442 N436 0.984 . S
H443 N436 0.984 . S
H444 N432 0.984 . S
H445 N432 0.985 . S
C446 C447 1.363 . S
C446 C452 1.379 . S
C446 N454 1.356 . S
C447 C446 1.363 . S
C447 C453 1.363 . S
C448 C449 1.363 . S
C448 C453 1.379 . S
C448 N455 1.356 . S
C449 C448 1.363 . S
C449 C452 1.363 . S
N450 C452 1.356 . S
N450 H462 0.984 . S
N450 H463 0.985 . S
N451 C453 1.356 . S
N451 H456 0.984 . S
N451 H457 0.985 . S
C452 C446 1.379 . S
C452 C449 1.363 . S
C452 N450 1.356 . S
C453 C447 1.363 . S
C453 C448 1.379 . S
C453 N451 1.356 . S
N454 C446 1.356 . S
N454 H460 0.984 . S
N454 H461 0.984 . S
N455 C448 1.356 . S
N455 H458 0.984 . S
N455 H459 0.985 . S
H456 N451 0.984 . S
H457 N451 0.985 . S
H458 N455 0.984 . S
H459 N455 0.985 . S
H460 N454 0.984 . S
H461 N454 0.984 . S
H462 N450 0.984 . S
H463 N450 0.985 . S
C464 C465 1.363 . S
C464 C470 1.379 . S
C464 N472 1.356 . S
C465 C464 1.363 . S
C465 C471 1.363 1_556 S
C466 C467 1.363 1_554 S
C466 C471 1.379 . S
C466 N473 1.356 . S
C467 C466 1.363 1_556 S
C467 C470 1.363 . S
N468 C470 1.356 . S
N468 H480 0.984 . S
N468 H481 0.985 . S
N469 C471 1.356 . S
N469 H474 0.984 . S
N469 H475 0.985 . S
C470 C464 1.379 . S
C470 C467 1.363 . S
C470 N468 1.356 . S
C471 C465 1.363 1_554 S
C471 C466 1.379 . S
C471 N469 1.356 . S
N472 C464 1.356 . S
N472 H478 0.984 . S
N472 H479 0.984 . S
N473 C466 1.356 . S
N473 H476 0.984 . S
N473 H477 0.985 . S
H474 N469 0.984 . S
H475 N469 0.985 . S
H476 N473 0.984 . S
H477 N473 0.985 . S
H478 N472 0.984 . S
H479 N472 0.984 . S
H480 N468 0.984 . S
H481 N468 0.985 . S
C482 C483 1.363 1_554 S
C482 C488 1.379 1_565 S
C482 N490 1.356 . S
C483 C482 1.363 1_556 S
C483 C489 1.363 . S
C484 C485 1.363 . S
C484 C489 1.379 1_545 S
C484 N491 1.356 . S
C485 C484 1.363 . S
C485 C488 1.363 1_556 S
N486 C488 1.356 . S
N486 H498 0.984 . S
N486 H499 0.985 . S
N487 C489 1.356 . S
N487 H492 0.984 . S
N487 H493 0.985 . S
C488 C482 1.379 1_545 S
C488 C485 1.363 1_554 S
C488 N486 1.356 . S
C489 C483 1.363 . S
C489 C484 1.379 1_565 S
C489 N487 1.356 . S
N490 C482 1.356 . S
N490 H496 0.984 . S
N490 H497 0.984 . S
N491 C484 1.356 . S
N491 H494 0.984 . S
N491 H495 0.985 . S
H492 N487 0.984 . S
H493 N487 0.985 . S
H494 N491 0.984 . S
H495 N491 0.985 . S
H496 N490 0.984 . S
H497 N490 0.984 . S
H498 N486 0.984 . S
H499 N486 0.985 . S
C500 C501 1.363 1_556 S
C500 C506 1.379 . S
C500 N508 1.356 . S
C501 C500 1.363 1_554 S
C501 C507 1.363 . S
C502 C503 1.363 . S
C502 C507 1.379 . S
C502 N509 1.356 . S
C503 C502 1.363 . S
C503 C506 1.363 1_554 S
N504 C506 1.356 . S
N504 H516 0.984 . S
N504 H517 0.985 . S
N505 C507 1.356 . S
N505 H510 0.984 . S
N505 H511 0.985 . S
C506 C500 1.379 . S
C506 C503 1.363 1_556 S
C506 N504 1.356 . S
C507 C501 1.363 . S
C507 C502 1.379 . S
C507 N505 1.356 . S
N508 C500 1.356 . S
N508 H514 0.984 . S
N508 H515 0.984 . S
N509 C502 1.356 . S
N509 H512 0.984 . S
N509 H513 0.985 . S
H510 N505 0.984 . S
H511 N505 0.985 . S
H512 N509 0.984 . S
H513 N509 0.985 . S
H514 N508 0.984 . S
H515 N508 0.984 . S
H516 N504 0.984 . S
H517 N504 0.985 . S
C518 C519 1.363 1_556 S
C518 C524 1.379 1_545 S
C518 N526 1.356 . S
C519 C518 1.363 1_554 S
C519 C525 1.363 . S
C520 C521 1.363 . S
C520 C525 1.379 1_565 S
C520 N527 1.356 . S
C521 C520 1.363 . S
C521 C524 1.363 1_554 S
N522 C524 1.356 . S
N522 H534 0.984 . S
N522 H535 0.985 . S
N523 C525 1.356 . S
N523 H528 0.984 . S
N523 H529 0.985 . S
C524 C518 1.379 1_565 S
C524 C521 1.363 1_556 S
C524 N522 1.356 . S
C525 C519 1.363 . S
C525 C520 1.379 1_545 S
C525 N523 1.356 . S
N526 C518 1.356 . S
N526 H532 0.984 . S
N526 H533 0.984 . S
N527 C520 1.356 . S
N527 H530 0.984 . S
N527 H531 0.985 . S
H528 N523 0.984 . S
H529 N523 0.985 . S
H530 N527 0.984 . S
H531 N527 0.985 . S
H532 N526 0.984 . S
H533 N526 0.984 . S
H534 N522 0.984 . S
H535 N522 0.985 . S
C536 C537 1.363 1_556 S
C536 C542 1.379 . S
C536 N544 1.356 1_556 S
C537 C536 1.363 1_554 S
C537 C543 1.363 1_554 S
C538 C539 1.363 . S
C538 C543 1.379 . S
C538 N545 1.356 . S
C539 C538 1.363 . S
C539 C542 1.363 . S
N540 C542 1.356 . S
N540 H552 0.984 . S
N540 H553 0.985 . S
N541 C543 1.356 1_554 S
N541 H546 0.984 . S
N541 H547 0.985 . S
C542 C536 1.379 . S
C542 C539 1.363 . S
C542 N540 1.356 . S
C543 C537 1.363 1_556 S
C543 C538 1.379 . S
C543 N541 1.356 1_556 S
N544 C536 1.356 1_554 S
N544 H550 0.984 . S
N544 H551 0.984 . S
N545 C538 1.356 . S
N545 H548 0.984 . S
N545 H549 0.985 . S
H546 N541 0.984 . S
H547 N541 0.985 . S
H548 N545 0.984 . S
H549 N545 0.985 . S
H550 N544 0.984 . S
H551 N544 0.984 . S
H552 N540 0.984 . S
H553 N540 0.985 . S
C554 C555 1.363 1_556 S
C554 C560 1.379 . S
C554 N562 1.356 1_556 S
C555 C554 1.363 1_554 S
C555 C561 1.363 1_554 S
C556 C557 1.363 . S
C556 C561 1.379 . S
C556 N563 1.356 . S
C557 C556 1.363 . S
C557 C560 1.363 . S
N558 C560 1.356 . S
N558 H570 0.984 . S
N558 H571 0.985 . S
N559 C561 1.356 1_554 S
N559 H564 0.984 . S
N559 H565 0.985 . S
C560 C554 1.379 . S
C560 C557 1.363 . S
C560 N558 1.356 . S
C561 C555 1.363 1_556 S
C561 C556 1.379 . S
C561 N559 1.356 1_556 S
N562 C554 1.356 1_554 S
N562 H568 0.984 . S
N562 H569 0.984 . S
N563 C556 1.356 . S
N563 H566 0.984 . S
N563 H567 0.985 . S
H564 N559 0.984 . S
H565 N559 0.985 . S
H566 N563 0.984 . S
H567 N563 0.985 . S
H568 N562 0.984 . S
H569 N562 0.984 . S
H570 N558 0.984 . S
H571 N558 0.985 . S
C572 C573 1.363 . S
C572 C578 1.379 . S
C572 N580 1.356 . S
C573 C572 1.363 . S
C573 C579 1.363 . S
C574 C575 1.363 1_554 S
C574 C579 1.379 . S
C574 N581 1.356 1_554 S
C575 C574 1.363 1_556 S
C575 C578 1.363 1_556 S
N576 C578 1.356 1_556 S
N576 H588 0.984 . S
N576 H589 0.985 . S
N577 C579 1.356 . S
N577 H582 0.984 . S
N577 H583 0.985 . S
C578 C572 1.379 . S
C578 C575 1.363 1_554 S
C578 N576 1.356 1_554 S
C579 C573 1.363 . S
C579 C574 1.379 . S
C579 N577 1.356 . S
N580 C572 1.356 . S
N580 H586 0.984 . S
N580 H587 0.984 . S
N581 C574 1.356 1_556 S
N581 H584 0.984 . S
N581 H585 0.985 . S
H582 N577 0.984 . S
H583 N577 0.985 . S
H584 N581 0.984 . S
H585 N581 0.985 . S
H586 N580 0.984 . S
H587 N580 0.984 . S
H588 N576 0.984 . S
H589 N576 0.985 . S
C590 C591 1.363 1_554 S
C590 C596 1.379 . S
C590 N598 1.356 1_554 S
C591 C590 1.363 1_556 S
C591 C597 1.363 1_556 S
C592 C593 1.363 . S
C592 C597 1.379 . S
C592 N599 1.356 . S
C593 C592 1.363 . S
C593 C596 1.363 . S
N594 C596 1.356 . S
N594 H606 0.984 . S
N594 H607 0.985 . S
N595 C597 1.356 1_556 S
N595 H600 0.984 . S
N595 H601 0.985 . S
C596 C590 1.379 . S
C596 C593 1.363 . S
C596 N594 1.356 . S
C597 C591 1.363 1_554 S
C597 C592 1.379 . S
C597 N595 1.356 1_554 S
N598 C590 1.356 1_556 S
N598 H604 0.984 1_556 S
N598 H605 0.984 . S
N599 C592 1.356 . S
N599 H602 0.984 . S
N599 H603 0.985 . S
H600 N595 0.984 . S
H601 N595 0.985 . S
H602 N599 0.984 . S
H603 N599 0.985 . S
H604 N598 0.984 1_554 S
H605 N598 0.984 . S
H606 N594 0.984 . S
H607 N594 0.985 . S
C608 C609 1.363 . S
C608 C614 1.379 . S
C608 N616 1.356 . S
C609 C608 1.363 . S
C609 C615 1.363 . S
C610 C611 1.363 . S
C610 C615 1.379 . S
C610 N617 1.356 . S
C611 C610 1.363 . S
C611 C614 1.363 . S
N612 C614 1.356 . S
N612 H624 0.984 . S
N612 H625 0.985 . S
N613 C615 1.356 . S
N613 H618 0.984 . S
N613 H619 0.985 . S
C614 C608 1.379 . S
C614 C611 1.363 . S
C614 N612 1.356 . S
C615 C609 1.363 . S
C615 C610 1.379 . S
C615 N613 1.356 . S
N616 C608 1.356 . S
N616 H622 0.984 . S
N616 H623 0.984 . S
N617 C610 1.356 . S
N617 H620 0.984 . S
N617 H621 0.985 . S
H618 N613 0.984 . S
H619 N613 0.985 . S
H620 N617 0.984 . S
H621 N617 0.985 . S
H622 N616 0.984 . S
H623 N616 0.984 . S
H624 N612 0.984 . S
H625 N612 0.985 . S
C626 C627 1.363 . S
C626 C632 1.379 . S
C626 N634 1.356 . S
C627 C626 1.363 . S
C627 C633 1.363 . S
C628 C629 1.363 . S
C628 C633 1.379 . S
C628 N635 1.356 . S
C629 C628 1.363 . S
C629 C632 1.363 . S
N630 C632 1.356 . S
N630 H642 0.984 . S
N630 H643 0.985 . S
N631 C633 1.356 . S
N631 H636 0.984 . S
N631 H637 0.985 . S
C632 C626 1.379 . S
C632 C629 1.363 . S
C632 N630 1.356 . S
C633 C627 1.363 . S
C633 C628 1.379 . S
C633 N631 1.356 . S
N634 C626 1.356 . S
N634 H640 0.984 . S
N634 H641 0.984 . S
N635 C628 1.356 . S
N635 H638 0.984 . S
N635 H639 0.985 . S
H636 N631 0.984 . S
H637 N631 0.985 . S
H638 N635 0.984 . S
H639 N635 0.985 . S
H640 N634 0.984 . S
H641 N634 0.984 . S
H642 N630 0.984 . S
H643 N630 0.985 . S
C644 C645 1.363 . S
C644 C650 1.379 . S
C644 N652 1.356 . S
C645 C644 1.363 . S
C645 C651 1.363 . S
C646 C647 1.363 . S
C646 C651 1.379 . S
C646 N653 1.356 . S
C647 C646 1.363 . S
C647 C650 1.363 . S
N648 C650 1.356 . S
N648 H660 0.984 . S
N648 H661 0.985 . S
N649 C651 1.356 . S
N649 H654 0.984 . S
N649 H655 0.985 . S
C650 C644 1.379 . S
C650 C647 1.363 . S
C650 N648 1.356 . S
C651 C645 1.363 . S
C651 C646 1.379 . S
C651 N649 1.356 . S
N652 C644 1.356 . S
N652 H658 0.984 . S
N652 H659 0.984 . S
N653 C646 1.356 . S
N653 H656 0.984 . S
N653 H657 0.985 . S
H654 N649 0.984 . S
H655 N649 0.985 . S
H656 N653 0.984 . S
H657 N653 0.985 . S
H658 N652 0.984 . S
H659 N652 0.984 . S
H660 N648 0.984 . S
H661 N648 0.985 . S
C662 C663 1.363 . S
C662 C668 1.379 . S
C662 N670 1.356 . S
C663 C662 1.363 . S
C663 C669 1.363 . S
C664 C665 1.363 . S
C664 C669 1.379 . S
C664 N671 1.356 . S
C665 C664 1.363 . S
C665 C668 1.363 . S
N666 C668 1.356 . S
N666 H678 0.984 . S
N666 H679 0.985 . S
N667 C669 1.356 . S
N667 H672 0.984 . S
N667 H673 0.985 . S
C668 C662 1.379 . S
C668 C665 1.363 . S
C668 N666 1.356 . S
C669 C663 1.363 . S
C669 C664 1.379 . S
C669 N667 1.356 . S
N670 C662 1.356 . S
N670 H676 0.984 . S
N670 H677 0.984 . S
N671 C664 1.356 . S
N671 H674 0.984 . S
N671 H675 0.985 . S
H672 N667 0.984 . S
H673 N667 0.985 . S
H674 N671 0.984 . S
H675 N671 0.985 . S
H676 N670 0.984 . S
H677 N670 0.984 . S
H678 N666 0.984 . S
H679 N666 0.985 . S
C680 C681 1.363 . S
C680 C686 1.379 1_455 S
C680 N688 1.352 1_554 S
C681 C680 1.363 . S
C681 C687 1.363 . S
C682 C683 1.363 . S
C682 C687 1.379 1_655 S
C682 N689 1.356 . S
C683 C682 1.363 . S
C683 C686 1.363 . S
N684 C686 1.352 1_556 S
N684 H696 0.991 . S
N684 H697 0.983 1_556 S
N685 C687 1.356 . S
N685 H690 0.984 . S
N685 H691 0.985 . S
C686 C680 1.379 1_655 S
C686 C683 1.363 . S
C686 N684 1.352 1_554 S
C687 C681 1.363 . S
C687 C682 1.379 1_455 S
C687 N685 1.356 . S
N688 C680 1.352 1_556 S
N688 H694 0.991 . S
N688 H695 0.983 1_556 S
N689 C682 1.356 . S
N689 H692 0.984 . S
N689 H693 0.985 . S
H690 N685 0.984 . S
H691 N685 0.985 . S
H692 N689 0.984 . S
H693 N689 0.985 . S
H694 N688 0.991 . S
H695 N688 0.983 1_554 S
H696 N684 0.991 . S
H697 N684 0.983 1_554 S
C698 C699 1.363 . S
C698 C704 1.379 1_655 S
C698 N706 1.352 1_556 S
C699 C698 1.363 . S
C699 C705 1.363 . S
C700 C701 1.363 . S
C700 C705 1.379 1_455 S
C700 N707 1.356 . S
C701 C700 1.363 . S
C701 C704 1.363 . S
N702 C704 1.352 1_554 S
N702 H714 0.990 . S
N702 H715 0.983 1_554 S
N703 C705 1.356 . S
N703 H708 0.984 . S
N703 H709 0.985 . S
C704 C698 1.379 1_455 S
C704 C701 1.363 . S
C704 N702 1.352 1_556 S
C705 C699 1.363 . S
C705 C700 1.379 1_655 S
C705 N703 1.356 . S
N706 C698 1.352 1_554 S
N706 H712 0.990 . S
N706 H713 0.983 1_554 S
N707 C700 1.356 . S
N707 H710 0.984 . S
N707 H711 0.985 . S
H708 N703 0.984 . S
H709 N703 0.985 . S
H710 N707 0.984 . S
H711 N707 0.985 . S
H712 N706 0.990 . S
H713 N706 0.983 1_556 S
H714 N702 0.990 . S
H715 N702 0.983 1_556 S
C716 C717 1.363 . S
C716 C722 1.379 . S
C716 N724 1.356 . S
C717 C716 1.363 . S
C717 C723 1.363 . S
C718 C719 1.363 . S
C718 C723 1.379 . S
C718 N725 1.356 . S
C719 C718 1.363 . S
C719 C722 1.363 . S
N720 C722 1.356 . S
N720 H732 0.984 . S
N720 H733 0.985 . S
N721 C723 1.356 . S
N721 H726 0.984 . S
N721 H727 0.985 . S
C722 C716 1.379 . S
C722 C719 1.363 . S
C722 N720 1.356 . S
C723 C717 1.363 . S
C723 C718 1.379 . S
C723 N721 1.356 . S
N724 C716 1.356 . S
N724 H730 0.984 . S
N724 H731 0.984 . S
N725 C718 1.356 . S
N725 H728 0.984 . S
N725 H729 0.985 . S
H726 N721 0.984 . S
H727 N721 0.985 . S
H728 N725 0.984 . S
H729 N725 0.985 . S
H730 N724 0.984 . S
H731 N724 0.984 . S
H732 N720 0.984 . S
H733 N720 0.985 . S
C734 C735 1.363 . S
C734 C740 1.379 . S
C734 N742 1.356 . S
C735 C734 1.363 . S
C735 C741 1.363 . S
C736 C737 1.363 . S
C736 C741 1.379 . S
C736 N743 1.356 . S
C737 C736 1.363 . S
C737 C740 1.363 . S
N738 C740 1.356 . S
N738 H750 0.984 . S
N738 H751 0.985 . S
N739 C741 1.356 . S
N739 H744 0.984 . S
N739 H745 0.985 . S
C740 C734 1.379 . S
C740 C737 1.363 . S
C740 N738 1.356 . S
C741 C735 1.363 . S
C741 C736 1.379 . S
C741 N739 1.356 . S
N742 C734 1.356 . S
N742 H748 0.984 . S
N742 H749 0.984 . S
N743 C736 1.356 . S
N743 H746 0.984 . S
N743 H747 0.985 . S
H744 N739 0.984 . S
H745 N739 0.985 . S
H746 N743 0.984 . S
H747 N743 0.985 . S
H748 N742 0.984 . S
H749 N742 0.984 . S
H750 N738 0.984 . S
H751 N738 0.985 . S
C321 C5 1.678 . S
C323 C295 1.677 . S
C339 C255 1.678 . S
C341 C45 1.678 . S
C357 C205 1.678 . S
C359 C95 1.678 . S
C375 C165 1.678 . S
C377 C135 1.678 . S
C393 C98 1.627 . S
C395 C18 1.555 . S
C411 C58 1.555 . S
C413 C138 1.627 . S
C429 C128 1.556 . S
C431 C48 1.628 . S
C447 C88 1.556 . S
C449 C8 1.628 . S
C465 C178 1.434 1_556 S
C467 C258 1.434 1_556 S
C483 C218 1.434 1_556 S
C485 C298 1.434 1_556 S
C501 C288 1.435 1_554 S
C503 C208 1.435 1_554 S
C519 C248 1.435 1_554 S
C521 C168 1.435 1_554 S
C537 C19 2.011 . S
C539 C9 2.011 . S
C555 C59 2.011 . S
C557 C49 2.011 . S
C573 C99 2.011 . S
C575 C89 2.011 . S
C591 C129 2.011 . S
C593 C139 2.011 . S
C609 C169 2.011 . S
C611 C179 2.011 . S
C627 C219 2.011 . S
C629 C209 2.011 . S
C645 C249 2.011 . S
C647 C259 2.011 . S
C663 C289 2.011 . S
C665 C299 2.011 . S
C681 C15 2.191 . S
C683 C55 2.191 . S
C699 C125 2.191 . S
C701 C85 2.191 . S
C717 C175 2.193 . S
C719 C215 2.193 . S
C735 C285 2.193 . S
C737 C245 2.193 . S
