# Generated by pormake.
# Topology sol, (6)-cn, num edge types: 1
# Building blocks:
#     Node 0, Type 0, BuildingBlock: IZENUY_clean_sbu_0, # of connection points: 6
#     Node 1, Type 0, BuildingBlock: IZENUY_clean_sbu_0, # of connection points: 6
#     Node 2, Type 0, BuildingBlock: IZENUY_clean_sbu_0, # of connection points: 6
#     Node 3, Type 0, BuildingBlock: IZENUY_clean_sbu_0, # of connection points: 6
#     Node 4, Type 0, BuildingBlock: IZENUY_clean_sbu_0, # of connection points: 6
#     Node 5, Type 0, BuildingBlock: IZENUY_clean_sbu_0, # of connection points: 6
#     Node 6, Type 0, BuildingBlock: IZENUY_clean_sbu_0, # of connection points: 6
#     Node 7, Type 0, BuildingBlock: IZENUY_clean_sbu_0, # of connection points: 6
#     Edge 8, Type (0, 0), BuildingBlock: UVAHIK_clean_linker_0, # of connection points: 2
#     Edge 9, Type (0, 0), BuildingBlock: UVAHIK_clean_linker_0, # of connection points: 2
#     Edge 10, Type (0, 0), BuildingBlock: UVAHIK_clean_linker_0, # of connection points: 2
#     Edge 11, Type (0, 0), BuildingBlock: UVAHIK_clean_linker_0, # of connection points: 2
#     Edge 12, Type (0, 0), BuildingBlock: UVAHIK_clean_linker_0, # of connection points: 2
#     Edge 13, Type (0, 0), BuildingBlock: UVAHIK_clean_linker_0, # of connection points: 2
#     Edge 14, Type (0, 0), BuildingBlock: UVAHIK_clean_linker_0, # of connection points: 2
#     Edge 15, Type (0, 0), BuildingBlock: UVAHIK_clean_linker_0, # of connection points: 2
#     Edge 16, Type (0, 0), BuildingBlock: UVAHIK_clean_linker_0, # of connection points: 2
#     Edge 17, Type (0, 0), BuildingBlock: UVAHIK_clean_linker_0, # of connection points: 2
#     Edge 18, Type (0, 0), BuildingBlock: UVAHIK_clean_linker_0, # of connection points: 2
#     Edge 19, Type (0, 0), BuildingBlock: UVAHIK_clean_linker_0, # of connection points: 2
#     Edge 20, Type (0, 0), BuildingBlock: UVAHIK_clean_linker_0, # of connection points: 2
#     Edge 21, Type (0, 0), BuildingBlock: UVAHIK_clean_linker_0, # of connection points: 2
#     Edge 22, Type (0, 0), BuildingBlock: UVAHIK_clean_linker_0, # of connection points: 2
#     Edge 23, Type (0, 0), BuildingBlock: UVAHIK_clean_linker_0, # of connection points: 2
#     Edge 24, Type (0, 0), BuildingBlock: UVAHIK_clean_linker_0, # of connection points: 2
#     Edge 25, Type (0, 0), BuildingBlock: UVAHIK_clean_linker_0, # of connection points: 2
#     Edge 26, Type (0, 0), BuildingBlock: UVAHIK_clean_linker_0, # of connection points: 2
#     Edge 27, Type (0, 0), BuildingBlock: UVAHIK_clean_linker_0, # of connection points: 2
#     Edge 28, Type (0, 0), BuildingBlock: UVAHIK_clean_linker_0, # of connection points: 2
#     Edge 29, Type (0, 0), BuildingBlock: UVAHIK_clean_linker_0, # of connection points: 2
#     Edge 30, Type (0, 0), BuildingBlock: UVAHIK_clean_linker_0, # of connection points: 2
#     Edge 31, Type (0, 0), BuildingBlock: UVAHIK_clean_linker_0, # of connection points: 2
# Relax obj value: 0.163
# Max RMSD: 0.160
# Mean RMSD: 0.159
data_MOF--net-sol--node1-IZENUY_clean_sbu_0--edge1-UVAHIK_clean_linker_0
_symmetry_space_group_name_H-M    P1
_symmetry_Int_Tables_number       1
_symmetry_cell_setting            triclinic
loop_
_symmetry_equiv_pos_as_xyz
'x, y, z'
_cell_length_a     45.704559
_cell_length_b     34.539933
_cell_length_c     36.370122
_cell_angle_alpha  89.953264
_cell_angle_beta   90.001474
_cell_angle_gamma 90.028399
loop_
_atom_site_label
_atom_site_type_symbol
_atom_site_fract_x
_atom_site_fract_y
_atom_site_fract_z
_atom_type_partial_charge
Fe0 Fe 0.16167 0.14664 0.11524 0.0
Fe1 Fe 0.20262 0.20591 0.08005 0.0
O2 O 0.16725 0.18559 0.08433 0.0
Fe3 Fe 0.13792 0.20548 0.05822 0.0
O4 O 0.11731 0.21715 0.09967 0.0
O5 O 0.12545 0.16255 0.12964 0.0
O6 O 0.17592 0.1742 0.15434 0.0
C7 C 0.20107 0.18908 0.15569 0.0
C8 C 0.12512 0.12439 0.0588 0.0
O9 O 0.21527 0.19437 0.12647 0.0
C10 C 0.18201 0.2082 1.00724 0.0
O11 O 0.19744 0.1245 0.10557 0.0
O12 O 0.2172 0.16109 0.06239 0.0
O13 O 0.11835 0.15941 0.05286 0.0
O14 O 0.14634 0.11574 0.07954 0.0
C15 C 0.16912 0.2707 0.0832 0.0
O16 O 0.19776 0.22174 0.03264 0.0
O17 O 0.15669 0.19537 0.01453 0.0
C18 C 0.21579 0.12948 0.07971 0.0
O19 O 0.18942 0.25139 0.09788 0.0
O20 O 0.15215 0.25538 0.05977 0.0
C21 C 0.11252 0.19474 0.12649 0.0
Fe22 Fe 0.35437 0.33621 0.61535 0.0
Fe23 Fe 0.3128 0.27812 0.57903 0.0
O24 O 0.34836 0.29798 0.58372 0.0
Fe25 Fe 0.37756 0.27848 0.55716 0.0
O26 O 0.39797 0.26526 0.5984 0.0
O27 O 0.39048 0.31939 0.62928 0.0
O28 O 0.33995 0.30809 0.65395 0.0
C29 C 0.31483 0.29307 0.65519 0.0
C30 C 0.39105 0.35922 0.5593 0.0
O31 O 0.30057 0.28796 0.62596 0.0
C32 C 0.33345 0.27815 0.50608 0.0
O33 O 0.31881 0.35911 0.60645 0.0
O34 O 0.2983 0.32375 0.56298 0.0
O35 O 0.39755 0.32425 0.55296 0.0
O36 O 0.36991 0.3678 0.58019 0.0
C37 C 0.3458 0.21264 0.57975 0.0
O38 O 0.31737 0.26424 0.53102 0.0
O39 O 0.35892 0.29013 0.51374 0.0
C40 C 0.3001 0.3549 0.58094 0.0
O41 O 0.32562 0.23158 0.59511 0.0
O42 O 0.36303 0.2289 0.55723 0.0
C43 C 0.40298 0.28698 0.62563 0.0
Fe44 Fe 0.66424 0.3313 0.92342 0.0
Fe45 Fe 0.7034 0.2766 0.9672 0.0
O46 O 0.66823 0.29569 0.95795 0.0
Fe47 Fe 0.63729 0.27918 0.98289 0.0
O48 O 0.6119 0.28344 0.94347 0.0
O49 O 0.64032 0.30022 0.89719 0.0
O50 O 0.6944 0.31321 0.89446 0.0
C51 C 0.70586 0.27984 0.89229 0.0
C52 C 0.62346 0.35578 0.97801 0.0
O53 O 0.70705 0.25836 0.92039 0.0
C54 C 0.6826 0.28403 0.03728 0.0
O55 O 0.68818 0.36423 0.94797 0.0
O56 O 0.72302 0.32126 0.95584 0.0
O57 O 0.62862 0.32754 0.99902 0.0
O58 O 0.6331 0.35596 0.94535 0.0
C59 C 0.66658 0.21139 0.97378 0.0
O60 O 0.70201 0.29349 0.01426 0.0
O61 O 0.65771 0.27185 0.02654 0.0
C62 C 0.7143 0.356 0.95604 0.0
O63 O 0.69027 0.22868 0.98067 0.0
O64 O 0.64319 0.22962 0.96847 0.0
C65 C 0.61702 0.28526 0.90915 0.0
Fe66 Fe 0.8504 0.14929 0.42378 0.0
Fe67 Fe 0.81101 0.20379 0.4674 0.0
O68 O 0.84626 0.18496 0.45818 0.0
Fe69 Fe 0.87712 0.20191 0.48293 0.0
O70 O 0.90248 0.19779 0.44351 0.0
O71 O 0.87412 0.18052 0.39735 0.0
O72 O 0.8201 0.16703 0.39479 0.0
C73 C 0.8085 0.20031 0.3925 0.0
C74 C 0.89167 0.12555 0.47829 0.0
O75 O 0.80724 0.22186 0.42052 0.0
C76 C 0.83194 0.19665 0.53744 0.0
O77 O 0.82665 0.1162 0.44852 0.0
O78 O 0.79163 0.15893 0.45623 0.0
O79 O 0.88624 0.15371 0.49927 0.0
O80 O 0.88174 0.12503 0.44576 0.0
C81 C 0.84739 0.26946 0.47354 0.0
O82 O 0.81253 0.18701 0.5145 0.0
O83 O 0.85672 0.20913 0.5266 0.0
C84 C 0.8005 0.12427 0.45655 0.0
O85 O 0.82383 0.25192 0.48068 0.0
O86 O 0.8708 0.25127 0.46813 0.0
C87 C 0.89735 0.19574 0.40922 0.0
Fe88 Fe 0.81486 0.77907 0.94074 0.0
Fe89 Fe 0.85784 0.83168 0.90027 0.0
O90 O 0.85105 0.79605 0.9343 0.0
Fe91 Fe 0.88038 0.77755 0.96124 0.0
O92 O 0.87345 0.72837 0.94673 0.0
O93 O 0.82552 0.72976 0.95258 0.0
O94 O 0.81222 0.76261 0.89345 0.0
C95 C 0.8151 0.78434 0.86587 0.0
C96 C 0.8329 0.78327 1.01257 0.0
O97 O 0.82797 0.81666 0.86915 0.0
C98 C 0.89747 0.85314 0.95736 0.0
O99 O 0.79771 0.82569 0.93011 0.0
O100 O 0.8346 0.86607 0.92373 0.0
O101 O 0.85817 0.77116 1.0035 0.0
O102 O 0.81478 0.79388 0.98842 0.0
C103 C 0.90317 0.78181 0.88867 0.0
O104 O 0.88926 0.85379 0.92409 0.0
O105 O 0.89019 0.82541 0.97801 0.0
C106 C 0.80808 0.85966 0.93128 0.0
O107 O 0.88117 0.79884 0.8754 0.0
O108 O 0.90723 0.78012 0.92325 0.0
C109 C 0.84911 0.71146 0.94777 0.0
Fe110 Fe 0.70358 0.70189 0.4413 0.0
Fe111 Fe 0.66189 0.64726 0.40089 0.0
O112 O 0.66777 0.68361 0.4345 0.0
Fe113 Fe 0.63788 0.70172 0.4607 0.0
O114 O 0.64405 0.75079 0.44534 0.0
O115 O 0.69187 0.75098 0.45237 0.0
O116 O 0.70644 0.71783 0.39381 0.0
C117 C 0.70392 0.69581 0.36638 0.0
C118 C 0.68487 0.69806 0.51281 0.0
O119 O 0.69144 0.66322 0.36977 0.0
C120 C 0.62215 0.62559 0.45804 0.0
O121 O 0.72176 0.65591 0.43145 0.0
O122 O 0.68596 0.61388 0.42454 0.0
O123 O 0.65961 0.70959 0.50308 0.0
O124 O 0.70343 0.68757 0.48918 0.0
C125 C 0.61563 0.69551 0.38809 0.0
O126 O 0.63088 0.62429 0.42497 0.0
O127 O 0.62881 0.65394 0.47821 0.0
C128 C 0.71235 0.62145 0.43191 0.0
O129 O 0.63796 0.6788 0.37542 0.0
O130 O 0.6113 0.69769 0.42255 0.0
C131 C 0.66805 0.76847 0.44668 0.0
Fe132 Fe 0.35952 0.66176 0.11072 0.0
Fe133 Fe 0.37816 0.71121 0.04381 0.0
O134 O 0.35063 0.69354 0.07413 0.0
Fe135 Fe 0.31394 0.70873 0.06835 0.0
O136 O 0.30373 0.70594 0.11688 0.0
O137 O 0.34501 0.69492 0.14528 0.0
O138 O 0.39525 0.68316 0.11962 0.0
C139 C 0.40557 0.71584 0.11107 0.0
C140 C 0.30554 0.63262 0.08321 0.0
O141 O 0.39845 0.73281 0.08169 0.0
C142 C 0.33341 0.6995 0.99516 0.0
O143 O 0.37512 0.62616 0.07956 0.0
O144 O 0.40035 0.66697 0.04547 0.0
O145 O 0.30172 0.6596 0.0603 0.0
O146 O 0.32497 0.63499 0.108 0.0
C147 C 0.34335 0.77657 0.05812 0.0
O148 O 0.35959 0.69134 1.0034 0.0
O149 O 0.3166 0.71458 0.01868 0.0
C150 C 0.39529 0.63286 0.05665 0.0
O151 O 0.361 0.75877 0.03731 0.0
O152 O 0.32434 0.75847 0.07649 0.0
C153 C 0.31911 0.70746 0.14562 0.0
Fe154 Fe 0.14216 0.77794 0.5443 0.0
Fe155 Fe 0.20652 0.77848 0.56799 0.0
O156 O 0.17034 0.79579 0.57353 0.0
Fe157 Fe 0.16257 0.8298 0.60861 0.0
O158 O 0.12663 0.80976 0.61927 0.0
O159 O 0.12186 0.75868 0.58328 0.0
O160 O 0.15827 0.72949 0.5393 0.0
C161 C 0.17545 0.71171 0.56078 0.0
C162 C 0.1264 0.85721 0.55423 0.0
O163 O 0.19483 0.72974 0.57855 0.0
C164 C 0.21704 0.85501 0.57875 0.0
O165 O 0.16088 0.79576 0.50311 0.0
O166 O 0.20315 0.77048 0.51861 0.0
O167 O 0.14712 0.86434 0.57618 0.0
O168 O 0.12071 0.82281 0.54457 0.0
C169 C 0.20239 0.78436 0.64518 0.0
O170 O 0.22001 0.8264 0.55755 0.0
O171 O 0.19762 0.85527 0.60371 0.0
C172 C 0.18681 0.78624 0.49492 0.0
O173 O 0.21743 0.78317 0.61617 0.0
O174 O 0.17688 0.79813 0.64453 0.0
C175 C 0.11559 0.77704 0.61221 0.0
C176 C 0.06419 0.22097 0.14808 0.0
C177 C 0.09193 0.20566 0.15581 0.0
C178 C 0.04392 0.22654 0.17657 0.0
C179 C 0.02977 0.1916 0.2718 0.0
H180 H 0.96939 0.27037 0.2716 0.0
C181 C 0.9498 0.20811 0.39263 0.0
C182 C 0.9202 0.20657 0.38231 0.0
C183 C 0.97152 0.21404 0.36612 0.0
C184 C 0.98623 0.2483 0.27196 0.0
H185 H 0.12126 0.18709 0.19911 0.0
H186 H 0.0869 0.19876 0.24871 0.0
H187 H 1.00634 0.26997 0.22284 0.0
H188 H 0.89003 0.21246 0.33657 0.0
H189 H 0.92798 0.22327 0.29046 0.0
H190 H 0.00984 0.17017 0.32096 0.0
C191 C 0.07992 0.20467 0.22082 0.0
C192 C 1.00727 0.24788 0.24394 0.0
C193 C 0.09975 0.19827 0.19243 0.0
C194 C 0.91268 0.21315 0.34532 0.0
C195 C 0.93436 0.21964 0.31895 0.0
C196 C 1.00909 0.19242 0.29996 0.0
C197 C 0.05136 0.21759 0.21326 0.0
C198 C 0.02927 0.21937 0.24342 0.0
C199 C 0.96402 0.21917 0.32894 0.0
C200 C 0.98701 0.22057 0.30024 0.0
H201 H 0.05773 0.22682 0.11996 0.0
H202 H 0.02212 0.23634 0.1696 0.0
H203 H 0.04574 0.16846 0.27194 0.0
H204 H 0.95627 0.20319 0.4209 0.0
H205 H 0.99425 0.21381 0.37455 0.0
C206 C 0.41492 0.28068 0.69161 0.0
C207 C 0.42328 0.27499 0.65492 0.0
C208 C 0.43457 0.27385 0.72013 0.0
C209 C 0.50789 0.23265 0.74323 0.0
H210 H 0.5034 0.30849 0.82167 0.0
C211 C 0.6017 0.26803 0.84522 0.0
C212 C 0.59417 0.27432 0.88225 0.0
C213 C 0.58005 0.26133 0.81886 0.0
C214 C 0.50468 0.28672 0.80029 0.0
H215 H 0.45823 0.25633 0.619 0.0
H216 H 0.49347 0.246 0.66896 0.0
H217 H 0.46762 0.3099 0.77249 0.0
H218 H 0.55812 0.27689 0.92091 0.0
H219 H 0.52018 0.26579 0.8746 0.0
H220 H 0.54612 0.21093 0.7707 0.0
C221 C 0.47141 0.2548 0.67585 0.0
C222 C 0.48408 0.28738 0.77203 0.0
C223 C 0.45135 0.26082 0.64718 0.0
C224 C 0.5646 0.27224 0.89261 0.0
C225 C 0.5429 0.26605 0.86611 0.0
C226 C 0.52883 0.23236 0.77139 0.0
C227 C 0.46344 0.26221 0.71267 0.0
C228 C 0.48532 0.26036 0.74308 0.0
C229 C 0.5504 0.26122 0.82889 0.0
C230 C 0.5274 0.25944 0.80017 0.0
H231 H 0.39317 0.29102 0.69824 0.0
H232 H 0.42722 0.27857 0.74807 0.0
H233 H 0.50939 0.21113 0.72169 0.0
H234 H 0.62433 0.26912 0.83642 0.0
H235 H 0.58646 0.25796 0.79037 0.0
C236 C 0.9542 0.75886 0.87509 0.0
C237 C 0.92575 0.76748 0.86296 0.0
C238 C 0.97595 0.74875 0.84979 0.0
C239 C 0.98887 0.71813 0.75319 0.0
H240 H 0.05916 0.78006 0.76253 0.0
C241 C 0.06624 0.7534 0.63162 0.0
C242 C 0.09575 0.76037 0.63963 0.0
C243 C 0.04667 0.74458 0.66009 0.0
C244 C 0.04005 0.76176 0.75976 0.0
H245 H 0.89736 0.76984 0.81512 0.0
H246 H 0.93523 0.75255 0.77124 0.0
H247 H 0.02298 0.78123 0.81119 0.0
H248 H 0.12871 0.76072 0.68226 0.0
H249 H 0.0951 0.74363 0.7316 0.0
H250 H 1.00576 0.69941 0.70119 0.0
C251 C 0.94079 0.75349 0.80018 0.0
C252 C 0.01925 0.7625 0.78777 0.0
C253 C 0.91916 0.76383 0.82534 0.0
C254 C 0.1059 0.75577 0.6757 0.0
C255 C 0.08659 0.74629 0.70392 0.0
C256 C 0.00982 0.7172 0.72516 0.0
C257 C 0.96957 0.7467 0.812 0.0
C258 C 0.99318 0.74134 0.7845 0.0
C259 C 0.05653 0.7422 0.69678 0.0
C260 C 0.03544 0.73958 0.72783 0.0
H261 H 0.95991 0.76117 0.90391 0.0
H262 H 0.99792 0.74332 0.8597 0.0
H263 H 0.96905 0.70124 0.7501 0.0
H264 H 0.05804 0.75713 0.6039 0.0
H265 H 0.02364 0.74187 0.65361 0.0
C266 C 0.5657 0.72224 0.37369 0.0
C267 C 0.59345 0.70999 0.3618 0.0
C268 C 0.54463 0.73416 0.34813 0.0
C269 C 0.5347 0.76437 0.25066 0.0
H270 H 0.45857 0.71632 0.26137 0.0
C271 C 0.45606 0.73462 0.1297 0.0
C272 C 0.42599 0.73373 0.137 0.0
C273 C 0.47586 0.74263 0.15807 0.0
C274 C 0.47945 0.73079 0.25822 0.0
H275 H 0.62122 0.70229 0.31387 0.0
H276 H 0.58455 0.72248 0.26965 0.0
H277 H 0.49428 0.71011 0.31038 0.0
H278 H 0.39256 0.74283 0.17818 0.0
H279 H 0.4269 0.75821 0.22741 0.0
H280 H 0.52007 0.78396 0.19784 0.0
C281 C 0.57904 0.72322 0.29861 0.0
C282 C 0.49996 0.72717 0.28641 0.0
C283 C 0.59998 0.71119 0.32402 0.0
C284 C 0.41577 0.74352 0.1721 0.0
C285 C 0.43544 0.75193 0.20028 0.0
C286 C 0.51412 0.76807 0.22241 0.0
C287 C 0.551 0.73435 0.31027 0.0
C288 C 0.52805 0.74311 0.28261 0.0
C289 C 0.46575 0.7499 0.19403 0.0
C290 C 0.48646 0.7506 0.22555 0.0
H291 H 0.56006 0.72192 0.40261 0.0
H292 H 0.52326 0.74288 0.35796 0.0
H293 H 0.55606 0.77747 0.24717 0.0
H294 H 0.46428 0.72652 0.10284 0.0
H295 H 0.49906 0.74049 0.15236 0.0
C296 C 0.08458 0.10162 0.01742 0.0
C297 C 0.10511 0.09347 0.04522 0.0
C298 C 0.06342 0.07426 1.00738 0.0
C299 C 0.0224 0.99125 0.0442 0.0
H300 H 1.00169 0.97321 0.94232 0.0
C301 C 0.93686 0.87486 1.00136 0.0
C302 C 0.91954 0.88194 0.97009 0.0
C303 C 0.95965 0.90015 1.01098 0.0
C304 C 1.00677 0.97827 0.97099 0.0
H305 H 0.11971 0.04952 0.08368 0.0
H306 H 0.08258 0.00184 0.06628 0.0
H307 H 0.04174 0.01705 0.95712 0.0
H308 H 0.91193 0.92223 0.92538 0.0
H309 H 0.95072 0.96686 0.94278 0.0
H310 H 0.98704 0.95334 0.05824 0.0
C311 C 0.08291 0.02955 0.05232 0.0
C312 C 0.02994 0.00331 0.97943 0.0
C313 C 0.10437 0.05676 0.06204 0.0
C314 C 0.92496 0.91565 0.94946 0.0
C315 C 0.94749 0.94112 0.95929 0.0
C316 C 0.999 0.9665 0.03578 0.0
C317 C 0.06195 0.03813 0.02516 0.0
C318 C 0.03802 0.01022 0.01614 0.0
C319 C 0.96557 0.93346 0.98982 0.0
C320 C 0.99071 0.95971 0.99902 0.0
H321 H 0.08446 0.12956 1.00387 0.0
H322 H 0.04754 0.08195 0.98652 0.0
H323 H 0.02778 -0.00367 0.07279 0.0
H324 H 0.93349 0.84906 0.01777 0.0
H325 H 0.97316 0.89285 0.03443 0.0
C326 C 0.58333 0.60387 0.50285 0.0
C327 C 0.6001 0.59686 0.47106 0.0
C328 C 0.56056 0.57876 0.51293 0.0
C329 C 0.53242 0.47923 0.49984 0.0
H330 H 0.45755 0.52326 0.52743 0.0
C331 C 0.43105 0.38175 0.51722 0.0
C332 C 0.41143 0.38984 0.54599 0.0
C333 C 0.453 0.40813 0.50757 0.0
C334 C 0.47837 0.51036 0.52028 0.0
H335 H 0.60644 0.55708 0.42566 0.0
H336 H 0.56711 0.51313 0.44353 0.0
H337 H 0.49869 0.56593 0.51344 0.0
H338 H 0.3991 0.43283 0.58647 0.0
H339 H 0.43775 0.47862 0.57021 0.0
H340 H 0.51254 0.42375 0.50722 0.0
C341 C 0.57151 0.53813 0.46062 0.0
C342 C 0.502 0.53491 0.5122 0.0
C343 C 0.59405 0.56343 0.45031 0.0
C344 C 0.41368 0.42575 0.56399 0.0
C345 C 0.43591 0.45206 0.55459 0.0
C346 C 0.50893 0.45471 0.50822 0.0
C347 C 0.55419 0.54574 0.49177 0.0
C348 C 0.52928 0.51966 0.50163 0.0
C349 C 0.4563 0.44329 0.52671 0.0
C350 C 0.48143 0.46983 0.51826 0.0
H351 H 0.58726 0.62934 0.51949 0.0
H352 H 0.54789 0.58525 0.53733 0.0
H353 H 0.55322 0.46646 0.49236 0.0
H354 H 0.42982 0.35454 0.50249 0.0
H355 H 0.46761 0.40065 0.48526 0.0
C356 C 0.43646 0.60746 0.01803 0.0
C357 C 0.41617 0.60162 0.04656 0.0
C358 C 0.45835 0.58021 1.01094 0.0
C359 C 0.48151 0.4786 0.02992 0.0
H360 H 0.55808 0.51882 1.00423 0.0
C361 C 0.58439 0.38071 0.02071 0.0
C362 C 0.60205 0.38589 0.98937 0.0
C363 C 0.56213 0.40715 0.02907 0.0
C364 C 0.5368 0.50709 1.01114 0.0
H365 H 0.40256 0.56171 0.08934 0.0
H366 H 0.44105 0.51443 0.07741 0.0
H367 H 0.51781 0.56347 0.01513 0.0
H368 H 0.61066 0.42381 0.94303 0.0
H369 H 0.57212 0.46999 0.95784 0.0
H370 H 0.5008 0.42215 0.02627 0.0
C371 C 0.43982 0.53991 0.06012 0.0
C372 C 0.5136 0.5327 0.01724 0.0
C373 C 0.41773 0.5671 0.06703 0.0
C374 C 0.59751 0.41886 0.96737 0.0
C375 C 0.57545 0.44545 0.97592 0.0
C376 C 0.50481 0.45298 0.02405 0.0
C377 C 0.46078 0.54643 0.03239 0.0
C378 C 0.48554 0.51885 0.02641 0.0
C379 C 0.55719 0.43963 1.00656 0.0
C380 C 0.53269 0.46691 0.01433 0.0
H381 H 0.43577 0.63352 1.00145 0.0
H382 H 0.47356 0.58584 0.98874 0.0
H383 H 0.4602 0.46676 0.03649 0.0
H384 H 0.5872 0.35564 0.03826 0.0
H385 H 0.54868 0.4021 0.05313 0.0
C386 C 0.91907 0.06365 0.46718 0.0
C387 C 0.91401 0.09639 0.48923 0.0
C388 C 0.94227 0.03846 0.47482 0.0
C389 C 0.99656 0.01088 0.547 0.0
H390 H 0.03876 0.96892 0.46356 0.0
C391 C 0.10421 0.92329 0.56365 0.0
C392 C 0.10556 0.88841 0.54375 0.0
C393 C 0.08203 0.95036 0.55661 0.0
C394 C 0.02712 0.98022 0.48717 0.0
H395 H 0.9291 0.12759 0.53739 0.0
H396 H 0.96979 0.0841 0.55037 0.0
H397 H 0.9971 0.0115 0.45325 0.0
H398 H 0.08528 0.85554 0.49978 0.0
H399 H 0.04702 0.90279 0.48729 0.0
H400 H 0.02694 0.97972 0.58083 0.0
C401 C 0.95558 0.0775 0.52739 0.0
C402 C 1.00307 0.00452 0.48129 0.0
C403 C 0.93221 0.10256 0.51989 0.0
C404 C 0.08493 0.88204 0.51568 0.0
C405 C 0.063 0.90923 0.50841 0.0
C406 C 0.02078 0.98676 0.55286 0.0
C407 C 0.96126 0.04543 0.50458 0.0
C408 C 0.98723 0.01994 0.5111 0.0
C409 C 0.06093 0.94342 0.5292 0.0
C410 C 0.03621 0.97087 0.52301 0.0
H411 H 0.9054 0.05778 0.4435 0.0
H412 H 0.94542 0.0136 0.45714 0.0
H413 H 0.98478 0.02173 0.57067 0.0
H414 H 0.11965 0.92912 0.58554 0.0
H415 H 0.08124 0.97662 0.57283 0.0
C416 C 0.35545 0.84043 0.02935 0.0
C417 C 0.34316 0.81912 0.05847 0.0
C418 C 0.35337 0.88078 0.02886 0.0
C419 C 0.3361 0.96545 0.08683 0.0
H420 H 0.29182 0.00209 1.00273 0.0
C421 C 0.24308 0.07098 0.10001 0.0
C422 C 0.23871 0.10019 0.07374 0.0
C423 C 0.26529 0.04396 0.09546 0.0
C424 C 0.30491 -0.0072 0.02595 0.0
H425 H 0.32071 0.82312 0.11086 0.0
H426 H 0.31713 0.8933 0.11006 0.0
H427 H 0.3162 0.93937 0.99987 0.0
H428 H 0.25416 0.12403 0.022 0.0
H429 H 0.29281 0.07564 1.0136 0.0
H430 H 0.32301 0.01761 0.11384 0.0
C431 C 0.32839 0.87901 0.08764 0.0
C432 C 0.31889 0.95693 0.02431 0.0
C433 C 0.33008 0.83881 0.08788 0.0
C434 C 0.25704 0.10178 0.0427 0.0
C435 C 0.27915 0.07429 0.03791 0.0
C436 C 0.32217 0.00126 0.08845 0.0
C437 C 0.3395 0.90031 0.05783 0.0
C438 C 0.3331 0.94207 0.05552 0.0
C439 C 0.2835 0.04529 0.0644 0.0
C440 C 0.30505 0.0141 0.0588 0.0
H441 H 0.36577 0.82589 1.00638 0.0
H442 H 0.362 0.89665 1.00556 0.0
H443 H 0.34737 0.9548 0.111 0.0
H444 H 0.22945 0.06904 0.12431 0.0
H445 H 0.26774 0.02133 0.11587 0.0
C446 C 0.18846 0.64975 0.59145 0.0
C447 C 0.17517 0.66914 0.56197 0.0
C448 C 0.19017 0.60953 0.59164 0.0
C449 C 0.19882 0.53089 0.52861 0.0
H450 H 0.1959 0.47064 0.61856 0.0
C451 C 0.25871 0.38423 0.54517 0.0
C452 C 0.27753 0.38488 0.57578 0.0
C453 C 0.2371 0.41257 0.54108 0.0
C454 C 0.19645 0.48691 0.59308 0.0
H455 H 0.15209 0.66178 0.51028 0.0
H456 H 0.1558 0.59103 0.51025 0.0
H457 H 0.17211 0.53386 0.61616 0.0
H458 H 0.28814 0.41525 0.62632 0.0
H459 H 0.25076 0.4644 0.61908 0.0
H460 H 0.22493 0.48513 0.50638 0.0
C461 C 0.16465 0.60714 0.53325 0.0
C462 C 0.18284 0.52295 0.59171 0.0
C463 C 0.16257 0.6475 0.5333 0.0
C464 C 0.27411 0.41399 0.60234 0.0
C465 C 0.25242 0.44188 0.59846 0.0
C466 C 0.21247 0.49477 0.52999 0.0
C467 C 0.17885 0.5879 0.56219 0.0
C468 C 0.18531 0.54611 0.56014 0.0
C469 C 0.23375 0.44153 0.56782 0.0
C470 C 0.21274 0.47355 0.56292 0.0
H471 H 0.19808 0.66569 0.61408 0.0
H472 H 0.20165 0.59549 0.61404 0.0
H473 H 0.20111 0.54825 0.50396 0.0
H474 H 0.26084 0.36209 0.52427 0.0
H475 H 0.22306 0.41192 0.51709 0.0
C476 C 0.76569 0.37998 0.95335 0.0
C477 C 0.73594 0.38717 0.96052 0.0
C478 C 0.78611 0.4099 0.95541 0.0
C479 C 0.80076 0.50482 0.99415 0.0
H480 H 0.83702 0.53045 0.90074 0.0
C481 C 0.82711 0.65163 0.92324 0.0
C482 C 0.8478 0.66925 0.94619 0.0
C483 C 0.82269 0.61183 0.92491 0.0
C484 C 0.82766 0.52301 0.9272 0.0
H485 H 0.70437 0.43061 0.977 0.0
H486 H 0.74034 0.48294 0.98132 0.0
H487 H 0.81033 0.46931 0.90744 0.0
H488 H 0.88078 0.65985 0.988 0.0
H489 H 0.87192 0.58966 0.99224 0.0
H490 H 0.817 0.55934 1.01338 0.0
C491 C 0.74767 0.45415 0.97391 0.0
C492 C 0.81244 0.48825 0.93103 0.0
C493 C 0.72713 0.42442 0.97113 0.0
C494 C 0.86487 0.64652 0.96991 0.0
C495 C 0.85984 0.60667 0.97234 0.0
C496 C 0.81649 0.53923 0.99054 0.0
C497 C 0.77719 0.44719 0.96549 0.0
C498 C 0.79793 0.47972 0.96407 0.0
C499 C 0.83838 0.58929 0.95023 0.0
C500 C 0.82903 0.54917 0.95661 0.0
H501 H 0.77309 0.35151 0.94503 0.0
H502 H 0.80878 0.40407 0.94869 0.0
H503 H 0.78973 0.49861 0.01986 0.0
H504 H 0.81377 0.66886 0.9048 0.0
H505 H 0.80576 0.59899 0.90799 0.0
C506 C 0.74913 0.10022 0.4541 0.0
C507 C 0.77892 0.093 0.461 0.0
C508 C 0.72875 0.07027 0.45608 0.0
C509 C 0.71438 0.97484 0.494 0.0
H510 H 0.67775 0.95038 0.40056 0.0
C511 C 0.6887 0.82895 0.42173 0.0
C512 C 0.66855 0.81068 0.44498 0.0
C513 C 0.6926 0.86884 0.42356 0.0
C514 C 0.68721 0.95749 0.42703 0.0
H515 H 0.8106 0.04944 0.47693 0.0
H516 H 0.77468 -0.00298 0.48108 0.0
H517 H 0.70433 0.01153 0.40776 0.0
H518 H 0.63595 0.81892 0.48745 0.0
H519 H 0.64389 0.88926 0.49197 0.0
H520 H 0.69838 0.91998 0.51272 0.0
C521 C 0.7673 0.02587 0.47395 0.0
C522 C 0.70236 -0.00775 0.43115 0.0
C523 C 0.78781 0.05566 0.47127 0.0
C524 C 0.65143 0.83279 0.46911 0.0
C525 C 0.65594 0.87272 0.4717 0.0
C526 C 0.69872 0.94043 0.49011 0.0
C527 C 0.73774 0.03288 0.46578 0.0
C528 C 0.71702 0.00036 0.46418 0.0
C529 C 0.67695 0.89077 0.44935 0.0
C530 C 0.68606 0.9309 0.45615 0.0
H531 H 0.74166 0.12875 0.44605 0.0
H532 H 0.70604 0.07613 0.44956 0.0
H533 H 0.72551 0.98073 0.5197 0.0
H534 H 0.7021 0.81217 0.40302 0.0
H535 H 0.7092 0.8822 0.40647 0.0
C536 C 0.66243 0.1468 0.94487 0.0
C537 C 0.66621 0.16932 0.97647 0.0
C538 C 0.66988 0.1076 0.94548 0.0
C539 C 0.68588 0.02266 0.95402 0.0
H540 H 0.76163 0.01419 1.00155 0.0
C541 C 0.75847 0.88539 0.94655 0.0
C542 C 0.78824 0.89225 0.93912 0.0
C543 C 0.73972 0.91604 0.95466 0.0
C544 C 0.7405 0.01609 0.98816 0.0
H545 H 0.67758 0.16903 0.03419 0.0
H546 H 0.68934 0.10012 0.03589 0.0
H547 H 0.73244 0.07189 1.01066 0.0
H548 H 0.82164 0.93663 0.93417 0.0
H549 H 0.78882 0.99016 0.94797 0.0
H550 H 0.69506 0.96742 0.92989 0.0
C551 C 0.68159 0.11261 1.01036 0.0
C552 C 0.72349 0.04889 0.99385 0.0
C553 C 0.6747 0.15184 1.00952 0.0
C554 C 0.79885 0.93038 0.93982 0.0
C555 C 0.78011 0.96098 0.94798 0.0
C556 C 0.70302 0.98973 0.94826 0.0
C557 C 0.68093 0.09065 0.97785 0.0
C558 C 0.69627 0.05297 0.97623 0.0
C559 C 0.75042 0.95408 0.95565 0.0
C560 C 0.73081 0.98671 0.96455 0.0
H561 H 0.65609 0.16014 0.91909 0.0
H562 H 0.66929 0.09156 0.91992 0.0
H563 H 0.66493 0.0249 0.94028 0.0
H564 H 0.74961 0.85629 0.94635 0.0
H565 H 0.71697 0.90993 0.96072 0.0
C566 C 0.72724 0.5523 0.42439 0.0
C567 C 0.73363 0.58987 0.43666 0.0
C568 C 0.7482 0.52312 0.42724 0.0
C569 C 0.80983 0.49231 0.48176 0.0
H570 H 0.82184 0.42031 0.40135 0.0
C571 C 0.86361 0.33287 0.44776 0.0
C572 C 0.84734 0.31186 0.47373 0.0
C573 C 0.85942 0.37279 0.4442 0.0
C574 C 0.81935 0.44068 0.42377 0.0
H575 H 0.76663 0.62629 0.46216 0.0
H576 H 0.803 0.57486 0.46781 0.0
H577 H 0.7937 0.4794 0.39099 0.0
H578 H 0.81612 0.31581 0.5184 0.0
H579 H 0.80921 0.38538 0.51269 0.0
H580 H 0.8339 0.45231 0.51511 0.0
C581 C 0.78196 0.56828 0.45559 0.0
C582 C 0.80297 0.47415 0.41795 0.0
C583 C 0.76116 0.59758 0.45233 0.0
C584 C 0.82869 0.33149 0.49795 0.0
C585 C 0.82499 0.3713 0.49494 0.0
C586 C 0.82595 0.45861 0.48768 0.0
C587 C 0.77572 0.53092 0.44281 0.0
C588 C 0.79717 0.49942 0.44725 0.0
C589 C 0.83948 0.39206 0.4672 0.0
C590 C 0.82986 0.43185 0.45906 0.0
H591 H 0.70625 0.54556 0.41212 0.0
H592 H 0.74273 0.49427 0.41778 0.0
H593 H 0.80563 0.51143 0.50476 0.0
H594 H 0.8781 0.31814 0.4288 0.0
H595 H 0.87074 0.38831 0.42257 0.0
C596 C 0.1639 0.33764 0.05831 0.0
C597 C 0.16958 0.31283 0.08806 0.0
C598 C 0.17113 0.37687 0.06071 0.0
C599 C 0.22693 0.43235 0.10749 0.0
H600 H 0.19124 0.52231 0.06206 0.0
C601 C 0.28216 0.57862 0.11733 0.0
C602 C 0.28469 0.60018 0.08475 0.0
C603 C 0.26325 0.54722 0.11923 0.0
C604 C 0.20143 0.49729 0.07466 0.0
H605 H 0.18356 0.30973 0.14489 0.0
H606 H 0.19528 0.37837 0.14952 0.0
H607 H 0.16419 0.46087 0.06452 0.0
H608 H 0.26859 0.60679 0.029 0.0
H609 H 0.23593 0.55052 0.03199 0.0
H610 H 0.26435 0.4677 0.11677 0.0
C611 C 0.18627 0.36748 0.12398 0.0
C612 C 0.18596 0.46233 0.07619 0.0
C613 C 0.17954 0.32831 0.12139 0.0
C614 C 0.26717 0.59045 0.05438 0.0
C615 C 0.24835 0.55853 0.05618 0.0
C616 C 0.24229 0.46696 0.10589 0.0
C617 C 0.18376 0.39161 0.09303 0.0
C618 C 0.1986 0.42962 0.09284 0.0
C619 C 0.24671 0.53622 0.08845 0.0
C620 C 0.22971 0.49985 0.08967 0.0
H621 H 0.15615 0.32623 0.03233 0.0
H622 H 0.16898 0.39484 0.03644 0.0
H623 H 0.23768 0.40735 0.11937 0.0
H624 H 0.29488 0.58591 0.1415 0.0
H625 H 0.26192 0.5311 0.14474 0.0
C626 C 0.26114 0.88705 0.5511 0.0
C627 C 0.23911 0.88617 0.57811 0.0
C628 C 0.2826 0.91588 0.55175 0.0
C629 C 0.31587 0.98942 0.6127 0.0
H630 H 0.32478 0.05 0.52364 0.0
C631 C 0.32973 0.1522 0.61127 0.0
C632 C 0.34614 0.17018 0.58346 0.0
C633 C 0.32711 0.11206 0.61224 0.0
C634 C 0.32328 0.03286 0.54852 0.0
H635 H 0.22238 0.91479 0.62694 0.0
H636 H 0.25941 0.96503 0.62772 0.0
H637 H 0.29956 0.98796 0.52114 0.0
H638 H 0.37433 0.1602 0.53635 0.0
H639 H 0.3693 0.0898 0.53783 0.0
H640 H 0.33796 0.03554 0.64047 0.0
C641 C 0.26046 0.94312 0.60646 0.0
C642 C 0.30879 -0.00265 0.54708 0.0
C643 C 0.239 0.91458 0.60571 0.0
C644 C 0.36133 0.14714 0.55795 0.0
C645 C 0.35848 0.10691 0.55875 0.0
C646 C 0.33031 0.02492 0.61414 0.0
C647 C 0.28249 0.94404 0.57957 0.0
C648 C 0.30372 0.97629 0.57948 0.0
C649 C 0.34072 0.08912 0.58533 0.0
C650 C 0.33287 0.04777 0.58238 0.0
H651 H 0.26184 0.86549 0.5295 0.0
H652 H 0.2993 0.91611 0.53062 0.0
H653 H 0.31277 0.97325 0.63793 0.0
H654 H 0.31806 0.1692 0.63155 0.0
H655 H 0.31299 0.09918 0.63282 0.0
C656 C 0.17521 0.21042 0.93776 0.0
C657 C 0.19333 0.21191 0.969 0.0
C658 C 0.18685 0.21788 0.90255 0.0
C659 C 0.24929 0.26881 0.859 0.0
H660 H 0.23236 0.20711 0.77272 0.0
C661 C 0.31574 0.28663 0.72445 0.0
C662 C 0.30058 0.28361 0.69094 0.0
C663 C 0.30186 0.2774 0.75776 0.0
C664 C 0.23708 0.225 0.79642 0.0
H665 H 0.23823 0.21993 0.98721 0.0
H666 H 0.25806 0.2326 0.92679 0.0
H667 H 0.2083 0.19188 0.83105 0.0
H668 H 0.25875 0.26847 0.66649 0.0
H669 H 0.23464 0.25327 0.72417 0.0
H670 H 0.27786 0.3021 0.82475 0.0
C671 C 0.23485 0.22676 0.92924 0.0
C672 C 0.22323 0.21621 0.82986 0.0
C673 C 0.22338 0.2193 0.96399 0.0
C674 C 0.27125 0.27109 0.69167 0.0
C675 C 0.25739 0.26204 0.72486 0.0
C676 C 0.263 0.2777 0.82566 0.0
C677 C 0.21675 0.22702 0.89811 0.0
C678 C 0.22948 0.23771 0.86168 0.0
C679 C 0.27243 0.26503 0.75844 0.0
C680 C 0.25737 0.25571 0.79392 0.0
H681 H 0.15202 0.2047 0.94061 0.0
H682 H 0.17234 0.21771 0.87902 0.0
H683 H 0.25423 0.28645 0.88282 0.0
H684 H 0.33838 0.29593 0.72496 0.0
H685 H 0.31435 0.27954 0.78297 0.0
C686 C 0.19935 0.20013 0.2244 0.0
C687 C 0.21531 0.19865 0.19139 0.0
C688 C 0.21307 0.21098 0.25738 0.0
C689 C 0.28586 0.21862 0.30218 0.0
H690 H 0.24638 0.29004 0.36753 0.0
C691 C 0.34056 0.27563 0.43676 0.0
C692 C 0.32216 0.2761 0.46774 0.0
C693 C 0.32878 0.26952 0.40142 0.0
C694 C 0.25769 0.26982 0.34979 0.0
H695 H 0.25844 0.20691 0.16751 0.0
H696 H 0.28212 0.22544 0.22467 0.0
H697 H 0.22275 0.27035 0.31048 0.0
H698 H 0.27687 0.27236 0.4855 0.0
H699 H 0.2568 0.26143 0.42503 0.0
H700 H 0.32056 0.21745 0.34186 0.0
C701 C 0.25907 0.21815 0.22523 0.0
C702 C 0.24405 0.25847 0.31706 0.0
C703 C 0.24536 0.2077 0.19234 0.0
C704 C 0.29182 0.27187 0.46238 0.0
C705 C 0.28017 0.26595 0.42744 0.0
C706 C 0.29945 0.22977 0.3351 0.0
C707 C 0.24312 0.22021 0.25816 0.0
C708 C 0.25781 0.23245 0.29296 0.0
C709 C 0.2984 0.26419 0.39641 0.0
C710 C 0.28539 0.25518 0.35962 0.0
H711 H 0.17619 0.19345 0.22468 0.0
H712 H 0.20019 0.21192 0.28235 0.0
H713 H 0.29704 0.19834 0.28436 0.0
H714 H 0.364 0.27878 0.43992 0.0
H715 H 0.34348 0.26873 0.37808 0.0
C716 C 0.77973 0.24806 0.35408 0.0
C717 C 0.79362 0.21189 0.35767 0.0
C718 C 0.76542 0.25825 0.32129 0.0
C719 C 0.73304 0.2151 0.23672 0.0
H720 H 0.7412 0.31857 0.19669 0.0
C721 C 0.674 0.2609 0.10232 0.0
C722 C 0.69107 0.28162 0.07681 0.0
C723 C 0.68394 0.25509 0.13844 0.0
C724 C 0.73871 0.2895 0.20743 0.0
H725 H 0.80351 0.15832 0.32908 0.0
H726 H 0.77891 0.17612 0.27227 0.0
H727 H 0.76411 0.3026 0.25541 0.0
H728 H 0.73152 0.3138 0.07003 0.0
H729 H 0.74873 0.30362 0.13254 0.0
H730 H 0.7084 0.20163 0.1883 0.0
C731 C 0.77862 0.19646 0.29492 0.0
C732 C 0.75163 0.28045 0.24135 0.0
C733 C 0.79296 0.18635 0.32754 0.0
C734 C 0.71776 0.29761 0.08881 0.0
C735 C 0.72759 0.29197 0.12486 0.0
C736 C 0.72005 0.22419 0.2029 0.0
C737 C 0.76454 0.23247 0.29131 0.0
C738 C 0.74932 0.24295 0.25624 0.0
C739 C 0.7111 0.27006 0.15005 0.0
C740 C 0.72301 0.26138 0.18751 0.0
H741 H 0.77978 0.2685 0.37665 0.0
H742 H 0.75467 0.28613 0.31964 0.0
H743 H 0.73041 0.18608 0.24751 0.0
H744 H 0.65336 0.24814 0.09411 0.0
H745 H 0.67045 0.23851 0.1572 0.0
C746 C 0.79691 0.18273 0.58903 0.0
C747 C 0.82355 0.19887 0.577 0.0
C748 C 0.78712 0.1882 0.62511 0.0
C749 C 0.77604 0.19047 0.70768 0.0
H750 H 0.7841 0.29392 0.74762 0.0
C751 C 0.73467 0.23198 0.85412 0.0
C752 C 0.72073 0.26814 0.85753 0.0
C753 C 0.74904 0.22175 0.82141 0.0
C754 C 0.78155 0.26488 0.73687 0.0
H755 H 0.86124 0.23235 0.59428 0.0
H756 H 0.84423 0.24169 0.65743 0.0
H757 H 0.80622 0.27844 0.68848 0.0
H758 H 0.71077 0.32158 0.82868 0.0
H759 H 0.73547 0.30369 0.77202 0.0
H760 H 0.75059 0.1773 0.75562 0.0
C761 C 0.83074 0.22514 0.63867 0.0
C762 C 0.79459 0.25585 0.70309 0.0
C763 C 0.84064 0.21951 0.60251 0.0
C764 C 0.72137 0.29358 0.82729 0.0
C765 C 0.73577 0.28342 0.79475 0.0
C766 C 0.76306 0.19948 0.74155 0.0
C767 C 0.80361 0.21006 0.65029 0.0
C768 C 0.79171 0.21866 0.68775 0.0
C769 C 0.74994 0.24746 0.79134 0.0
C770 C 0.76527 0.23699 0.75637 0.0
H771 H 0.78315 0.16658 0.57026 0.0
H772 H 0.76602 0.17646 0.63281 0.0
H773 H 0.77361 0.1614 0.69697 0.0
H774 H 0.73462 0.21162 0.87678 0.0
H775 H 0.75985 0.1939 0.8199 0.0
C776 C 0.79428 0.79293 0.06084 0.0
C777 C 0.82249 0.77994 0.05133 0.0
C778 C 0.78273 0.78594 0.09582 0.0
C779 C 0.80134 0.75913 0.19174 0.0
H780 H 0.72093 0.72323 0.19423 0.0
C781 C 0.73564 0.73977 0.32779 0.0
C782 C 0.71797 0.7065 0.3308 0.0
C783 C 0.74917 0.74934 0.29437 0.0
C784 C 0.74345 0.73301 0.19408 0.0
H785 H 0.86107 0.75072 0.07218 0.0
H786 H 0.84086 0.73865 0.13348 0.0
H787 H 0.74361 0.73919 0.13553 0.0
H788 H 0.70065 0.65742 0.30063 0.0
H789 H 0.7241 0.67416 0.24255 0.0
H790 H 0.80114 0.75253 0.25044 0.0
C791 C 0.82772 0.75431 0.11365 0.0
C792 C 0.75639 0.74259 0.1604 0.0
C793 C 0.83931 0.7612 0.07846 0.0
C794 C 0.71407 0.68324 0.29943 0.0
C795 C 0.72743 0.69296 0.266 0.0
C796 C 0.78829 0.74981 0.22556 0.0
C797 C 0.79902 0.76586 0.1225 0.0
C798 C 0.7855 0.7558 0.15871 0.0
C799 C 0.74519 0.72611 0.263 0.0
C800 C 0.75917 0.73651 0.22715 0.0
H801 H 0.7807 0.80778 0.04091 0.0
H802 H 0.7608 0.79598 0.10186 0.0
H803 H 0.82373 0.76939 0.19151 0.0
H804 H 0.73912 0.75844 0.3513 0.0
H805 H 0.76242 0.7753 0.29298 0.0
C806 C 0.78529 0.7387 0.82684 0.0
C807 C 0.80075 0.77376 0.83045 0.0
C808 C 0.77132 0.72912 0.79375 0.0
C809 C 0.74256 0.77264 0.70747 0.0
H810 H 0.74558 0.66721 0.6712 0.0
C811 C 0.72113 0.68515 0.56328 0.0
C812 C 0.6946 0.70192 0.55175 0.0
C813 C 0.73214 0.69197 0.59861 0.0
C814 C 0.74456 0.69683 0.68087 0.0
H815 H 0.81381 0.82597 0.80159 0.0
H816 H 0.78971 0.80913 0.74396 0.0
H817 H 0.76934 0.68346 0.72925 0.0
H818 H 0.65849 0.73829 0.56905 0.0
H819 H 0.67769 0.7501 0.63083 0.0
H820 H 0.71833 0.78617 0.65867 0.0
C821 C 0.78799 0.78927 0.76691 0.0
C822 C 0.75798 0.70609 0.71439 0.0
C823 C 0.80201 0.79883 0.79996 0.0
C824 C 0.67893 0.72481 0.57696 0.0
C825 C 0.69009 0.73188 0.61229 0.0
C826 C 0.72903 0.76334 0.67404 0.0
C827 C 0.77238 0.75433 0.76334 0.0
C828 C 0.75738 0.74421 0.72804 0.0
C829 C 0.71705 0.71595 0.62342 0.0
C830 C 0.73003 0.72536 0.66011 0.0
H831 H 0.7838 0.71865 0.84967 0.0
H832 H 0.75928 0.70216 0.79221 0.0
H833 H 0.74132 0.80219 0.71728 0.0
H834 H 0.73382 0.66733 0.54469 0.0
H835 H 0.75306 0.67947 0.606 0.0
C836 C 0.24616 0.76341 0.68166 0.0
C837 C 0.21612 0.77235 0.68043 0.0
C838 C 0.25955 0.75252 0.71463 0.0
C839 C 0.24912 0.75666 0.81583 0.0
H840 H 0.31157 0.68055 0.81703 0.0
C841 C 0.29202 0.69587 0.95115 0.0
C842 C 0.32244 0.69739 0.95686 0.0
C843 C 0.28021 0.70124 0.91623 0.0
C844 C 0.29432 0.70204 0.81702 0.0
H845 H 0.17657 0.77617 0.71306 0.0
H846 H 0.19969 0.75614 0.77044 0.0
H847 H 0.28777 0.69727 0.75889 0.0
H848 H 0.36446 0.70304 0.92983 0.0
H849 H 0.34359 0.7122 0.86801 0.0
H850 H 0.25533 0.76093 0.87396 0.0
C851 C 0.21311 0.75843 0.74601 0.0
C852 C 0.28068 0.71175 0.78372 0.0
C853 C 0.19974 0.76969 0.71301 0.0
C854 C 0.34095 0.70166 0.92626 0.0
C855 C 0.32901 0.70701 0.89096 0.0
C856 C 0.26253 0.7467 0.84901 0.0
C857 C 0.24327 0.74991 0.74732 0.0
C858 C 0.2578 0.73914 0.7827 0.0
C859 C 0.29845 0.70821 0.88593 0.0
C860 C 0.28515 0.71914 0.85007 0.0
H861 H 0.25956 0.76528 0.65716 0.0
H862 H 0.28285 0.74689 0.71454 0.0
H863 H 0.23217 0.77855 0.81617 0.0
H864 H 0.27715 0.69199 0.97406 0.0
H865 H 0.25663 0.70104 0.9131 0.0
C866 C 0.17948 0.78911 0.42597 0.0
C867 C 0.19807 0.7886 0.45674 0.0
C868 C 0.19119 0.78626 0.39033 0.0
C869 C 0.26159 0.7929 0.33792 0.0
H870 H 0.22429 0.71993 0.27198 0.0
C871 C 0.32126 0.7242 0.21315 0.0
C872 C 0.30521 0.7207 0.18034 0.0
C873 C 0.30748 0.73624 0.24566 0.0
C874 C 0.23483 0.74073 0.28989 0.0
H875 H 0.2435 0.78705 0.47412 0.0
H876 H 0.26359 0.78171 0.41287 0.0
H877 H 0.20056 0.7367 0.32987 0.0
H878 H 0.26206 0.72765 0.15609 0.0
H879 H 0.23831 0.74836 0.21246 0.0
H880 H 0.29625 0.79604 0.29831 0.0
C881 C 0.2401 0.78447 0.41575 0.0
C882 C 0.22113 0.75052 0.32303 0.0
C883 C 0.22849 0.78716 0.45105 0.0
C884 C 0.27517 0.72981 0.18081 0.0
C885 C 0.26144 0.74153 0.21322 0.0
C886 C 0.27537 0.78291 0.30491 0.0
C887 C 0.22168 0.78323 0.38488 0.0
C888 C 0.23453 0.7763 0.34775 0.0
C889 C 0.27734 0.74475 0.24608 0.0
C890 C 0.26232 0.75637 0.28069 0.0
H891 H 0.15596 0.79022 0.42947 0.0
H892 H 0.17638 0.78584 0.3671 0.0
H893 H 0.27233 0.81339 0.35595 0.0
H894 H 0.3444 0.7175 0.21378 0.0
H895 H 0.32031 0.73815 0.27063 0.0
loop_
_geom_bond_atom_site_label_1
_geom_bond_atom_site_label_2
_geom_bond_distance
_geom_bond_site_symmetry_2
_ccdc_geom_bond_type
Fe0 O2 1.918 . S
Fe0 O5 1.997 . S
Fe0 O6 2.002 . S
Fe0 O11 1.976 . S
Fe0 O14 1.996 . S
Fe1 O2 1.918 . S
Fe1 O9 1.997 . S
Fe1 O12 1.996 . S
Fe1 O16 1.976 . S
Fe1 O19 2.002 . S
O2 Fe0 1.918 . S
O2 Fe1 1.918 . S
O2 Fe3 1.918 . S
Fe3 O2 1.918 . S
Fe3 O4 2.002 . S
Fe3 O13 1.976 . S
Fe3 O17 1.996 . S
Fe3 O20 1.997 . S
O4 Fe3 2.002 . S
O4 C21 1.295 . S
O5 Fe0 1.997 . S
O5 C21 1.235 . S
O6 Fe0 2.002 . S
O6 C7 1.295 . S
C7 O6 1.295 . S
C7 O9 1.235 . S
C8 O13 1.287 . S
C8 O14 1.255 . S
O9 Fe1 1.997 . S
O9 C7 1.235 . S
C10 O16 1.287 . S
C10 O17 1.255 . S
O11 Fe0 1.976 . S
O11 C18 1.287 . S
O12 Fe1 1.996 . S
O12 C18 1.255 . S
O13 Fe3 1.976 . S
O13 C8 1.287 . S
O14 Fe0 1.996 . S
O14 C8 1.255 . S
C15 O19 1.295 . S
C15 O20 1.235 . S
O16 Fe1 1.976 . S
O16 C10 1.287 . S
O17 Fe3 1.996 . S
O17 C10 1.255 . S
C18 O11 1.287 . S
C18 O12 1.255 . S
O19 Fe1 2.002 . S
O19 C15 1.295 . S
O20 Fe3 1.997 . S
O20 C15 1.235 . S
C21 O4 1.295 . S
C21 O5 1.235 . S
Fe22 O24 1.918 . S
Fe22 O27 1.997 . S
Fe22 O28 2.002 . S
Fe22 O33 1.976 . S
Fe22 O36 1.996 . S
Fe23 O24 1.918 . S
Fe23 O31 1.997 . S
Fe23 O34 1.996 . S
Fe23 O38 1.976 . S
Fe23 O41 2.002 . S
O24 Fe22 1.918 . S
O24 Fe23 1.918 . S
O24 Fe25 1.918 . S
Fe25 O24 1.918 . S
Fe25 O26 2.002 . S
Fe25 O35 1.976 . S
Fe25 O39 1.996 . S
Fe25 O42 1.997 . S
O26 Fe25 2.002 . S
O26 C43 1.295 . S
O27 Fe22 1.997 . S
O27 C43 1.235 . S
O28 Fe22 2.002 . S
O28 C29 1.295 . S
C29 O28 1.295 . S
C29 O31 1.235 . S
C30 O35 1.287 . S
C30 O36 1.255 . S
O31 Fe23 1.997 . S
O31 C29 1.235 . S
C32 O38 1.287 . S
C32 O39 1.255 . S
O33 Fe22 1.976 . S
O33 C40 1.287 . S
O34 Fe23 1.996 . S
O34 C40 1.255 . S
O35 Fe25 1.976 . S
O35 C30 1.287 . S
O36 Fe22 1.996 . S
O36 C30 1.255 . S
C37 O41 1.295 . S
C37 O42 1.235 . S
O38 Fe23 1.976 . S
O38 C32 1.287 . S
O39 Fe25 1.996 . S
O39 C32 1.255 . S
C40 O33 1.287 . S
C40 O34 1.255 . S
O41 Fe23 2.002 . S
O41 C37 1.295 . S
O42 Fe25 1.997 . S
O42 C37 1.235 . S
C43 O26 1.295 . S
C43 O27 1.235 . S
Fe44 O46 1.918 . S
Fe44 O49 1.997 . S
Fe44 O50 2.002 . S
Fe44 O55 1.976 . S
Fe44 O58 1.996 . S
Fe45 O46 1.918 . S
Fe45 O53 1.997 . S
Fe45 O56 1.996 . S
Fe45 O60 1.976 . S
Fe45 O63 2.002 . S
O46 Fe44 1.918 . S
O46 Fe45 1.918 . S
O46 Fe47 1.918 . S
Fe47 O46 1.918 . S
Fe47 O48 2.002 . S
Fe47 O57 1.976 . S
Fe47 O61 1.996 . S
Fe47 O64 1.997 . S
O48 Fe47 2.002 . S
O48 C65 1.295 . S
O49 Fe44 1.997 . S
O49 C65 1.235 . S
O50 Fe44 2.002 . S
O50 C51 1.295 . S
C51 O50 1.295 . S
C51 O53 1.235 . S
C52 O57 1.287 . S
C52 O58 1.255 . S
O53 Fe45 1.997 . S
O53 C51 1.235 . S
C54 O60 1.287 . S
C54 O61 1.255 . S
O55 Fe44 1.976 . S
O55 C62 1.287 . S
O56 Fe45 1.996 . S
O56 C62 1.255 . S
O57 Fe47 1.976 . S
O57 C52 1.287 . S
O58 Fe44 1.996 . S
O58 C52 1.255 . S
C59 O63 1.295 . S
C59 O64 1.235 . S
O60 Fe45 1.976 . S
O60 C54 1.287 . S
O61 Fe47 1.996 . S
O61 C54 1.255 . S
C62 O55 1.287 . S
C62 O56 1.255 . S
O63 Fe45 2.002 . S
O63 C59 1.295 . S
O64 Fe47 1.997 . S
O64 C59 1.235 . S
C65 O48 1.295 . S
C65 O49 1.235 . S
Fe66 O68 1.918 . S
Fe66 O71 1.997 . S
Fe66 O72 2.002 . S
Fe66 O77 1.976 . S
Fe66 O80 1.996 . S
Fe67 O68 1.918 . S
Fe67 O75 1.997 . S
Fe67 O78 1.996 . S
Fe67 O82 1.976 . S
Fe67 O85 2.002 . S
O68 Fe66 1.918 . S
O68 Fe67 1.918 . S
O68 Fe69 1.918 . S
Fe69 O68 1.918 . S
Fe69 O70 2.002 . S
Fe69 O79 1.976 . S
Fe69 O83 1.996 . S
Fe69 O86 1.997 . S
O70 Fe69 2.002 . S
O70 C87 1.295 . S
O71 Fe66 1.997 . S
O71 C87 1.235 . S
O72 Fe66 2.002 . S
O72 C73 1.295 . S
C73 O72 1.295 . S
C73 O75 1.235 . S
C74 O79 1.287 . S
C74 O80 1.255 . S
O75 Fe67 1.997 . S
O75 C73 1.235 . S
C76 O82 1.287 . S
C76 O83 1.255 . S
O77 Fe66 1.976 . S
O77 C84 1.287 . S
O78 Fe67 1.996 . S
O78 C84 1.255 . S
O79 Fe69 1.976 . S
O79 C74 1.287 . S
O80 Fe66 1.996 . S
O80 C74 1.255 . S
C81 O85 1.295 . S
C81 O86 1.235 . S
O82 Fe67 1.976 . S
O82 C76 1.287 . S
O83 Fe69 1.996 . S
O83 C76 1.255 . S
C84 O77 1.287 . S
C84 O78 1.255 . S
O85 Fe67 2.002 . S
O85 C81 1.295 . S
O86 Fe69 1.997 . S
O86 C81 1.235 . S
C87 O70 1.295 . S
C87 O71 1.235 . S
Fe88 O90 1.918 . S
Fe88 O93 1.997 . S
Fe88 O94 2.002 . S
Fe88 O99 1.976 . S
Fe88 O102 1.996 . S
Fe89 O90 1.918 . S
Fe89 O97 1.997 . S
Fe89 O100 1.996 . S
Fe89 O104 1.976 . S
Fe89 O107 2.002 . S
O90 Fe88 1.918 . S
O90 Fe89 1.918 . S
O90 Fe91 1.918 . S
Fe91 O90 1.918 . S
Fe91 O92 2.002 . S
Fe91 O101 1.976 . S
Fe91 O105 1.996 . S
Fe91 O108 1.997 . S
O92 Fe91 2.002 . S
O92 C109 1.295 . S
O93 Fe88 1.997 . S
O93 C109 1.235 . S
O94 Fe88 2.002 . S
O94 C95 1.295 . S
C95 O94 1.295 . S
C95 O97 1.235 . S
C96 O101 1.287 . S
C96 O102 1.255 . S
O97 Fe89 1.997 . S
O97 C95 1.235 . S
C98 O104 1.287 . S
C98 O105 1.255 . S
O99 Fe88 1.976 . S
O99 C106 1.287 . S
O100 Fe89 1.996 . S
O100 C106 1.255 . S
O101 Fe91 1.976 . S
O101 C96 1.287 . S
O102 Fe88 1.996 . S
O102 C96 1.255 . S
C103 O107 1.295 . S
C103 O108 1.235 . S
O104 Fe89 1.976 . S
O104 C98 1.287 . S
O105 Fe91 1.996 . S
O105 C98 1.255 . S
C106 O99 1.287 . S
C106 O100 1.255 . S
O107 Fe89 2.002 . S
O107 C103 1.295 . S
O108 Fe91 1.997 . S
O108 C103 1.235 . S
C109 O92 1.295 . S
C109 O93 1.235 . S
Fe110 O112 1.918 . S
Fe110 O115 1.997 . S
Fe110 O116 2.002 . S
Fe110 O121 1.976 . S
Fe110 O124 1.996 . S
Fe111 O112 1.918 . S
Fe111 O119 1.997 . S
Fe111 O122 1.996 . S
Fe111 O126 1.976 . S
Fe111 O129 2.002 . S
O112 Fe110 1.918 . S
O112 Fe111 1.918 . S
O112 Fe113 1.918 . S
Fe113 O112 1.918 . S
Fe113 O114 2.002 . S
Fe113 O123 1.976 . S
Fe113 O127 1.996 . S
Fe113 O130 1.997 . S
O114 Fe113 2.002 . S
O114 C131 1.295 . S
O115 Fe110 1.997 . S
O115 C131 1.235 . S
O116 Fe110 2.002 . S
O116 C117 1.295 . S
C117 O116 1.295 . S
C117 O119 1.235 . S
C118 O123 1.287 . S
C118 O124 1.255 . S
O119 Fe111 1.997 . S
O119 C117 1.235 . S
C120 O126 1.287 . S
C120 O127 1.255 . S
O121 Fe110 1.976 . S
O121 C128 1.287 . S
O122 Fe111 1.996 . S
O122 C128 1.255 . S
O123 Fe113 1.976 . S
O123 C118 1.287 . S
O124 Fe110 1.996 . S
O124 C118 1.255 . S
C125 O129 1.295 . S
C125 O130 1.235 . S
O126 Fe111 1.976 . S
O126 C120 1.287 . S
O127 Fe113 1.996 . S
O127 C120 1.255 . S
C128 O121 1.287 . S
C128 O122 1.255 . S
O129 Fe111 2.002 . S
O129 C125 1.295 . S
O130 Fe113 1.997 . S
O130 C125 1.235 . S
C131 O114 1.295 . S
C131 O115 1.235 . S
Fe132 O134 1.918 . S
Fe132 O137 1.997 . S
Fe132 O138 2.002 . S
Fe132 O143 1.976 . S
Fe132 O146 1.996 . S
Fe133 O134 1.918 . S
Fe133 O141 1.997 . S
Fe133 O144 1.996 . S
Fe133 O148 1.976 . S
Fe133 O151 2.002 . S
O134 Fe132 1.918 . S
O134 Fe133 1.918 . S
O134 Fe135 1.918 . S
Fe135 O134 1.918 . S
Fe135 O136 2.002 . S
Fe135 O145 1.976 . S
Fe135 O149 1.996 . S
Fe135 O152 1.997 . S
O136 Fe135 2.002 . S
O136 C153 1.295 . S
O137 Fe132 1.997 . S
O137 C153 1.235 . S
O138 Fe132 2.002 . S
O138 C139 1.295 . S
C139 O138 1.295 . S
C139 O141 1.235 . S
C140 O145 1.287 . S
C140 O146 1.255 . S
O141 Fe133 1.997 . S
O141 C139 1.235 . S
C142 O148 1.287 . S
C142 O149 1.255 . S
O143 Fe132 1.976 . S
O143 C150 1.287 . S
O144 Fe133 1.996 . S
O144 C150 1.255 . S
O145 Fe135 1.976 . S
O145 C140 1.287 . S
O146 Fe132 1.996 . S
O146 C140 1.255 . S
C147 O151 1.295 . S
C147 O152 1.235 . S
O148 Fe133 1.976 . S
O148 C142 1.287 . S
O149 Fe135 1.996 . S
O149 C142 1.255 . S
C150 O143 1.287 . S
C150 O144 1.255 . S
O151 Fe133 2.002 . S
O151 C147 1.295 . S
O152 Fe135 1.997 . S
O152 C147 1.235 . S
C153 O136 1.295 . S
C153 O137 1.235 . S
Fe154 O156 1.918 . S
Fe154 O159 1.997 . S
Fe154 O160 2.002 . S
Fe154 O165 1.976 . S
Fe154 O168 1.996 . S
Fe155 O156 1.918 . S
Fe155 O163 1.997 . S
Fe155 O166 1.996 . S
Fe155 O170 1.976 . S
Fe155 O173 2.002 . S
O156 Fe154 1.918 . S
O156 Fe155 1.918 . S
O156 Fe157 1.918 . S
Fe157 O156 1.918 . S
Fe157 O158 2.002 . S
Fe157 O167 1.976 . S
Fe157 O171 1.996 . S
Fe157 O174 1.997 . S
O158 Fe157 2.002 . S
O158 C175 1.295 . S
O159 Fe154 1.997 . S
O159 C175 1.235 . S
O160 Fe154 2.002 . S
O160 C161 1.295 . S
C161 O160 1.295 . S
C161 O163 1.235 . S
C162 O167 1.287 . S
C162 O168 1.255 . S
O163 Fe155 1.997 . S
O163 C161 1.235 . S
C164 O170 1.287 . S
C164 O171 1.255 . S
O165 Fe154 1.976 . S
O165 C172 1.287 . S
O166 Fe155 1.996 . S
O166 C172 1.255 . S
O167 Fe157 1.976 . S
O167 C162 1.287 . S
O168 Fe154 1.996 . S
O168 C162 1.255 . S
C169 O173 1.295 . S
C169 O174 1.235 . S
O170 Fe155 1.976 . S
O170 C164 1.287 . S
O171 Fe157 1.996 . S
O171 C164 1.255 . S
C172 O165 1.287 . S
C172 O166 1.255 . S
O173 Fe155 2.002 . S
O173 C169 1.295 . S
O174 Fe157 1.997 . S
O174 C169 1.235 . S
C175 O158 1.295 . S
C175 O159 1.235 . S
C176 C177 1.349 . S
C176 C178 1.327 . S
C176 H201 0.950 . S
C177 C176 1.349 . S
C177 C193 1.349 . S
C178 C176 1.327 . S
C178 C197 1.429 . S
C178 H202 0.950 . S
C179 C196 1.574 1_455 S
C179 C198 1.368 . S
C179 H203 0.949 . S
H180 C184 0.949 . S
C181 C182 1.349 . S
C181 C183 1.327 . S
C181 H204 0.950 . S
C182 C181 1.349 . S
C182 C194 1.349 . S
C183 C181 1.327 . S
C183 C199 1.429 . S
C183 H205 0.950 . S
C184 H180 0.949 . S
C184 C192 1.574 1_655 S
C184 C200 1.368 . S
H185 C193 0.950 . S
H186 C191 0.950 . S
H187 C192 0.949 . S
H188 C194 0.950 . S
H189 C195 0.950 . S
H190 C196 0.949 . S
C191 H186 0.950 . S
C191 C193 1.327 . S
C191 C197 1.429 . S
C192 C184 1.574 1_455 S
C192 H187 0.949 . S
C192 C198 1.368 . S
C193 C177 1.349 . S
C193 H185 0.950 . S
C193 C191 1.327 . S
C194 C182 1.349 . S
C194 H188 0.950 . S
C194 C195 1.327 . S
C195 H189 0.950 . S
C195 C194 1.327 . S
C195 C199 1.429 . S
C196 C179 1.574 1_655 S
C196 H190 0.949 . S
C196 C200 1.368 . S
C197 C178 1.429 . S
C197 C191 1.429 . S
C197 C198 1.523 . S
C198 C179 1.368 . S
C198 C192 1.368 . S
C198 C197 1.523 . S
C199 C183 1.429 . S
C199 C195 1.429 . S
C199 C200 1.523 . S
C200 C184 1.368 . S
C200 C196 1.368 . S
C200 C199 1.523 . S
H201 C176 0.950 . S
H202 C178 0.950 . S
H203 C179 0.949 . S
H204 C181 0.950 . S
H205 C183 0.950 . S
C206 C207 1.349 . S
C206 C208 1.327 . S
C206 H231 0.950 . S
C207 C206 1.349 . S
C207 C223 1.349 . S
C208 C206 1.327 . S
C208 C227 1.429 . S
C208 H232 0.950 . S
C209 C226 1.574 . S
C209 C228 1.368 . S
C209 H233 0.949 . S
H210 C214 0.949 . S
C211 C212 1.349 . S
C211 C213 1.327 . S
C211 H234 0.950 . S
C212 C211 1.349 . S
C212 C224 1.349 . S
C213 C211 1.327 . S
C213 C229 1.429 . S
C213 H235 0.950 . S
C214 H210 0.949 . S
C214 C222 1.574 . S
C214 C230 1.368 . S
H215 C223 0.950 . S
H216 C221 0.950 . S
H217 C222 0.949 . S
H218 C224 0.950 . S
H219 C225 0.950 . S
H220 C226 0.949 . S
C221 H216 0.950 . S
C221 C223 1.327 . S
C221 C227 1.429 . S
C222 C214 1.574 . S
C222 H217 0.949 . S
C222 C228 1.368 . S
C223 C207 1.349 . S
C223 H215 0.950 . S
C223 C221 1.327 . S
C224 C212 1.349 . S
C224 H218 0.950 . S
C224 C225 1.327 . S
C225 H219 0.950 . S
C225 C224 1.327 . S
C225 C229 1.429 . S
C226 C209 1.574 . S
C226 H220 0.949 . S
C226 C230 1.368 . S
C227 C208 1.429 . S
C227 C221 1.429 . S
C227 C228 1.523 . S
C228 C209 1.368 . S
C228 C222 1.368 . S
C228 C227 1.523 . S
C229 C213 1.429 . S
C229 C225 1.429 . S
C229 C230 1.523 . S
C230 C214 1.368 . S
C230 C226 1.368 . S
C230 C229 1.523 . S
H231 C206 0.950 . S
H232 C208 0.950 . S
H233 C209 0.949 . S
H234 C211 0.950 . S
H235 C213 0.950 . S
C236 C237 1.349 . S
C236 C238 1.327 . S
C236 H261 0.950 . S
C237 C236 1.349 . S
C237 C253 1.349 . S
C238 C236 1.327 . S
C238 C257 1.429 . S
C238 H262 0.950 . S
C239 C256 1.574 1_655 S
C239 C258 1.368 . S
C239 H263 0.949 . S
H240 C244 0.949 . S
C241 C242 1.349 . S
C241 C243 1.327 . S
C241 H264 0.950 . S
C242 C241 1.349 . S
C242 C254 1.349 . S
C243 C241 1.327 . S
C243 C259 1.429 . S
C243 H265 0.950 . S
C244 H240 0.949 . S
C244 C252 1.574 1_455 S
C244 C260 1.368 . S
H245 C253 0.950 . S
H246 C251 0.950 . S
H247 C252 0.949 . S
H248 C254 0.950 . S
H249 C255 0.950 . S
H250 C256 0.949 . S
C251 H246 0.950 . S
C251 C253 1.327 . S
C251 C257 1.429 . S
C252 C244 1.574 1_655 S
C252 H247 0.949 . S
C252 C258 1.368 . S
C253 C237 1.349 . S
C253 H245 0.950 . S
C253 C251 1.327 . S
C254 C242 1.349 . S
C254 H248 0.950 . S
C254 C255 1.327 . S
C255 H249 0.950 . S
C255 C254 1.327 . S
C255 C259 1.429 . S
C256 C239 1.574 1_455 S
C256 H250 0.949 . S
C256 C260 1.368 . S
C257 C238 1.429 . S
C257 C251 1.429 . S
C257 C258 1.523 . S
C258 C239 1.368 . S
C258 C252 1.368 . S
C258 C257 1.523 . S
C259 C243 1.429 . S
C259 C255 1.429 . S
C259 C260 1.523 . S
C260 C244 1.368 . S
C260 C256 1.368 . S
C260 C259 1.523 . S
H261 C236 0.950 . S
H262 C238 0.950 . S
H263 C239 0.949 . S
H264 C241 0.950 . S
H265 C243 0.950 . S
C266 C267 1.349 . S
C266 C268 1.327 . S
C266 H291 0.950 . S
C267 C266 1.349 . S
C267 C283 1.349 . S
C268 C266 1.327 . S
C268 C287 1.429 . S
C268 H292 0.950 . S
C269 C286 1.574 . S
C269 C288 1.368 . S
C269 H293 0.949 . S
H270 C274 0.949 . S
C271 C272 1.349 . S
C271 C273 1.327 . S
C271 H294 0.950 . S
C272 C271 1.349 . S
C272 C284 1.349 . S
C273 C271 1.327 . S
C273 C289 1.429 . S
C273 H295 0.950 . S
C274 H270 0.949 . S
C274 C282 1.574 . S
C274 C290 1.368 . S
H275 C283 0.950 . S
H276 C281 0.950 . S
H277 C282 0.949 . S
H278 C284 0.950 . S
H279 C285 0.950 . S
H280 C286 0.949 . S
C281 H276 0.950 . S
C281 C283 1.327 . S
C281 C287 1.429 . S
C282 C274 1.574 . S
C282 H277 0.949 . S
C282 C288 1.368 . S
C283 C267 1.349 . S
C283 H275 0.950 . S
C283 C281 1.327 . S
C284 C272 1.349 . S
C284 H278 0.950 . S
C284 C285 1.327 . S
C285 H279 0.950 . S
C285 C284 1.327 . S
C285 C289 1.429 . S
C286 C269 1.574 . S
C286 H280 0.949 . S
C286 C290 1.368 . S
C287 C268 1.429 . S
C287 C281 1.429 . S
C287 C288 1.523 . S
C288 C269 1.368 . S
C288 C282 1.368 . S
C288 C287 1.523 . S
C289 C273 1.429 . S
C289 C285 1.429 . S
C289 C290 1.523 . S
C290 C274 1.368 . S
C290 C286 1.368 . S
C290 C289 1.523 . S
H291 C266 0.950 . S
H292 C268 0.950 . S
H293 C269 0.949 . S
H294 C271 0.950 . S
H295 C273 0.950 . S
C296 C297 1.349 . S
C296 C298 1.327 . S
C296 H321 0.950 . S
C297 C296 1.349 . S
C297 C313 1.349 . S
C298 C296 1.327 . S
C298 C317 1.429 . S
C298 H322 0.950 1_554 S
C299 C316 1.574 1_545 S
C299 C318 1.368 1_655 S
C299 H323 0.949 . S
H300 C304 0.949 . S
C301 C302 1.349 . S
C301 C303 1.327 . S
C301 H324 0.950 . S
C302 C301 1.349 . S
C302 C314 1.349 . S
C303 C301 1.327 . S
C303 C319 1.429 . S
C303 H325 0.950 1_556 S
C304 H300 0.949 . S
C304 C312 1.574 1_565 S
C304 C320 1.368 1_455 S
H305 C313 0.950 . S
H306 C311 0.950 . S
H307 C312 0.949 . S
H308 C314 0.950 . S
H309 C315 0.950 . S
H310 C316 0.949 . S
C311 H306 0.950 . S
C311 C313 1.327 . S
C311 C317 1.429 . S
C312 C304 1.574 1_545 S
C312 H307 0.949 . S
C312 C318 1.368 1_556 S
C313 C297 1.349 . S
C313 H305 0.950 . S
C313 C311 1.327 . S
C314 C302 1.349 . S
C314 H308 0.950 . S
C314 C315 1.327 . S
C315 H309 0.950 . S
C315 C314 1.327 . S
C315 C319 1.429 . S
C316 C299 1.574 1_565 S
C316 H310 0.949 . S
C316 C320 1.368 1_554 S
C317 C298 1.429 . S
C317 C311 1.429 . S
C317 C318 1.523 . S
C318 C299 1.368 1_455 S
C318 C312 1.368 1_554 S
C318 C317 1.523 . S
C319 C303 1.429 . S
C319 C315 1.429 . S
C319 C320 1.523 . S
C320 C304 1.368 1_655 S
C320 C316 1.368 1_556 S
C320 C319 1.523 . S
H321 C296 0.950 . S
H322 C298 0.950 1_556 S
H323 C299 0.949 . S
H324 C301 0.950 . S
H325 C303 0.950 1_554 S
C326 C327 1.349 . S
C326 C328 1.327 . S
C326 H351 0.950 . S
C327 C326 1.349 . S
C327 C343 1.349 . S
C328 C326 1.327 . S
C328 C347 1.429 . S
C328 H352 0.950 . S
C329 C346 1.574 . S
C329 C348 1.368 . S
C329 H353 0.949 . S
H330 C334 0.949 . S
C331 C332 1.349 . S
C331 C333 1.327 . S
C331 H354 0.950 . S
C332 C331 1.349 . S
C332 C344 1.349 . S
C333 C331 1.327 . S
C333 C349 1.429 . S
C333 H355 0.950 . S
C334 H330 0.949 . S
C334 C342 1.574 . S
C334 C350 1.368 . S
H335 C343 0.950 . S
H336 C341 0.950 . S
H337 C342 0.949 . S
H338 C344 0.950 . S
H339 C345 0.950 . S
H340 C346 0.949 . S
C341 H336 0.950 . S
C341 C343 1.327 . S
C341 C347 1.429 . S
C342 C334 1.574 . S
C342 H337 0.949 . S
C342 C348 1.368 . S
C343 C327 1.349 . S
C343 H335 0.950 . S
C343 C341 1.327 . S
C344 C332 1.349 . S
C344 H338 0.950 . S
C344 C345 1.327 . S
C345 H339 0.950 . S
C345 C344 1.327 . S
C345 C349 1.429 . S
C346 C329 1.574 . S
C346 H340 0.949 . S
C346 C350 1.368 . S
C347 C328 1.429 . S
C347 C341 1.429 . S
C347 C348 1.523 . S
C348 C329 1.368 . S
C348 C342 1.368 . S
C348 C347 1.523 . S
C349 C333 1.429 . S
C349 C345 1.429 . S
C349 C350 1.523 . S
C350 C334 1.368 . S
C350 C346 1.368 . S
C350 C349 1.523 . S
H351 C326 0.950 . S
H352 C328 0.950 . S
H353 C329 0.949 . S
H354 C331 0.950 . S
H355 C333 0.950 . S
C356 C357 1.349 . S
C356 C358 1.327 . S
C356 H381 0.950 . S
C357 C356 1.349 . S
C357 C373 1.349 . S
C358 C356 1.327 . S
C358 C377 1.429 . S
C358 H382 0.950 . S
C359 C376 1.574 1_554 S
C359 C378 1.368 . S
C359 H383 0.949 . S
H360 C364 0.949 . S
C361 C362 1.349 . S
C361 C363 1.327 . S
C361 H384 0.950 . S
C362 C361 1.349 . S
C362 C374 1.349 . S
C363 C361 1.327 . S
C363 C379 1.429 . S
C363 H385 0.950 . S
C364 H360 0.949 . S
C364 C372 1.574 1_556 S
C364 C380 1.368 . S
H365 C373 0.950 . S
H366 C371 0.950 . S
H367 C372 0.949 . S
H368 C374 0.950 . S
H369 C375 0.950 . S
H370 C376 0.949 . S
C371 H366 0.950 . S
C371 C373 1.327 . S
C371 C377 1.429 . S
C372 C364 1.574 1_554 S
C372 H367 0.949 . S
C372 C378 1.368 . S
C373 C357 1.349 . S
C373 H365 0.950 . S
C373 C371 1.327 . S
C374 C362 1.349 . S
C374 H368 0.950 . S
C374 C375 1.327 . S
C375 H369 0.950 . S
C375 C374 1.327 . S
C375 C379 1.429 . S
C376 C359 1.574 1_556 S
C376 H370 0.949 . S
C376 C380 1.368 . S
C377 C358 1.429 . S
C377 C371 1.429 . S
C377 C378 1.523 . S
C378 C359 1.368 . S
C378 C372 1.368 . S
C378 C377 1.523 . S
C379 C363 1.429 . S
C379 C375 1.429 . S
C379 C380 1.523 . S
C380 C364 1.368 . S
C380 C376 1.368 . S
C380 C379 1.523 . S
H381 C356 0.950 . S
H382 C358 0.950 . S
H383 C359 0.949 . S
H384 C361 0.950 . S
H385 C363 0.950 . S
C386 C387 1.349 . S
C386 C388 1.327 . S
C386 H411 0.950 . S
C387 C386 1.349 . S
C387 C403 1.349 . S
C388 C386 1.327 . S
C388 C407 1.429 . S
C388 H412 0.950 . S
C389 C406 1.573 1_645 S
C389 C408 1.368 . S
C389 H413 0.949 . S
H390 C394 0.949 . S
C391 C392 1.349 . S
C391 C393 1.327 . S
C391 H414 0.950 . S
C392 C391 1.349 . S
C392 C404 1.349 . S
C393 C391 1.327 . S
C393 C409 1.429 . S
C393 H415 0.950 . S
C394 H390 0.949 . S
C394 C402 1.574 1_465 S
C394 C410 1.368 . S
H395 C403 0.950 . S
H396 C401 0.950 . S
H397 C402 0.949 . S
H398 C404 0.950 . S
H399 C405 0.950 . S
H400 C406 0.948 . S
C401 H396 0.950 . S
C401 C403 1.327 . S
C401 C407 1.429 . S
C402 C394 1.574 1_645 S
C402 H397 0.949 . S
C402 C408 1.368 . S
C403 C387 1.349 . S
C403 H395 0.950 . S
C403 C401 1.327 . S
C404 C392 1.349 . S
C404 H398 0.950 . S
C404 C405 1.327 . S
C405 H399 0.950 . S
C405 C404 1.327 . S
C405 C409 1.429 . S
C406 C389 1.573 1_465 S
C406 H400 0.948 . S
C406 C410 1.369 . S
C407 C388 1.429 . S
C407 C401 1.429 . S
C407 C408 1.523 . S
C408 C389 1.368 . S
C408 C402 1.368 . S
C408 C407 1.523 . S
C409 C393 1.429 . S
C409 C405 1.429 . S
C409 C410 1.523 . S
C410 C394 1.368 . S
C410 C406 1.369 . S
C410 C409 1.523 . S
H411 C386 0.950 . S
H412 C388 0.950 . S
H413 C389 0.949 . S
H414 C391 0.950 . S
H415 C393 0.950 . S
C416 C417 1.349 . S
C416 C418 1.327 . S
C416 H441 0.950 . S
C417 C416 1.349 . S
C417 C433 1.349 . S
C418 C416 1.327 . S
C418 C437 1.429 . S
C418 H442 0.950 . S
C419 C436 1.574 . S
C419 C438 1.368 . S
C419 H443 0.949 . S
H420 C424 0.949 . S
C421 C422 1.349 . S
C421 C423 1.327 . S
C421 H444 0.950 . S
C422 C421 1.349 . S
C422 C434 1.349 . S
C423 C421 1.327 . S
C423 C439 1.429 . S
C423 H445 0.950 . S
C424 H420 0.949 . S
C424 C432 1.574 . S
C424 C440 1.368 . S
H425 C433 0.950 . S
H426 C431 0.950 . S
H427 C432 0.949 . S
H428 C434 0.950 . S
H429 C435 0.950 . S
H430 C436 0.949 1_545 S
C431 H426 0.950 . S
C431 C433 1.327 . S
C431 C437 1.429 . S
C432 C424 1.574 . S
C432 H427 0.949 . S
C432 C438 1.368 . S
C433 C417 1.349 . S
C433 H425 0.950 . S
C433 C431 1.327 . S
C434 C422 1.349 . S
C434 H428 0.950 . S
C434 C435 1.327 . S
C435 H429 0.950 . S
C435 C434 1.327 . S
C435 C439 1.429 . S
C436 C419 1.574 . S
C436 H430 0.949 1_565 S
C436 C440 1.368 . S
C437 C418 1.429 . S
C437 C431 1.429 . S
C437 C438 1.523 . S
C438 C419 1.368 . S
C438 C432 1.368 . S
C438 C437 1.523 . S
C439 C423 1.429 . S
C439 C435 1.429 . S
C439 C440 1.523 1_545 S
C440 C424 1.368 . S
C440 C436 1.368 . S
C440 C439 1.523 1_565 S
H441 C416 0.950 . S
H442 C418 0.950 . S
H443 C419 0.949 . S
H444 C421 0.950 . S
H445 C423 0.950 . S
C446 C447 1.349 . S
C446 C448 1.327 . S
C446 H471 0.950 . S
C447 C446 1.349 . S
C447 C463 1.349 . S
C448 C446 1.327 . S
C448 C467 1.429 . S
C448 H472 0.950 . S
C449 C466 1.574 . S
C449 C468 1.368 . S
C449 H473 0.949 . S
H450 C454 0.949 . S
C451 C452 1.349 . S
C451 C453 1.327 . S
C451 H474 0.950 . S
C452 C451 1.349 . S
C452 C464 1.349 . S
C453 C451 1.327 . S
C453 C469 1.429 . S
C453 H475 0.950 . S
C454 H450 0.949 . S
C454 C462 1.574 . S
C454 C470 1.368 . S
H455 C463 0.950 . S
H456 C461 0.950 . S
H457 C462 0.949 . S
H458 C464 0.950 . S
H459 C465 0.950 . S
H460 C466 0.949 . S
C461 H456 0.950 . S
C461 C463 1.327 . S
C461 C467 1.429 . S
C462 C454 1.574 . S
C462 H457 0.949 . S
C462 C468 1.368 . S
C463 C447 1.349 . S
C463 H455 0.950 . S
C463 C461 1.327 . S
C464 C452 1.349 . S
C464 H458 0.950 . S
C464 C465 1.327 . S
C465 H459 0.950 . S
C465 C464 1.327 . S
C465 C469 1.429 . S
C466 C449 1.574 . S
C466 H460 0.949 . S
C466 C470 1.368 . S
C467 C448 1.429 . S
C467 C461 1.429 . S
C467 C468 1.523 . S
C468 C449 1.368 . S
C468 C462 1.368 . S
C468 C467 1.523 . S
C469 C453 1.429 . S
C469 C465 1.429 . S
C469 C470 1.523 . S
C470 C454 1.368 . S
C470 C466 1.368 . S
C470 C469 1.523 . S
H471 C446 0.950 . S
H472 C448 0.950 . S
H473 C449 0.949 . S
H474 C451 0.950 . S
H475 C453 0.950 . S
C476 C477 1.349 . S
C476 C478 1.327 . S
C476 H501 0.950 . S
C477 C476 1.349 . S
C477 C493 1.349 . S
C478 C476 1.327 . S
C478 C497 1.429 . S
C478 H502 0.950 . S
C479 C496 1.574 . S
C479 C498 1.368 . S
C479 H503 0.949 . S
H480 C484 0.949 . S
C481 C482 1.349 . S
C481 C483 1.327 . S
C481 H504 0.950 . S
C482 C481 1.349 . S
C482 C494 1.349 . S
C483 C481 1.327 . S
C483 C499 1.429 . S
C483 H505 0.950 . S
C484 H480 0.949 . S
C484 C492 1.574 . S
C484 C500 1.368 . S
H485 C493 0.950 . S
H486 C491 0.950 . S
H487 C492 0.949 . S
H488 C494 0.950 . S
H489 C495 0.950 . S
H490 C496 0.949 . S
C491 H486 0.950 . S
C491 C493 1.327 . S
C491 C497 1.429 . S
C492 C484 1.574 . S
C492 H487 0.949 . S
C492 C498 1.368 . S
C493 C477 1.349 . S
C493 H485 0.950 . S
C493 C491 1.327 . S
C494 C482 1.349 . S
C494 H488 0.950 . S
C494 C495 1.327 . S
C495 H489 0.950 . S
C495 C494 1.327 . S
C495 C499 1.429 . S
C496 C479 1.574 . S
C496 H490 0.949 . S
C496 C500 1.368 . S
C497 C478 1.429 . S
C497 C491 1.429 . S
C497 C498 1.523 . S
C498 C479 1.368 . S
C498 C492 1.368 . S
C498 C497 1.523 . S
C499 C483 1.429 . S
C499 C495 1.429 . S
C499 C500 1.523 . S
C500 C484 1.368 . S
C500 C496 1.368 . S
C500 C499 1.523 . S
H501 C476 0.950 . S
H502 C478 0.950 . S
H503 C479 0.949 . S
H504 C481 0.950 . S
H505 C483 0.950 . S
C506 C507 1.349 . S
C506 C508 1.327 . S
C506 H531 0.950 . S
C507 C506 1.349 . S
C507 C523 1.349 . S
C508 C506 1.327 . S
C508 C527 1.429 . S
C508 H532 0.950 . S
C509 C526 1.574 . S
C509 C528 1.368 . S
C509 H533 0.949 . S
H510 C514 0.949 . S
C511 C512 1.349 . S
C511 C513 1.327 . S
C511 H534 0.950 . S
C512 C511 1.349 . S
C512 C524 1.349 . S
C513 C511 1.327 . S
C513 C529 1.429 . S
C513 H535 0.950 . S
C514 H510 0.949 . S
C514 C522 1.574 . S
C514 C530 1.368 . S
H515 C523 0.950 . S
H516 C521 0.950 . S
H517 C522 0.949 1_545 S
H518 C524 0.950 . S
H519 C525 0.950 . S
H520 C526 0.949 . S
C521 H516 0.950 . S
C521 C523 1.327 . S
C521 C527 1.429 . S
C522 C514 1.574 . S
C522 H517 0.949 1_565 S
C522 C528 1.368 . S
C523 C507 1.349 . S
C523 H515 0.950 . S
C523 C521 1.327 . S
C524 C512 1.349 . S
C524 H518 0.950 . S
C524 C525 1.327 . S
C525 H519 0.950 . S
C525 C524 1.327 . S
C525 C529 1.429 . S
C526 C509 1.574 . S
C526 H520 0.949 . S
C526 C530 1.368 . S
C527 C508 1.429 . S
C527 C521 1.429 . S
C527 C528 1.523 1_545 S
C528 C509 1.368 . S
C528 C522 1.368 . S
C528 C527 1.523 1_565 S
C529 C513 1.429 . S
C529 C525 1.429 . S
C529 C530 1.523 . S
C530 C514 1.368 . S
C530 C526 1.368 . S
C530 C529 1.523 . S
H531 C506 0.950 . S
H532 C508 0.950 . S
H533 C509 0.949 . S
H534 C511 0.950 . S
H535 C513 0.950 . S
C536 C537 1.349 . S
C536 C538 1.327 . S
C536 H561 0.950 . S
C537 C536 1.349 . S
C537 C553 1.349 . S
C538 C536 1.327 . S
C538 C557 1.429 . S
C538 H562 0.950 . S
C539 C556 1.574 . S
C539 C558 1.368 . S
C539 H563 0.949 . S
H540 C544 0.949 . S
C541 C542 1.349 . S
C541 C543 1.327 . S
C541 H564 0.950 . S
C542 C541 1.349 . S
C542 C554 1.349 . S
C543 C541 1.327 . S
C543 C559 1.429 . S
C543 H565 0.950 . S
C544 H540 0.949 . S
C544 C552 1.574 . S
C544 C560 1.368 . S
H545 C553 0.950 . S
H546 C551 0.950 . S
H547 C552 0.949 . S
H548 C554 0.950 . S
H549 C555 0.950 . S
H550 C556 0.949 1_565 S
C551 H546 0.950 . S
C551 C553 1.327 . S
C551 C557 1.429 . S
C552 C544 1.574 . S
C552 H547 0.949 . S
C552 C558 1.368 . S
C553 C537 1.349 . S
C553 H545 0.950 . S
C553 C551 1.327 . S
C554 C542 1.349 . S
C554 H548 0.950 . S
C554 C555 1.327 . S
C555 H549 0.950 . S
C555 C554 1.327 . S
C555 C559 1.429 . S
C556 C539 1.574 . S
C556 H550 0.949 1_545 S
C556 C560 1.368 . S
C557 C538 1.429 . S
C557 C551 1.429 . S
C557 C558 1.523 . S
C558 C539 1.368 . S
C558 C552 1.368 . S
C558 C557 1.523 . S
C559 C543 1.429 . S
C559 C555 1.429 . S
C559 C560 1.523 1_565 S
C560 C544 1.368 . S
C560 C556 1.368 . S
C560 C559 1.523 1_545 S
H561 C536 0.950 . S
H562 C538 0.950 . S
H563 C539 0.949 . S
H564 C541 0.950 . S
H565 C543 0.950 . S
C566 C567 1.349 . S
C566 C568 1.327 . S
C566 H591 0.950 . S
C567 C566 1.349 . S
C567 C583 1.349 . S
C568 C566 1.327 . S
C568 C587 1.429 . S
C568 H592 0.950 . S
C569 C586 1.574 . S
C569 C588 1.368 . S
C569 H593 0.949 . S
H570 C574 0.949 . S
C571 C572 1.349 . S
C571 C573 1.327 . S
C571 H594 0.950 . S
C572 C571 1.349 . S
C572 C584 1.349 . S
C573 C571 1.327 . S
C573 C589 1.429 . S
C573 H595 0.950 . S
C574 H570 0.949 . S
C574 C582 1.574 . S
C574 C590 1.368 . S
H575 C583 0.950 . S
H576 C581 0.950 . S
H577 C582 0.949 . S
H578 C584 0.950 . S
H579 C585 0.950 . S
H580 C586 0.949 . S
C581 H576 0.950 . S
C581 C583 1.327 . S
C581 C587 1.429 . S
C582 C574 1.574 . S
C582 H577 0.949 . S
C582 C588 1.368 . S
C583 C567 1.349 . S
C583 H575 0.950 . S
C583 C581 1.327 . S
C584 C572 1.349 . S
C584 H578 0.950 . S
C584 C585 1.327 . S
C585 H579 0.950 . S
C585 C584 1.327 . S
C585 C589 1.429 . S
C586 C569 1.574 . S
C586 H580 0.949 . S
C586 C590 1.368 . S
C587 C568 1.429 . S
C587 C581 1.429 . S
C587 C588 1.523 . S
C588 C569 1.368 . S
C588 C582 1.368 . S
C588 C587 1.523 . S
C589 C573 1.429 . S
C589 C585 1.429 . S
C589 C590 1.523 . S
C590 C574 1.368 . S
C590 C586 1.368 . S
C590 C589 1.523 . S
H591 C566 0.950 . S
H592 C568 0.950 . S
H593 C569 0.949 . S
H594 C571 0.950 . S
H595 C573 0.950 . S
C596 C597 1.349 . S
C596 C598 1.327 . S
C596 H621 0.950 . S
C597 C596 1.349 . S
C597 C613 1.349 . S
C598 C596 1.327 . S
C598 C617 1.429 . S
C598 H622 0.950 . S
C599 C616 1.574 . S
C599 C618 1.368 . S
C599 H623 0.949 . S
H600 C604 0.949 . S
C601 C602 1.349 . S
C601 C603 1.327 . S
C601 H624 0.950 . S
C602 C601 1.349 . S
C602 C614 1.349 . S
C603 C601 1.327 . S
C603 C619 1.429 . S
C603 H625 0.950 . S
C604 H600 0.949 . S
C604 C612 1.574 . S
C604 C620 1.368 . S
H605 C613 0.950 . S
H606 C611 0.950 . S
H607 C612 0.949 . S
H608 C614 0.950 . S
H609 C615 0.950 . S
H610 C616 0.949 . S
C611 H606 0.950 . S
C611 C613 1.327 . S
C611 C617 1.429 . S
C612 C604 1.574 . S
C612 H607 0.949 . S
C612 C618 1.368 . S
C613 C597 1.349 . S
C613 H605 0.950 . S
C613 C611 1.327 . S
C614 C602 1.349 . S
C614 H608 0.950 . S
C614 C615 1.327 . S
C615 H609 0.950 . S
C615 C614 1.327 . S
C615 C619 1.429 . S
C616 C599 1.574 . S
C616 H610 0.949 . S
C616 C620 1.368 . S
C617 C598 1.429 . S
C617 C611 1.429 . S
C617 C618 1.523 . S
C618 C599 1.368 . S
C618 C612 1.368 . S
C618 C617 1.523 . S
C619 C603 1.429 . S
C619 C615 1.429 . S
C619 C620 1.523 . S
C620 C604 1.368 . S
C620 C616 1.368 . S
C620 C619 1.523 . S
H621 C596 0.950 . S
H622 C598 0.950 . S
H623 C599 0.949 . S
H624 C601 0.950 . S
H625 C603 0.950 . S
C626 C627 1.349 . S
C626 C628 1.327 . S
C626 H651 0.950 . S
C627 C626 1.349 . S
C627 C643 1.349 . S
C628 C626 1.327 . S
C628 C647 1.429 . S
C628 H652 0.950 . S
C629 C646 1.574 . S
C629 C648 1.368 . S
C629 H653 0.949 1_545 S
H630 C634 0.949 . S
C631 C632 1.349 . S
C631 C633 1.327 . S
C631 H654 0.950 . S
C632 C631 1.349 . S
C632 C644 1.349 . S
C633 C631 1.327 . S
C633 C649 1.429 . S
C633 H655 0.950 . S
C634 H630 0.949 . S
C634 C642 1.574 . S
C634 C650 1.368 . S
H635 C643 0.950 . S
H636 C641 0.950 . S
H637 C642 0.949 . S
H638 C644 0.950 . S
H639 C645 0.950 . S
H640 C646 0.949 . S
C641 H636 0.950 . S
C641 C643 1.327 . S
C641 C647 1.429 . S
C642 C634 1.574 . S
C642 H637 0.949 . S
C642 C648 1.368 . S
C643 C627 1.349 . S
C643 H635 0.950 . S
C643 C641 1.327 . S
C644 C632 1.349 . S
C644 H638 0.950 . S
C644 C645 1.327 . S
C645 H639 0.950 . S
C645 C644 1.327 . S
C645 C649 1.429 . S
C646 C629 1.574 . S
C646 H640 0.949 . S
C646 C650 1.368 . S
C647 C628 1.429 . S
C647 C641 1.429 . S
C647 C648 1.523 1_565 S
C648 C629 1.368 . S
C648 C642 1.368 . S
C648 C647 1.523 1_545 S
C649 C633 1.429 . S
C649 C645 1.429 . S
C649 C650 1.523 . S
C650 C634 1.368 . S
C650 C646 1.368 . S
C650 C649 1.523 . S
H651 C626 0.950 . S
H652 C628 0.950 . S
H653 C629 0.949 1_565 S
H654 C631 0.950 . S
H655 C633 0.950 . S
C656 C657 1.349 . S
C656 C658 1.327 . S
C656 H681 0.950 . S
C657 C656 1.349 . S
C657 C673 1.349 . S
C658 C656 1.327 . S
C658 C677 1.429 . S
C658 H682 0.950 . S
C659 C676 1.574 . S
C659 C678 1.368 . S
C659 H683 0.949 . S
H660 C664 0.949 . S
C661 C662 1.349 . S
C661 C663 1.327 . S
C661 H684 0.950 . S
C662 C661 1.349 . S
C662 C674 1.349 . S
C663 C661 1.327 . S
C663 C679 1.429 . S
C663 H685 0.950 . S
C664 H660 0.949 . S
C664 C672 1.574 . S
C664 C680 1.368 . S
H665 C673 0.950 . S
H666 C671 0.950 . S
H667 C672 0.949 . S
H668 C674 0.950 . S
H669 C675 0.950 . S
H670 C676 0.949 . S
C671 H666 0.950 . S
C671 C673 1.327 . S
C671 C677 1.429 . S
C672 C664 1.574 . S
C672 H667 0.949 . S
C672 C678 1.368 . S
C673 C657 1.349 . S
C673 H665 0.950 . S
C673 C671 1.327 . S
C674 C662 1.349 . S
C674 H668 0.950 . S
C674 C675 1.327 . S
C675 H669 0.950 . S
C675 C674 1.327 . S
C675 C679 1.429 . S
C676 C659 1.574 . S
C676 H670 0.949 . S
C676 C680 1.368 . S
C677 C658 1.429 . S
C677 C671 1.429 . S
C677 C678 1.523 . S
C678 C659 1.368 . S
C678 C672 1.368 . S
C678 C677 1.523 . S
C679 C663 1.429 . S
C679 C675 1.429 . S
C679 C680 1.523 . S
C680 C664 1.368 . S
C680 C676 1.368 . S
C680 C679 1.523 . S
H681 C656 0.950 . S
H682 C658 0.950 . S
H683 C659 0.949 . S
H684 C661 0.950 . S
H685 C663 0.950 . S
C686 C687 1.349 . S
C686 C688 1.327 . S
C686 H711 0.950 . S
C687 C686 1.349 . S
C687 C703 1.349 . S
C688 C686 1.327 . S
C688 C707 1.429 . S
C688 H712 0.950 . S
C689 C706 1.574 . S
C689 C708 1.368 . S
C689 H713 0.949 . S
H690 C694 0.949 . S
C691 C692 1.349 . S
C691 C693 1.327 . S
C691 H714 0.950 . S
C692 C691 1.349 . S
C692 C704 1.349 . S
C693 C691 1.327 . S
C693 C709 1.429 . S
C693 H715 0.950 . S
C694 H690 0.949 . S
C694 C702 1.574 . S
C694 C710 1.368 . S
H695 C703 0.950 . S
H696 C701 0.950 . S
H697 C702 0.949 . S
H698 C704 0.950 . S
H699 C705 0.950 . S
H700 C706 0.949 . S
C701 H696 0.950 . S
C701 C703 1.327 . S
C701 C707 1.429 . S
C702 C694 1.574 . S
C702 H697 0.949 . S
C702 C708 1.368 . S
C703 C687 1.349 . S
C703 H695 0.950 . S
C703 C701 1.327 . S
C704 C692 1.349 . S
C704 H698 0.950 . S
C704 C705 1.327 . S
C705 H699 0.950 . S
C705 C704 1.327 . S
C705 C709 1.429 . S
C706 C689 1.574 . S
C706 H700 0.949 . S
C706 C710 1.368 . S
C707 C688 1.429 . S
C707 C701 1.429 . S
C707 C708 1.523 . S
C708 C689 1.368 . S
C708 C702 1.368 . S
C708 C707 1.523 . S
C709 C693 1.429 . S
C709 C705 1.429 . S
C709 C710 1.523 . S
C710 C694 1.368 . S
C710 C706 1.368 . S
C710 C709 1.523 . S
H711 C686 0.950 . S
H712 C688 0.950 . S
H713 C689 0.949 . S
H714 C691 0.950 . S
H715 C693 0.950 . S
C716 C717 1.349 . S
C716 C718 1.327 . S
C716 H741 0.950 . S
C717 C716 1.349 . S
C717 C733 1.349 . S
C718 C716 1.327 . S
C718 C737 1.429 . S
C718 H742 0.950 . S
C719 C736 1.574 . S
C719 C738 1.368 . S
C719 H743 0.949 . S
H720 C724 0.949 . S
C721 C722 1.349 . S
C721 C723 1.327 . S
C721 H744 0.950 . S
C722 C721 1.349 . S
C722 C734 1.349 . S
C723 C721 1.327 . S
C723 C739 1.429 . S
C723 H745 0.950 . S
C724 H720 0.949 . S
C724 C732 1.574 . S
C724 C740 1.368 . S
H725 C733 0.950 . S
H726 C731 0.950 . S
H727 C732 0.949 . S
H728 C734 0.950 . S
H729 C735 0.950 . S
H730 C736 0.949 . S
C731 H726 0.950 . S
C731 C733 1.327 . S
C731 C737 1.429 . S
C732 C724 1.574 . S
C732 H727 0.949 . S
C732 C738 1.368 . S
C733 C717 1.349 . S
C733 H725 0.950 . S
C733 C731 1.327 . S
C734 C722 1.349 . S
C734 H728 0.950 . S
C734 C735 1.327 . S
C735 H729 0.950 . S
C735 C734 1.327 . S
C735 C739 1.429 . S
C736 C719 1.574 . S
C736 H730 0.949 . S
C736 C740 1.368 . S
C737 C718 1.429 . S
C737 C731 1.429 . S
C737 C738 1.523 . S
C738 C719 1.368 . S
C738 C732 1.368 . S
C738 C737 1.523 . S
C739 C723 1.429 . S
C739 C735 1.429 . S
C739 C740 1.523 . S
C740 C724 1.368 . S
C740 C736 1.368 . S
C740 C739 1.523 . S
H741 C716 0.950 . S
H742 C718 0.950 . S
H743 C719 0.949 . S
H744 C721 0.950 . S
H745 C723 0.950 . S
C746 C747 1.349 . S
C746 C748 1.327 . S
C746 H771 0.950 . S
C747 C746 1.349 . S
C747 C763 1.349 . S
C748 C746 1.327 . S
C748 C767 1.429 . S
C748 H772 0.950 . S
C749 C766 1.574 . S
C749 C768 1.368 . S
C749 H773 0.949 . S
H750 C754 0.949 . S
C751 C752 1.349 . S
C751 C753 1.327 . S
C751 H774 0.950 . S
C752 C751 1.349 . S
C752 C764 1.349 . S
C753 C751 1.327 . S
C753 C769 1.429 . S
C753 H775 0.950 . S
C754 H750 0.949 . S
C754 C762 1.574 . S
C754 C770 1.368 . S
H755 C763 0.950 . S
H756 C761 0.950 . S
H757 C762 0.949 . S
H758 C764 0.950 . S
H759 C765 0.950 . S
H760 C766 0.949 . S
C761 H756 0.950 . S
C761 C763 1.327 . S
C761 C767 1.429 . S
C762 C754 1.574 . S
C762 H757 0.949 . S
C762 C768 1.368 . S
C763 C747 1.349 . S
C763 H755 0.950 . S
C763 C761 1.327 . S
C764 C752 1.349 . S
C764 H758 0.950 . S
C764 C765 1.327 . S
C765 H759 0.950 . S
C765 C764 1.327 . S
C765 C769 1.429 . S
C766 C749 1.574 . S
C766 H760 0.949 . S
C766 C770 1.368 . S
C767 C748 1.429 . S
C767 C761 1.429 . S
C767 C768 1.523 . S
C768 C749 1.368 . S
C768 C762 1.368 . S
C768 C767 1.523 . S
C769 C753 1.429 . S
C769 C765 1.429 . S
C769 C770 1.523 . S
C770 C754 1.368 . S
C770 C766 1.368 . S
C770 C769 1.523 . S
H771 C746 0.950 . S
H772 C748 0.950 . S
H773 C749 0.949 . S
H774 C751 0.950 . S
H775 C753 0.950 . S
C776 C777 1.349 . S
C776 C778 1.327 . S
C776 H801 0.950 1_554 S
C777 C776 1.349 . S
C777 C793 1.349 . S
C778 C776 1.327 . S
C778 C797 1.429 . S
C778 H802 0.950 . S
C779 C796 1.574 . S
C779 C798 1.368 . S
C779 H803 0.949 . S
H780 C784 0.949 . S
C781 C782 1.349 . S
C781 C783 1.327 . S
C781 H804 0.950 . S
C782 C781 1.349 . S
C782 C794 1.349 . S
C783 C781 1.327 . S
C783 C799 1.429 . S
C783 H805 0.950 . S
C784 H780 0.949 . S
C784 C792 1.574 . S
C784 C800 1.368 . S
H785 C793 0.950 . S
H786 C791 0.950 . S
H787 C792 0.949 . S
H788 C794 0.950 . S
H789 C795 0.950 . S
H790 C796 0.949 . S
C791 H786 0.950 . S
C791 C793 1.327 . S
C791 C797 1.429 . S
C792 C784 1.574 . S
C792 H787 0.949 . S
C792 C798 1.368 . S
C793 C777 1.349 . S
C793 H785 0.950 . S
C793 C791 1.327 . S
C794 C782 1.349 . S
C794 H788 0.950 . S
C794 C795 1.327 . S
C795 H789 0.950 . S
C795 C794 1.327 . S
C795 C799 1.429 . S
C796 C779 1.574 . S
C796 H790 0.949 . S
C796 C800 1.368 . S
C797 C778 1.429 . S
C797 C791 1.429 . S
C797 C798 1.523 . S
C798 C779 1.368 . S
C798 C792 1.368 . S
C798 C797 1.523 . S
C799 C783 1.429 . S
C799 C795 1.429 . S
C799 C800 1.523 . S
C800 C784 1.368 . S
C800 C796 1.368 . S
C800 C799 1.523 . S
H801 C776 0.950 1_556 S
H802 C778 0.950 . S
H803 C779 0.949 . S
H804 C781 0.950 . S
H805 C783 0.950 . S
C806 C807 1.349 . S
C806 C808 1.327 . S
C806 H831 0.950 . S
C807 C806 1.349 . S
C807 C823 1.349 . S
C808 C806 1.327 . S
C808 C827 1.429 . S
C808 H832 0.950 . S
C809 C826 1.574 . S
C809 C828 1.368 . S
C809 H833 0.949 . S
H810 C814 0.949 . S
C811 C812 1.349 . S
C811 C813 1.327 . S
C811 H834 0.950 . S
C812 C811 1.349 . S
C812 C824 1.349 . S
C813 C811 1.327 . S
C813 C829 1.429 . S
C813 H835 0.950 . S
C814 H810 0.949 . S
C814 C822 1.574 . S
C814 C830 1.368 . S
H815 C823 0.950 . S
H816 C821 0.950 . S
H817 C822 0.949 . S
H818 C824 0.950 . S
H819 C825 0.950 . S
H820 C826 0.949 . S
C821 H816 0.950 . S
C821 C823 1.327 . S
C821 C827 1.429 . S
C822 C814 1.574 . S
C822 H817 0.949 . S
C822 C828 1.368 . S
C823 C807 1.349 . S
C823 H815 0.950 . S
C823 C821 1.327 . S
C824 C812 1.349 . S
C824 H818 0.950 . S
C824 C825 1.327 . S
C825 H819 0.950 . S
C825 C824 1.327 . S
C825 C829 1.429 . S
C826 C809 1.574 . S
C826 H820 0.949 . S
C826 C830 1.368 . S
C827 C808 1.429 . S
C827 C821 1.429 . S
C827 C828 1.523 . S
C828 C809 1.368 . S
C828 C822 1.368 . S
C828 C827 1.523 . S
C829 C813 1.429 . S
C829 C825 1.429 . S
C829 C830 1.523 . S
C830 C814 1.368 . S
C830 C826 1.368 . S
C830 C829 1.523 . S
H831 C806 0.950 . S
H832 C808 0.950 . S
H833 C809 0.949 . S
H834 C811 0.950 . S
H835 C813 0.950 . S
C836 C837 1.349 . S
C836 C838 1.327 . S
C836 H861 0.950 . S
C837 C836 1.349 . S
C837 C853 1.349 . S
C838 C836 1.327 . S
C838 C857 1.429 . S
C838 H862 0.950 . S
C839 C856 1.574 . S
C839 C858 1.368 . S
C839 H863 0.949 . S
H840 C844 0.949 . S
C841 C842 1.349 . S
C841 C843 1.327 . S
C841 H864 0.950 . S
C842 C841 1.349 . S
C842 C854 1.349 . S
C843 C841 1.327 . S
C843 C859 1.429 . S
C843 H865 0.950 . S
C844 H840 0.949 . S
C844 C852 1.574 . S
C844 C860 1.368 . S
H845 C853 0.950 . S
H846 C851 0.950 . S
H847 C852 0.949 . S
H848 C854 0.950 . S
H849 C855 0.950 . S
H850 C856 0.949 . S
C851 H846 0.950 . S
C851 C853 1.327 . S
C851 C857 1.429 . S
C852 C844 1.574 . S
C852 H847 0.949 . S
C852 C858 1.368 . S
C853 C837 1.349 . S
C853 H845 0.950 . S
C853 C851 1.327 . S
C854 C842 1.349 . S
C854 H848 0.950 . S
C854 C855 1.327 . S
C855 H849 0.950 . S
C855 C854 1.327 . S
C855 C859 1.429 . S
C856 C839 1.574 . S
C856 H850 0.949 . S
C856 C860 1.368 . S
C857 C838 1.429 . S
C857 C851 1.429 . S
C857 C858 1.523 . S
C858 C839 1.368 . S
C858 C852 1.368 . S
C858 C857 1.523 . S
C859 C843 1.429 . S
C859 C855 1.429 . S
C859 C860 1.523 . S
C860 C844 1.368 . S
C860 C856 1.368 . S
C860 C859 1.523 . S
H861 C836 0.950 . S
H862 C838 0.950 . S
H863 C839 0.949 . S
H864 C841 0.950 . S
H865 C843 0.950 . S
C866 C867 1.349 . S
C866 C868 1.327 . S
C866 H891 0.950 . S
C867 C866 1.349 . S
C867 C883 1.349 . S
C868 C866 1.327 . S
C868 C887 1.429 . S
C868 H892 0.950 . S
C869 C886 1.574 . S
C869 C888 1.368 . S
C869 H893 0.949 . S
H870 C874 0.949 . S
C871 C872 1.349 . S
C871 C873 1.327 . S
C871 H894 0.950 . S
C872 C871 1.349 . S
C872 C884 1.349 . S
C873 C871 1.327 . S
C873 C889 1.429 . S
C873 H895 0.950 . S
C874 H870 0.949 . S
C874 C882 1.574 . S
C874 C890 1.368 . S
H875 C883 0.950 . S
H876 C881 0.950 . S
H877 C882 0.949 . S
H878 C884 0.950 . S
H879 C885 0.950 . S
H880 C886 0.949 . S
C881 H876 0.950 . S
C881 C883 1.327 . S
C881 C887 1.429 . S
C882 C874 1.574 . S
C882 H877 0.949 . S
C882 C888 1.368 . S
C883 C867 1.349 . S
C883 H875 0.950 . S
C883 C881 1.327 . S
C884 C872 1.349 . S
C884 H878 0.950 . S
C884 C885 1.327 . S
C885 H879 0.950 . S
C885 C884 1.327 . S
C885 C889 1.429 . S
C886 C869 1.574 . S
C886 H880 0.949 . S
C886 C890 1.368 . S
C887 C868 1.429 . S
C887 C881 1.429 . S
C887 C888 1.523 . S
C888 C869 1.368 . S
C888 C882 1.368 . S
C888 C887 1.523 . S
C889 C873 1.429 . S
C889 C885 1.429 . S
C889 C890 1.523 . S
C890 C874 1.368 . S
C890 C886 1.368 . S
C890 C889 1.523 . S
H891 C866 0.950 . S
H892 C868 0.950 . S
H893 C869 0.949 . S
H894 C871 0.950 . S
H895 C873 0.950 . S
C177 C21 0.723 . S
C182 C87 0.723 . S
C207 C43 0.723 . S
C212 C65 0.723 . S
C237 C103 0.703 . S
C242 C175 0.703 . S
C267 C125 0.703 . S
C272 C139 0.703 . S
C297 C8 2.050 . S
C302 C98 2.055 . S
C327 C120 2.055 . S
C332 C30 2.050 . S
C357 C150 2.055 . S
C362 C52 2.050 . S
C387 C74 2.050 . S
C392 C162 2.055 . S
C417 C147 0.739 . S
C422 C18 0.739 . S
C447 C161 0.739 . S
C452 C40 0.739 . S
C477 C62 0.739 . S
C482 C109 0.739 . S
C507 C84 0.739 . S
C512 C131 0.739 . S
C537 C59 0.739 . S
C542 C106 0.738 . S
C567 C128 0.738 . S
C572 C81 0.739 . S
C597 C15 0.739 . S
C602 C140 0.738 . S
C627 C164 0.738 . S
C632 C37 0.739 . S
C657 C10 1.557 1_556 S
C662 C29 1.560 . S
C687 C7 1.560 . S
C692 C32 1.557 . S
C717 C73 1.560 . S
C722 C54 1.557 1_554 S
C747 C76 1.557 . S
C752 C51 1.560 . S
C777 C96 1.567 1_554 S
C782 C117 1.571 . S
C807 C95 1.571 . S
C812 C118 1.567 . S
C837 C169 1.571 . S
C842 C142 1.567 1_556 S
C867 C172 1.567 . S
C872 C153 1.571 . S
