# Generated by pormake.
# Topology utp, (3)-cn, num edge types: 1
# Building blocks:
#     Node 0, Type 0, BuildingBlock: WUSLED_clean_sbu_0, # of connection points: 3
#     Node 1, Type 0, BuildingBlock: WUSLED_clean_sbu_0, # of connection points: 3
#     Node 2, Type 0, BuildingBlock: WUSLED_clean_sbu_0, # of connection points: 3
#     Node 3, Type 0, BuildingBlock: WUSLED_clean_sbu_0, # of connection points: 3
#     Node 4, Type 0, BuildingBlock: WUSLED_clean_sbu_0, # of connection points: 3
#     Node 5, Type 0, BuildingBlock: WUSLED_clean_sbu_0, # of connection points: 3
#     Node 6, Type 0, BuildingBlock: WUSLED_clean_sbu_0, # of connection points: 3
#     Node 7, Type 0, BuildingBlock: WUSLED_clean_sbu_0, # of connection points: 3
#     Edge 8, Type (0, 0), BuildingBlock: FUNLAD_clean_linker_0, # of connection points: 2
#     Edge 9, Type (0, 0), BuildingBlock: FUNLAD_clean_linker_0, # of connection points: 2
#     Edge 10, Type (0, 0), BuildingBlock: FUNLAD_clean_linker_0, # of connection points: 2
#     Edge 11, Type (0, 0), BuildingBlock: FUNLAD_clean_linker_0, # of connection points: 2
#     Edge 12, Type (0, 0), BuildingBlock: FUNLAD_clean_linker_0, # of connection points: 2
#     Edge 13, Type (0, 0), BuildingBlock: FUNLAD_clean_linker_0, # of connection points: 2
#     Edge 14, Type (0, 0), BuildingBlock: FUNLAD_clean_linker_0, # of connection points: 2
#     Edge 15, Type (0, 0), BuildingBlock: FUNLAD_clean_linker_0, # of connection points: 2
#     Edge 16, Type (0, 0), BuildingBlock: FUNLAD_clean_linker_0, # of connection points: 2
#     Edge 17, Type (0, 0), BuildingBlock: FUNLAD_clean_linker_0, # of connection points: 2
#     Edge 18, Type (0, 0), BuildingBlock: FUNLAD_clean_linker_0, # of connection points: 2
#     Edge 19, Type (0, 0), BuildingBlock: FUNLAD_clean_linker_0, # of connection points: 2
# Relax obj value: 0.000
# Max RMSD: 0.003
# Mean RMSD: 0.003
data_MOF--net-utp--node1-WUSLED_clean_sbu_0--edge1-FUNLAD_clean_linker_0
_symmetry_space_group_name_H-M    P1
_symmetry_Int_Tables_number       1
_symmetry_cell_setting            triclinic
loop_
_symmetry_equiv_pos_as_xyz
'x, y, z'
_cell_length_a     86.576199
_cell_length_b     76.125952
_cell_length_c     20.902866
_cell_angle_alpha  90.079914
_cell_angle_beta   90.088314
_cell_angle_gamma 89.892163
loop_
_atom_site_label
_atom_site_type_symbol
_atom_site_fract_x
_atom_site_fract_y
_atom_site_fract_z
_atom_type_partial_charge
C0 C 0.0962 0.08885 0.08583 0.0
C1 C 0.09732 0.07074 0.09774 0.0
C2 C 0.07186 0.06602 0.05002 0.0
C3 C 0.08523 0.05943 0.08019 0.0
C4 C 0.07092 0.08417 0.03777 0.0
C5 C 0.08295 0.09543 0.05554 0.0
U6 U 0.1385 0.101 0.12494 0.0
O7 O 0.1513 0.1251 0.10153 0.0
O8 O 0.14757 0.11793 0.20198 0.0
C9 C 0.15269 0.12984 0.1618 0.0
C10 C 0.10846 0.10124 0.10554 0.0
C11 C 0.14918 0.14842 0.17791 0.0
C12 C 0.13881 0.17733 0.15126 0.0
C13 C 0.14094 0.15951 0.13622 0.0
C14 C 0.15286 0.17318 0.25026 0.0
C15 C 0.14482 0.18443 0.20839 0.0
C16 C 0.15503 0.15544 0.23511 0.0
C17 C 0.17029 0.06533 0.11249 0.0
C18 C 0.19808 0.07018 0.11109 0.0
C19 C 0.18806 0.04063 0.12071 0.0
C20 C 0.17298 0.04725 0.11865 0.0
C21 C 0.20084 0.05198 0.11656 0.0
C22 C 0.18295 0.0768 0.10921 0.0
C23 C 0.15421 0.07173 0.10791 0.0
O24 O 0.11482 0.09845 0.16179 0.0
O25 O 0.11854 0.10551 0.06129 0.0
O26 O 0.15126 0.08297 0.06177 0.0
O27 O 0.14748 0.07587 0.16218 0.0
H28 H 0.10748 0.06534 0.1208 0.0
H29 H 0.08644 0.04552 0.08967 0.0
H30 H 0.06075 0.08976 0.01544 0.0
H31 H 0.08183 0.10937 0.04609 0.0
H32 H 0.13243 0.18555 0.11821 0.0
H33 H 0.13627 0.15449 0.09172 0.0
H34 H 0.15785 0.17818 0.29417 0.0
H35 H 0.16155 0.14722 0.26778 0.0
H36 H 0.20762 0.07933 0.10859 0.0
H37 H 0.1897 0.02655 0.12409 0.0
H38 H 0.16337 0.03817 0.12107 0.0
H39 H 0.18113 0.09082 0.10473 0.0
C40 C 0.43495 0.94299 0.09631 0.0
C41 C 0.43124 0.96049 0.08172 0.0
C42 C 0.45851 0.96713 0.06369 0.0
C43 C 0.4429 0.97244 0.06552 0.0
C44 C 0.46209 0.94953 0.07832 0.0
C45 C 0.45043 0.93762 0.09445 0.0
U46 U 0.39274 0.93004 0.12882 0.0
O47 O 0.38032 0.90579 0.10361 0.0
O48 O 0.3832 0.91309 0.20454 0.0
C49 C 0.37847 0.9011 0.16367 0.0
C50 C 0.42292 0.93016 0.11385 0.0
C51 C 0.38192 0.88257 0.18042 0.0
C52 C 0.39293 0.85379 0.15629 0.0
C53 C 0.39084 0.87158 0.14083 0.0
C54 C 0.37747 0.85777 0.25155 0.0
C55 C 0.3862 0.84662 0.21176 0.0
C56 C 0.37534 0.87548 0.23598 0.0
C57 C 0.36094 0.96561 0.11278 0.0
C58 C 0.33347 0.96096 0.13042 0.0
C59 C 0.34284 0.98992 0.10293 0.0
C60 C 0.35793 0.98337 0.1004 0.0
C61 C 0.33037 0.97883 0.11789 0.0
C62 C 0.34862 0.95441 0.12786 0.0
C63 C 0.37703 0.95924 0.10993 0.0
O64 O 0.41612 0.93282 0.16918 0.0
O65 O 0.4132 0.92581 0.06816 0.0
O66 O 0.38022 0.94795 0.06417 0.0
O67 O 0.38341 0.95509 0.16496 0.0
H68 H 0.41933 0.9649 0.08308 0.0
H69 H 0.43971 0.98591 0.05533 0.0
H70 H 0.4739 0.94486 0.07651 0.0
H71 H 0.45352 0.92415 0.1054 0.0
H72 H 0.39985 0.84565 0.12488 0.0
H73 H 0.39608 0.87666 0.09764 0.0
H74 H 0.37191 0.85272 0.29407 0.0
H75 H 0.3683 0.88362 0.26698 0.0
H76 H 0.32416 0.95197 0.14142 0.0
H77 H 0.34098 1.00378 0.09406 0.0
H78 H 0.3673 0.99224 0.08897 0.0
H79 H 0.35073 0.94063 0.13752 0.0
C80 C 0.09715 0.4441 0.40049 0.0
C81 C 0.10047 0.46207 0.40652 0.0
C82 C 0.07337 0.46833 0.43062 0.0
C83 C 0.08869 0.47407 0.42146 0.0
C84 C 0.07019 0.45027 0.42451 0.0
C85 C 0.08196 0.43831 0.40961 0.0
U86 U 0.1394 0.43106 0.3671 0.0
O87 O 0.15226 0.40754 0.39849 0.0
O88 O 0.14871 0.4125 0.29614 0.0
C89 C 0.15394 0.40159 0.33985 0.0
C90 C 0.1093 0.43117 0.38495 0.0
C91 C 0.15064 0.38273 0.32971 0.0
C92 C 0.13414 0.35892 0.2923 0.0
C93 C 0.13649 0.37685 0.30473 0.0
C94 C 0.15992 0.35253 0.33086 0.0
C95 C 0.14588 0.34652 0.30486 0.0
C96 C 0.16226 0.37041 0.34307 0.0
C97 C 0.1712 0.46697 0.37078 0.0
C98 C 0.19809 0.46761 0.40578 0.0
C99 C 0.18916 0.48825 0.32588 0.0
C100 C 0.17435 0.48096 0.32913 0.0
C101 C 0.2012 0.4818 0.3646 0.0
C102 C 0.18327 0.46025 0.40877 0.0
C103 C 0.15509 0.46052 0.37647 0.0
O104 O 0.11577 0.4328 0.32841 0.0
O105 O 0.11933 0.42789 0.43068 0.0
O106 O 0.15186 0.45045 0.42572 0.0
O107 O 0.14839 0.45531 0.32325 0.0
H108 H 0.11214 0.46679 0.39955 0.0
H109 H 0.09155 0.48788 0.42503 0.0
H110 H 0.05863 0.4453 0.43216 0.0
H111 H 0.07919 0.42448 0.40542 0.0
H112 H 0.12313 0.35477 0.27298 0.0
H113 H 0.12732 0.38612 0.29424 0.0
H114 H 0.16931 0.34347 0.3403 0.0
H115 H 0.17329 0.37466 0.36205 0.0
H116 H 0.20712 0.46218 0.43573 0.0
H117 H 0.19106 0.49929 0.29424 0.0
H118 H 0.16524 0.48651 0.29981 0.0
H119 H 0.18124 0.44947 0.44141 0.0
C120 C 0.43595 0.58859 0.40478 0.0
C121 C 0.43277 0.57061 0.41114 0.0
C122 C 0.45994 0.56461 0.43501 0.0
C123 C 0.44465 0.55873 0.42607 0.0
C124 C 0.46299 0.58269 0.42854 0.0
C125 C 0.45112 0.59452 0.41358 0.0
U126 U 0.39342 0.60077 0.37595 0.0
O127 O 0.38041 0.62419 0.40722 0.0
O128 O 0.38311 0.61859 0.30486 0.0
C129 C 0.37809 0.62969 0.34842 0.0
C130 C 0.42365 0.60136 0.38945 0.0
C131 C 0.38106 0.64851 0.33642 0.0
C132 C 0.39763 0.67249 0.30153 0.0
C133 C 0.39544 0.65458 0.31477 0.0
C134 C 0.37119 0.67845 0.33241 0.0
C135 C 0.3855 0.68466 0.31 0.0
C136 C 0.36902 0.6606 0.34541 0.0
C137 C 0.36284 0.56376 0.38996 0.0
C138 C 0.33495 0.56731 0.381 0.0
C139 C 0.34589 0.53851 0.40047 0.0
C140 C 0.36072 0.54573 0.39966 0.0
C141 C 0.33277 0.5492 0.39166 0.0
C142 C 0.34987 0.57455 0.38029 0.0
C143 C 0.37868 0.57086 0.3913 0.0
O144 O 0.41671 0.59919 0.33404 0.0
O145 O 0.41399 0.60495 0.43615 0.0
O146 O 0.38193 0.58162 0.43862 0.0
O147 O 0.3844 0.57599 0.33623 0.0
H148 H 0.42112 0.56577 0.40448 0.0
H149 H 0.44186 0.54491 0.42984 0.0
H150 H 0.47453 0.58778 0.43598 0.0
H151 H 0.4538 0.60837 0.40915 0.0
H152 H 0.40884 0.67681 0.28504 0.0
H153 H 0.40492 0.64549 0.30772 0.0
H154 H 0.36152 0.68732 0.3386 0.0
H155 H 0.35781 0.65618 0.36183 0.0
H156 H 0.32513 0.57595 0.37453 0.0
H157 H 0.34472 0.52449 0.40766 0.0
H158 H 0.37059 0.53718 0.40694 0.0
H159 H 0.35128 0.58853 0.37279 0.0
C160 C 0.93511 0.94404 0.9104 0.0
C161 C 0.9341 0.96213 0.89775 0.0
C162 C 0.95958 0.96679 0.94544 0.0
C163 C 0.94625 0.97339 0.91494 0.0
C164 C 0.96041 0.94867 0.95834 0.0
C165 C 0.94832 0.93745 0.94095 0.0
U166 U 0.8929 0.93248 0.86786 0.0
O167 O 0.88413 0.91465 0.79285 0.0
O168 O 0.87934 0.90916 0.89392 0.0
C169 C 0.87835 0.90355 0.83451 0.0
C170 C 0.92276 0.93172 0.8913 0.0
C171 C 0.88164 0.8847 0.82323 0.0
C172 C 0.89386 0.857 0.85285 0.0
C173 C 0.89186 0.87512 0.86224 0.0
C174 C 0.87583 0.85789 0.76432 0.0
C175 C 0.88577 0.84811 0.80406 0.0
C176 C 0.87379 0.87594 0.77393 0.0
C177 C 0.86176 0.96919 0.87 0.0
C178 C 0.83389 0.96683 0.88373 0.0
C179 C 0.84492 0.99365 0.84196 0.0
C180 C 0.8597 0.98629 0.84656 0.0
C181 C 0.83181 0.98409 0.86093 0.0
C182 C 0.84872 0.95943 0.88805 0.0
C183 C 0.87765 0.96231 0.87761 0.0
O184 O 0.91226 0.92833 0.93488 0.0
O185 O 0.91689 0.93392 0.83381 0.0
O186 O 0.8847 0.95729 0.825 0.0
O187 O 0.88012 0.95168 0.92614 0.0
H188 H 0.92397 0.96752 0.87445 0.0
H189 H 0.94512 0.98729 0.90495 0.0
H190 H 0.97054 0.94307 0.98093 0.0
H191 H 0.94935 0.92353 0.95096 0.0
H192 H 0.90175 0.84995 0.88385 0.0
H193 H 0.89813 0.88158 0.90047 0.0
H194 H 0.86925 0.8515 0.72687 0.0
H195 H 0.8658 0.88304 0.74343 0.0
H196 H 0.82405 0.95901 0.89803 0.0
H197 H 0.84382 1.00703 0.825 0.0
H198 H 0.8696 0.99409 0.83267 0.0
H199 H 0.84999 0.94617 0.90607 0.0
C200 C 0.59508 0.08668 0.89853 0.0
C201 C 0.58026 0.08834 0.87205 0.0
C202 C 0.57132 0.0628 0.93203 0.0
C203 C 0.56852 0.07654 0.88846 0.0
C204 C 0.58629 0.0611 0.95809 0.0
C205 C 0.59805 0.07288 0.9414 0.0
U206 U 0.63721 0.1001 0.86485 0.0
O207 O 0.64642 0.1175 0.78985 0.0
O208 O 0.64967 0.12426 0.89105 0.0
C209 C 0.65119 0.12933 0.83124 0.0
C210 C 0.60709 0.09964 0.88137 0.0
C211 C 0.64751 0.14795 0.81606 0.0
C212 C 0.6391 0.17736 0.84735 0.0
C213 C 0.64125 0.15952 0.86181 0.0
C214 C 0.64918 0.17236 0.741 0.0
C215 C 0.64312 0.18405 0.78683 0.0
C216 C 0.65138 0.15459 0.75553 0.0
C217 C 0.6689 0.06387 0.87642 0.0
C218 C 0.69675 0.06676 0.88988 0.0
C219 C 0.68577 0.03866 0.86034 0.0
C220 C 0.67101 0.04612 0.86078 0.0
C221 C 0.69885 0.04879 0.87574 0.0
C222 C 0.6819 0.07423 0.8903 0.0
C223 C 0.65297 0.0708 0.88034 0.0
O224 O 0.61694 0.10395 0.92671 0.0
O225 O 0.61369 0.09741 0.82537 0.0
O226 O 0.64643 0.07526 0.82596 0.0
O227 O 0.64997 0.08184 0.92719 0.0
H228 H 0.57773 0.09883 0.83863 0.0
H229 H 0.55728 0.07813 0.86647 0.0
H230 H 0.58887 0.05084 0.9923 0.0
H231 H 0.60941 0.07129 0.96241 0.0
H232 H 0.63427 0.18592 0.8836 0.0
H233 H 0.63818 0.15488 0.90905 0.0
H234 H 0.65265 0.17703 0.69428 0.0
H235 H 0.65642 0.14605 0.71962 0.0
H236 H 0.70653 0.07493 0.90234 0.0
H237 H 0.68694 0.0249 0.84801 0.0
H238 H 0.66115 0.0379 0.84966 0.0
H239 H 0.68055 0.08798 0.90244 0.0
C240 C 0.93636 0.58879 0.58875 0.0
C241 C 0.93299 0.57085 0.58213 0.0
C242 C 0.96007 0.56453 0.55803 0.0
C243 C 0.94473 0.55883 0.56689 0.0
C244 C 0.9633 0.58257 0.56463 0.0
C245 C 0.95157 0.59454 0.57983 0.0
U246 U 0.89413 0.60214 0.62149 0.0
O247 O 0.8849 0.62041 0.69403 0.0
O248 O 0.88154 0.62593 0.59202 0.0
C249 C 0.88011 0.63178 0.65097 0.0
C250 C 0.92427 0.60173 0.60503 0.0
C251 C 0.88387 0.65059 0.66275 0.0
C252 C 0.88505 0.67546 0.73644 0.0
C253 C 0.88294 0.65748 0.72507 0.0
C254 C 0.88917 0.68015 0.62337 0.0
C255 C 0.88802 0.68711 0.68567 0.0
C256 C 0.8871 0.66215 0.61204 0.0
C257 C 0.86227 0.56656 0.611 0.0
C258 C 0.83515 0.57058 0.63807 0.0
C259 C 0.84383 0.54302 0.59261 0.0
C260 C 0.85891 0.54952 0.58977 0.0
C261 C 0.83171 0.55343 0.61678 0.0
C262 C 0.85029 0.5771 0.63511 0.0
C263 C 0.87836 0.57284 0.60767 0.0
O264 O 0.91441 0.60551 0.55918 0.0
O265 O 0.91763 0.59973 0.66103 0.0
O266 O 0.88469 0.57774 0.66202 0.0
O267 O 0.88162 0.58342 0.55997 0.0
H268 H 0.9213 0.56616 0.58895 0.0
H269 H 0.94182 0.54505 0.56293 0.0
H270 H 0.97488 0.58751 0.55721 0.0
H271 H 0.95439 0.60834 0.5845 0.0
H272 H 0.88428 0.68024 0.78515 0.0
H273 H 0.8803 0.64899 0.76512 0.0
H274 H 0.89121 0.68868 0.58287 0.0
H275 H 0.8877 0.65741 0.56324 0.0
H276 H 0.82611 0.57905 0.65632 0.0
H277 H 0.84172 0.52969 0.57674 0.0
H278 H 0.86801 0.54116 0.57119 0.0
H279 H 0.85266 0.59032 0.65157 0.0
C280 C 0.59745 0.44531 0.59626 0.0
C281 C 0.5823 0.44252 0.61753 0.0
C282 C 0.57364 0.46952 0.56557 0.0
C283 C 0.57054 0.45447 0.60248 0.0
C284 C 0.58894 0.47238 0.54504 0.0
C285 C 0.60072 0.46042 0.56031 0.0
U286 U 0.63966 0.43073 0.62377 0.0
O287 O 0.64911 0.41198 0.69371 0.0
O288 O 0.65151 0.40665 0.591 0.0
C289 C 0.65358 0.40078 0.64949 0.0
C290 C 0.60944 0.43205 0.61071 0.0
C291 C 0.64998 0.38202 0.66058 0.0
C292 C 0.63429 0.35879 0.70726 0.0
C293 C 0.63672 0.37664 0.69385 0.0
C294 C 0.65814 0.35146 0.65308 0.0
C295 C 0.64504 0.34596 0.68745 0.0
C296 C 0.66056 0.36926 0.63991 0.0
C297 C 0.67262 0.46522 0.61341 0.0
C298 C 0.69253 0.48334 0.66315 0.0
C299 C 0.69821 0.46758 0.56543 0.0
C300 C 0.68319 0.46074 0.56496 0.0
C301 C 0.70306 0.47911 0.61423 0.0
C302 C 0.67751 0.47654 0.66257 0.0
C303 C 0.65621 0.45948 0.61081 0.0
O304 O 0.61891 0.42807 0.56373 0.0
O305 O 0.61647 0.43364 0.66619 0.0
O306 O 0.6499 0.4547 0.66524 0.0
O307 O 0.65206 0.44946 0.56245 0.0
H308 H 0.57953 0.43098 0.64555 0.0
H309 H 0.559 0.45195 0.62017 0.0
H310 H 0.59178 0.48369 0.51602 0.0
H311 H 0.61235 0.46285 0.5434 0.0
H312 H 0.62399 0.35504 0.73314 0.0
H313 H 0.62834 0.38623 0.71015 0.0
H314 H 0.66679 0.34206 0.63783 0.0
H315 H 0.67092 0.37311 0.6145 0.0
H316 H 0.69587 0.49197 0.70199 0.0
H317 H 0.70588 0.4642 0.52644 0.0
H318 H 0.67981 0.45223 0.52585 0.0
H319 H 0.6696 0.48038 0.70025 0.0
C320 C 0.145 0.21645 0.17662 0.0
C321 C 0.14309 0.20351 0.22399 0.0
C322 C 0.14433 0.23437 0.19225 0.0
C323 C 0.14161 0.23982 0.25576 0.0
C324 C 0.13947 0.22685 0.30271 0.0
C325 C 0.14016 0.20898 0.28711 0.0
C326 C 0.14176 0.25869 0.27613 0.0
C327 C 0.14036 0.2725 0.23595 0.0
C328 C 0.14119 0.29131 0.25685 0.0
C329 C 0.13519 0.3044 0.21641 0.0
C330 C 0.13638 0.32223 0.23255 0.0
C331 C 0.14376 0.32748 0.28944 0.0
H332 H 0.15362 0.28706 0.34611 0.0
C333 C 0.14967 0.31438 0.3302 0.0
C334 C 0.14846 0.29656 0.31413 0.0
H335 H 0.15533 0.31789 0.37462 0.0
H336 H 0.14752 0.21274 0.1277 0.0
H337 H 0.14645 0.24379 0.15464 0.0
H338 H 0.13738 0.23055 0.35202 0.0
H339 H 0.13843 0.19942 0.32475 0.0
H340 H 0.14274 0.26115 0.32711 0.0
H341 H 0.1381 0.27012 0.18562 0.0
H342 H 0.12966 0.30085 0.1717 0.0
H343 H 0.13189 0.33192 0.19946 0.0
C344 C 0.38684 0.81457 0.18001 0.0
C345 C 0.38792 0.82757 0.22776 0.0
C346 C 0.38745 0.79667 0.19583 0.0
C347 C 0.3893 0.79131 0.25996 0.0
C348 C 0.39063 0.80434 0.30733 0.0
C349 C 0.38999 0.82219 0.29154 0.0
C350 C 0.38902 0.77246 0.28035 0.0
C351 C 0.3911 0.7586 0.24073 0.0
C352 C 0.39015 0.73983 0.26168 0.0
C353 C 0.39694 0.72673 0.22336 0.0
C354 C 0.39573 0.70893 0.23962 0.0
C355 C 0.38755 0.70369 0.29445 0.0
H356 H 0.37627 0.74409 0.34705 0.0
C357 C 0.38082 0.7168 0.33305 0.0
C358 C 0.38205 0.7346 0.31687 0.0
H359 H 0.37452 0.7133 0.37587 0.0
H360 H 0.38499 0.81821 0.13052 0.0
H361 H 0.38599 0.78718 0.15778 0.0
H362 H 0.39204 0.80071 0.35711 0.0
H363 H 0.39108 0.83179 0.32955 0.0
H364 H 0.38736 0.77004 0.33102 0.0
H365 H 0.39403 0.76093 0.19103 0.0
H366 H 0.40313 0.73027 0.18025 0.0
H367 H 0.40088 0.69923 0.20819 0.0
C368 C 0.88763 0.82102 0.73452 0.0
C369 C 0.8872 0.82866 0.79588 0.0
C370 C 0.88812 0.80273 0.72689 0.0
C371 C 0.88821 0.79155 0.78059 0.0
C372 C 0.88788 0.79921 0.84181 0.0
C373 C 0.88746 0.81749 0.84943 0.0
C374 C 0.88777 0.77197 0.77495 0.0
C375 C 0.89238 0.76294 0.72263 0.0
C376 C 0.89148 0.74338 0.71647 0.0
C377 C 0.90097 0.73485 0.67162 0.0
C378 C 0.90005 0.71665 0.66235 0.0
C379 C 0.88946 0.70645 0.69728 0.0
H380 H 0.87302 0.73925 0.78523 0.0
C381 C 0.87995 0.71501 0.74223 0.0
C382 C 0.88091 0.73321 0.75167 0.0
H383 H 0.87141 0.70771 0.76904 0.0
H384 H 0.88752 0.8292 0.69218 0.0
H385 H 0.88798 0.79747 0.67881 0.0
H386 H 0.88779 0.791 0.88411 0.0
H387 H 0.8869 0.82285 0.89739 0.0
H388 H 0.88389 0.76476 0.81669 0.0
H389 H 0.89756 0.77001 0.68305 0.0
H390 H 0.90917 0.7423 0.64353 0.0
H391 H 0.9077 0.71057 0.62785 0.0
C392 C 0.64693 0.31369 0.66021 0.0
C393 C 0.64296 0.327 0.70407 0.0
C394 C 0.64585 0.29592 0.67701 0.0
C395 C 0.64065 0.29093 0.73821 0.0
C396 C 0.63656 0.30424 0.78177 0.0
C397 C 0.63763 0.32201 0.76493 0.0
C398 C 0.64011 0.27218 0.75965 0.0
C399 C 0.63975 0.25828 0.71934 0.0
C400 C 0.63984 0.23945 0.74005 0.0
C401 C 0.63567 0.22649 0.69532 0.0
C402 C 0.63641 0.20862 0.71089 0.0
C403 C 0.64144 0.20316 0.77171 0.0
H404 H 0.64844 0.24341 0.83692 0.0
C405 C 0.64543 0.2161 0.81694 0.0
C406 C 0.64471 0.23401 0.80133 0.0
H407 H 0.6496 0.21239 0.86389 0.0
H408 H 0.65099 0.317 0.61276 0.0
H409 H 0.6495 0.28624 0.64227 0.0
H410 H 0.63266 0.30089 0.82944 0.0
H411 H 0.63469 0.33185 0.80036 0.0
H412 H 0.63959 0.26991 0.81082 0.0
H413 H 0.63898 0.26064 0.66826 0.0
H414 H 0.6319 0.23018 0.64773 0.0
H415 H 0.63306 0.19908 0.67504 0.0
C416 C 0.30923 0.99866 0.07628 0.0
C417 C 0.31427 0.98598 0.12067 0.0
C418 C 0.2943 1.00572 0.07966 0.0
C419 C 0.28398 1.00034 0.12785 0.0
C420 C 0.28893 0.98744 0.1714 0.0
C421 C 0.30387 0.9804 0.16808 0.0
C422 C 0.26788 1.00736 0.13312 0.0
C423 C 0.26327 0.02299 0.10886 0.0
C424 C 0.24717 0.03016 0.11307 0.0
C425 C 0.24312 0.04445 0.07385 0.0
C426 C 0.22822 0.05162 0.07543 0.0
C427 C 0.21691 0.04475 0.11656 0.0
H428 H 0.23852 1.01286 0.18777 0.0
C429 C 0.22101 0.03064 0.15667 0.0
C430 C 0.23593 0.02346 0.15517 0.0
H431 H 0.2127 0.02522 0.18989 0.0
H432 H 0.31676 1.00298 0.03815 0.0
H433 H 0.29086 1.01511 0.04357 0.0
H434 H 0.28125 0.9829 0.20875 0.0
H435 H 0.30735 0.97079 0.20346 0.0
H436 H 0.25969 0.99928 0.15886 0.0
H437 H 0.27163 0.03107 0.08396 0.0
H438 H 0.25148 0.04999 0.04112 0.0
H439 H 0.22548 0.06235 0.04336 0.0
C440 C 0.30527 0.54653 0.3517 0.0
C441 C 0.31697 0.54135 0.39457 0.0
C442 C 0.29062 0.53869 0.35368 0.0
C443 C 0.28731 0.52542 0.39866 0.0
C444 C 0.29893 0.52058 0.44225 0.0
C445 C 0.31353 0.52837 0.44018 0.0
C446 C 0.27194 0.51656 0.40325 0.0
C447 C 0.26129 0.51628 0.35589 0.0
C448 C 0.24609 0.50699 0.3601 0.0
C449 C 0.23779 0.50381 0.30338 0.0
C450 C 0.22338 0.49549 0.30471 0.0
C451 C 0.21681 0.49013 0.36297 0.0
H452 H 0.2451 0.50427 0.46376 0.0
C453 C 0.22507 0.49329 0.41984 0.0
C454 C 0.23947 0.50168 0.41857 0.0
H455 H 0.22022 0.48967 0.46569 0.0
H456 H 0.3075 0.55647 0.3159 0.0
H457 H 0.28195 0.54323 0.32029 0.0
H458 H 0.29674 0.5106 0.47801 0.0
H459 H 0.32212 0.52428 0.47485 0.0
H460 H 0.26976 0.50924 0.44676 0.0
H461 H 0.26398 0.52249 0.31059 0.0
H462 H 0.24249 0.50776 0.25759 0.0
H463 H 0.21743 0.49316 0.25991 0.0
C464 C 0.72766 0.04907 0.85532 0.0
C465 C 0.71447 0.04041 0.87854 0.0
C466 C 0.74222 0.04093 0.85736 0.0
C467 C 0.74393 0.02387 0.88267 0.0
C468 C 0.73077 1.0154 0.90683 0.0
C469 C 0.71627 0.0235 0.90467 0.0
C470 C 0.75914 1.01455 0.88675 0.0
C471 C 0.77166 0.01865 0.85128 0.0
C472 C 0.78676 1.00907 0.85463 0.0
C473 C 0.79741 1.0113 0.80462 0.0
C474 C 0.81186 1.00302 0.80617 0.0
C475 C 0.81613 0.9923 0.85804 0.0
H476 H 0.78347 0.99656 0.94726 0.0
C477 C 0.80548 0.98998 0.90809 0.0
C478 C 0.79103 0.99831 0.90666 0.0
H479 H 0.80848 0.9821 0.94938 0.0
H480 H 0.72672 0.06209 0.83483 0.0
H481 H 0.75205 0.04819 0.8398 0.0
H482 H 0.73168 1.00238 0.92737 0.0
H483 H 0.70646 0.01654 0.92426 0.0
H484 H 0.75966 1.0033 0.91842 0.0
H485 H 0.77074 0.02905 0.81602 0.0
H486 H 0.79456 0.01951 0.76396 0.0
H487 H 0.81969 1.00499 0.76645 0.0
C488 C 0.72125 0.50461 0.63127 0.0
C489 C 0.71888 0.48698 0.61327 0.0
C490 C 0.73601 0.51214 0.62887 0.0
C491 C 0.74884 0.50218 0.60863 0.0
C492 C 0.74645 0.4846 0.59056 0.0
C493 C 0.73172 0.47708 0.59305 0.0
C494 C 0.76473 0.50972 0.60301 0.0
C495 C 0.76957 0.52435 0.63378 0.0
C496 C 0.78552 0.53169 0.62787 0.0
C497 C 0.79123 0.54265 0.67663 0.0
C498 C 0.8061 0.5498 0.67294 0.0
C499 C 0.81565 0.54629 0.62003 0.0
H500 H 0.79086 0.52065 0.53444 0.0
C501 C 0.80981 0.53563 0.57054 0.0
C502 C 0.79495 0.52846 0.57426 0.0
H503 H 0.81667 0.53297 0.52832 0.0
H504 H 0.71162 0.51278 0.64578 0.0
H505 H 0.73716 0.52586 0.6414 0.0
H506 H 0.75605 0.47659 0.57447 0.0
H507 H 0.73042 0.46343 0.57946 0.0
H508 H 0.77291 0.5024 0.57407 0.0
H509 H 0.76186 0.53086 0.66714 0.0
H510 H 0.78422 0.54552 0.71827 0.0
H511 H 0.81022 0.55783 0.71223 0.0
C512 C 0.97757 0.9921 0.9224 0.0
C513 C 0.97262 0.97864 0.96362 0.0
C514 C 0.9901 1.00286 0.93891 0.0
C515 C 0.99803 1.00042 -0.00278 0.0
C516 C 0.99286 0.98719 0.03879 0.0
C517 C 0.9804 0.97641 0.0222 0.0
C518 C 1.0114 1.01154 0.01762 0.0
C519 C 0.02014 0.02119 0.97727 0.0
C520 C 0.0335 0.03232 -0.00226 0.0
C521 C 0.03861 0.04564 0.95643 0.0
C522 C 0.05104 0.05645 0.97317 0.0
C523 C 0.05886 0.05414 0.03162 0.0
H524 H 0.03831 0.01941 0.08851 0.0
C525 C 0.05398 0.04058 0.07253 0.0
C526 C 0.04148 0.02979 0.05589 0.0
H527 H 0.05969 0.03844 0.118 0.0
H528 H 0.9719 0.99417 0.87682 0.0
H529 H 0.99332 1.01317 0.90605 0.0
H530 H 0.99856 0.98508 0.08434 0.0
H531 H 0.97676 0.9664 0.05569 0.0
H532 H 1.01416 1.01151 0.06825 0.0
H533 H 0.01738 0.02124 0.92664 0.0
H534 H 0.03287 0.04782 0.91101 0.0
H535 H 0.05462 0.06654 0.93992 0.0
C536 C 0.4854 0.97936 0.07808 0.0
C537 C 0.47103 0.9798 0.04649 0.0
C538 C 0.49721 0.99106 0.0615 0.0
C539 C 0.49498 1.00351 0.01253 0.0
C540 C 0.48055 1.00411 0.98166 0.0
C541 C 0.46876 0.99239 -0.00185 0.0
C542 C 0.50714 1.01644 0.99373 0.0
C543 C 0.52242 1.01402 0.00391 0.0
C544 C 0.53462 0.02684 0.98451 0.0
C545 C 0.54989 0.02087 0.97725 0.0
C546 C 0.56174 0.03244 0.9601 0.0
C547 C 0.55868 0.0504 0.95028 0.0
H548 H 0.52008 0.05016 0.98237 0.0
C549 C 0.54341 0.05642 0.95829 0.0
C550 C 0.53154 0.04483 0.97526 0.0
H551 H 0.54063 0.07021 0.95264 0.0
H552 H 0.48747 0.97013 0.11653 0.0
H553 H 0.50791 0.99049 0.08815 0.0
H554 H 0.47842 1.0136 0.94406 0.0
H555 H 0.45793 0.99305 0.97227 0.0
H556 H 0.5033 0.02799 0.96779 0.0
H557 H 0.52637 1.00175 0.02476 0.0
H558 H 0.55267 1.00713 0.9844 0.0
H559 H 0.57328 0.02723 0.95378 0.0
C560 C 0.98753 0.55362 0.56838 0.0
C561 C 0.97267 0.55181 0.54174 0.0
C562 C 0.99942 0.5419 0.55244 0.0
C563 C 0.99679 0.52804 0.50901 0.0
C564 C 0.98188 0.5261 0.48319 0.0
C565 C 0.97 0.53783 0.49911 0.0
C566 C 1.00902 0.51504 0.49066 0.0
C567 C 0.02436 0.51776 0.49778 0.0
C568 C 0.0366 0.50477 0.47947 0.0
C569 C 0.05153 0.50679 0.50503 0.0
C570 C 0.06342 0.49508 0.48915 0.0
C571 C 0.06076 0.48103 0.44683 0.0
H572 H 0.02286 0.48902 0.41364 0.0
C573 C 0.04587 0.47912 0.42047 0.0
C574 C 0.03397 0.49084 0.43636 0.0
H575 H 0.04345 0.4687 0.38662 0.0
H576 H 0.98994 0.56399 0.60249 0.0
H577 H 1.01051 0.54363 0.57538 0.0
H578 H 0.97942 0.51553 0.44995 0.0
H579 H 0.95877 0.53608 0.47712 0.0
H580 H 1.00502 0.50281 0.46985 0.0
H581 H 0.02835 0.53 0.51855 0.0
H582 H 0.05399 0.51742 0.53803 0.0
H583 H 0.07466 0.4969 0.51094 0.0
C584 C 0.48753 0.55405 0.42534 0.0
C585 C 0.47264 0.55203 0.45137 0.0
C586 C 0.49948 0.54238 0.44118 0.0
C587 C 0.49688 0.52838 0.48381 0.0
C588 C 0.48197 0.52624 0.50909 0.0
C589 C 0.47004 0.53792 0.49338 0.0
C590 C 0.50917 0.5154 0.50136 0.0
C591 C 0.52449 0.51864 0.49733 0.0
C592 C 0.53676 0.50571 0.51553 0.0
C593 C 0.55163 0.5119 0.53028 0.0
C594 C 0.56354 0.50025 0.54666 0.0
C595 C 0.56094 0.48201 0.5482 0.0
H596 H 0.52307 0.48201 0.50331 0.0
C597 C 0.54609 0.47579 0.53265 0.0
C598 C 0.53417 0.48745 0.51642 0.0
H599 H 0.54372 0.46183 0.53178 0.0
H600 H 0.48992 0.5645 0.39173 0.0
H601 H 0.51062 0.54422 0.4188 0.0
H602 H 0.47955 0.51554 0.54172 0.0
H603 H 0.45881 0.53601 0.51499 0.0
H604 H 0.50532 0.50299 0.52117 0.0
H605 H 0.52833 0.5316 0.48287 0.0
H606 H 0.55404 0.52586 0.52965 0.0
H607 H 0.57475 0.50559 0.55889 0.0
loop_
_geom_bond_atom_site_label_1
_geom_bond_atom_site_label_2
_geom_bond_distance
_geom_bond_site_symmetry_2
_ccdc_geom_bond_type
C0 C1 1.264 . S
C0 C5 1.479 . S
C0 C10 1.465 . S
C1 C0 1.264 . S
C1 C3 1.339 . S
C1 H28 0.931 . S
C2 C3 1.395 . S
C2 C4 1.320 . S
C3 C1 1.339 . S
C3 C2 1.395 . S
C3 H29 0.929 . S
C4 C2 1.320 . S
C4 C5 1.405 . S
C4 H30 0.930 . S
C5 C0 1.479 . S
C5 C4 1.405 . S
C5 H31 0.931 . S
U6 O7 2.454 . S
U6 O8 2.458 . S
U6 C9 2.984 . S
U6 C10 2.847 . S
U6 C23 2.882 . S
U6 O24 2.441 . S
U6 O25 2.420 . S
U6 O26 2.455 . S
U6 O27 2.449 . S
O7 U6 2.454 . S
O7 C9 1.353 . S
O8 U6 2.458 . S
O8 C9 1.286 . S
C9 U6 2.984 . S
C9 O7 1.353 . S
C9 O8 1.286 . S
C9 C11 1.363 . S
C10 C0 1.465 . S
C10 U6 2.847 . S
C10 O24 1.249 . S
C10 O25 1.202 . S
C11 C9 1.363 . S
C11 C13 1.408 . S
C11 C16 1.342 . S
C12 C13 1.310 . S
C12 C15 1.461 . S
C12 H32 0.932 . S
C13 C11 1.408 . S
C13 C12 1.310 . S
C13 H33 0.930 . S
C14 C15 1.474 . S
C14 C16 1.285 . S
C14 H34 0.929 . S
C15 C12 1.461 . S
C15 C14 1.474 . S
C16 C11 1.342 . S
C16 C14 1.285 . S
C16 H35 0.930 . S
C17 C20 1.424 . S
C17 C22 1.245 . S
C17 C23 1.428 . S
C18 C21 1.260 . S
C18 C22 1.477 . S
C18 H36 0.932 . S
C19 C20 1.384 . S
C19 C21 1.479 . S
C19 H37 0.929 . S
C20 C17 1.424 . S
C20 C19 1.384 . S
C20 H38 0.928 . S
C21 C18 1.260 . S
C21 C19 1.479 . S
C22 C17 1.245 . S
C22 C18 1.477 . S
C22 H39 0.932 . S
C23 U6 2.882 . S
C23 C17 1.428 . S
C23 O26 1.301 . S
C23 O27 1.282 . S
O24 U6 2.441 . S
O24 C10 1.249 . S
O25 U6 2.420 . S
O25 C10 1.202 . S
O26 U6 2.455 . S
O26 C23 1.301 . S
O27 U6 2.449 . S
O27 C23 1.282 . S
H28 C1 0.931 . S
H29 C3 0.929 . S
H30 C4 0.930 . S
H31 C5 0.931 . S
H32 C12 0.932 . S
H33 C13 0.930 . S
H34 C14 0.929 . S
H35 C16 0.930 . S
H36 C18 0.932 . S
H37 C19 0.929 . S
H38 C20 0.928 . S
H39 C22 0.932 . S
C40 C41 1.264 . S
C40 C45 1.479 . S
C40 C50 1.465 . S
C41 C40 1.264 . S
C41 C43 1.339 . S
C41 H68 0.931 . S
C42 C43 1.395 . S
C42 C44 1.320 . S
C43 C41 1.339 . S
C43 C42 1.395 . S
C43 H69 0.929 . S
C44 C42 1.320 . S
C44 C45 1.405 . S
C44 H70 0.930 . S
C45 C40 1.479 . S
C45 C44 1.405 . S
C45 H71 0.931 . S
U46 O47 2.454 . S
U46 O48 2.458 . S
U46 C49 2.984 . S
U46 C50 2.847 . S
U46 C63 2.882 . S
U46 O64 2.441 . S
U46 O65 2.420 . S
U46 O66 2.455 . S
U46 O67 2.449 . S
O47 U46 2.454 . S
O47 C49 1.353 . S
O48 U46 2.458 . S
O48 C49 1.286 . S
C49 U46 2.984 . S
C49 O47 1.353 . S
C49 O48 1.286 . S
C49 C51 1.363 . S
C50 C40 1.465 . S
C50 U46 2.847 . S
C50 O64 1.249 . S
C50 O65 1.202 . S
C51 C49 1.363 . S
C51 C53 1.408 . S
C51 C56 1.342 . S
C52 C53 1.310 . S
C52 C55 1.461 . S
C52 H72 0.932 . S
C53 C51 1.408 . S
C53 C52 1.310 . S
C53 H73 0.930 . S
C54 C55 1.474 . S
C54 C56 1.285 . S
C54 H74 0.929 . S
C55 C52 1.461 . S
C55 C54 1.474 . S
C56 C51 1.342 . S
C56 C54 1.285 . S
C56 H75 0.930 . S
C57 C60 1.424 . S
C57 C62 1.245 . S
C57 C63 1.428 . S
C58 C61 1.260 . S
C58 C62 1.477 . S
C58 H76 0.932 . S
C59 C60 1.384 . S
C59 C61 1.479 . S
C59 H77 0.929 . S
C60 C57 1.424 . S
C60 C59 1.384 . S
C60 H78 0.928 . S
C61 C58 1.260 . S
C61 C59 1.479 . S
C62 C57 1.245 . S
C62 C58 1.477 . S
C62 H79 0.932 . S
C63 U46 2.882 . S
C63 C57 1.428 . S
C63 O66 1.301 . S
C63 O67 1.282 . S
O64 U46 2.441 . S
O64 C50 1.249 . S
O65 U46 2.420 . S
O65 C50 1.202 . S
O66 U46 2.455 . S
O66 C63 1.301 . S
O67 U46 2.449 . S
O67 C63 1.282 . S
H68 C41 0.931 . S
H69 C43 0.929 . S
H70 C44 0.930 . S
H71 C45 0.931 . S
H72 C52 0.932 . S
H73 C53 0.930 . S
H74 C54 0.929 . S
H75 C56 0.930 . S
H76 C58 0.932 . S
H77 C59 0.929 . S
H78 C60 0.928 . S
H79 C62 0.932 . S
C80 C81 1.264 . S
C80 C85 1.479 . S
C80 C90 1.465 . S
C81 C80 1.264 . S
C81 C83 1.339 . S
C81 H108 0.931 . S
C82 C83 1.395 . S
C82 C84 1.320 . S
C83 C81 1.339 . S
C83 C82 1.395 . S
C83 H109 0.929 . S
C84 C82 1.320 . S
C84 C85 1.405 . S
C84 H110 0.930 . S
C85 C80 1.479 . S
C85 C84 1.405 . S
C85 H111 0.931 . S
U86 O87 2.454 . S
U86 O88 2.458 . S
U86 C89 2.984 . S
U86 C90 2.847 . S
U86 C103 2.882 . S
U86 O104 2.441 . S
U86 O105 2.420 . S
U86 O106 2.455 . S
U86 O107 2.449 . S
O87 U86 2.454 . S
O87 C89 1.353 . S
O88 U86 2.458 . S
O88 C89 1.286 . S
C89 U86 2.984 . S
C89 O87 1.353 . S
C89 O88 1.286 . S
C89 C91 1.363 . S
C90 C80 1.465 . S
C90 U86 2.847 . S
C90 O104 1.249 . S
C90 O105 1.202 . S
C91 C89 1.363 . S
C91 C93 1.408 . S
C91 C96 1.342 . S
C92 C93 1.310 . S
C92 C95 1.461 . S
C92 H112 0.932 . S
C93 C91 1.408 . S
C93 C92 1.310 . S
C93 H113 0.930 . S
C94 C95 1.474 . S
C94 C96 1.285 . S
C94 H114 0.929 . S
C95 C92 1.461 . S
C95 C94 1.474 . S
C96 C91 1.342 . S
C96 C94 1.285 . S
C96 H115 0.930 . S
C97 C100 1.424 . S
C97 C102 1.245 . S
C97 C103 1.428 . S
C98 C101 1.260 . S
C98 C102 1.477 . S
C98 H116 0.932 . S
C99 C100 1.384 . S
C99 C101 1.479 . S
C99 H117 0.929 . S
C100 C97 1.424 . S
C100 C99 1.384 . S
C100 H118 0.928 . S
C101 C98 1.260 . S
C101 C99 1.479 . S
C102 C97 1.245 . S
C102 C98 1.477 . S
C102 H119 0.932 . S
C103 U86 2.882 . S
C103 C97 1.428 . S
C103 O106 1.301 . S
C103 O107 1.282 . S
O104 U86 2.441 . S
O104 C90 1.249 . S
O105 U86 2.420 . S
O105 C90 1.202 . S
O106 U86 2.455 . S
O106 C103 1.301 . S
O107 U86 2.449 . S
O107 C103 1.282 . S
H108 C81 0.931 . S
H109 C83 0.929 . S
H110 C84 0.930 . S
H111 C85 0.931 . S
H112 C92 0.932 . S
H113 C93 0.930 . S
H114 C94 0.929 . S
H115 C96 0.930 . S
H116 C98 0.932 . S
H117 C99 0.929 . S
H118 C100 0.928 . S
H119 C102 0.932 . S
C120 C121 1.264 . S
C120 C125 1.479 . S
C120 C130 1.465 . S
C121 C120 1.264 . S
C121 C123 1.339 . S
C121 H148 0.931 . S
C122 C123 1.395 . S
C122 C124 1.320 . S
C123 C121 1.339 . S
C123 C122 1.395 . S
C123 H149 0.929 . S
C124 C122 1.320 . S
C124 C125 1.405 . S
C124 H150 0.930 . S
C125 C120 1.479 . S
C125 C124 1.405 . S
C125 H151 0.931 . S
U126 O127 2.454 . S
U126 O128 2.458 . S
U126 C129 2.984 . S
U126 C130 2.847 . S
U126 C143 2.882 . S
U126 O144 2.441 . S
U126 O145 2.420 . S
U126 O146 2.455 . S
U126 O147 2.449 . S
O127 U126 2.454 . S
O127 C129 1.353 . S
O128 U126 2.458 . S
O128 C129 1.286 . S
C129 U126 2.984 . S
C129 O127 1.353 . S
C129 O128 1.286 . S
C129 C131 1.363 . S
C130 C120 1.465 . S
C130 U126 2.847 . S
C130 O144 1.249 . S
C130 O145 1.202 . S
C131 C129 1.363 . S
C131 C133 1.408 . S
C131 C136 1.342 . S
C132 C133 1.310 . S
C132 C135 1.461 . S
C132 H152 0.932 . S
C133 C131 1.408 . S
C133 C132 1.310 . S
C133 H153 0.930 . S
C134 C135 1.474 . S
C134 C136 1.285 . S
C134 H154 0.929 . S
C135 C132 1.461 . S
C135 C134 1.474 . S
C136 C131 1.342 . S
C136 C134 1.285 . S
C136 H155 0.930 . S
C137 C140 1.424 . S
C137 C142 1.245 . S
C137 C143 1.428 . S
C138 C141 1.260 . S
C138 C142 1.477 . S
C138 H156 0.932 . S
C139 C140 1.384 . S
C139 C141 1.479 . S
C139 H157 0.929 . S
C140 C137 1.424 . S
C140 C139 1.384 . S
C140 H158 0.928 . S
C141 C138 1.260 . S
C141 C139 1.479 . S
C142 C137 1.245 . S
C142 C138 1.477 . S
C142 H159 0.932 . S
C143 U126 2.882 . S
C143 C137 1.428 . S
C143 O146 1.301 . S
C143 O147 1.282 . S
O144 U126 2.441 . S
O144 C130 1.249 . S
O145 U126 2.420 . S
O145 C130 1.202 . S
O146 U126 2.455 . S
O146 C143 1.301 . S
O147 U126 2.449 . S
O147 C143 1.282 . S
H148 C121 0.931 . S
H149 C123 0.929 . S
H150 C124 0.930 . S
H151 C125 0.931 . S
H152 C132 0.932 . S
H153 C133 0.930 . S
H154 C134 0.929 . S
H155 C136 0.930 . S
H156 C138 0.932 . S
H157 C139 0.929 . S
H158 C140 0.928 . S
H159 C142 0.932 . S
C160 C161 1.264 . S
C160 C165 1.479 . S
C160 C170 1.465 . S
C161 C160 1.264 . S
C161 C163 1.339 . S
C161 H188 0.931 . S
C162 C163 1.395 . S
C162 C164 1.320 . S
C163 C161 1.339 . S
C163 C162 1.395 . S
C163 H189 0.929 . S
C164 C162 1.320 . S
C164 C165 1.405 . S
C164 H190 0.930 . S
C165 C160 1.479 . S
C165 C164 1.405 . S
C165 H191 0.931 . S
U166 O167 2.454 . S
U166 O168 2.458 . S
U166 C169 2.984 . S
U166 C170 2.847 . S
U166 C183 2.882 . S
U166 O184 2.441 . S
U166 O185 2.420 . S
U166 O186 2.455 . S
U166 O187 2.449 . S
O167 U166 2.454 . S
O167 C169 1.353 . S
O168 U166 2.458 . S
O168 C169 1.286 . S
C169 U166 2.984 . S
C169 O167 1.353 . S
C169 O168 1.286 . S
C169 C171 1.363 . S
C170 C160 1.465 . S
C170 U166 2.847 . S
C170 O184 1.249 . S
C170 O185 1.202 . S
C171 C169 1.363 . S
C171 C173 1.408 . S
C171 C176 1.342 . S
C172 C173 1.310 . S
C172 C175 1.461 . S
C172 H192 0.932 . S
C173 C171 1.408 . S
C173 C172 1.310 . S
C173 H193 0.930 . S
C174 C175 1.474 . S
C174 C176 1.285 . S
C174 H194 0.929 . S
C175 C172 1.461 . S
C175 C174 1.474 . S
C176 C171 1.342 . S
C176 C174 1.285 . S
C176 H195 0.930 . S
C177 C180 1.424 . S
C177 C182 1.245 . S
C177 C183 1.428 . S
C178 C181 1.260 . S
C178 C182 1.477 . S
C178 H196 0.932 . S
C179 C180 1.384 . S
C179 C181 1.479 . S
C179 H197 0.929 . S
C180 C177 1.424 . S
C180 C179 1.384 . S
C180 H198 0.928 . S
C181 C178 1.260 . S
C181 C179 1.479 . S
C182 C177 1.245 . S
C182 C178 1.477 . S
C182 H199 0.932 . S
C183 U166 2.882 . S
C183 C177 1.428 . S
C183 O186 1.301 . S
C183 O187 1.282 . S
O184 U166 2.441 . S
O184 C170 1.249 . S
O185 U166 2.420 . S
O185 C170 1.202 . S
O186 U166 2.455 . S
O186 C183 1.301 . S
O187 U166 2.449 . S
O187 C183 1.282 . S
H188 C161 0.931 . S
H189 C163 0.929 . S
H190 C164 0.930 . S
H191 C165 0.931 . S
H192 C172 0.932 . S
H193 C173 0.930 . S
H194 C174 0.929 . S
H195 C176 0.930 . S
H196 C178 0.932 . S
H197 C179 0.929 . S
H198 C180 0.928 . S
H199 C182 0.932 . S
C200 C201 1.264 . S
C200 C205 1.479 . S
C200 C210 1.465 . S
C201 C200 1.264 . S
C201 C203 1.339 . S
C201 H228 0.931 . S
C202 C203 1.395 . S
C202 C204 1.320 . S
C203 C201 1.339 . S
C203 C202 1.395 . S
C203 H229 0.929 . S
C204 C202 1.320 . S
C204 C205 1.405 . S
C204 H230 0.930 . S
C205 C200 1.479 . S
C205 C204 1.405 . S
C205 H231 0.931 . S
U206 O207 2.454 . S
U206 O208 2.458 . S
U206 C209 2.984 . S
U206 C210 2.847 . S
U206 C223 2.882 . S
U206 O224 2.441 . S
U206 O225 2.420 . S
U206 O226 2.455 . S
U206 O227 2.449 . S
O207 U206 2.454 . S
O207 C209 1.353 . S
O208 U206 2.458 . S
O208 C209 1.286 . S
C209 U206 2.984 . S
C209 O207 1.353 . S
C209 O208 1.286 . S
C209 C211 1.363 . S
C210 C200 1.465 . S
C210 U206 2.847 . S
C210 O224 1.249 . S
C210 O225 1.202 . S
C211 C209 1.363 . S
C211 C213 1.408 . S
C211 C216 1.342 . S
C212 C213 1.310 . S
C212 C215 1.461 . S
C212 H232 0.932 . S
C213 C211 1.408 . S
C213 C212 1.310 . S
C213 H233 0.930 . S
C214 C215 1.474 . S
C214 C216 1.285 . S
C214 H234 0.929 . S
C215 C212 1.461 . S
C215 C214 1.474 . S
C216 C211 1.342 . S
C216 C214 1.285 . S
C216 H235 0.930 . S
C217 C220 1.424 . S
C217 C222 1.245 . S
C217 C223 1.428 . S
C218 C221 1.260 . S
C218 C222 1.477 . S
C218 H236 0.932 . S
C219 C220 1.384 . S
C219 C221 1.479 . S
C219 H237 0.929 . S
C220 C217 1.424 . S
C220 C219 1.384 . S
C220 H238 0.928 . S
C221 C218 1.260 . S
C221 C219 1.479 . S
C222 C217 1.245 . S
C222 C218 1.477 . S
C222 H239 0.932 . S
C223 U206 2.882 . S
C223 C217 1.428 . S
C223 O226 1.301 . S
C223 O227 1.282 . S
O224 U206 2.441 . S
O224 C210 1.249 . S
O225 U206 2.420 . S
O225 C210 1.202 . S
O226 U206 2.455 . S
O226 C223 1.301 . S
O227 U206 2.449 . S
O227 C223 1.282 . S
H228 C201 0.931 . S
H229 C203 0.929 . S
H230 C204 0.930 . S
H231 C205 0.931 . S
H232 C212 0.932 . S
H233 C213 0.930 . S
H234 C214 0.929 . S
H235 C216 0.930 . S
H236 C218 0.932 . S
H237 C219 0.929 . S
H238 C220 0.928 . S
H239 C222 0.932 . S
C240 C241 1.264 . S
C240 C245 1.479 . S
C240 C250 1.465 . S
C241 C240 1.264 . S
C241 C243 1.339 . S
C241 H268 0.931 . S
C242 C243 1.395 . S
C242 C244 1.320 . S
C243 C241 1.339 . S
C243 C242 1.395 . S
C243 H269 0.929 . S
C244 C242 1.320 . S
C244 C245 1.405 . S
C244 H270 0.930 . S
C245 C240 1.479 . S
C245 C244 1.405 . S
C245 H271 0.931 . S
U246 O247 2.454 . S
U246 O248 2.458 . S
U246 C249 2.984 . S
U246 C250 2.847 . S
U246 C263 2.882 . S
U246 O264 2.441 . S
U246 O265 2.420 . S
U246 O266 2.455 . S
U246 O267 2.449 . S
O247 U246 2.454 . S
O247 C249 1.353 . S
O248 U246 2.458 . S
O248 C249 1.286 . S
C249 U246 2.984 . S
C249 O247 1.353 . S
C249 O248 1.286 . S
C249 C251 1.363 . S
C250 C240 1.465 . S
C250 U246 2.847 . S
C250 O264 1.249 . S
C250 O265 1.202 . S
C251 C249 1.363 . S
C251 C253 1.408 . S
C251 C256 1.342 . S
C252 C253 1.310 . S
C252 C255 1.461 . S
C252 H272 0.932 . S
C253 C251 1.408 . S
C253 C252 1.310 . S
C253 H273 0.930 . S
C254 C255 1.474 . S
C254 C256 1.285 . S
C254 H274 0.929 . S
C255 C252 1.461 . S
C255 C254 1.474 . S
C256 C251 1.342 . S
C256 C254 1.285 . S
C256 H275 0.930 . S
C257 C260 1.424 . S
C257 C262 1.245 . S
C257 C263 1.428 . S
C258 C261 1.260 . S
C258 C262 1.477 . S
C258 H276 0.932 . S
C259 C260 1.384 . S
C259 C261 1.479 . S
C259 H277 0.929 . S
C260 C257 1.424 . S
C260 C259 1.384 . S
C260 H278 0.928 . S
C261 C258 1.260 . S
C261 C259 1.479 . S
C262 C257 1.245 . S
C262 C258 1.477 . S
C262 H279 0.932 . S
C263 U246 2.882 . S
C263 C257 1.428 . S
C263 O266 1.301 . S
C263 O267 1.282 . S
O264 U246 2.441 . S
O264 C250 1.249 . S
O265 U246 2.420 . S
O265 C250 1.202 . S
O266 U246 2.455 . S
O266 C263 1.301 . S
O267 U246 2.449 . S
O267 C263 1.282 . S
H268 C241 0.931 . S
H269 C243 0.929 . S
H270 C244 0.930 . S
H271 C245 0.931 . S
H272 C252 0.932 . S
H273 C253 0.930 . S
H274 C254 0.929 . S
H275 C256 0.930 . S
H276 C258 0.932 . S
H277 C259 0.929 . S
H278 C260 0.928 . S
H279 C262 0.932 . S
C280 C281 1.264 . S
C280 C285 1.479 . S
C280 C290 1.465 . S
C281 C280 1.264 . S
C281 C283 1.339 . S
C281 H308 0.931 . S
C282 C283 1.395 . S
C282 C284 1.320 . S
C283 C281 1.339 . S
C283 C282 1.395 . S
C283 H309 0.929 . S
C284 C282 1.320 . S
C284 C285 1.405 . S
C284 H310 0.930 . S
C285 C280 1.479 . S
C285 C284 1.405 . S
C285 H311 0.931 . S
U286 O287 2.454 . S
U286 O288 2.458 . S
U286 C289 2.984 . S
U286 C290 2.847 . S
U286 C303 2.882 . S
U286 O304 2.441 . S
U286 O305 2.420 . S
U286 O306 2.455 . S
U286 O307 2.449 . S
O287 U286 2.454 . S
O287 C289 1.353 . S
O288 U286 2.458 . S
O288 C289 1.286 . S
C289 U286 2.984 . S
C289 O287 1.353 . S
C289 O288 1.286 . S
C289 C291 1.363 . S
C290 C280 1.465 . S
C290 U286 2.847 . S
C290 O304 1.249 . S
C290 O305 1.202 . S
C291 C289 1.363 . S
C291 C293 1.408 . S
C291 C296 1.342 . S
C292 C293 1.310 . S
C292 C295 1.461 . S
C292 H312 0.932 . S
C293 C291 1.408 . S
C293 C292 1.310 . S
C293 H313 0.930 . S
C294 C295 1.474 . S
C294 C296 1.285 . S
C294 H314 0.929 . S
C295 C292 1.461 . S
C295 C294 1.474 . S
C296 C291 1.342 . S
C296 C294 1.285 . S
C296 H315 0.930 . S
C297 C300 1.424 . S
C297 C302 1.245 . S
C297 C303 1.428 . S
C298 C301 1.260 . S
C298 C302 1.477 . S
C298 H316 0.932 . S
C299 C300 1.384 . S
C299 C301 1.479 . S
C299 H317 0.929 . S
C300 C297 1.424 . S
C300 C299 1.384 . S
C300 H318 0.928 . S
C301 C298 1.260 . S
C301 C299 1.479 . S
C302 C297 1.245 . S
C302 C298 1.477 . S
C302 H319 0.932 . S
C303 U286 2.882 . S
C303 C297 1.428 . S
C303 O306 1.301 . S
C303 O307 1.282 . S
O304 U286 2.441 . S
O304 C290 1.249 . S
O305 U286 2.420 . S
O305 C290 1.202 . S
O306 U286 2.455 . S
O306 C303 1.301 . S
O307 U286 2.449 . S
O307 C303 1.282 . S
H308 C281 0.931 . S
H309 C283 0.929 . S
H310 C284 0.930 . S
H311 C285 0.931 . S
H312 C292 0.932 . S
H313 C293 0.930 . S
H314 C294 0.929 . S
H315 C296 0.930 . S
H316 C298 0.932 . S
H317 C299 0.929 . S
H318 C300 0.928 . S
H319 C302 0.932 . S
C320 C321 1.386 . S
C320 C322 1.383 . S
C320 H336 0.951 . S
C321 C320 1.386 . S
C321 C325 1.383 . S
C322 C320 1.383 . S
C322 C323 1.402 . S
C322 H337 0.951 . S
C323 C322 1.402 . S
C323 C324 1.375 . S
C323 C326 1.481 . S
C324 C323 1.375 . S
C324 C325 1.367 . S
C324 H338 0.951 . S
C325 C321 1.383 . S
C325 C324 1.367 . S
C325 H339 0.950 . S
C326 C323 1.481 . S
C326 C327 1.297 . S
C326 H340 0.950 . S
C327 C326 1.297 . S
C327 C328 1.479 . S
C327 H341 0.950 . S
C328 C327 1.479 . S
C328 C329 1.375 . S
C328 C334 1.404 . S
C329 C328 1.375 . S
C329 C330 1.369 . S
C329 H342 0.950 . S
C330 C329 1.369 . S
C330 C331 1.392 . S
C330 H343 0.951 . S
C331 C330 1.392 . S
C331 C333 1.384 . S
H332 C334 0.949 . S
C333 C331 1.384 . S
C333 C334 1.385 . S
C333 H335 0.950 . S
C334 C328 1.404 . S
C334 H332 0.949 . S
C334 C333 1.385 . S
H335 C333 0.950 . S
H336 C320 0.951 . S
H337 C322 0.951 . S
H338 C324 0.951 . S
H339 C325 0.950 . S
H340 C326 0.950 . S
H341 C327 0.950 . S
H342 C329 0.950 . S
H343 C330 0.951 . S
C344 C345 1.386 . S
C344 C346 1.383 . S
C344 H360 0.951 . S
C345 C344 1.386 . S
C345 C349 1.383 . S
C346 C344 1.383 . S
C346 C347 1.402 . S
C346 H361 0.951 . S
C347 C346 1.402 . S
C347 C348 1.375 . S
C347 C350 1.481 . S
C348 C347 1.375 . S
C348 C349 1.367 . S
C348 H362 0.951 . S
C349 C345 1.383 . S
C349 C348 1.367 . S
C349 H363 0.950 . S
C350 C347 1.481 . S
C350 C351 1.297 . S
C350 H364 0.950 . S
C351 C350 1.297 . S
C351 C352 1.479 . S
C351 H365 0.950 . S
C352 C351 1.479 . S
C352 C353 1.375 . S
C352 C358 1.404 . S
C353 C352 1.375 . S
C353 C354 1.369 . S
C353 H366 0.950 . S
C354 C353 1.369 . S
C354 C355 1.392 . S
C354 H367 0.951 . S
C355 C354 1.392 . S
C355 C357 1.384 . S
H356 C358 0.949 . S
C357 C355 1.384 . S
C357 C358 1.385 . S
C357 H359 0.950 . S
C358 C352 1.404 . S
C358 H356 0.949 . S
C358 C357 1.385 . S
H359 C357 0.950 . S
H360 C344 0.951 . S
H361 C346 0.951 . S
H362 C348 0.951 . S
H363 C349 0.950 . S
H364 C350 0.950 . S
H365 C351 0.950 . S
H366 C353 0.950 . S
H367 C354 0.951 . S
C368 C369 1.386 . S
C368 C370 1.383 . S
C368 H384 0.951 . S
C369 C368 1.386 . S
C369 C373 1.383 . S
C370 C368 1.383 . S
C370 C371 1.402 . S
C370 H385 0.951 . S
C371 C370 1.402 . S
C371 C372 1.375 . S
C371 C374 1.481 . S
C372 C371 1.375 . S
C372 C373 1.367 . S
C372 H386 0.951 . S
C373 C369 1.383 . S
C373 C372 1.367 . S
C373 H387 0.950 . S
C374 C371 1.481 . S
C374 C375 1.297 . S
C374 H388 0.950 . S
C375 C374 1.297 . S
C375 C376 1.479 . S
C375 H389 0.950 . S
C376 C375 1.479 . S
C376 C377 1.375 . S
C376 C382 1.404 . S
C377 C376 1.375 . S
C377 C378 1.369 . S
C377 H390 0.950 . S
C378 C377 1.369 . S
C378 C379 1.392 . S
C378 H391 0.951 . S
C379 C378 1.392 . S
C379 C381 1.384 . S
H380 C382 0.949 . S
C381 C379 1.384 . S
C381 C382 1.385 . S
C381 H383 0.950 . S
C382 C376 1.404 . S
C382 H380 0.949 . S
C382 C381 1.385 . S
H383 C381 0.950 . S
H384 C368 0.951 . S
H385 C370 0.951 . S
H386 C372 0.951 . S
H387 C373 0.950 . S
H388 C374 0.950 . S
H389 C375 0.950 . S
H390 C377 0.950 . S
H391 C378 0.951 . S
C392 C393 1.386 . S
C392 C394 1.383 . S
C392 H408 0.951 . S
C393 C392 1.386 . S
C393 C397 1.383 . S
C394 C392 1.383 . S
C394 C395 1.402 . S
C394 H409 0.951 . S
C395 C394 1.402 . S
C395 C396 1.375 . S
C395 C398 1.481 . S
C396 C395 1.375 . S
C396 C397 1.367 . S
C396 H410 0.951 . S
C397 C393 1.383 . S
C397 C396 1.367 . S
C397 H411 0.950 . S
C398 C395 1.481 . S
C398 C399 1.297 . S
C398 H412 0.950 . S
C399 C398 1.297 . S
C399 C400 1.479 . S
C399 H413 0.950 . S
C400 C399 1.479 . S
C400 C401 1.375 . S
C400 C406 1.404 . S
C401 C400 1.375 . S
C401 C402 1.369 . S
C401 H414 0.950 . S
C402 C401 1.369 . S
C402 C403 1.392 . S
C402 H415 0.951 . S
C403 C402 1.392 . S
C403 C405 1.384 . S
H404 C406 0.949 . S
C405 C403 1.384 . S
C405 C406 1.385 . S
C405 H407 0.950 . S
C406 C400 1.404 . S
C406 H404 0.949 . S
C406 C405 1.385 . S
H407 C405 0.950 . S
H408 C392 0.951 . S
H409 C394 0.951 . S
H410 C396 0.951 . S
H411 C397 0.950 . S
H412 C398 0.950 . S
H413 C399 0.950 . S
H414 C401 0.950 . S
H415 C402 0.951 . S
C416 C417 1.386 . S
C416 C418 1.383 . S
C416 H432 0.951 . S
C417 C416 1.386 . S
C417 C421 1.383 . S
C418 C416 1.383 . S
C418 C419 1.402 . S
C418 H433 0.951 . S
C419 C418 1.402 . S
C419 C420 1.375 . S
C419 C422 1.481 . S
C420 C419 1.375 . S
C420 C421 1.367 . S
C420 H434 0.951 . S
C421 C417 1.383 . S
C421 C420 1.367 . S
C421 H435 0.950 . S
C422 C419 1.481 . S
C422 C423 1.291 1_565 S
C422 H436 0.950 . S
C423 C422 1.291 1_545 S
C423 C424 1.483 . S
C423 H437 0.952 . S
C424 C423 1.483 . S
C424 C425 1.375 . S
C424 C430 1.404 . S
C425 C424 1.375 . S
C425 C426 1.369 . S
C425 H438 0.950 . S
C426 C425 1.369 . S
C426 C427 1.392 . S
C426 H439 0.951 . S
C427 C426 1.392 . S
C427 C429 1.384 . S
H428 C430 0.949 1_565 S
C429 C427 1.384 . S
C429 C430 1.385 . S
C429 H431 0.950 . S
C430 C424 1.404 . S
C430 H428 0.949 1_545 S
C430 C429 1.385 . S
H431 C429 0.950 . S
H432 C416 0.951 . S
H433 C418 0.951 . S
H434 C420 0.951 . S
H435 C421 0.950 . S
H436 C422 0.950 . S
H437 C423 0.952 . S
H438 C425 0.950 . S
H439 C426 0.951 . S
C440 C441 1.386 . S
C440 C442 1.383 . S
C440 H456 0.951 . S
C441 C440 1.386 . S
C441 C445 1.383 . S
C442 C440 1.383 . S
C442 C443 1.402 . S
C442 H457 0.951 . S
C443 C442 1.402 . S
C443 C444 1.375 . S
C443 C446 1.481 . S
C444 C443 1.375 . S
C444 C445 1.367 . S
C444 H458 0.951 . S
C445 C441 1.383 . S
C445 C444 1.367 . S
C445 H459 0.950 . S
C446 C443 1.481 . S
C446 C447 1.297 . S
C446 H460 0.950 . S
C447 C446 1.297 . S
C447 C448 1.479 . S
C447 H461 0.950 . S
C448 C447 1.479 . S
C448 C449 1.375 . S
C448 C454 1.404 . S
C449 C448 1.375 . S
C449 C450 1.369 . S
C449 H462 0.950 . S
C450 C449 1.369 . S
C450 C451 1.392 . S
C450 H463 0.951 . S
C451 C450 1.392 . S
C451 C453 1.384 . S
H452 C454 0.949 . S
C453 C451 1.384 . S
C453 C454 1.385 . S
C453 H455 0.950 . S
C454 C448 1.404 . S
C454 H452 0.949 . S
C454 C453 1.385 . S
H455 C453 0.950 . S
H456 C440 0.951 . S
H457 C442 0.951 . S
H458 C444 0.951 . S
H459 C445 0.950 . S
H460 C446 0.950 . S
H461 C447 0.950 . S
H462 C449 0.950 . S
H463 C450 0.951 . S
C464 C465 1.386 . S
C464 C466 1.383 . S
C464 H480 0.951 . S
C465 C464 1.386 . S
C465 C469 1.383 . S
C466 C464 1.383 . S
C466 C467 1.402 . S
C466 H481 0.951 . S
C467 C466 1.402 . S
C467 C468 1.375 . S
C467 C470 1.481 1_545 S
C468 C467 1.375 . S
C468 C469 1.367 . S
C468 H482 0.951 1_545 S
C469 C465 1.383 . S
C469 C468 1.367 . S
C469 H483 0.950 . S
C470 C467 1.481 1_565 S
C470 C471 1.297 1_565 S
C470 H484 0.950 . S
C471 C470 1.297 1_545 S
C471 C472 1.479 1_545 S
C471 H485 0.950 . S
C472 C471 1.479 1_565 S
C472 C473 1.375 . S
C472 C478 1.404 . S
C473 C472 1.375 . S
C473 C474 1.369 . S
C473 H486 0.950 1_565 S
C474 C473 1.369 . S
C474 C475 1.392 . S
C474 H487 0.951 . S
C475 C474 1.392 . S
C475 C477 1.384 . S
H476 C478 0.949 . S
C477 C475 1.384 . S
C477 C478 1.385 . S
C477 H479 0.950 . S
C478 C472 1.404 . S
C478 H476 0.949 . S
C478 C477 1.385 . S
H479 C477 0.950 . S
H480 C464 0.951 . S
H481 C466 0.951 . S
H482 C468 0.951 1_565 S
H483 C469 0.950 . S
H484 C470 0.950 . S
H485 C471 0.950 . S
H486 C473 0.950 1_545 S
H487 C474 0.951 . S
C488 C489 1.386 . S
C488 C490 1.383 . S
C488 H504 0.951 . S
C489 C488 1.386 . S
C489 C493 1.383 . S
C490 C488 1.383 . S
C490 C491 1.402 . S
C490 H505 0.951 . S
C491 C490 1.402 . S
C491 C492 1.375 . S
C491 C494 1.481 . S
C492 C491 1.375 . S
C492 C493 1.367 . S
C492 H506 0.951 . S
C493 C489 1.383 . S
C493 C492 1.367 . S
C493 H507 0.950 . S
C494 C491 1.481 . S
C494 C495 1.297 . S
C494 H508 0.950 . S
C495 C494 1.297 . S
C495 C496 1.479 . S
C495 H509 0.950 . S
C496 C495 1.479 . S
C496 C497 1.375 . S
C496 C502 1.404 . S
C497 C496 1.375 . S
C497 C498 1.369 . S
C497 H510 0.950 . S
C498 C497 1.369 . S
C498 C499 1.392 . S
C498 H511 0.951 . S
C499 C498 1.392 . S
C499 C501 1.384 . S
H500 C502 0.949 . S
C501 C499 1.384 . S
C501 C502 1.385 . S
C501 H503 0.950 . S
C502 C496 1.404 . S
C502 H500 0.949 . S
C502 C501 1.385 . S
H503 C501 0.950 . S
H504 C488 0.951 . S
H505 C490 0.951 . S
H506 C492 0.951 . S
H507 C493 0.950 . S
H508 C494 0.950 . S
H509 C495 0.950 . S
H510 C497 0.950 . S
H511 C498 0.951 . S
C512 C513 1.386 . S
C512 C514 1.383 . S
C512 H528 0.951 . S
C513 C512 1.386 . S
C513 C517 1.383 1_556 S
C514 C512 1.383 . S
C514 C515 1.402 1_556 S
C514 H529 0.957 . S
C515 C514 1.402 1_554 S
C515 C516 1.375 . S
C515 C518 1.481 . S
C516 C515 1.375 . S
C516 C517 1.367 . S
C516 H530 0.951 . S
C517 C513 1.383 1_554 S
C517 C516 1.367 . S
C517 H531 0.950 . S
C518 C515 1.481 . S
C518 C519 1.285 1_665 S
C518 H532 0.950 . S
C519 C518 1.285 1_445 S
C519 C520 1.502 . S
C519 H533 0.939 1_454 S
C520 C519 1.502 . S
C520 C521 1.375 1_554 S
C520 C526 1.404 . S
C521 C520 1.375 1_556 S
C521 C522 1.369 . S
C521 H534 0.950 . S
C522 C521 1.369 . S
C522 C523 1.392 1_556 S
C522 H535 0.951 . S
C523 C522 1.392 1_554 S
C523 C525 1.384 . S
H524 C526 0.949 . S
C525 C523 1.384 . S
C525 C526 1.385 . S
C525 H527 0.950 . S
C526 C520 1.404 . S
C526 H524 0.949 . S
C526 C525 1.385 . S
H527 C525 0.950 . S
H528 C512 0.951 . S
H529 C514 0.957 . S
H530 C516 0.951 . S
H531 C517 0.950 . S
H532 C518 0.950 . S
H533 C519 0.939 1_656 S
H534 C521 0.950 . S
H535 C522 0.951 . S
C536 C537 1.386 . S
C536 C538 1.383 . S
C536 H552 0.951 . S
C537 C536 1.386 . S
C537 C541 1.383 1_554 S
C538 C536 1.383 . S
C538 C539 1.402 . S
C538 H553 0.951 . S
C539 C538 1.402 . S
C539 C540 1.375 1_554 S
C539 C542 1.481 1_554 S
C540 C539 1.375 1_556 S
C540 C541 1.367 . S
C540 H554 0.951 . S
C541 C537 1.383 1_556 S
C541 C540 1.367 . S
C541 H555 0.950 . S
C542 C539 1.481 1_556 S
C542 C543 1.297 1_556 S
C542 H556 0.950 . S
C543 C542 1.297 1_554 S
C543 C544 1.479 1_564 S
C543 H557 0.950 . S
C544 C543 1.479 1_546 S
C544 C545 1.375 1_556 S
C544 C550 1.404 . S
C545 C544 1.375 1_554 S
C545 C546 1.369 . S
C545 H558 0.950 . S
C546 C545 1.369 . S
C546 C547 1.392 1_554 S
C546 H559 0.951 . S
C547 C546 1.392 1_556 S
C547 C549 1.384 . S
H548 C550 0.949 1_565 S
C549 C547 1.384 . S
C549 C550 1.385 . S
C549 H551 0.950 . S
C550 C544 1.404 . S
C550 H548 0.949 1_545 S
C550 C549 1.385 . S
H551 C549 0.950 . S
H552 C536 0.951 . S
H553 C538 0.951 . S
H554 C540 0.951 . S
H555 C541 0.950 . S
H556 C542 0.950 . S
H557 C543 0.950 . S
H558 C545 0.950 . S
H559 C546 0.951 . S
C560 C561 1.386 . S
C560 C562 1.383 . S
C560 H576 0.951 . S
C561 C560 1.386 . S
C561 C565 1.383 . S
C562 C560 1.383 . S
C562 C563 1.402 . S
C562 H577 0.951 . S
C563 C562 1.402 . S
C563 C564 1.375 . S
C563 C566 1.481 . S
C564 C563 1.375 . S
C564 C565 1.367 . S
C564 H578 0.951 . S
C565 C561 1.383 . S
C565 C564 1.367 . S
C565 H579 0.950 . S
C566 C563 1.481 . S
C566 C567 1.297 1_655 S
C566 H580 0.950 . S
C567 C566 1.297 1_455 S
C567 C568 1.479 . S
C567 H581 0.950 . S
C568 C567 1.479 . S
C568 C569 1.375 . S
C568 C574 1.404 . S
C569 C568 1.375 . S
C569 C570 1.369 . S
C569 H582 0.950 . S
C570 C569 1.369 . S
C570 C571 1.392 . S
C570 H583 0.951 . S
C571 C570 1.392 . S
C571 C573 1.384 . S
H572 C574 0.949 . S
C573 C571 1.384 . S
C573 C574 1.385 . S
C573 H575 0.950 . S
C574 C568 1.404 . S
C574 H572 0.949 . S
C574 C573 1.385 . S
H575 C573 0.950 . S
H576 C560 0.951 . S
H577 C562 0.951 . S
H578 C564 0.951 . S
H579 C565 0.950 . S
H580 C566 0.950 . S
H581 C567 0.950 . S
H582 C569 0.950 . S
H583 C570 0.951 . S
C584 C585 1.386 . S
C584 C586 1.383 . S
C584 H600 0.951 . S
C585 C584 1.386 . S
C585 C589 1.383 . S
C586 C584 1.383 . S
C586 C587 1.402 . S
C586 H601 0.951 . S
C587 C586 1.402 . S
C587 C588 1.375 . S
C587 C590 1.481 . S
C588 C587 1.375 . S
C588 C589 1.367 . S
C588 H602 0.951 . S
C589 C585 1.383 . S
C589 C588 1.367 . S
C589 H603 0.950 . S
C590 C587 1.481 . S
C590 C591 1.297 . S
C590 H604 0.950 . S
C591 C590 1.297 . S
C591 C592 1.479 . S
C591 H605 0.950 . S
C592 C591 1.479 . S
C592 C593 1.375 . S
C592 C598 1.404 . S
C593 C592 1.375 . S
C593 C594 1.369 . S
C593 H606 0.950 . S
C594 C593 1.369 . S
C594 C595 1.392 . S
C594 H607 0.951 . S
C595 C594 1.392 . S
C595 C597 1.384 . S
H596 C598 0.949 . S
C597 C595 1.384 . S
C597 C598 1.385 . S
C597 H599 0.950 . S
C598 C592 1.404 . S
C598 H596 0.949 . S
C598 C597 1.385 . S
H599 C597 0.950 . S
H600 C584 0.951 . S
H601 C586 0.951 . S
H602 C588 0.951 . S
H603 C589 0.950 . S
H604 C590 0.950 . S
H605 C591 0.950 . S
H606 C593 0.950 . S
H607 C594 0.951 . S
C321 C15 1.497 . S
C331 C95 1.487 . S
C345 C55 1.497 . S
C355 C135 1.487 . S
C369 C175 1.496 . S
C379 C255 1.488 . S
C393 C295 1.495 . S
C403 C215 1.489 . S
C417 C61 1.486 . S
C427 C21 1.461 . S
C441 C141 1.485 . S
C451 C101 1.494 . S
C465 C221 1.494 . S
C475 C181 1.490 . S
C489 C301 1.498 . S
C499 C261 1.469 . S
C513 C162 1.497 . S
C523 C2 1.468 . S
C537 C42 1.470 . S
C547 C202 1.493 . S
C561 C242 1.489 . S
C571 C82 1.451 . S
C585 C122 1.469 . S
C595 C282 1.492 . S
