# Generated by pormake.
# Topology umk, (4)-cn, num edge types: 1
# Building blocks:
#     Node 0, Type 0, BuildingBlock: AZAVOO_clean_sbu_0, # of connection points: 4
#     Node 1, Type 0, BuildingBlock: AZAVOO_clean_sbu_0, # of connection points: 4
#     Node 2, Type 0, BuildingBlock: AZAVOO_clean_sbu_0, # of connection points: 4
#     Node 3, Type 0, BuildingBlock: AZAVOO_clean_sbu_0, # of connection points: 4
#     Node 4, Type 0, BuildingBlock: AZAVOO_clean_sbu_0, # of connection points: 4
#     Node 5, Type 0, BuildingBlock: AZAVOO_clean_sbu_0, # of connection points: 4
#     Node 6, Type 0, BuildingBlock: AZAVOO_clean_sbu_0, # of connection points: 4
#     Node 7, Type 0, BuildingBlock: AZAVOO_clean_sbu_0, # of connection points: 4
#     Node 8, Type 0, BuildingBlock: AZAVOO_clean_sbu_0, # of connection points: 4
#     Node 9, Type 0, BuildingBlock: AZAVOO_clean_sbu_0, # of connection points: 4
#     Node 10, Type 0, BuildingBlock: AZAVOO_clean_sbu_0, # of connection points: 4
#     Node 11, Type 0, BuildingBlock: AZAVOO_clean_sbu_0, # of connection points: 4
#     Node 12, Type 0, BuildingBlock: AZAVOO_clean_sbu_0, # of connection points: 4
#     Node 13, Type 0, BuildingBlock: AZAVOO_clean_sbu_0, # of connection points: 4
#     Node 14, Type 0, BuildingBlock: AZAVOO_clean_sbu_0, # of connection points: 4
#     Node 15, Type 0, BuildingBlock: AZAVOO_clean_sbu_0, # of connection points: 4
#     Node 16, Type 0, BuildingBlock: AZAVOO_clean_sbu_0, # of connection points: 4
#     Node 17, Type 0, BuildingBlock: AZAVOO_clean_sbu_0, # of connection points: 4
#     Node 18, Type 0, BuildingBlock: AZAVOO_clean_sbu_0, # of connection points: 4
#     Node 19, Type 0, BuildingBlock: AZAVOO_clean_sbu_0, # of connection points: 4
#     Node 20, Type 0, BuildingBlock: AZAVOO_clean_sbu_0, # of connection points: 4
#     Node 21, Type 0, BuildingBlock: AZAVOO_clean_sbu_0, # of connection points: 4
#     Node 22, Type 0, BuildingBlock: AZAVOO_clean_sbu_0, # of connection points: 4
#     Node 23, Type 0, BuildingBlock: AZAVOO_clean_sbu_0, # of connection points: 4
#     Edge 24, Type (0, 0), None
#     Edge 25, Type (0, 0), None
#     Edge 26, Type (0, 0), None
#     Edge 27, Type (0, 0), None
#     Edge 28, Type (0, 0), None
#     Edge 29, Type (0, 0), None
#     Edge 30, Type (0, 0), None
#     Edge 31, Type (0, 0), None
#     Edge 32, Type (0, 0), None
#     Edge 33, Type (0, 0), None
#     Edge 34, Type (0, 0), None
#     Edge 35, Type (0, 0), None
#     Edge 36, Type (0, 0), None
#     Edge 37, Type (0, 0), None
#     Edge 38, Type (0, 0), None
#     Edge 39, Type (0, 0), None
#     Edge 40, Type (0, 0), None
#     Edge 41, Type (0, 0), None
#     Edge 42, Type (0, 0), None
#     Edge 43, Type (0, 0), None
#     Edge 44, Type (0, 0), None
#     Edge 45, Type (0, 0), None
#     Edge 46, Type (0, 0), None
#     Edge 47, Type (0, 0), None
#     Edge 48, Type (0, 0), None
#     Edge 49, Type (0, 0), None
#     Edge 50, Type (0, 0), None
#     Edge 51, Type (0, 0), None
#     Edge 52, Type (0, 0), None
#     Edge 53, Type (0, 0), None
#     Edge 54, Type (0, 0), None
#     Edge 55, Type (0, 0), None
#     Edge 56, Type (0, 0), None
#     Edge 57, Type (0, 0), None
#     Edge 58, Type (0, 0), None
#     Edge 59, Type (0, 0), None
#     Edge 60, Type (0, 0), None
#     Edge 61, Type (0, 0), None
#     Edge 62, Type (0, 0), None
#     Edge 63, Type (0, 0), None
#     Edge 64, Type (0, 0), None
#     Edge 65, Type (0, 0), None
#     Edge 66, Type (0, 0), None
#     Edge 67, Type (0, 0), None
#     Edge 68, Type (0, 0), None
#     Edge 69, Type (0, 0), None
#     Edge 70, Type (0, 0), None
#     Edge 71, Type (0, 0), None
# Relax obj value: 0.155
# Max RMSD: 0.177
# Mean RMSD: 0.177
data_MOF--net-umk--node1-AZAVOO_clean_sbu_0--edge1-none
_symmetry_space_group_name_H-M    P1
_symmetry_Int_Tables_number       1
_symmetry_cell_setting            triclinic
loop_
_symmetry_equiv_pos_as_xyz
'x, y, z'
_cell_length_a     30.317249
_cell_length_b     30.318271
_cell_length_c     20.45082
_cell_angle_alpha  90.00137
_cell_angle_beta   90.001058
_cell_angle_gamma 120.00392
loop_
_atom_site_label
_atom_site_type_symbol
_atom_site_fract_x
_atom_site_fract_y
_atom_site_fract_z
_atom_type_partial_charge
Mg0 Mg 0.30482 0.44605 0.08618 0.0
O1 O 0.36817 0.50984 0.02093 0.0
O2 O 0.44424 0.52248 0.05397 0.0
Mg3 Mg 0.42809 0.49696 0.15794 0.0
C4 C 0.41628 0.52902 0.01324 0.0
C5 C 0.21107 0.40983 0.00409 0.0
O6 O 0.20878 0.36686 0.0205 0.0
O7 O 0.30102 0.49793 0.16834 0.0
O8 O 0.38147 0.53728 0.15509 0.0
O9 O 0.31803 0.39059 0.03013 0.0
O10 O 0.35801 0.4256 0.12318 0.0
C11 C 0.34454 0.52338 0.19438 0.0
C12 C 0.35125 0.39613 0.07371 0.0
O13 O 0.24655 0.45166 0.02613 0.0
Mg14 Mg 0.84612 0.31115 0.58619 0.0
O15 O 0.84567 0.37448 0.52094 0.0
O16 O 0.90911 0.45055 0.55398 0.0
Mg17 Mg 0.91848 0.43441 0.65795 0.0
C18 C 0.8746 0.4226 0.51324 0.0
C19 C 0.78859 0.21739 0.50411 0.0
O20 O 0.82928 0.21512 0.52053 0.0
O21 O 0.79043 0.30734 0.66834 0.0
O22 O 0.83154 0.38779 0.65509 0.0
O23 O 0.91478 0.32435 0.53014 0.0
O24 O 0.91976 0.36434 0.62318 0.0
C25 C 0.80851 0.35087 0.69438 0.0
C26 C 0.94246 0.35757 0.57372 0.0
O27 O 0.78224 0.25287 0.52614 0.0
Mg28 Mg 0.52235 0.85244 0.08619 0.0
O29 O 0.45856 0.85199 0.02094 0.0
O30 O 0.44593 0.91543 0.05398 0.0
Mg31 Mg 0.47144 0.92479 0.15795 0.0
C32 C 0.43938 0.88093 0.01324 0.0
C33 C 0.55858 0.79492 0.00411 0.0
O34 O 0.60154 0.8356 0.02053 0.0
O35 O 0.47046 0.79675 0.16834 0.0
O36 O 0.43112 0.83786 0.15508 0.0
O37 O 0.57781 0.92111 0.03014 0.0
O38 O 0.5428 0.92608 0.12318 0.0
C39 C 0.44501 0.81483 0.19438 0.0
C40 C 0.57227 0.94879 0.07372 0.0
O41 O 0.51674 0.78857 0.02613 0.0
Mg42 Mg 0.65727 0.52867 0.58619 0.0
O43 O 0.59392 0.46488 0.52094 0.0
O44 O 0.51785 0.45225 0.55397 0.0
Mg45 Mg 0.534 0.47776 0.65795 0.0
C46 C 0.54581 0.4457 0.51324 0.0
C47 C 0.75102 0.56489 0.5041 0.0
O48 O 0.75331 0.60786 0.52052 0.0
O49 O 0.66107 0.47679 0.66834 0.0
O50 O 0.58062 0.43745 0.65508 0.0
O51 O 0.64406 0.58413 0.53013 0.0
O52 O 0.60409 0.54912 0.62318 0.0
C53 C 0.61754 0.45134 0.69438 0.0
C54 C 0.61084 0.57859 0.57371 0.0
O55 O 0.71553 0.52306 0.52613 0.0
Mg56 Mg 0.11597 0.66358 0.0862 0.0
O57 O 0.11641 0.60024 0.02094 0.0
O58 O 0.05298 0.52417 0.05397 0.0
Mg59 Mg 0.04361 0.54031 0.15794 0.0
C60 C 0.08748 0.55213 0.01324 0.0
C61 C 0.17349 0.75733 0.00411 0.0
O62 O 0.13281 0.7596 0.02053 0.0
O63 O 0.17166 0.66738 0.16835 0.0
O64 O 0.13054 0.58693 0.15508 0.0
O65 O 0.0473 0.65037 0.03015 0.0
O66 O 0.04233 0.61039 0.12319 0.0
C67 C 0.15358 0.62386 0.19439 0.0
C68 C 0.01962 0.61715 0.07372 0.0
O69 O 0.17985 0.72185 0.02614 0.0
Mg70 Mg 0.43974 0.12228 0.58619 0.0
O71 O 0.50353 0.12273 0.52093 0.0
O72 O 0.51616 0.0593 0.55397 0.0
Mg73 Mg 0.49065 0.04993 0.65795 0.0
C74 C 0.5227 0.09379 0.51324 0.0
C75 C 0.40351 0.1798 0.50409 0.0
O76 O 0.36055 0.13911 0.52051 0.0
O77 O 0.49163 0.17797 0.66834 0.0
O78 O 0.53097 0.13686 0.65508 0.0
O79 O 0.38428 0.05361 0.53014 0.0
O80 O 0.41929 0.04865 0.62318 0.0
C81 C 0.51707 0.1599 0.69438 0.0
C82 C 0.38982 0.02593 0.57372 0.0
O83 O 0.44534 0.18615 0.52613 0.0
Mg84 Mg 0.52236 0.66359 0.87804 0.0
O85 O 0.45856 0.60023 0.94327 0.0
O86 O 0.44593 0.52417 0.91021 0.0
Mg87 Mg 0.47146 0.54033 0.80625 0.0
C88 C 0.43936 0.55211 0.95094 0.0
C89 C 0.55858 0.75733 0.96015 0.0
O90 O 0.60155 0.75962 0.94374 0.0
O91 O 0.47049 0.6674 0.79588 0.0
O92 O 0.43114 0.58695 0.80912 0.0
O93 O 0.57782 0.65037 0.93409 0.0
O94 O 0.54281 0.61041 0.84104 0.0
C95 C 0.44504 0.62388 0.76983 0.0
C96 C 0.57228 0.61716 0.8905 0.0
O97 O 0.51675 0.72185 0.93811 0.0
Mg98 Mg 0.84612 0.52866 0.37803 0.0
O99 O 0.84568 0.46487 0.44327 0.0
O100 O 0.90911 0.45224 0.41021 0.0
Mg101 Mg 0.91847 0.47776 0.30625 0.0
C102 C 0.87459 0.44567 0.45094 0.0
C103 C 0.78861 0.56489 0.46014 0.0
O104 O 0.82929 0.60785 0.44373 0.0
O105 O 0.79043 0.47679 0.29587 0.0
O106 O 0.83153 0.43745 0.30912 0.0
O107 O 0.9148 0.58412 0.43408 0.0
O108 O 0.91975 0.54912 0.34102 0.0
C109 C 0.8085 0.45134 0.26983 0.0
C110 C 0.94247 0.57858 0.39049 0.0
O111 O 0.78225 0.52306 0.4381 0.0
Mg112 Mg 0.30482 0.85244 0.87803 0.0
O113 O 0.36817 0.852 0.94327 0.0
O114 O 0.44424 0.91544 0.91022 0.0
Mg115 Mg 0.42808 0.9248 0.80625 0.0
C116 C 0.41629 0.88092 0.95094 0.0
C117 C 0.21108 0.79491 0.96014 0.0
O118 O 0.20879 0.8356 0.94374 0.0
O119 O 0.301 0.79675 0.79587 0.0
O120 O 0.38146 0.83787 0.80912 0.0
O121 O 0.31803 0.92111 0.93408 0.0
O122 O 0.358 0.92608 0.84103 0.0
C123 C 0.34453 0.81483 0.76983 0.0
C124 C 0.35124 0.94879 0.89049 0.0
O125 O 0.24655 0.78857 0.93809 0.0
Mg126 Mg 0.43972 0.31113 0.37804 0.0
O127 O 0.50352 0.37449 0.44327 0.0
O128 O 0.51615 0.45055 0.41021 0.0
Mg129 Mg 0.49062 0.43438 0.30625 0.0
C130 C 0.52272 0.42261 0.45094 0.0
C131 C 0.4035 0.21738 0.46014 0.0
O132 O 0.36054 0.21509 0.44372 0.0
O133 O 0.49159 0.30731 0.29587 0.0
O134 O 0.53094 0.38777 0.30913 0.0
O135 O 0.38426 0.32434 0.43408 0.0
O136 O 0.41926 0.3643 0.34103 0.0
C137 C 0.51704 0.35084 0.26983 0.0
C138 C 0.3898 0.35755 0.3905 0.0
O139 O 0.44533 0.25287 0.4381 0.0
Mg140 Mg 0.11596 0.44605 0.87803 0.0
O141 O 0.11641 0.50985 0.94327 0.0
O142 O 0.05298 0.52248 0.91021 0.0
Mg143 Mg 0.04361 0.49695 0.80624 0.0
C144 C 0.08749 0.52905 0.95093 0.0
C145 C 0.17348 0.40983 0.96013 0.0
O146 O 0.1328 0.36687 0.94371 0.0
O147 O 0.17165 0.49793 0.79587 0.0
O148 O 0.13055 0.53727 0.80912 0.0
O149 O 0.04729 0.3906 0.93408 0.0
O150 O 0.04233 0.4256 0.84102 0.0
C151 C 0.15358 0.52337 0.76983 0.0
C152 C 0.01961 0.39613 0.89049 0.0
O153 O 0.17983 0.45166 0.93809 0.0
Mg154 Mg 0.65726 0.12228 0.37803 0.0
O155 O 0.59391 0.12272 0.44327 0.0
O156 O 0.51784 0.05928 0.41021 0.0
Mg157 Mg 0.534 0.04991 0.30625 0.0
C158 C 0.54579 0.0938 0.45093 0.0
C159 C 0.75101 0.1798 0.46014 0.0
O160 O 0.75329 0.13912 0.44373 0.0
O161 O 0.66108 0.17796 0.29587 0.0
O162 O 0.58062 0.13685 0.30912 0.0
O163 O 0.64405 0.05361 0.43408 0.0
O164 O 0.60408 0.04864 0.34103 0.0
C165 C 0.61755 0.15988 0.26983 0.0
C166 C 0.61084 0.02593 0.3905 0.0
O167 O 0.71553 0.18615 0.43809 0.0
Mg168 Mg 0.65225 0.54304 0.88585 0.0
O169 O 0.59245 0.48002 0.95267 0.0
O170 O 0.51589 0.45112 0.90716 0.0
Mg171 Mg 0.52258 0.49696 0.81631 0.0
C172 C 0.54436 0.44987 0.95197 0.0
C173 C 0.75592 0.57927 0.96349 0.0
O174 O 0.75881 0.62303 0.9503 0.0
O175 O 0.64696 0.4891 0.80093 0.0
O176 O 0.57014 0.47081 0.76479 0.0
O177 O 0.63728 0.60158 0.93676 0.0
O178 O 0.59601 0.55887 0.84961 0.0
C179 C 0.61067 0.4686 0.75899 0.0
C180 C 0.60255 0.59153 0.89321 0.0
O181 O 0.71727 0.53841 0.94314 0.0
Mg182 Mg 0.09657 0.65856 0.38584 0.0
O183 O 0.09979 0.59877 0.45267 0.0
O184 O 0.05212 0.5222 0.40715 0.0
Mg185 Mg 0.01298 0.52889 0.3163 0.0
C186 C 0.08185 0.55068 0.45197 0.0
C187 C 0.16401 0.76222 0.46348 0.0
O188 O 0.12313 0.7651 0.4503 0.0
O189 O 0.14523 0.65327 0.30093 0.0
O190 O 0.0867 0.57646 0.26478 0.0
O191 O 0.02306 0.64359 0.43675 0.0
O192 O 0.0245 0.60232 0.3496 0.0
C193 C 0.12944 0.61698 0.25899 0.0
C194 C -0.00163 0.60885 0.3932 0.0
O195 O 0.16622 0.72358 0.44313 0.0
Mg196 Mg 0.42536 0.10289 0.88584 0.0
O197 O 0.48838 0.10611 0.95266 0.0
O198 O 0.51727 0.05844 0.90715 0.0
Mg199 Mg 0.47143 0.0193 0.81629 0.0
C200 C 0.51853 0.08816 0.95197 0.0
C201 C 0.38913 0.17031 0.96349 0.0
O202 O 0.34537 0.12943 0.95031 0.0
O203 O 0.4793 0.15154 0.80093 0.0
O204 O 0.49759 0.09302 0.76478 0.0
O205 O 0.36682 0.02937 0.93675 0.0
O206 O 0.40952 0.03081 0.84959 0.0
C207 C 0.49981 0.13576 0.75899 0.0
C208 C 0.37687 0.00469 0.89319 0.0
O209 O 0.43 0.17254 0.94313 0.0
Mg210 Mg 0.30983 0.43168 0.38585 0.0
O211 O 0.36963 0.49469 0.45267 0.0
O212 O 0.4462 0.52359 0.40716 0.0
Mg213 Mg 0.4395 0.47775 0.31631 0.0
C214 C 0.41773 0.52485 0.45197 0.0
C215 C 0.20616 0.39545 0.46347 0.0
O216 O 0.20327 0.35169 0.45028 0.0
O217 O 0.31513 0.48562 0.30093 0.0
O218 O 0.39194 0.50391 0.26479 0.0
O219 O 0.3248 0.37313 0.43675 0.0
O220 O 0.36607 0.41584 0.3496 0.0
C221 C 0.35142 0.50612 0.25899 0.0
C222 C 0.35953 0.38318 0.3932 0.0
O223 O 0.24482 0.43632 0.44313 0.0
Mg224 Mg 0.86551 0.31616 0.88584 0.0
O225 O 0.86229 0.37596 0.95267 0.0
O226 O 0.90996 0.45252 0.90716 0.0
Mg227 Mg 0.94911 0.44583 0.81631 0.0
C228 C 0.88024 0.42405 0.95198 0.0
C229 C 0.79807 0.2125 0.96348 0.0
O230 O 0.83895 0.20962 0.9503 0.0
O231 O 0.81686 0.32146 0.80093 0.0
O232 O 0.87538 0.39827 0.76479 0.0
O233 O 0.93902 0.33113 0.93675 0.0
O234 O 0.93759 0.3724 0.8496 0.0
C235 C 0.83264 0.35774 0.75899 0.0
C236 C 0.96371 0.36586 0.8932 0.0
O237 O 0.79586 0.25114 0.94313 0.0
Mg238 Mg 0.53671 0.87183 0.38585 0.0
O239 O 0.4737 0.86861 0.45267 0.0
O240 O 0.44481 0.91627 0.40716 0.0
Mg241 Mg 0.49064 0.95541 0.3163 0.0
C242 C 0.44355 0.88655 0.45198 0.0
C243 C 0.57295 0.8044 0.4635 0.0
O244 O 0.61671 0.84529 0.45032 0.0
O245 O 0.48277 0.82318 0.30093 0.0
O246 O 0.46448 0.88169 0.26479 0.0
O247 O 0.59526 0.94535 0.43676 0.0
O248 O 0.55255 0.9439 0.34961 0.0
C249 C 0.46227 0.83896 0.25899 0.0
C250 C 0.58521 0.97003 0.3932 0.0
O251 O 0.53208 0.80218 0.44314 0.0
Mg252 Mg 0.42536 0.31615 0.07834 0.0
O253 O 0.48839 0.37597 0.01154 0.0
O254 O 0.5173 0.45252 0.05711 0.0
Mg255 Mg 0.47143 0.44581 0.14793 0.0
C256 C 0.51857 0.42405 0.01229 0.0
C257 C 0.38913 0.21247 0.00075 0.0
O258 O 0.34536 0.20955 0.01399 0.0
O259 O 0.47929 0.32143 0.16327 0.0
O260 O 0.49757 0.39823 0.19943 0.0
O261 O 0.36682 0.33114 0.02743 0.0
O262 O 0.40953 0.37239 0.11459 0.0
C263 C 0.49979 0.35771 0.20522 0.0
C264 C 0.37687 0.36586 0.07099 0.0
O265 O 0.43 0.25115 0.02104 0.0
Mg266 Mg 0.09657 0.43169 0.57834 0.0
O267 O 0.09979 0.49472 0.51154 0.0
O268 O 0.05214 0.52362 0.5571 0.0
Mg269 Mg 0.01298 0.47776 0.64793 0.0
C270 C 0.08188 0.52489 0.51229 0.0
C271 C 0.16401 0.39546 0.50073 0.0
O272 O 0.12314 0.35169 0.51396 0.0
O273 O 0.14523 0.48562 0.66327 0.0
O274 O 0.08671 0.5039 0.69943 0.0
O275 O 0.02304 0.37315 0.52744 0.0
O276 O 0.0245 0.41586 0.6146 0.0
C277 C 0.12945 0.50612 0.70522 0.0
C278 C -0.00163 0.3832 0.571 0.0
O279 O 0.16621 0.43632 0.52104 0.0
Mg280 Mg 0.65224 0.10289 0.07834 0.0
O281 O 0.59243 0.1061 0.01154 0.0
O282 O 0.51587 0.05845 0.05709 0.0
Mg283 Mg 0.52258 0.01929 0.14792 0.0
C284 C 0.54434 0.08819 0.01229 0.0
C285 C 0.75592 0.17034 0.00074 0.0
O286 O 0.75882 0.12949 0.01397 0.0
O287 O 0.64696 0.15154 0.16327 0.0
O288 O 0.57016 0.09301 0.19942 0.0
O289 O 0.63726 0.02937 0.02744 0.0
O290 O 0.596 0.03081 0.11459 0.0
C291 C 0.61068 0.13575 0.20522 0.0
C292 C 0.60253 0.00469 0.071 0.0
O293 O 0.71725 0.17254 0.02104 0.0
Mg294 Mg 0.53672 0.65857 0.57834 0.0
O295 O 0.47369 0.59875 0.51154 0.0
O296 O 0.4448 0.5222 0.5571 0.0
Mg297 Mg 0.49066 0.52892 0.64793 0.0
C298 C 0.44352 0.55066 0.51229 0.0
C299 C 0.57295 0.76225 0.50075 0.0
O300 O 0.61672 0.76517 0.514 0.0
O301 O 0.48279 0.65329 0.66328 0.0
O302 O 0.46452 0.57649 0.69943 0.0
O303 O 0.59526 0.64359 0.52744 0.0
O304 O 0.55256 0.60233 0.6146 0.0
C305 C 0.4623 0.61701 0.70522 0.0
C306 C 0.58522 0.60886 0.571 0.0
O307 O 0.53208 0.72357 0.52104 0.0
Mg308 Mg 0.86552 0.54303 0.07835 0.0
O309 O 0.86229 0.48001 0.01155 0.0
O310 O 0.90995 0.45111 0.05711 0.0
Mg311 Mg 0.94911 0.49697 0.14794 0.0
C312 C 0.88021 0.44984 0.0123 0.0
C313 C 0.79808 0.57927 0.00075 0.0
O314 O 0.83894 0.62303 0.01398 0.0
O315 O 0.81685 0.4891 0.16328 0.0
O316 O 0.87538 0.47083 0.19943 0.0
O317 O 0.93904 0.60157 0.02745 0.0
O318 O 0.93759 0.55887 0.11461 0.0
C319 C 0.83264 0.4686 0.20522 0.0
C320 C 0.96372 0.59152 0.07101 0.0
O321 O 0.79587 0.5384 0.02105 0.0
Mg322 Mg 0.30984 0.87183 0.57835 0.0
O323 O 0.36965 0.86861 0.51154 0.0
O324 O 0.44621 0.91627 0.55711 0.0
Mg325 Mg 0.4395 0.95543 0.64793 0.0
C326 C 0.41774 0.88653 0.5123 0.0
C327 C 0.20616 0.80438 0.50074 0.0
O328 O 0.20326 0.84524 0.51398 0.0
O329 O 0.31512 0.82318 0.66327 0.0
O330 O 0.39192 0.88171 0.69943 0.0
O331 O 0.32482 0.94535 0.52744 0.0
O332 O 0.36608 0.94391 0.6146 0.0
C333 C 0.3514 0.83897 0.70522 0.0
C334 C 0.35955 0.97003 0.571 0.0
O335 O 0.24483 0.80218 0.52105 0.0
loop_
_geom_bond_atom_site_label_1
_geom_bond_atom_site_label_2
_geom_bond_distance
_geom_bond_site_symmetry_2
_ccdc_geom_bond_type
Mg0 O1 2.028 . S
Mg0 O7 1.986 . S
Mg0 O9 2.114 . S
Mg0 O10 2.251 . S
Mg0 O13 2.010 . S
O1 Mg0 2.028 . S
O1 C4 1.250 . S
O2 Mg3 2.028 . S
O2 C4 1.248 . S
Mg3 O2 2.028 . S
Mg3 O8 2.032 . S
Mg3 O10 2.079 . S
C4 O1 1.250 . S
C4 O2 1.248 . S
C5 O6 1.264 . S
C5 O13 1.249 . S
O6 C5 1.264 . S
O7 Mg0 1.986 . S
O7 C11 1.246 . S
O8 Mg3 2.032 . S
O8 C11 1.259 . S
O9 Mg0 2.114 . S
O9 C12 1.252 . S
O10 Mg0 2.251 . S
O10 Mg3 2.079 . S
O10 C12 1.273 . S
C11 O7 1.246 . S
C11 O8 1.259 . S
C12 O9 1.252 . S
C12 O10 1.273 . S
O13 Mg0 2.010 . S
O13 C5 1.249 . S
Mg14 O15 2.028 . S
Mg14 O21 1.986 . S
Mg14 O23 2.114 . S
Mg14 O24 2.251 . S
Mg14 O27 2.010 . S
O15 Mg14 2.028 . S
O15 C18 1.250 . S
O16 Mg17 2.028 . S
O16 C18 1.248 . S
Mg17 O16 2.028 . S
Mg17 O22 2.032 . S
Mg17 O24 2.079 . S
C18 O15 1.250 . S
C18 O16 1.248 . S
C19 O20 1.264 . S
C19 O27 1.249 . S
O20 C19 1.264 . S
O21 Mg14 1.986 . S
O21 C25 1.246 . S
O22 Mg17 2.032 . S
O22 C25 1.259 . S
O23 Mg14 2.114 . S
O23 C26 1.252 . S
O24 Mg14 2.251 . S
O24 Mg17 2.079 . S
O24 C26 1.273 . S
C25 O21 1.246 . S
C25 O22 1.259 . S
C26 O23 1.252 . S
C26 O24 1.273 . S
O27 Mg14 2.010 . S
O27 C19 1.249 . S
Mg28 O29 2.028 . S
Mg28 O35 1.986 . S
Mg28 O37 2.114 . S
Mg28 O38 2.251 . S
Mg28 O41 2.010 . S
O29 Mg28 2.028 . S
O29 C32 1.250 . S
O30 Mg31 2.028 . S
O30 C32 1.248 . S
Mg31 O30 2.028 . S
Mg31 O36 2.032 . S
Mg31 O38 2.079 . S
C32 O29 1.250 . S
C32 O30 1.248 . S
C33 O34 1.264 . S
C33 O41 1.249 . S
O34 C33 1.264 . S
O35 Mg28 1.986 . S
O35 C39 1.246 . S
O36 Mg31 2.032 . S
O36 C39 1.259 . S
O37 Mg28 2.114 . S
O37 C40 1.252 . S
O38 Mg28 2.251 . S
O38 Mg31 2.079 . S
O38 C40 1.273 . S
C39 O35 1.246 . S
C39 O36 1.259 . S
C40 O37 1.252 . S
C40 O38 1.273 . S
O41 Mg28 2.010 . S
O41 C33 1.249 . S
Mg42 O43 2.028 . S
Mg42 O49 1.986 . S
Mg42 O51 2.114 . S
Mg42 O52 2.251 . S
Mg42 O55 2.010 . S
O43 Mg42 2.028 . S
O43 C46 1.250 . S
O44 Mg45 2.028 . S
O44 C46 1.248 . S
Mg45 O44 2.028 . S
Mg45 O50 2.032 . S
Mg45 O52 2.079 . S
C46 O43 1.250 . S
C46 O44 1.248 . S
C47 O48 1.264 . S
C47 O55 1.249 . S
O48 C47 1.264 . S
O49 Mg42 1.986 . S
O49 C53 1.246 . S
O50 Mg45 2.032 . S
O50 C53 1.259 . S
O51 Mg42 2.114 . S
O51 C54 1.252 . S
O52 Mg42 2.251 . S
O52 Mg45 2.079 . S
O52 C54 1.273 . S
C53 O49 1.246 . S
C53 O50 1.259 . S
C54 O51 1.252 . S
C54 O52 1.273 . S
O55 Mg42 2.010 . S
O55 C47 1.249 . S
Mg56 O57 2.028 . S
Mg56 O63 1.986 . S
Mg56 O65 2.114 . S
Mg56 O66 2.251 . S
Mg56 O69 2.010 . S
O57 Mg56 2.028 . S
O57 C60 1.250 . S
O58 Mg59 2.028 . S
O58 C60 1.248 . S
Mg59 O58 2.028 . S
Mg59 O64 2.032 . S
Mg59 O66 2.079 . S
C60 O57 1.250 . S
C60 O58 1.248 . S
C61 O62 1.264 . S
C61 O69 1.249 . S
O62 C61 1.264 . S
O63 Mg56 1.986 . S
O63 C67 1.246 . S
O64 Mg59 2.032 . S
O64 C67 1.259 . S
O65 Mg56 2.114 . S
O65 C68 1.252 . S
O66 Mg56 2.251 . S
O66 Mg59 2.079 . S
O66 C68 1.273 . S
C67 O63 1.246 . S
C67 O64 1.259 . S
C68 O65 1.252 . S
C68 O66 1.273 . S
O69 Mg56 2.010 . S
O69 C61 1.249 . S
Mg70 O71 2.028 . S
Mg70 O77 1.986 . S
Mg70 O79 2.114 . S
Mg70 O80 2.251 . S
Mg70 O83 2.010 . S
O71 Mg70 2.028 . S
O71 C74 1.250 . S
O72 Mg73 2.028 . S
O72 C74 1.248 . S
Mg73 O72 2.028 . S
Mg73 O78 2.032 . S
Mg73 O80 2.079 . S
C74 O71 1.250 . S
C74 O72 1.248 . S
C75 O76 1.264 . S
C75 O83 1.249 . S
O76 C75 1.264 . S
O77 Mg70 1.986 . S
O77 C81 1.246 . S
O78 Mg73 2.032 . S
O78 C81 1.259 . S
O79 Mg70 2.114 . S
O79 C82 1.252 . S
O80 Mg70 2.251 . S
O80 Mg73 2.079 . S
O80 C82 1.273 . S
C81 O77 1.246 . S
C81 O78 1.259 . S
C82 O79 1.252 . S
C82 O80 1.273 . S
O83 Mg70 2.010 . S
O83 C75 1.249 . S
Mg84 O85 2.028 . S
Mg84 O91 1.986 . S
Mg84 O93 2.114 . S
Mg84 O94 2.251 . S
Mg84 O97 2.010 . S
O85 Mg84 2.028 . S
O85 C88 1.250 . S
O86 Mg87 2.028 . S
O86 C88 1.248 . S
Mg87 O86 2.028 . S
Mg87 O92 2.032 . S
Mg87 O94 2.079 . S
C88 O85 1.250 . S
C88 O86 1.248 . S
C89 O90 1.264 . S
C89 O97 1.249 . S
O90 C89 1.264 . S
O91 Mg84 1.986 . S
O91 C95 1.246 . S
O92 Mg87 2.032 . S
O92 C95 1.259 . S
O93 Mg84 2.114 . S
O93 C96 1.252 . S
O94 Mg84 2.251 . S
O94 Mg87 2.079 . S
O94 C96 1.273 . S
C95 O91 1.246 . S
C95 O92 1.259 . S
C96 O93 1.252 . S
C96 O94 1.273 . S
O97 Mg84 2.010 . S
O97 C89 1.249 . S
Mg98 O99 2.028 . S
Mg98 O105 1.986 . S
Mg98 O107 2.114 . S
Mg98 O108 2.251 . S
Mg98 O111 2.010 . S
O99 Mg98 2.028 . S
O99 C102 1.250 . S
O100 Mg101 2.028 . S
O100 C102 1.248 . S
Mg101 O100 2.028 . S
Mg101 O106 2.032 . S
Mg101 O108 2.079 . S
C102 O99 1.250 . S
C102 O100 1.248 . S
C103 O104 1.264 . S
C103 O111 1.249 . S
O104 C103 1.264 . S
O105 Mg98 1.986 . S
O105 C109 1.246 . S
O106 Mg101 2.032 . S
O106 C109 1.259 . S
O107 Mg98 2.114 . S
O107 C110 1.252 . S
O108 Mg98 2.251 . S
O108 Mg101 2.079 . S
O108 C110 1.273 . S
C109 O105 1.246 . S
C109 O106 1.259 . S
C110 O107 1.252 . S
C110 O108 1.273 . S
O111 Mg98 2.010 . S
O111 C103 1.249 . S
Mg112 O113 2.028 . S
Mg112 O119 1.986 . S
Mg112 O121 2.114 . S
Mg112 O122 2.251 . S
Mg112 O125 2.010 . S
O113 Mg112 2.028 . S
O113 C116 1.250 . S
O114 Mg115 2.028 . S
O114 C116 1.248 . S
Mg115 O114 2.028 . S
Mg115 O120 2.032 . S
Mg115 O122 2.079 . S
C116 O113 1.250 . S
C116 O114 1.248 . S
C117 O118 1.264 . S
C117 O125 1.249 . S
O118 C117 1.264 . S
O119 Mg112 1.986 . S
O119 C123 1.246 . S
O120 Mg115 2.032 . S
O120 C123 1.259 . S
O121 Mg112 2.114 . S
O121 C124 1.252 . S
O122 Mg112 2.251 . S
O122 Mg115 2.079 . S
O122 C124 1.273 . S
C123 O119 1.246 . S
C123 O120 1.259 . S
C124 O121 1.252 . S
C124 O122 1.273 . S
O125 Mg112 2.010 . S
O125 C117 1.249 . S
Mg126 O127 2.028 . S
Mg126 O133 1.986 . S
Mg126 O135 2.114 . S
Mg126 O136 2.251 . S
Mg126 O139 2.010 . S
O127 Mg126 2.028 . S
O127 C130 1.250 . S
O128 Mg129 2.028 . S
O128 C130 1.248 . S
Mg129 O128 2.028 . S
Mg129 O134 2.032 . S
Mg129 O136 2.079 . S
C130 O127 1.250 . S
C130 O128 1.248 . S
C131 O132 1.264 . S
C131 O139 1.249 . S
O132 C131 1.264 . S
O133 Mg126 1.986 . S
O133 C137 1.246 . S
O134 Mg129 2.032 . S
O134 C137 1.259 . S
O135 Mg126 2.114 . S
O135 C138 1.252 . S
O136 Mg126 2.251 . S
O136 Mg129 2.079 . S
O136 C138 1.273 . S
C137 O133 1.246 . S
C137 O134 1.259 . S
C138 O135 1.252 . S
C138 O136 1.273 . S
O139 Mg126 2.010 . S
O139 C131 1.249 . S
Mg140 O141 2.028 . S
Mg140 O147 1.986 . S
Mg140 O149 2.114 . S
Mg140 O150 2.251 . S
Mg140 O153 2.010 . S
O141 Mg140 2.028 . S
O141 C144 1.250 . S
O142 Mg143 2.028 . S
O142 C144 1.248 . S
Mg143 O142 2.028 . S
Mg143 O148 2.032 . S
Mg143 O150 2.079 . S
C144 O141 1.250 . S
C144 O142 1.248 . S
C145 O146 1.264 . S
C145 O153 1.249 . S
O146 C145 1.264 . S
O147 Mg140 1.986 . S
O147 C151 1.246 . S
O148 Mg143 2.032 . S
O148 C151 1.259 . S
O149 Mg140 2.114 . S
O149 C152 1.252 . S
O150 Mg140 2.251 . S
O150 Mg143 2.079 . S
O150 C152 1.273 . S
C151 O147 1.246 . S
C151 O148 1.259 . S
C152 O149 1.252 . S
C152 O150 1.273 . S
O153 Mg140 2.010 . S
O153 C145 1.249 . S
Mg154 O155 2.028 . S
Mg154 O161 1.986 . S
Mg154 O163 2.114 . S
Mg154 O164 2.251 . S
Mg154 O167 2.010 . S
O155 Mg154 2.028 . S
O155 C158 1.250 . S
O156 Mg157 2.028 . S
O156 C158 1.248 . S
Mg157 O156 2.028 . S
Mg157 O162 2.032 . S
Mg157 O164 2.079 . S
C158 O155 1.250 . S
C158 O156 1.248 . S
C159 O160 1.264 . S
C159 O167 1.249 . S
O160 C159 1.264 . S
O161 Mg154 1.986 . S
O161 C165 1.246 . S
O162 Mg157 2.032 . S
O162 C165 1.259 . S
O163 Mg154 2.114 . S
O163 C166 1.252 . S
O164 Mg154 2.251 . S
O164 Mg157 2.079 . S
O164 C166 1.273 . S
C165 O161 1.246 . S
C165 O162 1.259 . S
C166 O163 1.252 . S
C166 O164 1.273 . S
O167 Mg154 2.010 . S
O167 C159 1.249 . S
Mg168 O169 2.028 . S
Mg168 O175 1.986 . S
Mg168 O177 2.114 . S
Mg168 O178 2.251 . S
Mg168 O181 2.010 . S
O169 Mg168 2.028 . S
O169 C172 1.250 . S
O170 Mg171 2.028 . S
O170 C172 1.248 . S
Mg171 O170 2.028 . S
Mg171 O176 2.032 . S
Mg171 O178 2.079 . S
C172 O169 1.250 . S
C172 O170 1.248 . S
C173 O174 1.264 . S
C173 O181 1.249 . S
O174 C173 1.264 . S
O175 Mg168 1.986 . S
O175 C179 1.246 . S
O176 Mg171 2.032 . S
O176 C179 1.259 . S
O177 Mg168 2.114 . S
O177 C180 1.252 . S
O178 Mg168 2.251 . S
O178 Mg171 2.079 . S
O178 C180 1.273 . S
C179 O175 1.246 . S
C179 O176 1.259 . S
C180 O177 1.252 . S
C180 O178 1.273 . S
O181 Mg168 2.010 . S
O181 C173 1.249 . S
Mg182 O183 2.028 . S
Mg182 O189 1.986 . S
Mg182 O191 2.114 . S
Mg182 O192 2.251 . S
Mg182 O195 2.010 . S
O183 Mg182 2.028 . S
O183 C186 1.250 . S
O184 Mg185 2.028 . S
O184 C186 1.248 . S
Mg185 O184 2.028 . S
Mg185 O190 2.032 . S
Mg185 O192 2.079 . S
C186 O183 1.250 . S
C186 O184 1.248 . S
C187 O188 1.264 . S
C187 O195 1.249 . S
O188 C187 1.264 . S
O189 Mg182 1.986 . S
O189 C193 1.246 . S
O190 Mg185 2.032 . S
O190 C193 1.259 . S
O191 Mg182 2.114 . S
O191 C194 1.252 . S
O192 Mg182 2.251 . S
O192 Mg185 2.079 . S
O192 C194 1.273 . S
C193 O189 1.246 . S
C193 O190 1.259 . S
C194 O191 1.252 . S
C194 O192 1.273 . S
O195 Mg182 2.010 . S
O195 C187 1.249 . S
Mg196 O197 2.028 . S
Mg196 O203 1.986 . S
Mg196 O205 2.114 . S
Mg196 O206 2.251 . S
Mg196 O209 2.010 . S
O197 Mg196 2.028 . S
O197 C200 1.250 . S
O198 Mg199 2.028 . S
O198 C200 1.248 . S
Mg199 O198 2.028 . S
Mg199 O204 2.032 . S
Mg199 O206 2.079 . S
C200 O197 1.250 . S
C200 O198 1.248 . S
C201 O202 1.264 . S
C201 O209 1.249 . S
O202 C201 1.264 . S
O203 Mg196 1.986 . S
O203 C207 1.246 . S
O204 Mg199 2.032 . S
O204 C207 1.259 . S
O205 Mg196 2.114 . S
O205 C208 1.252 . S
O206 Mg196 2.251 . S
O206 Mg199 2.079 . S
O206 C208 1.273 . S
C207 O203 1.246 . S
C207 O204 1.259 . S
C208 O205 1.252 . S
C208 O206 1.273 . S
O209 Mg196 2.010 . S
O209 C201 1.249 . S
Mg210 O211 2.028 . S
Mg210 O217 1.986 . S
Mg210 O219 2.114 . S
Mg210 O220 2.251 . S
Mg210 O223 2.010 . S
O211 Mg210 2.028 . S
O211 C214 1.250 . S
O212 Mg213 2.028 . S
O212 C214 1.248 . S
Mg213 O212 2.028 . S
Mg213 O218 2.032 . S
Mg213 O220 2.079 . S
C214 O211 1.250 . S
C214 O212 1.248 . S
C215 O216 1.264 . S
C215 O223 1.249 . S
O216 C215 1.264 . S
O217 Mg210 1.986 . S
O217 C221 1.246 . S
O218 Mg213 2.032 . S
O218 C221 1.259 . S
O219 Mg210 2.114 . S
O219 C222 1.252 . S
O220 Mg210 2.251 . S
O220 Mg213 2.079 . S
O220 C222 1.273 . S
C221 O217 1.246 . S
C221 O218 1.259 . S
C222 O219 1.252 . S
C222 O220 1.273 . S
O223 Mg210 2.010 . S
O223 C215 1.249 . S
Mg224 O225 2.028 . S
Mg224 O231 1.986 . S
Mg224 O233 2.114 . S
Mg224 O234 2.251 . S
Mg224 O237 2.010 . S
O225 Mg224 2.028 . S
O225 C228 1.250 . S
O226 Mg227 2.028 . S
O226 C228 1.248 . S
Mg227 O226 2.028 . S
Mg227 O232 2.032 . S
Mg227 O234 2.079 . S
C228 O225 1.250 . S
C228 O226 1.248 . S
C229 O230 1.264 . S
C229 O237 1.249 . S
O230 C229 1.264 . S
O231 Mg224 1.986 . S
O231 C235 1.246 . S
O232 Mg227 2.032 . S
O232 C235 1.259 . S
O233 Mg224 2.114 . S
O233 C236 1.252 . S
O234 Mg224 2.251 . S
O234 Mg227 2.079 . S
O234 C236 1.273 . S
C235 O231 1.246 . S
C235 O232 1.259 . S
C236 O233 1.252 . S
C236 O234 1.273 . S
O237 Mg224 2.010 . S
O237 C229 1.249 . S
Mg238 O239 2.028 . S
Mg238 O245 1.986 . S
Mg238 O247 2.114 . S
Mg238 O248 2.251 . S
Mg238 O251 2.010 . S
O239 Mg238 2.028 . S
O239 C242 1.250 . S
O240 Mg241 2.028 . S
O240 C242 1.248 . S
Mg241 O240 2.028 . S
Mg241 O246 2.032 . S
Mg241 O248 2.079 . S
C242 O239 1.250 . S
C242 O240 1.248 . S
C243 O244 1.264 . S
C243 O251 1.249 . S
O244 C243 1.264 . S
O245 Mg238 1.986 . S
O245 C249 1.246 . S
O246 Mg241 2.032 . S
O246 C249 1.259 . S
O247 Mg238 2.114 . S
O247 C250 1.252 . S
O248 Mg238 2.251 . S
O248 Mg241 2.079 . S
O248 C250 1.273 . S
C249 O245 1.246 . S
C249 O246 1.259 . S
C250 O247 1.252 . S
C250 O248 1.273 . S
O251 Mg238 2.010 . S
O251 C243 1.249 . S
Mg252 O253 2.028 . S
Mg252 O259 1.986 . S
Mg252 O261 2.114 . S
Mg252 O262 2.251 . S
Mg252 O265 2.010 . S
O253 Mg252 2.028 . S
O253 C256 1.250 . S
O254 Mg255 2.028 . S
O254 C256 1.248 . S
Mg255 O254 2.028 . S
Mg255 O260 2.032 . S
Mg255 O262 2.079 . S
C256 O253 1.250 . S
C256 O254 1.248 . S
C257 O258 1.264 . S
C257 O265 1.249 . S
O258 C257 1.264 . S
O259 Mg252 1.986 . S
O259 C263 1.246 . S
O260 Mg255 2.032 . S
O260 C263 1.259 . S
O261 Mg252 2.114 . S
O261 C264 1.252 . S
O262 Mg252 2.251 . S
O262 Mg255 2.079 . S
O262 C264 1.273 . S
C263 O259 1.246 . S
C263 O260 1.259 . S
C264 O261 1.252 . S
C264 O262 1.273 . S
O265 Mg252 2.010 . S
O265 C257 1.249 . S
Mg266 O267 2.028 . S
Mg266 O273 1.986 . S
Mg266 O275 2.114 . S
Mg266 O276 2.251 . S
Mg266 O279 2.010 . S
O267 Mg266 2.028 . S
O267 C270 1.250 . S
O268 Mg269 2.028 . S
O268 C270 1.248 . S
Mg269 O268 2.028 . S
Mg269 O274 2.032 . S
Mg269 O276 2.079 . S
C270 O267 1.250 . S
C270 O268 1.248 . S
C271 O272 1.264 . S
C271 O279 1.249 . S
O272 C271 1.264 . S
O273 Mg266 1.986 . S
O273 C277 1.246 . S
O274 Mg269 2.032 . S
O274 C277 1.259 . S
O275 Mg266 2.114 . S
O275 C278 1.252 . S
O276 Mg266 2.251 . S
O276 Mg269 2.079 . S
O276 C278 1.273 . S
C277 O273 1.246 . S
C277 O274 1.259 . S
C278 O275 1.252 . S
C278 O276 1.273 . S
O279 Mg266 2.010 . S
O279 C271 1.249 . S
Mg280 O281 2.028 . S
Mg280 O287 1.986 . S
Mg280 O289 2.114 . S
Mg280 O290 2.251 . S
Mg280 O293 2.010 . S
O281 Mg280 2.028 . S
O281 C284 1.250 . S
O282 Mg283 2.028 . S
O282 C284 1.248 . S
Mg283 O282 2.028 . S
Mg283 O288 2.032 . S
Mg283 O290 2.079 . S
C284 O281 1.250 . S
C284 O282 1.248 . S
C285 O286 1.264 . S
C285 O293 1.249 . S
O286 C285 1.264 . S
O287 Mg280 1.986 . S
O287 C291 1.246 . S
O288 Mg283 2.032 . S
O288 C291 1.259 . S
O289 Mg280 2.114 . S
O289 C292 1.252 . S
O290 Mg280 2.251 . S
O290 Mg283 2.079 . S
O290 C292 1.273 . S
C291 O287 1.246 . S
C291 O288 1.259 . S
C292 O289 1.252 . S
C292 O290 1.273 . S
O293 Mg280 2.010 . S
O293 C285 1.249 . S
Mg294 O295 2.028 . S
Mg294 O301 1.986 . S
Mg294 O303 2.114 . S
Mg294 O304 2.251 . S
Mg294 O307 2.010 . S
O295 Mg294 2.028 . S
O295 C298 1.250 . S
O296 Mg297 2.028 . S
O296 C298 1.248 . S
Mg297 O296 2.028 . S
Mg297 O302 2.032 . S
Mg297 O304 2.079 . S
C298 O295 1.250 . S
C298 O296 1.248 . S
C299 O300 1.264 . S
C299 O307 1.249 . S
O300 C299 1.264 . S
O301 Mg294 1.986 . S
O301 C305 1.246 . S
O302 Mg297 2.032 . S
O302 C305 1.259 . S
O303 Mg294 2.114 . S
O303 C306 1.252 . S
O304 Mg294 2.251 . S
O304 Mg297 2.079 . S
O304 C306 1.273 . S
C305 O301 1.246 . S
C305 O302 1.259 . S
C306 O303 1.252 . S
C306 O304 1.273 . S
O307 Mg294 2.010 . S
O307 C299 1.249 . S
Mg308 O309 2.028 . S
Mg308 O315 1.986 . S
Mg308 O317 2.114 . S
Mg308 O318 2.251 . S
Mg308 O321 2.010 . S
O309 Mg308 2.028 . S
O309 C312 1.250 . S
O310 Mg311 2.028 . S
O310 C312 1.248 . S
Mg311 O310 2.028 . S
Mg311 O316 2.032 . S
Mg311 O318 2.079 . S
C312 O309 1.250 . S
C312 O310 1.248 . S
C313 O314 1.264 . S
C313 O321 1.249 . S
O314 C313 1.264 . S
O315 Mg308 1.986 . S
O315 C319 1.246 . S
O316 Mg311 2.032 . S
O316 C319 1.259 . S
O317 Mg308 2.114 . S
O317 C320 1.252 . S
O318 Mg308 2.251 . S
O318 Mg311 2.079 . S
O318 C320 1.273 . S
C319 O315 1.246 . S
C319 O316 1.259 . S
C320 O317 1.252 . S
C320 O318 1.273 . S
O321 Mg308 2.010 . S
O321 C313 1.249 . S
Mg322 O323 2.028 . S
Mg322 O329 1.986 . S
Mg322 O331 2.114 . S
Mg322 O332 2.251 . S
Mg322 O335 2.010 . S
O323 Mg322 2.028 . S
O323 C326 1.250 . S
O324 Mg325 2.028 . S
O324 C326 1.248 . S
Mg325 O324 2.028 . S
Mg325 O330 2.032 . S
Mg325 O332 2.079 . S
C326 O323 1.250 . S
C326 O324 1.248 . S
C327 O328 1.264 . S
C327 O335 1.249 . S
O328 C327 1.264 . S
O329 Mg322 1.986 . S
O329 C333 1.246 . S
O330 Mg325 2.032 . S
O330 C333 1.259 . S
O331 Mg322 2.114 . S
O331 C334 1.252 . S
O332 Mg322 2.251 . S
O332 Mg325 2.079 . S
O332 C334 1.273 . S
C333 O329 1.246 . S
C333 O330 1.259 . S
C334 O331 1.252 . S
C334 O332 1.273 . S
O335 Mg322 2.010 . S
O335 C327 1.249 . S
C11 C221 1.405 . S
C25 C235 1.405 . S
C249 C39 1.405 . S
C179 C53 1.405 . S
C193 C67 1.405 . S
C207 C81 1.405 . S
C305 C95 1.405 . S
C109 C319 1.405 . S
C333 C123 1.405 . S
C137 C263 1.405 . S
C277 C151 1.405 . S
C165 C291 1.405 . S
C145 C5 0.475 1_556 S
C159 C19 0.475 . S
C33 C89 0.475 1_554 S
C47 C103 0.475 . S
C117 C61 0.475 1_556 S
C75 C131 0.475 . S
C313 C173 0.475 1_554 S
C187 C327 0.475 . S
C201 C257 0.475 1_556 S
C271 C215 0.475 . S
C229 C285 0.475 1_556 S
C243 C299 0.475 . S
C12 C264 1.270 . S
C278 C26 1.270 1_455 S
C40 C292 1.270 1_565 S
C54 C306 1.269 . S
C320 C68 1.270 1_655 S
C82 C334 1.270 1_545 S
C96 C180 1.270 . S
C110 C194 1.269 1_655 S
C208 C124 1.270 1_545 S
C222 C138 1.270 . S
C152 C236 1.270 1_455 S
C250 C166 1.269 1_565 S
C88 C4 1.559 1_556 S
C18 C102 1.559 . S
C116 C32 1.559 1_556 S
C130 C46 1.559 . S
C144 C60 1.559 1_556 S
C74 C158 1.559 . S
C256 C172 1.559 1_554 S
C186 C270 1.559 . S
C284 C200 1.559 1_554 S
C298 C214 1.559 . S
C228 C312 1.559 1_556 S
C242 C326 1.559 . S
