# Generated by pormake.
# Topology skb, (5)-cn, num edge types: 1
# Building blocks:
#     Node 0, Type 0, BuildingBlock: XOMCOT_clean_sbu_0, # of connection points: 5
#     Node 1, Type 0, BuildingBlock: XOMCOT_clean_sbu_0, # of connection points: 5
#     Node 2, Type 0, BuildingBlock: XOMCOT_clean_sbu_0, # of connection points: 5
#     Node 3, Type 0, BuildingBlock: XOMCOT_clean_sbu_0, # of connection points: 5
#     Node 4, Type 0, BuildingBlock: XOMCOT_clean_sbu_0, # of connection points: 5
#     Node 5, Type 0, BuildingBlock: XOMCOT_clean_sbu_0, # of connection points: 5
#     Node 6, Type 0, BuildingBlock: XOMCOT_clean_sbu_0, # of connection points: 5
#     Node 7, Type 0, BuildingBlock: XOMCOT_clean_sbu_0, # of connection points: 5
#     Node 8, Type 0, BuildingBlock: XOMCOT_clean_sbu_0, # of connection points: 5
#     Node 9, Type 0, BuildingBlock: XOMCOT_clean_sbu_0, # of connection points: 5
#     Node 10, Type 0, BuildingBlock: XOMCOT_clean_sbu_0, # of connection points: 5
#     Node 11, Type 0, BuildingBlock: XOMCOT_clean_sbu_0, # of connection points: 5
#     Node 12, Type 0, BuildingBlock: XOMCOT_clean_sbu_0, # of connection points: 5
#     Node 13, Type 0, BuildingBlock: XOMCOT_clean_sbu_0, # of connection points: 5
#     Node 14, Type 0, BuildingBlock: XOMCOT_clean_sbu_0, # of connection points: 5
#     Node 15, Type 0, BuildingBlock: XOMCOT_clean_sbu_0, # of connection points: 5
#     Edge 16, Type (0, 0), BuildingBlock: ZUJKAS_clean_linker_0, # of connection points: 2
#     Edge 17, Type (0, 0), BuildingBlock: ZUJKAS_clean_linker_0, # of connection points: 2
#     Edge 18, Type (0, 0), BuildingBlock: ZUJKAS_clean_linker_0, # of connection points: 2
#     Edge 19, Type (0, 0), BuildingBlock: ZUJKAS_clean_linker_0, # of connection points: 2
#     Edge 20, Type (0, 0), BuildingBlock: ZUJKAS_clean_linker_0, # of connection points: 2
#     Edge 21, Type (0, 0), BuildingBlock: ZUJKAS_clean_linker_0, # of connection points: 2
#     Edge 22, Type (0, 0), BuildingBlock: ZUJKAS_clean_linker_0, # of connection points: 2
#     Edge 23, Type (0, 0), BuildingBlock: ZUJKAS_clean_linker_0, # of connection points: 2
#     Edge 24, Type (0, 0), BuildingBlock: ZUJKAS_clean_linker_0, # of connection points: 2
#     Edge 25, Type (0, 0), BuildingBlock: ZUJKAS_clean_linker_0, # of connection points: 2
#     Edge 26, Type (0, 0), BuildingBlock: ZUJKAS_clean_linker_0, # of connection points: 2
#     Edge 27, Type (0, 0), BuildingBlock: ZUJKAS_clean_linker_0, # of connection points: 2
#     Edge 28, Type (0, 0), BuildingBlock: ZUJKAS_clean_linker_0, # of connection points: 2
#     Edge 29, Type (0, 0), BuildingBlock: ZUJKAS_clean_linker_0, # of connection points: 2
#     Edge 30, Type (0, 0), BuildingBlock: ZUJKAS_clean_linker_0, # of connection points: 2
#     Edge 31, Type (0, 0), BuildingBlock: ZUJKAS_clean_linker_0, # of connection points: 2
#     Edge 32, Type (0, 0), BuildingBlock: ZUJKAS_clean_linker_0, # of connection points: 2
#     Edge 33, Type (0, 0), BuildingBlock: ZUJKAS_clean_linker_0, # of connection points: 2
#     Edge 34, Type (0, 0), BuildingBlock: ZUJKAS_clean_linker_0, # of connection points: 2
#     Edge 35, Type (0, 0), BuildingBlock: ZUJKAS_clean_linker_0, # of connection points: 2
#     Edge 36, Type (0, 0), BuildingBlock: ZUJKAS_clean_linker_0, # of connection points: 2
#     Edge 37, Type (0, 0), BuildingBlock: ZUJKAS_clean_linker_0, # of connection points: 2
#     Edge 38, Type (0, 0), BuildingBlock: ZUJKAS_clean_linker_0, # of connection points: 2
#     Edge 39, Type (0, 0), BuildingBlock: ZUJKAS_clean_linker_0, # of connection points: 2
#     Edge 40, Type (0, 0), BuildingBlock: ZUJKAS_clean_linker_0, # of connection points: 2
#     Edge 41, Type (0, 0), BuildingBlock: ZUJKAS_clean_linker_0, # of connection points: 2
#     Edge 42, Type (0, 0), BuildingBlock: ZUJKAS_clean_linker_0, # of connection points: 2
#     Edge 43, Type (0, 0), BuildingBlock: ZUJKAS_clean_linker_0, # of connection points: 2
#     Edge 44, Type (0, 0), BuildingBlock: ZUJKAS_clean_linker_0, # of connection points: 2
#     Edge 45, Type (0, 0), BuildingBlock: ZUJKAS_clean_linker_0, # of connection points: 2
#     Edge 46, Type (0, 0), BuildingBlock: ZUJKAS_clean_linker_0, # of connection points: 2
#     Edge 47, Type (0, 0), BuildingBlock: ZUJKAS_clean_linker_0, # of connection points: 2
#     Edge 48, Type (0, 0), BuildingBlock: ZUJKAS_clean_linker_0, # of connection points: 2
#     Edge 49, Type (0, 0), BuildingBlock: ZUJKAS_clean_linker_0, # of connection points: 2
#     Edge 50, Type (0, 0), BuildingBlock: ZUJKAS_clean_linker_0, # of connection points: 2
#     Edge 51, Type (0, 0), BuildingBlock: ZUJKAS_clean_linker_0, # of connection points: 2
#     Edge 52, Type (0, 0), BuildingBlock: ZUJKAS_clean_linker_0, # of connection points: 2
#     Edge 53, Type (0, 0), BuildingBlock: ZUJKAS_clean_linker_0, # of connection points: 2
#     Edge 54, Type (0, 0), BuildingBlock: ZUJKAS_clean_linker_0, # of connection points: 2
#     Edge 55, Type (0, 0), BuildingBlock: ZUJKAS_clean_linker_0, # of connection points: 2
# Relax obj value: 0.090
# Max RMSD: 0.140
# Mean RMSD: 0.140
data_MOF--net-skb--node1-XOMCOT_clean_sbu_0--edge1-ZUJKAS_clean_linker_0
_symmetry_space_group_name_H-M    P1
_symmetry_Int_Tables_number       1
_symmetry_cell_setting            triclinic
loop_
_symmetry_equiv_pos_as_xyz
'x, y, z'
_cell_length_a     62.304048
_cell_length_b     35.342222
_cell_length_c     85.55959
_cell_angle_alpha  89.956799
_cell_angle_beta   89.8258
_cell_angle_gamma 90.026201
loop_
_atom_site_label
_atom_site_type_symbol
_atom_site_fract_x
_atom_site_fract_y
_atom_site_fract_z
_atom_type_partial_charge
Co0 Co 0.19324 0.02534 0.14886 0.0
C1 C 0.1843 0.02439 0.11453 0.0
C2 C 0.21014 0.06165 0.12081 0.0
C3 C 0.20704 0.06418 0.10499 0.0
N4 N 0.19575 0.03719 0.12686 0.0
N5 N 0.19086 0.04083 0.10103 0.0
H6 H 0.17144 0.00388 0.11541 0.0
H7 H 0.22229 0.0764 0.12741 0.0
C8 C 0.19882 0.10166 0.16436 0.0
O9 O 0.18338 0.09388 0.17435 0.0
N10 N 0.19176 0.01381 0.17114 0.0
C11 C 0.17722 0.99306 0.17915 0.0
C12 C 0.18379 0.98974 0.19442 0.0
C13 C 0.20729 0.02175 0.18168 0.0
N14 N 0.2027 0.00783 0.19604 0.0
C15 C 0.14814 0.01261 0.14935 0.0
C16 C 0.13456 0.08619 0.14509 0.0
C17 C 0.11931 0.05769 0.14772 0.0
C18 C 0.12633 0.02052 0.14953 0.0
C19 C 0.15654 0.077 0.14529 0.0
N20 N 0.1631 0.04075 0.14831 0.0
H21 H 0.15283 0.98337 0.15007 0.0
H22 H 0.16809 0.09894 0.14278 0.0
H23 H 0.16321 0.97956 0.17442 0.0
H24 H 0.22174 0.03728 0.17879 0.0
O25 O 0.18921 0.97277 0.14402 0.0
O26 O 0.22081 -0.00047 0.14805 0.0
O27 O 0.20391 0.07789 0.15374 0.0
C28 C 0.20984 0.96899 0.14503 0.0
H29 H 0.21636 0.08115 0.09689 0.0
H30 H 0.17562 0.97382 0.20346 0.0
H31 H 0.12958 0.11512 0.14303 0.0
H32 H 0.11497 0.99751 0.15087 0.0
Co33 Co 0.81623 0.03982 0.14805 0.0
C34 C 0.81831 0.03677 0.11242 0.0
C35 C 0.7886 0.0182 0.12252 0.0
C36 C 0.787 0.01547 0.1066 0.0
N37 N 0.80821 0.03137 0.12632 0.0
N38 N 0.80563 0.02725 0.10019 0.0
H39 H 0.8343 0.04773 0.11101 0.0
H40 H 0.77625 0.0107 0.13088 0.0
C41 C 0.81121 0.95665 0.14486 0.0
O42 O 0.8236 0.95904 0.13244 0.0
N43 N 0.82262 0.0478 0.16986 0.0
C44 C 0.83877 0.0679 0.17617 0.0
C45 C 0.8352 0.07079 0.19206 0.0
C46 C 0.80949 0.03888 0.18185 0.0
N47 N 0.81672 0.05262 0.1956 0.0
C48 C 0.85832 0.05109 0.13596 0.0
C49 C 0.87848 0.99382 0.15223 0.0
C50 C 0.89099 0.01892 0.14328 0.0
C51 C 0.88051 0.04754 0.13498 0.0
C52 C 0.85609 0.99818 0.15276 0.0
N53 N 0.84619 0.02623 0.14443 0.0
H54 H 0.85107 0.07536 0.13048 0.0
H55 H 0.84692 0.9803 0.16054 0.0
H56 H 0.85175 0.08074 0.16963 0.0
H57 H 0.7943 0.02451 0.18034 0.0
O58 O 0.81896 0.09319 0.14432 0.0
O59 O 0.78873 0.0648 0.15128 0.0
O60 O 0.80737 0.98618 0.15301 0.0
C61 C 0.79878 0.09608 0.14781 0.0
H62 H 0.77322 0.005 0.10026 0.0
H63 H 0.84523 0.08583 0.20028 0.0
H64 H 0.88594 0.97171 0.15909 0.0
H65 H 0.88947 0.0686 0.12847 0.0
Co66 Co 0.19371 0.0348 0.88942 0.0
C67 C 0.1883 0.02513 0.92468 0.0
C68 C 0.21725 0.00164 0.91522 0.0
C69 C 0.21685 0.99454 0.93098 0.0
N70 N 0.19919 0.02013 0.91107 0.0
N71 N 0.19869 0.00932 0.93692 0.0
H72 H 0.17321 0.03958 0.92591 0.0
H73 H 0.22991 0.99361 0.9072 0.0
C74 C 0.19688 0.9511 0.88884 0.0
O75 O 0.18286 0.95093 0.90035 0.0
N76 N 0.18974 0.04885 0.8678 0.0
C77 C 0.17477 0.07192 0.86168 0.0
C78 C 0.17905 0.07643 0.84595 0.0
C79 C 0.20293 0.03983 0.85585 0.0
N80 N 0.1968 0.05626 0.8423 0.0
C81 C 0.15061 0.04482 0.8995 0.0
C82 C 0.13165 0.99539 0.87873 0.0
C83 C 0.11857 0.0193 0.88774 0.0
C84 C 0.12839 0.04334 0.89854 0.0
C85 C 0.15405 0.99745 0.88021 0.0
N86 N 0.16332 0.02182 0.89063 0.0
H87 H 0.15749 0.06672 0.90664 0.0
H88 H 0.16387 0.98138 0.87219 0.0
H89 H 0.16189 0.08501 0.86824 0.0
H90 H 0.21719 0.02269 0.85723 0.0
O91 O 0.19104 0.0868 0.89542 0.0
O92 O 0.2217 0.05927 0.88889 0.0
O93 O 0.20243 0.98241 0.88254 0.0
C94 C 0.21153 0.08987 0.89312 0.0
H95 H 0.22917 0.98024 0.93765 0.0
H96 H 0.1698 0.09338 0.83787 0.0
H97 H 0.12475 0.97696 0.86997 0.0
H98 H 0.11899 0.06233 0.90576 0.0
Co99 Co 0.81441 0.03653 0.88761 0.0
C100 C 0.81731 0.0336 0.92289 0.0
C101 C 0.7895 0.06231 0.91415 0.0
C102 C 0.78849 0.06219 0.93016 0.0
N103 N 0.80758 0.04465 0.9095 0.0
N104 N 0.80593 0.04411 0.93568 0.0
H105 H 0.8319 0.01731 0.92345 0.0
H106 H 0.77757 0.07392 0.90635 0.0
C107 C 0.80528 0.1136 0.8724 0.0
O108 O 0.81491 0.10456 0.85926 0.0
N109 N 0.8202 0.02823 0.86557 0.0
C110 C 0.83873 0.01743 0.85874 0.0
C111 C 0.83514 0.01213 0.843 0.0
C112 C 0.80551 0.02814 0.854 0.0
N113 N 0.81424 0.01898 0.84002 0.0
C114 C 0.85699 0.02243 0.89772 0.0
C115 C 0.87657 0.08452 0.88428 0.0
C116 C 0.88936 0.05491 0.88997 0.0
C117 C 0.87923 0.02458 0.89743 0.0
C118 C 0.85411 0.08151 0.88501 0.0
N119 N 0.84452 0.04988 0.89109 0.0
H120 H 0.84999 0.99711 0.90252 0.0
H121 H 0.84481 0.10372 0.87985 0.0
H122 H 0.85375 0.01286 0.86472 0.0
H123 H 0.78883 0.03553 0.85578 0.0
O124 O 0.81698 0.98301 0.8909 0.0
O125 O 0.78655 0.01194 0.88516 0.0
O126 O 0.80521 0.09081 0.88402 0.0
C127 C 0.7966 0.98044 0.88819 0.0
H128 H 0.77585 0.07456 0.93719 0.0
H129 H 0.84697 0.00304 0.83451 0.0
H130 H 0.88377 0.10872 0.87853 0.0
H131 H 0.88843 0.00156 0.90242 0.0
Co132 Co 0.18486 0.52481 0.64527 0.0
C133 C 0.17815 0.52278 0.6105 0.0
C134 C 0.20837 0.54666 0.61751 0.0
C135 C 0.20775 0.54577 0.6015 0.0
N136 N 0.18994 0.53218 0.62319 0.0
N137 N 0.18883 0.53078 0.59708 0.0
H138 H 0.1625 0.50954 0.61105 0.0
H139 H 0.22157 0.55657 0.6246 0.0
C140 C 0.18896 0.60354 0.65862 0.0
O141 O 0.17312 0.59667 0.66839 0.0
N142 N 0.18116 0.51774 0.66774 0.0
C143 C 0.16566 0.49917 0.67572 0.0
C144 C 0.17147 0.49672 0.6912 0.0
C145 C 0.1963 0.52575 0.67857 0.0
N146 N 0.19077 0.51337 0.69299 0.0
C147 C 0.14001 0.51041 0.64338 0.0
C148 C 0.12605 0.58253 0.63639 0.0
C149 C 0.11093 0.55357 0.63857 0.0
C150 C 0.11819 0.51717 0.64182 0.0
C151 C 0.14805 0.57454 0.63828 0.0
N152 N 0.15471 0.53905 0.64252 0.0
H153 H 0.1449 0.48165 0.64543 0.0
H154 H 0.15956 0.59674 0.63609 0.0
H155 H 0.15146 0.48659 0.67086 0.0
H156 H 0.21152 0.53895 0.67578 0.0
O157 O 0.18168 0.47132 0.64202 0.0
O158 O 0.2126 0.49953 0.64689 0.0
O159 O 0.19477 0.57847 0.64873 0.0
C160 C 0.20217 0.46827 0.64416 0.0
H161 H 0.22028 0.55541 0.59366 0.0
H162 H 0.16232 0.48305 0.70038 0.0
H163 H 0.12094 0.61088 0.63336 0.0
H164 H 0.10699 0.49387 0.64308 0.0
Co165 Co 0.81077 0.54083 0.65205 0.0
C166 C 0.81929 0.54398 0.61745 0.0
C167 C 0.7873 0.52628 0.62344 0.0
C168 C 0.78904 0.52733 0.60746 0.0
N169 N 0.80615 0.53682 0.62974 0.0
N170 N 0.80911 0.53833 0.60368 0.0
H171 H 0.83575 0.55346 0.6185 0.0
H172 H 0.77318 0.51843 0.63009 0.0
C173 C 0.80651 0.46023 0.66284 0.0
O174 O 0.82428 0.46418 0.67088 0.0
N175 N 0.81409 0.54412 0.67484 0.0
C176 C 0.83168 0.53922 0.68385 0.0
C177 C 0.82577 0.53987 0.69934 0.0
C178 C 0.79769 0.54725 0.68523 0.0
N179 N 0.80439 0.54481 0.70023 0.0
C180 C 0.85569 0.5526 0.65232 0.0
C181 C 0.86858 0.48537 0.63881 0.0
C182 C 0.88411 0.51227 0.64303 0.0
C183 C 0.87739 0.54618 0.64975 0.0
C184 C 0.84676 0.49267 0.64192 0.0
N185 N 0.84065 0.52558 0.6491 0.0
H186 H 0.85106 0.57918 0.65752 0.0
H187 H 0.83482 0.47241 0.63822 0.0
H188 H 0.84769 0.53301 0.67986 0.0
H189 H 0.781 0.54942 0.68191 0.0
O190 O 0.81534 0.59441 0.6499 0.0
O191 O 0.78358 0.56817 0.65376 0.0
O192 O 0.79958 0.48746 0.65442 0.0
C193 C 0.79484 0.59884 0.65157 0.0
H194 H 0.77659 0.51997 0.59919 0.0
H195 H 0.83643 0.53614 0.70918 0.0
H196 H 0.87326 0.45914 0.63323 0.0
H197 H 0.88888 0.5679 0.65288 0.0
Co198 Co 0.19648 0.54853 0.38677 0.0
C199 C 0.18827 0.54941 0.42139 0.0
C200 C 0.22043 0.53334 0.41515 0.0
C201 C 0.21874 0.53324 0.43115 0.0
N202 N 0.20145 0.54364 0.409 0.0
N203 N 0.19856 0.54324 0.43508 0.0
H204 H 0.1717 0.55829 0.42048 0.0
H205 H 0.23458 0.52632 0.40839 0.0
C206 C 0.20086 0.46941 0.37443 0.0
O207 O 0.18487 0.47602 0.36482 0.0
N208 N 0.19278 0.55311 0.3642 0.0
C209 C 0.17564 0.56409 0.35572 0.0
C210 C 0.1812 0.5643 0.34012 0.0
C211 C 0.20854 0.54727 0.35355 0.0
N212 N 0.20191 0.55373 0.33874 0.0
C213 C 0.15171 0.56258 0.38927 0.0
C214 C 0.13835 0.49126 0.39819 0.0
C215 C 0.12324 0.52058 0.39718 0.0
C216 C 0.13022 0.55647 0.3927 0.0
C217 C 0.16008 0.49882 0.39488 0.0
N218 N 0.16645 0.53397 0.38995 0.0
H219 H 0.15636 0.59084 0.386 0.0
H220 H 0.17168 0.47669 0.39683 0.0
H221 H 0.16014 0.57201 0.36021 0.0
H222 H 0.22454 0.53808 0.35665 0.0
O223 O 0.19292 0.60225 0.38905 0.0
O224 O 0.22407 0.57434 0.38463 0.0
O225 O 0.20675 0.49477 0.38415 0.0
C226 C 0.21338 0.6056 0.38679 0.0
H227 H 0.2313 0.52574 0.4393 0.0
H228 H 0.17084 0.57255 0.33058 0.0
H229 H 0.13354 0.46324 0.40194 0.0
H230 H 0.11904 0.57986 0.39177 0.0
Co231 Co 0.81922 0.51388 0.39355 0.0
C232 C 0.82636 0.51548 0.42824 0.0
C233 C 0.79714 0.54245 0.42091 0.0
C234 C 0.79796 0.54329 0.43693 0.0
N235 N 0.81482 0.52495 0.41544 0.0
N236 N 0.81626 0.52638 0.44154 0.0
H237 H 0.84134 0.5 0.42789 0.0
H238 H 0.78426 0.55312 0.4137 0.0
C239 C 0.81512 0.58971 0.3773 0.0
O240 O 0.82818 0.57892 0.36609 0.0
N241 N 0.82243 0.50301 0.37132 0.0
C242 C 0.83942 0.4896 0.36323 0.0
C243 C 0.83385 0.48638 0.34772 0.0
C244 C 0.80671 0.5071 0.36057 0.0
N245 N 0.81328 0.49751 0.34601 0.0
C246 C 0.86346 0.49561 0.39659 0.0
C247 C 0.88013 0.56789 0.39776 0.0
C248 C 0.89423 0.53691 0.39732 0.0
C249 C 0.88553 0.50053 0.39722 0.0
C250 C 0.85783 0.56167 0.39705 0.0
N251 N 0.84979 0.52576 0.39566 0.0
H252 H 0.85762 0.467 0.3961 0.0
H253 H 0.84728 0.58576 0.39767 0.0
H254 H 0.85491 0.48262 0.36794 0.0
H255 H 0.79079 0.51722 0.36342 0.0
O256 O 0.82082 0.46077 0.3982 0.0
O257 O 0.7907 0.4909 0.39279 0.0
O258 O 0.81091 0.56795 0.38884 0.0
C259 C 0.80025 0.45923 0.39628 0.0
H260 H 0.78596 0.55528 0.44464 0.0
H261 H 0.84439 0.47722 0.33839 0.0
H262 H 0.88626 0.59654 0.3983 0.0
H263 H 0.89576 0.47575 0.39745 0.0
Co264 Co 0.68925 0.02778 0.64841 0.0
C265 C 0.69008 0.02382 0.61326 0.0
C266 C 0.68947 0.08071 0.62199 0.0
C267 C 0.69003 0.08213 0.60601 0.0
N268 N 0.68968 0.04423 0.62668 0.0
N269 N 0.69051 0.04649 0.60048 0.0
H270 H 0.69034 0.99325 0.61278 0.0
H271 H 0.68874 0.10511 0.62955 0.0
C272 C 0.69501 0.10176 0.66629 0.0
O273 O 0.68098 0.09173 0.67702 0.0
N274 N 0.68919 0.01209 0.67018 0.0
C275 C 0.67503 0.98976 0.67779 0.0
C276 C 0.68217 0.984 0.69281 0.0
C277 C 0.70496 0.01886 0.68064 0.0
N278 N 0.70097 0.00237 0.69461 0.0
C279 C 0.64485 0.00926 0.64779 0.0
C280 C 0.62773 0.08113 0.64918 0.0
C281 C 0.61382 0.04999 0.64809 0.0
C282 C 0.62275 0.01383 0.64743 0.0
C283 C 0.65008 0.07528 0.6494 0.0
N284 N 0.65846 0.03943 0.64916 0.0
H285 H 0.65082 0.98078 0.64702 0.0
H286 H 0.66037 0.09973 0.64932 0.0
H287 H 0.66071 0.97756 0.67291 0.0
H288 H 0.71925 0.03503 0.67793 0.0
O289 O 0.6871 0.97551 0.64214 0.0
O290 O 0.7177 0.00538 0.64623 0.0
O291 O 0.69893 0.08013 0.65468 0.0
C292 C 0.70784 0.97399 0.64278 0.0
H293 H 0.68978 0.10758 0.59897 0.0
H294 H 0.67403 0.96764 0.70173 0.0
H295 H 0.62144 0.10969 0.6494 0.0
H296 H 0.61268 0.98889 0.64668 0.0
Co297 Co 0.30989 0.03814 0.6478 0.0
C298 C 0.31376 0.0336 0.61223 0.0
C299 C 0.28374 0.01465 0.62169 0.0
C300 C 0.2829 0.01146 0.60575 0.0
N301 N 0.30308 0.02828 0.62591 0.0
N302 N 0.30172 0.02349 0.59973 0.0
H303 H 0.32967 0.04512 0.61115 0.0
H304 H 0.27102 0.00733 0.62978 0.0
C305 C 0.30432 0.95488 0.64553 0.0
O306 O 0.31761 0.9562 0.63359 0.0
N307 N 0.31514 0.04766 0.66968 0.0
C308 C 0.33119 0.06781 0.6761 0.0
C309 C 0.32733 0.07106 0.69193 0.0
C310 C 0.30173 0.03912 0.68157 0.0
N311 N 0.30874 0.05309 0.69535 0.0
C312 C 0.35278 0.04701 0.63692 0.0
C313 C 0.37139 0.9912 0.65494 0.0
C314 C 0.38467 0.01516 0.64605 0.0
C315 C 0.37498 0.04301 0.63685 0.0
C316 C 0.34901 0.99592 0.65451 0.0
N317 N 0.3399 0.02328 0.64535 0.0
H318 H 0.34613 0.071 0.63086 0.0
H319 H 0.33918 0.979 0.66224 0.0
H320 H 0.34444 0.08012 0.66967 0.0
H321 H 0.28664 0.02447 0.67998 0.0
O322 O 0.31351 0.09109 0.64347 0.0
O323 O 0.28253 0.06444 0.64978 0.0
O324 O 0.3001 0.9851 0.65316 0.0
C325 C 0.29317 0.09505 0.64622 0.0
H326 H 0.26946 0.00065 0.59913 0.0
H327 H 0.33734 0.08592 0.70021 0.0
H328 H 0.37822 0.96975 0.66247 0.0
H329 H 0.38453 0.06324 0.63033 0.0
Co330 Co 0.69809 0.02669 0.38784 0.0
C331 C 0.69494 0.0189 0.4233 0.0
C332 C 0.72216 0.99181 0.41287 0.0
C333 C 0.72346 0.98735 0.42874 0.0
N334 N 0.70412 0.01098 0.40927 0.0
N335 N 0.70639 0.00442 0.43533 0.0
H336 H 0.68098 0.03633 0.42499 0.0
H337 H 0.73401 0.98242 0.40447 0.0
C338 C 0.70213 0.94311 0.38584 0.0
O339 O 0.68724 0.9412 0.39671 0.0
N340 N 0.69381 0.04178 0.36639 0.0
C341 C 0.67858 0.06458 0.36044 0.0
C342 C 0.683 0.07032 0.34478 0.0
C343 C 0.70726 0.03415 0.35444 0.0
N344 N 0.70107 0.05116 0.34105 0.0
C345 C 0.65484 0.031 0.39873 0.0
C346 C 0.63683 0.98319 0.3769 0.0
C347 C 0.62333 0.00256 0.38732 0.0
C348 C 0.63268 0.02637 0.39842 0.0
C349 C 0.65915 0.98809 0.37783 0.0
N350 N 0.668 0.01124 0.38891 0.0
H351 H 0.66114 0.0529 0.40611 0.0
H352 H 0.66921 0.97481 0.36912 0.0
H353 H 0.66547 0.07672 0.36706 0.0
H354 H 0.7218 0.01772 0.35575 0.0
O355 O 0.69409 0.07807 0.39445 0.0
O356 O 0.72542 0.05349 0.38761 0.0
O357 O 0.7081 0.97522 0.38046 0.0
C358 C 0.7145 0.08292 0.39227 0.0
H359 H 0.73616 0.97292 0.43495 0.0
H360 H 0.67368 0.0875 0.33683 0.0
H361 H 0.63019 0.96522 0.36787 0.0
H362 H 0.62284 0.04334 0.40617 0.0
Co363 Co 0.32119 0.03622 0.38717 0.0
C364 C 0.32304 0.03345 0.42248 0.0
C365 C 0.29696 0.06622 0.41334 0.0
C366 C 0.29537 0.06595 0.42932 0.0
N367 N 0.31437 0.0462 0.40895 0.0
N368 N 0.3117 0.04531 0.4351 0.0
H369 H 0.33666 0.01471 0.42321 0.0
H370 H 0.28569 0.07921 0.4054 0.0
C371 C 0.31176 0.11135 0.37046 0.0
O372 O 0.32172 0.10082 0.35765 0.0
N373 N 0.3269 0.02596 0.36525 0.0
C374 C 0.34553 0.01606 0.35832 0.0
C375 C 0.34178 0.01007 0.34263 0.0
C376 C 0.31204 0.02458 0.3538 0.0
N377 N 0.3207 0.01558 0.33979 0.0
C378 C 0.3639 0.02457 0.39783 0.0
C379 C 0.38292 0.08696 0.38421 0.0
C380 C 0.39597 0.05957 0.39128 0.0
C381 C 0.38608 0.02864 0.39849 0.0
C382 C 0.36054 0.08219 0.38409 0.0
N383 N 0.35124 0.05063 0.39047 0.0
H384 H 0.35717 0.99907 0.40266 0.0
H385 H 0.35114 0.10324 0.37826 0.0
H386 H 0.36077 0.01299 0.36419 0.0
H387 H 0.29531 0.03148 0.35566 0.0
O388 O 0.32411 0.98301 0.3913 0.0
O389 O 0.29352 0.01083 0.38513 0.0
O390 O 0.31163 0.09008 0.38259 0.0
C391 C 0.30376 0.97977 0.38857 0.0
H392 H 0.28299 0.07969 0.43616 0.0
H393 H 0.35366 0.00181 0.33403 0.0
H394 H 0.38997 0.11143 0.37855 0.0
H395 H 0.3955 0.00644 0.40388 0.0
Co396 Co 0.69109 0.52576 0.15371 0.0
C397 C 0.68395 0.51915 0.11894 0.0
C398 C 0.71524 0.53937 0.12539 0.0
C399 C 0.71444 0.53671 0.10943 0.0
N400 N 0.69628 0.52823 0.13141 0.0
N401 N 0.69485 0.52403 0.10534 0.0
H402 H 0.66765 0.50873 0.11977 0.0
H403 H 0.72884 0.54861 0.13223 0.0
C404 C 0.69569 0.60691 0.1639 0.0
O405 O 0.6795 0.60282 0.1736 0.0
N406 N 0.68723 0.52396 0.17648 0.0
C407 C 0.6693 0.52778 0.1853 0.0
C408 C 0.67478 0.52689 0.20086 0.0
C409 C 0.70335 0.52112 0.18703 0.0
N410 N 0.69619 0.52268 0.20196 0.0
C411 C 0.64626 0.51258 0.15343 0.0
C412 C 0.63293 0.58167 0.14191 0.0
C413 C 0.61754 0.55455 0.14622 0.0
C414 C 0.62449 0.51951 0.15173 0.0
C415 C 0.65486 0.5737 0.14405 0.0
N416 N 0.66118 0.54 0.15043 0.0
H417 H 0.65099 0.4855 0.15809 0.0
H418 H 0.66663 0.59442 0.14047 0.0
H419 H 0.65329 0.53291 0.18112 0.0
H420 H 0.72014 0.51932 0.18389 0.0
O421 O 0.68722 0.47192 0.15245 0.0
O422 O 0.71856 0.49993 0.156 0.0
O423 O 0.70155 0.57954 0.15515 0.0
C424 C 0.70772 0.46862 0.15446 0.0
H425 H 0.72725 0.54396 0.10138 0.0
H426 H 0.66378 0.52952 0.21062 0.0
H427 H 0.62806 0.60877 0.13719 0.0
H428 H 0.6131 0.49754 0.15482 0.0
Co429 Co 0.31501 0.53705 0.14468 0.0
C430 C 0.31785 0.5311 0.10908 0.0
C431 C 0.28815 0.51233 0.11909 0.0
C432 C 0.28695 0.50826 0.10319 0.0
N433 N 0.30753 0.52639 0.12295 0.0
N434 N 0.30558 0.52016 0.09682 0.0
H435 H 0.3337 0.5427 0.1077 0.0
H436 H 0.27567 0.50521 0.12741 0.0
C437 C 0.30949 0.45347 0.14322 0.0
O438 O 0.32194 0.45388 0.13079 0.0
N439 N 0.32089 0.54717 0.16644 0.0
C440 C 0.3372 0.56701 0.17267 0.0
C441 C 0.33376 0.57011 0.18858 0.0
C442 C 0.30773 0.53878 0.1785 0.0
N443 N 0.31514 0.55248 0.19223 0.0
C444 C 0.35737 0.54616 0.13283 0.0
C445 C 0.37693 0.48983 0.15 0.0
C446 C 0.38965 0.5134 0.14052 0.0
C447 C 0.37948 0.54162 0.13181 0.0
C448 C 0.35458 0.49504 0.1505 0.0
N449 N 0.34497 0.52251 0.14167 0.0
H450 H 0.35042 0.57021 0.127 0.0
H451 H 0.34522 0.47824 0.15857 0.0
H452 H 0.35032 0.57925 0.16608 0.0
H453 H 0.29282 0.52346 0.17713 0.0
O454 O 0.31821 0.58989 0.14002 0.0
O455 O 0.28759 0.56297 0.14703 0.0
O456 O 0.30568 0.4842 0.15058 0.0
C457 C 0.29797 0.59363 0.14314 0.0
H458 H 0.27341 0.49685 0.09686 0.0
H459 H 0.34381 0.58545 0.19669 0.0
H460 H 0.38422 0.46824 0.15723 0.0
H461 H 0.38866 0.5616 0.12489 0.0
Co462 Co 0.68944 0.55011 0.89345 0.0
C463 C 0.68584 0.54552 0.92904 0.0
C464 C 0.7177 0.53854 0.92002 0.0
C465 C 0.71851 0.53609 0.93602 0.0
N466 N 0.69728 0.54476 0.91549 0.0
N467 N 0.6985 0.54051 0.94172 0.0
H468 H 0.66877 0.54942 0.92991 0.0
H469 H 0.73119 0.53546 0.91214 0.0
C470 C 0.69702 0.46783 0.89814 0.0
O471 O 0.68528 0.47029 0.91088 0.0
N472 N 0.68304 0.55524 0.87144 0.0
C473 C 0.66579 0.57145 0.86479 0.0
C474 C 0.66893 0.57243 0.84883 0.0
C475 C 0.69646 0.5469 0.85953 0.0
N476 N 0.68831 0.55714 0.8455 0.0
C477 C 0.64714 0.55948 0.90514 0.0
C478 C 0.62841 0.49888 0.89008 0.0
C479 C 0.61535 0.52403 0.89853 0.0
C480 C 0.62509 0.55435 0.90622 0.0
C481 C 0.6507 0.50475 0.88951 0.0
N482 N 0.65986 0.53454 0.89722 0.0
H483 H 0.65392 0.58446 0.91043 0.0
H484 H 0.66034 0.48659 0.88216 0.0
H485 H 0.65213 0.58262 0.87111 0.0
H486 H 0.7123 0.5351 0.86126 0.0
O487 O 0.68531 0.60358 0.89611 0.0
O488 O 0.7163 0.57697 0.88983 0.0
O489 O 0.69968 0.49688 0.88945 0.0
C490 C 0.70543 0.60774 0.89266 0.0
H491 H 0.73273 0.53065 0.9429 0.0
H492 H 0.65782 0.584 0.84039 0.0
H493 H 0.62144 0.47551 0.88368 0.0
H494 H 0.61561 0.57526 0.91241 0.0
Co495 Co 0.31399 0.52261 0.88426 0.0
C496 C 0.31886 0.51934 0.91918 0.0
C497 C 0.29013 0.54725 0.91146 0.0
C498 C 0.29004 0.54643 0.92747 0.0
N499 N 0.30811 0.53037 0.90622 0.0
N500 N 0.308 0.5288 0.93237 0.0
H501 H 0.33386 0.50392 0.91897 0.0
H502 H 0.27768 0.55877 0.90408 0.0
C503 C 0.30975 0.60065 0.8704 0.0
O504 O 0.32597 0.59393 0.86095 0.0
N505 N 0.31854 0.51526 0.86192 0.0
C506 C 0.33501 0.49907 0.85412 0.0
C507 C 0.3299 0.49705 0.83849 0.0
C508 C 0.30359 0.52232 0.85086 0.0
N509 N 0.31013 0.51169 0.83644 0.0
C510 C 0.3587 0.50953 0.88754 0.0
C511 C 0.37158 0.58219 0.89471 0.0
C512 C 0.38689 0.55313 0.89422 0.0
C513 C 0.38015 0.51654 0.89067 0.0
C514 C 0.34991 0.57374 0.89172 0.0
N515 N 0.34381 0.53789 0.88756 0.0
H516 H 0.35425 0.4807 0.88514 0.0
H517 H 0.33816 0.59583 0.8932 0.0
H518 H 0.34958 0.48837 0.85918 0.0
H519 H 0.28794 0.53407 0.85344 0.0
O520 O 0.31767 0.46945 0.88778 0.0
O521 O 0.28656 0.49639 0.88232 0.0
O522 O 0.30377 0.57575 0.88031 0.0
C523 C 0.29731 0.46561 0.88531 0.0
H524 H 0.27762 0.55791 0.93496 0.0
H525 H 0.33997 0.48543 0.82935 0.0
H526 H 0.37621 0.61075 0.8978 0.0
H527 H 0.39146 0.49326 0.89025 0.0
H528 H 0.24596 0.01801 0.19825 0.0
H529 H 0.26739 0.01929 0.22222 0.0
H530 H 0.20995 0.00427 0.24973 0.0
H531 H 0.18845 0.00338 0.22597 0.0
H532 H 0.26443 0.06764 0.24883 0.0
H533 H 0.24906 0.91773 0.2646 0.0
H534 H 0.2438 0.93638 0.24533 0.0
H535 H 0.2252 0.94484 0.26105 0.0
C536 C 0.23785 0.0153 0.20939 0.0
C537 C 0.21545 0.01015 0.21011 0.0
C538 C 0.25015 0.01586 0.22308 0.0
C539 C 0.24032 0.0111 0.23775 0.0
C540 C 0.21795 0.00702 0.23853 0.0
H541 H 0.27827 0.00266 0.33472 0.0
H542 H 0.25966 0.00248 0.30964 0.0
C543 C 0.20567 0.00648 0.22489 0.0
C544 C 0.25331 0.01058 0.25229 0.0
H545 H 0.26556 0.95595 0.284 0.0
C546 C 0.26485 0.04314 0.25647 0.0
C547 C 0.25381 0.97859 0.26224 0.0
C548 C 0.24248 0.94225 0.25805 0.0
C549 C 0.27632 0.04498 0.27059 0.0
C550 C 0.27661 0.01311 0.28064 0.0
C551 C 0.2653 0.98039 0.27632 0.0
C552 C 0.28815 0.01332 0.29583 0.0
C553 C 0.28744 0.08146 0.27486 0.0
C554 C 0.31045 0.0189 0.29644 0.0
C555 C 0.32115 0.0193 0.31081 0.0
C556 C 0.3098 0.0139 0.3249 0.0
C557 C 0.28751 0.00758 0.32418 0.0
C558 C 0.27684 0.00721 0.30982 0.0
H559 H 0.28123 0.10577 0.268 0.0
H560 H 0.28545 0.08778 0.28749 0.0
H561 H 0.30486 0.07875 0.27237 0.0
H562 H 0.3196 0.0229 0.28579 0.0
H563 H 0.33826 0.02446 0.31086 0.0
H564 H 0.78838 -0.00056 0.20563 0.0
H565 H 0.76857 0.99883 0.23034 0.0
H566 H 0.80025 0.10185 0.24426 0.0
H567 H 0.82008 0.10274 0.21957 0.0
H568 H 0.7988 0.04875 0.26794 0.0
H569 H 0.7182 0.06744 0.24164 0.0
H570 H 0.73286 0.02776 0.23402 0.0
H571 H 0.74269 0.07496 0.23075 0.0
C572 C 0.79105 0.02213 0.21389 0.0
C573 C 0.80576 0.05128 0.21051 0.0
C574 C 0.77967 0.02176 0.22802 0.0
C575 C 0.78262 0.05068 0.23905 0.0
C576 C 0.79764 0.07932 0.2359 0.0
H577 H 0.69994 0.10458 0.31817 0.0
H578 H 0.71981 0.10426 0.29347 0.0
C579 C 0.80907 0.07968 0.22179 0.0
C580 C 0.77019 0.05095 0.25392 0.0
H581 H 0.71922 0.05361 0.2688 0.0
C582 C 0.7814 0.04987 0.26813 0.0
C583 C 0.74749 0.05296 0.25418 0.0
C584 C 0.73457 0.05622 0.23935 0.0
C585 C 0.77054 0.05017 0.28256 0.0
C586 C 0.74782 0.05094 0.2828 0.0
C587 C 0.73662 0.05262 0.2686 0.0
C588 C 0.73539 0.05054 0.29768 0.0
C589 C 0.78353 0.05037 0.29742 0.0
C590 C 0.73718 0.0201 0.30814 0.0
C591 C 0.72579 0.02016 0.32226 0.0
C592 C 0.71222 0.05055 0.3262 0.0
C593 C 0.71008 0.08059 0.3155 0.0
C594 C 0.72152 0.08054 0.30139 0.0
H595 H 0.8003 0.05985 0.29529 0.0
H596 H 0.77614 0.06914 0.30633 0.0
H597 H 0.78413 0.02126 0.30226 0.0
H598 H 0.74736 0.99618 0.30536 0.0
H599 H 0.72751 0.9962 0.33004 0.0
H600 H 0.31234 0.10255 0.71952 0.0
H601 H 0.29346 0.10027 0.74455 0.0
H602 H 0.26126 0.99802 0.73032 0.0
H603 H 0.28016 -0.0 0.70522 0.0
H604 H 0.23357 0.05005 0.74334 0.0
H605 H 0.30445 0.03024 0.78148 0.0
H606 H 0.3066 0.07058 0.76881 0.0
H607 H 0.30563 0.02381 0.76056 0.0
C608 C 0.30151 0.07923 0.72176 0.0
C609 C 0.29791 0.05134 0.71032 0.0
C610 C 0.2907 0.07797 0.73611 0.0
C611 C 0.27617 0.04865 0.73944 0.0
C612 C 0.27244 0.02086 0.72804 0.0
H613 H 0.22273 -0.00012 0.83176 0.0
H614 H 0.24144 0.99691 0.80662 0.0
C615 C 0.28322 0.02213 0.71366 0.0
C616 C 0.2644 0.04764 0.7546 0.0
H617 H 0.27152 0.04559 0.79419 0.0
C618 C 0.24187 0.04888 0.75446 0.0
C619 C 0.27519 0.0456 0.76912 0.0
C620 C 0.29929 0.0421 0.77006 0.0
C621 C 0.22988 0.04901 0.76841 0.0
C622 C 0.24071 0.04852 0.78293 0.0
C623 C 0.26322 0.04638 0.78307 0.0
C624 C 0.22902 0.05021 0.79811 0.0
C625 C 0.2057 0.04919 0.76746 0.0
C626 C 0.21595 0.08134 0.8018 0.0
C627 C 0.20526 0.08318 0.8162 0.0
C628 C 0.20753 0.05406 0.82731 0.0
C629 C 0.22075 0.02301 0.82359 0.0
C630 C 0.2314 0.02117 0.80918 0.0
H631 H 0.19999 0.03896 0.75591 0.0
H632 H 0.19849 0.03123 0.77675 0.0
H633 H 0.19979 0.07855 0.76905 0.0
H634 H 0.21426 0.10454 0.79363 0.0
H635 H 0.19558 0.10784 0.81872 0.0
H636 H 0.70306 0.95002 0.71773 0.0
H637 H 0.72337 0.9543 0.74204 0.0
H638 H 0.74896 0.06216 0.72754 0.0
H639 H 0.72821 0.05854 0.7033 0.0
H640 H 0.76794 0.96156 0.74666 0.0
H641 H 0.72297 0.08395 0.77103 0.0
H642 H 0.71323 0.05655 0.75472 0.0
H643 H 0.73407 0.09102 0.75183 0.0
C644 C 0.71285 0.97482 0.71974 0.0
C645 C 0.71384 0.0041 0.7086 0.0
C646 C 0.72458 0.97709 0.7336 0.0
C647 C 0.73744 0.00877 0.7367 0.0
C648 C 0.73887 0.03771 0.72549 0.0
H649 H 0.83238 0.02602 0.81123 0.0
H650 H 0.81423 0.0233 0.78598 0.0
C651 C 0.72717 0.03542 0.71157 0.0
C652 C 0.74926 0.01131 0.75171 0.0
H653 H 0.75271 0.06209 0.78558 0.0
C654 C 0.76467 0.98359 0.75516 0.0
C655 C 0.74476 0.03981 0.76285 0.0
C656 C 0.72774 0.06939 0.76005 0.0
C657 C 0.77579 0.98371 0.76943 0.0
C658 C 0.77153 0.01255 0.78047 0.0
C659 C 0.75604 0.04016 0.77705 0.0
C660 C 0.78262 0.01407 0.79578 0.0
C661 C 0.79164 0.95247 0.77273 0.0
C662 C 0.77084 0.01042 0.80971 0.0
C663 C 0.78118 0.01183 0.82419 0.0
C664 C 0.80354 0.01719 0.82506 0.0
C665 C 0.81525 0.02115 0.81105 0.0
C666 C 0.80489 0.01968 0.79657 0.0
H667 H 0.78946 0.92802 0.76473 0.0
H668 H 0.80819 0.96346 0.7711 0.0
H669 H 0.79008 0.94238 0.78498 0.0
H670 H 0.75363 0.0061 0.80936 0.0
H671 H 0.77164 0.00824 0.83467 0.0
H672 H 0.21909 0.56799 0.70144 0.0
H673 H 0.23977 0.5712 0.72576 0.0
H674 H 0.21179 0.46556 0.7408 0.0
H675 H 0.19092 0.46263 0.71673 0.0
H676 H 0.21141 0.51585 0.76401 0.0
H677 H 0.29274 0.51276 0.73751 0.0
H678 H 0.27636 0.55099 0.73061 0.0
H679 H 0.26883 0.50292 0.7264 0.0
C680 C 0.21752 0.54533 0.70989 0.0
C681 C 0.20334 0.51508 0.70714 0.0
C682 C 0.22939 0.5471 0.72377 0.0
C683 C 0.22761 0.51833 0.73507 0.0
C684 C 0.21346 0.48814 0.73231 0.0
H685 H 0.31355 0.46537 0.81128 0.0
H686 H 0.29329 0.46891 0.78693 0.0
C687 C 0.20147 0.48655 0.71854 0.0
C688 C 0.24004 0.51973 0.74994 0.0
H689 H 0.29087 0.52324 0.76483 0.0
C690 C 0.22879 0.5175 0.76418 0.0
C691 C 0.26275 0.52144 0.7502 0.0
C692 C 0.27592 0.52179 0.73537 0.0
C693 C 0.23955 0.51677 0.77861 0.0
C694 C 0.26223 0.5193 0.77888 0.0
C695 C 0.27349 0.52165 0.76465 0.0
C696 C 0.27465 0.51787 0.79374 0.0
C697 C 0.22651 0.51201 0.79337 0.0
C698 C 0.27116 0.54447 0.80569 0.0
C699 C 0.2827 0.54238 0.81971 0.0
C700 C 0.2982 0.51398 0.82199 0.0
C701 C 0.30191 0.48782 0.80989 0.0
C702 C 0.29027 0.48975 0.79595 0.0
H703 H 0.2103 0.50032 0.79092 0.0
H704 H 0.23473 0.49297 0.80177 0.0
H705 H 0.22438 0.54001 0.79902 0.0
H706 H 0.25961 0.56703 0.80415 0.0
H707 H 0.27972 0.56336 0.82866 0.0
H708 H 0.7666 0.5815 0.70504 0.0
H709 H 0.74575 0.58395 0.72943 0.0
H710 H 0.79184 0.51057 0.75155 0.0
H711 H 0.8127 0.50827 0.7274 0.0
H712 H 0.72639 0.52848 0.74711 0.0
H713 H 0.78999 0.59825 0.78183 0.0
H714 H 0.79126 0.59481 0.76081 0.0
H715 H 0.79894 0.55524 0.77281 0.0
C716 C 0.77221 0.56578 0.71509 0.0
C717 C 0.79149 0.54514 0.71431 0.0
C718 C 0.76033 0.56729 0.72904 0.0
C719 C 0.76748 0.54818 0.74247 0.0
C720 C 0.78632 0.52653 0.74153 0.0
H721 H 0.72186 0.51182 0.83719 0.0
H722 H 0.74028 0.50975 0.81196 0.0
C723 C 0.79825 0.52522 0.72767 0.0
C724 C 0.75527 0.5505 0.75744 0.0
H725 H 0.7604 0.57296 0.79614 0.0
C726 C 0.73377 0.5385 0.7578 0.0
C727 C 0.76487 0.56366 0.77142 0.0
C728 C 0.78746 0.57908 0.77171 0.0
C729 C 0.72184 0.53831 0.7718 0.0
C730 C 0.7316 0.55078 0.7858 0.0
C731 C 0.753 0.56313 0.78542 0.0
C732 C 0.71989 0.55142 0.80098 0.0
C733 C 0.69905 0.52393 0.77161 0.0
C734 C 0.70237 0.57575 0.80325 0.0
C735 C 0.69191 0.57737 0.81775 0.0
C736 C 0.69873 0.55467 0.83035 0.0
C737 C 0.71625 0.53011 0.82793 0.0
C738 C 0.72676 0.5287 0.81345 0.0
H739 H 0.69544 0.5079 0.76077 0.0
H740 H 0.6959 0.5054 0.78186 0.0
H741 H 0.68787 0.54832 0.77228 0.0
H742 H 0.69703 0.59406 0.79388 0.0
H743 H 0.67878 0.59709 0.8191 0.0
H744 H 0.27253 0.543 0.19825 0.0
H745 H 0.25495 0.54126 0.22377 0.0
H746 H 0.31611 0.55646 0.24633 0.0
H747 H 0.33391 0.55799 0.22081 0.0
H748 H 0.26109 0.49241 0.24903 0.0
H749 H 0.27973 0.64068 0.26566 0.0
H750 H 0.28275 0.62349 0.24592 0.0
H751 H 0.30267 0.61265 0.26039 0.0
C752 C 0.28235 0.54566 0.20859 0.0
C753 C 0.30472 0.55077 0.20737 0.0
C754 C 0.27221 0.54484 0.22321 0.0
C755 C 0.28413 0.54932 0.23698 0.0
C756 C 0.30648 0.55382 0.23586 0.0
H757 H 0.24527 0.55974 0.33538 0.0
H758 H 0.26591 0.55627 0.31102 0.0
C759 C 0.31665 0.55467 0.22123 0.0
C760 C 0.27312 0.54888 0.25247 0.0
H761 H 0.26284 0.60266 0.28485 0.0
C762 C 0.26146 0.51653 0.25685 0.0
C763 C 0.27366 0.5803 0.26272 0.0
C764 C 0.28521 0.61641 0.25843 0.0
C765 C 0.25045 0.51464 0.27121 0.0
C766 C 0.25075 0.54625 0.28137 0.0
C767 C 0.26263 0.57842 0.27708 0.0
C768 C 0.23828 0.54699 0.29626 0.0
C769 C 0.23884 0.47858 0.27546 0.0
C770 C 0.21586 0.54317 0.2961 0.0
C771 C 0.20402 0.54494 0.31001 0.0
C772 C 0.2143 0.55084 0.32444 0.0
C773 C 0.23681 0.55465 0.32456 0.0
C774 C 0.24864 0.55293 0.31061 0.0
H775 H 0.24521 0.45397 0.26884 0.0
H776 H 0.24015 0.47252 0.28816 0.0
H777 H 0.22158 0.48161 0.27254 0.0
H778 H 0.20743 0.53929 0.28517 0.0
H779 H 0.18679 0.54155 0.30943 0.0
H780 H 0.6868 0.55585 0.22972 0.0
H781 H 0.70738 0.55204 0.25392 0.0
H782 H 0.75443 0.48201 0.23084 0.0
H783 H 0.73395 0.48603 0.2065 0.0
H784 H 0.71746 0.49097 0.27138 0.0
H785 H 0.79237 0.5604 0.2511 0.0
H786 H 0.76782 0.56193 0.23998 0.0
H787 H 0.78468 0.52064 0.23935 0.0
C788 C 0.70151 0.5396 0.22977 0.0
C789 C 0.70873 0.52127 0.21614 0.0
C790 C 0.71332 0.53757 0.24362 0.0
C791 C 0.73265 0.51719 0.2442 0.0
C792 C 0.73988 0.49872 0.23062 0.0
H793 H 0.82077 0.45888 0.31904 0.0
H794 H 0.801 0.46387 0.29452 0.0
C795 C 0.72813 0.50096 0.21671 0.0
C796 C 0.74471 0.51428 0.25917 0.0
H797 H 0.79352 0.53076 0.27605 0.0
C798 C 0.73406 0.49987 0.2724 0.0
C799 C 0.76639 0.52589 0.26055 0.0
C800 C 0.77845 0.54342 0.24704 0.0
C801 C 0.74454 0.49622 0.28686 0.0
C802 C 0.76622 0.50763 0.28819 0.0
C803 C 0.77691 0.52196 0.27498 0.0
C804 C 0.7781 0.50478 0.30319 0.0
C805 C 0.73246 0.47951 0.30053 0.0
C806 C 0.77193 0.52639 0.31621 0.0
C807 C 0.78333 0.52388 0.33026 0.0
C808 C 0.8012 0.49969 0.3316 0.0
C809 C 0.80731 0.47813 0.31847 0.0
C810 C 0.79595 0.4808 0.30442 0.0
H811 H 0.7177 0.46448 0.29676 0.0
H812 H 0.74276 0.45944 0.3071 0.0
H813 H 0.72767 0.50257 0.30861 0.0
H814 H 0.75843 0.54561 0.31544 0.0
H815 H 0.77835 0.54146 0.33996 0.0
H816 H 0.19046 0.16305 0.18323 0.0
H817 H 0.209 0.22436 0.18323 0.0
H818 H 0.2509 0.18533 0.14644 0.0
H819 H 0.23291 0.12421 0.14655 0.0
H820 H 0.27263 0.22208 0.17042 0.0
H821 H 0.20304 0.30698 0.14977 0.0
H822 H 0.1986 0.27912 0.16707 0.0
H823 H 0.2035 0.25598 0.14872 0.0
C824 C 0.20363 0.16753 0.17516 0.0
C825 C 0.21004 0.13873 0.1648 0.0
C826 C 0.21413 0.20267 0.17511 0.0
C827 C 0.23114 0.20961 0.16467 0.0
C828 C 0.23777 0.18069 0.15454 0.0
H829 H 0.31504 0.38286 0.13082 0.0
H830 H 0.29634 0.3246 0.13795 0.0
C831 C 0.22735 0.14572 0.15459 0.0
C832 C 0.24227 0.24679 0.16413 0.0
H833 H 0.23537 0.33968 0.15421 0.0
C834 C 0.26444 0.24786 0.16699 0.0
C835 C 0.23157 0.28044 0.15969 0.0
C836 C 0.2079 0.28078 0.15601 0.0
C837 C 0.27628 0.28144 0.16526 0.0
C838 C 0.26572 0.31476 0.16031 0.0
C839 C 0.24343 0.31407 0.15798 0.0
C840 C 0.27771 0.34998 0.15657 0.0
C841 C 0.30002 0.28092 0.16869 0.0
C842 C 0.27325 0.38381 0.16453 0.0
C843 C 0.28392 0.41731 0.16046 0.0
C844 C 0.29908 0.41766 0.14822 0.0
C845 C 0.30355 0.38363 0.14034 0.0
C846 C 0.29295 0.3502 0.14446 0.0
H847 H 0.30435 0.25712 0.17656 0.0
H848 H 0.30902 0.27726 0.15758 0.0
H849 H 0.30525 0.30787 0.17415 0.0
H850 H 0.26144 0.38431 0.17385 0.0
H851 H 0.28002 0.44302 0.16673 0.0
H852 H 0.68902 0.67129 0.1812 0.0
H853 H 0.70803 0.73183 0.179 0.0
H854 H 0.7472 0.68614 0.14193 0.0
H855 H 0.72827 0.62587 0.14391 0.0
H856 H 0.7528 0.74663 0.18214 0.0
H857 H 0.72322 0.78437 0.12306 0.0
H858 H 0.71075 0.74819 0.13492 0.0
H859 H 0.73497 0.73807 0.12423 0.0
C860 C 0.70161 0.67417 0.17253 0.0
C861 C 0.70702 0.64374 0.16267 0.0
C862 C 0.71248 0.70876 0.17132 0.0
C863 C 0.72881 0.71363 0.16015 0.0
C864 C 0.73438 0.68323 0.15043 0.0
H865 H 0.81589 0.8887 0.13002 0.0
H866 H 0.79613 0.83015 0.13489 0.0
C867 C 0.72358 0.64869 0.15164 0.0
C868 C 0.74033 0.75025 0.15875 0.0
H869 H 0.75206 0.82118 0.13299 0.0
C870 C 0.75252 0.76316 0.17146 0.0
C871 C 0.73991 0.77171 0.1448 0.0
C872 C 0.72636 0.76014 0.13101 0.0
C873 C 0.76489 0.79637 0.17039 0.0
C874 C 0.76474 0.81748 0.15633 0.0
C875 C 0.75225 0.80485 0.14373 0.0
C876 C 0.77766 0.85247 0.15425 0.0
C877 C 0.77852 0.8079 0.18413 0.0
C878 C 0.77393 0.88449 0.16358 0.0
C879 C 0.78529 0.91807 0.16086 0.0
C880 C 0.80045 0.92033 0.14867 0.0
C881 C 0.80436 0.888 0.13952 0.0
C882 C 0.79304 0.85448 0.14226 0.0
H883 H 0.78098 0.78409 0.19242 0.0
H884 H 0.79445 0.81836 0.18017 0.0
H885 H 0.7704 0.83114 0.19054 0.0
H886 H 0.76185 0.88383 0.1727 0.0
H887 H 0.78179 0.9425 0.16807 0.0
H888 H 0.19054 0.88057 0.90105 0.0
H889 H 0.21095 0.82314 0.89556 0.0
H890 H 0.24859 0.88315 0.8612 0.0
H891 H 0.22812 0.941 0.86654 0.0
H892 H 0.23457 0.8073 0.85218 0.0
H893 H 0.27423 0.81136 0.91015 0.0
H894 H 0.24547 0.8145 0.91095 0.0
H895 H 0.26067 0.85182 0.90188 0.0
C896 C 0.20301 0.8816 0.89222 0.0
C897 C 0.20782 0.91551 0.88433 0.0
C898 C 0.21473 0.84876 0.88915 0.0
C899 C 0.23151 0.84913 0.87818 0.0
C900 C 0.23578 0.88241 0.86979 0.0
H901 H 0.3184 0.66256 0.85189 0.0
H902 H 0.30052 0.72441 0.85257 0.0
C903 C 0.22407 0.9154 0.87286 0.0
C904 C 0.24492 0.81496 0.87594 0.0
H905 H 0.27806 0.75457 0.89552 0.0
C906 C 0.24429 0.7959 0.86156 0.0
C907 C 0.25767 0.80041 0.88819 0.0
C908 C 0.25977 0.82072 0.90363 0.0
C909 C 0.25531 0.76156 0.85938 0.0
C910 C 0.26748 0.7464 0.87183 0.0
C911 C 0.26864 0.76618 0.88602 0.0
C912 C 0.27807 0.70892 0.87084 0.0
C913 C 0.25315 0.741 0.84402 0.0
C914 C 0.27157 0.67996 0.88101 0.0
C915 C 0.28177 0.64485 0.88072 0.0
C916 C 0.29882 0.6379 0.87029 0.0
C917 C 0.30529 0.66694 0.86004 0.0
C918 C 0.29502 0.70221 0.86034 0.0
H919 H 0.23998 0.75274 0.83676 0.0
H920 H 0.26837 0.74367 0.83734 0.0
H921 H 0.25008 0.71041 0.846 0.0
H922 H 0.25857 0.68457 0.88922 0.0
H923 H 0.27632 0.62323 0.88878 0.0
H924 H 0.69793 0.40269 0.91536 0.0
H925 H 0.71665 0.34379 0.90925 0.0
H926 H 0.7384 0.39132 0.86554 0.0
H927 H 0.72006 0.45073 0.8717 0.0
H928 H 0.71171 0.29466 0.88477 0.0
H929 H 0.79421 0.35436 0.88464 0.0
H930 H 0.77142 0.38007 0.89219 0.0
H931 H 0.776 0.3773 0.87146 0.0
C932 C 0.70668 0.40069 0.90443 0.0
C933 C 0.7076 0.43155 0.89407 0.0
C934 C 0.71738 0.36696 0.90096 0.0
C935 C 0.72924 0.36334 0.88707 0.0
C936 C 0.72978 0.39376 0.87651 0.0
H937 H 0.80291 0.17095 0.85077 0.0
H938 H 0.78433 0.23177 0.85348 0.0
C939 C 0.71916 0.42763 0.88 0.0
C940 C 0.74081 0.32749 0.88367 0.0
H941 H 0.79069 0.29006 0.87737 0.0
C942 C 0.72898 0.29369 0.88314 0.0
C943 C 0.76335 0.32624 0.88151 0.0
C944 C 0.77706 0.36134 0.88261 0.0
C945 C 0.73905 0.25871 0.88056 0.0
C946 C 0.76158 0.25743 0.87862 0.0
C947 C 0.7734 0.29122 0.87884 0.0
C948 C 0.77322 0.22104 0.87704 0.0
C949 C 0.72551 0.22335 0.87989 0.0
C950 C 0.77346 0.19526 0.88949 0.0
C951 C 0.78411 0.16067 0.88804 0.0
C952 C 0.79477 0.15108 0.87406 0.0
C953 C 0.79482 0.17733 0.86168 0.0
C954 C 0.78422 0.21209 0.86319 0.0
H955 H 0.70833 0.22994 0.87778 0.0
H956 H 0.73129 0.20406 0.87054 0.0
H957 H 0.72669 0.20814 0.89121 0.0
H958 H 0.76537 0.20192 0.90038 0.0
H959 H 0.78384 0.14139 0.89787 0.0
H960 H 0.75356 0.96398 0.88548 0.0
H961 H 0.73688 0.90085 0.88633 0.0
H962 H 0.79937 0.84997 0.89149 0.0
H963 H 0.81595 0.91221 0.89098 0.0
H964 H 0.74338 0.83814 0.86702 0.0
H965 H 0.7665 0.80449 0.92794 0.0
H966 H 0.76793 0.85182 0.92006 0.0
H967 H 0.78898 0.81827 0.9161 0.0
C968 C 0.76366 0.93928 0.88687 0.0
C969 C 0.78601 0.94307 0.88834 0.0
C970 C 0.75415 0.90332 0.88733 0.0
C971 C 0.76688 0.87084 0.88932 0.0
C972 C 0.7892 0.87468 0.89039 0.0
H973 H 0.7479 0.62711 0.8893 0.0
H974 H 0.76294 0.69141 0.88788 0.0
C975 C 0.79865 0.91036 0.89001 0.0
C976 C 0.75715 0.83265 0.88997 0.0
H977 H 0.75466 0.75258 0.91229 0.0
C978 C 0.74565 0.81955 0.87697 0.0
C979 C 0.7602 0.80843 0.90297 0.0
C980 C 0.77139 0.82157 0.91762 0.0
C981 C 0.73757 0.78248 0.87648 0.0
C982 C 0.74105 0.75813 0.88934 0.0
C983 C 0.75232 0.77129 0.90239 0.0
C984 C 0.73216 0.71941 0.88978 0.0
C985 C 0.72567 0.76928 0.86216 0.0
C986 C 0.71001 0.71419 0.89147 0.0
C987 C 0.70147 0.67781 0.89241 0.0
C988 C 0.71494 0.64592 0.89164 0.0
C989 C 0.73717 0.65117 0.8899 0.0
C990 C 0.74575 0.68776 0.88909 0.0
H991 H 0.72778 0.789 0.85215 0.0
H992 H 0.73123 0.74068 0.85861 0.0
H993 H 0.70829 0.76734 0.8649 0.0
H994 H 0.69934 0.73833 0.89221 0.0
H995 H 0.68426 0.67474 0.89373 0.0
H996 H 0.31832 0.39873 0.88506 0.0
H997 H 0.30325 0.33537 0.88645 0.0
H998 H 0.23939 0.38239 0.88841 0.0
H999 H 0.2545 0.44655 0.88657 0.0
H1000 H 0.28003 0.30416 0.9096 0.0
H1001 H 0.23338 0.30349 0.85437 0.0
H1002 H 0.25294 0.33959 0.85877 0.0
H1003 H 0.22662 0.34145 0.86741 0.0
C1004 C 0.30103 0.39573 0.8857 0.0
C1005 C 0.28755 0.42761 0.88571 0.0
C1006 C 0.29246 0.35942 0.8865 0.0
C1007 C 0.27022 0.35409 0.88739 0.0
C1008 C 0.25661 0.38585 0.88741 0.0
H1009 H 0.19277 0.15578 0.90179 0.0
H1010 H 0.20805 0.21919 0.90089 0.0
C1011 C 0.26522 0.42243 0.88644 0.0
C1012 C 0.26164 0.31514 0.88877 0.0
H1013 H 0.22916 0.25034 0.87107 0.0
C1014 C 0.26896 0.29236 0.90114 0.0
C1015 C 0.24731 0.29975 0.87767 0.0
C1016 C 0.23973 0.32216 0.86372 0.0
C1017 C 0.26218 0.25472 0.90276 0.0
C1018 C 0.24776 0.23958 0.89175 0.0
C1019 C 0.24033 0.26224 0.87944 0.0
C1020 C 0.23938 0.20069 0.89319 0.0
C1021 C 0.27016 0.23143 0.91633 0.0
C1022 C 0.25215 0.1693 0.88933 0.0
C1023 C 0.24344 0.13276 0.88977 0.0
C1024 C 0.22188 0.12736 0.8941 0.0
C1025 C 0.20943 0.15893 0.89838 0.0
C1026 C 0.21808 0.19523 0.89786 0.0
H1027 H 0.2796 0.24856 0.92475 0.0
H1028 H 0.25641 0.21828 0.92259 0.0
H1029 H 0.28049 0.20821 0.91188 0.0
H1030 H 0.26865 0.17319 0.88563 0.0
H1031 H 0.25335 0.10898 0.88635 0.0
H1032 H 0.68725 0.40111 0.15626 0.0
H1033 H 0.70297 0.33806 0.15609 0.0
H1034 H 0.76632 0.3869 0.15301 0.0
H1035 H 0.7506 0.45062 0.15356 0.0
H1036 H 0.72658 0.3057 0.13324 0.0
H1037 H 0.77342 0.31122 0.18829 0.0
H1038 H 0.75333 0.34605 0.18346 0.0
H1039 H 0.77962 0.34861 0.1748 0.0
C1040 C 0.70456 0.39855 0.15566 0.0
C1041 C 0.71773 0.43082 0.15493 0.0
C1042 C 0.7135 0.36244 0.15556 0.0
C1043 C 0.7358 0.35774 0.1547 0.0
C1044 C 0.74908 0.3899 0.15401 0.0
H1045 H 0.81778 0.16419 0.143 0.0
H1046 H 0.80157 0.2268 0.14473 0.0
C1047 C 0.7401 0.42624 0.15424 0.0
C1048 C 0.74485 0.31903 0.15387 0.0
H1049 H 0.77891 0.25755 0.17203 0.0
C1050 C 0.73794 0.2951 0.14177 0.0
C1051 C 0.75959 0.30525 0.16505 0.0
C1052 C 0.7668 0.32895 0.17872 0.0
C1053 C 0.74562 0.25795 0.14042 0.0
C1054 C 0.76049 0.24437 0.1515 0.0
C1055 C 0.76742 0.26818 0.16359 0.0
C1056 C 0.76983 0.20605 0.15032 0.0
C1057 C 0.73819 0.23371 0.12697 0.0
C1058 C 0.75726 0.17363 0.15292 0.0
C1059 C 0.7665 0.13758 0.15198 0.0
C1060 C 0.78841 0.1336 0.14839 0.0
C1061 C 0.80083 0.16624 0.14573 0.0
C1062 C 0.79164 0.20208 0.14676 0.0
H1063 H 0.72944 0.25041 0.11802 0.0
H1064 H 0.75208 0.21952 0.1213 0.0
H1065 H 0.72727 0.21135 0.13145 0.0
H1066 H 0.74039 0.17627 0.15583 0.0
H1067 H 0.75658 0.11295 0.15414 0.0
H1068 H 0.1892 0.90219 0.14088 0.0
H1069 H 0.20449 0.83889 0.14041 0.0
H1070 H 0.26799 0.88602 0.14536 0.0
H1071 H 0.25262 0.94998 0.1463 0.0
H1072 H 0.23242 0.80582 0.12072 0.0
H1073 H 0.26643 0.80961 0.18061 0.0
H1074 H 0.24809 0.84516 0.17354 0.0
H1075 H 0.27599 0.84682 0.16811 0.0
C1076 C 0.20644 0.89924 0.14186 0.0
C1077 C 0.21972 0.93112 0.14373 0.0
C1078 C 0.21515 0.86295 0.14157 0.0
C1079 C 0.23733 0.85763 0.14311 0.0
C1080 C 0.25076 0.88943 0.14452 0.0
H1081 H 0.31806 0.66086 0.1387 0.0
H1082 H 0.30236 0.724 0.13868 0.0
C1083 C 0.242 0.92594 0.14493 0.0
C1084 C 0.24612 0.81863 0.14321 0.0
H1085 H 0.27475 0.75575 0.16518 0.0
C1086 C 0.2416 0.79484 0.13047 0.0
C1087 C 0.25793 0.80423 0.15601 0.0
C1088 C 0.26225 0.82762 0.17042 0.0
C1089 C 0.24888 0.75727 0.13009 0.0
C1090 C 0.2609 0.74319 0.14277 0.0
C1091 C 0.26544 0.76681 0.15551 0.0
C1092 C 0.26992 0.70454 0.14266 0.0
C1093 C 0.24404 0.73298 0.11605 0.0
C1094 C 0.25678 0.6727 0.14496 0.0
C1095 C 0.26574 0.63632 0.14507 0.0
C1096 C 0.28791 0.63147 0.1428 0.0
C1097 C 0.3009 0.66356 0.14043 0.0
C1098 C 0.292 0.69972 0.14044 0.0
H1099 H 0.23652 0.74939 0.10644 0.0
H1100 H 0.25902 0.7197 0.11161 0.0
H1101 H 0.23294 0.70987 0.11952 0.0
H1102 H 0.23967 0.67605 0.14679 0.0
H1103 H 0.25537 0.61213 0.14696 0.0
H1104 H 0.18113 0.66508 0.67749 0.0
H1105 H 0.19934 0.72669 0.67694 0.0
H1106 H 0.2401 0.68761 0.63949 0.0
H1107 H 0.22198 0.6265 0.6398 0.0
H1108 H 0.24323 0.74481 0.681 0.0
H1109 H 0.21522 0.78585 0.62198 0.0
H1110 H 0.20322 0.74756 0.63293 0.0
H1111 H 0.22791 0.7403 0.62239 0.0
C1112 C 0.19392 0.66966 0.6691 0.0
C1113 C 0.19994 0.64088 0.6586 0.0
C1114 C 0.20433 0.70486 0.66883 0.0
C1115 C 0.22083 0.71198 0.65799 0.0
C1116 C 0.22711 0.68307 0.64772 0.0
H1117 H 0.30934 0.88626 0.63135 0.0
H1118 H 0.28877 0.82846 0.63581 0.0
C1119 C 0.21675 0.64802 0.64797 0.0
C1120 C 0.23173 0.74939 0.65737 0.0
H1121 H 0.2441 0.82195 0.63254 0.0
C1122 C 0.24324 0.76195 0.67048 0.0
C1123 C 0.23166 0.77179 0.64366 0.0
C1124 C 0.21867 0.76093 0.62949 0.0
C1125 C 0.25544 0.79549 0.66998 0.0
C1126 C 0.25589 0.81719 0.65608 0.0
C1127 C 0.24389 0.80513 0.64315 0.0
C1128 C 0.26926 0.85183 0.65439 0.0
C1129 C 0.26837 0.8067 0.68412 0.0
C1130 C 0.26525 0.88422 0.66345 0.0
C1131 C 0.27705 0.91747 0.66093 0.0
C1132 C 0.293 0.91898 0.64925 0.0
C1133 C 0.29721 0.8862 0.64044 0.0
C1134 C 0.28543 0.85309 0.64296 0.0
H1135 H 0.2699 0.78307 0.69261 0.0
H1136 H 0.28469 0.81618 0.68062 0.0
H1137 H 0.2603 0.83064 0.69011 0.0
H1138 H 0.25261 0.88411 0.67216 0.0
H1139 H 0.27332 0.94223 0.66788 0.0
H1140 H 0.76573 0.44618 0.65247 0.0
H1141 H 0.74543 0.38712 0.65432 0.0
H1142 H 0.7997 0.33289 0.67606 0.0
H1143 H 0.81981 0.39222 0.67477 0.0
H1144 H 0.75155 0.3205 0.6418 0.0
H1145 H 0.75347 0.30269 0.70599 0.0
H1146 H 0.76185 0.34589 0.69653 0.0
H1147 H 0.77994 0.30626 0.69786 0.0
C1148 C 0.77333 0.42174 0.65772 0.0
C1149 C 0.79437 0.42406 0.66356 0.0
C1150 C 0.76168 0.38793 0.65878 0.0
C1151 C 0.7708 0.35559 0.66564 0.0
C1152 C 0.79199 0.35764 0.67118 0.0
H1153 H 0.7293 0.12556 0.64903 0.0
H1154 H 0.74676 0.18722 0.64933 0.0
C1155 C 0.80357 0.39157 0.67029 0.0
C1156 C 0.75842 0.31945 0.66645 0.0
H1157 H 0.74265 0.24852 0.69118 0.0
C1158 C 0.74948 0.30497 0.65264 0.0
C1159 C 0.75528 0.29935 0.68062 0.0
C1160 C 0.76294 0.31455 0.69611 0.0
C1161 C 0.73807 0.27065 0.65251 0.0
C1162 C 0.73605 0.24943 0.6665 0.0
C1163 C 0.74443 0.26441 0.6804 0.0
C1164 C 0.72571 0.21137 0.66684 0.0
C1165 C 0.72802 0.25786 0.63737 0.0
C1166 C 0.70859 0.20355 0.67711 0.0
C1167 C 0.69873 0.16782 0.67718 0.0
C1168 C 0.70578 0.13926 0.66693 0.0
C1169 C 0.72322 0.14699 0.65693 0.0
C1170 C 0.73317 0.18243 0.657 0.0
H1171 H 0.72484 0.28218 0.62947 0.0
H1172 H 0.73924 0.23851 0.63123 0.0
H1173 H 0.7127 0.24261 0.63947 0.0
H1174 H 0.70265 0.22527 0.68493 0.0
H1175 H 0.68539 0.1628 0.68505 0.0
H1176 H 0.19292 0.4086 0.35539 0.0
H1177 H 0.21171 0.3478 0.35492 0.0
H1178 H 0.25248 0.38499 0.39253 0.0
H1179 H 0.23398 0.44596 0.39301 0.0
H1180 H 0.27504 0.35165 0.36792 0.0
H1181 H 0.20674 0.26142 0.38679 0.0
H1182 H 0.20119 0.29099 0.37021 0.0
H1183 H 0.20656 0.31225 0.38886 0.0
C1184 C 0.20581 0.40382 0.36363 0.0
C1185 C 0.21187 0.43217 0.37428 0.0
C1186 C 0.21647 0.36895 0.36338 0.0
C1187 C 0.23332 0.36166 0.37382 0.0
C1188 C 0.23947 0.38995 0.3844 0.0
H1189 H 0.29178 0.14479 0.3955 0.0
H1190 H 0.27333 0.20578 0.39623 0.0
C1191 C 0.22883 0.42478 0.38467 0.0
C1192 C 0.24491 0.32494 0.3735 0.0
H1193 H 0.23823 0.22966 0.37829 0.0
C1194 C 0.26701 0.32497 0.37021 0.0
C1195 C 0.23446 0.2902 0.37667 0.0
C1196 C 0.21097 0.28854 0.38098 0.0
C1197 C 0.27888 0.29117 0.3698 0.0
C1198 C 0.2683 0.25635 0.37255 0.0
C1199 C 0.24627 0.25635 0.37605 0.0
C1200 C 0.27987 0.21961 0.37205 0.0
C1201 C 0.3027 0.29309 0.36669 0.0
C1202 C 0.28959 0.20699 0.35819 0.0
C1203 C 0.30015 0.17206 0.35771 0.0
C1204 C 0.30112 0.14893 0.37109 0.0
C1205 C 0.29134 0.16173 0.38497 0.0
C1206 C 0.28077 0.19663 0.38542 0.0
H1207 H 0.30918 0.32197 0.36869 0.0
H1208 H 0.31153 0.27284 0.37424 0.0
H1209 H 0.30586 0.28543 0.35432 0.0
H1210 H 0.28876 0.22395 0.34765 0.0
H1211 H 0.30735 0.16305 0.3468 0.0
H1212 H 0.80657 0.6367 0.40167 0.0
H1213 H 0.78828 0.69785 0.40093 0.0
H1214 H 0.78115 0.68765 0.35094 0.0
H1215 H 0.80089 0.62766 0.35157 0.0
H1216 H 0.78879 0.75669 0.35703 0.0
H1217 H 0.72596 0.71211 0.39872 0.0
H1218 H 0.7518 0.7091 0.40771 0.0
H1219 H 0.74556 0.67942 0.39117 0.0
C1220 C 0.80119 0.6477 0.39052 0.0
C1221 C 0.805 0.62745 0.37669 0.0
C1222 C 0.79052 0.68247 0.39012 0.0
C1223 C 0.78258 0.69695 0.37595 0.0
C1224 C 0.78691 0.67709 0.36205 0.0
H1225 H 0.68495 0.87331 0.38146 0.0
H1226 H 0.70409 0.81405 0.37657 0.0
C1227 C 0.79819 0.64281 0.3624 0.0
C1228 C 0.76982 0.73268 0.37567 0.0
H1229 H 0.7286 0.77858 0.39392 0.0
C1230 C 0.77546 0.76129 0.36499 0.0
C1231 C 0.75202 0.7386 0.38573 0.0
C1232 C 0.74334 0.70797 0.39633 0.0
C1233 C 0.7642 0.79577 0.36435 0.0
C1234 C 0.74744 0.80272 0.37522 0.0
C1235 C 0.74156 0.77377 0.38567 0.0
C1236 C 0.73575 0.83956 0.37617 0.0
C1237 C 0.77014 0.82379 0.35174 0.0
C1238 C 0.74695 0.87406 0.37723 0.0
C1239 C 0.73589 0.90814 0.37943 0.0
C1240 C 0.71349 0.90822 0.38123 0.0
C1241 C 0.70224 0.87395 0.38008 0.0
C1242 C 0.71321 0.84008 0.37736 0.0
H1243 H 0.77694 0.80923 0.34134 0.0
H1244 H 0.75608 0.84071 0.34796 0.0
H1245 H 0.78266 0.84325 0.35624 0.0
H1246 H 0.76431 0.87461 0.37695 0.0
H1247 H 0.74496 0.93415 0.38058 0.0
H1248 H 0.75975 0.44059 0.38607 0.0
H1249 H 0.74315 0.37731 0.38644 0.0
H1250 H 0.79921 0.33226 0.40928 0.0
H1251 H 0.81571 0.39471 0.40901 0.0
H1252 H 0.76158 0.30976 0.37243 0.0
H1253 H 0.74847 0.29376 0.43626 0.0
H1254 H 0.75257 0.33921 0.42705 0.0
H1255 H 0.77506 0.30889 0.43102 0.0
C1256 C 0.76833 0.41724 0.39137 0.0
C1257 C 0.78899 0.42257 0.39753 0.0
C1258 C 0.75891 0.38118 0.39151 0.0
C1259 C 0.76991 0.35026 0.39803 0.0
C1260 C 0.79033 0.35582 0.40441 0.0
H1261 H 0.75456 0.10764 0.38329 0.0
H1262 H 0.76836 0.17277 0.38467 0.0
C1263 C 0.79976 0.39155 0.40418 0.0
C1264 C 0.76075 0.31161 0.39757 0.0
H1265 H 0.7462 0.23757 0.42096 0.0
C1266 C 0.75802 0.29402 0.38302 0.0
C1267 C 0.75612 0.29127 0.41141 0.0
C1268 C 0.758 0.30929 0.42733 0.0
C1269 C 0.75121 0.25621 0.38195 0.0
C1270 C 0.7473 0.23545 0.39582 0.0
C1271 C 0.74955 0.25338 0.41036 0.0
C1272 C 0.73973 0.19571 0.39549 0.0
C1273 C 0.748 0.23891 0.36601 0.0
C1274 C 0.71943 0.18692 0.40157 0.0
C1275 C 0.71163 0.14999 0.40087 0.0
C1276 C 0.72403 0.12094 0.39416 0.0
C1277 C 0.74468 0.12945 0.38852 0.0
C1278 C 0.75247 0.16664 0.38918 0.0
H1279 H 0.74717 0.26078 0.3567 0.0
H1280 H 0.7617 0.2199 0.36333 0.0
H1281 H 0.73307 0.22177 0.36572 0.0
H1282 H 0.7094 0.20886 0.40657 0.0
H1283 H 0.69568 0.14437 0.40538 0.0
H1284 H 0.19291 0.67321 0.38689 0.0
H1285 H 0.2086 0.73625 0.38663 0.0
H1286 H 0.27208 0.68754 0.38626 0.0
H1287 H 0.25634 0.62376 0.38611 0.0
H1288 H 0.23411 0.76925 0.40794 0.0
H1289 H 0.27598 0.76282 0.35063 0.0
H1290 H 0.25647 0.72791 0.35661 0.0
H1291 H 0.28347 0.72584 0.36393 0.0
C1292 C 0.21024 0.67577 0.38668 0.0
C1293 C 0.22342 0.64348 0.38649 0.0
C1294 C 0.21917 0.71191 0.38654 0.0
C1295 C 0.24149 0.71669 0.38624 0.0
C1296 C 0.25479 0.68452 0.38615 0.0
H1297 H 0.32329 0.91214 0.39323 0.0
H1298 H 0.3073 0.84923 0.39265 0.0
C1299 C 0.24581 0.64813 0.38616 0.0
C1300 C 0.25057 0.75551 0.38649 0.0
H1301 H 0.28257 0.81705 0.36628 0.0
C1302 C 0.24462 0.77974 0.39879 0.0
C1303 C 0.2642 0.76923 0.3745 0.0
C1304 C 0.27027 0.74526 0.36058 0.0
C1305 C 0.25218 0.81711 0.39952 0.0
C1306 C 0.26593 0.83062 0.38763 0.0
C1307 C 0.27193 0.8065 0.37535 0.0
C1308 C 0.27513 0.86918 0.38812 0.0
C1309 C 0.24579 0.84172 0.41316 0.0
C1310 C 0.26226 0.9013 0.38573 0.0
C1311 C 0.27139 0.93757 0.38599 0.0
C1312 C 0.29348 0.94207 0.3887 0.0
C1313 C 0.3062 0.90972 0.39116 0.0
C1314 C 0.29713 0.87369 0.3908 0.0
H1315 H 0.2377 0.8253 0.42256 0.0
H1316 H 0.26011 0.85599 0.41814 0.0
H1317 H 0.2346 0.86403 0.40907 0.0
H1318 H 0.24524 0.89826 0.38351 0.0
H1319 H 0.26123 0.96194 0.384 0.0
H1320 H 0.81513 0.6638 0.64335 0.0
H1321 H 0.80014 0.72724 0.64127 0.0
H1322 H 0.73808 0.68481 0.65521 0.0
H1323 H 0.75305 0.62052 0.6573 0.0
H1324 H 0.76365 0.74998 0.62174 0.0
H1325 H 0.75225 0.77657 0.68538 0.0
H1326 H 0.77025 0.74059 0.67807 0.0
H1327 H 0.74181 0.73292 0.67766 0.0
C1328 C 0.79828 0.66779 0.64603 0.0
C1329 C 0.78527 0.63709 0.65054 0.0
C1330 C 0.78975 0.70413 0.64479 0.0
C1331 C 0.76808 0.71074 0.64817 0.0
C1332 C 0.75493 0.68026 0.65268 0.0
H1333 H 0.69234 0.91024 0.62924 0.0
H1334 H 0.70806 0.84693 0.62971 0.0
C1335 C 0.76346 0.64361 0.65383 0.0
C1336 C 0.75946 0.74965 0.64673 0.0
H1337 H 0.74147 0.82494 0.66806 0.0
C1338 C 0.75871 0.76636 0.63185 0.0
C1339 C 0.75336 0.77103 0.65997 0.0
C1340 C 0.75453 0.75465 0.67622 0.0
C1341 C 0.75179 0.80387 0.62984 0.0
C1342 C 0.74546 0.82512 0.64306 0.0
C1343 C 0.7464 0.80854 0.65796 0.0
C1344 C 0.73703 0.86416 0.64161 0.0
C1345 C 0.75152 0.82071 0.61364 0.0
C1346 C 0.74824 0.89495 0.64801 0.0
C1347 C 0.73936 0.93138 0.64764 0.0
C1348 C 0.71898 0.93731 0.64109 0.0
C1349 C 0.7081 0.90655 0.63434 0.0
C1350 C 0.71706 0.87035 0.63458 0.0
H1351 H 0.76108 0.80366 0.60523 0.0
H1352 H 0.73472 0.82185 0.60939 0.0
H1353 H 0.75789 0.85007 0.61378 0.0
H1354 H 0.76366 0.89063 0.65355 0.0
H1355 H 0.74798 0.95448 0.65307 0.0
H1356 H 0.24497 0.4508 0.64748 0.0
H1357 H 0.2612 0.38736 0.64702 0.0
H1358 H 0.19866 0.33786 0.6401 0.0
H1359 H 0.18253 0.40049 0.64023 0.0
H1360 H 0.25322 0.32629 0.66651 0.0
H1361 H 0.23318 0.28899 0.60539 0.0
H1362 H 0.23152 0.33681 0.61269 0.0
H1363 H 0.21014 0.30372 0.61644 0.0
C1364 C 0.23476 0.42635 0.64574 0.0
C1365 C 0.21251 0.43066 0.64378 0.0
C1366 C 0.24402 0.3902 0.64549 0.0
C1367 C 0.23116 0.35797 0.64322 0.0
C1368 C 0.20896 0.36234 0.64145 0.0
H1369 H 0.25047 0.11391 0.64887 0.0
H1370 H 0.23498 0.17799 0.64839 0.0
C1371 C 0.19975 0.39825 0.64163 0.0
C1372 C 0.24063 0.31949 0.64326 0.0
H1373 H 0.24407 0.23797 0.62193 0.0
C1374 C 0.25139 0.3071 0.65671 0.0
C1375 C 0.23817 0.29446 0.63047 0.0
C1376 C 0.22782 0.30676 0.61537 0.0
C1377 C 0.25935 0.27004 0.65783 0.0
C1378 C 0.25649 0.24491 0.64518 0.0
C1379 C 0.24592 0.25728 0.63169 0.0
C1380 C 0.26552 0.20628 0.64543 0.0
C1381 C 0.27057 0.25772 0.67258 0.0
C1382 C 0.28768 0.20127 0.64373 0.0
C1383 C 0.29648 0.16503 0.64388 0.0
C1384 C 0.28328 0.13302 0.64578 0.0
C1385 C 0.26101 0.13805 0.64741 0.0
C1386 C 0.25217 0.17451 0.64714 0.0
H1387 H 0.26847 0.27846 0.68221 0.0
H1388 H 0.26442 0.22976 0.67649 0.0
H1389 H 0.288 0.25463 0.67018 0.0
H1390 H 0.29818 0.22548 0.64226 0.0
H1391 H 0.3137 0.16219 0.6426 0.0
H1392 H 0.91867 0.02963 0.11879 0.0
H1393 H 0.9576 0.03812 0.11991 0.0
H1394 H 0.95638 0.01584 0.16945 0.0
H1395 H 0.91735 0.00784 0.16849 0.0
H1396 H 0.97874 0.09389 0.13885 0.0
H1397 H 0.00529 0.94748 0.15253 0.0
H1398 H 0.97913 0.95784 0.14455 0.0
H1399 H 0.9844 0.96592 0.1649 0.0
C1400 C 0.9267 0.0262 0.12991 0.0
C1401 C 0.91487 0.01815 0.14357 0.0
C1402 C 0.94894 0.03105 0.13052 0.0
C1403 C 0.95986 0.02756 0.14474 0.0
C1404 C 0.94827 0.01818 0.15831 0.0
H1405 H 0.09275 0.04613 0.17227 0.0
H1406 H 0.05351 0.04373 0.17185 0.0
C1407 C 0.92598 0.01342 0.15773 0.0
C1408 C 0.98319 0.03564 0.14549 0.0
H1409 H 0.03171 0.99544 0.15343 0.0
C1410 C 0.99037 0.07239 0.142 0.0
C1411 C 0.99827 0.00756 0.14963 0.0
C1412 C 0.9915 0.96737 0.153 0.0
C1413 C 0.01224 0.08199 0.14281 0.0
C1414 C 0.02735 0.05386 0.14692 0.0
C1415 C 0.02012 0.01707 0.15035 0.0
C1416 C 0.05078 0.06153 0.14773 0.0
C1417 C 0.01888 0.12233 0.13963 0.0
C1418 C 0.06231 0.07358 0.13446 0.0
C1419 C 0.08478 0.07556 0.13479 0.0
C1420 C 0.09598 0.06505 0.14832 0.0
C1421 C 0.0844 0.05473 0.16176 0.0
C1422 C 0.06202 0.0531 0.16149 0.0
H1423 H 0.00521 0.14222 0.14108 0.0
H1424 H 0.03206 0.13122 0.14752 0.0
H1425 H 0.0247 0.12466 0.1274 0.0
H1426 H 0.05405 0.07947 0.12362 0.0
H1427 H 0.09344 0.08281 0.1242 0.0
H1428 H 0.0942 0.08321 0.88631 0.0
H1429 H 0.05529 0.08809 0.88477 0.0
H1430 H 0.0505 0.9667 0.88094 0.0
H1431 H 0.08967 0.96141 0.8832 0.0
H1432 H 0.02634 0.06749 0.86283 0.0
H1433 H 0.0118 0.98859 0.91805 0.0
H1434 H 0.03816 0.00446 0.91224 0.0
H1435 H 0.02673 0.96267 0.90363 0.0
C1436 C 0.0849 0.05743 0.88531 0.0
C1437 C 0.09501 0.0218 0.88528 0.0
C1438 C 0.06265 0.06034 0.88427 0.0
C1439 C 0.04995 0.02776 0.88308 0.0
C1440 C 0.05998 0.99218 0.88224 0.0
H1441 H 0.91292 0.99417 0.88068 0.0
H1442 H 0.95179 0.98925 0.87818 0.0
C1443 C 0.08236 0.9892 0.88337 0.0
C1444 C 0.02623 0.03145 0.88315 0.0
H1445 H 0.98121 0.00727 0.90372 0.0
C1446 C 0.01646 0.05433 0.87176 0.0
C1447 C 0.0134 0.01457 0.89493 0.0
C1448 C 0.02302 0.99149 0.908 0.0
C1449 C 0.99418 0.06039 0.87173 0.0
C1450 C 0.98142 0.0433 0.88344 0.0
C1451 C 0.99112 0.02033 0.89477 0.0
C1452 C 0.95783 0.04781 0.88393 0.0
C1453 C 0.98435 0.08452 0.8591 0.0
C1454 C 0.94834 0.0826 0.88787 0.0
C1455 C 0.926 0.08549 0.88949 0.0
C1456 C 0.91292 0.05352 0.88728 0.0
C1457 C 0.92256 0.01912 0.88284 0.0
C1458 C 0.94476 0.01626 0.88129 0.0
H1459 H 0.99588 0.09055 0.84948 0.0
H1460 H 0.96998 0.07038 0.85415 0.0
H1461 H 0.9791 0.11185 0.86421 0.0
H1462 H 0.95825 0.10719 0.8901 0.0
H1463 H 0.91905 0.1123 0.89294 0.0
H1464 H 0.9059 0.50807 0.61531 0.0
H1465 H 0.94507 0.51308 0.61169 0.0
H1466 H 0.9535 0.5118 0.66171 0.0
H1467 H 0.91462 0.50693 0.66529 0.0
H1468 H 0.97002 0.57457 0.624 0.0
H1469 H 0.99906 0.43637 0.64603 0.0
H1470 H 0.97167 0.44388 0.63988 0.0
H1471 H 0.98027 0.45906 0.65892 0.0
C1472 C 0.91626 0.50757 0.62546 0.0
C1473 C 0.90739 0.50652 0.64057 0.0
C1474 C 0.93855 0.51081 0.62341 0.0
C1475 C 0.95222 0.51251 0.63643 0.0
C1476 C 0.94334 0.50987 0.65149 0.0
H1477 H 0.08253 0.55217 0.66242 0.0
H1478 H 0.0435 0.54563 0.66055 0.0
C1479 C 0.92115 0.50701 0.65353 0.0
C1480 C 0.97555 0.52015 0.63457 0.0
H1481 H 0.0249 0.48627 0.64465 0.0
C1482 C 0.98209 0.55507 0.62828 0.0
C1483 C 0.99123 0.49475 0.64022 0.0
C1484 C 0.98527 0.45626 0.64651 0.0
C1485 C 0.00383 0.56597 0.62817 0.0
C1486 C 0.01944 0.54101 0.6343 0.0
C1487 C 0.01292 0.50558 0.64009 0.0
C1488 C 0.04257 0.55119 0.63537 0.0
C1489 C 0.00981 0.60469 0.62214 0.0
C1490 C 0.05499 0.55781 0.62189 0.0
C1491 C 0.07733 0.56212 0.62299 0.0
C1492 C 0.0875 0.55968 0.63758 0.0
C1493 C 0.07496 0.55484 0.65109 0.0
C1494 C 0.05272 0.55075 0.65 0.0
H1495 H 0.9956 0.62354 0.62119 0.0
H1496 H 0.02181 0.61832 0.62989 0.0
H1497 H 0.01708 0.60188 0.61035 0.0
H1498 H 0.0476 0.55757 0.61045 0.0
H1499 H 0.08678 0.56484 0.6124 0.0
H1500 H 0.92014 0.58116 0.41583 0.0
H1501 H 0.95965 0.58048 0.41671 0.0
H1502 H 0.96085 0.49992 0.37886 0.0
H1503 H 0.92181 0.50129 0.37768 0.0
H1504 H 0.98509 0.51773 0.42292 0.0
H1505 H 0.00534 0.57568 0.36461 0.0
H1506 H 0.97892 0.58021 0.37311 0.0
H1507 H 0.98674 0.53707 0.36347 0.0
C1508 C 0.92893 0.56411 0.40747 0.0
C1509 C 0.91793 0.54121 0.39673 0.0
C1510 C 0.95144 0.56349 0.40805 0.0
C1511 C 0.96323 0.54038 0.39775 0.0
C1512 C 0.9522 0.51849 0.38673 0.0
H1513 H 0.09547 0.47127 0.38328 0.0
H1514 H 0.05605 0.47296 0.38484 0.0
C1515 C 0.92985 0.51907 0.38616 0.0
C1516 C 0.98691 0.53688 0.39905 0.0
H1517 H 0.03327 0.54187 0.37773 0.0
C1518 C 0.99567 0.52342 0.41311 0.0
C1519 C 1.00069 0.54408 0.3862 0.0
C1520 C 0.99247 0.56042 0.37105 0.0
C1521 C 0.01776 0.516 0.41451 0.0
C1522 C 0.03141 0.52247 0.40155 0.0
C1523 C 0.02271 0.53637 0.38758 0.0
C1524 C 0.05498 0.51698 0.40241 0.0
C1525 C 0.02626 0.50053 0.42971 0.0
C1526 C 0.06736 0.54046 0.41202 0.0
C1527 C 0.08974 0.53952 0.41113 0.0
C1528 C 0.10015 0.51504 0.40061 0.0
C1529 C 0.08781 0.48998 0.39162 0.0
C1530 C 0.06535 0.49117 0.39243 0.0
H1531 H 0.01325 0.48855 0.43712 0.0
H1532 H 0.03847 0.47824 0.42755 0.0
H1533 H 0.03407 0.52373 0.43633 0.0
H1534 H 0.05973 0.56096 0.41962 0.0
H1535 H 0.09894 0.55928 0.4181 0.0
H1536 H 0.41387 0.02193 0.62233 0.0
H1537 H 0.45271 0.02988 0.6245 0.0
H1538 H 0.44844 0.01459 0.67441 0.0
H1539 H 0.40939 0.00713 0.67237 0.0
H1540 H 0.47323 0.08815 0.64326 0.0
H1541 H 0.49754 0.94192 0.6598 0.0
H1542 H 0.47208 0.95208 0.65067 0.0
H1543 H 0.47611 0.9631 0.67091 0.0
C1544 C 0.42119 0.01995 0.63377 0.0
C1545 C 0.4085 0.01402 0.64719 0.0
C1546 C 0.44338 0.02453 0.63498 0.0
C1547 C 0.45344 0.02291 0.6496 0.0
C1548 C 0.441 0.01561 0.66299 0.0
H1549 H 0.58745 0.09245 0.66702 0.0
H1550 H 0.54798 0.08973 0.66827 0.0
C1551 C 0.41871 0.01112 0.66179 0.0
C1552 C 0.47682 0.03032 0.65075 0.0
H1553 H 0.52495 0.98763 0.65787 0.0
C1554 C 0.48456 0.06631 0.64659 0.0
C1555 C 0.4915 0.00171 0.65504 0.0
C1556 C 0.48403 0.9624 0.65928 0.0
C1557 C 0.50667 0.07425 0.64636 0.0
C1558 C 0.52135 0.04547 0.65041 0.0
C1559 C 0.51359 0.00969 0.65484 0.0
C1560 C 0.54487 0.05074 0.64892 0.0
C1561 C 0.51428 0.11284 0.64125 0.0
C1562 C 0.55605 0.03047 0.63743 0.0
C1563 C 0.57838 0.03218 0.63663 0.0
C1564 C 0.59009 0.05394 0.64742 0.0
C1565 C 0.57884 0.0757 0.65849 0.0
C1566 C 0.55635 0.07401 0.65926 0.0
H1567 H 0.50097 0.13062 0.63673 0.0
H1568 H 0.52168 0.12761 0.65133 0.0
H1569 H 0.52675 0.1101 0.63201 0.0
H1570 H 0.54748 0.01258 0.62927 0.0
H1571 H 0.58658 0.01548 0.62784 0.0
H1572 H 0.4249 0.04698 0.41459 0.0
H1573 H 0.46366 0.03798 0.41193 0.0
H1574 H 0.45951 0.06379 0.36275 0.0
H1575 H 0.42068 0.07319 0.3654 0.0
H1576 H 0.48218 0.98336 0.3934 0.0
H1577 H 0.51142 0.12591 0.37603 0.0
H1578 H 0.48513 0.11832 0.3844 0.0
H1579 H 0.49008 0.1075 0.36419 0.0
C1580 C 0.43232 0.05143 0.40327 0.0
C1581 C 0.41977 0.06082 0.3902 0.0
C1582 C 0.45445 0.04621 0.40176 0.0
C1583 C 0.46453 0.05032 0.38716 0.0
C1584 C 0.45218 0.06114 0.37419 0.0
H1585 H 0.599 0.01017 0.3609 0.0
H1586 H 0.55989 0.01817 0.35945 0.0
C1587 C 0.42999 0.06658 0.37572 0.0
C1588 C 0.48759 0.04042 0.38542 0.0
H1589 H 0.53679 0.07609 0.37558 0.0
C1590 C 0.49411 0.00366 0.38949 0.0
C1591 C 0.50313 0.06677 0.38017 0.0
C1592 C 0.49719 0.10694 0.37606 0.0
C1593 C 0.51573 0.99268 0.38864 0.0
C1594 C 0.53132 0.01927 0.38376 0.0
C1595 C 0.52478 0.05572 0.37928 0.0
C1596 C 0.55463 0.01069 0.38427 0.0
C1597 C 0.52172 0.95267 0.39297 0.0
C1598 C 0.56455 0.00333 0.39865 0.0
C1599 C 0.58678 0.99869 0.39949 0.0
C1600 C 0.59957 0.00138 0.38597 0.0
C1601 C 0.58953 0.0074 0.37147 0.0
C1602 C 0.56724 0.0123 0.37066 0.0
H1603 H 0.50775 0.93324 0.39211 0.0
H1604 H 0.53481 0.94188 0.38535 0.0
H1605 H 0.52746 0.95213 0.40523 0.0
H1606 H 0.55519 0.00251 0.40933 0.0
H1607 H 0.59407 0.9941 0.41082 0.0
H1608 H 0.59357 0.57007 0.12024 0.0
H1609 H 0.55415 0.5672 0.11832 0.0
H1610 H 0.54987 0.54876 0.16807 0.0
H1611 H 0.58896 0.55179 0.16999 0.0
H1612 H 0.5307 0.50197 0.12715 0.0
H1613 H 0.50279 0.6272 0.16043 0.0
H1614 H 0.52981 0.62313 0.1529 0.0
H1615 H 0.52229 0.59933 0.17068 0.0
C1616 C 0.58408 0.56672 0.13079 0.0
C1617 C 0.59417 0.56144 0.14527 0.0
C1618 C 0.56165 0.56477 0.12968 0.0
C1619 C 0.54907 0.55806 0.14308 0.0
C1620 C 0.55917 0.55466 0.15764 0.0
H1621 H 0.41646 0.50648 0.16569 0.0
H1622 H 0.45558 0.51424 0.16592 0.0
C1623 C 0.58149 0.55633 0.15872 0.0
C1624 C 0.52568 0.55068 0.14181 0.0
H1625 H 0.47684 0.5788 0.15578 0.0
C1626 C 0.51887 0.51902 0.13324 0.0
C1627 C 0.51033 0.57267 0.14993 0.0
C1628 C 0.51661 0.60769 0.1589 0.0
C1629 C 0.49717 0.50817 0.13292 0.0
C1630 C 0.48183 0.52998 0.14116 0.0
C1631 C 0.48863 0.5619 0.14957 0.0
C1632 C 0.45854 0.52095 0.14085 0.0
C1633 C 0.49099 0.4728 0.12414 0.0
C1634 C 0.44729 0.52139 0.12668 0.0
C1635 C 0.42503 0.5166 0.12652 0.0
C1636 C 0.4135 0.51164 0.14054 0.0
C1637 C 0.42489 0.50974 0.15468 0.0
C1638 C 0.44721 0.51454 0.15484 0.0
H1639 H 0.50496 0.45374 0.12238 0.0
H1640 H 0.47821 0.45695 0.13042 0.0
H1641 H 0.48479 0.48079 0.11245 0.0
H1642 H 0.4556 0.52688 0.11578 0.0
H1643 H 0.41672 0.51806 0.11543 0.0
H1644 H 0.41127 0.51732 0.91578 0.0
H1645 H 0.45046 0.51571 0.91698 0.0
H1646 H 0.45392 0.59945 0.88036 0.0
H1647 H 0.41448 0.60126 0.8792 0.0
H1648 H 0.47476 0.49359 0.89052 0.0
H1649 H 0.4992 0.63507 0.91272 0.0
H1650 H 0.47245 0.61638 0.91549 0.0
H1651 H 0.48041 0.6348 0.8968 0.0
C1652 C 0.42041 0.53617 0.90831 0.0
C1653 C 0.40994 0.55945 0.89741 0.0
C1654 C 0.44275 0.53509 0.90894 0.0
C1655 C 0.45508 0.55734 0.89874 0.0
C1656 C 0.44469 0.58236 0.88846 0.0
H1657 H 0.58891 0.5116 0.87352 0.0
H1658 H 0.54971 0.51793 0.87291 0.0
C1659 C 0.4222 0.58352 0.88785 0.0
C1660 C 0.47861 0.55141 0.89795 0.0
H1661 H 0.52694 0.59373 0.90468 0.0
C1662 C 0.4862 0.51549 0.89359 0.0
C1663 C 0.49342 0.58 0.90199 0.0
C1664 C 0.48607 0.61871 0.90713 0.0
C1665 C 0.50823 0.50728 0.89328 0.0
C1666 C 0.52306 0.53588 0.8973 0.0
C1667 C 0.51549 0.57189 0.90156 0.0
C1668 C 0.5465 0.52874 0.89771 0.0
C1669 C 0.51545 0.46782 0.88908 0.0
C1670 C 0.5576 0.53217 0.91186 0.0
C1671 C 0.57989 0.52839 0.91225 0.0
C1672 C 0.59157 0.52137 0.89845 0.0
C1673 C 0.58034 0.51644 0.88437 0.0
C1674 C 0.55797 0.52025 0.88399 0.0
H1675 H 0.502 0.44718 0.88954 0.0
H1676 H 0.52202 0.46791 0.87701 0.0
H1677 H 0.52834 0.45811 0.89707 0.0
H1678 H 0.54903 0.5385 0.92258 0.0
H1679 H 0.58809 0.53204 0.92329 0.0
H1680 H 0.1803 0.06605 0.9535 0.0
H1681 H 0.17379 0.06699 0.98185 0.0
H1682 H 0.19564 0.95144 0.98509 0.0
H1683 H 0.20289 0.95108 0.95697 0.0
H1684 H 0.14956 0.02759 1.00232 0.0
H1685 H 0.23544 0.00155 1.01521 0.0
H1686 H 0.22605 0.01204 0.99579 0.0
H1687 H 0.22382 0.9648 1.00355 0.0
C1688 C 0.18349 0.04083 0.96029 0.0
C1689 C 0.1924 0.00869 0.95313 0.0
C1690 C 0.17981 0.04135 0.97647 0.0
C1691 C 0.18478 0.00961 0.98571 0.0
C1692 C 0.19237 0.97671 0.97834 0.0
H1693 H 0.18356 0.97321 0.08722 0.0
H1694 H 0.17851 0.96244 0.059 0.0
C1695 C 0.1964 0.97643 0.96227 0.0
C1696 C 0.18287 0.0113 1.00306 0.0
H1697 H 0.21155 2e-05 0.03676 0.0
C1698 C 0.16312 0.02152 1.00984 0.0
C1699 C 0.20061 0.00367 1.01293 0.0
C1700 C 0.22272 0.9953 1.00651 0.0
C1701 C 0.16065 0.02412 0.02616 0.0
C1702 C 0.17831 0.01608 0.03593 0.0
C1703 C 0.19794 0.00549 0.02921 0.0
C1704 C 0.17753 0.02194 0.05307 0.0
C1705 C 0.13928 0.03565 0.03294 0.0
C1706 C 0.17829 0.05884 0.05904 0.0
C1707 C 0.18142 0.06491 0.07499 0.0
C1708 C 0.18364 0.03422 0.08532 0.0
C1709 C 0.18161 0.99725 0.0795 0.0
C1710 C 0.17883 0.99114 0.06343 0.0
H1711 H 0.12627 0.03469 0.02409 0.0
H1712 H 0.13491 0.01694 0.04289 0.0
H1713 H 0.14045 0.06499 0.03748 0.0
H1714 H 0.17759 0.08296 0.05123 0.0
H1715 H 0.18297 0.09363 0.07924 0.0
H1716 H 0.77737 0.03402 0.9591 0.0
H1717 H 0.78498 0.02731 0.98687 0.0
H1718 H 0.85291 0.03074 0.97718 0.0
H1719 H 0.84532 0.03837 0.94915 0.0
H1720 H 0.8092 0.97091 1.00254 0.0
H1721 H 0.84363 0.11529 1.01029 0.0
H1722 H 0.82811 0.10265 0.99329 0.0
H1723 H 0.85507 0.08563 0.99534 0.0
C1724 C 0.79394 0.03359 0.96284 0.0
C1725 C 0.81073 0.03723 0.95192 0.0
C1726 C 0.79827 0.02948 0.97872 0.0
C1727 C 0.81949 0.02904 0.98413 0.0
C1728 C 0.8364 0.03157 0.97327 0.0
H1729 H 0.84502 0.02345 0.08623 0.0
H1730 H 0.85247 0.0223 0.05798 0.0
C1731 C 0.83206 0.03556 0.95727 0.0
C1732 C 0.82339 0.02637 1.0012 0.0
H1733 H 0.83753 0.07934 0.03298 0.0
C1734 C 0.81577 0.99433 1.00917 0.0
C1735 C 0.83202 0.05693 1.00984 0.0
C1736 C 0.84011 0.09225 1.00185 0.0
C1737 C 0.81559 0.99276 0.02555 0.0
C1738 C 0.82302 0.02419 0.03419 0.0
C1739 C 0.83185 0.05533 0.02628 0.0
C1740 C 0.81915 0.0269 0.05125 0.0
C1741 C 0.80669 0.95806 0.03355 0.0
C1742 C 0.79807 0.0309 0.05673 0.0
C1743 C 0.7938 0.03194 0.07273 0.0
C1744 C 0.81051 0.02885 0.08368 0.0
C1745 C 0.83178 0.02604 0.07815 0.0
C1746 C 0.83607 0.02518 0.06203 0.0
H1747 H 0.80676 0.9331 0.02566 0.0
H1748 H 0.81606 0.9512 0.0442 0.0
H1749 H 0.78985 0.96358 0.03714 0.0
H1750 H 0.78484 0.03295 0.04858 0.0
H1751 H 0.77731 0.03511 0.07649 0.0
H1752 H 0.15005 0.54564 0.58409 0.0
H1753 H 0.14158 0.54454 0.55592 0.0
H1754 H 0.20506 0.50202 0.54608 0.0
H1755 H 0.21345 0.5033 0.57394 0.0
H1756 H 0.16598 0.58704 0.53311 0.0
H1757 H 0.16581 0.43418 0.51913 0.0
H1758 H 0.16184 0.45188 0.53875 0.0
H1759 H 0.18846 0.44814 0.5307 0.0
C1760 C 0.1619 0.53518 0.57588 0.0
C1761 C 0.18239 0.52458 0.58113 0.0
C1762 C 0.15713 0.53473 0.55983 0.0
C1763 C 0.17262 0.52283 0.5489 0.0
C1764 C 0.19273 0.51071 0.55428 0.0
H1765 H 0.21909 0.5712 0.46012 0.0
H1766 H 0.20738 0.5683 0.4874 0.0
C1767 C 0.19756 0.51166 0.57018 0.0
C1768 C 0.16903 0.52643 0.53179 0.0
H1769 H 0.17361 0.4767 0.49771 0.0
C1770 C 0.16709 0.56283 0.52536 0.0
C1771 C 0.17036 0.49487 0.52167 0.0
C1772 C 0.17152 0.45501 0.5279 0.0
C1773 C 0.16806 0.56867 0.50911 0.0
C1774 C 0.17108 0.53736 0.49907 0.0
C1775 C 0.1714 0.50073 0.50542 0.0
C1776 C 0.17673 0.54236 0.48231 0.0
C1777 C 0.16675 0.60846 0.50282 0.0
C1778 C 0.16332 0.52896 0.47035 0.0
C1779 C 0.16995 0.531 0.45465 0.0
C1780 C 0.19028 0.54562 0.45079 0.0
C1781 C 0.20339 0.55968 0.46279 0.0
C1782 C 0.19667 0.5582 0.47836 0.0
H1783 H 0.1588 0.62783 0.51126 0.0
H1784 H 0.18323 0.61919 0.50062 0.0
H1785 H 0.15784 0.60915 0.4916 0.0
H1786 H 0.14794 0.51634 0.47317 0.0
H1787 H 0.15966 0.51962 0.44563 0.0
H1788 H 0.85558 0.53799 0.45422 0.0
H1789 H 0.86431 0.53749 0.48236 0.0
H1790 H 0.79958 0.50243 0.49294 0.0
H1791 H 0.79089 0.50334 0.4651 0.0
H1792 H 0.84017 0.58371 0.50536 0.0
H1793 H 0.83853 0.43072 0.51954 0.0
H1794 H 0.84328 0.44831 0.49998 0.0
H1795 H 0.81643 0.4461 0.50768 0.0
C1796 C 0.84346 0.52937 0.46259 0.0
C1797 C 0.82258 0.52072 0.45756 0.0
C1798 C 0.84839 0.52927 0.47862 0.0
C1799 C 0.83263 0.5196 0.48973 0.0
C1800 C 0.81207 0.50947 0.48459 0.0
H1801 H 0.78874 0.56878 0.57909 0.0
H1802 H 0.79999 0.5666 0.55169 0.0
C1803 C 0.80708 0.51017 0.4687 0.0
C1804 C 0.83663 0.5232 0.50678 0.0
H1805 H 0.83247 0.4736 0.54095 0.0
C1806 C 0.83904 0.55955 0.51314 0.0
C1807 C 0.83524 0.49169 0.51694 0.0
C1808 C 0.83342 0.45192 0.51071 0.0
C1809 C 0.83854 0.56543 0.5294 0.0
C1810 C 0.83554 0.53419 0.53951 0.0
C1811 C 0.8347 0.49758 0.53319 0.0
C1812 C 0.83037 0.53929 0.55635 0.0
C1813 C 0.84035 0.60519 0.53563 0.0
C1814 C 0.84381 0.52497 0.56812 0.0
C1815 C 0.83746 0.52663 0.58388 0.0
C1816 C 0.81737 0.54179 0.588 0.0
C1817 C 0.80428 0.55692 0.57621 0.0
C1818 C 0.81074 0.55583 0.56058 0.0
H1819 H 0.84835 0.62429 0.5271 0.0
H1820 H 0.82401 0.61642 0.53795 0.0
H1821 H 0.84944 0.60568 0.54677 0.0
H1822 H 0.85895 0.51179 0.56509 0.0
H1823 H 0.8477 0.51439 0.59275 0.0
H1824 H 0.67236 0.9852 0.58652 0.0
H1825 H 0.67121 0.97214 0.55826 0.0
H1826 H 0.70942 0.07176 0.54953 0.0
H1827 H 0.71056 0.0848 0.57746 0.0
H1828 H 0.6728 0.06818 0.5311 0.0
H1829 H 0.71898 0.9335 0.52905 0.0
H1830 H 0.69643 0.93482 0.5422 0.0
H1831 H 0.71933 0.96432 0.54586 0.0
C1832 C 0.68076 0.00387 0.57854 0.0
C1833 C 0.69139 0.03619 0.58419 0.0
C1834 C 0.68008 0.99646 0.56243 0.0
C1835 C 0.69022 0.02103 0.55178 0.0
C1836 C 0.70132 0.05261 0.55749 0.0
H1837 H 0.73571 0.00696 0.45854 0.0
H1838 H 0.72887 0.00896 0.48658 0.0
C1839 C 0.70193 0.06006 0.57347 0.0
C1840 C 0.68903 0.01511 0.53462 0.0
H1841 H 0.70671 0.95795 0.50511 0.0
C1842 C 0.67999 0.04387 0.5254 0.0
C1843 C 0.69853 0.98348 0.52723 0.0
C1844 C 0.70903 0.95231 0.53652 0.0
C1845 C 0.68085 0.04255 0.509 0.0
C1846 C 0.69069 0.01124 0.5016 0.0
C1847 C 0.69909 0.98185 0.51081 0.0
C1848 C 0.69429 0.01006 0.48442 0.0
C1849 C 0.6722 0.07557 0.49977 0.0
C1850 C 0.6771 0.0102 0.47381 0.0
C1851 C 0.681 0.00916 0.45766 0.0
C1852 C 0.70214 0.00753 0.45188 0.0
C1853 C 0.71924 0.00759 0.46258 0.0
C1854 C 0.71535 0.0088 0.47864 0.0
H1855 H 0.66914 0.10065 0.50727 0.0
H1856 H 0.68356 0.08382 0.49033 0.0
H1857 H 0.65681 0.0673 0.49424 0.0
H1858 H 0.6607 0.0106 0.47802 0.0
H1859 H 0.66751 0.00869 0.44972 0.0
H1860 H 0.28146 0.03667 0.45746 0.0
H1861 H 0.28707 0.02842 0.48542 0.0
H1862 H 0.35555 0.02611 0.47804 0.0
H1863 H 0.34996 0.03513 0.44978 0.0
H1864 H 0.30888 0.96944 0.50166 0.0
H1865 H 0.34621 0.11088 0.51126 0.0
H1866 H 0.33136 0.09996 0.49374 0.0
H1867 H 0.35772 0.08078 0.49649 0.0
C1868 C 0.29774 0.03458 0.46174 0.0
C1869 C 0.31528 0.03706 0.45141 0.0
C1870 C 0.30092 0.02962 0.47774 0.0
C1871 C 0.32172 0.02719 0.48386 0.0
C1872 C 0.33936 0.02848 0.47358 0.0
H1873 H 0.3417 0.02078 0.58661 0.0
H1874 H 0.35033 0.01976 0.55854 0.0
C1875 C 0.33616 0.03326 0.45745 0.0
C1876 C 0.32442 0.02384 0.50106 0.0
H1877 H 0.33776 0.07493 0.53355 0.0
C1878 C 0.31555 0.99221 0.50862 0.0
C1879 C 0.33318 0.05352 0.51014 0.0
C1880 C 0.34259 0.08839 0.50259 0.0
C1881 C 0.31434 0.99021 0.52498 0.0
C1882 C 0.32192 0.02086 0.53404 0.0
C1883 C 0.33193 0.05153 0.52656 0.0
C1884 C 0.31727 0.02325 0.55104 0.0
C1885 C 0.30432 0.95579 0.53247 0.0
C1886 C 0.29594 0.02666 0.55608 0.0
C1887 C 0.291 0.02759 0.57198 0.0
C1888 C 0.30727 0.02507 0.58331 0.0
C1889 C 0.32877 0.02289 0.57824 0.0
C1890 C 0.33373 0.02211 0.56221 0.0
H1891 H 0.30483 0.93092 0.52454 0.0
H1892 H 0.31257 0.94843 0.54355 0.0
H1893 H 0.28724 0.96187 0.5352 0.0
H1894 H 0.28303 0.02842 0.54765 0.0
H1895 H 0.27433 0.03032 0.57537 0.0
H1896 H 0.71776 0.49208 0.08227 0.0
H1897 H 0.70938 0.49236 0.0544 0.0
H1898 H 0.64808 0.5438 0.06432 0.0
H1899 H 0.65662 0.54363 0.09248 0.0
H1900 H 0.67438 0.46312 0.03615 0.0
H1901 H 0.68 0.6205 0.03522 0.0
H1902 H 0.68974 0.59285 0.05146 0.0
H1903 H 0.66143 0.59923 0.04877 0.0
C1904 C 0.70235 0.50287 0.07852 0.0
C1905 C 0.68791 0.5181 0.08948 0.0
C1906 C 0.69754 0.50293 0.06261 0.0
C1907 C 0.67824 0.51856 0.05724 0.0
C1908 C 0.66318 0.53195 0.06821 0.0
H1909 H 0.66049 0.5168 0.95415 0.0
H1910 H 0.65126 0.51225 0.98206 0.0
C1911 C 0.66795 0.53155 0.08426 0.0
C1912 C 0.67512 0.5232 0.04011 0.0
H1913 H 0.67795 0.58955 1.01107 0.0
C1914 C 0.67466 0.49076 0.03064 0.0
C1915 C 0.67579 0.55931 0.03295 0.0
C1916 C 0.67689 0.59509 0.04254 0.0
C1917 C 0.67571 0.49341 1.01424 0.0
C1918 C 0.67715 0.52948 1.00712 0.0
C1919 C 0.67672 0.56195 1.01656 0.0
C1920 C 0.68175 0.53394 0.99014 0.0
C1921 C 0.67656 0.4576 1.00467 0.0
C1922 C 0.7017 0.54846 0.98542 0.0
C1923 C 0.70696 0.55114 0.96958 0.0
C1924 C 0.69234 0.53958 0.95802 0.0
C1925 C 0.67207 0.52606 0.96274 0.0
C1926 C 0.66684 0.52317 0.97868 0.0
H1927 H 0.6781 0.43193 1.01209 0.0
H1928 H 0.66163 0.45504 0.99771 0.0
H1929 H 0.69029 0.45854 0.99638 0.0
H1930 H 0.71342 0.55711 0.99404 0.0
H1931 H 0.72255 0.56227 0.96637 0.0
H1932 H 0.28029 0.51242 0.95561 0.0
H1933 H 0.2881 0.50701 0.98339 0.0
H1934 H 0.35558 0.52187 0.97382 0.0
H1935 H 0.34766 0.52814 0.9457 0.0
H1936 H 0.31426 0.45652 0.99982 0.0
H1937 H 0.34216 0.60558 1.0062 0.0
H1938 H 0.32784 0.58964 0.98912 0.0
H1939 H 0.3554 0.57657 0.99184 0.0
C1940 C 0.29681 0.51459 0.95938 0.0
C1941 C 0.31333 0.52126 0.94848 0.0
C1942 C 0.30128 0.51126 0.97527 0.0
C1943 C 0.32237 0.51462 0.98075 0.0
C1944 C 0.33913 0.5198 0.96989 0.0
H1945 H 0.34541 0.51885 0.08333 0.0
H1946 H 0.35363 0.51636 0.05523 0.0
C1947 C 0.33463 0.52299 0.95384 0.0
C1948 C 0.32616 0.51355 0.99791 0.0
H1949 H 0.33707 0.57051 0.02923 0.0
C1950 C 0.31966 0.48121 1.00622 0.0
C1951 C 0.3332 0.54578 1.0063 0.0
C1952 C 0.33996 0.58154 0.998 0.0
C1953 C 0.31901 0.48086 0.02263 0.0
C1954 C 0.32485 0.51376 0.03098 0.0
C1955 C 0.3326 0.54534 0.02277 0.0
C1956 C 0.32042 0.51717 0.04798 0.0
C1957 C 0.31126 0.44575 0.03095 0.0
C1958 C 0.29911 0.5194 0.05315 0.0
C1959 C 0.29437 0.52123 0.06909 0.0
C1960 C 0.31084 0.52068 0.08032 0.0
C1961 C 0.33231 0.51949 0.07507 0.0
C1962 C 0.33705 0.51788 0.05901 0.0
H1963 H 0.31235 0.42033 0.02335 0.0
H1964 H 0.32069 0.44069 0.04174 0.0
H1965 H 0.2942 0.44961 0.03438 0.0
H1966 H 0.28605 0.51951 0.04481 0.0
H1967 H 0.2777 0.52309 0.07256 0.0
loop_
_geom_bond_atom_site_label_1
_geom_bond_atom_site_label_2
_geom_bond_distance
_geom_bond_site_symmetry_2
_ccdc_geom_bond_type
Co0 N4 2.148 . S
Co0 N10 2.128 . S
Co0 N20 2.194 . S
Co0 O25 2.351 1_545 S
Co0 O26 2.155 . S
Co0 O27 2.096 . S
C1 N4 1.301 . S
C1 N5 1.328 . S
C1 H6 0.930 . S
C2 C3 1.333 . S
C2 N4 1.317 . S
C2 H7 0.930 . S
C3 C2 1.333 . S
C3 N5 1.350 . S
C3 H29 0.931 . S
N4 Co0 2.148 . S
N4 C1 1.301 . S
N4 C2 1.317 . S
N5 C1 1.328 . S
N5 C3 1.350 . S
H6 C1 0.930 . S
H7 C2 0.930 . S
C8 O9 1.224 . S
C8 O27 1.247 . S
O9 C8 1.224 . S
N10 Co0 2.128 . S
N10 C11 1.355 . S
N10 C13 1.311 . S
C11 N10 1.355 . S
C11 C12 1.363 . S
C11 H23 0.929 1_545 S
C12 C11 1.363 . S
C12 N14 1.375 . S
C12 H30 0.931 . S
C13 N10 1.311 . S
C13 N14 1.347 . S
C13 H24 0.929 . S
N14 C12 1.375 . S
N14 C13 1.347 . S
C15 C18 1.365 . S
C15 N20 1.328 . S
C15 H21 0.929 1_545 S
C16 C17 1.362 . S
C16 C19 1.378 . S
C16 H31 0.929 . S
C17 C16 1.362 . S
C17 C18 1.366 . S
C18 C15 1.365 . S
C18 C17 1.366 . S
C18 H32 0.930 1_545 S
C19 C16 1.378 . S
C19 N20 1.315 . S
C19 H22 0.930 . S
N20 Co0 2.194 . S
N20 C15 1.328 . S
N20 C19 1.315 . S
H21 C15 0.929 1_565 S
H22 C19 0.930 . S
H23 C11 0.929 1_565 S
H24 C13 0.929 . S
O25 Co0 2.351 1_565 S
O25 C28 1.244 . S
O26 Co0 2.155 . S
O26 C28 1.240 1_545 S
O27 Co0 2.096 . S
O27 C8 1.247 . S
C28 O25 1.244 . S
C28 O26 1.240 1_565 S
H29 C3 0.931 . S
H30 C12 0.931 . S
H31 C16 0.929 . S
H32 C18 0.930 1_565 S
Co33 N37 2.148 . S
Co33 N43 2.128 . S
Co33 N53 2.194 . S
Co33 O58 2.351 . S
Co33 O59 2.155 . S
Co33 O60 2.096 1_545 S
C34 N37 1.301 . S
C34 N38 1.328 . S
C34 H39 0.930 . S
C35 C36 1.333 . S
C35 N37 1.317 1_565 S
C35 H40 0.930 . S
C36 C35 1.333 . S
C36 N38 1.350 1_565 S
C36 H62 0.931 . S
N37 Co33 2.148 . S
N37 C34 1.301 . S
N37 C35 1.317 1_545 S
N38 C34 1.328 . S
N38 C36 1.350 1_545 S
H39 C34 0.930 . S
H40 C35 0.930 . S
C41 O42 1.224 . S
C41 O60 1.247 . S
O42 C41 1.224 . S
N43 Co33 2.128 . S
N43 C44 1.355 . S
N43 C46 1.311 . S
C44 N43 1.355 . S
C44 C45 1.363 . S
C44 H56 0.929 . S
C45 C44 1.363 . S
C45 N47 1.375 . S
C45 H63 0.931 . S
C46 N43 1.311 . S
C46 N47 1.347 . S
C46 H57 0.929 1_545 S
N47 C45 1.375 . S
N47 C46 1.347 . S
C48 C51 1.365 . S
C48 N53 1.328 . S
C48 H54 0.929 . S
C49 C50 1.362 1_565 S
C49 C52 1.378 . S
C49 H64 0.929 . S
C50 C49 1.362 1_545 S
C50 C51 1.366 . S
C51 C48 1.365 . S
C51 C50 1.366 . S
C51 H65 0.930 . S
C52 C49 1.378 . S
C52 N53 1.315 1_565 S
C52 H55 0.930 . S
N53 Co33 2.194 . S
N53 C48 1.328 . S
N53 C52 1.315 1_545 S
H54 C48 0.929 . S
H55 C52 0.930 . S
H56 C44 0.929 . S
H57 C46 0.929 1_565 S
O58 Co33 2.351 . S
O58 C61 1.244 . S
O59 Co33 2.155 . S
O59 C61 1.240 . S
O60 Co33 2.096 1_565 S
O60 C41 1.247 . S
C61 O58 1.244 . S
C61 O59 1.240 . S
H62 C36 0.931 . S
H63 C45 0.931 . S
H64 C49 0.929 . S
H65 C51 0.930 . S
Co66 N70 2.148 . S
Co66 N76 2.128 . S
Co66 N86 2.194 . S
Co66 O91 2.351 . S
Co66 O92 2.155 . S
Co66 O93 2.096 1_545 S
C67 N70 1.301 . S
C67 N71 1.328 . S
C67 H72 0.930 . S
C68 C69 1.333 . S
C68 N70 1.317 1_565 S
C68 H73 0.930 . S
C69 C68 1.333 . S
C69 N71 1.350 1_565 S
C69 H95 0.931 . S
N70 Co66 2.148 . S
N70 C67 1.301 . S
N70 C68 1.317 1_545 S
N71 C67 1.328 . S
N71 C69 1.350 1_545 S
H72 C67 0.930 . S
H73 C68 0.930 . S
C74 O75 1.224 . S
C74 O93 1.247 . S
O75 C74 1.224 . S
N76 Co66 2.128 . S
N76 C77 1.355 . S
N76 C79 1.311 . S
C77 N76 1.355 . S
C77 C78 1.363 . S
C77 H89 0.929 . S
C78 C77 1.363 . S
C78 N80 1.375 . S
C78 H96 0.931 . S
C79 N76 1.311 . S
C79 N80 1.347 . S
C79 H90 0.929 1_545 S
N80 C78 1.375 . S
N80 C79 1.347 . S
C81 C84 1.365 . S
C81 N86 1.328 . S
C81 H87 0.929 . S
C82 C83 1.362 1_565 S
C82 C85 1.378 . S
C82 H97 0.929 . S
C83 C82 1.362 1_545 S
C83 C84 1.366 . S
C84 C81 1.365 . S
C84 C83 1.366 . S
C84 H98 0.930 . S
C85 C82 1.378 . S
C85 N86 1.315 1_565 S
C85 H88 0.930 . S
N86 Co66 2.194 . S
N86 C81 1.328 . S
N86 C85 1.315 1_545 S
H87 C81 0.929 . S
H88 C85 0.930 . S
H89 C77 0.929 . S
H90 C79 0.929 1_565 S
O91 Co66 2.351 . S
O91 C94 1.244 . S
O92 Co66 2.155 . S
O92 C94 1.240 . S
O93 Co66 2.096 1_565 S
O93 C74 1.247 . S
C94 O91 1.244 . S
C94 O92 1.240 . S
H95 C69 0.931 . S
H96 C78 0.931 . S
H97 C82 0.929 . S
H98 C84 0.930 . S
Co99 N103 2.148 . S
Co99 N109 2.128 . S
Co99 N119 2.194 . S
Co99 O124 2.351 1_545 S
Co99 O125 2.155 . S
Co99 O126 2.096 . S
C100 N103 1.301 . S
C100 N104 1.328 . S
C100 H105 0.930 . S
C101 C102 1.333 . S
C101 N103 1.317 . S
C101 H106 0.930 . S
C102 C101 1.333 . S
C102 N104 1.350 . S
C102 H128 0.931 . S
N103 Co99 2.148 . S
N103 C100 1.301 . S
N103 C101 1.317 . S
N104 C100 1.328 . S
N104 C102 1.350 . S
H105 C100 0.930 . S
H106 C101 0.930 . S
C107 O108 1.224 . S
C107 O126 1.247 . S
O108 C107 1.224 . S
N109 Co99 2.128 . S
N109 C110 1.355 . S
N109 C112 1.311 . S
C110 N109 1.355 . S
C110 C111 1.363 . S
C110 H122 0.929 1_545 S
C111 C110 1.363 . S
C111 N113 1.375 . S
C111 H129 0.931 . S
C112 N109 1.311 . S
C112 N113 1.347 . S
C112 H123 0.929 . S
N113 C111 1.375 . S
N113 C112 1.347 . S
C114 C117 1.365 . S
C114 N119 1.328 . S
C114 H120 0.929 1_545 S
C115 C116 1.362 . S
C115 C118 1.378 . S
C115 H130 0.929 . S
C116 C115 1.362 . S
C116 C117 1.366 . S
C117 C114 1.365 . S
C117 C116 1.366 . S
C117 H131 0.930 1_545 S
C118 C115 1.378 . S
C118 N119 1.315 . S
C118 H121 0.930 . S
N119 Co99 2.194 . S
N119 C114 1.328 . S
N119 C118 1.315 . S
H120 C114 0.929 1_565 S
H121 C118 0.930 . S
H122 C110 0.929 1_565 S
H123 C112 0.929 . S
O124 Co99 2.351 1_565 S
O124 C127 1.244 . S
O125 Co99 2.155 . S
O125 C127 1.240 1_545 S
O126 Co99 2.096 . S
O126 C107 1.247 . S
C127 O124 1.244 . S
C127 O125 1.240 1_565 S
H128 C102 0.931 . S
H129 C111 0.931 . S
H130 C115 0.929 . S
H131 C117 0.930 1_565 S
Co132 N136 2.148 . S
Co132 N142 2.128 . S
Co132 N152 2.194 . S
Co132 O157 2.351 . S
Co132 O158 2.155 . S
Co132 O159 2.096 . S
C133 N136 1.301 . S
C133 N137 1.328 . S
C133 H138 0.930 . S
C134 C135 1.333 . S
C134 N136 1.317 . S
C134 H139 0.930 . S
C135 C134 1.333 . S
C135 N137 1.350 . S
C135 H161 0.931 . S
N136 Co132 2.148 . S
N136 C133 1.301 . S
N136 C134 1.317 . S
N137 C133 1.328 . S
N137 C135 1.350 . S
H138 C133 0.930 . S
H139 C134 0.930 . S
C140 O141 1.224 . S
C140 O159 1.247 . S
O141 C140 1.224 . S
N142 Co132 2.128 . S
N142 C143 1.355 . S
N142 C145 1.311 . S
C143 N142 1.355 . S
C143 C144 1.363 . S
C143 H155 0.929 . S
C144 C143 1.363 . S
C144 N146 1.375 . S
C144 H162 0.931 . S
C145 N142 1.311 . S
C145 N146 1.347 . S
C145 H156 0.929 . S
N146 C144 1.375 . S
N146 C145 1.347 . S
C147 C150 1.365 . S
C147 N152 1.328 . S
C147 H153 0.929 . S
C148 C149 1.362 . S
C148 C151 1.378 . S
C148 H163 0.929 . S
C149 C148 1.362 . S
C149 C150 1.366 . S
C150 C147 1.365 . S
C150 C149 1.366 . S
C150 H164 0.930 . S
C151 C148 1.378 . S
C151 N152 1.315 . S
C151 H154 0.930 . S
N152 Co132 2.194 . S
N152 C147 1.328 . S
N152 C151 1.315 . S
H153 C147 0.929 . S
H154 C151 0.930 . S
H155 C143 0.929 . S
H156 C145 0.929 . S
O157 Co132 2.351 . S
O157 C160 1.244 . S
O158 Co132 2.155 . S
O158 C160 1.240 . S
O159 Co132 2.096 . S
O159 C140 1.247 . S
C160 O157 1.244 . S
C160 O158 1.240 . S
H161 C135 0.931 . S
H162 C144 0.931 . S
H163 C148 0.929 . S
H164 C150 0.930 . S
Co165 N169 2.148 . S
Co165 N175 2.128 . S
Co165 N185 2.194 . S
Co165 O190 2.351 . S
Co165 O191 2.155 . S
Co165 O192 2.096 . S
C166 N169 1.301 . S
C166 N170 1.328 . S
C166 H171 0.930 . S
C167 C168 1.333 . S
C167 N169 1.317 . S
C167 H172 0.930 . S
C168 C167 1.333 . S
C168 N170 1.350 . S
C168 H194 0.931 . S
N169 Co165 2.148 . S
N169 C166 1.301 . S
N169 C167 1.317 . S
N170 C166 1.328 . S
N170 C168 1.350 . S
H171 C166 0.930 . S
H172 C167 0.930 . S
C173 O174 1.224 . S
C173 O192 1.247 . S
O174 C173 1.224 . S
N175 Co165 2.128 . S
N175 C176 1.355 . S
N175 C178 1.311 . S
C176 N175 1.355 . S
C176 C177 1.363 . S
C176 H188 0.929 . S
C177 C176 1.363 . S
C177 N179 1.375 . S
C177 H195 0.931 . S
C178 N175 1.311 . S
C178 N179 1.347 . S
C178 H189 0.929 . S
N179 C177 1.375 . S
N179 C178 1.347 . S
C180 C183 1.365 . S
C180 N185 1.328 . S
C180 H186 0.929 . S
C181 C182 1.362 . S
C181 C184 1.378 . S
C181 H196 0.929 . S
C182 C181 1.362 . S
C182 C183 1.366 . S
C183 C180 1.365 . S
C183 C182 1.366 . S
C183 H197 0.930 . S
C184 C181 1.378 . S
C184 N185 1.315 . S
C184 H187 0.930 . S
N185 Co165 2.194 . S
N185 C180 1.328 . S
N185 C184 1.315 . S
H186 C180 0.929 . S
H187 C184 0.930 . S
H188 C176 0.929 . S
H189 C178 0.929 . S
O190 Co165 2.351 . S
O190 C193 1.244 . S
O191 Co165 2.155 . S
O191 C193 1.240 . S
O192 Co165 2.096 . S
O192 C173 1.247 . S
C193 O190 1.244 . S
C193 O191 1.240 . S
H194 C168 0.931 . S
H195 C177 0.931 . S
H196 C181 0.929 . S
H197 C183 0.930 . S
Co198 N202 2.148 . S
Co198 N208 2.128 . S
Co198 N218 2.194 . S
Co198 O223 2.351 . S
Co198 O224 2.155 . S
Co198 O225 2.096 . S
C199 N202 1.301 . S
C199 N203 1.328 . S
C199 H204 0.930 . S
C200 C201 1.333 . S
C200 N202 1.317 . S
C200 H205 0.930 . S
C201 C200 1.333 . S
C201 N203 1.350 . S
C201 H227 0.931 . S
N202 Co198 2.148 . S
N202 C199 1.301 . S
N202 C200 1.317 . S
N203 C199 1.328 . S
N203 C201 1.350 . S
H204 C199 0.930 . S
H205 C200 0.930 . S
C206 O207 1.224 . S
C206 O225 1.247 . S
O207 C206 1.224 . S
N208 Co198 2.128 . S
N208 C209 1.355 . S
N208 C211 1.311 . S
C209 N208 1.355 . S
C209 C210 1.363 . S
C209 H221 0.929 . S
C210 C209 1.363 . S
C210 N212 1.375 . S
C210 H228 0.931 . S
C211 N208 1.311 . S
C211 N212 1.347 . S
C211 H222 0.929 . S
N212 C210 1.375 . S
N212 C211 1.347 . S
C213 C216 1.365 . S
C213 N218 1.328 . S
C213 H219 0.929 . S
C214 C215 1.362 . S
C214 C217 1.378 . S
C214 H229 0.929 . S
C215 C214 1.362 . S
C215 C216 1.366 . S
C216 C213 1.365 . S
C216 C215 1.366 . S
C216 H230 0.930 . S
C217 C214 1.378 . S
C217 N218 1.315 . S
C217 H220 0.930 . S
N218 Co198 2.194 . S
N218 C213 1.328 . S
N218 C217 1.315 . S
H219 C213 0.929 . S
H220 C217 0.930 . S
H221 C209 0.929 . S
H222 C211 0.929 . S
O223 Co198 2.351 . S
O223 C226 1.244 . S
O224 Co198 2.155 . S
O224 C226 1.240 . S
O225 Co198 2.096 . S
O225 C206 1.247 . S
C226 O223 1.244 . S
C226 O224 1.240 . S
H227 C201 0.931 . S
H228 C210 0.931 . S
H229 C214 0.929 . S
H230 C216 0.930 . S
Co231 N235 2.148 . S
Co231 N241 2.128 . S
Co231 N251 2.194 . S
Co231 O256 2.351 . S
Co231 O257 2.155 . S
Co231 O258 2.096 . S
C232 N235 1.301 . S
C232 N236 1.328 . S
C232 H237 0.930 . S
C233 C234 1.333 . S
C233 N235 1.317 . S
C233 H238 0.930 . S
C234 C233 1.333 . S
C234 N236 1.350 . S
C234 H260 0.931 . S
N235 Co231 2.148 . S
N235 C232 1.301 . S
N235 C233 1.317 . S
N236 C232 1.328 . S
N236 C234 1.350 . S
H237 C232 0.930 . S
H238 C233 0.930 . S
C239 O240 1.224 . S
C239 O258 1.247 . S
O240 C239 1.224 . S
N241 Co231 2.128 . S
N241 C242 1.355 . S
N241 C244 1.311 . S
C242 N241 1.355 . S
C242 C243 1.363 . S
C242 H254 0.929 . S
C243 C242 1.363 . S
C243 N245 1.375 . S
C243 H261 0.931 . S
C244 N241 1.311 . S
C244 N245 1.347 . S
C244 H255 0.929 . S
N245 C243 1.375 . S
N245 C244 1.347 . S
C246 C249 1.365 . S
C246 N251 1.328 . S
C246 H252 0.929 . S
C247 C248 1.362 . S
C247 C250 1.378 . S
C247 H262 0.929 . S
C248 C247 1.362 . S
C248 C249 1.366 . S
C249 C246 1.365 . S
C249 C248 1.366 . S
C249 H263 0.930 . S
C250 C247 1.378 . S
C250 N251 1.315 . S
C250 H253 0.930 . S
N251 Co231 2.194 . S
N251 C246 1.328 . S
N251 C250 1.315 . S
H252 C246 0.929 . S
H253 C250 0.930 . S
H254 C242 0.929 . S
H255 C244 0.929 . S
O256 Co231 2.351 . S
O256 C259 1.244 . S
O257 Co231 2.155 . S
O257 C259 1.240 . S
O258 Co231 2.096 . S
O258 C239 1.247 . S
C259 O256 1.244 . S
C259 O257 1.240 . S
H260 C234 0.931 . S
H261 C243 0.931 . S
H262 C247 0.929 . S
H263 C249 0.930 . S
Co264 N268 2.148 . S
Co264 N274 2.128 . S
Co264 N284 2.194 . S
Co264 O289 2.351 1_545 S
Co264 O290 2.155 . S
Co264 O291 2.096 . S
C265 N268 1.301 . S
C265 N269 1.328 . S
C265 H270 0.930 . S
C266 C267 1.333 . S
C266 N268 1.317 . S
C266 H271 0.930 . S
C267 C266 1.333 . S
C267 N269 1.350 . S
C267 H293 0.931 . S
N268 Co264 2.148 . S
N268 C265 1.301 . S
N268 C266 1.317 . S
N269 C265 1.328 . S
N269 C267 1.350 . S
H270 C265 0.930 . S
H271 C266 0.930 . S
C272 O273 1.224 . S
C272 O291 1.247 . S
O273 C272 1.224 . S
N274 Co264 2.128 . S
N274 C275 1.355 . S
N274 C277 1.311 . S
C275 N274 1.355 . S
C275 C276 1.363 . S
C275 H287 0.929 1_545 S
C276 C275 1.363 . S
C276 N278 1.375 . S
C276 H294 0.931 . S
C277 N274 1.311 . S
C277 N278 1.347 . S
C277 H288 0.929 . S
N278 C276 1.375 . S
N278 C277 1.347 . S
C279 C282 1.365 . S
C279 N284 1.328 . S
C279 H285 0.929 1_545 S
C280 C281 1.362 . S
C280 C283 1.378 . S
C280 H295 0.929 . S
C281 C280 1.362 . S
C281 C282 1.366 . S
C282 C279 1.365 . S
C282 C281 1.366 . S
C282 H296 0.930 1_545 S
C283 C280 1.378 . S
C283 N284 1.315 . S
C283 H286 0.930 . S
N284 Co264 2.194 . S
N284 C279 1.328 . S
N284 C283 1.315 . S
H285 C279 0.929 1_565 S
H286 C283 0.930 . S
H287 C275 0.929 1_565 S
H288 C277 0.929 . S
O289 Co264 2.351 1_565 S
O289 C292 1.244 . S
O290 Co264 2.155 . S
O290 C292 1.240 1_545 S
O291 Co264 2.096 . S
O291 C272 1.247 . S
C292 O289 1.244 . S
C292 O290 1.240 1_565 S
H293 C267 0.931 . S
H294 C276 0.931 . S
H295 C280 0.929 . S
H296 C282 0.930 1_565 S
Co297 N301 2.148 . S
Co297 N307 2.128 . S
Co297 N317 2.194 . S
Co297 O322 2.351 . S
Co297 O323 2.155 . S
Co297 O324 2.096 1_545 S
C298 N301 1.301 . S
C298 N302 1.328 . S
C298 H303 0.930 . S
C299 C300 1.333 . S
C299 N301 1.317 1_565 S
C299 H304 0.930 . S
C300 C299 1.333 . S
C300 N302 1.350 1_565 S
C300 H326 0.931 . S
N301 Co297 2.148 . S
N301 C298 1.301 . S
N301 C299 1.317 1_545 S
N302 C298 1.328 . S
N302 C300 1.350 1_545 S
H303 C298 0.930 . S
H304 C299 0.930 . S
C305 O306 1.224 . S
C305 O324 1.247 . S
O306 C305 1.224 . S
N307 Co297 2.128 . S
N307 C308 1.355 . S
N307 C310 1.311 . S
C308 N307 1.355 . S
C308 C309 1.363 . S
C308 H320 0.929 . S
C309 C308 1.363 . S
C309 N311 1.375 . S
C309 H327 0.931 . S
C310 N307 1.311 . S
C310 N311 1.347 . S
C310 H321 0.929 1_545 S
N311 C309 1.375 . S
N311 C310 1.347 . S
C312 C315 1.365 . S
C312 N317 1.328 . S
C312 H318 0.929 . S
C313 C314 1.362 1_565 S
C313 C316 1.378 . S
C313 H328 0.929 . S
C314 C313 1.362 1_545 S
C314 C315 1.366 . S
C315 C312 1.365 . S
C315 C314 1.366 . S
C315 H329 0.930 . S
C316 C313 1.378 . S
C316 N317 1.315 1_565 S
C316 H319 0.930 . S
N317 Co297 2.194 . S
N317 C312 1.328 . S
N317 C316 1.315 1_545 S
H318 C312 0.929 . S
H319 C316 0.930 . S
H320 C308 0.929 . S
H321 C310 0.929 1_565 S
O322 Co297 2.351 . S
O322 C325 1.244 . S
O323 Co297 2.155 . S
O323 C325 1.240 . S
O324 Co297 2.096 1_565 S
O324 C305 1.247 . S
C325 O322 1.244 . S
C325 O323 1.240 . S
H326 C300 0.931 . S
H327 C309 0.931 . S
H328 C313 0.929 . S
H329 C315 0.930 . S
Co330 N334 2.148 . S
Co330 N340 2.128 . S
Co330 N350 2.194 . S
Co330 O355 2.351 . S
Co330 O356 2.155 . S
Co330 O357 2.096 1_545 S
C331 N334 1.301 . S
C331 N335 1.328 . S
C331 H336 0.930 . S
C332 C333 1.333 . S
C332 N334 1.317 1_565 S
C332 H337 0.930 . S
C333 C332 1.333 . S
C333 N335 1.350 1_565 S
C333 H359 0.931 . S
N334 Co330 2.148 . S
N334 C331 1.301 . S
N334 C332 1.317 1_545 S
N335 C331 1.328 . S
N335 C333 1.350 1_545 S
H336 C331 0.930 . S
H337 C332 0.930 . S
C338 O339 1.224 . S
C338 O357 1.247 . S
O339 C338 1.224 . S
N340 Co330 2.128 . S
N340 C341 1.355 . S
N340 C343 1.311 . S
C341 N340 1.355 . S
C341 C342 1.363 . S
C341 H353 0.929 . S
C342 C341 1.363 . S
C342 N344 1.375 . S
C342 H360 0.931 . S
C343 N340 1.311 . S
C343 N344 1.347 . S
C343 H354 0.929 1_545 S
N344 C342 1.375 . S
N344 C343 1.347 . S
C345 C348 1.365 . S
C345 N350 1.328 . S
C345 H351 0.929 . S
C346 C347 1.362 1_565 S
C346 C349 1.378 . S
C346 H361 0.929 . S
C347 C346 1.362 1_545 S
C347 C348 1.366 . S
C348 C345 1.365 . S
C348 C347 1.366 . S
C348 H362 0.930 . S
C349 C346 1.378 . S
C349 N350 1.315 1_565 S
C349 H352 0.930 . S
N350 Co330 2.194 . S
N350 C345 1.328 . S
N350 C349 1.315 1_545 S
H351 C345 0.929 . S
H352 C349 0.930 . S
H353 C341 0.929 . S
H354 C343 0.929 1_565 S
O355 Co330 2.351 . S
O355 C358 1.244 . S
O356 Co330 2.155 . S
O356 C358 1.240 . S
O357 Co330 2.096 1_565 S
O357 C338 1.247 . S
C358 O355 1.244 . S
C358 O356 1.240 . S
H359 C333 0.931 . S
H360 C342 0.931 . S
H361 C346 0.929 . S
H362 C348 0.930 . S
Co363 N367 2.148 . S
Co363 N373 2.128 . S
Co363 N383 2.194 . S
Co363 O388 2.351 1_545 S
Co363 O389 2.155 . S
Co363 O390 2.096 . S
C364 N367 1.301 . S
C364 N368 1.328 . S
C364 H369 0.930 . S
C365 C366 1.333 . S
C365 N367 1.317 . S
C365 H370 0.930 . S
C366 C365 1.333 . S
C366 N368 1.350 . S
C366 H392 0.931 . S
N367 Co363 2.148 . S
N367 C364 1.301 . S
N367 C365 1.317 . S
N368 C364 1.328 . S
N368 C366 1.350 . S
H369 C364 0.930 . S
H370 C365 0.930 . S
C371 O372 1.224 . S
C371 O390 1.247 . S
O372 C371 1.224 . S
N373 Co363 2.128 . S
N373 C374 1.355 . S
N373 C376 1.311 . S
C374 N373 1.355 . S
C374 C375 1.363 . S
C374 H386 0.929 1_545 S
C375 C374 1.363 . S
C375 N377 1.375 . S
C375 H393 0.931 . S
C376 N373 1.311 . S
C376 N377 1.347 . S
C376 H387 0.929 . S
N377 C375 1.375 . S
N377 C376 1.347 . S
C378 C381 1.365 . S
C378 N383 1.328 . S
C378 H384 0.929 1_545 S
C379 C380 1.362 . S
C379 C382 1.378 . S
C379 H394 0.929 . S
C380 C379 1.362 . S
C380 C381 1.366 . S
C381 C378 1.365 . S
C381 C380 1.366 . S
C381 H395 0.930 1_545 S
C382 C379 1.378 . S
C382 N383 1.315 . S
C382 H385 0.930 . S
N383 Co363 2.194 . S
N383 C378 1.328 . S
N383 C382 1.315 . S
H384 C378 0.929 1_565 S
H385 C382 0.930 . S
H386 C374 0.929 1_565 S
H387 C376 0.929 . S
O388 Co363 2.351 1_565 S
O388 C391 1.244 . S
O389 Co363 2.155 . S
O389 C391 1.240 1_545 S
O390 Co363 2.096 . S
O390 C371 1.247 . S
C391 O388 1.244 . S
C391 O389 1.240 1_565 S
H392 C366 0.931 . S
H393 C375 0.931 . S
H394 C379 0.929 . S
H395 C381 0.930 1_565 S
Co396 N400 2.148 . S
Co396 N406 2.128 . S
Co396 N416 2.194 . S
Co396 O421 2.351 . S
Co396 O422 2.155 . S
Co396 O423 2.096 . S
C397 N400 1.301 . S
C397 N401 1.328 . S
C397 H402 0.930 . S
C398 C399 1.333 . S
C398 N400 1.317 . S
C398 H403 0.930 . S
C399 C398 1.333 . S
C399 N401 1.350 . S
C399 H425 0.931 . S
N400 Co396 2.148 . S
N400 C397 1.301 . S
N400 C398 1.317 . S
N401 C397 1.328 . S
N401 C399 1.350 . S
H402 C397 0.930 . S
H403 C398 0.930 . S
C404 O405 1.224 . S
C404 O423 1.247 . S
O405 C404 1.224 . S
N406 Co396 2.128 . S
N406 C407 1.355 . S
N406 C409 1.311 . S
C407 N406 1.355 . S
C407 C408 1.363 . S
C407 H419 0.929 . S
C408 C407 1.363 . S
C408 N410 1.375 . S
C408 H426 0.931 . S
C409 N406 1.311 . S
C409 N410 1.347 . S
C409 H420 0.929 . S
N410 C408 1.375 . S
N410 C409 1.347 . S
C411 C414 1.365 . S
C411 N416 1.328 . S
C411 H417 0.929 . S
C412 C413 1.362 . S
C412 C415 1.378 . S
C412 H427 0.929 . S
C413 C412 1.362 . S
C413 C414 1.366 . S
C414 C411 1.365 . S
C414 C413 1.366 . S
C414 H428 0.930 . S
C415 C412 1.378 . S
C415 N416 1.315 . S
C415 H418 0.930 . S
N416 Co396 2.194 . S
N416 C411 1.328 . S
N416 C415 1.315 . S
H417 C411 0.929 . S
H418 C415 0.930 . S
H419 C407 0.929 . S
H420 C409 0.929 . S
O421 Co396 2.351 . S
O421 C424 1.244 . S
O422 Co396 2.155 . S
O422 C424 1.240 . S
O423 Co396 2.096 . S
O423 C404 1.247 . S
C424 O421 1.244 . S
C424 O422 1.240 . S
H425 C399 0.931 . S
H426 C408 0.931 . S
H427 C412 0.929 . S
H428 C414 0.930 . S
Co429 N433 2.148 . S
Co429 N439 2.128 . S
Co429 N449 2.194 . S
Co429 O454 2.351 . S
Co429 O455 2.155 . S
Co429 O456 2.096 . S
C430 N433 1.301 . S
C430 N434 1.328 . S
C430 H435 0.930 . S
C431 C432 1.333 . S
C431 N433 1.317 . S
C431 H436 0.930 . S
C432 C431 1.333 . S
C432 N434 1.350 . S
C432 H458 0.931 . S
N433 Co429 2.148 . S
N433 C430 1.301 . S
N433 C431 1.317 . S
N434 C430 1.328 . S
N434 C432 1.350 . S
H435 C430 0.930 . S
H436 C431 0.930 . S
C437 O438 1.224 . S
C437 O456 1.247 . S
O438 C437 1.224 . S
N439 Co429 2.128 . S
N439 C440 1.355 . S
N439 C442 1.311 . S
C440 N439 1.355 . S
C440 C441 1.363 . S
C440 H452 0.929 . S
C441 C440 1.363 . S
C441 N443 1.375 . S
C441 H459 0.931 . S
C442 N439 1.311 . S
C442 N443 1.347 . S
C442 H453 0.929 . S
N443 C441 1.375 . S
N443 C442 1.347 . S
C444 C447 1.365 . S
C444 N449 1.328 . S
C444 H450 0.929 . S
C445 C446 1.362 . S
C445 C448 1.378 . S
C445 H460 0.929 . S
C446 C445 1.362 . S
C446 C447 1.366 . S
C447 C444 1.365 . S
C447 C446 1.366 . S
C447 H461 0.930 . S
C448 C445 1.378 . S
C448 N449 1.315 . S
C448 H451 0.930 . S
N449 Co429 2.194 . S
N449 C444 1.328 . S
N449 C448 1.315 . S
H450 C444 0.929 . S
H451 C448 0.930 . S
H452 C440 0.929 . S
H453 C442 0.929 . S
O454 Co429 2.351 . S
O454 C457 1.244 . S
O455 Co429 2.155 . S
O455 C457 1.240 . S
O456 Co429 2.096 . S
O456 C437 1.247 . S
C457 O454 1.244 . S
C457 O455 1.240 . S
H458 C432 0.931 . S
H459 C441 0.931 . S
H460 C445 0.929 . S
H461 C447 0.930 . S
Co462 N466 2.148 . S
Co462 N472 2.128 . S
Co462 N482 2.194 . S
Co462 O487 2.351 . S
Co462 O488 2.155 . S
Co462 O489 2.096 . S
C463 N466 1.301 . S
C463 N467 1.328 . S
C463 H468 0.930 . S
C464 C465 1.333 . S
C464 N466 1.317 . S
C464 H469 0.930 . S
C465 C464 1.333 . S
C465 N467 1.350 . S
C465 H491 0.931 . S
N466 Co462 2.148 . S
N466 C463 1.301 . S
N466 C464 1.317 . S
N467 C463 1.328 . S
N467 C465 1.350 . S
H468 C463 0.930 . S
H469 C464 0.930 . S
C470 O471 1.224 . S
C470 O489 1.247 . S
O471 C470 1.224 . S
N472 Co462 2.128 . S
N472 C473 1.355 . S
N472 C475 1.311 . S
C473 N472 1.355 . S
C473 C474 1.363 . S
C473 H485 0.929 . S
C474 C473 1.363 . S
C474 N476 1.375 . S
C474 H492 0.931 . S
C475 N472 1.311 . S
C475 N476 1.347 . S
C475 H486 0.929 . S
N476 C474 1.375 . S
N476 C475 1.347 . S
C477 C480 1.365 . S
C477 N482 1.328 . S
C477 H483 0.929 . S
C478 C479 1.362 . S
C478 C481 1.378 . S
C478 H493 0.929 . S
C479 C478 1.362 . S
C479 C480 1.366 . S
C480 C477 1.365 . S
C480 C479 1.366 . S
C480 H494 0.930 . S
C481 C478 1.378 . S
C481 N482 1.315 . S
C481 H484 0.930 . S
N482 Co462 2.194 . S
N482 C477 1.328 . S
N482 C481 1.315 . S
H483 C477 0.929 . S
H484 C481 0.930 . S
H485 C473 0.929 . S
H486 C475 0.929 . S
O487 Co462 2.351 . S
O487 C490 1.244 . S
O488 Co462 2.155 . S
O488 C490 1.240 . S
O489 Co462 2.096 . S
O489 C470 1.247 . S
C490 O487 1.244 . S
C490 O488 1.240 . S
H491 C465 0.931 . S
H492 C474 0.931 . S
H493 C478 0.929 . S
H494 C480 0.930 . S
Co495 N499 2.148 . S
Co495 N505 2.128 . S
Co495 N515 2.194 . S
Co495 O520 2.351 . S
Co495 O521 2.155 . S
Co495 O522 2.096 . S
C496 N499 1.301 . S
C496 N500 1.328 . S
C496 H501 0.930 . S
C497 C498 1.333 . S
C497 N499 1.317 . S
C497 H502 0.930 . S
C498 C497 1.333 . S
C498 N500 1.350 . S
C498 H524 0.931 . S
N499 Co495 2.148 . S
N499 C496 1.301 . S
N499 C497 1.317 . S
N500 C496 1.328 . S
N500 C498 1.350 . S
H501 C496 0.930 . S
H502 C497 0.930 . S
C503 O504 1.224 . S
C503 O522 1.247 . S
O504 C503 1.224 . S
N505 Co495 2.128 . S
N505 C506 1.355 . S
N505 C508 1.311 . S
C506 N505 1.355 . S
C506 C507 1.363 . S
C506 H518 0.929 . S
C507 C506 1.363 . S
C507 N509 1.375 . S
C507 H525 0.931 . S
C508 N505 1.311 . S
C508 N509 1.347 . S
C508 H519 0.929 . S
N509 C507 1.375 . S
N509 C508 1.347 . S
C510 C513 1.365 . S
C510 N515 1.328 . S
C510 H516 0.929 . S
C511 C512 1.362 . S
C511 C514 1.378 . S
C511 H526 0.929 . S
C512 C511 1.362 . S
C512 C513 1.366 . S
C513 C510 1.365 . S
C513 C512 1.366 . S
C513 H527 0.930 . S
C514 C511 1.378 . S
C514 N515 1.315 . S
C514 H517 0.930 . S
N515 Co495 2.194 . S
N515 C510 1.328 . S
N515 C514 1.315 . S
H516 C510 0.929 . S
H517 C514 0.930 . S
H518 C506 0.929 . S
H519 C508 0.929 . S
O520 Co495 2.351 . S
O520 C523 1.244 . S
O521 Co495 2.155 . S
O521 C523 1.240 . S
O522 Co495 2.096 . S
O522 C503 1.247 . S
C523 O520 1.244 . S
C523 O521 1.240 . S
H524 C498 0.931 . S
H525 C507 0.931 . S
H526 C511 0.929 . S
H527 C513 0.930 . S
H528 C536 0.929 . S
H529 C538 0.930 . S
H530 C540 0.930 . S
H531 C543 0.929 . S
H532 C546 0.930 . S
H533 C548 0.960 . S
H534 C548 0.960 1_565 S
H535 C548 0.960 . S
C536 H528 0.929 . S
C536 C537 1.377 . S
C536 C538 1.384 . S
C537 C536 1.377 . S
C537 C543 1.390 . S
C538 H529 0.930 . S
C538 C536 1.384 . S
C538 C539 1.372 . S
C539 C538 1.372 . S
C539 C540 1.400 . S
C539 C544 1.490 . S
C540 H530 0.930 . S
C540 C539 1.400 . S
C540 C543 1.386 . S
H541 C557 0.930 . S
H542 C558 0.931 . S
C543 H531 0.929 . S
C543 C537 1.390 . S
C543 C540 1.386 . S
C544 C539 1.490 . S
C544 C546 1.395 . S
C544 C547 1.403 . S
H545 C551 0.930 . S
C546 H532 0.930 . S
C546 C544 1.395 . S
C546 C549 1.403 . S
C547 C544 1.403 . S
C547 C548 1.524 . S
C547 C551 1.400 . S
C548 H533 0.960 . S
C548 H534 0.960 1_545 S
C548 H535 0.960 . S
C548 C547 1.524 . S
C549 C546 1.403 . S
C549 C550 1.392 . S
C549 C553 1.495 . S
C550 C549 1.392 . S
C550 C551 1.385 . S
C550 C552 1.478 . S
C551 H545 0.930 . S
C551 C547 1.400 . S
C551 C550 1.385 . S
C552 C550 1.478 . S
C552 C554 1.381 . S
C552 C558 1.383 . S
C553 C549 1.495 . S
C553 H559 0.959 . S
C553 H560 0.961 . S
C553 H561 0.960 . S
C554 C552 1.381 . S
C554 C555 1.394 . S
C554 H562 0.930 . S
C555 C554 1.394 . S
C555 C556 1.383 . S
C555 H563 0.929 . S
C556 C555 1.383 . S
C556 C557 1.377 . S
C557 H541 0.930 . S
C557 C556 1.377 . S
C557 C558 1.379 . S
C558 H542 0.931 . S
C558 C552 1.383 . S
C558 C557 1.379 . S
H559 C553 0.959 . S
H560 C553 0.961 . S
H561 C553 0.960 . S
H562 C554 0.930 . S
H563 C555 0.929 . S
H564 C572 0.929 . S
H565 C574 0.930 . S
H566 C576 0.930 . S
H567 C579 0.929 . S
H568 C582 0.930 . S
H569 C584 0.960 . S
H570 C584 0.960 . S
H571 C584 0.960 . S
C572 H564 0.929 . S
C572 C573 1.377 1_565 S
C572 C574 1.384 . S
C573 C572 1.377 1_545 S
C573 C579 1.390 . S
C574 H565 0.930 . S
C574 C572 1.384 . S
C574 C575 1.372 1_565 S
C575 C574 1.372 1_545 S
C575 C576 1.400 . S
C575 C580 1.490 . S
C576 H566 0.930 . S
C576 C575 1.400 . S
C576 C579 1.386 . S
H577 C593 0.930 . S
H578 C594 0.931 . S
C579 H567 0.929 . S
C579 C573 1.390 . S
C579 C576 1.386 . S
C580 C575 1.490 . S
C580 C582 1.395 1_545 S
C580 C583 1.403 . S
H581 C587 0.930 . S
C582 H568 0.930 . S
C582 C580 1.395 1_565 S
C582 C585 1.403 . S
C583 C580 1.403 . S
C583 C584 1.524 . S
C583 C587 1.400 . S
C584 H569 0.960 . S
C584 H570 0.960 . S
C584 H571 0.960 . S
C584 C583 1.524 . S
C585 C582 1.403 . S
C585 C586 1.392 1_565 S
C585 C589 1.495 . S
C586 C585 1.392 1_545 S
C586 C587 1.385 . S
C586 C588 1.478 . S
C587 H581 0.930 . S
C587 C583 1.400 . S
C587 C586 1.385 . S
C588 C586 1.478 . S
C588 C590 1.381 1_545 S
C588 C594 1.383 . S
C589 C585 1.495 . S
C589 H595 0.959 . S
C589 H596 0.961 . S
C589 H597 0.960 . S
C590 C588 1.381 1_565 S
C590 C591 1.394 . S
C590 H598 0.930 . S
C591 C590 1.394 . S
C591 C592 1.383 1_565 S
C591 H599 0.929 . S
C592 C591 1.383 1_545 S
C592 C593 1.377 . S
C593 H577 0.930 . S
C593 C592 1.377 . S
C593 C594 1.379 . S
C594 H578 0.931 . S
C594 C588 1.383 . S
C594 C593 1.379 . S
H595 C589 0.959 . S
H596 C589 0.961 . S
H597 C589 0.960 . S
H598 C590 0.930 . S
H599 C591 0.929 . S
H600 C608 0.929 . S
H601 C610 0.930 . S
H602 C612 0.930 . S
H603 C615 0.929 . S
H604 C618 0.930 . S
H605 C620 0.960 . S
H606 C620 0.960 . S
H607 C620 0.960 . S
C608 H600 0.929 . S
C608 C609 1.377 . S
C608 C610 1.384 . S
C609 C608 1.377 . S
C609 C615 1.390 1_545 S
C610 H601 0.930 . S
C610 C608 1.384 . S
C610 C611 1.372 . S
C611 C610 1.372 . S
C611 C612 1.400 1_545 S
C611 C616 1.490 . S
C612 H602 0.930 . S
C612 C611 1.400 1_565 S
C612 C615 1.386 . S
H613 C629 0.930 . S
H614 C630 0.931 . S
C615 H603 0.929 . S
C615 C609 1.390 1_565 S
C615 C612 1.386 . S
C616 C611 1.490 . S
C616 C618 1.395 . S
C616 C619 1.403 1_545 S
H617 C623 0.930 . S
C618 H604 0.930 . S
C618 C616 1.395 . S
C618 C621 1.403 . S
C619 C616 1.403 1_565 S
C619 C620 1.524 . S
C619 C623 1.400 . S
C620 H605 0.960 . S
C620 H606 0.960 . S
C620 H607 0.960 . S
C620 C619 1.524 . S
C621 C618 1.403 . S
C621 C622 1.392 . S
C621 C625 1.495 . S
C622 C621 1.392 . S
C622 C623 1.385 1_545 S
C622 C624 1.478 . S
C623 H617 0.930 . S
C623 C619 1.400 . S
C623 C622 1.385 1_565 S
C624 C622 1.478 . S
C624 C626 1.381 . S
C624 C630 1.383 1_545 S
C625 C621 1.495 . S
C625 H631 0.959 . S
C625 H632 0.961 . S
C625 H633 0.960 . S
C626 C624 1.381 . S
C626 C627 1.394 . S
C626 H634 0.930 . S
C627 C626 1.394 . S
C627 C628 1.383 . S
C627 H635 0.929 . S
C628 C627 1.383 . S
C628 C629 1.377 1_545 S
C629 H613 0.930 . S
C629 C628 1.377 1_565 S
C629 C630 1.379 . S
C630 H614 0.931 . S
C630 C624 1.383 1_565 S
C630 C629 1.379 . S
H631 C625 0.959 . S
H632 C625 0.961 . S
H633 C625 0.960 . S
H634 C626 0.930 . S
H635 C627 0.929 . S
H636 C644 0.929 . S
H637 C646 0.930 . S
H638 C648 0.930 . S
H639 C651 0.929 . S
H640 C654 0.930 . S
H641 C656 0.960 . S
H642 C656 0.960 . S
H643 C656 0.960 . S
C644 H636 0.929 . S
C644 C645 1.377 . S
C644 C646 1.384 . S
C645 C644 1.377 . S
C645 C651 1.390 . S
C646 H637 0.930 . S
C646 C644 1.384 . S
C646 C647 1.372 . S
C647 C646 1.372 . S
C647 C648 1.400 . S
C647 C652 1.490 . S
C648 H638 0.930 . S
C648 C647 1.400 . S
C648 C651 1.386 . S
H649 C665 0.930 . S
H650 C666 0.931 . S
C651 H639 0.929 . S
C651 C645 1.390 . S
C651 C648 1.386 . S
C652 C647 1.490 . S
C652 C654 1.395 . S
C652 C655 1.403 . S
H653 C659 0.930 . S
C654 H640 0.930 . S
C654 C652 1.395 . S
C654 C657 1.403 . S
C655 C652 1.403 . S
C655 C656 1.524 . S
C655 C659 1.400 . S
C656 H641 0.960 . S
C656 H642 0.960 . S
C656 H643 0.960 . S
C656 C655 1.524 . S
C657 C654 1.403 . S
C657 C658 1.392 . S
C657 C661 1.495 . S
C658 C657 1.392 . S
C658 C659 1.385 . S
C658 C660 1.478 . S
C659 H653 0.930 . S
C659 C655 1.400 . S
C659 C658 1.385 . S
C660 C658 1.478 . S
C660 C662 1.381 . S
C660 C666 1.383 . S
C661 C657 1.495 . S
C661 H667 0.959 1_545 S
C661 H668 0.961 . S
C661 H669 0.960 1_545 S
C662 C660 1.381 . S
C662 C663 1.394 . S
C662 H670 0.930 . S
C663 C662 1.394 . S
C663 C664 1.383 . S
C663 H671 0.929 . S
C664 C663 1.383 . S
C664 C665 1.377 . S
C665 H649 0.930 . S
C665 C664 1.377 . S
C665 C666 1.379 . S
C666 H650 0.931 . S
C666 C660 1.383 . S
C666 C665 1.379 . S
H667 C661 0.959 1_565 S
H668 C661 0.961 . S
H669 C661 0.960 1_565 S
H670 C662 0.930 . S
H671 C663 0.929 . S
H672 C680 0.929 . S
H673 C682 0.930 . S
H674 C684 0.930 . S
H675 C687 0.929 . S
H676 C690 0.930 . S
H677 C692 0.960 . S
H678 C692 0.960 . S
H679 C692 0.960 . S
C680 H672 0.929 . S
C680 C681 1.377 . S
C680 C682 1.384 . S
C681 C680 1.377 . S
C681 C687 1.390 . S
C682 H673 0.930 . S
C682 C680 1.384 . S
C682 C683 1.372 . S
C683 C682 1.372 . S
C683 C684 1.400 . S
C683 C688 1.490 . S
C684 H674 0.930 . S
C684 C683 1.400 . S
C684 C687 1.386 . S
H685 C701 0.930 . S
H686 C702 0.931 . S
C687 H675 0.929 . S
C687 C681 1.390 . S
C687 C684 1.386 . S
C688 C683 1.490 . S
C688 C690 1.395 . S
C688 C691 1.403 . S
H689 C695 0.930 . S
C690 H676 0.930 . S
C690 C688 1.395 . S
C690 C693 1.403 . S
C691 C688 1.403 . S
C691 C692 1.524 . S
C691 C695 1.400 . S
C692 H677 0.960 . S
C692 H678 0.960 . S
C692 H679 0.960 . S
C692 C691 1.524 . S
C693 C690 1.403 . S
C693 C694 1.392 . S
C693 C697 1.495 . S
C694 C693 1.392 . S
C694 C695 1.385 . S
C694 C696 1.478 . S
C695 H689 0.930 . S
C695 C691 1.400 . S
C695 C694 1.385 . S
C696 C694 1.478 . S
C696 C698 1.381 . S
C696 C702 1.383 . S
C697 C693 1.495 . S
C697 H703 0.959 . S
C697 H704 0.961 . S
C697 H705 0.960 . S
C698 C696 1.381 . S
C698 C699 1.394 . S
C698 H706 0.930 . S
C699 C698 1.394 . S
C699 C700 1.383 . S
C699 H707 0.929 . S
C700 C699 1.383 . S
C700 C701 1.377 . S
C701 H685 0.930 . S
C701 C700 1.377 . S
C701 C702 1.379 . S
C702 H686 0.931 . S
C702 C696 1.383 . S
C702 C701 1.379 . S
H703 C697 0.959 . S
H704 C697 0.961 . S
H705 C697 0.960 . S
H706 C698 0.930 . S
H707 C699 0.929 . S
H708 C716 0.929 . S
H709 C718 0.930 . S
H710 C720 0.930 . S
H711 C723 0.929 . S
H712 C726 0.930 . S
H713 C728 0.960 . S
H714 C728 0.960 . S
H715 C728 0.960 . S
C716 H708 0.929 . S
C716 C717 1.377 . S
C716 C718 1.384 . S
C717 C716 1.377 . S
C717 C723 1.390 . S
C718 H709 0.930 . S
C718 C716 1.384 . S
C718 C719 1.372 . S
C719 C718 1.372 . S
C719 C720 1.400 . S
C719 C724 1.490 . S
C720 H710 0.930 . S
C720 C719 1.400 . S
C720 C723 1.386 . S
H721 C737 0.930 . S
H722 C738 0.931 . S
C723 H711 0.929 . S
C723 C717 1.390 . S
C723 C720 1.386 . S
C724 C719 1.490 . S
C724 C726 1.395 . S
C724 C727 1.403 . S
H725 C731 0.930 . S
C726 H712 0.930 . S
C726 C724 1.395 . S
C726 C729 1.403 . S
C727 C724 1.403 . S
C727 C728 1.524 . S
C727 C731 1.400 . S
C728 H713 0.960 . S
C728 H714 0.960 . S
C728 H715 0.960 . S
C728 C727 1.524 . S
C729 C726 1.403 . S
C729 C730 1.392 . S
C729 C733 1.495 . S
C730 C729 1.392 . S
C730 C731 1.385 . S
C730 C732 1.478 . S
C731 H725 0.930 . S
C731 C727 1.400 . S
C731 C730 1.385 . S
C732 C730 1.478 . S
C732 C734 1.381 . S
C732 C738 1.383 . S
C733 C729 1.495 . S
C733 H739 0.959 . S
C733 H740 0.961 . S
C733 H741 0.960 . S
C734 C732 1.381 . S
C734 C735 1.394 . S
C734 H742 0.930 . S
C735 C734 1.394 . S
C735 C736 1.383 . S
C735 H743 0.929 . S
C736 C735 1.383 . S
C736 C737 1.377 . S
C737 H721 0.930 . S
C737 C736 1.377 . S
C737 C738 1.379 . S
C738 H722 0.931 . S
C738 C732 1.383 . S
C738 C737 1.379 . S
H739 C733 0.959 . S
H740 C733 0.961 . S
H741 C733 0.960 . S
H742 C734 0.930 . S
H743 C735 0.929 . S
H744 C752 0.929 . S
H745 C754 0.930 . S
H746 C756 0.930 . S
H747 C759 0.929 . S
H748 C762 0.930 . S
H749 C764 0.960 . S
H750 C764 0.960 . S
H751 C764 0.960 . S
C752 H744 0.929 . S
C752 C753 1.377 . S
C752 C754 1.384 . S
C753 C752 1.377 . S
C753 C759 1.390 . S
C754 H745 0.930 . S
C754 C752 1.384 . S
C754 C755 1.372 . S
C755 C754 1.372 . S
C755 C756 1.400 . S
C755 C760 1.490 . S
C756 H746 0.930 . S
C756 C755 1.400 . S
C756 C759 1.386 . S
H757 C773 0.930 . S
H758 C774 0.931 . S
C759 H747 0.929 . S
C759 C753 1.390 . S
C759 C756 1.386 . S
C760 C755 1.490 . S
C760 C762 1.395 . S
C760 C763 1.403 . S
H761 C767 0.930 . S
C762 H748 0.930 . S
C762 C760 1.395 . S
C762 C765 1.403 . S
C763 C760 1.403 . S
C763 C764 1.524 . S
C763 C767 1.400 . S
C764 H749 0.960 . S
C764 H750 0.960 . S
C764 H751 0.960 . S
C764 C763 1.524 . S
C765 C762 1.403 . S
C765 C766 1.392 . S
C765 C769 1.495 . S
C766 C765 1.392 . S
C766 C767 1.385 . S
C766 C768 1.478 . S
C767 H761 0.930 . S
C767 C763 1.400 . S
C767 C766 1.385 . S
C768 C766 1.478 . S
C768 C770 1.381 . S
C768 C774 1.383 . S
C769 C765 1.495 . S
C769 H775 0.959 . S
C769 H776 0.961 . S
C769 H777 0.960 . S
C770 C768 1.381 . S
C770 C771 1.394 . S
C770 H778 0.930 . S
C771 C770 1.394 . S
C771 C772 1.383 . S
C771 H779 0.929 . S
C772 C771 1.383 . S
C772 C773 1.377 . S
C773 H757 0.930 . S
C773 C772 1.377 . S
C773 C774 1.379 . S
C774 H758 0.931 . S
C774 C768 1.383 . S
C774 C773 1.379 . S
H775 C769 0.959 . S
H776 C769 0.961 . S
H777 C769 0.960 . S
H778 C770 0.930 . S
H779 C771 0.929 . S
H780 C788 0.929 . S
H781 C790 0.930 . S
H782 C792 0.930 . S
H783 C795 0.929 . S
H784 C798 0.930 . S
H785 C800 0.960 . S
H786 C800 0.960 . S
H787 C800 0.960 . S
C788 H780 0.929 . S
C788 C789 1.377 . S
C788 C790 1.384 . S
C789 C788 1.377 . S
C789 C795 1.390 . S
C790 H781 0.930 . S
C790 C788 1.384 . S
C790 C791 1.372 . S
C791 C790 1.372 . S
C791 C792 1.400 . S
C791 C796 1.490 . S
C792 H782 0.930 . S
C792 C791 1.400 . S
C792 C795 1.386 . S
H793 C809 0.930 . S
H794 C810 0.931 . S
C795 H783 0.929 . S
C795 C789 1.390 . S
C795 C792 1.386 . S
C796 C791 1.490 . S
C796 C798 1.395 . S
C796 C799 1.403 . S
H797 C803 0.930 . S
C798 H784 0.930 . S
C798 C796 1.395 . S
C798 C801 1.403 . S
C799 C796 1.403 . S
C799 C800 1.524 . S
C799 C803 1.400 . S
C800 H785 0.960 . S
C800 H786 0.960 . S
C800 H787 0.960 . S
C800 C799 1.524 . S
C801 C798 1.403 . S
C801 C802 1.392 . S
C801 C805 1.495 . S
C802 C801 1.392 . S
C802 C803 1.385 . S
C802 C804 1.478 . S
C803 H797 0.930 . S
C803 C799 1.400 . S
C803 C802 1.385 . S
C804 C802 1.478 . S
C804 C806 1.381 . S
C804 C810 1.383 . S
C805 C801 1.495 . S
C805 H811 0.959 . S
C805 H812 0.961 . S
C805 H813 0.960 . S
C806 C804 1.381 . S
C806 C807 1.394 . S
C806 H814 0.930 . S
C807 C806 1.394 . S
C807 C808 1.383 . S
C807 H815 0.929 . S
C808 C807 1.383 . S
C808 C809 1.377 . S
C809 H793 0.930 . S
C809 C808 1.377 . S
C809 C810 1.379 . S
C810 H794 0.931 . S
C810 C804 1.383 . S
C810 C809 1.379 . S
H811 C805 0.959 . S
H812 C805 0.961 . S
H813 C805 0.960 . S
H814 C806 0.930 . S
H815 C807 0.929 . S
H816 C824 0.929 . S
H817 C826 0.930 . S
H818 C828 0.930 . S
H819 C831 0.929 . S
H820 C834 0.930 . S
H821 C836 0.960 . S
H822 C836 0.960 . S
H823 C836 0.960 . S
C824 H816 0.929 . S
C824 C825 1.377 . S
C824 C826 1.384 . S
C825 C824 1.377 . S
C825 C831 1.390 . S
C826 H817 0.930 . S
C826 C824 1.384 . S
C826 C827 1.372 . S
C827 C826 1.372 . S
C827 C828 1.400 . S
C827 C832 1.490 . S
C828 H818 0.930 . S
C828 C827 1.400 . S
C828 C831 1.386 . S
H829 C845 0.930 . S
H830 C846 0.931 . S
C831 H819 0.929 . S
C831 C825 1.390 . S
C831 C828 1.386 . S
C832 C827 1.490 . S
C832 C834 1.395 . S
C832 C835 1.403 . S
H833 C839 0.930 . S
C834 H820 0.930 . S
C834 C832 1.395 . S
C834 C837 1.403 . S
C835 C832 1.403 . S
C835 C836 1.524 . S
C835 C839 1.400 . S
C836 H821 0.960 . S
C836 H822 0.960 . S
C836 H823 0.960 . S
C836 C835 1.524 . S
C837 C834 1.403 . S
C837 C838 1.392 . S
C837 C841 1.495 . S
C838 C837 1.392 . S
C838 C839 1.385 . S
C838 C840 1.478 . S
C839 H833 0.930 . S
C839 C835 1.400 . S
C839 C838 1.385 . S
C840 C838 1.478 . S
C840 C842 1.381 . S
C840 C846 1.383 . S
C841 C837 1.495 . S
C841 H847 0.959 . S
C841 H848 0.961 . S
C841 H849 0.960 . S
C842 C840 1.381 . S
C842 C843 1.394 . S
C842 H850 0.930 . S
C843 C842 1.394 . S
C843 C844 1.383 . S
C843 H851 0.929 . S
C844 C843 1.383 . S
C844 C845 1.377 . S
C845 H829 0.930 . S
C845 C844 1.377 . S
C845 C846 1.379 . S
C846 H830 0.931 . S
C846 C840 1.383 . S
C846 C845 1.379 . S
H847 C841 0.959 . S
H848 C841 0.961 . S
H849 C841 0.960 . S
H850 C842 0.930 . S
H851 C843 0.929 . S
H852 C860 0.929 . S
H853 C862 0.930 . S
H854 C864 0.930 . S
H855 C867 0.929 . S
H856 C870 0.930 . S
H857 C872 0.960 . S
H858 C872 0.960 . S
H859 C872 0.960 . S
C860 H852 0.929 . S
C860 C861 1.377 . S
C860 C862 1.384 . S
C861 C860 1.377 . S
C861 C867 1.390 . S
C862 H853 0.930 . S
C862 C860 1.384 . S
C862 C863 1.372 . S
C863 C862 1.372 . S
C863 C864 1.400 . S
C863 C868 1.490 . S
C864 H854 0.930 . S
C864 C863 1.400 . S
C864 C867 1.386 . S
H865 C881 0.930 . S
H866 C882 0.931 . S
C867 H855 0.929 . S
C867 C861 1.390 . S
C867 C864 1.386 . S
C868 C863 1.490 . S
C868 C870 1.395 . S
C868 C871 1.403 . S
H869 C875 0.930 . S
C870 H856 0.930 . S
C870 C868 1.395 . S
C870 C873 1.403 . S
C871 C868 1.403 . S
C871 C872 1.524 . S
C871 C875 1.400 . S
C872 H857 0.960 . S
C872 H858 0.960 . S
C872 H859 0.960 . S
C872 C871 1.524 . S
C873 C870 1.403 . S
C873 C874 1.392 . S
C873 C877 1.495 . S
C874 C873 1.392 . S
C874 C875 1.385 . S
C874 C876 1.478 . S
C875 H869 0.930 . S
C875 C871 1.400 . S
C875 C874 1.385 . S
C876 C874 1.478 . S
C876 C878 1.381 . S
C876 C882 1.383 . S
C877 C873 1.495 . S
C877 H883 0.959 . S
C877 H884 0.961 . S
C877 H885 0.960 . S
C878 C876 1.381 . S
C878 C879 1.394 . S
C878 H886 0.930 . S
C879 C878 1.394 . S
C879 C880 1.383 . S
C879 H887 0.929 . S
C880 C879 1.383 . S
C880 C881 1.377 . S
C881 H865 0.930 . S
C881 C880 1.377 . S
C881 C882 1.379 . S
C882 H866 0.931 . S
C882 C876 1.383 . S
C882 C881 1.379 . S
H883 C877 0.959 . S
H884 C877 0.961 . S
H885 C877 0.960 . S
H886 C878 0.930 . S
H887 C879 0.929 . S
H888 C896 0.929 . S
H889 C898 0.930 . S
H890 C900 0.930 . S
H891 C903 0.929 . S
H892 C906 0.930 . S
H893 C908 0.960 . S
H894 C908 0.960 . S
H895 C908 0.960 . S
C896 H888 0.929 . S
C896 C897 1.377 . S
C896 C898 1.384 . S
C897 C896 1.377 . S
C897 C903 1.390 . S
C898 H889 0.930 . S
C898 C896 1.384 . S
C898 C899 1.372 . S
C899 C898 1.372 . S
C899 C900 1.400 . S
C899 C904 1.490 . S
C900 H890 0.930 . S
C900 C899 1.400 . S
C900 C903 1.386 . S
H901 C917 0.930 . S
H902 C918 0.931 . S
C903 H891 0.929 . S
C903 C897 1.390 . S
C903 C900 1.386 . S
C904 C899 1.490 . S
C904 C906 1.395 . S
C904 C907 1.403 . S
H905 C911 0.930 . S
C906 H892 0.930 . S
C906 C904 1.395 . S
C906 C909 1.403 . S
C907 C904 1.403 . S
C907 C908 1.524 . S
C907 C911 1.400 . S
C908 H893 0.960 . S
C908 H894 0.960 . S
C908 H895 0.960 . S
C908 C907 1.524 . S
C909 C906 1.403 . S
C909 C910 1.392 . S
C909 C913 1.495 . S
C910 C909 1.392 . S
C910 C911 1.385 . S
C910 C912 1.478 . S
C911 H905 0.930 . S
C911 C907 1.400 . S
C911 C910 1.385 . S
C912 C910 1.478 . S
C912 C914 1.381 . S
C912 C918 1.383 . S
C913 C909 1.495 . S
C913 H919 0.959 . S
C913 H920 0.961 . S
C913 H921 0.960 . S
C914 C912 1.381 . S
C914 C915 1.394 . S
C914 H922 0.930 . S
C915 C914 1.394 . S
C915 C916 1.383 . S
C915 H923 0.929 . S
C916 C915 1.383 . S
C916 C917 1.377 . S
C917 H901 0.930 . S
C917 C916 1.377 . S
C917 C918 1.379 . S
C918 H902 0.931 . S
C918 C912 1.383 . S
C918 C917 1.379 . S
H919 C913 0.959 . S
H920 C913 0.961 . S
H921 C913 0.960 . S
H922 C914 0.930 . S
H923 C915 0.929 . S
H924 C932 0.929 . S
H925 C934 0.930 . S
H926 C936 0.930 . S
H927 C939 0.929 . S
H928 C942 0.930 . S
H929 C944 0.960 . S
H930 C944 0.960 . S
H931 C944 0.960 . S
C932 H924 0.929 . S
C932 C933 1.377 . S
C932 C934 1.384 . S
C933 C932 1.377 . S
C933 C939 1.390 . S
C934 H925 0.930 . S
C934 C932 1.384 . S
C934 C935 1.372 . S
C935 C934 1.372 . S
C935 C936 1.400 . S
C935 C940 1.490 . S
C936 H926 0.930 . S
C936 C935 1.400 . S
C936 C939 1.386 . S
H937 C953 0.930 . S
H938 C954 0.931 . S
C939 H927 0.929 . S
C939 C933 1.390 . S
C939 C936 1.386 . S
C940 C935 1.490 . S
C940 C942 1.395 . S
C940 C943 1.403 . S
H941 C947 0.930 . S
C942 H928 0.930 . S
C942 C940 1.395 . S
C942 C945 1.403 . S
C943 C940 1.403 . S
C943 C944 1.524 . S
C943 C947 1.400 . S
C944 H929 0.960 . S
C944 H930 0.960 . S
C944 H931 0.960 . S
C944 C943 1.524 . S
C945 C942 1.403 . S
C945 C946 1.392 . S
C945 C949 1.495 . S
C946 C945 1.392 . S
C946 C947 1.385 . S
C946 C948 1.478 . S
C947 H941 0.930 . S
C947 C943 1.400 . S
C947 C946 1.385 . S
C948 C946 1.478 . S
C948 C950 1.381 . S
C948 C954 1.383 . S
C949 C945 1.495 . S
C949 H955 0.959 . S
C949 H956 0.961 . S
C949 H957 0.960 . S
C950 C948 1.381 . S
C950 C951 1.394 . S
C950 H958 0.930 . S
C951 C950 1.394 . S
C951 C952 1.383 . S
C951 H959 0.929 . S
C952 C951 1.383 . S
C952 C953 1.377 . S
C953 H937 0.930 . S
C953 C952 1.377 . S
C953 C954 1.379 . S
C954 H938 0.931 . S
C954 C948 1.383 . S
C954 C953 1.379 . S
H955 C949 0.959 . S
H956 C949 0.961 . S
H957 C949 0.960 . S
H958 C950 0.930 . S
H959 C951 0.929 . S
H960 C968 0.929 . S
H961 C970 0.930 . S
H962 C972 0.930 . S
H963 C975 0.929 . S
H964 C978 0.930 . S
H965 C980 0.960 . S
H966 C980 0.960 . S
H967 C980 0.960 . S
C968 H960 0.929 . S
C968 C969 1.377 . S
C968 C970 1.384 . S
C969 C968 1.377 . S
C969 C975 1.390 . S
C970 H961 0.930 . S
C970 C968 1.384 . S
C970 C971 1.372 . S
C971 C970 1.372 . S
C971 C972 1.400 . S
C971 C976 1.490 . S
C972 H962 0.930 . S
C972 C971 1.400 . S
C972 C975 1.386 . S
H973 C989 0.930 . S
H974 C990 0.931 . S
C975 H963 0.929 . S
C975 C969 1.390 . S
C975 C972 1.386 . S
C976 C971 1.490 . S
C976 C978 1.395 . S
C976 C979 1.403 . S
H977 C983 0.930 . S
C978 H964 0.930 . S
C978 C976 1.395 . S
C978 C981 1.403 . S
C979 C976 1.403 . S
C979 C980 1.524 . S
C979 C983 1.400 . S
C980 H965 0.960 . S
C980 H966 0.960 . S
C980 H967 0.960 . S
C980 C979 1.524 . S
C981 C978 1.403 . S
C981 C982 1.392 . S
C981 C985 1.495 . S
C982 C981 1.392 . S
C982 C983 1.385 . S
C982 C984 1.478 . S
C983 H977 0.930 . S
C983 C979 1.400 . S
C983 C982 1.385 . S
C984 C982 1.478 . S
C984 C986 1.381 . S
C984 C990 1.383 . S
C985 C981 1.495 . S
C985 H991 0.959 . S
C985 H992 0.961 . S
C985 H993 0.960 . S
C986 C984 1.381 . S
C986 C987 1.394 . S
C986 H994 0.930 . S
C987 C986 1.394 . S
C987 C988 1.383 . S
C987 H995 0.929 . S
C988 C987 1.383 . S
C988 C989 1.377 . S
C989 H973 0.930 . S
C989 C988 1.377 . S
C989 C990 1.379 . S
C990 H974 0.931 . S
C990 C984 1.383 . S
C990 C989 1.379 . S
H991 C985 0.959 . S
H992 C985 0.961 . S
H993 C985 0.960 . S
H994 C986 0.930 . S
H995 C987 0.929 . S
H996 C1004 0.929 . S
H997 C1006 0.930 . S
H998 C1008 0.930 . S
H999 C1011 0.929 . S
H1000 C1014 0.930 . S
H1001 C1016 0.960 . S
H1002 C1016 0.960 . S
H1003 C1016 0.960 . S
C1004 H996 0.929 . S
C1004 C1005 1.377 . S
C1004 C1006 1.384 . S
C1005 C1004 1.377 . S
C1005 C1011 1.390 . S
C1006 H997 0.930 . S
C1006 C1004 1.384 . S
C1006 C1007 1.372 . S
C1007 C1006 1.372 . S
C1007 C1008 1.400 . S
C1007 C1012 1.490 . S
C1008 H998 0.930 . S
C1008 C1007 1.400 . S
C1008 C1011 1.386 . S
H1009 C1025 0.930 . S
H1010 C1026 0.931 . S
C1011 H999 0.929 . S
C1011 C1005 1.390 . S
C1011 C1008 1.386 . S
C1012 C1007 1.490 . S
C1012 C1014 1.395 . S
C1012 C1015 1.403 . S
H1013 C1019 0.930 . S
C1014 H1000 0.930 . S
C1014 C1012 1.395 . S
C1014 C1017 1.403 . S
C1015 C1012 1.403 . S
C1015 C1016 1.524 . S
C1015 C1019 1.400 . S
C1016 H1001 0.960 . S
C1016 H1002 0.960 . S
C1016 H1003 0.960 . S
C1016 C1015 1.524 . S
C1017 C1014 1.403 . S
C1017 C1018 1.392 . S
C1017 C1021 1.495 . S
C1018 C1017 1.392 . S
C1018 C1019 1.385 . S
C1018 C1020 1.478 . S
C1019 H1013 0.930 . S
C1019 C1015 1.400 . S
C1019 C1018 1.385 . S
C1020 C1018 1.478 . S
C1020 C1022 1.381 . S
C1020 C1026 1.383 . S
C1021 C1017 1.495 . S
C1021 H1027 0.959 . S
C1021 H1028 0.961 . S
C1021 H1029 0.960 . S
C1022 C1020 1.381 . S
C1022 C1023 1.394 . S
C1022 H1030 0.930 . S
C1023 C1022 1.394 . S
C1023 C1024 1.383 . S
C1023 H1031 0.929 . S
C1024 C1023 1.383 . S
C1024 C1025 1.377 . S
C1025 H1009 0.930 . S
C1025 C1024 1.377 . S
C1025 C1026 1.379 . S
C1026 H1010 0.931 . S
C1026 C1020 1.383 . S
C1026 C1025 1.379 . S
H1027 C1021 0.959 . S
H1028 C1021 0.961 . S
H1029 C1021 0.960 . S
H1030 C1022 0.930 . S
H1031 C1023 0.929 . S
H1032 C1040 0.929 . S
H1033 C1042 0.930 . S
H1034 C1044 0.930 . S
H1035 C1047 0.929 . S
H1036 C1050 0.930 . S
H1037 C1052 0.960 . S
H1038 C1052 0.960 . S
H1039 C1052 0.960 . S
C1040 H1032 0.929 . S
C1040 C1041 1.377 . S
C1040 C1042 1.384 . S
C1041 C1040 1.377 . S
C1041 C1047 1.390 . S
C1042 H1033 0.930 . S
C1042 C1040 1.384 . S
C1042 C1043 1.372 . S
C1043 C1042 1.372 . S
C1043 C1044 1.400 . S
C1043 C1048 1.490 . S
C1044 H1034 0.930 . S
C1044 C1043 1.400 . S
C1044 C1047 1.386 . S
H1045 C1061 0.930 . S
H1046 C1062 0.931 . S
C1047 H1035 0.929 . S
C1047 C1041 1.390 . S
C1047 C1044 1.386 . S
C1048 C1043 1.490 . S
C1048 C1050 1.395 . S
C1048 C1051 1.403 . S
H1049 C1055 0.930 . S
C1050 H1036 0.930 . S
C1050 C1048 1.395 . S
C1050 C1053 1.403 . S
C1051 C1048 1.403 . S
C1051 C1052 1.524 . S
C1051 C1055 1.400 . S
C1052 H1037 0.960 . S
C1052 H1038 0.960 . S
C1052 H1039 0.960 . S
C1052 C1051 1.524 . S
C1053 C1050 1.403 . S
C1053 C1054 1.392 . S
C1053 C1057 1.495 . S
C1054 C1053 1.392 . S
C1054 C1055 1.385 . S
C1054 C1056 1.478 . S
C1055 H1049 0.930 . S
C1055 C1051 1.400 . S
C1055 C1054 1.385 . S
C1056 C1054 1.478 . S
C1056 C1058 1.381 . S
C1056 C1062 1.383 . S
C1057 C1053 1.495 . S
C1057 H1063 0.959 . S
C1057 H1064 0.961 . S
C1057 H1065 0.960 . S
C1058 C1056 1.381 . S
C1058 C1059 1.394 . S
C1058 H1066 0.930 . S
C1059 C1058 1.394 . S
C1059 C1060 1.383 . S
C1059 H1067 0.929 . S
C1060 C1059 1.383 . S
C1060 C1061 1.377 . S
C1061 H1045 0.930 . S
C1061 C1060 1.377 . S
C1061 C1062 1.379 . S
C1062 H1046 0.931 . S
C1062 C1056 1.383 . S
C1062 C1061 1.379 . S
H1063 C1057 0.959 . S
H1064 C1057 0.961 . S
H1065 C1057 0.960 . S
H1066 C1058 0.930 . S
H1067 C1059 0.929 . S
H1068 C1076 0.929 . S
H1069 C1078 0.930 . S
H1070 C1080 0.930 . S
H1071 C1083 0.929 . S
H1072 C1086 0.930 . S
H1073 C1088 0.960 . S
H1074 C1088 0.960 . S
H1075 C1088 0.960 . S
C1076 H1068 0.929 . S
C1076 C1077 1.377 . S
C1076 C1078 1.384 . S
C1077 C1076 1.377 . S
C1077 C1083 1.390 . S
C1078 H1069 0.930 . S
C1078 C1076 1.384 . S
C1078 C1079 1.372 . S
C1079 C1078 1.372 . S
C1079 C1080 1.400 . S
C1079 C1084 1.490 . S
C1080 H1070 0.930 . S
C1080 C1079 1.400 . S
C1080 C1083 1.386 . S
H1081 C1097 0.930 . S
H1082 C1098 0.931 . S
C1083 H1071 0.929 . S
C1083 C1077 1.390 . S
C1083 C1080 1.386 . S
C1084 C1079 1.490 . S
C1084 C1086 1.395 . S
C1084 C1087 1.403 . S
H1085 C1091 0.930 . S
C1086 H1072 0.930 . S
C1086 C1084 1.395 . S
C1086 C1089 1.403 . S
C1087 C1084 1.403 . S
C1087 C1088 1.524 . S
C1087 C1091 1.400 . S
C1088 H1073 0.960 . S
C1088 H1074 0.960 . S
C1088 H1075 0.960 . S
C1088 C1087 1.524 . S
C1089 C1086 1.403 . S
C1089 C1090 1.392 . S
C1089 C1093 1.495 . S
C1090 C1089 1.392 . S
C1090 C1091 1.385 . S
C1090 C1092 1.478 . S
C1091 H1085 0.930 . S
C1091 C1087 1.400 . S
C1091 C1090 1.385 . S
C1092 C1090 1.478 . S
C1092 C1094 1.381 . S
C1092 C1098 1.383 . S
C1093 C1089 1.495 . S
C1093 H1099 0.959 . S
C1093 H1100 0.961 . S
C1093 H1101 0.960 . S
C1094 C1092 1.381 . S
C1094 C1095 1.394 . S
C1094 H1102 0.930 . S
C1095 C1094 1.394 . S
C1095 C1096 1.383 . S
C1095 H1103 0.929 . S
C1096 C1095 1.383 . S
C1096 C1097 1.377 . S
C1097 H1081 0.930 . S
C1097 C1096 1.377 . S
C1097 C1098 1.379 . S
C1098 H1082 0.931 . S
C1098 C1092 1.383 . S
C1098 C1097 1.379 . S
H1099 C1093 0.959 . S
H1100 C1093 0.961 . S
H1101 C1093 0.960 . S
H1102 C1094 0.930 . S
H1103 C1095 0.929 . S
H1104 C1112 0.929 . S
H1105 C1114 0.930 . S
H1106 C1116 0.930 . S
H1107 C1119 0.929 . S
H1108 C1122 0.930 . S
H1109 C1124 0.960 . S
H1110 C1124 0.960 . S
H1111 C1124 0.960 . S
C1112 H1104 0.929 . S
C1112 C1113 1.377 . S
C1112 C1114 1.384 . S
C1113 C1112 1.377 . S
C1113 C1119 1.390 . S
C1114 H1105 0.930 . S
C1114 C1112 1.384 . S
C1114 C1115 1.372 . S
C1115 C1114 1.372 . S
C1115 C1116 1.400 . S
C1115 C1120 1.490 . S
C1116 H1106 0.930 . S
C1116 C1115 1.400 . S
C1116 C1119 1.386 . S
H1117 C1133 0.930 . S
H1118 C1134 0.931 . S
C1119 H1107 0.929 . S
C1119 C1113 1.390 . S
C1119 C1116 1.386 . S
C1120 C1115 1.490 . S
C1120 C1122 1.395 . S
C1120 C1123 1.403 . S
H1121 C1127 0.930 . S
C1122 H1108 0.930 . S
C1122 C1120 1.395 . S
C1122 C1125 1.403 . S
C1123 C1120 1.403 . S
C1123 C1124 1.524 . S
C1123 C1127 1.400 . S
C1124 H1109 0.960 . S
C1124 H1110 0.960 . S
C1124 H1111 0.960 . S
C1124 C1123 1.524 . S
C1125 C1122 1.403 . S
C1125 C1126 1.392 . S
C1125 C1129 1.495 . S
C1126 C1125 1.392 . S
C1126 C1127 1.385 . S
C1126 C1128 1.478 . S
C1127 H1121 0.930 . S
C1127 C1123 1.400 . S
C1127 C1126 1.385 . S
C1128 C1126 1.478 . S
C1128 C1130 1.381 . S
C1128 C1134 1.383 . S
C1129 C1125 1.495 . S
C1129 H1135 0.959 . S
C1129 H1136 0.961 . S
C1129 H1137 0.960 . S
C1130 C1128 1.381 . S
C1130 C1131 1.394 . S
C1130 H1138 0.930 . S
C1131 C1130 1.394 . S
C1131 C1132 1.383 . S
C1131 H1139 0.929 . S
C1132 C1131 1.383 . S
C1132 C1133 1.377 . S
C1133 H1117 0.930 . S
C1133 C1132 1.377 . S
C1133 C1134 1.379 . S
C1134 H1118 0.931 . S
C1134 C1128 1.383 . S
C1134 C1133 1.379 . S
H1135 C1129 0.959 . S
H1136 C1129 0.961 . S
H1137 C1129 0.960 . S
H1138 C1130 0.930 . S
H1139 C1131 0.929 . S
H1140 C1148 0.929 . S
H1141 C1150 0.930 . S
H1142 C1152 0.930 . S
H1143 C1155 0.929 . S
H1144 C1158 0.930 . S
H1145 C1160 0.960 . S
H1146 C1160 0.960 . S
H1147 C1160 0.960 . S
C1148 H1140 0.929 . S
C1148 C1149 1.377 . S
C1148 C1150 1.384 . S
C1149 C1148 1.377 . S
C1149 C1155 1.390 . S
C1150 H1141 0.930 . S
C1150 C1148 1.384 . S
C1150 C1151 1.372 . S
C1151 C1150 1.372 . S
C1151 C1152 1.400 . S
C1151 C1156 1.490 . S
C1152 H1142 0.930 . S
C1152 C1151 1.400 . S
C1152 C1155 1.386 . S
H1153 C1169 0.930 . S
H1154 C1170 0.931 . S
C1155 H1143 0.929 . S
C1155 C1149 1.390 . S
C1155 C1152 1.386 . S
C1156 C1151 1.490 . S
C1156 C1158 1.395 . S
C1156 C1159 1.403 . S
H1157 C1163 0.930 . S
C1158 H1144 0.930 . S
C1158 C1156 1.395 . S
C1158 C1161 1.403 . S
C1159 C1156 1.403 . S
C1159 C1160 1.524 . S
C1159 C1163 1.400 . S
C1160 H1145 0.960 . S
C1160 H1146 0.960 . S
C1160 H1147 0.960 . S
C1160 C1159 1.524 . S
C1161 C1158 1.403 . S
C1161 C1162 1.392 . S
C1161 C1165 1.495 . S
C1162 C1161 1.392 . S
C1162 C1163 1.385 . S
C1162 C1164 1.478 . S
C1163 H1157 0.930 . S
C1163 C1159 1.400 . S
C1163 C1162 1.385 . S
C1164 C1162 1.478 . S
C1164 C1166 1.381 . S
C1164 C1170 1.383 . S
C1165 C1161 1.495 . S
C1165 H1171 0.959 . S
C1165 H1172 0.961 . S
C1165 H1173 0.960 . S
C1166 C1164 1.381 . S
C1166 C1167 1.394 . S
C1166 H1174 0.930 . S
C1167 C1166 1.394 . S
C1167 C1168 1.383 . S
C1167 H1175 0.929 . S
C1168 C1167 1.383 . S
C1168 C1169 1.377 . S
C1169 H1153 0.930 . S
C1169 C1168 1.377 . S
C1169 C1170 1.379 . S
C1170 H1154 0.931 . S
C1170 C1164 1.383 . S
C1170 C1169 1.379 . S
H1171 C1165 0.959 . S
H1172 C1165 0.961 . S
H1173 C1165 0.960 . S
H1174 C1166 0.930 . S
H1175 C1167 0.929 . S
H1176 C1184 0.929 . S
H1177 C1186 0.930 . S
H1178 C1188 0.930 . S
H1179 C1191 0.929 . S
H1180 C1194 0.930 . S
H1181 C1196 0.960 . S
H1182 C1196 0.960 . S
H1183 C1196 0.960 . S
C1184 H1176 0.929 . S
C1184 C1185 1.377 . S
C1184 C1186 1.384 . S
C1185 C1184 1.377 . S
C1185 C1191 1.390 . S
C1186 H1177 0.930 . S
C1186 C1184 1.384 . S
C1186 C1187 1.372 . S
C1187 C1186 1.372 . S
C1187 C1188 1.400 . S
C1187 C1192 1.490 . S
C1188 H1178 0.930 . S
C1188 C1187 1.400 . S
C1188 C1191 1.386 . S
H1189 C1205 0.930 . S
H1190 C1206 0.931 . S
C1191 H1179 0.929 . S
C1191 C1185 1.390 . S
C1191 C1188 1.386 . S
C1192 C1187 1.490 . S
C1192 C1194 1.395 . S
C1192 C1195 1.403 . S
H1193 C1199 0.930 . S
C1194 H1180 0.930 . S
C1194 C1192 1.395 . S
C1194 C1197 1.403 . S
C1195 C1192 1.403 . S
C1195 C1196 1.524 . S
C1195 C1199 1.400 . S
C1196 H1181 0.960 . S
C1196 H1182 0.960 . S
C1196 H1183 0.960 . S
C1196 C1195 1.524 . S
C1197 C1194 1.403 . S
C1197 C1198 1.392 . S
C1197 C1201 1.495 . S
C1198 C1197 1.392 . S
C1198 C1199 1.385 . S
C1198 C1200 1.478 . S
C1199 H1193 0.930 . S
C1199 C1195 1.400 . S
C1199 C1198 1.385 . S
C1200 C1198 1.478 . S
C1200 C1202 1.381 . S
C1200 C1206 1.383 . S
C1201 C1197 1.495 . S
C1201 H1207 0.959 . S
C1201 H1208 0.961 . S
C1201 H1209 0.960 . S
C1202 C1200 1.381 . S
C1202 C1203 1.394 . S
C1202 H1210 0.930 . S
C1203 C1202 1.394 . S
C1203 C1204 1.383 . S
C1203 H1211 0.929 . S
C1204 C1203 1.383 . S
C1204 C1205 1.377 . S
C1205 H1189 0.930 . S
C1205 C1204 1.377 . S
C1205 C1206 1.379 . S
C1206 H1190 0.931 . S
C1206 C1200 1.383 . S
C1206 C1205 1.379 . S
H1207 C1201 0.959 . S
H1208 C1201 0.961 . S
H1209 C1201 0.960 . S
H1210 C1202 0.930 . S
H1211 C1203 0.929 . S
H1212 C1220 0.929 . S
H1213 C1222 0.930 . S
H1214 C1224 0.930 . S
H1215 C1227 0.929 . S
H1216 C1230 0.930 . S
H1217 C1232 0.960 . S
H1218 C1232 0.960 . S
H1219 C1232 0.960 . S
C1220 H1212 0.929 . S
C1220 C1221 1.377 . S
C1220 C1222 1.384 . S
C1221 C1220 1.377 . S
C1221 C1227 1.390 . S
C1222 H1213 0.930 . S
C1222 C1220 1.384 . S
C1222 C1223 1.372 . S
C1223 C1222 1.372 . S
C1223 C1224 1.400 . S
C1223 C1228 1.490 . S
C1224 H1214 0.930 . S
C1224 C1223 1.400 . S
C1224 C1227 1.386 . S
H1225 C1241 0.930 . S
H1226 C1242 0.931 . S
C1227 H1215 0.929 . S
C1227 C1221 1.390 . S
C1227 C1224 1.386 . S
C1228 C1223 1.490 . S
C1228 C1230 1.395 . S
C1228 C1231 1.403 . S
H1229 C1235 0.930 . S
C1230 H1216 0.930 . S
C1230 C1228 1.395 . S
C1230 C1233 1.403 . S
C1231 C1228 1.403 . S
C1231 C1232 1.524 . S
C1231 C1235 1.400 . S
C1232 H1217 0.960 . S
C1232 H1218 0.960 . S
C1232 H1219 0.960 . S
C1232 C1231 1.524 . S
C1233 C1230 1.403 . S
C1233 C1234 1.392 . S
C1233 C1237 1.495 . S
C1234 C1233 1.392 . S
C1234 C1235 1.385 . S
C1234 C1236 1.478 . S
C1235 H1229 0.930 . S
C1235 C1231 1.400 . S
C1235 C1234 1.385 . S
C1236 C1234 1.478 . S
C1236 C1238 1.381 . S
C1236 C1242 1.383 . S
C1237 C1233 1.495 . S
C1237 H1243 0.959 . S
C1237 H1244 0.961 . S
C1237 H1245 0.960 . S
C1238 C1236 1.381 . S
C1238 C1239 1.394 . S
C1238 H1246 0.930 . S
C1239 C1238 1.394 . S
C1239 C1240 1.383 . S
C1239 H1247 0.929 . S
C1240 C1239 1.383 . S
C1240 C1241 1.377 . S
C1241 H1225 0.930 . S
C1241 C1240 1.377 . S
C1241 C1242 1.379 . S
C1242 H1226 0.931 . S
C1242 C1236 1.383 . S
C1242 C1241 1.379 . S
H1243 C1237 0.959 . S
H1244 C1237 0.961 . S
H1245 C1237 0.960 . S
H1246 C1238 0.930 . S
H1247 C1239 0.929 . S
H1248 C1256 0.929 . S
H1249 C1258 0.930 . S
H1250 C1260 0.930 . S
H1251 C1263 0.929 . S
H1252 C1266 0.930 . S
H1253 C1268 0.960 . S
H1254 C1268 0.960 . S
H1255 C1268 0.960 . S
C1256 H1248 0.929 . S
C1256 C1257 1.377 . S
C1256 C1258 1.384 . S
C1257 C1256 1.377 . S
C1257 C1263 1.390 . S
C1258 H1249 0.930 . S
C1258 C1256 1.384 . S
C1258 C1259 1.372 . S
C1259 C1258 1.372 . S
C1259 C1260 1.400 . S
C1259 C1264 1.490 . S
C1260 H1250 0.930 . S
C1260 C1259 1.400 . S
C1260 C1263 1.386 . S
H1261 C1277 0.930 . S
H1262 C1278 0.931 . S
C1263 H1251 0.929 . S
C1263 C1257 1.390 . S
C1263 C1260 1.386 . S
C1264 C1259 1.490 . S
C1264 C1266 1.395 . S
C1264 C1267 1.403 . S
H1265 C1271 0.930 . S
C1266 H1252 0.930 . S
C1266 C1264 1.395 . S
C1266 C1269 1.403 . S
C1267 C1264 1.403 . S
C1267 C1268 1.524 . S
C1267 C1271 1.400 . S
C1268 H1253 0.960 . S
C1268 H1254 0.960 . S
C1268 H1255 0.960 . S
C1268 C1267 1.524 . S
C1269 C1266 1.403 . S
C1269 C1270 1.392 . S
C1269 C1273 1.495 . S
C1270 C1269 1.392 . S
C1270 C1271 1.385 . S
C1270 C1272 1.478 . S
C1271 H1265 0.930 . S
C1271 C1267 1.400 . S
C1271 C1270 1.385 . S
C1272 C1270 1.478 . S
C1272 C1274 1.381 . S
C1272 C1278 1.383 . S
C1273 C1269 1.495 . S
C1273 H1279 0.959 . S
C1273 H1280 0.961 . S
C1273 H1281 0.960 . S
C1274 C1272 1.381 . S
C1274 C1275 1.394 . S
C1274 H1282 0.930 . S
C1275 C1274 1.394 . S
C1275 C1276 1.383 . S
C1275 H1283 0.929 . S
C1276 C1275 1.383 . S
C1276 C1277 1.377 . S
C1277 H1261 0.930 . S
C1277 C1276 1.377 . S
C1277 C1278 1.379 . S
C1278 H1262 0.931 . S
C1278 C1272 1.383 . S
C1278 C1277 1.379 . S
H1279 C1273 0.959 . S
H1280 C1273 0.961 . S
H1281 C1273 0.960 . S
H1282 C1274 0.930 . S
H1283 C1275 0.929 . S
H1284 C1292 0.929 . S
H1285 C1294 0.930 . S
H1286 C1296 0.930 . S
H1287 C1299 0.929 . S
H1288 C1302 0.930 . S
H1289 C1304 0.960 . S
H1290 C1304 0.960 . S
H1291 C1304 0.960 . S
C1292 H1284 0.929 . S
C1292 C1293 1.377 . S
C1292 C1294 1.384 . S
C1293 C1292 1.377 . S
C1293 C1299 1.390 . S
C1294 H1285 0.930 . S
C1294 C1292 1.384 . S
C1294 C1295 1.372 . S
C1295 C1294 1.372 . S
C1295 C1296 1.400 . S
C1295 C1300 1.490 . S
C1296 H1286 0.930 . S
C1296 C1295 1.400 . S
C1296 C1299 1.386 . S
H1297 C1313 0.930 . S
H1298 C1314 0.931 . S
C1299 H1287 0.929 . S
C1299 C1293 1.390 . S
C1299 C1296 1.386 . S
C1300 C1295 1.490 . S
C1300 C1302 1.395 . S
C1300 C1303 1.403 . S
H1301 C1307 0.930 . S
C1302 H1288 0.930 . S
C1302 C1300 1.395 . S
C1302 C1305 1.403 . S
C1303 C1300 1.403 . S
C1303 C1304 1.524 . S
C1303 C1307 1.400 . S
C1304 H1289 0.960 . S
C1304 H1290 0.960 . S
C1304 H1291 0.960 . S
C1304 C1303 1.524 . S
C1305 C1302 1.403 . S
C1305 C1306 1.392 . S
C1305 C1309 1.495 . S
C1306 C1305 1.392 . S
C1306 C1307 1.385 . S
C1306 C1308 1.478 . S
C1307 H1301 0.930 . S
C1307 C1303 1.400 . S
C1307 C1306 1.385 . S
C1308 C1306 1.478 . S
C1308 C1310 1.381 . S
C1308 C1314 1.383 . S
C1309 C1305 1.495 . S
C1309 H1315 0.959 . S
C1309 H1316 0.961 . S
C1309 H1317 0.960 . S
C1310 C1308 1.381 . S
C1310 C1311 1.394 . S
C1310 H1318 0.930 . S
C1311 C1310 1.394 . S
C1311 C1312 1.383 . S
C1311 H1319 0.929 . S
C1312 C1311 1.383 . S
C1312 C1313 1.377 . S
C1313 H1297 0.930 . S
C1313 C1312 1.377 . S
C1313 C1314 1.379 . S
C1314 H1298 0.931 . S
C1314 C1308 1.383 . S
C1314 C1313 1.379 . S
H1315 C1309 0.959 . S
H1316 C1309 0.961 . S
H1317 C1309 0.960 . S
H1318 C1310 0.930 . S
H1319 C1311 0.929 . S
H1320 C1328 0.929 . S
H1321 C1330 0.930 . S
H1322 C1332 0.930 . S
H1323 C1335 0.929 . S
H1324 C1338 0.930 . S
H1325 C1340 0.960 . S
H1326 C1340 0.960 . S
H1327 C1340 0.960 . S
C1328 H1320 0.929 . S
C1328 C1329 1.377 . S
C1328 C1330 1.384 . S
C1329 C1328 1.377 . S
C1329 C1335 1.390 . S
C1330 H1321 0.930 . S
C1330 C1328 1.384 . S
C1330 C1331 1.372 . S
C1331 C1330 1.372 . S
C1331 C1332 1.400 . S
C1331 C1336 1.490 . S
C1332 H1322 0.930 . S
C1332 C1331 1.400 . S
C1332 C1335 1.386 . S
H1333 C1349 0.930 . S
H1334 C1350 0.931 . S
C1335 H1323 0.929 . S
C1335 C1329 1.390 . S
C1335 C1332 1.386 . S
C1336 C1331 1.490 . S
C1336 C1338 1.395 . S
C1336 C1339 1.403 . S
H1337 C1343 0.930 . S
C1338 H1324 0.930 . S
C1338 C1336 1.395 . S
C1338 C1341 1.403 . S
C1339 C1336 1.403 . S
C1339 C1340 1.524 . S
C1339 C1343 1.400 . S
C1340 H1325 0.960 . S
C1340 H1326 0.960 . S
C1340 H1327 0.960 . S
C1340 C1339 1.524 . S
C1341 C1338 1.403 . S
C1341 C1342 1.392 . S
C1341 C1345 1.495 . S
C1342 C1341 1.392 . S
C1342 C1343 1.385 . S
C1342 C1344 1.478 . S
C1343 H1337 0.930 . S
C1343 C1339 1.400 . S
C1343 C1342 1.385 . S
C1344 C1342 1.478 . S
C1344 C1346 1.381 . S
C1344 C1350 1.383 . S
C1345 C1341 1.495 . S
C1345 H1351 0.959 . S
C1345 H1352 0.961 . S
C1345 H1353 0.960 . S
C1346 C1344 1.381 . S
C1346 C1347 1.394 . S
C1346 H1354 0.930 . S
C1347 C1346 1.394 . S
C1347 C1348 1.383 . S
C1347 H1355 0.929 . S
C1348 C1347 1.383 . S
C1348 C1349 1.377 . S
C1349 H1333 0.930 . S
C1349 C1348 1.377 . S
C1349 C1350 1.379 . S
C1350 H1334 0.931 . S
C1350 C1344 1.383 . S
C1350 C1349 1.379 . S
H1351 C1345 0.959 . S
H1352 C1345 0.961 . S
H1353 C1345 0.960 . S
H1354 C1346 0.930 . S
H1355 C1347 0.929 . S
H1356 C1364 0.929 . S
H1357 C1366 0.930 . S
H1358 C1368 0.930 . S
H1359 C1371 0.929 . S
H1360 C1374 0.930 . S
H1361 C1376 0.960 . S
H1362 C1376 0.960 . S
H1363 C1376 0.960 . S
C1364 H1356 0.929 . S
C1364 C1365 1.377 . S
C1364 C1366 1.384 . S
C1365 C1364 1.377 . S
C1365 C1371 1.390 . S
C1366 H1357 0.930 . S
C1366 C1364 1.384 . S
C1366 C1367 1.372 . S
C1367 C1366 1.372 . S
C1367 C1368 1.400 . S
C1367 C1372 1.490 . S
C1368 H1358 0.930 . S
C1368 C1367 1.400 . S
C1368 C1371 1.386 . S
H1369 C1385 0.930 . S
H1370 C1386 0.931 . S
C1371 H1359 0.929 . S
C1371 C1365 1.390 . S
C1371 C1368 1.386 . S
C1372 C1367 1.490 . S
C1372 C1374 1.395 . S
C1372 C1375 1.403 . S
H1373 C1379 0.930 . S
C1374 H1360 0.930 . S
C1374 C1372 1.395 . S
C1374 C1377 1.403 . S
C1375 C1372 1.403 . S
C1375 C1376 1.524 . S
C1375 C1379 1.400 . S
C1376 H1361 0.960 . S
C1376 H1362 0.960 . S
C1376 H1363 0.960 . S
C1376 C1375 1.524 . S
C1377 C1374 1.403 . S
C1377 C1378 1.392 . S
C1377 C1381 1.495 . S
C1378 C1377 1.392 . S
C1378 C1379 1.385 . S
C1378 C1380 1.478 . S
C1379 H1373 0.930 . S
C1379 C1375 1.400 . S
C1379 C1378 1.385 . S
C1380 C1378 1.478 . S
C1380 C1382 1.381 . S
C1380 C1386 1.383 . S
C1381 C1377 1.495 . S
C1381 H1387 0.959 . S
C1381 H1388 0.961 . S
C1381 H1389 0.960 . S
C1382 C1380 1.381 . S
C1382 C1383 1.394 . S
C1382 H1390 0.930 . S
C1383 C1382 1.394 . S
C1383 C1384 1.383 . S
C1383 H1391 0.929 . S
C1384 C1383 1.383 . S
C1384 C1385 1.377 . S
C1385 H1369 0.930 . S
C1385 C1384 1.377 . S
C1385 C1386 1.379 . S
C1386 H1370 0.931 . S
C1386 C1380 1.383 . S
C1386 C1385 1.379 . S
H1387 C1381 0.959 . S
H1388 C1381 0.961 . S
H1389 C1381 0.960 . S
H1390 C1382 0.930 . S
H1391 C1383 0.929 . S
H1392 C1400 0.929 . S
H1393 C1402 0.930 . S
H1394 C1404 0.930 . S
H1395 C1407 0.929 . S
H1396 C1410 0.930 . S
H1397 C1412 0.960 . S
H1398 C1412 0.960 . S
H1399 C1412 0.960 . S
C1400 H1392 0.929 . S
C1400 C1401 1.377 . S
C1400 C1402 1.384 . S
C1401 C1400 1.377 . S
C1401 C1407 1.390 . S
C1402 H1393 0.930 . S
C1402 C1400 1.384 . S
C1402 C1403 1.372 . S
C1403 C1402 1.372 . S
C1403 C1404 1.400 . S
C1403 C1408 1.490 . S
C1404 H1394 0.930 . S
C1404 C1403 1.400 . S
C1404 C1407 1.386 . S
H1405 C1421 0.930 . S
H1406 C1422 0.931 . S
C1407 H1395 0.929 . S
C1407 C1401 1.390 . S
C1407 C1404 1.386 . S
C1408 C1403 1.490 . S
C1408 C1410 1.395 . S
C1408 C1411 1.415 . S
H1409 C1415 0.930 1_565 S
C1410 H1396 0.930 . S
C1410 C1408 1.395 . S
C1410 C1413 1.403 1_655 S
C1411 C1408 1.415 . S
C1411 C1412 1.509 1_545 S
C1411 C1415 1.403 1_655 S
C1412 H1397 0.960 . S
C1412 H1398 0.960 . S
C1412 H1399 0.960 . S
C1412 C1411 1.509 1_565 S
C1413 C1410 1.403 1_455 S
C1413 C1414 1.392 . S
C1413 C1417 1.495 . S
C1414 C1413 1.392 . S
C1414 C1415 1.385 . S
C1414 C1416 1.478 . S
C1415 H1409 0.930 1_545 S
C1415 C1411 1.403 1_455 S
C1415 C1414 1.385 . S
C1416 C1414 1.478 . S
C1416 C1418 1.381 . S
C1416 C1422 1.383 . S
C1417 C1413 1.495 . S
C1417 H1423 0.959 . S
C1417 H1424 0.961 . S
C1417 H1425 0.960 . S
C1418 C1416 1.381 . S
C1418 C1419 1.394 . S
C1418 H1426 0.930 . S
C1419 C1418 1.394 . S
C1419 C1420 1.383 . S
C1419 H1427 0.929 . S
C1420 C1419 1.383 . S
C1420 C1421 1.377 . S
C1421 H1405 0.930 . S
C1421 C1420 1.377 . S
C1421 C1422 1.379 . S
C1422 H1406 0.931 . S
C1422 C1416 1.383 . S
C1422 C1421 1.379 . S
H1423 C1417 0.959 . S
H1424 C1417 0.961 . S
H1425 C1417 0.960 . S
H1426 C1418 0.930 . S
H1427 C1419 0.929 . S
H1428 C1436 0.929 . S
H1429 C1438 0.930 . S
H1430 C1440 0.930 . S
H1431 C1443 0.929 . S
H1432 C1446 0.930 . S
H1433 C1448 0.960 . S
H1434 C1448 0.960 1_545 S
H1435 C1448 0.960 . S
C1436 H1428 0.929 . S
C1436 C1437 1.377 . S
C1436 C1438 1.384 . S
C1437 C1436 1.377 . S
C1437 C1443 1.390 1_545 S
C1438 H1429 0.930 . S
C1438 C1436 1.384 . S
C1438 C1439 1.372 . S
C1439 C1438 1.372 . S
C1439 C1440 1.400 1_545 S
C1439 C1444 1.490 . S
C1440 H1430 0.930 . S
C1440 C1439 1.400 1_565 S
C1440 C1443 1.386 . S
H1441 C1457 0.930 1_565 S
H1442 C1458 0.931 1_565 S
C1443 H1431 0.929 . S
C1443 C1437 1.390 1_565 S
C1443 C1440 1.386 . S
C1444 C1439 1.490 . S
C1444 C1446 1.395 . S
C1444 C1447 1.403 . S
H1445 C1451 0.930 . S
C1446 H1432 0.930 . S
C1446 C1444 1.395 . S
C1446 C1449 1.403 1_455 S
C1447 C1444 1.403 . S
C1447 C1448 1.524 1_545 S
C1447 C1451 1.400 1_455 S
C1448 H1433 0.960 . S
C1448 H1434 0.960 1_565 S
C1448 H1435 0.960 . S
C1448 C1447 1.524 1_565 S
C1449 C1446 1.403 1_655 S
C1449 C1450 1.392 . S
C1449 C1453 1.495 . S
C1450 C1449 1.392 . S
C1450 C1451 1.385 . S
C1450 C1452 1.478 . S
C1451 H1445 0.930 . S
C1451 C1447 1.400 1_655 S
C1451 C1450 1.385 . S
C1452 C1450 1.478 . S
C1452 C1454 1.381 . S
C1452 C1458 1.383 . S
C1453 C1449 1.495 . S
C1453 H1459 0.959 . S
C1453 H1460 0.961 . S
C1453 H1461 0.960 . S
C1454 C1452 1.381 . S
C1454 C1455 1.394 . S
C1454 H1462 0.930 . S
C1455 C1454 1.394 . S
C1455 C1456 1.383 . S
C1455 H1463 0.929 . S
C1456 C1455 1.383 . S
C1456 C1457 1.377 . S
C1457 H1441 0.930 1_545 S
C1457 C1456 1.377 . S
C1457 C1458 1.379 . S
C1458 H1442 0.931 1_545 S
C1458 C1452 1.383 . S
C1458 C1457 1.379 . S
H1459 C1453 0.959 . S
H1460 C1453 0.961 . S
H1461 C1453 0.960 . S
H1462 C1454 0.930 . S
H1463 C1455 0.929 . S
H1464 C1472 0.929 . S
H1465 C1474 0.930 . S
H1466 C1476 0.930 . S
H1467 C1479 0.929 . S
H1468 C1482 0.930 . S
H1469 C1484 0.960 . S
H1470 C1484 0.960 . S
H1471 C1484 0.960 . S
C1472 H1464 0.929 . S
C1472 C1473 1.377 . S
C1472 C1474 1.384 . S
C1473 C1472 1.377 . S
C1473 C1479 1.390 . S
C1474 H1465 0.930 . S
C1474 C1472 1.384 . S
C1474 C1475 1.372 . S
C1475 C1474 1.372 . S
C1475 C1476 1.400 . S
C1475 C1480 1.490 . S
C1476 H1466 0.930 . S
C1476 C1475 1.400 . S
C1476 C1479 1.386 . S
H1477 C1493 0.930 . S
H1478 C1494 0.931 . S
C1479 H1467 0.929 . S
C1479 C1473 1.390 . S
C1479 C1476 1.386 . S
C1480 C1475 1.490 . S
C1480 C1482 1.395 . S
C1480 C1483 1.403 . S
H1481 C1487 0.930 . S
C1482 H1468 0.930 . S
C1482 C1480 1.395 . S
C1482 C1485 1.403 1_655 S
C1483 C1480 1.403 . S
C1483 C1484 1.524 . S
C1483 C1487 1.400 1_655 S
C1484 H1469 0.960 . S
C1484 H1470 0.960 . S
C1484 H1471 0.960 . S
C1484 C1483 1.524 . S
C1485 C1482 1.403 1_455 S
C1485 C1486 1.392 . S
C1485 C1489 1.495 . S
C1486 C1485 1.392 . S
C1486 C1487 1.385 . S
C1486 C1488 1.478 . S
C1487 H1481 0.930 . S
C1487 C1483 1.400 1_455 S
C1487 C1486 1.385 . S
C1488 C1486 1.478 . S
C1488 C1490 1.381 . S
C1488 C1494 1.383 . S
C1489 C1485 1.495 . S
C1489 H1495 0.959 . S
C1489 H1496 0.961 . S
C1489 H1497 0.960 . S
C1490 C1488 1.381 . S
C1490 C1491 1.394 . S
C1490 H1498 0.930 . S
C1491 C1490 1.394 . S
C1491 C1492 1.383 . S
C1491 H1499 0.929 . S
C1492 C1491 1.383 . S
C1492 C1493 1.377 . S
C1493 H1477 0.930 . S
C1493 C1492 1.377 . S
C1493 C1494 1.379 . S
C1494 H1478 0.931 . S
C1494 C1488 1.383 . S
C1494 C1493 1.379 . S
H1495 C1489 0.959 . S
H1496 C1489 0.961 . S
H1497 C1489 0.960 . S
H1498 C1490 0.930 . S
H1499 C1491 0.929 . S
H1500 C1508 0.929 . S
H1501 C1510 0.930 . S
H1502 C1512 0.930 . S
H1503 C1515 0.929 . S
H1504 C1518 0.930 . S
H1505 C1520 0.960 . S
H1506 C1520 0.960 . S
H1507 C1520 0.960 . S
C1508 H1500 0.929 . S
C1508 C1509 1.377 . S
C1508 C1510 1.384 . S
C1509 C1508 1.377 . S
C1509 C1515 1.390 . S
C1510 H1501 0.930 . S
C1510 C1508 1.384 . S
C1510 C1511 1.372 . S
C1511 C1510 1.372 . S
C1511 C1512 1.400 . S
C1511 C1516 1.490 . S
C1512 H1502 0.930 . S
C1512 C1511 1.400 . S
C1512 C1515 1.386 . S
H1513 C1529 0.930 . S
H1514 C1530 0.931 . S
C1515 H1503 0.929 . S
C1515 C1509 1.390 . S
C1515 C1512 1.386 . S
C1516 C1511 1.490 . S
C1516 C1518 1.395 . S
C1516 C1519 1.403 . S
H1517 C1523 0.930 . S
C1518 H1504 0.930 . S
C1518 C1516 1.395 . S
C1518 C1521 1.403 1_655 S
C1519 C1516 1.403 . S
C1519 C1520 1.524 . S
C1519 C1523 1.400 1_655 S
C1520 H1505 0.960 . S
C1520 H1506 0.960 . S
C1520 H1507 0.960 . S
C1520 C1519 1.524 . S
C1521 C1518 1.403 1_455 S
C1521 C1522 1.392 . S
C1521 C1525 1.495 . S
C1522 C1521 1.392 . S
C1522 C1523 1.385 . S
C1522 C1524 1.478 . S
C1523 H1517 0.930 . S
C1523 C1519 1.400 1_455 S
C1523 C1522 1.385 . S
C1524 C1522 1.478 . S
C1524 C1526 1.381 . S
C1524 C1530 1.383 . S
C1525 C1521 1.495 . S
C1525 H1531 0.959 . S
C1525 H1532 0.961 . S
C1525 H1533 0.960 . S
C1526 C1524 1.381 . S
C1526 C1527 1.394 . S
C1526 H1534 0.930 . S
C1527 C1526 1.394 . S
C1527 C1528 1.383 . S
C1527 H1535 0.929 . S
C1528 C1527 1.383 . S
C1528 C1529 1.377 . S
C1529 H1513 0.930 . S
C1529 C1528 1.377 . S
C1529 C1530 1.379 . S
C1530 H1514 0.931 . S
C1530 C1524 1.383 . S
C1530 C1529 1.379 . S
H1531 C1525 0.959 . S
H1532 C1525 0.961 . S
H1533 C1525 0.960 . S
H1534 C1526 0.930 . S
H1535 C1527 0.929 . S
H1536 C1544 0.929 . S
H1537 C1546 0.930 . S
H1538 C1548 0.930 . S
H1539 C1551 0.929 . S
H1540 C1554 0.930 . S
H1541 C1556 0.960 . S
H1542 C1556 0.960 . S
H1543 C1556 0.960 . S
C1544 H1536 0.929 . S
C1544 C1545 1.377 . S
C1544 C1546 1.384 . S
C1545 C1544 1.377 . S
C1545 C1551 1.390 . S
C1546 H1537 0.930 . S
C1546 C1544 1.384 . S
C1546 C1547 1.372 . S
C1547 C1546 1.372 . S
C1547 C1548 1.400 . S
C1547 C1552 1.490 . S
C1548 H1538 0.930 . S
C1548 C1547 1.400 . S
C1548 C1551 1.386 . S
H1549 C1565 0.930 . S
H1550 C1566 0.931 . S
C1551 H1539 0.929 . S
C1551 C1545 1.390 . S
C1551 C1548 1.386 . S
C1552 C1547 1.490 . S
C1552 C1554 1.395 . S
C1552 C1555 1.403 . S
H1553 C1559 0.930 1_565 S
C1554 H1540 0.930 . S
C1554 C1552 1.395 . S
C1554 C1557 1.403 . S
C1555 C1552 1.403 . S
C1555 C1556 1.524 1_545 S
C1555 C1559 1.400 . S
C1556 H1541 0.960 . S
C1556 H1542 0.960 . S
C1556 H1543 0.960 . S
C1556 C1555 1.524 1_565 S
C1557 C1554 1.403 . S
C1557 C1558 1.392 . S
C1557 C1561 1.495 . S
C1558 C1557 1.392 . S
C1558 C1559 1.385 . S
C1558 C1560 1.478 . S
C1559 H1553 0.930 1_545 S
C1559 C1555 1.400 . S
C1559 C1558 1.385 . S
C1560 C1558 1.478 . S
C1560 C1562 1.381 . S
C1560 C1566 1.383 . S
C1561 C1557 1.495 . S
C1561 H1567 0.959 . S
C1561 H1568 0.961 . S
C1561 H1569 0.960 . S
C1562 C1560 1.381 . S
C1562 C1563 1.394 . S
C1562 H1570 0.930 . S
C1563 C1562 1.394 . S
C1563 C1564 1.383 . S
C1563 H1571 0.929 . S
C1564 C1563 1.383 . S
C1564 C1565 1.377 . S
C1565 H1549 0.930 . S
C1565 C1564 1.377 . S
C1565 C1566 1.379 . S
C1566 H1550 0.931 . S
C1566 C1560 1.383 . S
C1566 C1565 1.379 . S
H1567 C1561 0.959 . S
H1568 C1561 0.961 . S
H1569 C1561 0.960 . S
H1570 C1562 0.930 . S
H1571 C1563 0.929 . S
H1572 C1580 0.929 . S
H1573 C1582 0.930 . S
H1574 C1584 0.930 . S
H1575 C1587 0.929 . S
H1576 C1590 0.930 . S
H1577 C1592 0.960 . S
H1578 C1592 0.960 . S
H1579 C1592 0.960 . S
C1580 H1572 0.929 . S
C1580 C1581 1.377 . S
C1580 C1582 1.384 . S
C1581 C1580 1.377 . S
C1581 C1587 1.390 . S
C1582 H1573 0.930 . S
C1582 C1580 1.384 . S
C1582 C1583 1.372 . S
C1583 C1582 1.372 . S
C1583 C1584 1.400 . S
C1583 C1588 1.490 . S
C1584 H1574 0.930 . S
C1584 C1583 1.400 . S
C1584 C1587 1.386 . S
H1585 C1601 0.930 . S
H1586 C1602 0.931 . S
C1587 H1575 0.929 . S
C1587 C1581 1.390 . S
C1587 C1584 1.386 . S
C1588 C1583 1.490 . S
C1588 C1590 1.395 1_545 S
C1588 C1591 1.403 . S
H1589 C1595 0.930 . S
C1590 H1576 0.930 . S
C1590 C1588 1.395 1_565 S
C1590 C1593 1.403 . S
C1591 C1588 1.403 . S
C1591 C1592 1.524 . S
C1591 C1595 1.400 . S
C1592 H1577 0.960 . S
C1592 H1578 0.960 . S
C1592 H1579 0.960 . S
C1592 C1591 1.524 . S
C1593 C1590 1.403 . S
C1593 C1594 1.392 1_565 S
C1593 C1597 1.495 . S
C1594 C1593 1.392 1_545 S
C1594 C1595 1.385 . S
C1594 C1596 1.478 . S
C1595 H1589 0.930 . S
C1595 C1591 1.400 . S
C1595 C1594 1.385 . S
C1596 C1594 1.478 . S
C1596 C1598 1.381 . S
C1596 C1602 1.383 . S
C1597 C1593 1.495 . S
C1597 H1603 0.959 . S
C1597 H1604 0.961 . S
C1597 H1605 0.960 . S
C1598 C1596 1.381 . S
C1598 C1599 1.394 . S
C1598 H1606 0.930 . S
C1599 C1598 1.394 . S
C1599 C1600 1.383 . S
C1599 H1607 0.929 . S
C1600 C1599 1.383 . S
C1600 C1601 1.377 . S
C1601 H1585 0.930 . S
C1601 C1600 1.377 . S
C1601 C1602 1.379 . S
C1602 H1586 0.931 . S
C1602 C1596 1.383 . S
C1602 C1601 1.379 . S
H1603 C1597 0.959 . S
H1604 C1597 0.961 . S
H1605 C1597 0.960 . S
H1606 C1598 0.930 . S
H1607 C1599 0.929 . S
H1608 C1616 0.929 . S
H1609 C1618 0.930 . S
H1610 C1620 0.930 . S
H1611 C1623 0.929 . S
H1612 C1626 0.930 . S
H1613 C1628 0.960 . S
H1614 C1628 0.960 . S
H1615 C1628 0.960 . S
C1616 H1608 0.929 . S
C1616 C1617 1.377 . S
C1616 C1618 1.384 . S
C1617 C1616 1.377 . S
C1617 C1623 1.390 . S
C1618 H1609 0.930 . S
C1618 C1616 1.384 . S
C1618 C1619 1.372 . S
C1619 C1618 1.372 . S
C1619 C1620 1.400 . S
C1619 C1624 1.490 . S
C1620 H1610 0.930 . S
C1620 C1619 1.400 . S
C1620 C1623 1.386 . S
H1621 C1637 0.930 . S
H1622 C1638 0.931 . S
C1623 H1611 0.929 . S
C1623 C1617 1.390 . S
C1623 C1620 1.386 . S
C1624 C1619 1.490 . S
C1624 C1626 1.395 . S
C1624 C1627 1.403 . S
H1625 C1631 0.930 . S
C1626 H1612 0.930 . S
C1626 C1624 1.395 . S
C1626 C1629 1.403 . S
C1627 C1624 1.403 . S
C1627 C1628 1.524 . S
C1627 C1631 1.400 . S
C1628 H1613 0.960 . S
C1628 H1614 0.960 . S
C1628 H1615 0.960 . S
C1628 C1627 1.524 . S
C1629 C1626 1.403 . S
C1629 C1630 1.392 . S
C1629 C1633 1.495 . S
C1630 C1629 1.392 . S
C1630 C1631 1.385 . S
C1630 C1632 1.478 . S
C1631 H1625 0.930 . S
C1631 C1627 1.400 . S
C1631 C1630 1.385 . S
C1632 C1630 1.478 . S
C1632 C1634 1.381 . S
C1632 C1638 1.383 . S
C1633 C1629 1.495 . S
C1633 H1639 0.959 . S
C1633 H1640 0.961 . S
C1633 H1641 0.960 . S
C1634 C1632 1.381 . S
C1634 C1635 1.394 . S
C1634 H1642 0.930 . S
C1635 C1634 1.394 . S
C1635 C1636 1.383 . S
C1635 H1643 0.929 . S
C1636 C1635 1.383 . S
C1636 C1637 1.377 . S
C1637 H1621 0.930 . S
C1637 C1636 1.377 . S
C1637 C1638 1.379 . S
C1638 H1622 0.931 . S
C1638 C1632 1.383 . S
C1638 C1637 1.379 . S
H1639 C1633 0.959 . S
H1640 C1633 0.961 . S
H1641 C1633 0.960 . S
H1642 C1634 0.930 . S
H1643 C1635 0.929 . S
H1644 C1652 0.929 . S
H1645 C1654 0.930 . S
H1646 C1656 0.930 . S
H1647 C1659 0.929 . S
H1648 C1662 0.930 . S
H1649 C1664 0.960 . S
H1650 C1664 0.960 . S
H1651 C1664 0.960 . S
C1652 H1644 0.929 . S
C1652 C1653 1.377 . S
C1652 C1654 1.384 . S
C1653 C1652 1.377 . S
C1653 C1659 1.390 . S
C1654 H1645 0.930 . S
C1654 C1652 1.384 . S
C1654 C1655 1.372 . S
C1655 C1654 1.372 . S
C1655 C1656 1.400 . S
C1655 C1660 1.490 . S
C1656 H1646 0.930 . S
C1656 C1655 1.400 . S
C1656 C1659 1.386 . S
H1657 C1673 0.930 . S
H1658 C1674 0.931 . S
C1659 H1647 0.929 . S
C1659 C1653 1.390 . S
C1659 C1656 1.386 . S
C1660 C1655 1.490 . S
C1660 C1662 1.395 . S
C1660 C1663 1.403 . S
H1661 C1667 0.930 . S
C1662 H1648 0.930 . S
C1662 C1660 1.395 . S
C1662 C1665 1.403 . S
C1663 C1660 1.403 . S
C1663 C1664 1.524 . S
C1663 C1667 1.400 . S
C1664 H1649 0.960 . S
C1664 H1650 0.960 . S
C1664 H1651 0.960 . S
C1664 C1663 1.524 . S
C1665 C1662 1.403 . S
C1665 C1666 1.392 . S
C1665 C1669 1.495 . S
C1666 C1665 1.392 . S
C1666 C1667 1.385 . S
C1666 C1668 1.478 . S
C1667 H1661 0.930 . S
C1667 C1663 1.400 . S
C1667 C1666 1.385 . S
C1668 C1666 1.478 . S
C1668 C1670 1.381 . S
C1668 C1674 1.383 . S
C1669 C1665 1.495 . S
C1669 H1675 0.959 . S
C1669 H1676 0.961 . S
C1669 H1677 0.960 . S
C1670 C1668 1.381 . S
C1670 C1671 1.394 . S
C1670 H1678 0.930 . S
C1671 C1670 1.394 . S
C1671 C1672 1.383 . S
C1671 H1679 0.929 . S
C1672 C1671 1.383 . S
C1672 C1673 1.377 . S
C1673 H1657 0.930 . S
C1673 C1672 1.377 . S
C1673 C1674 1.379 . S
C1674 H1658 0.931 . S
C1674 C1668 1.383 . S
C1674 C1673 1.379 . S
H1675 C1669 0.959 . S
H1676 C1669 0.961 . S
H1677 C1669 0.960 . S
H1678 C1670 0.930 . S
H1679 C1671 0.929 . S
H1680 C1688 0.929 . S
H1681 C1690 0.930 . S
H1682 C1692 0.930 1_565 S
H1683 C1695 0.929 1_565 S
H1684 C1698 0.930 . S
H1685 C1700 0.960 . S
H1686 C1700 0.960 . S
H1687 C1700 0.960 1_565 S
C1688 H1680 0.929 . S
C1688 C1689 1.377 . S
C1688 C1690 1.384 . S
C1689 C1688 1.377 . S
C1689 C1695 1.390 . S
C1690 H1681 0.930 . S
C1690 C1688 1.384 . S
C1690 C1691 1.372 . S
C1691 C1690 1.372 . S
C1691 C1692 1.400 . S
C1691 C1696 1.490 . S
C1692 H1682 0.930 1_545 S
C1692 C1691 1.400 . S
C1692 C1695 1.386 . S
H1693 C1709 0.930 . S
H1694 C1710 0.931 . S
C1695 H1683 0.929 1_545 S
C1695 C1689 1.390 . S
C1695 C1692 1.386 . S
C1696 C1691 1.490 . S
C1696 C1698 1.395 . S
C1696 C1699 1.403 . S
H1697 C1703 0.930 . S
C1698 H1684 0.930 . S
C1698 C1696 1.395 . S
C1698 C1701 1.403 1_556 S
C1699 C1696 1.403 . S
C1699 C1700 1.524 . S
C1699 C1703 1.400 1_556 S
C1700 H1685 0.960 . S
C1700 H1686 0.960 . S
C1700 H1687 0.960 1_545 S
C1700 C1699 1.524 . S
C1701 C1698 1.403 1_554 S
C1701 C1702 1.392 . S
C1701 C1705 1.495 . S
C1702 C1701 1.392 . S
C1702 C1703 1.385 . S
C1702 C1704 1.478 . S
C1703 H1697 0.930 . S
C1703 C1699 1.400 1_554 S
C1703 C1702 1.385 . S
C1704 C1702 1.478 . S
C1704 C1706 1.381 . S
C1704 C1710 1.383 1_545 S
C1705 C1701 1.495 . S
C1705 H1711 0.959 . S
C1705 H1712 0.961 . S
C1705 H1713 0.960 . S
C1706 C1704 1.381 . S
C1706 C1707 1.394 . S
C1706 H1714 0.930 . S
C1707 C1706 1.394 . S
C1707 C1708 1.383 . S
C1707 H1715 0.929 . S
C1708 C1707 1.383 . S
C1708 C1709 1.377 1_545 S
C1709 H1693 0.930 . S
C1709 C1708 1.377 1_565 S
C1709 C1710 1.379 . S
C1710 H1694 0.931 . S
C1710 C1704 1.383 1_565 S
C1710 C1709 1.379 . S
H1711 C1705 0.959 . S
H1712 C1705 0.961 . S
H1713 C1705 0.960 . S
H1714 C1706 0.930 . S
H1715 C1707 0.929 . S
H1716 C1724 0.929 . S
H1717 C1726 0.930 . S
H1718 C1728 0.930 . S
H1719 C1731 0.929 . S
H1720 C1734 0.930 1_565 S
H1721 C1736 0.960 . S
H1722 C1736 0.960 . S
H1723 C1736 0.960 . S
C1724 H1716 0.929 . S
C1724 C1725 1.377 . S
C1724 C1726 1.384 . S
C1725 C1724 1.377 . S
C1725 C1731 1.390 . S
C1726 H1717 0.930 . S
C1726 C1724 1.384 . S
C1726 C1727 1.372 . S
C1727 C1726 1.372 . S
C1727 C1728 1.400 . S
C1727 C1732 1.490 . S
C1728 H1718 0.930 . S
C1728 C1727 1.400 . S
C1728 C1731 1.386 . S
H1729 C1745 0.930 . S
H1730 C1746 0.931 . S
C1731 H1719 0.929 . S
C1731 C1725 1.390 . S
C1731 C1728 1.386 . S
C1732 C1727 1.490 . S
C1732 C1734 1.395 . S
C1732 C1735 1.403 . S
H1733 C1739 0.930 . S
C1734 H1720 0.930 1_545 S
C1734 C1732 1.395 . S
C1734 C1737 1.403 1_556 S
C1735 C1732 1.403 . S
C1735 C1736 1.524 . S
C1735 C1739 1.400 1_556 S
C1736 H1721 0.960 . S
C1736 H1722 0.960 . S
C1736 H1723 0.960 . S
C1736 C1735 1.524 . S
C1737 C1734 1.403 1_554 S
C1737 C1738 1.392 . S
C1737 C1741 1.495 1_545 S
C1738 C1737 1.392 . S
C1738 C1739 1.385 . S
C1738 C1740 1.478 . S
C1739 H1733 0.930 . S
C1739 C1735 1.400 1_554 S
C1739 C1738 1.385 . S
C1740 C1738 1.478 . S
C1740 C1742 1.381 . S
C1740 C1746 1.383 . S
C1741 C1737 1.495 1_565 S
C1741 H1747 0.959 . S
C1741 H1748 0.961 . S
C1741 H1749 0.960 . S
C1742 C1740 1.381 . S
C1742 C1743 1.394 . S
C1742 H1750 0.930 . S
C1743 C1742 1.394 . S
C1743 C1744 1.383 . S
C1743 H1751 0.929 . S
C1744 C1743 1.383 . S
C1744 C1745 1.377 . S
C1745 H1729 0.930 . S
C1745 C1744 1.377 . S
C1745 C1746 1.379 . S
C1746 H1730 0.931 . S
C1746 C1740 1.383 . S
C1746 C1745 1.379 . S
H1747 C1741 0.959 . S
H1748 C1741 0.961 . S
H1749 C1741 0.960 . S
H1750 C1742 0.930 . S
H1751 C1743 0.929 . S
H1752 C1760 0.929 . S
H1753 C1762 0.930 . S
H1754 C1764 0.930 . S
H1755 C1767 0.929 . S
H1756 C1770 0.930 . S
H1757 C1772 0.960 . S
H1758 C1772 0.960 . S
H1759 C1772 0.960 . S
C1760 H1752 0.929 . S
C1760 C1761 1.377 . S
C1760 C1762 1.384 . S
C1761 C1760 1.377 . S
C1761 C1767 1.390 . S
C1762 H1753 0.930 . S
C1762 C1760 1.384 . S
C1762 C1763 1.372 . S
C1763 C1762 1.372 . S
C1763 C1764 1.400 . S
C1763 C1768 1.490 . S
C1764 H1754 0.930 . S
C1764 C1763 1.400 . S
C1764 C1767 1.386 . S
H1765 C1781 0.930 . S
H1766 C1782 0.931 . S
C1767 H1755 0.929 . S
C1767 C1761 1.390 . S
C1767 C1764 1.386 . S
C1768 C1763 1.490 . S
C1768 C1770 1.395 . S
C1768 C1771 1.403 . S
H1769 C1775 0.930 . S
C1770 H1756 0.930 . S
C1770 C1768 1.395 . S
C1770 C1773 1.403 . S
C1771 C1768 1.403 . S
C1771 C1772 1.524 . S
C1771 C1775 1.400 . S
C1772 H1757 0.960 . S
C1772 H1758 0.960 . S
C1772 H1759 0.960 . S
C1772 C1771 1.524 . S
C1773 C1770 1.403 . S
C1773 C1774 1.392 . S
C1773 C1777 1.495 . S
C1774 C1773 1.392 . S
C1774 C1775 1.385 . S
C1774 C1776 1.478 . S
C1775 H1769 0.930 . S
C1775 C1771 1.400 . S
C1775 C1774 1.385 . S
C1776 C1774 1.478 . S
C1776 C1778 1.381 . S
C1776 C1782 1.383 . S
C1777 C1773 1.495 . S
C1777 H1783 0.959 . S
C1777 H1784 0.961 . S
C1777 H1785 0.960 . S
C1778 C1776 1.381 . S
C1778 C1779 1.394 . S
C1778 H1786 0.930 . S
C1779 C1778 1.394 . S
C1779 C1780 1.383 . S
C1779 H1787 0.929 . S
C1780 C1779 1.383 . S
C1780 C1781 1.377 . S
C1781 H1765 0.930 . S
C1781 C1780 1.377 . S
C1781 C1782 1.379 . S
C1782 H1766 0.931 . S
C1782 C1776 1.383 . S
C1782 C1781 1.379 . S
H1783 C1777 0.959 . S
H1784 C1777 0.961 . S
H1785 C1777 0.960 . S
H1786 C1778 0.930 . S
H1787 C1779 0.929 . S
H1788 C1796 0.929 . S
H1789 C1798 0.930 . S
H1790 C1800 0.930 . S
H1791 C1803 0.929 . S
H1792 C1806 0.930 . S
H1793 C1808 0.960 . S
H1794 C1808 0.960 . S
H1795 C1808 0.960 . S
C1796 H1788 0.929 . S
C1796 C1797 1.377 . S
C1796 C1798 1.384 . S
C1797 C1796 1.377 . S
C1797 C1803 1.390 . S
C1798 H1789 0.930 . S
C1798 C1796 1.384 . S
C1798 C1799 1.372 . S
C1799 C1798 1.372 . S
C1799 C1800 1.400 . S
C1799 C1804 1.490 . S
C1800 H1790 0.930 . S
C1800 C1799 1.400 . S
C1800 C1803 1.386 . S
H1801 C1817 0.930 . S
H1802 C1818 0.931 . S
C1803 H1791 0.929 . S
C1803 C1797 1.390 . S
C1803 C1800 1.386 . S
C1804 C1799 1.490 . S
C1804 C1806 1.395 . S
C1804 C1807 1.403 . S
H1805 C1811 0.930 . S
C1806 H1792 0.930 . S
C1806 C1804 1.395 . S
C1806 C1809 1.403 . S
C1807 C1804 1.403 . S
C1807 C1808 1.524 . S
C1807 C1811 1.400 . S
C1808 H1793 0.960 . S
C1808 H1794 0.960 . S
C1808 H1795 0.960 . S
C1808 C1807 1.524 . S
C1809 C1806 1.403 . S
C1809 C1810 1.392 . S
C1809 C1813 1.495 . S
C1810 C1809 1.392 . S
C1810 C1811 1.385 . S
C1810 C1812 1.478 . S
C1811 H1805 0.930 . S
C1811 C1807 1.400 . S
C1811 C1810 1.385 . S
C1812 C1810 1.478 . S
C1812 C1814 1.381 . S
C1812 C1818 1.383 . S
C1813 C1809 1.495 . S
C1813 H1819 0.959 . S
C1813 H1820 0.961 . S
C1813 H1821 0.960 . S
C1814 C1812 1.381 . S
C1814 C1815 1.394 . S
C1814 H1822 0.930 . S
C1815 C1814 1.394 . S
C1815 C1816 1.383 . S
C1815 H1823 0.929 . S
C1816 C1815 1.383 . S
C1816 C1817 1.377 . S
C1817 H1801 0.930 . S
C1817 C1816 1.377 . S
C1817 C1818 1.379 . S
C1818 H1802 0.931 . S
C1818 C1812 1.383 . S
C1818 C1817 1.379 . S
H1819 C1813 0.959 . S
H1820 C1813 0.961 . S
H1821 C1813 0.960 . S
H1822 C1814 0.930 . S
H1823 C1815 0.929 . S
H1824 C1832 0.929 1_565 S
H1825 C1834 0.930 1_565 S
H1826 C1836 0.930 . S
H1827 C1839 0.929 . S
H1828 C1842 0.930 . S
H1829 C1844 0.960 . S
H1830 C1844 0.960 1_565 S
H1831 C1844 0.960 . S
C1832 H1824 0.929 1_545 S
C1832 C1833 1.377 . S
C1832 C1834 1.384 . S
C1833 C1832 1.377 . S
C1833 C1839 1.390 . S
C1834 H1825 0.930 1_545 S
C1834 C1832 1.384 . S
C1834 C1835 1.372 . S
C1835 C1834 1.372 . S
C1835 C1836 1.400 . S
C1835 C1840 1.490 . S
C1836 H1826 0.930 . S
C1836 C1835 1.400 . S
C1836 C1839 1.386 . S
H1837 C1853 0.930 . S
H1838 C1854 0.931 . S
C1839 H1827 0.929 . S
C1839 C1833 1.390 . S
C1839 C1836 1.386 . S
C1840 C1835 1.490 . S
C1840 C1842 1.395 . S
C1840 C1843 1.403 . S
H1841 C1847 0.930 . S
C1842 H1828 0.930 . S
C1842 C1840 1.395 . S
C1842 C1845 1.403 . S
C1843 C1840 1.403 . S
C1843 C1844 1.524 . S
C1843 C1847 1.400 . S
C1844 H1829 0.960 . S
C1844 H1830 0.960 1_545 S
C1844 H1831 0.960 . S
C1844 C1843 1.524 . S
C1845 C1842 1.403 . S
C1845 C1846 1.392 . S
C1845 C1849 1.495 . S
C1846 C1845 1.392 . S
C1846 C1847 1.385 . S
C1846 C1848 1.478 . S
C1847 H1841 0.930 . S
C1847 C1843 1.400 . S
C1847 C1846 1.385 . S
C1848 C1846 1.478 . S
C1848 C1850 1.381 . S
C1848 C1854 1.383 . S
C1849 C1845 1.495 . S
C1849 H1855 0.959 . S
C1849 H1856 0.961 . S
C1849 H1857 0.960 . S
C1850 C1848 1.381 . S
C1850 C1851 1.394 . S
C1850 H1858 0.930 1_545 S
C1851 C1850 1.394 . S
C1851 C1852 1.383 . S
C1851 H1859 0.929 1_545 S
C1852 C1851 1.383 . S
C1852 C1853 1.377 . S
C1853 H1837 0.930 . S
C1853 C1852 1.377 . S
C1853 C1854 1.379 . S
C1854 H1838 0.931 . S
C1854 C1848 1.383 . S
C1854 C1853 1.379 . S
H1855 C1849 0.959 . S
H1856 C1849 0.961 . S
H1857 C1849 0.960 . S
H1858 C1850 0.930 1_565 S
H1859 C1851 0.929 1_565 S
H1860 C1868 0.929 . S
H1861 C1870 0.930 . S
H1862 C1872 0.930 . S
H1863 C1875 0.929 . S
H1864 C1878 0.912 1_565 S
H1865 C1880 0.960 . S
H1866 C1880 0.960 . S
H1867 C1880 0.960 . S
C1868 H1860 0.929 . S
C1868 C1869 1.377 . S
C1868 C1870 1.384 . S
C1869 C1868 1.377 . S
C1869 C1875 1.390 . S
C1870 H1861 0.930 . S
C1870 C1868 1.384 . S
C1870 C1871 1.372 . S
C1871 C1870 1.372 . S
C1871 C1872 1.400 . S
C1871 C1876 1.490 . S
C1872 H1862 0.930 . S
C1872 C1871 1.400 . S
C1872 C1875 1.386 . S
H1873 C1889 0.930 . S
H1874 C1890 0.931 . S
C1875 H1863 0.929 . S
C1875 C1869 1.390 . S
C1875 C1872 1.386 . S
C1876 C1871 1.490 . S
C1876 C1878 1.414 . S
C1876 C1879 1.403 . S
H1877 C1883 0.930 . S
C1878 H1864 0.912 1_545 S
C1878 C1876 1.414 . S
C1878 C1881 1.402 1_545 S
C1879 C1876 1.403 . S
C1879 C1880 1.524 . S
C1879 C1883 1.400 . S
C1880 H1865 0.960 . S
C1880 H1866 0.960 . S
C1880 H1867 0.960 . S
C1880 C1879 1.524 . S
C1881 C1878 1.402 1_565 S
C1881 C1882 1.392 1_565 S
C1881 C1885 1.495 . S
C1882 C1881 1.392 1_545 S
C1882 C1883 1.385 . S
C1882 C1884 1.478 . S
C1883 H1877 0.930 . S
C1883 C1879 1.400 . S
C1883 C1882 1.385 . S
C1884 C1882 1.478 . S
C1884 C1886 1.381 . S
C1884 C1890 1.383 . S
C1885 C1881 1.495 . S
C1885 H1891 0.959 . S
C1885 H1892 0.961 . S
C1885 H1893 0.960 . S
C1886 C1884 1.381 . S
C1886 C1887 1.394 . S
C1886 H1894 0.930 . S
C1887 C1886 1.394 . S
C1887 C1888 1.383 . S
C1887 H1895 0.929 . S
C1888 C1887 1.383 . S
C1888 C1889 1.377 . S
C1889 H1873 0.930 . S
C1889 C1888 1.377 . S
C1889 C1890 1.379 . S
C1890 H1874 0.931 . S
C1890 C1884 1.383 . S
C1890 C1889 1.379 . S
H1891 C1885 0.959 . S
H1892 C1885 0.961 . S
H1893 C1885 0.960 . S
H1894 C1886 0.930 . S
H1895 C1887 0.929 . S
H1896 C1904 0.929 . S
H1897 C1906 0.930 . S
H1898 C1908 0.930 . S
H1899 C1911 0.929 . S
H1900 C1914 0.930 . S
H1901 C1916 0.960 . S
H1902 C1916 0.960 . S
H1903 C1916 0.960 . S
C1904 H1896 0.929 . S
C1904 C1905 1.377 . S
C1904 C1906 1.384 . S
C1905 C1904 1.377 . S
C1905 C1911 1.390 . S
C1906 H1897 0.930 . S
C1906 C1904 1.384 . S
C1906 C1907 1.372 . S
C1907 C1906 1.372 . S
C1907 C1908 1.400 . S
C1907 C1912 1.490 . S
C1908 H1898 0.930 . S
C1908 C1907 1.400 . S
C1908 C1911 1.386 . S
H1909 C1925 0.930 . S
H1910 C1926 0.931 . S
C1911 H1899 0.929 . S
C1911 C1905 1.390 . S
C1911 C1908 1.386 . S
C1912 C1907 1.490 . S
C1912 C1914 1.395 . S
C1912 C1915 1.403 . S
H1913 C1919 0.930 . S
C1914 H1900 0.930 . S
C1914 C1912 1.395 . S
C1914 C1917 1.403 1_554 S
C1915 C1912 1.403 . S
C1915 C1916 1.524 . S
C1915 C1919 1.400 1_554 S
C1916 H1901 0.960 . S
C1916 H1902 0.960 . S
C1916 H1903 0.960 . S
C1916 C1915 1.524 . S
C1917 C1914 1.403 1_556 S
C1917 C1918 1.392 . S
C1917 C1921 1.495 . S
C1918 C1917 1.392 . S
C1918 C1919 1.385 . S
C1918 C1920 1.478 . S
C1919 H1913 0.930 . S
C1919 C1915 1.400 1_556 S
C1919 C1918 1.385 . S
C1920 C1918 1.478 . S
C1920 C1922 1.381 . S
C1920 C1926 1.383 . S
C1921 C1917 1.495 . S
C1921 H1927 0.959 . S
C1921 H1928 0.961 . S
C1921 H1929 0.960 . S
C1922 C1920 1.381 . S
C1922 C1923 1.394 . S
C1922 H1930 0.930 . S
C1923 C1922 1.394 . S
C1923 C1924 1.383 . S
C1923 H1931 0.929 . S
C1924 C1923 1.383 . S
C1924 C1925 1.377 . S
C1925 H1909 0.930 . S
C1925 C1924 1.377 . S
C1925 C1926 1.379 . S
C1926 H1910 0.931 . S
C1926 C1920 1.383 . S
C1926 C1925 1.379 . S
H1927 C1921 0.959 . S
H1928 C1921 0.961 . S
H1929 C1921 0.960 . S
H1930 C1922 0.930 . S
H1931 C1923 0.929 . S
H1932 C1940 0.929 . S
H1933 C1942 0.930 . S
H1934 C1944 0.930 . S
H1935 C1947 0.929 . S
H1936 C1950 0.930 . S
H1937 C1952 0.960 . S
H1938 C1952 0.960 . S
H1939 C1952 0.960 . S
C1940 H1932 0.929 . S
C1940 C1941 1.377 . S
C1940 C1942 1.384 . S
C1941 C1940 1.377 . S
C1941 C1947 1.390 . S
C1942 H1933 0.930 . S
C1942 C1940 1.384 . S
C1942 C1943 1.372 . S
C1943 C1942 1.372 . S
C1943 C1944 1.400 . S
C1943 C1948 1.490 . S
C1944 H1934 0.930 . S
C1944 C1943 1.400 . S
C1944 C1947 1.386 . S
H1945 C1961 0.930 . S
H1946 C1962 0.931 . S
C1947 H1935 0.929 . S
C1947 C1941 1.390 . S
C1947 C1944 1.386 . S
C1948 C1943 1.490 . S
C1948 C1950 1.395 . S
C1948 C1951 1.403 . S
H1949 C1955 0.930 . S
C1950 H1936 0.930 . S
C1950 C1948 1.395 . S
C1950 C1953 1.403 1_556 S
C1951 C1948 1.403 . S
C1951 C1952 1.524 . S
C1951 C1955 1.400 1_556 S
C1952 H1937 0.960 . S
C1952 H1938 0.960 . S
C1952 H1939 0.960 . S
C1952 C1951 1.524 . S
C1953 C1950 1.403 1_554 S
C1953 C1954 1.392 . S
C1953 C1957 1.495 . S
C1954 C1953 1.392 . S
C1954 C1955 1.385 . S
C1954 C1956 1.478 . S
C1955 H1949 0.930 . S
C1955 C1951 1.400 1_554 S
C1955 C1954 1.385 . S
C1956 C1954 1.478 . S
C1956 C1958 1.381 . S
C1956 C1962 1.383 . S
C1957 C1953 1.495 . S
C1957 H1963 0.959 . S
C1957 H1964 0.961 . S
C1957 H1965 0.960 . S
C1958 C1956 1.381 . S
C1958 C1959 1.394 . S
C1958 H1966 0.930 . S
C1959 C1958 1.394 . S
C1959 C1960 1.383 . S
C1959 H1967 0.929 . S
C1960 C1959 1.383 . S
C1960 C1961 1.377 . S
C1961 H1945 0.930 . S
C1961 C1960 1.377 . S
C1961 C1962 1.379 . S
C1962 H1946 0.931 . S
C1962 C1956 1.383 . S
C1962 C1961 1.379 . S
H1963 C1957 0.959 . S
H1964 C1957 0.961 . S
H1965 C1957 0.960 . S
H1966 C1958 0.930 . S
H1967 C1959 0.929 . S
C537 N14 1.669 . S
C556 N377 1.686 . S
C573 N47 1.676 . S
C592 N344 1.671 . S
C609 N311 1.673 . S
C628 N80 1.660 . S
C645 N278 1.672 . S
C664 N113 1.660 . S
C681 N146 1.675 . S
C700 N509 1.671 . S
C717 N179 1.670 . S
C736 N476 1.678 . S
C753 N443 1.670 . S
C772 N212 1.690 . S
C789 N410 1.676 . S
C808 N245 1.664 . S
C825 C8 0.851 . S
C844 C437 0.836 . S
C861 C404 0.850 . S
C880 C41 0.860 . S
C897 C74 0.849 . S
C916 C503 0.851 . S
C933 C470 0.855 . S
C952 C107 0.857 . S
C969 C127 1.561 . S
C988 C490 1.546 . S
C1005 C523 1.557 . S
C1024 C94 1.562 . S
C1041 C424 1.557 . S
C1060 C61 1.561 . S
C1077 C28 1.557 . S
C1096 C457 1.565 . S
C1113 C140 0.851 . S
C1132 C305 0.863 . S
C1149 C173 0.854 . S
C1168 C272 0.845 . S
C1185 C206 0.850 . S
C1204 C371 0.838 . S
C1221 C239 0.851 . S
C1240 C338 0.864 . S
C1257 C259 1.560 . S
C1276 C358 1.548 . S
C1293 C226 1.557 . S
C1312 C391 1.565 . S
C1329 C193 1.558 . S
C1348 C292 1.561 . S
C1365 C160 1.560 . S
C1384 C325 1.548 . S
C1401 C50 1.478 . S
C1420 C17 1.480 . S
C1437 C83 1.477 . S
C1456 C116 1.488 . S
C1473 C182 1.479 . S
C1492 C149 1.474 . S
C1509 C248 1.481 . S
C1528 C215 1.466 . S
C1545 C314 1.479 . S
C1564 C281 1.474 . S
C1581 C380 1.478 . S
C1600 C347 1.480 . S
C1617 C413 1.478 . S
C1636 C446 1.480 . S
C1653 C512 1.478 . S
C1672 C479 1.482 . S
C1689 N71 1.550 . S
C1708 N5 1.554 . S
C1725 N104 1.542 . S
C1744 N38 1.518 . S
C1761 N137 1.553 . S
C1780 N203 1.568 . S
C1797 N236 1.552 . S
C1816 N170 1.567 . S
C1833 N269 1.552 . S
C1852 N335 1.563 . S
C1869 N368 1.542 . S
C1888 N302 1.518 . S
C1905 N401 1.543 . S
C1924 N467 1.520 . S
C1941 N500 1.542 . S
C1960 N434 1.520 . S
