# Generated by pormake.
# Topology uou, (4)-cn, num edge types: 1
# Building blocks:
#     Node 0, Type 0, BuildingBlock: QUQFOY_clean_sbu_1, # of connection points: 4
#     Node 1, Type 0, BuildingBlock: QUQFOY_clean_sbu_1, # of connection points: 4
#     Node 2, Type 0, BuildingBlock: QUQFOY_clean_sbu_1, # of connection points: 4
#     Node 3, Type 0, BuildingBlock: QUQFOY_clean_sbu_1, # of connection points: 4
#     Node 4, Type 0, BuildingBlock: QUQFOY_clean_sbu_1, # of connection points: 4
#     Node 5, Type 0, BuildingBlock: QUQFOY_clean_sbu_1, # of connection points: 4
#     Node 6, Type 0, BuildingBlock: QUQFOY_clean_sbu_1, # of connection points: 4
#     Node 7, Type 0, BuildingBlock: QUQFOY_clean_sbu_1, # of connection points: 4
#     Node 8, Type 0, BuildingBlock: QUQFOY_clean_sbu_1, # of connection points: 4
#     Node 9, Type 0, BuildingBlock: QUQFOY_clean_sbu_1, # of connection points: 4
#     Node 10, Type 0, BuildingBlock: QUQFOY_clean_sbu_1, # of connection points: 4
#     Node 11, Type 0, BuildingBlock: QUQFOY_clean_sbu_1, # of connection points: 4
#     Node 12, Type 0, BuildingBlock: QUQFOY_clean_sbu_1, # of connection points: 4
#     Node 13, Type 0, BuildingBlock: QUQFOY_clean_sbu_1, # of connection points: 4
#     Node 14, Type 0, BuildingBlock: QUQFOY_clean_sbu_1, # of connection points: 4
#     Node 15, Type 0, BuildingBlock: QUQFOY_clean_sbu_1, # of connection points: 4
#     Edge 16, Type (0, 0), BuildingBlock: CIFDUS_clean_linker_0, # of connection points: 2
#     Edge 17, Type (0, 0), BuildingBlock: CIFDUS_clean_linker_0, # of connection points: 2
#     Edge 18, Type (0, 0), BuildingBlock: CIFDUS_clean_linker_0, # of connection points: 2
#     Edge 19, Type (0, 0), BuildingBlock: CIFDUS_clean_linker_0, # of connection points: 2
#     Edge 20, Type (0, 0), BuildingBlock: CIFDUS_clean_linker_0, # of connection points: 2
#     Edge 21, Type (0, 0), BuildingBlock: CIFDUS_clean_linker_0, # of connection points: 2
#     Edge 22, Type (0, 0), BuildingBlock: CIFDUS_clean_linker_0, # of connection points: 2
#     Edge 23, Type (0, 0), BuildingBlock: CIFDUS_clean_linker_0, # of connection points: 2
#     Edge 24, Type (0, 0), BuildingBlock: CIFDUS_clean_linker_0, # of connection points: 2
#     Edge 25, Type (0, 0), BuildingBlock: CIFDUS_clean_linker_0, # of connection points: 2
#     Edge 26, Type (0, 0), BuildingBlock: CIFDUS_clean_linker_0, # of connection points: 2
#     Edge 27, Type (0, 0), BuildingBlock: CIFDUS_clean_linker_0, # of connection points: 2
#     Edge 28, Type (0, 0), BuildingBlock: CIFDUS_clean_linker_0, # of connection points: 2
#     Edge 29, Type (0, 0), BuildingBlock: CIFDUS_clean_linker_0, # of connection points: 2
#     Edge 30, Type (0, 0), BuildingBlock: CIFDUS_clean_linker_0, # of connection points: 2
#     Edge 31, Type (0, 0), BuildingBlock: CIFDUS_clean_linker_0, # of connection points: 2
#     Edge 32, Type (0, 0), BuildingBlock: CIFDUS_clean_linker_0, # of connection points: 2
#     Edge 33, Type (0, 0), BuildingBlock: CIFDUS_clean_linker_0, # of connection points: 2
#     Edge 34, Type (0, 0), BuildingBlock: CIFDUS_clean_linker_0, # of connection points: 2
#     Edge 35, Type (0, 0), BuildingBlock: CIFDUS_clean_linker_0, # of connection points: 2
#     Edge 36, Type (0, 0), BuildingBlock: CIFDUS_clean_linker_0, # of connection points: 2
#     Edge 37, Type (0, 0), BuildingBlock: CIFDUS_clean_linker_0, # of connection points: 2
#     Edge 38, Type (0, 0), BuildingBlock: CIFDUS_clean_linker_0, # of connection points: 2
#     Edge 39, Type (0, 0), BuildingBlock: CIFDUS_clean_linker_0, # of connection points: 2
#     Edge 40, Type (0, 0), BuildingBlock: CIFDUS_clean_linker_0, # of connection points: 2
#     Edge 41, Type (0, 0), BuildingBlock: CIFDUS_clean_linker_0, # of connection points: 2
#     Edge 42, Type (0, 0), BuildingBlock: CIFDUS_clean_linker_0, # of connection points: 2
#     Edge 43, Type (0, 0), BuildingBlock: CIFDUS_clean_linker_0, # of connection points: 2
#     Edge 44, Type (0, 0), BuildingBlock: CIFDUS_clean_linker_0, # of connection points: 2
#     Edge 45, Type (0, 0), BuildingBlock: CIFDUS_clean_linker_0, # of connection points: 2
#     Edge 46, Type (0, 0), BuildingBlock: CIFDUS_clean_linker_0, # of connection points: 2
#     Edge 47, Type (0, 0), BuildingBlock: CIFDUS_clean_linker_0, # of connection points: 2
# Relax obj value: 0.061
# Max RMSD: 0.098
# Mean RMSD: 0.098
data_MOF--net-uou--node1-QUQFOY_clean_sbu_1--edge1-CIFDUS_clean_linker_0
_symmetry_space_group_name_H-M    P1
_symmetry_Int_Tables_number       1
_symmetry_cell_setting            triclinic
loop_
_symmetry_equiv_pos_as_xyz
'x, y, z'
_cell_length_a     35.760942
_cell_length_b     33.160524
_cell_length_c     49.45696
_cell_angle_alpha  90.010264
_cell_angle_beta   90.530494
_cell_angle_gamma 90.297277
loop_
_atom_site_label
_atom_site_type_symbol
_atom_site_fract_x
_atom_site_fract_y
_atom_site_fract_z
_atom_type_partial_charge
O0 O 0.03178 0.09509 0.14644 0.0
Cd1 Cd 0.04477 0.03518 0.14293 0.0
Cd2 Cd 0.11105 0.06593 0.12948 0.0
O3 O 0.08879 0.11996 0.14275 0.0
O4 O 1.00754 0.00694 0.16582 0.0
O5 O 0.06833 0.00836 0.17492 0.0
C6 C 0.03482 -0.00155 0.18207 0.0
C7 C 0.17128 0.04519 0.14142 0.0
C8 C 0.05408 0.12501 0.14704 0.0
C9 C 0.06518 0.02296 0.08623 0.0
O10 O 0.0929 0.04559 0.09204 0.0
O11 O 0.04285 0.01166 0.1046 0.0
O12 O 0.16575 0.0733 0.12386 0.0
O13 O 0.14257 0.03001 0.15345 0.0
O14 O 0.51028 0.88378 0.14363 0.0
Cd15 Cd 0.50562 0.94553 0.14256 0.0
Cd16 Cd 0.435 0.9244 0.1254 0.0
O17 O 0.4509 0.86729 0.13781 0.0
O18 O 0.54744 0.96483 0.16626 0.0
O19 O 0.48785 0.97275 0.17648 0.0
C20 C 0.52268 0.97616 0.18344 0.0
C21 C 0.37377 0.94735 0.13083 0.0
C22 C 0.48459 0.85719 0.14264 0.0
C23 C 0.48822 0.96477 0.0856 0.0
O24 O 0.45816 0.94537 0.08996 0.0
O25 O 0.51113 0.97183 0.10488 0.0
O26 O 0.38182 0.91984 0.11351 0.0
O27 O 0.40014 0.96046 0.14658 0.0
O28 O 0.55528 0.87954 0.38039 0.0
Cd29 Cd 0.56506 0.94057 0.3822 0.0
Cd30 Cd 0.63366 0.91581 0.39862 0.0
O31 O 0.61405 0.86075 0.3844 0.0
O32 O 0.52496 0.96417 0.3589 0.0
O33 O 0.58498 0.96698 0.3486 0.0
C34 C 0.55056 0.97363 0.34177 0.0
C35 C 0.69472 0.93646 0.38855 0.0
C36 C 0.57983 0.85203 0.38014 0.0
C37 C 0.58415 0.95647 0.43976 0.0
O38 O 0.61304 0.93523 0.43541 0.0
O39 O 0.56232 0.96586 0.4203 0.0
O40 O 0.68832 0.90673 0.40464 0.0
O41 O 0.66639 0.95434 0.37758 0.0
O42 O 0.03249 0.0929 0.37975 0.0
Cd43 Cd 1.01811 0.03273 0.38046 0.0
Cd44 Cd 0.95584 0.06172 0.40279 0.0
O45 O 0.97687 0.11658 0.38966 0.0
O46 O 0.05465 0.00768 0.35562 0.0
O47 O 0.99371 0.00835 0.34755 0.0
C48 C 1.02701 -0.00057 0.33962 0.0
C49 C 0.89415 0.04303 0.39261 0.0
C50 C 1.01061 0.12255 0.38277 0.0
C51 C 1.00722 0.01278 0.4382 0.0
O52 O 0.98005 0.03743 0.4374 0.0
O53 O 1.0243 0.00354 0.41669 0.0
O54 O 0.90167 0.07079 0.41013 0.0
O55 O 0.92174 0.02605 0.38042 0.0
O56 O 0.96256 0.93966 0.93394 0.0
Cd57 Cd 0.94414 0.91637 0.89737 0.0
Cd58 Cd 1.01004 0.94692 0.88311 0.0
O59 O 1.01235 0.97338 0.92058 0.0
O60 O 0.88945 0.90876 0.90376 0.0
O61 O 0.91167 0.95013 0.87265 0.0
C62 C 0.88334 0.93563 0.88543 0.0
C63 C 1.0125 0.9804 0.84211 0.0
C64 C 0.99003 0.96294 0.93919 0.0
C65 C 1.00234 0.85697 0.88181 0.0
O66 O 1.02436 0.88715 0.88161 0.0
O67 O 0.96748 0.86193 0.88565 0.0
O68 O 0.04235 0.9754 0.85663 0.0
O69 O 0.98089 0.96879 0.85198 0.0
O70 O 0.59918 0.04258 0.93616 0.0
Cd71 Cd 0.62249 0.0636 0.90082 0.0
Cd72 Cd 0.55273 0.04332 0.88362 0.0
O73 O 0.54638 0.01617 0.92098 0.0
O74 O 0.67566 0.06758 0.91283 0.0
O75 O 0.65715 0.02714 0.87974 0.0
C76 C 0.68354 0.03983 0.89562 0.0
C77 C 0.54036 0.0126 0.84197 0.0
C78 C 0.56913 0.02308 0.94037 0.0
C79 C 0.57313 0.13149 0.88429 0.0
O80 O 0.54729 0.10507 0.8832 0.0
O81 O 0.60685 0.12102 0.8887 0.0
O82 O 0.5137 0.02292 0.85793 0.0
O83 O 0.57439 0.0173 0.85055 0.0
O84 O 0.4731 0.0439 0.58692 0.0
Cd85 Cd 0.45292 0.06379 0.62362 0.0
Cd86 Cd 0.51886 0.03639 0.64035 0.0
O87 O 0.52083 0.0089 0.60282 0.0
O88 O 0.39697 0.06661 0.62036 0.0
O89 O 0.42645 0.02186 0.6459 0.0
C90 C 0.39542 0.03556 0.63606 0.0
C91 C 0.52887 0.00597 0.68238 0.0
C92 C 0.50035 0.0201 0.58302 0.0
C93 C 0.50868 0.12591 0.64035 0.0
O94 O 0.53159 0.09679 0.64026 0.0
O95 O 0.47381 0.11913 0.63711 0.0
O96 O 0.55607 0.01196 0.66585 0.0
O97 O 0.49543 0.01435 0.67407 0.0
O98 O 0.10162 0.94066 0.58971 0.0
Cd99 Cd 0.12893 0.91971 0.6241 0.0
Cd100 Cd 0.06545 0.94208 0.64681 0.0
O101 O 0.05598 0.97154 0.61098 0.0
O102 O 0.18437 0.91992 0.61767 0.0
O103 O 0.15667 0.96135 0.6462 0.0
C104 C 0.18686 0.94952 0.63455 0.0
C105 C 0.06177 0.97408 0.68851 0.0
C106 C 0.07291 0.96324 0.58922 0.0
C107 C 0.07953 0.85351 0.64402 0.0
O108 O 0.0552 0.88092 0.64688 0.0
O109 O 0.11292 0.86286 0.6377 0.0
O110 O 0.03202 0.96534 0.6747 0.0
O111 O 0.0938 0.96614 0.67796 0.0
O112 O 0.55001 0.6104 0.14303 0.0
Cd113 Cd 0.56035 0.54964 0.14136 0.0
Cd114 Cd 0.62818 0.57345 0.12542 0.0
O115 O 0.60888 0.62891 0.1386 0.0
O116 O 0.52584 0.52381 0.16772 0.0
O117 O 0.58745 0.52551 0.1729 0.0
C118 C 0.55496 0.51648 0.18254 0.0
C119 C 0.68831 0.55202 0.1376 0.0
C120 C 0.57489 0.63784 0.1429 0.0
C121 C 0.57832 0.53158 0.08435 0.0
O122 O 0.60775 0.55246 0.08864 0.0
O123 O 0.55622 0.52353 0.10366 0.0
O124 O 0.68324 0.58122 0.12079 0.0
O125 O 0.65917 0.53528 0.14808 0.0
O126 O 1.02158 0.38782 0.14599 0.0
Cd127 Cd 1.00575 0.44696 0.14288 0.0
Cd128 Cd 0.94062 0.4141 0.1289 0.0
O129 O 0.96477 0.36205 0.14415 0.0
O130 O 0.04376 0.47662 0.16483 0.0
O131 O 0.98386 0.47282 0.1756 0.0
C132 C 1.01755 0.48395 0.18187 0.0
C133 C 0.88115 0.43525 0.14159 0.0
C134 C 0.99981 0.35762 0.14763 0.0
C135 C 0.98382 0.45682 0.08565 0.0
O136 O 0.95756 0.43209 0.09087 0.0
O137 O 1.00472 0.47035 0.10454 0.0
O138 O 0.8856 0.40388 0.12657 0.0
O139 O 0.91066 0.45396 0.15033 0.0
O140 O 0.03648 0.38745 0.37891 0.0
Cd141 Cd 0.05012 0.44782 0.37961 0.0
Cd142 Cd 0.11309 0.41912 0.40259 0.0
O143 O 0.09228 0.36408 0.38937 0.0
O144 O 1.01123 0.47194 0.35572 0.0
O145 O 0.07149 0.47316 0.34616 0.0
C146 C 0.03744 0.48114 0.33909 0.0
C147 C 0.17422 0.43894 0.39278 0.0
C148 C 0.0585 0.35791 0.38219 0.0
C149 C 0.06225 0.46785 0.43759 0.0
O150 O 0.08939 0.4432 0.43709 0.0
O151 O 0.04488 0.47689 0.41593 0.0
O152 O 0.16747 0.41079 0.41007 0.0
O153 O 0.14619 0.45554 0.38051 0.0
O154 O 0.50829 0.60645 0.37771 0.0
Cd155 Cd 0.49702 0.54554 0.37838 0.0
Cd156 Cd 0.43393 0.56961 0.40166 0.0
O157 O 0.45132 0.62558 0.38801 0.0
O158 O 0.5304 0.52218 0.35048 0.0
O159 O 0.46867 0.52229 0.34678 0.0
C160 C 0.5008 0.51463 0.3362 0.0
C161 C 0.37249 0.54826 0.39322 0.0
C162 C 0.48444 0.63425 0.38083 0.0
C163 C 0.48939 0.52476 0.43641 0.0
O164 O 0.46068 0.54731 0.43589 0.0
O165 O 0.50641 0.51653 0.41463 0.0
O166 O 0.3799 0.57641 0.41045 0.0
O167 O 0.40001 0.53218 0.38044 0.0
O168 O 0.46054 0.44596 0.9377 0.0
Cd169 Cd 0.43743 0.42167 0.90271 0.0
Cd170 Cd 0.5062 0.44126 0.88537 0.0
O171 O 0.51433 0.46868 0.92233 0.0
O172 O 0.38287 0.42061 0.91128 0.0
O173 O 0.40608 0.45569 0.87726 0.0
C174 C 0.37759 0.44531 0.89153 0.0
C175 C 0.50938 0.47355 0.84381 0.0
C176 C 0.49146 0.46425 0.94164 0.0
C177 C 0.48701 0.35319 0.88689 0.0
O178 O 0.51253 0.37971 0.88439 0.0
O179 O 0.45375 0.36361 0.89257 0.0
O180 O 0.53942 0.46441 0.85712 0.0
O181 O 0.47751 0.46643 0.85503 0.0
O182 O 0.09121 0.54303 0.93738 0.0
Cd183 Cd 0.11309 0.56456 0.90167 0.0
Cd184 Cd 0.04713 0.53365 0.88476 0.0
O185 O 0.04367 0.50696 0.92204 0.0
O186 O 0.16559 0.57573 0.91338 0.0
O187 O 0.15133 0.53074 0.88193 0.0
C188 C 0.1763 0.54764 0.89726 0.0
C189 C 0.03718 0.50044 0.84406 0.0
C190 C 0.06418 0.51888 0.94158 0.0
C191 C 0.0563 0.62371 0.88319 0.0
O192 O 0.03402 0.59377 0.8832 0.0
O193 O 0.0911 0.61852 0.88758 0.0
O194 O 1.00995 0.50757 0.86028 0.0
O195 O 0.07073 0.50959 0.85203 0.0
O196 O 0.96991 0.54207 0.58753 0.0
Cd197 Cd 0.93962 0.5659 0.6192 0.0
Cd198 Cd 1.00562 0.54484 0.64528 0.0
O199 O 1.01749 0.51571 0.60985 0.0
O200 O 0.88835 0.56862 0.60286 0.0
O201 O 0.90123 0.53149 0.6388 0.0
C202 C 0.87731 0.54297 0.62069 0.0
C203 C 1.02029 0.51392 0.68636 0.0
C204 C 0.99988 0.52161 0.58783 0.0
C205 C 0.98688 0.63369 0.64019 0.0
O206 O 1.01108 0.60678 0.6454 0.0
O207 O 0.95449 0.62378 0.63145 0.0
O208 O 0.04592 0.52742 0.67058 0.0
O209 O 0.98592 0.51668 0.67832 0.0
O210 O 0.58345 0.45171 0.58775 0.0
Cd211 Cd 0.61059 0.42506 0.62036 0.0
Cd212 Cd 0.5492 0.45141 0.64476 0.0
O213 O 0.53877 0.48302 0.60968 0.0
O214 O 0.66437 0.4225 0.60938 0.0
O215 O 0.64513 0.45755 0.64463 0.0
C216 C 0.67213 0.44664 0.62913 0.0
C217 C 0.54984 0.4798 0.6878 0.0
C218 C 0.55542 0.47518 0.58772 0.0
C219 C 0.55768 0.36163 0.63911 0.0
O220 O 0.53597 0.39096 0.64385 0.0
O221 O 0.59108 0.36825 0.63145 0.0
O222 O 0.5189 0.47433 0.67463 0.0
O223 O 0.58072 0.47142 0.6757 0.0
H224 H 0.32686 0.96594 0.17265 0.0
H225 H 0.33821 0.97208 0.08602 0.0
H226 H 0.27787 0.00554 0.08201 0.0
H227 H 0.22146 0.03196 0.10272 0.0
H228 H 0.20479 0.01905 0.18841 0.0
H229 H 0.26741 0.98942 0.19341 0.0
C230 C 0.31594 0.97472 0.153 0.0
C231 C 0.33682 0.96679 0.12964 0.0
C232 C 0.28037 0.99272 0.15073 0.0
C233 C 0.32242 0.97776 0.10422 0.0
C234 C 0.28802 -0.003 0.10191 0.0
C235 C 0.23171 0.02296 0.12253 0.0
C236 C 0.20902 0.02818 0.14522 0.0
C237 C 0.26675 0.00452 0.12497 0.0
C238 C 0.22205 0.01547 0.17069 0.0
C239 C 0.25776 -0.00145 0.17351 0.0
H240 H 0.71977 0.01368 0.3862 0.0
H241 H 0.75642 0.89028 0.3823 0.0
H242 H 0.82165 0.91267 0.37992 0.0
H243 H 0.86859 0.96724 0.38275 0.0
H244 H 0.83212 0.08998 0.39257 0.0
H245 H 0.76675 0.06833 0.3887 0.0
C246 C 0.74209 0.99185 0.38435 0.0
C247 C 0.73346 0.95047 0.38416 0.0
C248 C 0.77961 0.00492 0.38429 0.0
C249 C 0.76253 0.92231 0.38239 0.0
C250 C 0.79979 0.9351 0.3811 0.0
C251 C 0.84627 0.98922 0.38361 0.0
C252 C 0.85504 0.03013 0.38775 0.0
C253 C 0.80873 0.9763 0.38257 0.0
C254 C 0.82595 0.0583 0.38939 0.0
C255 C 0.7886 0.04594 0.3872 0.0
H256 H 0.83515 0.954 0.92452 0.0
H257 H 0.84805 0.95685 0.83807 0.0
H258 H 0.78595 0.98769 0.833 0.0
H259 H 0.72819 0.01536 0.85385 0.0
H260 H 0.72088 0.01949 0.9408 0.0
H261 H 0.78044 0.98461 0.94511 0.0
C262 C 0.82414 0.96102 0.90455 0.0
C263 C 0.8456 0.9526 0.88166 0.0
C264 C 0.78951 0.98032 0.90198 0.0
C265 C 0.83168 0.96282 0.85594 0.0
C266 C 0.79629 0.98049 0.85308 0.0
C267 C 0.73982 0.00855 0.87364 0.0
C268 C 0.72027 0.01984 0.89699 0.0
C269 C 0.77498 0.98964 0.87602 0.0
C270 C 0.73563 0.01131 0.92257 0.0
C271 C 0.76958 0.99122 0.92507 0.0
H272 H 0.25661 0.91746 0.63791 0.0
H273 H 0.1973 0.03016 0.64046 0.0
H274 H 0.25665 0.06728 0.64205 0.0
H275 H 0.32568 0.06767 0.63953 0.0
H276 H 0.38494 0.95483 0.64141 0.0
H277 H 0.32561 0.91776 0.64162 0.0
C278 C 0.2568 0.95012 0.63912 0.0
C279 C 0.22275 0.97113 0.63879 0.0
C280 C 0.29104 0.9712 0.64077 0.0
C281 C 0.22322 0.01339 0.64072 0.0
C282 C 0.25714 0.03461 0.64151 0.0
C283 C 0.3255 0.03498 0.64037 0.0
C284 C 0.35958 0.01398 0.64024 0.0
C285 C 0.29125 0.01387 0.6411 0.0
C286 C 0.35905 0.97166 0.6416 0.0
C287 C 0.32513 0.95044 0.64154 0.0
H288 H 0.86035 0.51339 0.14567 0.0
H289 H 0.81693 0.39195 0.14748 0.0
H290 H 0.75303 0.41772 0.14993 0.0
H291 H 0.70925 0.47478 0.14716 0.0
H292 H 0.75274 0.5957 0.13971 0.0
H293 H 0.81668 0.57046 0.14405 0.0
C294 C 0.83688 0.49267 0.14713 0.0
C295 C 0.84323 0.45089 0.14659 0.0
C296 C 0.80018 0.50771 0.14727 0.0
C297 C 0.81263 0.42426 0.14791 0.0
C298 C 0.77612 0.43898 0.14924 0.0
C299 C 0.73277 0.49558 0.14697 0.0
C300 C 0.72641 0.53701 0.14325 0.0
C301 C 0.7695 0.48063 0.1483 0.0
C302 C 0.75705 0.56365 0.14253 0.0
C303 C 0.79358 0.54923 0.14498 0.0
H304 H 0.34798 0.47125 0.38692 0.0
H305 H 0.30997 0.59415 0.39125 0.0
H306 H 0.24487 0.5713 0.38812 0.0
H307 H 0.19858 0.51596 0.38757 0.0
H308 H 0.23658 0.39291 0.38939 0.0
H309 H 0.30164 0.41585 0.3865 0.0
C310 C 0.32537 0.49293 0.38678 0.0
C311 C 0.33359 0.53428 0.38909 0.0
C312 C 0.28799 0.47943 0.38622 0.0
C313 C 0.30417 0.56216 0.38947 0.0
C314 C 0.267 0.54911 0.3877 0.0
C315 C 0.22117 0.49428 0.38689 0.0
C316 C 0.21297 0.45287 0.38841 0.0
C317 C 0.25853 0.50778 0.38653 0.0
C318 C 0.24237 0.42496 0.38816 0.0
C319 C 0.27951 0.43807 0.38656 0.0
H320 H 0.21887 0.51355 0.85735 0.0
H321 H 0.22035 0.54685 0.94171 0.0
H322 H 0.28195 0.51697 0.94743 0.0
H323 H 0.33488 0.47983 0.92905 0.0
H324 H 0.33819 0.45253 0.84402 0.0
H325 H 0.27546 0.48146 0.83781 0.0
C326 C 0.23291 0.51444 0.87687 0.0
C327 C 0.21502 0.53226 0.8991 0.0
C328 C 0.26907 0.49807 0.87991 0.0
C329 C 0.2336 0.53357 0.92425 0.0
C330 C 0.26877 0.51628 0.92761 0.0
C331 C 0.32176 0.48024 0.90918 0.0
C332 C 0.34056 0.46363 0.8871 0.0
C333 C 0.28661 0.49819 0.90568 0.0
C334 C 0.32391 0.46503 0.8613 0.0
C335 C 0.28812 0.48152 0.8578 0.0
H336 H 0.72064 0.46656 0.5899 0.0
H337 H 0.70881 0.46477 0.67648 0.0
H338 H 0.77212 0.49287 0.68195 0.0
H339 H 0.831 0.5188 0.66167 0.0
H340 H 0.83857 0.527 0.57486 0.0
H341 H 0.77701 0.49576 0.56986 0.0
C342 C 0.73206 0.4721 0.60997 0.0
C343 C 0.71041 0.46313 0.63276 0.0
C344 C 0.76773 0.48965 0.61286 0.0
C345 C 0.72512 0.47129 0.65864 0.0
C346 C 0.76128 0.48736 0.66175 0.0
C347 C 0.81904 0.5137 0.64172 0.0
C348 C 0.83935 0.52506 0.61865 0.0
C349 C 0.78287 0.4968 0.63898 0.0
C350 C 0.82341 0.51873 0.59292 0.0
C351 C 0.78825 0.50072 0.59002 0.0
H352 H 0.97574 0.98401 0.29981 0.0
H353 H 0.09439 0.98358 0.31674 0.0
H354 H 0.10735 0.97599 0.26875 0.0
H355 H 0.08537 0.98145 0.22181 0.0
H356 H 0.96681 0.98372 0.20475 0.0
H357 H 0.95355 0.97767 0.25283 0.0
C358 C 1.0044 0.98132 0.29307 0.0
C359 C 0.03403 0.98529 0.31177 0.0
C360 C 1.01175 0.97768 0.26533 0.0
C361 C 0.07101 0.9812 0.30274 0.0
C362 C 0.07851 0.97699 0.27525 0.0
C363 C 0.05663 0.9796 0.22854 0.0
C364 C 1.02718 0.98393 0.20976 0.0
C365 C 0.04916 0.97704 0.2563 0.0
C366 C 0.99007 0.98095 0.21879 0.0
C367 C 0.98242 0.97772 0.24634 0.0
H368 H 0.47765 0.99118 0.22652 0.0
H369 H 0.59359 0.98558 0.20339 0.0
H370 H 0.61289 0.98999 0.25071 0.0
H371 H 0.59665 0.98566 0.29882 0.0
H372 H 0.48064 0.98932 0.32195 0.0
H373 H 0.46178 -0.00392 0.27468 0.0
C374 C 0.50716 0.99182 0.23177 0.0
C375 C 0.53405 0.98747 0.21139 0.0
C376 C 0.51814 -0.00642 0.25915 0.0
C377 C 0.5722 0.98852 0.21862 0.0
C378 C 0.58332 0.99089 0.24574 0.0
C379 C 0.5673 0.98884 0.29359 0.0
C380 C 0.54013 0.9864 0.31395 0.0
C381 C 0.55651 0.99193 0.26623 0.0
C382 C 0.5022 0.99073 0.30674 0.0
C383 C 0.49132 -0.00555 0.27964 0.0
H384 H 0.99854 0.98991 0.71651 0.0
H385 H 0.1189 0.98952 0.72416 0.0
H386 H 0.11401 -0.00114 0.77295 0.0
H387 H 0.07562 -0.00411 0.81372 0.0
H388 H 0.95527 0.99247 0.80611 0.0
H389 H 0.96014 -0.00326 0.75702 0.0
C390 C 1.02374 0.99267 0.72876 0.0
C391 C 0.05901 0.98824 0.71678 0.0
C392 C 1.02072 -0.00298 0.75687 0.0
C393 C 0.09138 0.99237 0.7329 0.0
C394 C 0.08861 -0.00242 0.76084 0.0
C395 C 0.05041 -0.00294 0.80138 0.0
C396 C 1.01516 -0.00686 0.81354 0.0
C397 C 0.05342 -0.00175 0.77313 0.0
C398 C 0.98278 -0.00498 0.79726 0.0
C399 C 0.98554 -0.00276 0.76916 0.0
H400 H 0.47855 -0.00282 0.7231 0.0
H401 H 0.59666 0.99179 0.70638 0.0
H402 H 0.61061 0.98829 0.7547 0.0
H403 H 0.5898 -0.00396 0.80171 0.0
H404 H 0.4717 0.00286 0.81827 0.0
H405 H 0.45738 -0.004 0.77021 0.0
C406 C 0.5073 -0.0056 0.72997 0.0
C407 C 0.53649 -0.0047 0.71107 0.0
C408 C 0.51524 -0.0069 0.75788 0.0
C409 C 0.57358 0.99145 0.72042 0.0
C410 C 0.58165 0.98963 0.74811 0.0
C411 C 0.56091 -0.00479 0.79488 0.0
C412 C 0.53195 0.00053 0.81362 0.0
C413 C 0.55279 0.99187 0.76705 0.0
C414 C 0.49464 -0.00083 0.80435 0.0
C415 C 0.48636 -0.00462 0.77679 0.0
H416 H 0.49037 0.50324 0.20991 0.0
H417 H 0.61047 0.50138 0.21945 0.0
H418 H 0.60388 0.49447 0.2683 0.0
H419 H 0.56441 0.49922 0.30845 0.0
H420 H 0.4444 0.50421 0.29906 0.0
H421 H 0.45059 0.49895 0.25005 0.0
C422 C 0.51512 0.50046 0.22259 0.0
C423 C 0.55087 0.50344 0.21103 0.0
C424 C 0.51115 0.49749 0.25077 0.0
C425 C 0.58261 0.49952 0.22779 0.0
C426 C 0.57888 0.49574 0.25578 0.0
C427 C 0.53953 0.49835 0.29575 0.0
C428 C 0.50401 0.50274 0.30742 0.0
C429 C 0.54333 0.49629 0.26754 0.0
C430 C 0.4721 0.50118 0.29064 0.0
C431 C 0.47562 0.49838 0.26257 0.0
H432 H 0.08525 0.49848 0.29803 0.0
H433 H 0.96802 0.49525 0.31808 0.0
H434 H 0.95122 0.5031 0.27056 0.0
H435 H 0.96969 0.49895 0.22304 0.0
H436 H 0.08684 0.50052 0.20281 0.0
H437 H 0.10363 0.50623 0.25054 0.0
C438 C 0.05604 0.50043 0.29208 0.0
C439 C 1.02798 0.49535 0.31152 0.0
C440 C 0.04648 0.50426 0.26458 0.0
C441 C 0.99026 0.49848 0.3035 0.0
C442 C 0.98055 0.50285 0.27627 0.0
C443 C 0.99887 0.50156 0.229 0.0
C444 C 1.02693 0.4984 0.20943 0.0
C445 C 1.00841 0.50394 0.25656 0.0
C446 C 0.06461 0.50238 0.21748 0.0
C447 C 0.0743 0.50541 0.24482 0.0
H448 H 0.48933 0.49585 0.71878 0.0
H449 H 0.60962 0.48634 0.72243 0.0
H450 H 0.60795 0.48946 0.77172 0.0
H451 H 0.57174 0.48492 0.81357 0.0
H452 H 0.45127 0.49156 0.80975 0.0
H453 H 0.45371 0.50013 0.7608 0.0
C454 C 0.51527 0.49525 0.73031 0.0
C455 C 0.5495 0.49024 0.71692 0.0
C456 C 0.51405 0.49613 0.75867 0.0
C457 C 0.58285 0.48989 0.73219 0.0
C458 C 0.58191 0.49147 0.76042 0.0
C459 C 0.54604 0.48904 0.80212 0.0
C460 C 0.51135 0.48698 0.81529 0.0
C461 C 0.54758 0.49305 0.77387 0.0
C462 C 0.47835 0.49268 0.80013 0.0
C463 C 0.47969 0.49742 0.77209 0.0
H464 H 0.08673 0.49379 0.80296 0.0
H465 H 0.96956 0.48089 0.82147 0.0
H466 H 0.95419 0.47813 0.77337 0.0
H467 H 0.97301 0.49068 0.72643 0.0
H468 H 0.09007 0.50591 0.70821 0.0
H469 H 0.10639 0.49598 0.75565 0.0
C470 C 0.05793 0.48936 0.7965 0.0
C471 C 1.02932 0.48832 0.81578 0.0
C472 C 0.04914 0.48885 0.76878 0.0
C473 C 0.99215 0.48224 0.80705 0.0
C474 C 0.98327 0.48088 0.77951 0.0
C475 C 1.00214 0.491 0.73275 0.0
C476 C 1.03017 0.49983 0.71388 0.0
C477 C 1.01136 0.48597 0.76022 0.0
C478 C 0.06783 0.49973 0.72236 0.0
C479 C 0.07725 0.49412 0.74954 0.0
H480 H 0.09233 0.19636 0.15023 0.0
H481 H 0.9809 0.14571 0.1529 0.0
H482 H 0.95441 0.21304 0.15519 0.0
H483 H 0.96236 0.28639 0.15316 0.0
H484 H 0.07365 0.33731 0.15053 0.0
H485 H 0.10048 0.26993 0.15177 0.0
C486 C 0.06228 0.20002 0.15155 0.0
C487 C 0.03873 0.16595 0.15109 0.0
C488 C 0.04706 0.23896 0.15277 0.0
C489 C 0.99981 0.17133 0.15304 0.0
C490 C 0.98453 0.20989 0.15431 0.0
C491 C 0.99249 0.28281 0.15312 0.0
C492 C 1.01585 0.3169 0.15147 0.0
C493 C 1.00783 0.24393 0.15368 0.0
C494 C 0.05489 0.31163 0.15165 0.0
C495 C 0.07034 0.27306 0.15229 0.0
H496 H 0.55426 0.82616 0.1487 0.0
H497 H 0.43794 0.79125 0.14295 0.0
H498 H 0.45567 0.72018 0.14433 0.0
H499 H 0.50435 0.66819 0.14448 0.0
H500 H 0.62066 0.70362 0.14858 0.0
H501 H 0.60261 0.77441 0.15066 0.0
C502 C 0.53266 0.8031 0.14795 0.0
C503 C 0.49479 0.81413 0.14559 0.0
C504 C 0.54306 0.76238 0.14834 0.0
C505 C 0.46729 0.78369 0.14468 0.0
C506 C 0.47741 0.74303 0.14543 0.0
C507 C 0.52579 0.69133 0.14608 0.0
C508 C 0.56385 0.68053 0.14625 0.0
C509 C 0.51524 0.73205 0.14685 0.0
C510 C 0.59119 0.71101 0.14828 0.0
C511 C 0.5809 0.75153 0.14945 0.0
H512 H 0.55497 0.66373 0.37456 0.0
H513 H 0.43974 0.70089 0.38024 0.0
H514 H 0.45912 0.77152 0.37856 0.0
H515 H 0.50882 0.82256 0.37827 0.0
H516 H 0.62426 0.78558 0.37448 0.0
H517 H 0.60463 0.71497 0.37245 0.0
C518 C 0.53402 0.68724 0.37517 0.0
C519 C 0.49594 0.67696 0.37764 0.0
C520 C 0.54539 0.72782 0.37466 0.0
C521 C 0.46924 0.70788 0.37848 0.0
C522 C 0.48029 0.74831 0.37753 0.0
C523 C 0.52975 0.79914 0.37674 0.0
C524 C 0.568 0.80943 0.37664 0.0
C525 C 0.51831 0.75861 0.37605 0.0
C526 C 0.59465 0.77857 0.37471 0.0
C527 C 0.58345 0.73816 0.37357 0.0
H528 H 0.09832 0.28811 0.37991 0.0
H529 H 0.98556 0.33402 0.37811 0.0
H530 H 0.96076 0.26543 0.37713 0.0
H531 H 0.97088 0.19229 0.37919 0.0
H532 H 0.08362 0.14633 0.37989 0.0
H533 H 0.10845 0.21492 0.37874 0.0
C534 C 0.06833 0.28312 0.37914 0.0
C535 C 0.04391 0.31622 0.37931 0.0
C536 C 0.05415 0.24352 0.37847 0.0
C537 C 1.00509 0.30916 0.37803 0.0
C538 C 0.99081 0.26989 0.37755 0.0
C539 C 1.00087 0.19727 0.37894 0.0
C540 C 1.02528 0.16418 0.37985 0.0
C541 C 1.01506 0.23684 0.37815 0.0
C542 C 0.06411 0.1712 0.37922 0.0
C543 C 0.0784 0.21046 0.37864 0.0
H544 H 0.09447 0.69516 0.88056 0.0
H545 H 0.98292 0.64466 0.87809 0.0
H546 H 0.95642 0.71206 0.87621 0.0
H547 H 0.96451 0.78552 0.87784 0.0
H548 H 0.076 0.83613 0.8799 0.0
H549 H 0.10264 0.76871 0.87919 0.0
C550 C 0.06438 0.69887 0.8794 0.0
C551 C 0.04083 0.6648 0.8797 0.0
C552 C 0.04916 0.73783 0.87836 0.0
C553 C 1.00185 0.67026 0.87801 0.0
C554 C 0.98656 0.70886 0.87698 0.0
C555 C 0.99462 0.78184 0.87795 0.0
C556 C 1.0181 0.81592 0.87914 0.0
C557 C 1.0099 0.74289 0.87756 0.0
C558 C 0.05714 0.8105 0.87906 0.0
C559 C 0.07249 0.77189 0.87872 0.0
H560 H 0.5564 0.32086 0.8821 0.0
H561 H 0.43951 0.28815 0.88593 0.0
H562 H 0.45596 0.21682 0.88386 0.0
H563 H 0.50348 0.16389 0.88297 0.0
H564 H 0.62049 0.19648 0.88082 0.0
H565 H 0.60389 0.26787 0.88006 0.0
C566 C 0.53443 0.2982 0.8823 0.0
C567 C 0.49673 0.30995 0.88424 0.0
C568 C 0.5441 0.25724 0.88147 0.0
C569 C 0.46874 0.28005 0.88455 0.0
C570 C 0.47812 0.23923 0.88336 0.0
C571 C 0.52543 0.18653 0.88211 0.0
C572 C 0.56323 0.17474 0.88199 0.0
C573 C 0.51572 0.22749 0.88211 0.0
C574 C 0.5912 0.20463 0.88099 0.0
C575 C 0.58173 0.24548 0.88059 0.0
H576 H 0.46931 0.19619 0.64442 0.0
H577 H 0.58175 0.14977 0.64068 0.0
H578 H 0.60687 0.2181 0.64044 0.0
H579 H 0.59715 0.29135 0.63942 0.0
H580 H 0.48493 0.33797 0.64425 0.0
H581 H 0.45981 0.26958 0.646 0.0
C582 C 0.49931 0.20101 0.64373 0.0
C583 C 0.52346 0.16774 0.6424 0.0
C584 C 0.51377 0.24056 0.64367 0.0
C585 C 0.56234 0.17468 0.64168 0.0
C586 C 0.57684 0.21384 0.64147 0.0
C587 C 0.56722 0.28655 0.64094 0.0
C588 C 0.54305 0.31984 0.64152 0.0
C589 C 0.55283 0.24704 0.64213 0.0
C590 C 0.5043 0.31299 0.64375 0.0
C591 C 0.48981 0.27382 0.64471 0.0
H592 H 1.0088 0.82291 0.64364 0.0
H593 H 0.12462 0.78746 0.64904 0.0
H594 H 0.10581 0.7165 0.64992 0.0
H595 H 0.05683 0.66464 0.64705 0.0
H596 H 0.94117 0.69985 0.63922 0.0
H597 H 0.95964 0.7709 0.64148 0.0
C598 C 1.02996 0.79971 0.64528 0.0
C599 C 0.06812 0.81057 0.64632 0.0
C600 C 1.01898 0.75894 0.6452 0.0
C601 C 0.09511 0.78001 0.64816 0.0
C602 C 0.08436 0.73942 0.64865 0.0
C603 C 0.03555 0.68779 0.64607 0.0
C604 C 0.9976 0.67682 0.64299 0.0
C605 C 0.04642 0.72854 0.64686 0.0
C606 C 0.97054 0.70735 0.64152 0.0
C607 C 0.9811 0.74801 0.64282 0.0
H608 H 0.0536 -0.00337 0.96006 0.0
H609 H 0.94351 0.95483 0.98223 0.0
H610 H 0.95758 0.96827 0.02972 0.0
H611 H 1.00134 0.99077 0.06504 0.0
H612 H 0.11144 0.03271 0.04305 0.0
H613 H 0.09724 0.01985 0.99545 0.0
C614 C 0.03254 0.99086 0.97524 0.0
C615 C 0.99755 0.97481 0.96756 0.0
C616 C 0.04095 -0.00183 1.00259 0.0
C617 C 0.9707 0.96718 0.98755 0.0
C618 C 0.97874 0.97471 0.01475 0.0
C619 C 1.02236 -0.00321 0.04988 0.0
C620 C 0.05745 0.01248 0.05764 0.0
C621 C 1.01389 0.98981 0.02252 0.0
C622 C 0.08421 0.02053 0.03766 0.0
C623 C 0.07609 0.01333 1.01041 0.0
H624 H 0.5017 -0.00131 0.96027 0.0
H625 H 0.61638 0.02151 0.9839 0.0
H626 H 0.60134 0.00729 0.03091 0.0
H627 H 0.5556 0.98891 0.0656 0.0
H628 H 0.44092 0.966 0.04204 0.0
H629 H 0.45595 0.98013 0.99499 0.0
C630 C 0.52347 0.00017 0.97566 0.0
C631 C 0.56011 0.01108 0.96847 0.0
C632 C 0.51458 0.99239 1.00282 0.0
C633 C 0.58789 0.01323 0.98879 0.0
C634 C 0.57933 0.00522 0.01575 0.0
C635 C 0.53382 0.98737 0.05022 0.0
C636 C 0.49718 0.97652 0.05744 0.0
C637 C 0.54271 -0.00492 0.02306 0.0
C638 C 0.4694 0.97427 0.03713 0.0
C639 C 0.47796 0.98223 1.01014 0.0
H640 H 0.56469 0.98557 0.56522 0.0
H641 H 0.45727 0.02873 0.53755 0.0
H642 H 0.47412 0.0142 0.49089 0.0
H643 H 0.51951 0.99003 0.45777 0.0
H644 H 0.62711 0.94716 0.48533 0.0
H645 H 0.6101 0.96122 0.53205 0.0
C646 C 0.54481 0.99145 0.54903 0.0
C647 C 0.50971 0.00811 0.55498 0.0
C648 C 0.55485 0.98351 0.52211 0.0
C649 C 0.48448 0.0159 0.53363 0.0
C650 C 0.49412 0.00772 0.50688 0.0
C651 C 0.53939 0.98402 0.47394 0.0
C652 C 0.57461 0.96767 0.46793 0.0
C653 C 0.52934 0.99183 0.50085 0.0
C654 C 0.59983 0.95981 0.48928 0.0
C655 C 0.59009 0.96771 0.51606 0.0
H656 H 0.09138 0.93811 0.53881 0.0
H657 H 1.01908 0.02024 0.58106 0.0
H658 H 0.99107 0.04138 0.5382 0.0
H659 H 0.98726 0.03679 0.4887 0.0
H660 H 0.05951 0.95436 0.44661 0.0
H661 H 0.08695 0.93279 0.48948 0.0
C662 C 0.06969 0.96085 0.53865 0.0
C663 C 0.05753 0.97769 0.56311 0.0
C664 C 0.05338 0.97255 0.51398 0.0
C665 C 1.02906 0.00681 0.56253 0.0
C666 C 1.01292 0.01886 0.53803 0.0
C667 C 1.00875 0.01383 0.4889 0.0
C668 C 1.02125 -0.00275 0.46444 0.0
C669 C 1.02476 0.00182 0.51364 0.0
C670 C 0.04933 0.96769 0.46511 0.0
C671 C 0.06517 0.95541 0.48963 0.0
H672 H 0.51138 0.50317 0.06587 0.0
H673 H 0.623 0.53295 0.03975 0.0
H674 H 0.60571 0.51627 0.99315 0.0
H675 H 0.5588 0.49331 0.95975 0.0
H676 H 0.44705 0.46439 0.98618 0.0
H677 H 0.46448 0.48111 0.03259 0.0
C678 C 0.53205 0.50573 0.05005 0.0
C679 C 0.56849 0.51909 0.05638 0.0
C680 C 0.52181 0.49663 0.02325 0.0
C681 C 0.59475 0.52266 0.0355 0.0
C682 C 0.58487 0.51324 1.00881 0.0
C683 C 0.53816 0.49098 0.97561 0.0
C684 C 0.50165 0.47761 0.96938 0.0
C685 C 0.54842 0.50038 1.00241 0.0
C686 C 0.47537 0.47458 0.9903 0.0
C687 C 0.48532 0.48401 0.01692 0.0
H688 H 0.0462 0.49352 0.06687 0.0
H689 H 0.94074 0.44232 0.04059 0.0
H690 H 0.95693 0.45541 0.99347 0.0
H691 H 1.00124 0.48129 0.95978 0.0
H692 H 0.10686 0.53167 0.98666 0.0
H693 H 0.09047 0.51844 0.0335 0.0
C694 C 1.02656 0.4855 0.05089 0.0
C695 C 0.99223 0.46719 0.05727 0.0
C696 C 0.03624 0.49253 0.02391 0.0
C697 C 0.96733 0.45658 0.03624 0.0
C698 C 0.97662 0.46391 1.00929 0.0
C699 C 1.02081 0.48903 0.97587 0.0
C700 C 0.05522 0.50743 0.96968 0.0
C701 C 1.0111 0.48167 1.00288 0.0
C702 C 0.08015 0.51752 0.99081 0.0
C703 C 0.07079 0.51009 0.01765 0.0
H704 H 0.97913 0.54337 0.53708 0.0
H705 H 0.05639 0.4673 0.5808 0.0
H706 H 0.08372 0.44522 0.5382 0.0
H707 H 0.08522 0.44716 0.48848 0.0
H708 H 1.00808 0.52415 0.44525 0.0
H709 H 0.98155 0.54653 0.48781 0.0
C710 C 1.0018 0.52176 0.53734 0.0
C711 C 1.0155 0.50682 0.56209 0.0
C712 C 1.01766 0.50961 0.51286 0.0
C713 C 0.04522 0.47921 0.56202 0.0
C714 C 0.06093 0.46664 0.53767 0.0
C715 C 0.06283 0.46909 0.48836 0.0
C716 C 0.04867 0.48385 0.46365 0.0
C717 C 0.04741 0.48171 0.51296 0.0
C718 C 1.01954 0.51218 0.46392 0.0
C719 C 1.00421 0.52495 0.48827 0.0
H720 H 0.57681 0.45404 0.53707 0.0
H721 H 0.4992 0.52986 0.57968 0.0
H722 H 0.47117 0.55083 0.53673 0.0
H723 H 0.46819 0.547 0.48709 0.0
H724 H 0.5458 0.4708 0.44475 0.0
H725 H 0.57396 0.45032 0.48766 0.0
C726 C 0.55396 0.47542 0.53703 0.0
C727 C 0.54027 0.49043 0.56164 0.0
C728 C 0.53765 0.48696 0.51229 0.0
C729 C 0.51041 0.51787 0.56109 0.0
C730 C 0.49424 0.52977 0.53651 0.0
C731 C 0.49109 0.52568 0.48722 0.0
C732 C 0.50472 0.51039 0.46265 0.0
C733 C 0.50745 0.51427 0.512 0.0
C734 C 0.53464 0.48303 0.46329 0.0
C735 C 0.55088 0.47138 0.48784 0.0
loop_
_geom_bond_atom_site_label_1
_geom_bond_atom_site_label_2
_geom_bond_distance
_geom_bond_site_symmetry_2
_ccdc_geom_bond_type
O0 Cd1 2.219 1_655 S
O0 C8 1.303 1_655 S
Cd1 O0 2.219 1_455 S
Cd1 O4 2.297 1_455 S
Cd1 O5 2.439 . S
Cd1 O11 2.240 . S
Cd2 O3 2.240 . S
Cd2 O10 2.223 . S
Cd2 O12 2.297 . S
Cd2 O13 2.439 . S
O3 Cd2 2.240 . S
O3 C8 1.279 . S
O4 Cd1 2.297 1_655 S
O4 C6 1.247 1_655 S
O5 Cd1 2.439 . S
O5 C6 1.208 . S
C6 O4 1.247 1_455 S
C6 O5 1.208 . S
C7 O12 1.247 . S
C7 O13 1.208 . S
C8 O0 1.303 1_455 S
C8 O3 1.279 . S
C9 O10 1.315 . S
C9 O11 1.279 . S
O10 Cd2 2.223 . S
O10 C9 1.315 . S
O11 Cd1 2.240 . S
O11 C9 1.279 . S
O12 Cd2 2.297 . S
O12 C7 1.247 . S
O13 Cd2 2.439 . S
O13 C7 1.208 . S
O14 Cd15 2.223 . S
O14 C22 1.315 . S
Cd15 O14 2.223 . S
Cd15 O18 2.297 . S
Cd15 O19 2.439 . S
Cd15 O25 2.240 . S
Cd16 O17 2.240 . S
Cd16 O24 2.223 . S
Cd16 O26 2.297 . S
Cd16 O27 2.439 . S
O17 Cd16 2.240 . S
O17 C22 1.279 . S
O18 Cd15 2.297 . S
O18 C20 1.247 . S
O19 Cd15 2.439 . S
O19 C20 1.208 . S
C20 O18 1.247 . S
C20 O19 1.208 . S
C21 O26 1.247 . S
C21 O27 1.208 . S
C22 O14 1.315 . S
C22 O17 1.279 . S
C23 O24 1.315 . S
C23 O25 1.279 . S
O24 Cd16 2.223 . S
O24 C23 1.315 . S
O25 Cd15 2.240 . S
O25 C23 1.279 . S
O26 Cd16 2.297 . S
O26 C21 1.247 . S
O27 Cd16 2.439 . S
O27 C21 1.208 . S
O28 Cd29 2.223 . S
O28 C36 1.315 . S
Cd29 O28 2.223 . S
Cd29 O32 2.297 . S
Cd29 O33 2.439 . S
Cd29 O39 2.240 . S
Cd30 O31 2.240 . S
Cd30 O38 2.223 . S
Cd30 O40 2.297 . S
Cd30 O41 2.439 . S
O31 Cd30 2.240 . S
O31 C36 1.279 . S
O32 Cd29 2.297 . S
O32 C34 1.247 . S
O33 Cd29 2.439 . S
O33 C34 1.208 . S
C34 O32 1.247 . S
C34 O33 1.208 . S
C35 O40 1.247 . S
C35 O41 1.208 . S
C36 O28 1.315 . S
C36 O31 1.279 . S
C37 O38 1.315 . S
C37 O39 1.279 . S
O38 Cd30 2.223 . S
O38 C37 1.315 . S
O39 Cd29 2.240 . S
O39 C37 1.279 . S
O40 Cd30 2.297 . S
O40 C35 1.247 . S
O41 Cd30 2.439 . S
O41 C35 1.208 . S
O42 Cd43 2.219 1_455 S
O42 C50 1.303 1_455 S
Cd43 O42 2.219 1_655 S
Cd43 O46 2.297 1_655 S
Cd43 O47 2.439 . S
Cd43 O53 2.240 . S
Cd44 O45 2.240 . S
Cd44 O52 2.223 . S
Cd44 O54 2.297 . S
Cd44 O55 2.439 . S
O45 Cd44 2.240 . S
O45 C50 1.279 . S
O46 Cd43 2.297 1_455 S
O46 C48 1.247 1_455 S
O47 Cd43 2.439 . S
O47 C48 1.208 . S
C48 O46 1.247 1_655 S
C48 O47 1.208 . S
C49 O54 1.247 . S
C49 O55 1.208 . S
C50 O42 1.303 1_655 S
C50 O45 1.279 . S
C51 O52 1.315 . S
C51 O53 1.279 . S
O52 Cd44 2.223 . S
O52 C51 1.315 . S
O53 Cd43 2.240 . S
O53 C51 1.279 . S
O54 Cd44 2.297 . S
O54 C49 1.247 . S
O55 Cd44 2.439 . S
O55 C49 1.208 . S
O56 Cd57 2.223 . S
O56 C64 1.315 . S
Cd57 O56 2.223 . S
Cd57 O60 2.297 . S
Cd57 O61 2.439 . S
Cd57 O67 2.240 . S
Cd58 O59 2.240 . S
Cd58 O66 2.219 1_655 S
Cd58 O68 2.297 1_655 S
Cd58 O69 2.439 . S
O59 Cd58 2.240 . S
O59 C64 1.279 . S
O60 Cd57 2.297 . S
O60 C62 1.247 . S
O61 Cd57 2.439 . S
O61 C62 1.208 . S
C62 O60 1.247 . S
C62 O61 1.208 . S
C63 O68 1.247 1_655 S
C63 O69 1.208 . S
C64 O56 1.315 . S
C64 O59 1.279 . S
C65 O66 1.303 1_655 S
C65 O67 1.279 . S
O66 Cd58 2.219 1_455 S
O66 C65 1.303 1_455 S
O67 Cd57 2.240 . S
O67 C65 1.279 . S
O68 Cd58 2.297 1_455 S
O68 C63 1.247 1_455 S
O69 Cd58 2.439 . S
O69 C63 1.208 . S
O70 Cd71 2.223 . S
O70 C78 1.315 . S
Cd71 O70 2.223 . S
Cd71 O74 2.297 . S
Cd71 O75 2.439 . S
Cd71 O81 2.240 . S
Cd72 O73 2.240 . S
Cd72 O80 2.223 . S
Cd72 O82 2.297 . S
Cd72 O83 2.439 . S
O73 Cd72 2.240 . S
O73 C78 1.279 . S
O74 Cd71 2.297 . S
O74 C76 1.247 . S
O75 Cd71 2.439 . S
O75 C76 1.208 . S
C76 O74 1.247 . S
C76 O75 1.208 . S
C77 O82 1.247 . S
C77 O83 1.208 . S
C78 O70 1.315 . S
C78 O73 1.279 . S
C79 O80 1.315 . S
C79 O81 1.279 . S
O80 Cd72 2.223 . S
O80 C79 1.315 . S
O81 Cd71 2.240 . S
O81 C79 1.279 . S
O82 Cd72 2.297 . S
O82 C77 1.247 . S
O83 Cd72 2.439 . S
O83 C77 1.208 . S
O84 Cd85 2.223 . S
O84 C92 1.315 . S
Cd85 O84 2.223 . S
Cd85 O88 2.297 . S
Cd85 O89 2.439 . S
Cd85 O95 2.240 . S
Cd86 O87 2.240 . S
Cd86 O94 2.223 . S
Cd86 O96 2.297 . S
Cd86 O97 2.439 . S
O87 Cd86 2.240 . S
O87 C92 1.279 . S
O88 Cd85 2.297 . S
O88 C90 1.247 . S
O89 Cd85 2.439 . S
O89 C90 1.208 . S
C90 O88 1.247 . S
C90 O89 1.208 . S
C91 O96 1.247 . S
C91 O97 1.208 . S
C92 O84 1.315 . S
C92 O87 1.279 . S
C93 O94 1.315 . S
C93 O95 1.279 . S
O94 Cd86 2.223 . S
O94 C93 1.315 . S
O95 Cd85 2.240 . S
O95 C93 1.279 . S
O96 Cd86 2.297 . S
O96 C91 1.247 . S
O97 Cd86 2.439 . S
O97 C91 1.208 . S
O98 Cd99 2.223 . S
O98 C106 1.315 . S
Cd99 O98 2.223 . S
Cd99 O102 2.297 . S
Cd99 O103 2.439 . S
Cd99 O109 2.240 . S
Cd100 O101 2.240 . S
Cd100 O108 2.219 1_455 S
Cd100 O110 2.297 1_455 S
Cd100 O111 2.439 . S
O101 Cd100 2.240 . S
O101 C106 1.279 . S
O102 Cd99 2.297 . S
O102 C104 1.247 . S
O103 Cd99 2.439 . S
O103 C104 1.208 . S
C104 O102 1.247 . S
C104 O103 1.208 . S
C105 O110 1.247 1_455 S
C105 O111 1.208 . S
C106 O98 1.315 . S
C106 O101 1.279 . S
C107 O108 1.303 1_455 S
C107 O109 1.279 . S
O108 Cd100 2.219 1_655 S
O108 C107 1.303 1_655 S
O109 Cd99 2.240 . S
O109 C107 1.279 . S
O110 Cd100 2.297 1_655 S
O110 C105 1.247 1_655 S
O111 Cd100 2.439 . S
O111 C105 1.208 . S
O112 Cd113 2.223 . S
O112 C120 1.315 . S
Cd113 O112 2.223 . S
Cd113 O116 2.297 . S
Cd113 O117 2.439 . S
Cd113 O123 2.240 . S
Cd114 O115 2.240 . S
Cd114 O122 2.223 . S
Cd114 O124 2.297 . S
Cd114 O125 2.439 . S
O115 Cd114 2.240 . S
O115 C120 1.279 . S
O116 Cd113 2.297 . S
O116 C118 1.247 . S
O117 Cd113 2.439 . S
O117 C118 1.208 . S
C118 O116 1.247 . S
C118 O117 1.208 . S
C119 O124 1.247 . S
C119 O125 1.208 . S
C120 O112 1.315 . S
C120 O115 1.279 . S
C121 O122 1.315 . S
C121 O123 1.279 . S
O122 Cd114 2.223 . S
O122 C121 1.315 . S
O123 Cd113 2.240 . S
O123 C121 1.279 . S
O124 Cd114 2.297 . S
O124 C119 1.247 . S
O125 Cd114 2.439 . S
O125 C119 1.208 . S
O126 Cd127 2.219 1_455 S
O126 C134 1.303 1_455 S
Cd127 O126 2.219 1_655 S
Cd127 O130 2.297 1_655 S
Cd127 O131 2.439 . S
Cd127 O137 2.240 . S
Cd128 O129 2.240 . S
Cd128 O136 2.223 . S
Cd128 O138 2.297 . S
Cd128 O139 2.439 . S
O129 Cd128 2.240 . S
O129 C134 1.279 . S
O130 Cd127 2.297 1_455 S
O130 C132 1.247 1_455 S
O131 Cd127 2.439 . S
O131 C132 1.208 . S
C132 O130 1.247 1_655 S
C132 O131 1.208 . S
C133 O138 1.247 . S
C133 O139 1.208 . S
C134 O126 1.303 1_655 S
C134 O129 1.279 . S
C135 O136 1.315 . S
C135 O137 1.279 . S
O136 Cd128 2.223 . S
O136 C135 1.315 . S
O137 Cd127 2.240 . S
O137 C135 1.279 . S
O138 Cd128 2.297 . S
O138 C133 1.247 . S
O139 Cd128 2.439 . S
O139 C133 1.208 . S
O140 Cd141 2.219 1_655 S
O140 C148 1.303 1_655 S
Cd141 O140 2.219 1_455 S
Cd141 O144 2.297 1_455 S
Cd141 O145 2.439 . S
Cd141 O151 2.240 . S
Cd142 O143 2.240 . S
Cd142 O150 2.223 . S
Cd142 O152 2.297 . S
Cd142 O153 2.439 . S
O143 Cd142 2.240 . S
O143 C148 1.279 . S
O144 Cd141 2.297 1_655 S
O144 C146 1.247 1_655 S
O145 Cd141 2.439 . S
O145 C146 1.208 . S
C146 O144 1.247 1_455 S
C146 O145 1.208 . S
C147 O152 1.247 . S
C147 O153 1.208 . S
C148 O140 1.303 1_455 S
C148 O143 1.279 . S
C149 O150 1.315 . S
C149 O151 1.279 . S
O150 Cd142 2.223 . S
O150 C149 1.315 . S
O151 Cd141 2.240 . S
O151 C149 1.279 . S
O152 Cd142 2.297 . S
O152 C147 1.247 . S
O153 Cd142 2.439 . S
O153 C147 1.208 . S
O154 Cd155 2.223 . S
O154 C162 1.315 . S
Cd155 O154 2.223 . S
Cd155 O158 2.297 . S
Cd155 O159 2.439 . S
Cd155 O165 2.240 . S
Cd156 O157 2.240 . S
Cd156 O164 2.223 . S
Cd156 O166 2.297 . S
Cd156 O167 2.439 . S
O157 Cd156 2.240 . S
O157 C162 1.279 . S
O158 Cd155 2.297 . S
O158 C160 1.247 . S
O159 Cd155 2.439 . S
O159 C160 1.208 . S
C160 O158 1.247 . S
C160 O159 1.208 . S
C161 O166 1.247 . S
C161 O167 1.208 . S
C162 O154 1.315 . S
C162 O157 1.279 . S
C163 O164 1.315 . S
C163 O165 1.279 . S
O164 Cd156 2.223 . S
O164 C163 1.315 . S
O165 Cd155 2.240 . S
O165 C163 1.279 . S
O166 Cd156 2.297 . S
O166 C161 1.247 . S
O167 Cd156 2.439 . S
O167 C161 1.208 . S
O168 Cd169 2.223 . S
O168 C176 1.315 . S
Cd169 O168 2.223 . S
Cd169 O172 2.297 . S
Cd169 O173 2.439 . S
Cd169 O179 2.240 . S
Cd170 O171 2.240 . S
Cd170 O178 2.223 . S
Cd170 O180 2.297 . S
Cd170 O181 2.439 . S
O171 Cd170 2.240 . S
O171 C176 1.279 . S
O172 Cd169 2.297 . S
O172 C174 1.247 . S
O173 Cd169 2.439 . S
O173 C174 1.208 . S
C174 O172 1.247 . S
C174 O173 1.208 . S
C175 O180 1.247 . S
C175 O181 1.208 . S
C176 O168 1.315 . S
C176 O171 1.279 . S
C177 O178 1.315 . S
C177 O179 1.279 . S
O178 Cd170 2.223 . S
O178 C177 1.315 . S
O179 Cd169 2.240 . S
O179 C177 1.279 . S
O180 Cd170 2.297 . S
O180 C175 1.247 . S
O181 Cd170 2.439 . S
O181 C175 1.208 . S
O182 Cd183 2.223 . S
O182 C190 1.315 . S
Cd183 O182 2.223 . S
Cd183 O186 2.297 . S
Cd183 O187 2.439 . S
Cd183 O193 2.240 . S
Cd184 O185 2.240 . S
Cd184 O192 2.219 1_455 S
Cd184 O194 2.297 1_455 S
Cd184 O195 2.439 . S
O185 Cd184 2.240 . S
O185 C190 1.279 . S
O186 Cd183 2.297 . S
O186 C188 1.247 . S
O187 Cd183 2.439 . S
O187 C188 1.208 . S
C188 O186 1.247 . S
C188 O187 1.208 . S
C189 O194 1.247 1_455 S
C189 O195 1.208 . S
C190 O182 1.315 . S
C190 O185 1.279 . S
C191 O192 1.303 1_455 S
C191 O193 1.279 . S
O192 Cd184 2.219 1_655 S
O192 C191 1.303 1_655 S
O193 Cd183 2.240 . S
O193 C191 1.279 . S
O194 Cd184 2.297 1_655 S
O194 C189 1.247 1_655 S
O195 Cd184 2.439 . S
O195 C189 1.208 . S
O196 Cd197 2.223 . S
O196 C204 1.315 . S
Cd197 O196 2.223 . S
Cd197 O200 2.297 . S
Cd197 O201 2.439 . S
Cd197 O207 2.240 . S
Cd198 O199 2.240 . S
Cd198 O206 2.219 1_655 S
Cd198 O208 2.297 1_655 S
Cd198 O209 2.439 . S
O199 Cd198 2.240 . S
O199 C204 1.279 . S
O200 Cd197 2.297 . S
O200 C202 1.247 . S
O201 Cd197 2.439 . S
O201 C202 1.208 . S
C202 O200 1.247 . S
C202 O201 1.208 . S
C203 O208 1.247 1_655 S
C203 O209 1.208 . S
C204 O196 1.315 . S
C204 O199 1.279 . S
C205 O206 1.303 1_655 S
C205 O207 1.279 . S
O206 Cd198 2.219 1_455 S
O206 C205 1.303 1_455 S
O207 Cd197 2.240 . S
O207 C205 1.279 . S
O208 Cd198 2.297 1_455 S
O208 C203 1.247 1_455 S
O209 Cd198 2.439 . S
O209 C203 1.208 . S
O210 Cd211 2.223 . S
O210 C218 1.315 . S
Cd211 O210 2.223 . S
Cd211 O214 2.297 . S
Cd211 O215 2.439 . S
Cd211 O221 2.240 . S
Cd212 O213 2.240 . S
Cd212 O220 2.223 . S
Cd212 O222 2.297 . S
Cd212 O223 2.439 . S
O213 Cd212 2.240 . S
O213 C218 1.279 . S
O214 Cd211 2.297 . S
O214 C216 1.247 . S
O215 Cd211 2.439 . S
O215 C216 1.208 . S
C216 O214 1.247 . S
C216 O215 1.208 . S
C217 O222 1.247 . S
C217 O223 1.208 . S
C218 O210 1.315 . S
C218 O213 1.279 . S
C219 O220 1.315 . S
C219 O221 1.279 . S
O220 Cd212 2.223 . S
O220 C219 1.315 . S
O221 Cd211 2.240 . S
O221 C219 1.279 . S
O222 Cd212 2.297 . S
O222 C217 1.247 . S
O223 Cd212 2.439 . S
O223 C217 1.208 . S
H224 C230 0.930 . S
H225 C233 0.930 . S
H226 C234 0.930 . S
H227 C235 0.930 . S
H228 C238 0.930 . S
H229 C239 0.930 . S
C230 H224 0.930 . S
C230 C231 1.355 . S
C230 C232 1.415 . S
C231 C230 1.355 . S
C231 C233 1.419 1_565 S
C232 C230 1.415 . S
C232 C237 1.425 1_565 S
C232 C239 1.409 . S
C233 H225 0.930 . S
C233 C231 1.419 1_545 S
C233 C234 1.362 . S
C234 H226 0.930 . S
C234 C233 1.362 . S
C234 C237 1.409 . S
C235 H227 0.930 . S
C235 C236 1.355 . S
C235 C237 1.415 . S
C236 C235 1.355 . S
C236 C238 1.419 1_545 S
C237 C232 1.425 1_545 S
C237 C234 1.409 . S
C237 C235 1.415 . S
C238 H228 0.930 . S
C238 C236 1.419 1_565 S
C238 C239 1.362 . S
C239 H229 0.930 . S
C239 C232 1.409 . S
C239 C238 1.362 . S
H240 C246 0.930 . S
H241 C249 0.930 . S
H242 C250 0.930 . S
H243 C251 0.930 . S
H244 C254 0.930 . S
H245 C255 0.930 . S
C246 H240 0.930 . S
C246 C247 1.355 1_545 S
C246 C248 1.415 . S
C247 C246 1.355 1_565 S
C247 C249 1.419 . S
C248 C246 1.415 . S
C248 C253 1.425 1_545 S
C248 C255 1.409 . S
C249 H241 0.930 . S
C249 C247 1.419 . S
C249 C250 1.362 . S
C250 H242 0.930 . S
C250 C249 1.362 . S
C250 C253 1.409 . S
C251 H243 0.930 . S
C251 C252 1.355 1_565 S
C251 C253 1.415 . S
C252 C251 1.355 1_545 S
C252 C254 1.419 . S
C253 C248 1.425 1_565 S
C253 C250 1.409 . S
C253 C251 1.415 . S
C254 H244 0.930 . S
C254 C252 1.419 . S
C254 C255 1.362 . S
C255 H245 0.930 . S
C255 C248 1.409 . S
C255 C254 1.362 . S
H256 C262 0.930 . S
H257 C265 0.930 . S
H258 C266 0.930 . S
H259 C267 0.930 . S
H260 C270 0.930 . S
H261 C271 0.930 . S
C262 H256 0.930 . S
C262 C263 1.355 . S
C262 C264 1.411 1_565 S
C263 C262 1.355 . S
C263 C265 1.419 . S
C264 C262 1.411 1_545 S
C264 C269 1.425 1_545 S
C264 C271 1.414 . S
C265 H257 0.930 . S
C265 C263 1.419 . S
C265 C266 1.362 . S
C266 H258 0.930 . S
C266 C265 1.362 . S
C266 C269 1.414 . S
C267 H259 0.930 . S
C267 C268 1.355 . S
C267 C269 1.411 1_545 S
C268 C267 1.355 . S
C268 C270 1.419 . S
C269 C264 1.425 1_565 S
C269 C266 1.414 . S
C269 C267 1.411 1_565 S
C270 H260 0.930 . S
C270 C268 1.419 . S
C270 C271 1.362 . S
C271 H261 0.930 . S
C271 C264 1.414 . S
C271 C270 1.362 . S
H272 C278 0.930 . S
H273 C281 0.930 . S
H274 C282 0.930 . S
H275 C283 0.930 . S
H276 C286 0.930 . S
H277 C287 0.930 . S
C278 H272 0.930 . S
C278 C279 1.355 . S
C278 C280 1.415 . S
C279 C278 1.355 . S
C279 C281 1.419 1_565 S
C280 C278 1.415 . S
C280 C285 1.425 1_565 S
C280 C287 1.409 . S
C281 H273 0.930 . S
C281 C279 1.419 1_545 S
C281 C282 1.362 . S
C282 H274 0.930 . S
C282 C281 1.362 . S
C282 C285 1.409 . S
C283 H275 0.930 . S
C283 C284 1.355 . S
C283 C285 1.415 . S
C284 C283 1.355 . S
C284 C286 1.419 1_545 S
C285 C280 1.425 1_545 S
C285 C282 1.409 . S
C285 C283 1.415 . S
C286 H276 0.930 . S
C286 C284 1.419 1_565 S
C286 C287 1.362 . S
C287 H277 0.930 . S
C287 C280 1.409 . S
C287 C286 1.362 . S
H288 C294 0.930 . S
H289 C297 0.930 . S
H290 C298 0.930 . S
H291 C299 0.930 . S
H292 C302 0.930 . S
H293 C303 0.930 . S
C294 H288 0.930 . S
C294 C295 1.355 . S
C294 C296 1.415 . S
C295 C294 1.355 . S
C295 C297 1.419 . S
C296 C294 1.415 . S
C296 C301 1.425 . S
C296 C303 1.409 . S
C297 H289 0.930 . S
C297 C295 1.419 . S
C297 C298 1.362 . S
C298 H290 0.930 . S
C298 C297 1.362 . S
C298 C301 1.409 . S
C299 H291 0.930 . S
C299 C300 1.355 . S
C299 C301 1.415 . S
C300 C299 1.355 . S
C300 C302 1.419 . S
C301 C296 1.425 . S
C301 C298 1.409 . S
C301 C299 1.415 . S
C302 H292 0.930 . S
C302 C300 1.419 . S
C302 C303 1.362 . S
C303 H293 0.930 . S
C303 C296 1.409 . S
C303 C302 1.362 . S
H304 C310 0.930 . S
H305 C313 0.930 . S
H306 C314 0.930 . S
H307 C315 0.930 . S
H308 C318 0.930 . S
H309 C319 0.930 . S
C310 H304 0.930 . S
C310 C311 1.355 . S
C310 C312 1.415 . S
C311 C310 1.355 . S
C311 C313 1.419 . S
C312 C310 1.415 . S
C312 C317 1.425 . S
C312 C319 1.409 . S
C313 H305 0.930 . S
C313 C311 1.419 . S
C313 C314 1.362 . S
C314 H306 0.930 . S
C314 C313 1.362 . S
C314 C317 1.409 . S
C315 H307 0.930 . S
C315 C316 1.355 . S
C315 C317 1.415 . S
C316 C315 1.355 . S
C316 C318 1.419 . S
C317 C312 1.425 . S
C317 C314 1.409 . S
C317 C315 1.415 . S
C318 H308 0.930 . S
C318 C316 1.419 . S
C318 C319 1.362 . S
C319 H309 0.930 . S
C319 C312 1.409 . S
C319 C318 1.362 . S
H320 C326 0.930 . S
H321 C329 0.930 . S
H322 C330 0.930 . S
H323 C331 0.930 . S
H324 C334 0.930 . S
H325 C335 0.930 . S
C326 H320 0.930 . S
C326 C327 1.355 . S
C326 C328 1.415 . S
C327 C326 1.355 . S
C327 C329 1.419 . S
C328 C326 1.415 . S
C328 C333 1.425 . S
C328 C335 1.409 . S
C329 H321 0.930 . S
C329 C327 1.419 . S
C329 C330 1.362 . S
C330 H322 0.930 . S
C330 C329 1.362 . S
C330 C333 1.409 . S
C331 H323 0.930 . S
C331 C332 1.355 . S
C331 C333 1.415 . S
C332 C331 1.355 . S
C332 C334 1.419 . S
C333 C328 1.425 . S
C333 C330 1.409 . S
C333 C331 1.415 . S
C334 H324 0.930 . S
C334 C332 1.419 . S
C334 C335 1.362 . S
C335 H325 0.930 . S
C335 C328 1.409 . S
C335 C334 1.362 . S
H336 C342 0.930 . S
H337 C345 0.930 . S
H338 C346 0.930 . S
H339 C347 0.930 . S
H340 C350 0.930 . S
H341 C351 0.930 . S
C342 H336 0.930 . S
C342 C343 1.355 . S
C342 C344 1.415 . S
C343 C342 1.355 . S
C343 C345 1.419 . S
C344 C342 1.415 . S
C344 C349 1.425 . S
C344 C351 1.409 . S
C345 H337 0.930 . S
C345 C343 1.419 . S
C345 C346 1.362 . S
C346 H338 0.930 . S
C346 C345 1.362 . S
C346 C349 1.409 . S
C347 H339 0.930 . S
C347 C348 1.355 . S
C347 C349 1.415 . S
C348 C347 1.355 . S
C348 C350 1.419 . S
C349 C344 1.425 . S
C349 C346 1.409 . S
C349 C347 1.415 . S
C350 H340 0.930 . S
C350 C348 1.419 . S
C350 C351 1.362 . S
C351 H341 0.930 . S
C351 C344 1.409 . S
C351 C350 1.362 . S
H352 C358 0.930 . S
H353 C361 0.930 . S
H354 C362 0.930 . S
H355 C363 0.930 . S
H356 C366 0.930 . S
H357 C367 0.930 . S
C358 H352 0.930 . S
C358 C359 1.355 . S
C358 C360 1.415 . S
C359 C358 1.355 . S
C359 C361 1.419 1_655 S
C360 C358 1.415 . S
C360 C365 1.425 1_655 S
C360 C367 1.409 . S
C361 H353 0.930 . S
C361 C359 1.419 1_455 S
C361 C362 1.362 . S
C362 H354 0.930 . S
C362 C361 1.362 . S
C362 C365 1.409 . S
C363 H355 0.930 . S
C363 C364 1.355 . S
C363 C365 1.415 . S
C364 C363 1.355 . S
C364 C366 1.419 1_455 S
C365 C360 1.425 1_455 S
C365 C362 1.409 . S
C365 C363 1.415 . S
C366 H356 0.930 . S
C366 C364 1.419 1_655 S
C366 C367 1.362 . S
C367 H357 0.930 . S
C367 C360 1.409 . S
C367 C366 1.362 . S
H368 C374 0.930 . S
H369 C377 0.930 . S
H370 C378 0.930 . S
H371 C379 0.930 . S
H372 C382 0.930 . S
H373 C383 0.930 1_545 S
C374 H368 0.930 . S
C374 C375 1.355 . S
C374 C376 1.415 . S
C375 C374 1.355 . S
C375 C377 1.419 . S
C376 C374 1.415 . S
C376 C381 1.425 . S
C376 C383 1.409 . S
C377 H369 0.930 . S
C377 C375 1.419 . S
C377 C378 1.362 . S
C378 H370 0.930 . S
C378 C377 1.362 . S
C378 C381 1.409 . S
C379 H371 0.930 . S
C379 C380 1.355 . S
C379 C381 1.415 . S
C380 C379 1.355 . S
C380 C382 1.419 . S
C381 C376 1.425 . S
C381 C378 1.409 . S
C381 C379 1.415 . S
C382 H372 0.930 . S
C382 C380 1.419 . S
C382 C383 1.362 . S
C383 H373 0.930 1_565 S
C383 C376 1.409 . S
C383 C382 1.362 . S
H384 C390 0.930 . S
H385 C393 0.930 . S
H386 C394 0.930 . S
H387 C395 0.930 . S
H388 C398 0.930 . S
H389 C399 0.930 . S
C390 H384 0.930 . S
C390 C391 1.355 1_655 S
C390 C392 1.415 . S
C391 C390 1.355 1_455 S
C391 C393 1.419 . S
C392 C390 1.415 . S
C392 C397 1.425 1_655 S
C392 C399 1.409 . S
C393 H385 0.930 . S
C393 C391 1.419 . S
C393 C394 1.362 . S
C394 H386 0.930 . S
C394 C393 1.362 . S
C394 C397 1.409 . S
C395 H387 0.930 . S
C395 C396 1.355 1_455 S
C395 C397 1.415 . S
C396 C395 1.355 1_655 S
C396 C398 1.419 . S
C397 C392 1.425 1_455 S
C397 C394 1.409 . S
C397 C395 1.415 . S
C398 H388 0.930 . S
C398 C396 1.419 . S
C398 C399 1.362 . S
C399 H389 0.930 . S
C399 C392 1.409 . S
C399 C398 1.362 . S
H400 C406 0.930 . S
H401 C409 0.930 . S
H402 C410 0.930 . S
H403 C411 0.930 . S
H404 C414 0.930 . S
H405 C415 0.930 . S
C406 H400 0.930 . S
C406 C407 1.355 . S
C406 C408 1.415 . S
C407 C406 1.355 . S
C407 C409 1.419 . S
C408 C406 1.415 . S
C408 C413 1.425 . S
C408 C415 1.409 . S
C409 H401 0.930 . S
C409 C407 1.419 . S
C409 C410 1.362 . S
C410 H402 0.930 . S
C410 C409 1.362 . S
C410 C413 1.409 . S
C411 H403 0.930 . S
C411 C412 1.355 . S
C411 C413 1.415 . S
C412 C411 1.355 . S
C412 C414 1.419 . S
C413 C408 1.425 . S
C413 C410 1.409 . S
C413 C411 1.415 . S
C414 H404 0.930 . S
C414 C412 1.419 . S
C414 C415 1.362 . S
C415 H405 0.930 . S
C415 C408 1.409 . S
C415 C414 1.362 . S
H416 C422 0.930 . S
H417 C425 0.930 . S
H418 C426 0.930 . S
H419 C427 0.930 . S
H420 C430 0.930 . S
H421 C431 0.930 . S
C422 H416 0.930 . S
C422 C423 1.355 . S
C422 C424 1.415 . S
C423 C422 1.355 . S
C423 C425 1.419 . S
C424 C422 1.415 . S
C424 C429 1.425 . S
C424 C431 1.409 . S
C425 H417 0.930 . S
C425 C423 1.419 . S
C425 C426 1.362 . S
C426 H418 0.930 . S
C426 C425 1.362 . S
C426 C429 1.409 . S
C427 H419 0.930 . S
C427 C428 1.355 . S
C427 C429 1.415 . S
C428 C427 1.355 . S
C428 C430 1.419 . S
C429 C424 1.425 . S
C429 C426 1.409 . S
C429 C427 1.415 . S
C430 H420 0.930 . S
C430 C428 1.419 . S
C430 C431 1.362 . S
C431 H421 0.930 . S
C431 C424 1.409 . S
C431 C430 1.362 . S
H432 C438 0.930 . S
H433 C441 0.930 . S
H434 C442 0.930 . S
H435 C443 0.930 . S
H436 C446 0.930 . S
H437 C447 0.930 . S
C438 H432 0.930 . S
C438 C439 1.355 . S
C438 C440 1.415 . S
C439 C438 1.355 . S
C439 C441 1.419 1_455 S
C440 C438 1.415 . S
C440 C445 1.425 1_455 S
C440 C447 1.409 . S
C441 H433 0.930 . S
C441 C439 1.419 1_655 S
C441 C442 1.362 . S
C442 H434 0.930 . S
C442 C441 1.362 . S
C442 C445 1.409 . S
C443 H435 0.930 . S
C443 C444 1.355 . S
C443 C445 1.415 . S
C444 C443 1.355 . S
C444 C446 1.419 1_655 S
C445 C440 1.425 1_655 S
C445 C442 1.409 . S
C445 C443 1.415 . S
C446 H436 0.930 . S
C446 C444 1.419 1_455 S
C446 C447 1.362 . S
C447 H437 0.930 . S
C447 C440 1.409 . S
C447 C446 1.362 . S
H448 C454 0.930 . S
H449 C457 0.930 . S
H450 C458 0.930 . S
H451 C459 0.930 . S
H452 C462 0.930 . S
H453 C463 0.930 . S
C454 H448 0.930 . S
C454 C455 1.355 . S
C454 C456 1.415 . S
C455 C454 1.355 . S
C455 C457 1.419 . S
C456 C454 1.415 . S
C456 C461 1.425 . S
C456 C463 1.409 . S
C457 H449 0.930 . S
C457 C455 1.419 . S
C457 C458 1.362 . S
C458 H450 0.930 . S
C458 C457 1.362 . S
C458 C461 1.409 . S
C459 H451 0.930 . S
C459 C460 1.355 . S
C459 C461 1.415 . S
C460 C459 1.355 . S
C460 C462 1.419 . S
C461 C456 1.425 . S
C461 C458 1.409 . S
C461 C459 1.415 . S
C462 H452 0.930 . S
C462 C460 1.419 . S
C462 C463 1.362 . S
C463 H453 0.930 . S
C463 C456 1.409 . S
C463 C462 1.362 . S
H464 C470 0.930 . S
H465 C473 0.930 . S
H466 C474 0.930 . S
H467 C475 0.930 . S
H468 C478 0.930 . S
H469 C479 0.930 . S
C470 H464 0.930 . S
C470 C471 1.355 . S
C470 C472 1.415 . S
C471 C470 1.355 . S
C471 C473 1.419 1_455 S
C472 C470 1.415 . S
C472 C477 1.425 1_455 S
C472 C479 1.409 . S
C473 H465 0.930 . S
C473 C471 1.419 1_655 S
C473 C474 1.362 . S
C474 H466 0.930 . S
C474 C473 1.362 . S
C474 C477 1.409 . S
C475 H467 0.930 . S
C475 C476 1.355 . S
C475 C477 1.415 . S
C476 C475 1.355 . S
C476 C478 1.419 1_655 S
C477 C472 1.425 1_655 S
C477 C474 1.409 . S
C477 C475 1.415 . S
C478 H468 0.930 . S
C478 C476 1.419 1_455 S
C478 C479 1.362 . S
C479 H469 0.930 . S
C479 C472 1.409 . S
C479 C478 1.362 . S
H480 C486 0.930 . S
H481 C489 0.930 . S
H482 C490 0.930 . S
H483 C491 0.930 . S
H484 C494 0.930 . S
H485 C495 0.930 . S
C486 H480 0.930 . S
C486 C487 1.355 . S
C486 C488 1.415 . S
C487 C486 1.355 . S
C487 C489 1.419 1_455 S
C488 C486 1.415 . S
C488 C493 1.425 1_455 S
C488 C495 1.409 . S
C489 H481 0.930 . S
C489 C487 1.419 1_655 S
C489 C490 1.362 . S
C490 H482 0.930 . S
C490 C489 1.362 . S
C490 C493 1.409 . S
C491 H483 0.930 . S
C491 C492 1.355 . S
C491 C493 1.415 . S
C492 C491 1.355 . S
C492 C494 1.419 1_655 S
C493 C488 1.425 1_655 S
C493 C490 1.409 . S
C493 C491 1.415 . S
C494 H484 0.930 . S
C494 C492 1.419 1_455 S
C494 C495 1.362 . S
C495 H485 0.930 . S
C495 C488 1.409 . S
C495 C494 1.362 . S
H496 C502 0.930 . S
H497 C505 0.930 . S
H498 C506 0.930 . S
H499 C507 0.930 . S
H500 C510 0.930 . S
H501 C511 0.930 . S
C502 H496 0.930 . S
C502 C503 1.355 . S
C502 C504 1.415 . S
C503 C502 1.355 . S
C503 C505 1.419 . S
C504 C502 1.415 . S
C504 C509 1.425 . S
C504 C511 1.409 . S
C505 H497 0.930 . S
C505 C503 1.419 . S
C505 C506 1.362 . S
C506 H498 0.930 . S
C506 C505 1.362 . S
C506 C509 1.409 . S
C507 H499 0.930 . S
C507 C508 1.355 . S
C507 C509 1.415 . S
C508 C507 1.355 . S
C508 C510 1.419 . S
C509 C504 1.425 . S
C509 C506 1.409 . S
C509 C507 1.415 . S
C510 H500 0.930 . S
C510 C508 1.419 . S
C510 C511 1.362 . S
C511 H501 0.930 . S
C511 C504 1.409 . S
C511 C510 1.362 . S
H512 C518 0.930 . S
H513 C521 0.930 . S
H514 C522 0.930 . S
H515 C523 0.930 . S
H516 C526 0.930 . S
H517 C527 0.930 . S
C518 H512 0.930 . S
C518 C519 1.355 . S
C518 C520 1.415 . S
C519 C518 1.355 . S
C519 C521 1.419 . S
C520 C518 1.415 . S
C520 C525 1.425 . S
C520 C527 1.409 . S
C521 H513 0.930 . S
C521 C519 1.419 . S
C521 C522 1.362 . S
C522 H514 0.930 . S
C522 C521 1.362 . S
C522 C525 1.409 . S
C523 H515 0.930 . S
C523 C524 1.355 . S
C523 C525 1.415 . S
C524 C523 1.355 . S
C524 C526 1.419 . S
C525 C520 1.425 . S
C525 C522 1.409 . S
C525 C523 1.415 . S
C526 H516 0.930 . S
C526 C524 1.419 . S
C526 C527 1.362 . S
C527 H517 0.930 . S
C527 C520 1.409 . S
C527 C526 1.362 . S
H528 C534 0.930 . S
H529 C537 0.930 . S
H530 C538 0.930 . S
H531 C539 0.930 . S
H532 C542 0.930 . S
H533 C543 0.930 . S
C534 H528 0.930 . S
C534 C535 1.355 . S
C534 C536 1.415 . S
C535 C534 1.355 . S
C535 C537 1.419 1_455 S
C536 C534 1.415 . S
C536 C541 1.425 1_455 S
C536 C543 1.409 . S
C537 H529 0.930 . S
C537 C535 1.419 1_655 S
C537 C538 1.362 . S
C538 H530 0.930 . S
C538 C537 1.362 . S
C538 C541 1.409 . S
C539 H531 0.930 . S
C539 C540 1.355 . S
C539 C541 1.415 . S
C540 C539 1.355 . S
C540 C542 1.419 1_655 S
C541 C536 1.425 1_655 S
C541 C538 1.409 . S
C541 C539 1.415 . S
C542 H532 0.930 . S
C542 C540 1.419 1_455 S
C542 C543 1.362 . S
C543 H533 0.930 . S
C543 C536 1.409 . S
C543 C542 1.362 . S
H544 C550 0.930 . S
H545 C553 0.930 . S
H546 C554 0.930 . S
H547 C555 0.930 . S
H548 C558 0.930 . S
H549 C559 0.930 . S
C550 H544 0.930 . S
C550 C551 1.355 . S
C550 C552 1.415 . S
C551 C550 1.355 . S
C551 C553 1.419 1_455 S
C552 C550 1.415 . S
C552 C557 1.425 1_455 S
C552 C559 1.409 . S
C553 H545 0.930 . S
C553 C551 1.419 1_655 S
C553 C554 1.362 . S
C554 H546 0.930 . S
C554 C553 1.362 . S
C554 C557 1.409 . S
C555 H547 0.930 . S
C555 C556 1.355 . S
C555 C557 1.415 . S
C556 C555 1.355 . S
C556 C558 1.419 1_655 S
C557 C552 1.425 1_655 S
C557 C554 1.409 . S
C557 C555 1.415 . S
C558 H548 0.930 . S
C558 C556 1.419 1_455 S
C558 C559 1.362 . S
C559 H549 0.930 . S
C559 C552 1.409 . S
C559 C558 1.362 . S
H560 C566 0.930 . S
H561 C569 0.930 . S
H562 C570 0.930 . S
H563 C571 0.930 . S
H564 C574 0.930 . S
H565 C575 0.930 . S
C566 H560 0.930 . S
C566 C567 1.355 . S
C566 C568 1.415 . S
C567 C566 1.355 . S
C567 C569 1.419 . S
C568 C566 1.415 . S
C568 C573 1.425 . S
C568 C575 1.409 . S
C569 H561 0.930 . S
C569 C567 1.419 . S
C569 C570 1.362 . S
C570 H562 0.930 . S
C570 C569 1.362 . S
C570 C573 1.409 . S
C571 H563 0.930 . S
C571 C572 1.355 . S
C571 C573 1.415 . S
C572 C571 1.355 . S
C572 C574 1.419 . S
C573 C568 1.425 . S
C573 C570 1.409 . S
C573 C571 1.415 . S
C574 H564 0.930 . S
C574 C572 1.419 . S
C574 C575 1.362 . S
C575 H565 0.930 . S
C575 C568 1.409 . S
C575 C574 1.362 . S
H576 C582 0.930 . S
H577 C585 0.930 . S
H578 C586 0.930 . S
H579 C587 0.930 . S
H580 C590 0.930 . S
H581 C591 0.930 . S
C582 H576 0.930 . S
C582 C583 1.355 . S
C582 C584 1.415 . S
C583 C582 1.355 . S
C583 C585 1.419 . S
C584 C582 1.415 . S
C584 C589 1.425 . S
C584 C591 1.409 . S
C585 H577 0.930 . S
C585 C583 1.419 . S
C585 C586 1.362 . S
C586 H578 0.930 . S
C586 C585 1.362 . S
C586 C589 1.409 . S
C587 H579 0.930 . S
C587 C588 1.355 . S
C587 C589 1.415 . S
C588 C587 1.355 . S
C588 C590 1.419 . S
C589 C584 1.425 . S
C589 C586 1.409 . S
C589 C587 1.415 . S
C590 H580 0.930 . S
C590 C588 1.419 . S
C590 C591 1.362 . S
C591 H581 0.930 . S
C591 C584 1.409 . S
C591 C590 1.362 . S
H592 C598 0.930 . S
H593 C601 0.930 . S
H594 C602 0.930 . S
H595 C603 0.930 . S
H596 C606 0.930 . S
H597 C607 0.930 . S
C598 H592 0.930 . S
C598 C599 1.355 1_655 S
C598 C600 1.415 . S
C599 C598 1.355 1_455 S
C599 C601 1.419 . S
C600 C598 1.415 . S
C600 C605 1.425 1_655 S
C600 C607 1.409 . S
C601 H593 0.930 . S
C601 C599 1.419 . S
C601 C602 1.362 . S
C602 H594 0.930 . S
C602 C601 1.362 . S
C602 C605 1.409 . S
C603 H595 0.930 . S
C603 C604 1.355 1_455 S
C603 C605 1.415 . S
C604 C603 1.355 1_655 S
C604 C606 1.419 . S
C605 C600 1.425 1_455 S
C605 C602 1.409 . S
C605 C603 1.415 . S
C606 H596 0.930 . S
C606 C604 1.419 . S
C606 C607 1.362 . S
C607 H597 0.930 . S
C607 C600 1.409 . S
C607 C606 1.362 . S
H608 C614 0.930 . S
H609 C617 0.930 . S
H610 C618 0.930 . S
H611 C619 0.930 . S
H612 C622 0.930 . S
H613 C623 0.930 . S
C614 H608 0.930 . S
C614 C615 1.355 1_455 S
C614 C616 1.415 1_565 S
C615 C614 1.355 1_655 S
C615 C617 1.419 . S
C616 C614 1.415 1_545 S
C616 C621 1.425 1_446 S
C616 C623 1.409 . S
C617 H609 0.930 . S
C617 C615 1.419 . S
C617 C618 1.362 1_556 S
C618 H610 0.930 . S
C618 C617 1.362 1_554 S
C618 C621 1.409 . S
C619 H611 0.930 . S
C619 C620 1.355 1_655 S
C619 C621 1.415 1_545 S
C620 C619 1.355 1_455 S
C620 C622 1.419 . S
C621 C616 1.425 1_664 S
C621 C618 1.409 . S
C621 C619 1.415 1_565 S
C622 H612 0.930 . S
C622 C620 1.419 . S
C622 C623 1.362 1_554 S
C623 H613 0.930 . S
C623 C616 1.409 . S
C623 C622 1.362 1_556 S
H624 C630 0.930 . S
H625 C633 0.930 . S
H626 C634 0.930 . S
H627 C635 0.930 . S
H628 C638 0.930 . S
H629 C639 0.930 . S
C630 H624 0.930 . S
C630 C631 1.355 . S
C630 C632 1.415 . S
C631 C630 1.355 . S
C631 C633 1.419 1_545 S
C632 C630 1.415 . S
C632 C637 1.425 1_546 S
C632 C639 1.409 1_556 S
C633 H625 0.930 . S
C633 C631 1.419 1_565 S
C633 C634 1.362 . S
C634 H626 0.930 . S
C634 C633 1.362 . S
C634 C637 1.409 1_556 S
C635 H627 0.930 . S
C635 C636 1.355 . S
C635 C637 1.415 . S
C636 C635 1.355 . S
C636 C638 1.419 1_565 S
C637 C632 1.425 1_564 S
C637 C634 1.409 1_554 S
C637 C635 1.415 . S
C638 H628 0.930 . S
C638 C636 1.419 1_545 S
C638 C639 1.362 . S
C639 H629 0.930 . S
C639 C632 1.409 1_554 S
C639 C638 1.362 . S
H640 C646 0.930 . S
H641 C649 0.930 . S
H642 C650 0.928 1_565 S
H643 C651 0.930 . S
H644 C654 0.930 . S
H645 C655 0.928 1_545 S
C646 H640 0.930 . S
C646 C647 1.355 . S
C646 C648 1.415 . S
C647 C646 1.355 . S
C647 C649 1.419 . S
C648 C646 1.415 . S
C648 C653 1.425 1_545 S
C648 C655 1.409 1_545 S
C649 H641 0.930 . S
C649 C647 1.419 . S
C649 C650 1.362 . S
C650 H642 0.928 1_545 S
C650 C649 1.362 . S
C650 C653 1.409 1_545 S
C651 H643 0.930 . S
C651 C652 1.355 . S
C651 C653 1.415 . S
C652 C651 1.355 . S
C652 C654 1.419 . S
C653 C648 1.425 1_565 S
C653 C650 1.409 1_565 S
C653 C651 1.415 . S
C654 H644 0.930 . S
C654 C652 1.419 . S
C654 C655 1.362 . S
C655 H645 0.928 1_565 S
C655 C648 1.409 1_565 S
C655 C654 1.362 . S
H656 C662 0.930 . S
H657 C665 0.930 . S
H658 C666 0.930 1_545 S
H659 C667 0.930 . S
H660 C670 0.930 . S
H661 C671 0.930 1_565 S
C662 H656 0.930 . S
C662 C663 1.355 . S
C662 C664 1.415 . S
C663 C662 1.355 . S
C663 C665 1.419 1_455 S
C664 C662 1.415 . S
C664 C669 1.425 1_465 S
C664 C671 1.409 1_565 S
C665 H657 0.930 . S
C665 C663 1.419 1_655 S
C665 C666 1.362 . S
C666 H658 0.930 1_565 S
C666 C665 1.362 . S
C666 C669 1.409 1_565 S
C667 H659 0.930 . S
C667 C668 1.355 . S
C667 C669 1.415 . S
C668 C667 1.355 . S
C668 C670 1.419 1_655 S
C669 C664 1.425 1_645 S
C669 C666 1.409 1_545 S
C669 C667 1.415 . S
C670 H660 0.930 . S
C670 C668 1.419 1_455 S
C670 C671 1.362 . S
C671 H661 0.930 1_545 S
C671 C664 1.409 1_545 S
C671 C670 1.362 . S
H672 C678 0.930 . S
H673 C681 0.930 . S
H674 C682 0.930 . S
H675 C683 0.930 . S
H676 C686 0.930 . S
H677 C687 0.930 . S
C678 H672 0.930 . S
C678 C679 1.355 . S
C678 C680 1.415 . S
C679 C678 1.355 . S
C679 C681 1.419 . S
C680 C678 1.415 . S
C680 C685 1.425 1_554 S
C680 C687 1.409 . S
C681 H673 0.930 . S
C681 C679 1.419 . S
C681 C682 1.362 1_554 S
C682 H674 0.930 . S
C682 C681 1.362 1_556 S
C682 C685 1.409 . S
C683 H675 0.930 . S
C683 C684 1.355 . S
C683 C685 1.415 . S
C684 C683 1.355 . S
C684 C686 1.419 . S
C685 C680 1.425 1_556 S
C685 C682 1.409 . S
C685 C683 1.415 . S
C686 H676 0.930 . S
C686 C684 1.419 . S
C686 C687 1.362 1_556 S
C687 H677 0.930 . S
C687 C680 1.409 . S
C687 C686 1.362 1_554 S
H688 C694 0.930 . S
H689 C697 0.930 . S
H690 C698 0.909 1_556 S
H691 C699 0.930 . S
H692 C702 0.930 . S
H693 C703 0.909 1_554 S
C694 H688 0.930 . S
C694 C695 1.355 1_455 S
C694 C696 1.415 . S
C695 C694 1.355 1_655 S
C695 C697 1.419 . S
C696 C694 1.415 . S
C696 C701 1.425 1_454 S
C696 C703 1.397 1_554 S
C697 H689 0.930 . S
C697 C695 1.419 . S
C697 C698 1.396 . S
C698 H690 0.909 1_554 S
C698 C697 1.396 . S
C698 C701 1.397 1_554 S
C699 H691 0.930 . S
C699 C700 1.355 1_655 S
C699 C701 1.415 . S
C700 C699 1.355 1_455 S
C700 C702 1.419 . S
C701 C696 1.425 1_656 S
C701 C698 1.397 1_556 S
C701 C699 1.415 . S
C702 H692 0.930 . S
C702 C700 1.419 . S
C702 C703 1.397 . S
C703 H693 0.909 1_556 S
C703 C696 1.397 1_556 S
C703 C702 1.397 . S
H704 C710 0.930 . S
H705 C713 0.930 . S
H706 C714 0.930 . S
H707 C715 0.930 . S
H708 C718 0.930 . S
H709 C719 0.930 . S
C710 H704 0.930 . S
C710 C711 1.355 . S
C710 C712 1.427 . S
C711 C710 1.355 . S
C711 C713 1.419 . S
C712 C710 1.427 . S
C712 C717 1.424 1_655 S
C712 C719 1.398 1_655 S
C713 H705 0.930 . S
C713 C711 1.419 . S
C713 C714 1.362 . S
C714 H706 0.930 . S
C714 C713 1.362 . S
C714 C717 1.398 1_655 S
C715 H707 0.930 . S
C715 C716 1.355 . S
C715 C717 1.427 . S
C716 C715 1.355 . S
C716 C718 1.419 . S
C717 C712 1.424 1_455 S
C717 C714 1.398 1_455 S
C717 C715 1.427 . S
C718 H708 0.930 . S
C718 C716 1.419 . S
C718 C719 1.362 . S
C719 H709 0.930 . S
C719 C712 1.398 1_455 S
C719 C718 1.362 . S
H720 C726 0.930 . S
H721 C729 0.930 . S
H722 C730 0.930 . S
H723 C731 0.930 . S
H724 C734 0.930 . S
H725 C735 0.930 . S
C726 H720 0.930 . S
C726 C727 1.355 . S
C726 C728 1.415 . S
C727 C726 1.355 . S
C727 C729 1.419 . S
C728 C726 1.415 . S
C728 C733 1.425 . S
C728 C735 1.409 . S
C729 H721 0.930 . S
C729 C727 1.419 . S
C729 C730 1.362 . S
C730 H722 0.930 . S
C730 C729 1.362 . S
C730 C733 1.409 . S
C731 H723 0.930 . S
C731 C732 1.355 . S
C731 C733 1.415 . S
C732 C731 1.355 . S
C732 C734 1.419 . S
C733 C728 1.425 . S
C733 C730 1.409 . S
C733 C731 1.415 . S
C734 H724 0.930 . S
C734 C732 1.419 . S
C734 C735 1.362 . S
C735 H725 0.930 . S
C735 C728 1.409 . S
C735 C734 1.362 . S
C231 C21 1.516 . S
C236 C7 1.534 . S
C247 C35 1.504 . S
C252 C49 1.489 . S
C263 C62 1.512 . S
C268 C76 1.495 . S
C279 C104 1.545 . S
C284 C90 1.531 . S
C295 C133 1.496 . S
C300 C119 1.485 . S
C311 C161 1.488 . S
C316 C147 1.484 . S
C327 C188 1.521 . S
C332 C174 1.538 . S
C343 C216 1.493 . S
C348 C202 1.485 . S
C359 C48 1.483 . S
C364 C6 1.482 . S
C375 C20 1.488 . S
C380 C34 1.486 . S
C391 C105 1.531 . S
C396 C63 1.531 . S
C407 C91 1.494 . S
C412 C77 1.491 . S
C423 C118 1.518 . S
C428 C160 1.515 . S
C439 C146 1.484 . S
C444 C132 1.483 . S
C455 C217 1.506 . S
C460 C175 1.509 . S
C471 C189 1.494 . S
C476 C203 1.491 . S
C487 C8 1.444 . S
C492 C134 1.464 . S
C503 C22 1.485 . S
C508 C120 1.439 . S
C519 C162 1.470 . S
C524 C36 1.440 . S
C535 C148 1.442 . S
C540 C50 1.466 . S
C551 C191 1.445 . S
C556 C65 1.461 . S
C567 C177 1.446 . S
C572 C79 1.489 . S
C583 C93 1.459 . S
C588 C219 1.447 . S
C599 C107 1.472 . S
C604 C205 1.478 . S
C615 C64 1.555 . S
C620 C9 1.555 . S
C631 C78 1.552 . S
C636 C23 1.552 . S
C647 C92 1.551 . S
C652 C37 1.551 . S
C663 C106 1.579 . S
C668 C51 1.579 . S
C679 C121 1.551 . S
C684 C176 1.551 . S
C695 C135 1.553 . S
C700 C190 1.553 . S
C711 C204 1.561 . S
C716 C149 1.561 . S
C727 C218 1.581 . S
C732 C163 1.581 . S
