# Generated by pormake.
# Topology wjo, (5)-cn, num edge types: 1
# Building blocks:
#     Node 0, Type 0, BuildingBlock: XOMCOT_clean_sbu_1, # of connection points: 5
#     Node 1, Type 0, BuildingBlock: XOMCOT_clean_sbu_1, # of connection points: 5
#     Node 2, Type 0, BuildingBlock: XOMCOT_clean_sbu_1, # of connection points: 5
#     Node 3, Type 0, BuildingBlock: XOMCOT_clean_sbu_1, # of connection points: 5
#     Node 4, Type 0, BuildingBlock: XOMCOT_clean_sbu_1, # of connection points: 5
#     Node 5, Type 0, BuildingBlock: XOMCOT_clean_sbu_1, # of connection points: 5
#     Node 6, Type 0, BuildingBlock: XOMCOT_clean_sbu_1, # of connection points: 5
#     Node 7, Type 0, BuildingBlock: XOMCOT_clean_sbu_1, # of connection points: 5
#     Node 8, Type 0, BuildingBlock: XOMCOT_clean_sbu_1, # of connection points: 5
#     Node 9, Type 0, BuildingBlock: XOMCOT_clean_sbu_1, # of connection points: 5
#     Node 10, Type 0, BuildingBlock: XOMCOT_clean_sbu_1, # of connection points: 5
#     Node 11, Type 0, BuildingBlock: XOMCOT_clean_sbu_1, # of connection points: 5
#     Edge 12, Type (0, 0), BuildingBlock: XUDNAN_clean_linker_2, # of connection points: 2
#     Edge 13, Type (0, 0), BuildingBlock: XUDNAN_clean_linker_2, # of connection points: 2
#     Edge 14, Type (0, 0), BuildingBlock: XUDNAN_clean_linker_2, # of connection points: 2
#     Edge 15, Type (0, 0), BuildingBlock: XUDNAN_clean_linker_2, # of connection points: 2
#     Edge 16, Type (0, 0), BuildingBlock: XUDNAN_clean_linker_2, # of connection points: 2
#     Edge 17, Type (0, 0), BuildingBlock: XUDNAN_clean_linker_2, # of connection points: 2
#     Edge 18, Type (0, 0), BuildingBlock: XUDNAN_clean_linker_2, # of connection points: 2
#     Edge 19, Type (0, 0), BuildingBlock: XUDNAN_clean_linker_2, # of connection points: 2
#     Edge 20, Type (0, 0), BuildingBlock: XUDNAN_clean_linker_2, # of connection points: 2
#     Edge 21, Type (0, 0), BuildingBlock: XUDNAN_clean_linker_2, # of connection points: 2
#     Edge 22, Type (0, 0), BuildingBlock: XUDNAN_clean_linker_2, # of connection points: 2
#     Edge 23, Type (0, 0), BuildingBlock: XUDNAN_clean_linker_2, # of connection points: 2
#     Edge 24, Type (0, 0), BuildingBlock: XUDNAN_clean_linker_2, # of connection points: 2
#     Edge 25, Type (0, 0), BuildingBlock: XUDNAN_clean_linker_2, # of connection points: 2
#     Edge 26, Type (0, 0), BuildingBlock: XUDNAN_clean_linker_2, # of connection points: 2
#     Edge 27, Type (0, 0), BuildingBlock: XUDNAN_clean_linker_2, # of connection points: 2
#     Edge 28, Type (0, 0), BuildingBlock: XUDNAN_clean_linker_2, # of connection points: 2
#     Edge 29, Type (0, 0), BuildingBlock: XUDNAN_clean_linker_2, # of connection points: 2
#     Edge 30, Type (0, 0), BuildingBlock: XUDNAN_clean_linker_2, # of connection points: 2
#     Edge 31, Type (0, 0), BuildingBlock: XUDNAN_clean_linker_2, # of connection points: 2
#     Edge 32, Type (0, 0), BuildingBlock: XUDNAN_clean_linker_2, # of connection points: 2
#     Edge 33, Type (0, 0), BuildingBlock: XUDNAN_clean_linker_2, # of connection points: 2
#     Edge 34, Type (0, 0), BuildingBlock: XUDNAN_clean_linker_2, # of connection points: 2
#     Edge 35, Type (0, 0), BuildingBlock: XUDNAN_clean_linker_2, # of connection points: 2
#     Edge 36, Type (0, 0), BuildingBlock: XUDNAN_clean_linker_2, # of connection points: 2
#     Edge 37, Type (0, 0), BuildingBlock: XUDNAN_clean_linker_2, # of connection points: 2
#     Edge 38, Type (0, 0), BuildingBlock: XUDNAN_clean_linker_2, # of connection points: 2
#     Edge 39, Type (0, 0), BuildingBlock: XUDNAN_clean_linker_2, # of connection points: 2
#     Edge 40, Type (0, 0), BuildingBlock: XUDNAN_clean_linker_2, # of connection points: 2
#     Edge 41, Type (0, 0), BuildingBlock: XUDNAN_clean_linker_2, # of connection points: 2
# Relax obj value: 0.387
# Max RMSD: 0.204
# Mean RMSD: 0.201
data_MOF--net-wjo--node1-XOMCOT_clean_sbu_1--edge1-XUDNAN_clean_linker_2
_symmetry_space_group_name_H-M    P1
_symmetry_Int_Tables_number       1
_symmetry_cell_setting            triclinic
loop_
_symmetry_equiv_pos_as_xyz
'x, y, z'
_cell_length_a     47.53385
_cell_length_b     47.387783
_cell_length_c     28.363208
_cell_angle_alpha  89.947408
_cell_angle_beta   90.080431
_cell_angle_gamma 120.13813
loop_
_atom_site_label
_atom_site_type_symbol
_atom_site_fract_x
_atom_site_fract_y
_atom_site_fract_z
_atom_type_partial_charge
C0 C 0.23694 0.34244 0.88143 0.0
C1 C 0.24069 0.3184 0.8603 0.0
N2 N 0.25013 0.30452 0.8935 0.0
N3 N 0.24419 0.34382 0.92759 0.0
C4 C 0.25198 0.32032 0.93401 0.0
H5 H 0.22999 0.35839 0.86417 0.0
Co6 Co 0.24476 0.37449 0.96842 0.0
C7 C 0.28052 0.37155 0.05347 0.0
O8 O 0.29681 0.4035 0.05766 0.0
N9 N 0.24415 0.40553 0.00898 0.0
C10 C 0.24468 0.44916 0.03899 0.0
C11 C 0.24993 0.4359 0.99925 0.0
C12 C 0.23404 0.4005 0.05435 0.0
N13 N 0.23483 0.42687 0.07377 0.0
O14 O 0.20146 0.34416 0.98788 0.0
H15 H 0.25663 0.44774 0.96538 0.0
H16 H 0.22659 0.3779 0.07296 0.0
O17 O 0.26038 0.35812 0.01957 0.0
C18 C 0.17781 0.34551 0.96928 0.0
O19 O 0.1838 0.36642 0.93494 0.0
N20 N 0.28722 0.4047 0.94707 0.0
C21 C 0.34702 0.45445 0.91465 0.0
C22 C 0.34544 0.4299 0.94385 0.0
C23 C 0.31511 0.40447 0.9583 0.0
C24 C 0.28833 0.42646 0.91456 0.0
C25 C 0.31807 0.45193 0.89837 0.0
H26 H 0.31438 0.38478 0.97827 0.0
H27 H 0.26592 0.42439 0.90182 0.0
H28 H 0.25996 0.31553 0.96727 0.0
H29 H 0.23688 0.31174 0.82338 0.0
H30 H 0.24737 0.47317 0.04169 0.0
H31 H 0.36743 0.43029 0.95509 0.0
H32 H 0.31845 0.46987 0.87427 0.0
C33 C 0.90089 0.24668 0.05092 0.0
C34 C 0.92961 0.25373 0.02953 0.0
N35 N 0.95023 0.25441 0.06284 0.0
N36 N 0.90325 0.24295 0.09753 0.0
C37 C 0.93343 0.2474 0.10378 0.0
H38 H 0.87967 0.24478 0.03376 0.0
Co39 Co 0.8701 0.23429 0.14017 0.0
C40 C 0.90426 0.27193 0.22355 0.0
O41 O 0.88275 0.28163 0.22457 0.0
N42 N 0.83522 0.223 0.18185 0.0
C43 C 0.78411 0.20031 0.20719 0.0
C44 C 0.80423 0.2125 0.1687 0.0
C45 C 0.83274 0.21455 0.22799 0.0
N46 N 0.80212 0.20163 0.24474 0.0
O47 O 0.86263 0.19091 0.14917 0.0
H48 H 0.79626 0.21158 0.13274 0.0
H49 H 0.85256 0.2157 0.2482 0.0
O50 O 0.90172 0.25103 0.1927 0.0
C51 C 0.84735 0.17055 0.11632 0.0
O52 O 0.84003 0.18087 0.07776 0.0
N53 N 0.87717 0.27775 0.1293 0.0
C54 C 0.88938 0.34218 0.12085 0.0
C55 C 0.91496 0.33567 0.12552 0.0
C56 C 0.90841 0.3036 0.12954 0.0
C57 C 0.85224 0.28349 0.12015 0.0
C58 C 0.85767 0.31538 0.1169 0.0
H59 H 0.92877 0.29981 0.13472 0.0
H60 H 0.82785 0.26367 0.11553 0.0
H61 H 0.94323 0.24665 0.1379 0.0
H62 H 0.9348 0.25806 0.99226 0.0
H63 H 0.75806 0.19037 0.20686 0.0
H64 H 0.94006 0.35519 0.12654 0.0
H65 H 0.83697 0.3188 0.11237 0.0
C66 C 0.65427 0.90071 0.19759 0.0
C67 C 0.67782 0.92254 0.16736 0.0
N68 N 0.70414 0.94312 0.19299 0.0
N69 N 0.66552 0.90767 0.24217 0.0
C70 C 0.69628 0.93294 0.23805 0.0
H71 H 0.62986 0.88209 0.18801 0.0
Co72 Co 0.64131 0.88854 0.29663 0.0
C73 C 0.68114 0.95929 0.33738 0.0
O74 O 0.68915 0.9789 0.3009 0.0
N75 N 0.61756 0.87008 0.35282 0.0
C76 C 0.59097 0.86642 0.41938 0.0
C77 C 0.59847 0.8796 0.37502 0.0
C78 C 0.62175 0.85157 0.38537 0.0
N79 N 0.60599 0.84917 0.42605 0.0
O80 O 0.67316 0.8773 0.31643 0.0
H81 H 0.59273 0.89754 0.36189 0.0
H82 H 0.63807 0.84211 0.38118 0.0
O83 O 0.6645 0.92844 0.33222 0.0
C84 C 0.67323 0.85293 0.29763 0.0
O85 O 0.65348 0.83807 0.26212 0.0
N86 N 0.60891 0.89787 0.27563 0.0
C87 C 0.55642 0.90782 0.25972 0.0
C88 C 0.58865 0.9338 0.25677 0.0
C89 C 0.61451 0.92826 0.2646 0.0
C90 C 0.57814 0.87172 0.27237 0.0
C91 C 0.55146 0.87618 0.26568 0.0
H92 H 0.63886 0.94842 0.26196 0.0
H93 H 0.57403 0.84742 0.27874 0.0
H94 H 0.7124 0.94427 0.26769 0.0
H95 H 0.67494 0.92439 0.12982 0.0
H96 H 0.5785 0.87208 0.44644 0.0
H97 H 0.59398 0.95841 0.24931 0.0
H98 H 0.52723 0.85513 0.26768 0.0
C99 C 0.77134 0.6745 0.38819 0.0
C100 C 0.76619 0.6978 0.36753 0.0
N101 N 0.75637 0.71106 0.40113 0.0
N102 N 0.76473 0.67289 0.43457 0.0
C103 C 0.75579 0.69557 0.44155 0.0
H104 H 0.77892 0.65923 0.37045 0.0
Co105 Co 0.76632 0.64258 0.47452 0.0
C106 C 0.73277 0.64505 0.56163 0.0
O107 O 0.71616 0.61305 0.56483 0.0
N108 N 0.76915 0.612 0.51418 0.0
C109 C 0.77237 0.56932 0.53977 0.0
C110 C 0.76646 0.58331 0.50146 0.0
C111 C 0.77838 0.61552 0.5601 0.0
N112 N 0.77957 0.58945 0.57698 0.0
O113 O 0.81036 0.67336 0.49045 0.0
H114 H 0.76172 0.57334 0.46634 0.0
H115 H 0.78409 0.63688 0.58082 0.0
O116 O 0.75243 0.65888 0.52742 0.0
C117 C 0.83284 0.67136 0.46912 0.0
O118 O 0.8248 0.64971 0.43528 0.0
N119 N 0.72306 0.61167 0.45616 0.0
C120 C 0.66231 0.5621 0.42554 0.0
C121 C 0.66475 0.58694 0.45488 0.0
C122 C 0.6955 0.61225 0.46842 0.0
C123 C 0.72101 0.58946 0.42376 0.0
C124 C 0.69086 0.5641 0.40852 0.0
H125 H 0.69685 0.63225 0.4883 0.0
H126 H 0.743 0.59152 0.40939 0.0
H127 H 0.74801 0.69999 0.47519 0.0
H128 H 0.76944 0.70448 0.33061 0.0
H129 H 0.77209 0.54635 0.53967 0.0
H130 H 0.64312 0.58705 0.46659 0.0
H131 H 0.68984 0.54611 0.38399 0.0
C132 C 0.10976 0.75894 0.53731 0.0
C133 C 0.08201 0.7545 0.51505 0.0
N134 N 0.06157 0.75441 0.54805 0.0
N135 N 0.10666 0.76129 0.58413 0.0
C136 C 0.07725 0.7588 0.58951 0.0
H137 H 0.13062 0.75982 0.52058 0.0
Co138 Co 0.13597 0.76533 0.63081 0.0
C139 C 0.09444 0.72511 0.70971 0.0
O140 O 0.11243 0.71147 0.71521 0.0
N141 N 0.16569 0.77029 0.6792 0.0
C142 C 0.20092 0.76854 0.72944 0.0
C143 C 0.18957 0.76284 0.68368 0.0
C144 C 0.16426 0.78179 0.72221 0.0
N145 N 0.1845 0.78001 0.75381 0.0
O146 O 0.14264 0.80736 0.64687 0.0
H147 H 0.19789 0.75288 0.65655 0.0
H148 H 0.14741 0.79006 0.73066 0.0
O149 O 0.10074 0.74578 0.67668 0.0
C150 C 0.16649 0.83166 0.62704 0.0
O151 O 0.18249 0.82615 0.59399 0.0
N152 N 0.13073 0.72476 0.61223 0.0
C153 C 0.13131 0.66904 0.58142 0.0
C154 C 0.10322 0.66657 0.60173 0.0
C155 C 0.10315 0.69488 0.61584 0.0
C156 C 0.15687 0.72777 0.58829 0.0
C157 C 0.15812 0.70034 0.57385 0.0
H158 H 0.08093 0.69266 0.62945 0.0
H159 H 0.1774 0.75181 0.58159 0.0
H160 H 0.06708 0.75926 0.62339 0.0
H161 H 0.07726 0.75149 0.47752 0.0
H162 H 0.2187 0.76308 0.74402 0.0
H163 H 0.08136 0.64307 0.60607 0.0
H164 H 0.18025 0.70378 0.55772 0.0
C165 C 0.34734 0.10771 0.71357 0.0
C166 C 0.32361 0.08048 0.69081 0.0
N167 N 0.3049 0.05838 0.72359 0.0
N168 N 0.3438 0.10278 0.76045 0.0
C169 C 0.31748 0.07268 0.76559 0.0
H170 H 0.36645 0.12953 0.69709 0.0
Co171 Co 0.37214 0.13271 0.80423 0.0
C172 C 0.36734 0.08892 0.88283 0.0
O173 O 0.39908 0.1015 0.88345 0.0
N174 N 0.40036 0.16458 0.84748 0.0
C175 C 0.43638 0.21373 0.87523 0.0
C176 C 0.42199 0.19568 0.83539 0.0
C177 C 0.40043 0.1651 0.89524 0.0
N178 N 0.42272 0.19435 0.91283 0.0
O179 O 0.34043 0.14421 0.82023 0.0
H180 H 0.42603 0.20516 0.79984 0.0
H181 H 0.38372 0.14507 0.91716 0.0
O182 O 0.35433 0.09957 0.85369 0.0
C183 C 0.33893 0.16691 0.79856 0.0
O184 O 0.35783 0.18061 0.76189 0.0
N185 N 0.40424 0.12146 0.78724 0.0
C186 C 0.45289 0.10655 0.76668 0.0
C187 C 0.42097 0.08166 0.77569 0.0
C188 C 0.39693 0.0896 0.78534 0.0
C189 C 0.43447 0.14555 0.77391 0.0
C190 C 0.45934 0.13877 0.76478 0.0
H191 H 0.3726 0.07003 0.79284 0.0
H192 H 0.43967 0.17023 0.76976 0.0
H193 H 0.30852 0.06091 0.79933 0.0
H194 H 0.32058 0.07715 0.65303 0.0
H195 H 0.45441 0.23944 0.87654 0.0
H196 H 0.41479 0.05633 0.77649 0.0
H197 H 0.48334 0.15856 0.75569 0.0
C198 C 0.65668 0.75663 0.96121 0.0
C199 C 0.67903 0.75025 0.98225 0.0
N200 N 0.70019 0.7521 0.94906 0.0
N201 N 0.66359 0.76229 0.91495 0.0
C202 C 0.69037 0.75968 0.90867 0.0
H203 H 0.63624 0.75644 0.97823 0.0
Co204 Co 0.6389 0.76949 0.87088 0.0
C205 C 0.64662 0.74109 0.7827 0.0
O206 O 0.61514 0.72748 0.77525 0.0
N207 N 0.6147 0.77812 0.82608 0.0
C208 C 0.57929 0.78405 0.78171 0.0
C209 C 0.58384 0.77232 0.82384 0.0
C210 C 0.62854 0.79471 0.78597 0.0
N211 N 0.60754 0.79795 0.75768 0.0
O212 O 0.67205 0.81451 0.86627 0.0
H213 H 0.56547 0.76049 0.85053 0.0
H214 H 0.6536 0.80312 0.77696 0.0
O215 O 0.65942 0.75855 0.81948 0.0
C216 C 0.67165 0.83345 0.89768 0.0
O217 O 0.65125 0.82073 0.93307 0.0
N218 N 0.60554 0.72523 0.87801 0.0
C219 C 0.55309 0.66168 0.88502 0.0
C220 C 0.58338 0.66748 0.86891 0.0
C221 C 0.60964 0.69937 0.86736 0.0
C222 C 0.57758 0.71964 0.89959 0.0
C223 C 0.55072 0.68804 0.90264 0.0
H224 H 0.63306 0.70315 0.8566 0.0
H225 H 0.57594 0.73986 0.91398 0.0
H226 H 0.70181 0.76209 0.87482 0.0
H227 H 0.67946 0.74444 0.01906 0.0
H228 H 0.5568 0.78223 0.76983 0.0
H229 H 0.58669 0.64754 0.8574 0.0
H230 H 0.5281 0.68444 0.9172 0.0
C231 C 0.89464 0.67063 0.11164 0.0
C232 C 0.91951 0.69175 0.14051 0.0
N233 N 0.94803 0.70015 0.11933 0.0
N234 N 0.90712 0.66561 0.0721 0.0
C235 C 0.93984 0.68419 0.0775 0.0
H236 H 0.86897 0.6589 0.11955 0.0
Co237 Co 0.8801 0.63578 0.02679 0.0
C238 C 0.92404 0.64019 0.95024 0.0
O239 O 0.9093 0.60817 0.94841 0.0
N240 N 0.85129 0.60571 0.98124 0.0
C241 C 0.80908 0.56315 0.94718 0.0
C242 C 0.82469 0.57622 0.98902 0.0
C243 C 0.85002 0.61062 0.93426 0.0
N244 N 0.82515 0.58469 0.91256 0.0
O245 O 0.86705 0.66596 0.00617 0.0
H246 H 0.81582 0.56504 0.02289 0.0
H247 H 0.86705 0.63284 0.91621 0.0
O248 O 0.91523 0.65422 0.98049 0.0
C249 C 0.83981 0.6609 0.02185 0.0
O250 O 0.82359 0.63649 0.05114 0.0
N251 N 0.89178 0.6053 0.04998 0.0
C252 C 0.90089 0.5547 0.08195 0.0
C253 C 0.92667 0.58268 0.06155 0.0
C254 C 0.92178 0.60804 0.04655 0.0
C255 C 0.86818 0.58044 0.07587 0.0
C256 C 0.87167 0.5542 0.09054 0.0
H257 H 0.94211 0.62952 0.03162 0.0
H258 H 0.84637 0.58086 0.08503 0.0
H259 H 0.9573 0.68492 0.05237 0.0
H260 H 0.91675 0.69983 0.17499 0.0
H261 H 0.78695 0.5399 0.94288 0.0
H262 H 0.95013 0.5846 0.05619 0.0
H263 H 0.85182 0.53386 0.10876 0.0
C264 C 0.2261 0.89433 0.29347 0.0
C265 C 0.23149 0.92017 0.32142 0.0
N266 N 0.24989 0.94807 0.29732 0.0
N267 N 0.24074 0.90552 0.25154 0.0
C268 C 0.25484 0.93845 0.25466 0.0
H269 H 0.21302 0.86892 0.30362 0.0
Co270 Co 0.24113 0.8775 0.20568 0.0
C271 C 0.27337 0.91752 0.12268 0.0
O272 O 0.28903 0.90134 0.11873 0.0
N273 N 0.24019 0.84809 0.15942 0.0
C274 C 0.24607 0.8132 0.11337 0.0
C275 C 0.25392 0.82907 0.15618 0.0
C276 C 0.22335 0.84232 0.11864 0.0
N277 N 0.22677 0.8216 0.09006 0.0
O278 O 0.19559 0.86143 0.19302 0.0
H279 H 0.26894 0.82662 0.18239 0.0
H280 H 0.20987 0.85431 0.10907 0.0
O281 O 0.25338 0.91116 0.15675 0.0
C282 C 0.17672 0.83449 0.21356 0.0
O283 O 0.18953 0.82164 0.2412 0.0
N284 N 0.28517 0.89186 0.2216 0.0
C285 C 0.34795 0.90566 0.24491 0.0
C286 C 0.34276 0.9296 0.22446 0.0
C287 C 0.31111 0.92241 0.21385 0.0
C288 C 0.28955 0.86987 0.24687 0.0
C289 C 0.32079 0.87577 0.25747 0.0
H290 H 0.30785 0.94144 0.19873 0.0
H291 H 0.26861 0.84694 0.25713 0.0
H292 H 0.2695 0.9551 0.22706 0.0
H293 H 0.22286 0.91843 0.35718 0.0
H294 H 0.25387 0.79673 0.10043 0.0
H295 H 0.36301 0.95342 0.21556 0.0
H296 H 0.32368 0.85713 0.27521 0.0
C297 C 0.35111 0.24546 0.44398 0.0
C298 C 0.32694 0.24885 0.46498 0.0
N299 N 0.30923 0.25253 0.4309 0.0
N300 N 0.34881 0.24698 0.39685 0.0
C301 C 0.32293 0.25112 0.38981 0.0
H302 H 0.36964 0.24264 0.46191 0.0
Co303 Co 0.3785 0.24551 0.35577 0.0
C304 C 0.37237 0.27655 0.26835 0.0
O305 O 0.40425 0.29373 0.26503 0.0
N306 N 0.40853 0.24271 0.31524 0.0
C307 C 0.45134 0.24101 0.28685 0.0
C308 C 0.43774 0.2461 0.32629 0.0
C309 C 0.40407 0.23319 0.2695 0.0
N310 N 0.43016 0.23311 0.25102 0.0
O311 O 0.34921 0.19977 0.34493 0.0
H312 H 0.44843 0.25083 0.36093 0.0
H313 H 0.38221 0.22684 0.24973 0.0
O314 O 0.35909 0.25629 0.30232 0.0
C315 C 0.35279 0.1814 0.37414 0.0
O316 O 0.37426 0.19512 0.40815 0.0
N317 N 0.40808 0.29047 0.36928 0.0
C318 C 0.45693 0.35526 0.38341 0.0
C319 C 0.42701 0.3479 0.36336 0.0
C320 C 0.40245 0.31532 0.35823 0.0
C321 C 0.43491 0.2973 0.39532 0.0
C322 C 0.46006 0.32949 0.4018 0.0
H323 H 0.37928 0.31028 0.34414 0.0
H324 H 0.43702 0.27771 0.411 0.0
H325 H 0.31494 0.25415 0.35542 0.0
H326 H 0.32282 0.2487 0.50252 0.0
H327 H 0.47481 0.24254 0.28487 0.0
H328 H 0.42274 0.36712 0.35128 0.0
H329 H 0.48211 0.334 0.4196 0.0
C330 C 0.10706 0.33782 0.61178 0.0
C331 C 0.08135 0.31392 0.63692 0.0
N332 N 0.05663 0.29732 0.60677 0.0
N333 N 0.09844 0.33678 0.56612 0.0
C334 C 0.06773 0.31091 0.56414 0.0
H335 H 0.131 0.35433 0.62573 0.0
Co336 Co 0.12863 0.3624 0.51928 0.0
C337 C 0.06744 0.34619 0.47103 0.0
O338 O 0.05906 0.35653 0.50854 0.0
N339 N 0.16013 0.3872 0.47521 0.0
C340 C 0.20669 0.42729 0.44747 0.0
C341 C 0.18931 0.41249 0.48752 0.0
C342 C 0.16041 0.38646 0.42762 0.0
N343 N 0.18841 0.41099 0.40985 0.0
O344 O 0.13605 0.32715 0.50593 0.0
H345 H 0.19704 0.42007 0.52345 0.0
H346 H 0.14004 0.36923 0.40643 0.0
O347 O 0.09435 0.34616 0.47047 0.0
C348 C 0.16044 0.32797 0.52597 0.0
O349 O 0.17594 0.35004 0.55875 0.0
N350 N 0.12341 0.39945 0.53152 0.0
C351 C 0.12762 0.46041 0.54149 0.0
C352 C 0.12125 0.44494 0.49769 0.0
C353 C 0.12004 0.41522 0.49329 0.0
C354 C 0.12881 0.41375 0.575 0.0
C355 C 0.13065 0.44415 0.58088 0.0
H356 H 0.11759 0.40557 0.45816 0.0
H357 H 0.13355 0.4028 0.60499 0.0
H358 H 0.05398 0.3009 0.53211 0.0
H359 H 0.08079 0.30914 0.67434 0.0
H360 H 0.23082 0.44855 0.44613 0.0
H361 H 0.11847 0.45636 0.46629 0.0
H362 H 0.13614 0.45556 0.61531 0.0
C363 C 0.78153 0.11524 0.79643 0.0
C364 C 0.77935 0.09171 0.82693 0.0
N365 N 0.76157 0.06223 0.80631 0.0
N366 N 0.76531 0.10094 0.75656 0.0
C367 C 0.75366 0.06862 0.76327 0.0
H368 H 0.79402 0.14125 0.80286 0.0
Co369 Co 0.76227 0.12523 0.70748 0.0
C370 C 0.72589 0.07954 0.63167 0.0
O371 O 0.70863 0.09409 0.62769 0.0
N372 N 0.76072 0.15134 0.65708 0.0
C373 C 0.7523 0.18419 0.61006 0.0
C374 C 0.75013 0.17307 0.65543 0.0
C375 C 0.77108 0.15152 0.61241 0.0
N376 N 0.76559 0.17067 0.58326 0.0
O377 O 0.80658 0.13922 0.69076 0.0
H378 H 0.7409 0.18053 0.68451 0.0
H379 H 0.78073 0.13632 0.60073 0.0
O380 O 0.74768 0.08835 0.66373 0.0
C381 C 0.82821 0.16934 0.69231 0.0
O382 O 0.82004 0.19088 0.70523 0.0
N383 N 0.71901 0.11197 0.72681 0.0
C384 C 0.65575 0.09861 0.74588 0.0
C385 C 0.66187 0.07345 0.73371 0.0
C386 C 0.69366 0.08056 0.72492 0.0
C387 C 0.71422 0.13525 0.74711 0.0
C388 C 0.68275 0.1296 0.75506 0.0
H389 H 0.69748 0.0608 0.71486 0.0
H390 H 0.73491 0.15892 0.75508 0.0
H391 H 0.73906 0.0501 0.73762 0.0
H392 H 0.79017 0.09616 0.86168 0.0
H393 H 0.74374 0.20011 0.59732 0.0
H394 H 0.64228 0.0485 0.7298 0.0
H395 H 0.67989 0.14981 0.76636 0.0
H396 H 0.1701 0.36975 0.33486 0.0
H397 H 0.22485 0.47188 0.37456 0.0
H398 H 0.24021 0.4871 0.2915 0.0
H399 H 0.22596 0.37307 0.24926 0.0
H400 H 0.19537 0.34502 0.20889 0.0
H401 H 0.18689 0.34211 0.27111 0.0
H402 H 0.136 0.3473 0.2548 0.0
H403 H 0.14432 0.35017 0.19247 0.0
H404 H 0.14025 0.38171 0.22166 0.0
H405 H 0.25146 0.49124 0.20546 0.0
H406 H 0.25932 0.48402 0.12155 0.0
H407 H 0.1967 0.37921 0.13662 0.0
C408 C 0.18493 0.39531 0.32586 0.0
C409 C 0.19639 0.41965 0.3611 0.0
C410 C 0.2162 0.45283 0.34819 0.0
C411 C 0.22482 0.46173 0.30109 0.0
C412 C 0.21342 0.43716 0.26728 0.0
C413 C 0.19394 0.40462 0.27894 0.0
C414 C 0.18626 0.383 0.23592 0.0
C415 C 0.19941 0.35942 0.24165 0.0
C416 C 0.14952 0.36446 0.22561 0.0
C417 C 0.20486 0.4085 0.19849 0.0
C418 C 0.22008 0.43956 0.21733 0.0
C419 C 0.23941 0.46706 0.19012 0.0
C420 C 0.24357 0.46271 0.14235 0.0
C421 C 0.22858 0.43107 0.12223 0.0
C422 C 0.20871 0.4037 0.15083 0.0
H423 H 0.83896 0.21751 0.32512 0.0
H424 H 0.73969 0.16064 0.27339 0.0
H425 H 0.72025 0.14526 0.35468 0.0
H426 H 0.82959 0.15999 0.41981 0.0
H427 H 0.85577 0.19228 0.45961 0.0
H428 H 0.86224 0.19783 0.39689 0.0
H429 H 0.8581 0.25021 0.40166 0.0
H430 H 0.85135 0.24464 0.46425 0.0
H431 H 0.82238 0.2481 0.42721 0.0
H432 H 0.71073 0.14009 0.44139 0.0
H433 H 0.71258 0.14152 0.52874 0.0
H434 H 0.81769 0.19791 0.5249 0.0
C435 C 0.8132 0.20132 0.33053 0.0
C436 C 0.79094 0.19064 0.29229 0.0
C437 C 0.75734 0.16981 0.30164 0.0
C438 C 0.74599 0.16067 0.34785 0.0
C439 C 0.7685 0.17215 0.38452 0.0
C440 C 0.80145 0.1916 0.37645 0.0
C441 C 0.82041 0.20093 0.42242 0.0
C442 C 0.84336 0.18691 0.42481 0.0
C443 C 0.83915 0.23818 0.42927 0.0
C444 C 0.79284 0.1843 0.45757 0.0
C445 C 0.76309 0.16794 0.43483 0.0
C446 C 0.73387 0.15236 0.45959 0.0
C447 C 0.73507 0.15338 0.50892 0.0
C448 C 0.76521 0.16958 0.53282 0.0
C449 C 0.79446 0.18504 0.50697 0.0
H450 H 0.56156 0.81515 0.4932 0.0
H451 H 0.6646 0.86456 0.46183 0.0
H452 H 0.67634 0.85745 0.54463 0.0
H453 H 0.56708 0.84775 0.60592 0.0
H454 H 0.53518 0.81083 0.63211 0.0
H455 H 0.53449 0.81783 0.56983 0.0
H456 H 0.53211 0.76311 0.55132 0.0
H457 H 0.53208 0.7556 0.6136 0.0
H458 H 0.56244 0.75519 0.57605 0.0
H459 H 0.67696 0.85067 0.63217 0.0
H460 H 0.66658 0.83653 0.71599 0.0
H461 H 0.56243 0.78726 0.68946 0.0
C462 C 0.58646 0.82373 0.50379 0.0
C463 C 0.61219 0.84008 0.47143 0.0
C464 C 0.6446 0.85142 0.48611 0.0
C465 C 0.65147 0.84779 0.53306 0.0
C466 C 0.62557 0.83233 0.56449 0.0
C467 C 0.59366 0.81976 0.55028 0.0
C468 C 0.57035 0.80407 0.59108 0.0
C469 C 0.55062 0.82115 0.60026 0.0
C470 C 0.54793 0.76731 0.5825 0.0
C471 C 0.5942 0.81038 0.63066 0.0
C472 C 0.6259 0.82701 0.61462 0.0
C473 C 0.65221 0.83689 0.64495 0.0
C474 C 0.64596 0.82855 0.69268 0.0
C475 C 0.61358 0.80989 0.70972 0.0
C476 C 0.58746 0.80134 0.67808 0.0
H477 H 0.81085 0.63415 0.64771 0.0
H478 H 0.7608 0.53036 0.61634 0.0
H479 H 0.76922 0.5189 0.69779 0.0
H480 H 0.87065 0.63465 0.72833 0.0
H481 H 0.86961 0.6638 0.768 0.0
H482 H 0.8611 0.66456 0.70622 0.0
H483 H 0.80567 0.6594 0.72707 0.0
H484 H 0.81401 0.65866 0.78889 0.0
H485 H 0.7773 0.62596 0.76347 0.0
H486 H 0.78108 0.51775 0.78231 0.0
H487 H 0.79593 0.52711 0.86622 0.0
H488 H 0.8373 0.63136 0.84582 0.0
C489 C 0.80163 0.60901 0.65785 0.0
C490 C 0.78539 0.58323 0.62494 0.0
C491 C 0.77392 0.5507 0.64009 0.0
C492 C 0.77839 0.54384 0.68658 0.0
C493 C 0.79436 0.5697 0.7179 0.0
C494 C 0.80585 0.60165 0.7044 0.0
C495 C 0.82156 0.62469 0.74582 0.0
C496 C 0.85789 0.64832 0.73652 0.0
C497 C 0.80356 0.64327 0.75697 0.0
C498 C 0.81675 0.60056 0.78464 0.0
C499 C 0.80106 0.56902 0.76747 0.0
C500 C 0.79334 0.54232 0.79625 0.0
C501 C 0.80168 0.5479 0.84402 0.0
C502 C 0.81755 0.57992 0.86287 0.0
C503 C 0.82542 0.60663 0.83249 0.0
H504 H 0.23367 0.79295 0.81552 0.0
H505 H 0.13551 0.77725 0.80704 0.0
H506 H 0.13567 0.78532 0.89244 0.0
H507 H 0.22175 0.74981 0.92572 0.0
H508 H 0.26214 0.7775 0.94724 0.0
H509 H 0.25483 0.77111 0.88477 0.0
H510 H 0.27934 0.83331 0.87234 0.0
H511 H 0.28683 0.83989 0.93472 0.0
H512 H 0.26309 0.85454 0.905 0.0
H513 H 0.14661 0.79652 0.97841 0.0
H514 H 0.16781 0.80908 0.06 0.0
H515 H 0.25727 0.81442 0.01424 0.0
C516 C 0.21215 0.79106 0.83157 0.0
C517 C 0.18483 0.78496 0.80405 0.0
C518 C 0.15719 0.78279 0.82672 0.0
C519 C 0.15684 0.787 0.87549 0.0
C520 C 0.18416 0.79306 0.9014 0.0
C521 C 0.21126 0.79494 0.88039 0.0
C522 C 0.23737 0.8016 0.91657 0.0
C523 C 0.24442 0.77331 0.91869 0.0
C524 C 0.26849 0.83428 0.90655 0.0
C525 C 0.22071 0.80332 0.96107 0.0
C526 C 0.19007 0.79843 0.95145 0.0
C527 C 0.17046 0.80015 0.98647 0.0
C528 C 0.18265 0.80734 0.03256 0.0
C529 C 0.21393 0.81238 0.04321 0.0
C530 C 0.23302 0.81002 0.00706 0.0
H531 H 0.38036 0.17262 0.98648 0.0
H532 H 0.48168 0.23614 0.94956 0.0
H533 H 0.49494 0.25111 0.03343 0.0
H534 H 0.37703 0.22492 0.07435 0.0
H535 H 0.35021 0.1921 0.11289 0.0
H536 H 0.34893 0.18536 0.05026 0.0
H537 H 0.35903 0.1371 0.0643 0.0
H538 H 0.36043 0.14376 0.12701 0.0
H539 H 0.39407 0.14369 0.09785 0.0
H540 H 0.49721 0.25902 0.12065 0.0
H541 H 0.48787 0.26271 0.20534 0.0
H542 H 0.3848 0.19481 0.18589 0.0
C543 C 0.40536 0.18941 0.99618 0.0
C544 C 0.43009 0.20317 0.96166 0.0
C545 C 0.46241 0.22558 0.97551 0.0
C546 C 0.47018 0.23401 0.02301 0.0
C547 C 0.44527 0.21997 0.05617 0.0
C548 C 0.41346 0.19836 0.04342 0.0
C549 C 0.3911 0.18787 0.08585 0.0
C550 C 0.3653 0.19819 0.0805 0.0
C551 C 0.37523 0.15091 0.09424 0.0
C552 C 0.41531 0.2071 0.12438 0.0
C553 C 0.44646 0.22515 0.10651 0.0
C554 C 0.47296 0.24494 0.13512 0.0
C555 C 0.46744 0.2467 0.18323 0.0
C556 C 0.43564 0.229 0.20224 0.0
C557 C 0.40933 0.20878 0.17232 0.0
H558 H 0.27714 0.29475 0.81554 0.0
H559 H 0.24245 0.25795 0.9562 0.0
H560 H 0.25804 0.21581 0.94512 0.0
H561 H 0.25231 0.21634 0.75954 0.0
H562 H 0.28816 0.23267 0.72311 0.0
H563 H 0.27228 0.25842 0.74109 0.0
H564 H 0.32827 0.29972 0.77706 0.0
H565 H 0.34432 0.27416 0.75911 0.0
H566 H 0.34658 0.28584 0.82008 0.0
H567 H 0.27886 0.17875 0.91924 0.0
H568 H 0.30637 0.15179 0.88278 0.0
H569 H 0.32835 0.21374 0.75946 0.0
C570 C 0.2723 0.27746 0.84367 0.0
C571 C 0.25835 0.27942 0.88662 0.0
C572 C 0.25321 0.25692 0.92312 0.0
C573 C 0.26178 0.2328 0.917 0.0
C574 C 0.27558 0.23163 0.87424 0.0
C575 C 0.28096 0.25348 0.83829 0.0
C576 C 0.29791 0.24828 0.79687 0.0
C577 C 0.27637 0.23833 0.75254 0.0
C578 C 0.33124 0.27881 0.78778 0.0
C579 C 0.30153 0.22027 0.81527 0.0
C580 C 0.28817 0.21077 0.85973 0.0
C581 C 0.28926 0.18587 0.88434 0.0
C582 C 0.30487 0.17065 0.86326 0.0
C583 C 0.31947 0.1806 0.81819 0.0
C584 C 0.31733 0.20547 0.79382 0.0
H585 H 0.12208 0.34181 0.93563 0.0
H586 H 0.1584 0.30643 0.04806 0.0
H587 H 0.10347 0.27766 0.08354 0.0
H588 H 0.07014 0.35729 0.00623 0.0
H589 H 0.03868 0.34445 0.96219 0.0
H590 H 0.08033 0.36058 0.9445 0.0
H591 H 0.06395 0.30806 0.89636 0.0
H592 H 0.02219 0.29179 0.91381 0.0
H593 H 0.0424 0.26888 0.9251 0.0
H594 H 0.04447 0.25465 0.10847 0.0
H595 H 0.98676 0.23864 0.11954 0.0
H596 H 0.99038 0.29027 0.99111 0.0
C597 C 0.11849 0.32774 0.96744 0.0
C598 C 0.14455 0.32628 0.98893 0.0
C599 C 0.13876 0.30773 0.03073 0.0
C600 C 0.10765 0.29135 0.05121 0.0
C601 C 0.08258 0.29364 0.02934 0.0
C602 C 0.08768 0.31126 0.98824 0.0
C603 C 0.05701 0.31068 0.97226 0.0
C604 C 0.06184 0.3453 0.97126 0.0
C605 C 0.04572 0.29384 0.92402 0.0
C606 C 0.03388 0.29028 0.01105 0.0
C607 C 0.04895 0.28056 0.04362 0.0
C608 C 0.03242 0.26204 0.08303 0.0
C609 C 0.99966 0.25323 0.08919 0.0
C610 C 0.98375 0.26299 0.05616 0.0
C611 C 1.00137 0.28177 0.01665 0.0
H612 H 0.82446 0.13439 0.19746 0.0
H613 H 0.83917 0.12694 0.04822 0.0
H614 H 0.80984 0.06687 0.05457 0.0
H615 H 0.82786 0.0604 0.23699 0.0
H616 H 0.79567 0.04935 0.27922 0.0
H617 H 0.82278 0.09168 0.26503 0.0
H618 H 0.77336 0.09804 0.24305 0.0
H619 H 0.74619 0.0558 0.25694 0.0
H620 H 0.74476 0.07129 0.19946 0.0
H621 H 0.77326 0.00821 0.07428 0.0
H622 H 0.73129 0.95498 0.10597 0.0
H623 H 0.73896 0.99989 0.24212 0.0
C624 C 0.82253 0.12005 0.16662 0.0
C625 C 0.83457 0.13521 0.12249 0.0
C626 C 0.83043 0.11573 0.08241 0.0
C627 C 0.81387 0.08161 0.08571 0.0
C628 C 0.80141 0.06727 0.12935 0.0
C629 C 0.80557 0.08582 0.1692 0.0
C630 C 0.78657 0.06428 0.2105 0.0
C631 C 0.8096 0.06657 0.25029 0.0
C632 C 0.76123 0.07287 0.22851 0.0
C633 C 0.77043 0.03093 0.18724 0.0
C634 C 0.77967 0.03319 0.14061 0.0
C635 C 0.7662 0.00606 0.11095 0.0
C636 C 0.74224 0.97594 0.12917 0.0
C637 C 0.7318 0.9731 0.17656 0.0
C638 C 0.74674 1.00096 0.20607 0.0
H639 H 0.72945 0.7209 0.32279 0.0
H640 H 0.76234 0.75688 0.46436 0.0
H641 H 0.74734 0.79944 0.45219 0.0
H642 H 0.75659 0.79901 0.26704 0.0
H643 H 0.72157 0.78373 0.22892 0.0
H644 H 0.73585 0.75693 0.24854 0.0
H645 H 0.67877 0.71688 0.28238 0.0
H646 H 0.66429 0.74344 0.26265 0.0
H647 H 0.6604 0.73165 0.32379 0.0
H648 H 0.72854 0.8384 0.42364 0.0
H649 H 0.70393 0.86731 0.38385 0.0
H650 H 0.68264 0.80466 0.26168 0.0
C651 C 0.73388 0.73795 0.35107 0.0
C652 C 0.74734 0.7357 0.39445 0.0
C653 C 0.75195 0.75804 0.43095 0.0
C654 C 0.7437 0.78242 0.42421 0.0
C655 C 0.73066 0.78404 0.38085 0.0
C656 C 0.72555 0.76218 0.34507 0.0
C657 C 0.70995 0.76814 0.30249 0.0
C658 C 0.73233 0.77751 0.2592 0.0
C659 C 0.67636 0.73825 0.29225 0.0
C660 C 0.70699 0.79675 0.31982 0.0
C661 C 0.71932 0.80582 0.36492 0.0
C662 C 0.71888 0.83149 0.3883 0.0
C663 C 0.70498 0.84788 0.36531 0.0
C664 C 0.69137 0.83833 0.31958 0.0
C665 C 0.69286 0.81265 0.29656 0.0
H666 H 0.01918 0.71893 0.47814 0.0
H667 H 0.02967 0.7763 0.60292 0.0
H668 H 0.97286 0.76381 0.59396 0.0
H669 H 0.9671 0.74126 0.41174 0.0
H670 H 0.94303 0.70103 0.38693 0.0
H671 H 0.9851 0.71617 0.40168 0.0
H672 H 0.96835 0.6655 0.45448 0.0
H673 H 0.92628 0.65025 0.43996 0.0
H674 H 0.93898 0.65605 0.5008 0.0
H675 H 0.91385 0.74285 0.57327 0.0
H676 H 0.85734 0.71434 0.54329 0.0
H677 H 0.88585 0.67107 0.43185 0.0
C678 C 0.00978 0.72941 0.50307 0.0
C679 C 0.029 0.74868 0.54121 0.0
C680 C 0.0154 0.76125 0.57368 0.0
C681 C 0.98319 0.75447 0.56869 0.0
C682 C 0.96485 0.7351 0.53099 0.0
C683 C 0.97768 0.72279 0.4987 0.0
C684 C 0.95243 0.70138 0.46259 0.0
C685 C 0.96252 0.71584 0.41279 0.0
C686 C 0.94614 0.66622 0.46461 0.0
C687 C 0.92328 0.70324 0.47992 0.0
C688 C 0.93095 0.72298 0.51922 0.0
C689 C 0.90764 0.72755 0.54228 0.0
C690 C 0.8756 0.71127 0.52496 0.0
C691 C 0.86713 0.69056 0.48509 0.0
C692 C 0.8915 0.68688 0.46219 0.0
H693 H 0.29794 0.02002 0.64828 0.0
H694 H 0.25311 0.02162 0.78056 0.0
H695 H 0.20979 0.96438 0.76754 0.0
H696 H 0.22281 0.96889 0.58287 0.0
H697 H 0.2398 0.94765 0.55204 0.0
H698 H 0.2658 0.98929 0.57049 0.0
H699 H 0.30235 0.97233 0.61591 0.0
H700 H 0.27654 0.93071 0.59756 0.0
H701 H 0.28432 0.9403 0.65938 0.0
H702 H 0.17263 0.90582 0.74114 0.0
H703 H 0.14657 0.85069 0.70575 0.0
H704 H 0.21624 0.88831 0.59093 0.0
C705 C 0.27868 0.00864 0.67409 0.0
C706 C 0.27883 0.02545 0.71531 0.0
C707 C 0.25361 0.00921 0.74884 0.0
C708 C 0.22878 0.97678 0.74157 0.0
C709 C 0.22951 0.96092 0.70058 0.0
C710 C 0.25389 0.97635 0.66747 0.0
C711 C 0.25032 0.95349 0.62773 0.0
C712 C 0.24432 0.96556 0.58049 0.0
C713 C 0.28015 0.94894 0.62502 0.0
C714 C 0.22035 0.92259 0.64387 0.0
C715 C 0.20846 0.92737 0.68571 0.0
C716 C 0.18159 0.90191 0.70817 0.0
C717 C 0.16689 0.87068 0.68773 0.0
C718 C 0.17926 0.86517 0.64544 0.0
C719 C 0.20602 0.8917 0.62307 0.0
H720 H 0.78518 0.65893 0.05594 0.0
H721 H 0.8615 0.70728 0.95161 0.0
H722 H 0.83511 0.73783 0.92313 0.0
H723 H 0.71998 0.64861 0.98398 0.0
H724 H 0.69883 0.65593 0.03079 0.0
H725 H 0.7247 0.63938 0.04415 0.0
H726 H 0.75756 0.68675 0.10276 0.0
H727 H 0.73174 0.70346 0.08961 0.0
H728 H 0.77519 0.72834 0.08271 0.0
H729 H 0.79831 0.76098 0.90379 0.0
H730 H 0.7553 0.77554 0.89642 0.0
H731 H 0.70368 0.71158 0.01375 0.0
C732 C 0.79658 0.67612 0.02732 0.0
C733 C 0.82545 0.68075 0.00602 0.0
C734 C 0.83947 0.70346 0.96862 0.0
C735 C 0.82463 0.72088 0.95219 0.0
C736 C 0.79595 0.71544 0.97377 0.0
C737 C 0.78222 0.69371 0.01072 0.0
C738 C 0.75097 0.6916 0.02729 0.0
C739 C 0.72191 0.65682 0.02116 0.0
C740 C 0.75407 0.70324 0.07864 0.0
C741 C 0.74894 0.71524 0.99354 0.0
C742 C 0.77509 0.72882 0.96296 0.0
C743 C 0.77784 0.7506 0.92775 0.0
C744 C 0.75318 0.75859 0.92366 0.0
C745 C 0.7261 0.74483 0.9546 0.0
C746 C 0.72427 0.72303 0.99009 0.0
H747 H 1.0061 0.74023 0.07497 0.0
H748 H 0.96247 0.70267 0.21183 0.0
H749 H 0.01566 0.73566 0.24983 0.0
H750 H 0.08194 0.74184 0.09874 0.0
H751 H 0.10665 0.7792 0.06678 0.0
H752 H 0.06488 0.75275 0.05001 0.0
H753 H 0.05439 0.80112 0.05918 0.0
H754 H 0.09609 0.82743 0.07678 0.0
H755 H 0.0635 0.82268 0.11451 0.0
H756 H 0.07278 0.77025 0.27362 0.0
H757 H 0.13219 0.80511 0.28203 0.0
H758 H 0.14103 0.82325 0.13137 0.0
C759 C 0.00788 0.73896 0.11287 0.0
C760 C 0.97989 0.71907 0.14044 0.0
C761 C 0.98325 0.71814 0.19 0.0
C762 C 0.01346 0.73671 0.21198 0.0
C763 C 0.04037 0.75636 0.1841 0.0
C764 C 0.03809 0.75772 0.13567 0.0
C765 C 0.07131 0.78085 0.11446 0.0
C766 C 0.08181 0.76256 0.0805 0.0
C767 C 0.0713 0.80974 0.08977 0.0
C768 C 0.09243 0.79192 0.15859 0.0
C769 C 0.07385 0.77731 0.19823 0.0
C770 C 0.08759 0.78213 0.24297 0.0
C771 C 0.12132 0.80199 0.24742 0.0
C772 C 0.14102 0.81722 0.20756 0.0
C773 C 0.12635 0.81251 0.16256 0.0
H774 H 0.26874 0.00509 0.24866 0.0
H775 H 0.26389 0.96588 0.38883 0.0
H776 H 0.28663 0.02065 0.42246 0.0
H777 H 0.34529 0.07988 0.26636 0.0
H778 H 0.33395 0.10497 0.23283 0.0
H779 H 0.31629 0.0623 0.21891 0.0
H780 H 0.25866 0.05446 0.22905 0.0
H781 H 0.27619 0.09708 0.2433 0.0
H782 H 0.24814 0.06642 0.28357 0.0
H783 H 0.31121 0.07879 0.44183 0.0
H784 H 0.33753 0.1386 0.44586 0.0
H785 H 0.32711 0.14276 0.29432 0.0
C786 C 0.27252 0.00809 0.28637 0.0
C787 C 0.26394 0.98082 0.31606 0.0
C788 C 0.26936 0.98595 0.36529 0.0
C789 C 0.28252 0.01713 0.38485 0.0
C790 C 0.29031 0.04327 0.3549 0.0
C791 C 0.28568 0.03933 0.30673 0.0
C792 C 0.29684 0.07209 0.28291 0.0
C793 C 0.32475 0.08029 0.2482 0.0
C794 C 0.26825 0.07253 0.25825 0.0
C795 C 0.30862 0.09487 0.32531 0.0
C796 C 0.30451 0.07748 0.36635 0.0
C797 C 0.31441 0.09272 0.41002 0.0
C798 C 0.32936 0.12673 0.41193 0.0
C799 C 0.33416 0.14533 0.37054 0.0
C800 C 0.32324 0.12911 0.32664 0.0
H801 H 0.2992 0.28184 0.50613 0.0
H802 H 0.25892 0.23746 0.37064 0.0
H803 H 0.21362 0.24834 0.38239 0.0
H804 H 0.22241 0.25216 0.56766 0.0
H805 H 0.23675 0.28937 0.60074 0.0
H806 H 0.26495 0.27666 0.58231 0.0
H807 H 0.30016 0.33221 0.54035 0.0
H808 H 0.27219 0.34513 0.55886 0.0
H809 H 0.2816 0.34573 0.49719 0.0
H810 H 0.17318 0.26562 0.40898 0.0
H811 H 0.14366 0.29073 0.44527 0.0
H812 H 0.21106 0.32334 0.56313 0.0
C813 C 0.28062 0.27386 0.4792 0.0
C814 C 0.28255 0.25852 0.43758 0.0
C815 C 0.25809 0.24937 0.40269 0.0
C816 C 0.23214 0.25524 0.40925 0.0
C817 C 0.23098 0.27033 0.45086 0.0
C818 C 0.25472 0.27962 0.4851 0.0
C819 C 0.24895 0.29684 0.52564 0.0
C820 C 0.2429 0.2776 0.57181 0.0
C821 C 0.27741 0.33206 0.53078 0.0
C822 C 0.21837 0.29611 0.50877 0.0
C823 C 0.20814 0.28046 0.46579 0.0
C824 C 0.18091 0.27773 0.44277 0.0
C825 C 0.16419 0.29195 0.46377 0.0
C826 C 0.17492 0.3089 0.50717 0.0
C827 C 0.20205 0.3104 0.53011 0.0
H828 H 1.00068 0.29505 0.58306 0.0
H829 H 0.04016 0.24319 0.65816 0.0
H830 H 0.9844 0.20085 0.68198 0.0
H831 H 0.94398 0.28436 0.67023 0.0
H832 H 0.91286 0.28041 0.62991 0.0
H833 H 0.95498 0.30355 0.61307 0.0
H834 H 0.9427 0.26763 0.53845 0.0
H835 H 0.90045 0.24435 0.55509 0.0
H836 H 0.92321 0.22393 0.54456 0.0
H837 H 0.92407 0.16502 0.69894 0.0
H838 H 0.86545 0.14255 0.71625 0.0
H839 H 0.86687 0.22146 0.63702 0.0
C840 C 0.99732 0.2743 0.60359 0.0
C841 C 0.02434 0.27178 0.61819 0.0
C842 C 0.0195 0.24511 0.64642 0.0
C843 C 0.98801 0.221 0.65983 0.0
C844 C 0.96176 0.22434 0.64529 0.0
C845 C 0.96617 0.25057 0.61824 0.0
C846 C 0.93452 0.2505 0.61164 0.0
C847 C 0.93673 0.28154 0.63247 0.0
C848 C 0.92464 0.24635 0.55933 0.0
C849 C 0.91171 0.22051 0.6399 0.0
C850 C 0.92763 0.2052 0.65795 0.0
C851 C 0.9114 0.17685 0.68504 0.0
C852 C 0.87818 0.16422 0.6946 0.0
C853 C 0.862 0.1805 0.67821 0.0
C854 C 0.87891 0.20877 0.65021 0.0
H855 H 0.7421 1.00383 0.76159 0.0
H856 H 0.75733 0.04858 0.89994 0.0
H857 H 0.74032 0.99572 0.93715 0.0
H858 H 0.6699 0.9293 0.79217 0.0
H859 H 0.67937 0.90368 0.75657 0.0
H860 H 0.69458 0.94558 0.74005 0.0
H861 H 0.75334 0.95545 0.73991 0.0
H862 H 0.73823 0.91358 0.75674 0.0
H863 H 0.76894 0.94615 0.79201 0.0
H864 H 0.71873 0.93812 0.96037 0.0
H865 H 0.69298 0.87835 0.96789 0.0
H866 H 0.6917 0.86941 0.81554 0.0
C867 C 0.74191 1.00256 0.79967 0.0
C868 C 0.75156 0.0308 0.82762 0.0
C869 C 0.75089 0.02779 0.87745 0.0
C870 C 0.74105 0.9977 0.8991 0.0
C871 C 0.73188 0.97055 0.87066 0.0
C872 C 0.73212 0.97254 0.82205 0.0
C873 C 0.71995 0.93912 0.80003 0.0
C874 C 0.68912 0.92882 0.77047 0.0
C875 C 0.74672 0.93856 0.77042 0.0
C876 C 0.71244 0.91815 0.84395 0.0
C877 C 0.71965 0.93693 0.88423 0.0
C878 C 0.71332 0.92316 0.92913 0.0
C879 C 0.6987 0.88921 0.93306 0.0
C880 C 0.69077 0.86934 0.89241 0.0
C881 C 0.69823 0.8841 0.84726 0.0
H882 H 0.33682 0.39003 0.10166 0.0
H883 H 0.2405 0.30733 0.07644 0.0
H884 H 0.25286 0.2735 0.12978 0.0
H885 H 0.37786 0.34407 0.10106 0.0
H886 H 0.40668 0.36858 0.14597 0.0
H887 H 0.38949 0.38638 0.10776 0.0
H888 H 0.36939 0.4043 0.1806 0.0
H889 H 0.38657 0.3866 0.21903 0.0
H890 H 0.3441 0.37423 0.22371 0.0
H891 H 0.27574 0.24947 0.18867 0.0
H892 H 0.30871 0.23619 0.24245 0.0
H893 H 0.39089 0.33379 0.22306 0.0
C894 C 0.31822 0.36488 0.10768 0.0
C895 C 0.28759 0.35132 0.08545 0.0
C896 C 0.26411 0.31814 0.09336 0.0
C897 C 0.27088 0.29881 0.12362 0.0
C898 C 0.30142 0.31295 0.145 0.0
C899 C 0.3248 0.34514 0.13691 0.0
C900 C 0.35619 0.3542 0.16234 0.0
C901 C 0.3842 0.36387 0.12718 0.0
C902 C 0.36454 0.38144 0.19857 0.0
C903 C 0.34683 0.32216 0.18628 0.0
C904 C 0.31504 0.29871 0.17642 0.0
C905 C 0.30077 0.26756 0.19622 0.0
C906 C 0.31959 0.26024 0.2267 0.0
C907 C 0.35239 0.28381 0.23625 0.0
C908 C 0.36604 0.31507 0.21566 0.0
H909 H 0.94059 0.24805 0.2659 0.0
H910 H 0.9332 0.33512 0.24859 0.0
H911 H 0.97908 0.36496 0.30291 0.0
H912 H 0.95524 0.25696 0.38716 0.0
H913 H 0.98392 0.24264 0.38863 0.0
H914 H 0.95359 0.22887 0.34291 0.0
H915 H 0.99871 0.24919 0.27929 0.0
H916 H 0.02924 0.26298 0.32492 0.0
H917 H 0.03132 0.29105 0.28026 0.0
H918 H 0.01991 0.38359 0.36485 0.0
H919 H 0.05492 0.39046 0.43305 0.0
H920 H 0.03836 0.29261 0.41245 0.0
C921 C 0.94926 0.27358 0.2729 0.0
C922 C 0.93345 0.28935 0.25324 0.0
C923 C 0.94486 0.32256 0.26367 0.0
C924 C 0.97108 0.33981 0.29416 0.0
C925 C 0.9857 0.32354 0.314 0.0
C926 C 0.97542 0.29124 0.30394 0.0
C927 C 0.99374 0.27907 0.33381 0.0
C928 C 0.97021 0.25018 0.36497 0.0
C929 C 0.01449 0.27004 0.30271 0.0
C930 C 0.01498 0.30928 0.36313 0.0
C931 C 0.01007 0.33467 0.35044 0.0
C932 C 0.02454 0.36421 0.37458 0.0
C933 C 0.04424 0.36784 0.41327 0.0
C934 C 0.04947 0.34222 0.42721 0.0
C935 C 0.03521 0.31275 0.40147 0.0
H936 H 0.70062 0.02131 0.36649 0.0
H937 H 0.68345 0.92732 0.41639 0.0
H938 H 0.69822 0.9494 0.49719 0.0
H939 H 0.76814 0.07275 0.4452 0.0
H940 H 0.75441 0.10142 0.45497 0.0
H941 H 0.74598 0.07997 0.39967 0.0
H942 H 0.68464 0.05821 0.40954 0.0
H943 H 0.69187 0.0794 0.46476 0.0
H944 H 0.66417 0.03605 0.46217 0.0
H945 H 0.71344 0.98175 0.57353 0.0
H946 H 0.7221 0.01998 0.63939 0.0
H947 H 0.72495 0.09028 0.53898 0.0
C948 C 0.70058 0.00556 0.39423 0.0
C949 C 0.69129 0.97279 0.38518 0.0
C950 C 0.6907 0.95264 0.42261 0.0
C951 C 0.69922 0.96498 0.46854 0.0
C952 C 0.70804 0.99741 0.4764 0.0
C953 C 0.7085 0.01732 0.44028 0.0
C954 C 0.71575 0.05023 0.45852 0.0
C955 C 0.74798 0.0777 0.43837 0.0
C956 C 0.68742 0.05631 0.44813 0.0
C957 C 0.71865 0.04551 0.51059 0.0
C958 C 0.71491 0.01524 0.52031 0.0
C959 C 0.71644 0.00554 0.56634 0.0
C960 C 0.72138 0.02725 0.60339 0.0
C961 C 0.72381 0.05765 0.59379 0.0
C962 C 0.72283 0.06694 0.54695 0.0
H963 H 0.67651 0.62776 0.60846 0.0
H964 H 0.77544 0.70735 0.59011 0.0
H965 H 0.76497 0.74079 0.64682 0.0
H966 H 0.64046 0.67812 0.61195 0.0
H967 H 0.60997 0.65303 0.65459 0.0
H968 H 0.62609 0.63498 0.61502 0.0
H969 H 0.64247 0.61197 0.68631 0.0
H970 H 0.62637 0.62994 0.72611 0.0
H971 H 0.66797 0.63938 0.73196 0.0
H972 H 0.74354 0.76465 0.70781 0.0
H973 H 0.71142 0.77878 0.76185 0.0
H974 H 0.62581 0.68488 0.73387 0.0
C975 C 0.69606 0.65211 0.61679 0.0
C976 C 0.72687 0.66495 0.59557 0.0
C977 C 0.75168 0.69714 0.60631 0.0
C978 C 0.74598 0.71621 0.63849 0.0
C979 C 0.71521 0.70282 0.65882 0.0
C980 C 0.69057 0.67164 0.64789 0.0
C981 C 0.65917 0.66351 0.67235 0.0
C982 C 0.63235 0.65704 0.63632 0.0
C983 C 0.64838 0.63449 0.70619 0.0
C984 C 0.66996 0.69491 0.69895 0.0
C985 C 0.70246 0.71718 0.69135 0.0
C986 C 0.71799 0.74752 0.71366 0.0
C987 C 0.69967 0.75532 0.74427 0.0
C988 C 0.66618 0.73307 0.75131 0.0
C989 C 0.65128 0.70257 0.72838 0.0
H990 H 0.06217 0.67128 0.76543 0.0
H991 H 0.06813 0.76333 0.73073 0.0
H992 H 0.02632 0.75272 0.79093 0.0
H993 H 0.97552 0.62621 0.78181 0.0
H994 H 0.97734 0.60193 0.8294 0.0
H995 H 0.00828 0.61746 0.78452 0.0
H996 H 0.0527 0.64511 0.84892 0.0
H997 H 0.02188 0.62988 0.89399 0.0
H998 H 0.05048 0.67301 0.88985 0.0
H999 H 0.98513 0.7326 0.85723 0.0
H1000 H 0.94366 0.7019 0.91843 0.0
H1001 H 0.96309 0.62203 0.90569 0.0
C1002 C 0.05467 0.6892 0.77051 0.0
C1003 C 0.06836 0.71814 0.74368 0.0
C1004 C 0.05775 0.74089 0.75089 0.0
C1005 C 0.03421 0.73518 0.78514 0.0
C1006 C 0.02134 0.70646 0.81132 0.0
C1007 C 0.0309 0.68366 0.80391 0.0
C1008 C 0.01252 0.6542 0.83539 0.0
C1009 C 0.99221 0.62312 0.80602 0.0
C1010 C 0.03579 0.65034 0.86903 0.0
C1011 C 0.99112 0.66397 0.86174 0.0
C1012 C 0.99683 0.69437 0.8479 0.0
C1013 C 0.98031 0.70869 0.86815 0.0
C1014 C 0.95697 0.6912 0.90295 0.0
C1015 C 0.95016 0.65961 0.91641 0.0
C1016 C 0.96764 0.64603 0.8957 0.0
H1017 H 0.32844 0.95037 0.07108 0.0
H1018 H 0.23656 0.94565 0.09986 0.0
H1019 H 0.25013 0.98929 0.04063 0.0
H1020 H 0.37569 0.03757 0.05721 0.0
H1021 H 0.40075 0.03524 0.01148 0.0
H1022 H 0.38336 1.00398 0.056 0.0
H1023 H 0.35668 0.9599 0.99082 0.0
H1024 H 0.37379 0.99103 0.94611 0.0
H1025 H 0.33052 0.96321 0.94782 0.0
H1026 H 0.27342 0.03173 0.9744 0.0
H1027 H 0.30603 0.07221 0.9129 0.0
H1028 H 0.38309 0.04953 0.93211 0.0
C1029 C 0.31108 0.95844 0.06501 0.0
C1030 C 0.28132 0.94452 0.08964 0.0
C1031 C 0.25951 0.9561 0.08124 0.0
C1032 C 0.26698 0.98072 0.04762 0.0
C1033 C 0.29648 0.99363 0.02345 0.0
C1034 C 0.31831 0.9831 0.03233 0.0
C1035 C 0.3486 1.00102 0.0026 0.0
C1036 C 0.37888 0.02062 0.03368 0.0
C1037 C 0.35261 0.97738 0.9699 0.0
C1038 C 0.34043 0.02321 0.97504 0.0
C1039 C 0.31019 0.01852 0.98714 0.0
C1040 C 0.29722 0.03576 0.96501 0.0
C1041 C 0.31582 0.05856 0.93004 0.0
C1042 C 0.34713 0.06408 0.91808 0.0
C1043 C 0.35939 0.04607 0.94089 0.0
H1044 H 0.50783 0.62699 0.95376 0.0
H1045 H 0.53271 0.622 0.80815 0.0
H1046 H 0.48317 0.56789 0.80002 0.0
H1047 H 0.47597 0.54084 0.97961 0.0
H1048 H 0.4442 0.53788 0.01753 0.0
H1049 H 0.48177 0.5761 0.01197 0.0
H1050 H 0.44962 0.60462 0.98745 0.0
H1051 H 0.41198 0.5665 0.99285 0.0
H1052 H 0.42192 0.58892 0.9382 0.0
H1053 H 0.42915 0.51593 0.80626 0.0
H1054 H 0.37633 0.46777 0.82861 0.0
H1055 H 0.38819 0.50485 0.97113 0.0
C1056 C 0.50281 0.61441 0.92026 0.0
C1057 C 0.52402 0.6286 0.88154 0.0
C1058 C 0.51687 0.61137 0.83833 0.0
C1059 C 0.48875 0.58072 0.83333 0.0
C1060 C 0.46823 0.56742 0.87208 0.0
C1061 C 0.47509 0.58351 0.91489 0.0
C1062 C 0.44919 0.5636 0.95112 0.0
C1063 C 0.46366 0.55404 0.9925 0.0
C1064 C 0.43217 0.58201 0.9684 0.0
C1065 C 0.42647 0.53409 0.9218 0.0
C1066 C 0.4378 0.53686 0.87619 0.0
C1067 C 0.42024 0.51329 0.84201 0.0
C1068 C 0.39036 0.48613 0.85486 0.0
C1069 C 0.3787 0.4827 0.90152 0.0
C1070 C 0.39701 0.50687 0.93538 0.0
H1071 H 0.85619 0.36817 0.07376 0.0
H1072 H 0.93719 0.39464 0.16956 0.0
H1073 H 0.9494 0.45153 0.16877 0.0
H1074 H 0.89195 0.44142 0.00561 0.0
H1075 H 0.85496 0.44302 0.00078 0.0
H1076 H 0.85305 0.40428 0.00729 0.0
H1077 H 0.81625 0.39148 0.08077 0.0
H1078 H 0.81798 0.43015 0.07442 0.0
H1079 H 0.82992 0.41991 0.12925 0.0
H1080 H 0.95418 0.50631 0.15583 0.0
H1081 H 0.94828 0.55401 0.13589 0.0
H1082 H 0.86163 0.49133 0.05471 0.0
C1083 C 0.87631 0.3857 0.09504 0.0
C1084 C 0.89599 0.37659 0.12106 0.0
C1085 C 0.92224 0.40081 0.14802 0.0
C1086 C 0.92926 0.4333 0.14824 0.0
C1087 C 0.90955 0.44136 0.12198 0.0
C1088 C 0.88337 0.41821 0.09634 0.0
C1089 C 0.86549 0.43321 0.07219 0.0
C1090 C 0.86643 0.43031 0.01827 0.0
C1091 C 0.83033 0.41776 0.09025 0.0
C1092 C 0.88581 0.46838 0.08812 0.0
C1093 C 0.91132 0.47263 0.11646 0.0
C1094 C 0.93412 0.50322 0.13404 0.0
C1095 C 0.93067 0.53015 0.12249 0.0
C1096 C 0.90438 0.52619 0.09423 0.0
C1097 C 0.88167 0.49487 0.077 0.0
H1098 H 0.49388 0.86832 0.22492 0.0
H1099 H 0.55496 0.96098 0.29541 0.0
H1100 H 0.50886 0.97072 0.2981 0.0
H1101 H 0.44618 0.89303 0.15596 0.0
H1102 H 0.4088 0.85484 0.16353 0.0
H1103 H 0.44718 0.85585 0.1646 0.0
H1104 H 0.43308 0.82803 0.24665 0.0
H1105 H 0.39472 0.82706 0.24592 0.0
H1106 H 0.42263 0.8463 0.29419 0.0
H1107 H 0.45597 0.97052 0.29398 0.0
H1108 H 0.3996 0.95953 0.28434 0.0
H1109 H 0.37201 0.86574 0.22139 0.0
C1110 C 0.4977 0.89064 0.24113 0.0
C1111 C 0.52849 0.914 0.2594 0.0
C1112 C 0.53209 0.94298 0.27988 0.0
C1113 C 0.50588 0.94866 0.28207 0.0
C1114 C 0.47595 0.92504 0.2641 0.0
C1115 C 0.47166 0.89656 0.24417 0.0
C1116 C 0.43668 0.87472 0.22864 0.0
C1117 C 0.4346 0.86931 0.175 0.0
C1118 C 0.42085 0.8421 0.25546 0.0
C1119 C 0.42203 0.89538 0.24307 0.0
C1120 C 0.44516 0.92443 0.26317 0.0
C1121 C 0.43762 0.94782 0.2784 0.0
C1122 C 0.4056 0.94141 0.27272 0.0
C1123 C 0.38146 0.91174 0.25241 0.0
C1124 C 0.38987 0.88843 0.23768 0.0
H1125 H 0.50085 0.38855 0.45489 0.0
H1126 H 0.47708 0.3985 0.31033 0.0
H1127 H 0.52585 0.45335 0.30631 0.0
H1128 H 0.53234 0.47399 0.4881 0.0
H1129 H 0.56397 0.47548 0.52499 0.0
H1130 H 0.52636 0.43755 0.51722 0.0
H1131 H 0.55851 0.40992 0.48882 0.0
H1132 H 0.59617 0.44775 0.49635 0.0
H1133 H 0.58633 0.42737 0.44005 0.0
H1134 H 0.57957 0.50525 0.31571 0.0
H1135 H 0.63263 0.55221 0.34019 0.0
H1136 H 0.62057 0.50995 0.47934 0.0
C1137 C 0.50582 0.40238 0.42252 0.0
C1138 C 0.48505 0.38924 0.38295 0.0
C1139 C 0.49234 0.40821 0.3413 0.0
C1140 C 0.5201 0.43933 0.33858 0.0
C1141 C 0.54024 0.4514 0.37798 0.0
C1142 C 0.53327 0.43371 0.41937 0.0
C1143 C 0.55912 0.45225 0.45644 0.0
C1144 C 0.54457 0.4603 0.49922 0.0
C1145 C 0.57603 0.43318 0.47127 0.0
C1146 C 0.58201 0.48283 0.42914 0.0
C1147 C 0.5707 0.48181 0.38387 0.0
C1148 C 0.58843 0.50654 0.35126 0.0
C1149 C 0.61846 0.53302 0.36532 0.0
C1150 C 0.63021 0.53465 0.41162 0.0
C1151 C 0.61171 0.50935 0.44394 0.0
H1152 H 0.10536 0.60966 0.62775 0.0
H1153 H 0.16068 0.66128 0.50338 0.0
H1154 H 0.16783 0.61482 0.48352 0.0
H1155 H 0.15075 0.57049 0.65766 0.0
H1156 H 0.11582 0.53231 0.67473 0.0
H1157 H 0.11499 0.56975 0.68044 0.0
H1158 H 0.06291 0.54585 0.62912 0.0
H1159 H 0.06334 0.50819 0.62376 0.0
H1160 H 0.06285 0.52969 0.57158 0.0
H1161 H 0.17102 0.56464 0.47798 0.0
H1162 H 0.16488 0.51003 0.48163 0.0
H1163 H 0.10453 0.48784 0.60645 0.0
C1164 C 0.11864 0.61105 0.59603 0.0
C1165 C 0.13294 0.63954 0.56762 0.0
C1166 C 0.15024 0.64026 0.52651 0.0
C1167 C 0.15432 0.61388 0.51474 0.0
C1168 C 0.14065 0.58665 0.54402 0.0
C1169 C 0.12273 0.58469 0.5834 0.0
C1170 C 0.10995 0.55194 0.60791 0.0
C1171 C 0.12371 0.55641 0.65817 0.0
C1172 C 0.07254 0.53278 0.60808 0.0
C1173 C 0.12358 0.53594 0.57605 0.0
C1174 C 0.14145 0.5567 0.53976 0.0
C1175 C 0.15676 0.54797 0.50586 0.0
C1176 C 0.15302 0.51683 0.5082 0.0
C1177 C 0.13374 0.49441 0.54382 0.0
C1178 C 0.11939 0.50441 0.57884 0.0
H1179 H 0.6301 0.12957 0.79958 0.0
H1180 H 0.60391 0.05539 0.69143 0.0
H1181 H 0.5488 0.04733 0.68858 0.0
H1182 H 0.55211 0.09389 0.85849 0.0
H1183 H 0.55439 0.13262 0.86761 0.0
H1184 H 0.59114 0.13049 0.86487 0.0
H1185 H 0.61268 0.17337 0.79771 0.0
H1186 H 0.576 0.1756 0.80018 0.0
H1187 H 0.58843 0.16602 0.74533 0.0
H1188 H 0.49657 0.04812 0.69527 0.0
H1189 H 0.45205 0.05988 0.70895 0.0
H1190 H 0.51331 0.13636 0.80743 0.0
C1191 C 0.61298 0.11161 0.77517 0.0
C1192 C 0.62173 0.09281 0.74633 0.0
C1193 C 0.59799 0.06948 0.71522 0.0
C1194 C 0.5665 0.06487 0.71288 0.0
C1195 C 0.55897 0.08403 0.74136 0.0
C1196 C 0.58156 0.10708 0.77169 0.0
C1197 C 0.56776 0.12583 0.79643 0.0
C1198 C 0.56626 0.12036 0.85003 0.0
C1199 C 0.58739 0.16237 0.78416 0.0
C1200 C 0.534 0.10982 0.77497 0.0
C1201 C 0.52929 0.08549 0.7437 0.0
C1202 C 0.49996 0.06712 0.71969 0.0
C1203 C 0.47481 0.07388 0.72774 0.0
C1204 C 0.47933 0.09907 0.75904 0.0
C1205 C 0.50933 0.11718 0.78293 0.0
loop_
_geom_bond_atom_site_label_1
_geom_bond_atom_site_label_2
_geom_bond_distance
_geom_bond_site_symmetry_2
_ccdc_geom_bond_type
C0 C1 1.351 . S
C0 N3 1.368 . S
C0 H5 0.931 . S
C1 C0 1.351 . S
C1 N2 1.373 . S
C1 H29 0.930 . S
N2 C1 1.373 . S
N2 C4 1.340 . S
N3 C0 1.368 . S
N3 C4 1.321 . S
N3 Co6 2.135 1_556 S
C4 N2 1.340 . S
C4 N3 1.321 . S
C4 H28 0.930 . S
H5 C0 0.931 . S
Co6 N3 2.135 1_554 S
Co6 N9 2.121 . S
Co6 O14 2.055 . S
Co6 O17 2.039 . S
Co6 N20 2.140 1_554 S
C7 O8 1.227 . S
C7 O17 1.265 . S
O8 C7 1.227 . S
N9 Co6 2.121 . S
N9 C11 1.375 . S
N9 C12 1.313 . S
C10 C11 1.338 . S
C10 N13 1.377 . S
C10 H30 0.930 . S
C11 N9 1.375 . S
C11 C10 1.338 . S
C11 H15 0.931 . S
C12 N9 1.313 . S
C12 N13 1.344 . S
C12 H16 0.930 . S
N13 C10 1.377 . S
N13 C12 1.344 . S
O14 Co6 2.055 . S
O14 C18 1.253 1_554 S
H15 C11 0.931 . S
H16 C12 0.930 . S
O17 Co6 2.039 . S
O17 C7 1.265 . S
C18 O14 1.253 1_556 S
C18 O19 1.227 . S
O19 C18 1.227 . S
N20 Co6 2.140 1_556 S
N20 C23 1.346 . S
N20 C24 1.345 . S
C21 C22 1.387 . S
C21 C25 1.391 . S
C22 C21 1.387 . S
C22 C23 1.369 . S
C22 H31 0.929 . S
C23 N20 1.346 . S
C23 C22 1.369 . S
C23 H26 0.928 . S
C24 N20 1.345 . S
C24 C25 1.371 . S
C24 H27 0.931 . S
C25 C21 1.391 . S
C25 C24 1.371 . S
C25 H32 0.930 . S
H26 C23 0.928 . S
H27 C24 0.931 . S
H28 C4 0.930 . S
H29 C1 0.930 . S
H30 C10 0.930 . S
H31 C22 0.929 . S
H32 C25 0.930 . S
C33 C34 1.351 . S
C33 N36 1.368 . S
C33 H38 0.931 . S
C34 C33 1.351 . S
C34 N35 1.373 . S
C34 H62 0.930 1_554 S
N35 C34 1.373 . S
N35 C37 1.340 . S
N36 C33 1.368 . S
N36 C37 1.321 . S
N36 Co39 2.135 . S
C37 N35 1.340 . S
C37 N36 1.321 . S
C37 H61 0.930 . S
H38 C33 0.931 . S
Co39 N36 2.135 . S
Co39 N42 2.121 . S
Co39 O47 2.055 . S
Co39 O50 2.039 . S
Co39 N53 2.140 . S
C40 O41 1.227 . S
C40 O50 1.265 . S
O41 C40 1.227 . S
N42 Co39 2.121 . S
N42 C44 1.375 . S
N42 C45 1.313 . S
C43 C44 1.338 . S
C43 N46 1.377 . S
C43 H63 0.930 . S
C44 N42 1.375 . S
C44 C43 1.338 . S
C44 H48 0.931 . S
C45 N42 1.313 . S
C45 N46 1.344 . S
C45 H49 0.930 . S
N46 C43 1.377 . S
N46 C45 1.344 . S
O47 Co39 2.055 . S
O47 C51 1.253 . S
H48 C44 0.931 . S
H49 C45 0.930 . S
O50 Co39 2.039 . S
O50 C40 1.265 . S
C51 O47 1.253 . S
C51 O52 1.227 . S
O52 C51 1.227 . S
N53 Co39 2.140 . S
N53 C56 1.346 . S
N53 C57 1.345 . S
C54 C55 1.387 . S
C54 C58 1.391 . S
C55 C54 1.387 . S
C55 C56 1.369 . S
C55 H64 0.929 . S
C56 N53 1.346 . S
C56 C55 1.369 . S
C56 H59 0.928 . S
C57 N53 1.345 . S
C57 C58 1.371 . S
C57 H60 0.931 . S
C58 C54 1.391 . S
C58 C57 1.371 . S
C58 H65 0.930 . S
H59 C56 0.928 . S
H60 C57 0.931 . S
H61 C37 0.930 . S
H62 C34 0.930 1_556 S
H63 C43 0.930 . S
H64 C55 0.929 . S
H65 C58 0.930 . S
C66 C67 1.351 . S
C66 N69 1.368 . S
C66 H71 0.931 . S
C67 C66 1.351 . S
C67 N68 1.373 . S
C67 H95 0.930 . S
N68 C67 1.373 . S
N68 C70 1.340 . S
N69 C66 1.368 . S
N69 C70 1.321 . S
N69 Co72 2.135 . S
C70 N68 1.340 . S
C70 N69 1.321 . S
C70 H94 0.930 . S
H71 C66 0.931 . S
Co72 N69 2.135 . S
Co72 N75 2.121 . S
Co72 O80 2.055 . S
Co72 O83 2.039 . S
Co72 N86 2.140 . S
C73 O74 1.227 . S
C73 O83 1.265 . S
O74 C73 1.227 . S
N75 Co72 2.121 . S
N75 C77 1.375 . S
N75 C78 1.313 . S
C76 C77 1.338 . S
C76 N79 1.377 . S
C76 H96 0.930 . S
C77 N75 1.375 . S
C77 C76 1.338 . S
C77 H81 0.931 . S
C78 N75 1.313 . S
C78 N79 1.344 . S
C78 H82 0.930 . S
N79 C76 1.377 . S
N79 C78 1.344 . S
O80 Co72 2.055 . S
O80 C84 1.253 . S
H81 C77 0.931 . S
H82 C78 0.930 . S
O83 Co72 2.039 . S
O83 C73 1.265 . S
C84 O80 1.253 . S
C84 O85 1.227 . S
O85 C84 1.227 . S
N86 Co72 2.140 . S
N86 C89 1.346 . S
N86 C90 1.345 . S
C87 C88 1.387 . S
C87 C91 1.391 . S
C88 C87 1.387 . S
C88 C89 1.369 . S
C88 H97 0.929 . S
C89 N86 1.346 . S
C89 C88 1.369 . S
C89 H92 0.928 . S
C90 N86 1.345 . S
C90 C91 1.371 . S
C90 H93 0.931 . S
C91 C87 1.391 . S
C91 C90 1.371 . S
C91 H98 0.930 . S
H92 C89 0.928 . S
H93 C90 0.931 . S
H94 C70 0.930 . S
H95 C67 0.930 . S
H96 C76 0.930 . S
H97 C88 0.929 . S
H98 C91 0.930 . S
C99 C100 1.351 . S
C99 N102 1.368 . S
C99 H104 0.931 . S
C100 C99 1.351 . S
C100 N101 1.373 . S
C100 H128 0.930 . S
N101 C100 1.373 . S
N101 C103 1.340 . S
N102 C99 1.368 . S
N102 C103 1.321 . S
N102 Co105 2.135 . S
C103 N101 1.340 . S
C103 N102 1.321 . S
C103 H127 0.930 . S
H104 C99 0.931 . S
Co105 N102 2.135 . S
Co105 N108 2.121 . S
Co105 O113 2.055 . S
Co105 O116 2.039 . S
Co105 N119 2.140 . S
C106 O107 1.227 . S
C106 O116 1.265 . S
O107 C106 1.227 . S
N108 Co105 2.121 . S
N108 C110 1.375 . S
N108 C111 1.313 . S
C109 C110 1.338 . S
C109 N112 1.377 . S
C109 H129 0.930 . S
C110 N108 1.375 . S
C110 C109 1.338 . S
C110 H114 0.931 . S
C111 N108 1.313 . S
C111 N112 1.344 . S
C111 H115 0.930 . S
N112 C109 1.377 . S
N112 C111 1.344 . S
O113 Co105 2.055 . S
O113 C117 1.253 . S
H114 C110 0.931 . S
H115 C111 0.930 . S
O116 Co105 2.039 . S
O116 C106 1.265 . S
C117 O113 1.253 . S
C117 O118 1.227 . S
O118 C117 1.227 . S
N119 Co105 2.140 . S
N119 C122 1.346 . S
N119 C123 1.345 . S
C120 C121 1.387 . S
C120 C124 1.391 . S
C121 C120 1.387 . S
C121 C122 1.369 . S
C121 H130 0.929 . S
C122 N119 1.346 . S
C122 C121 1.369 . S
C122 H125 0.928 . S
C123 N119 1.345 . S
C123 C124 1.371 . S
C123 H126 0.931 . S
C124 C120 1.391 . S
C124 C123 1.371 . S
C124 H131 0.930 . S
H125 C122 0.928 . S
H126 C123 0.931 . S
H127 C103 0.930 . S
H128 C100 0.930 . S
H129 C109 0.930 . S
H130 C121 0.929 . S
H131 C124 0.930 . S
C132 C133 1.351 . S
C132 N135 1.368 . S
C132 H137 0.931 . S
C133 C132 1.351 . S
C133 N134 1.373 . S
C133 H161 0.930 . S
N134 C133 1.373 . S
N134 C136 1.340 . S
N135 C132 1.368 . S
N135 C136 1.321 . S
N135 Co138 2.135 . S
C136 N134 1.340 . S
C136 N135 1.321 . S
C136 H160 0.930 . S
H137 C132 0.931 . S
Co138 N135 2.135 . S
Co138 N141 2.121 . S
Co138 O146 2.055 . S
Co138 O149 2.039 . S
Co138 N152 2.140 . S
C139 O140 1.227 . S
C139 O149 1.265 . S
O140 C139 1.227 . S
N141 Co138 2.121 . S
N141 C143 1.375 . S
N141 C144 1.313 . S
C142 C143 1.338 . S
C142 N145 1.377 . S
C142 H162 0.930 . S
C143 N141 1.375 . S
C143 C142 1.338 . S
C143 H147 0.931 . S
C144 N141 1.313 . S
C144 N145 1.344 . S
C144 H148 0.930 . S
N145 C142 1.377 . S
N145 C144 1.344 . S
O146 Co138 2.055 . S
O146 C150 1.253 . S
H147 C143 0.931 . S
H148 C144 0.930 . S
O149 Co138 2.039 . S
O149 C139 1.265 . S
C150 O146 1.253 . S
C150 O151 1.227 . S
O151 C150 1.227 . S
N152 Co138 2.140 . S
N152 C155 1.346 . S
N152 C156 1.345 . S
C153 C154 1.387 . S
C153 C157 1.391 . S
C154 C153 1.387 . S
C154 C155 1.369 . S
C154 H163 0.929 . S
C155 N152 1.346 . S
C155 C154 1.369 . S
C155 H158 0.928 . S
C156 N152 1.345 . S
C156 C157 1.371 . S
C156 H159 0.931 . S
C157 C153 1.391 . S
C157 C156 1.371 . S
C157 H164 0.930 . S
H158 C155 0.928 . S
H159 C156 0.931 . S
H160 C136 0.930 . S
H161 C133 0.930 . S
H162 C142 0.930 . S
H163 C154 0.929 . S
H164 C157 0.930 . S
C165 C166 1.351 . S
C165 N168 1.368 . S
C165 H170 0.931 . S
C166 C165 1.351 . S
C166 N167 1.373 . S
C166 H194 0.930 . S
N167 C166 1.373 . S
N167 C169 1.340 . S
N168 C165 1.368 . S
N168 C169 1.321 . S
N168 Co171 2.135 . S
C169 N167 1.340 . S
C169 N168 1.321 . S
C169 H193 0.930 . S
H170 C165 0.931 . S
Co171 N168 2.135 . S
Co171 N174 2.121 . S
Co171 O179 2.055 . S
Co171 O182 2.039 . S
Co171 N185 2.140 . S
C172 O173 1.227 . S
C172 O182 1.265 . S
O173 C172 1.227 . S
N174 Co171 2.121 . S
N174 C176 1.375 . S
N174 C177 1.313 . S
C175 C176 1.338 . S
C175 N178 1.377 . S
C175 H195 0.930 . S
C176 N174 1.375 . S
C176 C175 1.338 . S
C176 H180 0.931 . S
C177 N174 1.313 . S
C177 N178 1.344 . S
C177 H181 0.930 . S
N178 C175 1.377 . S
N178 C177 1.344 . S
O179 Co171 2.055 . S
O179 C183 1.253 . S
H180 C176 0.931 . S
H181 C177 0.930 . S
O182 Co171 2.039 . S
O182 C172 1.265 . S
C183 O179 1.253 . S
C183 O184 1.227 . S
O184 C183 1.227 . S
N185 Co171 2.140 . S
N185 C188 1.346 . S
N185 C189 1.345 . S
C186 C187 1.387 . S
C186 C190 1.391 . S
C187 C186 1.387 . S
C187 C188 1.369 . S
C187 H196 0.929 . S
C188 N185 1.346 . S
C188 C187 1.369 . S
C188 H191 0.928 . S
C189 N185 1.345 . S
C189 C190 1.371 . S
C189 H192 0.931 . S
C190 C186 1.391 . S
C190 C189 1.371 . S
C190 H197 0.930 . S
H191 C188 0.928 . S
H192 C189 0.931 . S
H193 C169 0.930 . S
H194 C166 0.930 . S
H195 C175 0.930 . S
H196 C187 0.929 . S
H197 C190 0.930 . S
C198 C199 1.351 . S
C198 N201 1.368 . S
C198 H203 0.931 . S
C199 C198 1.351 . S
C199 N200 1.373 . S
C199 H227 0.930 1_556 S
N200 C199 1.373 . S
N200 C202 1.340 . S
N201 C198 1.368 . S
N201 C202 1.321 . S
N201 Co204 2.135 . S
C202 N200 1.340 . S
C202 N201 1.321 . S
C202 H226 0.930 . S
H203 C198 0.931 . S
Co204 N201 2.135 . S
Co204 N207 2.121 . S
Co204 O212 2.055 . S
Co204 O215 2.039 . S
Co204 N218 2.140 . S
C205 O206 1.227 . S
C205 O215 1.265 . S
O206 C205 1.227 . S
N207 Co204 2.121 . S
N207 C209 1.375 . S
N207 C210 1.313 . S
C208 C209 1.338 . S
C208 N211 1.377 . S
C208 H228 0.930 . S
C209 N207 1.375 . S
C209 C208 1.338 . S
C209 H213 0.931 . S
C210 N207 1.313 . S
C210 N211 1.344 . S
C210 H214 0.930 . S
N211 C208 1.377 . S
N211 C210 1.344 . S
O212 Co204 2.055 . S
O212 C216 1.253 . S
H213 C209 0.931 . S
H214 C210 0.930 . S
O215 Co204 2.039 . S
O215 C205 1.265 . S
C216 O212 1.253 . S
C216 O217 1.227 . S
O217 C216 1.227 . S
N218 Co204 2.140 . S
N218 C221 1.346 . S
N218 C222 1.345 . S
C219 C220 1.387 . S
C219 C223 1.391 . S
C220 C219 1.387 . S
C220 C221 1.369 . S
C220 H229 0.929 . S
C221 N218 1.346 . S
C221 C220 1.369 . S
C221 H224 0.928 . S
C222 N218 1.345 . S
C222 C223 1.371 . S
C222 H225 0.931 . S
C223 C219 1.391 . S
C223 C222 1.371 . S
C223 H230 0.930 . S
H224 C221 0.928 . S
H225 C222 0.931 . S
H226 C202 0.930 . S
H227 C199 0.930 1_554 S
H228 C208 0.930 . S
H229 C220 0.929 . S
H230 C223 0.930 . S
C231 C232 1.351 . S
C231 N234 1.368 . S
C231 H236 0.931 . S
C232 C231 1.351 . S
C232 N233 1.373 . S
C232 H260 0.930 . S
N233 C232 1.373 . S
N233 C235 1.340 . S
N234 C231 1.368 . S
N234 C235 1.321 . S
N234 Co237 2.135 1_554 S
C235 N233 1.340 . S
C235 N234 1.321 . S
C235 H259 0.930 . S
H236 C231 0.931 . S
Co237 N234 2.135 1_556 S
Co237 N240 2.121 . S
Co237 O245 2.055 . S
Co237 O248 2.039 . S
Co237 N251 2.140 1_556 S
C238 O239 1.227 . S
C238 O248 1.265 . S
O239 C238 1.227 . S
N240 Co237 2.121 . S
N240 C242 1.375 . S
N240 C243 1.313 . S
C241 C242 1.338 . S
C241 N244 1.377 . S
C241 H261 0.930 . S
C242 N240 1.375 . S
C242 C241 1.338 . S
C242 H246 0.931 . S
C243 N240 1.313 . S
C243 N244 1.344 . S
C243 H247 0.930 . S
N244 C241 1.377 . S
N244 C243 1.344 . S
O245 Co237 2.055 . S
O245 C249 1.253 1_556 S
H246 C242 0.931 . S
H247 C243 0.930 . S
O248 Co237 2.039 . S
O248 C238 1.265 . S
C249 O245 1.253 1_554 S
C249 O250 1.227 . S
O250 C249 1.227 . S
N251 Co237 2.140 1_554 S
N251 C254 1.346 . S
N251 C255 1.345 . S
C252 C253 1.387 . S
C252 C256 1.391 . S
C253 C252 1.387 . S
C253 C254 1.369 . S
C253 H262 0.929 . S
C254 N251 1.346 . S
C254 C253 1.369 . S
C254 H257 0.928 . S
C255 N251 1.345 . S
C255 C256 1.371 . S
C255 H258 0.931 . S
C256 C252 1.391 . S
C256 C255 1.371 . S
C256 H263 0.930 . S
H257 C254 0.928 . S
H258 C255 0.931 . S
H259 C235 0.930 . S
H260 C232 0.930 . S
H261 C241 0.930 . S
H262 C253 0.929 . S
H263 C256 0.930 . S
C264 C265 1.351 . S
C264 N267 1.368 . S
C264 H269 0.931 . S
C265 C264 1.351 . S
C265 N266 1.373 . S
C265 H293 0.930 . S
N266 C265 1.373 . S
N266 C268 1.340 . S
N267 C264 1.368 . S
N267 C268 1.321 . S
N267 Co270 2.135 . S
C268 N266 1.340 . S
C268 N267 1.321 . S
C268 H292 0.930 . S
H269 C264 0.931 . S
Co270 N267 2.135 . S
Co270 N273 2.121 . S
Co270 O278 2.055 . S
Co270 O281 2.039 . S
Co270 N284 2.140 . S
C271 O272 1.227 . S
C271 O281 1.265 . S
O272 C271 1.227 . S
N273 Co270 2.121 . S
N273 C275 1.375 . S
N273 C276 1.313 . S
C274 C275 1.338 . S
C274 N277 1.377 . S
C274 H294 0.930 . S
C275 N273 1.375 . S
C275 C274 1.338 . S
C275 H279 0.931 . S
C276 N273 1.313 . S
C276 N277 1.344 . S
C276 H280 0.930 . S
N277 C274 1.377 . S
N277 C276 1.344 . S
O278 Co270 2.055 . S
O278 C282 1.253 . S
H279 C275 0.931 . S
H280 C276 0.930 . S
O281 Co270 2.039 . S
O281 C271 1.265 . S
C282 O278 1.253 . S
C282 O283 1.227 . S
O283 C282 1.227 . S
N284 Co270 2.140 . S
N284 C287 1.346 . S
N284 C288 1.345 . S
C285 C286 1.387 . S
C285 C289 1.391 . S
C286 C285 1.387 . S
C286 C287 1.369 . S
C286 H295 0.929 . S
C287 N284 1.346 . S
C287 C286 1.369 . S
C287 H290 0.928 . S
C288 N284 1.345 . S
C288 C289 1.371 . S
C288 H291 0.931 . S
C289 C285 1.391 . S
C289 C288 1.371 . S
C289 H296 0.930 . S
H290 C287 0.928 . S
H291 C288 0.931 . S
H292 C268 0.930 . S
H293 C265 0.930 . S
H294 C274 0.930 . S
H295 C286 0.929 . S
H296 C289 0.930 . S
C297 C298 1.351 . S
C297 N300 1.368 . S
C297 H302 0.931 . S
C298 C297 1.351 . S
C298 N299 1.373 . S
C298 H326 0.930 . S
N299 C298 1.373 . S
N299 C301 1.340 . S
N300 C297 1.368 . S
N300 C301 1.321 . S
N300 Co303 2.135 . S
C301 N299 1.340 . S
C301 N300 1.321 . S
C301 H325 0.930 . S
H302 C297 0.931 . S
Co303 N300 2.135 . S
Co303 N306 2.121 . S
Co303 O311 2.055 . S
Co303 O314 2.039 . S
Co303 N317 2.140 . S
C304 O305 1.227 . S
C304 O314 1.265 . S
O305 C304 1.227 . S
N306 Co303 2.121 . S
N306 C308 1.375 . S
N306 C309 1.313 . S
C307 C308 1.338 . S
C307 N310 1.377 . S
C307 H327 0.930 . S
C308 N306 1.375 . S
C308 C307 1.338 . S
C308 H312 0.931 . S
C309 N306 1.313 . S
C309 N310 1.344 . S
C309 H313 0.930 . S
N310 C307 1.377 . S
N310 C309 1.344 . S
O311 Co303 2.055 . S
O311 C315 1.253 . S
H312 C308 0.931 . S
H313 C309 0.930 . S
O314 Co303 2.039 . S
O314 C304 1.265 . S
C315 O311 1.253 . S
C315 O316 1.227 . S
O316 C315 1.227 . S
N317 Co303 2.140 . S
N317 C320 1.346 . S
N317 C321 1.345 . S
C318 C319 1.387 . S
C318 C322 1.391 . S
C319 C318 1.387 . S
C319 C320 1.369 . S
C319 H328 0.929 . S
C320 N317 1.346 . S
C320 C319 1.369 . S
C320 H323 0.928 . S
C321 N317 1.345 . S
C321 C322 1.371 . S
C321 H324 0.931 . S
C322 C318 1.391 . S
C322 C321 1.371 . S
C322 H329 0.930 . S
H323 C320 0.928 . S
H324 C321 0.931 . S
H325 C301 0.930 . S
H326 C298 0.930 . S
H327 C307 0.930 . S
H328 C319 0.929 . S
H329 C322 0.930 . S
C330 C331 1.351 . S
C330 N333 1.368 . S
C330 H335 0.931 . S
C331 C330 1.351 . S
C331 N332 1.373 . S
C331 H359 0.930 . S
N332 C331 1.373 . S
N332 C334 1.340 . S
N333 C330 1.368 . S
N333 C334 1.321 . S
N333 Co336 2.135 . S
C334 N332 1.340 . S
C334 N333 1.321 . S
C334 H358 0.930 . S
H335 C330 0.931 . S
Co336 N333 2.135 . S
Co336 N339 2.121 . S
Co336 O344 2.055 . S
Co336 O347 2.039 . S
Co336 N350 2.140 . S
C337 O338 1.227 . S
C337 O347 1.265 . S
O338 C337 1.227 . S
N339 Co336 2.121 . S
N339 C341 1.375 . S
N339 C342 1.313 . S
C340 C341 1.338 . S
C340 N343 1.377 . S
C340 H360 0.930 . S
C341 N339 1.375 . S
C341 C340 1.338 . S
C341 H345 0.931 . S
C342 N339 1.313 . S
C342 N343 1.344 . S
C342 H346 0.930 . S
N343 C340 1.377 . S
N343 C342 1.344 . S
O344 Co336 2.055 . S
O344 C348 1.253 . S
H345 C341 0.931 . S
H346 C342 0.930 . S
O347 Co336 2.039 . S
O347 C337 1.265 . S
C348 O344 1.253 . S
C348 O349 1.227 . S
O349 C348 1.227 . S
N350 Co336 2.140 . S
N350 C353 1.346 . S
N350 C354 1.345 . S
C351 C352 1.387 . S
C351 C355 1.391 . S
C352 C351 1.387 . S
C352 C353 1.369 . S
C352 H361 0.929 . S
C353 N350 1.346 . S
C353 C352 1.369 . S
C353 H356 0.928 . S
C354 N350 1.345 . S
C354 C355 1.371 . S
C354 H357 0.931 . S
C355 C351 1.391 . S
C355 C354 1.371 . S
C355 H362 0.930 . S
H356 C353 0.928 . S
H357 C354 0.931 . S
H358 C334 0.930 . S
H359 C331 0.930 . S
H360 C340 0.930 . S
H361 C352 0.929 . S
H362 C355 0.930 . S
C363 C364 1.351 . S
C363 N366 1.368 . S
C363 H368 0.931 . S
C364 C363 1.351 . S
C364 N365 1.373 . S
C364 H392 0.930 . S
N365 C364 1.373 . S
N365 C367 1.340 . S
N366 C363 1.368 . S
N366 C367 1.321 . S
N366 Co369 2.135 . S
C367 N365 1.340 . S
C367 N366 1.321 . S
C367 H391 0.930 . S
H368 C363 0.931 . S
Co369 N366 2.135 . S
Co369 N372 2.121 . S
Co369 O377 2.055 . S
Co369 O380 2.039 . S
Co369 N383 2.140 . S
C370 O371 1.227 . S
C370 O380 1.265 . S
O371 C370 1.227 . S
N372 Co369 2.121 . S
N372 C374 1.375 . S
N372 C375 1.313 . S
C373 C374 1.338 . S
C373 N376 1.377 . S
C373 H393 0.930 . S
C374 N372 1.375 . S
C374 C373 1.338 . S
C374 H378 0.931 . S
C375 N372 1.313 . S
C375 N376 1.344 . S
C375 H379 0.930 . S
N376 C373 1.377 . S
N376 C375 1.344 . S
O377 Co369 2.055 . S
O377 C381 1.253 . S
H378 C374 0.931 . S
H379 C375 0.930 . S
O380 Co369 2.039 . S
O380 C370 1.265 . S
C381 O377 1.253 . S
C381 O382 1.227 . S
O382 C381 1.227 . S
N383 Co369 2.140 . S
N383 C386 1.346 . S
N383 C387 1.345 . S
C384 C385 1.387 . S
C384 C388 1.391 . S
C385 C384 1.387 . S
C385 C386 1.369 . S
C385 H394 0.929 . S
C386 N383 1.346 . S
C386 C385 1.369 . S
C386 H389 0.928 . S
C387 N383 1.345 . S
C387 C388 1.371 . S
C387 H390 0.931 . S
C388 C384 1.391 . S
C388 C387 1.371 . S
C388 H395 0.930 . S
H389 C386 0.928 . S
H390 C387 0.931 . S
H391 C367 0.930 . S
H392 C364 0.930 . S
H393 C373 0.930 . S
H394 C385 0.929 . S
H395 C388 0.930 . S
H396 C408 0.930 . S
H397 C410 0.930 . S
H398 C411 0.930 . S
H399 C415 0.959 . S
H400 C415 0.959 . S
H401 C415 0.961 . S
H402 C416 0.960 . S
H403 C416 0.961 . S
H404 C416 0.959 . S
H405 C419 0.929 . S
H406 C420 0.931 . S
H407 C422 0.930 . S
C408 H396 0.930 . S
C408 C409 1.399 . S
C408 C413 1.399 . S
C409 C408 1.399 . S
C409 C410 1.376 . S
C410 H397 0.930 . S
C410 C409 1.376 . S
C410 C411 1.388 . S
C411 H398 0.930 . S
C411 C410 1.388 . S
C411 C412 1.390 . S
C412 C411 1.390 . S
C412 C413 1.394 . S
C412 C418 1.465 . S
C413 C408 1.399 . S
C413 C412 1.394 . S
C413 C414 1.516 . S
C414 C413 1.516 . S
C414 C415 1.502 . S
C414 C416 1.561 . S
C414 C417 1.526 . S
C415 H399 0.959 . S
C415 H400 0.959 . S
C415 H401 0.961 . S
C415 C414 1.502 . S
C416 H402 0.960 . S
C416 H403 0.961 . S
C416 H404 0.959 . S
C416 C414 1.561 . S
C417 C414 1.526 . S
C417 C418 1.396 . S
C417 C422 1.390 . S
C418 C412 1.465 . S
C418 C417 1.396 . S
C418 C419 1.399 . S
C419 H405 0.929 . S
C419 C418 1.399 . S
C419 C420 1.385 . S
C420 H406 0.931 . S
C420 C419 1.385 . S
C420 C421 1.389 . S
C421 C420 1.389 . S
C421 C422 1.387 . S
C422 H407 0.930 . S
C422 C417 1.390 . S
C422 C421 1.387 . S
H423 C435 0.930 . S
H424 C437 0.930 . S
H425 C438 0.930 . S
H426 C442 0.959 . S
H427 C442 0.959 . S
H428 C442 0.961 . S
H429 C443 0.960 . S
H430 C443 0.961 . S
H431 C443 0.959 . S
H432 C446 0.929 . S
H433 C447 0.931 . S
H434 C449 0.930 . S
C435 H423 0.930 . S
C435 C436 1.399 . S
C435 C440 1.399 . S
C436 C435 1.399 . S
C436 C437 1.376 . S
C437 H424 0.930 . S
C437 C436 1.376 . S
C437 C438 1.388 . S
C438 H425 0.930 . S
C438 C437 1.388 . S
C438 C439 1.390 . S
C439 C438 1.390 . S
C439 C440 1.394 . S
C439 C445 1.465 . S
C440 C435 1.399 . S
C440 C439 1.394 . S
C440 C441 1.516 . S
C441 C440 1.516 . S
C441 C442 1.502 . S
C441 C443 1.561 . S
C441 C444 1.526 . S
C442 H426 0.959 . S
C442 H427 0.959 . S
C442 H428 0.961 . S
C442 C441 1.502 . S
C443 H429 0.960 . S
C443 H430 0.961 . S
C443 H431 0.959 . S
C443 C441 1.561 . S
C444 C441 1.526 . S
C444 C445 1.396 . S
C444 C449 1.390 . S
C445 C439 1.465 . S
C445 C444 1.396 . S
C445 C446 1.399 . S
C446 H432 0.929 . S
C446 C445 1.399 . S
C446 C447 1.385 . S
C447 H433 0.931 . S
C447 C446 1.385 . S
C447 C448 1.389 . S
C448 C447 1.389 . S
C448 C449 1.387 . S
C449 H434 0.930 . S
C449 C444 1.390 . S
C449 C448 1.387 . S
H450 C462 0.930 . S
H451 C464 0.930 . S
H452 C465 0.930 . S
H453 C469 0.959 . S
H454 C469 0.959 . S
H455 C469 0.961 . S
H456 C470 0.960 . S
H457 C470 0.961 . S
H458 C470 0.959 . S
H459 C473 0.929 . S
H460 C474 0.931 . S
H461 C476 0.930 . S
C462 H450 0.930 . S
C462 C463 1.399 . S
C462 C467 1.399 . S
C463 C462 1.399 . S
C463 C464 1.376 . S
C464 H451 0.930 . S
C464 C463 1.376 . S
C464 C465 1.388 . S
C465 H452 0.930 . S
C465 C464 1.388 . S
C465 C466 1.390 . S
C466 C465 1.390 . S
C466 C467 1.394 . S
C466 C472 1.465 . S
C467 C462 1.399 . S
C467 C466 1.394 . S
C467 C468 1.516 . S
C468 C467 1.516 . S
C468 C469 1.502 . S
C468 C470 1.561 . S
C468 C471 1.526 . S
C469 H453 0.959 . S
C469 H454 0.959 . S
C469 H455 0.961 . S
C469 C468 1.502 . S
C470 H456 0.960 . S
C470 H457 0.961 . S
C470 H458 0.959 . S
C470 C468 1.561 . S
C471 C468 1.526 . S
C471 C472 1.396 . S
C471 C476 1.390 . S
C472 C466 1.465 . S
C472 C471 1.396 . S
C472 C473 1.399 . S
C473 H459 0.929 . S
C473 C472 1.399 . S
C473 C474 1.385 . S
C474 H460 0.931 . S
C474 C473 1.385 . S
C474 C475 1.389 . S
C475 C474 1.389 . S
C475 C476 1.387 . S
C476 H461 0.930 . S
C476 C471 1.390 . S
C476 C475 1.387 . S
H477 C489 0.930 . S
H478 C491 0.930 . S
H479 C492 0.930 . S
H480 C496 0.959 . S
H481 C496 0.959 . S
H482 C496 0.961 . S
H483 C497 0.960 . S
H484 C497 0.961 . S
H485 C497 0.959 . S
H486 C500 0.929 . S
H487 C501 0.931 . S
H488 C503 0.930 . S
C489 H477 0.930 . S
C489 C490 1.399 . S
C489 C494 1.399 . S
C490 C489 1.399 . S
C490 C491 1.376 . S
C491 H478 0.930 . S
C491 C490 1.376 . S
C491 C492 1.388 . S
C492 H479 0.930 . S
C492 C491 1.388 . S
C492 C493 1.390 . S
C493 C492 1.390 . S
C493 C494 1.394 . S
C493 C499 1.465 . S
C494 C489 1.399 . S
C494 C493 1.394 . S
C494 C495 1.516 . S
C495 C494 1.516 . S
C495 C496 1.502 . S
C495 C497 1.561 . S
C495 C498 1.526 . S
C496 H480 0.959 . S
C496 H481 0.959 . S
C496 H482 0.961 . S
C496 C495 1.502 . S
C497 H483 0.960 . S
C497 H484 0.961 . S
C497 H485 0.959 . S
C497 C495 1.561 . S
C498 C495 1.526 . S
C498 C499 1.396 . S
C498 C503 1.390 . S
C499 C493 1.465 . S
C499 C498 1.396 . S
C499 C500 1.399 . S
C500 H486 0.929 . S
C500 C499 1.399 . S
C500 C501 1.385 . S
C501 H487 0.931 . S
C501 C500 1.385 . S
C501 C502 1.389 . S
C502 C501 1.389 . S
C502 C503 1.387 . S
C503 H488 0.930 . S
C503 C498 1.390 . S
C503 C502 1.387 . S
H504 C516 0.930 . S
H505 C518 0.930 . S
H506 C519 0.930 . S
H507 C523 0.959 . S
H508 C523 0.959 . S
H509 C523 0.961 . S
H510 C524 0.960 . S
H511 C524 0.961 . S
H512 C524 0.959 . S
H513 C527 0.929 . S
H514 C528 0.931 . S
H515 C530 0.929 1_554 S
C516 H504 0.930 . S
C516 C517 1.399 . S
C516 C521 1.399 . S
C517 C516 1.399 . S
C517 C518 1.376 . S
C518 H505 0.930 . S
C518 C517 1.376 . S
C518 C519 1.388 . S
C519 H506 0.930 . S
C519 C518 1.388 . S
C519 C520 1.390 . S
C520 C519 1.390 . S
C520 C521 1.394 . S
C520 C526 1.465 . S
C521 C516 1.399 . S
C521 C520 1.394 . S
C521 C522 1.516 . S
C522 C521 1.516 . S
C522 C523 1.502 . S
C522 C524 1.561 . S
C522 C525 1.526 . S
C523 H507 0.959 . S
C523 H508 0.959 . S
C523 H509 0.961 . S
C523 C522 1.502 . S
C524 H510 0.960 . S
C524 H511 0.961 . S
C524 H512 0.959 . S
C524 C522 1.561 . S
C525 C522 1.526 . S
C525 C526 1.396 . S
C525 C530 1.390 . S
C526 C520 1.465 . S
C526 C525 1.396 . S
C526 C527 1.399 . S
C527 H513 0.929 . S
C527 C526 1.399 . S
C527 C528 1.385 1_556 S
C528 H514 0.931 . S
C528 C527 1.385 1_554 S
C528 C529 1.389 . S
C529 C528 1.389 . S
C529 C530 1.387 1_554 S
C530 H515 0.929 1_556 S
C530 C525 1.390 . S
C530 C529 1.387 1_556 S
H531 C543 0.930 1_556 S
H532 C545 0.930 . S
H533 C546 0.930 . S
H534 C550 0.959 . S
H535 C550 0.959 . S
H536 C550 0.961 . S
H537 C551 0.960 . S
H538 C551 0.961 . S
H539 C551 0.959 . S
H540 C554 0.929 . S
H541 C555 0.931 . S
H542 C557 0.930 . S
C543 H531 0.930 1_554 S
C543 C544 1.399 1_554 S
C543 C548 1.399 . S
C544 C543 1.399 1_556 S
C544 C545 1.376 . S
C545 H532 0.930 . S
C545 C544 1.376 . S
C545 C546 1.388 1_556 S
C546 H533 0.930 . S
C546 C545 1.388 1_554 S
C546 C547 1.390 . S
C547 C546 1.390 . S
C547 C548 1.394 . S
C547 C553 1.465 . S
C548 C543 1.399 . S
C548 C547 1.394 . S
C548 C549 1.516 . S
C549 C548 1.516 . S
C549 C550 1.502 . S
C549 C551 1.561 . S
C549 C552 1.526 . S
C550 H534 0.959 . S
C550 H535 0.959 . S
C550 H536 0.961 . S
C550 C549 1.502 . S
C551 H537 0.960 . S
C551 H538 0.961 . S
C551 H539 0.959 . S
C551 C549 1.561 . S
C552 C549 1.526 . S
C552 C553 1.396 . S
C552 C557 1.390 . S
C553 C547 1.465 . S
C553 C552 1.396 . S
C553 C554 1.399 . S
C554 H540 0.929 . S
C554 C553 1.399 . S
C554 C555 1.385 . S
C555 H541 0.931 . S
C555 C554 1.385 . S
C555 C556 1.389 . S
C556 C555 1.389 . S
C556 C557 1.387 . S
C557 H542 0.930 . S
C557 C552 1.390 . S
C557 C556 1.387 . S
H558 C570 0.930 . S
H559 C572 0.930 . S
H560 C573 0.930 . S
H561 C577 0.959 . S
H562 C577 0.959 . S
H563 C577 0.961 . S
H564 C578 0.960 . S
H565 C578 0.961 . S
H566 C578 0.959 . S
H567 C581 0.929 . S
H568 C582 0.931 . S
H569 C584 0.930 . S
C570 H558 0.930 . S
C570 C571 1.399 . S
C570 C575 1.399 . S
C571 C570 1.399 . S
C571 C572 1.376 . S
C572 H559 0.930 . S
C572 C571 1.376 . S
C572 C573 1.388 . S
C573 H560 0.930 . S
C573 C572 1.388 . S
C573 C574 1.390 . S
C574 C573 1.390 . S
C574 C575 1.394 . S
C574 C580 1.465 . S
C575 C570 1.399 . S
C575 C574 1.394 . S
C575 C576 1.516 . S
C576 C575 1.516 . S
C576 C577 1.502 . S
C576 C578 1.561 . S
C576 C579 1.526 . S
C577 H561 0.959 . S
C577 H562 0.959 . S
C577 H563 0.961 . S
C577 C576 1.502 . S
C578 H564 0.960 . S
C578 H565 0.961 . S
C578 H566 0.959 . S
C578 C576 1.561 . S
C579 C576 1.526 . S
C579 C580 1.396 . S
C579 C584 1.390 . S
C580 C574 1.465 . S
C580 C579 1.396 . S
C580 C581 1.399 . S
C581 H567 0.929 . S
C581 C580 1.399 . S
C581 C582 1.385 . S
C582 H568 0.931 . S
C582 C581 1.385 . S
C582 C583 1.389 . S
C583 C582 1.389 . S
C583 C584 1.387 . S
C584 H569 0.930 . S
C584 C579 1.390 . S
C584 C583 1.387 . S
H585 C597 0.930 . S
H586 C599 0.930 . S
H587 C600 0.930 . S
H588 C604 0.959 . S
H589 C604 0.959 . S
H590 C604 0.961 . S
H591 C605 0.960 1_556 S
H592 C605 0.961 . S
H593 C605 0.959 . S
H594 C608 0.929 . S
H595 C609 0.931 . S
H596 C611 0.930 1_656 S
C597 H585 0.930 . S
C597 C598 1.399 . S
C597 C602 1.399 . S
C598 C597 1.399 . S
C598 C599 1.376 1_556 S
C599 H586 0.930 . S
C599 C598 1.376 1_554 S
C599 C600 1.388 . S
C600 H587 0.930 . S
C600 C599 1.388 . S
C600 C601 1.390 . S
C601 C600 1.390 . S
C601 C602 1.394 1_554 S
C601 C607 1.465 . S
C602 C597 1.399 . S
C602 C601 1.394 1_556 S
C602 C603 1.516 . S
C603 C602 1.516 . S
C603 C604 1.502 . S
C603 C605 1.561 1_556 S
C603 C606 1.526 1_556 S
C604 H588 0.959 . S
C604 H589 0.959 . S
C604 H590 0.961 . S
C604 C603 1.502 . S
C605 H591 0.960 1_554 S
C605 H592 0.961 . S
C605 H593 0.959 . S
C605 C603 1.561 1_554 S
C606 C603 1.526 1_554 S
C606 C607 1.396 . S
C606 C611 1.390 . S
C607 C601 1.465 . S
C607 C606 1.396 . S
C607 C608 1.399 . S
C608 H594 0.929 . S
C608 C607 1.399 . S
C608 C609 1.385 . S
C609 H595 0.931 . S
C609 C608 1.385 . S
C609 C610 1.389 1_455 S
C610 C609 1.389 1_655 S
C610 C611 1.387 1_655 S
C611 H596 0.930 1_454 S
C611 C606 1.390 . S
C611 C610 1.387 1_455 S
H612 C624 0.930 . S
H613 C626 0.930 . S
H614 C627 0.930 . S
H615 C631 0.959 . S
H616 C631 0.959 . S
H617 C631 0.961 . S
H618 C632 0.960 . S
H619 C632 0.961 . S
H620 C632 0.959 . S
H621 C635 0.929 . S
H622 C636 0.931 . S
H623 C638 0.930 . S
C624 H612 0.930 . S
C624 C625 1.399 . S
C624 C629 1.399 . S
C625 C624 1.399 . S
C625 C626 1.376 . S
C626 H613 0.930 . S
C626 C625 1.376 . S
C626 C627 1.388 . S
C627 H614 0.930 . S
C627 C626 1.388 . S
C627 C628 1.390 . S
C628 C627 1.390 . S
C628 C629 1.394 . S
C628 C634 1.465 . S
C629 C624 1.399 . S
C629 C628 1.394 . S
C629 C630 1.516 . S
C630 C629 1.516 . S
C630 C631 1.502 . S
C630 C632 1.561 . S
C630 C633 1.526 . S
C631 H615 0.959 . S
C631 H616 0.959 . S
C631 H617 0.961 . S
C631 C630 1.502 . S
C632 H618 0.960 . S
C632 H619 0.961 . S
C632 H620 0.959 . S
C632 C630 1.561 . S
C633 C630 1.526 . S
C633 C634 1.396 . S
C633 C638 1.390 . S
C634 C628 1.465 . S
C634 C633 1.396 . S
C634 C635 1.399 . S
C635 H621 0.929 . S
C635 C634 1.399 . S
C635 C636 1.385 1_545 S
C636 H622 0.931 . S
C636 C635 1.385 1_565 S
C636 C637 1.389 . S
C637 C636 1.389 . S
C637 C638 1.387 1_565 S
C638 H623 0.930 . S
C638 C633 1.390 . S
C638 C637 1.387 1_545 S
H639 C651 0.930 . S
H640 C653 0.930 . S
H641 C654 0.930 . S
H642 C658 0.959 . S
H643 C658 0.959 . S
H644 C658 0.961 . S
H645 C659 0.960 . S
H646 C659 0.961 . S
H647 C659 0.959 . S
H648 C662 0.929 . S
H649 C663 0.931 . S
H650 C665 0.930 . S
C651 H639 0.930 . S
C651 C652 1.399 . S
C651 C656 1.399 . S
C652 C651 1.399 . S
C652 C653 1.376 . S
C653 H640 0.930 . S
C653 C652 1.376 . S
C653 C654 1.388 . S
C654 H641 0.930 . S
C654 C653 1.388 . S
C654 C655 1.390 . S
C655 C654 1.390 . S
C655 C656 1.394 . S
C655 C661 1.465 . S
C656 C651 1.399 . S
C656 C655 1.394 . S
C656 C657 1.516 . S
C657 C656 1.516 . S
C657 C658 1.502 . S
C657 C659 1.561 . S
C657 C660 1.526 . S
C658 H642 0.959 . S
C658 H643 0.959 . S
C658 H644 0.961 . S
C658 C657 1.502 . S
C659 H645 0.960 . S
C659 H646 0.961 . S
C659 H647 0.959 . S
C659 C657 1.561 . S
C660 C657 1.526 . S
C660 C661 1.396 . S
C660 C665 1.390 . S
C661 C655 1.465 . S
C661 C660 1.396 . S
C661 C662 1.399 . S
C662 H648 0.929 . S
C662 C661 1.399 . S
C662 C663 1.385 . S
C663 H649 0.931 . S
C663 C662 1.385 . S
C663 C664 1.389 . S
C664 C663 1.389 . S
C664 C665 1.387 . S
C665 H650 0.930 . S
C665 C660 1.390 . S
C665 C664 1.387 . S
H666 C678 0.930 1_455 S
H667 C680 0.953 . S
H668 C681 0.930 . S
H669 C685 0.959 . S
H670 C685 0.959 . S
H671 C685 0.961 . S
H672 C686 0.960 . S
H673 C686 0.961 . S
H674 C686 0.959 . S
H675 C689 0.929 . S
H676 C690 0.931 . S
H677 C692 0.930 . S
C678 H666 0.930 1_655 S
C678 C679 1.399 1_655 S
C678 C683 1.399 . S
C679 C678 1.399 1_455 S
C679 C680 1.376 1_455 S
C680 H667 0.953 . S
C680 C679 1.376 1_655 S
C680 C681 1.388 . S
C681 H668 0.930 . S
C681 C680 1.388 . S
C681 C682 1.390 . S
C682 C681 1.390 . S
C682 C683 1.394 . S
C682 C688 1.465 . S
C683 C678 1.399 . S
C683 C682 1.394 . S
C683 C684 1.516 . S
C684 C683 1.516 . S
C684 C685 1.502 . S
C684 C686 1.561 . S
C684 C687 1.526 . S
C685 H669 0.959 . S
C685 H670 0.959 . S
C685 H671 0.961 . S
C685 C684 1.502 . S
C686 H672 0.960 . S
C686 H673 0.961 . S
C686 H674 0.959 . S
C686 C684 1.561 . S
C687 C684 1.526 . S
C687 C688 1.396 . S
C687 C692 1.390 . S
C688 C682 1.465 . S
C688 C687 1.396 . S
C688 C689 1.399 . S
C689 H675 0.929 . S
C689 C688 1.399 . S
C689 C690 1.385 . S
C690 H676 0.931 . S
C690 C689 1.385 . S
C690 C691 1.389 . S
C691 C690 1.389 . S
C691 C692 1.387 . S
C692 H677 0.930 . S
C692 C687 1.390 . S
C692 C691 1.387 . S
H693 C705 0.930 1_545 S
H694 C707 0.930 . S
H695 C708 0.930 . S
H696 C712 0.959 . S
H697 C712 0.959 . S
H698 C712 0.961 . S
H699 C713 0.960 . S
H700 C713 0.961 . S
H701 C713 0.959 . S
H702 C716 0.929 . S
H703 C717 0.931 . S
H704 C719 0.930 . S
C705 H693 0.930 1_565 S
C705 C706 1.399 1_565 S
C705 C710 1.399 . S
C706 C705 1.399 1_545 S
C706 C707 1.376 1_545 S
C707 H694 0.930 . S
C707 C706 1.376 1_565 S
C707 C708 1.388 . S
C708 H695 0.930 . S
C708 C707 1.388 . S
C708 C709 1.390 . S
C709 C708 1.390 . S
C709 C710 1.394 . S
C709 C715 1.465 . S
C710 C705 1.399 . S
C710 C709 1.394 . S
C710 C711 1.516 . S
C711 C710 1.516 . S
C711 C712 1.502 . S
C711 C713 1.561 . S
C711 C714 1.526 . S
C712 H696 0.959 . S
C712 H697 0.959 . S
C712 H698 0.961 . S
C712 C711 1.502 . S
C713 H699 0.960 . S
C713 H700 0.961 . S
C713 H701 0.959 . S
C713 C711 1.561 . S
C714 C711 1.526 . S
C714 C715 1.396 . S
C714 C719 1.390 . S
C715 C709 1.465 . S
C715 C714 1.396 . S
C715 C716 1.399 . S
C716 H702 0.929 . S
C716 C715 1.399 . S
C716 C717 1.385 . S
C717 H703 0.931 . S
C717 C716 1.385 . S
C717 C718 1.389 . S
C718 C717 1.389 . S
C718 C719 1.387 . S
C719 H704 0.930 . S
C719 C714 1.390 . S
C719 C718 1.387 . S
H720 C732 0.930 . S
H721 C734 0.930 . S
H722 C735 0.930 . S
H723 C739 0.959 . S
H724 C739 0.959 . S
H725 C739 0.961 . S
H726 C740 0.960 . S
H727 C740 0.961 . S
H728 C740 0.959 1_556 S
H729 C743 0.929 . S
H730 C744 0.931 . S
H731 C746 0.930 1_554 S
C732 H720 0.930 . S
C732 C733 1.399 . S
C732 C737 1.399 . S
C733 C732 1.399 . S
C733 C734 1.376 1_554 S
C734 H721 0.930 . S
C734 C733 1.376 1_556 S
C734 C735 1.388 . S
C735 H722 0.930 . S
C735 C734 1.388 . S
C735 C736 1.390 . S
C736 C735 1.390 . S
C736 C737 1.394 1_556 S
C736 C742 1.465 . S
C737 C732 1.399 . S
C737 C736 1.394 1_554 S
C737 C738 1.516 . S
C738 C737 1.516 . S
C738 C739 1.502 . S
C738 C740 1.561 . S
C738 C741 1.526 1_554 S
C739 H723 0.959 . S
C739 H724 0.959 . S
C739 H725 0.961 . S
C739 C738 1.502 . S
C740 H726 0.960 . S
C740 H727 0.961 . S
C740 H728 0.959 1_554 S
C740 C738 1.561 . S
C741 C738 1.526 1_556 S
C741 C742 1.396 . S
C741 C746 1.390 . S
C742 C736 1.465 . S
C742 C741 1.396 . S
C742 C743 1.399 . S
C743 H729 0.929 . S
C743 C742 1.399 . S
C743 C744 1.385 . S
C744 H730 0.931 . S
C744 C743 1.385 . S
C744 C745 1.389 . S
C745 C744 1.389 . S
C745 C746 1.387 . S
C746 H731 0.930 1_556 S
C746 C741 1.390 . S
C746 C745 1.387 . S
H747 C759 0.930 . S
H748 C761 0.930 . S
H749 C762 0.930 . S
H750 C766 0.959 . S
H751 C766 0.959 . S
H752 C766 0.961 . S
H753 C767 0.960 . S
H754 C767 0.961 . S
H755 C767 0.959 . S
H756 C770 0.929 . S
H757 C771 0.931 . S
H758 C773 0.930 . S
C759 H747 0.930 . S
C759 C760 1.399 1_455 S
C759 C764 1.399 . S
C760 C759 1.399 1_655 S
C760 C761 1.376 . S
C761 H748 0.930 . S
C761 C760 1.376 . S
C761 C762 1.388 1_655 S
C762 H749 0.930 . S
C762 C761 1.388 1_455 S
C762 C763 1.390 . S
C763 C762 1.390 . S
C763 C764 1.394 . S
C763 C769 1.465 . S
C764 C759 1.399 . S
C764 C763 1.394 . S
C764 C765 1.516 . S
C765 C764 1.516 . S
C765 C766 1.502 . S
C765 C767 1.561 . S
C765 C768 1.526 . S
C766 H750 0.959 . S
C766 H751 0.959 . S
C766 H752 0.961 . S
C766 C765 1.502 . S
C767 H753 0.960 . S
C767 H754 0.961 . S
C767 H755 0.959 . S
C767 C765 1.561 . S
C768 C765 1.526 . S
C768 C769 1.396 . S
C768 C773 1.390 . S
C769 C763 1.465 . S
C769 C768 1.396 . S
C769 C770 1.399 . S
C770 H756 0.929 . S
C770 C769 1.399 . S
C770 C771 1.385 . S
C771 H757 0.931 . S
C771 C770 1.385 . S
C771 C772 1.389 . S
C772 C771 1.389 . S
C772 C773 1.387 . S
C773 H758 0.930 . S
C773 C768 1.390 . S
C773 C772 1.387 . S
H774 C786 0.930 . S
H775 C788 0.964 . S
H776 C789 0.930 . S
H777 C793 0.959 . S
H778 C793 0.959 . S
H779 C793 0.961 . S
H780 C794 0.960 . S
H781 C794 0.961 . S
H782 C794 0.959 . S
H783 C797 0.929 . S
H784 C798 0.931 . S
H785 C800 0.930 . S
C786 H774 0.930 . S
C786 C787 1.399 1_545 S
C786 C791 1.399 . S
C787 C786 1.399 1_565 S
C787 C788 1.374 . S
C788 H775 0.964 . S
C788 C787 1.374 . S
C788 C789 1.359 1_565 S
C789 H776 0.930 . S
C789 C788 1.359 1_545 S
C789 C790 1.390 . S
C790 C789 1.390 . S
C790 C791 1.394 . S
C790 C796 1.465 . S
C791 C786 1.399 . S
C791 C790 1.394 . S
C791 C792 1.516 . S
C792 C791 1.516 . S
C792 C793 1.502 . S
C792 C794 1.561 . S
C792 C795 1.526 . S
C793 H777 0.959 . S
C793 H778 0.959 . S
C793 H779 0.961 . S
C793 C792 1.502 . S
C794 H780 0.960 . S
C794 H781 0.961 . S
C794 H782 0.959 . S
C794 C792 1.561 . S
C795 C792 1.526 . S
C795 C796 1.396 . S
C795 C800 1.390 . S
C796 C790 1.465 . S
C796 C795 1.396 . S
C796 C797 1.399 . S
C797 H783 0.929 . S
C797 C796 1.399 . S
C797 C798 1.385 . S
C798 H784 0.931 . S
C798 C797 1.385 . S
C798 C799 1.389 . S
C799 C798 1.389 . S
C799 C800 1.387 . S
C800 H785 0.930 . S
C800 C795 1.390 . S
C800 C799 1.387 . S
H801 C813 0.930 . S
H802 C815 0.930 . S
H803 C816 0.930 . S
H804 C820 0.959 . S
H805 C820 0.959 . S
H806 C820 0.961 . S
H807 C821 0.960 . S
H808 C821 0.961 . S
H809 C821 0.959 . S
H810 C824 0.929 . S
H811 C825 0.931 . S
H812 C827 0.930 . S
C813 H801 0.930 . S
C813 C814 1.399 . S
C813 C818 1.399 . S
C814 C813 1.399 . S
C814 C815 1.376 . S
C815 H802 0.930 . S
C815 C814 1.376 . S
C815 C816 1.388 . S
C816 H803 0.930 . S
C816 C815 1.388 . S
C816 C817 1.390 . S
C817 C816 1.390 . S
C817 C818 1.394 . S
C817 C823 1.465 . S
C818 C813 1.399 . S
C818 C817 1.394 . S
C818 C819 1.516 . S
C819 C818 1.516 . S
C819 C820 1.502 . S
C819 C821 1.561 . S
C819 C822 1.526 . S
C820 H804 0.959 . S
C820 H805 0.959 . S
C820 H806 0.961 . S
C820 C819 1.502 . S
C821 H807 0.960 . S
C821 H808 0.961 . S
C821 H809 0.959 . S
C821 C819 1.561 . S
C822 C819 1.526 . S
C822 C823 1.396 . S
C822 C827 1.390 . S
C823 C817 1.465 . S
C823 C822 1.396 . S
C823 C824 1.399 . S
C824 H810 0.929 . S
C824 C823 1.399 . S
C824 C825 1.385 . S
C825 H811 0.931 . S
C825 C824 1.385 . S
C825 C826 1.389 . S
C826 C825 1.389 . S
C826 C827 1.387 . S
C827 H812 0.930 . S
C827 C822 1.390 . S
C827 C826 1.387 . S
H828 C840 0.930 . S
H829 C842 0.930 . S
H830 C843 0.930 . S
H831 C847 0.959 . S
H832 C847 0.959 . S
H833 C847 0.961 . S
H834 C848 0.960 . S
H835 C848 0.961 . S
H836 C848 0.959 . S
H837 C851 0.929 . S
H838 C852 0.931 . S
H839 C854 0.930 . S
C840 H828 0.930 . S
C840 C841 1.399 1_655 S
C840 C845 1.399 . S
C841 C840 1.399 1_455 S
C841 C842 1.376 . S
C842 H829 0.930 . S
C842 C841 1.376 . S
C842 C843 1.388 1_455 S
C843 H830 0.930 . S
C843 C842 1.388 1_655 S
C843 C844 1.390 . S
C844 C843 1.390 . S
C844 C845 1.394 . S
C844 C850 1.465 . S
C845 C840 1.399 . S
C845 C844 1.394 . S
C845 C846 1.516 . S
C846 C845 1.516 . S
C846 C847 1.502 . S
C846 C848 1.561 . S
C846 C849 1.526 . S
C847 H831 0.959 . S
C847 H832 0.959 . S
C847 H833 0.961 . S
C847 C846 1.502 . S
C848 H834 0.960 . S
C848 H835 0.961 . S
C848 H836 0.959 . S
C848 C846 1.561 . S
C849 C846 1.526 . S
C849 C850 1.396 . S
C849 C854 1.390 . S
C850 C844 1.465 . S
C850 C849 1.396 . S
C850 C851 1.399 . S
C851 H837 0.929 . S
C851 C850 1.399 . S
C851 C852 1.385 . S
C852 H838 0.931 . S
C852 C851 1.385 . S
C852 C853 1.389 . S
C853 C852 1.389 . S
C853 C854 1.387 . S
C854 H839 0.930 . S
C854 C849 1.390 . S
C854 C853 1.387 . S
H855 C867 0.930 . S
H856 C869 0.930 . S
H857 C870 0.930 . S
H858 C874 0.959 . S
H859 C874 0.959 . S
H860 C874 0.961 . S
H861 C875 0.960 . S
H862 C875 0.961 . S
H863 C875 0.959 . S
H864 C878 0.929 . S
H865 C879 0.931 . S
H866 C881 0.930 . S
C867 H855 0.930 . S
C867 C868 1.399 1_565 S
C867 C872 1.399 . S
C868 C867 1.399 1_545 S
C868 C869 1.376 . S
C869 H856 0.930 . S
C869 C868 1.376 . S
C869 C870 1.388 1_545 S
C870 H857 0.930 . S
C870 C869 1.388 1_565 S
C870 C871 1.390 . S
C871 C870 1.390 . S
C871 C872 1.394 . S
C871 C877 1.465 . S
C872 C867 1.399 . S
C872 C871 1.394 . S
C872 C873 1.516 . S
C873 C872 1.516 . S
C873 C874 1.502 . S
C873 C875 1.561 . S
C873 C876 1.526 . S
C874 H858 0.959 . S
C874 H859 0.959 . S
C874 H860 0.961 . S
C874 C873 1.502 . S
C875 H861 0.960 . S
C875 H862 0.961 . S
C875 H863 0.959 . S
C875 C873 1.561 . S
C876 C873 1.526 . S
C876 C877 1.396 . S
C876 C881 1.390 . S
C877 C871 1.465 . S
C877 C876 1.396 . S
C877 C878 1.399 . S
C878 H864 0.929 . S
C878 C877 1.399 . S
C878 C879 1.385 . S
C879 H865 0.931 . S
C879 C878 1.385 . S
C879 C880 1.389 . S
C880 C879 1.389 . S
C880 C881 1.387 . S
C881 H866 0.930 . S
C881 C876 1.390 . S
C881 C880 1.387 . S
H882 C894 0.930 . S
H883 C896 0.930 . S
H884 C897 0.930 . S
H885 C901 0.959 . S
H886 C901 0.959 . S
H887 C901 0.961 . S
H888 C902 0.960 . S
H889 C902 0.961 . S
H890 C902 0.959 . S
H891 C905 0.929 . S
H892 C906 0.931 . S
H893 C908 0.930 . S
C894 H882 0.930 . S
C894 C895 1.399 . S
C894 C899 1.399 . S
C895 C894 1.399 . S
C895 C896 1.376 . S
C896 H883 0.930 . S
C896 C895 1.376 . S
C896 C897 1.388 . S
C897 H884 0.930 . S
C897 C896 1.388 . S
C897 C898 1.390 . S
C898 C897 1.390 . S
C898 C899 1.394 . S
C898 C904 1.465 . S
C899 C894 1.399 . S
C899 C898 1.394 . S
C899 C900 1.516 . S
C900 C899 1.516 . S
C900 C901 1.502 . S
C900 C902 1.561 . S
C900 C903 1.526 . S
C901 H885 0.959 . S
C901 H886 0.959 . S
C901 H887 0.961 . S
C901 C900 1.502 . S
C902 H888 0.960 . S
C902 H889 0.961 . S
C902 H890 0.959 . S
C902 C900 1.561 . S
C903 C900 1.526 . S
C903 C904 1.396 . S
C903 C908 1.390 . S
C904 C898 1.465 . S
C904 C903 1.396 . S
C904 C905 1.399 . S
C905 H891 0.929 . S
C905 C904 1.399 . S
C905 C906 1.385 . S
C906 H892 0.931 . S
C906 C905 1.385 . S
C906 C907 1.389 . S
C907 C906 1.389 . S
C907 C908 1.387 . S
C908 H893 0.930 . S
C908 C903 1.390 . S
C908 C907 1.387 . S
H909 C921 0.930 . S
H910 C923 0.930 . S
H911 C924 0.930 . S
H912 C928 0.959 . S
H913 C928 0.959 . S
H914 C928 0.961 . S
H915 C929 0.960 . S
H916 C929 0.961 . S
H917 C929 0.959 . S
H918 C932 0.929 . S
H919 C933 0.931 . S
H920 C935 0.930 . S
C921 H909 0.930 . S
C921 C922 1.399 . S
C921 C926 1.399 . S
C922 C921 1.399 . S
C922 C923 1.376 . S
C923 H910 0.930 . S
C923 C922 1.376 . S
C923 C924 1.388 . S
C924 H911 0.930 . S
C924 C923 1.388 . S
C924 C925 1.390 . S
C925 C924 1.390 . S
C925 C926 1.394 . S
C925 C931 1.465 1_655 S
C926 C921 1.399 . S
C926 C925 1.394 . S
C926 C927 1.516 1_655 S
C927 C926 1.516 1_455 S
C927 C928 1.502 1_455 S
C927 C929 1.561 . S
C927 C930 1.526 . S
C928 H912 0.959 . S
C928 H913 0.959 . S
C928 H914 0.961 . S
C928 C927 1.502 1_655 S
C929 H915 0.960 . S
C929 H916 0.961 . S
C929 H917 0.959 . S
C929 C927 1.561 . S
C930 C927 1.526 . S
C930 C931 1.396 . S
C930 C935 1.390 . S
C931 C925 1.465 1_455 S
C931 C930 1.396 . S
C931 C932 1.399 . S
C932 H918 0.929 . S
C932 C931 1.399 . S
C932 C933 1.385 . S
C933 H919 0.931 . S
C933 C932 1.385 . S
C933 C934 1.389 . S
C934 C933 1.389 . S
C934 C935 1.387 . S
C935 H920 0.930 . S
C935 C930 1.390 . S
C935 C934 1.387 . S
H936 C948 0.930 . S
H937 C950 0.930 . S
H938 C951 0.930 . S
H939 C955 0.959 . S
H940 C955 0.959 . S
H941 C955 0.961 . S
H942 C956 0.960 . S
H943 C956 0.961 . S
H944 C956 0.959 . S
H945 C959 0.929 . S
H946 C960 0.931 . S
H947 C962 0.930 . S
C948 H936 0.930 . S
C948 C949 1.399 . S
C948 C953 1.399 . S
C949 C948 1.399 . S
C949 C950 1.376 . S
C950 H937 0.930 . S
C950 C949 1.376 . S
C950 C951 1.388 . S
C951 H938 0.930 . S
C951 C950 1.388 . S
C951 C952 1.390 . S
C952 C951 1.390 . S
C952 C953 1.394 . S
C952 C958 1.465 . S
C953 C948 1.399 . S
C953 C952 1.394 . S
C953 C954 1.516 1_565 S
C954 C953 1.516 1_545 S
C954 C955 1.502 . S
C954 C956 1.561 . S
C954 C957 1.526 . S
C955 H939 0.959 . S
C955 H940 0.959 . S
C955 H941 0.961 . S
C955 C954 1.502 . S
C956 H942 0.960 . S
C956 H943 0.961 . S
C956 H944 0.959 . S
C956 C954 1.561 . S
C957 C954 1.526 . S
C957 C958 1.396 1_545 S
C957 C962 1.390 . S
C958 C952 1.465 . S
C958 C957 1.396 1_565 S
C958 C959 1.399 . S
C959 H945 0.929 . S
C959 C958 1.399 . S
C959 C960 1.385 1_565 S
C960 H946 0.931 . S
C960 C959 1.385 1_545 S
C960 C961 1.389 . S
C961 C960 1.389 . S
C961 C962 1.387 . S
C962 H947 0.930 . S
C962 C957 1.390 . S
C962 C961 1.387 . S
H963 C975 0.930 . S
H964 C977 0.930 . S
H965 C978 0.930 . S
H966 C982 0.959 . S
H967 C982 0.959 . S
H968 C982 0.961 . S
H969 C983 0.960 . S
H970 C983 0.961 . S
H971 C983 0.959 . S
H972 C986 0.929 . S
H973 C987 0.931 . S
H974 C989 0.930 . S
C975 H963 0.930 . S
C975 C976 1.399 . S
C975 C980 1.399 . S
C976 C975 1.399 . S
C976 C977 1.376 . S
C977 H964 0.930 . S
C977 C976 1.376 . S
C977 C978 1.388 . S
C978 H965 0.930 . S
C978 C977 1.388 . S
C978 C979 1.390 . S
C979 C978 1.390 . S
C979 C980 1.394 . S
C979 C985 1.465 . S
C980 C975 1.399 . S
C980 C979 1.394 . S
C980 C981 1.516 . S
C981 C980 1.516 . S
C981 C982 1.502 . S
C981 C983 1.561 . S
C981 C984 1.526 . S
C982 H966 0.959 . S
C982 H967 0.959 . S
C982 H968 0.961 . S
C982 C981 1.502 . S
C983 H969 0.960 . S
C983 H970 0.961 . S
C983 H971 0.959 . S
C983 C981 1.561 . S
C984 C981 1.526 . S
C984 C985 1.396 . S
C984 C989 1.390 . S
C985 C979 1.465 . S
C985 C984 1.396 . S
C985 C986 1.399 . S
C986 H972 0.929 . S
C986 C985 1.399 . S
C986 C987 1.385 . S
C987 H973 0.931 . S
C987 C986 1.385 . S
C987 C988 1.389 . S
C988 C987 1.389 . S
C988 C989 1.387 . S
C989 H974 0.930 . S
C989 C984 1.390 . S
C989 C988 1.387 . S
H990 C1002 0.930 . S
H991 C1004 0.930 . S
H992 C1005 0.930 . S
H993 C1009 0.959 . S
H994 C1009 0.959 . S
H995 C1009 0.961 . S
H996 C1010 0.960 . S
H997 C1010 0.961 . S
H998 C1010 0.959 . S
H999 C1013 0.929 . S
H1000 C1014 0.931 . S
H1001 C1016 0.930 . S
C1002 H990 0.930 . S
C1002 C1003 1.399 . S
C1002 C1007 1.399 . S
C1003 C1002 1.399 . S
C1003 C1004 1.376 . S
C1004 H991 0.930 . S
C1004 C1003 1.376 . S
C1004 C1005 1.388 1_455 S
C1005 H992 0.930 . S
C1005 C1004 1.388 1_655 S
C1005 C1006 1.390 1_655 S
C1006 C1005 1.390 1_455 S
C1006 C1007 1.394 . S
C1006 C1012 1.465 1_455 S
C1007 C1002 1.399 . S
C1007 C1006 1.394 . S
C1007 C1008 1.516 . S
C1008 C1007 1.516 . S
C1008 C1009 1.502 . S
C1008 C1010 1.561 . S
C1008 C1011 1.526 1_455 S
C1009 H993 0.959 . S
C1009 H994 0.959 . S
C1009 H995 0.961 . S
C1009 C1008 1.502 . S
C1010 H996 0.960 . S
C1010 H997 0.961 . S
C1010 H998 0.959 . S
C1010 C1008 1.561 . S
C1011 C1008 1.526 1_655 S
C1011 C1012 1.396 . S
C1011 C1016 1.390 . S
C1012 C1006 1.465 1_655 S
C1012 C1011 1.396 . S
C1012 C1013 1.399 . S
C1013 H999 0.929 . S
C1013 C1012 1.399 . S
C1013 C1014 1.385 . S
C1014 H1000 0.931 . S
C1014 C1013 1.385 . S
C1014 C1015 1.389 . S
C1015 C1014 1.389 . S
C1015 C1016 1.387 . S
C1016 H1001 0.930 . S
C1016 C1011 1.390 . S
C1016 C1015 1.387 . S
H1017 C1029 0.930 . S
H1018 C1031 0.930 . S
H1019 C1032 0.930 . S
H1020 C1036 0.959 . S
H1021 C1036 0.959 . S
H1022 C1036 0.961 . S
H1023 C1037 0.960 . S
H1024 C1037 0.961 . S
H1025 C1037 0.959 . S
H1026 C1040 0.929 . S
H1027 C1041 0.931 . S
H1028 C1043 0.930 . S
C1029 H1017 0.930 . S
C1029 C1030 1.399 . S
C1029 C1034 1.399 . S
C1030 C1029 1.399 . S
C1030 C1031 1.376 . S
C1031 H1018 0.930 . S
C1031 C1030 1.376 . S
C1031 C1032 1.388 1_565 S
C1032 H1019 0.930 . S
C1032 C1031 1.388 1_545 S
C1032 C1033 1.377 1_545 S
C1033 C1032 1.377 1_565 S
C1033 C1034 1.430 . S
C1033 C1039 1.448 1_564 S
C1034 C1029 1.399 . S
C1034 C1033 1.430 . S
C1034 C1035 1.516 1_554 S
C1035 C1034 1.516 1_556 S
C1035 C1036 1.502 . S
C1035 C1037 1.561 . S
C1035 C1038 1.526 1_565 S
C1036 H1020 0.959 . S
C1036 H1021 0.959 . S
C1036 H1022 0.961 . S
C1036 C1035 1.502 . S
C1037 H1023 0.960 . S
C1037 H1024 0.961 . S
C1037 H1025 0.959 . S
C1037 C1035 1.561 . S
C1038 C1035 1.526 1_545 S
C1038 C1039 1.396 . S
C1038 C1043 1.390 . S
C1039 C1033 1.448 1_546 S
C1039 C1038 1.396 . S
C1039 C1040 1.399 . S
C1040 H1026 0.929 . S
C1040 C1039 1.399 . S
C1040 C1041 1.385 . S
C1041 H1027 0.931 . S
C1041 C1040 1.385 . S
C1041 C1042 1.389 . S
C1042 C1041 1.389 . S
C1042 C1043 1.387 . S
C1043 H1028 0.930 . S
C1043 C1038 1.390 . S
C1043 C1042 1.387 . S
H1044 C1056 0.930 . S
H1045 C1058 0.930 . S
H1046 C1059 0.930 . S
H1047 C1063 0.959 1_556 S
H1048 C1063 0.959 . S
H1049 C1063 0.961 . S
H1050 C1064 0.960 . S
H1051 C1064 0.961 . S
H1052 C1064 0.959 . S
H1053 C1067 0.929 . S
H1054 C1068 0.931 . S
H1055 C1070 0.930 . S
C1056 H1044 0.930 . S
C1056 C1057 1.399 . S
C1056 C1061 1.399 . S
C1057 C1056 1.399 . S
C1057 C1058 1.376 . S
C1058 H1045 0.930 . S
C1058 C1057 1.376 . S
C1058 C1059 1.388 . S
C1059 H1046 0.930 . S
C1059 C1058 1.388 . S
C1059 C1060 1.390 . S
C1060 C1059 1.390 . S
C1060 C1061 1.394 . S
C1060 C1066 1.465 . S
C1061 C1056 1.399 . S
C1061 C1060 1.394 . S
C1061 C1062 1.516 . S
C1062 C1061 1.516 . S
C1062 C1063 1.502 1_556 S
C1062 C1064 1.561 1_556 S
C1062 C1065 1.526 . S
C1063 H1047 0.959 1_554 S
C1063 H1048 0.959 . S
C1063 H1049 0.961 . S
C1063 C1062 1.502 1_554 S
C1064 H1050 0.960 . S
C1064 H1051 0.961 . S
C1064 H1052 0.959 . S
C1064 C1062 1.561 1_554 S
C1065 C1062 1.526 . S
C1065 C1066 1.396 . S
C1065 C1070 1.390 . S
C1066 C1060 1.465 . S
C1066 C1065 1.396 . S
C1066 C1067 1.399 . S
C1067 H1053 0.929 . S
C1067 C1066 1.399 . S
C1067 C1068 1.385 . S
C1068 H1054 0.931 . S
C1068 C1067 1.385 . S
C1068 C1069 1.389 . S
C1069 C1068 1.389 . S
C1069 C1070 1.387 . S
C1070 H1055 0.930 . S
C1070 C1065 1.390 . S
C1070 C1069 1.387 . S
H1071 C1083 0.930 . S
H1072 C1085 0.930 . S
H1073 C1086 0.930 . S
H1074 C1090 0.959 . S
H1075 C1090 0.959 . S
H1076 C1090 0.961 . S
H1077 C1091 0.960 1_556 S
H1078 C1091 0.961 1_556 S
H1079 C1091 0.959 . S
H1080 C1094 0.929 . S
H1081 C1095 0.931 . S
H1082 C1097 0.930 . S
C1083 H1071 0.930 . S
C1083 C1084 1.399 . S
C1083 C1088 1.399 . S
C1084 C1083 1.399 . S
C1084 C1085 1.376 . S
C1085 H1072 0.930 . S
C1085 C1084 1.376 . S
C1085 C1086 1.388 . S
C1086 H1073 0.930 . S
C1086 C1085 1.388 . S
C1086 C1087 1.390 . S
C1087 C1086 1.390 . S
C1087 C1088 1.394 . S
C1087 C1093 1.465 . S
C1088 C1083 1.399 . S
C1088 C1087 1.394 . S
C1088 C1089 1.516 . S
C1089 C1088 1.516 . S
C1089 C1090 1.502 1_554 S
C1089 C1091 1.561 . S
C1089 C1092 1.526 . S
C1090 H1074 0.959 . S
C1090 H1075 0.959 . S
C1090 H1076 0.961 . S
C1090 C1089 1.502 1_556 S
C1091 H1077 0.960 1_554 S
C1091 H1078 0.961 1_554 S
C1091 H1079 0.959 . S
C1091 C1089 1.561 . S
C1092 C1089 1.526 . S
C1092 C1093 1.396 . S
C1092 C1097 1.390 . S
C1093 C1087 1.465 . S
C1093 C1092 1.396 . S
C1093 C1094 1.399 . S
C1094 H1080 0.929 . S
C1094 C1093 1.399 . S
C1094 C1095 1.385 . S
C1095 H1081 0.931 . S
C1095 C1094 1.385 . S
C1095 C1096 1.389 . S
C1096 C1095 1.389 . S
C1096 C1097 1.387 . S
C1097 H1082 0.930 . S
C1097 C1092 1.390 . S
C1097 C1096 1.387 . S
H1098 C1110 0.930 . S
H1099 C1112 0.930 . S
H1100 C1113 0.930 . S
H1101 C1117 0.959 . S
H1102 C1117 0.959 . S
H1103 C1117 0.961 . S
H1104 C1118 0.960 . S
H1105 C1118 0.961 . S
H1106 C1118 0.959 . S
H1107 C1121 0.929 . S
H1108 C1122 0.931 . S
H1109 C1124 0.930 . S
C1110 H1098 0.930 . S
C1110 C1111 1.399 . S
C1110 C1115 1.399 . S
C1111 C1110 1.399 . S
C1111 C1112 1.376 . S
C1112 H1099 0.930 . S
C1112 C1111 1.376 . S
C1112 C1113 1.388 . S
C1113 H1100 0.930 . S
C1113 C1112 1.388 . S
C1113 C1114 1.390 . S
C1114 C1113 1.390 . S
C1114 C1115 1.394 . S
C1114 C1120 1.465 . S
C1115 C1110 1.399 . S
C1115 C1114 1.394 . S
C1115 C1116 1.516 . S
C1116 C1115 1.516 . S
C1116 C1117 1.502 . S
C1116 C1118 1.561 . S
C1116 C1119 1.526 . S
C1117 H1101 0.959 . S
C1117 H1102 0.959 . S
C1117 H1103 0.961 . S
C1117 C1116 1.502 . S
C1118 H1104 0.960 . S
C1118 H1105 0.961 . S
C1118 H1106 0.959 . S
C1118 C1116 1.561 . S
C1119 C1116 1.526 . S
C1119 C1120 1.396 . S
C1119 C1124 1.390 . S
C1120 C1114 1.465 . S
C1120 C1119 1.396 . S
C1120 C1121 1.399 . S
C1121 H1107 0.929 . S
C1121 C1120 1.399 . S
C1121 C1122 1.385 . S
C1122 H1108 0.931 . S
C1122 C1121 1.385 . S
C1122 C1123 1.389 . S
C1123 C1122 1.389 . S
C1123 C1124 1.387 . S
C1124 H1109 0.930 . S
C1124 C1119 1.390 . S
C1124 C1123 1.387 . S
H1125 C1137 0.930 . S
H1126 C1139 0.930 . S
H1127 C1140 0.930 . S
H1128 C1144 0.959 . S
H1129 C1144 0.959 . S
H1130 C1144 0.961 . S
H1131 C1145 0.960 . S
H1132 C1145 0.961 . S
H1133 C1145 0.959 . S
H1134 C1148 0.929 . S
H1135 C1149 0.931 . S
H1136 C1151 0.930 . S
C1137 H1125 0.930 . S
C1137 C1138 1.399 . S
C1137 C1142 1.399 . S
C1138 C1137 1.399 . S
C1138 C1139 1.376 . S
C1139 H1126 0.930 . S
C1139 C1138 1.376 . S
C1139 C1140 1.388 . S
C1140 H1127 0.930 . S
C1140 C1139 1.388 . S
C1140 C1141 1.390 . S
C1141 C1140 1.390 . S
C1141 C1142 1.394 . S
C1141 C1147 1.465 . S
C1142 C1137 1.399 . S
C1142 C1141 1.394 . S
C1142 C1143 1.516 . S
C1143 C1142 1.516 . S
C1143 C1144 1.502 . S
C1143 C1145 1.561 . S
C1143 C1146 1.526 . S
C1144 H1128 0.959 . S
C1144 H1129 0.959 . S
C1144 H1130 0.961 . S
C1144 C1143 1.502 . S
C1145 H1131 0.960 . S
C1145 H1132 0.961 . S
C1145 H1133 0.959 . S
C1145 C1143 1.561 . S
C1146 C1143 1.526 . S
C1146 C1147 1.396 . S
C1146 C1151 1.390 . S
C1147 C1141 1.465 . S
C1147 C1146 1.396 . S
C1147 C1148 1.399 . S
C1148 H1134 0.929 . S
C1148 C1147 1.399 . S
C1148 C1149 1.385 . S
C1149 H1135 0.931 . S
C1149 C1148 1.385 . S
C1149 C1150 1.389 . S
C1150 C1149 1.389 . S
C1150 C1151 1.387 . S
C1151 H1136 0.930 . S
C1151 C1146 1.390 . S
C1151 C1150 1.387 . S
H1152 C1164 0.930 . S
H1153 C1166 0.930 . S
H1154 C1167 0.930 . S
H1155 C1171 0.959 . S
H1156 C1171 0.959 . S
H1157 C1171 0.961 . S
H1158 C1172 0.960 . S
H1159 C1172 0.961 . S
H1160 C1172 0.959 . S
H1161 C1175 0.929 . S
H1162 C1176 0.931 . S
H1163 C1178 0.930 . S
C1164 H1152 0.930 . S
C1164 C1165 1.399 . S
C1164 C1169 1.399 . S
C1165 C1164 1.399 . S
C1165 C1166 1.376 . S
C1166 H1153 0.930 . S
C1166 C1165 1.376 . S
C1166 C1167 1.388 . S
C1167 H1154 0.930 . S
C1167 C1166 1.388 . S
C1167 C1168 1.390 . S
C1168 C1167 1.390 . S
C1168 C1169 1.394 . S
C1168 C1174 1.465 . S
C1169 C1164 1.399 . S
C1169 C1168 1.394 . S
C1169 C1170 1.516 . S
C1170 C1169 1.516 . S
C1170 C1171 1.502 . S
C1170 C1172 1.561 . S
C1170 C1173 1.526 . S
C1171 H1155 0.959 . S
C1171 H1156 0.959 . S
C1171 H1157 0.961 . S
C1171 C1170 1.502 . S
C1172 H1158 0.960 . S
C1172 H1159 0.961 . S
C1172 H1160 0.959 . S
C1172 C1170 1.561 . S
C1173 C1170 1.526 . S
C1173 C1174 1.396 . S
C1173 C1178 1.390 . S
C1174 C1168 1.465 . S
C1174 C1173 1.396 . S
C1174 C1175 1.399 . S
C1175 H1161 0.929 . S
C1175 C1174 1.399 . S
C1175 C1176 1.385 . S
C1176 H1162 0.931 . S
C1176 C1175 1.385 . S
C1176 C1177 1.389 . S
C1177 C1176 1.389 . S
C1177 C1178 1.387 . S
C1178 H1163 0.930 . S
C1178 C1173 1.390 . S
C1178 C1177 1.387 . S
H1179 C1191 0.930 . S
H1180 C1193 0.930 . S
H1181 C1194 0.930 . S
H1182 C1198 0.959 . S
H1183 C1198 0.959 . S
H1184 C1198 0.961 . S
H1185 C1199 0.960 . S
H1186 C1199 0.961 . S
H1187 C1199 0.959 . S
H1188 C1202 0.929 . S
H1189 C1203 0.931 . S
H1190 C1205 0.930 . S
C1191 H1179 0.930 . S
C1191 C1192 1.399 . S
C1191 C1196 1.399 . S
C1192 C1191 1.399 . S
C1192 C1193 1.376 . S
C1193 H1180 0.930 . S
C1193 C1192 1.376 . S
C1193 C1194 1.388 . S
C1194 H1181 0.930 . S
C1194 C1193 1.388 . S
C1194 C1195 1.390 . S
C1195 C1194 1.390 . S
C1195 C1196 1.394 . S
C1195 C1201 1.465 . S
C1196 C1191 1.399 . S
C1196 C1195 1.394 . S
C1196 C1197 1.516 . S
C1197 C1196 1.516 . S
C1197 C1198 1.502 . S
C1197 C1199 1.561 . S
C1197 C1200 1.526 . S
C1198 H1182 0.959 . S
C1198 H1183 0.959 . S
C1198 H1184 0.961 . S
C1198 C1197 1.502 . S
C1199 H1185 0.960 . S
C1199 H1186 0.961 . S
C1199 H1187 0.959 . S
C1199 C1197 1.561 . S
C1200 C1197 1.526 . S
C1200 C1201 1.396 . S
C1200 C1205 1.390 . S
C1201 C1195 1.465 . S
C1201 C1200 1.396 . S
C1201 C1202 1.399 . S
C1202 H1188 0.929 . S
C1202 C1201 1.399 . S
C1202 C1203 1.385 . S
C1203 H1189 0.931 . S
C1203 C1202 1.385 . S
C1203 C1204 1.389 . S
C1204 C1203 1.389 . S
C1204 C1205 1.387 . S
C1205 H1190 0.930 . S
C1205 C1200 1.390 . S
C1205 C1204 1.387 . S
C409 N343 0.926 . S
C421 N13 1.009 . S
C436 N46 1.116 . S
C448 N376 0.964 . S
C463 N79 0.987 . S
C475 N211 1.030 . S
C490 N112 0.940 . S
C502 N244 1.000 . S
C517 N145 0.939 . S
C529 N277 1.102 . S
C544 N178 1.067 . S
C556 N310 1.039 . S
C571 N2 1.735 . S
C583 C183 1.677 . S
C598 C18 1.691 . S
C610 N35 1.725 . S
C625 C51 1.744 . S
C637 N68 1.764 . S
C652 N101 1.735 . S
C664 C84 1.702 . S
C679 N134 1.801 . S
C691 C117 1.759 . S
C706 N167 1.760 . S
C718 C150 1.708 . S
C733 C249 1.691 . S
C745 N200 1.720 . S
C760 N233 1.719 . S
C772 C282 1.724 . S
C787 N266 1.774 . S
C799 C315 1.747 . S
C814 N299 1.809 . S
C826 C348 1.762 . S
C841 N332 1.728 . S
C853 C381 1.754 . S
C868 N365 1.740 . S
C880 C216 1.761 . S
C895 C7 0.696 . S
C907 C304 0.747 . S
C922 C40 0.851 . S
C934 C337 0.836 . S
C949 C73 0.791 . S
C961 C370 0.830 . S
C976 C106 0.859 . S
C988 C205 0.855 . S
C1003 C139 0.745 . S
C1015 C238 0.700 . S
C1030 C271 0.806 . S
C1042 C172 0.771 . S
C1057 C219 1.352 . S
C1069 C21 1.401 . S
C1084 C54 1.337 . S
C1096 C252 1.395 . S
C1111 C87 1.362 . S
C1123 C285 1.373 . S
C1138 C318 1.432 . S
C1150 C120 1.444 . S
C1165 C153 1.452 . S
C1177 C351 1.392 . S
C1192 C384 1.352 . S
C1204 C186 1.405 . S
