# Generated by pormake.
# Topology pcu-i, (5)-cn, num edge types: 1
# Building blocks:
#     Node 0, Type 0, BuildingBlock: XOMCOT_clean_sbu_1, # of connection points: 5
#     Node 1, Type 0, BuildingBlock: XOMCOT_clean_sbu_1, # of connection points: 5
#     Node 2, Type 0, BuildingBlock: XOMCOT_clean_sbu_1, # of connection points: 5
#     Node 3, Type 0, BuildingBlock: XOMCOT_clean_sbu_1, # of connection points: 5
#     Node 4, Type 0, BuildingBlock: XOMCOT_clean_sbu_1, # of connection points: 5
#     Node 5, Type 0, BuildingBlock: XOMCOT_clean_sbu_1, # of connection points: 5
#     Node 6, Type 0, BuildingBlock: XOMCOT_clean_sbu_1, # of connection points: 5
#     Node 7, Type 0, BuildingBlock: XOMCOT_clean_sbu_1, # of connection points: 5
#     Node 8, Type 0, BuildingBlock: XOMCOT_clean_sbu_1, # of connection points: 5
#     Node 9, Type 0, BuildingBlock: XOMCOT_clean_sbu_1, # of connection points: 5
#     Node 10, Type 0, BuildingBlock: XOMCOT_clean_sbu_1, # of connection points: 5
#     Node 11, Type 0, BuildingBlock: XOMCOT_clean_sbu_1, # of connection points: 5
#     Node 12, Type 0, BuildingBlock: XOMCOT_clean_sbu_1, # of connection points: 5
#     Node 13, Type 0, BuildingBlock: XOMCOT_clean_sbu_1, # of connection points: 5
#     Node 14, Type 0, BuildingBlock: XOMCOT_clean_sbu_1, # of connection points: 5
#     Node 15, Type 0, BuildingBlock: XOMCOT_clean_sbu_1, # of connection points: 5
#     Node 16, Type 0, BuildingBlock: XOMCOT_clean_sbu_1, # of connection points: 5
#     Node 17, Type 0, BuildingBlock: XOMCOT_clean_sbu_1, # of connection points: 5
#     Node 18, Type 0, BuildingBlock: XOMCOT_clean_sbu_1, # of connection points: 5
#     Node 19, Type 0, BuildingBlock: XOMCOT_clean_sbu_1, # of connection points: 5
#     Node 20, Type 0, BuildingBlock: XOMCOT_clean_sbu_1, # of connection points: 5
#     Node 21, Type 0, BuildingBlock: XOMCOT_clean_sbu_1, # of connection points: 5
#     Node 22, Type 0, BuildingBlock: XOMCOT_clean_sbu_1, # of connection points: 5
#     Node 23, Type 0, BuildingBlock: XOMCOT_clean_sbu_1, # of connection points: 5
#     Edge 24, Type (0, 0), BuildingBlock: UVAHIK_clean_linker_0, # of connection points: 2
#     Edge 25, Type (0, 0), BuildingBlock: UVAHIK_clean_linker_0, # of connection points: 2
#     Edge 26, Type (0, 0), BuildingBlock: UVAHIK_clean_linker_0, # of connection points: 2
#     Edge 27, Type (0, 0), BuildingBlock: UVAHIK_clean_linker_0, # of connection points: 2
#     Edge 28, Type (0, 0), BuildingBlock: UVAHIK_clean_linker_0, # of connection points: 2
#     Edge 29, Type (0, 0), BuildingBlock: UVAHIK_clean_linker_0, # of connection points: 2
#     Edge 30, Type (0, 0), BuildingBlock: UVAHIK_clean_linker_0, # of connection points: 2
#     Edge 31, Type (0, 0), BuildingBlock: UVAHIK_clean_linker_0, # of connection points: 2
#     Edge 32, Type (0, 0), BuildingBlock: UVAHIK_clean_linker_0, # of connection points: 2
#     Edge 33, Type (0, 0), BuildingBlock: UVAHIK_clean_linker_0, # of connection points: 2
#     Edge 34, Type (0, 0), BuildingBlock: UVAHIK_clean_linker_0, # of connection points: 2
#     Edge 35, Type (0, 0), BuildingBlock: UVAHIK_clean_linker_0, # of connection points: 2
#     Edge 36, Type (0, 0), BuildingBlock: UVAHIK_clean_linker_0, # of connection points: 2
#     Edge 37, Type (0, 0), BuildingBlock: UVAHIK_clean_linker_0, # of connection points: 2
#     Edge 38, Type (0, 0), BuildingBlock: UVAHIK_clean_linker_0, # of connection points: 2
#     Edge 39, Type (0, 0), BuildingBlock: UVAHIK_clean_linker_0, # of connection points: 2
#     Edge 40, Type (0, 0), BuildingBlock: UVAHIK_clean_linker_0, # of connection points: 2
#     Edge 41, Type (0, 0), BuildingBlock: UVAHIK_clean_linker_0, # of connection points: 2
#     Edge 42, Type (0, 0), BuildingBlock: UVAHIK_clean_linker_0, # of connection points: 2
#     Edge 43, Type (0, 0), BuildingBlock: UVAHIK_clean_linker_0, # of connection points: 2
#     Edge 44, Type (0, 0), BuildingBlock: UVAHIK_clean_linker_0, # of connection points: 2
#     Edge 45, Type (0, 0), BuildingBlock: UVAHIK_clean_linker_0, # of connection points: 2
#     Edge 46, Type (0, 0), BuildingBlock: UVAHIK_clean_linker_0, # of connection points: 2
#     Edge 47, Type (0, 0), BuildingBlock: UVAHIK_clean_linker_0, # of connection points: 2
#     Edge 48, Type (0, 0), BuildingBlock: UVAHIK_clean_linker_0, # of connection points: 2
#     Edge 49, Type (0, 0), BuildingBlock: UVAHIK_clean_linker_0, # of connection points: 2
#     Edge 50, Type (0, 0), BuildingBlock: UVAHIK_clean_linker_0, # of connection points: 2
#     Edge 51, Type (0, 0), BuildingBlock: UVAHIK_clean_linker_0, # of connection points: 2
#     Edge 52, Type (0, 0), BuildingBlock: UVAHIK_clean_linker_0, # of connection points: 2
#     Edge 53, Type (0, 0), BuildingBlock: UVAHIK_clean_linker_0, # of connection points: 2
#     Edge 54, Type (0, 0), BuildingBlock: UVAHIK_clean_linker_0, # of connection points: 2
#     Edge 55, Type (0, 0), BuildingBlock: UVAHIK_clean_linker_0, # of connection points: 2
#     Edge 56, Type (0, 0), BuildingBlock: UVAHIK_clean_linker_0, # of connection points: 2
#     Edge 57, Type (0, 0), BuildingBlock: UVAHIK_clean_linker_0, # of connection points: 2
#     Edge 58, Type (0, 0), BuildingBlock: UVAHIK_clean_linker_0, # of connection points: 2
#     Edge 59, Type (0, 0), BuildingBlock: UVAHIK_clean_linker_0, # of connection points: 2
#     Edge 60, Type (0, 0), BuildingBlock: UVAHIK_clean_linker_0, # of connection points: 2
#     Edge 61, Type (0, 0), BuildingBlock: UVAHIK_clean_linker_0, # of connection points: 2
#     Edge 62, Type (0, 0), BuildingBlock: UVAHIK_clean_linker_0, # of connection points: 2
#     Edge 63, Type (0, 0), BuildingBlock: UVAHIK_clean_linker_0, # of connection points: 2
#     Edge 64, Type (0, 0), BuildingBlock: UVAHIK_clean_linker_0, # of connection points: 2
#     Edge 65, Type (0, 0), BuildingBlock: UVAHIK_clean_linker_0, # of connection points: 2
#     Edge 66, Type (0, 0), BuildingBlock: UVAHIK_clean_linker_0, # of connection points: 2
#     Edge 67, Type (0, 0), BuildingBlock: UVAHIK_clean_linker_0, # of connection points: 2
#     Edge 68, Type (0, 0), BuildingBlock: UVAHIK_clean_linker_0, # of connection points: 2
#     Edge 69, Type (0, 0), BuildingBlock: UVAHIK_clean_linker_0, # of connection points: 2
#     Edge 70, Type (0, 0), BuildingBlock: UVAHIK_clean_linker_0, # of connection points: 2
#     Edge 71, Type (0, 0), BuildingBlock: UVAHIK_clean_linker_0, # of connection points: 2
#     Edge 72, Type (0, 0), BuildingBlock: UVAHIK_clean_linker_0, # of connection points: 2
#     Edge 73, Type (0, 0), BuildingBlock: UVAHIK_clean_linker_0, # of connection points: 2
#     Edge 74, Type (0, 0), BuildingBlock: UVAHIK_clean_linker_0, # of connection points: 2
#     Edge 75, Type (0, 0), BuildingBlock: UVAHIK_clean_linker_0, # of connection points: 2
#     Edge 76, Type (0, 0), BuildingBlock: UVAHIK_clean_linker_0, # of connection points: 2
#     Edge 77, Type (0, 0), BuildingBlock: UVAHIK_clean_linker_0, # of connection points: 2
#     Edge 78, Type (0, 0), BuildingBlock: UVAHIK_clean_linker_0, # of connection points: 2
#     Edge 79, Type (0, 0), BuildingBlock: UVAHIK_clean_linker_0, # of connection points: 2
#     Edge 80, Type (0, 0), BuildingBlock: UVAHIK_clean_linker_0, # of connection points: 2
#     Edge 81, Type (0, 0), BuildingBlock: UVAHIK_clean_linker_0, # of connection points: 2
#     Edge 82, Type (0, 0), BuildingBlock: UVAHIK_clean_linker_0, # of connection points: 2
#     Edge 83, Type (0, 0), BuildingBlock: UVAHIK_clean_linker_0, # of connection points: 2
# Relax obj value: 0.241
# Max RMSD: 0.244
# Mean RMSD: 0.244
data_MOF--net-pcu-i--node1-XOMCOT_clean_sbu_1--edge1-UVAHIK_clean_linker_0
_symmetry_space_group_name_H-M    P1
_symmetry_Int_Tables_number       1
_symmetry_cell_setting            triclinic
loop_
_symmetry_equiv_pos_as_xyz
'x, y, z'
_cell_length_a     71.013132
_cell_length_b     71.057994
_cell_length_c     71.052
_cell_angle_alpha  90.023483
_cell_angle_beta   90.016629
_cell_angle_gamma 90.033252
loop_
_atom_site_label
_atom_site_type_symbol
_atom_site_fract_x
_atom_site_fract_y
_atom_site_fract_z
_atom_type_partial_charge
C0 C 0.07565 0.17191 0.3561 0.0
C1 C 0.05777 0.16449 0.35586 0.0
N2 N 0.05726 0.15058 0.34297 0.0
N3 N 0.0864 0.16251 0.34362 0.0
C4 C 0.07478 0.14974 0.33567 0.0
H5 H 0.08051 0.18351 0.36469 0.0
Co6 Co 0.11139 0.16753 0.33823 0.0
C7 C 0.12929 0.13032 0.34192 0.0
O8 O 0.14277 0.13824 0.35187 0.0
N9 N 0.13629 0.17346 0.33171 0.0
C10 C 0.15891 0.19148 0.3194 0.0
C11 C 0.14345 0.19109 0.33111 0.0
C12 C 0.14735 0.16362 0.31973 0.0
N13 N 0.1613 0.1741 0.31236 0.0
O14 O 0.10569 0.16963 0.31224 0.0
H15 H 0.13662 0.2034 0.33686 0.0
H16 H 0.14391 0.14979 0.31442 0.0
O17 O 0.11607 0.14044 0.33506 0.0
C18 C 0.09924 0.18529 0.30652 0.0
O19 O 0.0933 0.19756 0.31902 0.0
N20 N 0.1171 0.16612 0.3644 0.0
C21 C 0.12587 0.16416 0.40265 0.0
C22 C 0.11626 0.14942 0.39381 0.0
C23 C 0.11157 0.15089 0.37482 0.0
C24 C 0.12531 0.18113 0.37315 0.0
C25 C 0.12996 0.1804 0.39227 0.0
H26 H 0.10361 0.13959 0.36844 0.0
H27 H 0.12811 0.19388 0.36551 0.0
H28 H 0.07907 0.1401 0.32468 0.0
H29 H 0.0459 0.16936 0.36409 0.0
H30 H 0.16689 0.2038 0.31531 0.0
H31 H 0.11223 0.13693 0.40157 0.0
H32 H 0.13691 0.19231 0.3988 0.0
C33 C 0.8116 0.07447 0.32843 0.0
C34 C 0.81484 0.0557 0.32504 0.0
N35 N 0.83357 0.05286 0.32522 0.0
N36 N 0.82822 0.0834 0.33051 0.0
C37 C 0.84139 0.06981 0.32866 0.0
H38 H 0.79801 0.08132 0.32881 0.0
Co39 Co 0.8304 0.10922 0.33257 0.0
C40 C 0.87059 0.1187 0.3293 0.0
O41 O 0.86818 0.13149 0.34244 0.0
N42 N 0.832 0.1359 0.334 0.0
C43 C 0.83084 0.16651 0.34075 0.0
C44 C 0.82731 0.14863 0.34735 0.0
C45 C 0.83798 0.14656 0.31938 0.0
N46 N 0.8376 0.16518 0.32309 0.0
O47 O 0.82232 0.11159 0.30709 0.0
H48 H 0.82154 0.14553 0.36101 0.0
H49 H 0.84247 0.1406 0.30613 0.0
O50 O 0.85687 0.10813 0.32427 0.0
C51 C 0.80546 0.11751 0.3059 0.0
O52 O 0.79585 0.12012 0.3215 0.0
N53 N 0.83681 0.10641 0.35804 0.0
C54 C 0.8425 0.10612 0.39672 0.0
C55 C 0.85649 0.09938 0.38458 0.0
C56 C 0.85326 0.09939 0.36516 0.0
C57 C 0.82228 0.11058 0.36982 0.0
C58 C 0.82497 0.11112 0.38923 0.0
H59 H 0.8641 0.094 0.35601 0.0
H60 H 0.80877 0.11453 0.36398 0.0
H61 H 0.85641 0.07231 0.3291 0.0
H62 H 0.8043 0.04497 0.32253 0.0
H63 H 0.82859 0.17942 0.34849 0.0
H64 H 0.87002 0.09485 0.38996 0.0
H65 H 0.81362 0.11578 0.39828 0.0
C66 C 0.92115 0.8081 0.35427 0.0
C67 C 0.94031 0.81085 0.35345 0.0
N68 N 0.94367 0.8262 0.34284 0.0
N69 N 0.91251 0.82177 0.34438 0.0
C70 C 0.92659 0.83246 0.33738 0.0
H71 H 0.9139 0.79718 0.362 0.0
Co72 Co 0.8867 0.82508 0.34308 0.0
C73 C 0.8808 0.86569 0.34099 0.0
O74 O 0.86804 0.86382 0.35424 0.0
N75 N 0.86017 0.82825 0.34106 0.0
C76 C 0.82884 0.82948 0.3433 0.0
C77 C 0.84524 0.82418 0.35221 0.0
C78 C 0.85225 0.83563 0.32537 0.0
N79 N 0.83336 0.83662 0.32639 0.0
O80 O 0.88692 0.81672 0.3176 0.0
H81 H 0.84576 0.81768 0.36587 0.0
H82 H 0.86032 0.84062 0.31345 0.0
O83 O 0.88989 0.85136 0.33499 0.0
C84 C 0.88209 0.79949 0.3169 0.0
O85 O 0.87961 0.79044 0.33285 0.0
N86 N 0.88693 0.83159 0.36879 0.0
C87 C 0.88603 0.83784 0.40741 0.0
C88 C 0.89629 0.84988 0.39565 0.0
C89 C 0.89687 0.84628 0.37632 0.0
C90 C 0.8791 0.8185 0.38038 0.0
C91 C 0.87783 0.82167 0.3997 0.0
H92 H 0.90524 0.85537 0.36745 0.0
H93 H 0.87359 0.80557 0.37453 0.0
H94 H 0.9244 0.84502 0.32906 0.0
H95 H 0.95094 0.80232 0.36026 0.0
H96 H 0.81469 0.82791 0.34874 0.0
H97 H 0.90342 0.86213 0.40127 0.0
H98 H 0.87059 0.81157 0.40853 0.0
C99 C 0.18407 0.91402 0.35789 0.0
C100 C 0.17942 0.93264 0.35993 0.0
N101 N 0.16437 0.93627 0.34896 0.0
N102 N 0.172 0.9059 0.34574 0.0
C103 C 0.16021 0.9198 0.34037 0.0
H104 H 0.19554 0.90679 0.36481 0.0
Co105 Co 0.17328 0.88074 0.33931 0.0
C106 C 0.13441 0.86746 0.33489 0.0
O107 O 0.13941 0.85233 0.34429 0.0
N108 N 0.17538 0.8552 0.33214 0.0
C109 C 0.18175 0.82476 0.32785 0.0
C110 C 0.18448 0.84012 0.33939 0.0
C111 C 0.16795 0.84867 0.31586 0.0
N112 N 0.17117 0.83022 0.31314 0.0
O113 O 0.18034 0.88719 0.31427 0.0
H114 H 0.19277 0.83992 0.35206 0.0
H115 H 0.16009 0.85739 0.30617 0.0
O116 O 0.14638 0.88065 0.33196 0.0
C117 C 0.19726 0.89229 0.31141 0.0
O118 O 0.20818 0.8957 0.32595 0.0
N119 N 0.16725 0.87472 0.36449 0.0
C120 C 0.1605 0.86679 0.40242 0.0
C121 C 0.14716 0.87652 0.39159 0.0
C122 C 0.15092 0.8806 0.37279 0.0
C123 C 0.18116 0.86715 0.37528 0.0
C124 C 0.1779 0.86245 0.39409 0.0
H125 H 0.14079 0.88891 0.36509 0.0
H126 H 0.19503 0.86509 0.3694 0.0
H127 H 0.14868 0.91784 0.3306 0.0
H128 H 0.18676 0.94277 0.36863 0.0
H129 H 0.18683 0.81062 0.33033 0.0
H130 H 0.13403 0.88134 0.39764 0.0
H131 H 0.18897 0.85551 0.40192 0.0
C132 C 0.07367 0.81401 0.64833 0.0
C133 C 0.05503 0.81911 0.6492 0.0
N134 N 0.0535 0.83401 0.66083 0.0
N135 N 0.08385 0.82577 0.65918 0.0
C136 C 0.07117 0.83769 0.66682 0.0
H137 H 0.07949 0.80256 0.64016 0.0
Co138 Co 0.10979 0.8249 0.66169 0.0
C139 C 0.12233 0.86421 0.66096 0.0
O140 O 0.13615 0.8588 0.6499 0.0
N141 N 0.13627 0.82356 0.66487 0.0
C142 C 0.16716 0.81811 0.66357 0.0
C143 C 0.1501 0.81491 0.65501 0.0
C144 C 0.1454 0.83132 0.67972 0.0
N145 N 0.16414 0.82846 0.67911 0.0
O146 O 0.10721 0.81929 0.68771 0.0
H147 H 0.14836 0.80652 0.64254 0.0
H148 H 0.13841 0.83939 0.6906 0.0
O149 O 0.11049 0.85209 0.66709 0.0
C150 C 0.10528 0.80165 0.69004 0.0
O151 O 0.10358 0.79096 0.67503 0.0
N152 N 0.1118 0.82892 0.63552 0.0
C153 C 0.11586 0.83164 0.5967 0.0
C154 C 0.10773 0.84641 0.6069 0.0
C155 C 0.10545 0.84461 0.62634 0.0
C156 C 0.11725 0.81359 0.62539 0.0
C157 C 0.12011 0.81484 0.60602 0.0
H158 H 0.09854 0.85582 0.63391 0.0
H159 H 0.11955 0.80031 0.63245 0.0
H160 H 0.07483 0.84906 0.67628 0.0
H161 H 0.04347 0.8123 0.64197 0.0
H162 H 0.18071 0.81295 0.65889 0.0
H163 H 0.10353 0.85933 0.59999 0.0
H164 H 0.12547 0.80277 0.59839 0.0
C165 C 0.17392 0.07376 0.6398 0.0
C166 C 0.16628 0.05607 0.63848 0.0
N167 N 0.15239 0.05459 0.65131 0.0
N168 N 0.16476 0.08349 0.65324 0.0
C169 C 0.15183 0.0714 0.6602 0.0
H170 H 0.18563 0.0791 0.63168 0.0
Co171 Co 0.17089 0.1078 0.66016 0.0
C172 C 0.13521 0.12798 0.66668 0.0
O173 O 0.14285 0.14293 0.65892 0.0
N174 N 0.1779 0.1323 0.66776 0.0
C175 C 0.1893 0.16126 0.67148 0.0
C176 C 0.18824 0.14601 0.65957 0.0
C177 C 0.17343 0.13945 0.68483 0.0
N178 N 0.17985 0.15712 0.68739 0.0
O179 O 0.17655 0.0995 0.68499 0.0
H180 H 0.19467 0.14533 0.64586 0.0
H181 H 0.16521 0.1318 0.69508 0.0
O182 O 0.14458 0.11262 0.66776 0.0
C183 C 0.19359 0.0949 0.68796 0.0
O184 O 0.20483 0.09287 0.6734 0.0
N185 N 0.16622 0.11558 0.63515 0.0
C186 C 0.16256 0.12576 0.59742 0.0
C187 C 0.14667 0.12125 0.60816 0.0
C188 C 0.14885 0.1156 0.62684 0.0
C189 C 0.1819 0.11857 0.62448 0.0
C190 C 0.18041 0.12392 0.60562 0.0
H191 H 0.13654 0.11083 0.63432 0.0
H192 H 0.19569 0.11668 0.63066 0.0
H193 H 0.14229 0.07481 0.67157 0.0
H194 H 0.17099 0.04495 0.6292 0.0
H195 H 0.19616 0.1745 0.66838 0.0
H196 H 0.13271 0.12158 0.60201 0.0
H197 H 0.19306 0.12672 0.59758 0.0
C198 C 0.9181 0.18532 0.63676 0.0
C199 C 0.93713 0.18205 0.63609 0.0
N200 N 0.94114 0.1677 0.64782 0.0
N201 N 0.9101 0.17306 0.64878 0.0
C202 C 0.92449 0.16257 0.65547 0.0
H203 H 0.91048 0.19588 0.62888 0.0
Co204 Co 0.88446 0.17223 0.65305 0.0
C205 C 0.87479 0.13299 0.66134 0.0
O206 O 0.8599 0.13508 0.65054 0.0
N207 N 0.85822 0.17215 0.65789 0.0
C208 C 0.82684 0.1734 0.65772 0.0
C209 C 0.84293 0.17669 0.64744 0.0
C210 C 0.8509 0.16688 0.67468 0.0
N211 N 0.83195 0.16718 0.67484 0.0
O212 O 0.88808 0.18235 0.67755 0.0
H213 H 0.84302 0.18185 0.63321 0.0
H214 H 0.85935 0.16186 0.68631 0.0
O215 O 0.88646 0.14658 0.66338 0.0
C216 C 0.88964 0.20012 0.67897 0.0
O217 O 0.89085 0.21024 0.66355 0.0
N218 N 0.88134 0.16315 0.62829 0.0
C219 C 0.87787 0.15289 0.59044 0.0
C220 C 0.8869 0.14099 0.60336 0.0
C221 C 0.88877 0.14651 0.62212 0.0
C222 C 0.87428 0.17564 0.61561 0.0
C223 C 0.87179 0.17061 0.59678 0.0
H224 H 0.8967 0.13755 0.63148 0.0
H225 H 0.8706 0.1897 0.62013 0.0
H226 H 0.92277 0.1512 0.66545 0.0
H227 H 0.94726 0.18981 0.62776 0.0
H228 H 0.8125 0.17528 0.65292 0.0
H229 H 0.89292 0.12769 0.599 0.0
H230 H 0.86512 0.18055 0.58738 0.0
C231 C 0.82633 0.92736 0.6436 0.0
C232 C 0.83387 0.94517 0.64333 0.0
N233 N 0.84633 0.9466 0.65757 0.0
N234 N 0.83412 0.91758 0.65784 0.0
C235 C 0.84611 0.92971 0.66625 0.0
H236 H 0.81584 0.92185 0.63404 0.0
Co237 Co 0.82877 0.89278 0.66351 0.0
C238 C 0.8649 0.87539 0.67428 0.0
O239 O 0.85972 0.86008 0.66528 0.0
N240 N 0.82271 0.86764 0.66979 0.0
C241 C 0.814 0.83758 0.67144 0.0
C242 C 0.81495 0.85321 0.66008 0.0
C243 C 0.82566 0.86045 0.68718 0.0
N244 N 0.82091 0.84213 0.6885 0.0
O245 O 0.81877 0.90025 0.68723 0.0
H246 H 0.81041 0.85354 0.64564 0.0
H247 H 0.83173 0.86853 0.69857 0.0
O248 O 0.85399 0.88973 0.67465 0.0
C249 C 0.80146 0.90478 0.68662 0.0
O250 O 0.79327 0.90606 0.67008 0.0
N251 N 0.83757 0.88602 0.6394 0.0
C252 C 0.84702 0.87902 0.60181 0.0
C253 C 0.86069 0.88511 0.61473 0.0
C254 C 0.85564 0.88882 0.63335 0.0
C255 C 0.82388 0.88158 0.62673 0.0
C256 C 0.82833 0.8774 0.60808 0.0
H257 H 0.86616 0.89472 0.64258 0.0
H258 H 0.8093 0.88156 0.6311 0.0
H259 H 0.85461 0.92619 0.67838 0.0
H260 H 0.83018 0.95631 0.63362 0.0
H261 H 0.8092 0.82377 0.66717 0.0
H262 H 0.87509 0.88766 0.6104 0.0
H263 H 0.81713 0.87307 0.5987 0.0
C264 C 0.34774 0.08545 0.18586 0.0
C265 C 0.3482 0.06621 0.18438 0.0
N266 N 0.33815 0.06108 0.1691 0.0
N267 N 0.33754 0.0925 0.17154 0.0
C268 C 0.33181 0.07736 0.16156 0.0
H269 H 0.3546 0.09384 0.19655 0.0
Co270 Co 0.33364 0.118 0.16778 0.0
C271 C 0.33605 0.1239 0.12718 0.0
O272 O 0.34656 0.13868 0.13091 0.0
N273 N 0.32902 0.14406 0.16431 0.0
C274 C 0.32807 0.17544 0.16371 0.0
C275 C 0.33795 0.15996 0.16987 0.0
C276 C 0.31356 0.15044 0.15515 0.0
N277 N 0.3127 0.16936 0.15449 0.0
O278 O 0.30741 0.11482 0.17263 0.0
H279 H 0.35068 0.16075 0.17803 0.0
H280 H 0.30322 0.14129 0.1487 0.0
O281 O 0.32956 0.11384 0.14064 0.0
C282 C 0.30311 0.11241 0.18984 0.0
O283 O 0.31667 0.11052 0.20227 0.0
N284 N 0.3599 0.12072 0.16451 0.0
C285 C 0.39895 0.12403 0.16313 0.0
C286 C 0.38938 0.11314 0.14978 0.0
C287 C 0.36985 0.11136 0.15093 0.0
C288 C 0.36928 0.12953 0.17875 0.0
C289 C 0.38877 0.132 0.17798 0.0
H290 H 0.36283 0.10217 0.14106 0.0
H291 H 0.3616 0.13451 0.1909 0.0
H292 H 0.32313 0.07829 0.14908 0.0
H293 H 0.35581 0.05682 0.19364 0.0
H294 H 0.3317 0.19003 0.16619 0.0
H295 H 0.39689 0.10619 0.13848 0.0
H296 H 0.39585 0.13972 0.18907 0.0
C297 C 0.9069 0.35835 0.17866 0.0
C298 C 0.92591 0.35817 0.17505 0.0
N299 N 0.92942 0.34448 0.16241 0.0
N300 N 0.89845 0.34498 0.16818 0.0
C301 C 0.91255 0.33659 0.15859 0.0
H302 H 0.89966 0.36767 0.18827 0.0
Co303 Co 0.87281 0.3403 0.16775 0.0
C304 C 0.86364 0.32916 0.12872 0.0
O305 O 0.84788 0.33877 0.12996 0.0
N306 N 0.84669 0.33512 0.16792 0.0
C307 C 0.81534 0.33578 0.1685 0.0
C308 C 0.83151 0.346 0.17163 0.0
C309 C 0.83926 0.31816 0.16341 0.0
N310 N 0.82029 0.31829 0.16318 0.0
O311 O 0.87695 0.31658 0.1794 0.0
H312 H 0.83182 0.36054 0.17589 0.0
H313 H 0.84769 0.30625 0.15904 0.0
O314 O 0.87512 0.32886 0.14261 0.0
C315 C 0.87552 0.31828 0.19717 0.0
O316 O 0.87299 0.33522 0.20417 0.0
N317 N 0.86912 0.36455 0.15781 0.0
C318 C 0.86605 0.40259 0.14875 0.0
C319 C 0.87234 0.38959 0.13533 0.0
C320 C 0.87434 0.37067 0.14032 0.0
C321 C 0.86386 0.37721 0.17121 0.0
C322 C 0.86199 0.39626 0.16696 0.0
H323 H 0.88077 0.36127 0.1303 0.0
H324 H 0.86134 0.37246 0.18546 0.0
H325 H 0.91049 0.3251 0.14881 0.0
H326 H 0.93637 0.36725 0.18142 0.0
H327 H 0.80105 0.34096 0.16964 0.0
H328 H 0.87638 0.39414 0.12135 0.0
H329 H 0.85747 0.40595 0.17783 0.0
C330 C 0.64263 0.91827 0.18744 0.0
C331 C 0.64214 0.93669 0.18158 0.0
N332 N 0.65471 0.93881 0.16752 0.0
N333 N 0.65529 0.90878 0.17699 0.0
C334 C 0.66259 0.92168 0.1651 0.0
H335 H 0.63427 0.91212 0.19858 0.0
Co336 Co 0.66069 0.88338 0.17948 0.0
C337 C 0.66171 0.86828 0.14129 0.0
O338 O 0.65118 0.85454 0.14786 0.0
N339 N 0.66708 0.8576 0.18239 0.0
C340 C 0.67058 0.82702 0.18866 0.0
C341 C 0.65973 0.8428 0.19187 0.0
C342 C 0.68277 0.85046 0.17427 0.0
N343 N 0.68497 0.83191 0.17737 0.0
O344 O 0.68611 0.88933 0.18563 0.0
H345 H 0.64734 0.84302 0.20058 0.0
H346 H 0.69237 0.8588 0.16588 0.0
O347 O 0.66697 0.88156 0.15235 0.0
C348 C 0.68793 0.89322 0.20302 0.0
O349 O 0.67263 0.89462 0.21334 0.0
N350 N 0.63496 0.8781 0.17478 0.0
C351 C 0.59645 0.87182 0.1703 0.0
C352 C 0.6068 0.88092 0.15623 0.0
C353 C 0.62596 0.88427 0.15889 0.0
C354 C 0.62465 0.87101 0.18932 0.0
C355 C 0.60549 0.8671 0.18717 0.0
H356 H 0.6335 0.89205 0.14823 0.0
H357 H 0.63118 0.86892 0.20288 0.0
H358 H 0.67331 0.91854 0.15474 0.0
H359 H 0.63345 0.94774 0.18743 0.0
H360 H 0.66777 0.81297 0.19382 0.0
H361 H 0.60017 0.88538 0.14325 0.0
H362 H 0.59769 0.86098 0.19875 0.0
C363 C 0.08094 0.64019 0.17713 0.0
C364 C 0.06214 0.63991 0.17249 0.0
N365 N 0.05887 0.65386 0.16007 0.0
N366 N 0.08949 0.65411 0.1675 0.0
C367 C 0.07567 0.66231 0.15737 0.0
H368 H 0.08794 0.63091 0.18696 0.0
Co369 Co 0.11473 0.6606 0.16865 0.0
C370 C 0.12651 0.66651 0.12942 0.0
O371 O 0.14233 0.65767 0.13316 0.0
N372 N 0.14035 0.66797 0.1702 0.0
C373 C 0.17112 0.67181 0.17519 0.0
C374 C 0.15593 0.66002 0.17774 0.0
C375 C 0.14651 0.68479 0.1637 0.0
N376 N 0.16514 0.68736 0.16622 0.0
O377 O 0.10809 0.68534 0.17609 0.0
H378 H 0.15662 0.64657 0.18468 0.0
H379 H 0.13739 0.69497 0.15699 0.0
O380 O 0.11399 0.66835 0.14221 0.0
C381 C 0.10388 0.68755 0.19333 0.0
O382 O 0.10207 0.67258 0.20403 0.0
N383 N 0.1209 0.63559 0.16239 0.0
C384 C 0.12687 0.59694 0.15767 0.0
C385 C 0.11865 0.60777 0.14331 0.0
C386 C 0.11556 0.62698 0.14603 0.0
C387 C 0.12767 0.62509 0.17692 0.0
C388 C 0.13137 0.60595 0.17469 0.0
H389 H 0.10802 0.63463 0.1353 0.0
H390 H 0.12972 0.63153 0.19055 0.0
H391 H 0.07791 0.67421 0.14814 0.0
H392 H 0.05162 0.63044 0.17815 0.0
H393 H 0.18551 0.6689 0.17927 0.0
H394 H 0.11392 0.60138 0.13031 0.0
H395 H 0.13747 0.59832 0.18637 0.0
C396 C 0.35888 0.90626 0.81745 0.0
C397 C 0.36065 0.9251 0.82125 0.0
N398 N 0.3482 0.92962 0.83483 0.0
N399 N 0.34549 0.89889 0.82867 0.0
C400 C 0.33906 0.91348 0.839 0.0
H401 H 0.36684 0.89837 0.80715 0.0
Co402 Co 0.33899 0.87373 0.82858 0.0
C403 C 0.32925 0.86368 0.86758 0.0
O404 O 0.33804 0.84761 0.86505 0.0
N405 N 0.332 0.8481 0.82776 0.0
C406 C 0.33012 0.81682 0.82674 0.0
C407 C 0.34161 0.83214 0.82379 0.0
C408 C 0.31451 0.84201 0.83227 0.0
N409 N 0.31311 0.82313 0.83213 0.0
O410 O 0.31502 0.87984 0.81828 0.0
H411 H 0.35616 0.83128 0.81964 0.0
H412 H 0.30335 0.85125 0.837 0.0
O413 O 0.32877 0.87586 0.85431 0.0
C414 C 0.31523 0.88141 0.80046 0.0
O415 O 0.33152 0.88057 0.79172 0.0
N416 N 0.36334 0.86821 0.83748 0.0
C417 C 0.40166 0.86455 0.84548 0.0
C418 C 0.38922 0.87186 0.85894 0.0
C419 C 0.37021 0.874 0.85451 0.0
C420 C 0.37539 0.86183 0.82399 0.0
C421 C 0.39452 0.85951 0.82779 0.0
H422 H 0.36139 0.88131 0.86445 0.0
H423 H 0.37017 0.85905 0.80996 0.0
H424 H 0.32807 0.91229 0.84947 0.0
H425 H 0.37011 0.9348 0.81428 0.0
H426 H 0.33412 0.80217 0.82555 0.0
H427 H 0.39429 0.8768 0.87244 0.0
H428 H 0.40367 0.85415 0.81684 0.0
C429 C 0.09494 0.34554 0.8103 0.0
C430 C 0.07562 0.34564 0.81058 0.0
N431 N 0.06974 0.33866 0.82726 0.0
N432 N 0.10132 0.33851 0.82665 0.0
C433 C 0.08572 0.33442 0.83672 0.0
H434 H 0.10385 0.35005 0.79881 0.0
Co435 Co 0.12654 0.33497 0.8317 0.0
C436 C 0.13059 0.33053 0.87246 0.0
O437 O 0.1454 0.34158 0.87139 0.0
N438 N 0.15255 0.33072 0.83624 0.0
C439 C 0.18378 0.33075 0.83972 0.0
C440 C 0.16842 0.34099 0.83376 0.0
C441 C 0.15884 0.31418 0.84326 0.0
N442 N 0.17762 0.31387 0.84566 0.0
O443 O 0.12459 0.30976 0.8229 0.0
H444 H 0.16921 0.35502 0.82809 0.0
H445 H 0.14964 0.30271 0.84725 0.0
O446 O 0.12091 0.32689 0.85768 0.0
C447 C 0.13091 0.30879 0.80618 0.0
O448 O 0.13585 0.32449 0.79774 0.0
N449 N 0.12817 0.36033 0.83864 0.0
C450 C 0.13143 0.39882 0.84464 0.0
C451 C 0.12064 0.38775 0.85686 0.0
C452 C 0.11894 0.36846 0.85344 0.0
C453 C 0.13695 0.3713 0.82561 0.0
C454 C 0.13933 0.39051 0.82864 0.0
H455 H 0.11001 0.36021 0.86256 0.0
H456 H 0.14235 0.36498 0.81285 0.0
H457 H 0.08613 0.32844 0.85069 0.0
H458 H 0.0667 0.35015 0.7991 0.0
H459 H 0.19832 0.3353 0.83957 0.0
H460 H 0.11375 0.39391 0.86899 0.0
H461 H 0.14706 0.39885 0.81847 0.0
C462 C 0.64261 0.08986 0.81061 0.0
C463 C 0.64204 0.0709 0.81447 0.0
N464 N 0.65314 0.06762 0.82948 0.0
N465 N 0.65409 0.09839 0.82309 0.0
C466 C 0.66027 0.08449 0.83446 0.0
H467 H 0.63566 0.0969 0.79905 0.0
Co468 Co 0.66153 0.12328 0.82194 0.0
C469 C 0.66559 0.1358 0.86134 0.0
O470 O 0.65754 0.15179 0.85667 0.0
N471 N 0.66985 0.14841 0.82016 0.0
C472 C 0.67593 0.17837 0.81296 0.0
C473 C 0.66375 0.16347 0.81021 0.0
C474 C 0.68602 0.15443 0.82822 0.0
N475 N 0.68978 0.17258 0.82447 0.0
O476 O 0.68642 0.11562 0.8158 0.0
H477 H 0.65147 0.16382 0.80131 0.0
H478 H 0.69497 0.14561 0.83684 0.0
O479 O 0.66781 0.1229 0.84895 0.0
C480 C 0.68846 0.11215 0.79837 0.0
O481 O 0.67346 0.11227 0.78753 0.0
N482 N 0.63645 0.13046 0.82663 0.0
C483 C 0.59806 0.13836 0.82905 0.0
C484 C 0.60778 0.13103 0.84454 0.0
C485 C 0.62685 0.12661 0.84286 0.0
C486 C 0.62693 0.13661 0.81115 0.0
C487 C 0.60777 0.1409 0.81209 0.0
H488 H 0.63356 0.11942 0.85442 0.0
H489 H 0.63412 0.13754 0.79778 0.0
H490 H 0.67055 0.08649 0.84553 0.0
H491 H 0.63434 0.0603 0.80668 0.0
H492 H 0.67454 0.19243 0.80725 0.0
H493 H 0.60052 0.12797 0.85759 0.0
H494 H 0.60059 0.14594 0.79962 0.0
C495 C 0.91222 0.6535 0.80741 0.0
C496 C 0.93143 0.6556 0.80855 0.0
N497 N 0.93559 0.66229 0.82577 0.0
N498 N 0.90441 0.65902 0.82378 0.0
C499 C 0.91902 0.66421 0.83479 0.0
H500 H 0.90435 0.64893 0.79521 0.0
Co501 Co 0.8788 0.66153 0.82694 0.0
C502 C 0.87159 0.6663 0.86731 0.0
O503 O 0.85709 0.65496 0.86536 0.0
N504 N 0.85241 0.66482 0.82943 0.0
C505 C 0.82101 0.66419 0.82911 0.0
C506 C 0.83716 0.65423 0.82507 0.0
C507 C 0.84501 0.68119 0.8357 0.0
N508 N 0.82608 0.68119 0.83572 0.0
O509 O 0.88045 0.68681 0.81832 0.0
H510 H 0.83736 0.6403 0.81911 0.0
H511 H 0.85346 0.69288 0.8406 0.0
O512 O 0.88221 0.66992 0.8532 0.0
C513 C 0.87536 0.68801 0.8012 0.0
O514 O 0.87168 0.67237 0.792 0.0
N515 N 0.87756 0.63612 0.83389 0.0
C516 C 0.87453 0.59763 0.84024 0.0
C517 C 0.88396 0.60916 0.85319 0.0
C518 C 0.8856 0.62843 0.84959 0.0
C519 C 0.87026 0.62475 0.8203 0.0
C520 C 0.86803 0.60553 0.82342 0.0
H521 H 0.89345 0.63703 0.85936 0.0
H522 H 0.86586 0.63076 0.80702 0.0
H523 H 0.91759 0.67018 0.84872 0.0
H524 H 0.94156 0.6528 0.7975 0.0
H525 H 0.80668 0.65943 0.827 0.0
H526 H 0.88976 0.6034 0.86605 0.0
H527 H 0.86143 0.59689 0.81271 0.0
C528 C 0.16268 0.3559 0.08153 0.0
C529 C 0.15583 0.3565 0.06345 0.0
N530 N 0.14339 0.34233 0.06126 0.0
N531 N 0.15447 0.34152 0.09076 0.0
C532 C 0.1429 0.33341 0.07804 0.0
H533 H 0.17321 0.36515 0.08749 0.0
Co534 Co 0.15946 0.33432 0.11531 0.0
C535 C 0.1224 0.32763 0.13258 0.0
O536 O 0.12862 0.33588 0.14794 0.0
N537 N 0.16507 0.32625 0.14007 0.0
C538 C 0.17644 0.32091 0.16879 0.0
C539 C 0.17616 0.33324 0.15386 0.0
C540 C 0.1594 0.30937 0.14685 0.0
N541 N 0.16576 0.30585 0.16441 0.0
O542 O 0.16658 0.30998 0.1068 0.0
H543 H 0.18402 0.34618 0.15331 0.0
H544 H 0.15042 0.29997 0.13895 0.0
O545 O 0.1332 0.32607 0.11824 0.0
C546 C 0.18366 0.30927 0.1015 0.0
O547 O 0.19319 0.32509 0.10035 0.0
N548 N 0.1536 0.35901 0.12318 0.0
C549 C 0.14884 0.39724 0.13057 0.0
C550 C 0.13377 0.3864 0.12398 0.0
C551 C 0.13649 0.36733 0.12014 0.0
C552 C 0.16865 0.36975 0.12836 0.0
C553 C 0.16647 0.38877 0.13275 0.0
H554 H 0.12504 0.3596 0.11381 0.0
H555 H 0.18263 0.36379 0.12813 0.0
H556 H 0.13443 0.3211 0.08101 0.0
H557 H 0.1602 0.36622 0.05257 0.0
H558 H 0.18419 0.32291 0.18174 0.0
H559 H 0.12012 0.39272 0.12144 0.0
H560 H 0.17864 0.39699 0.1369 0.0
C561 C 0.16811 0.64314 0.92348 0.0
C562 C 0.1601 0.64322 0.94105 0.0
N563 N 0.14662 0.65655 0.94138 0.0
N564 N 0.15954 0.65617 0.9127 0.0
C565 C 0.14664 0.66431 0.92404 0.0
H566 H 0.17957 0.63425 0.91887 0.0
Co567 Co 0.1657 0.66126 0.88795 0.0
C568 C 0.13028 0.66215 0.86712 0.0
O569 O 0.13895 0.65207 0.85425 0.0
N570 N 0.17249 0.66724 0.86281 0.0
C571 C 0.18228 0.66921 0.83303 0.0
C572 C 0.18266 0.65855 0.84921 0.0
C573 C 0.16676 0.68344 0.85458 0.0
N574 N 0.17229 0.68487 0.83654 0.0
O575 O 0.17022 0.68681 0.89428 0.0
H576 H 0.18972 0.64522 0.85041 0.0
H577 H 0.1577 0.6936 0.86141 0.0
O578 O 0.13917 0.66712 0.88202 0.0
C579 C 0.18642 0.6901 0.9011 0.0
O580 O 0.1972 0.67574 0.90554 0.0
N581 N 0.16216 0.63548 0.88246 0.0
C582 C 0.15902 0.59674 0.87658 0.0
C583 C 0.14352 0.6073 0.88273 0.0
C584 C 0.14546 0.62654 0.8859 0.0
C585 C 0.17781 0.62514 0.8785 0.0
C586 C 0.17648 0.60587 0.87485 0.0
H587 H 0.13359 0.6341 0.89162 0.0
H588 H 0.19148 0.63184 0.87844 0.0
H589 H 0.13753 0.67572 0.9197 0.0
H590 H 0.16428 0.63458 0.95288 0.0
H591 H 0.18859 0.6656 0.81964 0.0
H592 H 0.13005 0.60073 0.88554 0.0
H593 H 0.18904 0.5983 0.87072 0.0
C594 C 0.36163 0.16414 0.91552 0.0
C595 C 0.36344 0.15689 0.93335 0.0
N596 N 0.34961 0.14417 0.93606 0.0
N597 N 0.34686 0.15589 0.90693 0.0
C598 C 0.33972 0.14388 0.91982 0.0
H599 H 0.37024 0.1751 0.90941 0.0
Co600 Co 0.33762 0.16168 0.88321 0.0
C601 C 0.33169 0.12539 0.86412 0.0
O602 O 0.33842 0.13295 0.84864 0.0
N603 N 0.32752 0.16794 0.85935 0.0
C604 C 0.32132 0.17719 0.83003 0.0
C605 C 0.33395 0.17829 0.84473 0.0
C606 C 0.3106 0.1615 0.85338 0.0
N607 N 0.30675 0.16635 0.83545 0.0
O608 O 0.31351 0.16649 0.89366 0.0
H609 H 0.34713 0.18578 0.84424 0.0
H610 H 0.30164 0.15255 0.86183 0.0
O611 O 0.33091 0.13511 0.87928 0.0
C612 C 0.31205 0.18266 0.90117 0.0
O613 O 0.32739 0.19281 0.9033 0.0
N614 N 0.36203 0.15824 0.87337 0.0
C615 C 0.3997 0.15739 0.86231 0.0
C616 C 0.39029 0.14075 0.86714 0.0
C617 C 0.3716 0.14154 0.8732 0.0
C618 C 0.37131 0.17461 0.86961 0.0
C619 C 0.39008 0.17451 0.86382 0.0
H620 H 0.36524 0.12881 0.87845 0.0
H621 H 0.3642 0.18791 0.87164 0.0
H622 H 0.32733 0.13534 0.91741 0.0
H623 H 0.37366 0.16125 0.94377 0.0
H624 H 0.32324 0.18309 0.81612 0.0
H625 H 0.39755 0.12735 0.86702 0.0
H626 H 0.39705 0.18772 0.86073 0.0
C627 C 0.83263 0.35188 0.92272 0.0
C628 C 0.83957 0.35142 0.94073 0.0
N629 N 0.85356 0.33864 0.94139 0.0
N630 N 0.84238 0.33967 0.91198 0.0
C631 C 0.8549 0.33157 0.92379 0.0
H632 H 0.82111 0.36049 0.91772 0.0
Co633 Co 0.83748 0.33537 0.88671 0.0
C634 C 0.87424 0.33894 0.8684 0.0
O635 O 0.86582 0.34992 0.85611 0.0
N636 N 0.83148 0.32994 0.86145 0.0
C637 C 0.81409 0.32104 0.83685 0.0
C638 C 0.81431 0.3312 0.85337 0.0
C639 C 0.84098 0.318 0.85003 0.0
N640 N 0.83096 0.31266 0.8348 0.0
O641 O 0.8343 0.30924 0.89138 0.0
H642 H 0.80206 0.33738 0.85992 0.0
H643 H 0.85449 0.31211 0.85362 0.0
O644 O 0.86462 0.33155 0.88177 0.0
C645 C 0.81936 0.30371 0.89954 0.0
O646 O 0.8085 0.3162 0.90778 0.0
N647 N 0.84 0.36175 0.88213 0.0
C648 C 0.84411 0.40044 0.87581 0.0
C649 C 0.85759 0.39042 0.88614 0.0
C650 C 0.85523 0.37122 0.88923 0.0
C651 C 0.82608 0.37156 0.87324 0.0
C652 C 0.82802 0.39079 0.86958 0.0
H653 H 0.86582 0.36389 0.89732 0.0
H654 H 0.81326 0.36473 0.8691 0.0
H655 H 0.86471 0.3207 0.91959 0.0
H656 H 0.83434 0.35943 0.95259 0.0
H657 H 0.80195 0.31884 0.82792 0.0
H658 H 0.86985 0.39733 0.892 0.0
H659 H 0.81704 0.39792 0.86178 0.0
C660 C 0.65873 0.82183 0.92384 0.0
C661 C 0.66316 0.8215 0.94264 0.0
N662 N 0.67148 0.8379 0.94694 0.0
N663 N 0.66382 0.83855 0.91629 0.0
C664 C 0.67212 0.84779 0.93079 0.0
H665 H 0.65316 0.81005 0.916 0.0
Co666 Co 0.6642 0.84304 0.89012 0.0
C667 C 0.66677 0.88276 0.90327 0.0
O668 O 0.6529 0.88011 0.91524 0.0
N669 N 0.66539 0.84661 0.86424 0.0
C670 C 0.66037 0.84588 0.8334 0.0
C671 C 0.65344 0.84062 0.85075 0.0
C672 C 0.67956 0.85507 0.85485 0.0
N673 N 0.67686 0.85489 0.83607 0.0
O674 O 0.68935 0.83395 0.88972 0.0
H675 H 0.64063 0.8328 0.85337 0.0
H676 H 0.69174 0.86114 0.86171 0.0
O677 O 0.6729 0.86897 0.89346 0.0
C678 C 0.68897 0.81635 0.88646 0.0
O679 O 0.67254 0.80821 0.88386 0.0
N680 N 0.63864 0.85075 0.8899 0.0
C681 C 0.60017 0.85797 0.88564 0.0
C682 C 0.61361 0.87096 0.87931 0.0
C683 C 0.63276 0.86696 0.8813 0.0
C684 C 0.62568 0.83779 0.8956 0.0
C685 C 0.60644 0.84124 0.89393 0.0
H686 H 0.64282 0.87655 0.87515 0.0
H687 H 0.63008 0.82419 0.9005 0.0
H688 H 0.67978 0.86084 0.9295 0.0
H689 H 0.66077 0.80999 0.95234 0.0
H690 H 0.65404 0.84283 0.81988 0.0
H691 H 0.60939 0.88392 0.87248 0.0
H692 H 0.59659 0.83042 0.89823 0.0
C693 C 0.82465 0.6484 0.07318 0.0
C694 C 0.83185 0.64839 0.05525 0.0
N695 N 0.84595 0.66107 0.0545 0.0
N696 N 0.83429 0.66086 0.08375 0.0
C697 C 0.84705 0.66857 0.07193 0.0
H698 H 0.81311 0.63986 0.07822 0.0
Co699 Co 0.82979 0.66504 0.10906 0.0
C700 C 0.86684 0.67129 0.12685 0.0
O701 O 0.861 0.66183 0.14163 0.0
N702 N 0.82458 0.66979 0.13472 0.0
C703 C 0.81638 0.6695 0.16495 0.0
C704 C 0.81641 0.65942 0.1484 0.0
C705 C 0.8288 0.68628 0.14329 0.0
N706 N 0.82432 0.68643 0.16174 0.0
O707 O 0.82238 0.6902 0.10378 0.0
H708 H 0.81097 0.64535 0.14687 0.0
H709 H 0.83557 0.69781 0.13606 0.0
O710 O 0.85598 0.67336 0.11261 0.0
C711 C 0.8051 0.69224 0.09956 0.0
O712 O 0.79495 0.67711 0.09631 0.0
N713 N 0.83597 0.63968 0.11374 0.0
C714 C 0.84103 0.60095 0.11756 0.0
C715 C 0.8564 0.61276 0.11394 0.0
C716 C 0.8535 0.63203 0.11152 0.0
C717 C 0.82077 0.62822 0.1162 0.0
C718 C 0.82298 0.60882 0.11839 0.0
H719 H 0.8653 0.64051 0.10715 0.0
H720 H 0.80676 0.63419 0.11619 0.0
H721 H 0.85704 0.67932 0.07604 0.0
H722 H 0.82687 0.63998 0.04356 0.0
H723 H 0.81136 0.6644 0.17839 0.0
H724 H 0.87045 0.60704 0.11234 0.0
H725 H 0.81069 0.60009 0.12071 0.0
C726 C 0.35496 0.82134 0.07614 0.0
C727 C 0.35513 0.82772 0.0579 0.0
N728 N 0.34297 0.84221 0.05654 0.0
N729 N 0.34295 0.83193 0.08629 0.0
C730 C 0.33566 0.84441 0.07395 0.0
H731 H 0.36296 0.80964 0.08168 0.0
Co732 Co 0.33758 0.82819 0.11155 0.0
C733 C 0.34158 0.86568 0.12825 0.0
O734 O 0.35188 0.85758 0.14133 0.0
N735 N 0.33099 0.82339 0.13677 0.0
C736 C 0.32048 0.80708 0.16152 0.0
C737 C 0.33079 0.80627 0.1451 0.0
C738 C 0.31978 0.83398 0.14795 0.0
N739 N 0.31376 0.82466 0.16326 0.0
O740 O 0.31162 0.82523 0.10581 0.0
H741 H 0.33639 0.79357 0.13887 0.0
H742 H 0.31447 0.84772 0.14419 0.0
O743 O 0.33427 0.85563 0.11515 0.0
C744 C 0.30714 0.80889 0.10004 0.0
O745 O 0.32068 0.79706 0.09566 0.0
N746 N 0.36384 0.83031 0.1172 0.0
C747 C 0.40208 0.83441 0.12601 0.0
C748 C 0.39307 0.84712 0.11393 0.0
C749 C 0.37407 0.84479 0.10964 0.0
C750 C 0.37276 0.81698 0.12777 0.0
C751 C 0.39174 0.81894 0.13265 0.0
H752 H 0.36747 0.85494 0.10043 0.0
H753 H 0.36535 0.80469 0.13253 0.0
H754 H 0.32518 0.85482 0.07765 0.0
H755 H 0.36315 0.82178 0.04639 0.0
H756 H 0.31748 0.79552 0.17097 0.0
H757 H 0.40058 0.85886 0.10775 0.0
H758 H 0.3981 0.80854 0.14179 0.0
C759 C 0.6364 0.16908 0.07494 0.0
C760 C 0.63579 0.16273 0.0567 0.0
N761 N 0.65028 0.15079 0.05406 0.0
N762 N 0.65107 0.16102 0.08385 0.0
C763 C 0.6594 0.15006 0.07074 0.0
H764 H 0.62695 0.17922 0.08123 0.0
Co765 Co 0.65815 0.16573 0.10847 0.0
C766 C 0.66592 0.12885 0.12563 0.0
O767 O 0.65778 0.13494 0.14109 0.0
N768 N 0.66597 0.17114 0.13336 0.0
C769 C 0.67008 0.18056 0.16298 0.0
C770 C 0.65781 0.18016 0.14801 0.0
C771 C 0.68337 0.16674 0.13978 0.0
N772 N 0.68617 0.17202 0.15779 0.0
O773 O 0.68247 0.1733 0.1002 0.0
H774 H 0.64391 0.18617 0.14822 0.0
H775 H 0.69375 0.15954 0.13131 0.0
O776 O 0.66688 0.13955 0.11116 0.0
C777 C 0.68351 0.19056 0.09562 0.0
O778 O 0.6678 0.20019 0.09406 0.0
N779 N 0.63357 0.15941 0.11619 0.0
C780 C 0.59564 0.15396 0.12521 0.0
C781 C 0.60671 0.13901 0.11853 0.0
C782 C 0.62555 0.14208 0.11383 0.0
C783 C 0.62266 0.17435 0.12115 0.0
C784 C 0.60389 0.17188 0.12634 0.0
H785 H 0.63336 0.13065 0.10759 0.0
H786 H 0.62853 0.18839 0.12082 0.0
H787 H 0.67199 0.14189 0.07333 0.0
H788 H 0.62587 0.16714 0.04601 0.0
H789 H 0.66712 0.18637 0.17675 0.0
H790 H 0.60076 0.12514 0.11634 0.0
H791 H 0.596 0.18401 0.13108 0.0
C792 C 0.17063 0.12288 0.56324 0.0
C793 C 0.16044 0.13179 0.57761 0.0
C794 C 0.16792 0.12804 0.54445 0.0
C795 C 0.16638 0.14654 0.50621 0.0
H796 H 0.11607 0.1604 0.49013 0.0
C797 C 0.12657 0.17648 0.43571 0.0
C798 C 0.13143 0.16248 0.42264 0.0
C799 C 0.13102 0.17426 0.45476 0.0
C800 C 0.13023 0.15676 0.49448 0.0
H801 H 0.13998 0.15349 0.58382 0.0
H802 H 0.13576 0.16308 0.55116 0.0
H803 H 0.12191 0.15326 0.52313 0.0
H804 H 0.14525 0.13556 0.41896 0.0
H805 H 0.15339 0.13186 0.45222 0.0
H806 H 0.17434 0.14921 0.47722 0.0
C807 C 0.14536 0.15165 0.5542 0.0
C808 C 0.13364 0.15274 0.51342 0.0
C809 C 0.14784 0.14626 0.57294 0.0
C810 C 0.14127 0.14649 0.42882 0.0
C811 C 0.14602 0.14444 0.44777 0.0
C812 C 0.16287 0.15026 0.48721 0.0
C813 C 0.15518 0.14245 0.53965 0.0
C814 C 0.15175 0.14747 0.51955 0.0
C815 C 0.14074 0.15819 0.46095 0.0
C816 C 0.14475 0.15531 0.48118 0.0
H817 H 0.1803 0.11155 0.5665 0.0
H818 H 0.17549 0.12036 0.53369 0.0
H819 H 0.18059 0.14294 0.5104 0.0
H820 H 0.11892 0.18889 0.43126 0.0
H821 H 0.12686 0.18508 0.46467 0.0
C822 C 0.84367 0.12723 0.42461 0.0
C823 C 0.84651 0.10928 0.41686 0.0
C824 C 0.84809 0.13076 0.4434 0.0
C825 C 0.87253 0.13472 0.47912 0.0
H826 H 0.84653 0.10798 0.51893 0.0
C827 C 0.87193 0.12802 0.56587 0.0
C828 C 0.87525 0.147 0.57046 0.0
C829 C 0.86947 0.12246 0.54717 0.0
C830 C 0.85424 0.11535 0.50805 0.0
H831 H 0.85588 0.08085 0.42256 0.0
H832 H 0.86306 0.08692 0.45593 0.0
H833 H 0.84084 0.09939 0.48614 0.0
H834 H 0.87878 0.17497 0.55864 0.0
H835 H 0.87326 0.16554 0.52637 0.0
H836 H 0.88636 0.15036 0.50071 0.0
C837 C 0.85764 0.09824 0.44727 0.0
C838 C 0.85087 0.11045 0.48929 0.0
C839 C 0.8536 0.0948 0.42829 0.0
C840 C 0.87594 0.16028 0.5558 0.0
C841 C 0.87313 0.15477 0.53714 0.0
C842 C 0.8762 0.13937 0.49785 0.0
C843 C 0.85509 0.11631 0.45487 0.0
C844 C 0.85977 0.12032 0.4747 0.0
C845 C 0.86992 0.13577 0.53254 0.0
C846 C 0.86685 0.12999 0.51259 0.0
H847 H 0.83837 0.13864 0.416 0.0
H848 H 0.84594 0.14477 0.44903 0.0
H849 H 0.87966 0.14239 0.46803 0.0
H850 H 0.87102 0.11738 0.57674 0.0
H851 H 0.8673 0.10767 0.54423 0.0
C852 C 0.86512 0.84344 0.43494 0.0
C853 C 0.8834 0.84228 0.42753 0.0
C854 C 0.86234 0.84804 0.45382 0.0
C855 C 0.88218 0.8447 0.49999 0.0
H856 H 0.85132 0.88797 0.51239 0.0
C857 C 0.86978 0.86755 0.57712 0.0
C858 C 0.85209 0.87514 0.58181 0.0
C859 C 0.8746 0.86413 0.55836 0.0
C860 C 0.85972 0.87565 0.50925 0.0
H861 H 0.91313 0.84468 0.4339 0.0
H862 H 0.90825 0.85217 0.46736 0.0
H863 H 0.85771 0.8805 0.47954 0.0
H864 H 0.82569 0.88524 0.5701 0.0
H865 H 0.83354 0.87813 0.53777 0.0
H866 H 0.88349 0.83915 0.52951 0.0
C867 C 0.89614 0.84975 0.4584 0.0
C868 C 0.86349 0.87152 0.49042 0.0
C869 C 0.89891 0.84556 0.43935 0.0
C870 C 0.83932 0.87907 0.5672 0.0
C871 C 0.844 0.87533 0.54849 0.0
C872 C 0.87809 0.84859 0.51885 0.0
C873 C 0.87782 0.85118 0.4657 0.0
C874 C 0.87467 0.85598 0.48566 0.0
C875 C 0.86175 0.86792 0.54377 0.0
C876 C 0.86669 0.86407 0.52374 0.0
H877 H 0.85296 0.84106 0.42603 0.0
H878 H 0.8481 0.84899 0.45922 0.0
H879 H 0.89072 0.83254 0.49657 0.0
H880 H 0.87993 0.86408 0.58795 0.0
H881 H 0.88849 0.85866 0.55533 0.0
C882 C 0.10636 0.83967 0.56373 0.0
C883 C 0.12025 0.83383 0.57652 0.0
C884 C 0.11081 0.84208 0.54472 0.0
C885 C 0.14869 0.85501 0.51384 0.0
H886 H 0.12169 0.82847 0.47452 0.0
C887 C 0.17065 0.8618 0.43608 0.0
C888 C 0.15637 0.86178 0.42236 0.0
C889 C 0.16657 0.85736 0.45479 0.0
C890 C 0.12919 0.83625 0.48526 0.0
H891 H 0.14957 0.82609 0.57974 0.0
H892 H 0.15749 0.83087 0.54652 0.0
H893 H 0.11338 0.82316 0.50741 0.0
H894 H 0.12658 0.85657 0.41771 0.0
H895 H 0.11929 0.85012 0.45034 0.0
H896 H 0.16396 0.8688 0.49196 0.0
C897 C 0.14317 0.83329 0.55117 0.0
C898 C 0.12448 0.83308 0.50408 0.0
C899 C 0.13863 0.83049 0.57007 0.0
C900 C 0.13792 0.85711 0.42788 0.0
C901 C 0.13378 0.85303 0.44663 0.0
C902 C 0.15316 0.85849 0.49503 0.0
C903 C 0.1293 0.8391 0.53837 0.0
C904 C 0.13423 0.84241 0.51848 0.0
C905 C 0.14803 0.85312 0.46037 0.0
C906 C 0.14349 0.84915 0.48045 0.0
H907 H 0.09209 0.84227 0.56844 0.0
H908 H 0.09994 0.84664 0.53505 0.0
H909 H 0.15628 0.86247 0.52478 0.0
H910 H 0.18499 0.86554 0.4325 0.0
H911 H 0.17801 0.85726 0.46486 0.0
C912 C 0.43173 0.11172 0.15937 0.0
C913 C 0.41944 0.12705 0.1615 0.0
C914 C 0.45102 0.11473 0.1569 0.0
C915 C 0.48366 0.14765 0.13687 0.0
H916 H 0.52174 0.12482 0.16859 0.0
C917 C 0.56207 0.16525 0.12707 0.0
C918 C 0.57547 0.15102 0.13025 0.0
C919 C 0.5432 0.16251 0.13181 0.0
C920 C 0.51134 0.13107 0.15938 0.0
H921 H 0.41748 0.15744 0.16282 0.0
H922 H 0.45125 0.16273 0.15794 0.0
H923 H 0.48846 0.11931 0.17524 0.0
H924 H 0.57929 0.12273 0.14114 0.0
H925 H 0.54628 0.11753 0.14822 0.0
H926 H 0.5062 0.15872 0.12042 0.0
C927 C 0.44595 0.14843 0.15844 0.0
C928 C 0.4923 0.128 0.16331 0.0
C929 C 0.42673 0.14542 0.1613 0.0
C930 C 0.5694 0.13393 0.1382 0.0
C931 C 0.55044 0.13106 0.1426 0.0
C932 C 0.50266 0.15041 0.13268 0.0
C933 C 0.45821 0.13312 0.15613 0.0
C934 C 0.47834 0.13635 0.15214 0.0
C935 C 0.53706 0.14532 0.13947 0.0
C936 C 0.51679 0.14224 0.14394 0.0
H937 H 0.42638 0.09744 0.15954 0.0
H938 H 0.46024 0.10273 0.15505 0.0
H939 H 0.47308 0.15403 0.12792 0.0
H940 H 0.56603 0.17849 0.12068 0.0
H941 H 0.53345 0.17399 0.12948 0.0
C942 C 0.85777 0.5736 0.13204 0.0
C943 C 0.84381 0.58044 0.11986 0.0
C944 C 0.86041 0.55425 0.13427 0.0
C945 C 0.87033 0.51327 0.1295 0.0
H946 H 0.82726 0.47968 0.12879 0.0
C947 C 0.85435 0.42859 0.12804 0.0
C948 C 0.86437 0.4228 0.14407 0.0
C949 C 0.85212 0.44774 0.12412 0.0
C950 C 0.83942 0.4889 0.12883 0.0
H951 H 0.8219 0.57254 0.10017 0.0
H952 H 0.82685 0.53875 0.10356 0.0
H953 H 0.82255 0.51337 0.12428 0.0
H954 H 0.88038 0.43231 0.16824 0.0
H955 H 0.87676 0.46581 0.1612 0.0
H956 H 0.88705 0.48873 0.13477 0.0
C957 C 0.83543 0.54824 0.11185 0.0
C958 C 0.83676 0.50821 0.12618 0.0
C959 C 0.83262 0.5676 0.10983 0.0
C960 C 0.87247 0.43644 0.15587 0.0
C961 C 0.87052 0.45556 0.15178 0.0
C962 C 0.87293 0.49401 0.13242 0.0
C963 C 0.84933 0.5413 0.12415 0.0
C964 C 0.85218 0.52067 0.12655 0.0
C965 C 0.86018 0.46138 0.13597 0.0
C966 C 0.8575 0.48167 0.13217 0.0
H967 H 0.86645 0.58323 0.14007 0.0
H968 H 0.87097 0.54949 0.14417 0.0
H969 H 0.88259 0.52233 0.12947 0.0
H970 H 0.84792 0.41831 0.11879 0.0
H971 H 0.84417 0.4519 0.11179 0.0
C972 C 0.56911 0.84958 0.1706 0.0
C973 C 0.57621 0.86775 0.16748 0.0
C974 C 0.55024 0.84546 0.16674 0.0
C975 C 0.50934 0.8639 0.13968 0.0
H976 H 0.48107 0.82815 0.16973 0.0
C977 C 0.42895 0.85586 0.13434 0.0
C978 C 0.42206 0.83747 0.13166 0.0
C979 C 0.44776 0.85895 0.13906 0.0
C980 C 0.48888 0.83806 0.16117 0.0
H981 H 0.56914 0.89606 0.15873 0.0
H982 H 0.53609 0.88915 0.15269 0.0
H983 H 0.51378 0.83512 0.17787 0.0
H984 H 0.42975 0.80789 0.13217 0.0
H985 H 0.46255 0.81338 0.14105 0.0
H986 H 0.4842 0.86722 0.12338 0.0
C987 C 0.54513 0.87784 0.15742 0.0
C988 C 0.50763 0.84202 0.16576 0.0
C989 C 0.56403 0.88186 0.16099 0.0
C990 C 0.43444 0.82222 0.13432 0.0
C991 C 0.45325 0.82534 0.13934 0.0
C992 C 0.49055 0.86015 0.1353 0.0
C993 C 0.53803 0.85951 0.15994 0.0
C994 C 0.51809 0.85507 0.1551 0.0
C995 C 0.4601 0.84375 0.14153 0.0
C996 C 0.48014 0.84725 0.14603 0.0
H997 H 0.57829 0.83843 0.17547 0.0
H998 H 0.54539 0.83114 0.16863 0.0
H999 H 0.51702 0.87364 0.13083 0.0
H1000 H 0.41978 0.86795 0.13293 0.0
H1001 H 0.45265 0.87328 0.14095 0.0
C1002 C 0.15077 0.42549 0.15143 0.0
C1003 C 0.14656 0.41762 0.1338 0.0
C1004 C 0.14876 0.44484 0.15438 0.0
C1005 C 0.12886 0.48407 0.15629 0.0
H1006 H 0.15838 0.51837 0.12578 0.0
C1007 C 0.13422 0.56875 0.13742 0.0
C1008 C 0.12989 0.5763 0.15521 0.0
C1009 C 0.1365 0.54937 0.135 0.0
C1010 C 0.14975 0.50907 0.13422 0.0
H1011 H 0.13736 0.42354 0.10536 0.0
H1012 H 0.13443 0.45759 0.11036 0.0
H1013 H 0.16123 0.48451 0.12092 0.0
H1014 H 0.12455 0.569 0.18443 0.0
H1015 H 0.12985 0.53562 0.18049 0.0
H1016 H 0.11662 0.50835 0.16903 0.0
C1017 C 0.13896 0.44874 0.12192 0.0
C1018 C 0.15154 0.48968 0.1315 0.0
C1019 C 0.14054 0.42935 0.1191 0.0
C1020 C 0.12821 0.5639 0.17056 0.0
C1021 C 0.13088 0.54457 0.16821 0.0
C1022 C 0.12673 0.50346 0.15874 0.0
C1023 C 0.14298 0.4566 0.13959 0.0
C1024 C 0.14116 0.47707 0.14255 0.0
C1025 C 0.13489 0.53698 0.15037 0.0
C1026 C 0.13719 0.51627 0.14777 0.0
H1027 H 0.15545 0.41664 0.16293 0.0
H1028 H 0.15197 0.45068 0.1681 0.0
H1029 H 0.1206 0.47453 0.16485 0.0
H1030 H 0.13593 0.57779 0.12528 0.0
H1031 H 0.13927 0.54414 0.12096 0.0
C1032 C 0.4286 0.85738 0.86719 0.0
C1033 C 0.42213 0.86345 0.84951 0.0
C1034 C 0.44785 0.85713 0.87123 0.0
C1035 C 0.49467 0.85704 0.84864 0.0
H1036 H 0.51177 0.87482 0.89736 0.0
C1037 C 0.57334 0.86787 0.86492 0.0
C1038 C 0.57976 0.86098 0.88232 0.0
C1039 C 0.55408 0.86908 0.86116 0.0
C1040 C 0.5072 0.86967 0.88375 0.0
H1041 H 0.4308 0.87417 0.82227 0.0
H1042 H 0.46436 0.87369 0.8293 0.0
H1043 H 0.47816 0.87447 0.89022 0.0
H1044 H 0.57101 0.85064 0.90966 0.0
H1045 H 0.53737 0.85253 0.90302 0.0
H1046 H 0.52368 0.8522 0.84218 0.0
C1047 C 0.45458 0.86885 0.83994 0.0
C1048 C 0.48796 0.86943 0.87967 0.0
C1049 C 0.43534 0.86909 0.8359 0.0
C1050 C 0.56649 0.85585 0.89607 0.0
C1051 C 0.54722 0.85709 0.89232 0.0
C1052 C 0.5139 0.85729 0.85271 0.0
C1053 C 0.46105 0.86296 0.85768 0.0
C1054 C 0.48148 0.8631 0.86207 0.0
C1055 C 0.54081 0.86345 0.87472 0.0
C1056 C 0.52039 0.86361 0.87031 0.0
H1057 H 0.41878 0.85275 0.87788 0.0
H1058 H 0.45242 0.85224 0.88492 0.0
H1059 H 0.49012 0.85182 0.83506 0.0
H1060 H 0.5832 0.87174 0.85396 0.0
H1061 H 0.54956 0.87426 0.84756 0.0
C1062 C 0.15276 0.42626 0.84927 0.0
C1063 C 0.13439 0.41901 0.84836 0.0
C1064 C 0.1557 0.44541 0.85251 0.0
C1065 C 0.13532 0.49101 0.84503 0.0
H1066 H 0.16583 0.50798 0.88701 0.0
C1067 C 0.14007 0.5693 0.86488 0.0
C1068 C 0.15693 0.57629 0.87256 0.0
C1069 C 0.13767 0.55008 0.86173 0.0
C1070 C 0.15756 0.50353 0.875 0.0
H1071 H 0.10471 0.4258 0.84993 0.0
H1072 H 0.10988 0.45959 0.85508 0.0
H1073 H 0.16104 0.47436 0.88194 0.0
H1074 H 0.18466 0.56831 0.88271 0.0
H1075 H 0.18093 0.53499 0.87612 0.0
H1076 H 0.13235 0.51993 0.83751 0.0
C1077 C 0.12193 0.45038 0.85352 0.0
C1078 C 0.15472 0.48428 0.87223 0.0
C1079 C 0.11899 0.43114 0.85067 0.0
C1080 C 0.17154 0.56355 0.87658 0.0
C1081 C 0.16927 0.54433 0.8731 0.0
C1082 C 0.13846 0.51024 0.84755 0.0
C1083 C 0.14031 0.45761 0.85449 0.0
C1084 C 0.14345 0.47792 0.85733 0.0
C1085 C 0.15223 0.53731 0.8658 0.0
C1086 C 0.14948 0.51678 0.86268 0.0
H1087 H 0.16482 0.41708 0.84757 0.0
H1088 H 0.16998 0.45075 0.85314 0.0
H1089 H 0.12677 0.48634 0.83329 0.0
H1090 H 0.12861 0.57868 0.86125 0.0
H1091 H 0.12424 0.54526 0.85636 0.0
C1092 C 0.42606 0.1442 0.84304 0.0
C1093 C 0.41978 0.15691 0.85678 0.0
C1094 C 0.44513 0.14333 0.83825 0.0
C1095 C 0.49062 0.16926 0.84341 0.0
H1096 H 0.51205 0.12017 0.83296 0.0
C1097 C 0.57038 0.15261 0.84552 0.0
C1098 C 0.57762 0.1422 0.83035 0.0
C1099 C 0.551 0.15553 0.84722 0.0
C1100 C 0.5062 0.13399 0.83566 0.0
H1101 H 0.42839 0.17857 0.87643 0.0
H1102 H 0.46173 0.17666 0.86863 0.0
H1103 H 0.47842 0.123 0.83899 0.0
H1104 H 0.57041 0.12671 0.80508 0.0
H1105 H 0.53641 0.13155 0.80825 0.0
H1106 H 0.51873 0.18 0.84084 0.0
C1107 C 0.45196 0.16775 0.86104 0.0
C1108 C 0.4869 0.13566 0.83904 0.0
C1109 C 0.43286 0.16881 0.8656 0.0
C1110 C 0.56517 0.13491 0.81682 0.0
C1111 C 0.54577 0.13757 0.81869 0.0
C1112 C 0.50998 0.16752 0.84032 0.0
C1113 C 0.45838 0.15494 0.84736 0.0
C1114 C 0.47885 0.15331 0.84304 0.0
C1115 C 0.53851 0.14782 0.83396 0.0
C1116 C 0.51793 0.14986 0.83648 0.0
H1117 H 0.41619 0.135 0.83591 0.0
H1118 H 0.44944 0.13356 0.82738 0.0
H1119 H 0.48491 0.18313 0.84607 0.0
H1120 H 0.57972 0.15843 0.85608 0.0
H1121 H 0.54574 0.16338 0.85918 0.0
C1122 C 0.88643 0.5658 0.84958 0.0
C1123 C 0.87142 0.57745 0.84417 0.0
C1124 C 0.8834 0.54665 0.85287 0.0
C1125 C 0.84768 0.5128 0.86681 0.0
H1126 H 0.87836 0.47597 0.84074 0.0
C1127 C 0.83156 0.43331 0.87128 0.0
C1128 C 0.8469 0.4208 0.87171 0.0
C1129 C 0.83435 0.45243 0.86757 0.0
C1130 C 0.86985 0.48602 0.84839 0.0
H1131 H 0.84149 0.57849 0.83832 0.0
H1132 H 0.83611 0.54502 0.84448 0.0
H1133 H 0.88405 0.50942 0.83569 0.0
H1134 H 0.8772 0.41871 0.86814 0.0
H1135 H 0.88214 0.452 0.86279 0.0
H1136 H 0.83384 0.4896 0.88001 0.0
C1137 C 0.85021 0.55067 0.84599 0.0
C1138 C 0.87308 0.50517 0.84541 0.0
C1139 C 0.8533 0.56973 0.84237 0.0
C1140 C 0.86506 0.42792 0.86828 0.0
C1141 C 0.86788 0.44704 0.86486 0.0
C1142 C 0.84464 0.49365 0.87005 0.0
C1143 C 0.86525 0.53896 0.85115 0.0
C1144 C 0.862 0.5187 0.85455 0.0
C1145 C 0.85257 0.45957 0.86443 0.0
C1146 C 0.85567 0.47999 0.86086 0.0
H1147 H 0.90053 0.57146 0.85097 0.0
H1148 H 0.89519 0.53787 0.85692 0.0
H1149 H 0.83905 0.52301 0.87413 0.0
H1150 H 0.81739 0.42844 0.87406 0.0
H1151 H 0.82217 0.46157 0.86708 0.0
C1152 C 0.14599 0.9592 0.33012 0.0
C1153 C 0.155 0.95415 0.34701 0.0
C1154 C 0.13822 0.9772 0.32795 0.0
C1155 C 0.1243 0.01979 0.35531 0.0
H1156 H 0.13761 0.04704 0.30993 0.0
C1157 C 0.13828 0.09863 0.35367 0.0
C1158 C 0.12862 0.10962 0.3404 0.0
C1159 C 0.13734 0.07907 0.35295 0.0
C1160 C 0.13348 0.03949 0.32251 0.0
H1161 H 0.16199 0.96364 0.37515 0.0
H1162 H 0.14903 0.9949 0.37129 0.0
H1163 H 0.14311 0.01308 0.31164 0.0
H1164 H 0.11055 0.1088 0.31581 0.0
H1165 H 0.10948 0.0742 0.31416 0.0
H1166 H 0.11591 0.04645 0.3666 0.0
C1167 C 0.14772 0.98505 0.35972 0.0
C1168 C 0.13657 0.02006 0.3235 0.0
C1169 C 0.15545 0.96717 0.36186 0.0
C1170 C 0.11813 0.10063 0.32621 0.0
C1171 C 0.11752 0.08093 0.32525 0.0
C1172 C 0.12146 0.03919 0.35439 0.0
C1173 C 0.13921 0.9904 0.34269 0.0
C1174 C 0.13265 0.01012 0.34019 0.0
C1175 C 0.12698 0.07004 0.33876 0.0
C1176 C 0.12659 0.04927 0.33822 0.0
H1177 H 0.14547 0.94948 0.3184 0.0
H1178 H 0.13165 0.98084 0.31469 0.0
H1179 H 0.12067 0.0125 0.36819 0.0
H1180 H 0.14637 0.10513 0.36485 0.0
H1181 H 0.14491 0.07094 0.3634 0.0
C1182 C 0.9007 0.13221 0.31837 0.0
C1183 C 0.88959 0.11622 0.32154 0.0
C1184 C 0.9198 0.13042 0.31435 0.0
C1185 C 0.95845 0.10086 0.32751 0.0
H1186 H 0.98651 0.1358 0.29634 0.0
C1187 C 0.02693 0.13567 0.35067 0.0
C1188 C 0.04095 0.13992 0.33742 0.0
C1189 C 0.01017 0.12709 0.34507 0.0
C1190 C 0.979 0.12562 0.30485 0.0
H1191 H 0.88931 0.08576 0.32214 0.0
H1192 H 0.92315 0.08256 0.31553 0.0
H1193 H 0.95291 0.13122 0.29078 0.0
H1194 H 0.04877 0.13786 0.30802 0.0
H1195 H 0.01926 0.12296 0.29812 0.0
H1196 H 0.98431 0.09608 0.34228 0.0
C1197 C 0.91694 0.09647 0.31593 0.0
C1198 C 0.95974 0.12309 0.30173 0.0
C1199 C 0.89763 0.09828 0.3196 0.0
C1200 C 0.03822 0.13467 0.31853 0.0
C1201 C 0.02132 0.12624 0.31287 0.0
C1202 C 0.97769 0.10347 0.3307 0.0
C1203 C 0.92828 0.11258 0.31374 0.0
C1204 C 0.94912 0.11132 0.31357 0.0
C1205 C 0.00698 0.12269 0.32604 0.0
C1206 C 0.98797 0.11651 0.31994 0.0
H1207 H 0.89474 0.14619 0.31977 0.0
H1208 H 0.92816 0.14311 0.31299 0.0
H1209 H 0.95062 0.09177 0.33692 0.0
H1210 H 0.02878 0.13937 0.36533 0.0
H1211 H -0.00067 0.12476 0.35553 0.0
C1212 C 0.88881 0.89904 0.34661 0.0
C1213 C 0.88467 0.88461 0.33381 0.0
C1214 C 0.88857 0.91779 0.34083 0.0
C1215 C 0.86101 0.94659 0.311 0.0
H1216 H 0.89562 0.98651 0.32472 0.0
C1217 C 0.83714 0.02355 0.30718 0.0
C1218 C 0.84313 0.03542 0.32176 0.0
C1219 C 0.84562 0.00604 0.30447 0.0
C1220 C 0.88571 0.97558 0.32093 0.0
H1221 H 0.87768 0.87804 0.30491 0.0
H1222 H 0.87657 0.91115 0.29481 0.0
H1223 H 0.90554 0.9537 0.32736 0.0
H1224 H 0.86281 0.03871 0.34471 0.0
H1225 H 0.87697 0.00767 0.34088 0.0
H1226 H 0.8406 0.96795 0.30612 0.0
C1227 C 0.88047 0.90788 0.30919 0.0
C1228 C 0.89151 0.95681 0.32224 0.0
C1229 C 0.88118 0.88903 0.3149 0.0
C1230 C 0.85806 0.02974 0.33333 0.0
C1231 C 0.86624 0.012 0.33097 0.0
C1232 C 0.85506 0.96527 0.31008 0.0
C1233 C 0.88366 0.92241 0.32226 0.0
C1234 C 0.87907 0.94216 0.31763 0.0
C1235 C 0.85993 -0.00026 0.31667 0.0
C1236 C 0.86717 0.98005 0.31544 0.0
H1237 H 0.89137 0.89584 0.3613 0.0
H1238 H 0.89084 0.92872 0.35122 0.0
H1239 H 0.85104 0.93552 0.30768 0.0
H1240 H 0.82585 0.02786 0.29789 0.0
H1241 H 0.8407 0.99734 0.29297 0.0
C1242 C 0.97589 0.83431 0.35294 0.0
C1243 C 0.96165 0.83486 0.33924 0.0
C1244 C 0.99339 0.84258 0.34952 0.0
C1245 C 0.02573 0.85383 0.31173 0.0
H1246 H 0.05196 0.8817 0.35072 0.0
C1247 C 0.10531 0.85265 0.32275 0.0
C1248 C 0.11472 0.86898 0.32865 0.0
C1249 C 0.08591 0.85281 0.31984 0.0
C1250 C 0.04473 0.87429 0.33952 0.0
H1251 H 0.9545 0.84454 0.31124 0.0
H1252 H 0.98539 0.85875 0.30505 0.0
H1253 H 0.01869 0.8739 0.35475 0.0
H1254 H 0.11156 0.89852 0.33538 0.0
H1255 H 0.0772 0.89872 0.33078 0.0
H1256 H 0.05205 0.85335 0.29697 0.0
C1257 C 0.98287 0.85204 0.31851 0.0
C1258 C 0.02575 0.86966 0.34192 0.0
C1259 C 0.96522 0.84399 0.32206 0.0
C1260 C 0.10457 0.8858 0.3307 0.0
C1261 C 0.08498 0.88587 0.32817 0.0
C1262 C 0.04477 0.85827 0.30943 0.0
C1263 C 0.99712 0.8514 0.33222 0.0
C1264 C 0.01622 0.8589 0.32831 0.0
C1265 C 0.07544 0.86924 0.32313 0.0
C1266 C 0.05459 0.86806 0.32356 0.0
H1267 H 0.97345 0.82758 0.36639 0.0
H1268 H 0.00418 0.84166 0.36026 0.0
H1269 H 0.01876 0.84547 0.30104 0.0
H1270 H 0.11287 0.83951 0.32108 0.0
H1271 H 0.07896 0.83974 0.31617 0.0
C1272 C 0.13749 0.02527 0.64051 0.0
C1273 C 0.14146 0.03795 0.65512 0.0
C1274 C 0.12893 0.00803 0.64427 0.0
C1275 C 0.12515 0.9732 0.68185 0.0
H1276 H 0.09501 0.94771 0.6441 0.0
C1277 C 0.11038 0.89184 0.67965 0.0
C1278 C 0.11892 0.88453 0.66337 0.0
C1279 C 0.10797 0.91135 0.68169 0.0
C1280 C 0.10312 0.95473 0.65495 0.0
H1281 H 0.13876 0.04291 0.68508 0.0
H1282 H 0.12361 0.01261 0.69174 0.0
H1283 H 0.09922 0.98175 0.64233 0.0
H1284 H 0.13088 0.89165 0.63619 0.0
H1285 H 0.1262 0.92538 0.63954 0.0
H1286 H 0.12956 0.94587 0.69397 0.0
C1287 C 0.12729 0.01603 0.67735 0.0
C1288 C 0.10566 0.97418 0.65388 0.0
C1289 C 0.13582 0.03341 0.67353 0.0
C1290 C 0.12445 0.89689 0.64899 0.0
C1291 C 0.12162 0.91618 0.65081 0.0
C1292 C 0.1224 0.95372 0.68304 0.0
C1293 C 0.12408 0.00298 0.66278 0.0
C1294 C 0.11751 0.98349 0.66673 0.0
C1295 C 0.11353 0.92361 0.6672 0.0
C1296 C 0.11209 0.94426 0.66908 0.0
H1297 H 0.14144 0.02849 0.62615 0.0
H1298 H 0.12696 0.99829 0.63271 0.0
H1299 H 0.13442 0.97989 0.69193 0.0
H1300 H 0.10601 0.88255 0.69091 0.0
H1301 H 0.10179 0.91685 0.69449 0.0
C1302 C 0.10715 0.14603 0.67676 0.0
C1303 C 0.11505 0.12873 0.67149 0.0
C1304 C 0.08768 0.14819 0.67771 0.0
C1305 C 0.04138 0.12407 0.67644 0.0
H1306 H 0.02686 0.16926 0.64949 0.0
C1307 C 0.96421 0.15212 0.66889 0.0
C1308 C 0.9595 0.1598 0.65126 0.0
C1309 C 0.98266 0.14618 0.6726 0.0
C1310 C 0.03064 0.15652 0.65696 0.0
H1311 H 0.10896 0.0997 0.66441 0.0
H1312 H 0.07464 0.10358 0.66566 0.0
H1313 H 0.0599 0.16295 0.65519 0.0
H1314 H 0.97004 0.16582 0.62328 0.0
H1315 H 0.00204 0.15554 0.62969 0.0
H1316 H 0.01182 0.11762 0.67779 0.0
C1317 C 0.08356 0.11542 0.66928 0.0
C1318 C 0.0496 0.15302 0.66047 0.0
C1319 C 0.10317 0.11319 0.66854 0.0
C1320 C 0.97333 0.16047 0.63715 0.0
C1321 C 0.99166 0.15454 0.64082 0.0
C1322 C 0.02225 0.12765 0.67299 0.0
C1323 C 0.07565 0.13317 0.67311 0.0
C1324 C 0.05524 0.13678 0.67022 0.0
C1325 C 0.99668 0.14781 0.65872 0.0
C1326 C 0.01674 0.14385 0.66303 0.0
H1327 H 0.11603 0.15815 0.6794 0.0
H1328 H 0.08203 0.16191 0.6812 0.0
H1329 H 0.04531 0.11144 0.68401 0.0
H1330 H 0.95385 0.15145 0.68004 0.0
H1331 H 0.98614 0.1411 0.68654 0.0
C1332 C 0.86155 0.96683 0.68153 0.0
C1333 C 0.85704 0.96305 0.66263 0.0
C1334 C 0.87016 0.98384 0.68653 0.0
C1335 C 0.89374 0.0264 0.66665 0.0
H1336 H 0.86551 0.05303 0.705 0.0
C1337 C 0.86268 0.10317 0.67458 0.0
C1338 C 0.87818 0.11445 0.66988 0.0
C1339 C 0.86523 0.08447 0.67982 0.0
C1340 C 0.87376 0.04572 0.69446 0.0
H1341 H 0.85928 0.97344 0.63407 0.0
H1342 H 0.87392 0.00311 0.64271 0.0
H1343 H 0.86137 0.0192 0.70139 0.0
H1344 H 0.9086 0.11554 0.66797 0.0
H1345 H 0.91313 0.08241 0.67685 0.0
H1346 H 0.90493 0.0532 0.65873 0.0
C1347 C 0.87095 0.993 0.65372 0.0
C1348 C 0.8715 0.0263 0.69247 0.0
C1349 C 0.86228 0.97611 0.64877 0.0
C1350 C 0.89644 0.10707 0.67158 0.0
C1351 C 0.899 0.08815 0.67657 0.0
C1352 C 0.89598 0.04584 0.66864 0.0
C1353 C 0.87458 0.9973 0.6727 0.0
C1354 C 0.88073 0.01659 0.67791 0.0
C1355 C 0.88335 0.07655 0.68026 0.0
C1356 C 0.88525 0.05582 0.68191 0.0
H1357 H 0.85767 0.95704 0.69253 0.0
H1358 H 0.87288 0.9867 0.70126 0.0
H1359 H 0.90132 0.01923 0.65554 0.0
H1360 H 0.84847 0.10861 0.67351 0.0
H1361 H 0.85286 0.07592 0.68231 0.0
C1362 C 0.0336 0.85114 0.6837 0.0
C1363 C 0.03647 0.84391 0.66551 0.0
C1364 C 0.0164 0.8595 0.68849 0.0
C1365 C 0.9733 0.88048 0.66814 0.0
H1366 H 0.94759 0.85873 0.71109 0.0
C1367 C 0.89446 0.89372 0.68029 0.0
C1368 C 0.88447 0.87666 0.68108 0.0
C1369 C 0.91399 0.89391 0.68307 0.0
C1370 C 0.95468 0.86514 0.69921 0.0
H1371 H 0.02409 0.84061 0.63786 0.0
H1372 H 0.99419 0.85524 0.64612 0.0
H1373 H 0.98087 0.85171 0.70579 0.0
H1374 H 0.88662 0.84683 0.68692 0.0
H1375 H 0.9205 0.84718 0.69199 0.0
H1376 H 0.94691 0.89306 0.66094 0.0
C1377 C 0.00513 0.85444 0.65671 0.0
C1378 C 0.97375 0.86122 0.69624 0.0
C1379 C 0.02216 0.84586 0.65203 0.0
C1380 C 0.89403 0.86014 0.68613 0.0
C1381 C 0.91342 0.86038 0.68917 0.0
C1382 C 0.9543 0.88452 0.67118 0.0
C1383 C 0.00195 0.86109 0.67506 0.0
C1384 C 0.98304 0.86826 0.68026 0.0
C1385 C 0.92373 0.87712 0.687 0.0
C1386 C 0.94461 0.87631 0.68635 0.0
H1387 H 0.04441 0.84973 0.69436 0.0
H1388 H 0.01431 0.86453 0.70273 0.0
H1389 H 0.98018 0.88625 0.65582 0.0
H1390 H 0.88742 0.90665 0.67635 0.0
H1391 H 0.92158 0.90703 0.68141 0.0
C1392 C 0.3601 0.13033 0.96608 0.0
C1393 C 0.34554 0.13436 0.95334 0.0
C1394 C 0.35613 0.12262 0.98368 0.0
C1395 C 0.31843 0.12126 0.01873 0.0
H1396 H 0.35461 0.09002 0.04506 0.0
C1397 C 0.31753 0.11102 0.09993 0.0
C1398 C 0.33455 0.11768 0.10749 0.0
C1399 C 0.31608 0.10734 0.08057 0.0
C1400 C 0.34422 0.09851 0.03782 0.0
H1401 H 0.31539 0.13271 0.94882 0.0
H1402 H 0.30842 0.11901 0.97961 0.0
H1403 H 0.35701 0.09374 0.011 0.0
H1404 H 0.36361 0.12459 0.10129 0.0
H1405 H 0.36126 0.11772 0.06784 0.0
H1406 H 0.30614 0.12658 0.04578 0.0
C1407 C 0.32293 0.122 0.97599 0.0
C1408 C 0.34565 0.10076 0.01836 0.0
C1409 C 0.32694 0.1297 0.95829 0.0
C1410 C 0.35029 0.1196 0.09574 0.0
C1411 C 0.34899 0.11551 0.07663 0.0
C1412 C 0.31691 0.11887 0.03822 0.0
C1413 C 0.33747 0.1187 0.98902 0.0
C1414 C 0.33333 0.11289 0.00871 0.0
C1415 C 0.33181 0.10974 0.06875 0.0
C1416 C 0.33031 0.10817 0.04802 0.0
H1417 H 0.37459 0.1335 0.96258 0.0
H1418 H 0.36768 0.12053 0.99341 0.0
H1419 H 0.30875 0.13077 0.01179 0.0
H1420 H 0.30521 0.1095 0.10879 0.0
H1421 H 0.30267 0.10296 0.07477 0.0
C1422 C 0.85461 0.31653 0.09742 0.0
C1423 C 0.86885 0.32107 0.11032 0.0
C1424 C 0.85906 0.31188 0.0789 0.0
C1425 C 0.89392 0.32414 0.04394 0.0
H1426 H 0.8622 0.29258 0.01264 0.0
C1427 C 0.86775 0.34641 0.97195 0.0
C1428 C 0.86367 0.33304 0.958 0.0
C1429 C 0.87493 0.34083 0.98933 0.0
C1430 C 0.87156 0.30115 0.02109 0.0
H1431 H 0.89903 0.32322 0.11436 0.0
H1432 H 0.90689 0.31525 0.08171 0.0
H1433 H 0.86237 0.28807 0.04663 0.0
H1434 H 0.86492 0.30347 0.9508 0.0
H1435 H 0.87743 0.29356 0.98142 0.0
H1436 H 0.90247 0.33779 0.01848 0.0
C1437 C 0.89225 0.31528 0.086 0.0
C1438 C 0.87152 0.29868 0.0406 0.0
C1439 C 0.88777 0.31974 0.10468 0.0
C1440 C 0.86799 0.31404 0.96133 0.0
C1441 C 0.87503 0.30839 0.97887 0.0
C1442 C 0.89398 0.3266 0.02443 0.0
C1443 C 0.87789 0.31182 0.07278 0.0
C1444 C 0.88194 0.31079 0.05229 0.0
C1445 C 0.8781 0.32169 0.99322 0.0
C1446 C 0.88206 0.31579 0.01289 0.0
H1447 H 0.83991 0.31731 0.10144 0.0
H1448 H 0.84762 0.30954 0.06908 0.0
H1449 H 0.90211 0.33373 0.05252 0.0
H1450 H 0.86475 0.36116 0.96962 0.0
H1451 H 0.87689 0.35145 9e-05 0.0
C1452 C 0.68793 0.83092 0.97656 0.0
C1453 C 0.67807 0.84361 0.96515 0.0
C1454 C 0.69212 0.8355 0.9952 0.0
C1455 C 0.68852 0.87396 0.03152 0.0
H1456 H 0.67919 0.83136 0.06426 0.0
C1457 C 0.65654 0.85621 0.10899 0.0
C1458 C 0.66668 0.86809 0.12111 0.0
C1459 C 0.66149 0.85459 0.09016 0.0
C1460 C 0.68185 0.84344 0.05534 0.0
H1461 H 0.66561 0.8713 0.96372 0.0
H1462 H 0.67187 0.87904 0.99661 0.0
H1463 H 0.68211 0.82633 0.03082 0.0
H1464 H 0.68962 0.88814 0.12284 0.0
H1465 H 0.69854 0.88512 0.08947 0.0
H1466 H 0.6868 0.89112 0.05636 0.0
C1467 C 0.67702 0.86578 0.99116 0.0
C1468 C 0.68385 0.84053 0.03607 0.0
C1469 C 0.67329 0.86135 0.97234 0.0
C1470 C 0.6816 0.87884 0.11379 0.0
C1471 C 0.68668 0.87712 0.09475 0.0
C1472 C 0.68629 0.87689 0.05092 0.0
C1473 C 0.68595 0.85265 0.00303 0.0
C1474 C 0.68673 0.85577 0.02378 0.0
C1475 C 0.67685 0.86466 0.08286 0.0
C1476 C 0.6823 0.86169 0.0629 0.0
H1477 H 0.69202 0.81728 0.97113 0.0
H1478 H 0.69958 0.82526 0.00366 0.0
H1479 H 0.6911 0.886 0.02257 0.0
H1480 H 0.64473 0.84799 0.11406 0.0
H1481 H 0.65324 0.84533 0.08127 0.0
C1482 C 0.13817 0.67597 0.09784 0.0
C1483 C 0.12294 0.67305 0.11006 0.0
C1484 C 0.13508 0.68026 0.07897 0.0
C1485 C 0.10164 0.67034 0.04203 0.0
H1486 H 0.13626 0.70096 0.01297 0.0
C1487 C 0.13052 0.64854 0.9709 0.0
C1488 C 0.13581 0.66208 0.95755 0.0
C1489 C 0.12262 0.65397 0.98801 0.0
C1490 C 0.12611 0.69268 0.02078 0.0
H1491 H 0.09249 0.67316 0.11241 0.0
H1492 H 0.08705 0.68038 0.07909 0.0
H1493 H 0.13472 0.70479 0.047 0.0
H1494 H 0.1359 0.69184 0.95103 0.0
H1495 H 0.12211 0.70147 0.98116 0.0
H1496 H 0.09371 0.65759 0.01589 0.0
C1497 C 0.10138 0.6794 0.08422 0.0
C1498 C 0.12537 0.69475 0.04031 0.0
C1499 C 0.10449 0.67533 0.10325 0.0
C1500 C 0.13192 0.68113 0.96111 0.0
C1501 C 0.12414 0.68663 0.97836 0.0
C1502 C 0.10239 0.66825 0.02249 0.0
C1503 C 0.11667 0.68157 0.07183 0.0
C1504 C 0.11381 0.68296 0.0512 0.0
C1505 C 0.11991 0.67312 0.9922 0.0
C1506 C 0.11532 0.67874 0.01178 0.0
H1507 H 0.15254 0.67448 0.10275 0.0
H1508 H 0.14716 0.68157 0.06976 0.0
H1509 H 0.09259 0.66104 0.05003 0.0
H1510 H 0.13316 0.63375 0.96837 0.0
H1511 H 0.11974 0.6432 0.9984 0.0
C1512 C 0.31972 0.85862 0.03643 0.0
C1513 C 0.33819 0.85226 0.0396 0.0
C1514 C 0.31469 0.86634 0.019 0.0
C1515 C 0.33447 0.88471 0.97402 0.0
H1516 H 0.29154 0.85989 0.95118 0.0
C1517 C 0.31676 0.85341 0.89848 0.0
C1518 C 0.32235 0.86816 0.88662 0.0
C1519 C 0.31349 0.85664 0.91754 0.0
C1520 C 0.30342 0.86715 0.95741 0.0
H1521 H 0.36612 0.85017 0.02758 0.0
H1522 H 0.35742 0.86341 0.99725 0.0
H1523 H 0.29701 0.8567 0.9849 0.0
H1524 H 0.32783 0.89811 0.88503 0.0
H1525 H 0.32233 0.90381 0.91867 0.0
H1526 H 0.34164 0.89402 0.9463 0.0
C1527 C 0.34678 0.86254 0.00813 0.0
C1528 C 0.30648 0.86546 0.97677 0.0
C1529 C 0.35173 0.85471 0.02543 0.0
C1530 C 0.32347 0.88651 0.8939 0.0
C1531 C 0.32044 0.88973 0.91313 0.0
C1532 C 0.3314 0.88643 0.95466 0.0
C1533 C 0.3281 0.86804 0.00453 0.0
C1534 C 0.32252 0.87351 0.98513 0.0
C1535 C 0.31594 0.8747 0.92524 0.0
C1536 C 0.31632 0.87695 0.94602 0.0
H1537 H 0.30898 0.85684 0.04709 0.0
H1538 H 0.30021 0.87053 0.01667 0.0
H1539 H 0.34679 0.89133 0.98012 0.0
H1540 H 0.31569 0.83914 0.89317 0.0
H1541 H 0.31027 0.8447 0.92645 0.0
C1542 C 0.13968 0.31854 0.90377 0.0
C1543 C 0.12531 0.32313 0.89105 0.0
C1544 C 0.13551 0.31465 0.92249 0.0
C1545 C 0.10252 0.32936 0.95807 0.0
H1546 H 0.13328 0.29652 0.98894 0.0
C1547 C 0.13014 0.35073 0.03028 0.0
C1548 C 0.13392 0.3371 0.04408 0.0
C1549 C 0.12296 0.34551 0.01276 0.0
C1550 C 0.1242 0.30551 0.98065 0.0
H1551 H 0.09521 0.32635 0.88749 0.0
H1552 H 0.0878 0.31984 0.9207 0.0
H1553 H 0.13173 0.29143 0.95511 0.0
H1554 H 0.13213 0.30735 0.05062 0.0
H1555 H 0.11939 0.29822 0.02002 0.0
H1556 H 0.09558 0.34391 0.98353 0.0
C1557 C 0.1023 0.31912 0.91605 0.0
C1558 C 0.12344 0.30267 0.96121 0.0
C1559 C 0.1065 0.32273 0.89709 0.0
C1560 C 0.12936 0.31821 0.04032 0.0
C1561 C 0.12218 0.31296 0.02273 0.0
C1562 C 0.10325 0.33219 0.97754 0.0
C1563 C 0.11685 0.3155 0.92903 0.0
C1564 C 0.11336 0.31514 0.94962 0.0
C1565 C 0.11934 0.32651 0.00858 0.0
C1566 C 0.11484 0.32086 0.98892 0.0
H1567 H 0.1543 0.31869 0.89938 0.0
H1568 H 0.14708 0.31218 0.93211 0.0
H1569 H 0.09464 0.33923 0.94954 0.0
H1570 H 0.13319 0.36543 0.03286 0.0
H1571 H 0.12117 0.35633 0.00218 0.0
C1572 C 0.64178 0.13773 0.02307 0.0
C1573 C 0.65559 0.14212 0.03653 0.0
C1574 C 0.64689 0.13151 0.00517 0.0
C1575 C 0.68529 0.13686 0.97169 0.0
H1576 H 0.65409 0.10377 0.94144 0.0
C1577 C 0.67302 0.148 0.89328 0.0
C1578 C 0.6706 0.13253 0.88123 0.0
C1579 C 0.67578 0.14533 0.9125 0.0
C1580 C 0.66322 0.11275 0.94973 0.0
H1581 H 0.6856 0.1425 0.04208 0.0
H1582 H 0.69459 0.13152 0.01071 0.0
H1583 H 0.64994 0.10459 0.97552 0.0
H1584 H 0.66993 0.10207 0.87967 0.0
H1585 H 0.67456 0.09736 0.91356 0.0
H1586 H 0.69813 0.14548 0.94584 0.0
C1587 C 0.67979 0.13304 0.01402 0.0
C1588 C 0.66071 0.11337 0.96923 0.0
C1589 C 0.67464 0.13919 0.03202 0.0
C1590 C 0.67177 0.11425 0.88867 0.0
C1591 C 0.67433 0.11156 0.90804 0.0
C1592 C 0.68779 0.13626 0.95221 0.0
C1593 C 0.66597 0.12956 0.00026 0.0
C1594 C 0.67121 0.12596 0.98034 0.0
C1595 C 0.67605 0.12711 0.92019 0.0
C1596 C 0.67627 0.12475 0.94094 0.0
H1597 H 0.62699 0.13959 0.02624 0.0
H1598 H 0.63588 0.12916 0.99489 0.0
H1599 H 0.69357 0.14677 0.9798 0.0
H1600 H 0.67234 0.16226 0.88792 0.0
H1601 H 0.6768 0.15761 0.92148 0.0
C1602 C 0.89384 0.67548 0.89319 0.0
C1603 C 0.87544 0.67414 0.88609 0.0
C1604 C 0.8968 0.67986 0.91222 0.0
C1605 C 0.87282 0.69747 0.95539 0.0
H1606 H 0.89973 0.6575 0.98094 0.0
C1607 C 0.86243 0.68442 0.0346 0.0
C1608 C 0.8569 0.66576 0.03812 0.0
C1609 C 0.87088 0.68923 0.01744 0.0
C1610 C 0.89238 0.66893 0.97404 0.0
H1611 H 0.84587 0.67767 0.89262 0.0
H1612 H 0.85095 0.68557 0.92549 0.0
H1613 H 0.90272 0.66091 0.9469 0.0
H1614 H 0.85713 0.63733 0.02721 0.0
H1615 H 0.8717 0.6456 0.99736 0.0
H1616 H 0.86135 0.70461 0.98227 0.0
C1617 C 0.86314 0.68321 0.91662 0.0
C1618 C 0.89424 0.671 0.95456 0.0
C1619 C 0.86019 0.67852 0.89783 0.0
C1620 C 0.86102 0.65185 0.02473 0.0
C1621 C 0.8696 0.65658 0.00773 0.0
C1622 C 0.871 0.69544 0.97486 0.0
C1623 C 0.88141 0.68337 0.92421 0.0
C1624 C 0.88372 0.68469 0.94493 0.0
C1625 C 0.87416 0.67539 0.00365 0.0
C1626 C 0.88002 0.68054 0.98424 0.0
H1627 H 0.9058 0.67206 0.88437 0.0
H1628 H 0.91103 0.67988 0.91772 0.0
H1629 H 0.86472 0.70829 0.94834 0.0
H1630 H 0.85938 0.69542 0.0447 0.0
H1631 H 0.87431 0.70383 0.01472 0.0
C1632 C 0.96136 0.35335 0.15215 0.0
C1633 C 0.94746 0.33951 0.15462 0.0
C1634 C 0.97918 0.34852 0.14545 0.0
C1635 C 0.01228 0.30958 0.14491 0.0
H1636 H 0.04023 0.34229 0.11128 0.0
C1637 C 0.09211 0.31941 0.14809 0.0
C1638 C 0.10232 0.32242 0.13145 0.0
C1639 C 0.07263 0.31708 0.14755 0.0
C1640 C 0.03255 0.33278 0.1204 0.0
H1641 H 0.94119 0.30981 0.15169 0.0
H1642 H 0.97255 0.30129 0.1401 0.0
H1643 H 0.00654 0.34733 0.11584 0.0
H1644 H 0.10033 0.32447 0.10107 0.0
H1645 H 0.06602 0.32065 0.10015 0.0
H1646 H 0.03846 0.29551 0.15004 0.0
C1647 C 0.96956 0.31589 0.14332 0.0
C1648 C 0.01331 0.33579 0.12315 0.0
C1649 C 0.95162 0.32077 0.14984 0.0
C1650 C 0.09279 0.32214 0.11412 0.0
C1651 C 0.07318 0.32005 0.11359 0.0
C1652 C 0.03156 0.30666 0.14225 0.0
C1653 C 0.98357 0.32972 0.1412 0.0
C1654 C 0.0031 0.32459 0.13588 0.0
C1655 C 0.06288 0.31791 0.13037 0.0
C1656 C 0.042 0.31859 0.13041 0.0
H1657 H 0.95848 0.36793 0.15549 0.0
H1658 H 0.98974 0.35947 0.14418 0.0
H1659 H 0.00481 0.30077 0.15485 0.0
H1660 H 0.09912 0.31946 0.16164 0.0
H1661 H 0.06509 0.31566 0.16073 0.0
C1662 C 0.9654 0.6791 0.82121 0.0
C1663 C 0.95386 0.66771 0.8324 0.0
C1664 C 0.98377 0.6832 0.82683 0.0
C1665 C 0.01842 0.67757 0.86647 0.0
H1666 H 0.0538 0.67679 0.82498 0.0
C1667 C 0.10023 0.65714 0.84998 0.0
C1668 C 0.10998 0.66605 0.86468 0.0
C1669 C 0.08114 0.66038 0.84722 0.0
C1670 C 0.04414 0.67697 0.83677 0.0
H1671 H 0.95186 0.65217 0.85843 0.0
H1672 H 0.98443 0.65826 0.86789 0.0
H1673 H 0.02048 0.67674 0.81848 0.0
H1674 H 0.10727 0.68532 0.88819 0.0
H1675 H 0.07359 0.69138 0.88307 0.0
H1676 H 0.04247 0.67634 0.8847 0.0
C1677 C 0.97925 0.66465 0.85507 0.0
C1678 C 0.02491 0.67728 0.83304 0.0
C1679 C 0.96066 0.661 0.84965 0.0
C1680 C 0.10011 0.67828 0.87671 0.0
C1681 C 0.08085 0.68168 0.87382 0.0
C1682 C 0.03779 0.67696 0.87021 0.0
C1683 C 0.99122 0.67547 0.8435 0.0
C1684 C 0.01171 0.67723 0.8478 0.0
C1685 C 0.07121 0.67285 0.85891 0.0
C1686 C 0.05084 0.67613 0.85536 0.0
H1687 H 0.96021 0.68467 0.80801 0.0
H1688 H 0.99225 0.6921 0.81783 0.0
H1689 H 0.00873 0.67791 0.87822 0.0
H1690 H 0.10728 0.64742 0.84059 0.0
H1691 H 0.0741 0.65288 0.83596 0.0
C1692 C 0.32333 0.09612 0.84705 0.0
C1693 C 0.32738 0.10511 0.86415 0.0
C1694 C 0.32243 0.07658 0.84608 0.0
C1695 C 0.32052 0.03213 0.87288 0.0
H1696 H 0.35163 0.01431 0.83168 0.0
C1697 C 0.32711 0.95388 0.84828 0.0
C1698 C 0.34516 0.94808 0.84257 0.0
C1699 C 0.32389 0.97259 0.85358 0.0
C1700 C 0.343 0.01904 0.84334 0.0
H1701 H 0.33224 0.10091 0.89398 0.0
H1702 H 0.33096 0.06645 0.89222 0.0
H1703 H 0.34639 0.04781 0.83556 0.0
H1704 H 0.37424 0.95679 0.83957 0.0
H1705 H 0.36868 0.98931 0.84879 0.0
H1706 H 0.31738 0.00305 0.88064 0.0
C1707 C 0.32836 0.07459 0.8796 0.0
C1708 C 0.33979 0.03822 0.84542 0.0
C1709 C 0.32914 0.09427 0.8806 0.0
C1710 C 0.36011 0.96099 0.84341 0.0
C1711 C 0.35692 0.97958 0.84873 0.0
C1712 C 0.32365 0.01276 0.8707 0.0
C1713 C 0.32573 0.06558 0.86216 0.0
C1714 C 0.3285 0.04501 0.86016 0.0
C1715 C 0.33869 0.98573 0.85328 0.0
C1716 C 0.33505 0.00609 0.85596 0.0
H1717 H 0.32155 0.10417 0.83422 0.0
H1718 H 0.31992 0.07002 0.83253 0.0
H1719 H 0.31176 0.03701 0.88436 0.0
H1720 H 0.31533 0.94422 0.84774 0.0
H1721 H 0.30969 0.97698 0.85698 0.0
C1722 C 0.9037 0.34138 0.84971 0.0
C1723 C 0.89451 0.33489 0.86597 0.0
C1724 C 0.92281 0.33811 0.84704 0.0
C1725 C 0.96694 0.32922 0.87177 0.0
H1726 H 0.98431 0.31872 0.82106 0.0
C1727 C 0.04612 0.32465 0.84908 0.0
C1728 C 0.05047 0.33592 0.83332 0.0
C1729 C 0.02739 0.32174 0.85453 0.0
C1730 C 0.97967 0.32159 0.83531 0.0
H1731 H 0.89823 0.31982 0.89223 0.0
H1732 H 0.93205 0.31407 0.88751 0.0
H1733 H 0.95074 0.31763 0.82806 0.0
H1734 H 0.0381 0.35343 0.81147 0.0
H1735 H 0.00577 0.34789 0.82065 0.0
H1736 H 0.99605 0.33352 0.87881 0.0
C1737 C 0.92426 0.32173 0.87688 0.0
C1738 C 0.96047 0.32099 0.83932 0.0
C1739 C 0.90494 0.32495 0.87954 0.0
C1740 C 0.03554 0.34432 0.82336 0.0
C1741 C 0.0169 0.3412 0.82865 0.0
C1742 C 0.98626 0.32968 0.86776 0.0
C1743 C 0.93334 0.32823 0.86052 0.0
C1744 C 0.95383 0.32549 0.8574 0.0
C1745 C 0.01262 0.32979 0.84418 0.0
C1746 C 0.99269 0.32651 0.84932 0.0
H1747 H 0.89617 0.34913 0.83896 0.0
H1748 H 0.92943 0.34367 0.83448 0.0
H1749 H 0.96224 0.33281 0.88582 0.0
H1750 H 0.05707 0.3178 0.85711 0.0
H1751 H 0.02442 0.31287 0.86657 0.0
C1752 C 0.66049 0.03401 0.82576 0.0
C1753 C 0.65765 0.04963 0.83748 0.0
C1754 C 0.66459 0.01642 0.83344 0.0
C1755 C 0.67859 0.99229 0.87815 0.0
H1756 H 0.65772 0.9489 0.85241 0.0
C1757 C 0.66683 0.91741 0.90961 0.0
C1758 C 0.67206 0.9022 0.89808 0.0
C1759 C 0.66851 0.9359 0.90309 0.0
C1760 C 0.66382 0.96088 0.85962 0.0
H1761 H 0.65695 0.05931 0.86632 0.0
H1762 H 0.66316 0.02835 0.87996 0.0
H1763 H 0.65294 0.98009 0.83936 0.0
H1764 H 0.68424 0.89454 0.87113 0.0
H1765 H 0.6868 0.92677 0.85968 0.0
H1766 H 0.68851 0.97276 0.899 0.0
C1767 C 0.66286 0.0297 0.86479 0.0
C1768 C 0.66118 0.97881 0.85211 0.0
C1769 C 0.65917 0.04742 0.85704 0.0
C1770 C 0.68009 0.9059 0.88038 0.0
C1771 C 0.68148 0.92435 0.87377 0.0
C1772 C 0.68091 0.97431 0.88587 0.0
C1773 C 0.6655 0.01391 0.85308 0.0
C1774 C 0.66858 0.99479 0.8612 0.0
C1775 C 0.67519 0.93944 0.88485 0.0
C1776 C 0.67361 0.95847 0.8766 0.0
H1777 H 0.65975 0.03549 0.81061 0.0
H1778 H 0.66707 0.0048 0.8239 0.0
H1779 H 0.68474 0.00418 0.88544 0.0
H1780 H 0.66066 0.91499 0.92334 0.0
H1781 H 0.66352 0.94733 0.91186 0.0
C1782 C 0.02721 0.64512 0.14877 0.0
C1783 C 0.04103 0.65892 0.15188 0.0
C1784 C 0.00954 0.65008 0.14174 0.0
C1785 C 0.9766 0.68928 0.1411 0.0
H1786 H 0.94903 0.65709 0.10665 0.0
C1787 C 0.89675 0.67988 0.1428 0.0
C1788 C 0.88681 0.6769 0.12599 0.0
C1789 C 0.91623 0.68225 0.14257 0.0
C1790 C 0.95662 0.66646 0.11599 0.0
H1791 H 0.04729 0.6887 0.14973 0.0
H1792 H 0.01628 0.6974 0.13749 0.0
H1793 H 0.98258 0.65171 0.11183 0.0
H1794 H 0.88922 0.67503 0.09564 0.0
H1795 H 0.92354 0.67895 0.09525 0.0
H1796 H 0.95047 0.70356 0.14581 0.0
C1797 C 0.01919 0.68274 0.14049 0.0
C1798 C 0.97577 0.66325 0.11911 0.0
C1799 C 0.03695 0.67775 0.14737 0.0
C1800 C 0.89657 0.67736 0.1088 0.0
C1801 C 0.91618 0.67948 0.10859 0.0
C1802 C 0.95742 0.69242 0.13807 0.0
C1803 C 0.00524 0.66897 0.13777 0.0
C1804 C 0.98582 0.67425 0.13214 0.0
C1805 C 0.92624 0.6815 0.12554 0.0
C1806 C 0.9471 0.68067 0.12593 0.0
H1807 H 0.03002 0.63049 0.15189 0.0
H1808 H 0.99902 0.63916 0.14001 0.0
H1809 H 0.98394 0.69795 0.15128 0.0
H1810 H 0.88954 0.6797 0.15624 0.0
H1811 H 0.92357 0.68358 0.15588 0.0
C1812 C 0.33806 0.02674 0.17428 0.0
C1813 C 0.33564 0.04215 0.16212 0.0
C1814 C 0.33749 0.0084 0.16741 0.0
C1815 C 0.32047 0.97691 0.13151 0.0
H1816 H 0.36448 0.94764 0.14524 0.0
C1817 C 0.33168 0.89668 0.11399 0.0
C1818 C 0.33857 0.88623 0.12932 0.0
C1819 C 0.33052 0.91639 0.1151 0.0
C1820 C 0.35208 0.9556 0.1413 0.0
H1821 H 0.32973 0.05015 0.13321 0.0
H1822 H 0.32829 0.01778 0.1213 0.0
H1823 H 0.36342 0.98107 0.15261 0.0
H1824 H 0.34859 0.88812 0.15815 0.0
H1825 H 0.34642 0.922 0.16008 0.0
H1826 H 0.30883 0.95105 0.12091 0.0
C1827 C 0.33082 0.02016 0.13615 0.0
C1828 C 0.35152 0.97472 0.14547 0.0
C1829 C 0.33161 0.03865 0.14301 0.0
C1830 C 0.34354 0.89572 0.14594 0.0
C1831 C 0.34238 0.9152 0.14704 0.0
C1832 C 0.32097 0.95759 0.12742 0.0
C1833 C 0.33424 0.00494 0.14825 0.0
C1834 C 0.33551 0.98543 0.14115 0.0
C1835 C 0.33629 0.92582 0.13154 0.0
C1836 C 0.33655 0.94666 0.13289 0.0
H1837 H 0.34063 0.02879 0.18914 0.0
H1838 H 0.33982 0.99685 0.17709 0.0
H1839 H 0.308 0.98495 0.12803 0.0
H1840 H 0.32771 0.88971 0.10102 0.0
H1841 H 0.32569 0.92426 0.10298 0.0
C1842 C 0.67089 0.09876 0.10779 0.0
C1843 C 0.67175 0.10895 0.12472 0.0
C1844 C 0.67341 0.07919 0.10786 0.0
C1845 C 0.66217 0.0386 0.1173 0.0
H1846 H 0.69705 0.01313 0.1507 0.0
C1847 C 0.64469 0.96946 0.15475 0.0
C1848 C 0.65886 0.95596 0.15756 0.0
C1849 C 0.64885 0.98669 0.14632 0.0
C1850 C 0.68742 0.01993 0.14104 0.0
H1851 H 0.67726 0.10704 0.15465 0.0
H1852 H 0.68184 0.07314 0.15476 0.0
H1853 H 0.70147 0.04648 0.14374 0.0
H1854 H 0.6884 0.94974 0.15327 0.0
H1855 H 0.69576 0.98008 0.13859 0.0
H1856 H 0.64768 0.01223 0.11521 0.0
C1857 C 0.67917 0.08008 0.14145 0.0
C1858 C 0.68988 0.03906 0.13716 0.0
C1859 C 0.67639 0.0995 0.14142 0.0
C1860 C 0.6772 0.95985 0.15121 0.0
C1861 C 0.68142 0.97723 0.14292 0.0
C1862 C 0.65965 0.01949 0.12127 0.0
C1863 C 0.67716 0.06962 0.12479 0.0
C1864 C 0.67692 0.04874 0.12576 0.0
C1865 C 0.66731 0.99092 0.14059 0.0
C1866 C 0.67188 0.01011 0.13368 0.0
H1867 H 0.66728 0.10573 0.09472 0.0
H1868 H 0.67188 0.07148 0.09479 0.0
H1869 H 0.65188 0.04567 0.10856 0.0
H1870 H 0.63039 0.96675 0.15928 0.0
H1871 H 0.6377 0.997 0.14494 0.0
C1872 C 0.09413 0.20753 0.27986 0.0
C1873 C 0.10344 0.19174 0.28722 0.0
C1874 C 0.10066 0.21617 0.26345 0.0
C1875 C 0.11442 0.22795 0.22438 0.0
H1876 H 0.1673 0.24132 0.22797 0.0
C1877 C 0.15186 0.27401 0.16872 0.0
C1878 C 0.16106 0.28993 0.17624 0.0
C1879 C 0.14579 0.25942 0.18043 0.0
C1880 C 0.15256 0.23758 0.22672 0.0
H1881 H 0.12634 0.17203 0.28268 0.0
H1882 H 0.13791 0.18735 0.25417 0.0
H1883 H 0.15359 0.21962 0.25091 0.0
H1884 H 0.17166 0.30224 0.20219 0.0
H1885 H 0.16149 0.2766 0.22235 0.0
H1886 H 0.11331 0.24628 0.20046 0.0
C1887 C 0.1255 0.19294 0.26105 0.0
C1888 C 0.14475 0.22505 0.23973 0.0
C1889 C 0.11877 0.1841 0.27728 0.0
C1890 C 0.16476 0.29033 0.19571 0.0
C1891 C 0.15892 0.27559 0.20735 0.0
C1892 C 0.1223 0.24026 0.21121 0.0
C1893 C 0.1168 0.20934 0.25427 0.0
C1894 C 0.12551 0.22046 0.23893 0.0
C1895 C 0.14907 0.26018 0.19987 0.0
C1896 C 0.14134 0.24552 0.21252 0.0
H1897 H 0.08233 0.21373 0.28727 0.0
H1898 H 0.09376 0.22887 0.25861 0.0
H1899 H 0.09957 0.22459 0.22343 0.0
H1900 H 0.14907 0.27277 0.15383 0.0
H1901 H 0.13842 0.24756 0.17428 0.0
C1902 C 0.71504 0.15365 0.16462 0.0
C1903 C 0.70247 0.16823 0.16933 0.0
C1904 C 0.73016 0.14924 0.17639 0.0
C1905 C 0.75738 0.16679 0.21776 0.0
H1906 H 0.76528 0.11364 0.22739 0.0
C1907 C 0.78316 0.13738 0.28783 0.0
C1908 C 0.79748 0.12377 0.28782 0.0
C1909 C 0.77536 0.14361 0.27098 0.0
C1910 C 0.7635 0.12851 0.22457 0.0
H1911 H 0.69657 0.19006 0.18984 0.0
H1912 H 0.7223 0.18188 0.2107 0.0
H1913 H 0.74426 0.12332 0.20204 0.0
H1914 H 0.81503 0.10607 0.27025 0.0
H1915 H 0.80071 0.11658 0.2405 0.0
H1916 H 0.7757 0.17184 0.24119 0.0
C1917 C 0.72074 0.17406 0.19771 0.0
C1918 C 0.75149 0.1341 0.21003 0.0
C1919 C 0.70573 0.17858 0.18587 0.0
C1920 C 0.80397 0.11656 0.27059 0.0
C1921 C 0.79582 0.12254 0.25365 0.0
C1922 C 0.76918 0.16118 0.23243 0.0
C1923 C 0.73301 0.15918 0.19325 0.0
C1924 C 0.74785 0.15332 0.20681 0.0
C1925 C 0.78148 0.13616 0.25377 0.0
C1926 C 0.77192 0.14201 0.23626 0.0
H1927 H 0.71297 0.14521 0.15213 0.0
H1928 H 0.73945 0.13785 0.17239 0.0
H1929 H 0.75529 0.18169 0.21538 0.0
H1930 H 0.778 0.14333 0.30088 0.0
H1931 H 0.76416 0.15395 0.27145 0.0
C1932 C 0.88109 0.79836 0.28147 0.0
C1933 C 0.87654 0.79042 0.29902 0.0
C1934 C 0.87499 0.78974 0.26478 0.0
C1935 C 0.83807 0.7592 0.24632 0.0
H1936 H 0.8742 0.74213 0.20919 0.0
C1937 C 0.82019 0.70083 0.19328 0.0
C1938 C 0.8286 0.70096 0.17536 0.0
C1939 C 0.82522 0.71416 0.20684 0.0
C1940 C 0.86382 0.74712 0.21916 0.0
H1941 H 0.86193 0.76738 0.31281 0.0
H1942 H 0.85111 0.75272 0.28387 0.0
H1943 H 0.88473 0.76173 0.2354 0.0
H1944 H 0.84878 0.71586 0.15776 0.0
H1945 H 0.85683 0.73939 0.18102 0.0
H1946 H 0.81712 0.74473 0.23028 0.0
C1947 C 0.85943 0.76548 0.28299 0.0
C1948 C 0.8699 0.75832 0.23419 0.0
C1949 C 0.86578 0.77382 0.29955 0.0
C1950 C 0.84179 0.71521 0.17125 0.0
C1951 C 0.84666 0.72867 0.18475 0.0
C1952 C 0.83193 0.74826 0.23119 0.0
C1953 C 0.86392 0.77335 0.26547 0.0
C1954 C 0.85716 0.76401 0.24814 0.0
C1955 C 0.83864 0.72817 0.20281 0.0
C1956 C 0.8448 0.74162 0.21769 0.0
H1957 H 0.88932 0.81117 0.28065 0.0
H1958 H 0.87864 0.79601 0.25137 0.0
H1959 H 0.82795 0.76361 0.25683 0.0
H1960 H 0.80983 0.69033 0.197 0.0
H1961 H 0.8189 0.71313 0.22067 0.0
C1962 C 0.30389 0.85058 0.18387 0.0
C1963 C 0.30143 0.83205 0.17747 0.0
C1964 C 0.29171 0.8582 0.19725 0.0
C1965 C 0.24426 0.85577 0.21568 0.0
H1966 H 0.26565 0.87701 0.26118 0.0
C1967 C 0.19904 0.87614 0.28024 0.0
C1968 C 0.2059 0.8899 0.29268 0.0
C1969 C 0.20962 0.87076 0.26454 0.0
C1970 C 0.25937 0.87158 0.2484 0.0
H1971 H 0.2842 0.80701 0.17966 0.0
H1972 H 0.26249 0.82053 0.203 0.0
H1973 H 0.28632 0.86381 0.23735 0.0
H1974 H 0.22822 0.91007 0.29757 0.0
H1975 H 0.2461 0.90163 0.26958 0.0
H1976 H 0.21733 0.86395 0.22638 0.0
C1977 C 0.27401 0.82903 0.19773 0.0
C1978 C 0.27127 0.86383 0.23484 0.0
C1979 C 0.28647 0.82126 0.18458 0.0
C1980 C 0.22271 0.89928 0.2883 0.0
C1981 C 0.23307 0.89424 0.27237 0.0
C1982 C 0.23232 0.86386 0.2291 0.0
C1983 C 0.2766 0.84754 0.20421 0.0
C1984 C 0.26383 0.85575 0.21845 0.0
C1985 C 0.2271 0.87932 0.26074 0.0
C1986 C 0.23971 0.87177 0.24573 0.0
H1987 H 0.31536 0.85912 0.17858 0.0
H1988 H 0.29395 0.87252 0.20199 0.0
H1989 H 0.23824 0.84978 0.20302 0.0
H1990 H 0.18617 0.86857 0.28331 0.0
H1991 H 0.20454 0.85916 0.25608 0.0
C1992 C 0.10454 0.77335 0.71056 0.0
C1993 C 0.10782 0.79274 0.70865 0.0
C1994 C 0.10951 0.76396 0.72701 0.0
C1995 C 0.14244 0.7676 0.76688 0.0
H1996 H 0.11598 0.72253 0.7827 0.0
C1997 C 0.16442 0.7178 0.82888 0.0
C1998 C 0.16617 0.69888 0.82333 0.0
C1999 C 0.15683 0.73113 0.81655 0.0
C2000 C 0.12346 0.73512 0.77845 0.0
H2001 H 0.11806 0.81772 0.72289 0.0
H2002 H 0.12641 0.80131 0.75202 0.0
H2003 H 0.10165 0.74326 0.75944 0.0
H2004 H 0.16153 0.67907 0.80066 0.0
H2005 H 0.14792 0.7023 0.77919 0.0
H2006 H 0.1642 0.75929 0.78617 0.0
C2007 C 0.12028 0.79333 0.74057 0.0
C2008 C 0.11532 0.74697 0.76509 0.0
C2009 C 0.11532 0.80276 0.72397 0.0
C2010 C 0.16051 0.69359 0.80516 0.0
C2011 C 0.15258 0.70681 0.793 0.0
C2012 C 0.15044 0.75586 0.78052 0.0
C2013 C 0.11779 0.77372 0.74212 0.0
C2014 C 0.12498 0.76302 0.75864 0.0
C2015 C 0.1505 0.72563 0.79866 0.0
C2016 C 0.14126 0.73924 0.78595 0.0
H2017 H 0.09877 0.7652 0.69902 0.0
H2018 H 0.10765 0.74885 0.72748 0.0
H2019 H 0.15037 0.77972 0.76215 0.0
H2020 H 0.16877 0.72217 0.84282 0.0
H2021 H 0.15536 0.74559 0.82117 0.0
C2022 C 0.1916 0.10566 0.72154 0.0
C2023 C 0.20181 0.09688 0.70702 0.0
C2024 C 0.20065 0.11122 0.73813 0.0
C2025 C 0.22707 0.13481 0.76243 0.0
H2026 H 0.26674 0.10598 0.78637 0.0
C2027 C 0.28568 0.16864 0.80777 0.0
C2028 C 0.29204 0.15875 0.82367 0.0
C2029 C 0.27252 0.16054 0.79555 0.0
C2030 C 0.25555 0.11416 0.78002 0.0
H2031 H 0.22912 0.08573 0.69916 0.0
H2032 H 0.24479 0.09524 0.72809 0.0
H2033 H 0.24726 0.09127 0.76223 0.0
H2034 H 0.28934 0.13258 0.83922 0.0
H2035 H 0.26621 0.11869 0.81816 0.0
H2036 H 0.23552 0.15776 0.78009 0.0
C2037 C 0.22985 0.09793 0.72666 0.0
C2038 C 0.2445 0.10577 0.76607 0.0
C2039 C 0.22086 0.09252 0.71004 0.0
C2040 C 0.28458 0.14076 0.82729 0.0
C2041 C 0.27148 0.13266 0.81507 0.0
C2042 C 0.23818 0.14323 0.77634 0.0
C2043 C 0.22 0.1079 0.74064 0.0
C2044 C 0.23032 0.11607 0.75691 0.0
C2045 C 0.26548 0.14233 0.79891 0.0
C2046 C 0.25273 0.13308 0.78511 0.0
H2047 H 0.17687 0.10915 0.71973 0.0
H2048 H 0.19262 0.11862 0.74878 0.0
H2049 H 0.2164 0.14321 0.75551 0.0
H2050 H 0.29107 0.18255 0.80467 0.0
H2051 H 0.26831 0.16832 0.78313 0.0
C2052 C 0.82709 0.29863 0.80303 0.0
C2053 C 0.83668 0.29948 0.82036 0.0
C2054 C 0.83312 0.2864 0.78882 0.0
C2055 C 0.87526 0.26309 0.77131 0.0
H2056 H 0.84077 0.23077 0.74393 0.0
C2057 C 0.87718 0.20033 0.71191 0.0
C2058 C 0.88678 0.20954 0.69726 0.0
C2059 C 0.87193 0.21019 0.72811 0.0
C2060 C 0.85056 0.23962 0.75158 0.0
H2061 H 0.85979 0.2872 0.83634 0.0
H2062 H 0.87048 0.26656 0.81143 0.0
H2063 H 0.82898 0.2503 0.7698 0.0
H2064 H 0.89927 0.23596 0.68848 0.0
H2065 H 0.89056 0.25303 0.71703 0.0
H2066 H 0.89675 0.25276 0.75283 0.0
C2067 C 0.85838 0.27549 0.80888 0.0
C2068 C 0.8438 0.25089 0.76622 0.0
C2069 C 0.85224 0.28749 0.82316 0.0
C2070 C 0.89188 0.22851 0.69954 0.0
C2071 C 0.88693 0.23826 0.71587 0.0
C2072 C 0.88196 0.25206 0.75648 0.0
C2073 C 0.84898 0.27492 0.79154 0.0
C2074 C 0.85608 0.26275 0.77619 0.0
C2075 C 0.87653 0.22932 0.7301 0.0
C2076 C 0.86967 0.24025 0.74646 0.0
H2077 H 0.81519 0.30769 0.80023 0.0
H2078 H 0.8257 0.2863 0.7755 0.0
H2079 H 0.885 0.2722 0.77871 0.0
H2080 H 0.87298 0.18574 0.71053 0.0
H2081 H 0.86404 0.20296 0.73896 0.0
C2082 C 0.70897 0.86228 0.82488 0.0
C2083 C 0.6894 0.86217 0.8219 0.0
C2084 C 0.72119 0.86904 0.81102 0.0
C2085 C 0.7232 0.87868 0.75983 0.0
H2086 H 0.76903 0.90544 0.77286 0.0
C2087 C 0.77063 0.90981 0.70267 0.0
C2088 C 0.78979 0.90501 0.70387 0.0
C2089 C 0.75864 0.907 0.71797 0.0
C2090 C 0.75631 0.89792 0.76904 0.0
H2091 H 0.66728 0.86955 0.8023 0.0
H2092 H 0.6885 0.8817 0.7782 0.0
H2093 H 0.74726 0.89579 0.79771 0.0
H2094 H 0.81164 0.89459 0.72249 0.0
H2095 H 0.79062 0.88975 0.74932 0.0
H2096 H 0.7322 0.88085 0.73121 0.0
C2097 C 0.6945 0.87613 0.79106 0.0
C2098 C 0.74386 0.89233 0.78326 0.0
C2099 C 0.6823 0.8692 0.80486 0.0
C2100 C 0.79695 0.89845 0.72112 0.0
C2101 C 0.78492 0.89569 0.73649 0.0
C2102 C 0.73554 0.88439 0.74566 0.0
C2103 C 0.71412 0.876 0.79389 0.0
C2104 C 0.72717 0.88255 0.77883 0.0
C2105 C 0.76553 0.89939 0.73486 0.0
C2106 C 0.75226 0.89402 0.75009 0.0
H2107 H 0.71489 0.85671 0.83776 0.0
H2108 H 0.73621 0.86839 0.81359 0.0
H2109 H 0.71074 0.87083 0.75587 0.0
H2110 H 0.76468 0.91506 0.68965 0.0
H2111 H 0.74383 0.91032 0.71641 0.0
C2112 C 0.17707 0.17985 0.28189 0.0
C2113 C 0.17368 0.16823 0.29751 0.0
C2114 C 0.18806 0.17336 0.26687 0.0
C2115 C 0.20792 0.12903 0.24663 0.0
H2116 H 0.24374 0.16279 0.22305 0.0
C2117 C 0.27794 0.10654 0.21339 0.0
C2118 C 0.28368 0.11511 0.19655 0.0
C2119 C 0.26112 0.11184 0.222 0.0
C2120 C 0.23354 0.15328 0.22925 0.0
H2121 H 0.17922 0.14106 0.30995 0.0
H2122 H 0.19903 0.12995 0.2843 0.0
H2123 H 0.2214 0.17514 0.24598 0.0
H2124 H 0.27603 0.13527 0.17502 0.0
H2125 H 0.2467 0.145 0.19045 0.0
H2126 H 0.221 0.107 0.23069 0.0
C2127 C 0.19277 0.1438 0.28317 0.0
C2128 C 0.22072 0.16034 0.2424 0.0
C2129 C 0.18162 0.15019 0.29799 0.0
C2130 C 0.27182 0.12837 0.18793 0.0
C2131 C 0.25515 0.13401 0.19679 0.0
C2132 C 0.22092 0.12195 0.2337 0.0
C2133 C 0.19601 0.1552 0.2673 0.0
C2134 C 0.20808 0.14821 0.25165 0.0
C2135 C 0.24991 0.12609 0.21414 0.0
C2136 C 0.23412 0.13394 0.22522 0.0
H2137 H 0.17077 0.19369 0.28106 0.0
H2138 H 0.19004 0.18245 0.25481 0.0
H2139 H 0.19805 0.11935 0.25303 0.0
H2140 H 0.28688 0.09631 0.22031 0.0
H2141 H 0.25747 0.10562 0.23544 0.0
C2142 C 0.86892 0.30425 0.22857 0.0
C2143 C 0.87421 0.30171 0.20968 0.0
C2144 C 0.86591 0.28881 0.24026 0.0
C2145 C 0.87717 0.23993 0.24871 0.0
H2146 H 0.82907 0.23878 0.27455 0.0
C2147 C 0.85376 0.17664 0.29433 0.0
C2148 C 0.84285 0.18027 0.31048 0.0
C2149 C 0.8581 0.19103 0.28166 0.0
C2150 C 0.84269 0.23899 0.26771 0.0
H2151 H 0.88117 0.28096 0.1884 0.0
H2152 H 0.87627 0.25376 0.20919 0.0
H2153 H 0.83617 0.26446 0.25303 0.0
H2154 H 0.82846 0.20228 0.32605 0.0
H2155 H 0.83676 0.2274 0.30455 0.0
H2156 H 0.88404 0.21483 0.26385 0.0
C2157 C 0.87433 0.26782 0.21475 0.0
C2158 C 0.84667 0.25363 0.25527 0.0
C2159 C 0.87709 0.28334 0.2029 0.0
C2160 C 0.8369 0.19883 0.31387 0.0
C2161 C 0.84145 0.21327 0.30132 0.0
C2162 C 0.87331 0.22537 0.2614 0.0
C2163 C 0.86835 0.27047 0.23342 0.0
C2164 C 0.86398 0.2543 0.24576 0.0
C2165 C 0.8519 0.20952 0.28492 0.0
C2166 C 0.85605 0.22479 0.27117 0.0
H2167 H 0.8666 0.31819 0.2343 0.0
H2168 H 0.86152 0.29121 0.25467 0.0
H2169 H 0.89067 0.24025 0.24162 0.0
H2170 H 0.859 0.16269 0.29131 0.0
H2171 H 0.86604 0.18753 0.26914 0.0
C2172 C 0.72236 0.88505 0.20347 0.0
C2173 C 0.70652 0.89286 0.21239 0.0
C2174 C 0.73892 0.88177 0.21368 0.0
C2175 C 0.76254 0.89178 0.25968 0.0
H2176 H 0.78384 0.84201 0.25283 0.0
C2177 C 0.80423 0.85341 0.31759 0.0
C2178 C 0.82083 0.84407 0.31231 0.0
C2179 C 0.79232 0.86105 0.30393 0.0
C2180 C 0.77823 0.85605 0.25475 0.0
H2181 H 0.69601 0.90445 0.2386 0.0
H2182 H 0.72453 0.89856 0.25632 0.0
H2183 H 0.76002 0.85341 0.23091 0.0
H2184 H 0.8378 0.83509 0.28861 0.0
H2185 H 0.81686 0.8483 0.26469 0.0
H2186 H 0.7802 0.89401 0.28403 0.0
C2187 C 0.72441 0.89508 0.24148 0.0
C2188 C 0.76464 0.86265 0.24212 0.0
C2189 C 0.70794 0.89835 0.23132 0.0
C2190 C 0.82519 0.84238 0.29308 0.0
C2191 C 0.81316 0.84982 0.2794 0.0
C2192 C 0.77598 0.88511 0.27239 0.0
C2193 C 0.73994 0.88628 0.23296 0.0
C2194 C 0.75631 0.88044 0.24468 0.0
C2195 C 0.79665 0.85932 0.2847 0.0
C2196 C 0.78368 0.86703 0.27027 0.0
H2197 H 0.72168 0.88066 0.18888 0.0
H2198 H 0.75073 0.87522 0.20661 0.0
H2199 H 0.75672 0.9057 0.26187 0.0
H2200 H 0.80061 0.85505 0.3323 0.0
H2201 H 0.77956 0.8681 0.30841 0.0
C2202 C 0.11389 0.72131 0.19253 0.0
C2203 C 0.10513 0.70635 0.20208 0.0
C2204 C 0.11858 0.73783 0.20213 0.0
C2205 C 0.14111 0.76094 0.23027 0.0
H2206 H 0.11075 0.78386 0.2694 0.0
C2207 C 0.17284 0.80231 0.29244 0.0
C2208 C 0.16347 0.81865 0.29839 0.0
C2209 C 0.16494 0.79079 0.27859 0.0
C2210 C 0.11933 0.77778 0.25837 0.0
H2211 H 0.09304 0.69754 0.22868 0.0
H2212 H 0.10113 0.72635 0.24536 0.0
H2213 H 0.09659 0.76073 0.24828 0.0
H2214 H 0.13842 0.83571 0.29446 0.0
H2215 H 0.12473 0.81569 0.27025 0.0
H2216 H 0.16395 0.7777 0.2406 0.0
C2217 C 0.10443 0.72534 0.23051 0.0
C2218 C 0.11126 0.76446 0.24637 0.0
C2219 C 0.09987 0.70878 0.22097 0.0
C2220 C 0.14613 0.82334 0.29005 0.0
C2221 C 0.13818 0.81178 0.2763 0.0
C2222 C 0.14921 0.77418 0.24233 0.0
C2223 C 0.11443 0.73974 0.22137 0.0
C2224 C 0.12215 0.75566 0.23242 0.0
C2225 C 0.14743 0.79532 0.27052 0.0
C2226 C 0.1385 0.78248 0.25671 0.0
H2227 H 0.11809 0.71988 0.17795 0.0
H2228 H 0.12607 0.74882 0.19468 0.0
H2229 H 0.14992 0.75425 0.21978 0.0
H2230 H 0.18627 0.79843 0.2985 0.0
H2231 H 0.1723 0.77807 0.27454 0.0
C2232 C 0.28038 0.87584 0.7977 0.0
C2233 C 0.29763 0.88088 0.78936 0.0
C2234 C 0.26455 0.87225 0.78647 0.0
C2235 C 0.25406 0.85499 0.73941 0.0
H2236 H 0.20287 0.87173 0.74823 0.0
C2237 C 0.19608 0.84038 0.68541 0.0
C2238 C 0.17811 0.83549 0.69198 0.0
C2239 C 0.20979 0.84701 0.69781 0.0
C2240 C 0.21706 0.86675 0.74572 0.0
H2241 H 0.31143 0.88747 0.76293 0.0
H2242 H 0.28393 0.88125 0.74348 0.0
H2243 H 0.22815 0.88211 0.76932 0.0
H2244 H 0.16032 0.83373 0.71667 0.0
H2245 H 0.18447 0.84491 0.73855 0.0
H2246 H 0.24322 0.8393 0.71623 0.0
C2247 C 0.2827 0.87977 0.75861 0.0
C2248 C 0.2315 0.87275 0.75775 0.0
C2249 C 0.29842 0.8834 0.76977 0.0
C2250 C 0.17404 0.83755 0.71123 0.0
C2251 C 0.18785 0.844 0.72372 0.0
C2252 C 0.23968 0.84887 0.72756 0.0
C2253 C 0.26579 0.87358 0.76677 0.0
C2254 C 0.25018 0.86711 0.75453 0.0
C2255 C 0.20596 0.84867 0.71717 0.0
C2256 C 0.22103 0.85484 0.73038 0.0
H2257 H 0.27934 0.87376 0.81276 0.0
H2258 H 0.25168 0.86748 0.7931 0.0
H2259 H 0.26827 0.85006 0.73685 0.0
H2260 H 0.19948 0.83931 0.6706 0.0
H2261 H 0.22341 0.85092 0.69217 0.0
C2262 C 0.14882 0.29013 0.78271 0.0
C2263 C 0.13558 0.29058 0.79739 0.0
C2264 C 0.15407 0.27314 0.77455 0.0
C2265 C 0.13745 0.22733 0.76254 0.0
H2266 H 0.19039 0.21608 0.75508 0.0
C2267 C 0.16104 0.16561 0.71554 0.0
C2268 C 0.17612 0.16934 0.7032 0.0
C2269 C 0.15678 0.17796 0.73022 0.0
C2270 C 0.17555 0.21905 0.75694 0.0
H2271 H 0.11739 0.27359 0.81503 0.0
H2272 H 0.12617 0.24359 0.80006 0.0
H2273 H 0.18124 0.24236 0.77521 0.0
H2274 H 0.19891 0.1888 0.69726 0.0
H2275 H 0.191 0.21068 0.72223 0.0
H2276 H 0.13165 0.20489 0.74337 0.0
C2277 C 0.1326 0.25653 0.79519 0.0
C2278 C 0.17034 0.23398 0.76859 0.0
C2279 C 0.12759 0.27362 0.80369 0.0
C2280 C 0.18706 0.18555 0.70625 0.0
C2281 C 0.18267 0.19799 0.72082 0.0
C2282 C 0.14265 0.21253 0.75067 0.0
C2283 C 0.14601 0.2562 0.78066 0.0
C2284 C 0.15128 0.23853 0.77109 0.0
C2285 C 0.16735 0.19446 0.73286 0.0
C2286 C 0.16179 0.20854 0.74733 0.0
H2287 H 0.15537 0.30293 0.77762 0.0
H2288 H 0.16426 0.27326 0.76319 0.0
H2289 H 0.12266 0.23072 0.76414 0.0
H2290 H 0.15211 0.15344 0.71366 0.0
H2291 H 0.14504 0.17465 0.73936 0.0
C2292 C 0.70904 0.10593 0.77077 0.0
C2293 C 0.7073 0.11153 0.78963 0.0
C2294 C 0.72589 0.10864 0.76109 0.0
C2295 C 0.76625 0.1406 0.76125 0.0
H2296 H 0.7819 0.10937 0.71931 0.0
C2297 C 0.82513 0.16192 0.70852 0.0
C2298 C 0.81992 0.16013 0.68951 0.0
C2299 C 0.81381 0.1543 0.72271 0.0
C2300 C 0.7777 0.11821 0.73101 0.0
H2301 H 0.72223 0.1232 0.81358 0.0
H2302 H 0.75189 0.12774 0.79666 0.0
H2303 H 0.75869 0.09742 0.74163 0.0
H2304 H 0.79897 0.14884 0.67044 0.0
H2305 H 0.77919 0.13555 0.69518 0.0
H2306 H 0.78507 0.16151 0.75035 0.0
C2307 C 0.74008 0.1215 0.78929 0.0
C2308 C 0.76442 0.11138 0.74378 0.0
C2309 C 0.72316 0.11874 0.79903 0.0
C2310 C 0.8032 0.15061 0.68496 0.0
C2311 C 0.79203 0.1428 0.69911 0.0
C2312 C 0.77967 0.14736 0.74855 0.0
C2313 C 0.74144 0.11701 0.77004 0.0
C2314 C 0.75806 0.12274 0.75869 0.0
C2315 C 0.79724 0.14452 0.71811 0.0
C2316 C 0.78506 0.13645 0.73297 0.0
H2317 H 0.69709 0.10027 0.76316 0.0
H2318 H 0.7263 0.10518 0.74625 0.0
H2319 H 0.76153 0.14982 0.77244 0.0
H2320 H 0.8379 0.16928 0.71238 0.0
H2321 H 0.81813 0.15583 0.73726 0.0
C2322 C 0.85871 0.70661 0.77673 0.0
C2323 C 0.87032 0.70628 0.79275 0.0
C2324 C 0.85265 0.72363 0.76919 0.0
C2325 C 0.86498 0.77162 0.762 0.0
H2326 H 0.8117 0.77833 0.75192 0.0
C2327 C 0.83822 0.83401 0.71769 0.0
C2328 C 0.82447 0.82961 0.70409 0.0
C2329 C 0.84272 0.82122 0.73191 0.0
C2330 C 0.82663 0.77665 0.75454 0.0
H2331 H 0.88492 0.72353 0.81328 0.0
H2332 H 0.87476 0.75362 0.79946 0.0
H2333 H 0.82226 0.75149 0.77055 0.0
H2334 H 0.80415 0.80852 0.69543 0.0
H2335 H 0.81251 0.78597 0.71962 0.0
H2336 H 0.8696 0.79598 0.745 0.0
C2337 C 0.87021 0.74054 0.79306 0.0
C2338 C 0.83262 0.76139 0.76532 0.0
C2339 C 0.87602 0.7234 0.8009 0.0
C2340 C 0.81497 0.81231 0.70545 0.0
C2341 C 0.81959 0.79946 0.71956 0.0
C2342 C 0.85902 0.78677 0.75096 0.0
C2343 C 0.85828 0.74071 0.77729 0.0
C2344 C 0.85187 0.7585 0.76872 0.0
C2345 C 0.83372 0.80364 0.73282 0.0
C2346 C 0.8398 0.78917 0.74666 0.0
H2347 H 0.85396 0.69369 0.77017 0.0
H2348 H 0.84364 0.72344 0.75688 0.0
H2349 H 0.87991 0.76954 0.76434 0.0
H2350 H 0.84601 0.84707 0.71708 0.0
H2351 H 0.85348 0.82502 0.74203 0.0
C2352 C 0.27943 0.17439 0.14565 0.0
C2353 C 0.29822 0.18064 0.14592 0.0
C2354 C 0.26529 0.18555 0.13775 0.0
C2355 C 0.25702 0.2244 0.1047 0.0
H2356 H 0.2136 0.23566 0.13578 0.0
C2357 C 0.2128 0.29093 0.09492 0.0
C2358 C 0.19379 0.29113 0.10034 0.0
C2359 C 0.22362 0.27471 0.09706 0.0
C2360 C 0.22535 0.23235 0.12665 0.0
H2361 H 0.31701 0.20317 0.13768 0.0
H2362 H 0.29233 0.22267 0.12374 0.0
H2363 H 0.23645 0.2124 0.14634 0.0
H2364 H 0.17083 0.27407 0.11103 0.0
H2365 H 0.18966 0.2455 0.11436 0.0
H2366 H 0.2461 0.24441 0.08506 0.0
C2367 C 0.28855 0.20915 0.12968 0.0
C2368 C 0.2385 0.21907 0.13279 0.0
C2369 C 0.30264 0.19811 0.13782 0.0
C2370 C 0.18547 0.27437 0.10676 0.0
C2371 C 0.19631 0.25806 0.10884 0.0
C2372 C 0.24376 0.2375 0.09844 0.0
C2373 C 0.26972 0.20305 0.12971 0.0
C2374 C 0.25471 0.21536 0.12211 0.0
C2375 C 0.21568 0.25821 0.10457 0.0
C2376 C 0.22805 0.24207 0.10961 0.0
H2377 H 0.2756 0.16105 0.15189 0.0
H2378 H 0.25089 0.18051 0.13793 0.0
H2379 H 0.26926 0.22155 0.09606 0.0
H2380 H 0.21963 0.30359 0.08985 0.0
H2381 H 0.23849 0.2755 0.09381 0.0
C2382 C 0.21299 0.71227 0.9067 0.0
C2383 C 0.19472 0.70912 0.89986 0.0
C2384 C 0.22267 0.7287 0.90209 0.0
C2385 C 0.22423 0.76326 0.86384 0.0
H2386 H 0.26493 0.78362 0.89403 0.0
C2387 C 0.27906 0.81813 0.83691 0.0
C2388 C 0.29778 0.8123 0.83964 0.0
C2389 C 0.26423 0.80832 0.84537 0.0
C2390 C 0.25354 0.77812 0.8855 0.0
H2391 H 0.17159 0.72148 0.88419 0.0
H2392 H 0.18839 0.75042 0.87643 0.0
H2393 H 0.24175 0.76284 0.90857 0.0
H2394 H 0.31571 0.79189 0.85344 0.0
H2395 H 0.28984 0.77483 0.86834 0.0
H2396 H 0.23629 0.77847 0.84072 0.0
C2397 C 0.19541 0.73996 0.885 0.0
C2398 C 0.2403 0.7662 0.89378 0.0
C2399 C 0.18572 0.72344 0.88959 0.0
C2400 C 0.3014 0.7965 0.8509 0.0
C2401 C 0.28664 0.78692 0.85961 0.0
C2402 C 0.23735 0.7754 0.85562 0.0
C2403 C 0.21425 0.74246 0.89061 0.0
C2404 C 0.2259 0.75804 0.88289 0.0
C2405 C 0.26795 0.79279 0.857 0.0
C2406 C 0.25248 0.78238 0.86624 0.0
H2407 H 0.22029 0.70155 0.91473 0.0
H2408 H 0.23719 0.72999 0.90654 0.0
H2409 H 0.21348 0.7571 0.85494 0.0
H2410 H 0.27597 0.83029 0.82827 0.0
H2411 H 0.24991 0.81306 0.84313 0.0
C2412 C 0.29233 0.21011 0.91038 0.0
C2413 C 0.29347 0.19178 0.90307 0.0
C2414 C 0.27598 0.22072 0.9081 0.0
C2415 C 0.2375 0.22444 0.87415 0.0
H2416 H 0.22261 0.26611 0.90611 0.0
C2417 C 0.18282 0.27999 0.851 0.0
C2418 C 0.18844 0.29878 0.85367 0.0
C2419 C 0.19299 0.2653 0.85917 0.0
C2420 C 0.22663 0.25451 0.89706 0.0
H2421 H 0.27771 0.16948 0.88937 0.0
H2422 H 0.24896 0.18792 0.88574 0.0
H2423 H 0.24389 0.24206 0.91837 0.0
H2424 H 0.2089 0.31695 0.86711 0.0
H2425 H 0.22681 0.29124 0.88133 0.0
H2426 H 0.22052 0.2371 0.85275 0.0
C2427 C 0.2609 0.19426 0.89279 0.0
C2428 C 0.23879 0.24074 0.90407 0.0
C2429 C 0.27732 0.18363 0.89503 0.0
C2430 C 0.20439 0.3026 0.86469 0.0
C2431 C 0.21446 0.28791 0.87302 0.0
C2432 C 0.22523 0.23812 0.86722 0.0
C2433 C 0.26036 0.2132 0.89854 0.0
C2434 C 0.24481 0.22583 0.89251 0.0
C2435 C 0.20888 0.26912 0.8703 0.0
C2436 C 0.2201 0.25356 0.87843 0.0
H2437 H 0.30448 0.21674 0.9168 0.0
H2438 H 0.27617 0.23527 0.91264 0.0
H2439 H 0.24206 0.21337 0.86472 0.0
H2440 H 0.17067 0.27665 0.84243 0.0
H2441 H 0.18837 0.25096 0.85686 0.0
C2442 C 0.7148 0.19656 0.82169 0.0
C2443 C 0.70464 0.18361 0.83261 0.0
C2444 C 0.72935 0.20712 0.8298 0.0
C2445 C 0.74306 0.22928 0.87259 0.0
H2446 H 0.79479 0.22706 0.85533 0.0
C2447 C 0.79822 0.27672 0.90701 0.0
C2448 C 0.81143 0.28509 0.89498 0.0
C2449 C 0.78748 0.26141 0.9009 0.0
C2450 C 0.7804 0.22807 0.86021 0.0
H2451 H 0.70133 0.17168 0.86046 0.0
H2452 H 0.72633 0.19066 0.87479 0.0
H2453 H 0.77098 0.20703 0.84061 0.0
H2454 H 0.82453 0.28345 0.86747 0.0
H2455 H 0.80524 0.25757 0.85641 0.0
H2456 H 0.75179 0.25099 0.89131 0.0
C2457 C 0.72331 0.19232 0.85994 0.0
C2458 C 0.76682 0.21651 0.8518 0.0
C2459 C 0.70912 0.18148 0.85175 0.0
C2460 C 0.81454 0.27717 0.87713 0.0
C2461 C 0.80343 0.26222 0.8708 0.0
C2462 C 0.75647 0.24114 0.88068 0.0
C2463 C 0.73357 0.20517 0.84902 0.0
C2464 C 0.74807 0.21709 0.85793 0.0
C2465 C 0.78927 0.25454 0.88237 0.0
C2466 C 0.77537 0.24078 0.8746 0.0
H2467 H 0.7116 0.19833 0.8069 0.0
H2468 H 0.73704 0.21708 0.82119 0.0
H2469 H 0.7286 0.23001 0.87742 0.0
H2470 H 0.79567 0.2825 0.92089 0.0
H2471 H 0.77725 0.25548 0.9105 0.0
C2472 C 0.72371 0.81295 0.8807 0.0
C2473 C 0.70622 0.80493 0.88528 0.0
C2474 C 0.73944 0.8014 0.87777 0.0
C2475 C 0.75738 0.75313 0.88612 0.0
H2476 H 0.78357 0.7596 0.83868 0.0
C2477 C 0.79655 0.69244 0.85015 0.0
C2478 C 0.81408 0.69628 0.84189 0.0
C2479 C 0.78536 0.70708 0.85696 0.0
C2480 C 0.77661 0.75777 0.85212 0.0
H2481 H 0.6916 0.77881 0.8913 0.0
H2482 H 0.71881 0.75884 0.88632 0.0
H2483 H 0.7612 0.78351 0.84917 0.0
H2484 H 0.83337 0.71851 0.83372 0.0
H2485 H 0.81386 0.74408 0.84573 0.0
H2486 H 0.77232 0.72714 0.88883 0.0
C2487 C 0.72054 0.77393 0.88498 0.0
C2488 C 0.76387 0.77149 0.85815 0.0
C2489 C 0.70489 0.78537 0.88767 0.0
C2490 C 0.82004 0.71509 0.84027 0.0
C2491 C 0.80881 0.72975 0.84699 0.0
C2492 C 0.77008 0.73943 0.8801 0.0
C2493 C 0.7379 0.78174 0.8797 0.0
C2494 C 0.75374 0.76903 0.87495 0.0
C2495 C 0.79142 0.72588 0.85556 0.0
C2496 C 0.77944 0.74135 0.86279 0.0
H2497 H 0.72507 0.82801 0.87873 0.0
H2498 H 0.7527 0.80777 0.87376 0.0
H2499 H 0.75 0.75102 0.89929 0.0
H2500 H 0.79167 0.67809 0.85169 0.0
H2501 H 0.77187 0.70369 0.86322 0.0
C2502 C 0.70468 0.80318 0.1778 0.0
C2503 C 0.69882 0.81979 0.16883 0.0
C2504 C 0.71784 0.7913 0.16921 0.0
C2505 C 0.73682 0.77876 0.12262 0.0
H2506 H 0.77612 0.75446 0.15166 0.0
C2507 C 0.80444 0.72489 0.11296 0.0
C2508 C 0.79553 0.71045 0.10274 0.0
C2509 C 0.79413 0.74043 0.11928 0.0
C2510 C 0.76539 0.76133 0.14329 0.0
H2511 H 0.70201 0.83678 0.14364 0.0
H2512 H 0.72508 0.81627 0.12886 0.0
H2513 H 0.75525 0.77707 0.16692 0.0
H2514 H 0.76922 0.70169 0.08995 0.0
H2515 H 0.75133 0.72878 0.10082 0.0
H2516 H 0.74687 0.76292 0.09903 0.0
C2517 C 0.7195 0.81238 0.1425 0.0
C2518 C 0.75328 0.77409 0.1521 0.0
C2519 C 0.70643 0.82426 0.1511 0.0
C2520 C 0.77648 0.71254 0.09785 0.0
C2521 C 0.76623 0.72811 0.10403 0.0
C2522 C 0.74887 0.76594 0.11384 0.0
C2523 C 0.72531 0.79573 0.1514 0.0
C2524 C 0.73873 0.78279 0.14191 0.0
C2525 C 0.77479 0.74193 0.11533 0.0
C2526 C 0.76316 0.75692 0.12412 0.0
H2527 H 0.69914 0.7994 0.19147 0.0
H2528 H 0.72188 0.77846 0.17634 0.0
H2529 H 0.72566 0.78511 0.11441 0.0
H2530 H 0.81912 0.72374 0.11694 0.0
H2531 H 0.80118 0.751 0.12772 0.0
C2532 C 0.19358 0.70744 0.16825 0.0
C2533 C 0.17639 0.70291 0.15955 0.0
C2534 C 0.20484 0.72198 0.16124 0.0
C2535 C 0.21422 0.74816 0.11751 0.0
H2536 H 0.2439 0.7799 0.15054 0.0
C2537 C 0.27538 0.81029 0.11534 0.0
C2538 C 0.28782 0.80162 0.10263 0.0
C2539 C 0.2588 0.80115 0.12085 0.0
C2540 C 0.23548 0.77141 0.14108 0.0
H2541 H 0.15757 0.7103 0.13662 0.0
H2542 H 0.17699 0.73584 0.12469 0.0
H2543 H 0.22063 0.75854 0.16393 0.0
H2544 H 0.29204 0.77728 0.08472 0.0
H2545 H 0.26324 0.76142 0.09423 0.0
H2546 H 0.22917 0.76091 0.09467 0.0
C2547 C 0.18185 0.72804 0.13685 0.0
C2548 C 0.22232 0.75896 0.14879 0.0
C2549 C 0.17059 0.71351 0.14385 0.0
C2550 C 0.28273 0.78431 0.09456 0.0
C2551 C 0.26616 0.77525 0.09996 0.0
C2552 C 0.22736 0.7606 0.10981 0.0
C2553 C 0.1992 0.73233 0.14533 0.0
C2554 C 0.21183 0.74689 0.13712 0.0
C2555 C 0.2543 0.78325 0.11363 0.0
C2556 C 0.23845 0.77207 0.12152 0.0
H2557 H 0.19838 0.69971 0.18045 0.0
H2558 H 0.21823 0.72475 0.168 0.0
H2559 H 0.20647 0.73899 0.10809 0.0
H2560 H 0.27896 0.82358 0.1219 0.0
H2561 H 0.24984 0.80779 0.13124 0.0
C2562 C 0.70238 0.21993 0.09205 0.0
C2563 C 0.70167 0.20073 0.09667 0.0
C2564 C 0.71815 0.23073 0.0966 0.0
C2565 C 0.75632 0.23174 0.13144 0.0
H2566 H 0.77173 0.27574 0.10308 0.0
C2567 C 0.81321 0.2847 0.15738 0.0
C2568 C 0.80821 0.30378 0.15577 0.0
C2569 C 0.80211 0.27071 0.14907 0.0
C2570 C 0.76754 0.26351 0.11117 0.0
H2571 H 0.71754 0.17747 0.10846 0.0
H2572 H 0.74528 0.19631 0.11615 0.0
H2573 H 0.75007 0.25315 0.08893 0.0
H2574 H 0.78771 0.32312 0.14411 0.0
H2575 H 0.76829 0.29875 0.12971 0.0
H2576 H 0.77368 0.24231 0.15376 0.0
C2577 C 0.73345 0.20308 0.10933 0.0
C2578 C 0.75514 0.25057 0.10307 0.0
C2579 C 0.71762 0.19225 0.10475 0.0
C2580 C 0.7918 0.30855 0.14581 0.0
C2581 C 0.78083 0.29461 0.13734 0.0
C2582 C 0.76885 0.24464 0.13949 0.0
C2583 C 0.73364 0.22258 0.10585 0.0
C2584 C 0.74898 0.23477 0.11328 0.0
C2585 C 0.78593 0.27556 0.13877 0.0
C2586 C 0.7742 0.2609 0.1296 0.0
H2587 H 0.69035 0.22689 0.08578 0.0
H2588 H 0.71769 0.2457 0.09384 0.0
H2589 H 0.7517 0.21989 0.13983 0.0
H2590 H 0.82573 0.28062 0.16505 0.0
H2591 H 0.80637 0.25613 0.15038 0.0
loop_
_geom_bond_atom_site_label_1
_geom_bond_atom_site_label_2
_geom_bond_distance
_geom_bond_site_symmetry_2
_ccdc_geom_bond_type
C0 C1 1.351 . S
C0 N3 1.368 . S
C0 H5 0.931 . S
C1 C0 1.351 . S
C1 N2 1.373 . S
C1 H29 0.930 . S
N2 C1 1.373 . S
N2 C4 1.340 . S
N3 C0 1.368 . S
N3 C4 1.321 . S
N3 Co6 2.135 . S
C4 N2 1.340 . S
C4 N3 1.321 . S
C4 H28 0.930 . S
H5 C0 0.931 . S
Co6 N3 2.135 . S
Co6 N9 2.121 . S
Co6 O14 2.055 . S
Co6 O17 2.039 . S
Co6 N20 2.140 . S
C7 O8 1.227 . S
C7 O17 1.265 . S
O8 C7 1.227 . S
N9 Co6 2.121 . S
N9 C11 1.375 . S
N9 C12 1.313 . S
C10 C11 1.338 . S
C10 N13 1.377 . S
C10 H30 0.930 . S
C11 N9 1.375 . S
C11 C10 1.338 . S
C11 H15 0.931 . S
C12 N9 1.313 . S
C12 N13 1.344 . S
C12 H16 0.930 . S
N13 C10 1.377 . S
N13 C12 1.344 . S
O14 Co6 2.055 . S
O14 C18 1.253 . S
H15 C11 0.931 . S
H16 C12 0.930 . S
O17 Co6 2.039 . S
O17 C7 1.265 . S
C18 O14 1.253 . S
C18 O19 1.227 . S
O19 C18 1.227 . S
N20 Co6 2.140 . S
N20 C23 1.346 . S
N20 C24 1.345 . S
C21 C22 1.387 . S
C21 C25 1.391 . S
C22 C21 1.387 . S
C22 C23 1.369 . S
C22 H31 0.929 . S
C23 N20 1.346 . S
C23 C22 1.369 . S
C23 H26 0.928 . S
C24 N20 1.345 . S
C24 C25 1.371 . S
C24 H27 0.931 . S
C25 C21 1.391 . S
C25 C24 1.371 . S
C25 H32 0.930 . S
H26 C23 0.928 . S
H27 C24 0.931 . S
H28 C4 0.930 . S
H29 C1 0.930 . S
H30 C10 0.930 . S
H31 C22 0.929 . S
H32 C25 0.930 . S
C33 C34 1.351 . S
C33 N36 1.368 . S
C33 H38 0.931 . S
C34 C33 1.351 . S
C34 N35 1.373 . S
C34 H62 0.930 . S
N35 C34 1.373 . S
N35 C37 1.340 . S
N36 C33 1.368 . S
N36 C37 1.321 . S
N36 Co39 2.135 . S
C37 N35 1.340 . S
C37 N36 1.321 . S
C37 H61 0.930 . S
H38 C33 0.931 . S
Co39 N36 2.135 . S
Co39 N42 2.121 . S
Co39 O47 2.055 . S
Co39 O50 2.039 . S
Co39 N53 2.140 . S
C40 O41 1.227 . S
C40 O50 1.265 . S
O41 C40 1.227 . S
N42 Co39 2.121 . S
N42 C44 1.375 . S
N42 C45 1.313 . S
C43 C44 1.338 . S
C43 N46 1.377 . S
C43 H63 0.930 . S
C44 N42 1.375 . S
C44 C43 1.338 . S
C44 H48 0.931 . S
C45 N42 1.313 . S
C45 N46 1.344 . S
C45 H49 0.930 . S
N46 C43 1.377 . S
N46 C45 1.344 . S
O47 Co39 2.055 . S
O47 C51 1.253 . S
H48 C44 0.931 . S
H49 C45 0.930 . S
O50 Co39 2.039 . S
O50 C40 1.265 . S
C51 O47 1.253 . S
C51 O52 1.227 . S
O52 C51 1.227 . S
N53 Co39 2.140 . S
N53 C56 1.346 . S
N53 C57 1.345 . S
C54 C55 1.387 . S
C54 C58 1.391 . S
C55 C54 1.387 . S
C55 C56 1.369 . S
C55 H64 0.929 . S
C56 N53 1.346 . S
C56 C55 1.369 . S
C56 H59 0.928 . S
C57 N53 1.345 . S
C57 C58 1.371 . S
C57 H60 0.931 . S
C58 C54 1.391 . S
C58 C57 1.371 . S
C58 H65 0.930 . S
H59 C56 0.928 . S
H60 C57 0.931 . S
H61 C37 0.930 . S
H62 C34 0.930 . S
H63 C43 0.930 . S
H64 C55 0.929 . S
H65 C58 0.930 . S
C66 C67 1.351 . S
C66 N69 1.368 . S
C66 H71 0.931 . S
C67 C66 1.351 . S
C67 N68 1.373 . S
C67 H95 0.930 . S
N68 C67 1.373 . S
N68 C70 1.340 . S
N69 C66 1.368 . S
N69 C70 1.321 . S
N69 Co72 2.135 . S
C70 N68 1.340 . S
C70 N69 1.321 . S
C70 H94 0.930 . S
H71 C66 0.931 . S
Co72 N69 2.135 . S
Co72 N75 2.121 . S
Co72 O80 2.055 . S
Co72 O83 2.039 . S
Co72 N86 2.140 . S
C73 O74 1.227 . S
C73 O83 1.265 . S
O74 C73 1.227 . S
N75 Co72 2.121 . S
N75 C77 1.375 . S
N75 C78 1.313 . S
C76 C77 1.338 . S
C76 N79 1.377 . S
C76 H96 0.930 . S
C77 N75 1.375 . S
C77 C76 1.338 . S
C77 H81 0.931 . S
C78 N75 1.313 . S
C78 N79 1.344 . S
C78 H82 0.930 . S
N79 C76 1.377 . S
N79 C78 1.344 . S
O80 Co72 2.055 . S
O80 C84 1.253 . S
H81 C77 0.931 . S
H82 C78 0.930 . S
O83 Co72 2.039 . S
O83 C73 1.265 . S
C84 O80 1.253 . S
C84 O85 1.227 . S
O85 C84 1.227 . S
N86 Co72 2.140 . S
N86 C89 1.346 . S
N86 C90 1.345 . S
C87 C88 1.387 . S
C87 C91 1.391 . S
C88 C87 1.387 . S
C88 C89 1.369 . S
C88 H97 0.929 . S
C89 N86 1.346 . S
C89 C88 1.369 . S
C89 H92 0.928 . S
C90 N86 1.345 . S
C90 C91 1.371 . S
C90 H93 0.931 . S
C91 C87 1.391 . S
C91 C90 1.371 . S
C91 H98 0.930 . S
H92 C89 0.928 . S
H93 C90 0.931 . S
H94 C70 0.930 . S
H95 C67 0.930 . S
H96 C76 0.930 . S
H97 C88 0.929 . S
H98 C91 0.930 . S
C99 C100 1.351 . S
C99 N102 1.368 . S
C99 H104 0.931 . S
C100 C99 1.351 . S
C100 N101 1.373 . S
C100 H128 0.930 . S
N101 C100 1.373 . S
N101 C103 1.340 . S
N102 C99 1.368 . S
N102 C103 1.321 . S
N102 Co105 2.135 . S
C103 N101 1.340 . S
C103 N102 1.321 . S
C103 H127 0.930 . S
H104 C99 0.931 . S
Co105 N102 2.135 . S
Co105 N108 2.121 . S
Co105 O113 2.055 . S
Co105 O116 2.039 . S
Co105 N119 2.140 . S
C106 O107 1.227 . S
C106 O116 1.265 . S
O107 C106 1.227 . S
N108 Co105 2.121 . S
N108 C110 1.375 . S
N108 C111 1.313 . S
C109 C110 1.338 . S
C109 N112 1.377 . S
C109 H129 0.930 . S
C110 N108 1.375 . S
C110 C109 1.338 . S
C110 H114 0.931 . S
C111 N108 1.313 . S
C111 N112 1.344 . S
C111 H115 0.930 . S
N112 C109 1.377 . S
N112 C111 1.344 . S
O113 Co105 2.055 . S
O113 C117 1.253 . S
H114 C110 0.931 . S
H115 C111 0.930 . S
O116 Co105 2.039 . S
O116 C106 1.265 . S
C117 O113 1.253 . S
C117 O118 1.227 . S
O118 C117 1.227 . S
N119 Co105 2.140 . S
N119 C122 1.346 . S
N119 C123 1.345 . S
C120 C121 1.387 . S
C120 C124 1.391 . S
C121 C120 1.387 . S
C121 C122 1.369 . S
C121 H130 0.929 . S
C122 N119 1.346 . S
C122 C121 1.369 . S
C122 H125 0.928 . S
C123 N119 1.345 . S
C123 C124 1.371 . S
C123 H126 0.931 . S
C124 C120 1.391 . S
C124 C123 1.371 . S
C124 H131 0.930 . S
H125 C122 0.928 . S
H126 C123 0.931 . S
H127 C103 0.930 . S
H128 C100 0.930 . S
H129 C109 0.930 . S
H130 C121 0.929 . S
H131 C124 0.930 . S
C132 C133 1.351 . S
C132 N135 1.368 . S
C132 H137 0.931 . S
C133 C132 1.351 . S
C133 N134 1.373 . S
C133 H161 0.930 . S
N134 C133 1.373 . S
N134 C136 1.340 . S
N135 C132 1.368 . S
N135 C136 1.321 . S
N135 Co138 2.135 . S
C136 N134 1.340 . S
C136 N135 1.321 . S
C136 H160 0.930 . S
H137 C132 0.931 . S
Co138 N135 2.135 . S
Co138 N141 2.121 . S
Co138 O146 2.055 . S
Co138 O149 2.039 . S
Co138 N152 2.140 . S
C139 O140 1.227 . S
C139 O149 1.265 . S
O140 C139 1.227 . S
N141 Co138 2.121 . S
N141 C143 1.375 . S
N141 C144 1.313 . S
C142 C143 1.338 . S
C142 N145 1.377 . S
C142 H162 0.930 . S
C143 N141 1.375 . S
C143 C142 1.338 . S
C143 H147 0.931 . S
C144 N141 1.313 . S
C144 N145 1.344 . S
C144 H148 0.930 . S
N145 C142 1.377 . S
N145 C144 1.344 . S
O146 Co138 2.055 . S
O146 C150 1.253 . S
H147 C143 0.931 . S
H148 C144 0.930 . S
O149 Co138 2.039 . S
O149 C139 1.265 . S
C150 O146 1.253 . S
C150 O151 1.227 . S
O151 C150 1.227 . S
N152 Co138 2.140 . S
N152 C155 1.346 . S
N152 C156 1.345 . S
C153 C154 1.387 . S
C153 C157 1.391 . S
C154 C153 1.387 . S
C154 C155 1.369 . S
C154 H163 0.929 . S
C155 N152 1.346 . S
C155 C154 1.369 . S
C155 H158 0.928 . S
C156 N152 1.345 . S
C156 C157 1.371 . S
C156 H159 0.931 . S
C157 C153 1.391 . S
C157 C156 1.371 . S
C157 H164 0.930 . S
H158 C155 0.928 . S
H159 C156 0.931 . S
H160 C136 0.930 . S
H161 C133 0.930 . S
H162 C142 0.930 . S
H163 C154 0.929 . S
H164 C157 0.930 . S
C165 C166 1.351 . S
C165 N168 1.368 . S
C165 H170 0.931 . S
C166 C165 1.351 . S
C166 N167 1.373 . S
C166 H194 0.930 . S
N167 C166 1.373 . S
N167 C169 1.340 . S
N168 C165 1.368 . S
N168 C169 1.321 . S
N168 Co171 2.135 . S
C169 N167 1.340 . S
C169 N168 1.321 . S
C169 H193 0.930 . S
H170 C165 0.931 . S
Co171 N168 2.135 . S
Co171 N174 2.121 . S
Co171 O179 2.055 . S
Co171 O182 2.039 . S
Co171 N185 2.140 . S
C172 O173 1.227 . S
C172 O182 1.265 . S
O173 C172 1.227 . S
N174 Co171 2.121 . S
N174 C176 1.375 . S
N174 C177 1.313 . S
C175 C176 1.338 . S
C175 N178 1.377 . S
C175 H195 0.930 . S
C176 N174 1.375 . S
C176 C175 1.338 . S
C176 H180 0.931 . S
C177 N174 1.313 . S
C177 N178 1.344 . S
C177 H181 0.930 . S
N178 C175 1.377 . S
N178 C177 1.344 . S
O179 Co171 2.055 . S
O179 C183 1.253 . S
H180 C176 0.931 . S
H181 C177 0.930 . S
O182 Co171 2.039 . S
O182 C172 1.265 . S
C183 O179 1.253 . S
C183 O184 1.227 . S
O184 C183 1.227 . S
N185 Co171 2.140 . S
N185 C188 1.346 . S
N185 C189 1.345 . S
C186 C187 1.387 . S
C186 C190 1.391 . S
C187 C186 1.387 . S
C187 C188 1.369 . S
C187 H196 0.929 . S
C188 N185 1.346 . S
C188 C187 1.369 . S
C188 H191 0.928 . S
C189 N185 1.345 . S
C189 C190 1.371 . S
C189 H192 0.931 . S
C190 C186 1.391 . S
C190 C189 1.371 . S
C190 H197 0.930 . S
H191 C188 0.928 . S
H192 C189 0.931 . S
H193 C169 0.930 . S
H194 C166 0.930 . S
H195 C175 0.930 . S
H196 C187 0.929 . S
H197 C190 0.930 . S
C198 C199 1.351 . S
C198 N201 1.368 . S
C198 H203 0.931 . S
C199 C198 1.351 . S
C199 N200 1.373 . S
C199 H227 0.930 . S
N200 C199 1.373 . S
N200 C202 1.340 . S
N201 C198 1.368 . S
N201 C202 1.321 . S
N201 Co204 2.135 . S
C202 N200 1.340 . S
C202 N201 1.321 . S
C202 H226 0.930 . S
H203 C198 0.931 . S
Co204 N201 2.135 . S
Co204 N207 2.121 . S
Co204 O212 2.055 . S
Co204 O215 2.039 . S
Co204 N218 2.140 . S
C205 O206 1.227 . S
C205 O215 1.265 . S
O206 C205 1.227 . S
N207 Co204 2.121 . S
N207 C209 1.375 . S
N207 C210 1.313 . S
C208 C209 1.338 . S
C208 N211 1.377 . S
C208 H228 0.930 . S
C209 N207 1.375 . S
C209 C208 1.338 . S
C209 H213 0.931 . S
C210 N207 1.313 . S
C210 N211 1.344 . S
C210 H214 0.930 . S
N211 C208 1.377 . S
N211 C210 1.344 . S
O212 Co204 2.055 . S
O212 C216 1.253 . S
H213 C209 0.931 . S
H214 C210 0.930 . S
O215 Co204 2.039 . S
O215 C205 1.265 . S
C216 O212 1.253 . S
C216 O217 1.227 . S
O217 C216 1.227 . S
N218 Co204 2.140 . S
N218 C221 1.346 . S
N218 C222 1.345 . S
C219 C220 1.387 . S
C219 C223 1.391 . S
C220 C219 1.387 . S
C220 C221 1.369 . S
C220 H229 0.929 . S
C221 N218 1.346 . S
C221 C220 1.369 . S
C221 H224 0.928 . S
C222 N218 1.345 . S
C222 C223 1.371 . S
C222 H225 0.931 . S
C223 C219 1.391 . S
C223 C222 1.371 . S
C223 H230 0.930 . S
H224 C221 0.928 . S
H225 C222 0.931 . S
H226 C202 0.930 . S
H227 C199 0.930 . S
H228 C208 0.930 . S
H229 C220 0.929 . S
H230 C223 0.930 . S
C231 C232 1.351 . S
C231 N234 1.368 . S
C231 H236 0.931 . S
C232 C231 1.351 . S
C232 N233 1.373 . S
C232 H260 0.930 . S
N233 C232 1.373 . S
N233 C235 1.340 . S
N234 C231 1.368 . S
N234 C235 1.321 . S
N234 Co237 2.135 . S
C235 N233 1.340 . S
C235 N234 1.321 . S
C235 H259 0.930 . S
H236 C231 0.931 . S
Co237 N234 2.135 . S
Co237 N240 2.121 . S
Co237 O245 2.055 . S
Co237 O248 2.039 . S
Co237 N251 2.140 . S
C238 O239 1.227 . S
C238 O248 1.265 . S
O239 C238 1.227 . S
N240 Co237 2.121 . S
N240 C242 1.375 . S
N240 C243 1.313 . S
C241 C242 1.338 . S
C241 N244 1.377 . S
C241 H261 0.930 . S
C242 N240 1.375 . S
C242 C241 1.338 . S
C242 H246 0.931 . S
C243 N240 1.313 . S
C243 N244 1.344 . S
C243 H247 0.930 . S
N244 C241 1.377 . S
N244 C243 1.344 . S
O245 Co237 2.055 . S
O245 C249 1.253 . S
H246 C242 0.931 . S
H247 C243 0.930 . S
O248 Co237 2.039 . S
O248 C238 1.265 . S
C249 O245 1.253 . S
C249 O250 1.227 . S
O250 C249 1.227 . S
N251 Co237 2.140 . S
N251 C254 1.346 . S
N251 C255 1.345 . S
C252 C253 1.387 . S
C252 C256 1.391 . S
C253 C252 1.387 . S
C253 C254 1.369 . S
C253 H262 0.929 . S
C254 N251 1.346 . S
C254 C253 1.369 . S
C254 H257 0.928 . S
C255 N251 1.345 . S
C255 C256 1.371 . S
C255 H258 0.931 . S
C256 C252 1.391 . S
C256 C255 1.371 . S
C256 H263 0.930 . S
H257 C254 0.928 . S
H258 C255 0.931 . S
H259 C235 0.930 . S
H260 C232 0.930 . S
H261 C241 0.930 . S
H262 C253 0.929 . S
H263 C256 0.930 . S
C264 C265 1.351 . S
C264 N267 1.368 . S
C264 H269 0.931 . S
C265 C264 1.351 . S
C265 N266 1.373 . S
C265 H293 0.930 . S
N266 C265 1.373 . S
N266 C268 1.340 . S
N267 C264 1.368 . S
N267 C268 1.321 . S
N267 Co270 2.135 . S
C268 N266 1.340 . S
C268 N267 1.321 . S
C268 H292 0.930 . S
H269 C264 0.931 . S
Co270 N267 2.135 . S
Co270 N273 2.121 . S
Co270 O278 2.055 . S
Co270 O281 2.039 . S
Co270 N284 2.140 . S
C271 O272 1.227 . S
C271 O281 1.265 . S
O272 C271 1.227 . S
N273 Co270 2.121 . S
N273 C275 1.375 . S
N273 C276 1.313 . S
C274 C275 1.338 . S
C274 N277 1.377 . S
C274 H294 0.930 . S
C275 N273 1.375 . S
C275 C274 1.338 . S
C275 H279 0.931 . S
C276 N273 1.313 . S
C276 N277 1.344 . S
C276 H280 0.930 . S
N277 C274 1.377 . S
N277 C276 1.344 . S
O278 Co270 2.055 . S
O278 C282 1.253 . S
H279 C275 0.931 . S
H280 C276 0.930 . S
O281 Co270 2.039 . S
O281 C271 1.265 . S
C282 O278 1.253 . S
C282 O283 1.227 . S
O283 C282 1.227 . S
N284 Co270 2.140 . S
N284 C287 1.346 . S
N284 C288 1.345 . S
C285 C286 1.387 . S
C285 C289 1.391 . S
C286 C285 1.387 . S
C286 C287 1.369 . S
C286 H295 0.929 . S
C287 N284 1.346 . S
C287 C286 1.369 . S
C287 H290 0.928 . S
C288 N284 1.345 . S
C288 C289 1.371 . S
C288 H291 0.931 . S
C289 C285 1.391 . S
C289 C288 1.371 . S
C289 H296 0.930 . S
H290 C287 0.928 . S
H291 C288 0.931 . S
H292 C268 0.930 . S
H293 C265 0.930 . S
H294 C274 0.930 . S
H295 C286 0.929 . S
H296 C289 0.930 . S
C297 C298 1.351 . S
C297 N300 1.368 . S
C297 H302 0.931 . S
C298 C297 1.351 . S
C298 N299 1.373 . S
C298 H326 0.930 . S
N299 C298 1.373 . S
N299 C301 1.340 . S
N300 C297 1.368 . S
N300 C301 1.321 . S
N300 Co303 2.135 . S
C301 N299 1.340 . S
C301 N300 1.321 . S
C301 H325 0.930 . S
H302 C297 0.931 . S
Co303 N300 2.135 . S
Co303 N306 2.121 . S
Co303 O311 2.055 . S
Co303 O314 2.039 . S
Co303 N317 2.140 . S
C304 O305 1.227 . S
C304 O314 1.265 . S
O305 C304 1.227 . S
N306 Co303 2.121 . S
N306 C308 1.375 . S
N306 C309 1.313 . S
C307 C308 1.338 . S
C307 N310 1.377 . S
C307 H327 0.930 . S
C308 N306 1.375 . S
C308 C307 1.338 . S
C308 H312 0.931 . S
C309 N306 1.313 . S
C309 N310 1.344 . S
C309 H313 0.930 . S
N310 C307 1.377 . S
N310 C309 1.344 . S
O311 Co303 2.055 . S
O311 C315 1.253 . S
H312 C308 0.931 . S
H313 C309 0.930 . S
O314 Co303 2.039 . S
O314 C304 1.265 . S
C315 O311 1.253 . S
C315 O316 1.227 . S
O316 C315 1.227 . S
N317 Co303 2.140 . S
N317 C320 1.346 . S
N317 C321 1.345 . S
C318 C319 1.387 . S
C318 C322 1.391 . S
C319 C318 1.387 . S
C319 C320 1.369 . S
C319 H328 0.929 . S
C320 N317 1.346 . S
C320 C319 1.369 . S
C320 H323 0.928 . S
C321 N317 1.345 . S
C321 C322 1.371 . S
C321 H324 0.931 . S
C322 C318 1.391 . S
C322 C321 1.371 . S
C322 H329 0.930 . S
H323 C320 0.928 . S
H324 C321 0.931 . S
H325 C301 0.930 . S
H326 C298 0.930 . S
H327 C307 0.930 . S
H328 C319 0.929 . S
H329 C322 0.930 . S
C330 C331 1.351 . S
C330 N333 1.368 . S
C330 H335 0.931 . S
C331 C330 1.351 . S
C331 N332 1.373 . S
C331 H359 0.930 . S
N332 C331 1.373 . S
N332 C334 1.340 . S
N333 C330 1.368 . S
N333 C334 1.321 . S
N333 Co336 2.135 . S
C334 N332 1.340 . S
C334 N333 1.321 . S
C334 H358 0.930 . S
H335 C330 0.931 . S
Co336 N333 2.135 . S
Co336 N339 2.121 . S
Co336 O344 2.055 . S
Co336 O347 2.039 . S
Co336 N350 2.140 . S
C337 O338 1.227 . S
C337 O347 1.265 . S
O338 C337 1.227 . S
N339 Co336 2.121 . S
N339 C341 1.375 . S
N339 C342 1.313 . S
C340 C341 1.338 . S
C340 N343 1.377 . S
C340 H360 0.930 . S
C341 N339 1.375 . S
C341 C340 1.338 . S
C341 H345 0.931 . S
C342 N339 1.313 . S
C342 N343 1.344 . S
C342 H346 0.930 . S
N343 C340 1.377 . S
N343 C342 1.344 . S
O344 Co336 2.055 . S
O344 C348 1.253 . S
H345 C341 0.931 . S
H346 C342 0.930 . S
O347 Co336 2.039 . S
O347 C337 1.265 . S
C348 O344 1.253 . S
C348 O349 1.227 . S
O349 C348 1.227 . S
N350 Co336 2.140 . S
N350 C353 1.346 . S
N350 C354 1.345 . S
C351 C352 1.387 . S
C351 C355 1.391 . S
C352 C351 1.387 . S
C352 C353 1.369 . S
C352 H361 0.929 . S
C353 N350 1.346 . S
C353 C352 1.369 . S
C353 H356 0.928 . S
C354 N350 1.345 . S
C354 C355 1.371 . S
C354 H357 0.931 . S
C355 C351 1.391 . S
C355 C354 1.371 . S
C355 H362 0.930 . S
H356 C353 0.928 . S
H357 C354 0.931 . S
H358 C334 0.930 . S
H359 C331 0.930 . S
H360 C340 0.930 . S
H361 C352 0.929 . S
H362 C355 0.930 . S
C363 C364 1.351 . S
C363 N366 1.368 . S
C363 H368 0.931 . S
C364 C363 1.351 . S
C364 N365 1.373 . S
C364 H392 0.930 . S
N365 C364 1.373 . S
N365 C367 1.340 . S
N366 C363 1.368 . S
N366 C367 1.321 . S
N366 Co369 2.135 . S
C367 N365 1.340 . S
C367 N366 1.321 . S
C367 H391 0.930 . S
H368 C363 0.931 . S
Co369 N366 2.135 . S
Co369 N372 2.121 . S
Co369 O377 2.055 . S
Co369 O380 2.039 . S
Co369 N383 2.140 . S
C370 O371 1.227 . S
C370 O380 1.265 . S
O371 C370 1.227 . S
N372 Co369 2.121 . S
N372 C374 1.375 . S
N372 C375 1.313 . S
C373 C374 1.338 . S
C373 N376 1.377 . S
C373 H393 0.930 . S
C374 N372 1.375 . S
C374 C373 1.338 . S
C374 H378 0.931 . S
C375 N372 1.313 . S
C375 N376 1.344 . S
C375 H379 0.930 . S
N376 C373 1.377 . S
N376 C375 1.344 . S
O377 Co369 2.055 . S
O377 C381 1.253 . S
H378 C374 0.931 . S
H379 C375 0.930 . S
O380 Co369 2.039 . S
O380 C370 1.265 . S
C381 O377 1.253 . S
C381 O382 1.227 . S
O382 C381 1.227 . S
N383 Co369 2.140 . S
N383 C386 1.346 . S
N383 C387 1.345 . S
C384 C385 1.387 . S
C384 C388 1.391 . S
C385 C384 1.387 . S
C385 C386 1.369 . S
C385 H394 0.929 . S
C386 N383 1.346 . S
C386 C385 1.369 . S
C386 H389 0.928 . S
C387 N383 1.345 . S
C387 C388 1.371 . S
C387 H390 0.931 . S
C388 C384 1.391 . S
C388 C387 1.371 . S
C388 H395 0.930 . S
H389 C386 0.928 . S
H390 C387 0.931 . S
H391 C367 0.930 . S
H392 C364 0.930 . S
H393 C373 0.930 . S
H394 C385 0.929 . S
H395 C388 0.930 . S
C396 C397 1.351 . S
C396 N399 1.368 . S
C396 H401 0.931 . S
C397 C396 1.351 . S
C397 N398 1.373 . S
C397 H425 0.930 . S
N398 C397 1.373 . S
N398 C400 1.340 . S
N399 C396 1.368 . S
N399 C400 1.321 . S
N399 Co402 2.135 . S
C400 N398 1.340 . S
C400 N399 1.321 . S
C400 H424 0.930 . S
H401 C396 0.931 . S
Co402 N399 2.135 . S
Co402 N405 2.121 . S
Co402 O410 2.055 . S
Co402 O413 2.039 . S
Co402 N416 2.140 . S
C403 O404 1.227 . S
C403 O413 1.265 . S
O404 C403 1.227 . S
N405 Co402 2.121 . S
N405 C407 1.375 . S
N405 C408 1.313 . S
C406 C407 1.338 . S
C406 N409 1.377 . S
C406 H426 0.930 . S
C407 N405 1.375 . S
C407 C406 1.338 . S
C407 H411 0.931 . S
C408 N405 1.313 . S
C408 N409 1.344 . S
C408 H412 0.930 . S
N409 C406 1.377 . S
N409 C408 1.344 . S
O410 Co402 2.055 . S
O410 C414 1.253 . S
H411 C407 0.931 . S
H412 C408 0.930 . S
O413 Co402 2.039 . S
O413 C403 1.265 . S
C414 O410 1.253 . S
C414 O415 1.227 . S
O415 C414 1.227 . S
N416 Co402 2.140 . S
N416 C419 1.346 . S
N416 C420 1.345 . S
C417 C418 1.387 . S
C417 C421 1.391 . S
C418 C417 1.387 . S
C418 C419 1.369 . S
C418 H427 0.929 . S
C419 N416 1.346 . S
C419 C418 1.369 . S
C419 H422 0.928 . S
C420 N416 1.345 . S
C420 C421 1.371 . S
C420 H423 0.931 . S
C421 C417 1.391 . S
C421 C420 1.371 . S
C421 H428 0.930 . S
H422 C419 0.928 . S
H423 C420 0.931 . S
H424 C400 0.930 . S
H425 C397 0.930 . S
H426 C406 0.930 . S
H427 C418 0.929 . S
H428 C421 0.930 . S
C429 C430 1.351 . S
C429 N432 1.368 . S
C429 H434 0.931 . S
C430 C429 1.351 . S
C430 N431 1.373 . S
C430 H458 0.930 . S
N431 C430 1.373 . S
N431 C433 1.340 . S
N432 C429 1.368 . S
N432 C433 1.321 . S
N432 Co435 2.135 . S
C433 N431 1.340 . S
C433 N432 1.321 . S
C433 H457 0.930 . S
H434 C429 0.931 . S
Co435 N432 2.135 . S
Co435 N438 2.121 . S
Co435 O443 2.055 . S
Co435 O446 2.039 . S
Co435 N449 2.140 . S
C436 O437 1.227 . S
C436 O446 1.265 . S
O437 C436 1.227 . S
N438 Co435 2.121 . S
N438 C440 1.375 . S
N438 C441 1.313 . S
C439 C440 1.338 . S
C439 N442 1.377 . S
C439 H459 0.930 . S
C440 N438 1.375 . S
C440 C439 1.338 . S
C440 H444 0.931 . S
C441 N438 1.313 . S
C441 N442 1.344 . S
C441 H445 0.930 . S
N442 C439 1.377 . S
N442 C441 1.344 . S
O443 Co435 2.055 . S
O443 C447 1.253 . S
H444 C440 0.931 . S
H445 C441 0.930 . S
O446 Co435 2.039 . S
O446 C436 1.265 . S
C447 O443 1.253 . S
C447 O448 1.227 . S
O448 C447 1.227 . S
N449 Co435 2.140 . S
N449 C452 1.346 . S
N449 C453 1.345 . S
C450 C451 1.387 . S
C450 C454 1.391 . S
C451 C450 1.387 . S
C451 C452 1.369 . S
C451 H460 0.929 . S
C452 N449 1.346 . S
C452 C451 1.369 . S
C452 H455 0.928 . S
C453 N449 1.345 . S
C453 C454 1.371 . S
C453 H456 0.931 . S
C454 C450 1.391 . S
C454 C453 1.371 . S
C454 H461 0.930 . S
H455 C452 0.928 . S
H456 C453 0.931 . S
H457 C433 0.930 . S
H458 C430 0.930 . S
H459 C439 0.930 . S
H460 C451 0.929 . S
H461 C454 0.930 . S
C462 C463 1.351 . S
C462 N465 1.368 . S
C462 H467 0.931 . S
C463 C462 1.351 . S
C463 N464 1.373 . S
C463 H491 0.930 . S
N464 C463 1.373 . S
N464 C466 1.340 . S
N465 C462 1.368 . S
N465 C466 1.321 . S
N465 Co468 2.135 . S
C466 N464 1.340 . S
C466 N465 1.321 . S
C466 H490 0.930 . S
H467 C462 0.931 . S
Co468 N465 2.135 . S
Co468 N471 2.121 . S
Co468 O476 2.055 . S
Co468 O479 2.039 . S
Co468 N482 2.140 . S
C469 O470 1.227 . S
C469 O479 1.265 . S
O470 C469 1.227 . S
N471 Co468 2.121 . S
N471 C473 1.375 . S
N471 C474 1.313 . S
C472 C473 1.338 . S
C472 N475 1.377 . S
C472 H492 0.930 . S
C473 N471 1.375 . S
C473 C472 1.338 . S
C473 H477 0.931 . S
C474 N471 1.313 . S
C474 N475 1.344 . S
C474 H478 0.930 . S
N475 C472 1.377 . S
N475 C474 1.344 . S
O476 Co468 2.055 . S
O476 C480 1.253 . S
H477 C473 0.931 . S
H478 C474 0.930 . S
O479 Co468 2.039 . S
O479 C469 1.265 . S
C480 O476 1.253 . S
C480 O481 1.227 . S
O481 C480 1.227 . S
N482 Co468 2.140 . S
N482 C485 1.346 . S
N482 C486 1.345 . S
C483 C484 1.387 . S
C483 C487 1.391 . S
C484 C483 1.387 . S
C484 C485 1.369 . S
C484 H493 0.929 . S
C485 N482 1.346 . S
C485 C484 1.369 . S
C485 H488 0.928 . S
C486 N482 1.345 . S
C486 C487 1.371 . S
C486 H489 0.931 . S
C487 C483 1.391 . S
C487 C486 1.371 . S
C487 H494 0.930 . S
H488 C485 0.928 . S
H489 C486 0.931 . S
H490 C466 0.930 . S
H491 C463 0.930 . S
H492 C472 0.930 . S
H493 C484 0.929 . S
H494 C487 0.930 . S
C495 C496 1.351 . S
C495 N498 1.368 . S
C495 H500 0.931 . S
C496 C495 1.351 . S
C496 N497 1.373 . S
C496 H524 0.930 . S
N497 C496 1.373 . S
N497 C499 1.340 . S
N498 C495 1.368 . S
N498 C499 1.321 . S
N498 Co501 2.135 . S
C499 N497 1.340 . S
C499 N498 1.321 . S
C499 H523 0.930 . S
H500 C495 0.931 . S
Co501 N498 2.135 . S
Co501 N504 2.121 . S
Co501 O509 2.055 . S
Co501 O512 2.039 . S
Co501 N515 2.140 . S
C502 O503 1.227 . S
C502 O512 1.265 . S
O503 C502 1.227 . S
N504 Co501 2.121 . S
N504 C506 1.375 . S
N504 C507 1.313 . S
C505 C506 1.338 . S
C505 N508 1.377 . S
C505 H525 0.930 . S
C506 N504 1.375 . S
C506 C505 1.338 . S
C506 H510 0.931 . S
C507 N504 1.313 . S
C507 N508 1.344 . S
C507 H511 0.930 . S
N508 C505 1.377 . S
N508 C507 1.344 . S
O509 Co501 2.055 . S
O509 C513 1.253 . S
H510 C506 0.931 . S
H511 C507 0.930 . S
O512 Co501 2.039 . S
O512 C502 1.265 . S
C513 O509 1.253 . S
C513 O514 1.227 . S
O514 C513 1.227 . S
N515 Co501 2.140 . S
N515 C518 1.346 . S
N515 C519 1.345 . S
C516 C517 1.387 . S
C516 C520 1.391 . S
C517 C516 1.387 . S
C517 C518 1.369 . S
C517 H526 0.929 . S
C518 N515 1.346 . S
C518 C517 1.369 . S
C518 H521 0.928 . S
C519 N515 1.345 . S
C519 C520 1.371 . S
C519 H522 0.931 . S
C520 C516 1.391 . S
C520 C519 1.371 . S
C520 H527 0.930 . S
H521 C518 0.928 . S
H522 C519 0.931 . S
H523 C499 0.930 . S
H524 C496 0.930 . S
H525 C505 0.930 . S
H526 C517 0.929 . S
H527 C520 0.930 . S
C528 C529 1.351 . S
C528 N531 1.368 . S
C528 H533 0.931 . S
C529 C528 1.351 . S
C529 N530 1.373 . S
C529 H557 0.930 . S
N530 C529 1.373 . S
N530 C532 1.340 . S
N531 C528 1.368 . S
N531 C532 1.321 . S
N531 Co534 2.135 . S
C532 N530 1.340 . S
C532 N531 1.321 . S
C532 H556 0.930 . S
H533 C528 0.931 . S
Co534 N531 2.135 . S
Co534 N537 2.121 . S
Co534 O542 2.055 . S
Co534 O545 2.039 . S
Co534 N548 2.140 . S
C535 O536 1.227 . S
C535 O545 1.265 . S
O536 C535 1.227 . S
N537 Co534 2.121 . S
N537 C539 1.375 . S
N537 C540 1.313 . S
C538 C539 1.338 . S
C538 N541 1.377 . S
C538 H558 0.930 . S
C539 N537 1.375 . S
C539 C538 1.338 . S
C539 H543 0.931 . S
C540 N537 1.313 . S
C540 N541 1.344 . S
C540 H544 0.930 . S
N541 C538 1.377 . S
N541 C540 1.344 . S
O542 Co534 2.055 . S
O542 C546 1.253 . S
H543 C539 0.931 . S
H544 C540 0.930 . S
O545 Co534 2.039 . S
O545 C535 1.265 . S
C546 O542 1.253 . S
C546 O547 1.227 . S
O547 C546 1.227 . S
N548 Co534 2.140 . S
N548 C551 1.346 . S
N548 C552 1.345 . S
C549 C550 1.387 . S
C549 C553 1.391 . S
C550 C549 1.387 . S
C550 C551 1.369 . S
C550 H559 0.929 . S
C551 N548 1.346 . S
C551 C550 1.369 . S
C551 H554 0.928 . S
C552 N548 1.345 . S
C552 C553 1.371 . S
C552 H555 0.931 . S
C553 C549 1.391 . S
C553 C552 1.371 . S
C553 H560 0.930 . S
H554 C551 0.928 . S
H555 C552 0.931 . S
H556 C532 0.930 . S
H557 C529 0.930 . S
H558 C538 0.930 . S
H559 C550 0.929 . S
H560 C553 0.930 . S
C561 C562 1.351 . S
C561 N564 1.368 . S
C561 H566 0.931 . S
C562 C561 1.351 . S
C562 N563 1.373 . S
C562 H590 0.930 . S
N563 C562 1.373 . S
N563 C565 1.340 . S
N564 C561 1.368 . S
N564 C565 1.321 . S
N564 Co567 2.135 . S
C565 N563 1.340 . S
C565 N564 1.321 . S
C565 H589 0.930 . S
H566 C561 0.931 . S
Co567 N564 2.135 . S
Co567 N570 2.121 . S
Co567 O575 2.055 . S
Co567 O578 2.039 . S
Co567 N581 2.140 . S
C568 O569 1.227 . S
C568 O578 1.265 . S
O569 C568 1.227 . S
N570 Co567 2.121 . S
N570 C572 1.375 . S
N570 C573 1.313 . S
C571 C572 1.338 . S
C571 N574 1.377 . S
C571 H591 0.930 . S
C572 N570 1.375 . S
C572 C571 1.338 . S
C572 H576 0.931 . S
C573 N570 1.313 . S
C573 N574 1.344 . S
C573 H577 0.930 . S
N574 C571 1.377 . S
N574 C573 1.344 . S
O575 Co567 2.055 . S
O575 C579 1.253 . S
H576 C572 0.931 . S
H577 C573 0.930 . S
O578 Co567 2.039 . S
O578 C568 1.265 . S
C579 O575 1.253 . S
C579 O580 1.227 . S
O580 C579 1.227 . S
N581 Co567 2.140 . S
N581 C584 1.346 . S
N581 C585 1.345 . S
C582 C583 1.387 . S
C582 C586 1.391 . S
C583 C582 1.387 . S
C583 C584 1.369 . S
C583 H592 0.929 . S
C584 N581 1.346 . S
C584 C583 1.369 . S
C584 H587 0.928 . S
C585 N581 1.345 . S
C585 C586 1.371 . S
C585 H588 0.931 . S
C586 C582 1.391 . S
C586 C585 1.371 . S
C586 H593 0.930 . S
H587 C584 0.928 . S
H588 C585 0.931 . S
H589 C565 0.930 . S
H590 C562 0.930 . S
H591 C571 0.930 . S
H592 C583 0.929 . S
H593 C586 0.930 . S
C594 C595 1.351 . S
C594 N597 1.368 . S
C594 H599 0.931 . S
C595 C594 1.351 . S
C595 N596 1.373 . S
C595 H623 0.930 . S
N596 C595 1.373 . S
N596 C598 1.340 . S
N597 C594 1.368 . S
N597 C598 1.321 . S
N597 Co600 2.135 . S
C598 N596 1.340 . S
C598 N597 1.321 . S
C598 H622 0.930 . S
H599 C594 0.931 . S
Co600 N597 2.135 . S
Co600 N603 2.121 . S
Co600 O608 2.055 . S
Co600 O611 2.039 . S
Co600 N614 2.140 . S
C601 O602 1.227 . S
C601 O611 1.265 . S
O602 C601 1.227 . S
N603 Co600 2.121 . S
N603 C605 1.375 . S
N603 C606 1.313 . S
C604 C605 1.338 . S
C604 N607 1.377 . S
C604 H624 0.930 . S
C605 N603 1.375 . S
C605 C604 1.338 . S
C605 H609 0.931 . S
C606 N603 1.313 . S
C606 N607 1.344 . S
C606 H610 0.930 . S
N607 C604 1.377 . S
N607 C606 1.344 . S
O608 Co600 2.055 . S
O608 C612 1.253 . S
H609 C605 0.931 . S
H610 C606 0.930 . S
O611 Co600 2.039 . S
O611 C601 1.265 . S
C612 O608 1.253 . S
C612 O613 1.227 . S
O613 C612 1.227 . S
N614 Co600 2.140 . S
N614 C617 1.346 . S
N614 C618 1.345 . S
C615 C616 1.387 . S
C615 C619 1.391 . S
C616 C615 1.387 . S
C616 C617 1.369 . S
C616 H625 0.929 . S
C617 N614 1.346 . S
C617 C616 1.369 . S
C617 H620 0.928 . S
C618 N614 1.345 . S
C618 C619 1.371 . S
C618 H621 0.931 . S
C619 C615 1.391 . S
C619 C618 1.371 . S
C619 H626 0.930 . S
H620 C617 0.928 . S
H621 C618 0.931 . S
H622 C598 0.930 . S
H623 C595 0.930 . S
H624 C604 0.930 . S
H625 C616 0.929 . S
H626 C619 0.930 . S
C627 C628 1.351 . S
C627 N630 1.368 . S
C627 H632 0.931 . S
C628 C627 1.351 . S
C628 N629 1.373 . S
C628 H656 0.930 . S
N629 C628 1.373 . S
N629 C631 1.340 . S
N630 C627 1.368 . S
N630 C631 1.321 . S
N630 Co633 2.135 . S
C631 N629 1.340 . S
C631 N630 1.321 . S
C631 H655 0.930 . S
H632 C627 0.931 . S
Co633 N630 2.135 . S
Co633 N636 2.121 . S
Co633 O641 2.055 . S
Co633 O644 2.039 . S
Co633 N647 2.140 . S
C634 O635 1.227 . S
C634 O644 1.265 . S
O635 C634 1.227 . S
N636 Co633 2.121 . S
N636 C638 1.375 . S
N636 C639 1.313 . S
C637 C638 1.338 . S
C637 N640 1.377 . S
C637 H657 0.930 . S
C638 N636 1.375 . S
C638 C637 1.338 . S
C638 H642 0.931 . S
C639 N636 1.313 . S
C639 N640 1.344 . S
C639 H643 0.930 . S
N640 C637 1.377 . S
N640 C639 1.344 . S
O641 Co633 2.055 . S
O641 C645 1.253 . S
H642 C638 0.931 . S
H643 C639 0.930 . S
O644 Co633 2.039 . S
O644 C634 1.265 . S
C645 O641 1.253 . S
C645 O646 1.227 . S
O646 C645 1.227 . S
N647 Co633 2.140 . S
N647 C650 1.346 . S
N647 C651 1.345 . S
C648 C649 1.387 . S
C648 C652 1.391 . S
C649 C648 1.387 . S
C649 C650 1.369 . S
C649 H658 0.929 . S
C650 N647 1.346 . S
C650 C649 1.369 . S
C650 H653 0.928 . S
C651 N647 1.345 . S
C651 C652 1.371 . S
C651 H654 0.931 . S
C652 C648 1.391 . S
C652 C651 1.371 . S
C652 H659 0.930 . S
H653 C650 0.928 . S
H654 C651 0.931 . S
H655 C631 0.930 . S
H656 C628 0.930 . S
H657 C637 0.930 . S
H658 C649 0.929 . S
H659 C652 0.930 . S
C660 C661 1.351 . S
C660 N663 1.368 . S
C660 H665 0.931 . S
C661 C660 1.351 . S
C661 N662 1.373 . S
C661 H689 0.930 . S
N662 C661 1.373 . S
N662 C664 1.340 . S
N663 C660 1.368 . S
N663 C664 1.321 . S
N663 Co666 2.135 . S
C664 N662 1.340 . S
C664 N663 1.321 . S
C664 H688 0.930 . S
H665 C660 0.931 . S
Co666 N663 2.135 . S
Co666 N669 2.121 . S
Co666 O674 2.055 . S
Co666 O677 2.039 . S
Co666 N680 2.140 . S
C667 O668 1.227 . S
C667 O677 1.265 . S
O668 C667 1.227 . S
N669 Co666 2.121 . S
N669 C671 1.375 . S
N669 C672 1.313 . S
C670 C671 1.338 . S
C670 N673 1.377 . S
C670 H690 0.930 . S
C671 N669 1.375 . S
C671 C670 1.338 . S
C671 H675 0.931 . S
C672 N669 1.313 . S
C672 N673 1.344 . S
C672 H676 0.930 . S
N673 C670 1.377 . S
N673 C672 1.344 . S
O674 Co666 2.055 . S
O674 C678 1.253 . S
H675 C671 0.931 . S
H676 C672 0.930 . S
O677 Co666 2.039 . S
O677 C667 1.265 . S
C678 O674 1.253 . S
C678 O679 1.227 . S
O679 C678 1.227 . S
N680 Co666 2.140 . S
N680 C683 1.346 . S
N680 C684 1.345 . S
C681 C682 1.387 . S
C681 C685 1.391 . S
C682 C681 1.387 . S
C682 C683 1.369 . S
C682 H691 0.929 . S
C683 N680 1.346 . S
C683 C682 1.369 . S
C683 H686 0.928 . S
C684 N680 1.345 . S
C684 C685 1.371 . S
C684 H687 0.931 . S
C685 C681 1.391 . S
C685 C684 1.371 . S
C685 H692 0.930 . S
H686 C683 0.928 . S
H687 C684 0.931 . S
H688 C664 0.930 . S
H689 C661 0.930 . S
H690 C670 0.930 . S
H691 C682 0.929 . S
H692 C685 0.930 . S
C693 C694 1.351 . S
C693 N696 1.368 . S
C693 H698 0.931 . S
C694 C693 1.351 . S
C694 N695 1.373 . S
C694 H722 0.930 . S
N695 C694 1.373 . S
N695 C697 1.340 . S
N696 C693 1.368 . S
N696 C697 1.321 . S
N696 Co699 2.135 . S
C697 N695 1.340 . S
C697 N696 1.321 . S
C697 H721 0.930 . S
H698 C693 0.931 . S
Co699 N696 2.135 . S
Co699 N702 2.121 . S
Co699 O707 2.055 . S
Co699 O710 2.039 . S
Co699 N713 2.140 . S
C700 O701 1.227 . S
C700 O710 1.265 . S
O701 C700 1.227 . S
N702 Co699 2.121 . S
N702 C704 1.375 . S
N702 C705 1.313 . S
C703 C704 1.338 . S
C703 N706 1.377 . S
C703 H723 0.930 . S
C704 N702 1.375 . S
C704 C703 1.338 . S
C704 H708 0.931 . S
C705 N702 1.313 . S
C705 N706 1.344 . S
C705 H709 0.930 . S
N706 C703 1.377 . S
N706 C705 1.344 . S
O707 Co699 2.055 . S
O707 C711 1.253 . S
H708 C704 0.931 . S
H709 C705 0.930 . S
O710 Co699 2.039 . S
O710 C700 1.265 . S
C711 O707 1.253 . S
C711 O712 1.227 . S
O712 C711 1.227 . S
N713 Co699 2.140 . S
N713 C716 1.346 . S
N713 C717 1.345 . S
C714 C715 1.387 . S
C714 C718 1.391 . S
C715 C714 1.387 . S
C715 C716 1.369 . S
C715 H724 0.929 . S
C716 N713 1.346 . S
C716 C715 1.369 . S
C716 H719 0.928 . S
C717 N713 1.345 . S
C717 C718 1.371 . S
C717 H720 0.931 . S
C718 C714 1.391 . S
C718 C717 1.371 . S
C718 H725 0.930 . S
H719 C716 0.928 . S
H720 C717 0.931 . S
H721 C697 0.930 . S
H722 C694 0.930 . S
H723 C703 0.930 . S
H724 C715 0.929 . S
H725 C718 0.930 . S
C726 C727 1.351 . S
C726 N729 1.368 . S
C726 H731 0.931 . S
C727 C726 1.351 . S
C727 N728 1.373 . S
C727 H755 0.930 . S
N728 C727 1.373 . S
N728 C730 1.340 . S
N729 C726 1.368 . S
N729 C730 1.321 . S
N729 Co732 2.135 . S
C730 N728 1.340 . S
C730 N729 1.321 . S
C730 H754 0.930 . S
H731 C726 0.931 . S
Co732 N729 2.135 . S
Co732 N735 2.121 . S
Co732 O740 2.055 . S
Co732 O743 2.039 . S
Co732 N746 2.140 . S
C733 O734 1.227 . S
C733 O743 1.265 . S
O734 C733 1.227 . S
N735 Co732 2.121 . S
N735 C737 1.375 . S
N735 C738 1.313 . S
C736 C737 1.338 . S
C736 N739 1.377 . S
C736 H756 0.930 . S
C737 N735 1.375 . S
C737 C736 1.338 . S
C737 H741 0.931 . S
C738 N735 1.313 . S
C738 N739 1.344 . S
C738 H742 0.930 . S
N739 C736 1.377 . S
N739 C738 1.344 . S
O740 Co732 2.055 . S
O740 C744 1.253 . S
H741 C737 0.931 . S
H742 C738 0.930 . S
O743 Co732 2.039 . S
O743 C733 1.265 . S
C744 O740 1.253 . S
C744 O745 1.227 . S
O745 C744 1.227 . S
N746 Co732 2.140 . S
N746 C749 1.346 . S
N746 C750 1.345 . S
C747 C748 1.387 . S
C747 C751 1.391 . S
C748 C747 1.387 . S
C748 C749 1.369 . S
C748 H757 0.929 . S
C749 N746 1.346 . S
C749 C748 1.369 . S
C749 H752 0.928 . S
C750 N746 1.345 . S
C750 C751 1.371 . S
C750 H753 0.931 . S
C751 C747 1.391 . S
C751 C750 1.371 . S
C751 H758 0.930 . S
H752 C749 0.928 . S
H753 C750 0.931 . S
H754 C730 0.930 . S
H755 C727 0.930 . S
H756 C736 0.930 . S
H757 C748 0.929 . S
H758 C751 0.930 . S
C759 C760 1.351 . S
C759 N762 1.368 . S
C759 H764 0.931 . S
C760 C759 1.351 . S
C760 N761 1.373 . S
C760 H788 0.930 . S
N761 C760 1.373 . S
N761 C763 1.340 . S
N762 C759 1.368 . S
N762 C763 1.321 . S
N762 Co765 2.135 . S
C763 N761 1.340 . S
C763 N762 1.321 . S
C763 H787 0.930 . S
H764 C759 0.931 . S
Co765 N762 2.135 . S
Co765 N768 2.121 . S
Co765 O773 2.055 . S
Co765 O776 2.039 . S
Co765 N779 2.140 . S
C766 O767 1.227 . S
C766 O776 1.265 . S
O767 C766 1.227 . S
N768 Co765 2.121 . S
N768 C770 1.375 . S
N768 C771 1.313 . S
C769 C770 1.338 . S
C769 N772 1.377 . S
C769 H789 0.930 . S
C770 N768 1.375 . S
C770 C769 1.338 . S
C770 H774 0.931 . S
C771 N768 1.313 . S
C771 N772 1.344 . S
C771 H775 0.930 . S
N772 C769 1.377 . S
N772 C771 1.344 . S
O773 Co765 2.055 . S
O773 C777 1.253 . S
H774 C770 0.931 . S
H775 C771 0.930 . S
O776 Co765 2.039 . S
O776 C766 1.265 . S
C777 O773 1.253 . S
C777 O778 1.227 . S
O778 C777 1.227 . S
N779 Co765 2.140 . S
N779 C782 1.346 . S
N779 C783 1.345 . S
C780 C781 1.387 . S
C780 C784 1.391 . S
C781 C780 1.387 . S
C781 C782 1.369 . S
C781 H790 0.929 . S
C782 N779 1.346 . S
C782 C781 1.369 . S
C782 H785 0.928 . S
C783 N779 1.345 . S
C783 C784 1.371 . S
C783 H786 0.931 . S
C784 C780 1.391 . S
C784 C783 1.371 . S
C784 H791 0.930 . S
H785 C782 0.928 . S
H786 C783 0.931 . S
H787 C763 0.930 . S
H788 C760 0.930 . S
H789 C769 0.930 . S
H790 C781 0.929 . S
H791 C784 0.930 . S
C792 C793 1.349 . S
C792 C794 1.327 . S
C792 H817 0.950 . S
C793 C792 1.349 . S
C793 C809 1.349 . S
C794 C792 1.327 . S
C794 C813 1.429 . S
C794 H818 0.950 . S
C795 C812 1.574 . S
C795 C814 1.368 . S
C795 H819 0.949 . S
H796 C800 0.949 . S
C797 C798 1.349 . S
C797 C799 1.327 . S
C797 H820 0.950 . S
C798 C797 1.349 . S
C798 C810 1.349 . S
C799 C797 1.327 . S
C799 C815 1.429 . S
C799 H821 0.950 . S
C800 H796 0.949 . S
C800 C808 1.574 . S
C800 C816 1.368 . S
H801 C809 0.950 . S
H802 C807 0.950 . S
H803 C808 0.949 . S
H804 C810 0.950 . S
H805 C811 0.950 . S
H806 C812 0.949 . S
C807 H802 0.950 . S
C807 C809 1.327 . S
C807 C813 1.429 . S
C808 C800 1.574 . S
C808 H803 0.949 . S
C808 C814 1.368 . S
C809 C793 1.349 . S
C809 H801 0.950 . S
C809 C807 1.327 . S
C810 C798 1.349 . S
C810 H804 0.950 . S
C810 C811 1.327 . S
C811 H805 0.950 . S
C811 C810 1.327 . S
C811 C815 1.429 . S
C812 C795 1.574 . S
C812 H806 0.949 . S
C812 C816 1.368 . S
C813 C794 1.429 . S
C813 C807 1.429 . S
C813 C814 1.523 . S
C814 C795 1.368 . S
C814 C808 1.368 . S
C814 C813 1.523 . S
C815 C799 1.429 . S
C815 C811 1.429 . S
C815 C816 1.523 . S
C816 C800 1.368 . S
C816 C812 1.368 . S
C816 C815 1.523 . S
H817 C792 0.950 . S
H818 C794 0.950 . S
H819 C795 0.949 . S
H820 C797 0.950 . S
H821 C799 0.950 . S
C822 C823 1.349 . S
C822 C824 1.327 . S
C822 H847 0.950 . S
C823 C822 1.349 . S
C823 C839 1.349 . S
C824 C822 1.327 . S
C824 C843 1.429 . S
C824 H848 0.950 . S
C825 C842 1.574 . S
C825 C844 1.368 . S
C825 H849 0.949 . S
H826 C830 0.949 . S
C827 C828 1.349 . S
C827 C829 1.327 . S
C827 H850 0.950 . S
C828 C827 1.349 . S
C828 C840 1.349 . S
C829 C827 1.327 . S
C829 C845 1.429 . S
C829 H851 0.950 . S
C830 H826 0.949 . S
C830 C838 1.574 . S
C830 C846 1.368 . S
H831 C839 0.950 . S
H832 C837 0.950 . S
H833 C838 0.949 . S
H834 C840 0.950 . S
H835 C841 0.950 . S
H836 C842 0.949 . S
C837 H832 0.950 . S
C837 C839 1.327 . S
C837 C843 1.429 . S
C838 C830 1.574 . S
C838 H833 0.949 . S
C838 C844 1.368 . S
C839 C823 1.349 . S
C839 H831 0.950 . S
C839 C837 1.327 . S
C840 C828 1.349 . S
C840 H834 0.950 . S
C840 C841 1.327 . S
C841 H835 0.950 . S
C841 C840 1.327 . S
C841 C845 1.429 . S
C842 C825 1.574 . S
C842 H836 0.949 . S
C842 C846 1.368 . S
C843 C824 1.429 . S
C843 C837 1.429 . S
C843 C844 1.523 . S
C844 C825 1.368 . S
C844 C838 1.368 . S
C844 C843 1.523 . S
C845 C829 1.429 . S
C845 C841 1.429 . S
C845 C846 1.523 . S
C846 C830 1.368 . S
C846 C842 1.368 . S
C846 C845 1.523 . S
H847 C822 0.950 . S
H848 C824 0.950 . S
H849 C825 0.949 . S
H850 C827 0.950 . S
H851 C829 0.950 . S
C852 C853 1.349 . S
C852 C854 1.327 . S
C852 H877 0.950 . S
C853 C852 1.349 . S
C853 C869 1.349 . S
C854 C852 1.327 . S
C854 C873 1.429 . S
C854 H878 0.950 . S
C855 C872 1.574 . S
C855 C874 1.368 . S
C855 H879 0.949 . S
H856 C860 0.949 . S
C857 C858 1.349 . S
C857 C859 1.327 . S
C857 H880 0.950 . S
C858 C857 1.349 . S
C858 C870 1.349 . S
C859 C857 1.327 . S
C859 C875 1.429 . S
C859 H881 0.950 . S
C860 H856 0.949 . S
C860 C868 1.574 . S
C860 C876 1.368 . S
H861 C869 0.950 . S
H862 C867 0.950 . S
H863 C868 0.949 . S
H864 C870 0.950 . S
H865 C871 0.950 . S
H866 C872 0.949 . S
C867 H862 0.950 . S
C867 C869 1.327 . S
C867 C873 1.429 . S
C868 C860 1.574 . S
C868 H863 0.949 . S
C868 C874 1.368 . S
C869 C853 1.349 . S
C869 H861 0.950 . S
C869 C867 1.327 . S
C870 C858 1.349 . S
C870 H864 0.950 . S
C870 C871 1.327 . S
C871 H865 0.950 . S
C871 C870 1.327 . S
C871 C875 1.429 . S
C872 C855 1.574 . S
C872 H866 0.949 . S
C872 C876 1.368 . S
C873 C854 1.429 . S
C873 C867 1.429 . S
C873 C874 1.523 . S
C874 C855 1.368 . S
C874 C868 1.368 . S
C874 C873 1.523 . S
C875 C859 1.429 . S
C875 C871 1.429 . S
C875 C876 1.523 . S
C876 C860 1.368 . S
C876 C872 1.368 . S
C876 C875 1.523 . S
H877 C852 0.950 . S
H878 C854 0.950 . S
H879 C855 0.949 . S
H880 C857 0.950 . S
H881 C859 0.950 . S
C882 C883 1.349 . S
C882 C884 1.327 . S
C882 H907 0.950 . S
C883 C882 1.349 . S
C883 C899 1.349 . S
C884 C882 1.327 . S
C884 C903 1.429 . S
C884 H908 0.950 . S
C885 C902 1.574 . S
C885 C904 1.368 . S
C885 H909 0.949 . S
H886 C890 0.949 . S
C887 C888 1.349 . S
C887 C889 1.327 . S
C887 H910 0.950 . S
C888 C887 1.349 . S
C888 C900 1.349 . S
C889 C887 1.327 . S
C889 C905 1.429 . S
C889 H911 0.950 . S
C890 H886 0.949 . S
C890 C898 1.574 . S
C890 C906 1.368 . S
H891 C899 0.950 . S
H892 C897 0.950 . S
H893 C898 0.949 . S
H894 C900 0.950 . S
H895 C901 0.950 . S
H896 C902 0.949 . S
C897 H892 0.950 . S
C897 C899 1.327 . S
C897 C903 1.429 . S
C898 C890 1.574 . S
C898 H893 0.949 . S
C898 C904 1.368 . S
C899 C883 1.349 . S
C899 H891 0.950 . S
C899 C897 1.327 . S
C900 C888 1.349 . S
C900 H894 0.950 . S
C900 C901 1.327 . S
C901 H895 0.950 . S
C901 C900 1.327 . S
C901 C905 1.429 . S
C902 C885 1.574 . S
C902 H896 0.949 . S
C902 C906 1.368 . S
C903 C884 1.429 . S
C903 C897 1.429 . S
C903 C904 1.523 . S
C904 C885 1.368 . S
C904 C898 1.368 . S
C904 C903 1.523 . S
C905 C889 1.429 . S
C905 C901 1.429 . S
C905 C906 1.523 . S
C906 C890 1.368 . S
C906 C902 1.368 . S
C906 C905 1.523 . S
H907 C882 0.950 . S
H908 C884 0.950 . S
H909 C885 0.949 . S
H910 C887 0.950 . S
H911 C889 0.950 . S
C912 C913 1.349 . S
C912 C914 1.327 . S
C912 H937 0.950 . S
C913 C912 1.349 . S
C913 C929 1.349 . S
C914 C912 1.327 . S
C914 C933 1.429 . S
C914 H938 0.950 . S
C915 C932 1.574 . S
C915 C934 1.368 . S
C915 H939 0.949 . S
H916 C920 0.949 . S
C917 C918 1.349 . S
C917 C919 1.327 . S
C917 H940 0.950 . S
C918 C917 1.349 . S
C918 C930 1.349 . S
C919 C917 1.327 . S
C919 C935 1.429 . S
C919 H941 0.950 . S
C920 H916 0.949 . S
C920 C928 1.574 . S
C920 C936 1.368 . S
H921 C929 0.950 . S
H922 C927 0.950 . S
H923 C928 0.949 . S
H924 C930 0.950 . S
H925 C931 0.950 . S
H926 C932 0.949 . S
C927 H922 0.950 . S
C927 C929 1.327 . S
C927 C933 1.429 . S
C928 C920 1.574 . S
C928 H923 0.949 . S
C928 C934 1.368 . S
C929 C913 1.349 . S
C929 H921 0.950 . S
C929 C927 1.327 . S
C930 C918 1.349 . S
C930 H924 0.950 . S
C930 C931 1.327 . S
C931 H925 0.950 . S
C931 C930 1.327 . S
C931 C935 1.429 . S
C932 C915 1.574 . S
C932 H926 0.949 . S
C932 C936 1.368 . S
C933 C914 1.429 . S
C933 C927 1.429 . S
C933 C934 1.523 . S
C934 C915 1.368 . S
C934 C928 1.368 . S
C934 C933 1.523 . S
C935 C919 1.429 . S
C935 C931 1.429 . S
C935 C936 1.523 . S
C936 C920 1.368 . S
C936 C932 1.368 . S
C936 C935 1.523 . S
H937 C912 0.950 . S
H938 C914 0.950 . S
H939 C915 0.949 . S
H940 C917 0.950 . S
H941 C919 0.950 . S
C942 C943 1.349 . S
C942 C944 1.327 . S
C942 H967 0.950 . S
C943 C942 1.349 . S
C943 C959 1.349 . S
C944 C942 1.327 . S
C944 C963 1.429 . S
C944 H968 0.950 . S
C945 C962 1.574 . S
C945 C964 1.368 . S
C945 H969 0.949 . S
H946 C950 0.949 . S
C947 C948 1.349 . S
C947 C949 1.327 . S
C947 H970 0.950 . S
C948 C947 1.349 . S
C948 C960 1.349 . S
C949 C947 1.327 . S
C949 C965 1.429 . S
C949 H971 0.950 . S
C950 H946 0.949 . S
C950 C958 1.574 . S
C950 C966 1.368 . S
H951 C959 0.950 . S
H952 C957 0.950 . S
H953 C958 0.949 . S
H954 C960 0.950 . S
H955 C961 0.950 . S
H956 C962 0.949 . S
C957 H952 0.950 . S
C957 C959 1.327 . S
C957 C963 1.429 . S
C958 C950 1.574 . S
C958 H953 0.949 . S
C958 C964 1.368 . S
C959 C943 1.349 . S
C959 H951 0.950 . S
C959 C957 1.327 . S
C960 C948 1.349 . S
C960 H954 0.950 . S
C960 C961 1.327 . S
C961 H955 0.950 . S
C961 C960 1.327 . S
C961 C965 1.429 . S
C962 C945 1.574 . S
C962 H956 0.949 . S
C962 C966 1.368 . S
C963 C944 1.429 . S
C963 C957 1.429 . S
C963 C964 1.523 . S
C964 C945 1.368 . S
C964 C958 1.368 . S
C964 C963 1.523 . S
C965 C949 1.429 . S
C965 C961 1.429 . S
C965 C966 1.523 . S
C966 C950 1.368 . S
C966 C962 1.368 . S
C966 C965 1.523 . S
H967 C942 0.950 . S
H968 C944 0.950 . S
H969 C945 0.949 . S
H970 C947 0.950 . S
H971 C949 0.950 . S
C972 C973 1.349 . S
C972 C974 1.327 . S
C972 H997 0.950 . S
C973 C972 1.349 . S
C973 C989 1.349 . S
C974 C972 1.327 . S
C974 C993 1.429 . S
C974 H998 0.950 . S
C975 C992 1.574 . S
C975 C994 1.368 . S
C975 H999 0.949 . S
H976 C980 0.949 . S
C977 C978 1.349 . S
C977 C979 1.327 . S
C977 H1000 0.950 . S
C978 C977 1.349 . S
C978 C990 1.349 . S
C979 C977 1.327 . S
C979 C995 1.429 . S
C979 H1001 0.950 . S
C980 H976 0.949 . S
C980 C988 1.574 . S
C980 C996 1.368 . S
H981 C989 0.950 . S
H982 C987 0.950 . S
H983 C988 0.949 . S
H984 C990 0.950 . S
H985 C991 0.950 . S
H986 C992 0.949 . S
C987 H982 0.950 . S
C987 C989 1.327 . S
C987 C993 1.429 . S
C988 C980 1.574 . S
C988 H983 0.949 . S
C988 C994 1.368 . S
C989 C973 1.349 . S
C989 H981 0.950 . S
C989 C987 1.327 . S
C990 C978 1.349 . S
C990 H984 0.950 . S
C990 C991 1.327 . S
C991 H985 0.950 . S
C991 C990 1.327 . S
C991 C995 1.429 . S
C992 C975 1.574 . S
C992 H986 0.949 . S
C992 C996 1.368 . S
C993 C974 1.429 . S
C993 C987 1.429 . S
C993 C994 1.523 . S
C994 C975 1.368 . S
C994 C988 1.368 . S
C994 C993 1.523 . S
C995 C979 1.429 . S
C995 C991 1.429 . S
C995 C996 1.523 . S
C996 C980 1.368 . S
C996 C992 1.368 . S
C996 C995 1.523 . S
H997 C972 0.950 . S
H998 C974 0.950 . S
H999 C975 0.949 . S
H1000 C977 0.950 . S
H1001 C979 0.950 . S
C1002 C1003 1.349 . S
C1002 C1004 1.327 . S
C1002 H1027 0.950 . S
C1003 C1002 1.349 . S
C1003 C1019 1.349 . S
C1004 C1002 1.327 . S
C1004 C1023 1.429 . S
C1004 H1028 0.950 . S
C1005 C1022 1.574 . S
C1005 C1024 1.368 . S
C1005 H1029 0.949 . S
H1006 C1010 0.949 . S
C1007 C1008 1.349 . S
C1007 C1009 1.327 . S
C1007 H1030 0.950 . S
C1008 C1007 1.349 . S
C1008 C1020 1.349 . S
C1009 C1007 1.327 . S
C1009 C1025 1.429 . S
C1009 H1031 0.950 . S
C1010 H1006 0.949 . S
C1010 C1018 1.574 . S
C1010 C1026 1.368 . S
H1011 C1019 0.950 . S
H1012 C1017 0.950 . S
H1013 C1018 0.949 . S
H1014 C1020 0.950 . S
H1015 C1021 0.950 . S
H1016 C1022 0.949 . S
C1017 H1012 0.950 . S
C1017 C1019 1.327 . S
C1017 C1023 1.429 . S
C1018 C1010 1.574 . S
C1018 H1013 0.949 . S
C1018 C1024 1.368 . S
C1019 C1003 1.349 . S
C1019 H1011 0.950 . S
C1019 C1017 1.327 . S
C1020 C1008 1.349 . S
C1020 H1014 0.950 . S
C1020 C1021 1.327 . S
C1021 H1015 0.950 . S
C1021 C1020 1.327 . S
C1021 C1025 1.429 . S
C1022 C1005 1.574 . S
C1022 H1016 0.949 . S
C1022 C1026 1.368 . S
C1023 C1004 1.429 . S
C1023 C1017 1.429 . S
C1023 C1024 1.523 . S
C1024 C1005 1.368 . S
C1024 C1018 1.368 . S
C1024 C1023 1.523 . S
C1025 C1009 1.429 . S
C1025 C1021 1.429 . S
C1025 C1026 1.523 . S
C1026 C1010 1.368 . S
C1026 C1022 1.368 . S
C1026 C1025 1.523 . S
H1027 C1002 0.950 . S
H1028 C1004 0.950 . S
H1029 C1005 0.949 . S
H1030 C1007 0.950 . S
H1031 C1009 0.950 . S
C1032 C1033 1.349 . S
C1032 C1034 1.327 . S
C1032 H1057 0.950 . S
C1033 C1032 1.349 . S
C1033 C1049 1.349 . S
C1034 C1032 1.327 . S
C1034 C1053 1.429 . S
C1034 H1058 0.950 . S
C1035 C1052 1.574 . S
C1035 C1054 1.368 . S
C1035 H1059 0.949 . S
H1036 C1040 0.949 . S
C1037 C1038 1.349 . S
C1037 C1039 1.327 . S
C1037 H1060 0.950 . S
C1038 C1037 1.349 . S
C1038 C1050 1.349 . S
C1039 C1037 1.327 . S
C1039 C1055 1.429 . S
C1039 H1061 0.950 . S
C1040 H1036 0.949 . S
C1040 C1048 1.574 . S
C1040 C1056 1.368 . S
H1041 C1049 0.950 . S
H1042 C1047 0.950 . S
H1043 C1048 0.949 . S
H1044 C1050 0.950 . S
H1045 C1051 0.950 . S
H1046 C1052 0.949 . S
C1047 H1042 0.950 . S
C1047 C1049 1.327 . S
C1047 C1053 1.429 . S
C1048 C1040 1.574 . S
C1048 H1043 0.949 . S
C1048 C1054 1.368 . S
C1049 C1033 1.349 . S
C1049 H1041 0.950 . S
C1049 C1047 1.327 . S
C1050 C1038 1.349 . S
C1050 H1044 0.950 . S
C1050 C1051 1.327 . S
C1051 H1045 0.950 . S
C1051 C1050 1.327 . S
C1051 C1055 1.429 . S
C1052 C1035 1.574 . S
C1052 H1046 0.949 . S
C1052 C1056 1.368 . S
C1053 C1034 1.429 . S
C1053 C1047 1.429 . S
C1053 C1054 1.523 . S
C1054 C1035 1.368 . S
C1054 C1048 1.368 . S
C1054 C1053 1.523 . S
C1055 C1039 1.429 . S
C1055 C1051 1.429 . S
C1055 C1056 1.523 . S
C1056 C1040 1.368 . S
C1056 C1052 1.368 . S
C1056 C1055 1.523 . S
H1057 C1032 0.950 . S
H1058 C1034 0.950 . S
H1059 C1035 0.949 . S
H1060 C1037 0.950 . S
H1061 C1039 0.950 . S
C1062 C1063 1.349 . S
C1062 C1064 1.327 . S
C1062 H1087 0.950 . S
C1063 C1062 1.349 . S
C1063 C1079 1.349 . S
C1064 C1062 1.327 . S
C1064 C1083 1.429 . S
C1064 H1088 0.950 . S
C1065 C1082 1.574 . S
C1065 C1084 1.368 . S
C1065 H1089 0.949 . S
H1066 C1070 0.949 . S
C1067 C1068 1.349 . S
C1067 C1069 1.327 . S
C1067 H1090 0.950 . S
C1068 C1067 1.349 . S
C1068 C1080 1.349 . S
C1069 C1067 1.327 . S
C1069 C1085 1.429 . S
C1069 H1091 0.950 . S
C1070 H1066 0.949 . S
C1070 C1078 1.574 . S
C1070 C1086 1.368 . S
H1071 C1079 0.950 . S
H1072 C1077 0.950 . S
H1073 C1078 0.949 . S
H1074 C1080 0.950 . S
H1075 C1081 0.950 . S
H1076 C1082 0.949 . S
C1077 H1072 0.950 . S
C1077 C1079 1.327 . S
C1077 C1083 1.429 . S
C1078 C1070 1.574 . S
C1078 H1073 0.949 . S
C1078 C1084 1.368 . S
C1079 C1063 1.349 . S
C1079 H1071 0.950 . S
C1079 C1077 1.327 . S
C1080 C1068 1.349 . S
C1080 H1074 0.950 . S
C1080 C1081 1.327 . S
C1081 H1075 0.950 . S
C1081 C1080 1.327 . S
C1081 C1085 1.429 . S
C1082 C1065 1.574 . S
C1082 H1076 0.949 . S
C1082 C1086 1.368 . S
C1083 C1064 1.429 . S
C1083 C1077 1.429 . S
C1083 C1084 1.523 . S
C1084 C1065 1.368 . S
C1084 C1078 1.368 . S
C1084 C1083 1.523 . S
C1085 C1069 1.429 . S
C1085 C1081 1.429 . S
C1085 C1086 1.523 . S
C1086 C1070 1.368 . S
C1086 C1082 1.368 . S
C1086 C1085 1.523 . S
H1087 C1062 0.950 . S
H1088 C1064 0.950 . S
H1089 C1065 0.949 . S
H1090 C1067 0.950 . S
H1091 C1069 0.950 . S
C1092 C1093 1.349 . S
C1092 C1094 1.327 . S
C1092 H1117 0.950 . S
C1093 C1092 1.349 . S
C1093 C1109 1.349 . S
C1094 C1092 1.327 . S
C1094 C1113 1.429 . S
C1094 H1118 0.950 . S
C1095 C1112 1.574 . S
C1095 C1114 1.368 . S
C1095 H1119 0.949 . S
H1096 C1100 0.949 . S
C1097 C1098 1.349 . S
C1097 C1099 1.327 . S
C1097 H1120 0.950 . S
C1098 C1097 1.349 . S
C1098 C1110 1.349 . S
C1099 C1097 1.327 . S
C1099 C1115 1.429 . S
C1099 H1121 0.950 . S
C1100 H1096 0.949 . S
C1100 C1108 1.574 . S
C1100 C1116 1.368 . S
H1101 C1109 0.950 . S
H1102 C1107 0.950 . S
H1103 C1108 0.949 . S
H1104 C1110 0.950 . S
H1105 C1111 0.950 . S
H1106 C1112 0.949 . S
C1107 H1102 0.950 . S
C1107 C1109 1.327 . S
C1107 C1113 1.429 . S
C1108 C1100 1.574 . S
C1108 H1103 0.949 . S
C1108 C1114 1.368 . S
C1109 C1093 1.349 . S
C1109 H1101 0.950 . S
C1109 C1107 1.327 . S
C1110 C1098 1.349 . S
C1110 H1104 0.950 . S
C1110 C1111 1.327 . S
C1111 H1105 0.950 . S
C1111 C1110 1.327 . S
C1111 C1115 1.429 . S
C1112 C1095 1.574 . S
C1112 H1106 0.949 . S
C1112 C1116 1.368 . S
C1113 C1094 1.429 . S
C1113 C1107 1.429 . S
C1113 C1114 1.523 . S
C1114 C1095 1.368 . S
C1114 C1108 1.368 . S
C1114 C1113 1.523 . S
C1115 C1099 1.429 . S
C1115 C1111 1.429 . S
C1115 C1116 1.523 . S
C1116 C1100 1.368 . S
C1116 C1112 1.368 . S
C1116 C1115 1.523 . S
H1117 C1092 0.950 . S
H1118 C1094 0.950 . S
H1119 C1095 0.949 . S
H1120 C1097 0.950 . S
H1121 C1099 0.950 . S
C1122 C1123 1.349 . S
C1122 C1124 1.327 . S
C1122 H1147 0.950 . S
C1123 C1122 1.349 . S
C1123 C1139 1.349 . S
C1124 C1122 1.327 . S
C1124 C1143 1.429 . S
C1124 H1148 0.950 . S
C1125 C1142 1.574 . S
C1125 C1144 1.368 . S
C1125 H1149 0.949 . S
H1126 C1130 0.949 . S
C1127 C1128 1.349 . S
C1127 C1129 1.327 . S
C1127 H1150 0.950 . S
C1128 C1127 1.349 . S
C1128 C1140 1.349 . S
C1129 C1127 1.327 . S
C1129 C1145 1.429 . S
C1129 H1151 0.950 . S
C1130 H1126 0.949 . S
C1130 C1138 1.574 . S
C1130 C1146 1.368 . S
H1131 C1139 0.950 . S
H1132 C1137 0.950 . S
H1133 C1138 0.949 . S
H1134 C1140 0.950 . S
H1135 C1141 0.950 . S
H1136 C1142 0.949 . S
C1137 H1132 0.950 . S
C1137 C1139 1.327 . S
C1137 C1143 1.429 . S
C1138 C1130 1.574 . S
C1138 H1133 0.949 . S
C1138 C1144 1.368 . S
C1139 C1123 1.349 . S
C1139 H1131 0.950 . S
C1139 C1137 1.327 . S
C1140 C1128 1.349 . S
C1140 H1134 0.950 . S
C1140 C1141 1.327 . S
C1141 H1135 0.950 . S
C1141 C1140 1.327 . S
C1141 C1145 1.429 . S
C1142 C1125 1.574 . S
C1142 H1136 0.949 . S
C1142 C1146 1.368 . S
C1143 C1124 1.429 . S
C1143 C1137 1.429 . S
C1143 C1144 1.523 . S
C1144 C1125 1.368 . S
C1144 C1138 1.368 . S
C1144 C1143 1.523 . S
C1145 C1129 1.429 . S
C1145 C1141 1.429 . S
C1145 C1146 1.523 . S
C1146 C1130 1.368 . S
C1146 C1142 1.368 . S
C1146 C1145 1.523 . S
H1147 C1122 0.950 . S
H1148 C1124 0.950 . S
H1149 C1125 0.949 . S
H1150 C1127 0.950 . S
H1151 C1129 0.950 . S
C1152 C1153 1.349 . S
C1152 C1154 1.327 . S
C1152 H1177 0.950 . S
C1153 C1152 1.349 . S
C1153 C1169 1.349 . S
C1154 C1152 1.327 . S
C1154 C1173 1.429 . S
C1154 H1178 0.950 . S
C1155 C1172 1.574 . S
C1155 C1174 1.368 1_545 S
C1155 H1179 0.926 1_545 S
H1156 C1160 0.949 . S
C1157 C1158 1.349 . S
C1157 C1159 1.327 . S
C1157 H1180 0.950 . S
C1158 C1157 1.349 . S
C1158 C1170 1.349 . S
C1159 C1157 1.327 . S
C1159 C1175 1.429 . S
C1159 H1181 0.950 . S
C1160 H1156 0.949 . S
C1160 C1168 1.574 . S
C1160 C1176 1.368 . S
H1161 C1169 0.950 . S
H1162 C1167 0.950 . S
H1163 C1168 0.949 1_565 S
H1164 C1170 0.950 . S
H1165 C1171 0.950 . S
H1166 C1172 0.949 . S
C1167 H1162 0.950 . S
C1167 C1169 1.327 . S
C1167 C1173 1.429 . S
C1168 C1160 1.574 . S
C1168 H1163 0.949 1_545 S
C1168 C1174 1.368 1_545 S
C1169 C1153 1.349 . S
C1169 H1161 0.950 . S
C1169 C1167 1.327 . S
C1170 C1158 1.349 . S
C1170 H1164 0.950 . S
C1170 C1171 1.327 . S
C1171 H1165 0.950 . S
C1171 C1170 1.327 . S
C1171 C1175 1.429 . S
C1172 C1155 1.574 . S
C1172 H1166 0.949 . S
C1172 C1176 1.368 . S
C1173 C1154 1.429 . S
C1173 C1167 1.429 . S
C1173 C1174 1.523 . S
C1174 C1155 1.368 1_565 S
C1174 C1168 1.368 1_565 S
C1174 C1173 1.523 . S
C1175 C1159 1.429 . S
C1175 C1171 1.429 . S
C1175 C1176 1.523 . S
C1176 C1160 1.368 . S
C1176 C1172 1.368 . S
C1176 C1175 1.523 . S
H1177 C1152 0.950 . S
H1178 C1154 0.950 . S
H1179 C1155 0.926 1_565 S
H1180 C1157 0.950 . S
H1181 C1159 0.950 . S
C1182 C1183 1.349 . S
C1182 C1184 1.327 . S
C1182 H1207 0.950 . S
C1183 C1182 1.349 . S
C1183 C1199 1.349 . S
C1184 C1182 1.327 . S
C1184 C1203 1.429 . S
C1184 H1208 0.950 . S
C1185 C1202 1.574 . S
C1185 C1204 1.368 . S
C1185 H1209 0.949 . S
H1186 C1190 0.949 1_455 S
C1187 C1188 1.349 . S
C1187 C1189 1.327 . S
C1187 H1210 0.950 . S
C1188 C1187 1.349 . S
C1188 C1200 1.349 . S
C1189 C1187 1.327 . S
C1189 C1205 1.429 . S
C1189 H1211 0.950 . S
C1190 H1186 0.949 1_655 S
C1190 C1198 1.574 . S
C1190 C1206 1.368 1_655 S
H1191 C1199 0.950 . S
H1192 C1197 0.950 . S
H1193 C1198 0.949 . S
H1194 C1200 0.950 . S
H1195 C1201 0.950 . S
H1196 C1202 0.949 1_455 S
C1197 H1192 0.950 . S
C1197 C1199 1.327 . S
C1197 C1203 1.429 . S
C1198 C1190 1.574 . S
C1198 H1193 0.949 . S
C1198 C1204 1.368 . S
C1199 C1183 1.349 . S
C1199 H1191 0.950 . S
C1199 C1197 1.327 . S
C1200 C1188 1.349 . S
C1200 H1194 0.950 . S
C1200 C1201 1.327 . S
C1201 H1195 0.950 . S
C1201 C1200 1.327 . S
C1201 C1205 1.429 . S
C1202 C1185 1.574 . S
C1202 H1196 0.949 1_655 S
C1202 C1206 1.368 1_655 S
C1203 C1184 1.429 . S
C1203 C1197 1.429 . S
C1203 C1204 1.523 . S
C1204 C1185 1.368 . S
C1204 C1198 1.368 . S
C1204 C1203 1.523 . S
C1205 C1189 1.429 . S
C1205 C1201 1.429 . S
C1205 C1206 1.523 . S
C1206 C1190 1.368 1_455 S
C1206 C1202 1.368 1_455 S
C1206 C1205 1.523 . S
H1207 C1182 0.950 . S
H1208 C1184 0.950 . S
H1209 C1185 0.949 . S
H1210 C1187 0.950 . S
H1211 C1189 0.950 . S
C1212 C1213 1.349 . S
C1212 C1214 1.327 . S
C1212 H1237 0.950 . S
C1213 C1212 1.349 . S
C1213 C1229 1.349 . S
C1214 C1212 1.327 . S
C1214 C1233 1.429 . S
C1214 H1238 0.950 . S
C1215 C1232 1.574 . S
C1215 C1234 1.368 . S
C1215 H1239 0.949 . S
H1216 C1220 0.949 1_545 S
C1217 C1218 1.349 . S
C1217 C1219 1.327 . S
C1217 H1240 0.950 . S
C1218 C1217 1.349 . S
C1218 C1230 1.349 . S
C1219 C1217 1.327 . S
C1219 C1235 1.429 . S
C1219 H1241 0.950 . S
C1220 H1216 0.949 1_565 S
C1220 C1228 1.574 . S
C1220 C1236 1.368 1_565 S
H1221 C1229 0.950 . S
H1222 C1227 0.950 . S
H1223 C1228 0.949 . S
H1224 C1230 0.950 . S
H1225 C1231 0.950 . S
H1226 C1232 0.949 1_545 S
C1227 H1222 0.950 . S
C1227 C1229 1.327 . S
C1227 C1233 1.429 . S
C1228 C1220 1.574 . S
C1228 H1223 0.949 . S
C1228 C1234 1.368 . S
C1229 C1213 1.349 . S
C1229 H1221 0.950 . S
C1229 C1227 1.327 . S
C1230 C1218 1.349 . S
C1230 H1224 0.950 . S
C1230 C1231 1.327 . S
C1231 H1225 0.950 . S
C1231 C1230 1.327 . S
C1231 C1235 1.429 . S
C1232 C1215 1.574 . S
C1232 H1226 0.949 1_565 S
C1232 C1236 1.368 1_565 S
C1233 C1214 1.429 . S
C1233 C1227 1.429 . S
C1233 C1234 1.523 . S
C1234 C1215 1.368 . S
C1234 C1228 1.368 . S
C1234 C1233 1.523 . S
C1235 C1219 1.429 . S
C1235 C1231 1.429 . S
C1235 C1236 1.523 . S
C1236 C1220 1.368 1_545 S
C1236 C1232 1.368 1_545 S
C1236 C1235 1.523 . S
H1237 C1212 0.950 . S
H1238 C1214 0.950 . S
H1239 C1215 0.949 . S
H1240 C1217 0.950 . S
H1241 C1219 0.950 . S
C1242 C1243 1.349 . S
C1242 C1244 1.327 . S
C1242 H1267 0.950 . S
C1243 C1242 1.349 . S
C1243 C1259 1.349 . S
C1244 C1242 1.327 . S
C1244 C1263 1.429 . S
C1244 H1268 0.950 . S
C1245 C1262 1.574 . S
C1245 C1264 1.368 1_455 S
C1245 H1269 0.949 1_455 S
H1246 C1250 0.949 . S
C1247 C1248 1.349 . S
C1247 C1249 1.327 . S
C1247 H1270 0.950 . S
C1248 C1247 1.349 . S
C1248 C1260 1.349 . S
C1249 C1247 1.327 . S
C1249 C1265 1.429 . S
C1249 H1271 0.950 . S
C1250 H1246 0.949 . S
C1250 C1258 1.574 . S
C1250 C1266 1.368 . S
H1251 C1259 0.950 . S
H1252 C1257 0.950 . S
H1253 C1258 0.949 1_655 S
H1254 C1260 0.950 . S
H1255 C1261 0.950 . S
H1256 C1262 0.949 . S
C1257 H1252 0.950 . S
C1257 C1259 1.327 . S
C1257 C1263 1.429 . S
C1258 C1250 1.574 . S
C1258 H1253 0.949 1_455 S
C1258 C1264 1.368 1_455 S
C1259 C1243 1.349 . S
C1259 H1251 0.950 . S
C1259 C1257 1.327 . S
C1260 C1248 1.349 . S
C1260 H1254 0.950 . S
C1260 C1261 1.327 . S
C1261 H1255 0.950 . S
C1261 C1260 1.327 . S
C1261 C1265 1.429 . S
C1262 C1245 1.574 . S
C1262 H1256 0.949 . S
C1262 C1266 1.368 . S
C1263 C1244 1.429 . S
C1263 C1257 1.429 . S
C1263 C1264 1.523 . S
C1264 C1245 1.368 1_655 S
C1264 C1258 1.368 1_655 S
C1264 C1263 1.523 . S
C1265 C1249 1.429 . S
C1265 C1261 1.429 . S
C1265 C1266 1.523 . S
C1266 C1250 1.368 . S
C1266 C1262 1.368 . S
C1266 C1265 1.523 . S
H1267 C1242 0.950 . S
H1268 C1244 0.950 . S
H1269 C1245 0.949 1_655 S
H1270 C1247 0.950 . S
H1271 C1249 0.950 . S
C1272 C1273 1.349 . S
C1272 C1274 1.327 . S
C1272 H1297 0.950 . S
C1273 C1272 1.349 . S
C1273 C1289 1.349 . S
C1274 C1272 1.327 . S
C1274 C1293 1.429 . S
C1274 H1298 0.950 . S
C1275 C1292 1.574 . S
C1275 C1294 1.368 1_565 S
C1275 H1299 0.949 1_565 S
H1276 C1280 0.949 . S
C1277 C1278 1.349 . S
C1277 C1279 1.327 . S
C1277 H1300 0.950 . S
C1278 C1277 1.349 . S
C1278 C1290 1.349 . S
C1279 C1277 1.327 . S
C1279 C1295 1.429 . S
C1279 H1301 0.950 . S
C1280 H1276 0.949 . S
C1280 C1288 1.574 . S
C1280 C1296 1.368 . S
H1281 C1289 0.950 . S
H1282 C1287 0.950 . S
H1283 C1288 0.923 1_545 S
H1284 C1290 0.950 . S
H1285 C1291 0.950 . S
H1286 C1292 0.949 . S
C1287 H1282 0.950 . S
C1287 C1289 1.327 . S
C1287 C1293 1.429 . S
C1288 C1280 1.574 . S
C1288 H1283 0.923 1_565 S
C1288 C1294 1.368 1_565 S
C1289 C1273 1.349 . S
C1289 H1281 0.950 . S
C1289 C1287 1.327 . S
C1290 C1278 1.349 . S
C1290 H1284 0.950 . S
C1290 C1291 1.327 . S
C1291 H1285 0.950 . S
C1291 C1290 1.327 . S
C1291 C1295 1.429 . S
C1292 C1275 1.574 . S
C1292 H1286 0.949 . S
C1292 C1296 1.368 . S
C1293 C1274 1.429 . S
C1293 C1287 1.429 . S
C1293 C1294 1.523 . S
C1294 C1275 1.368 1_545 S
C1294 C1288 1.368 1_545 S
C1294 C1293 1.523 . S
C1295 C1279 1.429 . S
C1295 C1291 1.429 . S
C1295 C1296 1.523 . S
C1296 C1280 1.368 . S
C1296 C1292 1.368 . S
C1296 C1295 1.523 . S
H1297 C1272 0.950 . S
H1298 C1274 0.950 . S
H1299 C1275 0.949 1_545 S
H1300 C1277 0.950 . S
H1301 C1279 0.950 . S
C1302 C1303 1.349 . S
C1302 C1304 1.327 . S
C1302 H1327 0.950 . S
C1303 C1302 1.349 . S
C1303 C1319 1.349 . S
C1304 C1302 1.327 . S
C1304 C1323 1.429 . S
C1304 H1328 0.950 . S
C1305 C1322 1.574 . S
C1305 C1324 1.368 . S
C1305 H1329 0.949 . S
H1306 C1310 0.949 1_655 S
C1307 C1308 1.349 . S
C1307 C1309 1.327 . S
C1307 H1330 0.950 . S
C1308 C1307 1.349 . S
C1308 C1320 1.349 . S
C1309 C1307 1.327 . S
C1309 C1325 1.429 . S
C1309 H1331 0.950 . S
C1310 H1306 0.949 1_455 S
C1310 C1318 1.574 . S
C1310 C1326 1.368 1_455 S
H1311 C1319 0.950 . S
H1312 C1317 0.950 . S
H1313 C1318 0.949 . S
H1314 C1320 0.950 . S
H1315 C1321 0.950 . S
H1316 C1322 0.949 1_655 S
C1317 H1312 0.950 . S
C1317 C1319 1.327 . S
C1317 C1323 1.429 . S
C1318 C1310 1.574 . S
C1318 H1313 0.949 . S
C1318 C1324 1.368 . S
C1319 C1303 1.349 . S
C1319 H1311 0.950 . S
C1319 C1317 1.327 . S
C1320 C1308 1.349 . S
C1320 H1314 0.950 . S
C1320 C1321 1.327 . S
C1321 H1315 0.950 . S
C1321 C1320 1.327 . S
C1321 C1325 1.429 . S
C1322 C1305 1.574 . S
C1322 H1316 0.949 1_455 S
C1322 C1326 1.368 1_455 S
C1323 C1304 1.429 . S
C1323 C1317 1.429 . S
C1323 C1324 1.523 . S
C1324 C1305 1.368 . S
C1324 C1318 1.368 . S
C1324 C1323 1.523 . S
C1325 C1309 1.429 . S
C1325 C1321 1.429 . S
C1325 C1326 1.523 . S
C1326 C1310 1.368 1_655 S
C1326 C1322 1.368 1_655 S
C1326 C1325 1.523 . S
H1327 C1302 0.950 . S
H1328 C1304 0.950 . S
H1329 C1305 0.949 . S
H1330 C1307 0.950 . S
H1331 C1309 0.950 . S
C1332 C1333 1.349 . S
C1332 C1334 1.327 . S
C1332 H1357 0.950 . S
C1333 C1332 1.349 . S
C1333 C1349 1.349 . S
C1334 C1332 1.327 . S
C1334 C1353 1.429 . S
C1334 H1358 0.950 . S
C1335 C1352 1.574 . S
C1335 C1354 1.368 1_545 S
C1335 H1359 0.924 1_545 S
H1336 C1340 0.949 . S
C1337 C1338 1.349 . S
C1337 C1339 1.327 . S
C1337 H1360 0.950 . S
C1338 C1337 1.349 . S
C1338 C1350 1.349 . S
C1339 C1337 1.327 . S
C1339 C1355 1.429 . S
C1339 H1361 0.950 . S
C1340 H1336 0.949 . S
C1340 C1348 1.574 . S
C1340 C1356 1.368 . S
H1341 C1349 0.950 . S
H1342 C1347 0.950 . S
H1343 C1348 0.949 1_565 S
H1344 C1350 0.950 . S
H1345 C1351 0.950 . S
H1346 C1352 0.949 . S
C1347 H1342 0.950 . S
C1347 C1349 1.327 . S
C1347 C1353 1.429 . S
C1348 C1340 1.574 . S
C1348 H1343 0.949 1_545 S
C1348 C1354 1.368 1_545 S
C1349 C1333 1.349 . S
C1349 H1341 0.950 . S
C1349 C1347 1.327 . S
C1350 C1338 1.349 . S
C1350 H1344 0.950 . S
C1350 C1351 1.327 . S
C1351 H1345 0.950 . S
C1351 C1350 1.327 . S
C1351 C1355 1.429 . S
C1352 C1335 1.574 . S
C1352 H1346 0.949 . S
C1352 C1356 1.368 . S
C1353 C1334 1.429 . S
C1353 C1347 1.429 . S
C1353 C1354 1.523 . S
C1354 C1335 1.368 1_565 S
C1354 C1348 1.368 1_565 S
C1354 C1353 1.523 . S
C1355 C1339 1.429 . S
C1355 C1351 1.429 . S
C1355 C1356 1.523 . S
C1356 C1340 1.368 . S
C1356 C1352 1.368 . S
C1356 C1355 1.523 . S
H1357 C1332 0.950 . S
H1358 C1334 0.950 . S
H1359 C1335 0.924 1_565 S
H1360 C1337 0.950 . S
H1361 C1339 0.950 . S
C1362 C1363 1.349 . S
C1362 C1364 1.327 . S
C1362 H1387 0.950 . S
C1363 C1362 1.349 . S
C1363 C1379 1.349 . S
C1364 C1362 1.327 . S
C1364 C1383 1.429 . S
C1364 H1388 0.950 . S
C1365 C1382 1.574 . S
C1365 C1384 1.368 1_655 S
C1365 H1389 0.949 1_655 S
H1366 C1370 0.949 . S
C1367 C1368 1.349 . S
C1367 C1369 1.327 . S
C1367 H1390 0.950 . S
C1368 C1367 1.349 . S
C1368 C1380 1.349 . S
C1369 C1367 1.327 . S
C1369 C1385 1.429 . S
C1369 H1391 0.950 . S
C1370 H1366 0.949 . S
C1370 C1378 1.574 . S
C1370 C1386 1.368 . S
H1371 C1379 0.950 . S
H1372 C1377 0.950 . S
H1373 C1378 0.949 1_455 S
H1374 C1380 0.950 . S
H1375 C1381 0.950 . S
H1376 C1382 0.949 . S
C1377 H1372 0.950 . S
C1377 C1379 1.327 . S
C1377 C1383 1.429 . S
C1378 C1370 1.574 . S
C1378 H1373 0.949 1_655 S
C1378 C1384 1.368 1_655 S
C1379 C1363 1.349 . S
C1379 H1371 0.950 . S
C1379 C1377 1.327 . S
C1380 C1368 1.349 . S
C1380 H1374 0.950 . S
C1380 C1381 1.327 . S
C1381 H1375 0.950 . S
C1381 C1380 1.327 . S
C1381 C1385 1.429 . S
C1382 C1365 1.574 . S
C1382 H1376 0.949 . S
C1382 C1386 1.368 . S
C1383 C1364 1.429 . S
C1383 C1377 1.429 . S
C1383 C1384 1.523 . S
C1384 C1365 1.368 1_455 S
C1384 C1378 1.368 1_455 S
C1384 C1383 1.523 . S
C1385 C1369 1.429 . S
C1385 C1381 1.429 . S
C1385 C1386 1.523 . S
C1386 C1370 1.368 . S
C1386 C1382 1.368 . S
C1386 C1385 1.523 . S
H1387 C1362 0.950 . S
H1388 C1364 0.950 . S
H1389 C1365 0.949 1_455 S
H1390 C1367 0.950 . S
H1391 C1369 0.950 . S
C1392 C1393 1.349 . S
C1392 C1394 1.327 . S
C1392 H1417 0.950 . S
C1393 C1392 1.349 . S
C1393 C1409 1.349 . S
C1394 C1392 1.327 . S
C1394 C1413 1.429 . S
C1394 H1418 0.950 . S
C1395 C1412 1.574 . S
C1395 C1414 1.368 1_554 S
C1395 H1419 0.949 1_554 S
H1396 C1400 0.949 . S
C1397 C1398 1.349 . S
C1397 C1399 1.327 . S
C1397 H1420 0.950 . S
C1398 C1397 1.349 . S
C1398 C1410 1.349 . S
C1399 C1397 1.327 . S
C1399 C1415 1.429 . S
C1399 H1421 0.950 . S
C1400 H1396 0.949 . S
C1400 C1408 1.574 . S
C1400 C1416 1.368 . S
H1401 C1409 0.950 . S
H1402 C1407 0.950 . S
H1403 C1408 0.949 1_556 S
H1404 C1410 0.950 . S
H1405 C1411 0.950 . S
H1406 C1412 0.949 . S
C1407 H1402 0.950 . S
C1407 C1409 1.327 . S
C1407 C1413 1.429 . S
C1408 C1400 1.574 . S
C1408 H1403 0.949 1_554 S
C1408 C1414 1.368 1_554 S
C1409 C1393 1.349 . S
C1409 H1401 0.950 . S
C1409 C1407 1.327 . S
C1410 C1398 1.349 . S
C1410 H1404 0.950 . S
C1410 C1411 1.327 . S
C1411 H1405 0.950 . S
C1411 C1410 1.327 . S
C1411 C1415 1.429 . S
C1412 C1395 1.574 . S
C1412 H1406 0.949 . S
C1412 C1416 1.368 . S
C1413 C1394 1.429 . S
C1413 C1407 1.429 . S
C1413 C1414 1.523 . S
C1414 C1395 1.368 1_556 S
C1414 C1408 1.368 1_556 S
C1414 C1413 1.523 . S
C1415 C1399 1.429 . S
C1415 C1411 1.429 . S
C1415 C1416 1.523 . S
C1416 C1400 1.368 . S
C1416 C1412 1.368 . S
C1416 C1415 1.523 . S
H1417 C1392 0.950 . S
H1418 C1394 0.950 . S
H1419 C1395 0.949 1_556 S
H1420 C1397 0.950 . S
H1421 C1399 0.950 . S
C1422 C1423 1.349 . S
C1422 C1424 1.327 . S
C1422 H1447 0.950 . S
C1423 C1422 1.349 . S
C1423 C1439 1.349 . S
C1424 C1422 1.327 . S
C1424 C1443 1.429 . S
C1424 H1448 0.950 . S
C1425 C1442 1.574 . S
C1425 C1444 1.368 . S
C1425 H1449 0.949 . S
H1426 C1430 0.949 1_556 S
C1427 C1428 1.349 . S
C1427 C1429 1.327 . S
C1427 H1450 0.950 . S
C1428 C1427 1.349 . S
C1428 C1440 1.349 . S
C1429 C1427 1.327 . S
C1429 C1445 1.429 . S
C1429 H1451 0.950 . S
C1430 H1426 0.949 1_554 S
C1430 C1438 1.574 . S
C1430 C1446 1.368 1_554 S
H1431 C1439 0.950 . S
H1432 C1437 0.950 . S
H1433 C1438 0.949 . S
H1434 C1440 0.950 . S
H1435 C1441 0.950 . S
H1436 C1442 0.949 1_556 S
C1437 H1432 0.950 . S
C1437 C1439 1.327 . S
C1437 C1443 1.429 . S
C1438 C1430 1.574 . S
C1438 H1433 0.949 . S
C1438 C1444 1.368 . S
C1439 C1423 1.349 . S
C1439 H1431 0.950 . S
C1439 C1437 1.327 . S
C1440 C1428 1.349 . S
C1440 H1434 0.950 . S
C1440 C1441 1.327 . S
C1441 H1435 0.950 . S
C1441 C1440 1.327 . S
C1441 C1445 1.429 . S
C1442 C1425 1.574 . S
C1442 H1436 0.949 1_554 S
C1442 C1446 1.368 1_554 S
C1443 C1424 1.429 . S
C1443 C1437 1.429 . S
C1443 C1444 1.523 . S
C1444 C1425 1.368 . S
C1444 C1438 1.368 . S
C1444 C1443 1.523 . S
C1445 C1429 1.429 . S
C1445 C1441 1.429 . S
C1445 C1446 1.523 . S
C1446 C1430 1.368 1_556 S
C1446 C1442 1.368 1_556 S
C1446 C1445 1.523 . S
H1447 C1422 0.950 . S
H1448 C1424 0.950 . S
H1449 C1425 0.949 . S
H1450 C1427 0.950 . S
H1451 C1429 0.950 . S
C1452 C1453 1.349 . S
C1452 C1454 1.327 . S
C1452 H1477 0.950 . S
C1453 C1452 1.349 . S
C1453 C1469 1.349 . S
C1454 C1452 1.327 . S
C1454 C1473 1.429 . S
C1454 H1478 0.950 . S
C1455 C1472 1.574 . S
C1455 C1474 1.368 1_554 S
C1455 H1479 0.949 1_554 S
H1456 C1460 0.949 . S
C1457 C1458 1.349 . S
C1457 C1459 1.327 . S
C1457 H1480 0.950 . S
C1458 C1457 1.349 . S
C1458 C1470 1.349 . S
C1459 C1457 1.327 . S
C1459 C1475 1.429 . S
C1459 H1481 0.950 . S
C1460 H1456 0.949 . S
C1460 C1468 1.574 . S
C1460 C1476 1.368 . S
H1461 C1469 0.950 . S
H1462 C1467 0.950 . S
H1463 C1468 0.949 1_556 S
H1464 C1470 0.950 . S
H1465 C1471 0.950 . S
H1466 C1472 0.949 . S
C1467 H1462 0.950 . S
C1467 C1469 1.327 . S
C1467 C1473 1.429 . S
C1468 C1460 1.574 . S
C1468 H1463 0.949 1_554 S
C1468 C1474 1.368 1_554 S
C1469 C1453 1.349 . S
C1469 H1461 0.950 . S
C1469 C1467 1.327 . S
C1470 C1458 1.349 . S
C1470 H1464 0.950 . S
C1470 C1471 1.327 . S
C1471 H1465 0.950 . S
C1471 C1470 1.327 . S
C1471 C1475 1.429 . S
C1472 C1455 1.574 . S
C1472 H1466 0.949 . S
C1472 C1476 1.368 . S
C1473 C1454 1.429 . S
C1473 C1467 1.429 . S
C1473 C1474 1.523 . S
C1474 C1455 1.368 1_556 S
C1474 C1468 1.368 1_556 S
C1474 C1473 1.523 . S
C1475 C1459 1.429 . S
C1475 C1471 1.429 . S
C1475 C1476 1.523 . S
C1476 C1460 1.368 . S
C1476 C1472 1.368 . S
C1476 C1475 1.523 . S
H1477 C1452 0.950 . S
H1478 C1454 0.950 . S
H1479 C1455 0.949 1_556 S
H1480 C1457 0.950 . S
H1481 C1459 0.950 . S
C1482 C1483 1.349 . S
C1482 C1484 1.327 . S
C1482 H1507 0.950 . S
C1483 C1482 1.349 . S
C1483 C1499 1.349 . S
C1484 C1482 1.327 . S
C1484 C1503 1.429 . S
C1484 H1508 0.950 . S
C1485 C1502 1.574 . S
C1485 C1504 1.368 . S
C1485 H1509 0.949 . S
H1486 C1490 0.949 1_556 S
C1487 C1488 1.349 . S
C1487 C1489 1.327 . S
C1487 H1510 0.950 . S
C1488 C1487 1.349 . S
C1488 C1500 1.349 . S
C1489 C1487 1.327 . S
C1489 C1505 1.429 . S
C1489 H1511 0.950 . S
C1490 H1486 0.949 1_554 S
C1490 C1498 1.574 . S
C1490 C1506 1.368 1_554 S
H1491 C1499 0.950 . S
H1492 C1497 0.950 . S
H1493 C1498 0.949 . S
H1494 C1500 0.950 . S
H1495 C1501 0.950 . S
H1496 C1502 0.949 1_556 S
C1497 H1492 0.950 . S
C1497 C1499 1.327 . S
C1497 C1503 1.429 . S
C1498 C1490 1.574 . S
C1498 H1493 0.949 . S
C1498 C1504 1.368 . S
C1499 C1483 1.349 . S
C1499 H1491 0.950 . S
C1499 C1497 1.327 . S
C1500 C1488 1.349 . S
C1500 H1494 0.950 . S
C1500 C1501 1.327 . S
C1501 H1495 0.950 . S
C1501 C1500 1.327 . S
C1501 C1505 1.429 . S
C1502 C1485 1.574 . S
C1502 H1496 0.949 1_554 S
C1502 C1506 1.368 1_554 S
C1503 C1484 1.429 . S
C1503 C1497 1.429 . S
C1503 C1504 1.523 . S
C1504 C1485 1.368 . S
C1504 C1498 1.368 . S
C1504 C1503 1.523 . S
C1505 C1489 1.429 . S
C1505 C1501 1.429 . S
C1505 C1506 1.523 . S
C1506 C1490 1.368 1_556 S
C1506 C1502 1.368 1_556 S
C1506 C1505 1.523 . S
H1507 C1482 0.950 . S
H1508 C1484 0.950 . S
H1509 C1485 0.949 . S
H1510 C1487 0.950 . S
H1511 C1489 0.950 . S
C1512 C1513 1.349 . S
C1512 C1514 1.327 . S
C1512 H1537 0.950 . S
C1513 C1512 1.349 . S
C1513 C1529 1.349 . S
C1514 C1512 1.327 . S
C1514 C1533 1.429 . S
C1514 H1538 0.950 . S
C1515 C1532 1.574 . S
C1515 C1534 1.368 1_556 S
C1515 H1539 0.949 1_556 S
H1516 C1520 0.949 . S
C1517 C1518 1.349 . S
C1517 C1519 1.327 . S
C1517 H1540 0.950 . S
C1518 C1517 1.349 . S
C1518 C1530 1.349 . S
C1519 C1517 1.327 . S
C1519 C1535 1.429 . S
C1519 H1541 0.950 . S
C1520 H1516 0.949 . S
C1520 C1528 1.574 . S
C1520 C1536 1.368 . S
H1521 C1529 0.950 . S
H1522 C1527 0.950 . S
H1523 C1528 0.949 1_554 S
H1524 C1530 0.950 . S
H1525 C1531 0.950 . S
H1526 C1532 0.949 . S
C1527 H1522 0.950 . S
C1527 C1529 1.327 . S
C1527 C1533 1.429 . S
C1528 C1520 1.574 . S
C1528 H1523 0.949 1_556 S
C1528 C1534 1.368 1_556 S
C1529 C1513 1.349 . S
C1529 H1521 0.950 . S
C1529 C1527 1.327 . S
C1530 C1518 1.349 . S
C1530 H1524 0.950 . S
C1530 C1531 1.327 . S
C1531 H1525 0.950 . S
C1531 C1530 1.327 . S
C1531 C1535 1.429 . S
C1532 C1515 1.574 . S
C1532 H1526 0.949 . S
C1532 C1536 1.368 . S
C1533 C1514 1.429 . S
C1533 C1527 1.429 . S
C1533 C1534 1.523 . S
C1534 C1515 1.368 1_554 S
C1534 C1528 1.368 1_554 S
C1534 C1533 1.523 . S
C1535 C1519 1.429 . S
C1535 C1531 1.429 . S
C1535 C1536 1.523 . S
C1536 C1520 1.368 . S
C1536 C1532 1.368 . S
C1536 C1535 1.523 . S
H1537 C1512 0.950 . S
H1538 C1514 0.950 . S
H1539 C1515 0.949 1_554 S
H1540 C1517 0.950 . S
H1541 C1519 0.950 . S
C1542 C1543 1.349 . S
C1542 C1544 1.327 . S
C1542 H1567 0.950 . S
C1543 C1542 1.349 . S
C1543 C1559 1.349 . S
C1544 C1542 1.327 . S
C1544 C1563 1.429 . S
C1544 H1568 0.950 . S
C1545 C1562 1.574 . S
C1545 C1564 1.368 . S
C1545 H1569 0.949 . S
H1546 C1550 0.949 1_554 S
C1547 C1548 1.349 . S
C1547 C1549 1.327 . S
C1547 H1570 0.950 . S
C1548 C1547 1.349 . S
C1548 C1560 1.349 . S
C1549 C1547 1.327 . S
C1549 C1565 1.429 . S
C1549 H1571 0.950 . S
C1550 H1546 0.949 1_556 S
C1550 C1558 1.574 . S
C1550 C1566 1.368 1_556 S
H1551 C1559 0.950 . S
H1552 C1557 0.950 . S
H1553 C1558 0.949 . S
H1554 C1560 0.950 . S
H1555 C1561 0.950 . S
H1556 C1562 0.949 1_554 S
C1557 H1552 0.950 . S
C1557 C1559 1.327 . S
C1557 C1563 1.429 . S
C1558 C1550 1.574 . S
C1558 H1553 0.949 . S
C1558 C1564 1.368 . S
C1559 C1543 1.349 . S
C1559 H1551 0.950 . S
C1559 C1557 1.327 . S
C1560 C1548 1.349 . S
C1560 H1554 0.950 . S
C1560 C1561 1.327 . S
C1561 H1555 0.950 . S
C1561 C1560 1.327 . S
C1561 C1565 1.429 . S
C1562 C1545 1.574 . S
C1562 H1556 0.949 1_556 S
C1562 C1566 1.368 1_556 S
C1563 C1544 1.429 . S
C1563 C1557 1.429 . S
C1563 C1564 1.523 . S
C1564 C1545 1.368 . S
C1564 C1558 1.368 . S
C1564 C1563 1.523 . S
C1565 C1549 1.429 . S
C1565 C1561 1.429 . S
C1565 C1566 1.523 . S
C1566 C1550 1.368 1_554 S
C1566 C1562 1.368 1_554 S
C1566 C1565 1.523 . S
H1567 C1542 0.950 . S
H1568 C1544 0.950 . S
H1569 C1545 0.949 . S
H1570 C1547 0.950 . S
H1571 C1549 0.950 . S
C1572 C1573 1.349 . S
C1572 C1574 1.327 . S
C1572 H1597 0.950 . S
C1573 C1572 1.349 . S
C1573 C1589 1.349 . S
C1574 C1572 1.327 . S
C1574 C1593 1.429 . S
C1574 H1598 0.950 . S
C1575 C1592 1.574 . S
C1575 C1594 1.368 1_556 S
C1575 H1599 0.949 1_556 S
H1576 C1580 0.949 . S
C1577 C1578 1.349 . S
C1577 C1579 1.327 . S
C1577 H1600 0.950 . S
C1578 C1577 1.349 . S
C1578 C1590 1.349 . S
C1579 C1577 1.327 . S
C1579 C1595 1.429 . S
C1579 H1601 0.950 . S
C1580 H1576 0.949 . S
C1580 C1588 1.574 . S
C1580 C1596 1.368 . S
H1581 C1589 0.950 . S
H1582 C1587 0.950 . S
H1583 C1588 0.949 1_554 S
H1584 C1590 0.950 . S
H1585 C1591 0.950 . S
H1586 C1592 0.949 . S
C1587 H1582 0.950 . S
C1587 C1589 1.327 . S
C1587 C1593 1.429 . S
C1588 C1580 1.574 . S
C1588 H1583 0.949 1_556 S
C1588 C1594 1.368 1_556 S
C1589 C1573 1.349 . S
C1589 H1581 0.950 . S
C1589 C1587 1.327 . S
C1590 C1578 1.349 . S
C1590 H1584 0.950 . S
C1590 C1591 1.327 . S
C1591 H1585 0.950 . S
C1591 C1590 1.327 . S
C1591 C1595 1.429 . S
C1592 C1575 1.574 . S
C1592 H1586 0.949 . S
C1592 C1596 1.368 . S
C1593 C1574 1.429 . S
C1593 C1587 1.429 . S
C1593 C1594 1.523 . S
C1594 C1575 1.368 1_554 S
C1594 C1588 1.368 1_554 S
C1594 C1593 1.523 . S
C1595 C1579 1.429 . S
C1595 C1591 1.429 . S
C1595 C1596 1.523 . S
C1596 C1580 1.368 . S
C1596 C1592 1.368 . S
C1596 C1595 1.523 . S
H1597 C1572 0.950 . S
H1598 C1574 0.950 . S
H1599 C1575 0.949 1_554 S
H1600 C1577 0.950 . S
H1601 C1579 0.950 . S
C1602 C1603 1.349 . S
C1602 C1604 1.327 . S
C1602 H1627 0.950 . S
C1603 C1602 1.349 . S
C1603 C1619 1.349 . S
C1604 C1602 1.327 . S
C1604 C1623 1.429 . S
C1604 H1628 0.950 . S
C1605 C1622 1.574 . S
C1605 C1624 1.368 . S
C1605 H1629 0.949 . S
H1606 C1610 0.949 1_554 S
C1607 C1608 1.349 . S
C1607 C1609 1.327 . S
C1607 H1630 0.950 . S
C1608 C1607 1.349 . S
C1608 C1620 1.349 . S
C1609 C1607 1.327 . S
C1609 C1625 1.429 . S
C1609 H1631 0.950 . S
C1610 H1606 0.949 1_556 S
C1610 C1618 1.574 . S
C1610 C1626 1.368 1_556 S
H1611 C1619 0.950 . S
H1612 C1617 0.950 . S
H1613 C1618 0.949 . S
H1614 C1620 0.950 . S
H1615 C1621 0.950 . S
H1616 C1622 0.949 1_554 S
C1617 H1612 0.950 . S
C1617 C1619 1.327 . S
C1617 C1623 1.429 . S
C1618 C1610 1.574 . S
C1618 H1613 0.949 . S
C1618 C1624 1.368 . S
C1619 C1603 1.349 . S
C1619 H1611 0.950 . S
C1619 C1617 1.327 . S
C1620 C1608 1.349 . S
C1620 H1614 0.950 . S
C1620 C1621 1.327 . S
C1621 H1615 0.950 . S
C1621 C1620 1.327 . S
C1621 C1625 1.429 . S
C1622 C1605 1.574 . S
C1622 H1616 0.949 1_556 S
C1622 C1626 1.368 1_556 S
C1623 C1604 1.429 . S
C1623 C1617 1.429 . S
C1623 C1624 1.523 . S
C1624 C1605 1.368 . S
C1624 C1618 1.368 . S
C1624 C1623 1.523 . S
C1625 C1609 1.429 . S
C1625 C1621 1.429 . S
C1625 C1626 1.523 . S
C1626 C1610 1.368 1_554 S
C1626 C1622 1.368 1_554 S
C1626 C1625 1.523 . S
H1627 C1602 0.950 . S
H1628 C1604 0.950 . S
H1629 C1605 0.949 . S
H1630 C1607 0.950 . S
H1631 C1609 0.950 . S
C1632 C1633 1.349 . S
C1632 C1634 1.327 . S
C1632 H1657 0.950 . S
C1633 C1632 1.349 . S
C1633 C1649 1.349 . S
C1634 C1632 1.327 . S
C1634 C1653 1.429 . S
C1634 H1658 0.950 . S
C1635 C1652 1.574 . S
C1635 C1654 1.368 1_455 S
C1635 H1659 0.949 1_455 S
H1636 C1640 0.949 . S
C1637 C1638 1.349 . S
C1637 C1639 1.327 . S
C1637 H1660 0.950 . S
C1638 C1637 1.349 . S
C1638 C1650 1.349 . S
C1639 C1637 1.327 . S
C1639 C1655 1.429 . S
C1639 H1661 0.950 . S
C1640 H1636 0.949 . S
C1640 C1648 1.574 . S
C1640 C1656 1.368 . S
H1641 C1649 0.950 . S
H1642 C1647 0.950 . S
H1643 C1648 0.949 1_655 S
H1644 C1650 0.950 . S
H1645 C1651 0.950 . S
H1646 C1652 0.949 . S
C1647 H1642 0.950 . S
C1647 C1649 1.327 . S
C1647 C1653 1.429 . S
C1648 C1640 1.574 . S
C1648 H1643 0.949 1_455 S
C1648 C1654 1.368 1_455 S
C1649 C1633 1.349 . S
C1649 H1641 0.950 . S
C1649 C1647 1.327 . S
C1650 C1638 1.349 . S
C1650 H1644 0.950 . S
C1650 C1651 1.327 . S
C1651 H1645 0.950 . S
C1651 C1650 1.327 . S
C1651 C1655 1.429 . S
C1652 C1635 1.574 . S
C1652 H1646 0.949 . S
C1652 C1656 1.368 . S
C1653 C1634 1.429 . S
C1653 C1647 1.429 . S
C1653 C1654 1.523 . S
C1654 C1635 1.368 1_655 S
C1654 C1648 1.368 1_655 S
C1654 C1653 1.523 . S
C1655 C1639 1.429 . S
C1655 C1651 1.429 . S
C1655 C1656 1.523 . S
C1656 C1640 1.368 . S
C1656 C1652 1.368 . S
C1656 C1655 1.523 . S
H1657 C1632 0.950 . S
H1658 C1634 0.950 . S
H1659 C1635 0.949 1_655 S
H1660 C1637 0.950 . S
H1661 C1639 0.950 . S
C1662 C1663 1.349 . S
C1662 C1664 1.327 . S
C1662 H1687 0.950 . S
C1663 C1662 1.349 . S
C1663 C1679 1.349 . S
C1664 C1662 1.327 . S
C1664 C1683 1.429 . S
C1664 H1688 0.950 . S
C1665 C1682 1.574 . S
C1665 C1684 1.368 1_455 S
C1665 H1689 0.949 1_455 S
H1666 C1670 0.949 . S
C1667 C1668 1.349 . S
C1667 C1669 1.327 . S
C1667 H1690 0.950 . S
C1668 C1667 1.349 . S
C1668 C1680 1.349 . S
C1669 C1667 1.327 . S
C1669 C1685 1.429 . S
C1669 H1691 0.950 . S
C1670 H1666 0.949 . S
C1670 C1678 1.574 . S
C1670 C1686 1.368 . S
H1671 C1679 0.950 . S
H1672 C1677 0.950 . S
H1673 C1678 0.949 1_655 S
H1674 C1680 0.950 . S
H1675 C1681 0.950 . S
H1676 C1682 0.949 . S
C1677 H1672 0.950 . S
C1677 C1679 1.327 . S
C1677 C1683 1.429 . S
C1678 C1670 1.574 . S
C1678 H1673 0.949 1_455 S
C1678 C1684 1.368 1_455 S
C1679 C1663 1.349 . S
C1679 H1671 0.950 . S
C1679 C1677 1.327 . S
C1680 C1668 1.349 . S
C1680 H1674 0.950 . S
C1680 C1681 1.327 . S
C1681 H1675 0.950 . S
C1681 C1680 1.327 . S
C1681 C1685 1.429 . S
C1682 C1665 1.574 . S
C1682 H1676 0.949 . S
C1682 C1686 1.368 . S
C1683 C1664 1.429 . S
C1683 C1677 1.429 . S
C1683 C1684 1.523 . S
C1684 C1665 1.368 1_655 S
C1684 C1678 1.368 1_655 S
C1684 C1683 1.523 . S
C1685 C1669 1.429 . S
C1685 C1681 1.429 . S
C1685 C1686 1.523 . S
C1686 C1670 1.368 . S
C1686 C1682 1.368 . S
C1686 C1685 1.523 . S
H1687 C1662 0.950 . S
H1688 C1664 0.950 . S
H1689 C1665 0.949 1_655 S
H1690 C1667 0.950 . S
H1691 C1669 0.950 . S
C1692 C1693 1.349 . S
C1692 C1694 1.327 . S
C1692 H1717 0.950 . S
C1693 C1692 1.349 . S
C1693 C1709 1.349 . S
C1694 C1692 1.327 . S
C1694 C1713 1.429 . S
C1694 H1718 0.950 . S
C1695 C1712 1.574 . S
C1695 C1714 1.368 . S
C1695 H1719 0.949 . S
H1696 C1700 0.949 1_565 S
C1697 C1698 1.349 . S
C1697 C1699 1.327 . S
C1697 H1720 0.950 . S
C1698 C1697 1.349 . S
C1698 C1710 1.349 . S
C1699 C1697 1.327 . S
C1699 C1715 1.429 . S
C1699 H1721 0.950 . S
C1700 H1696 0.949 1_545 S
C1700 C1708 1.574 . S
C1700 C1716 1.368 1_545 S
H1701 C1709 0.950 . S
H1702 C1707 0.950 . S
H1703 C1708 0.949 . S
H1704 C1710 0.950 . S
H1705 C1711 0.950 . S
H1706 C1712 0.949 1_565 S
C1707 H1702 0.950 . S
C1707 C1709 1.327 . S
C1707 C1713 1.429 . S
C1708 C1700 1.574 . S
C1708 H1703 0.949 . S
C1708 C1714 1.368 . S
C1709 C1693 1.349 . S
C1709 H1701 0.950 . S
C1709 C1707 1.327 . S
C1710 C1698 1.349 . S
C1710 H1704 0.950 . S
C1710 C1711 1.327 . S
C1711 H1705 0.950 . S
C1711 C1710 1.327 . S
C1711 C1715 1.429 . S
C1712 C1695 1.574 . S
C1712 H1706 0.949 1_545 S
C1712 C1716 1.368 1_545 S
C1713 C1694 1.429 . S
C1713 C1707 1.429 . S
C1713 C1714 1.523 . S
C1714 C1695 1.368 . S
C1714 C1708 1.368 . S
C1714 C1713 1.523 . S
C1715 C1699 1.429 . S
C1715 C1711 1.429 . S
C1715 C1716 1.523 . S
C1716 C1700 1.368 1_565 S
C1716 C1712 1.368 1_565 S
C1716 C1715 1.523 . S
H1717 C1692 0.950 . S
H1718 C1694 0.950 . S
H1719 C1695 0.949 . S
H1720 C1697 0.950 . S
H1721 C1699 0.950 . S
C1722 C1723 1.349 . S
C1722 C1724 1.327 . S
C1722 H1747 0.950 . S
C1723 C1722 1.349 . S
C1723 C1739 1.349 . S
C1724 C1722 1.327 . S
C1724 C1743 1.429 . S
C1724 H1748 0.950 . S
C1725 C1742 1.574 . S
C1725 C1744 1.368 . S
C1725 H1749 0.949 . S
H1726 C1730 0.949 1_455 S
C1727 C1728 1.349 . S
C1727 C1729 1.327 . S
C1727 H1750 0.950 . S
C1728 C1727 1.349 . S
C1728 C1740 1.349 . S
C1729 C1727 1.327 . S
C1729 C1745 1.429 . S
C1729 H1751 0.950 . S
C1730 H1726 0.949 1_655 S
C1730 C1738 1.574 . S
C1730 C1746 1.368 1_655 S
H1731 C1739 0.950 . S
H1732 C1737 0.950 . S
H1733 C1738 0.949 . S
H1734 C1740 0.950 . S
H1735 C1741 0.950 . S
H1736 C1742 0.949 1_455 S
C1737 H1732 0.950 . S
C1737 C1739 1.327 . S
C1737 C1743 1.429 . S
C1738 C1730 1.574 . S
C1738 H1733 0.949 . S
C1738 C1744 1.368 . S
C1739 C1723 1.349 . S
C1739 H1731 0.950 . S
C1739 C1737 1.327 . S
C1740 C1728 1.349 . S
C1740 H1734 0.950 . S
C1740 C1741 1.327 . S
C1741 H1735 0.950 . S
C1741 C1740 1.327 . S
C1741 C1745 1.429 . S
C1742 C1725 1.574 . S
C1742 H1736 0.949 1_655 S
C1742 C1746 1.368 1_655 S
C1743 C1724 1.429 . S
C1743 C1737 1.429 . S
C1743 C1744 1.523 . S
C1744 C1725 1.368 . S
C1744 C1738 1.368 . S
C1744 C1743 1.523 . S
C1745 C1729 1.429 . S
C1745 C1741 1.429 . S
C1745 C1746 1.523 . S
C1746 C1730 1.368 1_455 S
C1746 C1742 1.368 1_455 S
C1746 C1745 1.523 . S
H1747 C1722 0.950 . S
H1748 C1724 0.950 . S
H1749 C1725 0.949 . S
H1750 C1727 0.950 . S
H1751 C1729 0.950 . S
C1752 C1753 1.349 . S
C1752 C1754 1.327 . S
C1752 H1777 0.950 . S
C1753 C1752 1.349 . S
C1753 C1769 1.349 . S
C1754 C1752 1.327 . S
C1754 C1773 1.429 . S
C1754 H1778 0.950 . S
C1755 C1772 1.574 . S
C1755 C1774 1.368 1_565 S
C1755 H1779 0.949 1_565 S
H1756 C1760 0.949 . S
C1757 C1758 1.349 . S
C1757 C1759 1.327 . S
C1757 H1780 0.950 . S
C1758 C1757 1.349 . S
C1758 C1770 1.349 . S
C1759 C1757 1.327 . S
C1759 C1775 1.429 . S
C1759 H1781 0.950 . S
C1760 H1756 0.949 . S
C1760 C1768 1.574 . S
C1760 C1776 1.368 . S
H1761 C1769 0.950 . S
H1762 C1767 0.950 . S
H1763 C1768 0.949 1_545 S
H1764 C1770 0.950 . S
H1765 C1771 0.950 . S
H1766 C1772 0.949 . S
C1767 H1762 0.950 . S
C1767 C1769 1.327 . S
C1767 C1773 1.429 . S
C1768 C1760 1.574 . S
C1768 H1763 0.949 1_565 S
C1768 C1774 1.368 1_565 S
C1769 C1753 1.349 . S
C1769 H1761 0.950 . S
C1769 C1767 1.327 . S
C1770 C1758 1.349 . S
C1770 H1764 0.950 . S
C1770 C1771 1.327 . S
C1771 H1765 0.950 . S
C1771 C1770 1.327 . S
C1771 C1775 1.429 . S
C1772 C1755 1.574 . S
C1772 H1766 0.949 . S
C1772 C1776 1.368 . S
C1773 C1754 1.429 . S
C1773 C1767 1.429 . S
C1773 C1774 1.523 . S
C1774 C1755 1.368 1_545 S
C1774 C1768 1.368 1_545 S
C1774 C1773 1.523 . S
C1775 C1759 1.429 . S
C1775 C1771 1.429 . S
C1775 C1776 1.523 . S
C1776 C1760 1.368 . S
C1776 C1772 1.368 . S
C1776 C1775 1.523 . S
H1777 C1752 0.950 . S
H1778 C1754 0.950 . S
H1779 C1755 0.949 1_545 S
H1780 C1757 0.950 . S
H1781 C1759 0.950 . S
C1782 C1783 1.349 . S
C1782 C1784 1.327 . S
C1782 H1807 0.950 . S
C1783 C1782 1.349 . S
C1783 C1799 1.349 . S
C1784 C1782 1.327 . S
C1784 C1803 1.429 . S
C1784 H1808 0.950 . S
C1785 C1802 1.574 . S
C1785 C1804 1.368 1_655 S
C1785 H1809 0.949 1_655 S
H1786 C1790 0.949 . S
C1787 C1788 1.349 . S
C1787 C1789 1.327 . S
C1787 H1810 0.950 . S
C1788 C1787 1.349 . S
C1788 C1800 1.349 . S
C1789 C1787 1.327 . S
C1789 C1805 1.429 . S
C1789 H1811 0.950 . S
C1790 H1786 0.949 . S
C1790 C1798 1.574 . S
C1790 C1806 1.368 . S
H1791 C1799 0.950 . S
H1792 C1797 0.950 . S
H1793 C1798 0.949 1_455 S
H1794 C1800 0.950 . S
H1795 C1801 0.950 . S
H1796 C1802 0.949 . S
C1797 H1792 0.950 . S
C1797 C1799 1.327 . S
C1797 C1803 1.429 . S
C1798 C1790 1.574 . S
C1798 H1793 0.949 1_655 S
C1798 C1804 1.368 1_655 S
C1799 C1783 1.349 . S
C1799 H1791 0.950 . S
C1799 C1797 1.327 . S
C1800 C1788 1.349 . S
C1800 H1794 0.950 . S
C1800 C1801 1.327 . S
C1801 H1795 0.950 . S
C1801 C1800 1.327 . S
C1801 C1805 1.429 . S
C1802 C1785 1.574 . S
C1802 H1796 0.949 . S
C1802 C1806 1.368 . S
C1803 C1784 1.429 . S
C1803 C1797 1.429 . S
C1803 C1804 1.523 . S
C1804 C1785 1.368 1_455 S
C1804 C1798 1.368 1_455 S
C1804 C1803 1.523 . S
C1805 C1789 1.429 . S
C1805 C1801 1.429 . S
C1805 C1806 1.523 . S
C1806 C1790 1.368 . S
C1806 C1802 1.368 . S
C1806 C1805 1.523 . S
H1807 C1782 0.950 . S
H1808 C1784 0.950 . S
H1809 C1785 0.949 1_455 S
H1810 C1787 0.950 . S
H1811 C1789 0.950 . S
C1812 C1813 1.349 . S
C1812 C1814 1.327 . S
C1812 H1837 0.950 . S
C1813 C1812 1.349 . S
C1813 C1829 1.349 . S
C1814 C1812 1.327 . S
C1814 C1833 1.429 . S
C1814 H1838 0.950 . S
C1815 C1832 1.574 . S
C1815 C1834 1.368 1_565 S
C1815 H1839 0.949 1_565 S
H1816 C1820 0.949 . S
C1817 C1818 1.349 . S
C1817 C1819 1.327 . S
C1817 H1840 0.950 . S
C1818 C1817 1.349 . S
C1818 C1830 1.349 . S
C1819 C1817 1.327 . S
C1819 C1835 1.429 . S
C1819 H1841 0.950 . S
C1820 H1816 0.949 . S
C1820 C1828 1.574 . S
C1820 C1836 1.368 . S
H1821 C1829 0.950 . S
H1822 C1827 0.950 . S
H1823 C1828 0.949 1_545 S
H1824 C1830 0.950 . S
H1825 C1831 0.950 . S
H1826 C1832 0.949 . S
C1827 H1822 0.950 . S
C1827 C1829 1.327 . S
C1827 C1833 1.429 . S
C1828 C1820 1.574 . S
C1828 H1823 0.949 1_565 S
C1828 C1834 1.368 1_565 S
C1829 C1813 1.349 . S
C1829 H1821 0.950 . S
C1829 C1827 1.327 . S
C1830 C1818 1.349 . S
C1830 H1824 0.950 . S
C1830 C1831 1.327 . S
C1831 H1825 0.950 . S
C1831 C1830 1.327 . S
C1831 C1835 1.429 . S
C1832 C1815 1.574 . S
C1832 H1826 0.949 . S
C1832 C1836 1.368 . S
C1833 C1814 1.429 . S
C1833 C1827 1.429 . S
C1833 C1834 1.523 . S
C1834 C1815 1.368 1_545 S
C1834 C1828 1.368 1_545 S
C1834 C1833 1.523 . S
C1835 C1819 1.429 . S
C1835 C1831 1.429 . S
C1835 C1836 1.523 . S
C1836 C1820 1.368 . S
C1836 C1832 1.368 . S
C1836 C1835 1.523 . S
H1837 C1812 0.950 . S
H1838 C1814 0.950 . S
H1839 C1815 0.949 1_545 S
H1840 C1817 0.950 . S
H1841 C1819 0.950 . S
C1842 C1843 1.349 . S
C1842 C1844 1.327 . S
C1842 H1867 0.950 . S
C1843 C1842 1.349 . S
C1843 C1859 1.349 . S
C1844 C1842 1.327 . S
C1844 C1863 1.429 . S
C1844 H1868 0.950 . S
C1845 C1862 1.574 . S
C1845 C1864 1.368 . S
C1845 H1869 0.949 . S
H1846 C1850 0.949 1_565 S
C1847 C1848 1.349 . S
C1847 C1849 1.327 . S
C1847 H1870 0.950 . S
C1848 C1847 1.349 . S
C1848 C1860 1.349 . S
C1849 C1847 1.327 . S
C1849 C1865 1.429 . S
C1849 H1871 0.950 . S
C1850 H1846 0.949 1_545 S
C1850 C1858 1.574 . S
C1850 C1866 1.368 1_545 S
H1851 C1859 0.950 . S
H1852 C1857 0.950 . S
H1853 C1858 0.949 . S
H1854 C1860 0.950 . S
H1855 C1861 0.950 . S
H1856 C1862 0.926 1_565 S
C1857 H1852 0.950 . S
C1857 C1859 1.327 . S
C1857 C1863 1.429 . S
C1858 C1850 1.574 . S
C1858 H1853 0.949 . S
C1858 C1864 1.368 . S
C1859 C1843 1.349 . S
C1859 H1851 0.950 . S
C1859 C1857 1.327 . S
C1860 C1848 1.349 . S
C1860 H1854 0.950 . S
C1860 C1861 1.327 . S
C1861 H1855 0.950 . S
C1861 C1860 1.327 . S
C1861 C1865 1.429 . S
C1862 C1845 1.574 . S
C1862 H1856 0.926 1_545 S
C1862 C1866 1.368 1_545 S
C1863 C1844 1.429 . S
C1863 C1857 1.429 . S
C1863 C1864 1.523 . S
C1864 C1845 1.368 . S
C1864 C1858 1.368 . S
C1864 C1863 1.523 . S
C1865 C1849 1.429 . S
C1865 C1861 1.429 . S
C1865 C1866 1.523 . S
C1866 C1850 1.368 1_565 S
C1866 C1862 1.368 1_565 S
C1866 C1865 1.523 . S
H1867 C1842 0.950 . S
H1868 C1844 0.950 . S
H1869 C1845 0.949 . S
H1870 C1847 0.950 . S
H1871 C1849 0.950 . S
C1872 C1873 1.349 . S
C1872 C1874 1.327 . S
C1872 H1897 0.950 . S
C1873 C1872 1.349 . S
C1873 C1889 1.349 . S
C1874 C1872 1.327 . S
C1874 C1893 1.429 . S
C1874 H1898 0.950 . S
C1875 C1892 1.574 . S
C1875 C1894 1.368 . S
C1875 H1899 0.949 . S
H1876 C1880 0.949 . S
C1877 C1878 1.349 . S
C1877 C1879 1.327 . S
C1877 H1900 0.950 . S
C1878 C1877 1.349 . S
C1878 C1890 1.349 . S
C1879 C1877 1.327 . S
C1879 C1895 1.429 . S
C1879 H1901 0.950 . S
C1880 H1876 0.949 . S
C1880 C1888 1.574 . S
C1880 C1896 1.368 . S
H1881 C1889 0.950 . S
H1882 C1887 0.950 . S
H1883 C1888 0.949 . S
H1884 C1890 0.950 . S
H1885 C1891 0.950 . S
H1886 C1892 0.949 . S
C1887 H1882 0.950 . S
C1887 C1889 1.327 . S
C1887 C1893 1.429 . S
C1888 C1880 1.574 . S
C1888 H1883 0.949 . S
C1888 C1894 1.368 . S
C1889 C1873 1.349 . S
C1889 H1881 0.950 . S
C1889 C1887 1.327 . S
C1890 C1878 1.349 . S
C1890 H1884 0.950 . S
C1890 C1891 1.327 . S
C1891 H1885 0.950 . S
C1891 C1890 1.327 . S
C1891 C1895 1.429 . S
C1892 C1875 1.574 . S
C1892 H1886 0.949 . S
C1892 C1896 1.368 . S
C1893 C1874 1.429 . S
C1893 C1887 1.429 . S
C1893 C1894 1.523 . S
C1894 C1875 1.368 . S
C1894 C1888 1.368 . S
C1894 C1893 1.523 . S
C1895 C1879 1.429 . S
C1895 C1891 1.429 . S
C1895 C1896 1.523 . S
C1896 C1880 1.368 . S
C1896 C1892 1.368 . S
C1896 C1895 1.523 . S
H1897 C1872 0.950 . S
H1898 C1874 0.950 . S
H1899 C1875 0.949 . S
H1900 C1877 0.950 . S
H1901 C1879 0.950 . S
C1902 C1903 1.349 . S
C1902 C1904 1.327 . S
C1902 H1927 0.950 . S
C1903 C1902 1.349 . S
C1903 C1919 1.349 . S
C1904 C1902 1.327 . S
C1904 C1923 1.429 . S
C1904 H1928 0.950 . S
C1905 C1922 1.574 . S
C1905 C1924 1.368 . S
C1905 H1929 0.949 . S
H1906 C1910 0.949 . S
C1907 C1908 1.349 . S
C1907 C1909 1.327 . S
C1907 H1930 0.950 . S
C1908 C1907 1.349 . S
C1908 C1920 1.349 . S
C1909 C1907 1.327 . S
C1909 C1925 1.429 . S
C1909 H1931 0.950 . S
C1910 H1906 0.949 . S
C1910 C1918 1.574 . S
C1910 C1926 1.368 . S
H1911 C1919 0.950 . S
H1912 C1917 0.950 . S
H1913 C1918 0.949 . S
H1914 C1920 0.950 . S
H1915 C1921 0.950 . S
H1916 C1922 0.949 . S
C1917 H1912 0.950 . S
C1917 C1919 1.327 . S
C1917 C1923 1.429 . S
C1918 C1910 1.574 . S
C1918 H1913 0.949 . S
C1918 C1924 1.368 . S
C1919 C1903 1.349 . S
C1919 H1911 0.950 . S
C1919 C1917 1.327 . S
C1920 C1908 1.349 . S
C1920 H1914 0.950 . S
C1920 C1921 1.327 . S
C1921 H1915 0.950 . S
C1921 C1920 1.327 . S
C1921 C1925 1.429 . S
C1922 C1905 1.574 . S
C1922 H1916 0.949 . S
C1922 C1926 1.368 . S
C1923 C1904 1.429 . S
C1923 C1917 1.429 . S
C1923 C1924 1.523 . S
C1924 C1905 1.368 . S
C1924 C1918 1.368 . S
C1924 C1923 1.523 . S
C1925 C1909 1.429 . S
C1925 C1921 1.429 . S
C1925 C1926 1.523 . S
C1926 C1910 1.368 . S
C1926 C1922 1.368 . S
C1926 C1925 1.523 . S
H1927 C1902 0.950 . S
H1928 C1904 0.950 . S
H1929 C1905 0.949 . S
H1930 C1907 0.950 . S
H1931 C1909 0.950 . S
C1932 C1933 1.349 . S
C1932 C1934 1.327 . S
C1932 H1957 0.950 . S
C1933 C1932 1.349 . S
C1933 C1949 1.349 . S
C1934 C1932 1.327 . S
C1934 C1953 1.429 . S
C1934 H1958 0.950 . S
C1935 C1952 1.574 . S
C1935 C1954 1.368 . S
C1935 H1959 0.949 . S
H1936 C1940 0.949 . S
C1937 C1938 1.349 . S
C1937 C1939 1.327 . S
C1937 H1960 0.950 . S
C1938 C1937 1.349 . S
C1938 C1950 1.349 . S
C1939 C1937 1.327 . S
C1939 C1955 1.429 . S
C1939 H1961 0.950 . S
C1940 H1936 0.949 . S
C1940 C1948 1.574 . S
C1940 C1956 1.368 . S
H1941 C1949 0.950 . S
H1942 C1947 0.950 . S
H1943 C1948 0.949 . S
H1944 C1950 0.950 . S
H1945 C1951 0.950 . S
H1946 C1952 0.949 . S
C1947 H1942 0.950 . S
C1947 C1949 1.327 . S
C1947 C1953 1.429 . S
C1948 C1940 1.574 . S
C1948 H1943 0.949 . S
C1948 C1954 1.368 . S
C1949 C1933 1.349 . S
C1949 H1941 0.950 . S
C1949 C1947 1.327 . S
C1950 C1938 1.349 . S
C1950 H1944 0.950 . S
C1950 C1951 1.327 . S
C1951 H1945 0.950 . S
C1951 C1950 1.327 . S
C1951 C1955 1.429 . S
C1952 C1935 1.574 . S
C1952 H1946 0.949 . S
C1952 C1956 1.368 . S
C1953 C1934 1.429 . S
C1953 C1947 1.429 . S
C1953 C1954 1.523 . S
C1954 C1935 1.368 . S
C1954 C1948 1.368 . S
C1954 C1953 1.523 . S
C1955 C1939 1.429 . S
C1955 C1951 1.429 . S
C1955 C1956 1.523 . S
C1956 C1940 1.368 . S
C1956 C1952 1.368 . S
C1956 C1955 1.523 . S
H1957 C1932 0.950 . S
H1958 C1934 0.950 . S
H1959 C1935 0.949 . S
H1960 C1937 0.950 . S
H1961 C1939 0.950 . S
C1962 C1963 1.349 . S
C1962 C1964 1.327 . S
C1962 H1987 0.950 . S
C1963 C1962 1.349 . S
C1963 C1979 1.349 . S
C1964 C1962 1.327 . S
C1964 C1983 1.429 . S
C1964 H1988 0.950 . S
C1965 C1982 1.574 . S
C1965 C1984 1.368 . S
C1965 H1989 0.949 . S
H1966 C1970 0.949 . S
C1967 C1968 1.349 . S
C1967 C1969 1.327 . S
C1967 H1990 0.950 . S
C1968 C1967 1.349 . S
C1968 C1980 1.349 . S
C1969 C1967 1.327 . S
C1969 C1985 1.429 . S
C1969 H1991 0.950 . S
C1970 H1966 0.949 . S
C1970 C1978 1.574 . S
C1970 C1986 1.368 . S
H1971 C1979 0.950 . S
H1972 C1977 0.950 . S
H1973 C1978 0.949 . S
H1974 C1980 0.950 . S
H1975 C1981 0.950 . S
H1976 C1982 0.949 . S
C1977 H1972 0.950 . S
C1977 C1979 1.327 . S
C1977 C1983 1.429 . S
C1978 C1970 1.574 . S
C1978 H1973 0.949 . S
C1978 C1984 1.368 . S
C1979 C1963 1.349 . S
C1979 H1971 0.950 . S
C1979 C1977 1.327 . S
C1980 C1968 1.349 . S
C1980 H1974 0.950 . S
C1980 C1981 1.327 . S
C1981 H1975 0.950 . S
C1981 C1980 1.327 . S
C1981 C1985 1.429 . S
C1982 C1965 1.574 . S
C1982 H1976 0.949 . S
C1982 C1986 1.368 . S
C1983 C1964 1.429 . S
C1983 C1977 1.429 . S
C1983 C1984 1.523 . S
C1984 C1965 1.368 . S
C1984 C1978 1.368 . S
C1984 C1983 1.523 . S
C1985 C1969 1.429 . S
C1985 C1981 1.429 . S
C1985 C1986 1.523 . S
C1986 C1970 1.368 . S
C1986 C1982 1.368 . S
C1986 C1985 1.523 . S
H1987 C1962 0.950 . S
H1988 C1964 0.950 . S
H1989 C1965 0.949 . S
H1990 C1967 0.950 . S
H1991 C1969 0.950 . S
C1992 C1993 1.349 . S
C1992 C1994 1.327 . S
C1992 H2017 0.950 . S
C1993 C1992 1.349 . S
C1993 C2009 1.349 . S
C1994 C1992 1.327 . S
C1994 C2013 1.429 . S
C1994 H2018 0.950 . S
C1995 C2012 1.574 . S
C1995 C2014 1.368 . S
C1995 H2019 0.949 . S
H1996 C2000 0.949 . S
C1997 C1998 1.349 . S
C1997 C1999 1.327 . S
C1997 H2020 0.950 . S
C1998 C1997 1.349 . S
C1998 C2010 1.349 . S
C1999 C1997 1.327 . S
C1999 C2015 1.429 . S
C1999 H2021 0.950 . S
C2000 H1996 0.949 . S
C2000 C2008 1.574 . S
C2000 C2016 1.368 . S
H2001 C2009 0.950 . S
H2002 C2007 0.950 . S
H2003 C2008 0.949 . S
H2004 C2010 0.950 . S
H2005 C2011 0.950 . S
H2006 C2012 0.949 . S
C2007 H2002 0.950 . S
C2007 C2009 1.327 . S
C2007 C2013 1.429 . S
C2008 C2000 1.574 . S
C2008 H2003 0.949 . S
C2008 C2014 1.368 . S
C2009 C1993 1.349 . S
C2009 H2001 0.950 . S
C2009 C2007 1.327 . S
C2010 C1998 1.349 . S
C2010 H2004 0.950 . S
C2010 C2011 1.327 . S
C2011 H2005 0.950 . S
C2011 C2010 1.327 . S
C2011 C2015 1.429 . S
C2012 C1995 1.574 . S
C2012 H2006 0.949 . S
C2012 C2016 1.368 . S
C2013 C1994 1.429 . S
C2013 C2007 1.429 . S
C2013 C2014 1.523 . S
C2014 C1995 1.368 . S
C2014 C2008 1.368 . S
C2014 C2013 1.523 . S
C2015 C1999 1.429 . S
C2015 C2011 1.429 . S
C2015 C2016 1.523 . S
C2016 C2000 1.368 . S
C2016 C2012 1.368 . S
C2016 C2015 1.523 . S
H2017 C1992 0.950 . S
H2018 C1994 0.950 . S
H2019 C1995 0.949 . S
H2020 C1997 0.950 . S
H2021 C1999 0.950 . S
C2022 C2023 1.349 . S
C2022 C2024 1.327 . S
C2022 H2047 0.950 . S
C2023 C2022 1.349 . S
C2023 C2039 1.349 . S
C2024 C2022 1.327 . S
C2024 C2043 1.429 . S
C2024 H2048 0.950 . S
C2025 C2042 1.574 . S
C2025 C2044 1.368 . S
C2025 H2049 0.949 . S
H2026 C2030 0.949 . S
C2027 C2028 1.349 . S
C2027 C2029 1.327 . S
C2027 H2050 0.950 . S
C2028 C2027 1.349 . S
C2028 C2040 1.349 . S
C2029 C2027 1.327 . S
C2029 C2045 1.429 . S
C2029 H2051 0.950 . S
C2030 H2026 0.949 . S
C2030 C2038 1.574 . S
C2030 C2046 1.368 . S
H2031 C2039 0.950 . S
H2032 C2037 0.950 . S
H2033 C2038 0.949 . S
H2034 C2040 0.950 . S
H2035 C2041 0.950 . S
H2036 C2042 0.949 . S
C2037 H2032 0.950 . S
C2037 C2039 1.327 . S
C2037 C2043 1.429 . S
C2038 C2030 1.574 . S
C2038 H2033 0.949 . S
C2038 C2044 1.368 . S
C2039 C2023 1.349 . S
C2039 H2031 0.950 . S
C2039 C2037 1.327 . S
C2040 C2028 1.349 . S
C2040 H2034 0.950 . S
C2040 C2041 1.327 . S
C2041 H2035 0.950 . S
C2041 C2040 1.327 . S
C2041 C2045 1.429 . S
C2042 C2025 1.574 . S
C2042 H2036 0.949 . S
C2042 C2046 1.368 . S
C2043 C2024 1.429 . S
C2043 C2037 1.429 . S
C2043 C2044 1.523 . S
C2044 C2025 1.368 . S
C2044 C2038 1.368 . S
C2044 C2043 1.523 . S
C2045 C2029 1.429 . S
C2045 C2041 1.429 . S
C2045 C2046 1.523 . S
C2046 C2030 1.368 . S
C2046 C2042 1.368 . S
C2046 C2045 1.523 . S
H2047 C2022 0.950 . S
H2048 C2024 0.950 . S
H2049 C2025 0.949 . S
H2050 C2027 0.950 . S
H2051 C2029 0.950 . S
C2052 C2053 1.349 . S
C2052 C2054 1.327 . S
C2052 H2077 0.950 . S
C2053 C2052 1.349 . S
C2053 C2069 1.349 . S
C2054 C2052 1.327 . S
C2054 C2073 1.429 . S
C2054 H2078 0.950 . S
C2055 C2072 1.574 . S
C2055 C2074 1.368 . S
C2055 H2079 0.949 . S
H2056 C2060 0.949 . S
C2057 C2058 1.349 . S
C2057 C2059 1.327 . S
C2057 H2080 0.950 . S
C2058 C2057 1.349 . S
C2058 C2070 1.349 . S
C2059 C2057 1.327 . S
C2059 C2075 1.429 . S
C2059 H2081 0.950 . S
C2060 H2056 0.949 . S
C2060 C2068 1.574 . S
C2060 C2076 1.368 . S
H2061 C2069 0.950 . S
H2062 C2067 0.950 . S
H2063 C2068 0.949 . S
H2064 C2070 0.950 . S
H2065 C2071 0.950 . S
H2066 C2072 0.949 . S
C2067 H2062 0.950 . S
C2067 C2069 1.327 . S
C2067 C2073 1.429 . S
C2068 C2060 1.574 . S
C2068 H2063 0.949 . S
C2068 C2074 1.368 . S
C2069 C2053 1.349 . S
C2069 H2061 0.950 . S
C2069 C2067 1.327 . S
C2070 C2058 1.349 . S
C2070 H2064 0.950 . S
C2070 C2071 1.327 . S
C2071 H2065 0.950 . S
C2071 C2070 1.327 . S
C2071 C2075 1.429 . S
C2072 C2055 1.574 . S
C2072 H2066 0.949 . S
C2072 C2076 1.368 . S
C2073 C2054 1.429 . S
C2073 C2067 1.429 . S
C2073 C2074 1.523 . S
C2074 C2055 1.368 . S
C2074 C2068 1.368 . S
C2074 C2073 1.523 . S
C2075 C2059 1.429 . S
C2075 C2071 1.429 . S
C2075 C2076 1.523 . S
C2076 C2060 1.368 . S
C2076 C2072 1.368 . S
C2076 C2075 1.523 . S
H2077 C2052 0.950 . S
H2078 C2054 0.950 . S
H2079 C2055 0.949 . S
H2080 C2057 0.950 . S
H2081 C2059 0.950 . S
C2082 C2083 1.349 . S
C2082 C2084 1.327 . S
C2082 H2107 0.950 . S
C2083 C2082 1.349 . S
C2083 C2099 1.349 . S
C2084 C2082 1.327 . S
C2084 C2103 1.429 . S
C2084 H2108 0.950 . S
C2085 C2102 1.574 . S
C2085 C2104 1.368 . S
C2085 H2109 0.949 . S
H2086 C2090 0.949 . S
C2087 C2088 1.349 . S
C2087 C2089 1.327 . S
C2087 H2110 0.950 . S
C2088 C2087 1.349 . S
C2088 C2100 1.349 . S
C2089 C2087 1.327 . S
C2089 C2105 1.429 . S
C2089 H2111 0.950 . S
C2090 H2086 0.949 . S
C2090 C2098 1.574 . S
C2090 C2106 1.368 . S
H2091 C2099 0.950 . S
H2092 C2097 0.950 . S
H2093 C2098 0.949 . S
H2094 C2100 0.950 . S
H2095 C2101 0.950 . S
H2096 C2102 0.949 . S
C2097 H2092 0.950 . S
C2097 C2099 1.327 . S
C2097 C2103 1.429 . S
C2098 C2090 1.574 . S
C2098 H2093 0.949 . S
C2098 C2104 1.368 . S
C2099 C2083 1.349 . S
C2099 H2091 0.950 . S
C2099 C2097 1.327 . S
C2100 C2088 1.349 . S
C2100 H2094 0.950 . S
C2100 C2101 1.327 . S
C2101 H2095 0.950 . S
C2101 C2100 1.327 . S
C2101 C2105 1.429 . S
C2102 C2085 1.574 . S
C2102 H2096 0.949 . S
C2102 C2106 1.368 . S
C2103 C2084 1.429 . S
C2103 C2097 1.429 . S
C2103 C2104 1.523 . S
C2104 C2085 1.368 . S
C2104 C2098 1.368 . S
C2104 C2103 1.523 . S
C2105 C2089 1.429 . S
C2105 C2101 1.429 . S
C2105 C2106 1.523 . S
C2106 C2090 1.368 . S
C2106 C2102 1.368 . S
C2106 C2105 1.523 . S
H2107 C2082 0.950 . S
H2108 C2084 0.950 . S
H2109 C2085 0.949 . S
H2110 C2087 0.950 . S
H2111 C2089 0.950 . S
C2112 C2113 1.349 . S
C2112 C2114 1.327 . S
C2112 H2137 0.950 . S
C2113 C2112 1.349 . S
C2113 C2129 1.349 . S
C2114 C2112 1.327 . S
C2114 C2133 1.429 . S
C2114 H2138 0.950 . S
C2115 C2132 1.574 . S
C2115 C2134 1.368 . S
C2115 H2139 0.949 . S
H2116 C2120 0.949 . S
C2117 C2118 1.349 . S
C2117 C2119 1.327 . S
C2117 H2140 0.950 . S
C2118 C2117 1.349 . S
C2118 C2130 1.349 . S
C2119 C2117 1.327 . S
C2119 C2135 1.429 . S
C2119 H2141 0.950 . S
C2120 H2116 0.949 . S
C2120 C2128 1.574 . S
C2120 C2136 1.368 . S
H2121 C2129 0.950 . S
H2122 C2127 0.950 . S
H2123 C2128 0.949 . S
H2124 C2130 0.950 . S
H2125 C2131 0.950 . S
H2126 C2132 0.949 . S
C2127 H2122 0.950 . S
C2127 C2129 1.327 . S
C2127 C2133 1.429 . S
C2128 C2120 1.574 . S
C2128 H2123 0.949 . S
C2128 C2134 1.368 . S
C2129 C2113 1.349 . S
C2129 H2121 0.950 . S
C2129 C2127 1.327 . S
C2130 C2118 1.349 . S
C2130 H2124 0.950 . S
C2130 C2131 1.327 . S
C2131 H2125 0.950 . S
C2131 C2130 1.327 . S
C2131 C2135 1.429 . S
C2132 C2115 1.574 . S
C2132 H2126 0.949 . S
C2132 C2136 1.368 . S
C2133 C2114 1.429 . S
C2133 C2127 1.429 . S
C2133 C2134 1.523 . S
C2134 C2115 1.368 . S
C2134 C2128 1.368 . S
C2134 C2133 1.523 . S
C2135 C2119 1.429 . S
C2135 C2131 1.429 . S
C2135 C2136 1.523 . S
C2136 C2120 1.368 . S
C2136 C2132 1.368 . S
C2136 C2135 1.523 . S
H2137 C2112 0.950 . S
H2138 C2114 0.950 . S
H2139 C2115 0.949 . S
H2140 C2117 0.950 . S
H2141 C2119 0.950 . S
C2142 C2143 1.349 . S
C2142 C2144 1.327 . S
C2142 H2167 0.950 . S
C2143 C2142 1.349 . S
C2143 C2159 1.349 . S
C2144 C2142 1.327 . S
C2144 C2163 1.429 . S
C2144 H2168 0.950 . S
C2145 C2162 1.574 . S
C2145 C2164 1.368 . S
C2145 H2169 0.949 . S
H2146 C2150 0.949 . S
C2147 C2148 1.349 . S
C2147 C2149 1.327 . S
C2147 H2170 0.950 . S
C2148 C2147 1.349 . S
C2148 C2160 1.349 . S
C2149 C2147 1.327 . S
C2149 C2165 1.429 . S
C2149 H2171 0.950 . S
C2150 H2146 0.949 . S
C2150 C2158 1.574 . S
C2150 C2166 1.368 . S
H2151 C2159 0.950 . S
H2152 C2157 0.950 . S
H2153 C2158 0.949 . S
H2154 C2160 0.950 . S
H2155 C2161 0.950 . S
H2156 C2162 0.949 . S
C2157 H2152 0.950 . S
C2157 C2159 1.327 . S
C2157 C2163 1.429 . S
C2158 C2150 1.574 . S
C2158 H2153 0.949 . S
C2158 C2164 1.368 . S
C2159 C2143 1.349 . S
C2159 H2151 0.950 . S
C2159 C2157 1.327 . S
C2160 C2148 1.349 . S
C2160 H2154 0.950 . S
C2160 C2161 1.327 . S
C2161 H2155 0.950 . S
C2161 C2160 1.327 . S
C2161 C2165 1.429 . S
C2162 C2145 1.574 . S
C2162 H2156 0.949 . S
C2162 C2166 1.368 . S
C2163 C2144 1.429 . S
C2163 C2157 1.429 . S
C2163 C2164 1.523 . S
C2164 C2145 1.368 . S
C2164 C2158 1.368 . S
C2164 C2163 1.523 . S
C2165 C2149 1.429 . S
C2165 C2161 1.429 . S
C2165 C2166 1.523 . S
C2166 C2150 1.368 . S
C2166 C2162 1.368 . S
C2166 C2165 1.523 . S
H2167 C2142 0.950 . S
H2168 C2144 0.950 . S
H2169 C2145 0.949 . S
H2170 C2147 0.950 . S
H2171 C2149 0.950 . S
C2172 C2173 1.349 . S
C2172 C2174 1.327 . S
C2172 H2197 0.950 . S
C2173 C2172 1.349 . S
C2173 C2189 1.349 . S
C2174 C2172 1.327 . S
C2174 C2193 1.429 . S
C2174 H2198 0.950 . S
C2175 C2192 1.574 . S
C2175 C2194 1.368 . S
C2175 H2199 0.949 . S
H2176 C2180 0.949 . S
C2177 C2178 1.349 . S
C2177 C2179 1.327 . S
C2177 H2200 0.950 . S
C2178 C2177 1.349 . S
C2178 C2190 1.349 . S
C2179 C2177 1.327 . S
C2179 C2195 1.429 . S
C2179 H2201 0.950 . S
C2180 H2176 0.949 . S
C2180 C2188 1.574 . S
C2180 C2196 1.368 . S
H2181 C2189 0.950 . S
H2182 C2187 0.950 . S
H2183 C2188 0.949 . S
H2184 C2190 0.950 . S
H2185 C2191 0.950 . S
H2186 C2192 0.949 . S
C2187 H2182 0.950 . S
C2187 C2189 1.327 . S
C2187 C2193 1.429 . S
C2188 C2180 1.574 . S
C2188 H2183 0.949 . S
C2188 C2194 1.368 . S
C2189 C2173 1.349 . S
C2189 H2181 0.950 . S
C2189 C2187 1.327 . S
C2190 C2178 1.349 . S
C2190 H2184 0.950 . S
C2190 C2191 1.327 . S
C2191 H2185 0.950 . S
C2191 C2190 1.327 . S
C2191 C2195 1.429 . S
C2192 C2175 1.574 . S
C2192 H2186 0.949 . S
C2192 C2196 1.368 . S
C2193 C2174 1.429 . S
C2193 C2187 1.429 . S
C2193 C2194 1.523 . S
C2194 C2175 1.368 . S
C2194 C2188 1.368 . S
C2194 C2193 1.523 . S
C2195 C2179 1.429 . S
C2195 C2191 1.429 . S
C2195 C2196 1.523 . S
C2196 C2180 1.368 . S
C2196 C2192 1.368 . S
C2196 C2195 1.523 . S
H2197 C2172 0.950 . S
H2198 C2174 0.950 . S
H2199 C2175 0.949 . S
H2200 C2177 0.950 . S
H2201 C2179 0.950 . S
C2202 C2203 1.349 . S
C2202 C2204 1.327 . S
C2202 H2227 0.950 . S
C2203 C2202 1.349 . S
C2203 C2219 1.349 . S
C2204 C2202 1.327 . S
C2204 C2223 1.429 . S
C2204 H2228 0.950 . S
C2205 C2222 1.574 . S
C2205 C2224 1.368 . S
C2205 H2229 0.949 . S
H2206 C2210 0.949 . S
C2207 C2208 1.349 . S
C2207 C2209 1.327 . S
C2207 H2230 0.950 . S
C2208 C2207 1.349 . S
C2208 C2220 1.349 . S
C2209 C2207 1.327 . S
C2209 C2225 1.429 . S
C2209 H2231 0.950 . S
C2210 H2206 0.949 . S
C2210 C2218 1.574 . S
C2210 C2226 1.368 . S
H2211 C2219 0.950 . S
H2212 C2217 0.950 . S
H2213 C2218 0.949 . S
H2214 C2220 0.950 . S
H2215 C2221 0.950 . S
H2216 C2222 0.949 . S
C2217 H2212 0.950 . S
C2217 C2219 1.327 . S
C2217 C2223 1.429 . S
C2218 C2210 1.574 . S
C2218 H2213 0.949 . S
C2218 C2224 1.368 . S
C2219 C2203 1.349 . S
C2219 H2211 0.950 . S
C2219 C2217 1.327 . S
C2220 C2208 1.349 . S
C2220 H2214 0.950 . S
C2220 C2221 1.327 . S
C2221 H2215 0.950 . S
C2221 C2220 1.327 . S
C2221 C2225 1.429 . S
C2222 C2205 1.574 . S
C2222 H2216 0.949 . S
C2222 C2226 1.368 . S
C2223 C2204 1.429 . S
C2223 C2217 1.429 . S
C2223 C2224 1.523 . S
C2224 C2205 1.368 . S
C2224 C2218 1.368 . S
C2224 C2223 1.523 . S
C2225 C2209 1.429 . S
C2225 C2221 1.429 . S
C2225 C2226 1.523 . S
C2226 C2210 1.368 . S
C2226 C2222 1.368 . S
C2226 C2225 1.523 . S
H2227 C2202 0.950 . S
H2228 C2204 0.950 . S
H2229 C2205 0.949 . S
H2230 C2207 0.950 . S
H2231 C2209 0.950 . S
C2232 C2233 1.349 . S
C2232 C2234 1.327 . S
C2232 H2257 0.950 . S
C2233 C2232 1.349 . S
C2233 C2249 1.349 . S
C2234 C2232 1.327 . S
C2234 C2253 1.429 . S
C2234 H2258 0.950 . S
C2235 C2252 1.574 . S
C2235 C2254 1.368 . S
C2235 H2259 0.949 . S
H2236 C2240 0.949 . S
C2237 C2238 1.349 . S
C2237 C2239 1.327 . S
C2237 H2260 0.950 . S
C2238 C2237 1.349 . S
C2238 C2250 1.349 . S
C2239 C2237 1.327 . S
C2239 C2255 1.429 . S
C2239 H2261 0.950 . S
C2240 H2236 0.949 . S
C2240 C2248 1.574 . S
C2240 C2256 1.368 . S
H2241 C2249 0.950 . S
H2242 C2247 0.950 . S
H2243 C2248 0.949 . S
H2244 C2250 0.950 . S
H2245 C2251 0.950 . S
H2246 C2252 0.949 . S
C2247 H2242 0.950 . S
C2247 C2249 1.327 . S
C2247 C2253 1.429 . S
C2248 C2240 1.574 . S
C2248 H2243 0.949 . S
C2248 C2254 1.368 . S
C2249 C2233 1.349 . S
C2249 H2241 0.950 . S
C2249 C2247 1.327 . S
C2250 C2238 1.349 . S
C2250 H2244 0.950 . S
C2250 C2251 1.327 . S
C2251 H2245 0.950 . S
C2251 C2250 1.327 . S
C2251 C2255 1.429 . S
C2252 C2235 1.574 . S
C2252 H2246 0.949 . S
C2252 C2256 1.368 . S
C2253 C2234 1.429 . S
C2253 C2247 1.429 . S
C2253 C2254 1.523 . S
C2254 C2235 1.368 . S
C2254 C2248 1.368 . S
C2254 C2253 1.523 . S
C2255 C2239 1.429 . S
C2255 C2251 1.429 . S
C2255 C2256 1.523 . S
C2256 C2240 1.368 . S
C2256 C2252 1.368 . S
C2256 C2255 1.523 . S
H2257 C2232 0.950 . S
H2258 C2234 0.950 . S
H2259 C2235 0.949 . S
H2260 C2237 0.950 . S
H2261 C2239 0.950 . S
C2262 C2263 1.349 . S
C2262 C2264 1.327 . S
C2262 H2287 0.950 . S
C2263 C2262 1.349 . S
C2263 C2279 1.349 . S
C2264 C2262 1.327 . S
C2264 C2283 1.429 . S
C2264 H2288 0.950 . S
C2265 C2282 1.574 . S
C2265 C2284 1.368 . S
C2265 H2289 0.949 . S
H2266 C2270 0.949 . S
C2267 C2268 1.349 . S
C2267 C2269 1.327 . S
C2267 H2290 0.950 . S
C2268 C2267 1.349 . S
C2268 C2280 1.349 . S
C2269 C2267 1.327 . S
C2269 C2285 1.429 . S
C2269 H2291 0.950 . S
C2270 H2266 0.949 . S
C2270 C2278 1.574 . S
C2270 C2286 1.368 . S
H2271 C2279 0.950 . S
H2272 C2277 0.950 . S
H2273 C2278 0.949 . S
H2274 C2280 0.950 . S
H2275 C2281 0.950 . S
H2276 C2282 0.949 . S
C2277 H2272 0.950 . S
C2277 C2279 1.327 . S
C2277 C2283 1.429 . S
C2278 C2270 1.574 . S
C2278 H2273 0.949 . S
C2278 C2284 1.368 . S
C2279 C2263 1.349 . S
C2279 H2271 0.950 . S
C2279 C2277 1.327 . S
C2280 C2268 1.349 . S
C2280 H2274 0.950 . S
C2280 C2281 1.327 . S
C2281 H2275 0.950 . S
C2281 C2280 1.327 . S
C2281 C2285 1.429 . S
C2282 C2265 1.574 . S
C2282 H2276 0.949 . S
C2282 C2286 1.368 . S
C2283 C2264 1.429 . S
C2283 C2277 1.429 . S
C2283 C2284 1.523 . S
C2284 C2265 1.368 . S
C2284 C2278 1.368 . S
C2284 C2283 1.523 . S
C2285 C2269 1.429 . S
C2285 C2281 1.429 . S
C2285 C2286 1.523 . S
C2286 C2270 1.368 . S
C2286 C2282 1.368 . S
C2286 C2285 1.523 . S
H2287 C2262 0.950 . S
H2288 C2264 0.950 . S
H2289 C2265 0.949 . S
H2290 C2267 0.950 . S
H2291 C2269 0.950 . S
C2292 C2293 1.349 . S
C2292 C2294 1.327 . S
C2292 H2317 0.950 . S
C2293 C2292 1.349 . S
C2293 C2309 1.349 . S
C2294 C2292 1.327 . S
C2294 C2313 1.429 . S
C2294 H2318 0.950 . S
C2295 C2312 1.574 . S
C2295 C2314 1.368 . S
C2295 H2319 0.949 . S
H2296 C2300 0.949 . S
C2297 C2298 1.349 . S
C2297 C2299 1.327 . S
C2297 H2320 0.950 . S
C2298 C2297 1.349 . S
C2298 C2310 1.349 . S
C2299 C2297 1.327 . S
C2299 C2315 1.429 . S
C2299 H2321 0.950 . S
C2300 H2296 0.949 . S
C2300 C2308 1.574 . S
C2300 C2316 1.368 . S
H2301 C2309 0.950 . S
H2302 C2307 0.950 . S
H2303 C2308 0.949 . S
H2304 C2310 0.950 . S
H2305 C2311 0.950 . S
H2306 C2312 0.949 . S
C2307 H2302 0.950 . S
C2307 C2309 1.327 . S
C2307 C2313 1.429 . S
C2308 C2300 1.574 . S
C2308 H2303 0.949 . S
C2308 C2314 1.368 . S
C2309 C2293 1.349 . S
C2309 H2301 0.950 . S
C2309 C2307 1.327 . S
C2310 C2298 1.349 . S
C2310 H2304 0.950 . S
C2310 C2311 1.327 . S
C2311 H2305 0.950 . S
C2311 C2310 1.327 . S
C2311 C2315 1.429 . S
C2312 C2295 1.574 . S
C2312 H2306 0.949 . S
C2312 C2316 1.368 . S
C2313 C2294 1.429 . S
C2313 C2307 1.429 . S
C2313 C2314 1.523 . S
C2314 C2295 1.368 . S
C2314 C2308 1.368 . S
C2314 C2313 1.523 . S
C2315 C2299 1.429 . S
C2315 C2311 1.429 . S
C2315 C2316 1.523 . S
C2316 C2300 1.368 . S
C2316 C2312 1.368 . S
C2316 C2315 1.523 . S
H2317 C2292 0.950 . S
H2318 C2294 0.950 . S
H2319 C2295 0.949 . S
H2320 C2297 0.950 . S
H2321 C2299 0.950 . S
C2322 C2323 1.349 . S
C2322 C2324 1.327 . S
C2322 H2347 0.950 . S
C2323 C2322 1.349 . S
C2323 C2339 1.349 . S
C2324 C2322 1.327 . S
C2324 C2343 1.429 . S
C2324 H2348 0.950 . S
C2325 C2342 1.574 . S
C2325 C2344 1.368 . S
C2325 H2349 0.949 . S
H2326 C2330 0.949 . S
C2327 C2328 1.349 . S
C2327 C2329 1.327 . S
C2327 H2350 0.950 . S
C2328 C2327 1.349 . S
C2328 C2340 1.349 . S
C2329 C2327 1.327 . S
C2329 C2345 1.429 . S
C2329 H2351 0.950 . S
C2330 H2326 0.949 . S
C2330 C2338 1.574 . S
C2330 C2346 1.368 . S
H2331 C2339 0.950 . S
H2332 C2337 0.950 . S
H2333 C2338 0.949 . S
H2334 C2340 0.950 . S
H2335 C2341 0.950 . S
H2336 C2342 0.949 . S
C2337 H2332 0.950 . S
C2337 C2339 1.327 . S
C2337 C2343 1.429 . S
C2338 C2330 1.574 . S
C2338 H2333 0.949 . S
C2338 C2344 1.368 . S
C2339 C2323 1.349 . S
C2339 H2331 0.950 . S
C2339 C2337 1.327 . S
C2340 C2328 1.349 . S
C2340 H2334 0.950 . S
C2340 C2341 1.327 . S
C2341 H2335 0.950 . S
C2341 C2340 1.327 . S
C2341 C2345 1.429 . S
C2342 C2325 1.574 . S
C2342 H2336 0.949 . S
C2342 C2346 1.368 . S
C2343 C2324 1.429 . S
C2343 C2337 1.429 . S
C2343 C2344 1.523 . S
C2344 C2325 1.368 . S
C2344 C2338 1.368 . S
C2344 C2343 1.523 . S
C2345 C2329 1.429 . S
C2345 C2341 1.429 . S
C2345 C2346 1.523 . S
C2346 C2330 1.368 . S
C2346 C2342 1.368 . S
C2346 C2345 1.523 . S
H2347 C2322 0.950 . S
H2348 C2324 0.950 . S
H2349 C2325 0.949 . S
H2350 C2327 0.950 . S
H2351 C2329 0.950 . S
C2352 C2353 1.349 . S
C2352 C2354 1.327 . S
C2352 H2377 0.950 . S
C2353 C2352 1.349 . S
C2353 C2369 1.349 . S
C2354 C2352 1.327 . S
C2354 C2373 1.429 . S
C2354 H2378 0.950 . S
C2355 C2372 1.574 . S
C2355 C2374 1.368 . S
C2355 H2379 0.949 . S
H2356 C2360 0.949 . S
C2357 C2358 1.349 . S
C2357 C2359 1.327 . S
C2357 H2380 0.950 . S
C2358 C2357 1.349 . S
C2358 C2370 1.349 . S
C2359 C2357 1.327 . S
C2359 C2375 1.429 . S
C2359 H2381 0.950 . S
C2360 H2356 0.949 . S
C2360 C2368 1.574 . S
C2360 C2376 1.368 . S
H2361 C2369 0.950 . S
H2362 C2367 0.950 . S
H2363 C2368 0.949 . S
H2364 C2370 0.950 . S
H2365 C2371 0.950 . S
H2366 C2372 0.949 . S
C2367 H2362 0.950 . S
C2367 C2369 1.327 . S
C2367 C2373 1.429 . S
C2368 C2360 1.574 . S
C2368 H2363 0.949 . S
C2368 C2374 1.368 . S
C2369 C2353 1.349 . S
C2369 H2361 0.950 . S
C2369 C2367 1.327 . S
C2370 C2358 1.349 . S
C2370 H2364 0.950 . S
C2370 C2371 1.327 . S
C2371 H2365 0.950 . S
C2371 C2370 1.327 . S
C2371 C2375 1.429 . S
C2372 C2355 1.574 . S
C2372 H2366 0.949 . S
C2372 C2376 1.368 . S
C2373 C2354 1.429 . S
C2373 C2367 1.429 . S
C2373 C2374 1.523 . S
C2374 C2355 1.368 . S
C2374 C2368 1.368 . S
C2374 C2373 1.523 . S
C2375 C2359 1.429 . S
C2375 C2371 1.429 . S
C2375 C2376 1.523 . S
C2376 C2360 1.368 . S
C2376 C2372 1.368 . S
C2376 C2375 1.523 . S
H2377 C2352 0.950 . S
H2378 C2354 0.950 . S
H2379 C2355 0.949 . S
H2380 C2357 0.950 . S
H2381 C2359 0.950 . S
C2382 C2383 1.349 . S
C2382 C2384 1.327 . S
C2382 H2407 0.950 . S
C2383 C2382 1.349 . S
C2383 C2399 1.349 . S
C2384 C2382 1.327 . S
C2384 C2403 1.429 . S
C2384 H2408 0.950 . S
C2385 C2402 1.574 . S
C2385 C2404 1.368 . S
C2385 H2409 0.949 . S
H2386 C2390 0.949 . S
C2387 C2388 1.349 . S
C2387 C2389 1.327 . S
C2387 H2410 0.950 . S
C2388 C2387 1.349 . S
C2388 C2400 1.349 . S
C2389 C2387 1.327 . S
C2389 C2405 1.429 . S
C2389 H2411 0.950 . S
C2390 H2386 0.949 . S
C2390 C2398 1.574 . S
C2390 C2406 1.368 . S
H2391 C2399 0.950 . S
H2392 C2397 0.950 . S
H2393 C2398 0.949 . S
H2394 C2400 0.950 . S
H2395 C2401 0.950 . S
H2396 C2402 0.949 . S
C2397 H2392 0.950 . S
C2397 C2399 1.327 . S
C2397 C2403 1.429 . S
C2398 C2390 1.574 . S
C2398 H2393 0.949 . S
C2398 C2404 1.368 . S
C2399 C2383 1.349 . S
C2399 H2391 0.950 . S
C2399 C2397 1.327 . S
C2400 C2388 1.349 . S
C2400 H2394 0.950 . S
C2400 C2401 1.327 . S
C2401 H2395 0.950 . S
C2401 C2400 1.327 . S
C2401 C2405 1.429 . S
C2402 C2385 1.574 . S
C2402 H2396 0.949 . S
C2402 C2406 1.368 . S
C2403 C2384 1.429 . S
C2403 C2397 1.429 . S
C2403 C2404 1.523 . S
C2404 C2385 1.368 . S
C2404 C2398 1.368 . S
C2404 C2403 1.523 . S
C2405 C2389 1.429 . S
C2405 C2401 1.429 . S
C2405 C2406 1.523 . S
C2406 C2390 1.368 . S
C2406 C2402 1.368 . S
C2406 C2405 1.523 . S
H2407 C2382 0.950 . S
H2408 C2384 0.950 . S
H2409 C2385 0.949 . S
H2410 C2387 0.950 . S
H2411 C2389 0.950 . S
C2412 C2413 1.349 . S
C2412 C2414 1.327 . S
C2412 H2437 0.950 . S
C2413 C2412 1.349 . S
C2413 C2429 1.349 . S
C2414 C2412 1.327 . S
C2414 C2433 1.429 . S
C2414 H2438 0.950 . S
C2415 C2432 1.574 . S
C2415 C2434 1.368 . S
C2415 H2439 0.949 . S
H2416 C2420 0.949 . S
C2417 C2418 1.349 . S
C2417 C2419 1.327 . S
C2417 H2440 0.950 . S
C2418 C2417 1.349 . S
C2418 C2430 1.349 . S
C2419 C2417 1.327 . S
C2419 C2435 1.429 . S
C2419 H2441 0.950 . S
C2420 H2416 0.949 . S
C2420 C2428 1.574 . S
C2420 C2436 1.368 . S
H2421 C2429 0.950 . S
H2422 C2427 0.950 . S
H2423 C2428 0.949 . S
H2424 C2430 0.950 . S
H2425 C2431 0.950 . S
H2426 C2432 0.949 . S
C2427 H2422 0.950 . S
C2427 C2429 1.327 . S
C2427 C2433 1.429 . S
C2428 C2420 1.574 . S
C2428 H2423 0.949 . S
C2428 C2434 1.368 . S
C2429 C2413 1.349 . S
C2429 H2421 0.950 . S
C2429 C2427 1.327 . S
C2430 C2418 1.349 . S
C2430 H2424 0.950 . S
C2430 C2431 1.327 . S
C2431 H2425 0.950 . S
C2431 C2430 1.327 . S
C2431 C2435 1.429 . S
C2432 C2415 1.574 . S
C2432 H2426 0.949 . S
C2432 C2436 1.368 . S
C2433 C2414 1.429 . S
C2433 C2427 1.429 . S
C2433 C2434 1.523 . S
C2434 C2415 1.368 . S
C2434 C2428 1.368 . S
C2434 C2433 1.523 . S
C2435 C2419 1.429 . S
C2435 C2431 1.429 . S
C2435 C2436 1.523 . S
C2436 C2420 1.368 . S
C2436 C2432 1.368 . S
C2436 C2435 1.523 . S
H2437 C2412 0.950 . S
H2438 C2414 0.950 . S
H2439 C2415 0.949 . S
H2440 C2417 0.950 . S
H2441 C2419 0.950 . S
C2442 C2443 1.349 . S
C2442 C2444 1.327 . S
C2442 H2467 0.950 . S
C2443 C2442 1.349 . S
C2443 C2459 1.349 . S
C2444 C2442 1.327 . S
C2444 C2463 1.429 . S
C2444 H2468 0.950 . S
C2445 C2462 1.574 . S
C2445 C2464 1.368 . S
C2445 H2469 0.949 . S
H2446 C2450 0.949 . S
C2447 C2448 1.349 . S
C2447 C2449 1.327 . S
C2447 H2470 0.950 . S
C2448 C2447 1.349 . S
C2448 C2460 1.349 . S
C2449 C2447 1.327 . S
C2449 C2465 1.429 . S
C2449 H2471 0.950 . S
C2450 H2446 0.949 . S
C2450 C2458 1.574 . S
C2450 C2466 1.368 . S
H2451 C2459 0.950 . S
H2452 C2457 0.950 . S
H2453 C2458 0.949 . S
H2454 C2460 0.950 . S
H2455 C2461 0.950 . S
H2456 C2462 0.949 . S
C2457 H2452 0.950 . S
C2457 C2459 1.327 . S
C2457 C2463 1.429 . S
C2458 C2450 1.574 . S
C2458 H2453 0.949 . S
C2458 C2464 1.368 . S
C2459 C2443 1.349 . S
C2459 H2451 0.950 . S
C2459 C2457 1.327 . S
C2460 C2448 1.349 . S
C2460 H2454 0.950 . S
C2460 C2461 1.327 . S
C2461 H2455 0.950 . S
C2461 C2460 1.327 . S
C2461 C2465 1.429 . S
C2462 C2445 1.574 . S
C2462 H2456 0.949 . S
C2462 C2466 1.368 . S
C2463 C2444 1.429 . S
C2463 C2457 1.429 . S
C2463 C2464 1.523 . S
C2464 C2445 1.368 . S
C2464 C2458 1.368 . S
C2464 C2463 1.523 . S
C2465 C2449 1.429 . S
C2465 C2461 1.429 . S
C2465 C2466 1.523 . S
C2466 C2450 1.368 . S
C2466 C2462 1.368 . S
C2466 C2465 1.523 . S
H2467 C2442 0.950 . S
H2468 C2444 0.950 . S
H2469 C2445 0.949 . S
H2470 C2447 0.950 . S
H2471 C2449 0.950 . S
C2472 C2473 1.349 . S
C2472 C2474 1.327 . S
C2472 H2497 0.950 . S
C2473 C2472 1.349 . S
C2473 C2489 1.349 . S
C2474 C2472 1.327 . S
C2474 C2493 1.429 . S
C2474 H2498 0.950 . S
C2475 C2492 1.574 . S
C2475 C2494 1.368 . S
C2475 H2499 0.949 . S
H2476 C2480 0.949 . S
C2477 C2478 1.349 . S
C2477 C2479 1.327 . S
C2477 H2500 0.950 . S
C2478 C2477 1.349 . S
C2478 C2490 1.349 . S
C2479 C2477 1.327 . S
C2479 C2495 1.429 . S
C2479 H2501 0.950 . S
C2480 H2476 0.949 . S
C2480 C2488 1.574 . S
C2480 C2496 1.368 . S
H2481 C2489 0.950 . S
H2482 C2487 0.950 . S
H2483 C2488 0.949 . S
H2484 C2490 0.950 . S
H2485 C2491 0.950 . S
H2486 C2492 0.949 . S
C2487 H2482 0.950 . S
C2487 C2489 1.327 . S
C2487 C2493 1.429 . S
C2488 C2480 1.574 . S
C2488 H2483 0.949 . S
C2488 C2494 1.368 . S
C2489 C2473 1.349 . S
C2489 H2481 0.950 . S
C2489 C2487 1.327 . S
C2490 C2478 1.349 . S
C2490 H2484 0.950 . S
C2490 C2491 1.327 . S
C2491 H2485 0.950 . S
C2491 C2490 1.327 . S
C2491 C2495 1.429 . S
C2492 C2475 1.574 . S
C2492 H2486 0.949 . S
C2492 C2496 1.368 . S
C2493 C2474 1.429 . S
C2493 C2487 1.429 . S
C2493 C2494 1.523 . S
C2494 C2475 1.368 . S
C2494 C2488 1.368 . S
C2494 C2493 1.523 . S
C2495 C2479 1.429 . S
C2495 C2491 1.429 . S
C2495 C2496 1.523 . S
C2496 C2480 1.368 . S
C2496 C2492 1.368 . S
C2496 C2495 1.523 . S
H2497 C2472 0.950 . S
H2498 C2474 0.950 . S
H2499 C2475 0.949 . S
H2500 C2477 0.950 . S
H2501 C2479 0.950 . S
C2502 C2503 1.349 . S
C2502 C2504 1.327 . S
C2502 H2527 0.950 . S
C2503 C2502 1.349 . S
C2503 C2519 1.349 . S
C2504 C2502 1.327 . S
C2504 C2523 1.429 . S
C2504 H2528 0.950 . S
C2505 C2522 1.574 . S
C2505 C2524 1.368 . S
C2505 H2529 0.949 . S
H2506 C2510 0.949 . S
C2507 C2508 1.349 . S
C2507 C2509 1.327 . S
C2507 H2530 0.950 . S
C2508 C2507 1.349 . S
C2508 C2520 1.349 . S
C2509 C2507 1.327 . S
C2509 C2525 1.429 . S
C2509 H2531 0.950 . S
C2510 H2506 0.949 . S
C2510 C2518 1.574 . S
C2510 C2526 1.368 . S
H2511 C2519 0.950 . S
H2512 C2517 0.950 . S
H2513 C2518 0.949 . S
H2514 C2520 0.950 . S
H2515 C2521 0.950 . S
H2516 C2522 0.949 . S
C2517 H2512 0.950 . S
C2517 C2519 1.327 . S
C2517 C2523 1.429 . S
C2518 C2510 1.574 . S
C2518 H2513 0.949 . S
C2518 C2524 1.368 . S
C2519 C2503 1.349 . S
C2519 H2511 0.950 . S
C2519 C2517 1.327 . S
C2520 C2508 1.349 . S
C2520 H2514 0.950 . S
C2520 C2521 1.327 . S
C2521 H2515 0.950 . S
C2521 C2520 1.327 . S
C2521 C2525 1.429 . S
C2522 C2505 1.574 . S
C2522 H2516 0.949 . S
C2522 C2526 1.368 . S
C2523 C2504 1.429 . S
C2523 C2517 1.429 . S
C2523 C2524 1.523 . S
C2524 C2505 1.368 . S
C2524 C2518 1.368 . S
C2524 C2523 1.523 . S
C2525 C2509 1.429 . S
C2525 C2521 1.429 . S
C2525 C2526 1.523 . S
C2526 C2510 1.368 . S
C2526 C2522 1.368 . S
C2526 C2525 1.523 . S
H2527 C2502 0.950 . S
H2528 C2504 0.950 . S
H2529 C2505 0.949 . S
H2530 C2507 0.950 . S
H2531 C2509 0.950 . S
C2532 C2533 1.349 . S
C2532 C2534 1.327 . S
C2532 H2557 0.950 . S
C2533 C2532 1.349 . S
C2533 C2549 1.349 . S
C2534 C2532 1.327 . S
C2534 C2553 1.429 . S
C2534 H2558 0.950 . S
C2535 C2552 1.574 . S
C2535 C2554 1.368 . S
C2535 H2559 0.949 . S
H2536 C2540 0.949 . S
C2537 C2538 1.349 . S
C2537 C2539 1.327 . S
C2537 H2560 0.950 . S
C2538 C2537 1.349 . S
C2538 C2550 1.349 . S
C2539 C2537 1.327 . S
C2539 C2555 1.429 . S
C2539 H2561 0.950 . S
C2540 H2536 0.949 . S
C2540 C2548 1.574 . S
C2540 C2556 1.368 . S
H2541 C2549 0.950 . S
H2542 C2547 0.950 . S
H2543 C2548 0.949 . S
H2544 C2550 0.950 . S
H2545 C2551 0.950 . S
H2546 C2552 0.949 . S
C2547 H2542 0.950 . S
C2547 C2549 1.327 . S
C2547 C2553 1.429 . S
C2548 C2540 1.574 . S
C2548 H2543 0.949 . S
C2548 C2554 1.368 . S
C2549 C2533 1.349 . S
C2549 H2541 0.950 . S
C2549 C2547 1.327 . S
C2550 C2538 1.349 . S
C2550 H2544 0.950 . S
C2550 C2551 1.327 . S
C2551 H2545 0.950 . S
C2551 C2550 1.327 . S
C2551 C2555 1.429 . S
C2552 C2535 1.574 . S
C2552 H2546 0.949 . S
C2552 C2556 1.368 . S
C2553 C2534 1.429 . S
C2553 C2547 1.429 . S
C2553 C2554 1.523 . S
C2554 C2535 1.368 . S
C2554 C2548 1.368 . S
C2554 C2553 1.523 . S
C2555 C2539 1.429 . S
C2555 C2551 1.429 . S
C2555 C2556 1.523 . S
C2556 C2540 1.368 . S
C2556 C2552 1.368 . S
C2556 C2555 1.523 . S
H2557 C2532 0.950 . S
H2558 C2534 0.950 . S
H2559 C2535 0.949 . S
H2560 C2537 0.950 . S
H2561 C2539 0.950 . S
C2562 C2563 1.349 . S
C2562 C2564 1.327 . S
C2562 H2587 0.950 . S
C2563 C2562 1.349 . S
C2563 C2579 1.349 . S
C2564 C2562 1.327 . S
C2564 C2583 1.429 . S
C2564 H2588 0.950 . S
C2565 C2582 1.574 . S
C2565 C2584 1.368 . S
C2565 H2589 0.949 . S
H2566 C2570 0.949 . S
C2567 C2568 1.349 . S
C2567 C2569 1.327 . S
C2567 H2590 0.950 . S
C2568 C2567 1.349 . S
C2568 C2580 1.349 . S
C2569 C2567 1.327 . S
C2569 C2585 1.429 . S
C2569 H2591 0.950 . S
C2570 H2566 0.949 . S
C2570 C2578 1.574 . S
C2570 C2586 1.368 . S
H2571 C2579 0.950 . S
H2572 C2577 0.950 . S
H2573 C2578 0.949 . S
H2574 C2580 0.950 . S
H2575 C2581 0.950 . S
H2576 C2582 0.949 . S
C2577 H2572 0.950 . S
C2577 C2579 1.327 . S
C2577 C2583 1.429 . S
C2578 C2570 1.574 . S
C2578 H2573 0.949 . S
C2578 C2584 1.368 . S
C2579 C2563 1.349 . S
C2579 H2571 0.950 . S
C2579 C2577 1.327 . S
C2580 C2568 1.349 . S
C2580 H2574 0.950 . S
C2580 C2581 1.327 . S
C2581 H2575 0.950 . S
C2581 C2580 1.327 . S
C2581 C2585 1.429 . S
C2582 C2565 1.574 . S
C2582 H2576 0.949 . S
C2582 C2586 1.368 . S
C2583 C2564 1.429 . S
C2583 C2577 1.429 . S
C2583 C2584 1.523 . S
C2584 C2565 1.368 . S
C2584 C2578 1.368 . S
C2584 C2583 1.523 . S
C2585 C2569 1.429 . S
C2585 C2581 1.429 . S
C2585 C2586 1.523 . S
C2586 C2570 1.368 . S
C2586 C2582 1.368 . S
C2586 C2585 1.523 . S
H2587 C2562 0.950 . S
H2588 C2564 0.950 . S
H2589 C2565 0.949 . S
H2590 C2567 0.950 . S
H2591 C2569 0.950 . S
C793 C186 0.760 . S
C798 C21 0.760 . S
C823 C54 0.760 . S
C828 C219 0.760 . S
C853 C87 0.760 . S
C858 C252 0.760 . S
C883 C153 0.760 . S
C888 C120 0.760 . S
C913 C285 0.760 . S
C918 C780 0.760 . S
C943 C714 0.760 . S
C948 C318 0.760 . S
C973 C351 0.760 . S
C978 C747 0.760 . S
C1003 C549 0.760 . S
C1008 C384 0.760 . S
C1033 C417 0.760 . S
C1038 C681 0.760 . S
C1063 C450 0.760 . S
C1068 C582 0.760 . S
C1093 C615 0.760 . S
C1098 C483 0.760 . S
C1123 C516 0.760 . S
C1128 C648 0.760 . S
C1153 N101 1.653 . S
C1158 C7 1.710 . S
C1183 C40 1.710 . S
C1188 N2 1.653 . S
C1213 C73 1.710 . S
C1218 N35 1.653 . S
C1243 N68 1.653 . S
C1248 C106 1.710 . S
C1273 N167 1.653 . S
C1278 C139 1.710 . S
C1303 C172 1.710 . S
C1308 N200 1.653 . S
C1333 N233 1.653 . S
C1338 C205 1.710 . S
C1363 N134 1.653 . S
C1368 C238 1.710 . S
C1393 N596 1.653 . S
C1398 C271 1.710 . S
C1423 C304 1.710 . S
C1428 N629 1.653 . S
C1453 N662 1.653 . S
C1458 C337 1.710 . S
C1483 C370 1.710 . S
C1488 N563 1.653 . S
C1513 N728 1.653 . S
C1518 C403 1.710 . S
C1543 C436 1.710 . S
C1548 N530 1.653 . S
C1573 N761 1.653 . S
C1578 C469 1.710 . S
C1603 C502 1.710 . S
C1608 N695 1.653 . S
C1633 N299 1.653 . S
C1638 C535 1.710 . S
C1663 N497 1.653 . S
C1668 C568 1.710 . S
C1693 C601 1.710 . S
C1698 N398 1.653 . S
C1723 C634 1.710 . S
C1728 N431 1.653 . S
C1753 N464 1.653 . S
C1758 C667 1.710 . S
C1783 N365 1.653 . S
C1788 C700 1.710 . S
C1813 N266 1.653 . S
C1818 C733 1.710 . S
C1843 C766 1.710 . S
C1848 N332 1.653 . S
C1873 C18 1.118 . S
C1878 N541 1.065 . S
C1903 N772 1.065 . S
C1908 C51 1.118 . S
C1933 C84 1.118 . S
C1938 N706 1.065 . S
C1963 N739 1.065 . S
C1968 C117 1.118 . S
C1993 C150 1.118 . S
C1998 N574 1.065 . S
C2023 C183 1.118 . S
C2028 N607 1.065 . S
C2053 N640 1.065 . S
C2058 C216 1.118 . S
C2083 N673 1.065 . S
C2088 C249 1.118 . S
C2113 N13 1.065 . S
C2118 C282 1.118 . S
C2143 C315 1.118 . S
C2148 N46 1.065 . S
C2173 C348 1.118 . S
C2178 N79 1.065 . S
C2203 C381 1.118 . S
C2208 N112 1.065 . S
C2233 C414 1.118 . S
C2238 N145 1.065 . S
C2263 C447 1.118 . S
C2268 N178 1.065 . S
C2293 C480 1.118 . S
C2298 N211 1.065 . S
C2323 C513 1.118 . S
C2328 N244 1.065 . S
C2353 N277 1.065 . S
C2358 C546 1.118 . S
C2383 C579 1.118 . S
C2388 N409 1.065 . S
C2413 C612 1.118 . S
C2418 N442 1.065 . S
C2443 N475 1.065 . S
C2448 C645 1.118 . S
C2473 C678 1.118 . S
C2478 N508 1.065 . S
C2503 N343 1.065 . S
C2508 C711 1.118 . S
C2533 N376 1.065 . S
C2538 C744 1.118 . S
C2563 C777 1.118 . S
C2568 N310 1.065 . S
