# Generated by pormake.
# Topology umc, (4)-cn, num edge types: 1
# Building blocks:
#     Node 0, Type 0, BuildingBlock: QUQFOY_clean_sbu_1, # of connection points: 4
#     Node 1, Type 0, BuildingBlock: QUQFOY_clean_sbu_1, # of connection points: 4
#     Node 2, Type 0, BuildingBlock: QUQFOY_clean_sbu_1, # of connection points: 4
#     Node 3, Type 0, BuildingBlock: QUQFOY_clean_sbu_1, # of connection points: 4
#     Node 4, Type 0, BuildingBlock: QUQFOY_clean_sbu_1, # of connection points: 4
#     Node 5, Type 0, BuildingBlock: QUQFOY_clean_sbu_1, # of connection points: 4
#     Node 6, Type 0, BuildingBlock: QUQFOY_clean_sbu_1, # of connection points: 4
#     Node 7, Type 0, BuildingBlock: QUQFOY_clean_sbu_1, # of connection points: 4
#     Node 8, Type 0, BuildingBlock: QUQFOY_clean_sbu_1, # of connection points: 4
#     Node 9, Type 0, BuildingBlock: QUQFOY_clean_sbu_1, # of connection points: 4
#     Node 10, Type 0, BuildingBlock: QUQFOY_clean_sbu_1, # of connection points: 4
#     Node 11, Type 0, BuildingBlock: QUQFOY_clean_sbu_1, # of connection points: 4
#     Node 12, Type 0, BuildingBlock: QUQFOY_clean_sbu_1, # of connection points: 4
#     Node 13, Type 0, BuildingBlock: QUQFOY_clean_sbu_1, # of connection points: 4
#     Node 14, Type 0, BuildingBlock: QUQFOY_clean_sbu_1, # of connection points: 4
#     Node 15, Type 0, BuildingBlock: QUQFOY_clean_sbu_1, # of connection points: 4
#     Edge 16, Type (0, 0), BuildingBlock: CIFDUS_clean_linker_0, # of connection points: 2
#     Edge 17, Type (0, 0), BuildingBlock: CIFDUS_clean_linker_0, # of connection points: 2
#     Edge 18, Type (0, 0), BuildingBlock: CIFDUS_clean_linker_0, # of connection points: 2
#     Edge 19, Type (0, 0), BuildingBlock: CIFDUS_clean_linker_0, # of connection points: 2
#     Edge 20, Type (0, 0), BuildingBlock: CIFDUS_clean_linker_0, # of connection points: 2
#     Edge 21, Type (0, 0), BuildingBlock: CIFDUS_clean_linker_0, # of connection points: 2
#     Edge 22, Type (0, 0), BuildingBlock: CIFDUS_clean_linker_0, # of connection points: 2
#     Edge 23, Type (0, 0), BuildingBlock: CIFDUS_clean_linker_0, # of connection points: 2
#     Edge 24, Type (0, 0), BuildingBlock: CIFDUS_clean_linker_0, # of connection points: 2
#     Edge 25, Type (0, 0), BuildingBlock: CIFDUS_clean_linker_0, # of connection points: 2
#     Edge 26, Type (0, 0), BuildingBlock: CIFDUS_clean_linker_0, # of connection points: 2
#     Edge 27, Type (0, 0), BuildingBlock: CIFDUS_clean_linker_0, # of connection points: 2
#     Edge 28, Type (0, 0), BuildingBlock: CIFDUS_clean_linker_0, # of connection points: 2
#     Edge 29, Type (0, 0), BuildingBlock: CIFDUS_clean_linker_0, # of connection points: 2
#     Edge 30, Type (0, 0), BuildingBlock: CIFDUS_clean_linker_0, # of connection points: 2
#     Edge 31, Type (0, 0), BuildingBlock: CIFDUS_clean_linker_0, # of connection points: 2
#     Edge 32, Type (0, 0), BuildingBlock: CIFDUS_clean_linker_0, # of connection points: 2
#     Edge 33, Type (0, 0), BuildingBlock: CIFDUS_clean_linker_0, # of connection points: 2
#     Edge 34, Type (0, 0), BuildingBlock: CIFDUS_clean_linker_0, # of connection points: 2
#     Edge 35, Type (0, 0), BuildingBlock: CIFDUS_clean_linker_0, # of connection points: 2
#     Edge 36, Type (0, 0), BuildingBlock: CIFDUS_clean_linker_0, # of connection points: 2
#     Edge 37, Type (0, 0), BuildingBlock: CIFDUS_clean_linker_0, # of connection points: 2
#     Edge 38, Type (0, 0), BuildingBlock: CIFDUS_clean_linker_0, # of connection points: 2
#     Edge 39, Type (0, 0), BuildingBlock: CIFDUS_clean_linker_0, # of connection points: 2
#     Edge 40, Type (0, 0), BuildingBlock: CIFDUS_clean_linker_0, # of connection points: 2
#     Edge 41, Type (0, 0), BuildingBlock: CIFDUS_clean_linker_0, # of connection points: 2
#     Edge 42, Type (0, 0), BuildingBlock: CIFDUS_clean_linker_0, # of connection points: 2
#     Edge 43, Type (0, 0), BuildingBlock: CIFDUS_clean_linker_0, # of connection points: 2
#     Edge 44, Type (0, 0), BuildingBlock: CIFDUS_clean_linker_0, # of connection points: 2
#     Edge 45, Type (0, 0), BuildingBlock: CIFDUS_clean_linker_0, # of connection points: 2
#     Edge 46, Type (0, 0), BuildingBlock: CIFDUS_clean_linker_0, # of connection points: 2
#     Edge 47, Type (0, 0), BuildingBlock: CIFDUS_clean_linker_0, # of connection points: 2
# Relax obj value: 0.042
# Max RMSD: 0.113
# Mean RMSD: 0.113
data_MOF--net-umc--node1-QUQFOY_clean_sbu_1--edge1-CIFDUS_clean_linker_0
_symmetry_space_group_name_H-M    P1
_symmetry_Int_Tables_number       1
_symmetry_cell_setting            triclinic
loop_
_symmetry_equiv_pos_as_xyz
'x, y, z'
_cell_length_a     35.200977
_cell_length_b     35.335395
_cell_length_c     49.751371
_cell_angle_alpha  89.935661
_cell_angle_beta   89.988288
_cell_angle_gamma 89.499236
loop_
_atom_site_label
_atom_site_type_symbol
_atom_site_fract_x
_atom_site_fract_y
_atom_site_fract_z
_atom_type_partial_charge
O0 O 0.32493 0.12316 0.42935 0.0
Cd1 Cd 0.34193 0.13221 0.39025 0.0
Cd2 Cd 0.31084 0.06182 0.38672 0.0
O3 O 0.2899 0.07189 0.42507 0.0
O4 O 0.3501 0.18864 0.38747 0.0
O5 O 0.30269 0.15936 0.36762 0.0
C6 C 0.31903 0.19064 0.37375 0.0
C7 C 0.27723 0.05862 0.34655 0.0
C8 C 0.30252 0.09886 0.43939 0.0
C9 C 0.39511 0.06673 0.37871 0.0
O10 O 0.36695 0.04571 0.38407 0.0
O11 O 0.39075 0.10264 0.37749 0.0
O12 O 0.27964 1.02931 0.36209 0.0
O13 O 0.29159 0.08987 0.35496 0.0
O14 O 0.68557 0.94954 0.42899 0.0
Cd15 Cd 0.66849 0.938 0.39012 0.0
Cd16 Cd 0.69813 1.00641 0.38297 0.0
O17 O 0.72028 1.00015 0.42138 0.0
O18 O 0.66132 0.8817 0.38882 0.0
O19 O 0.70762 0.91071 0.36729 0.0
C20 C 0.69169 0.87944 0.37437 0.0
C21 C 0.73131 1.02002 0.34361 0.0
C22 C 0.70801 0.97496 0.43743 0.0
C23 C 0.61356 1.0006 0.37714 0.0
O24 O 0.64181 1.02206 0.38094 0.0
O25 O 0.6182 0.96474 0.37733 0.0
O26 O 0.72563 0.04557 0.36175 0.0
O27 O 0.72094 0.98582 0.34896 0.0
O28 O 0.32745 0.94036 0.11271 0.0
Cd29 Cd 0.34507 0.93311 0.15185 0.0
Cd30 Cd 0.31199 1.00386 0.1539 0.0
O31 O 0.29187 0.99208 0.11559 0.0
O32 O 0.35475 0.87692 0.15563 0.0
O33 O 0.30726 0.90683 0.17556 0.0
C34 C 0.32412 0.87539 0.16983 0.0
C35 C 0.27772 1.0077 0.1938 0.0
C36 C 0.30483 0.96428 0.102 0.0
C37 C 0.39642 0.99927 0.16235 0.0
O38 O 0.36779 1.02009 0.15683 0.0
O39 O 0.393 0.96338 0.16381 0.0
O40 O 0.2797 0.03674 0.17801 0.0
O41 O 0.29288 0.97638 0.18575 0.0
O42 O 0.67891 0.1265 0.10804 0.0
Cd43 Cd 0.66437 0.13231 0.14802 0.0
Cd44 Cd 0.6963 0.06331 0.14845 0.0
O45 O 0.71599 0.07588 0.11011 0.0
O46 O 0.6554 0.1881 0.15315 0.0
O47 O 0.70416 0.15734 0.17096 0.0
C48 C 0.68686 0.18907 0.16642 0.0
C49 C 0.73092 0.04899 0.18704 0.0
C50 C 0.70167 0.10327 0.09675 0.0
C51 C 0.6125 0.06729 0.1584 0.0
O52 O 0.64059 0.04686 0.15122 0.0
O53 O 0.61644 0.10294 0.1611 0.0
O54 O 0.72665 1.02412 0.16827 0.0
O55 O 0.71854 0.08296 0.18259 0.0
O56 O 0.67735 0.93384 0.60701 0.0
Cd57 Cd 0.66014 0.92649 0.6463 0.0
Cd58 Cd 0.69216 0.99659 0.64835 0.0
O59 O 0.7129 0.98489 0.61008 0.0
O60 O 0.64987 0.87055 0.64967 0.0
O61 O 0.69773 0.89867 0.66984 0.0
C62 C 0.68035 0.86783 0.66396 0.0
C63 C 0.72527 1.00067 0.68873 0.0
C64 C 0.69986 0.95751 0.59633 0.0
C65 C 0.60803 0.99302 0.65669 0.0
O66 O 0.63625 1.01358 0.65064 0.0
O67 O 0.61211 0.95718 0.65871 0.0
O68 O 0.7234 1.02949 0.6727 0.0
O69 O 0.71087 0.96924 0.68065 0.0
O70 O 0.3169 0.10437 0.60584 0.0
Cd71 Cd 0.33419 0.11871 0.64402 0.0
Cd72 Cd 0.30501 0.04752 0.6527 0.0
O73 O 0.28394 0.05252 0.61386 0.0
O74 O 0.33696 0.17594 0.64507 0.0
O75 O 0.29333 0.14287 0.66633 0.0
C76 C 0.3062 0.17536 0.65922 0.0
C77 C 0.27113 0.04435 0.69284 0.0
C78 C 0.29537 0.07799 0.59768 0.0
C79 C 0.38947 0.05705 0.65942 0.0
O80 O 0.36179 0.03462 0.65619 0.0
O81 O 0.38426 0.09281 0.65787 0.0
O82 O 0.27592 1.01433 0.67834 0.0
O83 O 0.2832 0.076 0.68339 0.0
O84 O 0.68286 0.11361 0.92977 0.0
Cd85 Cd 0.66378 0.12655 0.89159 0.0
Cd86 Cd 0.69508 0.05755 0.883 0.0
O87 O 0.7181 0.06299 0.92124 0.0
O88 O 0.65528 0.18306 0.89127 0.0
O89 O 0.70109 0.15467 0.86842 0.0
C90 C 0.68499 0.18568 0.8762 0.0
C91 C 0.72667 0.05392 0.84189 0.0
C92 C 0.70593 0.08797 0.93765 0.0
C93 C 0.6103 0.06346 0.87845 0.0
O94 O 0.63903 0.04183 0.88148 0.0
O95 O 0.61424 0.09932 0.87909 0.0
O96 O 0.72428 1.0245 0.85728 0.0
O97 O 0.71367 0.08569 0.85096 0.0
O98 O 0.32116 0.95214 0.93576 0.0
Cd99 Cd 0.33979 0.93751 0.89781 0.0
Cd100 Cd 0.30773 1.00662 0.88802 0.0
O101 O 0.28596 1.00265 0.92662 0.0
O102 O 0.34894 0.88099 0.89869 0.0
O103 O 0.30206 0.90799 0.87607 0.0
C104 C 0.31873 0.8775 0.88423 0.0
C105 C 0.27462 1.00545 0.84756 0.0
C106 C 0.29828 0.97813 0.94333 0.0
C107 C 0.39227 1.00072 0.88202 0.0
O108 O 0.36359 1.02245 0.88497 0.0
O109 O 0.3885 0.96488 0.88376 0.0
O110 O 0.27666 0.0364 0.86133 0.0
O111 O 0.28912 0.97512 0.85788 0.0
O112 O 0.8274 0.62892 0.43365 0.0
Cd113 Cd 0.84256 0.63556 0.39382 0.0
Cd114 Cd 0.81124 0.56703 0.39233 0.0
O115 O 0.79054 0.57888 0.43051 0.0
O116 O 0.85099 0.69146 0.38924 0.0
O117 O 0.80262 0.66157 0.37096 0.0
C118 C 0.81959 0.69306 0.37589 0.0
C119 C 0.77804 0.55319 0.35318 0.0
C120 C 0.80452 0.60564 0.44437 0.0
C121 C 0.89515 0.56991 0.38358 0.0
O122 O 0.86697 0.54981 0.39036 0.0
O123 O 0.89109 0.60566 0.38095 0.0
O124 O 0.78177 0.52826 0.37206 0.0
O125 O 0.79 0.58705 0.35783 0.0
O126 O 0.18203 0.44037 0.43013 0.0
Cd127 Cd 0.16412 0.43184 0.39122 0.0
Cd128 Cd 0.19599 0.50204 0.3875 0.0
O129 O 0.21719 0.49158 0.42575 0.0
O130 O 0.15554 0.37548 0.38833 0.0
O131 O 0.20273 0.40472 0.36812 0.0
C132 C 0.18636 0.37346 0.37433 0.0
C133 C 0.22871 0.50537 0.34698 0.0
C134 C 0.20467 0.4645 0.44006 0.0
C135 C 0.1116 0.49809 0.38016 0.0
O136 O 0.14012 0.51875 0.3852 0.0
O137 O 0.1154 0.46212 0.37904 0.0
O138 O 0.22699 0.53451 0.36268 0.0
O139 O 0.21439 0.47412 0.35549 0.0
O140 O 0.82309 0.44324 0.11246 0.0
Cd141 Cd 0.83976 0.42987 0.1512 0.0
Cd142 Cd 0.81861 0.50219 0.15827 0.0
O143 O 0.79634 0.49898 0.11976 0.0
O144 O 0.84454 0.37334 0.15142 0.0
O145 O 0.80046 0.40408 0.1745 0.0
C146 C 0.81507 0.37226 0.16676 0.0
C147 C 0.78575 0.51981 0.19705 0.0
C148 C 0.80456 0.47188 0.10389 0.0
C149 C 0.90159 0.48496 0.16415 0.0
O150 O 0.87634 0.51043 0.1608 0.0
O151 O 0.89248 0.45015 0.16346 0.0
O152 O 0.79496 0.54447 0.17905 0.0
O153 O 0.7927 0.48454 0.19194 0.0
O154 O 0.18285 0.63037 0.11384 0.0
Cd155 Cd 0.1668 0.63922 0.15318 0.0
Cd156 Cd 0.18943 0.5652 0.15464 0.0
O157 O 0.21054 0.57412 0.11623 0.0
O158 O 0.16072 0.69578 0.15614 0.0
O159 O 0.2067 0.66388 0.17634 0.0
C160 C 0.19134 0.696 0.17035 0.0
C161 C 0.22358 0.55915 0.19442 0.0
C162 C 0.20161 0.60362 0.10284 0.0
C163 C 0.10691 0.5802 0.16399 0.0
O164 O 0.13204 0.55556 0.15792 0.0
O165 O 0.11571 0.61509 0.16562 0.0
O166 O 0.21851 0.53007 0.17909 0.0
O167 O 0.21147 0.59161 0.18601 0.0
O168 O 0.19109 0.4507 0.60653 0.0
Cd169 Cd 0.17578 0.4342 0.64476 0.0
Cd170 Cd 0.19239 0.50793 0.65327 0.0
O171 O 0.2155 0.50685 0.61491 0.0
O172 O 0.177 0.37715 0.6444 0.0
O173 O 0.21852 0.4116 0.66662 0.0
C174 C 0.20742 0.37876 0.65879 0.0
C175 C 0.224 0.51369 0.69406 0.0
C176 C 0.20849 0.48008 0.59857 0.0
C177 C 0.11095 0.48656 0.65928 0.0
O178 O 0.13432 0.51334 0.65574 0.0
O179 O 0.12237 0.4522 0.65834 0.0
O180 O 0.21638 0.54336 0.67971 0.0
O181 O 0.21606 0.48101 0.6841 0.0
O182 O 0.81991 0.61407 0.61214 0.0
Cd183 Cd 0.83584 0.62634 0.65109 0.0
Cd184 Cd 0.81771 0.55398 0.65687 0.0
O185 O 0.79375 0.55838 0.61884 0.0
O186 O 0.83941 0.68283 0.6519 0.0
O187 O 0.79547 0.65138 0.67418 0.0
C188 C 0.80956 0.6834 0.66689 0.0
C189 C 0.78701 0.53857 0.69685 0.0
C190 C 0.8015 0.58588 0.60327 0.0
C191 C 0.89978 0.57191 0.66264 0.0
O192 O 0.87574 0.54605 0.65819 0.0
O193 O 0.88899 0.60642 0.66336 0.0
O194 O 0.79491 0.51299 0.67911 0.0
O195 O 0.79391 0.57345 0.69082 0.0
O196 O 0.18542 0.61813 0.93666 0.0
Cd197 Cd 0.16732 0.63419 0.89885 0.0
Cd198 Cd 0.18962 0.56216 0.88926 0.0
O199 O 0.21288 0.56319 0.9275 0.0
O200 O 0.16162 0.69087 0.90046 0.0
O201 O 0.20612 0.66209 0.87658 0.0
C202 C 0.1912 0.69317 0.88528 0.0
C203 C 0.22131 0.56018 0.84831 0.0
C204 C 0.20466 0.58934 0.94416 0.0
C205 C 0.10661 0.57776 0.88448 0.0
O206 O 0.13224 0.55245 0.88701 0.0
O207 O 0.11519 0.6127 0.88608 0.0
O208 O 0.21656 0.52961 0.86221 0.0
O209 O 0.21048 0.59188 0.8588 0.0
O210 O 0.82834 0.42942 0.93348 0.0
Cd211 Cd 0.84234 0.42218 0.89356 0.0
Cd212 Cd 0.81996 0.49445 0.89317 0.0
O213 O 0.79833 0.48442 0.93138 0.0
O214 O 0.84745 0.36593 0.88919 0.0
O215 O 0.80094 0.39929 0.87072 0.0
C216 C 0.81622 0.36669 0.87566 0.0
C217 C 0.78745 0.5101 0.85392 0.0
C218 C 0.80876 0.45536 0.94474 0.0
C219 C 0.90239 0.48038 0.88369 0.0
O220 O 0.87734 0.50443 0.89086 0.0
O221 O 0.8935 0.44571 0.88078 0.0
O222 O 0.79363 0.53528 0.87222 0.0
O223 O 0.79685 0.47542 0.85916 0.0
H224 H 0.27991 0.04263 0.4739 0.0
H225 H 0.30506 0.16192 0.47009 0.0
H226 H 0.30058 0.16653 0.51873 0.0
H227 H 0.29692 0.13583 0.56238 0.0
H228 H 0.27367 1.01645 0.5677 0.0
H229 H 0.26933 1.01285 0.51855 0.0
C230 C 0.28366 0.06972 0.48373 0.0
C231 C 0.29335 0.10176 0.46838 0.0
C232 C 0.28173 0.07212 0.512 0.0
C233 C 0.29814 0.13669 0.48142 0.0
C234 C 0.29559 0.1394 0.50927 0.0
C235 C 0.29046 0.10904 0.55285 0.0
C236 C 0.2862 0.07636 0.56864 0.0
C237 C 0.28864 0.10712 0.52477 0.0
C238 C 0.27718 0.04203 0.55598 0.0
C239 C 0.27493 0.03993 0.52787 0.0
H240 H 0.72567 1.01153 0.56103 0.0
H241 H 0.69279 0.89427 0.56609 0.0
H242 H 0.69641 0.88851 0.51749 0.0
H243 H 0.70191 0.91803 0.47343 0.0
H244 H 0.73362 0.0353 0.467 0.0
H245 H 0.73804 0.03959 0.51608 0.0
C246 C 0.72 0.98458 0.5515 0.0
C247 C 0.70842 0.95355 0.56724 0.0
C248 C 0.72158 0.98149 0.52323 0.0
C249 C 0.70121 0.9188 0.55452 0.0
C250 C 0.70325 0.91542 0.52667 0.0
C251 C 0.71024 0.94447 0.48271 0.0
C252 C 0.71691 0.97641 0.46657 0.0
C253 C 0.71224 0.94682 0.51081 0.0
C254 C 0.72824 1.01026 0.47894 0.0
C255 C 0.73056 1.01279 0.50704 0.0
H256 H 0.28041 1.01852 0.06617 0.0
H257 H 0.30971 0.89992 0.07273 0.0
H258 H 0.30587 0.89309 0.02422 0.0
H259 H 0.30168 0.92182 0.97986 0.0
H260 H 0.27388 0.04038 0.97185 0.0
H261 H 0.26899 0.04605 1.02086 0.0
C262 C 0.28521 0.99108 0.05697 0.0
C263 C 0.29591 0.95993 0.07307 0.0
C264 C 0.28357 0.98737 0.02877 0.0
C265 C 0.30201 0.92452 0.06084 0.0
C266 C 0.29983 0.92053 0.03305 0.0
C267 C 0.29408 0.94885 0.98878 0.0
C268 C 0.28872 0.98073 0.97227 0.0
C269 C 0.29188 0.95196 1.01681 0.0
C270 C 0.27825 1.01539 0.98413 0.0
C271 C 0.27569 1.01869 1.01217 0.0
H272 H 0.6992 0.14429 0.97404 0.0
H273 H 0.73411 1.02748 0.96657 0.0
H274 H 0.73993 1.02263 1.01558 0.0
H275 H 0.72797 0.05002 0.06083 0.0
H276 H 0.69144 0.1667 0.06689 0.0
H277 H 0.69366 0.1731 1.01828 0.0
C278 C 0.70852 0.11782 0.98306 0.0
C279 C 0.71571 0.08617 0.96666 0.0
C280 C 0.71123 0.11512 1.01111 0.0
C281 C 0.72831 0.05229 0.97871 0.0
C282 C 0.73142 0.04945 1.00676 0.0
C283 C 0.72117 0.07699 0.0515 0.0
C284 C 0.70905 0.10767 0.06754 0.0
C285 C 0.72192 0.08042 0.02324 0.0
C286 C 0.70035 0.14244 0.05509 0.0
C287 C 0.7016 0.14619 0.02723 0.0
H288 H 0.8043 0.64353 0.56749 0.0
H289 H 0.77824 0.52474 0.57345 0.0
H290 H 0.77247 0.52105 0.52444 0.0
H291 H 0.78191 0.55036 0.47958 0.0
H292 H 0.81033 0.66879 0.47486 0.0
H293 H 0.80775 0.67379 0.5236 0.0
C294 C 0.79695 0.61684 0.55817 0.0
C295 C 0.79222 0.58436 0.57416 0.0
C296 C 0.79433 0.6148 0.53008 0.0
C297 C 0.78217 0.55019 0.56166 0.0
C298 C 0.77905 0.54802 0.53359 0.0
C299 C 0.78681 0.57737 0.48923 0.0
C300 C 0.7967 0.60905 0.47356 0.0
C301 C 0.78607 0.57995 0.51753 0.0
C302 C 0.8031 0.64385 0.48641 0.0
C303 C 0.80167 0.64677 0.51432 0.0
H304 H 0.21243 0.42351 0.56229 0.0
H305 H 0.22496 0.54437 0.56967 0.0
H306 H 0.22982 0.55005 0.52066 0.0
H307 H 0.22258 0.52106 0.47547 0.0
H308 H 0.20741 0.40027 0.46951 0.0
H309 H 0.21189 0.39419 0.51812 0.0
C310 C 0.21666 0.45112 0.55325 0.0
C311 C 0.21775 0.48351 0.5696 0.0
C312 C 0.21872 0.45419 0.52522 0.0
C313 C 0.22388 0.51896 0.55754 0.0
C314 C 0.22646 0.52224 0.5295 0.0
C315 C 0.22109 0.49339 0.48484 0.0
C316 C 0.21425 0.46121 0.46893 0.0
C317 C 0.22279 0.49013 0.51307 0.0
C318 C 0.2122 0.42552 0.48133 0.0
C319 C 0.21472 0.42199 0.50914 0.0
H320 H 0.78865 0.51135 0.98047 0.0
H321 H 0.81133 0.39132 0.97476 0.0
H322 H 0.80808 0.38545 0.02339 0.0
H323 H 0.80554 0.41491 0.06759 0.0
H324 H 0.78429 0.53491 0.07456 0.0
H325 H 0.77966 0.54012 0.02556 0.0
C326 C 0.7922 0.48385 0.98987 0.0
C327 C 0.80073 0.45193 0.97393 0.0
C328 C 0.79088 0.48065 1.01813 0.0
C329 C 0.80524 0.41648 0.98648 0.0
C330 C 0.80341 0.41303 1.01435 0.0
C331 C 0.79946 0.4422 0.05847 0.0
C332 C 0.79576 0.47453 0.07475 0.0
C333 C 0.79736 0.44505 0.03038 0.0
C334 C 0.78736 0.50954 0.06253 0.0
C335 C 0.78491 0.51257 0.03447 0.0
H336 H 0.21859 0.54692 0.06692 0.0
H337 H 0.20455 0.6681 0.07349 0.0
H338 H 0.20885 0.67448 0.02495 0.0
H339 H 0.20903 0.64557 0.9806 0.0
H340 H 0.22145 0.52459 0.97264 0.0
H341 H 0.22606 0.51829 0.02162 0.0
C342 C 0.2172 0.57473 0.05772 0.0
C343 C 0.21066 0.6069 0.07384 0.0
C344 C 0.21909 0.57826 0.02951 0.0
C345 C 0.20898 0.64278 0.06159 0.0
C346 C 0.21144 0.64652 0.03379 0.0
C347 C 0.21324 0.61781 0.98952 0.0
C348 C 0.21434 0.58557 0.97303 0.0
C349 C 0.21524 0.6144 1.01754 0.0
C350 C 0.22043 0.54989 0.9849 0.0
C351 C 0.22281 0.54626 1.01292 0.0
H352 H 0.54439 0.96545 0.37564 0.0
H353 H 0.59617 0.07562 0.37164 0.0
H354 H 0.53372 0.10571 0.37026 0.0
H355 H 0.46407 0.10136 0.37281 0.0
H356 H 0.41227 0.99124 0.37734 0.0
H357 H 0.47461 0.96096 0.37572 0.0
C358 C 0.54204 0.996 0.37419 0.0
C359 C 0.57514 1.01807 0.37392 0.0
C360 C 0.50583 1.01338 0.37364 0.0
C361 C 0.57134 0.05773 0.37206 0.0
C362 C 0.53553 0.0751 0.37128 0.0
C363 C 0.46636 0.07074 0.37318 0.0
C364 C 0.4333 0.0488 0.37536 0.0
C365 C 0.50252 0.05329 0.37247 0.0
C366 C 0.43705 1.00906 0.37582 0.0
C367 C 0.47281 0.99158 0.37491 0.0
H368 H 0.46631 0.96492 0.16423 0.0
H369 H 0.41154 0.07462 0.16713 0.0
H370 H 0.47324 0.10534 0.1679 0.0
H371 H 0.54297 0.10149 0.16483 0.0
H372 H 0.59755 0.99176 0.16075 0.0
H373 H 0.53604 0.96097 0.16352 0.0
C374 C 0.46784 0.99552 0.16534 0.0
C375 C 0.43419 1.0173 0.16546 0.0
C376 C 0.50355 1.01319 0.1654 0.0
C377 C 0.43687 0.05701 0.16684 0.0
C378 C 0.47222 0.07471 0.16726 0.0
C379 C 0.54145 0.07085 0.16482 0.0
C380 C 0.57497 0.04912 0.16241 0.0
C381 C 0.50579 0.05314 0.16609 0.0
C382 C 0.57231 1.00936 0.16239 0.0
C383 C 0.53707 0.99162 0.16398 0.0
H384 H 0.54 0.95888 0.66669 0.0
H385 H 0.59034 0.0684 0.65384 0.0
H386 H 0.52776 0.09832 0.6554 0.0
H387 H 0.45807 0.09317 0.65753 0.0
H388 H 0.40795 0.9834 0.66981 0.0
H389 H 0.47079 0.95424 0.67156 0.0
C390 C 0.53736 0.98932 0.66446 0.0
C391 C 0.56999 1.01116 0.65995 0.0
C392 C 0.50113 1.00649 0.66518 0.0
C393 C 0.56584 0.05068 0.65719 0.0
C394 C 0.52996 0.06793 0.65806 0.0
C395 C 0.46089 0.06295 0.66091 0.0
C396 C 0.42814 0.04062 0.66332 0.0
C397 C 0.4973 0.04608 0.66162 0.0
C398 C 0.43251 1.00141 0.66767 0.0
C399 C 0.46853 0.98458 0.66866 0.0
H400 H 0.54113 0.09938 0.87546 0.0
H401 H 0.59325 0.98831 0.87573 0.0
H402 H 0.53088 0.95909 0.87543 0.0
H403 H 0.46126 0.9647 0.87775 0.0
H404 H 0.40913 0.07577 0.87766 0.0
H405 H 0.47143 0.10495 0.87507 0.0
C406 C 0.53889 0.0688 0.8752 0.0
C407 C 0.57203 0.04625 0.8758 0.0
C408 C 0.50275 0.05196 0.87519 0.0
C409 C 0.56838 1.00657 0.87541 0.0
C410 C 0.53262 0.9897 0.87527 0.0
C411 C 0.46347 0.99527 0.87692 0.0
C412 C 0.43036 1.01785 0.87809 0.0
C413 C 0.49957 1.01208 0.87558 0.0
C414 C 0.43398 0.0575 0.87693 0.0
C415 C 0.46969 0.07434 0.87547 0.0
H416 H 0.96484 0.60281 0.37695 0.0
H417 H 0.91027 0.4941 0.38214 0.0
H418 H 0.97174 0.46219 0.37978 0.0
H419 H 0.04156 0.46482 0.37895 0.0
H420 H 0.09625 0.57353 0.37466 0.0
H421 H 0.03459 0.6053 0.37376 0.0
C422 C 0.96635 0.57215 0.37731 0.0
C423 C 0.93281 0.55107 0.3799 0.0
C424 C 1.00203 0.55374 0.37622 0.0
C425 C 0.9355 0.51125 0.38035 0.0
C426 C 0.97074 0.49284 0.37899 0.0
C427 C 0.04001 0.49542 0.37751 0.0
C428 C 0.07368 0.5166 0.37704 0.0
C429 C 0.00428 0.51376 0.37733 0.0
C430 C 0.07094 0.55634 0.37524 0.0
C431 C 0.03559 0.57466 0.37474 0.0
H432 H 0.07942 0.50824 0.16513 0.0
H433 H 0.04394 0.62525 0.17087 0.0
H434 H 0.97759 0.60587 0.17293 0.0
H435 H 0.92947 0.55612 0.17042 0.0
H436 H 0.96482 0.4391 0.16454 0.0
H437 H 0.03136 0.45818 0.16541 0.0
C438 C 0.05725 0.52956 0.16702 0.0
C439 C 0.06682 0.56823 0.16763 0.0
C440 C 0.01905 0.51824 0.16807 0.0
C441 C 0.03756 0.59533 0.17029 0.0
C442 C 0.99953 0.58427 0.1714 0.0
C443 C 0.95168 0.53468 0.16952 0.0
C444 C 0.94199 0.49618 0.16721 0.0
C445 C 0.98992 0.54586 0.16989 0.0
C446 C 0.9713 0.46891 0.16628 0.0
C447 C 0.00942 0.47981 0.1667 0.0
H448 H 0.9319 0.50131 0.6636 0.0
H449 H 0.95999 0.61989 0.66777 0.0
H450 H 0.02751 0.60368 0.66859 0.0
H451 H 0.07861 0.55628 0.66555 0.0
H452 H 0.05085 0.43767 0.66107 0.0
H453 H 0.9832 0.45357 0.66315 0.0
C454 C 0.95273 0.52366 0.66488 0.0
C455 C 0.9407 0.56184 0.66543 0.0
C456 C 0.99163 0.51416 0.6652 0.0
C457 C 0.96826 0.5903 0.66725 0.0
C458 C 0.00696 0.58106 0.66766 0.0
C459 C 0.05784 0.53379 0.6652 0.0
C460 C 0.06997 0.49579 0.66295 0.0
C461 C 0.01897 0.54313 0.66624 0.0
C462 C 0.04248 0.46714 0.66274 0.0
C463 C 0.00372 0.47623 0.66386 0.0
H464 H 0.07951 0.50649 0.87696 0.0
H465 H 0.04288 0.62286 0.88519 0.0
H466 H 0.97659 0.60306 0.88425 0.0
H467 H 0.92915 0.55251 0.88382 0.0
H468 H 0.96573 0.43613 0.87572 0.0
H469 H 0.0319 0.45628 0.87373 0.0
C470 C 0.05708 0.52763 0.87836 0.0
C471 C 0.06634 0.56615 0.88136 0.0
C472 C 0.01896 0.51604 0.87795 0.0
C473 C 0.03674 0.59305 0.88293 0.0
C474 C 0.99876 0.58173 0.88247 0.0
C475 C 0.95153 0.53149 0.88145 0.0
C476 C 0.94235 0.49277 0.88014 0.0
C477 C 0.98956 0.54326 0.88042 0.0
C478 C 0.97184 0.46608 0.87684 0.0
C479 C 0.00974 0.47758 0.87577 0.0
H480 H 0.26148 0.35982 0.3668 0.0
H481 H 0.15308 0.30409 0.3701 0.0
H482 H 0.18488 0.24237 0.36659 0.0
H483 H 0.24372 0.20423 0.36709 0.0
H484 H 0.35216 0.26 0.36902 0.0
H485 H 0.32027 0.3217 0.36573 0.0
C486 C 0.24477 0.33419 0.36622 0.0
C487 C 0.20492 0.33653 0.36853 0.0
C488 C 0.26337 0.2988 0.36536 0.0
C489 C 0.18373 0.30303 0.36828 0.0
C490 C 0.20194 0.26775 0.36636 0.0
C491 C 0.2604 0.22987 0.36626 0.0
C492 C 0.3003 0.22755 0.36813 0.0
C493 C 0.24178 0.26526 0.36553 0.0
C494 C 0.32147 0.26105 0.36756 0.0
C495 C 0.30322 0.29631 0.36576 0.0
H496 H 0.76668 0.86369 0.36633 0.0
H497 H 0.65682 0.81106 0.37078 0.0
H498 H 0.68673 0.74845 0.36796 0.0
H499 H 0.7444 0.70853 0.36902 0.0
H500 H 0.85444 0.76116 0.36924 0.0
H501 H 0.8244 0.82362 0.36516 0.0
C502 C 0.74927 0.83852 0.36611 0.0
C503 C 0.70954 0.84206 0.36864 0.0
C504 C 0.76682 0.8025 0.36556 0.0
C505 C 0.68743 0.80913 0.36883 0.0
C506 C 0.70455 0.77329 0.3673 0.0
C507 C 0.76182 0.73362 0.36761 0.0
C508 C 0.80164 0.73014 0.36931 0.0
C509 C 0.74426 0.76958 0.36634 0.0
C510 C 0.82376 0.76302 0.36795 0.0
C511 C 0.80657 0.79878 0.3657 0.0
H512 H 0.26688 0.70729 0.17643 0.0
H513 H 0.15872 0.76551 0.17745 0.0
H514 H 0.19095 0.82632 0.18144 0.0
H515 H 0.24965 0.86311 0.17953 0.0
H516 H 0.35773 0.80539 0.17309 0.0
H517 H 0.32594 0.7442 0.17664 0.0
C518 C 0.2504 0.73326 0.1781 0.0
C519 C 0.21048 0.73197 0.17678 0.0
C520 C 0.26919 0.7682 0.17918 0.0
C521 C 0.18946 0.76584 0.17845 0.0
C522 C 0.20789 0.80058 0.18065 0.0
C523 C 0.26635 0.83716 0.17947 0.0
C524 C 0.30602 0.83876 0.17615 0.0
C525 C 0.24773 0.80216 0.18031 0.0
C526 C 0.32717 0.80488 0.17565 0.0
C527 C 0.30898 0.76991 0.17758 0.0
H528 H 0.76182 0.20296 0.17377 0.0
H529 H 0.65193 0.2578 0.17295 0.0
H530 H 0.68212 0.31969 0.1768 0.0
H531 H 0.74003 0.35855 0.17522 0.0
H532 H 0.84963 0.30343 0.1712 0.0
H533 H 0.81952 0.24154 0.1747 0.0
C534 C 0.74445 0.2284 0.17503 0.0
C535 C 0.70467 0.22576 0.17317 0.0
C536 C 0.76208 0.26397 0.17612 0.0
C537 C 0.6826 0.25906 0.17436 0.0
C538 C 0.69988 0.29448 0.17647 0.0
C539 C 0.75731 0.33299 0.1757 0.0
C540 C 0.79702 0.33555 0.17304 0.0
C541 C 0.73964 0.29737 0.17661 0.0
C542 C 0.81902 0.30218 0.1732 0.0
C543 C 0.8018 0.26678 0.17514 0.0
H544 H 0.75409 0.85245 0.6754 0.0
H545 H 0.64521 0.79907 0.66599 0.0
H546 H 0.6754 0.73662 0.67004 0.0
H547 H 0.73374 0.69722 0.67116 0.0
H548 H 0.84283 0.75138 0.67539 0.0
H549 H 0.81174 0.81335 0.67878 0.0
C550 C 0.73684 0.82718 0.67479 0.0
C551 C 0.69743 0.83041 0.67047 0.0
C552 C 0.7546 0.79142 0.676 0.0
C553 C 0.67559 0.79735 0.6693 0.0
C554 C 0.69288 0.76163 0.67153 0.0
C555 C 0.75058 0.72258 0.67344 0.0
C556 C 0.7905 0.7198 0.67319 0.0
C557 C 0.73249 0.75829 0.67416 0.0
C558 C 0.81207 0.75287 0.67558 0.0
C559 C 0.79431 0.78829 0.67743 0.0
H560 H 0.18379 0.30616 0.66463 0.0
H561 H 0.28425 0.37499 0.66321 0.0
H562 H 0.32445 0.3182 0.66438 0.0
H563 H 0.33086 0.24849 0.66198 0.0
H564 H 0.23017 0.18012 0.66709 0.0
H565 H 0.19043 0.23693 0.66861 0.0
C566 C 0.21448 0.30865 0.66497 0.0
C567 C 0.23104 0.34461 0.66359 0.0
C568 C 0.23743 0.27589 0.66617 0.0
C569 C 0.27083 0.34756 0.66433 0.0
C570 C 0.29385 0.31509 0.66484 0.0
C571 C 0.30027 0.24613 0.66382 0.0
C572 C 0.28351 0.21015 0.66416 0.0
C573 C 0.27747 0.27904 0.66519 0.0
C574 C 0.24384 0.20747 0.66683 0.0
C575 C 0.221 0.23997 0.66755 0.0
H576 H 0.75866 0.19948 0.86403 0.0
H577 H 0.65085 0.25548 0.87691 0.0
H578 H 0.68165 0.3172 0.87394 0.0
H579 H 0.74025 0.35493 0.87259 0.0
H580 H 0.84859 0.29816 0.86479 0.0
H581 H 0.81671 0.23722 0.86054 0.0
C582 C 0.74178 0.22521 0.86566 0.0
C583 C 0.70249 0.2229 0.87061 0.0
C584 C 0.75993 0.26051 0.86503 0.0
C585 C 0.68113 0.2565 0.8731 0.0
C586 C 0.69876 0.29179 0.87147 0.0
C587 C 0.75677 0.32928 0.86935 0.0
C588 C 0.7967 0.33102 0.86884 0.0
C589 C 0.73828 0.29413 0.86813 0.0
C590 C 0.81783 0.29751 0.8652 0.0
C591 C 0.79961 0.26266 0.86286 0.0
H592 H 0.26638 0.7072 0.87979 0.0
H593 H 0.15646 0.76195 0.88028 0.0
H594 H 0.18662 0.8239 0.87661 0.0
H595 H 0.24421 0.86262 0.87717 0.0
H596 H 0.35417 0.80837 0.88222 0.0
H597 H 0.32425 0.74612 0.87962 0.0
C598 C 0.24908 0.73271 0.87861 0.0
C599 C 0.20926 0.73009 0.88008 0.0
C600 C 0.26671 0.76829 0.87771 0.0
C601 C 0.18715 0.76332 0.87913 0.0
C602 C 0.20439 0.79871 0.87709 0.0
C603 C 0.26166 0.83717 0.87723 0.0
C604 C 0.30137 0.84005 0.87967 0.0
C605 C 0.24415 0.80157 0.8769 0.0
C606 C 0.32357 0.80684 0.88029 0.0
C607 C 0.30645 0.77128 0.87886 0.0
H608 H 0.2616 0.99452 0.31842 0.0
H609 H 0.26375 0.1162 0.31119 0.0
H610 H 0.25726 0.11123 0.26253 0.0
H611 H 0.26218 0.0722 0.22181 0.0
H612 H 0.26345 0.95049 0.22906 0.0
H613 H 0.25667 0.95563 0.2777 0.0
C614 C 0.25961 1.01998 0.30628 0.0
C615 C 0.26376 0.05562 0.31842 0.0
C616 C 0.25698 1.01691 0.27816 0.0
C617 C 0.26105 0.08834 0.30236 0.0
C618 C 0.2575 0.08554 0.27447 0.0
C619 C 0.25991 0.04681 0.23395 0.0
C620 C 0.26391 1.01106 0.22183 0.0
C621 C 0.25714 0.04995 0.26207 0.0
C622 C 0.26087 0.97841 0.23789 0.0
C623 C 0.25715 0.9813 0.26576 0.0
H624 H 0.74546 0.0946 0.22989 0.0
H625 H 0.74414 0.97735 0.20575 0.0
H626 H 0.74962 0.95761 0.2526 0.0
H627 H 0.74453 0.9737 0.30063 0.0
H628 H 0.74522 0.09105 0.32463 0.0
H629 H 0.75086 0.11049 0.2778 0.0
C630 C 0.74727 0.06473 0.2348 0.0
C631 C 0.74376 0.03755 0.21431 0.0
C632 C 0.74985 0.0535 0.26189 0.0
C633 C 0.74655 0.99895 0.22107 0.0
C634 C 0.74943 0.98758 0.24793 0.0
C635 C 0.7468 1.00349 0.29568 0.0
C636 C 0.74378 1.03084 0.31616 0.0
C637 C 0.74953 1.0146 0.26857 0.0
C638 C 0.74714 0.06932 0.30934 0.0
C639 C 0.75018 0.08054 0.28248 0.0
H640 H 0.74175 0.98941 0.81374 0.0
H641 H 0.73753 0.11099 0.80572 0.0
H642 H 0.74302 0.10528 0.757 0.0
H643 H 0.73884 0.06564 0.71652 0.0
H644 H 0.73968 0.94403 0.72466 0.0
H645 H 0.74634 0.94992 0.77327 0.0
C646 C 0.74296 1.0147 0.80141 0.0
C647 C 0.73872 0.05054 0.8134 0.0
C648 C 0.74509 1.0112 0.77328 0.0
C649 C 0.7404 0.083 0.79706 0.0
C650 C 0.74339 0.07978 0.76913 0.0
C651 C 0.74148 0.04042 0.72884 0.0
C652 C 0.73829 1.00447 0.71695 0.0
C653 C 0.74422 0.04399 0.75695 0.0
C654 C 0.74171 0.97209 0.73328 0.0
C655 C 0.74537 0.97541 0.76114 0.0
H656 H 0.25439 0.06618 0.81678 0.0
H657 H 0.26591 0.94452 0.81456 0.0
H658 H 0.25918 0.94529 0.76579 0.0
H659 H 0.26098 0.98128 0.72351 0.0
H660 H 0.25234 0.10314 0.72579 0.0
H661 H 0.24624 0.1014 0.77458 0.0
C662 C 0.25446 0.03975 0.80571 0.0
C663 C 0.26131 1.00544 0.8193 0.0
C664 C 0.25152 0.04043 0.77753 0.0
C665 C 0.26112 0.97142 0.80462 0.0
C666 C 0.25742 0.97182 0.77666 0.0
C667 C 0.25671 1.00738 0.7346 0.0
C668 C 0.25773 0.04229 0.72103 0.0
C669 C 0.25427 1.00628 0.76281 0.0
C670 C 0.25209 0.07586 0.73574 0.0
C671 C 0.24876 0.07493 0.76371 0.0
H672 H 0.7679 0.47569 0.2403 0.0
H673 H 0.77505 0.59219 0.21472 0.0
H674 H 0.76745 0.61329 0.26104 0.0
H675 H 0.76858 0.59843 0.30926 0.0
H676 H 0.76253 0.48198 0.33505 0.0
H677 H 0.7591 0.46132 0.28835 0.0
C678 C 0.76695 0.50571 0.24477 0.0
C679 C 0.77269 0.53223 0.22404 0.0
C680 C 0.76311 0.51775 0.27161 0.0
C681 C 0.77105 0.57106 0.23023 0.0
C682 C 0.76686 0.58322 0.25679 0.0
C683 C 0.76561 0.56859 0.30472 0.0
C684 C 0.76642 0.54181 0.32569 0.0
C685 C 0.76435 0.55678 0.27774 0.0
C686 C 0.76222 0.50327 0.31937 0.0
C687 C 0.7605 0.49135 0.2926 0.0
H688 H 0.24424 0.56973 0.31898 0.0
H689 H 0.23978 0.44825 0.31094 0.0
H690 H 0.24412 0.45402 0.2622 0.0
H691 H 0.23824 0.49385 0.22189 0.0
H692 H 0.23975 0.61543 0.22999 0.0
H693 H 0.24815 0.60927 0.27844 0.0
C694 C 0.24526 0.54447 0.30663 0.0
C695 C 0.24109 0.50867 0.3186 0.0
C696 C 0.24669 0.54801 0.27848 0.0
C697 C 0.24254 0.47622 0.30226 0.0
C698 C 0.24485 0.47948 0.27432 0.0
C699 C 0.24137 0.51899 0.23415 0.0
C700 C 0.23773 0.55502 0.22234 0.0
C701 C 0.24524 0.51529 0.26217 0.0
C702 C 0.24201 0.5873 0.23856 0.0
C703 C 0.24668 0.58383 0.26634 0.0
H704 H 0.23951 0.49765 0.81883 0.0
H705 H 0.22987 0.6193 0.81353 0.0
H706 H 0.23571 0.61602 0.76475 0.0
H707 H 0.23347 0.57804 0.72342 0.0
H708 H 0.24115 0.45628 0.7288 0.0
H709 H 0.2468 0.4603 0.77754 0.0
C710 C 0.23956 0.52352 0.80708 0.0
C711 C 0.23362 0.55859 0.81983 0.0
C712 C 0.24215 0.52142 0.77892 0.0
C713 C 0.23404 0.59185 0.80426 0.0
C714 C 0.23721 0.59002 0.77629 0.0
C715 C 0.23729 0.55243 0.73518 0.0
C716 C 0.23625 0.51691 0.72246 0.0
C717 C 0.23974 0.55486 0.76334 0.0
C718 C 0.24145 0.48402 0.73804 0.0
C719 C 0.24453 0.48625 0.76599 0.0
H720 H 0.77402 0.58482 0.73988 0.0
H721 H 0.775 0.46733 0.71619 0.0
H722 H 0.76971 0.44806 0.7631 0.0
H723 H 0.77422 0.46427 0.81097 0.0
H724 H 0.77474 0.58167 0.83481 0.0
H725 H 0.76935 0.60111 0.78787 0.0
C726 C 0.77224 0.55501 0.74491 0.0
C727 C 0.77549 0.5276 0.72448 0.0
C728 C 0.76984 0.54402 0.77206 0.0
C729 C 0.77289 0.4891 0.73143 0.0
C730 C 0.77002 0.47799 0.75833 0.0
C731 C 0.77231 0.49411 0.80598 0.0
C732 C 0.77544 0.52143 0.82643 0.0
C733 C 0.76992 0.50516 0.77885 0.0
C734 C 0.77264 0.55997 0.81953 0.0
C735 C 0.76977 0.57116 0.79262 0.0
loop_
_geom_bond_atom_site_label_1
_geom_bond_atom_site_label_2
_geom_bond_distance
_geom_bond_site_symmetry_2
_ccdc_geom_bond_type
O0 Cd1 2.223 . S
O0 C8 1.315 . S
Cd1 O0 2.223 . S
Cd1 O4 2.297 . S
Cd1 O5 2.439 . S
Cd1 O11 2.240 . S
Cd2 O3 2.240 . S
Cd2 O10 2.223 . S
Cd2 O12 2.297 1_545 S
Cd2 O13 2.439 . S
O3 Cd2 2.240 . S
O3 C8 1.279 . S
O4 Cd1 2.297 . S
O4 C6 1.247 . S
O5 Cd1 2.439 . S
O5 C6 1.208 . S
C6 O4 1.247 . S
C6 O5 1.208 . S
C7 O12 1.247 1_545 S
C7 O13 1.208 . S
C8 O0 1.315 . S
C8 O3 1.279 . S
C9 O10 1.315 . S
C9 O11 1.279 . S
O10 Cd2 2.223 . S
O10 C9 1.315 . S
O11 Cd1 2.240 . S
O11 C9 1.279 . S
O12 Cd2 2.297 1_565 S
O12 C7 1.247 1_565 S
O13 Cd2 2.439 . S
O13 C7 1.208 . S
O14 Cd15 2.223 . S
O14 C22 1.315 . S
Cd15 O14 2.223 . S
Cd15 O18 2.297 . S
Cd15 O19 2.439 . S
Cd15 O25 2.240 . S
Cd16 O17 2.240 . S
Cd16 O24 2.223 . S
Cd16 O26 2.297 1_565 S
Cd16 O27 2.439 . S
O17 Cd16 2.240 . S
O17 C22 1.279 . S
O18 Cd15 2.297 . S
O18 C20 1.247 . S
O19 Cd15 2.439 . S
O19 C20 1.208 . S
C20 O18 1.247 . S
C20 O19 1.208 . S
C21 O26 1.247 1_565 S
C21 O27 1.208 . S
C22 O14 1.315 . S
C22 O17 1.279 . S
C23 O24 1.315 . S
C23 O25 1.279 . S
O24 Cd16 2.223 . S
O24 C23 1.315 . S
O25 Cd15 2.240 . S
O25 C23 1.279 . S
O26 Cd16 2.297 1_545 S
O26 C21 1.247 1_545 S
O27 Cd16 2.439 . S
O27 C21 1.208 . S
O28 Cd29 2.223 . S
O28 C36 1.315 . S
Cd29 O28 2.223 . S
Cd29 O32 2.297 . S
Cd29 O33 2.439 . S
Cd29 O39 2.240 . S
Cd30 O31 2.240 . S
Cd30 O38 2.223 . S
Cd30 O40 2.297 1_565 S
Cd30 O41 2.439 . S
O31 Cd30 2.240 . S
O31 C36 1.279 . S
O32 Cd29 2.297 . S
O32 C34 1.247 . S
O33 Cd29 2.439 . S
O33 C34 1.208 . S
C34 O32 1.247 . S
C34 O33 1.208 . S
C35 O40 1.247 1_565 S
C35 O41 1.208 . S
C36 O28 1.315 . S
C36 O31 1.279 . S
C37 O38 1.315 . S
C37 O39 1.279 . S
O38 Cd30 2.223 . S
O38 C37 1.315 . S
O39 Cd29 2.240 . S
O39 C37 1.279 . S
O40 Cd30 2.297 1_545 S
O40 C35 1.247 1_545 S
O41 Cd30 2.439 . S
O41 C35 1.208 . S
O42 Cd43 2.223 . S
O42 C50 1.315 . S
Cd43 O42 2.223 . S
Cd43 O46 2.297 . S
Cd43 O47 2.439 . S
Cd43 O53 2.240 . S
Cd44 O45 2.240 . S
Cd44 O52 2.223 . S
Cd44 O54 2.297 1_545 S
Cd44 O55 2.439 . S
O45 Cd44 2.240 . S
O45 C50 1.279 . S
O46 Cd43 2.297 . S
O46 C48 1.247 . S
O47 Cd43 2.439 . S
O47 C48 1.208 . S
C48 O46 1.247 . S
C48 O47 1.208 . S
C49 O54 1.247 1_545 S
C49 O55 1.208 . S
C50 O42 1.315 . S
C50 O45 1.279 . S
C51 O52 1.315 . S
C51 O53 1.279 . S
O52 Cd44 2.223 . S
O52 C51 1.315 . S
O53 Cd43 2.240 . S
O53 C51 1.279 . S
O54 Cd44 2.297 1_565 S
O54 C49 1.247 1_565 S
O55 Cd44 2.439 . S
O55 C49 1.208 . S
O56 Cd57 2.223 . S
O56 C64 1.315 . S
Cd57 O56 2.223 . S
Cd57 O60 2.297 . S
Cd57 O61 2.439 . S
Cd57 O67 2.240 . S
Cd58 O59 2.240 . S
Cd58 O66 2.223 . S
Cd58 O68 2.297 1_565 S
Cd58 O69 2.439 . S
O59 Cd58 2.240 . S
O59 C64 1.279 . S
O60 Cd57 2.297 . S
O60 C62 1.247 . S
O61 Cd57 2.439 . S
O61 C62 1.208 . S
C62 O60 1.247 . S
C62 O61 1.208 . S
C63 O68 1.247 1_565 S
C63 O69 1.208 . S
C64 O56 1.315 . S
C64 O59 1.279 . S
C65 O66 1.315 . S
C65 O67 1.279 . S
O66 Cd58 2.223 . S
O66 C65 1.315 . S
O67 Cd57 2.240 . S
O67 C65 1.279 . S
O68 Cd58 2.297 1_545 S
O68 C63 1.247 1_545 S
O69 Cd58 2.439 . S
O69 C63 1.208 . S
O70 Cd71 2.223 . S
O70 C78 1.315 . S
Cd71 O70 2.223 . S
Cd71 O74 2.297 . S
Cd71 O75 2.439 . S
Cd71 O81 2.240 . S
Cd72 O73 2.240 . S
Cd72 O80 2.223 . S
Cd72 O82 2.297 1_545 S
Cd72 O83 2.439 . S
O73 Cd72 2.240 . S
O73 C78 1.279 . S
O74 Cd71 2.297 . S
O74 C76 1.247 . S
O75 Cd71 2.439 . S
O75 C76 1.208 . S
C76 O74 1.247 . S
C76 O75 1.208 . S
C77 O82 1.247 1_545 S
C77 O83 1.208 . S
C78 O70 1.315 . S
C78 O73 1.279 . S
C79 O80 1.315 . S
C79 O81 1.279 . S
O80 Cd72 2.223 . S
O80 C79 1.315 . S
O81 Cd71 2.240 . S
O81 C79 1.279 . S
O82 Cd72 2.297 1_565 S
O82 C77 1.247 1_565 S
O83 Cd72 2.439 . S
O83 C77 1.208 . S
O84 Cd85 2.223 . S
O84 C92 1.315 . S
Cd85 O84 2.223 . S
Cd85 O88 2.297 . S
Cd85 O89 2.439 . S
Cd85 O95 2.240 . S
Cd86 O87 2.240 . S
Cd86 O94 2.223 . S
Cd86 O96 2.297 1_545 S
Cd86 O97 2.439 . S
O87 Cd86 2.240 . S
O87 C92 1.279 . S
O88 Cd85 2.297 . S
O88 C90 1.247 . S
O89 Cd85 2.439 . S
O89 C90 1.208 . S
C90 O88 1.247 . S
C90 O89 1.208 . S
C91 O96 1.247 1_545 S
C91 O97 1.208 . S
C92 O84 1.315 . S
C92 O87 1.279 . S
C93 O94 1.315 . S
C93 O95 1.279 . S
O94 Cd86 2.223 . S
O94 C93 1.315 . S
O95 Cd85 2.240 . S
O95 C93 1.279 . S
O96 Cd86 2.297 1_565 S
O96 C91 1.247 1_565 S
O97 Cd86 2.439 . S
O97 C91 1.208 . S
O98 Cd99 2.223 . S
O98 C106 1.315 . S
Cd99 O98 2.223 . S
Cd99 O102 2.297 . S
Cd99 O103 2.439 . S
Cd99 O109 2.240 . S
Cd100 O101 2.240 . S
Cd100 O108 2.223 . S
Cd100 O110 2.297 1_565 S
Cd100 O111 2.439 . S
O101 Cd100 2.240 . S
O101 C106 1.279 . S
O102 Cd99 2.297 . S
O102 C104 1.247 . S
O103 Cd99 2.439 . S
O103 C104 1.208 . S
C104 O102 1.247 . S
C104 O103 1.208 . S
C105 O110 1.247 1_565 S
C105 O111 1.208 . S
C106 O98 1.315 . S
C106 O101 1.279 . S
C107 O108 1.315 . S
C107 O109 1.279 . S
O108 Cd100 2.223 . S
O108 C107 1.315 . S
O109 Cd99 2.240 . S
O109 C107 1.279 . S
O110 Cd100 2.297 1_545 S
O110 C105 1.247 1_545 S
O111 Cd100 2.439 . S
O111 C105 1.208 . S
O112 Cd113 2.223 . S
O112 C120 1.315 . S
Cd113 O112 2.223 . S
Cd113 O116 2.297 . S
Cd113 O117 2.439 . S
Cd113 O123 2.240 . S
Cd114 O115 2.240 . S
Cd114 O122 2.223 . S
Cd114 O124 2.297 . S
Cd114 O125 2.439 . S
O115 Cd114 2.240 . S
O115 C120 1.279 . S
O116 Cd113 2.297 . S
O116 C118 1.247 . S
O117 Cd113 2.439 . S
O117 C118 1.208 . S
C118 O116 1.247 . S
C118 O117 1.208 . S
C119 O124 1.247 . S
C119 O125 1.208 . S
C120 O112 1.315 . S
C120 O115 1.279 . S
C121 O122 1.315 . S
C121 O123 1.279 . S
O122 Cd114 2.223 . S
O122 C121 1.315 . S
O123 Cd113 2.240 . S
O123 C121 1.279 . S
O124 Cd114 2.297 . S
O124 C119 1.247 . S
O125 Cd114 2.439 . S
O125 C119 1.208 . S
O126 Cd127 2.223 . S
O126 C134 1.315 . S
Cd127 O126 2.223 . S
Cd127 O130 2.297 . S
Cd127 O131 2.439 . S
Cd127 O137 2.240 . S
Cd128 O129 2.240 . S
Cd128 O136 2.223 . S
Cd128 O138 2.297 . S
Cd128 O139 2.439 . S
O129 Cd128 2.240 . S
O129 C134 1.279 . S
O130 Cd127 2.297 . S
O130 C132 1.247 . S
O131 Cd127 2.439 . S
O131 C132 1.208 . S
C132 O130 1.247 . S
C132 O131 1.208 . S
C133 O138 1.247 . S
C133 O139 1.208 . S
C134 O126 1.315 . S
C134 O129 1.279 . S
C135 O136 1.315 . S
C135 O137 1.279 . S
O136 Cd128 2.223 . S
O136 C135 1.315 . S
O137 Cd127 2.240 . S
O137 C135 1.279 . S
O138 Cd128 2.297 . S
O138 C133 1.247 . S
O139 Cd128 2.439 . S
O139 C133 1.208 . S
O140 Cd141 2.223 . S
O140 C148 1.315 . S
Cd141 O140 2.223 . S
Cd141 O144 2.297 . S
Cd141 O145 2.439 . S
Cd141 O151 2.240 . S
Cd142 O143 2.240 . S
Cd142 O150 2.223 . S
Cd142 O152 2.297 . S
Cd142 O153 2.439 . S
O143 Cd142 2.240 . S
O143 C148 1.279 . S
O144 Cd141 2.297 . S
O144 C146 1.247 . S
O145 Cd141 2.439 . S
O145 C146 1.208 . S
C146 O144 1.247 . S
C146 O145 1.208 . S
C147 O152 1.247 . S
C147 O153 1.208 . S
C148 O140 1.315 . S
C148 O143 1.279 . S
C149 O150 1.315 . S
C149 O151 1.279 . S
O150 Cd142 2.223 . S
O150 C149 1.315 . S
O151 Cd141 2.240 . S
O151 C149 1.279 . S
O152 Cd142 2.297 . S
O152 C147 1.247 . S
O153 Cd142 2.439 . S
O153 C147 1.208 . S
O154 Cd155 2.223 . S
O154 C162 1.315 . S
Cd155 O154 2.223 . S
Cd155 O158 2.297 . S
Cd155 O159 2.439 . S
Cd155 O165 2.240 . S
Cd156 O157 2.240 . S
Cd156 O164 2.223 . S
Cd156 O166 2.297 . S
Cd156 O167 2.439 . S
O157 Cd156 2.240 . S
O157 C162 1.279 . S
O158 Cd155 2.297 . S
O158 C160 1.247 . S
O159 Cd155 2.439 . S
O159 C160 1.208 . S
C160 O158 1.247 . S
C160 O159 1.208 . S
C161 O166 1.247 . S
C161 O167 1.208 . S
C162 O154 1.315 . S
C162 O157 1.279 . S
C163 O164 1.315 . S
C163 O165 1.279 . S
O164 Cd156 2.223 . S
O164 C163 1.315 . S
O165 Cd155 2.240 . S
O165 C163 1.279 . S
O166 Cd156 2.297 . S
O166 C161 1.247 . S
O167 Cd156 2.439 . S
O167 C161 1.208 . S
O168 Cd169 2.223 . S
O168 C176 1.315 . S
Cd169 O168 2.223 . S
Cd169 O172 2.297 . S
Cd169 O173 2.439 . S
Cd169 O179 2.240 . S
Cd170 O171 2.240 . S
Cd170 O178 2.223 . S
Cd170 O180 2.297 . S
Cd170 O181 2.439 . S
O171 Cd170 2.240 . S
O171 C176 1.279 . S
O172 Cd169 2.297 . S
O172 C174 1.247 . S
O173 Cd169 2.439 . S
O173 C174 1.208 . S
C174 O172 1.247 . S
C174 O173 1.208 . S
C175 O180 1.247 . S
C175 O181 1.208 . S
C176 O168 1.315 . S
C176 O171 1.279 . S
C177 O178 1.315 . S
C177 O179 1.279 . S
O178 Cd170 2.223 . S
O178 C177 1.315 . S
O179 Cd169 2.240 . S
O179 C177 1.279 . S
O180 Cd170 2.297 . S
O180 C175 1.247 . S
O181 Cd170 2.439 . S
O181 C175 1.208 . S
O182 Cd183 2.223 . S
O182 C190 1.315 . S
Cd183 O182 2.223 . S
Cd183 O186 2.297 . S
Cd183 O187 2.439 . S
Cd183 O193 2.240 . S
Cd184 O185 2.240 . S
Cd184 O192 2.223 . S
Cd184 O194 2.297 . S
Cd184 O195 2.439 . S
O185 Cd184 2.240 . S
O185 C190 1.279 . S
O186 Cd183 2.297 . S
O186 C188 1.247 . S
O187 Cd183 2.439 . S
O187 C188 1.208 . S
C188 O186 1.247 . S
C188 O187 1.208 . S
C189 O194 1.247 . S
C189 O195 1.208 . S
C190 O182 1.315 . S
C190 O185 1.279 . S
C191 O192 1.315 . S
C191 O193 1.279 . S
O192 Cd184 2.223 . S
O192 C191 1.315 . S
O193 Cd183 2.240 . S
O193 C191 1.279 . S
O194 Cd184 2.297 . S
O194 C189 1.247 . S
O195 Cd184 2.439 . S
O195 C189 1.208 . S
O196 Cd197 2.223 . S
O196 C204 1.315 . S
Cd197 O196 2.223 . S
Cd197 O200 2.297 . S
Cd197 O201 2.439 . S
Cd197 O207 2.240 . S
Cd198 O199 2.240 . S
Cd198 O206 2.223 . S
Cd198 O208 2.297 . S
Cd198 O209 2.439 . S
O199 Cd198 2.240 . S
O199 C204 1.279 . S
O200 Cd197 2.297 . S
O200 C202 1.247 . S
O201 Cd197 2.439 . S
O201 C202 1.208 . S
C202 O200 1.247 . S
C202 O201 1.208 . S
C203 O208 1.247 . S
C203 O209 1.208 . S
C204 O196 1.315 . S
C204 O199 1.279 . S
C205 O206 1.315 . S
C205 O207 1.279 . S
O206 Cd198 2.223 . S
O206 C205 1.315 . S
O207 Cd197 2.240 . S
O207 C205 1.279 . S
O208 Cd198 2.297 . S
O208 C203 1.247 . S
O209 Cd198 2.439 . S
O209 C203 1.208 . S
O210 Cd211 2.223 . S
O210 C218 1.315 . S
Cd211 O210 2.223 . S
Cd211 O214 2.297 . S
Cd211 O215 2.439 . S
Cd211 O221 2.240 . S
Cd212 O213 2.240 . S
Cd212 O220 2.223 . S
Cd212 O222 2.297 . S
Cd212 O223 2.439 . S
O213 Cd212 2.240 . S
O213 C218 1.279 . S
O214 Cd211 2.297 . S
O214 C216 1.247 . S
O215 Cd211 2.439 . S
O215 C216 1.208 . S
C216 O214 1.247 . S
C216 O215 1.208 . S
C217 O222 1.247 . S
C217 O223 1.208 . S
C218 O210 1.315 . S
C218 O213 1.279 . S
C219 O220 1.315 . S
C219 O221 1.279 . S
O220 Cd212 2.223 . S
O220 C219 1.315 . S
O221 Cd211 2.240 . S
O221 C219 1.279 . S
O222 Cd212 2.297 . S
O222 C217 1.247 . S
O223 Cd212 2.439 . S
O223 C217 1.208 . S
H224 C230 0.930 . S
H225 C233 0.930 . S
H226 C234 0.930 . S
H227 C235 0.930 . S
H228 C238 0.930 . S
H229 C239 0.930 . S
C230 H224 0.930 . S
C230 C231 1.355 . S
C230 C232 1.415 . S
C231 C230 1.355 . S
C231 C233 1.419 . S
C232 C230 1.415 . S
C232 C237 1.425 . S
C232 C239 1.409 . S
C233 H225 0.930 . S
C233 C231 1.419 . S
C233 C234 1.362 . S
C234 H226 0.930 . S
C234 C233 1.362 . S
C234 C237 1.409 . S
C235 H227 0.930 . S
C235 C236 1.355 . S
C235 C237 1.415 . S
C236 C235 1.355 . S
C236 C238 1.419 . S
C237 C232 1.425 . S
C237 C234 1.409 . S
C237 C235 1.415 . S
C238 H228 0.930 . S
C238 C236 1.419 . S
C238 C239 1.362 . S
C239 H229 0.930 . S
C239 C232 1.409 . S
C239 C238 1.362 . S
H240 C246 0.930 . S
H241 C249 0.930 . S
H242 C250 0.930 . S
H243 C251 0.930 . S
H244 C254 0.930 1_545 S
H245 C255 0.930 1_545 S
C246 H240 0.930 . S
C246 C247 1.355 . S
C246 C248 1.415 . S
C247 C246 1.355 . S
C247 C249 1.419 . S
C248 C246 1.415 . S
C248 C253 1.425 . S
C248 C255 1.409 . S
C249 H241 0.930 . S
C249 C247 1.419 . S
C249 C250 1.362 . S
C250 H242 0.930 . S
C250 C249 1.362 . S
C250 C253 1.409 . S
C251 H243 0.930 . S
C251 C252 1.355 . S
C251 C253 1.415 . S
C252 C251 1.355 . S
C252 C254 1.419 . S
C253 C248 1.425 . S
C253 C250 1.409 . S
C253 C251 1.415 . S
C254 H244 0.930 1_565 S
C254 C252 1.419 . S
C254 C255 1.362 . S
C255 H245 0.930 1_565 S
C255 C248 1.409 . S
C255 C254 1.362 . S
H256 C262 0.930 . S
H257 C265 0.930 . S
H258 C266 0.930 . S
H259 C267 0.930 . S
H260 C270 0.930 1_545 S
H261 C271 0.930 1_545 S
C262 H256 0.930 . S
C262 C263 1.355 . S
C262 C264 1.415 . S
C263 C262 1.355 . S
C263 C265 1.419 . S
C264 C262 1.415 . S
C264 C269 1.425 1_554 S
C264 C271 1.409 1_554 S
C265 H257 0.930 . S
C265 C263 1.419 . S
C265 C266 1.362 . S
C266 H258 0.930 . S
C266 C265 1.362 . S
C266 C269 1.409 1_554 S
C267 H259 0.930 . S
C267 C268 1.355 . S
C267 C269 1.415 . S
C268 C267 1.355 . S
C268 C270 1.419 . S
C269 C264 1.425 1_556 S
C269 C266 1.409 1_556 S
C269 C267 1.415 . S
C270 H260 0.930 1_565 S
C270 C268 1.419 . S
C270 C271 1.362 . S
C271 H261 0.930 1_565 S
C271 C264 1.409 1_556 S
C271 C270 1.362 . S
H272 C278 0.930 . S
H273 C281 0.930 . S
H274 C282 0.930 . S
H275 C283 0.930 . S
H276 C286 0.930 . S
H277 C287 0.930 . S
C278 H272 0.930 . S
C278 C279 1.355 . S
C278 C280 1.415 . S
C279 C278 1.355 . S
C279 C281 1.419 . S
C280 C278 1.415 . S
C280 C285 1.425 1_556 S
C280 C287 1.409 1_556 S
C281 H273 0.930 . S
C281 C279 1.419 . S
C281 C282 1.362 . S
C282 H274 0.930 . S
C282 C281 1.362 . S
C282 C285 1.409 1_556 S
C283 H275 0.930 . S
C283 C284 1.355 . S
C283 C285 1.415 . S
C284 C283 1.355 . S
C284 C286 1.419 . S
C285 C280 1.425 1_554 S
C285 C282 1.409 1_554 S
C285 C283 1.415 . S
C286 H276 0.930 . S
C286 C284 1.419 . S
C286 C287 1.362 . S
C287 H277 0.930 . S
C287 C280 1.409 1_554 S
C287 C286 1.362 . S
H288 C294 0.930 . S
H289 C297 0.930 . S
H290 C298 0.930 . S
H291 C299 0.930 . S
H292 C302 0.930 . S
H293 C303 0.930 . S
C294 H288 0.930 . S
C294 C295 1.355 . S
C294 C296 1.415 . S
C295 C294 1.355 . S
C295 C297 1.419 . S
C296 C294 1.415 . S
C296 C301 1.425 . S
C296 C303 1.409 . S
C297 H289 0.930 . S
C297 C295 1.419 . S
C297 C298 1.362 . S
C298 H290 0.930 . S
C298 C297 1.362 . S
C298 C301 1.409 . S
C299 H291 0.930 . S
C299 C300 1.355 . S
C299 C301 1.415 . S
C300 C299 1.355 . S
C300 C302 1.419 . S
C301 C296 1.425 . S
C301 C298 1.409 . S
C301 C299 1.415 . S
C302 H292 0.930 . S
C302 C300 1.419 . S
C302 C303 1.362 . S
C303 H293 0.930 . S
C303 C296 1.409 . S
C303 C302 1.362 . S
H304 C310 0.930 . S
H305 C313 0.930 . S
H306 C314 0.930 . S
H307 C315 0.930 . S
H308 C318 0.930 . S
H309 C319 0.930 . S
C310 H304 0.930 . S
C310 C311 1.355 . S
C310 C312 1.415 . S
C311 C310 1.355 . S
C311 C313 1.419 . S
C312 C310 1.415 . S
C312 C317 1.425 . S
C312 C319 1.409 . S
C313 H305 0.930 . S
C313 C311 1.419 . S
C313 C314 1.362 . S
C314 H306 0.930 . S
C314 C313 1.362 . S
C314 C317 1.409 . S
C315 H307 0.930 . S
C315 C316 1.355 . S
C315 C317 1.415 . S
C316 C315 1.355 . S
C316 C318 1.419 . S
C317 C312 1.425 . S
C317 C314 1.409 . S
C317 C315 1.415 . S
C318 H308 0.930 . S
C318 C316 1.419 . S
C318 C319 1.362 . S
C319 H309 0.930 . S
C319 C312 1.409 . S
C319 C318 1.362 . S
H320 C326 0.930 . S
H321 C329 0.930 . S
H322 C330 0.930 . S
H323 C331 0.930 . S
H324 C334 0.930 . S
H325 C335 0.930 . S
C326 H320 0.930 . S
C326 C327 1.355 . S
C326 C328 1.415 . S
C327 C326 1.355 . S
C327 C329 1.419 . S
C328 C326 1.415 . S
C328 C333 1.425 1_556 S
C328 C335 1.409 1_556 S
C329 H321 0.930 . S
C329 C327 1.419 . S
C329 C330 1.362 . S
C330 H322 0.930 . S
C330 C329 1.362 . S
C330 C333 1.409 1_556 S
C331 H323 0.930 . S
C331 C332 1.355 . S
C331 C333 1.415 . S
C332 C331 1.355 . S
C332 C334 1.419 . S
C333 C328 1.425 1_554 S
C333 C330 1.409 1_554 S
C333 C331 1.415 . S
C334 H324 0.930 . S
C334 C332 1.419 . S
C334 C335 1.362 . S
C335 H325 0.930 . S
C335 C328 1.409 1_554 S
C335 C334 1.362 . S
H336 C342 0.930 . S
H337 C345 0.930 . S
H338 C346 0.930 . S
H339 C347 0.930 . S
H340 C350 0.930 . S
H341 C351 0.930 . S
C342 H336 0.930 . S
C342 C343 1.355 . S
C342 C344 1.415 . S
C343 C342 1.355 . S
C343 C345 1.419 . S
C344 C342 1.415 . S
C344 C349 1.425 1_554 S
C344 C351 1.409 1_554 S
C345 H337 0.930 . S
C345 C343 1.419 . S
C345 C346 1.362 . S
C346 H338 0.930 . S
C346 C345 1.362 . S
C346 C349 1.409 1_554 S
C347 H339 0.930 . S
C347 C348 1.355 . S
C347 C349 1.415 . S
C348 C347 1.355 . S
C348 C350 1.419 . S
C349 C344 1.425 1_556 S
C349 C346 1.409 1_556 S
C349 C347 1.415 . S
C350 H340 0.930 . S
C350 C348 1.419 . S
C350 C351 1.362 . S
C351 H341 0.930 . S
C351 C344 1.409 1_556 S
C351 C350 1.362 . S
H352 C358 0.930 . S
H353 C361 0.930 . S
H354 C362 0.930 . S
H355 C363 0.930 . S
H356 C366 0.930 . S
H357 C367 0.930 . S
C358 H352 0.930 . S
C358 C359 1.355 . S
C358 C360 1.415 . S
C359 C358 1.355 . S
C359 C361 1.419 1_565 S
C360 C358 1.415 . S
C360 C365 1.425 1_565 S
C360 C367 1.409 . S
C361 H353 0.930 . S
C361 C359 1.419 1_545 S
C361 C362 1.362 . S
C362 H354 0.930 . S
C362 C361 1.362 . S
C362 C365 1.409 . S
C363 H355 0.930 . S
C363 C364 1.355 . S
C363 C365 1.415 . S
C364 C363 1.355 . S
C364 C366 1.419 1_545 S
C365 C360 1.425 1_545 S
C365 C362 1.409 . S
C365 C363 1.415 . S
C366 H356 0.930 . S
C366 C364 1.419 1_565 S
C366 C367 1.362 . S
C367 H357 0.930 . S
C367 C360 1.409 . S
C367 C366 1.362 . S
H368 C374 0.930 . S
H369 C377 0.930 . S
H370 C378 0.930 . S
H371 C379 0.930 . S
H372 C382 0.930 . S
H373 C383 0.930 . S
C374 H368 0.930 . S
C374 C375 1.355 . S
C374 C376 1.415 . S
C375 C374 1.355 . S
C375 C377 1.419 1_565 S
C376 C374 1.415 . S
C376 C381 1.425 1_565 S
C376 C383 1.409 . S
C377 H369 0.930 . S
C377 C375 1.419 1_545 S
C377 C378 1.362 . S
C378 H370 0.930 . S
C378 C377 1.362 . S
C378 C381 1.409 . S
C379 H371 0.930 . S
C379 C380 1.355 . S
C379 C381 1.415 . S
C380 C379 1.355 . S
C380 C382 1.419 1_545 S
C381 C376 1.425 1_545 S
C381 C378 1.409 . S
C381 C379 1.415 . S
C382 H372 0.930 . S
C382 C380 1.419 1_565 S
C382 C383 1.362 . S
C383 H373 0.930 . S
C383 C376 1.409 . S
C383 C382 1.362 . S
H384 C390 0.930 . S
H385 C393 0.932 . S
H386 C394 0.930 . S
H387 C395 0.930 . S
H388 C398 0.932 . S
H389 C399 0.930 . S
C390 H384 0.930 . S
C390 C391 1.355 . S
C390 C392 1.415 . S
C391 C390 1.355 . S
C391 C393 1.419 . S
C392 C390 1.415 . S
C392 C397 1.425 1_565 S
C392 C399 1.409 . S
C393 H385 0.932 . S
C393 C391 1.419 . S
C393 C394 1.362 1_565 S
C394 H386 0.930 . S
C394 C393 1.362 1_545 S
C394 C397 1.409 . S
C395 H387 0.930 . S
C395 C396 1.355 . S
C395 C397 1.415 . S
C396 C395 1.355 . S
C396 C398 1.419 . S
C397 C392 1.425 1_545 S
C397 C394 1.409 . S
C397 C395 1.415 . S
C398 H388 0.932 . S
C398 C396 1.419 . S
C398 C399 1.362 1_545 S
C399 H389 0.930 . S
C399 C392 1.409 . S
C399 C398 1.362 1_565 S
H400 C406 0.930 . S
H401 C409 0.930 . S
H402 C410 0.930 . S
H403 C411 0.930 . S
H404 C414 0.930 . S
H405 C415 0.930 . S
C406 H400 0.930 . S
C406 C407 1.355 . S
C406 C408 1.415 . S
C407 C406 1.355 . S
C407 C409 1.419 1_545 S
C408 C406 1.415 . S
C408 C413 1.425 1_545 S
C408 C415 1.409 . S
C409 H401 0.930 . S
C409 C407 1.419 1_565 S
C409 C410 1.362 . S
C410 H402 0.930 . S
C410 C409 1.362 . S
C410 C413 1.409 . S
C411 H403 0.930 . S
C411 C412 1.355 . S
C411 C413 1.415 . S
C412 C411 1.355 . S
C412 C414 1.419 1_565 S
C413 C408 1.425 1_565 S
C413 C410 1.409 . S
C413 C411 1.415 . S
C414 H404 0.930 . S
C414 C412 1.419 1_545 S
C414 C415 1.362 . S
C415 H405 0.930 . S
C415 C408 1.409 . S
C415 C414 1.362 . S
H416 C422 0.930 . S
H417 C425 0.930 . S
H418 C426 0.930 . S
H419 C427 0.930 . S
H420 C430 0.930 . S
H421 C431 0.930 . S
C422 H416 0.930 . S
C422 C423 1.355 . S
C422 C424 1.408 1_655 S
C423 C422 1.355 . S
C423 C425 1.419 . S
C424 C422 1.408 1_455 S
C424 C429 1.425 1_455 S
C424 C431 1.416 . S
C425 H417 0.930 . S
C425 C423 1.419 . S
C425 C426 1.362 . S
C426 H418 0.930 . S
C426 C425 1.362 . S
C426 C429 1.415 . S
C427 H419 0.930 . S
C427 C428 1.355 . S
C427 C429 1.409 1_455 S
C428 C427 1.355 . S
C428 C430 1.419 . S
C429 C424 1.425 1_655 S
C429 C426 1.415 . S
C429 C427 1.409 1_655 S
C430 H420 0.930 . S
C430 C428 1.419 . S
C430 C431 1.362 . S
C431 H421 0.930 . S
C431 C424 1.416 . S
C431 C430 1.362 . S
H432 C438 0.930 . S
H433 C441 0.930 . S
H434 C442 0.930 . S
H435 C443 0.930 . S
H436 C446 0.930 . S
H437 C447 0.930 . S
C438 H432 0.930 . S
C438 C439 1.355 . S
C438 C440 1.415 . S
C439 C438 1.355 . S
C439 C441 1.419 . S
C440 C438 1.415 . S
C440 C445 1.425 1_455 S
C440 C447 1.409 1_455 S
C441 H433 0.930 . S
C441 C439 1.419 . S
C441 C442 1.362 . S
C442 H434 0.930 . S
C442 C441 1.362 . S
C442 C445 1.409 1_455 S
C443 H435 0.930 . S
C443 C444 1.355 . S
C443 C445 1.415 . S
C444 C443 1.355 . S
C444 C446 1.419 . S
C445 C440 1.425 1_655 S
C445 C442 1.409 1_655 S
C445 C443 1.415 . S
C446 H436 0.930 . S
C446 C444 1.419 . S
C446 C447 1.362 . S
C447 H437 0.930 . S
C447 C440 1.409 1_655 S
C447 C446 1.362 . S
H448 C454 0.930 . S
H449 C457 0.930 . S
H450 C458 0.930 1_455 S
H451 C459 0.930 . S
H452 C462 0.930 . S
H453 C463 0.930 1_655 S
C454 H448 0.930 . S
C454 C455 1.355 . S
C454 C456 1.415 . S
C455 C454 1.355 . S
C455 C457 1.419 . S
C456 C454 1.415 . S
C456 C461 1.425 1_655 S
C456 C463 1.409 1_655 S
C457 H449 0.930 . S
C457 C455 1.419 . S
C457 C458 1.362 . S
C458 H450 0.930 1_655 S
C458 C457 1.362 . S
C458 C461 1.409 1_655 S
C459 H451 0.930 . S
C459 C460 1.355 . S
C459 C461 1.415 . S
C460 C459 1.355 . S
C460 C462 1.419 . S
C461 C456 1.425 1_455 S
C461 C458 1.409 1_455 S
C461 C459 1.415 . S
C462 H452 0.930 . S
C462 C460 1.419 . S
C462 C463 1.362 . S
C463 H453 0.930 1_455 S
C463 C456 1.409 1_455 S
C463 C462 1.362 . S
H464 C470 0.930 . S
H465 C473 0.930 . S
H466 C474 0.930 1_655 S
H467 C475 0.930 . S
H468 C478 0.930 . S
H469 C479 0.930 1_455 S
C470 H464 0.930 . S
C470 C471 1.355 . S
C470 C472 1.415 . S
C471 C470 1.355 . S
C471 C473 1.419 . S
C472 C470 1.415 . S
C472 C477 1.425 1_455 S
C472 C479 1.409 1_455 S
C473 H465 0.930 . S
C473 C471 1.419 . S
C473 C474 1.362 . S
C474 H466 0.930 1_455 S
C474 C473 1.362 . S
C474 C477 1.409 1_455 S
C475 H467 0.930 . S
C475 C476 1.355 . S
C475 C477 1.415 . S
C476 C475 1.355 . S
C476 C478 1.419 . S
C477 C472 1.425 1_655 S
C477 C474 1.409 1_655 S
C477 C475 1.415 . S
C478 H468 0.930 . S
C478 C476 1.419 . S
C478 C479 1.362 . S
C479 H469 0.930 1_655 S
C479 C472 1.409 1_655 S
C479 C478 1.362 . S
H480 C486 0.930 . S
H481 C489 0.930 . S
H482 C490 0.930 . S
H483 C491 0.930 . S
H484 C494 0.930 . S
H485 C495 0.930 . S
C486 H480 0.930 . S
C486 C487 1.355 . S
C486 C488 1.415 . S
C487 C486 1.355 . S
C487 C489 1.419 . S
C488 C486 1.415 . S
C488 C493 1.425 . S
C488 C495 1.409 . S
C489 H481 0.930 . S
C489 C487 1.419 . S
C489 C490 1.362 . S
C490 H482 0.930 . S
C490 C489 1.362 . S
C490 C493 1.409 . S
C491 H483 0.930 . S
C491 C492 1.355 . S
C491 C493 1.415 . S
C492 C491 1.355 . S
C492 C494 1.419 . S
C493 C488 1.425 . S
C493 C490 1.409 . S
C493 C491 1.415 . S
C494 H484 0.930 . S
C494 C492 1.419 . S
C494 C495 1.362 . S
C495 H485 0.930 . S
C495 C488 1.409 . S
C495 C494 1.362 . S
H496 C502 0.930 . S
H497 C505 0.930 . S
H498 C506 0.930 . S
H499 C507 0.930 . S
H500 C510 0.930 . S
H501 C511 0.930 . S
C502 H496 0.930 . S
C502 C503 1.355 . S
C502 C504 1.415 . S
C503 C502 1.355 . S
C503 C505 1.419 . S
C504 C502 1.415 . S
C504 C509 1.425 . S
C504 C511 1.409 . S
C505 H497 0.930 . S
C505 C503 1.419 . S
C505 C506 1.362 . S
C506 H498 0.930 . S
C506 C505 1.362 . S
C506 C509 1.409 . S
C507 H499 0.930 . S
C507 C508 1.355 . S
C507 C509 1.415 . S
C508 C507 1.355 . S
C508 C510 1.419 . S
C509 C504 1.425 . S
C509 C506 1.409 . S
C509 C507 1.415 . S
C510 H500 0.930 . S
C510 C508 1.419 . S
C510 C511 1.362 . S
C511 H501 0.930 . S
C511 C504 1.409 . S
C511 C510 1.362 . S
H512 C518 0.930 . S
H513 C521 0.930 . S
H514 C522 0.930 . S
H515 C523 0.930 . S
H516 C526 0.930 . S
H517 C527 0.930 . S
C518 H512 0.930 . S
C518 C519 1.355 . S
C518 C520 1.415 . S
C519 C518 1.355 . S
C519 C521 1.419 . S
C520 C518 1.415 . S
C520 C525 1.425 . S
C520 C527 1.409 . S
C521 H513 0.930 . S
C521 C519 1.419 . S
C521 C522 1.362 . S
C522 H514 0.930 . S
C522 C521 1.362 . S
C522 C525 1.409 . S
C523 H515 0.930 . S
C523 C524 1.355 . S
C523 C525 1.415 . S
C524 C523 1.355 . S
C524 C526 1.419 . S
C525 C520 1.425 . S
C525 C522 1.409 . S
C525 C523 1.415 . S
C526 H516 0.930 . S
C526 C524 1.419 . S
C526 C527 1.362 . S
C527 H517 0.930 . S
C527 C520 1.409 . S
C527 C526 1.362 . S
H528 C534 0.930 . S
H529 C537 0.930 . S
H530 C538 0.930 . S
H531 C539 0.930 . S
H532 C542 0.930 . S
H533 C543 0.930 . S
C534 H528 0.930 . S
C534 C535 1.355 . S
C534 C536 1.415 . S
C535 C534 1.355 . S
C535 C537 1.419 . S
C536 C534 1.415 . S
C536 C541 1.425 . S
C536 C543 1.409 . S
C537 H529 0.930 . S
C537 C535 1.419 . S
C537 C538 1.362 . S
C538 H530 0.930 . S
C538 C537 1.362 . S
C538 C541 1.409 . S
C539 H531 0.930 . S
C539 C540 1.355 . S
C539 C541 1.415 . S
C540 C539 1.355 . S
C540 C542 1.419 . S
C541 C536 1.425 . S
C541 C538 1.409 . S
C541 C539 1.415 . S
C542 H532 0.930 . S
C542 C540 1.419 . S
C542 C543 1.362 . S
C543 H533 0.930 . S
C543 C536 1.409 . S
C543 C542 1.362 . S
H544 C550 0.930 . S
H545 C553 0.930 . S
H546 C554 0.930 . S
H547 C555 0.930 . S
H548 C558 0.930 . S
H549 C559 0.930 . S
C550 H544 0.930 . S
C550 C551 1.355 . S
C550 C552 1.415 . S
C551 C550 1.355 . S
C551 C553 1.419 . S
C552 C550 1.415 . S
C552 C557 1.425 . S
C552 C559 1.409 . S
C553 H545 0.930 . S
C553 C551 1.419 . S
C553 C554 1.362 . S
C554 H546 0.930 . S
C554 C553 1.362 . S
C554 C557 1.409 . S
C555 H547 0.930 . S
C555 C556 1.355 . S
C555 C557 1.415 . S
C556 C555 1.355 . S
C556 C558 1.419 . S
C557 C552 1.425 . S
C557 C554 1.409 . S
C557 C555 1.415 . S
C558 H548 0.930 . S
C558 C556 1.419 . S
C558 C559 1.362 . S
C559 H549 0.930 . S
C559 C552 1.409 . S
C559 C558 1.362 . S
H560 C566 0.930 . S
H561 C569 0.930 . S
H562 C570 0.930 . S
H563 C571 0.930 . S
H564 C574 0.930 . S
H565 C575 0.930 . S
C566 H560 0.930 . S
C566 C567 1.355 . S
C566 C568 1.415 . S
C567 C566 1.355 . S
C567 C569 1.419 . S
C568 C566 1.415 . S
C568 C573 1.425 . S
C568 C575 1.409 . S
C569 H561 0.930 . S
C569 C567 1.419 . S
C569 C570 1.362 . S
C570 H562 0.930 . S
C570 C569 1.362 . S
C570 C573 1.409 . S
C571 H563 0.930 . S
C571 C572 1.355 . S
C571 C573 1.415 . S
C572 C571 1.355 . S
C572 C574 1.419 . S
C573 C568 1.425 . S
C573 C570 1.409 . S
C573 C571 1.415 . S
C574 H564 0.930 . S
C574 C572 1.419 . S
C574 C575 1.362 . S
C575 H565 0.930 . S
C575 C568 1.409 . S
C575 C574 1.362 . S
H576 C582 0.930 . S
H577 C585 0.930 . S
H578 C586 0.930 . S
H579 C587 0.930 . S
H580 C590 0.930 . S
H581 C591 0.930 . S
C582 H576 0.930 . S
C582 C583 1.355 . S
C582 C584 1.415 . S
C583 C582 1.355 . S
C583 C585 1.419 . S
C584 C582 1.415 . S
C584 C589 1.425 . S
C584 C591 1.409 . S
C585 H577 0.930 . S
C585 C583 1.419 . S
C585 C586 1.362 . S
C586 H578 0.930 . S
C586 C585 1.362 . S
C586 C589 1.409 . S
C587 H579 0.930 . S
C587 C588 1.355 . S
C587 C589 1.415 . S
C588 C587 1.355 . S
C588 C590 1.419 . S
C589 C584 1.425 . S
C589 C586 1.409 . S
C589 C587 1.415 . S
C590 H580 0.930 . S
C590 C588 1.419 . S
C590 C591 1.362 . S
C591 H581 0.930 . S
C591 C584 1.409 . S
C591 C590 1.362 . S
H592 C598 0.930 . S
H593 C601 0.930 . S
H594 C602 0.930 . S
H595 C603 0.930 . S
H596 C606 0.930 . S
H597 C607 0.930 . S
C598 H592 0.930 . S
C598 C599 1.355 . S
C598 C600 1.415 . S
C599 C598 1.355 . S
C599 C601 1.419 . S
C600 C598 1.415 . S
C600 C605 1.425 . S
C600 C607 1.409 . S
C601 H593 0.930 . S
C601 C599 1.419 . S
C601 C602 1.362 . S
C602 H594 0.930 . S
C602 C601 1.362 . S
C602 C605 1.409 . S
C603 H595 0.930 . S
C603 C604 1.355 . S
C603 C605 1.415 . S
C604 C603 1.355 . S
C604 C606 1.419 . S
C605 C600 1.425 . S
C605 C602 1.409 . S
C605 C603 1.415 . S
C606 H596 0.930 . S
C606 C604 1.419 . S
C606 C607 1.362 . S
C607 H597 0.930 . S
C607 C600 1.409 . S
C607 C606 1.362 . S
H608 C614 0.930 . S
H609 C617 0.930 . S
H610 C618 0.930 . S
H611 C619 0.930 . S
H612 C622 0.930 . S
H613 C623 0.930 . S
C614 H608 0.930 . S
C614 C615 1.355 1_565 S
C614 C616 1.415 . S
C615 C614 1.355 1_545 S
C615 C617 1.419 . S
C616 C614 1.415 . S
C616 C621 1.425 1_565 S
C616 C623 1.409 . S
C617 H609 0.930 . S
C617 C615 1.419 . S
C617 C618 1.362 . S
C618 H610 0.930 . S
C618 C617 1.362 . S
C618 C621 1.409 . S
C619 H611 0.930 . S
C619 C620 1.355 1_545 S
C619 C621 1.415 . S
C620 C619 1.355 1_565 S
C620 C622 1.419 . S
C621 C616 1.425 1_545 S
C621 C618 1.409 . S
C621 C619 1.415 . S
C622 H612 0.930 . S
C622 C620 1.419 . S
C622 C623 1.362 . S
C623 H613 0.930 . S
C623 C616 1.409 . S
C623 C622 1.362 . S
H624 C630 0.930 . S
H625 C633 0.930 . S
H626 C634 0.930 . S
H627 C635 0.930 . S
H628 C638 0.930 . S
H629 C639 0.930 . S
C630 H624 0.930 . S
C630 C631 1.355 . S
C630 C632 1.415 . S
C631 C630 1.355 . S
C631 C633 1.419 1_545 S
C632 C630 1.415 . S
C632 C637 1.425 1_545 S
C632 C639 1.409 . S
C633 H625 0.930 . S
C633 C631 1.419 1_565 S
C633 C634 1.362 . S
C634 H626 0.930 . S
C634 C633 1.362 . S
C634 C637 1.409 . S
C635 H627 0.930 . S
C635 C636 1.355 . S
C635 C637 1.415 . S
C636 C635 1.355 . S
C636 C638 1.419 1_565 S
C637 C632 1.425 1_565 S
C637 C634 1.409 . S
C637 C635 1.415 . S
C638 H628 0.930 . S
C638 C636 1.419 1_545 S
C638 C639 1.362 . S
C639 H629 0.930 . S
C639 C632 1.409 . S
C639 C638 1.362 . S
H640 C646 0.930 . S
H641 C649 0.930 . S
H642 C650 0.930 . S
H643 C651 0.930 . S
H644 C654 0.930 . S
H645 C655 0.930 . S
C646 H640 0.930 . S
C646 C647 1.355 1_565 S
C646 C648 1.415 . S
C647 C646 1.355 1_545 S
C647 C649 1.419 . S
C648 C646 1.415 . S
C648 C653 1.425 1_565 S
C648 C655 1.409 . S
C649 H641 0.930 . S
C649 C647 1.419 . S
C649 C650 1.362 . S
C650 H642 0.930 . S
C650 C649 1.362 . S
C650 C653 1.409 . S
C651 H643 0.930 . S
C651 C652 1.355 1_545 S
C651 C653 1.415 . S
C652 C651 1.355 1_565 S
C652 C654 1.419 . S
C653 C648 1.425 1_545 S
C653 C650 1.409 . S
C653 C651 1.415 . S
C654 H644 0.930 . S
C654 C652 1.419 . S
C654 C655 1.362 . S
C655 H645 0.930 . S
C655 C648 1.409 . S
C655 C654 1.362 . S
H656 C662 0.925 1_545 S
H657 C665 0.930 . S
H658 C666 0.930 . S
H659 C667 0.925 1_565 S
H660 C670 0.930 . S
H661 C671 0.930 . S
C662 H656 0.925 1_565 S
C662 C663 1.363 . S
C662 C664 1.412 1_565 S
C663 C662 1.363 . S
C663 C665 1.419 . S
C664 C662 1.412 1_545 S
C664 C669 1.425 1_545 S
C664 C671 1.409 . S
C665 H657 0.930 . S
C665 C663 1.419 . S
C665 C666 1.362 . S
C666 H658 0.930 . S
C666 C665 1.362 . S
C666 C669 1.409 . S
C667 H659 0.925 1_545 S
C667 C668 1.363 . S
C667 C669 1.412 1_545 S
C668 C667 1.363 . S
C668 C670 1.419 . S
C669 C664 1.425 1_565 S
C669 C666 1.409 . S
C669 C667 1.412 1_565 S
C670 H660 0.930 . S
C670 C668 1.419 . S
C670 C671 1.362 . S
C671 H661 0.930 . S
C671 C664 1.409 . S
C671 C670 1.362 . S
H672 C678 0.930 . S
H673 C681 0.930 . S
H674 C682 0.930 . S
H675 C683 0.930 . S
H676 C686 0.930 . S
H677 C687 0.930 . S
C678 H672 0.930 . S
C678 C679 1.355 . S
C678 C680 1.415 . S
C679 C678 1.355 . S
C679 C681 1.419 . S
C680 C678 1.415 . S
C680 C685 1.425 . S
C680 C687 1.409 . S
C681 H673 0.930 . S
C681 C679 1.419 . S
C681 C682 1.362 . S
C682 H674 0.930 . S
C682 C681 1.362 . S
C682 C685 1.409 . S
C683 H675 0.930 . S
C683 C684 1.355 . S
C683 C685 1.415 . S
C684 C683 1.355 . S
C684 C686 1.419 . S
C685 C680 1.425 . S
C685 C682 1.409 . S
C685 C683 1.415 . S
C686 H676 0.930 . S
C686 C684 1.419 . S
C686 C687 1.362 . S
C687 H677 0.930 . S
C687 C680 1.409 . S
C687 C686 1.362 . S
H688 C694 0.930 . S
H689 C697 0.930 . S
H690 C698 0.930 . S
H691 C699 0.930 . S
H692 C702 0.930 . S
H693 C703 0.930 . S
C694 H688 0.930 . S
C694 C695 1.355 . S
C694 C696 1.415 . S
C695 C694 1.355 . S
C695 C697 1.419 . S
C696 C694 1.415 . S
C696 C701 1.425 . S
C696 C703 1.409 . S
C697 H689 0.930 . S
C697 C695 1.419 . S
C697 C698 1.362 . S
C698 H690 0.930 . S
C698 C697 1.362 . S
C698 C701 1.409 . S
C699 H691 0.930 . S
C699 C700 1.355 . S
C699 C701 1.415 . S
C700 C699 1.355 . S
C700 C702 1.419 . S
C701 C696 1.425 . S
C701 C698 1.409 . S
C701 C699 1.415 . S
C702 H692 0.930 . S
C702 C700 1.419 . S
C702 C703 1.362 . S
C703 H693 0.930 . S
C703 C696 1.409 . S
C703 C702 1.362 . S
H704 C710 0.930 . S
H705 C713 0.930 . S
H706 C714 0.930 . S
H707 C715 0.930 . S
H708 C718 0.930 . S
H709 C719 0.930 . S
C710 H704 0.930 . S
C710 C711 1.355 . S
C710 C712 1.415 . S
C711 C710 1.355 . S
C711 C713 1.419 . S
C712 C710 1.415 . S
C712 C717 1.425 . S
C712 C719 1.409 . S
C713 H705 0.930 . S
C713 C711 1.419 . S
C713 C714 1.362 . S
C714 H706 0.930 . S
C714 C713 1.362 . S
C714 C717 1.409 . S
C715 H707 0.930 . S
C715 C716 1.355 . S
C715 C717 1.415 . S
C716 C715 1.355 . S
C716 C718 1.419 . S
C717 C712 1.425 . S
C717 C714 1.409 . S
C717 C715 1.415 . S
C718 H708 0.930 . S
C718 C716 1.419 . S
C718 C719 1.362 . S
C719 H709 0.930 . S
C719 C712 1.409 . S
C719 C718 1.362 . S
H720 C726 0.930 . S
H721 C729 0.930 . S
H722 C730 0.930 . S
H723 C731 0.930 . S
H724 C734 0.930 . S
H725 C735 0.930 . S
C726 H720 0.930 . S
C726 C727 1.355 . S
C726 C728 1.415 . S
C727 C726 1.355 . S
C727 C729 1.419 . S
C728 C726 1.415 . S
C728 C733 1.425 . S
C728 C735 1.409 . S
C729 H721 0.930 . S
C729 C727 1.419 . S
C729 C730 1.362 . S
C730 H722 0.930 . S
C730 C729 1.362 . S
C730 C733 1.409 . S
C731 H723 0.930 . S
C731 C732 1.355 . S
C731 C733 1.415 . S
C732 C731 1.355 . S
C732 C734 1.419 . S
C733 C728 1.425 . S
C733 C730 1.409 . S
C733 C731 1.415 . S
C734 H724 0.930 . S
C734 C732 1.419 . S
C734 C735 1.362 . S
C735 H725 0.930 . S
C735 C728 1.409 . S
C735 C734 1.362 . S
C231 C8 1.240 . S
C236 C78 1.217 . S
C247 C64 1.184 . S
C252 C22 1.272 . S
C263 C36 1.197 . S
C268 C106 1.259 . S
C279 C92 1.235 . S
C284 C50 1.223 . S
C295 C190 1.231 . S
C300 C120 1.226 . S
C311 C176 1.240 . S
C316 C134 1.217 . S
C327 C218 1.184 . S
C332 C148 1.272 . S
C343 C162 1.218 . S
C348 C204 1.239 . S
C359 C23 1.484 . S
C364 C9 1.509 . S
C375 C37 1.479 . S
C380 C51 1.489 . S
C391 C65 1.479 . S
C396 C79 1.498 . S
C407 C93 1.485 . S
C412 C107 1.481 . S
C423 C121 1.482 . S
C428 C135 1.483 . S
C439 C163 1.492 . S
C444 C149 1.518 . S
C455 C191 1.516 . S
C460 C177 1.528 . S
C471 C205 1.518 . S
C476 C219 1.528 . S
C487 C132 1.517 . S
C492 C6 1.500 . S
C503 C20 1.547 . S
C508 C118 1.531 . S
C519 C160 1.498 . S
C524 C34 1.498 . S
C535 C48 1.516 . S
C540 C146 1.500 . S
C551 C62 1.531 . S
C556 C188 1.547 . S
C567 C174 1.551 . S
C572 C76 1.547 . S
C583 C90 1.507 . S
C588 C216 1.526 . S
C599 C202 1.499 . S
C604 C104 1.513 . S
C615 C7 1.461 . S
C620 C35 1.459 . S
C631 C49 1.464 . S
C636 C21 1.447 . S
C647 C91 1.467 . S
C652 C63 1.450 . S
C663 C105 1.466 . S
C668 C77 1.447 . S
C679 C147 1.451 . S
C684 C119 1.456 . S
C695 C133 1.458 . S
C700 C161 1.462 . S
C711 C203 1.467 . S
C716 C175 1.448 . S
C727 C189 1.453 . S
C732 C217 1.454 . S
