# Generated by pormake.
# Topology uot, (4)-cn, num edge types: 1
# Building blocks:
#     Node 0, Type 0, BuildingBlock: TATPOV_clean_sbu_0, # of connection points: 4
#     Node 1, Type 0, BuildingBlock: TATPOV_clean_sbu_0, # of connection points: 4
#     Node 2, Type 0, BuildingBlock: TATPOV_clean_sbu_0, # of connection points: 4
#     Node 3, Type 0, BuildingBlock: TATPOV_clean_sbu_0, # of connection points: 4
#     Node 4, Type 0, BuildingBlock: TATPOV_clean_sbu_0, # of connection points: 4
#     Node 5, Type 0, BuildingBlock: TATPOV_clean_sbu_0, # of connection points: 4
#     Node 6, Type 0, BuildingBlock: TATPOV_clean_sbu_0, # of connection points: 4
#     Node 7, Type 0, BuildingBlock: TATPOV_clean_sbu_0, # of connection points: 4
#     Node 8, Type 0, BuildingBlock: TATPOV_clean_sbu_0, # of connection points: 4
#     Node 9, Type 0, BuildingBlock: TATPOV_clean_sbu_0, # of connection points: 4
#     Node 10, Type 0, BuildingBlock: TATPOV_clean_sbu_0, # of connection points: 4
#     Node 11, Type 0, BuildingBlock: TATPOV_clean_sbu_0, # of connection points: 4
#     Node 12, Type 0, BuildingBlock: TATPOV_clean_sbu_0, # of connection points: 4
#     Node 13, Type 0, BuildingBlock: TATPOV_clean_sbu_0, # of connection points: 4
#     Node 14, Type 0, BuildingBlock: TATPOV_clean_sbu_0, # of connection points: 4
#     Node 15, Type 0, BuildingBlock: TATPOV_clean_sbu_0, # of connection points: 4
#     Edge 16, Type (0, 0), BuildingBlock: OJICUG_clean_linker_0, # of connection points: 2
#     Edge 17, Type (0, 0), BuildingBlock: OJICUG_clean_linker_0, # of connection points: 2
#     Edge 18, Type (0, 0), BuildingBlock: OJICUG_clean_linker_0, # of connection points: 2
#     Edge 19, Type (0, 0), BuildingBlock: OJICUG_clean_linker_0, # of connection points: 2
#     Edge 20, Type (0, 0), BuildingBlock: OJICUG_clean_linker_0, # of connection points: 2
#     Edge 21, Type (0, 0), BuildingBlock: OJICUG_clean_linker_0, # of connection points: 2
#     Edge 22, Type (0, 0), BuildingBlock: OJICUG_clean_linker_0, # of connection points: 2
#     Edge 23, Type (0, 0), BuildingBlock: OJICUG_clean_linker_0, # of connection points: 2
#     Edge 24, Type (0, 0), BuildingBlock: OJICUG_clean_linker_0, # of connection points: 2
#     Edge 25, Type (0, 0), BuildingBlock: OJICUG_clean_linker_0, # of connection points: 2
#     Edge 26, Type (0, 0), BuildingBlock: OJICUG_clean_linker_0, # of connection points: 2
#     Edge 27, Type (0, 0), BuildingBlock: OJICUG_clean_linker_0, # of connection points: 2
#     Edge 28, Type (0, 0), BuildingBlock: OJICUG_clean_linker_0, # of connection points: 2
#     Edge 29, Type (0, 0), BuildingBlock: OJICUG_clean_linker_0, # of connection points: 2
#     Edge 30, Type (0, 0), BuildingBlock: OJICUG_clean_linker_0, # of connection points: 2
#     Edge 31, Type (0, 0), BuildingBlock: OJICUG_clean_linker_0, # of connection points: 2
#     Edge 32, Type (0, 0), BuildingBlock: OJICUG_clean_linker_0, # of connection points: 2
#     Edge 33, Type (0, 0), BuildingBlock: OJICUG_clean_linker_0, # of connection points: 2
#     Edge 34, Type (0, 0), BuildingBlock: OJICUG_clean_linker_0, # of connection points: 2
#     Edge 35, Type (0, 0), BuildingBlock: OJICUG_clean_linker_0, # of connection points: 2
#     Edge 36, Type (0, 0), BuildingBlock: OJICUG_clean_linker_0, # of connection points: 2
#     Edge 37, Type (0, 0), BuildingBlock: OJICUG_clean_linker_0, # of connection points: 2
#     Edge 38, Type (0, 0), BuildingBlock: OJICUG_clean_linker_0, # of connection points: 2
#     Edge 39, Type (0, 0), BuildingBlock: OJICUG_clean_linker_0, # of connection points: 2
#     Edge 40, Type (0, 0), BuildingBlock: OJICUG_clean_linker_0, # of connection points: 2
#     Edge 41, Type (0, 0), BuildingBlock: OJICUG_clean_linker_0, # of connection points: 2
#     Edge 42, Type (0, 0), BuildingBlock: OJICUG_clean_linker_0, # of connection points: 2
#     Edge 43, Type (0, 0), BuildingBlock: OJICUG_clean_linker_0, # of connection points: 2
#     Edge 44, Type (0, 0), BuildingBlock: OJICUG_clean_linker_0, # of connection points: 2
#     Edge 45, Type (0, 0), BuildingBlock: OJICUG_clean_linker_0, # of connection points: 2
#     Edge 46, Type (0, 0), BuildingBlock: OJICUG_clean_linker_0, # of connection points: 2
#     Edge 47, Type (0, 0), BuildingBlock: OJICUG_clean_linker_0, # of connection points: 2
# Relax obj value: 0.138
# Max RMSD: 0.189
# Mean RMSD: 0.189
data_MOF--net-uot--node1-TATPOV_clean_sbu_0--edge1-OJICUG_clean_linker_0
_symmetry_space_group_name_H-M    P1
_symmetry_Int_Tables_number       1
_symmetry_cell_setting            triclinic
loop_
_symmetry_equiv_pos_as_xyz
'x, y, z'
_cell_length_a     31.744224
_cell_length_b     31.781694
_cell_length_c     31.153047
_cell_angle_alpha  90.092833
_cell_angle_beta   90.096466
_cell_angle_gamma 90.033646
loop_
_atom_site_label
_atom_site_type_symbol
_atom_site_fract_x
_atom_site_fract_y
_atom_site_fract_z
_atom_type_partial_charge
Zn0 Zn 0.16576 0.49334 0.34113 0.0
Zn1 Zn 0.23788 0.4695 0.30551 0.0
O2 O 0.19614 0.42129 0.29282 0.0
O3 O 0.13776 0.43802 0.32662 0.0
O4 O 0.29262 0.44515 0.28411 0.0
O5 O 0.19248 0.50294 0.39767 0.0
O6 O 0.25246 0.48137 0.36964 0.0
C7 C 0.15837 0.41262 0.30343 0.0
C8 C 0.19336 0.5468 0.2712 0.0
O9 O 0.2245 0.52162 0.26817 0.0
O10 O 0.16513 0.54116 0.29925 0.0
C11 C 0.29506 0.42285 0.25029 0.0
O12 O 0.26168 0.419 0.2256 0.0
C13 C 0.23129 0.49516 0.40141 0.0
Zn14 Zn 0.4922 0.84252 0.63719 0.0
Zn15 Zn 0.46502 0.77127 0.67122 0.0
O16 O 0.416 0.81326 0.6783 0.0
O17 O 0.43563 0.87064 0.64454 0.0
O18 O 0.43867 0.71732 0.69205 0.0
O19 O 0.50822 0.81427 0.58295 0.0
O20 O 0.48187 0.75531 0.6087 0.0
C21 C 0.40822 0.85063 0.66578 0.0
C22 C 0.53897 0.81675 0.71233 0.0
O23 O 0.51429 0.78506 0.71275 0.0
O24 O 0.53529 0.84502 0.68403 0.0
C25 C 0.41486 0.71598 0.7248 0.0
O26 O 0.41043 0.74997 0.74843 0.0
C27 C 0.49975 0.77568 0.57859 0.0
Zn28 Zn 0.84553 0.51607 0.34736 0.0
Zn29 Zn 0.77577 0.54262 0.30806 0.0
O30 O 0.81855 0.59065 0.3 0.0
O31 O 0.87525 0.57116 0.33533 0.0
O32 O 0.72251 0.56804 0.28423 0.0
O33 O 0.81505 0.5064 0.40194 0.0
O34 O 0.75724 0.52956 0.37059 0.0
C35 C 0.85609 0.598 0.31252 0.0
C36 C 0.82086 0.46515 0.2742 0.0
O37 O 0.79079 0.49143 0.26989 0.0
O38 O 0.84726 0.46897 0.30445 0.0
C39 C 0.72187 0.59241 0.25191 0.0
O40 O 0.75661 0.598 0.22976 0.0
C41 C 0.77621 0.51483 0.40334 0.0
Zn42 Zn 0.511 0.15774 0.63147 0.0
Zn43 Zn 0.53711 0.22869 0.66888 0.0
O44 O 0.58511 0.18625 0.67874 0.0
O45 O 0.56636 0.12871 0.64442 0.0
O46 O 0.5625 0.28258 0.69128 0.0
O47 O 0.50075 0.1867 0.57608 0.0
O48 O 0.5242 0.24526 0.60572 0.0
C49 C 0.59284 0.14855 0.6672 0.0
C50 C 0.45963 0.18436 0.70354 0.0
O51 O 0.4856 0.21484 0.70701 0.0
O52 O 0.46396 0.15694 0.67437 0.0
C53 C 0.58656 0.2841 0.72392 0.0
O54 O 0.59183 0.25003 0.74715 0.0
C55 C 0.50925 0.22544 0.57355 0.0
Zn56 Zn 0.15903 0.51512 0.63302 0.0
Zn57 Zn 0.22993 0.54005 0.67125 0.0
O58 O 0.18715 0.58748 0.68286 0.0
O59 O 0.12965 0.56971 0.64781 0.0
O60 O 0.28408 0.56505 0.69365 0.0
O61 O 0.18755 0.5068 0.5771 0.0
O62 O 0.2464 0.52833 0.60777 0.0
C63 C 0.14935 0.59539 0.6716 0.0
C64 C 0.18594 0.46175 0.70366 0.0
O65 O 0.21631 0.48772 0.70808 0.0
O66 O 0.15863 0.46679 0.67446 0.0
C67 C 0.28603 0.58922 0.72616 0.0
O68 O 0.25213 0.59491 0.74959 0.0
C69 C 0.22645 0.51479 0.57503 0.0
Zn70 Zn 0.52348 0.8466 0.34904 0.0
Zn71 Zn 0.54775 0.77605 0.30957 0.0
O72 O 0.59583 0.81836 0.29891 0.0
O73 O 0.57792 0.87591 0.3336 0.0
O74 O 0.57184 0.72231 0.2855 0.0
O75 O 0.51721 0.81721 0.40472 0.0
O76 O 0.53662 0.75838 0.37277 0.0
C77 C 0.6038 0.85609 0.31024 0.0
C78 C 0.46901 0.82089 0.27865 0.0
O79 O 0.49524 0.79094 0.27337 0.0
O80 O 0.47403 0.84745 0.30857 0.0
C81 C 0.59552 0.72107 0.25265 0.0
O82 O 0.60122 0.75553 0.23014 0.0
C83 C 0.52452 0.77819 0.40611 0.0
Zn84 Zn 0.8399 0.49027 0.63441 0.0
Zn85 Zn 0.76927 0.46239 0.67 0.0
O86 O 0.81196 0.41423 0.67815 0.0
O87 O 0.86914 0.4346 0.64434 0.0
O88 O 0.7155 0.43615 0.69152 0.0
O89 O 0.81114 0.50303 0.57953 0.0
O90 O 0.75277 0.47699 0.60708 0.0
C91 C 0.84962 0.40716 0.66601 0.0
C92 C 0.81342 0.53865 0.70825 0.0
O93 O 0.78277 0.51274 0.71015 0.0
O94 O 0.84117 0.53533 0.67935 0.0
C95 C 0.7142 0.412 0.72399 0.0
O96 O 0.74835 0.40698 0.7473 0.0
C97 C 0.7726 0.4938 0.57598 0.0
Zn98 Zn 0.49246 0.16457 0.33937 0.0
Zn99 Zn 0.46865 0.23633 0.30305 0.0
O100 O 0.42067 0.1946 0.28951 0.0
O101 O 0.43736 0.13654 0.32385 0.0
O102 O 0.44478 0.29125 0.28171 0.0
O103 O 0.50076 0.19126 0.39613 0.0
O104 O 0.47912 0.25082 0.36741 0.0
C105 C 0.41211 0.15687 0.30022 0.0
C106 C 0.54689 0.19212 0.27022 0.0
O107 O 0.52147 0.22299 0.2666 0.0
O108 O 0.54109 0.16408 0.2984 0.0
C109 C 0.42168 0.29423 0.24847 0.0
O110 O 0.41651 0.26103 0.22383 0.0
C111 C 0.49244 0.22994 0.39956 0.0
Zn112 Zn 0.66034 0.99181 0.84652 0.0
Zn113 Zn 0.73004 0.96365 0.80867 0.0
O114 O 0.68693 0.91569 0.80174 0.0
O115 O 0.63038 0.9364 0.83643 0.0
O116 O 0.78318 0.93705 0.78595 0.0
O117 O 0.69078 0.0039 0.90079 0.0
O118 O 0.74838 0.97857 0.87096 0.0
C119 C 0.64938 0.90884 0.81436 0.0
C120 C 0.6853 0.04005 0.77193 0.0
O121 O 0.71553 0.01378 0.76884 0.0
O122 O 0.6586 0.03712 0.80189 0.0
C123 C 0.78367 0.912 0.75409 0.0
O124 O 0.74895 0.90634 0.73179 0.0
C125 C 0.72949 0.99499 0.9029 0.0
Zn126 Zn 0.99252 0.34704 0.12923 0.0
Zn127 Zn 0.96873 0.27614 0.16835 0.0
O128 O 0.92064 0.31806 0.1799 0.0
O129 O 0.93781 0.37574 0.14519 0.0
O130 O 0.94509 0.2221 0.19203 0.0
O131 O 0.99902 0.31784 0.07336 0.0
O132 O 0.97894 0.25907 0.10482 0.0
C133 C 0.91232 0.35572 0.16879 0.0
C134 C 0.04743 0.32142 0.19912 0.0
O135 O 0.02151 0.29115 0.20422 0.0
O136 O 0.04199 0.34816 0.16956 0.0
C137 C 0.92199 0.22045 0.22528 0.0
O138 O 0.91676 0.25462 0.24845 0.0
C139 C 0.99124 0.27891 0.07164 0.0
Zn140 Zn 0.34192 0.00987 0.83837 0.0
Zn141 Zn 0.26994 0.03555 0.80451 0.0
O142 O 0.31197 0.0841 0.7946 0.0
O143 O 0.37005 0.06598 0.82828 0.0
O144 O 0.21543 0.0613 0.78413 0.0
O145 O 0.31505 0.99582 0.89376 0.0
O146 O 0.25535 0.02058 0.86785 0.0
C147 C 0.34962 0.09239 0.80613 0.0
C148 C 0.31445 0.96037 0.76544 0.0
O149 O 0.2828 0.98506 0.76443 0.0
O150 O 0.34321 0.96508 0.79321 0.0
C151 C 0.21326 0.08444 0.75094 0.0
O152 O 0.24668 0.08841 0.72645 0.0
C153 C 0.27641 0.00404 0.89833 0.0
Zn154 Zn 0.0174 0.66409 0.13811 0.0
Zn155 Zn 0.04239 0.73591 0.1734 0.0
O156 O 0.09161 0.69458 0.18268 0.0
O157 O 0.07391 0.63672 0.14838 0.0
O158 O 0.06742 0.7904 0.19472 0.0
O159 O 0.00379 0.6917 0.08291 0.0
O160 O 0.02739 0.75128 0.11023 0.0
C161 C 0.10025 0.65721 0.17068 0.0
C162 C 0.96746 0.68992 0.21128 0.0
O163 O 0.99203 0.72165 0.21302 0.0
O164 O 0.97227 0.6618 0.18291 0.0
C165 C 0.0909 0.79242 0.22777 0.0
O166 O 0.09558 0.75874 0.25171 0.0
C167 C 0.01151 0.73049 0.07915 0.0
Zn168 Zn 0.66753 0.01858 0.13433 0.0
Zn169 Zn 0.73876 0.04403 0.17111 0.0
O170 O 0.69681 0.09245 0.1814 0.0
O171 O 0.6391 0.07411 0.14702 0.0
O172 O 0.79305 0.0688 0.19337 0.0
O173 O 0.69565 0.00825 0.07868 0.0
O174 O 0.75477 0.0313 0.10763 0.0
C175 C 0.65916 0.10045 0.16972 0.0
C176 C 0.69388 0.96697 0.20605 0.0
O177 O 0.72468 0.9926 0.20924 0.0
O178 O 0.66624 0.97156 0.17712 0.0
C179 C 0.7949 0.09235 0.22635 0.0
O180 O 0.76097 0.09743 0.24989 0.0
C181 C 0.73442 0.01659 0.07566 0.0
Zn182 Zn 0.0117 0.3418 0.83822 0.0
Zn183 Zn 0.03748 0.27029 0.80318 0.0
O184 O 0.08588 0.3123 0.79271 0.0
O185 O 0.06774 0.36993 0.82711 0.0
O186 O 0.06272 0.2157 0.7825 0.0
O187 O 0.99899 0.31452 0.89376 0.0
O188 O 0.024 0.25548 0.86675 0.0
C189 C 0.09404 0.34986 0.80448 0.0
C190 C 0.96123 0.31472 0.76581 0.0
O191 O 0.98627 0.28337 0.76403 0.0
O192 O 0.96602 0.34311 0.79391 0.0
C193 C 0.08647 0.21317 0.74978 0.0
O194 O 0.0916 0.24653 0.72548 0.0
C195 C 0.00789 0.27603 0.8978 0.0
Zn196 Zn 0.34747 0.9866 0.12955 0.0
Zn197 Zn 0.27653 0.96433 0.16928 0.0
O198 O 0.3187 0.91682 0.1828 0.0
O199 O 0.37651 0.9329 0.14764 0.0
O200 O 0.2222 0.94127 0.19308 0.0
O201 O 0.31887 0.99067 0.07317 0.0
O202 O 0.25961 0.97324 0.10542 0.0
C203 C 0.3565 0.90828 0.17216 0.0
C204 C 0.32148 0.04383 0.19751 0.0
O205 O 0.29132 0.01798 0.20362 0.0
O206 O 0.34815 0.03755 0.168 0.0
C207 C 0.22016 0.91838 0.22645 0.0
O208 O 0.25419 0.91299 0.24985 0.0
C209 C 0.27975 0.98369 0.07175 0.0
Zn210 Zn 0.9857 0.6582 0.84922 0.0
Zn211 Zn 0.95976 0.72865 0.81083 0.0
O212 O 0.91165 0.68607 0.8015 0.0
O213 O 0.93072 0.62873 0.83575 0.0
O214 O 0.93454 0.78222 0.78763 0.0
O215 O 0.99454 0.68779 0.9046 0.0
O216 O 0.97274 0.74629 0.87378 0.0
C217 C 0.9041 0.64836 0.81307 0.0
C218 C 0.03755 0.684 0.77717 0.0
O219 O 0.01127 0.71409 0.77299 0.0
O220 O 0.03343 0.65725 0.80693 0.0
C221 C 0.91024 0.78323 0.75515 0.0
O222 O 0.90453 0.74872 0.73259 0.0
C223 C 0.98667 0.72669 0.90647 0.0
C224 C 0.3663 0.39683 0.27245 0.0
C225 C 0.33203 0.39507 0.24387 0.0
H226 H 0.42192 0.36668 0.29593 0.0
C227 C 0.3312 0.36322 0.21249 0.0
H228 H 0.3682 0.4212 0.29673 0.0
C229 C 0.36209 0.33183 0.21204 0.0
C230 C 0.39443 0.3317 0.24294 0.0
H231 H 0.30542 0.3611 0.18976 0.0
H232 H 0.35923 0.30644 0.18898 0.0
C233 C 0.39716 0.36551 0.27198 0.0
C234 C 0.35374 0.68112 0.7613 0.0
C235 C 0.3866 0.67937 0.73113 0.0
H236 H 0.29626 0.65367 0.78376 0.0
C237 C 0.38922 0.64431 0.70371 0.0
H238 H 0.35094 0.70754 0.78311 0.0
C239 C 0.35791 0.6134 0.70411 0.0
C240 C 0.32323 0.61689 0.73192 0.0
H241 H 0.41437 0.64171 0.68039 0.0
H242 H 0.35983 0.58793 0.68106 0.0
C243 C 0.32236 0.65018 0.76169 0.0
C244 C 0.65675 0.68587 0.21665 0.0
C245 C 0.62288 0.68393 0.24562 0.0
H246 H 0.71457 0.65811 0.19554 0.0
C247 C 0.61864 0.64817 0.27176 0.0
H248 H 0.66081 0.71283 0.19584 0.0
C249 C 0.64944 0.6168 0.27157 0.0
C250 C 0.68519 0.6205 0.24526 0.0
H251 H 0.59268 0.6454 0.2941 0.0
H252 H 0.64629 0.59079 0.29377 0.0
C253 C 0.68762 0.65445 0.21648 0.0
C254 C 0.61109 0.35606 0.70289 0.0
C255 C 0.61448 0.321 0.73015 0.0
H256 H 0.63964 0.41265 0.67996 0.0
C257 C 0.6479 0.31951 0.75979 0.0
H258 H 0.58551 0.35846 0.67997 0.0
C259 C 0.67905 0.35068 0.75978 0.0
C260 C 0.67738 0.38395 0.73012 0.0
H261 H 0.65133 0.29309 0.78144 0.0
H262 H 0.70557 0.3474 0.78143 0.0
C263 C 0.64218 0.38718 0.70288 0.0
C264 C 0.81779 0.84958 0.71913 0.0
C265 C 0.82021 0.88362 0.74792 0.0
H266 H 0.84468 0.79122 0.69845 0.0
C267 C 0.85587 0.8873 0.77449 0.0
H268 H 0.7909 0.84592 0.698 0.0
C269 C 0.88669 0.85594 0.77476 0.0
C270 C 0.88256 0.82019 0.74845 0.0
H271 H 0.85899 0.91335 0.79675 0.0
H272 H 0.91264 0.85875 0.79721 0.0
C273 C 0.84868 0.81817 0.71938 0.0
C274 C 0.83057 0.15341 0.26238 0.0
C275 C 0.83193 0.12014 0.2326 0.0
H276 H 0.85834 0.21116 0.28381 0.0
C277 C 0.86687 0.11689 0.20512 0.0
H278 H 0.80427 0.15669 0.28424 0.0
C279 C 0.89786 0.1481 0.20489 0.0
C280 C 0.89462 0.18327 0.23212 0.0
H281 H 0.86919 0.0914 0.18212 0.0
H282 H 0.92315 0.14574 0.1817 0.0
C283 C 0.86162 0.18468 0.26214 0.0
C284 C 0.11132 0.14195 0.77302 0.0
C285 C 0.11408 0.17595 0.74433 0.0
H286 H 0.1402 0.08604 0.79727 0.0
C287 C 0.14659 0.17614 0.71372 0.0
H288 H 0.08646 0.14056 0.79675 0.0
C289 C 0.17749 0.14476 0.71401 0.0
C290 C 0.17651 0.11258 0.74494 0.0
H291 H 0.14949 0.20169 0.69095 0.0
H292 H 0.20331 0.14704 0.69146 0.0
C293 C 0.14219 0.11063 0.77333 0.0
C294 C 0.14776 0.89456 0.20557 0.0
C295 C 0.18267 0.89138 0.2332 0.0
H296 H 0.091 0.86607 0.18256 0.0
C297 C 0.18355 0.85875 0.26362 0.0
H298 H 0.14581 0.91956 0.18206 0.0
C299 C 0.152 0.82797 0.26391 0.0
C300 C 0.11899 0.82924 0.23378 0.0
H301 H 0.20981 0.85553 0.2856 0.0
H302 H 0.15487 0.80194 0.28612 0.0
C303 C 0.11627 0.86383 0.20585 0.0
C304 C 0.17736 0.62085 0.25393 0.0
C305 C 0.18574 0.5799 0.2394 0.0
H306 H 0.14467 0.67849 0.24245 0.0
C307 C 0.17394 0.56835 0.19764 0.0
H308 H 0.18582 0.63012 0.28631 0.0
C309 C 0.14929 0.59558 0.17285 0.0
C310 C 0.13675 0.63484 0.18941 0.0
H311 H 0.17956 0.53666 0.18611 0.0
H312 H 0.13712 0.58444 0.14237 0.0
C313 C 0.15357 0.64841 0.22883 0.0
C314 C 0.55656 0.84041 0.78569 0.0
C315 C 0.57015 0.82408 0.74627 0.0
H316 H 0.57161 0.88028 0.83903 0.0
C317 C 0.61264 0.82798 0.7347 0.0
H318 H 0.52369 0.83835 0.79479 0.0
C319 C 0.64021 0.85171 0.75999 0.0
C320 C 0.62528 0.87286 0.79661 0.0
H321 H 0.62353 0.81607 0.70405 0.0
H322 H 0.67191 0.85695 0.74835 0.0
C323 C 0.58394 0.86479 0.81071 0.0
C324 C 0.8646 0.41833 0.17414 0.0
C325 C 0.87719 0.37863 0.18947 0.0
H326 H 0.83462 0.47701 0.18922 0.0
C327 C 0.86142 0.36452 0.22904 0.0
H328 H 0.87599 0.4299 0.1436 0.0
C329 C 0.83831 0.39169 0.25521 0.0
C330 C 0.82953 0.43284 0.24169 0.0
H331 H 0.87036 0.3341 0.24174 0.0
H332 H 0.83035 0.38175 0.28746 0.0
C333 C 0.84058 0.44517 0.20001 0.0
C334 C 0.4392 0.16469 0.77741 0.0
C335 C 0.42703 0.17654 0.73588 0.0
H336 H 0.4236 0.12828 0.83297 0.0
C337 C 0.3857 0.16856 0.7221 0.0
H338 H 0.47119 0.17002 0.78837 0.0
C339 C 0.35825 0.1452 0.7477 0.0
C340 C 0.37228 0.12841 0.78691 0.0
H341 H 0.37591 0.17709 0.68993 0.0
H342 H 0.32776 0.13668 0.73466 0.0
C343 C 0.41208 0.14047 0.8027 0.0
C344 C 0.16667 0.43959 0.77714 0.0
C345 C 0.17794 0.42843 0.73515 0.0
H346 H 0.13074 0.42285 0.83271 0.0
C347 C 0.16935 0.38761 0.72032 0.0
H348 H 0.17247 0.47117 0.78892 0.0
C349 C 0.14604 0.35972 0.74546 0.0
C350 C 0.12988 0.37283 0.78526 0.0
H351 H 0.17743 0.3786 0.68779 0.0
H352 H 0.13706 0.32969 0.73172 0.0
C353 C 0.14246 0.41205 0.80197 0.0
C354 C 0.41835 0.85971 0.17809 0.0
C355 C 0.37967 0.8743 0.19434 0.0
H356 H 0.47701 0.8292 0.19239 0.0
C357 C 0.36723 0.86196 0.23572 0.0
H358 H 0.42862 0.86854 0.14621 0.0
C359 C 0.39519 0.84017 0.26222 0.0
C360 C 0.43542 0.82924 0.24733 0.0
H361 H 0.33766 0.87265 0.24917 0.0
H362 H 0.38665 0.83477 0.29542 0.0
C363 C 0.44591 0.83691 0.20434 0.0
C364 C 0.8343 0.55718 0.78238 0.0
C365 C 0.82075 0.57032 0.74172 0.0
H366 H 0.8717 0.57216 0.83762 0.0
C367 C 0.82688 0.6123 0.72939 0.0
H368 H 0.83044 0.5247 0.79217 0.0
C369 C 0.85008 0.63963 0.75543 0.0
C370 C 0.86852 0.62493 0.79362 0.0
H371 H 0.81706 0.62285 0.69786 0.0
H372 H 0.85708 0.67081 0.74341 0.0
C373 C 0.85828 0.58426 0.80813 0.0
C374 C 0.59699 0.14885 0.17206 0.0
C375 C 0.63616 0.13628 0.18893 0.0
H376 H 0.53781 0.17886 0.1849 0.0
C377 C 0.64917 0.15253 0.22879 0.0
H378 H 0.58628 0.13708 0.14126 0.0
C379 C 0.62121 0.17592 0.25382 0.0
C380 C 0.58042 0.18448 0.23883 0.0
H381 H 0.67916 0.14356 0.24264 0.0
H382 H 0.63009 0.18402 0.28641 0.0
C383 C 0.56938 0.17313 0.19679 0.0
C384 C 0.67026 0.11341 0.75099 0.0
C385 C 0.67697 0.07151 0.73858 0.0
H386 H 0.6394 0.17151 0.73707 0.0
C387 C 0.66349 0.05811 0.69792 0.0
H388 H 0.68004 0.12417 0.7825 0.0
C389 C 0.63913 0.08482 0.67224 0.0
C390 C 0.62848 0.12541 0.68678 0.0
H391 H 0.66779 0.02568 0.68805 0.0
H392 H 0.62585 0.07251 0.64273 0.0
C393 C 0.64673 0.14039 0.72501 0.0
C394 C 0.09725 0.36297 0.29886 0.0
C395 C 0.1359 0.37739 0.28242 0.0
H396 H 0.03888 0.33163 0.28504 0.0
C397 C 0.14881 0.36367 0.24161 0.0
H398 H 0.08664 0.37285 0.33033 0.0
C399 C 0.1212 0.34076 0.21559 0.0
C400 C 0.0809 0.33011 0.23048 0.0
H401 H 0.17838 0.37419 0.22803 0.0
H402 H 0.12999 0.33442 0.18261 0.0
C403 C 0.07006 0.33907 0.27314 0.0
C404 C 0.32714 0.88649 0.74517 0.0
C405 C 0.32155 0.92839 0.73231 0.0
H406 H 0.35811 0.82802 0.73301 0.0
C407 C 0.33646 0.9412 0.69208 0.0
H408 H 0.31633 0.87622 0.77643 0.0
C409 C 0.36139 0.91399 0.66758 0.0
C410 C 0.37132 0.87357 0.68297 0.0
H411 H 0.33306 0.97363 0.68193 0.0
H412 H 0.37593 0.92594 0.63862 0.0
C413 C 0.35137 0.85903 0.72037 0.0
C414 C 0.86574 0.65286 0.25611 0.0
C415 C 0.87996 0.63369 0.2941 0.0
H416 H 0.88329 0.68685 0.19956 0.0
C417 C 0.92057 0.64344 0.30941 0.0
H418 H 0.83462 0.64623 0.2435 0.0
C419 C 0.94806 0.66773 0.2846 0.0
C420 C 0.93537 0.68216 0.2441 0.0
H421 H 0.93231 0.62946 0.33877 0.0
H422 H 0.98049 0.67124 0.29492 0.0
C423 C 0.89347 0.67642 0.23101 0.0
C424 C 0.67795 0.89313 0.22453 0.0
C425 C 0.68612 0.93436 0.23835 0.0
H426 H 0.64651 0.83508 0.23747 0.0
C427 C 0.67479 0.94638 0.28007 0.0
H428 H 0.68607 0.88346 0.19221 0.0
C429 C 0.65104 0.91912 0.30568 0.0
C430 C 0.63894 0.87933 0.29001 0.0
H431 H 0.68025 0.97829 0.29106 0.0
H432 H 0.63936 0.93046 0.33623 0.0
C433 C 0.65508 0.86555 0.25043 0.0
C434 C 0.8592 0.35148 0.72159 0.0
C435 C 0.87325 0.37098 0.68375 0.0
H436 H 0.87709 0.31709 0.77782 0.0
C437 C 0.91365 0.36117 0.66812 0.0
H438 H 0.82822 0.35817 0.73443 0.0
C439 C 0.94123 0.3366 0.69259 0.0
C440 C 0.92884 0.32199 0.73307 0.0
H441 H 0.92523 0.3754 0.63885 0.0
H442 H 0.97359 0.33317 0.68211 0.0
C443 C 0.88703 0.32765 0.74636 0.0
C444 C 0.36455 0.14584 0.23751 0.0
C445 C 0.37716 0.13411 0.27905 0.0
H446 H 0.33631 0.12552 0.1785 0.0
C447 C 0.36192 0.09621 0.29641 0.0
H448 H 0.37578 0.1748 0.22324 0.0
C449 C 0.33819 0.06855 0.27107 0.0
C450 C 0.33028 0.07812 0.22787 0.0
H451 H 0.37097 0.08653 0.32845 0.0
H452 H 0.33003 0.03793 0.28385 0.0
C453 C 0.34185 0.11772 0.21189 0.0
C454 C 0.13928 0.64507 0.73278 0.0
C455 C 0.12585 0.62995 0.6926 0.0
H456 H 0.12095 0.67477 0.79163 0.0
C457 C 0.08613 0.64234 0.67695 0.0
H458 H 0.16967 0.63621 0.74577 0.0
C459 C 0.05866 0.66553 0.70293 0.0
C460 C 0.07037 0.67593 0.74505 0.0
H461 H 0.07504 0.63139 0.64597 0.0
H462 H 0.02686 0.67137 0.69175 0.0
C463 C 0.11149 0.66732 0.75905 0.0
C464 C 0.25071 0.54535 0.50679 0.0
C465 C 0.24694 0.51 0.5333 0.0
H466 H 0.24953 0.56795 0.44203 0.0
C467 C 0.24991 0.46959 0.51534 0.0
H468 H 0.24757 0.57674 0.52006 0.0
C469 C 0.25179 0.46456 0.47083 0.0
C470 C 0.24993 0.49992 0.4441 0.0
H471 H 0.24623 0.44198 0.53535 0.0
H472 H 0.24934 0.43318 0.45738 0.0
C473 C 0.25185 0.54032 0.46225 0.0
C474 C 0.4807 0.74946 0.46444 0.0
C475 C 0.52098 0.75752 0.44783 0.0
H476 H 0.44246 0.74711 0.52108 0.0
C477 C 0.55554 0.75968 0.47574 0.0
H478 H 0.45356 0.74863 0.44331 0.0
C479 C 0.54913 0.7595 0.52003 0.0
C480 C 0.50819 0.7566 0.53667 0.0
H481 H 0.58669 0.76677 0.4635 0.0
H482 H 0.57552 0.76631 0.54106 0.0
C483 C 0.47436 0.74859 0.50885 0.0
C484 C 0.75078 0.46984 0.46221 0.0
C485 C 0.75504 0.51028 0.44472 0.0
H486 H 0.75093 0.43292 0.51972 0.0
C487 C 0.75274 0.5455 0.47171 0.0
H488 H 0.75332 0.4423 0.44182 0.0
C489 C 0.75219 0.54012 0.51618 0.0
C490 C 0.75313 0.49952 0.5338 0.0
H491 H 0.75686 0.57687 0.45879 0.0
H492 H 0.75584 0.56748 0.53667 0.0
C493 C 0.74936 0.46448 0.5067 0.0
C494 C 0.53538 0.25285 0.46129 0.0
C495 C 0.49545 0.2486 0.44237 0.0
H496 H 0.57097 0.25054 0.5198 0.0
C497 C 0.45953 0.24812 0.46842 0.0
H498 H 0.56348 0.25232 0.44159 0.0
C499 C 0.46385 0.24624 0.51298 0.0
C500 C 0.50407 0.24564 0.53172 0.0
H501 H 0.42856 0.24389 0.45435 0.0
H502 H 0.4361 0.2408 0.53241 0.0
C503 C 0.53966 0.2518 0.50594 0.0
C504 C 0.754 0.04728 0.00622 0.0
C505 C 0.75369 0.01214 0.03331 0.0
H506 H 0.74697 0.06899 0.94155 0.0
C507 C 0.75737 0.97169 0.01557 0.0
H508 H 0.75025 0.07865 0.01936 0.0
C509 C 0.75624 0.96618 0.97107 0.0
C510 C 0.75057 1.00108 0.94424 0.0
H511 H 0.75627 0.9442 0.03607 0.0
H512 H 0.75435 0.93456 0.95814 0.0
C513 C 0.75203 0.04174 0.96179 0.0
C514 C 0.03776 0.25132 0.96639 0.0
C515 C 1.00227 0.25728 0.94027 0.0
H516 H 0.0617 0.25308 0.03077 0.0
C517 C 0.9621 0.25846 0.95893 0.0
H518 H 0.06905 0.25122 0.95254 0.0
C519 C 0.95784 0.25873 0.00351 0.0
C520 C 0.99379 0.25853 0.02963 0.0
H521 H 0.93445 0.26376 0.93921 0.0
H522 H 0.92702 0.26435 0.01729 0.0
C523 C 0.03355 0.25239 0.01104 0.0
C524 C 0.26164 0.95604 0.95834 0.0
C525 C 0.25793 0.99644 0.94063 0.0
H526 H 0.26969 0.92009 0.01582 0.0
C527 C 0.24942 0.03077 0.96756 0.0
H528 H 0.26882 0.9293 0.938 0.0
C529 C 0.25045 0.02555 0.01214 0.0
C530 C 0.25923 0.98589 0.02978 0.0
H531 H 0.24731 0.06227 0.95448 0.0
H532 H 0.24913 0.05314 0.03256 0.0
C533 C 0.26204 0.95075 0.00278 0.0
C534 C 0.03241 0.75264 0.96481 0.0
C535 C 0.99165 0.74743 0.94811 0.0
H536 H 0.07067 0.75333 0.02158 0.0
C537 C 0.95698 0.74857 0.97584 0.0
H538 H 0.05956 0.75093 0.94384 0.0
C539 C 0.96336 0.74925 0.02019 0.0
C540 C 0.00441 0.74946 0.037 0.0
H541 H 0.9254 0.74366 0.96354 0.0
H542 H 0.93655 0.7449 0.04122 0.0
C543 C 0.03876 0.75407 0.0092 0.0
loop_
_geom_bond_atom_site_label_1
_geom_bond_atom_site_label_2
_geom_bond_distance
_geom_bond_site_symmetry_2
_ccdc_geom_bond_type
Zn0 O3 2.031 . S
Zn0 O5 2.049 . S
Zn0 O10 2.067 . S
Zn1 O2 1.962 . S
Zn1 O4 1.986 . S
Zn1 O6 1.996 . S
Zn1 O9 1.943 . S
O2 Zn1 1.962 . S
O2 C7 1.254 . S
O3 Zn0 2.031 . S
O3 C7 1.269 . S
O4 Zn1 1.986 . S
O4 C11 1.262 . S
O5 Zn0 2.049 . S
O5 C13 1.260 . S
O6 Zn1 1.996 . S
O6 C13 1.257 . S
C7 O2 1.254 . S
C7 O3 1.269 . S
C8 O9 1.249 . S
C8 O10 1.270 . S
O9 Zn1 1.943 . S
O9 C8 1.249 . S
O10 Zn0 2.067 . S
O10 C8 1.270 . S
C11 O4 1.262 . S
C11 O12 1.232 . S
O12 C11 1.232 . S
C13 O5 1.260 . S
C13 O6 1.257 . S
Zn14 O17 2.031 . S
Zn14 O19 2.049 . S
Zn14 O24 2.067 . S
Zn15 O16 1.962 . S
Zn15 O18 1.986 . S
Zn15 O20 1.996 . S
Zn15 O23 1.943 . S
O16 Zn15 1.962 . S
O16 C21 1.254 . S
O17 Zn14 2.031 . S
O17 C21 1.269 . S
O18 Zn15 1.986 . S
O18 C25 1.262 . S
O19 Zn14 2.049 . S
O19 C27 1.260 . S
O20 Zn15 1.996 . S
O20 C27 1.257 . S
C21 O16 1.254 . S
C21 O17 1.269 . S
C22 O23 1.249 . S
C22 O24 1.270 . S
O23 Zn15 1.943 . S
O23 C22 1.249 . S
O24 Zn14 2.067 . S
O24 C22 1.270 . S
C25 O18 1.262 . S
C25 O26 1.232 . S
O26 C25 1.232 . S
C27 O19 1.260 . S
C27 O20 1.257 . S
Zn28 O31 2.031 . S
Zn28 O33 2.049 . S
Zn28 O38 2.067 . S
Zn29 O30 1.962 . S
Zn29 O32 1.986 . S
Zn29 O34 1.996 . S
Zn29 O37 1.943 . S
O30 Zn29 1.962 . S
O30 C35 1.254 . S
O31 Zn28 2.031 . S
O31 C35 1.269 . S
O32 Zn29 1.986 . S
O32 C39 1.262 . S
O33 Zn28 2.049 . S
O33 C41 1.260 . S
O34 Zn29 1.996 . S
O34 C41 1.257 . S
C35 O30 1.254 . S
C35 O31 1.269 . S
C36 O37 1.249 . S
C36 O38 1.270 . S
O37 Zn29 1.943 . S
O37 C36 1.249 . S
O38 Zn28 2.067 . S
O38 C36 1.270 . S
C39 O32 1.262 . S
C39 O40 1.232 . S
O40 C39 1.232 . S
C41 O33 1.260 . S
C41 O34 1.257 . S
Zn42 O45 2.031 . S
Zn42 O47 2.049 . S
Zn42 O52 2.067 . S
Zn43 O44 1.962 . S
Zn43 O46 1.986 . S
Zn43 O48 1.996 . S
Zn43 O51 1.943 . S
O44 Zn43 1.962 . S
O44 C49 1.254 . S
O45 Zn42 2.031 . S
O45 C49 1.269 . S
O46 Zn43 1.986 . S
O46 C53 1.262 . S
O47 Zn42 2.049 . S
O47 C55 1.260 . S
O48 Zn43 1.996 . S
O48 C55 1.257 . S
C49 O44 1.254 . S
C49 O45 1.269 . S
C50 O51 1.249 . S
C50 O52 1.270 . S
O51 Zn43 1.943 . S
O51 C50 1.249 . S
O52 Zn42 2.067 . S
O52 C50 1.270 . S
C53 O46 1.262 . S
C53 O54 1.232 . S
O54 C53 1.232 . S
C55 O47 1.260 . S
C55 O48 1.257 . S
Zn56 O59 2.031 . S
Zn56 O61 2.049 . S
Zn56 O66 2.067 . S
Zn57 O58 1.962 . S
Zn57 O60 1.986 . S
Zn57 O62 1.996 . S
Zn57 O65 1.943 . S
O58 Zn57 1.962 . S
O58 C63 1.254 . S
O59 Zn56 2.031 . S
O59 C63 1.269 . S
O60 Zn57 1.986 . S
O60 C67 1.262 . S
O61 Zn56 2.049 . S
O61 C69 1.260 . S
O62 Zn57 1.996 . S
O62 C69 1.257 . S
C63 O58 1.254 . S
C63 O59 1.269 . S
C64 O65 1.249 . S
C64 O66 1.270 . S
O65 Zn57 1.943 . S
O65 C64 1.249 . S
O66 Zn56 2.067 . S
O66 C64 1.270 . S
C67 O60 1.262 . S
C67 O68 1.232 . S
O68 C67 1.232 . S
C69 O61 1.260 . S
C69 O62 1.257 . S
Zn70 O73 2.031 . S
Zn70 O75 2.049 . S
Zn70 O80 2.067 . S
Zn71 O72 1.962 . S
Zn71 O74 1.986 . S
Zn71 O76 1.996 . S
Zn71 O79 1.943 . S
O72 Zn71 1.962 . S
O72 C77 1.254 . S
O73 Zn70 2.031 . S
O73 C77 1.269 . S
O74 Zn71 1.986 . S
O74 C81 1.262 . S
O75 Zn70 2.049 . S
O75 C83 1.260 . S
O76 Zn71 1.996 . S
O76 C83 1.257 . S
C77 O72 1.254 . S
C77 O73 1.269 . S
C78 O79 1.249 . S
C78 O80 1.270 . S
O79 Zn71 1.943 . S
O79 C78 1.249 . S
O80 Zn70 2.067 . S
O80 C78 1.270 . S
C81 O74 1.262 . S
C81 O82 1.232 . S
O82 C81 1.232 . S
C83 O75 1.260 . S
C83 O76 1.257 . S
Zn84 O87 2.031 . S
Zn84 O89 2.049 . S
Zn84 O94 2.067 . S
Zn85 O86 1.962 . S
Zn85 O88 1.986 . S
Zn85 O90 1.996 . S
Zn85 O93 1.943 . S
O86 Zn85 1.962 . S
O86 C91 1.254 . S
O87 Zn84 2.031 . S
O87 C91 1.269 . S
O88 Zn85 1.986 . S
O88 C95 1.262 . S
O89 Zn84 2.049 . S
O89 C97 1.260 . S
O90 Zn85 1.996 . S
O90 C97 1.257 . S
C91 O86 1.254 . S
C91 O87 1.269 . S
C92 O93 1.249 . S
C92 O94 1.270 . S
O93 Zn85 1.943 . S
O93 C92 1.249 . S
O94 Zn84 2.067 . S
O94 C92 1.270 . S
C95 O88 1.262 . S
C95 O96 1.232 . S
O96 C95 1.232 . S
C97 O89 1.260 . S
C97 O90 1.257 . S
Zn98 O101 2.031 . S
Zn98 O103 2.049 . S
Zn98 O108 2.067 . S
Zn99 O100 1.962 . S
Zn99 O102 1.986 . S
Zn99 O104 1.996 . S
Zn99 O107 1.943 . S
O100 Zn99 1.962 . S
O100 C105 1.254 . S
O101 Zn98 2.031 . S
O101 C105 1.269 . S
O102 Zn99 1.986 . S
O102 C109 1.262 . S
O103 Zn98 2.049 . S
O103 C111 1.260 . S
O104 Zn99 1.996 . S
O104 C111 1.257 . S
C105 O100 1.254 . S
C105 O101 1.269 . S
C106 O107 1.249 . S
C106 O108 1.270 . S
O107 Zn99 1.943 . S
O107 C106 1.249 . S
O108 Zn98 2.067 . S
O108 C106 1.270 . S
C109 O102 1.262 . S
C109 O110 1.232 . S
O110 C109 1.232 . S
C111 O103 1.260 . S
C111 O104 1.257 . S
Zn112 O115 2.031 . S
Zn112 O117 2.049 . S
Zn112 O122 2.067 1_565 S
Zn113 O114 1.962 . S
Zn113 O116 1.986 . S
Zn113 O118 1.996 . S
Zn113 O121 1.943 . S
O114 Zn113 1.962 . S
O114 C119 1.254 . S
O115 Zn112 2.031 . S
O115 C119 1.269 . S
O116 Zn113 1.986 . S
O116 C123 1.262 . S
O117 Zn112 2.049 . S
O117 C125 1.260 . S
O118 Zn113 1.996 . S
O118 C125 1.257 . S
C119 O114 1.254 . S
C119 O115 1.269 . S
C120 O121 1.249 . S
C120 O122 1.270 1_565 S
O121 Zn113 1.943 . S
O121 C120 1.249 . S
O122 Zn112 2.067 1_545 S
O122 C120 1.270 1_545 S
C123 O116 1.262 . S
C123 O124 1.232 . S
O124 C123 1.232 . S
C125 O117 1.260 . S
C125 O118 1.257 . S
Zn126 O129 2.031 . S
Zn126 O131 2.049 . S
Zn126 O136 2.067 1_655 S
Zn127 O128 1.962 . S
Zn127 O130 1.986 . S
Zn127 O132 1.996 . S
Zn127 O135 1.943 . S
O128 Zn127 1.962 . S
O128 C133 1.254 . S
O129 Zn126 2.031 . S
O129 C133 1.269 . S
O130 Zn127 1.986 . S
O130 C137 1.262 . S
O131 Zn126 2.049 . S
O131 C139 1.260 . S
O132 Zn127 1.996 . S
O132 C139 1.257 . S
C133 O128 1.254 . S
C133 O129 1.269 . S
C134 O135 1.249 . S
C134 O136 1.270 1_655 S
O135 Zn127 1.943 . S
O135 C134 1.249 . S
O136 Zn126 2.067 1_455 S
O136 C134 1.270 1_455 S
C137 O130 1.262 . S
C137 O138 1.232 . S
O138 C137 1.232 . S
C139 O131 1.260 . S
C139 O132 1.257 . S
Zn140 O143 2.031 . S
Zn140 O145 2.049 . S
Zn140 O150 2.067 1_545 S
Zn141 O142 1.962 . S
Zn141 O144 1.986 . S
Zn141 O146 1.996 . S
Zn141 O149 1.943 . S
O142 Zn141 1.962 . S
O142 C147 1.254 . S
O143 Zn140 2.031 . S
O143 C147 1.269 . S
O144 Zn141 1.986 . S
O144 C151 1.262 . S
O145 Zn140 2.049 . S
O145 C153 1.260 . S
O146 Zn141 1.996 . S
O146 C153 1.257 . S
C147 O142 1.254 . S
C147 O143 1.269 . S
C148 O149 1.249 . S
C148 O150 1.270 1_545 S
O149 Zn141 1.943 . S
O149 C148 1.249 . S
O150 Zn140 2.067 1_565 S
O150 C148 1.270 1_565 S
C151 O144 1.262 . S
C151 O152 1.232 . S
O152 C151 1.232 . S
C153 O145 1.260 . S
C153 O146 1.257 . S
Zn154 O157 2.031 . S
Zn154 O159 2.049 . S
Zn154 O164 2.067 1_455 S
Zn155 O156 1.962 . S
Zn155 O158 1.986 . S
Zn155 O160 1.996 . S
Zn155 O163 1.943 . S
O156 Zn155 1.962 . S
O156 C161 1.254 . S
O157 Zn154 2.031 . S
O157 C161 1.269 . S
O158 Zn155 1.986 . S
O158 C165 1.262 . S
O159 Zn154 2.049 . S
O159 C167 1.260 . S
O160 Zn155 1.996 . S
O160 C167 1.257 . S
C161 O156 1.254 . S
C161 O157 1.269 . S
C162 O163 1.249 . S
C162 O164 1.270 1_455 S
O163 Zn155 1.943 . S
O163 C162 1.249 . S
O164 Zn154 2.067 1_655 S
O164 C162 1.270 1_655 S
C165 O158 1.262 . S
C165 O166 1.232 . S
O166 C165 1.232 . S
C167 O159 1.260 . S
C167 O160 1.257 . S
Zn168 O171 2.031 . S
Zn168 O173 2.049 . S
Zn168 O178 2.067 1_545 S
Zn169 O170 1.962 . S
Zn169 O172 1.986 . S
Zn169 O174 1.996 . S
Zn169 O177 1.943 . S
O170 Zn169 1.962 . S
O170 C175 1.254 . S
O171 Zn168 2.031 . S
O171 C175 1.269 . S
O172 Zn169 1.986 . S
O172 C179 1.262 . S
O173 Zn168 2.049 . S
O173 C181 1.260 . S
O174 Zn169 1.996 . S
O174 C181 1.257 . S
C175 O170 1.254 . S
C175 O171 1.269 . S
C176 O177 1.249 . S
C176 O178 1.270 1_545 S
O177 Zn169 1.943 . S
O177 C176 1.249 . S
O178 Zn168 2.067 1_565 S
O178 C176 1.270 1_565 S
C179 O172 1.262 . S
C179 O180 1.232 . S
O180 C179 1.232 . S
C181 O173 1.260 . S
C181 O174 1.257 . S
Zn182 O185 2.031 . S
Zn182 O187 2.049 . S
Zn182 O192 2.067 1_455 S
Zn183 O184 1.962 . S
Zn183 O186 1.986 . S
Zn183 O188 1.996 . S
Zn183 O191 1.943 . S
O184 Zn183 1.962 . S
O184 C189 1.254 . S
O185 Zn182 2.031 . S
O185 C189 1.269 . S
O186 Zn183 1.986 . S
O186 C193 1.262 . S
O187 Zn182 2.049 . S
O187 C195 1.260 . S
O188 Zn183 1.996 . S
O188 C195 1.257 . S
C189 O184 1.254 . S
C189 O185 1.269 . S
C190 O191 1.249 . S
C190 O192 1.270 1_455 S
O191 Zn183 1.943 . S
O191 C190 1.249 . S
O192 Zn182 2.067 1_655 S
O192 C190 1.270 1_655 S
C193 O186 1.262 . S
C193 O194 1.232 . S
O194 C193 1.232 . S
C195 O187 1.260 . S
C195 O188 1.257 . S
Zn196 O199 2.031 . S
Zn196 O201 2.049 . S
Zn196 O206 2.067 1_565 S
Zn197 O198 1.962 . S
Zn197 O200 1.986 . S
Zn197 O202 1.996 . S
Zn197 O205 1.943 . S
O198 Zn197 1.962 . S
O198 C203 1.254 . S
O199 Zn196 2.031 . S
O199 C203 1.269 . S
O200 Zn197 1.986 . S
O200 C207 1.262 . S
O201 Zn196 2.049 . S
O201 C209 1.260 . S
O202 Zn197 1.996 . S
O202 C209 1.257 . S
C203 O198 1.254 . S
C203 O199 1.269 . S
C204 O205 1.249 . S
C204 O206 1.270 1_565 S
O205 Zn197 1.943 . S
O205 C204 1.249 . S
O206 Zn196 2.067 1_545 S
O206 C204 1.270 1_545 S
C207 O200 1.262 . S
C207 O208 1.232 . S
O208 C207 1.232 . S
C209 O201 1.260 . S
C209 O202 1.257 . S
Zn210 O213 2.031 . S
Zn210 O215 2.049 . S
Zn210 O220 2.067 1_655 S
Zn211 O212 1.962 . S
Zn211 O214 1.986 . S
Zn211 O216 1.996 . S
Zn211 O219 1.943 . S
O212 Zn211 1.962 . S
O212 C217 1.254 . S
O213 Zn210 2.031 . S
O213 C217 1.269 . S
O214 Zn211 1.986 . S
O214 C221 1.262 . S
O215 Zn210 2.049 . S
O215 C223 1.260 . S
O216 Zn211 1.996 . S
O216 C223 1.257 . S
C217 O212 1.254 . S
C217 O213 1.269 . S
C218 O219 1.249 . S
C218 O220 1.270 1_655 S
O219 Zn211 1.943 . S
O219 C218 1.249 . S
O220 Zn210 2.067 1_455 S
O220 C218 1.270 1_455 S
C221 O214 1.262 . S
C221 O222 1.232 . S
O222 C221 1.232 . S
C223 O215 1.260 . S
C223 O216 1.257 . S
C224 C225 1.387 . S
C224 H228 0.950 . S
C224 C233 1.390 . S
C225 C224 1.387 . S
C225 C227 1.387 . S
H226 C233 0.950 . S
C227 C225 1.387 . S
C227 C229 1.390 . S
C227 H231 0.950 . S
H228 C224 0.950 . S
C229 C227 1.390 . S
C229 C230 1.387 . S
C229 H232 0.950 . S
C230 C229 1.387 . S
C230 C233 1.387 . S
H231 C227 0.950 . S
H232 C229 0.950 . S
C233 C224 1.390 . S
C233 H226 0.950 . S
C233 C230 1.387 . S
C234 C235 1.387 . S
C234 H238 0.950 . S
C234 C243 1.390 . S
C235 C234 1.387 . S
C235 C237 1.387 . S
H236 C243 0.950 . S
C237 C235 1.387 . S
C237 C239 1.390 . S
C237 H241 0.950 . S
H238 C234 0.950 . S
C239 C237 1.390 . S
C239 C240 1.387 . S
C239 H242 0.950 . S
C240 C239 1.387 . S
C240 C243 1.387 . S
H241 C237 0.950 . S
H242 C239 0.950 . S
C243 C234 1.390 . S
C243 H236 0.950 . S
C243 C240 1.387 . S
C244 C245 1.387 . S
C244 H248 0.950 . S
C244 C253 1.390 . S
C245 C244 1.387 . S
C245 C247 1.387 . S
H246 C253 0.950 . S
C247 C245 1.387 . S
C247 C249 1.390 . S
C247 H251 0.950 . S
H248 C244 0.950 . S
C249 C247 1.390 . S
C249 C250 1.387 . S
C249 H252 0.950 . S
C250 C249 1.387 . S
C250 C253 1.387 . S
H251 C247 0.950 . S
H252 C249 0.950 . S
C253 C244 1.390 . S
C253 H246 0.950 . S
C253 C250 1.387 . S
C254 C255 1.387 . S
C254 H258 0.950 . S
C254 C263 1.390 . S
C255 C254 1.387 . S
C255 C257 1.387 . S
H256 C263 0.950 . S
C257 C255 1.387 . S
C257 C259 1.390 . S
C257 H261 0.950 . S
H258 C254 0.950 . S
C259 C257 1.390 . S
C259 C260 1.387 . S
C259 H262 0.950 . S
C260 C259 1.387 . S
C260 C263 1.387 . S
H261 C257 0.950 . S
H262 C259 0.950 . S
C263 C254 1.390 . S
C263 H256 0.950 . S
C263 C260 1.387 . S
C264 C265 1.387 . S
C264 H268 0.950 . S
C264 C273 1.390 . S
C265 C264 1.387 . S
C265 C267 1.387 . S
H266 C273 0.950 . S
C267 C265 1.387 . S
C267 C269 1.390 . S
C267 H271 0.950 . S
H268 C264 0.950 . S
C269 C267 1.390 . S
C269 C270 1.387 . S
C269 H272 0.950 . S
C270 C269 1.387 . S
C270 C273 1.387 . S
H271 C267 0.950 . S
H272 C269 0.950 . S
C273 C264 1.390 . S
C273 H266 0.950 . S
C273 C270 1.387 . S
C274 C275 1.387 . S
C274 H278 0.950 . S
C274 C283 1.390 . S
C275 C274 1.387 . S
C275 C277 1.387 . S
H276 C283 0.950 . S
C277 C275 1.387 . S
C277 C279 1.390 . S
C277 H281 0.950 . S
H278 C274 0.950 . S
C279 C277 1.390 . S
C279 C280 1.387 . S
C279 H282 0.950 . S
C280 C279 1.387 . S
C280 C283 1.387 . S
H281 C277 0.950 . S
H282 C279 0.950 . S
C283 C274 1.390 . S
C283 H276 0.950 . S
C283 C280 1.387 . S
C284 C285 1.387 . S
C284 H288 0.950 . S
C284 C293 1.390 . S
C285 C284 1.387 . S
C285 C287 1.387 . S
H286 C293 0.950 . S
C287 C285 1.387 . S
C287 C289 1.390 . S
C287 H291 0.950 . S
H288 C284 0.950 . S
C289 C287 1.390 . S
C289 C290 1.387 . S
C289 H292 0.950 . S
C290 C289 1.387 . S
C290 C293 1.387 . S
H291 C287 0.950 . S
H292 C289 0.950 . S
C293 C284 1.390 . S
C293 H286 0.950 . S
C293 C290 1.387 . S
C294 C295 1.387 . S
C294 H298 0.950 . S
C294 C303 1.390 . S
C295 C294 1.387 . S
C295 C297 1.387 . S
H296 C303 0.950 . S
C297 C295 1.387 . S
C297 C299 1.390 . S
C297 H301 0.950 . S
H298 C294 0.950 . S
C299 C297 1.390 . S
C299 C300 1.387 . S
C299 H302 0.950 . S
C300 C299 1.387 . S
C300 C303 1.387 . S
H301 C297 0.950 . S
H302 C299 0.950 . S
C303 C294 1.390 . S
C303 H296 0.950 . S
C303 C300 1.387 . S
C304 C305 1.387 . S
C304 H308 0.950 . S
C304 C313 1.390 . S
C305 C304 1.387 . S
C305 C307 1.387 . S
H306 C313 0.950 . S
C307 C305 1.387 . S
C307 C309 1.390 . S
C307 H311 0.950 . S
H308 C304 0.950 . S
C309 C307 1.390 . S
C309 C310 1.387 . S
C309 H312 0.950 . S
C310 C309 1.387 . S
C310 C313 1.387 . S
H311 C307 0.950 . S
H312 C309 0.950 . S
C313 C304 1.390 . S
C313 H306 0.950 . S
C313 C310 1.387 . S
C314 C315 1.387 . S
C314 H318 0.950 . S
C314 C323 1.390 . S
C315 C314 1.387 . S
C315 C317 1.387 . S
H316 C323 0.950 . S
C317 C315 1.387 . S
C317 C319 1.390 . S
C317 H321 0.950 . S
H318 C314 0.950 . S
C319 C317 1.390 . S
C319 C320 1.387 . S
C319 H322 0.950 . S
C320 C319 1.387 . S
C320 C323 1.387 . S
H321 C317 0.950 . S
H322 C319 0.950 . S
C323 C314 1.390 . S
C323 H316 0.950 . S
C323 C320 1.387 . S
C324 C325 1.387 . S
C324 H328 0.950 . S
C324 C333 1.390 . S
C325 C324 1.387 . S
C325 C327 1.387 . S
H326 C333 0.950 . S
C327 C325 1.387 . S
C327 C329 1.390 . S
C327 H331 0.950 . S
H328 C324 0.950 . S
C329 C327 1.390 . S
C329 C330 1.387 . S
C329 H332 0.950 . S
C330 C329 1.387 . S
C330 C333 1.387 . S
H331 C327 0.950 . S
H332 C329 0.950 . S
C333 C324 1.390 . S
C333 H326 0.950 . S
C333 C330 1.387 . S
C334 C335 1.387 . S
C334 H338 0.950 . S
C334 C343 1.390 . S
C335 C334 1.387 . S
C335 C337 1.387 . S
H336 C343 0.950 . S
C337 C335 1.387 . S
C337 C339 1.390 . S
C337 H341 0.950 . S
H338 C334 0.950 . S
C339 C337 1.390 . S
C339 C340 1.387 . S
C339 H342 0.950 . S
C340 C339 1.387 . S
C340 C343 1.387 . S
H341 C337 0.950 . S
H342 C339 0.950 . S
C343 C334 1.390 . S
C343 H336 0.950 . S
C343 C340 1.387 . S
C344 C345 1.387 . S
C344 H348 0.950 . S
C344 C353 1.390 . S
C345 C344 1.387 . S
C345 C347 1.387 . S
H346 C353 0.950 . S
C347 C345 1.387 . S
C347 C349 1.390 . S
C347 H351 0.950 . S
H348 C344 0.950 . S
C349 C347 1.390 . S
C349 C350 1.387 . S
C349 H352 0.950 . S
C350 C349 1.387 . S
C350 C353 1.387 . S
H351 C347 0.950 . S
H352 C349 0.950 . S
C353 C344 1.390 . S
C353 H346 0.950 . S
C353 C350 1.387 . S
C354 C355 1.387 . S
C354 H358 0.950 . S
C354 C363 1.390 . S
C355 C354 1.387 . S
C355 C357 1.387 . S
H356 C363 0.950 . S
C357 C355 1.387 . S
C357 C359 1.390 . S
C357 H361 0.950 . S
H358 C354 0.950 . S
C359 C357 1.390 . S
C359 C360 1.387 . S
C359 H362 0.950 . S
C360 C359 1.387 . S
C360 C363 1.387 . S
H361 C357 0.950 . S
H362 C359 0.950 . S
C363 C354 1.390 . S
C363 H356 0.950 . S
C363 C360 1.387 . S
C364 C365 1.387 . S
C364 H368 0.950 . S
C364 C373 1.390 . S
C365 C364 1.387 . S
C365 C367 1.387 . S
H366 C373 0.950 . S
C367 C365 1.387 . S
C367 C369 1.390 . S
C367 H371 0.950 . S
H368 C364 0.950 . S
C369 C367 1.390 . S
C369 C370 1.387 . S
C369 H372 0.950 . S
C370 C369 1.387 . S
C370 C373 1.387 . S
H371 C367 0.950 . S
H372 C369 0.950 . S
C373 C364 1.390 . S
C373 H366 0.950 . S
C373 C370 1.387 . S
C374 C375 1.387 . S
C374 H378 0.950 . S
C374 C383 1.390 . S
C375 C374 1.387 . S
C375 C377 1.387 . S
H376 C383 0.950 . S
C377 C375 1.387 . S
C377 C379 1.390 . S
C377 H381 0.950 . S
H378 C374 0.950 . S
C379 C377 1.390 . S
C379 C380 1.387 . S
C379 H382 0.950 . S
C380 C379 1.387 . S
C380 C383 1.387 . S
H381 C377 0.950 . S
H382 C379 0.950 . S
C383 C374 1.390 . S
C383 H376 0.950 . S
C383 C380 1.387 . S
C384 C385 1.387 . S
C384 H388 0.950 . S
C384 C393 1.390 . S
C385 C384 1.387 . S
C385 C387 1.387 . S
H386 C393 0.950 . S
C387 C385 1.387 . S
C387 C389 1.390 . S
C387 H391 0.950 1_545 S
H388 C384 0.950 . S
C389 C387 1.390 . S
C389 C390 1.387 . S
C389 H392 0.950 . S
C390 C389 1.387 . S
C390 C393 1.387 . S
H391 C387 0.950 1_565 S
H392 C389 0.950 . S
C393 C384 1.390 . S
C393 H386 0.950 . S
C393 C390 1.387 . S
C394 C395 1.387 . S
C394 H398 0.950 . S
C394 C403 1.390 . S
C395 C394 1.387 . S
C395 C397 1.387 . S
H396 C403 0.950 . S
C397 C395 1.387 . S
C397 C399 1.390 . S
C397 H401 0.950 . S
H398 C394 0.950 . S
C399 C397 1.390 . S
C399 C400 1.387 . S
C399 H402 0.950 . S
C400 C399 1.387 . S
C400 C403 1.387 . S
H401 C397 0.950 . S
H402 C399 0.950 . S
C403 C394 1.390 . S
C403 H396 0.950 . S
C403 C400 1.387 . S
C404 C405 1.387 . S
C404 H408 0.950 . S
C404 C413 1.390 . S
C405 C404 1.387 . S
C405 C407 1.387 . S
H406 C413 0.950 . S
C407 C405 1.387 . S
C407 C409 1.390 . S
C407 H411 0.950 1_565 S
H408 C404 0.950 . S
C409 C407 1.390 . S
C409 C410 1.387 . S
C409 H412 0.950 . S
C410 C409 1.387 . S
C410 C413 1.387 . S
H411 C407 0.950 1_545 S
H412 C409 0.950 . S
C413 C404 1.390 . S
C413 H406 0.950 . S
C413 C410 1.387 . S
C414 C415 1.387 . S
C414 H418 0.950 . S
C414 C423 1.390 . S
C415 C414 1.387 . S
C415 C417 1.387 . S
H416 C423 0.950 . S
C417 C415 1.387 . S
C417 C419 1.390 . S
C417 H421 0.950 . S
H418 C414 0.950 . S
C419 C417 1.390 . S
C419 C420 1.387 . S
C419 H422 0.950 1_655 S
C420 C419 1.387 . S
C420 C423 1.387 . S
H421 C417 0.950 . S
H422 C419 0.950 1_455 S
C423 C414 1.390 . S
C423 H416 0.950 . S
C423 C420 1.387 . S
C424 C425 1.387 . S
C424 H428 0.950 . S
C424 C433 1.390 . S
C425 C424 1.387 . S
C425 C427 1.387 . S
H426 C433 0.950 . S
C427 C425 1.387 . S
C427 C429 1.390 . S
C427 H431 0.950 1_565 S
H428 C424 0.950 . S
C429 C427 1.390 . S
C429 C430 1.387 . S
C429 H432 0.950 . S
C430 C429 1.387 . S
C430 C433 1.387 . S
H431 C427 0.950 1_545 S
H432 C429 0.950 . S
C433 C424 1.390 . S
C433 H426 0.950 . S
C433 C430 1.387 . S
C434 C435 1.387 . S
C434 H438 0.950 . S
C434 C443 1.390 . S
C435 C434 1.387 . S
C435 C437 1.387 . S
H436 C443 0.950 . S
C437 C435 1.387 . S
C437 C439 1.390 . S
C437 H441 0.950 . S
H438 C434 0.950 . S
C439 C437 1.390 . S
C439 C440 1.387 . S
C439 H442 0.950 1_655 S
C440 C439 1.387 . S
C440 C443 1.387 . S
H441 C437 0.950 . S
H442 C439 0.950 1_455 S
C443 C434 1.390 . S
C443 H436 0.950 . S
C443 C440 1.387 . S
C444 C445 1.387 . S
C444 H448 0.950 . S
C444 C453 1.390 . S
C445 C444 1.387 . S
C445 C447 1.387 . S
H446 C453 0.950 . S
C447 C445 1.387 . S
C447 C449 1.390 . S
C447 H451 0.950 . S
H448 C444 0.950 . S
C449 C447 1.390 . S
C449 C450 1.387 . S
C449 H452 0.950 . S
C450 C449 1.387 . S
C450 C453 1.387 . S
H451 C447 0.950 . S
H452 C449 0.950 . S
C453 C444 1.390 . S
C453 H446 0.950 . S
C453 C450 1.387 . S
C454 C455 1.387 . S
C454 H458 0.950 . S
C454 C463 1.390 . S
C455 C454 1.387 . S
C455 C457 1.387 . S
H456 C463 0.950 . S
C457 C455 1.387 . S
C457 C459 1.390 . S
C457 H461 0.950 . S
H458 C454 0.950 . S
C459 C457 1.390 . S
C459 C460 1.387 . S
C459 H462 0.967 . S
C460 C459 1.387 . S
C460 C463 1.387 . S
H461 C457 0.950 . S
H462 C459 0.967 . S
C463 C454 1.390 . S
C463 H456 0.950 . S
C463 C460 1.387 . S
C464 C465 1.387 . S
C464 H468 0.950 . S
C464 C473 1.390 . S
C465 C464 1.387 . S
C465 C467 1.387 . S
H466 C473 0.950 . S
C467 C465 1.387 . S
C467 C469 1.390 . S
C467 H471 0.950 . S
H468 C464 0.950 . S
C469 C467 1.390 . S
C469 C470 1.387 . S
C469 H472 0.950 . S
C470 C469 1.387 . S
C470 C473 1.387 . S
H471 C467 0.950 . S
H472 C469 0.950 . S
C473 C464 1.390 . S
C473 H466 0.950 . S
C473 C470 1.387 . S
C474 C475 1.387 . S
C474 H478 0.950 . S
C474 C483 1.390 . S
C475 C474 1.387 . S
C475 C477 1.387 . S
H476 C483 0.950 . S
C477 C475 1.387 . S
C477 C479 1.390 . S
C477 H481 0.950 . S
H478 C474 0.950 . S
C479 C477 1.390 . S
C479 C480 1.387 . S
C479 H482 0.950 . S
C480 C479 1.387 . S
C480 C483 1.387 . S
H481 C477 0.950 . S
H482 C479 0.950 . S
C483 C474 1.390 . S
C483 H476 0.950 . S
C483 C480 1.387 . S
C484 C485 1.387 . S
C484 H488 0.950 . S
C484 C493 1.390 . S
C485 C484 1.387 . S
C485 C487 1.387 . S
H486 C493 0.950 . S
C487 C485 1.387 . S
C487 C489 1.390 . S
C487 H491 0.950 . S
H488 C484 0.950 . S
C489 C487 1.390 . S
C489 C490 1.387 . S
C489 H492 0.950 . S
C490 C489 1.387 . S
C490 C493 1.387 . S
H491 C487 0.950 . S
H492 C489 0.950 . S
C493 C484 1.390 . S
C493 H486 0.950 . S
C493 C490 1.387 . S
C494 C495 1.387 . S
C494 H498 0.950 . S
C494 C503 1.390 . S
C495 C494 1.387 . S
C495 C497 1.387 . S
H496 C503 0.950 . S
C497 C495 1.387 . S
C497 C499 1.390 . S
C497 H501 0.950 . S
H498 C494 0.950 . S
C499 C497 1.390 . S
C499 C500 1.387 . S
C499 H502 0.950 . S
C500 C499 1.387 . S
C500 C503 1.387 . S
H501 C497 0.950 . S
H502 C499 0.950 . S
C503 C494 1.390 . S
C503 H496 0.950 . S
C503 C500 1.387 . S
C504 C505 1.387 . S
C504 H508 0.950 . S
C504 C513 1.390 1_544 S
C505 C504 1.387 . S
C505 C507 1.387 . S
H506 C513 0.950 . S
C507 C505 1.387 . S
C507 C509 1.390 1_544 S
C507 H511 0.950 . S
H508 C504 0.950 . S
C509 C507 1.390 1_566 S
C509 C510 1.387 . S
C509 H512 0.950 . S
C510 C509 1.387 . S
C510 C513 1.387 . S
H511 C507 0.950 . S
H512 C509 0.950 . S
C513 C504 1.390 1_566 S
C513 H506 0.950 . S
C513 C510 1.387 . S
C514 C515 1.387 . S
C514 H518 0.950 . S
C514 C523 1.390 1_456 S
C515 C514 1.387 . S
C515 C517 1.387 . S
H516 C523 0.950 . S
C517 C515 1.387 . S
C517 C519 1.390 1_456 S
C517 H521 0.950 . S
H518 C514 0.950 . S
C519 C517 1.390 1_654 S
C519 C520 1.387 . S
C519 H522 0.950 . S
C520 C519 1.387 . S
C520 C523 1.387 . S
H521 C517 0.950 . S
H522 C519 0.950 . S
C523 C514 1.390 1_654 S
C523 H516 0.950 . S
C523 C520 1.387 . S
C524 C525 1.387 . S
C524 H528 0.950 . S
C524 C533 1.390 1_546 S
C525 C524 1.387 . S
C525 C527 1.387 . S
H526 C533 0.950 . S
C527 C525 1.387 . S
C527 C529 1.390 1_546 S
C527 H531 0.950 . S
H528 C524 0.950 . S
C529 C527 1.390 1_564 S
C529 C530 1.387 . S
C529 H532 0.950 . S
C530 C529 1.387 . S
C530 C533 1.387 . S
H531 C527 0.950 . S
H532 C529 0.950 . S
C533 C524 1.390 1_564 S
C533 H526 0.950 . S
C533 C530 1.387 . S
C534 C535 1.387 . S
C534 H538 0.950 . S
C534 C543 1.390 1_656 S
C535 C534 1.387 . S
C535 C537 1.387 . S
H536 C543 0.950 . S
C537 C535 1.387 . S
C537 C539 1.390 1_656 S
C537 H541 0.950 . S
H538 C534 0.950 . S
C539 C537 1.390 1_454 S
C539 C540 1.387 . S
C539 H542 0.950 . S
C540 C539 1.387 . S
C540 C543 1.387 . S
H541 C537 0.950 . S
H542 C539 0.950 . S
C543 C534 1.390 1_454 S
C543 H536 0.950 . S
C543 C540 1.387 . S
C225 C11 1.324 . S
C230 C109 1.322 . S
C235 C25 1.324 . S
C240 C67 1.322 . S
C245 C81 1.324 . S
C250 C39 1.322 . S
C255 C53 1.322 . S
C260 C95 1.324 . S
C265 C123 1.322 . S
C270 C221 1.324 . S
C275 C179 1.322 . S
C280 C137 1.324 . S
C285 C193 1.322 . S
C290 C151 1.324 . S
C295 C207 1.324 . S
C300 C165 1.322 . S
C305 C8 1.165 . S
C310 C161 1.239 . S
C315 C22 1.164 . S
C320 C119 1.238 . S
C325 C133 1.238 . S
C330 C36 1.166 . S
C335 C50 1.164 . S
C340 C147 1.239 . S
C345 C64 1.167 . S
C350 C189 1.238 . S
C355 C203 1.239 . S
C360 C78 1.165 . S
C365 C92 1.168 . S
C370 C217 1.238 . S
C375 C175 1.238 . S
C380 C106 1.165 . S
C385 C120 1.163 1_545 S
C390 C49 1.239 . S
C395 C7 1.238 . S
C400 C134 1.165 1_455 S
C405 C148 1.164 1_565 S
C410 C21 1.239 . S
C415 C35 1.238 . S
C420 C162 1.167 1_655 S
C425 C176 1.163 1_565 S
C430 C77 1.239 . S
C435 C91 1.238 . S
C440 C190 1.167 1_655 S
C445 C105 1.239 . S
C450 C204 1.165 1_545 S
C455 C63 1.238 . S
C460 C218 1.166 1_455 S
C465 C69 1.462 . S
C470 C13 1.462 . S
C475 C83 1.460 . S
C480 C27 1.460 . S
C485 C41 1.462 . S
C490 C97 1.462 . S
C495 C111 1.460 . S
C500 C55 1.460 . S
C505 C181 1.462 . S
C510 C125 1.462 . S
C515 C195 1.460 . S
C520 C139 1.460 . S
C525 C153 1.460 . S
C530 C209 1.460 . S
C535 C223 1.460 . S
C540 C167 1.460 . S
