# Generated by pormake.
# Topology vci, (7)-cn, num edge types: 1
# Building blocks:
#     Node 0, Type 0, BuildingBlock: NUHQUE_clean_sbu_2, # of connection points: 7
#     Node 1, Type 0, BuildingBlock: NUHQUE_clean_sbu_2, # of connection points: 7
#     Node 2, Type 0, BuildingBlock: NUHQUE_clean_sbu_2, # of connection points: 7
#     Node 3, Type 0, BuildingBlock: NUHQUE_clean_sbu_2, # of connection points: 7
#     Node 4, Type 0, BuildingBlock: NUHQUE_clean_sbu_2, # of connection points: 7
#     Node 5, Type 0, BuildingBlock: NUHQUE_clean_sbu_2, # of connection points: 7
#     Node 6, Type 0, BuildingBlock: NUHQUE_clean_sbu_2, # of connection points: 7
#     Node 7, Type 0, BuildingBlock: NUHQUE_clean_sbu_2, # of connection points: 7
#     Node 8, Type 0, BuildingBlock: NUHQUE_clean_sbu_2, # of connection points: 7
#     Node 9, Type 0, BuildingBlock: NUHQUE_clean_sbu_2, # of connection points: 7
#     Node 10, Type 0, BuildingBlock: NUHQUE_clean_sbu_2, # of connection points: 7
#     Node 11, Type 0, BuildingBlock: NUHQUE_clean_sbu_2, # of connection points: 7
#     Node 12, Type 0, BuildingBlock: NUHQUE_clean_sbu_2, # of connection points: 7
#     Node 13, Type 0, BuildingBlock: NUHQUE_clean_sbu_2, # of connection points: 7
#     Node 14, Type 0, BuildingBlock: NUHQUE_clean_sbu_2, # of connection points: 7
#     Node 15, Type 0, BuildingBlock: NUHQUE_clean_sbu_2, # of connection points: 7
#     Edge 16, Type (0, 0), BuildingBlock: CIFDUS_clean_linker_0, # of connection points: 2
#     Edge 17, Type (0, 0), BuildingBlock: CIFDUS_clean_linker_0, # of connection points: 2
#     Edge 18, Type (0, 0), BuildingBlock: CIFDUS_clean_linker_0, # of connection points: 2
#     Edge 19, Type (0, 0), BuildingBlock: CIFDUS_clean_linker_0, # of connection points: 2
#     Edge 20, Type (0, 0), BuildingBlock: CIFDUS_clean_linker_0, # of connection points: 2
#     Edge 21, Type (0, 0), BuildingBlock: CIFDUS_clean_linker_0, # of connection points: 2
#     Edge 22, Type (0, 0), BuildingBlock: CIFDUS_clean_linker_0, # of connection points: 2
#     Edge 23, Type (0, 0), BuildingBlock: CIFDUS_clean_linker_0, # of connection points: 2
#     Edge 24, Type (0, 0), BuildingBlock: CIFDUS_clean_linker_0, # of connection points: 2
#     Edge 25, Type (0, 0), BuildingBlock: CIFDUS_clean_linker_0, # of connection points: 2
#     Edge 26, Type (0, 0), BuildingBlock: CIFDUS_clean_linker_0, # of connection points: 2
#     Edge 27, Type (0, 0), BuildingBlock: CIFDUS_clean_linker_0, # of connection points: 2
#     Edge 28, Type (0, 0), BuildingBlock: CIFDUS_clean_linker_0, # of connection points: 2
#     Edge 29, Type (0, 0), BuildingBlock: CIFDUS_clean_linker_0, # of connection points: 2
#     Edge 30, Type (0, 0), BuildingBlock: CIFDUS_clean_linker_0, # of connection points: 2
#     Edge 31, Type (0, 0), BuildingBlock: CIFDUS_clean_linker_0, # of connection points: 2
#     Edge 32, Type (0, 0), BuildingBlock: CIFDUS_clean_linker_0, # of connection points: 2
#     Edge 33, Type (0, 0), BuildingBlock: CIFDUS_clean_linker_0, # of connection points: 2
#     Edge 34, Type (0, 0), BuildingBlock: CIFDUS_clean_linker_0, # of connection points: 2
#     Edge 35, Type (0, 0), BuildingBlock: CIFDUS_clean_linker_0, # of connection points: 2
#     Edge 36, Type (0, 0), BuildingBlock: CIFDUS_clean_linker_0, # of connection points: 2
#     Edge 37, Type (0, 0), BuildingBlock: CIFDUS_clean_linker_0, # of connection points: 2
#     Edge 38, Type (0, 0), BuildingBlock: CIFDUS_clean_linker_0, # of connection points: 2
#     Edge 39, Type (0, 0), BuildingBlock: CIFDUS_clean_linker_0, # of connection points: 2
#     Edge 40, Type (0, 0), BuildingBlock: CIFDUS_clean_linker_0, # of connection points: 2
#     Edge 41, Type (0, 0), BuildingBlock: CIFDUS_clean_linker_0, # of connection points: 2
#     Edge 42, Type (0, 0), BuildingBlock: CIFDUS_clean_linker_0, # of connection points: 2
#     Edge 43, Type (0, 0), BuildingBlock: CIFDUS_clean_linker_0, # of connection points: 2
#     Edge 44, Type (0, 0), BuildingBlock: CIFDUS_clean_linker_0, # of connection points: 2
#     Edge 45, Type (0, 0), BuildingBlock: CIFDUS_clean_linker_0, # of connection points: 2
#     Edge 46, Type (0, 0), BuildingBlock: CIFDUS_clean_linker_0, # of connection points: 2
#     Edge 47, Type (0, 0), BuildingBlock: CIFDUS_clean_linker_0, # of connection points: 2
#     Edge 48, Type (0, 0), BuildingBlock: CIFDUS_clean_linker_0, # of connection points: 2
#     Edge 49, Type (0, 0), BuildingBlock: CIFDUS_clean_linker_0, # of connection points: 2
#     Edge 50, Type (0, 0), BuildingBlock: CIFDUS_clean_linker_0, # of connection points: 2
#     Edge 51, Type (0, 0), BuildingBlock: CIFDUS_clean_linker_0, # of connection points: 2
#     Edge 52, Type (0, 0), BuildingBlock: CIFDUS_clean_linker_0, # of connection points: 2
#     Edge 53, Type (0, 0), BuildingBlock: CIFDUS_clean_linker_0, # of connection points: 2
#     Edge 54, Type (0, 0), BuildingBlock: CIFDUS_clean_linker_0, # of connection points: 2
#     Edge 55, Type (0, 0), BuildingBlock: CIFDUS_clean_linker_0, # of connection points: 2
#     Edge 56, Type (0, 0), BuildingBlock: CIFDUS_clean_linker_0, # of connection points: 2
#     Edge 57, Type (0, 0), BuildingBlock: CIFDUS_clean_linker_0, # of connection points: 2
#     Edge 58, Type (0, 0), BuildingBlock: CIFDUS_clean_linker_0, # of connection points: 2
#     Edge 59, Type (0, 0), BuildingBlock: CIFDUS_clean_linker_0, # of connection points: 2
#     Edge 60, Type (0, 0), BuildingBlock: CIFDUS_clean_linker_0, # of connection points: 2
#     Edge 61, Type (0, 0), BuildingBlock: CIFDUS_clean_linker_0, # of connection points: 2
#     Edge 62, Type (0, 0), BuildingBlock: CIFDUS_clean_linker_0, # of connection points: 2
#     Edge 63, Type (0, 0), BuildingBlock: CIFDUS_clean_linker_0, # of connection points: 2
#     Edge 64, Type (0, 0), BuildingBlock: CIFDUS_clean_linker_0, # of connection points: 2
#     Edge 65, Type (0, 0), BuildingBlock: CIFDUS_clean_linker_0, # of connection points: 2
#     Edge 66, Type (0, 0), BuildingBlock: CIFDUS_clean_linker_0, # of connection points: 2
#     Edge 67, Type (0, 0), BuildingBlock: CIFDUS_clean_linker_0, # of connection points: 2
#     Edge 68, Type (0, 0), BuildingBlock: CIFDUS_clean_linker_0, # of connection points: 2
#     Edge 69, Type (0, 0), BuildingBlock: CIFDUS_clean_linker_0, # of connection points: 2
#     Edge 70, Type (0, 0), BuildingBlock: CIFDUS_clean_linker_0, # of connection points: 2
#     Edge 71, Type (0, 0), BuildingBlock: CIFDUS_clean_linker_0, # of connection points: 2
# Relax obj value: 0.139
# Max RMSD: 0.212
# Mean RMSD: 0.212
data_MOF--net-vci--node1-NUHQUE_clean_sbu_2--edge1-CIFDUS_clean_linker_0
_symmetry_space_group_name_H-M    P1
_symmetry_Int_Tables_number       1
_symmetry_cell_setting            triclinic
loop_
_symmetry_equiv_pos_as_xyz
'x, y, z'
_cell_length_a     45.5768
_cell_length_b     60.857336
_cell_length_c     19.530166
_cell_angle_alpha  90.168313
_cell_angle_beta   89.996941
_cell_angle_gamma 90.071043
loop_
_atom_site_label
_atom_site_type_symbol
_atom_site_fract_x
_atom_site_fract_y
_atom_site_fract_z
_atom_type_partial_charge
O0 O 0.13896 0.19675 0.19233 0.0
Tb1 Tb 0.14332 0.16158 0.1785 0.0
Eu2 Eu 0.15697 0.12087 1.00013 0.0
C3 C 0.15422 0.21068 0.1555 0.0
O4 O 0.17132 0.20319 0.10658 0.0
C5 C 0.19395 0.1375 0.11353 0.0
O6 O 0.15495 0.08405 0.99184 0.0
C7 C 0.17369 0.13814 0.88502 0.0
C8 C 0.13385 0.07259 0.0206 0.0
O9 O 0.11321 0.08285 0.05503 0.0
C10 C 0.0935 0.14123 0.07444 0.0
C11 C 0.16374 0.1507 0.82452 0.0
C12 C 0.15426 0.17265 0.83065 0.0
C13 C 0.14727 0.18498 0.77211 0.0
C14 C 0.14932 0.17501 0.70742 0.0
C15 C 0.15898 0.15332 0.70039 0.0
C16 C 0.16633 0.14121 0.75887 0.0
O17 O 0.17304 0.15144 0.10038 0.0
O18 O 0.19421 0.12011 0.07505 0.0
O19 O 0.16726 0.15546 0.27381 0.0
O20 O 0.12557 0.14075 0.25988 0.0
C21 C 0.14748 0.14304 0.30199 0.0
O22 O 0.10999 0.1306 0.02863 0.0
O23 O 0.10235 0.1527 0.12876 0.0
O24 O 0.16459 0.11772 0.89042 0.0
O25 O 0.17527 0.1485 0.94424 0.0
H26 H 0.15281 0.18032 0.88068 0.0
H27 H 0.14485 0.18451 0.66168 0.0
H28 H 0.17459 0.1246 0.75314 0.0
O29 O 0.38396 0.82071 0.67296 0.0
Tb30 Tb 0.37335 0.85562 0.66907 0.0
Eu31 Eu 0.35023 0.8917 0.48396 0.0
C32 C 0.37157 0.80897 0.72179 0.0
O33 O 0.35388 0.81896 0.76487 0.0
C34 C 0.31613 0.87239 0.61082 0.0
O35 O 0.35136 0.92889 0.49277 0.0
C36 C 0.3265 0.8765 0.37243 0.0
C37 C 0.37127 0.94069 0.46071 0.0
O38 O 0.39057 0.93054 0.42192 0.0
C39 C 0.41056 0.8746 0.5511 0.0
C40 C 0.33272 0.86344 0.30965 0.0
C41 C 0.3352 0.84021 0.31126 0.0
C42 C 0.3384 0.82812 0.24996 0.0
C43 C 0.33997 0.83948 0.18783 0.0
C44 C 0.33734 0.8623 0.18543 0.0
C45 C 0.33358 0.87428 0.246 0.0
O46 O 0.33531 0.85658 0.60304 0.0
O47 O 0.31765 0.88958 0.57061 0.0
O48 O 0.34742 0.86681 0.75682 0.0
O49 O 0.39403 0.86652 0.76378 0.0
C50 C 0.36982 0.871 0.7962 0.0
O51 O 0.39664 0.87853 0.49324 0.0
O52 O 0.39794 0.87947 0.60958 0.0
O53 O 0.33824 0.89625 0.37693 0.0
O54 O 0.32567 0.86607 0.43133 0.0
H55 H 0.3337 0.8315 0.35943 0.0
H56 H 0.34297 0.83045 0.14033 0.0
H57 H 0.33096 0.89196 0.24338 0.0
O58 O 0.14352 0.82101 0.80581 0.0
Tb59 Tb 0.14513 0.85642 0.8198 0.0
Eu60 Eu 0.14368 0.89598 0.99624 0.0
C61 C 0.16744 0.81039 0.78772 0.0
O62 O 0.19233 0.8212 0.78418 0.0
C63 C 0.18997 0.88408 0.89133 0.0
O64 O 0.13809 0.93263 1.00008 0.0
C65 C 0.16051 0.88085 0.11425 0.0
C66 C 0.1149 0.94207 0.02713 0.0
O67 O 0.09384 0.92982 0.05261 0.0
C68 C 0.08707 0.87116 0.90893 0.0
C69 C 0.15375 0.86612 0.1724 0.0
C70 C 0.146 0.84398 0.16138 0.0
C71 C 0.14385 0.82927 0.21666 0.0
C72 C 0.14903 0.83711 0.28329 0.0
C73 C 0.15635 0.85914 0.29535 0.0
C74 C 0.15852 0.87367 0.23983 0.0
O75 O 0.17431 0.86636 0.90002 0.0
O76 O 0.18199 0.90129 0.92618 0.0
O77 O 0.17043 0.85945 0.72492 0.0
O78 O 0.13275 0.87925 0.7378 0.0
C79 C 0.15383 0.87402 0.69582 0.0
O80 O 0.0997 0.88238 0.95972 0.0
O81 O 0.1004 0.86148 0.85626 0.0
O82 O 0.14496 0.89892 0.1078 0.0
O83 O 0.16756 0.87171 0.05523 0.0
H84 H 0.14244 0.83808 0.10964 0.0
H85 H 0.1486 0.82584 0.32619 0.0
H86 H 0.16524 0.89053 0.2488 0.0
O87 O 0.36451 0.18406 0.36288 0.0
Tb88 Tb 0.35094 0.14999 0.36343 0.0
Eu89 Eu 0.33981 0.1191 0.56026 0.0
C90 C 0.34766 0.19739 0.32754 0.0
O91 O 0.32345 0.18941 0.30059 0.0
C92 C 0.29841 0.13183 0.43894 0.0
O93 O 0.34269 0.08216 0.57531 0.0
C94 C 0.32287 0.14349 0.66259 0.0
C95 C 0.35634 0.07054 0.52788 0.0
O96 O 0.36855 0.08108 0.47667 0.0
C97 C 0.39463 0.13015 0.4645 0.0
C98 C 0.33284 0.15888 0.71749 0.0
C99 C 0.33563 0.18184 0.70643 0.0
C100 C 0.34236 0.19639 0.76126 0.0
C101 C 0.3462 0.18735 0.82694 0.0
C102 C 0.34375 0.16474 0.83809 0.0
C103 C 0.33688 0.15065 0.7839 0.0
O104 O 0.31614 0.14878 0.43857 0.0
O105 O 0.30349 0.11596 0.48256 0.0
O106 O 0.32122 0.14257 0.27858 0.0
O107 O 0.36727 0.14109 0.26224 0.0
C108 C 0.34167 0.13901 0.23343 0.0
O109 O 0.38599 0.12831 0.5286 0.0
O110 O 0.37653 0.12511 0.41473 0.0
O111 O 0.32971 0.12252 0.66862 0.0
O112 O 0.32329 0.15041 0.59883 0.0
H113 H 0.33239 0.18831 0.65543 0.0
H114 H 0.35028 0.19788 0.87073 0.0
H115 H 0.33435 0.13324 0.79401 0.0
O116 O 0.87508 0.83037 0.84525 0.0
Tb117 Tb 0.86733 0.86561 0.84858 0.0
Eu118 Eu 0.85281 0.89677 0.02948 0.0
C119 C 0.85878 0.81839 0.80371 0.0
O120 O 0.83802 0.82819 0.76848 0.0
C121 C 0.81094 0.88253 0.90936 0.0
O122 O 0.85932 0.93362 0.03501 0.0
C123 C 0.82986 0.88066 0.14052 0.0
C124 C 0.88523 0.94252 0.04615 0.0
O125 O 0.90797 0.92962 0.05531 0.0
C126 C 0.91311 0.88117 0.95654 0.0
C127 C 0.83719 0.86734 0.20196 0.0
C128 C 0.83471 0.84415 0.20083 0.0
C129 C 0.83972 0.83178 0.2606 0.0
C130 C 0.84785 0.84275 0.3208 0.0
C131 C 0.8501 0.86561 0.32305 0.0
C132 C 0.84459 0.87794 0.26402 0.0
O133 O 0.82758 0.86499 0.90944 0.0
O134 O 0.81884 0.89959 0.94617 0.0
O135 O 0.8823 0.86815 0.74261 0.0
O136 O 0.84121 0.882 0.76942 0.0
C137 C 0.85963 0.87873 0.71963 0.0
O138 O 0.89785 0.88192 0.01386 0.0
O139 O 0.90111 0.88568 0.89695 0.0
O140 O 0.84114 0.90054 0.13683 0.0
O141 O 0.82881 0.87058 0.08083 0.0
H142 H 0.8282 0.83576 0.15423 0.0
H143 H 0.8525 0.83344 0.36683 0.0
H144 H 0.84592 0.89571 0.26674 0.0
O145 O 0.63255 0.16554 0.30779 0.0
Tb146 Tb 0.61488 0.13233 0.30234 0.0
Eu147 Eu 0.63017 0.1128 0.49633 0.0
C148 C 0.63941 0.17668 0.25222 0.0
O149 O 0.63835 0.16689 0.19229 0.0
C150 C 0.66907 0.11179 0.36518 0.0
O151 O 0.63353 0.07756 0.53041 0.0
C152 C 0.63142 0.13965 0.59977 0.0
C153 C 0.62821 0.06161 0.4865 0.0
O154 O 0.62099 0.06668 0.42336 0.0
C155 C 0.56817 0.122 0.42118 0.0
C156 C 0.6167 0.14795 0.66227 0.0
C157 C 0.61406 0.17083 0.67078 0.0
C158 C 0.60485 0.17981 0.73354 0.0
C159 C 0.59665 0.1656 0.78652 0.0
C160 C 0.60006 0.1428 0.78022 0.0
C161 C 0.60998 0.13398 0.71769 0.0
O162 O 0.64401 0.10654 0.33652 0.0
O163 O 0.66971 0.11694 0.43016 0.0
O164 O 0.62496 0.12275 0.19673 0.0
O165 O 0.58082 0.12889 0.22339 0.0
C166 C 0.59828 0.12327 0.17377 0.0
O167 O 0.58489 0.10756 0.45267 0.0
O168 O 0.57744 0.13505 0.3717 0.0
O169 O 0.64242 0.11969 0.60134 0.0
O170 O 0.62071 0.14521 0.53959 0.0
H171 H 0.62132 0.18166 0.63017 0.0
H172 H 0.5899 0.1725 0.83529 0.0
H173 H 0.61366 0.11644 0.71347 0.0
O174 O 0.86055 0.16457 0.1817 0.0
Tb175 Tb 0.86726 0.12975 0.20427 0.0
Eu176 Eu 0.86017 0.12435 0.02186 0.0
C177 C 0.86721 0.17921 0.22929 0.0
O178 O 0.87831 0.17222 0.2873 0.0
C179 C 0.8123 0.1161 0.13249 0.0
O180 O 0.85681 0.08727 0.02841 0.0
C181 C 0.8525 0.13849 0.89826 0.0
C182 C 0.87986 0.07428 0.03165 0.0
O183 O 0.90625 0.08297 0.0313 0.0
C184 C 0.92003 0.12746 0.10753 0.0
C185 C 0.86744 0.15116 0.84388 0.0
C186 C 0.87028 0.1742 0.8482 0.0
C187 C 0.88042 0.18649 0.79186 0.0
C188 C 0.8893 0.1752 0.7326 0.0
C189 C 0.88683 0.15232 0.72791 0.0
C190 C 0.87569 0.14038 0.78328 0.0
O191 O 0.83439 0.10748 0.16546 0.0
O192 O 0.81784 0.12889 0.0802 0.0
O193 O 0.89193 0.12658 0.2998 0.0
O194 O 0.84545 0.12476 0.30246 0.0
C195 C 0.86919 0.12388 0.33901 0.0
O196 O 0.90497 0.13602 0.05669 0.0
O197 O 0.90699 0.11736 0.15837 0.0
O198 O 0.86271 0.11876 0.91185 0.0
O199 O 0.84379 0.14933 0.95299 0.0
H200 H 0.86345 0.18266 0.89435 0.0
H201 H 0.89575 0.18427 0.68737 0.0
H202 H 0.87243 0.1228 0.77809 0.0
O203 O 0.64397 0.80995 0.72396 0.0
Tb204 Tb 0.63639 0.84496 0.7168 0.0
Eu205 Eu 0.64329 0.88059 0.52035 0.0
C206 C 0.65802 0.79927 0.6756 0.0
O207 O 0.66684 0.80993 0.62093 0.0
C208 C 0.68211 0.87157 0.63467 0.0
O209 O 0.63274 0.91558 0.49259 0.0
C210 C 0.65379 0.85689 0.41197 0.0
C211 C 0.6372 0.9314 0.53745 0.0
O212 O 0.64689 0.92627 0.59872 0.0
C213 C 0.5832 0.86196 0.61592 0.0
C214 C 0.64067 0.84658 0.35002 0.0
C215 C 0.63859 0.82344 0.34528 0.0
C216 C 0.62991 0.81332 0.28361 0.0
C217 C 0.6221 0.82649 0.22791 0.0
C218 C 0.62469 0.84934 0.23099 0.0
C219 C 0.63409 0.85941 0.29178 0.0
O220 O 0.65806 0.86001 0.63355 0.0
O221 O 0.68426 0.88484 0.58344 0.0
O222 O 0.66101 0.86043 0.80038 0.0
O223 O 0.61481 0.85691 0.80947 0.0
C224 C 0.63847 0.86385 0.83996 0.0
O225 O 0.598 0.87255 0.56674 0.0
O226 O 0.59405 0.85073 0.66868 0.0
O227 O 0.65568 0.87844 0.41344 0.0
O228 O 0.64794 0.84826 0.47221 0.0
H229 H 0.64528 0.81332 0.38809 0.0
H230 H 0.61548 0.81882 0.18009 0.0
H231 H 0.63704 0.87708 0.29272 0.0
O232 O 0.62767 0.67556 0.17926 0.0
Tb233 Tb 0.63601 0.64046 0.1726 0.0
Eu234 Eu 0.65293 0.60699 0.98295 0.0
C235 C 0.64659 0.68943 0.15262 0.0
O236 O 0.66858 0.68171 0.1164 0.0
C237 C 0.68875 0.6176 0.11193 0.0
O238 O 0.6402 0.57179 0.96373 0.0
C239 C 0.67985 0.62313 0.87705 0.0
C240 C 0.63805 0.55763 0.01416 0.0
O241 O 0.64183 0.56451 0.07739 0.0
C242 C 0.5935 0.62595 0.05575 0.0
C243 C 0.67501 0.63585 0.81345 0.0
C244 C 0.67208 0.65894 0.81526 0.0
C245 C 0.66926 0.671 0.75427 0.0
C246 C 0.66898 0.6597 0.69163 0.0
C247 C 0.67243 0.63692 0.68888 0.0
C248 C 0.67548 0.62497 0.74959 0.0
O249 O 0.67254 0.63514 0.10429 0.0
O250 O 0.68497 0.60148 0.06853 0.0
O251 O 0.66284 0.63128 0.26095 0.0
O252 O 0.6167 0.62703 0.26593 0.0
C253 C 0.6412 0.62478 0.29925 0.0
O254 O 0.60892 0.6238 0.99866 0.0
O255 O 0.60442 0.62051 0.11583 0.0
O256 O 0.66909 0.6031 0.87888 0.0
O257 O 0.67776 0.63355 0.93602 0.0
H258 H 0.6727 0.66758 0.86381 0.0
H259 H 0.66603 0.66864 0.64415 0.0
H260 H 0.67849 0.60732 0.74694 0.0
O261 O 0.88363 0.32535 0.64936 0.0
Tb262 Tb 0.86851 0.35901 0.64201 0.0
Eu263 Eu 0.84457 0.38499 0.44645 0.0
C264 C 0.86866 0.31306 0.69231 0.0
O265 O 0.84587 0.32183 0.72313 0.0
C266 C 0.81081 0.36789 0.57288 0.0
O267 O 0.84353 0.42167 0.42856 0.0
C268 C 0.82737 0.36154 0.34191 0.0
C269 C 0.84882 0.43543 0.4793 0.0
O270 O 0.85468 0.42743 0.5402 0.0
C271 C 0.90621 0.37916 0.52828 0.0
C272 C 0.83824 0.3473 0.28512 0.0
C273 C 0.84158 0.3244 0.29426 0.0
C274 C 0.85068 0.3107 0.23975 0.0
C275 C 0.8566 0.32032 0.17592 0.0
C276 C 0.85274 0.34292 0.16556 0.0
C277 C 0.84336 0.3563 0.21984 0.0
O278 O 0.83321 0.35454 0.56972 0.0
O279 O 0.80998 0.38422 0.52944 0.0
O280 O 0.83857 0.36889 0.72439 0.0
O281 O 0.88432 0.36721 0.74431 0.0
C282 C 0.85872 0.3711 0.77124 0.0
O283 O 0.89269 0.37791 0.46848 0.0
O284 O 0.8917 0.38403 0.58443 0.0
O285 O 0.83274 0.38277 0.33846 0.0
O286 O 0.82915 0.35384 0.40463 0.0
H287 H 0.83652 0.31716 0.34347 0.0
H288 H 0.86434 0.31025 0.13376 0.0
H289 H 0.84025 0.37372 0.21108 0.0
O290 O 0.63742 0.316 0.81386 0.0
Tb291 Tb 0.65678 0.34847 0.81647 0.0
Eu292 Eu 0.66199 0.37806 0.0125 0.0
C293 C 0.64508 0.30109 0.85883 0.0
O294 O 0.66295 0.30664 0.90879 0.0
C295 C 0.70387 0.37167 0.89502 0.0
O296 O 0.64951 0.41292 0.03718 0.0
C297 C 0.68312 0.35839 0.11975 0.0
C298 C 0.64321 0.42694 0.98834 0.0
O299 O 0.6432 0.42014 0.92442 0.0
C300 C 0.60772 0.3699 0.9105 0.0
C301 C 0.68092 0.34256 0.17699 0.0
C302 C 0.6742 0.32017 0.16619 0.0
C303 C 0.67566 0.30507 0.22083 0.0
C304 C 0.68462 0.31271 0.28556 0.0
C305 C 0.6906 0.33496 0.29762 0.0
C306 C 0.68848 0.34986 0.24323 0.0
O307 O 0.68728 0.35419 0.898 0.0
O308 O 0.69864 0.38688 0.94049 0.0
O309 O 0.68406 0.34204 0.72638 0.0
O310 O 0.65614 0.36989 0.72656 0.0
C311 C 0.67516 0.3588 0.69081 0.0
O312 O 0.62078 0.3625 0.96652 0.0
O313 O 0.61963 0.36831 0.84885 0.0
O314 O 0.66796 0.37672 0.12331 0.0
O315 O 0.68648 0.3509 0.05694 0.0
H316 H 0.66788 0.3146 0.11558 0.0
H317 H 0.68681 0.30128 0.32764 0.0
H318 H 0.69366 0.36704 0.25199 0.0
O319 O 0.85003 0.69295 0.3185 0.0
Tb320 Tb 0.85535 0.65766 0.32952 0.0
Eu321 Eu 0.8474 0.61765 0.51887 0.0
C322 C 0.83436 0.70485 0.3611 0.0
O323 O 0.82228 0.6954 0.41456 0.0
C324 C 0.80864 0.63025 0.40629 0.0
O325 O 0.85223 0.58097 0.53366 0.0
C326 C 0.8353 0.63832 0.63225 0.0
C327 C 0.84879 0.56728 0.48189 0.0
O328 O 0.84316 0.57529 0.42089 0.0
C329 C 0.9078 0.63934 0.43077 0.0
C330 C 0.84728 0.65211 0.68873 0.0
C331 C 0.84934 0.67519 0.68221 0.0
C332 C 0.85749 0.68847 0.73848 0.0
C333 C 0.86418 0.67824 0.80091 0.0
C334 C 0.86209 0.65543 0.80838 0.0
C335 C 0.85339 0.64244 0.75263 0.0
O336 O 0.83157 0.64304 0.41146 0.0
O337 O 0.80723 0.61525 0.45303 0.0
O338 O 0.83068 0.64314 0.2444 0.0
O339 O 0.87695 0.64559 0.23682 0.0
C340 C 0.85319 0.6395 0.20507 0.0
O341 O 0.89243 0.62796 0.47704 0.0
O342 O 0.89753 0.651 0.37824 0.0
O343 O 0.84312 0.61753 0.62988 0.0
O344 O 0.83242 0.64723 0.57126 0.0
H345 H 0.84395 0.68286 0.63386 0.0
H346 H 0.86944 0.6881 0.84558 0.0
H347 H 0.85083 0.62487 0.75959 0.0
O348 O 0.37787 0.3401 0.82351 0.0
Tb349 Tb 0.38952 0.37425 0.80103 0.0
Eu350 Eu 0.36798 0.38047 0.97368 0.0
C351 C 0.36399 0.32795 0.77754 0.0
O352 O 0.35443 0.33739 0.72141 0.0
C353 C 0.32708 0.38502 0.8456 0.0
O354 O 0.36674 0.41749 0.95857 0.0
C355 C 0.35193 0.36951 0.09661 0.0
C356 C 0.38649 0.43041 0.98733 0.0
O357 O 0.4078 0.4214 0.02278 0.0
C358 C 0.43335 0.37803 0.91886 0.0
C359 C 0.36264 0.35749 0.15769 0.0
C360 C 0.36066 0.33439 0.16043 0.0
C361 C 0.36769 0.32295 0.22062 0.0
C362 C 0.37754 0.33483 0.27767 0.0
C363 C 0.37987 0.3578 0.27621 0.0
C364 C 0.37213 0.36911 0.2162 0.0
O365 O 0.34997 0.39339 0.81475 0.0
O366 O 0.33049 0.37315 0.90098 0.0
O367 O 0.38329 0.38791 0.69853 0.0
O368 O 0.41647 0.36415 0.71352 0.0
C369 C 0.40385 0.37671 0.66867 0.0
O370 O 0.41429 0.36802 0.95864 0.0
O371 O 0.42455 0.38796 0.86288 0.0
O372 O 0.36415 0.38854 0.08238 0.0
O373 O 0.34589 0.35779 0.04173 0.0
H374 H 0.35288 0.32527 0.1163 0.0
H375 H 0.38154 0.32627 0.32535 0.0
H376 H 0.37291 0.38691 0.21559 0.0
O377 O 0.11609 0.6872 0.29328 0.0
Tb378 Tb 0.12656 0.65244 0.29459 0.0
Eu379 Eu 0.14183 0.6209 0.47868 0.0
C380 C 0.12797 0.69928 0.24484 0.0
O381 O 0.14489 0.68963 0.19937 0.0
C382 C 0.18283 0.6369 0.35972 0.0
O383 O 0.1346 0.58434 0.48546 0.0
C384 C 0.16188 0.63738 0.59217 0.0
C385 C 0.11368 0.57455 0.45034 0.0
O386 O 0.09663 0.58638 0.41081 0.0
C387 C 0.08291 0.63585 0.40194 0.0
C388 C 0.15086 0.64959 0.65277 0.0
C389 C 0.14825 0.6727 0.65155 0.0
C390 C 0.13776 0.68412 0.70912 0.0
C391 C 0.13009 0.67245 0.76794 0.0
C392 C 0.13378 0.64969 0.77106 0.0
C393 C 0.14423 0.63824 0.71374 0.0
O394 O 0.16442 0.65339 0.36131 0.0
O395 O 0.17738 0.61968 0.39798 0.0
O396 O 0.15508 0.63968 0.21339 0.0
O397 O 0.10995 0.64517 0.19234 0.0
C398 C 0.13471 0.63844 0.16685 0.0
O399 O 0.09608 0.63444 0.46176 0.0
O400 O 0.09687 0.63014 0.34596 0.0
O401 O 0.15353 0.61678 0.58582 0.0
O402 O 0.16249 0.64794 0.53345 0.0
H403 H 0.15448 0.68188 0.60635 0.0
H404 H 0.12277 0.6813 0.81317 0.0
H405 H 0.14738 0.62062 0.71697 0.0
O406 O 0.36043 0.6894 0.17588 0.0
Tb407 Tb 0.35996 0.65361 0.17338 0.0
Eu408 Eu 0.36418 0.60925 1.00059 0.0
C409 C 0.33804 0.70043 0.15118 0.0
O410 O 0.31723 0.6896 0.11899 0.0
C411 C 0.31835 0.62171 0.1047 0.0
O412 O 0.37079 0.57241 0.98865 0.0
C413 C 0.34975 0.62755 0.88483 0.0
C414 C 0.39099 0.56206 0.02437 0.0
O415 O 0.40776 0.57359 0.06581 0.0
C416 C 0.41902 0.63507 0.09406 0.0
C417 C 0.35768 0.64208 0.8264 0.0
C418 C 0.36148 0.665 0.83481 0.0
C419 C 0.36493 0.67886 0.77737 0.0
C420 C 0.36426 0.66943 0.71165 0.0
C421 C 0.36076 0.64678 0.70234 0.0
C422 C 0.35776 0.63312 0.75966 0.0
O423 O 0.33424 0.63921 0.0933 0.0
O424 O 0.32502 0.6044 0.0687 0.0
O425 O 0.33041 0.6531 0.26147 0.0
O426 O 0.37018 0.63525 0.26717 0.0
C427 C 0.34656 0.6408 0.30052 0.0
O428 O 0.40716 0.6227 0.04466 0.0
O429 O 0.4051 0.64647 0.14261 0.0
O430 O 0.36237 0.60817 0.88891 0.0
O431 O 0.34426 0.63646 0.94498 0.0
H432 H 0.36126 0.67207 0.88576 0.0
H433 H 0.36562 0.67982 0.66675 0.0
H434 H 0.35417 0.61567 0.7521 0.0
O435 O 0.1341 0.32375 0.73481 0.0
Tb436 Tb 0.12953 0.35892 0.72111 0.0
Eu437 Eu 0.13885 0.39566 0.52657 0.0
C438 C 0.14753 0.31571 0.7888 0.0
O439 O 0.1593 0.32922 0.83366 0.0
C440 C 0.17809 0.38185 0.63719 0.0
O441 O 0.13835 0.43259 0.52874 0.0
C442 C 0.14947 0.37964 0.40591 0.0
C443 C 0.11794 0.44422 0.49819 0.0
O444 O 0.0966 0.43408 0.46565 0.0
C445 C 0.07781 0.37538 0.61468 0.0
C446 C 0.13689 0.36814 0.34575 0.0
C447 C 0.13733 0.34497 0.34148 0.0
C448 C 0.12915 0.33424 0.28054 0.0
C449 C 0.11929 0.34677 0.22516 0.0
C450 C 0.11937 0.3697 0.22803 0.0
C451 C 0.12833 0.3804 0.28798 0.0
O452 O 0.15339 0.37105 0.63643 0.0
O453 O 0.18056 0.39553 0.5871 0.0
O454 O 0.10755 0.37284 0.81022 0.0
O455 O 0.15372 0.37666 0.8008 0.0
C456 C 0.13098 0.38086 0.83899 0.0
O457 O 0.09319 0.38563 0.56592 0.0
O458 O 0.08794 0.36521 0.67015 0.0
O459 O 0.14147 0.40014 0.41652 0.0
O460 O 0.15318 0.36837 0.46276 0.0
H461 H 0.14557 0.33534 0.3839 0.0
H462 H 0.11307 0.33864 0.17778 0.0
H463 H 0.12959 0.39819 0.28857 0.0
H464 H 0.95877 0.13081 1.00123 0.0
H465 H 0.95315 0.13059 0.22186 0.0
H466 H 0.00604 0.13561 0.23042 0.0
H467 H 0.05378 0.13962 0.1762 0.0
H468 H 0.06121 0.13744 0.95615 0.0
H469 H 0.00775 0.13369 0.94622 0.0
C470 C 0.96922 0.13193 0.05101 0.0
C471 C 0.95214 0.13037 0.11081 0.0
C472 C 0.99989 0.13434 0.05567 0.0
C473 C 0.96587 0.13159 0.1751 0.0
C474 C 0.9961 0.13453 0.18009 0.0
C475 C 0.04372 0.13853 0.12594 0.0
C476 C 0.06134 0.1391 0.06697 0.0
C477 C 0.01328 0.13589 0.12083 0.0
C478 C 0.04805 0.1371 0.00231 0.0
C479 C 0.01752 0.13499 0.99666 0.0
H480 H 0.44586 0.86465 0.6583 0.0
H481 H 0.44785 0.87684 0.44078 0.0
H482 H 0.50135 0.87409 0.44122 0.0
H483 H 0.54791 0.8694 0.50442 0.0
H484 H 0.54498 0.8567 0.72186 0.0
H485 H 0.49173 0.85855 0.72008 0.0
C486 C 0.45795 0.86664 0.61087 0.0
C487 C 0.4428 0.87114 0.54981 0.0
C488 C 0.48868 0.86506 0.61143 0.0
C489 C 0.45887 0.8734 0.48868 0.0
C490 C 0.48953 0.87192 0.48889 0.0
C491 C 0.53563 0.86708 0.55141 0.0
C492 C 0.55062 0.86296 0.61313 0.0
C493 C 0.50473 0.868 0.55015 0.0
C494 C 0.5342 0.85976 0.67339 0.0
C495 C 0.50364 0.86086 0.6726 0.0
H496 H 0.95033 0.86949 0.85446 0.0
H497 H 0.94863 0.88796 0.0679 0.0
H498 H 0.00215 0.88593 0.07266 0.0
H499 H 0.04958 0.88003 0.01518 0.0
H500 H 0.05078 0.86055 0.80222 0.0
H501 H 0.99744 0.86169 0.7988 0.0
C502 C 0.96167 0.87308 0.90205 0.0
C503 C 0.94548 0.87907 0.9605 0.0
C504 C 0.99242 0.87165 0.90465 0.0
C505 C 0.9605 0.88333 0.02205 0.0
C506 C 0.99114 0.88221 0.02481 0.0
C507 C 0.03823 0.87594 0.96802 0.0
C508 C 0.05442 0.87031 0.90902 0.0
C509 C 0.00736 0.87655 0.96626 0.0
C510 C 0.03912 0.86487 0.84865 0.0
C511 C 0.00851 0.86561 0.84643 0.0
H512 H 0.5227 0.13769 0.34545 0.0
H513 H 0.54332 0.10855 0.54087 0.0
H514 H 0.49167 0.10997 0.57354 0.0
H515 H 0.44044 0.11842 0.54537 0.0
H516 H 0.41939 0.14559 0.34767 0.0
H517 H 0.47145 0.14623 0.31737 0.0
C518 C 0.51591 0.13175 0.39531 0.0
C519 C 0.53683 0.12298 0.44055 0.0
C520 C 0.48611 0.13231 0.41342 0.0
C521 C 0.52763 0.11519 0.50478 0.0
C522 C 0.49812 0.11608 0.52367 0.0
C523 C 0.4473 0.12472 0.49599 0.0
C524 C 0.4262 0.13202 0.44885 0.0
C525 C 0.47715 0.12448 0.47827 0.0
C526 C 0.43531 0.13984 0.38467 0.0
C527 C 0.46503 0.14019 0.36732 0.0
H528 H 0.55513 0.63659 0.15707 0.0
H529 H 0.55914 0.62143 0.9412 0.0
H530 H 0.50574 0.6232 0.93386 0.0
H531 H 0.45767 0.62765 0.98954 0.0
H532 H 0.45385 0.64387 0.20476 0.0
H533 H 0.50727 0.64314 0.21122 0.0
C534 C 0.54434 0.63374 0.10833 0.0
C535 C 0.56121 0.62867 0.05001 0.0
C536 C 0.51358 0.63491 0.10429 0.0
C537 C 0.54682 0.62533 0.98706 0.0
C538 C 0.51621 0.62627 0.9828 0.0
C539 C 0.46849 0.63105 0.03788 0.0
C540 C 0.45162 0.63567 0.09662 0.0
C541 C 0.49934 0.63079 0.04124 0.0
C542 C 0.46615 0.64033 0.15858 0.0
C543 C 0.49677 0.63984 0.16246 0.0
H544 H 0.04466 0.3796 0.49807 0.0
H545 H 0.03776 0.37175 0.7173 0.0
H546 H 0.98457 0.37198 0.70933 0.0
H547 H 0.93988 0.37459 0.64132 0.0
H548 H 0.94557 0.38149 0.42191 0.0
H549 H 0.99921 0.38131 0.42886 0.0
C550 C 0.0315 0.37801 0.54406 0.0
C551 C 0.04534 0.37565 0.60814 0.0
C552 C 0.00065 0.37792 0.53922 0.0
C553 C 0.02786 0.37341 0.66716 0.0
C554 C 0.99735 0.37359 0.6628 0.0
C555 C 0.9528 0.37609 0.59491 0.0
C556 C 0.93869 0.37822 0.5313 0.0
C557 C 0.98352 0.37584 0.59922 0.0
C558 C 0.95584 0.37984 0.47163 0.0
C559 C 0.98654 0.3798 0.47558 0.0
H560 H 0.47772 0.39763 0.84934 0.0
H561 H 0.46083 0.3551 0.02136 0.0
H562 H 0.51361 0.3504 0.03877 0.0
H563 H 0.56472 0.35613 0.99907 0.0
H564 H 0.58042 0.39793 0.82471 0.0
H565 H 0.52808 0.4053 0.8149 0.0
C566 C 0.48549 0.38743 0.89099 0.0
C567 C 0.46526 0.37656 0.93343 0.0
C568 C 0.51578 0.38462 0.90027 0.0
C569 C 0.47587 0.36358 0.98755 0.0
C570 C 0.50609 0.36085 0.99754 0.0
C571 C 0.55667 0.36712 0.95973 0.0
C572 C 0.57641 0.37631 0.91229 0.0
C573 C 0.52629 0.37099 0.95342 0.0
C574 C 0.56564 0.39045 0.86135 0.0
C575 C 0.5357 0.39467 0.85564 0.0
H576 H 0.04265 0.63021 0.5043 0.0
H577 H 0.05085 0.64824 0.29158 0.0
H578 H 0.99765 0.65167 0.28243 0.0
H579 H 0.94882 0.64834 0.33327 0.0
H580 H 0.94006 0.62888 0.54478 0.0
H581 H 0.99339 0.62717 0.55572 0.0
C582 C 0.0328 0.63507 0.45613 0.0
C583 C 0.05071 0.63895 0.39868 0.0
C584 C 0.00206 0.63662 0.45081 0.0
C585 C 0.03756 0.64503 0.33647 0.0
C586 C 0.00713 0.64701 0.33118 0.0
C587 C 0.95848 0.64388 0.38203 0.0
C588 C 0.94028 0.63877 0.43808 0.0
C589 C 0.98915 0.64265 0.3878 0.0
C590 C 0.9534 0.63278 0.50055 0.0
C591 C 0.98395 0.63185 0.50696 0.0
H592 H 0.17485 0.21604 0.84952 0.0
H593 H 0.10457 0.20742 0.70379 0.0
H594 H 0.09816 0.24717 0.69707 0.0
H595 H 0.11467 0.28433 0.72661 0.0
H596 H 0.18419 0.29319 0.87414 0.0
H597 H 0.18853 0.25336 0.88671 0.0
C598 C 0.15769 0.22284 0.8175 0.0
C599 C 0.14038 0.20879 0.77676 0.0
C600 C 0.15421 0.24574 0.8136 0.0
C601 C 0.11846 0.2179 0.73492 0.0
C602 C 0.11478 0.24061 0.73103 0.0
C603 C 0.13075 0.27756 0.7616 0.0
C604 C 0.14933 0.29168 0.79869 0.0
C605 C 0.13298 0.25469 0.7689 0.0
C606 C 0.16972 0.28266 0.8447 0.0
C607 C 0.17222 0.25989 0.85192 0.0
H608 H 0.30705 0.80131 0.16725 0.0
H609 H 0.37216 0.80007 0.32716 0.0
H610 H 0.37831 0.7603 0.31043 0.0
H611 H 0.36679 0.7262 0.2453 0.0
H612 H 0.30161 0.72852 0.08503 0.0
H613 H 0.2944 0.76763 0.10585 0.0
C614 C 0.32254 0.79232 0.19868 0.0
C615 C 0.33933 0.80365 0.24798 0.0
C616 C 0.32629 0.76971 0.18783 0.0
C617 C 0.35889 0.79172 0.28914 0.0
C618 C 0.3626 0.76903 0.27902 0.0
C619 C 0.35115 0.73531 0.21471 0.0
C620 C 0.33495 0.72442 0.16317 0.0
C621 C 0.34679 0.75791 0.22757 0.0
C622 C 0.31445 0.73643 0.12477 0.0
C623 C 0.31023 0.75882 0.13677 0.0
H624 H 0.15103 0.72788 0.15309 0.0
H625 H 0.09691 0.72507 0.33427 0.0
H626 H 0.09457 0.7652 0.33728 0.0
H627 H 0.11071 0.80102 0.29294 0.0
H628 H 0.16714 0.80343 0.11549 0.0
H629 H 0.16499 0.76354 0.10546 0.0
C630 C 0.13851 0.736 0.19303 0.0
C631 C 0.12438 0.72346 0.24377 0.0
C632 C 0.13756 0.75904 0.19493 0.0
C633 C 0.10812 0.7343 0.2948 0.0
C634 C 0.10679 0.75726 0.29658 0.0
C635 C 0.1225 0.79283 0.25195 0.0
C636 C 0.1392 0.8053 0.20532 0.0
C637 C 0.12189 0.76979 0.24764 0.0
C638 C 0.15382 0.79439 0.15169 0.0
C639 C 0.15288 0.77151 0.14632 0.0
H640 H 0.33128 0.29902 0.70139 0.0
H641 H 0.39299 0.30181 0.86884 0.0
H642 H 0.39324 0.26173 0.87492 0.0
H643 H 0.37709 0.22599 0.83131 0.0
H644 H 0.3119 0.22289 0.67086 0.0
H645 H 0.31301 0.26285 0.66157 0.0
C646 C 0.34467 0.29088 0.73954 0.0
C647 C 0.36211 0.30356 0.78465 0.0
C648 C 0.34454 0.2677 0.74319 0.0
C649 C 0.37922 0.29262 0.83374 0.0
C650 C 0.37952 0.26963 0.83696 0.0
C651 C 0.3626 0.23387 0.79497 0.0
C652 C 0.34427 0.22098 0.75219 0.0
C653 C 0.36236 0.257 0.7918 0.0
C654 C 0.32663 0.23197 0.70394 0.0
C655 C 0.32696 0.25498 0.69912 0.0
H656 H 0.85318 0.72858 0.25107 0.0
H657 H 0.80657 0.73483 0.4427 0.0
H658 H 0.80158 0.77429 0.42445 0.0
H659 H 0.81262 0.80723 0.35752 0.0
H660 H 0.86061 0.80161 0.16797 0.0
H661 H 0.86207 0.76157 0.18086 0.0
C662 C 0.84186 0.73854 0.28882 0.0
C663 C 0.83052 0.72872 0.3486 0.0
C664 C 0.83911 0.7613 0.27808 0.0
C665 C 0.81567 0.7419 0.39651 0.0
C666 C 0.81276 0.7645 0.38606 0.0
C667 C 0.82334 0.79723 0.31885 0.0
C668 C 0.83681 0.80741 0.26225 0.0
C669 C 0.82472 0.77438 0.32754 0.0
C670 C 0.84999 0.7942 0.21184 0.0
C671 C 0.85108 0.77133 0.2196 0.0
H672 H 0.61652 0.28329 0.74935 0.0
H673 H 0.65466 0.26663 0.94489 0.0
H674 H 0.64458 0.22783 0.92371 0.0
H675 H 0.62789 0.19864 0.84729 0.0
H676 H 0.58978 0.21465 0.65144 0.0
H677 H 0.59745 0.25385 0.67468 0.0
C678 C 0.62236 0.27121 0.78768 0.0
C679 C 0.63643 0.27787 0.84857 0.0
C680 C 0.61683 0.24885 0.77479 0.0
C681 C 0.64392 0.26197 0.89753 0.0
C682 C 0.63821 0.23977 0.88541 0.0
C683 C 0.62062 0.21068 0.81015 0.0
C684 C 0.60796 0.20371 0.74794 0.0
C685 C 0.62507 0.23303 0.82388 0.0
C686 C 0.59963 0.21957 0.69959 0.0
C687 C 0.60392 0.24196 0.713 0.0
H688 H 0.83995 0.28508 0.77575 0.0
H689 H 0.91611 0.2896 0.64517 0.0
H690 H 0.92859 0.25137 0.67159 0.0
H691 H 0.91639 0.21634 0.72784 0.0
H692 H 0.83753 0.21189 0.85021 0.0
H693 H 0.82851 0.25077 0.83348 0.0
C694 C 0.85937 0.2778 0.75303 0.0
C695 C 0.87695 0.29013 0.70806 0.0
C696 C 0.86619 0.2559 0.76789 0.0
C697 C 0.90208 0.2804 0.67951 0.0
C698 C 0.90926 0.25859 0.69481 0.0
C699 C 0.89718 0.22381 0.75084 0.0
C700 C 0.87768 0.21093 0.79013 0.0
C701 C 0.89124 0.2461 0.73832 0.0
C702 C 0.85333 0.22121 0.8208 0.0
C703 C 0.84783 0.24348 0.81039 0.0
H704 H 0.61964 0.70966 0.26084 0.0
H705 H 0.67067 0.72257 0.07909 0.0
H706 H 0.67092 0.76174 0.1057 0.0
H707 H 0.65701 0.79225 0.18006 0.0
H708 H 0.60687 0.7803 0.36331 0.0
H709 H 0.60652 0.7407 0.33779 0.0
C710 C 0.63056 0.72111 0.22682 0.0
C711 C 0.6449 0.71324 0.16767 0.0
C712 C 0.63112 0.74368 0.24322 0.0
C713 C 0.65941 0.7282 0.12474 0.0
C714 C 0.65964 0.7506 0.14001 0.0
C715 C 0.64592 0.78098 0.21439 0.0
C716 C 0.63168 0.78916 0.27306 0.0
C717 C 0.64568 0.75848 0.1991 0.0
C718 C 0.61799 0.77435 0.3179 0.0
C719 C 0.61762 0.75178 0.30298 0.0
H720 H 0.63761 0.77183 0.77454 0.0
H721 H 0.69278 0.77355 0.59481 0.0
H722 H 0.70295 0.73441 0.6072 0.0
H723 H 0.6952 0.69967 0.66681 0.0
H724 H 0.63768 0.69713 0.84223 0.0
H725 H 0.63023 0.73686 0.83517 0.0
C726 C 0.65191 0.76366 0.73813 0.0
C727 C 0.66429 0.77558 0.68358 0.0
C728 C 0.65745 0.74108 0.74515 0.0
C729 C 0.6828 0.76475 0.63695 0.0
C730 C 0.6887 0.74238 0.64411 0.0
C731 C 0.68082 0.70774 0.70328 0.0
C732 C 0.66673 0.69536 0.75447 0.0
C733 C 0.67594 0.73038 0.69761 0.0
C734 C 0.64893 0.70624 0.80254 0.0
C735 C 0.64445 0.72893 0.79813 0.0
H736 H 0.83691 0.27756 0.14955 0.0
H737 H 0.87315 0.28903 0.35085 0.0
H738 H 0.88089 0.24966 0.36508 0.0
H739 H 0.87861 0.21211 0.31987 0.0
H740 H 0.84372 0.20029 0.11763 0.0
H741 H 0.83481 0.23973 0.10386 0.0
C742 C 0.84674 0.27151 0.19638 0.0
C743 C 0.85443 0.28644 0.24904 0.0
C744 C 0.85158 0.24878 0.20391 0.0
C745 C 0.8666 0.27808 0.3098 0.0
C746 C 0.87128 0.25552 0.31778 0.0
C747 C 0.86906 0.21808 0.27261 0.0
C748 C 0.86191 0.20315 0.21976 0.0
C749 C 0.86401 0.24074 0.2651 0.0
C750 C 0.84951 0.21133 0.15909 0.0
C751 C 0.84437 0.23391 0.15125 0.0
H752 H 0.64851 0.27809 0.31223 0.0
H753 H 0.68627 0.27812 0.10937 0.0
H754 H 0.67784 0.23851 0.10051 0.0
H755 H 0.66195 0.20348 0.15311 0.0
H756 H 0.62888 0.20383 0.36037 0.0
H757 H 0.63472 0.24359 0.36582 0.0
C758 C 0.65549 0.26951 0.26633 0.0
C759 C 0.66847 0.28124 0.212 0.0
C760 C 0.65189 0.24666 0.26284 0.0
C761 C 0.67606 0.26972 0.15197 0.0
C762 C 0.67156 0.24696 0.14716 0.0
C763 C 0.65615 0.21226 0.19957 0.0
C764 C 0.64503 0.20064 0.25633 0.0
C765 C 0.65989 0.23521 0.20273 0.0
C766 C 0.63768 0.21227 0.31613 0.0
C767 C 0.64084 0.23506 0.31917 0.0
H768 H 0.82712 0.78973 0.72609 0.0
H769 H 0.90189 0.79317 0.86139 0.0
H770 H 0.90975 0.75367 0.84757 0.0
H771 H 0.89448 0.71803 0.80011 0.0
H772 H 0.81776 0.7144 0.67068 0.0
H773 H 0.81238 0.7542 0.67707 0.0
C774 C 0.8452 0.78188 0.75253 0.0
C775 C 0.86379 0.79444 0.79511 0.0
C776 C 0.84947 0.75914 0.74472 0.0
C777 C 0.88713 0.78394 0.82869 0.0
C778 C 0.89169 0.76134 0.82063 0.0
C779 C 0.87648 0.72588 0.7734 0.0
C780 C 0.85648 0.71301 0.73524 0.0
C781 C 0.87284 0.74875 0.77927 0.0
C782 C 0.83378 0.72371 0.69969 0.0
C783 C 0.83043 0.74652 0.70401 0.0
H784 H 0.40083 0.29234 0.2873 0.0
H785 H 0.32096 0.29972 0.17056 0.0
H786 H 0.30832 0.2615 0.19245 0.0
H787 H 0.31827 0.22677 0.24999 0.0
H788 H 0.39681 0.21938 0.37127 0.0
H789 H 0.41119 0.25713 0.34398 0.0
C790 C 0.38064 0.2856 0.26667 0.0
C791 C 0.36191 0.29898 0.2273 0.0
C792 C 0.373 0.26376 0.28124 0.0
C793 C 0.33608 0.28981 0.19999 0.0
C794 C 0.32862 0.26799 0.21323 0.0
C795 C 0.33854 0.23337 0.27067 0.0
C796 C 0.35635 0.22032 0.31301 0.0
C797 C 0.34665 0.25496 0.25469 0.0
C798 C 0.38262 0.22913 0.33891 0.0
C799 C 0.39089 0.25067 0.3231 0.0
H800 H 0.11935 0.78381 0.7809 0.0
H801 H 0.21294 0.78447 0.74655 0.0
H802 H 0.21134 0.74607 0.71081 0.0
H803 H 0.18383 0.71161 0.69522 0.0
H804 H 0.09084 0.71041 0.73429 0.0
H805 H 0.09154 0.74977 0.76085 0.0
C806 C 0.13939 0.77557 0.76559 0.0
C807 C 0.16623 0.78699 0.76698 0.0
C808 C 0.13836 0.75342 0.74517 0.0
C809 C 0.19197 0.77606 0.74649 0.0
C810 C 0.1911 0.7541 0.72573 0.0
C811 C 0.16367 0.72017 0.7079 0.0
C812 C 0.13727 0.70836 0.71205 0.0
C813 C 0.16447 0.74257 0.72531 0.0
C814 C 0.11133 0.71936 0.73017 0.0
C815 C 0.11179 0.74176 0.74589 0.0
H816 H 0.39847 0.7072 0.70181 0.0
H817 H 0.33546 0.70586 0.86691 0.0
H818 H 0.33361 0.74594 0.86687 0.0
H819 H 0.3465 0.78115 0.81359 0.0
H820 H 0.40708 0.78249 0.64373 0.0
H821 H 0.41268 0.74257 0.65102 0.0
C822 C 0.38425 0.71562 0.7378 0.0
C823 C 0.36691 0.70333 0.7839 0.0
C824 C 0.38251 0.73869 0.73593 0.0
C825 C 0.34928 0.71471 0.83128 0.0
C826 C 0.34794 0.73769 0.83075 0.0
C827 C 0.36108 0.77278 0.77826 0.0
C828 C 0.37621 0.78487 0.72778 0.0
C829 C 0.36394 0.74981 0.7823 0.0
C830 C 0.39505 0.77365 0.68277 0.0
C831 C 0.39828 0.7508 0.687 0.0
H832 H 0.15611 0.31408 0.17456 0.0
H833 H 0.11195 0.30072 0.36522 0.0
H834 H 0.11603 0.26109 0.34351 0.0
H835 H 0.13047 0.23048 0.26768 0.0
H836 H 0.17478 0.24438 0.07716 0.0
H837 H 0.17193 0.28372 0.10105 0.0
C838 C 0.14726 0.30248 0.21126 0.0
C839 C 0.13336 0.31026 0.27096 0.0
C840 C 0.14952 0.27991 0.19817 0.0
C841 C 0.1227 0.29509 0.31893 0.0
C842 C 0.12489 0.27249 0.30629 0.0
C843 C 0.13945 0.24212 0.2313 0.0
C844 C 0.15262 0.2345 0.17041 0.0
C845 C 0.13793 0.26473 0.24563 0.0
C846 C 0.16448 0.24978 0.12427 0.0
C847 C 0.16287 0.27228 0.13791 0.0
H848 H 0.15389 0.97118 0.97492 0.0
H849 H 0.07222 0.96757 0.08627 0.0
H850 H 0.07064 0.00769 0.09358 0.0
H851 H 0.09302 0.04379 0.06985 0.0
H852 H 0.17472 0.04681 0.95811 0.0
H853 H 0.17563 0.0069 0.94957 0.0
C854 C 0.13568 0.97912 1.00076 0.0
C855 C 0.11326 0.96636 0.03019 0.0
C856 C 0.13493 1.00211 0.00483 0.0
C857 C 0.08979 0.97698 0.0632 0.0
C858 C 0.08889 0.99993 0.06747 0.0
C859 C 0.11101 0.03572 0.04357 0.0
C860 C 0.1338 0.04833 0.01485 0.0
C861 C 0.11143 0.01266 0.03874 0.0
C862 C 0.15689 0.03757 0.98078 0.0
C863 C 0.15746 0.01471 0.97585 0.0
H864 H 0.34058 0.96698 0.55038 0.0
H865 H 0.4037 0.96948 0.38568 0.0
H866 H 0.4051 0.0094 0.39363 0.0
H867 H 0.38804 0.04371 0.44515 0.0
H868 H 0.32562 0.04213 0.61108 0.0
H869 H 0.32455 1.00186 0.60523 0.0
C870 C 0.35463 0.97627 0.51623 0.0
C871 C 0.37192 0.9651 0.46721 0.0
C872 C 0.35555 0.99943 0.5214 0.0
C873 C 0.39015 0.97749 0.42384 0.0
C874 C 0.39097 1.00039 0.42831 0.0
C875 C 0.37421 0.03462 0.48034 0.0
C876 C 0.35683 0.04604 0.52836 0.0
C877 C 0.37372 0.01154 0.47664 0.0
C878 C 0.33926 0.03385 0.57369 0.0
C879 C 0.33857 0.01079 0.57016 0.0
H880 H 0.84289 0.97389 0.03068 0.0
H881 H 0.93593 0.96595 0.06356 0.0
H882 H 0.94245 0.00576 0.06253 0.0
H883 H 0.92196 0.04296 0.05066 0.0
H884 H 0.82886 0.05092 0.01898 0.0
H885 H 0.82226 0.01112 0.0212 0.0
C886 C 0.86461 0.98084 0.03773 0.0
C887 C 0.88888 0.96683 0.04697 0.0
C888 C 0.86825 0.00384 0.03717 0.0
C889 C 0.91682 0.97624 0.05621 0.0
C890 C 0.92061 0.99906 0.05559 0.0
C891 C 0.90021 0.03601 0.04424 0.0
C892 C 0.87598 0.05001 0.03441 0.0
C893 C 0.89651 0.01303 0.04581 0.0
C894 C 0.84794 0.04063 0.02662 0.0
C895 C 0.84412 0.01782 0.02782 0.0
H896 H 0.64612 0.96765 0.61691 0.0
H897 H 0.6185 0.94763 0.41464 0.0
H898 H 0.613 0.98605 0.3815 0.0
H899 H 0.61693 0.02532 0.40905 0.0
H900 H 0.64463 0.0454 0.61118 0.0
H901 H 0.64918 0.00696 0.64512 0.0
C902 C 0.63879 0.97166 0.56562 0.0
C903 C 0.63279 0.95473 0.51834 0.0
C904 C 0.63577 0.99382 0.54676 0.0
C905 C 0.6233 0.96029 0.45212 0.0
C906 C 0.62018 0.98228 0.43305 0.0
C907 C 0.62394 0.02133 0.46059 0.0
C908 C 0.63051 0.03827 0.5074 0.0
C909 C 0.62651 0.99918 0.47981 0.0
C910 C 0.63946 0.03273 0.57403 0.0
C911 C 0.64208 0.01073 0.59352 0.0
H912 H 0.63388 0.46067 0.89959 0.0
H913 H 0.6428 0.44616 0.11485 0.0
H914 H 0.63991 0.48523 0.14221 0.0
H915 H 0.63817 0.52366 0.10465 0.0
H916 H 0.63021 0.53822 0.88922 0.0
H917 H 0.62918 0.49904 0.8626 0.0
C918 C 0.63494 0.46602 0.95255 0.0
C919 C 0.6388 0.45048 0.00496 0.0
C920 C 0.63356 0.48857 0.96799 0.0
C921 C 0.64001 0.45774 0.07335 0.0
C922 C 0.63839 0.48011 0.08913 0.0
C923 C 0.63592 0.51828 0.05191 0.0
C924 C 0.6345 0.5339 0.99904 0.0
C925 C 0.63568 0.49569 0.03679 0.0
C926 C 0.6315 0.52659 0.931 0.0
C927 C 0.63096 0.50416 0.91563 0.0
H928 H 0.85837 0.46783 0.57358 0.0
H929 H 0.83763 0.4575 0.36023 0.0
H930 H 0.83616 0.49719 0.34217 0.0
H931 H 0.84039 0.53488 0.38694 0.0
H932 H 0.8609 0.5452 0.60043 0.0
H933 H 0.86287 0.50552 0.61821 0.0
C934 C 0.85355 0.47422 0.52305 0.0
C935 C 0.8481 0.4596 0.46837 0.0
C936 C 0.8527 0.49711 0.51299 0.0
C937 C 0.84189 0.46828 0.40331 0.0
C938 C 0.84105 0.49102 0.3929 0.0
C939 C 0.84536 0.52849 0.43739 0.0
C940 C 0.85049 0.5431 0.49226 0.0
C941 C 0.84637 0.5056 0.44736 0.0
C942 C 0.85685 0.53442 0.55723 0.0
C943 C 0.85797 0.51168 0.56748 0.0
H944 H 0.35684 0.53195 0.9551 0.0
H945 H 0.43332 0.53718 0.08464 0.0
H946 H 0.43906 0.49742 0.08268 0.0
H947 H 0.42197 0.46096 0.04725 0.0
H948 H 0.34524 0.45497 0.91917 0.0
H949 H 0.34016 0.49502 0.91738 0.0
C950 C 0.37484 0.52441 0.98263 0.0
C951 C 0.39456 0.53771 0.02011 0.0
C952 C 0.37799 0.50129 0.98173 0.0
C953 C 0.4177 0.52751 0.05552 0.0
C954 C 0.42105 0.50468 0.05446 0.0
C955 C 0.40417 0.46835 0.01861 0.0
C956 C 0.384 0.45483 0.98349 0.0
C957 C 0.40125 0.49139 0.01819 0.0
C958 C 0.3611 0.46487 0.94677 0.0
C959 C 0.35816 0.48782 0.94578 0.0
H960 H 0.08311 0.47341 0.4304 0.0
H961 H 0.15741 0.46967 0.56709 0.0
H962 H 0.16221 0.50954 0.56542 0.0
H963 H 0.14619 0.54544 0.52336 0.0
H964 H 0.0723 0.54941 0.38565 0.0
H965 H 0.06652 0.50954 0.38971 0.0
C966 C 0.10027 0.48131 0.46006 0.0
C967 C 0.11989 0.46851 0.49865 0.0
C968 C 0.10307 0.50432 0.4586 0.0
C969 C 0.14203 0.47907 0.53671 0.0
C970 C 0.14482 0.5019 0.53583 0.0
C971 C 0.12876 0.53762 0.49433 0.0
C972 C 0.10978 0.55042 0.45415 0.0
C973 C 0.12561 0.51468 0.49663 0.0
C974 C 0.0873 0.53997 0.41693 0.0
C975 C 0.08395 0.51715 0.4192 0.0
H976 H 0.21559 0.10482 0.19378 0.0
H977 H 0.21425 0.17518 0.16871 0.0
H978 H 0.24492 0.17973 0.27038 0.0
H979 H 0.27267 0.16372 0.36506 0.0
H980 H 0.27568 0.09334 0.38903 0.0
H981 H 0.24307 0.08874 0.29041 0.0
C982 C 0.22207 0.1211 0.21081 0.0
C983 C 0.21254 0.13967 0.17463 0.0
C984 C 0.23964 0.12358 0.26941 0.0
C985 C 0.22114 0.1607 0.19652 0.0
C986 C 0.2386 0.16331 0.25457 0.0
C987 C 0.26608 0.14738 0.34874 0.0
C988 C 0.27687 0.12889 0.38334 0.0
C989 C 0.24795 0.14488 0.29136 0.0
C990 C 0.26781 0.10782 0.36271 0.0
C991 C 0.24932 0.10518 0.30614 0.0
H992 H 0.28047 0.90518 0.65617 0.0
H993 H 0.3007 0.8366 0.68641 0.0
H994 H 0.26296 0.83418 0.77478 0.0
H995 H 0.22471 0.85167 0.84475 0.0
H996 H 0.20475 0.9202 0.81599 0.0
H997 H 0.24199 0.9226 0.7259 0.0
C998 C 0.2766 0.8897 0.68203 0.0
C999 C 0.29347 0.87113 0.66493 0.0
C1000 C 0.25491 0.88842 0.73296 0.0
C1001 C 0.28817 0.85119 0.69894 0.0
C1002 C 0.26656 0.84976 0.74938 0.0
C1003 C 0.22825 0.867 0.81784 0.0
C1004 C 0.21179 0.88561 0.83589 0.0
C1005 C 0.24982 0.86827 0.76679 0.0
C1006 C 0.21713 0.90563 0.80257 0.0
C1007 C 0.23838 0.90699 0.75112 0.0
H1008 H 0.71268 0.90514 0.69209 0.0
H1009 H 0.70211 0.83483 0.69708 0.0
H1010 H 0.7413 0.83186 0.78201 0.0
H1011 H 0.77923 0.8493 0.85352 0.0
H1012 H 0.78794 0.91988 0.85398 0.0
H1013 H 0.7489 0.92279 0.76862 0.0
C1014 C 0.71892 0.88923 0.71227 0.0
C1015 C 0.70447 0.87023 0.68903 0.0
C1016 C 0.74117 0.88773 0.76194 0.0
C1017 C 0.7127 0.84967 0.71504 0.0
C1018 C 0.73518 0.84798 0.76336 0.0
C1019 C 0.7725 0.86531 0.83501 0.0
C1020 C 0.78652 0.88432 0.85976 0.0
C1021 C 0.74965 0.86689 0.78699 0.0
C1022 C 0.77742 0.90499 0.83589 0.0
C1023 C 0.75516 0.90667 0.78692 0.0
H1024 H 0.68042 0.12175 0.23196 0.0
H1025 H 0.72037 0.09684 0.41615 0.0
H1026 H 0.76772 0.09445 0.35833 0.0
H1027 H 0.79799 0.10077 0.25786 0.0
H1028 H 0.7599 0.12859 0.0754 0.0
H1029 H 0.71137 0.1282 0.12964 0.0
C1030 C 0.69943 0.11551 0.25885 0.0
C1031 C 0.69696 0.10933 0.3279 0.0
C1032 C 0.72683 0.11476 0.22573 0.0
C1033 C 0.72183 0.10173 0.36295 0.0
C1034 C 0.74887 0.10033 0.32994 0.0
C1035 C 0.77912 0.1067 0.22961 0.0
C1036 C 0.78258 0.11477 0.16272 0.0
C1037 C 0.75166 0.10703 0.26168 0.0
C1038 C 0.75782 0.12236 0.12707 0.0
C1039 C 0.7301 0.12215 0.15807 0.0
H1040 H 0.78056 0.59632 0.34462 0.0
H1041 H 0.7879 0.66692 0.34461 0.0
H1042 H 0.75076 0.66929 0.25448 0.0
H1043 H 0.71642 0.65122 0.17541 0.0
H1044 H 0.71006 0.58052 0.17234 0.0
H1045 H 0.74663 0.57816 0.26391 0.0
C1046 C 0.77403 0.61218 0.32455 0.0
C1047 C 0.78714 0.63142 0.35019 0.0
C1048 C 0.75286 0.61336 0.27242 0.0
C1049 C 0.7784 0.65191 0.32461 0.0
C1050 C 0.75712 0.65326 0.27336 0.0
C1051 C 0.72298 0.63531 0.19507 0.0
C1052 C 0.71045 0.61607 0.16779 0.0
C1053 C 0.74424 0.63409 0.24685 0.0
C1054 C 0.71939 0.59554 0.19281 0.0
C1055 C 0.74025 0.59419 0.24513 0.0
H1056 H 0.77953 0.40028 0.63821 0.0
H1057 H 0.79489 0.33033 0.63451 0.0
H1058 H 0.76345 0.32556 0.73415 0.0
H1059 H 0.73283 0.34109 0.82416 0.0
H1060 H 0.71741 0.41086 0.83242 0.0
H1061 H 0.74793 0.41601 0.72993 0.0
C1062 C 0.77564 0.38402 0.65895 0.0
C1063 C 0.78957 0.36568 0.62941 0.0
C1064 C 0.75784 0.38141 0.71738 0.0
C1065 C 0.78459 0.3447 0.65686 0.0
C1066 C 0.76668 0.34195 0.71387 0.0
C1067 C 0.73608 0.35743 0.80328 0.0
C1068 C 0.72271 0.37552 0.8349 0.0
C1069 C 0.75348 0.36017 0.7449 0.0
C1070 C 0.72746 0.39667 0.80848 0.0
C1071 C 0.74476 0.39958 0.7498 0.0
H1072 H 0.21789 0.41261 0.67088 0.0
H1073 H 0.19056 0.34672 0.71955 0.0
H1074 H 0.23274 0.34264 0.79666 0.0
H1075 H 0.28036 0.35683 0.84068 0.0
H1076 H 0.30874 0.42173 0.7818 0.0
H1077 H 0.26328 0.42728 0.71849 0.0
C1078 C 0.22095 0.39745 0.6991 0.0
C1079 C 0.20099 0.38008 0.69044 0.0
C1080 C 0.24566 0.39504 0.74108 0.0
C1081 C 0.20535 0.36046 0.72666 0.0
C1082 C 0.2296 0.35809 0.77019 0.0
C1083 C 0.27621 0.3723 0.815 0.0
C1084 C 0.2978 0.38886 0.8157 0.0
C1085 C 0.25029 0.37513 0.77665 0.0
C1086 C 0.29248 0.40872 0.78155 0.0
C1087 C 0.26652 0.41191 0.74531 0.0
H1088 H 0.28403 0.65514 0.14655 0.0
H1089 H 0.30094 0.58646 0.18115 0.0
H1090 H 0.26104 0.58512 0.26523 0.0
H1091 H 0.22024 0.60339 0.32621 0.0
H1092 H 0.20292 0.67198 0.28754 0.0
H1093 H 0.24413 0.67349 0.20828 0.0
C1094 C 0.27926 0.64 0.17335 0.0
C1095 C 0.29563 0.62105 0.15862 0.0
C1096 C 0.25607 0.6393 0.22062 0.0
C1097 C 0.28872 0.60132 0.19214 0.0
C1098 C 0.26591 0.60055 0.24011 0.0
C1099 C 0.22558 0.61868 0.30066 0.0
C1100 C 0.2084 0.63751 0.31276 0.0
C1101 C 0.24925 0.61941 0.25436 0.0
C1102 C 0.21563 0.65719 0.27906 0.0
C1103 C 0.23924 0.6581 0.23367 0.0
H1104 H 0.11767 0.13764 0.61401 0.0
H1105 H 0.21015 0.15107 0.63033 0.0
H1106 H 0.21588 0.14617 0.50635 0.0
H1107 H 0.19284 0.14379 0.39215 0.0
H1108 H 0.10021 0.13015 0.37642 0.0
H1109 H 0.09622 0.12898 0.50111 0.0
C1110 C 0.13917 0.13874 0.59041 0.0
C1111 C 0.1635 0.14458 0.6306 0.0
C1112 C 0.14213 0.13619 0.5192 0.0
C1113 C 0.19125 0.14633 0.6 0.0
C1114 C 0.19444 0.14374 0.52919 0.0
C1115 C 0.17196 0.14006 0.41616 0.0
C1116 C 0.14676 0.13739 0.37542 0.0
C1117 C 0.16981 0.13953 0.48799 0.0
C1118 C 0.11988 0.13235 0.40683 0.0
C1119 C 0.11755 0.1318 0.47815 0.0
H1120 H 0.38507 0.87392 0.11381 0.0
H1121 H 0.29078 0.87194 0.10496 0.0
H1122 H 0.29222 0.87762 0.98075 0.0
H1123 H 0.32085 0.87663 0.87358 0.0
H1124 H 0.41541 0.87695 0.88335 0.0
H1125 H 0.4135 0.87876 0.00809 0.0
C1126 C 0.36491 0.87565 0.08474 0.0
C1127 C 0.33788 0.87281 0.11774 0.0
C1128 C 0.36604 0.87815 0.01344 0.0
C1129 C 0.31177 0.8745 0.08014 0.0
C1130 C 0.31264 0.87744 0.0092 0.0
C1131 C 0.34097 0.8776 0.90312 0.0
C1132 C 0.36822 0.87631 0.86971 0.0
C1133 C 0.3397 0.87829 0.97499 0.0
C1134 C 0.39418 0.8777 0.90819 0.0
C1135 C 0.39312 0.87869 0.9795 0.0
H1136 H 0.19465 0.86124 0.60329 0.0
H1137 H 0.11371 0.89733 0.6218 0.0
H1138 H 0.10924 0.89867 0.49693 0.0
H1139 H 0.12488 0.88488 0.38292 0.0
H1140 H 0.20456 0.84728 0.36636 0.0
H1141 H 0.21325 0.85139 0.48934 0.0
C1142 C 0.17636 0.86981 0.57992 0.0
C1143 C 0.1544 0.87899 0.62164 0.0
C1144 C 0.1736 0.87004 0.50819 0.0
C1145 C 0.13088 0.8901 0.59074 0.0
C1146 C 0.12822 0.89075 0.5193 0.0
C1147 C 0.14449 0.87816 0.40626 0.0
C1148 C 0.16413 0.86586 0.36604 0.0
C1149 C 0.14892 0.88011 0.47751 0.0
C1150 C 0.18928 0.85689 0.3966 0.0
C1151 C 0.19414 0.85913 0.46688 0.0
H1152 H 0.30185 0.15278 0.9286 0.0
H1153 H 0.3954 0.15792 0.90198 0.0
H1154 H 0.40319 0.14718 0.0214 0.0
H1155 H 0.38318 0.14 0.13539 0.0
H1156 H 0.28949 0.13734 0.1651 0.0
H1157 H 0.28173 0.14303 0.04236 0.0
C1158 C 0.32386 0.15116 0.94913 0.0
C1159 C 0.3481 0.15601 0.90749 0.0
C1160 C 0.32804 0.1455 0.01812 0.0
C1161 C 0.37658 0.15418 0.9338 0.0
C1162 C 0.38097 0.14809 1.00183 0.0
C1163 C 0.36109 0.14023 0.11473 0.0
C1164 C 0.33694 0.13832 0.15891 0.0
C1165 C 0.35686 0.1442 0.04479 0.0
C1166 C 0.3084 0.13876 0.13181 0.0
C1167 C 0.30397 0.14214 0.06178 0.0
H1168 H 0.81278 0.88163 0.41802 0.0
H1169 H 0.90431 0.8703 0.37669 0.0
H1170 H 0.9161 0.87607 0.4977 0.0
H1171 H 0.89914 0.87835 0.6168 0.0
H1172 H 0.80737 0.88868 0.65949 0.0
H1173 H 0.79674 0.88952 0.53658 0.0
C1174 C 0.83538 0.88132 0.43545 0.0
C1175 C 0.85777 0.87585 0.38907 0.0
C1176 C 0.84178 0.88399 0.5054 0.0
C1177 C 0.88692 0.87487 0.41178 0.0
C1178 C 0.89356 0.87789 0.48095 0.0
C1179 C 0.87692 0.88121 0.59903 0.0
C1180 C 0.854 0.88315 0.64669 0.0
C1181 C 0.87101 0.88152 0.52853 0.0
C1182 C 0.82533 0.88706 0.62346 0.0
C1183 C 0.81924 0.88747 0.55326 0.0
H1184 H 0.55622 0.14147 0.87454 0.0
H1185 H 0.64214 0.11557 0.83014 0.0
H1186 H 0.64773 0.10431 0.94938 0.0
H1187 H 0.632 0.10831 0.06946 0.0
H1188 H 0.54664 0.13518 0.11456 0.0
H1189 H 0.53694 0.13957 0.99217 0.0
C1190 C 0.57574 0.1327 0.89068 0.0
C1191 C 0.59884 0.12954 0.84385 0.0
C1192 C 0.57918 0.12696 0.95982 0.0
C1193 C 0.62397 0.11808 0.86506 0.0
C1194 C 0.62736 0.11193 0.93354 0.0
C1195 C 0.61103 0.11468 0.0523 0.0
C1196 C 0.59024 0.12177 0.10071 0.0
C1197 C 0.60573 0.1173 0.98191 0.0
C1198 C 0.56305 0.12976 0.07811 0.0
C1199 C 0.55753 0.13233 0.00817 0.0
H1200 H 0.84638 0.13052 0.65431 0.0
H1201 H 0.93642 0.15209 0.65041 0.0
H1202 H 0.94012 0.14208 0.5291 0.0
H1203 H 0.9155 0.13211 0.42147 0.0
H1204 H 0.82401 0.11394 0.42391 0.0
H1205 H 0.82301 0.11744 0.54863 0.0
C1206 C 0.86702 0.13235 0.62718 0.0
C1207 C 0.89117 0.14182 0.66064 0.0
C1208 C 0.86849 0.1275 0.55711 0.0
C1209 C 0.91768 0.14466 0.62519 0.0
C1210 C 0.91969 0.1391 0.55596 0.0
C1211 C 0.89554 0.12854 0.4496 0.0
C1212 C 0.86982 0.12296 0.41408 0.0
C1213 C 0.89492 0.13127 0.52089 0.0
C1214 C 0.84401 0.11842 0.45057 0.0
C1215 C 0.84342 0.12043 0.52172 0.0
H1216 H 0.5933 0.86783 0.92888 0.0
H1217 H 0.68755 0.87229 0.91541 0.0
H1218 H 0.69108 0.87324 0.0404 0.0
H1219 H 0.66785 0.86558 0.15194 0.0
H1220 H 0.57405 0.8582 0.16391 0.0
H1221 H 0.56959 0.86617 0.04158 0.0
C1222 C 0.61454 0.86958 0.95337 0.0
C1223 C 0.64015 0.86964 0.91329 0.0
C1224 C 0.61641 0.8695 0.02514 0.0
C1225 C 0.66754 0.87204 0.94538 0.0
C1226 C 0.66957 0.87249 0.01683 0.0
C1227 C 0.64641 0.86671 0.12806 0.0
C1228 C 0.62126 0.86158 0.16643 0.0
C1229 C 0.64424 0.87025 0.05715 0.0
C1230 C 0.59358 0.86244 0.13516 0.0
C1231 C 0.59111 0.8667 0.06516 0.0
H1232 H 0.62626 0.62184 0.61716 0.0
H1233 H 0.71986 0.63067 0.60787 0.0
H1234 H 0.71914 0.62443 0.48381 0.0
H1235 H 0.69056 0.62281 0.37677 0.0
H1236 H 0.59647 0.61572 0.38648 0.0
H1237 H 0.59857 0.61456 0.51135 0.0
C1238 C 0.64653 0.6215 0.58804 0.0
C1239 C 0.67309 0.62641 0.62093 0.0
C1240 C 0.64573 0.61866 0.51671 0.0
C1241 C 0.69929 0.62653 0.58318 0.0
C1242 C 0.69879 0.62324 0.51231 0.0
C1243 C 0.67063 0.62053 0.40632 0.0
C1244 C 0.64336 0.61971 0.37283 0.0
C1245 C 0.67196 0.62026 0.47821 0.0
C1246 C 0.61769 0.61659 0.41136 0.0
C1247 C 0.61886 0.61599 0.48275 0.0
H1248 H 0.89861 0.36684 0.87218 0.0
H1249 H 0.80609 0.3761 0.83672 0.0
H1250 H 0.79619 0.37056 0.95882 0.0
H1251 H 0.81361 0.35894 0.07356 0.0
H1252 H 0.90574 0.34691 0.10501 0.0
H1253 H 0.91622 0.35777 0.98693 0.0
C1254 C 0.87634 0.36809 0.89142 0.0
C1255 C 0.85311 0.37185 0.84569 0.0
C1256 C 0.8708 0.36415 0.96099 0.0
C1257 C 0.82434 0.37327 0.87111 0.0
C1258 C 0.81867 0.36997 0.94083 0.0
C1259 C 0.83597 0.35915 0.05454 0.0
C1260 C 0.85897 0.35228 0.09738 0.0
C1261 C 0.84166 0.36479 0.98593 0.0
C1262 C 0.88784 0.35223 0.07256 0.0
C1263 C 0.89377 0.35837 0.00518 0.0
H1264 H 0.71531 0.33759 0.6126 0.0
H1265 H 0.64752 0.38681 0.60367 0.0
H1266 H 0.64957 0.38637 0.47853 0.0
H1267 H 0.6651 0.36759 0.37226 0.0
H1268 H 0.73224 0.31787 0.38207 0.0
H1269 H 0.73647 0.32319 0.50575 0.0
C1270 C 0.70147 0.34855 0.58319 0.0
C1271 C 0.68096 0.36193 0.61706 0.0
C1272 C 0.70248 0.34797 0.51128 0.0
C1273 C 0.66334 0.37624 0.57859 0.0
C1274 C 0.66441 0.37591 0.507 0.0
C1275 C 0.68123 0.35841 0.40129 0.0
C1276 C 0.69799 0.34212 0.36839 0.0
C1277 C 0.68307 0.36121 0.47276 0.0
C1278 C 0.71878 0.33027 0.40658 0.0
C1279 C 0.72114 0.33325 0.47728 0.0
H1280 H 0.89758 0.64043 0.11333 0.0
H1281 H 0.8045 0.62896 0.13075 0.0
H1282 H 0.79982 0.62914 0.00587 0.0
H1283 H 0.82112 0.63835 0.89309 0.0
H1284 H 0.91336 0.65292 0.87779 0.0
H1285 H 0.9197 0.64547 1.00002 0.0
C1286 C 0.8764 0.63744 0.08969 0.0
C1287 C 0.85139 0.63485 0.13096 0.0
C1288 C 0.87376 0.63833 0.01811 0.0
C1289 C 0.82405 0.63106 0.09986 0.0
C1290 C 0.82135 0.63128 0.0285 0.0
C1291 C 0.84269 0.63918 0.91644 0.0
C1292 C 0.86683 0.64596 0.87702 0.0
C1293 C 0.84587 0.63572 0.98723 0.0
C1294 C 0.89462 0.64752 0.90749 0.0
C1295 C 0.89817 0.64342 0.97731 0.0
H1296 H 0.42417 0.3487 0.36398 0.0
H1297 H 0.35097 0.39247 0.33454 0.0
H1298 H 0.35484 0.40477 0.45356 0.0
H1299 H 0.37363 0.39829 0.57011 0.0
H1300 H 0.4445 0.35243 0.60048 0.0
H1301 H 0.44696 0.34566 0.4772 0.0
C1302 C 0.40946 0.36127 0.38338 0.0
C1303 C 0.38708 0.36945 0.34094 0.0
C1304 C 0.41106 0.36754 0.45238 0.0
C1305 C 0.36844 0.38597 0.36613 0.0
C1306 C 0.37041 0.3928 0.43443 0.0
C1307 C 0.38997 0.38715 0.54947 0.0
C1308 C 0.40861 0.37563 0.5941 0.0
C1309 C 0.39079 0.38297 0.47871 0.0
C1310 C 0.42978 0.36133 0.567 0.0
C1311 C 0.43116 0.35743 0.49659 0.0
H1312 H 0.09331 0.63376 0.06944 0.0
H1313 H 0.18693 0.63261 0.10107 0.0
H1314 H 0.1949 0.63141 0.9771 0.0
H1315 H 0.17513 0.63694 0.8607 0.0
H1316 H 0.08168 0.64049 0.83069 0.0
H1317 H 0.07352 0.63392 0.95282 0.0
C1318 C 0.11543 0.6328 0.0491 0.0
C1319 C 0.13952 0.6336 0.09383 0.0
C1320 C 0.11978 0.63254 0.97806 0.0
C1321 C 0.16807 0.63216 0.06729 0.0
C1322 C 0.17262 0.63154 0.9965 0.0
C1323 C 0.15304 0.63537 0.88084 0.0
C1324 C 0.12897 0.63891 0.83743 0.0
C1325 C 0.14866 0.63255 0.95144 0.0
C1326 C 0.10038 0.63746 0.86356 0.0
C1327 C 0.09578 0.63399 0.93333 0.0
H1328 H 0.31705 0.6533 0.61179 0.0
H1329 H 0.40115 0.62203 0.63417 0.0
H1330 H 0.40291 0.61488 0.51039 0.0
H1331 H 0.38318 0.62205 0.39434 0.0
H1332 H 0.29897 0.65361 0.37351 0.0
H1333 H 0.29426 0.65581 0.49786 0.0
C1334 C 0.33536 0.64441 0.58952 0.0
C1335 C 0.35893 0.63814 0.6315 0.0
C1336 C 0.3363 0.64065 0.51854 0.0
C1337 C 0.38269 0.62679 0.60259 0.0
C1338 C 0.38377 0.62289 0.53186 0.0
C1339 C 0.36355 0.62896 0.41717 0.0
C1340 C 0.34164 0.63794 0.37487 0.0
C1341 C 0.36112 0.63038 0.48902 0.0
C1342 C 0.31626 0.64679 0.40501 0.0
C1343 C 0.31359 0.64811 0.47614 0.0
H1344 H 0.16067 0.38784 0.14857 0.0
H1345 H 0.06771 0.37607 0.16225 0.0
H1346 H 0.06226 0.38336 0.0397 0.0
H1347 H 0.08564 0.38496 0.92685 0.0
H1348 H 0.17947 0.39274 0.91184 0.0
H1349 H 0.18306 0.39559 0.03651 0.0
C1350 C 0.13911 0.38788 0.12494 0.0
C1351 C 0.11455 0.38165 0.16368 0.0
C1352 C 0.13652 0.39086 0.054 0.0
C1353 C 0.08675 0.38114 0.13301 0.0
C1354 C 0.08375 0.38502 0.06296 0.0
C1355 C 0.10675 0.3879 0.95087 0.0
C1356 C 0.13231 0.38827 0.91072 0.0
C1357 C 0.10872 0.38866 0.02247 0.0
C1358 C 0.15954 0.39222 0.94203 0.0
C1359 C 0.1616 0.39373 0.01327 0.0
loop_
_geom_bond_atom_site_label_1
_geom_bond_atom_site_label_2
_geom_bond_distance
_geom_bond_site_symmetry_2
_ccdc_geom_bond_type
O0 Tb1 2.292 . S
O0 C3 1.255 . S
Tb1 O0 2.292 . S
Tb1 O17 2.326 . S
Tb1 O19 2.500 . S
Tb1 O20 2.473 . S
Tb1 O23 2.324 . S
Eu2 O6 2.292 1_554 S
Eu2 C7 2.852 1_554 S
Eu2 O18 2.324 . S
Eu2 O22 2.326 . S
Eu2 O24 2.500 1_554 S
Eu2 O25 2.473 1_554 S
C3 O0 1.255 . S
C3 O4 1.247 . S
O4 C3 1.247 . S
C5 O17 1.242 . S
C5 O18 1.258 . S
O6 Eu2 2.292 1_556 S
O6 C8 1.255 1_556 S
C7 Eu2 2.852 1_556 S
C7 C11 1.503 . S
C7 O24 1.273 . S
C7 O25 1.257 . S
C8 O6 1.255 1_554 S
C8 O9 1.247 . S
O9 C8 1.247 . S
C10 O22 1.242 . S
C10 O23 1.258 . S
C11 C7 1.503 . S
C11 C12 1.379 . S
C11 C16 1.392 . S
C12 C11 1.379 . S
C12 C13 1.404 . S
C12 H26 0.929 . S
C13 C12 1.404 . S
C13 C14 1.389 . S
C14 C13 1.389 . S
C14 C15 1.399 . S
C14 H27 0.931 . S
C15 C14 1.399 . S
C15 C16 1.390 . S
C16 C11 1.392 . S
C16 C15 1.390 . S
C16 H28 0.929 . S
O17 Tb1 2.326 . S
O17 C5 1.242 . S
O18 Eu2 2.324 . S
O18 C5 1.258 . S
O19 Tb1 2.500 . S
O19 C21 1.273 . S
O20 Tb1 2.473 . S
O20 C21 1.257 . S
C21 O19 1.273 . S
C21 O20 1.257 . S
O22 Eu2 2.326 . S
O22 C10 1.242 . S
O23 Tb1 2.324 . S
O23 C10 1.258 . S
O24 Eu2 2.500 1_556 S
O24 C7 1.273 . S
O25 Eu2 2.473 1_556 S
O25 C7 1.257 . S
H26 C12 0.929 . S
H27 C14 0.931 . S
H28 C16 0.929 . S
O29 Tb30 2.292 . S
O29 C32 1.255 . S
Tb30 O29 2.292 . S
Tb30 O46 2.326 . S
Tb30 O48 2.500 . S
Tb30 O49 2.473 . S
Tb30 O52 2.324 . S
Eu31 O35 2.292 . S
Eu31 C36 2.852 . S
Eu31 O47 2.324 . S
Eu31 O51 2.326 . S
Eu31 O53 2.500 . S
Eu31 O54 2.473 . S
C32 O29 1.255 . S
C32 O33 1.247 . S
O33 C32 1.247 . S
C34 O46 1.242 . S
C34 O47 1.258 . S
O35 Eu31 2.292 . S
O35 C37 1.255 . S
C36 Eu31 2.852 . S
C36 C40 1.503 . S
C36 O53 1.273 . S
C36 O54 1.257 . S
C37 O35 1.255 . S
C37 O38 1.247 . S
O38 C37 1.247 . S
C39 O51 1.242 . S
C39 O52 1.258 . S
C40 C36 1.503 . S
C40 C41 1.379 . S
C40 C45 1.392 . S
C41 C40 1.379 . S
C41 C42 1.404 . S
C41 H55 0.929 . S
C42 C41 1.404 . S
C42 C43 1.389 . S
C43 C42 1.389 . S
C43 C44 1.399 . S
C43 H56 0.931 . S
C44 C43 1.399 . S
C44 C45 1.390 . S
C45 C40 1.392 . S
C45 C44 1.390 . S
C45 H57 0.929 . S
O46 Tb30 2.326 . S
O46 C34 1.242 . S
O47 Eu31 2.324 . S
O47 C34 1.258 . S
O48 Tb30 2.500 . S
O48 C50 1.273 . S
O49 Tb30 2.473 . S
O49 C50 1.257 . S
C50 O48 1.273 . S
C50 O49 1.257 . S
O51 Eu31 2.326 . S
O51 C39 1.242 . S
O52 Tb30 2.324 . S
O52 C39 1.258 . S
O53 Eu31 2.500 . S
O53 C36 1.273 . S
O54 Eu31 2.473 . S
O54 C36 1.257 . S
H55 C41 0.929 . S
H56 C43 0.931 . S
H57 C45 0.929 . S
O58 Tb59 2.292 . S
O58 C61 1.255 . S
Tb59 O58 2.292 . S
Tb59 O75 2.326 . S
Tb59 O77 2.500 . S
Tb59 O78 2.473 . S
Tb59 O81 2.324 . S
Eu60 O64 2.292 1_556 S
Eu60 C65 2.852 1_556 S
Eu60 O76 2.324 . S
Eu60 O80 2.326 . S
Eu60 O82 2.500 1_556 S
Eu60 O83 2.473 1_556 S
C61 O58 1.255 . S
C61 O62 1.247 . S
O62 C61 1.247 . S
C63 O75 1.242 . S
C63 O76 1.258 . S
O64 Eu60 2.292 1_554 S
O64 C66 1.255 1_554 S
C65 Eu60 2.852 1_554 S
C65 C69 1.503 . S
C65 O82 1.273 . S
C65 O83 1.257 . S
C66 O64 1.255 1_556 S
C66 O67 1.247 . S
O67 C66 1.247 . S
C68 O80 1.242 . S
C68 O81 1.258 . S
C69 C65 1.503 . S
C69 C70 1.379 . S
C69 C74 1.392 . S
C70 C69 1.379 . S
C70 C71 1.404 . S
C70 H84 0.929 . S
C71 C70 1.404 . S
C71 C72 1.389 . S
C72 C71 1.389 . S
C72 C73 1.399 . S
C72 H85 0.931 . S
C73 C72 1.399 . S
C73 C74 1.390 . S
C74 C69 1.392 . S
C74 C73 1.390 . S
C74 H86 0.929 . S
O75 Tb59 2.326 . S
O75 C63 1.242 . S
O76 Eu60 2.324 . S
O76 C63 1.258 . S
O77 Tb59 2.500 . S
O77 C79 1.273 . S
O78 Tb59 2.473 . S
O78 C79 1.257 . S
C79 O77 1.273 . S
C79 O78 1.257 . S
O80 Eu60 2.326 . S
O80 C68 1.242 . S
O81 Tb59 2.324 . S
O81 C68 1.258 . S
O82 Eu60 2.500 1_554 S
O82 C65 1.273 . S
O83 Eu60 2.473 1_554 S
O83 C65 1.257 . S
H84 C70 0.929 . S
H85 C72 0.931 . S
H86 C74 0.929 . S
O87 Tb88 2.292 . S
O87 C90 1.255 . S
Tb88 O87 2.292 . S
Tb88 O104 2.326 . S
Tb88 O106 2.500 . S
Tb88 O107 2.473 . S
Tb88 O110 2.324 . S
Eu89 O93 2.292 . S
Eu89 C94 2.852 . S
Eu89 O105 2.324 . S
Eu89 O109 2.326 . S
Eu89 O111 2.500 . S
Eu89 O112 2.473 . S
C90 O87 1.255 . S
C90 O91 1.247 . S
O91 C90 1.247 . S
C92 O104 1.242 . S
C92 O105 1.258 . S
O93 Eu89 2.292 . S
O93 C95 1.255 . S
C94 Eu89 2.852 . S
C94 C98 1.503 . S
C94 O111 1.273 . S
C94 O112 1.257 . S
C95 O93 1.255 . S
C95 O96 1.247 . S
O96 C95 1.247 . S
C97 O109 1.242 . S
C97 O110 1.258 . S
C98 C94 1.503 . S
C98 C99 1.379 . S
C98 C103 1.392 . S
C99 C98 1.379 . S
C99 C100 1.404 . S
C99 H113 0.929 . S
C100 C99 1.404 . S
C100 C101 1.389 . S
C101 C100 1.389 . S
C101 C102 1.399 . S
C101 H114 0.931 . S
C102 C101 1.399 . S
C102 C103 1.390 . S
C103 C98 1.392 . S
C103 C102 1.390 . S
C103 H115 0.929 . S
O104 Tb88 2.326 . S
O104 C92 1.242 . S
O105 Eu89 2.324 . S
O105 C92 1.258 . S
O106 Tb88 2.500 . S
O106 C108 1.273 . S
O107 Tb88 2.473 . S
O107 C108 1.257 . S
C108 O106 1.273 . S
C108 O107 1.257 . S
O109 Eu89 2.326 . S
O109 C97 1.242 . S
O110 Tb88 2.324 . S
O110 C97 1.258 . S
O111 Eu89 2.500 . S
O111 C94 1.273 . S
O112 Eu89 2.473 . S
O112 C94 1.257 . S
H113 C99 0.929 . S
H114 C101 0.931 . S
H115 C103 0.929 . S
O116 Tb117 2.292 . S
O116 C119 1.255 . S
Tb117 O116 2.292 . S
Tb117 O133 2.326 . S
Tb117 O135 2.500 . S
Tb117 O136 2.473 . S
Tb117 O139 2.324 . S
Eu118 O122 2.292 1_556 S
Eu118 C123 2.852 1_556 S
Eu118 O134 2.324 . S
Eu118 O138 2.326 . S
Eu118 O140 2.500 1_556 S
Eu118 O141 2.473 1_556 S
C119 O116 1.255 . S
C119 O120 1.247 . S
O120 C119 1.247 . S
C121 O133 1.242 . S
C121 O134 1.258 . S
O122 Eu118 2.292 1_554 S
O122 C124 1.255 1_554 S
C123 Eu118 2.852 1_554 S
C123 C127 1.503 . S
C123 O140 1.273 . S
C123 O141 1.257 . S
C124 O122 1.255 1_556 S
C124 O125 1.247 . S
O125 C124 1.247 . S
C126 O138 1.242 . S
C126 O139 1.258 . S
C127 C123 1.503 . S
C127 C128 1.379 . S
C127 C132 1.392 . S
C128 C127 1.379 . S
C128 C129 1.404 . S
C128 H142 0.929 . S
C129 C128 1.404 . S
C129 C130 1.389 . S
C130 C129 1.389 . S
C130 C131 1.399 . S
C130 H143 0.931 . S
C131 C130 1.399 . S
C131 C132 1.390 . S
C132 C127 1.392 . S
C132 C131 1.390 . S
C132 H144 0.929 . S
O133 Tb117 2.326 . S
O133 C121 1.242 . S
O134 Eu118 2.324 . S
O134 C121 1.258 . S
O135 Tb117 2.500 . S
O135 C137 1.273 . S
O136 Tb117 2.473 . S
O136 C137 1.257 . S
C137 O135 1.273 . S
C137 O136 1.257 . S
O138 Eu118 2.326 . S
O138 C126 1.242 . S
O139 Tb117 2.324 . S
O139 C126 1.258 . S
O140 Eu118 2.500 1_554 S
O140 C123 1.273 . S
O141 Eu118 2.473 1_554 S
O141 C123 1.257 . S
H142 C128 0.929 . S
H143 C130 0.931 . S
H144 C132 0.929 . S
O145 Tb146 2.292 . S
O145 C148 1.255 . S
Tb146 O145 2.292 . S
Tb146 O162 2.326 . S
Tb146 O164 2.500 . S
Tb146 O165 2.473 . S
Tb146 O168 2.324 . S
Eu147 O151 2.292 . S
Eu147 C152 2.852 . S
Eu147 O163 2.324 . S
Eu147 O167 2.326 . S
Eu147 O169 2.500 . S
Eu147 O170 2.473 . S
C148 O145 1.255 . S
C148 O149 1.247 . S
O149 C148 1.247 . S
C150 O162 1.242 . S
C150 O163 1.258 . S
O151 Eu147 2.292 . S
O151 C153 1.255 . S
C152 Eu147 2.852 . S
C152 C156 1.503 . S
C152 O169 1.273 . S
C152 O170 1.257 . S
C153 O151 1.255 . S
C153 O154 1.247 . S
O154 C153 1.247 . S
C155 O167 1.242 . S
C155 O168 1.258 . S
C156 C152 1.503 . S
C156 C157 1.379 . S
C156 C161 1.392 . S
C157 C156 1.379 . S
C157 C158 1.404 . S
C157 H171 0.929 . S
C158 C157 1.404 . S
C158 C159 1.389 . S
C159 C158 1.389 . S
C159 C160 1.399 . S
C159 H172 0.931 . S
C160 C159 1.399 . S
C160 C161 1.390 . S
C161 C156 1.392 . S
C161 C160 1.390 . S
C161 H173 0.929 . S
O162 Tb146 2.326 . S
O162 C150 1.242 . S
O163 Eu147 2.324 . S
O163 C150 1.258 . S
O164 Tb146 2.500 . S
O164 C166 1.273 . S
O165 Tb146 2.473 . S
O165 C166 1.257 . S
C166 O164 1.273 . S
C166 O165 1.257 . S
O167 Eu147 2.326 . S
O167 C155 1.242 . S
O168 Tb146 2.324 . S
O168 C155 1.258 . S
O169 Eu147 2.500 . S
O169 C152 1.273 . S
O170 Eu147 2.473 . S
O170 C152 1.257 . S
H171 C157 0.929 . S
H172 C159 0.931 . S
H173 C161 0.929 . S
O174 Tb175 2.292 . S
O174 C177 1.255 . S
Tb175 O174 2.292 . S
Tb175 O191 2.326 . S
Tb175 O193 2.500 . S
Tb175 O194 2.473 . S
Tb175 O197 2.324 . S
Eu176 O180 2.292 1_554 S
Eu176 C181 2.852 1_554 S
Eu176 O192 2.324 . S
Eu176 O196 2.326 . S
Eu176 O198 2.500 1_554 S
Eu176 O199 2.473 1_554 S
C177 O174 1.255 . S
C177 O178 1.247 . S
O178 C177 1.247 . S
C179 O191 1.242 . S
C179 O192 1.258 . S
O180 Eu176 2.292 1_556 S
O180 C182 1.255 1_556 S
C181 Eu176 2.852 1_556 S
C181 C185 1.503 . S
C181 O198 1.273 . S
C181 O199 1.257 . S
C182 O180 1.255 1_554 S
C182 O183 1.247 . S
O183 C182 1.247 . S
C184 O196 1.242 . S
C184 O197 1.258 . S
C185 C181 1.503 . S
C185 C186 1.379 . S
C185 C190 1.392 . S
C186 C185 1.379 . S
C186 C187 1.404 . S
C186 H200 0.929 . S
C187 C186 1.404 . S
C187 C188 1.389 . S
C188 C187 1.389 . S
C188 C189 1.399 . S
C188 H201 0.931 . S
C189 C188 1.399 . S
C189 C190 1.390 . S
C190 C185 1.392 . S
C190 C189 1.390 . S
C190 H202 0.929 . S
O191 Tb175 2.326 . S
O191 C179 1.242 . S
O192 Eu176 2.324 . S
O192 C179 1.258 . S
O193 Tb175 2.500 . S
O193 C195 1.273 . S
O194 Tb175 2.473 . S
O194 C195 1.257 . S
C195 O193 1.273 . S
C195 O194 1.257 . S
O196 Eu176 2.326 . S
O196 C184 1.242 . S
O197 Tb175 2.324 . S
O197 C184 1.258 . S
O198 Eu176 2.500 1_556 S
O198 C181 1.273 . S
O199 Eu176 2.473 1_556 S
O199 C181 1.257 . S
H200 C186 0.929 . S
H201 C188 0.931 . S
H202 C190 0.929 . S
O203 Tb204 2.292 . S
O203 C206 1.255 . S
Tb204 O203 2.292 . S
Tb204 O220 2.326 . S
Tb204 O222 2.500 . S
Tb204 O223 2.473 . S
Tb204 O226 2.324 . S
Eu205 O209 2.292 . S
Eu205 C210 2.852 . S
Eu205 O221 2.324 . S
Eu205 O225 2.326 . S
Eu205 O227 2.500 . S
Eu205 O228 2.473 . S
C206 O203 1.255 . S
C206 O207 1.247 . S
O207 C206 1.247 . S
C208 O220 1.242 . S
C208 O221 1.258 . S
O209 Eu205 2.292 . S
O209 C211 1.255 . S
C210 Eu205 2.852 . S
C210 C214 1.503 . S
C210 O227 1.273 . S
C210 O228 1.257 . S
C211 O209 1.255 . S
C211 O212 1.247 . S
O212 C211 1.247 . S
C213 O225 1.242 . S
C213 O226 1.258 . S
C214 C210 1.503 . S
C214 C215 1.379 . S
C214 C219 1.392 . S
C215 C214 1.379 . S
C215 C216 1.404 . S
C215 H229 0.929 . S
C216 C215 1.404 . S
C216 C217 1.389 . S
C217 C216 1.389 . S
C217 C218 1.399 . S
C217 H230 0.931 . S
C218 C217 1.399 . S
C218 C219 1.390 . S
C219 C214 1.392 . S
C219 C218 1.390 . S
C219 H231 0.929 . S
O220 Tb204 2.326 . S
O220 C208 1.242 . S
O221 Eu205 2.324 . S
O221 C208 1.258 . S
O222 Tb204 2.500 . S
O222 C224 1.273 . S
O223 Tb204 2.473 . S
O223 C224 1.257 . S
C224 O222 1.273 . S
C224 O223 1.257 . S
O225 Eu205 2.326 . S
O225 C213 1.242 . S
O226 Tb204 2.324 . S
O226 C213 1.258 . S
O227 Eu205 2.500 . S
O227 C210 1.273 . S
O228 Eu205 2.473 . S
O228 C210 1.257 . S
H229 C215 0.929 . S
H230 C217 0.931 . S
H231 C219 0.929 . S
O232 Tb233 2.292 . S
O232 C235 1.255 . S
Tb233 O232 2.292 . S
Tb233 O249 2.326 . S
Tb233 O251 2.500 . S
Tb233 O252 2.473 . S
Tb233 O255 2.324 . S
Eu234 O238 2.292 1_554 S
Eu234 C239 2.852 1_554 S
Eu234 O250 2.324 . S
Eu234 O254 2.326 . S
Eu234 O256 2.500 1_554 S
Eu234 O257 2.473 1_554 S
C235 O232 1.255 . S
C235 O236 1.247 . S
O236 C235 1.247 . S
C237 O249 1.242 . S
C237 O250 1.258 . S
O238 Eu234 2.292 1_556 S
O238 C240 1.255 1_556 S
C239 Eu234 2.852 1_556 S
C239 C243 1.503 . S
C239 O256 1.273 . S
C239 O257 1.257 . S
C240 O238 1.255 1_554 S
C240 O241 1.247 . S
O241 C240 1.247 . S
C242 O254 1.242 . S
C242 O255 1.258 . S
C243 C239 1.503 . S
C243 C244 1.379 . S
C243 C248 1.392 . S
C244 C243 1.379 . S
C244 C245 1.404 . S
C244 H258 0.929 . S
C245 C244 1.404 . S
C245 C246 1.389 . S
C246 C245 1.389 . S
C246 C247 1.399 . S
C246 H259 0.931 . S
C247 C246 1.399 . S
C247 C248 1.390 . S
C248 C243 1.392 . S
C248 C247 1.390 . S
C248 H260 0.929 . S
O249 Tb233 2.326 . S
O249 C237 1.242 . S
O250 Eu234 2.324 . S
O250 C237 1.258 . S
O251 Tb233 2.500 . S
O251 C253 1.273 . S
O252 Tb233 2.473 . S
O252 C253 1.257 . S
C253 O251 1.273 . S
C253 O252 1.257 . S
O254 Eu234 2.326 . S
O254 C242 1.242 . S
O255 Tb233 2.324 . S
O255 C242 1.258 . S
O256 Eu234 2.500 1_556 S
O256 C239 1.273 . S
O257 Eu234 2.473 1_556 S
O257 C239 1.257 . S
H258 C244 0.929 . S
H259 C246 0.931 . S
H260 C248 0.929 . S
O261 Tb262 2.292 . S
O261 C264 1.255 . S
Tb262 O261 2.292 . S
Tb262 O278 2.326 . S
Tb262 O280 2.500 . S
Tb262 O281 2.473 . S
Tb262 O284 2.324 . S
Eu263 O267 2.292 . S
Eu263 C268 2.852 . S
Eu263 O279 2.324 . S
Eu263 O283 2.326 . S
Eu263 O285 2.500 . S
Eu263 O286 2.473 . S
C264 O261 1.255 . S
C264 O265 1.247 . S
O265 C264 1.247 . S
C266 O278 1.242 . S
C266 O279 1.258 . S
O267 Eu263 2.292 . S
O267 C269 1.255 . S
C268 Eu263 2.852 . S
C268 C272 1.503 . S
C268 O285 1.273 . S
C268 O286 1.257 . S
C269 O267 1.255 . S
C269 O270 1.247 . S
O270 C269 1.247 . S
C271 O283 1.242 . S
C271 O284 1.258 . S
C272 C268 1.503 . S
C272 C273 1.379 . S
C272 C277 1.392 . S
C273 C272 1.379 . S
C273 C274 1.404 . S
C273 H287 0.929 . S
C274 C273 1.404 . S
C274 C275 1.389 . S
C275 C274 1.389 . S
C275 C276 1.399 . S
C275 H288 0.931 . S
C276 C275 1.399 . S
C276 C277 1.390 . S
C277 C272 1.392 . S
C277 C276 1.390 . S
C277 H289 0.929 . S
O278 Tb262 2.326 . S
O278 C266 1.242 . S
O279 Eu263 2.324 . S
O279 C266 1.258 . S
O280 Tb262 2.500 . S
O280 C282 1.273 . S
O281 Tb262 2.473 . S
O281 C282 1.257 . S
C282 O280 1.273 . S
C282 O281 1.257 . S
O283 Eu263 2.326 . S
O283 C271 1.242 . S
O284 Tb262 2.324 . S
O284 C271 1.258 . S
O285 Eu263 2.500 . S
O285 C268 1.273 . S
O286 Eu263 2.473 . S
O286 C268 1.257 . S
H287 C273 0.929 . S
H288 C275 0.931 . S
H289 C277 0.929 . S
O290 Tb291 2.292 . S
O290 C293 1.255 . S
Tb291 O290 2.292 . S
Tb291 O307 2.326 . S
Tb291 O309 2.500 . S
Tb291 O310 2.473 . S
Tb291 O313 2.324 . S
Eu292 O296 2.292 1_556 S
Eu292 C297 2.852 1_556 S
Eu292 O308 2.324 . S
Eu292 O312 2.326 . S
Eu292 O314 2.500 1_556 S
Eu292 O315 2.473 1_556 S
C293 O290 1.255 . S
C293 O294 1.247 . S
O294 C293 1.247 . S
C295 O307 1.242 . S
C295 O308 1.258 . S
O296 Eu292 2.292 1_554 S
O296 C298 1.255 1_554 S
C297 Eu292 2.852 1_554 S
C297 C301 1.503 . S
C297 O314 1.273 . S
C297 O315 1.257 . S
C298 O296 1.255 1_556 S
C298 O299 1.247 . S
O299 C298 1.247 . S
C300 O312 1.242 . S
C300 O313 1.258 . S
C301 C297 1.503 . S
C301 C302 1.379 . S
C301 C306 1.392 . S
C302 C301 1.379 . S
C302 C303 1.404 . S
C302 H316 0.929 . S
C303 C302 1.404 . S
C303 C304 1.389 . S
C304 C303 1.389 . S
C304 C305 1.399 . S
C304 H317 0.931 . S
C305 C304 1.399 . S
C305 C306 1.390 . S
C306 C301 1.392 . S
C306 C305 1.390 . S
C306 H318 0.929 . S
O307 Tb291 2.326 . S
O307 C295 1.242 . S
O308 Eu292 2.324 . S
O308 C295 1.258 . S
O309 Tb291 2.500 . S
O309 C311 1.273 . S
O310 Tb291 2.473 . S
O310 C311 1.257 . S
C311 O309 1.273 . S
C311 O310 1.257 . S
O312 Eu292 2.326 . S
O312 C300 1.242 . S
O313 Tb291 2.324 . S
O313 C300 1.258 . S
O314 Eu292 2.500 1_554 S
O314 C297 1.273 . S
O315 Eu292 2.473 1_554 S
O315 C297 1.257 . S
H316 C302 0.929 . S
H317 C304 0.931 . S
H318 C306 0.929 . S
O319 Tb320 2.292 . S
O319 C322 1.255 . S
Tb320 O319 2.292 . S
Tb320 O336 2.326 . S
Tb320 O338 2.500 . S
Tb320 O339 2.473 . S
Tb320 O342 2.324 . S
Eu321 O325 2.292 . S
Eu321 C326 2.852 . S
Eu321 O337 2.324 . S
Eu321 O341 2.326 . S
Eu321 O343 2.500 . S
Eu321 O344 2.473 . S
C322 O319 1.255 . S
C322 O323 1.247 . S
O323 C322 1.247 . S
C324 O336 1.242 . S
C324 O337 1.258 . S
O325 Eu321 2.292 . S
O325 C327 1.255 . S
C326 Eu321 2.852 . S
C326 C330 1.503 . S
C326 O343 1.273 . S
C326 O344 1.257 . S
C327 O325 1.255 . S
C327 O328 1.247 . S
O328 C327 1.247 . S
C329 O341 1.242 . S
C329 O342 1.258 . S
C330 C326 1.503 . S
C330 C331 1.379 . S
C330 C335 1.392 . S
C331 C330 1.379 . S
C331 C332 1.404 . S
C331 H345 0.929 . S
C332 C331 1.404 . S
C332 C333 1.389 . S
C333 C332 1.389 . S
C333 C334 1.399 . S
C333 H346 0.931 . S
C334 C333 1.399 . S
C334 C335 1.390 . S
C335 C330 1.392 . S
C335 C334 1.390 . S
C335 H347 0.929 . S
O336 Tb320 2.326 . S
O336 C324 1.242 . S
O337 Eu321 2.324 . S
O337 C324 1.258 . S
O338 Tb320 2.500 . S
O338 C340 1.273 . S
O339 Tb320 2.473 . S
O339 C340 1.257 . S
C340 O338 1.273 . S
C340 O339 1.257 . S
O341 Eu321 2.326 . S
O341 C329 1.242 . S
O342 Tb320 2.324 . S
O342 C329 1.258 . S
O343 Eu321 2.500 . S
O343 C326 1.273 . S
O344 Eu321 2.473 . S
O344 C326 1.257 . S
H345 C331 0.929 . S
H346 C333 0.931 . S
H347 C335 0.929 . S
O348 Tb349 2.292 . S
O348 C351 1.255 . S
Tb349 O348 2.292 . S
Tb349 O365 2.326 . S
Tb349 O367 2.500 . S
Tb349 O368 2.473 . S
Tb349 O371 2.324 . S
Eu350 O354 2.292 1_556 S
Eu350 C355 2.852 1_556 S
Eu350 O366 2.324 . S
Eu350 O370 2.326 . S
Eu350 O372 2.500 1_556 S
Eu350 O373 2.473 1_556 S
C351 O348 1.255 . S
C351 O352 1.247 . S
O352 C351 1.247 . S
C353 O365 1.242 . S
C353 O366 1.258 . S
O354 Eu350 2.292 1_554 S
O354 C356 1.255 1_554 S
C355 Eu350 2.852 1_554 S
C355 C359 1.503 . S
C355 O372 1.273 . S
C355 O373 1.257 . S
C356 O354 1.255 1_556 S
C356 O357 1.247 . S
O357 C356 1.247 . S
C358 O370 1.242 . S
C358 O371 1.258 . S
C359 C355 1.503 . S
C359 C360 1.379 . S
C359 C364 1.392 . S
C360 C359 1.379 . S
C360 C361 1.404 . S
C360 H374 0.929 . S
C361 C360 1.404 . S
C361 C362 1.389 . S
C362 C361 1.389 . S
C362 C363 1.399 . S
C362 H375 0.931 . S
C363 C362 1.399 . S
C363 C364 1.390 . S
C364 C359 1.392 . S
C364 C363 1.390 . S
C364 H376 0.929 . S
O365 Tb349 2.326 . S
O365 C353 1.242 . S
O366 Eu350 2.324 . S
O366 C353 1.258 . S
O367 Tb349 2.500 . S
O367 C369 1.273 . S
O368 Tb349 2.473 . S
O368 C369 1.257 . S
C369 O367 1.273 . S
C369 O368 1.257 . S
O370 Eu350 2.326 . S
O370 C358 1.242 . S
O371 Tb349 2.324 . S
O371 C358 1.258 . S
O372 Eu350 2.500 1_554 S
O372 C355 1.273 . S
O373 Eu350 2.473 1_554 S
O373 C355 1.257 . S
H374 C360 0.929 . S
H375 C362 0.931 . S
H376 C364 0.929 . S
O377 Tb378 2.292 . S
O377 C380 1.255 . S
Tb378 O377 2.292 . S
Tb378 O394 2.326 . S
Tb378 O396 2.500 . S
Tb378 O397 2.473 . S
Tb378 O400 2.324 . S
Eu379 O383 2.292 . S
Eu379 C384 2.852 . S
Eu379 O395 2.324 . S
Eu379 O399 2.326 . S
Eu379 O401 2.500 . S
Eu379 O402 2.473 . S
C380 O377 1.255 . S
C380 O381 1.247 . S
O381 C380 1.247 . S
C382 O394 1.242 . S
C382 O395 1.258 . S
O383 Eu379 2.292 . S
O383 C385 1.255 . S
C384 Eu379 2.852 . S
C384 C388 1.503 . S
C384 O401 1.273 . S
C384 O402 1.257 . S
C385 O383 1.255 . S
C385 O386 1.247 . S
O386 C385 1.247 . S
C387 O399 1.242 . S
C387 O400 1.258 . S
C388 C384 1.503 . S
C388 C389 1.379 . S
C388 C393 1.392 . S
C389 C388 1.379 . S
C389 C390 1.404 . S
C389 H403 0.929 . S
C390 C389 1.404 . S
C390 C391 1.389 . S
C391 C390 1.389 . S
C391 C392 1.399 . S
C391 H404 0.931 . S
C392 C391 1.399 . S
C392 C393 1.390 . S
C393 C388 1.392 . S
C393 C392 1.390 . S
C393 H405 0.929 . S
O394 Tb378 2.326 . S
O394 C382 1.242 . S
O395 Eu379 2.324 . S
O395 C382 1.258 . S
O396 Tb378 2.500 . S
O396 C398 1.273 . S
O397 Tb378 2.473 . S
O397 C398 1.257 . S
C398 O396 1.273 . S
C398 O397 1.257 . S
O399 Eu379 2.326 . S
O399 C387 1.242 . S
O400 Tb378 2.324 . S
O400 C387 1.258 . S
O401 Eu379 2.500 . S
O401 C384 1.273 . S
O402 Eu379 2.473 . S
O402 C384 1.257 . S
H403 C389 0.929 . S
H404 C391 0.931 . S
H405 C393 0.929 . S
O406 Tb407 2.292 . S
O406 C409 1.255 . S
Tb407 O406 2.292 . S
Tb407 O423 2.326 . S
Tb407 O425 2.500 . S
Tb407 O426 2.473 . S
Tb407 O429 2.324 . S
Eu408 O412 2.292 1_554 S
Eu408 C413 2.852 1_554 S
Eu408 O424 2.324 . S
Eu408 O428 2.326 . S
Eu408 O430 2.500 1_554 S
Eu408 O431 2.473 1_554 S
C409 O406 1.255 . S
C409 O410 1.247 . S
O410 C409 1.247 . S
C411 O423 1.242 . S
C411 O424 1.258 . S
O412 Eu408 2.292 1_556 S
O412 C414 1.255 1_556 S
C413 Eu408 2.852 1_556 S
C413 C417 1.503 . S
C413 O430 1.273 . S
C413 O431 1.257 . S
C414 O412 1.255 1_554 S
C414 O415 1.247 . S
O415 C414 1.247 . S
C416 O428 1.242 . S
C416 O429 1.258 . S
C417 C413 1.503 . S
C417 C418 1.379 . S
C417 C422 1.392 . S
C418 C417 1.379 . S
C418 C419 1.404 . S
C418 H432 0.929 . S
C419 C418 1.404 . S
C419 C420 1.389 . S
C420 C419 1.389 . S
C420 C421 1.399 . S
C420 H433 0.931 . S
C421 C420 1.399 . S
C421 C422 1.390 . S
C422 C417 1.392 . S
C422 C421 1.390 . S
C422 H434 0.929 . S
O423 Tb407 2.326 . S
O423 C411 1.242 . S
O424 Eu408 2.324 . S
O424 C411 1.258 . S
O425 Tb407 2.500 . S
O425 C427 1.273 . S
O426 Tb407 2.473 . S
O426 C427 1.257 . S
C427 O425 1.273 . S
C427 O426 1.257 . S
O428 Eu408 2.326 . S
O428 C416 1.242 . S
O429 Tb407 2.324 . S
O429 C416 1.258 . S
O430 Eu408 2.500 1_556 S
O430 C413 1.273 . S
O431 Eu408 2.473 1_556 S
O431 C413 1.257 . S
H432 C418 0.929 . S
H433 C420 0.931 . S
H434 C422 0.929 . S
O435 Tb436 2.292 . S
O435 C438 1.255 . S
Tb436 O435 2.292 . S
Tb436 O452 2.326 . S
Tb436 O454 2.500 . S
Tb436 O455 2.473 . S
Tb436 O458 2.324 . S
Eu437 O441 2.292 . S
Eu437 C442 2.852 . S
Eu437 O453 2.324 . S
Eu437 O457 2.326 . S
Eu437 O459 2.500 . S
Eu437 O460 2.473 . S
C438 O435 1.255 . S
C438 O439 1.247 . S
O439 C438 1.247 . S
C440 O452 1.242 . S
C440 O453 1.258 . S
O441 Eu437 2.292 . S
O441 C443 1.255 . S
C442 Eu437 2.852 . S
C442 C446 1.503 . S
C442 O459 1.273 . S
C442 O460 1.257 . S
C443 O441 1.255 . S
C443 O444 1.247 . S
O444 C443 1.247 . S
C445 O457 1.242 . S
C445 O458 1.258 . S
C446 C442 1.503 . S
C446 C447 1.379 . S
C446 C451 1.392 . S
C447 C446 1.379 . S
C447 C448 1.404 . S
C447 H461 0.929 . S
C448 C447 1.404 . S
C448 C449 1.389 . S
C449 C448 1.389 . S
C449 C450 1.399 . S
C449 H462 0.931 . S
C450 C449 1.399 . S
C450 C451 1.390 . S
C451 C446 1.392 . S
C451 C450 1.390 . S
C451 H463 0.929 . S
O452 Tb436 2.326 . S
O452 C440 1.242 . S
O453 Eu437 2.324 . S
O453 C440 1.258 . S
O454 Tb436 2.500 . S
O454 C456 1.273 . S
O455 Tb436 2.473 . S
O455 C456 1.257 . S
C456 O454 1.273 . S
C456 O455 1.257 . S
O457 Eu437 2.326 . S
O457 C445 1.242 . S
O458 Tb436 2.324 . S
O458 C445 1.258 . S
O459 Eu437 2.500 . S
O459 C442 1.273 . S
O460 Eu437 2.473 . S
O460 C442 1.257 . S
H461 C447 0.929 . S
H462 C449 0.931 . S
H463 C451 0.929 . S
H464 C470 0.930 . S
H465 C473 0.930 . S
H466 C474 0.930 . S
H467 C475 0.930 . S
H468 C478 0.930 . S
H469 C479 0.930 . S
C470 H464 0.930 . S
C470 C471 1.355 1_556 S
C470 C472 1.415 . S
C471 C470 1.355 1_554 S
C471 C473 1.419 . S
C472 C470 1.415 . S
C472 C477 1.425 1_656 S
C472 C479 1.409 1_655 S
C473 H465 0.930 . S
C473 C471 1.419 . S
C473 C474 1.362 . S
C474 H466 0.930 . S
C474 C473 1.362 . S
C474 C477 1.409 1_655 S
C475 H467 0.930 . S
C475 C476 1.355 . S
C475 C477 1.415 . S
C476 C475 1.355 . S
C476 C478 1.419 1_554 S
C477 C472 1.425 1_454 S
C477 C474 1.409 1_455 S
C477 C475 1.415 . S
C478 H468 0.930 . S
C478 C476 1.419 1_556 S
C478 C479 1.362 . S
C479 H469 0.930 . S
C479 C472 1.409 1_455 S
C479 C478 1.362 . S
H480 C486 0.930 . S
H481 C489 0.930 . S
H482 C490 0.930 . S
H483 C491 0.930 . S
H484 C494 0.930 . S
H485 C495 0.930 . S
C486 H480 0.930 . S
C486 C487 1.355 . S
C486 C488 1.415 . S
C487 C486 1.355 . S
C487 C489 1.419 . S
C488 C486 1.415 . S
C488 C493 1.425 . S
C488 C495 1.409 . S
C489 H481 0.930 . S
C489 C487 1.419 . S
C489 C490 1.362 . S
C490 H482 0.930 . S
C490 C489 1.362 . S
C490 C493 1.409 . S
C491 H483 0.930 . S
C491 C492 1.355 . S
C491 C493 1.415 . S
C492 C491 1.355 . S
C492 C494 1.419 . S
C493 C488 1.425 . S
C493 C490 1.409 . S
C493 C491 1.415 . S
C494 H484 0.930 . S
C494 C492 1.419 . S
C494 C495 1.362 . S
C495 H485 0.930 . S
C495 C488 1.409 . S
C495 C494 1.362 . S
H496 C502 0.930 . S
H497 C505 0.930 . S
H498 C506 0.930 . S
H499 C507 0.930 . S
H500 C510 0.930 . S
H501 C511 0.930 . S
C502 H496 0.930 . S
C502 C503 1.355 . S
C502 C504 1.415 . S
C503 C502 1.355 . S
C503 C505 1.419 1_556 S
C504 C502 1.415 . S
C504 C509 1.425 1_656 S
C504 C511 1.409 1_655 S
C505 H497 0.930 . S
C505 C503 1.419 1_554 S
C505 C506 1.362 . S
C506 H498 0.930 . S
C506 C505 1.362 . S
C506 C509 1.409 1_655 S
C507 H499 0.930 . S
C507 C508 1.355 1_554 S
C507 C509 1.415 . S
C508 C507 1.355 1_556 S
C508 C510 1.419 . S
C509 C504 1.425 1_454 S
C509 C506 1.409 1_455 S
C509 C507 1.415 . S
C510 H500 0.930 . S
C510 C508 1.419 . S
C510 C511 1.362 . S
C511 H501 0.930 . S
C511 C504 1.409 1_455 S
C511 C510 1.362 . S
H512 C518 0.930 . S
H513 C521 0.930 . S
H514 C522 0.930 . S
H515 C523 0.930 . S
H516 C526 0.930 . S
H517 C527 0.930 . S
C518 H512 0.930 . S
C518 C519 1.355 . S
C518 C520 1.415 . S
C519 C518 1.355 . S
C519 C521 1.419 . S
C520 C518 1.415 . S
C520 C525 1.425 . S
C520 C527 1.409 . S
C521 H513 0.930 . S
C521 C519 1.419 . S
C521 C522 1.362 . S
C522 H514 0.930 . S
C522 C521 1.362 . S
C522 C525 1.409 . S
C523 H515 0.930 . S
C523 C524 1.355 . S
C523 C525 1.415 . S
C524 C523 1.355 . S
C524 C526 1.419 . S
C525 C520 1.425 . S
C525 C522 1.409 . S
C525 C523 1.415 . S
C526 H516 0.930 . S
C526 C524 1.419 . S
C526 C527 1.362 . S
C527 H517 0.930 . S
C527 C520 1.409 . S
C527 C526 1.362 . S
H528 C534 0.930 . S
H529 C537 0.930 . S
H530 C538 0.930 . S
H531 C539 0.930 . S
H532 C542 0.930 . S
H533 C543 0.930 . S
C534 H528 0.930 . S
C534 C535 1.355 . S
C534 C536 1.415 . S
C535 C534 1.355 . S
C535 C537 1.419 1_554 S
C536 C534 1.415 . S
C536 C541 1.425 1_554 S
C536 C543 1.409 . S
C537 H529 0.930 . S
C537 C535 1.419 1_556 S
C537 C538 1.362 . S
C538 H530 0.930 . S
C538 C537 1.362 . S
C538 C541 1.409 . S
C539 H531 0.930 . S
C539 C540 1.355 1_556 S
C539 C541 1.415 . S
C540 C539 1.355 1_554 S
C540 C542 1.419 . S
C541 C536 1.425 1_556 S
C541 C538 1.409 . S
C541 C539 1.415 . S
C542 H532 0.930 . S
C542 C540 1.419 . S
C542 C543 1.362 . S
C543 H533 0.930 . S
C543 C536 1.409 . S
C543 C542 1.362 . S
H544 C550 0.930 . S
H545 C553 0.930 . S
H546 C554 0.930 . S
H547 C555 0.930 . S
H548 C558 0.930 . S
H549 C559 0.930 . S
C550 H544 0.930 . S
C550 C551 1.355 . S
C550 C552 1.415 . S
C551 C550 1.355 . S
C551 C553 1.419 . S
C552 C550 1.415 . S
C552 C557 1.425 1_455 S
C552 C559 1.409 1_455 S
C553 H545 0.930 . S
C553 C551 1.419 . S
C553 C554 1.362 . S
C554 H546 0.930 . S
C554 C553 1.362 . S
C554 C557 1.409 1_455 S
C555 H547 0.930 . S
C555 C556 1.355 . S
C555 C557 1.415 . S
C556 C555 1.355 . S
C556 C558 1.419 . S
C557 C552 1.425 1_655 S
C557 C554 1.409 1_655 S
C557 C555 1.415 . S
C558 H548 0.930 . S
C558 C556 1.419 . S
C558 C559 1.362 . S
C559 H549 0.930 . S
C559 C552 1.409 1_655 S
C559 C558 1.362 . S
H560 C566 0.930 . S
H561 C569 0.930 . S
H562 C570 0.930 . S
H563 C571 0.930 . S
H564 C574 0.930 . S
H565 C575 0.930 . S
C566 H560 0.930 . S
C566 C567 1.355 . S
C566 C568 1.415 . S
C567 C566 1.355 . S
C567 C569 1.419 1_556 S
C568 C566 1.415 . S
C568 C573 1.429 . S
C568 C575 1.409 . S
C569 H561 0.930 . S
C569 C567 1.419 1_554 S
C569 C570 1.362 . S
C570 H562 0.930 . S
C570 C569 1.362 . S
C570 C573 1.407 1_554 S
C571 H563 0.930 . S
C571 C572 1.355 1_554 S
C571 C573 1.414 1_554 S
C572 C571 1.355 1_556 S
C572 C574 1.419 . S
C573 C568 1.429 . S
C573 C570 1.407 1_556 S
C573 C571 1.414 1_556 S
C574 H564 0.930 . S
C574 C572 1.419 . S
C574 C575 1.362 . S
C575 H565 0.930 . S
C575 C568 1.409 . S
C575 C574 1.362 . S
H576 C582 0.930 . S
H577 C585 0.930 . S
H578 C586 0.930 . S
H579 C587 0.930 . S
H580 C590 0.930 . S
H581 C591 0.930 . S
C582 H576 0.930 . S
C582 C583 1.355 . S
C582 C584 1.415 . S
C583 C582 1.355 . S
C583 C585 1.419 . S
C584 C582 1.415 . S
C584 C589 1.425 1_455 S
C584 C591 1.409 1_455 S
C585 H577 0.930 . S
C585 C583 1.419 . S
C585 C586 1.362 . S
C586 H578 0.930 . S
C586 C585 1.362 . S
C586 C589 1.409 1_455 S
C587 H579 0.930 . S
C587 C588 1.355 . S
C587 C589 1.415 . S
C588 C587 1.355 . S
C588 C590 1.419 . S
C589 C584 1.425 1_655 S
C589 C586 1.409 1_655 S
C589 C587 1.415 . S
C590 H580 0.930 . S
C590 C588 1.419 . S
C590 C591 1.362 . S
C591 H581 0.930 . S
C591 C584 1.409 1_655 S
C591 C590 1.362 . S
H592 C598 0.930 . S
H593 C601 0.930 . S
H594 C602 0.930 . S
H595 C603 0.930 . S
H596 C606 0.930 . S
H597 C607 0.930 . S
C598 H592 0.930 . S
C598 C599 1.355 . S
C598 C600 1.415 . S
C599 C598 1.355 . S
C599 C601 1.419 . S
C600 C598 1.415 . S
C600 C605 1.425 . S
C600 C607 1.409 . S
C601 H593 0.930 . S
C601 C599 1.419 . S
C601 C602 1.362 . S
C602 H594 0.930 . S
C602 C601 1.362 . S
C602 C605 1.409 . S
C603 H595 0.930 . S
C603 C604 1.355 . S
C603 C605 1.415 . S
C604 C603 1.355 . S
C604 C606 1.419 . S
C605 C600 1.425 . S
C605 C602 1.409 . S
C605 C603 1.415 . S
C606 H596 0.930 . S
C606 C604 1.419 . S
C606 C607 1.362 . S
C607 H597 0.930 . S
C607 C600 1.409 . S
C607 C606 1.362 . S
H608 C614 0.930 . S
H609 C617 0.930 . S
H610 C618 0.930 . S
H611 C619 0.930 . S
H612 C622 0.930 . S
H613 C623 0.930 . S
C614 H608 0.930 . S
C614 C615 1.355 . S
C614 C616 1.415 . S
C615 C614 1.355 . S
C615 C617 1.419 . S
C616 C614 1.415 . S
C616 C621 1.425 . S
C616 C623 1.409 . S
C617 H609 0.930 . S
C617 C615 1.419 . S
C617 C618 1.362 . S
C618 H610 0.930 . S
C618 C617 1.362 . S
C618 C621 1.409 . S
C619 H611 0.930 . S
C619 C620 1.355 . S
C619 C621 1.415 . S
C620 C619 1.355 . S
C620 C622 1.419 . S
C621 C616 1.425 . S
C621 C618 1.409 . S
C621 C619 1.415 . S
C622 H612 0.930 . S
C622 C620 1.419 . S
C622 C623 1.362 . S
C623 H613 0.930 . S
C623 C616 1.409 . S
C623 C622 1.362 . S
H624 C630 0.930 . S
H625 C633 0.930 . S
H626 C634 0.930 . S
H627 C635 0.930 . S
H628 C638 0.930 . S
H629 C639 0.930 . S
C630 H624 0.930 . S
C630 C631 1.355 . S
C630 C632 1.415 . S
C631 C630 1.355 . S
C631 C633 1.419 . S
C632 C630 1.415 . S
C632 C637 1.425 . S
C632 C639 1.409 . S
C633 H625 0.930 . S
C633 C631 1.419 . S
C633 C634 1.362 . S
C634 H626 0.930 . S
C634 C633 1.362 . S
C634 C637 1.409 . S
C635 H627 0.930 . S
C635 C636 1.355 . S
C635 C637 1.415 . S
C636 C635 1.355 . S
C636 C638 1.419 . S
C637 C632 1.425 . S
C637 C634 1.409 . S
C637 C635 1.415 . S
C638 H628 0.930 . S
C638 C636 1.419 . S
C638 C639 1.362 . S
C639 H629 0.930 . S
C639 C632 1.409 . S
C639 C638 1.362 . S
H640 C646 0.930 . S
H641 C649 0.930 . S
H642 C650 0.930 . S
H643 C651 0.930 . S
H644 C654 0.930 . S
H645 C655 0.930 . S
C646 H640 0.930 . S
C646 C647 1.355 . S
C646 C648 1.415 . S
C647 C646 1.355 . S
C647 C649 1.419 . S
C648 C646 1.415 . S
C648 C653 1.425 . S
C648 C655 1.409 . S
C649 H641 0.930 . S
C649 C647 1.419 . S
C649 C650 1.362 . S
C650 H642 0.930 . S
C650 C649 1.362 . S
C650 C653 1.409 . S
C651 H643 0.930 . S
C651 C652 1.355 . S
C651 C653 1.415 . S
C652 C651 1.355 . S
C652 C654 1.419 . S
C653 C648 1.425 . S
C653 C650 1.409 . S
C653 C651 1.415 . S
C654 H644 0.930 . S
C654 C652 1.419 . S
C654 C655 1.362 . S
C655 H645 0.930 . S
C655 C648 1.409 . S
C655 C654 1.362 . S
H656 C662 0.930 . S
H657 C665 0.930 . S
H658 C666 0.930 . S
H659 C667 0.930 . S
H660 C670 0.930 . S
H661 C671 0.930 . S
C662 H656 0.930 . S
C662 C663 1.355 . S
C662 C664 1.415 . S
C663 C662 1.355 . S
C663 C665 1.419 . S
C664 C662 1.415 . S
C664 C669 1.425 . S
C664 C671 1.409 . S
C665 H657 0.930 . S
C665 C663 1.419 . S
C665 C666 1.362 . S
C666 H658 0.930 . S
C666 C665 1.362 . S
C666 C669 1.409 . S
C667 H659 0.930 . S
C667 C668 1.355 . S
C667 C669 1.415 . S
C668 C667 1.355 . S
C668 C670 1.419 . S
C669 C664 1.425 . S
C669 C666 1.409 . S
C669 C667 1.415 . S
C670 H660 0.930 . S
C670 C668 1.419 . S
C670 C671 1.362 . S
C671 H661 0.930 . S
C671 C664 1.409 . S
C671 C670 1.362 . S
H672 C678 0.930 . S
H673 C681 0.930 . S
H674 C682 0.930 . S
H675 C683 0.930 . S
H676 C686 0.930 . S
H677 C687 0.930 . S
C678 H672 0.930 . S
C678 C679 1.355 . S
C678 C680 1.415 . S
C679 C678 1.355 . S
C679 C681 1.419 . S
C680 C678 1.415 . S
C680 C685 1.425 . S
C680 C687 1.409 . S
C681 H673 0.930 . S
C681 C679 1.419 . S
C681 C682 1.362 . S
C682 H674 0.930 . S
C682 C681 1.362 . S
C682 C685 1.409 . S
C683 H675 0.930 . S
C683 C684 1.355 . S
C683 C685 1.415 . S
C684 C683 1.355 . S
C684 C686 1.419 . S
C685 C680 1.425 . S
C685 C682 1.409 . S
C685 C683 1.415 . S
C686 H676 0.930 . S
C686 C684 1.419 . S
C686 C687 1.362 . S
C687 H677 0.930 . S
C687 C680 1.409 . S
C687 C686 1.362 . S
H688 C694 0.930 . S
H689 C697 0.930 . S
H690 C698 0.930 . S
H691 C699 0.930 . S
H692 C702 0.930 . S
H693 C703 0.930 . S
C694 H688 0.930 . S
C694 C695 1.355 . S
C694 C696 1.415 . S
C695 C694 1.355 . S
C695 C697 1.419 . S
C696 C694 1.415 . S
C696 C701 1.425 . S
C696 C703 1.409 . S
C697 H689 0.930 . S
C697 C695 1.419 . S
C697 C698 1.362 . S
C698 H690 0.930 . S
C698 C697 1.362 . S
C698 C701 1.409 . S
C699 H691 0.930 . S
C699 C700 1.355 . S
C699 C701 1.415 . S
C700 C699 1.355 . S
C700 C702 1.419 . S
C701 C696 1.425 . S
C701 C698 1.409 . S
C701 C699 1.415 . S
C702 H692 0.930 . S
C702 C700 1.419 . S
C702 C703 1.362 . S
C703 H693 0.930 . S
C703 C696 1.409 . S
C703 C702 1.362 . S
H704 C710 0.930 . S
H705 C713 0.930 . S
H706 C714 0.930 . S
H707 C715 0.930 . S
H708 C718 0.930 . S
H709 C719 0.930 . S
C710 H704 0.930 . S
C710 C711 1.355 . S
C710 C712 1.415 . S
C711 C710 1.355 . S
C711 C713 1.419 . S
C712 C710 1.415 . S
C712 C717 1.425 . S
C712 C719 1.409 . S
C713 H705 0.930 . S
C713 C711 1.419 . S
C713 C714 1.362 . S
C714 H706 0.930 . S
C714 C713 1.362 . S
C714 C717 1.409 . S
C715 H707 0.930 . S
C715 C716 1.355 . S
C715 C717 1.415 . S
C716 C715 1.355 . S
C716 C718 1.419 . S
C717 C712 1.425 . S
C717 C714 1.409 . S
C717 C715 1.415 . S
C718 H708 0.930 . S
C718 C716 1.419 . S
C718 C719 1.362 . S
C719 H709 0.930 . S
C719 C712 1.409 . S
C719 C718 1.362 . S
H720 C726 0.930 . S
H721 C729 0.930 . S
H722 C730 0.930 . S
H723 C731 0.930 . S
H724 C734 0.930 . S
H725 C735 0.930 . S
C726 H720 0.930 . S
C726 C727 1.355 . S
C726 C728 1.415 . S
C727 C726 1.355 . S
C727 C729 1.419 . S
C728 C726 1.415 . S
C728 C733 1.425 . S
C728 C735 1.409 . S
C729 H721 0.930 . S
C729 C727 1.419 . S
C729 C730 1.362 . S
C730 H722 0.930 . S
C730 C729 1.362 . S
C730 C733 1.409 . S
C731 H723 0.930 . S
C731 C732 1.355 . S
C731 C733 1.415 . S
C732 C731 1.355 . S
C732 C734 1.419 . S
C733 C728 1.425 . S
C733 C730 1.409 . S
C733 C731 1.415 . S
C734 H724 0.930 . S
C734 C732 1.419 . S
C734 C735 1.362 . S
C735 H725 0.930 . S
C735 C728 1.409 . S
C735 C734 1.362 . S
H736 C742 0.930 . S
H737 C745 0.930 . S
H738 C746 0.930 . S
H739 C747 0.930 . S
H740 C750 0.930 . S
H741 C751 0.930 . S
C742 H736 0.930 . S
C742 C743 1.355 . S
C742 C744 1.415 . S
C743 C742 1.355 . S
C743 C745 1.419 . S
C744 C742 1.415 . S
C744 C749 1.425 . S
C744 C751 1.409 . S
C745 H737 0.930 . S
C745 C743 1.419 . S
C745 C746 1.362 . S
C746 H738 0.930 . S
C746 C745 1.362 . S
C746 C749 1.409 . S
C747 H739 0.930 . S
C747 C748 1.355 . S
C747 C749 1.415 . S
C748 C747 1.355 . S
C748 C750 1.419 . S
C749 C744 1.425 . S
C749 C746 1.409 . S
C749 C747 1.415 . S
C750 H740 0.930 . S
C750 C748 1.419 . S
C750 C751 1.362 . S
C751 H741 0.930 . S
C751 C744 1.409 . S
C751 C750 1.362 . S
H752 C758 0.930 . S
H753 C761 0.930 . S
H754 C762 0.930 . S
H755 C763 0.930 . S
H756 C766 0.930 . S
H757 C767 0.930 . S
C758 H752 0.930 . S
C758 C759 1.355 . S
C758 C760 1.415 . S
C759 C758 1.355 . S
C759 C761 1.419 . S
C760 C758 1.415 . S
C760 C765 1.425 . S
C760 C767 1.409 . S
C761 H753 0.930 . S
C761 C759 1.419 . S
C761 C762 1.362 . S
C762 H754 0.930 . S
C762 C761 1.362 . S
C762 C765 1.409 . S
C763 H755 0.930 . S
C763 C764 1.355 . S
C763 C765 1.415 . S
C764 C763 1.355 . S
C764 C766 1.419 . S
C765 C760 1.425 . S
C765 C762 1.409 . S
C765 C763 1.415 . S
C766 H756 0.930 . S
C766 C764 1.419 . S
C766 C767 1.362 . S
C767 H757 0.930 . S
C767 C760 1.409 . S
C767 C766 1.362 . S
H768 C774 0.930 . S
H769 C777 0.930 . S
H770 C778 0.930 . S
H771 C779 0.930 . S
H772 C782 0.930 . S
H773 C783 0.930 . S
C774 H768 0.930 . S
C774 C775 1.355 . S
C774 C776 1.415 . S
C775 C774 1.355 . S
C775 C777 1.419 . S
C776 C774 1.415 . S
C776 C781 1.425 . S
C776 C783 1.409 . S
C777 H769 0.930 . S
C777 C775 1.419 . S
C777 C778 1.362 . S
C778 H770 0.930 . S
C778 C777 1.362 . S
C778 C781 1.409 . S
C779 H771 0.930 . S
C779 C780 1.355 . S
C779 C781 1.415 . S
C780 C779 1.355 . S
C780 C782 1.419 . S
C781 C776 1.425 . S
C781 C778 1.409 . S
C781 C779 1.415 . S
C782 H772 0.930 . S
C782 C780 1.419 . S
C782 C783 1.362 . S
C783 H773 0.930 . S
C783 C776 1.409 . S
C783 C782 1.362 . S
H784 C790 0.930 . S
H785 C793 0.930 . S
H786 C794 0.930 . S
H787 C795 0.930 . S
H788 C798 0.930 . S
H789 C799 0.930 . S
C790 H784 0.930 . S
C790 C791 1.355 . S
C790 C792 1.415 . S
C791 C790 1.355 . S
C791 C793 1.419 . S
C792 C790 1.415 . S
C792 C797 1.425 . S
C792 C799 1.409 . S
C793 H785 0.930 . S
C793 C791 1.419 . S
C793 C794 1.362 . S
C794 H786 0.930 . S
C794 C793 1.362 . S
C794 C797 1.409 . S
C795 H787 0.930 . S
C795 C796 1.355 . S
C795 C797 1.415 . S
C796 C795 1.355 . S
C796 C798 1.419 . S
C797 C792 1.425 . S
C797 C794 1.409 . S
C797 C795 1.415 . S
C798 H788 0.930 . S
C798 C796 1.419 . S
C798 C799 1.362 . S
C799 H789 0.930 . S
C799 C792 1.409 . S
C799 C798 1.362 . S
H800 C806 0.930 . S
H801 C809 0.930 . S
H802 C810 0.930 . S
H803 C811 0.930 . S
H804 C814 0.930 . S
H805 C815 0.930 . S
C806 H800 0.930 . S
C806 C807 1.355 . S
C806 C808 1.415 . S
C807 C806 1.355 . S
C807 C809 1.419 . S
C808 C806 1.415 . S
C808 C813 1.425 . S
C808 C815 1.409 . S
C809 H801 0.930 . S
C809 C807 1.419 . S
C809 C810 1.362 . S
C810 H802 0.930 . S
C810 C809 1.362 . S
C810 C813 1.409 . S
C811 H803 0.930 . S
C811 C812 1.355 . S
C811 C813 1.415 . S
C812 C811 1.355 . S
C812 C814 1.419 . S
C813 C808 1.425 . S
C813 C810 1.409 . S
C813 C811 1.415 . S
C814 H804 0.930 . S
C814 C812 1.419 . S
C814 C815 1.362 . S
C815 H805 0.930 . S
C815 C808 1.409 . S
C815 C814 1.362 . S
H816 C822 0.930 . S
H817 C825 0.930 . S
H818 C826 0.930 . S
H819 C827 0.930 . S
H820 C830 0.930 . S
H821 C831 0.930 . S
C822 H816 0.930 . S
C822 C823 1.355 . S
C822 C824 1.415 . S
C823 C822 1.355 . S
C823 C825 1.419 . S
C824 C822 1.415 . S
C824 C829 1.425 . S
C824 C831 1.409 . S
C825 H817 0.930 . S
C825 C823 1.419 . S
C825 C826 1.362 . S
C826 H818 0.930 . S
C826 C825 1.362 . S
C826 C829 1.409 . S
C827 H819 0.930 . S
C827 C828 1.355 . S
C827 C829 1.415 . S
C828 C827 1.355 . S
C828 C830 1.419 . S
C829 C824 1.425 . S
C829 C826 1.409 . S
C829 C827 1.415 . S
C830 H820 0.930 . S
C830 C828 1.419 . S
C830 C831 1.362 . S
C831 H821 0.930 . S
C831 C824 1.409 . S
C831 C830 1.362 . S
H832 C838 0.930 . S
H833 C841 0.930 . S
H834 C842 0.930 . S
H835 C843 0.930 . S
H836 C846 0.930 . S
H837 C847 0.930 . S
C838 H832 0.930 . S
C838 C839 1.355 . S
C838 C840 1.415 . S
C839 C838 1.355 . S
C839 C841 1.419 . S
C840 C838 1.415 . S
C840 C845 1.425 . S
C840 C847 1.409 . S
C841 H833 0.930 . S
C841 C839 1.419 . S
C841 C842 1.362 . S
C842 H834 0.930 . S
C842 C841 1.362 . S
C842 C845 1.409 . S
C843 H835 0.930 . S
C843 C844 1.355 . S
C843 C845 1.415 . S
C844 C843 1.355 . S
C844 C846 1.419 . S
C845 C840 1.425 . S
C845 C842 1.409 . S
C845 C843 1.415 . S
C846 H836 0.930 . S
C846 C844 1.419 . S
C846 C847 1.362 . S
C847 H837 0.930 . S
C847 C840 1.409 . S
C847 C846 1.362 . S
H848 C854 0.930 . S
H849 C857 0.930 . S
H850 C858 0.930 . S
H851 C859 0.930 . S
H852 C862 0.930 . S
H853 C863 0.930 . S
C854 H848 0.930 . S
C854 C855 1.355 . S
C854 C856 1.414 1_554 S
C855 C854 1.355 . S
C855 C857 1.419 . S
C856 C854 1.414 1_556 S
C856 C861 1.425 1_566 S
C856 C863 1.409 1_565 S
C857 H849 0.930 . S
C857 C855 1.419 . S
C857 C858 1.362 . S
C858 H850 0.930 . S
C858 C857 1.362 . S
C858 C861 1.409 1_565 S
C859 H851 0.930 . S
C859 C860 1.355 . S
C859 C861 1.414 1_556 S
C860 C859 1.355 . S
C860 C862 1.419 . S
C861 C856 1.425 1_544 S
C861 C858 1.409 1_545 S
C861 C859 1.414 1_554 S
C862 H852 0.930 . S
C862 C860 1.419 . S
C862 C863 1.362 . S
C863 H853 0.930 . S
C863 C856 1.409 1_545 S
C863 C862 1.362 . S
H864 C870 0.930 . S
H865 C873 0.930 . S
H866 C874 0.930 . S
H867 C875 0.930 . S
H868 C878 0.930 . S
H869 C879 0.930 . S
C870 H864 0.930 . S
C870 C871 1.355 . S
C870 C872 1.415 . S
C871 C870 1.355 . S
C871 C873 1.419 . S
C872 C870 1.415 . S
C872 C877 1.425 1_565 S
C872 C879 1.409 1_565 S
C873 H865 0.930 . S
C873 C871 1.419 . S
C873 C874 1.362 . S
C874 H866 0.930 . S
C874 C873 1.362 . S
C874 C877 1.409 1_565 S
C875 H867 0.930 . S
C875 C876 1.355 . S
C875 C877 1.415 . S
C876 C875 1.355 . S
C876 C878 1.419 . S
C877 C872 1.425 1_545 S
C877 C874 1.409 1_545 S
C877 C875 1.415 . S
C878 H868 0.930 . S
C878 C876 1.419 . S
C878 C879 1.362 . S
C879 H869 0.930 . S
C879 C872 1.409 1_545 S
C879 C878 1.362 . S
H880 C886 0.930 . S
H881 C889 0.930 . S
H882 C890 0.930 . S
H883 C891 0.930 . S
H884 C894 0.930 . S
H885 C895 0.930 . S
C886 H880 0.930 . S
C886 C887 1.355 1_556 S
C886 C888 1.415 . S
C887 C886 1.355 1_554 S
C887 C889 1.419 . S
C888 C886 1.415 . S
C888 C893 1.425 1_566 S
C888 C895 1.409 1_565 S
C889 H881 0.930 . S
C889 C887 1.419 . S
C889 C890 1.362 . S
C890 H882 0.930 . S
C890 C889 1.362 . S
C890 C893 1.409 1_565 S
C891 H883 0.930 . S
C891 C892 1.355 1_554 S
C891 C893 1.415 . S
C892 C891 1.355 1_556 S
C892 C894 1.419 . S
C893 C888 1.425 1_544 S
C893 C890 1.409 1_545 S
C893 C891 1.415 . S
C894 H884 0.930 . S
C894 C892 1.419 . S
C894 C895 1.362 . S
C895 H885 0.930 . S
C895 C888 1.409 1_545 S
C895 C894 1.362 . S
H896 C902 0.930 . S
H897 C905 0.930 . S
H898 C906 0.930 . S
H899 C907 0.930 . S
H900 C910 0.930 . S
H901 C911 0.930 . S
C902 H896 0.930 . S
C902 C903 1.355 . S
C902 C904 1.415 . S
C903 C902 1.355 . S
C903 C905 1.419 . S
C904 C902 1.415 . S
C904 C909 1.425 1_565 S
C904 C911 1.409 1_565 S
C905 H897 0.930 . S
C905 C903 1.419 . S
C905 C906 1.362 . S
C906 H898 0.930 . S
C906 C905 1.362 . S
C906 C909 1.409 1_565 S
C907 H899 0.930 . S
C907 C908 1.355 . S
C907 C909 1.415 . S
C908 C907 1.355 . S
C908 C910 1.419 . S
C909 C904 1.425 1_545 S
C909 C906 1.409 1_545 S
C909 C907 1.415 . S
C910 H900 0.930 . S
C910 C908 1.419 . S
C910 C911 1.362 . S
C911 H901 0.930 . S
C911 C904 1.409 1_545 S
C911 C910 1.362 . S
H912 C918 0.930 . S
H913 C921 0.930 . S
H914 C922 0.930 . S
H915 C923 0.930 . S
H916 C926 0.930 . S
H917 C927 0.930 . S
C918 H912 0.930 . S
C918 C919 1.355 1_556 S
C918 C920 1.415 . S
C919 C918 1.355 1_554 S
C919 C921 1.419 . S
C920 C918 1.415 . S
C920 C925 1.425 1_556 S
C920 C927 1.409 . S
C921 H913 0.930 . S
C921 C919 1.419 . S
C921 C922 1.362 . S
C922 H914 0.930 . S
C922 C921 1.362 . S
C922 C925 1.409 . S
C923 H915 0.930 . S
C923 C924 1.355 1_554 S
C923 C925 1.415 . S
C924 C923 1.355 1_556 S
C924 C926 1.419 . S
C925 C920 1.425 1_554 S
C925 C922 1.409 . S
C925 C923 1.415 . S
C926 H916 0.930 . S
C926 C924 1.419 . S
C926 C927 1.362 . S
C927 H917 0.930 . S
C927 C920 1.409 . S
C927 C926 1.362 . S
H928 C934 0.930 . S
H929 C937 0.930 . S
H930 C938 0.930 . S
H931 C939 0.930 . S
H932 C942 0.930 . S
H933 C943 0.930 . S
C934 H928 0.930 . S
C934 C935 1.355 . S
C934 C936 1.415 . S
C935 C934 1.355 . S
C935 C937 1.419 . S
C936 C934 1.415 . S
C936 C941 1.425 . S
C936 C943 1.409 . S
C937 H929 0.930 . S
C937 C935 1.419 . S
C937 C938 1.362 . S
C938 H930 0.930 . S
C938 C937 1.362 . S
C938 C941 1.409 . S
C939 H931 0.930 . S
C939 C940 1.355 . S
C939 C941 1.415 . S
C940 C939 1.355 . S
C940 C942 1.419 . S
C941 C936 1.425 . S
C941 C938 1.409 . S
C941 C939 1.415 . S
C942 H932 0.930 . S
C942 C940 1.419 . S
C942 C943 1.362 . S
C943 H933 0.930 . S
C943 C936 1.409 . S
C943 C942 1.362 . S
H944 C950 0.930 . S
H945 C953 0.930 . S
H946 C954 0.930 . S
H947 C955 0.930 . S
H948 C958 0.930 . S
H949 C959 0.930 . S
C950 H944 0.930 . S
C950 C951 1.355 . S
C950 C952 1.415 . S
C951 C950 1.355 . S
C951 C953 1.419 . S
C952 C950 1.415 . S
C952 C957 1.425 1_556 S
C952 C959 1.409 1_556 S
C953 H945 0.930 . S
C953 C951 1.419 . S
C953 C954 1.362 . S
C954 H946 0.930 . S
C954 C953 1.362 . S
C954 C957 1.409 1_556 S
C955 H947 0.930 . S
C955 C956 1.355 . S
C955 C957 1.415 . S
C956 C955 1.355 . S
C956 C958 1.419 . S
C957 C952 1.425 1_554 S
C957 C954 1.409 1_554 S
C957 C955 1.415 . S
C958 H948 0.930 . S
C958 C956 1.419 . S
C958 C959 1.362 . S
C959 H949 0.930 . S
C959 C952 1.409 1_554 S
C959 C958 1.362 . S
H960 C966 0.930 . S
H961 C969 0.930 . S
H962 C970 0.930 . S
H963 C971 0.930 . S
H964 C974 0.930 . S
H965 C975 0.930 . S
C966 H960 0.930 . S
C966 C967 1.355 . S
C966 C968 1.415 . S
C967 C966 1.355 . S
C967 C969 1.419 . S
C968 C966 1.415 . S
C968 C973 1.425 . S
C968 C975 1.409 . S
C969 H961 0.930 . S
C969 C967 1.419 . S
C969 C970 1.362 . S
C970 H962 0.930 . S
C970 C969 1.362 . S
C970 C973 1.409 . S
C971 H963 0.930 . S
C971 C972 1.355 . S
C971 C973 1.415 . S
C972 C971 1.355 . S
C972 C974 1.419 . S
C973 C968 1.425 . S
C973 C970 1.409 . S
C973 C971 1.415 . S
C974 H964 0.930 . S
C974 C972 1.419 . S
C974 C975 1.362 . S
C975 H965 0.930 . S
C975 C968 1.409 . S
C975 C974 1.362 . S
H976 C982 0.930 . S
H977 C985 0.930 . S
H978 C986 0.930 . S
H979 C987 0.930 . S
H980 C990 0.930 . S
H981 C991 0.930 . S
C982 H976 0.930 . S
C982 C983 1.355 . S
C982 C984 1.415 . S
C983 C982 1.355 . S
C983 C985 1.419 . S
C984 C982 1.415 . S
C984 C989 1.425 . S
C984 C991 1.409 . S
C985 H977 0.930 . S
C985 C983 1.419 . S
C985 C986 1.362 . S
C986 H978 0.930 . S
C986 C985 1.362 . S
C986 C989 1.409 . S
C987 H979 0.930 . S
C987 C988 1.355 . S
C987 C989 1.415 . S
C988 C987 1.355 . S
C988 C990 1.419 . S
C989 C984 1.425 . S
C989 C986 1.409 . S
C989 C987 1.415 . S
C990 H980 0.930 . S
C990 C988 1.419 . S
C990 C991 1.362 . S
C991 H981 0.930 . S
C991 C984 1.409 . S
C991 C990 1.362 . S
H992 C998 0.930 . S
H993 C1001 0.930 . S
H994 C1002 0.930 . S
H995 C1003 0.930 . S
H996 C1006 0.930 . S
H997 C1007 0.930 . S
C998 H992 0.930 . S
C998 C999 1.355 . S
C998 C1000 1.415 . S
C999 C998 1.355 . S
C999 C1001 1.419 . S
C1000 C998 1.415 . S
C1000 C1005 1.425 . S
C1000 C1007 1.409 . S
C1001 H993 0.930 . S
C1001 C999 1.419 . S
C1001 C1002 1.362 . S
C1002 H994 0.930 . S
C1002 C1001 1.362 . S
C1002 C1005 1.409 . S
C1003 H995 0.930 . S
C1003 C1004 1.355 . S
C1003 C1005 1.415 . S
C1004 C1003 1.355 . S
C1004 C1006 1.419 . S
C1005 C1000 1.425 . S
C1005 C1002 1.409 . S
C1005 C1003 1.415 . S
C1006 H996 0.930 . S
C1006 C1004 1.419 . S
C1006 C1007 1.362 . S
C1007 H997 0.930 . S
C1007 C1000 1.409 . S
C1007 C1006 1.362 . S
H1008 C1014 0.930 . S
H1009 C1017 0.930 . S
H1010 C1018 0.930 . S
H1011 C1019 0.930 . S
H1012 C1022 0.930 . S
H1013 C1023 0.930 . S
C1014 H1008 0.930 . S
C1014 C1015 1.355 . S
C1014 C1016 1.415 . S
C1015 C1014 1.355 . S
C1015 C1017 1.419 . S
C1016 C1014 1.415 . S
C1016 C1021 1.425 . S
C1016 C1023 1.409 . S
C1017 H1009 0.930 . S
C1017 C1015 1.419 . S
C1017 C1018 1.362 . S
C1018 H1010 0.930 . S
C1018 C1017 1.362 . S
C1018 C1021 1.409 . S
C1019 H1011 0.930 . S
C1019 C1020 1.355 . S
C1019 C1021 1.415 . S
C1020 C1019 1.355 . S
C1020 C1022 1.419 . S
C1021 C1016 1.425 . S
C1021 C1018 1.409 . S
C1021 C1019 1.415 . S
C1022 H1012 0.930 . S
C1022 C1020 1.419 . S
C1022 C1023 1.362 . S
C1023 H1013 0.930 . S
C1023 C1016 1.409 . S
C1023 C1022 1.362 . S
H1024 C1030 0.930 . S
H1025 C1033 0.930 . S
H1026 C1034 0.930 . S
H1027 C1035 0.930 . S
H1028 C1038 0.930 . S
H1029 C1039 0.930 . S
C1030 H1024 0.930 . S
C1030 C1031 1.355 . S
C1030 C1032 1.415 . S
C1031 C1030 1.355 . S
C1031 C1033 1.419 . S
C1032 C1030 1.415 . S
C1032 C1037 1.425 . S
C1032 C1039 1.409 . S
C1033 H1025 0.930 . S
C1033 C1031 1.419 . S
C1033 C1034 1.362 . S
C1034 H1026 0.930 . S
C1034 C1033 1.362 . S
C1034 C1037 1.409 . S
C1035 H1027 0.930 . S
C1035 C1036 1.355 . S
C1035 C1037 1.415 . S
C1036 C1035 1.355 . S
C1036 C1038 1.419 . S
C1037 C1032 1.425 . S
C1037 C1034 1.409 . S
C1037 C1035 1.415 . S
C1038 H1028 0.930 . S
C1038 C1036 1.419 . S
C1038 C1039 1.362 . S
C1039 H1029 0.930 . S
C1039 C1032 1.409 . S
C1039 C1038 1.362 . S
H1040 C1046 0.930 . S
H1041 C1049 0.930 . S
H1042 C1050 0.930 . S
H1043 C1051 0.930 . S
H1044 C1054 0.930 . S
H1045 C1055 0.930 . S
C1046 H1040 0.930 . S
C1046 C1047 1.355 . S
C1046 C1048 1.415 . S
C1047 C1046 1.355 . S
C1047 C1049 1.419 . S
C1048 C1046 1.415 . S
C1048 C1053 1.425 . S
C1048 C1055 1.409 . S
C1049 H1041 0.930 . S
C1049 C1047 1.419 . S
C1049 C1050 1.362 . S
C1050 H1042 0.930 . S
C1050 C1049 1.362 . S
C1050 C1053 1.409 . S
C1051 H1043 0.930 . S
C1051 C1052 1.355 . S
C1051 C1053 1.415 . S
C1052 C1051 1.355 . S
C1052 C1054 1.419 . S
C1053 C1048 1.425 . S
C1053 C1050 1.409 . S
C1053 C1051 1.415 . S
C1054 H1044 0.930 . S
C1054 C1052 1.419 . S
C1054 C1055 1.362 . S
C1055 H1045 0.930 . S
C1055 C1048 1.409 . S
C1055 C1054 1.362 . S
H1056 C1062 0.930 . S
H1057 C1065 0.930 . S
H1058 C1066 0.930 . S
H1059 C1067 0.930 . S
H1060 C1070 0.930 . S
H1061 C1071 0.930 . S
C1062 H1056 0.930 . S
C1062 C1063 1.355 . S
C1062 C1064 1.415 . S
C1063 C1062 1.355 . S
C1063 C1065 1.419 . S
C1064 C1062 1.415 . S
C1064 C1069 1.425 . S
C1064 C1071 1.409 . S
C1065 H1057 0.930 . S
C1065 C1063 1.419 . S
C1065 C1066 1.362 . S
C1066 H1058 0.930 . S
C1066 C1065 1.362 . S
C1066 C1069 1.409 . S
C1067 H1059 0.930 . S
C1067 C1068 1.355 . S
C1067 C1069 1.415 . S
C1068 C1067 1.355 . S
C1068 C1070 1.419 . S
C1069 C1064 1.425 . S
C1069 C1066 1.409 . S
C1069 C1067 1.415 . S
C1070 H1060 0.930 . S
C1070 C1068 1.419 . S
C1070 C1071 1.362 . S
C1071 H1061 0.930 . S
C1071 C1064 1.409 . S
C1071 C1070 1.362 . S
H1072 C1078 0.930 . S
H1073 C1081 0.930 . S
H1074 C1082 0.930 . S
H1075 C1083 0.930 . S
H1076 C1086 0.930 . S
H1077 C1087 0.930 . S
C1078 H1072 0.930 . S
C1078 C1079 1.355 . S
C1078 C1080 1.415 . S
C1079 C1078 1.355 . S
C1079 C1081 1.419 . S
C1080 C1078 1.415 . S
C1080 C1085 1.425 . S
C1080 C1087 1.409 . S
C1081 H1073 0.930 . S
C1081 C1079 1.419 . S
C1081 C1082 1.362 . S
C1082 H1074 0.930 . S
C1082 C1081 1.362 . S
C1082 C1085 1.409 . S
C1083 H1075 0.930 . S
C1083 C1084 1.355 . S
C1083 C1085 1.415 . S
C1084 C1083 1.355 . S
C1084 C1086 1.419 . S
C1085 C1080 1.425 . S
C1085 C1082 1.409 . S
C1085 C1083 1.415 . S
C1086 H1076 0.930 . S
C1086 C1084 1.419 . S
C1086 C1087 1.362 . S
C1087 H1077 0.930 . S
C1087 C1080 1.409 . S
C1087 C1086 1.362 . S
H1088 C1094 0.930 . S
H1089 C1097 0.930 . S
H1090 C1098 0.930 . S
H1091 C1099 0.930 . S
H1092 C1102 0.930 . S
H1093 C1103 0.930 . S
C1094 H1088 0.930 . S
C1094 C1095 1.355 . S
C1094 C1096 1.415 . S
C1095 C1094 1.355 . S
C1095 C1097 1.419 . S
C1096 C1094 1.415 . S
C1096 C1101 1.425 . S
C1096 C1103 1.409 . S
C1097 H1089 0.930 . S
C1097 C1095 1.419 . S
C1097 C1098 1.362 . S
C1098 H1090 0.930 . S
C1098 C1097 1.362 . S
C1098 C1101 1.409 . S
C1099 H1091 0.930 . S
C1099 C1100 1.355 . S
C1099 C1101 1.415 . S
C1100 C1099 1.355 . S
C1100 C1102 1.419 . S
C1101 C1096 1.425 . S
C1101 C1098 1.409 . S
C1101 C1099 1.415 . S
C1102 H1092 0.930 . S
C1102 C1100 1.419 . S
C1102 C1103 1.362 . S
C1103 H1093 0.930 . S
C1103 C1096 1.409 . S
C1103 C1102 1.362 . S
H1104 C1110 0.930 . S
H1105 C1113 0.930 . S
H1106 C1114 0.930 . S
H1107 C1115 0.930 . S
H1108 C1118 0.930 . S
H1109 C1119 0.930 . S
C1110 H1104 0.930 . S
C1110 C1111 1.355 . S
C1110 C1112 1.415 . S
C1111 C1110 1.355 . S
C1111 C1113 1.419 . S
C1112 C1110 1.415 . S
C1112 C1117 1.425 . S
C1112 C1119 1.409 . S
C1113 H1105 0.930 . S
C1113 C1111 1.419 . S
C1113 C1114 1.362 . S
C1114 H1106 0.930 . S
C1114 C1113 1.362 . S
C1114 C1117 1.409 . S
C1115 H1107 0.930 . S
C1115 C1116 1.355 . S
C1115 C1117 1.415 . S
C1116 C1115 1.355 . S
C1116 C1118 1.419 . S
C1117 C1112 1.425 . S
C1117 C1114 1.409 . S
C1117 C1115 1.415 . S
C1118 H1108 0.930 . S
C1118 C1116 1.419 . S
C1118 C1119 1.362 . S
C1119 H1109 0.930 . S
C1119 C1112 1.409 . S
C1119 C1118 1.362 . S
H1120 C1126 0.930 . S
H1121 C1129 0.930 . S
H1122 C1130 0.930 . S
H1123 C1131 0.930 . S
H1124 C1134 0.930 . S
H1125 C1135 0.930 . S
C1126 H1120 0.930 . S
C1126 C1127 1.355 . S
C1126 C1128 1.415 . S
C1127 C1126 1.355 . S
C1127 C1129 1.419 . S
C1128 C1126 1.415 . S
C1128 C1133 1.425 1_554 S
C1128 C1135 1.409 1_554 S
C1129 H1121 0.930 . S
C1129 C1127 1.419 . S
C1129 C1130 1.362 . S
C1130 H1122 0.930 . S
C1130 C1129 1.362 . S
C1130 C1133 1.409 1_554 S
C1131 H1123 0.930 . S
C1131 C1132 1.355 . S
C1131 C1133 1.415 . S
C1132 C1131 1.355 . S
C1132 C1134 1.419 . S
C1133 C1128 1.425 1_556 S
C1133 C1130 1.409 1_556 S
C1133 C1131 1.415 . S
C1134 H1124 0.930 . S
C1134 C1132 1.419 . S
C1134 C1135 1.362 . S
C1135 H1125 0.930 . S
C1135 C1128 1.409 1_556 S
C1135 C1134 1.362 . S
H1136 C1142 0.930 . S
H1137 C1145 0.930 . S
H1138 C1146 0.930 . S
H1139 C1147 0.930 . S
H1140 C1150 0.930 . S
H1141 C1151 0.930 . S
C1142 H1136 0.930 . S
C1142 C1143 1.355 . S
C1142 C1144 1.415 . S
C1143 C1142 1.355 . S
C1143 C1145 1.419 . S
C1144 C1142 1.415 . S
C1144 C1149 1.425 . S
C1144 C1151 1.409 . S
C1145 H1137 0.930 . S
C1145 C1143 1.419 . S
C1145 C1146 1.362 . S
C1146 H1138 0.930 . S
C1146 C1145 1.362 . S
C1146 C1149 1.409 . S
C1147 H1139 0.930 . S
C1147 C1148 1.355 . S
C1147 C1149 1.415 . S
C1148 C1147 1.355 . S
C1148 C1150 1.419 . S
C1149 C1144 1.425 . S
C1149 C1146 1.409 . S
C1149 C1147 1.415 . S
C1150 H1140 0.930 . S
C1150 C1148 1.419 . S
C1150 C1151 1.362 . S
C1151 H1141 0.930 . S
C1151 C1144 1.409 . S
C1151 C1150 1.362 . S
H1152 C1158 0.930 . S
H1153 C1161 0.930 . S
H1154 C1162 0.930 1_554 S
H1155 C1163 0.930 . S
H1156 C1166 0.930 . S
H1157 C1167 0.930 . S
C1158 H1152 0.930 . S
C1158 C1159 1.355 . S
C1158 C1160 1.415 . S
C1159 C1158 1.355 . S
C1159 C1161 1.419 . S
C1160 C1158 1.415 . S
C1160 C1165 1.425 1_556 S
C1160 C1167 1.409 1_556 S
C1161 H1153 0.930 . S
C1161 C1159 1.419 . S
C1161 C1162 1.362 . S
C1162 H1154 0.930 1_556 S
C1162 C1161 1.362 . S
C1162 C1165 1.409 1_556 S
C1163 H1155 0.930 . S
C1163 C1164 1.355 . S
C1163 C1165 1.415 . S
C1164 C1163 1.355 . S
C1164 C1166 1.419 . S
C1165 C1160 1.425 1_554 S
C1165 C1162 1.409 1_554 S
C1165 C1163 1.415 . S
C1166 H1156 0.930 . S
C1166 C1164 1.419 . S
C1166 C1167 1.362 . S
C1167 H1157 0.930 . S
C1167 C1160 1.409 1_554 S
C1167 C1166 1.362 . S
H1168 C1174 0.930 . S
H1169 C1177 0.930 . S
H1170 C1178 0.930 . S
H1171 C1179 0.930 . S
H1172 C1182 0.930 . S
H1173 C1183 0.930 . S
C1174 H1168 0.930 . S
C1174 C1175 1.355 . S
C1174 C1176 1.415 . S
C1175 C1174 1.355 . S
C1175 C1177 1.419 . S
C1176 C1174 1.415 . S
C1176 C1181 1.425 . S
C1176 C1183 1.409 . S
C1177 H1169 0.930 . S
C1177 C1175 1.419 . S
C1177 C1178 1.362 . S
C1178 H1170 0.930 . S
C1178 C1177 1.362 . S
C1178 C1181 1.409 . S
C1179 H1171 0.930 . S
C1179 C1180 1.355 . S
C1179 C1181 1.415 . S
C1180 C1179 1.355 . S
C1180 C1182 1.419 . S
C1181 C1176 1.425 . S
C1181 C1178 1.409 . S
C1181 C1179 1.415 . S
C1182 H1172 0.930 . S
C1182 C1180 1.419 . S
C1182 C1183 1.362 . S
C1183 H1173 0.930 . S
C1183 C1176 1.409 . S
C1183 C1182 1.362 . S
H1184 C1190 0.930 . S
H1185 C1193 0.930 . S
H1186 C1194 0.930 . S
H1187 C1195 0.930 . S
H1188 C1198 0.930 . S
H1189 C1199 0.930 . S
C1190 H1184 0.930 . S
C1190 C1191 1.355 . S
C1190 C1192 1.415 . S
C1191 C1190 1.355 . S
C1191 C1193 1.419 . S
C1192 C1190 1.415 . S
C1192 C1197 1.425 1_556 S
C1192 C1199 1.409 1_556 S
C1193 H1185 0.930 . S
C1193 C1191 1.419 . S
C1193 C1194 1.362 . S
C1194 H1186 0.930 . S
C1194 C1193 1.362 . S
C1194 C1197 1.409 1_556 S
C1195 H1187 0.930 . S
C1195 C1196 1.355 . S
C1195 C1197 1.415 . S
C1196 C1195 1.355 . S
C1196 C1198 1.419 . S
C1197 C1192 1.425 1_554 S
C1197 C1194 1.409 1_554 S
C1197 C1195 1.415 . S
C1198 H1188 0.930 . S
C1198 C1196 1.419 . S
C1198 C1199 1.362 . S
C1199 H1189 0.930 . S
C1199 C1192 1.409 1_554 S
C1199 C1198 1.362 . S
H1200 C1206 0.930 . S
H1201 C1209 0.930 . S
H1202 C1210 0.930 . S
H1203 C1211 0.930 . S
H1204 C1214 0.930 . S
H1205 C1215 0.930 . S
C1206 H1200 0.930 . S
C1206 C1207 1.355 . S
C1206 C1208 1.415 . S
C1207 C1206 1.355 . S
C1207 C1209 1.419 . S
C1208 C1206 1.415 . S
C1208 C1213 1.425 . S
C1208 C1215 1.409 . S
C1209 H1201 0.930 . S
C1209 C1207 1.419 . S
C1209 C1210 1.362 . S
C1210 H1202 0.930 . S
C1210 C1209 1.362 . S
C1210 C1213 1.409 . S
C1211 H1203 0.930 . S
C1211 C1212 1.355 . S
C1211 C1213 1.415 . S
C1212 C1211 1.355 . S
C1212 C1214 1.419 . S
C1213 C1208 1.425 . S
C1213 C1210 1.409 . S
C1213 C1211 1.415 . S
C1214 H1204 0.930 . S
C1214 C1212 1.419 . S
C1214 C1215 1.362 . S
C1215 H1205 0.930 . S
C1215 C1208 1.409 . S
C1215 C1214 1.362 . S
H1216 C1222 0.930 . S
H1217 C1225 0.930 . S
H1218 C1226 0.930 . S
H1219 C1227 0.930 . S
H1220 C1230 0.930 . S
H1221 C1231 0.930 . S
C1222 H1216 0.930 . S
C1222 C1223 1.355 . S
C1222 C1224 1.415 . S
C1223 C1222 1.355 . S
C1223 C1225 1.419 . S
C1224 C1222 1.415 . S
C1224 C1229 1.425 1_556 S
C1224 C1231 1.409 1_556 S
C1225 H1217 0.930 . S
C1225 C1223 1.419 . S
C1225 C1226 1.362 . S
C1226 H1218 0.930 . S
C1226 C1225 1.362 . S
C1226 C1229 1.409 1_556 S
C1227 H1219 0.930 . S
C1227 C1228 1.355 . S
C1227 C1229 1.415 . S
C1228 C1227 1.355 . S
C1228 C1230 1.419 . S
C1229 C1224 1.425 1_554 S
C1229 C1226 1.409 1_554 S
C1229 C1227 1.415 . S
C1230 H1220 0.930 . S
C1230 C1228 1.419 . S
C1230 C1231 1.362 . S
C1231 H1221 0.930 . S
C1231 C1224 1.409 1_554 S
C1231 C1230 1.362 . S
H1232 C1238 0.930 . S
H1233 C1241 0.930 . S
H1234 C1242 0.930 . S
H1235 C1243 0.930 . S
H1236 C1246 0.930 . S
H1237 C1247 0.930 . S
C1238 H1232 0.930 . S
C1238 C1239 1.355 . S
C1238 C1240 1.415 . S
C1239 C1238 1.355 . S
C1239 C1241 1.419 . S
C1240 C1238 1.415 . S
C1240 C1245 1.425 . S
C1240 C1247 1.409 . S
C1241 H1233 0.930 . S
C1241 C1239 1.419 . S
C1241 C1242 1.362 . S
C1242 H1234 0.930 . S
C1242 C1241 1.362 . S
C1242 C1245 1.409 . S
C1243 H1235 0.930 . S
C1243 C1244 1.355 . S
C1243 C1245 1.415 . S
C1244 C1243 1.355 . S
C1244 C1246 1.419 . S
C1245 C1240 1.425 . S
C1245 C1242 1.409 . S
C1245 C1243 1.415 . S
C1246 H1236 0.930 . S
C1246 C1244 1.419 . S
C1246 C1247 1.362 . S
C1247 H1237 0.930 . S
C1247 C1240 1.409 . S
C1247 C1246 1.362 . S
H1248 C1254 0.930 . S
H1249 C1257 0.930 . S
H1250 C1258 0.930 . S
H1251 C1259 0.930 . S
H1252 C1262 0.930 . S
H1253 C1263 0.930 . S
C1254 H1248 0.930 . S
C1254 C1255 1.355 . S
C1254 C1256 1.415 . S
C1255 C1254 1.355 . S
C1255 C1257 1.419 . S
C1256 C1254 1.415 . S
C1256 C1261 1.425 1_556 S
C1256 C1263 1.409 1_556 S
C1257 H1249 0.930 . S
C1257 C1255 1.419 . S
C1257 C1258 1.362 . S
C1258 H1250 0.930 . S
C1258 C1257 1.362 . S
C1258 C1261 1.409 1_556 S
C1259 H1251 0.930 . S
C1259 C1260 1.355 . S
C1259 C1261 1.415 . S
C1260 C1259 1.355 . S
C1260 C1262 1.419 . S
C1261 C1256 1.425 1_554 S
C1261 C1258 1.409 1_554 S
C1261 C1259 1.415 . S
C1262 H1252 0.930 . S
C1262 C1260 1.419 . S
C1262 C1263 1.362 . S
C1263 H1253 0.930 . S
C1263 C1256 1.409 1_554 S
C1263 C1262 1.362 . S
H1264 C1270 0.930 . S
H1265 C1273 0.930 . S
H1266 C1274 0.930 . S
H1267 C1275 0.930 . S
H1268 C1278 0.930 . S
H1269 C1279 0.930 . S
C1270 H1264 0.930 . S
C1270 C1271 1.355 . S
C1270 C1272 1.415 . S
C1271 C1270 1.355 . S
C1271 C1273 1.419 . S
C1272 C1270 1.415 . S
C1272 C1277 1.425 . S
C1272 C1279 1.409 . S
C1273 H1265 0.930 . S
C1273 C1271 1.419 . S
C1273 C1274 1.362 . S
C1274 H1266 0.930 . S
C1274 C1273 1.362 . S
C1274 C1277 1.409 . S
C1275 H1267 0.930 . S
C1275 C1276 1.355 . S
C1275 C1277 1.415 . S
C1276 C1275 1.355 . S
C1276 C1278 1.419 . S
C1277 C1272 1.425 . S
C1277 C1274 1.409 . S
C1277 C1275 1.415 . S
C1278 H1268 0.930 . S
C1278 C1276 1.419 . S
C1278 C1279 1.362 . S
C1279 H1269 0.930 . S
C1279 C1272 1.409 . S
C1279 C1278 1.362 . S
H1280 C1286 0.930 . S
H1281 C1289 0.930 . S
H1282 C1290 0.930 . S
H1283 C1291 0.930 . S
H1284 C1294 0.930 . S
H1285 C1295 0.930 . S
C1286 H1280 0.930 . S
C1286 C1287 1.355 . S
C1286 C1288 1.415 . S
C1287 C1286 1.355 . S
C1287 C1289 1.419 . S
C1288 C1286 1.415 . S
C1288 C1293 1.425 1_554 S
C1288 C1295 1.409 1_554 S
C1289 H1281 0.930 . S
C1289 C1287 1.419 . S
C1289 C1290 1.362 . S
C1290 H1282 0.930 . S
C1290 C1289 1.362 . S
C1290 C1293 1.409 1_554 S
C1291 H1283 0.930 . S
C1291 C1292 1.355 . S
C1291 C1293 1.415 . S
C1292 C1291 1.355 . S
C1292 C1294 1.419 . S
C1293 C1288 1.425 1_556 S
C1293 C1290 1.409 1_556 S
C1293 C1291 1.415 . S
C1294 H1284 0.930 . S
C1294 C1292 1.419 . S
C1294 C1295 1.362 . S
C1295 H1285 0.930 . S
C1295 C1288 1.409 1_556 S
C1295 C1294 1.362 . S
H1296 C1302 0.930 . S
H1297 C1305 0.930 . S
H1298 C1306 0.930 . S
H1299 C1307 0.930 . S
H1300 C1310 0.930 . S
H1301 C1311 0.930 . S
C1302 H1296 0.930 . S
C1302 C1303 1.355 . S
C1302 C1304 1.415 . S
C1303 C1302 1.355 . S
C1303 C1305 1.419 . S
C1304 C1302 1.415 . S
C1304 C1309 1.425 . S
C1304 C1311 1.409 . S
C1305 H1297 0.930 . S
C1305 C1303 1.419 . S
C1305 C1306 1.362 . S
C1306 H1298 0.930 . S
C1306 C1305 1.362 . S
C1306 C1309 1.409 . S
C1307 H1299 0.930 . S
C1307 C1308 1.355 . S
C1307 C1309 1.415 . S
C1308 C1307 1.355 . S
C1308 C1310 1.419 . S
C1309 C1304 1.425 . S
C1309 C1306 1.409 . S
C1309 C1307 1.415 . S
C1310 H1300 0.930 . S
C1310 C1308 1.419 . S
C1310 C1311 1.362 . S
C1311 H1301 0.930 . S
C1311 C1304 1.409 . S
C1311 C1310 1.362 . S
H1312 C1318 0.930 . S
H1313 C1321 0.930 . S
H1314 C1322 0.930 . S
H1315 C1323 0.930 . S
H1316 C1326 0.930 . S
H1317 C1327 0.930 . S
C1318 H1312 0.930 . S
C1318 C1319 1.355 . S
C1318 C1320 1.415 . S
C1319 C1318 1.355 . S
C1319 C1321 1.419 . S
C1320 C1318 1.415 . S
C1320 C1325 1.425 1_554 S
C1320 C1327 1.409 1_554 S
C1321 H1313 0.930 . S
C1321 C1319 1.419 . S
C1321 C1322 1.362 . S
C1322 H1314 0.930 . S
C1322 C1321 1.362 . S
C1322 C1325 1.409 1_554 S
C1323 H1315 0.930 . S
C1323 C1324 1.355 . S
C1323 C1325 1.415 . S
C1324 C1323 1.355 . S
C1324 C1326 1.419 . S
C1325 C1320 1.425 1_556 S
C1325 C1322 1.409 1_556 S
C1325 C1323 1.415 . S
C1326 H1316 0.930 . S
C1326 C1324 1.419 . S
C1326 C1327 1.362 . S
C1327 H1317 0.930 . S
C1327 C1320 1.409 1_556 S
C1327 C1326 1.362 . S
H1328 C1334 0.930 . S
H1329 C1337 0.930 . S
H1330 C1338 0.930 . S
H1331 C1339 0.930 . S
H1332 C1342 0.930 . S
H1333 C1343 0.930 . S
C1334 H1328 0.930 . S
C1334 C1335 1.355 . S
C1334 C1336 1.415 . S
C1335 C1334 1.355 . S
C1335 C1337 1.419 . S
C1336 C1334 1.415 . S
C1336 C1341 1.425 . S
C1336 C1343 1.409 . S
C1337 H1329 0.930 . S
C1337 C1335 1.419 . S
C1337 C1338 1.362 . S
C1338 H1330 0.930 . S
C1338 C1337 1.362 . S
C1338 C1341 1.409 . S
C1339 H1331 0.930 . S
C1339 C1340 1.355 . S
C1339 C1341 1.415 . S
C1340 C1339 1.355 . S
C1340 C1342 1.419 . S
C1341 C1336 1.425 . S
C1341 C1338 1.409 . S
C1341 C1339 1.415 . S
C1342 H1332 0.930 . S
C1342 C1340 1.419 . S
C1342 C1343 1.362 . S
C1343 H1333 0.930 . S
C1343 C1336 1.409 . S
C1343 C1342 1.362 . S
H1344 C1350 0.930 . S
H1345 C1353 0.930 . S
H1346 C1354 0.930 . S
H1347 C1355 0.930 . S
H1348 C1358 0.930 . S
H1349 C1359 0.930 . S
C1350 H1344 0.930 . S
C1350 C1351 1.355 . S
C1350 C1352 1.415 . S
C1351 C1350 1.355 . S
C1351 C1353 1.419 . S
C1352 C1350 1.415 . S
C1352 C1357 1.425 1_554 S
C1352 C1359 1.409 1_554 S
C1353 H1345 0.930 . S
C1353 C1351 1.419 . S
C1353 C1354 1.362 . S
C1354 H1346 0.930 . S
C1354 C1353 1.362 . S
C1354 C1357 1.409 1_554 S
C1355 H1347 0.930 . S
C1355 C1356 1.355 . S
C1355 C1357 1.415 . S
C1356 C1355 1.355 . S
C1356 C1358 1.419 . S
C1357 C1352 1.425 1_556 S
C1357 C1354 1.409 1_556 S
C1357 C1355 1.415 . S
C1358 H1348 0.930 . S
C1358 C1356 1.419 . S
C1358 C1359 1.362 . S
C1359 H1349 0.930 . S
C1359 C1352 1.409 1_556 S
C1359 C1358 1.362 . S
C471 C184 1.535 . S
C476 C10 1.612 . S
C487 C39 1.586 . S
C492 C213 1.562 . S
C503 C126 1.611 . S
C508 C68 1.535 . S
C519 C155 1.612 . S
C524 C97 1.535 . S
C535 C242 1.601 . S
C540 C416 1.546 . S
C551 C445 1.570 . S
C556 C271 1.578 . S
C567 C358 1.555 . S
C572 C300 1.592 . S
C583 C387 1.535 . S
C588 C329 1.611 . S
C599 C13 1.148 . S
C604 C438 1.135 . S
C615 C42 1.165 . S
C620 C409 1.081 . S
C631 C380 1.141 . S
C636 C71 1.080 . S
C647 C351 1.084 . S
C652 C100 1.111 . S
C663 C322 1.150 . S
C668 C129 1.133 . S
C679 C293 1.077 . S
C684 C158 1.163 . S
C695 C264 1.134 . S
C700 C187 1.080 . S
C711 C235 1.081 . S
C716 C216 1.165 . S
C727 C206 1.151 . S
C732 C245 1.082 . S
C743 C274 1.113 . S
C748 C177 1.161 . S
C759 C303 1.138 . S
C764 C148 1.068 . S
C775 C119 1.091 . S
C780 C332 1.104 . S
C791 C361 1.145 . S
C796 C90 1.067 . S
C807 C61 1.150 . S
C812 C390 1.133 . S
C823 C419 1.165 . S
C828 C32 1.081 . S
C839 C448 1.103 . S
C844 C3 1.163 . S
C855 C66 1.396 1_554 S
C860 C8 1.353 1_556 S
C871 C37 1.401 . S
C876 C95 1.361 . S
C887 C124 1.396 1_554 S
C892 C182 1.353 1_556 S
C903 C211 1.412 . S
C908 C153 1.392 . S
C919 C298 1.394 1_554 S
C924 C240 1.412 1_556 S
C935 C269 1.408 . S
C940 C327 1.406 . S
C951 C414 1.361 1_556 S
C956 C356 1.316 1_554 S
C967 C443 1.299 . S
C972 C385 1.330 . S
C983 C5 1.360 . S
C988 C92 1.338 . S
C999 C34 1.360 . S
C1004 C63 1.338 . S
C1015 C208 1.380 . S
C1020 C121 1.322 . S
C1031 C150 1.325 . S
C1036 C179 1.381 . S
C1047 C324 1.375 . S
C1052 C237 1.325 . S
C1063 C266 1.360 . S
C1068 C295 1.338 . S
C1079 C440 1.366 . S
C1084 C353 1.344 . S
C1095 C411 1.325 . S
C1100 C382 1.381 . S
C1111 C15 2.068 . S
C1116 C21 1.889 . S
C1127 C44 2.070 . S
C1132 C50 1.889 . S
C1143 C79 1.945 . S
C1148 C73 2.045 . S
C1159 C102 2.058 . S
C1164 C108 1.969 . S
C1175 C131 2.080 . S
C1180 C137 1.894 . S
C1191 C160 2.045 . S
C1196 C166 1.943 . S
C1207 C189 2.085 . S
C1212 C195 1.905 . S
C1223 C224 1.941 . S
C1228 C218 2.083 . S
C1239 C247 2.064 . S
C1244 C253 1.891 . S
C1255 C282 1.933 . S
C1260 C276 2.085 . S
C1271 C311 1.966 . S
C1276 C305 2.052 . S
C1287 C340 1.955 . S
C1292 C334 2.077 . S
C1303 C363 2.045 . S
C1308 C369 1.946 . S
C1319 C398 1.966 . S
C1324 C392 2.069 . S
C1335 C421 2.086 . S
C1340 C427 1.920 . S
C1351 C450 2.080 . S
C1356 C456 1.894 . S
