# Generated by pormake.
# Topology vby, (6)-cn, num edge types: 1
# Building blocks:
#     Node 0, Type 0, BuildingBlock: FUNLAD_clean_sbu_0, # of connection points: 6
#     Node 1, Type 0, BuildingBlock: FUNLAD_clean_sbu_0, # of connection points: 6
#     Node 2, Type 0, BuildingBlock: FUNLAD_clean_sbu_0, # of connection points: 6
#     Node 3, Type 0, BuildingBlock: FUNLAD_clean_sbu_0, # of connection points: 6
#     Node 4, Type 0, BuildingBlock: FUNLAD_clean_sbu_0, # of connection points: 6
#     Node 5, Type 0, BuildingBlock: FUNLAD_clean_sbu_0, # of connection points: 6
#     Node 6, Type 0, BuildingBlock: FUNLAD_clean_sbu_0, # of connection points: 6
#     Node 7, Type 0, BuildingBlock: FUNLAD_clean_sbu_0, # of connection points: 6
#     Edge 8, Type (0, 0), BuildingBlock: EZIPEK_clean_linker_0, # of connection points: 2
#     Edge 9, Type (0, 0), BuildingBlock: EZIPEK_clean_linker_0, # of connection points: 2
#     Edge 10, Type (0, 0), BuildingBlock: EZIPEK_clean_linker_0, # of connection points: 2
#     Edge 11, Type (0, 0), BuildingBlock: EZIPEK_clean_linker_0, # of connection points: 2
#     Edge 12, Type (0, 0), BuildingBlock: EZIPEK_clean_linker_0, # of connection points: 2
#     Edge 13, Type (0, 0), BuildingBlock: EZIPEK_clean_linker_0, # of connection points: 2
#     Edge 14, Type (0, 0), BuildingBlock: EZIPEK_clean_linker_0, # of connection points: 2
#     Edge 15, Type (0, 0), BuildingBlock: EZIPEK_clean_linker_0, # of connection points: 2
#     Edge 16, Type (0, 0), BuildingBlock: EZIPEK_clean_linker_0, # of connection points: 2
#     Edge 17, Type (0, 0), BuildingBlock: EZIPEK_clean_linker_0, # of connection points: 2
#     Edge 18, Type (0, 0), BuildingBlock: EZIPEK_clean_linker_0, # of connection points: 2
#     Edge 19, Type (0, 0), BuildingBlock: EZIPEK_clean_linker_0, # of connection points: 2
#     Edge 20, Type (0, 0), BuildingBlock: EZIPEK_clean_linker_0, # of connection points: 2
#     Edge 21, Type (0, 0), BuildingBlock: EZIPEK_clean_linker_0, # of connection points: 2
#     Edge 22, Type (0, 0), BuildingBlock: EZIPEK_clean_linker_0, # of connection points: 2
#     Edge 23, Type (0, 0), BuildingBlock: EZIPEK_clean_linker_0, # of connection points: 2
#     Edge 24, Type (0, 0), BuildingBlock: EZIPEK_clean_linker_0, # of connection points: 2
#     Edge 25, Type (0, 0), BuildingBlock: EZIPEK_clean_linker_0, # of connection points: 2
#     Edge 26, Type (0, 0), BuildingBlock: EZIPEK_clean_linker_0, # of connection points: 2
#     Edge 27, Type (0, 0), BuildingBlock: EZIPEK_clean_linker_0, # of connection points: 2
#     Edge 28, Type (0, 0), BuildingBlock: EZIPEK_clean_linker_0, # of connection points: 2
#     Edge 29, Type (0, 0), BuildingBlock: EZIPEK_clean_linker_0, # of connection points: 2
#     Edge 30, Type (0, 0), BuildingBlock: EZIPEK_clean_linker_0, # of connection points: 2
#     Edge 31, Type (0, 0), BuildingBlock: EZIPEK_clean_linker_0, # of connection points: 2
# Relax obj value: 0.040
# Max RMSD: 0.109
# Mean RMSD: 0.104
data_MOF--net-vby--node1-FUNLAD_clean_sbu_0--edge1-EZIPEK_clean_linker_0
_symmetry_space_group_name_H-M    P1
_symmetry_Int_Tables_number       1
_symmetry_cell_setting            triclinic
loop_
_symmetry_equiv_pos_as_xyz
'x, y, z'
_cell_length_a     11.206079
_cell_length_b     43.213351
_cell_length_c     34.956563
_cell_angle_alpha  87.969347
_cell_angle_beta   90.20503
_cell_angle_gamma 90.232739
loop_
_atom_site_label
_atom_site_type_symbol
_atom_site_fract_x
_atom_site_fract_y
_atom_site_fract_z
_atom_type_partial_charge
C0 C 0.04834 0.42985 1.02036 0.0
N1 N 0.09161 0.36791 0.11544 0.0
C2 C 0.13055 0.39307 0.1344 0.0
C3 C 0.10904 0.39529 0.17368 0.0
C4 C 0.04841 0.3712 0.1935 0.0
C5 C 0.01358 0.34507 0.17362 0.0
C6 C 0.03517 0.344 0.13442 0.0
Zn7 Zn 0.09438 0.36692 0.05654 0.0
C8 C 0.84999 0.36041 0.02667 0.0
N9 N 0.08168 0.36607 0.93352 0.0
C10 C 0.12152 0.38999 0.91049 0.0
C11 C 0.02463 0.34134 0.91853 0.0
C12 C 0.00457 0.34015 0.87916 0.0
C13 C 0.04123 0.36492 0.85496 0.0
C14 C 0.10129 0.38999 0.87092 0.0
Zn15 Zn 0.09216 0.36788 0.9923 0.0
O16 O 0.06227 0.41535 0.05234 0.0
C17 C 0.33684 0.37428 1.02226 0.0
O18 O 0.0605 0.41577 0.98937 0.0
H19 H -0.00841 0.3228 0.93724 0.0
H20 H 0.17433 0.41195 0.11883 0.0
H21 H 0.16633 0.40947 0.92287 0.0
O22 O 0.28163 0.37337 0.05411 0.0
O23 O 0.27858 0.37475 0.9909 0.0
H24 H 0.00221 0.32452 0.1189 0.0
O25 O 0.1278 0.31977 0.99653 0.0
O26 O 0.12784 0.31896 0.05941 0.0
O27 O 0.90489 0.3615 0.99494 0.0
O28 O 0.90865 0.36 0.05775 0.0
C29 C 0.14511 0.30533 0.02837 0.0
H30 H 0.13684 0.41582 0.18826 0.0
H31 H 0.96624 0.32616 0.18807 0.0
H32 H 0.95782 0.32049 0.86776 0.0
H33 H 0.13068 0.40949 0.853 0.0
C34 C 0.88968 0.55675 1.02254 0.0
N35 N 0.86512 0.61916 0.11101 0.0
C36 C 0.79078 0.60244 0.1346 0.0
C37 C 0.80476 0.6033 0.17435 0.0
C38 C 0.89884 0.62059 0.18969 0.0
C39 C -0.02603 0.63749 0.16469 0.0
C40 C 0.95355 0.63709 0.12544 0.0
Zn41 Zn 0.85189 0.61808 0.05259 0.0
C42 C 0.09596 0.62486 1.01759 0.0
N43 N 0.84856 0.62094 0.93061 0.0
C44 C 0.78978 0.59853 0.91155 0.0
C45 C 0.91582 0.64281 0.91165 0.0
C46 C 0.92979 0.64202 0.87215 0.0
C47 C 0.87324 0.61867 0.85207 0.0
C48 C 0.80062 0.59703 0.87183 0.0
Zn49 Zn 0.85208 0.62074 0.98884 0.0
O50 O 0.87417 0.56985 0.05411 0.0
C51 C 0.60838 0.61369 0.02353 0.0
O52 O 0.88211 0.57244 0.99117 0.0
H53 H 0.96195 0.66037 0.92736 0.0
H54 H 0.72094 0.58836 0.12265 0.0
H55 H 0.73737 0.58132 0.92729 0.0
O56 O 0.66595 0.61312 0.05492 0.0
O57 O 0.66407 0.61476 0.99183 0.0
H58 H 0.00941 0.65112 0.10656 0.0
O59 O 0.82225 0.66879 0.98749 0.0
O60 O 0.82478 0.6665 0.05038 0.0
O61 O 0.03844 0.6268 0.98638 0.0
O62 O 0.04007 0.62235 0.04897 0.0
C63 C 0.80741 0.68174 1.01912 0.0
H64 H 0.74452 0.59017 0.19292 0.0
H65 H 0.0469 0.65124 0.17552 0.0
H66 H -0.01386 0.65903 0.85748 0.0
H67 H 0.75598 0.57875 0.85683 0.0
C68 C -0.00552 0.55736 0.51912 0.0
N69 N 0.02077 0.62573 0.43181 0.0
C70 C 0.09565 0.6083 0.41091 0.0
C71 C 0.08473 0.60823 0.37105 0.0
C72 C -0.00715 0.62527 0.3529 0.0
C73 C 0.91877 0.6435 0.37508 0.0
C74 C 0.93615 0.64396 0.4145 0.0
Zn75 Zn 0.02167 0.62233 0.49033 0.0
C76 C 0.77731 0.6248 0.52108 0.0
N77 N 0.01219 0.61571 0.61224 0.0
C78 C 0.93298 0.59514 0.62832 0.0
C79 C 0.0761 0.63536 0.63409 0.0
C80 C 0.05844 0.63542 0.67364 0.0
C81 C -0.02463 0.61486 0.69051 0.0
C82 C 0.9137 0.59418 0.66767 0.0
Zn83 Zn 0.02047 0.61888 0.55392 0.0
O84 O -0.00273 0.57379 0.48828 0.0
C85 C 0.26487 0.61659 0.52382 0.0
O86 O 0.00684 0.57012 0.55108 0.0
H87 H 0.13836 0.65156 0.62075 0.0
H88 H 0.16184 0.59383 0.42519 0.0
H89 H 0.88174 0.58004 0.61049 0.0
O90 O 0.20942 0.61755 0.49199 0.0
O91 O 0.20754 0.6162 0.55511 0.0
H92 H 0.87922 0.65825 0.43135 0.0
O93 O 0.03728 0.66767 0.55528 0.0
O94 O 0.04729 0.6706 0.49304 0.0
O95 O 0.83297 0.62171 0.55257 0.0
O96 O 0.83476 0.62709 0.49001 0.0
C97 C 0.05188 0.68408 0.52473 0.0
H98 H 0.14414 0.59411 0.35469 0.0
H99 H 0.84752 0.6571 0.362 0.0
H100 H 0.10723 0.65163 0.69079 0.0
H101 H 0.84877 0.57815 0.68007 0.0
C102 C 0.82531 0.29955 0.52414 0.0
N103 N 0.87194 0.36351 0.43208 0.0
C104 C 0.92849 0.34014 0.41438 0.0
C105 C 0.95008 0.34215 0.37509 0.0
C106 C 0.91491 0.36865 0.35379 0.0
C107 C 0.85364 0.39207 0.37231 0.0
C108 C 0.83223 0.38892 0.41172 0.0
Zn109 Zn 0.87121 0.3619 0.49108 0.0
C110 C 0.62965 0.36808 0.52537 0.0
N111 N 0.88619 0.36114 0.61398 0.0
C112 C 0.94939 0.33773 0.63141 0.0
C113 C 0.84089 0.38454 0.63457 0.0
C114 C 0.8621 0.38551 0.67398 0.0
C115 C 0.92876 0.36192 0.69244 0.0
C116 C -0.02921 0.3375 0.67084 0.0
Zn117 Zn 0.87373 0.36267 0.55511 0.0
O118 O 0.83798 0.31388 0.49208 0.0
C119 C 0.11601 0.35631 0.52011 0.0
O120 O 0.84514 0.31362 0.55494 0.0
H121 H 0.79087 0.40294 0.62028 0.0
H122 H 0.96177 0.32043 0.43099 0.0
H123 H -0.01394 0.31956 0.61456 0.0
O124 O 0.05527 0.35455 0.4897 0.0
O125 O 0.06247 0.35882 0.55185 0.0
H126 H 0.78813 0.40734 0.42625 0.0
O127 O 0.89526 0.41102 0.55421 0.0
O128 O 0.90224 0.41082 0.49138 0.0
O129 O 0.68749 0.36738 0.55678 0.0
O130 O 0.68503 0.36824 0.49357 0.0
C131 C 0.9064 0.42551 0.52225 0.0
H132 H -0.00223 0.3237 0.36164 0.0
H133 H 0.82544 0.41285 0.35662 0.0
H134 H 0.82826 0.40466 0.68985 0.0
H135 H 0.02246 0.31893 0.68422 0.0
C136 C 0.51257 0.92691 0.03042 0.0
N137 N 0.55674 0.86292 0.12278 0.0
C138 C 0.48308 0.88294 0.14038 0.0
C139 C 0.47144 0.88183 0.18005 0.0
C140 C 0.53561 0.85979 0.20178 0.0
C141 C 0.61383 0.83995 0.18342 0.0
C142 C 0.62359 0.84203 0.14352 0.0
Zn143 Zn 0.55111 0.86284 0.06406 0.0
C144 C 0.30139 0.8571 0.03681 0.0
N145 N 0.52699 0.86502 0.94206 0.0
C146 C 0.57169 0.8889 0.91997 0.0
C147 C 0.46626 0.84128 0.92624 0.0
C148 C 0.44819 0.84097 0.88677 0.0
C149 C 0.49106 0.8656 0.8635 0.0
C150 C 0.55367 0.88979 0.88037 0.0
Zn151 Zn 0.54112 0.86526 1.00034 0.0
O152 O 0.53068 0.91177 0.06169 0.0
C153 C 0.78934 0.87009 0.02807 0.0
O154 O 0.51168 0.91299 0.99912 0.0
H155 H 0.43009 0.82274 0.94433 0.0
H156 H 0.43013 0.89927 0.12367 0.0
H157 H 0.61969 0.90753 0.93312 0.0
O158 O 0.73655 0.86789 0.06022 0.0
O159 O 0.72878 0.8717 0.99719 0.0
H160 H 0.68196 0.82638 0.12916 0.0
O161 O 0.57463 0.81717 1.00226 0.0
O162 O 0.57591 0.81446 0.06515 0.0
O163 O 0.35338 0.85915 1.00455 0.0
O164 O 0.3644 0.85697 0.06696 0.0
C165 C 0.59139 0.80174 0.03338 0.0
H166 H 0.41028 0.89738 0.19358 0.0
H167 H 0.6646 0.82272 0.19969 0.0
H168 H 0.3994 0.82199 0.87453 0.0
H169 H 0.58778 0.90913 0.86308 0.0
C170 C 0.41589 0.05799 0.02903 0.0
N171 N 0.39445 0.11988 0.11901 0.0
C172 C 0.47695 0.10133 0.13695 0.0
C173 C 0.49153 0.10163 0.17657 0.0
C174 C 0.42161 0.12144 0.19789 0.0
C175 C 0.33607 0.1401 0.17905 0.0
C176 C 0.32345 0.13884 0.13926 0.0
Zn177 Zn 0.39032 0.12051 0.0602 0.0
C178 C 0.63545 0.12492 0.02982 0.0
N179 N 0.39927 0.12225 0.93808 0.0
C180 C 0.33223 0.10224 0.91771 0.0
C181 C 0.48085 0.14136 0.92056 0.0
C182 C 0.50063 0.14005 0.88129 0.0
C183 C 0.43525 0.11905 0.85993 0.0
C184 C 0.34868 0.10032 0.87821 0.0
Zn185 Zn 0.39296 0.12155 0.9966 0.0
O186 O 0.41833 0.07204 0.06036 0.0
C187 C 0.14734 0.11688 0.02858 0.0
O188 O 0.39796 0.07305 0.99776 0.0
H189 H 0.53346 0.15703 0.93725 0.0
H190 H 0.53387 0.08676 0.12044 0.0
H191 H 0.2685 0.08714 0.93226 0.0
O192 O 0.20476 0.11392 0.05988 0.0
O193 O 0.20276 0.12081 0.99701 0.0
H194 H 0.25873 0.15347 0.1245 0.0
O195 O 0.38695 0.17021 0.99539 0.0
O196 O 0.35838 0.16887 0.05751 0.0
O197 O 0.58148 0.12197 0.99822 0.0
O198 O 0.57658 0.1272 0.06044 0.0
C199 C 0.35962 0.18394 0.02556 0.0
H200 H 0.55863 0.08708 0.19039 0.0
H201 H 0.28093 0.15566 0.1949 0.0
H202 H 0.56781 0.15482 0.86781 0.0
H203 H 0.29692 0.08389 0.86226 0.0
C204 C 0.5344 0.0504 0.52671 0.0
N205 N 0.56036 0.11892 0.43904 0.0
C206 C 0.61679 0.09859 0.41644 0.0
C207 C 0.5984 0.09986 0.3768 0.0
C208 C 0.52071 0.12211 0.36062 0.0
C209 C 0.46579 0.1432 0.38434 0.0
C210 C 0.48738 0.14128 0.4237 0.0
Zn211 Zn 0.57186 0.1147 0.49753 0.0
C212 C 0.32941 0.11926 0.53199 0.0
N213 N 0.57448 0.10866 0.62035 0.0
C214 C 0.49216 0.08953 0.63751 0.0
C215 C 0.64532 0.12733 0.6414 0.0
C216 C 0.63073 0.12825 0.68108 0.0
C217 C 0.54337 0.10955 0.69898 0.0
C218 C 0.47548 0.08951 0.67702 0.0
Zn219 Zn 0.57383 0.11225 0.56157 0.0
O220 O 0.54468 0.06623 0.49555 0.0
C221 C 0.81648 0.10798 0.5269 0.0
O222 O 0.54595 0.06358 0.55847 0.0
H223 H 0.71007 0.14239 0.62733 0.0
H224 H 0.67382 0.08092 0.42925 0.0
H225 H 0.43566 0.07511 0.62043 0.0
O226 O 0.75802 0.10929 0.49564 0.0
O227 O 0.76176 0.10695 0.55881 0.0
H228 H 0.44327 0.15719 0.44215 0.0
O229 O 0.60258 0.16068 0.56345 0.0
O230 O 0.60321 0.16318 0.50055 0.0
O231 O 0.38746 0.11805 0.56319 0.0
O232 O 0.38465 0.11969 0.50038 0.0
C233 C 0.61898 0.17613 0.5323 0.0
H234 H 0.64184 0.08325 0.35907 0.0
H235 H 0.40545 0.16062 0.37256 0.0
H236 H 0.68444 0.14396 0.69747 0.0
H237 H 0.40717 0.07489 0.69015 0.0
C238 C 0.34237 0.79327 0.53499 0.0
N239 N 0.39585 0.85524 0.44194 0.0
C240 C 0.47283 0.83421 0.42782 0.0
C241 C 0.49445 0.83354 0.38864 0.0
C242 C 0.43561 0.85457 0.36387 0.0
C243 C 0.35406 0.87547 0.37878 0.0
C244 C 0.33554 0.87546 0.41831 0.0
Zn245 Zn 0.38327 0.85726 0.49999 0.0
C246 C 0.13867 0.86173 0.52892 0.0
N247 N 0.37782 0.85733 0.62173 0.0
C248 C 0.43066 0.83374 0.64224 0.0
C249 C 0.33362 0.88246 0.63927 0.0
C250 C 0.34583 0.88504 0.67884 0.0
C251 C 0.40211 0.86127 0.70039 0.0
C252 C 0.44272 0.83511 0.68185 0.0
Zn253 Zn 0.38041 0.85597 0.56334 0.0
O254 O 0.36322 0.80844 0.50391 0.0
C255 C 0.62567 0.8509 0.53589 0.0
O256 O 0.34426 0.80791 0.56584 0.0
H257 H 0.29194 0.90094 0.62245 0.0
H258 H 0.51979 0.81835 0.44708 0.0
H259 H 0.46696 0.81422 0.62775 0.0
O260 O 0.57233 0.8547 0.50397 0.0
O261 O 0.56498 0.8481 0.56628 0.0
H262 H 0.27517 0.89203 0.4302 0.0
O263 O 0.41456 0.90498 0.55891 0.0
O264 O 0.3992 0.90581 0.49617 0.0
O265 O 0.19539 0.86274 0.56042 0.0
O266 O 0.19531 0.86026 0.49755 0.0
C267 C 0.41493 0.92001 0.52692 0.0
H268 H 0.55774 0.81715 0.37778 0.0
H269 H 0.30753 0.89197 0.36013 0.0
H270 H 0.31368 0.90553 0.69243 0.0
H271 H 0.48679 0.81644 0.69775 0.0
C272 C 0.52252 0.34507 1.00555 0.0
C273 C 0.46866 0.37123 1.0222 0.0
C274 C 0.66457 0.38921 0.04396 0.0
C275 C 0.71841 0.36321 0.02704 0.0
N276 N 0.70011 0.31376 0.99805 0.0
N277 N 0.48753 0.42043 0.05181 0.0
C278 C 0.64785 0.34059 1.00916 0.0
C279 C 0.5394 0.3937 0.04036 0.0
N280 N 0.45411 0.32454 0.98607 0.0
N281 N 0.73279 0.40956 0.06383 0.0
H282 H 0.39642 0.42461 0.04927 0.0
H283 H 0.53457 0.43964 0.06089 0.0
H284 H 0.82554 0.40941 0.06421 0.0
H285 H 0.69793 0.42607 0.08156 0.0
H286 H 0.48865 0.30762 0.96885 0.0
H287 H 0.36142 0.32493 0.9855 0.0
H288 H 0.65327 0.29458 0.98882 0.0
H289 H 0.79121 0.30942 1.00107 0.0
C290 C 0.29571 0.64611 0.0346 0.0
C291 C 0.22729 0.62256 1.01775 0.0
C292 C 0.40814 0.59225 1.00681 0.0
C293 C 0.47676 0.61589 0.02351 0.0
N294 N 0.48734 0.66342 0.05803 0.0
N295 N 0.21518 0.57448 0.98463 0.0
C296 C 0.42096 0.64226 0.03886 0.0
C297 C 0.28264 0.59599 1.00284 0.0
N298 N 0.24133 0.67301 0.04437 0.0
N299 N 0.46264 0.56535 0.9971 0.0
H300 H 0.12246 0.57516 0.98319 0.0
H301 H 0.25028 0.55654 0.96918 0.0
H302 H 0.5538 0.56159 1.00078 0.0
H303 H 0.41782 0.54571 0.98833 0.0
H304 H 0.28673 0.69276 0.05255 0.0
H305 H 0.14984 0.67665 0.04132 0.0
H306 H 0.45098 0.68082 0.07413 0.0
H307 H 0.57999 0.663 0.05967 0.0
C308 C 0.57962 0.64749 0.53681 0.0
C309 C 0.64611 0.62342 0.52061 0.0
C310 C 0.46341 0.59338 0.51111 0.0
C311 C 0.39611 0.61845 0.52427 0.0
N312 N 0.38616 0.67112 0.54494 0.0
N313 N 0.65186 0.57537 0.48709 0.0
C314 C 0.45305 0.64599 0.53604 0.0
C315 C 0.58814 0.59701 0.50596 0.0
N316 N 0.63747 0.67178 0.55291 0.0
N317 N 0.40876 0.56557 0.50547 0.0
H318 H 0.74428 0.57613 0.48416 0.0
H319 H 0.61231 0.55767 0.47201 0.0
H320 H 0.31809 0.56197 0.5105 0.0
H321 H 0.45457 0.54535 0.49973 0.0
H322 H 0.59494 0.68803 0.56935 0.0
H323 H 0.72978 0.67485 0.55164 0.0
H324 H 0.42184 0.69302 0.54917 0.0
H325 H 0.29331 0.67076 0.54546 0.0
C326 C 0.43071 0.3859 0.5016 0.0
C327 C 0.49805 0.36534 0.52537 0.0
C328 C 0.31473 0.33762 0.54449 0.0
C329 C 0.24839 0.35712 0.51876 0.0
N330 N 0.25133 0.39454 0.46491 0.0
N331 N 0.50778 0.31742 0.56339 0.0
C332 C 0.3086 0.37947 0.49469 0.0
C333 C 0.4412 0.34014 0.54545 0.0
N334 N 0.48194 0.41257 0.48703 0.0
N335 N 0.25721 0.3161 0.56747 0.0
H336 H 0.60053 0.31759 0.56434 0.0
H337 H 0.472 0.29666 0.57427 0.0
H338 H 0.16752 0.31028 0.56404 0.0
H339 H 0.2976 0.30469 0.59082 0.0
H340 H 0.43339 0.43021 0.47322 0.0
H341 H 0.57051 0.41864 0.49232 0.0
H342 H 0.29657 0.40767 0.44396 0.0
H343 H 0.16082 0.39266 0.45896 0.0
C344 C -0.02322 0.84254 1.00898 0.0
C345 C 0.92094 0.86747 0.02745 0.0
C346 C 0.10641 0.87804 0.06145 0.0
C347 C 0.1682 0.85679 0.03843 0.0
N348 N 0.16036 0.81756 0.99094 0.0
N349 N 0.93966 0.91312 0.06453 0.0
C350 C 0.10271 0.83884 1.01214 0.0
C351 C -0.01185 0.88649 0.05154 0.0
N352 N 0.90938 0.82123 0.99044 0.0
N353 N 0.15643 0.88917 0.0939 0.0
H354 H 0.85378 0.92046 0.05704 0.0
H355 H -0.01069 0.92948 0.07904 0.0
H356 H 0.23756 0.8818 0.10513 0.0
H357 H 0.10947 0.90266 0.11281 0.0
H358 H 0.94329 0.80054 0.98074 0.0
H359 H 0.81715 0.82263 0.98747 0.0
H360 H 0.12213 0.80727 0.96732 0.0
H361 H 0.24797 0.81065 0.99648 0.0
C362 C 0.94653 0.0915 0.03108 0.0
C363 C 0.01622 0.11885 0.02962 0.0
C364 C 0.83548 0.15045 0.02749 0.0
C365 C 0.76625 0.12315 0.03141 0.0
N366 N 0.75652 0.06868 0.04889 0.0
N367 N 0.02757 0.17382 0.03899 0.0
C368 C 0.82181 0.09388 0.03677 0.0
C369 C 0.96102 0.14827 0.03136 0.0
N370 N -0.0011 0.06339 0.02649 0.0
N371 N 0.78175 0.17837 1.02009 0.0
H372 H 0.11887 0.1726 0.04432 0.0
H373 H -0.00958 0.19532 0.0442 0.0
H374 H 0.68928 0.1809 1.01829 0.0
H375 H 0.82941 0.19852 1.01304 0.0
H376 H 0.95031 0.04297 0.02378 0.0
H377 H 0.09031 0.06099 1.02199 0.0
H378 H 0.79463 0.0474 0.05664 0.0
H379 H 0.66556 0.06992 0.05476 0.0
C380 C 0.12954 0.14169 0.51589 0.0
C381 C 0.19794 0.11697 0.53202 0.0
C382 C 0.01706 0.08559 0.54201 0.0
C383 C 0.94819 0.11043 0.52652 0.0
N384 N 0.93693 0.16072 0.49406 0.0
N385 N 0.20855 0.06672 0.56462 0.0
C386 C 0.00389 0.1381 0.51204 0.0
C387 C 0.14215 0.08934 0.54643 0.0
N388 N 0.18447 0.16925 0.50645 0.0
N389 N 0.96349 0.0576 0.54978 0.0
H390 H 0.3013 0.06702 0.56574 0.0
H391 H 0.17201 0.04815 0.58037 0.0
H392 H 0.87293 0.05388 0.54511 0.0
H393 H 0.00919 0.03733 0.55713 0.0
H394 H 0.13973 0.18953 0.49853 0.0
H395 H 0.2761 0.17269 0.50939 0.0
H396 H -0.02751 0.17967 0.47883 0.0
H397 H 0.84426 0.16009 0.49257 0.0
C398 C 0.82331 0.83082 0.51472 0.0
C399 C 0.75779 0.85141 0.53733 0.0
C400 C 0.94063 0.88044 0.55062 0.0
C401 C 0.00718 0.85898 0.5298 0.0
N402 N 0.01601 0.80921 0.50027 0.0
N403 N 0.76074 0.89064 0.58546 0.0
C404 C 0.94983 0.83295 0.51388 0.0
C405 C 0.81839 0.87445 0.55821 0.0
N406 N 0.76493 0.80876 0.4946 0.0
N407 N -0.00726 0.9074 0.56164 0.0
H408 H 0.66999 0.88877 0.59118 0.0
H409 H 0.80544 0.90468 0.6045 0.0
H410 H 0.08147 0.91309 0.55574 0.0
H411 H 0.94495 0.9255 0.57309 0.0
H412 H 0.80563 0.79611 0.47348 0.0
H413 H 0.67431 0.80386 0.498 0.0
H414 H -0.02054 0.78812 0.49255 0.0
H415 H 0.10885 0.80916 0.50002 0.0
C416 C 0.86011 0.50207 1.00259 0.0
C417 C 0.92911 0.52416 1.0222 0.0
C418 C 0.08332 0.48512 0.03607 0.0
C419 C 0.00962 0.46251 1.01945 0.0
N420 N 0.82165 0.44806 0.99089 0.0
N421 N 0.10388 0.53682 0.05962 0.0
C422 C 0.89669 0.47062 1.00349 0.0
C423 C 0.03963 0.51566 0.03975 0.0
N424 N 0.75961 0.51114 0.98298 0.0
N425 N 0.19782 0.47774 0.04641 0.0
H426 H 0.08321 0.56026 0.05991 0.0
H427 H 0.17556 0.53097 0.07742 0.0
H428 H 0.23292 0.45568 0.04358 0.0
H429 H 0.26151 0.49386 0.05451 0.0
H430 H 0.71459 0.49721 0.96394 0.0
H431 H 0.72447 0.53337 0.98386 0.0
H432 H 0.73254 0.45185 0.98372 0.0
H433 H 0.84481 0.42477 0.99042 0.0
C434 C 0.03907 0.47115 0.50851 0.0
C435 C 0.92745 0.4593 0.52114 0.0
C436 C 0.8612 0.51178 0.53437 0.0
C437 C -0.03101 0.52377 0.5182 0.0
N438 N 0.14964 0.51515 0.4826 0.0
N439 N 0.72507 0.46809 0.54099 0.0
C440 C 0.05424 0.50356 0.50276 0.0
C441 C 0.83637 0.47954 0.53275 0.0
N442 N 0.133 0.45154 0.50441 0.0
N443 N 0.78265 0.5311 0.55137 0.0
H444 H 0.70415 0.44457 0.54055 0.0
H445 H 0.65107 0.48202 0.54533 0.0
H446 H 0.79303 0.55507 0.55107 0.0
H447 H 0.71027 0.52327 0.56766 0.0
H448 H 0.21985 0.45907 0.49883 0.0
H449 H 0.12641 0.42793 0.51114 0.0
H450 H 0.20784 0.50129 0.46764 0.0
H451 H 0.16446 0.53876 0.47776 0.0
C452 C 0.56408 0.98114 1.00905 0.0
C453 C 0.48878 0.96052 0.0304 0.0
C454 C 0.36197 0.00367 0.04899 0.0
C455 C 0.43937 0.02441 0.02871 0.0
N456 N 0.61526 0.03412 0.99015 0.0
N457 N 0.31744 0.95104 0.07081 0.0
C458 C 0.54004 0.01345 1.00851 0.0
C459 C 0.38843 0.97152 0.05058 0.0
N460 N 0.65944 0.9697 0.98969 0.0
N461 N 0.25953 0.01463 0.06484 0.0
H462 H 0.32494 0.92717 0.06889 0.0
H463 H 0.2529 0.95734 0.09033 0.0
H464 H 0.23698 0.03801 0.06425 0.0
H465 H 0.1922 0.00075 0.07663 0.0
H466 H 0.71009 0.98235 0.96976 0.0
H467 H 0.68799 0.94681 0.99283 0.0
H468 H 0.69616 0.02841 0.97788 0.0
H469 H 0.60105 0.05792 0.98862 0.0
C470 C 0.58711 -0.00546 0.5391 0.0
C471 C 0.50311 0.01705 0.52614 0.0
C472 C 0.35667 0.97573 0.51514 0.0
C473 C 0.4447 0.95342 0.52518 0.0
N474 N 0.65262 0.94168 0.53453 0.0
N475 N 0.31277 0.02904 0.49638 0.0
C476 C 0.56252 0.96283 0.53378 0.0
C477 C 0.38937 0.00763 0.5123 0.0
N478 N 0.69007 0.00325 0.5568 0.0
N479 N 0.24132 0.96652 0.50944 0.0
H480 H 0.3305 0.05274 0.49524 0.0
H481 H 0.23459 0.0232 0.48211 0.0
H482 H 0.21526 0.9433 0.51042 0.0
H483 H 0.17018 0.98185 0.50646 0.0
H484 H 0.74848 0.98747 0.57003 0.0
H485 H 0.71138 0.02625 0.5615 0.0
H486 H 0.7424 0.94774 0.53687 0.0
H487 H 0.63842 0.91858 0.52811 0.0
C488 C 0.31005 0.26848 0.04801 0.0
C489 C 0.19956 0.27413 0.02871 0.0
C490 C 0.21108 0.22333 1.00016 0.0
C491 C 0.31334 0.2161 1.02324 0.0
N492 N 0.45784 0.23122 0.0704 0.0
N493 N 0.03416 0.25495 0.99226 0.0
C494 C 0.36159 0.23849 0.04769 0.0
C495 C 0.14771 0.2511 1.00614 0.0
N496 N 0.36996 0.29214 0.06472 0.0
N497 N 0.17186 0.20365 0.97295 0.0
H498 H -0.01706 0.27449 0.99725 0.0
H499 H -0.01418 0.2375 0.97935 0.0
H500 H 0.20477 0.18153 0.96936 0.0
H501 H 0.10933 0.21009 0.95206 0.0
H502 H 0.45728 0.29033 0.07479 0.0
H503 H 0.33788 0.31464 0.06542 0.0
H504 H 0.48606 0.2447 0.09286 0.0
H505 H 0.50697 0.21094 0.06789 0.0
C506 C 0.76174 0.7651 0.04615 0.0
C507 C 0.64404 0.77047 0.03186 0.0
C508 C 0.63838 0.71869 1.00557 0.0
C509 C 0.75546 0.71312 1.02031 0.0
N510 N 0.93672 0.73202 0.04825 0.0
N511 N 0.46243 0.75136 1.00435 0.0
C512 C 0.8189 0.73652 0.03924 0.0
C513 C 0.58066 0.74708 1.01295 0.0
N514 N 0.81875 0.78719 0.0666 0.0
N515 N 0.58245 0.69702 0.98414 0.0
H516 H 0.41686 0.77166 1.01014 0.0
H517 H 0.40603 0.73408 0.99475 0.0
H518 H 0.61572 0.67497 0.98017 0.0
H519 H 0.50501 0.70127 0.96834 0.0
H520 H 0.89709 0.78342 0.08207 0.0
H521 H 0.78563 0.80934 0.06987 0.0
H522 H -0.00657 0.74907 0.05822 0.0
H523 H -0.01822 0.71163 0.04263 0.0
C524 C 0.13117 0.72828 0.56288 0.0
C525 C 0.10523 0.71597 0.52666 0.0
C526 C 0.26126 0.74893 0.49773 0.0
C527 C 0.28663 0.76159 0.53377 0.0
N528 N 0.27969 0.75265 0.60221 0.0
N529 N 0.10981 0.72611 0.45836 0.0
C530 C 0.23106 0.7483 0.56694 0.0
C531 C 0.15982 0.72963 0.4936 0.0
N532 N 0.05553 0.72254 0.59285 0.0
N533 N 0.3387 0.75353 0.468 0.0
H534 H 0.02626 0.71583 0.45489 0.0
H535 H 0.14176 0.73754 0.43368 0.0
H536 H 0.42177 0.76407 0.47154 0.0
H537 H 0.32849 0.74287 0.44189 0.0
H538 H 0.06479 0.7329 0.61916 0.0
H539 H -0.0257 0.71104 0.58948 0.0
H540 H 0.2481 0.74153 0.62712 0.0
H541 H 0.36229 0.76342 0.60566 0.0
C542 C 0.65802 0.26242 0.50996 0.0
C543 C 0.77333 0.26781 0.52594 0.0
C544 C 0.78374 0.21345 0.54872 0.0
C545 C 0.66883 0.20806 0.53249 0.0
N546 N 0.48765 0.22793 0.50422 0.0
N547 N 0.95382 0.24807 0.55496 0.0
C548 C 0.60408 0.23265 0.51456 0.0
C549 C 0.83766 0.24329 0.5443 0.0
N550 N 0.60018 0.28564 0.48987 0.0
N551 N 0.84142 0.19007 0.56855 0.0
H552 H -0.00306 0.2694 0.55142 0.0
H553 H 0.01153 0.2306 0.56439 0.0
H554 H 0.81196 0.16722 0.56961 0.0
H555 H 0.91655 0.19329 0.58552 0.0
H556 H 0.52535 0.28221 0.47283 0.0
H557 H 0.62906 0.30853 0.48861 0.0
H558 H 0.42954 0.24547 0.49527 0.0
H559 H 0.44487 0.20657 0.50776 0.0
C560 C 0.89289 0.37561 0.24468 0.0
C561 C 0.01526 0.37364 0.23455 0.0
C562 C 0.07056 0.37499 0.30241 0.0
C563 C 0.94823 0.37224 0.31262 0.0
N564 N 0.7429 0.36571 0.29336 0.0
N565 N 0.22077 0.36727 0.25405 0.0
C566 C 0.85913 0.37157 0.28372 0.0
C567 C 0.1044 0.37236 0.26349 0.0
N568 N 0.80916 0.38209 0.21704 0.0
N569 N 0.15415 0.38089 0.32982 0.0
H570 H 0.24923 0.36498 0.22593 0.0
H571 H 0.28737 0.36267 0.2743 0.0
H572 H 0.13251 0.38354 0.35852 0.0
H573 H 0.24286 0.38617 0.32353 0.0
H574 H 0.72032 0.38684 0.22314 0.0
H575 H 0.83077 0.38577 0.18822 0.0
H576 H 0.67641 0.36154 0.27327 0.0
H577 H 0.71452 0.36235 0.32158 0.0
C578 C 0.92466 0.65028 0.24982 0.0
C579 C 0.91961 0.62139 0.23176 0.0
C580 C 0.94835 0.59481 0.29409 0.0
C581 C -0.02856 0.62369 0.31092 0.0
N582 N 0.01059 0.67851 0.30162 0.0
N583 N 0.95684 0.56624 0.23604 0.0
C584 C -0.03174 0.65136 0.28784 0.0
C585 C 0.94015 0.5936 0.25366 0.0
N586 N 0.88394 0.67656 0.23131 0.0
N587 N 0.92896 0.56874 0.31649 0.0
H588 H 0.95749 0.56448 0.20638 0.0
H589 H -0.01704 0.54601 0.25085 0.0
H590 H 0.9276 0.56878 0.3463 0.0
H591 H 0.90112 0.54783 0.30535 0.0
H592 H 0.87646 0.69764 0.2447 0.0
H593 H 0.84521 0.67652 0.20414 0.0
H594 H 0.01952 0.69866 0.28456 0.0
H595 H 0.04903 0.67999 0.32871 0.0
C596 C 0.82694 0.63487 0.78414 0.0
C597 C 0.8949 0.61644 0.8105 0.0
C598 C 0.02005 0.59835 0.75845 0.0
C599 C 0.94873 0.61569 0.73191 0.0
N600 N 0.77735 0.64777 0.71785 0.0
N601 N 0.04643 0.57799 0.82355 0.0
C602 C 0.85002 0.63319 0.74431 0.0
C603 C -0.01131 0.59736 0.79785 0.0
N604 N 0.74234 0.65453 0.7974 0.0
N605 N 0.11923 0.5834 0.74594 0.0
H606 H 0.02876 0.57741 0.85284 0.0
H607 H 0.10643 0.56102 0.81584 0.0
H608 H 0.14252 0.58274 0.71712 0.0
H609 H 0.18289 0.57323 0.76405 0.0
H610 H 0.69935 0.67131 0.78038 0.0
H611 H 0.71922 0.65531 0.82623 0.0
H612 H 0.69621 0.65786 0.72447 0.0
H613 H 0.79453 0.64832 0.68852 0.0
C614 C 0.07794 0.36649 0.74621 0.0
C615 C 0.95749 0.36319 0.73409 0.0
C616 C 0.89197 0.36564 0.80081 0.0
C617 C 0.01287 0.36494 0.8132 0.0
N618 N 0.22105 0.3589 0.79773 0.0
N619 N 0.75126 0.35374 0.75065 0.0
C620 C 0.10606 0.36377 0.7859 0.0
C621 C 0.86473 0.36114 0.76163 0.0
N622 N 0.16511 0.37334 0.71997 0.0
N623 N 0.80322 0.37169 0.82617 0.0
H624 H 0.72801 0.34962 0.72236 0.0
H625 H 0.6829 0.34877 0.77006 0.0
H626 H 0.81958 0.37594 0.85491 0.0
H627 H 0.71497 0.37557 0.81791 0.0
H628 H 0.25217 0.3791 0.72758 0.0
H629 H 0.14795 0.37632 0.69073 0.0
H630 H 0.29056 0.35458 0.77896 0.0
H631 H 0.24521 0.35623 0.82649 0.0
C632 C 0.58655 0.87425 0.26867 0.0
C633 C 0.51542 0.85677 0.24361 0.0
C634 C 0.3983 0.83585 0.29784 0.0
C635 C 0.46294 0.8553 0.32242 0.0
N636 N 0.61119 0.89492 0.3319 0.0
N637 N 0.34797 0.82293 0.23272 0.0
C638 C 0.55536 0.87499 0.30802 0.0
C639 C 0.41991 0.838 0.25778 0.0
N640 N 0.68499 0.88969 0.25481 0.0
N641 N 0.31789 0.81493 0.31298 0.0
H642 H 0.364 0.82285 0.20335 0.0
H643 H 0.26846 0.81194 0.24052 0.0
H644 H 0.29676 0.81347 0.34203 0.0
H645 H 0.27763 0.79765 0.2974 0.0
H646 H 0.74811 0.90018 0.27204 0.0
H647 H 0.70873 0.89017 0.22597 0.0
H648 H 0.66964 0.91234 0.32256 0.0
H649 H 0.59345 0.89543 0.36114 0.0
C650 C 0.37148 0.10467 0.26547 0.0
C651 C 0.44183 0.12316 0.23981 0.0
C652 C 0.55727 0.14296 0.29366 0.0
C653 C 0.49312 0.12266 0.31898 0.0
N654 N 0.34545 0.08261 0.3298 0.0
N655 N 0.60615 0.15836 0.22806 0.0
C656 C 0.40161 0.10312 0.3051 0.0
C657 C 0.53579 0.14198 0.25355 0.0
N658 N 0.2748 0.08898 0.25189 0.0
N659 N 0.63729 0.16352 0.30815 0.0
H660 H 0.58948 0.15948 0.19867 0.0
H661 H 0.68477 0.16956 0.23553 0.0
H662 H 0.65873 0.16404 0.33719 0.0
H663 H 0.67731 0.18136 0.292 0.0
H664 H 0.2118 0.07779 0.26931 0.0
H665 H 0.25243 0.08881 0.22291 0.0
H666 H 0.28791 0.06522 0.32115 0.0
H667 H 0.36155 0.08167 0.35922 0.0
C668 C 0.54657 0.09427 0.80699 0.0
C669 C 0.46086 0.11615 0.81859 0.0
C670 C 0.42623 0.13282 0.75169 0.0
C671 C 0.51705 0.11226 0.7403 0.0
N672 N 0.67318 0.07589 0.75634 0.0
N673 N 0.32791 0.15855 0.80349 0.0
C674 C 0.57994 0.09365 0.76777 0.0
C675 C 0.40301 0.13606 0.79132 0.0
N676 N 0.59425 0.07373 0.83348 0.0
N677 N 0.36053 0.14872 0.72447 0.0
H678 H 0.30508 0.16081 0.83216 0.0
H679 H 0.29366 0.1762 0.7857 0.0
H680 H 0.37807 0.148 0.69523 0.0
H681 H 0.28399 0.1612 0.73044 0.0
H682 H 0.64696 0.055 0.82653 0.0
H683 H 0.57482 0.07413 0.86262 0.0
H684 H 0.73143 0.06437 0.77515 0.0
H685 H 0.69773 0.07423 0.72773 0.0
C686 C 0.32705 0.8639 0.76805 0.0
C687 C 0.42404 0.86419 0.74206 0.0
C688 C 0.56528 0.86368 0.79576 0.0
C689 C 0.46856 0.86613 0.82154 0.0
N690 N 0.25903 0.8757 0.83153 0.0
N691 N 0.63471 0.87185 0.7307 0.0
C692 C 0.34974 0.86838 0.80747 0.0
C693 C 0.54309 0.86635 0.75578 0.0
N694 N 0.21383 0.85812 0.7554 0.0
N695 N 0.67759 0.85749 0.80929 0.0
H696 H 0.62181 0.87468 0.70122 0.0
H697 H 0.72157 0.87671 0.73944 0.0
H698 H 0.69744 0.85471 0.83837 0.0
H699 H 0.74876 0.85223 0.7916 0.0
H700 H 0.14179 0.85436 0.77377 0.0
H701 H 0.19359 0.85428 0.72682 0.0
H702 H 0.17276 0.88068 0.82204 0.0
H703 H 0.27246 0.87983 0.86046 0.0
loop_
_geom_bond_atom_site_label_1
_geom_bond_atom_site_label_2
_geom_bond_distance
_geom_bond_site_symmetry_2
_ccdc_geom_bond_type
C0 O16 1.251 . S
C0 O18 1.254 1_554 S
N1 C2 1.333 . S
N1 C6 1.307 . S
N1 Zn7 2.020 . S
C2 N1 1.333 . S
C2 C3 1.379 . S
C2 H20 0.952 . S
C3 C2 1.379 . S
C3 C4 1.390 . S
C3 H30 0.949 . S
C4 C3 1.390 . S
C4 C5 1.357 . S
C5 C4 1.357 . S
C5 C6 1.370 . S
C5 H31 0.950 1_455 S
C6 N1 1.307 . S
C6 C5 1.370 . S
C6 H24 0.948 1_455 S
Zn7 N1 2.020 . S
Zn7 O16 2.039 . S
Zn7 O22 2.034 . S
Zn7 O26 2.025 . S
Zn7 O28 2.024 1_455 S
C8 O27 1.246 1_554 S
C8 O28 1.249 . S
N9 C10 1.307 . S
N9 C11 1.333 . S
N9 Zn15 2.020 . S
C10 N9 1.307 . S
C10 C14 1.370 . S
C10 H21 0.948 . S
C11 N9 1.333 . S
C11 C12 1.379 . S
C11 H19 0.952 . S
C12 C11 1.379 . S
C12 C13 1.390 . S
C12 H32 0.949 1_455 S
C13 C12 1.390 . S
C13 C14 1.357 . S
C14 C10 1.370 . S
C14 C13 1.357 . S
C14 H33 0.950 . S
Zn15 N9 2.020 . S
Zn15 O18 2.025 . S
Zn15 O23 2.024 . S
Zn15 O25 2.039 . S
Zn15 O27 2.034 1_455 S
O16 C0 1.251 . S
O16 Zn7 2.039 . S
C17 O22 1.246 . S
C17 O23 1.249 1_554 S
O18 C0 1.254 1_556 S
O18 Zn15 2.025 . S
H19 C11 0.952 . S
H20 C2 0.952 . S
H21 C10 0.948 . S
O22 Zn7 2.034 . S
O22 C17 1.246 . S
O23 Zn15 2.024 . S
O23 C17 1.249 1_556 S
H24 C6 0.948 1_655 S
O25 Zn15 2.039 . S
O25 C29 1.251 1_556 S
O26 Zn7 2.025 . S
O26 C29 1.254 . S
O27 C8 1.246 1_556 S
O27 Zn15 2.034 1_655 S
O28 Zn7 2.024 1_655 S
O28 C8 1.249 . S
C29 O25 1.251 1_554 S
C29 O26 1.254 . S
H30 C3 0.949 . S
H31 C5 0.950 1_655 S
H32 C12 0.949 1_655 S
H33 C14 0.950 . S
C34 O50 1.251 . S
C34 O52 1.254 1_554 S
N35 C36 1.333 . S
N35 C40 1.307 . S
N35 Zn41 2.020 . S
C36 N35 1.333 . S
C36 C37 1.379 . S
C36 H54 0.952 . S
C37 C36 1.379 . S
C37 C38 1.390 . S
C37 H64 0.949 . S
C38 C37 1.390 . S
C38 C39 1.357 . S
C39 C38 1.357 . S
C39 C40 1.370 . S
C39 H65 0.950 1_655 S
C40 N35 1.307 . S
C40 C39 1.370 . S
C40 H58 0.948 1_655 S
Zn41 N35 2.020 . S
Zn41 O50 2.039 . S
Zn41 O56 2.034 . S
Zn41 O60 2.025 . S
Zn41 O62 2.024 1_655 S
C42 O61 1.246 1_554 S
C42 O62 1.249 . S
N43 C44 1.307 . S
N43 C45 1.333 . S
N43 Zn49 2.020 . S
C44 N43 1.307 . S
C44 C48 1.370 . S
C44 H55 0.948 . S
C45 N43 1.333 . S
C45 C46 1.379 . S
C45 H53 0.952 . S
C46 C45 1.379 . S
C46 C47 1.390 . S
C46 H66 0.949 1_655 S
C47 C46 1.390 . S
C47 C48 1.357 . S
C48 C44 1.370 . S
C48 C47 1.357 . S
C48 H67 0.950 . S
Zn49 N43 2.020 . S
Zn49 O52 2.025 . S
Zn49 O57 2.024 . S
Zn49 O59 2.039 . S
Zn49 O61 2.034 1_655 S
O50 C34 1.251 . S
O50 Zn41 2.039 . S
C51 O56 1.246 . S
C51 O57 1.249 1_554 S
O52 C34 1.254 1_556 S
O52 Zn49 2.025 . S
H53 C45 0.952 . S
H54 C36 0.952 . S
H55 C44 0.948 . S
O56 Zn41 2.034 . S
O56 C51 1.246 . S
O57 Zn49 2.024 . S
O57 C51 1.249 1_556 S
H58 C40 0.948 1_455 S
O59 Zn49 2.039 . S
O59 C63 1.256 . S
O60 Zn41 2.025 . S
O60 C63 1.248 1_554 S
O61 C42 1.246 1_556 S
O61 Zn49 2.034 1_455 S
O62 Zn41 2.024 1_455 S
O62 C42 1.249 . S
C63 O59 1.256 . S
C63 O60 1.248 1_556 S
H64 C37 0.949 . S
H65 C39 0.950 1_455 S
H66 C46 0.949 1_455 S
H67 C48 0.950 . S
C68 O84 1.251 . S
C68 O86 1.254 . S
N69 C70 1.333 . S
N69 C74 1.307 . S
N69 Zn75 2.020 . S
C70 N69 1.333 . S
C70 C71 1.379 . S
C70 H88 0.952 . S
C71 C70 1.379 . S
C71 C72 1.390 . S
C71 H98 0.949 . S
C72 C71 1.390 . S
C72 C73 1.357 . S
C73 C72 1.357 . S
C73 C74 1.370 . S
C73 H99 0.950 1_455 S
C74 N69 1.307 . S
C74 C73 1.370 . S
C74 H92 0.948 1_455 S
Zn75 N69 2.020 . S
Zn75 O84 2.039 . S
Zn75 O90 2.034 . S
Zn75 O94 2.025 . S
Zn75 O96 2.024 1_455 S
C76 O95 1.246 . S
C76 O96 1.249 . S
N77 C78 1.307 . S
N77 C79 1.333 . S
N77 Zn83 2.020 . S
C78 N77 1.307 . S
C78 C82 1.370 . S
C78 H89 0.948 . S
C79 N77 1.333 . S
C79 C80 1.379 . S
C79 H87 0.952 . S
C80 C79 1.379 . S
C80 C81 1.390 . S
C80 H100 0.949 1_455 S
C81 C80 1.390 . S
C81 C82 1.357 . S
C82 C78 1.370 . S
C82 C81 1.357 . S
C82 H101 0.950 . S
Zn83 N77 2.020 . S
Zn83 O86 2.025 . S
Zn83 O91 2.024 . S
Zn83 O93 2.039 . S
Zn83 O95 2.034 1_455 S
O84 C68 1.251 . S
O84 Zn75 2.039 . S
C85 O90 1.246 . S
C85 O91 1.249 . S
O86 C68 1.254 . S
O86 Zn83 2.025 . S
H87 C79 0.952 . S
H88 C70 0.952 . S
H89 C78 0.948 . S
O90 Zn75 2.034 . S
O90 C85 1.246 . S
O91 Zn83 2.024 . S
O91 C85 1.249 . S
H92 C74 0.948 1_655 S
O93 Zn83 2.039 . S
O93 C97 1.251 . S
O94 Zn75 2.025 . S
O94 C97 1.254 . S
O95 C76 1.246 . S
O95 Zn83 2.034 1_655 S
O96 Zn75 2.024 1_655 S
O96 C76 1.249 . S
C97 O93 1.251 . S
C97 O94 1.254 . S
H98 C71 0.949 . S
H99 C73 0.950 1_655 S
H100 C80 0.949 1_655 S
H101 C82 0.950 . S
C102 O118 1.251 . S
C102 O120 1.254 . S
N103 C104 1.333 . S
N103 C108 1.307 . S
N103 Zn109 2.020 . S
C104 N103 1.333 . S
C104 C105 1.379 . S
C104 H122 0.952 . S
C105 C104 1.379 . S
C105 C106 1.390 . S
C105 H132 0.949 1_655 S
C106 C105 1.390 . S
C106 C107 1.357 . S
C107 C106 1.357 . S
C107 C108 1.370 . S
C107 H133 0.950 . S
C108 N103 1.307 . S
C108 C107 1.370 . S
C108 H126 0.948 . S
Zn109 N103 2.020 . S
Zn109 O118 2.039 . S
Zn109 O124 2.034 1_655 S
Zn109 O128 2.025 . S
Zn109 O130 2.024 . S
C110 O129 1.246 . S
C110 O130 1.249 . S
N111 C112 1.307 . S
N111 C113 1.333 . S
N111 Zn117 2.020 . S
C112 N111 1.307 . S
C112 C116 1.370 . S
C112 H123 0.948 1_655 S
C113 N111 1.333 . S
C113 C114 1.379 . S
C113 H121 0.952 . S
C114 C113 1.379 . S
C114 C115 1.390 . S
C114 H134 0.949 . S
C115 C114 1.390 . S
C115 C116 1.357 . S
C116 C112 1.370 . S
C116 C115 1.357 . S
C116 H135 0.950 1_655 S
Zn117 N111 2.020 . S
Zn117 O120 2.025 . S
Zn117 O125 2.024 1_655 S
Zn117 O127 2.039 . S
Zn117 O129 2.034 . S
O118 C102 1.251 . S
O118 Zn109 2.039 . S
C119 O124 1.246 . S
C119 O125 1.249 . S
O120 C102 1.254 . S
O120 Zn117 2.025 . S
H121 C113 0.952 . S
H122 C104 0.952 . S
H123 C112 0.948 1_455 S
O124 Zn109 2.034 1_455 S
O124 C119 1.246 . S
O125 Zn117 2.024 1_455 S
O125 C119 1.249 . S
H126 C108 0.948 . S
O127 Zn117 2.039 . S
O127 C131 1.251 . S
O128 Zn109 2.025 . S
O128 C131 1.254 . S
O129 C110 1.246 . S
O129 Zn117 2.034 . S
O130 Zn109 2.024 . S
O130 C110 1.249 . S
C131 O127 1.251 . S
C131 O128 1.254 . S
H132 C105 0.949 1_455 S
H133 C107 0.950 . S
H134 C114 0.949 . S
H135 C116 0.950 1_455 S
C136 O152 1.251 . S
C136 O154 1.254 1_554 S
N137 C138 1.333 . S
N137 C142 1.307 . S
N137 Zn143 2.020 . S
C138 N137 1.333 . S
C138 C139 1.379 . S
C138 H156 0.952 . S
C139 C138 1.379 . S
C139 C140 1.390 . S
C139 H166 0.949 . S
C140 C139 1.390 . S
C140 C141 1.357 . S
C141 C140 1.357 . S
C141 C142 1.370 . S
C141 H167 0.950 . S
C142 N137 1.307 . S
C142 C141 1.370 . S
C142 H160 0.948 . S
Zn143 N137 2.020 . S
Zn143 O152 2.039 . S
Zn143 O158 2.034 . S
Zn143 O162 2.025 . S
Zn143 O164 2.024 . S
C144 O163 1.246 1_554 S
C144 O164 1.249 . S
N145 C146 1.307 . S
N145 C147 1.333 . S
N145 Zn151 2.020 . S
C146 N145 1.307 . S
C146 C150 1.370 . S
C146 H157 0.948 . S
C147 N145 1.333 . S
C147 C148 1.379 . S
C147 H155 0.952 . S
C148 C147 1.379 . S
C148 C149 1.390 . S
C148 H168 0.949 . S
C149 C148 1.390 . S
C149 C150 1.357 . S
C150 C146 1.370 . S
C150 C149 1.357 . S
C150 H169 0.950 . S
Zn151 N145 2.020 . S
Zn151 O154 2.025 . S
Zn151 O159 2.024 . S
Zn151 O161 2.039 . S
Zn151 O163 2.034 . S
O152 C136 1.251 . S
O152 Zn143 2.039 . S
C153 O158 1.246 . S
C153 O159 1.249 1_554 S
O154 C136 1.254 1_556 S
O154 Zn151 2.025 . S
H155 C147 0.952 . S
H156 C138 0.952 . S
H157 C146 0.948 . S
O158 Zn143 2.034 . S
O158 C153 1.246 . S
O159 Zn151 2.024 . S
O159 C153 1.249 1_556 S
H160 C142 0.948 . S
O161 Zn151 2.039 . S
O161 C165 1.251 1_556 S
O162 Zn143 2.025 . S
O162 C165 1.254 . S
O163 C144 1.246 1_556 S
O163 Zn151 2.034 . S
O164 Zn143 2.024 . S
O164 C144 1.249 . S
C165 O161 1.251 1_554 S
C165 O162 1.254 . S
H166 C139 0.949 . S
H167 C141 0.950 . S
H168 C148 0.949 . S
H169 C150 0.950 . S
C170 O186 1.251 . S
C170 O188 1.254 1_554 S
N171 C172 1.333 . S
N171 C176 1.307 . S
N171 Zn177 2.020 . S
C172 N171 1.333 . S
C172 C173 1.379 . S
C172 H190 0.952 . S
C173 C172 1.379 . S
C173 C174 1.390 . S
C173 H200 0.949 . S
C174 C173 1.390 . S
C174 C175 1.357 . S
C175 C174 1.357 . S
C175 C176 1.370 . S
C175 H201 0.950 . S
C176 N171 1.307 . S
C176 C175 1.370 . S
C176 H194 0.948 . S
Zn177 N171 2.020 . S
Zn177 O186 2.039 . S
Zn177 O192 2.034 . S
Zn177 O196 2.025 . S
Zn177 O198 2.024 . S
C178 O197 1.246 1_554 S
C178 O198 1.249 . S
N179 C180 1.307 . S
N179 C181 1.333 . S
N179 Zn185 2.020 . S
C180 N179 1.307 . S
C180 C184 1.370 . S
C180 H191 0.948 . S
C181 N179 1.333 . S
C181 C182 1.379 . S
C181 H189 0.952 . S
C182 C181 1.379 . S
C182 C183 1.390 . S
C182 H202 0.949 . S
C183 C182 1.390 . S
C183 C184 1.357 . S
C184 C180 1.370 . S
C184 C183 1.357 . S
C184 H203 0.950 . S
Zn185 N179 2.020 . S
Zn185 O188 2.025 . S
Zn185 O193 2.024 . S
Zn185 O195 2.039 . S
Zn185 O197 2.034 . S
O186 C170 1.251 . S
O186 Zn177 2.039 . S
C187 O192 1.246 . S
C187 O193 1.249 1_554 S
O188 C170 1.254 1_556 S
O188 Zn185 2.025 . S
H189 C181 0.952 . S
H190 C172 0.952 . S
H191 C180 0.948 . S
O192 Zn177 2.034 . S
O192 C187 1.246 . S
O193 Zn185 2.024 . S
O193 C187 1.249 1_556 S
H194 C176 0.948 . S
O195 Zn185 2.039 . S
O195 C199 1.256 . S
O196 Zn177 2.025 . S
O196 C199 1.248 1_554 S
O197 C178 1.246 1_556 S
O197 Zn185 2.034 . S
O198 Zn177 2.024 . S
O198 C178 1.249 . S
C199 O195 1.256 . S
C199 O196 1.248 1_556 S
H200 C173 0.949 . S
H201 C175 0.950 . S
H202 C182 0.949 . S
H203 C184 0.950 . S
C204 O220 1.251 . S
C204 O222 1.254 . S
N205 C206 1.333 . S
N205 C210 1.307 . S
N205 Zn211 2.020 . S
C206 N205 1.333 . S
C206 C207 1.379 . S
C206 H224 0.952 . S
C207 C206 1.379 . S
C207 C208 1.390 . S
C207 H234 0.949 . S
C208 C207 1.390 . S
C208 C209 1.357 . S
C209 C208 1.357 . S
C209 C210 1.370 . S
C209 H235 0.950 . S
C210 N205 1.307 . S
C210 C209 1.370 . S
C210 H228 0.948 . S
Zn211 N205 2.020 . S
Zn211 O220 2.039 . S
Zn211 O226 2.034 . S
Zn211 O230 2.025 . S
Zn211 O232 2.024 . S
C212 O231 1.246 . S
C212 O232 1.249 . S
N213 C214 1.307 . S
N213 C215 1.333 . S
N213 Zn219 2.020 . S
C214 N213 1.307 . S
C214 C218 1.370 . S
C214 H225 0.948 . S
C215 N213 1.333 . S
C215 C216 1.379 . S
C215 H223 0.952 . S
C216 C215 1.379 . S
C216 C217 1.390 . S
C216 H236 0.949 . S
C217 C216 1.390 . S
C217 C218 1.357 . S
C218 C214 1.370 . S
C218 C217 1.357 . S
C218 H237 0.950 . S
Zn219 N213 2.020 . S
Zn219 O222 2.025 . S
Zn219 O227 2.024 . S
Zn219 O229 2.039 . S
Zn219 O231 2.034 . S
O220 C204 1.251 . S
O220 Zn211 2.039 . S
C221 O226 1.246 . S
C221 O227 1.249 . S
O222 C204 1.254 . S
O222 Zn219 2.025 . S
H223 C215 0.952 . S
H224 C206 0.952 . S
H225 C214 0.948 . S
O226 Zn211 2.034 . S
O226 C221 1.246 . S
O227 Zn219 2.024 . S
O227 C221 1.249 . S
H228 C210 0.948 . S
O229 Zn219 2.039 . S
O229 C233 1.251 . S
O230 Zn211 2.025 . S
O230 C233 1.254 . S
O231 C212 1.246 . S
O231 Zn219 2.034 . S
O232 Zn211 2.024 . S
O232 C212 1.249 . S
C233 O229 1.251 . S
C233 O230 1.254 . S
H234 C207 0.949 . S
H235 C209 0.950 . S
H236 C216 0.949 . S
H237 C218 0.950 . S
C238 O254 1.251 . S
C238 O256 1.254 . S
N239 C240 1.333 . S
N239 C244 1.307 . S
N239 Zn245 2.020 . S
C240 N239 1.333 . S
C240 C241 1.379 . S
C240 H258 0.952 . S
C241 C240 1.379 . S
C241 C242 1.390 . S
C241 H268 0.949 . S
C242 C241 1.390 . S
C242 C243 1.357 . S
C243 C242 1.357 . S
C243 C244 1.370 . S
C243 H269 0.950 . S
C244 N239 1.307 . S
C244 C243 1.370 . S
C244 H262 0.948 . S
Zn245 N239 2.020 . S
Zn245 O254 2.039 . S
Zn245 O260 2.034 . S
Zn245 O264 2.025 . S
Zn245 O266 2.024 . S
C246 O265 1.246 . S
C246 O266 1.249 . S
N247 C248 1.307 . S
N247 C249 1.333 . S
N247 Zn253 2.020 . S
C248 N247 1.307 . S
C248 C252 1.370 . S
C248 H259 0.948 . S
C249 N247 1.333 . S
C249 C250 1.379 . S
C249 H257 0.952 . S
C250 C249 1.379 . S
C250 C251 1.390 . S
C250 H270 0.949 . S
C251 C250 1.390 . S
C251 C252 1.357 . S
C252 C248 1.370 . S
C252 C251 1.357 . S
C252 H271 0.950 . S
Zn253 N247 2.020 . S
Zn253 O256 2.025 . S
Zn253 O261 2.024 . S
Zn253 O263 2.039 . S
Zn253 O265 2.034 . S
O254 C238 1.251 . S
O254 Zn245 2.039 . S
C255 O260 1.246 . S
C255 O261 1.249 . S
O256 C238 1.254 . S
O256 Zn253 2.025 . S
H257 C249 0.952 . S
H258 C240 0.952 . S
H259 C248 0.948 . S
O260 Zn245 2.034 . S
O260 C255 1.246 . S
O261 Zn253 2.024 . S
O261 C255 1.249 . S
H262 C244 0.948 . S
O263 Zn253 2.039 . S
O263 C267 1.251 . S
O264 Zn245 2.025 . S
O264 C267 1.254 . S
O265 C246 1.246 . S
O265 Zn253 2.034 . S
O266 Zn245 2.024 . S
O266 C246 1.249 . S
C267 O263 1.251 . S
C267 O264 1.254 . S
H268 C241 0.949 . S
H269 C243 0.950 . S
H270 C250 0.949 . S
H271 C252 0.950 . S
C272 C273 1.363 1_556 S
C272 C278 1.379 . S
C272 N280 1.356 . S
C273 C272 1.363 1_554 S
C273 C279 1.363 . S
C274 C275 1.363 . S
C274 C279 1.379 . S
C274 N281 1.356 . S
C275 C274 1.363 . S
C275 C278 1.363 1_554 S
N276 C278 1.356 . S
N276 H288 0.984 . S
N276 H289 0.985 . S
N277 C279 1.356 . S
N277 H282 0.984 . S
N277 H283 0.985 . S
C278 C272 1.379 . S
C278 C275 1.363 1_556 S
C278 N276 1.356 . S
C279 C273 1.363 . S
C279 C274 1.379 . S
C279 N277 1.356 . S
N280 C272 1.356 . S
N280 H286 0.984 . S
N280 H287 0.984 . S
N281 C274 1.356 . S
N281 H284 0.984 . S
N281 H285 0.985 . S
H282 N277 0.984 . S
H283 N277 0.985 . S
H284 N281 0.984 . S
H285 N281 0.985 . S
H286 N280 0.984 . S
H287 N280 0.984 . S
H288 N276 0.984 . S
H289 N276 0.985 . S
C290 C291 1.363 . S
C290 C296 1.379 . S
C290 N298 1.356 . S
C291 C290 1.363 . S
C291 C297 1.363 1_554 S
C292 C293 1.363 1_556 S
C292 C297 1.379 . S
C292 N299 1.356 . S
C293 C292 1.363 1_554 S
C293 C296 1.363 . S
N294 C296 1.356 . S
N294 H306 0.984 . S
N294 H307 0.985 . S
N295 C297 1.356 . S
N295 H300 0.984 . S
N295 H301 0.985 . S
C296 C290 1.379 . S
C296 C293 1.363 . S
C296 N294 1.356 . S
C297 C291 1.363 1_556 S
C297 C292 1.379 . S
C297 N295 1.356 . S
N298 C290 1.356 . S
N298 H304 0.984 . S
N298 H305 0.984 . S
N299 C292 1.356 . S
N299 H302 0.984 . S
N299 H303 0.985 . S
H300 N295 0.984 . S
H301 N295 0.985 . S
H302 N299 0.984 . S
H303 N299 0.985 . S
H304 N298 0.984 . S
H305 N298 0.984 . S
H306 N294 0.984 . S
H307 N294 0.985 . S
C308 C309 1.363 . S
C308 C314 1.379 . S
C308 N316 1.356 . S
C309 C308 1.363 . S
C309 C315 1.363 . S
C310 C311 1.363 . S
C310 C315 1.379 . S
C310 N317 1.356 . S
C311 C310 1.363 . S
C311 C314 1.363 . S
N312 C314 1.356 . S
N312 H324 0.984 . S
N312 H325 0.985 . S
N313 C315 1.356 . S
N313 H318 0.984 . S
N313 H319 0.985 . S
C314 C308 1.379 . S
C314 C311 1.363 . S
C314 N312 1.356 . S
C315 C309 1.363 . S
C315 C310 1.379 . S
C315 N313 1.356 . S
N316 C308 1.356 . S
N316 H322 0.984 . S
N316 H323 0.984 . S
N317 C310 1.356 . S
N317 H320 0.984 . S
N317 H321 0.985 . S
H318 N313 0.984 . S
H319 N313 0.985 . S
H320 N317 0.984 . S
H321 N317 0.985 . S
H322 N316 0.984 . S
H323 N316 0.984 . S
H324 N312 0.984 . S
H325 N312 0.985 . S
C326 C327 1.363 . S
C326 C332 1.379 . S
C326 N334 1.356 . S
C327 C326 1.363 . S
C327 C333 1.363 . S
C328 C329 1.363 . S
C328 C333 1.379 . S
C328 N335 1.356 . S
C329 C328 1.363 . S
C329 C332 1.363 . S
N330 C332 1.356 . S
N330 H342 0.984 . S
N330 H343 0.985 . S
N331 C333 1.356 . S
N331 H336 0.984 . S
N331 H337 0.985 . S
C332 C326 1.379 . S
C332 C329 1.363 . S
C332 N330 1.356 . S
C333 C327 1.363 . S
C333 C328 1.379 . S
C333 N331 1.356 . S
N334 C326 1.356 . S
N334 H340 0.984 . S
N334 H341 0.984 . S
N335 C328 1.356 . S
N335 H338 0.984 . S
N335 H339 0.985 . S
H336 N331 0.984 . S
H337 N331 0.985 . S
H338 N335 0.984 . S
H339 N335 0.985 . S
H340 N334 0.984 . S
H341 N334 0.984 . S
H342 N330 0.984 . S
H343 N330 0.985 . S
C344 C345 1.363 1_556 S
C344 C350 1.379 1_655 S
C344 N352 1.356 . S
C345 C344 1.363 1_554 S
C345 C351 1.363 1_655 S
C346 C347 1.363 . S
C346 C351 1.379 . S
C346 N353 1.356 . S
C347 C346 1.363 . S
C347 C350 1.363 1_554 S
N348 C350 1.356 . S
N348 H360 0.984 . S
N348 H361 0.985 . S
N349 C351 1.356 1_655 S
N349 H354 0.984 . S
N349 H355 0.985 . S
C350 C344 1.379 1_455 S
C350 C347 1.363 1_556 S
C350 N348 1.356 . S
C351 C345 1.363 1_455 S
C351 C346 1.379 . S
C351 N349 1.356 1_455 S
N352 C344 1.356 . S
N352 H358 0.984 . S
N352 H359 0.984 . S
N353 C346 1.356 . S
N353 H356 0.984 . S
N353 H357 0.985 . S
H354 N349 0.984 . S
H355 N349 0.985 . S
H356 N353 0.984 . S
H357 N353 0.985 . S
H358 N352 0.984 . S
H359 N352 0.984 . S
H360 N348 0.984 . S
H361 N348 0.985 . S
C362 C363 1.363 1_655 S
C362 C368 1.379 . S
C362 N370 1.356 1_655 S
C363 C362 1.363 1_455 S
C363 C369 1.363 1_554 S
C364 C365 1.363 1_556 S
C364 C369 1.379 1_655 S
C364 N371 1.356 . S
C365 C364 1.363 1_554 S
C365 C368 1.363 . S
N366 C368 1.356 . S
N366 H378 0.984 . S
N366 H379 0.985 . S
N367 C369 1.356 . S
N367 H372 0.984 . S
N367 H373 0.985 . S
C368 C362 1.379 . S
C368 C365 1.363 . S
C368 N366 1.356 . S
C369 C363 1.363 1_556 S
C369 C364 1.379 1_455 S
C369 N367 1.356 . S
N370 C362 1.356 1_455 S
N370 H376 0.984 . S
N370 H377 0.984 . S
N371 C364 1.356 . S
N371 H374 0.984 . S
N371 H375 0.985 . S
H372 N367 0.984 . S
H373 N367 0.985 . S
H374 N371 0.984 . S
H375 N371 0.985 . S
H376 N370 0.984 . S
H377 N370 0.984 . S
H378 N366 0.984 . S
H379 N366 0.985 . S
C380 C381 1.363 . S
C380 C386 1.379 1_455 S
C380 N388 1.356 . S
C381 C380 1.363 . S
C381 C387 1.363 . S
C382 C383 1.363 1_455 S
C382 C387 1.379 . S
C382 N389 1.356 1_455 S
C383 C382 1.363 1_655 S
C383 C386 1.363 . S
N384 C386 1.356 . S
N384 H396 0.984 . S
N384 H397 0.985 . S
N385 C387 1.356 . S
N385 H390 0.984 . S
N385 H391 0.985 . S
C386 C380 1.379 1_655 S
C386 C383 1.363 . S
C386 N384 1.356 . S
C387 C381 1.363 . S
C387 C382 1.379 . S
C387 N385 1.356 . S
N388 C380 1.356 . S
N388 H394 0.984 . S
N388 H395 0.984 . S
N389 C382 1.356 1_655 S
N389 H392 0.984 . S
N389 H393 0.985 . S
H390 N385 0.984 . S
H391 N385 0.985 . S
H392 N389 0.984 . S
H393 N389 0.985 . S
H394 N388 0.984 . S
H395 N388 0.984 . S
H396 N384 0.984 . S
H397 N384 0.985 . S
C398 C399 1.363 . S
C398 C404 1.379 1_655 S
C398 N406 1.356 . S
C399 C398 1.363 . S
C399 C405 1.363 . S
C400 C401 1.363 1_655 S
C400 C405 1.379 . S
C400 N407 1.356 1_655 S
C401 C400 1.363 1_455 S
C401 C404 1.363 . S
N402 C404 1.356 . S
N402 H414 0.984 . S
N402 H415 0.985 . S
N403 C405 1.356 . S
N403 H408 0.984 . S
N403 H409 0.985 . S
C404 C398 1.379 1_455 S
C404 C401 1.363 . S
C404 N402 1.356 . S
C405 C399 1.363 . S
C405 C400 1.379 . S
C405 N403 1.356 . S
N406 C398 1.356 . S
N406 H412 0.984 . S
N406 H413 0.984 . S
N407 C400 1.356 1_455 S
N407 H410 0.984 . S
N407 H411 0.985 . S
H408 N403 0.984 . S
H409 N403 0.985 . S
H410 N407 0.984 . S
H411 N407 0.985 . S
H412 N406 0.984 . S
H413 N406 0.984 . S
H414 N402 0.984 . S
H415 N402 0.985 . S
C416 C417 1.363 1_556 S
C416 C422 1.379 . S
C416 N424 1.356 . S
C417 C416 1.363 1_554 S
C417 C423 1.363 1_655 S
C418 C419 1.363 . S
C418 C423 1.379 . S
C418 N425 1.356 . S
C419 C418 1.363 . S
C419 C422 1.363 1_454 S
N420 C422 1.356 . S
N420 H432 0.984 . S
N420 H433 0.985 . S
N421 C423 1.356 . S
N421 H426 0.984 . S
N421 H427 0.985 . S
C422 C416 1.379 . S
C422 C419 1.363 1_656 S
C422 N420 1.356 . S
C423 C417 1.363 1_455 S
C423 C418 1.379 . S
C423 N421 1.356 . S
N424 C416 1.356 . S
N424 H430 0.984 . S
N424 H431 0.984 . S
N425 C418 1.356 . S
N425 H428 0.984 . S
N425 H429 0.985 . S
H426 N421 0.984 . S
H427 N421 0.985 . S
H428 N425 0.984 . S
H429 N425 0.985 . S
H430 N424 0.984 . S
H431 N424 0.984 . S
H432 N420 0.984 . S
H433 N420 0.985 . S
C434 C435 1.363 1_455 S
C434 C440 1.379 . S
C434 N442 1.356 . S
C435 C434 1.363 1_655 S
C435 C441 1.363 . S
C436 C437 1.363 1_655 S
C436 C441 1.379 . S
C436 N443 1.356 . S
C437 C436 1.363 1_455 S
C437 C440 1.363 . S
N438 C440 1.356 . S
N438 H450 0.984 . S
N438 H451 0.985 . S
N439 C441 1.356 . S
N439 H444 0.984 . S
N439 H445 0.985 . S
C440 C434 1.379 . S
C440 C437 1.363 . S
C440 N438 1.356 . S
C441 C435 1.363 . S
C441 C436 1.379 . S
C441 N439 1.356 . S
N442 C434 1.356 . S
N442 H448 0.984 . S
N442 H449 0.984 . S
N443 C436 1.356 . S
N443 H446 0.984 . S
N443 H447 0.985 . S
H444 N439 0.984 . S
H445 N439 0.985 . S
H446 N443 0.984 . S
H447 N443 0.985 . S
H448 N442 0.984 . S
H449 N442 0.984 . S
H450 N438 0.984 . S
H451 N438 0.985 . S
C452 C453 1.363 1_556 S
C452 C458 1.379 1_565 S
C452 N460 1.356 . S
C453 C452 1.363 1_554 S
C453 C459 1.363 . S
C454 C455 1.363 . S
C454 C459 1.379 1_545 S
C454 N461 1.356 . S
C455 C454 1.363 . S
C455 C458 1.363 1_554 S
N456 C458 1.356 . S
N456 H468 0.984 . S
N456 H469 0.985 . S
N457 C459 1.356 . S
N457 H462 0.984 . S
N457 H463 0.985 . S
C458 C452 1.379 1_545 S
C458 C455 1.363 1_556 S
C458 N456 1.356 . S
C459 C453 1.363 . S
C459 C454 1.379 1_565 S
C459 N457 1.356 . S
N460 C452 1.356 . S
N460 H466 0.984 . S
N460 H467 0.984 . S
N461 C454 1.356 . S
N461 H464 0.984 . S
N461 H465 0.985 . S
H462 N457 0.984 . S
H463 N457 0.985 . S
H464 N461 0.984 . S
H465 N461 0.985 . S
H466 N460 0.984 . S
H467 N460 0.984 . S
H468 N456 0.984 . S
H469 N456 0.985 . S
C470 C471 1.363 . S
C470 C476 1.379 1_545 S
C470 N478 1.356 . S
C471 C470 1.363 . S
C471 C477 1.363 . S
C472 C473 1.363 . S
C472 C477 1.379 1_565 S
C472 N479 1.356 . S
C473 C472 1.363 . S
C473 C476 1.363 . S
N474 C476 1.356 . S
N474 H486 0.984 . S
N474 H487 0.985 . S
N475 C477 1.356 . S
N475 H480 0.984 . S
N475 H481 0.985 . S
C476 C470 1.379 1_565 S
C476 C473 1.363 . S
C476 N474 1.356 . S
C477 C471 1.363 . S
C477 C472 1.379 1_545 S
C477 N475 1.356 . S
N478 C470 1.356 . S
N478 H484 0.984 . S
N478 H485 0.984 . S
N479 C472 1.356 . S
N479 H482 0.984 . S
N479 H483 0.985 . S
H480 N475 0.984 . S
H481 N475 0.985 . S
H482 N479 0.984 . S
H483 N479 0.985 . S
H484 N478 0.984 . S
H485 N478 0.984 . S
H486 N474 0.984 . S
H487 N474 0.985 . S
C488 C489 1.363 . S
C488 C494 1.379 . S
C488 N496 1.356 . S
C489 C488 1.363 . S
C489 C495 1.363 1_554 S
C490 C491 1.383 . S
C490 C495 1.379 . S
C490 N497 1.356 . S
C491 C490 1.383 . S
C491 C494 1.342 1_556 S
N492 C494 1.356 . S
N492 H504 0.984 . S
N492 H505 0.985 . S
N493 C495 1.356 . S
N493 H498 0.984 . S
N493 H499 0.985 . S
C494 C488 1.379 . S
C494 C491 1.342 1_554 S
C494 N492 1.356 . S
C495 C489 1.363 1_556 S
C495 C490 1.379 . S
C495 N493 1.356 . S
N496 C488 1.356 . S
N496 H502 0.984 . S
N496 H503 0.984 . S
N497 C490 1.356 . S
N497 H500 0.984 . S
N497 H501 0.985 . S
H498 N493 0.984 . S
H499 N493 0.985 . S
H500 N497 0.984 . S
H501 N497 0.985 . S
H502 N496 0.984 . S
H503 N496 0.984 . S
H504 N492 0.984 . S
H505 N492 0.985 . S
C506 C507 1.363 . S
C506 C512 1.379 . S
C506 N514 1.356 . S
C507 C506 1.363 . S
C507 C513 1.363 1_554 S
C508 C509 1.383 . S
C508 C513 1.379 . S
C508 N515 1.356 . S
C509 C508 1.383 . S
C509 C512 1.342 1_556 S
N510 C512 1.356 . S
N510 H522 0.984 . S
N510 H523 0.985 . S
N511 C513 1.356 . S
N511 H516 0.984 . S
N511 H517 0.985 . S
C512 C506 1.379 . S
C512 C509 1.342 1_554 S
C512 N510 1.356 . S
C513 C507 1.363 1_556 S
C513 C508 1.379 . S
C513 N511 1.356 . S
N514 C506 1.356 . S
N514 H520 0.984 . S
N514 H521 0.984 . S
N515 C508 1.356 . S
N515 H518 0.984 . S
N515 H519 0.985 . S
H516 N511 0.984 . S
H517 N511 0.985 . S
H518 N515 0.984 . S
H519 N515 0.985 . S
H520 N514 0.984 . S
H521 N514 0.984 . S
H522 N510 0.984 . S
H523 N510 0.985 . S
C524 C525 1.363 . S
C524 C530 1.379 . S
C524 N532 1.356 . S
C525 C524 1.363 . S
C525 C531 1.363 . S
C526 C527 1.363 . S
C526 C531 1.379 . S
C526 N533 1.356 . S
C527 C526 1.363 . S
C527 C530 1.363 . S
N528 C530 1.356 . S
N528 H540 0.984 . S
N528 H541 0.985 . S
N529 C531 1.356 . S
N529 H534 0.984 . S
N529 H535 0.985 . S
C530 C524 1.379 . S
C530 C527 1.363 . S
C530 N528 1.356 . S
C531 C525 1.363 . S
C531 C526 1.379 . S
C531 N529 1.356 . S
N532 C524 1.356 . S
N532 H538 0.984 . S
N532 H539 0.984 . S
N533 C526 1.356 . S
N533 H536 0.984 . S
N533 H537 0.985 . S
H534 N529 0.984 . S
H535 N529 0.985 . S
H536 N533 0.984 . S
H537 N533 0.985 . S
H538 N532 0.984 . S
H539 N532 0.984 . S
H540 N528 0.984 . S
H541 N528 0.985 . S
C542 C543 1.363 . S
C542 C548 1.379 . S
C542 N550 1.356 . S
C543 C542 1.363 . S
C543 C549 1.363 . S
C544 C545 1.363 . S
C544 C549 1.379 . S
C544 N551 1.356 . S
C545 C544 1.363 . S
C545 C548 1.363 . S
N546 C548 1.356 . S
N546 H558 0.984 . S
N546 H559 0.985 . S
N547 C549 1.356 . S
N547 H552 0.984 . S
N547 H553 0.985 . S
C548 C542 1.379 . S
C548 C545 1.363 . S
C548 N546 1.356 . S
C549 C543 1.363 . S
C549 C544 1.379 . S
C549 N547 1.356 . S
N550 C542 1.356 . S
N550 H556 0.984 . S
N550 H557 0.984 . S
N551 C544 1.356 . S
N551 H554 0.984 . S
N551 H555 0.985 . S
H552 N547 0.984 . S
H553 N547 0.985 . S
H554 N551 0.984 . S
H555 N551 0.985 . S
H556 N550 0.984 . S
H557 N550 0.984 . S
H558 N546 0.984 . S
H559 N546 0.985 . S
C560 C561 1.363 1_655 S
C560 C566 1.379 . S
C560 N568 1.356 . S
C561 C560 1.363 1_455 S
C561 C567 1.363 . S
C562 C563 1.363 1_455 S
C562 C567 1.379 . S
C562 N569 1.356 . S
C563 C562 1.363 1_655 S
C563 C566 1.363 . S
N564 C566 1.356 . S
N564 H576 0.984 . S
N564 H577 0.985 . S
N565 C567 1.356 . S
N565 H570 0.984 . S
N565 H571 0.985 . S
C566 C560 1.379 . S
C566 C563 1.363 . S
C566 N564 1.356 . S
C567 C561 1.363 . S
C567 C562 1.379 . S
C567 N565 1.356 . S
N568 C560 1.356 . S
N568 H574 0.984 . S
N568 H575 0.984 . S
N569 C562 1.356 . S
N569 H572 0.984 . S
N569 H573 0.985 . S
H570 N565 0.984 . S
H571 N565 0.985 . S
H572 N569 0.984 . S
H573 N569 0.985 . S
H574 N568 0.984 . S
H575 N568 0.984 . S
H576 N564 0.984 . S
H577 N564 0.985 . S
C578 C579 1.363 1_455 S
C578 C584 1.379 . S
C578 N586 1.356 1_455 S
C579 C578 1.363 1_655 S
C579 C585 1.363 . S
C580 C581 1.363 1_655 S
C580 C585 1.379 . S
C580 N587 1.356 1_655 S
C581 C580 1.363 1_455 S
C581 C584 1.363 . S
N582 C584 1.356 . S
N582 H594 0.984 . S
N582 H595 0.985 . S
N583 C585 1.356 . S
N583 H588 0.984 . S
N583 H589 0.985 . S
C584 C578 1.379 . S
C584 C581 1.363 . S
C584 N582 1.356 . S
C585 C579 1.363 . S
C585 C580 1.379 . S
C585 N583 1.356 . S
N586 C578 1.356 1_655 S
N586 H592 0.984 1_655 S
N586 H593 0.984 . S
N587 C580 1.356 1_455 S
N587 H590 0.984 . S
N587 H591 0.985 1_455 S
H588 N583 0.984 . S
H589 N583 0.985 . S
H590 N587 0.984 . S
H591 N587 0.985 1_655 S
H592 N586 0.984 1_455 S
H593 N586 0.984 . S
H594 N582 0.984 . S
H595 N582 0.985 . S
C596 C597 1.363 . S
C596 C602 1.379 . S
C596 N604 1.356 . S
C597 C596 1.363 . S
C597 C603 1.363 1_655 S
C598 C599 1.363 . S
C598 C603 1.379 . S
C598 N605 1.356 . S
C599 C598 1.363 . S
C599 C602 1.363 1_455 S
N600 C602 1.356 . S
N600 H612 0.984 . S
N600 H613 0.985 . S
N601 C603 1.356 . S
N601 H606 0.984 . S
N601 H607 0.985 . S
C602 C596 1.379 . S
C602 C599 1.363 1_655 S
C602 N600 1.356 . S
C603 C597 1.363 1_455 S
C603 C598 1.379 . S
C603 N601 1.356 . S
N604 C596 1.356 . S
N604 H610 0.984 . S
N604 H611 0.984 . S
N605 C598 1.356 . S
N605 H608 0.984 . S
N605 H609 0.985 . S
H606 N601 0.984 . S
H607 N601 0.985 . S
H608 N605 0.984 . S
H609 N605 0.985 . S
H610 N604 0.984 . S
H611 N604 0.984 . S
H612 N600 0.984 . S
H613 N600 0.985 . S
C614 C615 1.363 1_455 S
C614 C620 1.379 . S
C614 N622 1.356 . S
C615 C614 1.363 1_655 S
C615 C621 1.363 . S
C616 C617 1.363 1_655 S
C616 C621 1.379 . S
C616 N623 1.356 . S
C617 C616 1.363 1_455 S
C617 C620 1.363 . S
N618 C620 1.356 . S
N618 H630 0.984 . S
N618 H631 0.985 . S
N619 C621 1.356 . S
N619 H624 0.984 . S
N619 H625 0.985 . S
C620 C614 1.379 . S
C620 C617 1.363 . S
C620 N618 1.356 . S
C621 C615 1.363 . S
C621 C616 1.379 . S
C621 N619 1.356 . S
N622 C614 1.356 . S
N622 H628 0.984 . S
N622 H629 0.984 . S
N623 C616 1.356 . S
N623 H626 0.984 . S
N623 H627 0.985 . S
H624 N619 0.984 . S
H625 N619 0.985 . S
H626 N623 0.984 . S
H627 N623 0.985 . S
H628 N622 0.984 . S
H629 N622 0.984 . S
H630 N618 0.984 . S
H631 N618 0.985 . S
C632 C633 1.363 . S
C632 C638 1.379 . S
C632 N640 1.356 . S
C633 C632 1.363 . S
C633 C639 1.363 . S
C634 C635 1.363 . S
C634 C639 1.379 . S
C634 N641 1.356 . S
C635 C634 1.363 . S
C635 C638 1.363 . S
N636 C638 1.356 . S
N636 H648 0.984 . S
N636 H649 0.985 . S
N637 C639 1.356 . S
N637 H642 0.984 . S
N637 H643 0.985 . S
C638 C632 1.379 . S
C638 C635 1.363 . S
C638 N636 1.356 . S
C639 C633 1.363 . S
C639 C634 1.379 . S
C639 N637 1.356 . S
N640 C632 1.356 . S
N640 H646 0.984 . S
N640 H647 0.984 . S
N641 C634 1.356 . S
N641 H644 0.984 . S
N641 H645 0.985 . S
H642 N637 0.984 . S
H643 N637 0.985 . S
H644 N641 0.984 . S
H645 N641 0.985 . S
H646 N640 0.984 . S
H647 N640 0.984 . S
H648 N636 0.984 . S
H649 N636 0.985 . S
C650 C651 1.363 . S
C650 C656 1.379 . S
C650 N658 1.356 . S
C651 C650 1.363 . S
C651 C657 1.363 . S
C652 C653 1.363 . S
C652 C657 1.379 . S
C652 N659 1.356 . S
C653 C652 1.363 . S
C653 C656 1.363 . S
N654 C656 1.356 . S
N654 H666 0.984 . S
N654 H667 0.985 . S
N655 C657 1.356 . S
N655 H660 0.984 . S
N655 H661 0.985 . S
C656 C650 1.379 . S
C656 C653 1.363 . S
C656 N654 1.356 . S
C657 C651 1.363 . S
C657 C652 1.379 . S
C657 N655 1.356 . S
N658 C650 1.356 . S
N658 H664 0.984 . S
N658 H665 0.984 . S
N659 C652 1.356 . S
N659 H662 0.984 . S
N659 H663 0.985 . S
H660 N655 0.984 . S
H661 N655 0.985 . S
H662 N659 0.984 . S
H663 N659 0.985 . S
H664 N658 0.984 . S
H665 N658 0.984 . S
H666 N654 0.984 . S
H667 N654 0.985 . S
C668 C669 1.363 . S
C668 C674 1.379 . S
C668 N676 1.356 . S
C669 C668 1.363 . S
C669 C675 1.363 . S
C670 C671 1.363 . S
C670 C675 1.379 . S
C670 N677 1.356 . S
C671 C670 1.363 . S
C671 C674 1.363 . S
N672 C674 1.356 . S
N672 H684 0.984 . S
N672 H685 0.985 . S
N673 C675 1.356 . S
N673 H678 0.984 . S
N673 H679 0.985 . S
C674 C668 1.379 . S
C674 C671 1.363 . S
C674 N672 1.356 . S
C675 C669 1.363 . S
C675 C670 1.379 . S
C675 N673 1.356 . S
N676 C668 1.356 . S
N676 H682 0.984 . S
N676 H683 0.984 . S
N677 C670 1.356 . S
N677 H680 0.984 . S
N677 H681 0.985 . S
H678 N673 0.984 . S
H679 N673 0.985 . S
H680 N677 0.984 . S
H681 N677 0.985 . S
H682 N676 0.984 . S
H683 N676 0.984 . S
H684 N672 0.984 . S
H685 N672 0.985 . S
C686 C687 1.363 . S
C686 C692 1.379 . S
C686 N694 1.356 . S
C687 C686 1.363 . S
C687 C693 1.363 . S
C688 C689 1.363 . S
C688 C693 1.379 . S
C688 N695 1.356 . S
C689 C688 1.363 . S
C689 C692 1.363 . S
N690 C692 1.356 . S
N690 H702 0.984 . S
N690 H703 0.985 . S
N691 C693 1.356 . S
N691 H696 0.984 . S
N691 H697 0.985 . S
C692 C686 1.379 . S
C692 C689 1.363 . S
C692 N690 1.356 . S
C693 C687 1.363 . S
C693 C688 1.379 . S
C693 N691 1.356 . S
N694 C686 1.356 . S
N694 H700 0.984 . S
N694 H701 0.984 . S
N695 C688 1.356 . S
N695 H698 0.984 . S
N695 H699 0.985 . S
H696 N691 0.984 . S
H697 N691 0.985 . S
H698 N695 0.984 . S
H699 N695 0.985 . S
H700 N694 0.984 . S
H701 N694 0.984 . S
H702 N690 0.984 . S
H703 N690 0.985 . S
C273 C17 1.284 . S
C275 C8 1.284 . S
C291 C42 1.284 . S
C293 C51 1.284 . S
C309 C76 1.284 . S
C311 C85 1.284 . S
C327 C110 1.284 . S
C329 C119 1.284 . S
C345 C153 1.284 . S
C347 C144 1.284 . S
C363 C187 1.284 . S
C365 C178 1.284 . S
C381 C212 1.284 . S
C383 C221 1.284 . S
C399 C255 1.284 . S
C401 C246 1.284 . S
C417 C34 1.535 . S
C419 C0 1.536 . S
C435 C131 1.534 . S
C437 C68 1.534 . S
C453 C136 1.536 . S
C455 C170 1.535 . S
C471 C204 1.534 . S
C473 C267 1.534 . S
C489 C29 1.651 . S
C491 C199 1.650 . S
C507 C165 1.651 . S
C509 C63 1.650 . S
C525 C97 1.649 . S
C527 C238 1.649 . S
C543 C102 1.649 . S
C545 C233 1.649 . S
C561 C4 1.572 . S
C563 C106 1.568 . S
C579 C38 1.576 . S
C581 C72 1.583 . S
C597 C47 1.560 . S
C599 C81 1.567 . S
C615 C115 1.566 . S
C617 C13 1.562 . S
C633 C140 1.572 . S
C635 C242 1.568 . S
C651 C174 1.576 . S
C653 C208 1.583 . S
C669 C183 1.560 . S
C671 C217 1.567 . S
C687 C251 1.566 . S
C689 C149 1.562 . S
