# Generated by pormake.
# Topology umd, (4)-cn, num edge types: 1
# Building blocks:
#     Node 0, Type 0, BuildingBlock: ESEHIV_clean_sbu_0, # of connection points: 4
#     Node 1, Type 0, BuildingBlock: ESEHIV_clean_sbu_0, # of connection points: 4
#     Node 2, Type 0, BuildingBlock: ESEHIV_clean_sbu_0, # of connection points: 4
#     Node 3, Type 0, BuildingBlock: ESEHIV_clean_sbu_0, # of connection points: 4
#     Node 4, Type 0, BuildingBlock: ESEHIV_clean_sbu_0, # of connection points: 4
#     Node 5, Type 0, BuildingBlock: ESEHIV_clean_sbu_0, # of connection points: 4
#     Node 6, Type 0, BuildingBlock: ESEHIV_clean_sbu_0, # of connection points: 4
#     Node 7, Type 0, BuildingBlock: ESEHIV_clean_sbu_0, # of connection points: 4
#     Node 8, Type 0, BuildingBlock: ESEHIV_clean_sbu_0, # of connection points: 4
#     Node 9, Type 0, BuildingBlock: ESEHIV_clean_sbu_0, # of connection points: 4
#     Node 10, Type 0, BuildingBlock: ESEHIV_clean_sbu_0, # of connection points: 4
#     Node 11, Type 0, BuildingBlock: ESEHIV_clean_sbu_0, # of connection points: 4
#     Node 12, Type 0, BuildingBlock: ESEHIV_clean_sbu_0, # of connection points: 4
#     Node 13, Type 0, BuildingBlock: ESEHIV_clean_sbu_0, # of connection points: 4
#     Node 14, Type 0, BuildingBlock: ESEHIV_clean_sbu_0, # of connection points: 4
#     Node 15, Type 0, BuildingBlock: ESEHIV_clean_sbu_0, # of connection points: 4
#     Edge 16, Type (0, 0), BuildingBlock: UVAHIK_clean_linker_0, # of connection points: 2
#     Edge 17, Type (0, 0), BuildingBlock: UVAHIK_clean_linker_0, # of connection points: 2
#     Edge 18, Type (0, 0), BuildingBlock: UVAHIK_clean_linker_0, # of connection points: 2
#     Edge 19, Type (0, 0), BuildingBlock: UVAHIK_clean_linker_0, # of connection points: 2
#     Edge 20, Type (0, 0), BuildingBlock: UVAHIK_clean_linker_0, # of connection points: 2
#     Edge 21, Type (0, 0), BuildingBlock: UVAHIK_clean_linker_0, # of connection points: 2
#     Edge 22, Type (0, 0), BuildingBlock: UVAHIK_clean_linker_0, # of connection points: 2
#     Edge 23, Type (0, 0), BuildingBlock: UVAHIK_clean_linker_0, # of connection points: 2
#     Edge 24, Type (0, 0), BuildingBlock: UVAHIK_clean_linker_0, # of connection points: 2
#     Edge 25, Type (0, 0), BuildingBlock: UVAHIK_clean_linker_0, # of connection points: 2
#     Edge 26, Type (0, 0), BuildingBlock: UVAHIK_clean_linker_0, # of connection points: 2
#     Edge 27, Type (0, 0), BuildingBlock: UVAHIK_clean_linker_0, # of connection points: 2
#     Edge 28, Type (0, 0), BuildingBlock: UVAHIK_clean_linker_0, # of connection points: 2
#     Edge 29, Type (0, 0), BuildingBlock: UVAHIK_clean_linker_0, # of connection points: 2
#     Edge 30, Type (0, 0), BuildingBlock: UVAHIK_clean_linker_0, # of connection points: 2
#     Edge 31, Type (0, 0), BuildingBlock: UVAHIK_clean_linker_0, # of connection points: 2
#     Edge 32, Type (0, 0), BuildingBlock: UVAHIK_clean_linker_0, # of connection points: 2
#     Edge 33, Type (0, 0), BuildingBlock: UVAHIK_clean_linker_0, # of connection points: 2
#     Edge 34, Type (0, 0), BuildingBlock: UVAHIK_clean_linker_0, # of connection points: 2
#     Edge 35, Type (0, 0), BuildingBlock: UVAHIK_clean_linker_0, # of connection points: 2
#     Edge 36, Type (0, 0), BuildingBlock: UVAHIK_clean_linker_0, # of connection points: 2
#     Edge 37, Type (0, 0), BuildingBlock: UVAHIK_clean_linker_0, # of connection points: 2
#     Edge 38, Type (0, 0), BuildingBlock: UVAHIK_clean_linker_0, # of connection points: 2
#     Edge 39, Type (0, 0), BuildingBlock: UVAHIK_clean_linker_0, # of connection points: 2
#     Edge 40, Type (0, 0), BuildingBlock: UVAHIK_clean_linker_0, # of connection points: 2
#     Edge 41, Type (0, 0), BuildingBlock: UVAHIK_clean_linker_0, # of connection points: 2
#     Edge 42, Type (0, 0), BuildingBlock: UVAHIK_clean_linker_0, # of connection points: 2
#     Edge 43, Type (0, 0), BuildingBlock: UVAHIK_clean_linker_0, # of connection points: 2
#     Edge 44, Type (0, 0), BuildingBlock: UVAHIK_clean_linker_0, # of connection points: 2
#     Edge 45, Type (0, 0), BuildingBlock: UVAHIK_clean_linker_0, # of connection points: 2
#     Edge 46, Type (0, 0), BuildingBlock: UVAHIK_clean_linker_0, # of connection points: 2
#     Edge 47, Type (0, 0), BuildingBlock: UVAHIK_clean_linker_0, # of connection points: 2
# Relax obj value: 0.041
# Max RMSD: 0.122
# Mean RMSD: 0.122
data_MOF--net-umd--node1-ESEHIV_clean_sbu_0--edge1-UVAHIK_clean_linker_0
_symmetry_space_group_name_H-M    P1
_symmetry_Int_Tables_number       1
_symmetry_cell_setting            triclinic
loop_
_symmetry_equiv_pos_as_xyz
'x, y, z'
_cell_length_a     59.037885
_cell_length_b     59.614174
_cell_length_c     71.245979
_cell_angle_alpha  89.982794
_cell_angle_beta   90.393206
_cell_angle_gamma 90.090067
loop_
_atom_site_label
_atom_site_type_symbol
_atom_site_fract_x
_atom_site_fract_y
_atom_site_fract_z
_atom_type_partial_charge
Cu0 Cu 0.19879 0.43415 0.15626 0.0
N1 N 0.16753 0.43188 0.15245 0.0
N2 N 0.13072 0.44048 0.15102 0.0
C3 C 0.15113 0.4458 0.1585 0.0
C4 C 0.13445 0.42245 0.14001 0.0
C5 C 0.15713 0.41721 0.14093 0.0
O6 O 0.20475 0.44953 0.17987 0.0
C7 C 0.20178 0.46318 0.12479 0.0
O8 O 0.18339 0.47211 0.13185 0.0
H9 H 0.15432 0.46023 0.16736 0.0
H10 H 0.16564 0.4041 0.13322 0.0
N11 N 0.21085 0.40537 0.15871 0.0
N12 N 0.23566 0.37707 0.15984 0.0
C13 C 0.23235 0.39892 0.15551 0.0
C14 C 0.20017 0.38705 0.16524 0.0
C15 C 0.2154 0.36957 0.16594 0.0
C16 C 0.2037 0.47049 0.18306 0.0
O17 O 0.19926 0.48435 0.16919 0.0
H18 H 0.24542 0.41021 0.15064 0.0
H19 H 0.18262 0.38655 0.16946 0.0
O20 O 0.21194 0.44778 0.13393 0.0
H21 H 0.12176 0.41393 0.13159 0.0
H22 H 0.21179 0.35266 0.17058 0.0
Cu23 Cu 0.59497 0.17244 0.66441 0.0
N24 N 0.60254 0.14284 0.66978 0.0
N25 N 0.59696 0.10632 0.67509 0.0
C26 C 0.58733 0.12677 0.67378 0.0
C27 C 0.61921 0.10969 0.67177 0.0
C28 C 0.62261 0.13231 0.66854 0.0
O29 O 0.56595 0.17683 0.67661 0.0
C30 C 0.58774 0.19198 0.62783 0.0
O31 O 0.5811 0.21012 0.63668 0.0
H32 H 0.56931 0.12989 0.67473 0.0
H33 H 0.63841 0.14039 0.66492 0.0
N34 N 0.61644 0.19194 0.67492 0.0
N35 N 0.63887 0.22162 0.68007 0.0
C36 C 0.62639 0.21016 0.66728 0.0
C37 C 0.62303 0.1918 0.69303 0.0
C38 C 0.63681 0.21006 0.69626 0.0
C39 C 0.55954 0.19504 0.68417 0.0
O40 O 0.5715 0.21338 0.68161 0.0
H41 H 0.62376 0.21546 0.6529 0.0
H42 H 0.61754 0.17961 0.70329 0.0
O43 O 0.59375 0.17485 0.63724 0.0
H44 H 0.632 0.09672 0.67135 0.0
H45 H 0.64449 0.21466 0.70956 0.0
Cu46 Cu 0.86361 0.58992 0.15394 0.0
N47 N 0.89467 0.5875 0.14957 0.0
N48 N 0.92963 0.57337 0.14796 0.0
C49 C 0.90973 0.57309 0.15724 0.0
C50 C 0.92698 0.5885 0.13405 0.0
C51 C 0.90543 0.5971 0.13504 0.0
O52 O 0.85663 0.57579 0.17781 0.0
C53 C 0.83199 0.58169 0.12317 0.0
O54 O 0.81933 0.59772 0.13006 0.0
H55 H 0.90568 0.56156 0.16848 0.0
H56 H 0.89768 0.60865 0.12522 0.0
N57 N 0.85581 0.62038 0.15537 0.0
N58 N 0.836 0.65208 0.15881 0.0
C59 C 0.83531 0.62942 0.15882 0.0
C60 C 0.86996 0.63796 0.15351 0.0
C61 C 0.85782 0.65749 0.15558 0.0
C62 C 0.85107 0.55532 0.1799 0.0
O63 O 0.84905 0.54241 0.16505 0.0
H64 H 0.82024 0.6196 0.16149 0.0
H65 H 0.88791 0.63674 0.15087 0.0
O66 O 0.84971 0.57552 0.13206 0.0
H67 H 0.93947 0.59243 0.12349 0.0
H68 H 0.86446 0.67437 0.15445 0.0
Cu69 Cu 0.44611 0.84325 0.65936 0.0
N70 N 0.44636 0.87464 0.66046 0.0
N71 N 0.45784 0.91031 0.66316 0.0
C72 C 0.46292 0.88855 0.66648 0.0
C73 C 0.43719 0.91001 0.6549 0.0
C74 C 0.43024 0.88806 0.65321 0.0
O75 O 0.46581 0.83154 0.67918 0.0
C76 C 0.45542 0.81733 0.62528 0.0
O77 O 0.45165 0.79879 0.63473 0.0
H78 H 0.47873 0.88289 0.6725 0.0
H79 H 0.41473 0.88219 0.64668 0.0
N80 N 0.41647 0.83398 0.66458 0.0
N81 N 0.38411 0.81463 0.66737 0.0
C82 C 0.40499 0.81525 0.65961 0.0
C83 C 0.40238 0.84549 0.67576 0.0
C84 C 0.38248 0.83374 0.67743 0.0
C85 C 0.48695 0.83546 0.68061 0.0
O86 O 0.49742 0.84566 0.6668 0.0
H87 H 0.41195 0.80211 0.65094 0.0
H88 H 0.40644 0.86129 0.68243 0.0
O89 O 0.45458 0.83617 0.63364 0.0
H90 H 0.42784 0.92457 0.65015 0.0
H91 H 0.36791 0.83897 0.68543 0.0
Cu92 Cu 0.17824 0.59237 0.39515 0.0
N93 N 0.14668 0.58978 0.39399 0.0
N94 N 0.11187 0.57508 0.3915 0.0
C95 C 0.1342 0.57209 0.38818 0.0
C96 C 0.11034 0.59547 0.39963 0.0
C97 C 0.13177 0.60439 0.40124 0.0
O98 O 0.19105 0.57608 0.37416 0.0
C99 C 0.20564 0.58112 0.42828 0.0
O100 O 0.22392 0.58701 0.4191 0.0
H101 H 0.14145 0.55693 0.38247 0.0
H102 H 0.13628 0.62013 0.40782 0.0
N103 N 0.18613 0.62261 0.39209 0.0
N104 N 0.20604 0.65447 0.38962 0.0
C105 C 0.20608 0.63295 0.39565 0.0
C106 C 0.17317 0.63813 0.38351 0.0
C107 C 0.1853 0.65775 0.38206 0.0
C108 C 0.19161 0.5549 0.3721 0.0
O109 O 0.18482 0.54188 0.38584 0.0
H110 H 0.22066 0.62464 0.40169 0.0
H111 H 0.15629 0.63517 0.37808 0.0
O112 O 0.18644 0.58161 0.42006 0.0
H113 H 0.09489 0.60331 0.40438 0.0
H114 H 0.17937 0.67315 0.37567 0.0
Cu115 Cu 0.45747 0.1764 0.89875 0.0
N116 N 0.48736 0.16611 0.89988 0.0
N117 N 0.51537 0.1409 0.89897 0.0
C118 C 0.49281 0.14434 0.89798 0.0
C119 C 0.52451 0.16147 0.9016 0.0
C120 C 0.50716 0.17704 0.90204 0.0
O121 O 0.4492 0.17394 0.87221 0.0
C122 C 0.44919 0.1552 0.93242 0.0
O123 O 0.47021 0.1618 0.93499 0.0
H124 H 0.48027 0.13124 0.89619 0.0
H125 H 0.5089 0.19499 0.90366 0.0
N126 N 0.45363 0.20631 0.90596 0.0
N127 N 0.43562 0.23914 0.90886 0.0
C128 C 0.43552 0.21862 0.90086 0.0
C129 C 0.46564 0.21935 0.9178 0.0
C130 C 0.45458 0.23967 0.9196 0.0
C131 C 0.4578 0.18922 0.8619 0.0
O132 O 0.46998 0.20506 0.86989 0.0
H133 H 0.42214 0.21222 0.89188 0.0
H134 H 0.48101 0.21428 0.92496 0.0
O135 O 0.43954 0.15908 0.91666 0.0
H136 H 0.54243 0.16508 0.9028 0.0
H137 H 0.46003 0.25364 0.92821 0.0
Cu138 Cu 0.85848 0.41296 0.38247 0.0
N139 N 0.88965 0.41064 0.3784 0.0
N140 N 0.92583 0.42123 0.37534 0.0
C141 C 0.90399 0.42791 0.37566 0.0
C142 C 0.92518 0.39881 0.37797 0.0
C143 C 0.90285 0.39234 0.37987 0.0
O144 O 0.84642 0.43438 0.36444 0.0
C145 C 0.83711 0.42627 0.41725 0.0
O146 O 0.8183 0.42897 0.40756 0.0
H147 H 0.8986 0.4452 0.37491 0.0
H148 H 0.89674 0.3756 0.3828 0.0
N149 N 0.84405 0.38569 0.37721 0.0
N150 N 0.81628 0.36045 0.37356 0.0
C151 C 0.82334 0.37896 0.38286 0.0
C152 C 0.85026 0.37087 0.36397 0.0
C153 C 0.83321 0.35529 0.3617 0.0
C154 C 0.84962 0.45547 0.36392 0.0
O155 O 0.86006 0.46544 0.37797 0.0
H156 H 0.81302 0.38826 0.39262 0.0
H157 H 0.86558 0.37205 0.35579 0.0
O158 O 0.85512 0.42053 0.40884 0.0
H159 H 0.93979 0.3879 0.37882 0.0
H160 H 0.83293 0.34167 0.35165 0.0
Cu161 Cu 0.6149 0.85477 0.89347 0.0
N162 N 0.62217 0.88528 0.89406 0.0
N163 N 0.61851 0.92263 0.89483 0.0
C164 C 0.60769 0.9027 0.89317 0.0
C165 C 0.64066 0.91742 0.89682 0.0
C166 C 0.64284 0.89441 0.89636 0.0
O167 O 0.59158 0.85129 0.87418 0.0
C168 C 0.60165 0.82832 0.92636 0.0
O169 O 0.60232 0.81016 0.91594 0.0
H170 H 0.58953 0.90071 0.89181 0.0
H171 H 0.65839 0.88497 0.89779 0.0
N172 N 0.64065 0.83912 0.88566 0.0
N173 N 0.66848 0.81414 0.88138 0.0
C174 C 0.65058 0.82016 0.89208 0.0
C175 C 0.65272 0.84527 0.87059 0.0
C176 C 0.66984 0.83007 0.86795 0.0
C177 C 0.58669 0.83277 0.86621 0.0
O178 O 0.59563 0.8141 0.87264 0.0
H179 H 0.64458 0.81075 0.90403 0.0
H180 H 0.64914 0.85983 0.86201 0.0
O181 O 0.60573 0.84735 0.91901 0.0
H182 H 0.65438 0.92934 0.89841 0.0
H183 H 0.68242 0.83085 0.857 0.0
Cu184 Cu 0.86338 0.57694 0.89348 0.0
N185 N 0.8946 0.57929 0.89685 0.0
N186 N 0.93112 0.56988 0.89851 0.0
C187 C 0.91053 0.56454 0.89144 0.0
C188 C 0.92802 0.58871 0.90866 0.0
C189 C 0.90547 0.59451 0.90756 0.0
O190 O 0.85841 0.55648 0.8726 0.0
C191 C 0.83189 0.56559 0.92362 0.0
O192 O 0.81485 0.57087 0.91254 0.0
H193 H 0.90691 0.54953 0.88341 0.0
H194 H 0.89734 0.60831 0.91469 0.0
N195 N 0.85245 0.60534 0.88671 0.0
N196 N 0.83193 0.63664 0.88301 0.0
C197 C 0.8342 0.61706 0.89249 0.0
C198 C 0.86209 0.61805 0.87338 0.0
C199 C 0.84957 0.63727 0.87106 0.0
C200 C 0.85858 0.53517 0.87361 0.0
O201 O 0.86018 0.52541 0.8901 0.0
H202 H 0.82256 0.61125 0.90307 0.0
H203 H 0.87715 0.61346 0.86572 0.0
O204 O 0.85207 0.56659 0.91755 0.0
H205 H 0.94103 0.59731 0.91668 0.0
H206 H 0.85324 0.65071 0.86132 0.0
Cu207 Cu 0.43031 0.86588 0.39412 0.0
N208 N 0.42358 0.89636 0.39705 0.0
N209 N 0.42577 0.9338 0.39862 0.0
C210 C 0.4366 0.9146 0.39396 0.0
C211 C 0.40526 0.92728 0.40488 0.0
C212 C 0.40401 0.90428 0.40394 0.0
O213 O 0.45243 0.86167 0.37404 0.0
C214 C 0.44573 0.83618 0.42423 0.0
O215 O 0.44521 0.81954 0.41215 0.0
H216 H 0.45375 0.91376 0.38875 0.0
H217 H 0.38983 0.89394 0.4081 0.0
N218 N 0.40331 0.85157 0.38697 0.0
N219 N 0.37445 0.8275 0.38316 0.0
C220 C 0.39457 0.83144 0.39183 0.0
C221 C 0.38816 0.86061 0.37501 0.0
C222 C 0.37044 0.84594 0.37265 0.0
C223 C 0.44954 0.87229 0.35865 0.0
O224 O 0.43239 0.8862 0.3572 0.0
H225 H 0.40281 0.81988 0.40134 0.0
H226 H 0.38981 0.87695 0.36856 0.0
O227 O 0.4407 0.85591 0.4188 0.0
H228 H 0.39198 0.93834 0.40966 0.0
H229 H 0.35552 0.84891 0.3641 0.0
Cu230 Cu 0.20291 0.43761 0.89291 0.0
N231 N 0.17202 0.43327 0.89703 0.0
N232 N 0.13499 0.44023 0.89918 0.0
C233 C 0.15461 0.44588 0.89076 0.0
C234 C 0.14021 0.42331 0.911 0.0
C235 C 0.16305 0.41902 0.9096 0.0
O236 O 0.20692 0.45439 0.86963 0.0
C237 C 0.20448 0.46554 0.92507 0.0
O238 O 0.1854 0.47339 0.91816 0.0
H239 H 0.15654 0.45991 0.88127 0.0
H240 H 0.17271 0.40715 0.91788 0.0
N241 N 0.21646 0.40963 0.88969 0.0
N242 N 0.24202 0.382 0.88921 0.0
C243 C 0.23764 0.40333 0.89451 0.0
C244 C 0.2071 0.39173 0.88116 0.0
C245 C 0.2228 0.37467 0.88083 0.0
C246 C 0.20204 0.47495 0.86704 0.0
O247 O 0.19523 0.48712 0.88127 0.0
H248 H 0.24973 0.41436 0.90131 0.0
H249 H 0.1901 0.39123 0.87543 0.0
O250 O 0.21562 0.45123 0.91559 0.0
H251 H 0.1285 0.41518 0.92046 0.0
H252 H 0.22022 0.35813 0.87493 0.0
Cu253 Cu 0.57341 0.18701 0.38915 0.0
N254 N 0.5425 0.18085 0.39021 0.0
N255 N 0.51245 0.158 0.38972 0.0
C256 C 0.53477 0.16013 0.38648 0.0
C257 C 0.50573 0.1783 0.39598 0.0
C258 C 0.52439 0.19249 0.39618 0.0
O259 O 0.58316 0.16653 0.3694 0.0
C260 C 0.57944 0.19635 0.42636 0.0
O261 O 0.56669 0.21311 0.42068 0.0
H262 H 0.54569 0.14641 0.3825 0.0
H263 H 0.52485 0.20972 0.40093 0.0
N264 N 0.58023 0.21658 0.38235 0.0
N265 N 0.60188 0.24689 0.37792 0.0
C266 C 0.59963 0.22718 0.38702 0.0
C267 C 0.56968 0.23011 0.36997 0.0
C268 C 0.58309 0.24883 0.36713 0.0
C269 C 0.59033 0.17344 0.35358 0.0
O270 O 0.60047 0.19302 0.35268 0.0
H271 H 0.61253 0.21986 0.39598 0.0
H272 H 0.55399 0.22609 0.36279 0.0
O273 O 0.58543 0.18169 0.41435 0.0
H274 H 0.48874 0.18245 0.40039 0.0
H275 H 0.57966 0.26244 0.35746 0.0
Cu276 Cu 0.8338 0.44795 0.65619 0.0
N277 N 0.84252 0.47805 0.65491 0.0
N278 N 0.86732 0.50648 0.65542 0.0
C279 C 0.86382 0.48454 0.65896 0.0
C280 C 0.84727 0.51417 0.6488 0.0
C281 C 0.83194 0.49655 0.64854 0.0
O282 O 0.8498 0.43677 0.67837 0.0
C283 C 0.82732 0.44152 0.61883 0.0
O284 O 0.8108 0.45517 0.62339 0.0
H285 H 0.87683 0.47299 0.66361 0.0
H286 H 0.81461 0.49706 0.64354 0.0
N287 N 0.80284 0.4429 0.66023 0.0
N288 N 0.77091 0.42301 0.66318 0.0
C289 C 0.79296 0.42265 0.65837 0.0
C290 C 0.78643 0.45671 0.66631 0.0
C291 C 0.7667 0.44441 0.66827 0.0
C292 C 0.84345 0.447 0.69316 0.0
O293 O 0.82749 0.46222 0.69175 0.0
H294 H 0.80204 0.40774 0.65413 0.0
H295 H 0.78876 0.47431 0.66948 0.0
O296 O 0.84099 0.43507 0.6317 0.0
H297 H 0.844 0.53118 0.64422 0.0
H298 H 0.75057 0.45068 0.67312 0.0
Cu299 Cu 0.60867 0.85853 0.16167 0.0
N300 N 0.61717 0.88867 0.16133 0.0
N301 N 0.6154 0.92597 0.15812 0.0
C302 C 0.60376 0.9064 0.15764 0.0
C303 C 0.63697 0.92018 0.16227 0.0
C304 C 0.638 0.89721 0.16421 0.0
O305 O 0.5834 0.85597 0.17917 0.0
C306 C 0.59802 0.8316 0.12856 0.0
O307 O 0.59886 0.81373 0.13934 0.0
H308 H 0.58591 0.90485 0.15433 0.0
H309 H 0.65294 0.88741 0.16741 0.0
N310 N 0.63333 0.8422 0.17103 0.0
N311 N 0.66279 0.81908 0.17481 0.0
C312 C 0.64596 0.8259 0.16315 0.0
C313 C 0.64245 0.84566 0.18814 0.0
C314 C 0.66057 0.83151 0.19051 0.0
C315 C 0.58099 0.83937 0.19027 0.0
O316 O 0.5943 0.82188 0.18847 0.0
H317 H 0.6432 0.8195 0.14911 0.0
H318 H 0.63628 0.85778 0.19817 0.0
O319 O 0.60109 0.85092 0.13574 0.0
H320 H 0.65103 0.93168 0.16399 0.0
H321 H 0.67115 0.83026 0.20293 0.0
Cu322 Cu 0.15858 0.60545 0.65779 0.0
N323 N 0.12735 0.60998 0.65507 0.0
N324 N 0.08981 0.60471 0.65324 0.0
C325 C 0.11003 0.59569 0.65826 0.0
C326 C 0.09475 0.62542 0.64676 0.0
C327 C 0.11779 0.62855 0.64782 0.0
O328 O 0.1644 0.58749 0.6801 0.0
C329 C 0.18867 0.58802 0.62894 0.0
O330 O 0.20571 0.59077 0.64065 0.0
H331 H 0.1123 0.57883 0.66358 0.0
H332 H 0.12704 0.64325 0.64331 0.0
N333 N 0.17199 0.63353 0.6621 0.0
N334 N 0.19637 0.66223 0.66472 0.0
C335 C 0.19258 0.64161 0.65735 0.0
C336 C 0.16254 0.6496 0.67271 0.0
C337 C 0.17739 0.66727 0.67428 0.0
C338 C 0.17038 0.56703 0.68111 0.0
O339 O 0.17297 0.55538 0.66563 0.0
H340 H 0.20481 0.63236 0.64924 0.0
H341 H 0.14608 0.64832 0.67919 0.0
O342 O 0.16861 0.59247 0.6342 0.0
H343 H 0.0826 0.63754 0.64157 0.0
H344 H 0.17441 0.68262 0.68197 0.0
Cu345 Cu 0.45914 0.17599 0.14857 0.0
N346 N 0.48898 0.169 0.14293 0.0
N347 N 0.51743 0.1445 0.14029 0.0
C348 C 0.49496 0.14798 0.13841 0.0
C349 C 0.52605 0.16446 0.14585 0.0
C350 C 0.50838 0.17952 0.14765 0.0
O351 O 0.45658 0.16609 0.17458 0.0
C352 C 0.42303 0.16533 0.12239 0.0
O353 O 0.41231 0.18281 0.12911 0.0
H354 H 0.48266 0.13504 0.13521 0.0
H355 H 0.50936 0.1962 0.15358 0.0
N356 N 0.4531 0.20669 0.1459 0.0
N357 N 0.43403 0.23915 0.14623 0.0
C358 C 0.43451 0.21752 0.15194 0.0
C359 C 0.46502 0.222 0.13624 0.0
C360 C 0.45334 0.24203 0.13642 0.0
C361 C 0.46248 0.17947 0.1877 0.0
O362 O 0.46629 0.20062 0.18364 0.0
H363 H 0.42111 0.20929 0.15962 0.0
H364 H 0.48077 0.21866 0.1291 0.0
O365 O 0.44144 0.15899 0.13015 0.0
H366 H 0.54349 0.16742 0.14992 0.0
H367 H 0.45855 0.25738 0.12958 0.0
C368 C 0.0946 0.45395 0.13755 0.0
C369 C 0.1098 0.45274 0.15276 0.0
C370 C 0.0744 0.46593 0.13901 0.0
C371 C 0.04565 0.5098 0.16739 0.0
H372 H 0.9932 0.48915 0.13921 0.0
C373 C 0.95655 0.55286 0.16851 0.0
C374 C 0.94863 0.55852 0.15048 0.0
C375 C 0.97556 0.53899 0.17072 0.0
C376 C 1.0077 0.49507 0.14719 0.0
H377 H 0.11565 0.46304 0.18151 0.0
H378 H 0.07996 0.48355 0.18435 0.0
H379 H 0.02745 0.46646 0.13986 0.0
H380 H 0.95382 0.55359 0.1207 0.0
H381 H 0.98657 0.52903 0.12454 0.0
H382 H 0.02545 0.53834 0.17484 0.0
C383 C 0.08388 0.47562 0.1711 0.0
C384 C 0.02744 0.48218 0.14746 0.0
C385 C 0.10431 0.46382 0.16953 0.0
C386 C 0.95972 0.54969 0.13475 0.0
C387 C 0.97834 0.53552 0.13695 0.0
C388 C 0.02572 0.52254 0.16735 0.0
C389 C 0.06861 0.47682 0.15584 0.0
C390 C 0.04692 0.48961 0.15716 0.0
C391 C 0.98656 0.53014 0.15493 0.0
C392 C 1.00675 0.51552 0.15689 0.0
H393 H 0.09856 0.44601 0.12432 0.0
H394 H 0.0635 0.46695 0.12676 0.0
H395 H 0.06029 0.51623 0.17488 0.0
H396 H 0.9483 0.55954 0.18082 0.0
H397 H 0.98157 0.53503 0.18473 0.0
C398 C 0.46953 0.94905 0.65528 0.0
C399 C 0.47221 0.92961 0.66626 0.0
C400 C 0.48365 0.96761 0.65795 0.0
C401 C 0.53924 0.98466 0.6773 0.0
H402 H 0.51318 0.04419 0.67405 0.0
C403 C 0.56477 0.08454 0.6875 0.0
C404 C 0.58516 0.08531 0.67744 0.0
C405 C 0.55195 0.06486 0.68817 0.0
C406 C 0.52074 0.02771 0.67523 0.0
H407 H 0.49184 0.91468 0.68886 0.0
H408 H 0.51651 0.94715 0.69354 0.0
H409 H 0.4887 1.01149 0.67158 0.0
H410 H 0.60845 0.06574 0.66076 0.0
H411 H 0.58597 0.03134 0.66179 0.0
H412 H 0.57132 1.001 0.68111 0.0
C413 C 0.5036 0.94786 0.68269 0.0
C414 C 0.50671 1.00893 0.67357 0.0
C415 C 0.48944 0.92925 0.68001 0.0
C416 C 0.59292 0.06564 0.66874 0.0
C417 C 0.58002 0.04592 0.66934 0.0
C418 C 0.55332 1.00349 0.67896 0.0
C419 C 0.50084 0.96728 0.6717 0.0
C420 C 0.51579 0.98717 0.6744 0.0
C421 C 0.55913 0.04544 0.67874 0.0
C422 C 0.54425 0.02526 0.67783 0.0
H423 H 0.45682 0.94983 0.6443 0.0
H424 H 0.48132 0.9821 0.64898 0.0
H425 H 0.54681 0.96813 0.67787 0.0
H426 H 0.55857 0.09929 0.69466 0.0
H427 H 0.53622 0.06494 0.69591 0.0
C428 C 0.09522 0.54255 0.37455 0.0
C429 C 0.09366 0.55922 0.38845 0.0
C430 C 0.0775 0.52724 0.37169 0.0
C431 C 1.01619 0.51941 0.38083 0.0
H432 H 0.02883 0.45657 0.37173 0.0
C433 C 0.96606 0.4293 0.38301 0.0
C434 C 0.94556 0.43553 0.3743 0.0
C435 C 0.98464 0.44391 0.38314 0.0
C436 C 0.02501 0.47405 0.37434 0.0
H437 H 0.07236 0.57233 0.41058 0.0
H438 H 0.04168 0.54581 0.40563 0.0
H439 H 0.06016 0.48303 0.37547 0.0
H440 H 0.92897 0.46161 0.35809 0.0
H441 H 0.96135 0.487 0.35818 0.0
H442 H 0.98113 0.51043 0.3803 0.0
C443 C 0.05636 0.54482 0.39664 0.0
C444 C 0.04297 0.48927 0.37627 0.0
C445 C 0.07401 0.56009 0.39948 0.0
C446 C 0.94434 0.45645 0.36523 0.0
C447 C 0.96292 0.47103 0.36531 0.0
C448 C 0.99827 0.50423 0.3789 0.0
C449 C 0.0578 0.52824 0.38267 0.0
C450 C 0.03878 0.51212 0.37972 0.0
C451 C 0.98321 0.4651 0.37451 0.0
C452 C 1.00242 0.48132 0.37576 0.0
H453 H 0.11 0.54152 0.36569 0.0
H454 H 0.07908 0.51483 0.36067 0.0
H455 H 1.0123 0.53693 0.38323 0.0
H456 H 0.96753 0.41344 0.39031 0.0
H457 H 0.99987 0.43889 0.39056 0.0
C458 C 0.58756 0.94882 0.88614 0.0
C459 C 0.60855 0.94478 0.89496 0.0
C460 C 0.57792 0.97025 0.88632 0.0
C461 C 0.59201 0.03038 0.89354 0.0
H462 H 0.5273 0.03626 0.90091 0.0
C463 C 0.54807 0.11618 0.90633 0.0
C464 C 0.52687 0.11957 0.89765 0.0
C465 C 0.55856 0.09512 0.90575 0.0
C466 C 0.54537 0.03493 0.89862 0.0
H467 H 0.63561 0.96025 0.91116 0.0
H468 H 0.61882 0.99751 0.91151 0.0
H469 H 0.54437 0.99911 0.90039 0.0
H470 H 0.50068 0.1036 0.88082 0.0
H471 H 0.51887 0.06709 0.87982 0.0
H472 H 0.59296 0.06626 0.89184 0.0
C473 C 0.60998 0.98418 0.90415 0.0
C474 C 0.55516 1.01359 0.89831 0.0
C475 C 0.61963 0.96276 0.90395 0.0
C476 C 0.51672 0.10152 0.88803 0.0
C477 C 0.52718 0.08053 0.88746 0.0
C478 C 0.5822 0.05175 0.89387 0.0
C479 C 0.58899 0.98822 0.89536 0.0
C480 C 0.57861 1.01101 0.89572 0.0
C481 C 0.54811 0.07696 0.89647 0.0
C482 C 0.55873 0.05429 0.89635 0.0
H483 H 0.5787 0.9355 0.87884 0.0
H484 H 0.5619 0.97281 0.87914 0.0
H485 H 0.61007 0.02902 0.89127 0.0
H486 H 0.55628 0.12963 0.91398 0.0
H487 H 0.5746 0.09292 0.91298 0.0
C488 C 0.96557 0.55416 0.91314 0.0
C489 C 0.95148 0.55674 0.89732 0.0
C490 C 0.98489 0.54072 0.91228 0.0
C491 C 0.02848 0.52004 0.88193 0.0
H492 H 0.03427 0.47075 0.91713 0.0
C493 C 0.10596 0.46048 0.88067 0.0
C494 C 0.11377 0.45202 0.89792 0.0
C495 C 0.08549 0.47227 0.8796 0.0
C496 C 0.0332 0.48464 0.90738 0.0
H497 H 0.94671 0.54775 0.86814 0.0
H498 H 0.98115 0.52469 0.86643 0.0
H499 H 1.00031 0.49388 0.91732 0.0
H500 H 0.10677 0.44978 0.92763 0.0
H501 H 0.07176 0.47107 0.92605 0.0
H502 H 0.06174 0.51173 0.87255 0.0
C503 C 0.97695 0.53287 0.87952 0.0
C504 C 1.01362 0.49775 0.90743 0.0
C505 C 0.95729 0.54592 0.88052 0.0
C506 C 0.10089 0.45574 0.91409 0.0
C507 C 0.08072 0.4679 0.91312 0.0
C508 C 0.04833 0.50723 0.88214 0.0
C509 C 0.99076 0.52999 0.89547 0.0
C510 C 1.01114 0.51562 0.89478 0.0
C511 C 0.07261 0.47628 0.89585 0.0
C512 C 0.05107 0.48941 0.89497 0.0
H513 H 0.96133 0.56214 0.92631 0.0
H514 H 0.99534 0.53877 0.92473 0.0
H515 H 0.02696 0.53386 0.87212 0.0
H516 H 0.11557 0.45769 0.868 0.0
H517 H 0.07973 0.47807 0.86599 0.0
C518 C 0.48311 0.13188 0.40159 0.0
C519 C 0.49983 0.13733 0.3884 0.0
C520 C 0.4735 0.11034 0.40185 0.0
C521 C 0.48737 0.05237 0.38789 0.0
H522 H 0.42409 0.04013 0.3978 0.0
C523 C 0.45028 0.96258 0.38393 0.0
C524 C 0.43409 0.95654 0.39739 0.0
C525 C 0.45771 0.98483 0.38242 0.0
C526 C 0.44188 0.04325 0.39522 0.0
H527 H 0.51826 0.12516 0.36428 0.0
H528 H 0.50148 0.08784 0.36461 0.0
H529 H 0.43721 0.07892 0.39566 0.0
H530 H 0.41358 0.96911 0.42023 0.0
H531 H 0.42665 1.0077 0.41774 0.0
H532 H 0.49219 0.01682 0.38767 0.0
C533 C 0.4962 0.09987 0.37509 0.0
C534 C 0.44937 0.0655 0.39397 0.0
C535 C 0.50576 0.12128 0.37485 0.0
C536 C 0.42575 0.97323 0.40946 0.0
C537 C 0.43322 0.99541 0.40801 0.0
C538 C 0.47992 0.03017 0.3892 0.0
C539 C 0.48043 0.0939 0.3889 0.0
C540 C 0.4722 0.07033 0.39023 0.0
C541 C 0.44921 1.00156 0.39441 0.0
C542 C 0.45707 0.02528 0.39286 0.0
H543 H 0.47831 0.14386 0.41225 0.0
H544 H 0.46142 0.10626 0.4127 0.0
H545 H 0.50517 0.05548 0.38536 0.0
H546 H 0.45685 0.95022 0.37428 0.0
H547 H 0.46984 0.98899 0.37162 0.0
C548 C 0.90524 0.51102 0.66993 0.0
C549 C 0.88871 0.5182 0.65694 0.0
C550 C 0.92671 0.52093 0.67043 0.0
C551 C 0.95909 0.57115 0.65531 0.0
H552 H 1.01092 0.53174 0.66091 0.0
C553 C 0.05023 0.60175 0.64175 0.0
C554 C 0.0676 0.59447 0.65393 0.0
C555 C 0.02851 0.5925 0.6427 0.0
C556 C 0.99665 0.54303 0.65958 0.0
H557 H 0.88176 0.54188 0.63458 0.0
H558 H 0.91927 0.55923 0.6354 0.0
H559 H 0.97275 0.51613 0.66168 0.0
H560 H 0.07557 0.57149 0.67659 0.0
H561 H 0.03756 0.55528 0.67826 0.0
H562 H 0.98299 0.59804 0.6531 0.0
C563 C 0.91553 0.54601 0.64534 0.0
C564 C 0.97472 0.53408 0.66002 0.0
C565 C 0.89399 0.53608 0.64486 0.0
C566 C 0.0627 0.57737 0.6669 0.0
C567 C 0.04088 0.56809 0.66785 0.0
C568 C 0.98101 0.5801 0.65487 0.0
C569 C 0.93229 0.53833 0.65795 0.0
C570 C 0.95563 0.548 0.65783 0.0
C571 C 0.02346 0.57567 0.65584 0.0
C572 C 1.0001 0.56615 0.65689 0.0
H573 H 0.90162 0.4976 0.6797 0.0
H574 H 0.93898 0.51492 0.68061 0.0
H575 H 0.94482 0.58243 0.65388 0.0
H576 H 0.05344 0.61449 0.63129 0.0
H577 H 1.01571 0.5984 0.63293 0.0
C578 C 0.5521 0.12139 0.13665 0.0
C579 C 0.52874 0.12302 0.1401 0.0
C580 C 0.56292 0.10045 0.13689 0.0
C581 C 0.55061 0.03944 0.13371 0.0
H582 H 0.60802 0.03221 0.15972 0.0
C583 C 0.58353 0.95295 0.15702 0.0
C584 C 0.60671 0.94829 0.15481 0.0
C585 C 0.57512 0.97454 0.15387 0.0
C586 C 0.59213 0.03401 0.15219 0.0
H587 H 0.4987 0.10378 0.14722 0.0
H588 H 0.51734 0.06774 0.14751 0.0
H589 H 0.59165 0.06964 0.15626 0.0
H590 H 0.63911 0.96289 0.14727 0.0
H591 H 0.62442 1.00056 0.14196 0.0
H592 H 0.55083 1.00385 0.12993 0.0
C593 C 0.52727 0.08247 0.14413 0.0
C594 C 0.58277 0.05545 0.15018 0.0
C595 C 0.51653 0.10326 0.14391 0.0
C596 C 0.62124 0.96585 0.1494 0.0
C597 C 0.61283 0.98748 0.14631 0.0
C598 C 0.55991 0.01806 0.13576 0.0
C599 C 0.55056 0.08074 0.14058 0.0
C600 C 0.56169 0.05836 0.1412 0.0
C601 C 0.58966 0.99206 0.14848 0.0
C602 C 0.58059 1.01502 0.14529 0.0
H603 H 0.56197 0.13626 0.13362 0.0
H604 H 0.58089 0.09967 0.13401 0.0
H605 H 0.53457 0.04114 0.12637 0.0
H606 H 0.57187 0.94003 0.16148 0.0
H607 H 0.55724 0.97759 0.15598 0.0
C608 C 0.19736 0.52204 0.35046 0.0
C609 C 0.19724 0.54535 0.35344 0.0
C610 C 0.20066 0.51327 0.33243 0.0
C611 C 0.21983 0.5287 0.28415 0.0
H612 H 0.1826 0.47799 0.26938 0.0
C613 C 0.20568 0.50198 0.20656 0.0
C614 C 0.20586 0.47887 0.20263 0.0
C615 C 0.20657 0.50968 0.22514 0.0
C616 C 0.19331 0.49201 0.27334 0.0
H617 H 0.20107 0.57768 0.3398 0.0
H618 H 0.20631 0.56251 0.30852 0.0
H619 H 0.181 0.49184 0.30149 0.0
H620 H 0.2075 0.44574 0.21524 0.0
H621 H 0.20895 0.45917 0.24752 0.0
H622 H 0.23164 0.52913 0.25575 0.0
C623 C 0.20427 0.55089 0.32007 0.0
C624 C 0.19247 0.49992 0.2918 0.0
C625 C 0.20112 0.55963 0.33807 0.0
C626 C 0.20729 0.46367 0.21771 0.0
C627 C 0.20799 0.47135 0.23625 0.0
C628 C 0.22052 0.52088 0.26563 0.0
C629 C 0.2038 0.5276 0.31693 0.0
C630 C 0.20563 0.51846 0.29747 0.0
C631 C 0.20746 0.49443 0.24021 0.0
C632 C 0.2072 0.50249 0.25999 0.0
H633 H 0.19452 0.51055 0.36198 0.0
H634 H 0.20059 0.49524 0.33064 0.0
H635 H 0.23051 0.54276 0.28803 0.0
H636 H 0.20459 0.51416 0.19531 0.0
H637 H 0.20596 0.52757 0.22772 0.0
C638 C 0.53328 0.17401 0.7055 0.0
C639 C 0.54135 0.19457 0.69847 0.0
C640 C 0.51896 0.17342 0.72108 0.0
C641 C 0.50517 0.20819 0.76235 0.0
H642 H 0.45995 0.16235 0.77181 0.0
C643 C 0.45738 0.20884 0.83127 0.0
C644 C 0.45705 0.1885 0.84118 0.0
C645 C 0.46258 0.2093 0.81221 0.0
C646 C 0.47257 0.17522 0.76936 0.0
H647 H 0.53929 0.23068 0.70146 0.0
H648 H 0.5138 0.22972 0.7282 0.0
H649 H 0.47834 0.16425 0.74111 0.0
H650 H 0.46035 0.15247 0.83871 0.0
H651 H 0.4698 0.15321 0.80519 0.0
H652 H 0.4998 0.21899 0.79051 0.0
C653 C 0.51911 0.21398 0.72208 0.0
C654 C 0.48314 0.17631 0.75179 0.0
C655 C 0.5336 0.21456 0.70663 0.0
C656 C 0.46028 0.16836 0.83133 0.0
C657 C 0.46577 0.16882 0.81216 0.0
C658 C 0.49458 0.20717 0.77977 0.0
C659 C 0.5122 0.19339 0.72993 0.0
C660 C 0.49968 0.19278 0.74808 0.0
C661 C 0.46795 0.18943 0.80262 0.0
C662 C 0.47818 0.19067 0.78357 0.0
H663 H 0.53893 0.15826 0.69958 0.0
H664 H 0.51417 0.15725 0.72674 0.0
H665 H 0.51823 0.22071 0.76031 0.0
H666 H 0.45479 0.2246 0.83851 0.0
H667 H 0.4635 0.22539 0.80519 0.0
C668 C 0.84027 0.52388 0.20162 0.0
C669 C 0.84794 0.54599 0.19906 0.0
C670 C 0.83814 0.51488 0.21968 0.0
C671 C 0.83562 0.53061 0.27038 0.0
H672 H 0.85349 0.46869 0.27778 0.0
C673 C 0.85184 0.49012 0.34372 0.0
C674 C 0.84481 0.46776 0.34617 0.0
C675 C 0.84999 0.50053 0.32612 0.0
C676 C 0.84815 0.48593 0.27594 0.0
H677 H 0.85919 0.57604 0.21357 0.0
H678 H 0.85596 0.56024 0.24495 0.0
H679 H 0.85474 0.48492 0.24649 0.0
H680 H 0.82919 0.43925 0.33218 0.0
H681 H 0.82591 0.45739 0.3017 0.0
H682 H 0.82954 0.53161 0.30004 0.0
C683 C 0.85116 0.54993 0.23306 0.0
C684 C 0.84883 0.49525 0.25794 0.0
C685 C 0.85315 0.55897 0.21501 0.0
C686 C 0.83496 0.45643 0.33082 0.0
C687 C 0.8332 0.46678 0.31327 0.0
C688 C 0.83508 0.52129 0.28844 0.0
C689 C 0.84377 0.52769 0.23566 0.0
C690 C 0.84257 0.51773 0.25488 0.0
C691 C 0.84116 0.48876 0.31058 0.0
C692 C 0.84131 0.49881 0.29142 0.0
H693 H 0.83597 0.51346 0.18967 0.0
H694 H 0.83201 0.49784 0.2211 0.0
H695 H 0.83037 0.54788 0.26856 0.0
H696 H 0.85953 0.49934 0.35522 0.0
H697 H 0.85635 0.51747 0.32451 0.0
C698 C 0.57287 0.85208 0.83705 0.0
C699 C 0.57379 0.83268 0.84823 0.0
C700 C 0.56287 0.85154 0.81919 0.0
C701 C 0.5436 0.81119 0.78178 0.0
H702 H 0.51798 0.86522 0.76009 0.0
C703 C 0.49028 0.81666 0.71211 0.0
C704 C 0.49848 0.83228 0.69899 0.0
C705 C 0.49971 0.81543 0.7302 0.0
C706 C 0.52516 0.85003 0.76597 0.0
H707 H 0.56411 0.79768 0.84968 0.0
H708 H 0.54547 0.79697 0.81904 0.0
H709 H 0.53198 0.86579 0.79231 0.0
H710 H 0.52311 0.85877 0.69458 0.0
H711 H 0.53905 0.85703 0.72635 0.0
H712 H 0.53565 0.79536 0.75543 0.0
C713 C 0.55329 0.81247 0.82364 0.0
C714 C 0.53338 0.85034 0.78445 0.0
C715 C 0.56377 0.8129 0.84137 0.0
C716 C 0.51655 0.84639 0.70428 0.0
C717 C 0.52558 0.84553 0.72249 0.0
C718 C 0.53486 0.81079 0.76343 0.0
C719 C 0.553 0.8317 0.81209 0.0
C720 C 0.54305 0.831 0.79262 0.0
C721 C 0.51711 0.83019 0.73567 0.0
C722 C 0.52583 0.83028 0.75529 0.0
H723 H 0.58069 0.86754 0.84179 0.0
H724 H 0.56356 0.86663 0.81077 0.0
H725 H 0.55123 0.79602 0.78724 0.0
H726 H 0.47633 0.80562 0.70847 0.0
H727 H 0.49286 0.80349 0.74014 0.0
C728 C 0.86578 0.53185 0.83913 0.0
C729 C 0.85944 0.52168 0.85612 0.0
C730 C 0.86786 0.51914 0.82275 0.0
C731 C 0.84705 0.46936 0.799 0.0
H732 H 0.90005 0.47677 0.76773 0.0
C733 C 0.84797 0.43096 0.72514 0.0
C734 C 0.85566 0.4456 0.71115 0.0
C735 C 0.85299 0.43522 0.74409 0.0
C736 C 0.88505 0.47455 0.7762 0.0
H737 H 0.85 0.49017 0.86913 0.0
H738 H 0.85292 0.46803 0.8402 0.0
H739 H 0.89863 0.495 0.79835 0.0
H740 H 0.87527 0.47549 0.70568 0.0
H741 H 0.88392 0.48313 0.73841 0.0
H742 H 0.83275 0.45016 0.77655 0.0
C743 C 0.85656 0.48584 0.83973 0.0
C744 C 0.88431 0.48496 0.79379 0.0
C745 C 0.85489 0.4985 0.85626 0.0
C746 C 0.86972 0.4636 0.71622 0.0
C747 C 0.87457 0.468 0.73508 0.0
C748 C 0.84761 0.45924 0.78127 0.0
C749 C 0.86329 0.49601 0.82286 0.0
C750 C 0.8651 0.48287 0.8052 0.0
C751 C 0.86541 0.45447 0.74938 0.0
C752 C 0.86641 0.46213 0.76939 0.0
H753 H 0.86955 0.54962 0.83852 0.0
H754 H 0.87281 0.52748 0.8099 0.0
H755 H 0.83198 0.46756 0.80747 0.0
H756 H 0.83663 0.41729 0.72158 0.0
H757 H 0.84603 0.42412 0.75461 0.0
C758 C 0.47919 0.85021 0.34113 0.0
C759 C 0.46427 0.86854 0.3421 0.0
C760 C 0.49167 0.84615 0.32476 0.0
C761 C 0.4921 0.86031 0.27367 0.0
H762 H 0.55365 0.83793 0.27577 0.0
C763 C 0.55139 0.85969 0.20906 0.0
C764 C 0.56549 0.84093 0.20661 0.0
C765 C 0.53839 0.86202 0.22533 0.0
C766 C 0.53637 0.84395 0.27492 0.0
H767 H 0.45151 0.89743 0.32684 0.0
H768 H 0.47352 0.89075 0.29877 0.0
H769 H 0.53297 0.84415 0.30485 0.0
H770 H 0.57651 0.80966 0.21931 0.0
H771 H 0.55385 0.81374 0.24759 0.0
H772 H 0.49566 0.86045 0.24375 0.0
C773 C 0.47517 0.87906 0.31033 0.0
C774 C 0.52448 0.8475 0.29163 0.0
C775 C 0.46263 0.883 0.32656 0.0
C776 C 0.56586 0.82434 0.22068 0.0
C777 C 0.553 0.82675 0.23699 0.0
C778 C 0.50403 0.85691 0.257 0.0
C779 C 0.48962 0.8604 0.30904 0.0
C780 C 0.50221 0.85588 0.29126 0.0
C781 C 0.53928 0.84573 0.23964 0.0
C782 C 0.52636 0.84878 0.2574 0.0
H783 H 0.48079 0.8387 0.35282 0.0
H784 H 0.50249 0.83152 0.32429 0.0
H785 H 0.47482 0.86628 0.27272 0.0
H786 H 0.55073 0.87283 0.19857 0.0
H787 H 0.52814 0.87693 0.22696 0.0
C788 C 0.19586 0.50696 0.84461 0.0
C789 C 0.20189 0.48445 0.84773 0.0
C790 C 0.19415 0.51549 0.82635 0.0
C791 C 0.1851 0.49753 0.77717 0.0
H792 H 0.20498 0.55795 0.76566 0.0
C793 C 0.18177 0.53433 0.70156 0.0
C794 C 0.17477 0.55678 0.69982 0.0
C795 C 0.18614 0.525 0.7193 0.0
C796 C 0.19913 0.54111 0.76866 0.0
H797 H 0.21129 0.45339 0.83398 0.0
H798 H 0.20846 0.46833 0.80217 0.0
H799 H 0.21106 0.54285 0.79707 0.0
H800 H 0.16671 0.58693 0.71549 0.0
H801 H 0.17405 0.57068 0.7462 0.0
H802 H 0.17296 0.49589 0.74878 0.0
C803 C 0.20479 0.47932 0.81385 0.0
C804 C 0.20263 0.53244 0.7867 0.0
C805 C 0.20658 0.4708 0.83212 0.0
C806 C 0.17216 0.56961 0.71624 0.0
C807 C 0.17654 0.56032 0.7339 0.0
C808 C 0.18156 0.50622 0.75911 0.0
C809 C 0.19836 0.50173 0.81071 0.0
C810 C 0.1955 0.5106 0.79125 0.0
C811 C 0.18367 0.53793 0.73571 0.0
C812 C 0.18834 0.52821 0.75466 0.0
H813 H 0.19206 0.51795 0.85627 0.0
H814 H 0.18891 0.53276 0.82447 0.0
H815 H 0.17912 0.48075 0.78023 0.0
H816 H 0.18399 0.52397 0.68923 0.0
H817 H 0.19179 0.50776 0.72014 0.0
C818 C 0.58668 0.17241 0.31847 0.0
C819 C 0.58045 0.16377 0.33608 0.0
C820 C 0.57381 0.16753 0.30239 0.0
C821 C 0.54641 0.14864 0.26905 0.0
H822 H 0.4828 0.16189 0.27665 0.0
C823 C 0.48148 0.15022 0.20758 0.0
C824 C 0.47022 0.17093 0.20616 0.0
C825 C 0.49335 0.14452 0.22403 0.0
C826 C 0.50046 0.15791 0.27434 0.0
H827 H 0.55685 0.14157 0.35015 0.0
H828 H 0.53424 0.13343 0.32219 0.0
H829 H 0.50846 0.15972 0.30368 0.0
H830 H 0.46143 0.20125 0.22114 0.0
H831 H 0.48137 0.19097 0.25003 0.0
H832 H 0.53846 0.14745 0.23964 0.0
C833 C 0.549 0.14413 0.32089 0.0
C834 C 0.51513 0.15652 0.28981 0.0
C835 C 0.56207 0.14873 0.33691 0.0
C836 C 0.46982 0.18512 0.22189 0.0
C837 C 0.48125 0.17923 0.23842 0.0
C838 C 0.53164 0.14967 0.25359 0.0
C839 C 0.5543 0.15407 0.30357 0.0
C840 C 0.53838 0.1524 0.28732 0.0
C841 C 0.49375 0.15921 0.23948 0.0
C842 C 0.50861 0.15486 0.25604 0.0
H843 H 0.60076 0.18398 0.31726 0.0
H844 H 0.57832 0.17548 0.28926 0.0
H845 H 0.56421 0.14538 0.2667 0.0
H846 H 0.48237 0.13909 0.19559 0.0
H847 H 0.50277 0.12895 0.22448 0.0
C848 C 0.22569 0.45655 0.95491 0.0
C849 C 0.21054 0.47038 0.94492 0.0
C850 C 0.2283 0.45887 0.97439 0.0
C851 C 0.19588 0.47934 1.01507 0.0
H852 H 0.25152 0.4688 0.04289 0.0
C853 C 0.19718 0.48573 0.09535 0.0
C854 C 0.20815 0.46833 0.10512 0.0
C855 C 0.2004 0.48858 0.07607 0.0
C856 C 0.23583 0.47167 0.03532 0.0
H857 H 0.18757 0.49855 0.94737 0.0
H858 H 0.19252 0.50293 0.9811 0.0
H859 H 0.25208 0.46927 1.00854 0.0
H860 H 0.2321 0.44099 0.10239 0.0
H861 H 0.23751 0.44579 0.06868 0.0
H862 H 0.17948 0.48132 0.04163 0.0
C863 C 0.2019 0.48985 0.97405 0.0
C864 C 0.23615 0.47194 1.01562 0.0
C865 C 0.19919 0.48745 0.95465 0.0
C866 C 0.22339 0.45459 0.09531 0.0
C867 C 0.22655 0.45738 0.07596 0.0
C868 C 0.19557 0.47909 0.03466 0.0
C869 C 0.2159 0.47513 0.98429 0.0
C870 C 0.21614 0.47574 1.00524 0.0
C871 C 0.21458 0.47402 0.066 0.0
C872 C 0.21549 0.4752 0.04509 0.0
H873 H 0.23466 0.44318 0.94785 0.0
H874 H 0.23916 0.44716 0.9818 0.0
H875 H 0.18002 0.48176 1.00762 0.0
H876 H 0.18549 0.49678 0.10247 0.0
H877 H 0.19131 0.50191 0.06896 0.0
C878 C 0.58217 0.21348 0.45816 0.0
C879 C 0.58545 0.19471 0.44656 0.0
C880 C 0.58568 0.21208 0.47749 0.0
C881 C 0.58571 0.17181 0.51644 0.0
H882 H 0.61027 0.22234 0.54424 0.0
C883 C 0.59513 0.17166 0.59761 0.0
C884 C 0.58891 0.19146 0.60701 0.0
C885 C 0.59664 0.17116 0.57802 0.0
C886 C 0.60321 0.20816 0.5367 0.0
H887 H 0.59562 0.15982 0.44615 0.0
H888 H 0.60184 0.15731 0.48023 0.0
H889 H 0.61094 0.22269 0.51004 0.0
H890 H 0.57934 0.22626 0.60308 0.0
H891 H 0.58184 0.22535 0.56891 0.0
H892 H 0.57771 0.15743 0.54316 0.0
C893 C 0.59638 0.17311 0.47423 0.0
C894 C 0.60365 0.20832 0.51709 0.0
C895 C 0.59298 0.17457 0.45473 0.0
C896 C 0.5842 0.21074 0.59632 0.0
C897 C 0.58579 0.21025 0.57673 0.0
C898 C 0.58531 0.17163 0.5361 0.0
C899 C 0.59254 0.19184 0.48585 0.0
C900 C 0.59451 0.19035 0.50669 0.0
C901 C 0.59207 0.19046 0.56733 0.0
C902 C 0.59369 0.18999 0.54646 0.0
H903 H 0.57644 0.2293 0.45236 0.0
H904 H 0.58225 0.22675 0.48597 0.0
H905 H 0.5783 0.15781 0.50889 0.0
H906 H 0.59893 0.15649 0.60538 0.0
H907 H 0.60171 0.15571 0.57127 0.0
C908 C 0.80966 0.58179 0.093 0.0
C909 C 0.82796 0.57357 0.10372 0.0
C910 C 0.80784 0.57686 0.07382 0.0
C911 C 0.84451 0.56361 0.03411 0.0
H912 H 0.78844 0.5521 1.00712 0.0
C913 C 0.8454 0.55053 0.95446 0.0
C914 C 0.82829 0.56102 0.94384 0.0
C915 C 0.84363 0.54873 0.97394 0.0
C916 C 0.80422 0.55549 1.01442 0.0
H917 H 0.85793 0.55257 0.10284 0.0
H918 H 0.85468 0.54397 0.0695 0.0
H919 H 0.78823 0.55477 0.04139 0.0
H920 H 0.79544 0.57705 0.9453 0.0
H921 H 0.79257 0.57447 0.97944 0.0
H922 H 0.86049 0.56515 1.00738 0.0
C923 C 0.84192 0.55449 0.07586 0.0
C924 C 0.8041 0.55695 0.03407 0.0
C925 C 0.84369 0.55931 0.09503 0.0
C926 C 0.80887 0.56879 0.95309 0.0
C927 C 0.80722 0.56725 0.97268 0.0
C928 C 0.84463 0.56233 1.01454 0.0
C929 C 0.82433 0.5637 0.06492 0.0
C930 C 0.82426 0.56105 0.04413 0.0
C931 C 0.82486 0.55768 0.98341 0.0
C932 C 0.82451 0.55826 1.00438 0.0
H933 H 0.7972 0.59277 0.09922 0.0
H934 H 0.79413 0.5843 0.06579 0.0
H935 H 0.86027 0.56729 0.04136 0.0
H936 H 0.86046 0.5441 0.94774 0.0
H937 H 0.85726 0.54067 0.98162 0.0
C938 C 0.45732 0.79662 0.59441 0.0
C939 C 0.45873 0.81681 0.60459 0.0
C940 C 0.4588 0.79665 0.57475 0.0
C941 C 0.47644 0.83228 0.53422 0.0
H942 H 0.43419 0.79544 0.50591 0.0
C943 C 0.4537 0.8502 0.45682 0.0
C944 C 0.45072 0.83205 0.44443 0.0
C945 C 0.45713 0.84659 0.47603 0.0
C946 C 0.44634 0.80559 0.51358 0.0
H947 H 0.46329 0.85281 0.60195 0.0
H948 H 0.46559 0.85287 0.56796 0.0
H949 H 0.43588 0.79218 0.54005 0.0
H950 H 0.44934 0.79576 0.44263 0.0
H951 H 0.45526 0.78946 0.47626 0.0
H952 H 0.48647 0.8461 0.50779 0.0
C953 C 0.46365 0.83693 0.57507 0.0
C954 C 0.44734 0.80371 0.53318 0.0
C955 C 0.46218 0.8369 0.59464 0.0
C956 C 0.4516 0.81013 0.45174 0.0
C957 C 0.45485 0.80652 0.47104 0.0
C958 C 0.47537 0.83423 0.51465 0.0
C959 C 0.46179 0.81685 0.5648 0.0
C960 C 0.46213 0.81731 0.54381 0.0
C961 C 0.45754 0.82473 0.48344 0.0
C962 C 0.46004 0.82119 0.5041 0.0
H963 H 0.45469 0.78083 0.60159 0.0
H964 H 0.45756 0.78082 0.56735 0.0
H965 H 0.48841 0.84268 0.54184 0.0
H966 H 0.45312 0.86731 0.45172 0.0
H967 H 0.45885 0.86102 0.48516 0.0
C968 C 0.22625 0.58084 0.45942 0.0
C969 C 0.20655 0.57654 0.44877 0.0
C970 C 0.22593 0.57917 0.47907 0.0
C971 C 0.18539 0.58331 0.51793 0.0
H972 H 0.23372 0.559 0.54888 0.0
C973 C 0.17432 0.57581 0.59742 0.0
C974 C 0.19263 0.58211 0.60899 0.0
C975 C 0.17726 0.57274 0.57816 0.0
C976 C 0.22017 0.56603 0.54043 0.0
H977 H 0.17148 0.56575 0.45043 0.0
H978 H 0.17103 0.56267 0.48443 0.0
H979 H 0.23688 0.55793 0.51461 0.0
H980 H 0.22865 0.58922 0.60943 0.0
H981 H 0.23373 0.58425 0.57564 0.0
H982 H 0.16881 0.59184 0.54346 0.0
C983 C 0.1866 0.5678 0.47769 0.0
C984 C 0.22198 0.56539 0.5208 0.0
C985 C 0.18691 0.56946 0.45815 0.0
C986 C 0.2142 0.58433 0.60092 0.0
C987 C 0.21712 0.58142 0.58154 0.0
C988 C 0.18363 0.58403 0.53744 0.0
C989 C 0.20589 0.5732 0.48845 0.0
C990 C 0.20449 0.57386 0.50932 0.0
C991 C 0.19854 0.57611 0.56985 0.0
C992 C 0.20087 0.57525 0.549 0.0
H993 H 0.24167 0.58632 0.45266 0.0
H994 H 0.24107 0.58349 0.48694 0.0
H995 H 0.17185 0.5905 0.50955 0.0
H996 H 0.15752 0.57368 0.6032 0.0
H997 H 0.16268 0.56805 0.56972 0.0
C998 C 0.44879 0.13372 0.9622 0.0
C999 C 0.43685 0.14644 0.94884 0.0
C1000 C 0.43983 0.12998 0.98001 0.0
C1001 C 0.40454 0.15923 1.01351 0.0
H1002 H 0.41709 0.10718 0.04451 0.0
C1003 C 0.39773 0.16485 0.09388 0.0
C1004 C 0.41651 0.15617 0.10371 0.0
C1005 C 0.39404 0.1594 0.07498 0.0
C1006 C 0.41347 0.12187 0.03607 0.0
H1007 H 0.40556 0.16413 0.94316 0.0
H1008 H 0.38977 0.15773 0.97454 0.0
H1009 H 0.42109 0.10464 1.01048 0.0
H1010 H 0.44526 0.1337 0.10164 0.0
H1011 H 0.43907 0.12449 0.0688 0.0
H1012 H 0.39812 0.17687 0.03902 0.0
C1013 C 0.40611 0.1506 0.97116 0.0
C1014 C 0.41567 0.12037 1.01656 0.0
C1015 C 0.415 0.15406 0.95316 0.0
C1016 C 0.43063 0.14074 0.09454 0.0
C1017 C 0.42699 0.13535 0.07565 0.0
C1018 C 0.40243 0.16076 0.03301 0.0
C1019 C 0.4188 0.13916 0.98499 0.0
C1020 C 0.41194 0.13924 1.00509 0.0
C1021 C 0.40907 0.14516 0.06543 0.0
C1022 C 0.40758 0.14231 0.04462 0.0
H1023 H 0.46572 0.12773 0.95924 0.0
H1024 H 0.45018 0.1213 0.99029 0.0
H1025 H 0.40182 0.17418 1.00515 0.0
H1026 H 0.3864 0.17666 0.10052 0.0
H1027 H 0.37981 0.16693 0.06769 0.0
C1028 C 0.81722 0.43263 0.4479 0.0
C1029 C 0.83727 0.42825 0.43805 0.0
C1030 C 0.81729 0.43337 0.46755 0.0
C1031 C 0.85008 0.41487 0.50945 0.0
H1032 H 0.81352 0.45938 0.53471 0.0
C1033 C 0.85085 0.43019 0.59086 0.0
C1034 C 0.82975 0.43526 0.59882 0.0
C1035 C 0.8529 0.42796 0.57128 0.0
C1036 C 0.82366 0.44667 0.5279 0.0
H1037 H 0.87322 0.42148 0.44123 0.0
H1038 H 0.87335 0.42306 0.4754 0.0
H1039 H 0.81482 0.45894 0.50062 0.0
H1040 H 0.79407 0.44026 0.59273 0.0
H1041 H 0.79753 0.43594 0.55905 0.0
H1042 H 0.85887 0.40266 0.53692 0.0
C1043 C 0.85749 0.42559 0.46797 0.0
C1044 C 0.82438 0.44642 0.50831 0.0
C1045 C 0.85743 0.42486 0.44833 0.0
C1046 C 0.81065 0.43672 0.58702 0.0
C1047 C 0.81265 0.43439 0.56765 0.0
C1048 C 0.84936 0.41513 0.52913 0.0
C1049 C 0.83741 0.42977 0.47785 0.0
C1050 C 0.83738 0.43038 0.49879 0.0
C1051 C 0.83387 0.43072 0.55944 0.0
C1052 C 0.83587 0.43085 0.53858 0.0
H1053 H 0.80137 0.43518 0.44047 0.0
H1054 H 0.80144 0.43635 0.47468 0.0
H1055 H 0.86015 0.40216 0.50258 0.0
H1056 H 0.86587 0.42904 0.59961 0.0
H1057 H 0.8695 0.42507 0.56538 0.0
C1058 C 0.59349 0.84874 0.09656 0.0
C1059 C 0.59488 0.82944 0.10788 0.0
C1060 C 0.59167 0.84697 0.07703 0.0
C1061 C 0.60343 0.80848 0.03758 0.0
H1062 H 0.56646 0.85066 1.00953 0.0
C1063 C 0.59626 0.80595 0.95609 0.0
C1064 C 0.59759 0.82681 0.94692 0.0
C1065 C 0.5938 0.80481 0.97565 0.0
C1066 C 0.577 0.83883 1.01712 0.0
H1067 H 0.59508 0.79307 0.1074 0.0
H1068 H 0.59176 0.78999 0.07326 0.0
H1069 H 0.56593 0.85123 0.04372 0.0
H1070 H 0.59694 0.86285 0.95123 0.0
H1071 H 0.59276 0.86086 0.9851 0.0
H1072 H 0.61472 0.79631 1.01093 0.0
C1073 C 0.59231 0.80653 0.07954 0.0
C1074 C 0.5767 0.83916 0.03676 0.0
C1075 C 0.59407 0.80829 0.09914 0.0
C1076 C 0.59595 0.84647 0.95776 0.0
C1077 C 0.5934 0.84533 0.97724 0.0
C1078 C 0.60372 0.80815 1.0179 0.0
C1079 C 0.5912 0.82587 0.06821 0.0
C1080 C 0.59019 0.82425 0.04728 0.0
C1081 C 0.59247 0.82451 0.9865 0.0
C1082 C 0.59078 0.82357 1.00741 0.0
H1083 H 0.59411 0.86532 0.10275 0.0
H1084 H 0.5912 0.86225 0.0688 0.0
H1085 H 0.61421 0.7969 0.04518 0.0
H1086 H 0.59746 0.79047 0.94821 0.0
H1087 H 0.59291 0.78849 0.98228 0.0
C1088 C 0.26042 0.34621 0.17087 0.0
C1089 C 0.25653 0.36452 0.15883 0.0
C1090 C 0.28054 0.33395 0.16987 0.0
C1091 C 0.32733 0.32008 0.13795 0.0
H1092 H 0.35765 0.30068 0.18359 0.0
C1093 C 0.41291 0.27312 0.13614 0.0
C1094 C 0.4157 0.25498 0.14859 0.0
C1095 C 0.39444 0.28766 0.13779 0.0
C1096 C 0.34929 0.30575 0.1707 0.0
H1097 H 0.27082 0.38418 0.1362 0.0
H1098 H 0.30605 0.36283 0.13451 0.0
H1099 H 0.32363 0.32367 0.18558 0.0
H1100 H 0.40141 0.23856 0.17299 0.0
H1101 H 0.36901 0.26344 0.17553 0.0
H1102 H 0.3527 0.30188 0.12305 0.0
C1103 C 0.29343 0.35793 0.14469 0.0
C1104 C 0.32979 0.31897 0.17185 0.0
C1105 C 0.27333 0.3703 0.14578 0.0
C1106 C 0.39973 0.2521 0.16297 0.0
C1107 C 0.38124 0.26659 0.16458 0.0
C1108 C 0.34677 0.30678 0.1368 0.0
C1109 C 0.29728 0.3396 0.15674 0.0
C1110 C 0.31848 0.32619 0.15549 0.0
C1111 C 0.37822 0.28446 0.15191 0.0
C1112 C 0.35796 0.29932 0.15316 0.0
H1113 H 0.24799 0.34144 0.18123 0.0
H1114 H 0.28285 0.3198 0.17923 0.0
H1115 H 0.31887 0.32511 0.12509 0.0
H1116 H 0.42468 0.27587 0.1248 0.0
H1117 H 0.39288 0.30142 0.12794 0.0
C1118 C 0.75761 0.38666 0.65052 0.0
C1119 C 0.7557 0.40406 0.66373 0.0
C1120 C 0.74369 0.36768 0.65157 0.0
C1121 C 0.71223 0.3338 0.68521 0.0
H1122 H 0.68143 0.30928 0.64155 0.0
C1123 C 0.65161 0.25841 0.6921 0.0
C1124 C 0.6507 0.24258 0.67752 0.0
C1125 C 0.66345 0.27856 0.68992 0.0
C1126 C 0.69016 0.31565 0.65385 0.0
H1127 H 0.7376 0.41526 0.68833 0.0
H1128 H 0.71344 0.38189 0.69036 0.0
H1129 H 0.7038 0.34356 0.63858 0.0
H1130 H 0.66146 0.23547 0.64918 0.0
H1131 H 0.68288 0.2703 0.64549 0.0
H1132 H 0.69946 0.30568 0.70042 0.0
C1133 C 0.72567 0.38304 0.67913 0.0
C1134 C 0.70289 0.3354 0.65214 0.0
C1135 C 0.73934 0.4022 0.67789 0.0
C1136 C 0.66175 0.24745 0.6606 0.0
C1137 C 0.67394 0.26749 0.6585 0.0
C1138 C 0.69981 0.3139 0.68688 0.0
C1139 C 0.72778 0.36551 0.66604 0.0
C1140 C 0.71398 0.34473 0.66782 0.0
C1141 C 0.67507 0.28332 0.67319 0.0
C1142 C 0.68848 0.30454 0.67125 0.0
H1143 H 0.76994 0.38773 0.63937 0.0
H1144 H 0.7458 0.35441 0.64135 0.0
H1145 H 0.7209 0.34038 0.69747 0.0
H1146 H 0.64289 0.25533 0.70517 0.0
H1147 H 0.66331 0.29047 0.70139 0.0
C1148 C 0.82095 0.68863 0.16918 0.0
C1149 C 0.81737 0.66745 0.16103 0.0
C1150 C 0.80318 0.70396 0.17068 0.0
C1151 C 0.74857 0.71958 0.14967 0.0
H1152 H 0.74087 0.75297 0.19586 0.0
C1153 C 0.67474 0.78283 0.16103 0.0
C1154 C 0.67972 0.80213 0.17161 0.0
C1155 C 0.69079 0.76563 0.15932 0.0
C1156 C 0.74293 0.74404 0.18275 0.0
H1157 H 0.79233 0.64577 0.148 0.0
H1158 H 0.76117 0.67268 0.15056 0.0
H1159 H 0.77002 0.72426 0.19404 0.0
H1160 H 0.7058 0.81912 0.18775 0.0
H1161 H 0.73384 0.78961 0.18446 0.0
H1162 H 0.72179 0.73973 0.13823 0.0
C1163 C 0.77778 0.67735 0.1558 0.0
C1164 C 0.75961 0.7275 0.18176 0.0
C1165 C 0.79554 0.66188 0.15451 0.0
C1166 C 0.7013 0.80424 0.17985 0.0
C1167 C 0.71734 0.78724 0.17801 0.0
C1168 C 0.73196 0.73631 0.1506 0.0
C1169 C 0.78142 0.69857 0.1639 0.0
C1170 C 0.76279 0.71524 0.16516 0.0
C1171 C 0.7122 0.7675 0.16804 0.0
C1172 C 0.72911 0.74895 0.1671 0.0
H1173 H 0.83752 0.69334 0.17445 0.0
H1174 H 0.80657 0.72024 0.17685 0.0
H1175 H 0.75075 0.71052 0.13663 0.0
H1176 H 0.65819 0.7807 0.15464 0.0
H1177 H 0.68616 0.75063 0.15163 0.0
C1178 C 0.22174 0.69128 0.67793 0.0
C1179 C 0.21664 0.6758 0.66363 0.0
C1180 C 0.24065 0.70524 0.67669 0.0
C1181 C 0.29601 0.71297 0.6538 0.0
H1182 H 0.28726 0.77453 0.66973 0.0
C1183 C 0.36564 0.78323 0.65002 0.0
C1184 C 0.36703 0.7973 0.66586 0.0
C1185 C 0.34803 0.76748 0.64826 0.0
C1186 C 0.29006 0.75737 0.66534 0.0
H1187 H 0.22794 0.66251 0.63697 0.0
H1188 H 0.26119 0.68708 0.63479 0.0
H1189 H 0.25524 0.74887 0.66919 0.0
H1190 H 0.35177 0.80469 0.69277 0.0
H1191 H 0.32129 0.77763 0.68965 0.0
H1192 H 0.33104 0.72169 0.65008 0.0
C1193 C 0.25045 0.68827 0.64701 0.0
C1194 C 0.27169 0.74263 0.66505 0.0
C1195 C 0.23141 0.6742 0.64825 0.0
C1196 C 0.35091 0.79467 0.68013 0.0
C1197 C 0.3334 0.77908 0.67836 0.0
C1198 C 0.3145 0.72782 0.65406 0.0
C1199 C 0.25506 0.70421 0.6611 0.0
C1200 C 0.27448 0.72011 0.65969 0.0
C1201 C 0.33146 0.76556 0.66228 0.0
C1202 C 0.31179 0.75006 0.66025 0.0
H1203 H 0.21118 0.69258 0.69022 0.0
H1204 H 0.24401 0.71687 0.68805 0.0
H1205 H 0.29874 0.69572 0.64963 0.0
H1206 H 0.37773 0.78485 0.63875 0.0
H1207 H 0.34698 0.75731 0.63569 0.0
C1208 C 0.36027 0.79423 0.40068 0.0
C1209 C 0.35983 0.8081 0.38467 0.0
C1210 C 0.34482 0.77644 0.40249 0.0
C1211 C 0.28829 0.75958 0.38595 0.0
H1212 H 0.30465 0.6992 0.401 0.0
C1213 C 0.22614 0.68685 0.37592 0.0
C1214 C 0.22453 0.67036 0.38994 0.0
C1215 C 0.24342 0.70283 0.37643 0.0
C1216 C 0.29975 0.71605 0.39704 0.0
H1217 H 0.3437 0.81301 0.35751 0.0
H1218 H 0.31679 0.78251 0.36081 0.0
H1219 H 0.33376 0.72857 0.40005 0.0
H1220 H 0.24016 0.65749 0.41533 0.0
H1221 H 0.27038 0.68571 0.41639 0.0
H1222 H 0.25442 0.74743 0.38302 0.0
C1223 C 0.32874 0.78562 0.37213 0.0
C1224 C 0.31643 0.73284 0.39647 0.0
C1225 C 0.34417 0.8032 0.37028 0.0
C1226 C 0.241 0.66993 0.40429 0.0
C1227 C 0.25832 0.68609 0.40487 0.0
C1228 C 0.27167 0.74294 0.38664 0.0
C1229 C 0.32858 0.77228 0.38837 0.0
C1230 C 0.31092 0.75467 0.39054 0.0
C1231 C 0.25955 0.70293 0.39105 0.0
C1232 C 0.27722 0.72083 0.39179 0.0
H1233 H 0.37203 0.79753 0.41207 0.0
H1234 H 0.34508 0.76642 0.41517 0.0
H1235 H 0.28341 0.77636 0.38173 0.0
H1236 H 0.2141 0.68733 0.36441 0.0
H1237 H 0.24417 0.7151 0.36524 0.0
C1238 C 0.40424 0.25654 0.89086 0.0
C1239 C 0.41838 0.25621 0.90683 0.0
C1240 C 0.38673 0.27217 0.88921 0.0
C1241 C 0.35033 0.30943 0.91754 0.0
H1242 H 0.33424 0.33376 0.86876 0.0
C1243 C 0.27772 0.37414 0.90655 0.0
C1244 C 0.26295 0.36973 0.89141 0.0
C1245 C 0.29781 0.36189 0.90877 0.0
C1246 C 0.33844 0.32702 0.88247 0.0
H1247 H 0.42532 0.27253 0.93345 0.0
H1248 H 0.39504 0.30019 0.93037 0.0
H1249 H 0.36762 0.31005 0.87197 0.0
H1250 H 0.25804 0.34932 0.86653 0.0
H1251 H 0.29288 0.32798 0.87043 0.0
H1252 H 0.32102 0.32646 0.92797 0.0
C1253 C 0.39731 0.28805 0.91925 0.0
C1254 C 0.35757 0.31338 0.88432 0.0
C1255 C 0.41486 0.27234 0.92092 0.0
C1256 C 0.26887 0.35299 0.87846 0.0
C1257 C 0.289 0.34091 0.88058 0.0
C1258 C 0.33124 0.32321 0.9157 0.0
C1259 C 0.38291 0.28806 0.90342 0.0
C1260 C 0.36357 0.30407 0.90181 0.0
C1261 C 0.30369 0.34515 0.89578 0.0
C1262 C 0.32487 0.33186 0.89808 0.0
H1263 H 0.4066 0.24465 0.87958 0.0
H1264 H 0.37587 0.27143 0.87691 0.0
H1265 H 0.35424 0.30238 0.93119 0.0
H1266 H 0.27358 0.3868 0.91684 0.0
H1267 H 0.30883 0.36564 0.92058 0.0
C1268 C 0.63442 0.26408 0.39453 0.0
C1269 C 0.62172 0.26103 0.37796 0.0
C1270 C 0.65464 0.27639 0.39435 0.0
C1271 C 0.70138 0.29068 0.36375 0.0
H1272 H 0.715 0.33813 0.39928 0.0
C1273 C 0.78373 0.34218 0.35787 0.0
C1274 C 0.79422 0.35008 0.37433 0.0
C1275 C 0.76228 0.33225 0.35847 0.0
C1276 C 0.71171 0.32468 0.38943 0.0
H1277 H 0.62014 0.26856 0.34825 0.0
H1278 H 0.65576 0.28972 0.34783 0.0
H1279 H 0.67825 0.31932 0.40024 0.0
H1280 H 0.79059 0.35371 0.40435 0.0
H1281 H 0.75354 0.33546 0.40567 0.0
H1282 H 0.73491 0.2951 0.35338 0.0
C1283 C 0.64991 0.28277 0.36099 0.0
C1284 C 0.69054 0.31403 0.38993 0.0
C1285 C 0.62947 0.27083 0.36125 0.0
C1286 C 0.7828 0.34785 0.39145 0.0
C1287 C 0.76147 0.3375 0.39213 0.0
C1288 C 0.72266 0.301 0.36347 0.0
C1289 C 0.66279 0.28552 0.3775 0.0
C1290 C 0.68512 0.29702 0.377 0.0
C1291 C 0.75086 0.32952 0.37563 0.0
C1292 C 0.72815 0.31829 0.37622 0.0
H1293 H 0.62877 0.25677 0.4076 0.0
H1294 H 0.66427 0.27817 0.40726 0.0
H1295 H 0.69778 0.27737 0.35382 0.0
H1296 H 0.79195 0.34408 0.34443 0.0
H1297 H 0.75457 0.32698 0.34537 0.0
C1298 C 0.80845 0.66659 0.86896 0.0
C1299 C 0.81416 0.65319 0.88451 0.0
C1300 C 0.79209 0.68335 0.87038 0.0
C1301 C 0.74381 0.70369 0.89855 0.0
H1302 H 0.75665 0.75919 0.87225 0.0
C1303 C 0.68651 0.7842 0.90076 0.0
C1304 C 0.68309 0.7948 0.88329 0.0
C1305 C 0.70191 0.76636 0.90254 0.0
C1306 C 0.75272 0.74376 0.87959 0.0
H1307 H 0.80659 0.64663 0.91373 0.0
H1308 H 0.77791 0.67618 0.91628 0.0
H1309 H 0.78464 0.72935 0.87254 0.0
H1310 H 0.69219 0.79377 0.85384 0.0
H1311 H 0.71896 0.76322 0.85701 0.0
H1312 H 0.71173 0.71842 0.90555 0.0
C1313 C 0.78612 0.67353 0.90291 0.0
C1314 C 0.76876 0.7266 0.87973 0.0
C1315 C 0.80255 0.65661 0.90146 0.0
C1316 C 0.69482 0.78658 0.86762 0.0
C1317 C 0.71018 0.76895 0.86942 0.0
C1318 C 0.7277 0.72102 0.89848 0.0
C1319 C 0.78095 0.68734 0.88743 0.0
C1320 C 0.76436 0.70613 0.88883 0.0
C1321 C 0.71425 0.75886 0.88693 0.0
C1322 C 0.73182 0.74106 0.88863 0.0
H1323 H 0.81656 0.66407 0.85555 0.0
H1324 H 0.78812 0.69319 0.85801 0.0
H1325 H 0.73984 0.68814 0.90567 0.0
H1326 H 0.67782 0.79009 0.91313 0.0
H1327 H 0.70469 0.75891 0.91623 0.0
loop_
_geom_bond_atom_site_label_1
_geom_bond_atom_site_label_2
_geom_bond_distance
_geom_bond_site_symmetry_2
_ccdc_geom_bond_type
Cu0 N1 1.999 . S
Cu0 O6 1.974 . S
Cu0 N11 1.985 . S
Cu0 O20 1.959 . S
N1 Cu0 1.999 . S
N1 C3 1.263 . S
N1 C5 1.389 . S
N2 C3 1.358 . S
N2 C4 1.400 . S
C3 N1 1.263 . S
C3 N2 1.358 . S
C3 H9 0.930 . S
C4 N2 1.400 . S
C4 C5 1.351 . S
C4 H21 0.930 . S
C5 N1 1.389 . S
C5 C4 1.351 . S
C5 H10 0.930 . S
O6 Cu0 1.974 . S
O6 C16 1.282 . S
C7 O8 1.261 . S
C7 O20 1.251 . S
O8 C7 1.261 . S
H9 C3 0.930 . S
H10 C5 0.930 . S
N11 Cu0 1.985 . S
N11 C13 1.335 . S
N11 C14 1.390 . S
N12 C13 1.345 . S
N12 C15 1.336 . S
C13 N11 1.335 . S
C13 N12 1.345 . S
C13 H18 0.930 . S
C14 N11 1.390 . S
C14 C15 1.346 . S
C14 H19 0.930 . S
C15 N12 1.336 . S
C15 C14 1.346 . S
C15 H22 0.929 . S
C16 O6 1.282 . S
C16 O17 1.216 . S
O17 C16 1.216 . S
H18 C13 0.930 . S
H19 C14 0.930 . S
O20 Cu0 1.959 . S
O20 C7 1.251 . S
H21 C4 0.930 . S
H22 C15 0.929 . S
Cu23 N24 1.999 . S
Cu23 O29 1.974 . S
Cu23 N34 1.985 . S
Cu23 O43 1.959 . S
N24 Cu23 1.999 . S
N24 C26 1.263 . S
N24 C28 1.389 . S
N25 C26 1.358 . S
N25 C27 1.400 . S
C26 N24 1.263 . S
C26 N25 1.358 . S
C26 H32 0.930 . S
C27 N25 1.400 . S
C27 C28 1.351 . S
C27 H44 0.930 . S
C28 N24 1.389 . S
C28 C27 1.351 . S
C28 H33 0.930 . S
O29 Cu23 1.974 . S
O29 C39 1.282 . S
C30 O31 1.261 . S
C30 O43 1.251 . S
O31 C30 1.261 . S
H32 C26 0.930 . S
H33 C28 0.930 . S
N34 Cu23 1.985 . S
N34 C36 1.335 . S
N34 C37 1.390 . S
N35 C36 1.345 . S
N35 C38 1.336 . S
C36 N34 1.335 . S
C36 N35 1.345 . S
C36 H41 0.930 . S
C37 N34 1.390 . S
C37 C38 1.346 . S
C37 H42 0.930 . S
C38 N35 1.336 . S
C38 C37 1.346 . S
C38 H45 0.929 . S
C39 O29 1.282 . S
C39 O40 1.216 . S
O40 C39 1.216 . S
H41 C36 0.930 . S
H42 C37 0.930 . S
O43 Cu23 1.959 . S
O43 C30 1.251 . S
H44 C27 0.930 . S
H45 C38 0.929 . S
Cu46 N47 1.999 . S
Cu46 O52 1.974 . S
Cu46 N57 1.985 . S
Cu46 O66 1.959 . S
N47 Cu46 1.999 . S
N47 C49 1.263 . S
N47 C51 1.389 . S
N48 C49 1.358 . S
N48 C50 1.400 . S
C49 N47 1.263 . S
C49 N48 1.358 . S
C49 H55 0.930 . S
C50 N48 1.400 . S
C50 C51 1.351 . S
C50 H67 0.930 . S
C51 N47 1.389 . S
C51 C50 1.351 . S
C51 H56 0.930 . S
O52 Cu46 1.974 . S
O52 C62 1.282 . S
C53 O54 1.261 . S
C53 O66 1.251 . S
O54 C53 1.261 . S
H55 C49 0.930 . S
H56 C51 0.930 . S
N57 Cu46 1.985 . S
N57 C59 1.335 . S
N57 C60 1.390 . S
N58 C59 1.345 . S
N58 C61 1.336 . S
C59 N57 1.335 . S
C59 N58 1.345 . S
C59 H64 0.930 . S
C60 N57 1.390 . S
C60 C61 1.346 . S
C60 H65 0.930 . S
C61 N58 1.336 . S
C61 C60 1.346 . S
C61 H68 0.929 . S
C62 O52 1.282 . S
C62 O63 1.216 . S
O63 C62 1.216 . S
H64 C59 0.930 . S
H65 C60 0.930 . S
O66 Cu46 1.959 . S
O66 C53 1.251 . S
H67 C50 0.930 . S
H68 C61 0.929 . S
Cu69 N70 1.999 . S
Cu69 O75 1.974 . S
Cu69 N80 1.985 . S
Cu69 O89 1.959 . S
N70 Cu69 1.999 . S
N70 C72 1.263 . S
N70 C74 1.389 . S
N71 C72 1.358 . S
N71 C73 1.400 . S
C72 N70 1.263 . S
C72 N71 1.358 . S
C72 H78 0.930 . S
C73 N71 1.400 . S
C73 C74 1.351 . S
C73 H90 0.930 . S
C74 N70 1.389 . S
C74 C73 1.351 . S
C74 H79 0.930 . S
O75 Cu69 1.974 . S
O75 C85 1.282 . S
C76 O77 1.261 . S
C76 O89 1.251 . S
O77 C76 1.261 . S
H78 C72 0.930 . S
H79 C74 0.930 . S
N80 Cu69 1.985 . S
N80 C82 1.335 . S
N80 C83 1.390 . S
N81 C82 1.345 . S
N81 C84 1.336 . S
C82 N80 1.335 . S
C82 N81 1.345 . S
C82 H87 0.930 . S
C83 N80 1.390 . S
C83 C84 1.346 . S
C83 H88 0.930 . S
C84 N81 1.336 . S
C84 C83 1.346 . S
C84 H91 0.929 . S
C85 O75 1.282 . S
C85 O86 1.216 . S
O86 C85 1.216 . S
H87 C82 0.930 . S
H88 C83 0.930 . S
O89 Cu69 1.959 . S
O89 C76 1.251 . S
H90 C73 0.930 . S
H91 C84 0.929 . S
Cu92 N93 1.999 . S
Cu92 O98 1.974 . S
Cu92 N103 1.985 . S
Cu92 O112 1.959 . S
N93 Cu92 1.999 . S
N93 C95 1.263 . S
N93 C97 1.389 . S
N94 C95 1.358 . S
N94 C96 1.400 . S
C95 N93 1.263 . S
C95 N94 1.358 . S
C95 H101 0.930 . S
C96 N94 1.400 . S
C96 C97 1.351 . S
C96 H113 0.930 . S
C97 N93 1.389 . S
C97 C96 1.351 . S
C97 H102 0.930 . S
O98 Cu92 1.974 . S
O98 C108 1.282 . S
C99 O100 1.261 . S
C99 O112 1.251 . S
O100 C99 1.261 . S
H101 C95 0.930 . S
H102 C97 0.930 . S
N103 Cu92 1.985 . S
N103 C105 1.335 . S
N103 C106 1.390 . S
N104 C105 1.345 . S
N104 C107 1.336 . S
C105 N103 1.335 . S
C105 N104 1.345 . S
C105 H110 0.930 . S
C106 N103 1.390 . S
C106 C107 1.346 . S
C106 H111 0.930 . S
C107 N104 1.336 . S
C107 C106 1.346 . S
C107 H114 0.929 . S
C108 O98 1.282 . S
C108 O109 1.216 . S
O109 C108 1.216 . S
H110 C105 0.930 . S
H111 C106 0.930 . S
O112 Cu92 1.959 . S
O112 C99 1.251 . S
H113 C96 0.930 . S
H114 C107 0.929 . S
Cu115 N116 1.999 . S
Cu115 O121 1.974 . S
Cu115 N126 1.985 . S
Cu115 O135 1.959 . S
N116 Cu115 1.999 . S
N116 C118 1.263 . S
N116 C120 1.389 . S
N117 C118 1.358 . S
N117 C119 1.400 . S
C118 N116 1.263 . S
C118 N117 1.358 . S
C118 H124 0.930 . S
C119 N117 1.400 . S
C119 C120 1.351 . S
C119 H136 0.930 . S
C120 N116 1.389 . S
C120 C119 1.351 . S
C120 H125 0.930 . S
O121 Cu115 1.974 . S
O121 C131 1.282 . S
C122 O123 1.261 . S
C122 O135 1.251 . S
O123 C122 1.261 . S
H124 C118 0.930 . S
H125 C120 0.930 . S
N126 Cu115 1.985 . S
N126 C128 1.335 . S
N126 C129 1.390 . S
N127 C128 1.345 . S
N127 C130 1.336 . S
C128 N126 1.335 . S
C128 N127 1.345 . S
C128 H133 0.930 . S
C129 N126 1.390 . S
C129 C130 1.346 . S
C129 H134 0.930 . S
C130 N127 1.336 . S
C130 C129 1.346 . S
C130 H137 0.929 . S
C131 O121 1.282 . S
C131 O132 1.216 . S
O132 C131 1.216 . S
H133 C128 0.930 . S
H134 C129 0.930 . S
O135 Cu115 1.959 . S
O135 C122 1.251 . S
H136 C119 0.930 . S
H137 C130 0.929 . S
Cu138 N139 1.999 . S
Cu138 O144 1.974 . S
Cu138 N149 1.985 . S
Cu138 O158 1.959 . S
N139 Cu138 1.999 . S
N139 C141 1.263 . S
N139 C143 1.389 . S
N140 C141 1.358 . S
N140 C142 1.400 . S
C141 N139 1.263 . S
C141 N140 1.358 . S
C141 H147 0.930 . S
C142 N140 1.400 . S
C142 C143 1.351 . S
C142 H159 0.930 . S
C143 N139 1.389 . S
C143 C142 1.351 . S
C143 H148 0.930 . S
O144 Cu138 1.974 . S
O144 C154 1.282 . S
C145 O146 1.261 . S
C145 O158 1.251 . S
O146 C145 1.261 . S
H147 C141 0.930 . S
H148 C143 0.930 . S
N149 Cu138 1.985 . S
N149 C151 1.335 . S
N149 C152 1.390 . S
N150 C151 1.345 . S
N150 C153 1.336 . S
C151 N149 1.335 . S
C151 N150 1.345 . S
C151 H156 0.930 . S
C152 N149 1.390 . S
C152 C153 1.346 . S
C152 H157 0.930 . S
C153 N150 1.336 . S
C153 C152 1.346 . S
C153 H160 0.929 . S
C154 O144 1.282 . S
C154 O155 1.216 . S
O155 C154 1.216 . S
H156 C151 0.930 . S
H157 C152 0.930 . S
O158 Cu138 1.959 . S
O158 C145 1.251 . S
H159 C142 0.930 . S
H160 C153 0.929 . S
Cu161 N162 1.999 . S
Cu161 O167 1.974 . S
Cu161 N172 1.985 . S
Cu161 O181 1.959 . S
N162 Cu161 1.999 . S
N162 C164 1.263 . S
N162 C166 1.389 . S
N163 C164 1.358 . S
N163 C165 1.400 . S
C164 N162 1.263 . S
C164 N163 1.358 . S
C164 H170 0.930 . S
C165 N163 1.400 . S
C165 C166 1.351 . S
C165 H182 0.930 . S
C166 N162 1.389 . S
C166 C165 1.351 . S
C166 H171 0.930 . S
O167 Cu161 1.974 . S
O167 C177 1.282 . S
C168 O169 1.261 . S
C168 O181 1.251 . S
O169 C168 1.261 . S
H170 C164 0.930 . S
H171 C166 0.930 . S
N172 Cu161 1.985 . S
N172 C174 1.335 . S
N172 C175 1.390 . S
N173 C174 1.345 . S
N173 C176 1.336 . S
C174 N172 1.335 . S
C174 N173 1.345 . S
C174 H179 0.930 . S
C175 N172 1.390 . S
C175 C176 1.346 . S
C175 H180 0.930 . S
C176 N173 1.336 . S
C176 C175 1.346 . S
C176 H183 0.929 . S
C177 O167 1.282 . S
C177 O178 1.216 . S
O178 C177 1.216 . S
H179 C174 0.930 . S
H180 C175 0.930 . S
O181 Cu161 1.959 . S
O181 C168 1.251 . S
H182 C165 0.930 . S
H183 C176 0.929 . S
Cu184 N185 1.999 . S
Cu184 O190 1.974 . S
Cu184 N195 1.985 . S
Cu184 O204 1.959 . S
N185 Cu184 1.999 . S
N185 C187 1.263 . S
N185 C189 1.389 . S
N186 C187 1.358 . S
N186 C188 1.400 . S
C187 N185 1.263 . S
C187 N186 1.358 . S
C187 H193 0.930 . S
C188 N186 1.400 . S
C188 C189 1.351 . S
C188 H205 0.930 . S
C189 N185 1.389 . S
C189 C188 1.351 . S
C189 H194 0.930 . S
O190 Cu184 1.974 . S
O190 C200 1.282 . S
C191 O192 1.261 . S
C191 O204 1.251 . S
O192 C191 1.261 . S
H193 C187 0.930 . S
H194 C189 0.930 . S
N195 Cu184 1.985 . S
N195 C197 1.335 . S
N195 C198 1.390 . S
N196 C197 1.345 . S
N196 C199 1.336 . S
C197 N195 1.335 . S
C197 N196 1.345 . S
C197 H202 0.930 . S
C198 N195 1.390 . S
C198 C199 1.346 . S
C198 H203 0.930 . S
C199 N196 1.336 . S
C199 C198 1.346 . S
C199 H206 0.929 . S
C200 O190 1.282 . S
C200 O201 1.216 . S
O201 C200 1.216 . S
H202 C197 0.930 . S
H203 C198 0.930 . S
O204 Cu184 1.959 . S
O204 C191 1.251 . S
H205 C188 0.930 . S
H206 C199 0.929 . S
Cu207 N208 1.999 . S
Cu207 O213 1.974 . S
Cu207 N218 1.985 . S
Cu207 O227 1.959 . S
N208 Cu207 1.999 . S
N208 C210 1.263 . S
N208 C212 1.389 . S
N209 C210 1.358 . S
N209 C211 1.400 . S
C210 N208 1.263 . S
C210 N209 1.358 . S
C210 H216 0.930 . S
C211 N209 1.400 . S
C211 C212 1.351 . S
C211 H228 0.930 . S
C212 N208 1.389 . S
C212 C211 1.351 . S
C212 H217 0.930 . S
O213 Cu207 1.974 . S
O213 C223 1.282 . S
C214 O215 1.261 . S
C214 O227 1.251 . S
O215 C214 1.261 . S
H216 C210 0.930 . S
H217 C212 0.930 . S
N218 Cu207 1.985 . S
N218 C220 1.335 . S
N218 C221 1.390 . S
N219 C220 1.345 . S
N219 C222 1.336 . S
C220 N218 1.335 . S
C220 N219 1.345 . S
C220 H225 0.930 . S
C221 N218 1.390 . S
C221 C222 1.346 . S
C221 H226 0.930 . S
C222 N219 1.336 . S
C222 C221 1.346 . S
C222 H229 0.929 . S
C223 O213 1.282 . S
C223 O224 1.216 . S
O224 C223 1.216 . S
H225 C220 0.930 . S
H226 C221 0.930 . S
O227 Cu207 1.959 . S
O227 C214 1.251 . S
H228 C211 0.930 . S
H229 C222 0.929 . S
Cu230 N231 1.999 . S
Cu230 O236 1.974 . S
Cu230 N241 1.985 . S
Cu230 O250 1.959 . S
N231 Cu230 1.999 . S
N231 C233 1.263 . S
N231 C235 1.389 . S
N232 C233 1.358 . S
N232 C234 1.400 . S
C233 N231 1.263 . S
C233 N232 1.358 . S
C233 H239 0.930 . S
C234 N232 1.400 . S
C234 C235 1.351 . S
C234 H251 0.930 . S
C235 N231 1.389 . S
C235 C234 1.351 . S
C235 H240 0.930 . S
O236 Cu230 1.974 . S
O236 C246 1.282 . S
C237 O238 1.261 . S
C237 O250 1.251 . S
O238 C237 1.261 . S
H239 C233 0.930 . S
H240 C235 0.930 . S
N241 Cu230 1.985 . S
N241 C243 1.335 . S
N241 C244 1.390 . S
N242 C243 1.345 . S
N242 C245 1.336 . S
C243 N241 1.335 . S
C243 N242 1.345 . S
C243 H248 0.930 . S
C244 N241 1.390 . S
C244 C245 1.346 . S
C244 H249 0.930 . S
C245 N242 1.336 . S
C245 C244 1.346 . S
C245 H252 0.929 . S
C246 O236 1.282 . S
C246 O247 1.216 . S
O247 C246 1.216 . S
H248 C243 0.930 . S
H249 C244 0.930 . S
O250 Cu230 1.959 . S
O250 C237 1.251 . S
H251 C234 0.930 . S
H252 C245 0.929 . S
Cu253 N254 1.999 . S
Cu253 O259 1.974 . S
Cu253 N264 1.985 . S
Cu253 O273 1.959 . S
N254 Cu253 1.999 . S
N254 C256 1.263 . S
N254 C258 1.389 . S
N255 C256 1.358 . S
N255 C257 1.400 . S
C256 N254 1.263 . S
C256 N255 1.358 . S
C256 H262 0.930 . S
C257 N255 1.400 . S
C257 C258 1.351 . S
C257 H274 0.930 . S
C258 N254 1.389 . S
C258 C257 1.351 . S
C258 H263 0.930 . S
O259 Cu253 1.974 . S
O259 C269 1.282 . S
C260 O261 1.261 . S
C260 O273 1.251 . S
O261 C260 1.261 . S
H262 C256 0.930 . S
H263 C258 0.930 . S
N264 Cu253 1.985 . S
N264 C266 1.335 . S
N264 C267 1.390 . S
N265 C266 1.345 . S
N265 C268 1.336 . S
C266 N264 1.335 . S
C266 N265 1.345 . S
C266 H271 0.930 . S
C267 N264 1.390 . S
C267 C268 1.346 . S
C267 H272 0.930 . S
C268 N265 1.336 . S
C268 C267 1.346 . S
C268 H275 0.929 . S
C269 O259 1.282 . S
C269 O270 1.216 . S
O270 C269 1.216 . S
H271 C266 0.930 . S
H272 C267 0.930 . S
O273 Cu253 1.959 . S
O273 C260 1.251 . S
H274 C257 0.930 . S
H275 C268 0.929 . S
Cu276 N277 1.999 . S
Cu276 O282 1.974 . S
Cu276 N287 1.985 . S
Cu276 O296 1.959 . S
N277 Cu276 1.999 . S
N277 C279 1.263 . S
N277 C281 1.389 . S
N278 C279 1.358 . S
N278 C280 1.400 . S
C279 N277 1.263 . S
C279 N278 1.358 . S
C279 H285 0.930 . S
C280 N278 1.400 . S
C280 C281 1.351 . S
C280 H297 0.930 . S
C281 N277 1.389 . S
C281 C280 1.351 . S
C281 H286 0.930 . S
O282 Cu276 1.974 . S
O282 C292 1.282 . S
C283 O284 1.261 . S
C283 O296 1.251 . S
O284 C283 1.261 . S
H285 C279 0.930 . S
H286 C281 0.930 . S
N287 Cu276 1.985 . S
N287 C289 1.335 . S
N287 C290 1.390 . S
N288 C289 1.345 . S
N288 C291 1.336 . S
C289 N287 1.335 . S
C289 N288 1.345 . S
C289 H294 0.930 . S
C290 N287 1.390 . S
C290 C291 1.346 . S
C290 H295 0.930 . S
C291 N288 1.336 . S
C291 C290 1.346 . S
C291 H298 0.929 . S
C292 O282 1.282 . S
C292 O293 1.216 . S
O293 C292 1.216 . S
H294 C289 0.930 . S
H295 C290 0.930 . S
O296 Cu276 1.959 . S
O296 C283 1.251 . S
H297 C280 0.930 . S
H298 C291 0.929 . S
Cu299 N300 1.999 . S
Cu299 O305 1.974 . S
Cu299 N310 1.985 . S
Cu299 O319 1.959 . S
N300 Cu299 1.999 . S
N300 C302 1.263 . S
N300 C304 1.389 . S
N301 C302 1.358 . S
N301 C303 1.400 . S
C302 N300 1.263 . S
C302 N301 1.358 . S
C302 H308 0.930 . S
C303 N301 1.400 . S
C303 C304 1.351 . S
C303 H320 0.930 . S
C304 N300 1.389 . S
C304 C303 1.351 . S
C304 H309 0.930 . S
O305 Cu299 1.974 . S
O305 C315 1.282 . S
C306 O307 1.261 . S
C306 O319 1.251 . S
O307 C306 1.261 . S
H308 C302 0.930 . S
H309 C304 0.930 . S
N310 Cu299 1.985 . S
N310 C312 1.335 . S
N310 C313 1.390 . S
N311 C312 1.345 . S
N311 C314 1.336 . S
C312 N310 1.335 . S
C312 N311 1.345 . S
C312 H317 0.930 . S
C313 N310 1.390 . S
C313 C314 1.346 . S
C313 H318 0.930 . S
C314 N311 1.336 . S
C314 C313 1.346 . S
C314 H321 0.929 . S
C315 O305 1.282 . S
C315 O316 1.216 . S
O316 C315 1.216 . S
H317 C312 0.930 . S
H318 C313 0.930 . S
O319 Cu299 1.959 . S
O319 C306 1.251 . S
H320 C303 0.930 . S
H321 C314 0.929 . S
Cu322 N323 1.999 . S
Cu322 O328 1.974 . S
Cu322 N333 1.985 . S
Cu322 O342 1.959 . S
N323 Cu322 1.999 . S
N323 C325 1.263 . S
N323 C327 1.389 . S
N324 C325 1.358 . S
N324 C326 1.400 . S
C325 N323 1.263 . S
C325 N324 1.358 . S
C325 H331 0.930 . S
C326 N324 1.400 . S
C326 C327 1.351 . S
C326 H343 0.930 . S
C327 N323 1.389 . S
C327 C326 1.351 . S
C327 H332 0.930 . S
O328 Cu322 1.974 . S
O328 C338 1.282 . S
C329 O330 1.261 . S
C329 O342 1.251 . S
O330 C329 1.261 . S
H331 C325 0.930 . S
H332 C327 0.930 . S
N333 Cu322 1.985 . S
N333 C335 1.335 . S
N333 C336 1.390 . S
N334 C335 1.345 . S
N334 C337 1.336 . S
C335 N333 1.335 . S
C335 N334 1.345 . S
C335 H340 0.930 . S
C336 N333 1.390 . S
C336 C337 1.346 . S
C336 H341 0.930 . S
C337 N334 1.336 . S
C337 C336 1.346 . S
C337 H344 0.929 . S
C338 O328 1.282 . S
C338 O339 1.216 . S
O339 C338 1.216 . S
H340 C335 0.930 . S
H341 C336 0.930 . S
O342 Cu322 1.959 . S
O342 C329 1.251 . S
H343 C326 0.930 . S
H344 C337 0.929 . S
Cu345 N346 1.999 . S
Cu345 O351 1.974 . S
Cu345 N356 1.985 . S
Cu345 O365 1.959 . S
N346 Cu345 1.999 . S
N346 C348 1.263 . S
N346 C350 1.389 . S
N347 C348 1.358 . S
N347 C349 1.400 . S
C348 N346 1.263 . S
C348 N347 1.358 . S
C348 H354 0.930 . S
C349 N347 1.400 . S
C349 C350 1.351 . S
C349 H366 0.930 . S
C350 N346 1.389 . S
C350 C349 1.351 . S
C350 H355 0.930 . S
O351 Cu345 1.974 . S
O351 C361 1.282 . S
C352 O353 1.261 . S
C352 O365 1.251 . S
O353 C352 1.261 . S
H354 C348 0.930 . S
H355 C350 0.930 . S
N356 Cu345 1.985 . S
N356 C358 1.335 . S
N356 C359 1.390 . S
N357 C358 1.345 . S
N357 C360 1.336 . S
C358 N356 1.335 . S
C358 N357 1.345 . S
C358 H363 0.930 . S
C359 N356 1.390 . S
C359 C360 1.346 . S
C359 H364 0.930 . S
C360 N357 1.336 . S
C360 C359 1.346 . S
C360 H367 0.929 . S
C361 O351 1.282 . S
C361 O362 1.216 . S
O362 C361 1.216 . S
H363 C358 0.930 . S
H364 C359 0.930 . S
O365 Cu345 1.959 . S
O365 C352 1.251 . S
H366 C349 0.930 . S
H367 C360 0.929 . S
C368 C369 1.349 . S
C368 C370 1.327 . S
C368 H393 0.950 . S
C369 C368 1.349 . S
C369 C385 1.349 . S
C370 C368 1.327 . S
C370 C389 1.429 . S
C370 H394 0.950 . S
C371 C388 1.574 1_455 S
C371 C390 1.368 . S
C371 H395 0.949 . S
H372 C376 0.949 . S
C373 C374 1.349 . S
C373 C375 1.327 . S
C373 H396 0.950 . S
C374 C373 1.349 . S
C374 C386 1.349 . S
C375 C373 1.327 . S
C375 C391 1.429 . S
C375 H397 0.950 . S
C376 H372 0.949 . S
C376 C384 1.574 1_655 S
C376 C392 1.368 . S
H377 C385 0.950 . S
H378 C383 0.950 . S
H379 C384 0.949 . S
H380 C386 0.950 . S
H381 C387 0.950 . S
H382 C388 0.949 . S
C383 H378 0.950 . S
C383 C385 1.327 . S
C383 C389 1.429 . S
C384 C376 1.574 1_455 S
C384 H379 0.949 . S
C384 C390 1.368 . S
C385 C369 1.349 . S
C385 H377 0.950 . S
C385 C383 1.327 . S
C386 C374 1.349 . S
C386 H380 0.950 . S
C386 C387 1.327 . S
C387 H381 0.950 . S
C387 C386 1.327 . S
C387 C391 1.429 . S
C388 C371 1.574 1_655 S
C388 H382 0.949 . S
C388 C392 1.368 . S
C389 C370 1.429 . S
C389 C383 1.429 . S
C389 C390 1.523 . S
C390 C371 1.368 . S
C390 C384 1.368 . S
C390 C389 1.523 . S
C391 C375 1.429 . S
C391 C387 1.429 . S
C391 C392 1.523 . S
C392 C376 1.368 . S
C392 C388 1.368 . S
C392 C391 1.523 . S
H393 C368 0.950 . S
H394 C370 0.950 . S
H395 C371 0.949 . S
H396 C373 0.950 . S
H397 C375 0.950 . S
C398 C399 1.349 . S
C398 C400 1.327 . S
C398 H423 0.950 . S
C399 C398 1.349 . S
C399 C415 1.349 . S
C400 C398 1.327 . S
C400 C419 1.429 . S
C400 H424 0.950 . S
C401 C418 1.574 1_565 S
C401 C420 1.368 . S
C401 H425 0.949 . S
H402 C406 0.949 . S
C403 C404 1.349 . S
C403 C405 1.327 . S
C403 H426 0.950 . S
C404 C403 1.349 . S
C404 C416 1.349 . S
C405 C403 1.327 . S
C405 C421 1.429 . S
C405 H427 0.950 . S
C406 H402 0.949 . S
C406 C414 1.574 1_545 S
C406 C422 1.368 . S
H407 C415 0.950 . S
H408 C413 0.950 . S
H409 C414 0.949 . S
H410 C416 0.950 . S
H411 C417 0.950 . S
H412 C418 0.949 . S
C413 H408 0.950 . S
C413 C415 1.327 . S
C413 C419 1.429 . S
C414 C406 1.574 1_565 S
C414 H409 0.949 . S
C414 C420 1.368 . S
C415 C399 1.349 . S
C415 H407 0.950 . S
C415 C413 1.327 . S
C416 C404 1.349 . S
C416 H410 0.950 . S
C416 C417 1.327 . S
C417 H411 0.950 . S
C417 C416 1.327 . S
C417 C421 1.429 . S
C418 C401 1.574 1_545 S
C418 H412 0.949 . S
C418 C422 1.368 . S
C419 C400 1.429 . S
C419 C413 1.429 . S
C419 C420 1.523 . S
C420 C401 1.368 . S
C420 C414 1.368 . S
C420 C419 1.523 . S
C421 C405 1.429 . S
C421 C417 1.429 . S
C421 C422 1.523 . S
C422 C406 1.368 . S
C422 C418 1.368 . S
C422 C421 1.523 . S
H423 C398 0.950 . S
H424 C400 0.950 . S
H425 C401 0.949 . S
H426 C403 0.950 . S
H427 C405 0.950 . S
C428 C429 1.349 . S
C428 C430 1.327 . S
C428 H453 0.950 . S
C429 C428 1.349 . S
C429 C445 1.349 . S
C430 C428 1.327 . S
C430 C449 1.429 . S
C430 H454 0.950 . S
C431 C448 1.574 1_455 S
C431 C450 1.368 . S
C431 H455 0.949 . S
H432 C436 0.949 . S
C433 C434 1.349 . S
C433 C435 1.327 . S
C433 H456 0.950 . S
C434 C433 1.349 . S
C434 C446 1.349 . S
C435 C433 1.327 . S
C435 C451 1.429 . S
C435 H457 0.950 . S
C436 H432 0.949 . S
C436 C444 1.574 1_655 S
C436 C452 1.368 . S
H437 C445 0.950 . S
H438 C443 0.950 . S
H439 C444 0.949 . S
H440 C446 0.950 . S
H441 C447 0.950 . S
H442 C448 0.949 . S
C443 H438 0.950 . S
C443 C445 1.327 . S
C443 C449 1.429 . S
C444 C436 1.574 1_455 S
C444 H439 0.949 . S
C444 C450 1.368 . S
C445 C429 1.349 . S
C445 H437 0.950 . S
C445 C443 1.327 . S
C446 C434 1.349 . S
C446 H440 0.950 . S
C446 C447 1.327 . S
C447 H441 0.950 . S
C447 C446 1.327 . S
C447 C451 1.429 . S
C448 C431 1.574 1_655 S
C448 H442 0.949 . S
C448 C452 1.368 . S
C449 C430 1.429 . S
C449 C443 1.429 . S
C449 C450 1.523 . S
C450 C431 1.368 . S
C450 C444 1.368 . S
C450 C449 1.523 . S
C451 C435 1.429 . S
C451 C447 1.429 . S
C451 C452 1.523 . S
C452 C436 1.368 . S
C452 C448 1.368 . S
C452 C451 1.523 . S
H453 C428 0.950 . S
H454 C430 0.950 . S
H455 C431 0.949 . S
H456 C433 0.950 . S
H457 C435 0.950 . S
C458 C459 1.349 . S
C458 C460 1.327 . S
C458 H483 0.950 . S
C459 C458 1.349 . S
C459 C475 1.349 . S
C460 C458 1.327 . S
C460 C479 1.429 . S
C460 H484 0.950 . S
C461 C478 1.574 1_565 S
C461 C480 1.368 . S
C461 H485 0.949 . S
H462 C466 0.949 . S
C463 C464 1.349 . S
C463 C465 1.327 . S
C463 H486 0.950 . S
C464 C463 1.349 . S
C464 C476 1.349 . S
C465 C463 1.327 . S
C465 C481 1.429 . S
C465 H487 0.950 . S
C466 H462 0.949 . S
C466 C474 1.574 1_545 S
C466 C482 1.368 . S
H467 C475 0.950 . S
H468 C473 0.950 . S
H469 C474 0.949 . S
H470 C476 0.950 . S
H471 C477 0.950 . S
H472 C478 0.949 . S
C473 H468 0.950 . S
C473 C475 1.327 . S
C473 C479 1.429 . S
C474 C466 1.574 1_565 S
C474 H469 0.949 . S
C474 C480 1.368 . S
C475 C459 1.349 . S
C475 H467 0.950 . S
C475 C473 1.327 . S
C476 C464 1.349 . S
C476 H470 0.950 . S
C476 C477 1.327 . S
C477 H471 0.950 . S
C477 C476 1.327 . S
C477 C481 1.429 . S
C478 C461 1.574 1_545 S
C478 H472 0.949 . S
C478 C482 1.368 . S
C479 C460 1.429 . S
C479 C473 1.429 . S
C479 C480 1.523 . S
C480 C461 1.368 . S
C480 C474 1.368 . S
C480 C479 1.523 . S
C481 C465 1.429 . S
C481 C477 1.429 . S
C481 C482 1.523 . S
C482 C466 1.368 . S
C482 C478 1.368 . S
C482 C481 1.523 . S
H483 C458 0.950 . S
H484 C460 0.950 . S
H485 C461 0.949 . S
H486 C463 0.950 . S
H487 C465 0.950 . S
C488 C489 1.349 . S
C488 C490 1.327 . S
C488 H513 0.950 . S
C489 C488 1.349 . S
C489 C505 1.349 . S
C490 C488 1.327 . S
C490 C509 1.429 . S
C490 H514 0.950 . S
C491 C508 1.574 1_655 S
C491 C510 1.368 . S
C491 H515 0.949 . S
H492 C496 0.949 . S
C493 C494 1.349 . S
C493 C495 1.327 . S
C493 H516 0.950 . S
C494 C493 1.349 . S
C494 C506 1.349 . S
C495 C493 1.327 . S
C495 C511 1.429 . S
C495 H517 0.950 . S
C496 H492 0.949 . S
C496 C504 1.574 1_455 S
C496 C512 1.368 . S
H497 C505 0.950 . S
H498 C503 0.950 . S
H499 C504 0.949 . S
H500 C506 0.950 . S
H501 C507 0.950 . S
H502 C508 0.949 . S
C503 H498 0.950 . S
C503 C505 1.327 . S
C503 C509 1.429 . S
C504 C496 1.574 1_655 S
C504 H499 0.949 . S
C504 C510 1.368 . S
C505 C489 1.349 . S
C505 H497 0.950 . S
C505 C503 1.327 . S
C506 C494 1.349 . S
C506 H500 0.950 . S
C506 C507 1.327 . S
C507 H501 0.950 . S
C507 C506 1.327 . S
C507 C511 1.429 . S
C508 C491 1.574 1_455 S
C508 H502 0.949 . S
C508 C512 1.368 . S
C509 C490 1.429 . S
C509 C503 1.429 . S
C509 C510 1.523 . S
C510 C491 1.368 . S
C510 C504 1.368 . S
C510 C509 1.523 . S
C511 C495 1.429 . S
C511 C507 1.429 . S
C511 C512 1.523 . S
C512 C496 1.368 . S
C512 C508 1.368 . S
C512 C511 1.523 . S
H513 C488 0.950 . S
H514 C490 0.950 . S
H515 C491 0.949 . S
H516 C493 0.950 . S
H517 C495 0.950 . S
C518 C519 1.349 . S
C518 C520 1.327 . S
C518 H543 0.950 . S
C519 C518 1.349 . S
C519 C535 1.349 . S
C520 C518 1.327 . S
C520 C539 1.429 . S
C520 H544 0.950 . S
C521 C538 1.574 1_545 S
C521 C540 1.368 . S
C521 H545 0.949 . S
H522 C526 0.949 . S
C523 C524 1.349 . S
C523 C525 1.327 . S
C523 H546 0.950 . S
C524 C523 1.349 . S
C524 C536 1.349 . S
C525 C523 1.327 . S
C525 C541 1.429 . S
C525 H547 0.950 . S
C526 H522 0.949 . S
C526 C534 1.574 1_565 S
C526 C542 1.368 . S
H527 C535 0.950 . S
H528 C533 0.950 . S
H529 C534 0.949 . S
H530 C536 0.950 . S
H531 C537 0.950 . S
H532 C538 0.949 . S
C533 H528 0.950 . S
C533 C535 1.327 . S
C533 C539 1.429 . S
C534 C526 1.574 1_545 S
C534 H529 0.949 . S
C534 C540 1.368 . S
C535 C519 1.349 . S
C535 H527 0.950 . S
C535 C533 1.327 . S
C536 C524 1.349 . S
C536 H530 0.950 . S
C536 C537 1.327 . S
C537 H531 0.950 . S
C537 C536 1.327 . S
C537 C541 1.429 . S
C538 C521 1.574 1_565 S
C538 H532 0.949 . S
C538 C542 1.368 . S
C539 C520 1.429 . S
C539 C533 1.429 . S
C539 C540 1.523 . S
C540 C521 1.368 . S
C540 C534 1.368 . S
C540 C539 1.523 . S
C541 C525 1.429 . S
C541 C537 1.429 . S
C541 C542 1.523 . S
C542 C526 1.368 . S
C542 C538 1.368 . S
C542 C541 1.523 . S
H543 C518 0.950 . S
H544 C520 0.950 . S
H545 C521 0.949 . S
H546 C523 0.950 . S
H547 C525 0.950 . S
C548 C549 1.349 . S
C548 C550 1.327 . S
C548 H573 0.950 . S
C549 C548 1.349 . S
C549 C565 1.349 . S
C550 C548 1.327 . S
C550 C569 1.429 . S
C550 H574 0.950 . S
C551 C568 1.574 1_655 S
C551 C570 1.368 . S
C551 H575 0.949 . S
H552 C556 0.949 . S
C553 C554 1.349 . S
C553 C555 1.327 . S
C553 H576 0.950 . S
C554 C553 1.349 . S
C554 C566 1.349 . S
C555 C553 1.327 . S
C555 C571 1.429 . S
C555 H577 0.950 . S
C556 H552 0.949 . S
C556 C564 1.574 1_455 S
C556 C572 1.368 . S
H557 C565 0.950 . S
H558 C563 0.950 . S
H559 C564 0.949 . S
H560 C566 0.950 . S
H561 C567 0.950 . S
H562 C568 0.949 . S
C563 H558 0.950 . S
C563 C565 1.327 . S
C563 C569 1.429 . S
C564 C556 1.574 1_655 S
C564 H559 0.949 . S
C564 C570 1.368 . S
C565 C549 1.349 . S
C565 H557 0.950 . S
C565 C563 1.327 . S
C566 C554 1.349 . S
C566 H560 0.950 . S
C566 C567 1.327 . S
C567 H561 0.950 . S
C567 C566 1.327 . S
C567 C571 1.429 . S
C568 C551 1.574 1_455 S
C568 H562 0.949 . S
C568 C572 1.368 . S
C569 C550 1.429 . S
C569 C563 1.429 . S
C569 C570 1.523 . S
C570 C551 1.368 . S
C570 C564 1.368 . S
C570 C569 1.523 . S
C571 C555 1.429 . S
C571 C567 1.429 . S
C571 C572 1.523 . S
C572 C556 1.368 . S
C572 C568 1.368 . S
C572 C571 1.523 . S
H573 C548 0.950 . S
H574 C550 0.950 . S
H575 C551 0.949 . S
H576 C553 0.950 . S
H577 C555 0.950 . S
C578 C579 1.349 . S
C578 C580 1.327 . S
C578 H603 0.950 . S
C579 C578 1.349 . S
C579 C595 1.349 . S
C580 C578 1.327 . S
C580 C599 1.429 . S
C580 H604 0.950 . S
C581 C598 1.574 1_545 S
C581 C600 1.368 . S
C581 H605 0.949 . S
H582 C586 0.949 . S
C583 C584 1.349 . S
C583 C585 1.327 . S
C583 H606 0.950 . S
C584 C583 1.349 . S
C584 C596 1.349 . S
C585 C583 1.327 . S
C585 C601 1.429 . S
C585 H607 0.950 . S
C586 H582 0.949 . S
C586 C594 1.574 1_565 S
C586 C602 1.368 . S
H587 C595 0.950 . S
H588 C593 0.950 . S
H589 C594 0.949 . S
H590 C596 0.950 . S
H591 C597 0.950 . S
H592 C598 0.949 . S
C593 H588 0.950 . S
C593 C595 1.327 . S
C593 C599 1.429 . S
C594 C586 1.574 1_545 S
C594 H589 0.949 . S
C594 C600 1.368 . S
C595 C579 1.349 . S
C595 H587 0.950 . S
C595 C593 1.327 . S
C596 C584 1.349 . S
C596 H590 0.950 . S
C596 C597 1.327 . S
C597 H591 0.950 . S
C597 C596 1.327 . S
C597 C601 1.429 . S
C598 C581 1.574 1_565 S
C598 H592 0.949 . S
C598 C602 1.368 . S
C599 C580 1.429 . S
C599 C593 1.429 . S
C599 C600 1.523 . S
C600 C581 1.368 . S
C600 C594 1.368 . S
C600 C599 1.523 . S
C601 C585 1.429 . S
C601 C597 1.429 . S
C601 C602 1.523 . S
C602 C586 1.368 . S
C602 C598 1.368 . S
C602 C601 1.523 . S
H603 C578 0.950 . S
H604 C580 0.950 . S
H605 C581 0.949 . S
H606 C583 0.950 . S
H607 C585 0.950 . S
C608 C609 1.349 . S
C608 C610 1.327 . S
C608 H633 0.950 . S
C609 C608 1.349 . S
C609 C625 1.349 . S
C610 C608 1.327 . S
C610 C629 1.429 . S
C610 H634 0.950 . S
C611 C628 1.574 . S
C611 C630 1.368 . S
C611 H635 0.949 . S
H612 C616 0.949 . S
C613 C614 1.349 . S
C613 C615 1.327 . S
C613 H636 0.950 . S
C614 C613 1.349 . S
C614 C626 1.349 . S
C615 C613 1.327 . S
C615 C631 1.429 . S
C615 H637 0.950 . S
C616 H612 0.949 . S
C616 C624 1.574 . S
C616 C632 1.368 . S
H617 C625 0.950 . S
H618 C623 0.950 . S
H619 C624 0.949 . S
H620 C626 0.950 . S
H621 C627 0.950 . S
H622 C628 0.949 . S
C623 H618 0.950 . S
C623 C625 1.327 . S
C623 C629 1.429 . S
C624 C616 1.574 . S
C624 H619 0.949 . S
C624 C630 1.368 . S
C625 C609 1.349 . S
C625 H617 0.950 . S
C625 C623 1.327 . S
C626 C614 1.349 . S
C626 H620 0.950 . S
C626 C627 1.327 . S
C627 H621 0.950 . S
C627 C626 1.327 . S
C627 C631 1.429 . S
C628 C611 1.574 . S
C628 H622 0.949 . S
C628 C632 1.368 . S
C629 C610 1.429 . S
C629 C623 1.429 . S
C629 C630 1.523 . S
C630 C611 1.368 . S
C630 C624 1.368 . S
C630 C629 1.523 . S
C631 C615 1.429 . S
C631 C627 1.429 . S
C631 C632 1.523 . S
C632 C616 1.368 . S
C632 C628 1.368 . S
C632 C631 1.523 . S
H633 C608 0.950 . S
H634 C610 0.950 . S
H635 C611 0.949 . S
H636 C613 0.950 . S
H637 C615 0.950 . S
C638 C639 1.349 . S
C638 C640 1.327 . S
C638 H663 0.950 . S
C639 C638 1.349 . S
C639 C655 1.349 . S
C640 C638 1.327 . S
C640 C659 1.429 . S
C640 H664 0.950 . S
C641 C658 1.574 . S
C641 C660 1.368 . S
C641 H665 0.949 . S
H642 C646 0.949 . S
C643 C644 1.349 . S
C643 C645 1.327 . S
C643 H666 0.950 . S
C644 C643 1.349 . S
C644 C656 1.349 . S
C645 C643 1.327 . S
C645 C661 1.429 . S
C645 H667 0.950 . S
C646 H642 0.949 . S
C646 C654 1.574 . S
C646 C662 1.368 . S
H647 C655 0.950 . S
H648 C653 0.950 . S
H649 C654 0.949 . S
H650 C656 0.950 . S
H651 C657 0.950 . S
H652 C658 0.949 . S
C653 H648 0.950 . S
C653 C655 1.327 . S
C653 C659 1.429 . S
C654 C646 1.574 . S
C654 H649 0.949 . S
C654 C660 1.368 . S
C655 C639 1.349 . S
C655 H647 0.950 . S
C655 C653 1.327 . S
C656 C644 1.349 . S
C656 H650 0.950 . S
C656 C657 1.327 . S
C657 H651 0.950 . S
C657 C656 1.327 . S
C657 C661 1.429 . S
C658 C641 1.574 . S
C658 H652 0.949 . S
C658 C662 1.368 . S
C659 C640 1.429 . S
C659 C653 1.429 . S
C659 C660 1.523 . S
C660 C641 1.368 . S
C660 C654 1.368 . S
C660 C659 1.523 . S
C661 C645 1.429 . S
C661 C657 1.429 . S
C661 C662 1.523 . S
C662 C646 1.368 . S
C662 C658 1.368 . S
C662 C661 1.523 . S
H663 C638 0.950 . S
H664 C640 0.950 . S
H665 C641 0.949 . S
H666 C643 0.950 . S
H667 C645 0.950 . S
C668 C669 1.349 . S
C668 C670 1.327 . S
C668 H693 0.950 . S
C669 C668 1.349 . S
C669 C685 1.349 . S
C670 C668 1.327 . S
C670 C689 1.429 . S
C670 H694 0.950 . S
C671 C688 1.574 . S
C671 C690 1.368 . S
C671 H695 0.949 . S
H672 C676 0.949 . S
C673 C674 1.349 . S
C673 C675 1.327 . S
C673 H696 0.950 . S
C674 C673 1.349 . S
C674 C686 1.349 . S
C675 C673 1.327 . S
C675 C691 1.429 . S
C675 H697 0.950 . S
C676 H672 0.949 . S
C676 C684 1.574 . S
C676 C692 1.368 . S
H677 C685 0.950 . S
H678 C683 0.950 . S
H679 C684 0.949 . S
H680 C686 0.950 . S
H681 C687 0.950 . S
H682 C688 0.949 . S
C683 H678 0.950 . S
C683 C685 1.327 . S
C683 C689 1.429 . S
C684 C676 1.574 . S
C684 H679 0.949 . S
C684 C690 1.368 . S
C685 C669 1.349 . S
C685 H677 0.950 . S
C685 C683 1.327 . S
C686 C674 1.349 . S
C686 H680 0.950 . S
C686 C687 1.327 . S
C687 H681 0.950 . S
C687 C686 1.327 . S
C687 C691 1.429 . S
C688 C671 1.574 . S
C688 H682 0.949 . S
C688 C692 1.368 . S
C689 C670 1.429 . S
C689 C683 1.429 . S
C689 C690 1.523 . S
C690 C671 1.368 . S
C690 C684 1.368 . S
C690 C689 1.523 . S
C691 C675 1.429 . S
C691 C687 1.429 . S
C691 C692 1.523 . S
C692 C676 1.368 . S
C692 C688 1.368 . S
C692 C691 1.523 . S
H693 C668 0.950 . S
H694 C670 0.950 . S
H695 C671 0.949 . S
H696 C673 0.950 . S
H697 C675 0.950 . S
C698 C699 1.349 . S
C698 C700 1.327 . S
C698 H723 0.950 . S
C699 C698 1.349 . S
C699 C715 1.349 . S
C700 C698 1.327 . S
C700 C719 1.429 . S
C700 H724 0.950 . S
C701 C718 1.574 . S
C701 C720 1.368 . S
C701 H725 0.949 . S
H702 C706 0.949 . S
C703 C704 1.349 . S
C703 C705 1.327 . S
C703 H726 0.950 . S
C704 C703 1.349 . S
C704 C716 1.349 . S
C705 C703 1.327 . S
C705 C721 1.429 . S
C705 H727 0.950 . S
C706 H702 0.949 . S
C706 C714 1.574 . S
C706 C722 1.368 . S
H707 C715 0.950 . S
H708 C713 0.950 . S
H709 C714 0.949 . S
H710 C716 0.950 . S
H711 C717 0.950 . S
H712 C718 0.949 . S
C713 H708 0.950 . S
C713 C715 1.327 . S
C713 C719 1.429 . S
C714 C706 1.574 . S
C714 H709 0.949 . S
C714 C720 1.368 . S
C715 C699 1.349 . S
C715 H707 0.950 . S
C715 C713 1.327 . S
C716 C704 1.349 . S
C716 H710 0.950 . S
C716 C717 1.327 . S
C717 H711 0.950 . S
C717 C716 1.327 . S
C717 C721 1.429 . S
C718 C701 1.574 . S
C718 H712 0.949 . S
C718 C722 1.368 . S
C719 C700 1.429 . S
C719 C713 1.429 . S
C719 C720 1.523 . S
C720 C701 1.368 . S
C720 C714 1.368 . S
C720 C719 1.523 . S
C721 C705 1.429 . S
C721 C717 1.429 . S
C721 C722 1.523 . S
C722 C706 1.368 . S
C722 C718 1.368 . S
C722 C721 1.523 . S
H723 C698 0.950 . S
H724 C700 0.950 . S
H725 C701 0.949 . S
H726 C703 0.950 . S
H727 C705 0.950 . S
C728 C729 1.349 . S
C728 C730 1.327 . S
C728 H753 0.950 . S
C729 C728 1.349 . S
C729 C745 1.349 . S
C730 C728 1.327 . S
C730 C749 1.429 . S
C730 H754 0.950 . S
C731 C748 1.574 . S
C731 C750 1.368 . S
C731 H755 0.949 . S
H732 C736 0.949 . S
C733 C734 1.349 . S
C733 C735 1.327 . S
C733 H756 0.950 . S
C734 C733 1.349 . S
C734 C746 1.349 . S
C735 C733 1.327 . S
C735 C751 1.429 . S
C735 H757 0.950 . S
C736 H732 0.949 . S
C736 C744 1.574 . S
C736 C752 1.368 . S
H737 C745 0.950 . S
H738 C743 0.950 . S
H739 C744 0.949 . S
H740 C746 0.950 . S
H741 C747 0.950 . S
H742 C748 0.949 . S
C743 H738 0.950 . S
C743 C745 1.327 . S
C743 C749 1.429 . S
C744 C736 1.574 . S
C744 H739 0.949 . S
C744 C750 1.368 . S
C745 C729 1.349 . S
C745 H737 0.950 . S
C745 C743 1.327 . S
C746 C734 1.349 . S
C746 H740 0.950 . S
C746 C747 1.327 . S
C747 H741 0.950 . S
C747 C746 1.327 . S
C747 C751 1.429 . S
C748 C731 1.574 . S
C748 H742 0.949 . S
C748 C752 1.368 . S
C749 C730 1.429 . S
C749 C743 1.429 . S
C749 C750 1.523 . S
C750 C731 1.368 . S
C750 C744 1.368 . S
C750 C749 1.523 . S
C751 C735 1.429 . S
C751 C747 1.429 . S
C751 C752 1.523 . S
C752 C736 1.368 . S
C752 C748 1.368 . S
C752 C751 1.523 . S
H753 C728 0.950 . S
H754 C730 0.950 . S
H755 C731 0.949 . S
H756 C733 0.950 . S
H757 C735 0.950 . S
C758 C759 1.349 . S
C758 C760 1.327 . S
C758 H783 0.950 . S
C759 C758 1.349 . S
C759 C775 1.349 . S
C760 C758 1.327 . S
C760 C779 1.429 . S
C760 H784 0.950 . S
C761 C778 1.574 . S
C761 C780 1.368 . S
C761 H785 0.949 . S
H762 C766 0.949 . S
C763 C764 1.349 . S
C763 C765 1.327 . S
C763 H786 0.950 . S
C764 C763 1.349 . S
C764 C776 1.349 . S
C765 C763 1.327 . S
C765 C781 1.429 . S
C765 H787 0.950 . S
C766 H762 0.949 . S
C766 C774 1.574 . S
C766 C782 1.368 . S
H767 C775 0.950 . S
H768 C773 0.950 . S
H769 C774 0.949 . S
H770 C776 0.950 . S
H771 C777 0.950 . S
H772 C778 0.949 . S
C773 H768 0.950 . S
C773 C775 1.327 . S
C773 C779 1.429 . S
C774 C766 1.574 . S
C774 H769 0.949 . S
C774 C780 1.368 . S
C775 C759 1.349 . S
C775 H767 0.950 . S
C775 C773 1.327 . S
C776 C764 1.349 . S
C776 H770 0.950 . S
C776 C777 1.327 . S
C777 H771 0.950 . S
C777 C776 1.327 . S
C777 C781 1.429 . S
C778 C761 1.574 . S
C778 H772 0.949 . S
C778 C782 1.368 . S
C779 C760 1.429 . S
C779 C773 1.429 . S
C779 C780 1.523 . S
C780 C761 1.368 . S
C780 C774 1.368 . S
C780 C779 1.523 . S
C781 C765 1.429 . S
C781 C777 1.429 . S
C781 C782 1.523 . S
C782 C766 1.368 . S
C782 C778 1.368 . S
C782 C781 1.523 . S
H783 C758 0.950 . S
H784 C760 0.950 . S
H785 C761 0.949 . S
H786 C763 0.950 . S
H787 C765 0.950 . S
C788 C789 1.349 . S
C788 C790 1.327 . S
C788 H813 0.950 . S
C789 C788 1.349 . S
C789 C805 1.349 . S
C790 C788 1.327 . S
C790 C809 1.429 . S
C790 H814 0.950 . S
C791 C808 1.574 . S
C791 C810 1.368 . S
C791 H815 0.949 . S
H792 C796 0.949 . S
C793 C794 1.349 . S
C793 C795 1.327 . S
C793 H816 0.950 . S
C794 C793 1.349 . S
C794 C806 1.349 . S
C795 C793 1.327 . S
C795 C811 1.429 . S
C795 H817 0.950 . S
C796 H792 0.949 . S
C796 C804 1.574 . S
C796 C812 1.368 . S
H797 C805 0.950 . S
H798 C803 0.950 . S
H799 C804 0.949 . S
H800 C806 0.950 . S
H801 C807 0.950 . S
H802 C808 0.949 . S
C803 H798 0.950 . S
C803 C805 1.327 . S
C803 C809 1.429 . S
C804 C796 1.574 . S
C804 H799 0.949 . S
C804 C810 1.368 . S
C805 C789 1.349 . S
C805 H797 0.950 . S
C805 C803 1.327 . S
C806 C794 1.349 . S
C806 H800 0.950 . S
C806 C807 1.327 . S
C807 H801 0.950 . S
C807 C806 1.327 . S
C807 C811 1.429 . S
C808 C791 1.574 . S
C808 H802 0.949 . S
C808 C812 1.368 . S
C809 C790 1.429 . S
C809 C803 1.429 . S
C809 C810 1.523 . S
C810 C791 1.368 . S
C810 C804 1.368 . S
C810 C809 1.523 . S
C811 C795 1.429 . S
C811 C807 1.429 . S
C811 C812 1.523 . S
C812 C796 1.368 . S
C812 C808 1.368 . S
C812 C811 1.523 . S
H813 C788 0.950 . S
H814 C790 0.950 . S
H815 C791 0.949 . S
H816 C793 0.950 . S
H817 C795 0.950 . S
C818 C819 1.349 . S
C818 C820 1.327 . S
C818 H843 0.950 . S
C819 C818 1.349 . S
C819 C835 1.349 . S
C820 C818 1.327 . S
C820 C839 1.429 . S
C820 H844 0.950 . S
C821 C838 1.574 . S
C821 C840 1.368 . S
C821 H845 0.949 . S
H822 C826 0.949 . S
C823 C824 1.349 . S
C823 C825 1.327 . S
C823 H846 0.950 . S
C824 C823 1.349 . S
C824 C836 1.349 . S
C825 C823 1.327 . S
C825 C841 1.429 . S
C825 H847 0.950 . S
C826 H822 0.949 . S
C826 C834 1.574 . S
C826 C842 1.368 . S
H827 C835 0.950 . S
H828 C833 0.950 . S
H829 C834 0.949 . S
H830 C836 0.950 . S
H831 C837 0.950 . S
H832 C838 0.949 . S
C833 H828 0.950 . S
C833 C835 1.327 . S
C833 C839 1.429 . S
C834 C826 1.574 . S
C834 H829 0.949 . S
C834 C840 1.368 . S
C835 C819 1.349 . S
C835 H827 0.950 . S
C835 C833 1.327 . S
C836 C824 1.349 . S
C836 H830 0.950 . S
C836 C837 1.327 . S
C837 H831 0.950 . S
C837 C836 1.327 . S
C837 C841 1.429 . S
C838 C821 1.574 . S
C838 H832 0.949 . S
C838 C842 1.368 . S
C839 C820 1.429 . S
C839 C833 1.429 . S
C839 C840 1.523 . S
C840 C821 1.368 . S
C840 C834 1.368 . S
C840 C839 1.523 . S
C841 C825 1.429 . S
C841 C837 1.429 . S
C841 C842 1.523 . S
C842 C826 1.368 . S
C842 C838 1.368 . S
C842 C841 1.523 . S
H843 C818 0.950 . S
H844 C820 0.950 . S
H845 C821 0.949 . S
H846 C823 0.950 . S
H847 C825 0.950 . S
C848 C849 1.349 . S
C848 C850 1.327 . S
C848 H873 0.950 . S
C849 C848 1.349 . S
C849 C865 1.349 . S
C850 C848 1.327 . S
C850 C869 1.429 . S
C850 H874 0.950 . S
C851 C868 1.574 1_556 S
C851 C870 1.368 . S
C851 H875 0.949 . S
H852 C856 0.949 . S
C853 C854 1.349 . S
C853 C855 1.327 . S
C853 H876 0.950 . S
C854 C853 1.349 . S
C854 C866 1.349 . S
C855 C853 1.327 . S
C855 C871 1.429 . S
C855 H877 0.950 . S
C856 H852 0.949 . S
C856 C864 1.574 1_554 S
C856 C872 1.368 . S
H857 C865 0.950 . S
H858 C863 0.950 . S
H859 C864 0.949 . S
H860 C866 0.950 . S
H861 C867 0.950 . S
H862 C868 0.949 . S
C863 H858 0.950 . S
C863 C865 1.327 . S
C863 C869 1.429 . S
C864 C856 1.574 1_556 S
C864 H859 0.949 . S
C864 C870 1.368 . S
C865 C849 1.349 . S
C865 H857 0.950 . S
C865 C863 1.327 . S
C866 C854 1.349 . S
C866 H860 0.950 . S
C866 C867 1.327 . S
C867 H861 0.950 . S
C867 C866 1.327 . S
C867 C871 1.429 . S
C868 C851 1.574 1_554 S
C868 H862 0.949 . S
C868 C872 1.368 . S
C869 C850 1.429 . S
C869 C863 1.429 . S
C869 C870 1.523 . S
C870 C851 1.368 . S
C870 C864 1.368 . S
C870 C869 1.523 . S
C871 C855 1.429 . S
C871 C867 1.429 . S
C871 C872 1.523 . S
C872 C856 1.368 . S
C872 C868 1.368 . S
C872 C871 1.523 . S
H873 C848 0.950 . S
H874 C850 0.950 . S
H875 C851 0.949 . S
H876 C853 0.950 . S
H877 C855 0.950 . S
C878 C879 1.349 . S
C878 C880 1.327 . S
C878 H903 0.950 . S
C879 C878 1.349 . S
C879 C895 1.349 . S
C880 C878 1.327 . S
C880 C899 1.429 . S
C880 H904 0.950 . S
C881 C898 1.574 . S
C881 C900 1.368 . S
C881 H905 0.949 . S
H882 C886 0.949 . S
C883 C884 1.349 . S
C883 C885 1.327 . S
C883 H906 0.950 . S
C884 C883 1.349 . S
C884 C896 1.349 . S
C885 C883 1.327 . S
C885 C901 1.429 . S
C885 H907 0.950 . S
C886 H882 0.949 . S
C886 C894 1.574 . S
C886 C902 1.368 . S
H887 C895 0.950 . S
H888 C893 0.950 . S
H889 C894 0.949 . S
H890 C896 0.950 . S
H891 C897 0.950 . S
H892 C898 0.949 . S
C893 H888 0.950 . S
C893 C895 1.327 . S
C893 C899 1.429 . S
C894 C886 1.574 . S
C894 H889 0.949 . S
C894 C900 1.368 . S
C895 C879 1.349 . S
C895 H887 0.950 . S
C895 C893 1.327 . S
C896 C884 1.349 . S
C896 H890 0.950 . S
C896 C897 1.327 . S
C897 H891 0.950 . S
C897 C896 1.327 . S
C897 C901 1.429 . S
C898 C881 1.574 . S
C898 H892 0.949 . S
C898 C902 1.368 . S
C899 C880 1.429 . S
C899 C893 1.429 . S
C899 C900 1.523 . S
C900 C881 1.368 . S
C900 C894 1.368 . S
C900 C899 1.523 . S
C901 C885 1.429 . S
C901 C897 1.429 . S
C901 C902 1.523 . S
C902 C886 1.368 . S
C902 C898 1.368 . S
C902 C901 1.523 . S
H903 C878 0.950 . S
H904 C880 0.950 . S
H905 C881 0.949 . S
H906 C883 0.950 . S
H907 C885 0.950 . S
C908 C909 1.349 . S
C908 C910 1.327 . S
C908 H933 0.950 . S
C909 C908 1.349 . S
C909 C925 1.349 . S
C910 C908 1.327 . S
C910 C929 1.429 . S
C910 H934 0.950 . S
C911 C928 1.574 1_554 S
C911 C930 1.368 . S
C911 H935 0.949 . S
H912 C916 0.949 . S
C913 C914 1.349 . S
C913 C915 1.327 . S
C913 H936 0.950 . S
C914 C913 1.349 . S
C914 C926 1.349 . S
C915 C913 1.327 . S
C915 C931 1.429 . S
C915 H937 0.950 . S
C916 H912 0.949 . S
C916 C924 1.574 1_556 S
C916 C932 1.368 . S
H917 C925 0.950 . S
H918 C923 0.950 . S
H919 C924 0.949 . S
H920 C926 0.950 . S
H921 C927 0.950 . S
H922 C928 0.949 . S
C923 H918 0.950 . S
C923 C925 1.327 . S
C923 C929 1.429 . S
C924 C916 1.574 1_554 S
C924 H919 0.949 . S
C924 C930 1.368 . S
C925 C909 1.349 . S
C925 H917 0.950 . S
C925 C923 1.327 . S
C926 C914 1.349 . S
C926 H920 0.950 . S
C926 C927 1.327 . S
C927 H921 0.950 . S
C927 C926 1.327 . S
C927 C931 1.429 . S
C928 C911 1.574 1_556 S
C928 H922 0.949 . S
C928 C932 1.368 . S
C929 C910 1.429 . S
C929 C923 1.429 . S
C929 C930 1.523 . S
C930 C911 1.368 . S
C930 C924 1.368 . S
C930 C929 1.523 . S
C931 C915 1.429 . S
C931 C927 1.429 . S
C931 C932 1.523 . S
C932 C916 1.368 . S
C932 C928 1.368 . S
C932 C931 1.523 . S
H933 C908 0.950 . S
H934 C910 0.950 . S
H935 C911 0.949 . S
H936 C913 0.950 . S
H937 C915 0.950 . S
C938 C939 1.349 . S
C938 C940 1.327 . S
C938 H963 0.950 . S
C939 C938 1.349 . S
C939 C955 1.349 . S
C940 C938 1.327 . S
C940 C959 1.429 . S
C940 H964 0.950 . S
C941 C958 1.574 . S
C941 C960 1.368 . S
C941 H965 0.949 . S
H942 C946 0.949 . S
C943 C944 1.349 . S
C943 C945 1.327 . S
C943 H966 0.950 . S
C944 C943 1.349 . S
C944 C956 1.349 . S
C945 C943 1.327 . S
C945 C961 1.429 . S
C945 H967 0.950 . S
C946 H942 0.949 . S
C946 C954 1.574 . S
C946 C962 1.368 . S
H947 C955 0.950 . S
H948 C953 0.950 . S
H949 C954 0.949 . S
H950 C956 0.950 . S
H951 C957 0.950 . S
H952 C958 0.949 . S
C953 H948 0.950 . S
C953 C955 1.327 . S
C953 C959 1.429 . S
C954 C946 1.574 . S
C954 H949 0.949 . S
C954 C960 1.368 . S
C955 C939 1.349 . S
C955 H947 0.950 . S
C955 C953 1.327 . S
C956 C944 1.349 . S
C956 H950 0.950 . S
C956 C957 1.327 . S
C957 H951 0.950 . S
C957 C956 1.327 . S
C957 C961 1.429 . S
C958 C941 1.574 . S
C958 H952 0.949 . S
C958 C962 1.368 . S
C959 C940 1.429 . S
C959 C953 1.429 . S
C959 C960 1.523 . S
C960 C941 1.368 . S
C960 C954 1.368 . S
C960 C959 1.523 . S
C961 C945 1.429 . S
C961 C957 1.429 . S
C961 C962 1.523 . S
C962 C946 1.368 . S
C962 C958 1.368 . S
C962 C961 1.523 . S
H963 C938 0.950 . S
H964 C940 0.950 . S
H965 C941 0.949 . S
H966 C943 0.950 . S
H967 C945 0.950 . S
C968 C969 1.349 . S
C968 C970 1.327 . S
C968 H993 0.950 . S
C969 C968 1.349 . S
C969 C985 1.349 . S
C970 C968 1.327 . S
C970 C989 1.429 . S
C970 H994 0.950 . S
C971 C988 1.574 . S
C971 C990 1.368 . S
C971 H995 0.949 . S
H972 C976 0.949 . S
C973 C974 1.349 . S
C973 C975 1.327 . S
C973 H996 0.950 . S
C974 C973 1.349 . S
C974 C986 1.349 . S
C975 C973 1.327 . S
C975 C991 1.429 . S
C975 H997 0.950 . S
C976 H972 0.949 . S
C976 C984 1.574 . S
C976 C992 1.368 . S
H977 C985 0.950 . S
H978 C983 0.950 . S
H979 C984 0.949 . S
H980 C986 0.950 . S
H981 C987 0.950 . S
H982 C988 0.949 . S
C983 H978 0.950 . S
C983 C985 1.327 . S
C983 C989 1.429 . S
C984 C976 1.574 . S
C984 H979 0.949 . S
C984 C990 1.368 . S
C985 C969 1.349 . S
C985 H977 0.950 . S
C985 C983 1.327 . S
C986 C974 1.349 . S
C986 H980 0.950 . S
C986 C987 1.327 . S
C987 H981 0.950 . S
C987 C986 1.327 . S
C987 C991 1.429 . S
C988 C971 1.574 . S
C988 H982 0.949 . S
C988 C992 1.368 . S
C989 C970 1.429 . S
C989 C983 1.429 . S
C989 C990 1.523 . S
C990 C971 1.368 . S
C990 C984 1.368 . S
C990 C989 1.523 . S
C991 C975 1.429 . S
C991 C987 1.429 . S
C991 C992 1.523 . S
C992 C976 1.368 . S
C992 C988 1.368 . S
C992 C991 1.523 . S
H993 C968 0.950 . S
H994 C970 0.950 . S
H995 C971 0.949 . S
H996 C973 0.950 . S
H997 C975 0.950 . S
C998 C999 1.349 . S
C998 C1000 1.327 . S
C998 H1023 0.950 . S
C999 C998 1.349 . S
C999 C1015 1.349 . S
C1000 C998 1.327 . S
C1000 C1019 1.429 . S
C1000 H1024 0.950 . S
C1001 C1018 1.574 1_556 S
C1001 C1020 1.368 . S
C1001 H1025 0.949 . S
H1002 C1006 0.949 . S
C1003 C1004 1.349 . S
C1003 C1005 1.327 . S
C1003 H1026 0.950 . S
C1004 C1003 1.349 . S
C1004 C1016 1.349 . S
C1005 C1003 1.327 . S
C1005 C1021 1.429 . S
C1005 H1027 0.950 . S
C1006 H1002 0.949 . S
C1006 C1014 1.574 1_554 S
C1006 C1022 1.368 . S
H1007 C1015 0.950 . S
H1008 C1013 0.950 . S
H1009 C1014 0.949 . S
H1010 C1016 0.950 . S
H1011 C1017 0.950 . S
H1012 C1018 0.949 . S
C1013 H1008 0.950 . S
C1013 C1015 1.327 . S
C1013 C1019 1.429 . S
C1014 C1006 1.574 1_556 S
C1014 H1009 0.949 . S
C1014 C1020 1.368 . S
C1015 C999 1.349 . S
C1015 H1007 0.950 . S
C1015 C1013 1.327 . S
C1016 C1004 1.349 . S
C1016 H1010 0.950 . S
C1016 C1017 1.327 . S
C1017 H1011 0.950 . S
C1017 C1016 1.327 . S
C1017 C1021 1.429 . S
C1018 C1001 1.574 1_554 S
C1018 H1012 0.949 . S
C1018 C1022 1.368 . S
C1019 C1000 1.429 . S
C1019 C1013 1.429 . S
C1019 C1020 1.523 . S
C1020 C1001 1.368 . S
C1020 C1014 1.368 . S
C1020 C1019 1.523 . S
C1021 C1005 1.429 . S
C1021 C1017 1.429 . S
C1021 C1022 1.523 . S
C1022 C1006 1.368 . S
C1022 C1018 1.368 . S
C1022 C1021 1.523 . S
H1023 C998 0.950 . S
H1024 C1000 0.950 . S
H1025 C1001 0.949 . S
H1026 C1003 0.950 . S
H1027 C1005 0.950 . S
C1028 C1029 1.349 . S
C1028 C1030 1.327 . S
C1028 H1053 0.950 . S
C1029 C1028 1.349 . S
C1029 C1045 1.349 . S
C1030 C1028 1.327 . S
C1030 C1049 1.429 . S
C1030 H1054 0.950 . S
C1031 C1048 1.574 . S
C1031 C1050 1.368 . S
C1031 H1055 0.949 . S
H1032 C1036 0.949 . S
C1033 C1034 1.349 . S
C1033 C1035 1.327 . S
C1033 H1056 0.950 . S
C1034 C1033 1.349 . S
C1034 C1046 1.349 . S
C1035 C1033 1.327 . S
C1035 C1051 1.429 . S
C1035 H1057 0.950 . S
C1036 H1032 0.949 . S
C1036 C1044 1.574 . S
C1036 C1052 1.368 . S
H1037 C1045 0.950 . S
H1038 C1043 0.950 . S
H1039 C1044 0.949 . S
H1040 C1046 0.950 . S
H1041 C1047 0.950 . S
H1042 C1048 0.949 . S
C1043 H1038 0.950 . S
C1043 C1045 1.327 . S
C1043 C1049 1.429 . S
C1044 C1036 1.574 . S
C1044 H1039 0.949 . S
C1044 C1050 1.368 . S
C1045 C1029 1.349 . S
C1045 H1037 0.950 . S
C1045 C1043 1.327 . S
C1046 C1034 1.349 . S
C1046 H1040 0.950 . S
C1046 C1047 1.327 . S
C1047 H1041 0.950 . S
C1047 C1046 1.327 . S
C1047 C1051 1.429 . S
C1048 C1031 1.574 . S
C1048 H1042 0.949 . S
C1048 C1052 1.368 . S
C1049 C1030 1.429 . S
C1049 C1043 1.429 . S
C1049 C1050 1.523 . S
C1050 C1031 1.368 . S
C1050 C1044 1.368 . S
C1050 C1049 1.523 . S
C1051 C1035 1.429 . S
C1051 C1047 1.429 . S
C1051 C1052 1.523 . S
C1052 C1036 1.368 . S
C1052 C1048 1.368 . S
C1052 C1051 1.523 . S
H1053 C1028 0.950 . S
H1054 C1030 0.950 . S
H1055 C1031 0.949 . S
H1056 C1033 0.950 . S
H1057 C1035 0.950 . S
C1058 C1059 1.349 . S
C1058 C1060 1.327 . S
C1058 H1083 0.950 . S
C1059 C1058 1.349 . S
C1059 C1075 1.349 . S
C1060 C1058 1.327 . S
C1060 C1079 1.429 . S
C1060 H1084 0.950 . S
C1061 C1078 1.574 1_554 S
C1061 C1080 1.368 . S
C1061 H1085 0.949 . S
H1062 C1066 0.949 . S
C1063 C1064 1.349 . S
C1063 C1065 1.327 . S
C1063 H1086 0.950 . S
C1064 C1063 1.349 . S
C1064 C1076 1.349 . S
C1065 C1063 1.327 . S
C1065 C1081 1.429 . S
C1065 H1087 0.950 . S
C1066 H1062 0.949 . S
C1066 C1074 1.574 1_556 S
C1066 C1082 1.368 . S
H1067 C1075 0.950 . S
H1068 C1073 0.950 . S
H1069 C1074 0.949 . S
H1070 C1076 0.950 . S
H1071 C1077 0.950 . S
H1072 C1078 0.949 . S
C1073 H1068 0.950 . S
C1073 C1075 1.327 . S
C1073 C1079 1.429 . S
C1074 C1066 1.574 1_554 S
C1074 H1069 0.949 . S
C1074 C1080 1.368 . S
C1075 C1059 1.349 . S
C1075 H1067 0.950 . S
C1075 C1073 1.327 . S
C1076 C1064 1.349 . S
C1076 H1070 0.950 . S
C1076 C1077 1.327 . S
C1077 H1071 0.950 . S
C1077 C1076 1.327 . S
C1077 C1081 1.429 . S
C1078 C1061 1.574 1_556 S
C1078 H1072 0.949 . S
C1078 C1082 1.368 . S
C1079 C1060 1.429 . S
C1079 C1073 1.429 . S
C1079 C1080 1.523 . S
C1080 C1061 1.368 . S
C1080 C1074 1.368 . S
C1080 C1079 1.523 . S
C1081 C1065 1.429 . S
C1081 C1077 1.429 . S
C1081 C1082 1.523 . S
C1082 C1066 1.368 . S
C1082 C1078 1.368 . S
C1082 C1081 1.523 . S
H1083 C1058 0.950 . S
H1084 C1060 0.950 . S
H1085 C1061 0.949 . S
H1086 C1063 0.950 . S
H1087 C1065 0.950 . S
C1088 C1089 1.349 . S
C1088 C1090 1.327 . S
C1088 H1113 0.950 . S
C1089 C1088 1.349 . S
C1089 C1105 1.349 . S
C1090 C1088 1.327 . S
C1090 C1109 1.429 . S
C1090 H1114 0.950 . S
C1091 C1108 1.574 . S
C1091 C1110 1.368 . S
C1091 H1115 0.949 . S
H1092 C1096 0.949 . S
C1093 C1094 1.349 . S
C1093 C1095 1.327 . S
C1093 H1116 0.950 . S
C1094 C1093 1.349 . S
C1094 C1106 1.349 . S
C1095 C1093 1.327 . S
C1095 C1111 1.429 . S
C1095 H1117 0.950 . S
C1096 H1092 0.949 . S
C1096 C1104 1.574 . S
C1096 C1112 1.368 . S
H1097 C1105 0.950 . S
H1098 C1103 0.950 . S
H1099 C1104 0.949 . S
H1100 C1106 0.950 . S
H1101 C1107 0.950 . S
H1102 C1108 0.949 . S
C1103 H1098 0.950 . S
C1103 C1105 1.327 . S
C1103 C1109 1.429 . S
C1104 C1096 1.574 . S
C1104 H1099 0.949 . S
C1104 C1110 1.368 . S
C1105 C1089 1.349 . S
C1105 H1097 0.950 . S
C1105 C1103 1.327 . S
C1106 C1094 1.349 . S
C1106 H1100 0.950 . S
C1106 C1107 1.327 . S
C1107 H1101 0.950 . S
C1107 C1106 1.327 . S
C1107 C1111 1.429 . S
C1108 C1091 1.574 . S
C1108 H1102 0.949 . S
C1108 C1112 1.368 . S
C1109 C1090 1.429 . S
C1109 C1103 1.429 . S
C1109 C1110 1.523 . S
C1110 C1091 1.368 . S
C1110 C1104 1.368 . S
C1110 C1109 1.523 . S
C1111 C1095 1.429 . S
C1111 C1107 1.429 . S
C1111 C1112 1.523 . S
C1112 C1096 1.368 . S
C1112 C1108 1.368 . S
C1112 C1111 1.523 . S
H1113 C1088 0.950 . S
H1114 C1090 0.950 . S
H1115 C1091 0.949 . S
H1116 C1093 0.950 . S
H1117 C1095 0.950 . S
C1118 C1119 1.349 . S
C1118 C1120 1.327 . S
C1118 H1143 0.950 . S
C1119 C1118 1.349 . S
C1119 C1135 1.349 . S
C1120 C1118 1.327 . S
C1120 C1139 1.429 . S
C1120 H1144 0.950 . S
C1121 C1138 1.574 . S
C1121 C1140 1.368 . S
C1121 H1145 0.949 . S
H1122 C1126 0.949 . S
C1123 C1124 1.349 . S
C1123 C1125 1.327 . S
C1123 H1146 0.950 . S
C1124 C1123 1.349 . S
C1124 C1136 1.349 . S
C1125 C1123 1.327 . S
C1125 C1141 1.429 . S
C1125 H1147 0.950 . S
C1126 H1122 0.949 . S
C1126 C1134 1.574 . S
C1126 C1142 1.368 . S
H1127 C1135 0.950 . S
H1128 C1133 0.950 . S
H1129 C1134 0.949 . S
H1130 C1136 0.950 . S
H1131 C1137 0.950 . S
H1132 C1138 0.949 . S
C1133 H1128 0.950 . S
C1133 C1135 1.327 . S
C1133 C1139 1.429 . S
C1134 C1126 1.574 . S
C1134 H1129 0.949 . S
C1134 C1140 1.368 . S
C1135 C1119 1.349 . S
C1135 H1127 0.950 . S
C1135 C1133 1.327 . S
C1136 C1124 1.349 . S
C1136 H1130 0.950 . S
C1136 C1137 1.327 . S
C1137 H1131 0.950 . S
C1137 C1136 1.327 . S
C1137 C1141 1.429 . S
C1138 C1121 1.574 . S
C1138 H1132 0.949 . S
C1138 C1142 1.368 . S
C1139 C1120 1.429 . S
C1139 C1133 1.429 . S
C1139 C1140 1.523 . S
C1140 C1121 1.368 . S
C1140 C1134 1.368 . S
C1140 C1139 1.523 . S
C1141 C1125 1.429 . S
C1141 C1137 1.429 . S
C1141 C1142 1.523 . S
C1142 C1126 1.368 . S
C1142 C1138 1.368 . S
C1142 C1141 1.523 . S
H1143 C1118 0.950 . S
H1144 C1120 0.950 . S
H1145 C1121 0.949 . S
H1146 C1123 0.950 . S
H1147 C1125 0.950 . S
C1148 C1149 1.349 . S
C1148 C1150 1.327 . S
C1148 H1173 0.950 . S
C1149 C1148 1.349 . S
C1149 C1165 1.349 . S
C1150 C1148 1.327 . S
C1150 C1169 1.429 . S
C1150 H1174 0.950 . S
C1151 C1168 1.574 . S
C1151 C1170 1.368 . S
C1151 H1175 0.949 . S
H1152 C1156 0.949 . S
C1153 C1154 1.349 . S
C1153 C1155 1.327 . S
C1153 H1176 0.950 . S
C1154 C1153 1.349 . S
C1154 C1166 1.349 . S
C1155 C1153 1.327 . S
C1155 C1171 1.429 . S
C1155 H1177 0.950 . S
C1156 H1152 0.949 . S
C1156 C1164 1.574 . S
C1156 C1172 1.368 . S
H1157 C1165 0.950 . S
H1158 C1163 0.950 . S
H1159 C1164 0.949 . S
H1160 C1166 0.950 . S
H1161 C1167 0.950 . S
H1162 C1168 0.949 . S
C1163 H1158 0.950 . S
C1163 C1165 1.327 . S
C1163 C1169 1.429 . S
C1164 C1156 1.574 . S
C1164 H1159 0.949 . S
C1164 C1170 1.368 . S
C1165 C1149 1.349 . S
C1165 H1157 0.950 . S
C1165 C1163 1.327 . S
C1166 C1154 1.349 . S
C1166 H1160 0.950 . S
C1166 C1167 1.327 . S
C1167 H1161 0.950 . S
C1167 C1166 1.327 . S
C1167 C1171 1.429 . S
C1168 C1151 1.574 . S
C1168 H1162 0.949 . S
C1168 C1172 1.368 . S
C1169 C1150 1.429 . S
C1169 C1163 1.429 . S
C1169 C1170 1.523 . S
C1170 C1151 1.368 . S
C1170 C1164 1.368 . S
C1170 C1169 1.523 . S
C1171 C1155 1.429 . S
C1171 C1167 1.429 . S
C1171 C1172 1.523 . S
C1172 C1156 1.368 . S
C1172 C1168 1.368 . S
C1172 C1171 1.523 . S
H1173 C1148 0.950 . S
H1174 C1150 0.950 . S
H1175 C1151 0.949 . S
H1176 C1153 0.950 . S
H1177 C1155 0.950 . S
C1178 C1179 1.349 . S
C1178 C1180 1.327 . S
C1178 H1203 0.950 . S
C1179 C1178 1.349 . S
C1179 C1195 1.349 . S
C1180 C1178 1.327 . S
C1180 C1199 1.429 . S
C1180 H1204 0.950 . S
C1181 C1198 1.574 . S
C1181 C1200 1.368 . S
C1181 H1205 0.949 . S
H1182 C1186 0.949 . S
C1183 C1184 1.349 . S
C1183 C1185 1.327 . S
C1183 H1206 0.950 . S
C1184 C1183 1.349 . S
C1184 C1196 1.349 . S
C1185 C1183 1.327 . S
C1185 C1201 1.429 . S
C1185 H1207 0.950 . S
C1186 H1182 0.949 . S
C1186 C1194 1.574 . S
C1186 C1202 1.368 . S
H1187 C1195 0.950 . S
H1188 C1193 0.950 . S
H1189 C1194 0.949 . S
H1190 C1196 0.950 . S
H1191 C1197 0.950 . S
H1192 C1198 0.949 . S
C1193 H1188 0.950 . S
C1193 C1195 1.327 . S
C1193 C1199 1.429 . S
C1194 C1186 1.574 . S
C1194 H1189 0.949 . S
C1194 C1200 1.368 . S
C1195 C1179 1.349 . S
C1195 H1187 0.950 . S
C1195 C1193 1.327 . S
C1196 C1184 1.349 . S
C1196 H1190 0.950 . S
C1196 C1197 1.327 . S
C1197 H1191 0.950 . S
C1197 C1196 1.327 . S
C1197 C1201 1.429 . S
C1198 C1181 1.574 . S
C1198 H1192 0.949 . S
C1198 C1202 1.368 . S
C1199 C1180 1.429 . S
C1199 C1193 1.429 . S
C1199 C1200 1.523 . S
C1200 C1181 1.368 . S
C1200 C1194 1.368 . S
C1200 C1199 1.523 . S
C1201 C1185 1.429 . S
C1201 C1197 1.429 . S
C1201 C1202 1.523 . S
C1202 C1186 1.368 . S
C1202 C1198 1.368 . S
C1202 C1201 1.523 . S
H1203 C1178 0.950 . S
H1204 C1180 0.950 . S
H1205 C1181 0.949 . S
H1206 C1183 0.950 . S
H1207 C1185 0.950 . S
C1208 C1209 1.349 . S
C1208 C1210 1.327 . S
C1208 H1233 0.950 . S
C1209 C1208 1.349 . S
C1209 C1225 1.349 . S
C1210 C1208 1.327 . S
C1210 C1229 1.429 . S
C1210 H1234 0.950 . S
C1211 C1228 1.574 . S
C1211 C1230 1.368 . S
C1211 H1235 0.949 . S
H1212 C1216 0.949 . S
C1213 C1214 1.349 . S
C1213 C1215 1.327 . S
C1213 H1236 0.950 . S
C1214 C1213 1.349 . S
C1214 C1226 1.349 . S
C1215 C1213 1.327 . S
C1215 C1231 1.429 . S
C1215 H1237 0.950 . S
C1216 H1212 0.949 . S
C1216 C1224 1.574 . S
C1216 C1232 1.368 . S
H1217 C1225 0.950 . S
H1218 C1223 0.950 . S
H1219 C1224 0.949 . S
H1220 C1226 0.950 . S
H1221 C1227 0.950 . S
H1222 C1228 0.949 . S
C1223 H1218 0.950 . S
C1223 C1225 1.327 . S
C1223 C1229 1.429 . S
C1224 C1216 1.574 . S
C1224 H1219 0.949 . S
C1224 C1230 1.368 . S
C1225 C1209 1.349 . S
C1225 H1217 0.950 . S
C1225 C1223 1.327 . S
C1226 C1214 1.349 . S
C1226 H1220 0.950 . S
C1226 C1227 1.327 . S
C1227 H1221 0.950 . S
C1227 C1226 1.327 . S
C1227 C1231 1.429 . S
C1228 C1211 1.574 . S
C1228 H1222 0.949 . S
C1228 C1232 1.368 . S
C1229 C1210 1.429 . S
C1229 C1223 1.429 . S
C1229 C1230 1.523 . S
C1230 C1211 1.368 . S
C1230 C1224 1.368 . S
C1230 C1229 1.523 . S
C1231 C1215 1.429 . S
C1231 C1227 1.429 . S
C1231 C1232 1.523 . S
C1232 C1216 1.368 . S
C1232 C1228 1.368 . S
C1232 C1231 1.523 . S
H1233 C1208 0.950 . S
H1234 C1210 0.950 . S
H1235 C1211 0.949 . S
H1236 C1213 0.950 . S
H1237 C1215 0.950 . S
C1238 C1239 1.349 . S
C1238 C1240 1.327 . S
C1238 H1263 0.950 . S
C1239 C1238 1.349 . S
C1239 C1255 1.349 . S
C1240 C1238 1.327 . S
C1240 C1259 1.429 . S
C1240 H1264 0.950 . S
C1241 C1258 1.574 . S
C1241 C1260 1.368 . S
C1241 H1265 0.949 . S
H1242 C1246 0.949 . S
C1243 C1244 1.349 . S
C1243 C1245 1.327 . S
C1243 H1266 0.950 . S
C1244 C1243 1.349 . S
C1244 C1256 1.349 . S
C1245 C1243 1.327 . S
C1245 C1261 1.429 . S
C1245 H1267 0.950 . S
C1246 H1242 0.949 . S
C1246 C1254 1.574 . S
C1246 C1262 1.368 . S
H1247 C1255 0.950 . S
H1248 C1253 0.950 . S
H1249 C1254 0.949 . S
H1250 C1256 0.950 . S
H1251 C1257 0.950 . S
H1252 C1258 0.949 . S
C1253 H1248 0.950 . S
C1253 C1255 1.327 . S
C1253 C1259 1.429 . S
C1254 C1246 1.574 . S
C1254 H1249 0.949 . S
C1254 C1260 1.368 . S
C1255 C1239 1.349 . S
C1255 H1247 0.950 . S
C1255 C1253 1.327 . S
C1256 C1244 1.349 . S
C1256 H1250 0.950 . S
C1256 C1257 1.327 . S
C1257 H1251 0.950 . S
C1257 C1256 1.327 . S
C1257 C1261 1.429 . S
C1258 C1241 1.574 . S
C1258 H1252 0.949 . S
C1258 C1262 1.368 . S
C1259 C1240 1.429 . S
C1259 C1253 1.429 . S
C1259 C1260 1.523 . S
C1260 C1241 1.368 . S
C1260 C1254 1.368 . S
C1260 C1259 1.523 . S
C1261 C1245 1.429 . S
C1261 C1257 1.429 . S
C1261 C1262 1.523 . S
C1262 C1246 1.368 . S
C1262 C1258 1.368 . S
C1262 C1261 1.523 . S
H1263 C1238 0.950 . S
H1264 C1240 0.950 . S
H1265 C1241 0.949 . S
H1266 C1243 0.950 . S
H1267 C1245 0.950 . S
C1268 C1269 1.349 . S
C1268 C1270 1.327 . S
C1268 H1293 0.950 . S
C1269 C1268 1.349 . S
C1269 C1285 1.349 . S
C1270 C1268 1.327 . S
C1270 C1289 1.429 . S
C1270 H1294 0.950 . S
C1271 C1288 1.574 . S
C1271 C1290 1.368 . S
C1271 H1295 0.949 . S
H1272 C1276 0.949 . S
C1273 C1274 1.349 . S
C1273 C1275 1.327 . S
C1273 H1296 0.950 . S
C1274 C1273 1.349 . S
C1274 C1286 1.349 . S
C1275 C1273 1.327 . S
C1275 C1291 1.429 . S
C1275 H1297 0.950 . S
C1276 H1272 0.949 . S
C1276 C1284 1.574 . S
C1276 C1292 1.368 . S
H1277 C1285 0.950 . S
H1278 C1283 0.950 . S
H1279 C1284 0.949 . S
H1280 C1286 0.950 . S
H1281 C1287 0.950 . S
H1282 C1288 0.949 . S
C1283 H1278 0.950 . S
C1283 C1285 1.327 . S
C1283 C1289 1.429 . S
C1284 C1276 1.574 . S
C1284 H1279 0.949 . S
C1284 C1290 1.368 . S
C1285 C1269 1.349 . S
C1285 H1277 0.950 . S
C1285 C1283 1.327 . S
C1286 C1274 1.349 . S
C1286 H1280 0.950 . S
C1286 C1287 1.327 . S
C1287 H1281 0.950 . S
C1287 C1286 1.327 . S
C1287 C1291 1.429 . S
C1288 C1271 1.574 . S
C1288 H1282 0.949 . S
C1288 C1292 1.368 . S
C1289 C1270 1.429 . S
C1289 C1283 1.429 . S
C1289 C1290 1.523 . S
C1290 C1271 1.368 . S
C1290 C1284 1.368 . S
C1290 C1289 1.523 . S
C1291 C1275 1.429 . S
C1291 C1287 1.429 . S
C1291 C1292 1.523 . S
C1292 C1276 1.368 . S
C1292 C1288 1.368 . S
C1292 C1291 1.523 . S
H1293 C1268 0.950 . S
H1294 C1270 0.950 . S
H1295 C1271 0.949 . S
H1296 C1273 0.950 . S
H1297 C1275 0.950 . S
C1298 C1299 1.349 . S
C1298 C1300 1.327 . S
C1298 H1323 0.950 . S
C1299 C1298 1.349 . S
C1299 C1315 1.349 . S
C1300 C1298 1.327 . S
C1300 C1319 1.429 . S
C1300 H1324 0.950 . S
C1301 C1318 1.574 . S
C1301 C1320 1.368 . S
C1301 H1325 0.949 . S
H1302 C1306 0.949 . S
C1303 C1304 1.349 . S
C1303 C1305 1.327 . S
C1303 H1326 0.950 . S
C1304 C1303 1.349 . S
C1304 C1316 1.349 . S
C1305 C1303 1.327 . S
C1305 C1321 1.429 . S
C1305 H1327 0.950 . S
C1306 H1302 0.949 . S
C1306 C1314 1.574 . S
C1306 C1322 1.368 . S
H1307 C1315 0.950 . S
H1308 C1313 0.950 . S
H1309 C1314 0.949 . S
H1310 C1316 0.950 . S
H1311 C1317 0.950 . S
H1312 C1318 0.949 . S
C1313 H1308 0.950 . S
C1313 C1315 1.327 . S
C1313 C1319 1.429 . S
C1314 C1306 1.574 . S
C1314 H1309 0.949 . S
C1314 C1320 1.368 . S
C1315 C1299 1.349 . S
C1315 H1307 0.950 . S
C1315 C1313 1.327 . S
C1316 C1304 1.349 . S
C1316 H1310 0.950 . S
C1316 C1317 1.327 . S
C1317 H1311 0.950 . S
C1317 C1316 1.327 . S
C1317 C1321 1.429 . S
C1318 C1301 1.574 . S
C1318 H1312 0.949 . S
C1318 C1322 1.368 . S
C1319 C1300 1.429 . S
C1319 C1313 1.429 . S
C1319 C1320 1.523 . S
C1320 C1301 1.368 . S
C1320 C1314 1.368 . S
C1320 C1319 1.523 . S
C1321 C1305 1.429 . S
C1321 C1317 1.429 . S
C1321 C1322 1.523 . S
C1322 C1306 1.368 . S
C1322 C1318 1.368 . S
C1322 C1321 1.523 . S
H1323 C1298 0.950 . S
H1324 C1300 0.950 . S
H1325 C1301 0.949 . S
H1326 C1303 0.950 . S
H1327 C1305 0.950 . S
C369 N2 1.546 . S
C374 N48 1.546 . S
C399 N71 1.546 . S
C404 N25 1.546 . S
C429 N94 1.546 . S
C434 N140 1.546 . S
C459 N163 1.546 . S
C464 N117 1.546 . S
C489 N186 1.546 . S
C494 N232 1.546 . S
C519 N255 1.546 . S
C524 N209 1.546 . S
C549 N278 1.546 . S
C554 N324 1.546 . S
C579 N347 1.546 . S
C584 N301 1.546 . S
C609 C108 1.653 . S
C614 C16 1.653 . S
C639 C39 1.653 . S
C644 C131 1.653 . S
C669 C62 1.653 . S
C674 C154 1.653 . S
C699 C177 1.653 . S
C704 C85 1.653 . S
C729 C200 1.653 . S
C734 C292 1.653 . S
C759 C223 1.653 . S
C764 C315 1.653 . S
C789 C246 1.653 . S
C794 C338 1.653 . S
C819 C269 1.653 . S
C824 C361 1.653 . S
C849 C237 1.677 . S
C854 C7 1.677 . S
C879 C260 1.677 . S
C884 C30 1.677 . S
C909 C53 1.677 . S
C914 C191 1.677 . S
C939 C76 1.677 . S
C944 C214 1.677 . S
C969 C99 1.677 . S
C974 C329 1.677 . S
C999 C122 1.677 . S
C1004 C352 1.677 . S
C1029 C145 1.677 . S
C1034 C283 1.677 . S
C1059 C306 1.677 . S
C1064 C168 1.677 . S
C1089 N12 1.569 . S
C1094 N357 1.569 . S
C1119 N288 1.569 . S
C1124 N35 1.569 . S
C1149 N58 1.569 . S
C1154 N311 1.569 . S
C1179 N334 1.569 . S
C1184 N81 1.569 . S
C1209 N219 1.569 . S
C1214 N104 1.569 . S
C1239 N127 1.569 . S
C1244 N242 1.569 . S
C1269 N265 1.569 . S
C1274 N150 1.569 . S
C1299 N196 1.569 . S
C1304 N173 1.569 . S
