# Generated by pormake.
# Topology unw, (4)-cn, num edge types: 1
# Building blocks:
#     Node 0, Type 0, BuildingBlock: ESEHIV_clean_sbu_0, # of connection points: 4
#     Node 1, Type 0, BuildingBlock: ESEHIV_clean_sbu_0, # of connection points: 4
#     Node 2, Type 0, BuildingBlock: ESEHIV_clean_sbu_0, # of connection points: 4
#     Node 3, Type 0, BuildingBlock: ESEHIV_clean_sbu_0, # of connection points: 4
#     Node 4, Type 0, BuildingBlock: ESEHIV_clean_sbu_0, # of connection points: 4
#     Node 5, Type 0, BuildingBlock: ESEHIV_clean_sbu_0, # of connection points: 4
#     Node 6, Type 0, BuildingBlock: ESEHIV_clean_sbu_0, # of connection points: 4
#     Node 7, Type 0, BuildingBlock: ESEHIV_clean_sbu_0, # of connection points: 4
#     Node 8, Type 0, BuildingBlock: ESEHIV_clean_sbu_0, # of connection points: 4
#     Node 9, Type 0, BuildingBlock: ESEHIV_clean_sbu_0, # of connection points: 4
#     Node 10, Type 0, BuildingBlock: ESEHIV_clean_sbu_0, # of connection points: 4
#     Node 11, Type 0, BuildingBlock: ESEHIV_clean_sbu_0, # of connection points: 4
#     Node 12, Type 0, BuildingBlock: ESEHIV_clean_sbu_0, # of connection points: 4
#     Node 13, Type 0, BuildingBlock: ESEHIV_clean_sbu_0, # of connection points: 4
#     Node 14, Type 0, BuildingBlock: ESEHIV_clean_sbu_0, # of connection points: 4
#     Node 15, Type 0, BuildingBlock: ESEHIV_clean_sbu_0, # of connection points: 4
#     Node 16, Type 0, BuildingBlock: ESEHIV_clean_sbu_0, # of connection points: 4
#     Node 17, Type 0, BuildingBlock: ESEHIV_clean_sbu_0, # of connection points: 4
#     Node 18, Type 0, BuildingBlock: ESEHIV_clean_sbu_0, # of connection points: 4
#     Node 19, Type 0, BuildingBlock: ESEHIV_clean_sbu_0, # of connection points: 4
#     Node 20, Type 0, BuildingBlock: ESEHIV_clean_sbu_0, # of connection points: 4
#     Node 21, Type 0, BuildingBlock: ESEHIV_clean_sbu_0, # of connection points: 4
#     Node 22, Type 0, BuildingBlock: ESEHIV_clean_sbu_0, # of connection points: 4
#     Node 23, Type 0, BuildingBlock: ESEHIV_clean_sbu_0, # of connection points: 4
#     Edge 24, Type (0, 0), BuildingBlock: KIFKEQ_clean_linker_1, # of connection points: 2
#     Edge 25, Type (0, 0), BuildingBlock: KIFKEQ_clean_linker_1, # of connection points: 2
#     Edge 26, Type (0, 0), BuildingBlock: KIFKEQ_clean_linker_1, # of connection points: 2
#     Edge 27, Type (0, 0), BuildingBlock: KIFKEQ_clean_linker_1, # of connection points: 2
#     Edge 28, Type (0, 0), BuildingBlock: KIFKEQ_clean_linker_1, # of connection points: 2
#     Edge 29, Type (0, 0), BuildingBlock: KIFKEQ_clean_linker_1, # of connection points: 2
#     Edge 30, Type (0, 0), BuildingBlock: KIFKEQ_clean_linker_1, # of connection points: 2
#     Edge 31, Type (0, 0), BuildingBlock: KIFKEQ_clean_linker_1, # of connection points: 2
#     Edge 32, Type (0, 0), BuildingBlock: KIFKEQ_clean_linker_1, # of connection points: 2
#     Edge 33, Type (0, 0), BuildingBlock: KIFKEQ_clean_linker_1, # of connection points: 2
#     Edge 34, Type (0, 0), BuildingBlock: KIFKEQ_clean_linker_1, # of connection points: 2
#     Edge 35, Type (0, 0), BuildingBlock: KIFKEQ_clean_linker_1, # of connection points: 2
#     Edge 36, Type (0, 0), BuildingBlock: KIFKEQ_clean_linker_1, # of connection points: 2
#     Edge 37, Type (0, 0), BuildingBlock: KIFKEQ_clean_linker_1, # of connection points: 2
#     Edge 38, Type (0, 0), BuildingBlock: KIFKEQ_clean_linker_1, # of connection points: 2
#     Edge 39, Type (0, 0), BuildingBlock: KIFKEQ_clean_linker_1, # of connection points: 2
#     Edge 40, Type (0, 0), BuildingBlock: KIFKEQ_clean_linker_1, # of connection points: 2
#     Edge 41, Type (0, 0), BuildingBlock: KIFKEQ_clean_linker_1, # of connection points: 2
#     Edge 42, Type (0, 0), BuildingBlock: KIFKEQ_clean_linker_1, # of connection points: 2
#     Edge 43, Type (0, 0), BuildingBlock: KIFKEQ_clean_linker_1, # of connection points: 2
#     Edge 44, Type (0, 0), BuildingBlock: KIFKEQ_clean_linker_1, # of connection points: 2
#     Edge 45, Type (0, 0), BuildingBlock: KIFKEQ_clean_linker_1, # of connection points: 2
#     Edge 46, Type (0, 0), BuildingBlock: KIFKEQ_clean_linker_1, # of connection points: 2
#     Edge 47, Type (0, 0), BuildingBlock: KIFKEQ_clean_linker_1, # of connection points: 2
#     Edge 48, Type (0, 0), BuildingBlock: KIFKEQ_clean_linker_1, # of connection points: 2
#     Edge 49, Type (0, 0), BuildingBlock: KIFKEQ_clean_linker_1, # of connection points: 2
#     Edge 50, Type (0, 0), BuildingBlock: KIFKEQ_clean_linker_1, # of connection points: 2
#     Edge 51, Type (0, 0), BuildingBlock: KIFKEQ_clean_linker_1, # of connection points: 2
#     Edge 52, Type (0, 0), BuildingBlock: KIFKEQ_clean_linker_1, # of connection points: 2
#     Edge 53, Type (0, 0), BuildingBlock: KIFKEQ_clean_linker_1, # of connection points: 2
#     Edge 54, Type (0, 0), BuildingBlock: KIFKEQ_clean_linker_1, # of connection points: 2
#     Edge 55, Type (0, 0), BuildingBlock: KIFKEQ_clean_linker_1, # of connection points: 2
#     Edge 56, Type (0, 0), BuildingBlock: KIFKEQ_clean_linker_1, # of connection points: 2
#     Edge 57, Type (0, 0), BuildingBlock: KIFKEQ_clean_linker_1, # of connection points: 2
#     Edge 58, Type (0, 0), BuildingBlock: KIFKEQ_clean_linker_1, # of connection points: 2
#     Edge 59, Type (0, 0), BuildingBlock: KIFKEQ_clean_linker_1, # of connection points: 2
#     Edge 60, Type (0, 0), BuildingBlock: KIFKEQ_clean_linker_1, # of connection points: 2
#     Edge 61, Type (0, 0), BuildingBlock: KIFKEQ_clean_linker_1, # of connection points: 2
#     Edge 62, Type (0, 0), BuildingBlock: KIFKEQ_clean_linker_1, # of connection points: 2
#     Edge 63, Type (0, 0), BuildingBlock: KIFKEQ_clean_linker_1, # of connection points: 2
#     Edge 64, Type (0, 0), BuildingBlock: KIFKEQ_clean_linker_1, # of connection points: 2
#     Edge 65, Type (0, 0), BuildingBlock: KIFKEQ_clean_linker_1, # of connection points: 2
#     Edge 66, Type (0, 0), BuildingBlock: KIFKEQ_clean_linker_1, # of connection points: 2
#     Edge 67, Type (0, 0), BuildingBlock: KIFKEQ_clean_linker_1, # of connection points: 2
#     Edge 68, Type (0, 0), BuildingBlock: KIFKEQ_clean_linker_1, # of connection points: 2
#     Edge 69, Type (0, 0), BuildingBlock: KIFKEQ_clean_linker_1, # of connection points: 2
#     Edge 70, Type (0, 0), BuildingBlock: KIFKEQ_clean_linker_1, # of connection points: 2
#     Edge 71, Type (0, 0), BuildingBlock: KIFKEQ_clean_linker_1, # of connection points: 2
# Relax obj value: 0.335
# Max RMSD: 0.211
# Mean RMSD: 0.204
data_MOF--net-unw--node1-ESEHIV_clean_sbu_0--edge1-KIFKEQ_clean_linker_1
_symmetry_space_group_name_H-M    P1
_symmetry_Int_Tables_number       1
_symmetry_cell_setting            triclinic
loop_
_symmetry_equiv_pos_as_xyz
'x, y, z'
_cell_length_a     51.007546
_cell_length_b     52.301133
_cell_length_c     51.678363
_cell_angle_alpha  90.661323
_cell_angle_beta   90.253977
_cell_angle_gamma 92.116153
loop_
_atom_site_label
_atom_site_type_symbol
_atom_site_fract_x
_atom_site_fract_y
_atom_site_fract_z
_atom_type_partial_charge
Cu0 Cu 0.1199 0.37761 0.26783 0.0
N1 N 0.13148 0.36772 0.30008 0.0
N2 N 0.14135 0.33784 0.32867 0.0
C3 C 0.126 0.34401 0.30858 0.0
C4 C 0.15678 0.35896 0.33344 0.0
C5 C 0.15074 0.37739 0.31556 0.0
O6 O 0.08406 0.36414 0.26618 0.0
C7 C 0.15138 0.36899 0.22219 0.0
O8 O 0.1411 0.38909 0.21171 0.0
H9 H 0.11236 0.33085 0.29876 0.0
H10 H 0.16114 0.39553 0.31267 0.0
N11 N 0.12174 0.41303 0.26417 0.0
N12 N 0.13556 0.45157 0.25057 0.0
C13 C 0.14229 0.42739 0.25554 0.0
C14 C 0.10151 0.42876 0.26529 0.0
C15 C 0.10996 0.45256 0.25687 0.0
C16 C 0.07665 0.34339 0.25483 0.0
O17 O 0.09266 0.33195 0.23901 0.0
H18 H 0.16122 0.41976 0.25113 0.0
H19 H 0.08168 0.42293 0.27048 0.0
O20 O 0.14328 0.36115 0.24404 0.0
H21 H 0.17282 0.3602 0.34722 0.0
H22 H 0.09792 0.469 0.25456 0.0
Cu23 Cu 0.63783 0.12741 0.24217 0.0
N24 N 0.66095 0.13075 0.21469 0.0
N25 N 0.68527 0.15443 0.18749 0.0
C26 C 0.66272 0.15237 0.20092 0.0
C27 C 0.69816 0.133 0.19283 0.0
C28 C 0.68307 0.11838 0.20968 0.0
O29 O 0.60488 0.14018 0.22927 0.0
C30 C 0.66492 0.14358 0.28895 0.0
O31 O 0.66069 0.12029 0.29751 0.0
H32 H 0.64911 0.16764 0.20314 0.0
H33 H 0.68892 0.10127 0.21935 0.0
N34 N 0.63433 0.09336 0.25316 0.0
N35 N 0.643 0.0557 0.27102 0.0
C36 C 0.65316 0.07803 0.26178 0.0
C37 C 0.61158 0.08002 0.25645 0.0
C38 C 0.61682 0.05687 0.26745 0.0
C39 C 0.58543 0.1477 0.24229 0.0
O40 O 0.58582 0.1461 0.26763 0.0
H41 H 0.67373 0.08384 0.26274 0.0
H42 H 0.59242 0.08705 0.25198 0.0
O43 O 0.65386 0.15033 0.26812 0.0
H44 H 0.7178 0.12902 0.18647 0.0
H45 H 0.60235 0.0423 0.27291 0.0
Cu46 Cu 0.87248 0.6161 0.29285 0.0
N47 N 0.87158 0.62842 0.32669 0.0
N48 N 0.87569 0.65849 0.35761 0.0
C49 C 0.88083 0.65205 0.3329 0.0
C50 C 0.86253 0.63792 0.36742 0.0
C51 C 0.86008 0.61927 0.34823 0.0
O52 O 0.90347 0.63274 0.27822 0.0
C53 C 0.83993 0.63222 0.25199 0.0
O54 O 0.86161 0.63322 0.23836 0.0
H55 H 0.88955 0.66497 0.31888 0.0
H56 H 0.84965 0.60095 0.34954 0.0
N57 N 0.87253 0.58056 0.29046 0.0
N58 N 0.86031 0.54206 0.27446 0.0
C59 C 0.86315 0.56732 0.26976 0.0
C60 C 0.87597 0.56311 0.30899 0.0
C61 C 0.86839 0.53926 0.29914 0.0
C62 C 0.92534 0.62934 0.28936 0.0
O63 O 0.92668 0.61103 0.30647 0.0
H64 H 0.8567 0.57633 0.25221 0.0
H65 H 0.88213 0.56757 0.32863 0.0
O66 O 0.84087 0.62622 0.27571 0.0
H67 H 0.85438 0.63678 0.38669 0.0
H68 H 0.868 0.52143 0.30959 0.0
Cu69 Cu 0.3578 0.85203 0.26883 0.0
N70 N 0.33764 0.83467 0.29358 0.0
N71 N 0.29964 0.82415 0.31287 0.0
C72 C 0.31503 0.84324 0.30319 0.0
C73 C 0.31341 0.80278 0.30979 0.0
C74 C 0.33688 0.80934 0.29792 0.0
O75 O 0.35242 0.88843 0.27409 0.0
C76 C 0.32383 0.829 0.23106 0.0
O77 O 0.30505 0.83521 0.24698 0.0
H78 H 0.30846 0.86239 0.29998 0.0
H79 H 0.35098 0.79623 0.29046 0.0
N80 N 0.3935 0.84585 0.27242 0.0
N81 N 0.43393 0.83464 0.26142 0.0
C82 C 0.40802 0.832 0.25603 0.0
C83 C 0.41077 0.8575 0.28883 0.0
C84 C 0.43574 0.85066 0.28207 0.0
C85 C 0.33266 0.90035 0.26615 0.0
O86 O 0.31574 0.88867 0.25041 0.0
H87 H 0.39989 0.82149 0.23952 0.0
H88 H 0.40566 0.87098 0.30385 0.0
O89 O 0.34715 0.83749 0.23546 0.0
H90 H 0.30615 0.78354 0.31386 0.0
H91 H 0.45386 0.85751 0.29118 0.0
Cu92 Cu 0.14103 0.62548 0.73884 0.0
N93 N 0.15765 0.62903 0.70704 0.0
N94 N 0.17786 0.65293 0.67703 0.0
C95 C 0.15797 0.65116 0.69406 0.0
C96 C 0.19043 0.63077 0.67909 0.0
C97 C 0.17787 0.61602 0.69763 0.0
O98 O 0.10586 0.63871 0.73478 0.0
C99 C 0.17608 0.63987 0.78119 0.0
O100 O 0.17155 0.61691 0.79053 0.0
H101 H 0.14597 0.66701 0.69935 0.0
H102 H 0.18468 0.59839 0.70553 0.0
N103 N 0.13964 0.59119 0.74934 0.0
N104 N 0.15153 0.55323 0.76446 0.0
C105 C 0.15977 0.57585 0.75422 0.0
C106 C 0.11792 0.57769 0.75625 0.0
C107 C 0.12513 0.55436 0.76553 0.0
C108 C 0.10198 0.66261 0.73655 0.0
O109 O 0.1216 0.67819 0.74358 0.0
H110 H 0.18009 0.58166 0.75124 0.0
H111 H 0.09827 0.58477 0.75557 0.0
O112 O 0.16311 0.64707 0.76166 0.0
H113 H 0.20859 0.62647 0.66949 0.0
H114 H 0.11193 0.53996 0.77368 0.0
Cu115 Cu 0.37688 0.08709 0.77968 0.0
N116 N 0.36845 0.09429 0.74567 0.0
N117 N 0.34184 0.10059 0.71214 0.0
C118 C 0.34372 0.09244 0.73669 0.0
C119 C 0.36656 0.10784 0.70537 0.0
C120 C 0.38302 0.10383 0.72617 0.0
O121 O 0.35883 0.05452 0.78591 0.0
C122 C 0.37371 0.12495 0.81988 0.0
O123 O 0.39435 0.11453 0.83005 0.0
H124 H 0.32721 0.08648 0.74856 0.0
H125 H 0.40387 0.10828 0.72726 0.0
N126 N 0.41318 0.08724 0.78459 0.0
N127 N 0.4528 0.10475 0.79413 0.0
C128 C 0.4287 0.10858 0.78428 0.0
C129 C 0.42801 0.069 0.79457 0.0
C130 C 0.45251 0.07972 0.80038 0.0
C131 C 0.36537 0.03534 0.77237 0.0
O132 O 0.38707 0.03713 0.75879 0.0
H133 H 0.42146 0.12711 0.77936 0.0
H134 H 0.42099 0.0498 0.79905 0.0
O135 O 0.36267 0.11471 0.8 0.0
H136 H 0.37224 0.11601 0.687 0.0
H137 H 0.46832 0.07011 0.80978 0.0
Cu138 Cu 0.87779 0.37516 0.76787 0.0
N139 N 0.87423 0.35499 0.79707 0.0
N140 N 0.84887 0.33375 0.82531 0.0
C141 C 0.85295 0.35569 0.81225 0.0
C142 C 0.86861 0.31869 0.81831 0.0
C143 C 0.88431 0.33191 0.8009 0.0
O144 O 0.86721 0.40956 0.77746 0.0
C145 C 0.85813 0.3508 0.72057 0.0
O146 O 0.88018 0.358 0.70934 0.0
H147 H 0.83865 0.37041 0.81085 0.0
H148 H 0.89992 0.32406 0.78956 0.0
N149 N 0.91236 0.37547 0.75574 0.0
N150 N 0.94957 0.36364 0.73693 0.0
C151 C 0.92561 0.35588 0.74561 0.0
C152 C 0.92858 0.39619 0.75378 0.0
C153 C 0.95149 0.389 0.7422 0.0
C154 C 0.84371 0.41667 0.77491 0.0
O155 O 0.82624 0.40102 0.76377 0.0
H156 H 0.91735 0.3366 0.74359 0.0
H157 H 0.92382 0.41532 0.75985 0.0
O158 O 0.85355 0.35822 0.74358 0.0
H159 H 0.87009 0.29878 0.82343 0.0
H160 H 0.96816 0.40157 0.7378 0.0
Cu161 Cu 0.62693 0.89093 0.76569 0.0
N162 N 0.63622 0.87962 0.79823 0.0
N163 N 0.64287 0.85022 0.8283 0.0
C164 C 0.633 0.85493 0.80471 0.0
C165 C 0.65289 0.87301 0.83707 0.0
C166 C 0.64865 0.89123 0.81841 0.0
O167 O 0.59239 0.87505 0.76048 0.0
C168 C 0.66149 0.8859 0.72126 0.0
O169 O 0.65039 0.90534 0.71034 0.0
H170 H 0.62474 0.84043 0.79163 0.0
H171 H 0.65488 0.91122 0.81915 0.0
N172 N 0.62545 0.92655 0.76468 0.0
N173 N 0.63378 0.9675 0.7545 0.0
C174 C 0.64324 0.9437 0.75523 0.0
C175 C 0.60431 0.94001 0.77061 0.0
C176 C 0.60934 0.96523 0.76434 0.0
C177 C 0.58753 0.85413 0.74829 0.0
O178 O 0.60573 0.84416 0.73385 0.0
H179 H 0.66219 0.93864 0.74783 0.0
H180 H 0.58612 0.93182 0.77806 0.0
O181 O 0.65322 0.87764 0.74288 0.0
H182 H 0.66299 0.87619 0.85535 0.0
H183 H 0.59581 0.98058 0.76631 0.0
Cu184 Cu 0.26092 0.12633 0.38417 0.0
N185 N 0.22751 0.13552 0.37405 0.0
N186 N 0.19537 0.16279 0.36828 0.0
C187 C 0.21554 0.15611 0.38339 0.0
C188 C 0.194 0.14501 0.3491 0.0
C189 C 0.21395 0.12823 0.35267 0.0
O190 O 0.26535 0.13881 0.41982 0.0
C191 C 0.28187 0.16039 0.34627 0.0
O192 O 0.26292 0.17517 0.35351 0.0
H193 H 0.22289 0.16733 0.3997 0.0
H194 H 0.21965 0.11331 0.33939 0.0
N195 N 0.26299 0.09081 0.38287 0.0
N196 N 0.27277 0.05167 0.36889 0.0
C197 C 0.27251 0.07682 0.36321 0.0
C198 C 0.25687 0.07402 0.40159 0.0
C199 C 0.2629 0.04985 0.39305 0.0
C200 C 0.26882 0.16233 0.42617 0.0
O201 O 0.27472 0.17901 0.40811 0.0
H202 H 0.27983 0.08508 0.34541 0.0
H203 H 0.24895 0.07907 0.42027 0.0
O204 O 0.28571 0.13997 0.35871 0.0
H205 H 0.18125 0.14558 0.33233 0.0
H206 H 0.26021 0.03233 0.40381 0.0
Cu207 Cu 0.87509 0.26151 0.36142 0.0
N208 N 0.86908 0.29434 0.34982 0.0
N209 N 0.87221 0.32809 0.32379 0.0
C210 C 0.88018 0.30433 0.32852 0.0
C211 C 0.85529 0.33332 0.34302 0.0
C212 C 0.85352 0.31244 0.35921 0.0
O213 O 0.91065 0.2551 0.35091 0.0
C214 C 0.8351 0.24077 0.32759 0.0
O215 O 0.84163 0.25987 0.31237 0.0
H216 H 0.89286 0.29382 0.31594 0.0
H217 H 0.84143 0.31039 0.37625 0.0
N218 N 0.87308 0.26056 0.39726 0.0
N219 N 0.85813 0.24996 0.43634 0.0
C220 C 0.85273 0.25069 0.41079 0.0
C221 C 0.892 0.26645 0.41477 0.0
C222 C 0.88283 0.25986 0.43897 0.0
C223 C 0.9173 0.24955 0.32788 0.0
O224 O 0.8993 0.2412 0.31127 0.0
H225 H 0.83482 0.24302 0.40189 0.0
H226 H 0.91136 0.27416 0.41012 0.0
O227 O 0.8483 0.23741 0.34814 0.0
H228 H 0.84463 0.35074 0.34503 0.0
H229 H 0.89363 0.26181 0.45701 0.0
Cu230 Cu 0.76582 0.85631 0.38881 0.0
N231 N 0.80178 0.8555 0.38294 0.0
N232 N 0.84023 0.83639 0.38102 0.0
C233 C 0.81706 0.83786 0.39325 0.0
C234 C 0.83974 0.85437 0.36247 0.0
C235 C 0.81595 0.86619 0.36374 0.0
O236 O 0.76055 0.84086 0.42284 0.0
C237 C 0.72558 0.8396 0.35285 0.0
O238 O 0.70978 0.85305 0.36718 0.0
H239 H 0.81015 0.82426 0.40745 0.0
H240 H 0.80861 0.87984 0.35018 0.0
N241 N 0.75495 0.89013 0.38878 0.0
N242 N 0.73749 0.92664 0.37601 0.0
C243 C 0.74548 0.90327 0.36866 0.0
C244 C 0.75323 0.90578 0.40946 0.0
C245 C 0.74247 0.92826 0.40169 0.0
C246 C 0.76176 0.81686 0.42663 0.0
O247 O 0.76183 0.8013 0.40648 0.0
H248 H 0.74354 0.89543 0.34925 0.0
H249 H 0.75888 0.90093 0.42894 0.0
O250 O 0.74928 0.83746 0.36004 0.0
H251 H 0.85452 0.85737 0.34775 0.0
H252 H 0.73845 0.94445 0.41409 0.0
Cu253 Cu 0.09604 0.80196 0.34823 0.0
N254 N 0.12528 0.7875 0.33352 0.0
N255 N 0.14934 0.76976 0.30276 0.0
C256 C 0.12672 0.78096 0.3084 0.0
C257 C 0.16262 0.76882 0.32535 0.0
C258 C 0.14768 0.77987 0.34438 0.0
O259 O 0.0668 0.77796 0.34135 0.0
C260 C 0.10632 0.85013 0.3222 0.0
O261 O 0.0983 0.87073 0.31076 0.0
H262 H 0.11117 0.78393 0.2946 0.0
H263 H 0.15261 0.78172 0.36469 0.0
N264 N 0.09961 0.80618 0.38394 0.0
N265 N 0.11534 0.81704 0.42313 0.0
C266 C 0.12074 0.81466 0.39766 0.0
C267 C 0.08027 0.8028 0.4013 0.0
C268 C 0.08988 0.80947 0.42548 0.0
C269 C 0.0549 0.77684 0.31964 0.0
O270 O 0.06126 0.7936 0.30178 0.0
H271 H 0.13949 0.81959 0.3891 0.0
H272 H 0.06041 0.79635 0.39657 0.0
O273 O 0.08942 0.83472 0.33228 0.0
H274 H 0.18162 0.76062 0.32794 0.0
H275 H 0.0789 0.8089 0.44334 0.0
Cu276 Cu 0.27242 0.87501 0.63105 0.0
N277 N 0.30883 0.87765 0.63186 0.0
N278 N 0.34769 0.88244 0.65176 0.0
C279 C 0.32202 0.8875 0.65238 0.0
C280 C 0.35088 0.86901 0.62956 0.0
C281 C 0.32679 0.86618 0.61721 0.0
O282 O 0.26159 0.89518 0.66072 0.0
C283 C 0.23867 0.8333 0.64332 0.0
O284 O 0.22263 0.85148 0.64943 0.0
H285 H 0.3124 0.8956 0.66898 0.0
H286 H 0.32233 0.85479 0.60004 0.0
N287 N 0.25957 0.88629 0.59959 0.0
N288 N 0.23677 0.88565 0.56258 0.0
C289 C 0.23973 0.87497 0.58602 0.0
C290 C 0.26967 0.90475 0.58428 0.0
C291 C 0.25557 0.90447 0.56143 0.0
C292 C 0.26159 0.91949 0.66016 0.0
O293 O 0.26312 0.93092 0.63771 0.0
H294 H 0.22857 0.85837 0.59274 0.0
H295 H 0.28659 0.917 0.58909 0.0
O296 O 0.2615 0.83943 0.63519 0.0
H297 H 0.36881 0.86018 0.62369 0.0
H298 H 0.25918 0.91689 0.54512 0.0
Cu299 Cu 0.15325 0.23434 0.63121 0.0
N300 N 0.15401 0.20044 0.64141 0.0
N301 N 0.17361 0.16441 0.65152 0.0
C302 C 0.17559 0.18674 0.63883 0.0
C303 C 0.14964 0.16403 0.66258 0.0
C304 C 0.13751 0.18636 0.65622 0.0
O305 O 0.17276 0.23556 0.59862 0.0
C306 C 0.16648 0.27605 0.66649 0.0
O307 O 0.15221 0.29047 0.65178 0.0
H308 H 0.19328 0.19406 0.62958 0.0
H309 H 0.11879 0.19258 0.66319 0.0
N310 N 0.11877 0.24507 0.62772 0.0
N311 N 0.08079 0.26304 0.6375 0.0
C312 C 0.10334 0.25378 0.64679 0.0
C313 C 0.10542 0.24865 0.60564 0.0
C314 C 0.08202 0.25966 0.61159 0.0
C315 C 0.16594 0.21871 0.58158 0.0
O316 O 0.14494 0.2041 0.58591 0.0
H317 H 0.10926 0.25461 0.66693 0.0
H318 H 0.11261 0.24447 0.58646 0.0
O319 O 0.17046 0.25311 0.65954 0.0
H320 H 0.14196 0.1493 0.67531 0.0
H321 H 0.06734 0.26523 0.59778 0.0
Cu322 Cu 0.70619 0.16958 0.63799 0.0
N323 N 0.67554 0.18661 0.63169 0.0
N324 N 0.64459 0.21514 0.63759 0.0
C325 C 0.66875 0.20789 0.64435 0.0
C326 C 0.63579 0.19761 0.6199 0.0
C327 C 0.65507 0.18005 0.61618 0.0
O328 O 0.69729 0.13993 0.65897 0.0
C329 C 0.75404 0.1953 0.65466 0.0
O330 O 0.76609 0.17732 0.64193 0.0
H331 H 0.68078 0.21705 0.65935 0.0
H332 H 0.65393 0.16326 0.60375 0.0
N333 N 0.72132 0.16091 0.60654 0.0
N334 N 0.74414 0.16573 0.57008 0.0
C335 C 0.73335 0.17761 0.59051 0.0
C336 C 0.72422 0.13765 0.59576 0.0
C337 C 0.73848 0.14056 0.57328 0.0
C338 C 0.7123 0.12166 0.6638 0.0
O339 O 0.73623 0.12219 0.65446 0.0
H340 H 0.73506 0.19799 0.59437 0.0
H341 H 0.71691 0.11982 0.6039 0.0
O342 O 0.72915 0.19414 0.65625 0.0
H343 H 0.61661 0.19714 0.61083 0.0
H344 H 0.74432 0.12536 0.56038 0.0
Cu345 Cu 0.8665 0.74905 0.63921 0.0
N346 N 0.85816 0.78114 0.65169 0.0
N347 N 0.83058 0.81096 0.6643 0.0
C348 C 0.83312 0.78796 0.6528 0.0
C349 C 0.8553 0.81918 0.67042 0.0
C350 C 0.87237 0.80059 0.66266 0.0
O351 O 0.85068 0.74736 0.60441 0.0
C352 C 0.85737 0.70547 0.67321 0.0
O353 O 0.87676 0.69403 0.6618 0.0
H354 H 0.81701 0.77584 0.64555 0.0
H355 H 0.89341 0.80088 0.66549 0.0
N356 N 0.90296 0.74489 0.63888 0.0
N357 N 0.94353 0.73474 0.65091 0.0
C358 C 0.91833 0.73703 0.65839 0.0
C359 C 0.91904 0.74776 0.61847 0.0
C360 C 0.94402 0.74164 0.62583 0.0
C361 C 0.85545 0.76675 0.59012 0.0
O362 O 0.87241 0.78448 0.59854 0.0
H363 H 0.91114 0.73287 0.67761 0.0
H364 H 0.91293 0.75327 0.59934 0.0
O365 O 0.84962 0.72657 0.66445 0.0
H366 H 0.86057 0.83678 0.68071 0.0
H367 H 0.96103 0.74139 0.61339 0.0
Cu368 Cu 0.35881 0.23904 0.13364 0.0
N369 N 0.35016 0.27009 0.14839 0.0
N370 N 0.32225 0.29832 0.1638 0.0
C371 C 0.32502 0.27503 0.15302 0.0
C372 C 0.34687 0.30867 0.16582 0.0
C373 C 0.36418 0.29106 0.1563 0.0
O374 O 0.34315 0.23952 0.09899 0.0
C375 C 0.35137 0.19508 0.16707 0.0
O376 O 0.3739 0.18686 0.15884 0.0
H377 H 0.309 0.26166 0.14819 0.0
H378 H 0.38531 0.29333 0.15529 0.0
N379 N 0.39521 0.23488 0.13265 0.0
N380 N 0.43552 0.22319 0.14384 0.0
C381 C 0.41154 0.22951 0.15238 0.0
C382 C 0.40957 0.23252 0.11106 0.0
C383 C 0.43435 0.22538 0.11785 0.0
C384 C 0.3492 0.25886 0.0851 0.0
O385 O 0.36724 0.27542 0.09379 0.0
H386 H 0.40535 0.2284 0.17236 0.0
H387 H 0.40213 0.23453 0.09159 0.0
O388 O 0.3415 0.21442 0.15654 0.0
H389 H 0.35204 0.32734 0.17398 0.0
H390 H 0.45001 0.22124 0.10456 0.0
Cu391 Cu 0.38852 0.75618 0.84842 0.0
N392 N 0.38012 0.78988 0.8424 0.0
N393 N 0.37977 0.82716 0.82183 0.0
C394 C 0.38978 0.80372 0.82267 0.0
C395 C 0.36306 0.82815 0.84201 0.0
C396 C 0.36346 0.80509 0.85482 0.0
O397 O 0.42389 0.75336 0.83558 0.0
C398 C 0.34726 0.73832 0.81432 0.0
O399 O 0.35141 0.75986 0.80192 0.0
H400 H 0.40278 0.79615 0.80827 0.0
H401 H 0.35196 0.79955 0.87151 0.0
N402 N 0.38802 0.74996 0.88368 0.0
N403 N 0.37515 0.73293 0.92111 0.0
C404 C 0.36957 0.73561 0.89578 0.0
C405 C 0.40594 0.75677 0.90188 0.0
C406 C 0.39806 0.74622 0.92508 0.0
C407 C 0.42981 0.75103 0.8118 0.0
O408 O 0.41143 0.74442 0.79488 0.0
H409 H 0.35284 0.72657 0.88593 0.0
H410 H 0.42368 0.76816 0.89839 0.0
O411 O 0.36233 0.73277 0.83294 0.0
H412 H 0.35095 0.84407 0.84678 0.0
H413 H 0.40842 0.7481 0.94336 0.0
Cu414 Cu 0.26346 0.34663 0.87969 0.0
N415 N 0.29608 0.3359 0.86895 0.0
N416 N 0.32351 0.30507 0.85863 0.0
C417 C 0.30421 0.31244 0.87443 0.0
C418 C 0.32838 0.32514 0.84294 0.0
C419 C 0.31122 0.34414 0.84924 0.0
O420 O 0.26079 0.33675 0.91598 0.0
C421 C 0.21775 0.33576 0.84732 0.0
O422 O 0.20706 0.35594 0.85761 0.0
H423 H 0.29452 0.30004 0.88824 0.0
H424 H 0.30825 0.36147 0.83857 0.0
N425 N 0.2606 0.38204 0.87597 0.0
N426 N 0.24916 0.41987 0.8602 0.0
C427 C 0.25219 0.3947 0.85506 0.0
C428 C 0.26342 0.3998 0.89486 0.0
C429 C 0.25644 0.42308 0.88525 0.0
C430 C 0.25561 0.31385 0.92308 0.0
O431 O 0.24717 0.29688 0.90573 0.0
H432 H 0.24762 0.38538 0.83671 0.0
H433 H 0.26905 0.39585 0.91458 0.0
O434 O 0.23941 0.32827 0.85623 0.0
H435 H 0.34146 0.32509 0.8265 0.0
H436 H 0.25551 0.44068 0.89636 0.0
Cu437 Cu 0.60636 0.29009 0.85602 0.0
N438 N 0.59491 0.30599 0.82617 0.0
N439 N 0.58544 0.30898 0.78414 0.0
C440 C 0.59061 0.29322 0.80381 0.0
C441 C 0.58654 0.33278 0.79457 0.0
C442 C 0.59224 0.33086 0.82066 0.0
O443 O 0.58869 0.25663 0.85641 0.0
C444 C 0.65718 0.3091 0.8534 0.0
O445 O 0.64429 0.33039 0.8539 0.0
H446 H 0.593 0.27281 0.80171 0.0
H447 H 0.5954 0.34652 0.8343 0.0
N448 N 0.59933 0.30892 0.8858 0.0
N449 N 0.60854 0.32804 0.92377 0.0
C450 C 0.61506 0.30967 0.90672 0.0
C451 C 0.58194 0.32729 0.88974 0.0
C452 C 0.58764 0.33921 0.91321 0.0
C453 C 0.56377 0.25617 0.85501 0.0
O454 O 0.55179 0.27798 0.85615 0.0
H455 H 0.63224 0.29824 0.9084 0.0
H456 H 0.56714 0.33256 0.87593 0.0
O457 O 0.64421 0.28785 0.85393 0.0
H458 H 0.58437 0.35031 0.78397 0.0
H459 H 0.57781 0.3554 0.92138 0.0
Cu460 Cu 0.75748 0.64153 0.88776 0.0
N461 N 0.72329 0.64843 0.87828 0.0
N462 N 0.68993 0.67379 0.87043 0.0
C463 C 0.71276 0.67114 0.88313 0.0
C464 C 0.68581 0.65165 0.85704 0.0
C465 C 0.70649 0.63597 0.86197 0.0
O466 O 0.76069 0.65444 0.92341 0.0
C467 C 0.80115 0.65266 0.85354 0.0
O468 O 0.81387 0.63492 0.86562 0.0
H469 H 0.72284 0.68633 0.89399 0.0
H470 H 0.70985 0.61756 0.85306 0.0
N471 N 0.76304 0.60628 0.88655 0.0
N472 N 0.77604 0.56772 0.87362 0.0
C473 C 0.77109 0.59188 0.86642 0.0
C474 C 0.76248 0.59061 0.90699 0.0
C475 C 0.77047 0.56689 0.89913 0.0
C476 C 0.76465 0.6779 0.92975 0.0
O477 O 0.7715 0.69441 0.91182 0.0
H478 H 0.77444 0.59931 0.8472 0.0
H479 H 0.75737 0.59632 0.92646 0.0
O480 O 0.7789 0.65915 0.86191 0.0
H481 H 0.66974 0.64756 0.8437 0.0
H482 H 0.77235 0.5504 0.91137 0.0
Cu483 Cu 0.65157 0.7446 0.13799 0.0
N484 N 0.65138 0.71194 0.15167 0.0
N485 N 0.67068 0.67947 0.1707 0.0
C486 C 0.67337 0.69877 0.15379 0.0
C487 C 0.64583 0.68033 0.17944 0.0
C488 C 0.63388 0.7004 0.16754 0.0
O489 O 0.66705 0.74194 0.10344 0.0
C490 C 0.66666 0.78648 0.17213 0.0
O491 O 0.64734 0.79871 0.16162 0.0
H492 H 0.6919 0.70511 0.14547 0.0
H493 H 0.61473 0.70742 0.17199 0.0
N494 N 0.61747 0.75679 0.13671 0.0
N495 N 0.57926 0.77231 0.14951 0.0
C496 C 0.60078 0.75976 0.15664 0.0
C497 C 0.60601 0.76765 0.1163 0.0
C498 C 0.58249 0.77729 0.12414 0.0
C499 C 0.69169 0.74364 0.09932 0.0
O500 O 0.70758 0.75005 0.11858 0.0
H501 H 0.60506 0.75421 0.17628 0.0
H502 H 0.61467 0.76931 0.0973 0.0
O503 O 0.67268 0.76483 0.16285 0.0
H504 H 0.6376 0.6686 0.19473 0.0
H505 H 0.56904 0.78761 0.11223 0.0
Cu506 Cu 0.2422 0.6306 0.12169 0.0
N507 N 0.21435 0.65227 0.1194 0.0
N508 N 0.18723 0.67958 0.13768 0.0
C509 C 0.20129 0.65857 0.14085 0.0
C510 C 0.19131 0.68669 0.11295 0.0
C511 C 0.20806 0.66968 0.10162 0.0
O512 O 0.22823 0.60088 0.13964 0.0
C513 C 0.2869 0.66315 0.13533 0.0
O514 O 0.29525 0.6595 0.11166 0.0
H515 H 0.20463 0.64967 0.15934 0.0
H516 H 0.21667 0.67132 0.08264 0.0
N517 N 0.2556 0.62269 0.08916 0.0
N518 N 0.27473 0.62855 0.0508 0.0
C519 C 0.26206 0.63957 0.07061 0.0
C520 C 0.264 0.60003 0.08061 0.0
C521 C 0.27593 0.60361 0.05693 0.0
C522 C 0.24078 0.58286 0.14959 0.0
O523 O 0.26634 0.58232 0.14689 0.0
H524 H 0.25952 0.65993 0.07262 0.0
H525 H 0.26261 0.58242 0.09135 0.0
O526 O 0.26711 0.65009 0.14344 0.0
H527 H 0.18425 0.70389 0.10429 0.0
H528 H 0.28549 0.58917 0.04558 0.0
Cu529 Cu 0.78232 0.37137 0.12353 0.0
N530 N 0.81875 0.37189 0.12449 0.0
N531 N 0.85672 0.37354 0.14631 0.0
C532 C 0.83205 0.38175 0.14495 0.0
C533 C 0.85923 0.35813 0.12535 0.0
C534 C 0.83571 0.35719 0.11185 0.0
O535 O 0.77285 0.3957 0.15024 0.0
C536 C 0.74735 0.33198 0.141 0.0
O537 O 0.73176 0.35085 0.14598 0.0
H538 H 0.82264 0.39179 0.16055 0.0
H539 H 0.83053 0.34461 0.09572 0.0
N540 N 0.76951 0.37989 0.09111 0.0
N541 N 0.74258 0.38037 0.05692 0.0
C542 C 0.74569 0.3729 0.08164 0.0
C543 C 0.78202 0.39229 0.07186 0.0
C544 C 0.76541 0.39269 0.05073 0.0
C545 C 0.77603 0.41954 0.14606 0.0
O546 O 0.78029 0.42715 0.12227 0.0
H547 H 0.73111 0.36223 0.09265 0.0
H548 H 0.802 0.39992 0.07294 0.0
O549 O 0.76993 0.33698 0.13163 0.0
H550 H 0.87591 0.3465 0.12141 0.0
H551 H 0.7702 0.40058 0.032 0.0
H552 H 0.25659 0.53551 0.16442 0.0
H553 H 0.19222 0.58661 0.17037 0.0
H554 H 0.23155 0.50352 0.18927 0.0
H555 H 0.16786 0.55547 0.19602 0.0
H556 H 0.11835 0.48545 0.21593 0.0
H557 H 0.14449 0.51651 0.19169 0.0
H558 H 0.21451 0.49245 0.23057 0.0
H559 H 0.18808 0.46058 0.25423 0.0
C560 C 0.23721 0.53997 0.17121 0.0
C561 C 0.22629 0.56345 0.16518 0.0
C562 C 0.2229 0.52172 0.18561 0.0
C563 C 0.19751 0.52674 0.19455 0.0
C564 C 0.187 0.55055 0.18895 0.0
C565 C 0.20108 0.56854 0.17431 0.0
C566 C 0.13926 0.487 0.21953 0.0
C567 C 0.15113 0.47075 0.23717 0.0
C568 C 0.15434 0.50486 0.20563 0.0
C569 C 0.1817 0.50725 0.20924 0.0
C570 C 0.19358 0.49098 0.22699 0.0
C571 C 0.17846 0.47283 0.24068 0.0
H572 H 0.5829 0.16172 0.19169 0.0
H573 H 0.53727 0.15978 0.26188 0.0
H574 H 0.54689 0.18072 0.16897 0.0
H575 H 0.50056 0.17806 0.23878 0.0
H576 H 0.44868 0.23346 0.19404 0.0
H577 H 0.4847 0.21563 0.21869 0.0
H578 H 0.50515 0.17015 0.15192 0.0
H579 H 0.46986 0.18833 0.12746 0.0
C580 C 0.56505 0.16511 0.20226 0.0
C581 C 0.56298 0.15904 0.22862 0.0
C582 C 0.54424 0.17593 0.18914 0.0
C583 C 0.52055 0.18077 0.20187 0.0
C584 C 0.51853 0.17488 0.22834 0.0
C585 C 0.53953 0.16421 0.24158 0.0
C586 C 0.46093 0.21965 0.18472 0.0
C587 C 0.45659 0.21264 0.15865 0.0
C588 C 0.48152 0.20932 0.19886 0.0
C589 C 0.49814 0.19156 0.1873 0.0
C590 C 0.49334 0.18426 0.16137 0.0
C591 C 0.473 0.19471 0.14725 0.0
H592 H 0.79013 0.40793 0.1957 0.0
H593 H 0.77728 0.47161 0.14529 0.0
H594 H 0.81004 0.43708 0.22789 0.0
H595 H 0.79608 0.50092 0.1779 0.0
H596 H 0.86261 0.54067 0.22239 0.0
H597 H 0.83919 0.51098 0.19316 0.0
H598 H 0.80559 0.47123 0.25871 0.0
H599 H 0.82967 0.50083 0.28797 0.0
C600 C 0.79081 0.42825 0.1918 0.0
C601 C 0.78234 0.43745 0.16781 0.0
C602 C 0.80227 0.445 0.2103 0.0
C603 C 0.80518 0.47135 0.20534 0.0
C604 C 0.79491 0.48067 0.18209 0.0
C605 C 0.78381 0.46391 0.16349 0.0
C606 C 0.85022 0.52558 0.23053 0.0
C607 C 0.84791 0.52316 0.25746 0.0
C608 C 0.83661 0.50864 0.21379 0.0
C609 C 0.82007 0.48891 0.22351 0.0
C610 C 0.81822 0.48609 0.25051 0.0
C611 C 0.83207 0.503 0.26731 0.0
H612 H 0.55459 0.81707 0.14691 0.0
H613 H 0.55686 0.74675 0.18949 0.0
H614 H 0.51947 0.83169 0.17494 0.0
H615 H 0.5213 0.76122 0.21739 0.0
H616 H 0.43548 0.78861 0.23707 0.0
H617 H 0.47125 0.77267 0.21038 0.0
H618 H 0.51601 0.84311 0.22446 0.0
H619 H 0.48052 0.85881 0.25136 0.0
C620 C 0.54742 0.80467 0.16215 0.0
C621 C 0.55841 0.78074 0.16599 0.0
C622 C 0.52746 0.8131 0.1783 0.0
C623 C 0.51767 0.79759 0.19834 0.0
C624 C 0.52842 0.77351 0.20202 0.0
C625 C 0.54881 0.7653 0.18619 0.0
C626 C 0.45302 0.80058 0.2345 0.0
C627 C 0.45524 0.82491 0.24636 0.0
C628 C 0.47351 0.79143 0.21938 0.0
C629 C 0.49638 0.80668 0.21533 0.0
C630 C 0.49857 0.83099 0.22717 0.0
C631 C 0.47835 0.8399 0.24271 0.0
H632 H 0.2539 0.47169 0.86503 0.0
H633 H 0.21796 0.41132 0.81769 0.0
H634 H 0.23142 0.5033 0.84004 0.0
H635 H 0.19659 0.44307 0.79179 0.0
H636 H 0.13651 0.50371 0.77349 0.0
H637 H 0.16158 0.4715 0.79495 0.0
H638 H 0.2284 0.52457 0.79994 0.0
H639 H 0.20283 0.55727 0.77972 0.0
C640 C 0.24138 0.46508 0.8492 0.0
C641 C 0.23768 0.43876 0.8437 0.0
C642 C 0.22869 0.48333 0.83456 0.0
C643 C 0.21201 0.47587 0.81384 0.0
C644 C 0.20892 0.4496 0.80782 0.0
C645 C 0.22153 0.43131 0.82255 0.0
C646 C 0.15649 0.50864 0.77923 0.0
C647 C 0.1674 0.53335 0.77499 0.0
C648 C 0.17107 0.48996 0.79129 0.0
C649 C 0.1971 0.49533 0.79937 0.0
C650 C 0.2083 0.51978 0.79441 0.0
C651 C 0.19367 0.53853 0.78244 0.0
H652 H 0.58171 0.20741 0.8496 0.0
H653 H 0.51151 0.25097 0.84458 0.0
H654 H 0.55683 0.1692 0.83404 0.0
H655 H 0.48699 0.21307 0.82908 0.0
H656 H 0.45988 0.15123 0.77214 0.0
H657 H 0.48796 0.1868 0.7878 0.0
H658 H 0.51833 0.13903 0.84761 0.0
H659 H 0.48978 0.10345 0.83237 0.0
C660 C 0.56098 0.20879 0.84544 0.0
C661 C 0.54863 0.23228 0.84823 0.0
C662 C 0.54677 0.18694 0.83655 0.0
C663 C 0.52008 0.18829 0.83 0.0
C664 C 0.50765 0.21157 0.83351 0.0
C665 C 0.5217 0.23326 0.8426 0.0
C666 C 0.4725 0.14822 0.78863 0.0
C667 C 0.47216 0.12451 0.80119 0.0
C668 C 0.48861 0.16862 0.79758 0.0
C669 C 0.50503 0.16578 0.81916 0.0
C670 C 0.50589 0.14174 0.8309 0.0
C671 C 0.48955 0.12132 0.82207 0.0
H672 H 0.80727 0.53029 0.88997 0.0
H673 H 0.76967 0.55933 0.82193 0.0
H674 H 0.82466 0.4955 0.86432 0.0
H675 H 0.78749 0.52453 0.79601 0.0
H676 H 0.7964 0.43919 0.76961 0.0
H677 H 0.78115 0.47712 0.79206 0.0
H678 H 0.85664 0.48753 0.82956 0.0
H679 H 0.87192 0.4495 0.8072 0.0
C680 C 0.80265 0.52923 0.86952 0.0
C681 C 0.78687 0.54753 0.85807 0.0
C682 C 0.81292 0.50942 0.85473 0.0
C683 C 0.80754 0.50721 0.82807 0.0
C684 C 0.79188 0.52559 0.81653 0.0
C685 C 0.78182 0.54562 0.83133 0.0
C686 C 0.80987 0.44969 0.78244 0.0
C687 C 0.83537 0.44116 0.78667 0.0
C688 C 0.80114 0.47154 0.79522 0.0
C689 C 0.8176 0.48531 0.81275 0.0
C690 C 0.84334 0.47719 0.81644 0.0
C691 C 0.85216 0.45546 0.80348 0.0
H692 H 0.55234 0.8259 0.71817 0.0
H693 H 0.57263 0.84517 0.79726 0.0
H694 H 0.51475 0.79961 0.73315 0.0
H695 H 0.53717 0.81741 0.81245 0.0
H696 H 0.45633 0.79112 0.83427 0.0
H697 H 0.49353 0.81541 0.81782 0.0
H698 H 0.49754 0.7631 0.75252 0.0
H699 H 0.45835 0.73987 0.76835 0.0
C700 C 0.54878 0.82431 0.73875 0.0
C701 C 0.56486 0.838 0.75655 0.0
C702 C 0.52746 0.80901 0.74743 0.0
C703 C 0.5224 0.8065 0.77415 0.0
C704 C 0.53948 0.81949 0.79177 0.0
C705 C 0.56005 0.83536 0.78308 0.0
C706 C 0.46537 0.78451 0.8166 0.0
C707 C 0.45467 0.7633 0.80282 0.0
C708 C 0.48695 0.79846 0.8071 0.0
C709 C 0.49915 0.7912 0.78389 0.0
C710 C 0.48865 0.7696 0.77027 0.0
C711 C 0.46639 0.75602 0.77947 0.0
H712 H 0.21358 0.24141 0.56745 0.0
H713 H 0.15648 0.18233 0.5444 0.0
H714 H 0.2421 0.22841 0.53178 0.0
H715 H 0.18465 0.16957 0.50927 0.0
H716 H 0.24946 0.1335 0.46619 0.0
H717 H 0.22692 0.14848 0.50462 0.0
H718 H 0.24364 0.22676 0.48275 0.0
H719 H 0.26647 0.21181 0.44424 0.0
C720 C 0.20701 0.22585 0.55473 0.0
C721 C 0.18273 0.2129 0.55891 0.0
C722 C 0.22335 0.21838 0.53433 0.0
C723 C 0.21586 0.19765 0.51793 0.0
C724 C 0.19135 0.1852 0.52186 0.0
C725 C 0.17505 0.19273 0.54196 0.0
C726 C 0.24882 0.15391 0.46974 0.0
C727 C 0.25962 0.1714 0.4519 0.0
C728 C 0.23569 0.16252 0.49172 0.0
C729 C 0.23304 0.18884 0.49653 0.0
C730 C 0.24531 0.20638 0.47963 0.0
C731 C 0.25839 0.19776 0.45753 0.0
H732 H 0.78535 0.14566 0.54521 0.0
H733 H 0.73871 0.21274 0.55006 0.0
H734 H 0.81315 0.16659 0.51267 0.0
H735 H 0.76661 0.23376 0.51774 0.0
H736 H 0.80518 0.24912 0.43807 0.0
H737 H 0.77704 0.22829 0.47033 0.0
H738 H 0.84564 0.20451 0.51154 0.0
H739 H 0.87377 0.22515 0.47912 0.0
C740 C 0.78093 0.16478 0.53916 0.0
C741 C 0.75988 0.17758 0.55016 0.0
C742 C 0.79698 0.17685 0.52076 0.0
C743 C 0.79208 0.20183 0.51277 0.0
C744 C 0.77076 0.21445 0.52345 0.0
C745 C 0.75492 0.2025 0.54206 0.0
C746 C 0.81422 0.23942 0.45401 0.0
C747 C 0.84166 0.23876 0.45608 0.0
C748 C 0.79814 0.22766 0.47254 0.0
C749 C 0.80917 0.21472 0.49338 0.0
C750 C 0.83662 0.21416 0.49554 0.0
C751 C 0.85271 0.2262 0.47716 0.0
H752 H 0.77241 0.76772 0.44055 0.0
H753 H 0.77038 0.84478 0.47131 0.0
H754 H 0.79322 0.75389 0.48047 0.0
H755 H 0.79092 0.83087 0.51115 0.0
H756 H 0.86156 0.80731 0.55804 0.0
H757 H 0.83582 0.81776 0.52039 0.0
H758 H 0.78912 0.74788 0.5289 0.0
H759 H 0.81522 0.7372 0.56718 0.0
C760 C 0.77587 0.78163 0.45599 0.0
C761 C 0.76986 0.80747 0.45252 0.0
C762 C 0.78779 0.77364 0.47893 0.0
C763 C 0.79414 0.79132 0.49889 0.0
C764 C 0.78678 0.81683 0.49597 0.0
C765 C 0.77479 0.82478 0.47315 0.0
C766 C 0.84589 0.79399 0.55201 0.0
C767 C 0.84048 0.77139 0.56585 0.0
C768 C 0.83092 0.80016 0.53044 0.0
C769 C 0.81007 0.78392 0.5218 0.0
C770 C 0.80502 0.76086 0.53508 0.0
C771 C 0.81998 0.75472 0.55698 0.0
H772 H 0.1016 0.84029 0.46799 0.0
H773 H 0.16855 0.81676 0.42397 0.0
H774 H 0.13079 0.85783 0.5016 0.0
H775 H 0.19779 0.83432 0.45766 0.0
H776 H 0.24272 0.89113 0.5107 0.0
H777 H 0.2129 0.87516 0.47674 0.0
H778 H 0.16057 0.84371 0.53471 0.0
H779 H 0.18982 0.86055 0.56863 0.0
C780 C 0.12252 0.83859 0.46557 0.0
C781 C 0.13268 0.82703 0.44325 0.0
C782 C 0.13928 0.8487 0.48486 0.0
C783 C 0.16663 0.8475 0.48232 0.0
C784 C 0.17682 0.83593 0.46003 0.0
C785 C 0.16005 0.82582 0.44072 0.0
C786 C 0.22469 0.88115 0.51623 0.0
C787 C 0.21872 0.8771 0.54244 0.0
C788 C 0.20775 0.8717 0.49673 0.0
C789 C 0.18442 0.85804 0.503 0.0
C790 C 0.17827 0.85433 0.5292 0.0
C791 C 0.1952 0.86375 0.54867 0.0
H792 H 0.68573 0.98038 0.75201 0.0
H793 H 0.60916 0.00523 0.72994 0.0
H794 H 0.70594 0.01817 0.73166 0.0
H795 H 0.62909 0.0424 0.70909 0.0
H796 H 0.66835 0.11873 0.69366 0.0
H797 H 0.65063 0.08209 0.7172 0.0
H798 H 0.71517 0.0373 0.69102 0.0
H799 H 0.73348 0.07446 0.6683 0.0
C800 C 0.67325 0.99386 0.7427 0.0
C801 C 0.64584 0.98991 0.7428 0.0
C802 C 0.6848 0.01548 0.73094 0.0
C803 C 0.6692 0.03354 0.71878 0.0
C804 C 0.64178 0.02936 0.71878 0.0
C805 C 0.63028 0.00795 0.73073 0.0
C806 C 0.67885 0.10111 0.69303 0.0
C807 C 0.70227 0.0995 0.67898 0.0
C808 C 0.66858 0.07997 0.70641 0.0
C809 C 0.68124 0.0565 0.70585 0.0
C810 C 0.70498 0.05507 0.69218 0.0
C811 C 0.71543 0.07636 0.67901 0.0
H812 H 0.99484 0.7486 0.64623 0.0
H813 H 0.94145 0.69932 0.689 0.0
H814 H 0.03188 0.73113 0.66922 0.0
H815 H 0.97864 0.68188 0.71231 0.0
H816 H 0.05668 0.63658 0.72072 0.0
H817 H 0.01725 0.65458 0.70213 0.0
H818 H 0.05119 0.73074 0.71335 0.0
H819 H 0.09043 0.71292 0.73182 0.0
C820 C 0.99102 0.73408 0.66061 0.0
C821 C 0.96519 0.72535 0.66574 0.0
C822 C 0.01223 0.72419 0.67396 0.0
C823 C 0.00824 0.70511 0.69265 0.0
C824 C 0.98239 0.69646 0.69793 0.0
C825 C 0.96108 0.70661 0.68477 0.0
C826 C 0.0556 0.65717 0.7195 0.0
C827 C 0.07685 0.67326 0.72766 0.0
C828 C 0.03296 0.66749 0.70892 0.0
C829 C 0.03116 0.6941 0.70604 0.0
C830 C 0.05208 0.71016 0.71494 0.0
C831 C 0.07455 0.6999 0.72569 0.0
H832 H 0.37478 0.98703 0.75571 0.0
H833 H 0.31193 0.03759 0.7728 0.0
H834 H 0.34348 0.95686 0.73487 0.0
H835 H 0.28065 0.00749 0.75156 0.0
H836 H 0.25819 0.97099 0.66785 0.0
H837 H 0.27895 0.99667 0.70251 0.0
H838 H 0.30175 0.92782 0.74049 0.0
H839 H 0.28041 0.90203 0.70621 0.0
C840 C 0.35416 0.99131 0.75571 0.0
C841 C 0.34583 0.01465 0.76587 0.0
C842 C 0.33621 0.974 0.74385 0.0
C843 C 0.30965 0.97989 0.74151 0.0
C844 C 0.30102 1.00252 0.75307 0.0
C845 C 0.31892 0.01963 0.76539 0.0
C846 C 0.26685 0.9613 0.68401 0.0
C847 C 0.2679 0.93449 0.68407 0.0
C848 C 0.27869 0.97601 0.70391 0.0
C849 C 0.29216 0.96422 0.72406 0.0
C850 C 0.29161 0.93738 0.72511 0.0
C851 C 0.27927 0.92265 0.7055 0.0
H852 H 0.0678 0.25711 0.68811 0.0
H853 H 0.0489 0.2994 0.61964 0.0
H854 H 0.03577 0.28104 0.71271 0.0
H855 H 0.01658 0.32271 0.64395 0.0
H856 H 0.98525 0.38049 0.70169 0.0
H857 H 0.01672 0.35537 0.67821 0.0
H858 H 0.98777 0.28711 0.71651 0.0
H859 H 0.95653 0.3125 0.74061 0.0
C860 C 0.0568 0.27143 0.67828 0.0
C861 C 0.06102 0.2763 0.65186 0.0
C862 C 0.03826 0.28498 0.69232 0.0
C863 C 0.02366 0.30388 0.68034 0.0
C864 C 0.02769 0.30851 0.65388 0.0
C865 C 0.04605 0.29489 0.63983 0.0
C866 C 0.98571 0.3602 0.70537 0.0
C867 C 0.96834 0.34858 0.72315 0.0
C868 C 1.0036 0.34571 0.69164 0.0
C869 C 0.00472 0.31918 0.69535 0.0
C870 C 0.98754 0.30753 0.7133 0.0
C871 C 0.96947 0.32204 0.72694 0.0
H872 H 0.74254 0.93389 0.3242 0.0
H873 H 0.70285 0.96153 0.39204 0.0
H874 H 0.71978 0.96468 0.29769 0.0
H875 H 0.68067 0.9925 0.36578 0.0
H876 H 0.62329 0.024 0.30795 0.0
H877 H 0.64652 0.99234 0.33228 0.0
H878 H 0.71757 0.01176 0.29067 0.0
H879 H 0.69404 0.04324 0.26572 0.0
C880 C 0.72899 0.94649 0.33347 0.0
C881 C 0.72457 0.94518 0.3603 0.0
C882 C 0.71612 0.9643 0.31831 0.0
C883 C 0.69832 0.98102 0.32958 0.0
C884 C 0.69402 0.97974 0.3564 0.0
C885 C 0.70699 0.96213 0.37154 0.0
C886 C 0.64375 0.02136 0.30364 0.0
C887 C 0.65673 0.03624 0.28477 0.0
C888 C 0.65719 1.00336 0.31786 0.0
C889 C 0.68398 0.9996 0.31358 0.0
C890 C 0.69691 0.01408 0.29437 0.0
C891 C 0.68348 0.03228 0.28023 0.0
H892 H 0.92377 0.6768 0.26749 0.0
H893 H 0.97444 0.62797 0.31032 0.0
H894 H 0.95532 0.71256 0.27369 0.0
H895 H 0.00617 0.66354 0.31604 0.0
H896 H 0.03778 0.73866 0.35186 0.0
H897 H 0.00776 0.70263 0.34172 0.0
H898 H 0.9989 0.73029 0.26384 0.0
H899 H 0.02858 0.76669 0.27413 0.0
C900 C 0.94192 0.67351 0.27767 0.0
C901 C 0.94649 0.64953 0.28855 0.0
C902 C 0.96002 0.69405 0.28126 0.0
C903 C 0.9831 0.69105 0.29574 0.0
C904 C 0.9883 0.66669 0.30533 0.0
C905 C 0.97022 0.6462 0.30181 0.0
C906 C 0.02936 0.73715 0.33259 0.0
C907 C 0.03562 0.75559 0.31382 0.0
C908 C 0.01232 0.71634 0.32669 0.0
C909 C 1.00112 0.71338 0.30186 0.0
C910 C 0.00705 0.73204 0.28319 0.0
C911 C 0.02413 0.75289 0.28909 0.0
H912 H 0.35947 0.92634 0.30487 0.0
H913 H 0.29149 0.93077 0.25515 0.0
H914 H 0.34616 0.96429 0.3285 0.0
H915 H 0.27814 0.9687 0.27897 0.0
H916 H 0.27377 0.04897 0.31639 0.0
H917 H 0.29026 0.01425 0.28959 0.0
H918 H 0.30995 0.97312 0.35856 0.0
H919 H 0.29398 0.00791 0.38523 0.0
C920 C 0.34186 0.93557 0.29873 0.0
C921 C 0.32648 0.92536 0.27816 0.0
C922 C 0.33413 0.95723 0.31243 0.0
C923 C 0.31093 0.96936 0.30582 0.0
C924 C 0.29618 0.95989 0.28449 0.0
C925 C 0.30382 0.93809 0.27087 0.0
C926 C 0.28182 0.03261 0.32581 0.0
C927 C 0.28249 0.03122 0.35298 0.0
C928 C 0.29108 0.01264 0.31045 0.0
C929 C 0.3015 0.99095 0.32192 0.0
C930 C 0.30234 0.98968 0.34908 0.0
C931 C 0.29288 0.0095 0.3644 0.0
H932 H 0.06067 0.34113 0.30442 0.0
H933 H 0.04086 0.31281 0.22784 0.0
H934 H 0.02472 0.31586 0.32235 0.0
H935 H 1.00287 0.28896 0.24539 0.0
H936 H 0.94647 0.23354 0.28653 0.0
H937 H 0.98574 0.25493 0.26865 0.0
H938 H 0.98114 0.31401 0.32767 0.0
H939 H 0.94388 0.29161 0.34636 0.0
C940 C 0.04806 0.32994 0.29131 0.0
C941 C 0.05325 0.32926 0.26469 0.0
C942 C 0.02722 0.31545 0.30157 0.0
C943 C 0.01026 0.30051 0.28542 0.0
C944 C 0.01552 0.29988 0.25862 0.0
C945 C 0.03708 0.31381 0.24843 0.0
C946 C 0.95442 0.25078 0.29591 0.0
C947 C 0.94246 0.26055 0.31816 0.0
C948 C 0.97671 0.26331 0.28548 0.0
C949 C 0.98702 0.28631 0.29666 0.0
C950 C 0.97468 0.29599 0.31884 0.0
C951 C 0.95307 0.28311 0.32964 0.0
H952 H 0.77453 0.72526 0.95192 0.0
H953 H 0.73614 0.65189 0.96653 0.0
H954 H 0.75731 0.7419 0.99265 0.0
H955 H 0.71882 0.66862 0.00705 0.0
H956 H 0.6666 0.71722 0.05964 0.0
H957 H 0.6856 0.7013 0.01948 0.0
H958 H 0.76073 0.73588 0.04121 0.0
H959 H 0.74183 0.75166 0.0815 0.0
C960 C 0.76268 0.71258 0.96392 0.0
C961 C 0.7568 0.68719 0.95589 0.0
C962 C 0.75281 0.72213 0.98729 0.0
C963 C 0.73647 0.70667 1.00301 0.0
C964 C 0.73105 0.68115 0.99524 0.0
C965 C 0.74122 0.67148 0.9721 0.0
C966 C 0.68711 0.72164 0.0558 0.0
C967 C 0.70265 0.73576 0.07387 0.0
C968 C 0.69806 0.71231 0.03286 0.0
C969 C 0.72474 0.71716 0.02719 0.0
C970 C 0.74011 0.73187 0.04491 0.0
C971 C 0.72926 0.74088 0.06804 0.0
H972 H 0.31979 0.61588 0.027 0.0
H973 H 0.25944 0.67162 0.0277 0.0
H974 H 0.34389 0.64079 0.99458 0.0
H975 H 0.28378 0.69685 0.9958 0.0
H976 H 0.3228 0.72247 0.92043 0.0
H977 H 0.29776 0.69553 0.95033 0.0
H978 H 0.36853 0.68259 0.9937 0.0
H979 H 0.39373 0.70901 0.96332 0.0
C980 C 0.31151 0.63326 0.01999 0.0
C981 C 0.28774 0.64183 0.02994 0.0
C982 C 0.32546 0.6477 1.00168 0.0
C983 C 0.31584 0.67088 0.9928 0.0
C984 C 0.29166 0.67901 1.00215 0.0
C985 C 0.2778 0.66466 0.02055 0.0
C986 C 0.33306 0.71374 0.93623 0.0
C987 C 0.36028 0.71784 0.93946 0.0
C988 C 0.31867 0.69848 0.95348 0.0
C989 C 0.33118 0.68687 0.97431 0.0
C990 C 0.35839 0.69103 0.97763 0.0
C991 C 0.37277 0.70642 0.96044 0.0
H992 H 0.25699 0.2648 0.94125 0.0
H993 H 0.27529 0.34337 0.96334 0.0
H994 H 0.27837 0.25038 0.98053 0.0
H995 H 0.29608 0.32898 1.00283 0.0
H996 H 0.36119 0.29609 0.05034 0.0
H997 H 0.33617 0.30865 0.01287 0.0
H998 H 0.27845 0.24813 0.02765 0.0
H999 H 0.30401 0.23515 0.06528 0.0
C1000 C 0.26508 0.27905 0.95472 0.0
C1001 C 0.26458 0.30529 0.94894 0.0
C1002 C 0.27734 0.27074 0.97732 0.0
C1003 C 0.2894 0.28845 0.99473 0.0
C1004 C 0.28761 0.31473 0.98959 0.0
C1005 C 0.27543 0.32303 0.96701 0.0
C1006 C 0.34324 0.2853 0.04563 0.0
C1007 C 0.33462 0.26462 0.06095 0.0
C1008 C 0.3287 0.2927 0.02419 0.0
C1009 C 0.30498 0.27974 0.01738 0.0
C1010 C 0.29664 0.25855 0.03227 0.0
C1011 C 0.3113 0.25108 0.05383 0.0
H1012 H 0.72833 0.40594 0.01392 0.0
H1013 H 0.70638 0.34126 0.0615 0.0
H1014 H 0.69287 0.39402 0.98383 0.0
H1015 H 0.67041 0.33008 0.03211 0.0
H1016 H 0.63679 0.29823 0.9547 0.0
H1017 H 0.66723 0.31226 0.9888 0.0
H1018 H 0.64506 0.3904 0.97814 0.0
H1019 H 0.61509 0.3763 0.94331 0.0
C1020 C 0.71588 0.38931 0.01809 0.0
C1021 C 0.72044 0.37449 0.04009 0.0
C1022 C 0.69532 0.38267 1.00101 0.0
C1023 C 0.67885 0.36104 0.00552 0.0
C1024 C 0.68292 0.34669 0.0279 0.0
C1025 C 0.70344 0.3533 0.04494 0.0
C1026 C 0.63831 0.31838 0.95974 0.0
C1027 C 0.6237 0.33616 0.94618 0.0
C1028 C 0.65557 0.32642 0.97946 0.0
C1029 C 0.65867 0.35249 0.98613 0.0
C1030 C 0.64334 0.37022 0.97324 0.0
C1031 C 0.62594 0.36212 0.95351 0.0
H1032 H 0.13158 0.29305 0.30287 0.0
H1033 H 0.15928 0.32465 0.37605 0.0
H1034 H 0.14032 0.25054 0.31726 0.0
H1035 H 0.16796 0.28141 0.3908 0.0
H1036 H 0.21682 0.20799 0.38584 0.0
H1037 H 0.19951 0.25002 0.38054 0.0
H1038 H 0.12933 0.21599 0.34537 0.0
H1039 H 0.1471 0.17351 0.35035 0.0
C1040 C 0.13887 0.29094 0.32238 0.0
C1041 C 0.14464 0.3124 0.33836 0.0
C1042 C 0.14386 0.26636 0.33069 0.0
C1043 C 0.15475 0.26244 0.35525 0.0
C1044 C 0.1598 0.28378 0.37164 0.0
C1045 C 0.15486 0.30853 0.36323 0.0
C1046 C 0.19738 0.20927 0.37762 0.0
C1047 C 0.18335 0.1873 0.36839 0.0
C1048 C 0.1874 0.23352 0.3746 0.0
C1049 C 0.1631 0.23648 0.36236 0.0
C1050 C 0.14836 0.21442 0.35446 0.0
C1051 C 0.15846 0.1901 0.35733 0.0
H1052 H 0.80884 0.20892 0.36107 0.0
H1053 H 0.80545 0.23838 0.28342 0.0
H1054 H 0.76629 0.18708 0.3546 0.0
H1055 H 0.76338 0.21575 0.27655 0.0
H1056 H 0.67792 0.19345 0.27782 0.0
H1057 H 0.71866 0.21699 0.28856 0.0
H1058 H 0.74418 0.15266 0.33269 0.0
H1059 H 0.70305 0.12957 0.32276 0.0
C1060 C 0.7992 0.2104 0.34245 0.0
C1061 C 0.81054 0.22542 0.32274 0.0
C1062 C 0.77476 0.19784 0.33873 0.0
C1063 C 0.76117 0.1998 0.31513 0.0
C1064 C 0.7729 0.2143 0.29521 0.0
C1065 C 0.7972 0.22707 0.29903 0.0
C1066 C 0.692 0.18454 0.29025 0.0
C1067 C 0.68724 0.15957 0.29933 0.0
C1068 C 0.71555 0.19791 0.29616 0.0
C1069 C 0.73503 0.18658 0.31108 0.0
C1070 C 0.72964 0.16211 0.32126 0.0
C1071 C 0.70598 0.14883 0.31556 0.0
H1072 H 0.91407 0.69367 0.34645 0.0
H1073 H 0.84492 0.68114 0.39319 0.0
H1074 H 0.91411 0.7393 0.35687 0.0
H1075 H 0.84509 0.72662 0.40379 0.0
H1076 H 0.85063 0.80868 0.42346 0.0
H1077 H 0.86692 0.76536 0.42345 0.0
H1078 H 0.88294 0.77109 0.34169 0.0
H1079 H 0.86645 0.81408 0.34166 0.0
C1080 C 0.89916 0.70059 0.35934 0.0
C1081 C 0.87913 0.68388 0.36854 0.0
C1082 C 0.89923 0.7267 0.36533 0.0
C1083 C 0.87942 0.73662 0.38084 0.0
C1084 C 0.86077 0.71957 0.39193 0.0
C1085 C 0.86064 0.69344 0.38584 0.0
C1086 C 0.85825 0.80087 0.40563 0.0
C1087 C 0.85671 0.81462 0.38245 0.0
C1088 C 0.86752 0.77607 0.40563 0.0
C1089 C 0.87575 0.76463 0.38249 0.0
C1090 C 0.87683 0.77938 0.35989 0.0
C1091 C 0.8674 0.80413 0.35987 0.0
H1092 H 0.26097 0.78986 0.29868 0.0
H1093 H 0.27565 0.86239 0.33766 0.0
H1094 H 0.2137 0.79525 0.30236 0.0
H1095 H 0.2283 0.86778 0.34152 0.0
H1096 H 0.14025 0.85591 0.36249 0.0
H1097 H 0.18738 0.84767 0.36282 0.0
H1098 H 0.18284 0.82691 0.28173 0.0
H1099 H 0.1358 0.83508 0.2817 0.0
C1100 C 0.25409 0.80667 0.30858 0.0
C1101 C 0.27199 0.82567 0.31803 0.0
C1102 C 0.22704 0.80988 0.31044 0.0
C1103 C 0.21733 0.83198 0.32214 0.0
C1104 C 0.23521 0.85048 0.33254 0.0
C1105 C 0.26226 0.84746 0.33029 0.0
C1106 C 0.14938 0.84905 0.34499 0.0
C1107 C 0.13447 0.84509 0.32237 0.0
C1108 C 0.1763 0.84467 0.34504 0.0
C1109 C 0.18871 0.83631 0.32238 0.0
C1110 C 0.17374 0.83291 0.29959 0.0
C1111 C 0.14693 0.83767 0.29951 0.0
H1112 H 0.2284 0.67033 0.67366 0.0
H1113 H 0.14881 0.68922 0.65585 0.0
H1114 H 0.24346 0.71365 0.66273 0.0
H1115 H 0.16376 0.73241 0.64417 0.0
H1116 H 0.19308 0.81391 0.66393 0.0
H1117 H 0.17896 0.76927 0.66807 0.0
H1118 H 0.25016 0.74616 0.63084 0.0
H1119 H 0.26467 0.79099 0.62741 0.0
C1120 C 0.21425 0.68352 0.66658 0.0
C1121 C 0.18741 0.67648 0.66569 0.0
C1122 C 0.22284 0.70841 0.66036 0.0
C1123 C 0.20478 0.72671 0.65295 0.0
C1124 C 0.17815 0.71905 0.65044 0.0
C1125 C 0.16957 0.69427 0.65688 0.0
C1126 C 0.20572 0.79934 0.65657 0.0
C1127 C 0.23004 0.80604 0.64542 0.0
C1128 C 0.19751 0.77368 0.65872 0.0
C1129 C 0.21332 0.75403 0.64962 0.0
C1130 C 0.23759 0.76076 0.63828 0.0
C1131 C 0.24588 0.78647 0.63625 0.0
H1132 H 0.33247 0.13666 0.67635 0.0
H1133 H 0.29636 0.07264 0.71648 0.0
H1134 H 0.29004 0.14669 0.65809 0.0
H1135 H 0.2538 0.0827 0.69825 0.0
H1136 H 0.18325 0.13806 0.69521 0.0
H1137 H 0.22393 0.11752 0.70612 0.0
H1138 H 0.25366 0.13328 0.62957 0.0
H1139 H 0.21294 0.15388 0.61876 0.0
C1140 C 0.31561 0.12435 0.68077 0.0
C1141 C 0.31774 0.1041 0.69816 0.0
C1142 C 0.29123 0.13008 0.6703 0.0
C1143 C 0.26846 0.11563 0.67693 0.0
C1144 C 0.27087 0.09447 0.69314 0.0
C1145 C 0.29524 0.08874 0.70359 0.0
C1146 C 0.19814 0.13647 0.68049 0.0
C1147 C 0.19506 0.1479 0.65626 0.0
C1148 C 0.22151 0.12472 0.68672 0.0
C1149 C 0.2422 0.12411 0.66882 0.0
C1150 C 0.23832 0.13392 0.64396 0.0
C1151 C 0.215 0.14565 0.63776 0.0
H1152 H 0.73435 0.23795 0.67728 0.0
H1153 H 0.80721 0.20498 0.65415 0.0
H1154 H 0.75819 0.27691 0.69109 0.0
H1155 H 0.83118 0.24382 0.66863 0.0
H1156 H 0.86429 0.32551 0.67429 0.0
H1157 H 0.83856 0.28849 0.6578 0.0
H1158 H 0.78772 0.29242 0.72427 0.0
H1159 H 0.81286 0.32965 0.74034 0.0
C1160 C 0.75551 0.23888 0.67539 0.0
C1161 C 0.76887 0.21827 0.66466 0.0
C1162 C 0.76919 0.26126 0.68336 0.0
C1163 C 0.79662 0.26358 0.68091 0.0
C1164 C 0.81002 0.24286 0.6704 0.0
C1165 C 0.7963 0.22048 0.66234 0.0
C1166 C 0.84736 0.31872 0.68516 0.0
C1167 C 0.8407 0.33056 0.70866 0.0
C1168 C 0.83278 0.29732 0.67585 0.0
C1169 C 0.81121 0.28728 0.68983 0.0
C1170 C 0.80403 0.29972 0.71285 0.0
C1171 C 0.81855 0.32109 0.72212 0.0
H1172 H 0.78368 0.78646 0.67202 0.0
H1173 H 0.82185 0.8616 0.6715 0.0
H1174 H 0.74242 0.80521 0.68262 0.0
H1175 H 0.78015 0.88051 0.68332 0.0
H1176 H 0.69281 0.90461 0.68201 0.0
H1177 H 0.73411 0.8873 0.66667 0.0
H1178 H 0.72546 0.82559 0.72117 0.0
H1179 H 0.68447 0.84238 0.73604 0.0
C1180 C 0.78329 0.80706 0.67392 0.0
C1181 C 0.80617 0.82253 0.67073 0.0
C1182 C 0.75959 0.81779 0.68032 0.0
C1183 C 0.75804 0.84432 0.68395 0.0
C1184 C 0.78073 0.85999 0.68045 0.0
C1185 C 0.80464 0.84917 0.67399 0.0
C1186 C 0.69963 0.88718 0.69043 0.0
C1187 C 0.68531 0.87483 0.71017 0.0
C1188 C 0.72337 0.87744 0.68185 0.0
C1189 C 0.733 0.85508 0.69269 0.0
C1190 C 0.71843 0.84266 0.71216 0.0
C1191 C 0.69493 0.85237 0.72076 0.0
H1192 H 0.31149 0.12755 0.31786 0.0
H1193 H 0.28181 0.20384 0.31764 0.0
H1194 H 0.32771 0.13353 0.27388 0.0
H1195 H 0.29861 0.21009 0.27412 0.0
H1196 H 0.30361 0.20518 0.18776 0.0
H1197 H 0.28814 0.19581 0.2312 0.0
H1198 H 0.35905 0.15586 0.24683 0.0
H1199 H 0.37421 0.16462 0.20299 0.0
C1200 C 0.30888 0.14578 0.30864 0.0
C1201 C 0.29523 0.16519 0.32125 0.0
C1202 C 0.31817 0.14921 0.28338 0.0
C1203 C 0.3141 0.17214 0.2702 0.0
C1204 C 0.30147 0.1919 0.28333 0.0
C1205 C 0.29207 0.18843 0.30845 0.0
C1206 C 0.31574 0.19403 0.20029 0.0
C1207 C 0.34021 0.18575 0.19187 0.0
C1208 C 0.307 0.18891 0.22536 0.0
C1209 C 0.32257 0.17553 0.24279 0.0
C1210 C 0.34649 0.16616 0.23396 0.0
C1211 C 0.35518 0.17116 0.20876 0.0
H1212 H 0.91597 0.32628 0.29432 0.0
H1213 H 0.84145 0.36245 0.30068 0.0
H1214 H 0.92148 0.34331 0.25086 0.0
H1215 H 0.84718 0.37979 0.25751 0.0
H1216 H 0.86136 0.41213 0.18131 0.0
H1217 H 0.87273 0.40735 0.2269 0.0
H1218 H 0.89656 0.33038 0.21096 0.0
H1219 H 0.88494 0.33509 0.16564 0.0
C1220 C 0.90094 0.33818 0.28662 0.0
C1221 C 0.87793 0.3425 0.30074 0.0
C1222 C 0.90421 0.34803 0.26178 0.0
C1223 C 0.88468 0.36265 0.25066 0.0
C1224 C 0.86274 0.36878 0.26563 0.0
C1225 C 0.85939 0.35879 0.29041 0.0
C1226 C 0.86987 0.39451 0.18745 0.0
C1227 C 0.87171 0.3738 0.17 0.0
C1228 C 0.87626 0.39175 0.21354 0.0
C1229 C 0.88498 0.36831 0.22259 0.0
C1230 C 0.88991 0.34871 0.20458 0.0
C1231 C 0.88333 0.35143 0.17849 0.0
H1232 H 0.70154 0.76218 0.20297 0.0
H1233 H 0.65716 0.8308 0.19866 0.0
H1234 H 0.71567 0.77412 0.24667 0.0
H1235 H 0.67185 0.84307 0.24215 0.0
H1236 H 0.67717 0.84267 0.33012 0.0
H1237 H 0.66434 0.83025 0.28613 0.0
H1238 H 0.74227 0.80367 0.27213 0.0
H1239 H 0.75489 0.81548 0.3163 0.0
C1240 C 0.69516 0.78006 0.21115 0.0
C1241 C 0.67813 0.79549 0.19726 0.0
C1242 C 0.70331 0.78693 0.23626 0.0
C1243 C 0.69471 0.80945 0.24814 0.0
C1244 C 0.67843 0.82532 0.23387 0.0
C1245 C 0.67022 0.81841 0.20878 0.0
C1246 C 0.69151 0.83395 0.31776 0.0
C1247 C 0.71706 0.83008 0.32682 0.0
C1248 C 0.68422 0.82706 0.29239 0.0
C1249 C 0.70232 0.81617 0.27539 0.0
C1250 C 0.72772 0.8118 0.28467 0.0
C1251 C 0.73499 0.81864 0.31005 0.0
H1252 H 0.16303 0.66107 0.17994 0.0
H1253 H 0.18886 0.73127 0.14333 0.0
H1254 H 0.1541 0.6847 0.2197 0.0
H1255 H 0.17977 0.75507 0.18316 0.0
H1256 H 0.13697 0.78799 0.25576 0.0
H1257 H 0.14373 0.76715 0.21385 0.0
H1258 H 0.18429 0.70694 0.25193 0.0
H1259 H 0.17707 0.72756 0.29382 0.0
C1260 C 0.16637 0.68164 0.18032 0.0
C1261 C 0.17682 0.6943 0.15867 0.0
C1262 C 0.16148 0.69512 0.20309 0.0
C1263 C 0.16682 0.72161 0.20466 0.0
C1264 C 0.17555 0.73463 0.18247 0.0
C1265 C 0.18055 0.72105 0.15963 0.0
C1266 C 0.14738 0.77033 0.2551 0.0
C1267 C 0.15624 0.75919 0.27803 0.0
C1268 C 0.15138 0.75853 0.23114 0.0
C1269 C 0.16415 0.73525 0.22971 0.0
C1270 C 0.17394 0.72466 0.25254 0.0
C1271 C 0.17012 0.73658 0.27647 0.0
H1272 H 0.42241 0.83374 0.79124 0.0
H1273 H 0.34437 0.86035 0.8043 0.0
H1274 H 0.42377 0.8553 0.74962 0.0
H1275 H 0.34582 0.88208 0.763 0.0
H1276 H 0.3495 0.9193 0.68879 0.0
H1277 H 0.36521 0.91387 0.73302 0.0
H1278 H 0.39859 0.84234 0.71037 0.0
H1279 H 0.38283 0.84772 0.66643 0.0
C1280 C 0.40575 0.84461 0.78546 0.0
C1281 C 0.38298 0.84479 0.80076 0.0
C1282 C 0.4066 0.85703 0.76169 0.0
C1283 C 0.3848 0.87007 0.75285 0.0
C1284 C 0.36307 0.87236 0.76931 0.0
C1285 C 0.36218 0.85984 0.79304 0.0
C1286 C 0.36099 0.90287 0.69313 0.0
C1287 C 0.36439 0.88362 0.67431 0.0
C1288 C 0.36989 0.89974 0.71844 0.0
C1289 C 0.38258 0.87742 0.7253 0.0
C1290 C 0.38891 0.8598 0.70572 0.0
C1291 C 0.3799 0.86289 0.68042 0.0
H1292 H 0.23944 0.29839 0.818 0.0
H1293 H 0.17424 0.34884 0.81954 0.0
H1294 H 0.22741 0.28462 0.77451 0.0
H1295 H 0.16144 0.33416 0.7761 0.0
H1296 H 0.16381 0.32423 0.68783 0.0
H1297 H 0.17489 0.3377 0.73207 0.0
H1298 H 0.19701 0.26071 0.7493 0.0
H1299 H 0.18703 0.24764 0.70507 0.0
C1300 C 0.22217 0.30619 0.80927 0.0
C1301 C 0.20783 0.32478 0.82235 0.0
C1302 C 0.21519 0.29819 0.78423 0.0
C1303 C 0.19348 0.30831 0.77158 0.0
C1304 C 0.17857 0.32629 0.78499 0.0
C1305 C 0.18571 0.33448 0.81006 0.0
C1306 C 0.17131 0.31028 0.70102 0.0
C1307 C 0.17472 0.28491 0.69279 0.0
C1308 C 0.17738 0.31792 0.72651 0.0
C1309 C 0.1868 0.30031 0.74442 0.0
C1310 C 0.19025 0.27497 0.73605 0.0
C1311 C 0.18445 0.26743 0.71059 0.0
H1312 H 0.59212 0.21569 0.6462 0.0
H1313 H 0.66469 0.25943 0.65777 0.0
H1314 H 0.56995 0.24467 0.67554 0.0
H1315 H 0.64308 0.28764 0.6878 0.0
H1316 H 0.56471 0.2649 0.76429 0.0
H1317 H 0.57325 0.24721 0.72167 0.0
H1318 H 0.61192 0.31865 0.69988 0.0
H1319 H 0.60418 0.33593 0.74319 0.0
C1320 C 0.60319 0.23185 0.65448 0.0
C1321 C 0.63029 0.23495 0.65018 0.0
C1322 C 0.59055 0.24835 0.67147 0.0
C1323 C 0.6048 0.26822 0.68445 0.0
C1324 C 0.63136 0.27267 0.67815 0.0
C1325 C 0.64391 0.25625 0.66119 0.0
C1326 C 0.57456 0.27697 0.75019 0.0
C1327 C 0.58437 0.30152 0.75725 0.0
C1328 C 0.57921 0.26696 0.72559 0.0
C1329 C 0.59372 0.28134 0.70742 0.0
C1330 C 0.60113 0.30689 0.71361 0.0
C1331 C 0.5965 0.3169 0.73834 0.0
H1332 H 0.82529 0.7304 0.70642 0.0
H1333 H 0.86772 0.66082 0.69829 0.0
H1334 H 0.81302 0.71868 0.75005 0.0
H1335 H 0.85435 0.64837 0.74183 0.0
H1336 H 0.84848 0.64526 0.82989 0.0
H1337 H 0.8616 0.65759 0.78627 0.0
H1338 H 0.78653 0.69167 0.77491 0.0
H1339 H 0.77405 0.68043 0.81865 0.0
C1340 C 0.8316 0.7123 0.71375 0.0
C1341 C 0.84747 0.69653 0.69871 0.0
C1342 C 0.82445 0.70549 0.73889 0.0
C1343 C 0.83265 0.68253 0.74972 0.0
C1344 C 0.84803 0.66643 0.73443 0.0
C1345 C 0.85546 0.67341 0.7093 0.0
C1346 C 0.83495 0.65569 0.81817 0.0
C1347 C 0.81028 0.66197 0.82791 0.0
C1348 C 0.84234 0.66251 0.79298 0.0
C1349 C 0.82514 0.67557 0.7768 0.0
C1350 C 0.80058 0.68204 0.78677 0.0
C1351 C 0.79334 0.67551 0.81197 0.0
H1352 H 0.18076 0.3856 0.18072 0.0
H1353 H 0.1762 0.32719 0.23921 0.0
H1354 H 0.2224 0.36896 0.1658 0.0
H1355 H 0.21773 0.31124 0.22492 0.0
H1356 H 0.27825 0.27196 0.17819 0.0
H1357 H 0.2363 0.28894 0.18942 0.0
H1358 H 0.26845 0.36589 0.18035 0.0
H1359 H 0.31061 0.34861 0.16767 0.0
C1360 C 0.18847 0.36911 0.19022 0.0
C1361 C 0.17508 0.35767 0.21108 0.0
C1362 C 0.21246 0.35979 0.18189 0.0
C1363 C 0.22343 0.33881 0.1942 0.0
C1364 C 0.20972 0.32719 0.21474 0.0
C1365 C 0.18587 0.33642 0.223 0.0
C1366 C 0.27643 0.2925 0.17819 0.0
C1367 C 0.29782 0.30891 0.17178 0.0
C1368 C 0.25236 0.30227 0.18497 0.0
C1369 C 0.24898 0.32878 0.18586 0.0
C1370 C 0.27034 0.34534 0.17957 0.0
C1371 C 0.29458 0.33548 0.17265 0.0
H1372 H 0.32457 0.70216 0.84562 0.0
H1373 H 0.3147 0.73927 0.77217 0.0
H1374 H 0.28243 0.67958 0.83985 0.0
H1375 H 0.27303 0.71572 0.7657 0.0
H1376 H 0.18813 0.69015 0.77114 0.0
H1377 H 0.22938 0.71365 0.77989 0.0
H1378 H 0.25938 0.64705 0.81715 0.0
H1379 H 0.21773 0.62409 0.80946 0.0
C1380 C 0.31362 0.70513 0.82797 0.0
C1381 C 0.32301 0.72253 0.80933 0.0
C1382 C 0.28939 0.69211 0.82462 0.0
C1383 C 0.27406 0.69586 0.80236 0.0
C1384 C 0.28389 0.71276 0.78339 0.0
C1385 C 0.30796 0.72607 0.78693 0.0
C1386 C 0.2034 0.6807 0.7816 0.0
C1387 C 0.19961 0.65526 0.78963 0.0
C1388 C 0.22722 0.69407 0.78634 0.0
C1389 C 0.24802 0.68221 0.79891 0.0
C1390 C 0.24384 0.657 0.80767 0.0
C1391 C 0.21988 0.64377 0.80325 0.0
H1392 H 0.371 0.28957 0.84252 0.0
H1393 H 0.29409 0.2617 0.86603 0.0
H1394 H 0.38377 0.24521 0.83501 0.0
H1395 H 0.30685 0.21798 0.85907 0.0
H1396 H 0.32815 0.14837 0.80908 0.0
H1397 H 0.31703 0.19219 0.81961 0.0
H1398 H 0.39072 0.20377 0.86026 0.0
H1399 H 0.40195 0.15976 0.84975 0.0
C1400 C 0.35697 0.27403 0.84624 0.0
C1401 C 0.33167 0.27917 0.85508 0.0
C1402 C 0.36428 0.24871 0.84215 0.0
C1403 C 0.34626 0.22818 0.84645 0.0
C1404 C 0.3211 0.23339 0.85544 0.0
C1405 C 0.31391 0.25851 0.85973 0.0
C1406 C 0.34186 0.16014 0.82052 0.0
C1407 C 0.36585 0.15055 0.82869 0.0
C1408 C 0.33549 0.18523 0.82656 0.0
C1409 C 0.35306 0.2014 0.84068 0.0
C1410 C 0.37693 0.19177 0.84915 0.0
C1411 C 0.38319 0.16651 0.84337 0.0
H1412 H 0.68867 0.35156 0.84751 0.0
H1413 H 0.69141 0.26977 0.85736 0.0
H1414 H 0.73602 0.35468 0.84545 0.0
H1415 H 0.73943 0.273 0.85607 0.0
H1416 H 0.82079 0.28983 0.81561 0.0
H1417 H 0.7746 0.28163 0.82599 0.0
H1418 H 0.77479 0.3522 0.87041 0.0
H1419 H 0.82066 0.36067 0.85897 0.0
C1420 C 0.69942 0.33421 0.84952 0.0
C1421 C 0.68622 0.3104 0.85256 0.0
C1422 C 0.72671 0.33604 0.84861 0.0
C1423 C 0.74168 0.31414 0.85094 0.0
C1424 C 0.72852 0.29024 0.8541 0.0
C1425 C 0.70102 0.28839 0.85488 0.0
C1426 C 0.81109 0.30313 0.82823 0.0
C1427 C 0.82414 0.32594 0.83646 0.0
C1428 C 0.7846 0.29849 0.83417 0.0
C1429 C 0.77077 0.31651 0.84862 0.0
C1430 C 0.7846 0.33825 0.85863 0.0
C1431 C 0.8109 0.34303 0.85238 0.0
H1432 H 0.68678 0.71132 0.90657 0.0
H1433 H 0.66318 0.69027 0.82864 0.0
H1434 H 0.67136 0.75438 0.90003 0.0
H1435 H 0.64767 0.73326 0.8221 0.0
H1436 H 0.60946 0.80931 0.82134 0.0
H1437 H 0.61622 0.76547 0.83469 0.0
H1438 H 0.68772 0.7905 0.874 0.0
H1439 H 0.68097 0.83433 0.86054 0.0
C1440 C 0.67802 0.71582 0.88814 0.0
C1441 C 0.67653 0.69746 0.86801 0.0
C1442 C 0.66923 0.74049 0.88439 0.0
C1443 C 0.65861 0.74736 0.86045 0.0
C1444 C 0.65558 0.72854 0.84086 0.0
C1445 C 0.66443 0.70385 0.8446 0.0
C1446 C 0.62655 0.80547 0.83297 0.0
C1447 C 0.6449 0.82526 0.83955 0.0
C1448 C 0.6304 0.78035 0.84061 0.0
C1449 C 0.65264 0.77443 0.85515 0.0
C1450 C 0.67024 0.79444 0.86299 0.0
C1451 C 0.66639 0.8196 0.85529 0.0
H1452 H 0.71118 0.65943 0.14544 0.0
H1453 H 0.67933 0.67161 0.2215 0.0
H1454 H 0.75161 0.64456 0.16467 0.0
H1455 H 0.71997 0.65793 0.24097 0.0
H1456 H 0.7913 0.61872 0.27011 0.0
H1457 H 0.74905 0.6254 0.24974 0.0
H1458 H 0.78844 0.66324 0.18603 0.0
H1459 H 0.83071 0.65543 0.20592 0.0
C1460 C 0.71281 0.65854 0.16631 0.0
C1461 C 0.69222 0.66655 0.182 0.0
C1462 C 0.73602 0.65035 0.17737 0.0
C1463 C 0.73933 0.65043 0.20443 0.0
C1464 C 0.71813 0.6573 0.2201 0.0
C1465 C 0.69476 0.66512 0.20898 0.0
C1466 C 0.79091 0.62844 0.25173 0.0
C1467 C 0.81433 0.63667 0.23966 0.0
C1468 C 0.76665 0.63234 0.24006 0.0
C1469 C 0.7652 0.64489 0.2162 0.0
C1470 C 0.78872 0.65305 0.20413 0.0
C1471 C 0.813 0.64881 0.21564 0.0
H1472 H 0.27699 0.80533 0.21805 0.0
H1473 H 0.36021 0.80306 0.20316 0.0
H1474 H 0.27002 0.76501 0.19462 0.0
H1475 H 0.35322 0.76241 0.18008 0.0
H1476 H 0.3241 0.69942 0.12125 0.0
H1477 H 0.33348 0.7409 0.14202 0.0
H1478 H 0.27982 0.72072 0.20355 0.0
H1479 H 0.27006 0.67953 0.18265 0.0
C1480 C 0.29377 0.79643 0.20948 0.0
C1481 C 0.31917 0.80736 0.21266 0.0
C1482 C 0.28981 0.77315 0.19629 0.0
C1483 C 0.31115 0.76021 0.18599 0.0
C1484 C 0.33637 0.77187 0.18781 0.0
C1485 C 0.34035 0.79522 0.20101 0.0
C1486 C 0.31461 0.70366 0.13943 0.0
C1487 C 0.2962 0.68617 0.15019 0.0
C1488 C 0.31997 0.72747 0.15131 0.0
C1489 C 0.30703 0.7343 0.17418 0.0
C1490 C 0.28963 0.7163 0.18559 0.0
C1491 C 0.28428 0.69253 0.17376 0.0
H1492 H 0.77406 0.2885 0.13104 0.0
H1493 H 0.7009 0.31459 0.1617 0.0
H1494 H 0.75957 0.24428 0.13871 0.0
H1495 H 0.6867 0.27049 0.16989 0.0
H1496 H 0.65765 0.18887 0.16148 0.0
H1497 H 0.67307 0.23129 0.14781 0.0
H1498 H 0.75119 0.21537 0.17433 0.0
H1499 H 0.73572 0.17284 0.18765 0.0
C1500 C 0.75491 0.28482 0.13949 0.0
C1501 C 0.73864 0.30511 0.14578 0.0
C1502 C 0.74666 0.25946 0.14397 0.0
C1503 C 0.72193 0.25379 0.15483 0.0
C1504 C 0.70567 0.27411 0.16106 0.0
C1505 C 0.7139 0.29944 0.15656 0.0
C1506 C 0.67818 0.19437 0.16405 0.0
C1507 C 0.69542 0.17759 0.17575 0.0
C1508 C 0.68699 0.2187 0.15639 0.0
C1509 C 0.71328 0.22691 0.16034 0.0
C1510 C 0.73085 0.20962 0.17083 0.0
C1511 C 0.72202 0.18519 0.17841 0.0
loop_
_geom_bond_atom_site_label_1
_geom_bond_atom_site_label_2
_geom_bond_distance
_geom_bond_site_symmetry_2
_ccdc_geom_bond_type
Cu0 N1 1.999 . S
Cu0 O6 1.974 . S
Cu0 N11 1.985 . S
Cu0 O20 1.959 . S
N1 Cu0 1.999 . S
N1 C3 1.263 . S
N1 C5 1.389 . S
N2 C3 1.358 . S
N2 C4 1.400 . S
C3 N1 1.263 . S
C3 N2 1.358 . S
C3 H9 0.930 . S
C4 N2 1.400 . S
C4 C5 1.351 . S
C4 H21 0.930 . S
C5 N1 1.389 . S
C5 C4 1.351 . S
C5 H10 0.930 . S
O6 Cu0 1.974 . S
O6 C16 1.282 . S
C7 O8 1.261 . S
C7 O20 1.251 . S
O8 C7 1.261 . S
H9 C3 0.930 . S
H10 C5 0.930 . S
N11 Cu0 1.985 . S
N11 C13 1.335 . S
N11 C14 1.390 . S
N12 C13 1.345 . S
N12 C15 1.336 . S
C13 N11 1.335 . S
C13 N12 1.345 . S
C13 H18 0.930 . S
C14 N11 1.390 . S
C14 C15 1.346 . S
C14 H19 0.930 . S
C15 N12 1.336 . S
C15 C14 1.346 . S
C15 H22 0.929 . S
C16 O6 1.282 . S
C16 O17 1.216 . S
O17 C16 1.216 . S
H18 C13 0.930 . S
H19 C14 0.930 . S
O20 Cu0 1.959 . S
O20 C7 1.251 . S
H21 C4 0.930 . S
H22 C15 0.929 . S
Cu23 N24 1.999 . S
Cu23 O29 1.974 . S
Cu23 N34 1.985 . S
Cu23 O43 1.959 . S
N24 Cu23 1.999 . S
N24 C26 1.263 . S
N24 C28 1.389 . S
N25 C26 1.358 . S
N25 C27 1.400 . S
C26 N24 1.263 . S
C26 N25 1.358 . S
C26 H32 0.930 . S
C27 N25 1.400 . S
C27 C28 1.351 . S
C27 H44 0.930 . S
C28 N24 1.389 . S
C28 C27 1.351 . S
C28 H33 0.930 . S
O29 Cu23 1.974 . S
O29 C39 1.282 . S
C30 O31 1.261 . S
C30 O43 1.251 . S
O31 C30 1.261 . S
H32 C26 0.930 . S
H33 C28 0.930 . S
N34 Cu23 1.985 . S
N34 C36 1.335 . S
N34 C37 1.390 . S
N35 C36 1.345 . S
N35 C38 1.336 . S
C36 N34 1.335 . S
C36 N35 1.345 . S
C36 H41 0.930 . S
C37 N34 1.390 . S
C37 C38 1.346 . S
C37 H42 0.930 . S
C38 N35 1.336 . S
C38 C37 1.346 . S
C38 H45 0.929 . S
C39 O29 1.282 . S
C39 O40 1.216 . S
O40 C39 1.216 . S
H41 C36 0.930 . S
H42 C37 0.930 . S
O43 Cu23 1.959 . S
O43 C30 1.251 . S
H44 C27 0.930 . S
H45 C38 0.929 . S
Cu46 N47 1.999 . S
Cu46 O52 1.974 . S
Cu46 N57 1.985 . S
Cu46 O66 1.959 . S
N47 Cu46 1.999 . S
N47 C49 1.263 . S
N47 C51 1.389 . S
N48 C49 1.358 . S
N48 C50 1.400 . S
C49 N47 1.263 . S
C49 N48 1.358 . S
C49 H55 0.930 . S
C50 N48 1.400 . S
C50 C51 1.351 . S
C50 H67 0.930 . S
C51 N47 1.389 . S
C51 C50 1.351 . S
C51 H56 0.930 . S
O52 Cu46 1.974 . S
O52 C62 1.282 . S
C53 O54 1.261 . S
C53 O66 1.251 . S
O54 C53 1.261 . S
H55 C49 0.930 . S
H56 C51 0.930 . S
N57 Cu46 1.985 . S
N57 C59 1.335 . S
N57 C60 1.390 . S
N58 C59 1.345 . S
N58 C61 1.336 . S
C59 N57 1.335 . S
C59 N58 1.345 . S
C59 H64 0.930 . S
C60 N57 1.390 . S
C60 C61 1.346 . S
C60 H65 0.930 . S
C61 N58 1.336 . S
C61 C60 1.346 . S
C61 H68 0.929 . S
C62 O52 1.282 . S
C62 O63 1.216 . S
O63 C62 1.216 . S
H64 C59 0.930 . S
H65 C60 0.930 . S
O66 Cu46 1.959 . S
O66 C53 1.251 . S
H67 C50 0.930 . S
H68 C61 0.929 . S
Cu69 N70 1.999 . S
Cu69 O75 1.974 . S
Cu69 N80 1.985 . S
Cu69 O89 1.959 . S
N70 Cu69 1.999 . S
N70 C72 1.263 . S
N70 C74 1.389 . S
N71 C72 1.358 . S
N71 C73 1.400 . S
C72 N70 1.263 . S
C72 N71 1.358 . S
C72 H78 0.930 . S
C73 N71 1.400 . S
C73 C74 1.351 . S
C73 H90 0.930 . S
C74 N70 1.389 . S
C74 C73 1.351 . S
C74 H79 0.930 . S
O75 Cu69 1.974 . S
O75 C85 1.282 . S
C76 O77 1.261 . S
C76 O89 1.251 . S
O77 C76 1.261 . S
H78 C72 0.930 . S
H79 C74 0.930 . S
N80 Cu69 1.985 . S
N80 C82 1.335 . S
N80 C83 1.390 . S
N81 C82 1.345 . S
N81 C84 1.336 . S
C82 N80 1.335 . S
C82 N81 1.345 . S
C82 H87 0.930 . S
C83 N80 1.390 . S
C83 C84 1.346 . S
C83 H88 0.930 . S
C84 N81 1.336 . S
C84 C83 1.346 . S
C84 H91 0.929 . S
C85 O75 1.282 . S
C85 O86 1.216 . S
O86 C85 1.216 . S
H87 C82 0.930 . S
H88 C83 0.930 . S
O89 Cu69 1.959 . S
O89 C76 1.251 . S
H90 C73 0.930 . S
H91 C84 0.929 . S
Cu92 N93 1.999 . S
Cu92 O98 1.974 . S
Cu92 N103 1.985 . S
Cu92 O112 1.959 . S
N93 Cu92 1.999 . S
N93 C95 1.263 . S
N93 C97 1.389 . S
N94 C95 1.358 . S
N94 C96 1.400 . S
C95 N93 1.263 . S
C95 N94 1.358 . S
C95 H101 0.930 . S
C96 N94 1.400 . S
C96 C97 1.351 . S
C96 H113 0.930 . S
C97 N93 1.389 . S
C97 C96 1.351 . S
C97 H102 0.930 . S
O98 Cu92 1.974 . S
O98 C108 1.282 . S
C99 O100 1.261 . S
C99 O112 1.251 . S
O100 C99 1.261 . S
H101 C95 0.930 . S
H102 C97 0.930 . S
N103 Cu92 1.985 . S
N103 C105 1.335 . S
N103 C106 1.390 . S
N104 C105 1.345 . S
N104 C107 1.336 . S
C105 N103 1.335 . S
C105 N104 1.345 . S
C105 H110 0.930 . S
C106 N103 1.390 . S
C106 C107 1.346 . S
C106 H111 0.930 . S
C107 N104 1.336 . S
C107 C106 1.346 . S
C107 H114 0.929 . S
C108 O98 1.282 . S
C108 O109 1.216 . S
O109 C108 1.216 . S
H110 C105 0.930 . S
H111 C106 0.930 . S
O112 Cu92 1.959 . S
O112 C99 1.251 . S
H113 C96 0.930 . S
H114 C107 0.929 . S
Cu115 N116 1.999 . S
Cu115 O121 1.974 . S
Cu115 N126 1.985 . S
Cu115 O135 1.959 . S
N116 Cu115 1.999 . S
N116 C118 1.263 . S
N116 C120 1.389 . S
N117 C118 1.358 . S
N117 C119 1.400 . S
C118 N116 1.263 . S
C118 N117 1.358 . S
C118 H124 0.930 . S
C119 N117 1.400 . S
C119 C120 1.351 . S
C119 H136 0.930 . S
C120 N116 1.389 . S
C120 C119 1.351 . S
C120 H125 0.930 . S
O121 Cu115 1.974 . S
O121 C131 1.282 . S
C122 O123 1.261 . S
C122 O135 1.251 . S
O123 C122 1.261 . S
H124 C118 0.930 . S
H125 C120 0.930 . S
N126 Cu115 1.985 . S
N126 C128 1.335 . S
N126 C129 1.390 . S
N127 C128 1.345 . S
N127 C130 1.336 . S
C128 N126 1.335 . S
C128 N127 1.345 . S
C128 H133 0.930 . S
C129 N126 1.390 . S
C129 C130 1.346 . S
C129 H134 0.930 . S
C130 N127 1.336 . S
C130 C129 1.346 . S
C130 H137 0.929 . S
C131 O121 1.282 . S
C131 O132 1.216 . S
O132 C131 1.216 . S
H133 C128 0.930 . S
H134 C129 0.930 . S
O135 Cu115 1.959 . S
O135 C122 1.251 . S
H136 C119 0.930 . S
H137 C130 0.929 . S
Cu138 N139 1.999 . S
Cu138 O144 1.974 . S
Cu138 N149 1.985 . S
Cu138 O158 1.959 . S
N139 Cu138 1.999 . S
N139 C141 1.263 . S
N139 C143 1.389 . S
N140 C141 1.358 . S
N140 C142 1.400 . S
C141 N139 1.263 . S
C141 N140 1.358 . S
C141 H147 0.930 . S
C142 N140 1.400 . S
C142 C143 1.351 . S
C142 H159 0.930 . S
C143 N139 1.389 . S
C143 C142 1.351 . S
C143 H148 0.930 . S
O144 Cu138 1.974 . S
O144 C154 1.282 . S
C145 O146 1.261 . S
C145 O158 1.251 . S
O146 C145 1.261 . S
H147 C141 0.930 . S
H148 C143 0.930 . S
N149 Cu138 1.985 . S
N149 C151 1.335 . S
N149 C152 1.390 . S
N150 C151 1.345 . S
N150 C153 1.336 . S
C151 N149 1.335 . S
C151 N150 1.345 . S
C151 H156 0.930 . S
C152 N149 1.390 . S
C152 C153 1.346 . S
C152 H157 0.930 . S
C153 N150 1.336 . S
C153 C152 1.346 . S
C153 H160 0.929 . S
C154 O144 1.282 . S
C154 O155 1.216 . S
O155 C154 1.216 . S
H156 C151 0.930 . S
H157 C152 0.930 . S
O158 Cu138 1.959 . S
O158 C145 1.251 . S
H159 C142 0.930 . S
H160 C153 0.929 . S
Cu161 N162 1.999 . S
Cu161 O167 1.974 . S
Cu161 N172 1.985 . S
Cu161 O181 1.959 . S
N162 Cu161 1.999 . S
N162 C164 1.263 . S
N162 C166 1.389 . S
N163 C164 1.358 . S
N163 C165 1.400 . S
C164 N162 1.263 . S
C164 N163 1.358 . S
C164 H170 0.930 . S
C165 N163 1.400 . S
C165 C166 1.351 . S
C165 H182 0.930 . S
C166 N162 1.389 . S
C166 C165 1.351 . S
C166 H171 0.930 . S
O167 Cu161 1.974 . S
O167 C177 1.282 . S
C168 O169 1.261 . S
C168 O181 1.251 . S
O169 C168 1.261 . S
H170 C164 0.930 . S
H171 C166 0.930 . S
N172 Cu161 1.985 . S
N172 C174 1.335 . S
N172 C175 1.390 . S
N173 C174 1.345 . S
N173 C176 1.336 . S
C174 N172 1.335 . S
C174 N173 1.345 . S
C174 H179 0.930 . S
C175 N172 1.390 . S
C175 C176 1.346 . S
C175 H180 0.930 . S
C176 N173 1.336 . S
C176 C175 1.346 . S
C176 H183 0.929 . S
C177 O167 1.282 . S
C177 O178 1.216 . S
O178 C177 1.216 . S
H179 C174 0.930 . S
H180 C175 0.930 . S
O181 Cu161 1.959 . S
O181 C168 1.251 . S
H182 C165 0.930 . S
H183 C176 0.929 . S
Cu184 N185 1.999 . S
Cu184 O190 1.974 . S
Cu184 N195 1.985 . S
Cu184 O204 1.959 . S
N185 Cu184 1.999 . S
N185 C187 1.263 . S
N185 C189 1.389 . S
N186 C187 1.358 . S
N186 C188 1.400 . S
C187 N185 1.263 . S
C187 N186 1.358 . S
C187 H193 0.930 . S
C188 N186 1.400 . S
C188 C189 1.351 . S
C188 H205 0.930 . S
C189 N185 1.389 . S
C189 C188 1.351 . S
C189 H194 0.930 . S
O190 Cu184 1.974 . S
O190 C200 1.282 . S
C191 O192 1.261 . S
C191 O204 1.251 . S
O192 C191 1.261 . S
H193 C187 0.930 . S
H194 C189 0.930 . S
N195 Cu184 1.985 . S
N195 C197 1.335 . S
N195 C198 1.390 . S
N196 C197 1.345 . S
N196 C199 1.336 . S
C197 N195 1.335 . S
C197 N196 1.345 . S
C197 H202 0.930 . S
C198 N195 1.390 . S
C198 C199 1.346 . S
C198 H203 0.930 . S
C199 N196 1.336 . S
C199 C198 1.346 . S
C199 H206 0.929 . S
C200 O190 1.282 . S
C200 O201 1.216 . S
O201 C200 1.216 . S
H202 C197 0.930 . S
H203 C198 0.930 . S
O204 Cu184 1.959 . S
O204 C191 1.251 . S
H205 C188 0.930 . S
H206 C199 0.929 . S
Cu207 N208 1.999 . S
Cu207 O213 1.974 . S
Cu207 N218 1.985 . S
Cu207 O227 1.959 . S
N208 Cu207 1.999 . S
N208 C210 1.263 . S
N208 C212 1.389 . S
N209 C210 1.358 . S
N209 C211 1.400 . S
C210 N208 1.263 . S
C210 N209 1.358 . S
C210 H216 0.930 . S
C211 N209 1.400 . S
C211 C212 1.351 . S
C211 H228 0.930 . S
C212 N208 1.389 . S
C212 C211 1.351 . S
C212 H217 0.930 . S
O213 Cu207 1.974 . S
O213 C223 1.282 . S
C214 O215 1.261 . S
C214 O227 1.251 . S
O215 C214 1.261 . S
H216 C210 0.930 . S
H217 C212 0.930 . S
N218 Cu207 1.985 . S
N218 C220 1.335 . S
N218 C221 1.390 . S
N219 C220 1.345 . S
N219 C222 1.336 . S
C220 N218 1.335 . S
C220 N219 1.345 . S
C220 H225 0.930 . S
C221 N218 1.390 . S
C221 C222 1.346 . S
C221 H226 0.930 . S
C222 N219 1.336 . S
C222 C221 1.346 . S
C222 H229 0.929 . S
C223 O213 1.282 . S
C223 O224 1.216 . S
O224 C223 1.216 . S
H225 C220 0.930 . S
H226 C221 0.930 . S
O227 Cu207 1.959 . S
O227 C214 1.251 . S
H228 C211 0.930 . S
H229 C222 0.929 . S
Cu230 N231 1.999 . S
Cu230 O236 1.974 . S
Cu230 N241 1.985 . S
Cu230 O250 1.959 . S
N231 Cu230 1.999 . S
N231 C233 1.263 . S
N231 C235 1.389 . S
N232 C233 1.358 . S
N232 C234 1.400 . S
C233 N231 1.263 . S
C233 N232 1.358 . S
C233 H239 0.930 . S
C234 N232 1.400 . S
C234 C235 1.351 . S
C234 H251 0.930 . S
C235 N231 1.389 . S
C235 C234 1.351 . S
C235 H240 0.930 . S
O236 Cu230 1.974 . S
O236 C246 1.282 . S
C237 O238 1.261 . S
C237 O250 1.251 . S
O238 C237 1.261 . S
H239 C233 0.930 . S
H240 C235 0.930 . S
N241 Cu230 1.985 . S
N241 C243 1.335 . S
N241 C244 1.390 . S
N242 C243 1.345 . S
N242 C245 1.336 . S
C243 N241 1.335 . S
C243 N242 1.345 . S
C243 H248 0.930 . S
C244 N241 1.390 . S
C244 C245 1.346 . S
C244 H249 0.930 . S
C245 N242 1.336 . S
C245 C244 1.346 . S
C245 H252 0.929 . S
C246 O236 1.282 . S
C246 O247 1.216 . S
O247 C246 1.216 . S
H248 C243 0.930 . S
H249 C244 0.930 . S
O250 Cu230 1.959 . S
O250 C237 1.251 . S
H251 C234 0.930 . S
H252 C245 0.929 . S
Cu253 N254 1.999 . S
Cu253 O259 1.974 . S
Cu253 N264 1.985 . S
Cu253 O273 1.959 . S
N254 Cu253 1.999 . S
N254 C256 1.263 . S
N254 C258 1.389 . S
N255 C256 1.358 . S
N255 C257 1.400 . S
C256 N254 1.263 . S
C256 N255 1.358 . S
C256 H262 0.930 . S
C257 N255 1.400 . S
C257 C258 1.351 . S
C257 H274 0.930 . S
C258 N254 1.389 . S
C258 C257 1.351 . S
C258 H263 0.930 . S
O259 Cu253 1.974 . S
O259 C269 1.282 . S
C260 O261 1.261 . S
C260 O273 1.251 . S
O261 C260 1.261 . S
H262 C256 0.930 . S
H263 C258 0.930 . S
N264 Cu253 1.985 . S
N264 C266 1.335 . S
N264 C267 1.390 . S
N265 C266 1.345 . S
N265 C268 1.336 . S
C266 N264 1.335 . S
C266 N265 1.345 . S
C266 H271 0.930 . S
C267 N264 1.390 . S
C267 C268 1.346 . S
C267 H272 0.930 . S
C268 N265 1.336 . S
C268 C267 1.346 . S
C268 H275 0.929 . S
C269 O259 1.282 . S
C269 O270 1.216 . S
O270 C269 1.216 . S
H271 C266 0.930 . S
H272 C267 0.930 . S
O273 Cu253 1.959 . S
O273 C260 1.251 . S
H274 C257 0.930 . S
H275 C268 0.929 . S
Cu276 N277 1.999 . S
Cu276 O282 1.974 . S
Cu276 N287 1.985 . S
Cu276 O296 1.959 . S
N277 Cu276 1.999 . S
N277 C279 1.263 . S
N277 C281 1.389 . S
N278 C279 1.358 . S
N278 C280 1.400 . S
C279 N277 1.263 . S
C279 N278 1.358 . S
C279 H285 0.930 . S
C280 N278 1.400 . S
C280 C281 1.351 . S
C280 H297 0.930 . S
C281 N277 1.389 . S
C281 C280 1.351 . S
C281 H286 0.930 . S
O282 Cu276 1.974 . S
O282 C292 1.282 . S
C283 O284 1.261 . S
C283 O296 1.251 . S
O284 C283 1.261 . S
H285 C279 0.930 . S
H286 C281 0.930 . S
N287 Cu276 1.985 . S
N287 C289 1.335 . S
N287 C290 1.390 . S
N288 C289 1.345 . S
N288 C291 1.336 . S
C289 N287 1.335 . S
C289 N288 1.345 . S
C289 H294 0.930 . S
C290 N287 1.390 . S
C290 C291 1.346 . S
C290 H295 0.930 . S
C291 N288 1.336 . S
C291 C290 1.346 . S
C291 H298 0.929 . S
C292 O282 1.282 . S
C292 O293 1.216 . S
O293 C292 1.216 . S
H294 C289 0.930 . S
H295 C290 0.930 . S
O296 Cu276 1.959 . S
O296 C283 1.251 . S
H297 C280 0.930 . S
H298 C291 0.929 . S
Cu299 N300 1.999 . S
Cu299 O305 1.974 . S
Cu299 N310 1.985 . S
Cu299 O319 1.959 . S
N300 Cu299 1.999 . S
N300 C302 1.263 . S
N300 C304 1.389 . S
N301 C302 1.358 . S
N301 C303 1.400 . S
C302 N300 1.263 . S
C302 N301 1.358 . S
C302 H308 0.930 . S
C303 N301 1.400 . S
C303 C304 1.351 . S
C303 H320 0.930 . S
C304 N300 1.389 . S
C304 C303 1.351 . S
C304 H309 0.930 . S
O305 Cu299 1.974 . S
O305 C315 1.282 . S
C306 O307 1.261 . S
C306 O319 1.251 . S
O307 C306 1.261 . S
H308 C302 0.930 . S
H309 C304 0.930 . S
N310 Cu299 1.985 . S
N310 C312 1.335 . S
N310 C313 1.390 . S
N311 C312 1.345 . S
N311 C314 1.336 . S
C312 N310 1.335 . S
C312 N311 1.345 . S
C312 H317 0.930 . S
C313 N310 1.390 . S
C313 C314 1.346 . S
C313 H318 0.930 . S
C314 N311 1.336 . S
C314 C313 1.346 . S
C314 H321 0.929 . S
C315 O305 1.282 . S
C315 O316 1.216 . S
O316 C315 1.216 . S
H317 C312 0.930 . S
H318 C313 0.930 . S
O319 Cu299 1.959 . S
O319 C306 1.251 . S
H320 C303 0.930 . S
H321 C314 0.929 . S
Cu322 N323 1.999 . S
Cu322 O328 1.974 . S
Cu322 N333 1.985 . S
Cu322 O342 1.959 . S
N323 Cu322 1.999 . S
N323 C325 1.263 . S
N323 C327 1.389 . S
N324 C325 1.358 . S
N324 C326 1.400 . S
C325 N323 1.263 . S
C325 N324 1.358 . S
C325 H331 0.930 . S
C326 N324 1.400 . S
C326 C327 1.351 . S
C326 H343 0.930 . S
C327 N323 1.389 . S
C327 C326 1.351 . S
C327 H332 0.930 . S
O328 Cu322 1.974 . S
O328 C338 1.282 . S
C329 O330 1.261 . S
C329 O342 1.251 . S
O330 C329 1.261 . S
H331 C325 0.930 . S
H332 C327 0.930 . S
N333 Cu322 1.985 . S
N333 C335 1.335 . S
N333 C336 1.390 . S
N334 C335 1.345 . S
N334 C337 1.336 . S
C335 N333 1.335 . S
C335 N334 1.345 . S
C335 H340 0.930 . S
C336 N333 1.390 . S
C336 C337 1.346 . S
C336 H341 0.930 . S
C337 N334 1.336 . S
C337 C336 1.346 . S
C337 H344 0.929 . S
C338 O328 1.282 . S
C338 O339 1.216 . S
O339 C338 1.216 . S
H340 C335 0.930 . S
H341 C336 0.930 . S
O342 Cu322 1.959 . S
O342 C329 1.251 . S
H343 C326 0.930 . S
H344 C337 0.929 . S
Cu345 N346 1.999 . S
Cu345 O351 1.974 . S
Cu345 N356 1.985 . S
Cu345 O365 1.959 . S
N346 Cu345 1.999 . S
N346 C348 1.263 . S
N346 C350 1.389 . S
N347 C348 1.358 . S
N347 C349 1.400 . S
C348 N346 1.263 . S
C348 N347 1.358 . S
C348 H354 0.930 . S
C349 N347 1.400 . S
C349 C350 1.351 . S
C349 H366 0.930 . S
C350 N346 1.389 . S
C350 C349 1.351 . S
C350 H355 0.930 . S
O351 Cu345 1.974 . S
O351 C361 1.282 . S
C352 O353 1.261 . S
C352 O365 1.251 . S
O353 C352 1.261 . S
H354 C348 0.930 . S
H355 C350 0.930 . S
N356 Cu345 1.985 . S
N356 C358 1.335 . S
N356 C359 1.390 . S
N357 C358 1.345 . S
N357 C360 1.336 . S
C358 N356 1.335 . S
C358 N357 1.345 . S
C358 H363 0.930 . S
C359 N356 1.390 . S
C359 C360 1.346 . S
C359 H364 0.930 . S
C360 N357 1.336 . S
C360 C359 1.346 . S
C360 H367 0.929 . S
C361 O351 1.282 . S
C361 O362 1.216 . S
O362 C361 1.216 . S
H363 C358 0.930 . S
H364 C359 0.930 . S
O365 Cu345 1.959 . S
O365 C352 1.251 . S
H366 C349 0.930 . S
H367 C360 0.929 . S
Cu368 N369 1.999 . S
Cu368 O374 1.974 . S
Cu368 N379 1.985 . S
Cu368 O388 1.959 . S
N369 Cu368 1.999 . S
N369 C371 1.263 . S
N369 C373 1.389 . S
N370 C371 1.358 . S
N370 C372 1.400 . S
C371 N369 1.263 . S
C371 N370 1.358 . S
C371 H377 0.930 . S
C372 N370 1.400 . S
C372 C373 1.351 . S
C372 H389 0.930 . S
C373 N369 1.389 . S
C373 C372 1.351 . S
C373 H378 0.930 . S
O374 Cu368 1.974 . S
O374 C384 1.282 . S
C375 O376 1.261 . S
C375 O388 1.251 . S
O376 C375 1.261 . S
H377 C371 0.930 . S
H378 C373 0.930 . S
N379 Cu368 1.985 . S
N379 C381 1.335 . S
N379 C382 1.390 . S
N380 C381 1.345 . S
N380 C383 1.336 . S
C381 N379 1.335 . S
C381 N380 1.345 . S
C381 H386 0.930 . S
C382 N379 1.390 . S
C382 C383 1.346 . S
C382 H387 0.930 . S
C383 N380 1.336 . S
C383 C382 1.346 . S
C383 H390 0.929 . S
C384 O374 1.282 . S
C384 O385 1.216 . S
O385 C384 1.216 . S
H386 C381 0.930 . S
H387 C382 0.930 . S
O388 Cu368 1.959 . S
O388 C375 1.251 . S
H389 C372 0.930 . S
H390 C383 0.929 . S
Cu391 N392 1.999 . S
Cu391 O397 1.974 . S
Cu391 N402 1.985 . S
Cu391 O411 1.959 . S
N392 Cu391 1.999 . S
N392 C394 1.263 . S
N392 C396 1.389 . S
N393 C394 1.358 . S
N393 C395 1.400 . S
C394 N392 1.263 . S
C394 N393 1.358 . S
C394 H400 0.930 . S
C395 N393 1.400 . S
C395 C396 1.351 . S
C395 H412 0.930 . S
C396 N392 1.389 . S
C396 C395 1.351 . S
C396 H401 0.930 . S
O397 Cu391 1.974 . S
O397 C407 1.282 . S
C398 O399 1.261 . S
C398 O411 1.251 . S
O399 C398 1.261 . S
H400 C394 0.930 . S
H401 C396 0.930 . S
N402 Cu391 1.985 . S
N402 C404 1.335 . S
N402 C405 1.390 . S
N403 C404 1.345 . S
N403 C406 1.336 . S
C404 N402 1.335 . S
C404 N403 1.345 . S
C404 H409 0.930 . S
C405 N402 1.390 . S
C405 C406 1.346 . S
C405 H410 0.930 . S
C406 N403 1.336 . S
C406 C405 1.346 . S
C406 H413 0.929 . S
C407 O397 1.282 . S
C407 O408 1.216 . S
O408 C407 1.216 . S
H409 C404 0.930 . S
H410 C405 0.930 . S
O411 Cu391 1.959 . S
O411 C398 1.251 . S
H412 C395 0.930 . S
H413 C406 0.929 . S
Cu414 N415 1.999 . S
Cu414 O420 1.974 . S
Cu414 N425 1.985 . S
Cu414 O434 1.959 . S
N415 Cu414 1.999 . S
N415 C417 1.263 . S
N415 C419 1.389 . S
N416 C417 1.358 . S
N416 C418 1.400 . S
C417 N415 1.263 . S
C417 N416 1.358 . S
C417 H423 0.930 . S
C418 N416 1.400 . S
C418 C419 1.351 . S
C418 H435 0.930 . S
C419 N415 1.389 . S
C419 C418 1.351 . S
C419 H424 0.930 . S
O420 Cu414 1.974 . S
O420 C430 1.282 . S
C421 O422 1.261 . S
C421 O434 1.251 . S
O422 C421 1.261 . S
H423 C417 0.930 . S
H424 C419 0.930 . S
N425 Cu414 1.985 . S
N425 C427 1.335 . S
N425 C428 1.390 . S
N426 C427 1.345 . S
N426 C429 1.336 . S
C427 N425 1.335 . S
C427 N426 1.345 . S
C427 H432 0.930 . S
C428 N425 1.390 . S
C428 C429 1.346 . S
C428 H433 0.930 . S
C429 N426 1.336 . S
C429 C428 1.346 . S
C429 H436 0.929 . S
C430 O420 1.282 . S
C430 O431 1.216 . S
O431 C430 1.216 . S
H432 C427 0.930 . S
H433 C428 0.930 . S
O434 Cu414 1.959 . S
O434 C421 1.251 . S
H435 C418 0.930 . S
H436 C429 0.929 . S
Cu437 N438 1.999 . S
Cu437 O443 1.974 . S
Cu437 N448 1.985 . S
Cu437 O457 1.959 . S
N438 Cu437 1.999 . S
N438 C440 1.263 . S
N438 C442 1.389 . S
N439 C440 1.358 . S
N439 C441 1.400 . S
C440 N438 1.263 . S
C440 N439 1.358 . S
C440 H446 0.930 . S
C441 N439 1.400 . S
C441 C442 1.351 . S
C441 H458 0.930 . S
C442 N438 1.389 . S
C442 C441 1.351 . S
C442 H447 0.930 . S
O443 Cu437 1.974 . S
O443 C453 1.282 . S
C444 O445 1.261 . S
C444 O457 1.251 . S
O445 C444 1.261 . S
H446 C440 0.930 . S
H447 C442 0.930 . S
N448 Cu437 1.985 . S
N448 C450 1.335 . S
N448 C451 1.390 . S
N449 C450 1.345 . S
N449 C452 1.336 . S
C450 N448 1.335 . S
C450 N449 1.345 . S
C450 H455 0.930 . S
C451 N448 1.390 . S
C451 C452 1.346 . S
C451 H456 0.930 . S
C452 N449 1.336 . S
C452 C451 1.346 . S
C452 H459 0.929 . S
C453 O443 1.282 . S
C453 O454 1.216 . S
O454 C453 1.216 . S
H455 C450 0.930 . S
H456 C451 0.930 . S
O457 Cu437 1.959 . S
O457 C444 1.251 . S
H458 C441 0.930 . S
H459 C452 0.929 . S
Cu460 N461 1.999 . S
Cu460 O466 1.974 . S
Cu460 N471 1.985 . S
Cu460 O480 1.959 . S
N461 Cu460 1.999 . S
N461 C463 1.263 . S
N461 C465 1.389 . S
N462 C463 1.358 . S
N462 C464 1.400 . S
C463 N461 1.263 . S
C463 N462 1.358 . S
C463 H469 0.930 . S
C464 N462 1.400 . S
C464 C465 1.351 . S
C464 H481 0.930 . S
C465 N461 1.389 . S
C465 C464 1.351 . S
C465 H470 0.930 . S
O466 Cu460 1.974 . S
O466 C476 1.282 . S
C467 O468 1.261 . S
C467 O480 1.251 . S
O468 C467 1.261 . S
H469 C463 0.930 . S
H470 C465 0.930 . S
N471 Cu460 1.985 . S
N471 C473 1.335 . S
N471 C474 1.390 . S
N472 C473 1.345 . S
N472 C475 1.336 . S
C473 N471 1.335 . S
C473 N472 1.345 . S
C473 H478 0.930 . S
C474 N471 1.390 . S
C474 C475 1.346 . S
C474 H479 0.930 . S
C475 N472 1.336 . S
C475 C474 1.346 . S
C475 H482 0.929 . S
C476 O466 1.282 . S
C476 O477 1.216 . S
O477 C476 1.216 . S
H478 C473 0.930 . S
H479 C474 0.930 . S
O480 Cu460 1.959 . S
O480 C467 1.251 . S
H481 C464 0.930 . S
H482 C475 0.929 . S
Cu483 N484 1.999 . S
Cu483 O489 1.974 . S
Cu483 N494 1.985 . S
Cu483 O503 1.959 . S
N484 Cu483 1.999 . S
N484 C486 1.263 . S
N484 C488 1.389 . S
N485 C486 1.358 . S
N485 C487 1.400 . S
C486 N484 1.263 . S
C486 N485 1.358 . S
C486 H492 0.930 . S
C487 N485 1.400 . S
C487 C488 1.351 . S
C487 H504 0.930 . S
C488 N484 1.389 . S
C488 C487 1.351 . S
C488 H493 0.930 . S
O489 Cu483 1.974 . S
O489 C499 1.282 . S
C490 O491 1.261 . S
C490 O503 1.251 . S
O491 C490 1.261 . S
H492 C486 0.930 . S
H493 C488 0.930 . S
N494 Cu483 1.985 . S
N494 C496 1.335 . S
N494 C497 1.390 . S
N495 C496 1.345 . S
N495 C498 1.336 . S
C496 N494 1.335 . S
C496 N495 1.345 . S
C496 H501 0.930 . S
C497 N494 1.390 . S
C497 C498 1.346 . S
C497 H502 0.930 . S
C498 N495 1.336 . S
C498 C497 1.346 . S
C498 H505 0.929 . S
C499 O489 1.282 . S
C499 O500 1.216 . S
O500 C499 1.216 . S
H501 C496 0.930 . S
H502 C497 0.930 . S
O503 Cu483 1.959 . S
O503 C490 1.251 . S
H504 C487 0.930 . S
H505 C498 0.929 . S
Cu506 N507 1.999 . S
Cu506 O512 1.974 . S
Cu506 N517 1.985 . S
Cu506 O526 1.959 . S
N507 Cu506 1.999 . S
N507 C509 1.263 . S
N507 C511 1.389 . S
N508 C509 1.358 . S
N508 C510 1.400 . S
C509 N507 1.263 . S
C509 N508 1.358 . S
C509 H515 0.930 . S
C510 N508 1.400 . S
C510 C511 1.351 . S
C510 H527 0.930 . S
C511 N507 1.389 . S
C511 C510 1.351 . S
C511 H516 0.930 . S
O512 Cu506 1.974 . S
O512 C522 1.282 . S
C513 O514 1.261 . S
C513 O526 1.251 . S
O514 C513 1.261 . S
H515 C509 0.930 . S
H516 C511 0.930 . S
N517 Cu506 1.985 . S
N517 C519 1.335 . S
N517 C520 1.390 . S
N518 C519 1.345 . S
N518 C521 1.336 . S
C519 N517 1.335 . S
C519 N518 1.345 . S
C519 H524 0.930 . S
C520 N517 1.390 . S
C520 C521 1.346 . S
C520 H525 0.930 . S
C521 N518 1.336 . S
C521 C520 1.346 . S
C521 H528 0.929 . S
C522 O512 1.282 . S
C522 O523 1.216 . S
O523 C522 1.216 . S
H524 C519 0.930 . S
H525 C520 0.930 . S
O526 Cu506 1.959 . S
O526 C513 1.251 . S
H527 C510 0.930 . S
H528 C521 0.929 . S
Cu529 N530 1.999 . S
Cu529 O535 1.974 . S
Cu529 N540 1.985 . S
Cu529 O549 1.959 . S
N530 Cu529 1.999 . S
N530 C532 1.263 . S
N530 C534 1.389 . S
N531 C532 1.358 . S
N531 C533 1.400 . S
C532 N530 1.263 . S
C532 N531 1.358 . S
C532 H538 0.930 . S
C533 N531 1.400 . S
C533 C534 1.351 . S
C533 H550 0.930 . S
C534 N530 1.389 . S
C534 C533 1.351 . S
C534 H539 0.930 . S
O535 Cu529 1.974 . S
O535 C545 1.282 . S
C536 O537 1.261 . S
C536 O549 1.251 . S
O537 C536 1.261 . S
H538 C532 0.930 . S
H539 C534 0.930 . S
N540 Cu529 1.985 . S
N540 C542 1.335 . S
N540 C543 1.390 . S
N541 C542 1.345 . S
N541 C544 1.336 . S
C542 N540 1.335 . S
C542 N541 1.345 . S
C542 H547 0.930 . S
C543 N540 1.390 . S
C543 C544 1.346 . S
C543 H548 0.930 . S
C544 N541 1.336 . S
C544 C543 1.346 . S
C544 H551 0.929 . S
C545 O535 1.282 . S
C545 O546 1.216 . S
O546 C545 1.216 . S
H547 C542 0.930 . S
H548 C543 0.930 . S
O549 Cu529 1.959 . S
O549 C536 1.251 . S
H550 C533 0.930 . S
H551 C544 0.929 . S
H552 C560 0.950 . S
H553 C565 0.950 . S
H554 C562 0.950 . S
H555 C564 0.950 . S
H556 C566 0.950 . S
H557 C568 0.950 . S
H558 C570 0.950 . S
H559 C571 0.950 . S
C560 H552 0.950 . S
C560 C561 1.386 . S
C560 C562 1.391 . S
C561 C560 1.386 . S
C561 C565 1.393 . S
C562 H554 0.950 . S
C562 C560 1.391 . S
C562 C563 1.400 . S
C563 C562 1.400 . S
C563 C564 1.398 . S
C563 C569 1.491 . S
C564 H555 0.950 . S
C564 C563 1.398 . S
C564 C565 1.391 . S
C565 H553 0.950 . S
C565 C561 1.393 . S
C565 C564 1.391 . S
C566 H556 0.950 . S
C566 C567 1.386 . S
C566 C568 1.391 . S
C567 C566 1.386 . S
C567 C571 1.393 . S
C568 H557 0.950 . S
C568 C566 1.391 . S
C568 C569 1.400 . S
C569 C563 1.491 . S
C569 C568 1.400 . S
C569 C570 1.398 . S
C570 H558 0.950 . S
C570 C569 1.398 . S
C570 C571 1.391 . S
C571 H559 0.950 . S
C571 C567 1.393 . S
C571 C570 1.391 . S
H572 C580 0.950 . S
H573 C585 0.950 . S
H574 C582 0.950 . S
H575 C584 0.950 . S
H576 C586 0.950 . S
H577 C588 0.950 . S
H578 C590 0.950 . S
H579 C591 0.950 . S
C580 H572 0.950 . S
C580 C581 1.386 . S
C580 C582 1.391 . S
C581 C580 1.386 . S
C581 C585 1.393 . S
C582 H574 0.950 . S
C582 C580 1.391 . S
C582 C583 1.400 . S
C583 C582 1.400 . S
C583 C584 1.398 . S
C583 C589 1.491 . S
C584 H575 0.950 . S
C584 C583 1.398 . S
C584 C585 1.391 . S
C585 H573 0.950 . S
C585 C581 1.393 . S
C585 C584 1.391 . S
C586 H576 0.950 . S
C586 C587 1.386 . S
C586 C588 1.391 . S
C587 C586 1.386 . S
C587 C591 1.393 . S
C588 H577 0.950 . S
C588 C586 1.391 . S
C588 C589 1.400 . S
C589 C583 1.491 . S
C589 C588 1.400 . S
C589 C590 1.398 . S
C590 H578 0.950 . S
C590 C589 1.398 . S
C590 C591 1.391 . S
C591 H579 0.950 . S
C591 C587 1.393 . S
C591 C590 1.391 . S
H592 C600 0.950 . S
H593 C605 0.950 . S
H594 C602 0.950 . S
H595 C604 0.950 . S
H596 C606 0.950 . S
H597 C608 0.950 . S
H598 C610 0.950 . S
H599 C611 0.950 . S
C600 H592 0.950 . S
C600 C601 1.386 . S
C600 C602 1.391 . S
C601 C600 1.386 . S
C601 C605 1.393 . S
C602 H594 0.950 . S
C602 C600 1.391 . S
C602 C603 1.400 . S
C603 C602 1.400 . S
C603 C604 1.398 . S
C603 C609 1.491 . S
C604 H595 0.950 . S
C604 C603 1.398 . S
C604 C605 1.391 . S
C605 H593 0.950 . S
C605 C601 1.393 . S
C605 C604 1.391 . S
C606 H596 0.950 . S
C606 C607 1.386 . S
C606 C608 1.391 . S
C607 C606 1.386 . S
C607 C611 1.393 . S
C608 H597 0.950 . S
C608 C606 1.391 . S
C608 C609 1.400 . S
C609 C603 1.491 . S
C609 C608 1.400 . S
C609 C610 1.398 . S
C610 H598 0.950 . S
C610 C609 1.398 . S
C610 C611 1.391 . S
C611 H599 0.950 . S
C611 C607 1.393 . S
C611 C610 1.391 . S
H612 C620 0.950 . S
H613 C625 0.950 . S
H614 C622 0.950 . S
H615 C624 0.950 . S
H616 C626 0.950 . S
H617 C628 0.950 . S
H618 C630 0.950 . S
H619 C631 0.950 . S
C620 H612 0.950 . S
C620 C621 1.386 . S
C620 C622 1.391 . S
C621 C620 1.386 . S
C621 C625 1.393 . S
C622 H614 0.950 . S
C622 C620 1.391 . S
C622 C623 1.400 . S
C623 C622 1.400 . S
C623 C624 1.398 . S
C623 C629 1.491 . S
C624 H615 0.950 . S
C624 C623 1.398 . S
C624 C625 1.391 . S
C625 H613 0.950 . S
C625 C621 1.393 . S
C625 C624 1.391 . S
C626 H616 0.950 . S
C626 C627 1.386 . S
C626 C628 1.391 . S
C627 C626 1.386 . S
C627 C631 1.393 . S
C628 H617 0.950 . S
C628 C626 1.391 . S
C628 C629 1.400 . S
C629 C623 1.491 . S
C629 C628 1.400 . S
C629 C630 1.398 . S
C630 H618 0.950 . S
C630 C629 1.398 . S
C630 C631 1.391 . S
C631 H619 0.950 . S
C631 C627 1.393 . S
C631 C630 1.391 . S
H632 C640 0.950 . S
H633 C645 0.950 . S
H634 C642 0.950 . S
H635 C644 0.950 . S
H636 C646 0.950 . S
H637 C648 0.950 . S
H638 C650 0.950 . S
H639 C651 0.950 . S
C640 H632 0.950 . S
C640 C641 1.386 . S
C640 C642 1.391 . S
C641 C640 1.386 . S
C641 C645 1.393 . S
C642 H634 0.950 . S
C642 C640 1.391 . S
C642 C643 1.400 . S
C643 C642 1.400 . S
C643 C644 1.398 . S
C643 C649 1.491 . S
C644 H635 0.950 . S
C644 C643 1.398 . S
C644 C645 1.391 . S
C645 H633 0.950 . S
C645 C641 1.393 . S
C645 C644 1.391 . S
C646 H636 0.950 . S
C646 C647 1.386 . S
C646 C648 1.391 . S
C647 C646 1.386 . S
C647 C651 1.393 . S
C648 H637 0.950 . S
C648 C646 1.391 . S
C648 C649 1.400 . S
C649 C643 1.491 . S
C649 C648 1.400 . S
C649 C650 1.398 . S
C650 H638 0.950 . S
C650 C649 1.398 . S
C650 C651 1.391 . S
C651 H639 0.950 . S
C651 C647 1.393 . S
C651 C650 1.391 . S
H652 C660 0.950 . S
H653 C665 0.950 . S
H654 C662 0.950 . S
H655 C664 0.950 . S
H656 C666 0.950 . S
H657 C668 0.950 . S
H658 C670 0.950 . S
H659 C671 0.950 . S
C660 H652 0.950 . S
C660 C661 1.386 . S
C660 C662 1.391 . S
C661 C660 1.386 . S
C661 C665 1.393 . S
C662 H654 0.950 . S
C662 C660 1.391 . S
C662 C663 1.400 . S
C663 C662 1.400 . S
C663 C664 1.398 . S
C663 C669 1.491 . S
C664 H655 0.950 . S
C664 C663 1.398 . S
C664 C665 1.391 . S
C665 H653 0.950 . S
C665 C661 1.393 . S
C665 C664 1.391 . S
C666 H656 0.950 . S
C666 C667 1.386 . S
C666 C668 1.391 . S
C667 C666 1.386 . S
C667 C671 1.393 . S
C668 H657 0.950 . S
C668 C666 1.391 . S
C668 C669 1.400 . S
C669 C663 1.491 . S
C669 C668 1.400 . S
C669 C670 1.398 . S
C670 H658 0.950 . S
C670 C669 1.398 . S
C670 C671 1.391 . S
C671 H659 0.950 . S
C671 C667 1.393 . S
C671 C670 1.391 . S
H672 C680 0.950 . S
H673 C685 0.950 . S
H674 C682 0.950 . S
H675 C684 0.950 . S
H676 C686 0.950 . S
H677 C688 0.950 . S
H678 C690 0.950 . S
H679 C691 0.950 . S
C680 H672 0.950 . S
C680 C681 1.386 . S
C680 C682 1.391 . S
C681 C680 1.386 . S
C681 C685 1.393 . S
C682 H674 0.950 . S
C682 C680 1.391 . S
C682 C683 1.400 . S
C683 C682 1.400 . S
C683 C684 1.398 . S
C683 C689 1.491 . S
C684 H675 0.950 . S
C684 C683 1.398 . S
C684 C685 1.391 . S
C685 H673 0.950 . S
C685 C681 1.393 . S
C685 C684 1.391 . S
C686 H676 0.950 . S
C686 C687 1.386 . S
C686 C688 1.391 . S
C687 C686 1.386 . S
C687 C691 1.393 . S
C688 H677 0.950 . S
C688 C686 1.391 . S
C688 C689 1.400 . S
C689 C683 1.491 . S
C689 C688 1.400 . S
C689 C690 1.398 . S
C690 H678 0.950 . S
C690 C689 1.398 . S
C690 C691 1.391 . S
C691 H679 0.950 . S
C691 C687 1.393 . S
C691 C690 1.391 . S
H692 C700 0.950 . S
H693 C705 0.950 . S
H694 C702 0.950 . S
H695 C704 0.950 . S
H696 C706 0.950 . S
H697 C708 0.950 . S
H698 C710 0.950 . S
H699 C711 0.950 . S
C700 H692 0.950 . S
C700 C701 1.386 . S
C700 C702 1.391 . S
C701 C700 1.386 . S
C701 C705 1.393 . S
C702 H694 0.950 . S
C702 C700 1.391 . S
C702 C703 1.400 . S
C703 C702 1.400 . S
C703 C704 1.398 . S
C703 C709 1.491 . S
C704 H695 0.950 . S
C704 C703 1.398 . S
C704 C705 1.391 . S
C705 H693 0.950 . S
C705 C701 1.393 . S
C705 C704 1.391 . S
C706 H696 0.950 . S
C706 C707 1.386 . S
C706 C708 1.391 . S
C707 C706 1.386 . S
C707 C711 1.393 . S
C708 H697 0.950 . S
C708 C706 1.391 . S
C708 C709 1.400 . S
C709 C703 1.491 . S
C709 C708 1.400 . S
C709 C710 1.398 . S
C710 H698 0.950 . S
C710 C709 1.398 . S
C710 C711 1.391 . S
C711 H699 0.950 . S
C711 C707 1.393 . S
C711 C710 1.391 . S
H712 C720 0.950 . S
H713 C725 0.950 . S
H714 C722 0.950 . S
H715 C724 0.950 . S
H716 C726 0.950 . S
H717 C728 0.950 . S
H718 C730 0.950 . S
H719 C731 0.950 . S
C720 H712 0.950 . S
C720 C721 1.386 . S
C720 C722 1.391 . S
C721 C720 1.386 . S
C721 C725 1.393 . S
C722 H714 0.950 . S
C722 C720 1.391 . S
C722 C723 1.400 . S
C723 C722 1.400 . S
C723 C724 1.398 . S
C723 C729 1.491 . S
C724 H715 0.950 . S
C724 C723 1.398 . S
C724 C725 1.391 . S
C725 H713 0.950 . S
C725 C721 1.393 . S
C725 C724 1.391 . S
C726 H716 0.950 . S
C726 C727 1.386 . S
C726 C728 1.391 . S
C727 C726 1.386 . S
C727 C731 1.393 . S
C728 H717 0.950 . S
C728 C726 1.391 . S
C728 C729 1.400 . S
C729 C723 1.491 . S
C729 C728 1.400 . S
C729 C730 1.398 . S
C730 H718 0.950 . S
C730 C729 1.398 . S
C730 C731 1.391 . S
C731 H719 0.950 . S
C731 C727 1.393 . S
C731 C730 1.391 . S
H732 C740 0.950 . S
H733 C745 0.950 . S
H734 C742 0.950 . S
H735 C744 0.950 . S
H736 C746 0.950 . S
H737 C748 0.950 . S
H738 C750 0.950 . S
H739 C751 0.950 . S
C740 H732 0.950 . S
C740 C741 1.386 . S
C740 C742 1.391 . S
C741 C740 1.386 . S
C741 C745 1.393 . S
C742 H734 0.950 . S
C742 C740 1.391 . S
C742 C743 1.400 . S
C743 C742 1.400 . S
C743 C744 1.398 . S
C743 C749 1.491 . S
C744 H735 0.950 . S
C744 C743 1.398 . S
C744 C745 1.391 . S
C745 H733 0.950 . S
C745 C741 1.393 . S
C745 C744 1.391 . S
C746 H736 0.950 . S
C746 C747 1.386 . S
C746 C748 1.391 . S
C747 C746 1.386 . S
C747 C751 1.393 . S
C748 H737 0.950 . S
C748 C746 1.391 . S
C748 C749 1.400 . S
C749 C743 1.491 . S
C749 C748 1.400 . S
C749 C750 1.398 . S
C750 H738 0.950 . S
C750 C749 1.398 . S
C750 C751 1.391 . S
C751 H739 0.950 . S
C751 C747 1.393 . S
C751 C750 1.391 . S
H752 C760 0.950 . S
H753 C765 0.950 . S
H754 C762 0.950 . S
H755 C764 0.950 . S
H756 C766 0.950 . S
H757 C768 0.950 . S
H758 C770 0.950 . S
H759 C771 0.950 . S
C760 H752 0.950 . S
C760 C761 1.386 . S
C760 C762 1.391 . S
C761 C760 1.386 . S
C761 C765 1.393 . S
C762 H754 0.950 . S
C762 C760 1.391 . S
C762 C763 1.400 . S
C763 C762 1.400 . S
C763 C764 1.398 . S
C763 C769 1.491 . S
C764 H755 0.950 . S
C764 C763 1.398 . S
C764 C765 1.391 . S
C765 H753 0.950 . S
C765 C761 1.393 . S
C765 C764 1.391 . S
C766 H756 0.950 . S
C766 C767 1.386 . S
C766 C768 1.391 . S
C767 C766 1.386 . S
C767 C771 1.393 . S
C768 H757 0.950 . S
C768 C766 1.391 . S
C768 C769 1.400 . S
C769 C763 1.491 . S
C769 C768 1.400 . S
C769 C770 1.398 . S
C770 H758 0.950 . S
C770 C769 1.398 . S
C770 C771 1.391 . S
C771 H759 0.950 . S
C771 C767 1.393 . S
C771 C770 1.391 . S
H772 C780 0.950 . S
H773 C785 0.950 . S
H774 C782 0.950 . S
H775 C784 0.950 . S
H776 C786 0.950 . S
H777 C788 0.950 . S
H778 C790 0.950 . S
H779 C791 0.950 . S
C780 H772 0.950 . S
C780 C781 1.386 . S
C780 C782 1.391 . S
C781 C780 1.386 . S
C781 C785 1.393 . S
C782 H774 0.950 . S
C782 C780 1.391 . S
C782 C783 1.400 . S
C783 C782 1.400 . S
C783 C784 1.398 . S
C783 C789 1.491 . S
C784 H775 0.950 . S
C784 C783 1.398 . S
C784 C785 1.391 . S
C785 H773 0.950 . S
C785 C781 1.393 . S
C785 C784 1.391 . S
C786 H776 0.950 . S
C786 C787 1.386 . S
C786 C788 1.391 . S
C787 C786 1.386 . S
C787 C791 1.393 . S
C788 H777 0.950 . S
C788 C786 1.391 . S
C788 C789 1.400 . S
C789 C783 1.491 . S
C789 C788 1.400 . S
C789 C790 1.398 . S
C790 H778 0.950 . S
C790 C789 1.398 . S
C790 C791 1.391 . S
C791 H779 0.950 . S
C791 C787 1.393 . S
C791 C790 1.391 . S
H792 C800 0.950 1_565 S
H793 C805 0.955 . S
H794 C802 0.950 . S
H795 C804 0.950 . S
H796 C806 0.950 . S
H797 C808 0.950 . S
H798 C810 0.950 . S
H799 C811 0.950 . S
C800 H792 0.950 1_545 S
C800 C801 1.386 1_545 S
C800 C802 1.391 . S
C801 C800 1.386 1_565 S
C801 C805 1.397 . S
C802 H794 0.950 . S
C802 C800 1.391 . S
C802 C803 1.400 . S
C803 C802 1.400 . S
C803 C804 1.398 . S
C803 C809 1.491 . S
C804 H795 0.950 . S
C804 C803 1.398 . S
C804 C805 1.382 1_545 S
C805 H793 0.955 . S
C805 C801 1.397 . S
C805 C804 1.382 1_565 S
C806 H796 0.950 . S
C806 C807 1.386 . S
C806 C808 1.391 . S
C807 C806 1.386 . S
C807 C811 1.393 . S
C808 H797 0.950 . S
C808 C806 1.391 . S
C808 C809 1.400 . S
C809 C803 1.491 . S
C809 C808 1.400 . S
C809 C810 1.398 . S
C810 H798 0.950 . S
C810 C809 1.398 . S
C810 C811 1.391 . S
C811 H799 0.950 . S
C811 C807 1.393 . S
C811 C810 1.391 . S
H812 C820 0.950 . S
H813 C825 0.950 . S
H814 C822 0.950 . S
H815 C824 0.950 . S
H816 C826 0.950 . S
H817 C828 0.950 . S
H818 C830 0.950 . S
H819 C831 0.950 . S
C820 H812 0.950 . S
C820 C821 1.386 . S
C820 C822 1.391 1_655 S
C821 C820 1.386 . S
C821 C825 1.393 . S
C822 H814 0.950 . S
C822 C820 1.391 1_455 S
C822 C823 1.400 . S
C823 C822 1.400 . S
C823 C824 1.398 . S
C823 C829 1.491 . S
C824 H815 0.950 . S
C824 C823 1.398 . S
C824 C825 1.391 1_455 S
C825 H813 0.950 . S
C825 C821 1.393 . S
C825 C824 1.391 1_655 S
C826 H816 0.950 . S
C826 C827 1.386 . S
C826 C828 1.391 . S
C827 C826 1.386 . S
C827 C831 1.393 . S
C828 H817 0.950 . S
C828 C826 1.391 . S
C828 C829 1.400 . S
C829 C823 1.491 . S
C829 C828 1.400 . S
C829 C830 1.398 . S
C830 H818 0.950 . S
C830 C829 1.398 . S
C830 C831 1.391 . S
C831 H819 0.950 . S
C831 C827 1.393 . S
C831 C830 1.391 . S
H832 C840 0.950 . S
H833 C845 0.950 . S
H834 C842 0.950 . S
H835 C844 0.950 . S
H836 C846 0.950 . S
H837 C848 0.950 . S
H838 C850 0.950 . S
H839 C851 0.950 . S
C840 H832 0.950 . S
C840 C841 1.386 . S
C840 C842 1.391 1_545 S
C841 C840 1.386 . S
C841 C845 1.393 . S
C842 H834 0.950 . S
C842 C840 1.391 1_565 S
C842 C843 1.400 . S
C843 C842 1.400 . S
C843 C844 1.398 1_565 S
C843 C849 1.491 . S
C844 H835 0.950 . S
C844 C843 1.398 1_545 S
C844 C845 1.391 . S
C845 H833 0.950 . S
C845 C841 1.393 . S
C845 C844 1.391 . S
C846 H836 0.950 . S
C846 C847 1.386 . S
C846 C848 1.391 . S
C847 C846 1.386 . S
C847 C851 1.393 . S
C848 H837 0.950 . S
C848 C846 1.391 . S
C848 C849 1.400 . S
C849 C843 1.491 . S
C849 C848 1.400 . S
C849 C850 1.398 . S
C850 H838 0.950 . S
C850 C849 1.398 . S
C850 C851 1.391 . S
C851 H839 0.950 . S
C851 C847 1.393 . S
C851 C850 1.391 . S
H852 C860 0.950 . S
H853 C865 0.950 . S
H854 C862 0.950 . S
H855 C864 0.950 . S
H856 C866 0.950 . S
H857 C868 0.950 . S
H858 C870 0.950 . S
H859 C871 0.950 . S
C860 H852 0.950 . S
C860 C861 1.386 . S
C860 C862 1.391 1_455 S
C861 C860 1.386 . S
C861 C865 1.393 . S
C862 H854 0.950 . S
C862 C860 1.391 1_655 S
C862 C863 1.400 . S
C863 C862 1.400 . S
C863 C864 1.398 . S
C863 C869 1.491 . S
C864 H855 0.950 . S
C864 C863 1.398 . S
C864 C865 1.391 1_655 S
C865 H853 0.950 . S
C865 C861 1.393 . S
C865 C864 1.391 1_455 S
C866 H856 0.950 . S
C866 C867 1.386 . S
C866 C868 1.391 . S
C867 C866 1.386 . S
C867 C871 1.393 . S
C868 H857 0.950 . S
C868 C866 1.391 . S
C868 C869 1.400 . S
C869 C863 1.491 . S
C869 C868 1.400 . S
C869 C870 1.398 . S
C870 H858 0.950 . S
C870 C869 1.398 . S
C870 C871 1.391 . S
C871 H859 0.950 . S
C871 C867 1.393 . S
C871 C870 1.391 . S
H872 C880 0.950 . S
H873 C885 0.950 . S
H874 C882 0.950 . S
H875 C884 0.950 . S
H876 C886 0.950 . S
H877 C888 0.950 . S
H878 C890 0.950 . S
H879 C891 0.950 . S
C880 H872 0.950 . S
C880 C881 1.386 . S
C880 C882 1.391 . S
C881 C880 1.386 . S
C881 C885 1.393 . S
C882 H874 0.950 . S
C882 C880 1.391 . S
C882 C883 1.400 . S
C883 C882 1.400 . S
C883 C884 1.398 . S
C883 C889 1.491 . S
C884 H875 0.950 . S
C884 C883 1.398 . S
C884 C885 1.391 . S
C885 H873 0.950 . S
C885 C881 1.393 . S
C885 C884 1.391 . S
C886 H876 0.950 . S
C886 C887 1.386 . S
C886 C888 1.391 1_545 S
C887 C886 1.386 . S
C887 C891 1.393 . S
C888 H877 0.950 . S
C888 C886 1.391 1_565 S
C888 C889 1.400 . S
C889 C883 1.491 . S
C889 C888 1.400 . S
C889 C890 1.398 1_565 S
C890 H878 0.950 . S
C890 C889 1.398 1_545 S
C890 C891 1.391 . S
C891 H879 0.950 . S
C891 C887 1.393 . S
C891 C890 1.391 . S
H892 C900 0.950 . S
H893 C905 0.950 . S
H894 C902 0.950 . S
H895 C904 0.950 1_455 S
H896 C906 0.950 . S
H897 C908 0.950 . S
H898 C910 0.950 . S
H899 C911 0.950 . S
C900 H892 0.950 . S
C900 C901 1.386 . S
C900 C902 1.391 . S
C901 C900 1.386 . S
C901 C905 1.393 . S
C902 H894 0.950 . S
C902 C900 1.391 . S
C902 C903 1.400 . S
C903 C902 1.400 . S
C903 C904 1.398 . S
C903 C909 1.491 . S
C904 H895 0.950 1_655 S
C904 C903 1.398 . S
C904 C905 1.391 . S
C905 H893 0.950 . S
C905 C901 1.393 . S
C905 C904 1.391 . S
C906 H896 0.950 . S
C906 C907 1.386 . S
C906 C908 1.391 . S
C907 C906 1.386 . S
C907 C911 1.393 1_455 S
C908 H897 0.950 . S
C908 C906 1.391 . S
C908 C909 1.400 1_455 S
C909 C903 1.491 . S
C909 C908 1.400 1_655 S
C909 C910 1.398 . S
C910 H898 0.950 . S
C910 C909 1.398 . S
C910 C911 1.391 . S
C911 H899 0.950 . S
C911 C907 1.393 1_655 S
C911 C910 1.391 . S
H912 C920 0.950 . S
H913 C925 0.950 . S
H914 C922 0.950 . S
H915 C924 0.934 1_545 S
H916 C926 0.950 . S
H917 C928 0.950 . S
H918 C930 0.950 1_565 S
H919 C931 0.950 . S
C920 H912 0.950 . S
C920 C921 1.386 . S
C920 C922 1.391 . S
C921 C920 1.386 . S
C921 C925 1.393 . S
C922 H914 0.950 . S
C922 C920 1.391 . S
C922 C923 1.400 . S
C923 C922 1.400 . S
C923 C924 1.403 . S
C923 C929 1.491 1_565 S
C924 H915 0.934 1_565 S
C924 C923 1.403 . S
C924 C925 1.401 . S
C925 H913 0.950 . S
C925 C921 1.393 . S
C925 C924 1.401 . S
C926 H916 0.950 . S
C926 C927 1.386 . S
C926 C928 1.391 . S
C927 C926 1.386 . S
C927 C931 1.393 . S
C928 H917 0.950 . S
C928 C926 1.391 . S
C928 C929 1.400 . S
C929 C923 1.491 1_545 S
C929 C928 1.400 . S
C929 C930 1.398 . S
C930 H918 0.950 1_545 S
C930 C929 1.398 . S
C930 C931 1.391 . S
C931 H919 0.950 . S
C931 C927 1.393 . S
C931 C930 1.391 . S
H932 C940 0.950 . S
H933 C945 0.950 . S
H934 C942 0.950 . S
H935 C944 0.950 . S
H936 C946 0.949 . S
H937 C948 0.950 . S
H938 C950 0.950 . S
H939 C951 0.950 . S
C940 H932 0.950 . S
C940 C941 1.386 . S
C940 C942 1.391 . S
C941 C940 1.386 . S
C941 C945 1.393 . S
C942 H934 0.950 . S
C942 C940 1.391 . S
C942 C943 1.400 . S
C943 C942 1.400 . S
C943 C944 1.398 . S
C943 C949 1.491 . S
C944 H935 0.950 . S
C944 C943 1.398 . S
C944 C945 1.391 . S
C945 H933 0.950 . S
C945 C941 1.393 . S
C945 C944 1.391 . S
C946 H936 0.949 . S
C946 C947 1.387 1_455 S
C946 C948 1.390 . S
C947 C946 1.387 1_655 S
C947 C951 1.393 . S
C948 H937 0.950 . S
C948 C946 1.390 . S
C948 C949 1.400 . S
C949 C943 1.491 . S
C949 C948 1.400 . S
C949 C950 1.398 1_455 S
C950 H938 0.950 . S
C950 C949 1.398 1_655 S
C950 C951 1.391 . S
C951 H939 0.950 . S
C951 C947 1.393 . S
C951 C950 1.391 . S
H952 C960 0.950 . S
H953 C965 0.950 . S
H954 C962 0.950 . S
H955 C964 0.950 . S
H956 C966 0.950 . S
H957 C968 0.950 . S
H958 C970 0.950 . S
H959 C971 0.950 . S
C960 H952 0.950 . S
C960 C961 1.386 . S
C960 C962 1.391 1_556 S
C961 C960 1.386 . S
C961 C965 1.393 . S
C962 H954 0.950 . S
C962 C960 1.391 1_554 S
C962 C963 1.400 . S
C963 C962 1.400 . S
C963 C964 1.398 1_554 S
C963 C969 1.491 . S
C964 H955 0.950 . S
C964 C963 1.398 1_556 S
C964 C965 1.391 . S
C965 H953 0.950 . S
C965 C961 1.393 . S
C965 C964 1.391 . S
C966 H956 0.950 . S
C966 C967 1.386 . S
C966 C968 1.391 . S
C967 C966 1.386 . S
C967 C971 1.393 . S
C968 H957 0.950 . S
C968 C966 1.391 . S
C968 C969 1.400 . S
C969 C963 1.491 . S
C969 C968 1.400 . S
C969 C970 1.398 . S
C970 H958 0.950 . S
C970 C969 1.398 . S
C970 C971 1.391 . S
C971 H959 0.950 . S
C971 C967 1.393 . S
C971 C970 1.391 . S
H972 C980 0.950 . S
H973 C985 0.950 . S
H974 C982 0.953 . S
H975 C984 0.950 . S
H976 C986 0.950 . S
H977 C988 0.950 . S
H978 C990 0.950 . S
H979 C991 0.950 . S
C980 H972 0.950 . S
C980 C981 1.386 . S
C980 C982 1.408 . S
C981 C980 1.386 . S
C981 C985 1.393 1_554 S
C982 H974 0.953 . S
C982 C980 1.408 . S
C982 C983 1.381 1_554 S
C983 C982 1.381 1_556 S
C983 C984 1.398 . S
C983 C989 1.491 . S
C984 H975 0.950 . S
C984 C983 1.398 . S
C984 C985 1.391 . S
C985 H973 0.950 . S
C985 C981 1.393 1_556 S
C985 C984 1.391 . S
C986 H976 0.950 . S
C986 C987 1.386 . S
C986 C988 1.391 . S
C987 C986 1.386 . S
C987 C991 1.393 . S
C988 H977 0.950 . S
C988 C986 1.391 . S
C988 C989 1.400 . S
C989 C983 1.491 . S
C989 C988 1.400 . S
C989 C990 1.398 . S
C990 H978 0.950 . S
C990 C989 1.398 . S
C990 C991 1.391 . S
C991 H979 0.950 . S
C991 C987 1.393 . S
C991 C990 1.391 . S
H992 C1000 0.950 . S
H993 C1005 0.950 . S
H994 C1002 0.950 . S
H995 C1004 0.950 . S
H996 C1006 0.950 . S
H997 C1008 0.950 . S
H998 C1010 0.950 . S
H999 C1011 0.950 . S
C1000 H992 0.950 . S
C1000 C1001 1.386 . S
C1000 C1002 1.391 1_556 S
C1001 C1000 1.386 . S
C1001 C1005 1.393 . S
C1002 H994 0.950 . S
C1002 C1000 1.391 1_554 S
C1002 C1003 1.400 . S
C1003 C1002 1.400 . S
C1003 C1004 1.398 1_554 S
C1003 C1009 1.491 . S
C1004 H995 0.950 . S
C1004 C1003 1.398 1_556 S
C1004 C1005 1.391 . S
C1005 H993 0.950 . S
C1005 C1001 1.393 . S
C1005 C1004 1.391 . S
C1006 H996 0.950 . S
C1006 C1007 1.386 . S
C1006 C1008 1.391 . S
C1007 C1006 1.386 . S
C1007 C1011 1.393 . S
C1008 H997 0.950 . S
C1008 C1006 1.391 . S
C1008 C1009 1.400 . S
C1009 C1003 1.491 . S
C1009 C1008 1.400 . S
C1009 C1010 1.398 . S
C1010 H998 0.950 . S
C1010 C1009 1.398 . S
C1010 C1011 1.391 . S
C1011 H999 0.950 . S
C1011 C1007 1.393 . S
C1011 C1010 1.391 . S
H1012 C1020 0.950 . S
H1013 C1025 0.952 . S
H1014 C1022 0.950 . S
H1015 C1024 0.950 . S
H1016 C1026 0.950 . S
H1017 C1028 0.950 . S
H1018 C1030 0.950 . S
H1019 C1031 0.950 . S
C1020 H1012 0.950 . S
C1020 C1021 1.386 . S
C1020 C1022 1.391 1_554 S
C1021 C1020 1.386 . S
C1021 C1025 1.401 . S
C1022 H1014 0.950 . S
C1022 C1020 1.391 1_556 S
C1022 C1023 1.400 . S
C1023 C1022 1.400 . S
C1023 C1024 1.398 . S
C1023 C1029 1.491 . S
C1024 H1015 0.950 . S
C1024 C1023 1.398 . S
C1024 C1025 1.381 1_556 S
C1025 H1013 0.952 . S
C1025 C1021 1.401 . S
C1025 C1024 1.381 1_554 S
C1026 H1016 0.950 . S
C1026 C1027 1.386 . S
C1026 C1028 1.391 . S
C1027 C1026 1.386 . S
C1027 C1031 1.393 . S
C1028 H1017 0.950 . S
C1028 C1026 1.391 . S
C1028 C1029 1.400 . S
C1029 C1023 1.491 . S
C1029 C1028 1.400 . S
C1029 C1030 1.398 . S
C1030 H1018 0.950 . S
C1030 C1029 1.398 . S
C1030 C1031 1.391 . S
C1031 H1019 0.950 . S
C1031 C1027 1.393 . S
C1031 C1030 1.391 . S
H1032 C1040 0.950 . S
H1033 C1045 0.950 . S
H1034 C1042 0.950 . S
H1035 C1044 0.950 . S
H1036 C1046 0.950 . S
H1037 C1048 0.950 . S
H1038 C1050 0.950 . S
H1039 C1051 0.950 . S
C1040 H1032 0.950 . S
C1040 C1041 1.386 . S
C1040 C1042 1.391 . S
C1041 C1040 1.386 . S
C1041 C1045 1.393 . S
C1042 H1034 0.950 . S
C1042 C1040 1.391 . S
C1042 C1043 1.400 . S
C1043 C1042 1.400 . S
C1043 C1044 1.398 . S
C1043 C1049 1.491 . S
C1044 H1035 0.950 . S
C1044 C1043 1.398 . S
C1044 C1045 1.391 . S
C1045 H1033 0.950 . S
C1045 C1041 1.393 . S
C1045 C1044 1.391 . S
C1046 H1036 0.950 . S
C1046 C1047 1.386 . S
C1046 C1048 1.391 . S
C1047 C1046 1.386 . S
C1047 C1051 1.393 . S
C1048 H1037 0.950 . S
C1048 C1046 1.391 . S
C1048 C1049 1.400 . S
C1049 C1043 1.491 . S
C1049 C1048 1.400 . S
C1049 C1050 1.398 . S
C1050 H1038 0.950 . S
C1050 C1049 1.398 . S
C1050 C1051 1.391 . S
C1051 H1039 0.950 . S
C1051 C1047 1.393 . S
C1051 C1050 1.391 . S
H1052 C1060 0.950 . S
H1053 C1065 0.950 . S
H1054 C1062 0.950 . S
H1055 C1064 0.950 . S
H1056 C1066 0.950 . S
H1057 C1068 0.950 . S
H1058 C1070 0.950 . S
H1059 C1071 0.950 . S
C1060 H1052 0.950 . S
C1060 C1061 1.386 . S
C1060 C1062 1.391 . S
C1061 C1060 1.386 . S
C1061 C1065 1.393 . S
C1062 H1054 0.950 . S
C1062 C1060 1.391 . S
C1062 C1063 1.400 . S
C1063 C1062 1.400 . S
C1063 C1064 1.398 . S
C1063 C1069 1.491 . S
C1064 H1055 0.950 . S
C1064 C1063 1.398 . S
C1064 C1065 1.391 . S
C1065 H1053 0.950 . S
C1065 C1061 1.393 . S
C1065 C1064 1.391 . S
C1066 H1056 0.950 . S
C1066 C1067 1.386 . S
C1066 C1068 1.391 . S
C1067 C1066 1.386 . S
C1067 C1071 1.393 . S
C1068 H1057 0.950 . S
C1068 C1066 1.391 . S
C1068 C1069 1.400 . S
C1069 C1063 1.491 . S
C1069 C1068 1.400 . S
C1069 C1070 1.398 . S
C1070 H1058 0.950 . S
C1070 C1069 1.398 . S
C1070 C1071 1.391 . S
C1071 H1059 0.950 . S
C1071 C1067 1.393 . S
C1071 C1070 1.391 . S
H1072 C1080 0.950 . S
H1073 C1085 0.950 . S
H1074 C1082 0.950 . S
H1075 C1084 0.950 . S
H1076 C1086 0.950 . S
H1077 C1088 0.950 . S
H1078 C1090 0.950 . S
H1079 C1091 0.950 . S
C1080 H1072 0.950 . S
C1080 C1081 1.386 . S
C1080 C1082 1.391 . S
C1081 C1080 1.386 . S
C1081 C1085 1.393 . S
C1082 H1074 0.950 . S
C1082 C1080 1.391 . S
C1082 C1083 1.400 . S
C1083 C1082 1.400 . S
C1083 C1084 1.398 . S
C1083 C1089 1.491 . S
C1084 H1075 0.950 . S
C1084 C1083 1.398 . S
C1084 C1085 1.391 . S
C1085 H1073 0.950 . S
C1085 C1081 1.393 . S
C1085 C1084 1.391 . S
C1086 H1076 0.950 . S
C1086 C1087 1.386 . S
C1086 C1088 1.391 . S
C1087 C1086 1.386 . S
C1087 C1091 1.393 . S
C1088 H1077 0.950 . S
C1088 C1086 1.391 . S
C1088 C1089 1.400 . S
C1089 C1083 1.491 . S
C1089 C1088 1.400 . S
C1089 C1090 1.398 . S
C1090 H1078 0.950 . S
C1090 C1089 1.398 . S
C1090 C1091 1.391 . S
C1091 H1079 0.950 . S
C1091 C1087 1.393 . S
C1091 C1090 1.391 . S
H1092 C1100 0.950 . S
H1093 C1105 0.950 . S
H1094 C1102 0.950 . S
H1095 C1104 0.950 . S
H1096 C1106 0.950 . S
H1097 C1108 0.950 . S
H1098 C1110 0.950 . S
H1099 C1111 0.950 . S
C1100 H1092 0.950 . S
C1100 C1101 1.386 . S
C1100 C1102 1.391 . S
C1101 C1100 1.386 . S
C1101 C1105 1.393 . S
C1102 H1094 0.950 . S
C1102 C1100 1.391 . S
C1102 C1103 1.400 . S
C1103 C1102 1.400 . S
C1103 C1104 1.398 . S
C1103 C1109 1.491 . S
C1104 H1095 0.950 . S
C1104 C1103 1.398 . S
C1104 C1105 1.391 . S
C1105 H1093 0.950 . S
C1105 C1101 1.393 . S
C1105 C1104 1.391 . S
C1106 H1096 0.950 . S
C1106 C1107 1.386 . S
C1106 C1108 1.391 . S
C1107 C1106 1.386 . S
C1107 C1111 1.393 . S
C1108 H1097 0.950 . S
C1108 C1106 1.391 . S
C1108 C1109 1.400 . S
C1109 C1103 1.491 . S
C1109 C1108 1.400 . S
C1109 C1110 1.398 . S
C1110 H1098 0.950 . S
C1110 C1109 1.398 . S
C1110 C1111 1.391 . S
C1111 H1099 0.950 . S
C1111 C1107 1.393 . S
C1111 C1110 1.391 . S
H1112 C1120 0.950 . S
H1113 C1125 0.950 . S
H1114 C1122 0.950 . S
H1115 C1124 0.950 . S
H1116 C1126 0.950 . S
H1117 C1128 0.950 . S
H1118 C1130 0.950 . S
H1119 C1131 0.950 . S
C1120 H1112 0.950 . S
C1120 C1121 1.386 . S
C1120 C1122 1.391 . S
C1121 C1120 1.386 . S
C1121 C1125 1.393 . S
C1122 H1114 0.950 . S
C1122 C1120 1.391 . S
C1122 C1123 1.400 . S
C1123 C1122 1.400 . S
C1123 C1124 1.398 . S
C1123 C1129 1.491 . S
C1124 H1115 0.950 . S
C1124 C1123 1.398 . S
C1124 C1125 1.391 . S
C1125 H1113 0.950 . S
C1125 C1121 1.393 . S
C1125 C1124 1.391 . S
C1126 H1116 0.950 . S
C1126 C1127 1.386 . S
C1126 C1128 1.391 . S
C1127 C1126 1.386 . S
C1127 C1131 1.393 . S
C1128 H1117 0.950 . S
C1128 C1126 1.391 . S
C1128 C1129 1.400 . S
C1129 C1123 1.491 . S
C1129 C1128 1.400 . S
C1129 C1130 1.398 . S
C1130 H1118 0.950 . S
C1130 C1129 1.398 . S
C1130 C1131 1.391 . S
C1131 H1119 0.950 . S
C1131 C1127 1.393 . S
C1131 C1130 1.391 . S
H1132 C1140 0.950 . S
H1133 C1145 0.950 . S
H1134 C1142 0.950 . S
H1135 C1144 0.950 . S
H1136 C1146 0.950 . S
H1137 C1148 0.950 . S
H1138 C1150 0.950 . S
H1139 C1151 0.950 . S
C1140 H1132 0.950 . S
C1140 C1141 1.386 . S
C1140 C1142 1.391 . S
C1141 C1140 1.386 . S
C1141 C1145 1.393 . S
C1142 H1134 0.950 . S
C1142 C1140 1.391 . S
C1142 C1143 1.400 . S
C1143 C1142 1.400 . S
C1143 C1144 1.398 . S
C1143 C1149 1.491 . S
C1144 H1135 0.950 . S
C1144 C1143 1.398 . S
C1144 C1145 1.391 . S
C1145 H1133 0.950 . S
C1145 C1141 1.393 . S
C1145 C1144 1.391 . S
C1146 H1136 0.950 . S
C1146 C1147 1.386 . S
C1146 C1148 1.391 . S
C1147 C1146 1.386 . S
C1147 C1151 1.393 . S
C1148 H1137 0.950 . S
C1148 C1146 1.391 . S
C1148 C1149 1.400 . S
C1149 C1143 1.491 . S
C1149 C1148 1.400 . S
C1149 C1150 1.398 . S
C1150 H1138 0.950 . S
C1150 C1149 1.398 . S
C1150 C1151 1.391 . S
C1151 H1139 0.950 . S
C1151 C1147 1.393 . S
C1151 C1150 1.391 . S
H1152 C1160 0.950 . S
H1153 C1165 0.950 . S
H1154 C1162 0.950 . S
H1155 C1164 0.950 . S
H1156 C1166 0.950 . S
H1157 C1168 0.950 . S
H1158 C1170 0.950 . S
H1159 C1171 0.950 . S
C1160 H1152 0.950 . S
C1160 C1161 1.386 . S
C1160 C1162 1.391 . S
C1161 C1160 1.386 . S
C1161 C1165 1.393 . S
C1162 H1154 0.950 . S
C1162 C1160 1.391 . S
C1162 C1163 1.400 . S
C1163 C1162 1.400 . S
C1163 C1164 1.398 . S
C1163 C1169 1.491 . S
C1164 H1155 0.950 . S
C1164 C1163 1.398 . S
C1164 C1165 1.391 . S
C1165 H1153 0.950 . S
C1165 C1161 1.393 . S
C1165 C1164 1.391 . S
C1166 H1156 0.950 . S
C1166 C1167 1.386 . S
C1166 C1168 1.391 . S
C1167 C1166 1.386 . S
C1167 C1171 1.393 . S
C1168 H1157 0.950 . S
C1168 C1166 1.391 . S
C1168 C1169 1.400 . S
C1169 C1163 1.491 . S
C1169 C1168 1.400 . S
C1169 C1170 1.398 . S
C1170 H1158 0.950 . S
C1170 C1169 1.398 . S
C1170 C1171 1.391 . S
C1171 H1159 0.950 . S
C1171 C1167 1.393 . S
C1171 C1170 1.391 . S
H1172 C1180 0.950 . S
H1173 C1185 0.950 . S
H1174 C1182 0.950 . S
H1175 C1184 0.950 . S
H1176 C1186 0.950 . S
H1177 C1188 0.950 . S
H1178 C1190 0.950 . S
H1179 C1191 0.950 . S
C1180 H1172 0.950 . S
C1180 C1181 1.386 . S
C1180 C1182 1.391 . S
C1181 C1180 1.386 . S
C1181 C1185 1.393 . S
C1182 H1174 0.950 . S
C1182 C1180 1.391 . S
C1182 C1183 1.400 . S
C1183 C1182 1.400 . S
C1183 C1184 1.398 . S
C1183 C1189 1.491 . S
C1184 H1175 0.950 . S
C1184 C1183 1.398 . S
C1184 C1185 1.391 . S
C1185 H1173 0.950 . S
C1185 C1181 1.393 . S
C1185 C1184 1.391 . S
C1186 H1176 0.950 . S
C1186 C1187 1.386 . S
C1186 C1188 1.391 . S
C1187 C1186 1.386 . S
C1187 C1191 1.393 . S
C1188 H1177 0.950 . S
C1188 C1186 1.391 . S
C1188 C1189 1.400 . S
C1189 C1183 1.491 . S
C1189 C1188 1.400 . S
C1189 C1190 1.398 . S
C1190 H1178 0.950 . S
C1190 C1189 1.398 . S
C1190 C1191 1.391 . S
C1191 H1179 0.950 . S
C1191 C1187 1.393 . S
C1191 C1190 1.391 . S
H1192 C1200 0.950 . S
H1193 C1205 0.950 . S
H1194 C1202 0.950 . S
H1195 C1204 0.950 . S
H1196 C1206 0.950 . S
H1197 C1208 0.950 . S
H1198 C1210 0.950 . S
H1199 C1211 0.950 . S
C1200 H1192 0.950 . S
C1200 C1201 1.386 . S
C1200 C1202 1.391 . S
C1201 C1200 1.386 . S
C1201 C1205 1.393 . S
C1202 H1194 0.950 . S
C1202 C1200 1.391 . S
C1202 C1203 1.400 . S
C1203 C1202 1.400 . S
C1203 C1204 1.398 . S
C1203 C1209 1.491 . S
C1204 H1195 0.950 . S
C1204 C1203 1.398 . S
C1204 C1205 1.391 . S
C1205 H1193 0.950 . S
C1205 C1201 1.393 . S
C1205 C1204 1.391 . S
C1206 H1196 0.950 . S
C1206 C1207 1.386 . S
C1206 C1208 1.391 . S
C1207 C1206 1.386 . S
C1207 C1211 1.393 . S
C1208 H1197 0.950 . S
C1208 C1206 1.391 . S
C1208 C1209 1.400 . S
C1209 C1203 1.491 . S
C1209 C1208 1.400 . S
C1209 C1210 1.398 . S
C1210 H1198 0.950 . S
C1210 C1209 1.398 . S
C1210 C1211 1.391 . S
C1211 H1199 0.950 . S
C1211 C1207 1.393 . S
C1211 C1210 1.391 . S
H1212 C1220 0.950 . S
H1213 C1225 0.950 . S
H1214 C1222 0.950 . S
H1215 C1224 0.950 . S
H1216 C1226 0.950 . S
H1217 C1228 0.950 . S
H1218 C1230 0.950 . S
H1219 C1231 0.950 . S
C1220 H1212 0.950 . S
C1220 C1221 1.386 . S
C1220 C1222 1.391 . S
C1221 C1220 1.386 . S
C1221 C1225 1.393 . S
C1222 H1214 0.950 . S
C1222 C1220 1.391 . S
C1222 C1223 1.400 . S
C1223 C1222 1.400 . S
C1223 C1224 1.398 . S
C1223 C1229 1.491 . S
C1224 H1215 0.950 . S
C1224 C1223 1.398 . S
C1224 C1225 1.391 . S
C1225 H1213 0.950 . S
C1225 C1221 1.393 . S
C1225 C1224 1.391 . S
C1226 H1216 0.950 . S
C1226 C1227 1.386 . S
C1226 C1228 1.391 . S
C1227 C1226 1.386 . S
C1227 C1231 1.393 . S
C1228 H1217 0.950 . S
C1228 C1226 1.391 . S
C1228 C1229 1.400 . S
C1229 C1223 1.491 . S
C1229 C1228 1.400 . S
C1229 C1230 1.398 . S
C1230 H1218 0.950 . S
C1230 C1229 1.398 . S
C1230 C1231 1.391 . S
C1231 H1219 0.950 . S
C1231 C1227 1.393 . S
C1231 C1230 1.391 . S
H1232 C1240 0.950 . S
H1233 C1245 0.950 . S
H1234 C1242 0.950 . S
H1235 C1244 0.950 . S
H1236 C1246 0.950 . S
H1237 C1248 0.950 . S
H1238 C1250 0.950 . S
H1239 C1251 0.950 . S
C1240 H1232 0.950 . S
C1240 C1241 1.386 . S
C1240 C1242 1.391 . S
C1241 C1240 1.386 . S
C1241 C1245 1.393 . S
C1242 H1234 0.950 . S
C1242 C1240 1.391 . S
C1242 C1243 1.400 . S
C1243 C1242 1.400 . S
C1243 C1244 1.398 . S
C1243 C1249 1.491 . S
C1244 H1235 0.950 . S
C1244 C1243 1.398 . S
C1244 C1245 1.391 . S
C1245 H1233 0.950 . S
C1245 C1241 1.393 . S
C1245 C1244 1.391 . S
C1246 H1236 0.950 . S
C1246 C1247 1.386 . S
C1246 C1248 1.391 . S
C1247 C1246 1.386 . S
C1247 C1251 1.393 . S
C1248 H1237 0.950 . S
C1248 C1246 1.391 . S
C1248 C1249 1.400 . S
C1249 C1243 1.491 . S
C1249 C1248 1.400 . S
C1249 C1250 1.398 . S
C1250 H1238 0.950 . S
C1250 C1249 1.398 . S
C1250 C1251 1.391 . S
C1251 H1239 0.950 . S
C1251 C1247 1.393 . S
C1251 C1250 1.391 . S
H1252 C1260 0.950 . S
H1253 C1265 0.950 . S
H1254 C1262 0.950 . S
H1255 C1264 0.950 . S
H1256 C1266 0.950 . S
H1257 C1268 0.950 . S
H1258 C1270 0.950 . S
H1259 C1271 0.950 . S
C1260 H1252 0.950 . S
C1260 C1261 1.386 . S
C1260 C1262 1.391 . S
C1261 C1260 1.386 . S
C1261 C1265 1.393 . S
C1262 H1254 0.950 . S
C1262 C1260 1.391 . S
C1262 C1263 1.400 . S
C1263 C1262 1.400 . S
C1263 C1264 1.398 . S
C1263 C1269 1.491 . S
C1264 H1255 0.950 . S
C1264 C1263 1.398 . S
C1264 C1265 1.391 . S
C1265 H1253 0.950 . S
C1265 C1261 1.393 . S
C1265 C1264 1.391 . S
C1266 H1256 0.950 . S
C1266 C1267 1.386 . S
C1266 C1268 1.391 . S
C1267 C1266 1.386 . S
C1267 C1271 1.393 . S
C1268 H1257 0.950 . S
C1268 C1266 1.391 . S
C1268 C1269 1.400 . S
C1269 C1263 1.491 . S
C1269 C1268 1.400 . S
C1269 C1270 1.398 . S
C1270 H1258 0.950 . S
C1270 C1269 1.398 . S
C1270 C1271 1.391 . S
C1271 H1259 0.950 . S
C1271 C1267 1.393 . S
C1271 C1270 1.391 . S
H1272 C1280 0.950 . S
H1273 C1285 0.950 . S
H1274 C1282 0.950 . S
H1275 C1284 0.950 . S
H1276 C1286 0.950 . S
H1277 C1288 0.950 . S
H1278 C1290 0.950 . S
H1279 C1291 0.950 . S
C1280 H1272 0.950 . S
C1280 C1281 1.386 . S
C1280 C1282 1.391 . S
C1281 C1280 1.386 . S
C1281 C1285 1.393 . S
C1282 H1274 0.950 . S
C1282 C1280 1.391 . S
C1282 C1283 1.400 . S
C1283 C1282 1.400 . S
C1283 C1284 1.398 . S
C1283 C1289 1.491 . S
C1284 H1275 0.950 . S
C1284 C1283 1.398 . S
C1284 C1285 1.391 . S
C1285 H1273 0.950 . S
C1285 C1281 1.393 . S
C1285 C1284 1.391 . S
C1286 H1276 0.950 . S
C1286 C1287 1.386 . S
C1286 C1288 1.391 . S
C1287 C1286 1.386 . S
C1287 C1291 1.393 . S
C1288 H1277 0.950 . S
C1288 C1286 1.391 . S
C1288 C1289 1.400 . S
C1289 C1283 1.491 . S
C1289 C1288 1.400 . S
C1289 C1290 1.398 . S
C1290 H1278 0.950 . S
C1290 C1289 1.398 . S
C1290 C1291 1.391 . S
C1291 H1279 0.950 . S
C1291 C1287 1.393 . S
C1291 C1290 1.391 . S
H1292 C1300 0.950 . S
H1293 C1305 0.950 . S
H1294 C1302 0.950 . S
H1295 C1304 0.950 . S
H1296 C1306 0.950 . S
H1297 C1308 0.950 . S
H1298 C1310 0.950 . S
H1299 C1311 0.950 . S
C1300 H1292 0.950 . S
C1300 C1301 1.386 . S
C1300 C1302 1.391 . S
C1301 C1300 1.386 . S
C1301 C1305 1.393 . S
C1302 H1294 0.950 . S
C1302 C1300 1.391 . S
C1302 C1303 1.400 . S
C1303 C1302 1.400 . S
C1303 C1304 1.398 . S
C1303 C1309 1.491 . S
C1304 H1295 0.950 . S
C1304 C1303 1.398 . S
C1304 C1305 1.391 . S
C1305 H1293 0.950 . S
C1305 C1301 1.393 . S
C1305 C1304 1.391 . S
C1306 H1296 0.950 . S
C1306 C1307 1.386 . S
C1306 C1308 1.391 . S
C1307 C1306 1.386 . S
C1307 C1311 1.393 . S
C1308 H1297 0.950 . S
C1308 C1306 1.391 . S
C1308 C1309 1.400 . S
C1309 C1303 1.491 . S
C1309 C1308 1.400 . S
C1309 C1310 1.398 . S
C1310 H1298 0.950 . S
C1310 C1309 1.398 . S
C1310 C1311 1.391 . S
C1311 H1299 0.950 . S
C1311 C1307 1.393 . S
C1311 C1310 1.391 . S
H1312 C1320 0.950 . S
H1313 C1325 0.950 . S
H1314 C1322 0.950 . S
H1315 C1324 0.950 . S
H1316 C1326 0.950 . S
H1317 C1328 0.950 . S
H1318 C1330 0.950 . S
H1319 C1331 0.950 . S
C1320 H1312 0.950 . S
C1320 C1321 1.386 . S
C1320 C1322 1.391 . S
C1321 C1320 1.386 . S
C1321 C1325 1.393 . S
C1322 H1314 0.950 . S
C1322 C1320 1.391 . S
C1322 C1323 1.400 . S
C1323 C1322 1.400 . S
C1323 C1324 1.398 . S
C1323 C1329 1.491 . S
C1324 H1315 0.950 . S
C1324 C1323 1.398 . S
C1324 C1325 1.391 . S
C1325 H1313 0.950 . S
C1325 C1321 1.393 . S
C1325 C1324 1.391 . S
C1326 H1316 0.950 . S
C1326 C1327 1.386 . S
C1326 C1328 1.391 . S
C1327 C1326 1.386 . S
C1327 C1331 1.393 . S
C1328 H1317 0.950 . S
C1328 C1326 1.391 . S
C1328 C1329 1.400 . S
C1329 C1323 1.491 . S
C1329 C1328 1.400 . S
C1329 C1330 1.398 . S
C1330 H1318 0.950 . S
C1330 C1329 1.398 . S
C1330 C1331 1.391 . S
C1331 H1319 0.950 . S
C1331 C1327 1.393 . S
C1331 C1330 1.391 . S
H1332 C1340 0.950 . S
H1333 C1345 0.950 . S
H1334 C1342 0.950 . S
H1335 C1344 0.950 . S
H1336 C1346 0.950 . S
H1337 C1348 0.950 . S
H1338 C1350 0.950 . S
H1339 C1351 0.950 . S
C1340 H1332 0.950 . S
C1340 C1341 1.386 . S
C1340 C1342 1.391 . S
C1341 C1340 1.386 . S
C1341 C1345 1.393 . S
C1342 H1334 0.950 . S
C1342 C1340 1.391 . S
C1342 C1343 1.400 . S
C1343 C1342 1.400 . S
C1343 C1344 1.398 . S
C1343 C1349 1.491 . S
C1344 H1335 0.950 . S
C1344 C1343 1.398 . S
C1344 C1345 1.391 . S
C1345 H1333 0.950 . S
C1345 C1341 1.393 . S
C1345 C1344 1.391 . S
C1346 H1336 0.950 . S
C1346 C1347 1.386 . S
C1346 C1348 1.391 . S
C1347 C1346 1.386 . S
C1347 C1351 1.393 . S
C1348 H1337 0.950 . S
C1348 C1346 1.391 . S
C1348 C1349 1.400 . S
C1349 C1343 1.491 . S
C1349 C1348 1.400 . S
C1349 C1350 1.398 . S
C1350 H1338 0.950 . S
C1350 C1349 1.398 . S
C1350 C1351 1.391 . S
C1351 H1339 0.950 . S
C1351 C1347 1.393 . S
C1351 C1350 1.391 . S
H1352 C1360 0.950 . S
H1353 C1365 0.950 . S
H1354 C1362 0.950 . S
H1355 C1364 0.950 . S
H1356 C1366 0.950 . S
H1357 C1368 0.950 . S
H1358 C1370 0.950 . S
H1359 C1371 0.950 . S
C1360 H1352 0.950 . S
C1360 C1361 1.386 . S
C1360 C1362 1.391 . S
C1361 C1360 1.386 . S
C1361 C1365 1.393 . S
C1362 H1354 0.950 . S
C1362 C1360 1.391 . S
C1362 C1363 1.400 . S
C1363 C1362 1.400 . S
C1363 C1364 1.398 . S
C1363 C1369 1.491 . S
C1364 H1355 0.950 . S
C1364 C1363 1.398 . S
C1364 C1365 1.391 . S
C1365 H1353 0.950 . S
C1365 C1361 1.393 . S
C1365 C1364 1.391 . S
C1366 H1356 0.950 . S
C1366 C1367 1.386 . S
C1366 C1368 1.391 . S
C1367 C1366 1.386 . S
C1367 C1371 1.393 . S
C1368 H1357 0.950 . S
C1368 C1366 1.391 . S
C1368 C1369 1.400 . S
C1369 C1363 1.491 . S
C1369 C1368 1.400 . S
C1369 C1370 1.398 . S
C1370 H1358 0.950 . S
C1370 C1369 1.398 . S
C1370 C1371 1.391 . S
C1371 H1359 0.950 . S
C1371 C1367 1.393 . S
C1371 C1370 1.391 . S
H1372 C1380 0.950 . S
H1373 C1385 0.950 . S
H1374 C1382 0.950 . S
H1375 C1384 0.950 . S
H1376 C1386 0.950 . S
H1377 C1388 0.950 . S
H1378 C1390 0.950 . S
H1379 C1391 0.950 . S
C1380 H1372 0.950 . S
C1380 C1381 1.386 . S
C1380 C1382 1.391 . S
C1381 C1380 1.386 . S
C1381 C1385 1.393 . S
C1382 H1374 0.950 . S
C1382 C1380 1.391 . S
C1382 C1383 1.400 . S
C1383 C1382 1.400 . S
C1383 C1384 1.398 . S
C1383 C1389 1.491 . S
C1384 H1375 0.950 . S
C1384 C1383 1.398 . S
C1384 C1385 1.391 . S
C1385 H1373 0.950 . S
C1385 C1381 1.393 . S
C1385 C1384 1.391 . S
C1386 H1376 0.950 . S
C1386 C1387 1.386 . S
C1386 C1388 1.391 . S
C1387 C1386 1.386 . S
C1387 C1391 1.393 . S
C1388 H1377 0.950 . S
C1388 C1386 1.391 . S
C1388 C1389 1.400 . S
C1389 C1383 1.491 . S
C1389 C1388 1.400 . S
C1389 C1390 1.398 . S
C1390 H1378 0.950 . S
C1390 C1389 1.398 . S
C1390 C1391 1.391 . S
C1391 H1379 0.950 . S
C1391 C1387 1.393 . S
C1391 C1390 1.391 . S
H1392 C1400 0.950 . S
H1393 C1405 0.950 . S
H1394 C1402 0.950 . S
H1395 C1404 0.950 . S
H1396 C1406 0.950 . S
H1397 C1408 0.950 . S
H1398 C1410 0.950 . S
H1399 C1411 0.950 . S
C1400 H1392 0.950 . S
C1400 C1401 1.386 . S
C1400 C1402 1.391 . S
C1401 C1400 1.386 . S
C1401 C1405 1.393 . S
C1402 H1394 0.950 . S
C1402 C1400 1.391 . S
C1402 C1403 1.400 . S
C1403 C1402 1.400 . S
C1403 C1404 1.398 . S
C1403 C1409 1.491 . S
C1404 H1395 0.950 . S
C1404 C1403 1.398 . S
C1404 C1405 1.391 . S
C1405 H1393 0.950 . S
C1405 C1401 1.393 . S
C1405 C1404 1.391 . S
C1406 H1396 0.950 . S
C1406 C1407 1.386 . S
C1406 C1408 1.391 . S
C1407 C1406 1.386 . S
C1407 C1411 1.393 . S
C1408 H1397 0.950 . S
C1408 C1406 1.391 . S
C1408 C1409 1.400 . S
C1409 C1403 1.491 . S
C1409 C1408 1.400 . S
C1409 C1410 1.398 . S
C1410 H1398 0.950 . S
C1410 C1409 1.398 . S
C1410 C1411 1.391 . S
C1411 H1399 0.950 . S
C1411 C1407 1.393 . S
C1411 C1410 1.391 . S
H1412 C1420 0.950 . S
H1413 C1425 0.950 . S
H1414 C1422 0.950 . S
H1415 C1424 0.950 . S
H1416 C1426 0.950 . S
H1417 C1428 0.950 . S
H1418 C1430 0.950 . S
H1419 C1431 0.950 . S
C1420 H1412 0.950 . S
C1420 C1421 1.386 . S
C1420 C1422 1.391 . S
C1421 C1420 1.386 . S
C1421 C1425 1.393 . S
C1422 H1414 0.950 . S
C1422 C1420 1.391 . S
C1422 C1423 1.400 . S
C1423 C1422 1.400 . S
C1423 C1424 1.398 . S
C1423 C1429 1.491 . S
C1424 H1415 0.950 . S
C1424 C1423 1.398 . S
C1424 C1425 1.391 . S
C1425 H1413 0.950 . S
C1425 C1421 1.393 . S
C1425 C1424 1.391 . S
C1426 H1416 0.950 . S
C1426 C1427 1.386 . S
C1426 C1428 1.391 . S
C1427 C1426 1.386 . S
C1427 C1431 1.393 . S
C1428 H1417 0.950 . S
C1428 C1426 1.391 . S
C1428 C1429 1.400 . S
C1429 C1423 1.491 . S
C1429 C1428 1.400 . S
C1429 C1430 1.398 . S
C1430 H1418 0.950 . S
C1430 C1429 1.398 . S
C1430 C1431 1.391 . S
C1431 H1419 0.950 . S
C1431 C1427 1.393 . S
C1431 C1430 1.391 . S
H1432 C1440 0.950 . S
H1433 C1445 0.950 . S
H1434 C1442 0.950 . S
H1435 C1444 0.950 . S
H1436 C1446 0.950 . S
H1437 C1448 0.950 . S
H1438 C1450 0.950 . S
H1439 C1451 0.950 . S
C1440 H1432 0.950 . S
C1440 C1441 1.386 . S
C1440 C1442 1.391 . S
C1441 C1440 1.386 . S
C1441 C1445 1.393 . S
C1442 H1434 0.950 . S
C1442 C1440 1.391 . S
C1442 C1443 1.400 . S
C1443 C1442 1.400 . S
C1443 C1444 1.398 . S
C1443 C1449 1.491 . S
C1444 H1435 0.950 . S
C1444 C1443 1.398 . S
C1444 C1445 1.391 . S
C1445 H1433 0.950 . S
C1445 C1441 1.393 . S
C1445 C1444 1.391 . S
C1446 H1436 0.950 . S
C1446 C1447 1.386 . S
C1446 C1448 1.391 . S
C1447 C1446 1.386 . S
C1447 C1451 1.393 . S
C1448 H1437 0.950 . S
C1448 C1446 1.391 . S
C1448 C1449 1.400 . S
C1449 C1443 1.491 . S
C1449 C1448 1.400 . S
C1449 C1450 1.398 . S
C1450 H1438 0.950 . S
C1450 C1449 1.398 . S
C1450 C1451 1.391 . S
C1451 H1439 0.950 . S
C1451 C1447 1.393 . S
C1451 C1450 1.391 . S
H1452 C1460 0.950 . S
H1453 C1465 0.950 . S
H1454 C1462 0.950 . S
H1455 C1464 0.950 . S
H1456 C1466 0.950 . S
H1457 C1468 0.950 . S
H1458 C1470 0.950 . S
H1459 C1471 0.950 . S
C1460 H1452 0.950 . S
C1460 C1461 1.386 . S
C1460 C1462 1.391 . S
C1461 C1460 1.386 . S
C1461 C1465 1.393 . S
C1462 H1454 0.950 . S
C1462 C1460 1.391 . S
C1462 C1463 1.400 . S
C1463 C1462 1.400 . S
C1463 C1464 1.398 . S
C1463 C1469 1.491 . S
C1464 H1455 0.950 . S
C1464 C1463 1.398 . S
C1464 C1465 1.391 . S
C1465 H1453 0.950 . S
C1465 C1461 1.393 . S
C1465 C1464 1.391 . S
C1466 H1456 0.950 . S
C1466 C1467 1.386 . S
C1466 C1468 1.391 . S
C1467 C1466 1.386 . S
C1467 C1471 1.393 . S
C1468 H1457 0.950 . S
C1468 C1466 1.391 . S
C1468 C1469 1.400 . S
C1469 C1463 1.491 . S
C1469 C1468 1.400 . S
C1469 C1470 1.398 . S
C1470 H1458 0.950 . S
C1470 C1469 1.398 . S
C1470 C1471 1.391 . S
C1471 H1459 0.950 . S
C1471 C1467 1.393 . S
C1471 C1470 1.391 . S
H1472 C1480 0.950 . S
H1473 C1485 0.950 . S
H1474 C1482 0.950 . S
H1475 C1484 0.950 . S
H1476 C1486 0.950 . S
H1477 C1488 0.950 . S
H1478 C1490 0.950 . S
H1479 C1491 0.950 . S
C1480 H1472 0.950 . S
C1480 C1481 1.386 . S
C1480 C1482 1.391 . S
C1481 C1480 1.386 . S
C1481 C1485 1.393 . S
C1482 H1474 0.950 . S
C1482 C1480 1.391 . S
C1482 C1483 1.400 . S
C1483 C1482 1.400 . S
C1483 C1484 1.398 . S
C1483 C1489 1.491 . S
C1484 H1475 0.950 . S
C1484 C1483 1.398 . S
C1484 C1485 1.391 . S
C1485 H1473 0.950 . S
C1485 C1481 1.393 . S
C1485 C1484 1.391 . S
C1486 H1476 0.950 . S
C1486 C1487 1.386 . S
C1486 C1488 1.391 . S
C1487 C1486 1.386 . S
C1487 C1491 1.393 . S
C1488 H1477 0.950 . S
C1488 C1486 1.391 . S
C1488 C1489 1.400 . S
C1489 C1483 1.491 . S
C1489 C1488 1.400 . S
C1489 C1490 1.398 . S
C1490 H1478 0.950 . S
C1490 C1489 1.398 . S
C1490 C1491 1.391 . S
C1491 H1479 0.950 . S
C1491 C1487 1.393 . S
C1491 C1490 1.391 . S
H1492 C1500 0.950 . S
H1493 C1505 0.950 . S
H1494 C1502 0.950 . S
H1495 C1504 0.950 . S
H1496 C1506 0.950 . S
H1497 C1508 0.950 . S
H1498 C1510 0.950 . S
H1499 C1511 0.950 . S
C1500 H1492 0.950 . S
C1500 C1501 1.386 . S
C1500 C1502 1.391 . S
C1501 C1500 1.386 . S
C1501 C1505 1.393 . S
C1502 H1494 0.950 . S
C1502 C1500 1.391 . S
C1502 C1503 1.400 . S
C1503 C1502 1.400 . S
C1503 C1504 1.398 . S
C1503 C1509 1.491 . S
C1504 H1495 0.950 . S
C1504 C1503 1.398 . S
C1504 C1505 1.391 . S
C1505 H1493 0.950 . S
C1505 C1501 1.393 . S
C1505 C1504 1.391 . S
C1506 H1496 0.950 . S
C1506 C1507 1.386 . S
C1506 C1508 1.391 . S
C1507 C1506 1.386 . S
C1507 C1511 1.393 . S
C1508 H1497 0.950 . S
C1508 C1506 1.391 . S
C1508 C1509 1.400 . S
C1509 C1503 1.491 . S
C1509 C1508 1.400 . S
C1509 C1510 1.398 . S
C1510 H1498 0.950 . S
C1510 C1509 1.398 . S
C1510 C1511 1.391 . S
C1511 H1499 0.950 . S
C1511 C1507 1.393 . S
C1511 C1510 1.391 . S
C561 C522 1.944 . S
C567 N12 2.060 . S
C581 C39 2.100 . S
C587 N380 2.185 . S
C601 C545 1.871 . S
C607 N58 1.975 . S
C621 N495 2.113 . S
C627 N81 2.101 . S
C641 N426 2.189 . S
C647 N104 2.191 . S
C661 C453 2.145 . S
C667 N127 2.101 . S
C681 N472 2.238 . S
C687 C154 2.285 . S
C701 C177 2.024 . S
C707 C407 2.172 . S
C721 C315 2.292 . S
C727 C200 2.397 . S
C741 N334 1.990 . S
C747 N219 1.994 . S
C761 C246 2.393 . S
C767 C361 2.283 . S
C781 N265 2.020 . S
C787 N288 2.019 . S
C801 N173 2.164 . S
C807 C338 2.054 . S
C821 N357 2.213 . S
C827 C108 2.128 . S
C841 C131 2.100 . S
C847 C292 1.967 . S
C861 N311 2.084 . S
C867 N150 2.084 . S
C881 N242 2.122 . S
C887 N35 2.121 . S
C901 C62 1.950 . S
C907 C269 2.096 . S
C921 C85 2.221 . S
C927 N196 2.177 . S
C941 C16 2.013 . S
C947 C223 2.160 . S
C961 C476 2.355 . S
C967 C499 2.260 . S
C981 N518 1.960 . S
C987 N403 1.954 . S
C1001 C430 2.431 . S
C1007 C384 2.314 . S
C1021 N541 1.940 . S
C1027 N449 1.940 . S
C1041 N2 1.019 . S
C1047 N186 1.039 . S
C1061 C214 1.580 . S
C1067 C30 1.619 . S
C1081 N48 1.013 . S
C1087 N232 1.025 . S
C1101 N71 1.191 . S
C1107 C260 1.322 . S
C1121 N94 1.297 . S
C1127 C283 1.365 . S
C1141 N117 1.087 . S
C1147 N301 1.098 . S
C1161 C329 1.633 . S
C1167 C145 1.655 . S
C1181 N347 1.324 . S
C1187 C168 1.424 . S
C1201 C191 1.756 . S
C1207 C375 1.788 . S
C1221 N209 0.953 . S
C1227 N531 0.955 . S
C1241 C490 1.757 . S
C1247 C237 1.717 . S
C1261 N508 1.067 . S
C1267 N255 1.041 . S
C1281 N393 1.028 . S
C1287 N278 1.017 . S
C1301 C421 1.759 . S
C1307 C306 1.761 . S
C1321 N324 1.054 . S
C1327 N439 1.006 . S
C1341 C352 1.725 . S
C1347 C467 1.713 . S
C1361 C7 1.445 . S
C1367 N370 1.370 . S
C1381 C398 1.591 . S
C1387 C99 1.623 . S
C1401 N416 1.213 . S
C1407 C122 1.339 . S
C1421 C444 1.304 . S
C1427 N140 1.212 . S
C1441 N462 1.105 . S
C1447 N163 1.140 . S
C1461 N485 1.320 . S
C1467 C53 1.436 . S
C1481 C76 1.634 . S
C1487 C513 1.612 . S
C1501 C536 1.408 . S
C1507 N25 1.321 . S
