# Generated by pormake.
# Topology wgu, (5)-cn, num edge types: 1
# Building blocks:
#     Node 0, Type 0, BuildingBlock: XOMCOT_clean_sbu_1, # of connection points: 5
#     Node 1, Type 0, BuildingBlock: XOMCOT_clean_sbu_1, # of connection points: 5
#     Node 2, Type 0, BuildingBlock: XOMCOT_clean_sbu_1, # of connection points: 5
#     Node 3, Type 0, BuildingBlock: XOMCOT_clean_sbu_1, # of connection points: 5
#     Node 4, Type 0, BuildingBlock: XOMCOT_clean_sbu_1, # of connection points: 5
#     Node 5, Type 0, BuildingBlock: XOMCOT_clean_sbu_1, # of connection points: 5
#     Node 6, Type 0, BuildingBlock: XOMCOT_clean_sbu_1, # of connection points: 5
#     Node 7, Type 0, BuildingBlock: XOMCOT_clean_sbu_1, # of connection points: 5
#     Edge 8, Type (0, 0), BuildingBlock: TEMPAE_clean_linker_10, # of connection points: 2
#     Edge 9, Type (0, 0), BuildingBlock: TEMPAE_clean_linker_10, # of connection points: 2
#     Edge 10, Type (0, 0), BuildingBlock: TEMPAE_clean_linker_10, # of connection points: 2
#     Edge 11, Type (0, 0), BuildingBlock: TEMPAE_clean_linker_10, # of connection points: 2
#     Edge 12, Type (0, 0), BuildingBlock: TEMPAE_clean_linker_10, # of connection points: 2
#     Edge 13, Type (0, 0), BuildingBlock: TEMPAE_clean_linker_10, # of connection points: 2
#     Edge 14, Type (0, 0), BuildingBlock: TEMPAE_clean_linker_10, # of connection points: 2
#     Edge 15, Type (0, 0), BuildingBlock: TEMPAE_clean_linker_10, # of connection points: 2
#     Edge 16, Type (0, 0), BuildingBlock: TEMPAE_clean_linker_10, # of connection points: 2
#     Edge 17, Type (0, 0), BuildingBlock: TEMPAE_clean_linker_10, # of connection points: 2
#     Edge 18, Type (0, 0), BuildingBlock: TEMPAE_clean_linker_10, # of connection points: 2
#     Edge 19, Type (0, 0), BuildingBlock: TEMPAE_clean_linker_10, # of connection points: 2
#     Edge 20, Type (0, 0), BuildingBlock: TEMPAE_clean_linker_10, # of connection points: 2
#     Edge 21, Type (0, 0), BuildingBlock: TEMPAE_clean_linker_10, # of connection points: 2
#     Edge 22, Type (0, 0), BuildingBlock: TEMPAE_clean_linker_10, # of connection points: 2
#     Edge 23, Type (0, 0), BuildingBlock: TEMPAE_clean_linker_10, # of connection points: 2
#     Edge 24, Type (0, 0), BuildingBlock: TEMPAE_clean_linker_10, # of connection points: 2
#     Edge 25, Type (0, 0), BuildingBlock: TEMPAE_clean_linker_10, # of connection points: 2
#     Edge 26, Type (0, 0), BuildingBlock: TEMPAE_clean_linker_10, # of connection points: 2
#     Edge 27, Type (0, 0), BuildingBlock: TEMPAE_clean_linker_10, # of connection points: 2
# Relax obj value: 0.210
# Max RMSD: 0.184
# Mean RMSD: 0.172
data_MOF--net-wgu--node1-XOMCOT_clean_sbu_1--edge1-TEMPAE_clean_linker_10
_symmetry_space_group_name_H-M    P1
_symmetry_Int_Tables_number       1
_symmetry_cell_setting            triclinic
loop_
_symmetry_equiv_pos_as_xyz
'x, y, z'
_cell_length_a     33.385822
_cell_length_b     33.142778
_cell_length_c     29.118878
_cell_angle_alpha  94.529822
_cell_angle_beta   92.397149
_cell_angle_gamma 89.90442
loop_
_atom_site_label
_atom_site_type_symbol
_atom_site_fract_x
_atom_site_fract_y
_atom_site_fract_z
_atom_type_partial_charge
C0 C 0.24137 0.37475 0.07639 0.0
C1 C 0.22613 0.41283 0.08567 0.0
N2 N 0.25679 0.43932 0.08889 0.0
N3 N 0.28159 0.37698 0.07433 0.0
C4 C 0.29015 0.41689 0.08203 0.0
H5 H 0.22392 0.34738 0.06907 0.0
Co6 Co 0.31344 0.33218 0.05749 0.0
C7 C 0.37957 0.38065 0.01868 0.0
O8 O 0.36988 0.36814 0.97579 0.0
N9 N 0.34465 0.28583 0.04134 0.0
C10 C 0.38108 0.23703 1.00599 0.0
C11 C 0.37272 0.27791 0.00961 0.0
C12 C 0.33721 0.24932 0.05684 0.0
N13 N 0.35888 0.21943 0.0362 0.0
O14 O 0.32799 0.32696 0.12105 0.0
H15 H 0.38476 0.29934 0.98806 0.0
H16 H 0.31355 0.24374 0.07965 0.0
O17 O 0.36024 0.36802 0.05187 0.0
C18 C 0.29901 0.30883 0.13794 0.0
O19 O 0.26754 0.29828 0.11121 0.0
N20 N 0.29415 0.33443 0.99623 0.0
C21 C 0.24688 0.33174 0.91519 0.0
C22 C 0.26535 0.36797 0.93242 0.0
C23 C 0.2881 0.36896 0.97396 0.0
C24 C 0.27562 0.29927 0.97971 0.0
C25 C 0.25228 0.29715 0.93904 0.0
H26 H 0.29983 0.39766 0.9888 0.0
H27 H 0.27688 0.27304 0.99942 0.0
H28 H 0.31988 0.42956 0.08066 0.0
H29 H 0.19469 0.42074 0.08688 0.0
H30 H 0.40036 0.22121 0.98161 0.0
H31 H 0.26091 0.39541 0.91497 0.0
H32 H 0.23769 0.26888 0.92688 0.0
C33 C 0.56549 0.33593 0.53051 0.0
C34 C 0.5272 0.32163 0.52248 0.0
N35 N 0.52678 0.28226 0.53072 0.0
N36 N 0.58946 0.30618 0.54492 0.0
C37 C 0.56505 0.2734 0.54359 0.0
H38 H 0.57534 0.36621 0.52528 0.0
Co39 Co 0.64535 0.31329 0.55471 0.0
C40 C 0.62856 0.26671 0.64012 0.0
O41 O 0.58923 0.2662 0.63691 0.0
N42 N 0.70099 0.32053 0.56315 0.0
C43 C 0.76176 0.33205 0.5958 0.0
C44 C 0.7212 0.33537 0.60195 0.0
C45 C 0.72992 0.30851 0.53393 0.0
N46 N 0.76714 0.31484 0.55306 0.0
O47 O 0.6544 0.26424 0.51669 0.0
H48 H 0.70734 0.3465 0.6334 0.0
H49 H 0.72403 0.29463 0.49949 0.0
O50 O 0.64841 0.28393 0.61056 0.0
C51 C 0.64796 0.27013 0.47424 0.0
O52 O 0.63414 0.30563 0.46398 0.0
N53 N 0.6363 0.36342 0.58815 0.0
C54 C 0.60451 0.44039 0.60985 0.0
C55 C 0.59441 0.40747 0.63484 0.0
C56 C 0.6108 0.36915 0.62356 0.0
C57 C 0.64918 0.39565 0.5664 0.0
C58 C 0.63408 0.43441 0.57709 0.0
H59 H 0.59965 0.34368 0.63997 0.0
H60 H 0.66872 0.39074 0.53779 0.0
H61 H 0.57533 0.24342 0.55056 0.0
H62 H 0.50155 0.33903 0.51154 0.0
H63 H 0.78539 0.33988 0.62154 0.0
H64 H 0.57155 0.41036 0.66018 0.0
H65 H 0.64364 0.45894 0.55764 0.0
C66 C 0.75009 0.5983 0.91728 0.0
C67 C 0.77284 0.56428 0.92131 0.0
N68 N 0.77802 0.55834 0.9664 0.0
N69 N 0.74105 0.61422 0.95956 0.0
C70 C 0.75837 0.58914 0.98898 0.0
H71 H 0.73935 0.6096 0.88525 0.0
Co72 Co 0.70739 0.65835 0.96818 0.0
C73 C 0.72209 0.69442 0.06409 0.0
O74 O 0.68334 0.70109 0.06591 0.0
N75 N 0.67327 0.70334 0.97438 0.0
C76 C 0.6229 0.74722 0.97064 0.0
C77 C 0.63326 0.70683 0.96664 0.0
C78 C 0.68642 0.74185 0.98243 0.0
N79 N 0.65652 0.76902 0.98081 0.0
O80 O 0.74364 0.68989 0.93516 0.0
H81 H 0.61285 0.68205 0.95728 0.0
H82 H 0.71774 0.74988 0.98822 0.0
O83 O 0.73602 0.67586 0.02779 0.0
C84 C 0.73055 0.69285 0.89374 0.0
O85 O 0.69552 0.67659 0.88103 0.0
N86 N 0.67054 0.62521 0.99552 0.0
C87 C 0.61282 0.56998 0.01818 0.0
C88 C 0.64095 0.58613 0.05168 0.0
C89 C 0.6704 0.61298 0.03935 0.0
C90 C 0.6441 0.60857 0.96245 0.0
C91 C 0.61493 0.58108 0.973 0.0
H92 H 0.69344 0.62255 0.06483 0.0
H93 H 0.64585 0.61677 0.92735 0.0
H94 H 0.7556 0.5927 0.02596 0.0
H95 H 0.78263 0.54405 0.89297 0.0
H96 H 0.5931 0.75958 0.966 0.0
H97 H 0.64089 0.57713 0.08664 0.0
H98 H 0.59405 0.56868 0.94606 0.0
C99 C 0.43869 0.82336 0.63698 0.0
C100 C 0.47753 0.83474 0.63091 0.0
N101 N 0.4957 0.80462 0.6058 0.0
N102 N 0.43221 0.78612 0.61601 0.0
C103 C 0.46741 0.7755 0.59721 0.0
H104 H 0.41628 0.84179 0.65421 0.0
Co105 Co 0.38323 0.7591 0.61033 0.0
C106 C 0.4051 0.66948 0.60459 0.0
O107 O 0.36938 0.65746 0.5886 0.0
N108 N 0.33316 0.73325 0.60522 0.0
C109 C 0.27865 0.6995 0.62112 0.0
C110 C 0.31744 0.70925 0.63525 0.0
C111 C 0.30282 0.73884 0.57418 0.0
N112 N 0.26936 0.71824 0.58263 0.0
O113 O 0.37985 0.76308 0.67667 0.0
H114 H 0.33322 0.69937 0.66556 0.0
H115 H 0.30469 0.75908 0.54703 0.0
O116 O 0.41268 0.70732 0.61257 0.0
C117 C 0.35746 0.79234 0.69088 0.0
O118 O 0.34208 0.81574 0.66027 0.0
N119 N 0.38452 0.75895 0.54547 0.0
C120 C 0.36692 0.77023 0.4524 0.0
C121 C 0.37555 0.7315 0.46674 0.0
C122 C 0.38451 0.72649 0.51347 0.0
C123 C 0.3787 0.79696 0.53173 0.0
C124 C 0.37036 0.80333 0.48552 0.0
H125 H 0.38903 0.69635 0.52363 0.0
H126 H 0.37833 0.82245 0.5573 0.0
H127 H 0.47179 0.74724 0.57683 0.0
H128 H 0.49069 0.86377 0.64252 0.0
H129 H 0.25893 0.6802 0.63822 0.0
H130 H 0.37319 0.70492 0.44264 0.0
H131 H 0.3651 0.83395 0.47625 0.0
C132 C 0.70149 0.13302 0.03128 0.0
C133 C 0.68042 0.09729 0.0271 0.0
N134 N 0.70538 0.06744 0.01244 0.0
N135 N 0.73955 0.12574 0.01951 0.0
C136 C 0.74102 0.08558 0.00769 0.0
H137 H 0.69011 0.16243 0.04309 0.0
Co138 Co 0.77819 0.16585 0.0232 0.0
C139 C 0.85217 0.11971 0.04523 0.0
O140 O 0.8587 0.14533 0.08159 0.0
N141 N 0.81569 0.20855 0.02541 0.0
C142 C 0.86684 0.25055 0.0177 0.0
C143 C 0.85546 0.21061 0.01824 0.0
C144 C 0.80359 0.24749 0.02658 0.0
N145 N 0.83391 0.27349 0.02276 0.0
O146 O 0.77376 0.1674 0.95699 0.0
H147 H 0.87486 0.18516 0.01046 0.0
H148 H 0.77261 0.25675 0.02865 0.0
O149 O 0.82159 0.12469 0.01809 0.0
C150 C 0.7462 0.19186 0.94545 0.0
O151 O 0.72528 0.21021 0.97812 0.0
N152 N 0.77874 0.16607 0.08894 0.0
C153 C 0.76593 0.16873 0.18378 0.0
C154 C 0.77439 0.13198 0.15889 0.0
C155 C 0.78043 0.13124 0.11145 0.0
C156 C 0.76928 0.20168 0.11275 0.0
C157 C 0.76365 0.20384 0.16003 0.0
H158 H 0.78536 0.10239 0.0926 0.0
H159 H 0.76362 0.22847 0.09512 0.0
H160 H 0.76799 0.06971 0.99756 0.0
H161 H 0.64922 0.09355 0.0346 0.0
H162 H 0.89632 0.26166 0.01094 0.0
H163 H 0.77559 0.10398 0.17571 0.0
H164 H 0.75535 0.23258 0.17737 0.0
C165 C 0.92724 0.71359 0.45282 0.0
C166 C 0.96577 0.6991 0.45137 0.0
N167 N 0.99076 0.73081 0.45074 0.0
N168 N 0.92758 0.75445 0.45486 0.0
C169 C 0.96671 0.76362 0.45072 0.0
H170 H 0.90059 0.69517 0.45311 0.0
Co171 Co 0.88059 0.78647 0.46001 0.0
C172 C 0.94139 0.85116 0.48852 0.0
O173 O 0.95555 0.82942 0.52138 0.0
N174 N 0.8334 0.81566 0.46361 0.0
C175 C 0.78485 0.86139 0.46398 0.0
C176 C 0.82407 0.85349 0.45307 0.0
C177 C 0.79971 0.80102 0.48007 0.0
N178 N 0.76965 0.82829 0.48121 0.0
O179 O 0.87554 0.78427 0.39376 0.0
H180 H 0.8445 0.87419 0.43913 0.0
H181 H 0.79762 0.77077 0.49128 0.0
O182 O 0.91215 0.83763 0.46172 0.0
C183 C 0.85427 0.75399 0.3778 0.0
O184 O 0.83996 0.73024 0.4073 0.0
N185 N 0.88228 0.78611 0.52564 0.0
C186 C 0.86779 0.77966 0.61924 0.0
C187 C 0.87109 0.8177 0.6016 0.0
C188 C 0.87759 0.82026 0.55463 0.0
C189 C 0.87837 0.74906 0.54228 0.0
C190 C 0.87181 0.74514 0.5887 0.0
H191 H 0.87694 0.84976 0.54125 0.0
H192 H 0.87717 0.72214 0.51919 0.0
H193 H 0.97789 0.79353 0.44687 0.0
H194 H 0.97467 0.6678 0.45285 0.0
H195 H 0.76921 0.88969 0.46059 0.0
H196 H 0.86746 0.8453 0.6235 0.0
H197 H 0.86741 0.71511 0.59983 0.0
C198 C 0.18841 0.92372 0.1258 0.0
C199 C 0.20479 0.96164 0.12527 0.0
N200 N 0.23001 0.96105 0.09031 0.0
N201 N 0.20297 0.89946 0.09115 0.0
C202 C 0.2286 0.9229 0.07025 0.0
H203 H 0.16667 0.91444 0.1494 0.0
Co204 Co 0.18574 0.84681 0.07846 0.0
C205 C 0.20719 0.82123 0.98344 0.0
O206 O 0.17098 0.80572 0.97732 0.0
N207 N 0.16826 0.79235 0.06708 0.0
C208 C 0.13478 0.7339 0.05785 0.0
C209 C 0.13131 0.77543 0.06164 0.0
C210 C 0.19344 0.76026 0.06605 0.0
N211 N 0.17393 0.72458 0.06113 0.0
O212 O 0.23066 0.82906 0.11564 0.0
H213 H 0.10327 0.79155 0.06128 0.0
H214 H 0.22574 0.7629 0.06942 0.0
O215 O 0.21735 0.84036 0.02218 0.0
C216 C 0.2201 0.81833 0.15451 0.0
O217 O 0.18186 0.81956 0.16358 0.0
N218 N 0.14003 0.86702 0.04736 0.0
C219 C 0.0717 0.91172 0.02377 0.0
C220 C 0.10515 0.90984 0.99582 0.0
C221 C 0.13934 0.88791 0.00865 0.0
C222 C 0.10814 0.86922 0.07515 0.0
C223 C 0.07361 0.89061 0.06371 0.0
H224 H 0.16581 0.88994 0.98893 0.0
H225 H 0.11027 0.85558 0.10772 0.0
H226 H 0.24491 0.91272 0.04015 0.0
H227 H 0.19863 0.9877 0.14872 0.0
H228 H 0.11036 0.71227 0.05494 0.0
H229 H 0.10551 0.9263 0.96518 0.0
H230 H 0.0495 0.89242 0.08754 0.0
C231 C 0.09948 0.23755 0.42395 0.0
C232 C 0.06102 0.25242 0.42158 0.0
N233 N 0.0374 0.229 0.44493 0.0
N234 N 0.10026 0.20471 0.4485 0.0
C235 C 0.06192 0.20004 0.46039 0.0
H236 H 0.12549 0.25127 0.41071 0.0
Co237 Co 0.14613 0.17808 0.46911 0.0
C238 C 0.1157 0.09756 0.49172 0.0
O239 O 0.1403 0.09882 0.52826 0.0
N240 N 0.19356 0.15203 0.48923 0.0
C241 C 0.24682 0.11161 0.48473 0.0
C242 C 0.20675 0.11529 0.47303 0.0
C243 C 0.22657 0.17025 0.51002 0.0
N244 N 0.2596 0.14656 0.50738 0.0
O245 O 0.16288 0.16827 0.40683 0.0
H246 H 0.18936 0.09383 0.4505 0.0
H247 H 0.22749 0.20194 0.52195 0.0
O248 O 0.11536 0.1267 0.46531 0.0
C249 C 0.18963 0.19538 0.40377 0.0
O250 O 0.19578 0.22254 0.43867 0.0
N251 N 0.1328 0.19326 0.52998 0.0
C252 C 0.12483 0.23128 0.61768 0.0
C253 C 0.10345 0.19568 0.60405 0.0
C254 C 0.10689 0.17767 0.55924 0.0
C255 C 0.15151 0.2292 0.54215 0.0
C256 C 0.14819 0.24861 0.58576 0.0
H257 H 0.08827 0.15189 0.54858 0.0
H258 H 0.1696 0.24288 0.51772 0.0
H259 H 0.05248 0.17671 0.48151 0.0
H260 H 0.05181 0.2799 0.40638 0.0
H261 H 0.26552 0.0861 0.47433 0.0
H262 H 0.08433 0.18207 0.62773 0.0
H263 H 0.16504 0.27619 0.59496 0.0
C264 C 0.2351 0.03355 0.07948 0.0
C265 C 0.25227 0.99491 0.07665 0.0
C266 C 0.25685 0.06745 0.06892 0.0
C267 C 0.29708 0.06271 0.05584 0.0
C268 C 0.31441 0.0236 0.05203 0.0
C269 C 0.29159 0.99001 0.0621 0.0
C270 C 0.23697 0.10851 0.07275 0.0
C271 C 0.35743 0.0175 0.03914 0.0
C272 C 0.33674 0.15339 1.00024 0.0
C273 C 0.35165 0.17712 0.03905 0.0
C274 C 0.32098 0.11466 1.00455 0.0
C275 C 0.32105 0.09929 0.0486 0.0
C276 C 0.33927 0.12197 0.08715 0.0
C277 C 0.35365 0.16102 0.08204 0.0
C278 C 0.30126 0.09181 0.96275 0.0
C279 C 0.34105 0.10628 0.13446 0.0
H280 H 0.20449 0.03719 0.09004 0.0
H281 H 0.3049 0.96012 0.06025 0.0
H282 H 0.25204 0.12806 0.10099 0.0
H283 H 0.23993 0.1236 0.04037 0.0
H284 H 0.20463 0.10654 0.07991 0.0
H285 H 0.36555 0.98495 0.03451 0.0
H286 H 0.36299 0.03178 1.0068 0.0
H287 H 0.3776 0.03248 0.06657 0.0
H288 H 0.33475 0.16636 0.9672 0.0
H289 H 0.36515 0.1797 0.11191 0.0
H290 H 0.26824 0.09258 0.96585 0.0
H291 H 0.31051 0.05959 0.9605 0.0
H292 H 0.30858 0.1051 0.93026 0.0
H293 H 0.31122 0.10984 0.14971 0.0
H294 H 0.36349 0.123 0.15791 0.0
H295 H 0.34869 0.07362 0.13249 0.0
C296 C 0.98184 0.22515 0.49813 0.0
C297 C 0.99644 0.23733 0.45685 0.0
C298 C 0.94326 0.2361 0.51201 0.0
C299 C 0.91871 0.26011 0.48421 0.0
C300 C 0.93264 0.2713 0.44177 0.0
C301 C 0.97128 0.25976 0.42859 0.0
C302 C 0.92894 0.22246 0.5568 0.0
C303 C 0.90694 0.29606 0.4107 0.0
C304 C 0.80689 0.26621 0.50501 0.0
C305 C 0.80466 0.30201 0.53392 0.0
C306 C 0.84376 0.25199 0.48869 0.0
C307 C 0.87911 0.27474 0.50049 0.0
C308 C 0.87682 0.31142 0.52875 0.0
C309 C 0.83971 0.32439 0.54544 0.0
C310 C 0.84443 0.21264 0.45885 0.0
C311 C 0.91368 0.33686 0.54163 0.0
H312 H 1.00096 0.20814 0.52048 0.0
H313 H 0.98195 0.26862 0.39625 0.0
H314 H 0.92356 0.2492 0.58115 0.0
H315 H 0.90002 0.20607 0.55054 0.0
H316 H 0.95087 0.20233 0.57339 0.0
H317 H 0.92208 0.30223 0.37872 0.0
H318 H 0.87839 0.27989 0.40099 0.0
H319 H 0.89925 0.32537 0.42935 0.0
H320 H 0.77996 0.24857 0.49625 0.0
H321 H 0.838 0.35227 0.56733 0.0
H322 H 0.87315 0.19619 0.46295 0.0
H323 H 0.84023 0.21913 0.42216 0.0
H324 H 0.81973 0.19239 0.46706 0.0
H325 H 0.93575 0.31927 0.56142 0.0
H326 H 0.90664 0.36519 0.56272 0.0
H327 H 0.92821 0.34491 0.50999 0.0
C328 C 0.66805 0.00809 0.03372 0.0
C329 C 0.69652 0.02481 1.0066 0.0
C330 C 0.65977 0.9665 0.02942 0.0
C331 C 0.68038 0.94101 0.9971 0.0
C332 C 0.70882 0.95769 0.96919 0.0
C333 C 0.71665 0.99943 0.97439 0.0
C334 C 0.62956 0.94973 0.06014 0.0
C335 C 0.73124 0.9314 0.93417 0.0
C336 C 0.69058 0.82981 0.01705 0.0
C337 C 0.66085 0.81229 0.98642 0.0
C338 C 0.69701 0.87171 0.02114 0.0
C339 C 0.67322 0.89666 0.9937 0.0
C340 C 0.64274 0.87923 0.96314 0.0
C341 C 0.63678 0.83717 0.96004 0.0
C342 C 0.72946 0.88922 0.05456 0.0
C343 C 0.61694 0.90493 0.9332 0.0
H344 H 0.65288 0.02742 0.05919 0.0
H345 H 0.73833 0.01229 0.95303 0.0
H346 H 0.60578 0.93286 0.03892 0.0
H347 H 0.64446 0.92803 0.08242 0.0
H348 H 0.61524 0.97384 0.08253 0.0
H349 H 0.75136 0.94929 0.91408 0.0
H350 H 0.74954 0.90883 0.95184 0.0
H351 H 0.70973 0.91436 0.90988 0.0
H352 H 0.7088 0.81062 0.03796 0.0
H353 H 0.61408 0.82359 0.93602 0.0
H354 H 0.71651 0.91216 0.07951 0.0
H355 H 0.75226 0.9048 0.03565 0.0
H356 H 0.7447 0.86569 0.07407 0.0
H357 H 0.60127 0.92843 0.95497 0.0
H358 H 0.5942 0.88674 0.91169 0.0
H359 H 0.63607 0.92088 0.91013 0.0
C360 C 0.05599 0.69528 0.44753 0.0
C361 C 0.03379 0.73051 0.45831 0.0
C362 C 0.0966 0.69263 0.46173 0.0
C363 C 0.11545 0.72611 0.48704 0.0
C364 C 0.09397 0.76259 0.49533 0.0
C365 C 0.05345 0.76425 0.48109 0.0
C366 C 0.11852 0.65319 0.45221 0.0
C367 C 0.11302 0.79912 0.52192 0.0
C368 C 0.19592 0.70813 0.57872 0.0
C369 C 0.23108 0.71839 0.55753 0.0
C370 C 0.15839 0.70932 0.55549 0.0
C371 C 0.15565 0.7216 0.51001 0.0
C372 C 0.19091 0.73147 0.48797 0.0
C373 C 0.22823 0.7295 0.51188 0.0
C374 C 0.12147 0.69841 0.58021 0.0
C375 C 0.18916 0.74487 0.43955 0.0
H376 H 0.04128 0.66927 0.42935 0.0
H377 H 0.03663 0.79132 0.49038 0.0
H378 H 0.14841 0.65863 0.43859 0.0
H379 H 0.12346 0.63844 0.48488 0.0
H380 H 0.10149 0.63197 0.42719 0.0
H381 H 0.09319 0.82608 0.52239 0.0
H382 H 0.11998 0.79222 0.55807 0.0
H383 H 0.1417 0.80671 0.50672 0.0
H384 H 0.19742 0.70002 0.614 0.0
H385 H 0.25512 0.73676 0.49472 0.0
H386 H 0.10398 0.67467 0.55917 0.0
H387 H 0.10184 0.72532 0.5851 0.0
H388 H 0.12894 0.68727 0.61453 0.0
H389 H 0.17314 0.72197 0.41574 0.0
H390 H 0.21946 0.74978 0.42654 0.0
H391 H 0.17202 0.77352 0.43865 0.0
C392 C 0.82422 0.5005 0.95991 0.0
C393 C 0.79498 0.52252 0.98441 0.0
C394 C 0.83512 0.46144 0.97072 0.0
C395 C 0.81684 0.44422 0.00753 0.0
C396 C 0.79009 0.46768 0.03513 0.0
C397 C 0.77929 0.50658 0.02309 0.0
C398 C 0.86367 0.43747 0.94028 0.0
C399 C 0.7706 0.45064 0.07527 0.0
C400 C 0.79849 0.33118 0.99242 0.0
C401 C 0.83028 0.31626 0.01895 0.0
C402 C 0.79384 0.37276 0.98862 0.0
C403 C 0.8213 0.40018 0.01272 0.0
C404 C 0.85334 0.38529 0.03998 0.0
C405 C 0.85774 0.34329 0.04231 0.0
C406 C 0.75978 0.38726 0.95831 0.0
C407 C 0.88267 0.41366 0.06682 0.0
H408 H 0.8372 0.51312 0.93071 0.0
H409 H 0.7567 0.52334 0.04223 0.0
H410 H 0.88689 0.42258 0.96139 0.0
H411 H 0.84685 0.41325 0.91919 0.0
H412 H 0.87878 0.4567 0.91663 0.0
H413 H 0.75615 0.47461 0.09771 0.0
H414 H 0.74731 0.42831 0.0621 0.0
H415 H 0.79295 0.43457 0.0964 0.0
H416 H 0.77761 0.31008 0.97395 0.0
H417 H 0.88208 0.33151 0.0631 0.0
H418 H 0.77182 0.40479 0.93101 0.0
H419 H 0.73997 0.40776 0.97903 0.0
H420 H 0.74139 0.36187 0.94154 0.0
H421 H 0.89855 0.43195 0.04294 0.0
H422 H 0.90527 0.39726 0.08734 0.0
H423 H 0.86634 0.43512 0.09051 0.0
C424 C 0.54617 0.78085 0.5497 0.0
C425 C 0.53589 0.80519 0.58913 0.0
C426 C 0.58457 0.78283 0.53198 0.0
C427 C 0.61333 0.81006 0.55391 0.0
C428 C 0.60346 0.83416 0.59412 0.0
C429 C 0.56505 0.83123 0.61137 0.0
C430 C 0.59416 0.75627 0.48932 0.0
C431 C 0.63327 0.86359 0.61855 0.0
C432 C 0.72399 0.79539 0.53176 0.0
C433 C 0.73032 0.8234 0.49897 0.0
C434 C 0.68601 0.7903 0.54942 0.0
C435 C 0.65351 0.81407 0.53436 0.0
C436 C 0.65961 0.84243 0.5014 0.0
C437 C 0.69787 0.84665 0.48401 0.0
C438 C 0.68075 0.75971 0.58452 0.0
C439 C 0.62575 0.86857 0.48474 0.0
H440 H 0.52398 0.76089 0.53189 0.0
H441 H 0.55788 0.84953 0.64236 0.0
H442 H 0.60065 0.77538 0.46091 0.0
H443 H 0.62143 0.73811 0.49607 0.0
H444 H 0.56917 0.73535 0.47762 0.0
H445 H 0.62105 0.87983 0.64973 0.0
H446 H 0.66087 0.84737 0.62896 0.0
H447 H 0.64213 0.88626 0.59477 0.0
H448 H 0.74889 0.7778 0.54431 0.0
H449 H 0.70226 0.86801 0.45839 0.0
H450 H 0.65676 0.73785 0.57226 0.0
H451 H 0.67127 0.77522 0.61744 0.0
H452 H 0.70873 0.74265 0.59148 0.0
H453 H 0.6009 0.84925 0.46909 0.0
H454 H 0.63538 0.88908 0.45888 0.0
H455 H 0.61365 0.88719 0.51434 0.0
C456 C 0.2236 0.50181 0.11782 0.0
C457 C 0.25278 0.4826 0.09072 0.0
C458 C 0.21471 0.54288 0.11487 0.0
C459 C 0.23515 0.56512 0.08349 0.0
C460 C 0.26606 0.54637 0.05762 0.0
C461 C 0.27469 0.50527 0.06176 0.0
C462 C 0.18208 0.56191 0.14372 0.0
C463 C 0.28836 0.56899 0.02361 0.0
C464 C 0.17469 0.65156 0.03801 0.0
C465 C 0.19111 0.68505 0.06445 0.0
C466 C 0.18983 0.61252 0.04266 0.0
C467 C 0.22171 0.60683 0.0752 0.0
C468 C 0.23883 0.64068 0.10153 0.0
C469 C 0.22348 0.67946 0.0956 0.0
C470 C 0.1711 0.57724 0.0135 0.0
C471 C 0.27237 0.63582 0.13708 0.0
H472 H 0.20696 0.48424 0.14046 0.0
H473 H 0.29695 0.49029 0.04042 0.0
H474 H 0.19275 0.59078 0.16201 0.0
H475 H 0.15593 0.56908 0.12103 0.0
H476 H 0.17189 0.54168 0.16958 0.0
H477 H 0.31418 0.55144 0.00976 0.0
H478 H 0.26763 0.57556 0.99435 0.0
H479 H 0.29947 0.59844 0.03996 0.0
H480 H 0.14992 0.65601 0.01369 0.0
H481 H 0.23582 0.70532 0.11657 0.0
H482 H 0.15634 0.5567 0.03593 0.0
H483 H 0.19456 0.5595 0.99508 0.0
H484 H 0.14842 0.5871 0.98772 0.0
H485 H 0.26157 0.61797 0.1648 0.0
H486 H 0.28378 0.6654 0.15295 0.0
H487 H 0.2976 0.61882 0.12122 0.0
C488 C 0.33207 0.14103 0.49199 0.0
C489 C 0.30077 0.15955 0.51672 0.0
C490 C 0.37136 0.15639 0.49669 0.0
C491 C 0.3797 0.19145 0.52649 0.0
C492 C 0.3488 0.20916 0.55321 0.0
C493 C 0.30985 0.1929 0.54819 0.0
C494 C 0.40342 0.13635 0.46778 0.0
C495 C 0.35636 0.24663 0.58535 0.0
C496 C 0.48725 0.22601 0.55736 0.0
C497 C 0.49189 0.25635 0.52702 0.0
C498 C 0.45122 0.20388 0.5571 0.0
C499 C 0.41924 0.21231 0.52572 0.0
C500 C 0.42447 0.24184 0.49392 0.0
C501 C 0.46065 0.26333 0.4949 0.0
C502 C 0.44694 0.17233 0.5912 0.0
C503 C 0.3915 0.25139 0.45935 0.0
H504 H 0.32577 0.11552 0.46725 0.0
H505 H 0.28623 0.207 0.56815 0.0
H506 H 0.41073 0.15585 0.44001 0.0
H507 H 0.43134 0.13251 0.489 0.0
H508 H 0.39375 0.10628 0.45159 0.0
H509 H 0.33029 0.25454 0.60677 0.0
H510 H 0.38301 0.24235 0.60849 0.0
H511 H 0.36279 0.27257 0.5649 0.0
H512 H 0.5112 0.22064 0.58239 0.0
H513 H 0.46436 0.2861 0.47071 0.0
H514 H 0.4369 0.14316 0.57307 0.0
H515 H 0.42366 0.18195 0.61585 0.0
H516 H 0.47544 0.16731 0.61099 0.0
H517 H 0.38302 0.22361 0.43739 0.0
H518 H 0.40046 0.27497 0.43669 0.0
H519 H 0.36443 0.26201 0.47757 0.0
C520 C 0.58155 0.50144 0.00844 0.0
C521 C 0.58165 0.54096 0.02929 0.0
C522 C 0.54957 0.47493 0.01363 0.0
C523 C 0.51637 0.48867 0.03933 0.0
C524 C 0.51715 0.52816 0.06201 0.0
C525 C 0.55004 0.55377 0.05702 0.0
C526 C 0.55041 0.43289 0.9896 0.0
C527 C 0.48218 0.54429 0.08905 0.0
C528 C 0.4184 0.43895 0.99518 0.0
C529 C 0.41243 0.41056 0.02745 0.0
C530 C 0.45102 0.46575 1.00003 0.0
C531 C 0.47916 0.4635 0.03751 0.0
C532 C 0.47275 0.43557 0.07098 0.0
C533 C 0.43908 0.4097 0.06585 0.0
C534 C 0.45599 0.49569 0.96415 0.0
C535 C 0.50235 0.43177 0.11098 0.0
H536 H 0.60613 0.49162 0.98707 0.0
H537 H 0.5501 0.5845 0.07283 0.0
H538 H 0.5423 0.41009 0.01356 0.0
H539 H 0.52794 0.43068 0.96033 0.0
H540 H 0.58031 0.42516 0.97602 0.0
H541 H 0.48932 0.57356 0.10895 0.0
H542 H 0.45622 0.5489 0.06498 0.0
H543 H 0.47282 0.5222 0.11323 0.0
H544 H 0.39753 0.44006 0.96575 0.0
H545 H 0.43459 0.38765 0.09074 0.0
H546 H 0.48304 0.48797 0.94442 0.0
H547 H 0.46039 0.52666 0.981 0.0
H548 H 0.42971 0.49596 0.93948 0.0
H549 H 0.53119 0.41996 0.09789 0.0
H550 H 0.49147 0.41107 0.13599 0.0
H551 H 0.50856 0.46186 0.12933 0.0
C552 C 0.56997 0.49794 0.57329 0.0
C553 C 0.58086 0.47884 0.6134 0.0
C554 C 0.54443 0.53167 0.57463 0.0
C555 C 0.52882 0.54674 0.61706 0.0
C556 C 0.54067 0.52862 0.65797 0.0
C557 C 0.56652 0.49492 0.65568 0.0
C558 C 0.53259 0.54991 0.53012 0.0
C559 C 0.52477 0.5438 0.70392 0.0
C560 C 0.4773 0.64989 0.61931 0.0
C561 C 0.43699 0.63868 0.6106 0.0
C562 C 0.50754 0.62041 0.62267 0.0
C563 C 0.49721 0.57877 0.61752 0.0
C564 C 0.45646 0.5674 0.60995 0.0
C565 C 0.42699 0.59738 0.6065 0.0
C566 C 0.55064 0.63378 0.63052 0.0
C567 C 0.44399 0.52342 0.60433 0.0
H568 H 0.57997 0.48548 0.54021 0.0
H569 H 0.57499 0.48077 0.68694 0.0
H570 H 0.50033 0.54399 0.52148 0.0
H571 H 0.5368 0.58321 0.53393 0.0
H572 H 0.5502 0.53725 0.50082 0.0
H573 H 0.53965 0.52903 0.73302 0.0
H574 H 0.529 0.57702 0.70984 0.0
H575 H 0.49209 0.53776 0.70391 0.0
H576 H 0.48537 0.68167 0.6226 0.0
H577 H 0.39596 0.58829 0.60014 0.0
H578 H 0.56798 0.62347 0.6001 0.0
H579 H 0.56445 0.6197 0.66066 0.0
H580 H 0.55354 0.6672 0.63644 0.0
H581 H 0.4573 0.50837 0.57317 0.0
H582 H 0.41092 0.51964 0.60093 0.0
H583 H 0.45539 0.50752 0.63434 0.0
C584 C 0.04217 0.97742 1.00005 0.0
C585 C 0.03656 0.93848 0.01458 0.0
C586 C 0.01025 0.00516 0.99832 0.0
C587 C 0.97176 0.99395 0.01178 0.0
C588 C 0.96534 0.95391 0.02366 0.0
C589 C 0.99768 0.92669 0.02471 0.0
C590 C 0.01842 0.04737 0.98498 0.0
C591 C 0.92491 0.94054 0.03826 0.0
C592 C 0.90996 0.07783 0.07063 0.0
C593 C 0.88141 0.08639 0.03598 0.0
C594 C 0.93901 0.04768 0.06314 0.0
C595 C 0.94004 0.02542 0.01966 0.0
C596 C 0.91111 0.03353 0.9845 0.0
C597 C 0.88195 0.06379 0.99315 0.0
C598 C 0.96882 0.03982 0.10191 0.0
C599 C 0.91136 0.01067 0.93762 0.0
H600 H 0.07198 0.98712 0.99245 0.0
H601 H 0.99275 0.89645 0.03504 0.0
H602 H 0.99469 0.0569 0.9603 0.0
H603 H 0.01808 0.06895 0.01609 0.0
H604 H 0.04798 0.04964 0.9692 0.0
H605 H 0.92348 0.90732 0.0409 0.0
H606 H 0.91864 0.95595 0.07244 0.0
H607 H 0.90084 0.94925 0.01356 0.0
H608 H 0.90969 0.09479 0.104 0.0
H609 H 0.86007 0.07021 0.96615 0.0
H610 H 0.99972 0.04554 0.09135 0.0
H611 H 0.96726 0.00764 0.10972 0.0
H612 H 0.96345 0.05918 0.13396 0.0
H613 H 0.94013 0.01606 0.92134 0.0
H614 H 0.88632 0.01981 0.91433 0.0
H615 H 0.90916 0.97766 0.94105 0.0
C616 C 0.0054 0.88804 0.48232 0.0
C617 C 0.96341 0.88825 0.47941 0.0
C618 C 0.02764 0.92328 0.47799 0.0
C619 C 0.00744 0.96029 0.47244 0.0
C620 C 0.96491 0.96054 0.46822 0.0
C621 C 0.94335 0.92426 0.47102 0.0
C622 C 0.07286 0.9211 0.48148 0.0
C623 C 0.94214 0.99944 0.46343 0.0
C624 C 0.06923 0.04981 0.52447 0.0
C625 C 0.08512 0.06501 0.48549 0.0
C626 C 0.04194 0.01745 0.52034 0.0
C627 C 0.03104 0.99884 0.47614 0.0
C628 C 0.04617 0.01476 0.43646 0.0
C629 C 0.07262 0.04813 0.44159 0.0
C630 C 0.02587 1.0023 0.56357 0.0
C631 C 0.03615 0.99523 0.38882 0.0
H632 H 0.02101 0.86021 0.4885 0.0
H633 H 0.91085 0.9245 0.46907 0.0
H634 H 0.0862 0.93806 0.45451 0.0
H635 H 0.08384 0.9352 0.51549 0.0
H636 H 0.08385 0.8894 0.47791 0.0
H637 H 0.90964 0.99403 0.45566 0.0
H638 H 0.94571 0.01901 0.49607 0.0
H639 H 0.95442 0.01635 0.43578 0.0
H640 H 0.07831 0.06323 0.55848 0.0
H641 H 0.08489 0.05984 0.41141 0.0
H642 H 0.03871 0.97208 0.56909 0.0
H643 H 0.99281 0.9988 0.55999 0.0
H644 H 0.03337 0.02298 0.59464 0.0
H645 H 0.05011 0.96479 0.38516 0.0
H646 H 0.04709 0.01336 0.36137 0.0
H647 H 1.0033 0.99095 0.38346 0.0
C648 C 0.31469 0.25445 0.18857 0.0
C649 C 0.30096 0.29391 0.18387 0.0
C650 C 0.30226 0.23246 0.22474 0.0
C651 C 0.2755 0.25059 0.25667 0.0
C652 C 0.26432 0.29167 0.25407 0.0
C653 C 0.27693 0.31272 0.21734 0.0
C654 C 0.31506 0.18889 0.22608 0.0
C655 C 0.23664 0.31252 0.28813 0.0
C656 C 0.19785 0.19431 0.31861 0.0
C657 C 0.21447 0.19813 0.36359 0.0
C658 C 0.21901 0.20841 0.28221 0.0
C659 C 0.25727 0.22666 0.29153 0.0
C660 C 0.2755 0.22678 0.33614 0.0
C661 C 0.25388 0.21241 0.37161 0.0
C662 C 0.1992 0.2067 0.23458 0.0
C663 C 0.31642 0.24518 0.34733 0.0
H664 H 0.33242 0.23958 0.16187 0.0
H665 H 0.26548 0.34286 0.21279 0.0
H666 H 0.3191 0.1801 0.26194 0.0
H667 H 0.29148 0.16913 0.20828 0.0
H668 H 0.34348 0.18316 0.20817 0.0
H669 H 0.23347 0.34534 0.28347 0.0
H670 H 0.20649 0.29832 0.28385 0.0
H671 H 0.24793 0.30894 0.32396 0.0
H672 H 0.16738 0.1833 0.31249 0.0
H673 H 0.26695 0.21473 0.40647 0.0
H674 H 0.22046 0.19494 0.20847 0.0
H675 H 0.19045 0.23771 0.22627 0.0
H676 H 0.17196 0.1873 0.23171 0.0
H677 H 0.33821 0.23297 0.32207 0.0
H678 H 0.32782 0.23935 0.38253 0.0
H679 H 0.31487 0.27841 0.34497 0.0
C680 C 0.74082 0.17162 0.86001 0.0
C681 C 0.73702 0.20087 0.89705 0.0
C682 C 0.72662 0.17928 0.81516 0.0
C683 C 0.70886 0.21722 0.80729 0.0
C684 C 0.70708 0.24746 0.8443 0.0
C685 C 0.72087 0.23881 0.88859 0.0
C686 C 0.72899 0.14621 0.7767 0.0
C687 C 0.68917 0.28858 0.83759 0.0
C688 C 0.69158 0.25574 0.68811 0.0
C689 C 0.65001 0.25035 0.68056 0.0
C690 C 0.71158 0.24345 0.72818 0.0
C691 C 0.68963 0.22496 0.76147 0.0
C692 C 0.64804 0.21771 0.75299 0.0
C693 C 0.62876 0.2306 0.71284 0.0
C694 C 0.75586 0.25196 0.73582 0.0
C695 C 0.62349 0.19782 0.78731 0.0
H696 H 0.75314 0.14222 0.86645 0.0
H697 H 0.71834 0.26175 0.91701 0.0
H698 H 0.69831 0.13545 0.76594 0.0
H699 H 0.74233 0.158 0.74615 0.0
H700 H 0.74699 0.12001 0.78722 0.0
H701 H 0.69296 0.30975 0.86902 0.0
H702 H 0.70327 0.30225 0.80866 0.0
H703 H 0.65667 0.28534 0.82851 0.0
H704 H 0.70846 0.2706 0.66331 0.0
H705 H 0.59676 0.22586 0.70726 0.0
H706 H 0.77196 0.22436 0.74543 0.0
H707 H 0.76063 0.27544 0.76486 0.0
H708 H 0.76937 0.26278 0.70479 0.0
H709 H 0.63801 0.16935 0.79686 0.0
H710 H 0.59248 0.1908 0.77372 0.0
H711 H 0.6218 0.21818 0.8193 0.0
C712 C 0.82326 0.70973 0.31272 0.0
C713 C 0.84357 0.74574 0.32783 0.0
C714 C 0.80898 0.7022 0.26689 0.0
C715 C 0.81514 0.73133 0.23486 0.0
C716 C 0.83739 0.76689 0.24917 0.0
C717 C 0.85133 0.77373 0.29557 0.0
C718 C 0.78536 0.66392 0.25343 0.0
C719 C 0.84492 0.79851 0.216 0.0
C720 C 0.78818 0.69409 0.10984 0.0
C721 C 0.74815 0.70675 0.10551 0.0
C722 C 0.81133 0.70368 0.15092 0.0
C723 C 0.794 0.72631 0.18845 0.0
C724 C 0.75422 0.7406 0.18333 0.0
C725 C 0.73195 0.73075 0.1421 0.0
C726 C 0.85376 0.68823 0.15483 0.0
C727 C 0.73435 0.7647 0.2223 0.0
H728 H 0.81746 0.68759 0.33712 0.0
H729 H 0.86716 0.80153 0.30683 0.0
H730 H 0.75365 0.67171 0.24526 0.0
H731 H 0.79731 0.64793 0.22202 0.0
H732 H 0.78603 0.64286 0.2813 0.0
H733 H 0.86723 0.82144 0.23043 0.0
H734 H 0.85571 0.78415 0.18309 0.0
H735 H 0.81645 0.81426 0.2079 0.0
H736 H 0.80107 0.67579 0.0817 0.0
H737 H 0.70127 0.74127 0.13903 0.0
H738 H 0.85534 0.66392 0.17894 0.0
H739 H 0.87429 0.7128 0.16918 0.0
H740 H 0.86459 0.67585 0.12101 0.0
H741 H 0.73073 0.74542 0.25133 0.0
H742 H 0.70434 0.77614 0.21166 0.0
H743 H 0.75335 0.79087 0.23542 0.0
C744 C 0.27431 0.83188 0.94892 0.0
C745 C 0.23495 0.81679 0.94462 0.0
C746 C 0.29994 0.82769 0.91148 0.0
C747 C 0.28579 0.80821 0.86875 0.0
C748 C 0.24633 0.7924 0.86463 0.0
C749 C 0.22159 0.79678 0.90244 0.0
C750 C 0.34188 0.84472 0.91736 0.0
C751 C 0.22973 0.77172 0.81974 0.0
C752 C 0.3238 0.83351 0.75351 0.0
C753 C 0.34499 0.79836 0.73939 0.0
C754 C 0.30654 0.8381 0.79671 0.0
C755 C 0.31051 0.80683 0.82697 0.0
C756 C 0.33393 0.77229 0.81417 0.0
C757 C 0.35088 0.76841 0.77045 0.0
C758 C 0.28182 0.87541 0.80865 0.0
C759 C 0.33922 0.73841 0.84556 0.0
H760 H 0.28502 0.84717 0.98138 0.0
H761 H 0.19135 0.78479 0.89857 0.0
H762 H 0.36399 0.8212 0.90649 0.0
H763 H 0.34502 0.86995 0.8949 0.0
H764 H 0.34944 0.85618 0.95357 0.0
H765 H 0.19902 0.75959 0.82274 0.0
H766 H 0.22875 0.79347 0.79264 0.0
H767 H 0.24953 0.74639 0.808 0.0
H768 H 0.31942 0.85709 0.73004 0.0
H769 H 0.36725 0.7412 0.75992 0.0
H770 H 0.29064 0.88901 0.84362 0.0
H771 H 0.24971 0.86688 0.80891 0.0
H772 H 0.28502 0.8987 0.78362 0.0
H773 H 0.34717 0.75069 0.88133 0.0
H774 H 0.36277 0.71669 0.83385 0.0
H775 H 0.31054 0.72168 0.84642 0.0
C776 C 0.78785 0.73574 0.87088 0.0
C777 C 0.75468 0.71065 0.85869 0.0
C778 C 0.81022 0.75215 0.8367 0.0
C779 C 0.79954 0.74251 0.78943 0.0
C780 C 0.76611 0.71713 0.7772 0.0
C781 C 0.74404 0.70188 0.81184 0.0
C782 C 0.84514 0.77979 0.85105 0.0
C783 C 0.75383 0.70553 0.72733 0.0
C784 C 0.82683 0.80056 0.68793 0.0
C785 C 0.85606 0.77526 0.66759 0.0
C786 C 0.8106 0.79234 0.73003 0.0
C787 C 0.82338 0.75763 0.75203 0.0
C788 C 0.85485 0.73368 0.73339 0.0
C789 C 0.871 0.74298 0.69171 0.0
C790 C 0.7776 0.81911 0.74906 0.0
C791 C 0.86927 0.69623 0.75539 0.0
H792 H 0.79607 0.74283 0.90702 0.0
H793 H 0.71862 0.68232 0.80197 0.0
H794 H 0.87325 0.76634 0.83782 0.0
H795 H 0.84094 0.8092 0.83574 0.0
H796 H 0.84874 0.78547 0.88911 0.0
H797 H 0.72736 0.68508 0.72368 0.0
H798 H 0.74653 0.73304 0.70932 0.0
H799 H 0.77905 0.69012 0.70952 0.0
H800 H 0.81481 0.82547 0.66972 0.0
H801 H 0.89425 0.72379 0.67695 0.0
H802 H 0.78172 0.82492 0.78702 0.0
H803 H 0.7483 0.80366 0.74183 0.0
H804 H 0.77638 0.84857 0.73331 0.0
H805 H 0.87479 0.70276 0.79305 0.0
H806 H 0.89719 0.68393 0.74025 0.0
H807 H 0.84572 0.67251 0.75035 0.0
C808 C 0.36485 0.75235 0.36607 0.0
C809 C 0.35115 0.77601 0.40446 0.0
C810 C 0.34829 0.75655 0.32135 0.0
C811 C 0.31755 0.7853 0.31473 0.0
C812 C 0.30421 0.80976 0.35315 0.0
C813 C 0.32082 0.80457 0.39734 0.0
C814 C 0.36296 0.72954 0.28138 0.0
C815 C 0.27143 0.84076 0.34786 0.0
C816 C 0.28624 0.82419 0.19878 0.0
C817 C 0.24918 0.80478 0.18979 0.0
C818 C 0.3102 0.81654 0.23817 0.0
C819 C 0.29701 0.78831 0.26852 0.0
C820 C 0.26108 0.76641 0.25732 0.0
C821 C 0.23744 0.77525 0.21842 0.0
C822 C 0.34807 0.84081 0.24903 0.0
C823 C 0.24619 0.73545 0.28799 0.0
H824 H 0.38843 0.73041 0.37094 0.0
H825 H 0.30907 0.82231 0.4266 0.0
H826 H 0.33813 0.70974 0.26654 0.0
H827 H 0.37255 0.74805 0.25367 0.0
H828 H 0.38841 0.71015 0.29177 0.0
H829 H 0.2667 0.85956 0.38048 0.0
H830 H 0.27879 0.86105 0.32086 0.0
H831 H 0.24284 0.82524 0.3367 0.0
H832 H 0.29523 0.84718 0.17678 0.0
H833 H 0.20896 0.75986 0.21118 0.0
H834 H 0.37313 0.82087 0.25908 0.0
H835 H 0.34333 0.86315 0.27874 0.0
H836 H 0.35696 0.8574 0.21935 0.0
H837 H 0.27072 0.71462 0.29731 0.0
H838 H 0.22088 0.71726 0.27129 0.0
H839 H 0.23583 0.75102 0.3205 0.0
C840 C 0.14169 0.22492 0.70037 0.0
C841 C 0.12686 0.24865 0.66587 0.0
C842 C 0.15504 0.24293 0.7434 0.0
C843 C 0.15278 0.28555 0.75203 0.0
C844 C 0.13407 0.3091 0.71887 0.0
C845 C 0.12164 0.29035 0.67582 0.0
C846 C 0.17491 0.21676 0.7779 0.0
C847 C 0.13007 0.35441 0.72739 0.0
C848 C 0.18007 0.32139 0.87577 0.0
C849 C 0.22108 0.32912 0.87303 0.0
C850 C 0.15643 0.31005 0.83597 0.0
C851 C 0.17473 0.30543 0.79295 0.0
C852 C 0.21573 0.31562 0.78987 0.0
C853 C 0.23843 0.32765 0.83016 0.0
C854 C 0.11266 0.30046 0.84041 0.0
C855 C 0.23639 0.31084 0.74459 0.0
H856 H 0.14601 0.19272 0.6924 0.0
H857 H 0.10996 0.30859 0.64899 0.0
H858 H 0.20751 0.2235 0.78098 0.0
H859 H 0.16265 0.22347 0.81247 0.0
H860 H 0.1709 0.18396 0.76768 0.0
H861 H 0.10844 0.36702 0.70226 0.0
H862 H 0.1202 0.36272 0.7628 0.0
H863 H 0.15967 0.36884 0.72416 0.0
H864 H 0.16696 0.32248 0.9093 0.0
H865 H 0.27032 0.33328 0.82854 0.0
H866 H 0.10829 0.26717 0.83705 0.0
H867 H 0.09413 0.31321 0.81253 0.0
H868 H 0.10158 0.31246 0.87426 0.0
H869 H 0.23739 0.27831 0.7323 0.0
H870 H 0.26754 0.32278 0.74763 0.0
H871 H 0.21937 0.32678 0.71797 0.0
C872 C 0.72729 0.14427 0.24841 0.0
C873 C 0.75567 0.17082 0.23314 0.0
C874 C 0.7111 0.15135 0.29217 0.0
C875 C 0.72352 0.18583 0.32109 0.0
C876 C 0.75489 0.21045 0.30746 0.0
C877 C 0.7705 0.20267 0.26366 0.0
C878 C 0.67835 0.12386 0.30563 0.0
C879 C 0.76958 0.24719 0.33742 0.0
C880 C 0.64894 0.24755 0.39103 0.0
C881 C 0.66204 0.24176 0.43641 0.0
C882 C 0.66725 0.22758 0.35331 0.0
C883 C 0.6994 0.20071 0.36095 0.0
C884 C 0.71079 0.19224 0.40665 0.0
C885 C 0.69196 0.21297 0.44404 0.0
C886 C 0.65391 0.23753 0.30525 0.0
C887 C 0.74387 0.16257 0.41595 0.0
H888 H 0.71569 0.11956 0.22503 0.0
H889 H 0.79299 0.22282 0.25233 0.0
H890 H 0.6811 0.11903 0.34289 0.0
H891 H 0.64879 0.13809 0.29897 0.0
H892 H 0.67882 0.094 0.28542 0.0
H893 H 0.7977 0.25965 0.32505 0.0
H894 H 0.74628 0.27112 0.33729 0.0
H895 H 0.77495 0.23972 0.37363 0.0
H896 H 0.62544 0.26933 0.38486 0.0
H897 H 0.70213 0.20824 0.47904 0.0
H898 H 0.64746 0.20938 0.28301 0.0
H899 H 0.67835 0.2537 0.28959 0.0
H900 H 0.62671 0.25688 0.30511 0.0
H901 H 0.73555 0.13222 0.39958 0.0
H902 H 0.74998 0.16012 0.45342 0.0
H903 H 0.77182 0.17174 0.40026 0.0
loop_
_geom_bond_atom_site_label_1
_geom_bond_atom_site_label_2
_geom_bond_distance
_geom_bond_site_symmetry_2
_ccdc_geom_bond_type
C0 C1 1.351 . S
C0 N3 1.368 . S
C0 H5 0.931 . S
C1 C0 1.351 . S
C1 N2 1.373 . S
C1 H29 0.930 . S
N2 C1 1.373 . S
N2 C4 1.340 . S
N3 C0 1.368 . S
N3 C4 1.321 . S
N3 Co6 2.135 . S
C4 N2 1.340 . S
C4 N3 1.321 . S
C4 H28 0.930 . S
H5 C0 0.931 . S
Co6 N3 2.135 . S
Co6 N9 2.121 . S
Co6 O14 2.055 . S
Co6 O17 2.039 . S
Co6 N20 2.140 . S
C7 O8 1.227 . S
C7 O17 1.265 . S
O8 C7 1.227 . S
N9 Co6 2.121 . S
N9 C11 1.375 . S
N9 C12 1.313 . S
C10 C11 1.338 . S
C10 N13 1.377 . S
C10 H30 0.930 . S
C11 N9 1.375 . S
C11 C10 1.338 . S
C11 H15 0.931 . S
C12 N9 1.313 . S
C12 N13 1.344 . S
C12 H16 0.930 . S
N13 C10 1.377 . S
N13 C12 1.344 . S
O14 Co6 2.055 . S
O14 C18 1.253 . S
H15 C11 0.931 . S
H16 C12 0.930 . S
O17 Co6 2.039 . S
O17 C7 1.265 . S
C18 O14 1.253 . S
C18 O19 1.227 . S
O19 C18 1.227 . S
N20 Co6 2.140 . S
N20 C23 1.346 1_554 S
N20 C24 1.345 1_554 S
C21 C22 1.387 . S
C21 C25 1.391 . S
C22 C21 1.387 . S
C22 C23 1.369 . S
C22 H31 0.929 . S
C23 N20 1.346 1_556 S
C23 C22 1.369 . S
C23 H26 0.928 . S
C24 N20 1.345 1_556 S
C24 C25 1.371 . S
C24 H27 0.931 1_556 S
C25 C21 1.391 . S
C25 C24 1.371 . S
C25 H32 0.930 . S
H26 C23 0.928 . S
H27 C24 0.931 1_554 S
H28 C4 0.930 . S
H29 C1 0.930 . S
H30 C10 0.930 . S
H31 C22 0.929 . S
H32 C25 0.930 . S
C33 C34 1.351 . S
C33 N36 1.368 . S
C33 H38 0.931 . S
C34 C33 1.351 . S
C34 N35 1.373 . S
C34 H62 0.930 . S
N35 C34 1.373 . S
N35 C37 1.340 . S
N36 C33 1.368 . S
N36 C37 1.321 . S
N36 Co39 2.135 . S
C37 N35 1.340 . S
C37 N36 1.321 . S
C37 H61 0.930 . S
H38 C33 0.931 . S
Co39 N36 2.135 . S
Co39 N42 2.121 . S
Co39 O47 2.055 . S
Co39 O50 2.039 . S
Co39 N53 2.140 . S
C40 O41 1.227 . S
C40 O50 1.265 . S
O41 C40 1.227 . S
N42 Co39 2.121 . S
N42 C44 1.375 . S
N42 C45 1.313 . S
C43 C44 1.338 . S
C43 N46 1.377 . S
C43 H63 0.930 . S
C44 N42 1.375 . S
C44 C43 1.338 . S
C44 H48 0.931 . S
C45 N42 1.313 . S
C45 N46 1.344 . S
C45 H49 0.930 . S
N46 C43 1.377 . S
N46 C45 1.344 . S
O47 Co39 2.055 . S
O47 C51 1.253 . S
H48 C44 0.931 . S
H49 C45 0.930 . S
O50 Co39 2.039 . S
O50 C40 1.265 . S
C51 O47 1.253 . S
C51 O52 1.227 . S
O52 C51 1.227 . S
N53 Co39 2.140 . S
N53 C56 1.346 . S
N53 C57 1.345 . S
C54 C55 1.387 . S
C54 C58 1.391 . S
C55 C54 1.387 . S
C55 C56 1.369 . S
C55 H64 0.929 . S
C56 N53 1.346 . S
C56 C55 1.369 . S
C56 H59 0.928 . S
C57 N53 1.345 . S
C57 C58 1.371 . S
C57 H60 0.931 . S
C58 C54 1.391 . S
C58 C57 1.371 . S
C58 H65 0.930 . S
H59 C56 0.928 . S
H60 C57 0.931 . S
H61 C37 0.930 . S
H62 C34 0.930 . S
H63 C43 0.930 . S
H64 C55 0.929 . S
H65 C58 0.930 . S
C66 C67 1.351 . S
C66 N69 1.368 1_556 S
C66 H71 0.931 . S
C67 C66 1.351 . S
C67 N68 1.373 1_556 S
C67 H95 0.930 . S
N68 C67 1.373 1_554 S
N68 C70 1.340 . S
N69 C66 1.368 1_554 S
N69 C70 1.321 . S
N69 Co72 2.135 . S
C70 N68 1.340 . S
C70 N69 1.321 . S
C70 H94 0.930 . S
H71 C66 0.931 . S
Co72 N69 2.135 . S
Co72 N75 2.121 . S
Co72 O80 2.055 1_554 S
Co72 O83 2.039 . S
Co72 N86 2.140 . S
C73 O74 1.227 . S
C73 O83 1.265 . S
O74 C73 1.227 . S
N75 Co72 2.121 . S
N75 C77 1.375 . S
N75 C78 1.313 . S
C76 C77 1.338 . S
C76 N79 1.377 . S
C76 H96 0.930 . S
C77 N75 1.375 . S
C77 C76 1.338 . S
C77 H81 0.931 . S
C78 N75 1.313 . S
C78 N79 1.344 . S
C78 H82 0.930 1_554 S
N79 C76 1.377 . S
N79 C78 1.344 . S
O80 Co72 2.055 1_556 S
O80 C84 1.253 . S
H81 C77 0.931 . S
H82 C78 0.930 1_556 S
O83 Co72 2.039 . S
O83 C73 1.265 . S
C84 O80 1.253 . S
C84 O85 1.227 . S
O85 C84 1.227 . S
N86 Co72 2.140 . S
N86 C89 1.346 . S
N86 C90 1.355 . S
C87 C88 1.387 . S
C87 C91 1.406 . S
C88 C87 1.387 . S
C88 C89 1.369 . S
C88 H97 0.929 . S
C89 N86 1.346 . S
C89 C88 1.369 . S
C89 H92 0.928 . S
C90 N86 1.355 . S
C90 C91 1.371 . S
C90 H93 0.920 1_554 S
C91 C87 1.406 . S
C91 C90 1.371 . S
C91 H98 0.917 1_554 S
H92 C89 0.928 . S
H93 C90 0.920 1_556 S
H94 C70 0.930 . S
H95 C67 0.930 . S
H96 C76 0.930 . S
H97 C88 0.929 . S
H98 C91 0.917 1_556 S
C99 C100 1.351 . S
C99 N102 1.368 . S
C99 H104 0.931 . S
C100 C99 1.351 . S
C100 N101 1.373 . S
C100 H128 0.930 . S
N101 C100 1.373 . S
N101 C103 1.340 . S
N102 C99 1.368 . S
N102 C103 1.321 . S
N102 Co105 2.135 . S
C103 N101 1.340 . S
C103 N102 1.321 . S
C103 H127 0.930 . S
H104 C99 0.931 . S
Co105 N102 2.135 . S
Co105 N108 2.121 . S
Co105 O113 2.055 . S
Co105 O116 2.039 . S
Co105 N119 2.140 . S
C106 O107 1.227 . S
C106 O116 1.265 . S
O107 C106 1.227 . S
N108 Co105 2.121 . S
N108 C110 1.375 . S
N108 C111 1.313 . S
C109 C110 1.338 . S
C109 N112 1.377 . S
C109 H129 0.930 . S
C110 N108 1.375 . S
C110 C109 1.338 . S
C110 H114 0.931 . S
C111 N108 1.313 . S
C111 N112 1.344 . S
C111 H115 0.930 . S
N112 C109 1.377 . S
N112 C111 1.344 . S
O113 Co105 2.055 . S
O113 C117 1.253 . S
H114 C110 0.931 . S
H115 C111 0.930 . S
O116 Co105 2.039 . S
O116 C106 1.265 . S
C117 O113 1.253 . S
C117 O118 1.227 . S
O118 C117 1.227 . S
N119 Co105 2.140 . S
N119 C122 1.346 . S
N119 C123 1.345 . S
C120 C121 1.387 . S
C120 C124 1.391 . S
C121 C120 1.387 . S
C121 C122 1.369 . S
C121 H130 0.929 . S
C122 N119 1.346 . S
C122 C121 1.369 . S
C122 H125 0.928 . S
C123 N119 1.345 . S
C123 C124 1.371 . S
C123 H126 0.931 . S
C124 C120 1.391 . S
C124 C123 1.371 . S
C124 H131 0.930 . S
H125 C122 0.928 . S
H126 C123 0.931 . S
H127 C103 0.930 . S
H128 C100 0.930 . S
H129 C109 0.930 . S
H130 C121 0.929 . S
H131 C124 0.930 . S
C132 C133 1.351 1_545 S
C132 N135 1.368 . S
C132 H137 0.931 . S
C133 C132 1.351 1_565 S
C133 N134 1.373 . S
C133 H161 0.930 . S
N134 C133 1.373 . S
N134 C136 1.340 . S
N135 C132 1.368 . S
N135 C136 1.321 1_545 S
N135 Co138 2.135 . S
C136 N134 1.340 . S
C136 N135 1.321 1_565 S
C136 H160 0.930 . S
H137 C132 0.931 . S
Co138 N135 2.135 . S
Co138 N141 2.121 . S
Co138 O146 2.055 . S
Co138 O149 2.039 . S
Co138 N152 2.140 1_556 S
C139 O140 1.227 . S
C139 O149 1.265 1_554 S
O140 C139 1.227 . S
N141 Co138 2.121 . S
N141 C143 1.375 1_556 S
N141 C144 1.313 . S
C142 C143 1.338 . S
C142 N145 1.377 1_554 S
C142 H162 0.930 . S
C143 N141 1.375 1_554 S
C143 C142 1.338 . S
C143 H147 0.931 . S
C144 N141 1.313 . S
C144 N145 1.344 . S
C144 H148 0.930 . S
N145 C142 1.377 1_556 S
N145 C144 1.344 . S
O146 Co138 2.055 . S
O146 C150 1.253 . S
H147 C143 0.931 . S
H148 C144 0.930 . S
O149 Co138 2.039 . S
O149 C139 1.265 1_556 S
C150 O146 1.253 . S
C150 O151 1.227 . S
O151 C150 1.227 . S
N152 Co138 2.140 1_554 S
N152 C155 1.346 . S
N152 C156 1.345 . S
C153 C154 1.387 . S
C153 C157 1.391 . S
C154 C153 1.387 . S
C154 C155 1.369 . S
C154 H163 0.929 . S
C155 N152 1.346 . S
C155 C154 1.369 . S
C155 H158 0.928 . S
C156 N152 1.345 . S
C156 C157 1.371 . S
C156 H159 0.931 . S
C157 C153 1.391 . S
C157 C156 1.371 . S
C157 H164 0.930 . S
H158 C155 0.928 . S
H159 C156 0.931 . S
H160 C136 0.930 . S
H161 C133 0.930 . S
H162 C142 0.930 . S
H163 C154 0.929 . S
H164 C157 0.930 . S
C165 C166 1.335 1_655 S
C165 N168 1.372 . S
C165 H170 0.941 . S
C166 C165 1.335 1_455 S
C166 N167 1.373 . S
C166 H194 0.930 . S
N167 C166 1.373 . S
N167 C169 1.340 . S
N168 C165 1.372 . S
N168 C169 1.321 1_655 S
N168 Co171 2.135 . S
C169 N167 1.340 . S
C169 N168 1.321 1_455 S
C169 H193 0.930 . S
H170 C165 0.941 . S
Co171 N168 2.135 . S
Co171 N174 2.121 . S
Co171 O179 2.055 . S
Co171 O182 2.039 . S
Co171 N185 2.140 . S
C172 O173 1.227 . S
C172 O182 1.265 . S
O173 C172 1.227 . S
N174 Co171 2.121 . S
N174 C176 1.375 . S
N174 C177 1.313 . S
C175 C176 1.338 . S
C175 N178 1.377 . S
C175 H195 0.930 . S
C176 N174 1.375 . S
C176 C175 1.338 . S
C176 H180 0.931 . S
C177 N174 1.313 . S
C177 N178 1.344 . S
C177 H181 0.930 . S
N178 C175 1.377 . S
N178 C177 1.344 . S
O179 Co171 2.055 . S
O179 C183 1.253 . S
H180 C176 0.931 . S
H181 C177 0.930 . S
O182 Co171 2.039 . S
O182 C172 1.265 . S
C183 O179 1.253 . S
C183 O184 1.227 . S
O184 C183 1.227 . S
N185 Co171 2.140 . S
N185 C188 1.346 . S
N185 C189 1.345 . S
C186 C187 1.387 . S
C186 C190 1.391 . S
C187 C186 1.387 . S
C187 C188 1.369 . S
C187 H196 0.929 . S
C188 N185 1.346 . S
C188 C187 1.369 . S
C188 H191 0.928 . S
C189 N185 1.345 . S
C189 C190 1.371 . S
C189 H192 0.931 . S
C190 C186 1.391 . S
C190 C189 1.371 . S
C190 H197 0.930 . S
H191 C188 0.928 . S
H192 C189 0.931 . S
H193 C169 0.930 . S
H194 C166 0.930 . S
H195 C175 0.930 . S
H196 C187 0.929 . S
H197 C190 0.930 . S
C198 C199 1.351 . S
C198 N201 1.368 1_545 S
C198 H203 0.931 . S
C199 C198 1.351 . S
C199 N200 1.373 . S
C199 H227 0.930 . S
N200 C199 1.373 . S
N200 C202 1.340 . S
N201 C198 1.368 1_565 S
N201 C202 1.321 1_565 S
N201 Co204 2.135 . S
C202 N200 1.340 . S
C202 N201 1.321 1_545 S
C202 H226 0.930 1_554 S
H203 C198 0.931 . S
Co204 N201 2.135 . S
Co204 N207 2.121 . S
Co204 O212 2.055 . S
Co204 O215 2.039 1_554 S
Co204 N218 2.140 . S
C205 O206 1.227 . S
C205 O215 1.265 . S
O206 C205 1.227 . S
N207 Co204 2.121 . S
N207 C209 1.375 1_554 S
N207 C210 1.313 . S
C208 C209 1.338 . S
C208 N211 1.377 1_556 S
C208 H228 0.930 . S
C209 N207 1.375 1_556 S
C209 C208 1.338 . S
C209 H213 0.931 . S
C210 N207 1.313 . S
C210 N211 1.344 . S
C210 H214 0.930 . S
N211 C208 1.377 1_554 S
N211 C210 1.344 . S
O212 Co204 2.055 . S
O212 C216 1.253 . S
H213 C209 0.931 . S
H214 C210 0.930 . S
O215 Co204 2.039 1_556 S
O215 C205 1.265 . S
C216 O212 1.253 . S
C216 O217 1.227 . S
O217 C216 1.227 . S
N218 Co204 2.140 . S
N218 C221 1.346 . S
N218 C222 1.345 . S
C219 C220 1.387 . S
C219 C223 1.391 . S
C220 C219 1.387 . S
C220 C221 1.369 . S
C220 H229 0.923 1_564 S
C221 N218 1.346 . S
C221 C220 1.369 . S
C221 H224 0.928 1_554 S
C222 N218 1.345 . S
C222 C223 1.371 . S
C222 H225 0.931 . S
C223 C219 1.391 . S
C223 C222 1.371 . S
C223 H230 0.930 . S
H224 C221 0.928 1_556 S
H225 C222 0.931 . S
H226 C202 0.930 1_556 S
H227 C199 0.930 . S
H228 C208 0.930 . S
H229 C220 0.923 1_546 S
H230 C223 0.930 . S
C231 C232 1.351 1_455 S
C231 N234 1.368 . S
C231 H236 0.931 . S
C232 C231 1.351 1_655 S
C232 N233 1.373 . S
C232 H260 0.930 . S
N233 C232 1.373 . S
N233 C235 1.340 . S
N234 C231 1.368 . S
N234 C235 1.321 1_455 S
N234 Co237 2.135 . S
C235 N233 1.340 . S
C235 N234 1.321 1_655 S
C235 H259 0.930 . S
H236 C231 0.931 . S
Co237 N234 2.135 . S
Co237 N240 2.121 . S
Co237 O245 2.055 . S
Co237 O248 2.039 . S
Co237 N251 2.140 . S
C238 O239 1.227 . S
C238 O248 1.265 . S
O239 C238 1.227 . S
N240 Co237 2.121 . S
N240 C242 1.375 . S
N240 C243 1.313 . S
C241 C242 1.338 . S
C241 N244 1.377 . S
C241 H261 0.930 . S
C242 N240 1.375 . S
C242 C241 1.338 . S
C242 H246 0.931 . S
C243 N240 1.313 . S
C243 N244 1.344 . S
C243 H247 0.930 . S
N244 C241 1.377 . S
N244 C243 1.344 . S
O245 Co237 2.055 . S
O245 C249 1.253 . S
H246 C242 0.931 . S
H247 C243 0.930 . S
O248 Co237 2.039 . S
O248 C238 1.265 . S
C249 O245 1.253 . S
C249 O250 1.227 . S
O250 C249 1.227 . S
N251 Co237 2.140 . S
N251 C254 1.346 . S
N251 C255 1.345 . S
C252 C253 1.387 . S
C252 C256 1.391 . S
C253 C252 1.387 . S
C253 C254 1.369 . S
C253 H262 0.929 . S
C254 N251 1.346 . S
C254 C253 1.369 . S
C254 H257 0.928 . S
C255 N251 1.345 . S
C255 C256 1.371 . S
C255 H258 0.931 . S
C256 C252 1.391 . S
C256 C255 1.371 . S
C256 H263 0.930 . S
H257 C254 0.928 . S
H258 C255 0.931 . S
H259 C235 0.930 . S
H260 C232 0.930 . S
H261 C241 0.930 . S
H262 C253 0.929 . S
H263 C256 0.930 . S
C264 C265 1.391 . S
C264 C266 1.394 . S
C264 H280 0.931 . S
C265 C264 1.391 . S
C265 C269 1.376 . S
C266 C264 1.394 . S
C266 C267 1.369 . S
C266 C270 1.531 . S
C267 C266 1.369 . S
C267 C268 1.410 . S
C267 C275 1.503 . S
C268 C267 1.410 . S
C268 C269 1.392 . S
C268 C271 1.511 1_554 S
C269 C265 1.376 . S
C269 C268 1.392 . S
C269 H281 0.929 1_554 S
C270 C266 1.531 . S
C270 H282 0.960 . S
C270 H283 0.962 . S
C270 H284 0.960 . S
C271 C268 1.511 1_556 S
C271 H285 0.961 . S
C271 H286 0.961 . S
C271 H287 0.961 . S
C272 C273 1.370 . S
C272 C274 1.363 . S
C272 H288 0.931 . S
C273 C272 1.370 . S
C273 C277 1.408 . S
C274 C272 1.363 . S
C274 C275 1.370 . S
C274 C278 1.524 . S
C275 C267 1.503 . S
C275 C274 1.370 . S
C275 C276 1.403 . S
C276 C275 1.403 . S
C276 C277 1.404 . S
C276 C279 1.539 . S
C277 C273 1.408 . S
C277 C276 1.404 . S
C277 H289 0.930 . S
C278 C274 1.524 . S
C278 H290 0.956 . S
C278 H291 0.961 1_554 S
C278 H292 0.961 . S
C279 C276 1.539 . S
C279 H293 0.958 . S
C279 H294 0.961 . S
C279 H295 0.960 . S
H280 C264 0.931 . S
H281 C269 0.929 1_556 S
H282 C270 0.960 . S
H283 C270 0.962 . S
H284 C270 0.960 . S
H285 C271 0.961 . S
H286 C271 0.961 . S
H287 C271 0.961 . S
H288 C272 0.931 . S
H289 C277 0.930 . S
H290 C278 0.956 . S
H291 C278 0.961 1_556 S
H292 C278 0.961 . S
H293 C279 0.958 . S
H294 C279 0.961 . S
H295 C279 0.960 . S
C296 C297 1.391 . S
C296 C298 1.394 . S
C296 H312 0.931 . S
C297 C296 1.391 . S
C297 C301 1.376 . S
C298 C296 1.394 . S
C298 C299 1.369 . S
C298 C302 1.531 . S
C299 C298 1.369 . S
C299 C300 1.410 . S
C299 C307 1.503 . S
C300 C299 1.410 . S
C300 C301 1.392 . S
C300 C303 1.511 . S
C301 C297 1.376 . S
C301 C300 1.392 . S
C301 H313 0.929 . S
C302 C298 1.531 . S
C302 H314 0.960 . S
C302 H315 0.962 . S
C302 H316 0.960 . S
C303 C300 1.511 . S
C303 H317 0.961 . S
C303 H318 0.961 . S
C303 H319 0.961 . S
C304 C305 1.370 . S
C304 C306 1.363 . S
C304 H320 0.931 . S
C305 C304 1.370 . S
C305 C309 1.408 . S
C306 C304 1.363 . S
C306 C307 1.370 . S
C306 C310 1.524 . S
C307 C299 1.503 . S
C307 C306 1.370 . S
C307 C308 1.403 . S
C308 C307 1.403 . S
C308 C309 1.404 . S
C308 C311 1.539 . S
C309 C305 1.408 . S
C309 C308 1.404 . S
C309 H321 0.930 . S
C310 C306 1.524 . S
C310 H322 0.956 . S
C310 H323 0.961 . S
C310 H324 0.961 . S
C311 C308 1.539 . S
C311 H325 0.958 . S
C311 H326 0.961 . S
C311 H327 0.960 . S
H312 C296 0.931 . S
H313 C301 0.929 . S
H314 C302 0.960 . S
H315 C302 0.962 . S
H316 C302 0.960 . S
H317 C303 0.961 . S
H318 C303 0.961 . S
H319 C303 0.961 . S
H320 C304 0.931 . S
H321 C309 0.930 . S
H322 C310 0.956 . S
H323 C310 0.961 . S
H324 C310 0.961 . S
H325 C311 0.958 . S
H326 C311 0.961 . S
H327 C311 0.960 . S
C328 C329 1.391 1_554 S
C328 C330 1.394 . S
C328 H344 0.931 . S
C329 C328 1.391 1_556 S
C329 C333 1.376 . S
C330 C328 1.394 . S
C330 C331 1.369 1_554 S
C330 C334 1.531 . S
C331 C330 1.369 1_556 S
C331 C332 1.410 . S
C331 C339 1.507 . S
C332 C331 1.410 . S
C332 C333 1.392 . S
C332 C335 1.511 . S
C333 C329 1.376 . S
C333 C332 1.392 . S
C333 H345 0.929 . S
C334 C330 1.531 . S
C334 H346 0.960 . S
C334 H347 0.962 . S
C334 H348 0.960 . S
C335 C332 1.511 . S
C335 H349 0.961 . S
C335 H350 0.961 . S
C335 H351 0.961 . S
C336 C337 1.370 . S
C336 C338 1.363 . S
C336 H352 0.931 . S
C337 C336 1.370 . S
C337 C341 1.408 . S
C338 C336 1.363 . S
C338 C339 1.367 1_554 S
C338 C342 1.524 . S
C339 C331 1.507 . S
C339 C338 1.367 1_556 S
C339 C340 1.402 . S
C340 C339 1.402 . S
C340 C341 1.404 1_556 S
C340 C343 1.539 . S
C341 C337 1.408 . S
C341 C340 1.404 1_554 S
C341 H353 0.930 1_554 S
C342 C338 1.524 . S
C342 H354 0.956 . S
C342 H355 0.961 1_554 S
C342 H356 0.961 . S
C343 C340 1.539 . S
C343 H357 0.958 1_556 S
C343 H358 0.961 . S
C343 H359 0.960 . S
H344 C328 0.931 . S
H345 C333 0.929 . S
H346 C334 0.960 . S
H347 C334 0.962 . S
H348 C334 0.960 . S
H349 C335 0.961 . S
H350 C335 0.961 . S
H351 C335 0.961 . S
H352 C336 0.931 . S
H353 C341 0.930 1_556 S
H354 C342 0.956 . S
H355 C342 0.961 1_556 S
H356 C342 0.961 . S
H357 C343 0.958 1_554 S
H358 C343 0.961 . S
H359 C343 0.960 . S
C360 C361 1.391 . S
C360 C362 1.394 . S
C360 H376 0.931 . S
C361 C360 1.391 . S
C361 C365 1.376 . S
C362 C360 1.394 . S
C362 C363 1.369 . S
C362 C366 1.531 . S
C363 C362 1.369 . S
C363 C364 1.410 . S
C363 C371 1.503 . S
C364 C363 1.410 . S
C364 C365 1.392 . S
C364 C367 1.511 . S
C365 C361 1.376 . S
C365 C364 1.392 . S
C365 H377 0.929 . S
C366 C362 1.531 . S
C366 H378 0.960 . S
C366 H379 0.962 . S
C366 H380 0.960 . S
C367 C364 1.511 . S
C367 H381 0.961 . S
C367 H382 0.961 . S
C367 H383 0.961 . S
C368 C369 1.370 . S
C368 C370 1.363 . S
C368 H384 0.931 . S
C369 C368 1.370 . S
C369 C373 1.408 . S
C370 C368 1.363 . S
C370 C371 1.370 . S
C370 C374 1.524 . S
C371 C363 1.503 . S
C371 C370 1.370 . S
C371 C372 1.403 . S
C372 C371 1.403 . S
C372 C373 1.404 . S
C372 C375 1.539 . S
C373 C369 1.408 . S
C373 C372 1.404 . S
C373 H385 0.930 . S
C374 C370 1.524 . S
C374 H386 0.956 . S
C374 H387 0.961 . S
C374 H388 0.961 . S
C375 C372 1.539 . S
C375 H389 0.958 . S
C375 H390 0.961 . S
C375 H391 0.960 . S
H376 C360 0.931 . S
H377 C365 0.929 . S
H378 C366 0.960 . S
H379 C366 0.962 . S
H380 C366 0.960 . S
H381 C367 0.961 . S
H382 C367 0.961 . S
H383 C367 0.961 . S
H384 C368 0.931 . S
H385 C373 0.930 . S
H386 C374 0.956 . S
H387 C374 0.961 . S
H388 C374 0.961 . S
H389 C375 0.958 . S
H390 C375 0.961 . S
H391 C375 0.960 . S
C392 C393 1.391 . S
C392 C394 1.394 1_554 S
C392 H408 0.931 1_554 S
C393 C392 1.391 . S
C393 C397 1.376 . S
C394 C392 1.394 1_556 S
C394 C395 1.369 1_556 S
C394 C398 1.531 . S
C395 C394 1.369 1_554 S
C395 C396 1.410 . S
C395 C403 1.503 . S
C396 C395 1.410 . S
C396 C397 1.392 . S
C396 C399 1.511 . S
C397 C393 1.376 . S
C397 C396 1.392 . S
C397 H409 0.929 . S
C398 C394 1.531 . S
C398 H410 0.960 . S
C398 H411 0.962 . S
C398 H412 0.960 . S
C399 C396 1.511 . S
C399 H413 0.961 . S
C399 H414 0.961 . S
C399 H415 0.961 . S
C400 C401 1.370 . S
C400 C402 1.363 . S
C400 H416 0.931 . S
C401 C400 1.370 . S
C401 C405 1.408 1_556 S
C402 C400 1.363 . S
C402 C403 1.370 1_556 S
C402 C406 1.524 . S
C403 C395 1.503 . S
C403 C402 1.370 1_554 S
C403 C404 1.403 . S
C404 C403 1.403 . S
C404 C405 1.404 . S
C404 C407 1.539 . S
C405 C401 1.408 1_554 S
C405 C404 1.404 . S
C405 H417 0.930 . S
C406 C402 1.524 . S
C406 H418 0.956 . S
C406 H419 0.961 . S
C406 H420 0.961 . S
C407 C404 1.539 . S
C407 H421 0.958 . S
C407 H422 0.961 . S
C407 H423 0.960 . S
H408 C392 0.931 1_556 S
H409 C397 0.929 . S
H410 C398 0.960 . S
H411 C398 0.962 . S
H412 C398 0.960 . S
H413 C399 0.961 . S
H414 C399 0.961 . S
H415 C399 0.961 . S
H416 C400 0.931 . S
H417 C405 0.930 . S
H418 C406 0.956 . S
H419 C406 0.961 . S
H420 C406 0.961 . S
H421 C407 0.958 . S
H422 C407 0.961 . S
H423 C407 0.960 . S
C424 C425 1.391 . S
C424 C426 1.394 . S
C424 H440 0.931 . S
C425 C424 1.391 . S
C425 C429 1.376 . S
C426 C424 1.394 . S
C426 C427 1.369 . S
C426 C430 1.531 . S
C427 C426 1.369 . S
C427 C428 1.410 . S
C427 C435 1.503 . S
C428 C427 1.410 . S
C428 C429 1.392 . S
C428 C431 1.511 . S
C429 C425 1.376 . S
C429 C428 1.392 . S
C429 H441 0.929 . S
C430 C426 1.531 . S
C430 H442 0.960 . S
C430 H443 0.962 . S
C430 H444 0.960 . S
C431 C428 1.511 . S
C431 H445 0.961 . S
C431 H446 0.961 . S
C431 H447 0.961 . S
C432 C433 1.370 . S
C432 C434 1.363 . S
C432 H448 0.931 . S
C433 C432 1.370 . S
C433 C437 1.408 . S
C434 C432 1.363 . S
C434 C435 1.370 . S
C434 C438 1.524 . S
C435 C427 1.503 . S
C435 C434 1.370 . S
C435 C436 1.403 . S
C436 C435 1.403 . S
C436 C437 1.404 . S
C436 C439 1.539 . S
C437 C433 1.408 . S
C437 C436 1.404 . S
C437 H449 0.930 . S
C438 C434 1.524 . S
C438 H450 0.956 . S
C438 H451 0.961 . S
C438 H452 0.961 . S
C439 C436 1.539 . S
C439 H453 0.958 . S
C439 H454 0.961 . S
C439 H455 0.960 . S
H440 C424 0.931 . S
H441 C429 0.929 . S
H442 C430 0.960 . S
H443 C430 0.962 . S
H444 C430 0.960 . S
H445 C431 0.961 . S
H446 C431 0.961 . S
H447 C431 0.961 . S
H448 C432 0.931 . S
H449 C437 0.930 . S
H450 C438 0.956 . S
H451 C438 0.961 . S
H452 C438 0.961 . S
H453 C439 0.958 . S
H454 C439 0.961 . S
H455 C439 0.960 . S
C456 C457 1.391 . S
C456 C458 1.394 . S
C456 H472 0.931 . S
C457 C456 1.391 . S
C457 C461 1.376 . S
C458 C456 1.394 . S
C458 C459 1.369 . S
C458 C462 1.531 . S
C459 C458 1.369 . S
C459 C460 1.410 . S
C459 C467 1.503 . S
C460 C459 1.410 . S
C460 C461 1.392 . S
C460 C463 1.511 1_554 S
C461 C457 1.376 . S
C461 C460 1.392 . S
C461 H473 0.929 . S
C462 C458 1.531 . S
C462 H474 0.960 . S
C462 H475 0.962 . S
C462 H476 0.960 . S
C463 C460 1.511 1_556 S
C463 H477 0.961 . S
C463 H478 0.961 . S
C463 H479 0.961 1_556 S
C464 C465 1.370 . S
C464 C466 1.363 . S
C464 H480 0.931 . S
C465 C464 1.370 . S
C465 C469 1.408 . S
C466 C464 1.363 . S
C466 C467 1.370 . S
C466 C470 1.524 . S
C467 C459 1.503 . S
C467 C466 1.370 . S
C467 C468 1.403 . S
C468 C467 1.403 . S
C468 C469 1.404 . S
C468 C471 1.539 . S
C469 C465 1.408 . S
C469 C468 1.404 . S
C469 H481 0.930 . S
C470 C466 1.524 . S
C470 H482 0.956 . S
C470 H483 0.961 1_554 S
C470 H484 0.961 1_554 S
C471 C468 1.539 . S
C471 H485 0.958 . S
C471 H486 0.961 . S
C471 H487 0.960 . S
H472 C456 0.931 . S
H473 C461 0.929 . S
H474 C462 0.960 . S
H475 C462 0.962 . S
H476 C462 0.960 . S
H477 C463 0.961 . S
H478 C463 0.961 . S
H479 C463 0.961 1_554 S
H480 C464 0.931 . S
H481 C469 0.930 . S
H482 C470 0.956 . S
H483 C470 0.961 1_556 S
H484 C470 0.961 1_556 S
H485 C471 0.958 . S
H486 C471 0.961 . S
H487 C471 0.960 . S
C488 C489 1.391 . S
C488 C490 1.394 . S
C488 H504 0.931 . S
C489 C488 1.391 . S
C489 C493 1.376 . S
C490 C488 1.394 . S
C490 C491 1.369 . S
C490 C494 1.531 . S
C491 C490 1.369 . S
C491 C492 1.410 . S
C491 C499 1.503 . S
C492 C491 1.410 . S
C492 C493 1.392 . S
C492 C495 1.511 . S
C493 C489 1.376 . S
C493 C492 1.392 . S
C493 H505 0.929 . S
C494 C490 1.531 . S
C494 H506 0.960 . S
C494 H507 0.962 . S
C494 H508 0.960 . S
C495 C492 1.511 . S
C495 H509 0.961 . S
C495 H510 0.961 . S
C495 H511 0.961 . S
C496 C497 1.370 . S
C496 C498 1.363 . S
C496 H512 0.931 . S
C497 C496 1.370 . S
C497 C501 1.408 . S
C498 C496 1.363 . S
C498 C499 1.370 . S
C498 C502 1.524 . S
C499 C491 1.503 . S
C499 C498 1.370 . S
C499 C500 1.403 . S
C500 C499 1.403 . S
C500 C501 1.404 . S
C500 C503 1.539 . S
C501 C497 1.408 . S
C501 C500 1.404 . S
C501 H513 0.930 . S
C502 C498 1.524 . S
C502 H514 0.956 . S
C502 H515 0.961 . S
C502 H516 0.961 . S
C503 C500 1.539 . S
C503 H517 0.958 . S
C503 H518 0.961 . S
C503 H519 0.960 . S
H504 C488 0.931 . S
H505 C493 0.929 . S
H506 C494 0.960 . S
H507 C494 0.962 . S
H508 C494 0.960 . S
H509 C495 0.961 . S
H510 C495 0.961 . S
H511 C495 0.961 . S
H512 C496 0.931 . S
H513 C501 0.930 . S
H514 C502 0.956 . S
H515 C502 0.961 . S
H516 C502 0.961 . S
H517 C503 0.958 . S
H518 C503 0.961 . S
H519 C503 0.960 . S
C520 C521 1.391 1_556 S
C520 C522 1.394 1_556 S
C520 H536 0.931 . S
C521 C520 1.391 1_554 S
C521 C525 1.376 . S
C522 C520 1.394 1_554 S
C522 C523 1.369 . S
C522 C526 1.531 1_554 S
C523 C522 1.369 . S
C523 C524 1.410 . S
C523 C531 1.503 . S
C524 C523 1.410 . S
C524 C525 1.392 . S
C524 C527 1.511 . S
C525 C521 1.376 . S
C525 C524 1.392 . S
C525 H537 0.929 . S
C526 C522 1.531 1_556 S
C526 H538 0.960 . S
C526 H539 0.962 . S
C526 H540 0.960 . S
C527 C524 1.511 . S
C527 H541 0.961 . S
C527 H542 0.961 . S
C527 H543 0.961 . S
C528 C529 1.370 . S
C528 C530 1.363 . S
C528 H544 0.931 . S
C529 C528 1.370 . S
C529 C533 1.408 . S
C530 C528 1.363 . S
C530 C531 1.370 . S
C530 C534 1.524 . S
C531 C523 1.503 . S
C531 C530 1.370 . S
C531 C532 1.403 . S
C532 C531 1.403 . S
C532 C533 1.404 . S
C532 C535 1.539 . S
C533 C529 1.408 . S
C533 C532 1.404 . S
C533 H545 0.930 . S
C534 C530 1.524 . S
C534 H546 0.956 1_554 S
C534 H547 0.961 . S
C534 H548 0.961 1_554 S
C535 C532 1.539 . S
C535 H549 0.958 . S
C535 H550 0.961 . S
C535 H551 0.960 . S
H536 C520 0.931 . S
H537 C525 0.929 . S
H538 C526 0.960 . S
H539 C526 0.962 . S
H540 C526 0.960 . S
H541 C527 0.961 . S
H542 C527 0.961 . S
H543 C527 0.961 . S
H544 C528 0.931 . S
H545 C533 0.930 . S
H546 C534 0.956 1_556 S
H547 C534 0.961 . S
H548 C534 0.961 1_556 S
H549 C535 0.958 . S
H550 C535 0.961 . S
H551 C535 0.960 . S
C552 C553 1.391 . S
C552 C554 1.394 . S
C552 H568 0.931 . S
C553 C552 1.391 . S
C553 C557 1.376 . S
C554 C552 1.394 . S
C554 C555 1.369 . S
C554 C558 1.531 . S
C555 C554 1.369 . S
C555 C556 1.410 . S
C555 C563 1.503 . S
C556 C555 1.410 . S
C556 C557 1.392 . S
C556 C559 1.511 . S
C557 C553 1.376 . S
C557 C556 1.392 . S
C557 H569 0.929 . S
C558 C554 1.531 . S
C558 H570 0.960 . S
C558 H571 0.962 . S
C558 H572 0.960 . S
C559 C556 1.511 . S
C559 H573 0.961 . S
C559 H574 0.961 . S
C559 H575 0.961 . S
C560 C561 1.370 . S
C560 C562 1.363 . S
C560 H576 0.931 . S
C561 C560 1.370 . S
C561 C565 1.408 . S
C562 C560 1.363 . S
C562 C563 1.370 . S
C562 C566 1.524 . S
C563 C555 1.503 . S
C563 C562 1.370 . S
C563 C564 1.403 . S
C564 C563 1.403 . S
C564 C565 1.404 . S
C564 C567 1.539 . S
C565 C561 1.408 . S
C565 C564 1.404 . S
C565 H577 0.930 . S
C566 C562 1.524 . S
C566 H578 0.956 . S
C566 H579 0.961 . S
C566 H580 0.961 . S
C567 C564 1.539 . S
C567 H581 0.958 . S
C567 H582 0.961 . S
C567 H583 0.960 . S
H568 C552 0.931 . S
H569 C557 0.929 . S
H570 C558 0.960 . S
H571 C558 0.962 . S
H572 C558 0.960 . S
H573 C559 0.961 . S
H574 C559 0.961 . S
H575 C559 0.961 . S
H576 C560 0.931 . S
H577 C565 0.930 . S
H578 C566 0.956 . S
H579 C566 0.961 . S
H580 C566 0.961 . S
H581 C567 0.958 . S
H582 C567 0.961 . S
H583 C567 0.960 . S
C584 C585 1.391 1_545 S
C584 C586 1.395 . S
C584 H600 0.934 . S
C585 C584 1.391 1_565 S
C585 C589 1.376 . S
C586 C584 1.395 . S
C586 C587 1.372 1_445 S
C586 C590 1.526 1_554 S
C587 C586 1.372 1_665 S
C587 C588 1.410 1_655 S
C587 C595 1.503 1_565 S
C588 C587 1.410 1_455 S
C588 C589 1.392 . S
C588 C591 1.511 1_455 S
C589 C585 1.376 . S
C589 C588 1.392 . S
C589 H601 0.929 . S
C590 C586 1.526 1_556 S
C590 H602 0.960 1_455 S
C590 H603 0.962 1_556 S
C590 H604 0.960 . S
C591 C588 1.511 1_655 S
C591 H605 0.961 . S
C591 H606 0.961 . S
C591 H607 0.961 1_554 S
C592 C593 1.370 . S
C592 C594 1.363 . S
C592 H608 0.931 . S
C593 C592 1.370 . S
C593 C597 1.408 1_554 S
C594 C592 1.363 . S
C594 C595 1.370 . S
C594 C598 1.524 . S
C595 C587 1.503 1_545 S
C595 C594 1.370 . S
C595 C596 1.403 1_554 S
C596 C595 1.403 1_556 S
C596 C597 1.404 . S
C596 C599 1.539 1_545 S
C597 C593 1.408 1_556 S
C597 C596 1.404 . S
C597 H609 0.930 . S
C598 C594 1.524 . S
C598 H610 0.956 . S
C598 H611 0.961 . S
C598 H612 0.961 . S
C599 C596 1.539 1_565 S
C599 H613 0.958 1_565 S
C599 H614 0.961 . S
C599 H615 0.960 . S
H600 C584 0.934 . S
H601 C589 0.929 . S
H602 C590 0.960 1_655 S
H603 C590 0.962 1_554 S
H604 C590 0.960 . S
H605 C591 0.961 . S
H606 C591 0.961 . S
H607 C591 0.961 1_556 S
H608 C592 0.931 . S
H609 C597 0.930 . S
H610 C598 0.956 . S
H611 C598 0.961 . S
H612 C598 0.961 . S
H613 C599 0.958 1_545 S
H614 C599 0.961 . S
H615 C599 0.960 . S
C616 C617 1.391 1_455 S
C616 C618 1.394 . S
C616 H632 0.931 . S
C617 C616 1.391 1_655 S
C617 C621 1.376 . S
C618 C616 1.394 . S
C618 C619 1.365 1_455 S
C618 C622 1.531 . S
C619 C618 1.365 1_655 S
C619 C620 1.416 . S
C619 C627 1.501 1_665 S
C620 C619 1.416 . S
C620 C621 1.392 . S
C620 C623 1.511 . S
C621 C617 1.376 . S
C621 C620 1.392 . S
C621 H633 0.929 . S
C622 C618 1.531 . S
C622 H634 0.960 . S
C622 H635 0.962 . S
C622 H636 0.960 . S
C623 C620 1.511 . S
C623 H637 0.961 . S
C623 H638 0.961 1_565 S
C623 H639 0.961 . S
C624 C625 1.370 . S
C624 C626 1.363 . S
C624 H640 0.931 . S
C625 C624 1.370 . S
C625 C629 1.408 . S
C626 C624 1.363 . S
C626 C627 1.370 . S
C626 C630 1.524 1_455 S
C627 C619 1.501 1_445 S
C627 C626 1.370 . S
C627 C628 1.403 . S
C628 C627 1.403 . S
C628 C629 1.404 . S
C628 C631 1.539 1_545 S
C629 C625 1.408 . S
C629 C628 1.404 . S
C629 H641 0.930 . S
C630 C626 1.524 1_655 S
C630 H642 0.956 1_645 S
C630 H643 0.961 . S
C630 H644 0.961 . S
C631 C628 1.539 1_565 S
C631 H645 0.958 . S
C631 H646 0.961 1_565 S
C631 H647 0.960 . S
H632 C616 0.931 . S
H633 C621 0.929 . S
H634 C622 0.960 . S
H635 C622 0.962 . S
H636 C622 0.960 . S
H637 C623 0.961 . S
H638 C623 0.961 1_545 S
H639 C623 0.961 . S
H640 C624 0.931 . S
H641 C629 0.930 . S
H642 C630 0.956 1_465 S
H643 C630 0.961 . S
H644 C630 0.961 . S
H645 C631 0.958 . S
H646 C631 0.961 1_545 S
H647 C631 0.960 . S
C648 C649 1.391 . S
C648 C650 1.394 . S
C648 H664 0.931 . S
C649 C648 1.391 . S
C649 C653 1.376 . S
C650 C648 1.394 . S
C650 C651 1.369 . S
C650 C654 1.531 . S
C651 C650 1.369 . S
C651 C652 1.410 . S
C651 C659 1.503 . S
C652 C651 1.410 . S
C652 C653 1.392 . S
C652 C655 1.511 . S
C653 C649 1.376 . S
C653 C652 1.392 . S
C653 H665 0.929 . S
C654 C650 1.531 . S
C654 H666 0.960 . S
C654 H667 0.962 . S
C654 H668 0.960 . S
C655 C652 1.511 . S
C655 H669 0.961 . S
C655 H670 0.961 . S
C655 H671 0.961 . S
C656 C657 1.370 . S
C656 C658 1.363 . S
C656 H672 0.931 . S
C657 C656 1.370 . S
C657 C661 1.408 . S
C658 C656 1.363 . S
C658 C659 1.370 . S
C658 C662 1.524 . S
C659 C651 1.503 . S
C659 C658 1.370 . S
C659 C660 1.403 . S
C660 C659 1.403 . S
C660 C661 1.404 . S
C660 C663 1.539 . S
C661 C657 1.408 . S
C661 C660 1.404 . S
C661 H673 0.930 . S
C662 C658 1.524 . S
C662 H674 0.956 . S
C662 H675 0.961 . S
C662 H676 0.961 . S
C663 C660 1.539 . S
C663 H677 0.958 . S
C663 H678 0.961 . S
C663 H679 0.960 . S
H664 C648 0.931 . S
H665 C653 0.929 . S
H666 C654 0.960 . S
H667 C654 0.962 . S
H668 C654 0.960 . S
H669 C655 0.961 . S
H670 C655 0.961 . S
H671 C655 0.961 . S
H672 C656 0.931 . S
H673 C661 0.930 . S
H674 C662 0.956 . S
H675 C662 0.961 . S
H676 C662 0.961 . S
H677 C663 0.958 . S
H678 C663 0.961 . S
H679 C663 0.960 . S
C680 C681 1.391 . S
C680 C682 1.394 . S
C680 H696 0.931 . S
C681 C680 1.391 . S
C681 C685 1.376 . S
C682 C680 1.394 . S
C682 C683 1.369 . S
C682 C686 1.531 . S
C683 C682 1.369 . S
C683 C684 1.410 . S
C683 C691 1.503 . S
C684 C683 1.410 . S
C684 C685 1.392 . S
C684 C687 1.511 . S
C685 C681 1.376 . S
C685 C684 1.392 . S
C685 H697 0.929 . S
C686 C682 1.531 . S
C686 H698 0.960 . S
C686 H699 0.962 . S
C686 H700 0.960 . S
C687 C684 1.511 . S
C687 H701 0.961 . S
C687 H702 0.961 . S
C687 H703 0.961 . S
C688 C689 1.370 . S
C688 C690 1.363 . S
C688 H704 0.931 . S
C689 C688 1.370 . S
C689 C693 1.408 . S
C690 C688 1.363 . S
C690 C691 1.370 . S
C690 C694 1.524 . S
C691 C683 1.503 . S
C691 C690 1.370 . S
C691 C692 1.403 . S
C692 C691 1.403 . S
C692 C693 1.404 . S
C692 C695 1.539 . S
C693 C689 1.408 . S
C693 C692 1.404 . S
C693 H705 0.930 . S
C694 C690 1.524 . S
C694 H706 0.956 . S
C694 H707 0.961 . S
C694 H708 0.961 . S
C695 C692 1.539 . S
C695 H709 0.958 . S
C695 H710 0.961 . S
C695 H711 0.960 . S
H696 C680 0.931 . S
H697 C685 0.929 . S
H698 C686 0.960 . S
H699 C686 0.962 . S
H700 C686 0.960 . S
H701 C687 0.961 . S
H702 C687 0.961 . S
H703 C687 0.961 . S
H704 C688 0.931 . S
H705 C693 0.930 . S
H706 C694 0.956 . S
H707 C694 0.961 . S
H708 C694 0.961 . S
H709 C695 0.958 . S
H710 C695 0.961 . S
H711 C695 0.960 . S
C712 C713 1.391 . S
C712 C714 1.394 . S
C712 H728 0.931 . S
C713 C712 1.391 . S
C713 C717 1.376 . S
C714 C712 1.394 . S
C714 C715 1.369 . S
C714 C718 1.531 . S
C715 C714 1.369 . S
C715 C716 1.410 . S
C715 C723 1.503 . S
C716 C715 1.410 . S
C716 C717 1.392 . S
C716 C719 1.511 . S
C717 C713 1.376 . S
C717 C716 1.392 . S
C717 H729 0.929 . S
C718 C714 1.531 . S
C718 H730 0.960 . S
C718 H731 0.962 . S
C718 H732 0.960 . S
C719 C716 1.511 . S
C719 H733 0.961 . S
C719 H734 0.961 . S
C719 H735 0.961 . S
C720 C721 1.370 . S
C720 C722 1.363 . S
C720 H736 0.931 . S
C721 C720 1.370 . S
C721 C725 1.408 . S
C722 C720 1.363 . S
C722 C723 1.370 . S
C722 C726 1.524 . S
C723 C715 1.503 . S
C723 C722 1.370 . S
C723 C724 1.403 . S
C724 C723 1.403 . S
C724 C725 1.404 . S
C724 C727 1.539 . S
C725 C721 1.408 . S
C725 C724 1.404 . S
C725 H737 0.930 . S
C726 C722 1.524 . S
C726 H738 0.956 . S
C726 H739 0.961 . S
C726 H740 0.961 . S
C727 C724 1.539 . S
C727 H741 0.958 . S
C727 H742 0.961 . S
C727 H743 0.960 . S
H728 C712 0.931 . S
H729 C717 0.929 . S
H730 C718 0.960 . S
H731 C718 0.962 . S
H732 C718 0.960 . S
H733 C719 0.961 . S
H734 C719 0.961 . S
H735 C719 0.961 . S
H736 C720 0.931 . S
H737 C725 0.930 . S
H738 C726 0.956 . S
H739 C726 0.961 . S
H740 C726 0.961 . S
H741 C727 0.958 . S
H742 C727 0.961 . S
H743 C727 0.960 . S
C744 C745 1.391 . S
C744 C746 1.394 . S
C744 H760 0.931 . S
C745 C744 1.391 . S
C745 C749 1.376 . S
C746 C744 1.394 . S
C746 C747 1.369 . S
C746 C750 1.531 . S
C747 C746 1.369 . S
C747 C748 1.410 . S
C747 C755 1.503 . S
C748 C747 1.410 . S
C748 C749 1.392 . S
C748 C751 1.511 . S
C749 C745 1.376 . S
C749 C748 1.392 . S
C749 H761 0.929 . S
C750 C746 1.531 . S
C750 H762 0.960 . S
C750 H763 0.962 . S
C750 H764 0.960 . S
C751 C748 1.511 . S
C751 H765 0.961 . S
C751 H766 0.961 . S
C751 H767 0.961 . S
C752 C753 1.370 . S
C752 C754 1.363 . S
C752 H768 0.931 . S
C753 C752 1.370 . S
C753 C757 1.408 . S
C754 C752 1.363 . S
C754 C755 1.370 . S
C754 C758 1.524 . S
C755 C747 1.503 . S
C755 C754 1.370 . S
C755 C756 1.403 . S
C756 C755 1.403 . S
C756 C757 1.404 . S
C756 C759 1.539 . S
C757 C753 1.408 . S
C757 C756 1.404 . S
C757 H769 0.930 . S
C758 C754 1.524 . S
C758 H770 0.956 . S
C758 H771 0.961 . S
C758 H772 0.961 . S
C759 C756 1.539 . S
C759 H773 0.958 . S
C759 H774 0.961 . S
C759 H775 0.960 . S
H760 C744 0.931 . S
H761 C749 0.929 . S
H762 C750 0.960 . S
H763 C750 0.962 . S
H764 C750 0.960 . S
H765 C751 0.961 . S
H766 C751 0.961 . S
H767 C751 0.961 . S
H768 C752 0.931 . S
H769 C757 0.930 . S
H770 C758 0.956 . S
H771 C758 0.961 . S
H772 C758 0.961 . S
H773 C759 0.958 . S
H774 C759 0.961 . S
H775 C759 0.960 . S
C776 C777 1.391 . S
C776 C778 1.394 . S
C776 H792 0.931 . S
C777 C776 1.391 . S
C777 C781 1.376 . S
C778 C776 1.394 . S
C778 C779 1.369 . S
C778 C782 1.531 . S
C779 C778 1.369 . S
C779 C780 1.410 . S
C779 C787 1.503 . S
C780 C779 1.410 . S
C780 C781 1.392 . S
C780 C783 1.511 . S
C781 C777 1.376 . S
C781 C780 1.392 . S
C781 H793 0.929 . S
C782 C778 1.531 . S
C782 H794 0.960 . S
C782 H795 0.962 . S
C782 H796 0.960 . S
C783 C780 1.511 . S
C783 H797 0.961 . S
C783 H798 0.961 . S
C783 H799 0.961 . S
C784 C785 1.370 . S
C784 C786 1.363 . S
C784 H800 0.931 . S
C785 C784 1.370 . S
C785 C789 1.408 . S
C786 C784 1.363 . S
C786 C787 1.370 . S
C786 C790 1.524 . S
C787 C779 1.503 . S
C787 C786 1.370 . S
C787 C788 1.403 . S
C788 C787 1.403 . S
C788 C789 1.404 . S
C788 C791 1.539 . S
C789 C785 1.408 . S
C789 C788 1.404 . S
C789 H801 0.930 . S
C790 C786 1.524 . S
C790 H802 0.956 . S
C790 H803 0.961 . S
C790 H804 0.961 . S
C791 C788 1.539 . S
C791 H805 0.958 . S
C791 H806 0.961 . S
C791 H807 0.960 . S
H792 C776 0.931 . S
H793 C781 0.929 . S
H794 C782 0.960 . S
H795 C782 0.962 . S
H796 C782 0.960 . S
H797 C783 0.961 . S
H798 C783 0.961 . S
H799 C783 0.961 . S
H800 C784 0.931 . S
H801 C789 0.930 . S
H802 C790 0.956 . S
H803 C790 0.961 . S
H804 C790 0.961 . S
H805 C791 0.958 . S
H806 C791 0.961 . S
H807 C791 0.960 . S
C808 C809 1.391 . S
C808 C810 1.394 . S
C808 H824 0.931 . S
C809 C808 1.391 . S
C809 C813 1.376 . S
C810 C808 1.394 . S
C810 C811 1.369 . S
C810 C814 1.531 . S
C811 C810 1.369 . S
C811 C812 1.410 . S
C811 C819 1.503 . S
C812 C811 1.410 . S
C812 C813 1.392 . S
C812 C815 1.511 . S
C813 C809 1.376 . S
C813 C812 1.392 . S
C813 H825 0.929 . S
C814 C810 1.531 . S
C814 H826 0.960 . S
C814 H827 0.962 . S
C814 H828 0.960 . S
C815 C812 1.511 . S
C815 H829 0.961 . S
C815 H830 0.961 . S
C815 H831 0.961 . S
C816 C817 1.370 . S
C816 C818 1.363 . S
C816 H832 0.931 . S
C817 C816 1.370 . S
C817 C821 1.408 . S
C818 C816 1.363 . S
C818 C819 1.370 . S
C818 C822 1.524 . S
C819 C811 1.503 . S
C819 C818 1.370 . S
C819 C820 1.403 . S
C820 C819 1.403 . S
C820 C821 1.404 . S
C820 C823 1.539 . S
C821 C817 1.408 . S
C821 C820 1.404 . S
C821 H833 0.930 . S
C822 C818 1.524 . S
C822 H834 0.956 . S
C822 H835 0.961 . S
C822 H836 0.961 . S
C823 C820 1.539 . S
C823 H837 0.958 . S
C823 H838 0.961 . S
C823 H839 0.960 . S
H824 C808 0.931 . S
H825 C813 0.929 . S
H826 C814 0.960 . S
H827 C814 0.962 . S
H828 C814 0.960 . S
H829 C815 0.961 . S
H830 C815 0.961 . S
H831 C815 0.961 . S
H832 C816 0.931 . S
H833 C821 0.930 . S
H834 C822 0.956 . S
H835 C822 0.961 . S
H836 C822 0.961 . S
H837 C823 0.958 . S
H838 C823 0.961 . S
H839 C823 0.960 . S
C840 C841 1.391 . S
C840 C842 1.394 . S
C840 H856 0.931 . S
C841 C840 1.391 . S
C841 C845 1.376 . S
C842 C840 1.394 . S
C842 C843 1.369 . S
C842 C846 1.531 . S
C843 C842 1.369 . S
C843 C844 1.410 . S
C843 C851 1.503 . S
C844 C843 1.410 . S
C844 C845 1.392 . S
C844 C847 1.511 . S
C845 C841 1.376 . S
C845 C844 1.392 . S
C845 H857 0.929 . S
C846 C842 1.531 . S
C846 H858 0.960 . S
C846 H859 0.962 . S
C846 H860 0.960 . S
C847 C844 1.511 . S
C847 H861 0.961 . S
C847 H862 0.961 . S
C847 H863 0.961 . S
C848 C849 1.370 . S
C848 C850 1.363 . S
C848 H864 0.931 . S
C849 C848 1.370 . S
C849 C853 1.408 . S
C850 C848 1.363 . S
C850 C851 1.370 . S
C850 C854 1.524 . S
C851 C843 1.503 . S
C851 C850 1.370 . S
C851 C852 1.403 . S
C852 C851 1.403 . S
C852 C853 1.404 . S
C852 C855 1.539 . S
C853 C849 1.408 . S
C853 C852 1.404 . S
C853 H865 0.930 . S
C854 C850 1.524 . S
C854 H866 0.956 . S
C854 H867 0.961 . S
C854 H868 0.961 . S
C855 C852 1.539 . S
C855 H869 0.958 . S
C855 H870 0.961 . S
C855 H871 0.960 . S
H856 C840 0.931 . S
H857 C845 0.929 . S
H858 C846 0.960 . S
H859 C846 0.962 . S
H860 C846 0.960 . S
H861 C847 0.961 . S
H862 C847 0.961 . S
H863 C847 0.961 . S
H864 C848 0.931 . S
H865 C853 0.930 . S
H866 C854 0.956 . S
H867 C854 0.961 . S
H868 C854 0.961 . S
H869 C855 0.958 . S
H870 C855 0.961 . S
H871 C855 0.960 . S
C872 C873 1.391 . S
C872 C874 1.394 . S
C872 H888 0.931 . S
C873 C872 1.391 . S
C873 C877 1.376 . S
C874 C872 1.394 . S
C874 C875 1.369 . S
C874 C878 1.531 . S
C875 C874 1.369 . S
C875 C876 1.410 . S
C875 C883 1.503 . S
C876 C875 1.410 . S
C876 C877 1.392 . S
C876 C879 1.511 . S
C877 C873 1.376 . S
C877 C876 1.392 . S
C877 H889 0.929 . S
C878 C874 1.531 . S
C878 H890 0.960 . S
C878 H891 0.962 . S
C878 H892 0.960 . S
C879 C876 1.511 . S
C879 H893 0.961 . S
C879 H894 0.961 . S
C879 H895 0.961 . S
C880 C881 1.370 . S
C880 C882 1.363 . S
C880 H896 0.931 . S
C881 C880 1.370 . S
C881 C885 1.408 . S
C882 C880 1.363 . S
C882 C883 1.370 . S
C882 C886 1.524 . S
C883 C875 1.503 . S
C883 C882 1.370 . S
C883 C884 1.403 . S
C884 C883 1.403 . S
C884 C885 1.404 . S
C884 C887 1.539 . S
C885 C881 1.408 . S
C885 C884 1.404 . S
C885 H897 0.930 . S
C886 C882 1.524 . S
C886 H898 0.956 . S
C886 H899 0.961 . S
C886 H900 0.961 . S
C887 C884 1.539 . S
C887 H901 0.958 . S
C887 H902 0.961 . S
C887 H903 0.960 . S
H888 C872 0.931 . S
H889 C877 0.929 . S
H890 C878 0.960 . S
H891 C878 0.962 . S
H892 C878 0.960 . S
H893 C879 0.961 . S
H894 C879 0.961 . S
H895 C879 0.961 . S
H896 C880 0.931 . S
H897 C885 0.930 . S
H898 C886 0.956 . S
H899 C886 0.961 . S
H900 C886 0.961 . S
H901 C887 0.958 . S
H902 C887 0.961 . S
H903 C887 0.960 . S
C265 N200 0.659 . S
C273 N13 0.656 . S
C297 N233 0.754 . S
C305 N46 0.774 . S
C329 N134 0.753 . S
C337 N79 0.765 . S
C361 N167 0.825 . S
C369 N112 0.832 . S
C393 N68 0.845 . S
C401 N145 0.746 . S
C425 N101 0.855 . S
C433 N178 0.832 . S
C457 N2 0.805 . S
C465 N211 0.810 . S
C489 N244 0.806 . S
C497 N35 0.732 . S
C521 C87 2.000 . S
C529 C7 2.006 . S
C553 C54 2.177 . S
C561 C106 2.186 . S
C585 C219 2.070 . S
C593 C139 2.064 . S
C617 C172 2.376 . S
C625 C238 2.380 . S
C649 C18 1.823 . S
C657 C249 1.836 . S
C681 C150 1.965 . S
C689 C40 1.978 . S
C713 C183 1.792 . S
C721 C73 1.790 . S
C745 C205 1.902 . S
C753 C117 1.893 . S
C777 C84 1.516 . S
C785 C186 1.483 . S
C809 C120 1.299 . S
C817 C216 1.334 . S
C841 C252 1.077 . S
C849 C21 1.080 . S
C873 C153 1.325 . S
C881 C51 1.322 . S
