# Generated by pormake.
# Topology wig, (6)-cn, num edge types: 1
# Building blocks:
#     Node 0, Type 0, BuildingBlock: OJICUG_clean_sbu_0, # of connection points: 6
#     Node 1, Type 0, BuildingBlock: OJICUG_clean_sbu_0, # of connection points: 6
#     Node 2, Type 0, BuildingBlock: OJICUG_clean_sbu_0, # of connection points: 6
#     Node 3, Type 0, BuildingBlock: OJICUG_clean_sbu_0, # of connection points: 6
#     Node 4, Type 0, BuildingBlock: OJICUG_clean_sbu_0, # of connection points: 6
#     Node 5, Type 0, BuildingBlock: OJICUG_clean_sbu_0, # of connection points: 6
#     Node 6, Type 0, BuildingBlock: OJICUG_clean_sbu_0, # of connection points: 6
#     Node 7, Type 0, BuildingBlock: OJICUG_clean_sbu_0, # of connection points: 6
#     Node 8, Type 0, BuildingBlock: OJICUG_clean_sbu_0, # of connection points: 6
#     Node 9, Type 0, BuildingBlock: OJICUG_clean_sbu_0, # of connection points: 6
#     Node 10, Type 0, BuildingBlock: OJICUG_clean_sbu_0, # of connection points: 6
#     Node 11, Type 0, BuildingBlock: OJICUG_clean_sbu_0, # of connection points: 6
#     Node 12, Type 0, BuildingBlock: OJICUG_clean_sbu_0, # of connection points: 6
#     Node 13, Type 0, BuildingBlock: OJICUG_clean_sbu_0, # of connection points: 6
#     Node 14, Type 0, BuildingBlock: OJICUG_clean_sbu_0, # of connection points: 6
#     Node 15, Type 0, BuildingBlock: OJICUG_clean_sbu_0, # of connection points: 6
#     Edge 16, Type (0, 0), BuildingBlock: TEMPAE_clean_linker_10, # of connection points: 2
#     Edge 17, Type (0, 0), BuildingBlock: TEMPAE_clean_linker_10, # of connection points: 2
#     Edge 18, Type (0, 0), BuildingBlock: TEMPAE_clean_linker_10, # of connection points: 2
#     Edge 19, Type (0, 0), BuildingBlock: TEMPAE_clean_linker_10, # of connection points: 2
#     Edge 20, Type (0, 0), BuildingBlock: TEMPAE_clean_linker_10, # of connection points: 2
#     Edge 21, Type (0, 0), BuildingBlock: TEMPAE_clean_linker_10, # of connection points: 2
#     Edge 22, Type (0, 0), BuildingBlock: TEMPAE_clean_linker_10, # of connection points: 2
#     Edge 23, Type (0, 0), BuildingBlock: TEMPAE_clean_linker_10, # of connection points: 2
#     Edge 24, Type (0, 0), BuildingBlock: TEMPAE_clean_linker_10, # of connection points: 2
#     Edge 25, Type (0, 0), BuildingBlock: TEMPAE_clean_linker_10, # of connection points: 2
#     Edge 26, Type (0, 0), BuildingBlock: TEMPAE_clean_linker_10, # of connection points: 2
#     Edge 27, Type (0, 0), BuildingBlock: TEMPAE_clean_linker_10, # of connection points: 2
#     Edge 28, Type (0, 0), BuildingBlock: TEMPAE_clean_linker_10, # of connection points: 2
#     Edge 29, Type (0, 0), BuildingBlock: TEMPAE_clean_linker_10, # of connection points: 2
#     Edge 30, Type (0, 0), BuildingBlock: TEMPAE_clean_linker_10, # of connection points: 2
#     Edge 31, Type (0, 0), BuildingBlock: TEMPAE_clean_linker_10, # of connection points: 2
#     Edge 32, Type (0, 0), BuildingBlock: TEMPAE_clean_linker_10, # of connection points: 2
#     Edge 33, Type (0, 0), BuildingBlock: TEMPAE_clean_linker_10, # of connection points: 2
#     Edge 34, Type (0, 0), BuildingBlock: TEMPAE_clean_linker_10, # of connection points: 2
#     Edge 35, Type (0, 0), BuildingBlock: TEMPAE_clean_linker_10, # of connection points: 2
#     Edge 36, Type (0, 0), BuildingBlock: TEMPAE_clean_linker_10, # of connection points: 2
#     Edge 37, Type (0, 0), BuildingBlock: TEMPAE_clean_linker_10, # of connection points: 2
#     Edge 38, Type (0, 0), BuildingBlock: TEMPAE_clean_linker_10, # of connection points: 2
#     Edge 39, Type (0, 0), BuildingBlock: TEMPAE_clean_linker_10, # of connection points: 2
#     Edge 40, Type (0, 0), BuildingBlock: TEMPAE_clean_linker_10, # of connection points: 2
#     Edge 41, Type (0, 0), BuildingBlock: TEMPAE_clean_linker_10, # of connection points: 2
#     Edge 42, Type (0, 0), BuildingBlock: TEMPAE_clean_linker_10, # of connection points: 2
#     Edge 43, Type (0, 0), BuildingBlock: TEMPAE_clean_linker_10, # of connection points: 2
#     Edge 44, Type (0, 0), BuildingBlock: TEMPAE_clean_linker_10, # of connection points: 2
#     Edge 45, Type (0, 0), BuildingBlock: TEMPAE_clean_linker_10, # of connection points: 2
#     Edge 46, Type (0, 0), BuildingBlock: TEMPAE_clean_linker_10, # of connection points: 2
#     Edge 47, Type (0, 0), BuildingBlock: TEMPAE_clean_linker_10, # of connection points: 2
#     Edge 48, Type (0, 0), BuildingBlock: TEMPAE_clean_linker_10, # of connection points: 2
#     Edge 49, Type (0, 0), BuildingBlock: TEMPAE_clean_linker_10, # of connection points: 2
#     Edge 50, Type (0, 0), BuildingBlock: TEMPAE_clean_linker_10, # of connection points: 2
#     Edge 51, Type (0, 0), BuildingBlock: TEMPAE_clean_linker_10, # of connection points: 2
#     Edge 52, Type (0, 0), BuildingBlock: TEMPAE_clean_linker_10, # of connection points: 2
#     Edge 53, Type (0, 0), BuildingBlock: TEMPAE_clean_linker_10, # of connection points: 2
#     Edge 54, Type (0, 0), BuildingBlock: TEMPAE_clean_linker_10, # of connection points: 2
#     Edge 55, Type (0, 0), BuildingBlock: TEMPAE_clean_linker_10, # of connection points: 2
#     Edge 56, Type (0, 0), BuildingBlock: TEMPAE_clean_linker_10, # of connection points: 2
#     Edge 57, Type (0, 0), BuildingBlock: TEMPAE_clean_linker_10, # of connection points: 2
#     Edge 58, Type (0, 0), BuildingBlock: TEMPAE_clean_linker_10, # of connection points: 2
#     Edge 59, Type (0, 0), BuildingBlock: TEMPAE_clean_linker_10, # of connection points: 2
#     Edge 60, Type (0, 0), BuildingBlock: TEMPAE_clean_linker_10, # of connection points: 2
#     Edge 61, Type (0, 0), BuildingBlock: TEMPAE_clean_linker_10, # of connection points: 2
#     Edge 62, Type (0, 0), BuildingBlock: TEMPAE_clean_linker_10, # of connection points: 2
#     Edge 63, Type (0, 0), BuildingBlock: TEMPAE_clean_linker_10, # of connection points: 2
# Relax obj value: 0.258
# Max RMSD: 0.298
# Mean RMSD: 0.298
data_MOF--net-wig--node1-OJICUG_clean_sbu_0--edge1-TEMPAE_clean_linker_10
_symmetry_space_group_name_H-M    P1
_symmetry_Int_Tables_number       1
_symmetry_cell_setting            triclinic
loop_
_symmetry_equiv_pos_as_xyz
'x, y, z'
_cell_length_a     29.181983
_cell_length_b     29.224834
_cell_length_c     88.424547
_cell_angle_alpha  90.081946
_cell_angle_beta   89.991752
_cell_angle_gamma 90.162087
loop_
_atom_site_label
_atom_site_type_symbol
_atom_site_fract_x
_atom_site_fract_y
_atom_site_fract_z
_atom_type_partial_charge
Sc0 Sc 0.13458 0.23187 0.29024 0.0
Sc1 Sc 0.21034 0.21792 0.25957 0.0
Sc2 Sc 0.21537 0.14258 0.29046 0.0
O3 O 0.18662 0.19731 0.28005 0.0
C4 C 0.19709 0.20767 0.31848 0.0
C5 C 0.19495 0.31247 0.27732 0.0
C6 C 0.30208 0.19608 0.27777 0.0
C7 C 0.10476 0.23532 0.25535 0.0
C8 C 0.1076 0.12716 0.29535 0.0
C9 C 0.21766 0.10979 0.25609 0.0
O10 O 0.16414 0.22933 0.31253 0.0
O11 O 0.21012 0.28827 0.26648 0.0
O12 O 0.28444 0.16708 0.28678 0.0
O13 O 0.09839 0.24054 0.26945 0.0
O14 O 0.14884 0.1129 0.29523 0.0
O15 O 0.21497 0.14954 0.25035 0.0
O16 O 0.09682 0.16898 0.29347 0.0
O17 O 0.14307 0.22357 0.24977 0.0
O18 O 0.21724 0.10286 0.27024 0.0
O19 O 0.16781 0.29727 0.28739 0.0
O20 O 0.21845 0.17609 0.31173 0.0
O21 O 0.27952 0.21601 0.26743 0.0
Sc22 Sc 0.21663 0.85073 0.69609 0.0
Sc23 Sc 0.21271 0.7773 0.7275 0.0
Sc24 Sc 0.127 0.77076 0.69988 0.0
O25 O 0.18533 0.79984 0.70785 0.0
C26 C 0.11177 0.87685 0.69283 0.0
C27 C 0.22911 0.88318 0.73061 0.0
C28 C 0.10575 0.77359 0.73484 0.0
C29 C 0.30147 0.79342 0.70689 0.0
C30 C 0.18404 0.78294 0.66983 0.0
C31 C 0.18398 0.68505 0.71144 0.0
O32 O 0.15348 0.88857 0.69447 0.0
O33 O 0.21819 0.84528 0.73669 0.0
O34 O 0.09307 0.77778 0.72119 0.0
O35 O 0.28272 0.81804 0.69683 0.0
O36 O 0.15583 0.76117 0.67803 0.0
O37 O 0.21121 0.70842 0.71955 0.0
O38 O 0.20586 0.81802 0.67444 0.0
O39 O 0.281 0.78003 0.71875 0.0
O40 O 0.14903 0.70182 0.70494 0.0
O41 O 0.23192 0.8886 0.71636 0.0
O42 O 0.09801 0.83561 0.69352 0.0
O43 O 0.1474 0.76954 0.73878 0.0
Sc44 Sc 0.76785 0.84635 0.2843 0.0
Sc45 Sc 0.78351 0.77266 0.25321 0.0
Sc46 Sc 0.85808 0.76739 0.28435 0.0
O47 O 0.80321 0.79571 0.27392 0.0
C48 C 0.87288 0.87428 0.28975 0.0
C49 C 0.76074 0.87869 0.25009 0.0
C50 C 0.88988 0.77023 0.24954 0.0
C51 C 0.68917 0.78131 0.27119 0.0
C52 C 0.79303 0.78493 0.31253 0.0
C53 C 0.81156 0.68035 0.27042 0.0
O54 O 0.83024 0.88383 0.28952 0.0
O55 O 0.76785 0.83956 0.24432 0.0
O56 O 0.89564 0.76267 0.26357 0.0
O57 O 0.70309 0.81274 0.28008 0.0
O58 O 0.82825 0.76714 0.30659 0.0
O59 O 0.79643 0.70245 0.25911 0.0
O60 O 0.7679 0.81317 0.30563 0.0
O61 O 0.71443 0.76357 0.26103 0.0
O62 O 0.83139 0.69913 0.28161 0.0
O63 O 0.76162 0.88597 0.26421 0.0
O64 O 0.88839 0.83402 0.28771 0.0
O65 O 0.851 0.77914 0.24384 0.0
Sc66 Sc 0.84481 0.21865 0.69511 0.0
Sc67 Sc 0.76908 0.2126 0.72599 0.0
Sc68 Sc 0.75622 0.13643 0.69542 0.0
O69 O 0.79025 0.18904 0.70555 0.0
C70 C 0.78103 0.19759 0.66693 0.0
C71 C 0.78888 0.3037 0.70714 0.0
C72 C 0.67483 0.19547 0.70823 0.0
C73 C 0.87684 0.22366 0.72955 0.0
C74 C 0.8617 0.11174 0.69046 0.0
C75 C 0.7533 0.10681 0.73032 0.0
O76 O 0.8128 0.21913 0.67358 0.0
O77 O 0.7696 0.28151 0.71774 0.0
O78 O 0.69029 0.16848 0.69818 0.0
O79 O 0.88394 0.22341 0.71541 0.0
O80 O 0.81987 0.10009 0.69211 0.0
O81 O 0.76476 0.14525 0.73592 0.0
O82 O 0.87562 0.15305 0.69087 0.0
O83 O 0.8372 0.21904 0.73528 0.0
O84 O 0.74795 0.10034 0.71623 0.0
O85 O 0.81832 0.28661 0.69822 0.0
O86 O 0.75834 0.16585 0.6732 0.0
O87 O 0.69878 0.21086 0.7191 0.0
Sc88 Sc 0.23695 0.36763 0.952 0.0
Sc89 Sc 0.22881 0.2892 0.98171 0.0
Sc90 Sc 0.1469 0.28788 0.9526 0.0
O91 O 0.204 0.31506 0.96217 0.0
C92 C 0.1335 0.39573 0.94783 0.0
C93 C 0.24858 0.39317 0.98706 0.0
C94 C 0.12083 0.28624 0.98731 0.0
C95 C 0.31945 0.30607 0.96204 0.0
C96 C 0.20694 0.30624 0.9238 0.0
C97 C 0.2007 0.19985 0.96374 0.0
O98 O 0.17459 0.40688 0.951 0.0
O99 O 0.23464 0.35528 -0.00761 0.0
O100 O 0.11008 0.292 0.97352 0.0
O101 O 0.30168 0.33245 0.95226 0.0
O102 O 0.17901 0.28102 0.93097 0.0
O103 O 0.22694 0.22171 0.97262 0.0
O104 O 0.22642 0.34081 0.9297 0.0
O105 O 0.29816 0.292 0.97369 0.0
O106 O 0.16708 0.21794 0.95689 0.0
O107 O 0.25295 0.40054 0.97298 0.0
O108 O 0.11995 0.35439 0.94685 0.0
O109 O 0.1619 0.28154 -0.00817 0.0
Sc110 Sc 0.27969 0.86597 0.03711 0.0
Sc111 Sc 0.28872 0.79286 0.0054 0.0
Sc112 Sc 0.3662 0.78284 0.0354 0.0
O113 O 0.31157 0.81416 0.02592 0.0
C114 C 0.38686 0.88795 0.04117 0.0
C115 C 0.27635 0.90056 0.00288 0.0
C116 C 0.39423 0.77869 0.00042 0.0
C117 C 0.19597 0.80939 0.02373 0.0
C118 C 0.30497 0.8023 0.06449 0.0
C119 C 0.30811 0.6996 0.02334 0.0
O120 O 0.34465 0.89873 0.04228 0.0
O121 O 0.28084 0.86138 -0.00321 0.0
O122 O 0.40115 0.77369 0.01446 0.0
O123 O 0.21192 0.83852 0.03305 0.0
O124 O 0.33929 0.78545 0.05777 0.0
O125 O 0.29263 0.72248 0.01222 0.0
O126 O 0.27836 0.83091 0.05835 0.0
O127 O 0.21969 0.79113 0.01334 0.0
O128 O 0.33464 0.7165 0.03331 0.0
O129 O 0.27614 0.90664 0.0171 0.0
O130 O 0.40053 0.84771 0.03798 0.0
O131 O 0.35567 0.79041 -0.00493 0.0
Sc132 Sc 0.86123 0.73715 0.9456 0.0
Sc133 Sc 0.78874 0.7281 0.97745 0.0
Sc134 Sc 0.77689 0.6509 0.94746 0.0
O135 O 0.80921 0.70538 0.95686 0.0
C136 C 0.79695 0.71089 0.91815 0.0
C137 C 0.80399 0.82012 0.9586 0.0
C138 C 0.69444 0.70895 0.95991 0.0
C139 C 0.89628 0.74236 0.97987 0.0
C140 C 0.88267 0.63021 0.9421 0.0
C141 C 0.7752 0.62251 0.98239 0.0
O142 O 0.82709 0.73646 0.92409 0.0
O143 O 0.78702 0.79688 0.96936 0.0
O144 O 0.71047 0.68216 0.94989 0.0
O145 O 0.90207 0.74337 0.96564 0.0
O146 O 0.84175 0.61688 0.94464 0.0
O147 O 0.78689 0.66115 0.98772 0.0
O148 O 0.89431 0.67225 0.94125 0.0
O149 O 0.85738 0.73601 0.98597 0.0
O150 O 0.76894 0.61568 0.96839 0.0
O151 O 0.83251 0.80429 0.94909 0.0
O152 O 0.77846 0.67794 0.92514 0.0
O153 O 0.71806 0.72438 0.97089 0.0
Sc154 Sc 0.6532 0.2409 0.03584 0.0
Sc155 Sc 0.72769 0.22191 0.00529 0.0
Sc156 Sc 0.73269 0.15081 0.03743 0.0
O157 O 0.70439 0.20442 0.02616 0.0
C158 C 0.71447 0.21884 0.06468 0.0
C159 C 0.71873 0.31791 0.02242 0.0
C160 C 0.82001 0.19578 0.0228 0.0
C161 C 0.62194 0.24449 0.00136 0.0
C162 C 0.62512 0.13708 0.04253 0.0
C163 C 0.72974 0.1147 0.00302 0.0
O164 O 0.68425 0.24127 0.05763 0.0
O165 O 0.73537 0.29195 0.01224 0.0
O166 O 0.80141 0.17541 0.03389 0.0
O167 O 0.61496 0.24715 0.01546 0.0
O168 O 0.66602 0.12196 0.04209 0.0
O169 O 0.72297 0.15331 -0.00313 0.0
O170 O 0.61491 0.179 0.04047 0.0
O171 O 0.66077 0.23476 -0.00421 0.0
O172 O 0.73545 0.10982 0.0172 0.0
O173 O 0.68792 0.30495 0.0317 0.0
O174 O 0.73474 0.18464 0.05898 0.0
O175 O 0.79785 0.21136 0.01159 0.0
Sc176 Sc 0.63743 0.72024 0.78317 0.0
Sc177 Sc 0.70789 0.70582 0.75101 0.0
Sc178 Sc 0.71827 0.6317 0.78177 0.0
O179 O 0.68755 0.68594 0.77195 0.0
C180 C 0.70375 0.69657 0.81028 0.0
C181 C 0.69878 0.79996 0.769 0.0
C182 C 0.80279 0.68041 0.76706 0.0
C183 C 0.60044 0.72481 0.74933 0.0
C184 C 0.61283 0.61452 0.78874 0.0
C185 C 0.71233 0.59974 0.7471 0.0
O186 O 0.67436 0.72227 0.8041 0.0
O187 O 0.71647 0.77474 0.75883 0.0
O188 O 0.78552 0.66013 0.7784 0.0
O189 O 0.59452 0.72398 0.76356 0.0
O190 O 0.65289 0.59997 0.78573 0.0
O191 O 0.70186 0.63832 0.74152 0.0
O192 O 0.60253 0.65693 0.78917 0.0
O193 O 0.63942 0.71961 0.7432 0.0
O194 O 0.72178 0.59434 0.76099 0.0
O195 O 0.66805 0.78593 0.77813 0.0
O196 O 0.71996 0.66152 0.8038 0.0
O197 O 0.77922 0.69473 0.75595 0.0
Sc198 Sc 0.71822 0.35008 0.20307 0.0
Sc199 Sc 0.71084 0.26909 0.23243 0.0
Sc200 Sc 0.63315 0.26495 0.20221 0.0
O201 O 0.68732 0.29492 0.21263 0.0
C202 C 0.61126 0.37026 0.19874 0.0
C203 C 0.71983 0.37635 0.23801 0.0
C204 C 0.60518 0.25379 0.23708 0.0
C205 C 0.80294 0.29183 0.21472 0.0
C206 C 0.69574 0.29213 0.17401 0.0
C207 C 0.69127 0.1799 0.21226 0.0
O208 O 0.65331 0.38173 0.19796 0.0
O209 O 0.71964 0.33542 0.24285 0.0
O210 O 0.59821 0.25097 0.22295 0.0
O211 O 0.78651 0.32435 0.20691 0.0
O212 O 0.66076 0.27363 0.17996 0.0
O213 O 0.70658 0.20046 0.2239 0.0
O214 O 0.7221 0.31891 0.1812 0.0
O215 O 0.7795 0.26917 0.22421 0.0
O216 O 0.66492 0.19854 0.20264 0.0
O217 O 0.71786 0.38671 0.22408 0.0
O218 O 0.59785 0.32946 0.20121 0.0
O219 O 0.64384 0.26465 0.24264 0.0
Sc220 Sc 0.25716 0.35433 0.78593 0.0
Sc221 Sc 0.2704 0.27914 0.7553 0.0
Sc222 Sc 0.34357 0.27038 0.787 0.0
O223 O 0.29058 0.30134 0.77604 0.0
C224 C 0.36248 0.37728 0.79217 0.0
C225 C 0.25703 0.38584 0.75137 0.0
C226 C 0.37815 0.26876 0.75261 0.0
C227 C 0.17549 0.2957 0.77256 0.0
C228 C 0.27706 0.29131 0.81446 0.0
C229 C 0.28921 0.18603 0.77323 0.0
O230 O 0.321 0.38918 0.79015 0.0
O231 O 0.26526 0.34681 0.74567 0.0
O232 O 0.38403 0.26639 0.76682 0.0
O233 O 0.19067 0.32392 0.7823 0.0
O234 O 0.30959 0.269 0.80852 0.0
O235 O 0.2719 0.20949 0.7626 0.0
O236 O 0.25648 0.32336 0.80769 0.0
O237 O 0.19988 0.27897 0.76202 0.0
O238 O 0.31637 0.20256 0.78308 0.0
O239 O 0.25254 0.39216 0.76546 0.0
O240 O 0.37575 0.33574 0.79186 0.0
O241 O 0.33915 0.27509 0.74659 0.0
Sc242 Sc 0.35899 0.73097 0.20326 0.0
Sc243 Sc 0.27378 0.72043 0.23099 0.0
Sc244 Sc 0.2738 0.64603 0.19957 0.0
O245 O 0.30228 0.6989 0.21133 0.0
C246 C 0.30489 0.71013 0.17275 0.0
C247 C 0.29841 0.81394 0.21386 0.0
C248 C 0.18696 0.70263 0.20978 0.0
C249 C 0.3779 0.73417 0.23887 0.0
C250 C 0.3815 0.62586 0.19818 0.0
C251 C 0.26104 0.61258 0.23366 0.0
O252 O 0.33692 0.72863 0.18026 0.0
O253 O 0.27917 0.79082 0.22425 0.0
O254 O 0.20545 0.67277 0.20135 0.0
O255 O 0.38867 0.73955 0.2251 0.0
O256 O 0.33974 0.61417 0.19645 0.0
O257 O 0.26394 0.65211 0.2396 0.0
O258 O 0.39419 0.66651 0.20131 0.0
O259 O 0.33796 0.72289 0.24317 0.0
O260 O 0.26466 0.60561 0.21953 0.0
O261 O 0.32782 0.7975 0.20477 0.0
O262 O 0.27808 0.68048 0.17831 0.0
O263 O 0.20725 0.72173 0.22082 0.0
Sc264 Sc 0.72872 0.84377 0.45129 0.0
Sc265 Sc 0.71687 0.7642 0.48003 0.0
Sc266 Sc 0.64572 0.75753 0.44806 0.0
O267 O 0.69658 0.78853 0.4598 0.0
C268 C 0.62428 0.86467 0.44506 0.0
C269 C 0.72235 0.86729 0.48661 0.0
C270 C 0.60909 0.74543 0.48143 0.0
C271 C 0.81188 0.79231 0.46462 0.0
C272 C 0.71162 0.78547 0.42144 0.0
C273 C 0.70804 0.6758 0.45965 0.0
O274 O 0.66415 0.87807 0.44896 0.0
O275 O 0.70678 0.82891 0.4909 0.0
O276 O 0.60214 0.75262 0.46747 0.0
O277 O 0.79451 0.81159 0.45314 0.0
O278 O 0.68364 0.75763 0.42739 0.0
O279 O 0.7284 0.69895 0.46983 0.0
O280 O 0.72695 0.82026 0.42837 0.0
O281 O 0.78827 0.77963 0.47596 0.0
O282 O 0.67401 0.69042 0.45206 0.0
O283 O 0.73612 0.87492 0.4732 0.0
O284 O 0.61369 0.82268 0.44305 0.0
O285 O 0.64882 0.74553 0.48727 0.0
Sc286 Sc 0.7722 0.34256 0.53137 0.0
Sc287 Sc 0.76558 0.27173 0.49906 0.0
Sc288 Sc 0.83889 0.24349 0.52913 0.0
O289 O 0.79238 0.28613 0.51977 0.0
C290 C 0.88145 0.34133 0.53562 0.0
C291 C 0.77957 0.37863 0.4972 0.0
C292 C 0.86567 0.23392 0.49428 0.0
C293 C 0.6786 0.30926 0.51714 0.0
C294 C 0.78248 0.27317 0.5583 0.0
C295 C 0.76204 0.17647 0.51688 0.0
O296 O 0.84244 0.36077 0.53644 0.0
O297 O 0.7775 0.33973 0.4908 0.0
O298 O 0.87225 0.22842 0.5083 0.0
O299 O 0.70059 0.3289 0.52769 0.0
O300 O 0.81227 0.24961 0.55146 0.0
O301 O 0.75053 0.20253 0.50598 0.0
O302 O 0.76359 0.30772 0.55242 0.0
O303 O 0.6976 0.28932 0.50605 0.0
O304 O 0.79337 0.18658 0.52632 0.0
O305 O 0.77698 0.38392 0.51146 0.0
O306 O 0.88653 0.29913 0.53242 0.0
O307 O 0.82981 0.25212 0.48895 0.0
Sc308 Sc 0.34881 0.1997 0.45381 0.0
Sc309 Sc 0.27104 0.19115 0.48421 0.0
Sc310 Sc 0.26338 0.11506 0.45356 0.0
O311 O 0.29466 0.16851 0.46393 0.0
C312 C 0.28523 0.18033 0.42567 0.0
C313 C 0.29183 0.2839 0.46676 0.0
C314 C 0.17869 0.17073 0.46582 0.0
C315 C 0.37902 0.20133 0.48831 0.0
C316 C 0.36833 0.09352 0.4479 0.0
C317 C 0.26024 0.08468 0.48833 0.0
O318 O 0.31458 0.20487 0.43247 0.0
O319 O 0.26954 0.26022 0.4763 0.0
O320 O 0.19662 0.1455 0.45573 0.0
O321 O 0.38813 0.19868 0.47428 0.0
O322 O 0.32759 0.08027 0.45058 0.0
O323 O 0.26901 0.12364 0.49405 0.0
O324 O 0.38024 0.13544 0.44777 0.0
O325 O 0.33851 0.20092 0.49357 0.0
O326 O 0.25536 0.0783 0.47422 0.0
O327 O 0.32335 0.26734 0.45851 0.0
O328 O 0.26683 0.14535 0.4316 0.0
O329 O 0.20101 0.18605 0.47709 0.0
Sc330 Sc 0.13071 0.69156 0.53127 0.0
Sc331 Sc 0.21967 0.69914 0.50469 0.0
Sc332 Sc 0.22764 0.62067 0.53486 0.0
O333 O 0.19264 0.67028 0.52358 0.0
C334 C 0.18566 0.67781 0.56206 0.0
C335 C 0.18213 0.78438 0.5232 0.0
C336 C 0.30887 0.68598 0.52532 0.0
C337 C 0.11396 0.69718 0.49588 0.0
C338 C 0.12452 0.5834 0.53534 0.0
C339 C 0.24438 0.5953 0.49997 0.0
O340 O 0.15341 0.69444 0.55421 0.0
O341 O 0.21014 0.76589 0.51407 0.0
O342 O 0.29183 0.65729 0.53451 0.0
O343 O 0.10022 0.69121 0.50932 0.0
O344 O 0.16756 0.5772 0.53639 0.0
O345 O 0.23251 0.63356 0.49436 0.0
O346 O 0.10653 0.62255 0.53353 0.0
O347 O 0.15579 0.70272 0.49245 0.0
O348 O 0.2451 0.58715 0.5141 0.0
O349 O 0.14945 0.76303 0.52962 0.0
O350 O 0.21506 0.65026 0.55671 0.0
O351 O 0.28722 0.70146 0.51401 0.0
C352 C 0.23948 0.87428 0.21311 0.0
C353 C 0.28585 0.86231 0.21275 0.0
C354 C 0.22621 0.91942 0.21595 0.0
C355 C 0.26028 0.95267 0.21902 0.0
C356 C 0.30718 0.94166 0.217 0.0
C357 C 0.31948 0.89632 0.21375 0.0
C358 C 0.17583 0.92997 0.21752 0.0
C359 C 0.34453 0.97614 0.22019 0.0
C360 C 0.22699 0.07385 0.23035 0.0
C361 C 0.22527 0.06967 0.24616 0.0
C362 C 0.23775 0.03597 0.22118 0.0
C363 C 0.24768 0.99345 0.22807 0.0
C364 C 0.2453 0.989 0.24398 0.0
C365 C 0.23378 0.02692 0.25277 0.0
C366 C 0.23913 0.04158 0.20423 0.0
C367 C 0.25554 0.94419 0.25184 0.0
H368 H 0.21357 0.84778 0.21211 0.0
H369 H 0.35536 0.88678 0.21341 0.0
H370 H 0.1659 0.92767 0.22961 0.0
H371 H 0.16804 0.96509 0.21355 0.0
H372 H 0.15452 0.90523 0.21105 0.0
H373 H 0.37785 0.96541 0.21526 0.0
H374 H 0.3354 0.01026 0.21566 0.0
H375 H 0.34889 0.97964 0.23261 0.0
H376 H 0.22043 0.10673 0.22513 0.0
H377 H 0.23253 0.02308 0.26495 0.0
H378 H 0.21964 0.01368 0.19861 0.0
H379 H 0.27509 0.03933 0.20024 0.0
H380 H 0.22487 0.07499 0.20058 0.0
H381 H 0.23086 0.91755 0.24811 0.0
H382 H 0.25349 0.94704 0.26435 0.0
H383 H 0.29041 0.93227 0.24879 0.0
C384 C 0.06981 0.72833 0.75535 0.0
C385 C 0.06951 0.76724 0.74614 0.0
C386 C 0.02959 0.71374 0.76261 0.0
C387 C 0.98889 0.73938 0.76075 0.0
C388 C 0.9903 0.78186 0.75307 0.0
C389 C 0.03053 0.7949 0.7456 0.0
C390 C 0.02949 0.66827 0.77066 0.0
C391 C 0.94801 0.811 0.75127 0.0
C392 C 0.876 0.68105 0.75311 0.0
C393 C 0.85233 0.68883 0.7666 0.0
C394 C 0.92168 0.6946 0.75152 0.0
C395 C 0.94371 0.71775 0.76361 0.0
C396 C 0.92058 0.7238 0.77754 0.0
C397 C 0.875 0.70874 0.77893 0.0
C398 C 0.94547 0.68634 0.73658 0.0
C399 C 0.94267 0.74883 0.79058 0.0
H400 H 0.10008 0.70689 0.75568 0.0
H401 H 0.03065 0.82523 0.73854 0.0
H402 H 0.00763 0.66938 0.78092 0.0
H403 H 0.01517 0.64171 0.76301 0.0
H404 H 0.06465 0.65775 0.77396 0.0
H405 H 0.95667 0.84633 0.7476 0.0
H406 H 0.92523 0.79543 0.74262 0.0
H407 H 0.92856 0.8128 0.76203 0.0
H408 H 0.8583 0.66527 0.74365 0.0
H409 H 0.8563 0.71497 0.78933 0.0
H410 H 0.97959 0.67068 0.73844 0.0
H411 H 0.95093 0.71944 0.73071 0.0
H412 H 0.92527 0.66359 0.72901 0.0
H413 H 0.97903 0.73869 0.79193 0.0
H414 H 0.92428 0.7425 0.80139 0.0
H415 H 0.94206 0.78614 0.78829 0.0
C416 C 0.76008 0.91802 0.22479 0.0
C417 C 0.74882 0.91758 0.24022 0.0
C418 C 0.75055 0.95657 0.21583 0.0
C419 C 0.72932 -0.0049 0.22253 0.0
C420 C 0.71586 0.99367 0.23791 0.0
C421 C 0.72587 0.95507 0.24653 0.0
C422 C 0.76511 0.95667 0.19946 0.0
C423 C 0.6926 0.03378 0.24553 0.0
C424 C 0.74889 0.11872 0.21479 0.0
C425 C 0.70487 0.13191 0.2103 0.0
C426 C 0.7597 0.07259 0.21675 0.0
C427 C 0.72526 0.03917 0.21441 0.0
C428 C 0.68275 0.05196 0.20796 0.0
C429 C 0.67295 0.09858 0.20594 0.0
C430 C 0.80593 0.06038 0.22324 0.0
C431 C 0.64574 0.01706 0.2049 0.0
H432 H 0.77751 0.88892 0.21984 0.0
H433 H 0.71606 0.95456 0.25835 0.0
H434 H 0.74034 0.97555 0.19231 0.0
H435 H 0.79884 0.974 0.19845 0.0
H436 H 0.76875 0.92131 0.195 0.0
H437 H 0.68196 0.02591 0.2573 0.0
H438 H 0.71629 0.06354 0.24584 0.0
H439 H 0.66178 0.0441 0.23905 0.0
H440 H 0.774 0.14468 0.21775 0.0
H441 H 0.6391 0.1089 0.20224 0.0
H442 H 0.81958 0.02899 0.21783 0.0
H443 H 0.80229 0.05347 0.23553 0.0
H444 H 0.83122 0.08852 0.22177 0.0
H445 H 0.66053 0.98481 0.20044 0.0
H446 H 0.62004 0.03015 0.19671 0.0
H447 H 0.62777 0.00892 0.21563 0.0
C448 C 0.09253 0.31389 0.77549 0.0
C449 C 0.12714 0.2817 0.77303 0.0
C450 C 0.0467 0.30292 0.77224 0.0
C451 C 0.03586 0.25876 0.76662 0.0
C452 C 0.07008 0.22461 0.76609 0.0
C453 C 0.11552 0.23669 0.76913 0.0
C454 C 0.01106 0.34012 0.7731 0.0
C455 C 0.05987 0.17681 0.7605 0.0
C456 C 0.9149 0.22443 0.7551 0.0
C457 C 0.91655 0.2328 0.73948 0.0
C458 C 0.95313 0.23362 0.76432 0.0
C459 C 0.99344 0.25178 0.75771 0.0
C460 C 0.99474 0.26121 0.74203 0.0
C461 C 0.95648 0.25142 0.73314 0.0
C462 C 0.95079 0.2228 0.78098 0.0
C463 C 0.03692 0.281 0.73449 0.0
H464 H 0.10162 0.3486 0.77866 0.0
H465 H 0.14237 0.21152 0.7676 0.0
H466 H 0.00552 0.35444 0.76163 0.0
H467 H 0.97779 0.32636 0.77715 0.0
H468 H 0.02203 0.36842 0.7807 0.0
H469 H 0.08711 0.15233 0.76384 0.0
H470 H 0.02655 0.16437 0.76494 0.0
H471 H 0.05768 0.1771 0.74797 0.0
H472 H 0.88408 0.21015 0.76007 0.0
H473 H 0.95791 0.25872 0.72113 0.0
H474 H 0.96503 0.25141 0.78779 0.0
H475 H 0.97188 0.19213 0.78337 0.0
H476 H 0.91515 0.21583 0.78477 0.0
H477 H 0.04736 0.31322 0.74019 0.0
H478 H 0.03135 0.28838 0.72231 0.0
H479 H 0.06585 0.25662 0.73547 0.0
C480 C 0.29203 0.46412 -0.00774 0.0
C481 C 0.26095 0.43094 -0.00266 0.0
C482 C 0.30016 0.50385 0.00058 0.0
C483 C 0.27664 0.51061 0.0144 0.0
C484 C 0.2482 0.47552 0.02027 0.0
C485 C 0.24056 0.43583 0.01161 0.0
C486 C 0.33128 0.54011 -0.00606 0.0
C487 C 0.22349 0.48097 0.03514 0.0
C488 C 0.3225 0.61895 0.03167 0.0
C489 C 0.29474 0.65102 0.0243 0.0
C490 C 0.31375 0.5719 0.03014 0.0
C491 C 0.27671 0.55717 0.021 0.0
C492 C 0.24558 0.5896 0.0151 0.0
C493 C 0.25506 0.63617 0.01681 0.0
C494 C 0.34659 0.53816 0.03708 0.0
C495 C 0.20505 0.57539 0.00554 0.0
H496 H 0.30891 0.45981 0.98143 0.0
H497 H 0.21695 0.40988 0.01565 0.0
H498 H 0.31077 0.57059 0.9908 0.0
H499 H 0.35715 0.55118 0.00237 0.0
H500 H 0.34955 0.5279 0.98368 0.0
H501 H 0.21518 0.44718 0.04021 0.0
H502 H 0.2441 0.50115 0.04333 0.0
H503 H 0.19081 0.49937 0.03323 0.0
H504 H 0.35265 0.63036 0.03778 0.0
H505 H 0.23253 0.66097 0.01156 0.0
H506 H 0.37189 0.52729 0.02844 0.0
H507 H 0.32824 0.50712 0.04107 0.0
H508 H 0.36561 0.55355 0.04672 0.0
H509 H 0.21737 0.56341 -0.00566 0.0
H510 H 0.18076 0.60407 0.0037 0.0
H511 H 0.18625 0.54667 0.0109 0.0
C512 C 0.46899 0.74146 -0.00425 0.0
C513 C 0.43271 0.76786 0.99017 0.0
C514 C 0.50733 0.73201 0.9869 0.0
C515 C 0.50973 0.74942 0.972 0.0
C516 C 0.4723 0.77411 0.96594 0.0
C517 C 0.434 0.78313 0.97514 0.0
C518 C 0.54626 0.70515 -0.00615 0.0
C519 C 0.47336 0.79274 0.95004 0.0
C520 C 0.63436 0.76658 0.96488 0.0
C521 C 0.64629 0.72358 0.95909 0.0
C522 C 0.58854 0.77824 0.96724 0.0
C523 C 0.55397 0.74577 0.96388 0.0
C524 C 0.56549 0.70468 0.95627 0.0
C525 C 0.61186 0.69396 0.95393 0.0
C526 C 0.57773 0.82294 0.97504 0.0
C527 C 0.52933 0.66991 0.95212 0.0
H528 H 0.46784 0.72848 0.00723 0.0
H529 H 0.40581 0.80313 0.97072 0.0
H530 H 0.55535 0.67569 0.98653 0.0
H531 H 0.57708 0.72728 -0.00516 0.0
H532 H 0.53768 0.69192 0.00528 0.0
H533 H 0.43822 0.79874 0.94566 0.0
H534 H 0.49189 0.82593 0.95001 0.0
H535 H 0.49156 0.76923 0.94224 0.0
H536 H 0.66104 0.79018 0.96842 0.0
H537 H 0.62108 0.66104 0.94917 0.0
H538 H 0.56896 0.81622 0.98705 0.0
H539 H 0.54773 0.8396 0.9697 0.0
H540 H 0.6072 0.84707 0.97474 0.0
H541 H 0.52014 0.64967 0.96229 0.0
H542 H 0.54177 0.64591 0.94328 0.0
H543 H 0.49776 0.68695 0.94802 0.0
C544 C 0.77505 0.3783 0.01533 0.0
C545 C 0.7344 0.366 0.02276 0.0
C546 C 0.78599 0.42426 0.01278 0.0
C547 C 0.75532 0.4586 0.0177 0.0
C548 C 0.7173 0.44666 0.02683 0.0
C549 C 0.70717 0.40027 0.02926 0.0
C550 C 0.82753 0.43559 0.00329 0.0
C551 C 0.68457 0.48247 0.03264 0.0
C552 C 0.78807 0.58026 0.00681 0.0
C553 C 0.76715 0.58335 -0.00743 0.0
C554 C 0.78296 0.54057 0.01565 0.0
C555 C 0.75641 0.50362 0.01003 0.0
C556 C 0.73334 0.50782 -0.00397 0.0
C557 C 0.739 0.54753 0.98752 0.0
C558 C 0.80766 0.5375 0.0306 0.0
C559 C 0.7042 0.46951 0.98963 0.0
H560 H 0.7971 0.35194 0.01071 0.0
H561 H 0.67619 0.39102 0.03531 0.0
H562 H 0.81639 0.44393 0.99161 0.0
H563 H 0.84573 0.46593 0.00787 0.0
H564 H 0.85192 0.40651 0.0027 0.0
H565 H 0.66373 0.46941 0.04223 0.0
H566 H 0.70329 0.51363 0.03634 0.0
H567 H 0.6609 0.49252 0.02341 0.0
H568 H 0.80966 0.60803 0.01078 0.0
H569 H 0.72185 0.55013 0.97668 0.0
H570 H 0.84001 0.51823 0.02903 0.0
H571 H 0.78677 0.51898 0.03912 0.0
H572 H 0.81641 0.57195 0.03509 0.0
H573 H 0.7259 0.43914 0.98735 0.0
H574 H 0.68689 0.47931 0.97893 0.0
H575 H 0.67758 0.45917 -0.00209 0.0
C576 C 0.40106 0.32297 0.95558 0.0
C577 C 0.36754 0.29196 0.96045 0.0
C578 C 0.44771 0.31356 0.95789 0.0
C579 C 0.46041 0.27232 0.96516 0.0
C580 C 0.42685 0.23844 0.96808 0.0
C581 C 0.38067 0.24886 0.96579 0.0
C582 C 0.48272 0.34995 0.95423 0.0
C583 C 0.43897 0.19348 0.97544 0.0
C584 C 0.58218 0.24022 0.97612 0.0
C585 C 0.58287 0.25449 0.99128 0.0
C586 C 0.54329 0.24761 0.96705 0.0
C587 C 0.5046 0.26967 0.97337 0.0
C588 C 0.50617 0.286 0.98844 0.0
C589 C 0.54515 0.27818 -0.00284 0.0
C590 C 0.54303 0.23002 0.951 0.0
C591 C 0.46586 0.31014 -0.00436 0.0
H592 H 0.39086 0.35608 0.95123 0.0
H593 H 0.3546 0.22434 0.96915 0.0
H594 H 0.49085 0.36958 0.96465 0.0
H595 H 0.51502 0.33444 0.95007 0.0
H596 H 0.46969 0.37426 0.94561 0.0
H597 H 0.41087 0.16796 0.97432 0.0
H598 H 0.4706 0.17903 0.97042 0.0
H599 H 0.44546 0.19923 0.98767 0.0
H600 H 0.61137 0.22213 0.97148 0.0
H601 H 0.54573 0.2902 0.00876 0.0
H602 H 0.52433 0.25357 0.94336 0.0
H603 H 0.52531 0.19641 0.95065 0.0
H604 H 0.57838 0.22523 0.94662 0.0
H605 H 0.45524 0.33969 0.98863 0.0
H606 H 0.47373 0.3228 0.00721 0.0
H607 H 0.43624 0.28635 -0.00361 0.0
C608 C 0.72342 0.51633 0.74374 0.0
C609 C 0.71645 0.55933 0.73716 0.0
C610 C 0.7331 0.47806 0.73491 0.0
C611 C 0.7351 0.48255 0.71899 0.0
C612 C 0.72563 0.5252 0.71213 0.0
C613 C 0.71672 0.5634 0.72134 0.0
C614 C 0.74248 0.43303 0.74275 0.0
C615 C 0.72636 0.53096 0.69518 0.0
C616 C 0.8087 0.38616 0.70584 0.0
C617 C 0.77564 0.35155 0.7053 0.0
C618 C 0.7955 0.43166 0.70828 0.0
C619 C 0.74835 0.44201 0.70999 0.0
C620 C 0.71495 0.40798 0.70711 0.0
C621 C 0.72907 0.36274 0.70508 0.0
C622 C 0.83211 0.46722 0.71108 0.0
C623 C 0.66435 0.41799 0.70814 0.0
H624 H 0.72253 0.5126 0.75594 0.0
H625 H 0.71118 0.59652 0.71616 0.0
H626 H 0.71741 0.4068 0.73899 0.0
H627 H 0.7772 0.42057 0.73975 0.0
H628 H 0.74035 0.43582 0.75526 0.0
H629 H 0.70736 0.56202 0.69161 0.0
H630 H 0.76234 0.53452 0.69131 0.0
H631 H 0.71135 0.50071 0.6894 0.0
H632 H 0.84474 0.37719 0.70581 0.0
H633 H 0.70364 0.33572 0.70426 0.0
H634 H 0.83561 0.47289 0.72345 0.0
H635 H 0.82265 0.50033 0.70586 0.0
H636 H 0.86589 0.45629 0.70657 0.0
H637 H 0.65328 0.41552 0.72013 0.0
H638 H 0.64401 0.39293 0.70146 0.0
H639 H 0.65653 0.45302 0.70408 0.0
C640 C 0.56692 0.25389 0.26264 0.0
C641 C 0.56624 0.24295 0.24717 0.0
C642 C 0.52839 0.24546 0.2718 0.0
C643 C 0.48858 0.22594 0.26526 0.0
C644 C 0.48868 0.21291 0.24984 0.0
C645 C 0.52739 0.22152 0.24104 0.0
C646 C 0.52978 0.25928 0.28824 0.0
C647 C 0.44707 0.19168 0.24237 0.0
C648 C 0.38341 0.17341 0.28255 0.0
C649 C 0.35124 0.20702 0.27881 0.0
C650 C 0.43033 0.18113 0.28001 0.0
C651 C 0.4447 0.22326 0.27365 0.0
C652 C 0.41281 0.25918 0.27182 0.0
C653 C 0.36635 0.25049 0.27435 0.0
C654 C 0.46365 0.14255 0.28254 0.0
C655 C 0.42676 0.30499 0.26538 0.0
H656 H 0.59698 0.27007 0.26749 0.0
H657 H 0.52678 0.212 0.22919 0.0
H658 H 0.51359 0.29334 0.28956 0.0
H659 H 0.5105 0.23471 0.29539 0.0
H660 H 0.56555 0.26175 0.29247 0.0
H661 H 0.45376 0.1814 0.23048 0.0
H662 H 0.43573 0.16099 0.24873 0.0
H663 H 0.41833 0.21648 0.24242 0.0
H664 H 0.37178 0.14 0.28626 0.0
H665 H 0.34148 0.27701 0.27191 0.0
H666 H 0.49693 0.15569 0.28682 0.0
H667 H 0.47019 0.12491 0.27163 0.0
H668 H 0.4499 0.117 0.29067 0.0
H669 H 0.45908 0.31722 0.27062 0.0
H670 H 0.39986 0.33133 0.26712 0.0
H671 H 0.43284 0.3014 0.25304 0.0
C672 C 0.15862 0.6037 0.71191 0.0
C673 C 0.19357 0.636 0.71003 0.0
C674 C 0.16939 0.55763 0.71452 0.0
C675 C 0.216 0.54417 0.71501 0.0
C676 C 0.25072 0.57566 0.71094 0.0
C677 C 0.23911 0.62153 0.70871 0.0
C678 C 0.13138 0.5249 0.71868 0.0
C679 C 0.30066 0.56235 0.71081 0.0
C680 C 0.24646 0.4694 0.74812 0.0
C681 C 0.25027 0.42599 0.74147 0.0
C682 C 0.23554 0.50778 0.73953 0.0
C683 C 0.22892 0.50302 0.72375 0.0
C684 C 0.23454 0.45978 0.71677 0.0
C685 C 0.2449 0.4215 0.72576 0.0
C686 C 0.2303 0.55337 0.74749 0.0
C687 C 0.22846 0.45365 0.69994 0.0
H688 H 0.12335 0.61502 0.71275 0.0
H689 H 0.26601 0.6466 0.70686 0.0
H690 H 0.13734 0.49071 0.71362 0.0
H691 H 0.13058 0.52072 0.73116 0.0
H692 H 0.09738 0.53764 0.71495 0.0
H693 H 0.32163 0.58688 0.70415 0.0
H694 H 0.31386 0.56216 0.72258 0.0
H695 H 0.30523 0.52749 0.70607 0.0
H696 H 0.25117 0.47348 0.76021 0.0
H697 H 0.24782 0.38806 0.72053 0.0
H698 H 0.1955 0.56729 0.74548 0.0
H699 H 0.25537 0.57837 0.74292 0.0
H700 H 0.2357 0.55078 0.75989 0.0
H701 H 0.19138 0.45378 0.69719 0.0
H702 H 0.24318 0.4208 0.69592 0.0
H703 H 0.2447 0.48219 0.69362 0.0
C704 C 0.42412 0.71252 0.2616 0.0
C705 C 0.41418 0.74332 0.24996 0.0
C706 C 0.46564 0.71612 0.26962 0.0
C707 C 0.49726 0.75107 0.26569 0.0
C708 C 0.48473 0.78491 0.25505 0.0
C709 C 0.4433 0.78054 0.24733 0.0
C710 C 0.47708 0.68038 0.28129 0.0
C711 C 0.51702 0.82317 0.2506 0.0
C712 C 0.61048 0.78557 0.28265 0.0
C713 C 0.64072 0.76628 0.27206 0.0
C714 C 0.56325 0.77654 0.28193 0.0
C715 C 0.54608 0.74832 0.27021 0.0
C716 C 0.57689 0.72517 0.26051 0.0
C717 C 0.62383 0.73429 0.2616 0.0
C718 C 0.53157 0.80016 0.29291 0.0
C719 C 0.56008 0.69427 0.24794 0.0
H720 H 0.40127 0.68389 0.26369 0.0
H721 H 0.43491 0.80484 0.23849 0.0
H722 H 0.49629 0.65215 0.27582 0.0
H723 H 0.49884 0.69474 0.29044 0.0
H724 H 0.4455 0.66561 0.28635 0.0
H725 H 0.50032 0.84873 0.24314 0.0
H726 H 0.53011 0.84111 0.26078 0.0
H727 H 0.54693 0.80872 0.2445 0.0
H728 H 0.62329 0.80935 0.29107 0.0
H729 H 0.64695 0.7182 0.25362 0.0
H730 H 0.50199 0.77793 0.29585 0.0
H731 H 0.51795 0.83175 0.28764 0.0
H732 H 0.54978 0.81001 0.30346 0.0
H733 H 0.53446 0.6695 0.25229 0.0
H734 H 0.58843 0.67489 0.24255 0.0
H735 H 0.54306 0.7152 0.23912 0.0
C736 C 0.68802 0.9152 0.50703 0.0
C737 C 0.72448 0.90565 0.49723 0.0
C738 C 0.68596 0.95741 0.5146 0.0
C739 C 0.72117 0.99001 0.51217 0.0
C740 C 0.76008 0.97834 0.50341 0.0
C741 C 0.76113 0.93625 0.49604 0.0
C742 C 0.64457 0.968 0.52419 0.0
C743 C 0.79899 0.01169 0.50073 0.0
C744 C 0.7107 0.11546 0.50665 0.0
C745 C 0.74029 0.13094 0.51806 0.0
C746 C 0.69808 0.06933 0.50582 0.0
C747 C 0.71565 0.03838 0.51665 0.0
C748 C 0.73938 0.05507 0.52944 0.0
C749 C 0.75183 0.10133 0.52995 0.0
C750 C 0.67103 0.05294 0.49229 0.0
C751 C 0.7563 0.02329 0.54163 0.0
H752 H 0.65976 0.89119 0.50797 0.0
H753 H 0.7897 0.92815 0.48866 0.0
H754 H 0.65251 0.99326 0.5332 0.0
H755 H 0.61726 0.98244 0.51691 0.0
H756 H 0.63076 0.93638 0.52949 0.0
H757 H 0.82774 -0.00398 0.49433 0.0
H758 H 0.78635 0.04155 0.49422 0.0
H759 H 0.81255 0.0246 0.51165 0.0
H760 H 0.70012 0.13847 0.49771 0.0
H761 H 0.77309 0.11343 0.53919 0.0
H762 H 0.64488 0.02742 0.49573 0.0
H763 H 0.69453 0.03606 0.48415 0.0
H764 H 0.65361 0.08158 0.48639 0.0
H765 H 0.73132 -0.00469 0.54374 0.0
H766 H 0.76268 0.04197 0.55239 0.0
H767 H 0.78901 0.00751 0.53796 0.0
C768 C 0.10012 0.16017 0.45467 0.0
C769 C 0.12966 0.18285 0.46474 0.0
C770 C 0.05273 0.16847 0.45497 0.0
C771 C 0.03484 0.19973 0.46567 0.0
C772 C 0.06496 0.22537 0.47496 0.0
C773 C 0.11193 0.21667 0.47434 0.0
C774 C 0.02179 0.14154 0.44456 0.0
C775 C 0.04743 0.25944 0.48647 0.0
C776 C 0.91498 0.24415 0.47136 0.0
C777 C 0.90238 0.21862 0.4841 0.0
C778 C 0.95649 0.23513 0.46388 0.0
C779 C 0.98538 0.20004 0.4694 0.0
C780 C 0.96989 0.17093 0.48111 0.0
C781 C 0.92857 0.1807 0.48833 0.0
C782 C 0.97126 0.2658 0.45106 0.0
C783 C -0.00078 0.13261 0.48721 0.0
H784 H 0.11364 0.13459 0.44699 0.0
H785 H 0.1346 0.23537 0.48186 0.0
H786 H 0.00871 0.11093 0.45061 0.0
H787 H 0.99183 0.16214 0.44097 0.0
H788 H 0.0405 0.12965 0.43435 0.0
H789 H 0.07556 0.27942 0.49181 0.0
H790 H 0.02324 0.2837 0.48112 0.0
H791 H 0.02853 0.24106 0.49552 0.0
H792 H 0.89432 0.27315 0.46796 0.0
H793 H 0.91805 0.1602 0.49796 0.0
H794 H 0.9907 0.24637 0.4424 0.0
H795 H 0.99408 0.29309 0.45552 0.0
H796 H 0.94137 0.28243 0.44559 0.0
H797 H 0.01321 0.11162 0.47785 0.0
H798 H 0.97981 0.10984 0.49498 0.0
H799 H 0.02868 0.14733 0.49352 0.0
C800 C 0.23218 0.84876 0.53048 0.0
C801 C 0.18867 0.83317 0.52622 0.0
C802 C 0.24369 0.89508 0.52924 0.0
C803 C 0.21132 0.92569 0.52305 0.0
C804 C 0.16558 0.91095 0.5206 0.0
C805 C 0.15464 0.86448 0.52231 0.0
C806 C 0.29223 0.90985 0.5326 0.0
C807 C 0.12995 0.94273 0.51415 0.0
C808 C 0.24031 0.0493 0.51339 0.0
C809 C 0.25334 0.04459 0.4982 0.0
C810 C 0.22788 0.01073 0.52199 0.0
C811 C 0.22818 0.96698 0.51508 0.0
C812 C 0.24347 0.96206 0.49997 0.0
C813 C 0.25613 0.00081 0.4918 0.0
C814 C 0.21275 0.01718 0.53816 0.0
C815 C 0.24502 0.91596 0.49216 0.0
H816 H 0.2582 0.82423 0.53375 0.0
H817 H 0.12093 0.85209 0.51911 0.0
H818 H 0.2931 0.94497 0.53738 0.0
H819 H 0.30914 0.88609 0.54064 0.0
H820 H 0.31236 0.91001 0.52195 0.0
H821 H 0.09473 0.92882 0.51556 0.0
H822 H 0.13188 0.97683 0.51963 0.0
H823 H 0.1365 0.94751 0.50189 0.0
H824 H 0.23817 0.0831 0.5184 0.0
H825 H 0.26708 -0.00317 0.48015 0.0
H826 H 0.22454 0.9886 0.54542 0.0
H827 H 0.17477 0.01787 0.53861 0.0
H828 H 0.22574 0.04993 0.54292 0.0
H829 H 0.268 0.89246 0.49841 0.0
H830 H 0.25745 0.91839 0.48031 0.0
H831 H 0.21033 0.90031 0.49202 0.0
C832 C 0.03988 0.67539 0.48432 0.0
C833 C 0.07852 0.70383 0.48433 0.0
C834 C -0.00032 0.68871 0.47693 0.0
C835 C -0.00206 0.73216 0.46988 0.0
C836 C 0.03845 0.75859 0.46845 0.0
C837 C 0.07866 0.7438 0.47562 0.0
C838 C 0.95765 0.65872 0.47824 0.0
C839 C 0.03804 0.80499 0.46099 0.0
C840 C 0.88375 0.76474 0.45235 0.0
C841 C 0.86132 0.78317 0.46497 0.0
C842 C 0.92926 0.74947 0.45347 0.0
C843 C 0.95259 0.7537 0.46744 0.0
C844 C 0.93078 0.77516 0.47988 0.0
C845 C 0.8852 0.78906 0.47854 0.0
C846 C 0.95107 0.72627 0.44004 0.0
C847 C 0.95475 0.7814 0.4949 0.0
H848 H 0.04012 0.64424 0.49098 0.0
H849 H 0.10864 0.76582 0.47571 0.0
H850 H 0.93466 0.67274 0.4871 0.0
H851 H 0.9383 0.65812 0.46744 0.0
H852 H 0.96661 0.62305 0.48139 0.0
H853 H 0.07316 0.81641 0.4579 0.0
H854 H 0.01635 0.80476 0.4507 0.0
H855 H 0.02336 0.8304 0.46897 0.0
H856 H 0.86496 0.75993 0.44189 0.0
H857 H 0.86778 0.80374 0.48823 0.0
H858 H 0.94978 0.68866 0.44168 0.0
H859 H 0.98762 0.7362 0.43888 0.0
H860 H 0.93289 0.73451 0.42935 0.0
H861 H 0.96059 0.7475 0.5002 0.0
H862 H 0.93453 0.80267 0.50289 0.0
H863 H 0.98872 0.79779 0.49325 0.0
C864 C 0.1809 0.23824 0.34436 0.0
C865 C 0.21137 0.21842 0.33403 0.0
C866 C 0.19257 0.24165 0.35971 0.0
C867 C 0.2355 0.22485 0.36462 0.0
C868 C 0.26781 0.2087 0.35399 0.0
C869 C 0.25532 0.20572 0.3388 0.0
C870 C 0.15766 0.25978 0.37077 0.0
C871 C 0.31409 0.19071 0.35878 0.0
C872 C 0.28217 0.23626 0.40431 0.0
C873 C 0.27087 0.19323 0.41029 0.0
C874 C 0.26866 0.24837 0.38964 0.0
C875 C 0.24394 0.2164 0.38081 0.0
C876 C 0.23134 0.1735 0.38695 0.0
C877 C 0.24485 0.16251 0.40163 0.0
C878 C 0.28206 0.29462 0.38345 0.0
C879 C 0.2052 0.13832 0.3778 0.0
H880 H 0.1471 0.24864 0.34065 0.0
H881 H 0.27946 0.19153 0.33075 0.0
H882 H 0.14137 0.23069 0.37679 0.0
H883 H 0.17422 0.28191 0.3794 0.0
H884 H 0.13033 0.27958 0.365 0.0
H885 H 0.33717 0.18481 0.34898 0.0
H886 H 0.33109 0.21487 0.36668 0.0
H887 H 0.3095 0.15777 0.36484 0.0
H888 H 0.30168 0.26045 0.41104 0.0
H889 H 0.23578 0.12929 0.4062 0.0
H890 H 0.25236 0.31112 0.37786 0.0
H891 H 0.30914 0.29036 0.37475 0.0
H892 H 0.2953 0.31782 0.39241 0.0
H893 H 0.17341 0.15353 0.37315 0.0
H894 H 0.19576 0.10775 0.38458 0.0
H895 H 0.22639 0.12696 0.36808 0.0
C896 C 0.21462 0.79307 0.64357 0.0
C897 C 0.19118 0.76636 0.65424 0.0
C898 C 0.21874 0.77835 0.62853 0.0
C899 C 0.19904 0.73604 0.62419 0.0
C900 C 0.17714 0.70808 0.63504 0.0
C901 C 0.17346 0.72359 0.64993 0.0
C902 C 0.24244 0.80887 0.61719 0.0
C903 C 0.15581 0.66265 0.63079 0.0
C904 C 0.15586 0.72078 0.58432 0.0
C905 C 0.18966 0.69259 0.57798 0.0
C906 C 0.1592 0.73598 0.59926 0.0
C907 C 0.19727 0.72271 0.60808 0.0
C908 C 0.23183 0.69473 0.60178 0.0
C909 C 0.22757 0.67987 0.58677 0.0
C910 C 0.12151 0.76562 0.60567 0.0
C911 C 0.27288 0.68008 0.61095 0.0
H912 H 0.22864 0.826 0.64685 0.0
H913 H 0.15592 0.70234 0.65815 0.0
H914 H 0.2681 0.78913 0.61063 0.0
H915 H 0.21692 0.82219 0.60901 0.0
H916 H 0.25988 0.8384 0.62266 0.0
H917 H 0.14328 0.64347 0.64082 0.0
H918 H 0.12645 0.6684 0.62306 0.0
H919 H 0.18095 0.64107 0.62468 0.0
H920 H 0.12647 0.7309 0.57763 0.0
H921 H 0.25401 0.65838 0.58193 0.0
H922 H 0.13612 0.79788 0.61024 0.0
H923 H 0.10447 0.74763 0.61519 0.0
H924 H 0.09512 0.77431 0.5971 0.0
H925 H 0.29051 0.7105 0.61574 0.0
H926 H 0.29789 0.66024 0.60413 0.0
H927 H 0.26153 0.65866 0.6206 0.0
C928 C 0.73929 0.78953 0.33425 0.0
C929 C 0.78098 0.77389 0.3283 0.0
C930 C 0.72893 0.78421 0.34954 0.0
C931 C 0.76092 0.76243 0.3591 0.0
C932 C 0.80169 0.74381 0.35304 0.0
C933 C 0.81136 0.74986 0.33764 0.0
C934 C 0.68499 0.80449 0.35561 0.0
C935 C 0.83614 0.71978 0.36295 0.0
C936 C 0.75583 0.80922 0.39868 0.0
C937 C 0.72722 0.77725 0.40581 0.0
C938 C 0.76921 0.80332 0.38364 0.0
C939 C 0.75373 0.76441 0.37559 0.0
C940 C 0.72682 0.73079 0.3829 0.0
C941 C 0.71367 0.73769 0.39796 0.0
C942 C 0.7979 0.84001 0.37616 0.0
C943 C 0.71022 0.68866 0.37462 0.0
H944 H 0.71516 0.80737 0.32705 0.0
H945 H 0.84341 0.73724 0.33308 0.0
H946 H 0.666 0.77881 0.3624 0.0
H947 H 0.69316 0.8337 0.36319 0.0
H948 H 0.66215 0.81694 0.34646 0.0
H949 H 0.86216 0.70105 0.3562 0.0
H950 H 0.85412 0.74534 0.37012 0.0
H951 H 0.81876 0.69529 0.37064 0.0
H952 H 0.76691 0.83963 0.4047 0.0
H953 H 0.69212 0.71246 0.40347 0.0
H954 H 0.77729 0.85747 0.36735 0.0
H955 H 0.82801 0.82459 0.37047 0.0
H956 H 0.81023 0.86615 0.38435 0.0
H957 H 0.68342 0.69844 0.36635 0.0
H958 H 0.69549 0.66281 0.38245 0.0
H959 H 0.73865 0.67273 0.36818 0.0
C960 C 0.79962 0.24126 0.64368 0.0
C961 C 0.77091 0.21011 0.65115 0.0
C962 C 0.79274 0.25194 0.6285 0.0
C963 C 0.75598 0.23121 0.62063 0.0
C964 C 0.72533 0.2016 0.62823 0.0
C965 C 0.73335 0.19108 0.64346 0.0
C966 C 0.82636 0.28358 0.62071 0.0
C967 C 0.68536 0.17963 0.62015 0.0
C968 C 0.74076 0.28669 0.58262 0.0
C969 C 0.76979 0.25942 0.57376 0.0
C970 C 0.73231 0.27564 0.59777 0.0
C971 C 0.75372 0.23676 0.60409 0.0
C972 C 0.78011 0.20729 0.59491 0.0
C973 C 0.78776 0.21896 0.57983 0.0
C974 C 0.70324 0.30725 0.60725 0.0
C975 C 0.80349 0.16544 0.60127 0.0
H976 H 0.82851 0.25647 0.64954 0.0
H977 H 0.71063 0.16749 0.64925 0.0
H978 H 0.84566 0.26431 0.61197 0.0
H979 H 0.80791 0.31163 0.6149 0.0
H980 H 0.85138 0.29897 0.62872 0.0
H981 H 0.66054 0.16408 0.62818 0.0
H982 H 0.66717 0.20507 0.61306 0.0
H983 H 0.69809 0.15236 0.61251 0.0
H984 H 0.72602 0.31755 0.57791 0.0
H985 H 0.80932 0.19705 0.57297 0.0
H986 H 0.72579 0.32883 0.61444 0.0
H987 H 0.68046 0.28746 0.61489 0.0
H988 H 0.68193 0.33018 0.60014 0.0
H989 H 0.83176 0.17629 0.60888 0.0
H990 H 0.81807 0.1433 0.59226 0.0
H991 H 0.77913 0.14482 0.60808 0.0
C992 C 0.24833 0.32294 0.89985 0.0
C993 C 0.21774 0.29512 0.90793 0.0
C994 C 0.25795 0.31429 0.88467 0.0
C995 C 0.23653 0.27682 0.87738 0.0
C996 C 0.20706 0.24743 0.88555 0.0
C997 C 0.19784 0.25703 0.90078 0.0
C998 C 0.2896 0.34648 0.87626 0.0
C999 C 0.18407 0.20694 0.87809 0.0
C1000 C 0.22332 0.30113 0.836 0.0
C1001 C 0.26307 0.281 0.8301 0.0
C1002 C 0.21231 0.29695 0.85129 0.0
C1003 C 0.24173 0.27189 0.86087 0.0
C1004 C 0.27983 0.24837 0.85481 0.0
C1005 C 0.29018 0.25327 0.83942 0.0
C1006 C 0.17123 0.32243 0.85738 0.0
C1007 C 0.31147 0.22079 0.86473 0.0
H1008 H 0.26428 0.35217 0.9053 0.0
H1009 H 0.17454 0.23506 0.907 0.0
H1010 H 0.31725 0.32698 0.87058 0.0
H1011 H 0.27013 0.36475 0.86735 0.0
H1012 H 0.30558 0.37234 0.88384 0.0
H1013 H 0.16724 0.18405 0.88645 0.0
H1014 H 0.15767 0.2192 0.87004 0.0
H1015 H 0.20932 0.18678 0.8715 0.0
H1016 H 0.20157 0.32176 0.8288 0.0
H1017 H 0.3206 0.23707 0.83488 0.0
H1018 H 0.18305 0.35183 0.86433 0.0
H1019 H 0.15039 0.29996 0.86479 0.0
H1020 H 0.14896 0.33571 0.8482 0.0
H1021 H 0.33337 0.24437 0.87143 0.0
H1022 H 0.33412 0.19809 0.85798 0.0
H1023 H 0.29163 0.19961 0.87283 0.0
C1024 C 0.26773 0.81273 0.08972 0.0
C1025 C 0.29606 0.78728 0.08008 0.0
C1026 C 0.26241 0.80014 0.1049 0.0
C1027 C 0.28585 0.76125 0.11039 0.0
C1028 C 0.31237 0.73407 0.1005 0.0
C1029 C 0.3172 0.74748 0.08546 0.0
C1030 C 0.23371 0.82965 0.11522 0.0
C1031 C 0.33767 0.69217 0.10597 0.0
C1032 C 0.32815 0.75679 0.15051 0.0
C1033 C 0.29823 0.72464 0.15695 0.0
C1034 C 0.32312 0.77048 0.1355 0.0
C1035 C 0.28727 0.75155 0.12673 0.0
C1036 C 0.25598 0.72026 0.13322 0.0
C1037 C 0.26189 0.70703 0.14831 0.0
C1038 C 0.35725 0.8039 0.12887 0.0
C1039 C 0.21731 0.69966 0.12411 0.0
H1040 H 0.25106 0.84333 0.08556 0.0
H1041 H 0.33838 0.72711 0.07797 0.0
H1042 H 0.21029 0.80821 0.12211 0.0
H1043 H 0.25643 0.84845 0.12316 0.0
H1044 H 0.21308 0.85499 0.10882 0.0
H1045 H 0.35341 0.6726 0.09654 0.0
H1046 H 0.36525 0.70265 0.11391 0.0
H1047 H 0.31413 0.66913 0.11223 0.0
H1048 H 0.3561 0.77089 0.15713 0.0
H1049 H 0.23833 0.68252 0.15325 0.0
H1050 H 0.33914 0.83288 0.12345 0.0
H1051 H 0.37773 0.78662 0.11997 0.0
H1052 H 0.38114 0.81781 0.13752 0.0
H1053 H 0.19792 0.72687 0.11819 0.0
H1054 H 0.19317 0.67972 0.13126 0.0
H1055 H 0.23151 0.67658 0.11532 0.0
C1056 C 0.74273 0.69739 0.89697 0.0
C1057 C 0.78229 0.71917 0.90244 0.0
C1058 C 0.72988 0.70121 0.88184 0.0
C1059 C 0.75727 0.7275 0.87192 0.0
C1060 C 0.79574 0.7518 0.87749 0.0
C1061 C 0.80788 0.74734 0.89276 0.0
C1062 C 0.68846 0.67488 0.87631 0.0
C1063 C 0.82536 0.78047 0.86718 0.0
C1064 C 0.75375 0.68008 0.8324 0.0
C1065 C 0.72018 0.70758 0.82565 0.0
C1066 C 0.76809 0.68805 0.84723 0.0
C1067 C 0.74846 0.72448 0.85551 0.0
C1068 C 0.71637 0.7539 0.84857 0.0
C1069 C 0.70245 0.74502 0.83368 0.0
C1070 C 0.80241 0.65586 0.8543 0.0
C1071 C 0.69516 0.79332 0.85709 0.0
H1072 H 0.72219 0.67631 0.90446 0.0
H1073 H 0.83825 0.7646 0.89697 0.0
H1074 H 0.66533 0.69762 0.86982 0.0
H1075 H 0.69962 0.64712 0.86858 0.0
H1076 H 0.66867 0.65931 0.88573 0.0
H1077 H 0.84955 0.80252 0.87362 0.0
H1078 H 0.84554 0.75771 0.85967 0.0
H1079 H 0.80387 0.80244 0.85983 0.0
H1080 H 0.76818 0.65146 0.82624 0.0
H1081 H 0.67694 0.7668 0.82848 0.0
H1082 H 0.78542 0.63555 0.86331 0.0
H1083 H 0.83068 0.67544 0.85967 0.0
H1084 H 0.81735 0.63179 0.84592 0.0
H1085 H 0.6708 0.77988 0.86564 0.0
H1086 H 0.67628 0.81685 0.84946 0.0
H1087 H 0.72183 0.81308 0.86323 0.0
C1088 C 0.74621 0.20219 0.09035 0.0
C1089 C 0.72459 0.23247 0.08037 0.0
C1090 C 0.74974 0.21265 0.10578 0.0
C1091 C 0.73125 0.25426 0.1112 0.0
C1092 C 0.71277 0.28645 0.10099 0.0
C1093 C 0.70967 0.27515 0.08568 0.0
C1094 C 0.77012 0.17779 0.11639 0.0
C1095 C 0.69292 0.33133 0.10637 0.0
C1096 C 0.67454 0.25621 0.14945 0.0
C1097 C 0.70611 0.28139 0.15807 0.0
C1098 C 0.68316 0.24604 0.13429 0.0
C1099 C 0.72446 0.26127 0.12759 0.0
C1100 C 0.75709 0.28569 0.13625 0.0
C1101 C 0.74744 0.29567 0.15143 0.0
C1102 C 0.64739 0.22005 0.12534 0.0
C1103 C 0.8016 0.30207 0.12941 0.0
H1104 H 0.75824 0.16935 0.08627 0.0
H1105 H 0.69386 0.29918 0.07796 0.0
H1106 H 0.793 0.19455 0.12476 0.0
H1107 H 0.74219 0.16067 0.12277 0.0
H1108 H 0.78982 0.15117 0.11022 0.0
H1109 H 0.68526 0.35484 0.09684 0.0
H1110 H 0.66063 0.3247 0.11263 0.0
H1111 H 0.71685 0.34878 0.11424 0.0
H1112 H 0.64259 0.2449 0.15448 0.0
H1113 H 0.77221 0.31476 0.15806 0.0
H1114 H 0.66283 0.18929 0.12006 0.0
H1115 H 0.63416 0.24193 0.11608 0.0
H1116 H 0.61799 0.20901 0.13245 0.0
H1117 H 0.81934 0.27338 0.12365 0.0
H1118 H 0.82503 0.31701 0.13801 0.0
H1119 H 0.79451 0.32844 0.12071 0.0
C1120 C 0.17582 0.39508 0.28016 0.0
C1121 C 0.20837 0.36096 0.27746 0.0
C1122 C 0.18535 0.4408 0.27642 0.0
C1123 C 0.22849 0.45212 0.27007 0.0
C1124 C 0.26317 0.41851 0.26912 0.0
C1125 C 0.25249 0.37313 0.27269 0.0
C1126 C 0.14759 0.47576 0.27769 0.0
C1127 C 0.30996 0.42929 0.26273 0.0
C1128 C 0.23206 0.5333 0.23699 0.0
C1129 C 0.25133 0.57274 0.24341 0.0
C1130 C 0.22302 0.49459 0.24574 0.0
C1131 C 0.23402 0.49502 0.26133 0.0
C1132 C 0.25262 0.53498 0.26803 0.0
C1133 C 0.26088 0.57363 0.25897 0.0
C1134 C 0.2026 0.45282 0.23817 0.0
C1135 C 0.26513 0.53641 0.28458 0.0
H1136 H 0.14173 0.38556 0.28393 0.0
H1137 H 0.27792 0.34666 0.27089 0.0
H1138 H 0.16123 0.50925 0.28155 0.0
H1139 H 0.13193 0.48094 0.26638 0.0
H1140 H 0.12027 0.46445 0.28561 0.0
H1141 H 0.33523 0.40211 0.26542 0.0
H1142 H 0.30752 0.43226 0.25025 0.0
H1143 H 0.32293 0.4624 0.26716 0.0
H1144 H 0.22389 0.53261 0.22503 0.0
H1145 H 0.27577 0.6041 0.26398 0.0
H1146 H 0.17121 0.44171 0.24424 0.0
H1147 H 0.22738 0.42412 0.2386 0.0
H1148 H 0.19359 0.45914 0.22615 0.0
H1149 H 0.23682 0.52255 0.29159 0.0
H1150 H 0.27326 0.57168 0.28846 0.0
H1151 H 0.29555 0.51455 0.28656 0.0
C1152 C 0.36212 0.73528 0.70872 0.0
C1153 C 0.34971 0.7804 0.70544 0.0
C1154 C 0.40755 0.72421 0.71208 0.0
C1155 C 0.44085 0.75948 0.71248 0.0
C1156 C 0.42936 0.80401 0.70743 0.0
C1157 C 0.38358 0.81398 0.70387 0.0
C1158 C 0.41847 0.67606 0.71706 0.0
C1159 C 0.46399 0.84243 0.70758 0.0
C1160 C 0.51961 0.75002 0.74617 0.0
C1161 C 0.56024 0.73397 0.73962 0.0
C1162 C 0.48113 0.7595 0.73733 0.0
C1163 C 0.48304 0.7524 0.7215 0.0
C1164 C 0.52398 0.73665 0.71472 0.0
C1165 C 0.56227 0.72769 0.72387 0.0
C1166 C 0.43815 0.77657 0.74503 0.0
C1167 C 0.52701 0.72836 0.6979 0.0
H1168 H 0.33567 0.7093 0.70976 0.0
H1169 H 0.37372 0.84889 0.70133 0.0
H1170 H 0.45227 0.66505 0.71266 0.0
H1171 H 0.42006 0.67491 0.7296 0.0
H1172 H 0.39194 0.65126 0.71324 0.0
H1173 H 0.45291 0.87148 0.70038 0.0
H1174 H 0.46807 0.85516 0.71934 0.0
H1175 H 0.49799 0.83041 0.70365 0.0
H1176 H 0.51781 0.75547 0.75828 0.0
H1177 H 0.59356 0.71529 0.71872 0.0
H1178 H 0.40998 0.75143 0.74346 0.0
H1179 H 0.427 0.80929 0.73987 0.0
H1180 H 0.44309 0.78216 0.75735 0.0
H1181 H 0.50518 0.69864 0.69481 0.0
H1182 H 0.56265 0.72125 0.69418 0.0
H1183 H 0.51392 0.75834 0.69157 0.0
C1184 C 0.70154 0.45433 0.24701 0.0
C1185 C 0.72682 0.41411 0.24872 0.0
C1186 C 0.71477 0.49457 0.25442 0.0
C1187 C 0.7551 0.49467 0.26333 0.0
C1188 C 0.77835 0.45309 0.26617 0.0
C1189 C 0.76357 0.41295 0.2589 0.0
C1190 C 0.68817 0.5379 0.25146 0.0
C1191 C 0.82153 0.45181 0.27554 0.0
C1192 C 0.81731 0.60612 0.25733 0.0
C1193 C 0.80497 0.63064 0.27027 0.0
C1194 C 0.80439 0.56035 0.25558 0.0
C1195 C 0.77727 0.53914 0.26688 0.0
C1196 C 0.767 0.56301 0.2804 0.0
C1197 C 0.78144 0.60869 0.28201 0.0
C1198 C 0.81711 0.53579 0.24113 0.0
C1199 C 0.73789 0.54173 0.29262 0.0
H1200 H 0.67285 0.45489 0.23921 0.0
H1201 H 0.78317 0.3817 0.26014 0.0
H1202 H 0.6836 0.55772 0.26206 0.0
H1203 H 0.70753 0.55973 0.24341 0.0
H1204 H 0.65389 0.53066 0.24652 0.0
H1205 H 0.82969 0.4165 0.2793 0.0
H1206 H 0.85062 0.46464 0.26865 0.0
H1207 H 0.81857 0.47424 0.28562 0.0
H1208 H 0.83579 0.62335 0.24833 0.0
H1209 H 0.77171 0.62808 0.29197 0.0
H1210 H 0.78605 0.53098 0.23405 0.0
H1211 H 0.83112 0.50139 0.24366 0.0
H1212 H 0.84287 0.55512 0.23442 0.0
H1213 H 0.70143 0.5424 0.28906 0.0
H1214 H 0.74099 0.56059 0.3035 0.0
H1215 H 0.74736 0.50544 0.29448 0.0
C1216 C 0.59167 0.17727 0.70616 0.0
C1217 C 0.62668 0.20966 0.70779 0.0
C1218 C 0.54636 0.18858 0.70995 0.0
C1219 C 0.53647 0.23329 0.71524 0.0
C1220 C 0.57092 0.26741 0.71499 0.0
C1221 C 0.61584 0.25499 0.71142 0.0
C1222 C 0.51049 0.1513 0.71001 0.0
C1223 C 0.56169 0.31568 0.72026 0.0
C1224 C 0.41622 0.26803 0.72709 0.0
C1225 C 0.41833 0.26073 0.74277 0.0
C1226 C 0.45417 0.25869 0.7178 0.0
C1227 C 0.49476 0.24143 0.72439 0.0
C1228 C 0.49684 0.23366 0.74017 0.0
C1229 C 0.45879 0.24362 0.74914 0.0
C1230 C 0.4511 0.2678 0.70104 0.0
C1231 C 0.53949 0.21506 0.74767 0.0
H1232 H 0.60024 0.14223 0.70329 0.0
H1233 H 0.64307 0.28013 0.71244 0.0
H1234 H 0.50623 0.13833 0.72172 0.0
H1235 H 0.47683 0.16456 0.70623 0.0
H1236 H 0.52045 0.12214 0.70265 0.0
H1237 H 0.58914 0.33969 0.71664 0.0
H1238 H 0.52838 0.32811 0.71589 0.0
H1239 H 0.55995 0.3163 0.7328 0.0
H1240 H 0.38505 0.28119 0.72208 0.0
H1241 H 0.46073 0.2374 0.7612 0.0
H1242 H 0.46152 0.23703 0.69455 0.0
H1243 H 0.47509 0.29576 0.69794 0.0
H1244 H 0.41598 0.27775 0.69751 0.0
H1245 H 0.54956 0.18222 0.74233 0.0
H1246 H 0.53467 0.20918 0.75998 0.0
H1247 H 0.56835 0.23943 0.74616 0.0
C1248 C 0.25527 0.1363 0.96058 0.0
C1249 C 0.20981 0.15091 0.96192 0.0
C1250 C 0.26675 0.09047 0.96291 0.0
C1251 C 0.23194 0.05919 0.96708 0.0
C1252 C 0.18536 0.07277 0.9666 0.0
C1253 C 0.17473 0.11883 0.96391 0.0
C1254 C 0.31668 0.07709 0.96287 0.0
C1255 C 0.14728 0.04028 0.97088 0.0
C1256 C 0.26213 0.93677 0.97752 0.0
C1257 C 0.26812 0.94098 -0.00677 0.0
C1258 C 0.25078 0.97501 0.96867 0.0
C1259 C 0.24485 0.01798 0.97577 0.0
C1260 C 0.25172 0.02249 0.99155 0.0
C1261 C 0.26353 0.9841 2e-05 0.0
C1262 C 0.24424 0.9692 0.95185 0.0
C1263 C 0.24606 0.06785 -0.00039 0.0
H1264 H 0.28224 0.16131 0.95873 0.0
H1265 H 0.13954 0.13036 0.96483 0.0
H1266 H 0.3297 0.07689 0.97466 0.0
H1267 H 0.32129 0.04222 0.95814 0.0
H1268 H 0.3378 0.10158 0.95623 0.0
H1269 H 0.11335 0.05285 0.96702 0.0
H1270 H 0.15326 0.00579 0.96604 0.0
H1271 H 0.14626 0.03679 0.98338 0.0
H1272 H 0.26555 0.90357 0.97217 0.0
H1273 H 0.26836 0.98792 0.01211 0.0
H1274 H 0.2619 -0.00305 0.94556 0.0
H1275 H 0.20723 0.97136 0.94911 0.0
H1276 H 0.25725 0.93569 0.94777 0.0
H1277 H 0.27074 0.09324 -0.00497 0.0
H1278 H 0.25171 0.0651 0.012 0.0
H1279 H 0.21106 0.08139 -0.00231 0.0
C1280 C 0.13451 0.75182 0.02077 0.0
C1281 C 0.14724 0.79687 0.02423 0.0
C1282 C 0.08915 0.74094 0.01717 0.0
C1283 C 0.05613 0.77626 0.01677 0.0
C1284 C 0.06784 0.82074 0.02192 0.0
C1285 C 0.11356 0.83055 0.02569 0.0
C1286 C 0.078 0.69287 0.01203 0.0
C1287 C 0.03349 0.85922 0.02175 0.0
C1288 C 0.97734 0.7671 0.9831 0.0
C1289 C 0.93659 0.751 0.98962 0.0
C1290 C 0.01587 0.77645 -0.00806 0.0
C1291 C 0.01392 0.76921 0.00776 0.0
C1292 C 0.97292 0.75334 0.01451 0.0
C1293 C 0.93455 0.74449 0.00534 0.0
C1294 C 0.05896 0.79356 0.98427 0.0
C1295 C 0.96987 0.74497 0.03132 0.0
H1296 H 0.16066 0.72562 0.01992 0.0
H1297 H 0.12352 0.86536 0.02844 0.0
H1298 H 0.04414 0.68176 0.0164 0.0
H1299 H 0.07637 0.69198 -0.00051 0.0
H1300 H 0.10439 0.66799 0.01577 0.0
H1301 H 0.04468 0.88828 0.02899 0.0
H1302 H 0.02961 0.87191 0.01 0.0
H1303 H -0.00064 0.84725 0.02563 0.0
H1304 H 0.97921 0.77271 0.971 0.0
H1305 H 0.90316 0.7321 0.01048 0.0
H1306 H 0.08701 0.76843 0.98582 0.0
H1307 H 0.07027 0.82627 0.98947 0.0
H1308 H 0.05408 0.79915 0.97195 0.0
H1309 H 0.99252 0.71607 0.03444 0.0
H1310 H 0.9344 0.73669 0.03499 0.0
H1311 H 0.98201 0.77545 0.03766 0.0
C1312 C 0.73103 0.07736 0.97744 0.0
C1313 C 0.7346 0.07392 -0.00676 0.0
C1314 C 0.73973 0.03945 0.96811 0.0
C1315 C 0.75261 -0.00249 0.97479 0.0
C1316 C 0.75513 0.99356 0.99072 0.0
C1317 C 0.74588 0.0317 -0.00027 0.0
C1318 C 0.73594 0.04445 0.95117 0.0
C1319 C 0.76845 0.94918 -0.00169 0.0
C1320 C 0.74357 0.87869 0.95948 0.0
C1321 C 0.78999 0.86806 0.95773 0.0
C1322 C 0.72993 0.92314 0.96313 0.0
C1323 C 0.76385 0.95708 0.96542 0.0
C1324 C 0.81028 0.94762 0.96192 0.0
C1325 C 0.82287 0.90288 0.95799 0.0
C1326 C 0.67993 0.93199 0.96636 0.0
C1327 C 0.84739 0.98304 0.96417 0.0
H1328 H 0.72219 0.10983 0.97231 0.0
H1329 H 0.74856 0.02854 0.01191 0.0
H1330 H 0.77033 0.04085 0.94596 0.0
H1331 H 0.71395 0.01694 0.94641 0.0
H1332 H 0.72156 0.07812 0.94785 0.0
H1333 H 0.76924 0.95213 0.01083 0.0
H1334 H 0.74381 0.92177 -0.00479 0.0
H1335 H 0.80286 0.9383 -0.00562 0.0
H1336 H 0.71819 0.85152 0.95904 0.0
H1337 H 0.85877 0.89435 0.95659 0.0
H1338 H 0.67002 0.96724 0.96311 0.0
H1339 H 0.67356 0.92805 0.97866 0.0
H1340 H 0.65755 0.90729 0.96026 0.0
H1341 H 0.83613 0.01704 0.96009 0.0
H1342 H 0.87954 0.97346 0.95824 0.0
H1343 H 0.85496 0.98625 0.97643 0.0
C1344 C 0.08591 0.24598 0.00928 0.0
C1345 C 0.08319 0.28004 -0.00183 0.0
C1346 C 0.04657 0.23194 0.01715 0.0
C1347 C 0.00414 0.2531 0.01392 0.0
C1348 C 0.00254 0.29103 0.00398 0.0
C1349 C 0.04207 0.30367 -0.00394 0.0
C1350 C 0.04966 0.19153 0.0277 0.0
C1351 C 0.95816 0.3154 0.00056 0.0
C1352 C 0.8943 0.1867 0.01007 0.0
C1353 C 0.86969 0.20217 0.0226 0.0
C1354 C 0.93981 0.20002 0.00786 0.0
C1355 C 0.96056 0.23061 0.01827 0.0
C1356 C 0.93671 0.24391 0.03151 0.0
C1357 C 0.89128 0.22917 0.03358 0.0
C1358 C 0.96436 0.18415 -0.00624 0.0
C1359 C 0.95759 0.27657 0.04281 0.0
H1360 H 0.11783 0.22774 0.01092 0.0
H1361 H 0.04026 0.33053 0.98763 0.0
H1362 H 0.02755 0.19644 0.03777 0.0
H1363 H 0.03746 0.16038 0.02172 0.0
H1364 H 0.08543 0.18551 0.03149 0.0
H1365 H 0.96402 0.34833 -0.00541 0.0
H1366 H 0.93641 0.29331 -0.00673 0.0
H1367 H 0.93882 0.32228 0.01112 0.0
H1368 H 0.87721 0.16569 0.00165 0.0
H1369 H 0.87173 0.24132 0.04321 0.0
H1370 H -0.00075 0.17182 -0.00343 0.0
H1371 H 0.96814 0.21327 0.98581 0.0
H1372 H 0.94553 0.15624 0.98787 0.0
H1373 H 0.99437 0.26895 0.04468 0.0
H1374 H 0.9394 0.27536 0.05385 0.0
H1375 H 0.95528 0.31196 0.03835 0.0
C1376 C 0.76472 0.06385 0.75466 0.0
C1377 C 0.74456 0.06738 0.74032 0.0
C1378 C 0.75921 0.02386 0.76333 0.0
C1379 C 0.73304 0.98706 0.75742 0.0
C1380 C 0.71057 0.99176 0.74333 0.0
C1381 C 0.71661 0.03177 0.735 0.0
C1382 C 0.7832 0.02029 0.77839 0.0
C1383 C 0.68187 0.9536 0.73663 0.0
C1384 C 0.75378 0.86183 0.76222 0.0
C1385 C 0.71321 0.84843 0.7695 0.0
C1386 C 0.76378 0.90807 0.75984 0.0
C1387 C 0.73229 0.9416 0.76481 0.0
C1388 C 0.69421 0.92858 0.77375 0.0
C1389 C 0.685 0.88191 0.77599 0.0
C1390 C 0.80532 0.92055 0.7505 0.0
C1391 C 0.66064 0.96353 0.7796 0.0
H1392 H 0.7861 0.09147 0.75886 0.0
H1393 H 0.70001 0.03473 0.72408 0.0
H1394 H 0.76196 0.0014 0.78672 0.0
H1395 H 0.81569 0.00118 0.77692 0.0
H1396 H 0.79163 0.0546 0.78307 0.0
H1397 H 0.66478 0.96386 0.72594 0.0
H1398 H 0.70386 0.92352 0.73424 0.0
H1399 H 0.65511 0.94262 0.74477 0.0
H1400 H 0.77656 0.8361 0.75761 0.0
H1401 H 0.65405 0.8718 0.78191 0.0
H1402 H 0.82304 0.95083 0.75533 0.0
H1403 H 0.79426 0.92949 0.73887 0.0
H1404 H 0.83013 0.89187 0.74976 0.0
H1405 H 0.67866 0.99488 0.7835 0.0
H1406 H 0.63974 0.9497 0.78906 0.0
H1407 H 0.63707 0.97353 0.77033 0.0
C1408 C 0.88444 0.31388 0.20976 0.0
C1409 C 0.85188 0.2804 0.21345 0.0
C1410 C 0.93125 0.30564 0.21211 0.0
C1411 C 0.94509 0.26322 0.21831 0.0
C1412 C 0.91284 0.22738 0.21997 0.0
C1413 C 0.86648 0.2365 0.21756 0.0
C1414 C 0.96508 0.34402 0.20966 0.0
C1415 C 0.9263 0.18126 0.22621 0.0
C1416 C 0.06678 0.23338 0.2298 0.0
C1417 C 0.06562 0.24466 0.24523 0.0
C1418 C 0.02852 0.24122 0.22051 0.0
C1419 C 0.98846 0.26039 0.22691 0.0
C1420 C 0.9879 0.27342 0.24232 0.0
C1421 C 0.02639 0.26544 0.25125 0.0
C1422 C 0.03057 0.22732 0.20409 0.0
C1423 C 0.94595 0.2943 0.24964 0.0
H1424 H 0.87327 0.34758 0.20624 0.0
H1425 H 0.84137 0.20999 0.21988 0.0
H1426 H 0.97181 0.36143 0.22061 0.0
H1427 H -0.0018 0.3307 0.20537 0.0
H1428 H 0.95167 0.3698 0.20158 0.0
H1429 H 0.89924 0.15507 0.22429 0.0
H1430 H 0.95865 0.16921 0.221 0.0
H1431 H 0.93212 0.18429 0.23858 0.0
H1432 H 0.09713 0.21765 0.22504 0.0
H1433 H 0.02536 0.27511 0.26308 0.0
H1434 H 0.0107 0.25109 0.19685 0.0
H1435 H 0.01551 0.19265 0.20278 0.0
H1436 H 0.06647 0.2261 0.19993 0.0
H1437 H 0.93517 0.32526 0.24335 0.0
H1438 H 0.952 0.30411 0.26162 0.0
H1439 H 0.91709 0.26952 0.2493 0.0
C1440 C 0.23431 0.12308 0.7685 0.0
C1441 C 0.2777 0.13704 0.77349 0.0
C1442 C 0.22536 0.07722 0.76511 0.0
C1443 C 0.26096 0.04479 0.76659 0.0
C1444 C 0.30323 0.05788 0.77322 0.0
C1445 C 0.31113 0.10417 0.77666 0.0
C1446 C 0.17951 0.06463 0.75833 0.0
C1447 C 0.34173 0.02407 0.77518 0.0
C1448 C 0.22916 0.92291 0.75585 0.0
C1449 C 0.23976 0.92297 0.74036 0.0
C1450 C 0.23771 0.96168 0.76486 0.0
C1451 C 0.25721 0.00112 0.75815 0.0
C1452 C 0.26958 0.00063 0.74268 0.0
C1453 C 0.26065 0.96167 0.734 0.0
C1454 C 0.22425 0.96101 0.78133 0.0
C1455 C 0.29074 0.04194 0.73508 0.0
H1456 H 0.20811 0.14853 0.76637 0.0
H1457 H 0.3446 0.115 0.78065 0.0
H1458 H 0.1834 0.06001 0.74593 0.0
H1459 H 0.16672 0.03189 0.76306 0.0
H1460 H 0.1534 0.09156 0.76033 0.0
H1461 H 0.36782 0.03669 0.78334 0.0
H1462 H 0.32852 0.9905 0.77911 0.0
H1463 H 0.35881 0.01852 0.76411 0.0
H1464 H 0.21324 0.89303 0.76088 0.0
H1465 H 0.26967 0.96185 0.72211 0.0
H1466 H 0.19272 0.98157 0.78293 0.0
H1467 H 0.25146 0.97662 0.78844 0.0
H1468 H 0.21741 0.92571 0.78541 0.0
H1469 H 0.2659 0.07063 0.73509 0.0
H1470 H 0.30086 0.03489 0.72319 0.0
H1471 H 0.32153 0.05345 0.74139 0.0
C1472 C 0.92609 0.76838 0.22375 0.0
C1473 C 0.93018 0.76586 0.23955 0.0
C1474 C 0.96417 0.76069 0.21437 0.0
C1475 C 0.00679 0.74963 0.22102 0.0
C1476 C 0.01123 0.74812 0.23695 0.0
C1477 C 0.97303 0.75655 0.24598 0.0
C1478 C 0.95842 0.76335 0.19743 0.0
C1479 C 0.05625 0.73689 0.24458 0.0
C1480 C 0.10522 0.68142 0.20662 0.0
C1481 C 0.13913 0.71522 0.20723 0.0
C1482 C 0.05918 0.69303 0.20895 0.0
C1483 C 0.04765 0.73934 0.21174 0.0
C1484 C 0.08103 0.774 0.20984 0.0
C1485 C 0.12679 0.7614 0.20788 0.0
C1486 C 0.02429 0.6552 0.21061 0.0
C1487 C 0.0698 0.82392 0.21205 0.0
H1488 H 0.89307 0.77561 0.21868 0.0
H1489 H 0.97676 0.75493 0.25816 0.0
H1490 H 0.98841 0.78014 0.19205 0.0
H1491 H 0.95574 0.72823 0.19274 0.0
H1492 H 0.92693 0.78232 0.19425 0.0
H1493 H 0.05336 0.73609 0.2571 0.0
H1494 H 0.06874 0.70302 0.2407 0.0
H1495 H 0.08254 0.76273 0.2415 0.0
H1496 H 0.11504 0.64571 0.20592 0.0
H1497 H 0.15326 0.78752 0.20795 0.0
H1498 H 0.99091 0.66536 0.20569 0.0
H1499 H 0.0188 0.64817 0.22281 0.0
H1500 H 0.03593 0.62308 0.20509 0.0
H1501 H 0.03441 0.83175 0.2083 0.0
H1502 H 0.09415 0.84606 0.20573 0.0
H1503 H 0.07261 0.83259 0.22424 0.0
C1504 C 0.69225 0.59292 0.45703 0.0
C1505 C 0.7238 0.62893 0.45725 0.0
C1506 C 0.70714 0.5479 0.45916 0.0
C1507 C 0.75451 0.53945 0.46125 0.0
C1508 C 0.78671 0.57497 0.45898 0.0
C1509 C 0.77087 0.61976 0.45731 0.0
C1510 C 0.6718 0.51067 0.46129 0.0
C1511 C 0.83758 0.56667 0.46022 0.0
C1512 C 0.7754 0.46299 0.49463 0.0
C1513 C 0.78067 0.42014 0.48774 0.0
C1514 C 0.76868 0.50226 0.48601 0.0
C1515 C 0.76837 0.49886 0.47003 0.0
C1516 C 0.77746 0.45648 0.46293 0.0
C1517 C 0.78298 0.4173 0.4719 0.0
C1518 C 0.75934 0.54695 0.49411 0.0
C1519 C 0.77923 0.45179 0.44594 0.0
H1520 H 0.65585 0.60031 0.45676 0.0
H1521 H 0.79521 0.64788 0.45703 0.0
H1522 H 0.68235 0.47895 0.45538 0.0
H1523 H 0.66872 0.50263 0.47352 0.0
H1524 H 0.63755 0.52109 0.45705 0.0
H1525 H 0.85754 0.59393 0.45443 0.0
H1526 H 0.84767 0.56652 0.47232 0.0
H1527 H 0.84686 0.53298 0.45531 0.0
H1528 H 0.77422 0.46573 0.50685 0.0
H1529 H 0.78773 0.38437 0.46647 0.0
H1530 H 0.725 0.56001 0.49092 0.0
H1531 H 0.78498 0.57309 0.49075 0.0
H1532 H 0.7605 0.54338 0.50661 0.0
H1533 H 0.74427 0.44463 0.44161 0.0
H1534 H 0.80157 0.42285 0.44252 0.0
H1535 H 0.79191 0.48354 0.44047 0.0
C1536 C 0.60956 0.27947 0.53006 0.0
C1537 C 0.62882 0.3049 0.51825 0.0
C1538 C 0.56442 0.2631 0.529 0.0
C1539 C 0.53838 0.27327 0.51593 0.0
C1540 C 0.55642 0.3031 0.50478 0.0
C1541 C 0.60185 0.31795 0.50597 0.0
C1542 C 0.54651 0.23134 0.54108 0.0
C1543 C 0.5293 0.31586 0.49087 0.0
C1544 C 0.45986 0.19095 0.49605 0.0
C1545 C 0.41729 0.21141 0.49856 0.0
C1546 C 0.49933 0.20799 0.50307 0.0
C1547 C 0.49605 0.24728 0.51242 0.0
C1548 C 0.45255 0.26556 0.51602 0.0
C1549 C 0.4134 0.247 0.50912 0.0
C1550 C 0.545 0.18654 0.49933 0.0
C1551 C 0.44767 0.30745 0.52588 0.0
H1552 H 0.63096 0.26905 0.53947 0.0
H1553 H 0.61716 0.3376 0.49686 0.0
H1554 H 0.50962 0.23739 0.5433 0.0
H1555 H 0.55022 0.19544 0.53717 0.0
H1556 H 0.56584 0.23527 0.55183 0.0
H1557 H 0.54557 0.34438 0.48451 0.0
H1558 H 0.52677 0.28578 0.48323 0.0
H1559 H 0.49395 0.32604 0.49399 0.0
H1560 H 0.46261 0.16312 0.48797 0.0
H1561 H 0.38035 0.26294 0.51098 0.0
H1562 H 0.56607 0.18261 0.50969 0.0
H1563 H 0.5641 0.20913 0.49145 0.0
H1564 H 0.54096 0.15246 0.4939 0.0
H1565 H 0.47179 0.3064 0.53556 0.0
H1566 H 0.41219 0.31107 0.53027 0.0
H1567 H 0.45598 0.33833 0.51911 0.0
C1568 C 0.23694 0.55119 0.47579 0.0
C1569 C 0.25784 0.55764 0.4899 0.0
C1570 C 0.24382 0.51043 0.46767 0.0
C1571 C 0.27203 0.47597 0.47394 0.0
C1572 C 0.2967 0.48458 0.48743 0.0
C1573 C 0.28924 0.52535 0.49523 0.0
C1574 C 0.21807 0.50293 0.45309 0.0
C1575 C 0.32772 0.44906 0.49442 0.0
C1576 C 0.24399 0.35105 0.4737 0.0
C1577 C 0.28167 0.3333 0.46583 0.0
C1578 C 0.23769 0.39821 0.47508 0.0
C1579 C 0.26978 0.42832 0.46835 0.0
C1580 C 0.30494 0.41078 0.45901 0.0
C1581 C 0.31068 0.36325 0.4579 0.0
C1582 C 0.19929 0.41555 0.48501 0.0
C1583 C 0.3388 0.44196 0.45123 0.0
H1584 H 0.21307 0.57651 0.47158 0.0
H1585 H 0.30641 0.531 0.50596 0.0
H1586 H 0.23849 0.48237 0.44497 0.0
H1587 H 0.18593 0.48391 0.45547 0.0
H1588 H 0.20878 0.53596 0.4477 0.0
H1589 H 0.34762 0.46293 0.50411 0.0
H1590 H 0.30681 0.41981 0.49852 0.0
H1591 H 0.35213 0.43564 0.4859 0.0
H1592 H 0.22055 0.32814 0.47948 0.0
H1593 H 0.33931 0.3498 0.45149 0.0
H1594 H 0.18076 0.44385 0.47938 0.0
H1595 H 0.21382 0.42919 0.49572 0.0
H1596 H 0.17424 0.38819 0.48786 0.0
H1597 H 0.32198 0.47372 0.44723 0.0
H1598 H 0.35538 0.4247 0.44147 0.0
H1599 H 0.36602 0.45196 0.45936 0.0
C1600 C 0.52803 0.72092 0.48477 0.0
C1601 C 0.56911 0.73627 0.49123 0.0
C1602 C 0.48927 0.71298 0.49369 0.0
C1603 C 0.49138 0.7212 0.50947 0.0
C1604 C 0.53289 0.73609 0.51614 0.0
C1605 C 0.57147 0.74322 0.50693 0.0
C1606 C 0.44575 0.6965 0.48614 0.0
C1607 C 0.53615 0.74576 0.53288 0.0
C1608 C 0.37122 0.7428 0.52249 0.0
C1609 C 0.35754 0.69843 0.52643 0.0
C1610 C 0.41683 0.75223 0.51871 0.0
C1611 C 0.44898 0.71607 0.51857 0.0
C1612 C 0.43637 0.67248 0.52422 0.0
C1613 C 0.39055 0.66421 0.52822 0.0
C1614 C 0.42913 0.79952 0.51316 0.0
C1615 C 0.46969 0.63309 0.52429 0.0
H1616 H 0.52613 0.71498 0.47268 0.0
H1617 H 0.60315 0.75528 0.51196 0.0
H1618 H 0.43326 0.66477 0.49166 0.0
H1619 H 0.41857 0.72272 0.48737 0.0
H1620 H 0.45064 0.68944 0.47389 0.0
H1621 H 0.57202 0.7521 0.53655 0.0
H1622 H 0.5154 0.77638 0.53566 0.0
H1623 H 0.52196 0.71677 0.53949 0.0
H1624 H 0.34557 0.76935 0.52129 0.0
H1625 H 0.37984 0.62986 0.53124 0.0
H1626 H 0.43034 0.79936 0.50061 0.0
H1627 H 0.46343 0.81002 0.51732 0.0
H1628 H 0.40355 0.8254 0.5168 0.0
H1629 H 0.47294 0.61931 0.51264 0.0
H1630 H 0.45791 0.60495 0.53179 0.0
H1631 H 0.50421 0.64445 0.52798 0.0
C1632 C 0.07503 0.05426 0.30565 0.0
C1633 C 0.07037 0.09288 0.29641 0.0
C1634 C 0.04133 0.0198 0.30578 0.0
C1635 C 0.00303 0.02326 0.296 0.0
C1636 C -0.002 0.0625 0.28676 0.0
C1637 C 0.03136 0.09719 0.28728 0.0
C1638 C 0.04721 0.97925 0.31615 0.0
C1639 C 0.95855 0.06689 0.27581 0.0
C1640 C 0.94736 0.9117 0.28352 0.0
C1641 C 0.90627 0.91199 0.29173 0.0
C1642 C 0.97883 0.94792 0.2847 0.0
C1643 C 0.96974 0.98463 0.29473 0.0
C1644 C 0.92872 0.98459 0.30331 0.0
C1645 C 0.89703 0.94863 0.3015 0.0
C1646 C 0.02141 0.94729 0.27498 0.0
C1647 C 0.91846 0.02235 0.31446 0.0
H1648 H 0.10511 0.051 0.31276 0.0
H1649 H 0.02801 0.12678 0.27997 0.0
H1650 H 0.01537 0.97333 0.32274 0.0
H1651 H 0.05362 0.94798 0.30936 0.0
H1652 H 0.07618 0.98401 0.32415 0.0
H1653 H 0.959 0.10006 0.26969 0.0
H1654 H 0.96005 0.03875 0.26738 0.0
H1655 H 0.92543 0.06362 0.28187 0.0
H1656 H 0.95431 0.88364 0.27582 0.0
H1657 H 0.86537 0.94874 0.30791 0.0
H1658 H 0.05242 0.94719 0.28222 0.0
H1659 H 0.02289 0.97867 0.26793 0.0
H1660 H 0.02263 0.91697 0.2674 0.0
H1661 H 0.94703 0.02566 0.32268 0.0
H1662 H 0.88615 0.01614 0.32079 0.0
H1663 H 0.91561 0.05551 0.30846 0.0
C1664 C 0.93442 0.08194 0.67952 0.0
C1665 C 0.89649 0.07562 0.68901 0.0
C1666 C 0.96963 0.04941 0.67893 0.0
C1667 C 0.96751 0.0106 0.68847 0.0
C1668 C 0.92904 0.00395 0.698 0.0
C1669 C 0.89356 0.03624 0.69796 0.0
C1670 C 0.00935 0.05687 0.66826 0.0
C1671 C 0.92612 0.96365 0.70864 0.0
C1672 C 0.03973 0.90519 0.68108 0.0
C1673 C 0.07697 0.91269 0.69078 0.0
C1674 C 0.00462 0.93762 0.67979 0.0
C1675 C 0.00611 0.97761 0.68883 0.0
C1676 C 0.04387 0.98542 0.69858 0.0
C1677 C 0.0793 0.95314 0.69925 0.0
C1678 C 0.9657 0.92884 0.66891 0.0
C1679 C 0.04605 0.02704 0.70871 0.0
H1680 H 0.93651 0.1124 0.67256 0.0
H1681 H 0.86445 0.03173 0.70544 0.0
H1682 H 0.04131 0.06237 0.67481 0.0
H1683 H 0.01454 0.02603 0.66112 0.0
H1684 H 0.00402 0.08685 0.66076 0.0
H1685 H 0.8939 0.96356 0.71534 0.0
H1686 H 0.92817 0.93115 0.7022 0.0
H1687 H 0.95559 0.96438 0.71657 0.0
H1688 H 0.03815 0.87392 0.67449 0.0
H1689 H 0.1079 0.95859 0.70688 0.0
H1690 H 0.96111 0.95873 0.66134 0.0
H1691 H 0.93325 0.92422 0.67526 0.0
H1692 H 0.97152 0.8979 0.66186 0.0
H1693 H 0.04448 0.0587 0.70184 0.0
H1694 H 0.07777 0.02799 0.71565 0.0
H1695 H 0.01601 0.02732 0.71641 0.0
C1696 C 0.10082 0.4721 0.95433 0.0
C1697 C 0.0993 0.43215 0.94557 0.0
C1698 C 0.06615 0.50513 0.95318 0.0
C1699 C 0.03 0.49854 0.94269 0.0
C1700 C 0.02945 0.4591 0.93339 0.0
C1701 C 0.06374 0.42601 0.93511 0.0
C1702 C 0.06729 0.54616 0.96358 0.0
C1703 C 0.99221 0.45149 0.92179 0.0
C1704 C 0.91575 0.55578 0.95024 0.0
C1705 C 0.91913 0.59535 0.94136 0.0
C1706 C 0.95174 0.52417 0.95084 0.0
C1707 C 0.99152 0.53168 0.942 0.0
C1708 C 0.99456 0.5709 0.93266 0.0
C1709 C 0.95857 0.6027 0.93264 0.0
C1710 C 0.94765 0.48336 0.96123 0.0
C1711 C 0.03588 0.57934 0.92276 0.0
H1712 H 0.12813 0.47665 0.96251 0.0
H1713 H 0.06281 0.39525 0.92824 0.0
H1714 H 0.06635 0.57823 0.9569 0.0
H1715 H 0.03649 0.54594 0.97095 0.0
H1716 H 0.09829 0.5467 0.97087 0.0
H1717 H -0.00109 0.42108 0.91457 0.0
H1718 H 0.9588 0.44659 0.92755 0.0
H1719 H 0.98896 0.48199 0.91441 0.0
H1720 H 0.88556 0.55035 0.95717 0.0
H1721 H 0.96116 0.63325 0.92574 0.0
H1722 H 0.97632 0.4835 0.96947 0.0
H1723 H 0.95019 0.4512 0.95461 0.0
H1724 H 0.91478 0.48301 0.96757 0.0
H1725 H 0.06686 0.58379 0.92988 0.0
H1726 H 0.03185 0.6102 0.91557 0.0
H1727 H 0.04193 0.5493 0.91534 0.0
C1728 C 0.4146 0.96087 0.05295 0.0
C1729 C 0.42158 0.92449 0.04286 0.0
C1730 C 0.4469 -0.00358 0.05423 0.0
C1731 C 0.48621 -0.00373 0.04483 0.0
C1732 C 0.49322 0.95967 0.03458 0.0
C1733 C 0.46117 0.92387 0.03389 0.0
C1734 C 0.43898 0.03411 0.06562 0.0
C1735 C 0.53403 0.95882 0.02407 0.0
C1736 C 0.54706 0.10823 0.03609 0.0
C1737 C 0.5876 0.10357 0.04443 0.0
C1738 C 0.51334 0.07387 0.03631 0.0
C1739 C 0.51978 0.03466 0.04546 0.0
C1740 C 0.55967 0.03095 0.05449 0.0
C1741 C 0.59351 0.0651 0.05366 0.0
C1742 C 0.47193 0.07853 0.02619 0.0
C1743 C 0.56713 0.99037 0.06474 0.0
H1744 H 0.38409 0.96124 0.05995 0.0
H1745 H 0.46635 0.89603 0.02596 0.0
H1746 H 0.46916 0.03739 0.07318 0.0
H1747 H 0.43489 0.0673 0.05972 0.0
H1748 H 0.40804 0.02786 0.07265 0.0
H1749 H 0.5339 0.92837 0.01653 0.0
H1750 H 0.53428 0.99008 0.01695 0.0
H1751 H 0.56627 0.95882 0.0307 0.0
H1752 H 0.5427 0.13772 0.02881 0.0
H1753 H 0.62478 0.06162 0.06018 0.0
H1754 H 0.44 0.07533 0.0329 0.0
H1755 H 0.47175 0.05049 0.01771 0.0
H1756 H 0.47138 0.11177 0.0201 0.0
H1757 H 0.53648 0.9846 0.07193 0.0
H1758 H 0.59749 -0.00502 0.07217 0.0
H1759 H 0.57219 0.95907 0.05784 0.0
C1760 C 0.57639 0.54027 0.78194 0.0
C1761 C 0.57611 0.58016 0.79077 0.0
C1762 C 0.54096 0.50795 0.78302 0.0
C1763 C 0.50508 0.51492 0.79355 0.0
C1764 C 0.50526 0.55457 0.8028 0.0
C1765 C 0.5404 0.58722 0.8011 0.0
C1766 C 0.54134 0.46695 0.77259 0.0
C1767 C 0.46835 0.56248 0.81446 0.0
C1768 C 0.39251 0.45437 0.78536 0.0
C1769 C 0.39733 0.41381 0.79366 0.0
C1770 C 0.427 0.4879 0.78541 0.0
C1771 C 0.46665 0.48138 0.79438 0.0
C1772 C 0.47076 0.44136 0.80331 0.0
C1773 C 0.43639 0.4076 0.80262 0.0
C1774 C 0.4219 0.52928 0.77534 0.0
C1775 C 0.51186 0.43381 0.81336 0.0
H1776 H 0.60372 0.53502 0.77381 0.0
H1777 H 0.54033 0.61794 0.80798 0.0
H1778 H 0.54177 0.4349 0.77928 0.0
H1779 H 0.50967 0.46649 0.76564 0.0
H1780 H 0.57142 0.46697 0.76488 0.0
H1781 H 0.47512 0.59339 0.82145 0.0
H1782 H 0.43471 0.5666 0.8088 0.0
H1783 H 0.46557 0.53235 0.82203 0.0
H1784 H 0.36255 0.45902 0.77827 0.0
H1785 H 0.44002 0.37637 0.80911 0.0
H1786 H 0.44975 0.52963 0.76679 0.0
H1787 H 0.42515 0.56114 0.78208 0.0
H1788 H 0.38845 0.52975 0.76934 0.0
H1789 H 0.5429 0.42886 0.80631 0.0
H1790 H 0.5076 0.40342 0.82076 0.0
H1791 H 0.51794 0.46436 0.82056 0.0
C1792 C 0.41032 0.55267 0.18729 0.0
C1793 C 0.41662 0.58985 0.1971 0.0
C1794 C 0.4423 0.517 0.1867 0.0
C1795 C 0.48069 0.518 0.19647 0.0
C1796 C 0.48729 0.55559 0.20638 0.0
C1797 C 0.45544 0.59144 0.20641 0.0
C1798 C 0.43482 0.4781 0.1757 0.0
C1799 C 0.52725 0.55732 0.21722 0.0
C1800 C 0.53641 0.40459 0.20607 0.0
C1801 C 0.57665 0.40668 0.19746 0.0
C1802 C 0.50494 0.44076 0.20592 0.0
C1803 C 0.51341 0.47922 0.19659 0.0
C1804 C 0.55335 0.48084 0.18752 0.0
C1805 C 0.58488 0.4448 0.18824 0.0
C1806 C 0.46325 0.43834 0.21602 0.0
C1807 C 0.56288 0.52073 0.17714 0.0
H1808 H 0.38042 0.5516 0.18002 0.0
H1809 H 0.46005 0.61997 0.21412 0.0
H1810 H 0.46567 0.47352 0.16852 0.0
H1811 H 0.42945 0.4457 0.18198 0.0
H1812 H 0.40474 0.48388 0.16825 0.0
H1813 H 0.52743 0.58902 0.22418 0.0
H1814 H 0.52591 0.52736 0.22491 0.0
H1815 H 0.56002 0.55536 0.21091 0.0
H1816 H 0.53032 0.37535 0.21334 0.0
H1817 H 0.61594 0.44629 0.18152 0.0
H1818 H 0.43158 0.44061 0.20913 0.0
H1819 H 0.46321 0.46784 0.22394 0.0
H1820 H 0.462 0.40623 0.22272 0.0
H1821 H 0.53343 0.52601 0.1694 0.0
H1822 H 0.5943 0.51559 0.17025 0.0
H1823 H 0.56704 0.55253 0.18387 0.0
C1824 C 0.55109 0.89299 0.43381 0.0
C1825 C 0.58776 0.89925 0.44384 0.0
C1826 C 0.5151 0.9247 0.43319 0.0
C1827 C 0.51525 0.96265 0.44317 0.0
C1828 C 0.55235 0.96918 0.45327 0.0
C1829 C 0.58849 0.93771 0.45333 0.0
C1830 C 0.47673 0.91738 0.42199 0.0
C1831 C 0.55324 0.00859 0.46435 0.0
C1832 C 0.44187 0.06756 0.43636 0.0
C1833 C 0.40416 0.05865 0.44572 0.0
C1834 C 0.47751 0.03572 0.43494 0.0
C1835 C 0.47594 0.99478 0.44346 0.0
C1836 C 0.43768 0.98547 0.45283 0.0
C1837 C 0.40189 0.01727 0.45367 0.0
C1838 C 0.51716 0.04621 0.42452 0.0
C1839 C 0.43533 0.94274 0.4624 0.0
H1840 H 0.55066 0.86337 0.42642 0.0
H1841 H 0.61657 0.94232 0.46122 0.0
H1842 H 0.44415 0.91097 0.4281 0.0
H1843 H 0.47185 0.94863 0.41506 0.0
H1844 H 0.48337 0.88801 0.41431 0.0
H1845 H 0.58469 0.00876 0.47144 0.0
H1846 H 0.55123 0.04159 0.45822 0.0
H1847 H 0.52295 0.00659 0.47191 0.0
H1848 H 0.44346 0.09945 0.43013 0.0
H1849 H 0.37294 0.01058 0.46105 0.0
H1850 H 0.52302 0.01711 0.41669 0.0
H1851 H 0.54894 0.0509 0.43123 0.0
H1852 H 0.51131 0.07764 0.41774 0.0
H1853 H 0.43848 0.91188 0.45517 0.0
H1854 H 0.40285 0.94032 0.46891 0.0
H1855 H 0.46444 0.94235 0.47048 0.0
C1856 C 0.92174 0.40786 0.5473 0.0
C1857 C 0.92264 0.37021 0.53749 0.0
C1858 C 0.95853 0.43876 0.54791 0.0
C1859 C -0.00353 0.43257 0.53814 0.0
C1860 C -0.00169 0.39363 0.5286 0.0
C1861 C 0.96153 0.36253 0.52853 0.0
C1862 C 0.95578 0.47922 0.55851 0.0
C1863 C 0.03763 0.38635 0.51776 0.0
C1864 C 0.0539 0.54356 0.52671 0.0
C1865 C 0.09357 0.54339 0.53564 0.0
C1866 C 0.02307 0.50679 0.527 0.0
C1867 C 0.03145 0.46942 0.53678 0.0
C1868 C 0.07177 0.46874 0.5457 0.0
C1869 C 0.10279 0.50557 0.54487 0.0
C1870 C 0.9811 0.50835 0.51701 0.0
C1871 C 0.08131 0.42994 0.55649 0.0
H1872 H 0.89183 0.41359 0.55432 0.0
H1873 H 0.9621 0.33359 0.52085 0.0
H1874 H 0.98821 0.48301 0.56495 0.0
H1875 H 0.95086 0.51103 0.55189 0.0
H1876 H 0.92697 0.47597 0.56666 0.0
H1877 H 0.03621 0.35218 0.51225 0.0
H1878 H 0.03662 0.41296 0.50883 0.0
H1879 H 0.07092 0.38991 0.5237 0.0
H1880 H 0.04708 0.57251 0.51939 0.0
H1881 H 0.13344 0.50551 0.55179 0.0
H1882 H 0.94982 0.51047 0.5241 0.0
H1883 H 0.97851 0.47653 0.51019 0.0
H1884 H 0.98156 0.53811 0.5092 0.0
H1885 H 0.05436 0.42893 0.56534 0.0
H1886 H 0.11523 0.43345 0.56208 0.0
H1887 H 0.0801 0.39671 0.55043 0.0
loop_
_geom_bond_atom_site_label_1
_geom_bond_atom_site_label_2
_geom_bond_distance
_geom_bond_site_symmetry_2
_ccdc_geom_bond_type
Sc0 O3 2.025 . S
Sc0 O10 2.105 . S
Sc0 O13 2.105 . S
Sc0 O16 2.105 . S
Sc0 O19 2.105 . S
Sc1 O3 2.025 . S
Sc1 O11 2.105 . S
Sc1 O15 2.105 . S
Sc1 O17 2.105 . S
Sc1 O21 2.105 . S
Sc2 O3 2.025 . S
Sc2 O12 2.105 . S
Sc2 O14 2.105 . S
Sc2 O18 2.105 . S
Sc2 O20 2.105 . S
O3 Sc0 2.025 . S
O3 Sc1 2.025 . S
O3 Sc2 2.025 . S
C4 O10 1.268 . S
C4 O20 1.268 . S
C5 O11 1.268 . S
C5 O19 1.268 . S
C6 O12 1.268 . S
C6 O21 1.268 . S
C7 O13 1.268 . S
C7 O17 1.268 . S
C8 O14 1.268 . S
C8 O16 1.268 . S
C9 O15 1.268 . S
C9 O18 1.268 . S
O10 Sc0 2.105 . S
O10 C4 1.268 . S
O11 Sc1 2.105 . S
O11 C5 1.268 . S
O12 Sc2 2.105 . S
O12 C6 1.268 . S
O13 Sc0 2.105 . S
O13 C7 1.268 . S
O14 Sc2 2.105 . S
O14 C8 1.268 . S
O15 Sc1 2.105 . S
O15 C9 1.268 . S
O16 Sc0 2.105 . S
O16 C8 1.268 . S
O17 Sc1 2.105 . S
O17 C7 1.268 . S
O18 Sc2 2.105 . S
O18 C9 1.268 . S
O19 Sc0 2.105 . S
O19 C5 1.268 . S
O20 Sc2 2.105 . S
O20 C4 1.268 . S
O21 Sc1 2.105 . S
O21 C6 1.268 . S
Sc22 O25 2.025 . S
Sc22 O32 2.105 . S
Sc22 O35 2.105 . S
Sc22 O38 2.105 . S
Sc22 O41 2.105 . S
Sc23 O25 2.025 . S
Sc23 O33 2.105 . S
Sc23 O37 2.105 . S
Sc23 O39 2.105 . S
Sc23 O43 2.105 . S
Sc24 O25 2.025 . S
Sc24 O34 2.105 . S
Sc24 O36 2.105 . S
Sc24 O40 2.105 . S
Sc24 O42 2.105 . S
O25 Sc22 2.025 . S
O25 Sc23 2.025 . S
O25 Sc24 2.025 . S
C26 O32 1.268 . S
C26 O42 1.268 . S
C27 O33 1.268 . S
C27 O41 1.268 . S
C28 O34 1.268 . S
C28 O43 1.268 . S
C29 O35 1.268 . S
C29 O39 1.268 . S
C30 O36 1.268 . S
C30 O38 1.268 . S
C31 O37 1.268 . S
C31 O40 1.268 . S
O32 Sc22 2.105 . S
O32 C26 1.268 . S
O33 Sc23 2.105 . S
O33 C27 1.268 . S
O34 Sc24 2.105 . S
O34 C28 1.268 . S
O35 Sc22 2.105 . S
O35 C29 1.268 . S
O36 Sc24 2.105 . S
O36 C30 1.268 . S
O37 Sc23 2.105 . S
O37 C31 1.268 . S
O38 Sc22 2.105 . S
O38 C30 1.268 . S
O39 Sc23 2.105 . S
O39 C29 1.268 . S
O40 Sc24 2.105 . S
O40 C31 1.268 . S
O41 Sc22 2.105 . S
O41 C27 1.268 . S
O42 Sc24 2.105 . S
O42 C26 1.268 . S
O43 Sc23 2.105 . S
O43 C28 1.268 . S
Sc44 O47 2.025 . S
Sc44 O54 2.105 . S
Sc44 O57 2.105 . S
Sc44 O60 2.105 . S
Sc44 O63 2.105 . S
Sc45 O47 2.025 . S
Sc45 O55 2.105 . S
Sc45 O59 2.105 . S
Sc45 O61 2.105 . S
Sc45 O65 2.105 . S
Sc46 O47 2.025 . S
Sc46 O56 2.105 . S
Sc46 O58 2.105 . S
Sc46 O62 2.105 . S
Sc46 O64 2.105 . S
O47 Sc44 2.025 . S
O47 Sc45 2.025 . S
O47 Sc46 2.025 . S
C48 O54 1.268 . S
C48 O64 1.268 . S
C49 O55 1.268 . S
C49 O63 1.268 . S
C50 O56 1.268 . S
C50 O65 1.268 . S
C51 O57 1.268 . S
C51 O61 1.268 . S
C52 O58 1.268 . S
C52 O60 1.268 . S
C53 O59 1.268 . S
C53 O62 1.268 . S
O54 Sc44 2.105 . S
O54 C48 1.268 . S
O55 Sc45 2.105 . S
O55 C49 1.268 . S
O56 Sc46 2.105 . S
O56 C50 1.268 . S
O57 Sc44 2.105 . S
O57 C51 1.268 . S
O58 Sc46 2.105 . S
O58 C52 1.268 . S
O59 Sc45 2.105 . S
O59 C53 1.268 . S
O60 Sc44 2.105 . S
O60 C52 1.268 . S
O61 Sc45 2.105 . S
O61 C51 1.268 . S
O62 Sc46 2.105 . S
O62 C53 1.268 . S
O63 Sc44 2.105 . S
O63 C49 1.268 . S
O64 Sc46 2.105 . S
O64 C48 1.268 . S
O65 Sc45 2.105 . S
O65 C50 1.268 . S
Sc66 O69 2.025 . S
Sc66 O76 2.105 . S
Sc66 O79 2.105 . S
Sc66 O82 2.105 . S
Sc66 O85 2.105 . S
Sc67 O69 2.025 . S
Sc67 O77 2.105 . S
Sc67 O81 2.105 . S
Sc67 O83 2.105 . S
Sc67 O87 2.105 . S
Sc68 O69 2.025 . S
Sc68 O78 2.105 . S
Sc68 O80 2.105 . S
Sc68 O84 2.105 . S
Sc68 O86 2.105 . S
O69 Sc66 2.025 . S
O69 Sc67 2.025 . S
O69 Sc68 2.025 . S
C70 O76 1.268 . S
C70 O86 1.268 . S
C71 O77 1.268 . S
C71 O85 1.268 . S
C72 O78 1.268 . S
C72 O87 1.268 . S
C73 O79 1.268 . S
C73 O83 1.268 . S
C74 O80 1.268 . S
C74 O82 1.268 . S
C75 O81 1.268 . S
C75 O84 1.268 . S
O76 Sc66 2.105 . S
O76 C70 1.268 . S
O77 Sc67 2.105 . S
O77 C71 1.268 . S
O78 Sc68 2.105 . S
O78 C72 1.268 . S
O79 Sc66 2.105 . S
O79 C73 1.268 . S
O80 Sc68 2.105 . S
O80 C74 1.268 . S
O81 Sc67 2.105 . S
O81 C75 1.268 . S
O82 Sc66 2.105 . S
O82 C74 1.268 . S
O83 Sc67 2.105 . S
O83 C73 1.268 . S
O84 Sc68 2.105 . S
O84 C75 1.268 . S
O85 Sc66 2.105 . S
O85 C71 1.268 . S
O86 Sc68 2.105 . S
O86 C70 1.268 . S
O87 Sc67 2.105 . S
O87 C72 1.268 . S
Sc88 O91 2.025 . S
Sc88 O98 2.105 . S
Sc88 O101 2.105 . S
Sc88 O104 2.105 . S
Sc88 O107 2.105 . S
Sc89 O91 2.025 . S
Sc89 O99 2.105 . S
Sc89 O103 2.105 . S
Sc89 O105 2.105 . S
Sc89 O109 2.105 . S
Sc90 O91 2.025 . S
Sc90 O100 2.105 . S
Sc90 O102 2.105 . S
Sc90 O106 2.105 . S
Sc90 O108 2.105 . S
O91 Sc88 2.025 . S
O91 Sc89 2.025 . S
O91 Sc90 2.025 . S
C92 O98 1.268 . S
C92 O108 1.268 . S
C93 O99 1.268 . S
C93 O107 1.268 . S
C94 O100 1.268 . S
C94 O109 1.268 . S
C95 O101 1.268 . S
C95 O105 1.268 . S
C96 O102 1.268 . S
C96 O104 1.268 . S
C97 O103 1.268 . S
C97 O106 1.268 . S
O98 Sc88 2.105 . S
O98 C92 1.268 . S
O99 Sc89 2.105 . S
O99 C93 1.268 . S
O100 Sc90 2.105 . S
O100 C94 1.268 . S
O101 Sc88 2.105 . S
O101 C95 1.268 . S
O102 Sc90 2.105 . S
O102 C96 1.268 . S
O103 Sc89 2.105 . S
O103 C97 1.268 . S
O104 Sc88 2.105 . S
O104 C96 1.268 . S
O105 Sc89 2.105 . S
O105 C95 1.268 . S
O106 Sc90 2.105 . S
O106 C97 1.268 . S
O107 Sc88 2.105 . S
O107 C93 1.268 . S
O108 Sc90 2.105 . S
O108 C92 1.268 . S
O109 Sc89 2.105 . S
O109 C94 1.268 . S
Sc110 O113 2.025 . S
Sc110 O120 2.105 . S
Sc110 O123 2.105 . S
Sc110 O126 2.105 . S
Sc110 O129 2.105 . S
Sc111 O113 2.025 . S
Sc111 O121 2.105 . S
Sc111 O125 2.105 . S
Sc111 O127 2.105 . S
Sc111 O131 2.105 . S
Sc112 O113 2.025 . S
Sc112 O122 2.105 . S
Sc112 O124 2.105 . S
Sc112 O128 2.105 . S
Sc112 O130 2.105 . S
O113 Sc110 2.025 . S
O113 Sc111 2.025 . S
O113 Sc112 2.025 . S
C114 O120 1.268 . S
C114 O130 1.268 . S
C115 O121 1.268 . S
C115 O129 1.268 . S
C116 O122 1.268 . S
C116 O131 1.268 . S
C117 O123 1.268 . S
C117 O127 1.268 . S
C118 O124 1.268 . S
C118 O126 1.268 . S
C119 O125 1.268 . S
C119 O128 1.268 . S
O120 Sc110 2.105 . S
O120 C114 1.268 . S
O121 Sc111 2.105 . S
O121 C115 1.268 . S
O122 Sc112 2.105 . S
O122 C116 1.268 . S
O123 Sc110 2.105 . S
O123 C117 1.268 . S
O124 Sc112 2.105 . S
O124 C118 1.268 . S
O125 Sc111 2.105 . S
O125 C119 1.268 . S
O126 Sc110 2.105 . S
O126 C118 1.268 . S
O127 Sc111 2.105 . S
O127 C117 1.268 . S
O128 Sc112 2.105 . S
O128 C119 1.268 . S
O129 Sc110 2.105 . S
O129 C115 1.268 . S
O130 Sc112 2.105 . S
O130 C114 1.268 . S
O131 Sc111 2.105 . S
O131 C116 1.268 . S
Sc132 O135 2.025 . S
Sc132 O142 2.105 . S
Sc132 O145 2.105 . S
Sc132 O148 2.105 . S
Sc132 O151 2.105 . S
Sc133 O135 2.025 . S
Sc133 O143 2.105 . S
Sc133 O147 2.105 . S
Sc133 O149 2.105 . S
Sc133 O153 2.105 . S
Sc134 O135 2.025 . S
Sc134 O144 2.105 . S
Sc134 O146 2.105 . S
Sc134 O150 2.105 . S
Sc134 O152 2.105 . S
O135 Sc132 2.025 . S
O135 Sc133 2.025 . S
O135 Sc134 2.025 . S
C136 O142 1.268 . S
C136 O152 1.268 . S
C137 O143 1.268 . S
C137 O151 1.268 . S
C138 O144 1.268 . S
C138 O153 1.268 . S
C139 O145 1.268 . S
C139 O149 1.268 . S
C140 O146 1.268 . S
C140 O148 1.268 . S
C141 O147 1.268 . S
C141 O150 1.268 . S
O142 Sc132 2.105 . S
O142 C136 1.268 . S
O143 Sc133 2.105 . S
O143 C137 1.268 . S
O144 Sc134 2.105 . S
O144 C138 1.268 . S
O145 Sc132 2.105 . S
O145 C139 1.268 . S
O146 Sc134 2.105 . S
O146 C140 1.268 . S
O147 Sc133 2.105 . S
O147 C141 1.268 . S
O148 Sc132 2.105 . S
O148 C140 1.268 . S
O149 Sc133 2.105 . S
O149 C139 1.268 . S
O150 Sc134 2.105 . S
O150 C141 1.268 . S
O151 Sc132 2.105 . S
O151 C137 1.268 . S
O152 Sc134 2.105 . S
O152 C136 1.268 . S
O153 Sc133 2.105 . S
O153 C138 1.268 . S
Sc154 O157 2.025 . S
Sc154 O164 2.105 . S
Sc154 O167 2.105 . S
Sc154 O170 2.105 . S
Sc154 O173 2.105 . S
Sc155 O157 2.025 . S
Sc155 O165 2.105 . S
Sc155 O169 2.105 . S
Sc155 O171 2.105 . S
Sc155 O175 2.105 . S
Sc156 O157 2.025 . S
Sc156 O166 2.105 . S
Sc156 O168 2.105 . S
Sc156 O172 2.105 . S
Sc156 O174 2.105 . S
O157 Sc154 2.025 . S
O157 Sc155 2.025 . S
O157 Sc156 2.025 . S
C158 O164 1.268 . S
C158 O174 1.268 . S
C159 O165 1.268 . S
C159 O173 1.268 . S
C160 O166 1.268 . S
C160 O175 1.268 . S
C161 O167 1.268 . S
C161 O171 1.268 . S
C162 O168 1.268 . S
C162 O170 1.268 . S
C163 O169 1.268 . S
C163 O172 1.268 . S
O164 Sc154 2.105 . S
O164 C158 1.268 . S
O165 Sc155 2.105 . S
O165 C159 1.268 . S
O166 Sc156 2.105 . S
O166 C160 1.268 . S
O167 Sc154 2.105 . S
O167 C161 1.268 . S
O168 Sc156 2.105 . S
O168 C162 1.268 . S
O169 Sc155 2.105 . S
O169 C163 1.268 . S
O170 Sc154 2.105 . S
O170 C162 1.268 . S
O171 Sc155 2.105 . S
O171 C161 1.268 . S
O172 Sc156 2.105 . S
O172 C163 1.268 . S
O173 Sc154 2.105 . S
O173 C159 1.268 . S
O174 Sc156 2.105 . S
O174 C158 1.268 . S
O175 Sc155 2.105 . S
O175 C160 1.268 . S
Sc176 O179 2.025 . S
Sc176 O186 2.105 . S
Sc176 O189 2.105 . S
Sc176 O192 2.105 . S
Sc176 O195 2.105 . S
Sc177 O179 2.025 . S
Sc177 O187 2.105 . S
Sc177 O191 2.105 . S
Sc177 O193 2.105 . S
Sc177 O197 2.105 . S
Sc178 O179 2.025 . S
Sc178 O188 2.105 . S
Sc178 O190 2.105 . S
Sc178 O194 2.105 . S
Sc178 O196 2.105 . S
O179 Sc176 2.025 . S
O179 Sc177 2.025 . S
O179 Sc178 2.025 . S
C180 O186 1.268 . S
C180 O196 1.268 . S
C181 O187 1.268 . S
C181 O195 1.268 . S
C182 O188 1.268 . S
C182 O197 1.268 . S
C183 O189 1.268 . S
C183 O193 1.268 . S
C184 O190 1.268 . S
C184 O192 1.268 . S
C185 O191 1.268 . S
C185 O194 1.268 . S
O186 Sc176 2.105 . S
O186 C180 1.268 . S
O187 Sc177 2.105 . S
O187 C181 1.268 . S
O188 Sc178 2.105 . S
O188 C182 1.268 . S
O189 Sc176 2.105 . S
O189 C183 1.268 . S
O190 Sc178 2.105 . S
O190 C184 1.268 . S
O191 Sc177 2.105 . S
O191 C185 1.268 . S
O192 Sc176 2.105 . S
O192 C184 1.268 . S
O193 Sc177 2.105 . S
O193 C183 1.268 . S
O194 Sc178 2.105 . S
O194 C185 1.268 . S
O195 Sc176 2.105 . S
O195 C181 1.268 . S
O196 Sc178 2.105 . S
O196 C180 1.268 . S
O197 Sc177 2.105 . S
O197 C182 1.268 . S
Sc198 O201 2.025 . S
Sc198 O208 2.105 . S
Sc198 O211 2.105 . S
Sc198 O214 2.105 . S
Sc198 O217 2.105 . S
Sc199 O201 2.025 . S
Sc199 O209 2.105 . S
Sc199 O213 2.105 . S
Sc199 O215 2.105 . S
Sc199 O219 2.105 . S
Sc200 O201 2.025 . S
Sc200 O210 2.105 . S
Sc200 O212 2.105 . S
Sc200 O216 2.105 . S
Sc200 O218 2.105 . S
O201 Sc198 2.025 . S
O201 Sc199 2.025 . S
O201 Sc200 2.025 . S
C202 O208 1.268 . S
C202 O218 1.268 . S
C203 O209 1.268 . S
C203 O217 1.268 . S
C204 O210 1.268 . S
C204 O219 1.268 . S
C205 O211 1.268 . S
C205 O215 1.268 . S
C206 O212 1.268 . S
C206 O214 1.268 . S
C207 O213 1.268 . S
C207 O216 1.268 . S
O208 Sc198 2.105 . S
O208 C202 1.268 . S
O209 Sc199 2.105 . S
O209 C203 1.268 . S
O210 Sc200 2.105 . S
O210 C204 1.268 . S
O211 Sc198 2.105 . S
O211 C205 1.268 . S
O212 Sc200 2.105 . S
O212 C206 1.268 . S
O213 Sc199 2.105 . S
O213 C207 1.268 . S
O214 Sc198 2.105 . S
O214 C206 1.268 . S
O215 Sc199 2.105 . S
O215 C205 1.268 . S
O216 Sc200 2.105 . S
O216 C207 1.268 . S
O217 Sc198 2.105 . S
O217 C203 1.268 . S
O218 Sc200 2.105 . S
O218 C202 1.268 . S
O219 Sc199 2.105 . S
O219 C204 1.268 . S
Sc220 O223 2.025 . S
Sc220 O230 2.105 . S
Sc220 O233 2.105 . S
Sc220 O236 2.105 . S
Sc220 O239 2.105 . S
Sc221 O223 2.025 . S
Sc221 O231 2.105 . S
Sc221 O235 2.105 . S
Sc221 O237 2.105 . S
Sc221 O241 2.105 . S
Sc222 O223 2.025 . S
Sc222 O232 2.105 . S
Sc222 O234 2.105 . S
Sc222 O238 2.105 . S
Sc222 O240 2.105 . S
O223 Sc220 2.025 . S
O223 Sc221 2.025 . S
O223 Sc222 2.025 . S
C224 O230 1.268 . S
C224 O240 1.268 . S
C225 O231 1.268 . S
C225 O239 1.268 . S
C226 O232 1.268 . S
C226 O241 1.268 . S
C227 O233 1.268 . S
C227 O237 1.268 . S
C228 O234 1.268 . S
C228 O236 1.268 . S
C229 O235 1.268 . S
C229 O238 1.268 . S
O230 Sc220 2.105 . S
O230 C224 1.268 . S
O231 Sc221 2.105 . S
O231 C225 1.268 . S
O232 Sc222 2.105 . S
O232 C226 1.268 . S
O233 Sc220 2.105 . S
O233 C227 1.268 . S
O234 Sc222 2.105 . S
O234 C228 1.268 . S
O235 Sc221 2.105 . S
O235 C229 1.268 . S
O236 Sc220 2.105 . S
O236 C228 1.268 . S
O237 Sc221 2.105 . S
O237 C227 1.268 . S
O238 Sc222 2.105 . S
O238 C229 1.268 . S
O239 Sc220 2.105 . S
O239 C225 1.268 . S
O240 Sc222 2.105 . S
O240 C224 1.268 . S
O241 Sc221 2.105 . S
O241 C226 1.268 . S
Sc242 O245 2.025 . S
Sc242 O252 2.105 . S
Sc242 O255 2.105 . S
Sc242 O258 2.105 . S
Sc242 O261 2.105 . S
Sc243 O245 2.025 . S
Sc243 O253 2.105 . S
Sc243 O257 2.105 . S
Sc243 O259 2.105 . S
Sc243 O263 2.105 . S
Sc244 O245 2.025 . S
Sc244 O254 2.105 . S
Sc244 O256 2.105 . S
Sc244 O260 2.105 . S
Sc244 O262 2.105 . S
O245 Sc242 2.025 . S
O245 Sc243 2.025 . S
O245 Sc244 2.025 . S
C246 O252 1.268 . S
C246 O262 1.268 . S
C247 O253 1.268 . S
C247 O261 1.268 . S
C248 O254 1.268 . S
C248 O263 1.268 . S
C249 O255 1.268 . S
C249 O259 1.268 . S
C250 O256 1.268 . S
C250 O258 1.268 . S
C251 O257 1.268 . S
C251 O260 1.268 . S
O252 Sc242 2.105 . S
O252 C246 1.268 . S
O253 Sc243 2.105 . S
O253 C247 1.268 . S
O254 Sc244 2.105 . S
O254 C248 1.268 . S
O255 Sc242 2.105 . S
O255 C249 1.268 . S
O256 Sc244 2.105 . S
O256 C250 1.268 . S
O257 Sc243 2.105 . S
O257 C251 1.268 . S
O258 Sc242 2.105 . S
O258 C250 1.268 . S
O259 Sc243 2.105 . S
O259 C249 1.268 . S
O260 Sc244 2.105 . S
O260 C251 1.268 . S
O261 Sc242 2.105 . S
O261 C247 1.268 . S
O262 Sc244 2.105 . S
O262 C246 1.268 . S
O263 Sc243 2.105 . S
O263 C248 1.268 . S
Sc264 O267 2.025 . S
Sc264 O274 2.105 . S
Sc264 O277 2.105 . S
Sc264 O280 2.105 . S
Sc264 O283 2.105 . S
Sc265 O267 2.025 . S
Sc265 O275 2.105 . S
Sc265 O279 2.105 . S
Sc265 O281 2.105 . S
Sc265 O285 2.105 . S
Sc266 O267 2.025 . S
Sc266 O276 2.105 . S
Sc266 O278 2.105 . S
Sc266 O282 2.105 . S
Sc266 O284 2.105 . S
O267 Sc264 2.025 . S
O267 Sc265 2.025 . S
O267 Sc266 2.025 . S
C268 O274 1.268 . S
C268 O284 1.268 . S
C269 O275 1.268 . S
C269 O283 1.268 . S
C270 O276 1.268 . S
C270 O285 1.268 . S
C271 O277 1.268 . S
C271 O281 1.268 . S
C272 O278 1.268 . S
C272 O280 1.268 . S
C273 O279 1.268 . S
C273 O282 1.268 . S
O274 Sc264 2.105 . S
O274 C268 1.268 . S
O275 Sc265 2.105 . S
O275 C269 1.268 . S
O276 Sc266 2.105 . S
O276 C270 1.268 . S
O277 Sc264 2.105 . S
O277 C271 1.268 . S
O278 Sc266 2.105 . S
O278 C272 1.268 . S
O279 Sc265 2.105 . S
O279 C273 1.268 . S
O280 Sc264 2.105 . S
O280 C272 1.268 . S
O281 Sc265 2.105 . S
O281 C271 1.268 . S
O282 Sc266 2.105 . S
O282 C273 1.268 . S
O283 Sc264 2.105 . S
O283 C269 1.268 . S
O284 Sc266 2.105 . S
O284 C268 1.268 . S
O285 Sc265 2.105 . S
O285 C270 1.268 . S
Sc286 O289 2.025 . S
Sc286 O296 2.105 . S
Sc286 O299 2.105 . S
Sc286 O302 2.105 . S
Sc286 O305 2.105 . S
Sc287 O289 2.025 . S
Sc287 O297 2.105 . S
Sc287 O301 2.105 . S
Sc287 O303 2.105 . S
Sc287 O307 2.105 . S
Sc288 O289 2.025 . S
Sc288 O298 2.105 . S
Sc288 O300 2.105 . S
Sc288 O304 2.105 . S
Sc288 O306 2.105 . S
O289 Sc286 2.025 . S
O289 Sc287 2.025 . S
O289 Sc288 2.025 . S
C290 O296 1.268 . S
C290 O306 1.268 . S
C291 O297 1.268 . S
C291 O305 1.268 . S
C292 O298 1.268 . S
C292 O307 1.268 . S
C293 O299 1.268 . S
C293 O303 1.268 . S
C294 O300 1.268 . S
C294 O302 1.268 . S
C295 O301 1.268 . S
C295 O304 1.268 . S
O296 Sc286 2.105 . S
O296 C290 1.268 . S
O297 Sc287 2.105 . S
O297 C291 1.268 . S
O298 Sc288 2.105 . S
O298 C292 1.268 . S
O299 Sc286 2.105 . S
O299 C293 1.268 . S
O300 Sc288 2.105 . S
O300 C294 1.268 . S
O301 Sc287 2.105 . S
O301 C295 1.268 . S
O302 Sc286 2.105 . S
O302 C294 1.268 . S
O303 Sc287 2.105 . S
O303 C293 1.268 . S
O304 Sc288 2.105 . S
O304 C295 1.268 . S
O305 Sc286 2.105 . S
O305 C291 1.268 . S
O306 Sc288 2.105 . S
O306 C290 1.268 . S
O307 Sc287 2.105 . S
O307 C292 1.268 . S
Sc308 O311 2.025 . S
Sc308 O318 2.105 . S
Sc308 O321 2.105 . S
Sc308 O324 2.105 . S
Sc308 O327 2.105 . S
Sc309 O311 2.025 . S
Sc309 O319 2.105 . S
Sc309 O323 2.105 . S
Sc309 O325 2.105 . S
Sc309 O329 2.105 . S
Sc310 O311 2.025 . S
Sc310 O320 2.105 . S
Sc310 O322 2.105 . S
Sc310 O326 2.105 . S
Sc310 O328 2.105 . S
O311 Sc308 2.025 . S
O311 Sc309 2.025 . S
O311 Sc310 2.025 . S
C312 O318 1.268 . S
C312 O328 1.268 . S
C313 O319 1.268 . S
C313 O327 1.268 . S
C314 O320 1.268 . S
C314 O329 1.268 . S
C315 O321 1.268 . S
C315 O325 1.268 . S
C316 O322 1.268 . S
C316 O324 1.268 . S
C317 O323 1.268 . S
C317 O326 1.268 . S
O318 Sc308 2.105 . S
O318 C312 1.268 . S
O319 Sc309 2.105 . S
O319 C313 1.268 . S
O320 Sc310 2.105 . S
O320 C314 1.268 . S
O321 Sc308 2.105 . S
O321 C315 1.268 . S
O322 Sc310 2.105 . S
O322 C316 1.268 . S
O323 Sc309 2.105 . S
O323 C317 1.268 . S
O324 Sc308 2.105 . S
O324 C316 1.268 . S
O325 Sc309 2.105 . S
O325 C315 1.268 . S
O326 Sc310 2.105 . S
O326 C317 1.268 . S
O327 Sc308 2.105 . S
O327 C313 1.268 . S
O328 Sc310 2.105 . S
O328 C312 1.268 . S
O329 Sc309 2.105 . S
O329 C314 1.268 . S
Sc330 O333 2.025 . S
Sc330 O340 2.105 . S
Sc330 O343 2.105 . S
Sc330 O346 2.105 . S
Sc330 O349 2.105 . S
Sc331 O333 2.025 . S
Sc331 O341 2.105 . S
Sc331 O345 2.105 . S
Sc331 O347 2.105 . S
Sc331 O351 2.105 . S
Sc332 O333 2.025 . S
Sc332 O342 2.105 . S
Sc332 O344 2.105 . S
Sc332 O348 2.105 . S
Sc332 O350 2.105 . S
O333 Sc330 2.025 . S
O333 Sc331 2.025 . S
O333 Sc332 2.025 . S
C334 O340 1.268 . S
C334 O350 1.268 . S
C335 O341 1.268 . S
C335 O349 1.268 . S
C336 O342 1.268 . S
C336 O351 1.268 . S
C337 O343 1.268 . S
C337 O347 1.268 . S
C338 O344 1.268 . S
C338 O346 1.268 . S
C339 O345 1.268 . S
C339 O348 1.268 . S
O340 Sc330 2.105 . S
O340 C334 1.268 . S
O341 Sc331 2.105 . S
O341 C335 1.268 . S
O342 Sc332 2.105 . S
O342 C336 1.268 . S
O343 Sc330 2.105 . S
O343 C337 1.268 . S
O344 Sc332 2.105 . S
O344 C338 1.268 . S
O345 Sc331 2.105 . S
O345 C339 1.268 . S
O346 Sc330 2.105 . S
O346 C338 1.268 . S
O347 Sc331 2.105 . S
O347 C337 1.268 . S
O348 Sc332 2.105 . S
O348 C339 1.268 . S
O349 Sc330 2.105 . S
O349 C335 1.268 . S
O350 Sc332 2.105 . S
O350 C334 1.268 . S
O351 Sc331 2.105 . S
O351 C336 1.268 . S
C352 C353 1.391 . S
C352 C354 1.394 . S
C352 H368 0.931 . S
C353 C352 1.391 . S
C353 C357 1.376 . S
C354 C352 1.394 . S
C354 C355 1.369 . S
C354 C358 1.531 . S
C355 C354 1.369 . S
C355 C356 1.410 . S
C355 C363 1.503 . S
C356 C355 1.410 . S
C356 C357 1.392 . S
C356 C359 1.511 . S
C357 C353 1.376 . S
C357 C356 1.392 . S
C357 H369 0.929 . S
C358 C354 1.531 . S
C358 H370 0.960 . S
C358 H371 0.962 . S
C358 H372 0.960 . S
C359 C356 1.511 . S
C359 H373 0.961 . S
C359 H374 0.961 . S
C359 H375 0.961 . S
C360 C361 1.370 . S
C360 C362 1.363 . S
C360 H376 0.931 . S
C361 C360 1.370 . S
C361 C365 1.408 . S
C362 C360 1.363 . S
C362 C363 1.370 1_545 S
C362 C366 1.524 . S
C363 C355 1.503 . S
C363 C362 1.370 1_565 S
C363 C364 1.403 . S
C364 C363 1.403 . S
C364 C365 1.404 1_565 S
C364 C367 1.539 . S
C365 C361 1.408 . S
C365 C364 1.404 1_545 S
C365 H377 0.930 . S
C366 C362 1.524 . S
C366 H378 0.956 1_545 S
C366 H379 0.961 1_545 S
C366 H380 0.961 . S
C367 C364 1.539 . S
C367 H381 0.958 . S
C367 H382 0.961 . S
C367 H383 0.960 . S
H368 C352 0.931 . S
H369 C357 0.929 . S
H370 C358 0.960 . S
H371 C358 0.962 . S
H372 C358 0.960 . S
H373 C359 0.961 . S
H374 C359 0.961 . S
H375 C359 0.961 . S
H376 C360 0.931 . S
H377 C365 0.930 . S
H378 C366 0.956 1_565 S
H379 C366 0.961 1_565 S
H380 C366 0.961 . S
H381 C367 0.958 . S
H382 C367 0.961 . S
H383 C367 0.960 . S
C384 C385 1.391 . S
C384 C386 1.394 . S
C384 H400 0.931 . S
C385 C384 1.391 . S
C385 C389 1.376 . S
C386 C384 1.394 . S
C386 C387 1.369 1_455 S
C386 C390 1.531 . S
C387 C386 1.369 1_655 S
C387 C388 1.410 . S
C387 C395 1.503 . S
C388 C387 1.410 . S
C388 C389 1.392 1_655 S
C388 C391 1.511 . S
C389 C385 1.376 . S
C389 C388 1.392 1_455 S
C389 H401 0.929 . S
C390 C386 1.531 . S
C390 H402 0.960 1_455 S
C390 H403 0.962 . S
C390 H404 0.960 . S
C391 C388 1.511 . S
C391 H405 0.961 . S
C391 H406 0.961 . S
C391 H407 0.961 . S
C392 C393 1.370 . S
C392 C394 1.363 . S
C392 H408 0.931 . S
C393 C392 1.370 . S
C393 C397 1.408 . S
C394 C392 1.363 . S
C394 C395 1.370 . S
C394 C398 1.524 . S
C395 C387 1.503 . S
C395 C394 1.370 . S
C395 C396 1.403 . S
C396 C395 1.403 . S
C396 C397 1.404 . S
C396 C399 1.539 . S
C397 C393 1.408 . S
C397 C396 1.404 . S
C397 H409 0.930 . S
C398 C394 1.524 . S
C398 H410 0.956 . S
C398 H411 0.961 . S
C398 H412 0.961 . S
C399 C396 1.539 . S
C399 H413 0.958 . S
C399 H414 0.961 . S
C399 H415 0.960 . S
H400 C384 0.931 . S
H401 C389 0.929 . S
H402 C390 0.960 1_655 S
H403 C390 0.962 . S
H404 C390 0.960 . S
H405 C391 0.961 . S
H406 C391 0.961 . S
H407 C391 0.961 . S
H408 C392 0.931 . S
H409 C397 0.930 . S
H410 C398 0.956 . S
H411 C398 0.961 . S
H412 C398 0.961 . S
H413 C399 0.958 . S
H414 C399 0.961 . S
H415 C399 0.960 . S
C416 C417 1.391 . S
C416 C418 1.394 . S
C416 H432 0.931 . S
C417 C416 1.391 . S
C417 C421 1.376 . S
C418 C416 1.394 . S
C418 C419 1.369 1_565 S
C418 C422 1.531 . S
C419 C418 1.369 1_545 S
C419 C420 1.410 . S
C419 C427 1.503 . S
C420 C419 1.410 . S
C420 C421 1.392 1_545 S
C420 C423 1.511 . S
C421 C417 1.376 . S
C421 C420 1.392 1_565 S
C421 H433 0.929 . S
C422 C418 1.531 . S
C422 H434 0.960 1_565 S
C422 H435 0.962 . S
C422 H436 0.960 . S
C423 C420 1.511 . S
C423 H437 0.961 . S
C423 H438 0.961 . S
C423 H439 0.961 . S
C424 C425 1.370 . S
C424 C426 1.363 . S
C424 H440 0.931 . S
C425 C424 1.370 . S
C425 C429 1.408 . S
C426 C424 1.363 . S
C426 C427 1.370 . S
C426 C430 1.524 . S
C427 C419 1.503 . S
C427 C426 1.370 . S
C427 C428 1.403 . S
C428 C427 1.403 . S
C428 C429 1.404 . S
C428 C431 1.539 . S
C429 C425 1.408 . S
C429 C428 1.404 . S
C429 H441 0.930 . S
C430 C426 1.524 . S
C430 H442 0.956 . S
C430 H443 0.961 . S
C430 H444 0.961 . S
C431 C428 1.539 . S
C431 H445 0.958 . S
C431 H446 0.961 . S
C431 H447 0.960 . S
H432 C416 0.931 . S
H433 C421 0.929 . S
H434 C422 0.960 1_545 S
H435 C422 0.962 . S
H436 C422 0.960 . S
H437 C423 0.961 . S
H438 C423 0.961 . S
H439 C423 0.961 . S
H440 C424 0.931 . S
H441 C429 0.930 . S
H442 C430 0.956 . S
H443 C430 0.961 . S
H444 C430 0.961 . S
H445 C431 0.958 . S
H446 C431 0.961 . S
H447 C431 0.960 . S
C448 C449 1.391 . S
C448 C450 1.394 . S
C448 H464 0.931 . S
C449 C448 1.391 . S
C449 C453 1.376 . S
C450 C448 1.394 . S
C450 C451 1.369 . S
C450 C454 1.531 . S
C451 C450 1.369 . S
C451 C452 1.410 . S
C451 C459 1.503 . S
C452 C451 1.410 . S
C452 C453 1.392 . S
C452 C455 1.511 . S
C453 C449 1.376 . S
C453 C452 1.392 . S
C453 H465 0.929 . S
C454 C450 1.531 . S
C454 H466 0.960 1_455 S
C454 H467 0.962 . S
C454 H468 0.960 . S
C455 C452 1.511 . S
C455 H469 0.961 . S
C455 H470 0.961 . S
C455 H471 0.961 . S
C456 C457 1.370 . S
C456 C458 1.381 . S
C456 H472 0.931 . S
C457 C456 1.370 . S
C457 C461 1.408 . S
C458 C456 1.381 . S
C458 C459 1.364 1_655 S
C458 C462 1.513 1_655 S
C459 C451 1.503 . S
C459 C458 1.364 1_455 S
C459 C460 1.403 1_455 S
C460 C459 1.403 1_655 S
C460 C461 1.404 . S
C460 C463 1.539 1_655 S
C461 C457 1.408 . S
C461 C460 1.404 . S
C461 H473 0.930 . S
C462 C458 1.513 1_455 S
C462 H474 0.956 . S
C462 H475 0.961 . S
C462 H476 0.961 . S
C463 C460 1.539 1_455 S
C463 H477 0.958 1_455 S
C463 H478 0.961 1_455 S
C463 H479 0.960 . S
H464 C448 0.931 . S
H465 C453 0.929 . S
H466 C454 0.960 1_655 S
H467 C454 0.962 . S
H468 C454 0.960 . S
H469 C455 0.961 . S
H470 C455 0.961 . S
H471 C455 0.961 . S
H472 C456 0.931 . S
H473 C461 0.930 . S
H474 C462 0.956 . S
H475 C462 0.961 . S
H476 C462 0.961 . S
H477 C463 0.958 1_655 S
H478 C463 0.961 1_655 S
H479 C463 0.960 . S
C480 C481 1.391 . S
C480 C482 1.394 . S
C480 H496 0.931 . S
C481 C480 1.391 . S
C481 C485 1.376 1_556 S
C482 C480 1.394 . S
C482 C483 1.369 1_556 S
C482 C486 1.531 . S
C483 C482 1.369 1_554 S
C483 C484 1.410 . S
C483 C491 1.503 . S
C484 C483 1.410 . S
C484 C485 1.392 . S
C484 C487 1.511 . S
C485 C481 1.376 1_554 S
C485 C484 1.392 . S
C485 H497 0.929 . S
C486 C482 1.531 . S
C486 H498 0.960 . S
C486 H499 0.962 . S
C486 H500 0.960 . S
C487 C484 1.511 . S
C487 H501 0.961 . S
C487 H502 0.961 . S
C487 H503 0.961 . S
C488 C489 1.370 . S
C488 C490 1.363 . S
C488 H504 0.931 . S
C489 C488 1.370 . S
C489 C493 1.408 . S
C490 C488 1.363 . S
C490 C491 1.370 . S
C490 C494 1.524 . S
C491 C483 1.503 . S
C491 C490 1.370 . S
C491 C492 1.403 . S
C492 C491 1.403 . S
C492 C493 1.404 . S
C492 C495 1.539 . S
C493 C489 1.408 . S
C493 C492 1.404 . S
C493 H505 0.930 . S
C494 C490 1.524 . S
C494 H506 0.956 1_554 S
C494 H507 0.961 . S
C494 H508 0.961 . S
C495 C492 1.539 . S
C495 H509 0.958 . S
C495 H510 0.961 . S
C495 H511 0.960 . S
H496 C480 0.931 . S
H497 C485 0.929 . S
H498 C486 0.960 . S
H499 C486 0.962 . S
H500 C486 0.960 . S
H501 C487 0.961 . S
H502 C487 0.961 . S
H503 C487 0.961 . S
H504 C488 0.931 . S
H505 C493 0.930 . S
H506 C494 0.956 1_556 S
H507 C494 0.961 . S
H508 C494 0.961 . S
H509 C495 0.958 . S
H510 C495 0.961 . S
H511 C495 0.960 . S
C512 C513 1.391 . S
C512 C514 1.394 . S
C512 H528 0.931 . S
C513 C512 1.391 . S
C513 C517 1.376 1_554 S
C514 C512 1.394 . S
C514 C515 1.369 1_554 S
C514 C518 1.531 . S
C515 C514 1.369 1_556 S
C515 C516 1.410 . S
C515 C523 1.503 . S
C516 C515 1.410 . S
C516 C517 1.392 . S
C516 C519 1.511 . S
C517 C513 1.376 1_556 S
C517 C516 1.392 . S
C517 H529 0.929 . S
C518 C514 1.531 . S
C518 H530 0.960 . S
C518 H531 0.962 . S
C518 H532 0.960 . S
C519 C516 1.511 . S
C519 H533 0.961 . S
C519 H534 0.961 . S
C519 H535 0.961 . S
C520 C521 1.370 . S
C520 C522 1.363 . S
C520 H536 0.931 . S
C521 C520 1.370 . S
C521 C525 1.408 . S
C522 C520 1.363 . S
C522 C523 1.370 . S
C522 C526 1.524 . S
C523 C515 1.503 . S
C523 C522 1.370 . S
C523 C524 1.403 . S
C524 C523 1.403 . S
C524 C525 1.404 . S
C524 C527 1.539 . S
C525 C521 1.408 . S
C525 C524 1.404 . S
C525 H537 0.930 . S
C526 C522 1.524 . S
C526 H538 0.956 . S
C526 H539 0.961 . S
C526 H540 0.961 . S
C527 C524 1.539 . S
C527 H541 0.958 1_556 S
C527 H542 0.961 . S
C527 H543 0.960 . S
H528 C512 0.931 . S
H529 C517 0.929 . S
H530 C518 0.960 . S
H531 C518 0.962 . S
H532 C518 0.960 . S
H533 C519 0.961 . S
H534 C519 0.961 . S
H535 C519 0.961 . S
H536 C520 0.931 . S
H537 C525 0.930 . S
H538 C526 0.956 . S
H539 C526 0.961 . S
H540 C526 0.961 . S
H541 C527 0.958 1_554 S
H542 C527 0.961 . S
H543 C527 0.960 . S
C544 C545 1.391 . S
C544 C546 1.394 . S
C544 H560 0.931 . S
C545 C544 1.391 . S
C545 C549 1.376 . S
C546 C544 1.394 . S
C546 C547 1.369 . S
C546 C550 1.531 . S
C547 C546 1.369 . S
C547 C548 1.410 . S
C547 C555 1.503 . S
C548 C547 1.410 . S
C548 C549 1.392 . S
C548 C551 1.511 . S
C549 C545 1.376 . S
C549 C548 1.392 . S
C549 H561 0.929 . S
C550 C546 1.531 . S
C550 H562 0.960 . S
C550 H563 0.962 . S
C550 H564 0.960 . S
C551 C548 1.511 . S
C551 H565 0.961 . S
C551 H566 0.961 . S
C551 H567 0.961 1_554 S
C552 C553 1.370 1_554 S
C552 C554 1.363 . S
C552 H568 0.931 . S
C553 C552 1.370 1_556 S
C553 C557 1.408 . S
C554 C552 1.363 . S
C554 C555 1.370 . S
C554 C558 1.524 . S
C555 C547 1.503 . S
C555 C554 1.370 . S
C555 C556 1.403 1_554 S
C556 C555 1.403 1_556 S
C556 C557 1.404 . S
C556 C559 1.539 . S
C557 C553 1.408 . S
C557 C556 1.404 . S
C557 H569 0.930 . S
C558 C554 1.524 . S
C558 H570 0.956 . S
C558 H571 0.961 . S
C558 H572 0.961 . S
C559 C556 1.539 . S
C559 H573 0.958 . S
C559 H574 0.961 . S
C559 H575 0.960 . S
H560 C544 0.931 . S
H561 C549 0.929 . S
H562 C550 0.960 . S
H563 C550 0.962 . S
H564 C550 0.960 . S
H565 C551 0.961 . S
H566 C551 0.961 . S
H567 C551 0.961 1_556 S
H568 C552 0.931 . S
H569 C557 0.930 . S
H570 C558 0.956 . S
H571 C558 0.961 . S
H572 C558 0.961 . S
H573 C559 0.958 . S
H574 C559 0.961 . S
H575 C559 0.960 . S
C576 C577 1.391 . S
C576 C578 1.394 . S
C576 H592 0.931 . S
C577 C576 1.391 . S
C577 C581 1.376 . S
C578 C576 1.394 . S
C578 C579 1.369 . S
C578 C582 1.531 . S
C579 C578 1.369 . S
C579 C580 1.410 . S
C579 C587 1.503 . S
C580 C579 1.410 . S
C580 C581 1.392 . S
C580 C583 1.511 . S
C581 C577 1.376 . S
C581 C580 1.392 . S
C581 H593 0.929 . S
C582 C578 1.531 . S
C582 H594 0.960 . S
C582 H595 0.962 . S
C582 H596 0.960 . S
C583 C580 1.511 . S
C583 H597 0.961 . S
C583 H598 0.961 . S
C583 H599 0.961 1_556 S
C584 C585 1.370 1_556 S
C584 C586 1.363 . S
C584 H600 0.931 . S
C585 C584 1.370 1_554 S
C585 C589 1.408 . S
C586 C584 1.363 . S
C586 C587 1.370 . S
C586 C590 1.524 . S
C587 C579 1.503 . S
C587 C586 1.370 . S
C587 C588 1.403 1_556 S
C588 C587 1.403 1_554 S
C588 C589 1.404 . S
C588 C591 1.539 . S
C589 C585 1.408 . S
C589 C588 1.404 . S
C589 H601 0.930 . S
C590 C586 1.524 . S
C590 H602 0.956 . S
C590 H603 0.961 . S
C590 H604 0.961 . S
C591 C588 1.539 . S
C591 H605 0.958 . S
C591 H606 0.961 . S
C591 H607 0.960 . S
H592 C576 0.931 . S
H593 C581 0.929 . S
H594 C582 0.960 . S
H595 C582 0.962 . S
H596 C582 0.960 . S
H597 C583 0.961 . S
H598 C583 0.961 . S
H599 C583 0.961 1_554 S
H600 C584 0.931 . S
H601 C589 0.930 . S
H602 C590 0.956 . S
H603 C590 0.961 . S
H604 C590 0.961 . S
H605 C591 0.958 . S
H606 C591 0.961 . S
H607 C591 0.960 . S
C608 C609 1.391 . S
C608 C610 1.394 . S
C608 H624 0.931 . S
C609 C608 1.391 . S
C609 C613 1.376 . S
C610 C608 1.394 . S
C610 C611 1.369 . S
C610 C614 1.531 . S
C611 C610 1.369 . S
C611 C612 1.410 . S
C611 C619 1.503 . S
C612 C611 1.410 . S
C612 C613 1.392 . S
C612 C615 1.511 . S
C613 C609 1.376 . S
C613 C612 1.392 . S
C613 H625 0.929 . S
C614 C610 1.531 . S
C614 H626 0.960 . S
C614 H627 0.962 . S
C614 H628 0.960 . S
C615 C612 1.511 . S
C615 H629 0.961 . S
C615 H630 0.961 . S
C615 H631 0.961 . S
C616 C617 1.370 . S
C616 C618 1.363 . S
C616 H632 0.931 . S
C617 C616 1.370 . S
C617 C621 1.408 . S
C618 C616 1.363 . S
C618 C619 1.370 . S
C618 C622 1.524 . S
C619 C611 1.503 . S
C619 C618 1.370 . S
C619 C620 1.403 . S
C620 C619 1.403 . S
C620 C621 1.404 . S
C620 C623 1.539 . S
C621 C617 1.408 . S
C621 C620 1.404 . S
C621 H633 0.930 . S
C622 C618 1.524 . S
C622 H634 0.956 . S
C622 H635 0.961 . S
C622 H636 0.961 . S
C623 C620 1.539 . S
C623 H637 0.958 . S
C623 H638 0.961 . S
C623 H639 0.960 . S
H624 C608 0.931 . S
H625 C613 0.929 . S
H626 C614 0.960 . S
H627 C614 0.962 . S
H628 C614 0.960 . S
H629 C615 0.961 . S
H630 C615 0.961 . S
H631 C615 0.961 . S
H632 C616 0.931 . S
H633 C621 0.930 . S
H634 C622 0.956 . S
H635 C622 0.961 . S
H636 C622 0.961 . S
H637 C623 0.958 . S
H638 C623 0.961 . S
H639 C623 0.960 . S
C640 C641 1.391 . S
C640 C642 1.394 . S
C640 H656 0.931 . S
C641 C640 1.391 . S
C641 C645 1.376 . S
C642 C640 1.394 . S
C642 C643 1.369 . S
C642 C646 1.531 . S
C643 C642 1.369 . S
C643 C644 1.410 . S
C643 C651 1.503 . S
C644 C643 1.410 . S
C644 C645 1.392 . S
C644 C647 1.511 . S
C645 C641 1.376 . S
C645 C644 1.392 . S
C645 H657 0.929 . S
C646 C642 1.531 . S
C646 H658 0.960 . S
C646 H659 0.962 . S
C646 H660 0.960 . S
C647 C644 1.511 . S
C647 H661 0.961 . S
C647 H662 0.961 . S
C647 H663 0.961 . S
C648 C649 1.370 . S
C648 C650 1.363 . S
C648 H664 0.931 . S
C649 C648 1.370 . S
C649 C653 1.408 . S
C650 C648 1.363 . S
C650 C651 1.370 . S
C650 C654 1.524 . S
C651 C643 1.503 . S
C651 C650 1.370 . S
C651 C652 1.403 . S
C652 C651 1.403 . S
C652 C653 1.404 . S
C652 C655 1.539 . S
C653 C649 1.408 . S
C653 C652 1.404 . S
C653 H665 0.930 . S
C654 C650 1.524 . S
C654 H666 0.956 . S
C654 H667 0.961 . S
C654 H668 0.961 . S
C655 C652 1.539 . S
C655 H669 0.958 . S
C655 H670 0.961 . S
C655 H671 0.960 . S
H656 C640 0.931 . S
H657 C645 0.929 . S
H658 C646 0.960 . S
H659 C646 0.962 . S
H660 C646 0.960 . S
H661 C647 0.961 . S
H662 C647 0.961 . S
H663 C647 0.961 . S
H664 C648 0.931 . S
H665 C653 0.930 . S
H666 C654 0.956 . S
H667 C654 0.961 . S
H668 C654 0.961 . S
H669 C655 0.958 . S
H670 C655 0.961 . S
H671 C655 0.960 . S
C672 C673 1.391 . S
C672 C674 1.394 . S
C672 H688 0.931 . S
C673 C672 1.391 . S
C673 C677 1.376 . S
C674 C672 1.394 . S
C674 C675 1.369 . S
C674 C678 1.531 . S
C675 C674 1.369 . S
C675 C676 1.410 . S
C675 C683 1.503 . S
C676 C675 1.410 . S
C676 C677 1.392 . S
C676 C679 1.511 . S
C677 C673 1.376 . S
C677 C676 1.392 . S
C677 H689 0.929 . S
C678 C674 1.531 . S
C678 H690 0.960 . S
C678 H691 0.962 . S
C678 H692 0.960 . S
C679 C676 1.511 . S
C679 H693 0.961 . S
C679 H694 0.961 . S
C679 H695 0.961 . S
C680 C681 1.370 . S
C680 C682 1.363 . S
C680 H696 0.931 . S
C681 C680 1.370 . S
C681 C685 1.408 . S
C682 C680 1.363 . S
C682 C683 1.370 . S
C682 C686 1.524 . S
C683 C675 1.503 . S
C683 C682 1.370 . S
C683 C684 1.403 . S
C684 C683 1.403 . S
C684 C685 1.404 . S
C684 C687 1.539 . S
C685 C681 1.408 . S
C685 C684 1.404 . S
C685 H697 0.930 . S
C686 C682 1.524 . S
C686 H698 0.956 . S
C686 H699 0.961 . S
C686 H700 0.961 . S
C687 C684 1.539 . S
C687 H701 0.958 . S
C687 H702 0.961 . S
C687 H703 0.960 . S
H688 C672 0.931 . S
H689 C677 0.929 . S
H690 C678 0.960 . S
H691 C678 0.962 . S
H692 C678 0.960 . S
H693 C679 0.961 . S
H694 C679 0.961 . S
H695 C679 0.961 . S
H696 C680 0.931 . S
H697 C685 0.930 . S
H698 C686 0.956 . S
H699 C686 0.961 . S
H700 C686 0.961 . S
H701 C687 0.958 . S
H702 C687 0.961 . S
H703 C687 0.960 . S
C704 C705 1.391 . S
C704 C706 1.394 . S
C704 H720 0.931 . S
C705 C704 1.391 . S
C705 C709 1.376 . S
C706 C704 1.394 . S
C706 C707 1.369 . S
C706 C710 1.531 . S
C707 C706 1.369 . S
C707 C708 1.410 . S
C707 C715 1.503 . S
C708 C707 1.410 . S
C708 C709 1.392 . S
C708 C711 1.511 . S
C709 C705 1.376 . S
C709 C708 1.392 . S
C709 H721 0.929 . S
C710 C706 1.531 . S
C710 H722 0.960 . S
C710 H723 0.962 . S
C710 H724 0.960 . S
C711 C708 1.511 . S
C711 H725 0.961 . S
C711 H726 0.961 . S
C711 H727 0.961 . S
C712 C713 1.370 . S
C712 C714 1.363 . S
C712 H728 0.931 . S
C713 C712 1.370 . S
C713 C717 1.408 . S
C714 C712 1.363 . S
C714 C715 1.370 . S
C714 C718 1.524 . S
C715 C707 1.503 . S
C715 C714 1.370 . S
C715 C716 1.403 . S
C716 C715 1.403 . S
C716 C717 1.404 . S
C716 C719 1.539 . S
C717 C713 1.408 . S
C717 C716 1.404 . S
C717 H729 0.930 . S
C718 C714 1.524 . S
C718 H730 0.956 . S
C718 H731 0.961 . S
C718 H732 0.961 . S
C719 C716 1.539 . S
C719 H733 0.958 . S
C719 H734 0.961 . S
C719 H735 0.960 . S
H720 C704 0.931 . S
H721 C709 0.929 . S
H722 C710 0.960 . S
H723 C710 0.962 . S
H724 C710 0.960 . S
H725 C711 0.961 . S
H726 C711 0.961 . S
H727 C711 0.961 . S
H728 C712 0.931 . S
H729 C717 0.930 . S
H730 C718 0.956 . S
H731 C718 0.961 . S
H732 C718 0.961 . S
H733 C719 0.958 . S
H734 C719 0.961 . S
H735 C719 0.960 . S
C736 C737 1.391 . S
C736 C738 1.394 . S
C736 H752 0.931 . S
C737 C736 1.391 . S
C737 C741 1.376 . S
C738 C736 1.394 . S
C738 C739 1.369 1_565 S
C738 C742 1.531 1_565 S
C739 C738 1.369 1_545 S
C739 C740 1.410 1_545 S
C739 C747 1.503 . S
C740 C739 1.410 1_565 S
C740 C741 1.392 . S
C740 C743 1.511 . S
C741 C737 1.376 . S
C741 C740 1.392 . S
C741 H753 0.929 . S
C742 C738 1.531 1_545 S
C742 H754 0.960 . S
C742 H755 0.962 . S
C742 H756 0.960 . S
C743 C740 1.511 . S
C743 H757 0.961 . S
C743 H758 0.961 1_565 S
C743 H759 0.961 . S
C744 C745 1.370 . S
C744 C746 1.363 . S
C744 H760 0.931 . S
C745 C744 1.370 . S
C745 C749 1.408 . S
C746 C744 1.363 . S
C746 C747 1.370 . S
C746 C750 1.524 . S
C747 C739 1.503 . S
C747 C746 1.370 . S
C747 C748 1.403 . S
C748 C747 1.403 . S
C748 C749 1.404 . S
C748 C751 1.539 . S
C749 C745 1.408 . S
C749 C748 1.404 . S
C749 H761 0.930 . S
C750 C746 1.524 . S
C750 H762 0.956 . S
C750 H763 0.961 . S
C750 H764 0.961 . S
C751 C748 1.539 . S
C751 H765 0.958 . S
C751 H766 0.961 . S
C751 H767 0.956 1_545 S
H752 C736 0.931 . S
H753 C741 0.929 . S
H754 C742 0.960 . S
H755 C742 0.962 . S
H756 C742 0.960 . S
H757 C743 0.961 . S
H758 C743 0.961 1_545 S
H759 C743 0.961 . S
H760 C744 0.931 . S
H761 C749 0.930 . S
H762 C750 0.956 . S
H763 C750 0.961 . S
H764 C750 0.961 . S
H765 C751 0.958 . S
H766 C751 0.961 . S
H767 C751 0.956 1_565 S
C768 C769 1.391 . S
C768 C770 1.394 . S
C768 H784 0.931 . S
C769 C768 1.391 . S
C769 C773 1.376 . S
C770 C768 1.394 . S
C770 C771 1.369 . S
C770 C774 1.531 . S
C771 C770 1.369 . S
C771 C772 1.410 . S
C771 C779 1.503 . S
C772 C771 1.410 . S
C772 C773 1.392 . S
C772 C775 1.511 . S
C773 C769 1.376 . S
C773 C772 1.392 . S
C773 H785 0.929 . S
C774 C770 1.531 . S
C774 H786 0.960 1_455 S
C774 H787 0.962 . S
C774 H788 0.960 . S
C775 C772 1.511 . S
C775 H789 0.961 . S
C775 H790 0.961 . S
C775 H791 0.961 . S
C776 C777 1.370 . S
C776 C778 1.363 . S
C776 H792 0.931 . S
C777 C776 1.370 . S
C777 C781 1.408 . S
C778 C776 1.363 . S
C778 C779 1.370 1_655 S
C778 C782 1.524 1_655 S
C779 C771 1.503 . S
C779 C778 1.370 1_455 S
C779 C780 1.403 1_455 S
C780 C779 1.403 1_655 S
C780 C781 1.404 . S
C780 C783 1.539 1_655 S
C781 C777 1.408 . S
C781 C780 1.404 . S
C781 H793 0.930 . S
C782 C778 1.524 1_455 S
C782 H794 0.956 . S
C782 H795 0.961 . S
C782 H796 0.961 . S
C783 C780 1.539 1_455 S
C783 H797 0.956 1_455 S
C783 H798 0.961 1_455 S
C783 H799 0.960 . S
H784 C768 0.931 . S
H785 C773 0.929 . S
H786 C774 0.960 1_655 S
H787 C774 0.962 . S
H788 C774 0.960 . S
H789 C775 0.961 . S
H790 C775 0.961 . S
H791 C775 0.961 . S
H792 C776 0.931 . S
H793 C781 0.930 . S
H794 C782 0.956 . S
H795 C782 0.961 . S
H796 C782 0.961 . S
H797 C783 0.956 1_655 S
H798 C783 0.961 1_655 S
H799 C783 0.960 . S
C800 C801 1.391 . S
C800 C802 1.394 . S
C800 H816 0.931 . S
C801 C800 1.391 . S
C801 C805 1.376 . S
C802 C800 1.394 . S
C802 C803 1.369 . S
C802 C806 1.531 . S
C803 C802 1.369 . S
C803 C804 1.410 . S
C803 C811 1.503 . S
C804 C803 1.410 . S
C804 C805 1.392 . S
C804 C807 1.511 . S
C805 C801 1.376 . S
C805 C804 1.392 . S
C805 H817 0.929 . S
C806 C802 1.531 . S
C806 H818 0.960 . S
C806 H819 0.962 . S
C806 H820 0.960 . S
C807 C804 1.511 . S
C807 H821 0.961 . S
C807 H822 0.961 . S
C807 H823 0.961 . S
C808 C809 1.370 . S
C808 C810 1.363 . S
C808 H824 0.931 . S
C809 C808 1.370 . S
C809 C813 1.408 . S
C810 C808 1.363 . S
C810 C811 1.370 1_545 S
C810 C814 1.524 . S
C811 C803 1.503 . S
C811 C810 1.370 1_565 S
C811 C812 1.403 . S
C812 C811 1.403 . S
C812 C813 1.404 1_565 S
C812 C815 1.539 . S
C813 C809 1.408 . S
C813 C812 1.404 1_545 S
C813 H825 0.930 . S
C814 C810 1.524 . S
C814 H826 0.956 1_545 S
C814 H827 0.961 1_545 S
C814 H828 0.961 . S
C815 C812 1.539 . S
C815 H829 0.958 . S
C815 H830 0.961 . S
C815 H831 0.960 . S
H816 C800 0.931 . S
H817 C805 0.929 . S
H818 C806 0.960 . S
H819 C806 0.962 . S
H820 C806 0.960 . S
H821 C807 0.961 . S
H822 C807 0.961 . S
H823 C807 0.961 . S
H824 C808 0.931 . S
H825 C813 0.930 . S
H826 C814 0.956 1_565 S
H827 C814 0.961 1_565 S
H828 C814 0.961 . S
H829 C815 0.958 . S
H830 C815 0.961 . S
H831 C815 0.960 . S
C832 C833 1.391 . S
C832 C834 1.394 1_455 S
C832 H848 0.931 . S
C833 C832 1.391 . S
C833 C837 1.376 . S
C834 C832 1.394 1_655 S
C834 C835 1.369 . S
C834 C838 1.531 . S
C835 C834 1.369 . S
C835 C836 1.410 1_655 S
C835 C843 1.503 . S
C836 C835 1.410 1_455 S
C836 C837 1.392 . S
C836 C839 1.515 . S
C837 C833 1.376 . S
C837 C836 1.392 . S
C837 H849 0.929 . S
C838 C834 1.531 . S
C838 H850 0.960 . S
C838 H851 0.962 . S
C838 H852 0.960 . S
C839 C836 1.515 . S
C839 H853 0.974 . S
C839 H854 0.950 1_455 S
C839 H855 0.954 1_455 S
C840 C841 1.370 . S
C840 C842 1.363 . S
C840 H856 0.931 . S
C841 C840 1.370 . S
C841 C845 1.408 . S
C842 C840 1.363 . S
C842 C843 1.370 . S
C842 C846 1.524 . S
C843 C835 1.503 . S
C843 C842 1.370 . S
C843 C844 1.403 . S
C844 C843 1.403 . S
C844 C845 1.404 . S
C844 C847 1.539 . S
C845 C841 1.408 . S
C845 C844 1.404 . S
C845 H857 0.930 . S
C846 C842 1.524 . S
C846 H858 0.956 . S
C846 H859 0.961 . S
C846 H860 0.961 . S
C847 C844 1.539 . S
C847 H861 0.958 . S
C847 H862 0.961 . S
C847 H863 0.960 . S
H848 C832 0.931 . S
H849 C837 0.929 . S
H850 C838 0.960 . S
H851 C838 0.962 . S
H852 C838 0.960 . S
H853 C839 0.974 . S
H854 C839 0.950 1_655 S
H855 C839 0.954 1_655 S
H856 C840 0.931 . S
H857 C845 0.930 . S
H858 C846 0.956 . S
H859 C846 0.961 . S
H860 C846 0.961 . S
H861 C847 0.958 . S
H862 C847 0.961 . S
H863 C847 0.960 . S
C864 C865 1.391 . S
C864 C866 1.394 . S
C864 H880 0.931 . S
C865 C864 1.391 . S
C865 C869 1.376 . S
C866 C864 1.394 . S
C866 C867 1.369 . S
C866 C870 1.531 . S
C867 C866 1.369 . S
C867 C868 1.410 . S
C867 C875 1.503 . S
C868 C867 1.410 . S
C868 C869 1.392 . S
C868 C871 1.511 . S
C869 C865 1.376 . S
C869 C868 1.392 . S
C869 H881 0.929 . S
C870 C866 1.531 . S
C870 H882 0.960 . S
C870 H883 0.962 . S
C870 H884 0.960 . S
C871 C868 1.511 . S
C871 H885 0.961 . S
C871 H886 0.961 . S
C871 H887 0.961 . S
C872 C873 1.370 . S
C872 C874 1.363 . S
C872 H888 0.931 . S
C873 C872 1.370 . S
C873 C877 1.408 . S
C874 C872 1.363 . S
C874 C875 1.370 . S
C874 C878 1.524 . S
C875 C867 1.503 . S
C875 C874 1.370 . S
C875 C876 1.403 . S
C876 C875 1.403 . S
C876 C877 1.404 . S
C876 C879 1.539 . S
C877 C873 1.408 . S
C877 C876 1.404 . S
C877 H889 0.930 . S
C878 C874 1.524 . S
C878 H890 0.956 . S
C878 H891 0.961 . S
C878 H892 0.961 . S
C879 C876 1.539 . S
C879 H893 0.958 . S
C879 H894 0.961 . S
C879 H895 0.960 . S
H880 C864 0.931 . S
H881 C869 0.929 . S
H882 C870 0.960 . S
H883 C870 0.962 . S
H884 C870 0.960 . S
H885 C871 0.961 . S
H886 C871 0.961 . S
H887 C871 0.961 . S
H888 C872 0.931 . S
H889 C877 0.930 . S
H890 C878 0.956 . S
H891 C878 0.961 . S
H892 C878 0.961 . S
H893 C879 0.958 . S
H894 C879 0.961 . S
H895 C879 0.960 . S
C896 C897 1.391 . S
C896 C898 1.394 . S
C896 H912 0.931 . S
C897 C896 1.391 . S
C897 C901 1.376 . S
C898 C896 1.394 . S
C898 C899 1.369 . S
C898 C902 1.531 . S
C899 C898 1.369 . S
C899 C900 1.410 . S
C899 C907 1.503 . S
C900 C899 1.410 . S
C900 C901 1.392 . S
C900 C903 1.511 . S
C901 C897 1.376 . S
C901 C900 1.392 . S
C901 H913 0.929 . S
C902 C898 1.531 . S
C902 H914 0.960 . S
C902 H915 0.962 . S
C902 H916 0.960 . S
C903 C900 1.511 . S
C903 H917 0.961 . S
C903 H918 0.961 . S
C903 H919 0.961 . S
C904 C905 1.370 . S
C904 C906 1.363 . S
C904 H920 0.931 . S
C905 C904 1.370 . S
C905 C909 1.408 . S
C906 C904 1.363 . S
C906 C907 1.370 . S
C906 C910 1.524 . S
C907 C899 1.503 . S
C907 C906 1.370 . S
C907 C908 1.403 . S
C908 C907 1.403 . S
C908 C909 1.404 . S
C908 C911 1.539 . S
C909 C905 1.408 . S
C909 C908 1.404 . S
C909 H921 0.930 . S
C910 C906 1.524 . S
C910 H922 0.956 . S
C910 H923 0.961 . S
C910 H924 0.961 . S
C911 C908 1.539 . S
C911 H925 0.958 . S
C911 H926 0.961 . S
C911 H927 0.960 . S
H912 C896 0.931 . S
H913 C901 0.929 . S
H914 C902 0.960 . S
H915 C902 0.962 . S
H916 C902 0.960 . S
H917 C903 0.961 . S
H918 C903 0.961 . S
H919 C903 0.961 . S
H920 C904 0.931 . S
H921 C909 0.930 . S
H922 C910 0.956 . S
H923 C910 0.961 . S
H924 C910 0.961 . S
H925 C911 0.958 . S
H926 C911 0.961 . S
H927 C911 0.960 . S
C928 C929 1.391 . S
C928 C930 1.394 . S
C928 H944 0.931 . S
C929 C928 1.391 . S
C929 C933 1.376 . S
C930 C928 1.394 . S
C930 C931 1.369 . S
C930 C934 1.531 . S
C931 C930 1.369 . S
C931 C932 1.410 . S
C931 C939 1.503 . S
C932 C931 1.410 . S
C932 C933 1.392 . S
C932 C935 1.511 . S
C933 C929 1.376 . S
C933 C932 1.392 . S
C933 H945 0.929 . S
C934 C930 1.531 . S
C934 H946 0.960 . S
C934 H947 0.962 . S
C934 H948 0.960 . S
C935 C932 1.511 . S
C935 H949 0.961 . S
C935 H950 0.961 . S
C935 H951 0.961 . S
C936 C937 1.370 . S
C936 C938 1.363 . S
C936 H952 0.931 . S
C937 C936 1.370 . S
C937 C941 1.408 . S
C938 C936 1.363 . S
C938 C939 1.370 . S
C938 C942 1.524 . S
C939 C931 1.503 . S
C939 C938 1.370 . S
C939 C940 1.403 . S
C940 C939 1.403 . S
C940 C941 1.404 . S
C940 C943 1.539 . S
C941 C937 1.408 . S
C941 C940 1.404 . S
C941 H953 0.930 . S
C942 C938 1.524 . S
C942 H954 0.956 . S
C942 H955 0.961 . S
C942 H956 0.961 . S
C943 C940 1.539 . S
C943 H957 0.958 . S
C943 H958 0.961 . S
C943 H959 0.960 . S
H944 C928 0.931 . S
H945 C933 0.929 . S
H946 C934 0.960 . S
H947 C934 0.962 . S
H948 C934 0.960 . S
H949 C935 0.961 . S
H950 C935 0.961 . S
H951 C935 0.961 . S
H952 C936 0.931 . S
H953 C941 0.930 . S
H954 C942 0.956 . S
H955 C942 0.961 . S
H956 C942 0.961 . S
H957 C943 0.958 . S
H958 C943 0.961 . S
H959 C943 0.960 . S
C960 C961 1.391 . S
C960 C962 1.394 . S
C960 H976 0.931 . S
C961 C960 1.391 . S
C961 C965 1.376 . S
C962 C960 1.394 . S
C962 C963 1.369 . S
C962 C966 1.531 . S
C963 C962 1.369 . S
C963 C964 1.410 . S
C963 C971 1.503 . S
C964 C963 1.410 . S
C964 C965 1.392 . S
C964 C967 1.511 . S
C965 C961 1.376 . S
C965 C964 1.392 . S
C965 H977 0.929 . S
C966 C962 1.531 . S
C966 H978 0.960 . S
C966 H979 0.962 . S
C966 H980 0.960 . S
C967 C964 1.511 . S
C967 H981 0.961 . S
C967 H982 0.961 . S
C967 H983 0.961 . S
C968 C969 1.370 . S
C968 C970 1.363 . S
C968 H984 0.931 . S
C969 C968 1.370 . S
C969 C973 1.408 . S
C970 C968 1.363 . S
C970 C971 1.370 . S
C970 C974 1.524 . S
C971 C963 1.503 . S
C971 C970 1.370 . S
C971 C972 1.403 . S
C972 C971 1.403 . S
C972 C973 1.404 . S
C972 C975 1.539 . S
C973 C969 1.408 . S
C973 C972 1.404 . S
C973 H985 0.930 . S
C974 C970 1.524 . S
C974 H986 0.956 . S
C974 H987 0.961 . S
C974 H988 0.961 . S
C975 C972 1.539 . S
C975 H989 0.958 . S
C975 H990 0.961 . S
C975 H991 0.960 . S
H976 C960 0.931 . S
H977 C965 0.929 . S
H978 C966 0.960 . S
H979 C966 0.962 . S
H980 C966 0.960 . S
H981 C967 0.961 . S
H982 C967 0.961 . S
H983 C967 0.961 . S
H984 C968 0.931 . S
H985 C973 0.930 . S
H986 C974 0.956 . S
H987 C974 0.961 . S
H988 C974 0.961 . S
H989 C975 0.958 . S
H990 C975 0.961 . S
H991 C975 0.960 . S
C992 C993 1.391 . S
C992 C994 1.394 . S
C992 H1008 0.931 . S
C993 C992 1.391 . S
C993 C997 1.376 . S
C994 C992 1.394 . S
C994 C995 1.369 . S
C994 C998 1.531 . S
C995 C994 1.369 . S
C995 C996 1.410 . S
C995 C1003 1.503 . S
C996 C995 1.410 . S
C996 C997 1.392 . S
C996 C999 1.511 . S
C997 C993 1.376 . S
C997 C996 1.392 . S
C997 H1009 0.929 . S
C998 C994 1.531 . S
C998 H1010 0.960 . S
C998 H1011 0.962 . S
C998 H1012 0.960 . S
C999 C996 1.511 . S
C999 H1013 0.961 . S
C999 H1014 0.961 . S
C999 H1015 0.961 . S
C1000 C1001 1.370 . S
C1000 C1002 1.363 . S
C1000 H1016 0.931 . S
C1001 C1000 1.370 . S
C1001 C1005 1.408 . S
C1002 C1000 1.363 . S
C1002 C1003 1.370 . S
C1002 C1006 1.524 . S
C1003 C995 1.503 . S
C1003 C1002 1.370 . S
C1003 C1004 1.403 . S
C1004 C1003 1.403 . S
C1004 C1005 1.404 . S
C1004 C1007 1.539 . S
C1005 C1001 1.408 . S
C1005 C1004 1.404 . S
C1005 H1017 0.930 . S
C1006 C1002 1.524 . S
C1006 H1018 0.956 . S
C1006 H1019 0.961 . S
C1006 H1020 0.961 . S
C1007 C1004 1.539 . S
C1007 H1021 0.958 . S
C1007 H1022 0.961 . S
C1007 H1023 0.960 . S
H1008 C992 0.931 . S
H1009 C997 0.929 . S
H1010 C998 0.960 . S
H1011 C998 0.962 . S
H1012 C998 0.960 . S
H1013 C999 0.961 . S
H1014 C999 0.961 . S
H1015 C999 0.961 . S
H1016 C1000 0.931 . S
H1017 C1005 0.930 . S
H1018 C1006 0.956 . S
H1019 C1006 0.961 . S
H1020 C1006 0.961 . S
H1021 C1007 0.958 . S
H1022 C1007 0.961 . S
H1023 C1007 0.960 . S
C1024 C1025 1.391 . S
C1024 C1026 1.394 . S
C1024 H1040 0.931 . S
C1025 C1024 1.391 . S
C1025 C1029 1.376 . S
C1026 C1024 1.394 . S
C1026 C1027 1.369 . S
C1026 C1030 1.531 . S
C1027 C1026 1.369 . S
C1027 C1028 1.410 . S
C1027 C1035 1.503 . S
C1028 C1027 1.410 . S
C1028 C1029 1.392 . S
C1028 C1031 1.511 . S
C1029 C1025 1.376 . S
C1029 C1028 1.392 . S
C1029 H1041 0.929 . S
C1030 C1026 1.531 . S
C1030 H1042 0.960 . S
C1030 H1043 0.962 . S
C1030 H1044 0.960 . S
C1031 C1028 1.511 . S
C1031 H1045 0.961 . S
C1031 H1046 0.961 . S
C1031 H1047 0.961 . S
C1032 C1033 1.370 . S
C1032 C1034 1.363 . S
C1032 H1048 0.931 . S
C1033 C1032 1.370 . S
C1033 C1037 1.408 . S
C1034 C1032 1.363 . S
C1034 C1035 1.370 . S
C1034 C1038 1.524 . S
C1035 C1027 1.503 . S
C1035 C1034 1.370 . S
C1035 C1036 1.403 . S
C1036 C1035 1.403 . S
C1036 C1037 1.404 . S
C1036 C1039 1.539 . S
C1037 C1033 1.408 . S
C1037 C1036 1.404 . S
C1037 H1049 0.930 . S
C1038 C1034 1.524 . S
C1038 H1050 0.956 . S
C1038 H1051 0.961 . S
C1038 H1052 0.961 . S
C1039 C1036 1.539 . S
C1039 H1053 0.958 . S
C1039 H1054 0.961 . S
C1039 H1055 0.960 . S
H1040 C1024 0.931 . S
H1041 C1029 0.929 . S
H1042 C1030 0.960 . S
H1043 C1030 0.962 . S
H1044 C1030 0.960 . S
H1045 C1031 0.961 . S
H1046 C1031 0.961 . S
H1047 C1031 0.961 . S
H1048 C1032 0.931 . S
H1049 C1037 0.930 . S
H1050 C1038 0.956 . S
H1051 C1038 0.961 . S
H1052 C1038 0.961 . S
H1053 C1039 0.958 . S
H1054 C1039 0.961 . S
H1055 C1039 0.960 . S
C1056 C1057 1.391 . S
C1056 C1058 1.394 . S
C1056 H1072 0.931 . S
C1057 C1056 1.391 . S
C1057 C1061 1.376 . S
C1058 C1056 1.394 . S
C1058 C1059 1.369 . S
C1058 C1062 1.531 . S
C1059 C1058 1.369 . S
C1059 C1060 1.410 . S
C1059 C1067 1.503 . S
C1060 C1059 1.410 . S
C1060 C1061 1.392 . S
C1060 C1063 1.511 . S
C1061 C1057 1.376 . S
C1061 C1060 1.392 . S
C1061 H1073 0.929 . S
C1062 C1058 1.531 . S
C1062 H1074 0.960 . S
C1062 H1075 0.962 . S
C1062 H1076 0.960 . S
C1063 C1060 1.511 . S
C1063 H1077 0.961 . S
C1063 H1078 0.961 . S
C1063 H1079 0.961 . S
C1064 C1065 1.370 . S
C1064 C1066 1.363 . S
C1064 H1080 0.931 . S
C1065 C1064 1.370 . S
C1065 C1069 1.408 . S
C1066 C1064 1.363 . S
C1066 C1067 1.370 . S
C1066 C1070 1.524 . S
C1067 C1059 1.503 . S
C1067 C1066 1.370 . S
C1067 C1068 1.403 . S
C1068 C1067 1.403 . S
C1068 C1069 1.404 . S
C1068 C1071 1.539 . S
C1069 C1065 1.408 . S
C1069 C1068 1.404 . S
C1069 H1081 0.930 . S
C1070 C1066 1.524 . S
C1070 H1082 0.956 . S
C1070 H1083 0.961 . S
C1070 H1084 0.961 . S
C1071 C1068 1.539 . S
C1071 H1085 0.958 . S
C1071 H1086 0.961 . S
C1071 H1087 0.960 . S
H1072 C1056 0.931 . S
H1073 C1061 0.929 . S
H1074 C1062 0.960 . S
H1075 C1062 0.962 . S
H1076 C1062 0.960 . S
H1077 C1063 0.961 . S
H1078 C1063 0.961 . S
H1079 C1063 0.961 . S
H1080 C1064 0.931 . S
H1081 C1069 0.930 . S
H1082 C1070 0.956 . S
H1083 C1070 0.961 . S
H1084 C1070 0.961 . S
H1085 C1071 0.958 . S
H1086 C1071 0.961 . S
H1087 C1071 0.960 . S
C1088 C1089 1.391 . S
C1088 C1090 1.394 . S
C1088 H1104 0.931 . S
C1089 C1088 1.391 . S
C1089 C1093 1.376 . S
C1090 C1088 1.394 . S
C1090 C1091 1.369 . S
C1090 C1094 1.531 . S
C1091 C1090 1.369 . S
C1091 C1092 1.410 . S
C1091 C1099 1.503 . S
C1092 C1091 1.410 . S
C1092 C1093 1.392 . S
C1092 C1095 1.511 . S
C1093 C1089 1.376 . S
C1093 C1092 1.392 . S
C1093 H1105 0.929 . S
C1094 C1090 1.531 . S
C1094 H1106 0.960 . S
C1094 H1107 0.962 . S
C1094 H1108 0.960 . S
C1095 C1092 1.511 . S
C1095 H1109 0.961 . S
C1095 H1110 0.961 . S
C1095 H1111 0.961 . S
C1096 C1097 1.370 . S
C1096 C1098 1.363 . S
C1096 H1112 0.931 . S
C1097 C1096 1.370 . S
C1097 C1101 1.408 . S
C1098 C1096 1.363 . S
C1098 C1099 1.370 . S
C1098 C1102 1.524 . S
C1099 C1091 1.503 . S
C1099 C1098 1.370 . S
C1099 C1100 1.403 . S
C1100 C1099 1.403 . S
C1100 C1101 1.404 . S
C1100 C1103 1.539 . S
C1101 C1097 1.408 . S
C1101 C1100 1.404 . S
C1101 H1113 0.930 . S
C1102 C1098 1.524 . S
C1102 H1114 0.956 . S
C1102 H1115 0.961 . S
C1102 H1116 0.961 . S
C1103 C1100 1.539 . S
C1103 H1117 0.958 . S
C1103 H1118 0.961 . S
C1103 H1119 0.960 . S
H1104 C1088 0.931 . S
H1105 C1093 0.929 . S
H1106 C1094 0.960 . S
H1107 C1094 0.962 . S
H1108 C1094 0.960 . S
H1109 C1095 0.961 . S
H1110 C1095 0.961 . S
H1111 C1095 0.961 . S
H1112 C1096 0.931 . S
H1113 C1101 0.930 . S
H1114 C1102 0.956 . S
H1115 C1102 0.961 . S
H1116 C1102 0.961 . S
H1117 C1103 0.958 . S
H1118 C1103 0.961 . S
H1119 C1103 0.960 . S
C1120 C1121 1.391 . S
C1120 C1122 1.394 . S
C1120 H1136 0.931 . S
C1121 C1120 1.391 . S
C1121 C1125 1.376 . S
C1122 C1120 1.394 . S
C1122 C1123 1.369 . S
C1122 C1126 1.531 . S
C1123 C1122 1.369 . S
C1123 C1124 1.410 . S
C1123 C1131 1.503 . S
C1124 C1123 1.410 . S
C1124 C1125 1.392 . S
C1124 C1127 1.511 . S
C1125 C1121 1.376 . S
C1125 C1124 1.392 . S
C1125 H1137 0.929 . S
C1126 C1122 1.531 . S
C1126 H1138 0.960 . S
C1126 H1139 0.962 . S
C1126 H1140 0.960 . S
C1127 C1124 1.511 . S
C1127 H1141 0.961 . S
C1127 H1142 0.961 . S
C1127 H1143 0.961 . S
C1128 C1129 1.370 . S
C1128 C1130 1.363 . S
C1128 H1144 0.931 . S
C1129 C1128 1.370 . S
C1129 C1133 1.408 . S
C1130 C1128 1.363 . S
C1130 C1131 1.370 . S
C1130 C1134 1.524 . S
C1131 C1123 1.503 . S
C1131 C1130 1.370 . S
C1131 C1132 1.403 . S
C1132 C1131 1.403 . S
C1132 C1133 1.404 . S
C1132 C1135 1.539 . S
C1133 C1129 1.408 . S
C1133 C1132 1.404 . S
C1133 H1145 0.930 . S
C1134 C1130 1.524 . S
C1134 H1146 0.956 . S
C1134 H1147 0.961 . S
C1134 H1148 0.961 . S
C1135 C1132 1.539 . S
C1135 H1149 0.958 . S
C1135 H1150 0.961 . S
C1135 H1151 0.960 . S
H1136 C1120 0.931 . S
H1137 C1125 0.929 . S
H1138 C1126 0.960 . S
H1139 C1126 0.962 . S
H1140 C1126 0.960 . S
H1141 C1127 0.961 . S
H1142 C1127 0.961 . S
H1143 C1127 0.961 . S
H1144 C1128 0.931 . S
H1145 C1133 0.930 . S
H1146 C1134 0.956 . S
H1147 C1134 0.961 . S
H1148 C1134 0.961 . S
H1149 C1135 0.958 . S
H1150 C1135 0.961 . S
H1151 C1135 0.960 . S
C1152 C1153 1.391 . S
C1152 C1154 1.394 . S
C1152 H1168 0.931 . S
C1153 C1152 1.391 . S
C1153 C1157 1.376 . S
C1154 C1152 1.394 . S
C1154 C1155 1.369 . S
C1154 C1158 1.531 . S
C1155 C1154 1.369 . S
C1155 C1156 1.410 . S
C1155 C1163 1.503 . S
C1156 C1155 1.410 . S
C1156 C1157 1.392 . S
C1156 C1159 1.511 . S
C1157 C1153 1.376 . S
C1157 C1156 1.392 . S
C1157 H1169 0.929 . S
C1158 C1154 1.531 . S
C1158 H1170 0.960 . S
C1158 H1171 0.962 . S
C1158 H1172 0.960 . S
C1159 C1156 1.511 . S
C1159 H1173 0.961 . S
C1159 H1174 0.961 . S
C1159 H1175 0.961 . S
C1160 C1161 1.370 . S
C1160 C1162 1.363 . S
C1160 H1176 0.931 . S
C1161 C1160 1.370 . S
C1161 C1165 1.408 . S
C1162 C1160 1.363 . S
C1162 C1163 1.370 . S
C1162 C1166 1.524 . S
C1163 C1155 1.503 . S
C1163 C1162 1.370 . S
C1163 C1164 1.403 . S
C1164 C1163 1.403 . S
C1164 C1165 1.404 . S
C1164 C1167 1.539 . S
C1165 C1161 1.408 . S
C1165 C1164 1.404 . S
C1165 H1177 0.930 . S
C1166 C1162 1.524 . S
C1166 H1178 0.956 . S
C1166 H1179 0.961 . S
C1166 H1180 0.961 . S
C1167 C1164 1.539 . S
C1167 H1181 0.958 . S
C1167 H1182 0.961 . S
C1167 H1183 0.960 . S
H1168 C1152 0.931 . S
H1169 C1157 0.929 . S
H1170 C1158 0.960 . S
H1171 C1158 0.962 . S
H1172 C1158 0.960 . S
H1173 C1159 0.961 . S
H1174 C1159 0.961 . S
H1175 C1159 0.961 . S
H1176 C1160 0.931 . S
H1177 C1165 0.930 . S
H1178 C1166 0.956 . S
H1179 C1166 0.961 . S
H1180 C1166 0.961 . S
H1181 C1167 0.958 . S
H1182 C1167 0.961 . S
H1183 C1167 0.960 . S
C1184 C1185 1.391 . S
C1184 C1186 1.394 . S
C1184 H1200 0.931 . S
C1185 C1184 1.391 . S
C1185 C1189 1.376 . S
C1186 C1184 1.394 . S
C1186 C1187 1.369 . S
C1186 C1190 1.531 . S
C1187 C1186 1.369 . S
C1187 C1188 1.410 . S
C1187 C1195 1.503 . S
C1188 C1187 1.410 . S
C1188 C1189 1.392 . S
C1188 C1191 1.511 . S
C1189 C1185 1.376 . S
C1189 C1188 1.392 . S
C1189 H1201 0.929 . S
C1190 C1186 1.531 . S
C1190 H1202 0.960 . S
C1190 H1203 0.962 . S
C1190 H1204 0.960 . S
C1191 C1188 1.511 . S
C1191 H1205 0.961 . S
C1191 H1206 0.961 . S
C1191 H1207 0.961 . S
C1192 C1193 1.370 . S
C1192 C1194 1.363 . S
C1192 H1208 0.931 . S
C1193 C1192 1.370 . S
C1193 C1197 1.408 . S
C1194 C1192 1.363 . S
C1194 C1195 1.370 . S
C1194 C1198 1.524 . S
C1195 C1187 1.503 . S
C1195 C1194 1.370 . S
C1195 C1196 1.403 . S
C1196 C1195 1.403 . S
C1196 C1197 1.404 . S
C1196 C1199 1.539 . S
C1197 C1193 1.408 . S
C1197 C1196 1.404 . S
C1197 H1209 0.930 . S
C1198 C1194 1.524 . S
C1198 H1210 0.956 . S
C1198 H1211 0.961 . S
C1198 H1212 0.961 . S
C1199 C1196 1.539 . S
C1199 H1213 0.958 . S
C1199 H1214 0.961 . S
C1199 H1215 0.960 . S
H1200 C1184 0.931 . S
H1201 C1189 0.929 . S
H1202 C1190 0.960 . S
H1203 C1190 0.962 . S
H1204 C1190 0.960 . S
H1205 C1191 0.961 . S
H1206 C1191 0.961 . S
H1207 C1191 0.961 . S
H1208 C1192 0.931 . S
H1209 C1197 0.930 . S
H1210 C1198 0.956 . S
H1211 C1198 0.961 . S
H1212 C1198 0.961 . S
H1213 C1199 0.958 . S
H1214 C1199 0.961 . S
H1215 C1199 0.960 . S
C1216 C1217 1.391 . S
C1216 C1218 1.394 . S
C1216 H1232 0.931 . S
C1217 C1216 1.391 . S
C1217 C1221 1.376 . S
C1218 C1216 1.394 . S
C1218 C1219 1.369 . S
C1218 C1222 1.531 . S
C1219 C1218 1.369 . S
C1219 C1220 1.410 . S
C1219 C1227 1.503 . S
C1220 C1219 1.410 . S
C1220 C1221 1.392 . S
C1220 C1223 1.511 . S
C1221 C1217 1.376 . S
C1221 C1220 1.392 . S
C1221 H1233 0.929 . S
C1222 C1218 1.531 . S
C1222 H1234 0.960 . S
C1222 H1235 0.962 . S
C1222 H1236 0.960 . S
C1223 C1220 1.511 . S
C1223 H1237 0.961 . S
C1223 H1238 0.961 . S
C1223 H1239 0.961 . S
C1224 C1225 1.370 . S
C1224 C1226 1.363 . S
C1224 H1240 0.931 . S
C1225 C1224 1.370 . S
C1225 C1229 1.408 . S
C1226 C1224 1.363 . S
C1226 C1227 1.370 . S
C1226 C1230 1.524 . S
C1227 C1219 1.503 . S
C1227 C1226 1.370 . S
C1227 C1228 1.403 . S
C1228 C1227 1.403 . S
C1228 C1229 1.404 . S
C1228 C1231 1.539 . S
C1229 C1225 1.408 . S
C1229 C1228 1.404 . S
C1229 H1241 0.930 . S
C1230 C1226 1.524 . S
C1230 H1242 0.956 . S
C1230 H1243 0.961 . S
C1230 H1244 0.961 . S
C1231 C1228 1.539 . S
C1231 H1245 0.958 . S
C1231 H1246 0.961 . S
C1231 H1247 0.960 . S
H1232 C1216 0.931 . S
H1233 C1221 0.929 . S
H1234 C1222 0.960 . S
H1235 C1222 0.962 . S
H1236 C1222 0.960 . S
H1237 C1223 0.961 . S
H1238 C1223 0.961 . S
H1239 C1223 0.961 . S
H1240 C1224 0.931 . S
H1241 C1229 0.930 . S
H1242 C1230 0.956 . S
H1243 C1230 0.961 . S
H1244 C1230 0.961 . S
H1245 C1231 0.958 . S
H1246 C1231 0.961 . S
H1247 C1231 0.960 . S
C1248 C1249 1.391 . S
C1248 C1250 1.394 . S
C1248 H1264 0.931 . S
C1249 C1248 1.391 . S
C1249 C1253 1.376 . S
C1250 C1248 1.394 . S
C1250 C1251 1.369 . S
C1250 C1254 1.531 . S
C1251 C1250 1.369 . S
C1251 C1252 1.410 . S
C1251 C1259 1.503 . S
C1252 C1251 1.410 . S
C1252 C1253 1.392 . S
C1252 C1255 1.511 1_556 S
C1253 C1249 1.376 . S
C1253 C1252 1.392 . S
C1253 H1265 0.929 . S
C1254 C1250 1.531 . S
C1254 H1266 0.960 . S
C1254 H1267 0.962 . S
C1254 H1268 0.960 . S
C1255 C1252 1.511 1_554 S
C1255 H1269 0.951 1_554 S
C1255 H1270 0.961 . S
C1255 H1271 0.961 . S
C1256 C1257 1.370 1_556 S
C1256 C1258 1.363 . S
C1256 H1272 0.931 . S
C1257 C1256 1.370 1_554 S
C1257 C1261 1.408 . S
C1258 C1256 1.363 . S
C1258 C1259 1.370 1_565 S
C1258 C1262 1.524 . S
C1259 C1251 1.503 . S
C1259 C1258 1.370 1_545 S
C1259 C1260 1.403 1_556 S
C1260 C1259 1.403 1_554 S
C1260 C1261 1.404 1_545 S
C1260 C1263 1.539 . S
C1261 C1257 1.408 . S
C1261 C1260 1.404 1_565 S
C1261 H1273 0.930 . S
C1262 C1258 1.524 . S
C1262 H1274 0.956 1_565 S
C1262 H1275 0.961 1_565 S
C1262 H1276 0.961 . S
C1263 C1260 1.539 . S
C1263 H1277 0.958 . S
C1263 H1278 0.961 . S
C1263 H1279 0.960 . S
H1264 C1248 0.931 . S
H1265 C1253 0.929 . S
H1266 C1254 0.960 . S
H1267 C1254 0.962 . S
H1268 C1254 0.960 . S
H1269 C1255 0.951 1_556 S
H1270 C1255 0.961 . S
H1271 C1255 0.961 . S
H1272 C1256 0.931 . S
H1273 C1261 0.930 . S
H1274 C1262 0.956 1_545 S
H1275 C1262 0.961 1_545 S
H1276 C1262 0.961 . S
H1277 C1263 0.958 . S
H1278 C1263 0.961 . S
H1279 C1263 0.960 . S
C1280 C1281 1.391 . S
C1280 C1282 1.394 . S
C1280 H1296 0.931 . S
C1281 C1280 1.391 . S
C1281 C1285 1.376 . S
C1282 C1280 1.394 . S
C1282 C1283 1.369 . S
C1282 C1286 1.531 . S
C1283 C1282 1.369 . S
C1283 C1284 1.410 . S
C1283 C1291 1.503 . S
C1284 C1283 1.410 . S
C1284 C1285 1.392 . S
C1284 C1287 1.511 . S
C1285 C1281 1.376 . S
C1285 C1284 1.392 . S
C1285 H1297 0.929 . S
C1286 C1282 1.531 . S
C1286 H1298 0.960 . S
C1286 H1299 0.962 1_554 S
C1286 H1300 0.960 . S
C1287 C1284 1.511 . S
C1287 H1301 0.961 . S
C1287 H1302 0.961 . S
C1287 H1303 0.961 . S
C1288 C1289 1.370 . S
C1288 C1290 1.363 1_655 S
C1288 H1304 0.931 . S
C1289 C1288 1.370 . S
C1289 C1293 1.408 1_556 S
C1290 C1288 1.363 1_455 S
C1290 C1291 1.370 1_556 S
C1290 C1294 1.524 . S
C1291 C1283 1.503 . S
C1291 C1290 1.370 1_554 S
C1291 C1292 1.403 1_455 S
C1292 C1291 1.403 1_655 S
C1292 C1293 1.404 . S
C1292 C1295 1.539 . S
C1293 C1289 1.408 1_554 S
C1293 C1292 1.404 . S
C1293 H1305 0.930 . S
C1294 C1290 1.524 . S
C1294 H1306 0.956 . S
C1294 H1307 0.961 . S
C1294 H1308 0.961 . S
C1295 C1292 1.539 . S
C1295 H1309 0.950 1_655 S
C1295 H1310 0.961 . S
C1295 H1311 0.960 1_655 S
H1296 C1280 0.931 . S
H1297 C1285 0.929 . S
H1298 C1286 0.960 . S
H1299 C1286 0.962 1_556 S
H1300 C1286 0.960 . S
H1301 C1287 0.961 . S
H1302 C1287 0.961 . S
H1303 C1287 0.961 . S
H1304 C1288 0.931 . S
H1305 C1293 0.930 . S
H1306 C1294 0.956 . S
H1307 C1294 0.961 . S
H1308 C1294 0.961 . S
H1309 C1295 0.950 1_455 S
H1310 C1295 0.961 . S
H1311 C1295 0.960 1_455 S
C1312 C1313 1.391 1_556 S
C1312 C1314 1.394 . S
C1312 H1328 0.931 . S
C1313 C1312 1.391 1_554 S
C1313 C1317 1.376 . S
C1314 C1312 1.394 . S
C1314 C1315 1.369 1_545 S
C1314 C1318 1.531 . S
C1315 C1314 1.369 1_565 S
C1315 C1316 1.410 1_556 S
C1315 C1323 1.503 . S
C1316 C1315 1.410 1_554 S
C1316 C1317 1.392 1_565 S
C1316 C1319 1.511 . S
C1317 C1313 1.376 . S
C1317 C1316 1.392 1_545 S
C1317 H1329 0.929 . S
C1318 C1314 1.531 . S
C1318 H1330 0.960 1_545 S
C1318 H1331 0.962 . S
C1318 H1332 0.960 . S
C1319 C1316 1.511 . S
C1319 H1333 0.961 . S
C1319 H1334 0.961 . S
C1319 H1335 0.961 . S
C1320 C1321 1.370 . S
C1320 C1322 1.363 . S
C1320 H1336 0.931 . S
C1321 C1320 1.370 . S
C1321 C1325 1.408 . S
C1322 C1320 1.363 . S
C1322 C1323 1.370 . S
C1322 C1326 1.524 . S
C1323 C1315 1.503 . S
C1323 C1322 1.370 . S
C1323 C1324 1.403 . S
C1324 C1323 1.403 . S
C1324 C1325 1.404 . S
C1324 C1327 1.539 1_556 S
C1325 C1321 1.408 . S
C1325 C1324 1.404 . S
C1325 H1337 0.930 . S
C1326 C1322 1.524 . S
C1326 H1338 0.956 . S
C1326 H1339 0.961 . S
C1326 H1340 0.961 . S
C1327 C1324 1.539 1_554 S
C1327 H1341 0.958 . S
C1327 H1342 0.961 . S
C1327 H1343 0.960 . S
H1328 C1312 0.931 . S
H1329 C1317 0.929 . S
H1330 C1318 0.960 1_565 S
H1331 C1318 0.962 . S
H1332 C1318 0.960 . S
H1333 C1319 0.961 . S
H1334 C1319 0.961 . S
H1335 C1319 0.961 . S
H1336 C1320 0.931 . S
H1337 C1325 0.930 . S
H1338 C1326 0.956 . S
H1339 C1326 0.961 . S
H1340 C1326 0.961 . S
H1341 C1327 0.958 . S
H1342 C1327 0.961 . S
H1343 C1327 0.960 . S
C1344 C1345 1.391 1_554 S
C1344 C1346 1.394 . S
C1344 H1360 0.931 . S
C1345 C1344 1.391 1_556 S
C1345 C1349 1.376 . S
C1346 C1344 1.394 . S
C1346 C1347 1.369 1_455 S
C1346 C1350 1.531 . S
C1347 C1346 1.369 1_655 S
C1347 C1348 1.410 . S
C1347 C1355 1.503 . S
C1348 C1347 1.410 . S
C1348 C1349 1.392 1_654 S
C1348 C1351 1.511 . S
C1349 C1345 1.376 . S
C1349 C1348 1.392 1_456 S
C1349 H1361 0.929 . S
C1350 C1346 1.531 . S
C1350 H1362 0.960 1_455 S
C1350 H1363 0.962 . S
C1350 H1364 0.960 . S
C1351 C1348 1.511 . S
C1351 H1365 0.961 1_554 S
C1351 H1366 0.961 . S
C1351 H1367 0.961 . S
C1352 C1353 1.370 . S
C1352 C1354 1.363 . S
C1352 H1368 0.931 . S
C1353 C1352 1.370 . S
C1353 C1357 1.408 . S
C1354 C1352 1.363 . S
C1354 C1355 1.370 . S
C1354 C1358 1.524 1_554 S
C1355 C1347 1.503 . S
C1355 C1354 1.370 . S
C1355 C1356 1.403 . S
C1356 C1355 1.403 . S
C1356 C1357 1.404 . S
C1356 C1359 1.539 . S
C1357 C1353 1.408 . S
C1357 C1356 1.404 . S
C1357 H1369 0.930 . S
C1358 C1354 1.524 1_556 S
C1358 H1370 0.956 . S
C1358 H1371 0.961 . S
C1358 H1372 0.961 . S
C1359 C1356 1.539 . S
C1359 H1373 0.958 . S
C1359 H1374 0.961 . S
C1359 H1375 0.960 . S
H1360 C1344 0.931 . S
H1361 C1349 0.929 . S
H1362 C1350 0.960 1_655 S
H1363 C1350 0.962 . S
H1364 C1350 0.960 . S
H1365 C1351 0.961 1_556 S
H1366 C1351 0.961 . S
H1367 C1351 0.961 . S
H1368 C1352 0.931 . S
H1369 C1357 0.930 . S
H1370 C1358 0.956 . S
H1371 C1358 0.961 . S
H1372 C1358 0.961 . S
H1373 C1359 0.958 . S
H1374 C1359 0.961 . S
H1375 C1359 0.960 . S
C1376 C1377 1.391 . S
C1376 C1378 1.394 . S
C1376 H1392 0.931 . S
C1377 C1376 1.391 . S
C1377 C1381 1.376 . S
C1378 C1376 1.394 . S
C1378 C1379 1.369 1_545 S
C1378 C1382 1.531 1_545 S
C1379 C1378 1.369 1_565 S
C1379 C1380 1.410 1_565 S
C1379 C1387 1.503 . S
C1380 C1379 1.410 1_545 S
C1380 C1381 1.392 . S
C1380 C1383 1.511 1_545 S
C1381 C1377 1.376 . S
C1381 C1380 1.392 . S
C1381 H1393 0.929 . S
C1382 C1378 1.531 1_565 S
C1382 H1394 0.960 . S
C1382 H1395 0.962 . S
C1382 H1396 0.960 1_565 S
C1383 C1380 1.511 1_565 S
C1383 H1397 0.961 1_565 S
C1383 H1398 0.961 . S
C1383 H1399 0.961 1_565 S
C1384 C1385 1.370 . S
C1384 C1386 1.363 . S
C1384 H1400 0.931 . S
C1385 C1384 1.370 . S
C1385 C1389 1.408 . S
C1386 C1384 1.363 . S
C1386 C1387 1.370 . S
C1386 C1390 1.524 . S
C1387 C1379 1.503 . S
C1387 C1386 1.370 . S
C1387 C1388 1.403 . S
C1388 C1387 1.403 . S
C1388 C1389 1.404 . S
C1388 C1391 1.539 . S
C1389 C1385 1.408 . S
C1389 C1388 1.404 . S
C1389 H1401 0.930 . S
C1390 C1386 1.524 . S
C1390 H1402 0.956 . S
C1390 H1403 0.961 . S
C1390 H1404 0.961 . S
C1391 C1388 1.539 . S
C1391 H1405 0.958 . S
C1391 H1406 0.961 . S
C1391 H1407 0.960 1_565 S
H1392 C1376 0.931 . S
H1393 C1381 0.929 . S
H1394 C1382 0.960 . S
H1395 C1382 0.962 . S
H1396 C1382 0.960 1_545 S
H1397 C1383 0.961 1_545 S
H1398 C1383 0.961 . S
H1399 C1383 0.961 1_545 S
H1400 C1384 0.931 . S
H1401 C1389 0.930 . S
H1402 C1390 0.956 . S
H1403 C1390 0.961 . S
H1404 C1390 0.961 . S
H1405 C1391 0.958 . S
H1406 C1391 0.961 . S
H1407 C1391 0.960 1_545 S
C1408 C1409 1.391 . S
C1408 C1410 1.394 . S
C1408 H1424 0.931 . S
C1409 C1408 1.391 . S
C1409 C1413 1.376 . S
C1410 C1408 1.394 . S
C1410 C1411 1.369 . S
C1410 C1414 1.531 . S
C1411 C1410 1.369 . S
C1411 C1412 1.410 . S
C1411 C1419 1.503 . S
C1412 C1411 1.410 . S
C1412 C1413 1.392 . S
C1412 C1415 1.511 . S
C1413 C1409 1.376 . S
C1413 C1412 1.392 . S
C1413 H1425 0.929 . S
C1414 C1410 1.531 . S
C1414 H1426 0.960 1_655 S
C1414 H1427 0.962 . S
C1414 H1428 0.960 . S
C1415 C1412 1.511 . S
C1415 H1429 0.961 . S
C1415 H1430 0.961 . S
C1415 H1431 0.961 . S
C1416 C1417 1.370 . S
C1416 C1418 1.363 1_455 S
C1416 H1432 0.931 . S
C1417 C1416 1.370 . S
C1417 C1421 1.408 . S
C1418 C1416 1.363 1_655 S
C1418 C1419 1.370 . S
C1418 C1422 1.524 . S
C1419 C1411 1.503 . S
C1419 C1418 1.370 . S
C1419 C1420 1.403 1_655 S
C1420 C1419 1.403 1_455 S
C1420 C1421 1.404 . S
C1420 C1423 1.539 1_455 S
C1421 C1417 1.408 . S
C1421 C1420 1.404 . S
C1421 H1433 0.930 . S
C1422 C1418 1.524 . S
C1422 H1434 0.956 . S
C1422 H1435 0.961 . S
C1422 H1436 0.961 . S
C1423 C1420 1.539 1_655 S
C1423 H1437 0.958 1_655 S
C1423 H1438 0.961 1_655 S
C1423 H1439 0.960 . S
H1424 C1408 0.931 . S
H1425 C1413 0.929 . S
H1426 C1414 0.960 1_455 S
H1427 C1414 0.962 . S
H1428 C1414 0.960 . S
H1429 C1415 0.961 . S
H1430 C1415 0.961 . S
H1431 C1415 0.961 . S
H1432 C1416 0.931 . S
H1433 C1421 0.930 . S
H1434 C1422 0.956 . S
H1435 C1422 0.961 . S
H1436 C1422 0.961 . S
H1437 C1423 0.958 1_455 S
H1438 C1423 0.961 1_455 S
H1439 C1423 0.960 . S
C1440 C1441 1.391 . S
C1440 C1442 1.394 . S
C1440 H1456 0.931 . S
C1441 C1440 1.391 . S
C1441 C1445 1.376 . S
C1442 C1440 1.394 . S
C1442 C1443 1.369 . S
C1442 C1446 1.531 . S
C1443 C1442 1.369 . S
C1443 C1444 1.410 . S
C1443 C1451 1.503 . S
C1444 C1443 1.410 . S
C1444 C1445 1.392 . S
C1444 C1447 1.511 . S
C1445 C1441 1.376 . S
C1445 C1444 1.392 . S
C1445 H1457 0.929 . S
C1446 C1442 1.531 . S
C1446 H1458 0.960 . S
C1446 H1459 0.962 . S
C1446 H1460 0.960 . S
C1447 C1444 1.511 . S
C1447 H1461 0.961 . S
C1447 H1462 0.961 1_545 S
C1447 H1463 0.961 . S
C1448 C1449 1.370 . S
C1448 C1450 1.363 . S
C1448 H1464 0.931 . S
C1449 C1448 1.370 . S
C1449 C1453 1.408 . S
C1450 C1448 1.363 . S
C1450 C1451 1.370 1_565 S
C1450 C1454 1.524 1_565 S
C1451 C1443 1.503 . S
C1451 C1450 1.370 1_545 S
C1451 C1452 1.403 1_545 S
C1452 C1451 1.403 1_565 S
C1452 C1453 1.404 . S
C1452 C1455 1.539 1_565 S
C1453 C1449 1.408 . S
C1453 C1452 1.404 . S
C1453 H1465 0.930 . S
C1454 C1450 1.524 1_545 S
C1454 H1466 0.956 . S
C1454 H1467 0.961 . S
C1454 H1468 0.961 1_545 S
C1455 C1452 1.539 1_545 S
C1455 H1469 0.958 . S
C1455 H1470 0.961 1_545 S
C1455 H1471 0.960 . S
H1456 C1440 0.931 . S
H1457 C1445 0.929 . S
H1458 C1446 0.960 . S
H1459 C1446 0.962 . S
H1460 C1446 0.960 . S
H1461 C1447 0.961 . S
H1462 C1447 0.961 1_565 S
H1463 C1447 0.961 . S
H1464 C1448 0.931 . S
H1465 C1453 0.930 . S
H1466 C1454 0.956 . S
H1467 C1454 0.961 . S
H1468 C1454 0.961 1_565 S
H1469 C1455 0.958 . S
H1470 C1455 0.961 1_565 S
H1471 C1455 0.960 . S
C1472 C1473 1.391 . S
C1472 C1474 1.394 . S
C1472 H1488 0.931 . S
C1473 C1472 1.391 . S
C1473 C1477 1.376 . S
C1474 C1472 1.394 . S
C1474 C1475 1.369 1_655 S
C1474 C1478 1.531 . S
C1475 C1474 1.369 1_455 S
C1475 C1476 1.410 . S
C1475 C1483 1.503 . S
C1476 C1475 1.410 . S
C1476 C1477 1.392 1_455 S
C1476 C1479 1.511 . S
C1477 C1473 1.376 . S
C1477 C1476 1.392 1_655 S
C1477 H1489 0.929 . S
C1478 C1474 1.531 . S
C1478 H1490 0.960 1_655 S
C1478 H1491 0.962 . S
C1478 H1492 0.960 . S
C1479 C1476 1.511 . S
C1479 H1493 0.961 . S
C1479 H1494 0.961 . S
C1479 H1495 0.961 . S
C1480 C1481 1.370 . S
C1480 C1482 1.363 . S
C1480 H1496 0.931 . S
C1481 C1480 1.370 . S
C1481 C1485 1.408 . S
C1482 C1480 1.363 . S
C1482 C1483 1.370 . S
C1482 C1486 1.524 . S
C1483 C1475 1.503 . S
C1483 C1482 1.370 . S
C1483 C1484 1.403 . S
C1484 C1483 1.403 . S
C1484 C1485 1.404 . S
C1484 C1487 1.539 . S
C1485 C1481 1.408 . S
C1485 C1484 1.404 . S
C1485 H1497 0.930 . S
C1486 C1482 1.524 . S
C1486 H1498 0.956 . S
C1486 H1499 0.961 . S
C1486 H1500 0.961 . S
C1487 C1484 1.539 . S
C1487 H1501 0.958 . S
C1487 H1502 0.961 . S
C1487 H1503 0.960 . S
H1488 C1472 0.931 . S
H1489 C1477 0.929 . S
H1490 C1478 0.960 1_455 S
H1491 C1478 0.962 . S
H1492 C1478 0.960 . S
H1493 C1479 0.961 . S
H1494 C1479 0.961 . S
H1495 C1479 0.961 . S
H1496 C1480 0.931 . S
H1497 C1485 0.930 . S
H1498 C1486 0.956 . S
H1499 C1486 0.961 . S
H1500 C1486 0.961 . S
H1501 C1487 0.958 . S
H1502 C1487 0.961 . S
H1503 C1487 0.960 . S
C1504 C1505 1.391 . S
C1504 C1506 1.394 . S
C1504 H1520 0.931 . S
C1505 C1504 1.391 . S
C1505 C1509 1.376 . S
C1506 C1504 1.394 . S
C1506 C1507 1.369 . S
C1506 C1510 1.531 . S
C1507 C1506 1.369 . S
C1507 C1508 1.410 . S
C1507 C1515 1.503 . S
C1508 C1507 1.410 . S
C1508 C1509 1.392 . S
C1508 C1511 1.511 . S
C1509 C1505 1.376 . S
C1509 C1508 1.392 . S
C1509 H1521 0.929 . S
C1510 C1506 1.531 . S
C1510 H1522 0.960 . S
C1510 H1523 0.962 . S
C1510 H1524 0.960 . S
C1511 C1508 1.511 . S
C1511 H1525 0.961 . S
C1511 H1526 0.961 . S
C1511 H1527 0.961 . S
C1512 C1513 1.370 . S
C1512 C1514 1.363 . S
C1512 H1528 0.931 . S
C1513 C1512 1.370 . S
C1513 C1517 1.408 . S
C1514 C1512 1.363 . S
C1514 C1515 1.370 . S
C1514 C1518 1.524 . S
C1515 C1507 1.503 . S
C1515 C1514 1.370 . S
C1515 C1516 1.403 . S
C1516 C1515 1.403 . S
C1516 C1517 1.404 . S
C1516 C1519 1.539 . S
C1517 C1513 1.408 . S
C1517 C1516 1.404 . S
C1517 H1529 0.930 . S
C1518 C1514 1.524 . S
C1518 H1530 0.956 . S
C1518 H1531 0.961 . S
C1518 H1532 0.961 . S
C1519 C1516 1.539 . S
C1519 H1533 0.958 . S
C1519 H1534 0.961 . S
C1519 H1535 0.960 . S
H1520 C1504 0.931 . S
H1521 C1509 0.929 . S
H1522 C1510 0.960 . S
H1523 C1510 0.962 . S
H1524 C1510 0.960 . S
H1525 C1511 0.961 . S
H1526 C1511 0.961 . S
H1527 C1511 0.961 . S
H1528 C1512 0.931 . S
H1529 C1517 0.930 . S
H1530 C1518 0.956 . S
H1531 C1518 0.961 . S
H1532 C1518 0.961 . S
H1533 C1519 0.958 . S
H1534 C1519 0.961 . S
H1535 C1519 0.960 . S
C1536 C1537 1.391 . S
C1536 C1538 1.394 . S
C1536 H1552 0.931 . S
C1537 C1536 1.391 . S
C1537 C1541 1.376 . S
C1538 C1536 1.394 . S
C1538 C1539 1.369 . S
C1538 C1542 1.531 . S
C1539 C1538 1.369 . S
C1539 C1540 1.410 . S
C1539 C1547 1.503 . S
C1540 C1539 1.410 . S
C1540 C1541 1.392 . S
C1540 C1543 1.511 . S
C1541 C1537 1.376 . S
C1541 C1540 1.392 . S
C1541 H1553 0.929 . S
C1542 C1538 1.531 . S
C1542 H1554 0.960 . S
C1542 H1555 0.962 . S
C1542 H1556 0.960 . S
C1543 C1540 1.511 . S
C1543 H1557 0.961 . S
C1543 H1558 0.961 . S
C1543 H1559 0.961 . S
C1544 C1545 1.370 . S
C1544 C1546 1.363 . S
C1544 H1560 0.931 . S
C1545 C1544 1.370 . S
C1545 C1549 1.408 . S
C1546 C1544 1.363 . S
C1546 C1547 1.370 . S
C1546 C1550 1.524 . S
C1547 C1539 1.503 . S
C1547 C1546 1.370 . S
C1547 C1548 1.403 . S
C1548 C1547 1.403 . S
C1548 C1549 1.404 . S
C1548 C1551 1.539 . S
C1549 C1545 1.408 . S
C1549 C1548 1.404 . S
C1549 H1561 0.930 . S
C1550 C1546 1.524 . S
C1550 H1562 0.956 . S
C1550 H1563 0.961 . S
C1550 H1564 0.961 . S
C1551 C1548 1.539 . S
C1551 H1565 0.958 . S
C1551 H1566 0.961 . S
C1551 H1567 0.960 . S
H1552 C1536 0.931 . S
H1553 C1541 0.929 . S
H1554 C1542 0.960 . S
H1555 C1542 0.962 . S
H1556 C1542 0.960 . S
H1557 C1543 0.961 . S
H1558 C1543 0.961 . S
H1559 C1543 0.961 . S
H1560 C1544 0.931 . S
H1561 C1549 0.930 . S
H1562 C1550 0.956 . S
H1563 C1550 0.961 . S
H1564 C1550 0.961 . S
H1565 C1551 0.958 . S
H1566 C1551 0.961 . S
H1567 C1551 0.960 . S
C1568 C1569 1.391 . S
C1568 C1570 1.394 . S
C1568 H1584 0.931 . S
C1569 C1568 1.391 . S
C1569 C1573 1.376 . S
C1570 C1568 1.394 . S
C1570 C1571 1.369 . S
C1570 C1574 1.531 . S
C1571 C1570 1.369 . S
C1571 C1572 1.410 . S
C1571 C1579 1.503 . S
C1572 C1571 1.410 . S
C1572 C1573 1.392 . S
C1572 C1575 1.511 . S
C1573 C1569 1.376 . S
C1573 C1572 1.392 . S
C1573 H1585 0.929 . S
C1574 C1570 1.531 . S
C1574 H1586 0.960 . S
C1574 H1587 0.962 . S
C1574 H1588 0.960 . S
C1575 C1572 1.511 . S
C1575 H1589 0.961 . S
C1575 H1590 0.961 . S
C1575 H1591 0.961 . S
C1576 C1577 1.370 . S
C1576 C1578 1.363 . S
C1576 H1592 0.931 . S
C1577 C1576 1.370 . S
C1577 C1581 1.408 . S
C1578 C1576 1.363 . S
C1578 C1579 1.370 . S
C1578 C1582 1.524 . S
C1579 C1571 1.503 . S
C1579 C1578 1.370 . S
C1579 C1580 1.403 . S
C1580 C1579 1.403 . S
C1580 C1581 1.404 . S
C1580 C1583 1.539 . S
C1581 C1577 1.408 . S
C1581 C1580 1.404 . S
C1581 H1593 0.930 . S
C1582 C1578 1.524 . S
C1582 H1594 0.956 . S
C1582 H1595 0.961 . S
C1582 H1596 0.961 . S
C1583 C1580 1.539 . S
C1583 H1597 0.958 . S
C1583 H1598 0.961 . S
C1583 H1599 0.960 . S
H1584 C1568 0.931 . S
H1585 C1573 0.929 . S
H1586 C1574 0.960 . S
H1587 C1574 0.962 . S
H1588 C1574 0.960 . S
H1589 C1575 0.961 . S
H1590 C1575 0.961 . S
H1591 C1575 0.961 . S
H1592 C1576 0.931 . S
H1593 C1581 0.930 . S
H1594 C1582 0.956 . S
H1595 C1582 0.961 . S
H1596 C1582 0.961 . S
H1597 C1583 0.958 . S
H1598 C1583 0.961 . S
H1599 C1583 0.960 . S
C1600 C1601 1.391 . S
C1600 C1602 1.394 . S
C1600 H1616 0.931 . S
C1601 C1600 1.391 . S
C1601 C1605 1.376 . S
C1602 C1600 1.394 . S
C1602 C1603 1.369 . S
C1602 C1606 1.531 . S
C1603 C1602 1.369 . S
C1603 C1604 1.410 . S
C1603 C1611 1.503 . S
C1604 C1603 1.410 . S
C1604 C1605 1.392 . S
C1604 C1607 1.511 . S
C1605 C1601 1.376 . S
C1605 C1604 1.392 . S
C1605 H1617 0.929 . S
C1606 C1602 1.531 . S
C1606 H1618 0.960 . S
C1606 H1619 0.962 . S
C1606 H1620 0.960 . S
C1607 C1604 1.511 . S
C1607 H1621 0.961 . S
C1607 H1622 0.961 . S
C1607 H1623 0.961 . S
C1608 C1609 1.370 . S
C1608 C1610 1.363 . S
C1608 H1624 0.931 . S
C1609 C1608 1.370 . S
C1609 C1613 1.408 . S
C1610 C1608 1.363 . S
C1610 C1611 1.370 . S
C1610 C1614 1.524 . S
C1611 C1603 1.503 . S
C1611 C1610 1.370 . S
C1611 C1612 1.403 . S
C1612 C1611 1.403 . S
C1612 C1613 1.404 . S
C1612 C1615 1.539 . S
C1613 C1609 1.408 . S
C1613 C1612 1.404 . S
C1613 H1625 0.930 . S
C1614 C1610 1.524 . S
C1614 H1626 0.956 . S
C1614 H1627 0.961 . S
C1614 H1628 0.961 . S
C1615 C1612 1.539 . S
C1615 H1629 0.958 . S
C1615 H1630 0.961 . S
C1615 H1631 0.960 . S
H1616 C1600 0.931 . S
H1617 C1605 0.929 . S
H1618 C1606 0.960 . S
H1619 C1606 0.962 . S
H1620 C1606 0.960 . S
H1621 C1607 0.961 . S
H1622 C1607 0.961 . S
H1623 C1607 0.961 . S
H1624 C1608 0.931 . S
H1625 C1613 0.930 . S
H1626 C1614 0.956 . S
H1627 C1614 0.961 . S
H1628 C1614 0.961 . S
H1629 C1615 0.958 . S
H1630 C1615 0.961 . S
H1631 C1615 0.960 . S
C1632 C1633 1.391 . S
C1632 C1634 1.394 . S
C1632 H1648 0.931 . S
C1633 C1632 1.391 . S
C1633 C1637 1.376 . S
C1634 C1632 1.394 . S
C1634 C1635 1.369 . S
C1634 C1638 1.531 1_545 S
C1635 C1634 1.369 . S
C1635 C1636 1.410 . S
C1635 C1643 1.503 1_445 S
C1636 C1635 1.410 . S
C1636 C1637 1.392 . S
C1636 C1639 1.511 1_455 S
C1637 C1633 1.376 . S
C1637 C1636 1.392 . S
C1637 H1649 0.929 . S
C1638 C1634 1.531 1_565 S
C1638 H1650 0.960 . S
C1638 H1651 0.962 . S
C1638 H1652 0.960 . S
C1639 C1636 1.511 1_655 S
C1639 H1653 0.961 . S
C1639 H1654 0.961 . S
C1639 H1655 0.961 . S
C1640 C1641 1.370 . S
C1640 C1642 1.363 . S
C1640 H1656 0.931 . S
C1641 C1640 1.370 . S
C1641 C1645 1.408 . S
C1642 C1640 1.363 . S
C1642 C1643 1.370 . S
C1642 C1646 1.524 1_655 S
C1643 C1635 1.503 1_665 S
C1643 C1642 1.370 . S
C1643 C1644 1.403 . S
C1644 C1643 1.403 . S
C1644 C1645 1.404 . S
C1644 C1647 1.539 1_565 S
C1645 C1641 1.408 . S
C1645 C1644 1.404 . S
C1645 H1657 0.930 . S
C1646 C1642 1.524 1_455 S
C1646 H1658 0.956 . S
C1646 H1659 0.961 . S
C1646 H1660 0.961 . S
C1647 C1644 1.539 1_545 S
C1647 H1661 0.958 . S
C1647 H1662 0.961 . S
C1647 H1663 0.960 . S
H1648 C1632 0.931 . S
H1649 C1637 0.929 . S
H1650 C1638 0.960 . S
H1651 C1638 0.962 . S
H1652 C1638 0.960 . S
H1653 C1639 0.961 . S
H1654 C1639 0.961 . S
H1655 C1639 0.961 . S
H1656 C1640 0.931 . S
H1657 C1645 0.930 . S
H1658 C1646 0.956 . S
H1659 C1646 0.961 . S
H1660 C1646 0.961 . S
H1661 C1647 0.958 . S
H1662 C1647 0.961 . S
H1663 C1647 0.960 . S
C1664 C1665 1.391 . S
C1664 C1666 1.394 . S
C1664 H1680 0.931 . S
C1665 C1664 1.391 . S
C1665 C1669 1.376 . S
C1666 C1664 1.394 . S
C1666 C1667 1.369 . S
C1666 C1670 1.531 1_655 S
C1667 C1666 1.369 . S
C1667 C1668 1.410 . S
C1667 C1675 1.503 1_645 S
C1668 C1667 1.410 . S
C1668 C1669 1.392 . S
C1668 C1671 1.511 1_545 S
C1669 C1665 1.376 . S
C1669 C1668 1.392 . S
C1669 H1681 0.929 . S
C1670 C1666 1.531 1_455 S
C1670 H1682 0.960 . S
C1670 H1683 0.962 . S
C1670 H1684 0.960 . S
C1671 C1668 1.511 1_565 S
C1671 H1685 0.961 . S
C1671 H1686 0.961 . S
C1671 H1687 0.961 . S
C1672 C1673 1.370 . S
C1672 C1674 1.363 . S
C1672 H1688 0.931 . S
C1673 C1672 1.370 . S
C1673 C1677 1.408 . S
C1674 C1672 1.363 . S
C1674 C1675 1.370 . S
C1674 C1678 1.524 . S
C1675 C1667 1.503 1_465 S
C1675 C1674 1.370 . S
C1675 C1676 1.403 . S
C1676 C1675 1.403 . S
C1676 C1677 1.404 . S
C1676 C1679 1.539 . S
C1677 C1673 1.408 . S
C1677 C1676 1.404 . S
C1677 H1689 0.930 . S
C1678 C1674 1.524 . S
C1678 H1690 0.956 1_565 S
C1678 H1691 0.961 1_455 S
C1678 H1692 0.961 . S
C1679 C1676 1.539 . S
C1679 H1693 0.958 1_565 S
C1679 H1694 0.961 . S
C1679 H1695 0.960 1_455 S
H1680 C1664 0.931 . S
H1681 C1669 0.929 . S
H1682 C1670 0.960 . S
H1683 C1670 0.962 . S
H1684 C1670 0.960 . S
H1685 C1671 0.961 . S
H1686 C1671 0.961 . S
H1687 C1671 0.961 . S
H1688 C1672 0.931 . S
H1689 C1677 0.930 . S
H1690 C1678 0.956 1_545 S
H1691 C1678 0.961 1_655 S
H1692 C1678 0.961 . S
H1693 C1679 0.958 1_545 S
H1694 C1679 0.961 . S
H1695 C1679 0.960 1_655 S
C1696 C1697 1.391 . S
C1696 C1698 1.394 . S
C1696 H1712 0.931 . S
C1697 C1696 1.391 . S
C1697 C1701 1.376 . S
C1698 C1696 1.394 . S
C1698 C1699 1.369 . S
C1698 C1702 1.531 . S
C1699 C1698 1.369 . S
C1699 C1700 1.410 . S
C1699 C1707 1.503 1_455 S
C1700 C1699 1.410 . S
C1700 C1701 1.392 . S
C1700 C1703 1.514 . S
C1701 C1697 1.376 . S
C1701 C1700 1.392 . S
C1701 H1713 0.929 . S
C1702 C1698 1.531 . S
C1702 H1714 0.960 . S
C1702 H1715 0.962 . S
C1702 H1716 0.960 . S
C1703 C1700 1.514 . S
C1703 H1717 0.960 1_455 S
C1703 H1718 0.956 1_455 S
C1703 H1719 0.963 . S
C1704 C1705 1.370 . S
C1704 C1706 1.363 . S
C1704 H1720 0.931 . S
C1705 C1704 1.370 . S
C1705 C1709 1.408 . S
C1706 C1704 1.363 . S
C1706 C1707 1.370 . S
C1706 C1710 1.524 . S
C1707 C1699 1.503 1_655 S
C1707 C1706 1.370 . S
C1707 C1708 1.403 . S
C1708 C1707 1.403 . S
C1708 C1709 1.404 . S
C1708 C1711 1.539 1_655 S
C1709 C1705 1.408 . S
C1709 C1708 1.404 . S
C1709 H1721 0.930 . S
C1710 C1706 1.524 . S
C1710 H1722 0.956 . S
C1710 H1723 0.961 . S
C1710 H1724 0.961 . S
C1711 C1708 1.539 1_455 S
C1711 H1725 0.958 . S
C1711 H1726 0.961 . S
C1711 H1727 0.960 . S
H1712 C1696 0.931 . S
H1713 C1701 0.929 . S
H1714 C1702 0.960 . S
H1715 C1702 0.962 . S
H1716 C1702 0.960 . S
H1717 C1703 0.960 1_655 S
H1718 C1703 0.956 1_655 S
H1719 C1703 0.963 . S
H1720 C1704 0.931 . S
H1721 C1709 0.930 . S
H1722 C1710 0.956 . S
H1723 C1710 0.961 . S
H1724 C1710 0.961 . S
H1725 C1711 0.958 . S
H1726 C1711 0.961 . S
H1727 C1711 0.960 . S
C1728 C1729 1.391 . S
C1728 C1730 1.394 . S
C1728 H1744 0.931 . S
C1729 C1728 1.391 . S
C1729 C1733 1.376 . S
C1730 C1728 1.394 . S
C1730 C1731 1.369 . S
C1730 C1734 1.531 1_565 S
C1731 C1730 1.369 . S
C1731 C1732 1.410 . S
C1731 C1739 1.503 1_565 S
C1732 C1731 1.410 . S
C1732 C1733 1.392 . S
C1732 C1735 1.511 . S
C1733 C1729 1.376 . S
C1733 C1732 1.392 . S
C1733 H1745 0.929 . S
C1734 C1730 1.531 1_545 S
C1734 H1746 0.960 . S
C1734 H1747 0.962 . S
C1734 H1748 0.960 1_545 S
C1735 C1732 1.511 . S
C1735 H1749 0.961 . S
C1735 H1750 0.961 . S
C1735 H1751 0.961 . S
C1736 C1737 1.370 . S
C1736 C1738 1.363 . S
C1736 H1752 0.931 . S
C1737 C1736 1.370 . S
C1737 C1741 1.408 . S
C1738 C1736 1.363 . S
C1738 C1739 1.370 . S
C1738 C1742 1.524 . S
C1739 C1731 1.503 1_545 S
C1739 C1738 1.370 . S
C1739 C1740 1.403 . S
C1740 C1739 1.403 . S
C1740 C1741 1.404 . S
C1740 C1743 1.539 1_545 S
C1741 C1737 1.408 . S
C1741 C1740 1.404 . S
C1741 H1753 0.930 . S
C1742 C1738 1.524 . S
C1742 H1754 0.956 . S
C1742 H1755 0.961 . S
C1742 H1756 0.961 . S
C1743 C1740 1.539 1_565 S
C1743 H1757 0.958 . S
C1743 H1758 0.961 . S
C1743 H1759 0.960 . S
H1744 C1728 0.931 . S
H1745 C1733 0.929 . S
H1746 C1734 0.960 . S
H1747 C1734 0.962 . S
H1748 C1734 0.960 1_565 S
H1749 C1735 0.961 . S
H1750 C1735 0.961 . S
H1751 C1735 0.961 . S
H1752 C1736 0.931 . S
H1753 C1741 0.930 . S
H1754 C1742 0.956 . S
H1755 C1742 0.961 . S
H1756 C1742 0.961 . S
H1757 C1743 0.958 . S
H1758 C1743 0.961 . S
H1759 C1743 0.960 . S
C1760 C1761 1.391 . S
C1760 C1762 1.394 . S
C1760 H1776 0.931 . S
C1761 C1760 1.391 . S
C1761 C1765 1.376 . S
C1762 C1760 1.394 . S
C1762 C1763 1.369 . S
C1762 C1766 1.531 . S
C1763 C1762 1.369 . S
C1763 C1764 1.410 . S
C1763 C1771 1.503 . S
C1764 C1763 1.410 . S
C1764 C1765 1.392 . S
C1764 C1767 1.511 . S
C1765 C1761 1.376 . S
C1765 C1764 1.392 . S
C1765 H1777 0.929 . S
C1766 C1762 1.531 . S
C1766 H1778 0.960 . S
C1766 H1779 0.962 . S
C1766 H1780 0.960 . S
C1767 C1764 1.511 . S
C1767 H1781 0.961 . S
C1767 H1782 0.961 . S
C1767 H1783 0.961 . S
C1768 C1769 1.370 . S
C1768 C1770 1.363 . S
C1768 H1784 0.931 . S
C1769 C1768 1.370 . S
C1769 C1773 1.408 . S
C1770 C1768 1.363 . S
C1770 C1771 1.370 . S
C1770 C1774 1.524 . S
C1771 C1763 1.503 . S
C1771 C1770 1.370 . S
C1771 C1772 1.403 . S
C1772 C1771 1.403 . S
C1772 C1773 1.404 . S
C1772 C1775 1.539 . S
C1773 C1769 1.408 . S
C1773 C1772 1.404 . S
C1773 H1785 0.930 . S
C1774 C1770 1.524 . S
C1774 H1786 0.956 . S
C1774 H1787 0.961 . S
C1774 H1788 0.961 . S
C1775 C1772 1.539 . S
C1775 H1789 0.958 . S
C1775 H1790 0.961 . S
C1775 H1791 0.960 . S
H1776 C1760 0.931 . S
H1777 C1765 0.929 . S
H1778 C1766 0.960 . S
H1779 C1766 0.962 . S
H1780 C1766 0.960 . S
H1781 C1767 0.961 . S
H1782 C1767 0.961 . S
H1783 C1767 0.961 . S
H1784 C1768 0.931 . S
H1785 C1773 0.930 . S
H1786 C1774 0.956 . S
H1787 C1774 0.961 . S
H1788 C1774 0.961 . S
H1789 C1775 0.958 . S
H1790 C1775 0.961 . S
H1791 C1775 0.960 . S
C1792 C1793 1.391 . S
C1792 C1794 1.394 . S
C1792 H1808 0.931 . S
C1793 C1792 1.391 . S
C1793 C1797 1.376 . S
C1794 C1792 1.394 . S
C1794 C1795 1.369 . S
C1794 C1798 1.531 . S
C1795 C1794 1.369 . S
C1795 C1796 1.410 . S
C1795 C1803 1.503 . S
C1796 C1795 1.410 . S
C1796 C1797 1.392 . S
C1796 C1799 1.511 . S
C1797 C1793 1.376 . S
C1797 C1796 1.392 . S
C1797 H1809 0.929 . S
C1798 C1794 1.531 . S
C1798 H1810 0.960 . S
C1798 H1811 0.962 . S
C1798 H1812 0.960 . S
C1799 C1796 1.511 . S
C1799 H1813 0.961 . S
C1799 H1814 0.961 . S
C1799 H1815 0.961 . S
C1800 C1801 1.370 . S
C1800 C1802 1.363 . S
C1800 H1816 0.931 . S
C1801 C1800 1.370 . S
C1801 C1805 1.408 . S
C1802 C1800 1.363 . S
C1802 C1803 1.370 . S
C1802 C1806 1.524 . S
C1803 C1795 1.503 . S
C1803 C1802 1.370 . S
C1803 C1804 1.403 . S
C1804 C1803 1.403 . S
C1804 C1805 1.404 . S
C1804 C1807 1.539 . S
C1805 C1801 1.408 . S
C1805 C1804 1.404 . S
C1805 H1817 0.930 . S
C1806 C1802 1.524 . S
C1806 H1818 0.956 . S
C1806 H1819 0.961 . S
C1806 H1820 0.961 . S
C1807 C1804 1.539 . S
C1807 H1821 0.958 . S
C1807 H1822 0.961 . S
C1807 H1823 0.960 . S
H1808 C1792 0.931 . S
H1809 C1797 0.929 . S
H1810 C1798 0.960 . S
H1811 C1798 0.962 . S
H1812 C1798 0.960 . S
H1813 C1799 0.961 . S
H1814 C1799 0.961 . S
H1815 C1799 0.961 . S
H1816 C1800 0.931 . S
H1817 C1805 0.930 . S
H1818 C1806 0.956 . S
H1819 C1806 0.961 . S
H1820 C1806 0.961 . S
H1821 C1807 0.958 . S
H1822 C1807 0.961 . S
H1823 C1807 0.960 . S
C1824 C1825 1.391 . S
C1824 C1826 1.394 . S
C1824 H1840 0.931 . S
C1825 C1824 1.391 . S
C1825 C1829 1.376 . S
C1826 C1824 1.394 . S
C1826 C1827 1.369 . S
C1826 C1830 1.531 . S
C1827 C1826 1.369 . S
C1827 C1828 1.410 . S
C1827 C1835 1.503 1_565 S
C1828 C1827 1.410 . S
C1828 C1829 1.392 . S
C1828 C1831 1.511 1_565 S
C1829 C1825 1.376 . S
C1829 C1828 1.392 . S
C1829 H1841 0.929 . S
C1830 C1826 1.531 . S
C1830 H1842 0.960 . S
C1830 H1843 0.962 . S
C1830 H1844 0.960 . S
C1831 C1828 1.511 1_545 S
C1831 H1845 0.961 . S
C1831 H1846 0.961 . S
C1831 H1847 0.961 . S
C1832 C1833 1.370 . S
C1832 C1834 1.363 . S
C1832 H1848 0.931 . S
C1833 C1832 1.370 . S
C1833 C1837 1.408 . S
C1834 C1832 1.363 . S
C1834 C1835 1.370 . S
C1834 C1838 1.524 . S
C1835 C1827 1.503 1_545 S
C1835 C1834 1.370 . S
C1835 C1836 1.403 . S
C1836 C1835 1.403 . S
C1836 C1837 1.404 . S
C1836 C1839 1.539 . S
C1837 C1833 1.408 . S
C1837 C1836 1.404 . S
C1837 H1849 0.930 . S
C1838 C1834 1.524 . S
C1838 H1850 0.956 1_545 S
C1838 H1851 0.961 . S
C1838 H1852 0.961 . S
C1839 C1836 1.539 . S
C1839 H1853 0.958 1_545 S
C1839 H1854 0.961 . S
C1839 H1855 0.960 . S
H1840 C1824 0.931 . S
H1841 C1829 0.929 . S
H1842 C1830 0.960 . S
H1843 C1830 0.962 . S
H1844 C1830 0.960 . S
H1845 C1831 0.961 . S
H1846 C1831 0.961 . S
H1847 C1831 0.961 . S
H1848 C1832 0.931 . S
H1849 C1837 0.930 . S
H1850 C1838 0.956 1_565 S
H1851 C1838 0.961 . S
H1852 C1838 0.961 . S
H1853 C1839 0.958 1_565 S
H1854 C1839 0.961 . S
H1855 C1839 0.960 . S
C1856 C1857 1.391 . S
C1856 C1858 1.394 . S
C1856 H1872 0.931 . S
C1857 C1856 1.391 . S
C1857 C1861 1.376 . S
C1858 C1856 1.394 . S
C1858 C1859 1.369 . S
C1858 C1862 1.531 . S
C1859 C1858 1.369 . S
C1859 C1860 1.410 . S
C1859 C1867 1.503 1_655 S
C1860 C1859 1.410 . S
C1860 C1861 1.392 . S
C1860 C1863 1.511 1_655 S
C1861 C1857 1.376 . S
C1861 C1860 1.392 . S
C1861 H1873 0.929 . S
C1862 C1858 1.531 . S
C1862 H1874 0.960 . S
C1862 H1875 0.962 . S
C1862 H1876 0.960 . S
C1863 C1860 1.511 1_455 S
C1863 H1877 0.965 . S
C1863 H1878 0.961 . S
C1863 H1879 0.961 . S
C1864 C1865 1.370 . S
C1864 C1866 1.363 . S
C1864 H1880 0.931 . S
C1865 C1864 1.370 . S
C1865 C1869 1.408 . S
C1866 C1864 1.363 . S
C1866 C1867 1.370 . S
C1866 C1870 1.524 1_455 S
C1867 C1859 1.503 1_455 S
C1867 C1866 1.370 . S
C1867 C1868 1.403 . S
C1868 C1867 1.403 . S
C1868 C1869 1.404 . S
C1868 C1871 1.539 . S
C1869 C1865 1.408 . S
C1869 C1868 1.404 . S
C1869 H1881 0.930 . S
C1870 C1866 1.524 1_655 S
C1870 H1882 0.956 . S
C1870 H1883 0.961 . S
C1870 H1884 0.961 . S
C1871 C1868 1.539 . S
C1871 H1885 0.958 . S
C1871 H1886 0.961 . S
C1871 H1887 0.960 . S
H1872 C1856 0.931 . S
H1873 C1861 0.929 . S
H1874 C1862 0.960 . S
H1875 C1862 0.962 . S
H1876 C1862 0.960 . S
H1877 C1863 0.965 . S
H1878 C1863 0.961 . S
H1879 C1863 0.961 . S
H1880 C1864 0.931 . S
H1881 C1869 0.930 . S
H1882 C1870 0.956 . S
H1883 C1870 0.961 . S
H1884 C1870 0.961 . S
H1885 C1871 0.958 . S
H1886 C1871 0.961 . S
H1887 C1871 0.960 . S
C353 C247 1.429 . S
C361 C9 1.417 . S
C385 C28 1.455 . S
C393 C182 1.462 . S
C417 C49 1.390 . S
C425 C207 1.452 . S
C449 C227 1.439 . S
C457 C73 1.411 . S
C481 C93 1.454 . S
C489 C119 1.461 . S
C513 C116 1.390 . S
C521 C138 1.455 . S
C545 C159 1.429 . S
C553 C141 1.416 . S
C577 C95 1.429 . S
C585 C161 1.416 . S
C609 C185 1.426 . S
C617 C71 1.451 . S
C641 C204 1.454 . S
C649 C6 1.459 . S
C673 C31 1.476 . S
C681 C225 1.437 . S
C705 C249 1.437 . S
C713 C51 1.451 . S
C737 C269 1.432 . S
C745 C295 1.465 . S
C769 C314 1.436 . S
C777 C292 1.411 . S
C801 C335 1.429 . S
C809 C317 1.416 . S
C833 C337 1.407 . S
C841 C271 1.446 . S
C865 C4 1.423 . S
C873 C312 1.433 . S
C897 C30 1.468 . S
C905 C334 1.456 . S
C929 C52 1.450 . S
C937 C272 1.435 . S
C961 C70 1.412 . S
C969 C294 1.452 . S
C993 C96 1.472 . S
C1001 C228 1.457 . S
C1025 C118 1.453 . S
C1033 C246 1.460 . S
C1057 C136 1.459 . S
C1065 C180 1.460 . S
C1089 C158 1.450 . S
C1097 C206 1.460 . S
C1121 C5 1.179 . S
C1129 C251 1.163 . S
C1153 C29 1.181 . S
C1161 C183 1.153 . S
C1185 C203 1.161 . S
C1193 C53 1.161 . S
C1217 C72 1.123 . S
C1225 C226 1.135 . S
C1249 C97 1.111 . S
C1257 C115 1.149 . S
C1281 C117 1.181 . S
C1289 C139 1.159 . S
C1313 C163 1.116 . S
C1321 C137 1.131 . S
C1345 C94 1.174 . S
C1353 C160 1.160 . S
C1377 C75 1.145 . S
C1385 C181 1.157 . S
C1409 C205 1.124 . S
C1417 C7 1.135 . S
C1441 C229 1.113 . S
C1449 C27 1.136 . S
C1473 C50 1.178 . S
C1481 C248 1.143 . S
C1505 C273 1.181 . S
C1513 C291 1.158 . S
C1537 C293 1.175 . S
C1545 C315 1.147 . S
C1569 C339 1.146 . S
C1577 C313 1.158 . S
C1601 C270 1.114 . S
C1609 C336 1.146 . S
C1633 C8 1.712 . S
C1641 C48 1.711 . S
C1665 C74 1.699 . S
C1673 C26 1.707 . S
C1697 C92 1.707 . S
C1705 C140 1.713 . S
C1729 C114 1.708 . S
C1737 C162 1.712 . S
C1761 C184 1.713 . S
C1769 C224 1.713 . S
C1793 C250 1.711 . S
C1801 C202 1.713 . S
C1825 C268 1.699 . S
C1833 C316 1.707 . S
C1857 C290 1.707 . S
C1865 C338 1.712 . S
