# Generated by pormake.
# Topology umx, (4)-cn, num edge types: 1
# Building blocks:
#     Node 0, Type 0, BuildingBlock: KUFVIS_clean_sbu_0, # of connection points: 4
#     Node 1, Type 0, BuildingBlock: KUFVIS_clean_sbu_0, # of connection points: 4
#     Node 2, Type 0, BuildingBlock: KUFVIS_clean_sbu_0, # of connection points: 4
#     Node 3, Type 0, BuildingBlock: KUFVIS_clean_sbu_0, # of connection points: 4
#     Node 4, Type 0, BuildingBlock: KUFVIS_clean_sbu_0, # of connection points: 4
#     Node 5, Type 0, BuildingBlock: KUFVIS_clean_sbu_0, # of connection points: 4
#     Node 6, Type 0, BuildingBlock: KUFVIS_clean_sbu_0, # of connection points: 4
#     Node 7, Type 0, BuildingBlock: KUFVIS_clean_sbu_0, # of connection points: 4
#     Edge 8, Type (0, 0), BuildingBlock: UVAHIK_clean_linker_0, # of connection points: 2
#     Edge 9, Type (0, 0), BuildingBlock: UVAHIK_clean_linker_0, # of connection points: 2
#     Edge 10, Type (0, 0), BuildingBlock: UVAHIK_clean_linker_0, # of connection points: 2
#     Edge 11, Type (0, 0), BuildingBlock: UVAHIK_clean_linker_0, # of connection points: 2
#     Edge 12, Type (0, 0), BuildingBlock: UVAHIK_clean_linker_0, # of connection points: 2
#     Edge 13, Type (0, 0), BuildingBlock: UVAHIK_clean_linker_0, # of connection points: 2
#     Edge 14, Type (0, 0), BuildingBlock: UVAHIK_clean_linker_0, # of connection points: 2
#     Edge 15, Type (0, 0), BuildingBlock: UVAHIK_clean_linker_0, # of connection points: 2
#     Edge 16, Type (0, 0), BuildingBlock: UVAHIK_clean_linker_0, # of connection points: 2
#     Edge 17, Type (0, 0), BuildingBlock: UVAHIK_clean_linker_0, # of connection points: 2
#     Edge 18, Type (0, 0), BuildingBlock: UVAHIK_clean_linker_0, # of connection points: 2
#     Edge 19, Type (0, 0), BuildingBlock: UVAHIK_clean_linker_0, # of connection points: 2
#     Edge 20, Type (0, 0), BuildingBlock: UVAHIK_clean_linker_0, # of connection points: 2
#     Edge 21, Type (0, 0), BuildingBlock: UVAHIK_clean_linker_0, # of connection points: 2
#     Edge 22, Type (0, 0), BuildingBlock: UVAHIK_clean_linker_0, # of connection points: 2
#     Edge 23, Type (0, 0), BuildingBlock: UVAHIK_clean_linker_0, # of connection points: 2
# Relax obj value: 0.122
# Max RMSD: 0.266
# Mean RMSD: 0.231
data_MOF--net-umx--node1-KUFVIS_clean_sbu_0--edge1-UVAHIK_clean_linker_0
_symmetry_space_group_name_H-M    P1
_symmetry_Int_Tables_number       1
_symmetry_cell_setting            triclinic
loop_
_symmetry_equiv_pos_as_xyz
'x, y, z'
_cell_length_a     44.695666
_cell_length_b     53.808761
_cell_length_c     36.585144
_cell_angle_alpha  90.054467
_cell_angle_beta   89.993039
_cell_angle_gamma 90.062619
loop_
_atom_site_label
_atom_site_type_symbol
_atom_site_fract_x
_atom_site_fract_y
_atom_site_fract_z
_atom_type_partial_charge
Mn0 Mn 0.19752 0.44872 0.00939 0.0
Mn1 Mn 0.15278 0.4149 0.95426 0.0
C2 C 0.15017 0.46275 -0.00376 0.0
C3 C 0.21606 0.45567 0.06799 0.0
C4 C 0.20475 0.44628 0.92686 0.0
O5 O 0.21757 0.41501 0.00723 0.0
O6 O 0.18305 0.39258 0.97669 0.0
C7 C 0.12262 0.38356 0.0096 0.0
N8 N 0.12097 0.40035 0.98184 0.0
C9 C 0.0672 0.40106 0.98514 0.0
C10 C 0.06831 0.38366 0.01361 0.0
C11 C 0.09615 0.37492 0.02594 0.0
C12 C 0.09431 0.40894 0.96984 0.0
H13 H 0.14398 0.37687 0.01924 0.0
C14 C 0.20744 0.39447 0.9949 0.0
O15 O 0.23099 0.46265 0.03927 0.0
O16 O 0.19065 0.44466 0.06249 0.0
N17 N 0.12223 0.4342 0.93108 0.0
C18 C 0.12509 0.45177 0.90449 0.0
C19 C 0.09934 0.46277 0.88967 0.0
C20 C 0.07093 0.4555 0.90213 0.0
C21 C 0.06852 0.43722 0.92927 0.0
C22 C 0.09497 0.42675 0.94278 0.0
H23 H 0.14684 0.45741 0.8947 0.0
O24 O 0.17021 0.47805 0.00866 0.0
O25 O 0.15834 0.43971 0.99281 0.0
O26 O 0.21147 0.4564 0.95735 0.0
O27 O 0.18439 0.42973 0.92332 0.0
C28 C 0.04095 0.42927 0.94383 0.0
C29 C 0.04029 0.41125 0.97181 0.0
H30 H 0.04796 0.37704 0.02641 0.0
H31 H 0.09719 0.36159 0.04803 0.0
H32 H 0.10138 0.47687 0.86874 0.0
H33 H 0.05113 0.46417 0.89083 0.0
H34 H 0.02014 0.43715 0.93407 0.0
H35 H 0.01898 0.40554 0.98314 0.0
Mn36 Mn 0.52029 0.17185 0.51064 0.0
Mn37 Mn 0.49262 0.22965 0.52362 0.0
C38 C 0.5192 0.18803 0.56838 0.0
C39 C 0.51168 0.12967 0.50238 0.0
C40 C 0.55516 0.21962 0.49545 0.0
O41 O 0.4997 0.17954 0.46305 0.0
O42 O 0.47968 0.21701 0.47493 0.0
C43 C 0.42868 0.2158 0.52873 0.0
N44 N 0.45325 0.22689 0.54353 0.0
C45 C 0.42564 0.23899 0.59712 0.0
C46 C 0.39996 0.22786 0.58233 0.0
C47 C 0.40152 0.21616 0.54802 0.0
C48 C 0.45206 0.23806 0.5766 0.0
H49 H 0.42986 0.20671 0.50243 0.0
C50 C 0.48425 0.19835 0.45392 0.0
O51 O 0.53585 0.14018 0.49013 0.0
O52 O 0.49259 0.14367 0.5194 0.0
N53 N 0.50309 0.24492 0.56911 0.0
C54 C 0.53 0.25444 0.57972 0.0
C55 C 0.53239 0.26649 0.61367 0.0
C56 C 0.50703 0.26899 0.63605 0.0
C57 C 0.47942 0.25963 0.6241 0.0
C58 C 0.47837 0.24792 0.58992 0.0
H59 H 0.54954 0.25265 0.56257 0.0
O60 O 0.53603 0.16907 0.56091 0.0
O61 O 0.50201 0.19622 0.54218 0.0
O62 O 0.55417 0.19593 0.49737 0.0
O63 O 0.53333 0.23384 0.50399 0.0
C64 C 0.45301 0.26108 0.64503 0.0
C65 C 0.42616 0.2507 0.6316 0.0
H66 H 0.37899 0.22805 0.59717 0.0
H67 H 0.38183 0.20742 0.53651 0.0
H68 H 0.55375 0.27377 0.62262 0.0
H69 H 0.50903 0.27807 0.66238 0.0
H70 H 0.45317 0.2699 0.67165 0.0
H71 H 0.40608 0.2517 0.64809 0.0
Mn72 Mn 0.7928 0.54175 0.01362 0.0
Mn73 Mn 0.83568 0.57918 0.96162 0.0
C74 C 0.84084 0.5299 -0.00053 0.0
C75 C 0.77457 0.53236 0.07161 0.0
C76 C 0.78511 0.54725 0.93168 0.0
O77 O 0.77098 0.57477 0.01399 0.0
O78 O 0.8049 0.59961 0.98672 0.0
C79 C 0.86531 0.60893 0.0193 0.0
N80 N 0.86726 0.59337 0.99002 0.0
C81 C 0.92107 0.594 0.99235 0.0
C82 C 0.91964 0.61016 0.02239 0.0
C83 C 0.89163 0.6176 0.03597 0.0
C84 C 0.89408 0.58604 0.97679 0.0
H85 H 0.84382 0.61462 0.02989 0.0
C86 C 0.78046 0.59615 0.00432 0.0
O87 O 0.76006 0.52569 0.04239 0.0
O88 O 0.79945 0.54434 0.06695 0.0
N89 N 0.86667 0.56169 0.93619 0.0
C90 C 0.86417 0.54512 0.90816 0.0
C91 C 0.89015 0.53539 0.89202 0.0
C92 C 0.91842 0.5429 0.90468 0.0
C93 C 0.92044 0.56015 0.93333 0.0
C94 C 0.89377 0.56937 0.94814 0.0
H95 H 0.84253 0.5393 0.89821 0.0
O96 O 0.82166 0.51349 0.01076 0.0
O97 O 0.83146 0.55269 -0.00218 0.0
O98 O 0.77939 0.53532 0.961 0.0
O99 O 0.80424 0.5649 0.92974 0.0
C100 C 0.94788 0.56823 0.94816 0.0
C101 C 0.94819 0.58511 0.97769 0.0
H102 H 0.93988 0.61679 0.03544 0.0
H103 H 0.89035 0.62997 0.05926 0.0
H104 H 0.8884 0.52208 0.86992 0.0
H105 H 0.9384 0.53519 0.89237 0.0
H106 H 0.96886 0.56131 0.93739 0.0
H107 H 0.96941 0.59091 0.98919 0.0
Mn108 Mn 0.47437 0.82242 0.50964 0.0
Mn109 Mn 0.51149 0.76777 0.51228 0.0
C110 C 0.48701 0.80588 0.56504 0.0
C111 C 0.47612 0.86521 0.50201 0.0
C112 C 0.44482 0.7719 0.49855 0.0
O113 O 0.4878 0.81723 0.45767 0.0
O114 O 0.51555 0.7825 0.46259 0.0
C115 C 0.57304 0.78742 0.50518 0.0
N116 N 0.55248 0.77383 0.524 0.0
C117 C 0.58867 0.76318 0.57006 0.0
C118 C 0.61032 0.77692 0.55103 0.0
C119 C 0.60244 0.78914 0.5185 0.0
C120 C 0.55977 0.76208 0.5554 0.0
H121 H 0.56698 0.7969 0.48024 0.0
C122 C 0.50455 0.80051 0.44408 0.0
O123 O 0.45186 0.85274 0.4951 0.0
O124 O 0.49917 0.85282 0.51342 0.0
N125 N 0.50955 0.75084 0.55817 0.0
C126 C 0.48577 0.73903 0.57377 0.0
C127 C 0.48969 0.72632 0.60694 0.0
C128 C 0.51807 0.72557 0.62341 0.0
C129 C 0.54233 0.73738 0.6064 0.0
C130 C 0.5371 0.74965 0.57327 0.0
H131 H 0.46394 0.7395 0.56117 0.0
O132 O 0.46678 0.82309 0.56284 0.0
O133 O 0.50053 0.7997 0.53476 0.0
O134 O 0.44244 0.79538 0.50291 0.0
O135 O 0.46951 0.76004 0.50082 0.0
C136 C 0.57137 0.7379 0.62138 0.0
C137 C 0.5945 0.75084 0.60327 0.0
H138 H 0.63299 0.77836 0.56128 0.0
H139 H 0.61898 0.79988 0.50376 0.0
H140 H 0.47087 0.71719 0.61983 0.0
H141 H 0.52093 0.71596 0.64917 0.0
H142 H 0.57606 0.72868 0.64705 0.0
H143 H 0.61664 0.75135 0.61528 0.0
Mn144 Mn 0.19798 0.53678 0.49418 0.0
Mn145 Mn 0.15728 0.57549 0.54682 0.0
C146 C 0.14945 0.52654 0.50844 0.0
C147 C 0.21563 0.52694 0.43607 0.0
C148 C 0.20618 0.54174 0.57618 0.0
O149 O 0.22152 0.56898 0.49412 0.0
O150 O 0.18939 0.59493 0.52234 0.0
C151 C 0.12956 0.60663 0.48946 0.0
N152 N 0.12664 0.59102 0.51852 0.0
C153 C 0.07293 0.59361 0.51592 0.0
C154 C 0.07537 0.60985 0.48611 0.0
C155 C 0.10381 0.61634 0.47279 0.0
C156 C 0.09939 0.5846 0.53151 0.0
H157 H 0.15139 0.61158 0.47907 0.0
C158 C 0.21358 0.5906 0.50464 0.0
O159 O 0.22982 0.51973 0.4652 0.0
O160 O 0.19139 0.53974 0.44088 0.0
N161 N 0.12527 0.55907 0.57188 0.0
C162 C 0.12677 0.54231 0.59973 0.0
C163 C 0.10021 0.53347 0.61563 0.0
C164 C 0.07243 0.54205 0.60292 0.0
C165 C 0.07146 0.55948 0.57449 0.0
C166 C 0.09867 0.5678 0.55993 0.0
H167 H 0.14803 0.53566 0.60968 0.0
O168 O 0.16774 0.50954 0.49689 0.0
O169 O 0.15998 0.54902 0.51024 0.0
O170 O 0.21124 0.52976 0.5467 0.0
O171 O 0.18781 0.55989 0.57848 0.0
C172 C 0.04456 0.56861 0.55962 0.0
C173 C 0.04529 0.58563 0.53031 0.0
H174 H 0.05556 0.61727 0.47304 0.0
H175 H 0.10586 0.62876 0.44967 0.0
H176 H 0.10115 0.52001 0.63756 0.0
H177 H 0.052 0.53501 0.61503 0.0
H178 H 0.02318 0.5624 0.57017 0.0
H179 H 0.02446 0.59225 0.51877 0.0
Mn180 Mn 0.47345 0.17176 0.00036 0.0
Mn181 Mn 0.50349 0.22942 -0.00207 0.0
C182 C 0.48641 0.18861 0.94526 0.0
C183 C 0.47956 0.12938 0.0092 0.0
C184 C 0.43716 0.21962 0.00678 0.0
O185 O 0.48387 0.17864 0.05295 0.0
O186 O 0.50622 0.216 0.04856 0.0
C187 C 0.5664 0.21508 0.01139 0.0
N188 N 0.54559 0.22655 0.99012 0.0
C189 C 0.58307 0.23897 0.94658 0.0
C190 C 0.60496 0.22745 0.96816 0.0
C191 C 0.59657 0.2154 0.00065 0.0
C192 C 0.55338 0.23807 0.95871 0.0
H193 H 0.55997 0.20573 0.0363 0.0
C194 C 0.49716 0.19724 0.06702 0.0
O195 O 0.45383 0.14002 0.01437 0.0
O196 O 0.5017 0.1434 -0.00093 0.0
N197 N 0.50245 0.24534 0.95122 0.0
C198 C 0.47853 0.25522 0.93331 0.0
C199 C 0.48301 0.26764 0.9 0.0
C200 C 0.51205 0.27013 0.88578 0.0
C201 C 0.5364 0.26039 0.90521 0.0
C202 C 0.53058 0.24832 0.93836 0.0
H203 H 0.45617 0.25343 0.94418 0.0
O204 O 0.46828 0.1698 0.94683 0.0
O205 O 0.4978 0.19633 0.97609 0.0
O206 O 0.43825 0.19597 0.00415 0.0
O207 O 0.46015 0.23374 0.00523 0.0
C208 C 0.56617 0.2618 0.89269 0.0
C209 C 0.58948 0.25104 0.91331 0.0
H210 H 0.62824 0.2276 0.95992 0.0
H211 H 0.61331 0.20637 0.01735 0.0
H212 H 0.46411 0.2752 0.88526 0.0
H213 H 0.51539 0.2795 0.85991 0.0
H214 H 0.57135 0.2709 0.86706 0.0
H215 H 0.61223 0.25204 0.90323 0.0
Mn216 Mn 0.79024 0.45276 0.49767 0.0
Mn217 Mn 0.8336 0.41746 0.55221 0.0
C218 C 0.83806 0.46561 0.51129 0.0
C219 C 0.7721 0.46057 0.43914 0.0
C220 C 0.78279 0.4499 0.58013 0.0
O221 O 0.76896 0.41949 0.49899 0.0
O222 O 0.80274 0.39604 0.52891 0.0
C223 C 0.86294 0.38599 0.49635 0.0
N224 N 0.86503 0.40248 0.52449 0.0
C225 C 0.91882 0.40208 0.52153 0.0
C226 C 0.91725 0.38496 0.49267 0.0
C227 C 0.88918 0.37693 0.47999 0.0
C228 C 0.89192 0.41039 0.53685 0.0
H229 H 0.84141 0.37984 0.48643 0.0
C230 C 0.7785 0.3986 0.51059 0.0
O231 O 0.75737 0.4677 0.46794 0.0
O232 O 0.7971 0.44896 0.44451 0.0
N233 N 0.8647 0.43587 0.57605 0.0
C234 C 0.86233 0.45326 0.60301 0.0
C235 C 0.88839 0.46359 0.61819 0.0
C236 C 0.91659 0.45584 0.60569 0.0
C237 C 0.91848 0.43775 0.57819 0.0
C238 C 0.89175 0.42795 0.56432 0.0
H239 H 0.84074 0.45928 0.61281 0.0
O240 O 0.81861 0.48145 0.49909 0.0
O241 O 0.82907 0.44274 0.51421 0.0
O242 O 0.77651 0.46038 0.54981 0.0
O243 O 0.80239 0.43273 0.58336 0.0
C244 C 0.94584 0.42935 0.56359 0.0
C245 C 0.94601 0.41157 0.53523 0.0
H246 H 0.93743 0.37802 0.47985 0.0
H247 H 0.88779 0.36381 0.4576 0.0
H248 H 0.88674 0.47755 0.63941 0.0
H249 H 0.93663 0.464 0.61726 0.0
H250 H 0.96686 0.43671 0.57363 0.0
H251 H 0.96717 0.40551 0.52388 0.0
Mn252 Mn 0.52203 0.82219 0.00014 0.0
Mn253 Mn 0.49126 0.76529 0.98836 0.0
C254 C 0.51986 0.80555 0.94277 0.0
C255 C 0.51626 0.86473 0.00757 0.0
C256 C 0.55445 0.77322 0.01554 0.0
O257 O 0.50108 0.81585 0.04786 0.0
O258 O 0.48004 0.77853 0.03737 0.0
C259 C 0.42809 0.78149 0.98505 0.0
N260 N 0.45171 0.76947 0.96959 0.0
C261 C 0.42244 0.75838 0.91684 0.0
C262 C 0.39771 0.77047 0.93232 0.0
C263 C 0.40058 0.78213 0.96653 0.0
C264 C 0.44926 0.75832 0.93661 0.0
H265 H 0.43027 0.79055 0.01127 0.0
C266 C 0.48532 0.79738 0.05778 0.0
O267 O 0.53968 0.85326 0.02002 0.0
O268 O 0.49621 0.85146 0.99084 0.0
N269 N 0.49995 0.74948 0.94272 0.0
C270 C 0.52606 0.7389 0.93142 0.0
C271 C 0.52712 0.72675 0.89746 0.0
C272 C 0.50124 0.72522 0.87578 0.0
C273 C 0.47444 0.73566 0.88845 0.0
C274 C 0.4747 0.74743 0.92261 0.0
H275 H 0.54599 0.73995 0.94803 0.0
O276 O 0.53787 0.82385 0.94988 0.0
O277 O 0.50221 0.79827 0.96913 0.0
O278 O 0.55439 0.79693 0.01391 0.0
O279 O 0.53206 0.75964 0.00685 0.0
C280 C 0.4476 0.73523 0.86825 0.0
C281 C 0.42164 0.74664 0.8824 0.0
H282 H 0.37647 0.77107 0.91808 0.0
H283 H 0.38163 0.79161 0.97857 0.0
H284 H 0.54786 0.71863 0.88796 0.0
H285 H 0.50223 0.71605 0.84944 0.0
H286 H 0.44677 0.7264 0.84165 0.0
H287 H 0.40122 0.74639 0.86647 0.0
C288 C 0.21205 0.44942 0.13528 0.0
C289 C 0.22668 0.4606 0.10555 0.0
C290 C 0.22005 0.45541 0.17105 0.0
C291 C 0.24825 0.46423 0.24511 0.0
H292 H 0.25022 0.53494 0.26545 0.0
C293 C 0.24822 0.5027 0.39292 0.0
C294 C 0.22597 0.52069 0.39882 0.0
C295 C 0.25611 0.49573 0.35729 0.0
C296 C 0.24997 0.51512 0.26018 0.0
H297 H 0.26193 0.48617 0.08992 0.0
H298 H 0.2758 0.4969 0.15282 0.0
H299 H 0.25009 0.52048 0.20223 0.0
H300 H 0.19543 0.54621 0.37216 0.0
H301 H 0.2091 0.53413 0.3104 0.0
H302 H 0.24646 0.45894 0.30305 0.0
C303 C 0.25809 0.4835 0.14827 0.0
C304 C 0.2502 0.50683 0.22398 0.0
C305 C 0.25023 0.4773 0.11233 0.0
C306 C 0.21258 0.5322 0.36854 0.0
C307 C 0.22062 0.52545 0.33309 0.0
C308 C 0.24814 0.47252 0.28132 0.0
C309 C 0.24276 0.47286 0.178 0.0
C310 C 0.24827 0.48132 0.21605 0.0
C311 C 0.24214 0.50689 0.32701 0.0
C312 C 0.24793 0.49809 0.2892 0.0
H313 H 0.19389 0.43639 0.13096 0.0
H314 H 0.20751 0.44715 0.19327 0.0
H315 H 0.24714 0.44444 0.23982 0.0
H316 H 0.25896 0.49354 0.41577 0.0
H317 H 0.27286 0.48144 0.3534 0.0
C318 C 0.4919 0.19756 0.62578 0.0
C319 C 0.51865 0.19739 0.60587 0.0
C320 C 0.49212 0.20389 0.66279 0.0
C321 C 0.5387 0.19829 0.74196 0.0
H322 H 0.48124 0.24232 0.78785 0.0
C323 C 0.52425 0.19851 0.89762 0.0
C324 C 0.49444 0.19848 0.90938 0.0
C325 C 0.53119 0.2049 0.86159 0.0
C326 C 0.4974 0.22992 0.77545 0.0
H327 H 0.56667 0.20222 0.60858 0.0
H328 H 0.56718 0.21305 0.67366 0.0
H329 H 0.48514 0.24108 0.72119 0.0
H330 H 0.44838 0.20382 0.8932 0.0
H331 H 0.46012 0.21425 0.83016 0.0
H332 H 0.5496 0.18569 0.79553 0.0
C333 C 0.54601 0.20905 0.66048 0.0
C334 C 0.49967 0.22933 0.73739 0.0
C335 C 0.54572 0.20291 0.62346 0.0
C336 C 0.47161 0.20445 0.88475 0.0
C337 C 0.47843 0.21065 0.84877 0.0
C338 C 0.53612 0.19858 0.77991 0.0
C339 C 0.51923 0.20943 0.68047 0.0
C340 C 0.51979 0.21302 0.7204 0.0
C341 C 0.50827 0.21064 0.83656 0.0
C342 C 0.51478 0.21383 0.79707 0.0
H343 H 0.471 0.1923 0.61292 0.0
H344 H 0.47128 0.20351 0.6779 0.0
H345 H 0.55423 0.18541 0.72939 0.0
H346 H 0.54205 0.19306 0.91603 0.0
H347 H 0.55441 0.20482 0.85317 0.0
C348 C 0.73864 0.48307 0.39506 0.0
C349 C 0.76168 0.4659 0.40164 0.0
C350 C 0.73093 0.48953 0.35918 0.0
C351 C 0.73934 0.51285 0.28359 0.0
H352 H 0.74147 0.46502 0.20422 0.0
C353 C 0.77765 0.53759 0.13914 0.0
C354 C 0.7639 0.52638 0.1088 0.0
C355 C 0.76935 0.531 0.17456 0.0
C356 C 0.74023 0.4786 0.22603 0.0
H357 H 0.79372 0.44118 0.37594 0.0
H358 H 0.78037 0.45238 0.31376 0.0
H359 H 0.74051 0.45045 0.26737 0.0
H360 H 0.73002 0.49996 0.0917 0.0
H361 H 0.71567 0.48814 0.15402 0.0
H362 H 0.74007 0.54101 0.24228 0.0
C363 C 0.7681 0.46081 0.33608 0.0
C364 C 0.73997 0.47026 0.2622 0.0
C365 C 0.77596 0.45456 0.37178 0.0
C366 C 0.74103 0.50888 0.1146 0.0
C367 C 0.73289 0.50207 0.15021 0.0
C368 C 0.73973 0.52119 0.24743 0.0
C369 C 0.74589 0.47868 0.32933 0.0
C370 C 0.74053 0.48731 0.29136 0.0
C371 C 0.74722 0.5129 0.18054 0.0
C372 C 0.74119 0.50416 0.21831 0.0
H373 H 0.72722 0.49208 0.41756 0.0
H374 H 0.71362 0.50327 0.35479 0.0
H375 H 0.73991 0.52646 0.30541 0.0
H376 H 0.79528 0.55121 0.13559 0.0
H377 H 0.78115 0.53942 0.19728 0.0
C378 C 0.49186 0.79658 0.88563 0.0
C379 C 0.51868 0.79601 0.9054 0.0
C380 C 0.4917 0.79041 0.84856 0.0
C381 C 0.5372 0.7972 0.76971 0.0
H382 H 0.48214 0.75176 0.7223 0.0
C383 C 0.52444 0.79844 0.61403 0.0
C384 C 0.49506 0.79639 0.60113 0.0
C385 C 0.53115 0.79217 0.65014 0.0
C386 C 0.49754 0.76464 0.73509 0.0
H387 H 0.56647 0.78988 0.90238 0.0
H388 H 0.56634 0.77953 0.83712 0.0
H389 H 0.48555 0.75245 0.78903 0.0
H390 H 0.44935 0.78761 0.6155 0.0
H391 H 0.46051 0.77769 0.67884 0.0
H392 H 0.54767 0.81095 0.71669 0.0
C393 C 0.54537 0.78388 0.85054 0.0
C394 C 0.49958 0.76486 0.77319 0.0
C395 C 0.54544 0.78978 0.88763 0.0
C396 C 0.47234 0.78859 0.62482 0.0
C397 C 0.47887 0.78267 0.66099 0.0
C398 C 0.53473 0.79738 0.73176 0.0
C399 C 0.51855 0.78437 0.83069 0.0
C400 C 0.51899 0.78152 0.7907 0.0
C401 C 0.50831 0.78466 0.6743 0.0
C402 C 0.51431 0.78154 0.71398 0.0
H403 H 0.47124 0.8024 0.89862 0.0
H404 H 0.47087 0.79142 0.8335 0.0
H405 H 0.55214 0.81037 0.78277 0.0
H406 H 0.54205 0.80535 0.59641 0.0
H407 H 0.55412 0.7937 0.65925 0.0
C408 C 0.75754 0.48384 0.61553 0.0
C409 C 0.76893 0.4595 0.61407 0.0
C410 C 0.74932 0.49438 0.64901 0.0
C411 C 0.76352 0.51534 0.72452 0.0
H412 H 0.721 0.48205 0.80284 0.0
C413 C 0.76499 0.51383 0.891 0.0
C414 C 0.77101 0.53909 0.8972 0.0
C415 C 0.75667 0.50555 0.85621 0.0
C416 C 0.73309 0.49155 0.78135 0.0
H417 H 0.7784 0.42653 0.64615 0.0
H418 H 0.76372 0.44487 0.70439 0.0
H419 H 0.72076 0.46416 0.74139 0.0
H420 H 0.77061 0.57578 0.87292 0.0
H421 H 0.75457 0.56163 0.8128 0.0
H422 H 0.7777 0.54175 0.76428 0.0
C423 C 0.7613 0.45581 0.67972 0.0
C424 C 0.73276 0.48137 0.74614 0.0
C425 C 0.7699 0.44538 0.64638 0.0
C426 C 0.76647 0.55614 0.86873 0.0
C427 C 0.75752 0.54796 0.83419 0.0
C428 C 0.76425 0.5253 0.75972 0.0
C429 C 0.75189 0.48067 0.68153 0.0
C430 C 0.74842 0.49296 0.71755 0.0
C431 C 0.75365 0.52244 0.82703 0.0
C432 C 0.74954 0.51332 0.78883 0.0
H433 H 0.75653 0.49522 0.59117 0.0
H434 H 0.74196 0.51355 0.64966 0.0
H435 H 0.77621 0.52446 0.70315 0.0
H436 H 0.76853 0.50026 0.91242 0.0
H437 H 0.75426 0.48575 0.85186 0.0
C438 C 0.47478 0.81844 0.11703 0.0
C439 C 0.47639 0.7964 0.09651 0.0
C440 C 0.47365 0.81754 0.15508 0.0
C441 C 0.50249 0.77921 0.22765 0.0
H442 H 0.45654 0.82247 0.29108 0.0
C443 C 0.51202 0.7777 0.38537 0.0
C444 C 0.50795 0.80028 0.40401 0.0
C445 C 0.50842 0.77654 0.3475 0.0
C446 C 0.46986 0.81053 0.27367 0.0
H447 H 0.47573 0.75613 0.09948 0.0
H448 H 0.47396 0.75461 0.1662 0.0
H449 H 0.44497 0.82079 0.22599 0.0
H450 H 0.49959 0.83972 0.39742 0.0
H451 H 0.49448 0.83788 0.33125 0.0
H452 H 0.52806 0.76951 0.27492 0.0
C453 C 0.47371 0.77253 0.15272 0.0
C454 C 0.46299 0.80941 0.23652 0.0
C455 C 0.47444 0.77343 0.11458 0.0
C456 C 0.50252 0.822 0.38381 0.0
C457 C 0.49926 0.82088 0.34596 0.0
C458 C 0.50956 0.78049 0.26476 0.0
C459 C 0.47442 0.79459 0.17325 0.0
C460 C 0.47939 0.79388 0.21315 0.0
C461 C 0.50101 0.79799 0.32755 0.0
C462 C 0.49352 0.79636 0.28812 0.0
H463 H 0.47609 0.83641 0.10378 0.0
H464 H 0.47426 0.83482 0.17028 0.0
H465 H 0.51584 0.76741 0.21004 0.0
H466 H 0.51601 0.76061 0.40023 0.0
H467 H 0.50985 0.75859 0.3342 0.0
C468 C 0.23204 0.47934 0.89188 0.0
C469 C 0.21931 0.45545 0.89313 0.0
C470 C 0.24122 0.48951 0.85855 0.0
C471 C 0.22886 0.51084 0.78294 0.0
H472 H 0.26892 0.47547 0.70462 0.0
C473 C 0.22509 0.50794 0.61684 0.0
C474 C 0.22039 0.53333 0.61037 0.0
C475 C 0.23363 0.49969 0.65154 0.0
C476 C 0.25756 0.48557 0.72613 0.0
H477 H 0.20846 0.42278 0.86091 0.0
H478 H 0.22471 0.44047 0.80295 0.0
H479 H 0.26852 0.45799 0.76628 0.0
H480 H 0.22346 0.57021 0.63387 0.0
H481 H 0.23984 0.55603 0.69378 0.0
H482 H 0.21597 0.5375 0.743 0.0
C483 C 0.22748 0.45136 0.82764 0.0
C484 C 0.25753 0.47562 0.76145 0.0
C485 C 0.21795 0.44131 0.86083 0.0
C486 C 0.22652 0.55047 0.63833 0.0
C487 C 0.23569 0.54229 0.67274 0.0
C488 C 0.22851 0.5206 0.74765 0.0
C489 C 0.23826 0.47585 0.82599 0.0
C490 C 0.24264 0.48793 0.79001 0.0
C491 C 0.23818 0.51673 0.68028 0.0
C492 C 0.24228 0.50785 0.71854 0.0
H493 H 0.23341 0.49071 0.91628 0.0
H494 H 0.24963 0.5084 0.85802 0.0
H495 H 0.21677 0.52055 0.80428 0.0
H496 H 0.22034 0.49433 0.59578 0.0
H497 H 0.23497 0.47986 0.65623 0.0
C498 C 0.47129 0.22308 0.39842 0.0
C499 C 0.47445 0.19985 0.41551 0.0
C500 C 0.46906 0.22461 0.36041 0.0
C501 C 0.45616 0.18858 0.27603 0.0
H502 H 0.51809 0.23081 0.2351 0.0
C503 C 0.49451 0.17663 0.12802 0.0
C504 C 0.49898 0.19828 0.10728 0.0
C505 C 0.49084 0.17808 0.16579 0.0
C506 C 0.5004 0.2192 0.24599 0.0
H507 H 0.47486 0.15997 0.4067 0.0
H508 H 0.47055 0.16266 0.3405 0.0
H509 H 0.508 0.23207 0.30056 0.0
H510 H 0.50458 0.2383 0.11011 0.0
H511 H 0.49782 0.24084 0.17606 0.0
H512 H 0.44861 0.17558 0.22162 0.0
C513 C 0.47008 0.17967 0.35635 0.0
C514 C 0.49455 0.21999 0.28344 0.0
C515 C 0.47268 0.17814 0.39424 0.0
C516 C 0.50134 0.22126 0.12535 0.0
C517 C 0.49741 0.22273 0.16316 0.0
C518 C 0.46185 0.18791 0.23856 0.0
C519 C 0.46949 0.20293 0.33901 0.0
C520 C 0.47272 0.20439 0.29887 0.0
C521 C 0.4913 0.20121 0.18364 0.0
C522 C 0.48443 0.20287 0.22322 0.0
H523 H 0.47262 0.24014 0.41409 0.0
H524 H 0.46826 0.24275 0.34764 0.0
H525 H 0.43905 0.17651 0.28724 0.0
H526 H 0.4929 0.15861 0.11494 0.0
H527 H 0.48705 0.16107 0.18093 0.0
C528 C 0.88267 0.50446 0.97476 0.0
C529 C 0.87258 0.52354 -0.0023 0.0
C530 C 0.91304 0.49834 0.9739 0.0
C531 C 0.98097 0.50186 0.96311 0.0
H532 H 0.02253 0.49187 0.05503 0.0
C533 C 0.1095 0.49054 0.97431 0.0
C534 C 0.11877 0.47025 -0.0046 0.0
C535 C 0.07943 0.49762 0.97419 0.0
C536 C 0.01118 0.49456 0.02918 0.0
H537 H 0.88506 0.5499 0.03972 0.0
H538 H 0.93818 0.5392 0.03847 0.0
H539 H 0.96943 0.50233 0.05532 0.0
H540 H 0.10522 0.44268 0.03512 0.0
H541 H 0.05263 0.45503 0.03516 0.0
H542 H 0.02283 0.49393 0.93702 0.0
C543 C 0.92293 0.5293 0.02063 0.0
C544 C 0.98091 0.5007 0.02935 0.0
C545 C 0.89272 0.53557 0.02112 0.0
C546 C 0.09818 0.45797 0.01789 0.0
C547 C 0.06827 0.46519 0.01817 0.0
C548 C 0.01139 0.49592 0.96295 0.0
C549 C 0.93342 0.51078 -0.0032 0.0
C550 C 0.96551 0.5043 -0.00366 0.0
C551 C 0.05856 0.48491 -0.00394 0.0
C552 C 0.02668 0.49209 -0.004 0.0
H553 H 0.86717 0.49463 0.95714 0.0
H554 H 0.92054 0.48374 0.9557 0.0
H555 H 0.96961 0.50477 0.93732 0.0
H556 H 0.12538 0.50055 0.95745 0.0
H557 H 0.07252 0.5131 0.9573 0.0
C558 C 0.4515 0.90667 0.49455 0.0
C559 C 0.47769 0.89238 0.49722 0.0
C560 C 0.45327 0.93254 0.49154 0.0
C561 C 0.50267 0.98335 0.46374 0.0
H562 H 0.45914 0.02298 0.53448 0.0
C563 C 0.52953 0.08679 0.48782 0.0
C564 C 0.50613 0.10285 0.49757 0.0
C565 C 0.52448 0.06125 0.48482 0.0
C566 C 0.47101 0.01231 0.514 0.0
H567 H 0.5262 0.89376 0.49783 0.0
H568 H 0.52923 0.93885 0.49193 0.0
H569 H 0.45251 0.97805 0.5335 0.0
H570 H 0.45889 0.105 0.51059 0.0
H571 H 0.44977 0.0606 0.5041 0.0
H572 H 0.52097 0.01746 0.44384 0.0
C573 C 0.5074 0.93008 0.49235 0.0
C574 C 0.46725 0.98655 0.51358 0.0
C575 C 0.50563 0.90432 0.49596 0.0
C576 C 0.47743 0.093 0.50339 0.0
C577 C 0.47226 0.06752 0.49988 0.0
C578 C 0.50612 0.00915 0.46377 0.0
C579 C 0.48125 0.94444 0.49047 0.0
C580 C 0.48337 0.97183 0.48882 0.0
C581 C 0.49579 0.05125 0.49099 0.0
C582 C 0.49069 0.02394 0.48929 0.0
H583 H 0.42967 0.89793 0.49548 0.0
H584 H 0.4328 0.94325 0.49 0.0
H585 H 0.51513 0.97237 0.44412 0.0
H586 H 0.55193 0.09387 0.48335 0.0
H587 H 0.54327 0.04931 0.47855 0.0
C588 C 0.09765 0.53381 0.48756 0.0
C589 C 0.11746 0.52114 0.51059 0.0
C590 C 0.0672 0.52825 0.48823 0.0
C591 C 0.00834 0.50083 0.47922 0.0
H592 H 0.96641 0.4939 0.57152 0.0
C593 C 0.88999 0.45991 0.48988 0.0
C594 C 0.86971 0.47241 0.51253 0.0
C595 C 0.92011 0.46656 0.48986 0.0
C596 C 0.97786 0.49595 0.5456 0.0
H597 H 0.12199 0.49184 0.55062 0.0
H598 H 0.06827 0.48222 0.55235 0.0
H599 H 0.01989 0.50398 0.57129 0.0
H600 H 0.86394 0.50251 0.55109 0.0
H601 H 0.91717 0.51404 0.55168 0.0
H602 H 0.96648 0.49281 0.45347 0.0
C603 C 0.0762 0.49678 0.53436 0.0
C604 C 0.00841 0.50146 0.54547 0.0
C605 C 0.10677 0.50217 0.53333 0.0
C606 C 0.87955 0.49233 0.5341 0.0
C607 C 0.90984 0.49882 0.53446 0.0
C608 C 0.97793 0.49513 0.47935 0.0
C609 C 0.05616 0.50982 0.51181 0.0
C610 C 0.02388 0.50394 0.51225 0.0
C611 C 0.93037 0.48592 0.51238 0.0
C612 C 0.96242 0.49259 0.51251 0.0
H613 H 0.10574 0.54803 0.46908 0.0
H614 H 0.05223 0.5386 0.47064 0.0
H615 H 0.01981 0.50248 0.45325 0.0
H616 H 0.88253 0.44492 0.4723 0.0
H617 H 0.93548 0.45625 0.47269 0.0
C618 C 0.53701 0.90672 0.02217 0.0
C619 C 0.51261 0.89179 0.01193 0.0
C620 C 0.53377 0.93246 0.02495 0.0
C621 C 0.47892 0.98188 0.03877 0.0
H622 H 0.53506 0.02317 0.98544 0.0
C623 C 0.45858 0.08651 0.01509 0.0
C624 C 0.48349 0.10238 0.01387 0.0
C625 C 0.46246 0.0608 0.0175 0.0
C626 C 0.51949 0.01201 0.00109 0.0
H627 H 0.46554 0.89192 -0.00251 0.0
H628 H 0.45981 0.93692 0.00292 0.0
H629 H 0.54147 0.97825 0.9857 0.0
H630 H 0.53193 0.10403 0.01562 0.0
H631 H 0.53874 0.05933 0.02118 0.0
H632 H 0.45713 0.01554 0.05471 0.0
C633 C 0.48142 0.92869 0.00862 0.0
C634 C 0.52314 0.98626 0.00107 0.0
C635 C 0.48476 0.90299 0.00531 0.0
C636 C 0.51231 0.09219 0.01613 0.0
C637 C 0.5162 0.06654 0.01907 0.0
C638 C 0.47548 0.00768 0.03923 0.0
C639 C 0.50596 0.94366 0.0181 0.0
C640 C 0.50276 0.97097 0.01964 0.0
C641 C 0.49135 0.05047 0.01925 0.0
C642 C 0.49558 0.02307 0.02012 0.0
H643 H 0.55874 0.89857 0.02743 0.0
H644 H 0.55297 0.94364 0.03252 0.0
H645 H 0.46307 0.97045 0.05358 0.0
H646 H 0.43609 0.09388 0.01321 0.0
H647 H 0.4428 0.04903 0.017 0.0
C648 C 0.21528 0.34848 0.98832 0.0
C649 C 0.2248 0.3716 0.00212 0.0
C650 C 0.23232 0.3271 0.99424 0.0
C651 C 0.29428 0.30213 0.05071 0.0
H652 H 0.31316 0.26328 0.96439 0.0
C653 C 0.40655 0.25533 0.02827 0.0
C654 C 0.40787 0.23163 0.01223 0.0
C655 C 0.37928 0.26745 0.03228 0.0
C656 C 0.30759 0.27354 0.98895 0.0
H657 H 0.25929 0.39016 0.03389 0.0
H658 H 0.28905 0.35311 0.04362 0.0
H659 H 0.27346 0.2943 0.9617 0.0
H660 H 0.38161 0.2018 0.98845 0.0
H661 H 0.33361 0.22349 0.99475 0.0
H662 H 0.32964 0.28235 0.07727 0.0
C663 C 0.26824 0.3514 0.02867 0.0
C664 C 0.28487 0.29131 0.98743 0.0
C665 C 0.25129 0.37272 0.02273 0.0
C666 C 0.38121 0.22006 0.00093 0.0
C667 C 0.35383 0.23243 0.00446 0.0
C668 C 0.31705 0.28447 0.05216 0.0
C669 C 0.2591 0.3284 0.01421 0.0
C670 C 0.27883 0.30645 0.01789 0.0
C671 C 0.35272 0.25629 0.02 0.0
C672 C 0.32465 0.27073 0.02088 0.0
H673 H 0.19486 0.34689 0.97254 0.0
H674 H 0.22466 0.3096 0.98297 0.0
H675 H 0.28964 0.31314 0.07485 0.0
H676 H 0.42668 0.26465 0.03752 0.0
H677 H 0.37912 0.286 0.04384 0.0
C678 C 0.73353 0.37802 0.48314 0.0
C679 C 0.76095 0.37605 0.50172 0.0
C680 C 0.71684 0.35684 0.47494 0.0
C681 C 0.70428 0.29328 0.50656 0.0
H682 H 0.6557 0.28971 0.41886 0.0
C683 C 0.6111 0.22032 0.49111 0.0
C684 C 0.58336 0.23171 0.48444 0.0
C685 C 0.6377 0.23351 0.48549 0.0
C686 C 0.66936 0.29033 0.4433 0.0
H687 H 0.79268 0.35007 0.52535 0.0
H688 H 0.76343 0.31307 0.51091 0.0
H689 H 0.69408 0.32183 0.42428 0.0
H690 H 0.56165 0.26499 0.46417 0.0
H691 H 0.60784 0.28783 0.45421 0.0
H692 H 0.67875 0.2624 0.52617 0.0
C693 C 0.75479 0.33109 0.50307 0.0
C694 C 0.69119 0.30876 0.4465 0.0
C695 C 0.77151 0.35231 0.51133 0.0
C696 C 0.58271 0.25583 0.46986 0.0
C697 C 0.60919 0.26882 0.4638 0.0
C698 C 0.68253 0.27478 0.50328 0.0
C699 C 0.72718 0.33315 0.485 0.0
C700 C 0.70805 0.31103 0.47877 0.0
C701 C 0.6369 0.25808 0.47254 0.0
C702 C 0.6641 0.27376 0.47223 0.0
H703 H 0.72469 0.39597 0.47526 0.0
H704 H 0.69538 0.35913 0.46162 0.0
H705 H 0.71675 0.29461 0.53186 0.0
H706 H 0.61222 0.20174 0.50239 0.0
H707 H 0.65881 0.22481 0.49232 0.0
C708 C 0.77305 0.64231 0.00725 0.0
C709 C 0.76239 0.61816 0.01425 0.0
C710 C 0.75561 0.66303 0.01582 0.0
C711 C 0.70476 0.70015 0.01037 0.0
H712 H 0.65098 0.70058 0.09357 0.0
C713 C 0.61019 0.772 0.02284 0.0
C714 C 0.58215 0.76044 0.02671 0.0
C715 C 0.63646 0.75865 0.02941 0.0
C716 C 0.66607 0.70081 0.0704 0.0
H717 H 0.72532 0.59695 0.03664 0.0
H718 H 0.69476 0.63296 0.05075 0.0
H719 H 0.69021 0.66914 0.08973 0.0
H720 H 0.55954 0.72645 0.04279 0.0
H721 H 0.60519 0.7033 0.05428 0.0
H722 H 0.6799 0.73123 0.99039 0.0
C723 C 0.71681 0.63594 0.03926 0.0
C724 C 0.68841 0.68279 0.0681 0.0
C725 C 0.73423 0.61525 0.03079 0.0
C726 C 0.58082 0.7358 0.03924 0.0
C727 C 0.60698 0.72261 0.0462 0.0
C728 C 0.68252 0.71824 0.01277 0.0
C729 C 0.72716 0.66005 0.03154 0.0
C730 C 0.70723 0.68169 0.03736 0.0
C731 C 0.63504 0.73368 0.04048 0.0
C732 C 0.66227 0.71815 0.04212 0.0
H733 H 0.79479 0.64527 0.9949 0.0
H734 H 0.76431 0.68138 0.00988 0.0
H735 H 0.71874 0.69971 0.98619 0.0
H736 H 0.61189 0.79099 0.01324 0.0
H737 H 0.65786 0.7676 0.02492 0.0
C738 C 0.38975 0.76396 0.50483 0.0
C739 C 0.41782 0.75711 0.49084 0.0
C740 C 0.36523 0.74794 0.50109 0.0
C741 C 0.35103 0.68123 0.48968 0.0
H742 H 0.26855 0.70075 0.47392 0.0
C743 C 0.25949 0.6081 0.47523 0.0
C744 C 0.23381 0.61169 0.49675 0.0
C745 C 0.27987 0.62739 0.47008 0.0
C746 C 0.2915 0.69511 0.47847 0.0
H747 H 0.44179 0.72937 0.45934 0.0
H748 H 0.39909 0.7019 0.45199 0.0
H749 H 0.30814 0.73231 0.47251 0.0
H750 H 0.20867 0.63882 0.52823 0.0
H751 H 0.24463 0.67243 0.51959 0.0
H752 H 0.33469 0.64424 0.49605 0.0
C753 C 0.3961 0.7191 0.46696 0.0
C754 C 0.3141 0.71314 0.47772 0.0
C755 C 0.42054 0.73486 0.47107 0.0
C756 C 0.22832 0.63536 0.51166 0.0
C757 C 0.24879 0.65469 0.50653 0.0
C758 C 0.32859 0.66332 0.49031 0.0
C759 C 0.36847 0.72501 0.483 0.0
C760 C 0.34412 0.70631 0.48318 0.0
C761 C 0.27509 0.65069 0.48639 0.0
C762 C 0.29862 0.67002 0.48463 0.0
H763 H 0.38711 0.78105 0.52015 0.0
H764 H 0.34422 0.75296 0.51382 0.0
H765 H 0.37382 0.67544 0.49499 0.0
H766 H 0.26424 0.59023 0.46286 0.0
H767 H 0.2997 0.62393 0.45384 0.0
loop_
_geom_bond_atom_site_label_1
_geom_bond_atom_site_label_2
_geom_bond_distance
_geom_bond_site_symmetry_2
_ccdc_geom_bond_type
Mn0 O5 2.095 . S
Mn0 O15 2.162 . S
Mn0 O16 2.297 . S
Mn0 O24 2.385 . S
Mn0 O25 2.209 . S
Mn0 O26 2.094 1_554 S
Mn1 O6 2.121 . S
Mn1 N8 2.257 . S
Mn1 N17 2.282 . S
Mn1 O25 2.215 1_556 S
Mn1 O27 2.117 . S
C2 O24 1.234 . S
C2 O25 1.283 . S
C3 O15 1.281 . S
C3 O16 1.236 . S
C4 O26 1.240 . S
C4 O27 1.264 . S
O5 Mn0 2.095 . S
O5 C14 1.250 1_554 S
O6 Mn1 2.121 . S
O6 C14 1.258 . S
C7 N8 1.326 . S
C7 C11 1.460 . S
C7 H13 0.929 . S
N8 Mn1 2.257 . S
N8 C7 1.326 . S
N8 C12 1.362 . S
C9 C10 1.258 . S
C9 C12 1.431 . S
C9 C29 1.449 . S
C10 C9 1.258 . S
C10 C11 1.477 . S
C10 H30 0.931 . S
C11 C7 1.460 . S
C11 C10 1.477 . S
C11 H31 0.930 . S
C12 N8 1.362 . S
C12 C9 1.431 . S
C12 C22 1.476 . S
H13 C7 0.929 . S
C14 O5 1.250 1_556 S
C14 O6 1.258 . S
O15 Mn0 2.162 . S
O15 C3 1.281 . S
O16 Mn0 2.297 . S
O16 C3 1.236 . S
N17 Mn1 2.282 . S
N17 C18 1.328 . S
N17 C22 1.318 . S
C18 N17 1.328 . S
C18 C19 1.457 . S
C18 H23 0.929 . S
C19 C18 1.457 . S
C19 C20 1.291 . S
C19 H32 0.931 . S
C20 C19 1.291 . S
C20 C21 1.373 . S
C20 H33 0.929 . S
C21 C20 1.373 . S
C21 C22 1.396 . S
C21 C28 1.403 . S
C22 C12 1.476 . S
C22 N17 1.318 . S
C22 C21 1.396 . S
H23 C18 0.929 . S
O24 Mn0 2.385 . S
O24 C2 1.234 . S
O25 Mn0 2.209 . S
O25 Mn1 2.215 1_554 S
O25 C2 1.283 . S
O26 Mn0 2.094 1_556 S
O26 C4 1.240 . S
O27 Mn1 2.117 . S
O27 C4 1.264 . S
C28 C21 1.403 . S
C28 C29 1.399 . S
C28 H34 0.929 . S
C29 C9 1.449 . S
C29 C28 1.399 . S
C29 H35 0.930 . S
H30 C10 0.931 . S
H31 C11 0.930 . S
H32 C19 0.931 . S
H33 C20 0.929 . S
H34 C28 0.929 . S
H35 C29 0.930 . S
Mn36 O41 2.095 . S
Mn36 O51 2.162 . S
Mn36 O52 2.297 . S
Mn36 O60 2.385 . S
Mn36 O61 2.209 . S
Mn36 O62 2.094 . S
Mn37 O42 2.121 . S
Mn37 N44 2.257 . S
Mn37 N53 2.282 . S
Mn37 O61 2.215 . S
Mn37 O63 2.117 . S
C38 O60 1.234 . S
C38 O61 1.283 . S
C39 O51 1.281 . S
C39 O52 1.236 . S
C40 O62 1.240 . S
C40 O63 1.264 . S
O41 Mn36 2.095 . S
O41 C50 1.250 . S
O42 Mn37 2.121 . S
O42 C50 1.258 . S
C43 N44 1.326 . S
C43 C47 1.460 . S
C43 H49 0.929 . S
N44 Mn37 2.257 . S
N44 C43 1.326 . S
N44 C48 1.362 . S
C45 C46 1.258 . S
C45 C48 1.431 . S
C45 C65 1.449 . S
C46 C45 1.258 . S
C46 C47 1.477 . S
C46 H66 0.931 . S
C47 C43 1.460 . S
C47 C46 1.477 . S
C47 H67 0.930 . S
C48 N44 1.362 . S
C48 C45 1.431 . S
C48 C58 1.476 . S
H49 C43 0.929 . S
C50 O41 1.250 . S
C50 O42 1.258 . S
O51 Mn36 2.162 . S
O51 C39 1.281 . S
O52 Mn36 2.297 . S
O52 C39 1.236 . S
N53 Mn37 2.282 . S
N53 C54 1.328 . S
N53 C58 1.318 . S
C54 N53 1.328 . S
C54 C55 1.457 . S
C54 H59 0.929 . S
C55 C54 1.457 . S
C55 C56 1.291 . S
C55 H68 0.931 . S
C56 C55 1.291 . S
C56 C57 1.373 . S
C56 H69 0.929 . S
C57 C56 1.373 . S
C57 C58 1.396 . S
C57 C64 1.403 . S
C58 C48 1.476 . S
C58 N53 1.318 . S
C58 C57 1.396 . S
H59 C54 0.929 . S
O60 Mn36 2.385 . S
O60 C38 1.234 . S
O61 Mn36 2.209 . S
O61 Mn37 2.215 . S
O61 C38 1.283 . S
O62 Mn36 2.094 . S
O62 C40 1.240 . S
O63 Mn37 2.117 . S
O63 C40 1.264 . S
C64 C57 1.403 . S
C64 C65 1.399 . S
C64 H70 0.929 . S
C65 C45 1.449 . S
C65 C64 1.399 . S
C65 H71 0.930 . S
H66 C46 0.931 . S
H67 C47 0.930 . S
H68 C55 0.931 . S
H69 C56 0.929 . S
H70 C64 0.929 . S
H71 C65 0.930 . S
Mn72 O77 2.095 . S
Mn72 O87 2.162 . S
Mn72 O88 2.297 . S
Mn72 O96 2.385 . S
Mn72 O97 2.209 . S
Mn72 O98 2.094 1_554 S
Mn73 O78 2.121 . S
Mn73 N80 2.257 . S
Mn73 N89 2.282 . S
Mn73 O97 2.215 1_556 S
Mn73 O99 2.117 . S
C74 O96 1.234 . S
C74 O97 1.283 . S
C75 O87 1.281 . S
C75 O88 1.236 . S
C76 O98 1.240 . S
C76 O99 1.264 . S
O77 Mn72 2.095 . S
O77 C86 1.250 1_554 S
O78 Mn73 2.121 . S
O78 C86 1.258 . S
C79 N80 1.326 . S
C79 C83 1.460 . S
C79 H85 0.929 . S
N80 Mn73 2.257 . S
N80 C79 1.326 . S
N80 C84 1.362 . S
C81 C82 1.258 . S
C81 C84 1.431 . S
C81 C101 1.449 . S
C82 C81 1.258 . S
C82 C83 1.477 . S
C82 H102 0.931 . S
C83 C79 1.460 . S
C83 C82 1.477 . S
C83 H103 0.930 . S
C84 N80 1.362 . S
C84 C81 1.431 . S
C84 C94 1.476 . S
H85 C79 0.929 . S
C86 O77 1.250 1_556 S
C86 O78 1.258 . S
O87 Mn72 2.162 . S
O87 C75 1.281 . S
O88 Mn72 2.297 . S
O88 C75 1.236 . S
N89 Mn73 2.282 . S
N89 C90 1.328 . S
N89 C94 1.318 . S
C90 N89 1.328 . S
C90 C91 1.457 . S
C90 H95 0.929 . S
C91 C90 1.457 . S
C91 C92 1.291 . S
C91 H104 0.931 . S
C92 C91 1.291 . S
C92 C93 1.373 . S
C92 H105 0.929 . S
C93 C92 1.373 . S
C93 C94 1.396 . S
C93 C100 1.403 . S
C94 C84 1.476 . S
C94 N89 1.318 . S
C94 C93 1.396 . S
H95 C90 0.929 . S
O96 Mn72 2.385 . S
O96 C74 1.234 . S
O97 Mn72 2.209 . S
O97 Mn73 2.215 1_554 S
O97 C74 1.283 . S
O98 Mn72 2.094 1_556 S
O98 C76 1.240 . S
O99 Mn73 2.117 . S
O99 C76 1.264 . S
C100 C93 1.403 . S
C100 C101 1.399 . S
C100 H106 0.929 . S
C101 C81 1.449 . S
C101 C100 1.399 . S
C101 H107 0.930 . S
H102 C82 0.931 . S
H103 C83 0.930 . S
H104 C91 0.931 . S
H105 C92 0.929 . S
H106 C100 0.929 . S
H107 C101 0.930 . S
Mn108 O113 2.095 . S
Mn108 O123 2.162 . S
Mn108 O124 2.297 . S
Mn108 O132 2.385 . S
Mn108 O133 2.209 . S
Mn108 O134 2.094 . S
Mn109 O114 2.121 . S
Mn109 N116 2.257 . S
Mn109 N125 2.282 . S
Mn109 O133 2.215 . S
Mn109 O135 2.117 . S
C110 O132 1.234 . S
C110 O133 1.283 . S
C111 O123 1.281 . S
C111 O124 1.236 . S
C112 O134 1.240 . S
C112 O135 1.264 . S
O113 Mn108 2.095 . S
O113 C122 1.250 . S
O114 Mn109 2.121 . S
O114 C122 1.258 . S
C115 N116 1.326 . S
C115 C119 1.460 . S
C115 H121 0.929 . S
N116 Mn109 2.257 . S
N116 C115 1.326 . S
N116 C120 1.362 . S
C117 C118 1.258 . S
C117 C120 1.431 . S
C117 C137 1.449 . S
C118 C117 1.258 . S
C118 C119 1.477 . S
C118 H138 0.931 . S
C119 C115 1.460 . S
C119 C118 1.477 . S
C119 H139 0.930 . S
C120 N116 1.362 . S
C120 C117 1.431 . S
C120 C130 1.476 . S
H121 C115 0.929 . S
C122 O113 1.250 . S
C122 O114 1.258 . S
O123 Mn108 2.162 . S
O123 C111 1.281 . S
O124 Mn108 2.297 . S
O124 C111 1.236 . S
N125 Mn109 2.282 . S
N125 C126 1.328 . S
N125 C130 1.318 . S
C126 N125 1.328 . S
C126 C127 1.457 . S
C126 H131 0.929 . S
C127 C126 1.457 . S
C127 C128 1.291 . S
C127 H140 0.931 . S
C128 C127 1.291 . S
C128 C129 1.373 . S
C128 H141 0.929 . S
C129 C128 1.373 . S
C129 C130 1.396 . S
C129 C136 1.403 . S
C130 C120 1.476 . S
C130 N125 1.318 . S
C130 C129 1.396 . S
H131 C126 0.929 . S
O132 Mn108 2.385 . S
O132 C110 1.234 . S
O133 Mn108 2.209 . S
O133 Mn109 2.215 . S
O133 C110 1.283 . S
O134 Mn108 2.094 . S
O134 C112 1.240 . S
O135 Mn109 2.117 . S
O135 C112 1.264 . S
C136 C129 1.403 . S
C136 C137 1.399 . S
C136 H142 0.929 . S
C137 C117 1.449 . S
C137 C136 1.399 . S
C137 H143 0.930 . S
H138 C118 0.931 . S
H139 C119 0.930 . S
H140 C127 0.931 . S
H141 C128 0.929 . S
H142 C136 0.929 . S
H143 C137 0.930 . S
Mn144 O149 2.095 . S
Mn144 O159 2.162 . S
Mn144 O160 2.297 . S
Mn144 O168 2.385 . S
Mn144 O169 2.209 . S
Mn144 O170 2.094 . S
Mn145 O150 2.121 . S
Mn145 N152 2.257 . S
Mn145 N161 2.282 . S
Mn145 O169 2.215 . S
Mn145 O171 2.117 . S
C146 O168 1.234 . S
C146 O169 1.283 . S
C147 O159 1.281 . S
C147 O160 1.236 . S
C148 O170 1.240 . S
C148 O171 1.264 . S
O149 Mn144 2.095 . S
O149 C158 1.250 . S
O150 Mn145 2.121 . S
O150 C158 1.258 . S
C151 N152 1.326 . S
C151 C155 1.460 . S
C151 H157 0.929 . S
N152 Mn145 2.257 . S
N152 C151 1.326 . S
N152 C156 1.362 . S
C153 C154 1.258 . S
C153 C156 1.431 . S
C153 C173 1.449 . S
C154 C153 1.258 . S
C154 C155 1.477 . S
C154 H174 0.931 . S
C155 C151 1.460 . S
C155 C154 1.477 . S
C155 H175 0.930 . S
C156 N152 1.362 . S
C156 C153 1.431 . S
C156 C166 1.476 . S
H157 C151 0.929 . S
C158 O149 1.250 . S
C158 O150 1.258 . S
O159 Mn144 2.162 . S
O159 C147 1.281 . S
O160 Mn144 2.297 . S
O160 C147 1.236 . S
N161 Mn145 2.282 . S
N161 C162 1.328 . S
N161 C166 1.318 . S
C162 N161 1.328 . S
C162 C163 1.457 . S
C162 H167 0.929 . S
C163 C162 1.457 . S
C163 C164 1.291 . S
C163 H176 0.931 . S
C164 C163 1.291 . S
C164 C165 1.373 . S
C164 H177 0.929 . S
C165 C164 1.373 . S
C165 C166 1.396 . S
C165 C172 1.403 . S
C166 C156 1.476 . S
C166 N161 1.318 . S
C166 C165 1.396 . S
H167 C162 0.929 . S
O168 Mn144 2.385 . S
O168 C146 1.234 . S
O169 Mn144 2.209 . S
O169 Mn145 2.215 . S
O169 C146 1.283 . S
O170 Mn144 2.094 . S
O170 C148 1.240 . S
O171 Mn145 2.117 . S
O171 C148 1.264 . S
C172 C165 1.403 . S
C172 C173 1.399 . S
C172 H178 0.929 . S
C173 C153 1.449 . S
C173 C172 1.399 . S
C173 H179 0.930 . S
H174 C154 0.931 . S
H175 C155 0.930 . S
H176 C163 0.931 . S
H177 C164 0.929 . S
H178 C172 0.929 . S
H179 C173 0.930 . S
Mn180 O185 2.095 . S
Mn180 O195 2.162 . S
Mn180 O196 2.297 . S
Mn180 O204 2.385 1_554 S
Mn180 O205 2.209 1_554 S
Mn180 O206 2.094 . S
Mn181 O186 2.121 . S
Mn181 N188 2.257 1_554 S
Mn181 N197 2.282 1_554 S
Mn181 O205 2.215 1_554 S
Mn181 O207 2.117 . S
C182 O204 1.234 . S
C182 O205 1.283 . S
C183 O195 1.281 . S
C183 O196 1.236 . S
C184 O206 1.240 . S
C184 O207 1.264 . S
O185 Mn180 2.095 . S
O185 C194 1.250 . S
O186 Mn181 2.121 . S
O186 C194 1.258 . S
C187 N188 1.326 1_554 S
C187 C191 1.460 1_554 S
C187 H193 0.929 . S
N188 Mn181 2.257 1_556 S
N188 C187 1.326 1_556 S
N188 C192 1.362 . S
C189 C190 1.258 . S
C189 C192 1.431 . S
C189 C209 1.449 . S
C190 C189 1.258 . S
C190 C191 1.477 . S
C190 H210 0.931 . S
C191 C187 1.460 1_556 S
C191 C190 1.477 . S
C191 H211 0.930 1_556 S
C192 N188 1.362 . S
C192 C189 1.431 . S
C192 C202 1.476 . S
H193 C187 0.929 . S
C194 O185 1.250 . S
C194 O186 1.258 . S
O195 Mn180 2.162 . S
O195 C183 1.281 . S
O196 Mn180 2.297 . S
O196 C183 1.236 . S
N197 Mn181 2.282 1_556 S
N197 C198 1.328 . S
N197 C202 1.318 . S
C198 N197 1.328 . S
C198 C199 1.457 . S
C198 H203 0.929 . S
C199 C198 1.457 . S
C199 C200 1.291 . S
C199 H212 0.931 . S
C200 C199 1.291 . S
C200 C201 1.373 . S
C200 H213 0.929 . S
C201 C200 1.373 . S
C201 C202 1.396 . S
C201 C208 1.403 . S
C202 C192 1.476 . S
C202 N197 1.318 . S
C202 C201 1.396 . S
H203 C198 0.929 . S
O204 Mn180 2.385 1_556 S
O204 C182 1.234 . S
O205 Mn180 2.209 1_556 S
O205 Mn181 2.215 1_556 S
O205 C182 1.283 . S
O206 Mn180 2.094 . S
O206 C184 1.240 . S
O207 Mn181 2.117 . S
O207 C184 1.264 . S
C208 C201 1.403 . S
C208 C209 1.399 . S
C208 H214 0.929 . S
C209 C189 1.449 . S
C209 C208 1.399 . S
C209 H215 0.930 . S
H210 C190 0.931 . S
H211 C191 0.930 1_554 S
H212 C199 0.931 . S
H213 C200 0.929 . S
H214 C208 0.929 . S
H215 C209 0.930 . S
Mn216 O221 2.095 . S
Mn216 O231 2.162 . S
Mn216 O232 2.297 . S
Mn216 O240 2.385 . S
Mn216 O241 2.209 . S
Mn216 O242 2.094 . S
Mn217 O222 2.121 . S
Mn217 N224 2.257 . S
Mn217 N233 2.282 . S
Mn217 O241 2.215 . S
Mn217 O243 2.117 . S
C218 O240 1.234 . S
C218 O241 1.283 . S
C219 O231 1.281 . S
C219 O232 1.236 . S
C220 O242 1.240 . S
C220 O243 1.264 . S
O221 Mn216 2.095 . S
O221 C230 1.250 . S
O222 Mn217 2.121 . S
O222 C230 1.258 . S
C223 N224 1.326 . S
C223 C227 1.460 . S
C223 H229 0.929 . S
N224 Mn217 2.257 . S
N224 C223 1.326 . S
N224 C228 1.362 . S
C225 C226 1.258 . S
C225 C228 1.431 . S
C225 C245 1.449 . S
C226 C225 1.258 . S
C226 C227 1.477 . S
C226 H246 0.931 . S
C227 C223 1.460 . S
C227 C226 1.477 . S
C227 H247 0.930 . S
C228 N224 1.362 . S
C228 C225 1.431 . S
C228 C238 1.476 . S
H229 C223 0.929 . S
C230 O221 1.250 . S
C230 O222 1.258 . S
O231 Mn216 2.162 . S
O231 C219 1.281 . S
O232 Mn216 2.297 . S
O232 C219 1.236 . S
N233 Mn217 2.282 . S
N233 C234 1.328 . S
N233 C238 1.318 . S
C234 N233 1.328 . S
C234 C235 1.457 . S
C234 H239 0.929 . S
C235 C234 1.457 . S
C235 C236 1.291 . S
C235 H248 0.931 . S
C236 C235 1.291 . S
C236 C237 1.373 . S
C236 H249 0.929 . S
C237 C236 1.373 . S
C237 C238 1.396 . S
C237 C244 1.403 . S
C238 C228 1.476 . S
C238 N233 1.318 . S
C238 C237 1.396 . S
H239 C234 0.929 . S
O240 Mn216 2.385 . S
O240 C218 1.234 . S
O241 Mn216 2.209 . S
O241 Mn217 2.215 . S
O241 C218 1.283 . S
O242 Mn216 2.094 . S
O242 C220 1.240 . S
O243 Mn217 2.117 . S
O243 C220 1.264 . S
C244 C237 1.403 . S
C244 C245 1.399 . S
C244 H250 0.929 . S
C245 C225 1.449 . S
C245 C244 1.399 . S
C245 H251 0.930 . S
H246 C226 0.931 . S
H247 C227 0.930 . S
H248 C235 0.931 . S
H249 C236 0.929 . S
H250 C244 0.929 . S
H251 C245 0.930 . S
Mn252 O257 2.095 . S
Mn252 O267 2.162 . S
Mn252 O268 2.297 . S
Mn252 O276 2.385 1_554 S
Mn252 O277 2.209 1_554 S
Mn252 O278 2.094 . S
Mn253 O258 2.121 . S
Mn253 N260 2.257 1_554 S
Mn253 N269 2.282 1_554 S
Mn253 O277 2.215 1_554 S
Mn253 O279 2.117 . S
C254 O276 1.234 . S
C254 O277 1.283 . S
C255 O267 1.281 . S
C255 O268 1.236 . S
C256 O278 1.240 . S
C256 O279 1.264 . S
O257 Mn252 2.095 . S
O257 C266 1.250 . S
O258 Mn253 2.121 . S
O258 C266 1.258 . S
C259 N260 1.326 1_554 S
C259 C263 1.460 1_554 S
C259 H265 0.929 . S
N260 Mn253 2.257 1_556 S
N260 C259 1.326 1_556 S
N260 C264 1.362 . S
C261 C262 1.258 . S
C261 C264 1.431 . S
C261 C281 1.449 . S
C262 C261 1.258 . S
C262 C263 1.477 . S
C262 H282 0.931 . S
C263 C259 1.460 1_556 S
C263 C262 1.477 . S
C263 H283 0.930 1_556 S
C264 N260 1.362 . S
C264 C261 1.431 . S
C264 C274 1.476 . S
H265 C259 0.929 . S
C266 O257 1.250 . S
C266 O258 1.258 . S
O267 Mn252 2.162 . S
O267 C255 1.281 . S
O268 Mn252 2.297 . S
O268 C255 1.236 . S
N269 Mn253 2.282 1_556 S
N269 C270 1.328 . S
N269 C274 1.318 . S
C270 N269 1.328 . S
C270 C271 1.457 . S
C270 H275 0.929 . S
C271 C270 1.457 . S
C271 C272 1.291 . S
C271 H284 0.931 . S
C272 C271 1.291 . S
C272 C273 1.373 . S
C272 H285 0.929 . S
C273 C272 1.373 . S
C273 C274 1.396 . S
C273 C280 1.403 . S
C274 C264 1.476 . S
C274 N269 1.318 . S
C274 C273 1.396 . S
H275 C270 0.929 . S
O276 Mn252 2.385 1_556 S
O276 C254 1.234 . S
O277 Mn252 2.209 1_556 S
O277 Mn253 2.215 1_556 S
O277 C254 1.283 . S
O278 Mn252 2.094 . S
O278 C256 1.240 . S
O279 Mn253 2.117 . S
O279 C256 1.264 . S
C280 C273 1.403 . S
C280 C281 1.399 . S
C280 H286 0.929 . S
C281 C261 1.449 . S
C281 C280 1.399 . S
C281 H287 0.930 . S
H282 C262 0.931 . S
H283 C263 0.930 1_554 S
H284 C271 0.931 . S
H285 C272 0.929 . S
H286 C280 0.929 . S
H287 C281 0.930 . S
C288 C289 1.349 . S
C288 C290 1.327 . S
C288 H313 0.950 . S
C289 C288 1.349 . S
C289 C305 1.349 . S
C290 C288 1.327 . S
C290 C309 1.429 . S
C290 H314 0.950 . S
C291 C308 1.574 . S
C291 C310 1.368 . S
C291 H315 0.949 . S
H292 C296 0.949 . S
C293 C294 1.349 . S
C293 C295 1.327 . S
C293 H316 0.950 . S
C294 C293 1.349 . S
C294 C306 1.349 . S
C295 C293 1.327 . S
C295 C311 1.429 . S
C295 H317 0.950 . S
C296 H292 0.949 . S
C296 C304 1.574 . S
C296 C312 1.368 . S
H297 C305 0.950 . S
H298 C303 0.950 . S
H299 C304 0.949 . S
H300 C306 0.950 . S
H301 C307 0.950 . S
H302 C308 0.949 . S
C303 H298 0.950 . S
C303 C305 1.327 . S
C303 C309 1.429 . S
C304 C296 1.574 . S
C304 H299 0.949 . S
C304 C310 1.368 . S
C305 C289 1.349 . S
C305 H297 0.950 . S
C305 C303 1.327 . S
C306 C294 1.349 . S
C306 H300 0.950 . S
C306 C307 1.327 . S
C307 H301 0.950 . S
C307 C306 1.327 . S
C307 C311 1.429 . S
C308 C291 1.574 . S
C308 H302 0.949 . S
C308 C312 1.368 . S
C309 C290 1.429 . S
C309 C303 1.429 . S
C309 C310 1.523 . S
C310 C291 1.368 . S
C310 C304 1.368 . S
C310 C309 1.523 . S
C311 C295 1.429 . S
C311 C307 1.429 . S
C311 C312 1.523 . S
C312 C296 1.368 . S
C312 C308 1.368 . S
C312 C311 1.523 . S
H313 C288 0.950 . S
H314 C290 0.950 . S
H315 C291 0.949 . S
H316 C293 0.950 . S
H317 C295 0.950 . S
C318 C319 1.349 . S
C318 C320 1.327 . S
C318 H343 0.950 . S
C319 C318 1.349 . S
C319 C335 1.349 . S
C320 C318 1.327 . S
C320 C339 1.429 . S
C320 H344 0.950 . S
C321 C338 1.574 . S
C321 C340 1.368 . S
C321 H345 0.949 . S
H322 C326 0.949 . S
C323 C324 1.349 . S
C323 C325 1.327 . S
C323 H346 0.950 . S
C324 C323 1.349 . S
C324 C336 1.349 . S
C325 C323 1.327 . S
C325 C341 1.429 . S
C325 H347 0.950 . S
C326 H322 0.949 . S
C326 C334 1.574 . S
C326 C342 1.368 . S
H327 C335 0.950 . S
H328 C333 0.950 . S
H329 C334 0.949 . S
H330 C336 0.950 . S
H331 C337 0.950 . S
H332 C338 0.949 . S
C333 H328 0.950 . S
C333 C335 1.327 . S
C333 C339 1.429 . S
C334 C326 1.574 . S
C334 H329 0.949 . S
C334 C340 1.368 . S
C335 C319 1.349 . S
C335 H327 0.950 . S
C335 C333 1.327 . S
C336 C324 1.349 . S
C336 H330 0.950 . S
C336 C337 1.327 . S
C337 H331 0.950 . S
C337 C336 1.327 . S
C337 C341 1.429 . S
C338 C321 1.574 . S
C338 H332 0.949 . S
C338 C342 1.368 . S
C339 C320 1.429 . S
C339 C333 1.429 . S
C339 C340 1.523 . S
C340 C321 1.368 . S
C340 C334 1.368 . S
C340 C339 1.523 . S
C341 C325 1.429 . S
C341 C337 1.429 . S
C341 C342 1.523 . S
C342 C326 1.368 . S
C342 C338 1.368 . S
C342 C341 1.523 . S
H343 C318 0.950 . S
H344 C320 0.950 . S
H345 C321 0.949 . S
H346 C323 0.950 . S
H347 C325 0.950 . S
C348 C349 1.349 . S
C348 C350 1.327 . S
C348 H373 0.950 . S
C349 C348 1.349 . S
C349 C365 1.349 . S
C350 C348 1.327 . S
C350 C369 1.429 . S
C350 H374 0.950 . S
C351 C368 1.574 . S
C351 C370 1.368 . S
C351 H375 0.949 . S
H352 C356 0.949 . S
C353 C354 1.349 . S
C353 C355 1.327 . S
C353 H376 0.950 . S
C354 C353 1.349 . S
C354 C366 1.349 . S
C355 C353 1.327 . S
C355 C371 1.429 . S
C355 H377 0.950 . S
C356 H352 0.949 . S
C356 C364 1.574 . S
C356 C372 1.368 . S
H357 C365 0.950 . S
H358 C363 0.950 . S
H359 C364 0.949 . S
H360 C366 0.950 . S
H361 C367 0.950 . S
H362 C368 0.949 . S
C363 H358 0.950 . S
C363 C365 1.327 . S
C363 C369 1.429 . S
C364 C356 1.574 . S
C364 H359 0.949 . S
C364 C370 1.368 . S
C365 C349 1.349 . S
C365 H357 0.950 . S
C365 C363 1.327 . S
C366 C354 1.349 . S
C366 H360 0.950 . S
C366 C367 1.327 . S
C367 H361 0.950 . S
C367 C366 1.327 . S
C367 C371 1.429 . S
C368 C351 1.574 . S
C368 H362 0.949 . S
C368 C372 1.368 . S
C369 C350 1.429 . S
C369 C363 1.429 . S
C369 C370 1.523 . S
C370 C351 1.368 . S
C370 C364 1.368 . S
C370 C369 1.523 . S
C371 C355 1.429 . S
C371 C367 1.429 . S
C371 C372 1.523 . S
C372 C356 1.368 . S
C372 C368 1.368 . S
C372 C371 1.523 . S
H373 C348 0.950 . S
H374 C350 0.950 . S
H375 C351 0.949 . S
H376 C353 0.950 . S
H377 C355 0.950 . S
C378 C379 1.349 . S
C378 C380 1.327 . S
C378 H403 0.950 . S
C379 C378 1.349 . S
C379 C395 1.349 . S
C380 C378 1.327 . S
C380 C399 1.429 . S
C380 H404 0.950 . S
C381 C398 1.574 . S
C381 C400 1.368 . S
C381 H405 0.949 . S
H382 C386 0.949 . S
C383 C384 1.349 . S
C383 C385 1.327 . S
C383 H406 0.950 . S
C384 C383 1.349 . S
C384 C396 1.349 . S
C385 C383 1.327 . S
C385 C401 1.429 . S
C385 H407 0.950 . S
C386 H382 0.949 . S
C386 C394 1.574 . S
C386 C402 1.368 . S
H387 C395 0.950 . S
H388 C393 0.950 . S
H389 C394 0.949 . S
H390 C396 0.950 . S
H391 C397 0.950 . S
H392 C398 0.949 . S
C393 H388 0.950 . S
C393 C395 1.327 . S
C393 C399 1.429 . S
C394 C386 1.574 . S
C394 H389 0.949 . S
C394 C400 1.368 . S
C395 C379 1.349 . S
C395 H387 0.950 . S
C395 C393 1.327 . S
C396 C384 1.349 . S
C396 H390 0.950 . S
C396 C397 1.327 . S
C397 H391 0.950 . S
C397 C396 1.327 . S
C397 C401 1.429 . S
C398 C381 1.574 . S
C398 H392 0.949 . S
C398 C402 1.368 . S
C399 C380 1.429 . S
C399 C393 1.429 . S
C399 C400 1.523 . S
C400 C381 1.368 . S
C400 C394 1.368 . S
C400 C399 1.523 . S
C401 C385 1.429 . S
C401 C397 1.429 . S
C401 C402 1.523 . S
C402 C386 1.368 . S
C402 C398 1.368 . S
C402 C401 1.523 . S
H403 C378 0.950 . S
H404 C380 0.950 . S
H405 C381 0.949 . S
H406 C383 0.950 . S
H407 C385 0.950 . S
C408 C409 1.349 . S
C408 C410 1.327 . S
C408 H433 0.950 . S
C409 C408 1.349 . S
C409 C425 1.349 . S
C410 C408 1.327 . S
C410 C429 1.429 . S
C410 H434 0.950 . S
C411 C428 1.574 . S
C411 C430 1.368 . S
C411 H435 0.949 . S
H412 C416 0.949 . S
C413 C414 1.349 . S
C413 C415 1.327 . S
C413 H436 0.950 . S
C414 C413 1.349 . S
C414 C426 1.349 . S
C415 C413 1.327 . S
C415 C431 1.429 . S
C415 H437 0.950 . S
C416 H412 0.949 . S
C416 C424 1.574 . S
C416 C432 1.368 . S
H417 C425 0.950 . S
H418 C423 0.950 . S
H419 C424 0.949 . S
H420 C426 0.950 . S
H421 C427 0.950 . S
H422 C428 0.949 . S
C423 H418 0.950 . S
C423 C425 1.327 . S
C423 C429 1.429 . S
C424 C416 1.574 . S
C424 H419 0.949 . S
C424 C430 1.368 . S
C425 C409 1.349 . S
C425 H417 0.950 . S
C425 C423 1.327 . S
C426 C414 1.349 . S
C426 H420 0.950 . S
C426 C427 1.327 . S
C427 H421 0.950 . S
C427 C426 1.327 . S
C427 C431 1.429 . S
C428 C411 1.574 . S
C428 H422 0.949 . S
C428 C432 1.368 . S
C429 C410 1.429 . S
C429 C423 1.429 . S
C429 C430 1.523 . S
C430 C411 1.368 . S
C430 C424 1.368 . S
C430 C429 1.523 . S
C431 C415 1.429 . S
C431 C427 1.429 . S
C431 C432 1.523 . S
C432 C416 1.368 . S
C432 C428 1.368 . S
C432 C431 1.523 . S
H433 C408 0.950 . S
H434 C410 0.950 . S
H435 C411 0.949 . S
H436 C413 0.950 . S
H437 C415 0.950 . S
C438 C439 1.349 . S
C438 C440 1.327 . S
C438 H463 0.950 . S
C439 C438 1.349 . S
C439 C455 1.349 . S
C440 C438 1.327 . S
C440 C459 1.429 . S
C440 H464 0.950 . S
C441 C458 1.574 . S
C441 C460 1.368 . S
C441 H465 0.949 . S
H442 C446 0.949 . S
C443 C444 1.349 . S
C443 C445 1.327 . S
C443 H466 0.950 . S
C444 C443 1.349 . S
C444 C456 1.349 . S
C445 C443 1.327 . S
C445 C461 1.429 . S
C445 H467 0.950 . S
C446 H442 0.949 . S
C446 C454 1.574 . S
C446 C462 1.368 . S
H447 C455 0.950 . S
H448 C453 0.950 . S
H449 C454 0.949 . S
H450 C456 0.950 . S
H451 C457 0.950 . S
H452 C458 0.949 . S
C453 H448 0.950 . S
C453 C455 1.327 . S
C453 C459 1.429 . S
C454 C446 1.574 . S
C454 H449 0.949 . S
C454 C460 1.368 . S
C455 C439 1.349 . S
C455 H447 0.950 . S
C455 C453 1.327 . S
C456 C444 1.349 . S
C456 H450 0.950 . S
C456 C457 1.327 . S
C457 H451 0.950 . S
C457 C456 1.327 . S
C457 C461 1.429 . S
C458 C441 1.574 . S
C458 H452 0.949 . S
C458 C462 1.368 . S
C459 C440 1.429 . S
C459 C453 1.429 . S
C459 C460 1.523 . S
C460 C441 1.368 . S
C460 C454 1.368 . S
C460 C459 1.523 . S
C461 C445 1.429 . S
C461 C457 1.429 . S
C461 C462 1.523 . S
C462 C446 1.368 . S
C462 C458 1.368 . S
C462 C461 1.523 . S
H463 C438 0.950 . S
H464 C440 0.950 . S
H465 C441 0.949 . S
H466 C443 0.950 . S
H467 C445 0.950 . S
C468 C469 1.349 . S
C468 C470 1.327 . S
C468 H493 0.950 . S
C469 C468 1.349 . S
C469 C485 1.349 . S
C470 C468 1.327 . S
C470 C489 1.429 . S
C470 H494 0.950 . S
C471 C488 1.574 . S
C471 C490 1.368 . S
C471 H495 0.949 . S
H472 C476 0.949 . S
C473 C474 1.349 . S
C473 C475 1.327 . S
C473 H496 0.950 . S
C474 C473 1.349 . S
C474 C486 1.349 . S
C475 C473 1.327 . S
C475 C491 1.429 . S
C475 H497 0.950 . S
C476 H472 0.949 . S
C476 C484 1.574 . S
C476 C492 1.368 . S
H477 C485 0.950 . S
H478 C483 0.950 . S
H479 C484 0.949 . S
H480 C486 0.950 . S
H481 C487 0.950 . S
H482 C488 0.949 . S
C483 H478 0.950 . S
C483 C485 1.327 . S
C483 C489 1.429 . S
C484 C476 1.574 . S
C484 H479 0.949 . S
C484 C490 1.368 . S
C485 C469 1.349 . S
C485 H477 0.950 . S
C485 C483 1.327 . S
C486 C474 1.349 . S
C486 H480 0.950 . S
C486 C487 1.327 . S
C487 H481 0.950 . S
C487 C486 1.327 . S
C487 C491 1.429 . S
C488 C471 1.574 . S
C488 H482 0.949 . S
C488 C492 1.368 . S
C489 C470 1.429 . S
C489 C483 1.429 . S
C489 C490 1.523 . S
C490 C471 1.368 . S
C490 C484 1.368 . S
C490 C489 1.523 . S
C491 C475 1.429 . S
C491 C487 1.429 . S
C491 C492 1.523 . S
C492 C476 1.368 . S
C492 C488 1.368 . S
C492 C491 1.523 . S
H493 C468 0.950 . S
H494 C470 0.950 . S
H495 C471 0.949 . S
H496 C473 0.950 . S
H497 C475 0.950 . S
C498 C499 1.349 . S
C498 C500 1.327 . S
C498 H523 0.950 . S
C499 C498 1.349 . S
C499 C515 1.349 . S
C500 C498 1.327 . S
C500 C519 1.429 . S
C500 H524 0.950 . S
C501 C518 1.574 . S
C501 C520 1.368 . S
C501 H525 0.949 . S
H502 C506 0.949 . S
C503 C504 1.349 . S
C503 C505 1.327 . S
C503 H526 0.950 . S
C504 C503 1.349 . S
C504 C516 1.349 . S
C505 C503 1.327 . S
C505 C521 1.429 . S
C505 H527 0.950 . S
C506 H502 0.949 . S
C506 C514 1.574 . S
C506 C522 1.368 . S
H507 C515 0.950 . S
H508 C513 0.950 . S
H509 C514 0.949 . S
H510 C516 0.950 . S
H511 C517 0.950 . S
H512 C518 0.949 . S
C513 H508 0.950 . S
C513 C515 1.327 . S
C513 C519 1.429 . S
C514 C506 1.574 . S
C514 H509 0.949 . S
C514 C520 1.368 . S
C515 C499 1.349 . S
C515 H507 0.950 . S
C515 C513 1.327 . S
C516 C504 1.349 . S
C516 H510 0.950 . S
C516 C517 1.327 . S
C517 H511 0.950 . S
C517 C516 1.327 . S
C517 C521 1.429 . S
C518 C501 1.574 . S
C518 H512 0.949 . S
C518 C522 1.368 . S
C519 C500 1.429 . S
C519 C513 1.429 . S
C519 C520 1.523 . S
C520 C501 1.368 . S
C520 C514 1.368 . S
C520 C519 1.523 . S
C521 C505 1.429 . S
C521 C517 1.429 . S
C521 C522 1.523 . S
C522 C506 1.368 . S
C522 C518 1.368 . S
C522 C521 1.523 . S
H523 C498 0.950 . S
H524 C500 0.950 . S
H525 C501 0.949 . S
H526 C503 0.950 . S
H527 C505 0.950 . S
C528 C529 1.349 . S
C528 C530 1.327 . S
C528 H553 0.950 . S
C529 C528 1.349 . S
C529 C545 1.349 1_554 S
C530 C528 1.327 . S
C530 C549 1.429 . S
C530 H554 0.950 . S
C531 C548 1.574 1_655 S
C531 C550 1.368 1_556 S
C531 H555 0.949 . S
H532 C536 0.949 . S
C533 C534 1.349 1_556 S
C533 C535 1.327 . S
C533 H556 0.950 . S
C534 C533 1.349 1_554 S
C534 C546 1.349 . S
C535 C533 1.327 . S
C535 C551 1.429 1_556 S
C535 H557 0.950 . S
C536 H532 0.949 . S
C536 C544 1.574 1_455 S
C536 C552 1.368 . S
H537 C545 0.950 . S
H538 C543 0.950 . S
H539 C544 0.949 . S
H540 C546 0.950 . S
H541 C547 0.950 . S
H542 C548 0.949 . S
C543 H538 0.950 . S
C543 C545 1.327 . S
C543 C549 1.429 1_556 S
C544 C536 1.574 1_655 S
C544 H539 0.949 . S
C544 C550 1.368 . S
C545 C529 1.349 1_556 S
C545 H537 0.950 . S
C545 C543 1.327 . S
C546 C534 1.349 . S
C546 H540 0.950 . S
C546 C547 1.327 . S
C547 H541 0.950 . S
C547 C546 1.327 . S
C547 C551 1.429 . S
C548 C531 1.574 1_455 S
C548 H542 0.949 . S
C548 C552 1.368 1_556 S
C549 C530 1.429 . S
C549 C543 1.429 1_554 S
C549 C550 1.523 . S
C550 C531 1.368 1_554 S
C550 C544 1.368 . S
C550 C549 1.523 . S
C551 C535 1.429 1_554 S
C551 C547 1.429 . S
C551 C552 1.523 . S
C552 C536 1.368 . S
C552 C548 1.368 1_554 S
C552 C551 1.523 . S
H553 C528 0.950 . S
H554 C530 0.950 . S
H555 C531 0.949 . S
H556 C533 0.950 . S
H557 C535 0.950 . S
C558 C559 1.349 . S
C558 C560 1.327 . S
C558 H583 0.950 . S
C559 C558 1.349 . S
C559 C575 1.349 . S
C560 C558 1.327 . S
C560 C579 1.429 . S
C560 H584 0.950 . S
C561 C578 1.574 1_565 S
C561 C580 1.368 . S
C561 H585 0.949 . S
H562 C566 0.949 . S
C563 C564 1.349 . S
C563 C565 1.327 . S
C563 H586 0.950 . S
C564 C563 1.349 . S
C564 C576 1.349 . S
C565 C563 1.327 . S
C565 C581 1.429 . S
C565 H587 0.950 . S
C566 H562 0.949 . S
C566 C574 1.574 1_545 S
C566 C582 1.368 . S
H567 C575 0.950 . S
H568 C573 0.950 . S
H569 C574 0.949 . S
H570 C576 0.950 . S
H571 C577 0.950 . S
H572 C578 0.949 . S
C573 H568 0.950 . S
C573 C575 1.327 . S
C573 C579 1.429 . S
C574 C566 1.574 1_565 S
C574 H569 0.949 . S
C574 C580 1.368 . S
C575 C559 1.349 . S
C575 H567 0.950 . S
C575 C573 1.327 . S
C576 C564 1.349 . S
C576 H570 0.950 . S
C576 C577 1.327 . S
C577 H571 0.950 . S
C577 C576 1.327 . S
C577 C581 1.429 . S
C578 C561 1.574 1_545 S
C578 H572 0.949 . S
C578 C582 1.368 . S
C579 C560 1.429 . S
C579 C573 1.429 . S
C579 C580 1.523 . S
C580 C561 1.368 . S
C580 C574 1.368 . S
C580 C579 1.523 . S
C581 C565 1.429 . S
C581 C577 1.429 . S
C581 C582 1.523 . S
C582 C566 1.368 . S
C582 C578 1.368 . S
C582 C581 1.523 . S
H583 C558 0.950 . S
H584 C560 0.950 . S
H585 C561 0.949 . S
H586 C563 0.950 . S
H587 C565 0.950 . S
C588 C589 1.349 . S
C588 C590 1.327 . S
C588 H613 0.950 . S
C589 C588 1.349 . S
C589 C605 1.349 . S
C590 C588 1.327 . S
C590 C609 1.429 . S
C590 H614 0.950 . S
C591 C608 1.574 1_455 S
C591 C610 1.368 . S
C591 H615 0.949 . S
H592 C596 0.949 . S
C593 C594 1.349 . S
C593 C595 1.327 . S
C593 H616 0.950 . S
C594 C593 1.349 . S
C594 C606 1.349 . S
C595 C593 1.327 . S
C595 C611 1.429 . S
C595 H617 0.950 . S
C596 H592 0.949 . S
C596 C604 1.574 1_655 S
C596 C612 1.368 . S
H597 C605 0.950 . S
H598 C603 0.950 . S
H599 C604 0.949 . S
H600 C606 0.950 . S
H601 C607 0.950 . S
H602 C608 0.949 . S
C603 H598 0.950 . S
C603 C605 1.327 . S
C603 C609 1.429 . S
C604 C596 1.574 1_455 S
C604 H599 0.949 . S
C604 C610 1.368 . S
C605 C589 1.349 . S
C605 H597 0.950 . S
C605 C603 1.327 . S
C606 C594 1.349 . S
C606 H600 0.950 . S
C606 C607 1.327 . S
C607 H601 0.950 . S
C607 C606 1.327 . S
C607 C611 1.429 . S
C608 C591 1.574 1_655 S
C608 H602 0.949 . S
C608 C612 1.368 . S
C609 C590 1.429 . S
C609 C603 1.429 . S
C609 C610 1.523 . S
C610 C591 1.368 . S
C610 C604 1.368 . S
C610 C609 1.523 . S
C611 C595 1.429 . S
C611 C607 1.429 . S
C611 C612 1.523 . S
C612 C596 1.368 . S
C612 C608 1.368 . S
C612 C611 1.523 . S
H613 C588 0.950 . S
H614 C590 0.950 . S
H615 C591 0.949 . S
H616 C593 0.950 . S
H617 C595 0.950 . S
C618 C619 1.349 . S
C618 C620 1.327 . S
C618 H643 0.950 . S
C619 C618 1.349 . S
C619 C635 1.349 1_554 S
C620 C618 1.327 . S
C620 C639 1.429 . S
C620 H644 0.950 . S
C621 C638 1.574 1_565 S
C621 C640 1.368 1_556 S
C621 H645 0.949 . S
H622 C626 0.949 . S
C623 C624 1.349 1_556 S
C623 C625 1.327 . S
C623 H646 0.950 . S
C624 C623 1.349 1_554 S
C624 C636 1.349 . S
C625 C623 1.327 . S
C625 C641 1.429 1_556 S
C625 H647 0.950 . S
C626 H622 0.949 . S
C626 C634 1.574 1_545 S
C626 C642 1.368 . S
H627 C635 0.950 . S
H628 C633 0.950 . S
H629 C634 0.949 . S
H630 C636 0.950 . S
H631 C637 0.950 . S
H632 C638 0.949 . S
C633 H628 0.950 . S
C633 C635 1.327 . S
C633 C639 1.429 1_556 S
C634 C626 1.574 1_565 S
C634 H629 0.949 . S
C634 C640 1.368 . S
C635 C619 1.349 1_556 S
C635 H627 0.950 . S
C635 C633 1.327 . S
C636 C624 1.349 . S
C636 H630 0.950 . S
C636 C637 1.327 . S
C637 H631 0.950 . S
C637 C636 1.327 . S
C637 C641 1.429 . S
C638 C621 1.574 1_545 S
C638 H632 0.949 . S
C638 C642 1.368 1_556 S
C639 C620 1.429 . S
C639 C633 1.429 1_554 S
C639 C640 1.523 . S
C640 C621 1.368 1_554 S
C640 C634 1.368 . S
C640 C639 1.523 . S
C641 C625 1.429 1_554 S
C641 C637 1.429 . S
C641 C642 1.523 . S
C642 C626 1.368 . S
C642 C638 1.368 1_554 S
C642 C641 1.523 . S
H643 C618 0.950 . S
H644 C620 0.950 . S
H645 C621 0.949 . S
H646 C623 0.950 . S
H647 C625 0.950 . S
C648 C649 1.349 1_556 S
C648 C650 1.327 . S
C648 H673 0.950 . S
C649 C648 1.349 1_554 S
C649 C665 1.349 . S
C650 C648 1.327 . S
C650 C669 1.429 1_556 S
C650 H674 0.950 . S
C651 C668 1.574 . S
C651 C670 1.368 . S
C651 H675 0.949 . S
H652 C656 0.949 . S
C653 C654 1.349 . S
C653 C655 1.327 . S
C653 H676 0.950 . S
C654 C653 1.349 . S
C654 C666 1.349 1_554 S
C655 C653 1.327 . S
C655 C671 1.429 . S
C655 H677 0.950 . S
C656 H652 0.949 . S
C656 C664 1.574 . S
C656 C672 1.368 1_556 S
H657 C665 0.950 . S
H658 C663 0.950 . S
H659 C664 0.949 . S
H660 C666 0.950 . S
H661 C667 0.950 . S
H662 C668 0.949 . S
C663 H658 0.950 . S
C663 C665 1.327 . S
C663 C669 1.429 . S
C664 C656 1.574 . S
C664 H659 0.949 . S
C664 C670 1.368 1_556 S
C665 C649 1.349 . S
C665 H657 0.950 . S
C665 C663 1.327 . S
C666 C654 1.349 1_556 S
C666 H660 0.950 . S
C666 C667 1.327 . S
C667 H661 0.950 . S
C667 C666 1.327 . S
C667 C671 1.429 1_556 S
C668 C651 1.574 . S
C668 H662 0.949 . S
C668 C672 1.368 . S
C669 C650 1.429 1_554 S
C669 C663 1.429 . S
C669 C670 1.523 . S
C670 C651 1.368 . S
C670 C664 1.368 1_554 S
C670 C669 1.523 . S
C671 C655 1.429 . S
C671 C667 1.429 1_554 S
C671 C672 1.523 . S
C672 C656 1.368 1_554 S
C672 C668 1.368 . S
C672 C671 1.523 . S
H673 C648 0.950 . S
H674 C650 0.950 . S
H675 C651 0.949 . S
H676 C653 0.950 . S
H677 C655 0.950 . S
C678 C679 1.349 . S
C678 C680 1.327 . S
C678 H703 0.950 . S
C679 C678 1.349 . S
C679 C695 1.349 . S
C680 C678 1.327 . S
C680 C699 1.429 . S
C680 H704 0.950 . S
C681 C698 1.574 . S
C681 C700 1.368 . S
C681 H705 0.949 . S
H682 C686 0.949 . S
C683 C684 1.349 . S
C683 C685 1.327 . S
C683 H706 0.950 . S
C684 C683 1.349 . S
C684 C696 1.349 . S
C685 C683 1.327 . S
C685 C701 1.429 . S
C685 H707 0.950 . S
C686 H682 0.949 . S
C686 C694 1.574 . S
C686 C702 1.368 . S
H687 C695 0.950 . S
H688 C693 0.950 . S
H689 C694 0.949 . S
H690 C696 0.950 . S
H691 C697 0.950 . S
H692 C698 0.949 . S
C693 H688 0.950 . S
C693 C695 1.327 . S
C693 C699 1.429 . S
C694 C686 1.574 . S
C694 H689 0.949 . S
C694 C700 1.368 . S
C695 C679 1.349 . S
C695 H687 0.950 . S
C695 C693 1.327 . S
C696 C684 1.349 . S
C696 H690 0.950 . S
C696 C697 1.327 . S
C697 H691 0.950 . S
C697 C696 1.327 . S
C697 C701 1.429 . S
C698 C681 1.574 . S
C698 H692 0.949 . S
C698 C702 1.368 . S
C699 C680 1.429 . S
C699 C693 1.429 . S
C699 C700 1.523 . S
C700 C681 1.368 . S
C700 C694 1.368 . S
C700 C699 1.523 . S
C701 C685 1.429 . S
C701 C697 1.429 . S
C701 C702 1.523 . S
C702 C686 1.368 . S
C702 C698 1.368 . S
C702 C701 1.523 . S
H703 C678 0.950 . S
H704 C680 0.950 . S
H705 C681 0.949 . S
H706 C683 0.950 . S
H707 C685 0.950 . S
C708 C709 1.349 . S
C708 C710 1.327 . S
C708 H733 0.950 . S
C709 C708 1.349 . S
C709 C725 1.349 1_554 S
C710 C708 1.327 . S
C710 C729 1.429 . S
C710 H734 0.950 . S
C711 C728 1.574 . S
C711 C730 1.368 1_556 S
C711 H735 0.949 . S
H712 C716 0.949 . S
C713 C714 1.349 1_556 S
C713 C715 1.327 . S
C713 H736 0.950 . S
C714 C713 1.349 1_554 S
C714 C726 1.349 . S
C715 C713 1.327 . S
C715 C731 1.429 1_556 S
C715 H737 0.950 . S
C716 H712 0.949 . S
C716 C724 1.574 . S
C716 C732 1.368 . S
H717 C725 0.950 . S
H718 C723 0.950 . S
H719 C724 0.949 . S
H720 C726 0.950 . S
H721 C727 0.950 . S
H722 C728 0.949 . S
C723 H718 0.950 . S
C723 C725 1.327 . S
C723 C729 1.429 1_556 S
C724 C716 1.574 . S
C724 H719 0.949 . S
C724 C730 1.368 . S
C725 C709 1.349 1_556 S
C725 H717 0.950 . S
C725 C723 1.327 . S
C726 C714 1.349 . S
C726 H720 0.950 . S
C726 C727 1.327 . S
C727 H721 0.950 . S
C727 C726 1.327 . S
C727 C731 1.429 . S
C728 C711 1.574 . S
C728 H722 0.949 . S
C728 C732 1.368 1_556 S
C729 C710 1.429 . S
C729 C723 1.429 1_554 S
C729 C730 1.523 . S
C730 C711 1.368 1_554 S
C730 C724 1.368 . S
C730 C729 1.523 . S
C731 C715 1.429 1_554 S
C731 C727 1.429 . S
C731 C732 1.523 . S
C732 C716 1.368 . S
C732 C728 1.368 1_554 S
C732 C731 1.523 . S
H733 C708 0.950 . S
H734 C710 0.950 . S
H735 C711 0.949 . S
H736 C713 0.950 . S
H737 C715 0.950 . S
C738 C739 1.349 . S
C738 C740 1.327 . S
C738 H763 0.950 . S
C739 C738 1.349 . S
C739 C755 1.349 . S
C740 C738 1.327 . S
C740 C759 1.429 . S
C740 H764 0.950 . S
C741 C758 1.574 . S
C741 C760 1.368 . S
C741 H765 0.949 . S
H742 C746 0.949 . S
C743 C744 1.349 . S
C743 C745 1.327 . S
C743 H766 0.950 . S
C744 C743 1.349 . S
C744 C756 1.349 . S
C745 C743 1.327 . S
C745 C761 1.429 . S
C745 H767 0.950 . S
C746 H742 0.949 . S
C746 C754 1.574 . S
C746 C762 1.368 . S
H747 C755 0.950 . S
H748 C753 0.950 . S
H749 C754 0.949 . S
H750 C756 0.950 . S
H751 C757 0.950 . S
H752 C758 0.949 . S
C753 H748 0.950 . S
C753 C755 1.327 . S
C753 C759 1.429 . S
C754 C746 1.574 . S
C754 H749 0.949 . S
C754 C760 1.368 . S
C755 C739 1.349 . S
C755 H747 0.950 . S
C755 C753 1.327 . S
C756 C744 1.349 . S
C756 H750 0.950 . S
C756 C757 1.327 . S
C757 H751 0.950 . S
C757 C756 1.327 . S
C757 C761 1.429 . S
C758 C741 1.574 . S
C758 H752 0.949 . S
C758 C762 1.368 . S
C759 C740 1.429 . S
C759 C753 1.429 . S
C759 C760 1.523 . S
C760 C741 1.368 . S
C760 C754 1.368 . S
C760 C759 1.523 . S
C761 C745 1.429 . S
C761 C757 1.429 . S
C761 C762 1.523 . S
C762 C746 1.368 . S
C762 C758 1.368 . S
C762 C761 1.523 . S
H763 C738 0.950 . S
H764 C740 0.950 . S
H765 C741 0.949 . S
H766 C743 0.950 . S
H767 C745 0.950 . S
C289 C3 0.899 . S
C294 C147 0.899 . S
C319 C38 1.243 . S
C324 C182 1.243 . S
C349 C219 0.899 . S
C354 C75 0.899 . S
C379 C254 1.243 . S
C384 C110 1.243 . S
C409 C220 0.927 . S
C414 C76 0.927 . S
C439 C266 1.363 . S
C444 C122 1.363 . S
C469 C4 0.927 . S
C474 C148 0.927 . S
C499 C50 1.363 . S
C504 C194 1.363 . S
C529 C74 1.285 . S
C534 C2 1.285 . S
C559 C111 1.242 . S
C564 C39 1.242 . S
C589 C146 1.284 . S
C594 C218 1.284 . S
C619 C255 1.245 . S
C624 C183 1.245 . S
C649 C14 1.193 1_554 S
C654 C184 1.201 . S
C679 C230 1.194 . S
C684 C40 1.202 . S
C709 C86 1.193 1_554 S
C714 C256 1.201 . S
C739 C112 1.202 . S
C744 C158 1.194 . S
