# Generated by pormake.
# Topology wiu, (6)-cn, num edge types: 1
# Building blocks:
#     Node 0, Type 0, BuildingBlock: INOVEN_clean_sbu_0, # of connection points: 6
#     Node 1, Type 0, BuildingBlock: INOVEN_clean_sbu_0, # of connection points: 6
#     Node 2, Type 0, BuildingBlock: INOVEN_clean_sbu_0, # of connection points: 6
#     Node 3, Type 0, BuildingBlock: INOVEN_clean_sbu_0, # of connection points: 6
#     Node 4, Type 0, BuildingBlock: INOVEN_clean_sbu_0, # of connection points: 6
#     Node 5, Type 0, BuildingBlock: INOVEN_clean_sbu_0, # of connection points: 6
#     Node 6, Type 0, BuildingBlock: INOVEN_clean_sbu_0, # of connection points: 6
#     Node 7, Type 0, BuildingBlock: INOVEN_clean_sbu_0, # of connection points: 6
#     Node 8, Type 0, BuildingBlock: INOVEN_clean_sbu_0, # of connection points: 6
#     Node 9, Type 0, BuildingBlock: INOVEN_clean_sbu_0, # of connection points: 6
#     Node 10, Type 0, BuildingBlock: INOVEN_clean_sbu_0, # of connection points: 6
#     Node 11, Type 0, BuildingBlock: INOVEN_clean_sbu_0, # of connection points: 6
#     Node 12, Type 0, BuildingBlock: INOVEN_clean_sbu_0, # of connection points: 6
#     Node 13, Type 0, BuildingBlock: INOVEN_clean_sbu_0, # of connection points: 6
#     Node 14, Type 0, BuildingBlock: INOVEN_clean_sbu_0, # of connection points: 6
#     Node 15, Type 0, BuildingBlock: INOVEN_clean_sbu_0, # of connection points: 6
#     Edge 16, Type (0, 0), BuildingBlock: XIVTED_clean_linker_0, # of connection points: 2
#     Edge 17, Type (0, 0), BuildingBlock: XIVTED_clean_linker_0, # of connection points: 2
#     Edge 18, Type (0, 0), BuildingBlock: XIVTED_clean_linker_0, # of connection points: 2
#     Edge 19, Type (0, 0), BuildingBlock: XIVTED_clean_linker_0, # of connection points: 2
#     Edge 20, Type (0, 0), BuildingBlock: XIVTED_clean_linker_0, # of connection points: 2
#     Edge 21, Type (0, 0), BuildingBlock: XIVTED_clean_linker_0, # of connection points: 2
#     Edge 22, Type (0, 0), BuildingBlock: XIVTED_clean_linker_0, # of connection points: 2
#     Edge 23, Type (0, 0), BuildingBlock: XIVTED_clean_linker_0, # of connection points: 2
#     Edge 24, Type (0, 0), BuildingBlock: XIVTED_clean_linker_0, # of connection points: 2
#     Edge 25, Type (0, 0), BuildingBlock: XIVTED_clean_linker_0, # of connection points: 2
#     Edge 26, Type (0, 0), BuildingBlock: XIVTED_clean_linker_0, # of connection points: 2
#     Edge 27, Type (0, 0), BuildingBlock: XIVTED_clean_linker_0, # of connection points: 2
#     Edge 28, Type (0, 0), BuildingBlock: XIVTED_clean_linker_0, # of connection points: 2
#     Edge 29, Type (0, 0), BuildingBlock: XIVTED_clean_linker_0, # of connection points: 2
#     Edge 30, Type (0, 0), BuildingBlock: XIVTED_clean_linker_0, # of connection points: 2
#     Edge 31, Type (0, 0), BuildingBlock: XIVTED_clean_linker_0, # of connection points: 2
#     Edge 32, Type (0, 0), BuildingBlock: XIVTED_clean_linker_0, # of connection points: 2
#     Edge 33, Type (0, 0), BuildingBlock: XIVTED_clean_linker_0, # of connection points: 2
#     Edge 34, Type (0, 0), BuildingBlock: XIVTED_clean_linker_0, # of connection points: 2
#     Edge 35, Type (0, 0), BuildingBlock: XIVTED_clean_linker_0, # of connection points: 2
#     Edge 36, Type (0, 0), BuildingBlock: XIVTED_clean_linker_0, # of connection points: 2
#     Edge 37, Type (0, 0), BuildingBlock: XIVTED_clean_linker_0, # of connection points: 2
#     Edge 38, Type (0, 0), BuildingBlock: XIVTED_clean_linker_0, # of connection points: 2
#     Edge 39, Type (0, 0), BuildingBlock: XIVTED_clean_linker_0, # of connection points: 2
#     Edge 40, Type (0, 0), BuildingBlock: XIVTED_clean_linker_0, # of connection points: 2
#     Edge 41, Type (0, 0), BuildingBlock: XIVTED_clean_linker_0, # of connection points: 2
#     Edge 42, Type (0, 0), BuildingBlock: XIVTED_clean_linker_0, # of connection points: 2
#     Edge 43, Type (0, 0), BuildingBlock: XIVTED_clean_linker_0, # of connection points: 2
#     Edge 44, Type (0, 0), BuildingBlock: XIVTED_clean_linker_0, # of connection points: 2
#     Edge 45, Type (0, 0), BuildingBlock: XIVTED_clean_linker_0, # of connection points: 2
#     Edge 46, Type (0, 0), BuildingBlock: XIVTED_clean_linker_0, # of connection points: 2
#     Edge 47, Type (0, 0), BuildingBlock: XIVTED_clean_linker_0, # of connection points: 2
#     Edge 48, Type (0, 0), BuildingBlock: XIVTED_clean_linker_0, # of connection points: 2
#     Edge 49, Type (0, 0), BuildingBlock: XIVTED_clean_linker_0, # of connection points: 2
#     Edge 50, Type (0, 0), BuildingBlock: XIVTED_clean_linker_0, # of connection points: 2
#     Edge 51, Type (0, 0), BuildingBlock: XIVTED_clean_linker_0, # of connection points: 2
#     Edge 52, Type (0, 0), BuildingBlock: XIVTED_clean_linker_0, # of connection points: 2
#     Edge 53, Type (0, 0), BuildingBlock: XIVTED_clean_linker_0, # of connection points: 2
#     Edge 54, Type (0, 0), BuildingBlock: XIVTED_clean_linker_0, # of connection points: 2
#     Edge 55, Type (0, 0), BuildingBlock: XIVTED_clean_linker_0, # of connection points: 2
#     Edge 56, Type (0, 0), BuildingBlock: XIVTED_clean_linker_0, # of connection points: 2
#     Edge 57, Type (0, 0), BuildingBlock: XIVTED_clean_linker_0, # of connection points: 2
#     Edge 58, Type (0, 0), BuildingBlock: XIVTED_clean_linker_0, # of connection points: 2
#     Edge 59, Type (0, 0), BuildingBlock: XIVTED_clean_linker_0, # of connection points: 2
#     Edge 60, Type (0, 0), BuildingBlock: XIVTED_clean_linker_0, # of connection points: 2
#     Edge 61, Type (0, 0), BuildingBlock: XIVTED_clean_linker_0, # of connection points: 2
#     Edge 62, Type (0, 0), BuildingBlock: XIVTED_clean_linker_0, # of connection points: 2
#     Edge 63, Type (0, 0), BuildingBlock: XIVTED_clean_linker_0, # of connection points: 2
# Relax obj value: 0.526
# Max RMSD: 0.320
# Mean RMSD: 0.320
data_MOF--net-wiu--node1-INOVEN_clean_sbu_0--edge1-XIVTED_clean_linker_0
_symmetry_space_group_name_H-M    P1
_symmetry_Int_Tables_number       1
_symmetry_cell_setting            triclinic
loop_
_symmetry_equiv_pos_as_xyz
'x, y, z'
_cell_length_a     37.603866
_cell_length_b     37.339256
_cell_length_c     54.054849
_cell_angle_alpha  89.973652
_cell_angle_beta   89.819705
_cell_angle_gamma 90.184014
loop_
_atom_site_label
_atom_site_type_symbol
_atom_site_fract_x
_atom_site_fract_y
_atom_site_fract_z
_atom_type_partial_charge
Gd0 Gd 0.33787 0.18285 0.32488 0.0
Gd1 Gd 0.37554 0.12212 0.30685 0.0
C2 C 0.37309 0.12649 0.36394 0.0
C3 C 0.30251 0.23466 0.34507 0.0
C4 C 0.29459 0.27144 0.33685 0.0
C5 C 0.31838 0.29018 0.32143 0.0
C6 C 0.26211 0.2873 0.34321 0.0
C7 C 0.2768 0.33984 0.31827 0.0
C8 C 0.25329 0.32118 0.33405 0.0
C9 C 0.30962 0.32405 0.31228 0.0
C10 C 0.40303 0.20216 0.30661 0.0
C11 C 0.32375 0.16304 0.26734 0.0
C12 C 0.4156 0.07644 0.2845 0.0
C13 C 0.40969 0.04766 0.26625 0.0
C14 C 0.40918 1.01176 0.2741 0.0
C15 C 0.40458 0.05538 0.2411 0.0
C16 C 0.40054 0.99164 0.2318 0.0
C17 C 0.40012 0.02766 0.22406 0.0
C18 C 0.40442 0.98407 0.2571 0.0
C19 C 0.30743 0.105 0.32078 0.0
O20 O 0.34544 0.14769 0.35978 0.0
O21 O 0.39502 0.1196 0.34567 0.0
O22 O 0.28751 0.20915 0.33228 0.0
O23 O 0.33571 0.22777 0.35024 0.0
O24 O 0.37317 0.21725 0.30131 0.0
O25 O 0.39695 0.17491 0.32017 0.0
O26 O 0.35016 0.14005 0.2705 0.0
O27 O 0.31261 0.18249 0.28639 0.0
O28 O 0.40165 0.07085 0.3063 0.0
O29 O 0.41228 0.10969 0.27704 0.0
O30 O 0.33419 0.08355 0.32299 0.0
O31 O 0.31808 0.13262 0.31002 0.0
H32 H 0.34353 0.27843 0.31611 0.0
H33 H 0.24336 0.27326 0.35502 0.0
H34 H 0.22801 0.33276 0.33932 0.0
H35 H 0.32818 0.33741 0.29998 0.0
H36 H 0.41294 1.00502 0.29341 0.0
H37 H 0.40476 0.08274 0.23444 0.0
H38 H 0.39797 0.03455 0.20467 0.0
H39 H 0.40458 0.95669 0.26372 0.0
Gd40 Gd 0.61286 0.60126 0.57601 0.0
Gd41 Gd 0.67138 0.64179 0.55746 0.0
C42 C 0.66738 0.63817 0.61479 0.0
C43 C 0.56284 0.56318 0.59588 0.0
C44 C 0.52835 0.55085 0.58596 0.0
C45 C 0.49691 0.55721 0.59927 0.0
C46 C 0.52621 0.53499 0.56241 0.0
C47 C 0.46169 0.53243 0.56555 0.0
C48 C 0.49325 0.52572 0.55239 0.0
C49 C 0.46385 0.54818 0.58914 0.0
C50 C 0.59188 0.66687 0.55883 0.0
C51 C 0.63039 0.58879 0.51823 0.0
C52 C 0.71576 0.6836 0.53514 0.0
C53 C 0.7448 0.67791 0.51713 0.0
C54 C 0.78027 0.67749 0.52529 0.0
C55 C 0.73768 0.6724 0.49194 0.0
C56 C 0.80111 0.66741 0.48329 0.0
C57 C 0.76553 0.66726 0.47521 0.0
C58 C 0.8081 0.67206 0.50859 0.0
C59 C 0.69089 0.57367 0.57023 0.0
O60 O 0.64828 0.60907 0.61019 0.0
O61 O 0.67276 0.66123 0.59678 0.0
O62 O 0.59136 0.5493 0.58597 0.0
O63 O 0.56582 0.59765 0.59936 0.0
O64 O 0.57703 0.63657 0.5535 0.0
O65 O 0.61924 0.6611 0.57199 0.0
O66 O 0.65119 0.61738 0.52085 0.0
O67 O 0.61384 0.57548 0.53788 0.0
O68 O 0.72127 0.67031 0.55712 0.0
O69 O 0.683 0.67892 0.52755 0.0
O70 O 0.71121 0.60143 0.57268 0.0
O71 O 0.66289 0.58344 0.5599 0.0
H72 H 0.49791 0.56963 0.61736 0.0
H73 H 0.54994 0.53026 0.55149 0.0
H74 H 0.49245 0.51401 0.53407 0.0
H75 H 0.44 0.55335 0.59983 0.0
H76 H 0.78657 0.6816 0.54462 0.0
H77 H 0.71067 0.67257 0.48504 0.0
H78 H 0.75914 0.66462 0.45578 0.0
H79 H 0.83512 0.67213 0.51545 0.0
Gd80 Gd 0.19484 0.87689 0.82516 0.0
Gd81 Gd 0.15172 0.93369 0.80456 0.0
C82 C 0.15783 0.93578 0.86227 0.0
C83 C 0.23337 0.8287 0.84656 0.0
C84 C 0.24173 0.79148 0.8394 0.0
C85 C 0.21682 0.77059 0.82645 0.0
C86 C 0.27562 0.77745 0.84389 0.0
C87 C 0.26007 0.72259 0.82175 0.0
C88 C 0.2847 0.74332 0.83521 0.0
C89 C 0.22587 0.73655 0.81774 0.0
C90 C 0.13025 0.85301 0.80878 0.0
C91 C 0.20955 0.89473 0.76731 0.0
C92 C 0.10182 0.96375 0.77946 0.0
C93 C 0.0627 0.96452 0.77915 0.0
C94 C 0.04538 0.99702 0.77488 0.0
C95 C 0.04262 0.93276 0.78042 0.0
C96 C 0.98925 0.96536 0.76912 0.0
C97 C 1.00616 0.93321 0.77564 0.0
C98 C 1.00899 0.9975 0.76991 0.0
C99 C 0.21692 0.9583 0.81792 0.0
O100 O 0.1853 0.91396 0.85873 0.0
O101 O 0.1357 0.94227 0.84397 0.0
O102 O 0.24668 0.85352 0.8322 0.0
O103 O 0.20038 0.83515 0.85278 0.0
O104 O 0.16046 0.83826 0.8039 0.0
O105 O 0.13568 0.88139 0.8211 0.0
O106 O 0.18265 0.91738 0.76979 0.0
O107 O 0.22031 0.87584 0.78667 0.0
O108 O 0.11653 0.9333 0.77328 0.0
O109 O 0.1178 0.97978 0.79787 0.0
O110 O 0.18861 0.97818 0.81748 0.0
O111 O 0.2095 0.92831 0.8088 0.0
H112 H 0.19051 0.78079 0.82262 0.0
H113 H 0.29528 0.79314 0.85376 0.0
H114 H 0.3111 0.73324 0.839 0.0
H115 H 0.20633 0.72165 0.80723 0.0
H116 H 0.06039 1.02181 0.77384 0.0
H117 H 0.05542 0.9073 0.78359 0.0
H118 H 0.99171 0.90806 0.77548 0.0
H119 H 0.99711 1.02275 0.76466 0.0
Gd120 Gd 0.92238 0.45914 1.07661 0.0
Gd121 Gd 0.86665 0.41526 1.054 0.0
C122 C 0.85924 0.42544 1.11244 0.0
C123 C 0.97035 0.49924 1.09675 0.0
C124 C 1.00558 0.5109 1.08745 0.0
C125 C 0.0359 0.50655 1.10222 0.0
C126 C 1.00971 0.52366 1.06312 0.0
C127 C 0.07396 0.52703 1.06838 0.0
C128 C 0.04348 0.53182 1.05376 0.0
C129 C 0.06977 0.51444 1.09277 0.0
C130 C 0.94696 0.3952 1.05863 0.0
C131 C 0.90959 0.47001 1.01789 0.0
C132 C 0.83564 0.36284 1.03158 0.0
C133 C 0.84875 0.33404 1.01576 0.0
C134 C 0.82571 0.30648 1.00875 0.0
C135 C 0.88473 0.33274 1.00886 0.0
C136 C 0.87414 0.27697 0.98691 0.0
C137 C 0.89736 0.3044 0.99448 0.0
C138 C 0.83825 0.27819 0.9944 0.0
C139 C 0.84259 0.4816 1.06651 0.0
O140 O 0.88633 0.44833 1.11052 0.0
O141 O 0.84829 0.40717 1.09305 0.0
O142 O 0.94249 0.51211 1.08542 0.0
O143 O 0.96726 0.46507 1.10151 0.0
O144 O 0.96213 0.42594 1.05535 0.0
O145 O 0.91835 0.39986 1.07065 0.0
O146 O 0.89357 0.43828 1.01917 0.0
O147 O 0.9207 0.48552 1.03856 0.0
O148 O 0.8372 0.39524 1.02242 0.0
O149 O 0.8467 0.36109 1.05438 0.0
O150 O 0.82236 0.45331 1.06571 0.0
O151 O 0.87272 0.47326 1.05846 0.0
H152 H 0.03341 0.49647 1.12094 0.0
H153 H 0.98693 0.52671 1.0511 0.0
H154 H 0.04581 0.54105 1.03482 0.0
H155 H 0.09269 0.51081 1.10459 0.0
H156 H 0.79796 0.30699 1.01421 0.0
H157 H 0.90296 0.35369 1.01456 0.0
H158 H 0.92511 0.30414 0.98906 0.0
H159 H 0.81946 0.25794 0.98843 0.0
Gd160 Gd 0.65177 0.93232 1.02696 0.0
Gd161 Gd 0.69668 0.87713 1.0044 0.0
C162 C 0.70673 0.89056 1.06302 0.0
C163 C 0.59854 0.96203 1.049 0.0
C164 C 0.56945 0.94821 1.06425 0.0
C165 C 0.5402 0.97005 1.0692 0.0
C166 C 0.56955 0.91256 1.07249 0.0
C167 C 0.51176 0.92132 1.09177 0.0
C168 C 0.54091 0.8992 1.08624 0.0
C169 C 0.51159 0.95677 1.08288 0.0
C170 C 0.71688 0.95857 1.01452 0.0
C171 C 0.66357 0.94034 0.9687 0.0
C172 C 0.73759 0.82969 0.98418 0.0
C173 C 0.74788 0.79384 0.99298 0.0
C174 C 0.73677 0.78204 1.01644 0.0
C175 C 0.76859 0.77117 0.97819 0.0
C176 C 0.76678 0.72511 1.01027 0.0
C177 C 0.77814 0.73711 0.98682 0.0
C178 C 0.7459 0.74796 1.02494 0.0
C179 C 0.63314 0.85134 1.0222 0.0
O180 O 0.67503 0.90608 1.06179 0.0
O181 O 0.72241 0.87958 1.04238 0.0
O182 O 0.6304 0.96086 1.05861 0.0
O183 O 0.5977 0.95126 1.02606 0.0
O184 O 0.68841 0.97817 1.01581 0.0
O185 O 0.70958 0.92778 1.02237 0.0
O186 O 0.68671 0.91361 0.97073 0.0
O187 O 0.64451 0.95071 0.98787 0.0
O188 O 0.74958 0.8565 0.99726 0.0
O189 O 0.70407 0.8334 0.97844 0.0
O190 O 0.66374 0.83662 1.02551 0.0
O191 O 0.63768 0.88 1.01007 0.0
H192 H 0.53961 0.99748 1.06264 0.0
H193 H 0.5918 0.89517 1.06834 0.0
H194 H 0.54173 0.8718 1.0928 0.0
H195 H 0.48993 0.97475 1.08726 0.0
H196 H 0.72122 0.7993 1.02832 0.0
H197 H 0.77741 0.7798 0.96004 0.0
H198 H 0.79412 0.72002 0.97505 0.0
H199 H 0.73723 0.73976 1.04322 0.0
Gd200 Gd 0.36797 0.41555 0.77744 0.0
Gd201 Gd 0.42199 0.46078 0.75413 0.0
C202 C 0.41032 0.47116 0.81293 0.0
C203 C 0.33863 0.36212 0.80001 0.0
C204 C 0.35223 0.33311 0.8154 0.0
C205 C 0.33031 0.30378 0.82063 0.0
C206 C 0.38762 0.33336 0.82357 0.0
C207 C 0.37839 0.27568 0.84347 0.0
C208 C 0.4006 0.30486 0.83763 0.0
C209 C 0.34325 0.27529 0.83457 0.0
C210 C 0.34157 0.48097 0.7654 0.0
C211 C 0.35912 0.42605 0.71911 0.0
C212 C 0.46893 0.50193 0.73367 0.0
C213 C 0.50364 0.51464 0.74312 0.0
C214 C 0.53461 0.50972 0.72898 0.0
C215 C 0.50664 0.52875 0.76715 0.0
C216 C 0.57107 0.53208 0.76291 0.0
C217 C 0.53994 0.53754 0.77686 0.0
C218 C 0.56802 0.51825 0.73879 0.0
C219 C 0.44827 0.39739 0.77189 0.0
O220 O 0.39518 0.439 0.81188 0.0
O221 O 0.42033 0.48713 0.79211 0.0
O222 O 0.33991 0.39438 0.80941 0.0
O223 O 0.34926 0.36093 0.77704 0.0
O224 O 0.32226 0.45209 0.76671 0.0
O225 O 0.37228 0.47387 0.77289 0.0
O226 O 0.38578 0.44944 0.72067 0.0
O227 O 0.34896 0.40744 0.73861 0.0
O228 O 0.44051 0.51417 0.74476 0.0
O229 O 0.46687 0.46764 0.72913 0.0
O230 O 0.46266 0.42849 0.77514 0.0
O231 O 0.41958 0.40141 0.76001 0.0
H232 H 0.30309 0.30307 0.81413 0.0
H233 H 0.40507 0.35564 0.81917 0.0
H234 H 0.42776 0.30584 0.84422 0.0
H235 H 0.32521 0.2536 0.83918 0.0
H236 H 0.533 0.4986 0.7105 0.0
H237 H 0.48335 0.5323 0.77872 0.0
H238 H 0.54139 0.54773 0.79559 0.0
H239 H 0.59147 0.51409 0.72748 0.0
Gd240 Gd 0.88204 0.12142 0.52668 0.0
Gd241 Gd 0.84245 0.18004 0.50631 0.0
C242 C 0.82583 0.16238 0.56379 0.0
C243 C 0.92205 0.08365 0.55485 0.0
C244 C 0.91383 0.06542 0.57845 0.0
C245 C 0.88989 0.03635 0.57946 0.0
C246 C 0.92797 0.07889 0.60054 0.0
C247 C 0.89405 0.03511 0.62428 0.0
C248 C 0.91809 0.06401 0.62322 0.0
C249 C 0.88025 1.02122 0.60217 0.0
C250 C 0.81622 0.1004 0.51178 0.0
C251 C 0.88023 0.12142 0.46915 0.0
C252 C 0.80578 0.22997 0.48508 0.0
C253 C 0.79497 0.26559 0.49404 0.0
C254 C 0.80874 0.27895 0.51632 0.0
C255 C 0.77022 0.28605 0.48089 0.0
C256 C 0.77313 0.33293 0.51234 0.0
C257 C 0.75931 0.31943 0.48998 0.0
C258 C 0.7981 0.31231 0.52532 0.0
C259 C 0.90664 0.2015 0.52472 0.0
O260 O 0.85258 0.13962 0.56151 0.0
O261 O 0.81544 0.18112 0.54427 0.0
O262 O 0.90685 0.07069 0.53503 0.0
O263 O 0.92177 0.11873 0.55555 0.0
O264 O 0.84398 0.07991 0.5111 0.0
O265 O 0.82443 0.12943 0.52195 0.0
O266 O 0.85317 0.14391 0.47232 0.0
O267 O 0.9011 0.11388 0.48792 0.0
O268 O 0.79132 0.20284 0.4966 0.0
O269 O 0.83986 0.22563 0.48148 0.0
O270 O 0.87636 0.21609 0.52961 0.0
O271 O 0.90143 0.17376 0.51155 0.0
H272 H 0.87824 0.02545 0.56277 0.0
H273 H 0.94642 0.10124 0.60031 0.0
H274 H 0.92985 0.07472 0.63993 0.0
H275 H 0.86182 0.99887 0.60247 0.0
H276 H 0.82748 0.26342 0.52696 0.0
H277 H 0.75919 0.27614 0.46371 0.0
H278 H 0.74022 0.33477 0.47945 0.0
H279 H 0.80884 0.3216 0.54275 0.0
Gd280 Gd 0.16852 0.64692 0.27737 0.0
Gd281 Gd 0.1134 0.60102 0.25615 0.0
C282 C 0.12755 0.59116 0.31426 0.0
C283 C 0.19953 0.69994 0.29928 0.0
C284 C 0.18631 0.73059 0.31331 0.0
C285 C 0.20917 0.7592 0.31834 0.0
C286 C 0.15055 0.73224 0.32073 0.0
C287 C 0.16133 0.79018 0.3398 0.0
C288 C 0.13813 0.76183 0.33396 0.0
C289 C 0.19683 0.78877 0.3315 0.0
C290 C 0.19466 0.5817 0.26459 0.0
C291 C 0.17315 0.63584 0.21908 0.0
C292 C 0.06593 0.55995 0.23624 0.0
C293 C 0.02999 0.55065 0.24503 0.0
C294 C 1.01885 0.5618 0.2686 0.0
C295 C 1.00669 0.53069 0.23024 0.0
C296 C 0.96137 0.53324 0.26261 0.0
C297 C 0.97265 0.52186 0.23902 0.0
C298 C 0.98481 0.55342 0.27724 0.0
C299 C 0.08816 0.66521 0.27386 0.0
O300 O 0.14265 0.62336 0.31262 0.0
O301 O 0.11654 0.57498 0.29389 0.0
O302 O 0.19549 0.6685 0.30953 0.0
O303 O 0.191 0.70016 0.27595 0.0
O304 O 0.21388 0.61066 0.26521 0.0
O305 O 0.16447 0.5886 0.27319 0.0
O306 O 0.15015 0.60925 0.22259 0.0
O307 O 0.18114 0.65773 0.23735 0.0
O308 O 0.09189 0.54791 0.24988 0.0
O309 O 0.0706 0.59338 0.22978 0.0
O310 O 0.07363 0.63433 0.27763 0.0
O311 O 0.11618 0.66062 0.26131 0.0
H312 H 0.23672 0.75843 0.31242 0.0
H313 H 0.13243 0.71047 0.31654 0.0
H314 H 0.11067 0.76223 0.34005 0.0
H315 H 0.2156 0.80976 0.33612 0.0
H316 H 0.03662 0.57669 0.28049 0.0
H317 H 1.01485 0.52183 0.21201 0.0
H318 H 0.95506 0.50638 0.22731 0.0
H319 H 0.97714 0.56203 0.29563 0.0
Gd320 Gd 0.83949 0.67974 0.82501 0.0
Gd321 Gd 0.88147 0.62241 0.80384 0.0
C322 C 0.87694 0.62062 0.86179 0.0
C323 C 0.80078 0.72856 0.84576 0.0
C324 C 0.7905 0.76413 0.83638 0.0
C325 C 0.80194 0.77523 0.81283 0.0
C326 C 0.76938 0.78717 0.85062 0.0
C327 C 0.77142 0.83216 0.81779 0.0
C328 C 0.75978 0.82087 0.84136 0.0
C329 C 0.79268 0.80893 0.80369 0.0
C330 C 0.90442 0.70258 0.80833 0.0
C331 C 0.82467 0.663 0.76698 0.0
C332 C 0.93078 0.59145 0.77856 0.0
C333 C 0.96984 0.58953 0.77873 0.0
C334 C 0.98641 0.55673 0.77408 0.0
C335 C 0.99076 0.62059 0.78109 0.0
C336 C 0.0437 0.5869 0.7702 0.0
C337 C 0.02741 0.61926 0.77703 0.0
C338 C 0.02301 0.55536 0.76986 0.0
C339 C 0.81574 0.59907 0.8174 0.0
O340 O 0.84982 0.64308 0.85879 0.0
O341 O 0.89819 0.61356 0.84302 0.0
O342 O 0.78742 0.70131 0.83379 0.0
O343 O 0.83461 0.72452 0.85039 0.0
O344 O 0.87444 0.71778 0.80356 0.0
O345 O 0.89855 0.6742 0.8206 0.0
O346 O 0.85099 0.63965 0.76919 0.0
O347 O 0.8144 0.68186 0.78652 0.0
O348 O 0.91718 0.62253 0.77268 0.0
O349 O 0.9138 0.57536 0.7966 0.0
O350 O 0.84369 0.57869 0.81693 0.0
O351 O 0.82379 0.62896 0.80833 0.0
H352 H 0.81787 0.75771 0.80139 0.0
H353 H 0.76029 0.77909 0.86883 0.0
H354 H 0.74353 0.83825 0.85274 0.0
H355 H 0.8016 0.81651 0.78534 0.0
H356 H 0.97074 0.53247 0.77222 0.0
H357 H 0.97854 0.64625 0.78463 0.0
H358 H 0.04259 0.64394 0.7777 0.0
H359 H 0.03442 0.53 0.76432 0.0
Gd360 Gd 0.11339 0.10052 1.07563 0.0
Gd361 Gd 0.17277 0.14002 1.0574 0.0
C362 C 0.16787 0.13675 1.1145 0.0
C363 C 0.06239 0.06415 1.0961 0.0
C364 C 0.02548 0.05674 1.08845 0.0
C365 C 1.00665 0.08142 1.07391 0.0
C366 C 1.00971 1.02371 1.09418 0.0
C367 C 0.9572 0.03949 1.07014 0.0
C368 C 0.97588 1.01516 1.08517 0.0
C369 C 0.97285 0.07292 1.06489 0.0
C370 C 0.0936 0.16626 1.05792 0.0
C371 C 0.13192 0.08742 1.01808 0.0
C372 C 0.218 0.18141 1.03552 0.0
C373 C 0.24718 0.17601 1.01758 0.0
C374 C 0.28261 0.17611 1.02582 0.0
C375 C 0.24028 0.17069 0.99234 0.0
C376 C 0.30383 0.16727 0.98378 0.0
C377 C 0.2683 0.16641 0.97563 0.0
C378 C 0.31062 0.17156 1.00914 0.0
C379 C 0.1913 0.07175 1.07073 0.0
O380 O 0.14939 0.10729 1.10971 0.0
O381 O 0.17285 0.15997 1.09656 0.0
O382 O 0.08697 0.04962 1.08233 0.0
O383 O 0.06987 0.09725 1.10199 0.0
O384 O 0.07838 0.13616 1.0527 0.0
O385 O 0.1206 0.16021 1.07132 0.0
O386 O 0.15276 0.11595 1.02074 0.0
O387 O 0.1151 0.07425 1.03766 0.0
O388 O 0.22318 0.16763 1.05739 0.0
O389 O 0.18529 0.17717 1.0277 0.0
O390 O 0.21193 0.0993 1.07309 0.0
O391 O 0.16354 0.08174 1.06019 0.0
H392 H 1.01831 0.10703 1.0691 0.0
H393 H 0.02383 1.00426 1.1053 0.0
H394 H 0.96441 0.98941 1.0899 0.0
H395 H 0.95946 0.09214 1.05319 0.0
H396 H 0.28872 0.18009 1.0452 0.0
H397 H 0.2133 0.17046 0.98538 0.0
H398 H 0.26205 0.16398 0.95616 0.0
H399 H 0.33761 0.17212 1.01605 0.0
Gd400 Gd 0.69279 0.37649 0.32604 0.0
Gd401 Gd 0.65332 0.43453 0.30492 0.0
C402 C 0.656 0.43635 0.36255 0.0
C403 C 0.72873 0.32663 0.3479 0.0
C404 C 0.73698 0.28951 0.34047 0.0
C405 C 0.77026 0.27475 0.34595 0.0
C406 C 0.71268 0.26942 0.32641 0.0
C407 C 0.75533 0.22073 0.32267 0.0
C408 C 0.72173 0.23543 0.31764 0.0
C409 C 0.77935 0.24067 0.33718 0.0
C410 C 0.62865 0.35424 0.30791 0.0
C411 C 0.70871 0.39238 0.26815 0.0
C412 C 0.61365 0.47258 0.27665 0.0
C413 C 0.62181 0.48947 0.25256 0.0
C414 C 0.64591 0.51833 0.25074 0.0
C415 C 0.60755 0.47485 0.23084 0.0
C416 C 0.64185 0.51691 0.20591 0.0
C417 C 0.61756 0.48831 0.20778 0.0
C418 C 0.65571 0.532 0.22763 0.0
C419 C 0.72005 0.45508 0.31885 0.0
O420 O 0.68304 0.41384 0.35948 0.0
O421 O 0.63488 0.44342 0.34379 0.0
O422 O 0.74353 0.35165 0.33447 0.0
O423 O 0.69545 0.33351 0.35298 0.0
O424 O 0.65898 0.33948 0.30338 0.0
O425 O 0.63373 0.3825 0.32058 0.0
O426 O 0.6803 0.41313 0.26982 0.0
O427 O 0.72092 0.37654 0.28838 0.0
O428 O 0.62995 0.48576 0.29596 0.0
O429 O 0.61264 0.43751 0.2767 0.0
O430 O 0.69266 0.47603 0.31957 0.0
O431 O 0.71076 0.42611 0.30922 0.0
H432 H 0.78944 0.28981 0.35669 0.0
H433 H 0.68688 0.28023 0.32179 0.0
H434 H 0.70271 0.22113 0.3063 0.0
H435 H 0.80526 0.22999 0.34174 0.0
H436 H 0.65761 0.53013 0.26712 0.0
H437 H 0.58895 0.45265 0.23168 0.0
H438 H 0.60572 0.47671 0.19138 0.0
H439 H 0.67433 0.55416 0.22673 0.0
Gd440 Gd 0.42093 0.95942 0.57607 0.0
Gd441 Gd 0.36257 0.91876 0.55743 0.0
C442 C 0.36683 0.92133 0.61474 0.0
C443 C 0.47117 0.99707 0.59585 0.0
C444 C 0.50605 1.00862 0.58595 0.0
C445 C 0.53716 1.00191 0.59943 0.0
C446 C 0.50889 1.02408 0.56229 0.0
C447 C 0.57341 0.02557 0.56566 0.0
C448 C 0.54218 0.03262 0.55233 0.0
C449 C 0.57055 1.01019 0.58936 0.0
C450 C 0.44214 0.89408 0.55844 0.0
C451 C 0.40276 0.973 0.51856 0.0
C452 C 0.31891 0.87693 0.53469 0.0
C453 C 0.29069 0.88268 0.51618 0.0
C454 C 0.25492 0.88412 0.52377 0.0
C455 C 0.29893 0.88725 0.49103 0.0
C456 C 0.23603 0.89349 0.48132 0.0
C457 C 0.2719 0.89255 0.47379 0.0
C458 C 0.2279 0.88968 0.50656 0.0
C459 C 0.34242 0.9864 0.57093 0.0
O460 O 0.3855 0.95081 0.61031 0.0
O461 O 0.36167 0.89856 0.59656 0.0
O462 O 0.44305 1.01122 0.58569 0.0
O463 O 0.46753 0.96273 0.59967 0.0
O464 O 0.45688 0.92448 0.55315 0.0
O465 O 0.41477 0.89966 0.57171 0.0
O466 O 0.38247 0.94402 0.52101 0.0
O467 O 0.41922 0.98612 0.53822 0.0
O468 O 0.3126 0.89035 0.55655 0.0
O469 O 0.35199 0.88142 0.52756 0.0
O470 O 0.32229 0.9584 0.57302 0.0
O471 O 0.37062 0.97714 0.56049 0.0
H472 H 0.53565 0.98977 0.61761 0.0
H473 H 0.48543 0.02906 0.55124 0.0
H474 H 0.5435 0.04405 0.53392 0.0
H475 H 0.59412 1.00477 0.60019 0.0
H476 H 0.24774 0.88073 0.54305 0.0
H477 H 0.3262 0.88625 0.48454 0.0
H478 H 0.27913 0.89452 0.45443 0.0
H479 H 0.20062 0.89046 0.513 0.0
Gd480 Gd 0.15339 0.4362 0.5273 0.0
Gd481 Gd 0.19398 0.37921 0.50549 0.0
C482 C 0.2106 0.39512 0.5631 0.0
C483 C 0.1129 0.47267 0.55611 0.0
C484 C 0.12101 0.49011 0.57995 0.0
C485 C 0.14605 0.51817 0.58148 0.0
C486 C 0.10576 0.47667 0.60176 0.0
C487 C 0.14075 0.51848 0.62626 0.0
C488 C 0.11562 0.4906 0.62468 0.0
C489 C 0.15566 0.53235 0.60443 0.0
C490 C 0.21882 0.45909 0.51238 0.0
C491 C 0.15561 0.43851 0.46961 0.0
C492 C 0.23039 0.32973 0.4835 0.0
C493 C 0.23931 0.29292 0.49133 0.0
C494 C 0.21568 0.27308 0.5062 0.0
C495 C 0.27262 0.27835 0.48557 0.0
C496 C 0.25909 0.22513 0.51025 0.0
C497 C 0.28241 0.24475 0.49486 0.0
C498 C 0.22544 0.23963 0.51556 0.0
C499 C 0.13039 0.35595 0.52425 0.0
O500 O 0.18184 0.41542 0.56191 0.0
O501 O 0.22267 0.37959 0.5427 0.0
O502 O 0.12805 0.4864 0.53645 0.0
O503 O 0.11345 0.4376 0.55627 0.0
O504 O 0.19075 0.47911 0.51247 0.0
O505 O 0.21112 0.4295 0.52197 0.0
O506 O 0.18317 0.41659 0.47232 0.0
O507 O 0.13442 0.44479 0.48857 0.0
O508 O 0.24501 0.3553 0.49644 0.0
O509 O 0.19693 0.33599 0.47875 0.0
O510 O 0.16099 0.34176 0.52865 0.0
O511 O 0.13495 0.38415 0.51145 0.0
H512 H 0.15862 0.52895 0.56501 0.0
H513 H 0.08651 0.45504 0.6011 0.0
H514 H 0.10302 0.47994 0.64118 0.0
H515 H 0.17496 0.55392 0.60513 0.0
H516 H 0.18985 0.2837 0.51104 0.0
H517 H 0.29131 0.29321 0.47421 0.0
H518 H 0.30831 0.23423 0.49003 0.0
H519 H 0.20693 0.22565 0.52756 0.0
Gd520 Gd 0.86151 0.9132 0.27859 0.0
Gd521 Gd 0.91627 0.95735 0.25504 0.0
C522 C 0.90479 0.96862 0.31371 0.0
C523 C 0.83186 0.86026 0.30147 0.0
C524 C 0.84605 0.83085 0.31623 0.0
C525 C 0.82436 0.80144 0.32167 0.0
C526 C 0.88186 0.83083 0.32351 0.0
C527 C 0.87355 0.77273 0.34298 0.0
C528 C 0.89552 0.80198 0.33688 0.0
C529 C 0.83795 0.77261 0.33496 0.0
C530 C 0.83599 0.97884 0.26629 0.0
C531 C 0.85271 0.92353 0.22022 0.0
C532 C 0.96405 0.99785 0.23466 0.0
C533 C 0.99914 1.0086 0.24428 0.0
C534 C 1.00889 0.99891 0.26842 0.0
C535 C 0.02322 0.02796 0.22959 0.0
C536 C 0.06664 0.02744 0.26311 0.0
C537 C 0.05667 0.0375 0.23898 0.0
C538 C 0.04234 1.00801 0.27769 0.0
C539 C 0.94124 0.89348 0.27314 0.0
O540 O 0.88903 0.93675 0.3129 0.0
O541 O 0.91498 0.98411 0.2928 0.0
O542 O 0.8343 0.89235 0.31101 0.0
O543 O 0.84104 0.8592 0.27821 0.0
O544 O 0.81629 0.95025 0.26785 0.0
O545 O 0.86667 0.9714 0.27371 0.0
O546 O 0.87955 0.94675 0.22171 0.0
O547 O 0.84258 0.90494 0.23974 0.0
O548 O 0.93673 1.01044 0.2468 0.0
O549 O 0.96055 0.96384 0.22953 0.0
O550 O 0.95625 0.92427 0.27621 0.0
O551 O 0.91275 0.89805 0.26117 0.0
H552 H 0.79682 0.80093 0.31584 0.0
H553 H 0.89912 0.85318 0.31894 0.0
H554 H 0.92301 0.80276 0.34277 0.0
H555 H 0.82011 0.75087 0.33981 0.0
H556 H 0.99055 0.98438 0.2802 0.0
H557 H 1.0162 0.03565 0.21092 0.0
H558 H 0.07492 0.05235 0.22728 0.0
H559 H 0.04895 1.00038 0.29645 0.0
Gd560 Gd 0.38487 0.62006 1.02803 0.0
Gd561 Gd 0.34274 0.67794 1.00748 0.0
C562 C 0.32845 0.6604 1.06546 0.0
C563 C 0.43408 0.58823 1.05269 0.0
C564 C 0.47306 0.58548 1.05219 0.0
C565 C 0.48893 0.55268 1.05784 0.0
C566 C 0.4946 0.61589 1.04865 0.0
C567 C 0.5468 0.58187 1.06059 0.0
C568 C 0.53121 0.61409 1.05274 0.0
C569 C 0.52548 0.55082 1.06197 0.0
C570 C 0.31902 0.59709 1.01476 0.0
C571 C 0.38024 0.61946 0.97015 0.0
C572 C 0.30383 0.72659 0.98686 0.0
C573 C 0.29268 0.76196 0.99608 0.0
C574 C 0.30416 0.77383 1.01938 0.0
C575 C 0.27043 0.78391 0.98197 0.0
C576 C 0.27128 0.82941 1.01442 0.0
C577 C 0.25971 0.81734 0.99108 0.0
C578 C 0.29372 0.80726 1.02841 0.0
C579 C 0.40755 0.70033 1.02423 0.0
O580 O 0.35477 0.63711 1.06295 0.0
O581 O 0.31792 0.67947 1.04613 0.0
O582 O 0.42117 0.61958 1.0587 0.0
O583 O 0.41662 0.57253 1.0348 0.0
O584 O 0.34688 0.5766 1.01502 0.0
O585 O 0.32714 0.6269 1.02388 0.0
O586 O 0.35306 0.64175 0.97349 0.0
O587 O 0.40162 0.61217 0.98872 0.0
O588 O 0.2906 0.69914 0.99876 0.0
O589 O 0.33782 0.72311 0.98246 0.0
O590 O 0.37756 0.71553 1.02916 0.0
O591 O 0.40176 0.67224 1.01162 0.0
H592 H 0.47276 0.52892 1.06057 0.0
H593 H 0.48289 0.6415 1.0442 0.0
H594 H 0.54691 0.63838 1.05128 0.0
H595 H 0.53636 0.52563 1.0683 0.0
H596 H 0.32101 0.75712 1.03071 0.0
H597 H 0.26129 0.77519 0.96395 0.0
H598 H 0.24264 0.83389 0.97977 0.0
H599 H 0.30266 0.81546 1.04658 0.0
Gd600 Gd 0.67314 0.14224 0.77262 0.0
Gd601 Gd 0.6133 0.10207 0.75534 0.0
C602 C 0.633 0.0902 0.81277 0.0
C603 C 0.71845 0.18423 0.79357 0.0
C604 C 0.74759 0.17919 0.8114 0.0
C605 C 0.7829 0.18407 0.80352 0.0
C606 C 0.74089 0.16887 0.83595 0.0
C607 C 0.80436 0.17045 0.84482 0.0
C608 C 0.76898 0.16468 0.8525 0.0
C609 C 0.81101 0.17952 0.81999 0.0
C610 C 0.69144 0.07365 0.75985 0.0
C611 C 0.66718 0.13801 0.71571 0.0
C612 C 0.56212 0.06523 0.73578 0.0
C613 C 0.52545 0.05756 0.74401 0.0
C614 C 0.50696 0.08191 0.75907 0.0
C615 C 0.50958 1.02464 0.7382 0.0
C616 C 0.45756 0.03994 0.76311 0.0
C617 C 0.47593 1.01591 0.74762 0.0
C618 C 0.47334 0.07323 0.76849 0.0
C619 C 0.59384 0.16788 0.77298 0.0
O620 O 0.65365 0.11877 0.80963 0.0
O621 O 0.61587 0.07658 0.79354 0.0
O622 O 0.72366 0.16971 0.77191 0.0
O623 O 0.68573 0.18032 0.80162 0.0
O624 O 0.71226 0.10104 0.75722 0.0
O625 O 0.6637 0.08398 0.77036 0.0
O626 O 0.64893 0.10852 0.72092 0.0
O627 O 0.67227 0.16157 0.73337 0.0
O628 O 0.58713 0.05094 0.7492 0.0
O629 O 0.56918 0.09838 0.72971 0.0
O630 O 0.57887 0.13778 0.77863 0.0
O631 O 0.62053 0.16178 0.75915 0.0
H632 H 0.78876 0.19171 0.7846 0.0
H633 H 0.71397 0.16461 0.84254 0.0
H634 H 0.76274 0.15839 0.87159 0.0
H635 H 0.83791 0.18382 0.8134 0.0
H636 H 0.51873 0.10741 0.76395 0.0
H637 H 0.52345 1.00545 0.72668 0.0
H638 H 0.46434 0.99028 0.74278 0.0
H639 H 0.46019 0.09221 0.78055 0.0
H640 H 0.41038 0.27373 0.2971 0.0
H641 H 0.62231 0.282 0.30083 0.0
H642 H 0.47295 0.18122 0.31612 0.0
H643 H 0.55812 0.37543 0.31441 0.0
H644 H 0.56863 0.24488 0.30119 0.0
H645 H 0.46406 0.31071 0.29813 0.0
C646 C 0.43544 0.26098 0.30139 0.0
C647 C 0.43682 0.22396 0.30653 0.0
C648 C 0.56618 0.27345 0.30412 0.0
C649 C 0.49919 0.26686 0.30745 0.0
C650 C 0.5969 0.2949 0.3038 0.0
C651 C 0.59503 0.33222 0.3076 0.0
C652 C 0.53273 0.28919 0.30772 0.0
C653 C 0.56106 0.34693 0.31142 0.0
C654 C 0.46617 0.28236 0.30209 0.0
C655 C 0.47038 0.20947 0.31203 0.0
N656 N 0.53136 0.32551 0.31116 0.0
N657 N 0.50015 0.23082 0.31214 0.0
H658 H 0.61484 0.73687 0.56658 0.0
H659 H 0.41931 0.82412 0.56632 0.0
H660 H 0.52059 0.67533 0.55038 0.0
H661 H 0.51358 0.88577 0.54996 0.0
H662 H 0.45582 0.76927 0.56623 0.0
H663 H 0.57842 0.79182 0.56625 0.0
C664 C 0.58659 0.73484 0.56296 0.0
C665 C 0.57099 0.70122 0.55839 0.0
C666 C 0.46847 0.79484 0.56264 0.0
C667 C 0.5288 0.76413 0.5585 0.0
C668 C 0.44759 0.82619 0.5627 0.0
C669 C 0.46316 0.85981 0.55801 0.0
C670 C 0.50548 0.79699 0.55843 0.0
C671 C 0.50016 0.86059 0.55352 0.0
C672 C 0.56577 0.76624 0.56275 0.0
C673 C 0.53404 0.70049 0.55387 0.0
N674 N 0.51992 0.82994 0.55404 0.0
N675 N 0.51434 0.73118 0.55425 0.0
H676 H 0.0619 0.87451 0.82119 0.0
H677 H 0.97245 0.68083 0.82137 0.0
H678 H 0.12115 0.7822 0.79707 0.0
H679 H 0.91427 0.77306 0.79606 0.0
H680 H 0.0274 0.71722 0.82099 0.0
H681 H 1.00712 0.83792 0.82056 0.0
C682 C 0.06341 0.84673 0.81556 0.0
C683 C 0.09623 0.83181 0.80863 0.0
C684 C 1.00254 0.72936 0.81547 0.0
C685 C 0.03383 0.78919 0.80912 0.0
C686 C 0.97121 0.70852 0.81552 0.0
C687 C 0.93864 0.7235 0.80822 0.0
C688 C 1.00118 0.76589 0.809 0.0
C689 C 0.93869 0.76005 0.80157 0.0
C690 C 0.03217 0.82579 0.81536 0.0
C691 C 0.09652 0.79516 0.80226 0.0
N692 N 0.96919 0.77995 0.80236 0.0
N693 N 0.06606 0.77516 0.80289 0.0
H694 H 0.11692 0.23561 1.06741 0.0
H695 H 0.92257 0.3251 1.06199 0.0
H696 H 0.02317 0.17598 1.04703 0.0
H697 H 1.01889 0.38666 1.05303 0.0
H698 H 0.95833 0.26981 1.06117 0.0
H699 H 0.08126 0.291 1.06697 0.0
C700 C 0.08895 0.2341 1.06281 0.0
C701 C 0.07325 0.20089 1.05716 0.0
C702 C 0.97162 0.29545 1.05936 0.0
C703 C 0.03189 0.2643 1.05708 0.0
C704 C 0.95116 0.32705 1.05985 0.0
C705 C 0.96757 0.36077 1.05753 0.0
C706 C 1.00897 0.29742 1.0571 0.0
C707 C 1.00489 0.36141 1.05479 0.0
C708 C 0.06854 0.26576 1.06254 0.0
C709 C 0.03667 0.20082 1.0514 0.0
N710 N 0.02419 0.33048 1.05488 0.0
N711 N 1.01734 0.23174 1.05171 0.0
H712 H 0.5633 0.875 1.02109 0.0
H713 H 0.47507 0.67998 1.00872 0.0
H714 H 0.62565 0.77855 1.02535 0.0
H715 H 0.41808 0.76916 1.04007 0.0
H716 H 0.52982 0.71654 1.00902 0.0
H717 H 0.50877 0.83805 1.02229 0.0
C718 C 0.56557 0.84614 1.02225 0.0
C719 C 0.59925 0.83001 1.02321 0.0
C720 C 0.50531 0.728 1.01592 0.0
C721 C 0.53686 0.78735 1.02396 0.0
C722 C 0.47407 0.70703 1.01588 0.0
C723 C 0.44184 0.72113 1.02474 0.0
C724 C 0.50427 0.7638 1.0242 0.0
C725 C 0.44221 0.75686 1.03322 0.0
C726 C 0.53443 0.82502 1.02296 0.0
C727 C 0.60038 0.79232 1.02468 0.0
N728 N 0.47264 0.77691 1.03254 0.0
N729 N 0.56986 0.7724 1.02476 0.0
H730 H 0.5238 0.17674 0.78528 0.0
H731 H 0.52038 0.39061 0.7769 0.0
H732 H 0.61574 0.23758 0.76224 0.0
H733 H 0.42546 0.32665 0.76921 0.0
H734 H 0.55609 0.33581 0.77712 0.0
H735 H 0.48846 0.23162 0.78506 0.0
C736 C 0.53676 0.20168 0.78029 0.0
C737 C 0.57308 0.20225 0.77374 0.0
C738 C 0.52748 0.33368 0.77539 0.0
C739 C 0.5322 0.26591 0.77371 0.0
C740 C 0.50692 0.36502 0.77538 0.0
C741 C 0.46965 0.36347 0.77296 0.0
C742 C 0.51085 0.30006 0.7735 0.0
C743 C 0.45401 0.32931 0.77101 0.0
C744 C 0.51634 0.23308 0.78007 0.0
C745 C 0.58796 0.23565 0.7674 0.0
N746 N 0.47458 0.29909 0.7715 0.0
N747 N 0.5676 0.26606 0.7677 0.0
H748 H 0.12483 0.28381 0.53236 0.0
H749 H 0.91279 0.27328 0.53357 0.0
H750 H 0.05988 0.37613 0.51721 0.0
H751 H 0.97705 0.18105 0.51655 0.0
H752 H 0.96615 0.31078 0.53302 0.0
H753 H 0.07156 0.24603 0.53197 0.0
C754 C 0.09933 0.29632 0.52906 0.0
C755 C 0.0971 0.33351 0.52481 0.0
C756 C 0.96869 0.28238 0.5294 0.0
C757 C 0.03534 0.28978 0.52463 0.0
C758 C 0.93816 0.26072 0.52983 0.0
C759 C 0.94014 0.22364 0.52509 0.0
C760 C 1.00208 0.2671 0.52471 0.0
C761 C 0.97405 0.20936 0.52028 0.0
C762 C 0.06887 0.27451 0.52872 0.0
C763 C 0.06307 0.34774 0.52057 0.0
N764 N 1.0036 0.23099 0.52041 0.0
N765 N 0.03363 0.32599 0.52079 0.0
H766 H 0.11181 0.73501 0.26793 0.0
H767 H 0.91694 0.82348 0.26903 0.0
H768 H 1.01683 0.67368 0.28276 0.0
H769 H 1.01266 0.88489 0.28072 0.0
H770 H 0.9526 0.76817 0.27042 0.0
H771 H 0.076 0.79016 0.26893 0.0
C772 C 0.08349 0.7331 0.27142 0.0
C773 C 0.06747 0.6995 0.27528 0.0
C774 C 0.96578 0.79378 0.27272 0.0
C775 C 0.02594 0.76269 0.27598 0.0
C776 C 0.94538 0.82538 0.27189 0.0
C777 C 0.96168 0.85906 0.27473 0.0
C778 C 1.00296 0.79572 0.2759 0.0
C779 C 0.99877 0.85967 0.27846 0.0
C780 C 0.063 0.76463 0.27202 0.0
C781 C 0.0305 0.69887 0.27974 0.0
N782 N 1.01804 0.82873 0.2787 0.0
N783 N 1.01108 0.72974 0.27974 0.0
H784 H 0.44065 0.9305 0.23277 0.0
H785 H 0.43973 0.93249 1.08909 0.0
H786 H 0.36347 0.98613 0.1881 0.0
H787 H 0.52015 0.88397 1.13481 0.0
H788 H 0.39867 0.93112 1.12419 0.0
H789 H 0.45503 0.89278 0.19761 0.0
C790 C 0.42587 0.93416 0.21581 0.0
C791 C 0.40175 0.96253 0.21314 0.0
C792 C 0.42496 0.9198 1.12636 0.0
C793 C 0.41914 0.92007 0.17248 0.0
C794 C 0.44843 0.92067 1.10635 0.0
C795 C 0.4838 0.90966 1.10938 0.0
C796 C 0.43725 0.90831 1.14954 0.0
C797 C 0.49334 0.89345 1.13178 0.0
C798 C 0.43431 0.91264 0.19561 0.0
C799 C 0.38339 0.96561 0.19066 0.0
N800 N 0.47049 0.89417 1.15124 0.0
N801 N 0.39317 0.94532 0.17097 0.0
H802 H 0.86283 0.70667 0.48403 0.0
H803 H 0.86195 0.70014 0.34085 0.0
H804 H 0.80672 0.62791 0.44048 0.0
H805 H 0.91204 0.78179 0.38528 0.0
H806 H 0.86306 0.65971 0.37636 0.0
H807 H 0.90153 0.71871 0.44896 0.0
C808 C 0.85923 0.69105 0.46735 0.0
C809 C 0.83049 0.66723 0.4649 0.0
C810 C 0.87481 0.68609 0.37815 0.0
C811 C 0.87411 0.68191 0.42432 0.0
C812 C 0.8741 0.7092 0.35789 0.0
C813 C 0.88553 0.74481 0.36049 0.0
C814 C 0.8865 0.69903 0.40114 0.0
C815 C 0.90218 0.7548 0.38262 0.0
C816 C 0.88134 0.69813 0.4472 0.0
C817 C 0.82754 0.64769 0.44282 0.0
N818 N 0.90122 0.73236 0.40235 0.0
N819 N 0.84841 0.65618 0.42313 0.0
H820 H 0.93466 1.01434 0.77246 0.0
H821 H 0.8928 0.96365 0.63545 0.0
H822 H 0.96397 0.91557 0.73639 0.0
H823 H 0.87698 0.06785 0.668 0.0
H824 H 0.89504 0.93761 0.67685 0.0
H825 H 0.89031 1.02451 0.7403 0.0
C826 C 0.93109 0.99427 0.75822 0.0
C827 C 0.9542 0.9649 0.75652 0.0
C828 C 0.89013 0.96604 0.67496 0.0
C829 C 0.90383 0.97647 0.71967 0.0
C830 C 0.88874 0.98091 0.6513 0.0
C831 C 0.88596 1.01811 0.6484 0.0
C832 C 0.88918 0.98867 0.69573 0.0
C833 C 0.88049 0.03916 0.66954 0.0
C834 C 0.90572 1.00006 0.73987 0.0
C835 C 0.9474 0.93907 0.73823 0.0
N836 N 0.88312 1.02428 0.69237 0.0
N837 N 0.92355 0.94598 0.7201 0.0
H838 H 0.91623 0.28634 0.94605 0.0
H839 H 0.81431 0.12684 0.88534 0.0
H840 H 0.85787 0.20523 0.9862 0.0
H841 H 0.86058 0.21713 0.84687 0.0
H842 H 0.85102 0.14102 0.92127 0.0
H843 H 0.91851 0.24678 0.91031 0.0
C844 C 0.9049 0.25973 0.94767 0.0
C845 C 0.88556 0.24957 0.96878 0.0
C846 C 0.85385 0.15708 0.90468 0.0
C847 C 0.88711 0.20469 0.92768 0.0
C848 C 0.83272 0.14916 0.88423 0.0
C849 C 0.83329 0.17168 0.86341 0.0
C850 C 0.8754 0.18787 0.90431 0.0
C851 C 0.85868 0.19931 0.86261 0.0
C852 C 0.90602 0.23719 0.92715 0.0
C853 C 0.87176 0.21464 0.96986 0.0
N854 N 0.87808 0.20715 0.88301 0.0
N855 N 0.8719 0.19378 0.94932 0.0
H856 H 0.36726 0.20304 0.84143 0.0
H857 H 0.3644 0.20826 0.98504 0.0
H858 H 0.41452 0.28543 0.8867 0.0
H859 H 0.31065 0.1289 0.94056 0.0
H860 H 0.40307 0.22195 0.95023 0.0
H861 H 0.36738 0.16273 0.87703 0.0
C862 C 0.37857 0.21231 0.8587 0.0
C863 C 0.38957 0.24803 0.86143 0.0
C864 C 0.3834 0.2009 0.9482 0.0
C865 C 0.38942 0.20238 0.90218 0.0
C866 C 0.36134 0.19287 0.9682 0.0
C867 C 0.33327 0.16831 0.96544 0.0
C868 C 0.37685 0.18485 0.92517 0.0
C869 C 0.33095 0.14916 0.94316 0.0
C870 C 0.37871 0.18928 0.879 0.0
C871 C 0.40507 0.25833 0.8839 0.0
N872 N 0.35179 0.15853 0.92364 0.0
N873 N 0.40362 0.23592 0.90363 0.0
H874 H 0.17328 0.85592 0.48149 0.0
H875 H 0.17642 0.86219 0.33794 0.0
H876 H 0.23323 0.93229 0.43807 0.0
H877 H 0.1225 0.78259 0.38228 0.0
H878 H 0.17714 0.9023 0.37361 0.0
H879 H 0.13523 0.84479 0.44609 0.0
C880 C 0.17789 0.8712 0.46476 0.0
C881 C 0.20741 0.8941 0.46248 0.0
C882 C 0.16419 0.87647 0.37535 0.0
C883 C 0.1645 0.88048 0.42155 0.0
C884 C 0.16384 0.85355 0.355 0.0
C885 C 0.15071 0.8185 0.35749 0.0
C886 C 0.15178 0.86393 0.39832 0.0
C887 C 0.13362 0.8091 0.37966 0.0
C888 C 0.15616 0.86465 0.44442 0.0
C889 C 0.21171 0.91322 0.4403 0.0
N890 N 0.13555 0.83131 0.39946 0.0
N891 N 0.19112 0.90527 0.42046 0.0
H892 H 0.14467 0.58953 0.63832 0.0
H893 H 0.09668 0.53627 0.7739 0.0
H894 H 0.15552 0.48388 0.66965 0.0
H895 H 0.07215 0.63712 0.73893 0.0
H896 H 0.14211 0.52573 0.74235 0.0
H897 H 0.14256 0.61451 0.68003 0.0
C898 C 0.14767 0.57169 0.65398 0.0
C899 C 0.14898 0.53447 0.65063 0.0
C900 C 0.12753 0.55069 0.74206 0.0
C901 C 0.1459 0.56274 0.69829 0.0
C902 C 0.10155 0.5567 0.76006 0.0
C903 C 0.07943 0.58681 0.7584 0.0
C904 C 0.13098 0.57482 0.72223 0.0
C905 C 0.08788 0.61305 0.74068 0.0
C906 C 0.14637 0.58595 0.67781 0.0
C907 C 0.15314 0.51264 0.67153 0.0
N908 N 0.11226 0.60594 0.72283 0.0
N909 N 0.1506 0.527 0.69451 0.0
H910 H 0.64479 0.58769 0.19282 0.0
H911 H 0.599 0.53031 1.05809 0.0
H912 H 0.65796 0.48138 1.16304 0.0
H913 H 0.57556 0.63303 1.09077 0.0
H914 H 0.64379 0.52043 1.08998 0.0
H915 H 0.64314 0.61147 1.1508 0.0
C916 C 0.64837 0.56945 0.17744 0.0
C917 C 0.6502 0.53236 0.18133 0.0
C918 C 0.62961 0.54563 1.0897 0.0
C919 C 0.64759 0.55926 1.13325 0.0
C920 C 0.60402 0.55127 1.07149 0.0
C921 C 0.58238 0.5818 1.07241 0.0
C922 C 0.63312 0.57053 1.10903 0.0
C923 C 0.59095 0.60865 1.08961 0.0
C924 C 0.64732 0.58303 1.15341 0.0
C925 C 0.65511 0.51004 1.16075 0.0
N926 N 0.61491 0.60191 1.10771 0.0
N927 N 0.65277 0.52372 1.13755 0.0
H928 H 0.31881 0.39964 0.31142 0.0
H929 H 0.15767 0.51961 0.26287 0.0
H930 H 0.21188 0.36054 0.30046 0.0
H931 H 0.26425 0.56066 0.27116 0.0
H932 H 0.17887 0.45989 0.27316 0.0
H933 H 0.30111 0.45748 0.29405 0.0
C934 C 0.29168 0.4031 0.30523 0.0
C935 C 0.26674 0.37517 0.30761 0.0
C936 C 0.19783 0.48176 0.27248 0.0
C937 C 0.24629 0.44141 0.28778 0.0
C938 C 0.18574 0.51587 0.26646 0.0
C939 C 0.20921 0.5451 0.26626 0.0
C940 C 0.23374 0.47673 0.27859 0.0
C941 C 0.2453 0.53879 0.27108 0.0
C942 C 0.28158 0.43618 0.29537 0.0
C943 C 0.23188 0.38141 0.29947 0.0
N944 N 0.25643 0.50529 0.27734 0.0
N945 N 0.22273 0.41379 0.29002 0.0
H946 H 0.44334 0.47104 0.54104 0.0
H947 H 0.24086 0.52884 0.51854 0.0
H948 H 0.40046 0.57233 0.56504 0.0
H949 H 0.27977 0.42094 0.51051 0.0
H950 H 0.30141 0.54868 0.52878 0.0
H951 H 0.38554 0.45553 0.52349 0.0
C952 C 0.4218 0.49014 0.54246 0.0
C953 C 0.42669 0.52296 0.55463 0.0
C954 C 0.29672 0.52076 0.52445 0.0
C955 C 0.36033 0.50535 0.53458 0.0
C956 C 0.26228 0.50951 0.51838 0.0
C957 C 0.25542 0.47319 0.51376 0.0
C958 C 0.32432 0.49549 0.52568 0.0
C959 C 0.284 0.44917 0.51402 0.0
C960 C 0.38877 0.48122 0.53251 0.0
C961 C 0.39771 0.54652 0.55612 0.0
N962 N 0.31712 0.46069 0.52004 0.0
N963 N 0.36575 0.53726 0.54623 0.0
H964 H 0.21956 0.66106 0.81847 0.0
H965 H 0.37851 0.54325 0.76387 0.0
H966 H 0.32373 0.703 0.80086 0.0
H967 H 0.2723 0.50182 0.77393 0.0
H968 H 0.35758 0.60267 0.77533 0.0
H969 H 0.23706 0.60334 0.80089 0.0
C970 C 0.24604 0.65827 0.8108 0.0
C971 C 0.27026 0.68706 0.81133 0.0
C972 C 0.33864 0.58078 0.77477 0.0
C973 C 0.29052 0.62079 0.79128 0.0
C974 C 0.35058 0.54684 0.76809 0.0
C975 C 0.32714 0.51756 0.768 0.0
C976 C 0.30295 0.58561 0.78167 0.0
C977 C 0.29124 0.5237 0.77372 0.0
C978 C 0.25602 0.62523 0.80081 0.0
C979 C 0.30434 0.68153 0.80135 0.0
N980 N 0.28029 0.55702 0.7806 0.0
N981 N 0.31343 0.64912 0.79184 0.0
H982 H 0.13518 0.48756 1.07292 0.0
H983 H 0.25859 0.63537 1.00956 0.0
H984 H 0.09465 0.58464 1.04034 0.0
H985 H 0.29574 0.5288 1.02553 0.0
H986 H 0.19818 0.61669 1.02014 0.0
H987 H 0.19419 0.50184 1.05614 0.0
C988 C 0.1387 0.51191 1.06229 0.0
C989 C 0.10992 0.53502 1.05812 0.0
C990 C 0.21937 0.59715 1.02101 0.0
C991 C 0.17733 0.55139 1.03873 0.0
C992 C 0.25384 0.6078 1.01486 0.0
C993 C 0.28214 0.5836 1.01662 0.0
C994 C 0.2131 0.56211 1.02944 0.0
C995 C 0.2746 0.54823 1.02376 0.0
C996 C 0.17232 0.51987 1.05253 0.0
C997 C 0.11595 0.56592 1.04388 0.0
N998 N 0.24083 0.53865 1.03025 0.0
N999 N 0.14897 0.57331 1.03488 0.0
H1000 H 0.77316 0.50553 1.0648 0.0
H1001 H 0.83251 0.69411 1.00855 0.0
H1002 H 0.88204 0.54186 1.06081 0.0
H1003 H 0.72523 0.67482 1.03385 0.0
H1004 H 0.84997 0.63592 1.02515 0.0
H1005 H 0.75363 0.56583 1.05251 0.0
C1006 C 0.79288 0.52629 1.06176 0.0
C1007 C 0.82928 0.51861 1.06361 0.0
C1008 C 0.82261 0.64442 1.02717 0.0
C1009 C 0.8073 0.58706 1.04908 0.0
C1010 C 0.81258 0.67751 1.01747 0.0
C1011 C 0.77737 0.68933 1.01978 0.0
C1012 C 0.7972 0.62266 1.03906 0.0
C1013 C 0.75273 0.66684 1.03184 0.0
C1014 C 0.78176 0.56059 1.05462 0.0
C1015 C 0.85373 0.54647 1.05938 0.0
N1016 N 0.76305 0.63447 1.04091 0.0
N1017 N 0.84234 0.57921 1.05203 0.0
H1018 H 0.59038 0.591 0.78993 0.0
H1019 H 0.793 0.53018 0.80821 0.0
H1020 H 0.6324 0.49235 0.76054 0.0
H1021 H 0.75503 0.63741 0.82104 0.0
H1022 H 0.73223 0.51183 0.79724 0.0
H1023 H 0.64869 0.60463 0.80743 0.0
C1024 C 0.61183 0.57209 0.78728 0.0
C1025 C 0.6065 0.54056 0.77364 0.0
C1026 C 0.73718 0.53926 0.80278 0.0
C1027 C 0.6735 0.55602 0.79366 0.0
C1028 C 0.77175 0.54963 0.80927 0.0
C1029 C 0.77896 0.58539 0.8155 0.0
C1030 C 0.70975 0.5648 0.80275 0.0
C1031 C 0.75056 0.60961 0.81631 0.0
C1032 C 0.64517 0.57994 0.79722 0.0
C1033 C 0.63544 0.5172 0.77063 0.0
N1034 N 0.71729 0.59894 0.80989 0.0
N1035 N 0.66769 0.52539 0.78056 0.0
H1036 H 0.70529 0.35933 0.51417 0.0
H1037 H 0.75995 0.54905 0.57212 0.0
H1038 H 0.81328 0.38611 0.53382 0.0
H1039 H 0.65179 0.51444 0.5603 0.0
H1040 H 0.78058 0.48927 0.55968 0.0
H1041 H 0.68567 0.41642 0.53132 0.0
C1042 C 0.72493 0.37732 0.52196 0.0
C1043 C 0.76101 0.36792 0.52245 0.0
C1044 C 0.75232 0.49469 0.56009 0.0
C1045 C 0.73866 0.43341 0.54246 0.0
C1046 C 0.74056 0.52871 0.56734 0.0
C1047 C 0.70414 0.53672 0.5671 0.0
C1048 C 0.72743 0.46873 0.55248 0.0
C1049 C 0.68014 0.50947 0.56061 0.0
C1050 C 0.71368 0.40984 0.53197 0.0
C1051 C 0.78515 0.39212 0.53322 0.0
N1052 N 0.6922 0.47689 0.55336 0.0
N1053 N 0.77358 0.42381 0.54269 0.0
H1054 H 0.77849 0.4141 0.31287 0.0
H1055 H 0.91295 0.57596 0.28656 0.0
H1056 H 0.74587 0.52448 0.31826 0.0
H1057 H 0.92902 0.46764 0.26126 0.0
H1058 H 0.85513 0.55796 0.30385 0.0
H1059 H 0.83783 0.43367 0.30074 0.0
C1060 C 0.78402 0.44255 0.31188 0.0
C1061 C 0.75714 0.46772 0.31637 0.0
C1062 C 0.87134 0.53821 0.29449 0.0
C1063 C 0.82515 0.49037 0.30222 0.0
C1064 C 0.90431 0.54839 0.28468 0.0
C1065 C 0.92575 0.52324 0.27238 0.0
C1066 C 0.86 0.50251 0.29229 0.0
C1067 C 0.9132 0.48798 0.27032 0.0
C1068 C 0.81786 0.4537 0.30477 0.0
C1069 C 0.76585 0.50423 0.31493 0.0
N1070 N 0.88127 0.47865 0.28026 0.0
N1071 N 0.79916 0.51453 0.30778 0.0
H1072 H 0.81282 0.88129 0.79287 0.0
H1073 H 0.65076 1.01553 0.76964 0.0
H1074 H 0.70578 0.86367 0.81924 0.0
H1075 H 0.76003 0.04703 0.75816 0.0
H1076 H 0.6705 0.95625 0.7822 0.0
H1077 H 0.7941 0.93889 0.77542 0.0
C1078 C 0.78536 0.88948 0.79493 0.0
C1079 C 0.76083 0.86762 0.80762 0.0
C1080 C 0.69025 0.97592 0.77676 0.0
C1081 C 0.73926 0.93337 0.78757 0.0
C1082 C 0.67898 1.00977 0.76941 0.0
C1083 C 0.70381 0.03635 0.763 0.0
C1084 C 0.72673 0.9683 0.77766 0.0
C1085 C 0.74001 0.0273 0.76296 0.0
C1086 C 0.77476 0.9224 0.78503 0.0
C1087 C 0.7257 0.87977 0.80991 0.0
N1088 N 0.75046 0.99402 0.77038 0.0
N1089 N 0.716 0.91169 0.79993 0.0
H1090 H 0.77823 0.92103 1.01289 0.0
H1091 H 0.89784 0.08176 1.06436 0.0
H1092 H 0.7384 0.02837 1.02207 0.0
H1093 H 0.9365 0.97475 1.05104 0.0
H1094 H 0.84045 0.0644 1.04666 0.0
H1095 H 0.83753 0.94195 1.02382 0.0
C1096 C 0.78215 0.9492 1.01681 0.0
C1097 C 0.75337 0.97296 1.01666 0.0
C1098 C 0.86155 0.04478 1.04754 0.0
C1099 C 0.82127 0.99716 1.02972 0.0
C1100 C 0.89438 0.05468 1.0576 0.0
C1101 C 0.92207 0.02961 1.0594 0.0
C1102 C 0.85631 1.00954 1.0392 0.0
C1103 C 0.91582 0.99482 1.05052 0.0
C1104 C 0.81602 0.96114 1.02319 0.0
C1105 C 0.75992 1.00918 1.02193 0.0
N1106 N 0.88368 0.98585 1.04091 0.0
N1107 N 0.79317 1.02014 1.02854 0.0
H1108 H 0.87372 0.04075 0.26545 0.0
H1109 H 0.71408 0.16001 0.31776 0.0
H1110 H 0.76683 1.00042 0.27415 0.0
H1111 H 0.81987 0.20042 0.30349 0.0
H1112 H 0.73163 0.1023 0.30021 0.0
H1113 H 0.85316 0.1003 0.27699 0.0
C1114 C 0.84574 0.04461 0.26939 0.0
C1115 C 0.82197 1.01559 0.26891 0.0
C1116 C 0.75095 0.12384 0.30085 0.0
C1117 C 0.79821 0.08377 0.28263 0.0
C1118 C 0.74094 0.15688 0.31082 0.0
C1119 C 0.76557 0.18522 0.31226 0.0
C1120 C 0.78589 0.11897 0.29225 0.0
C1121 C 0.80012 0.17928 0.30323 0.0
C1122 C 0.83402 0.07862 0.27612 0.0
C1123 C 0.78602 1.02209 0.27425 0.0
N1124 N 0.80921 0.14689 0.2937 0.0
N1125 N 0.77528 0.05546 0.28116 0.0
H1126 H 0.75587 0.13932 0.50923 0.0
H1127 H 0.63407 0.98478 0.56586 0.0
H1128 H 0.79309 0.03113 0.51875 0.0
H1129 H 0.59324 0.08626 0.54069 0.0
H1130 H 0.69233 1.00054 0.54848 0.0
H1131 H 0.69567 0.11955 0.5194 0.0
C1132 C 0.75116 0.11121 0.51299 0.0
C1133 C 0.7794 0.08682 0.51314 0.0
C1134 C 0.67054 1.01922 0.5466 0.0
C1135 C 0.71069 0.06404 0.52546 0.0
C1136 C 0.63738 1.01039 0.55671 0.0
C1137 C 0.60878 0.03432 0.55484 0.0
C1138 C 0.67526 0.05241 0.53476 0.0
C1139 C 0.61444 0.06689 0.54243 0.0
C1140 C 0.71681 0.09993 0.51892 0.0
C1141 C 0.77196 0.05074 0.5183 0.0
N1142 N 0.64704 0.07506 0.53306 0.0
N1143 N 0.73834 0.04049 0.52462 0.0
H1144 H 0.21846 0.16452 0.51807 0.0
H1145 H 0.38126 0.04715 0.56636 0.0
H1146 H 0.32478 0.20597 0.52796 0.0
H1147 H 0.27291 1.00906 0.56729 0.0
H1148 H 0.36038 0.10613 0.55371 0.0
H1149 H 0.23712 0.10801 0.53678 0.0
C1150 C 0.24567 0.1619 0.52428 0.0
C1151 C 0.27008 0.19021 0.52127 0.0
C1152 C 0.34102 0.08511 0.55698 0.0
C1153 C 0.29169 0.12522 0.54258 0.0
C1154 C 0.35294 0.05145 0.56435 0.0
C1155 C 0.32878 1.02321 0.56789 0.0
C1156 C 0.3046 0.09063 0.55284 0.0
C1157 C 0.2924 0.03017 0.56487 0.0
C1158 C 0.25631 0.12953 0.53493 0.0
C1159 C 0.30512 0.18484 0.5294 0.0
N1160 N 0.28142 0.06312 0.55723 0.0
N1161 N 0.31484 0.15305 0.53958 0.0
H1162 H 0.11329 0.98581 0.28945 0.0
H1163 H 0.25047 0.14676 0.31146 0.0
H1164 H 0.1001 0.09252 0.26036 0.0
H1165 H 0.27964 0.03634 0.32274 0.0
H1166 H 0.19117 0.12761 0.29911 0.0
H1167 H 0.17069 1.00402 0.30702 0.0
C1168 C 0.12243 1.01309 0.28682 0.0
C1169 C 0.10191 0.03769 0.27335 0.0
C1170 C 0.21036 0.1075 0.30447 0.0
C1171 C 0.16732 0.05868 0.29356 0.0
C1172 C 0.24418 0.11842 0.31172 0.0
C1173 C 0.27011 0.09307 0.31798 0.0
C1174 C 0.20211 0.07086 0.30353 0.0
C1175 C 0.26042 0.05674 0.31804 0.0
C1176 C 0.1552 1.02339 0.29679 0.0
C1177 C 0.11518 0.07257 0.27035 0.0
N1178 N 0.22718 0.04664 0.31072 0.0
N1179 N 0.14691 0.08203 0.28044 0.0
H1180 H 0.25995 0.04603 1.07368 0.0
H1181 H 0.20461 0.85858 1.01303 0.0
H1182 H 0.15164 1.01305 1.06043 0.0
H1183 H 0.31101 0.88029 1.03876 0.0
H1184 H 0.18547 0.91611 1.02977 0.0
H1185 H 0.27999 0.9858 1.06168 0.0
C1186 C 0.24039 0.02597 1.06867 0.0
C1187 C 0.20412 0.03457 1.06788 0.0
C1188 C 0.21301 0.9083 1.03187 0.0
C1189 C 0.22675 0.96613 1.05374 0.0
C1190 C 0.22401 0.87555 1.0221 0.0
C1191 C 0.25949 0.86459 1.02441 0.0
C1192 C 0.23768 0.93059 1.04392 0.0
C1193 C 0.28332 0.88753 1.03673 0.0
C1194 C 0.25181 0.9917 1.06169 0.0
C1195 C 0.17989 1.00765 1.06113 0.0
N1196 N 0.27205 0.91951 1.0459 0.0
N1197 N 0.19164 0.97486 1.0541 0.0
H1198 H 0.39844 0.08228 0.76988 0.0
H1199 H 0.27803 0.92042 0.8192 0.0
H1200 H 0.43686 0.97485 0.7818 0.0
H1201 H 0.23883 0.02828 0.81186 0.0
H1202 H 0.33763 0.94153 0.80882 0.0
H1203 H 0.34107 0.06465 0.78773 0.0
C1204 C 0.39494 0.05506 0.77638 0.0
C1205 C 0.42253 0.02994 0.77411 0.0
C1206 C 0.31619 0.96078 0.80975 0.0
C1207 C 0.35679 1.00956 0.79448 0.0
C1208 C 0.28216 0.94873 0.81581 0.0
C1209 C 0.25349 0.97261 0.81629 0.0
C1210 C 0.32166 0.99701 0.80384 0.0
C1211 C 0.26027 1.009 0.81172 0.0
C1212 C 0.36212 0.045 0.78653 0.0
C1213 C 0.41624 0.99497 0.78267 0.0
N1214 N 0.29364 1.02006 0.80537 0.0
N1215 N 0.38408 0.98585 0.79236 0.0
H1216 H 0.32123 0.10861 0.23318 0.0
H1217 H 0.18915 0.19966 1.13671 0.0
H1218 H 0.27521 0.21192 0.24837 0.0
H1219 H 0.19315 0.08527 1.14667 0.0
H1220 H 0.2264 0.20718 0.17373 0.0
H1221 H 0.2817 0.10229 0.19748 0.0
C1222 C 0.30323 0.13031 0.22887 0.0
C1223 C 0.302 0.16106 0.24396 0.0
C1224 C 0.2189 0.18045 0.16794 0.0
C1225 C 0.25623 0.15379 0.20255 0.0
C1226 C 0.19755 0.17609 1.14678 0.0
C1227 C 0.1875 0.14173 1.13852 0.0
C1228 C 0.23148 0.15025 0.18073 0.0
C1229 C 0.19967 0.11228 1.15238 0.0
C1230 C 0.28034 0.12644 0.20852 0.0
C1231 C 0.27743 0.18783 0.23735 0.0
N1232 N 0.22127 0.11718 0.17247 0.0
N1233 N 0.25586 0.18374 0.21713 0.0
H1234 H 0.67388 0.41812 0.41091 0.0
H1235 H 0.64271 0.61159 0.47008 0.0
H1236 H 0.6285 0.50382 0.36807 0.0
H1237 H 0.62277 0.51597 0.51265 0.0
H1238 H 0.64828 0.57433 0.43257 0.0
H1239 H 0.66634 0.45487 0.44858 0.0
C1240 C 0.66237 0.44456 0.40936 0.0
C1241 C 0.65151 0.45754 0.38613 0.0
C1242 C 0.64252 0.56156 0.45013 0.0
C1243 C 0.64377 0.50035 0.42926 0.0
C1244 C 0.63927 0.58286 0.47157 0.0
C1245 C 0.63165 0.56717 0.49467 0.0
C1246 C 0.63945 0.524 0.45174 0.0
C1247 C 0.62802 0.52953 0.4953 0.0
C1248 C 0.658 0.46553 0.4309 0.0
C1249 C 0.63689 0.49231 0.38548 0.0
N1250 N 0.63234 0.50935 0.47437 0.0
N1251 N 0.63386 0.51247 0.40649 0.0
H1252 H 0.21374 0.94948 0.73359 0.0
H1253 H 0.34434 0.8581 0.63619 0.0
H1254 H 0.25806 0.84539 0.74854 0.0
H1255 H 0.34297 0.97224 0.64778 0.0
H1256 H 0.30709 0.85032 0.67338 0.0
H1257 H 0.25379 0.95557 0.69804 0.0
C1258 C 0.2315 0.92757 0.72926 0.0
C1259 C 0.23207 0.89667 0.74422 0.0
C1260 C 0.3152 0.87703 0.6679 0.0
C1261 C 0.27843 0.90365 0.70296 0.0
C1262 C 0.33653 0.88154 0.64665 0.0
C1263 C 0.34727 0.91592 0.6388 0.0
C1264 C 0.30336 0.90714 0.68116 0.0
C1265 C 0.33588 0.94521 0.65315 0.0
C1266 C 0.25468 0.9313 0.70899 0.0
C1267 C 0.25638 0.86962 0.73761 0.0
N1268 N 0.31428 0.9402 0.67329 0.0
N1269 N 0.27825 0.87356 0.71742 0.0
H1270 H 0.85662 0.63761 0.91013 0.0
H1271 H 0.90489 0.44685 0.96918 0.0
H1272 H 0.90872 0.55523 0.86772 0.0
H1273 H 0.90847 0.54336 1.01281 0.0
H1274 H 0.89741 0.48376 0.93173 0.0
H1275 H 0.86603 0.60155 0.94792 0.0
C1276 C 0.86997 0.61204 0.90868 0.0
C1277 C 0.88212 0.59982 0.88552 0.0
C1278 C 0.90002 0.49685 0.9495 0.0
C1279 C 0.89222 0.55777 0.92882 0.0
C1280 C 0.90439 0.47573 0.97094 0.0
C1281 C 0.9079 0.49178 0.99436 0.0
C1282 C 0.89792 0.53446 0.95136 0.0
C1283 C 0.9065 0.52957 0.99525 0.0
C1284 C 0.87543 0.59146 0.93031 0.0
C1285 C 0.89917 0.56618 0.88503 0.0
N1286 N 0.90126 0.54942 0.97428 0.0
N1287 N 0.90334 0.54639 0.90611 0.0
H1288 H 0.78384 0.90052 0.21578 0.0
H1289 H 0.7794 0.88819 1.06805 0.0
H1290 H 0.87221 0.93618 0.17104 0.0
H1291 H 0.68384 0.89927 1.11161 0.0
H1292 H 0.81496 0.89719 1.1055 0.0
H1293 H 0.74857 0.89205 0.17826 0.0
C1294 C 0.79602 0.9065 0.19806 0.0
C1295 C 0.83137 0.91909 0.19681 0.0
C1296 C 0.78623 0.89746 1.10693 0.0
C1297 C 0.79061 0.9088 1.15324 0.0
C1298 C 0.76574 0.89193 1.08553 0.0
C1299 C 0.72825 0.89254 1.08648 0.0
C1300 C 0.76942 0.90302 1.12986 0.0
C1301 C 0.71249 0.89829 1.10981 0.0
C1302 C 0.77564 0.90174 0.17658 0.0
C1303 C 0.84519 0.92654 0.1731 0.0
N1304 N 0.73304 0.90299 1.13046 0.0
N1305 N 0.82499 0.92095 1.15234 0.0
H1306 H 0.35828 0.63664 0.92234 0.0
H1307 H 0.40838 0.44745 0.86161 0.0
H1308 H 0.41326 0.55484 0.96334 0.0
H1309 H 0.40729 0.54433 0.81824 0.0
H1310 H 0.40166 0.48387 0.89937 0.0
H1311 H 0.36706 0.60113 0.88425 0.0
C1312 C 0.37216 0.61132 0.92341 0.0
C1313 C 0.38527 0.59909 0.94626 0.0
C1314 C 0.40309 0.49715 0.88158 0.0
C1315 C 0.39467 0.55768 0.90262 0.0
C1316 C 0.40701 0.47632 0.85998 0.0
C1317 C 0.40899 0.49265 0.83655 0.0
C1318 C 0.39994 0.5347 0.8799 0.0
C1319 C 0.40654 0.53037 0.8358 0.0
C1320 C 0.37725 0.59106 0.90161 0.0
C1321 C 0.40296 0.56579 0.94627 0.0
N1322 N 0.40179 0.54992 0.85697 0.0
N1323 N 0.40678 0.54628 0.92503 0.0
H1324 H 0.68726 0.20061 0.69255 0.0
H1325 H 0.82347 0.10931 0.59892 0.0
H1326 H 0.69352 0.08604 0.68436 0.0
H1327 H 0.77532 0.21073 0.58107 0.0
H1328 H 0.78302 0.10343 0.63427 0.0
H1329 H 0.72495 0.2077 0.65554 0.0
C1330 C 0.69622 0.17691 0.68285 0.0
C1331 C 0.68673 0.14262 0.69159 0.0
C1332 C 0.78136 0.12705 0.62271 0.0
C1333 C 0.73118 0.15067 0.64947 0.0
C1334 C 0.80475 0.13069 0.60254 0.0
C1335 C 0.80319 0.16076 0.58682 0.0
C1336 C 0.7564 0.15399 0.62783 0.0
C1337 C 0.77777 0.18715 0.59259 0.0
C1338 C 0.71782 0.18103 0.66171 0.0
C1339 C 0.6996 0.11298 0.67824 0.0
N1340 N 0.75569 0.18332 0.61267 0.0
N1341 N 0.72145 0.11767 0.65817 0.0
H1342 H 0.17752 0.42305 0.42161 0.0
H1343 H 0.13077 0.61452 0.36319 0.0
H1344 H 0.12283 0.50367 0.46406 0.0
H1345 H 0.13002 0.51818 0.31929 0.0
H1346 H 0.13682 0.57733 0.40075 0.0
H1347 H 0.16965 0.46011 0.38422 0.0
C1348 C 0.16384 0.44843 0.42313 0.0
C1349 C 0.15053 0.45985 0.44617 0.0
C1350 C 0.13516 0.5644 0.38287 0.0
C1351 C 0.14227 0.50314 0.40333 0.0
C1352 C 0.13167 0.58566 0.36139 0.0
C1353 C 0.12932 0.56967 0.33788 0.0
C1354 C 0.13751 0.5268 0.38091 0.0
C1355 C 0.1311 0.53192 0.3369 0.0
C1356 C 0.15931 0.46961 0.40174 0.0
C1357 C 0.13319 0.49333 0.44679 0.0
N1358 N 0.13543 0.51199 0.3579 0.0
N1359 N 0.12991 0.51378 0.42591 0.0
H1360 H 0.68844 0.58612 0.64779 0.0
H1361 H 0.77876 0.71468 0.74847 0.0
H1362 H 0.69311 0.70023 0.63626 0.0
H1363 H 0.81752 0.60839 0.73336 0.0
H1364 H 0.73923 0.70968 0.71221 0.0
H1365 H 0.72658 0.59317 0.68435 0.0
C1366 C 0.69693 0.61275 0.65313 0.0
C1367 C 0.68724 0.6426 0.63878 0.0
C1368 C 0.75655 0.68756 0.71681 0.0
C1369 C 0.73114 0.65092 0.68103 0.0
C1370 C 0.77921 0.69042 0.73751 0.0
C1371 C 0.80207 0.66214 0.74398 0.0
C1372 C 0.75574 0.65573 0.70281 0.0
C1373 C 0.80094 0.63118 0.72905 0.0
C1374 C 0.71903 0.61672 0.67393 0.0
C1375 C 0.69974 0.67639 0.64665 0.0
N1376 N 0.77807 0.6287 0.70951 0.0
N1377 N 0.72072 0.67965 0.66721 0.0
H1378 H 0.17721 0.91778 0.91038 0.0
H1379 H 0.14359 0.11046 0.96997 0.0
H1380 H 0.12944 1.00272 0.86808 0.0
H1381 H 0.12541 1.01451 1.01256 0.0
H1382 H 0.14945 0.07334 0.93243 0.0
H1383 H 0.16971 0.95431 0.94818 0.0
C1384 C 0.16521 0.94402 0.90898 0.0
C1385 C 0.15365 0.95686 0.88589 0.0
C1386 C 0.14402 0.06047 0.95 0.0
C1387 C 0.14592 0.99938 0.9291 0.0
C1388 C 0.14059 0.08168 0.97145 0.0
C1389 C 0.13337 0.06583 0.99455 0.0
C1390 C 0.14151 1.02287 0.95161 0.0
C1391 C 0.13032 0.02815 0.9952 0.0
C1392 C 0.16085 0.96485 0.93058 0.0
C1393 C 0.13839 0.99134 0.88539 0.0
N1394 N 0.13479 1.00807 0.97424 0.0
N1395 N 0.13537 1.01138 0.90645 0.0
H1396 H 0.88075 0.43555 1.16142 0.0
H1397 H 0.68687 0.40621 0.22052 0.0
H1398 H 0.78969 0.4052 1.11787 0.0
H1399 H 0.7814 0.38403 0.26262 0.0
H1400 H 0.72387 0.41436 0.1834 0.0
H1401 H 0.84497 0.42573 0.19934 0.0
C1402 C 0.85331 0.42702 1.15975 0.0
C1403 C 0.83848 0.42105 1.13621 0.0
C1404 C 0.73655 0.40742 0.2007 0.0
C1405 C 0.79706 0.41028 0.17968 0.0
C1406 C 0.71536 0.40261 0.22195 0.0
C1407 C 0.73076 0.39369 0.24483 0.0
C1408 C 0.77381 0.40438 0.20219 0.0
C1409 C 0.76811 0.39012 0.2454 0.0
C1410 C 0.83292 0.42123 0.18144 0.0
C1411 C 0.80261 0.40991 1.13544 0.0
N1412 N 0.78827 0.39579 0.22458 0.0
N1413 N 0.78328 0.40523 1.15664 0.0
H1414 H 0.39128 0.95089 0.47033 0.0
H1415 H 0.35347 0.14414 0.41238 0.0
H1416 H 0.40737 0.04623 0.51382 0.0
H1417 H 0.40178 0.05993 0.3695 0.0
H1418 H 0.3617 0.10735 0.45005 0.0
H1419 H 0.38401 0.9887 0.43329 0.0
C1420 C 0.39355 0.9797 0.47211 0.0
C1421 C 0.40065 0.99516 0.4953 0.0
C1422 C 0.3705 0.09706 0.43234 0.0
C1423 C 0.39084 0.03892 0.45293 0.0
C1424 C 0.36572 0.11803 0.41081 0.0
C1425 C 0.37725 0.10548 0.3876 0.0
C1426 C 0.38583 0.0627 0.43062 0.0
C1427 C 0.39283 0.07114 0.3869 0.0
C1428 C 0.38929 1.00131 0.45095 0.0
C1429 C 0.40267 0.0329 0.49635 0.0
N1430 N 0.39628 0.05101 0.40785 0.0
N1431 N 0.39743 0.05337 0.47566 0.0
H1432 H 0.28949 0.40596 0.71486 0.0
H1433 H 0.28315 0.386 0.5676 0.0
H1434 H 0.37956 0.43587 0.66978 0.0
H1435 H 0.18975 0.40884 0.61116 0.0
H1436 H 0.32 0.39439 0.60475 0.0
H1437 H 0.2541 0.39761 0.67741 0.0
C1438 C 0.30201 0.41067 0.69707 0.0
C1439 C 0.33784 0.42166 0.6957 0.0
C1440 C 0.29143 0.39732 0.6062 0.0
C1441 C 0.29697 0.41142 0.65221 0.0
C1442 C 0.27024 0.39212 0.58502 0.0
C1443 C 0.23302 0.39623 0.58614 0.0
C1444 C 0.27542 0.40597 0.62898 0.0
C1445 C 0.21817 0.40504 0.60929 0.0
C1446 C 0.28159 0.40599 0.67562 0.0
C1447 C 0.35213 0.42753 0.6719 0.0
N1448 N 0.23924 0.40928 0.62968 0.0
N1449 N 0.33185 0.42199 0.65116 0.0
H1450 H 0.85806 0.13781 0.42131 0.0
H1451 H 0.90293 0.94601 0.36269 0.0
H1452 H 0.91239 0.05623 0.46294 0.0
H1453 H 0.90321 0.04183 0.3182 0.0
H1454 H 0.89774 0.98355 0.40007 0.0
H1455 H 0.8654 0.10104 0.38367 0.0
C1456 C 0.87156 0.11231 0.4226 0.0
C1457 C 0.88491 0.1005 0.44548 0.0
C1458 C 0.89913 0.99633 0.38211 0.0
C1459 C 0.89256 0.05762 0.40241 0.0
C1460 C 0.90216 0.97486 0.36073 0.0
C1461 C 0.90409 0.99058 0.33711 0.0
C1462 C 0.89684 0.0339 0.37998 0.0
C1463 C 0.90246 0.02832 0.33592 0.0
C1464 C 0.87579 0.09131 0.40107 0.0
C1465 C 0.902 0.06689 0.44581 0.0
N1466 N 0.89858 0.0485 0.35687 0.0
N1467 N 0.90498 0.04666 0.42484 0.0
H1468 H 0.19152 0.58368 0.18517 0.0
H1469 H 0.28389 0.7124 1.0851 0.0
H1470 H 0.20124 0.6971 0.19831 0.0
H1471 H 0.32056 0.60484 1.09828 0.0
H1472 H 0.24484 0.70715 1.12175 0.0
H1473 H 0.22923 0.59042 1.1481 0.0
C1474 C 0.20106 0.61009 0.1801 0.0
C1475 C 0.19298 0.63985 0.19501 0.0
C1476 C 0.26159 0.6848 1.11663 0.0
C1477 C 0.23616 0.64783 1.15226 0.0
C1478 C 0.28396 0.6878 1.09572 0.0
C1479 C 0.30611 0.65925 1.08863 0.0
C1480 C 0.26033 0.65257 1.13019 0.0
C1481 C 0.30454 0.62784 1.10311 0.0
C1482 C 0.22287 0.61387 1.15901 0.0
C1483 C 0.2067 0.67335 0.18749 0.0
N1484 N 0.28193 0.62525 1.12288 0.0
N1485 N 0.22728 0.67646 0.16667 0.0
H1486 H 0.67425 0.91881 0.91988 0.0
H1487 H 0.64974 0.11354 0.85991 0.0
H1488 H 0.64472 1.01062 0.96357 0.0
H1489 H 0.62328 1.01776 0.81938 0.0
H1490 H 0.65755 0.07694 0.89741 0.0
H1491 H 0.66576 0.955 0.88206 0.0
C1492 C 0.66619 0.94652 0.92159 0.0
C1493 C 0.65999 0.96145 0.9451 0.0
C1494 C 0.64983 0.06397 0.88032 0.0
C1495 C 0.65085 1.00334 0.90179 0.0
C1496 C 0.64526 0.08491 0.85889 0.0
C1497 C 0.63519 0.06898 0.83639 0.0
C1498 C 0.64545 0.02651 0.87927 0.0
C1499 C 0.63037 0.03148 0.83631 0.0
C1500 C 0.66118 0.96715 0.89997 0.0
C1501 C 0.64952 0.99768 0.94597 0.0
N1502 N 0.63586 1.01161 0.85722 0.0
N1503 N 0.64561 1.01728 0.92482 0.0
loop_
_geom_bond_atom_site_label_1
_geom_bond_atom_site_label_2
_geom_bond_distance
_geom_bond_site_symmetry_2
_ccdc_geom_bond_type
Gd0 C3 2.818 . S
Gd0 O20 2.377 . S
Gd0 O22 2.448 . S
Gd0 O23 2.506 . S
Gd0 O24 2.435 . S
Gd0 O25 2.717 . S
Gd0 O27 2.395 . S
Gd0 O31 2.327 . S
Gd1 C12 2.818 . S
Gd1 O21 2.395 . S
Gd1 O25 2.327 . S
Gd1 O26 2.377 . S
Gd1 O28 2.448 . S
Gd1 O29 2.506 . S
Gd1 O30 2.435 . S
Gd1 O31 2.717 . S
C2 O20 1.240 . S
C2 O21 1.240 . S
C3 Gd0 2.818 . S
C3 C4 1.510 . S
C3 O22 1.249 . S
C3 O23 1.252 . S
C4 C3 1.510 . S
C4 C5 1.404 . S
C4 C6 1.352 . S
C5 C4 1.404 . S
C5 C9 1.389 . S
C5 H32 0.930 . S
C6 C4 1.352 . S
C6 C8 1.374 . S
C6 H33 0.931 . S
C7 C8 1.359 . S
C7 C9 1.364 . S
C8 C6 1.374 . S
C8 C7 1.359 . S
C8 H34 0.931 . S
C9 C5 1.389 . S
C9 C7 1.364 . S
C9 H35 0.931 . S
C10 O24 1.256 . S
C10 O25 1.257 . S
C11 O26 1.240 . S
C11 O27 1.240 . S
C12 Gd1 2.818 . S
C12 C13 1.510 . S
C12 O28 1.249 . S
C12 O29 1.252 . S
C13 C12 1.510 . S
C13 C14 1.404 . S
C13 C15 1.352 . S
C14 C13 1.404 . S
C14 C18 1.389 1_545 S
C14 H36 0.930 1_545 S
C15 C13 1.352 . S
C15 C17 1.374 . S
C15 H37 0.931 . S
C16 C17 1.359 . S
C16 C18 1.364 1_545 S
C17 C15 1.374 . S
C17 C16 1.359 . S
C17 H38 0.931 . S
C18 C14 1.389 1_565 S
C18 C16 1.364 1_565 S
C18 H39 0.931 . S
C19 O30 1.256 . S
C19 O31 1.257 . S
O20 Gd0 2.377 . S
O20 C2 1.240 . S
O21 Gd1 2.395 . S
O21 C2 1.240 . S
O22 Gd0 2.448 . S
O22 C3 1.249 . S
O23 Gd0 2.506 . S
O23 C3 1.252 . S
O24 Gd0 2.435 . S
O24 C10 1.256 . S
O25 Gd0 2.717 . S
O25 Gd1 2.327 . S
O25 C10 1.257 . S
O26 Gd1 2.377 . S
O26 C11 1.240 . S
O27 Gd0 2.395 . S
O27 C11 1.240 . S
O28 Gd1 2.448 . S
O28 C12 1.249 . S
O29 Gd1 2.506 . S
O29 C12 1.252 . S
O30 Gd1 2.435 . S
O30 C19 1.256 . S
O31 Gd0 2.327 . S
O31 Gd1 2.717 . S
O31 C19 1.257 . S
H32 C5 0.930 . S
H33 C6 0.931 . S
H34 C8 0.931 . S
H35 C9 0.931 . S
H36 C14 0.930 1_565 S
H37 C15 0.931 . S
H38 C17 0.931 . S
H39 C18 0.931 . S
Gd40 C43 2.818 . S
Gd40 O60 2.377 . S
Gd40 O62 2.448 . S
Gd40 O63 2.506 . S
Gd40 O64 2.435 . S
Gd40 O65 2.717 . S
Gd40 O67 2.395 . S
Gd40 O71 2.327 . S
Gd41 C52 2.818 . S
Gd41 O61 2.395 . S
Gd41 O65 2.327 . S
Gd41 O66 2.377 . S
Gd41 O68 2.448 . S
Gd41 O69 2.506 . S
Gd41 O70 2.435 . S
Gd41 O71 2.717 . S
C42 O60 1.240 . S
C42 O61 1.240 . S
C43 Gd40 2.818 . S
C43 C44 1.510 . S
C43 O62 1.249 . S
C43 O63 1.252 . S
C44 C43 1.510 . S
C44 C45 1.404 . S
C44 C46 1.352 . S
C45 C44 1.404 . S
C45 C49 1.389 . S
C45 H72 0.930 . S
C46 C44 1.352 . S
C46 C48 1.374 . S
C46 H73 0.931 . S
C47 C48 1.359 . S
C47 C49 1.364 . S
C48 C46 1.374 . S
C48 C47 1.359 . S
C48 H74 0.931 . S
C49 C45 1.389 . S
C49 C47 1.364 . S
C49 H75 0.931 . S
C50 O64 1.256 . S
C50 O65 1.257 . S
C51 O66 1.240 . S
C51 O67 1.240 . S
C52 Gd41 2.818 . S
C52 C53 1.510 . S
C52 O68 1.249 . S
C52 O69 1.252 . S
C53 C52 1.510 . S
C53 C54 1.404 . S
C53 C55 1.352 . S
C54 C53 1.404 . S
C54 C58 1.389 . S
C54 H76 0.930 . S
C55 C53 1.352 . S
C55 C57 1.374 . S
C55 H77 0.931 . S
C56 C57 1.359 . S
C56 C58 1.364 . S
C57 C55 1.374 . S
C57 C56 1.359 . S
C57 H78 0.931 . S
C58 C54 1.389 . S
C58 C56 1.364 . S
C58 H79 0.931 . S
C59 O70 1.256 . S
C59 O71 1.257 . S
O60 Gd40 2.377 . S
O60 C42 1.240 . S
O61 Gd41 2.395 . S
O61 C42 1.240 . S
O62 Gd40 2.448 . S
O62 C43 1.249 . S
O63 Gd40 2.506 . S
O63 C43 1.252 . S
O64 Gd40 2.435 . S
O64 C50 1.256 . S
O65 Gd40 2.717 . S
O65 Gd41 2.327 . S
O65 C50 1.257 . S
O66 Gd41 2.377 . S
O66 C51 1.240 . S
O67 Gd40 2.395 . S
O67 C51 1.240 . S
O68 Gd41 2.448 . S
O68 C52 1.249 . S
O69 Gd41 2.506 . S
O69 C52 1.252 . S
O70 Gd41 2.435 . S
O70 C59 1.256 . S
O71 Gd40 2.327 . S
O71 Gd41 2.717 . S
O71 C59 1.257 . S
H72 C45 0.930 . S
H73 C46 0.931 . S
H74 C48 0.931 . S
H75 C49 0.931 . S
H76 C54 0.930 . S
H77 C55 0.931 . S
H78 C57 0.931 . S
H79 C58 0.931 . S
Gd80 C83 2.818 . S
Gd80 O100 2.377 . S
Gd80 O102 2.448 . S
Gd80 O103 2.506 . S
Gd80 O104 2.435 . S
Gd80 O105 2.717 . S
Gd80 O107 2.395 . S
Gd80 O111 2.327 . S
Gd81 C92 2.818 . S
Gd81 O101 2.395 . S
Gd81 O105 2.327 . S
Gd81 O106 2.377 . S
Gd81 O108 2.448 . S
Gd81 O109 2.506 . S
Gd81 O110 2.435 . S
Gd81 O111 2.717 . S
C82 O100 1.240 . S
C82 O101 1.240 . S
C83 Gd80 2.818 . S
C83 C84 1.510 . S
C83 O102 1.249 . S
C83 O103 1.252 . S
C84 C83 1.510 . S
C84 C85 1.404 . S
C84 C86 1.352 . S
C85 C84 1.404 . S
C85 C89 1.389 . S
C85 H112 0.930 . S
C86 C84 1.352 . S
C86 C88 1.374 . S
C86 H113 0.931 . S
C87 C88 1.359 . S
C87 C89 1.364 . S
C88 C86 1.374 . S
C88 C87 1.359 . S
C88 H114 0.931 . S
C89 C85 1.389 . S
C89 C87 1.364 . S
C89 H115 0.931 . S
C90 O104 1.256 . S
C90 O105 1.257 . S
C91 O106 1.240 . S
C91 O107 1.240 . S
C92 Gd81 2.818 . S
C92 C93 1.510 . S
C92 O108 1.249 . S
C92 O109 1.252 . S
C93 C92 1.510 . S
C93 C94 1.404 . S
C93 C95 1.352 . S
C94 C93 1.404 . S
C94 C98 1.389 1_565 S
C94 H116 0.930 1_565 S
C95 C93 1.352 . S
C95 C97 1.374 . S
C95 H117 0.931 . S
C96 C97 1.359 . S
C96 C98 1.364 1_565 S
C97 C95 1.374 . S
C97 C96 1.359 . S
C97 H118 0.931 . S
C98 C94 1.389 1_545 S
C98 C96 1.364 1_545 S
C98 H119 0.931 . S
C99 O110 1.256 . S
C99 O111 1.257 . S
O100 Gd80 2.377 . S
O100 C82 1.240 . S
O101 Gd81 2.395 . S
O101 C82 1.240 . S
O102 Gd80 2.448 . S
O102 C83 1.249 . S
O103 Gd80 2.506 . S
O103 C83 1.252 . S
O104 Gd80 2.435 . S
O104 C90 1.256 . S
O105 Gd80 2.717 . S
O105 Gd81 2.327 . S
O105 C90 1.257 . S
O106 Gd81 2.377 . S
O106 C91 1.240 . S
O107 Gd80 2.395 . S
O107 C91 1.240 . S
O108 Gd81 2.448 . S
O108 C92 1.249 . S
O109 Gd81 2.506 . S
O109 C92 1.252 . S
O110 Gd81 2.435 . S
O110 C99 1.256 . S
O111 Gd80 2.327 . S
O111 Gd81 2.717 . S
O111 C99 1.257 . S
H112 C85 0.930 . S
H113 C86 0.931 . S
H114 C88 0.931 . S
H115 C89 0.931 . S
H116 C94 0.930 1_545 S
H117 C95 0.931 . S
H118 C97 0.931 . S
H119 C98 0.931 . S
Gd120 C123 2.818 . S
Gd120 O140 2.377 . S
Gd120 O142 2.448 . S
Gd120 O143 2.506 . S
Gd120 O144 2.435 . S
Gd120 O145 2.717 . S
Gd120 O147 2.395 . S
Gd120 O151 2.327 . S
Gd121 C132 2.818 . S
Gd121 O141 2.395 . S
Gd121 O145 2.327 . S
Gd121 O146 2.377 . S
Gd121 O148 2.448 . S
Gd121 O149 2.506 . S
Gd121 O150 2.435 . S
Gd121 O151 2.717 . S
C122 O140 1.240 . S
C122 O141 1.240 . S
C123 Gd120 2.818 . S
C123 C124 1.510 1_655 S
C123 O142 1.249 . S
C123 O143 1.252 . S
C124 C123 1.510 1_455 S
C124 C125 1.404 . S
C124 C126 1.352 1_455 S
C125 C124 1.404 . S
C125 C129 1.389 . S
C125 H152 0.930 . S
C126 C124 1.352 1_655 S
C126 C128 1.374 1_655 S
C126 H153 0.931 . S
C127 C128 1.359 . S
C127 C129 1.364 . S
C128 C126 1.374 1_455 S
C128 C127 1.359 . S
C128 H154 0.931 1_455 S
C129 C125 1.389 . S
C129 C127 1.364 . S
C129 H155 0.931 . S
C130 O144 1.256 . S
C130 O145 1.257 . S
C131 O146 1.240 . S
C131 O147 1.240 . S
C132 Gd121 2.818 . S
C132 C133 1.510 . S
C132 O148 1.249 . S
C132 O149 1.252 . S
C133 C132 1.510 . S
C133 C134 1.404 . S
C133 C135 1.352 . S
C134 C133 1.404 . S
C134 C138 1.389 . S
C134 H156 0.930 . S
C135 C133 1.352 . S
C135 C137 1.374 . S
C135 H157 0.931 . S
C136 C137 1.359 . S
C136 C138 1.364 . S
C137 C135 1.374 . S
C137 C136 1.359 . S
C137 H158 0.931 . S
C138 C134 1.389 . S
C138 C136 1.364 . S
C138 H159 0.931 . S
C139 O150 1.256 . S
C139 O151 1.257 . S
O140 Gd120 2.377 . S
O140 C122 1.240 . S
O141 Gd121 2.395 . S
O141 C122 1.240 . S
O142 Gd120 2.448 . S
O142 C123 1.249 . S
O143 Gd120 2.506 . S
O143 C123 1.252 . S
O144 Gd120 2.435 . S
O144 C130 1.256 . S
O145 Gd120 2.717 . S
O145 Gd121 2.327 . S
O145 C130 1.257 . S
O146 Gd121 2.377 . S
O146 C131 1.240 . S
O147 Gd120 2.395 . S
O147 C131 1.240 . S
O148 Gd121 2.448 . S
O148 C132 1.249 . S
O149 Gd121 2.506 . S
O149 C132 1.252 . S
O150 Gd121 2.435 . S
O150 C139 1.256 . S
O151 Gd120 2.327 . S
O151 Gd121 2.717 . S
O151 C139 1.257 . S
H152 C125 0.930 . S
H153 C126 0.931 . S
H154 C128 0.931 1_655 S
H155 C129 0.931 . S
H156 C134 0.930 . S
H157 C135 0.931 . S
H158 C137 0.931 . S
H159 C138 0.931 . S
Gd160 C163 2.818 . S
Gd160 O180 2.377 . S
Gd160 O182 2.448 . S
Gd160 O183 2.506 . S
Gd160 O184 2.435 . S
Gd160 O185 2.717 . S
Gd160 O187 2.395 . S
Gd160 O191 2.327 . S
Gd161 C172 2.818 . S
Gd161 O181 2.395 . S
Gd161 O185 2.327 . S
Gd161 O186 2.377 . S
Gd161 O188 2.448 . S
Gd161 O189 2.506 . S
Gd161 O190 2.435 . S
Gd161 O191 2.717 . S
C162 O180 1.240 . S
C162 O181 1.240 . S
C163 Gd160 2.818 . S
C163 C164 1.510 . S
C163 O182 1.249 . S
C163 O183 1.252 . S
C164 C163 1.510 . S
C164 C165 1.404 . S
C164 C166 1.352 . S
C165 C164 1.404 . S
C165 C169 1.389 1_565 S
C165 H192 0.930 1_565 S
C166 C164 1.352 . S
C166 C168 1.374 . S
C166 H193 0.931 . S
C167 C168 1.359 . S
C167 C169 1.364 1_565 S
C168 C166 1.374 . S
C168 C167 1.359 . S
C168 H194 0.931 . S
C169 C165 1.389 1_545 S
C169 C167 1.364 1_545 S
C169 H195 0.931 . S
C170 O184 1.256 . S
C170 O185 1.257 . S
C171 O186 1.240 . S
C171 O187 1.240 . S
C172 Gd161 2.818 . S
C172 C173 1.510 . S
C172 O188 1.249 . S
C172 O189 1.252 . S
C173 C172 1.510 . S
C173 C174 1.404 . S
C173 C175 1.352 . S
C174 C173 1.404 . S
C174 C178 1.389 . S
C174 H196 0.930 . S
C175 C173 1.352 . S
C175 C177 1.374 . S
C175 H197 0.931 . S
C176 C177 1.359 . S
C176 C178 1.364 . S
C177 C175 1.374 . S
C177 C176 1.359 . S
C177 H198 0.931 . S
C178 C174 1.389 . S
C178 C176 1.364 . S
C178 H199 0.931 . S
C179 O190 1.256 . S
C179 O191 1.257 . S
O180 Gd160 2.377 . S
O180 C162 1.240 . S
O181 Gd161 2.395 . S
O181 C162 1.240 . S
O182 Gd160 2.448 . S
O182 C163 1.249 . S
O183 Gd160 2.506 . S
O183 C163 1.252 . S
O184 Gd160 2.435 . S
O184 C170 1.256 . S
O185 Gd160 2.717 . S
O185 Gd161 2.327 . S
O185 C170 1.257 . S
O186 Gd161 2.377 . S
O186 C171 1.240 . S
O187 Gd160 2.395 . S
O187 C171 1.240 . S
O188 Gd161 2.448 . S
O188 C172 1.249 . S
O189 Gd161 2.506 . S
O189 C172 1.252 . S
O190 Gd161 2.435 . S
O190 C179 1.256 . S
O191 Gd160 2.327 . S
O191 Gd161 2.717 . S
O191 C179 1.257 . S
H192 C165 0.930 1_545 S
H193 C166 0.931 . S
H194 C168 0.931 . S
H195 C169 0.931 . S
H196 C174 0.930 . S
H197 C175 0.931 . S
H198 C177 0.931 . S
H199 C178 0.931 . S
Gd200 C203 2.818 . S
Gd200 O220 2.377 . S
Gd200 O222 2.448 . S
Gd200 O223 2.506 . S
Gd200 O224 2.435 . S
Gd200 O225 2.717 . S
Gd200 O227 2.395 . S
Gd200 O231 2.327 . S
Gd201 C212 2.818 . S
Gd201 O221 2.395 . S
Gd201 O225 2.327 . S
Gd201 O226 2.377 . S
Gd201 O228 2.448 . S
Gd201 O229 2.506 . S
Gd201 O230 2.435 . S
Gd201 O231 2.717 . S
C202 O220 1.240 . S
C202 O221 1.240 . S
C203 Gd200 2.818 . S
C203 C204 1.510 . S
C203 O222 1.249 . S
C203 O223 1.252 . S
C204 C203 1.510 . S
C204 C205 1.404 . S
C204 C206 1.352 . S
C205 C204 1.404 . S
C205 C209 1.389 . S
C205 H232 0.930 . S
C206 C204 1.352 . S
C206 C208 1.374 . S
C206 H233 0.931 . S
C207 C208 1.359 . S
C207 C209 1.364 . S
C208 C206 1.374 . S
C208 C207 1.359 . S
C208 H234 0.931 . S
C209 C205 1.389 . S
C209 C207 1.364 . S
C209 H235 0.931 . S
C210 O224 1.256 . S
C210 O225 1.257 . S
C211 O226 1.240 . S
C211 O227 1.240 . S
C212 Gd201 2.818 . S
C212 C213 1.510 . S
C212 O228 1.249 . S
C212 O229 1.252 . S
C213 C212 1.510 . S
C213 C214 1.404 . S
C213 C215 1.352 . S
C214 C213 1.404 . S
C214 C218 1.389 . S
C214 H236 0.930 . S
C215 C213 1.352 . S
C215 C217 1.374 . S
C215 H237 0.931 . S
C216 C217 1.359 . S
C216 C218 1.364 . S
C217 C215 1.374 . S
C217 C216 1.359 . S
C217 H238 0.931 . S
C218 C214 1.389 . S
C218 C216 1.364 . S
C218 H239 0.931 . S
C219 O230 1.256 . S
C219 O231 1.257 . S
O220 Gd200 2.377 . S
O220 C202 1.240 . S
O221 Gd201 2.395 . S
O221 C202 1.240 . S
O222 Gd200 2.448 . S
O222 C203 1.249 . S
O223 Gd200 2.506 . S
O223 C203 1.252 . S
O224 Gd200 2.435 . S
O224 C210 1.256 . S
O225 Gd200 2.717 . S
O225 Gd201 2.327 . S
O225 C210 1.257 . S
O226 Gd201 2.377 . S
O226 C211 1.240 . S
O227 Gd200 2.395 . S
O227 C211 1.240 . S
O228 Gd201 2.448 . S
O228 C212 1.249 . S
O229 Gd201 2.506 . S
O229 C212 1.252 . S
O230 Gd201 2.435 . S
O230 C219 1.256 . S
O231 Gd200 2.327 . S
O231 Gd201 2.717 . S
O231 C219 1.257 . S
H232 C205 0.930 . S
H233 C206 0.931 . S
H234 C208 0.931 . S
H235 C209 0.931 . S
H236 C214 0.930 . S
H237 C215 0.931 . S
H238 C217 0.931 . S
H239 C218 0.931 . S
Gd240 C243 2.818 . S
Gd240 O260 2.377 . S
Gd240 O262 2.448 . S
Gd240 O263 2.506 . S
Gd240 O264 2.435 . S
Gd240 O265 2.717 . S
Gd240 O267 2.395 . S
Gd240 O271 2.327 . S
Gd241 C252 2.818 . S
Gd241 O261 2.395 . S
Gd241 O265 2.327 . S
Gd241 O266 2.377 . S
Gd241 O268 2.448 . S
Gd241 O269 2.506 . S
Gd241 O270 2.435 . S
Gd241 O271 2.717 . S
C242 O260 1.240 . S
C242 O261 1.240 . S
C243 Gd240 2.818 . S
C243 C244 1.510 . S
C243 O262 1.249 . S
C243 O263 1.252 . S
C244 C243 1.510 . S
C244 C245 1.404 . S
C244 C246 1.352 . S
C245 C244 1.404 . S
C245 C249 1.389 1_545 S
C245 H272 0.930 1_545 S
C246 C244 1.352 . S
C246 C248 1.374 . S
C246 H273 0.931 . S
C247 C248 1.359 . S
C247 C249 1.364 1_545 S
C248 C246 1.374 . S
C248 C247 1.359 . S
C248 H274 0.931 . S
C249 C245 1.389 1_565 S
C249 C247 1.364 1_565 S
C249 H275 0.931 . S
C250 O264 1.256 . S
C250 O265 1.257 . S
C251 O266 1.240 . S
C251 O267 1.240 . S
C252 Gd241 2.818 . S
C252 C253 1.510 . S
C252 O268 1.249 . S
C252 O269 1.252 . S
C253 C252 1.510 . S
C253 C254 1.404 . S
C253 C255 1.352 . S
C254 C253 1.404 . S
C254 C258 1.389 . S
C254 H276 0.930 . S
C255 C253 1.352 . S
C255 C257 1.374 . S
C255 H277 0.931 . S
C256 C257 1.359 . S
C256 C258 1.364 . S
C257 C255 1.374 . S
C257 C256 1.359 . S
C257 H278 0.931 . S
C258 C254 1.389 . S
C258 C256 1.364 . S
C258 H279 0.931 . S
C259 O270 1.256 . S
C259 O271 1.257 . S
O260 Gd240 2.377 . S
O260 C242 1.240 . S
O261 Gd241 2.395 . S
O261 C242 1.240 . S
O262 Gd240 2.448 . S
O262 C243 1.249 . S
O263 Gd240 2.506 . S
O263 C243 1.252 . S
O264 Gd240 2.435 . S
O264 C250 1.256 . S
O265 Gd240 2.717 . S
O265 Gd241 2.327 . S
O265 C250 1.257 . S
O266 Gd241 2.377 . S
O266 C251 1.240 . S
O267 Gd240 2.395 . S
O267 C251 1.240 . S
O268 Gd241 2.448 . S
O268 C252 1.249 . S
O269 Gd241 2.506 . S
O269 C252 1.252 . S
O270 Gd241 2.435 . S
O270 C259 1.256 . S
O271 Gd240 2.327 . S
O271 Gd241 2.717 . S
O271 C259 1.257 . S
H272 C245 0.930 1_565 S
H273 C246 0.931 . S
H274 C248 0.931 . S
H275 C249 0.931 . S
H276 C254 0.930 . S
H277 C255 0.931 . S
H278 C257 0.931 . S
H279 C258 0.931 . S
Gd280 C283 2.818 . S
Gd280 O300 2.377 . S
Gd280 O302 2.448 . S
Gd280 O303 2.506 . S
Gd280 O304 2.435 . S
Gd280 O305 2.717 . S
Gd280 O307 2.395 . S
Gd280 O311 2.327 . S
Gd281 C292 2.818 . S
Gd281 O301 2.395 . S
Gd281 O305 2.327 . S
Gd281 O306 2.377 . S
Gd281 O308 2.448 . S
Gd281 O309 2.506 . S
Gd281 O310 2.435 . S
Gd281 O311 2.717 . S
C282 O300 1.240 . S
C282 O301 1.240 . S
C283 Gd280 2.818 . S
C283 C284 1.510 . S
C283 O302 1.249 . S
C283 O303 1.252 . S
C284 C283 1.510 . S
C284 C285 1.404 . S
C284 C286 1.352 . S
C285 C284 1.404 . S
C285 C289 1.389 . S
C285 H312 0.930 . S
C286 C284 1.352 . S
C286 C288 1.374 . S
C286 H313 0.931 . S
C287 C288 1.359 . S
C287 C289 1.364 . S
C288 C286 1.374 . S
C288 C287 1.359 . S
C288 H314 0.931 . S
C289 C285 1.389 . S
C289 C287 1.364 . S
C289 H315 0.931 . S
C290 O304 1.256 . S
C290 O305 1.257 . S
C291 O306 1.240 . S
C291 O307 1.240 . S
C292 Gd281 2.818 . S
C292 C293 1.510 1_455 S
C292 O308 1.249 . S
C292 O309 1.252 . S
C293 C292 1.510 1_655 S
C293 C294 1.404 . S
C293 C295 1.352 1_655 S
C294 C293 1.404 . S
C294 C298 1.389 . S
C294 H316 0.930 . S
C295 C293 1.352 1_455 S
C295 C297 1.374 1_455 S
C295 H317 0.931 . S
C296 C297 1.359 . S
C296 C298 1.364 . S
C297 C295 1.374 1_655 S
C297 C296 1.359 . S
C297 H318 0.931 1_655 S
C298 C294 1.389 . S
C298 C296 1.364 . S
C298 H319 0.931 . S
C299 O310 1.256 . S
C299 O311 1.257 . S
O300 Gd280 2.377 . S
O300 C282 1.240 . S
O301 Gd281 2.395 . S
O301 C282 1.240 . S
O302 Gd280 2.448 . S
O302 C283 1.249 . S
O303 Gd280 2.506 . S
O303 C283 1.252 . S
O304 Gd280 2.435 . S
O304 C290 1.256 . S
O305 Gd280 2.717 . S
O305 Gd281 2.327 . S
O305 C290 1.257 . S
O306 Gd281 2.377 . S
O306 C291 1.240 . S
O307 Gd280 2.395 . S
O307 C291 1.240 . S
O308 Gd281 2.448 . S
O308 C292 1.249 . S
O309 Gd281 2.506 . S
O309 C292 1.252 . S
O310 Gd281 2.435 . S
O310 C299 1.256 . S
O311 Gd280 2.327 . S
O311 Gd281 2.717 . S
O311 C299 1.257 . S
H312 C285 0.930 . S
H313 C286 0.931 . S
H314 C288 0.931 . S
H315 C289 0.931 . S
H316 C294 0.930 . S
H317 C295 0.931 . S
H318 C297 0.931 1_455 S
H319 C298 0.931 . S
Gd320 C323 2.818 . S
Gd320 O340 2.377 . S
Gd320 O342 2.448 . S
Gd320 O343 2.506 . S
Gd320 O344 2.435 . S
Gd320 O345 2.717 . S
Gd320 O347 2.395 . S
Gd320 O351 2.327 . S
Gd321 C332 2.818 . S
Gd321 O341 2.395 . S
Gd321 O345 2.327 . S
Gd321 O346 2.377 . S
Gd321 O348 2.448 . S
Gd321 O349 2.506 . S
Gd321 O350 2.435 . S
Gd321 O351 2.717 . S
C322 O340 1.240 . S
C322 O341 1.240 . S
C323 Gd320 2.818 . S
C323 C324 1.510 . S
C323 O342 1.249 . S
C323 O343 1.252 . S
C324 C323 1.510 . S
C324 C325 1.404 . S
C324 C326 1.352 . S
C325 C324 1.404 . S
C325 C329 1.389 . S
C325 H352 0.930 . S
C326 C324 1.352 . S
C326 C328 1.374 . S
C326 H353 0.931 . S
C327 C328 1.359 . S
C327 C329 1.364 . S
C328 C326 1.374 . S
C328 C327 1.359 . S
C328 H354 0.931 . S
C329 C325 1.389 . S
C329 C327 1.364 . S
C329 H355 0.931 . S
C330 O344 1.256 . S
C330 O345 1.257 . S
C331 O346 1.240 . S
C331 O347 1.240 . S
C332 Gd321 2.818 . S
C332 C333 1.510 . S
C332 O348 1.249 . S
C332 O349 1.252 . S
C333 C332 1.510 . S
C333 C334 1.404 . S
C333 C335 1.352 . S
C334 C333 1.404 . S
C334 C338 1.389 . S
C334 H356 0.930 . S
C335 C333 1.352 . S
C335 C337 1.374 . S
C335 H357 0.931 . S
C336 C337 1.359 . S
C336 C338 1.364 . S
C337 C335 1.374 . S
C337 C336 1.359 . S
C337 H358 0.931 . S
C338 C334 1.389 . S
C338 C336 1.364 . S
C338 H359 0.931 . S
C339 O350 1.256 . S
C339 O351 1.257 . S
O340 Gd320 2.377 . S
O340 C322 1.240 . S
O341 Gd321 2.395 . S
O341 C322 1.240 . S
O342 Gd320 2.448 . S
O342 C323 1.249 . S
O343 Gd320 2.506 . S
O343 C323 1.252 . S
O344 Gd320 2.435 . S
O344 C330 1.256 . S
O345 Gd320 2.717 . S
O345 Gd321 2.327 . S
O345 C330 1.257 . S
O346 Gd321 2.377 . S
O346 C331 1.240 . S
O347 Gd320 2.395 . S
O347 C331 1.240 . S
O348 Gd321 2.448 . S
O348 C332 1.249 . S
O349 Gd321 2.506 . S
O349 C332 1.252 . S
O350 Gd321 2.435 . S
O350 C339 1.256 . S
O351 Gd320 2.327 . S
O351 Gd321 2.717 . S
O351 C339 1.257 . S
H352 C325 0.930 . S
H353 C326 0.931 . S
H354 C328 0.931 . S
H355 C329 0.931 . S
H356 C334 0.930 . S
H357 C335 0.931 . S
H358 C337 0.931 . S
H359 C338 0.931 . S
Gd360 C363 2.818 . S
Gd360 O380 2.377 . S
Gd360 O382 2.448 . S
Gd360 O383 2.506 1_545 S
Gd360 O384 2.435 . S
Gd360 O385 2.717 . S
Gd360 O387 2.395 . S
Gd360 O391 2.327 . S
Gd361 C372 2.818 . S
Gd361 O381 2.395 . S
Gd361 O385 2.327 . S
Gd361 O386 2.377 . S
Gd361 O388 2.448 . S
Gd361 O389 2.506 . S
Gd361 O390 2.435 . S
Gd361 O391 2.717 . S
C362 O380 1.240 . S
C362 O381 1.240 . S
C363 Gd360 2.818 . S
C363 C364 1.510 1_445 S
C363 O382 1.249 . S
C363 O383 1.252 1_545 S
C364 C363 1.510 1_665 S
C364 C365 1.406 1_565 S
C364 C366 1.352 1_655 S
C365 C364 1.406 1_545 S
C365 C369 1.390 1_545 S
C365 H392 0.927 . S
C366 C364 1.352 1_455 S
C366 C368 1.374 1_455 S
C366 H393 0.931 . S
C367 C368 1.359 . S
C367 C369 1.364 . S
C368 C366 1.374 1_655 S
C368 C367 1.359 . S
C368 H394 0.931 1_655 S
C369 C365 1.390 1_565 S
C369 C367 1.364 . S
C369 H395 0.931 . S
C370 O384 1.256 . S
C370 O385 1.257 . S
C371 O386 1.240 . S
C371 O387 1.240 . S
C372 Gd361 2.818 . S
C372 C373 1.510 . S
C372 O388 1.249 . S
C372 O389 1.252 . S
C373 C372 1.510 . S
C373 C374 1.404 . S
C373 C375 1.352 . S
C374 C373 1.404 . S
C374 C378 1.389 . S
C374 H396 0.930 . S
C375 C373 1.352 . S
C375 C377 1.374 . S
C375 H397 0.931 . S
C376 C377 1.359 . S
C376 C378 1.364 . S
C377 C375 1.374 . S
C377 C376 1.359 . S
C377 H398 0.931 . S
C378 C374 1.389 . S
C378 C376 1.364 . S
C378 H399 0.931 . S
C379 O390 1.256 . S
C379 O391 1.257 . S
O380 Gd360 2.377 . S
O380 C362 1.240 . S
O381 Gd361 2.395 . S
O381 C362 1.240 . S
O382 Gd360 2.448 . S
O382 C363 1.249 . S
O383 Gd360 2.506 1_565 S
O383 C363 1.252 1_565 S
O384 Gd360 2.435 . S
O384 C370 1.256 . S
O385 Gd360 2.717 . S
O385 Gd361 2.327 . S
O385 C370 1.257 . S
O386 Gd361 2.377 . S
O386 C371 1.240 . S
O387 Gd360 2.395 . S
O387 C371 1.240 . S
O388 Gd361 2.448 . S
O388 C372 1.249 . S
O389 Gd361 2.506 . S
O389 C372 1.252 . S
O390 Gd361 2.435 . S
O390 C379 1.256 . S
O391 Gd360 2.327 . S
O391 Gd361 2.717 . S
O391 C379 1.257 . S
H392 C365 0.927 . S
H393 C366 0.931 . S
H394 C368 0.931 1_455 S
H395 C369 0.931 . S
H396 C374 0.930 . S
H397 C375 0.931 . S
H398 C377 0.931 . S
H399 C378 0.931 . S
Gd400 C403 2.818 . S
Gd400 O420 2.377 . S
Gd400 O422 2.448 . S
Gd400 O423 2.506 . S
Gd400 O424 2.435 . S
Gd400 O425 2.717 . S
Gd400 O427 2.395 . S
Gd400 O431 2.327 . S
Gd401 C412 2.818 . S
Gd401 O421 2.395 . S
Gd401 O425 2.327 . S
Gd401 O426 2.377 . S
Gd401 O428 2.448 . S
Gd401 O429 2.506 . S
Gd401 O430 2.435 . S
Gd401 O431 2.717 . S
C402 O420 1.240 . S
C402 O421 1.240 . S
C403 Gd400 2.818 . S
C403 C404 1.510 . S
C403 O422 1.249 . S
C403 O423 1.252 . S
C404 C403 1.510 . S
C404 C405 1.404 . S
C404 C406 1.352 . S
C405 C404 1.404 . S
C405 C409 1.389 . S
C405 H432 0.930 . S
C406 C404 1.352 . S
C406 C408 1.374 . S
C406 H433 0.931 . S
C407 C408 1.359 . S
C407 C409 1.364 . S
C408 C406 1.374 . S
C408 C407 1.359 . S
C408 H434 0.931 . S
C409 C405 1.389 . S
C409 C407 1.364 . S
C409 H435 0.931 . S
C410 O424 1.256 . S
C410 O425 1.257 . S
C411 O426 1.240 . S
C411 O427 1.240 . S
C412 Gd401 2.818 . S
C412 C413 1.510 . S
C412 O428 1.249 . S
C412 O429 1.252 . S
C413 C412 1.510 . S
C413 C414 1.404 . S
C413 C415 1.352 . S
C414 C413 1.404 . S
C414 C418 1.389 . S
C414 H436 0.930 . S
C415 C413 1.352 . S
C415 C417 1.374 . S
C415 H437 0.931 . S
C416 C417 1.359 . S
C416 C418 1.364 . S
C417 C415 1.374 . S
C417 C416 1.359 . S
C417 H438 0.931 . S
C418 C414 1.389 . S
C418 C416 1.364 . S
C418 H439 0.931 . S
C419 O430 1.256 . S
C419 O431 1.257 . S
O420 Gd400 2.377 . S
O420 C402 1.240 . S
O421 Gd401 2.395 . S
O421 C402 1.240 . S
O422 Gd400 2.448 . S
O422 C403 1.249 . S
O423 Gd400 2.506 . S
O423 C403 1.252 . S
O424 Gd400 2.435 . S
O424 C410 1.256 . S
O425 Gd400 2.717 . S
O425 Gd401 2.327 . S
O425 C410 1.257 . S
O426 Gd401 2.377 . S
O426 C411 1.240 . S
O427 Gd400 2.395 . S
O427 C411 1.240 . S
O428 Gd401 2.448 . S
O428 C412 1.249 . S
O429 Gd401 2.506 . S
O429 C412 1.252 . S
O430 Gd401 2.435 . S
O430 C419 1.256 . S
O431 Gd400 2.327 . S
O431 Gd401 2.717 . S
O431 C419 1.257 . S
H432 C405 0.930 . S
H433 C406 0.931 . S
H434 C408 0.931 . S
H435 C409 0.931 . S
H436 C414 0.930 . S
H437 C415 0.931 . S
H438 C417 0.931 . S
H439 C418 0.931 . S
Gd440 C443 2.818 . S
Gd440 O460 2.377 . S
Gd440 O462 2.448 . S
Gd440 O463 2.506 1_565 S
Gd440 O464 2.435 . S
Gd440 O465 2.717 . S
Gd440 O467 2.395 . S
Gd440 O471 2.327 . S
Gd441 C452 2.818 . S
Gd441 O461 2.395 . S
Gd441 O465 2.327 . S
Gd441 O466 2.377 . S
Gd441 O468 2.448 . S
Gd441 O469 2.506 . S
Gd441 O470 2.435 . S
Gd441 O471 2.717 . S
C442 O460 1.240 . S
C442 O461 1.240 . S
C443 Gd440 2.818 . S
C443 C444 1.510 1_565 S
C443 O462 1.249 . S
C443 O463 1.252 1_565 S
C444 C443 1.510 1_545 S
C444 C445 1.406 1_545 S
C444 C446 1.352 . S
C445 C444 1.406 1_565 S
C445 C449 1.390 1_565 S
C445 H472 0.927 . S
C446 C444 1.352 . S
C446 C448 1.374 . S
C446 H473 0.931 . S
C447 C448 1.359 . S
C447 C449 1.364 . S
C448 C446 1.374 . S
C448 C447 1.359 . S
C448 H474 0.931 . S
C449 C445 1.390 1_545 S
C449 C447 1.364 . S
C449 H475 0.931 . S
C450 O464 1.256 . S
C450 O465 1.257 . S
C451 O466 1.240 . S
C451 O467 1.240 . S
C452 Gd441 2.818 . S
C452 C453 1.510 . S
C452 O468 1.249 . S
C452 O469 1.252 . S
C453 C452 1.510 . S
C453 C454 1.404 . S
C453 C455 1.352 . S
C454 C453 1.404 . S
C454 C458 1.389 . S
C454 H476 0.930 . S
C455 C453 1.352 . S
C455 C457 1.374 . S
C455 H477 0.931 . S
C456 C457 1.359 . S
C456 C458 1.364 . S
C457 C455 1.374 . S
C457 C456 1.359 . S
C457 H478 0.931 . S
C458 C454 1.389 . S
C458 C456 1.364 . S
C458 H479 0.931 . S
C459 O470 1.256 . S
C459 O471 1.257 . S
O460 Gd440 2.377 . S
O460 C442 1.240 . S
O461 Gd441 2.395 . S
O461 C442 1.240 . S
O462 Gd440 2.448 . S
O462 C443 1.249 . S
O463 Gd440 2.506 1_545 S
O463 C443 1.252 1_545 S
O464 Gd440 2.435 . S
O464 C450 1.256 . S
O465 Gd440 2.717 . S
O465 Gd441 2.327 . S
O465 C450 1.257 . S
O466 Gd441 2.377 . S
O466 C451 1.240 . S
O467 Gd440 2.395 . S
O467 C451 1.240 . S
O468 Gd441 2.448 . S
O468 C452 1.249 . S
O469 Gd441 2.506 . S
O469 C452 1.252 . S
O470 Gd441 2.435 . S
O470 C459 1.256 . S
O471 Gd440 2.327 . S
O471 Gd441 2.717 . S
O471 C459 1.257 . S
H472 C445 0.927 . S
H473 C446 0.931 . S
H474 C448 0.931 . S
H475 C449 0.931 . S
H476 C454 0.930 . S
H477 C455 0.931 . S
H478 C457 0.931 . S
H479 C458 0.931 . S
Gd480 C483 2.818 . S
Gd480 O500 2.377 . S
Gd480 O502 2.448 . S
Gd480 O503 2.506 . S
Gd480 O504 2.435 . S
Gd480 O505 2.717 . S
Gd480 O507 2.395 . S
Gd480 O511 2.327 . S
Gd481 C492 2.818 . S
Gd481 O501 2.395 . S
Gd481 O505 2.327 . S
Gd481 O506 2.377 . S
Gd481 O508 2.448 . S
Gd481 O509 2.506 . S
Gd481 O510 2.435 . S
Gd481 O511 2.717 . S
C482 O500 1.240 . S
C482 O501 1.240 . S
C483 Gd480 2.818 . S
C483 C484 1.510 . S
C483 O502 1.249 . S
C483 O503 1.252 . S
C484 C483 1.510 . S
C484 C485 1.404 . S
C484 C486 1.352 . S
C485 C484 1.404 . S
C485 C489 1.389 . S
C485 H512 0.930 . S
C486 C484 1.352 . S
C486 C488 1.374 . S
C486 H513 0.931 . S
C487 C488 1.359 . S
C487 C489 1.364 . S
C488 C486 1.374 . S
C488 C487 1.359 . S
C488 H514 0.931 . S
C489 C485 1.389 . S
C489 C487 1.364 . S
C489 H515 0.931 . S
C490 O504 1.256 . S
C490 O505 1.257 . S
C491 O506 1.240 . S
C491 O507 1.240 . S
C492 Gd481 2.818 . S
C492 C493 1.510 . S
C492 O508 1.249 . S
C492 O509 1.252 . S
C493 C492 1.510 . S
C493 C494 1.404 . S
C493 C495 1.352 . S
C494 C493 1.404 . S
C494 C498 1.389 . S
C494 H516 0.930 . S
C495 C493 1.352 . S
C495 C497 1.374 . S
C495 H517 0.931 . S
C496 C497 1.359 . S
C496 C498 1.364 . S
C497 C495 1.374 . S
C497 C496 1.359 . S
C497 H518 0.931 . S
C498 C494 1.389 . S
C498 C496 1.364 . S
C498 H519 0.931 . S
C499 O510 1.256 . S
C499 O511 1.257 . S
O500 Gd480 2.377 . S
O500 C482 1.240 . S
O501 Gd481 2.395 . S
O501 C482 1.240 . S
O502 Gd480 2.448 . S
O502 C483 1.249 . S
O503 Gd480 2.506 . S
O503 C483 1.252 . S
O504 Gd480 2.435 . S
O504 C490 1.256 . S
O505 Gd480 2.717 . S
O505 Gd481 2.327 . S
O505 C490 1.257 . S
O506 Gd481 2.377 . S
O506 C491 1.240 . S
O507 Gd480 2.395 . S
O507 C491 1.240 . S
O508 Gd481 2.448 . S
O508 C492 1.249 . S
O509 Gd481 2.506 . S
O509 C492 1.252 . S
O510 Gd481 2.435 . S
O510 C499 1.256 . S
O511 Gd480 2.327 . S
O511 Gd481 2.717 . S
O511 C499 1.257 . S
H512 C485 0.930 . S
H513 C486 0.931 . S
H514 C488 0.931 . S
H515 C489 0.931 . S
H516 C494 0.930 . S
H517 C495 0.931 . S
H518 C497 0.931 . S
H519 C498 0.931 . S
Gd520 C523 2.818 . S
Gd520 O540 2.377 . S
Gd520 O542 2.448 . S
Gd520 O543 2.506 . S
Gd520 O544 2.435 . S
Gd520 O545 2.717 . S
Gd520 O547 2.395 . S
Gd520 O551 2.327 . S
Gd521 C532 2.818 . S
Gd521 O541 2.395 . S
Gd521 O545 2.327 . S
Gd521 O546 2.377 . S
Gd521 O548 2.448 . S
Gd521 O549 2.506 1_565 S
Gd521 O550 2.435 . S
Gd521 O551 2.717 . S
C522 O540 1.240 . S
C522 O541 1.240 . S
C523 Gd520 2.818 . S
C523 C524 1.510 . S
C523 O542 1.249 . S
C523 O543 1.252 . S
C524 C523 1.510 . S
C524 C525 1.404 . S
C524 C526 1.352 . S
C525 C524 1.404 . S
C525 C529 1.389 . S
C525 H552 0.930 . S
C526 C524 1.352 . S
C526 C528 1.374 . S
C526 H553 0.931 . S
C527 C528 1.359 . S
C527 C529 1.364 . S
C528 C526 1.374 . S
C528 C527 1.359 . S
C528 H554 0.931 . S
C529 C525 1.389 . S
C529 C527 1.364 . S
C529 H555 0.931 . S
C530 O544 1.256 . S
C530 O545 1.257 . S
C531 O546 1.240 . S
C531 O547 1.240 . S
C532 Gd521 2.818 . S
C532 C533 1.510 1_665 S
C532 O548 1.249 . S
C532 O549 1.252 1_565 S
C533 C532 1.510 1_445 S
C533 C534 1.406 1_545 S
C533 C535 1.352 1_455 S
C534 C533 1.406 1_565 S
C534 C538 1.390 1_565 S
C534 H556 0.927 . S
C535 C533 1.352 1_655 S
C535 C537 1.374 1_655 S
C535 H557 0.931 . S
C536 C537 1.359 . S
C536 C538 1.364 . S
C537 C535 1.374 1_455 S
C537 C536 1.359 . S
C537 H558 0.931 1_455 S
C538 C534 1.390 1_545 S
C538 C536 1.364 . S
C538 H559 0.931 . S
C539 O550 1.256 . S
C539 O551 1.257 . S
O540 Gd520 2.377 . S
O540 C522 1.240 . S
O541 Gd521 2.395 . S
O541 C522 1.240 . S
O542 Gd520 2.448 . S
O542 C523 1.249 . S
O543 Gd520 2.506 . S
O543 C523 1.252 . S
O544 Gd520 2.435 . S
O544 C530 1.256 . S
O545 Gd520 2.717 . S
O545 Gd521 2.327 . S
O545 C530 1.257 . S
O546 Gd521 2.377 . S
O546 C531 1.240 . S
O547 Gd520 2.395 . S
O547 C531 1.240 . S
O548 Gd521 2.448 . S
O548 C532 1.249 . S
O549 Gd521 2.506 1_545 S
O549 C532 1.252 1_545 S
O550 Gd521 2.435 . S
O550 C539 1.256 . S
O551 Gd520 2.327 . S
O551 Gd521 2.717 . S
O551 C539 1.257 . S
H552 C525 0.930 . S
H553 C526 0.931 . S
H554 C528 0.931 . S
H555 C529 0.931 . S
H556 C534 0.927 . S
H557 C535 0.931 . S
H558 C537 0.931 1_655 S
H559 C538 0.931 . S
Gd560 C563 2.818 . S
Gd560 O580 2.377 . S
Gd560 O582 2.448 . S
Gd560 O583 2.506 . S
Gd560 O584 2.435 . S
Gd560 O585 2.717 . S
Gd560 O587 2.395 . S
Gd560 O591 2.327 . S
Gd561 C572 2.818 . S
Gd561 O581 2.395 . S
Gd561 O585 2.327 . S
Gd561 O586 2.377 . S
Gd561 O588 2.448 . S
Gd561 O589 2.506 . S
Gd561 O590 2.435 . S
Gd561 O591 2.717 . S
C562 O580 1.240 . S
C562 O581 1.240 . S
C563 Gd560 2.818 . S
C563 C564 1.510 . S
C563 O582 1.249 . S
C563 O583 1.252 . S
C564 C563 1.510 . S
C564 C565 1.404 . S
C564 C566 1.352 . S
C565 C564 1.404 . S
C565 C569 1.389 . S
C565 H592 0.930 . S
C566 C564 1.352 . S
C566 C568 1.374 . S
C566 H593 0.931 . S
C567 C568 1.359 . S
C567 C569 1.364 . S
C568 C566 1.374 . S
C568 C567 1.359 . S
C568 H594 0.931 . S
C569 C565 1.389 . S
C569 C567 1.364 . S
C569 H595 0.931 . S
C570 O584 1.256 . S
C570 O585 1.257 . S
C571 O586 1.240 . S
C571 O587 1.240 . S
C572 Gd561 2.818 . S
C572 C573 1.510 . S
C572 O588 1.249 . S
C572 O589 1.252 . S
C573 C572 1.510 . S
C573 C574 1.404 . S
C573 C575 1.352 . S
C574 C573 1.404 . S
C574 C578 1.389 . S
C574 H596 0.930 . S
C575 C573 1.352 . S
C575 C577 1.374 . S
C575 H597 0.931 . S
C576 C577 1.359 . S
C576 C578 1.364 . S
C577 C575 1.374 . S
C577 C576 1.359 . S
C577 H598 0.931 . S
C578 C574 1.389 . S
C578 C576 1.364 . S
C578 H599 0.931 . S
C579 O590 1.256 . S
C579 O591 1.257 . S
O580 Gd560 2.377 . S
O580 C562 1.240 . S
O581 Gd561 2.395 . S
O581 C562 1.240 . S
O582 Gd560 2.448 . S
O582 C563 1.249 . S
O583 Gd560 2.506 . S
O583 C563 1.252 . S
O584 Gd560 2.435 . S
O584 C570 1.256 . S
O585 Gd560 2.717 . S
O585 Gd561 2.327 . S
O585 C570 1.257 . S
O586 Gd561 2.377 . S
O586 C571 1.240 . S
O587 Gd560 2.395 . S
O587 C571 1.240 . S
O588 Gd561 2.448 . S
O588 C572 1.249 . S
O589 Gd561 2.506 . S
O589 C572 1.252 . S
O590 Gd561 2.435 . S
O590 C579 1.256 . S
O591 Gd560 2.327 . S
O591 Gd561 2.717 . S
O591 C579 1.257 . S
H592 C565 0.930 . S
H593 C566 0.931 . S
H594 C568 0.931 . S
H595 C569 0.931 . S
H596 C574 0.930 . S
H597 C575 0.931 . S
H598 C577 0.931 . S
H599 C578 0.931 . S
Gd600 C603 2.818 . S
Gd600 O620 2.377 . S
Gd600 O622 2.448 . S
Gd600 O623 2.506 . S
Gd600 O624 2.435 . S
Gd600 O625 2.717 . S
Gd600 O627 2.395 . S
Gd600 O631 2.327 . S
Gd601 C612 2.818 . S
Gd601 O621 2.395 . S
Gd601 O625 2.327 . S
Gd601 O626 2.377 . S
Gd601 O628 2.448 . S
Gd601 O629 2.506 1_545 S
Gd601 O630 2.435 . S
Gd601 O631 2.717 . S
C602 O620 1.240 . S
C602 O621 1.240 . S
C603 Gd600 2.818 . S
C603 C604 1.510 . S
C603 O622 1.249 . S
C603 O623 1.252 . S
C604 C603 1.510 . S
C604 C605 1.404 . S
C604 C606 1.352 . S
C605 C604 1.404 . S
C605 C609 1.389 . S
C605 H632 0.930 . S
C606 C604 1.352 . S
C606 C608 1.374 . S
C606 H633 0.931 . S
C607 C608 1.359 . S
C607 C609 1.364 . S
C608 C606 1.374 . S
C608 C607 1.359 . S
C608 H634 0.931 . S
C609 C605 1.389 . S
C609 C607 1.364 . S
C609 H635 0.931 . S
C610 O624 1.256 . S
C610 O625 1.257 . S
C611 O626 1.240 . S
C611 O627 1.240 . S
C612 Gd601 2.818 . S
C612 C613 1.510 1_545 S
C612 O628 1.249 . S
C612 O629 1.252 1_545 S
C613 C612 1.510 1_565 S
C613 C614 1.406 1_565 S
C613 C615 1.352 . S
C614 C613 1.406 1_545 S
C614 C618 1.390 1_545 S
C614 H636 0.927 . S
C615 C613 1.352 . S
C615 C617 1.374 . S
C615 H637 0.931 . S
C616 C617 1.359 . S
C616 C618 1.364 . S
C617 C615 1.374 . S
C617 C616 1.359 . S
C617 H638 0.931 . S
C618 C614 1.390 1_565 S
C618 C616 1.364 . S
C618 H639 0.931 . S
C619 O630 1.256 . S
C619 O631 1.257 . S
O620 Gd600 2.377 . S
O620 C602 1.240 . S
O621 Gd601 2.395 . S
O621 C602 1.240 . S
O622 Gd600 2.448 . S
O622 C603 1.249 . S
O623 Gd600 2.506 . S
O623 C603 1.252 . S
O624 Gd600 2.435 . S
O624 C610 1.256 . S
O625 Gd600 2.717 . S
O625 Gd601 2.327 . S
O625 C610 1.257 . S
O626 Gd601 2.377 . S
O626 C611 1.240 . S
O627 Gd600 2.395 . S
O627 C611 1.240 . S
O628 Gd601 2.448 . S
O628 C612 1.249 . S
O629 Gd601 2.506 1_565 S
O629 C612 1.252 1_565 S
O630 Gd601 2.435 . S
O630 C619 1.256 . S
O631 Gd600 2.327 . S
O631 Gd601 2.717 . S
O631 C619 1.257 . S
H632 C605 0.930 . S
H633 C606 0.931 . S
H634 C608 0.931 . S
H635 C609 0.931 . S
H636 C614 0.927 . S
H637 C615 0.931 . S
H638 C617 0.931 . S
H639 C618 0.931 . S
H640 C646 0.930 . S
H641 C650 0.930 . S
H642 C655 0.929 . S
H643 C653 0.929 . S
H644 C648 0.929 . S
H645 C654 0.929 . S
C646 H640 0.930 . S
C646 C647 1.367 . S
C646 C654 1.378 . S
C647 C646 1.367 . S
C647 C655 1.433 . S
C648 H644 0.929 . S
C648 C650 1.378 . S
C648 C652 1.350 . S
C649 C652 1.463 . S
C649 C654 1.350 . S
C649 N657 1.427 . S
C650 H641 0.930 . S
C650 C648 1.378 . S
C650 C651 1.367 . S
C651 C650 1.367 . S
C651 C653 1.433 . S
C652 C648 1.350 . S
C652 C649 1.463 . S
C652 N656 1.427 . S
C653 H643 0.929 . S
C653 C651 1.433 . S
C653 N656 1.384 . S
C654 H645 0.929 . S
C654 C646 1.378 . S
C654 C649 1.350 . S
C655 H642 0.929 . S
C655 C647 1.433 . S
C655 N657 1.384 . S
N656 C652 1.427 . S
N656 C653 1.384 . S
N657 C649 1.427 . S
N657 C655 1.384 . S
H658 C664 0.930 . S
H659 C668 0.930 . S
H660 C673 0.929 . S
H661 C671 0.929 . S
H662 C666 0.929 . S
H663 C672 0.929 . S
C664 H658 0.930 . S
C664 C665 1.367 . S
C664 C672 1.378 . S
C665 C664 1.367 . S
C665 C673 1.433 . S
C666 H662 0.929 . S
C666 C668 1.378 . S
C666 C670 1.350 . S
C667 C670 1.463 . S
C667 C672 1.350 . S
C667 N675 1.427 . S
C668 H659 0.930 . S
C668 C666 1.378 . S
C668 C669 1.367 . S
C669 C668 1.367 . S
C669 C671 1.433 . S
C670 C666 1.350 . S
C670 C667 1.463 . S
C670 N674 1.427 . S
C671 H661 0.929 . S
C671 C669 1.433 . S
C671 N674 1.384 . S
C672 H663 0.929 . S
C672 C664 1.378 . S
C672 C667 1.350 . S
C673 H660 0.929 . S
C673 C665 1.433 . S
C673 N675 1.384 . S
N674 C670 1.427 . S
N674 C671 1.384 . S
N675 C667 1.427 . S
N675 C673 1.384 . S
H676 C682 0.930 . S
H677 C686 0.930 . S
H678 C691 0.929 . S
H679 C689 0.929 . S
H680 C684 0.929 . S
H681 C690 0.929 . S
C682 H676 0.930 . S
C682 C683 1.367 . S
C682 C690 1.378 . S
C683 C682 1.367 . S
C683 C691 1.433 . S
C684 H680 0.929 . S
C684 C686 1.378 . S
C684 C688 1.350 . S
C685 C688 1.463 1_455 S
C685 C690 1.350 . S
C685 N693 1.427 . S
C686 H677 0.930 . S
C686 C684 1.378 . S
C686 C687 1.367 . S
C687 C686 1.367 . S
C687 C689 1.433 . S
C688 C684 1.350 . S
C688 C685 1.463 1_655 S
C688 N692 1.427 . S
C689 H679 0.929 . S
C689 C687 1.433 . S
C689 N692 1.384 . S
C690 H681 0.929 . S
C690 C682 1.378 . S
C690 C685 1.350 . S
C691 H678 0.929 . S
C691 C683 1.433 . S
C691 N693 1.384 . S
N692 C688 1.427 . S
N692 C689 1.384 . S
N693 C685 1.427 . S
N693 C691 1.384 . S
H694 C700 0.930 . S
H695 C704 0.930 . S
H696 C709 0.929 . S
H697 C707 0.929 . S
H698 C702 0.929 . S
H699 C708 0.929 . S
C700 H694 0.930 . S
C700 C701 1.367 . S
C700 C708 1.378 . S
C701 C700 1.367 . S
C701 C709 1.433 . S
C702 H698 0.929 . S
C702 C704 1.378 . S
C702 C706 1.350 . S
C703 C706 1.463 1_455 S
C703 C708 1.350 . S
C703 N711 1.427 . S
C704 H695 0.930 . S
C704 C702 1.378 . S
C704 C705 1.367 . S
C705 C704 1.367 . S
C705 C707 1.433 . S
C706 C702 1.350 . S
C706 C703 1.463 1_655 S
C706 N710 1.427 . S
C707 H697 0.929 . S
C707 C705 1.433 . S
C707 N710 1.384 . S
C708 H699 0.929 . S
C708 C700 1.378 . S
C708 C703 1.350 . S
C709 H696 0.929 . S
C709 C701 1.433 . S
C709 N711 1.384 . S
N710 C706 1.427 . S
N710 C707 1.384 . S
N711 C703 1.427 . S
N711 C709 1.384 . S
H712 C718 0.930 . S
H713 C722 0.930 . S
H714 C727 0.929 . S
H715 C725 0.929 . S
H716 C720 0.929 . S
H717 C726 0.929 . S
C718 H712 0.930 . S
C718 C719 1.367 . S
C718 C726 1.378 . S
C719 C718 1.367 . S
C719 C727 1.433 . S
C720 H716 0.929 . S
C720 C722 1.378 . S
C720 C724 1.350 . S
C721 C724 1.463 . S
C721 C726 1.350 . S
C721 N729 1.427 . S
C722 H713 0.930 . S
C722 C720 1.378 . S
C722 C723 1.367 . S
C723 C722 1.367 . S
C723 C725 1.433 . S
C724 C720 1.350 . S
C724 C721 1.463 . S
C724 N728 1.427 . S
C725 H715 0.929 . S
C725 C723 1.433 . S
C725 N728 1.384 . S
C726 H717 0.929 . S
C726 C718 1.378 . S
C726 C721 1.350 . S
C727 H714 0.929 . S
C727 C719 1.433 . S
C727 N729 1.384 . S
N728 C724 1.427 . S
N728 C725 1.384 . S
N729 C721 1.427 . S
N729 C727 1.384 . S
H730 C736 0.930 . S
H731 C740 0.930 . S
H732 C745 0.929 . S
H733 C743 0.929 . S
H734 C738 0.929 . S
H735 C744 0.929 . S
C736 H730 0.930 . S
C736 C737 1.367 . S
C736 C744 1.378 . S
C737 C736 1.367 . S
C737 C745 1.433 . S
C738 H734 0.929 . S
C738 C740 1.378 . S
C738 C742 1.350 . S
C739 C742 1.463 . S
C739 C744 1.350 . S
C739 N747 1.427 . S
C740 H731 0.930 . S
C740 C738 1.378 . S
C740 C741 1.367 . S
C741 C740 1.367 . S
C741 C743 1.433 . S
C742 C738 1.350 . S
C742 C739 1.463 . S
C742 N746 1.427 . S
C743 H733 0.929 . S
C743 C741 1.433 . S
C743 N746 1.384 . S
C744 H735 0.929 . S
C744 C736 1.378 . S
C744 C739 1.350 . S
C745 H732 0.929 . S
C745 C737 1.433 . S
C745 N747 1.384 . S
N746 C742 1.427 . S
N746 C743 1.384 . S
N747 C739 1.427 . S
N747 C745 1.384 . S
H748 C754 0.930 . S
H749 C758 0.930 . S
H750 C763 0.929 . S
H751 C761 0.929 . S
H752 C756 0.929 . S
H753 C762 0.929 . S
C754 H748 0.930 . S
C754 C755 1.367 . S
C754 C762 1.378 . S
C755 C754 1.367 . S
C755 C763 1.433 . S
C756 H752 0.929 . S
C756 C758 1.378 . S
C756 C760 1.350 . S
C757 C760 1.463 1_455 S
C757 C762 1.350 . S
C757 N765 1.427 . S
C758 H749 0.930 . S
C758 C756 1.378 . S
C758 C759 1.367 . S
C759 C758 1.367 . S
C759 C761 1.433 . S
C760 C756 1.350 . S
C760 C757 1.463 1_655 S
C760 N764 1.427 . S
C761 H751 0.929 . S
C761 C759 1.433 . S
C761 N764 1.384 . S
C762 H753 0.929 . S
C762 C754 1.378 . S
C762 C757 1.350 . S
C763 H750 0.929 . S
C763 C755 1.433 . S
C763 N765 1.384 . S
N764 C760 1.427 . S
N764 C761 1.384 . S
N765 C757 1.427 . S
N765 C763 1.384 . S
H766 C772 0.930 . S
H767 C776 0.930 . S
H768 C781 0.929 1_655 S
H769 C779 0.929 1_455 S
H770 C774 0.929 . S
H771 C780 0.929 . S
C772 H766 0.930 . S
C772 C773 1.367 . S
C772 C780 1.378 . S
C773 C772 1.367 . S
C773 C781 1.433 . S
C774 H770 0.929 . S
C774 C776 1.378 . S
C774 C778 1.350 . S
C775 C778 1.463 1_455 S
C775 C780 1.350 . S
C775 N783 1.427 1_455 S
C776 H767 0.930 . S
C776 C774 1.378 . S
C776 C777 1.367 . S
C777 C776 1.367 . S
C777 C779 1.433 . S
C778 C774 1.350 . S
C778 C775 1.463 1_655 S
C778 N782 1.427 1_655 S
C779 H769 0.929 1_655 S
C779 C777 1.433 . S
C779 N782 1.384 1_655 S
C780 H771 0.929 . S
C780 C772 1.378 . S
C780 C775 1.350 . S
C781 H768 0.929 1_455 S
C781 C773 1.433 . S
C781 N783 1.384 1_455 S
N782 C778 1.427 1_455 S
N782 C779 1.384 1_455 S
N783 C775 1.427 1_655 S
N783 C781 1.384 1_655 S
H784 C790 0.930 . S
H785 C794 0.930 . S
H786 C799 0.929 . S
H787 C797 0.929 . S
H788 C792 0.929 . S
H789 C798 0.929 . S
C790 H784 0.930 . S
C790 C791 1.367 1_545 S
C790 C798 1.378 . S
C791 C790 1.367 1_565 S
C791 C799 1.433 1_554 S
C792 H788 0.929 . S
C792 C794 1.378 . S
C792 C796 1.350 1_565 S
C793 C796 1.463 1_564 S
C793 C798 1.350 1_565 S
C793 N801 1.427 1_554 S
C794 H785 0.930 . S
C794 C792 1.378 . S
C794 C795 1.367 1_565 S
C795 C794 1.367 1_545 S
C795 C797 1.433 1_556 S
C796 C792 1.350 1_545 S
C796 C793 1.463 1_546 S
C796 N800 1.427 1_556 S
C797 H787 0.929 . S
C797 C795 1.433 1_554 S
C797 N800 1.384 . S
C798 H789 0.929 . S
C798 C790 1.378 . S
C798 C793 1.350 1_545 S
C799 H786 0.929 . S
C799 C791 1.433 1_556 S
C799 N801 1.384 . S
N800 C796 1.427 1_554 S
N800 C797 1.384 . S
N801 C793 1.427 1_556 S
N801 C799 1.384 . S
H802 C808 0.930 . S
H803 C812 0.930 . S
H804 C817 0.929 . S
H805 C815 0.929 . S
H806 C810 0.929 . S
H807 C816 0.929 . S
C808 H802 0.930 . S
C808 C809 1.367 . S
C808 C816 1.378 . S
C809 C808 1.367 . S
C809 C817 1.433 . S
C810 H806 0.929 . S
C810 C812 1.378 . S
C810 C814 1.350 . S
C811 C814 1.463 . S
C811 C816 1.350 . S
C811 N819 1.427 . S
C812 H803 0.930 . S
C812 C810 1.378 . S
C812 C813 1.367 . S
C813 C812 1.367 . S
C813 C815 1.433 . S
C814 C810 1.350 . S
C814 C811 1.463 . S
C814 N818 1.427 . S
C815 H805 0.929 . S
C815 C813 1.433 . S
C815 N818 1.384 . S
C816 H807 0.929 . S
C816 C808 1.378 . S
C816 C811 1.350 . S
C817 H804 0.929 . S
C817 C809 1.433 . S
C817 N819 1.384 . S
N818 C814 1.427 . S
N818 C815 1.384 . S
N819 C811 1.427 . S
N819 C817 1.384 . S
H820 C826 0.930 . S
H821 C830 0.930 . S
H822 C835 0.929 . S
H823 C833 0.929 . S
H824 C828 0.929 . S
H825 C834 0.929 . S
C826 H820 0.930 . S
C826 C827 1.367 . S
C826 C834 1.378 . S
C827 C826 1.367 . S
C827 C835 1.433 1_545 S
C828 H824 0.929 . S
C828 C830 1.378 . S
C828 C832 1.350 . S
C829 C832 1.463 1_445 S
C829 C834 1.350 . S
C829 N837 1.427 1_545 S
C830 H821 0.930 . S
C830 C828 1.378 . S
C830 C831 1.367 . S
C831 C830 1.367 . S
C831 C833 1.433 1_565 S
C832 C828 1.350 . S
C832 C829 1.463 1_665 S
C832 N836 1.427 1_565 S
C833 H823 0.929 . S
C833 C831 1.433 1_545 S
C833 N836 1.384 . S
C834 H825 0.929 . S
C834 C826 1.378 . S
C834 C829 1.350 . S
C835 H822 0.929 . S
C835 C827 1.433 1_565 S
C835 N837 1.384 . S
N836 C832 1.427 1_545 S
N836 C833 1.384 . S
N837 C829 1.427 1_565 S
N837 C835 1.384 . S
H838 C844 0.930 . S
H839 C848 0.930 . S
H840 C853 0.929 . S
H841 C851 0.929 . S
H842 C846 0.929 . S
H843 C852 0.929 . S
C844 H838 0.930 . S
C844 C845 1.367 . S
C844 C852 1.378 . S
C845 C844 1.367 . S
C845 C853 1.433 . S
C846 H842 0.929 . S
C846 C848 1.378 . S
C846 C850 1.350 . S
C847 C850 1.463 . S
C847 C852 1.350 . S
C847 N855 1.427 . S
C848 H839 0.930 . S
C848 C846 1.378 . S
C848 C849 1.367 . S
C849 C848 1.367 . S
C849 C851 1.433 . S
C850 C846 1.350 . S
C850 C847 1.463 . S
C850 N854 1.427 . S
C851 H841 0.929 . S
C851 C849 1.433 . S
C851 N854 1.384 . S
C852 H843 0.929 . S
C852 C844 1.378 . S
C852 C847 1.350 . S
C853 H840 0.929 . S
C853 C845 1.433 . S
C853 N855 1.384 . S
N854 C850 1.427 . S
N854 C851 1.384 . S
N855 C847 1.427 . S
N855 C853 1.384 . S
H856 C862 0.930 . S
H857 C866 0.930 . S
H858 C871 0.929 . S
H859 C869 0.929 . S
H860 C864 0.929 . S
H861 C870 0.929 . S
C862 H856 0.930 . S
C862 C863 1.367 . S
C862 C870 1.378 . S
C863 C862 1.367 . S
C863 C871 1.433 . S
C864 H860 0.929 . S
C864 C866 1.378 . S
C864 C868 1.350 . S
C865 C868 1.463 . S
C865 C870 1.350 . S
C865 N873 1.427 . S
C866 H857 0.930 . S
C866 C864 1.378 . S
C866 C867 1.367 . S
C867 C866 1.367 . S
C867 C869 1.433 . S
C868 C864 1.350 . S
C868 C865 1.463 . S
C868 N872 1.427 . S
C869 H859 0.929 . S
C869 C867 1.433 . S
C869 N872 1.384 . S
C870 H861 0.929 . S
C870 C862 1.378 . S
C870 C865 1.350 . S
C871 H858 0.929 . S
C871 C863 1.433 . S
C871 N873 1.384 . S
N872 C868 1.427 . S
N872 C869 1.384 . S
N873 C865 1.427 . S
N873 C871 1.384 . S
H874 C880 0.930 . S
H875 C884 0.930 . S
H876 C889 0.929 . S
H877 C887 0.929 . S
H878 C882 0.929 . S
H879 C888 0.929 . S
C880 H874 0.930 . S
C880 C881 1.367 . S
C880 C888 1.378 . S
C881 C880 1.367 . S
C881 C889 1.433 . S
C882 H878 0.929 . S
C882 C884 1.378 . S
C882 C886 1.350 . S
C883 C886 1.463 . S
C883 C888 1.350 . S
C883 N891 1.427 . S
C884 H875 0.930 . S
C884 C882 1.378 . S
C884 C885 1.367 . S
C885 C884 1.367 . S
C885 C887 1.433 . S
C886 C882 1.350 . S
C886 C883 1.463 . S
C886 N890 1.427 . S
C887 H877 0.929 . S
C887 C885 1.433 . S
C887 N890 1.384 . S
C888 H879 0.929 . S
C888 C880 1.378 . S
C888 C883 1.350 . S
C889 H876 0.929 . S
C889 C881 1.433 . S
C889 N891 1.384 . S
N890 C886 1.427 . S
N890 C887 1.384 . S
N891 C883 1.427 . S
N891 C889 1.384 . S
H892 C898 0.930 . S
H893 C902 0.930 . S
H894 C907 0.929 . S
H895 C905 0.929 . S
H896 C900 0.929 . S
H897 C906 0.929 . S
C898 H892 0.930 . S
C898 C899 1.367 . S
C898 C906 1.378 . S
C899 C898 1.367 . S
C899 C907 1.433 . S
C900 H896 0.929 . S
C900 C902 1.378 . S
C900 C904 1.350 . S
C901 C904 1.463 1_455 S
C901 C906 1.350 . S
C901 N909 1.427 . S
C902 H893 0.930 . S
C902 C900 1.378 . S
C902 C903 1.367 . S
C903 C902 1.367 . S
C903 C905 1.433 . S
C904 C900 1.350 . S
C904 C901 1.463 1_655 S
C904 N908 1.427 . S
C905 H895 0.929 . S
C905 C903 1.433 . S
C905 N908 1.384 . S
C906 H897 0.929 . S
C906 C898 1.378 . S
C906 C901 1.350 . S
C907 H894 0.929 . S
C907 C899 1.433 . S
C907 N909 1.384 . S
N908 C904 1.427 . S
N908 C905 1.384 . S
N909 C901 1.427 . S
N909 C907 1.384 . S
H910 C916 0.930 . S
H911 C920 0.930 . S
H912 C925 0.929 . S
H913 C923 0.929 . S
H914 C918 0.929 . S
H915 C924 0.929 . S
C916 H910 0.930 . S
C916 C917 1.367 . S
C916 C924 1.378 . S
C917 C916 1.367 . S
C917 C925 1.433 1_554 S
C918 H914 0.929 . S
C918 C920 1.378 . S
C918 C922 1.350 . S
C919 C922 1.463 1_554 S
C919 C924 1.350 . S
C919 N927 1.427 1_554 S
C920 H911 0.930 . S
C920 C918 1.378 . S
C920 C921 1.367 . S
C921 C920 1.367 . S
C921 C923 1.433 1_556 S
C922 C918 1.350 . S
C922 C919 1.463 1_556 S
C922 N926 1.427 1_556 S
C923 H913 0.929 . S
C923 C921 1.433 1_554 S
C923 N926 1.384 . S
C924 H915 0.929 . S
C924 C916 1.378 . S
C924 C919 1.350 . S
C925 H912 0.929 . S
C925 C917 1.433 1_556 S
C925 N927 1.384 . S
N926 C922 1.427 1_554 S
N926 C923 1.384 . S
N927 C919 1.427 1_556 S
N927 C925 1.384 . S
H928 C934 0.930 . S
H929 C938 0.930 . S
H930 C943 0.929 . S
H931 C941 0.929 . S
H932 C936 0.929 . S
H933 C942 0.929 . S
C934 H928 0.930 . S
C934 C935 1.367 . S
C934 C942 1.378 . S
C935 C934 1.367 . S
C935 C943 1.433 . S
C936 H932 0.929 . S
C936 C938 1.378 . S
C936 C940 1.350 . S
C937 C940 1.463 . S
C937 C942 1.350 . S
C937 N945 1.427 . S
C938 H929 0.930 . S
C938 C936 1.378 . S
C938 C939 1.367 . S
C939 C938 1.367 . S
C939 C941 1.433 . S
C940 C936 1.350 . S
C940 C937 1.463 . S
C940 N944 1.427 . S
C941 H931 0.929 . S
C941 C939 1.433 . S
C941 N944 1.384 . S
C942 H933 0.929 . S
C942 C934 1.378 . S
C942 C937 1.350 . S
C943 H930 0.929 . S
C943 C935 1.433 . S
C943 N945 1.384 . S
N944 C940 1.427 . S
N944 C941 1.384 . S
N945 C937 1.427 . S
N945 C943 1.384 . S
H946 C952 0.930 . S
H947 C956 0.930 . S
H948 C961 0.929 . S
H949 C959 0.929 . S
H950 C954 0.929 . S
H951 C960 0.929 . S
C952 H946 0.930 . S
C952 C953 1.367 . S
C952 C960 1.378 . S
C953 C952 1.367 . S
C953 C961 1.433 . S
C954 H950 0.929 . S
C954 C956 1.378 . S
C954 C958 1.350 . S
C955 C958 1.463 . S
C955 C960 1.350 . S
C955 N963 1.427 . S
C956 H947 0.930 . S
C956 C954 1.378 . S
C956 C957 1.367 . S
C957 C956 1.367 . S
C957 C959 1.433 . S
C958 C954 1.350 . S
C958 C955 1.463 . S
C958 N962 1.427 . S
C959 H949 0.929 . S
C959 C957 1.433 . S
C959 N962 1.384 . S
C960 H951 0.929 . S
C960 C952 1.378 . S
C960 C955 1.350 . S
C961 H948 0.929 . S
C961 C953 1.433 . S
C961 N963 1.384 . S
N962 C958 1.427 . S
N962 C959 1.384 . S
N963 C955 1.427 . S
N963 C961 1.384 . S
H964 C970 0.930 . S
H965 C974 0.930 . S
H966 C979 0.929 . S
H967 C977 0.929 . S
H968 C972 0.929 . S
H969 C978 0.929 . S
C970 H964 0.930 . S
C970 C971 1.367 . S
C970 C978 1.378 . S
C971 C970 1.367 . S
C971 C979 1.433 . S
C972 H968 0.929 . S
C972 C974 1.378 . S
C972 C976 1.350 . S
C973 C976 1.463 . S
C973 C978 1.350 . S
C973 N981 1.427 . S
C974 H965 0.930 . S
C974 C972 1.378 . S
C974 C975 1.367 . S
C975 C974 1.367 . S
C975 C977 1.433 . S
C976 C972 1.350 . S
C976 C973 1.463 . S
C976 N980 1.427 . S
C977 H967 0.929 . S
C977 C975 1.433 . S
C977 N980 1.384 . S
C978 H969 0.929 . S
C978 C970 1.378 . S
C978 C973 1.350 . S
C979 H966 0.929 . S
C979 C971 1.433 . S
C979 N981 1.384 . S
N980 C976 1.427 . S
N980 C977 1.384 . S
N981 C973 1.427 . S
N981 C979 1.384 . S
H982 C988 0.930 . S
H983 C992 0.930 . S
H984 C997 0.929 . S
H985 C995 0.929 . S
H986 C990 0.929 . S
H987 C996 0.929 . S
C988 H982 0.930 . S
C988 C989 1.367 . S
C988 C996 1.378 . S
C989 C988 1.367 . S
C989 C997 1.433 . S
C990 H986 0.929 . S
C990 C992 1.378 . S
C990 C994 1.350 . S
C991 C994 1.463 . S
C991 C996 1.350 . S
C991 N999 1.427 . S
C992 H983 0.930 . S
C992 C990 1.378 . S
C992 C993 1.367 . S
C993 C992 1.367 . S
C993 C995 1.433 . S
C994 C990 1.350 . S
C994 C991 1.463 . S
C994 N998 1.427 . S
C995 H985 0.929 . S
C995 C993 1.433 . S
C995 N998 1.384 . S
C996 H987 0.929 . S
C996 C988 1.378 . S
C996 C991 1.350 . S
C997 H984 0.929 . S
C997 C989 1.433 . S
C997 N999 1.384 . S
N998 C994 1.427 . S
N998 C995 1.384 . S
N999 C991 1.427 . S
N999 C997 1.384 . S
H1000 C1006 0.930 . S
H1001 C1010 0.930 . S
H1002 C1015 0.929 . S
H1003 C1013 0.929 . S
H1004 C1008 0.929 . S
H1005 C1014 0.929 . S
C1006 H1000 0.930 . S
C1006 C1007 1.367 . S
C1006 C1014 1.378 . S
C1007 C1006 1.367 . S
C1007 C1015 1.433 . S
C1008 H1004 0.929 . S
C1008 C1010 1.378 . S
C1008 C1012 1.350 . S
C1009 C1012 1.463 . S
C1009 C1014 1.350 . S
C1009 N1017 1.427 . S
C1010 H1001 0.930 . S
C1010 C1008 1.378 . S
C1010 C1011 1.367 . S
C1011 C1010 1.367 . S
C1011 C1013 1.433 . S
C1012 C1008 1.350 . S
C1012 C1009 1.463 . S
C1012 N1016 1.427 . S
C1013 H1003 0.929 . S
C1013 C1011 1.433 . S
C1013 N1016 1.384 . S
C1014 H1005 0.929 . S
C1014 C1006 1.378 . S
C1014 C1009 1.350 . S
C1015 H1002 0.929 . S
C1015 C1007 1.433 . S
C1015 N1017 1.384 . S
N1016 C1012 1.427 . S
N1016 C1013 1.384 . S
N1017 C1009 1.427 . S
N1017 C1015 1.384 . S
H1018 C1024 0.930 . S
H1019 C1028 0.930 . S
H1020 C1033 0.929 . S
H1021 C1031 0.929 . S
H1022 C1026 0.929 . S
H1023 C1032 0.929 . S
C1024 H1018 0.930 . S
C1024 C1025 1.367 . S
C1024 C1032 1.378 . S
C1025 C1024 1.367 . S
C1025 C1033 1.433 . S
C1026 H1022 0.929 . S
C1026 C1028 1.378 . S
C1026 C1030 1.350 . S
C1027 C1030 1.463 . S
C1027 C1032 1.350 . S
C1027 N1035 1.427 . S
C1028 H1019 0.930 . S
C1028 C1026 1.378 . S
C1028 C1029 1.367 . S
C1029 C1028 1.367 . S
C1029 C1031 1.433 . S
C1030 C1026 1.350 . S
C1030 C1027 1.463 . S
C1030 N1034 1.427 . S
C1031 H1021 0.929 . S
C1031 C1029 1.433 . S
C1031 N1034 1.384 . S
C1032 H1023 0.929 . S
C1032 C1024 1.378 . S
C1032 C1027 1.350 . S
C1033 H1020 0.929 . S
C1033 C1025 1.433 . S
C1033 N1035 1.384 . S
N1034 C1030 1.427 . S
N1034 C1031 1.384 . S
N1035 C1027 1.427 . S
N1035 C1033 1.384 . S
H1036 C1042 0.930 . S
H1037 C1046 0.930 . S
H1038 C1051 0.929 . S
H1039 C1049 0.929 . S
H1040 C1044 0.929 . S
H1041 C1050 0.929 . S
C1042 H1036 0.930 . S
C1042 C1043 1.367 . S
C1042 C1050 1.378 . S
C1043 C1042 1.367 . S
C1043 C1051 1.433 . S
C1044 H1040 0.929 . S
C1044 C1046 1.378 . S
C1044 C1048 1.350 . S
C1045 C1048 1.463 . S
C1045 C1050 1.350 . S
C1045 N1053 1.427 . S
C1046 H1037 0.930 . S
C1046 C1044 1.378 . S
C1046 C1047 1.367 . S
C1047 C1046 1.367 . S
C1047 C1049 1.433 . S
C1048 C1044 1.350 . S
C1048 C1045 1.463 . S
C1048 N1052 1.427 . S
C1049 H1039 0.929 . S
C1049 C1047 1.433 . S
C1049 N1052 1.384 . S
C1050 H1041 0.929 . S
C1050 C1042 1.378 . S
C1050 C1045 1.350 . S
C1051 H1038 0.929 . S
C1051 C1043 1.433 . S
C1051 N1053 1.384 . S
N1052 C1048 1.427 . S
N1052 C1049 1.384 . S
N1053 C1045 1.427 . S
N1053 C1051 1.384 . S
H1054 C1060 0.930 . S
H1055 C1064 0.930 . S
H1056 C1069 0.929 . S
H1057 C1067 0.929 . S
H1058 C1062 0.929 . S
H1059 C1068 0.929 . S
C1060 H1054 0.930 . S
C1060 C1061 1.367 . S
C1060 C1068 1.378 . S
C1061 C1060 1.367 . S
C1061 C1069 1.433 . S
C1062 H1058 0.929 . S
C1062 C1064 1.378 . S
C1062 C1066 1.350 . S
C1063 C1066 1.463 . S
C1063 C1068 1.350 . S
C1063 N1071 1.427 . S
C1064 H1055 0.930 . S
C1064 C1062 1.378 . S
C1064 C1065 1.367 . S
C1065 C1064 1.367 . S
C1065 C1067 1.433 . S
C1066 C1062 1.350 . S
C1066 C1063 1.463 . S
C1066 N1070 1.427 . S
C1067 H1057 0.929 . S
C1067 C1065 1.433 . S
C1067 N1070 1.384 . S
C1068 H1059 0.929 . S
C1068 C1060 1.378 . S
C1068 C1063 1.350 . S
C1069 H1056 0.929 . S
C1069 C1061 1.433 . S
C1069 N1071 1.384 . S
N1070 C1066 1.427 . S
N1070 C1067 1.384 . S
N1071 C1063 1.427 . S
N1071 C1069 1.384 . S
H1072 C1078 0.930 . S
H1073 C1082 0.930 . S
H1074 C1087 0.929 . S
H1075 C1085 0.929 . S
H1076 C1080 0.929 . S
H1077 C1086 0.929 . S
C1078 H1072 0.930 . S
C1078 C1079 1.367 . S
C1078 C1086 1.378 . S
C1079 C1078 1.367 . S
C1079 C1087 1.433 . S
C1080 H1076 0.929 . S
C1080 C1082 1.378 . S
C1080 C1084 1.350 . S
C1081 C1084 1.463 . S
C1081 C1086 1.350 . S
C1081 N1089 1.427 . S
C1082 H1073 0.930 . S
C1082 C1080 1.378 . S
C1082 C1083 1.367 . S
C1083 C1082 1.367 . S
C1083 C1085 1.433 . S
C1084 C1080 1.350 . S
C1084 C1081 1.463 . S
C1084 N1088 1.427 . S
C1085 H1075 0.929 . S
C1085 C1083 1.433 . S
C1085 N1088 1.384 . S
C1086 H1077 0.929 . S
C1086 C1078 1.378 . S
C1086 C1081 1.350 . S
C1087 H1074 0.929 . S
C1087 C1079 1.433 . S
C1087 N1089 1.384 . S
N1088 C1084 1.427 . S
N1088 C1085 1.384 . S
N1089 C1081 1.427 . S
N1089 C1087 1.384 . S
H1090 C1096 0.930 . S
H1091 C1100 0.930 . S
H1092 C1105 0.929 . S
H1093 C1103 0.929 . S
H1094 C1098 0.929 . S
H1095 C1104 0.929 . S
C1096 H1090 0.930 . S
C1096 C1097 1.367 . S
C1096 C1104 1.378 . S
C1097 C1096 1.367 . S
C1097 C1105 1.433 . S
C1098 H1094 0.929 . S
C1098 C1100 1.378 . S
C1098 C1102 1.350 . S
C1099 C1102 1.463 . S
C1099 C1104 1.350 . S
C1099 N1107 1.427 . S
C1100 H1091 0.930 . S
C1100 C1098 1.378 . S
C1100 C1101 1.367 . S
C1101 C1100 1.367 . S
C1101 C1103 1.433 . S
C1102 C1098 1.350 . S
C1102 C1099 1.463 . S
C1102 N1106 1.427 . S
C1103 H1093 0.929 . S
C1103 C1101 1.433 . S
C1103 N1106 1.384 . S
C1104 H1095 0.929 . S
C1104 C1096 1.378 . S
C1104 C1099 1.350 . S
C1105 H1092 0.929 . S
C1105 C1097 1.433 . S
C1105 N1107 1.384 . S
N1106 C1102 1.427 . S
N1106 C1103 1.384 . S
N1107 C1099 1.427 . S
N1107 C1105 1.384 . S
H1108 C1114 0.930 . S
H1109 C1118 0.930 . S
H1110 C1123 0.929 . S
H1111 C1121 0.929 . S
H1112 C1116 0.929 . S
H1113 C1122 0.929 . S
C1114 H1108 0.930 . S
C1114 C1115 1.367 . S
C1114 C1122 1.378 . S
C1115 C1114 1.367 . S
C1115 C1123 1.433 . S
C1116 H1112 0.929 . S
C1116 C1118 1.378 . S
C1116 C1120 1.350 . S
C1117 C1120 1.463 . S
C1117 C1122 1.350 . S
C1117 N1125 1.427 . S
C1118 H1109 0.930 . S
C1118 C1116 1.378 . S
C1118 C1119 1.367 . S
C1119 C1118 1.367 . S
C1119 C1121 1.433 . S
C1120 C1116 1.350 . S
C1120 C1117 1.463 . S
C1120 N1124 1.427 . S
C1121 H1111 0.929 . S
C1121 C1119 1.433 . S
C1121 N1124 1.384 . S
C1122 H1113 0.929 . S
C1122 C1114 1.378 . S
C1122 C1117 1.350 . S
C1123 H1110 0.929 . S
C1123 C1115 1.433 . S
C1123 N1125 1.384 . S
N1124 C1120 1.427 . S
N1124 C1121 1.384 . S
N1125 C1117 1.427 . S
N1125 C1123 1.384 . S
H1126 C1132 0.930 . S
H1127 C1136 0.930 . S
H1128 C1141 0.929 . S
H1129 C1139 0.929 . S
H1130 C1134 0.929 . S
H1131 C1140 0.929 . S
C1132 H1126 0.930 . S
C1132 C1133 1.367 . S
C1132 C1140 1.378 . S
C1133 C1132 1.367 . S
C1133 C1141 1.433 . S
C1134 H1130 0.929 . S
C1134 C1136 1.378 . S
C1134 C1138 1.350 . S
C1135 C1138 1.463 . S
C1135 C1140 1.350 . S
C1135 N1143 1.427 . S
C1136 H1127 0.930 . S
C1136 C1134 1.378 . S
C1136 C1137 1.367 . S
C1137 C1136 1.367 . S
C1137 C1139 1.433 . S
C1138 C1134 1.350 . S
C1138 C1135 1.463 . S
C1138 N1142 1.427 . S
C1139 H1129 0.929 . S
C1139 C1137 1.433 . S
C1139 N1142 1.384 . S
C1140 H1131 0.929 . S
C1140 C1132 1.378 . S
C1140 C1135 1.350 . S
C1141 H1128 0.929 . S
C1141 C1133 1.433 . S
C1141 N1143 1.384 . S
N1142 C1138 1.427 . S
N1142 C1139 1.384 . S
N1143 C1135 1.427 . S
N1143 C1141 1.384 . S
H1144 C1150 0.930 . S
H1145 C1154 0.930 . S
H1146 C1159 0.929 . S
H1147 C1157 0.929 . S
H1148 C1152 0.929 . S
H1149 C1158 0.929 . S
C1150 H1144 0.930 . S
C1150 C1151 1.367 . S
C1150 C1158 1.378 . S
C1151 C1150 1.367 . S
C1151 C1159 1.433 . S
C1152 H1148 0.929 . S
C1152 C1154 1.378 . S
C1152 C1156 1.350 . S
C1153 C1156 1.463 . S
C1153 C1158 1.350 . S
C1153 N1161 1.427 . S
C1154 H1145 0.930 . S
C1154 C1152 1.378 . S
C1154 C1155 1.367 . S
C1155 C1154 1.367 . S
C1155 C1157 1.433 . S
C1156 C1152 1.350 . S
C1156 C1153 1.463 . S
C1156 N1160 1.427 . S
C1157 H1147 0.929 . S
C1157 C1155 1.433 . S
C1157 N1160 1.384 . S
C1158 H1149 0.929 . S
C1158 C1150 1.378 . S
C1158 C1153 1.350 . S
C1159 H1146 0.929 . S
C1159 C1151 1.433 . S
C1159 N1161 1.384 . S
N1160 C1156 1.427 . S
N1160 C1157 1.384 . S
N1161 C1153 1.427 . S
N1161 C1159 1.384 . S
H1162 C1168 0.930 . S
H1163 C1172 0.930 . S
H1164 C1177 0.929 . S
H1165 C1175 0.929 . S
H1166 C1170 0.929 . S
H1167 C1176 0.929 . S
C1168 H1162 0.930 . S
C1168 C1169 1.367 . S
C1168 C1176 1.378 . S
C1169 C1168 1.367 . S
C1169 C1177 1.433 . S
C1170 H1166 0.929 . S
C1170 C1172 1.378 . S
C1170 C1174 1.350 . S
C1171 C1174 1.463 . S
C1171 C1176 1.350 . S
C1171 N1179 1.427 . S
C1172 H1163 0.930 . S
C1172 C1170 1.378 . S
C1172 C1173 1.367 . S
C1173 C1172 1.367 . S
C1173 C1175 1.433 . S
C1174 C1170 1.350 . S
C1174 C1171 1.463 . S
C1174 N1178 1.427 . S
C1175 H1165 0.929 . S
C1175 C1173 1.433 . S
C1175 N1178 1.384 . S
C1176 H1167 0.929 . S
C1176 C1168 1.378 . S
C1176 C1171 1.350 . S
C1177 H1164 0.929 . S
C1177 C1169 1.433 . S
C1177 N1179 1.384 . S
N1178 C1174 1.427 . S
N1178 C1175 1.384 . S
N1179 C1171 1.427 . S
N1179 C1177 1.384 . S
H1180 C1186 0.930 . S
H1181 C1190 0.930 . S
H1182 C1195 0.929 . S
H1183 C1193 0.929 . S
H1184 C1188 0.929 . S
H1185 C1194 0.929 . S
C1186 H1180 0.930 . S
C1186 C1187 1.367 . S
C1186 C1194 1.378 . S
C1187 C1186 1.367 . S
C1187 C1195 1.433 . S
C1188 H1184 0.929 . S
C1188 C1190 1.378 . S
C1188 C1192 1.350 . S
C1189 C1192 1.463 . S
C1189 C1194 1.350 . S
C1189 N1197 1.427 . S
C1190 H1181 0.930 . S
C1190 C1188 1.378 . S
C1190 C1191 1.367 . S
C1191 C1190 1.367 . S
C1191 C1193 1.433 . S
C1192 C1188 1.350 . S
C1192 C1189 1.463 . S
C1192 N1196 1.427 . S
C1193 H1183 0.929 . S
C1193 C1191 1.433 . S
C1193 N1196 1.384 . S
C1194 H1185 0.929 . S
C1194 C1186 1.378 . S
C1194 C1189 1.350 . S
C1195 H1182 0.929 . S
C1195 C1187 1.433 . S
C1195 N1197 1.384 . S
N1196 C1192 1.427 . S
N1196 C1193 1.384 . S
N1197 C1189 1.427 . S
N1197 C1195 1.384 . S
H1198 C1204 0.934 . S
H1199 C1208 0.930 . S
H1200 C1213 0.929 . S
H1201 C1211 0.929 . S
H1202 C1206 0.929 . S
H1203 C1212 0.929 . S
C1204 H1198 0.934 . S
C1204 C1205 1.367 . S
C1204 C1212 1.378 . S
C1205 C1204 1.367 . S
C1205 C1213 1.433 . S
C1206 H1202 0.929 . S
C1206 C1208 1.378 . S
C1206 C1210 1.350 . S
C1207 C1210 1.463 . S
C1207 C1212 1.350 . S
C1207 N1215 1.427 . S
C1208 H1199 0.930 . S
C1208 C1206 1.378 . S
C1208 C1209 1.367 . S
C1209 C1208 1.367 . S
C1209 C1211 1.433 . S
C1210 C1206 1.350 . S
C1210 C1207 1.463 . S
C1210 N1214 1.427 . S
C1211 H1201 0.929 . S
C1211 C1209 1.433 . S
C1211 N1214 1.384 . S
C1212 H1203 0.929 . S
C1212 C1204 1.378 . S
C1212 C1207 1.350 . S
C1213 H1200 0.929 . S
C1213 C1205 1.433 . S
C1213 N1215 1.384 . S
N1214 C1210 1.427 . S
N1214 C1211 1.384 . S
N1215 C1207 1.427 . S
N1215 C1213 1.384 . S
H1216 C1222 0.930 1_554 S
H1217 C1226 0.930 . S
H1218 C1231 0.929 1_554 S
H1219 C1229 0.929 . S
H1220 C1224 0.929 . S
H1221 C1230 0.929 . S
C1222 H1216 0.930 1_556 S
C1222 C1223 1.367 1_556 S
C1222 C1230 1.378 . S
C1223 C1222 1.367 1_554 S
C1223 C1231 1.433 1_554 S
C1224 H1220 0.929 . S
C1224 C1226 1.378 . S
C1224 C1228 1.350 . S
C1225 C1228 1.463 . S
C1225 C1230 1.350 . S
C1225 N1233 1.427 . S
C1226 H1217 0.930 . S
C1226 C1224 1.378 . S
C1226 C1227 1.367 . S
C1227 C1226 1.367 . S
C1227 C1229 1.433 . S
C1228 C1224 1.350 . S
C1228 C1225 1.463 . S
C1228 N1232 1.427 . S
C1229 H1219 0.929 . S
C1229 C1227 1.433 . S
C1229 N1232 1.384 . S
C1230 H1221 0.929 . S
C1230 C1222 1.378 . S
C1230 C1225 1.350 . S
C1231 H1218 0.929 1_556 S
C1231 C1223 1.433 1_556 S
C1231 N1233 1.384 . S
N1232 C1228 1.427 . S
N1232 C1229 1.384 . S
N1233 C1225 1.427 . S
N1233 C1231 1.384 . S
H1234 C1240 0.930 . S
H1235 C1244 0.930 . S
H1236 C1249 0.929 . S
H1237 C1247 0.929 . S
H1238 C1242 0.929 . S
H1239 C1248 0.929 . S
C1240 H1234 0.930 . S
C1240 C1241 1.367 . S
C1240 C1248 1.378 . S
C1241 C1240 1.367 . S
C1241 C1249 1.433 . S
C1242 H1238 0.929 . S
C1242 C1244 1.378 . S
C1242 C1246 1.350 . S
C1243 C1246 1.463 . S
C1243 C1248 1.350 . S
C1243 N1251 1.427 . S
C1244 H1235 0.930 . S
C1244 C1242 1.378 . S
C1244 C1245 1.367 . S
C1245 C1244 1.367 . S
C1245 C1247 1.433 . S
C1246 C1242 1.350 . S
C1246 C1243 1.463 . S
C1246 N1250 1.427 . S
C1247 H1237 0.929 . S
C1247 C1245 1.433 . S
C1247 N1250 1.384 . S
C1248 H1239 0.929 . S
C1248 C1240 1.378 . S
C1248 C1243 1.350 . S
C1249 H1236 0.929 . S
C1249 C1241 1.433 . S
C1249 N1251 1.384 . S
N1250 C1246 1.427 . S
N1250 C1247 1.384 . S
N1251 C1243 1.427 . S
N1251 C1249 1.384 . S
H1252 C1258 0.930 . S
H1253 C1262 0.930 . S
H1254 C1267 0.929 . S
H1255 C1265 0.929 . S
H1256 C1260 0.929 . S
H1257 C1266 0.929 . S
C1258 H1252 0.930 . S
C1258 C1259 1.367 . S
C1258 C1266 1.378 . S
C1259 C1258 1.367 . S
C1259 C1267 1.433 . S
C1260 H1256 0.929 . S
C1260 C1262 1.378 . S
C1260 C1264 1.350 . S
C1261 C1264 1.463 . S
C1261 C1266 1.350 . S
C1261 N1269 1.427 . S
C1262 H1253 0.930 . S
C1262 C1260 1.378 . S
C1262 C1263 1.367 . S
C1263 C1262 1.367 . S
C1263 C1265 1.433 . S
C1264 C1260 1.350 . S
C1264 C1261 1.463 . S
C1264 N1268 1.427 . S
C1265 H1255 0.929 . S
C1265 C1263 1.433 . S
C1265 N1268 1.384 . S
C1266 H1257 0.929 . S
C1266 C1258 1.378 . S
C1266 C1261 1.350 . S
C1267 H1254 0.929 . S
C1267 C1259 1.433 . S
C1267 N1269 1.384 . S
N1268 C1264 1.427 . S
N1268 C1265 1.384 . S
N1269 C1261 1.427 . S
N1269 C1267 1.384 . S
H1270 C1276 0.930 . S
H1271 C1280 0.930 . S
H1272 C1285 0.929 . S
H1273 C1283 0.929 . S
H1274 C1278 0.929 . S
H1275 C1284 0.929 . S
C1276 H1270 0.930 . S
C1276 C1277 1.367 . S
C1276 C1284 1.378 . S
C1277 C1276 1.367 . S
C1277 C1285 1.433 . S
C1278 H1274 0.929 . S
C1278 C1280 1.378 . S
C1278 C1282 1.350 . S
C1279 C1282 1.463 . S
C1279 C1284 1.350 . S
C1279 N1287 1.427 . S
C1280 H1271 0.930 . S
C1280 C1278 1.378 . S
C1280 C1281 1.367 . S
C1281 C1280 1.367 . S
C1281 C1283 1.433 . S
C1282 C1278 1.350 . S
C1282 C1279 1.463 . S
C1282 N1286 1.427 . S
C1283 H1273 0.929 . S
C1283 C1281 1.433 . S
C1283 N1286 1.384 . S
C1284 H1275 0.929 . S
C1284 C1276 1.378 . S
C1284 C1279 1.350 . S
C1285 H1272 0.929 . S
C1285 C1277 1.433 . S
C1285 N1287 1.384 . S
N1286 C1282 1.427 . S
N1286 C1283 1.384 . S
N1287 C1279 1.427 . S
N1287 C1285 1.384 . S
H1288 C1294 0.930 . S
H1289 C1298 0.930 . S
H1290 C1303 0.929 . S
H1291 C1301 0.929 . S
H1292 C1296 0.929 . S
H1293 C1302 0.929 . S
C1294 H1288 0.930 . S
C1294 C1295 1.367 . S
C1294 C1302 1.378 . S
C1295 C1294 1.367 . S
C1295 C1303 1.433 . S
C1296 H1292 0.929 . S
C1296 C1298 1.378 1_554 S
C1296 C1300 1.350 . S
C1297 C1300 1.463 . S
C1297 C1302 1.350 . S
C1297 N1305 1.427 . S
C1298 H1289 0.930 . S
C1298 C1296 1.378 1_556 S
C1298 C1299 1.367 . S
C1299 C1298 1.367 . S
C1299 C1301 1.433 1_556 S
C1300 C1296 1.350 . S
C1300 C1297 1.463 . S
C1300 N1304 1.427 . S
C1301 H1291 0.929 . S
C1301 C1299 1.433 1_554 S
C1301 N1304 1.384 . S
C1302 H1293 0.929 . S
C1302 C1294 1.378 . S
C1302 C1297 1.350 . S
C1303 H1290 0.929 . S
C1303 C1295 1.433 . S
C1303 N1305 1.384 . S
N1304 C1300 1.427 . S
N1304 C1301 1.384 . S
N1305 C1297 1.427 . S
N1305 C1303 1.384 . S
H1306 C1312 0.930 . S
H1307 C1316 0.930 . S
H1308 C1321 0.929 . S
H1309 C1319 0.929 . S
H1310 C1314 0.929 . S
H1311 C1320 0.929 . S
C1312 H1306 0.930 . S
C1312 C1313 1.367 . S
C1312 C1320 1.378 . S
C1313 C1312 1.367 . S
C1313 C1321 1.433 . S
C1314 H1310 0.929 . S
C1314 C1316 1.378 . S
C1314 C1318 1.350 . S
C1315 C1318 1.463 . S
C1315 C1320 1.350 . S
C1315 N1323 1.427 . S
C1316 H1307 0.930 . S
C1316 C1314 1.378 . S
C1316 C1317 1.367 . S
C1317 C1316 1.367 . S
C1317 C1319 1.433 . S
C1318 C1314 1.350 . S
C1318 C1315 1.463 . S
C1318 N1322 1.427 . S
C1319 H1309 0.929 . S
C1319 C1317 1.433 . S
C1319 N1322 1.384 . S
C1320 H1311 0.929 . S
C1320 C1312 1.378 . S
C1320 C1315 1.350 . S
C1321 H1308 0.929 . S
C1321 C1313 1.433 . S
C1321 N1323 1.384 . S
N1322 C1318 1.427 . S
N1322 C1319 1.384 . S
N1323 C1315 1.427 . S
N1323 C1321 1.384 . S
H1324 C1330 0.930 . S
H1325 C1334 0.930 . S
H1326 C1339 0.929 . S
H1327 C1337 0.929 . S
H1328 C1332 0.929 . S
H1329 C1338 0.929 . S
C1330 H1324 0.930 . S
C1330 C1331 1.367 . S
C1330 C1338 1.378 . S
C1331 C1330 1.367 . S
C1331 C1339 1.433 . S
C1332 H1328 0.929 . S
C1332 C1334 1.378 . S
C1332 C1336 1.350 . S
C1333 C1336 1.463 . S
C1333 C1338 1.350 . S
C1333 N1341 1.427 . S
C1334 H1325 0.930 . S
C1334 C1332 1.378 . S
C1334 C1335 1.367 . S
C1335 C1334 1.367 . S
C1335 C1337 1.433 . S
C1336 C1332 1.350 . S
C1336 C1333 1.463 . S
C1336 N1340 1.427 . S
C1337 H1327 0.929 . S
C1337 C1335 1.433 . S
C1337 N1340 1.384 . S
C1338 H1329 0.929 . S
C1338 C1330 1.378 . S
C1338 C1333 1.350 . S
C1339 H1326 0.929 . S
C1339 C1331 1.433 . S
C1339 N1341 1.384 . S
N1340 C1336 1.427 . S
N1340 C1337 1.384 . S
N1341 C1333 1.427 . S
N1341 C1339 1.384 . S
H1342 C1348 0.930 . S
H1343 C1352 0.930 . S
H1344 C1357 0.929 . S
H1345 C1355 0.929 . S
H1346 C1350 0.929 . S
H1347 C1356 0.929 . S
C1348 H1342 0.930 . S
C1348 C1349 1.367 . S
C1348 C1356 1.378 . S
C1349 C1348 1.367 . S
C1349 C1357 1.433 . S
C1350 H1346 0.929 . S
C1350 C1352 1.378 . S
C1350 C1354 1.350 . S
C1351 C1354 1.463 . S
C1351 C1356 1.350 . S
C1351 N1359 1.427 . S
C1352 H1343 0.930 . S
C1352 C1350 1.378 . S
C1352 C1353 1.367 . S
C1353 C1352 1.367 . S
C1353 C1355 1.433 . S
C1354 C1350 1.350 . S
C1354 C1351 1.463 . S
C1354 N1358 1.427 . S
C1355 H1345 0.929 . S
C1355 C1353 1.433 . S
C1355 N1358 1.384 . S
C1356 H1347 0.929 . S
C1356 C1348 1.378 . S
C1356 C1351 1.350 . S
C1357 H1344 0.929 . S
C1357 C1349 1.433 . S
C1357 N1359 1.384 . S
N1358 C1354 1.427 . S
N1358 C1355 1.384 . S
N1359 C1351 1.427 . S
N1359 C1357 1.384 . S
H1360 C1366 0.930 . S
H1361 C1370 0.930 . S
H1362 C1375 0.929 . S
H1363 C1373 0.929 . S
H1364 C1368 0.929 . S
H1365 C1374 0.929 . S
C1366 H1360 0.930 . S
C1366 C1367 1.367 . S
C1366 C1374 1.378 . S
C1367 C1366 1.367 . S
C1367 C1375 1.433 . S
C1368 H1364 0.929 . S
C1368 C1370 1.378 . S
C1368 C1372 1.350 . S
C1369 C1372 1.463 . S
C1369 C1374 1.350 . S
C1369 N1377 1.427 . S
C1370 H1361 0.930 . S
C1370 C1368 1.378 . S
C1370 C1371 1.367 . S
C1371 C1370 1.367 . S
C1371 C1373 1.433 . S
C1372 C1368 1.350 . S
C1372 C1369 1.463 . S
C1372 N1376 1.427 . S
C1373 H1363 0.929 . S
C1373 C1371 1.433 . S
C1373 N1376 1.384 . S
C1374 H1365 0.929 . S
C1374 C1366 1.378 . S
C1374 C1369 1.350 . S
C1375 H1362 0.929 . S
C1375 C1367 1.433 . S
C1375 N1377 1.384 . S
N1376 C1372 1.427 . S
N1376 C1373 1.384 . S
N1377 C1369 1.427 . S
N1377 C1375 1.384 . S
H1378 C1384 0.930 . S
H1379 C1388 0.930 . S
H1380 C1393 0.929 . S
H1381 C1391 0.929 . S
H1382 C1386 0.929 1_545 S
H1383 C1392 0.929 . S
C1384 H1378 0.930 . S
C1384 C1385 1.367 . S
C1384 C1392 1.378 . S
C1385 C1384 1.367 . S
C1385 C1393 1.433 . S
C1386 H1382 0.929 1_565 S
C1386 C1388 1.378 1_565 S
C1386 C1390 1.350 . S
C1387 C1390 1.463 . S
C1387 C1392 1.350 . S
C1387 N1395 1.427 . S
C1388 H1379 0.930 . S
C1388 C1386 1.378 1_545 S
C1388 C1389 1.361 1_545 S
C1389 C1388 1.361 1_565 S
C1389 C1391 1.447 . S
C1390 C1386 1.350 . S
C1390 C1387 1.463 . S
C1390 N1394 1.427 . S
C1391 H1381 0.929 . S
C1391 C1389 1.447 . S
C1391 N1394 1.384 . S
C1392 H1383 0.929 . S
C1392 C1384 1.378 . S
C1392 C1387 1.350 . S
C1393 H1380 0.929 . S
C1393 C1385 1.433 . S
C1393 N1395 1.384 . S
N1394 C1390 1.427 . S
N1394 C1391 1.384 . S
N1395 C1387 1.427 . S
N1395 C1393 1.384 . S
H1396 C1402 0.930 . S
H1397 C1406 0.930 . S
H1398 C1411 0.929 . S
H1399 C1409 0.929 . S
H1400 C1404 0.929 . S
H1401 C1410 0.929 . S
C1402 H1396 0.930 . S
C1402 C1403 1.367 . S
C1402 C1410 1.378 . S
C1403 C1402 1.367 . S
C1403 C1411 1.433 . S
C1404 H1400 0.929 . S
C1404 C1406 1.378 . S
C1404 C1408 1.350 . S
C1405 C1408 1.463 . S
C1405 C1410 1.350 . S
C1405 N1413 1.427 . S
C1406 H1397 0.930 . S
C1406 C1404 1.378 . S
C1406 C1407 1.367 1_556 S
C1407 C1406 1.367 1_554 S
C1407 C1409 1.433 . S
C1408 C1404 1.350 . S
C1408 C1405 1.463 . S
C1408 N1412 1.427 . S
C1409 H1399 0.929 . S
C1409 C1407 1.433 . S
C1409 N1412 1.384 1_554 S
C1410 H1401 0.929 . S
C1410 C1402 1.378 . S
C1410 C1405 1.350 . S
C1411 H1398 0.929 . S
C1411 C1403 1.433 . S
C1411 N1413 1.384 . S
N1412 C1408 1.427 . S
N1412 C1409 1.384 1_556 S
N1413 C1405 1.427 . S
N1413 C1411 1.384 . S
H1414 C1420 0.930 . S
H1415 C1424 0.930 . S
H1416 C1429 0.929 . S
H1417 C1427 0.929 . S
H1418 C1422 0.929 . S
H1419 C1428 0.929 1_565 S
C1420 H1414 0.930 . S
C1420 C1421 1.361 1_565 S
C1420 C1428 1.378 1_565 S
C1421 C1420 1.361 1_545 S
C1421 C1429 1.448 . S
C1422 H1418 0.929 . S
C1422 C1424 1.378 . S
C1422 C1426 1.350 . S
C1423 C1426 1.463 . S
C1423 C1428 1.350 . S
C1423 N1431 1.427 . S
C1424 H1415 0.930 . S
C1424 C1422 1.378 . S
C1424 C1425 1.367 . S
C1425 C1424 1.367 . S
C1425 C1427 1.433 . S
C1426 C1422 1.350 . S
C1426 C1423 1.463 . S
C1426 N1430 1.427 . S
C1427 H1417 0.929 . S
C1427 C1425 1.433 . S
C1427 N1430 1.384 . S
C1428 H1419 0.929 1_545 S
C1428 C1420 1.378 1_545 S
C1428 C1423 1.350 . S
C1429 H1416 0.929 . S
C1429 C1421 1.448 . S
C1429 N1431 1.384 . S
N1430 C1426 1.427 . S
N1430 C1427 1.384 . S
N1431 C1423 1.427 . S
N1431 C1429 1.384 . S
H1432 C1438 0.930 . S
H1433 C1442 0.930 . S
H1434 C1447 0.929 . S
H1435 C1445 0.929 . S
H1436 C1440 0.929 . S
H1437 C1446 0.929 . S
C1438 H1432 0.930 . S
C1438 C1439 1.367 . S
C1438 C1446 1.378 . S
C1439 C1438 1.367 . S
C1439 C1447 1.433 . S
C1440 H1436 0.929 . S
C1440 C1442 1.378 . S
C1440 C1444 1.350 . S
C1441 C1444 1.463 . S
C1441 C1446 1.350 . S
C1441 N1449 1.427 . S
C1442 H1433 0.930 . S
C1442 C1440 1.378 . S
C1442 C1443 1.367 . S
C1443 C1442 1.367 . S
C1443 C1445 1.433 . S
C1444 C1440 1.350 . S
C1444 C1441 1.463 . S
C1444 N1448 1.427 . S
C1445 H1435 0.929 . S
C1445 C1443 1.433 . S
C1445 N1448 1.384 . S
C1446 H1437 0.929 . S
C1446 C1438 1.378 . S
C1446 C1441 1.350 . S
C1447 H1434 0.929 . S
C1447 C1439 1.433 . S
C1447 N1449 1.384 . S
N1448 C1444 1.427 . S
N1448 C1445 1.384 . S
N1449 C1441 1.427 . S
N1449 C1447 1.384 . S
H1450 C1456 0.930 . S
H1451 C1460 0.930 . S
H1452 C1465 0.929 . S
H1453 C1463 0.929 . S
H1454 C1458 0.929 . S
H1455 C1464 0.929 . S
C1456 H1450 0.930 . S
C1456 C1457 1.367 . S
C1456 C1464 1.378 . S
C1457 C1456 1.367 . S
C1457 C1465 1.433 . S
C1458 H1454 0.929 . S
C1458 C1460 1.378 1_545 S
C1458 C1462 1.350 . S
C1459 C1462 1.463 . S
C1459 C1464 1.350 . S
C1459 N1467 1.427 . S
C1460 H1451 0.930 . S
C1460 C1458 1.378 1_565 S
C1460 C1461 1.361 1_565 S
C1461 C1460 1.361 1_545 S
C1461 C1463 1.449 . S
C1462 C1458 1.350 . S
C1462 C1459 1.463 . S
C1462 N1466 1.427 . S
C1463 H1453 0.929 . S
C1463 C1461 1.449 . S
C1463 N1466 1.384 . S
C1464 H1455 0.929 . S
C1464 C1456 1.378 . S
C1464 C1459 1.350 . S
C1465 H1452 0.929 . S
C1465 C1457 1.433 . S
C1465 N1467 1.384 . S
N1466 C1462 1.427 . S
N1466 C1463 1.384 . S
N1467 C1459 1.427 . S
N1467 C1465 1.384 . S
H1468 C1474 0.930 . S
H1469 C1478 0.930 . S
H1470 C1483 0.929 . S
H1471 C1481 0.929 . S
H1472 C1476 0.929 . S
H1473 C1482 0.929 . S
C1474 H1468 0.930 . S
C1474 C1475 1.367 . S
C1474 C1482 1.378 . S
C1475 C1474 1.367 . S
C1475 C1483 1.433 . S
C1476 H1472 0.929 . S
C1476 C1478 1.378 . S
C1476 C1480 1.350 . S
C1477 C1480 1.463 . S
C1477 C1482 1.350 . S
C1477 N1485 1.427 . S
C1478 H1469 0.930 . S
C1478 C1476 1.378 . S
C1478 C1479 1.367 1_554 S
C1479 C1478 1.367 1_556 S
C1479 C1481 1.433 . S
C1480 C1476 1.350 . S
C1480 C1477 1.463 . S
C1480 N1484 1.427 . S
C1481 H1471 0.929 . S
C1481 C1479 1.433 . S
C1481 N1484 1.384 1_556 S
C1482 H1473 0.929 . S
C1482 C1474 1.378 . S
C1482 C1477 1.350 . S
C1483 H1470 0.929 . S
C1483 C1475 1.433 . S
C1483 N1485 1.384 . S
N1484 C1480 1.427 . S
N1484 C1481 1.384 1_554 S
N1485 C1477 1.427 . S
N1485 C1483 1.384 . S
H1486 C1492 0.930 . S
H1487 C1496 0.930 . S
H1488 C1501 0.929 . S
H1489 C1499 0.929 . S
H1490 C1494 0.929 . S
H1491 C1500 0.929 . S
C1492 H1486 0.930 . S
C1492 C1493 1.367 . S
C1492 C1500 1.378 . S
C1493 C1492 1.367 . S
C1493 C1501 1.433 . S
C1494 H1490 0.929 . S
C1494 C1496 1.378 1_565 S
C1494 C1498 1.350 . S
C1495 C1498 1.463 . S
C1495 C1500 1.350 . S
C1495 N1503 1.427 . S
C1496 H1487 0.930 . S
C1496 C1494 1.378 1_545 S
C1496 C1497 1.362 1_545 S
C1497 C1496 1.362 1_565 S
C1497 C1499 1.450 . S
C1498 C1494 1.350 . S
C1498 C1495 1.463 . S
C1498 N1502 1.427 . S
C1499 H1489 0.929 . S
C1499 C1497 1.450 . S
C1499 N1502 1.384 . S
C1500 H1491 0.929 . S
C1500 C1492 1.378 . S
C1500 C1495 1.350 . S
C1501 H1488 0.929 . S
C1501 C1493 1.433 . S
C1501 N1503 1.384 . S
N1502 C1498 1.427 . S
N1502 C1499 1.384 . S
N1503 C1495 1.427 . S
N1503 C1501 1.384 . S
C647 C10 2.711 . S
C651 C410 2.708 . S
C665 C50 2.714 . S
C669 C450 2.715 . S
C683 C90 2.714 . S
C687 C330 2.711 . S
C701 C370 2.710 . S
C705 C130 2.714 . S
C719 C179 2.712 . S
C723 C579 2.715 . S
C737 C619 2.708 . S
C741 C219 2.710 . S
C755 C499 2.708 . S
C759 C259 2.709 . S
C773 C299 2.715 . S
C777 C539 2.714 . S
C791 C16 0.901 1_565 S
C795 C167 0.901 1_545 S
C809 C56 0.908 . S
C813 C527 0.908 . S
C827 C96 0.929 1_545 S
C831 C247 0.929 1_565 S
C845 C136 0.915 . S
C849 C607 0.915 . S
C863 C207 0.903 . S
C867 C376 0.903 . S
C881 C456 0.918 . S
C885 C287 0.918 . S
C899 C487 0.899 . S
C903 C336 0.899 . S
C917 C416 0.902 . S
C921 C567 0.902 . S
C935 C7 1.065 . S
C939 C290 1.154 . S
C953 C47 1.076 . S
C957 C490 1.151 . S
C971 C87 1.070 . S
C975 C210 1.155 . S
C989 C127 1.045 . S
C993 C570 1.140 . S
C1007 C139 1.138 . S
C1011 C176 1.050 . S
C1025 C216 1.077 . S
C1029 C339 1.152 . S
C1043 C256 1.048 . S
C1047 C59 1.138 . S
C1061 C419 1.152 . S
C1065 C296 1.062 . S
C1079 C327 1.061 . S
C1083 C610 1.152 1_565 S
C1097 C170 1.154 . S
C1101 C367 1.066 . S
C1115 C530 1.140 1_545 S
C1119 C407 1.045 . S
C1133 C250 1.142 . S
C1137 C447 1.046 . S
C1151 C496 1.062 . S
C1155 C459 1.153 1_545 S
C1169 C536 1.070 . S
C1173 C19 1.155 . S
C1187 C379 1.138 1_565 S
C1191 C576 1.047 . S
C1205 C616 1.055 . S
C1209 C99 1.150 . S
C1223 C11 4.085 . S
C1227 C362 4.094 . S
C1241 C402 4.098 . S
C1245 C51 4.088 . S
C1259 C91 4.083 . S
C1263 C442 4.093 . S
C1277 C322 4.096 . S
C1281 C131 4.087 . S
C1295 C531 4.091 . S
C1299 C162 4.081 . S
C1313 C571 4.097 . S
C1317 C202 4.087 . S
C1331 C611 4.092 . S
C1335 C242 4.082 . S
C1349 C491 4.096 . S
C1353 C282 4.086 . S
C1367 C42 4.097 . S
C1371 C331 4.087 . S
C1385 C82 4.098 . S
C1389 C371 4.081 1_565 S
C1403 C122 4.098 . S
C1407 C411 4.088 . S
C1421 C451 4.081 1_545 S
C1425 C2 4.097 . S
C1439 C211 4.092 . S
C1443 C482 4.081 . S
C1457 C251 4.096 . S
C1461 C522 4.078 1_545 S
C1475 C291 4.098 . S
C1479 C562 4.087 . S
C1493 C171 4.095 . S
C1497 C602 4.076 1_565 S
