# Generated by pormake.
# Topology ukk, (4)-cn, num edge types: 1
# Building blocks:
#     Node 0, Type 0, BuildingBlock: NAWXER_clean_sbu_0, # of connection points: 4
#     Node 1, Type 0, BuildingBlock: NAWXER_clean_sbu_0, # of connection points: 4
#     Node 2, Type 0, BuildingBlock: NAWXER_clean_sbu_0, # of connection points: 4
#     Node 3, Type 0, BuildingBlock: NAWXER_clean_sbu_0, # of connection points: 4
#     Node 4, Type 0, BuildingBlock: NAWXER_clean_sbu_0, # of connection points: 4
#     Node 5, Type 0, BuildingBlock: NAWXER_clean_sbu_0, # of connection points: 4
#     Node 6, Type 0, BuildingBlock: NAWXER_clean_sbu_0, # of connection points: 4
#     Node 7, Type 0, BuildingBlock: NAWXER_clean_sbu_0, # of connection points: 4
#     Node 8, Type 0, BuildingBlock: NAWXER_clean_sbu_0, # of connection points: 4
#     Node 9, Type 0, BuildingBlock: NAWXER_clean_sbu_0, # of connection points: 4
#     Node 10, Type 0, BuildingBlock: NAWXER_clean_sbu_0, # of connection points: 4
#     Node 11, Type 0, BuildingBlock: NAWXER_clean_sbu_0, # of connection points: 4
#     Node 12, Type 0, BuildingBlock: NAWXER_clean_sbu_0, # of connection points: 4
#     Node 13, Type 0, BuildingBlock: NAWXER_clean_sbu_0, # of connection points: 4
#     Node 14, Type 0, BuildingBlock: NAWXER_clean_sbu_0, # of connection points: 4
#     Node 15, Type 0, BuildingBlock: NAWXER_clean_sbu_0, # of connection points: 4
#     Edge 16, Type (0, 0), BuildingBlock: OJICUG_clean_linker_0, # of connection points: 2
#     Edge 17, Type (0, 0), BuildingBlock: OJICUG_clean_linker_0, # of connection points: 2
#     Edge 18, Type (0, 0), BuildingBlock: OJICUG_clean_linker_0, # of connection points: 2
#     Edge 19, Type (0, 0), BuildingBlock: OJICUG_clean_linker_0, # of connection points: 2
#     Edge 20, Type (0, 0), BuildingBlock: OJICUG_clean_linker_0, # of connection points: 2
#     Edge 21, Type (0, 0), BuildingBlock: OJICUG_clean_linker_0, # of connection points: 2
#     Edge 22, Type (0, 0), BuildingBlock: OJICUG_clean_linker_0, # of connection points: 2
#     Edge 23, Type (0, 0), BuildingBlock: OJICUG_clean_linker_0, # of connection points: 2
#     Edge 24, Type (0, 0), BuildingBlock: OJICUG_clean_linker_0, # of connection points: 2
#     Edge 25, Type (0, 0), BuildingBlock: OJICUG_clean_linker_0, # of connection points: 2
#     Edge 26, Type (0, 0), BuildingBlock: OJICUG_clean_linker_0, # of connection points: 2
#     Edge 27, Type (0, 0), BuildingBlock: OJICUG_clean_linker_0, # of connection points: 2
#     Edge 28, Type (0, 0), BuildingBlock: OJICUG_clean_linker_0, # of connection points: 2
#     Edge 29, Type (0, 0), BuildingBlock: OJICUG_clean_linker_0, # of connection points: 2
#     Edge 30, Type (0, 0), BuildingBlock: OJICUG_clean_linker_0, # of connection points: 2
#     Edge 31, Type (0, 0), BuildingBlock: OJICUG_clean_linker_0, # of connection points: 2
#     Edge 32, Type (0, 0), BuildingBlock: OJICUG_clean_linker_0, # of connection points: 2
#     Edge 33, Type (0, 0), BuildingBlock: OJICUG_clean_linker_0, # of connection points: 2
#     Edge 34, Type (0, 0), BuildingBlock: OJICUG_clean_linker_0, # of connection points: 2
#     Edge 35, Type (0, 0), BuildingBlock: OJICUG_clean_linker_0, # of connection points: 2
#     Edge 36, Type (0, 0), BuildingBlock: OJICUG_clean_linker_0, # of connection points: 2
#     Edge 37, Type (0, 0), BuildingBlock: OJICUG_clean_linker_0, # of connection points: 2
#     Edge 38, Type (0, 0), BuildingBlock: OJICUG_clean_linker_0, # of connection points: 2
#     Edge 39, Type (0, 0), BuildingBlock: OJICUG_clean_linker_0, # of connection points: 2
#     Edge 40, Type (0, 0), BuildingBlock: OJICUG_clean_linker_0, # of connection points: 2
#     Edge 41, Type (0, 0), BuildingBlock: OJICUG_clean_linker_0, # of connection points: 2
#     Edge 42, Type (0, 0), BuildingBlock: OJICUG_clean_linker_0, # of connection points: 2
#     Edge 43, Type (0, 0), BuildingBlock: OJICUG_clean_linker_0, # of connection points: 2
#     Edge 44, Type (0, 0), BuildingBlock: OJICUG_clean_linker_0, # of connection points: 2
#     Edge 45, Type (0, 0), BuildingBlock: OJICUG_clean_linker_0, # of connection points: 2
#     Edge 46, Type (0, 0), BuildingBlock: OJICUG_clean_linker_0, # of connection points: 2
#     Edge 47, Type (0, 0), BuildingBlock: OJICUG_clean_linker_0, # of connection points: 2
# Relax obj value: 0.021
# Max RMSD: 0.113
# Mean RMSD: 0.113
data_MOF--net-ukk--node1-NAWXER_clean_sbu_0--edge1-OJICUG_clean_linker_0
_symmetry_space_group_name_H-M    P1
_symmetry_Int_Tables_number       1
_symmetry_cell_setting            triclinic
loop_
_symmetry_equiv_pos_as_xyz
'x, y, z'
_cell_length_a     41.672238
_cell_length_b     41.671692
_cell_length_c     8.9006901
_cell_angle_alpha  89.992665
_cell_angle_beta   90.003694
_cell_angle_gamma 90.00556
loop_
_atom_site_label
_atom_site_type_symbol
_atom_site_fract_x
_atom_site_fract_y
_atom_site_fract_z
_atom_type_partial_charge
C0 C 0.36647 0.18954 0.16986 0.0
C1 C 0.37609 0.07491 0.28922 0.0
O2 O 0.37349 0.17188 0.05695 0.0
Zn3 Zn 0.38231 0.12293 0.0063 0.0
O4 O 0.36304 0.17677 0.29892 0.0
Zn5 Zn 0.37094 0.13249 0.23991 0.0
O6 O 0.42032 0.13379 0.18285 0.0
O7 O 0.42743 0.12375 0.9418 0.0
O8 O 0.36976 0.09691 0.38405 0.0
O9 O 0.3809 0.08231 0.15125 0.0
O10 O 0.34736 0.11358 0.86872 0.0
O11 O 0.33067 0.12248 0.1005 0.0
C12 C 0.43915 0.13028 0.07034 0.0
C13 C 0.32448 0.11571 0.96318 0.0
C14 C 0.13043 0.57699 0.9281 0.0
C15 C 0.11567 0.69161 0.03619 0.0
O16 O 0.12391 0.58866 0.05675 0.0
Zn17 Zn 0.12297 0.6338 0.99257 0.0
O18 O 0.13387 0.59586 0.81569 0.0
Zn19 Zn 0.13245 0.64527 0.75901 0.0
O20 O 0.17668 0.65329 0.69973 0.0
O21 O 0.17189 0.64274 0.94165 0.0
O22 O 0.1224 0.68548 0.89877 0.0
O23 O 0.11359 0.66869 0.13048 0.0
O24 O 0.08231 0.63514 0.84787 0.0
O25 O 0.09682 0.64643 0.61512 0.0
C26 C 0.1895 0.64984 0.82867 0.0
C27 C 0.07486 0.63998 0.70998 0.0
C28 C 0.57689 0.88597 0.07066 0.0
C29 C 0.69156 0.90056 0.96346 0.0
O30 O 0.59572 0.88248 0.18318 0.0
Zn31 Zn 0.64511 0.8838 0.24024 0.0
O32 O 0.58861 0.89246 0.94206 0.0
Zn33 Zn 0.63373 0.89332 0.00656 0.0
O34 O 0.64258 0.84439 0.05743 0.0
O35 O 0.65303 0.83953 0.29942 0.0
O36 O 0.66868 0.90268 0.86899 0.0
O37 O 0.68537 0.89381 0.10081 0.0
O38 O 0.64627 0.91942 0.38419 0.0
O39 O 0.63509 0.93395 0.15134 0.0
C40 C 0.64962 0.82675 0.17039 0.0
C41 C 0.6399 0.94139 0.28926 0.0
C42 C 0.88603 0.43909 0.92726 0.0
C43 C 0.90059 0.32443 0.03486 0.0
O44 O 0.89249 0.42737 0.05591 0.0
Zn45 Zn 0.89337 0.38225 0.99147 0.0
O46 O 0.88258 0.42025 0.81473 0.0
Zn47 Zn 0.8839 0.37085 0.75783 0.0
O48 O 0.83965 0.36293 0.6984 0.0
O49 O 0.84444 0.3734 0.94039 0.0
O50 O 0.89388 0.33059 0.89744 0.0
O51 O 0.90269 0.34733 0.12922 0.0
O52 O 0.93404 0.3809 0.84689 0.0
O53 O 0.91955 0.36969 0.61403 0.0
C54 C 0.82683 0.36636 0.82733 0.0
C55 C 0.9415 0.37608 0.70899 0.0
C56 C 0.43939 0.38607 0.17475 0.0
C57 C 0.32481 0.40055 0.28479 0.0
O58 O 0.42046 0.38255 0.06261 0.0
Zn59 Zn 0.37098 0.3838 0.00686 0.0
O60 O 0.42777 0.39258 0.30353 0.0
Zn61 Zn 0.3826 0.39337 0.24011 0.0
O62 O 0.37372 0.34442 0.18975 0.0
O63 O 0.36301 0.33953 0.94803 0.0
O64 O 0.34781 0.4027 0.37865 0.0
O65 O 0.33085 0.3938 0.14729 0.0
O66 O 0.36961 0.41936 0.86265 0.0
O67 O 0.381 0.43399 0.09515 0.0
C68 C 0.36657 0.32676 0.07701 0.0
C69 C 0.37604 0.44137 0.95727 0.0
C70 C 0.38586 0.57698 0.8218 0.0
C71 C 0.40059 0.69157 0.71271 0.0
O72 O 0.39239 0.58862 0.69309 0.0
Zn73 Zn 0.3933 0.63377 0.75691 0.0
O74 O 0.3824 0.59588 0.93408 0.0
Zn75 Zn 0.3838 0.64532 0.9903 0.0
O76 O 0.33956 0.65335 0.04944 0.0
O77 O 0.34437 0.64271 0.80763 0.0
O78 O 0.39385 0.68549 0.85018 0.0
O79 O 0.40268 0.66861 0.61866 0.0
O80 O 0.43394 0.63518 0.90169 0.0
O81 O 0.4194 0.64654 0.1343 0.0
C82 C 0.32675 0.64985 0.92052 0.0
C83 C 0.44138 0.64006 0.03957 0.0
C84 C 0.69157 0.61568 0.28484 0.0
C85 C 0.57697 0.63014 0.17521 0.0
O86 O 0.68552 0.62247 0.14739 0.0
Zn87 Zn 0.64536 0.6325 0.00713 0.0
O88 O 0.66859 0.61351 0.37874 0.0
Zn89 Zn 0.63378 0.62287 0.24035 0.0
O90 O 0.63536 0.58229 0.09519 0.0
O91 O 0.64672 0.59698 0.86274 0.0
O92 O 0.58862 0.62362 0.30395 0.0
O93 O 0.59589 0.6337 0.06303 0.0
O94 O 0.65328 0.67679 0.94848 0.0
O95 O 0.64261 0.67184 0.19019 0.0
C96 C 0.6403 0.57494 0.95726 0.0
C97 C 0.64973 0.68953 0.0775 0.0
C98 C 0.63044 0.43937 0.82105 0.0
C99 C 0.6157 0.3248 0.71158 0.0
O100 O 0.62389 0.42776 0.69231 0.0
Zn101 Zn 0.623 0.38259 0.75592 0.0
O102 O 0.63392 0.42044 0.93324 0.0
Zn103 Zn 0.63254 0.37099 0.98925 0.0
O104 O 0.67679 0.36295 0.0482 0.0
O105 O 0.67195 0.37364 0.80644 0.0
O106 O 0.62246 0.33086 0.84904 0.0
O107 O 0.6136 0.34777 0.61757 0.0
O108 O 0.58238 0.38113 0.90084 0.0
O109 O 0.59697 0.36973 0.13337 0.0
C110 C 0.68958 0.36648 0.91926 0.0
C111 C 0.57497 0.37621 0.03873 0.0
C112 C 0.86649 0.68936 0.67335 0.0
C113 C 0.87604 0.57473 0.79275 0.0
O114 O 0.87358 0.67169 0.56058 0.0
Zn115 Zn 0.88242 0.62276 0.51002 0.0
O116 O 0.86297 0.6766 0.80238 0.0
Zn117 Zn 0.87089 0.63231 0.74345 0.0
O118 O 0.92034 0.63356 0.68724 0.0
O119 O 0.92757 0.62358 0.4462 0.0
O120 O 0.86958 0.5967 0.88752 0.0
O121 O 0.88095 0.58216 0.6549 0.0
O122 O 0.84758 0.61343 0.37184 0.0
O123 O 0.8307 0.62233 0.6033 0.0
C124 C 0.93923 0.63005 0.57493 0.0
C125 C 0.82461 0.61558 0.46584 0.0
C126 C 0.63001 0.07705 0.42356 0.0
C127 C 0.61554 0.19171 0.53158 0.0
O128 O 0.62348 0.08875 0.55214 0.0
Zn129 Zn 0.62271 0.13388 0.48798 0.0
O130 O 0.63358 0.09591 0.31116 0.0
Zn131 Zn 0.63236 0.14534 0.25451 0.0
O132 O 0.67667 0.15322 0.19592 0.0
O133 O 0.67166 0.14269 0.43776 0.0
O134 O 0.62234 0.18558 0.39423 0.0
O135 O 0.61334 0.16878 0.62577 0.0
O136 O 0.58217 0.13535 0.34279 0.0
O137 O 0.5968 0.1466 0.11014 0.0
C138 C 0.68937 0.14975 0.32509 0.0
C139 C 0.57479 0.14022 0.20485 0.0
C140 C 0.07714 0.38615 0.57461 0.0
C141 C 0.19178 0.4006 0.46584 0.0
O142 O 0.09602 0.38259 0.68694 0.0
Zn143 Zn 0.14547 0.38381 0.74326 0.0
O144 O 0.08882 0.3927 0.446 0.0
Zn145 Zn 0.13397 0.39346 0.50992 0.0
O146 O 0.14275 0.34449 0.56015 0.0
O147 O 0.15336 0.3395 0.80193 0.0
O148 O 0.16882 0.40281 0.37183 0.0
O149 O 0.18569 0.39381 0.60325 0.0
O150 O 0.14679 0.41936 0.88762 0.0
O151 O 0.1355 0.43402 0.65506 0.0
C152 C 0.14983 0.32679 0.67283 0.0
C153 C 0.14041 0.44138 0.79299 0.0
C154 C 0.38597 0.93928 0.42399 0.0
C155 C 0.40059 0.82465 0.53251 0.0
O156 O 0.39257 0.92761 0.55258 0.0
Zn157 Zn 0.39336 0.88246 0.48865 0.0
O158 O 0.38241 0.9204 0.31169 0.0
Zn159 Zn 0.38369 0.87096 0.25525 0.0
O160 O 0.33938 0.86301 0.19682 0.0
O161 O 0.34441 0.8736 0.43859 0.0
O162 O 0.39377 0.83076 0.39515 0.0
O163 O 0.40278 0.84759 0.6266 0.0
O164 O 0.43388 0.881 0.34338 0.0
O165 O 0.41924 0.86971 0.11081 0.0
C166 C 0.32669 0.86651 0.326 0.0
C167 C 0.44126 0.87612 0.20545 0.0
C168 C 0.82476 0.90047 0.78548 0.0
C169 C 0.93941 0.88589 0.6776 0.0
O170 O 0.83091 0.89363 0.64821 0.0
Zn171 Zn 0.87113 0.88353 0.50864 0.0
O172 O 0.84766 0.90265 0.87981 0.0
Zn173 Zn 0.88257 0.89323 0.74207 0.0
O174 O 0.88108 0.93376 0.59661 0.0
O175 O 0.86987 0.91903 0.36405 0.0
O176 O 0.92772 0.89247 0.80617 0.0
O177 O 0.92053 0.8823 0.56529 0.0
O178 O 0.86319 0.83924 0.45028 0.0
O179 O 0.87372 0.84425 0.69212 0.0
C180 C 0.87621 0.94108 0.45859 0.0
C181 C 0.86665 0.82654 0.57946 0.0
C182 C 0.88581 0.07667 0.32257 0.0
C183 C 0.9005 0.19128 0.21387 0.0
O184 O 0.89242 0.08832 0.19394 0.0
Zn185 Zn 0.89321 0.13348 0.2577 0.0
O186 O 0.88223 0.09558 0.43476 0.0
Zn187 Zn 0.8835 0.14501 0.49106 0.0
O188 O 0.83919 0.153 0.5492 0.0
O189 O 0.84424 0.14238 0.30747 0.0
O190 O 0.89364 0.18517 0.35117 0.0
O191 O 0.90268 0.16835 0.11973 0.0
O192 O 0.9337 0.13496 0.40323 0.0
O193 O 0.919 0.14629 0.63567 0.0
C194 C 0.82652 0.14951 0.41999 0.0
C195 C 0.94104 0.13986 0.54119 0.0
C196 C 0.19128 0.1157 0.78512 0.0
C197 C 0.07664 0.13027 0.6771 0.0
O198 O 0.18513 0.12252 0.64781 0.0
Zn199 Zn 0.14492 0.1326 0.50816 0.0
O200 O 0.16838 0.11354 0.87945 0.0
Zn201 Zn 0.13347 0.12296 0.74168 0.0
O202 O 0.13491 0.08241 0.59644 0.0
O203 O 0.14617 0.09705 0.36382 0.0
O204 O 0.08832 0.12375 0.80576 0.0
O205 O 0.09552 0.13383 0.56478 0.0
O206 O 0.15287 0.17689 0.44962 0.0
O207 O 0.14235 0.17191 0.69147 0.0
C208 C 0.13977 0.07503 0.45849 0.0
C209 C 0.14943 0.18961 0.57877 0.0
C210 C 0.13014 0.93941 0.32315 0.0
C211 C 0.11562 0.82475 0.21507 0.0
O212 O 0.12358 0.92772 0.19455 0.0
Zn213 Zn 0.12284 0.88257 0.25859 0.0
O214 O 0.13374 0.92053 0.43546 0.0
Zn215 Zn 0.13256 0.87111 0.49201 0.0
O216 O 0.17688 0.8632 0.55025 0.0
O217 O 0.17181 0.87374 0.30844 0.0
O218 O 0.12247 0.8309 0.35235 0.0
O219 O 0.11341 0.84767 0.12082 0.0
O220 O 0.08234 0.88107 0.40408 0.0
O221 O 0.09705 0.86982 0.63662 0.0
C222 C 0.18955 0.86666 0.42101 0.0
C223 C 0.07501 0.87619 0.54207 0.0
C224 C 0.37994 0.98511 0.2485 0.0
C225 C 0.38293 0.9743 0.39733 0.0
H226 H 0.37529 0.02458 0.09948 0.0
C227 C 0.38292 0.99708 0.51426 0.0
H228 H 0.37982 0.96847 0.15499 0.0
C229 C 0.3801 0.03005 0.48158 0.0
C230 C 0.37762 0.04054 0.33159 0.0
H231 H 0.38508 0.98948 0.63017 0.0
H232 H 0.38036 0.04723 0.57284 0.0
C233 C 0.3774 0.01757 0.2163 0.0
C234 C 0.01753 0.63795 0.78307 0.0
C235 C 0.04049 0.63831 0.66768 0.0
H236 H 0.96845 0.63508 0.84433 0.0
C237 C 0.02998 0.63633 0.51756 0.0
H238 H 0.02455 0.63963 0.90003 0.0
C239 C 0.99702 0.63351 0.48477 0.0
C240 C 0.97425 0.63298 0.60175 0.0
H241 H 0.04714 0.63653 0.4262 0.0
H242 H 0.9894 0.63179 0.36872 0.0
C243 C 0.98508 0.6354 0.75077 0.0
C244 C 0.63815 0.99871 0.21599 0.0
C245 C 0.63828 0.97577 0.33146 0.0
H246 H 0.63545 0.04779 0.15447 0.0
C247 C 0.63611 0.9863 0.48149 0.0
H248 H 0.63999 0.99168 0.09911 0.0
C249 C 0.63329 0.01927 0.51407 0.0
C250 C 0.63297 0.04202 0.397 0.0
H251 H 0.63613 0.96914 0.57289 0.0
H252 H 0.63141 0.0269 0.63004 0.0
C253 C 0.6356 0.03118 0.2481 0.0
C254 C 0.03129 0.38046 0.75015 0.0
C255 C 0.04212 0.38315 0.60125 0.0
H256 H 0.99179 0.37599 0.89914 0.0
C257 C 0.01937 0.38283 0.48419 0.0
H258 H 0.04791 0.38061 0.84375 0.0
C259 C 0.9864 0.37996 0.51679 0.0
C260 C 0.97588 0.37774 0.66682 0.0
H261 H 0.02699 0.38475 0.36823 0.0
H262 H 0.96924 0.37995 0.4254 0.0
C263 C 0.99882 0.37787 0.78227 0.0
C264 C 0.37987 0.4862 0.76466 0.0
C265 C 0.37752 0.47573 0.91474 0.0
H266 H 0.38473 0.52674 0.61582 0.0
C267 C 0.37741 0.49873 0.02994 0.0
H268 H 0.38004 0.469 0.67346 0.0
C269 C 0.37993 0.53118 0.99756 0.0
C270 C 0.3828 0.54197 0.84863 0.0
H271 H 0.3754 0.49173 0.14683 0.0
H272 H 0.37991 0.54784 0.09101 0.0
C273 C 0.38267 0.51916 0.7318 0.0
C274 C 0.49872 0.63804 0.96673 0.0
C275 C 0.47574 0.6384 0.08202 0.0
H276 H 0.54781 0.63517 0.90569 0.0
C277 C 0.48622 0.63642 0.23219 0.0
H278 H 0.49172 0.63973 0.84974 0.0
C279 C 0.51917 0.63358 0.26512 0.0
C280 C 0.54196 0.63306 0.14824 0.0
H281 H 0.46904 0.63661 0.32347 0.0
H282 H 0.52677 0.63186 0.3812 0.0
C283 C 0.53117 0.63549 0.99917 0.0
C284 C 0.63633 0.48512 0.99707 0.0
C285 C 0.63349 0.47438 0.84807 0.0
H286 H 0.64085 0.52452 0.14656 0.0
C287 C 0.63365 0.49722 0.73135 0.0
H288 H 0.63632 0.46844 0.09044 0.0
C289 C 0.63647 0.53017 0.7644 0.0
C290 C 0.63879 0.54059 0.91454 0.0
H291 H 0.63161 0.48967 0.61532 0.0
H292 H 0.63633 0.5474 0.67328 0.0
C293 C 0.63886 0.51756 0.02963 0.0
C294 C 0.48517 0.38058 0.99862 0.0
C295 C 0.4744 0.38312 0.14768 0.0
H296 H 0.52459 0.37626 0.84911 0.0
C297 C 0.49721 0.38272 0.26448 0.0
H298 H 0.4685 0.3808 0.9052 0.0
C299 C 0.53017 0.3799 0.23146 0.0
C300 C 0.54062 0.37782 0.08129 0.0
H301 H 0.48965 0.38453 0.38056 0.0
H302 H 0.54737 0.37981 0.32267 0.0
C303 C 0.51761 0.37804 0.96609 0.0
C304 C 0.88067 0.48497 0.75173 0.0
C305 C 0.88306 0.47411 0.90071 0.0
H306 H 0.87643 0.52445 0.60262 0.0
C307 C 0.88248 0.49685 0.01781 0.0
H308 H 0.88104 0.46837 0.65808 0.0
C309 C 0.87963 0.52982 0.98515 0.0
C310 C 0.87768 0.54036 0.83504 0.0
H311 H 0.88417 0.48921 0.13383 0.0
H312 H 0.8794 0.54696 0.07657 0.0
C313 C 0.87809 0.51742 0.71957 0.0
C314 C 0.52991 0.13639 0.01241 0.0
C315 C 0.54042 0.13865 0.16244 0.0
H316 H 0.48931 0.13159 0.86382 0.0
C317 C 0.51747 0.13861 0.27783 0.0
H318 H 0.54708 0.13634 0.92106 0.0
C319 C 0.48501 0.13605 0.24569 0.0
C320 C 0.47418 0.1333 0.09682 0.0
H321 H 0.52449 0.14053 0.39471 0.0
H322 H 0.4684 0.13595 0.33931 0.0
C323 C 0.49694 0.13356 0.97977 0.0
C324 C 0.13638 0.53118 0.75254 0.0
C325 C 0.13352 0.54197 0.90144 0.0
H326 H 0.14095 0.49174 0.60338 0.0
C327 C 0.13369 0.51918 0.01835 0.0
H328 H 0.13637 0.54782 0.65903 0.0
C329 C 0.13653 0.48622 0.98558 0.0
C330 C 0.13888 0.47574 0.83552 0.0
H331 H 0.13164 0.52677 0.13431 0.0
H332 H 0.1364 0.46902 0.07682 0.0
C333 C 0.13895 0.49873 0.72025 0.0
C334 C 0.49858 0.87782 0.27835 0.0
C335 C 0.47562 0.87768 0.16298 0.0
H336 H 0.54765 0.88052 0.33974 0.0
C337 C 0.48612 0.87983 0.0129 0.0
H338 H 0.49157 0.87599 0.39527 0.0
C339 C 0.5191 0.88264 0.98019 0.0
C340 C 0.54186 0.88298 0.09721 0.0
H341 H 0.46895 0.8798 0.92156 0.0
H342 H 0.52671 0.88451 0.8642 0.0
C343 C 0.53103 0.88036 0.24614 0.0
C344 C 0.87745 0.99845 0.53095 0.0
C345 C 0.87767 0.97543 0.41586 0.0
H346 H 0.8798 0.04758 0.59182 0.0
C347 C 0.88008 0.98587 0.26576 0.0
H348 H 0.8754 0.99149 0.64785 0.0
C349 C 0.88282 0.01883 0.23277 0.0
C350 C 0.88283 0.04166 0.3495 0.0
H351 H 0.88033 0.96865 0.17465 0.0
H352 H 0.88493 0.02639 0.11677 0.0
C353 C 0.87991 0.0309 0.49844 0.0
C354 C 0.99839 0.13812 0.46868 0.0
C355 C 0.97539 0.13832 0.58388 0.0
H356 H 0.04749 0.13544 0.4077 0.0
C357 C 0.98586 0.1363 0.73408 0.0
H358 H 0.99141 0.13985 0.35168 0.0
C359 C 0.01882 0.13356 0.76707 0.0
C360 C 0.04162 0.13316 0.65023 0.0
H361 H 0.96866 0.13638 0.82529 0.0
H362 H 0.02641 0.13178 0.88315 0.0
C363 C 0.03084 0.13565 0.50117 0.0
C364 C 0.13558 0.98523 0.49892 0.0
C365 C 0.13303 0.97443 0.34992 0.0
H366 H 0.13984 0.02468 0.64823 0.0
C367 C 0.13338 0.99722 0.233 0.0
H368 H 0.1354 0.96859 0.59245 0.0
C369 C 0.13613 0.03019 0.26585 0.0
C370 C 0.13822 0.04067 0.41598 0.0
H371 H 0.13156 0.98962 0.11697 0.0
H372 H 0.13617 0.04737 0.17457 0.0
C373 C 0.13806 0.01769 0.53128 0.0
C374 C 0.99723 0.88276 0.7677 0.0
C375 C 0.97442 0.88292 0.65085 0.0
H376 H 0.0474 0.8801 0.82603 0.0
C377 C 0.98521 0.88015 0.5019 0.0
H378 H 0.98965 0.88475 0.8837 0.0
C379 C 0.01765 0.87764 0.46951 0.0
C380 C 0.04065 0.8777 0.58472 0.0
H381 H 0.96855 0.88016 0.40843 0.0
H382 H 0.02463 0.8757 0.3526 0.0
C383 C 0.03019 0.87998 0.73482 0.0
C384 C 0.36294 0.27057 0.97712 0.0
C385 C 0.36371 0.29168 0.0997 0.0
H386 H 0.36317 0.22177 0.90343 0.0
C387 C 0.3633 0.2789 0.24635 0.0
H388 H 0.36318 0.27961 0.86302 0.0
C389 C 0.36314 0.24573 0.26988 0.0
C390 C 0.36365 0.22462 0.14727 0.0
H391 H 0.36363 0.29453 0.34356 0.0
H392 H 0.36353 0.23668 0.38397 0.0
C393 C 0.36304 0.2374 0.00065 0.0
C394 C 0.23742 0.6533 0.99755 0.0
C395 C 0.22459 0.65272 0.85102 0.0
H396 H 0.27967 0.65315 0.13487 0.0
C397 C 0.24566 0.65331 0.72826 0.0
H398 H 0.22181 0.65311 0.09488 0.0
C399 C 0.27884 0.65317 0.75155 0.0
C400 C 0.29166 0.65272 0.8981 0.0
H401 H 0.23658 0.65294 0.61424 0.0
H402 H 0.29444 0.65289 0.65422 0.0
C403 C 0.27059 0.65342 0.02084 0.0
C404 C 0.65299 0.77055 0.27045 0.0
C405 C 0.65248 0.79167 0.14785 0.0
H406 H 0.65255 0.72174 0.3441 0.0
C407 C 0.65315 0.7789 0.00122 0.0
H408 H 0.65255 0.77959 0.38454 0.0
C409 C 0.6533 0.74573 0.97768 0.0
C410 C 0.65253 0.72461 0.10025 0.0
H411 H 0.65302 0.79454 0.90401 0.0
H412 H 0.65311 0.7367 0.86358 0.0
C413 C 0.65289 0.73738 0.2469 0.0
C414 C 0.73748 0.36322 0.75019 0.0
C415 C 0.72467 0.3636 0.89675 0.0
H416 H 0.77974 0.36348 0.61286 0.0
C417 C 0.74574 0.36279 0.01947 0.0
H418 H 0.72188 0.36359 0.65288 0.0
C419 C 0.77892 0.36288 0.99616 0.0
C420 C 0.79174 0.36353 0.84963 0.0
H421 H 0.73667 0.363 0.13351 0.0
H422 H 0.79452 0.36299 0.09349 0.0
C423 C 0.77066 0.36305 0.72688 0.0
C424 C 0.86313 0.73716 0.50383 0.0
C425 C 0.86367 0.72443 0.65056 0.0
H426 H 0.86334 0.77932 0.36587 0.0
C427 C 0.86311 0.74558 0.77301 0.0
H428 H 0.8633 0.7215 0.40673 0.0
C429 C 0.86329 0.77874 0.74921 0.0
C430 C 0.86377 0.79147 0.60246 0.0
H431 H 0.86346 0.73657 0.88716 0.0
H432 H 0.86358 0.79441 0.84629 0.0
C433 C 0.86305 0.77032 0.48004 0.0
C434 C 0.77879 0.15286 0.24991 0.0
C435 C 0.79146 0.15241 0.39675 0.0
H436 H 0.73667 0.15268 0.11164 0.0
C437 C 0.77027 0.15319 0.51901 0.0
H438 H 0.79449 0.15252 0.15293 0.0
C439 C 0.73712 0.15314 0.49497 0.0
C440 C 0.72444 0.15255 0.34815 0.0
H441 H 0.77923 0.15294 0.63325 0.0
H442 H 0.72142 0.15301 0.59195 0.0
C443 C 0.74564 0.15306 0.22585 0.0
C444 C 0.15305 0.27899 0.50317 0.0
C445 C 0.15258 0.29171 0.64992 0.0
H446 H 0.15272 0.23685 0.36515 0.0
C447 C 0.15315 0.27054 0.77233 0.0
H448 H 0.15287 0.29467 0.40609 0.0
C449 C 0.15291 0.23738 0.74849 0.0
C450 C 0.15236 0.22468 0.60173 0.0
H451 H 0.15286 0.27954 0.8865 0.0
H452 H 0.15263 0.22171 0.84556 0.0
C453 C 0.15307 0.24584 0.47933 0.0
C454 C 0.23727 0.86327 0.25094 0.0
C455 C 0.22461 0.86379 0.39779 0.0
H456 H 0.27938 0.86342 0.11264 0.0
C457 C 0.24581 0.86309 0.52005 0.0
H458 H 0.22156 0.86355 0.15398 0.0
C459 C 0.27896 0.86317 0.49597 0.0
C460 C 0.29162 0.86369 0.34913 0.0
H461 H 0.23685 0.8634 0.63428 0.0
H462 H 0.29466 0.86336 0.59294 0.0
C463 C 0.27042 0.8631 0.22687 0.0
C464 C 0.24969 0.11149 0.72232 0.0
C465 C 0.22521 0.11217 0.83159 0.0
H466 H 0.30022 0.11178 0.67766 0.0
C467 C 0.23375 0.11143 0.98394 0.0
H468 H 0.24393 0.11178 0.60364 0.0
C469 C 0.26607 0.11154 0.02609 0.0
C470 C 0.29054 0.11219 0.9168 0.0
H471 H 0.21553 0.11183 0.07073 0.0
H472 H 0.27182 0.11186 0.14476 0.0
C473 C 0.282 0.1114 0.76446 0.0
C474 C 0.11127 0.78233 0.01608 0.0
C475 C 0.1121 0.79083 0.16848 0.0
H476 H 0.11162 0.74432 0.85502 0.0
C477 C 0.11152 0.76632 0.27761 0.0
H478 H 0.11159 0.80058 0.9294 0.0
C479 C 0.11143 0.73402 0.23526 0.0
C480 C 0.11212 0.72553 0.08285 0.0
H481 H 0.11188 0.77203 0.39631 0.0
H482 H 0.11189 0.71577 0.32194 0.0
C483 C 0.11138 0.75003 0.97373 0.0
C484 C 0.74998 0.90471 0.02638 0.0
C485 C 0.7255 0.90406 0.91709 0.0
H486 H 0.80051 0.90438 0.07106 0.0
C487 C 0.73404 0.90482 0.76475 0.0
H488 H 0.74422 0.90441 0.14506 0.0
C489 C 0.76635 0.9047 0.72263 0.0
C490 C 0.79083 0.90402 0.83191 0.0
H491 H 0.71582 0.90445 0.67794 0.0
H492 H 0.77211 0.9044 0.60395 0.0
C493 C 0.78229 0.90479 0.98426 0.0
C494 C 0.90482 0.23369 0.01475 0.0
C495 C 0.90405 0.2252 0.16717 0.0
H496 H 0.90445 0.27171 0.85365 0.0
C497 C 0.90472 0.24971 0.27626 0.0
H498 H 0.90443 0.21544 0.9281 0.0
C499 C 0.90484 0.28201 0.23388 0.0
C500 C 0.90409 0.2905 0.08147 0.0
H501 H 0.90442 0.24399 0.39498 0.0
H502 H 0.90447 0.30025 0.32055 0.0
C503 C 0.90474 0.26599 0.97237 0.0
C504 C 0.25027 0.40463 0.52749 0.0
C505 C 0.22568 0.40407 0.41876 0.0
H506 H 0.30086 0.40426 0.57098 0.0
C507 C 0.23407 0.40492 0.26622 0.0
H508 H 0.24464 0.40425 0.64628 0.0
C509 C 0.26634 0.40481 0.22334 0.0
C510 C 0.29093 0.40406 0.33204 0.0
H511 H 0.21576 0.40461 0.17983 0.0
H512 H 0.27197 0.40458 0.10454 0.0
C513 C 0.28254 0.40472 0.4846 0.0
C514 C 0.40496 0.78231 0.73187 0.0
C515 C 0.40411 0.79074 0.57939 0.0
H516 H 0.40464 0.74435 0.89332 0.0
C517 C 0.40467 0.76619 0.47051 0.0
H518 H 0.40465 0.80059 0.81838 0.0
C519 C 0.40478 0.7339 0.51318 0.0
C520 C 0.40411 0.72547 0.66569 0.0
H521 H 0.4043 0.77186 0.35175 0.0
H522 H 0.40432 0.71562 0.42669 0.0
C523 C 0.40487 0.75002 0.77455 0.0
C524 C 0.75005 0.61149 0.22331 0.0
C525 C 0.72546 0.61217 0.33202 0.0
H526 H 0.80062 0.61172 0.17978 0.0
C527 C 0.73385 0.61142 0.48457 0.0
H528 H 0.74441 0.61179 0.1045 0.0
C529 C 0.76613 0.61149 0.52744 0.0
C530 C 0.79071 0.61212 0.41872 0.0
H531 H 0.71555 0.61182 0.57096 0.0
H532 H 0.77176 0.6118 0.64624 0.0
C533 C 0.78232 0.61136 0.26617 0.0
C534 C 0.61156 0.25018 0.46944 0.0
C535 C 0.61207 0.22563 0.57837 0.0
H536 H 0.61198 0.30075 0.42555 0.0
C537 C 0.61121 0.23407 0.73083 0.0
H538 H 0.61194 0.24451 0.35069 0.0
C539 C 0.61135 0.26635 0.77345 0.0
C540 C 0.61214 0.2909 0.66456 0.0
H541 H 0.61149 0.21579 0.81737 0.0
H542 H 0.61156 0.27202 0.89222 0.0
C543 C 0.61149 0.28247 0.51207 0.0
loop_
_geom_bond_atom_site_label_1
_geom_bond_atom_site_label_2
_geom_bond_distance
_geom_bond_site_symmetry_2
_ccdc_geom_bond_type
C0 O2 1.247 . S
C0 O4 1.258 . S
C1 O8 1.247 . S
C1 O9 1.258 . S
O2 C0 1.247 . S
O2 Zn3 2.028 1_554 S
Zn3 O2 2.028 1_556 S
Zn3 O7 2.035 1_556 S
Zn3 O9 2.035 1_556 S
Zn3 O10 2.028 . S
O4 C0 1.258 . S
O4 Zn5 2.035 . S
Zn5 O4 2.035 . S
Zn5 O6 2.028 . S
Zn5 O8 2.028 . S
Zn5 O11 2.035 . S
O6 Zn5 2.028 . S
O6 C12 1.247 . S
O7 Zn3 2.035 1_554 S
O7 C12 1.258 . S
O8 C1 1.247 . S
O8 Zn5 2.028 . S
O9 C1 1.258 . S
O9 Zn3 2.035 1_554 S
O10 Zn3 2.028 . S
O10 C13 1.247 1_556 S
O11 Zn5 2.035 . S
O11 C13 1.258 . S
C12 O6 1.247 . S
C12 O7 1.258 . S
C13 O10 1.247 1_554 S
C13 O11 1.258 . S
C14 O16 1.247 . S
C14 O18 1.258 . S
C15 O22 1.247 . S
C15 O23 1.258 1_556 S
O16 C14 1.247 . S
O16 Zn17 2.028 1_556 S
Zn17 O16 2.028 1_554 S
Zn17 O21 2.035 1_554 S
Zn17 O23 2.035 . S
Zn17 O24 2.028 1_554 S
O18 C14 1.258 . S
O18 Zn19 2.035 . S
Zn19 O18 2.035 . S
Zn19 O20 2.028 . S
Zn19 O22 2.028 . S
Zn19 O25 2.035 . S
O20 Zn19 2.028 . S
O20 C26 1.247 . S
O21 Zn17 2.035 1_556 S
O21 C26 1.258 . S
O22 C15 1.247 . S
O22 Zn19 2.028 . S
O23 C15 1.258 1_554 S
O23 Zn17 2.035 . S
O24 Zn17 2.028 1_556 S
O24 C27 1.247 . S
O25 Zn19 2.035 . S
O25 C27 1.258 . S
C26 O20 1.247 . S
C26 O21 1.258 . S
C27 O24 1.247 . S
C27 O25 1.258 . S
C28 O30 1.247 . S
C28 O32 1.258 . S
C29 O36 1.247 1_554 S
C29 O37 1.258 . S
O30 C28 1.247 . S
O30 Zn31 2.028 . S
Zn31 O30 2.028 . S
Zn31 O35 2.035 . S
Zn31 O37 2.035 . S
Zn31 O38 2.028 . S
O32 C28 1.258 . S
O32 Zn33 2.035 1_554 S
Zn33 O32 2.035 1_556 S
Zn33 O34 2.028 1_556 S
Zn33 O36 2.028 . S
Zn33 O39 2.035 1_556 S
O34 Zn33 2.028 1_554 S
O34 C40 1.247 . S
O35 Zn31 2.035 . S
O35 C40 1.258 . S
O36 C29 1.247 1_556 S
O36 Zn33 2.028 . S
O37 C29 1.258 . S
O37 Zn31 2.035 . S
O38 Zn31 2.028 . S
O38 C41 1.247 . S
O39 Zn33 2.035 1_554 S
O39 C41 1.258 . S
C40 O34 1.247 . S
C40 O35 1.258 . S
C41 O38 1.247 . S
C41 O39 1.258 . S
C42 O44 1.247 . S
C42 O46 1.258 . S
C43 O50 1.247 . S
C43 O51 1.258 1_556 S
O44 C42 1.247 . S
O44 Zn45 2.028 1_556 S
Zn45 O44 2.028 1_554 S
Zn45 O49 2.035 1_554 S
Zn45 O51 2.035 . S
Zn45 O52 2.028 1_554 S
O46 C42 1.258 . S
O46 Zn47 2.035 . S
Zn47 O46 2.035 . S
Zn47 O48 2.028 . S
Zn47 O50 2.028 . S
Zn47 O53 2.035 . S
O48 Zn47 2.028 . S
O48 C54 1.247 . S
O49 Zn45 2.035 1_556 S
O49 C54 1.258 . S
O50 C43 1.247 . S
O50 Zn47 2.028 . S
O51 C43 1.258 1_554 S
O51 Zn45 2.035 . S
O52 Zn45 2.028 1_556 S
O52 C55 1.247 . S
O53 Zn47 2.035 . S
O53 C55 1.258 . S
C54 O48 1.247 . S
C54 O49 1.258 . S
C55 O52 1.247 . S
C55 O53 1.258 . S
C56 O58 1.247 1_554 S
C56 O60 1.258 . S
C57 O64 1.247 . S
C57 O65 1.258 . S
O58 C56 1.247 1_556 S
O58 Zn59 2.028 . S
Zn59 O58 2.028 . S
Zn59 O63 2.035 1_556 S
Zn59 O65 2.035 1_556 S
Zn59 O66 2.028 . S
O60 C56 1.258 . S
O60 Zn61 2.035 . S
Zn61 O60 2.035 . S
Zn61 O62 2.028 . S
Zn61 O64 2.028 . S
Zn61 O67 2.035 . S
O62 Zn61 2.028 . S
O62 C68 1.247 . S
O63 Zn59 2.035 1_554 S
O63 C68 1.258 . S
O64 C57 1.247 . S
O64 Zn61 2.028 . S
O65 C57 1.258 . S
O65 Zn59 2.035 1_554 S
O66 Zn59 2.028 . S
O66 C69 1.247 1_556 S
O67 Zn61 2.035 . S
O67 C69 1.258 . S
C68 O62 1.247 . S
C68 O63 1.258 . S
C69 O66 1.247 1_554 S
C69 O67 1.258 . S
C70 O72 1.247 . S
C70 O74 1.258 1_556 S
C71 O78 1.247 . S
C71 O79 1.258 . S
O72 C70 1.247 . S
O72 Zn73 2.028 . S
Zn73 O72 2.028 . S
Zn73 O77 2.035 . S
Zn73 O79 2.035 . S
Zn73 O80 2.028 . S
O74 C70 1.258 1_554 S
O74 Zn75 2.035 . S
Zn75 O74 2.035 . S
Zn75 O76 2.028 1_554 S
Zn75 O78 2.028 1_554 S
Zn75 O81 2.035 . S
O76 Zn75 2.028 1_556 S
O76 C82 1.247 . S
O77 Zn73 2.035 . S
O77 C82 1.258 . S
O78 C71 1.247 . S
O78 Zn75 2.028 1_556 S
O79 C71 1.258 . S
O79 Zn73 2.035 . S
O80 Zn73 2.028 . S
O80 C83 1.247 . S
O81 Zn75 2.035 . S
O81 C83 1.258 1_554 S
C82 O76 1.247 . S
C82 O77 1.258 . S
C83 O80 1.247 . S
C83 O81 1.258 1_556 S
C84 O86 1.247 . S
C84 O88 1.258 . S
C85 O92 1.247 . S
C85 O93 1.258 1_554 S
O86 C84 1.247 . S
O86 Zn87 2.028 1_554 S
Zn87 O86 2.028 1_556 S
Zn87 O91 2.035 . S
Zn87 O93 2.035 . S
Zn87 O94 2.028 1_556 S
O88 C84 1.258 . S
O88 Zn89 2.035 . S
Zn89 O88 2.035 . S
Zn89 O90 2.028 . S
Zn89 O92 2.028 . S
Zn89 O95 2.035 . S
O90 Zn89 2.028 . S
O90 C96 1.247 . S
O91 Zn87 2.035 . S
O91 C96 1.258 1_556 S
O92 C85 1.247 . S
O92 Zn89 2.028 . S
O93 C85 1.258 1_556 S
O93 Zn87 2.035 . S
O94 Zn87 2.028 1_554 S
O94 C97 1.247 . S
O95 Zn89 2.035 . S
O95 C97 1.258 . S
C96 O90 1.247 . S
C96 O91 1.258 1_554 S
C97 O94 1.247 . S
C97 O95 1.258 . S
C98 O100 1.247 . S
C98 O102 1.258 1_556 S
C99 O106 1.247 . S
C99 O107 1.258 . S
O100 C98 1.247 . S
O100 Zn101 2.028 . S
Zn101 O100 2.028 . S
Zn101 O105 2.035 . S
Zn101 O107 2.035 . S
Zn101 O108 2.028 . S
O102 C98 1.258 1_554 S
O102 Zn103 2.035 . S
Zn103 O102 2.035 . S
Zn103 O104 2.028 1_554 S
Zn103 O106 2.028 1_554 S
Zn103 O109 2.035 . S
O104 Zn103 2.028 1_556 S
O104 C110 1.247 . S
O105 Zn101 2.035 . S
O105 C110 1.258 . S
O106 C99 1.247 . S
O106 Zn103 2.028 1_556 S
O107 C99 1.258 . S
O107 Zn101 2.035 . S
O108 Zn101 2.028 . S
O108 C111 1.247 . S
O109 Zn103 2.035 . S
O109 C111 1.258 1_554 S
C110 O104 1.247 . S
C110 O105 1.258 . S
C111 O108 1.247 . S
C111 O109 1.258 1_556 S
C112 O114 1.247 . S
C112 O116 1.258 . S
C113 O120 1.247 . S
C113 O121 1.258 . S
O114 C112 1.247 . S
O114 Zn115 2.028 . S
Zn115 O114 2.028 . S
Zn115 O119 2.035 . S
Zn115 O121 2.035 . S
Zn115 O122 2.028 . S
O116 C112 1.258 . S
O116 Zn117 2.035 . S
Zn117 O116 2.035 . S
Zn117 O118 2.028 . S
Zn117 O120 2.028 . S
Zn117 O123 2.035 . S
O118 Zn117 2.028 . S
O118 C124 1.247 . S
O119 Zn115 2.035 . S
O119 C124 1.258 . S
O120 C113 1.247 . S
O120 Zn117 2.028 . S
O121 C113 1.258 . S
O121 Zn115 2.035 . S
O122 Zn115 2.028 . S
O122 C125 1.247 . S
O123 Zn117 2.035 . S
O123 C125 1.258 . S
C124 O118 1.247 . S
C124 O119 1.258 . S
C125 O122 1.247 . S
C125 O123 1.258 . S
C126 O128 1.247 . S
C126 O130 1.258 . S
C127 O134 1.247 . S
C127 O135 1.258 . S
O128 C126 1.247 . S
O128 Zn129 2.028 . S
Zn129 O128 2.028 . S
Zn129 O133 2.035 . S
Zn129 O135 2.035 . S
Zn129 O136 2.028 . S
O130 C126 1.258 . S
O130 Zn131 2.035 . S
Zn131 O130 2.035 . S
Zn131 O132 2.028 . S
Zn131 O134 2.028 . S
Zn131 O137 2.035 . S
O132 Zn131 2.028 . S
O132 C138 1.247 . S
O133 Zn129 2.035 . S
O133 C138 1.258 . S
O134 C127 1.247 . S
O134 Zn131 2.028 . S
O135 C127 1.258 . S
O135 Zn129 2.035 . S
O136 Zn129 2.028 . S
O136 C139 1.247 . S
O137 Zn131 2.035 . S
O137 C139 1.258 . S
C138 O132 1.247 . S
C138 O133 1.258 . S
C139 O136 1.247 . S
C139 O137 1.258 . S
C140 O142 1.247 . S
C140 O144 1.258 . S
C141 O148 1.247 . S
C141 O149 1.258 . S
O142 C140 1.247 . S
O142 Zn143 2.028 . S
Zn143 O142 2.028 . S
Zn143 O147 2.035 . S
Zn143 O149 2.035 . S
Zn143 O150 2.028 . S
O144 C140 1.258 . S
O144 Zn145 2.035 . S
Zn145 O144 2.035 . S
Zn145 O146 2.028 . S
Zn145 O148 2.028 . S
Zn145 O151 2.035 . S
O146 Zn145 2.028 . S
O146 C152 1.247 . S
O147 Zn143 2.035 . S
O147 C152 1.258 . S
O148 C141 1.247 . S
O148 Zn145 2.028 . S
O149 C141 1.258 . S
O149 Zn143 2.035 . S
O150 Zn143 2.028 . S
O150 C153 1.247 . S
O151 Zn145 2.035 . S
O151 C153 1.258 . S
C152 O146 1.247 . S
C152 O147 1.258 . S
C153 O150 1.247 . S
C153 O151 1.258 . S
C154 O156 1.247 . S
C154 O158 1.258 . S
C155 O162 1.247 . S
C155 O163 1.258 . S
O156 C154 1.247 . S
O156 Zn157 2.028 . S
Zn157 O156 2.028 . S
Zn157 O161 2.035 . S
Zn157 O163 2.035 . S
Zn157 O164 2.028 . S
O158 C154 1.258 . S
O158 Zn159 2.035 . S
Zn159 O158 2.035 . S
Zn159 O160 2.028 . S
Zn159 O162 2.028 . S
Zn159 O165 2.035 . S
O160 Zn159 2.028 . S
O160 C166 1.247 . S
O161 Zn157 2.035 . S
O161 C166 1.258 . S
O162 C155 1.247 . S
O162 Zn159 2.028 . S
O163 C155 1.258 . S
O163 Zn157 2.035 . S
O164 Zn157 2.028 . S
O164 C167 1.247 . S
O165 Zn159 2.035 . S
O165 C167 1.258 . S
C166 O160 1.247 . S
C166 O161 1.258 . S
C167 O164 1.247 . S
C167 O165 1.258 . S
C168 O170 1.247 . S
C168 O172 1.258 . S
C169 O176 1.247 . S
C169 O177 1.258 . S
O170 C168 1.247 . S
O170 Zn171 2.028 . S
Zn171 O170 2.028 . S
Zn171 O175 2.035 . S
Zn171 O177 2.035 . S
Zn171 O178 2.028 . S
O172 C168 1.258 . S
O172 Zn173 2.035 . S
Zn173 O172 2.035 . S
Zn173 O174 2.028 . S
Zn173 O176 2.028 . S
Zn173 O179 2.035 . S
O174 Zn173 2.028 . S
O174 C180 1.247 . S
O175 Zn171 2.035 . S
O175 C180 1.258 . S
O176 C169 1.247 . S
O176 Zn173 2.028 . S
O177 C169 1.258 . S
O177 Zn171 2.035 . S
O178 Zn171 2.028 . S
O178 C181 1.247 . S
O179 Zn173 2.035 . S
O179 C181 1.258 . S
C180 O174 1.247 . S
C180 O175 1.258 . S
C181 O178 1.247 . S
C181 O179 1.258 . S
C182 O184 1.247 . S
C182 O186 1.258 . S
C183 O190 1.247 . S
C183 O191 1.258 . S
O184 C182 1.247 . S
O184 Zn185 2.028 . S
Zn185 O184 2.028 . S
Zn185 O189 2.035 . S
Zn185 O191 2.035 . S
Zn185 O192 2.028 . S
O186 C182 1.258 . S
O186 Zn187 2.035 . S
Zn187 O186 2.035 . S
Zn187 O188 2.028 . S
Zn187 O190 2.028 . S
Zn187 O193 2.035 . S
O188 Zn187 2.028 . S
O188 C194 1.247 . S
O189 Zn185 2.035 . S
O189 C194 1.258 . S
O190 C183 1.247 . S
O190 Zn187 2.028 . S
O191 C183 1.258 . S
O191 Zn185 2.035 . S
O192 Zn185 2.028 . S
O192 C195 1.247 . S
O193 Zn187 2.035 . S
O193 C195 1.258 . S
C194 O188 1.247 . S
C194 O189 1.258 . S
C195 O192 1.247 . S
C195 O193 1.258 . S
C196 O198 1.247 . S
C196 O200 1.258 . S
C197 O204 1.247 . S
C197 O205 1.258 . S
O198 C196 1.247 . S
O198 Zn199 2.028 . S
Zn199 O198 2.028 . S
Zn199 O203 2.035 . S
Zn199 O205 2.035 . S
Zn199 O206 2.028 . S
O200 C196 1.258 . S
O200 Zn201 2.035 . S
Zn201 O200 2.035 . S
Zn201 O202 2.028 . S
Zn201 O204 2.028 . S
Zn201 O207 2.035 . S
O202 Zn201 2.028 . S
O202 C208 1.247 . S
O203 Zn199 2.035 . S
O203 C208 1.258 . S
O204 C197 1.247 . S
O204 Zn201 2.028 . S
O205 C197 1.258 . S
O205 Zn199 2.035 . S
O206 Zn199 2.028 . S
O206 C209 1.247 . S
O207 Zn201 2.035 . S
O207 C209 1.258 . S
C208 O202 1.247 . S
C208 O203 1.258 . S
C209 O206 1.247 . S
C209 O207 1.258 . S
C210 O212 1.247 . S
C210 O214 1.258 . S
C211 O218 1.247 . S
C211 O219 1.258 . S
O212 C210 1.247 . S
O212 Zn213 2.028 . S
Zn213 O212 2.028 . S
Zn213 O217 2.035 . S
Zn213 O219 2.035 . S
Zn213 O220 2.028 . S
O214 C210 1.258 . S
O214 Zn215 2.035 . S
Zn215 O214 2.035 . S
Zn215 O216 2.028 . S
Zn215 O218 2.028 . S
Zn215 O221 2.035 . S
O216 Zn215 2.028 . S
O216 C222 1.247 . S
O217 Zn213 2.035 . S
O217 C222 1.258 . S
O218 C211 1.247 . S
O218 Zn215 2.028 . S
O219 C211 1.258 . S
O219 Zn213 2.035 . S
O220 Zn213 2.028 . S
O220 C223 1.247 . S
O221 Zn215 2.035 . S
O221 C223 1.258 . S
C222 O216 1.247 . S
C222 O217 1.258 . S
C223 O220 1.247 . S
C223 O221 1.258 . S
C224 C225 1.387 . S
C224 H228 0.950 . S
C224 C233 1.390 1_565 S
C225 C224 1.387 . S
C225 C227 1.387 . S
H226 C233 0.950 . S
C227 C225 1.387 . S
C227 C229 1.390 1_565 S
C227 H231 0.950 . S
H228 C224 0.950 . S
C229 C227 1.390 1_545 S
C229 C230 1.387 . S
C229 H232 0.950 . S
C230 C229 1.387 . S
C230 C233 1.387 . S
H231 C227 0.950 . S
H232 C229 0.950 . S
C233 C224 1.390 1_545 S
C233 H226 0.950 . S
C233 C230 1.387 . S
C234 C235 1.387 . S
C234 H238 0.950 . S
C234 C243 1.390 1_455 S
C235 C234 1.387 . S
C235 C237 1.387 . S
H236 C243 0.950 . S
C237 C235 1.387 . S
C237 C239 1.390 1_455 S
C237 H241 0.950 . S
H238 C234 0.950 . S
C239 C237 1.390 1_655 S
C239 C240 1.387 . S
C239 H242 0.950 . S
C240 C239 1.387 . S
C240 C243 1.387 . S
H241 C237 0.950 . S
H242 C239 0.950 . S
C243 C234 1.390 1_655 S
C243 H236 0.950 . S
C243 C240 1.387 . S
C244 C245 1.387 . S
C244 H248 0.950 1_554 S
C244 C253 1.390 1_565 S
C245 C244 1.387 . S
C245 C247 1.387 . S
H246 C253 0.950 . S
C247 C245 1.387 . S
C247 C249 1.390 1_565 S
C247 H251 0.950 . S
H248 C244 0.950 1_556 S
C249 C247 1.390 1_545 S
C249 C250 1.387 . S
C249 H252 0.950 . S
C250 C249 1.387 . S
C250 C253 1.387 . S
H251 C247 0.950 . S
H252 C249 0.950 . S
C253 C244 1.390 1_545 S
C253 H246 0.950 . S
C253 C250 1.387 . S
C254 C255 1.387 . S
C254 H258 0.950 . S
C254 C263 1.390 1_455 S
C255 C254 1.387 . S
C255 C257 1.387 . S
H256 C263 0.950 1_554 S
C257 C255 1.387 . S
C257 C259 1.390 1_455 S
C257 H261 0.950 . S
H258 C254 0.950 . S
C259 C257 1.390 1_655 S
C259 C260 1.387 . S
C259 H262 0.950 . S
C260 C259 1.387 . S
C260 C263 1.387 . S
H261 C257 0.950 . S
H262 C259 0.950 . S
C263 C254 1.390 1_655 S
C263 H256 0.950 1_556 S
C263 C260 1.387 . S
C264 C265 1.387 1_556 S
C264 H268 0.950 . S
C264 C273 1.390 . S
C265 C264 1.387 1_554 S
C265 C267 1.387 . S
H266 C273 0.950 . S
C267 C265 1.387 . S
C267 C269 1.390 . S
C267 H271 0.950 . S
H268 C264 0.950 . S
C269 C267 1.390 . S
C269 C270 1.387 . S
C269 H272 0.950 . S
C270 C269 1.387 . S
C270 C273 1.387 1_554 S
H271 C267 0.950 . S
H272 C269 0.950 . S
C273 C264 1.390 . S
C273 H266 0.950 . S
C273 C270 1.387 1_556 S
C274 C275 1.387 . S
C274 H278 0.950 . S
C274 C283 1.390 . S
C275 C274 1.387 . S
C275 C277 1.387 1_556 S
H276 C283 0.950 . S
C277 C275 1.387 1_554 S
C277 C279 1.390 . S
C277 H281 0.950 . S
H278 C274 0.950 . S
C279 C277 1.390 . S
C279 C280 1.387 1_554 S
C279 H282 0.950 . S
C280 C279 1.387 1_556 S
C280 C283 1.387 . S
H281 C277 0.950 . S
H282 C279 0.950 . S
C283 C274 1.390 . S
C283 H276 0.950 . S
C283 C280 1.387 . S
C284 C285 1.387 . S
C284 H288 0.950 . S
C284 C293 1.390 . S
C285 C284 1.387 . S
C285 C287 1.387 1_554 S
H286 C293 0.950 . S
C287 C285 1.387 1_556 S
C287 C289 1.390 . S
C287 H291 0.950 . S
H288 C284 0.950 . S
C289 C287 1.390 . S
C289 C290 1.387 1_556 S
C289 H292 0.950 . S
C290 C289 1.387 1_554 S
C290 C293 1.387 . S
H291 C287 0.950 . S
H292 C289 0.950 . S
C293 C284 1.390 . S
C293 H286 0.950 . S
C293 C290 1.387 . S
C294 C295 1.387 . S
C294 H298 0.950 . S
C294 C303 1.390 . S
C295 C294 1.387 . S
C295 C297 1.387 1_556 S
H296 C303 0.950 . S
C297 C295 1.387 1_554 S
C297 C299 1.390 . S
C297 H301 0.950 . S
H298 C294 0.950 . S
C299 C297 1.390 . S
C299 C300 1.387 1_554 S
C299 H302 0.950 . S
C300 C299 1.387 1_556 S
C300 C303 1.387 . S
H301 C297 0.950 . S
H302 C299 0.950 . S
C303 C294 1.390 . S
C303 H296 0.950 . S
C303 C300 1.387 . S
C304 C305 1.387 . S
C304 H308 0.950 . S
C304 C313 1.390 . S
C305 C304 1.387 . S
C305 C307 1.387 . S
H306 C313 0.950 . S
C307 C305 1.387 . S
C307 C309 1.390 . S
C307 H311 0.950 . S
H308 C304 0.950 . S
C309 C307 1.390 . S
C309 C310 1.387 . S
C309 H312 0.950 . S
C310 C309 1.387 . S
C310 C313 1.387 . S
H311 C307 0.950 . S
H312 C309 0.950 . S
C313 C304 1.390 . S
C313 H306 0.950 . S
C313 C310 1.387 . S
C314 C315 1.387 . S
C314 H318 0.950 . S
C314 C323 1.390 . S
C315 C314 1.387 . S
C315 C317 1.387 . S
H316 C323 0.950 . S
C317 C315 1.387 . S
C317 C319 1.390 . S
C317 H321 0.950 . S
H318 C314 0.950 . S
C319 C317 1.390 . S
C319 C320 1.387 . S
C319 H322 0.950 . S
C320 C319 1.387 . S
C320 C323 1.387 . S
H321 C317 0.950 . S
H322 C319 0.950 . S
C323 C314 1.390 . S
C323 H316 0.950 . S
C323 C320 1.387 . S
C324 C325 1.387 . S
C324 H328 0.950 . S
C324 C333 1.390 . S
C325 C324 1.387 . S
C325 C327 1.387 . S
H326 C333 0.950 . S
C327 C325 1.387 . S
C327 C329 1.390 . S
C327 H331 0.950 . S
H328 C324 0.950 . S
C329 C327 1.390 . S
C329 C330 1.387 . S
C329 H332 0.950 . S
C330 C329 1.387 . S
C330 C333 1.387 . S
H331 C327 0.950 . S
H332 C329 0.950 . S
C333 C324 1.390 . S
C333 H326 0.950 . S
C333 C330 1.387 . S
C334 C335 1.387 . S
C334 H338 0.950 . S
C334 C343 1.390 . S
C335 C334 1.387 . S
C335 C337 1.387 . S
H336 C343 0.950 . S
C337 C335 1.387 . S
C337 C339 1.390 . S
C337 H341 0.950 . S
H338 C334 0.950 . S
C339 C337 1.390 . S
C339 C340 1.387 . S
C339 H342 0.950 . S
C340 C339 1.387 . S
C340 C343 1.387 . S
H341 C337 0.950 . S
H342 C339 0.950 . S
C343 C334 1.390 . S
C343 H336 0.950 . S
C343 C340 1.387 . S
C344 C345 1.387 . S
C344 H348 0.950 . S
C344 C353 1.390 1_565 S
C345 C344 1.387 . S
C345 C347 1.387 . S
H346 C353 0.950 . S
C347 C345 1.387 . S
C347 C349 1.390 1_565 S
C347 H351 0.950 . S
H348 C344 0.950 . S
C349 C347 1.390 1_545 S
C349 C350 1.387 . S
C349 H352 0.950 . S
C350 C349 1.387 . S
C350 C353 1.387 . S
H351 C347 0.950 . S
H352 C349 0.950 . S
C353 C344 1.390 1_545 S
C353 H346 0.950 . S
C353 C350 1.387 . S
C354 C355 1.387 . S
C354 H358 0.950 . S
C354 C363 1.390 1_655 S
C355 C354 1.387 . S
C355 C357 1.387 . S
H356 C363 0.950 . S
C357 C355 1.387 . S
C357 C359 1.390 1_655 S
C357 H361 0.950 . S
H358 C354 0.950 . S
C359 C357 1.390 1_455 S
C359 C360 1.387 . S
C359 H362 0.950 . S
C360 C359 1.387 . S
C360 C363 1.387 . S
H361 C357 0.950 . S
H362 C359 0.950 . S
C363 C354 1.390 1_455 S
C363 H356 0.950 . S
C363 C360 1.387 . S
C364 C365 1.387 . S
C364 H368 0.950 . S
C364 C373 1.390 1_565 S
C365 C364 1.387 . S
C365 C367 1.387 . S
H366 C373 0.950 . S
C367 C365 1.387 . S
C367 C369 1.390 1_565 S
C367 H371 0.950 . S
H368 C364 0.950 . S
C369 C367 1.390 1_545 S
C369 C370 1.387 . S
C369 H372 0.950 . S
C370 C369 1.387 . S
C370 C373 1.387 . S
H371 C367 0.950 . S
H372 C369 0.950 . S
C373 C364 1.390 1_545 S
C373 H366 0.950 . S
C373 C370 1.387 . S
C374 C375 1.387 . S
C374 H378 0.950 . S
C374 C383 1.390 1_655 S
C375 C374 1.387 . S
C375 C377 1.387 . S
H376 C383 0.950 . S
C377 C375 1.387 . S
C377 C379 1.390 1_655 S
C377 H381 0.950 . S
H378 C374 0.950 . S
C379 C377 1.390 1_455 S
C379 C380 1.387 . S
C379 H382 0.950 . S
C380 C379 1.387 . S
C380 C383 1.387 . S
H381 C377 0.950 . S
H382 C379 0.950 . S
C383 C374 1.390 1_455 S
C383 H376 0.950 . S
C383 C380 1.387 . S
C384 C385 1.387 . S
C384 H388 0.950 . S
C384 C393 1.390 . S
C385 C384 1.387 . S
C385 C387 1.387 . S
H386 C393 0.950 . S
C387 C385 1.387 . S
C387 C389 1.390 . S
C387 H391 0.950 . S
H388 C384 0.950 . S
C389 C387 1.390 . S
C389 C390 1.387 . S
C389 H392 0.950 . S
C390 C389 1.387 . S
C390 C393 1.387 . S
H391 C387 0.950 . S
H392 C389 0.950 . S
C393 C384 1.390 . S
C393 H386 0.950 . S
C393 C390 1.387 . S
C394 C395 1.387 . S
C394 H398 0.950 . S
C394 C403 1.390 . S
C395 C394 1.387 . S
C395 C397 1.387 . S
H396 C403 0.950 . S
C397 C395 1.387 . S
C397 C399 1.390 . S
C397 H401 0.950 . S
H398 C394 0.950 . S
C399 C397 1.390 . S
C399 C400 1.387 . S
C399 H402 0.950 . S
C400 C399 1.387 . S
C400 C403 1.387 . S
H401 C397 0.950 . S
H402 C399 0.950 . S
C403 C394 1.390 . S
C403 H396 0.950 . S
C403 C400 1.387 . S
C404 C405 1.387 . S
C404 H408 0.950 . S
C404 C413 1.390 . S
C405 C404 1.387 . S
C405 C407 1.387 . S
H406 C413 0.950 . S
C407 C405 1.387 . S
C407 C409 1.390 . S
C407 H411 0.950 . S
H408 C404 0.950 . S
C409 C407 1.390 . S
C409 C410 1.387 . S
C409 H412 0.950 . S
C410 C409 1.387 . S
C410 C413 1.387 . S
H411 C407 0.950 . S
H412 C409 0.950 . S
C413 C404 1.390 . S
C413 H406 0.950 . S
C413 C410 1.387 . S
C414 C415 1.387 . S
C414 H418 0.950 . S
C414 C423 1.390 . S
C415 C414 1.387 . S
C415 C417 1.387 . S
H416 C423 0.950 . S
C417 C415 1.387 . S
C417 C419 1.390 . S
C417 H421 0.950 . S
H418 C414 0.950 . S
C419 C417 1.390 . S
C419 C420 1.387 . S
C419 H422 0.950 . S
C420 C419 1.387 . S
C420 C423 1.387 . S
H421 C417 0.950 . S
H422 C419 0.950 . S
C423 C414 1.390 . S
C423 H416 0.950 . S
C423 C420 1.387 . S
C424 C425 1.387 . S
C424 H428 0.950 . S
C424 C433 1.390 . S
C425 C424 1.387 . S
C425 C427 1.387 . S
H426 C433 0.950 . S
C427 C425 1.387 . S
C427 C429 1.390 . S
C427 H431 0.950 . S
H428 C424 0.950 . S
C429 C427 1.390 . S
C429 C430 1.387 . S
C429 H432 0.950 . S
C430 C429 1.387 . S
C430 C433 1.387 . S
H431 C427 0.950 . S
H432 C429 0.950 . S
C433 C424 1.390 . S
C433 H426 0.950 . S
C433 C430 1.387 . S
C434 C435 1.387 . S
C434 H438 0.950 . S
C434 C443 1.390 . S
C435 C434 1.387 . S
C435 C437 1.387 . S
H436 C443 0.950 . S
C437 C435 1.387 . S
C437 C439 1.390 . S
C437 H441 0.950 . S
H438 C434 0.950 . S
C439 C437 1.390 . S
C439 C440 1.387 . S
C439 H442 0.950 . S
C440 C439 1.387 . S
C440 C443 1.387 . S
H441 C437 0.950 . S
H442 C439 0.950 . S
C443 C434 1.390 . S
C443 H436 0.950 . S
C443 C440 1.387 . S
C444 C445 1.387 . S
C444 H448 0.950 . S
C444 C453 1.390 . S
C445 C444 1.387 . S
C445 C447 1.387 . S
H446 C453 0.950 . S
C447 C445 1.387 . S
C447 C449 1.390 . S
C447 H451 0.950 . S
H448 C444 0.950 . S
C449 C447 1.390 . S
C449 C450 1.387 . S
C449 H452 0.950 . S
C450 C449 1.387 . S
C450 C453 1.387 . S
H451 C447 0.950 . S
H452 C449 0.950 . S
C453 C444 1.390 . S
C453 H446 0.950 . S
C453 C450 1.387 . S
C454 C455 1.387 . S
C454 H458 0.950 . S
C454 C463 1.390 . S
C455 C454 1.387 . S
C455 C457 1.387 . S
H456 C463 0.950 . S
C457 C455 1.387 . S
C457 C459 1.390 . S
C457 H461 0.950 . S
H458 C454 0.950 . S
C459 C457 1.390 . S
C459 C460 1.387 . S
C459 H462 0.950 . S
C460 C459 1.387 . S
C460 C463 1.387 . S
H461 C457 0.950 . S
H462 C459 0.950 . S
C463 C454 1.390 . S
C463 H456 0.950 . S
C463 C460 1.387 . S
C464 C465 1.387 . S
C464 H468 0.950 . S
C464 C473 1.390 . S
C465 C464 1.387 . S
C465 C467 1.387 . S
H466 C473 0.950 . S
C467 C465 1.387 . S
C467 C469 1.390 . S
C467 H471 0.950 . S
H468 C464 0.950 . S
C469 C467 1.390 . S
C469 C470 1.387 . S
C469 H472 0.950 . S
C470 C469 1.387 . S
C470 C473 1.387 . S
H471 C467 0.950 . S
H472 C469 0.950 . S
C473 C464 1.390 . S
C473 H466 0.950 . S
C473 C470 1.387 . S
C474 C475 1.387 . S
C474 H478 0.950 . S
C474 C483 1.390 . S
C475 C474 1.387 . S
C475 C477 1.387 . S
H476 C483 0.950 . S
C477 C475 1.387 . S
C477 C479 1.390 . S
C477 H481 0.950 . S
H478 C474 0.950 . S
C479 C477 1.390 . S
C479 C480 1.387 . S
C479 H482 0.950 . S
C480 C479 1.387 . S
C480 C483 1.387 . S
H481 C477 0.950 . S
H482 C479 0.950 . S
C483 C474 1.390 . S
C483 H476 0.950 . S
C483 C480 1.387 . S
C484 C485 1.387 . S
C484 H488 0.950 . S
C484 C493 1.390 . S
C485 C484 1.387 . S
C485 C487 1.387 . S
H486 C493 0.950 . S
C487 C485 1.387 . S
C487 C489 1.390 . S
C487 H491 0.950 . S
H488 C484 0.950 . S
C489 C487 1.390 . S
C489 C490 1.387 . S
C489 H492 0.950 . S
C490 C489 1.387 . S
C490 C493 1.387 . S
H491 C487 0.950 . S
H492 C489 0.950 . S
C493 C484 1.390 . S
C493 H486 0.950 . S
C493 C490 1.387 . S
C494 C495 1.387 . S
C494 H498 0.950 . S
C494 C503 1.390 . S
C495 C494 1.387 . S
C495 C497 1.387 . S
H496 C503 0.950 . S
C497 C495 1.387 . S
C497 C499 1.390 . S
C497 H501 0.950 . S
H498 C494 0.950 . S
C499 C497 1.390 . S
C499 C500 1.387 . S
C499 H502 0.950 . S
C500 C499 1.387 . S
C500 C503 1.387 . S
H501 C497 0.950 . S
H502 C499 0.950 . S
C503 C494 1.390 . S
C503 H496 0.950 . S
C503 C500 1.387 . S
C504 C505 1.387 . S
C504 H508 0.950 . S
C504 C513 1.390 . S
C505 C504 1.387 . S
C505 C507 1.387 . S
H506 C513 0.950 . S
C507 C505 1.387 . S
C507 C509 1.390 . S
C507 H511 0.950 . S
H508 C504 0.950 . S
C509 C507 1.390 . S
C509 C510 1.387 . S
C509 H512 0.950 . S
C510 C509 1.387 . S
C510 C513 1.387 . S
H511 C507 0.950 . S
H512 C509 0.950 . S
C513 C504 1.390 . S
C513 H506 0.950 . S
C513 C510 1.387 . S
C514 C515 1.387 . S
C514 H518 0.950 . S
C514 C523 1.390 . S
C515 C514 1.387 . S
C515 C517 1.387 . S
H516 C523 0.950 . S
C517 C515 1.387 . S
C517 C519 1.390 . S
C517 H521 0.950 . S
H518 C514 0.950 . S
C519 C517 1.390 . S
C519 C520 1.387 . S
C519 H522 0.950 . S
C520 C519 1.387 . S
C520 C523 1.387 . S
H521 C517 0.950 . S
H522 C519 0.950 . S
C523 C514 1.390 . S
C523 H516 0.950 . S
C523 C520 1.387 . S
C524 C525 1.387 . S
C524 H528 0.950 . S
C524 C533 1.390 . S
C525 C524 1.387 . S
C525 C527 1.387 . S
H526 C533 0.950 . S
C527 C525 1.387 . S
C527 C529 1.390 . S
C527 H531 0.950 . S
H528 C524 0.950 . S
C529 C527 1.390 . S
C529 C530 1.387 . S
C529 H532 0.950 . S
C530 C529 1.387 . S
C530 C533 1.387 . S
H531 C527 0.950 . S
H532 C529 0.950 . S
C533 C524 1.390 . S
C533 H526 0.950 . S
C533 C530 1.387 . S
C534 C535 1.387 . S
C534 H538 0.950 . S
C534 C543 1.390 . S
C535 C534 1.387 . S
C535 C537 1.387 . S
H536 C543 0.950 . S
C537 C535 1.387 . S
C537 C539 1.390 . S
C537 H541 0.950 . S
H538 C534 0.950 . S
C539 C537 1.390 . S
C539 C540 1.387 . S
C539 H542 0.950 . S
C540 C539 1.387 . S
C540 C543 1.387 . S
H541 C537 0.950 . S
H542 C539 0.950 . S
C543 C534 1.390 . S
C543 H536 0.950 . S
C543 C540 1.387 . S
C225 C154 1.536 . S
C230 C1 1.550 . S
C235 C27 1.550 . S
C240 C124 1.537 . S
C245 C41 1.550 . S
C250 C126 1.536 . S
C255 C140 1.536 . S
C260 C55 1.550 . S
C265 C69 1.550 . S
C270 C70 1.535 1_554 S
C275 C83 1.550 . S
C280 C85 1.536 1_556 S
C285 C98 1.536 1_554 S
C290 C96 1.550 . S
C295 C56 1.536 1_556 S
C300 C111 1.550 . S
C305 C42 1.535 . S
C310 C113 1.550 . S
C315 C139 1.550 . S
C320 C12 1.536 . S
C325 C14 1.535 . S
C330 C153 1.550 . S
C335 C167 1.550 . S
C340 C28 1.537 . S
C345 C180 1.550 . S
C350 C182 1.536 . S
C355 C195 1.550 . S
C360 C197 1.536 . S
C365 C210 1.535 . S
C370 C208 1.550 . S
C375 C169 1.535 . S
C380 C223 1.550 . S
C385 C68 1.448 . S
C390 C0 1.448 . S
C395 C26 1.446 . S
C400 C82 1.446 . S
C405 C40 1.446 . S
C410 C97 1.446 . S
C415 C110 1.447 . S
C420 C54 1.447 . S
C425 C112 1.446 . S
C430 C181 1.445 . S
C435 C194 1.447 . S
C440 C138 1.447 . S
C445 C152 1.446 . S
C450 C209 1.445 . S
C455 C222 1.445 . S
C460 C166 1.445 . S
C465 C196 1.674 . S
C470 C13 1.672 1_556 S
C475 C211 1.674 . S
C480 C15 1.674 1_554 S
C485 C29 1.672 1_556 S
C490 C168 1.674 . S
C495 C183 1.674 . S
C500 C43 1.674 1_554 S
C505 C141 1.672 . S
C510 C57 1.672 . S
C515 C155 1.674 . S
C520 C71 1.674 . S
C525 C84 1.672 . S
C530 C125 1.670 . S
C535 C127 1.672 . S
C540 C99 1.672 . S
