# Generated by pormake.
# Topology umj, (4)-cn, num edge types: 1
# Building blocks:
#     Node 0, Type 0, BuildingBlock: QUQFOY_clean_sbu_1, # of connection points: 4
#     Node 1, Type 0, BuildingBlock: QUQFOY_clean_sbu_1, # of connection points: 4
#     Node 2, Type 0, BuildingBlock: QUQFOY_clean_sbu_1, # of connection points: 4
#     Node 3, Type 0, BuildingBlock: QUQFOY_clean_sbu_1, # of connection points: 4
#     Node 4, Type 0, BuildingBlock: QUQFOY_clean_sbu_1, # of connection points: 4
#     Node 5, Type 0, BuildingBlock: QUQFOY_clean_sbu_1, # of connection points: 4
#     Node 6, Type 0, BuildingBlock: QUQFOY_clean_sbu_1, # of connection points: 4
#     Node 7, Type 0, BuildingBlock: QUQFOY_clean_sbu_1, # of connection points: 4
#     Node 8, Type 0, BuildingBlock: QUQFOY_clean_sbu_1, # of connection points: 4
#     Node 9, Type 0, BuildingBlock: QUQFOY_clean_sbu_1, # of connection points: 4
#     Node 10, Type 0, BuildingBlock: QUQFOY_clean_sbu_1, # of connection points: 4
#     Node 11, Type 0, BuildingBlock: QUQFOY_clean_sbu_1, # of connection points: 4
#     Edge 12, Type (0, 0), BuildingBlock: ZUJKAS_clean_linker_0, # of connection points: 2
#     Edge 13, Type (0, 0), BuildingBlock: ZUJKAS_clean_linker_0, # of connection points: 2
#     Edge 14, Type (0, 0), BuildingBlock: ZUJKAS_clean_linker_0, # of connection points: 2
#     Edge 15, Type (0, 0), BuildingBlock: ZUJKAS_clean_linker_0, # of connection points: 2
#     Edge 16, Type (0, 0), BuildingBlock: ZUJKAS_clean_linker_0, # of connection points: 2
#     Edge 17, Type (0, 0), BuildingBlock: ZUJKAS_clean_linker_0, # of connection points: 2
#     Edge 18, Type (0, 0), BuildingBlock: ZUJKAS_clean_linker_0, # of connection points: 2
#     Edge 19, Type (0, 0), BuildingBlock: ZUJKAS_clean_linker_0, # of connection points: 2
#     Edge 20, Type (0, 0), BuildingBlock: ZUJKAS_clean_linker_0, # of connection points: 2
#     Edge 21, Type (0, 0), BuildingBlock: ZUJKAS_clean_linker_0, # of connection points: 2
#     Edge 22, Type (0, 0), BuildingBlock: ZUJKAS_clean_linker_0, # of connection points: 2
#     Edge 23, Type (0, 0), BuildingBlock: ZUJKAS_clean_linker_0, # of connection points: 2
#     Edge 24, Type (0, 0), BuildingBlock: ZUJKAS_clean_linker_0, # of connection points: 2
#     Edge 25, Type (0, 0), BuildingBlock: ZUJKAS_clean_linker_0, # of connection points: 2
#     Edge 26, Type (0, 0), BuildingBlock: ZUJKAS_clean_linker_0, # of connection points: 2
#     Edge 27, Type (0, 0), BuildingBlock: ZUJKAS_clean_linker_0, # of connection points: 2
#     Edge 28, Type (0, 0), BuildingBlock: ZUJKAS_clean_linker_0, # of connection points: 2
#     Edge 29, Type (0, 0), BuildingBlock: ZUJKAS_clean_linker_0, # of connection points: 2
#     Edge 30, Type (0, 0), BuildingBlock: ZUJKAS_clean_linker_0, # of connection points: 2
#     Edge 31, Type (0, 0), BuildingBlock: ZUJKAS_clean_linker_0, # of connection points: 2
#     Edge 32, Type (0, 0), BuildingBlock: ZUJKAS_clean_linker_0, # of connection points: 2
#     Edge 33, Type (0, 0), BuildingBlock: ZUJKAS_clean_linker_0, # of connection points: 2
#     Edge 34, Type (0, 0), BuildingBlock: ZUJKAS_clean_linker_0, # of connection points: 2
#     Edge 35, Type (0, 0), BuildingBlock: ZUJKAS_clean_linker_0, # of connection points: 2
# Relax obj value: 0.073
# Max RMSD: 0.410
# Mean RMSD: 0.258
data_MOF--net-umj--node1-QUQFOY_clean_sbu_1--edge1-ZUJKAS_clean_linker_0
_symmetry_space_group_name_H-M    P1
_symmetry_Int_Tables_number       1
_symmetry_cell_setting            triclinic
loop_
_symmetry_equiv_pos_as_xyz
'x, y, z'
_cell_length_a     38.230903
_cell_length_b     38.091435
_cell_length_c     108.51855
_cell_angle_alpha  85.037612
_cell_angle_beta   91.458589
_cell_angle_gamma 119.72075
loop_
_atom_site_label
_atom_site_type_symbol
_atom_site_fract_x
_atom_site_fract_y
_atom_site_fract_z
_atom_type_partial_charge
O0 O 0.02098 0.30932 0.0967 0.0
Cd1 Cd 1.00254 0.29938 0.07876 0.0
Cd2 Cd 0.08315 0.31848 0.07634 0.0
O3 O 0.08669 0.333 0.09465 0.0
O4 O 0.95931 0.31533 0.07644 0.0
O5 O 0.01975 0.34978 0.06762 0.0
C6 C 0.98578 0.3474 0.06996 0.0
C7 C 0.11955 0.35931 0.05869 0.0
C8 C 0.05589 0.32424 0.1013 0.0
C9 C 0.01703 0.23283 0.07205 0.0
O10 O 0.05392 0.25779 0.0738 0.0
O11 O 0.99033 0.24351 0.07273 0.0
O12 O 0.13555 0.34387 0.06644 0.0
O13 O 0.0849 0.35438 0.06161 0.0
O14 O 0.78138 0.01035 0.43546 0.0
Cd15 Cd 0.77682 0.99711 0.41732 0.0
Cd16 Cd 0.8367 0.08009 0.41533 0.0
O17 O 0.82203 0.07696 0.43396 0.0
O18 O 0.71867 0.95432 0.41484 0.0
O19 O 0.74694 0.01736 0.40643 0.0
C20 C 0.71502 0.98261 0.40848 0.0
C21 C 0.83454 0.1228 0.3988 0.0
C22 C 0.79956 0.04378 0.44045 0.0
C23 C 0.85911 0.01639 0.40938 0.0
O24 O 0.86937 0.05269 0.41134 0.0
O25 O 0.82233 0.98832 0.41052 0.0
O26 O 0.86493 0.13604 0.40609 0.0
O27 O 0.80465 0.08712 0.40159 0.0
O28 O 0.77009 0.73733 0.77465 0.0
Cd29 Cd 0.7802 0.73561 0.75616 0.0
Cd30 Cd 0.75959 0.79792 0.75478 0.0
O31 O 0.74637 0.78014 0.77359 0.0
O32 O 0.76053 0.67737 0.75232 0.0
O33 O 0.73105 0.71278 0.74609 0.0
C34 C 0.73077 0.67879 0.74682 0.0
C35 C 0.71813 0.8043 0.73952 0.0
C36 C 0.7553 0.75585 0.77991 0.0
C37 C 0.84496 0.81862 0.74709 0.0
O38 O 0.81958 0.82947 0.74959 0.0
O39 O 0.83532 0.78125 0.74839 0.0
O40 O 0.73765 0.83289 0.74674 0.0
O41 O 0.71936 0.77127 0.74174 0.0
O42 O 0.98327 0.75829 0.10764 0.0
Cd43 Cd 0.98381 0.76738 0.08857 0.0
Cd44 Cd 0.9017 0.74277 0.09507 0.0
O45 O 0.91854 0.73062 0.11269 0.0
O46 O 0.02502 0.75451 0.08163 0.0
O47 O 0.95947 0.71777 0.07945 0.0
C48 C 0.99467 0.72237 0.07782 0.0
C49 C 0.8538 0.69749 0.08202 0.0
C50 C 0.95491 0.7422 0.11576 0.0
C51 C 0.95652 0.82884 0.08323 0.0
O52 O 0.9241 0.8029 0.08898 0.0
O53 O 0.98413 0.82027 0.0812 0.0
O54 O 0.8426 0.7125 0.09032 0.0
O55 O 0.89067 0.70573 0.082 0.0
O56 O 0.29731 0.99955 0.43912 0.0
Cd57 Cd 0.2945 0.99566 0.42068 0.0
Cd58 Cd 0.24294 0.91916 0.42524 0.0
O59 O 0.27653 0.93397 0.44188 0.0
O60 O 0.34857 0.03139 0.41165 0.0
O61 O 0.3242 0.96627 0.41733 0.0
C62 C 0.35288 0.99965 0.41225 0.0
C63 C 0.24499 0.89108 0.40683 0.0
C64 C 0.29204 0.96887 0.44618 0.0
C65 C 0.20479 0.96454 0.41711 0.0
O66 O 0.19918 0.93426 0.42447 0.0
O67 O 0.24034 0.98998 0.41286 0.0
O68 O 0.22948 0.86771 0.41689 0.0
O69 O 0.26058 0.92945 0.40748 0.0
O70 O 0.28637 0.2518 0.76662 0.0
Cd71 Cd 0.29482 0.25426 0.74825 0.0
Cd72 Cd 0.3196 0.20246 0.75314 0.0
O73 O 0.33167 0.23218 0.76984 0.0
O74 O 0.31787 0.31137 0.7395 0.0
O75 O 0.35491 0.28435 0.74623 0.0
C76 C 0.35322 0.31512 0.7411 0.0
C77 C 0.35798 0.20734 0.73566 0.0
C78 C 0.30992 0.24594 0.77389 0.0
C79 C 0.23906 0.16546 0.74438 0.0
O80 O 0.26169 0.15884 0.75184 0.0
O81 O 0.2497 0.20187 0.74006 0.0
O82 O 0.35883 0.18748 0.74587 0.0
O83 O 0.33695 0.22519 0.73561 0.0
O84 O 0.79751 0.01603 0.57928 0.0
Cd85 Cd 0.80442 0.02309 0.59798 0.0
Cd86 Cd 0.78043 0.93907 0.59768 0.0
O87 O 0.7722 0.94962 0.57891 0.0
O88 O 0.78473 0.06111 0.60266 0.0
O89 O 0.75361 0.99521 0.60781 0.0
C90 C 0.75377 0.02904 0.60768 0.0
C91 C 0.73411 0.88821 0.61192 0.0
C92 C 0.78318 0.98453 0.57331 0.0
C93 C 0.86487 0.99924 0.60669 0.0
O94 O 0.83897 0.96426 0.60363 0.0
O95 O 0.85716 0.02834 0.60576 0.0
O96 O 0.75517 0.88033 0.60468 0.0
O97 O 0.73676 0.92323 0.61025 0.0
O98 O 0.72288 0.74856 0.91659 0.0
Cd99 Cd 0.71289 0.75812 0.93417 0.0
Cd100 Cd 0.77223 0.7359 0.93868 0.0
O101 O 0.76161 0.72089 0.92032 0.0
O102 O 0.65364 0.74113 0.93577 0.0
O103 O 0.68149 0.70755 0.9451 0.0
C104 C 0.6494 0.70931 0.9424 0.0
C105 C 0.76927 0.69492 0.95653 0.0
C106 C 0.74169 0.73167 0.91281 0.0
C107 C 0.79264 0.82275 0.94224 0.0
O108 O 0.80387 0.79677 0.94122 0.0
O109 O 0.75588 0.81334 0.94066 0.0
O110 O 0.80026 0.71079 0.94912 0.0
O111 O 0.7392 0.69957 0.95321 0.0
O112 O 0.0338 0.77445 0.25046 0.0
Cd113 Cd 0.04018 0.77183 0.26889 0.0
Cd114 Cd 0.11617 0.82088 0.26518 0.0
O115 O 0.09758 0.79086 0.24845 0.0
O116 O 0.00625 0.71522 0.27767 0.0
O117 O 0.06971 0.74087 0.27174 0.0
C118 C 0.03751 0.71077 0.27672 0.0
C119 C 0.14526 0.81306 0.28403 0.0
C120 C 0.06269 0.77888 0.24375 0.0
C121 C 0.07568 0.86125 0.27253 0.0
O122 O 0.10451 0.86691 0.26554 0.0
O123 O 0.04947 0.82515 0.27667 0.0
O124 O 0.16746 0.82957 0.27409 0.0
O125 O 0.10723 0.79953 0.28305 0.0
O126 O 0.31299 0.01455 0.58203 0.0
Cd127 Cd 0.31739 0.01659 0.60064 0.0
Cd128 Cd 0.33849 0.09428 0.5956 0.0
O129 O 0.35413 0.08069 0.57866 0.0
O130 O 0.33818 0.98017 0.60885 0.0
O131 O 0.37634 0.04575 0.60388 0.0
C132 C 0.3736 0.01212 0.60832 0.0
C133 C 0.37493 0.12993 0.61248 0.0
C134 C 0.33521 0.0453 0.57467 0.0
C135 C 0.25721 0.04387 0.60528 0.0
O136 O 0.27896 0.07412 0.59772 0.0
O137 O 0.26973 0.01949 0.60933 0.0
O138 O 0.372 0.1496 0.60252 0.0
O139 O 0.35904 0.09131 0.61249 0.0
O140 O 0.24131 0.26544 0.90778 0.0
Cd141 Cd 0.23406 0.27265 0.92554 0.0
Cd142 Cd 0.18463 0.29767 0.9183 0.0
O143 O 0.2217 0.31016 0.90226 0.0
O144 O 0.28476 0.2946 0.93602 0.0
O145 O 0.2642 0.33345 0.92582 0.0
C146 C 0.29035 0.33062 0.93287 0.0
C147 C 0.18713 0.3352 0.93492 0.0
C148 C 0.23786 0.28919 0.8995 0.0
C149 C 0.14263 0.21665 0.92889 0.0
O150 O 0.13909 0.23995 0.92046 0.0
O151 O 0.17722 0.22707 0.93362 0.0
O152 O 0.17256 0.34009 0.92442 0.0
O153 O 0.2004 0.31006 0.93579 0.0
O154 O 0.02697 0.29095 0.2395 0.0
Cd155 Cd 0.03588 0.28846 0.25835 0.0
Cd156 Cd 0.95483 0.22421 0.25703 0.0
O157 O 0.96215 0.24524 0.23836 0.0
O158 O 0.07555 0.34503 0.2632 0.0
O159 O 0.01083 0.31213 0.26815 0.0
C160 C 0.04512 0.34478 0.26823 0.0
C161 C 0.90814 0.21895 0.27164 0.0
C162 C 0.99545 0.27217 0.23317 0.0
C163 C 0.01924 0.20414 0.26653 0.0
O164 O 0.9836 0.19258 0.26286 0.0
O165 O 0.04536 0.24181 0.26616 0.0
O166 O 0.89788 0.19103 0.26412 0.0
O167 O 0.94299 0.25079 0.26998 0.0
H168 H 0.04616 0.34333 0.22002 0.0
H169 H 0.0571 0.35627 0.19762 0.0
H170 H 0.96664 0.23223 0.19316 0.0
H171 H 0.95403 0.21992 0.21555 0.0
H172 H 0.0853 0.32782 0.18272 0.0
H173 H 0.93187 0.28627 0.16709 0.0
H174 H 0.94518 0.2911 0.18315 0.0
H175 H 0.93216 0.24491 0.17621 0.0
C176 C 0.02803 0.31904 0.21423 0.0
C177 C 0.99894 0.28071 0.21953 0.0
C178 C 0.03446 0.3264 0.20142 0.0
C179 C 0.01242 0.29545 0.19358 0.0
C180 C 0.98323 0.25708 0.19889 0.0
H181 H 0.09421 0.29924 0.11848 0.0
H182 H 0.0862 0.29406 0.14102 0.0
C183 C 0.97611 0.24997 0.21171 0.0
C184 C 0.02156 0.30302 0.17999 0.0
H185 H 0.97836 0.29257 0.15163 0.0
C186 C 0.06189 0.32045 0.17593 0.0
C187 C 0.99128 0.29402 0.17105 0.0
C188 C 0.9478 0.27847 0.1746 0.0
C189 C 0.07271 0.32885 0.16328 0.0
C190 C 0.0422 0.31798 0.15434 0.0
C191 C 1.00191 0.30074 0.15841 0.0
C192 C 0.05094 0.32451 0.14073 0.0
C193 C 0.11686 0.35033 0.15971 0.0
C194 C 0.0337 0.34302 0.13293 0.0
C195 C 0.03731 0.34486 0.12008 0.0
C196 C 0.05906 0.32913 0.1147 0.0
C197 C 0.0781 0.31245 0.12242 0.0
C198 C 0.07356 0.30958 0.13532 0.0
H199 H 0.13586 0.3685 0.1672 0.0
H200 H 0.12585 0.32747 0.15814 0.0
H201 H 0.12336 0.37084 0.15113 0.0
H202 H 0.01623 0.35492 0.13679 0.0
H203 H 0.02206 0.35756 0.11432 0.0
H204 H 0.84925 0.10027 0.45626 0.0
H205 H 0.84542 0.09291 0.47901 0.0
H206 H 0.73717 0.97695 0.47807 0.0
H207 H 0.74066 0.98393 0.45552 0.0
H208 H 0.73509 0.02962 0.49542 0.0
H209 H 0.86943 0.00919 0.49986 0.0
H210 H 0.87571 0.05343 0.49053 0.0
H211 H 0.84283 0.00395 0.48554 0.0
C212 C 0.82437 0.07351 0.46091 0.0
C213 C 0.79544 0.04258 0.45407 0.0
C214 C 0.82238 0.0692 0.47389 0.0
C215 C 0.7913 0.0341 0.48021 0.0
C216 C 0.7615 0.00415 0.47339 0.0
H217 H 0.77051 0.93 0.55627 0.0
H218 H 0.771 0.9414 0.53362 0.0
C219 C 0.76363 0.00822 0.46048 0.0
C220 C 0.79004 0.02753 0.49391 0.0
H221 H 0.83742 0.00753 0.51838 0.0
C222 C 0.75756 0.02501 0.50046 0.0
C223 C 0.819 0.02079 0.50042 0.0
C224 C 0.85363 0.02163 0.49378 0.0
C225 C 0.75351 0.01635 0.51337 0.0
C226 C 0.78277 0.01016 0.5199 0.0
C227 C 0.81506 0.01231 0.51335 0.0
C228 C 0.78094 0.0025 0.53357 0.0
C229 C 0.71765 0.01327 0.51993 0.0
C230 C 0.78639 0.03303 0.54102 0.0
C231 C 0.78629 0.02672 0.55389 0.0
C232 C 0.78069 0.98963 0.55964 0.0
C233 C 0.77467 0.95879 0.55216 0.0
C234 C 0.7751 0.96531 0.53922 0.0
H235 H 0.69352 0.00987 0.5134 0.0
H236 H 0.70499 0.98712 0.52706 0.0
H237 H 0.72733 0.04127 0.52465 0.0
H238 H 0.79142 0.0621 0.53685 0.0
H239 H 0.79102 0.05118 0.55933 0.0
H240 H 0.76006 0.69808 0.79544 0.0
H241 H 0.75606 0.6901 0.81799 0.0
H242 H 0.73562 0.79161 0.81818 0.0
H243 H 0.73959 0.79998 0.79547 0.0
H244 H 0.79864 0.79314 0.83454 0.0
H245 H 0.65377 0.64779 0.84053 0.0
H246 H 0.69001 0.64874 0.83006 0.0
H247 H 0.66804 0.68035 0.82629 0.0
C248 C 0.75439 0.71862 0.80022 0.0
C249 C 0.75009 0.7497 0.7936 0.0
C250 C 0.75198 0.71385 0.81314 0.0
C251 C 0.74526 0.74004 0.81976 0.0
C252 C 0.74069 0.77098 0.81323 0.0
H253 H 0.68722 0.73133 0.89616 0.0
H254 H 0.68936 0.73092 0.87375 0.0
C255 C 0.7428 0.77561 0.80026 0.0
C256 C 0.74433 0.7358 0.83349 0.0
H257 H 0.69106 0.67227 0.8586 0.0
C258 C 0.77517 0.76673 0.83981 0.0
C259 C 0.71364 0.7013 0.84033 0.0
C260 C 0.67925 0.6677 0.834 0.0
C261 C 0.77617 0.76404 0.85281 0.0
C262 C 0.74565 0.72939 0.85965 0.0
C263 C 0.71472 0.69853 0.85333 0.0
C264 C 0.74345 0.72634 0.87337 0.0
C265 C 0.80927 0.79868 0.85917 0.0
C266 C 0.77265 0.72279 0.88067 0.0
C267 C 0.77138 0.7227 0.8936 0.0
C268 C 0.74107 0.72655 0.89938 0.0
C269 C 0.71119 0.72866 0.89202 0.0
C270 C 0.71228 0.72836 0.87919 0.0
H271 H 0.82689 0.82586 0.85263 0.0
H272 H 0.79651 0.80726 0.86668 0.0
H273 H 0.83017 0.789 0.86342 0.0
H274 H 0.79673 0.72075 0.87635 0.0
H275 H 0.79484 0.72109 0.89899 0.0
H276 H 0.02864 0.7602 0.12488 0.0
H277 H 0.04838 0.76097 0.14642 0.0
H278 H 0.92628 0.71947 0.15827 0.0
H279 H 0.90595 0.71827 0.13661 0.0
H280 H 0.04318 0.80759 0.16372 0.0
H281 H 0.95582 0.64389 0.17956 0.0
H282 H 0.96413 0.66212 0.16339 0.0
H283 H 0.92624 0.66425 0.17226 0.0
C284 C 0.00571 0.75077 0.13203 0.0
C285 C 0.96558 0.73918 0.12895 0.0
C286 C 0.01717 0.75129 0.14437 0.0
C287 C 0.98884 0.73999 0.15398 0.0
C288 C 0.94857 0.72765 0.15101 0.0
H289 H 0.99019 0.74633 0.23248 0.0
H290 H 0.97601 0.7363 0.21074 0.0
C291 C 0.937 0.72712 0.13861 0.0
C292 C 1.00218 0.74347 0.16705 0.0
H293 H 0.98725 0.6896 0.19513 0.0
C294 C 0.03123 0.78173 0.17057 0.0
C295 C 0.98668 0.7097 0.17597 0.0
C296 C 0.95676 0.66757 0.17262 0.0
C297 C 0.04413 0.78745 0.18286 0.0
C298 C 0.02816 0.7538 0.19184 0.0
C299 C 0.99965 0.71537 0.18825 0.0
C300 C 0.03785 0.7584 0.20519 0.0
C301 C 0.0735 0.82977 0.18621 0.0
C302 C 0.07746 0.77356 0.20944 0.0
C303 C 0.08589 0.77957 0.22201 0.0
C304 C 0.05478 0.7704 0.23053 0.0
C305 C 0.01508 0.75408 0.22623 0.0
C306 C 0.00678 0.74814 0.21375 0.0
H307 H 0.07623 0.85327 0.17888 0.0
H308 H 0.06416 0.8359 0.19501 0.0
H309 H 0.10371 0.83274 0.18749 0.0
H310 H 0.10187 0.78099 0.20302 0.0
H311 H 0.11672 0.79198 0.22501 0.0
H312 H 0.36728 0.10225 0.55452 0.0
H313 H 0.36471 0.0889 0.53261 0.0
H314 H 0.30622 0.96041 0.54315 0.0
H315 H 0.3083 0.97317 0.5648 0.0
H316 H 0.39418 0.04464 0.51975 0.0
H317 H 0.2275 0.97193 0.5188 0.0
H318 H 0.25679 0.00262 0.53097 0.0
H319 H 0.24607 0.95101 0.53101 0.0
C320 C 0.35415 0.07121 0.55216 0.0
C321 C 0.33756 0.03883 0.56144 0.0
C322 C 0.35267 0.06362 0.53965 0.0
C323 C 0.33449 0.02357 0.53623 0.0
C324 C 0.31954 0.99147 0.54553 0.0
H325 H 0.271 0.91083 0.46594 0.0
H326 H 0.28435 0.92267 0.48793 0.0
C327 C 0.32091 0.99894 0.55794 0.0
C328 C 0.33012 0.01478 0.52301 0.0
H329 H 0.2597 0.96618 0.50134 0.0
C330 C 0.36481 0.02768 0.51569 0.0
C331 C 0.29176 0.99233 0.51775 0.0
C332 C 0.25336 0.97893 0.52499 0.0
C333 C 0.36214 0.01826 0.50332 0.0
C334 C 0.32374 0.99592 0.49805 0.0
C335 C 0.2891 0.98293 0.50539 0.0
C336 C 0.31869 0.98811 0.48472 0.0
C337 C 0.40048 0.03176 0.49605 0.0
C338 C 0.33358 0.02082 0.47563 0.0
C339 C 0.32599 0.01417 0.46314 0.0
C340 C 0.30307 0.97457 0.4594 0.0
C341 C 0.28892 0.94165 0.46848 0.0
C342 C 0.29643 0.9484 0.48105 0.0
H343 H 0.42589 0.03697 0.50225 0.0
H344 H 0.3966 0.00901 0.48961 0.0
H345 H 0.40878 0.06079 0.49052 0.0
H346 H 0.35004 0.05173 0.4782 0.0
H347 H 0.33742 0.04034 0.45644 0.0
H348 H 0.34442 0.22563 0.79397 0.0
H349 H 0.34039 0.23728 0.81572 0.0
H350 H 0.27319 0.29806 0.80506 0.0
H351 H 0.27738 0.28715 0.78353 0.0
H352 H 0.33246 0.33808 0.82233 0.0
H353 H 0.23632 0.17387 0.83701 0.0
H354 H 0.28356 0.18812 0.82959 0.0
H355 H 0.24539 0.1932 0.82095 0.0
C356 C 0.32911 0.24176 0.79627 0.0
C357 C 0.31091 0.25506 0.78699 0.0
C358 C 0.3266 0.24818 0.8087 0.0
C359 C 0.30593 0.26804 0.81204 0.0
C360 C 0.28913 0.28256 0.80274 0.0
H361 H 0.22465 0.32475 0.87797 0.0
H362 H 0.24399 0.32213 0.85681 0.0
C363 C 0.29147 0.27608 0.7904 0.0
C364 C 0.30033 0.27287 0.82519 0.0
H365 H 0.25269 0.21947 0.8523 0.0
C366 C 0.31523 0.31216 0.82892 0.0
C367 C 0.27761 0.23905 0.83375 0.0
C368 C 0.25945 0.19613 0.83016 0.0
C369 C 0.30815 0.31854 0.84097 0.0
C370 C 0.28486 0.2847 0.84947 0.0
C371 C 0.27047 0.24543 0.84578 0.0
C372 C 0.27518 0.289 0.86228 0.0
C373 C 0.32611 0.36145 0.84453 0.0
C374 C 0.28587 0.27103 0.87239 0.0
C375 C 0.27458 0.27216 0.88442 0.0
C376 C 0.25214 0.29126 0.88669 0.0
C377 C 0.24211 0.31006 0.87657 0.0
C378 C 0.25334 0.30873 0.86447 0.0
H379 H 0.35179 0.38309 0.83831 0.0
H380 H 0.30279 0.37074 0.84382 0.0
H381 H 0.33672 0.36385 0.85421 0.0
H382 H 0.30265 0.25562 0.87096 0.0
H383 H 0.28304 0.25748 0.89196 0.0
H384 H 0.18365 0.36026 0.04751 0.0
H385 H 0.20142 0.37475 0.02543 0.0
H386 H 0.11134 0.41065 0.0191 0.0
H387 H 0.09322 0.39602 0.0411 0.0
H388 H 0.10136 0.3501 1.00493 0.0
H389 H 0.25943 0.47513 1.00096 0.0
H390 H 0.25216 0.43475 0.0123 0.0
H391 H 0.22819 0.4642 0.01455 0.0
C392 C 0.1685 0.37247 0.0415 0.0
C393 C 0.13688 0.37677 0.04608 0.0
C394 C 0.17876 0.38085 0.02885 0.0
C395 C 0.15784 0.39399 0.02059 0.0
C396 C 0.12796 0.40064 0.02529 0.0
H397 H 0.14366 0.37301 0.93961 0.0
H398 H 0.13761 0.39615 0.95954 0.0
C399 C 0.1177 0.3923 0.0379 0.0
C400 C 0.16333 0.39549 1.00699 0.0
H401 H 0.23421 0.4345 0.98366 0.0
C402 C 0.13022 0.36912 1.00021 0.0
C403 C 0.20097 0.42029 1.00086 0.0
C404 C 0.23714 0.45049 1.00751 0.0
C405 C 0.13423 0.36505 0.98765 0.0
C406 C 0.17228 0.38875 0.9816 0.0
C407 C 0.20501 0.41645 0.98826 0.0
C408 C 0.17982 0.38125 0.96896 0.0
C409 C 0.09824 0.33355 0.98122 0.0
C410 C 0.20712 0.36742 0.96744 0.0
C411 C 0.21085 0.35467 0.95613 0.0
C412 C 0.18738 0.35545 0.94601 0.0
C413 C 0.16196 0.37185 0.94725 0.0
C414 C 0.15824 0.38472 0.95865 0.0
H415 H 0.07346 0.31265 0.98783 0.0
H416 H 0.08647 0.34894 0.97462 0.0
H417 H 0.10684 0.31524 0.97591 0.0
H418 H 0.22428 0.36466 0.97519 0.0
H419 H 0.23118 0.34275 0.95546 0.0
H420 H 0.77191 0.10713 0.3834 0.0
H421 H 0.77642 0.12987 0.36143 0.0
H422 H 0.90447 0.20822 0.36435 0.0
H423 H 0.90031 0.18566 0.38639 0.0
H424 H 0.81395 0.21193 0.34649 0.0
H425 H 0.88495 0.11733 0.34044 0.0
H426 H 0.85697 0.11207 0.35429 0.0
H427 H 0.90711 0.15407 0.3517 0.0
C428 C 0.8009 0.1301 0.37947 0.0
C429 C 0.83585 0.14432 0.38662 0.0
C430 C 0.80337 0.14306 0.3669 0.0
C431 C 0.84082 0.17026 0.36125 0.0
C432 C 0.87531 0.18698 0.36855 0.0
H433 H 0.91747 0.27564 0.28706 0.0
H434 H 0.89349 0.26291 0.30847 0.0
C435 C 0.87285 0.17422 0.38116 0.0
C436 C 0.8444 0.17707 0.34757 0.0
H437 H 0.87955 0.15416 0.32263 0.0
C438 C 0.82827 0.19937 0.34124 0.0
C439 C 0.8623 0.15985 0.34076 0.0
C440 C 0.87861 0.1342 0.34708 0.0
C441 C 0.83064 0.20584 0.32824 0.0
C442 C 0.84964 0.18958 0.32146 0.0
C443 C 0.86487 0.16651 0.32782 0.0
C444 C 0.85659 0.19796 0.30785 0.0
C445 C 0.81261 0.22973 0.32185 0.0
C446 C 0.84293 0.1658 0.30022 0.0
C447 C 0.8566 0.173 0.28791 0.0
C448 C 0.88463 0.21245 0.2831 0.0
C449 C 0.89584 0.24489 0.29048 0.0
C450 C 0.88201 0.23769 0.30274 0.0
H451 H 0.78957 0.23001 0.32782 0.0
H452 H 0.83678 0.26159 0.3197 0.0
H453 H 0.79857 0.21713 0.31303 0.0
H454 H 0.82342 0.13486 0.304 0.0
H455 H 0.84763 0.14735 0.28251 0.0
H456 H 0.6522 0.74962 0.72767 0.0
H457 H 0.63664 0.75611 0.70584 0.0
H458 H 0.73563 0.87929 0.70239 0.0
H459 H 0.74893 0.87382 0.72438 0.0
H460 H 0.68214 0.87554 0.6876 0.0
H461 H 0.70014 0.74275 0.68072 0.0
H462 H 0.65791 0.73003 0.69058 0.0
H463 H 0.70831 0.76386 0.69542 0.0
C464 C 0.6696 0.7785 0.72232 0.0
C465 C 0.70175 0.81123 0.72769 0.0
C466 C 0.66122 0.78197 0.70978 0.0
C467 C 0.68607 0.81757 0.70227 0.0
C468 C 0.71618 0.85128 0.7079 0.0
H469 H 0.76095 0.8466 0.62707 0.0
H470 H 0.74206 0.82441 0.64884 0.0
C471 C 0.72366 0.84827 0.72052 0.0
C472 C 0.68293 0.8193 0.68851 0.0
H473 H 0.68532 0.7731 0.66313 0.0
C474 C 0.68274 0.85306 0.68225 0.0
C475 C 0.68428 0.79026 0.68146 0.0
C476 C 0.68809 0.75494 0.68737 0.0
C477 C 0.68547 0.85953 0.66928 0.0
C478 C 0.68593 0.83004 0.66223 0.0
C479 C 0.68453 0.79548 0.66847 0.0
C480 C 0.69227 0.83653 0.64851 0.0
C481 C 0.69045 0.89923 0.66342 0.0
C482 C 0.66913 0.84831 0.64078 0.0
C483 C 0.6807 0.86211 0.62839 0.0
C484 C 0.71438 0.86246 0.62335 0.0
C485 C 0.73456 0.84618 0.63067 0.0
C486 C 0.72388 0.83374 0.64317 0.0
H487 H 0.7008 0.92259 0.67018 0.0
H488 H 0.71255 0.91143 0.65558 0.0
H489 H 0.66101 0.89442 0.65992 0.0
H490 H 0.64349 0.84901 0.64448 0.0
H491 H 0.66463 0.87451 0.62291 0.0
H492 H 0.78743 0.70074 0.07326 0.0
H493 H 0.75858 0.68376 0.05272 0.0
H494 H 0.83571 0.63425 0.04622 0.0
H495 H 0.86407 0.65054 0.06666 0.0
H496 H 0.80732 0.72062 0.0323 0.0
H497 H 0.73271 0.55432 0.03032 0.0
H498 H 0.74352 0.57775 0.04475 0.0
H499 H 0.78225 0.57483 0.03658 0.0
C500 C 0.79697 0.68469 0.06766 0.0
C501 C 0.82815 0.67715 0.07156 0.0
C502 C 0.78066 0.67523 0.05588 0.0
C503 C 0.79485 0.65758 0.04791 0.0
C504 C 0.82366 0.64713 0.05223 0.0
H505 H 0.83435 0.69988 0.96916 0.0
H506 H 0.83745 0.68533 0.9915 0.0
C507 C 0.84005 0.6567 0.06393 0.0
C508 C 0.78484 0.65617 0.03456 0.0
H509 H 0.75373 0.59476 0.01071 0.0
C510 C 0.79501 0.69295 0.02764 0.0
C511 C 0.76894 0.62012 0.02843 0.0
C512 C 0.75586 0.57946 0.03543 0.0
C513 C 0.79107 0.69492 0.01474 0.0
C514 C 0.77684 0.65925 0.00857 0.0
C515 C 0.76525 0.62215 0.01548 0.0
C516 C 0.7737 0.66063 0.99492 0.0
C517 C 0.80266 0.73527 1.00773 0.0
C518 C 0.73658 0.65009 0.98943 0.0
C519 C 0.73472 0.65848 0.9767 0.0
C520 C 0.76996 0.67741 0.96923 0.0
C521 C 0.80666 0.68513 0.97463 0.0
C522 C 0.80851 0.67697 0.9874 0.0
H523 H 0.80824 0.75902 0.014 0.0
H524 H 0.83052 0.74549 1.00216 0.0
H525 H 0.77857 0.73223 1.00124 0.0
H526 H 0.70943 0.63753 0.9951 0.0
H527 H 0.70595 0.6521 0.97283 0.0
H528 H 0.22002 0.82233 0.29023 0.0
H529 H 0.24596 0.82188 0.31123 0.0
H530 H 0.13472 0.80402 0.32659 0.0
H531 H 0.10829 0.80207 0.30604 0.0
H532 H 0.26393 0.86904 0.32814 0.0
H533 H 0.14456 0.72399 0.34916 0.0
H534 H 0.14761 0.73658 0.33266 0.0
H535 H 0.1204 0.75096 0.34261 0.0
C536 C 0.20098 0.81754 0.29814 0.0
C537 C 0.16194 0.81173 0.29645 0.0
C538 C 0.21577 0.81728 0.31014 0.0
C539 C 0.19189 0.8116 0.32063 0.0
C540 C 0.15321 0.80647 0.31882 0.0
H541 H 0.25411 0.93198 0.38447 0.0
H542 H 0.24733 0.90795 0.36417 0.0
C543 C 0.13824 0.80587 0.30696 0.0
C544 C 0.20793 0.81482 0.33344 0.0
H545 H 0.17656 0.77861 0.36337 0.0
C546 C 0.24521 0.8486 0.33581 0.0
C547 C 0.18476 0.7875 0.34357 0.0
C548 C 0.1474 0.74751 0.3418 0.0
C549 C 0.25778 0.85788 0.34796 0.0
C550 C 0.23151 0.83398 0.35806 0.0
C551 C 0.19629 0.79794 0.35572 0.0
C552 C 0.23751 0.84833 0.37074 0.0
C553 C 0.29891 0.89371 0.34978 0.0
C554 C 0.23223 0.82233 0.38146 0.0
C555 C 0.2348 0.83579 0.3933 0.0
C556 C 0.24307 0.87559 0.39459 0.0
C557 C 0.24845 0.90136 0.38386 0.0
C558 C 0.24506 0.88775 0.37215 0.0
H559 H 0.32066 0.89636 0.34266 0.0
H560 H 0.29713 0.92202 0.34863 0.0
H561 H 0.31078 0.8913 0.35907 0.0
H562 H 0.22579 0.79155 0.38067 0.0
H563 H 0.23032 0.81518 0.4014 0.0
H564 H 0.40673 0.10298 0.63103 0.0
H565 H 0.41913 0.12335 0.65214 0.0
H566 H 0.39162 0.21871 0.64182 0.0
H567 H 0.37962 0.19871 0.62048 0.0
H568 H 0.45683 0.23849 0.65981 0.0
H569 H 0.31709 0.0932 0.67296 0.0
H570 H 0.35485 0.08839 0.66494 0.0
H571 H 0.33054 0.11373 0.65709 0.0
C572 C 0.40428 0.12897 0.63316 0.0
C573 C 0.39181 0.14903 0.62412 0.0
C574 C 0.41123 0.14045 0.64525 0.0
C575 C 0.40539 0.17191 0.64862 0.0
C576 C 0.39607 0.19417 0.63941 0.0
H577 H 0.37431 0.25943 0.71514 0.0
H578 H 0.39297 0.25283 0.69455 0.0
C579 C 0.3894 0.18286 0.62722 0.0
C580 C 0.40503 0.17862 0.66191 0.0
H581 H 0.35276 0.13321 0.68909 0.0
C582 C 0.43417 0.2155 0.66623 0.0
C583 C 0.37551 0.1485 0.6703 0.0
C584 C 0.34248 0.10883 0.66612 0.0
C585 C 0.43459 0.22298 0.67874 0.0
C586 C 0.40464 0.19307 0.68708 0.0
C587 C 0.37596 0.15599 0.68276 0.0
C588 C 0.39986 0.20063 0.70001 0.0
C589 C 0.46728 0.26275 0.68292 0.0
C590 C 0.39765 0.17361 0.71008 0.0
C591 C 0.38669 0.1772 0.72196 0.0
C592 C 0.37722 0.20755 0.72393 0.0
C593 C 0.38136 0.23565 0.71395 0.0
C594 C 0.39241 0.23215 0.70215 0.0
H595 H 0.49465 0.27569 0.67688 0.0
H596 H 0.45628 0.28486 0.68236 0.0
H597 H 0.47571 0.25915 0.69262 0.0
H598 H 0.40297 0.14884 0.70864 0.0
H599 H 0.38349 0.15494 0.72943 0.0
H600 H 0.9384 0.66001 0.06549 0.0
H601 H 0.93818 0.59791 0.0614 0.0
H602 H 0.05842 0.64597 0.07544 0.0
H603 H 0.05876 0.70846 0.07969 0.0
H604 H 0.98849 0.57922 0.04772 0.0
H605 H 0.98929 0.54161 0.09835 0.0
H606 H 0.97969 0.58135 0.09201 0.0
H607 H 0.03027 0.58978 0.09243 0.0
C608 C 0.96516 0.65778 0.06751 0.0
C609 C 0.9985 0.68907 0.07303 0.0
C610 C 0.96496 0.6222 0.06515 0.0
C611 C 0.99794 0.61695 0.06833 0.0
C612 C 0.03237 0.64915 0.0731 0.0
H613 H 0.03398 0.41561 0.05504 0.0
H614 H 0.0341 0.47997 0.05348 0.0
C615 C 0.03268 0.68499 0.07542 0.0
C616 C 0.99473 0.57669 0.06749 0.0
H617 H 0.98988 0.49572 0.08523 0.0
C618 C 0.98897 0.56099 0.0559 0.0
C619 C 0.99442 0.55255 0.07822 0.0
C620 C 0.99839 0.56687 0.09099 0.0
C621 C 0.98352 0.52207 0.05473 0.0
C622 C 0.98412 0.49834 0.06544 0.0
C623 C 0.98943 0.5139 0.07703 0.0
C624 C 0.98046 0.45774 0.06489 0.0
C625 C 0.97644 0.50638 0.04209 0.0
C626 C 0.9499 0.42347 0.07167 0.0
C627 C 0.94971 0.38643 0.07258 0.0
C628 C 0.9804 0.38314 0.06684 0.0
C629 C 0.00978 0.41699 0.05954 0.0
C630 C 0.00985 0.45389 0.0586 0.0
H631 H 0.96587 0.52299 0.03551 0.0
H632 H 1.00514 0.5106 0.03835 0.0
H633 H 0.95392 0.47352 0.04258 0.0
H634 H 0.92697 0.42576 0.07663 0.0
H635 H 0.92685 0.36111 0.07835 0.0
H636 H 0.69993 0.03131 0.39193 0.0
H637 H 0.637 0.03311 0.38967 0.0
H638 H 0.57755 0.92706 0.41544 0.0
H639 H 0.64047 0.92481 0.41772 0.0
H640 H 0.55047 0.9679 0.38417 0.0
H641 H 0.57586 0.02688 0.43067 0.0
H642 H 0.6159 0.02905 0.42156 0.0
H643 H 0.57917 0.98181 0.42936 0.0
C644 C 0.67323 0.00772 0.39689 0.0
C645 C 0.67524 0.97799 0.40506 0.0
C646 C 0.6373 0.00885 0.39559 0.0
C647 C 0.60284 0.98054 0.4025 0.0
C648 C 0.60398 0.94932 0.41008 0.0
H649 H 0.36012 0.93589 0.40622 0.0
H650 H 0.42187 0.93442 0.40223 0.0
C651 C 0.63987 0.94792 0.41131 0.0
C652 C 0.56702 0.98598 0.40263 0.0
H653 H 0.51588 0.01524 0.42076 0.0
C654 C 0.54284 0.97825 0.39215 0.0
C655 C 0.55766 1.00024 0.41296 0.0
C656 C 0.58354 0.01031 0.42428 0.0
C657 C 0.50878 0.98335 0.39189 0.0
C658 C 0.49878 0.99652 0.40238 0.0
C659 C 0.52363 0.00523 0.41272 0.0
C660 C 0.46127 0.99887 0.4032 0.0
C661 C 0.48379 0.97473 0.3804 0.0
C662 C 0.46278 0.03573 0.40499 0.0
C663 C 0.42729 0.03674 0.40722 0.0
C664 C 0.38989 1.00072 0.40794 0.0
C665 C 0.38849 0.96417 0.40574 0.0
C666 C 0.42376 0.96328 0.40338 0.0
H667 H 0.5009 0.97536 0.37218 0.0
H668 H 0.45687 0.94408 0.3818 0.0
H669 H 0.47328 0.99707 0.37848 0.0
H670 H 0.4915 0.06352 0.40497 0.0
H671 H 0.42933 0.06525 0.40897 0.0
H672 H 0.42932 0.32698 0.74249 0.0
H673 H 0.49257 0.39071 0.74031 0.0
H674 H 0.42801 0.45478 0.73032 0.0
H675 H 0.3638 0.3906 0.7329 0.0
H676 H 0.53137 0.44839 0.72189 0.0
H677 H 0.49128 0.51344 0.7594 0.0
H678 H 0.4613 0.46095 0.75629 0.0
H679 H 0.45736 0.49972 0.74669 0.0
C680 C 0.42835 0.35452 0.73976 0.0
C681 C 0.39132 0.35369 0.73804 0.0
C682 C 0.46473 0.39104 0.73848 0.0
C683 C 0.46519 0.42778 0.73541 0.0
C684 C 0.42842 0.42695 0.73301 0.0
H685 H 0.66593 0.67528 0.73472 0.0
H686 H 0.60274 0.61498 0.73046 0.0
C687 C 0.39174 0.39021 0.73437 0.0
C688 C 0.50422 0.46661 0.73531 0.0
H689 H 0.55464 0.55461 0.74958 0.0
C690 C 0.53637 0.4717 0.7279 0.0
C691 C 0.51098 0.49696 0.74324 0.0
C692 C 0.47859 0.49249 0.75195 0.0
C693 C 0.57491 0.50611 0.72824 0.0
C694 C 0.58161 0.53615 0.73623 0.0
C695 C 0.54939 0.53152 0.74344 0.0
C696 C 0.62189 0.57246 0.73747 0.0
C697 C 0.60818 0.51017 0.72003 0.0
C698 C 0.65407 0.56867 0.74265 0.0
C699 C 0.69046 0.60326 0.74515 0.0
C700 C 0.6952 0.64221 0.74254 0.0
C701 C 0.66341 0.6458 0.73688 0.0
C702 C 0.62715 0.61132 0.73444 0.0
H703 H 0.59623 0.48945 0.7125 0.0
H704 H 0.6264 0.54183 0.71586 0.0
H705 H 0.62846 0.50247 0.72567 0.0
H706 H 0.65048 0.53893 0.74523 0.0
H707 H 0.71419 0.59941 0.74958 0.0
H708 H 0.44953 0.07631 0.60852 0.0
H709 H 0.51231 0.0756 0.61171 0.0
H710 H 0.44609 0.94566 0.6197 0.0
H711 H 0.38248 0.94595 0.61606 0.0
H712 H 0.54515 0.05304 0.63058 0.0
H713 H 0.51974 0.95709 0.59186 0.0
H714 H 0.48805 0.97838 0.5946 0.0
H715 H 0.48163 0.934 0.60386 0.0
C716 C 0.44807 0.04745 0.611 0.0
C717 C 0.41086 0.01104 0.61186 0.0
C718 C 0.48417 0.04717 0.61287 0.0
C719 C 0.48415 0.01055 0.61569 0.0
C720 C 0.44697 0.97424 0.61721 0.0
H721 H 0.68691 0.96604 0.6192 0.0
H722 H 0.62222 0.96189 0.62284 0.0
C723 C 0.4106 0.97444 0.61524 0.0
C724 C 0.52332 0.01094 0.61647 0.0
H725 H 0.57969 0.97737 0.60285 0.0
C726 C 0.55259 0.0363 0.62456 0.0
C727 C 0.53328 0.98941 0.60854 0.0
C728 C 0.50423 0.96347 0.59914 0.0
C729 C 0.59143 0.04084 0.62488 0.0
C730 C 0.60135 0.01958 0.61688 0.0
C731 C 0.57193 0.99358 0.609 0.0
C732 C 0.64225 0.02428 0.61627 0.0
C733 C 0.62161 0.06827 0.63376 0.0
C734 C 0.6754 0.0611 0.61161 0.0
C735 C 0.71266 0.06363 0.60946 0.0
C736 C 0.71728 0.02931 0.61192 0.0
C737 C 0.68449 0.9931 0.61717 0.0
C738 C 0.64737 0.99059 0.61925 0.0
H739 H 0.60693 0.07543 0.64109 0.0
H740 H 0.63865 0.05413 0.63819 0.0
H741 H 0.64351 0.09718 0.62859 0.0
H742 H 0.67196 0.08735 0.60909 0.0
H743 H 0.73718 0.09185 0.60534 0.0
H744 H 0.306 0.40817 0.92757 0.0
H745 H 0.3655 0.47077 0.93241 0.0
H746 H 0.41415 0.40187 0.95215 0.0
H747 H 0.3546 0.33844 0.94701 0.0
H748 H 0.39881 0.50294 0.95378 0.0
H749 H 0.50488 0.47497 0.92784 0.0
H750 H 0.45096 0.44433 0.92673 0.0
H751 H 0.47637 0.43639 0.93994 0.0
C752 C 0.32926 0.40609 0.93296 0.0
C753 C 0.3257 0.36815 0.93677 0.0
C754 C 0.36329 0.44209 0.93576 0.0
C755 C 0.39473 0.44122 0.94246 0.0
C756 C 0.39072 0.40338 0.94671 0.0
H757 H 0.63299 0.6409 0.95708 0.0
H758 H 0.56981 0.57648 0.95882 0.0
C759 C 0.35657 0.36712 0.94384 0.0
C760 C 0.43184 0.48017 0.94458 0.0
H761 H 0.53289 0.53503 0.93798 0.0
C762 C 0.42817 0.50986 0.95038 0.0
C763 C 0.47018 0.48941 0.94008 0.0
C764 C 0.47597 0.45982 0.9332 0.0
C765 C 0.46164 0.54843 0.95175 0.0
C766 C 0.49977 0.55772 0.94712 0.0
C767 C 0.50363 0.52781 0.94156 0.0
C768 C 0.53608 0.59852 0.94757 0.0
C769 C 0.45596 0.57888 0.95816 0.0
C770 C 0.53795 0.6328 0.94092 0.0
C771 C 0.57419 0.66992 0.93991 0.0
C772 C 0.60925 0.6733 0.94547 0.0
C773 C 0.60662 0.63944 0.95266 0.0
C774 C 0.57051 0.60247 0.95365 0.0
H775 H 0.42784 0.56404 0.96391 0.0
H776 H 0.48188 0.59629 0.96414 0.0
H777 H 0.45398 0.60067 0.9511 0.0
H778 H 0.51194 0.63035 0.93599 0.0
H779 H 0.57523 0.69524 0.93422 0.0
H780 H 0.97203 0.63399 0.28115 0.0
H781 H 0.97331 0.56974 0.28324 0.0
H782 H 0.10313 0.63637 0.28202 0.0
H783 H 0.10222 0.70011 0.28002 0.0
H784 H 0.0609 0.57801 0.26295 0.0
H785 H 0.0134 0.51256 0.31152 0.0
H786 H 0.98561 0.53347 0.30316 0.0
H787 H 0.03674 0.56647 0.30721 0.0
C788 C 1.00077 0.63485 0.28167 0.0
C789 C 0.03698 0.67208 0.2803 0.0
C790 C 1.00148 0.5982 0.28286 0.0
C791 C 0.03836 0.59843 0.28277 0.0
C792 C 0.0744 0.63557 0.28211 0.0
H793 H 0.11111 0.42132 0.26826 0.0
H794 H 0.11164 0.48331 0.2731 0.0
C795 C 0.07375 0.67197 0.28094 0.0
C796 C 0.03988 0.5606 0.28188 0.0
H797 H 0.02522 0.47346 0.29821 0.0
C798 C 0.05319 0.55514 0.27066 0.0
C799 C 0.02959 0.53089 0.29193 0.0
C800 C 0.01567 0.53591 0.3042 0.0
C801 C 0.05607 0.52045 0.26913 0.0
C802 C 0.04654 0.4909 0.27926 0.0
C803 C 0.03301 0.49632 0.2905 0.0
C804 C 0.04817 0.45314 0.27806 0.0
C805 C 0.06808 0.51527 0.25656 0.0
C806 C 0.01302 0.41536 0.27996 0.0
C807 C 0.0128 0.37995 0.2774 0.0
C808 C 0.04777 0.38154 0.27284 0.0
C809 C 0.08363 0.4191 0.27166 0.0
C810 C 0.08387 0.45458 0.27433 0.0
H811 H 0.06401 0.53489 0.24915 0.0
H812 H 0.10038 0.52389 0.25656 0.0
H813 H 0.05017 0.48327 0.25426 0.0
H814 H 0.9852 0.4134 0.28292 0.0
H815 H 0.98467 0.35151 0.27851 0.0
H816 H 0.94402 0.16229 0.07627 0.0
H817 H 0.93145 0.09239 0.07595 0.0
H818 H 0.05321 0.13852 0.06282 0.0
H819 H 0.06607 0.20776 0.06323 0.0
H820 H 0.94101 0.04755 0.05694 0.0
H821 H 0.04579 0.07213 0.09581 0.0
H822 H 0.02604 0.10574 0.0916 0.0
H823 H 0.067 0.10919 0.08279 0.0
C824 C 0.96781 0.15744 0.07311 0.0
C825 C 0.00619 0.19061 0.06995 0.0
C826 C 0.96066 0.11753 0.07296 0.0
C827 C 0.99173 0.11032 0.06964 0.0
C828 C 0.0291 0.14336 0.0657 0.0
H829 H 0.02494 0.8982 0.07409 0.0
H830 H 0.03328 0.96628 0.06946 0.0
C831 C 0.03631 0.18297 0.06591 0.0
C832 C 0.9863 0.0687 0.07087 0.0
H833 H 0.02218 0.01113 0.08619 0.0
C834 C 0.95859 0.03948 0.06336 0.0
C835 C 0.00942 0.05825 0.07923 0.0
C836 C 0.03849 0.08781 0.08791 0.0
C837 C 0.95388 1.00029 0.06384 0.0
C838 C 0.97704 0.98988 0.0722 0.0
C839 C 1.00474 0.01918 0.07969 0.0
C840 C 0.97141 0.94816 0.07392 0.0
C841 C 0.92466 0.97063 0.05523 0.0
C842 C 0.93398 0.91539 0.07795 0.0
C843 C 0.92917 0.87668 0.0806 0.0
C844 C 0.96178 0.86968 0.07936 0.0
C845 C 0.99917 0.90241 0.07509 0.0
C846 C 1.00398 0.94134 0.07247 0.0
H847 H 0.91888 0.98646 0.04703 0.0
H848 H 0.93602 0.95115 0.05201 0.0
H849 H 0.8955 0.95076 0.06022 0.0
H850 H 0.90864 0.91994 0.07943 0.0
H851 H 0.89988 0.85235 0.08387 0.0
H852 H 0.85972 0.94438 0.4138 0.0
H853 H 0.91853 0.93475 0.41253 0.0
H854 H 0.99044 0.05878 0.39738 0.0
H855 H 0.93249 0.06882 0.39886 0.0
H856 H 0.97295 0.94485 0.39357 0.0
H857 H 0.05021 0.05525 0.42867 0.0
H858 H 0.99743 0.03486 0.42545 0.0
H859 H 0.03502 0.07543 0.41537 0.0
C860 C 0.88789 0.96932 0.40999 0.0
C861 C 0.8916 0.00751 0.40659 0.0
C862 C 0.9215 0.96385 0.40931 0.0
C863 C 0.95917 0.9964 0.40518 0.0
C864 C 0.96202 0.03358 0.40093 0.0
H865 H 0.20381 0.03102 0.4052 0.0
H866 H 0.14458 0.03901 0.40085 0.0
C867 C 0.92875 0.03917 0.40172 0.0
C868 C 0.99602 0.99248 0.4059 0.0
H869 H 0.0886 0.03155 0.41913 0.0
C870 C 0.99821 0.96375 0.39917 0.0
C871 C 0.02904 0.01718 0.41321 0.0
C872 C 0.0278 0.04715 0.42118 0.0
C873 C 0.0327 0.95937 0.39946 0.0
C874 C 0.06563 0.98407 0.40678 0.0
C875 C 0.06354 0.01298 0.41342 0.0
C876 C 0.10134 0.9785 0.40843 0.0
C877 C 0.03376 0.92859 0.39185 0.0
C878 C 0.09671 0.942 0.41416 0.0
C879 C 0.1303 0.93748 0.41672 0.0
C880 C 0.16949 0.96941 0.41362 0.0
C881 C 0.17411 0.00581 0.40767 0.0
C882 C 0.14032 0.01041 0.40519 0.0
H883 H 0.01185 0.92052 0.38422 0.0
H884 H 0.06435 0.9401 0.38784 0.0
H885 H 0.02573 0.90048 0.39788 0.0
H886 H 0.06708 0.91727 0.41698 0.0
H887 H 0.12548 0.90897 0.42129 0.0
H888 H 0.16951 0.16392 0.73598 0.0
H889 H 0.10324 0.10323 0.73385 0.0
H890 H 0.15522 0.02688 0.74339 0.0
H891 H 0.22067 0.08668 0.74572 0.0
H892 H 0.07425 0.03422 0.71961 0.0
H893 H 0.06705 0.98989 0.76995 0.0
H894 H 0.1033 0.03959 0.76317 0.0
H895 H 0.11153 0.99729 0.76229 0.0
C896 C 0.16682 0.13419 0.73744 0.0
C897 C 0.20022 0.13014 0.7412 0.0
C898 C 0.12898 0.09955 0.73625 0.0
C899 C 0.1241 0.06048 0.73876 0.0
C900 C 0.15799 0.05662 0.74173 0.0
H901 H 0.91544 0.81525 0.74816 0.0
H902 H 0.98434 0.87245 0.74462 0.0
C903 C 0.19548 0.09095 0.74301 0.0
C904 C 0.08355 0.02357 0.7389 0.0
H905 H 0.01653 0.94196 0.75778 0.0
C906 C 0.06154 0.0141 0.72796 0.0
C907 C 0.067 0.9972 0.74979 0.0
C908 C 0.08822 0.0066 0.762 0.0
C909 C 0.02369 0.97873 0.72758 0.0
C910 C 0.00722 0.95241 0.73848 0.0
C911 C 0.02935 0.96183 0.74939 0.0
C912 C 0.96581 0.91668 0.7391 0.0
C913 C 1.00187 0.96956 0.71549 0.0
C914 C 0.93256 0.92241 0.73706 0.0
C915 C 0.89343 0.89 0.73912 0.0
C916 C 0.88646 0.85096 0.7433 0.0
C917 C 0.91972 0.84481 0.74488 0.0
C918 C 0.95908 0.8775 0.74289 0.0
H919 H 0.02295 0.9853 0.70746 0.0
H920 H 0.9854 0.93645 0.71447 0.0
H921 H 0.97963 0.98028 0.71525 0.0
H922 H 0.93688 0.95238 0.73438 0.0
H923 H 0.86857 0.8959 0.73779 0.0
H924 H 0.88255 0.94177 0.61634 0.0
H925 H 0.94881 0.94871 0.61987 0.0
H926 H 1.0046 0.07686 0.60887 0.0
H927 H 0.93789 0.07024 0.60557 0.0
H928 H 1.00463 0.97072 0.60213 0.0
H929 H 0.06967 0.07675 0.63883 0.0
H930 H 0.01669 0.0519 0.63537 0.0
H931 H 0.05217 0.09618 0.62592 0.0
C932 C 0.90885 0.97166 0.61489 0.0
C933 C 0.90491 0.00547 0.61062 0.0
C934 C 0.94678 0.97554 0.61692 0.0
C935 C 0.98183 0.01329 0.61471 0.0
C936 C 0.97804 0.04752 0.6109 0.0
H937 H 0.23145 0.09888 0.60225 0.0
H938 H 0.16449 0.08853 0.60614 0.0
C939 C 0.93987 0.04371 0.60897 0.0
C940 C 0.02195 0.01569 0.61522 0.0
H941 H 0.11555 0.0649 0.62768 0.0
C942 C 0.02869 0.99093 0.60785 0.0
C943 C 0.05342 0.04205 0.62268 0.0
C944 C 0.04759 0.06795 0.63124 0.0
C945 C 0.06628 0.9928 0.60739 0.0
C946 C 0.098 0.01977 0.61464 0.0
C947 C 0.09113 0.04403 0.62219 0.0
C948 C 0.13948 0.02607 0.61353 0.0
C949 C 0.07224 0.96715 0.59874 0.0
C950 C 0.14815 0.9946 0.6167 0.0
C951 C 0.1868 1.0004 0.61446 0.0
C952 C 0.21727 0.03774 0.60899 0.0
C953 C 0.20869 0.06953 0.60634 0.0
C954 C 0.17037 0.06379 0.60861 0.0
H955 H 0.04715 0.95365 0.59216 0.0
H956 H 0.10093 0.98545 0.59337 0.0
H957 H 0.07382 0.94202 0.60423 0.0
H958 H 0.12486 0.96537 0.62068 0.0
H959 H 0.19244 0.97539 0.61666 0.0
H960 H 0.86369 0.8456 0.95374 0.0
H961 H 0.92091 0.91389 0.95441 0.0
H962 H 0.85181 0.96338 0.93583 0.0
H963 H 0.79373 0.89468 0.93541 0.0
H964 H 0.96 0.962 0.93426 0.0
H965 H 0.90628 0.04222 0.96196 0.0
H966 H 0.8798 0.98768 0.96182 0.0
H967 H 0.87424 0.0187 0.94933 0.0
C968 C 0.86028 0.87106 0.95003 0.0
C969 C 0.82414 0.86468 0.94448 0.0
C970 C 0.89312 0.91014 0.95041 0.0
C971 C 0.89083 0.94396 0.94521 0.0
C972 C 0.85419 0.93793 0.94013 0.0
H973 H 0.06476 0.192 0.92267 0.0
H974 H 1.00509 0.12637 0.92778 0.0
C975 C 0.82098 0.89862 0.93986 0.0
C976 C 0.92801 0.98458 0.94408 0.0
H977 H 0.96825 0.08333 0.95067 0.0
C978 C 0.96188 0.9884 0.93797 0.0
C979 C 0.93053 0.01916 0.94887 0.0
C980 C 0.89592 0.01679 0.95597 0.0
C981 C 0.99775 0.02581 0.93629 0.0
C982 C 1.00019 0.06044 0.94098 0.0
C983 C 0.96645 0.0567 0.94715 0.0
C984 C 0.03658 0.10124 0.93881 0.0
C985 C 0.03231 0.02822 0.92912 0.0
C986 C 0.07425 0.10942 0.94354 0.0
C987 C 0.10878 0.1472 0.94063 0.0
C988 C 0.1062 0.17745 0.93291 0.0
C989 C 0.06811 0.16943 0.92856 0.0
C990 C 0.03377 0.13188 0.9315 0.0
H991 H 0.02275 1.001 0.92398 0.0
H992 H 0.04578 0.05556 0.92243 0.0
H993 H 0.05604 0.03049 0.93564 0.0
H994 H 0.07703 0.08638 0.94936 0.0
H995 H 0.13753 0.15238 0.94419 0.0
H996 H 0.13575 0.93984 0.27095 0.0
H997 H 0.13072 1.00014 0.27343 0.0
H998 H 1.00429 0.92487 0.28273 0.0
H999 H 0.0094 0.86395 0.28056 0.0
H1000 H 0.08621 0.02313 0.25942 0.0
H1001 H 0.03956 0.00592 0.3085 0.0
H1002 H 0.05903 0.97593 0.30262 0.0
H1003 H 0.00728 0.96262 0.30028 0.0
C1004 C 0.10694 0.93597 0.27371 0.0
C1005 C 0.07288 0.89706 0.2755 0.0
C1006 C 0.10416 0.97056 0.27514 0.0
C1007 C 0.06724 0.96718 0.27835 0.0
C1008 C 0.03333 0.9283 0.28051 0.0
H1009 H 0.96762 0.1245 0.27336 0.0
H1010 H 0.98336 0.07003 0.2775 0.0
C1011 C 0.03621 0.89348 0.27921 0.0
C1012 C 0.06378 0.00442 0.27823 0.0
H1013 H 0.03328 0.05613 0.29528 0.0
C1014 C 0.07514 0.0306 0.26733 0.0
C1015 C 0.04929 0.01417 0.28853 0.0
C1016 C 0.03846 0.9884 0.30068 0.0
C1017 C 0.07127 0.06549 0.26631 0.0
C1018 C 0.05606 0.07482 0.27652 0.0
C1019 C 0.0452 0.04903 0.28749 0.0
C1020 C 0.04783 0.10915 0.27552 0.0
C1021 C 0.08199 0.09124 0.25414 0.0
C1022 C 0.07903 0.14956 0.2734 0.0
C1023 C 0.07014 0.18107 0.27102 0.0
C1024 C 0.02988 0.17251 0.27067 0.0
C1025 C 0.99896 0.13219 0.27341 0.0
C1026 C 0.00786 0.10093 0.27585 0.0
H1027 H 0.08648 0.07596 0.24655 0.0
H1028 H 0.05803 0.09867 0.25145 0.0
H1029 H 0.11037 0.12017 0.25511 0.0
H1030 H 0.11016 0.15657 0.27326 0.0
H1031 H 0.09462 0.21177 0.26898 0.0
loop_
_geom_bond_atom_site_label_1
_geom_bond_atom_site_label_2
_geom_bond_distance
_geom_bond_site_symmetry_2
_ccdc_geom_bond_type
O0 Cd1 2.223 . S
O0 C8 1.315 1_655 S
Cd1 O0 2.223 . S
Cd1 O4 2.297 . S
Cd1 O5 2.439 . S
Cd1 O11 2.240 . S
Cd2 O3 2.240 . S
Cd2 O10 2.223 . S
Cd2 O12 2.297 . S
Cd2 O13 2.439 . S
O3 Cd2 2.240 . S
O3 C8 1.279 . S
O4 Cd1 2.297 . S
O4 C6 1.247 . S
O5 Cd1 2.439 . S
O5 C6 1.208 . S
C6 O4 1.247 . S
C6 O5 1.208 . S
C7 O12 1.247 . S
C7 O13 1.208 . S
C8 O0 1.315 1_455 S
C8 O3 1.279 . S
C9 O10 1.315 1_655 S
C9 O11 1.279 . S
O10 Cd2 2.223 . S
O10 C9 1.315 1_455 S
O11 Cd1 2.240 . S
O11 C9 1.279 . S
O12 Cd2 2.297 . S
O12 C7 1.247 . S
O13 Cd2 2.439 . S
O13 C7 1.208 . S
O14 Cd15 2.223 . S
O14 C22 1.315 1_565 S
Cd15 O14 2.223 . S
Cd15 O18 2.297 . S
Cd15 O19 2.439 . S
Cd15 O25 2.240 . S
Cd16 O17 2.240 . S
Cd16 O24 2.223 . S
Cd16 O26 2.297 . S
Cd16 O27 2.439 . S
O17 Cd16 2.240 . S
O17 C22 1.279 . S
O18 Cd15 2.297 . S
O18 C20 1.247 . S
O19 Cd15 2.439 . S
O19 C20 1.208 . S
C20 O18 1.247 . S
C20 O19 1.208 . S
C21 O26 1.247 . S
C21 O27 1.208 . S
C22 O14 1.315 1_545 S
C22 O17 1.279 . S
C23 O24 1.315 1_565 S
C23 O25 1.279 . S
O24 Cd16 2.223 . S
O24 C23 1.315 1_545 S
O25 Cd15 2.240 . S
O25 C23 1.279 . S
O26 Cd16 2.297 . S
O26 C21 1.247 . S
O27 Cd16 2.439 . S
O27 C21 1.208 . S
O28 Cd29 2.223 . S
O28 C36 1.315 . S
Cd29 O28 2.223 . S
Cd29 O32 2.297 . S
Cd29 O33 2.439 . S
Cd29 O39 2.240 . S
Cd30 O31 2.240 . S
Cd30 O38 2.223 . S
Cd30 O40 2.297 . S
Cd30 O41 2.439 . S
O31 Cd30 2.240 . S
O31 C36 1.279 . S
O32 Cd29 2.297 . S
O32 C34 1.247 . S
O33 Cd29 2.439 . S
O33 C34 1.208 . S
C34 O32 1.247 . S
C34 O33 1.208 . S
C35 O40 1.247 . S
C35 O41 1.208 . S
C36 O28 1.315 . S
C36 O31 1.279 . S
C37 O38 1.315 . S
C37 O39 1.279 . S
O38 Cd30 2.223 . S
O38 C37 1.315 . S
O39 Cd29 2.240 . S
O39 C37 1.279 . S
O40 Cd30 2.297 . S
O40 C35 1.247 . S
O41 Cd30 2.439 . S
O41 C35 1.208 . S
O42 Cd43 2.223 . S
O42 C50 1.315 . S
Cd43 O42 2.223 . S
Cd43 O46 2.297 . S
Cd43 O47 2.439 . S
Cd43 O53 2.240 . S
Cd44 O45 2.240 . S
Cd44 O52 2.223 . S
Cd44 O54 2.297 . S
Cd44 O55 2.439 . S
O45 Cd44 2.240 . S
O45 C50 1.279 . S
O46 Cd43 2.297 . S
O46 C48 1.247 . S
O47 Cd43 2.439 . S
O47 C48 1.208 . S
C48 O46 1.247 . S
C48 O47 1.208 . S
C49 O54 1.247 . S
C49 O55 1.208 . S
C50 O42 1.315 . S
C50 O45 1.279 . S
C51 O52 1.315 . S
C51 O53 1.279 . S
O52 Cd44 2.223 . S
O52 C51 1.315 . S
O53 Cd43 2.240 . S
O53 C51 1.279 . S
O54 Cd44 2.297 . S
O54 C49 1.247 . S
O55 Cd44 2.439 . S
O55 C49 1.208 . S
O56 Cd57 2.223 . S
O56 C64 1.315 . S
Cd57 O56 2.223 . S
Cd57 O60 2.297 . S
Cd57 O61 2.439 . S
Cd57 O67 2.240 . S
Cd58 O59 2.240 . S
Cd58 O66 2.223 . S
Cd58 O68 2.297 . S
Cd58 O69 2.439 . S
O59 Cd58 2.240 . S
O59 C64 1.279 . S
O60 Cd57 2.297 . S
O60 C62 1.247 . S
O61 Cd57 2.439 . S
O61 C62 1.208 . S
C62 O60 1.247 . S
C62 O61 1.208 . S
C63 O68 1.247 . S
C63 O69 1.208 . S
C64 O56 1.315 . S
C64 O59 1.279 . S
C65 O66 1.315 . S
C65 O67 1.279 . S
O66 Cd58 2.223 . S
O66 C65 1.315 . S
O67 Cd57 2.240 . S
O67 C65 1.279 . S
O68 Cd58 2.297 . S
O68 C63 1.247 . S
O69 Cd58 2.439 . S
O69 C63 1.208 . S
O70 Cd71 2.223 . S
O70 C78 1.315 . S
Cd71 O70 2.223 . S
Cd71 O74 2.297 . S
Cd71 O75 2.439 . S
Cd71 O81 2.240 . S
Cd72 O73 2.240 . S
Cd72 O80 2.223 . S
Cd72 O82 2.297 . S
Cd72 O83 2.439 . S
O73 Cd72 2.240 . S
O73 C78 1.279 . S
O74 Cd71 2.297 . S
O74 C76 1.247 . S
O75 Cd71 2.439 . S
O75 C76 1.208 . S
C76 O74 1.247 . S
C76 O75 1.208 . S
C77 O82 1.247 . S
C77 O83 1.208 . S
C78 O70 1.315 . S
C78 O73 1.279 . S
C79 O80 1.315 . S
C79 O81 1.279 . S
O80 Cd72 2.223 . S
O80 C79 1.315 . S
O81 Cd71 2.240 . S
O81 C79 1.279 . S
O82 Cd72 2.297 . S
O82 C77 1.247 . S
O83 Cd72 2.439 . S
O83 C77 1.208 . S
O84 Cd85 2.223 . S
O84 C92 1.315 1_545 S
Cd85 O84 2.223 . S
Cd85 O88 2.297 . S
Cd85 O89 2.439 . S
Cd85 O95 2.240 . S
Cd86 O87 2.240 . S
Cd86 O94 2.223 . S
Cd86 O96 2.297 . S
Cd86 O97 2.439 . S
O87 Cd86 2.240 . S
O87 C92 1.279 . S
O88 Cd85 2.297 . S
O88 C90 1.247 . S
O89 Cd85 2.439 . S
O89 C90 1.208 . S
C90 O88 1.247 . S
C90 O89 1.208 . S
C91 O96 1.247 . S
C91 O97 1.208 . S
C92 O84 1.315 1_565 S
C92 O87 1.279 . S
C93 O94 1.315 1_545 S
C93 O95 1.279 . S
O94 Cd86 2.223 . S
O94 C93 1.315 1_565 S
O95 Cd85 2.240 . S
O95 C93 1.279 . S
O96 Cd86 2.297 . S
O96 C91 1.247 . S
O97 Cd86 2.439 . S
O97 C91 1.208 . S
O98 Cd99 2.223 . S
O98 C106 1.315 . S
Cd99 O98 2.223 . S
Cd99 O102 2.297 . S
Cd99 O103 2.439 . S
Cd99 O109 2.240 . S
Cd100 O101 2.240 . S
Cd100 O108 2.223 . S
Cd100 O110 2.297 . S
Cd100 O111 2.439 . S
O101 Cd100 2.240 . S
O101 C106 1.279 . S
O102 Cd99 2.297 . S
O102 C104 1.247 . S
O103 Cd99 2.439 . S
O103 C104 1.208 . S
C104 O102 1.247 . S
C104 O103 1.208 . S
C105 O110 1.247 . S
C105 O111 1.208 . S
C106 O98 1.315 . S
C106 O101 1.279 . S
C107 O108 1.315 . S
C107 O109 1.279 . S
O108 Cd100 2.223 . S
O108 C107 1.315 . S
O109 Cd99 2.240 . S
O109 C107 1.279 . S
O110 Cd100 2.297 . S
O110 C105 1.247 . S
O111 Cd100 2.439 . S
O111 C105 1.208 . S
O112 Cd113 2.223 . S
O112 C120 1.315 . S
Cd113 O112 2.223 . S
Cd113 O116 2.297 . S
Cd113 O117 2.439 . S
Cd113 O123 2.240 . S
Cd114 O115 2.240 . S
Cd114 O122 2.223 . S
Cd114 O124 2.297 . S
Cd114 O125 2.439 . S
O115 Cd114 2.240 . S
O115 C120 1.279 . S
O116 Cd113 2.297 . S
O116 C118 1.247 . S
O117 Cd113 2.439 . S
O117 C118 1.208 . S
C118 O116 1.247 . S
C118 O117 1.208 . S
C119 O124 1.247 . S
C119 O125 1.208 . S
C120 O112 1.315 . S
C120 O115 1.279 . S
C121 O122 1.315 . S
C121 O123 1.279 . S
O122 Cd114 2.223 . S
O122 C121 1.315 . S
O123 Cd113 2.240 . S
O123 C121 1.279 . S
O124 Cd114 2.297 . S
O124 C119 1.247 . S
O125 Cd114 2.439 . S
O125 C119 1.208 . S
O126 Cd127 2.223 . S
O126 C134 1.315 . S
Cd127 O126 2.223 . S
Cd127 O130 2.297 . S
Cd127 O131 2.439 . S
Cd127 O137 2.240 . S
Cd128 O129 2.240 . S
Cd128 O136 2.223 . S
Cd128 O138 2.297 . S
Cd128 O139 2.439 . S
O129 Cd128 2.240 . S
O129 C134 1.279 . S
O130 Cd127 2.297 . S
O130 C132 1.247 . S
O131 Cd127 2.439 . S
O131 C132 1.208 . S
C132 O130 1.247 . S
C132 O131 1.208 . S
C133 O138 1.247 . S
C133 O139 1.208 . S
C134 O126 1.315 . S
C134 O129 1.279 . S
C135 O136 1.315 . S
C135 O137 1.279 . S
O136 Cd128 2.223 . S
O136 C135 1.315 . S
O137 Cd127 2.240 . S
O137 C135 1.279 . S
O138 Cd128 2.297 . S
O138 C133 1.247 . S
O139 Cd128 2.439 . S
O139 C133 1.208 . S
O140 Cd141 2.223 . S
O140 C148 1.315 . S
Cd141 O140 2.223 . S
Cd141 O144 2.297 . S
Cd141 O145 2.439 . S
Cd141 O151 2.240 . S
Cd142 O143 2.240 . S
Cd142 O150 2.223 . S
Cd142 O152 2.297 . S
Cd142 O153 2.439 . S
O143 Cd142 2.240 . S
O143 C148 1.279 . S
O144 Cd141 2.297 . S
O144 C146 1.247 . S
O145 Cd141 2.439 . S
O145 C146 1.208 . S
C146 O144 1.247 . S
C146 O145 1.208 . S
C147 O152 1.247 . S
C147 O153 1.208 . S
C148 O140 1.315 . S
C148 O143 1.279 . S
C149 O150 1.315 . S
C149 O151 1.279 . S
O150 Cd142 2.223 . S
O150 C149 1.315 . S
O151 Cd141 2.240 . S
O151 C149 1.279 . S
O152 Cd142 2.297 . S
O152 C147 1.247 . S
O153 Cd142 2.439 . S
O153 C147 1.208 . S
O154 Cd155 2.223 . S
O154 C162 1.315 1_455 S
Cd155 O154 2.223 . S
Cd155 O158 2.297 . S
Cd155 O159 2.439 . S
Cd155 O165 2.240 . S
Cd156 O157 2.240 . S
Cd156 O164 2.223 . S
Cd156 O166 2.297 . S
Cd156 O167 2.439 . S
O157 Cd156 2.240 . S
O157 C162 1.279 . S
O158 Cd155 2.297 . S
O158 C160 1.247 . S
O159 Cd155 2.439 . S
O159 C160 1.208 . S
C160 O158 1.247 . S
C160 O159 1.208 . S
C161 O166 1.247 . S
C161 O167 1.208 . S
C162 O154 1.315 1_655 S
C162 O157 1.279 . S
C163 O164 1.315 1_455 S
C163 O165 1.279 . S
O164 Cd156 2.223 . S
O164 C163 1.315 1_655 S
O165 Cd155 2.240 . S
O165 C163 1.279 . S
O166 Cd156 2.297 . S
O166 C161 1.247 . S
O167 Cd156 2.439 . S
O167 C161 1.208 . S
H168 C176 0.929 . S
H169 C178 0.930 . S
H170 C180 0.930 . S
H171 C183 0.929 . S
H172 C186 0.930 . S
H173 C188 0.960 . S
H174 C188 0.960 . S
H175 C188 0.960 . S
C176 H168 0.929 . S
C176 C177 1.377 1_455 S
C176 C178 1.384 . S
C177 C176 1.377 1_655 S
C177 C183 1.390 . S
C178 H169 0.930 . S
C178 C176 1.384 . S
C178 C179 1.372 1_455 S
C179 C178 1.372 1_655 S
C179 C180 1.400 . S
C179 C184 1.488 1_655 S
C180 H170 0.930 . S
C180 C179 1.400 . S
C180 C183 1.386 . S
H181 C197 0.930 1_655 S
H182 C198 0.928 1_655 S
C183 H171 0.929 . S
C183 C177 1.390 . S
C183 C180 1.386 . S
C184 C179 1.488 1_455 S
C184 C186 1.407 . S
C184 C187 1.392 1_455 S
H185 C191 0.930 . S
C186 H172 0.930 . S
C186 C184 1.407 . S
C186 C189 1.403 . S
C187 C184 1.392 1_655 S
C187 C188 1.524 . S
C187 C191 1.400 . S
C188 H173 0.960 . S
C188 H174 0.960 . S
C188 H175 0.960 . S
C188 C187 1.524 . S
C189 C186 1.403 . S
C189 C190 1.392 . S
C189 C193 1.495 . S
C190 C189 1.392 . S
C190 C191 1.385 1_455 S
C190 C192 1.478 . S
C191 H185 0.930 . S
C191 C187 1.400 . S
C191 C190 1.385 1_655 S
C192 C190 1.478 . S
C192 C194 1.381 . S
C192 C198 1.385 . S
C193 C189 1.495 . S
C193 H199 0.959 . S
C193 H200 0.961 . S
C193 H201 0.960 . S
C194 C192 1.381 . S
C194 C195 1.394 . S
C194 H202 0.930 . S
C195 C194 1.394 . S
C195 C196 1.383 . S
C195 H203 0.929 . S
C196 C195 1.383 . S
C196 C197 1.377 . S
C197 H181 0.930 1_455 S
C197 C196 1.377 . S
C197 C198 1.380 . S
C198 H182 0.928 1_455 S
C198 C192 1.385 . S
C198 C197 1.380 . S
H199 C193 0.959 . S
H200 C193 0.961 . S
H201 C193 0.960 . S
H202 C194 0.930 . S
H203 C195 0.929 . S
H204 C212 0.929 . S
H205 C214 0.930 . S
H206 C216 0.930 . S
H207 C219 0.929 . S
H208 C222 0.930 . S
H209 C224 0.960 . S
H210 C224 0.960 . S
H211 C224 0.960 . S
C212 H204 0.929 . S
C212 C213 1.377 . S
C212 C214 1.384 . S
C213 C212 1.377 . S
C213 C219 1.390 1_545 S
C214 H205 0.930 . S
C214 C212 1.384 . S
C214 C215 1.372 . S
C215 C214 1.372 . S
C215 C216 1.400 1_545 S
C215 C220 1.490 . S
C216 H206 0.930 . S
C216 C215 1.400 1_565 S
C216 C219 1.386 . S
H217 C233 0.930 . S
H218 C234 0.931 . S
C219 H207 0.929 . S
C219 C213 1.390 1_565 S
C219 C216 1.386 . S
C220 C215 1.490 . S
C220 C222 1.395 1_545 S
C220 C223 1.403 . S
H221 C227 0.930 . S
C222 H208 0.930 . S
C222 C220 1.395 1_565 S
C222 C225 1.403 . S
C223 C220 1.403 . S
C223 C224 1.524 . S
C223 C227 1.400 . S
C224 H209 0.960 . S
C224 H210 0.960 . S
C224 H211 0.960 . S
C224 C223 1.524 . S
C225 C222 1.403 . S
C225 C226 1.392 . S
C225 C229 1.495 . S
C226 C225 1.392 . S
C226 C227 1.385 1_565 S
C226 C228 1.478 . S
C227 H221 0.930 . S
C227 C223 1.400 . S
C227 C226 1.385 1_545 S
C228 C226 1.478 . S
C228 C230 1.381 1_565 S
C228 C234 1.383 . S
C229 C225 1.495 . S
C229 H235 0.959 . S
C229 H236 0.961 . S
C229 H237 0.960 . S
C230 C228 1.381 1_545 S
C230 C231 1.394 . S
C230 H238 0.930 . S
C231 C230 1.394 . S
C231 C232 1.383 1_545 S
C231 H239 0.929 . S
C232 C231 1.383 1_565 S
C232 C233 1.377 . S
C233 H217 0.930 . S
C233 C232 1.377 . S
C233 C234 1.379 . S
C234 H218 0.931 . S
C234 C228 1.383 . S
C234 C233 1.379 . S
H235 C229 0.959 . S
H236 C229 0.961 . S
H237 C229 0.960 . S
H238 C230 0.930 . S
H239 C231 0.929 . S
H240 C248 0.929 . S
H241 C250 0.930 . S
H242 C252 0.930 . S
H243 C255 0.929 . S
H244 C258 0.930 . S
H245 C260 0.960 . S
H246 C260 0.960 . S
H247 C260 0.960 . S
C248 H240 0.929 . S
C248 C249 1.377 . S
C248 C250 1.384 . S
C249 C248 1.377 . S
C249 C255 1.390 . S
C250 H241 0.930 . S
C250 C248 1.384 . S
C250 C251 1.372 . S
C251 C250 1.372 . S
C251 C252 1.400 . S
C251 C256 1.490 . S
C252 H242 0.930 . S
C252 C251 1.400 . S
C252 C255 1.386 . S
H253 C269 0.930 . S
H254 C270 0.931 . S
C255 H243 0.929 . S
C255 C249 1.390 . S
C255 C252 1.386 . S
C256 C251 1.490 . S
C256 C258 1.395 . S
C256 C259 1.403 . S
H257 C263 0.930 . S
C258 H244 0.930 . S
C258 C256 1.395 . S
C258 C261 1.403 . S
C259 C256 1.403 . S
C259 C260 1.524 . S
C259 C263 1.400 . S
C260 H245 0.960 . S
C260 H246 0.960 . S
C260 H247 0.960 . S
C260 C259 1.524 . S
C261 C258 1.403 . S
C261 C262 1.392 . S
C261 C265 1.495 . S
C262 C261 1.392 . S
C262 C263 1.385 . S
C262 C264 1.478 . S
C263 H257 0.930 . S
C263 C259 1.400 . S
C263 C262 1.385 . S
C264 C262 1.478 . S
C264 C266 1.381 . S
C264 C270 1.383 . S
C265 C261 1.495 . S
C265 H271 0.959 . S
C265 H272 0.961 . S
C265 H273 0.960 . S
C266 C264 1.381 . S
C266 C267 1.394 . S
C266 H274 0.930 . S
C267 C266 1.394 . S
C267 C268 1.383 . S
C267 H275 0.929 . S
C268 C267 1.383 . S
C268 C269 1.377 . S
C269 H253 0.930 . S
C269 C268 1.377 . S
C269 C270 1.379 . S
C270 H254 0.931 . S
C270 C264 1.383 . S
C270 C269 1.379 . S
H271 C265 0.959 . S
H272 C265 0.961 . S
H273 C265 0.960 . S
H274 C266 0.930 . S
H275 C267 0.929 . S
H276 C284 0.929 . S
H277 C286 0.930 . S
H278 C288 0.930 . S
H279 C291 0.929 . S
H280 C294 0.930 . S
H281 C296 0.960 1_455 S
H282 C296 0.960 . S
H283 C296 0.960 . S
C284 H276 0.929 . S
C284 C285 1.377 . S
C284 C286 1.384 . S
C285 C284 1.377 . S
C285 C291 1.390 . S
C286 H277 0.930 . S
C286 C284 1.384 . S
C286 C287 1.372 . S
C287 C286 1.372 . S
C287 C288 1.400 . S
C287 C292 1.490 . S
C288 H278 0.930 . S
C288 C287 1.400 . S
C288 C291 1.386 . S
H289 C305 0.930 . S
H290 C306 0.931 . S
C291 H279 0.929 . S
C291 C285 1.390 . S
C291 C288 1.386 . S
C292 C287 1.490 . S
C292 C294 1.395 . S
C292 C295 1.403 . S
H293 C299 0.930 . S
C294 H280 0.930 . S
C294 C292 1.395 . S
C294 C297 1.403 1_655 S
C295 C292 1.403 . S
C295 C296 1.524 . S
C295 C299 1.400 1_655 S
C296 H281 0.960 1_655 S
C296 H282 0.960 . S
C296 H283 0.960 . S
C296 C295 1.524 . S
C297 C294 1.403 1_455 S
C297 C298 1.392 . S
C297 C301 1.495 . S
C298 C297 1.392 . S
C298 C299 1.385 . S
C298 C300 1.478 . S
C299 H293 0.930 . S
C299 C295 1.400 1_455 S
C299 C298 1.385 . S
C300 C298 1.478 . S
C300 C302 1.381 . S
C300 C306 1.383 . S
C301 C297 1.495 . S
C301 H307 0.959 1_455 S
C301 H308 0.961 . S
C301 H309 0.960 . S
C302 C300 1.381 . S
C302 C303 1.394 . S
C302 H310 0.930 . S
C303 C302 1.394 . S
C303 C304 1.383 . S
C303 H311 0.929 . S
C304 C303 1.383 . S
C304 C305 1.377 . S
C305 H289 0.930 . S
C305 C304 1.377 . S
C305 C306 1.379 . S
C306 H290 0.931 . S
C306 C300 1.383 . S
C306 C305 1.379 . S
H307 C301 0.959 1_655 S
H308 C301 0.961 . S
H309 C301 0.960 . S
H310 C302 0.930 . S
H311 C303 0.929 . S
H312 C320 0.929 . S
H313 C322 0.930 . S
H314 C324 0.930 . S
H315 C327 0.929 . S
H316 C330 0.930 . S
H317 C332 0.960 . S
H318 C332 0.960 . S
H319 C332 0.960 . S
C320 H312 0.929 . S
C320 C321 1.377 . S
C320 C322 1.384 . S
C321 C320 1.377 . S
C321 C327 1.390 . S
C322 H313 0.930 . S
C322 C320 1.384 . S
C322 C323 1.372 . S
C323 C322 1.372 . S
C323 C324 1.400 . S
C323 C328 1.490 . S
C324 H314 0.930 . S
C324 C323 1.400 . S
C324 C327 1.386 . S
H325 C341 0.930 . S
H326 C342 0.931 . S
C327 H315 0.929 . S
C327 C321 1.390 . S
C327 C324 1.386 . S
C328 C323 1.490 . S
C328 C330 1.395 . S
C328 C331 1.403 1_545 S
H329 C335 0.930 . S
C330 H316 0.930 . S
C330 C328 1.395 . S
C330 C333 1.403 . S
C331 C328 1.403 1_565 S
C331 C332 1.524 . S
C331 C335 1.400 . S
C332 H317 0.960 . S
C332 H318 0.960 . S
C332 H319 0.960 . S
C332 C331 1.524 . S
C333 C330 1.403 . S
C333 C334 1.392 1_545 S
C333 C337 1.495 . S
C334 C333 1.392 1_565 S
C334 C335 1.385 . S
C334 C336 1.478 . S
C335 H329 0.930 . S
C335 C331 1.400 . S
C335 C334 1.385 . S
C336 C334 1.478 . S
C336 C338 1.381 . S
C336 C342 1.383 . S
C337 C333 1.495 . S
C337 H343 0.959 . S
C337 H344 0.961 . S
C337 H345 0.960 . S
C338 C336 1.381 . S
C338 C339 1.394 . S
C338 H346 0.930 . S
C339 C338 1.394 . S
C339 C340 1.383 . S
C339 H347 0.929 . S
C340 C339 1.383 . S
C340 C341 1.377 . S
C341 H325 0.930 . S
C341 C340 1.377 . S
C341 C342 1.379 . S
C342 H326 0.931 . S
C342 C336 1.383 . S
C342 C341 1.379 . S
H343 C337 0.959 . S
H344 C337 0.961 . S
H345 C337 0.960 . S
H346 C338 0.930 . S
H347 C339 0.929 . S
H348 C356 0.929 . S
H349 C358 0.930 . S
H350 C360 0.930 . S
H351 C363 0.929 . S
H352 C366 0.930 . S
H353 C368 0.960 . S
H354 C368 0.960 . S
H355 C368 0.960 . S
C356 H348 0.929 . S
C356 C357 1.377 . S
C356 C358 1.384 . S
C357 C356 1.377 . S
C357 C363 1.390 . S
C358 H349 0.930 . S
C358 C356 1.384 . S
C358 C359 1.372 . S
C359 C358 1.372 . S
C359 C360 1.400 . S
C359 C364 1.490 . S
C360 H350 0.930 . S
C360 C359 1.400 . S
C360 C363 1.386 . S
H361 C377 0.930 . S
H362 C378 0.931 . S
C363 H351 0.929 . S
C363 C357 1.390 . S
C363 C360 1.386 . S
C364 C359 1.490 . S
C364 C366 1.395 . S
C364 C367 1.403 . S
H365 C371 0.930 . S
C366 H352 0.930 . S
C366 C364 1.395 . S
C366 C369 1.403 . S
C367 C364 1.403 . S
C367 C368 1.524 . S
C367 C371 1.400 . S
C368 H353 0.960 . S
C368 H354 0.960 . S
C368 H355 0.960 . S
C368 C367 1.524 . S
C369 C366 1.403 . S
C369 C370 1.392 . S
C369 C373 1.495 . S
C370 C369 1.392 . S
C370 C371 1.385 . S
C370 C372 1.478 . S
C371 H365 0.930 . S
C371 C367 1.400 . S
C371 C370 1.385 . S
C372 C370 1.478 . S
C372 C374 1.381 . S
C372 C378 1.383 . S
C373 C369 1.495 . S
C373 H379 0.959 . S
C373 H380 0.961 . S
C373 H381 0.960 . S
C374 C372 1.381 . S
C374 C375 1.394 . S
C374 H382 0.930 . S
C375 C374 1.394 . S
C375 C376 1.383 . S
C375 H383 0.929 . S
C376 C375 1.383 . S
C376 C377 1.377 . S
C377 H361 0.930 . S
C377 C376 1.377 . S
C377 C378 1.379 . S
C378 H362 0.931 . S
C378 C372 1.383 . S
C378 C377 1.379 . S
H379 C373 0.959 . S
H380 C373 0.961 . S
H381 C373 0.960 . S
H382 C374 0.930 . S
H383 C375 0.929 . S
H384 C392 0.929 . S
H385 C394 0.930 . S
H386 C396 0.930 . S
H387 C399 0.929 . S
H388 C402 0.930 . S
H389 C404 0.960 . S
H390 C404 0.960 1_554 S
H391 C404 0.960 1_554 S
C392 H384 0.929 . S
C392 C393 1.377 . S
C392 C394 1.384 . S
C393 C392 1.377 . S
C393 C399 1.390 . S
C394 H385 0.930 . S
C394 C392 1.384 . S
C394 C395 1.372 . S
C395 C394 1.372 . S
C395 C396 1.400 . S
C395 C400 1.490 1_554 S
C396 H386 0.930 . S
C396 C395 1.400 . S
C396 C399 1.386 . S
H397 C413 0.930 . S
H398 C414 0.931 . S
C399 H387 0.929 . S
C399 C393 1.390 . S
C399 C396 1.386 . S
C400 C395 1.490 1_556 S
C400 C402 1.395 . S
C400 C403 1.403 . S
H401 C407 0.930 . S
C402 H388 0.930 . S
C402 C400 1.395 . S
C402 C405 1.403 . S
C403 C400 1.403 . S
C403 C404 1.524 . S
C403 C407 1.400 . S
C404 H389 0.960 . S
C404 H390 0.960 1_556 S
C404 H391 0.960 1_556 S
C404 C403 1.524 . S
C405 C402 1.403 . S
C405 C406 1.392 . S
C405 C409 1.495 1_455 S
C406 C405 1.392 . S
C406 C407 1.385 . S
C406 C408 1.478 . S
C407 H401 0.930 . S
C407 C403 1.400 . S
C407 C406 1.385 . S
C408 C406 1.478 . S
C408 C410 1.381 . S
C408 C414 1.383 . S
C409 C405 1.495 1_655 S
C409 H415 0.959 . S
C409 H416 0.961 . S
C409 H417 0.960 . S
C410 C408 1.381 . S
C410 C411 1.394 . S
C410 H418 0.930 . S
C411 C410 1.394 . S
C411 C412 1.383 . S
C411 H419 0.929 . S
C412 C411 1.383 . S
C412 C413 1.377 . S
C413 H397 0.930 . S
C413 C412 1.377 . S
C413 C414 1.379 . S
C414 H398 0.931 . S
C414 C408 1.383 . S
C414 C413 1.379 . S
H415 C409 0.959 . S
H416 C409 0.961 . S
H417 C409 0.960 . S
H418 C410 0.930 . S
H419 C411 0.929 . S
H420 C428 0.929 . S
H421 C430 0.930 . S
H422 C432 0.930 . S
H423 C435 0.929 . S
H424 C438 0.930 . S
H425 C440 0.960 . S
H426 C440 0.960 . S
H427 C440 0.960 . S
C428 H420 0.929 . S
C428 C429 1.377 . S
C428 C430 1.384 . S
C429 C428 1.377 . S
C429 C435 1.390 . S
C430 H421 0.930 . S
C430 C428 1.384 . S
C430 C431 1.372 . S
C431 C430 1.372 . S
C431 C432 1.400 . S
C431 C436 1.490 . S
C432 H422 0.930 . S
C432 C431 1.400 . S
C432 C435 1.386 . S
H433 C449 0.930 . S
H434 C450 0.931 . S
C435 H423 0.929 . S
C435 C429 1.390 . S
C435 C432 1.386 . S
C436 C431 1.490 . S
C436 C438 1.395 . S
C436 C439 1.403 . S
H437 C443 0.930 . S
C438 H424 0.930 . S
C438 C436 1.395 . S
C438 C441 1.403 . S
C439 C436 1.403 . S
C439 C440 1.524 . S
C439 C443 1.400 . S
C440 H425 0.960 . S
C440 H426 0.960 . S
C440 H427 0.960 . S
C440 C439 1.524 . S
C441 C438 1.403 . S
C441 C442 1.392 . S
C441 C445 1.495 . S
C442 C441 1.392 . S
C442 C443 1.385 . S
C442 C444 1.478 . S
C443 H437 0.930 . S
C443 C439 1.400 . S
C443 C442 1.385 . S
C444 C442 1.478 . S
C444 C446 1.381 . S
C444 C450 1.383 . S
C445 C441 1.495 . S
C445 H451 0.959 . S
C445 H452 0.961 . S
C445 H453 0.960 . S
C446 C444 1.381 . S
C446 C447 1.394 . S
C446 H454 0.930 . S
C447 C446 1.394 . S
C447 C448 1.383 . S
C447 H455 0.929 . S
C448 C447 1.383 . S
C448 C449 1.377 . S
C449 H433 0.930 . S
C449 C448 1.377 . S
C449 C450 1.379 . S
C450 H434 0.931 . S
C450 C444 1.383 . S
C450 C449 1.379 . S
H451 C445 0.959 . S
H452 C445 0.961 . S
H453 C445 0.960 . S
H454 C446 0.930 . S
H455 C447 0.929 . S
H456 C464 0.929 . S
H457 C466 0.930 . S
H458 C468 0.930 . S
H459 C471 0.929 . S
H460 C474 0.930 . S
H461 C476 0.960 . S
H462 C476 0.960 . S
H463 C476 0.960 . S
C464 H456 0.929 . S
C464 C465 1.377 . S
C464 C466 1.384 . S
C465 C464 1.377 . S
C465 C471 1.390 . S
C466 H457 0.930 . S
C466 C464 1.384 . S
C466 C467 1.372 . S
C467 C466 1.372 . S
C467 C468 1.400 . S
C467 C472 1.490 . S
C468 H458 0.930 . S
C468 C467 1.400 . S
C468 C471 1.386 . S
H469 C485 0.930 . S
H470 C486 0.931 . S
C471 H459 0.929 . S
C471 C465 1.390 . S
C471 C468 1.386 . S
C472 C467 1.490 . S
C472 C474 1.395 . S
C472 C475 1.403 . S
H473 C479 0.930 . S
C474 H460 0.930 . S
C474 C472 1.395 . S
C474 C477 1.403 . S
C475 C472 1.403 . S
C475 C476 1.524 . S
C475 C479 1.400 . S
C476 H461 0.960 . S
C476 H462 0.960 . S
C476 H463 0.960 . S
C476 C475 1.524 . S
C477 C474 1.403 . S
C477 C478 1.392 . S
C477 C481 1.495 . S
C478 C477 1.392 . S
C478 C479 1.385 . S
C478 C480 1.478 . S
C479 H473 0.930 . S
C479 C475 1.400 . S
C479 C478 1.385 . S
C480 C478 1.478 . S
C480 C482 1.381 . S
C480 C486 1.383 . S
C481 C477 1.495 . S
C481 H487 0.959 . S
C481 H488 0.961 . S
C481 H489 0.960 . S
C482 C480 1.381 . S
C482 C483 1.394 . S
C482 H490 0.930 . S
C483 C482 1.394 . S
C483 C484 1.383 . S
C483 H491 0.929 . S
C484 C483 1.383 . S
C484 C485 1.377 . S
C485 H469 0.930 . S
C485 C484 1.377 . S
C485 C486 1.379 . S
C486 H470 0.931 . S
C486 C480 1.383 . S
C486 C485 1.379 . S
H487 C481 0.959 . S
H488 C481 0.961 . S
H489 C481 0.960 . S
H490 C482 0.930 . S
H491 C483 0.929 . S
H492 C500 0.929 . S
H493 C502 0.930 . S
H494 C504 0.930 . S
H495 C507 0.929 . S
H496 C510 0.930 . S
H497 C512 0.960 . S
H498 C512 0.960 . S
H499 C512 0.960 . S
C500 H492 0.929 . S
C500 C501 1.377 . S
C500 C502 1.384 . S
C501 C500 1.377 . S
C501 C507 1.390 . S
C502 H493 0.930 . S
C502 C500 1.384 . S
C502 C503 1.372 . S
C503 C502 1.372 . S
C503 C504 1.400 . S
C503 C508 1.490 . S
C504 H494 0.930 . S
C504 C503 1.400 . S
C504 C507 1.386 . S
H505 C521 0.930 . S
H506 C522 0.931 . S
C507 H495 0.929 . S
C507 C501 1.390 . S
C507 C504 1.386 . S
C508 C503 1.490 . S
C508 C510 1.395 . S
C508 C511 1.403 . S
H509 C515 0.900 1_556 S
C510 H496 0.930 . S
C510 C508 1.395 . S
C510 C513 1.403 . S
C511 C508 1.403 . S
C511 C512 1.524 . S
C511 C515 1.442 . S
C512 H497 0.960 . S
C512 H498 0.960 . S
C512 H499 0.960 . S
C512 C511 1.524 . S
C513 C510 1.403 . S
C513 C514 1.392 1_554 S
C513 C517 1.478 1_554 S
C514 C513 1.392 1_556 S
C514 C515 1.373 1_556 S
C514 C516 1.478 . S
C515 H509 0.900 1_554 S
C515 C511 1.442 . S
C515 C514 1.373 1_554 S
C516 C514 1.478 . S
C516 C518 1.381 . S
C516 C522 1.383 . S
C517 C513 1.478 1_556 S
C517 H523 0.892 1_556 S
C517 H524 1.014 . S
C517 H525 0.999 . S
C518 C516 1.381 . S
C518 C519 1.394 . S
C518 H526 0.930 . S
C519 C518 1.394 . S
C519 C520 1.383 . S
C519 H527 0.929 . S
C520 C519 1.383 . S
C520 C521 1.377 . S
C521 H505 0.930 . S
C521 C520 1.377 . S
C521 C522 1.379 . S
C522 H506 0.931 . S
C522 C516 1.383 . S
C522 C521 1.379 . S
H523 C517 0.892 1_554 S
H524 C517 1.014 . S
H525 C517 0.999 . S
H526 C518 0.930 . S
H527 C519 0.929 . S
H528 C536 0.929 . S
H529 C538 0.930 . S
H530 C540 0.930 . S
H531 C543 0.929 . S
H532 C546 0.930 . S
H533 C548 0.960 . S
H534 C548 0.960 . S
H535 C548 0.960 . S
C536 H528 0.929 . S
C536 C537 1.377 . S
C536 C538 1.384 . S
C537 C536 1.377 . S
C537 C543 1.390 . S
C538 H529 0.930 . S
C538 C536 1.384 . S
C538 C539 1.372 . S
C539 C538 1.372 . S
C539 C540 1.400 . S
C539 C544 1.490 . S
C540 H530 0.930 . S
C540 C539 1.400 . S
C540 C543 1.386 . S
H541 C557 0.930 . S
H542 C558 0.931 . S
C543 H531 0.929 . S
C543 C537 1.390 . S
C543 C540 1.386 . S
C544 C539 1.490 . S
C544 C546 1.395 . S
C544 C547 1.403 . S
H545 C551 0.930 . S
C546 H532 0.930 . S
C546 C544 1.395 . S
C546 C549 1.403 . S
C547 C544 1.403 . S
C547 C548 1.524 . S
C547 C551 1.400 . S
C548 H533 0.960 . S
C548 H534 0.960 . S
C548 H535 0.960 . S
C548 C547 1.524 . S
C549 C546 1.403 . S
C549 C550 1.392 . S
C549 C553 1.495 . S
C550 C549 1.392 . S
C550 C551 1.385 . S
C550 C552 1.478 . S
C551 H545 0.930 . S
C551 C547 1.400 . S
C551 C550 1.385 . S
C552 C550 1.478 . S
C552 C554 1.381 . S
C552 C558 1.383 . S
C553 C549 1.495 . S
C553 H559 0.959 . S
C553 H560 0.961 . S
C553 H561 0.960 . S
C554 C552 1.381 . S
C554 C555 1.394 . S
C554 H562 0.930 . S
C555 C554 1.394 . S
C555 C556 1.383 . S
C555 H563 0.929 . S
C556 C555 1.383 . S
C556 C557 1.377 . S
C557 H541 0.930 . S
C557 C556 1.377 . S
C557 C558 1.379 . S
C558 H542 0.931 . S
C558 C552 1.383 . S
C558 C557 1.379 . S
H559 C553 0.959 . S
H560 C553 0.961 . S
H561 C553 0.960 . S
H562 C554 0.930 . S
H563 C555 0.929 . S
H564 C572 0.929 . S
H565 C574 0.930 . S
H566 C576 0.930 . S
H567 C579 0.929 . S
H568 C582 0.930 . S
H569 C584 0.960 . S
H570 C584 0.960 . S
H571 C584 0.960 . S
C572 H564 0.929 . S
C572 C573 1.377 . S
C572 C574 1.384 . S
C573 C572 1.377 . S
C573 C579 1.390 . S
C574 H565 0.930 . S
C574 C572 1.384 . S
C574 C575 1.372 . S
C575 C574 1.372 . S
C575 C576 1.400 . S
C575 C580 1.490 . S
C576 H566 0.930 . S
C576 C575 1.400 . S
C576 C579 1.386 . S
H577 C593 0.930 . S
H578 C594 0.931 . S
C579 H567 0.929 . S
C579 C573 1.390 . S
C579 C576 1.386 . S
C580 C575 1.490 . S
C580 C582 1.395 . S
C580 C583 1.403 . S
H581 C587 0.930 . S
C582 H568 0.930 . S
C582 C580 1.395 . S
C582 C585 1.403 . S
C583 C580 1.403 . S
C583 C584 1.524 . S
C583 C587 1.400 . S
C584 H569 0.960 . S
C584 H570 0.960 . S
C584 H571 0.960 . S
C584 C583 1.524 . S
C585 C582 1.403 . S
C585 C586 1.392 . S
C585 C589 1.495 . S
C586 C585 1.392 . S
C586 C587 1.385 . S
C586 C588 1.478 . S
C587 H581 0.930 . S
C587 C583 1.400 . S
C587 C586 1.385 . S
C588 C586 1.478 . S
C588 C590 1.381 . S
C588 C594 1.383 . S
C589 C585 1.495 . S
C589 H595 0.959 . S
C589 H596 0.961 . S
C589 H597 0.960 . S
C590 C588 1.381 . S
C590 C591 1.394 . S
C590 H598 0.930 . S
C591 C590 1.394 . S
C591 C592 1.383 . S
C591 H599 0.929 . S
C592 C591 1.383 . S
C592 C593 1.377 . S
C593 H577 0.930 . S
C593 C592 1.377 . S
C593 C594 1.379 . S
C594 H578 0.931 . S
C594 C588 1.383 . S
C594 C593 1.379 . S
H595 C589 0.959 . S
H596 C589 0.961 . S
H597 C589 0.960 . S
H598 C590 0.930 . S
H599 C591 0.929 . S
H600 C608 0.929 . S
H601 C610 0.930 . S
H602 C612 0.930 . S
H603 C615 0.929 . S
H604 C618 0.930 . S
H605 C620 0.960 . S
H606 C620 0.960 . S
H607 C620 0.960 . S
C608 H600 0.929 . S
C608 C609 1.377 . S
C608 C610 1.384 . S
C609 C608 1.377 . S
C609 C615 1.390 . S
C610 H601 0.930 . S
C610 C608 1.384 . S
C610 C611 1.372 . S
C611 C610 1.372 . S
C611 C612 1.400 . S
C611 C616 1.490 . S
C612 H602 0.930 . S
C612 C611 1.400 . S
C612 C615 1.386 . S
H613 C629 0.930 1_455 S
H614 C630 0.931 . S
C615 H603 0.929 . S
C615 C609 1.390 . S
C615 C612 1.386 . S
C616 C611 1.490 . S
C616 C618 1.395 . S
C616 C619 1.403 . S
H617 C623 0.930 . S
C618 H604 0.930 . S
C618 C616 1.395 . S
C618 C621 1.403 . S
C619 C616 1.403 . S
C619 C620 1.524 . S
C619 C623 1.400 . S
C620 H605 0.960 . S
C620 H606 0.960 . S
C620 H607 0.960 . S
C620 C619 1.524 . S
C621 C618 1.403 . S
C621 C622 1.392 . S
C621 C625 1.495 . S
C622 C621 1.392 . S
C622 C623 1.385 . S
C622 C624 1.478 . S
C623 H617 0.930 . S
C623 C619 1.400 . S
C623 C622 1.385 . S
C624 C622 1.478 . S
C624 C626 1.381 . S
C624 C630 1.383 . S
C625 C621 1.495 . S
C625 H631 0.959 . S
C625 H632 0.961 . S
C625 H633 0.960 . S
C626 C624 1.381 . S
C626 C627 1.394 . S
C626 H634 0.930 . S
C627 C626 1.394 . S
C627 C628 1.383 . S
C627 H635 0.929 . S
C628 C627 1.383 . S
C628 C629 1.377 . S
C629 H613 0.930 1_655 S
C629 C628 1.377 . S
C629 C630 1.379 . S
C630 H614 0.931 . S
C630 C624 1.383 . S
C630 C629 1.379 . S
H631 C625 0.959 . S
H632 C625 0.961 . S
H633 C625 0.960 . S
H634 C626 0.930 . S
H635 C627 0.929 . S
H636 C644 0.929 . S
H637 C646 0.930 . S
H638 C648 0.930 . S
H639 C651 0.929 . S
H640 C654 0.930 . S
H641 C656 0.960 . S
H642 C656 0.960 . S
H643 C656 0.960 . S
C644 H636 0.929 . S
C644 C645 1.377 . S
C644 C646 1.384 . S
C645 C644 1.377 . S
C645 C651 1.390 . S
C646 H637 0.930 . S
C646 C644 1.384 . S
C646 C647 1.372 . S
C647 C646 1.372 . S
C647 C648 1.400 . S
C647 C652 1.490 . S
C648 H638 0.930 . S
C648 C647 1.400 . S
C648 C651 1.386 . S
H649 C665 0.930 . S
H650 C666 0.931 . S
C651 H639 0.929 . S
C651 C645 1.390 . S
C651 C648 1.386 . S
C652 C647 1.490 . S
C652 C654 1.395 . S
C652 C655 1.403 . S
H653 C659 0.930 . S
C654 H640 0.930 . S
C654 C652 1.395 . S
C654 C657 1.403 . S
C655 C652 1.403 . S
C655 C656 1.524 . S
C655 C659 1.400 . S
C656 H641 0.960 . S
C656 H642 0.960 . S
C656 H643 0.960 . S
C656 C655 1.524 . S
C657 C654 1.403 . S
C657 C658 1.392 . S
C657 C661 1.495 . S
C658 C657 1.392 . S
C658 C659 1.385 . S
C658 C660 1.478 . S
C659 H653 0.930 . S
C659 C655 1.400 . S
C659 C658 1.385 . S
C660 C658 1.478 . S
C660 C662 1.381 . S
C660 C666 1.383 . S
C661 C657 1.495 . S
C661 H667 0.959 . S
C661 H668 0.961 . S
C661 H669 0.960 . S
C662 C660 1.381 . S
C662 C663 1.394 . S
C662 H670 0.930 . S
C663 C662 1.394 . S
C663 C664 1.383 . S
C663 H671 0.929 . S
C664 C663 1.383 . S
C664 C665 1.377 . S
C665 H649 0.930 . S
C665 C664 1.377 . S
C665 C666 1.379 . S
C666 H650 0.931 . S
C666 C660 1.383 . S
C666 C665 1.379 . S
H667 C661 0.959 . S
H668 C661 0.961 . S
H669 C661 0.960 . S
H670 C662 0.930 . S
H671 C663 0.929 . S
H672 C680 0.929 . S
H673 C682 0.930 . S
H674 C684 0.930 . S
H675 C687 0.929 . S
H676 C690 0.930 . S
H677 C692 0.960 . S
H678 C692 0.960 . S
H679 C692 0.960 . S
C680 H672 0.929 . S
C680 C681 1.377 . S
C680 C682 1.384 . S
C681 C680 1.377 . S
C681 C687 1.390 . S
C682 H673 0.930 . S
C682 C680 1.384 . S
C682 C683 1.372 . S
C683 C682 1.372 . S
C683 C684 1.400 . S
C683 C688 1.490 . S
C684 H674 0.930 . S
C684 C683 1.400 . S
C684 C687 1.386 . S
H685 C701 0.930 . S
H686 C702 0.931 . S
C687 H675 0.929 . S
C687 C681 1.390 . S
C687 C684 1.386 . S
C688 C683 1.490 . S
C688 C690 1.395 . S
C688 C691 1.403 . S
H689 C695 0.930 . S
C690 H676 0.930 . S
C690 C688 1.395 . S
C690 C693 1.403 . S
C691 C688 1.403 . S
C691 C692 1.524 . S
C691 C695 1.400 . S
C692 H677 0.960 . S
C692 H678 0.960 . S
C692 H679 0.960 . S
C692 C691 1.524 . S
C693 C690 1.403 . S
C693 C694 1.392 . S
C693 C697 1.495 . S
C694 C693 1.392 . S
C694 C695 1.385 . S
C694 C696 1.478 . S
C695 H689 0.930 . S
C695 C691 1.400 . S
C695 C694 1.385 . S
C696 C694 1.478 . S
C696 C698 1.381 . S
C696 C702 1.383 . S
C697 C693 1.495 . S
C697 H703 0.959 . S
C697 H704 0.961 . S
C697 H705 0.960 . S
C698 C696 1.381 . S
C698 C699 1.394 . S
C698 H706 0.930 . S
C699 C698 1.394 . S
C699 C700 1.383 . S
C699 H707 0.929 . S
C700 C699 1.383 . S
C700 C701 1.377 . S
C701 H685 0.930 . S
C701 C700 1.377 . S
C701 C702 1.379 . S
C702 H686 0.931 . S
C702 C696 1.383 . S
C702 C701 1.379 . S
H703 C697 0.959 . S
H704 C697 0.961 . S
H705 C697 0.960 . S
H706 C698 0.930 . S
H707 C699 0.929 . S
H708 C716 0.929 . S
H709 C718 0.930 . S
H710 C720 0.930 . S
H711 C723 0.929 . S
H712 C726 0.930 . S
H713 C728 0.960 . S
H714 C728 0.960 . S
H715 C728 0.960 . S
C716 H708 0.929 . S
C716 C717 1.377 . S
C716 C718 1.384 . S
C717 C716 1.377 . S
C717 C723 1.390 . S
C718 H709 0.930 . S
C718 C716 1.384 . S
C718 C719 1.372 . S
C719 C718 1.372 . S
C719 C720 1.400 . S
C719 C724 1.490 . S
C720 H710 0.930 . S
C720 C719 1.400 . S
C720 C723 1.386 . S
H721 C737 0.930 1_565 S
H722 C738 0.931 . S
C723 H711 0.929 . S
C723 C717 1.390 . S
C723 C720 1.386 . S
C724 C719 1.490 . S
C724 C726 1.395 . S
C724 C727 1.403 . S
H725 C731 0.930 . S
C726 H712 0.930 . S
C726 C724 1.395 . S
C726 C729 1.403 . S
C727 C724 1.403 . S
C727 C728 1.524 . S
C727 C731 1.400 . S
C728 H713 0.960 . S
C728 H714 0.960 . S
C728 H715 0.960 . S
C728 C727 1.524 . S
C729 C726 1.403 . S
C729 C730 1.392 . S
C729 C733 1.495 . S
C730 C729 1.392 . S
C730 C731 1.385 . S
C730 C732 1.478 . S
C731 H725 0.930 . S
C731 C727 1.400 . S
C731 C730 1.385 . S
C732 C730 1.478 . S
C732 C734 1.381 . S
C732 C738 1.383 . S
C733 C729 1.495 . S
C733 H739 0.959 . S
C733 H740 0.961 . S
C733 H741 0.960 . S
C734 C732 1.381 . S
C734 C735 1.394 . S
C734 H742 0.930 . S
C735 C734 1.394 . S
C735 C736 1.383 . S
C735 H743 0.929 . S
C736 C735 1.383 . S
C736 C737 1.377 . S
C737 H721 0.930 1_545 S
C737 C736 1.377 . S
C737 C738 1.379 . S
C738 H722 0.931 . S
C738 C732 1.383 . S
C738 C737 1.379 . S
H739 C733 0.959 . S
H740 C733 0.961 . S
H741 C733 0.960 . S
H742 C734 0.930 . S
H743 C735 0.929 . S
H744 C752 0.929 . S
H745 C754 0.930 . S
H746 C756 0.930 . S
H747 C759 0.929 . S
H748 C762 0.930 . S
H749 C764 0.960 . S
H750 C764 0.960 . S
H751 C764 0.960 . S
C752 H744 0.929 . S
C752 C753 1.377 . S
C752 C754 1.384 . S
C753 C752 1.377 . S
C753 C759 1.390 . S
C754 H745 0.930 . S
C754 C752 1.384 . S
C754 C755 1.372 . S
C755 C754 1.372 . S
C755 C756 1.400 . S
C755 C760 1.490 . S
C756 H746 0.930 . S
C756 C755 1.400 . S
C756 C759 1.386 . S
H757 C773 0.930 . S
H758 C774 0.931 . S
C759 H747 0.929 . S
C759 C753 1.390 . S
C759 C756 1.386 . S
C760 C755 1.490 . S
C760 C762 1.395 . S
C760 C763 1.403 . S
H761 C767 0.930 . S
C762 H748 0.930 . S
C762 C760 1.395 . S
C762 C765 1.403 . S
C763 C760 1.403 . S
C763 C764 1.524 . S
C763 C767 1.400 . S
C764 H749 0.960 . S
C764 H750 0.960 . S
C764 H751 0.960 . S
C764 C763 1.524 . S
C765 C762 1.403 . S
C765 C766 1.392 . S
C765 C769 1.495 . S
C766 C765 1.392 . S
C766 C767 1.385 . S
C766 C768 1.478 . S
C767 H761 0.930 . S
C767 C763 1.400 . S
C767 C766 1.385 . S
C768 C766 1.478 . S
C768 C770 1.381 . S
C768 C774 1.383 . S
C769 C765 1.495 . S
C769 H775 0.959 . S
C769 H776 0.961 . S
C769 H777 0.960 . S
C770 C768 1.381 . S
C770 C771 1.394 . S
C770 H778 0.930 . S
C771 C770 1.394 . S
C771 C772 1.383 . S
C771 H779 0.929 . S
C772 C771 1.383 . S
C772 C773 1.377 . S
C773 H757 0.930 . S
C773 C772 1.377 . S
C773 C774 1.379 . S
C774 H758 0.931 . S
C774 C768 1.383 . S
C774 C773 1.379 . S
H775 C769 0.959 . S
H776 C769 0.961 . S
H777 C769 0.960 . S
H778 C770 0.930 . S
H779 C771 0.929 . S
H780 C788 0.929 . S
H781 C790 0.930 . S
H782 C792 0.930 . S
H783 C795 0.929 . S
H784 C798 0.930 . S
H785 C800 0.960 . S
H786 C800 0.960 . S
H787 C800 0.960 . S
C788 H780 0.929 . S
C788 C789 1.377 . S
C788 C790 1.384 . S
C789 C788 1.377 . S
C789 C795 1.390 . S
C790 H781 0.930 . S
C790 C788 1.384 . S
C790 C791 1.372 . S
C791 C790 1.372 . S
C791 C792 1.400 . S
C791 C796 1.490 . S
C792 H782 0.930 . S
C792 C791 1.400 . S
C792 C795 1.386 . S
H793 C809 0.930 . S
H794 C810 0.931 . S
C795 H783 0.929 . S
C795 C789 1.390 . S
C795 C792 1.386 . S
C796 C791 1.490 . S
C796 C798 1.395 . S
C796 C799 1.403 . S
H797 C803 0.930 . S
C798 H784 0.930 . S
C798 C796 1.395 . S
C798 C801 1.403 . S
C799 C796 1.403 . S
C799 C800 1.524 . S
C799 C803 1.400 . S
C800 H785 0.960 . S
C800 H786 0.960 . S
C800 H787 0.960 . S
C800 C799 1.524 . S
C801 C798 1.403 . S
C801 C802 1.392 . S
C801 C805 1.495 . S
C802 C801 1.392 . S
C802 C803 1.385 . S
C802 C804 1.478 . S
C803 H797 0.930 . S
C803 C799 1.400 . S
C803 C802 1.385 . S
C804 C802 1.478 . S
C804 C806 1.381 . S
C804 C810 1.383 . S
C805 C801 1.495 . S
C805 H811 0.959 . S
C805 H812 0.961 . S
C805 H813 0.960 . S
C806 C804 1.381 . S
C806 C807 1.394 . S
C806 H814 0.930 . S
C807 C806 1.394 . S
C807 C808 1.383 . S
C807 H815 0.929 . S
C808 C807 1.383 . S
C808 C809 1.377 . S
C809 H793 0.930 . S
C809 C808 1.377 . S
C809 C810 1.379 . S
C810 H794 0.931 . S
C810 C804 1.383 . S
C810 C809 1.379 . S
H811 C805 0.959 . S
H812 C805 0.961 . S
H813 C805 0.960 . S
H814 C806 0.930 . S
H815 C807 0.929 . S
H816 C824 0.929 . S
H817 C826 0.930 . S
H818 C828 0.930 1_455 S
H819 C831 0.929 1_455 S
H820 C834 0.930 . S
H821 C836 0.960 . S
H822 C836 0.960 . S
H823 C836 0.960 . S
C824 H816 0.929 . S
C824 C825 1.377 . S
C824 C826 1.384 . S
C825 C824 1.377 . S
C825 C831 1.390 . S
C826 H817 0.930 . S
C826 C824 1.384 . S
C826 C827 1.372 . S
C827 C826 1.372 . S
C827 C828 1.400 . S
C827 C832 1.490 . S
C828 H818 0.930 1_655 S
C828 C827 1.400 . S
C828 C831 1.386 . S
H829 C845 0.930 . S
H830 C846 0.931 . S
C831 H819 0.929 1_655 S
C831 C825 1.390 . S
C831 C828 1.386 . S
C832 C827 1.490 . S
C832 C834 1.395 . S
C832 C835 1.403 . S
H833 C839 0.930 . S
C834 H820 0.930 . S
C834 C832 1.395 . S
C834 C837 1.403 1_545 S
C835 C832 1.403 . S
C835 C836 1.524 . S
C835 C839 1.400 1_545 S
C836 H821 0.960 . S
C836 H822 0.960 . S
C836 H823 0.960 . S
C836 C835 1.524 . S
C837 C834 1.403 1_565 S
C837 C838 1.392 . S
C837 C841 1.495 . S
C838 C837 1.392 . S
C838 C839 1.385 . S
C838 C840 1.478 . S
C839 H833 0.930 . S
C839 C835 1.400 1_565 S
C839 C838 1.385 . S
C840 C838 1.478 . S
C840 C842 1.381 . S
C840 C846 1.383 . S
C841 C837 1.495 . S
C841 H847 0.959 . S
C841 H848 0.961 . S
C841 H849 0.960 . S
C842 C840 1.381 . S
C842 C843 1.394 . S
C842 H850 0.930 . S
C843 C842 1.394 . S
C843 C844 1.383 . S
C843 H851 0.929 . S
C844 C843 1.383 . S
C844 C845 1.377 . S
C845 H829 0.930 . S
C845 C844 1.377 . S
C845 C846 1.379 . S
C846 H830 0.931 . S
C846 C840 1.383 . S
C846 C845 1.379 . S
H847 C841 0.959 . S
H848 C841 0.961 . S
H849 C841 0.960 . S
H850 C842 0.930 . S
H851 C843 0.929 . S
H852 C860 0.929 . S
H853 C862 0.930 . S
H854 C864 0.930 1_545 S
H855 C867 0.929 1_545 S
H856 C870 0.930 . S
H857 C872 0.960 1_455 S
H858 C872 0.960 . S
H859 C872 0.960 . S
C860 H852 0.929 . S
C860 C861 1.377 . S
C860 C862 1.384 . S
C861 C860 1.377 . S
C861 C867 1.390 . S
C862 H853 0.930 . S
C862 C860 1.384 . S
C862 C863 1.372 . S
C863 C862 1.372 . S
C863 C864 1.400 . S
C863 C868 1.490 . S
C864 H854 0.930 1_565 S
C864 C863 1.400 . S
C864 C867 1.386 . S
H865 C881 0.930 . S
H866 C882 0.931 . S
C867 H855 0.929 1_565 S
C867 C861 1.390 . S
C867 C864 1.386 . S
C868 C863 1.490 . S
C868 C870 1.395 . S
C868 C871 1.403 1_655 S
H869 C875 0.930 . S
C870 H856 0.930 . S
C870 C868 1.395 . S
C870 C873 1.403 1_655 S
C871 C868 1.403 1_455 S
C871 C872 1.524 1_455 S
C871 C875 1.400 . S
C872 H857 0.960 1_655 S
C872 H858 0.960 . S
C872 H859 0.960 . S
C872 C871 1.524 1_655 S
C873 C870 1.403 1_455 S
C873 C874 1.392 . S
C873 C877 1.495 . S
C874 C873 1.392 . S
C874 C875 1.385 . S
C874 C876 1.478 . S
C875 H869 0.930 . S
C875 C871 1.400 . S
C875 C874 1.385 . S
C876 C874 1.478 . S
C876 C878 1.381 . S
C876 C882 1.383 . S
C877 C873 1.495 . S
C877 H883 0.959 . S
C877 H884 0.961 . S
C877 H885 0.960 . S
C878 C876 1.381 . S
C878 C879 1.394 . S
C878 H886 0.930 . S
C879 C878 1.394 . S
C879 C880 1.383 . S
C879 H887 0.929 . S
C880 C879 1.383 . S
C880 C881 1.377 . S
C881 H865 0.930 . S
C881 C880 1.377 . S
C881 C882 1.379 . S
C882 H866 0.931 . S
C882 C876 1.383 . S
C882 C881 1.379 . S
H883 C877 0.959 . S
H884 C877 0.961 . S
H885 C877 0.960 . S
H886 C878 0.930 . S
H887 C879 0.929 . S
H888 C896 0.929 . S
H889 C898 0.930 . S
H890 C900 0.930 . S
H891 C903 0.929 . S
H892 C906 0.930 . S
H893 C908 0.960 1_565 S
H894 C908 0.960 . S
H895 C908 0.960 . S
C896 H888 0.929 . S
C896 C897 1.377 . S
C896 C898 1.384 . S
C897 C896 1.377 . S
C897 C903 1.390 . S
C898 H889 0.930 . S
C898 C896 1.384 . S
C898 C899 1.372 . S
C899 C898 1.372 . S
C899 C900 1.400 . S
C899 C904 1.490 . S
C900 H890 0.930 . S
C900 C899 1.400 . S
C900 C903 1.386 . S
H901 C917 0.930 . S
H902 C918 0.931 1_455 S
C903 H891 0.929 . S
C903 C897 1.390 . S
C903 C900 1.386 . S
C904 C899 1.490 . S
C904 C906 1.395 1_545 S
C904 C907 1.403 1_545 S
H905 C911 0.930 . S
C906 H892 0.930 . S
C906 C904 1.395 1_565 S
C906 C909 1.403 . S
C907 C904 1.403 1_565 S
C907 C908 1.524 1_565 S
C907 C911 1.400 . S
C908 H893 0.960 1_545 S
C908 H894 0.960 . S
C908 H895 0.960 . S
C908 C907 1.524 1_545 S
C909 C906 1.403 . S
C909 C910 1.392 . S
C909 C913 1.495 . S
C910 C909 1.392 . S
C910 C911 1.385 . S
C910 C912 1.478 . S
C911 H905 0.930 . S
C911 C907 1.400 . S
C911 C910 1.385 . S
C912 C910 1.478 . S
C912 C914 1.381 1_455 S
C912 C918 1.383 1_455 S
C913 C909 1.495 . S
C913 H919 0.959 . S
C913 H920 0.961 . S
C913 H921 0.960 . S
C914 C912 1.381 1_655 S
C914 C915 1.394 . S
C914 H922 0.930 . S
C915 C914 1.394 . S
C915 C916 1.383 . S
C915 H923 0.929 . S
C916 C915 1.383 . S
C916 C917 1.377 . S
C917 H901 0.930 . S
C917 C916 1.377 . S
C917 C918 1.379 . S
C918 H902 0.931 1_655 S
C918 C912 1.383 1_655 S
C918 C917 1.379 . S
H919 C913 0.959 . S
H920 C913 0.961 . S
H921 C913 0.960 . S
H922 C914 0.930 . S
H923 C915 0.929 . S
H924 C932 0.929 . S
H925 C934 0.930 . S
H926 C936 0.930 1_455 S
H927 C939 0.929 . S
H928 C942 0.930 1_565 S
H929 C944 0.960 . S
H930 C944 0.960 . S
H931 C944 0.960 . S
C932 H924 0.929 . S
C932 C933 1.377 . S
C932 C934 1.384 . S
C933 C932 1.377 . S
C933 C939 1.390 . S
C934 H925 0.930 . S
C934 C932 1.384 . S
C934 C935 1.372 1_655 S
C935 C934 1.372 1_455 S
C935 C936 1.400 1_455 S
C935 C940 1.490 . S
C936 H926 0.930 1_655 S
C936 C935 1.400 1_655 S
C936 C939 1.386 . S
H937 C953 0.930 . S
H938 C954 0.931 . S
C939 H927 0.929 . S
C939 C933 1.390 . S
C939 C936 1.386 . S
C940 C935 1.490 . S
C940 C942 1.395 . S
C940 C943 1.403 . S
H941 C947 0.930 . S
C942 H928 0.930 1_545 S
C942 C940 1.395 . S
C942 C945 1.403 . S
C943 C940 1.403 . S
C943 C944 1.524 . S
C943 C947 1.400 . S
C944 H929 0.960 . S
C944 H930 0.960 . S
C944 H931 0.960 . S
C944 C943 1.524 . S
C945 C942 1.403 . S
C945 C946 1.392 . S
C945 C949 1.495 1_545 S
C946 C945 1.392 . S
C946 C947 1.385 . S
C946 C948 1.478 . S
C947 H941 0.930 . S
C947 C943 1.400 . S
C947 C946 1.385 . S
C948 C946 1.478 . S
C948 C950 1.381 . S
C948 C954 1.383 . S
C949 C945 1.495 1_565 S
C949 H955 0.959 . S
C949 H956 0.961 . S
C949 H957 0.960 . S
C950 C948 1.381 . S
C950 C951 1.394 . S
C950 H958 0.930 . S
C951 C950 1.394 . S
C951 C952 1.383 . S
C951 H959 0.929 . S
C952 C951 1.383 . S
C952 C953 1.377 . S
C953 H937 0.930 . S
C953 C952 1.377 . S
C953 C954 1.379 . S
C954 H938 0.931 . S
C954 C948 1.383 . S
C954 C953 1.379 . S
H955 C949 0.959 . S
H956 C949 0.961 . S
H957 C949 0.960 . S
H958 C950 0.930 . S
H959 C951 0.929 . S
H960 C968 0.929 . S
H961 C970 0.930 . S
H962 C972 0.930 1_545 S
H963 C975 0.929 . S
H964 C978 0.930 . S
H965 C980 0.960 . S
H966 C980 0.960 . S
H967 C980 0.960 . S
C968 H960 0.929 . S
C968 C969 1.377 . S
C968 C970 1.384 . S
C969 C968 1.377 . S
C969 C975 1.390 . S
C970 H961 0.930 . S
C970 C968 1.384 . S
C970 C971 1.372 . S
C971 C970 1.372 . S
C971 C972 1.400 . S
C971 C976 1.490 1_565 S
C972 H962 0.930 1_565 S
C972 C971 1.400 . S
C972 C975 1.386 . S
H973 C989 0.930 . S
H974 C990 0.931 1_655 S
C975 H963 0.929 . S
C975 C969 1.390 . S
C975 C972 1.386 . S
C976 C971 1.490 1_545 S
C976 C978 1.395 . S
C976 C979 1.403 . S
H977 C983 0.930 . S
C978 H964 0.930 . S
C978 C976 1.395 . S
C978 C981 1.403 . S
C979 C976 1.403 . S
C979 C980 1.524 . S
C979 C983 1.400 . S
C980 H965 0.960 . S
C980 H966 0.960 . S
C980 H967 0.960 . S
C980 C979 1.524 . S
C981 C978 1.403 . S
C981 C982 1.392 . S
C981 C985 1.495 . S
C982 C981 1.392 . S
C982 C983 1.385 . S
C982 C984 1.478 1_655 S
C983 H977 0.930 . S
C983 C979 1.400 . S
C983 C982 1.385 . S
C984 C982 1.478 1_455 S
C984 C986 1.381 . S
C984 C990 1.383 . S
C985 C981 1.495 . S
C985 H991 0.959 . S
C985 H992 0.961 . S
C985 H993 0.960 1_655 S
C986 C984 1.381 . S
C986 C987 1.394 . S
C986 H994 0.930 . S
C987 C986 1.394 . S
C987 C988 1.383 . S
C987 H995 0.929 . S
C988 C987 1.383 . S
C988 C989 1.377 . S
C989 H973 0.930 . S
C989 C988 1.377 . S
C989 C990 1.379 . S
C990 H974 0.931 1_455 S
C990 C984 1.383 . S
C990 C989 1.379 . S
H991 C985 0.959 . S
H992 C985 0.961 . S
H993 C985 0.960 1_455 S
H994 C986 0.930 . S
H995 C987 0.929 . S
H996 C1004 0.929 . S
H997 C1006 0.930 . S
H998 C1008 0.930 . S
H999 C1011 0.929 . S
H1000 C1014 0.930 . S
H1001 C1016 0.960 . S
H1002 C1016 0.960 . S
H1003 C1016 0.960 . S
C1004 H996 0.929 . S
C1004 C1005 1.377 . S
C1004 C1006 1.384 . S
C1005 C1004 1.377 . S
C1005 C1011 1.390 . S
C1006 H997 0.930 . S
C1006 C1004 1.384 . S
C1006 C1007 1.372 . S
C1007 C1006 1.372 . S
C1007 C1008 1.400 . S
C1007 C1012 1.490 1_565 S
C1008 H998 0.930 . S
C1008 C1007 1.400 . S
C1008 C1011 1.386 . S
H1009 C1025 0.930 1_655 S
H1010 C1026 0.931 1_655 S
C1011 H999 0.929 . S
C1011 C1005 1.390 . S
C1011 C1008 1.386 . S
C1012 C1007 1.490 1_545 S
C1012 C1014 1.395 . S
C1012 C1015 1.403 . S
H1013 C1019 0.930 . S
C1014 H1000 0.930 . S
C1014 C1012 1.395 . S
C1014 C1017 1.403 . S
C1015 C1012 1.403 . S
C1015 C1016 1.524 1_545 S
C1015 C1019 1.400 . S
C1016 H1001 0.960 . S
C1016 H1002 0.960 . S
C1016 H1003 0.960 . S
C1016 C1015 1.524 1_565 S
C1017 C1014 1.403 . S
C1017 C1018 1.392 . S
C1017 C1021 1.495 . S
C1018 C1017 1.392 . S
C1018 C1019 1.385 . S
C1018 C1020 1.478 . S
C1019 H1013 0.930 . S
C1019 C1015 1.400 . S
C1019 C1018 1.385 . S
C1020 C1018 1.478 . S
C1020 C1022 1.381 . S
C1020 C1026 1.383 . S
C1021 C1017 1.495 . S
C1021 H1027 0.959 . S
C1021 H1028 0.961 . S
C1021 H1029 0.960 . S
C1022 C1020 1.381 . S
C1022 C1023 1.394 . S
C1022 H1030 0.930 . S
C1023 C1022 1.394 . S
C1023 C1024 1.383 . S
C1023 H1031 0.929 . S
C1024 C1023 1.383 . S
C1024 C1025 1.377 . S
C1025 H1009 0.930 1_455 S
C1025 C1024 1.377 . S
C1025 C1026 1.379 . S
C1026 H1010 0.931 1_455 S
C1026 C1020 1.383 . S
C1026 C1025 1.379 . S
H1027 C1021 0.959 . S
H1028 C1021 0.961 . S
H1029 C1021 0.960 . S
H1030 C1022 0.930 . S
H1031 C1023 0.929 . S
C177 C162 0.924 . S
C196 C8 0.969 . S
C213 C22 0.859 . S
C232 C92 0.863 . S
C249 C36 0.995 . S
C268 C106 0.987 . S
C285 C50 1.656 . S
C304 C120 1.632 . S
C321 C134 1.806 . S
C340 C64 1.764 . S
C357 C78 2.014 . S
C376 C148 1.996 . S
C393 C7 1.811 . S
C412 C147 1.760 . S
C429 C21 1.225 . S
C448 C161 1.230 . S
C465 C35 1.223 . S
C484 C91 1.234 . S
C501 C49 1.553 . S
C520 C105 1.576 . S
C537 C119 2.107 . S
C556 C63 2.094 . S
C573 C133 2.285 . S
C592 C77 2.258 . S
C609 C48 1.402 . S
C628 C6 1.406 . S
C645 C20 1.352 . S
C664 C62 1.356 . S
C681 C76 1.368 . S
C700 C34 1.366 . S
C717 C132 1.401 . S
C736 C90 1.401 . S
C753 C146 1.378 . S
C772 C104 1.376 . S
C789 C118 1.338 . S
C808 C160 1.323 . S
C825 C9 1.260 . S
C844 C51 1.226 . S
C861 C23 1.221 . S
C880 C65 1.202 . S
C897 C79 1.207 . S
C916 C37 1.204 . S
C933 C93 1.199 . S
C952 C135 1.234 . S
C969 C107 1.257 . S
C988 C149 1.263 . S
C1005 C121 1.186 . S
C1024 C163 1.217 . S
