# Generated by pormake.
# Topology lcy-a, (4)-cn, num edge types: 1
# Building blocks:
#     Node 0, Type 0, BuildingBlock: KUFVIS_clean_sbu_0, # of connection points: 4
#     Node 1, Type 0, BuildingBlock: KUFVIS_clean_sbu_0, # of connection points: 4
#     Node 2, Type 0, BuildingBlock: KUFVIS_clean_sbu_0, # of connection points: 4
#     Node 3, Type 0, BuildingBlock: KUFVIS_clean_sbu_0, # of connection points: 4
#     Node 4, Type 0, BuildingBlock: KUFVIS_clean_sbu_0, # of connection points: 4
#     Node 5, Type 0, BuildingBlock: KUFVIS_clean_sbu_0, # of connection points: 4
#     Node 6, Type 0, BuildingBlock: KUFVIS_clean_sbu_0, # of connection points: 4
#     Node 7, Type 0, BuildingBlock: KUFVIS_clean_sbu_0, # of connection points: 4
#     Node 8, Type 0, BuildingBlock: KUFVIS_clean_sbu_0, # of connection points: 4
#     Node 9, Type 0, BuildingBlock: KUFVIS_clean_sbu_0, # of connection points: 4
#     Node 10, Type 0, BuildingBlock: KUFVIS_clean_sbu_0, # of connection points: 4
#     Node 11, Type 0, BuildingBlock: KUFVIS_clean_sbu_0, # of connection points: 4
#     Node 12, Type 0, BuildingBlock: KUFVIS_clean_sbu_0, # of connection points: 4
#     Node 13, Type 0, BuildingBlock: KUFVIS_clean_sbu_0, # of connection points: 4
#     Node 14, Type 0, BuildingBlock: KUFVIS_clean_sbu_0, # of connection points: 4
#     Node 15, Type 0, BuildingBlock: KUFVIS_clean_sbu_0, # of connection points: 4
#     Node 16, Type 0, BuildingBlock: KUFVIS_clean_sbu_0, # of connection points: 4
#     Node 17, Type 0, BuildingBlock: KUFVIS_clean_sbu_0, # of connection points: 4
#     Node 18, Type 0, BuildingBlock: KUFVIS_clean_sbu_0, # of connection points: 4
#     Node 19, Type 0, BuildingBlock: KUFVIS_clean_sbu_0, # of connection points: 4
#     Node 20, Type 0, BuildingBlock: KUFVIS_clean_sbu_0, # of connection points: 4
#     Node 21, Type 0, BuildingBlock: KUFVIS_clean_sbu_0, # of connection points: 4
#     Node 22, Type 0, BuildingBlock: KUFVIS_clean_sbu_0, # of connection points: 4
#     Node 23, Type 0, BuildingBlock: KUFVIS_clean_sbu_0, # of connection points: 4
#     Edge 24, Type (0, 0), None
#     Edge 25, Type (0, 0), None
#     Edge 26, Type (0, 0), None
#     Edge 27, Type (0, 0), None
#     Edge 28, Type (0, 0), None
#     Edge 29, Type (0, 0), None
#     Edge 30, Type (0, 0), None
#     Edge 31, Type (0, 0), None
#     Edge 32, Type (0, 0), None
#     Edge 33, Type (0, 0), None
#     Edge 34, Type (0, 0), None
#     Edge 35, Type (0, 0), None
#     Edge 36, Type (0, 0), None
#     Edge 37, Type (0, 0), None
#     Edge 38, Type (0, 0), None
#     Edge 39, Type (0, 0), None
#     Edge 40, Type (0, 0), None
#     Edge 41, Type (0, 0), None
#     Edge 42, Type (0, 0), None
#     Edge 43, Type (0, 0), None
#     Edge 44, Type (0, 0), None
#     Edge 45, Type (0, 0), None
#     Edge 46, Type (0, 0), None
#     Edge 47, Type (0, 0), None
#     Edge 48, Type (0, 0), None
#     Edge 49, Type (0, 0), None
#     Edge 50, Type (0, 0), None
#     Edge 51, Type (0, 0), None
#     Edge 52, Type (0, 0), None
#     Edge 53, Type (0, 0), None
#     Edge 54, Type (0, 0), None
#     Edge 55, Type (0, 0), None
#     Edge 56, Type (0, 0), None
#     Edge 57, Type (0, 0), None
#     Edge 58, Type (0, 0), None
#     Edge 59, Type (0, 0), None
#     Edge 60, Type (0, 0), None
#     Edge 61, Type (0, 0), None
#     Edge 62, Type (0, 0), None
#     Edge 63, Type (0, 0), None
#     Edge 64, Type (0, 0), None
#     Edge 65, Type (0, 0), None
#     Edge 66, Type (0, 0), None
#     Edge 67, Type (0, 0), None
#     Edge 68, Type (0, 0), None
#     Edge 69, Type (0, 0), None
#     Edge 70, Type (0, 0), None
#     Edge 71, Type (0, 0), None
# Relax obj value: 0.394
# Max RMSD: 0.189
# Mean RMSD: 0.189
data_MOF--net-lcy-a--node1-KUFVIS_clean_sbu_0--edge1-none
_symmetry_space_group_name_H-M    P1
_symmetry_Int_Tables_number       1
_symmetry_cell_setting            triclinic
loop_
_symmetry_equiv_pos_as_xyz
'x, y, z'
_cell_length_a     25.369467
_cell_length_b     25.369432
_cell_length_c     25.370175
_cell_angle_alpha  89.999933
_cell_angle_beta   89.999932
_cell_angle_gamma 89.999994
loop_
_atom_site_label
_atom_site_type_symbol
_atom_site_fract_x
_atom_site_fract_y
_atom_site_fract_z
_atom_type_partial_charge
Mn0 Mn 0.2044 0.28704 0.37956 0.0
Mn1 Mn 0.25914 0.22755 0.48227 0.0
C2 C 0.25238 0.20778 0.36722 0.0
C3 C 0.20439 0.33886 0.30285 0.0
C4 C 0.14666 0.2521 0.47661 0.0
O5 O 0.22332 0.34758 0.43157 0.0
O6 O 0.28443 0.30381 0.48013 0.0
C7 C 0.37165 0.20675 0.452 0.0
N8 N 0.32633 0.19238 0.47607 0.0
C9 C 0.3638 0.10719 0.49875 0.0
C10 C 0.41221 0.12364 0.47943 0.0
C11 C 0.41525 0.17157 0.45292 0.0
C12 C 0.32113 0.14227 0.49495 0.0
H13 H 0.37285 0.24376 0.4311 0.0
C14 C 0.26222 0.34747 0.46456 0.0
O15 O 0.16104 0.33098 0.32855 0.0
O16 O 0.24718 0.32088 0.32402 0.0
N17 N 0.23305 0.15629 0.48125 0.0
C18 C 0.18859 0.13639 0.45882 0.0
C19 C 0.17542 0.08316 0.46609 0.0
C20 C 0.21096 0.04962 0.49172 0.0
C21 C 0.26098 0.06888 0.50483 0.0
C22 C 0.27069 0.12307 0.4981 0.0
H23 H 0.16422 0.1605 0.43425 0.0
O24 O 0.21178 0.2187 0.33791 0.0
O25 O 0.25502 0.23823 0.40715 0.0
O26 O 0.1461 0.25829 0.42703 0.0
O27 O 0.18924 0.25507 0.50198 0.0
C28 C 0.3032 0.03532 0.51725 0.0
C29 C 0.35498 0.0546 0.51415 0.0
H30 H 0.44589 0.09734 0.47941 0.0
H31 H 0.4514 0.17892 0.43205 0.0
H32 H 0.13904 0.06766 0.45018 0.0
H33 H 0.20165 0.00813 0.49573 0.0
H34 H 0.29673 0.99363 0.52391 0.0
H35 H 0.38761 0.02737 0.51845 0.0
Mn36 Mn 0.96048 0.95438 0.62956 0.0
Mn37 Mn 0.01997 0.00912 0.73226 0.0
C38 C 0.03975 0.00236 0.61721 0.0
C39 C 0.90866 0.95438 0.55284 0.0
C40 C 0.99542 0.89665 0.72661 0.0
O41 O 0.89994 0.97332 0.68156 0.0
O42 O 0.94371 0.03442 0.73012 0.0
C43 C 0.04079 0.12163 0.70201 0.0
N44 N 0.05515 0.07631 0.72607 0.0
C45 C 0.14034 0.11377 0.74877 0.0
C46 C 0.1239 0.16218 0.72944 0.0
C47 C 0.07597 0.16522 0.70292 0.0
C48 C 0.10526 0.0711 0.74496 0.0
H49 H 0.00378 0.12283 0.68109 0.0
C50 C 0.90006 0.01222 0.71455 0.0
O51 O 0.91654 0.91103 0.57855 0.0
O52 O 0.92665 0.99717 0.57401 0.0
N53 N 0.09123 0.98302 0.73125 0.0
C54 C 0.11113 0.93857 0.70882 0.0
C55 C 0.16435 0.92539 0.71609 0.0
C56 C 0.1979 0.96092 0.74173 0.0
C57 C 0.17864 0.01095 0.75484 0.0
C58 C 0.12445 0.02066 0.74811 0.0
H59 H 0.08702 0.9142 0.68424 0.0
O60 O 0.02883 0.96176 0.5879 0.0
O61 O 0.0093 0.005 0.65715 0.0
O62 O 0.98923 0.89609 0.67702 0.0
O63 O 0.99245 0.93923 0.75197 0.0
C64 C 0.2122 0.05316 0.76727 0.0
C65 C 0.19293 0.10494 0.76417 0.0
H66 H 0.1502 0.19586 0.72943 0.0
H67 H 0.06863 0.20138 0.68206 0.0
H68 H 0.17986 0.88901 0.70017 0.0
H69 H 0.23938 0.95161 0.74574 0.0
H70 H 0.25389 0.04668 0.77393 0.0
H71 H 0.22016 0.13757 0.76848 0.0
Mn72 Mn 0.29314 0.7105 0.87957 0.0
Mn73 Mn 0.2384 0.76999 0.98227 0.0
C74 C 0.24516 0.78976 0.86722 0.0
C75 C 0.29315 0.65867 0.80285 0.0
C76 C 0.35087 0.74544 0.97662 0.0
O77 O 0.27421 0.64996 0.93157 0.0
O78 O 0.21311 0.69373 0.98014 0.0
C79 C 0.12588 0.79079 0.95201 0.0
N80 N 0.17121 0.80516 0.97607 0.0
C81 C 0.13373 0.89035 0.99875 0.0
C82 C 0.08532 0.87391 0.97942 0.0
C83 C 0.08229 0.82597 0.95292 0.0
C84 C 0.17641 0.85527 0.99495 0.0
H85 H 0.12468 0.75378 0.9311 0.0
C86 C 0.23531 0.65007 0.96457 0.0
O87 O 0.3365 0.66656 0.82856 0.0
O88 O 0.25036 0.67666 0.82402 0.0
N89 N 0.26449 0.84125 0.98125 0.0
C90 C 0.30894 0.86115 0.95882 0.0
C91 C 0.32212 0.91438 0.96608 0.0
C92 C 0.28658 0.94792 0.99172 0.0
C93 C 0.23655 0.92866 0.00482 0.0
C94 C 0.22685 0.87447 0.99809 0.0
H95 H 0.33332 0.83704 0.93425 0.0
O96 O 0.28576 0.77884 0.83791 0.0
O97 O 0.24252 0.75931 0.90716 0.0
O98 O 0.35143 0.73925 0.92703 0.0
O99 O 0.30829 0.74247 0.00198 0.0
C100 C 0.19433 0.96222 0.01723 0.0
C101 C 0.14256 0.94294 0.01414 0.0
H102 H 0.05164 0.9002 0.97941 0.0
H103 H 0.04613 0.81862 0.93206 0.0
H104 H 0.3585 0.92988 0.95017 0.0
H105 H 0.29589 0.98941 0.99572 0.0
H106 H 0.20081 0.00391 0.02389 0.0
H107 H 0.10992 0.97017 0.01844 0.0
Mn108 Mn 0.53706 0.04316 0.12956 0.0
Mn109 Mn 0.47757 0.98842 0.23226 0.0
C110 C 0.45779 0.99518 0.11721 0.0
C111 C 0.58888 0.04316 0.05284 0.0
C112 C 0.50212 0.10089 0.22661 0.0
O113 O 0.5976 0.02422 0.18156 0.0
O114 O 0.55383 0.96313 0.23012 0.0
C115 C 0.45674 0.87591 0.20201 0.0
N116 N 0.44238 0.92123 0.22607 0.0
C117 C 0.3572 0.88377 0.24877 0.0
C118 C 0.37363 0.83536 0.22944 0.0
C119 C 0.42157 0.83232 0.20292 0.0
C120 C 0.39228 0.92644 0.24496 0.0
H121 H 0.49376 0.87471 0.18109 0.0
C122 C 0.59748 0.98532 0.21455 0.0
O123 O 0.581 0.08651 0.07855 0.0
O124 O 0.57089 0.00037 0.07401 0.0
N125 N 0.40631 0.01452 0.23125 0.0
C126 C 0.38641 0.05897 0.20882 0.0
C127 C 0.33319 0.07215 0.21608 0.0
C128 C 0.29964 0.03662 0.24173 0.0
C129 C 0.3189 0.9866 0.25484 0.0
C130 C 0.37309 0.97688 0.24811 0.0
H131 H 0.41052 0.08334 0.18423 0.0
O132 O 0.46871 0.03578 0.0879 0.0
O133 O 0.48824 0.99254 0.15715 0.0
O134 O 0.50831 0.10145 0.17702 0.0
O135 O 0.50509 0.05831 0.25197 0.0
C136 C 0.28534 0.94438 0.26727 0.0
C137 C 0.30461 0.8926 0.26417 0.0
H138 H 0.34733 0.80168 0.22943 0.0
H139 H 0.42891 0.79616 0.18206 0.0
H140 H 0.31768 0.10853 0.20016 0.0
H141 H 0.25816 0.04593 0.24574 0.0
H142 H 0.24365 0.95086 0.27393 0.0
H143 H 0.27738 0.85997 0.26848 0.0
Mn144 Mn 0.7044 0.2105 0.61794 0.0
Mn145 Mn 0.75914 0.26999 0.51524 0.0
C146 C 0.75238 0.28976 0.63029 0.0
C147 C 0.70439 0.15868 0.69466 0.0
C148 C 0.64666 0.24544 0.52089 0.0
O149 O 0.72333 0.14996 0.56594 0.0
O150 O 0.78443 0.19373 0.51737 0.0
C151 C 0.87165 0.2908 0.5455 0.0
N152 N 0.82633 0.30517 0.52144 0.0
C153 C 0.8638 0.39036 0.49877 0.0
C154 C 0.91221 0.37391 0.51809 0.0
C155 C 0.91525 0.32597 0.54459 0.0
C156 C 0.82113 0.35528 0.50257 0.0
H157 H 0.87285 0.25378 0.5664 0.0
C158 C 0.76222 0.15008 0.53294 0.0
O159 O 0.66104 0.16656 0.66895 0.0
O160 O 0.74717 0.17667 0.67349 0.0
N161 N 0.73305 0.34125 0.51627 0.0
C162 C 0.68859 0.36115 0.53869 0.0
C163 C 0.67541 0.41438 0.53143 0.0
C164 C 0.71095 0.44793 0.50581 0.0
C165 C 0.76098 0.42867 0.4927 0.0
C166 C 0.77069 0.37448 0.49942 0.0
H167 H 0.66421 0.33704 0.56327 0.0
O168 O 0.71177 0.27884 0.6596 0.0
O169 O 0.75501 0.25931 0.59035 0.0
O170 O 0.6461 0.23925 0.57048 0.0
O171 O 0.68924 0.24248 0.49553 0.0
C172 C 0.8032 0.46223 0.48029 0.0
C173 C 0.85497 0.44295 0.48338 0.0
H174 H 0.94589 0.40021 0.51811 0.0
H175 H 0.95141 0.31862 0.56545 0.0
H176 H 0.63903 0.42988 0.54735 0.0
H177 H 0.70164 0.48941 0.5018 0.0
H178 H 0.79672 0.50392 0.47363 0.0
H179 H 0.88761 0.47018 0.47909 0.0
Mn180 Mn 0.03705 0.45438 0.86795 0.0
Mn181 Mn 0.97756 0.50912 0.76525 0.0
C182 C 0.95779 0.50235 0.8803 0.0
C183 C 0.08888 0.45438 0.94466 0.0
C184 C 0.00212 0.39665 0.7709 0.0
O185 O 0.09759 0.47332 0.81595 0.0
O186 O 0.05382 0.53442 0.76738 0.0
C187 C 0.95674 0.62163 0.7955 0.0
N188 N 0.94238 0.57631 0.77144 0.0
C189 C 0.85719 0.61377 0.74875 0.0
C190 C 0.87363 0.66218 0.76808 0.0
C191 C 0.92156 0.66522 0.79459 0.0
C192 C 0.89227 0.5711 0.75256 0.0
H193 H 0.99376 0.62283 0.81641 0.0
C194 C 0.09748 0.51222 0.78295 0.0
O195 O 0.081 0.41103 0.91896 0.0
O196 O 0.07088 0.49717 0.9235 0.0
N197 N 0.90631 0.48302 0.76626 0.0
C198 C 0.8864 0.43857 0.7887 0.0
C199 C 0.83318 0.42538 0.78144 0.0
C200 C 0.79963 0.46092 0.7558 0.0
C201 C 0.81889 0.51094 0.74269 0.0
C202 C 0.87308 0.52066 0.74941 0.0
H203 H 0.91052 0.4142 0.81328 0.0
O204 O 0.96871 0.46176 0.9096 0.0
O205 O 0.98824 0.505 0.84036 0.0
O206 O 0.00831 0.39609 0.82048 0.0
O207 O 0.00509 0.43923 0.74554 0.0
C208 C 0.78532 0.55316 0.73027 0.0
C209 C 0.8046 0.60493 0.73336 0.0
H210 H 0.84732 0.69585 0.76809 0.0
H211 H 0.92891 0.70138 0.81545 0.0
H212 H 0.81768 0.38901 0.79736 0.0
H213 H 0.75815 0.4516 0.75179 0.0
H214 H 0.74364 0.54668 0.72361 0.0
H215 H 0.77737 0.63756 0.72906 0.0
Mn216 Mn 0.79314 0.78704 0.11794 0.0
Mn217 Mn 0.7384 0.72755 0.01524 0.0
C218 C 0.74516 0.70778 0.13029 0.0
C219 C 0.79315 0.83886 0.19466 0.0
C220 C 0.85087 0.7521 0.02089 0.0
O221 O 0.77421 0.84758 0.06594 0.0
O222 O 0.71311 0.80381 0.01737 0.0
C223 C 0.62588 0.70674 0.0455 0.0
N224 N 0.67121 0.69237 0.02144 0.0
C225 C 0.63373 0.60718 -0.00123 0.0
C226 C 0.58533 0.62363 0.01809 0.0
C227 C 0.58229 0.67157 0.04459 0.0
C228 C 0.67641 0.64226 0.00257 0.0
H229 H 0.62468 0.74376 0.0664 0.0
C230 C 0.73531 0.84746 0.03294 0.0
O231 O 0.8365 0.83098 0.16895 0.0
O232 O 0.75036 0.82087 0.17349 0.0
N233 N 0.76449 0.65629 0.01626 0.0
C234 C 0.80895 0.63638 0.03869 0.0
C235 C 0.82212 0.58316 0.03143 0.0
C236 C 0.78658 0.54961 0.0058 0.0
C237 C 0.73656 0.56887 0.9927 0.0
C238 C 0.72685 0.62306 -0.00058 0.0
H239 H 0.83332 0.6605 0.06326 0.0
O240 O 0.78576 0.7187 0.1596 0.0
O241 O 0.74252 0.73823 0.09035 0.0
O242 O 0.85143 0.75829 0.07048 0.0
O243 O 0.80829 0.75506 0.99553 0.0
C244 C 0.69434 0.53531 0.98029 0.0
C245 C 0.64256 0.55459 0.98338 0.0
H246 H 0.55165 0.59733 0.01811 0.0
H247 H 0.54613 0.67892 0.06545 0.0
H248 H 0.8585 0.56766 0.04734 0.0
H249 H 0.79589 0.50812 0.0018 0.0
H250 H 0.70081 0.49362 0.97363 0.0
H251 H 0.60993 0.52736 0.97909 0.0
Mn252 Mn 0.46049 0.54316 0.36795 0.0
Mn253 Mn 0.51997 0.48842 0.26525 0.0
C254 C 0.53975 0.49518 0.3803 0.0
C255 C 0.40866 0.54315 0.44467 0.0
C256 C 0.49542 0.60089 0.2709 0.0
O257 O 0.39994 0.52422 0.31595 0.0
O258 O 0.44372 0.46313 0.26738 0.0
C259 C 0.5408 0.37591 0.2955 0.0
N260 N 0.55516 0.42123 0.27144 0.0
C261 C 0.64035 0.38377 0.24875 0.0
C262 C 0.62391 0.33536 0.26807 0.0
C263 C 0.57597 0.33232 0.29459 0.0
C264 C 0.60527 0.42644 0.25255 0.0
H265 H 0.50378 0.37471 0.31641 0.0
C266 C 0.40006 0.48532 0.28295 0.0
O267 O 0.41654 0.58651 0.41896 0.0
O268 O 0.42666 0.50037 0.4235 0.0
N269 N 0.59123 0.51452 0.26626 0.0
C270 C 0.61113 0.55897 0.28869 0.0
C271 C 0.66435 0.57215 0.28143 0.0
C272 C 0.6979 0.53662 0.25579 0.0
C273 C 0.67865 0.4866 0.24268 0.0
C274 C 0.62445 0.47688 0.24941 0.0
H275 H 0.58702 0.58334 0.31328 0.0
O276 O 0.52883 0.53578 0.40961 0.0
O277 O 0.5093 0.49254 0.34036 0.0
O278 O 0.48923 0.60145 0.32049 0.0
O279 O 0.49245 0.55831 0.24554 0.0
C280 C 0.71221 0.44438 0.23026 0.0
C281 C 0.69294 0.39261 0.23335 0.0
H282 H 0.65021 0.30169 0.26809 0.0
H283 H 0.56863 0.29616 0.31545 0.0
H284 H 0.67986 0.60853 0.29735 0.0
H285 H 0.73939 0.54594 0.25178 0.0
H286 H 0.7539 0.45086 0.2236 0.0
H287 H 0.72017 0.35997 0.22905 0.0
Mn288 Mn 0.37963 0.2044 0.28701 0.0
Mn289 Mn 0.48232 0.25917 0.22752 0.0
C290 C 0.36726 0.25239 0.20776 0.0
C291 C 0.30293 0.20438 0.33884 0.0
C292 C 0.47669 0.14669 0.25206 0.0
O293 O 0.43163 0.22333 0.34755 0.0
O294 O 0.48019 0.28444 0.30379 0.0
C295 C 0.45203 0.37169 0.20675 0.0
N296 N 0.47611 0.32637 0.19236 0.0
C297 C 0.49877 0.36387 0.10719 0.0
C298 C 0.47944 0.41227 0.12365 0.0
C299 C 0.45293 0.41529 0.17159 0.0
C300 C 0.49499 0.32119 0.14225 0.0
H301 H 0.43113 0.37287 0.24376 0.0
C302 C 0.46462 0.26224 0.34744 0.0
O303 O 0.32863 0.16103 0.33094 0.0
O304 O 0.32408 0.24717 0.32086 0.0
N305 N 0.4813 0.2331 0.15626 0.0
C306 C 0.4589 0.18864 0.13634 0.0
C307 C 0.46617 0.17548 0.08312 0.0
C308 C 0.49178 0.21104 0.04958 0.0
C309 C 0.50487 0.26106 0.06885 0.0
C310 C 0.49814 0.27076 0.12304 0.0
H311 H 0.43433 0.16425 0.16046 0.0
O312 O 0.33797 0.21178 0.21868 0.0
O313 O 0.40721 0.25503 0.23821 0.0
O314 O 0.4271 0.14612 0.25825 0.0
O315 O 0.50206 0.18927 0.255 0.0
C316 C 0.51727 0.30329 0.0353 0.0
C317 C 0.51416 0.35507 0.05459 0.0
H318 H 0.47941 0.44596 0.09736 0.0
H319 H 0.43206 0.45144 0.17895 0.0
H320 H 0.45027 0.1391 0.06761 0.0
H321 H 0.49579 0.20174 0.00809 0.0
H322 H 0.52393 0.29683 0.99361 0.0
H323 H 0.51845 0.38771 0.02738 0.0
Mn324 Mn 0.04314 0.12961 0.53701 0.0
Mn325 Mn 0.98839 0.23231 0.47752 0.0
C326 C 0.99516 0.11725 0.45777 0.0
C327 C 0.04316 0.05291 0.58884 0.0
C328 C 0.10087 0.22666 0.50207 0.0
O329 O 0.02422 0.18162 0.59756 0.0
O330 O 0.96311 0.23018 0.55379 0.0
C331 C 0.87587 0.20204 0.45674 0.0
N332 N 0.92119 0.22611 0.44236 0.0
C333 C 0.8837 0.24878 0.35719 0.0
C334 C 0.83529 0.22945 0.37364 0.0
C335 C 0.83227 0.20294 0.42158 0.0
C336 C 0.92638 0.24499 0.39226 0.0
H337 H 0.87469 0.18113 0.49376 0.0
C338 C 0.98532 0.21461 0.59744 0.0
O339 O 0.08651 0.07861 0.58095 0.0
O340 O 0.00037 0.07407 0.57086 0.0
N341 N 0.01446 0.23129 0.40626 0.0
C342 C 0.05892 0.20888 0.38635 0.0
C343 C 0.07209 0.21615 0.33313 0.0
C344 C 0.03653 0.24177 0.29959 0.0
C345 C 0.98651 0.25486 0.31886 0.0
C346 C 0.97681 0.24814 0.37305 0.0
H347 H 0.0833 0.18431 0.41046 0.0
O348 O 0.03576 0.08795 0.46868 0.0
O349 O 0.99252 0.1572 0.48821 0.0
O350 O 0.10143 0.17708 0.50826 0.0
O351 O 0.05829 0.25204 0.50501 0.0
C352 C 0.94428 0.26728 0.2853 0.0
C353 C 0.89251 0.26418 0.30459 0.0
H354 H 0.80161 0.22943 0.34735 0.0
H355 H 0.79612 0.18207 0.42894 0.0
H356 H 0.10847 0.20024 0.31762 0.0
H357 H 0.04584 0.24578 0.2581 0.0
H358 H 0.95075 0.27394 0.24362 0.0
H359 H 0.85987 0.26847 0.27738 0.0
Mn360 Mn 0.11791 0.79314 0.78701 0.0
Mn361 Mn 0.01522 0.73837 0.72752 0.0
C362 C 0.13028 0.74515 0.70777 0.0
C363 C 0.19461 0.79316 0.83884 0.0
C364 C 0.02085 0.85085 0.75206 0.0
O365 O 0.0659 0.77421 0.84755 0.0
O366 O 0.01734 0.7131 0.80379 0.0
C367 C 0.04551 0.62586 0.70674 0.0
N368 N 0.02143 0.67117 0.69236 0.0
C369 C 0.99877 0.63367 0.60718 0.0
C370 C 0.0181 0.58527 0.62364 0.0
C371 C 0.04461 0.58225 0.67158 0.0
C372 C 0.00256 0.67635 0.64225 0.0
H373 H 0.06641 0.62467 0.74376 0.0
C374 C 0.03292 0.7353 0.84744 0.0
O375 O 0.1689 0.83651 0.83095 0.0
O376 O 0.17345 0.75037 0.82086 0.0
N377 N 0.01624 0.76444 0.65626 0.0
C378 C 0.03864 0.8089 0.63635 0.0
C379 C 0.03138 0.82206 0.58312 0.0
C380 C 0.00576 0.78651 0.54958 0.0
C381 C 0.99268 0.73648 0.56885 0.0
C382 C -0.0006 0.72679 0.62304 0.0
H383 H 0.06321 0.83329 0.66046 0.0
O384 O 0.15957 0.78576 0.71868 0.0
O385 O 0.09033 0.74251 0.73821 0.0
O386 O 0.07044 0.85142 0.75825 0.0
O387 O 0.99548 0.80827 0.755 0.0
C388 C 0.98027 0.69425 0.5353 0.0
C389 C 0.98338 0.64248 0.55459 0.0
H390 H 0.01813 0.55158 0.59735 0.0
H391 H 0.06548 0.5461 0.67894 0.0
H392 H 0.04727 0.85845 0.56761 0.0
H393 H 0.00175 0.79581 0.50809 0.0
H394 H 0.97361 0.70071 0.49361 0.0
H395 H 0.97909 0.60984 0.52737 0.0
Mn396 Mn 0.45439 0.86793 0.03701 0.0
Mn397 Mn 0.50915 0.76523 0.97752 0.0
C398 C 0.50238 0.88029 0.95777 0.0
C399 C 0.45438 0.94463 0.08884 0.0
C400 C 0.39667 0.77088 0.00207 0.0
O401 O 0.47332 0.81592 0.09756 0.0
O402 O 0.53442 0.76736 0.05379 0.0
C403 C 0.62166 0.7955 0.95674 0.0
N404 N 0.57635 0.77143 0.94236 0.0
C405 C 0.61384 0.74876 0.85719 0.0
C406 C 0.66224 0.76809 0.87364 0.0
C407 C 0.66526 0.7946 0.92158 0.0
C408 C 0.57116 0.75255 0.89226 0.0
H409 H 0.62285 0.81641 0.99376 0.0
C410 C 0.51222 0.78293 0.09744 0.0
O411 O 0.41102 0.91893 0.08095 0.0
O412 O 0.49717 0.92347 0.07086 0.0
N413 N 0.48307 0.76625 0.90626 0.0
C414 C 0.43862 0.78866 0.88635 0.0
C415 C 0.42545 0.78139 0.83313 0.0
C416 C 0.461 0.75577 0.79959 0.0
C417 C 0.51103 0.74268 0.81886 0.0
C418 C 0.52072 0.7494 0.87305 0.0
H419 H 0.41423 0.81324 0.91046 0.0
O420 O 0.46177 0.90959 0.96868 0.0
O421 O 0.50502 0.84034 0.98821 0.0
O422 O 0.39611 0.82046 0.00826 0.0
O423 O 0.43925 0.7455 0.00501 0.0
C424 C 0.55325 0.73026 0.7853 0.0
C425 C 0.60502 0.73337 0.80459 0.0
H426 H 0.69593 0.76811 0.84735 0.0
H427 H 0.70142 0.81547 0.92894 0.0
H428 H 0.38907 0.7973 0.81762 0.0
H429 H 0.4517 0.75176 0.7581 0.0
H430 H 0.54679 0.7236 0.74362 0.0
H431 H 0.63766 0.72907 0.77737 0.0
Mn432 Mn 0.87963 0.29314 0.7105 0.0
Mn433 Mn 0.98232 0.23837 0.76999 0.0
C434 C 0.86726 0.24515 0.78974 0.0
C435 C 0.80292 0.29316 0.65867 0.0
C436 C 0.97668 0.35085 0.74544 0.0
O437 O 0.93163 0.27421 0.64995 0.0
O438 O 0.98019 0.2131 0.69372 0.0
C439 C 0.95203 0.12585 0.79076 0.0
N440 N 0.97611 0.17117 0.80514 0.0
C441 C -0.00122 0.13366 0.89031 0.0
C442 C 0.97944 0.08527 0.87386 0.0
C443 C 0.95293 0.08225 0.82592 0.0
C444 C 0.99499 0.17635 0.85525 0.0
H445 H 0.93112 0.12467 0.75375 0.0
C446 C 0.96462 0.2353 0.65007 0.0
O447 O 0.82863 0.33651 0.66656 0.0
O448 O 0.82408 0.25037 0.67665 0.0
N449 N 0.98131 0.26443 0.84125 0.0
C450 C 0.9589 0.3089 0.86116 0.0
C451 C 0.96617 0.32206 0.91439 0.0
C452 C 0.99179 0.2865 0.94792 0.0
C453 C 0.00488 0.23647 0.92865 0.0
C454 C 0.99815 0.22678 0.87446 0.0
H455 H 0.93433 0.33328 0.83705 0.0
O456 O 0.83797 0.28576 0.77883 0.0
O457 O 0.90721 0.24251 0.7593 0.0
O458 O 0.9271 0.35142 0.73925 0.0
O459 O 0.00206 0.30827 0.7425 0.0
C460 C 0.01728 0.19424 0.9622 0.0
C461 C 0.01417 0.14247 0.94291 0.0
H462 H 0.97941 0.05158 0.90015 0.0
H463 H 0.93205 0.0461 0.81856 0.0
H464 H 0.95028 0.35844 0.9299 0.0
H465 H 0.99581 0.2958 0.98941 0.0
H466 H 0.02395 0.2007 0.00389 0.0
H467 H 0.01847 0.10983 0.97012 0.0
Mn468 Mn 0.95439 0.62961 0.96049 0.0
Mn469 Mn 0.00915 0.73231 0.01998 0.0
C470 C 0.00238 0.61725 0.03974 0.0
C471 C 0.95438 0.5529 0.90867 0.0
C472 C 0.89667 0.72666 0.99544 0.0
O473 O 0.97332 0.68161 0.89995 0.0
O474 O 0.03442 0.73018 0.94371 0.0
C475 C 0.12166 0.70203 0.04076 0.0
N476 N 0.07635 0.72611 0.05514 0.0
C477 C 0.11384 0.74879 0.14031 0.0
C478 C 0.16224 0.72945 0.12386 0.0
C479 C 0.16526 0.70294 0.07593 0.0
C480 C 0.07116 0.74499 0.10525 0.0
H481 H 0.12285 0.68112 0.00375 0.0
C482 C 0.01222 0.7146 0.90006 0.0
O483 O 0.91102 0.57861 0.91656 0.0
O484 O 0.99716 0.57407 0.92665 0.0
N485 N 0.98308 0.73129 0.09124 0.0
C486 C 0.93862 0.70888 0.11116 0.0
C487 C 0.92545 0.71615 0.16438 0.0
C488 C 0.96101 0.74178 0.19791 0.0
C489 C 0.01103 0.75487 0.17865 0.0
C490 C 0.02073 0.74814 0.12445 0.0
H491 H 0.91424 0.68431 0.08705 0.0
O492 O 0.96177 0.58795 0.02883 0.0
O493 O 0.00502 0.6572 0.0093 0.0
O494 O 0.89611 0.67707 0.98925 0.0
O495 O 0.93924 0.75203 0.99249 0.0
C496 C 0.05326 0.76729 0.2122 0.0
C497 C 0.10503 0.76419 0.19291 0.0
H498 H 0.19593 0.72943 0.15015 0.0
H499 H 0.20142 0.68207 0.06857 0.0
H500 H 0.88907 0.70025 0.17989 0.0
H501 H 0.9517 0.7458 0.2394 0.0
H502 H 0.04679 0.77396 0.25388 0.0
H503 H 0.13767 0.76848 0.22012 0.0
Mn504 Mn 0.61791 0.7044 0.2105 0.0
Mn505 Mn 0.51521 0.75917 0.26999 0.0
C506 C 0.63027 0.75239 0.28974 0.0
C507 C 0.69461 0.70437 0.15867 0.0
C508 C 0.52085 0.64669 0.24545 0.0
O509 O 0.5659 0.72333 0.14995 0.0
O510 O 0.51734 0.78444 0.19372 0.0
C511 C 0.54551 0.87169 0.29076 0.0
N512 N 0.52143 0.82638 0.30514 0.0
C513 C 0.49876 0.86388 0.39031 0.0
C514 C 0.5181 0.91227 0.37386 0.0
C515 C 0.54461 0.91529 0.32592 0.0
C516 C 0.50255 0.82119 0.35525 0.0
H517 H 0.56642 0.87287 0.25375 0.0
C518 C 0.53292 0.76224 0.15007 0.0
O519 O 0.6689 0.66103 0.16656 0.0
O520 O 0.67345 0.74717 0.17665 0.0
N521 N 0.51623 0.73311 0.34125 0.0
C522 C 0.53863 0.68865 0.36116 0.0
C523 C 0.53136 0.67548 0.41439 0.0
C524 C 0.50574 0.71104 0.44792 0.0
C525 C 0.49266 0.76107 0.42865 0.0
C526 C 0.49939 0.77076 0.37446 0.0
H527 H 0.5632 0.66426 0.33706 0.0
O528 O 0.65957 0.71178 0.27883 0.0
O529 O 0.59033 0.75503 0.2593 0.0
O530 O 0.57044 0.64612 0.23926 0.0
O531 O 0.49548 0.68927 0.24251 0.0
C532 C 0.48025 0.8033 0.4622 0.0
C533 C 0.48336 0.85507 0.44291 0.0
H534 H 0.51812 0.94596 0.40015 0.0
H535 H 0.56548 0.95144 0.31856 0.0
H536 H 0.54726 0.6391 0.4299 0.0
H537 H 0.50173 0.70175 0.48941 0.0
H538 H 0.47359 0.79684 0.50389 0.0
H539 H 0.47907 0.88771 0.47012 0.0
Mn540 Mn 0.54314 0.36793 0.4605 0.0
Mn541 Mn 0.48839 0.26522 0.51998 0.0
C542 C 0.49515 0.38029 0.53974 0.0
C543 C 0.54316 0.44463 0.40867 0.0
C544 C 0.60087 0.27088 0.49544 0.0
O545 O 0.52422 0.31593 0.39995 0.0
O546 O 0.46311 0.26736 0.44371 0.0
C547 C 0.37587 0.29551 0.54076 0.0
N548 N 0.42119 0.27143 0.55514 0.0
C549 C 0.38369 0.24875 0.64031 0.0
C550 C 0.33529 0.26808 0.62386 0.0
C551 C 0.33227 0.2946 0.57592 0.0
C552 C 0.42637 0.25254 0.60525 0.0
H553 H 0.37469 0.31642 0.50375 0.0
C554 C 0.48532 0.28293 0.40006 0.0
O555 O 0.58651 0.41893 0.41656 0.0
O556 O 0.50037 0.42347 0.42665 0.0
N557 N 0.51446 0.26624 0.59124 0.0
C558 C 0.55891 0.28865 0.61116 0.0
C559 C 0.57208 0.28138 0.66438 0.0
C560 C 0.53653 0.25575 0.69791 0.0
C561 C 0.4865 0.24266 0.67865 0.0
C562 C 0.47681 0.24939 0.62445 0.0
H563 H 0.5833 0.31323 0.58705 0.0
O564 O 0.53576 0.40959 0.52883 0.0
O565 O 0.49252 0.34034 0.5093 0.0
O566 O 0.60143 0.32046 0.48925 0.0
O567 O 0.55829 0.2455 0.49249 0.0
C568 C 0.44427 0.23024 0.71219 0.0
C569 C 0.3925 0.23335 0.6929 0.0
H570 H 0.3016 0.2681 0.65015 0.0
H571 H 0.29612 0.31547 0.56857 0.0
H572 H 0.60846 0.29728 0.67989 0.0
H573 H 0.54583 0.25173 0.7394 0.0
H574 H 0.45074 0.22358 0.75388 0.0
H575 H 0.35986 0.22905 0.72012 0.0
Mn576 Mn 0.28702 0.37962 0.20442 0.0
Mn577 Mn 0.22753 0.48234 0.25913 0.0
C578 C 0.2078 0.36728 0.25232 0.0
C579 C 0.33887 0.30293 0.20438 0.0
C580 C 0.25208 0.47666 0.14667 0.0
O581 O 0.34756 0.43163 0.22335 0.0
O582 O 0.30379 0.48022 0.28443 0.0
C583 C 0.20671 0.45206 0.37163 0.0
N584 N 0.19235 0.47616 0.32632 0.0
C585 C 0.10717 0.49884 0.36379 0.0
C586 C 0.12361 0.47949 0.41219 0.0
C587 C 0.17154 0.45296 0.41522 0.0
C588 C 0.14225 0.49504 0.32112 0.0
H589 H 0.24372 0.43114 0.37283 0.0
C590 C 0.34744 0.46463 0.26224 0.0
O591 O 0.33096 0.32865 0.16104 0.0
O592 O 0.32088 0.32408 0.24718 0.0
N593 N 0.15627 0.48131 0.23304 0.0
C594 C 0.13637 0.45889 0.18859 0.0
C595 C 0.08314 0.46615 0.17541 0.0
C596 C 0.0496 0.49179 0.21095 0.0
C597 C 0.06886 0.5049 0.26097 0.0
C598 C 0.12305 0.49817 0.27068 0.0
H599 H 0.16048 0.4343 0.16422 0.0
O600 O 0.21869 0.33792 0.21174 0.0
O601 O 0.23823 0.40722 0.25507 0.0
O602 O 0.25826 0.42708 0.14613 0.0
O603 O 0.25505 0.50204 0.18924 0.0
C604 C 0.0353 0.51733 0.30319 0.0
C605 C 0.05458 0.51423 0.35496 0.0
H606 H 0.0973 0.47947 0.44587 0.0
H607 H 0.17888 0.43208 0.45137 0.0
H608 H 0.06764 0.45024 0.13904 0.0
H609 H 0.00811 0.4958 0.20164 0.0
H610 H 0.99361 0.52399 0.29671 0.0
H611 H 0.02735 0.51853 0.3876 0.0
Mn612 Mn 0.78701 0.11792 0.79308 0.0
Mn613 Mn 0.72753 0.0152 0.73837 0.0
C614 C 0.7078 0.13027 0.74519 0.0
C615 C 0.83887 0.19461 0.79313 0.0
C616 C 0.75208 0.02088 0.85084 0.0
O617 O 0.84756 0.06591 0.77416 0.0
O618 O 0.80378 0.01732 0.71308 0.0
C619 C 0.70671 0.04548 0.62587 0.0
N620 N 0.69235 0.02139 0.67118 0.0
C621 C 0.60716 0.99872 0.63372 0.0
C622 C 0.6236 0.01807 0.58531 0.0
C623 C 0.67153 0.04459 0.58228 0.0
C624 C 0.64224 0.00252 0.67639 0.0
H625 H 0.74372 0.06639 0.62468 0.0
C626 C 0.84744 0.03291 0.73526 0.0
O627 O 0.83096 0.16889 0.83647 0.0
O628 O 0.82088 0.17347 0.75033 0.0
N629 N 0.65627 0.01624 0.76446 0.0
C630 C 0.63636 0.03866 0.80892 0.0
C631 C 0.58314 0.0314 0.8221 0.0
C632 C 0.54959 0.00577 0.78656 0.0
C633 C 0.56885 0.99266 0.73654 0.0
C634 C 0.62304 -0.00062 0.72683 0.0
H635 H 0.66048 0.06324 0.8333 0.0
O636 O 0.71869 0.15962 0.78576 0.0
O637 O 0.73823 0.09032 0.74244 0.0
O638 O 0.75826 0.07046 0.85138 0.0
O639 O 0.75504 0.9955 0.80827 0.0
C640 C 0.53529 0.98024 0.69432 0.0
C641 C 0.55457 0.98334 0.64254 0.0
H642 H 0.5973 0.01809 0.55164 0.0
H643 H 0.67887 0.06547 0.54614 0.0
H644 H 0.56764 0.04731 0.85848 0.0
H645 H 0.50811 0.00176 0.79587 0.0
H646 H 0.4936 0.97358 0.7008 0.0
H647 H 0.52734 0.97904 0.60991 0.0
Mn648 Mn 0.12962 0.53702 0.04309 0.0
Mn649 Mn 0.23235 0.47754 0.98839 0.0
C650 C 0.11728 0.4578 0.9952 0.0
C651 C 0.05292 0.58886 0.04313 0.0
C652 C 0.22665 0.5021 0.10085 0.0
O653 O 0.18162 0.59757 0.02417 0.0
O654 O 0.23023 0.5538 0.9631 0.0
C655 C 0.20208 0.45672 0.87589 0.0
N656 N 0.22617 0.44237 0.9212 0.0
C657 C 0.24887 0.35718 0.88373 0.0
C658 C 0.22952 0.37362 0.83532 0.0
C659 C 0.20298 0.42154 0.8323 0.0
C660 C 0.24506 0.39226 0.9264 0.0
H661 H 0.18115 0.49372 0.87469 0.0
C662 C 0.21462 0.59745 0.98528 0.0
O663 O 0.07863 0.58096 0.08647 0.0
O664 O 0.07407 0.57088 0.00033 0.0
N665 N 0.23132 0.40628 0.01447 0.0
C666 C 0.2089 0.38637 0.05892 0.0
C667 C 0.21618 0.33315 0.0721 0.0
C668 C 0.24182 0.29961 0.03656 0.0
C669 C 0.25493 0.31887 0.98654 0.0
C670 C 0.2482 0.37306 0.97684 0.0
H671 H 0.18432 0.41048 0.0833 0.0
O672 O 0.08792 0.46869 0.03577 0.0
O673 O 0.15723 0.48823 0.99245 0.0
O674 O 0.17707 0.50826 0.10139 0.0
O675 O 0.25204 0.50505 0.05829 0.0
C676 C 0.26737 0.28532 0.94433 0.0
C677 C 0.26427 0.3046 0.89255 0.0
H678 H 0.2295 0.34732 0.80165 0.0
H679 H 0.18209 0.42888 0.79615 0.0
H680 H 0.20026 0.31763 0.10847 0.0
H681 H 0.24584 0.25812 0.04587 0.0
H682 H 0.27404 0.24363 0.9508 0.0
H683 H 0.26858 0.27737 0.85992 0.0
Mn684 Mn 0.71052 0.87962 0.29308 0.0
Mn685 Mn 0.77001 0.98233 0.23837 0.0
C686 C 0.78974 0.86727 0.24519 0.0
C687 C 0.65867 0.80293 0.29313 0.0
C688 C 0.74546 0.97666 0.35084 0.0
O689 O 0.64998 0.93163 0.27416 0.0
O690 O 0.69376 0.98022 0.21308 0.0
C691 C 0.79083 0.95206 0.12587 0.0
N692 N 0.80519 0.97615 0.17118 0.0
C693 C 0.89038 -0.00119 0.13372 0.0
C694 C 0.87394 0.97947 0.08531 0.0
C695 C 0.82601 0.95295 0.08228 0.0
C696 C 0.8553 0.99502 0.17639 0.0
H697 H 0.75382 0.93114 0.12468 0.0
C698 C 0.6501 0.96463 0.23526 0.0
O699 O 0.66657 0.82865 0.33647 0.0
O700 O 0.67666 0.82407 0.25033 0.0
N701 N 0.84127 0.9813 0.26446 0.0
C702 C 0.86117 0.95888 0.30892 0.0
C703 C 0.9144 0.96614 0.3221 0.0
C704 C 0.94794 0.99177 0.28656 0.0
C705 C 0.92869 0.00488 0.23654 0.0
C706 C 0.87449 0.99815 0.22683 0.0
H707 H 0.83706 0.9343 0.3333 0.0
O708 O 0.77884 0.83792 0.28576 0.0
O709 O 0.75931 0.90722 0.24244 0.0
O710 O 0.73928 0.92708 0.35138 0.0
O711 O 0.7425 0.00204 0.30827 0.0
C712 C 0.96225 0.01729 0.19432 0.0
C713 C 0.94297 0.0142 0.14254 0.0
H714 H 0.90024 0.97944 0.05164 0.0
H715 H 0.81866 0.93207 0.04614 0.0
H716 H 0.9299 0.95022 0.35848 0.0
H717 H 0.98943 0.99578 0.29587 0.0
H718 H 0.00394 0.02395 0.2008 0.0
H719 H 0.9702 0.01849 0.10991 0.0
Mn720 Mn 0.36792 0.46052 0.54309 0.0
Mn721 Mn 0.26519 0.52 0.48839 0.0
C722 C 0.38026 0.53974 0.4952 0.0
C723 C 0.44461 0.40867 0.54313 0.0
C724 C 0.27088 0.49545 0.60086 0.0
O725 O 0.31591 0.39997 0.52417 0.0
O726 O 0.26731 0.44374 0.46309 0.0
C727 C 0.29546 0.54082 0.37589 0.0
N728 N 0.27137 0.55518 0.4212 0.0
C729 C 0.24868 0.64036 0.38373 0.0
C730 C 0.26802 0.62392 0.33533 0.0
C731 C 0.29455 0.576 0.3323 0.0
C732 C 0.25248 0.60528 0.4264 0.0
H733 H 0.31639 0.50382 0.3747 0.0
C734 C 0.28291 0.40009 0.48527 0.0
O735 O 0.4189 0.41658 0.58648 0.0
O736 O 0.42346 0.42666 0.50034 0.0
N737 N 0.26622 0.59126 0.51448 0.0
C738 C 0.28865 0.61117 0.55893 0.0
C739 C 0.28138 0.66439 0.5721 0.0
C740 C 0.25573 0.69793 0.53657 0.0
C741 C 0.24262 0.67867 0.48655 0.0
C742 C 0.24935 0.62448 0.47684 0.0
H743 H 0.31323 0.58706 0.5833 0.0
O744 O 0.40961 0.52885 0.53577 0.0
O745 O 0.34031 0.50931 0.49245 0.0
O746 O 0.32046 0.48928 0.60139 0.0
O747 O 0.2455 0.49248 0.55829 0.0
C748 C 0.23018 0.71223 0.44434 0.0
C749 C 0.23327 0.69295 0.39256 0.0
H750 H 0.26804 0.65023 0.30165 0.0
H751 H 0.31544 0.56866 0.29615 0.0
H752 H 0.2973 0.6799 0.60848 0.0
H753 H 0.25172 0.73942 0.54588 0.0
H754 H 0.22351 0.75391 0.45081 0.0
H755 H 0.22897 0.72018 0.35993 0.0
Mn756 Mn 0.21052 0.61792 0.70443 0.0
Mn757 Mn 0.27001 0.5152 0.75913 0.0
C758 C 0.28974 0.63026 0.75232 0.0
C759 C 0.15867 0.69461 0.70438 0.0
C760 C 0.24544 0.52088 0.64667 0.0
O761 O 0.14998 0.56591 0.72335 0.0
O762 O 0.19375 0.51732 0.78442 0.0
C763 C 0.29082 0.54548 0.87164 0.0
N764 N 0.30518 0.52138 0.82633 0.0
C765 C 0.39036 0.4987 0.8638 0.0
C766 C 0.37393 0.51804 0.9122 0.0
C767 C 0.326 0.54458 0.91522 0.0
C768 C 0.35529 0.50249 0.82112 0.0
H769 H 0.25382 0.5664 0.87283 0.0
C770 C 0.15009 0.53291 0.76224 0.0
O771 O 0.16658 0.6689 0.66104 0.0
O772 O 0.17666 0.67347 0.74718 0.0
N773 N 0.34127 0.51622 0.73305 0.0
C774 C 0.36118 0.53864 0.68859 0.0
C775 C 0.4144 0.53137 0.67542 0.0
C776 C 0.44794 0.50573 0.71096 0.0
C777 C 0.42868 0.49263 0.76098 0.0
C778 C 0.37448 0.49936 0.77069 0.0
H779 H 0.33706 0.56322 0.66422 0.0
O780 O 0.27885 0.65962 0.71175 0.0
O781 O 0.25931 0.59031 0.75507 0.0
O782 O 0.23928 0.57047 0.64613 0.0
O783 O 0.2425 0.49549 0.68923 0.0
C784 C 0.46223 0.4802 0.8032 0.0
C785 C 0.44295 0.4833 0.85497 0.0
H786 H 0.40023 0.51807 0.94588 0.0
H787 H 0.31866 0.56547 0.95137 0.0
H788 H 0.42991 0.54728 0.63904 0.0
H789 H 0.48943 0.50172 0.70165 0.0
H790 H 0.50392 0.47353 0.79672 0.0
H791 H 0.47018 0.47899 0.88761 0.0
Mn792 Mn 0.62962 0.96052 0.95442 0.0
Mn793 Mn 0.73236 0.02 0.00912 0.0
C794 C 0.61729 0.03974 0.00231 0.0
C795 C 0.55292 0.90868 0.95438 0.0
C796 C 0.72665 0.99543 0.89665 0.0
O797 O 0.68162 0.89997 0.97334 0.0
O798 O 0.73023 0.94374 0.03441 0.0
C799 C 0.70208 0.04082 0.12162 0.0
N800 N 0.72619 0.05517 0.07631 0.0
C801 C 0.74889 0.14034 0.11378 0.0
C802 C 0.72954 0.12391 0.16218 0.0
C803 C 0.70299 0.07599 0.16521 0.0
C804 C 0.74508 0.10527 0.07111 0.0
H805 H 0.68115 0.00382 0.12281 0.0
C806 C 0.71463 0.90008 0.01223 0.0
O807 O 0.57863 0.91658 0.91103 0.0
O808 O 0.57407 0.92666 0.99717 0.0
N809 N 0.73133 0.09125 0.98303 0.0
C810 C 0.70891 0.11117 0.93859 0.0
C811 C 0.71619 0.16439 0.92541 0.0
C812 C 0.74184 0.19792 0.96095 0.0
C813 C 0.75496 0.17866 0.01096 0.0
C814 C 0.74821 0.12447 0.02067 0.0
H815 H 0.68432 0.08706 0.91421 0.0
O816 O 0.58793 0.02885 0.96174 0.0
O817 O 0.65723 0.00931 0.00506 0.0
O818 O 0.67707 0.98927 0.89612 0.0
O819 O 0.75205 0.99249 0.93921 0.0
C820 C 0.7674 0.21221 0.05318 0.0
C821 C 0.7643 0.19293 0.10495 0.0
H822 H 0.72953 0.15021 0.19586 0.0
H823 H 0.6821 0.06866 0.20135 0.0
H824 H 0.70027 0.1799 0.88904 0.0
H825 H 0.74586 0.23941 0.95164 0.0
H826 H 0.77407 0.25389 0.04671 0.0
H827 H 0.76862 0.22015 0.13759 0.0
Mn828 Mn 0.86792 0.03702 0.45442 0.0
Mn829 Mn 0.76518 0.97754 0.50912 0.0
C830 C 0.88025 0.9578 0.50231 0.0
C831 C 0.94461 0.08886 0.45438 0.0
C832 C 0.77088 0.0021 0.39665 0.0
O833 O 0.81592 0.09757 0.47334 0.0
O834 O 0.76731 0.0538 0.53441 0.0
C835 C 0.79546 0.95672 0.62162 0.0
N836 N 0.77135 0.94237 0.57631 0.0
C837 C 0.74865 0.85719 0.61378 0.0
C838 C 0.768 0.87363 0.66218 0.0
C839 C 0.79455 0.92155 0.66521 0.0
C840 C 0.75246 0.89227 0.57111 0.0
H841 H 0.81639 0.99372 0.62281 0.0
C842 C 0.78291 0.09746 0.51223 0.0
O843 O 0.9189 0.08096 0.41103 0.0
O844 O 0.92347 0.07088 0.49717 0.0
N845 N 0.76621 0.90628 0.48304 0.0
C846 C 0.78863 0.88637 0.43859 0.0
C847 C 0.78135 0.83315 0.42541 0.0
C848 C 0.7557 0.79961 0.46095 0.0
C849 C 0.74259 0.81888 0.51096 0.0
C850 C 0.74933 0.87307 0.52067 0.0
H851 H 0.81322 0.91048 0.41421 0.0
O852 O 0.90961 0.96869 0.46174 0.0
O853 O 0.8403 0.98823 0.50506 0.0
O854 O 0.82047 0.00827 0.39612 0.0
O855 O 0.74549 0.00505 0.43921 0.0
C856 C 0.73014 0.78533 0.55318 0.0
C857 C 0.73324 0.80461 0.60496 0.0
H858 H 0.76801 0.84733 0.69586 0.0
H859 H 0.81544 0.92888 0.70135 0.0
H860 H 0.79727 0.81763 0.38904 0.0
H861 H 0.75168 0.75813 0.45164 0.0
H862 H 0.72347 0.74364 0.54671 0.0
H863 H 0.72893 0.77738 0.63759 0.0
loop_
_geom_bond_atom_site_label_1
_geom_bond_atom_site_label_2
_geom_bond_distance
_geom_bond_site_symmetry_2
_ccdc_geom_bond_type
Mn0 O5 2.095 . S
Mn0 O15 2.162 . S
Mn0 O16 2.297 . S
Mn0 O24 2.385 . S
Mn0 O25 2.209 . S
Mn0 O26 2.094 . S
Mn1 O6 2.121 . S
Mn1 N8 2.257 . S
Mn1 N17 2.282 . S
Mn1 O25 2.215 . S
Mn1 O27 2.117 . S
C2 O24 1.234 . S
C2 O25 1.283 . S
C3 O15 1.281 . S
C3 O16 1.236 . S
C4 O26 1.240 . S
C4 O27 1.264 . S
O5 Mn0 2.095 . S
O5 C14 1.250 . S
O6 Mn1 2.121 . S
O6 C14 1.258 . S
C7 N8 1.326 . S
C7 C11 1.460 . S
C7 H13 0.929 . S
N8 Mn1 2.257 . S
N8 C7 1.326 . S
N8 C12 1.362 . S
C9 C10 1.258 . S
C9 C12 1.431 . S
C9 C29 1.449 . S
C10 C9 1.258 . S
C10 C11 1.477 . S
C10 H30 0.931 . S
C11 C7 1.460 . S
C11 C10 1.477 . S
C11 H31 0.930 . S
C12 N8 1.362 . S
C12 C9 1.431 . S
C12 C22 1.476 . S
H13 C7 0.929 . S
C14 O5 1.250 . S
C14 O6 1.258 . S
O15 Mn0 2.162 . S
O15 C3 1.281 . S
O16 Mn0 2.297 . S
O16 C3 1.236 . S
N17 Mn1 2.282 . S
N17 C18 1.328 . S
N17 C22 1.318 . S
C18 N17 1.328 . S
C18 C19 1.457 . S
C18 H23 0.929 . S
C19 C18 1.457 . S
C19 C20 1.291 . S
C19 H32 0.931 . S
C20 C19 1.291 . S
C20 C21 1.373 . S
C20 H33 0.929 . S
C21 C20 1.373 . S
C21 C22 1.396 . S
C21 C28 1.403 . S
C22 C12 1.476 . S
C22 N17 1.318 . S
C22 C21 1.396 . S
H23 C18 0.929 . S
O24 Mn0 2.385 . S
O24 C2 1.234 . S
O25 Mn0 2.209 . S
O25 Mn1 2.215 . S
O25 C2 1.283 . S
O26 Mn0 2.094 . S
O26 C4 1.240 . S
O27 Mn1 2.117 . S
O27 C4 1.264 . S
C28 C21 1.403 . S
C28 C29 1.399 . S
C28 H34 0.929 . S
C29 C9 1.449 . S
C29 C28 1.399 . S
C29 H35 0.930 . S
H30 C10 0.931 . S
H31 C11 0.930 . S
H32 C19 0.931 . S
H33 C20 0.929 . S
H34 C28 0.929 . S
H35 C29 0.930 . S
Mn36 O41 2.095 . S
Mn36 O51 2.162 . S
Mn36 O52 2.297 . S
Mn36 O60 2.385 1_655 S
Mn36 O61 2.209 1_565 S
Mn36 O62 2.094 . S
Mn37 O42 2.121 1_465 S
Mn37 N44 2.257 1_565 S
Mn37 N53 2.282 1_565 S
Mn37 O61 2.215 1_465 S
Mn37 O63 2.117 . S
C38 O60 1.234 . S
C38 O61 1.283 1_465 S
C39 O51 1.281 . S
C39 O52 1.236 . S
C40 O62 1.240 1_455 S
C40 O63 1.264 . S
O41 Mn36 2.095 . S
O41 C50 1.250 . S
O42 Mn37 2.121 1_645 S
O42 C50 1.258 1_545 S
C43 N44 1.326 1_655 S
C43 C47 1.460 1_655 S
C43 H49 0.929 . S
N44 Mn37 2.257 1_545 S
N44 C43 1.326 1_455 S
N44 C48 1.362 . S
C45 C46 1.258 . S
C45 C48 1.431 . S
C45 C65 1.449 . S
C46 C45 1.258 . S
C46 C47 1.477 . S
C46 H66 0.931 . S
C47 C43 1.460 1_455 S
C47 C46 1.477 . S
C47 H67 0.930 1_455 S
C48 N44 1.362 . S
C48 C45 1.431 . S
C48 C58 1.476 . S
H49 C43 0.929 . S
C50 O41 1.250 . S
C50 O42 1.258 1_565 S
O51 Mn36 2.162 . S
O51 C39 1.281 . S
O52 Mn36 2.297 . S
O52 C39 1.236 . S
N53 Mn37 2.282 1_545 S
N53 C54 1.328 1_545 S
N53 C58 1.318 . S
C54 N53 1.328 1_565 S
C54 C55 1.457 . S
C54 H59 0.929 . S
C55 C54 1.457 . S
C55 C56 1.291 1_565 S
C55 H68 0.931 . S
C56 C55 1.291 1_545 S
C56 C57 1.373 . S
C56 H69 0.929 . S
C57 C56 1.373 . S
C57 C58 1.396 . S
C57 C64 1.403 . S
C58 C48 1.476 . S
C58 N53 1.318 . S
C58 C57 1.396 . S
H59 C54 0.929 . S
O60 Mn36 2.385 1_455 S
O60 C38 1.234 . S
O61 Mn36 2.209 1_545 S
O61 Mn37 2.215 1_645 S
O61 C38 1.283 1_645 S
O62 Mn36 2.094 . S
O62 C40 1.240 1_655 S
O63 Mn37 2.117 . S
O63 C40 1.264 . S
C64 C57 1.403 . S
C64 C65 1.399 . S
C64 H70 0.929 . S
C65 C45 1.449 . S
C65 C64 1.399 . S
C65 H71 0.930 . S
H66 C46 0.931 . S
H67 C47 0.930 1_655 S
H68 C55 0.931 . S
H69 C56 0.929 . S
H70 C64 0.929 . S
H71 C65 0.930 . S
Mn72 O77 2.095 . S
Mn72 O87 2.162 . S
Mn72 O88 2.297 . S
Mn72 O96 2.385 . S
Mn72 O97 2.209 . S
Mn72 O98 2.094 . S
Mn73 O78 2.121 . S
Mn73 N80 2.257 . S
Mn73 N89 2.282 . S
Mn73 O97 2.215 . S
Mn73 O99 2.117 . S
C74 O96 1.234 . S
C74 O97 1.283 . S
C75 O87 1.281 . S
C75 O88 1.236 . S
C76 O98 1.240 . S
C76 O99 1.264 . S
O77 Mn72 2.095 . S
O77 C86 1.250 . S
O78 Mn73 2.121 . S
O78 C86 1.258 . S
C79 N80 1.326 1_554 S
C79 C83 1.460 . S
C79 H85 0.929 . S
N80 Mn73 2.257 . S
N80 C79 1.326 1_556 S
N80 C84 1.362 . S
C81 C82 1.258 1_556 S
C81 C84 1.431 . S
C81 C101 1.449 . S
C82 C81 1.258 1_554 S
C82 C83 1.477 . S
C82 H102 0.931 . S
C83 C79 1.460 . S
C83 C82 1.477 . S
C83 H103 0.930 . S
C84 N80 1.362 . S
C84 C81 1.431 . S
C84 C94 1.476 . S
H85 C79 0.929 . S
C86 O77 1.250 . S
C86 O78 1.258 . S
O87 Mn72 2.162 . S
O87 C75 1.281 . S
O88 Mn72 2.297 . S
O88 C75 1.236 . S
N89 Mn73 2.282 . S
N89 C90 1.328 . S
N89 C94 1.318 . S
C90 N89 1.328 . S
C90 C91 1.457 . S
C90 H95 0.929 . S
C91 C90 1.457 . S
C91 C92 1.291 . S
C91 H104 0.931 . S
C92 C91 1.291 . S
C92 C93 1.373 . S
C92 H105 0.929 . S
C93 C92 1.373 . S
C93 C94 1.396 . S
C93 C100 1.403 . S
C94 C84 1.476 . S
C94 N89 1.318 . S
C94 C93 1.396 . S
H95 C90 0.929 . S
O96 Mn72 2.385 . S
O96 C74 1.234 . S
O97 Mn72 2.209 . S
O97 Mn73 2.215 . S
O97 C74 1.283 . S
O98 Mn72 2.094 . S
O98 C76 1.240 . S
O99 Mn73 2.117 . S
O99 C76 1.264 . S
C100 C93 1.403 . S
C100 C101 1.399 . S
C100 H106 0.929 . S
C101 C81 1.449 . S
C101 C100 1.399 . S
C101 H107 0.930 . S
H102 C82 0.931 . S
H103 C83 0.930 . S
H104 C91 0.931 . S
H105 C92 0.929 . S
H106 C100 0.929 . S
H107 C101 0.930 . S
Mn108 O113 2.095 . S
Mn108 O123 2.162 . S
Mn108 O124 2.297 . S
Mn108 O132 2.385 . S
Mn108 O133 2.209 1_545 S
Mn108 O134 2.094 . S
Mn109 O114 2.121 1_545 S
Mn109 N116 2.257 1_545 S
Mn109 N125 2.282 1_545 S
Mn109 O133 2.215 1_545 S
Mn109 O135 2.117 . S
C110 O132 1.234 . S
C110 O133 1.283 1_545 S
C111 O123 1.281 . S
C111 O124 1.236 . S
C112 O134 1.240 . S
C112 O135 1.264 . S
O113 Mn108 2.095 . S
O113 C122 1.250 . S
O114 Mn109 2.121 1_565 S
O114 C122 1.258 1_565 S
C115 N116 1.326 . S
C115 C119 1.460 . S
C115 H121 0.929 . S
N116 Mn109 2.257 1_565 S
N116 C115 1.326 . S
N116 C120 1.362 . S
C117 C118 1.258 . S
C117 C120 1.431 . S
C117 C137 1.449 . S
C118 C117 1.258 . S
C118 C119 1.477 . S
C118 H138 0.931 . S
C119 C115 1.460 . S
C119 C118 1.477 . S
C119 H139 0.930 . S
C120 N116 1.362 . S
C120 C117 1.431 . S
C120 C130 1.476 . S
H121 C115 0.929 . S
C122 O113 1.250 . S
C122 O114 1.258 1_545 S
O123 Mn108 2.162 . S
O123 C111 1.281 . S
O124 Mn108 2.297 . S
O124 C111 1.236 . S
N125 Mn109 2.282 1_565 S
N125 C126 1.328 1_565 S
N125 C130 1.318 . S
C126 N125 1.328 1_545 S
C126 C127 1.457 . S
C126 H131 0.929 . S
C127 C126 1.457 . S
C127 C128 1.291 1_545 S
C127 H140 0.931 . S
C128 C127 1.291 1_565 S
C128 C129 1.373 . S
C128 H141 0.929 . S
C129 C128 1.373 . S
C129 C130 1.396 . S
C129 C136 1.403 . S
C130 C120 1.476 . S
C130 N125 1.318 . S
C130 C129 1.396 . S
H131 C126 0.929 . S
O132 Mn108 2.385 . S
O132 C110 1.234 . S
O133 Mn108 2.209 1_565 S
O133 Mn109 2.215 1_565 S
O133 C110 1.283 1_565 S
O134 Mn108 2.094 . S
O134 C112 1.240 . S
O135 Mn109 2.117 . S
O135 C112 1.264 . S
C136 C129 1.403 . S
C136 C137 1.399 . S
C136 H142 0.929 . S
C137 C117 1.449 . S
C137 C136 1.399 . S
C137 H143 0.930 . S
H138 C118 0.931 . S
H139 C119 0.930 . S
H140 C127 0.931 . S
H141 C128 0.929 . S
H142 C136 0.929 . S
H143 C137 0.930 . S
Mn144 O149 2.095 . S
Mn144 O159 2.162 . S
Mn144 O160 2.297 . S
Mn144 O168 2.385 . S
Mn144 O169 2.209 . S
Mn144 O170 2.094 . S
Mn145 O150 2.121 . S
Mn145 N152 2.257 . S
Mn145 N161 2.282 . S
Mn145 O169 2.215 . S
Mn145 O171 2.117 . S
C146 O168 1.234 . S
C146 O169 1.283 . S
C147 O159 1.281 . S
C147 O160 1.236 . S
C148 O170 1.240 . S
C148 O171 1.264 . S
O149 Mn144 2.095 . S
O149 C158 1.250 . S
O150 Mn145 2.121 . S
O150 C158 1.258 . S
C151 N152 1.326 . S
C151 C155 1.460 . S
C151 H157 0.929 . S
N152 Mn145 2.257 . S
N152 C151 1.326 . S
N152 C156 1.362 . S
C153 C154 1.258 . S
C153 C156 1.431 . S
C153 C173 1.449 . S
C154 C153 1.258 . S
C154 C155 1.477 . S
C154 H174 0.931 . S
C155 C151 1.460 . S
C155 C154 1.477 . S
C155 H175 0.930 . S
C156 N152 1.362 . S
C156 C153 1.431 . S
C156 C166 1.476 . S
H157 C151 0.929 . S
C158 O149 1.250 . S
C158 O150 1.258 . S
O159 Mn144 2.162 . S
O159 C147 1.281 . S
O160 Mn144 2.297 . S
O160 C147 1.236 . S
N161 Mn145 2.282 . S
N161 C162 1.328 . S
N161 C166 1.318 . S
C162 N161 1.328 . S
C162 C163 1.457 . S
C162 H167 0.929 . S
C163 C162 1.457 . S
C163 C164 1.291 . S
C163 H176 0.931 . S
C164 C163 1.291 . S
C164 C165 1.373 . S
C164 H177 0.929 . S
C165 C164 1.373 . S
C165 C166 1.396 . S
C165 C172 1.403 . S
C166 C156 1.476 . S
C166 N161 1.318 . S
C166 C165 1.396 . S
H167 C162 0.929 . S
O168 Mn144 2.385 . S
O168 C146 1.234 . S
O169 Mn144 2.209 . S
O169 Mn145 2.215 . S
O169 C146 1.283 . S
O170 Mn144 2.094 . S
O170 C148 1.240 . S
O171 Mn145 2.117 . S
O171 C148 1.264 . S
C172 C165 1.403 . S
C172 C173 1.399 . S
C172 H178 0.929 . S
C173 C153 1.449 . S
C173 C172 1.399 . S
C173 H179 0.930 . S
H174 C154 0.931 . S
H175 C155 0.930 . S
H176 C163 0.931 . S
H177 C164 0.929 . S
H178 C172 0.929 . S
H179 C173 0.930 . S
Mn180 O185 2.095 . S
Mn180 O195 2.162 . S
Mn180 O196 2.297 . S
Mn180 O204 2.385 1_455 S
Mn180 O205 2.209 . S
Mn180 O206 2.094 . S
Mn181 O186 2.121 1_655 S
Mn181 N188 2.257 . S
Mn181 N197 2.282 . S
Mn181 O205 2.215 1_655 S
Mn181 O207 2.117 . S
C182 O204 1.234 . S
C182 O205 1.283 1_655 S
C183 O195 1.281 . S
C183 O196 1.236 . S
C184 O206 1.240 1_655 S
C184 O207 1.264 . S
O185 Mn180 2.095 . S
O185 C194 1.250 . S
O186 Mn181 2.121 1_455 S
O186 C194 1.258 . S
C187 N188 1.326 1_455 S
C187 C191 1.460 1_455 S
C187 H193 0.929 . S
N188 Mn181 2.257 . S
N188 C187 1.326 1_655 S
N188 C192 1.362 . S
C189 C190 1.258 . S
C189 C192 1.431 . S
C189 C209 1.449 . S
C190 C189 1.258 . S
C190 C191 1.477 . S
C190 H210 0.931 . S
C191 C187 1.460 1_655 S
C191 C190 1.477 . S
C191 H211 0.930 1_655 S
C192 N188 1.362 . S
C192 C189 1.431 . S
C192 C202 1.476 . S
H193 C187 0.929 . S
C194 O185 1.250 . S
C194 O186 1.258 . S
O195 Mn180 2.162 . S
O195 C183 1.281 . S
O196 Mn180 2.297 . S
O196 C183 1.236 . S
N197 Mn181 2.282 . S
N197 C198 1.328 . S
N197 C202 1.318 . S
C198 N197 1.328 . S
C198 C199 1.457 . S
C198 H203 0.929 . S
C199 C198 1.457 . S
C199 C200 1.291 . S
C199 H212 0.931 . S
C200 C199 1.291 . S
C200 C201 1.373 . S
C200 H213 0.929 . S
C201 C200 1.373 . S
C201 C202 1.396 . S
C201 C208 1.403 . S
C202 C192 1.476 . S
C202 N197 1.318 . S
C202 C201 1.396 . S
H203 C198 0.929 . S
O204 Mn180 2.385 1_655 S
O204 C182 1.234 . S
O205 Mn180 2.209 . S
O205 Mn181 2.215 1_455 S
O205 C182 1.283 1_455 S
O206 Mn180 2.094 . S
O206 C184 1.240 1_455 S
O207 Mn181 2.117 . S
O207 C184 1.264 . S
C208 C201 1.403 . S
C208 C209 1.399 . S
C208 H214 0.929 . S
C209 C189 1.449 . S
C209 C208 1.399 . S
C209 H215 0.930 . S
H210 C190 0.931 . S
H211 C191 0.930 1_455 S
H212 C199 0.931 . S
H213 C200 0.929 . S
H214 C208 0.929 . S
H215 C209 0.930 . S
Mn216 O221 2.095 . S
Mn216 O231 2.162 . S
Mn216 O232 2.297 . S
Mn216 O240 2.385 . S
Mn216 O241 2.209 . S
Mn216 O242 2.094 . S
Mn217 O222 2.121 . S
Mn217 N224 2.257 . S
Mn217 N233 2.282 . S
Mn217 O241 2.215 . S
Mn217 O243 2.117 . S
C218 O240 1.234 . S
C218 O241 1.283 . S
C219 O231 1.281 . S
C219 O232 1.236 . S
C220 O242 1.240 . S
C220 O243 1.264 . S
O221 Mn216 2.095 . S
O221 C230 1.250 . S
O222 Mn217 2.121 . S
O222 C230 1.258 . S
C223 N224 1.326 1_556 S
C223 C227 1.460 . S
C223 H229 0.929 . S
N224 Mn217 2.257 . S
N224 C223 1.326 1_554 S
N224 C228 1.362 . S
C225 C226 1.258 1_554 S
C225 C228 1.431 . S
C225 C245 1.449 . S
C226 C225 1.258 1_556 S
C226 C227 1.477 . S
C226 H246 0.931 . S
C227 C223 1.460 . S
C227 C226 1.477 . S
C227 H247 0.930 . S
C228 N224 1.362 . S
C228 C225 1.431 . S
C228 C238 1.476 . S
H229 C223 0.929 . S
C230 O221 1.250 . S
C230 O222 1.258 . S
O231 Mn216 2.162 . S
O231 C219 1.281 . S
O232 Mn216 2.297 . S
O232 C219 1.236 . S
N233 Mn217 2.282 . S
N233 C234 1.328 . S
N233 C238 1.318 . S
C234 N233 1.328 . S
C234 C235 1.457 . S
C234 H239 0.929 . S
C235 C234 1.457 . S
C235 C236 1.291 . S
C235 H248 0.931 . S
C236 C235 1.291 . S
C236 C237 1.373 . S
C236 H249 0.929 . S
C237 C236 1.373 . S
C237 C238 1.396 . S
C237 C244 1.403 . S
C238 C228 1.476 . S
C238 N233 1.318 . S
C238 C237 1.396 . S
H239 C234 0.929 . S
O240 Mn216 2.385 . S
O240 C218 1.234 . S
O241 Mn216 2.209 . S
O241 Mn217 2.215 . S
O241 C218 1.283 . S
O242 Mn216 2.094 . S
O242 C220 1.240 . S
O243 Mn217 2.117 . S
O243 C220 1.264 . S
C244 C237 1.403 . S
C244 C245 1.399 . S
C244 H250 0.929 . S
C245 C225 1.449 . S
C245 C244 1.399 . S
C245 H251 0.930 . S
H246 C226 0.931 . S
H247 C227 0.930 . S
H248 C235 0.931 . S
H249 C236 0.929 . S
H250 C244 0.929 . S
H251 C245 0.930 . S
Mn252 O257 2.095 . S
Mn252 O267 2.162 . S
Mn252 O268 2.297 . S
Mn252 O276 2.385 . S
Mn252 O277 2.209 . S
Mn252 O278 2.094 . S
Mn253 O258 2.121 . S
Mn253 N260 2.257 . S
Mn253 N269 2.282 . S
Mn253 O277 2.215 . S
Mn253 O279 2.117 . S
C254 O276 1.234 . S
C254 O277 1.283 . S
C255 O267 1.281 . S
C255 O268 1.236 . S
C256 O278 1.240 . S
C256 O279 1.264 . S
O257 Mn252 2.095 . S
O257 C266 1.250 . S
O258 Mn253 2.121 . S
O258 C266 1.258 . S
C259 N260 1.326 . S
C259 C263 1.460 . S
C259 H265 0.929 . S
N260 Mn253 2.257 . S
N260 C259 1.326 . S
N260 C264 1.362 . S
C261 C262 1.258 . S
C261 C264 1.431 . S
C261 C281 1.449 . S
C262 C261 1.258 . S
C262 C263 1.477 . S
C262 H282 0.931 . S
C263 C259 1.460 . S
C263 C262 1.477 . S
C263 H283 0.930 . S
C264 N260 1.362 . S
C264 C261 1.431 . S
C264 C274 1.476 . S
H265 C259 0.929 . S
C266 O257 1.250 . S
C266 O258 1.258 . S
O267 Mn252 2.162 . S
O267 C255 1.281 . S
O268 Mn252 2.297 . S
O268 C255 1.236 . S
N269 Mn253 2.282 . S
N269 C270 1.328 . S
N269 C274 1.318 . S
C270 N269 1.328 . S
C270 C271 1.457 . S
C270 H275 0.929 . S
C271 C270 1.457 . S
C271 C272 1.291 . S
C271 H284 0.931 . S
C272 C271 1.291 . S
C272 C273 1.373 . S
C272 H285 0.929 . S
C273 C272 1.373 . S
C273 C274 1.396 . S
C273 C280 1.403 . S
C274 C264 1.476 . S
C274 N269 1.318 . S
C274 C273 1.396 . S
H275 C270 0.929 . S
O276 Mn252 2.385 . S
O276 C254 1.234 . S
O277 Mn252 2.209 . S
O277 Mn253 2.215 . S
O277 C254 1.283 . S
O278 Mn252 2.094 . S
O278 C256 1.240 . S
O279 Mn253 2.117 . S
O279 C256 1.264 . S
C280 C273 1.403 . S
C280 C281 1.399 . S
C280 H286 0.929 . S
C281 C261 1.449 . S
C281 C280 1.399 . S
C281 H287 0.930 . S
H282 C262 0.931 . S
H283 C263 0.930 . S
H284 C271 0.931 . S
H285 C272 0.929 . S
H286 C280 0.929 . S
H287 C281 0.930 . S
Mn288 O293 2.095 . S
Mn288 O303 2.162 . S
Mn288 O304 2.297 . S
Mn288 O312 2.385 . S
Mn288 O313 2.209 . S
Mn288 O314 2.094 . S
Mn289 O294 2.121 . S
Mn289 N296 2.257 . S
Mn289 N305 2.282 . S
Mn289 O313 2.215 . S
Mn289 O315 2.117 . S
C290 O312 1.234 . S
C290 O313 1.283 . S
C291 O303 1.281 . S
C291 O304 1.236 . S
C292 O314 1.240 . S
C292 O315 1.264 . S
O293 Mn288 2.095 . S
O293 C302 1.250 . S
O294 Mn289 2.121 . S
O294 C302 1.258 . S
C295 N296 1.326 . S
C295 C299 1.460 . S
C295 H301 0.929 . S
N296 Mn289 2.257 . S
N296 C295 1.326 . S
N296 C300 1.362 . S
C297 C298 1.258 . S
C297 C300 1.431 . S
C297 C317 1.449 . S
C298 C297 1.258 . S
C298 C299 1.477 . S
C298 H318 0.931 . S
C299 C295 1.460 . S
C299 C298 1.477 . S
C299 H319 0.930 . S
C300 N296 1.362 . S
C300 C297 1.431 . S
C300 C310 1.476 . S
H301 C295 0.929 . S
C302 O293 1.250 . S
C302 O294 1.258 . S
O303 Mn288 2.162 . S
O303 C291 1.281 . S
O304 Mn288 2.297 . S
O304 C291 1.236 . S
N305 Mn289 2.282 . S
N305 C306 1.328 . S
N305 C310 1.318 . S
C306 N305 1.328 . S
C306 C307 1.457 . S
C306 H311 0.929 . S
C307 C306 1.457 . S
C307 C308 1.291 . S
C307 H320 0.931 . S
C308 C307 1.291 . S
C308 C309 1.373 . S
C308 H321 0.929 . S
C309 C308 1.373 . S
C309 C310 1.396 . S
C309 C316 1.403 . S
C310 C300 1.476 . S
C310 N305 1.318 . S
C310 C309 1.396 . S
H311 C306 0.929 . S
O312 Mn288 2.385 . S
O312 C290 1.234 . S
O313 Mn288 2.209 . S
O313 Mn289 2.215 . S
O313 C290 1.283 . S
O314 Mn288 2.094 . S
O314 C292 1.240 . S
O315 Mn289 2.117 . S
O315 C292 1.264 . S
C316 C309 1.403 . S
C316 C317 1.399 . S
C316 H322 0.929 . S
C317 C297 1.449 . S
C317 C316 1.399 . S
C317 H323 0.930 . S
H318 C298 0.931 . S
H319 C299 0.930 . S
H320 C307 0.931 . S
H321 C308 0.929 . S
H322 C316 0.929 . S
H323 C317 0.930 . S
Mn324 O329 2.095 . S
Mn324 O339 2.162 . S
Mn324 O340 2.297 . S
Mn324 O348 2.385 . S
Mn324 O349 2.209 1_455 S
Mn324 O350 2.094 . S
Mn325 O330 2.121 1_455 S
Mn325 N332 2.257 1_455 S
Mn325 N341 2.282 1_455 S
Mn325 O349 2.215 1_455 S
Mn325 O351 2.117 . S
C326 O348 1.234 . S
C326 O349 1.283 1_455 S
C327 O339 1.281 . S
C327 O340 1.236 . S
C328 O350 1.240 . S
C328 O351 1.264 . S
O329 Mn324 2.095 . S
O329 C338 1.250 . S
O330 Mn325 2.121 1_655 S
O330 C338 1.258 1_655 S
C331 N332 1.326 . S
C331 C335 1.460 . S
C331 H337 0.929 . S
N332 Mn325 2.257 1_655 S
N332 C331 1.326 . S
N332 C336 1.362 . S
C333 C334 1.258 . S
C333 C336 1.431 . S
C333 C353 1.449 . S
C334 C333 1.258 . S
C334 C335 1.477 . S
C334 H354 0.931 . S
C335 C331 1.460 . S
C335 C334 1.477 . S
C335 H355 0.930 . S
C336 N332 1.362 . S
C336 C333 1.431 . S
C336 C346 1.476 . S
H337 C331 0.929 . S
C338 O329 1.250 . S
C338 O330 1.258 1_455 S
O339 Mn324 2.162 . S
O339 C327 1.281 . S
O340 Mn324 2.297 . S
O340 C327 1.236 . S
N341 Mn325 2.282 1_655 S
N341 C342 1.328 1_655 S
N341 C346 1.318 . S
C342 N341 1.328 1_455 S
C342 C343 1.457 . S
C342 H347 0.929 . S
C343 C342 1.457 . S
C343 C344 1.291 1_455 S
C343 H356 0.931 . S
C344 C343 1.291 1_655 S
C344 C345 1.373 . S
C344 H357 0.929 . S
C345 C344 1.373 . S
C345 C346 1.396 . S
C345 C352 1.403 . S
C346 C336 1.476 . S
C346 N341 1.318 . S
C346 C345 1.396 . S
H347 C342 0.929 . S
O348 Mn324 2.385 . S
O348 C326 1.234 . S
O349 Mn324 2.209 1_655 S
O349 Mn325 2.215 1_655 S
O349 C326 1.283 1_655 S
O350 Mn324 2.094 . S
O350 C328 1.240 . S
O351 Mn325 2.117 . S
O351 C328 1.264 . S
C352 C345 1.403 . S
C352 C353 1.399 . S
C352 H358 0.929 . S
C353 C333 1.449 . S
C353 C352 1.399 . S
C353 H359 0.930 . S
H354 C334 0.931 . S
H355 C335 0.930 . S
H356 C343 0.931 . S
H357 C344 0.929 . S
H358 C352 0.929 . S
H359 C353 0.930 . S
Mn360 O365 2.095 . S
Mn360 O375 2.162 . S
Mn360 O376 2.297 . S
Mn360 O384 2.385 . S
Mn360 O385 2.209 . S
Mn360 O386 2.094 . S
Mn361 O366 2.121 . S
Mn361 N368 2.257 . S
Mn361 N377 2.282 . S
Mn361 O385 2.215 . S
Mn361 O387 2.117 . S
C362 O384 1.234 . S
C362 O385 1.283 . S
C363 O375 1.281 . S
C363 O376 1.236 . S
C364 O386 1.240 . S
C364 O387 1.264 . S
O365 Mn360 2.095 . S
O365 C374 1.250 . S
O366 Mn361 2.121 . S
O366 C374 1.258 . S
C367 N368 1.326 1_655 S
C367 C371 1.460 . S
C367 H373 0.929 . S
N368 Mn361 2.257 . S
N368 C367 1.326 1_455 S
N368 C372 1.362 . S
C369 C370 1.258 1_455 S
C369 C372 1.431 . S
C369 C389 1.449 . S
C370 C369 1.258 1_655 S
C370 C371 1.477 . S
C370 H390 0.931 . S
C371 C367 1.460 . S
C371 C370 1.477 . S
C371 H391 0.930 . S
C372 N368 1.362 . S
C372 C369 1.431 . S
C372 C382 1.476 . S
H373 C367 0.929 . S
C374 O365 1.250 . S
C374 O366 1.258 . S
O375 Mn360 2.162 . S
O375 C363 1.281 . S
O376 Mn360 2.297 . S
O376 C363 1.236 . S
N377 Mn361 2.282 . S
N377 C378 1.328 . S
N377 C382 1.318 . S
C378 N377 1.328 . S
C378 C379 1.457 . S
C378 H383 0.929 . S
C379 C378 1.457 . S
C379 C380 1.291 . S
C379 H392 0.931 . S
C380 C379 1.291 . S
C380 C381 1.373 . S
C380 H393 0.929 . S
C381 C380 1.373 . S
C381 C382 1.396 . S
C381 C388 1.403 . S
C382 C372 1.476 . S
C382 N377 1.318 . S
C382 C381 1.396 . S
H383 C378 0.929 . S
O384 Mn360 2.385 . S
O384 C362 1.234 . S
O385 Mn360 2.209 . S
O385 Mn361 2.215 . S
O385 C362 1.283 . S
O386 Mn360 2.094 . S
O386 C364 1.240 . S
O387 Mn361 2.117 . S
O387 C364 1.264 . S
C388 C381 1.403 . S
C388 C389 1.399 . S
C388 H394 0.929 . S
C389 C369 1.449 . S
C389 C388 1.399 . S
C389 H395 0.930 . S
H390 C370 0.931 . S
H391 C371 0.930 . S
H392 C379 0.931 . S
H393 C380 0.929 . S
H394 C388 0.929 . S
H395 C389 0.930 . S
Mn396 O401 2.095 . S
Mn396 O411 2.162 . S
Mn396 O412 2.297 . S
Mn396 O420 2.385 1_554 S
Mn396 O421 2.209 . S
Mn396 O422 2.094 . S
Mn397 O402 2.121 1_556 S
Mn397 N404 2.257 . S
Mn397 N413 2.282 . S
Mn397 O421 2.215 1_556 S
Mn397 O423 2.117 . S
C398 O420 1.234 . S
C398 O421 1.283 1_556 S
C399 O411 1.281 . S
C399 O412 1.236 . S
C400 O422 1.240 1_556 S
C400 O423 1.264 . S
O401 Mn396 2.095 . S
O401 C410 1.250 . S
O402 Mn397 2.121 1_554 S
O402 C410 1.258 . S
C403 N404 1.326 1_554 S
C403 C407 1.460 1_554 S
C403 H409 0.929 . S
N404 Mn397 2.257 . S
N404 C403 1.326 1_556 S
N404 C408 1.362 . S
C405 C406 1.258 . S
C405 C408 1.431 . S
C405 C425 1.449 . S
C406 C405 1.258 . S
C406 C407 1.477 . S
C406 H426 0.931 . S
C407 C403 1.460 1_556 S
C407 C406 1.477 . S
C407 H427 0.930 1_556 S
C408 N404 1.362 . S
C408 C405 1.431 . S
C408 C418 1.476 . S
H409 C403 0.929 . S
C410 O401 1.250 . S
C410 O402 1.258 . S
O411 Mn396 2.162 . S
O411 C399 1.281 . S
O412 Mn396 2.297 . S
O412 C399 1.236 . S
N413 Mn397 2.282 . S
N413 C414 1.328 . S
N413 C418 1.318 . S
C414 N413 1.328 . S
C414 C415 1.457 . S
C414 H419 0.929 . S
C415 C414 1.457 . S
C415 C416 1.291 . S
C415 H428 0.931 . S
C416 C415 1.291 . S
C416 C417 1.373 . S
C416 H429 0.929 . S
C417 C416 1.373 . S
C417 C418 1.396 . S
C417 C424 1.403 . S
C418 C408 1.476 . S
C418 N413 1.318 . S
C418 C417 1.396 . S
H419 C414 0.929 . S
O420 Mn396 2.385 1_556 S
O420 C398 1.234 . S
O421 Mn396 2.209 . S
O421 Mn397 2.215 1_554 S
O421 C398 1.283 1_554 S
O422 Mn396 2.094 . S
O422 C400 1.240 1_554 S
O423 Mn397 2.117 . S
O423 C400 1.264 . S
C424 C417 1.403 . S
C424 C425 1.399 . S
C424 H430 0.929 . S
C425 C405 1.449 . S
C425 C424 1.399 . S
C425 H431 0.930 . S
H426 C406 0.931 . S
H427 C407 0.930 1_554 S
H428 C415 0.931 . S
H429 C416 0.929 . S
H430 C424 0.929 . S
H431 C425 0.930 . S
Mn432 O437 2.095 . S
Mn432 O447 2.162 . S
Mn432 O448 2.297 . S
Mn432 O456 2.385 . S
Mn432 O457 2.209 . S
Mn432 O458 2.094 . S
Mn433 O438 2.121 . S
Mn433 N440 2.257 . S
Mn433 N449 2.282 . S
Mn433 O457 2.215 . S
Mn433 O459 2.117 . S
C434 O456 1.234 . S
C434 O457 1.283 . S
C435 O447 1.281 . S
C435 O448 1.236 . S
C436 O458 1.240 . S
C436 O459 1.264 . S
O437 Mn432 2.095 . S
O437 C446 1.250 . S
O438 Mn433 2.121 . S
O438 C446 1.258 . S
C439 N440 1.326 1_455 S
C439 C443 1.460 . S
C439 H445 0.929 . S
N440 Mn433 2.257 . S
N440 C439 1.326 1_655 S
N440 C444 1.362 . S
C441 C442 1.258 1_655 S
C441 C444 1.431 . S
C441 C461 1.449 . S
C442 C441 1.258 1_455 S
C442 C443 1.477 . S
C442 H462 0.931 . S
C443 C439 1.460 . S
C443 C442 1.477 . S
C443 H463 0.930 . S
C444 N440 1.362 . S
C444 C441 1.431 . S
C444 C454 1.476 . S
H445 C439 0.929 . S
C446 O437 1.250 . S
C446 O438 1.258 . S
O447 Mn432 2.162 . S
O447 C435 1.281 . S
O448 Mn432 2.297 . S
O448 C435 1.236 . S
N449 Mn433 2.282 . S
N449 C450 1.328 . S
N449 C454 1.318 . S
C450 N449 1.328 . S
C450 C451 1.457 . S
C450 H455 0.929 . S
C451 C450 1.457 . S
C451 C452 1.291 . S
C451 H464 0.931 . S
C452 C451 1.291 . S
C452 C453 1.373 . S
C452 H465 0.929 . S
C453 C452 1.373 . S
C453 C454 1.396 . S
C453 C460 1.403 . S
C454 C444 1.476 . S
C454 N449 1.318 . S
C454 C453 1.396 . S
H455 C450 0.929 . S
O456 Mn432 2.385 . S
O456 C434 1.234 . S
O457 Mn432 2.209 . S
O457 Mn433 2.215 . S
O457 C434 1.283 . S
O458 Mn432 2.094 . S
O458 C436 1.240 . S
O459 Mn433 2.117 . S
O459 C436 1.264 . S
C460 C453 1.403 . S
C460 C461 1.399 . S
C460 H466 0.929 . S
C461 C441 1.449 . S
C461 C460 1.399 . S
C461 H467 0.930 . S
H462 C442 0.931 . S
H463 C443 0.930 . S
H464 C451 0.931 . S
H465 C452 0.929 . S
H466 C460 0.929 . S
H467 C461 0.930 . S
Mn468 O473 2.095 . S
Mn468 O483 2.162 . S
Mn468 O484 2.297 . S
Mn468 O492 2.385 1_556 S
Mn468 O493 2.209 1_655 S
Mn468 O494 2.094 . S
Mn469 O474 2.121 1_654 S
Mn469 N476 2.257 1_655 S
Mn469 N485 2.282 1_655 S
Mn469 O493 2.215 1_654 S
Mn469 O495 2.117 . S
C470 O492 1.234 . S
C470 O493 1.283 1_654 S
C471 O483 1.281 . S
C471 O484 1.236 . S
C472 O494 1.240 1_554 S
C472 O495 1.264 . S
O473 Mn468 2.095 . S
O473 C482 1.250 . S
O474 Mn469 2.121 1_456 S
O474 C482 1.258 1_455 S
C475 N476 1.326 1_556 S
C475 C479 1.460 1_556 S
C475 H481 0.929 . S
N476 Mn469 2.257 1_455 S
N476 C475 1.326 1_554 S
N476 C480 1.362 . S
C477 C478 1.258 . S
C477 C480 1.431 . S
C477 C497 1.449 . S
C478 C477 1.258 . S
C478 C479 1.477 . S
C478 H498 0.931 . S
C479 C475 1.460 1_554 S
C479 C478 1.477 . S
C479 H499 0.930 1_554 S
C480 N476 1.362 . S
C480 C477 1.431 . S
C480 C490 1.476 . S
H481 C475 0.929 . S
C482 O473 1.250 . S
C482 O474 1.258 1_655 S
O483 Mn468 2.162 . S
O483 C471 1.281 . S
O484 Mn468 2.297 . S
O484 C471 1.236 . S
N485 Mn469 2.282 1_455 S
N485 C486 1.328 1_455 S
N485 C490 1.318 . S
C486 N485 1.328 1_655 S
C486 C487 1.457 . S
C486 H491 0.929 . S
C487 C486 1.457 . S
C487 C488 1.291 1_655 S
C487 H500 0.931 . S
C488 C487 1.291 1_455 S
C488 C489 1.373 . S
C488 H501 0.929 . S
C489 C488 1.373 . S
C489 C490 1.396 . S
C489 C496 1.403 . S
C490 C480 1.476 . S
C490 N485 1.318 . S
C490 C489 1.396 . S
H491 C486 0.929 . S
O492 Mn468 2.385 1_554 S
O492 C470 1.234 . S
O493 Mn468 2.209 1_455 S
O493 Mn469 2.215 1_456 S
O493 C470 1.283 1_456 S
O494 Mn468 2.094 . S
O494 C472 1.240 1_556 S
O495 Mn469 2.117 . S
O495 C472 1.264 . S
C496 C489 1.403 . S
C496 C497 1.399 . S
C496 H502 0.929 . S
C497 C477 1.449 . S
C497 C496 1.399 . S
C497 H503 0.930 . S
H498 C478 0.931 . S
H499 C479 0.930 1_556 S
H500 C487 0.931 . S
H501 C488 0.929 . S
H502 C496 0.929 . S
H503 C497 0.930 . S
Mn504 O509 2.095 . S
Mn504 O519 2.162 . S
Mn504 O520 2.297 . S
Mn504 O528 2.385 . S
Mn504 O529 2.209 . S
Mn504 O530 2.094 . S
Mn505 O510 2.121 . S
Mn505 N512 2.257 . S
Mn505 N521 2.282 . S
Mn505 O529 2.215 . S
Mn505 O531 2.117 . S
C506 O528 1.234 . S
C506 O529 1.283 . S
C507 O519 1.281 . S
C507 O520 1.236 . S
C508 O530 1.240 . S
C508 O531 1.264 . S
O509 Mn504 2.095 . S
O509 C518 1.250 . S
O510 Mn505 2.121 . S
O510 C518 1.258 . S
C511 N512 1.326 . S
C511 C515 1.460 . S
C511 H517 0.929 . S
N512 Mn505 2.257 . S
N512 C511 1.326 . S
N512 C516 1.362 . S
C513 C514 1.258 . S
C513 C516 1.431 . S
C513 C533 1.449 . S
C514 C513 1.258 . S
C514 C515 1.477 . S
C514 H534 0.931 . S
C515 C511 1.460 . S
C515 C514 1.477 . S
C515 H535 0.930 . S
C516 N512 1.362 . S
C516 C513 1.431 . S
C516 C526 1.476 . S
H517 C511 0.929 . S
C518 O509 1.250 . S
C518 O510 1.258 . S
O519 Mn504 2.162 . S
O519 C507 1.281 . S
O520 Mn504 2.297 . S
O520 C507 1.236 . S
N521 Mn505 2.282 . S
N521 C522 1.328 . S
N521 C526 1.318 . S
C522 N521 1.328 . S
C522 C523 1.457 . S
C522 H527 0.929 . S
C523 C522 1.457 . S
C523 C524 1.291 . S
C523 H536 0.931 . S
C524 C523 1.291 . S
C524 C525 1.373 . S
C524 H537 0.929 . S
C525 C524 1.373 . S
C525 C526 1.396 . S
C525 C532 1.403 . S
C526 C516 1.476 . S
C526 N521 1.318 . S
C526 C525 1.396 . S
H527 C522 0.929 . S
O528 Mn504 2.385 . S
O528 C506 1.234 . S
O529 Mn504 2.209 . S
O529 Mn505 2.215 . S
O529 C506 1.283 . S
O530 Mn504 2.094 . S
O530 C508 1.240 . S
O531 Mn505 2.117 . S
O531 C508 1.264 . S
C532 C525 1.403 . S
C532 C533 1.399 . S
C532 H538 0.929 . S
C533 C513 1.449 . S
C533 C532 1.399 . S
C533 H539 0.930 . S
H534 C514 0.931 . S
H535 C515 0.930 . S
H536 C523 0.931 . S
H537 C524 0.929 . S
H538 C532 0.929 . S
H539 C533 0.930 . S
Mn540 O545 2.095 . S
Mn540 O555 2.162 . S
Mn540 O556 2.297 . S
Mn540 O564 2.385 . S
Mn540 O565 2.209 . S
Mn540 O566 2.094 . S
Mn541 O546 2.121 . S
Mn541 N548 2.257 . S
Mn541 N557 2.282 . S
Mn541 O565 2.215 . S
Mn541 O567 2.117 . S
C542 O564 1.234 . S
C542 O565 1.283 . S
C543 O555 1.281 . S
C543 O556 1.236 . S
C544 O566 1.240 . S
C544 O567 1.264 . S
O545 Mn540 2.095 . S
O545 C554 1.250 . S
O546 Mn541 2.121 . S
O546 C554 1.258 . S
C547 N548 1.326 . S
C547 C551 1.460 . S
C547 H553 0.929 . S
N548 Mn541 2.257 . S
N548 C547 1.326 . S
N548 C552 1.362 . S
C549 C550 1.258 . S
C549 C552 1.431 . S
C549 C569 1.449 . S
C550 C549 1.258 . S
C550 C551 1.477 . S
C550 H570 0.931 . S
C551 C547 1.460 . S
C551 C550 1.477 . S
C551 H571 0.930 . S
C552 N548 1.362 . S
C552 C549 1.431 . S
C552 C562 1.476 . S
H553 C547 0.929 . S
C554 O545 1.250 . S
C554 O546 1.258 . S
O555 Mn540 2.162 . S
O555 C543 1.281 . S
O556 Mn540 2.297 . S
O556 C543 1.236 . S
N557 Mn541 2.282 . S
N557 C558 1.328 . S
N557 C562 1.318 . S
C558 N557 1.328 . S
C558 C559 1.457 . S
C558 H563 0.929 . S
C559 C558 1.457 . S
C559 C560 1.291 . S
C559 H572 0.931 . S
C560 C559 1.291 . S
C560 C561 1.373 . S
C560 H573 0.929 . S
C561 C560 1.373 . S
C561 C562 1.396 . S
C561 C568 1.403 . S
C562 C552 1.476 . S
C562 N557 1.318 . S
C562 C561 1.396 . S
H563 C558 0.929 . S
O564 Mn540 2.385 . S
O564 C542 1.234 . S
O565 Mn540 2.209 . S
O565 Mn541 2.215 . S
O565 C542 1.283 . S
O566 Mn540 2.094 . S
O566 C544 1.240 . S
O567 Mn541 2.117 . S
O567 C544 1.264 . S
C568 C561 1.403 . S
C568 C569 1.399 . S
C568 H574 0.929 . S
C569 C549 1.449 . S
C569 C568 1.399 . S
C569 H575 0.930 . S
H570 C550 0.931 . S
H571 C551 0.930 . S
H572 C559 0.931 . S
H573 C560 0.929 . S
H574 C568 0.929 . S
H575 C569 0.930 . S
Mn576 O581 2.095 . S
Mn576 O591 2.162 . S
Mn576 O592 2.297 . S
Mn576 O600 2.385 . S
Mn576 O601 2.209 . S
Mn576 O602 2.094 . S
Mn577 O582 2.121 . S
Mn577 N584 2.257 . S
Mn577 N593 2.282 . S
Mn577 O601 2.215 . S
Mn577 O603 2.117 . S
C578 O600 1.234 . S
C578 O601 1.283 . S
C579 O591 1.281 . S
C579 O592 1.236 . S
C580 O602 1.240 . S
C580 O603 1.264 . S
O581 Mn576 2.095 . S
O581 C590 1.250 . S
O582 Mn577 2.121 . S
O582 C590 1.258 . S
C583 N584 1.326 . S
C583 C587 1.460 . S
C583 H589 0.929 . S
N584 Mn577 2.257 . S
N584 C583 1.326 . S
N584 C588 1.362 . S
C585 C586 1.258 . S
C585 C588 1.431 . S
C585 C605 1.449 . S
C586 C585 1.258 . S
C586 C587 1.477 . S
C586 H606 0.931 . S
C587 C583 1.460 . S
C587 C586 1.477 . S
C587 H607 0.930 . S
C588 N584 1.362 . S
C588 C585 1.431 . S
C588 C598 1.476 . S
H589 C583 0.929 . S
C590 O581 1.250 . S
C590 O582 1.258 . S
O591 Mn576 2.162 . S
O591 C579 1.281 . S
O592 Mn576 2.297 . S
O592 C579 1.236 . S
N593 Mn577 2.282 . S
N593 C594 1.328 . S
N593 C598 1.318 . S
C594 N593 1.328 . S
C594 C595 1.457 . S
C594 H599 0.929 . S
C595 C594 1.457 . S
C595 C596 1.291 . S
C595 H608 0.931 . S
C596 C595 1.291 . S
C596 C597 1.373 . S
C596 H609 0.929 . S
C597 C596 1.373 . S
C597 C598 1.396 . S
C597 C604 1.403 . S
C598 C588 1.476 . S
C598 N593 1.318 . S
C598 C597 1.396 . S
H599 C594 0.929 . S
O600 Mn576 2.385 . S
O600 C578 1.234 . S
O601 Mn576 2.209 . S
O601 Mn577 2.215 . S
O601 C578 1.283 . S
O602 Mn576 2.094 . S
O602 C580 1.240 . S
O603 Mn577 2.117 . S
O603 C580 1.264 . S
C604 C597 1.403 . S
C604 C605 1.399 . S
C604 H610 0.929 . S
C605 C585 1.449 . S
C605 C604 1.399 . S
C605 H611 0.930 . S
H606 C586 0.931 . S
H607 C587 0.930 . S
H608 C595 0.931 . S
H609 C596 0.929 . S
H610 C604 0.929 . S
H611 C605 0.930 . S
Mn612 O617 2.095 . S
Mn612 O627 2.162 . S
Mn612 O628 2.297 . S
Mn612 O636 2.385 . S
Mn612 O637 2.209 . S
Mn612 O638 2.094 . S
Mn613 O618 2.121 . S
Mn613 N620 2.257 . S
Mn613 N629 2.282 . S
Mn613 O637 2.215 . S
Mn613 O639 2.117 . S
C614 O636 1.234 . S
C614 O637 1.283 . S
C615 O627 1.281 . S
C615 O628 1.236 . S
C616 O638 1.240 . S
C616 O639 1.264 . S
O617 Mn612 2.095 . S
O617 C626 1.250 . S
O618 Mn613 2.121 . S
O618 C626 1.258 . S
C619 N620 1.326 1_565 S
C619 C623 1.460 . S
C619 H625 0.929 . S
N620 Mn613 2.257 . S
N620 C619 1.326 1_545 S
N620 C624 1.362 . S
C621 C622 1.258 1_545 S
C621 C624 1.431 . S
C621 C641 1.449 . S
C622 C621 1.258 1_565 S
C622 C623 1.477 . S
C622 H642 0.931 . S
C623 C619 1.460 . S
C623 C622 1.477 . S
C623 H643 0.930 . S
C624 N620 1.362 . S
C624 C621 1.431 . S
C624 C634 1.476 . S
H625 C619 0.929 . S
C626 O617 1.250 . S
C626 O618 1.258 . S
O627 Mn612 2.162 . S
O627 C615 1.281 . S
O628 Mn612 2.297 . S
O628 C615 1.236 . S
N629 Mn613 2.282 . S
N629 C630 1.328 . S
N629 C634 1.318 . S
C630 N629 1.328 . S
C630 C631 1.457 . S
C630 H635 0.929 . S
C631 C630 1.457 . S
C631 C632 1.291 . S
C631 H644 0.931 . S
C632 C631 1.291 . S
C632 C633 1.373 . S
C632 H645 0.929 . S
C633 C632 1.373 . S
C633 C634 1.396 . S
C633 C640 1.403 . S
C634 C624 1.476 . S
C634 N629 1.318 . S
C634 C633 1.396 . S
H635 C630 0.929 . S
O636 Mn612 2.385 . S
O636 C614 1.234 . S
O637 Mn612 2.209 . S
O637 Mn613 2.215 . S
O637 C614 1.283 . S
O638 Mn612 2.094 . S
O638 C616 1.240 . S
O639 Mn613 2.117 . S
O639 C616 1.264 . S
C640 C633 1.403 . S
C640 C641 1.399 . S
C640 H646 0.929 . S
C641 C621 1.449 . S
C641 C640 1.399 . S
C641 H647 0.930 . S
H642 C622 0.931 . S
H643 C623 0.930 . S
H644 C631 0.931 . S
H645 C632 0.929 . S
H646 C640 0.929 . S
H647 C641 0.930 . S
Mn648 O653 2.095 . S
Mn648 O663 2.162 . S
Mn648 O664 2.297 . S
Mn648 O672 2.385 . S
Mn648 O673 2.209 1_554 S
Mn648 O674 2.094 . S
Mn649 O654 2.121 1_554 S
Mn649 N656 2.257 1_554 S
Mn649 N665 2.282 1_554 S
Mn649 O673 2.215 1_554 S
Mn649 O675 2.117 . S
C650 O672 1.234 . S
C650 O673 1.283 1_554 S
C651 O663 1.281 . S
C651 O664 1.236 . S
C652 O674 1.240 . S
C652 O675 1.264 . S
O653 Mn648 2.095 . S
O653 C662 1.250 . S
O654 Mn649 2.121 1_556 S
O654 C662 1.258 1_556 S
C655 N656 1.326 . S
C655 C659 1.460 . S
C655 H661 0.929 . S
N656 Mn649 2.257 1_556 S
N656 C655 1.326 . S
N656 C660 1.362 . S
C657 C658 1.258 . S
C657 C660 1.431 . S
C657 C677 1.449 . S
C658 C657 1.258 . S
C658 C659 1.477 . S
C658 H678 0.931 . S
C659 C655 1.460 . S
C659 C658 1.477 . S
C659 H679 0.930 . S
C660 N656 1.362 . S
C660 C657 1.431 . S
C660 C670 1.476 . S
H661 C655 0.929 . S
C662 O653 1.250 . S
C662 O654 1.258 1_554 S
O663 Mn648 2.162 . S
O663 C651 1.281 . S
O664 Mn648 2.297 . S
O664 C651 1.236 . S
N665 Mn649 2.282 1_556 S
N665 C666 1.328 1_556 S
N665 C670 1.318 . S
C666 N665 1.328 1_554 S
C666 C667 1.457 . S
C666 H671 0.929 . S
C667 C666 1.457 . S
C667 C668 1.291 1_554 S
C667 H680 0.931 . S
C668 C667 1.291 1_556 S
C668 C669 1.373 . S
C668 H681 0.929 . S
C669 C668 1.373 . S
C669 C670 1.396 . S
C669 C676 1.403 . S
C670 C660 1.476 . S
C670 N665 1.318 . S
C670 C669 1.396 . S
H671 C666 0.929 . S
O672 Mn648 2.385 . S
O672 C650 1.234 . S
O673 Mn648 2.209 1_556 S
O673 Mn649 2.215 1_556 S
O673 C650 1.283 1_556 S
O674 Mn648 2.094 . S
O674 C652 1.240 . S
O675 Mn649 2.117 . S
O675 C652 1.264 . S
C676 C669 1.403 . S
C676 C677 1.399 . S
C676 H682 0.929 . S
C677 C657 1.449 . S
C677 C676 1.399 . S
C677 H683 0.930 . S
H678 C658 0.931 . S
H679 C659 0.930 . S
H680 C667 0.931 . S
H681 C668 0.929 . S
H682 C676 0.929 . S
H683 C677 0.930 . S
Mn684 O689 2.095 . S
Mn684 O699 2.162 . S
Mn684 O700 2.297 . S
Mn684 O708 2.385 . S
Mn684 O709 2.209 . S
Mn684 O710 2.094 . S
Mn685 O690 2.121 . S
Mn685 N692 2.257 . S
Mn685 N701 2.282 . S
Mn685 O709 2.215 . S
Mn685 O711 2.117 . S
C686 O708 1.234 . S
C686 O709 1.283 . S
C687 O699 1.281 . S
C687 O700 1.236 . S
C688 O710 1.240 . S
C688 O711 1.264 . S
O689 Mn684 2.095 . S
O689 C698 1.250 . S
O690 Mn685 2.121 . S
O690 C698 1.258 . S
C691 N692 1.326 1_545 S
C691 C695 1.460 . S
C691 H697 0.929 . S
N692 Mn685 2.257 . S
N692 C691 1.326 1_565 S
N692 C696 1.362 . S
C693 C694 1.258 1_565 S
C693 C696 1.431 . S
C693 C713 1.449 . S
C694 C693 1.258 1_545 S
C694 C695 1.477 . S
C694 H714 0.931 . S
C695 C691 1.460 . S
C695 C694 1.477 . S
C695 H715 0.930 . S
C696 N692 1.362 . S
C696 C693 1.431 . S
C696 C706 1.476 . S
H697 C691 0.929 . S
C698 O689 1.250 . S
C698 O690 1.258 . S
O699 Mn684 2.162 . S
O699 C687 1.281 . S
O700 Mn684 2.297 . S
O700 C687 1.236 . S
N701 Mn685 2.282 . S
N701 C702 1.328 . S
N701 C706 1.318 . S
C702 N701 1.328 . S
C702 C703 1.457 . S
C702 H707 0.929 . S
C703 C702 1.457 . S
C703 C704 1.291 . S
C703 H716 0.931 . S
C704 C703 1.291 . S
C704 C705 1.373 . S
C704 H717 0.929 . S
C705 C704 1.373 . S
C705 C706 1.396 . S
C705 C712 1.403 . S
C706 C696 1.476 . S
C706 N701 1.318 . S
C706 C705 1.396 . S
H707 C702 0.929 . S
O708 Mn684 2.385 . S
O708 C686 1.234 . S
O709 Mn684 2.209 . S
O709 Mn685 2.215 . S
O709 C686 1.283 . S
O710 Mn684 2.094 . S
O710 C688 1.240 . S
O711 Mn685 2.117 . S
O711 C688 1.264 . S
C712 C705 1.403 . S
C712 C713 1.399 . S
C712 H718 0.929 . S
C713 C693 1.449 . S
C713 C712 1.399 . S
C713 H719 0.930 . S
H714 C694 0.931 . S
H715 C695 0.930 . S
H716 C703 0.931 . S
H717 C704 0.929 . S
H718 C712 0.929 . S
H719 C713 0.930 . S
Mn720 O725 2.095 . S
Mn720 O735 2.162 . S
Mn720 O736 2.297 . S
Mn720 O744 2.385 . S
Mn720 O745 2.209 . S
Mn720 O746 2.094 . S
Mn721 O726 2.121 . S
Mn721 N728 2.257 . S
Mn721 N737 2.282 . S
Mn721 O745 2.215 . S
Mn721 O747 2.117 . S
C722 O744 1.234 . S
C722 O745 1.283 . S
C723 O735 1.281 . S
C723 O736 1.236 . S
C724 O746 1.240 . S
C724 O747 1.264 . S
O725 Mn720 2.095 . S
O725 C734 1.250 . S
O726 Mn721 2.121 . S
O726 C734 1.258 . S
C727 N728 1.326 . S
C727 C731 1.460 . S
C727 H733 0.929 . S
N728 Mn721 2.257 . S
N728 C727 1.326 . S
N728 C732 1.362 . S
C729 C730 1.258 . S
C729 C732 1.431 . S
C729 C749 1.449 . S
C730 C729 1.258 . S
C730 C731 1.477 . S
C730 H750 0.931 . S
C731 C727 1.460 . S
C731 C730 1.477 . S
C731 H751 0.930 . S
C732 N728 1.362 . S
C732 C729 1.431 . S
C732 C742 1.476 . S
H733 C727 0.929 . S
C734 O725 1.250 . S
C734 O726 1.258 . S
O735 Mn720 2.162 . S
O735 C723 1.281 . S
O736 Mn720 2.297 . S
O736 C723 1.236 . S
N737 Mn721 2.282 . S
N737 C738 1.328 . S
N737 C742 1.318 . S
C738 N737 1.328 . S
C738 C739 1.457 . S
C738 H743 0.929 . S
C739 C738 1.457 . S
C739 C740 1.291 . S
C739 H752 0.931 . S
C740 C739 1.291 . S
C740 C741 1.373 . S
C740 H753 0.929 . S
C741 C740 1.373 . S
C741 C742 1.396 . S
C741 C748 1.403 . S
C742 C732 1.476 . S
C742 N737 1.318 . S
C742 C741 1.396 . S
H743 C738 0.929 . S
O744 Mn720 2.385 . S
O744 C722 1.234 . S
O745 Mn720 2.209 . S
O745 Mn721 2.215 . S
O745 C722 1.283 . S
O746 Mn720 2.094 . S
O746 C724 1.240 . S
O747 Mn721 2.117 . S
O747 C724 1.264 . S
C748 C741 1.403 . S
C748 C749 1.399 . S
C748 H754 0.929 . S
C749 C729 1.449 . S
C749 C748 1.399 . S
C749 H755 0.930 . S
H750 C730 0.931 . S
H751 C731 0.930 . S
H752 C739 0.931 . S
H753 C740 0.929 . S
H754 C748 0.929 . S
H755 C749 0.930 . S
Mn756 O761 2.095 . S
Mn756 O771 2.162 . S
Mn756 O772 2.297 . S
Mn756 O780 2.385 . S
Mn756 O781 2.209 . S
Mn756 O782 2.094 . S
Mn757 O762 2.121 . S
Mn757 N764 2.257 . S
Mn757 N773 2.282 . S
Mn757 O781 2.215 . S
Mn757 O783 2.117 . S
C758 O780 1.234 . S
C758 O781 1.283 . S
C759 O771 1.281 . S
C759 O772 1.236 . S
C760 O782 1.240 . S
C760 O783 1.264 . S
O761 Mn756 2.095 . S
O761 C770 1.250 . S
O762 Mn757 2.121 . S
O762 C770 1.258 . S
C763 N764 1.326 . S
C763 C767 1.460 . S
C763 H769 0.929 . S
N764 Mn757 2.257 . S
N764 C763 1.326 . S
N764 C768 1.362 . S
C765 C766 1.258 . S
C765 C768 1.431 . S
C765 C785 1.449 . S
C766 C765 1.258 . S
C766 C767 1.477 . S
C766 H786 0.931 . S
C767 C763 1.460 . S
C767 C766 1.477 . S
C767 H787 0.930 . S
C768 N764 1.362 . S
C768 C765 1.431 . S
C768 C778 1.476 . S
H769 C763 0.929 . S
C770 O761 1.250 . S
C770 O762 1.258 . S
O771 Mn756 2.162 . S
O771 C759 1.281 . S
O772 Mn756 2.297 . S
O772 C759 1.236 . S
N773 Mn757 2.282 . S
N773 C774 1.328 . S
N773 C778 1.318 . S
C774 N773 1.328 . S
C774 C775 1.457 . S
C774 H779 0.929 . S
C775 C774 1.457 . S
C775 C776 1.291 . S
C775 H788 0.931 . S
C776 C775 1.291 . S
C776 C777 1.373 . S
C776 H789 0.929 . S
C777 C776 1.373 . S
C777 C778 1.396 . S
C777 C784 1.403 . S
C778 C768 1.476 . S
C778 N773 1.318 . S
C778 C777 1.396 . S
H779 C774 0.929 . S
O780 Mn756 2.385 . S
O780 C758 1.234 . S
O781 Mn756 2.209 . S
O781 Mn757 2.215 . S
O781 C758 1.283 . S
O782 Mn756 2.094 . S
O782 C760 1.240 . S
O783 Mn757 2.117 . S
O783 C760 1.264 . S
C784 C777 1.403 . S
C784 C785 1.399 . S
C784 H790 0.929 . S
C785 C765 1.449 . S
C785 C784 1.399 . S
C785 H791 0.930 . S
H786 C766 0.931 . S
H787 C767 0.930 . S
H788 C775 0.931 . S
H789 C776 0.929 . S
H790 C784 0.929 . S
H791 C785 0.930 . S
Mn792 O797 2.095 . S
Mn792 O807 2.162 . S
Mn792 O808 2.297 . S
Mn792 O816 2.385 1_565 S
Mn792 O817 2.209 1_556 S
Mn792 O818 2.094 . S
Mn793 O798 2.121 1_546 S
Mn793 N800 2.257 1_556 S
Mn793 N809 2.282 1_556 S
Mn793 O817 2.215 1_546 S
Mn793 O819 2.117 . S
C794 O816 1.234 . S
C794 O817 1.283 1_546 S
C795 O807 1.281 . S
C795 O808 1.236 . S
C796 O818 1.240 1_545 S
C796 O819 1.264 . S
O797 Mn792 2.095 . S
O797 C806 1.250 . S
O798 Mn793 2.121 1_564 S
O798 C806 1.258 1_554 S
C799 N800 1.326 1_565 S
C799 C803 1.460 1_565 S
C799 H805 0.929 . S
N800 Mn793 2.257 1_554 S
N800 C799 1.326 1_545 S
N800 C804 1.362 . S
C801 C802 1.258 . S
C801 C804 1.431 . S
C801 C821 1.449 . S
C802 C801 1.258 . S
C802 C803 1.477 . S
C802 H822 0.931 . S
C803 C799 1.460 1_545 S
C803 C802 1.477 . S
C803 H823 0.930 1_545 S
C804 N800 1.362 . S
C804 C801 1.431 . S
C804 C814 1.476 . S
H805 C799 0.929 . S
C806 O797 1.250 . S
C806 O798 1.258 1_556 S
O807 Mn792 2.162 . S
O807 C795 1.281 . S
O808 Mn792 2.297 . S
O808 C795 1.236 . S
N809 Mn793 2.282 1_554 S
N809 C810 1.328 1_554 S
N809 C814 1.318 . S
C810 N809 1.328 1_556 S
C810 C811 1.457 . S
C810 H815 0.929 . S
C811 C810 1.457 . S
C811 C812 1.291 1_556 S
C811 H824 0.931 . S
C812 C811 1.291 1_554 S
C812 C813 1.373 . S
C812 H825 0.929 . S
C813 C812 1.373 . S
C813 C814 1.396 . S
C813 C820 1.403 . S
C814 C804 1.476 . S
C814 N809 1.318 . S
C814 C813 1.396 . S
H815 C810 0.929 . S
O816 Mn792 2.385 1_545 S
O816 C794 1.234 . S
O817 Mn792 2.209 1_554 S
O817 Mn793 2.215 1_564 S
O817 C794 1.283 1_564 S
O818 Mn792 2.094 . S
O818 C796 1.240 1_565 S
O819 Mn793 2.117 . S
O819 C796 1.264 . S
C820 C813 1.403 . S
C820 C821 1.399 . S
C820 H826 0.929 . S
C821 C801 1.449 . S
C821 C820 1.399 . S
C821 H827 0.930 . S
H822 C802 0.931 . S
H823 C803 0.930 1_565 S
H824 C811 0.931 . S
H825 C812 0.929 . S
H826 C820 0.929 . S
H827 C821 0.930 . S
Mn828 O833 2.095 . S
Mn828 O843 2.162 . S
Mn828 O844 2.297 . S
Mn828 O852 2.385 1_545 S
Mn828 O853 2.209 . S
Mn828 O854 2.094 . S
Mn829 O834 2.121 1_565 S
Mn829 N836 2.257 . S
Mn829 N845 2.282 . S
Mn829 O853 2.215 1_565 S
Mn829 O855 2.117 . S
C830 O852 1.234 . S
C830 O853 1.283 1_565 S
C831 O843 1.281 . S
C831 O844 1.236 . S
C832 O854 1.240 1_565 S
C832 O855 1.264 . S
O833 Mn828 2.095 . S
O833 C842 1.250 . S
O834 Mn829 2.121 1_545 S
O834 C842 1.258 . S
C835 N836 1.326 1_545 S
C835 C839 1.460 1_545 S
C835 H841 0.929 . S
N836 Mn829 2.257 . S
N836 C835 1.326 1_565 S
N836 C840 1.362 . S
C837 C838 1.258 . S
C837 C840 1.431 . S
C837 C857 1.449 . S
C838 C837 1.258 . S
C838 C839 1.477 . S
C838 H858 0.931 . S
C839 C835 1.460 1_565 S
C839 C838 1.477 . S
C839 H859 0.930 1_565 S
C840 N836 1.362 . S
C840 C837 1.431 . S
C840 C850 1.476 . S
H841 C835 0.929 . S
C842 O833 1.250 . S
C842 O834 1.258 . S
O843 Mn828 2.162 . S
O843 C831 1.281 . S
O844 Mn828 2.297 . S
O844 C831 1.236 . S
N845 Mn829 2.282 . S
N845 C846 1.328 . S
N845 C850 1.318 . S
C846 N845 1.328 . S
C846 C847 1.457 . S
C846 H851 0.929 . S
C847 C846 1.457 . S
C847 C848 1.291 . S
C847 H860 0.931 . S
C848 C847 1.291 . S
C848 C849 1.373 . S
C848 H861 0.929 . S
C849 C848 1.373 . S
C849 C850 1.396 . S
C849 C856 1.403 . S
C850 C840 1.476 . S
C850 N845 1.318 . S
C850 C849 1.396 . S
H851 C846 0.929 . S
O852 Mn828 2.385 1_565 S
O852 C830 1.234 . S
O853 Mn828 2.209 . S
O853 Mn829 2.215 1_545 S
O853 C830 1.283 1_545 S
O854 Mn828 2.094 . S
O854 C832 1.240 1_545 S
O855 Mn829 2.117 . S
O855 C832 1.264 . S
C856 C849 1.403 . S
C856 C857 1.399 . S
C856 H862 0.929 . S
C857 C837 1.449 . S
C857 C856 1.399 . S
C857 H863 0.930 . S
H858 C838 0.931 . S
H859 C839 0.930 1_545 S
H860 C847 0.931 . S
H861 C848 0.929 . S
H862 C856 0.929 . S
H863 C857 0.930 . S
C328 C4 1.590 . S
C40 C364 1.590 . S
C76 C400 1.590 . S
C112 C292 1.590 . S
C148 C544 1.590 . S
C436 C184 1.590 . S
C220 C472 1.590 . S
C508 C256 1.590 . S
C580 C652 1.590 . S
C796 C616 1.590 . S
C688 C832 1.590 . S
C760 C724 1.590 . S
C734 C14 1.675 . S
C50 C626 1.675 1_565 S
C86 C662 1.675 1_556 S
C122 C698 1.675 1_545 S
C158 C842 1.675 . S
C770 C194 1.675 . S
C806 C230 1.675 1_556 S
C590 C266 1.675 . S
C554 C302 1.675 . S
C338 C446 1.675 1_455 S
C482 C374 1.675 1_655 S
C518 C410 1.675 . S
C3 C578 1.757 . S
C830 C39 1.757 . S
C758 C75 1.757 . S
C111 C794 1.757 1_554 S
C147 C614 1.757 . S
C650 C183 1.757 1_554 S
C686 C219 1.757 . S
C722 C255 1.757 . S
C2 C291 1.757 . S
C38 C327 1.757 1_565 S
C74 C363 1.757 . S
C110 C399 1.757 1_545 S
C146 C435 1.757 . S
C182 C471 1.757 . S
C507 C218 1.757 . S
C254 C543 1.757 . S
C290 C579 1.757 . S
C615 C434 1.757 . S
C470 C651 1.757 1_655 S
C687 C506 1.757 . S
C723 C542 1.757 . S
C759 C362 1.757 . S
C398 C795 1.757 . S
C831 C326 1.757 1_655 S
