# Generated by pormake.
# Topology wgl, (5)-cn, num edge types: 1
# Building blocks:
#     Node 0, Type 0, BuildingBlock: XOMCOT_clean_sbu_1, # of connection points: 5
#     Node 1, Type 0, BuildingBlock: XOMCOT_clean_sbu_1, # of connection points: 5
#     Node 2, Type 0, BuildingBlock: XOMCOT_clean_sbu_1, # of connection points: 5
#     Node 3, Type 0, BuildingBlock: XOMCOT_clean_sbu_1, # of connection points: 5
#     Node 4, Type 0, BuildingBlock: XOMCOT_clean_sbu_1, # of connection points: 5
#     Node 5, Type 0, BuildingBlock: XOMCOT_clean_sbu_1, # of connection points: 5
#     Node 6, Type 0, BuildingBlock: XOMCOT_clean_sbu_1, # of connection points: 5
#     Node 7, Type 0, BuildingBlock: XOMCOT_clean_sbu_1, # of connection points: 5
#     Node 8, Type 0, BuildingBlock: XOMCOT_clean_sbu_1, # of connection points: 5
#     Node 9, Type 0, BuildingBlock: XOMCOT_clean_sbu_1, # of connection points: 5
#     Node 10, Type 0, BuildingBlock: XOMCOT_clean_sbu_1, # of connection points: 5
#     Node 11, Type 0, BuildingBlock: XOMCOT_clean_sbu_1, # of connection points: 5
#     Node 12, Type 0, BuildingBlock: XOMCOT_clean_sbu_1, # of connection points: 5
#     Node 13, Type 0, BuildingBlock: XOMCOT_clean_sbu_1, # of connection points: 5
#     Node 14, Type 0, BuildingBlock: XOMCOT_clean_sbu_1, # of connection points: 5
#     Node 15, Type 0, BuildingBlock: XOMCOT_clean_sbu_1, # of connection points: 5
#     Node 16, Type 0, BuildingBlock: XOMCOT_clean_sbu_1, # of connection points: 5
#     Node 17, Type 0, BuildingBlock: XOMCOT_clean_sbu_1, # of connection points: 5
#     Node 18, Type 0, BuildingBlock: XOMCOT_clean_sbu_1, # of connection points: 5
#     Node 19, Type 0, BuildingBlock: XOMCOT_clean_sbu_1, # of connection points: 5
#     Node 20, Type 0, BuildingBlock: XOMCOT_clean_sbu_1, # of connection points: 5
#     Node 21, Type 0, BuildingBlock: XOMCOT_clean_sbu_1, # of connection points: 5
#     Node 22, Type 0, BuildingBlock: XOMCOT_clean_sbu_1, # of connection points: 5
#     Node 23, Type 0, BuildingBlock: XOMCOT_clean_sbu_1, # of connection points: 5
#     Node 24, Type 0, BuildingBlock: XOMCOT_clean_sbu_1, # of connection points: 5
#     Node 25, Type 0, BuildingBlock: XOMCOT_clean_sbu_1, # of connection points: 5
#     Node 26, Type 0, BuildingBlock: XOMCOT_clean_sbu_1, # of connection points: 5
#     Node 27, Type 0, BuildingBlock: XOMCOT_clean_sbu_1, # of connection points: 5
#     Node 28, Type 0, BuildingBlock: XOMCOT_clean_sbu_1, # of connection points: 5
#     Node 29, Type 0, BuildingBlock: XOMCOT_clean_sbu_1, # of connection points: 5
#     Node 30, Type 0, BuildingBlock: XOMCOT_clean_sbu_1, # of connection points: 5
#     Node 31, Type 0, BuildingBlock: XOMCOT_clean_sbu_1, # of connection points: 5
#     Edge 32, Type (0, 0), BuildingBlock: UVAHIK_clean_linker_0, # of connection points: 2
#     Edge 33, Type (0, 0), BuildingBlock: UVAHIK_clean_linker_0, # of connection points: 2
#     Edge 34, Type (0, 0), BuildingBlock: UVAHIK_clean_linker_0, # of connection points: 2
#     Edge 35, Type (0, 0), BuildingBlock: UVAHIK_clean_linker_0, # of connection points: 2
#     Edge 36, Type (0, 0), BuildingBlock: UVAHIK_clean_linker_0, # of connection points: 2
#     Edge 37, Type (0, 0), BuildingBlock: UVAHIK_clean_linker_0, # of connection points: 2
#     Edge 38, Type (0, 0), BuildingBlock: UVAHIK_clean_linker_0, # of connection points: 2
#     Edge 39, Type (0, 0), BuildingBlock: UVAHIK_clean_linker_0, # of connection points: 2
#     Edge 40, Type (0, 0), BuildingBlock: UVAHIK_clean_linker_0, # of connection points: 2
#     Edge 41, Type (0, 0), BuildingBlock: UVAHIK_clean_linker_0, # of connection points: 2
#     Edge 42, Type (0, 0), BuildingBlock: UVAHIK_clean_linker_0, # of connection points: 2
#     Edge 43, Type (0, 0), BuildingBlock: UVAHIK_clean_linker_0, # of connection points: 2
#     Edge 44, Type (0, 0), BuildingBlock: UVAHIK_clean_linker_0, # of connection points: 2
#     Edge 45, Type (0, 0), BuildingBlock: UVAHIK_clean_linker_0, # of connection points: 2
#     Edge 46, Type (0, 0), BuildingBlock: UVAHIK_clean_linker_0, # of connection points: 2
#     Edge 47, Type (0, 0), BuildingBlock: UVAHIK_clean_linker_0, # of connection points: 2
#     Edge 48, Type (0, 0), BuildingBlock: UVAHIK_clean_linker_0, # of connection points: 2
#     Edge 49, Type (0, 0), BuildingBlock: UVAHIK_clean_linker_0, # of connection points: 2
#     Edge 50, Type (0, 0), BuildingBlock: UVAHIK_clean_linker_0, # of connection points: 2
#     Edge 51, Type (0, 0), BuildingBlock: UVAHIK_clean_linker_0, # of connection points: 2
#     Edge 52, Type (0, 0), BuildingBlock: UVAHIK_clean_linker_0, # of connection points: 2
#     Edge 53, Type (0, 0), BuildingBlock: UVAHIK_clean_linker_0, # of connection points: 2
#     Edge 54, Type (0, 0), BuildingBlock: UVAHIK_clean_linker_0, # of connection points: 2
#     Edge 55, Type (0, 0), BuildingBlock: UVAHIK_clean_linker_0, # of connection points: 2
#     Edge 56, Type (0, 0), BuildingBlock: UVAHIK_clean_linker_0, # of connection points: 2
#     Edge 57, Type (0, 0), BuildingBlock: UVAHIK_clean_linker_0, # of connection points: 2
#     Edge 58, Type (0, 0), BuildingBlock: UVAHIK_clean_linker_0, # of connection points: 2
#     Edge 59, Type (0, 0), BuildingBlock: UVAHIK_clean_linker_0, # of connection points: 2
#     Edge 60, Type (0, 0), BuildingBlock: UVAHIK_clean_linker_0, # of connection points: 2
#     Edge 61, Type (0, 0), BuildingBlock: UVAHIK_clean_linker_0, # of connection points: 2
#     Edge 62, Type (0, 0), BuildingBlock: UVAHIK_clean_linker_0, # of connection points: 2
#     Edge 63, Type (0, 0), BuildingBlock: UVAHIK_clean_linker_0, # of connection points: 2
#     Edge 64, Type (0, 0), BuildingBlock: UVAHIK_clean_linker_0, # of connection points: 2
#     Edge 65, Type (0, 0), BuildingBlock: UVAHIK_clean_linker_0, # of connection points: 2
#     Edge 66, Type (0, 0), BuildingBlock: UVAHIK_clean_linker_0, # of connection points: 2
#     Edge 67, Type (0, 0), BuildingBlock: UVAHIK_clean_linker_0, # of connection points: 2
#     Edge 68, Type (0, 0), BuildingBlock: UVAHIK_clean_linker_0, # of connection points: 2
#     Edge 69, Type (0, 0), BuildingBlock: UVAHIK_clean_linker_0, # of connection points: 2
#     Edge 70, Type (0, 0), BuildingBlock: UVAHIK_clean_linker_0, # of connection points: 2
#     Edge 71, Type (0, 0), BuildingBlock: UVAHIK_clean_linker_0, # of connection points: 2
#     Edge 72, Type (0, 0), BuildingBlock: UVAHIK_clean_linker_0, # of connection points: 2
#     Edge 73, Type (0, 0), BuildingBlock: UVAHIK_clean_linker_0, # of connection points: 2
#     Edge 74, Type (0, 0), BuildingBlock: UVAHIK_clean_linker_0, # of connection points: 2
#     Edge 75, Type (0, 0), BuildingBlock: UVAHIK_clean_linker_0, # of connection points: 2
#     Edge 76, Type (0, 0), BuildingBlock: UVAHIK_clean_linker_0, # of connection points: 2
#     Edge 77, Type (0, 0), BuildingBlock: UVAHIK_clean_linker_0, # of connection points: 2
#     Edge 78, Type (0, 0), BuildingBlock: UVAHIK_clean_linker_0, # of connection points: 2
#     Edge 79, Type (0, 0), BuildingBlock: UVAHIK_clean_linker_0, # of connection points: 2
#     Edge 80, Type (0, 0), BuildingBlock: UVAHIK_clean_linker_0, # of connection points: 2
#     Edge 81, Type (0, 0), BuildingBlock: UVAHIK_clean_linker_0, # of connection points: 2
#     Edge 82, Type (0, 0), BuildingBlock: UVAHIK_clean_linker_0, # of connection points: 2
#     Edge 83, Type (0, 0), BuildingBlock: UVAHIK_clean_linker_0, # of connection points: 2
#     Edge 84, Type (0, 0), BuildingBlock: UVAHIK_clean_linker_0, # of connection points: 2
#     Edge 85, Type (0, 0), BuildingBlock: UVAHIK_clean_linker_0, # of connection points: 2
#     Edge 86, Type (0, 0), BuildingBlock: UVAHIK_clean_linker_0, # of connection points: 2
#     Edge 87, Type (0, 0), BuildingBlock: UVAHIK_clean_linker_0, # of connection points: 2
#     Edge 88, Type (0, 0), BuildingBlock: UVAHIK_clean_linker_0, # of connection points: 2
#     Edge 89, Type (0, 0), BuildingBlock: UVAHIK_clean_linker_0, # of connection points: 2
#     Edge 90, Type (0, 0), BuildingBlock: UVAHIK_clean_linker_0, # of connection points: 2
#     Edge 91, Type (0, 0), BuildingBlock: UVAHIK_clean_linker_0, # of connection points: 2
#     Edge 92, Type (0, 0), BuildingBlock: UVAHIK_clean_linker_0, # of connection points: 2
#     Edge 93, Type (0, 0), BuildingBlock: UVAHIK_clean_linker_0, # of connection points: 2
#     Edge 94, Type (0, 0), BuildingBlock: UVAHIK_clean_linker_0, # of connection points: 2
#     Edge 95, Type (0, 0), BuildingBlock: UVAHIK_clean_linker_0, # of connection points: 2
#     Edge 96, Type (0, 0), BuildingBlock: UVAHIK_clean_linker_0, # of connection points: 2
#     Edge 97, Type (0, 0), BuildingBlock: UVAHIK_clean_linker_0, # of connection points: 2
#     Edge 98, Type (0, 0), BuildingBlock: UVAHIK_clean_linker_0, # of connection points: 2
#     Edge 99, Type (0, 0), BuildingBlock: UVAHIK_clean_linker_0, # of connection points: 2
#     Edge 100, Type (0, 0), BuildingBlock: UVAHIK_clean_linker_0, # of connection points: 2
#     Edge 101, Type (0, 0), BuildingBlock: UVAHIK_clean_linker_0, # of connection points: 2
#     Edge 102, Type (0, 0), BuildingBlock: UVAHIK_clean_linker_0, # of connection points: 2
#     Edge 103, Type (0, 0), BuildingBlock: UVAHIK_clean_linker_0, # of connection points: 2
#     Edge 104, Type (0, 0), BuildingBlock: UVAHIK_clean_linker_0, # of connection points: 2
#     Edge 105, Type (0, 0), BuildingBlock: UVAHIK_clean_linker_0, # of connection points: 2
#     Edge 106, Type (0, 0), BuildingBlock: UVAHIK_clean_linker_0, # of connection points: 2
#     Edge 107, Type (0, 0), BuildingBlock: UVAHIK_clean_linker_0, # of connection points: 2
#     Edge 108, Type (0, 0), BuildingBlock: UVAHIK_clean_linker_0, # of connection points: 2
#     Edge 109, Type (0, 0), BuildingBlock: UVAHIK_clean_linker_0, # of connection points: 2
#     Edge 110, Type (0, 0), BuildingBlock: UVAHIK_clean_linker_0, # of connection points: 2
#     Edge 111, Type (0, 0), BuildingBlock: UVAHIK_clean_linker_0, # of connection points: 2
# Relax obj value: 0.054
# Max RMSD: 0.094
# Mean RMSD: 0.094
data_MOF--net-wgl--node1-XOMCOT_clean_sbu_1--edge1-UVAHIK_clean_linker_0
_symmetry_space_group_name_H-M    P1
_symmetry_Int_Tables_number       1
_symmetry_cell_setting            triclinic
loop_
_symmetry_equiv_pos_as_xyz
'x, y, z'
_cell_length_a     71.622228
_cell_length_b     71.697928
_cell_length_c     68.172982
_cell_angle_alpha  90.015281
_cell_angle_beta   90.024089
_cell_angle_gamma 90.02376
loop_
_atom_site_label
_atom_site_type_symbol
_atom_site_fract_x
_atom_site_fract_y
_atom_site_fract_z
_atom_type_partial_charge
C0 C 0.29222 0.36019 0.1673 0.0
C1 C 0.2793 0.37419 0.16976 0.0
N2 N 0.2641 0.37012 0.15889 0.0
N3 N 0.28527 0.34729 0.15491 0.0
C4 C 0.26811 0.35368 0.15005 0.0
H5 H 0.30588 0.35948 0.17403 0.0
Co6 Co 0.29762 0.32555 0.14723 0.0
C7 C 0.27494 0.31151 0.1144 0.0
O8 O 0.27351 0.29551 0.12368 0.0
N9 N 0.31016 0.30365 0.13928 0.0
C10 C 0.32553 0.28358 0.12039 0.0
C11 C 0.3187 0.30138 0.12178 0.0
C12 C 0.31206 0.28691 0.14829 0.0
N13 N 0.32125 0.27436 0.13701 0.0
O14 O 0.27945 0.31083 0.16154 0.0
H15 H 0.31957 0.31189 0.11046 0.0
H16 H 0.3063 0.28376 0.16255 0.0
O17 O 0.28346 0.32507 0.12263 0.0
C18 C 0.28523 0.31097 0.17931 0.0
O19 O 0.30063 0.32026 0.18316 0.0
N20 N 0.31645 0.34 0.13583 0.0
C21 C 0.34849 0.35874 0.1234 0.0
C22 C 0.33159 0.36058 0.11302 0.0
C23 C 0.31559 0.35105 0.11954 0.0
C24 C 0.33247 0.33876 0.14648 0.0
C25 C 0.34861 0.34791 0.14052 0.0
H26 H 0.30268 0.35243 0.11146 0.0
H27 H 0.33272 0.33032 0.15962 0.0
H28 H 0.25868 0.34631 0.14038 0.0
H29 H 0.28118 0.38661 0.17857 0.0
H30 H 0.33302 0.27792 0.10797 0.0
H31 H 0.33086 0.36895 0.09982 0.0
H32 H 0.36113 0.3465 0.14932 0.0
C33 C 0.89501 0.04005 0.41428 0.0
C34 C 0.88184 0.0266 0.4181 0.0
N35 N 0.88862 0.00999 0.41227 0.0
N36 N 0.91008 0.03214 0.40578 0.0
C37 C 0.90592 0.01369 0.40528 0.0
H38 H 0.89346 0.05468 0.41757 0.0
Co39 Co 0.93241 0.04424 0.39785 0.0
C40 C 0.92123 0.0224 0.36176 0.0
O41 O 0.90344 0.02432 0.366 0.0
N42 N 0.95454 0.05609 0.39036 0.0
C43 C 0.97639 0.06971 0.37218 0.0
C44 C 0.95921 0.06123 0.37195 0.0
C45 C 0.96921 0.06148 0.40153 0.0
N46 N 0.98269 0.06984 0.39078 0.0
O47 O 0.94679 0.02592 0.41225 0.0
H48 H 0.95075 0.05891 0.35906 0.0
H49 H 0.96994 0.05949 0.41725 0.0
O50 O 0.93359 0.0294 0.37323 0.0
C51 C 0.9457 0.03006 0.43048 0.0
O52 O 0.93518 0.04428 0.43557 0.0
N53 N 0.91873 0.06387 0.38608 0.0
C54 C 0.9002 0.0969 0.37604 0.0
C55 C 0.90363 0.08311 0.36187 0.0
C56 C 0.91305 0.06671 0.36714 0.0
C57 C 0.91627 0.07757 0.39969 0.0
C58 C 0.90683 0.09399 0.39512 0.0
H59 H 0.91618 0.05687 0.35573 0.0
H60 H 0.92161 0.07558 0.41439 0.0
H61 H 0.91529 1.00322 0.39948 0.0
H62 H 0.86807 0.02901 0.4241 0.0
H63 H 0.98384 0.07504 0.35956 0.0
H64 H 0.8991 0.08498 0.34684 0.0
H65 H 0.90506 0.10448 0.4064 0.0
C66 C 0.22536 0.64521 0.66351 0.0
C67 C 0.23899 0.63188 0.6654 0.0
N68 N 0.25342 0.63655 0.6537 0.0
N69 N 0.23104 0.6583 0.65065 0.0
C70 C 0.24821 0.65266 0.64488 0.0
H71 H 0.21211 0.64536 0.6711 0.0
Co72 Co 0.21693 0.67931 0.64405 0.0
C73 C 0.23646 0.69564 0.61037 0.0
O74 O 0.23616 0.71174 0.61959 0.0
N75 N 0.20243 0.70031 0.63752 0.0
C76 C 0.18404 0.71965 0.6209 0.0
C77 C 0.19306 0.70278 0.62052 0.0
C78 C 0.19888 0.71595 0.64801 0.0
N79 N 0.18772 0.72795 0.63818 0.0
O80 O 0.23478 0.69503 0.65733 0.0
H81 H 0.19301 0.69306 0.6084 0.0
H82 H 0.20422 0.71851 0.6626 0.0
O83 O 0.22989 0.68114 0.61878 0.0
C84 C 0.23107 0.6939 0.67564 0.0
O85 O 0.21717 0.68312 0.68109 0.0
N86 N 0.19858 0.66382 0.63353 0.0
C87 C 0.16785 0.64183 0.62409 0.0
C88 C 0.18273 0.64373 0.6108 0.0
C89 C 0.19826 0.65464 0.61596 0.0
C90 C 0.18424 0.6621 0.64647 0.0
C91 C 0.16881 0.65109 0.64212 0.0
H92 H 0.2098 0.65583 0.60584 0.0
H93 H 0.18484 0.66942 0.66033 0.0
H94 H 0.25681 0.66034 0.63464 0.0
H95 H 0.23815 0.61951 0.67446 0.0
H96 H 0.17574 0.72554 0.60916 0.0
H97 H 0.18239 0.63675 0.59671 0.0
H98 H 0.15751 0.65015 0.65264 0.0
C99 C 0.60457 0.97865 0.92295 0.0
C100 C 0.61797 0.99218 0.92456 0.0
N101 N 0.62026 1.00027 0.90688 0.0
N102 N 0.59816 0.97813 0.90441 0.0
C103 C 0.60797 0.99148 0.89484 0.0
H104 H 0.5998 0.96964 0.93463 0.0
Co105 Co 0.57998 0.96085 0.89749 0.0
C106 C 0.5722 0.96488 0.85493 0.0
O107 O 0.57003 0.9467 0.85458 0.0
N108 N 0.56114 0.94293 0.89157 0.0
C109 C 0.54476 0.91679 0.88726 0.0
C110 C 0.56227 0.92412 0.89018 0.0
C111 C 0.54267 0.94655 0.88944 0.0
N112 N 0.53244 0.93092 0.88697 0.0
O113 O 0.56133 0.97643 0.91004 0.0
H114 H 0.57481 0.91593 0.89143 0.0
H115 H 0.53674 0.96042 0.88988 0.0
O116 O 0.57626 0.973 0.87122 0.0
C117 C 0.55793 0.96907 0.92678 0.0
O118 O 0.56665 0.95352 0.93131 0.0
N119 N 0.59899 0.94502 0.8882 0.0
C120 C 0.62582 0.9175 0.88163 0.0
C121 C 0.62167 0.93069 0.86703 0.0
C122 C 0.60856 0.94478 0.87085 0.0
C123 C 0.60409 0.93332 0.903 0.0
C124 C 0.61723 0.91933 0.89998 0.0
H125 H 0.60632 0.95533 0.85986 0.0
H126 H 0.59716 0.93432 0.91705 0.0
H127 H 0.60636 0.99446 0.87938 0.0
H128 H 0.62526 0.99588 0.9379 0.0
H129 H 0.54128 0.90213 0.88622 0.0
H130 H 0.62856 0.93017 0.85291 0.0
H131 H 0.62005 0.90958 0.91175 0.0
C132 C 0.28756 0.6493 0.34588 0.0
C133 C 0.27382 0.63603 0.3442 0.0
N134 N 0.26118 0.63893 0.35848 0.0
N135 N 0.28361 0.66071 0.36104 0.0
C136 C 0.26745 0.65395 0.36856 0.0
H137 H 0.2998 0.65045 0.33668 0.0
Co138 Co 0.29871 0.68093 0.36828 0.0
C139 C 0.27942 0.69791 0.40188 0.0
O140 O 0.28085 0.71417 0.39312 0.0
N141 N 0.31423 0.7011 0.37545 0.0
C142 C 0.33328 0.71922 0.39284 0.0
C143 C 0.32328 0.70291 0.39275 0.0
C144 C 0.31899 0.71663 0.36527 0.0
N145 N 0.33057 0.72788 0.37556 0.0
O146 O 0.28196 0.69776 0.35465 0.0
H147 H 0.32239 0.69317 0.4048 0.0
H148 H 0.3142 0.71965 0.35058 0.0
O149 O 0.28529 0.68326 0.39321 0.0
C150 C 0.28644 0.69725 0.33649 0.0
O151 O 0.30062 0.68675 0.3313 0.0
N152 N 0.31591 0.66433 0.37917 0.0
C153 C 0.34557 0.64127 0.3896 0.0
C154 C 0.33093 0.64457 0.40285 0.0
C155 C 0.31592 0.65598 0.3972 0.0
C156 C 0.32997 0.66113 0.36619 0.0
C157 C 0.34485 0.64956 0.37103 0.0
H158 H 0.30464 0.65835 0.4074 0.0
H159 H 0.32966 0.66784 0.35199 0.0
H160 H 0.26033 0.65996 0.38104 0.0
H161 H 0.27339 0.62482 0.33357 0.0
H162 H 0.34155 0.72455 0.4049 0.0
H163 H 0.33106 0.63832 0.41731 0.0
H164 H 0.35596 0.64747 0.36048 0.0
C165 C 0.60765 0.02958 0.5993 0.0
C166 C 0.62173 0.01683 0.60137 0.0
N167 N 0.62273 0.0118 0.62037 0.0
N168 N 0.59954 0.03264 0.61684 0.0
C169 C 0.60904 0.02155 0.6295 0.0
H170 H 0.60391 0.03655 0.58583 0.0
Co171 Co 0.58082 0.05055 0.61973 0.0
C172 C 0.56532 0.04685 0.6606 0.0
O173 O 0.55976 0.06429 0.65982 0.0
N174 N 0.56188 0.0689 0.62145 0.0
C175 C 0.54613 0.0956 0.6192 0.0
C176 C 0.56356 0.08762 0.61977 0.0
C177 C 0.54318 0.06593 0.62177 0.0
N178 N 0.53332 0.08193 0.62041 0.0
O179 O 0.56353 0.03457 0.60561 0.0
H180 H 0.57651 0.09519 0.61847 0.0
H181 H 0.53689 0.05222 0.62243 0.0
O182 O 0.57372 0.03968 0.64574 0.0
C183 C 0.5632 0.04028 0.58782 0.0
O184 O 0.57363 0.05472 0.58318 0.0
N185 N 0.59852 0.06687 0.63091 0.0
C186 C 0.62265 0.09625 0.63999 0.0
C187 C 0.6145 0.0855 0.65493 0.0
C188 C 0.6027 0.07059 0.65008 0.0
C189 C 0.60762 0.07613 0.6163 0.0
C190 C 0.61962 0.09092 0.62047 0.0
H191 H 0.59693 0.06246 0.66184 0.0
H192 H 0.60458 0.07273 0.60118 0.0
H193 H 0.60647 0.02116 0.64514 0.0
H194 H 0.63067 0.01175 0.58974 0.0
H195 H 0.54313 0.11033 0.61779 0.0
H196 H 0.61698 0.08877 0.67022 0.0
H197 H 0.62561 0.09875 0.60843 0.0
C198 C 0.23224 0.35157 0.84659 0.0
C199 C 0.24656 0.36416 0.8448 0.0
N200 N 0.25317 0.368 0.86285 0.0
N201 N 0.2298 0.34731 0.86567 0.0
C202 C 0.24267 0.35769 0.87532 0.0
H203 H 0.22411 0.34583 0.83468 0.0
Co204 Co 0.21228 0.32972 0.87385 0.0
C205 C 0.23691 0.31396 0.90554 0.0
O206 O 0.24259 0.3 0.8946 0.0
N207 N 0.19449 0.31175 0.88149 0.0
C208 C 0.16755 0.29671 0.88541 0.0
C209 C 0.17574 0.31375 0.88193 0.0
C210 C 0.19729 0.29331 0.88451 0.0
N211 N 0.18115 0.28383 0.88682 0.0
O212 O 0.22611 0.31077 0.85992 0.0
H213 H 0.16834 0.32656 0.87886 0.0
H214 H 0.21085 0.28674 0.88403 0.0
O215 O 0.22574 0.32607 0.89847 0.0
C216 C 0.21761 0.30693 0.84394 0.0
O217 O 0.20169 0.31542 0.84036 0.0
N218 N 0.19791 0.34858 0.88542 0.0
C219 C 0.16908 0.37236 0.89689 0.0
C220 C 0.17827 0.36108 0.91073 0.0
C221 C 0.19273 0.34925 0.90469 0.0
C222 C 0.18987 0.36017 0.87204 0.0
C223 C 0.17553 0.37225 0.87747 0.0
H224 H 0.19868 0.33968 0.91521 0.0
H225 H 0.19369 0.35909 0.85674 0.0
H226 H 0.24455 0.35744 0.89107 0.0
H227 H 0.2516 0.37021 0.83125 0.0
H228 H 0.15271 0.29384 0.88559 0.0
H229 H 0.17376 0.36077 0.92588 0.0
H230 H 0.16868 0.38042 0.86621 0.0
C231 C 0.90333 0.98333 0.09855 0.0
C232 C 0.89055 0.99758 0.09902 0.0
N233 N 0.88846 1.00317 0.11777 0.0
N234 N 0.90939 0.97985 0.11688 0.0
C235 C 0.89999 0.99208 0.12836 0.0
H236 H 0.90782 0.97584 0.08563 0.0
Co237 Co 0.92705 0.96151 0.12251 0.0
C238 C 0.94473 0.98382 0.1553 0.0
O239 O 0.95871 0.98999 0.14466 0.0
N240 N 0.94493 0.94289 0.12767 0.0
C241 C 0.95902 0.91527 0.12787 0.0
C242 C 0.94218 0.9243 0.12644 0.0
C243 C 0.96364 0.94478 0.12978 0.0
N244 N 0.97258 0.92817 0.12973 0.0
O245 O 0.94561 0.97577 0.10832 0.0
H246 H 0.92893 0.91763 0.12359 0.0
H247 H 0.97072 0.9581 0.12978 0.0
O248 O 0.93241 0.97327 0.14759 0.0
C249 C 0.94804 0.96811 0.09157 0.0
O250 O 0.93842 0.95297 0.08752 0.0
N251 N 0.90851 0.94682 0.13427 0.0
C252 C 0.88491 0.9176 0.14536 0.0
C253 C 0.89671 0.92625 0.15915 0.0
C254 C 0.90854 0.94078 0.15327 0.0
C255 C 0.89633 0.93944 0.12103 0.0
C256 C 0.88444 0.92486 0.12623 0.0
H257 H 0.9186 0.94612 0.16365 0.0
H258 H 0.89687 0.94393 0.1059 0.0
H259 H 0.9017 0.99296 0.1441 0.0
H260 H 0.88313 1.00314 0.08649 0.0
H261 H 0.96112 0.90036 0.12682 0.0
H262 H 0.89746 0.9213 0.17413 0.0
H263 H 0.87595 0.91853 0.1149 0.0
C264 C 0.72169 0.64699 0.85127 0.0
C265 C 0.73464 0.63304 0.84864 0.0
N266 N 0.74914 0.63617 0.86084 0.0
N267 N 0.72789 0.65889 0.86513 0.0
C268 C 0.74469 0.652 0.8706 0.0
H269 H 0.70844 0.64828 0.84376 0.0
Co270 Co 0.71541 0.68031 0.87403 0.0
C271 C 0.72632 0.67413 0.91682 0.0
O272 O 0.71027 0.66647 0.92123 0.0
N273 N 0.70343 0.70233 0.88305 0.0
C274 C 0.68987 0.72313 0.90268 0.0
C275 C 0.69534 0.70492 0.90076 0.0
C276 C 0.70231 0.7193 0.87432 0.0
N277 N 0.69432 0.73218 0.88609 0.0
O278 O 0.73423 0.69553 0.86152 0.0
H279 H 0.69331 0.6943 0.91171 0.0
H280 H 0.70778 0.7224 0.85991 0.0
O281 O 0.72973 0.67986 0.89932 0.0
C282 C 0.72988 0.69575 0.8433 0.0
O283 O 0.71494 0.68652 0.83771 0.0
N284 N 0.69537 0.66509 0.88328 0.0
C285 C 0.66352 0.64372 0.89111 0.0
C286 C 0.68137 0.63655 0.89491 0.0
C287 C 0.69716 0.64737 0.89059 0.0
C288 C 0.67809 0.6714 0.87799 0.0
C289 C 0.66204 0.66125 0.88229 0.0
H290 H 0.71084 0.64158 0.89341 0.0
H291 H 0.67658 0.68433 0.87 0.0
H292 H 0.75355 0.65857 0.88144 0.0
H293 H 0.73322 0.62126 0.83882 0.0
H294 H 0.68311 0.72928 0.91533 0.0
H295 H 0.6831 0.62282 0.90126 0.0
H296 H 0.64856 0.6669 0.8782 0.0
C297 C 0.11097 0.97646 0.60136 0.0
C298 C 0.12346 0.99092 0.60064 0.0
N299 N 0.12093 1.00162 0.61663 0.0
N300 N 0.10043 0.97798 0.61766 0.0
C301 C 0.10694 0.99343 0.62685 0.0
H302 H 0.10951 0.96559 0.59048 0.0
Co303 Co 0.08074 0.96151 0.62221 0.0
C304 C 0.07032 0.96446 0.66445 0.0
O305 O 0.06651 0.94656 0.6638 0.0
N306 N 0.06049 0.94461 0.62576 0.0
C307 C 0.04259 0.91942 0.62974 0.0
C308 C 0.06048 0.92574 0.62709 0.0
C309 C 0.04217 0.94925 0.62732 0.0
N310 N 0.03111 0.93421 0.62982 0.0
O311 O 0.06384 0.9787 0.60931 0.0
H312 H 0.07253 0.9168 0.62662 0.0
H313 H 0.03703 0.96344 0.62713 0.0
O314 O 0.07614 0.9727 0.64883 0.0
C315 C 0.06352 0.97381 0.59126 0.0
O316 O 0.07368 0.95942 0.58595 0.0
N317 N 0.09807 0.94403 0.63202 0.0
C318 C 0.11977 0.91282 0.64052 0.0
C319 C 0.1168 0.92661 0.65482 0.0
C320 C 0.10615 0.94243 0.65012 0.0
C321 C 0.10309 0.9321 0.61738 0.0
C322 C 0.11364 0.91625 0.62135 0.0
H323 H 0.10419 0.95299 0.66117 0.0
H324 H 0.09755 0.93412 0.60278 0.0
H325 H 0.10124 0.99889 0.64039 0.0
H326 H 0.13371 0.99338 0.58926 0.0
H327 H 0.0383 0.90502 0.63135 0.0
H328 H 0.12193 0.92481 0.66965 0.0
H329 H 0.11625 0.90633 0.60968 0.0
C330 C 0.78728 0.36265 0.35699 0.0
C331 C 0.7745 0.37689 0.358 0.0
N332 N 0.7617 0.37253 0.37171 0.0
N333 N 0.7827 0.34931 0.37007 0.0
C334 C 0.76689 0.35565 0.37874 0.0
H335 H 0.79952 0.36231 0.34772 0.0
Co336 Co 0.79778 0.3285 0.37523 0.0
C337 C 0.78021 0.31136 0.40976 0.0
O338 O 0.78003 0.29539 0.4003 0.0
N339 N 0.81321 0.30782 0.38052 0.0
C340 C 0.83315 0.2891 0.39593 0.0
C341 C 0.82349 0.30558 0.39697 0.0
C342 C 0.81682 0.29237 0.36971 0.0
N343 N 0.82895 0.28077 0.3788 0.0
O344 O 0.7797 0.31238 0.36266 0.0
H345 H 0.82378 0.31522 0.40916 0.0
H346 H 0.81083 0.28968 0.35543 0.0
O347 O 0.78641 0.32594 0.4012 0.0
C348 C 0.78257 0.31386 0.3442 0.0
O349 O 0.79571 0.32533 0.33825 0.0
N350 N 0.81627 0.34436 0.38484 0.0
C351 C 0.8468 0.36738 0.39223 0.0
C352 C 0.83259 0.36534 0.4063 0.0
C353 C 0.81716 0.35386 0.40218 0.0
C354 C 0.82997 0.34618 0.37117 0.0
C355 C 0.8453 0.35761 0.37452 0.0
H356 H 0.80607 0.35261 0.41285 0.0
H357 H 0.82891 0.33862 0.35748 0.0
H358 H 0.75979 0.3485 0.39056 0.0
H359 H 0.77478 0.38965 0.34952 0.0
H360 H 0.84221 0.28345 0.40717 0.0
H361 H 0.8333 0.37272 0.42014 0.0
H362 H 0.85605 0.35858 0.36339 0.0
C363 C 0.40631 0.02442 0.09614 0.0
C364 C 0.39357 0.01015 0.09605 0.0
N365 N 0.39092 1.00442 0.11467 0.0
N366 N 0.41183 0.02777 0.11469 0.0
C367 C 0.4021 0.01545 0.12575 0.0
H368 H 0.41113 0.03204 0.08343 0.0
Co369 Co 0.42929 0.04617 0.12077 0.0
C370 C 0.44724 0.02318 0.15313 0.0
O371 O 0.46152 0.01722 0.1428 0.0
N372 N 0.44695 0.06482 0.12625 0.0
C373 C 0.46074 0.09257 0.12643 0.0
C374 C 0.44404 0.08334 0.12456 0.0
C375 C 0.46558 0.06314 0.12901 0.0
N376 N 0.47436 0.07984 0.129 0.0
O377 O 0.44789 0.03261 0.10588 0.0
H378 H 0.43077 0.08974 0.12115 0.0
H379 H 0.47276 0.04989 0.12943 0.0
O380 O 0.43504 0.03371 0.14526 0.0
C381 C 0.45038 0.04074 0.08938 0.0
O382 O 0.44079 0.05598 0.08577 0.0
N383 N 0.4108 0.06017 0.13364 0.0
C384 C 0.38717 0.08832 0.14706 0.0
C385 C 0.40092 0.08077 0.15939 0.0
C386 C 0.41259 0.06661 0.15243 0.0
C387 C 0.39688 0.06664 0.12184 0.0
C388 C 0.38478 0.08059 0.12833 0.0
H389 H 0.42401 0.06203 0.16158 0.0
H390 H 0.39597 0.06191 0.10681 0.0
H391 H 0.40329 0.01449 0.14155 0.0
H392 H 0.38651 1.00468 0.08324 0.0
H393 H 0.46273 0.10748 0.12522 0.0
H394 H 0.40323 0.08642 0.17393 0.0
H395 H 0.37456 0.08622 0.11822 0.0
C396 C 0.73428 0.35899 0.67356 0.0
C397 C 0.74929 0.37079 0.67345 0.0
N398 N 0.75735 0.36991 0.65567 0.0
N399 N 0.73282 0.35045 0.65601 0.0
C400 C 0.74702 0.35758 0.6452 0.0
H401 H 0.72498 0.35673 0.6858 0.0
Co402 Co 0.71435 0.33249 0.65222 0.0
C403 C 0.71727 0.31791 0.61127 0.0
O404 O 0.69924 0.31464 0.61183 0.0
N405 N 0.69531 0.31414 0.64984 0.0
C406 C 0.66806 0.2992 0.65115 0.0
C407 C 0.6766 0.31635 0.6511 0.0
C408 C 0.69769 0.29537 0.64917 0.0
N409 N 0.68134 0.28599 0.65001 0.0
O410 O 0.72952 0.31465 0.66614 0.0
H411 H 0.66936 0.32946 0.65243 0.0
H412 H 0.71122 0.28867 0.64871 0.0
O413 O 0.72532 0.32526 0.62627 0.0
C414 C 0.72349 0.31429 0.68379 0.0
O415 O 0.70903 0.32477 0.68819 0.0
N416 N 0.69892 0.35091 0.64111 0.0
C417 C 0.6707 0.37615 0.63179 0.0
C418 C 0.68215 0.36868 0.61704 0.0
C419 C 0.69658 0.35639 0.62207 0.0
C420 C 0.68913 0.35947 0.65568 0.0
C421 C 0.67487 0.37201 0.65138 0.0
H422 H 0.70547 0.35126 0.61056 0.0
H423 H 0.69158 0.35553 0.67077 0.0
H424 H 0.74997 0.3536 0.6302 0.0
H425 H 0.75386 0.37954 0.68548 0.0
H426 H 0.65319 0.29666 0.65217 0.0
H427 H 0.67977 0.37208 0.60176 0.0
H428 H 0.66647 0.37749 0.66326 0.0
C429 C 0.3936 0.96888 0.41118 0.0
C430 C 0.37978 0.98171 0.41491 0.0
N431 N 0.38616 0.99876 0.41002 0.0
N432 N 0.40868 0.97767 0.40372 0.0
C433 C 0.40385 0.99595 0.40372 0.0
H434 H 0.39251 0.95404 0.41359 0.0
Co435 Co 0.43164 0.96693 0.39595 0.0
C436 C 0.41984 0.98876 0.35977 0.0
O437 O 0.40201 0.9872 0.36399 0.0
N438 N 0.45447 0.95648 0.38836 0.0
C439 C 0.47737 0.94649 0.36906 0.0
C440 C 0.45903 0.95189 0.36975 0.0
C441 C 0.47024 0.95338 0.39883 0.0
N442 N 0.48441 0.94747 0.38732 0.0
O443 O 0.44489 0.9861 0.41032 0.0
H444 H 0.44979 0.95293 0.35727 0.0
H445 H 0.47159 0.95617 0.41437 0.0
O446 O 0.43206 0.98167 0.37131 0.0
C447 C 0.44407 0.98171 0.4285 0.0
O448 O 0.43438 0.96685 0.4334 0.0
N449 N 0.41918 0.94651 0.38431 0.0
C450 C 0.40418 0.91173 0.37426 0.0
C451 C 0.40438 0.92643 0.36064 0.0
C452 C 0.41216 0.94371 0.36587 0.0
C453 C 0.41909 0.93233 0.3976 0.0
C454 C 0.41159 0.91495 0.39298 0.0
H455 H 0.41301 0.95429 0.35478 0.0
H456 H 0.42499 0.9346 0.41201 0.0
H457 H 0.413 0.00694 0.39861 0.0
H458 H 0.36584 0.97861 0.42009 0.0
H459 H 0.48509 0.94244 0.35608 0.0
H460 H 0.39914 0.92442 0.34589 0.0
H461 H 0.41159 0.90412 0.40405 0.0
C462 C 0.7823 0.64993 0.17376 0.0
C463 C 0.76773 0.63757 0.173 0.0
N464 N 0.75906 0.63956 0.15561 0.0
N465 N 0.78292 0.65986 0.15699 0.0
C466 C 0.76862 0.65309 0.14603 0.0
H467 H 0.79185 0.65163 0.1859 0.0
Co468 Co 0.80057 0.6788 0.1539 0.0
C469 C 0.79729 0.69379 0.11294 0.0
O470 O 0.81483 0.69897 0.11393 0.0
N471 N 0.81873 0.69812 0.15199 0.0
C472 C 0.84526 0.71431 0.14983 0.0
C473 C 0.83755 0.69677 0.15057 0.0
C474 C 0.81551 0.71678 0.15247 0.0
N475 N 0.83138 0.72686 0.15108 0.0
O476 O 0.7842 0.69576 0.16776 0.0
H477 H 0.84544 0.684 0.14992 0.0
H478 H 0.80175 0.72293 0.15332 0.0
O479 O 0.78974 0.68559 0.12773 0.0
C480 C 0.78967 0.69595 0.18563 0.0
O481 O 0.80419 0.68565 0.19029 0.0
N482 N 0.81712 0.66127 0.14293 0.0
C483 C 0.84615 0.63684 0.13369 0.0
C484 C 0.83455 0.64404 0.1189 0.0
C485 C 0.81977 0.65596 0.12388 0.0
C486 C 0.82737 0.65326 0.15752 0.0
C487 C 0.84198 0.64111 0.15325 0.0
H488 H 0.8108 0.66087 0.11233 0.0
H489 H 0.82481 0.65718 0.17259 0.0
H490 H 0.76502 0.65821 0.1316 0.0
H491 H 0.76388 0.62774 0.18435 0.0
H492 H 0.85997 0.7176 0.14871 0.0
H493 H 0.83697 0.64061 0.10364 0.0
H494 H 0.85054 0.63589 0.16515 0.0
C495 C 0.10188 0.02762 0.92651 0.0
C496 C 0.11538 0.01415 0.92713 0.0
N497 N 0.11931 0.00885 0.90862 0.0
N498 N 0.097 0.03085 0.90775 0.0
C499 C 0.10786 0.01918 0.89706 0.0
H500 H 0.09615 0.03484 0.93905 0.0
Co501 Co 0.07957 0.04925 0.90197 0.0
C502 C 0.0699 0.04665 0.85933 0.0
O503 O 0.06662 0.06466 0.85971 0.0
N504 N 0.06163 0.06827 0.89735 0.0
C505 C 0.04663 0.09549 0.89733 0.0
C506 C 0.06378 0.087 0.89842 0.0
C507 C 0.04294 0.06587 0.89537 0.0
N508 N 0.03351 0.08216 0.89559 0.0
O509 O 0.06026 0.03393 0.91385 0.0
H510 H 0.07678 0.09427 0.90059 0.0
H511 H 0.03626 0.05234 0.89486 0.0
O512 O 0.07523 0.03839 0.87514 0.0
C513 C 0.05697 0.04076 0.93086 0.0
O514 O 0.06629 0.05573 0.93621 0.0
N515 N 0.0991 0.06476 0.89335 0.0
C516 C 0.12515 0.0933 0.88816 0.0
C517 C 0.11958 0.0821 0.87226 0.0
C518 C 0.10678 0.06756 0.87524 0.0
C519 C 0.10578 0.07426 0.90917 0.0
C520 C 0.1186 0.08869 0.90692 0.0
H521 H 0.10307 0.05894 0.86293 0.0
H522 H 0.10009 0.07141 0.92355 0.0
H523 H 0.10774 0.01864 0.8812 0.0
H524 H 0.12175 0.00865 0.9403 0.0
H525 H 0.04399 0.11032 0.89833 0.0
H526 H 0.12486 0.08473 0.85764 0.0
H527 H 0.12245 0.09683 0.91968 0.0
C528 C 0.78803 0.86211 0.67884 0.0
C529 C 0.77597 0.87666 0.68221 0.0
N530 N 0.76221 0.87605 0.66869 0.0
N531 N 0.78201 0.85222 0.66328 0.0
C532 C 0.76617 0.86095 0.65748 0.0
H533 H 0.80059 0.85909 0.68704 0.0
Co534 Co 0.79431 0.83123 0.65301 0.0
C535 C 0.78278 0.83997 0.61089 0.0
O536 O 0.79827 0.84895 0.60712 0.0
N537 N 0.80613 0.80971 0.64269 0.0
C538 C 0.8191 0.7897 0.62177 0.0
C539 C 0.81327 0.80773 0.62445 0.0
C540 C 0.80819 0.79263 0.65094 0.0
N541 N 0.81585 0.78021 0.63841 0.0
O542 O 0.77548 0.8155 0.66479 0.0
H543 H 0.81433 0.81865 0.61366 0.0
H544 H 0.80366 0.78911 0.6656 0.0
O545 O 0.77987 0.83282 0.6279 0.0
C546 C 0.78033 0.81401 0.6828 0.0
O547 O 0.79587 0.82215 0.68845 0.0
N548 N 0.81442 0.84686 0.64455 0.0
C549 C 0.84608 0.86973 0.64112 0.0
C550 C 0.82825 0.87666 0.63673 0.0
C551 C 0.81258 0.86514 0.63898 0.0
C552 C 0.8317 0.84023 0.64939 0.0
C553 C 0.84763 0.85117 0.64731 0.0
H554 H 0.79892 0.87107 0.63645 0.0
H555 H 0.83329 0.82656 0.65582 0.0
H556 H 0.75801 0.85658 0.64495 0.0
H557 H 0.77735 0.88687 0.6938 0.0
H558 H 0.8253 0.78397 0.60859 0.0
H559 H 0.82633 0.89107 0.63242 0.0
H560 H 0.86106 0.84521 0.65105 0.0
C561 C 0.40199 0.5321 0.9204 0.0
C562 C 0.38829 0.51884 0.92011 0.0
N563 N 0.38731 0.51159 0.90191 0.0
N564 N 0.40997 0.53328 0.90257 0.0
C565 C 0.40074 0.52055 0.89148 0.0
H566 H 0.40565 0.54062 0.93288 0.0
Co567 Co 0.42846 0.55108 0.89817 0.0
C568 C 0.44204 0.54718 0.85687 0.0
O569 O 0.44606 0.56504 0.85724 0.0
N570 N 0.44729 0.56953 0.89507 0.0
C571 C 0.46273 0.5965 0.89457 0.0
C572 C 0.44541 0.5883 0.89465 0.0
C573 C 0.46603 0.56679 0.89517 0.0
N574 N 0.47572 0.58296 0.89504 0.0
O575 O 0.44616 0.5356 0.91218 0.0
H576 H 0.43242 0.59587 0.89477 0.0
H577 H 0.47249 0.55318 0.89603 0.0
O578 O 0.43491 0.5395 0.8722 0.0
C579 C 0.4469 0.54184 0.92976 0.0
O580 O 0.43698 0.5567 0.93408 0.0
N581 N 0.41023 0.56681 0.88715 0.0
C582 C 0.38489 0.59499 0.8779 0.0
C583 C 0.39185 0.58314 0.86322 0.0
C584 C 0.40421 0.56875 0.86823 0.0
C585 C 0.40226 0.5771 0.90172 0.0
C586 C 0.38969 0.59135 0.89744 0.0
H587 H 0.40886 0.55951 0.85681 0.0
H588 H 0.4066 0.57494 0.91674 0.0
H589 H 0.40343 0.51828 0.87604 0.0
H590 H 0.37973 0.51483 0.93249 0.0
H591 H 0.4655 0.61134 0.89441 0.0
H592 H 0.38794 0.5851 0.84802 0.0
H593 H 0.38462 0.60007 0.90926 0.0
C594 C 0.72003 0.14864 0.1755 0.0
C595 C 0.73273 0.13442 0.17784 0.0
N596 N 0.74687 0.13705 0.16508 0.0
N597 N 0.72603 0.16021 0.16125 0.0
C598 C 0.74248 0.15288 0.15529 0.0
H599 H 0.70702 0.15026 0.18336 0.0
Co600 Co 0.71348 0.18148 0.15214 0.0
C601 C 0.7245 0.17446 0.10945 0.0
O602 O 0.70873 0.16613 0.10528 0.0
N603 N 0.70141 0.20329 0.14284 0.0
C604 C 0.68745 0.22349 0.12287 0.0
C605 C 0.69357 0.20552 0.12496 0.0
C606 C 0.69959 0.22025 0.15148 0.0
N607 N 0.69131 0.2328 0.1395 0.0
O608 O 0.73235 0.19688 0.16437 0.0
H609 H 0.69203 0.19476 0.11407 0.0
H610 H 0.70463 0.22355 0.16602 0.0
O611 O 0.72769 0.18079 0.12677 0.0
C612 C 0.72802 0.19738 0.18258 0.0
O613 O 0.71293 0.18848 0.18829 0.0
N614 N 0.69338 0.16609 0.1432 0.0
C615 C 0.66154 0.14442 0.1361 0.0
C616 C 0.67939 0.13721 0.13246 0.0
C617 C 0.69517 0.14817 0.1364 0.0
C618 C 0.67609 0.17251 0.14831 0.0
C619 C 0.66005 0.16221 0.14435 0.0
H620 H 0.70884 0.1423 0.13372 0.0
H621 H 0.67456 0.18561 0.15595 0.0
H622 H 0.75109 0.15906 0.144 0.0
H623 H 0.73133 0.12277 0.18781 0.0
H624 H 0.68053 0.22926 0.11012 0.0
H625 H 0.68113 0.12329 0.12656 0.0
H626 H 0.64656 0.16793 0.14829 0.0
C627 C 0.10274 0.48635 0.4249 0.0
C628 C 0.11577 0.50031 0.42458 0.0
N629 N 0.12003 0.50424 0.40575 0.0
N630 N 0.09838 0.48145 0.40642 0.0
C631 C 0.10917 0.49254 0.39496 0.0
H632 H 0.09689 0.48007 0.43792 0.0
Co633 Co 0.08131 0.46234 0.40167 0.0
C634 C 0.0705 0.46385 0.35945 0.0
O635 O 0.06841 0.44567 0.36015 0.0
N636 N 0.06369 0.44268 0.39795 0.0
C637 C 0.04939 0.41508 0.39668 0.0
C638 C 0.06631 0.42399 0.39823 0.0
C639 C 0.04492 0.44464 0.39626 0.0
N640 N 0.03592 0.42809 0.39559 0.0
O641 O 0.06197 0.47719 0.41402 0.0
H642 H 0.07952 0.41696 0.39981 0.0
H643 H 0.03791 0.45799 0.39566 0.0
O644 O 0.07565 0.47266 0.37499 0.0
C645 C 0.05906 0.47043 0.43113 0.0
O646 O 0.06875 0.45571 0.4365 0.0
N647 N 0.10099 0.44735 0.39242 0.0
C648 C 0.12719 0.41931 0.38555 0.0
C649 C 0.12141 0.43116 0.37029 0.0
C650 C 0.10857 0.44546 0.37414 0.0
C651 C 0.1081 0.43742 0.40773 0.0
C652 C 0.12098 0.42318 0.40463 0.0
H653 H 0.10471 0.45463 0.36232 0.0
H654 H 0.10262 0.43969 0.42232 0.0
H655 H 0.10928 0.49177 0.37912 0.0
H656 H 0.12147 0.50708 0.43743 0.0
H657 H 0.04714 0.40016 0.39707 0.0
H658 H 0.1265 0.42918 0.35548 0.0
H659 H 0.12509 0.41457 0.41694 0.0
C660 C 0.77934 0.15257 0.8517 0.0
C661 C 0.76433 0.14078 0.85199 0.0
N662 N 0.7564 0.14174 0.86983 0.0
N663 N 0.78093 0.1612 0.8692 0.0
C664 C 0.7668 0.15412 0.88015 0.0
H665 H 0.78851 0.1548 0.83935 0.0
Co666 Co 0.79932 0.17931 0.87276 0.0
C667 C 0.7959 0.19476 0.91357 0.0
O668 O 0.8135 0.19978 0.91273 0.0
N669 N 0.81827 0.19774 0.87488 0.0
C670 C 0.84555 0.21263 0.87351 0.0
C671 C 0.837 0.19548 0.8741 0.0
C672 C 0.81589 0.21652 0.87471 0.0
N673 N 0.83225 0.22586 0.87383 0.0
O674 O 0.78392 0.19695 0.85883 0.0
H675 H 0.84423 0.18231 0.87348 0.0
H676 H 0.80237 0.22324 0.87465 0.0
O677 O 0.78843 0.18646 0.89878 0.0
C678 C 0.7898 0.19719 0.84113 0.0
O679 O 0.80428 0.18674 0.83669 0.0
N680 N 0.81492 0.16111 0.88391 0.0
C681 C 0.84317 0.13587 0.89318 0.0
C682 C 0.83238 0.14407 0.90804 0.0
C683 C 0.81799 0.15642 0.90307 0.0
C684 C 0.82425 0.15205 0.86933 0.0
C685 C 0.83847 0.13946 0.8736 0.0
H686 H 0.80974 0.16224 0.91473 0.0
H687 H 0.82141 0.15556 0.8542 0.0
H688 H 0.76392 0.1582 0.89513 0.0
H689 H 0.75964 0.132 0.84004 0.0
H690 H 0.86043 0.21514 0.87271 0.0
H691 H 0.83525 0.14121 0.92334 0.0
H692 H 0.84643 0.13349 0.86165 0.0
C693 C 0.11021 0.52659 0.10331 0.0
C694 C 0.12223 0.51178 0.10419 0.0
N695 N 0.12058 0.50377 0.12194 0.0
N696 N 0.10078 0.52797 0.12034 0.0
C697 C 0.10756 0.51394 0.13162 0.0
H698 H 0.10845 0.53581 0.09092 0.0
Co699 Co 0.08253 0.54631 0.12324 0.0
C700 C 0.06774 0.54405 0.16417 0.0
O701 O 0.06418 0.562 0.16321 0.0
N702 N 0.06395 0.56512 0.12486 0.0
C703 C 0.04858 0.59203 0.1224 0.0
C704 C 0.06588 0.5838 0.12291 0.0
C705 C 0.0452 0.56245 0.12547 0.0
N706 N 0.03556 0.57858 0.12393 0.0
O707 O 0.065 0.53072 0.10906 0.0
H708 H 0.07888 0.5912 0.12138 0.0
H709 H 0.03871 0.54885 0.12637 0.0
O710 O 0.07497 0.5358 0.14923 0.0
C711 C 0.06511 0.53635 0.09125 0.0
O712 O 0.07589 0.55059 0.08682 0.0
N713 N 0.10065 0.56212 0.13452 0.0
C714 C 0.12648 0.58989 0.14397 0.0
C715 C 0.11886 0.57847 0.15866 0.0
C716 C 0.10629 0.56426 0.15356 0.0
C717 C 0.10919 0.572 0.12002 0.0
C718 C 0.12196 0.58605 0.12438 0.0
H719 H 0.10126 0.55525 0.165 0.0
H720 H 0.1052 0.56967 0.10492 0.0
H721 H 0.10286 0.511 0.14639 0.0
H722 H 0.13167 0.50734 0.09269 0.0
H723 H 0.0458 0.60679 0.12078 0.0
H724 H 0.12252 0.58056 0.17392 0.0
H725 H 0.12751 0.59443 0.11252 0.0
C726 C 0.73471 0.85563 0.35387 0.0
C727 C 0.75004 0.86696 0.35541 0.0
N728 N 0.75571 0.867 0.37422 0.0
N729 N 0.73069 0.84827 0.37156 0.0
C730 C 0.74363 0.85569 0.38385 0.0
H731 H 0.72695 0.85295 0.34058 0.0
Co732 Co 0.711 0.83138 0.37435 0.0
C733 C 0.71403 0.81395 0.41457 0.0
O734 O 0.69675 0.80802 0.41322 0.0
N735 N 0.69076 0.8143 0.37584 0.0
C736 C 0.66234 0.80168 0.37532 0.0
C737 C 0.67226 0.81805 0.37614 0.0
C738 C 0.69159 0.79543 0.37454 0.0
N739 N 0.6745 0.7874 0.37429 0.0
O740 O 0.72533 0.81295 0.36001 0.0
H741 H 0.6661 0.83177 0.37647 0.0
H742 H 0.70453 0.78769 0.37402 0.0
O743 O 0.72128 0.82308 0.40023 0.0
C744 C 0.71947 0.81282 0.34227 0.0
O745 O 0.70565 0.82407 0.33768 0.0
N746 N 0.69652 0.85029 0.38598 0.0
C747 C 0.66883 0.87611 0.39569 0.0
C748 C 0.67833 0.8662 0.41039 0.0
C749 C 0.69234 0.85346 0.40525 0.0
C750 C 0.68853 0.8609 0.3717 0.0
C751 C 0.6746 0.87379 0.37618 0.0
H752 H 0.69921 0.84599 0.41683 0.0
H753 H 0.6921 0.85838 0.35651 0.0
H754 H 0.74438 0.85268 0.39938 0.0
H755 H 0.75643 0.8748 0.34361 0.0
H756 H 0.64728 0.80048 0.37489 0.0
H757 H 0.67469 0.86795 0.4257 0.0
H758 H 0.66767 0.88099 0.36427 0.0
C759 C 0.40828 0.47998 0.59836 0.0
C760 C 0.39645 0.49499 0.59809 0.0
N761 N 0.39641 0.50281 0.61605 0.0
N762 N 0.41583 0.47826 0.61636 0.0
C763 C 0.40821 0.4923 0.62698 0.0
H764 H 0.41121 0.47084 0.58614 0.0
Co765 Co 0.4332 0.45963 0.62137 0.0
C766 C 0.44415 0.46218 0.66354 0.0
O767 O 0.44663 0.44404 0.66324 0.0
N768 N 0.45112 0.44047 0.6253 0.0
C769 C 0.46641 0.41343 0.62452 0.0
C770 C 0.44916 0.42177 0.62368 0.0
C771 C 0.46978 0.44302 0.6273 0.0
N772 N 0.47938 0.42685 0.62666 0.0
O773 O 0.45217 0.47446 0.60835 0.0
H774 H 0.43624 0.41442 0.62126 0.0
H775 H 0.4763 0.45661 0.62819 0.0
O776 O 0.4389 0.47056 0.64779 0.0
C777 C 0.45413 0.46741 0.59121 0.0
O778 O 0.44371 0.45298 0.58653 0.0
N779 N 0.41385 0.44452 0.63118 0.0
C780 C 0.38714 0.41702 0.63843 0.0
C781 C 0.39314 0.42894 0.65354 0.0
C782 C 0.40621 0.44301 0.64948 0.0
C783 C 0.40674 0.43431 0.61607 0.0
C784 C 0.39361 0.42036 0.61936 0.0
H785 H 0.4101 0.45237 0.66113 0.0
H786 H 0.41226 0.43625 0.60145 0.0
H787 H 0.41142 0.49497 0.64224 0.0
H788 H 0.38827 0.49964 0.58566 0.0
H789 H 0.4692 0.39866 0.62314 0.0
H790 H 0.38793 0.42729 0.66834 0.0
H791 H 0.38938 0.41163 0.60718 0.0
C792 C 0.23166 0.1545 0.35306 0.0
C793 C 0.24629 0.14222 0.3541 0.0
N794 N 0.25287 0.14225 0.37258 0.0
N795 N 0.22904 0.16252 0.37073 0.0
C796 C 0.24207 0.15455 0.3825 0.0
H797 H 0.22348 0.15746 0.34012 0.0
Co798 Co 0.21089 0.18091 0.37432 0.0
C799 C 0.21667 0.19792 0.41434 0.0
O800 O 0.19931 0.20376 0.41427 0.0
N801 N 0.19225 0.19959 0.37677 0.0
C802 C 0.16529 0.21496 0.37894 0.0
C803 C 0.17352 0.19765 0.37837 0.0
C804 C 0.1949 0.21832 0.376 0.0
N805 N 0.17877 0.22795 0.37744 0.0
O806 O 0.22584 0.1981 0.35886 0.0
H807 H 0.16607 0.1846 0.37902 0.0
H808 H 0.2085 0.22481 0.37496 0.0
O809 O 0.22301 0.18873 0.39956 0.0
C810 C 0.21898 0.19844 0.34151 0.0
O811 O 0.20424 0.18802 0.33799 0.0
N812 N 0.19557 0.16325 0.38693 0.0
C813 C 0.16675 0.13951 0.39872 0.0
C814 C 0.17841 0.14806 0.41264 0.0
C815 C 0.193 0.15968 0.40644 0.0
C816 C 0.18544 0.15377 0.37325 0.0
C817 C 0.1709 0.14195 0.37878 0.0
H818 H 0.20175 0.16592 0.41744 0.0
H819 H 0.18789 0.1564 0.35785 0.0
H820 H 0.24386 0.15791 0.39785 0.0
H821 H 0.25162 0.13377 0.34219 0.0
H822 H 0.15048 0.21774 0.38008 0.0
H823 H 0.17606 0.14607 0.42819 0.0
H824 H 0.16232 0.13569 0.36747 0.0
C825 C 0.61241 0.47274 0.10076 0.0
C826 C 0.62641 0.48577 0.09921 0.0
N827 N 0.62246 0.50012 0.1113 0.0
N828 N 0.59958 0.47876 0.11375 0.0
C829 C 0.60607 0.49549 0.11995 0.0
H830 H 0.61167 0.4596 0.093 0.0
Co831 Co 0.57799 0.46555 0.12061 0.0
C832 C 0.5641 0.48654 0.15496 0.0
O833 O 0.54772 0.48836 0.14649 0.0
N834 N 0.5564 0.45212 0.12756 0.0
C835 C 0.53684 0.4341 0.14439 0.0
C836 C 0.55378 0.44307 0.14472 0.0
C837 C 0.54072 0.44856 0.11708 0.0
N838 N 0.52863 0.43759 0.12703 0.0
O839 O 0.56288 0.48409 0.10756 0.0
H840 H 0.56364 0.44291 0.15674 0.0
H841 H 0.53832 0.4535 0.10231 0.0
O842 O 0.57729 0.47832 0.14583 0.0
C843 C 0.56359 0.4799 0.08933 0.0
O844 O 0.57356 0.46532 0.08415 0.0
N845 N 0.59283 0.44653 0.1309 0.0
C846 C 0.61485 0.41564 0.13973 0.0
C847 C 0.61469 0.43122 0.15223 0.0
C848 C 0.60368 0.44676 0.14739 0.0
C849 C 0.5927 0.43143 0.11882 0.0
C850 C 0.60357 0.41587 0.12294 0.0
H851 H 0.60412 0.45895 0.15668 0.0
H852 H 0.58419 0.43163 0.10572 0.0
H853 H 0.59885 0.50417 0.13048 0.0
H854 H 0.63879 0.48453 0.0902 0.0
H855 H 0.53093 0.42576 0.15608 0.0
H856 H 0.62335 0.43157 0.16526 0.0
H857 H 0.60316 0.40407 0.11302 0.0
C858 C 0.27893 0.85946 0.84454 0.0
C859 C 0.26414 0.87152 0.84525 0.0
N860 N 0.25616 0.87012 0.86304 0.0
N861 N 0.28032 0.85026 0.86172 0.0
C862 C 0.26632 0.85723 0.87291 0.0
H863 H 0.28816 0.85756 0.83217 0.0
Co864 Co 0.29851 0.83195 0.86502 0.0
C865 C 0.2968 0.81844 0.90648 0.0
O866 O 0.31475 0.81486 0.90536 0.0
N867 N 0.31714 0.81325 0.867 0.0
C868 C 0.34377 0.79739 0.86465 0.0
C869 C 0.33584 0.81482 0.86477 0.0
C870 C 0.31416 0.79461 0.86822 0.0
N871 N 0.33011 0.78468 0.86674 0.0
O872 O 0.28251 0.8142 0.8519 0.0
H873 H 0.34345 0.82764 0.86276 0.0
H874 H 0.30045 0.78838 0.86947 0.0
O875 O 0.28836 0.82537 0.8915 0.0
C876 C 0.28756 0.81415 0.83391 0.0
O877 O 0.3016 0.82488 0.82875 0.0
N878 N 0.31467 0.85021 0.87524 0.0
C879 C 0.34266 0.87628 0.88296 0.0
C880 C 0.33136 0.86943 0.89818 0.0
C881 C 0.31707 0.85667 0.89394 0.0
C882 C 0.32444 0.85798 0.86018 0.0
C883 C 0.33861 0.87083 0.86369 0.0
H884 H 0.30819 0.85214 0.90573 0.0
H885 H 0.3219 0.85331 0.84534 0.0
H886 H 0.26343 0.8528 0.88777 0.0
H887 H 0.25974 0.88086 0.83366 0.0
H888 H 0.35847 0.79431 0.86288 0.0
H889 H 0.33361 0.8738 0.9132 0.0
H890 H 0.3469 0.8757 0.85143 0.0
C891 C 0.90859 0.53205 0.59907 0.0
C892 C 0.89539 0.51829 0.59832 0.0
N893 N 0.89279 0.51158 0.61657 0.0
N894 N 0.91461 0.5341 0.61765 0.0
C895 C 0.90475 0.52139 0.62811 0.0
H896 H 0.91337 0.54026 0.58677 0.0
Co897 Co 0.93209 0.55257 0.62314 0.0
C898 C 0.94341 0.54937 0.66513 0.0
O899 O 0.9464 0.56744 0.66491 0.0
N900 N 0.95005 0.57179 0.6273 0.0
C901 C 0.96449 0.59931 0.62619 0.0
C902 C 0.94749 0.59047 0.6264 0.0
C903 C 0.96888 0.56977 0.62801 0.0
N904 N 0.97792 0.58627 0.62704 0.0
O905 O 0.95099 0.53773 0.61009 0.0
H906 H 0.93428 0.59751 0.625 0.0
H907 H 0.97591 0.55642 0.6279 0.0
O908 O 0.93769 0.54123 0.64941 0.0
C909 C 0.95374 0.54475 0.59307 0.0
O910 O 0.94436 0.55983 0.58824 0.0
N911 N 0.91272 0.56758 0.63315 0.0
C912 C 0.8858 0.5948 0.64072 0.0
C913 C 0.89226 0.58311 0.6558 0.0
C914 C 0.90546 0.56922 0.65162 0.0
C915 C 0.90525 0.57759 0.6181 0.0
C916 C 0.89201 0.59141 0.62155 0.0
H917 H 0.9097 0.56006 0.66329 0.0
H918 H 0.91055 0.5756 0.60339 0.0
H919 H 0.90596 0.51969 0.64383 0.0
H920 H 0.88834 0.51353 0.5852 0.0
H921 H 0.96681 0.61417 0.62472 0.0
H922 H 0.88727 0.58477 0.67069 0.0
H923 H 0.88745 0.59997 0.60938 0.0
C924 C 0.21899 0.86104 0.16784 0.0
C925 C 0.23179 0.87519 0.17013 0.0
N926 N 0.246 0.87232 0.15749 0.0
N927 N 0.22498 0.84929 0.15375 0.0
C928 C 0.24153 0.85643 0.14783 0.0
H929 H 0.20595 0.85956 0.17568 0.0
Co930 Co 0.2124 0.82789 0.145 0.0
C931 C 0.22256 0.83463 0.10204 0.0
O932 O 0.2064 0.84228 0.0981 0.0
N933 N 0.20025 0.80594 0.13625 0.0
C934 C 0.18498 0.78537 0.11782 0.0
C935 C 0.19225 0.80302 0.11857 0.0
C936 C 0.19755 0.78968 0.14602 0.0
N937 N 0.18827 0.77693 0.13511 0.0
O938 O 0.23153 0.81267 0.15705 0.0
H939 H 0.19125 0.81311 0.10695 0.0
H940 H 0.20205 0.7873 0.16094 0.0
O941 O 0.22627 0.82859 0.11937 0.0
C942 C 0.2275 0.81234 0.17535 0.0
O943 O 0.21251 0.82132 0.18121 0.0
N944 N 0.1921 0.8431 0.13624 0.0
C945 C 0.16011 0.8647 0.1297 0.0
C946 C 0.17788 0.8719 0.1256 0.0
C947 C 0.19374 0.86096 0.12923 0.0
C948 C 0.1749 0.83667 0.14169 0.0
C949 C 0.15879 0.84693 0.13803 0.0
H950 H 0.20736 0.86682 0.12621 0.0
H951 H 0.1735 0.82362 0.14946 0.0
H952 H 0.25015 0.85003 0.1367 0.0
H953 H 0.23043 0.88694 0.17998 0.0
H954 H 0.17798 0.77919 0.10534 0.0
H955 H 0.1795 0.88579 0.11959 0.0
H956 H 0.14538 0.84122 0.1423 0.0
C957 C 0.90404 0.48067 0.91989 0.0
C958 C 0.89166 0.49517 0.91897 0.0
N959 N 0.89277 0.5029 0.90102 0.0
N960 N 0.91314 0.47915 0.90267 0.0
C961 C 0.90582 0.49282 0.89127 0.0
H962 H 0.90624 0.47173 0.93243 0.0
Co963 Co 0.93171 0.46112 0.89948 0.0
C964 C 0.94726 0.46504 0.85869 0.0
O965 O 0.95294 0.44765 0.85947 0.0
N966 N 0.95056 0.44257 0.89753 0.0
C967 C 0.96577 0.41548 0.8984 0.0
C968 C 0.94853 0.42381 0.89756 0.0
C969 C 0.96932 0.44517 0.89836 0.0
N970 N 0.97886 0.42892 0.89901 0.0
O971 O 0.94899 0.47691 0.91376 0.0
H972 H 0.93545 0.41638 0.89744 0.0
H973 H 0.97587 0.45876 0.89909 0.0
O974 O 0.93886 0.47218 0.87357 0.0
C975 C 0.94901 0.47113 0.93153 0.0
O976 O 0.93857 0.45662 0.93583 0.0
N977 N 0.91387 0.44506 0.88815 0.0
C978 C 0.88959 0.41589 0.87887 0.0
C979 C 0.89777 0.4267 0.864 0.0
C980 C 0.90964 0.44153 0.86895 0.0
C981 C 0.90482 0.43566 0.9027 0.0
C982 C 0.89271 0.42101 0.89842 0.0
H983 H 0.91547 0.44971 0.85727 0.0
H984 H 0.908 0.43881 0.91785 0.0
H985 H 0.91013 0.49556 0.87633 0.0
H986 H 0.88234 0.49958 0.93058 0.0
H987 H 0.96842 0.40062 0.89873 0.0
H988 H 0.89527 0.42352 0.84869 0.0
H989 H 0.88673 0.41308 0.91039 0.0
C990 C 0.27939 0.15631 0.67505 0.0
C991 C 0.26569 0.14303 0.6756 0.0
N992 N 0.25922 0.14032 0.65724 0.0
N993 N 0.28163 0.16231 0.65651 0.0
C994 C 0.26916 0.1523 0.64586 0.0
H995 H 0.28732 0.16126 0.68749 0.0
Co996 Co 0.29957 0.18036 0.65109 0.0
C997 C 0.29417 0.19401 0.60991 0.0
O998 O 0.31197 0.19834 0.60935 0.0
N999 N 0.31817 0.19886 0.6469 0.0
C1000 C 0.34514 0.21414 0.64409 0.0
C1001 C 0.33692 0.19688 0.64568 0.0
C1002 C 0.31547 0.21757 0.64626 0.0
N1003 N 0.33162 0.22715 0.64455 0.0
O1004 O 0.28457 0.19853 0.66494 0.0
H1005 H 0.34441 0.18384 0.64618 0.0
H1006 H 0.30187 0.2241 0.64687 0.0
O1007 O 0.28731 0.18633 0.62537 0.0
C1008 C 0.29182 0.20127 0.68185 0.0
O1009 O 0.3072 0.19219 0.68629 0.0
N1010 N 0.31484 0.16182 0.64007 0.0
C1011 C 0.34322 0.13675 0.63068 0.0
C1012 C 0.33154 0.144 0.61599 0.0
C1013 C 0.3171 0.15627 0.62105 0.0
C1014 C 0.32502 0.15366 0.65461 0.0
C1015 C 0.33933 0.14118 0.65027 0.0
H1016 H 0.30817 0.16136 0.60956 0.0
H1017 H 0.32273 0.15782 0.66968 0.0
H1018 H 0.26764 0.15357 0.63013 0.0
H1019 H 0.26077 0.13613 0.68872 0.0
H1020 H 0.35997 0.21692 0.64325 0.0
H1021 H 0.33376 0.14046 0.60072 0.0
H1022 H 0.34795 0.13592 0.66209 0.0
C1023 C 0.61592 0.54156 0.41708 0.0
C1024 C 0.63003 0.52906 0.4206 0.0
N1025 N 0.62549 0.51266 0.41224 0.0
N1026 N 0.60249 0.53335 0.40619 0.0
C1027 C 0.60841 0.51545 0.40424 0.0
H1028 H 0.61568 0.55577 0.42226 0.0
Co1029 Co 0.58044 0.54504 0.39682 0.0
C1030 C 0.59346 0.52385 0.361 0.0
O1031 O 0.61107 0.52698 0.36534 0.0
N1032 N 0.5585 0.55656 0.38781 0.0
C1033 C 0.5376 0.56924 0.36773 0.0
C1034 C 0.55463 0.56061 0.36889 0.0
C1035 C 0.54345 0.56284 0.39789 0.0
N1036 N 0.53054 0.57064 0.38595 0.0
O1037 O 0.56568 0.52678 0.41083 0.0
H1038 H 0.56355 0.55746 0.35657 0.0
H1039 H 0.54202 0.56194 0.41365 0.0
O1040 O 0.58063 0.52987 0.37247 0.0
C1041 C 0.56451 0.53343 0.42821 0.0
O1042 O 0.57367 0.54889 0.43205 0.0
N1043 N 0.59444 0.56476 0.38556 0.0
C1044 C 0.61302 0.59806 0.37667 0.0
C1045 C 0.60991 0.58456 0.36211 0.0
C1046 C 0.60041 0.56803 0.3668 0.0
C1047 C 0.59646 0.57828 0.39945 0.0
C1048 C 0.60594 0.59479 0.39548 0.0
H1049 H 0.59742 0.55848 0.35507 0.0
H1050 H 0.59061 0.5762 0.41389 0.0
H1051 H 0.60073 0.50489 0.39625 0.0
H1052 H 0.64276 0.53194 0.4286 0.0
H1053 H 0.53074 0.57378 0.35441 0.0
H1054 H 0.61469 0.58679 0.34722 0.0
H1055 H 0.60732 0.60512 0.407 0.0
C1056 C 0.26244 0.28671 0.1923 0.0
C1057 C 0.27643 0.30014 0.1955 0.0
C1058 C 0.25572 0.27583 0.208 0.0
C1059 C 0.26969 0.25962 0.25779 0.0
H1060 H 0.21715 0.24877 0.26473 0.0
C1061 C 0.24071 0.22346 0.32822 0.0
C1062 C 0.22641 0.2103 0.32536 0.0
C1063 C 0.24683 0.23469 0.31254 0.0
C1064 C 0.23192 0.25149 0.26294 0.0
H1065 H 0.29372 0.31308 0.21792 0.0
H1066 H 0.28207 0.29445 0.24479 0.0
H1067 H 0.2273 0.26709 0.23651 0.0
H1068 H 0.20763 0.19849 0.30359 0.0
H1069 H 0.21836 0.2176 0.27668 0.0
H1070 H 0.27437 0.24396 0.28411 0.0
C1071 C 0.2765 0.29194 0.23026 0.0
C1072 C 0.23772 0.26199 0.24669 0.0
C1073 C 0.2831 0.30274 0.21474 0.0
C1074 C 0.21858 0.20855 0.3065 0.0
C1075 C 0.22465 0.21966 0.29097 0.0
C1076 C 0.26391 0.24908 0.274 0.0
C1077 C 0.26294 0.27813 0.22713 0.0
C1078 C 0.25668 0.26626 0.24393 0.0
C1079 C 0.23875 0.233 0.29371 0.0
C1080 C 0.24494 0.24484 0.27681 0.0
H1081 H 0.25703 0.28432 0.17768 0.0
H1082 H 0.24525 0.26529 0.20508 0.0
H1083 H 0.28445 0.26241 0.256 0.0
H1084 H 0.247 0.22521 0.34255 0.0
H1085 H 0.25767 0.2449 0.31524 0.0
C1086 C 0.03412 0.99024 0.57998 0.0
C1087 C 0.05197 0.98304 0.57603 0.0
C1088 C 0.02242 0.99588 0.56446 0.0
C1089 C 0.02271 0.00791 0.51099 0.0
H1090 H 0.97111 0.99174 0.51238 0.0
C1091 C 0.97476 0.01358 0.44245 0.0
C1092 C 0.95683 0.02076 0.44602 0.0
C1093 C 0.98622 0.00806 0.45819 0.0
C1094 C 0.98545 0.99649 0.51177 0.0
H1095 H 0.07182 0.97691 0.55292 0.0
H1096 H 0.05174 0.98673 0.52623 0.0
H1097 H 0.99121 0.98625 0.5407 0.0
H1098 H 0.93656 0.02689 0.46872 0.0
H1099 H 0.95625 0.01726 0.49584 0.0
H1100 H 0.01698 0.01813 0.48206 0.0
C1101 C 0.04662 0.98815 0.5411 0.0
C1102 C 0.99696 0.99343 0.52811 0.0
C1103 C 0.05814 0.98241 0.55646 0.0
C1104 C 0.9503 0.02141 0.46546 0.0
C1105 C 0.96161 0.01579 0.48107 0.0
C1106 C 0.01121 0.01096 0.49466 0.0
C1107 C 0.02845 0.99461 0.54477 0.0
C1108 C 0.01578 0.99904 0.52793 0.0
C1109 C 0.97989 0.00944 0.47776 0.0
C1110 C 0.99241 1.00528 0.49479 0.0
H1111 H 0.02892 0.99069 0.59488 0.0
H1112 H 0.00855 1.00096 0.56785 0.0
H1113 H 0.03705 0.01265 0.51036 0.0
H1114 H 0.98024 0.01309 0.42765 0.0
H1115 H 1.00015 1.00302 0.45506 0.0
C1116 C 0.27988 0.8082 0.79902 0.0
C1117 C 0.27889 0.80229 0.81865 0.0
C1118 C 0.27452 0.79643 0.78376 0.0
C1119 C 0.24862 0.75327 0.77157 0.0
H1120 H 0.28065 0.75375 0.72563 0.0
C1121 C 0.24002 0.69899 0.71037 0.0
C1122 C 0.24041 0.70531 0.69086 0.0
C1123 C 0.24566 0.71053 0.72573 0.0
C1124 C 0.27146 0.75357 0.73824 0.0
H1125 H 0.27084 0.77958 0.83776 0.0
H1126 H 0.26148 0.75868 0.81088 0.0
H1127 H 0.28766 0.77417 0.75327 0.0
H1128 H 0.24775 0.72847 0.67203 0.0
H1129 H 0.25773 0.74888 0.69906 0.0
H1130 H 0.23246 0.73263 0.75653 0.0
C1131 C 0.26631 0.7726 0.80736 0.0
C1132 C 0.27545 0.7653 0.75412 0.0
C1133 C 0.2716 0.78454 0.82277 0.0
C1134 C 0.24749 0.72318 0.68691 0.0
C1135 C 0.25311 0.73486 0.70241 0.0
C1136 C 0.24465 0.74152 0.75569 0.0
C1137 C 0.26815 0.77828 0.78762 0.0
C1138 C 0.26404 0.76537 0.77097 0.0
C1139 C 0.25177 0.7288 0.72206 0.0
C1140 C 0.25603 0.74151 0.73882 0.0
H1141 H 0.28523 0.82191 0.79538 0.0
H1142 H 0.27561 0.80152 0.76885 0.0
H1143 H 0.23939 0.75312 0.78414 0.0
H1144 H 0.23481 0.6852 0.71387 0.0
H1145 H 0.24492 0.7052 0.74058 0.0
C1146 C 0.46838 0.04541 0.0585 0.0
C1147 C 0.4631 0.03351 0.07395 0.0
C1148 C 0.47881 0.03877 0.04269 0.0
C1149 C 0.50887 0.99969 0.02605 0.0
H1150 H 0.49566 0.01791 0.97426 0.0
C1151 C 0.53827 0.96554 0.95658 0.0
C1152 C 0.54485 0.97711 0.94141 0.0
C1153 C 0.52793 0.97281 0.97211 0.0
C1154 C 0.49967 0.01285 0.98862 0.0
H1155 H 0.46514 1.00533 0.08512 0.0
H1156 H 0.4833 0.99352 0.05723 0.0
H1157 H 0.4788 0.02927 1.00297 0.0
H1158 H 0.54495 0.00537 0.93025 0.0
H1159 H 0.52666 0.01827 0.95765 0.0
H1160 H 0.52962 0.98315 0.01167 0.0
C1161 C 0.47947 0.00813 0.0575 0.0
C1162 C 0.49001 0.01936 1.00514 0.0
C1163 C 0.46905 0.01485 0.07349 0.0
C1164 C 0.54005 0.99611 0.94169 0.0
C1165 C 0.52961 1.00346 0.9574 0.0
C1166 C 0.51848 0.99315 1.00954 0.0
C1167 C 0.48421 0.01996 0.04171 0.0
C1168 C 0.49447 0.01286 0.02411 0.0
C1169 C 0.52383 0.99193 0.97304 0.0
C1170 C 0.51395 0.99956 0.99059 0.0
H1171 H 0.46426 0.05994 0.05847 0.0
H1172 H 0.48259 0.04845 0.03116 0.0
H1173 H 0.51294 0.9946 0.04039 0.0
H1174 H 0.54143 0.95076 0.95671 0.0
H1175 H 0.52328 0.96341 0.98354 0.0
C1176 C 0.24471 0.78352 0.18656 0.0
C1177 C 0.23803 0.80159 0.19023 0.0
C1178 C 0.25088 0.77225 0.20218 0.0
C1179 C 0.26468 0.77362 0.25524 0.0
H1180 H 0.24673 0.72264 0.25565 0.0
C1181 C 0.27056 0.72667 0.32462 0.0
C1182 C 0.27725 0.70858 0.32107 0.0
C1183 C 0.265 0.73809 0.30886 0.0
C1184 C 0.25196 0.73681 0.25574 0.0
H1185 H 0.23348 0.82238 0.2128 0.0
H1186 H 0.24426 0.80305 0.2397 0.0
H1187 H 0.24108 0.74222 0.22702 0.0
H1188 H 0.28251 0.68796 0.29848 0.0
H1189 H 0.27277 0.70756 0.27136 0.0
H1190 H 0.2755 0.7682 0.28401 0.0
C1191 C 0.24488 0.79741 0.22498 0.0
C1192 C 0.24883 0.74802 0.23923 0.0
C1193 C 0.23862 0.80851 0.20951 0.0
C1194 C 0.27741 0.70185 0.3017 0.0
C1195 C 0.27173 0.7131 0.2861 0.0
C1196 C 0.26779 0.76241 0.27177 0.0
C1197 C 0.25063 0.77894 0.22168 0.0
C1198 C 0.25512 0.7666 0.23874 0.0
C1199 C 0.26582 0.73151 0.28935 0.0
C1200 C 0.26149 0.74384 0.27225 0.0
H1201 H 0.24416 0.77775 0.17189 0.0
H1202 H 0.25541 0.75815 0.19906 0.0
H1203 H 0.26991 0.78779 0.25535 0.0
H1204 H 0.27047 0.73228 0.33937 0.0
H1205 H 0.26034 0.75216 0.31192 0.0
C1206 C 0.47182 1.00042 0.44039 0.0
C1207 C 0.45479 0.99137 0.44413 0.0
C1208 C 0.48317 0.00641 0.45604 0.0
C1209 C 0.49157 0.99617 0.50885 0.0
H1210 H 0.5203 0.04191 0.50802 0.0
C1211 C 0.53423 0.02308 0.5764 0.0
C1212 C 0.55124 0.03202 0.57228 0.0
C1213 C 0.5222 0.0178 0.56102 0.0
C1214 C 0.51254 0.02896 0.50843 0.0
H1215 H 0.43578 0.9826 0.46712 0.0
H1216 H 0.45517 0.99331 0.49408 0.0
H1217 H 0.5 0.03434 0.48042 0.0
H1218 H 0.56941 0.04144 0.54883 0.0
H1219 H 0.54892 0.03191 0.52238 0.0
H1220 H 0.5042 0.99072 0.5368 0.0
C1221 C 0.46014 0.99535 0.47923 0.0
C1222 C 0.50087 0.02463 0.49256 0.0
C1223 C 0.44893 0.98935 0.46371 0.0
C1224 C 0.55629 0.0348 0.55256 0.0
C1225 C 0.54443 0.02947 0.53732 0.0
C1226 C 0.50327 1.00047 0.52472 0.0
C1227 C 0.47766 1.00348 0.47569 0.0
C1228 C 0.49022 0.00818 0.49253 0.0
C1229 C 0.52701 0.02131 0.54127 0.0
C1230 C 0.514 0.01689 0.5247 0.0
H1231 H 0.4768 1.002 0.42548 0.0
H1232 H 0.4966 0.0126 0.45276 0.0
H1233 H 0.48382 0.98321 0.50924 0.0
H1234 H 0.52989 0.02089 0.59145 0.0
H1235 H 0.50886 0.01157 0.56464 0.0
C1236 C 0.29522 0.22032 0.71212 0.0
C1237 C 0.28381 0.21415 0.69663 0.0
C1238 C 0.28788 0.23088 0.72746 0.0
C1239 C 0.24396 0.24021 0.75344 0.0
H1240 H 0.27248 0.28021 0.7774 0.0
C1241 C 0.21363 0.28801 0.81359 0.0
C1242 C 0.22533 0.2942 0.82883 0.0
C1243 C 0.22075 0.27769 0.79794 0.0
C1244 C 0.26446 0.26889 0.77108 0.0
H1245 H 0.25576 0.21474 0.68479 0.0
H1246 H 0.24276 0.23339 0.71181 0.0
H1247 H 0.28431 0.26488 0.74799 0.0
H1248 H 0.25367 0.29386 0.83991 0.0
H1249 H 0.26623 0.27557 0.81245 0.0
H1250 H 0.22414 0.24418 0.77657 0.0
C1251 C 0.25745 0.22985 0.71205 0.0
C1252 C 0.27119 0.26016 0.75413 0.0
C1253 C 0.26489 0.21932 0.69651 0.0
C1254 C 0.2443 0.28927 0.8284 0.0
C1255 C 0.2515 0.27895 0.81258 0.0
C1256 C 0.23723 0.24893 0.77041 0.0
C1257 C 0.26886 0.23556 0.72784 0.0
C1258 C 0.26106 0.24566 0.74512 0.0
C1259 C 0.23981 0.27326 0.79702 0.0
C1260 C 0.2474 0.26339 0.77947 0.0
H1261 H 0.30989 0.21668 0.71264 0.0
H1262 H 0.29705 0.23481 0.7394 0.0
H1263 H 0.23596 0.22888 0.74712 0.0
H1264 H 0.19891 0.29148 0.81347 0.0
H1265 H 0.21135 0.27376 0.78619 0.0
C1266 C 0.0382 0.01388 0.94477 0.0
C1267 C 0.0433 0.0328 0.9449 0.0
C1268 C 0.0272 0.0065 0.96003 0.0
C1269 C 0.99606 0.02063 1.00161 0.0
H1270 H 0.01095 0.97332 0.02416 0.0
C1271 C 0.96653 0.99437 0.07611 0.0
C1272 C 0.96088 0.9756 0.07639 0.0
C1273 C 0.97697 1.00134 0.06024 0.0
C1274 C 0.00652 0.98651 0.01798 0.0
H1275 H 0.04006 0.05896 0.96056 0.0
H1276 H 0.02123 0.04627 0.98679 0.0
H1277 H 0.02674 0.98487 0.99487 0.0
H1278 H 0.96249 0.94929 0.06071 0.0
H1279 H 0.98055 0.96132 0.03344 0.0
H1280 H 0.97595 0.02233 0.02482 0.0
C1281 C 0.02552 0.03701 0.97508 0.0
C1282 C 0.01551 0.99307 1.00107 0.0
C1283 C 0.0365 0.04428 0.96003 0.0
C1284 C 0.9665 0.96386 0.06094 0.0
C1285 C 0.97701 0.97073 0.0453 0.0
C1286 C 0.98713 0.0141 0.01854 0.0
C1287 C 0.02095 0.01798 0.97554 0.0
C1288 C 0.01046 0.01027 0.99269 0.0
C1289 C 0.98215 0.98961 0.04453 0.0
C1290 C 0.99225 0.99697 0.02698 0.0
H1291 H 0.04328 1.00468 0.93336 0.0
H1292 H 0.02376 0.9918 0.9598 0.0
H1293 H 0.99158 0.0338 0.99544 0.0
H1294 H 0.96238 1.00376 0.08776 0.0
H1295 H 0.98088 0.01593 0.06021 0.0
C1296 C 0.74041 0.70016 0.80905 0.0
C1297 C 0.73967 0.70703 0.82834 0.0
C1298 C 0.74549 0.71172 0.79347 0.0
C1299 C 0.74484 0.7612 0.77929 0.0
H1300 H 0.77248 0.74363 0.734 0.0
C1301 C 0.76924 0.80971 0.71682 0.0
C1302 C 0.77012 0.80287 0.69753 0.0
C1303 C 0.76396 0.79816 0.73232 0.0
C1304 C 0.76445 0.74866 0.74638 0.0
H1305 H 0.74438 0.73125 0.8466 0.0
H1306 H 0.75353 0.75166 0.81924 0.0
H1307 H 0.76915 0.72355 0.76266 0.0
H1308 H 0.7655 0.7787 0.67917 0.0
H1309 H 0.75596 0.75829 0.7064 0.0
H1310 H 0.74014 0.78632 0.76301 0.0
C1311 C 0.75004 0.73725 0.81619 0.0
C1312 C 0.76266 0.73718 0.7629 0.0
C1313 C 0.74509 0.72553 0.83191 0.0
C1314 C 0.76463 0.7844 0.69386 0.0
C1315 C 0.75948 0.77269 0.70951 0.0
C1316 C 0.74663 0.77268 0.76276 0.0
C1317 C 0.74983 0.73058 0.7967 0.0
C1318 C 0.75282 0.74329 0.7796 0.0
C1319 C 0.75957 0.77932 0.72901 0.0
C1320 C 0.75648 0.76658 0.74607 0.0
H1321 H 0.73618 0.68596 0.80585 0.0
H1322 H 0.74498 0.70608 0.77874 0.0
H1323 H 0.73682 0.76624 0.79168 0.0
H1324 H 0.77358 0.82387 0.72007 0.0
H1325 H 0.76439 0.80377 0.74706 0.0
C1326 C 0.77164 0.30915 0.31005 0.0
C1327 C 0.77334 0.30208 0.32919 0.0
C1328 C 0.76671 0.29756 0.29444 0.0
C1329 C 0.7467 0.25166 0.28102 0.0
H1330 H 0.77526 0.25912 0.23327 0.0
C1331 C 0.73979 0.20061 0.21654 0.0
C1332 C 0.73842 0.20811 0.19756 0.0
C1333 C 0.74549 0.21163 0.23233 0.0
C1334 C 0.76701 0.25695 0.24638 0.0
H1335 H 0.77046 0.27736 0.34714 0.0
H1336 H 0.7617 0.25686 0.3197 0.0
H1337 H 0.78101 0.27897 0.26168 0.0
H1338 H 0.74265 0.23288 0.18004 0.0
H1339 H 0.7526 0.25241 0.20777 0.0
H1340 H 0.7326 0.22976 0.26571 0.0
C1341 C 0.7641 0.27152 0.31683 0.0
C1342 C 0.7703 0.26835 0.26273 0.0
C1343 C 0.769 0.28325 0.33259 0.0
C1344 C 0.74389 0.22668 0.19446 0.0
C1345 C 0.74947 0.23785 0.21041 0.0
C1346 C 0.74339 0.24029 0.26467 0.0
C1347 C 0.76346 0.27846 0.29746 0.0
C1348 C 0.76012 0.26593 0.28026 0.0
C1349 C 0.74976 0.23059 0.22967 0.0
C1350 C 0.7535 0.24275 0.2471 0.0
H1351 H 0.77479 0.32364 0.30698 0.0
H1352 H 0.76584 0.30353 0.27988 0.0
H1353 H 0.73845 0.24953 0.29414 0.0
H1354 H 0.7357 0.1863 0.21934 0.0
H1355 H 0.74606 0.20535 0.24677 0.0
C1356 C 0.74416 0.28785 0.69535 0.0
C1357 C 0.73178 0.30253 0.69942 0.0
C1358 C 0.75076 0.27642 0.71061 0.0
C1359 C 0.75621 0.27497 0.76493 0.0
H1360 H 0.75681 0.22138 0.75773 0.0
C1361 C 0.76906 0.22357 0.82956 0.0
C1362 C 0.7814 0.20885 0.82549 0.0
C1363 C 0.76241 0.23496 0.8143 0.0
C1364 C 0.75685 0.23633 0.75995 0.0
H1365 H 0.717 0.31699 0.72273 0.0
H1366 H 0.7283 0.29725 0.74891 0.0
H1367 H 0.74802 0.24152 0.73042 0.0
H1368 H 0.79603 0.19428 0.80215 0.0
H1369 H 0.78465 0.21395 0.77596 0.0
H1370 H 0.76506 0.26979 0.79446 0.0
C1371 C 0.73309 0.29452 0.73412 0.0
C1372 C 0.7519 0.24788 0.74424 0.0
C1373 C 0.72648 0.30577 0.71899 0.0
C1374 C 0.78658 0.20553 0.80589 0.0
C1375 C 0.77992 0.21674 0.79076 0.0
C1376 C 0.76117 0.26343 0.78063 0.0
C1377 C 0.74521 0.27962 0.73018 0.0
C1378 C 0.75148 0.26734 0.74654 0.0
C1379 C 0.76786 0.23168 0.79471 0.0
C1380 C 0.76158 0.24396 0.77834 0.0
H1381 H 0.74846 0.28499 0.68042 0.0
H1382 H 0.7602 0.26511 0.70711 0.0
H1383 H 0.75625 0.28993 0.76715 0.0
H1384 H 0.76485 0.2265 0.84451 0.0
H1385 H 0.753 0.24629 0.81781 0.0
C1386 C 0.72084 0.80256 0.30735 0.0
C1387 C 0.72724 0.80046 0.32676 0.0
C1388 C 0.72737 0.79107 0.29235 0.0
C1389 C 0.76615 0.75979 0.27845 0.0
H1390 H 0.73128 0.74313 0.2385 0.0
C1391 C 0.78674 0.70512 0.22073 0.0
C1392 C 0.781 0.70765 0.20115 0.0
C1393 C 0.77982 0.71638 0.23573 0.0
C1394 C 0.74125 0.74785 0.24938 0.0
H1395 H 0.74572 0.78456 0.34551 0.0
H1396 H 0.75719 0.76421 0.31912 0.0
H1397 H 0.72016 0.76206 0.26584 0.0
H1398 H 0.76311 0.72393 0.18212 0.0
H1399 H 0.75089 0.74384 0.20856 0.0
H1400 H 0.78723 0.74555 0.26201 0.0
C1401 C 0.74713 0.77497 0.31559 0.0
C1402 C 0.73488 0.75869 0.26512 0.0
C1403 C 0.74054 0.78657 0.33074 0.0
C1404 C 0.76777 0.72159 0.19703 0.0
C1405 C 0.76078 0.73295 0.21219 0.0
C1406 C 0.77251 0.74894 0.26273 0.0
C1407 C 0.74051 0.77703 0.2962 0.0
C1408 C 0.74725 0.76485 0.27986 0.0
C1409 C 0.76693 0.7306 0.23171 0.0
C1410 C 0.76014 0.74278 0.248 0.0
H1411 H 0.7107 0.81318 0.30361 0.0
H1412 H 0.72224 0.7934 0.2776 0.0
H1413 H 0.77614 0.76453 0.28929 0.0
H1414 H 0.79675 0.69441 0.22458 0.0
H1415 H 0.78456 0.71383 0.25058 0.0
C1416 C 0.47502 0.52364 0.94161 0.0
C1417 C 0.45842 0.53338 0.94548 0.0
C1418 C 0.48662 0.51793 0.95716 0.0
C1419 C 0.49607 0.52882 1.00985 0.0
H1420 H 0.52298 0.482 1.00926 0.0
C1421 C 0.53574 0.49868 0.07784 0.0
C1422 C 0.5527 0.48959 0.0739 0.0
C1423 C 0.5244 0.50493 0.06231 0.0
C1424 C 0.51569 0.49523 1.00959 0.0
H1425 H 0.44042 0.54378 0.96862 0.0
H1426 H 0.46012 0.53348 0.99539 0.0
H1427 H 0.50308 0.49023 0.98157 0.0
H1428 H 0.57161 0.48102 0.05074 0.0
H1429 H 0.5522 0.49208 0.02401 0.0
H1430 H 0.50861 0.53372 0.03797 0.0
C1431 C 0.46467 0.53076 0.98052 0.0
C1432 C 0.5043 0.49996 0.99365 0.0
C1433 C 0.45327 0.53654 0.9651 0.0
C1434 C 0.5585 0.48776 0.05429 0.0
C1435 C 0.5473 0.49397 0.03891 0.0
C1436 C 0.50741 0.52405 0.02582 0.0
C1437 C 0.48172 0.52177 0.97683 0.0
C1438 C 0.49429 0.5168 0.99356 0.0
C1439 C 0.52987 0.50218 0.04263 0.0
C1440 C 0.51742 0.50722 0.02588 0.0
H1441 H 0.47939 0.52112 0.92663 0.0
H1442 H 0.49968 0.51107 0.95375 0.0
H1443 H 0.48887 0.54209 1.01019 0.0
H1444 H 0.53084 0.50015 0.0928 0.0
H1445 H 0.51104 0.51121 0.06568 0.0
C1446 C 0.97372 0.54845 0.56354 0.0
C1447 C 0.96685 0.53679 0.57848 0.0
C1448 C 0.98403 0.54119 0.54797 0.0
C1449 C 0.99115 0.49779 0.52022 0.0
H1450 H 0.03238 0.52511 0.49705 0.0
C1451 C 0.03842 0.46671 0.46011 0.0
C1452 C 0.04555 0.47836 0.44531 0.0
C1453 C 0.02788 0.47399 0.47551 0.0
C1454 C 0.0207 0.51746 0.50313 0.0
H1455 H 0.96601 0.50837 0.58914 0.0
H1456 H 0.98428 0.49551 0.56174 0.0
H1457 H 0.01765 0.53677 0.52688 0.0
H1458 H 0.04657 0.50676 0.43463 0.0
H1459 H 0.02788 0.51966 0.46169 0.0
H1460 H 0.99419 0.47848 0.49647 0.0
C1461 C 0.98147 0.51035 0.56209 0.0
C1462 C 0.01231 0.52407 0.52033 0.0
C1463 C 0.97119 0.5177 0.57789 0.0
C1464 C 0.04119 0.49745 0.44579 0.0
C1465 C 0.03068 0.50482 0.4614 0.0
C1466 C 0.99953 0.49117 0.50301 0.0
C1467 C 0.98776 0.52201 0.54678 0.0
C1468 C 0.99741 0.51434 0.52911 0.0
C1469 C 0.02418 0.49318 0.47664 0.0
C1470 C 0.01444 0.5009 0.49424 0.0
H1471 H 0.97071 0.56326 0.56359 0.0
H1472 H 0.98845 0.55059 0.53643 0.0
H1473 H 0.97948 0.49013 0.52632 0.0
H1474 H 0.04145 0.45191 0.46014 0.0
H1475 H 0.02331 0.4646 0.48699 0.0
C1476 C 0.03808 0.51642 0.07932 0.0
C1477 C 0.05341 0.52809 0.07545 0.0
C1478 C 0.02662 0.51016 0.06386 0.0
C1479 C 0.01389 0.52201 0.01225 0.0
H1480 H 0.9946 0.47158 1.01043 0.0
C1481 C 0.97579 0.49131 0.9436 0.0
C1482 C 0.96052 0.47953 0.94739 0.0
C1483 C 0.98713 0.49764 0.95912 0.0
C1484 C 0.99971 0.4858 1.01078 0.0
H1485 H 0.06912 0.54164 0.05222 0.0
H1486 H 0.04958 0.53063 0.0257 0.0
H1487 H 0.01379 0.48136 0.03815 0.0
H1488 H 0.94477 0.46588 0.97053 0.0
H1489 H 0.96411 0.47703 0.99716 0.0
H1490 H 0.99982 0.52645 0.98487 0.0
C1491 C 0.04597 0.52666 0.04055 0.0
C1492 C 0.0107 0.4914 0.02674 0.0
C1493 C 0.05729 0.53288 0.05585 0.0
C1494 C 0.95656 0.47472 0.96697 0.0
C1495 C 0.96776 0.48103 0.98233 0.0
C1496 C 1.0029 0.51641 0.99629 0.0
C1497 C 0.0303 0.51546 0.04429 0.0
C1498 C 0.01799 0.50957 0.02768 0.0
C1499 C 0.98339 0.49231 0.97867 0.0
C1500 C 0.99562 0.49823 0.99534 0.0
H1501 H 0.03468 0.51253 0.09425 0.0
H1502 H 0.01462 0.50157 0.0673 0.0
H1503 H 0.01901 0.53622 0.01259 0.0
H1504 H 0.97924 0.4952 0.92869 0.0
H1505 H 0.9991 0.50629 0.95575 0.0
C1506 C 0.54584 0.50715 0.44381 0.0
C1507 C 0.55222 0.52569 0.44378 0.0
C1508 C 0.53522 0.50037 0.45969 0.0
C1509 C 0.50623 0.51654 0.50187 0.0
H1510 H 0.51844 0.46869 0.52489 0.0
C1511 C 0.47434 0.49266 0.57616 0.0
C1512 C 0.46786 0.47417 0.57654 0.0
C1513 C 0.48549 0.49893 0.56049 0.0
C1514 C 0.51475 0.48205 0.51858 0.0
H1515 H 0.55185 0.55174 0.46008 0.0
H1516 H 0.53368 0.54006 0.48724 0.0
H1517 H 0.53461 0.47893 0.49525 0.0
H1518 H 0.46882 0.44757 0.56135 0.0
H1519 H 0.48796 0.45838 0.53442 0.0
H1520 H 0.48635 0.51968 0.52511 0.0
C1521 C 0.53671 0.53068 0.4752 0.0
C1522 C 0.52396 0.48785 0.5015 0.0
C1523 C 0.54734 0.53733 0.4596 0.0
C1524 C 0.47344 0.46196 0.56148 0.0
C1525 C 0.48459 0.46813 0.54603 0.0
C1526 C 0.49701 0.51074 0.51892 0.0
C1527 C 0.53059 0.5121 0.47561 0.0
C1528 C 0.51989 0.50522 0.49296 0.0
C1529 C 0.49053 0.48676 0.54507 0.0
C1530 C 0.50114 0.49342 0.52753 0.0
H1531 H 0.54938 0.49785 0.43186 0.0
H1532 H 0.53061 0.48598 0.4595 0.0
H1533 H 0.50254 0.52991 0.49557 0.0
H1534 H 0.47025 0.50239 0.58753 0.0
H1535 H 0.49 0.51334 0.56033 0.0
C1536 C 0.32821 0.24234 0.12568 0.0
C1537 C 0.32495 0.25492 0.14113 0.0
C1538 C 0.33229 0.22366 0.12943 0.0
C1539 C 0.35004 0.19201 0.16791 0.0
H1540 H 0.33382 0.15447 0.1307 0.0
C1541 C 0.3871 0.12113 0.15956 0.0
C1542 C 0.3771 0.10567 0.15246 0.0
C1543 C 0.3784 0.13846 0.16165 0.0
C1544 C 0.33823 0.16461 0.14152 0.0
H1545 H 0.32321 0.25743 0.17279 0.0
H1546 H 0.3299 0.22459 0.17934 0.0
H1547 H 0.32229 0.18611 0.12776 0.0
H1548 H 0.34986 0.09593 0.14324 0.0
H1549 H 0.33443 0.12602 0.14753 0.0
H1550 H 0.36579 0.17037 0.18185 0.0
C1551 C 0.32957 0.22936 0.16427 0.0
C1552 C 0.33183 0.18291 0.13962 0.0
C1553 C 0.32555 0.24817 0.16051 0.0
C1554 C 0.35794 0.10766 0.14857 0.0
C1555 C 0.34916 0.12495 0.15091 0.0
C1556 C 0.35633 0.17362 0.16994 0.0
C1557 C 0.33306 0.21688 0.14875 0.0
C1558 C 0.33806 0.19699 0.15243 0.0
C1559 C 0.35941 0.14074 0.15689 0.0
C1560 C 0.35088 0.15975 0.15646 0.0
H1561 H 0.32757 0.24682 0.11056 0.0
H1562 H 0.3352 0.21462 0.11708 0.0
H1563 H 0.35519 0.20246 0.17804 0.0
H1564 H 0.40195 0.1201 0.16241 0.0
H1565 H 0.38688 0.15026 0.166 0.0
C1566 C 0.00816 0.09277 0.38793 0.0
C1567 C 1.00042 0.07711 0.39725 0.0
C1568 C 0.02601 0.09903 0.39281 0.0
C1569 C 0.06069 0.11473 0.41221 0.0
H1570 H 0.1004 0.07798 0.4123 0.0
C1571 C 0.13754 0.13717 0.41894 0.0
C1572 C 0.14942 0.1295 0.40463 0.0
C1573 C 0.11985 0.12952 0.42231 0.0
C1574 C 0.08945 0.0884 0.41241 0.0
H1575 H 1.00516 0.05592 0.41931 0.0
H1576 H 0.03668 0.06682 0.42783 0.0
H1577 H 0.06785 0.06777 0.41032 0.0
H1578 H 0.1525 0.107 0.38364 0.0
H1579 H 0.12161 0.09377 0.38938 0.0
H1580 H 0.08218 0.1354 0.41348 0.0
C1581 C 0.02882 0.07424 0.41673 0.0
C1582 C 0.07081 0.08255 0.41146 0.0
C1583 C 0.01076 0.06809 0.41198 0.0
C1584 C 0.14361 0.11336 0.39461 0.0
C1585 C 0.12596 0.10567 0.39804 0.0
C1586 C 0.07928 0.12058 0.41328 0.0
C1587 C 0.03668 0.0897 0.40705 0.0
C1588 C 0.05625 0.09568 0.41085 0.0
C1589 C 0.11365 0.11398 0.41152 0.0
C1590 C 0.09392 0.10751 0.41294 0.0
H1591 H 1.00044 0.10008 0.37665 0.0
H1592 H 0.0317 0.11085 0.38493 0.0
H1593 H 0.04977 0.12519 0.41196 0.0
H1594 H 0.1415 0.14967 0.42683 0.0
H1595 H 0.1108 0.13612 0.43298 0.0
C1596 C 0.11859 0.87813 0.63881 0.0
C1597 C 0.12767 0.89427 0.64554 0.0
C1598 C 0.1258 0.8605 0.64283 0.0
C1599 C 0.16912 0.8357 0.65336 0.0
H1600 H 0.13501 0.79508 0.66469 0.0
C1601 C 0.19261 0.75791 0.65565 0.0
C1602 C 0.18126 0.74608 0.64429 0.0
C1603 C 0.18679 0.77613 0.66002 0.0
C1604 C 0.14473 0.80626 0.66156 0.0
H1605 H 0.15133 0.90459 0.6621 0.0
H1606 H 0.16421 0.87345 0.66906 0.0
H1607 H 0.1236 0.82709 0.66486 0.0
H1608 H 0.15466 0.74375 0.62939 0.0
H1609 H 0.14452 0.7753 0.63695 0.0
H1610 H 0.19011 0.8147 0.6494 0.0
C1611 C 0.15145 0.8746 0.66061 0.0
C1612 C 0.1382 0.8246 0.66166 0.0
C1613 C 0.14406 0.89237 0.65673 0.0
C1614 C 0.16377 0.75259 0.638 0.0
C1615 C 0.15789 0.77063 0.64252 0.0
C1616 C 0.17568 0.81728 0.65327 0.0
C1617 C 0.14235 0.85847 0.65368 0.0
C1618 C 0.15015 0.83949 0.6569 0.0
C1619 C 0.1694 0.78271 0.65338 0.0
C1620 C 0.16339 0.80232 0.65672 0.0
H1621 H 0.1058 0.87912 0.63038 0.0
H1622 H 0.11858 0.84841 0.63703 0.0
H1623 H 0.17865 0.84686 0.64956 0.0
H1624 H 0.20621 0.75328 0.66059 0.0
H1625 H 0.19593 0.78509 0.66848 0.0
C1626 C 0.50097 0.9414 0.89701 0.0
C1627 C 0.51242 0.92931 0.88612 0.0
C1628 C 0.48158 0.93888 0.89731 0.0
C1629 C 0.44285 0.91724 0.87001 0.0
H1630 H 0.41748 0.9156 0.92026 0.0
C1631 C 0.36439 0.90244 0.87412 0.0
C1632 C 0.35947 0.88786 0.88691 0.0
C1633 C 0.3819 0.91092 0.87543 0.0
C1634 C 0.42437 0.9161 0.90613 0.0
H1635 H 0.51257 0.9055 0.86658 0.0
H1636 H 0.47876 0.90117 0.86694 0.0
H1637 H 0.45069 0.92364 0.91888 0.0
H1638 H 0.36864 0.87164 0.91196 0.0
H1639 H 0.39919 0.88655 0.91434 0.0
H1640 H 0.4168 0.9092 0.85725 0.0
C1641 C 0.48473 0.91257 0.87527 0.0
C1642 C 0.44332 0.92083 0.90532 0.0
C1643 C 0.50408 0.91495 0.87517 0.0
C1644 C 0.37193 0.88292 0.90197 0.0
C1645 C 0.38947 0.89145 0.90331 0.0
C1646 C 0.42391 0.91268 0.87079 0.0
C1647 C 0.47329 0.92438 0.8865 0.0
C1648 C 0.45283 0.92111 0.88728 0.0
C1649 C 0.39488 0.90507 0.88961 0.0
C1650 C 0.41451 0.91177 0.88887 0.0
H1651 H 0.50704 0.95245 0.90576 0.0
H1652 H 0.47309 0.94824 0.90602 0.0
H1653 H 0.44977 0.91749 0.85589 0.0
H1654 H 0.35495 0.90682 0.86259 0.0
H1655 H 0.38553 0.92166 0.86492 0.0
C1656 C 0.3799 0.89088 0.35875 0.0
C1657 C 0.39678 0.89295 0.36908 0.0
C1658 C 0.37247 0.87308 0.3552 0.0
C1659 C 0.38516 0.82268 0.35487 0.0
H1660 H 0.3327 0.81462 0.36606 0.0
C1661 C 0.35578 0.75126 0.37686 0.0
C1662 C 0.33815 0.74573 0.36995 0.0
C1663 C 0.36269 0.76906 0.37288 0.0
C1664 C 0.3473 0.81667 0.36253 0.0
H1665 H 0.41949 0.87792 0.38295 0.0
H1666 H 0.40651 0.84712 0.37708 0.0
H1667 H 0.34527 0.8463 0.36608 0.0
H1668 H 0.31406 0.75444 0.35309 0.0
H1669 H 0.32612 0.78581 0.34615 0.0
H1670 H 0.38734 0.79302 0.352 0.0
C1671 C 0.39898 0.85914 0.3716 0.0
C1672 C 0.35452 0.83485 0.36254 0.0
C1673 C 0.40633 0.87684 0.3752 0.0
C1674 C 0.32774 0.75829 0.3585 0.0
C1675 C 0.33458 0.77627 0.35468 0.0
C1676 C 0.37798 0.80455 0.35494 0.0
C1677 C 0.38187 0.85699 0.36174 0.0
C1678 C 0.37365 0.83802 0.35921 0.0
C1679 C 0.35208 0.7819 0.36199 0.0
C1680 C 0.35907 0.80129 0.35926 0.0
H1681 H 0.37217 0.90301 0.35391 0.0
H1682 H 0.35934 0.87192 0.34742 0.0
H1683 H 0.39987 0.82463 0.35181 0.0
H1684 H 0.3642 0.74182 0.38555 0.0
H1685 H 0.37612 0.77298 0.37891 0.0
C1686 C 0.37268 0.13279 0.61137 0.0
C1687 C 0.36037 0.12609 0.62577 0.0
C1688 C 0.39027 0.12467 0.6089 0.0
C1689 C 0.42501 0.09736 0.63696 0.0
H1690 H 0.45129 0.09694 0.58725 0.0
C1691 C 0.50147 0.07178 0.62962 0.0
C1692 C 0.51332 0.08401 0.6194 0.0
C1693 C 0.48208 0.07433 0.6292 0.0
C1694 C 0.44412 0.09699 0.60124 0.0
H1695 H 0.3563 0.10483 0.64794 0.0
H1696 H 0.3868 0.09031 0.64329 0.0
H1697 H 0.41827 0.10531 0.58814 0.0
H1698 H 0.51413 0.10803 0.60013 0.0
H1699 H 0.48039 0.11249 0.59938 0.0
H1700 H 0.45094 0.08916 0.65003 0.0
C1701 C 0.38313 0.1022 0.63429 0.0
C1702 C 0.42521 0.10184 0.60177 0.0
C1703 C 0.3656 0.11043 0.63688 0.0
C1704 C 0.50538 0.09853 0.60836 0.0
C1705 C 0.48604 0.10095 0.60775 0.0
C1706 C 0.44387 0.09236 0.63639 0.0
C1707 C 0.39592 0.10955 0.62066 0.0
C1708 C 0.41548 0.10245 0.6197 0.0
C1709 C 0.47417 0.089 0.61831 0.0
C1710 C 0.45372 0.09247 0.61858 0.0
H1711 H 0.36915 0.14499 0.60276 0.0
H1712 H 0.39977 0.1309 0.59843 0.0
H1713 H 0.41814 0.09797 0.65109 0.0
H1714 H 0.50721 0.06053 0.63832 0.0
H1715 H 0.47328 0.06485 0.6374 0.0
C1716 C 0.16337 0.25621 0.89774 0.0
C1717 C 0.17865 0.26389 0.88768 0.0
C1718 C 0.16026 0.23696 0.89766 0.0
C1719 C 0.16934 0.19479 0.86874 0.0
H1720 H 0.15399 0.16915 0.91614 0.0
C1721 C 0.13215 0.1229 0.86985 0.0
C1722 C 0.13632 0.11061 0.88533 0.0
C1723 C 0.1402 0.14068 0.86917 0.0
C1724 C 0.15847 0.17603 0.90281 0.0
H1725 H 0.20265 0.25738 0.86956 0.0
H1726 H 0.19723 0.2237 0.86942 0.0
H1727 H 0.1624 0.20208 0.91763 0.0
H1728 H 0.15343 0.10684 0.91129 0.0
H1729 H 0.16737 0.13787 0.91013 0.0
H1730 H 0.16511 0.16874 0.85388 0.0
C1731 C 0.18768 0.23261 0.87741 0.0
C1732 C 0.1631 0.19495 0.90363 0.0
C1733 C 0.19089 0.25187 0.87767 0.0
C1734 C 0.14962 0.11609 0.89938 0.0
C1735 C 0.1576 0.13388 0.89874 0.0
C1736 C 0.16454 0.17587 0.86788 0.0
C1737 C 0.17227 0.22496 0.88733 0.0
C1738 C 0.16841 0.20459 0.88659 0.0
C1739 C 0.15255 0.14658 0.88397 0.0
C1740 C 0.15893 0.16631 0.88489 0.0
H1741 H 0.15376 0.26514 0.90563 0.0
H1742 H 0.14818 0.23152 0.9053 0.0
H1743 H 0.17326 0.20187 0.85533 0.0
H1744 H 0.12183 0.11922 0.8589 0.0
H1745 H 0.13594 0.15017 0.85765 0.0
C1746 C 0.12761 0.86706 0.11673 0.0
C1747 C 0.14285 0.87558 0.12609 0.0
C1748 C 0.11054 0.8763 0.11516 0.0
C1749 C 0.08217 0.91129 0.14008 0.0
H1750 H 0.05089 0.90616 0.09396 0.0
C1751 C 1.00521 0.93762 0.13703 0.0
C1752 C 0.99246 0.92495 0.1287 0.0
C1753 C 0.0245 0.93446 0.13568 0.0
C1754 C 0.05942 0.90767 0.10698 0.0
H1755 H 0.15238 0.90067 0.1407 0.0
H1756 H 0.12231 0.91694 0.13805 0.0
H1757 H 0.08331 0.89587 0.09278 0.0
H1758 H 0.99012 0.89925 0.11205 0.0
H1759 H 0.02341 0.89361 0.11007 0.0
H1760 H 0.05805 0.92252 0.15448 0.0
C1761 C 0.12365 0.90306 0.13193 0.0
C1762 C 0.07801 0.90182 0.10628 0.0
C1763 C 0.14087 0.89384 0.1333 0.0
C1764 C 0.99945 0.90917 0.11892 0.0
C1765 C 0.01862 0.90607 0.1175 0.0
C1766 C 0.06352 0.91712 0.1408 0.0
C1767 C 0.10824 0.89427 0.12306 0.0
C1768 C 0.08945 0.90308 0.12297 0.0
C1769 C 0.0314 0.91867 0.1258 0.0
C1770 C 0.05179 0.91487 0.12441 0.0
H1771 H 0.12879 0.85302 0.11098 0.0
H1772 H 0.09892 0.86905 0.10843 0.0
H1773 H 0.0906 0.91232 0.15323 0.0
H1774 H 1.00028 0.94986 0.14473 0.0
H1775 H 0.03399 0.94447 0.14219 0.0
C1776 C 0.69503 0.76454 0.89783 0.0
C1777 C 0.69182 0.7518 0.88259 0.0
C1778 C 0.69082 0.78338 0.89546 0.0
C1779 C 0.67788 0.82011 0.85917 0.0
H1780 H 0.65521 0.84236 0.90521 0.0
C1781 C 0.63585 0.89015 0.86108 0.0
C1782 C 0.63827 0.90131 0.87787 0.0
C1783 C 0.64495 0.8729 0.85952 0.0
C1784 C 0.66174 0.83647 0.89229 0.0
H1785 H 0.6825 0.74879 0.85259 0.0
H1786 H 0.67446 0.78186 0.84849 0.0
H1787 H 0.66579 0.81032 0.90647 0.0
H1788 H 0.65346 0.90402 0.90522 0.0
H1789 H 0.66931 0.87406 0.90249 0.0
H1790 H 0.67308 0.84643 0.84491 0.0
C1791 C 0.68054 0.77733 0.86222 0.0
C1792 C 0.66789 0.81805 0.89301 0.0
C1793 C 0.68508 0.75841 0.86454 0.0
C1794 C 0.65104 0.89556 0.8923 0.0
C1795 C 0.66009 0.87839 0.89074 0.0
C1796 C 0.67153 0.83862 0.8584 0.0
C1797 C 0.68292 0.78996 0.87788 0.0
C1798 C 0.67624 0.80963 0.87657 0.0
C1799 C 0.6566 0.86655 0.87472 0.0
C1800 C 0.66357 0.84703 0.87506 0.0
H1801 H 0.7006 0.75983 0.91174 0.0
H1802 H 0.69344 0.79275 0.90762 0.0
H1803 H 0.6843 0.81411 0.84625 0.0
H1804 H 0.62602 0.89418 0.84977 0.0
H1805 H 0.64197 0.86406 0.84701 0.0
C1806 C 0.99945 0.94432 0.62011 0.0
C1807 C 0.01119 0.93367 0.63222 0.0
C1808 C 0.98001 0.94216 0.62118 0.0
C1809 C 0.94215 0.9256 0.6531 0.0
H1810 H 0.91729 0.90944 0.6055 0.0
C1811 C 0.87649 0.88049 0.65529 0.0
C1812 C 0.86293 0.88185 0.64045 0.0
C1813 C 0.89294 0.89085 0.6543 0.0
C1814 C 0.92383 0.91434 0.61886 0.0
H1815 H 0.01205 0.91318 0.65548 0.0
H1816 H 0.97819 0.90973 0.65775 0.0
H1817 H 0.94933 0.92103 0.60392 0.0
H1818 H 0.85576 0.89577 0.61326 0.0
H1819 H 0.88449 0.91426 0.61169 0.0
H1820 H 0.91691 0.91875 0.66815 0.0
C1821 C 0.9839 0.91959 0.64731 0.0
C1822 C 0.94221 0.92095 0.61794 0.0
C1823 C 1.00324 0.92146 0.64595 0.0
C1824 C 0.86594 0.89441 0.62492 0.0
C1825 C 0.88247 0.90487 0.62395 0.0
C1826 C 0.92375 0.91923 0.654 0.0
C1827 C 0.9721 0.92967 0.63473 0.0
C1828 C 0.95173 0.92603 0.63515 0.0
C1829 C 0.89627 0.90305 0.63854 0.0
C1830 C 0.91457 0.91285 0.63701 0.0
H1831 H 1.00534 0.95373 0.60933 0.0
H1832 H 0.97119 0.95008 0.61133 0.0
H1833 H 0.94912 0.92966 0.66655 0.0
H1834 H 0.87449 0.87124 0.66767 0.0
H1835 H 0.9033 0.88881 0.66567 0.0
C1836 C 0.89477 0.12462 0.35405 0.0
C1837 C 0.89029 0.11452 0.37109 0.0
C1838 C 0.88664 0.14207 0.3505 0.0
C1839 C 0.84767 0.17325 0.36567 0.0
H1840 H 0.88192 0.21305 0.35196 0.0
C1841 C 0.85358 0.2568 0.37781 0.0
C1842 C 0.83565 0.26282 0.37238 0.0
C1843 C 0.85959 0.23875 0.37347 0.0
C1844 C 0.87215 0.20208 0.3557 0.0
H1845 H 0.87304 0.11439 0.39721 0.0
H1846 H 0.85901 0.14478 0.39114 0.0
H1847 H 0.89293 0.18086 0.35238 0.0
H1848 H 0.81013 0.2548 0.35756 0.0
H1849 H 0.82063 0.22303 0.34995 0.0
H1850 H 0.8271 0.19459 0.36981 0.0
C1851 C 0.86875 0.13926 0.38046 0.0
C1852 C 0.87841 0.1836 0.35576 0.0
C1853 C 0.87695 0.12191 0.38406 0.0
C1854 C 0.82405 0.25056 0.36185 0.0
C1855 C 0.83001 0.23235 0.35765 0.0
C1856 C 0.84138 0.19174 0.36552 0.0
C1857 C 0.87372 0.14972 0.36382 0.0
C1858 C 0.86637 0.169 0.36123 0.0
C1859 C 0.84777 0.22617 0.36366 0.0
C1860 C 0.85368 0.20641 0.36103 0.0
H1861 H 0.90506 0.11934 0.34382 0.0
H1862 H 0.89066 0.1497 0.33746 0.0
H1863 H 0.83798 0.16231 0.36972 0.0
H1864 H 0.8629 0.266 0.38575 0.0
H1865 H 0.87327 0.23443 0.3785 0.0
C1866 C 0.50143 0.09906 0.11918 0.0
C1867 C 0.49423 0.08325 0.12875 0.0
C1868 C 0.52061 0.10233 0.11854 0.0
C1869 C 0.56471 0.09173 0.14372 0.0
H1870 H 0.5861 0.11306 0.09651 0.0
C1871 C 0.6422 0.11528 0.13909 0.0
C1872 C 0.64437 0.13355 0.132 0.0
C1873 C 0.62506 0.10602 0.13711 0.0
C1874 C 0.58035 0.10709 0.10979 0.0
H1875 H 0.50167 0.05852 0.14526 0.0
H1876 H 0.53539 0.06421 0.14405 0.0
H1877 H 0.55373 0.10256 0.09639 0.0
H1878 H 0.63074 0.15613 0.11652 0.0
H1879 H 0.60098 0.14003 0.11291 0.0
H1880 H 0.5913 0.0967 0.15721 0.0
C1881 C 0.52606 0.07409 0.1371 0.0
C1882 C 0.56179 0.10112 0.10975 0.0
C1883 C 0.50677 0.07076 0.13768 0.0
C1884 C 0.6294 0.14208 0.12219 0.0
C1885 C 0.61241 0.13279 0.12001 0.0
C1886 C 0.58334 0.09767 0.14373 0.0
C1887 C 0.53319 0.0899 0.12743 0.0
C1888 C 0.55358 0.09388 0.12687 0.0
C1889 C 0.60992 0.11479 0.12774 0.0
C1890 C 0.59119 0.1059 0.12692 0.0
H1891 H 0.49229 0.10884 0.11187 0.0
H1892 H 0.52557 0.11481 0.11125 0.0
H1893 H 0.55879 0.08631 0.15717 0.0
H1894 H 0.65351 0.10845 0.14682 0.0
H1895 H 0.62356 0.09211 0.14311 0.0
C1896 C 0.66343 0.25858 0.66134 0.0
C1897 C 0.67854 0.26607 0.6508 0.0
C1898 C 0.66032 0.23936 0.66178 0.0
C1899 C 0.6686 0.19671 0.63362 0.0
H1900 H 0.65294 0.17205 0.6815 0.0
C1901 C 0.64912 0.11861 0.63388 0.0
C1902 C 0.63297 0.11377 0.64444 0.0
C1903 C 0.65734 0.13618 0.63625 0.0
C1904 C 0.65716 0.17873 0.66796 0.0
H1905 H 0.70233 0.25921 0.63259 0.0
H1906 H 0.69682 0.22546 0.63324 0.0
H1907 H 0.66226 0.20477 0.68243 0.0
H1908 H 0.6131 0.12343 0.66614 0.0
H1909 H 0.62723 0.15406 0.67012 0.0
H1910 H 0.6629 0.17096 0.61897 0.0
C1911 C 0.68739 0.23455 0.64117 0.0
C1912 C 0.66255 0.19748 0.66852 0.0
C1913 C 0.69063 0.25384 0.64089 0.0
C1914 C 0.62568 0.12661 0.65799 0.0
C1915 C 0.63382 0.14422 0.66026 0.0
C1916 C 0.66308 0.17799 0.63303 0.0
C1917 C 0.67215 0.22711 0.65158 0.0
C1918 C 0.66806 0.20676 0.6513 0.0
C1919 C 0.64955 0.14939 0.64914 0.0
C1920 C 0.65701 0.16881 0.65014 0.0
H1921 H 0.65401 0.2676 0.66934 0.0
H1922 H 0.64835 0.23411 0.66978 0.0
H1923 H 0.67257 0.20352 0.62007 0.0
H1924 H 0.65521 0.10893 0.62351 0.0
H1925 H 0.66967 0.1395 0.62774 0.0
C1926 C 0.64835 0.90401 0.38971 0.0
C1927 C 0.65197 0.88751 0.40018 0.0
C1928 C 0.6311 0.91297 0.39137 0.0
C1929 C 0.58741 0.91654 0.42008 0.0
H1930 H 0.56535 0.92615 0.36917 0.0
C1931 C 0.50834 0.93284 0.40845 0.0
C1932 C 0.50358 0.9443 0.39254 0.0
C1933 C 0.52702 0.92772 0.41161 0.0
C1934 C 0.57134 0.92397 0.38357 0.0
H1935 H 0.64061 0.86815 0.42154 0.0
H1936 H 0.61057 0.88399 0.42461 0.0
H1937 H 0.5971 0.91471 0.37117 0.0
H1938 H 0.51445 0.96063 0.36848 0.0
H1939 H 0.54696 0.95255 0.37438 0.0
H1940 H 0.56151 0.92588 0.43246 0.0
C1941 C 0.62112 0.88996 0.41512 0.0
C1942 C 0.5896 0.91733 0.38469 0.0
C1943 C 0.63838 0.88092 0.41338 0.0
C1944 C 0.51781 0.95151 0.38063 0.0
C1945 C 0.53641 0.94673 0.38396 0.0
C1946 C 0.5691 0.92342 0.41898 0.0
C1947 C 0.61709 0.90572 0.40362 0.0
C1948 C 0.59787 0.91353 0.40292 0.0
C1949 C 0.54125 0.93423 0.39905 0.0
C1950 C 0.56083 0.92725 0.40067 0.0
H1951 H 0.65864 0.90969 0.37973 0.0
H1952 H 0.62852 0.92531 0.38261 0.0
H1953 H 0.59345 0.91374 0.43435 0.0
H1954 H 0.49753 0.92709 0.41776 0.0
H1955 H 0.53017 0.91802 0.42332 0.0
C1956 C 0.8832 0.88626 0.162 0.0
C1957 C 0.87482 0.8999 0.15002 0.0
C1958 C 0.87518 0.86856 0.16398 0.0
C1959 C 0.84772 0.83566 0.13575 0.0
H1960 H 0.84471 0.80745 0.1842 0.0
C1961 C 0.84679 0.75533 0.13893 0.0
C1962 C 0.83331 0.74684 0.15093 0.0
C1963 C 0.84926 0.77465 0.13921 0.0
C1964 C 0.84532 0.81523 0.17059 0.0
H1965 H 0.85059 0.90584 0.13191 0.0
H1966 H 0.83698 0.87475 0.13492 0.0
H1967 H 0.85338 0.84055 0.18515 0.0
H1968 H 0.81186 0.75184 0.17266 0.0
H1969 H 0.81651 0.78581 0.17353 0.0
H1970 H 0.84041 0.81021 0.12113 0.0
C1971 C 0.84983 0.87782 0.14267 0.0
C1972 C 0.85036 0.8341 0.17113 0.0
C1973 C 0.8577 0.89561 0.1409 0.0
C1974 C 0.82225 0.75809 0.16318 0.0
C1975 C 0.82499 0.77744 0.16376 0.0
C1976 C 0.843 0.81675 0.1352 0.0
C1977 C 0.85871 0.86399 0.15387 0.0
C1978 C 0.85178 0.84446 0.15368 0.0
C1979 C 0.83853 0.78589 0.15177 0.0
C1980 C 0.84195 0.80629 0.15258 0.0
H1981 H 0.89651 0.88883 0.16903 0.0
H1982 H 0.88243 0.85812 0.17258 0.0
H1983 H 0.84888 0.84324 0.12206 0.0
H1984 H 0.85539 0.74698 0.12927 0.0
H1985 H 0.85989 0.78078 0.12992 0.0
C1986 C 1.00144 0.07218 0.88703 0.0
C1987 C 0.01357 0.08465 0.89655 0.0
C1988 C 0.98207 0.07459 0.88822 0.0
C1989 C 0.94536 0.09709 0.91797 0.0
H1990 H 0.91646 0.09655 0.86991 0.0
C1991 C 0.87343 0.13232 0.91111 0.0
C1992 C 0.86035 0.12515 0.89774 0.0
C1993 C 0.89109 0.12421 0.91288 0.0
C1994 C 0.92418 0.09636 0.88356 0.0
H1995 H 0.01489 0.10912 0.91521 0.0
H1996 H 0.98122 0.11339 0.91717 0.0
H1997 H 0.94942 0.08834 0.86901 0.0
H1998 H 0.85497 0.10303 0.87683 0.0
H1999 H 0.88565 0.08857 0.88023 0.0
H2000 H 0.92021 0.10531 0.93253 0.0
C2001 C 0.98664 0.10173 0.90881 0.0
C2002 C 0.94312 0.09171 0.883 0.0
C2003 C 0.00594 0.09944 0.90746 0.0
C2004 C 0.86487 0.10899 0.88708 0.0
C2005 C 0.88249 0.10079 0.88895 0.0
C2006 C 0.92639 0.10162 0.91856 0.0
C2007 C 0.97448 0.08938 0.89917 0.0
C2008 C 0.954 0.09241 0.90012 0.0
C2009 C 0.89603 0.10865 0.90142 0.0
C2010 C 0.91563 0.1017 0.9013 0.0
H2011 H 0.00693 0.0607 0.87848 0.0
H2012 H 0.97303 0.06482 0.88068 0.0
H2013 H 0.95335 0.09746 0.93146 0.0
H2014 H 0.87045 0.1449 0.91935 0.0
H2015 H 0.90119 0.13081 0.92246 0.0
C2016 C 0.8597 0.61642 0.63141 0.0
C2017 C 0.87371 0.61124 0.64479 0.0
C2018 C 0.85075 0.63365 0.63306 0.0
C2019 C 0.84137 0.67416 0.66489 0.0
H2020 H 0.84396 0.70162 0.616 0.0
C2021 C 0.82677 0.75401 0.65909 0.0
C2022 C 0.81915 0.76063 0.64144 0.0
C2023 C 0.83168 0.73516 0.66106 0.0
C2024 C 0.84272 0.69413 0.62972 0.0
H2025 H 0.88833 0.61961 0.67124 0.0
H2026 H 0.87243 0.64967 0.67427 0.0
H2027 H 0.85461 0.66957 0.61712 0.0
H2028 H 0.80937 0.75266 0.61262 0.0
H2029 H 0.81708 0.71982 0.6162 0.0
H2030 H 0.82927 0.69878 0.67745 0.0
C2031 C 0.86847 0.64035 0.66247 0.0
C2032 C 0.84892 0.67571 0.63035 0.0
C2033 C 0.87753 0.62311 0.66075 0.0
C2034 C 0.8156 0.74795 0.62622 0.0
C2035 C 0.82014 0.72915 0.62827 0.0
C2036 C 0.83489 0.69262 0.66422 0.0
C2037 C 0.85549 0.64606 0.64821 0.0
C2038 C 0.84829 0.66549 0.64789 0.0
C2039 C 0.82876 0.72254 0.64548 0.0
C2040 C 0.83544 0.70284 0.64657 0.0
H2041 H 0.85611 0.60744 0.6192 0.0
H2042 H 0.84054 0.63754 0.62208 0.0
H2043 H 0.84074 0.66659 0.67862 0.0
H2044 H 0.82966 0.76357 0.67101 0.0
H2045 H 0.83837 0.73066 0.67448 0.0
C2046 C 0.63133 0.642 0.905 0.0
C2047 C 0.64632 0.63304 0.89565 0.0
C2048 C 0.61428 0.63288 0.90744 0.0
C2049 C 0.58536 0.59691 0.88479 0.0
H2050 H 0.55463 0.6047 0.93088 0.0
C2051 C 0.50814 0.572 0.88946 0.0
C2052 C 0.49565 0.58545 0.89676 0.0
C2053 C 0.52748 0.57474 0.89093 0.0
C2054 C 0.56302 0.60242 0.91789 0.0
H2055 H 0.65543 0.60731 0.88204 0.0
H2056 H 0.62542 0.59126 0.88625 0.0
H2057 H 0.58718 0.61468 0.93115 0.0
H2058 H 0.49372 0.612 0.91187 0.0
H2059 H 0.52718 0.61689 0.91414 0.0
H2060 H 0.56098 0.58521 0.8713 0.0
C2061 C 0.62693 0.60539 0.89165 0.0
C2062 C 0.58167 0.6081 0.91806 0.0
C2063 C 0.64412 0.61449 0.88939 0.0
C2064 C 0.50291 0.60149 0.90582 0.0
C2065 C 0.52214 0.60417 0.90739 0.0
C2066 C 0.56665 0.59122 0.88461 0.0
C2067 C 0.61174 0.6146 0.90047 0.0
C2068 C 0.59291 0.60591 0.90132 0.0
C2069 C 0.53468 0.59088 0.89992 0.0
C2070 C 0.55513 0.59442 0.90097 0.0
H2071 H 0.63268 0.65626 0.91007 0.0
H2072 H 0.60284 0.64047 0.91408 0.0
H2073 H 0.5936 0.59515 0.8716 0.0
H2074 H 0.50298 0.55954 0.88232 0.0
H2075 H 0.53678 0.56421 0.8851 0.0
C2076 C 0.62628 0.38968 0.16156 0.0
C2077 C 0.62684 0.39917 0.14352 0.0
C2078 C 0.63534 0.37244 0.16371 0.0
C2079 C 0.64927 0.3331 0.13272 0.0
H2080 H 0.67798 0.31555 0.17728 0.0
C2081 C 0.68917 0.26497 0.12737 0.0
C2082 C 0.68759 0.25226 0.14293 0.0
C2083 C 0.68339 0.28339 0.12959 0.0
C2084 C 0.66984 0.32023 0.16483 0.0
H2085 H 0.63858 0.39899 0.11425 0.0
H2086 H 0.65449 0.36921 0.11803 0.0
H2087 H 0.66501 0.34731 0.17748 0.0
H2088 H 0.67974 0.24907 0.17339 0.0
H2089 H 0.66924 0.28153 0.1773 0.0
H2090 H 0.65376 0.30629 0.12006 0.0
C2091 C 0.64668 0.37472 0.13034 0.0
C2092 C 0.66244 0.33839 0.16494 0.0
C2093 C 0.63763 0.39179 0.12819 0.0
C2094 C 0.68107 0.25863 0.16118 0.0
C2095 C 0.67509 0.27717 0.16339 0.0
C2096 C 0.65655 0.31511 0.13263 0.0
C2097 C 0.6451 0.36451 0.14786 0.0
C2098 C 0.65238 0.3451 0.14868 0.0
C2099 C 0.67567 0.28958 0.14739 0.0
C2100 C 0.66723 0.30853 0.14848 0.0
H2101 H 0.61803 0.39509 0.1736 0.0
H2102 H 0.6339 0.36489 0.17739 0.0
H2103 H 0.64111 0.33763 0.12022 0.0
H2104 H 0.69457 0.26053 0.1133 0.0
H2105 H 0.68457 0.29271 0.11715 0.0
C2106 C 0.00887 0.40867 0.38628 0.0
C2107 C 0.01606 0.4248 0.39522 0.0
C2108 C 0.98973 0.40495 0.38661 0.0
C2109 C 0.94656 0.41482 0.41385 0.0
H2110 H 0.92287 0.39563 0.36686 0.0
C2111 C 0.87472 0.37667 0.41235 0.0
C2112 C 0.86353 0.37917 0.39563 0.0
C2113 C 0.89236 0.38511 0.41351 0.0
C2114 C 0.92917 0.40118 0.38007 0.0
H2115 H 0.00878 0.44963 0.41166 0.0
H2116 H 0.9752 0.44315 0.41216 0.0
H2117 H 0.95556 0.40474 0.36589 0.0
H2118 H 0.86118 0.39371 0.36789 0.0
H2119 H 0.8917 0.40864 0.37003 0.0
H2120 H 0.92006 0.41107 0.42804 0.0
C2121 C 0.98444 0.43339 0.40492 0.0
C2122 C 0.94799 0.40621 0.37956 0.0
C2123 C 1.00363 0.4372 0.40444 0.0
C2124 C 0.86966 0.39133 0.38082 0.0
C2125 C 0.88717 0.39979 0.382 0.0
C2126 C 0.92768 0.40966 0.4144 0.0
C2127 C 0.97729 0.4172 0.396 0.0
C2128 C 0.95697 0.41291 0.39646 0.0
C2129 C 0.89904 0.39623 0.398 0.0
C2130 C 0.91879 0.4027 0.39752 0.0
H2131 H 0.01807 0.39892 0.37897 0.0
H2132 H 0.98471 0.39226 0.37977 0.0
H2133 H 0.95313 0.41983 0.42716 0.0
H2134 H 0.87035 0.36728 0.42392 0.0
H2135 H 0.90117 0.38204 0.42601 0.0
C2136 C 0.88674 0.38539 0.86114 0.0
C2137 C 0.87924 0.39843 0.87435 0.0
C2138 C 0.87872 0.3677 0.85914 0.0
C2139 C 0.84947 0.33443 0.88707 0.0
H2140 H 0.85139 0.30607 0.83868 0.0
C2141 C 0.82265 0.25824 0.8815 0.0
C2142 C 0.83501 0.24574 0.87236 0.0
C2143 C 0.82577 0.27751 0.88052 0.0
C2144 C 0.8508 0.31382 0.85231 0.0
H2145 H 0.85672 0.40359 0.89486 0.0
H2146 H 0.84241 0.3729 0.89103 0.0
H2147 H 0.8603 0.33893 0.83858 0.0
H2148 H 0.85993 0.2437 0.85446 0.0
H2149 H 0.86539 0.27721 0.85279 0.0
H2150 H 0.84008 0.30924 0.90078 0.0
C2151 C 0.85483 0.37611 0.88261 0.0
C2152 C 0.85595 0.33264 0.85228 0.0
C2153 C 0.86295 0.39374 0.88473 0.0
C2154 C 0.8503 0.25294 0.86188 0.0
C2155 C 0.8533 0.27216 0.86072 0.0
C2156 C 0.84419 0.31565 0.88705 0.0
C2157 C 0.8629 0.36266 0.87019 0.0
C2158 C 0.85568 0.34313 0.86973 0.0
C2159 C 0.84118 0.28467 0.87016 0.0
C2160 C 0.84511 0.30504 0.86976 0.0
H2161 H 0.89943 0.38849 0.85313 0.0
H2162 H 0.8855 0.3577 0.84962 0.0
H2163 H 0.84937 0.3419 0.90087 0.0
H2164 H 0.81081 0.2531 0.88975 0.0
H2165 H 0.81613 0.28682 0.88786 0.0
C2166 C 0.8758 0.63268 0.11467 0.0
C2167 C 0.86331 0.6261 0.12896 0.0
C2168 C 0.89331 0.62435 0.11229 0.0
C2169 C 0.92755 0.59639 0.1404 0.0
H2170 H 0.95382 0.59528 0.09071 0.0
C2171 C 1.0035 0.56915 0.13327 0.0
C2172 C 0.0156 0.581 0.12288 0.0
C2173 C 0.98416 0.57212 0.13284 0.0
C2174 C 0.94666 0.59552 0.1047 0.0
H2175 H 0.85887 0.60485 0.15106 0.0
H2176 H 0.88921 0.58999 0.14661 0.0
H2177 H 0.92102 0.60447 0.09158 0.0
H2178 H 0.01685 0.60475 0.10327 0.0
H2179 H 0.98325 0.60995 0.10253 0.0
H2180 H 0.95327 0.58758 0.1535 0.0
C2181 C 0.88575 0.60194 0.13761 0.0
C2182 C 0.92787 0.60084 0.10522 0.0
C2183 C 0.86831 0.61037 0.14009 0.0
C2184 C 0.00793 0.59555 0.11165 0.0
C2185 C 0.98865 0.59838 0.11104 0.0
C2186 C 0.94629 0.59093 0.13985 0.0
C2187 C 0.8987 0.60913 0.12406 0.0
C2188 C 0.91815 0.60168 0.12313 0.0
C2189 C 0.97654 0.58683 0.12178 0.0
C2190 C 0.95615 0.59078 0.12204 0.0
H2191 H 0.87244 0.64491 0.10604 0.0
H2192 H 0.90295 0.63045 0.10187 0.0
H2193 H 0.92068 0.59715 0.15452 0.0
H2194 H 0.00901 0.55788 0.14211 0.0
H2195 H 0.97517 0.56292 0.14118 0.0
C2196 C 0.65273 0.76107 0.37944 0.0
C2197 C 0.67001 0.76781 0.3727 0.0
C2198 C 0.64804 0.74226 0.37745 0.0
C2199 C 0.66822 0.69546 0.3712 0.0
H2200 H 0.6175 0.68246 0.35665 0.0
C2201 C 0.63565 0.62323 0.38594 0.0
C2202 C 0.62276 0.61592 0.37241 0.0
C2203 C 0.64323 0.641 0.3833 0.0
C2204 C 0.63179 0.6858 0.36045 0.0
H2205 H 0.69594 0.75985 0.35853 0.0
H2206 H 0.6878 0.72691 0.35526 0.0
H2207 H 0.62697 0.71509 0.35718 0.0
H2208 H 0.6083 0.62124 0.34506 0.0
H2209 H 0.62169 0.65232 0.34032 0.0
H2210 H 0.67297 0.66613 0.37462 0.0
C2211 C 0.67793 0.73626 0.36219 0.0
C2212 C 0.63716 0.70454 0.361 0.0
C2213 C 0.68261 0.75514 0.36412 0.0
C2214 C 0.61825 0.62646 0.35569 0.0
C2215 C 0.62578 0.64432 0.35309 0.0
C2216 C 0.66283 0.67669 0.37073 0.0
C2217 C 0.66053 0.72963 0.36872 0.0
C2218 C 0.65534 0.70962 0.3667 0.0
C2219 C 0.63807 0.65195 0.36708 0.0
C2220 C 0.64446 0.67166 0.36564 0.0
H2221 H 0.64282 0.77029 0.38647 0.0
H2222 H 0.63469 0.73755 0.38303 0.0
H2223 H 0.68231 0.6989 0.37572 0.0
H2224 H 0.63956 0.61535 0.39886 0.0
H2225 H 0.65253 0.64646 0.39444 0.0
C2226 C 0.64827 0.40239 0.63804 0.0
C2227 C 0.65343 0.38664 0.62702 0.0
C2228 C 0.63051 0.41021 0.63597 0.0
C2229 C 0.5872 0.40905 0.60535 0.0
H2230 H 0.563 0.4209 0.65469 0.0
C2231 C 0.50732 0.41011 0.61482 0.0
C2232 C 0.49936 0.42458 0.62593 0.0
C2233 C 0.52667 0.40801 0.61379 0.0
C2234 C 0.56962 0.41792 0.64076 0.0
H2235 H 0.64432 0.36726 0.60459 0.0
H2236 H 0.61329 0.38067 0.60114 0.0
H2237 H 0.59611 0.41327 0.65431 0.0
H2238 H 0.50548 0.44817 0.64471 0.0
H2239 H 0.53944 0.44441 0.64307 0.0
H2240 H 0.56041 0.41301 0.59197 0.0
C2241 C 0.62301 0.38725 0.61115 0.0
C2242 C 0.58865 0.4136 0.6405 0.0
C2243 C 0.64083 0.37953 0.61311 0.0
C2244 C 0.51122 0.43694 0.63598 0.0
C2245 C 0.53063 0.43472 0.63512 0.0
C2246 C 0.56813 0.41322 0.60564 0.0
C2247 C 0.61742 0.40236 0.62296 0.0
C2248 C 0.59764 0.40883 0.62283 0.0
C2249 C 0.53855 0.42024 0.62397 0.0
C2250 C 0.55908 0.41742 0.62339 0.0
H2251 H 0.65779 0.40829 0.64872 0.0
H2252 H 0.62686 0.42211 0.64497 0.0
H2253 H 0.5937 0.40578 0.59143 0.0
H2254 H 0.49858 0.40052 0.60668 0.0
H2255 H 0.53234 0.39659 0.60526 0.0
C2256 C 0.13356 0.3905 0.36569 0.0
C2257 C 0.13816 0.40207 0.38165 0.0
C2258 C 0.14139 0.37269 0.36397 0.0
C2259 C 0.15986 0.33586 0.39565 0.0
H2260 H 0.17217 0.31122 0.34669 0.0
C2261 C 0.16159 0.256 0.38819 0.0
C2262 C 0.17636 0.24792 0.37763 0.0
C2263 C 0.15909 0.27531 0.38836 0.0
C2264 C 0.16895 0.31796 0.3605 0.0
H2265 H 0.15582 0.40457 0.40737 0.0
H2266 H 0.16944 0.37352 0.40437 0.0
H2267 H 0.16509 0.34463 0.34681 0.0
H2268 H 0.2 0.2538 0.35878 0.0
H2269 H 0.19559 0.28769 0.35903 0.0
H2270 H 0.16343 0.30923 0.40932 0.0
C2271 C 0.15949 0.37808 0.39342 0.0
C2272 C 0.16477 0.33705 0.36055 0.0
C2273 C 0.1517 0.39588 0.39511 0.0
C2274 C 0.18859 0.25963 0.3672 0.0
C2275 C 0.18597 0.279 0.3672 0.0
C2276 C 0.1639 0.3168 0.39558 0.0
C2277 C 0.15398 0.36605 0.37818 0.0
C2278 C 0.15999 0.34618 0.37811 0.0
C2279 C 0.17122 0.28705 0.37785 0.0
C2280 C 0.16825 0.30757 0.37798 0.0
H2281 H 0.12305 0.39473 0.35517 0.0
H2282 H 0.13675 0.36374 0.35213 0.0
H2283 H 0.15603 0.34238 0.40941 0.0
H2284 H 0.15205 0.24738 0.39652 0.0
H2285 H 0.14747 0.28106 0.39653 0.0
C2286 C 0.49812 0.44217 0.1106 0.0
C2287 C 0.51076 0.43064 0.12068 0.0
C2288 C 0.48012 0.43573 0.10608 0.0
C2289 C 0.45242 0.393 0.09925 0.0
H2290 H 0.41048 0.42102 0.11981 0.0
C2291 C 0.38301 0.35784 0.11787 0.0
C2292 C 0.36612 0.36775 0.11674 0.0
C2293 C 0.39999 0.36658 0.1139 0.0
C2294 C 0.42193 0.41318 0.11353 0.0
H2295 H 0.51488 0.40319 0.13314 0.0
H2296 H 0.48373 0.39179 0.12486 0.0
H2297 H 0.44178 0.43459 0.12066 0.0
H2298 H 0.35379 0.39449 0.10959 0.0
H2299 H 0.38359 0.40979 0.10219 0.0
H2300 H 0.43282 0.37153 0.09224 0.0
C2301 C 0.48758 0.40583 0.12062 0.0
C2302 C 0.43988 0.42096 0.11409 0.0
C2303 C 0.50535 0.41238 0.12548 0.0
C2304 C 0.36657 0.38646 0.11058 0.0
C2305 C 0.38366 0.39527 0.10654 0.0
C2306 C 0.43449 0.38533 0.09845 0.0
C2307 C 0.47467 0.4175 0.11113 0.0
C2308 C 0.45537 0.41069 0.10754 0.0
C2309 C 0.40064 0.3855 0.10849 0.0
C2310 C 0.41908 0.39501 0.10624 0.0
H2311 H 0.50196 0.45634 0.10687 0.0
H2312 H 0.47043 0.44499 0.09874 0.0
H2313 H 0.46409 0.38488 0.09383 0.0
H2314 H 0.38316 0.34333 0.12229 0.0
H2315 H 0.41269 0.35859 0.11585 0.0
C2316 C 0.32009 0.75306 0.87686 0.0
C2317 C 0.3321 0.76468 0.86607 0.0
C2318 C 0.3225 0.73367 0.87662 0.0
C2319 C 0.34409 0.6953 0.84836 0.0
H2320 H 0.34643 0.66983 0.89843 0.0
C2321 C 0.38031 0.62414 0.85829 0.0
C2322 C 0.374 0.61198 0.87301 0.0
C2323 C 0.37206 0.64166 0.85581 0.0
C2324 C 0.34544 0.67656 0.88426 0.0
H2325 H 0.35556 0.76506 0.84601 0.0
H2326 H 0.35978 0.73135 0.84561 0.0
H2327 H 0.33768 0.70261 0.89731 0.0
H2328 H 0.35324 0.60806 0.89574 0.0
H2329 H 0.33849 0.63842 0.89112 0.0
H2330 H 0.352 0.66934 0.83529 0.0
C2331 C 0.34853 0.73717 0.85427 0.0
C2332 C 0.34046 0.69541 0.88365 0.0
C2333 C 0.34625 0.7565 0.85469 0.0
C2334 C 0.35855 0.61725 0.88443 0.0
C2335 C 0.35018 0.6347 0.88185 0.0
C2336 C 0.34891 0.67641 0.84895 0.0
C2337 C 0.33679 0.72553 0.86536 0.0
C2338 C 0.34011 0.70508 0.86574 0.0
C2339 C 0.35718 0.64736 0.8679 0.0
C2340 C 0.35003 0.66688 0.86695 0.0
H2341 H 0.30912 0.75898 0.88582 0.0
H2342 H 0.31319 0.72504 0.88525 0.0
H2343 H 0.34366 0.70233 0.83431 0.0
H2344 H 0.39234 0.62057 0.84942 0.0
H2345 H 0.37801 0.65106 0.84508 0.0
C2346 C 0.14398 0.61778 0.63267 0.0
C2347 C 0.15082 0.63104 0.6193 0.0
C2348 C 0.12617 0.61015 0.63029 0.0
C2349 C 0.08095 0.62405 0.61189 0.0
H2350 H 0.06656 0.57264 0.62108 0.0
C2351 C 1.00371 0.60267 0.61054 0.0
C2352 C 0.99759 0.58928 0.6241 0.0
C2353 C 0.02272 0.60598 0.60778 0.0
C2354 C 0.0703 0.5871 0.61871 0.0
H2355 H 0.14489 0.64607 0.59249 0.0
H2356 H 0.11352 0.63286 0.58841 0.0
H2357 H 0.09964 0.58095 0.61937 0.0
H2358 H 0.00647 0.5686 0.64518 0.0
H2359 H 0.03986 0.57489 0.6411 0.0
H2360 H 0.05191 0.63056 0.61221 0.0
C2361 C 0.122 0.62834 0.60068 0.0
C2362 C 0.08926 0.5918 0.61757 0.0
C2363 C 0.13996 0.63577 0.6029 0.0
C2364 C 0.01089 0.57899 0.63464 0.0
C2365 C 0.03 0.58255 0.63216 0.0
C2366 C 0.06206 0.61942 0.6133 0.0
C2367 C 0.11474 0.61585 0.61466 0.0
C2368 C 0.09476 0.61035 0.61421 0.0
C2369 C 0.03617 0.59624 0.6188 0.0
C2370 C 0.05642 0.6009 0.61679 0.0
H2371 H 0.15213 0.61393 0.64544 0.0
H2372 H 0.12092 0.60066 0.64136 0.0
H2373 H 0.08476 0.63852 0.60971 0.0
H2374 H 0.99373 0.61047 0.60187 0.0
H2375 H 0.02684 0.61622 0.59694 0.0
C2376 C 0.15357 0.61109 0.13721 0.0
C2377 C 0.13796 0.60655 0.14874 0.0
C2378 C 0.16217 0.62849 0.13901 0.0
C2379 C 0.16483 0.6721 0.16852 0.0
H2380 H 0.17043 0.69515 0.11739 0.0
C2381 C 0.19349 0.74772 0.15399 0.0
C2382 C 0.18311 0.75807 0.14024 0.0
C2383 C 0.18936 0.72885 0.15738 0.0
C2384 C 0.16897 0.68891 0.13179 0.0
H2385 H 0.11995 0.61622 0.17217 0.0
H2386 H 0.13493 0.64671 0.17526 0.0
H2387 H 0.16204 0.66238 0.1196 0.0
H2388 H 0.15941 0.75701 0.12043 0.0
H2389 H 0.1525 0.72431 0.12607 0.0
H2390 H 0.17138 0.69905 0.18056 0.0
C2391 C 0.14061 0.63674 0.16492 0.0
C2392 C 0.16437 0.67006 0.13307 0.0
C2393 C 0.13202 0.61927 0.16315 0.0
C2394 C 0.16804 0.74938 0.13067 0.0
C2395 C 0.16403 0.73062 0.13395 0.0
C2396 C 0.16963 0.69104 0.16721 0.0
C2397 C 0.15532 0.64181 0.15233 0.0
C2398 C 0.16198 0.66145 0.15142 0.0
C2399 C 0.17487 0.72003 0.14698 0.0
C2400 C 0.17137 0.69969 0.1488 0.0
H2401 H 0.15868 0.60144 0.12622 0.0
H2402 H 0.17374 0.63181 0.12939 0.0
H2403 H 0.16316 0.66584 0.18286 0.0
H2404 H 0.2052 0.75396 0.16157 0.0
H2405 H 0.19793 0.72099 0.16752 0.0
C2406 C 1.00575 0.41048 0.91083 0.0
C2407 C 0.99874 0.42632 0.90115 0.0
C2408 C 0.02496 0.4076 0.91258 0.0
C2409 C 0.06954 0.41931 0.88915 0.0
H2410 H 0.09065 0.39835 0.93667 0.0
C2411 C 0.14759 0.4 0.89372 0.0
C2412 C 0.1515 0.3824 0.90186 0.0
C2413 C 0.12992 0.40806 0.89587 0.0
C2414 C 0.08498 0.40412 0.92326 0.0
H2415 H 0.00651 0.45165 0.88588 0.0
H2416 H 0.04021 0.44662 0.88894 0.0
H2417 H 0.05782 0.40739 0.93595 0.0
H2418 H 0.14001 0.35979 0.91919 0.0
H2419 H 0.1093 0.37377 0.92293 0.0
H2420 H 0.09649 0.41554 0.87624 0.0
C2421 C 0.03074 0.4364 0.89512 0.0
C2422 C 0.06616 0.40932 0.92285 0.0
C2423 C 0.01146 0.43936 0.89349 0.0
C2424 C 0.1376 0.37349 0.91299 0.0
C2425 C 0.11993 0.38152 0.9151 0.0
C2426 C 0.08835 0.41406 0.88953 0.0
C2427 C 0.03771 0.42043 0.90463 0.0
C2428 C 0.05813 0.41666 0.90568 0.0
C2429 C 0.11571 0.3987 0.90618 0.0
C2430 C 0.09624 0.40608 0.90648 0.0
H2431 H 0.99637 0.40029 0.91716 0.0
H2432 H 0.02982 0.39505 0.9198 0.0
H2433 H 0.06375 0.42473 0.87562 0.0
H2434 H 0.15807 0.40734 0.88526 0.0
H2435 H 0.12728 0.42148 0.88912 0.0
C2436 C 0.36169 0.39464 0.62901 0.0
C2437 C 0.37553 0.40024 0.64242 0.0
C2438 C 0.35337 0.37707 0.63054 0.0
C2439 C 0.34726 0.33565 0.66261 0.0
H2440 H 0.34808 0.30865 0.61329 0.0
C2441 C 0.32194 0.2589 0.65458 0.0
C2442 C 0.33408 0.24709 0.64416 0.0
C2443 C 0.32484 0.27821 0.65476 0.0
C2444 C 0.34774 0.316 0.62717 0.0
H2445 H 0.39057 0.39224 0.6687 0.0
H2446 H 0.37596 0.3616 0.67145 0.0
H2447 H 0.35616 0.34164 0.61386 0.0
H2448 H 0.35849 0.2463 0.62545 0.0
H2449 H 0.36355 0.27995 0.62569 0.0
H2450 H 0.33931 0.30973 0.67594 0.0
C2451 C 0.3715 0.37082 0.65978 0.0
C2452 C 0.35217 0.33496 0.62748 0.0
C2453 C 0.37985 0.38842 0.65823 0.0
C2454 C 0.349 0.25502 0.63372 0.0
C2455 C 0.35178 0.2743 0.63372 0.0
C2456 C 0.34267 0.31666 0.66227 0.0
C2457 C 0.35866 0.3647 0.64554 0.0
C2458 C 0.35224 0.34497 0.64523 0.0
C2459 C 0.3398 0.28612 0.64432 0.0
C2460 C 0.34318 0.30657 0.64458 0.0
H2461 H 0.35779 0.40357 0.61688 0.0
H2462 H 0.34323 0.37291 0.61959 0.0
H2463 H 0.3471 0.343 0.67649 0.0
H2464 H 0.31044 0.25316 0.66293 0.0
H2465 H 0.31533 0.28698 0.66298 0.0
C2466 C 0.36743 0.61512 0.3824 0.0
C2467 C 0.36202 0.62978 0.39479 0.0
C2468 C 0.38482 0.60662 0.38466 0.0
C2469 C 0.42711 0.60294 0.41648 0.0
H2470 H 0.4517 0.59674 0.36625 0.0
C2471 C 0.50151 0.57037 0.4058 0.0
C2472 C 0.51256 0.57832 0.39095 0.0
C2473 C 0.48304 0.57637 0.40865 0.0
C2474 C 0.44513 0.5985 0.38044 0.0
H2475 H 0.37001 0.6464 0.41992 0.0
H2476 H 0.40073 0.63177 0.42371 0.0
H2477 H 0.41936 0.60648 0.36725 0.0
H2478 H 0.51353 0.59974 0.3686 0.0
H2479 H 0.48166 0.61037 0.3737 0.0
H2480 H 0.45336 0.59541 0.42956 0.0
C2481 C 0.39141 0.62662 0.41243 0.0
C2482 C 0.42642 0.60381 0.38101 0.0
C2483 C 0.37384 0.63501 0.41029 0.0
C2484 C 0.5052 0.59307 0.37984 0.0
C2485 C 0.48691 0.59912 0.38274 0.0
C2486 C 0.44596 0.59757 0.4159 0.0
C2487 C 0.39738 0.61279 0.39916 0.0
C2488 C 0.41713 0.60618 0.39901 0.0
C2489 C 0.47539 0.59047 0.39674 0.0
C2490 C 0.45523 0.59552 0.39783 0.0
H2491 H 0.35848 0.61077 0.37042 0.0
H2492 H 0.38873 0.59567 0.37451 0.0
H2493 H 0.42036 0.60455 0.43059 0.0
H2494 H 0.50683 0.55893 0.41454 0.0
H2495 H 0.47454 0.56941 0.41955 0.0
C2496 C 0.26655 0.29643 0.08235 0.0
C2497 C 0.26946 0.31278 0.09337 0.0
C2498 C 0.26312 0.29732 0.06215 0.0
C2499 C 0.24576 0.32716 0.02249 0.0
H2500 H 0.27574 0.29556 0.9888 0.0
C2501 C 0.23956 0.33123 0.93761 0.0
C2502 C 0.24199 0.31475 0.92671 0.0
C2503 C 0.24345 0.33168 0.95778 0.0
C2504 C 0.26696 0.30428 0.9979 0.0
H2505 H 0.27047 0.34296 0.09175 0.0
H2506 H 0.26393 0.34451 0.05645 0.0
H2507 H 0.28054 0.29485 0.02414 0.0
H2508 H 0.25031 0.28576 0.92862 0.0
H2509 H 0.25639 0.28627 0.96369 0.0
H2510 H 0.23166 0.33613 0.99648 0.0
C2511 C 0.26451 0.331 0.06352 0.0
C2512 C 0.26983 0.30393 0.01823 0.0
C2513 C 0.26828 0.3301 0.08373 0.0
C2514 C 0.24849 0.29876 0.93648 0.0
C2515 C 0.25208 0.29912 0.95669 0.0
C2516 C 0.24264 0.32728 1.00215 0.0
C2517 C 0.26219 0.31459 0.05245 0.0
C2518 C 0.25925 0.31532 0.03078 0.0
C2519 C 0.2496 0.31557 0.96774 0.0
C2520 C 0.25316 0.3158 0.98949 0.0
H2521 H 0.26744 0.28284 0.08922 0.0
H2522 H 0.26122 0.28444 0.05408 0.0
H2523 H 0.23727 0.336 0.03179 0.0
H2524 H 0.23466 0.34384 0.93053 0.0
H2525 H 0.24169 0.34475 0.9655 0.0
C2526 C 0.95869 0.99635 0.18669 0.0
C2527 C 0.94361 0.98812 0.17666 0.0
C2528 C 0.95783 0.99939 0.20702 0.0
C2529 C 0.93223 0.98361 0.25162 0.0
H2530 H 0.95192 0.02876 0.27512 0.0
C2531 C 0.91289 0.00669 0.33012 0.0
C2532 C 0.9264 0.01555 0.34186 0.0
C2533 C 0.91667 1.00219 0.31055 0.0
C2534 C 0.94661 0.01593 0.26886 0.0
H2535 H 0.91552 0.97731 0.18019 0.0
H2536 H 0.91397 0.98272 0.21535 0.0
H2537 H 0.95503 0.02378 0.23982 0.0
H2538 H 0.95478 0.02609 0.34225 0.0
H2539 H 0.96141 0.01814 0.308 0.0
H2540 H 0.92359 0.97585 0.28055 0.0
C2541 C 0.92667 0.98644 0.20767 0.0
C2542 C 0.94837 0.01308 0.24856 0.0
C2543 C 0.92753 0.9834 0.18741 0.0
C2544 C 0.94405 0.01925 0.33366 0.0
C2545 C 0.94779 0.01485 0.31396 0.0
C2546 C 0.93046 0.98646 0.27185 0.0
C2547 C 0.94187 0.99429 0.21784 0.0
C2548 C 0.94096 0.997 0.23961 0.0
C2549 C 0.93405 0.00647 0.30207 0.0
C2550 C 0.93738 1.00278 0.28074 0.0
H2551 H 0.97131 1.00013 0.1789 0.0
H2552 H 0.96986 0.00536 0.21433 0.0
H2553 H 0.92674 0.97084 0.24539 0.0
H2554 H 0.89915 1.00361 0.3359 0.0
H2555 H 0.90565 0.99593 0.30187 0.0
C2556 C 0.2364 0.71029 0.57719 0.0
C2557 C 0.24123 0.69516 0.5892 0.0
C2558 C 0.24004 0.70991 0.55704 0.0
C2559 C 0.25532 0.678 0.51582 0.0
H2560 H 0.26063 0.72536 0.48919 0.0
C2561 C 0.26506 0.68165 0.43099 0.0
C2562 C 0.27428 0.69715 0.42295 0.0
C2563 C 0.26069 0.68107 0.45108 0.0
C2564 C 0.25961 0.71189 0.49624 0.0
H2565 H 0.25378 0.66774 0.58958 0.0
H2566 H 0.26152 0.66753 0.55468 0.0
H2567 H 0.25545 0.72489 0.52393 0.0
H2568 H 0.28695 0.72377 0.42978 0.0
H2569 H 0.28069 0.72232 0.4646 0.0
H2570 H 0.26109 0.66503 0.48824 0.0
C2571 C 0.25417 0.67948 0.5605 0.0
C2572 C 0.25609 0.71162 0.51642 0.0
C2573 C 0.24993 0.67963 0.58064 0.0
C2574 C 0.27943 0.71182 0.43545 0.0
C2575 C 0.27565 0.71099 0.45556 0.0
C2576 C 0.25943 0.67826 0.49567 0.0
C2577 C 0.24925 0.69464 0.54828 0.0
C2578 C 0.25364 0.6947 0.52663 0.0
C2579 C 0.266 0.69572 0.4638 0.0
C2580 C 0.26158 0.69524 0.48544 0.0
H2581 H 0.22928 0.72229 0.58329 0.0
H2582 H 0.23528 0.72162 0.54839 0.0
H2583 H 0.2533 0.6646 0.52278 0.0
H2584 H 0.26096 0.6701 0.42167 0.0
H2585 H 0.25298 0.66916 0.45648 0.0
C2586 C 0.57764 0.96446 0.81887 0.0
C2587 C 0.57281 0.97471 0.83571 0.0
C2588 C 0.57716 0.97256 0.80027 0.0
C2589 C 0.57448 0.01798 0.77362 0.0
H2590 H 0.55919 0.98598 0.73057 0.0
C2591 C 0.55741 0.04671 0.6964 0.0
C2592 C 0.56495 0.03732 0.68006 0.0
C2593 C 0.55839 0.03901 0.71521 0.0
C2594 C 0.56367 0.99506 0.74238 0.0
H2595 H 0.56416 1.00184 0.84619 0.0
H2596 H 0.56273 0.01607 0.81341 0.0
H2597 H 0.56046 0.97351 0.76375 0.0
H2598 H 0.57902 0.01203 0.67084 0.0
H2599 H 0.58041 0.99834 0.70384 0.0
H2600 H 0.57715 0.03965 0.7521 0.0
C2601 C 0.5672 1.0017 0.81469 0.0
C2602 C 0.56447 0.98791 0.76149 0.0
C2603 C 0.56796 0.99358 0.83351 0.0
C2604 C 0.57302 0.01965 0.68303 0.0
C2605 C 0.57382 0.01182 0.70194 0.0
C2606 C 0.57346 0.02518 0.7545 0.0
C2607 C 0.57153 0.99117 0.79774 0.0
C2608 C 0.57005 0.9992 0.77743 0.0
C2609 C 0.56677 0.02157 0.71831 0.0
C2610 C 0.56812 0.01379 0.73861 0.0
H2611 H 0.58184 0.94998 0.82 0.0
H2612 H 0.58125 0.96409 0.78784 0.0
H2613 H 0.57908 0.02709 0.78533 0.0
H2614 H 0.55099 0.06029 0.6948 0.0
H2615 H 0.55252 0.04676 0.72737 0.0
C2616 C 0.77124 0.68515 0.08933 0.0
C2617 C 0.78805 0.69455 0.09335 0.0
C2618 C 0.76421 0.68434 0.07006 0.0
C2619 C 0.77033 0.70547 0.01984 0.0
H2620 H 0.74796 0.65915 1.00249 0.0
C2621 C 0.73901 0.69616 0.94165 0.0
C2622 C 0.73886 0.67823 0.9334 0.0
C2623 C 0.74578 0.699 0.96074 0.0
C2624 C 0.75445 0.67212 1.00693 0.0
H2625 H 0.81018 0.71108 0.08021 0.0
H2626 H 0.79838 0.70928 0.04713 0.0
H2627 H 0.75695 0.66275 0.03663 0.0
H2628 H 0.74621 0.64937 0.93817 0.0
H2629 H 0.75919 0.65438 0.97087 0.0
H2630 H 0.76862 0.71453 0.98999 0.0
C2631 C 0.79031 0.70275 0.05866 0.0
C2632 C 0.75927 0.67433 0.02673 0.0
C2633 C 0.79721 0.70365 0.07779 0.0
C2634 C 0.74654 0.66339 0.94409 0.0
C2635 C 0.75359 0.66624 0.96302 0.0
C2636 C 0.76571 0.70319 1.0 0.0
C2637 C 0.77384 0.6929 0.05437 0.0
C2638 C 0.76742 0.69099 0.0335 0.0
C2639 C 0.75265 0.68395 0.97197 0.0
C2640 C 0.75779 0.68643 0.99317 0.0
H2641 H 0.76379 0.67801 0.10092 0.0
H2642 H 0.75131 0.67687 0.06746 0.0
H2643 H 0.77625 0.71867 0.02442 0.0
H2644 H 0.73258 0.7077 0.93392 0.0
H2645 H 0.74458 0.7128 0.96704 0.0
C2646 C 0.07242 0.01784 0.83763 0.0
C2647 C 0.07002 0.03721 0.83979 0.0
C2648 C 0.07274 0.00967 0.81882 0.0
C2649 C 0.08173 0.02094 0.76652 0.0
H2650 H 0.05151 0.97751 0.75509 0.0
C2651 C 0.07228 0.99305 0.68653 0.0
C2652 C 0.07045 0.97366 0.68411 0.0
C2653 C 0.07232 1.001 0.70546 0.0
C2654 C 0.06032 0.98947 0.75798 0.0
H2655 H 0.06619 0.06307 0.82361 0.0
H2656 H 0.06698 0.04896 0.79136 0.0
H2657 H 0.05238 0.98989 0.78835 0.0
H2658 H 0.0678 0.94747 0.69993 0.0
H2659 H 0.06853 0.96103 0.73225 0.0
H2660 H 0.08998 0.02042 0.73632 0.0
C2661 C 0.06864 0.04004 0.80406 0.0
C2662 C 0.06076 0.99657 0.77715 0.0
C2663 C 0.06805 0.04811 0.8227 0.0
C2664 C 0.06895 0.9625 0.70104 0.0
C2665 C 0.06923 0.97034 0.71978 0.0
C2666 C 0.08149 0.0137 0.74739 0.0
C2667 C 0.071 0.02075 0.8018 0.0
C2668 C 0.07139 0.01246 0.78166 0.0
C2669 C 0.07073 0.98973 0.7224 0.0
C2670 C 0.07075 0.99784 0.74276 0.0
H2671 H 0.07403 0.00903 0.85042 0.0
H2672 H 0.07464 0.99473 0.81757 0.0
H2673 H 0.09019 0.03314 0.76952 0.0
H2674 H 0.07349 1.00206 0.67385 0.0
H2675 H 0.07334 0.01601 0.70675 0.0
C2676 C 0.7448 0.32298 0.5883 0.0
C2677 C 0.72691 0.31567 0.59203 0.0
C2678 C 0.75257 0.32198 0.56933 0.0
C2679 C 0.74619 0.29763 0.52098 0.0
H2680 H 0.77381 0.33952 0.49989 0.0
C2681 C 0.77481 0.29536 0.44196 0.0
C2682 C 0.77522 0.31192 0.43094 0.0
C2683 C 0.77075 0.29569 0.46203 0.0
C2684 C 0.76595 0.32775 0.50544 0.0
H2685 H 0.70343 0.30127 0.57868 0.0
H2686 H 0.71654 0.29999 0.54618 0.0
H2687 H 0.76364 0.34004 0.53405 0.0
H2688 H 0.77167 0.34188 0.43248 0.0
H2689 H 0.7637 0.34244 0.46732 0.0
H2690 H 0.74744 0.28574 0.49235 0.0
C2691 C 0.72489 0.30616 0.55772 0.0
C2692 C 0.76038 0.32793 0.52521 0.0
C2693 C 0.71725 0.30706 0.5765 0.0
C2694 C 0.77145 0.32887 0.44054 0.0
C2695 C 0.76705 0.32918 0.46062 0.0
C2696 C 0.75152 0.29756 0.50125 0.0
C2697 C 0.74263 0.31364 0.55373 0.0
C2698 C 0.75018 0.31296 0.53321 0.0
C2699 C 0.7666 0.31257 0.4717 0.0
C2700 C 0.76139 0.31265 0.49306 0.0
H2701 H 0.75261 0.32976 0.59988 0.0
H2702 H 0.76635 0.32776 0.56691 0.0
H2703 H 0.73871 0.28564 0.52658 0.0
H2704 H 0.77796 0.28208 0.43514 0.0
H2705 H 0.77108 0.28263 0.46997 0.0
C2706 C 0.41182 1.00341 0.32747 0.0
C2707 C 0.42525 0.99519 0.33979 0.0
C2708 C 0.41596 0.00748 0.30787 0.0
C2709 C 0.44711 0.99329 0.26739 0.0
H2710 H 0.42723 0.0375 0.24222 0.0
C2711 C 0.46071 0.01113 0.18498 0.0
C2712 C 0.44573 0.01898 0.17447 0.0
C2713 C 0.45947 0.00846 0.20536 0.0
C2714 C 0.43273 0.02496 0.24893 0.0
H2715 H 0.45388 0.98543 0.3412 0.0
H2716 H 0.46111 0.99256 0.30693 0.0
H2717 H 0.42327 0.03329 0.2774 0.0
H2718 H 0.41743 0.02947 0.17718 0.0
H2719 H 0.41522 0.02464 0.21235 0.0
H2720 H 0.45633 0.98484 0.23879 0.0
C2721 C 0.44727 0.99567 0.31244 0.0
C2722 C 0.43049 0.02258 0.26917 0.0
C2723 C 0.44317 0.99172 0.33215 0.0
C2724 C 0.42936 0.02363 0.18477 0.0
C2725 C 0.42812 0.02096 0.20504 0.0
C2726 C 0.44932 0.99566 0.24708 0.0
C2727 C 0.43363 1.00339 0.29997 0.0
C2728 C 0.43741 0.00659 0.27866 0.0
C2729 C 0.44323 0.01357 0.21571 0.0
C2730 C 0.4419 0.0114 0.23751 0.0
H2731 H 0.39788 0.00631 0.3328 0.0
H2732 H 0.40503 0.01325 0.29872 0.0
H2733 H 0.45245 0.9807 0.27414 0.0
H2734 H 0.47354 0.00743 0.17756 0.0
H2735 H 0.47143 1.00283 0.21307 0.0
C2736 C 0.76924 0.81723 0.5871 0.0
C2737 C 0.77076 0.83563 0.59392 0.0
C2738 C 0.76279 0.81361 0.56802 0.0
C2739 C 0.75723 0.83806 0.51972 0.0
H2740 H 0.7325 0.7922 0.50479 0.0
C2741 C 0.74023 0.82222 0.43808 0.0
C2742 C 0.72303 0.81348 0.43429 0.0
C2743 C 0.74716 0.82344 0.45735 0.0
C2744 C 0.73924 0.80521 0.50864 0.0
H2745 H 0.76592 0.86457 0.58672 0.0
H2746 H 0.75339 0.85835 0.55414 0.0
H2747 H 0.73986 0.79781 0.53903 0.0
H2748 H 0.70001 0.79858 0.44793 0.0
H2749 H 0.71158 0.80123 0.48101 0.0
H2750 H 0.75573 0.8459 0.4895 0.0
C2751 C 0.75784 0.84664 0.56299 0.0
C2752 C 0.74372 0.80832 0.52839 0.0
C2753 C 0.76465 0.85024 0.58186 0.0
C2754 C 0.71332 0.80545 0.45014 0.0
C2755 C 0.72009 0.80684 0.46929 0.0
C2756 C 0.7525 0.83507 0.50003 0.0
C2757 C 0.75752 0.82834 0.55543 0.0
C2758 C 0.75267 0.82487 0.53431 0.0
C2759 C 0.73698 0.81606 0.47332 0.0
C2760 C 0.74328 0.81866 0.49415 0.0
H2761 H 0.77439 0.80577 0.59594 0.0
H2762 H 0.76297 0.79935 0.56284 0.0
H2763 H 0.76457 0.85078 0.52343 0.0
H2764 H 0.74814 0.82847 0.42625 0.0
H2765 H 0.76041 0.83035 0.45971 0.0
C2766 C 0.44713 0.54789 0.82059 0.0
C2767 C 0.44294 0.53745 0.83752 0.0
C2768 C 0.4473 0.53966 0.80204 0.0
C2769 C 0.4314 0.49752 0.77442 0.0
H2770 H 0.46519 0.517 0.73492 0.0
C2771 C 0.4447 0.46082 0.70021 0.0
C2772 C 0.4443 0.47171 0.683 0.0
C2773 C 0.44421 0.46908 0.71876 0.0
C2774 C 0.45553 0.51155 0.74572 0.0
H2775 H 0.43578 0.50985 0.848 0.0
H2776 H 0.43676 0.49514 0.81551 0.0
H2777 H 0.46594 0.52968 0.76806 0.0
H2778 H 0.44323 0.50004 0.67203 0.0
H2779 H 0.44291 0.51463 0.70474 0.0
H2780 H 0.42155 0.4789 0.75203 0.0
C2781 C 0.43951 0.50995 0.81661 0.0
C2782 C 0.45589 0.51884 0.76481 0.0
C2783 C 0.4391 0.51833 0.83532 0.0
C2784 C 0.4436 0.49123 0.68493 0.0
C2785 C 0.44344 0.49957 0.70365 0.0
C2786 C 0.43126 0.49004 0.75539 0.0
C2787 C 0.44358 0.52055 0.79965 0.0
C2788 C 0.44373 0.51205 0.77947 0.0
C2789 C 0.44358 0.48853 0.72078 0.0
C2790 C 0.44327 0.49702 0.74079 0.0
H2791 H 0.44999 0.5627 0.82151 0.0
H2792 H 0.45 0.54852 0.78951 0.0
H2793 H 0.42158 0.49208 0.78504 0.0
H2794 H 0.44516 0.44574 0.69945 0.0
H2795 H 0.44455 0.46018 0.73159 0.0
C2796 C 0.74423 0.1638 0.08177 0.0
C2797 C 0.73687 0.17862 0.09274 0.0
C2798 C 0.75124 0.16679 0.06287 0.0
C2799 C 0.76384 0.204 0.02638 0.0
H2800 H 0.75465 0.16401 0.98931 0.0
C2801 C 0.79565 0.20463 0.94873 0.0
C2802 C 0.78651 0.19564 0.93307 0.0
C2803 C 0.78861 0.20376 0.9678 0.0
C2804 C 0.75709 0.17547 0.99933 0.0
H2805 H 0.73114 0.2082 0.09274 0.0
H2806 H 0.74303 0.21354 0.05962 0.0
H2807 H 0.74551 0.16024 0.02336 0.0
H2808 H 0.76215 0.17935 0.92525 0.0
H2809 H 0.74943 0.17828 0.9586 0.0
H2810 H 0.77465 0.21955 1.00216 0.0
C2811 C 0.74402 0.19963 0.0657 0.0
C2812 C 0.75218 0.17316 0.01908 0.0
C2813 C 0.7373 0.19665 0.08479 0.0
C2814 C 0.76959 0.1864 0.93693 0.0
C2815 C 0.76242 0.18563 0.95613 0.0
C2816 C 0.76854 0.2064 1.00658 0.0
C2817 C 0.75057 0.18462 0.05419 0.0
C2818 C 0.7557 0.18728 0.03301 0.0
C2819 C 0.77203 0.19404 0.97194 0.0
C2820 C 0.76549 0.19207 0.99276 0.0
H2821 H 0.74372 0.1497 0.08748 0.0
H2822 H 0.75662 0.15493 0.05483 0.0
H2823 H 0.7669 0.21521 0.03652 0.0
H2824 H 0.8087 0.21195 0.94644 0.0
H2825 H 0.79668 0.21018 0.97942 0.0
C2826 C 0.06957 0.49243 0.33741 0.0
C2827 C 0.06974 0.47296 0.33981 0.0
C2828 C 0.06886 0.50033 0.3185 0.0
C2829 C 0.05846 0.48755 0.26596 0.0
H2830 H 0.08408 0.53387 0.25454 0.0
C2831 C 0.07092 0.51589 0.1865 0.0
C2832 C 0.06671 0.53488 0.18377 0.0
C2833 C 0.07094 0.50808 0.20544 0.0
C2834 C 0.07681 0.52093 0.25752 0.0
H2835 H 0.06989 0.44662 0.32403 0.0
H2836 H 0.06938 0.46016 0.29171 0.0
H2837 H 0.08468 0.52139 0.28783 0.0
H2838 H 0.05902 0.5604 0.19902 0.0
H2839 H 0.05936 0.54688 0.23161 0.0
H2840 H 0.05104 0.48696 0.23545 0.0
C2841 C 0.06903 0.4695 0.30418 0.0
C2842 C 0.07702 0.51382 0.27669 0.0
C2843 C 0.06948 0.46168 0.3229 0.0
C2844 C 0.06236 0.54573 0.2004 0.0
C2845 C 0.06267 0.53803 0.21921 0.0
C2846 C 0.0585 0.49452 0.24675 0.0
C2847 C 0.06853 0.48894 0.30157 0.0
C2848 C 0.06787 0.49699 0.28124 0.0
C2849 C 0.06708 0.51917 0.22203 0.0
C2850 C 0.06763 0.51132 0.2423 0.0
H2851 H 0.0698 0.50153 0.35009 0.0
H2852 H 0.06833 0.51537 0.3172 0.0
H2853 H 0.05084 0.4748 0.26881 0.0
H2854 H 0.07437 0.50714 0.17407 0.0
H2855 H 0.07442 0.49347 0.20716 0.0
C2856 C 0.26882 0.18376 0.58629 0.0
C2857 C 0.28346 0.19592 0.59135 0.0
C2858 C 0.26104 0.18424 0.56731 0.0
C2859 C 0.2576 0.21426 0.52272 0.0
H2860 H 0.24865 0.16785 0.49508 0.0
C2861 C 0.22118 0.2122 0.44735 0.0
C2862 C 0.22699 0.19912 0.43324 0.0
C2863 C 0.22846 0.21198 0.46635 0.0
C2864 C 0.25125 0.18094 0.50253 0.0
H2865 H 0.30084 0.21855 0.58075 0.0
H2866 H 0.2874 0.21943 0.54816 0.0
H2867 H 0.25908 0.16718 0.52928 0.0
H2868 H 0.24555 0.17579 0.42805 0.0
H2869 H 0.25857 0.17552 0.46136 0.0
H2870 H 0.25023 0.22806 0.49602 0.0
C2871 C 0.28178 0.20954 0.55862 0.0
C2872 C 0.25695 0.18055 0.52225 0.0
C2873 C 0.28958 0.20898 0.57737 0.0
C2874 C 0.24086 0.18615 0.43848 0.0
C2875 C 0.24813 0.18585 0.45766 0.0
C2876 C 0.25192 0.21464 0.50309 0.0
C2877 C 0.26761 0.19702 0.55316 0.0
C2878 C 0.26029 0.19723 0.53259 0.0
C2879 C 0.24181 0.19863 0.47193 0.0
C2880 C 0.24865 0.19801 0.49268 0.0
H2881 H 0.26392 0.17344 0.59667 0.0
H2882 H 0.25001 0.1745 0.56366 0.0
H2883 H 0.25986 0.22739 0.5302 0.0
H2884 H 0.21051 0.22239 0.44387 0.0
H2885 H 0.22307 0.22191 0.47688 0.0
C2886 C 0.603 0.51073 0.32843 0.0
C2887 C 0.58874 0.517 0.34098 0.0
C2888 C 0.59927 0.5065 0.30878 0.0
C2889 C 0.56573 0.51696 0.26895 0.0
H2890 H 0.59164 0.47683 0.24229 0.0
C2891 C 0.55118 0.49689 0.18755 0.0
C2892 C 0.56657 0.49162 0.17598 0.0
C2893 C 0.55323 0.5 0.20775 0.0
C2894 C 0.58443 0.48824 0.24943 0.0
H2895 H 0.55912 0.52303 0.34274 0.0
H2896 H 0.55255 0.51544 0.30844 0.0
H2897 H 0.59579 0.48102 0.27747 0.0
H2898 H 0.59637 0.48631 0.17658 0.0
H2899 H 0.59995 0.4918 0.21164 0.0
H2900 H 0.55444 0.52419 0.24083 0.0
C2901 C 0.56673 0.51408 0.31378 0.0
C2902 C 0.58679 0.49062 0.26967 0.0
C2903 C 0.57046 0.51827 0.33352 0.0
C2904 C 0.58415 0.49009 0.18503 0.0
C2905 C 0.5862 0.49316 0.20521 0.0
C2906 C 0.56335 0.51455 0.24868 0.0
C2907 C 0.58116 0.5084 0.30106 0.0
C2908 C 0.57763 0.50513 0.2797 0.0
C2909 C 0.57072 0.49789 0.21692 0.0
C2910 C 0.57282 0.50027 0.2386 0.0
H2911 H 0.61726 0.50958 0.33361 0.0
H2912 H 0.6108 0.50238 0.29947 0.0
H2913 H 0.55865 0.52844 0.27608 0.0
H2914 H 0.53741 0.49816 0.18112 0.0
H2915 H 0.54098 0.50351 0.21629 0.0
C2916 C 0.29811 0.8104 0.94216 0.0
C2917 C 0.28778 0.81735 0.92617 0.0
C2918 C 0.29095 0.81089 0.96121 0.0
C2919 C 0.25535 0.835 0.9918 0.0
H2920 H 0.2704 0.79801 0.03015 0.0
C2921 C 0.24052 0.84691 0.0738 0.0
C2922 C 0.23519 0.83156 0.08525 0.0
C2923 C 0.24793 0.84438 0.05499 0.0
C2924 C 0.26587 0.80841 0.01968 0.0
H2925 H 0.26135 0.82967 0.91781 0.0
H2926 H 0.24852 0.83007 0.95113 0.0
H2927 H 0.27914 0.79407 0.99597 0.0
H2928 H 0.23356 0.80148 0.08619 0.0
H2929 H 0.24621 0.79688 0.0532 0.0
H2930 H 0.24142 0.84895 0.01532 0.0
C2931 C 0.26245 0.82462 0.94892 0.0
C2932 C 0.27112 0.80628 0.99998 0.0
C2933 C 0.26972 0.82424 0.92974 0.0
C2934 C 0.23809 0.81352 0.07786 0.0
C2935 C 0.24523 0.81095 0.05885 0.0
C2936 C 0.24994 0.83703 0.01144 0.0
C2937 C 0.2731 0.81817 0.96501 0.0
C2938 C 0.26617 0.81967 0.98575 0.0
C2939 C 0.24972 0.82639 0.04687 0.0
C2940 C 0.25533 0.82392 0.02579 0.0
H2941 H 0.31208 0.80496 0.94011 0.0
H2942 H 0.29981 0.80609 0.97305 0.0
H2943 H 0.25136 0.84574 0.98146 0.0
H2944 H 0.23816 0.86097 0.07908 0.0
H2945 H 0.25171 0.85663 0.04661 0.0
C2946 C 0.94415 0.52029 0.6865 0.0
C2947 C 0.94365 0.5398 0.68455 0.0
C2948 C 0.94465 0.51199 0.70523 0.0
C2949 C 0.95391 0.52397 0.75827 0.0
H2950 H 0.93007 0.47642 0.7682 0.0
C2951 C 0.94223 0.49334 0.83691 0.0
C2952 C 0.94746 0.47455 0.83922 0.0
C2953 C 0.94178 0.50153 0.81814 0.0
C2954 C 0.93683 0.48971 0.76563 0.0
H2955 H 0.9425 0.56577 0.70094 0.0
H2956 H 0.94261 0.55154 0.73295 0.0
H2957 H 0.92932 0.48964 0.73521 0.0
H2958 H 0.9563 0.44975 0.82338 0.0
H2959 H 0.9552 0.46389 0.79108 0.0
H2960 H 0.96098 0.52415 0.78888 0.0
C2961 C 0.94345 0.54248 0.72028 0.0
C2962 C 0.93653 0.49726 0.74664 0.0
C2963 C 0.94324 0.5507 0.70173 0.0
C2964 C 0.95223 0.46426 0.82232 0.0
C2965 C 0.95148 0.47231 0.80368 0.0
C2966 C 0.95393 0.51656 0.7773 0.0
C2967 C 0.94441 0.52301 0.72245 0.0
C2968 C 0.94506 0.51454 0.74262 0.0
C2969 C 0.94619 0.49101 0.80129 0.0
C2970 C 0.94545 0.49932 0.78121 0.0
H2971 H 0.94443 0.51149 0.67359 0.0
H2972 H 0.94553 0.49694 0.70618 0.0
H2973 H 0.96108 0.53706 0.75586 0.0
H2974 H 0.93842 0.50166 0.84954 0.0
H2975 H 0.93761 0.51599 0.81676 0.0
C2976 C 0.24225 0.39414 0.17148 0.0
C2977 C 0.2475 0.38142 0.15673 0.0
C2978 C 0.22685 0.40591 0.16895 0.0
C2979 C 0.19839 0.42724 0.12982 0.0
H2980 H 0.16457 0.43999 0.17217 0.0
C2981 C 0.13478 0.47327 0.11503 0.0
C2982 C 0.13099 0.48769 0.12838 0.0
C2983 C 0.14727 0.45905 0.11977 0.0
C2984 C 0.17398 0.4367 0.16024 0.0
H2985 H 0.24024 0.37094 0.12788 0.0
H2986 H 0.21325 0.39125 0.12358 0.0
H2987 H 0.1896 0.41738 0.17782 0.0
H2988 H 0.13655 0.49804 0.15759 0.0
H2989 H 0.15878 0.47317 0.16597 0.0
H2990 H 0.18313 0.44664 0.1123 0.0
C2991 C 0.22122 0.39227 0.13704 0.0
C2992 C 0.18833 0.42372 0.16347 0.0
C2993 C 0.2366 0.38046 0.13959 0.0
C2994 C 0.13918 0.48702 0.14708 0.0
C2995 C 0.15191 0.47279 0.15182 0.0
C2996 C 0.18414 0.44018 0.12662 0.0
C2997 C 0.21628 0.40533 0.15158 0.0
C2998 C 0.2007 0.4188 0.14826 0.0
C2999 C 0.15653 0.45893 0.13795 0.0
C3000 C 0.17166 0.44505 0.14173 0.0
H3001 H 0.25012 0.39509 0.18499 0.0
H3002 H 0.22355 0.41584 0.1804 0.0
H3003 H 0.20789 0.42416 0.11789 0.0
H3004 H 0.12839 0.47329 0.10063 0.0
H3005 H 0.15 0.44834 0.10893 0.0
C3006 C 0.8637 0.98918 0.42476 0.0
C3007 C 0.87838 0.99262 0.41153 0.0
C3008 C 0.85225 0.97347 0.42266 0.0
C3009 C 0.83584 0.94109 0.38445 0.0
H3010 H 0.81519 0.91316 0.42808 0.0
C3011 C 0.78769 0.87886 0.37016 0.0
C3012 C 0.77149 0.87729 0.38165 0.0
C3013 C 0.80205 0.89099 0.37552 0.0
C3014 C 0.82071 0.92092 0.41575 0.0
H3015 H 0.8929 0.98175 0.38609 0.0
H3016 H 0.87312 0.95422 0.38256 0.0
H3017 H 0.83821 0.93771 0.43424 0.0
H3018 H 0.758 0.88653 0.40829 0.0
H3019 H 0.78307 0.90818 0.41766 0.0
H3020 H 0.81817 0.92476 0.36597 0.0
C3021 C 0.87031 0.96383 0.39446 0.0
C3022 C 0.83395 0.93497 0.41927 0.0
C3023 C 0.88181 0.97951 0.39662 0.0
C3024 C 0.77039 0.88743 0.39924 0.0
C3025 C 0.78475 0.89981 0.40455 0.0
C3026 C 0.82263 0.92714 0.38095 0.0
C3027 C 0.85513 0.96081 0.40721 0.0
C3028 C 0.84168 0.94525 0.40365 0.0
C3029 C 0.80054 0.90213 0.39242 0.0
C3030 C 0.81487 0.91681 0.39651 0.0
H3031 H 0.8608 0.99886 0.43656 0.0
H3032 H 0.84066 0.97168 0.43269 0.0
H3033 H 0.84112 0.94898 0.37209 0.0
H3034 H 0.78903 0.87096 0.3567 0.0
H3035 H 0.81419 0.89193 0.36611 0.0
C3036 C 0.28036 0.62677 0.63326 0.0
C3037 C 0.27041 0.62598 0.65101 0.0
C3038 C 0.29593 0.6153 0.63021 0.0
C3039 C 0.33053 0.585 0.65592 0.0
H3040 H 0.33345 0.56031 0.60546 0.0
C3041 C 0.37759 0.52025 0.64049 0.0
C3042 C 0.3856 0.5189 0.62174 0.0
C3043 C 0.36515 0.53479 0.6449 0.0
C3044 C 0.33305 0.56726 0.61955 0.0
H3045 H 0.26974 0.61321 0.67985 0.0
H3046 H 0.2965 0.59304 0.67441 0.0
H3047 H 0.30912 0.58324 0.61128 0.0
H3048 H 0.38804 0.53248 0.59347 0.0
H3049 H 0.3667 0.55781 0.60115 0.0
H3050 H 0.35437 0.56869 0.66424 0.0
C3051 C 0.29238 0.60254 0.66284 0.0
C3052 C 0.31907 0.58048 0.62288 0.0
C3053 C 0.27684 0.61396 0.66587 0.0
C3054 C 0.38174 0.5329 0.6079 0.0
C3055 C 0.36946 0.5474 0.61229 0.0
C3056 C 0.34455 0.57173 0.65259 0.0
C3057 C 0.30197 0.60282 0.64486 0.0
C3058 C 0.31755 0.58948 0.64112 0.0
C3059 C 0.36058 0.54828 0.63065 0.0
C3060 C 0.34596 0.56267 0.63435 0.0
H3061 H 0.27579 0.6358 0.62149 0.0
H3062 H 0.30314 0.61608 0.61628 0.0
H3063 H 0.32991 0.5918 0.67009 0.0
H3064 H 0.38026 0.50961 0.65141 0.0
H3065 H 0.35852 0.535 0.65917 0.0
C3066 C 0.63022 0.02734 0.88654 0.0
C3067 C 0.63323 0.01516 0.90241 0.0
C3068 C 0.64238 0.04237 0.88315 0.0
C3069 C 0.67688 0.07237 0.90846 0.0
H3070 H 0.69542 0.0827 0.85622 0.0
C3071 C 0.73986 0.12157 0.89359 0.0
C3072 C 0.74017 0.13135 0.87578 0.0
C3073 C 0.72543 0.10885 0.89756 0.0
C3074 C 0.69015 0.08029 0.87089 0.0
H3075 H 0.6521 0.00885 0.92648 0.0
H3076 H 0.67287 0.03497 0.92075 0.0
H3077 H 0.67285 0.05774 0.86108 0.0
H3078 H 0.72511 0.13668 0.84886 0.0
H3079 H 0.69965 0.11522 0.856 0.0
H3080 H 0.69413 0.09492 0.91831 0.0
C3081 C 0.66093 0.03318 0.91118 0.0
C3082 C 0.67722 0.0659 0.87364 0.0
C3083 C 0.64894 0.01816 0.91446 0.0
C3084 C 0.72527 0.1291 0.8626 0.0
C3085 C 0.71079 0.11666 0.86663 0.0
C3086 C 0.68971 0.08687 0.90569 0.0
C3087 C 0.65773 0.04558 0.89562 0.0
C3088 C 0.67058 0.06163 0.89248 0.0
C3089 C 0.71095 0.10587 0.88386 0.0
C3090 C 0.69665 0.09095 0.88688 0.0
H3091 H 0.61826 0.02556 0.87703 0.0
H3092 H 0.63953 0.05171 0.87104 0.0
H3093 H 0.67184 0.06958 0.92315 0.0
H3094 H 0.75129 0.12297 0.90388 0.0
H3095 H 0.72613 0.10075 0.91094 0.0
C3096 C 0.13367 0.52465 0.37973 0.0
C3097 C 0.13351 0.51801 0.39919 0.0
C3098 C 0.14636 0.53858 0.37394 0.0
C3099 C 0.17429 0.57719 0.39403 0.0
H3100 H 0.20624 0.57099 0.34867 0.0
C3101 C 0.23913 0.62391 0.3816 0.0
C3102 C 0.2449 0.62762 0.36231 0.0
C3103 C 0.22436 0.61155 0.38523 0.0
C3104 C 0.19722 0.57321 0.36119 0.0
H3105 H 0.14757 0.52049 0.42741 0.0
H3106 H 0.16886 0.54483 0.41748 0.0
H3107 H 0.18241 0.54764 0.35586 0.0
H3108 H 0.23911 0.62207 0.3317 0.0
H3109 H 0.213 0.60111 0.33788 0.0
H3110 H 0.18876 0.60278 0.39936 0.0
C3111 C 0.15903 0.53946 0.40679 0.0
C3112 C 0.18358 0.55974 0.3653 0.0
C3113 C 0.14665 0.52546 0.41248 0.0
C3114 C 0.23515 0.61924 0.34673 0.0
C3115 C 0.22023 0.60712 0.35032 0.0
C3116 C 0.18772 0.59078 0.38979 0.0
C3117 C 0.15896 0.54632 0.38754 0.0
C3118 C 0.1722 0.56142 0.38196 0.0
C3119 C 0.21479 0.6028 0.36963 0.0
C3120 C 0.19963 0.58886 0.37348 0.0
H3121 H 0.12382 0.51938 0.36905 0.0
H3122 H 0.14603 0.54359 0.35896 0.0
H3123 H 0.16555 0.57898 0.40686 0.0
H3124 H 0.24651 0.63001 0.39389 0.0
H3125 H 0.22086 0.60843 0.40032 0.0
C3126 C 0.6543 0.99813 0.62023 0.0
C3127 C 0.63642 0.99928 0.62865 0.0
C3128 C 0.66727 0.98509 0.62687 0.0
C3129 C 0.6713 0.9399 0.65216 0.0
H3130 H 0.7237 0.9534 0.65386 0.0
C3131 C 0.73117 0.88504 0.65513 0.0
C3132 C 0.74717 0.8894 0.66625 0.0
C3133 C 0.71695 0.89825 0.65241 0.0
C3134 C 0.70913 0.94936 0.65371 0.0
H3135 H 0.61832 0.98788 0.65105 0.0
H3136 H 0.64123 0.96494 0.66292 0.0
H3137 H 0.70046 0.97717 0.64704 0.0
H3138 H 0.76042 0.91137 0.68327 0.0
H3139 H 0.73564 0.93391 0.67901 0.0
H3140 H 0.68008 0.91204 0.65899 0.0
C3141 C 0.64505 0.97412 0.65097 0.0
C3142 C 0.69578 0.963 0.64958 0.0
C3143 C 0.63201 0.98735 0.64434 0.0
C3144 C 0.74836 0.90726 0.67477 0.0
C3145 C 0.73416 0.92038 0.67212 0.0
C3146 C 0.68471 0.92619 0.65632 0.0
C3147 C 0.66282 0.97277 0.6422 0.0
C3148 C 0.67671 0.95844 0.64846 0.0
C3149 C 0.71835 0.91617 0.66073 0.0
C3150 C 0.70384 0.93072 0.65698 0.0
H3151 H 0.65826 0.00727 0.60831 0.0
H3152 H 0.68069 0.98436 0.61959 0.0
H3153 H 0.65675 0.93586 0.65127 0.0
H3154 H 0.72957 0.87143 0.64849 0.0
H3155 H 0.70506 0.89454 0.6434 0.0
C3156 C 0.37851 0.48487 0.88047 0.0
C3157 C 0.3742 0.49745 0.89565 0.0
C3158 C 0.36633 0.47008 0.87602 0.0
C3159 C 0.33012 0.44115 0.89924 0.0
H3160 H 0.31381 0.42942 0.84648 0.0
C3161 C 0.26796 0.39158 0.88438 0.0
C3162 C 0.26828 0.38059 0.86735 0.0
C3163 C 0.2819 0.40493 0.88775 0.0
C3164 C 0.31844 0.43225 0.86131 0.0
H3165 H 0.35301 0.50507 0.91696 0.0
H3166 H 0.33224 0.47934 0.90951 0.0
H3167 H 0.33651 0.45435 0.8517 0.0
H3168 H 0.28399 0.37421 0.84105 0.0
H3169 H 0.30852 0.397 0.84711 0.0
H3170 H 0.31232 0.41907 0.90895 0.0
C3171 C 0.34515 0.48059 0.90134 0.0
C3172 C 0.33144 0.44659 0.86425 0.0
C3173 C 0.35713 0.49536 0.90562 0.0
C3174 C 0.28319 0.38274 0.85413 0.0
C3175 C 0.29722 0.39588 0.85758 0.0
C3176 C 0.3173 0.42671 0.8963 0.0
C3177 C 0.34973 0.46757 0.88677 0.0
C3178 C 0.33718 0.45139 0.88328 0.0
C3179 C 0.29663 0.40741 0.87426 0.0
C3180 C 0.31106 0.42221 0.87732 0.0
H3181 H 0.39153 0.48608 0.87252 0.0
H3182 H 0.37018 0.46026 0.86464 0.0
H3183 H 0.33451 0.44436 0.91407 0.0
H3184 H 0.25655 0.39034 0.89472 0.0
H3185 H 0.28079 0.41367 0.90064 0.0
C3186 C 0.86891 0.01766 0.14376 0.0
C3187 C 0.87626 0.01786 0.12464 0.0
C3188 C 0.85622 0.0314 0.14983 0.0
C3189 C 0.83813 0.07858 0.13674 0.0
H3190 H 0.79445 0.0631 0.16609 0.0
C3191 C 0.7722 0.12472 0.14386 0.0
C3192 C 0.76275 0.12492 0.16196 0.0
C3193 C 0.78704 0.11239 0.14061 0.0
C3194 C 0.80668 0.06773 0.15812 0.0
H3195 H 0.87657 0.03324 0.09723 0.0
H3196 H 0.85433 0.05676 0.10757 0.0
H3197 H 0.81874 0.0404 0.15849 0.0
H3198 H 0.76209 0.11261 0.19102 0.0
H3199 H 0.78784 0.09112 0.1853 0.0
H3200 H 0.8259 0.10583 0.13607 0.0
C3201 C 0.85838 0.04611 0.11799 0.0
C3202 C 0.82065 0.05469 0.15379 0.0
C3203 C 0.871 0.03241 0.11195 0.0
C3204 C 0.76876 0.11266 0.17679 0.0
C3205 C 0.78357 0.10031 0.17352 0.0
C3206 C 0.82415 0.09158 0.14102 0.0
C3207 C 0.85067 0.04572 0.13694 0.0
C3208 C 0.83646 0.05989 0.14284 0.0
C3209 C 0.79282 0.09992 0.15535 0.0
C3210 C 0.80814 0.08629 0.15159 0.0
H3211 H 0.8726 0.00664 0.15389 0.0
H3212 H 0.85072 0.03077 0.16461 0.0
H3213 H 0.85026 0.08318 0.1286 0.0
H3214 H 0.76785 0.13372 0.13198 0.0
H3215 H 0.79368 0.11231 0.12634 0.0
C3216 C 0.87727 0.53283 0.90775 0.0
C3217 C 0.88186 0.5186 0.89443 0.0
C3218 C 0.86452 0.54672 0.90271 0.0
C3219 C 0.83898 0.56913 0.86163 0.0
H3220 H 0.80308 0.58013 0.90262 0.0
C3221 C 0.77137 0.61236 0.84844 0.0
C3222 C 0.76545 0.6245 0.86344 0.0
C3223 C 0.78653 0.60033 0.8513 0.0
C3224 C 0.81312 0.57748 0.89108 0.0
H3225 H 0.87744 0.50834 0.86496 0.0
H3226 H 0.85483 0.5327 0.85603 0.0
H3227 H 0.82787 0.5578 0.90877 0.0
H3228 H 0.77125 0.63361 0.89316 0.0
H3229 H 0.79783 0.61298 0.89802 0.0
H3230 H 0.82398 0.58881 0.84391 0.0
C3231 C 0.86124 0.53311 0.87041 0.0
C3232 C 0.82738 0.56462 0.8946 0.0
C3233 C 0.87418 0.51918 0.87547 0.0
C3234 C 0.77541 0.62459 0.88122 0.0
C3235 C 0.79056 0.61256 0.88409 0.0
C3236 C 0.82465 0.58206 0.8581 0.0
C3237 C 0.85585 0.54674 0.88421 0.0
C3238 C 0.84059 0.56034 0.88 0.0
C3239 C 0.79618 0.60009 0.86926 0.0
C3240 C 0.81158 0.58646 0.87283 0.0
H3241 H 0.88327 0.53296 0.92233 0.0
H3242 H 0.86116 0.55728 0.91351 0.0
H3243 H 0.84897 0.56626 0.8501 0.0
H3244 H 0.76424 0.61206 0.83445 0.0
H3245 H 0.79036 0.59087 0.8396 0.0
C3246 C 0.13818 0.02151 0.64013 0.0
C3247 C 0.13132 0.01827 0.62116 0.0
C3248 C 0.15052 0.03633 0.64369 0.0
C3249 C 0.18341 0.06776 0.61685 0.0
H3250 H 0.18651 0.09261 0.66721 0.0
C3251 C 0.23459 0.12933 0.63407 0.0
C3252 C 0.2447 0.12727 0.65166 0.0
C3253 C 0.21984 0.11713 0.62953 0.0
C3254 C 0.1858 0.08578 0.65306 0.0
H3255 H 0.13086 0.02863 0.59137 0.0
H3256 H 0.15161 0.05489 0.59761 0.0
H3257 H 0.16173 0.06996 0.66133 0.0
H3258 H 0.24764 0.10987 0.67762 0.0
H3259 H 0.2219 0.08928 0.66997 0.0
H3260 H 0.20745 0.08383 0.60863 0.0
C3261 C 0.14823 0.04565 0.60966 0.0
C3262 C 0.17165 0.07269 0.64971 0.0
C3263 C 0.1362 0.03069 0.60607 0.0
C3264 C 0.23994 0.11242 0.66426 0.0
C3265 C 0.22514 0.10049 0.65986 0.0
C3266 C 0.1974 0.08105 0.62013 0.0
C3267 C 0.15601 0.04841 0.62839 0.0
C3268 C 0.17039 0.06326 0.63165 0.0
C3269 C 0.21479 0.10278 0.64258 0.0
C3270 C 0.19894 0.08997 0.63838 0.0
H3271 H 0.13474 0.01202 0.65194 0.0
H3272 H 0.15631 0.03782 0.65827 0.0
H3273 H 0.1832 0.06062 0.60286 0.0
H3274 H 0.23776 0.14057 0.62403 0.0
H3275 H 0.2121 0.11918 0.61605 0.0
C3276 C 0.6571 0.49899 0.41016 0.0
C3277 C 0.6376 0.49662 0.41016 0.0
C3278 C 0.66905 0.48378 0.4079 0.0
C3279 C 0.67139 0.43497 0.38999 0.0
H3280 H 0.71886 0.43626 0.41737 0.0
C3281 C 0.7292 0.3772 0.3834 0.0
C3282 C 0.74682 0.38447 0.37847 0.0
C3283 C 0.71458 0.38918 0.38893 0.0
C3284 C 0.70565 0.43567 0.40964 0.0
H3285 H 0.61545 0.47619 0.40762 0.0
H3286 H 0.63644 0.44938 0.40391 0.0
H3287 H 0.69547 0.46001 0.4242 0.0
H3288 H 0.76312 0.40981 0.37613 0.0
H3289 H 0.7379 0.43056 0.38611 0.0
H3290 H 0.68182 0.41047 0.37547 0.0
C3291 C 0.64243 0.46316 0.40549 0.0
C3292 C 0.69224 0.44936 0.41345 0.0
C3293 C 0.63038 0.47851 0.40766 0.0
C3294 C 0.74966 0.40383 0.37966 0.0
C3295 C 0.73525 0.4157 0.38552 0.0
C3296 C 0.68479 0.42109 0.38633 0.0
C3297 C 0.66196 0.4656 0.40569 0.0
C3298 C 0.67514 0.44957 0.40326 0.0
C3299 C 0.7175 0.40857 0.39009 0.0
C3300 C 0.70225 0.42162 0.39574 0.0
H3301 H 0.66322 0.51273 0.41146 0.0
H3302 H 0.68394 0.48639 0.40753 0.0
H3303 H 0.65844 0.43468 0.38178 0.0
H3304 H 0.72664 0.36235 0.38251 0.0
H3305 H 0.70105 0.3833 0.39243 0.0
C3306 C 0.37388 0.97515 0.10795 0.0
C3307 C 0.3784 0.98976 0.12089 0.0
C3308 C 0.36057 0.96179 0.113 0.0
C3309 C 0.33459 0.94078 0.15432 0.0
H3310 H 0.29893 0.92824 0.11356 0.0
C3311 C 0.2679 0.89682 0.16902 0.0
C3312 C 0.26201 0.88428 0.15437 0.0
C3313 C 0.28277 0.90909 0.16567 0.0
C3314 C 0.30891 0.93134 0.12505 0.0
H3315 H 0.3729 1.00127 0.14969 0.0
H3316 H 0.34952 0.97778 0.15862 0.0
H3317 H 0.32361 0.9506 0.10678 0.0
H3318 H 0.26754 0.87476 0.12473 0.0
H3319 H 0.29369 0.89572 0.11908 0.0
H3320 H 0.31983 0.92143 0.1726 0.0
C3321 C 0.3564 0.97673 0.14452 0.0
C3322 C 0.32307 0.94422 0.12117 0.0
C3323 C 0.36979 0.99018 0.13942 0.0
C3324 C 0.2717 0.88407 0.13643 0.0
C3325 C 0.28659 0.89631 0.13309 0.0
C3326 C 0.32041 0.9278 0.15821 0.0
C3327 C 0.35136 0.96259 0.13118 0.0
C3328 C 0.33616 0.94905 0.1357 0.0
C3329 C 0.29219 0.90914 0.14758 0.0
C3330 C 0.30742 0.92286 0.14359 0.0
H3331 H 0.38058 0.97409 0.09377 0.0
H3332 H 0.3574 0.95083 0.10258 0.0
H3333 H 0.34453 0.94408 0.16579 0.0
H3334 H 0.261 0.89724 0.18312 0.0
H3335 H 0.28658 0.91884 0.17712 0.0
C3336 C 0.77398 0.39008 0.63196 0.0
C3337 C 0.77354 0.38046 0.64986 0.0
C3338 C 0.78834 0.40289 0.62805 0.0
C3339 C 0.8232 0.432 0.65474 0.0
H3340 H 0.84179 0.44219 0.60248 0.0
C3341 C 0.88281 0.48539 0.63813 0.0
C3342 C 0.87969 0.49708 0.62189 0.0
C3343 C 0.87071 0.47039 0.642 0.0
C3344 C 0.83668 0.43954 0.61717 0.0
H3345 H 0.78833 0.37553 0.67704 0.0
H3346 H 0.81367 0.39718 0.67002 0.0
H3347 H 0.81973 0.41671 0.6075 0.0
H3348 H 0.86065 0.50281 0.59783 0.0
H3349 H 0.83997 0.47679 0.60441 0.0
H3350 H 0.84025 0.45485 0.66435 0.0
C3351 C 0.80267 0.39553 0.65926 0.0
C3352 C 0.82397 0.42496 0.62004 0.0
C3353 C 0.78825 0.38299 0.66323 0.0
C3354 C 0.86387 0.49381 0.61011 0.0
C3355 C 0.85195 0.47886 0.61387 0.0
C3356 C 0.83604 0.44648 0.65188 0.0
C3357 C 0.80264 0.40613 0.6419 0.0
C3358 C 0.81689 0.42109 0.63884 0.0
C3359 C 0.85534 0.46679 0.62966 0.0
C3360 C 0.84274 0.45058 0.63302 0.0
H3361 H 0.76269 0.38847 0.62152 0.0
H3362 H 0.78773 0.41084 0.61457 0.0
H3363 H 0.81785 0.42972 0.66939 0.0
H3364 H 0.89486 0.48746 0.64745 0.0
H3365 H 0.87367 0.46133 0.65432 0.0
C3366 C 0.26762 0.12168 0.39739 0.0
C3367 C 0.26844 0.13134 0.3795 0.0
C3368 C 0.28174 0.10896 0.4025 0.0
C3369 C 0.31874 0.08039 0.37852 0.0
H3370 H 0.33462 0.0702 0.4318 0.0
C3371 C 0.37877 0.02916 0.39459 0.0
C3372 C 0.37533 0.01576 0.4092 0.0
C3373 C 0.36694 0.04457 0.39239 0.0
C3374 C 0.33027 0.07286 0.41684 0.0
H3375 H 0.28521 0.13641 0.35367 0.0
H3376 H 0.31006 0.11497 0.36277 0.0
H3377 H 0.31183 0.09493 0.42557 0.0
H3378 H 0.3573 0.0086 0.43358 0.0
H3379 H 0.33665 0.03548 0.42974 0.0
H3380 H 0.33714 0.05842 0.36977 0.0
C3381 C 0.29827 0.11646 0.37257 0.0
C3382 C 0.31715 0.087 0.41326 0.0
C3383 C 0.2841 0.12888 0.3674 0.0
C3384 C 0.36023 0.01857 0.42206 0.0
C3385 C 0.34848 0.03406 0.41996 0.0
C3386 C 0.33192 0.06643 0.38207 0.0
C3387 C 0.29704 0.10584 0.38988 0.0
C3388 C 0.3112 0.09098 0.39402 0.0
C3389 C 0.35145 0.04705 0.40483 0.0
C3390 C 0.33786 0.06245 0.40126 0.0
H3391 H 0.25563 0.12327 0.40691 0.0
H3392 H 0.28023 0.10101 0.4159 0.0
H3393 H 0.3142 0.08261 0.36355 0.0
H3394 H 0.39016 0.02737 0.38433 0.0
H3395 H 0.36976 0.05442 0.38072 0.0
C3396 C 0.74118 0.62258 0.13 0.0
C3397 C 0.7429 0.62911 0.14935 0.0
C3398 C 0.7267 0.61025 0.12491 0.0
C3399 C 0.69471 0.57614 0.14854 0.0
H3400 H 0.66976 0.57564 0.0981 0.0
C3401 C 0.63357 0.52577 0.13281 0.0
C3402 C 0.63391 0.51644 0.11467 0.0
C3403 C 0.64567 0.54074 0.13645 0.0
C3404 C 0.67668 0.57553 0.11222 0.0
H3405 H 0.73005 0.62908 0.17808 0.0
H3406 H 0.7047 0.60813 0.16923 0.0
H3407 H 0.69302 0.59971 0.10517 0.0
H3408 H 0.64671 0.51619 0.08584 0.0
H3409 H 0.66791 0.54206 0.09227 0.0
H3410 H 0.67855 0.55197 0.1556 0.0
C3411 C 0.71481 0.61185 0.15808 0.0
C3412 C 0.69005 0.58932 0.11626 0.0
C3413 C 0.72929 0.62395 0.16316 0.0
C3414 C 0.64624 0.52285 0.10008 0.0
C3415 C 0.65827 0.53786 0.10369 0.0
C3416 C 0.68135 0.56244 0.14454 0.0
C3417 C 0.71359 0.60436 0.13906 0.0
C3418 C 0.69924 0.58983 0.1345 0.0
C3419 C 0.65835 0.54683 0.12202 0.0
C3420 C 0.67215 0.56191 0.12634 0.0
H3421 H 0.75152 0.62629 0.1191 0.0
H3422 H 0.72625 0.60475 0.11013 0.0
H3423 H 0.70178 0.57576 0.16258 0.0
H3424 H 0.62434 0.52118 0.14441 0.0
H3425 H 0.64518 0.54748 0.15066 0.0
C3426 C 0.14839 0.99157 0.91555 0.0
C3427 C 0.13319 0.99521 0.90305 0.0
C3428 C 0.16116 0.97747 0.91126 0.0
C3429 C 0.16674 0.93423 0.88206 0.0
H3430 H 0.21893 0.94072 0.89572 0.0
C3431 C 0.22588 0.885 0.85635 0.0
C3432 C 0.24036 0.88086 0.86957 0.0
C3433 C 0.21183 0.89761 0.86138 0.0
C3434 C 0.20436 0.93858 0.89209 0.0
H3435 H 0.1199 0.98713 0.8758 0.0
H3436 H 0.14261 0.9627 0.86791 0.0
H3437 H 0.19707 0.96621 0.90098 0.0
H3438 H 0.25111 0.88605 0.8987 0.0
H3439 H 0.22647 0.90835 0.90761 0.0
H3440 H 0.17428 0.90667 0.87271 0.0
C3441 C 0.14435 0.97057 0.88135 0.0
C3442 C 0.19179 0.95322 0.89506 0.0
C3443 C 0.13145 0.98472 0.88572 0.0
C3444 C 0.24005 0.88895 0.88831 0.0
C3445 C 0.22608 0.90181 0.89329 0.0
C3446 C 0.17938 0.91962 0.87893 0.0
C3447 C 0.15929 0.96666 0.89419 0.0
C3448 C 0.17278 0.95124 0.89018 0.0
C3449 C 0.21202 0.90655 0.8797 0.0
C3450 C 0.19832 0.92162 0.88396 0.0
H3451 H 0.15045 0.99956 0.92884 0.0
H3452 H 0.17228 0.97481 0.92165 0.0
H3453 H 0.15219 0.93205 0.87841 0.0
H3454 H 0.22574 0.87882 0.84186 0.0
H3455 H 0.20129 0.90099 0.85054 0.0
loop_
_geom_bond_atom_site_label_1
_geom_bond_atom_site_label_2
_geom_bond_distance
_geom_bond_site_symmetry_2
_ccdc_geom_bond_type
C0 C1 1.351 . S
C0 N3 1.368 . S
C0 H5 0.931 . S
C1 C0 1.351 . S
C1 N2 1.373 . S
C1 H29 0.930 . S
N2 C1 1.373 . S
N2 C4 1.340 . S
N3 C0 1.368 . S
N3 C4 1.321 . S
N3 Co6 2.135 . S
C4 N2 1.340 . S
C4 N3 1.321 . S
C4 H28 0.930 . S
H5 C0 0.931 . S
Co6 N3 2.135 . S
Co6 N9 2.121 . S
Co6 O14 2.055 . S
Co6 O17 2.039 . S
Co6 N20 2.140 . S
C7 O8 1.227 . S
C7 O17 1.265 . S
O8 C7 1.227 . S
N9 Co6 2.121 . S
N9 C11 1.375 . S
N9 C12 1.313 . S
C10 C11 1.338 . S
C10 N13 1.377 . S
C10 H30 0.930 . S
C11 N9 1.375 . S
C11 C10 1.338 . S
C11 H15 0.931 . S
C12 N9 1.313 . S
C12 N13 1.344 . S
C12 H16 0.930 . S
N13 C10 1.377 . S
N13 C12 1.344 . S
O14 Co6 2.055 . S
O14 C18 1.253 . S
H15 C11 0.931 . S
H16 C12 0.930 . S
O17 Co6 2.039 . S
O17 C7 1.265 . S
C18 O14 1.253 . S
C18 O19 1.227 . S
O19 C18 1.227 . S
N20 Co6 2.140 . S
N20 C23 1.346 . S
N20 C24 1.345 . S
C21 C22 1.387 . S
C21 C25 1.391 . S
C22 C21 1.387 . S
C22 C23 1.369 . S
C22 H31 0.929 . S
C23 N20 1.346 . S
C23 C22 1.369 . S
C23 H26 0.928 . S
C24 N20 1.345 . S
C24 C25 1.371 . S
C24 H27 0.931 . S
C25 C21 1.391 . S
C25 C24 1.371 . S
C25 H32 0.930 . S
H26 C23 0.928 . S
H27 C24 0.931 . S
H28 C4 0.930 . S
H29 C1 0.930 . S
H30 C10 0.930 . S
H31 C22 0.929 . S
H32 C25 0.930 . S
C33 C34 1.351 . S
C33 N36 1.368 . S
C33 H38 0.931 . S
C34 C33 1.351 . S
C34 N35 1.373 . S
C34 H62 0.930 . S
N35 C34 1.373 . S
N35 C37 1.340 . S
N36 C33 1.368 . S
N36 C37 1.321 . S
N36 Co39 2.135 . S
C37 N35 1.340 . S
C37 N36 1.321 . S
C37 H61 0.930 . S
H38 C33 0.931 . S
Co39 N36 2.135 . S
Co39 N42 2.121 . S
Co39 O47 2.055 . S
Co39 O50 2.039 . S
Co39 N53 2.140 . S
C40 O41 1.227 . S
C40 O50 1.265 . S
O41 C40 1.227 . S
N42 Co39 2.121 . S
N42 C44 1.375 . S
N42 C45 1.313 . S
C43 C44 1.338 . S
C43 N46 1.377 . S
C43 H63 0.930 . S
C44 N42 1.375 . S
C44 C43 1.338 . S
C44 H48 0.931 . S
C45 N42 1.313 . S
C45 N46 1.344 . S
C45 H49 0.930 . S
N46 C43 1.377 . S
N46 C45 1.344 . S
O47 Co39 2.055 . S
O47 C51 1.253 . S
H48 C44 0.931 . S
H49 C45 0.930 . S
O50 Co39 2.039 . S
O50 C40 1.265 . S
C51 O47 1.253 . S
C51 O52 1.227 . S
O52 C51 1.227 . S
N53 Co39 2.140 . S
N53 C56 1.346 . S
N53 C57 1.345 . S
C54 C55 1.387 . S
C54 C58 1.391 . S
C55 C54 1.387 . S
C55 C56 1.369 . S
C55 H64 0.929 . S
C56 N53 1.346 . S
C56 C55 1.369 . S
C56 H59 0.928 . S
C57 N53 1.345 . S
C57 C58 1.371 . S
C57 H60 0.931 . S
C58 C54 1.391 . S
C58 C57 1.371 . S
C58 H65 0.930 . S
H59 C56 0.928 . S
H60 C57 0.931 . S
H61 C37 0.930 . S
H62 C34 0.930 . S
H63 C43 0.930 . S
H64 C55 0.929 . S
H65 C58 0.930 . S
C66 C67 1.351 . S
C66 N69 1.368 . S
C66 H71 0.931 . S
C67 C66 1.351 . S
C67 N68 1.373 . S
C67 H95 0.930 . S
N68 C67 1.373 . S
N68 C70 1.340 . S
N69 C66 1.368 . S
N69 C70 1.321 . S
N69 Co72 2.135 . S
C70 N68 1.340 . S
C70 N69 1.321 . S
C70 H94 0.930 . S
H71 C66 0.931 . S
Co72 N69 2.135 . S
Co72 N75 2.121 . S
Co72 O80 2.055 . S
Co72 O83 2.039 . S
Co72 N86 2.140 . S
C73 O74 1.227 . S
C73 O83 1.265 . S
O74 C73 1.227 . S
N75 Co72 2.121 . S
N75 C77 1.375 . S
N75 C78 1.313 . S
C76 C77 1.338 . S
C76 N79 1.377 . S
C76 H96 0.930 . S
C77 N75 1.375 . S
C77 C76 1.338 . S
C77 H81 0.931 . S
C78 N75 1.313 . S
C78 N79 1.344 . S
C78 H82 0.930 . S
N79 C76 1.377 . S
N79 C78 1.344 . S
O80 Co72 2.055 . S
O80 C84 1.253 . S
H81 C77 0.931 . S
H82 C78 0.930 . S
O83 Co72 2.039 . S
O83 C73 1.265 . S
C84 O80 1.253 . S
C84 O85 1.227 . S
O85 C84 1.227 . S
N86 Co72 2.140 . S
N86 C89 1.346 . S
N86 C90 1.345 . S
C87 C88 1.387 . S
C87 C91 1.391 . S
C88 C87 1.387 . S
C88 C89 1.369 . S
C88 H97 0.929 . S
C89 N86 1.346 . S
C89 C88 1.369 . S
C89 H92 0.928 . S
C90 N86 1.345 . S
C90 C91 1.371 . S
C90 H93 0.931 . S
C91 C87 1.391 . S
C91 C90 1.371 . S
C91 H98 0.930 . S
H92 C89 0.928 . S
H93 C90 0.931 . S
H94 C70 0.930 . S
H95 C67 0.930 . S
H96 C76 0.930 . S
H97 C88 0.929 . S
H98 C91 0.930 . S
C99 C100 1.351 . S
C99 N102 1.368 . S
C99 H104 0.931 . S
C100 C99 1.351 . S
C100 N101 1.373 . S
C100 H128 0.930 . S
N101 C100 1.373 . S
N101 C103 1.340 . S
N102 C99 1.368 . S
N102 C103 1.321 . S
N102 Co105 2.135 . S
C103 N101 1.340 . S
C103 N102 1.321 . S
C103 H127 0.930 . S
H104 C99 0.931 . S
Co105 N102 2.135 . S
Co105 N108 2.121 . S
Co105 O113 2.055 . S
Co105 O116 2.039 . S
Co105 N119 2.140 . S
C106 O107 1.227 . S
C106 O116 1.265 . S
O107 C106 1.227 . S
N108 Co105 2.121 . S
N108 C110 1.375 . S
N108 C111 1.313 . S
C109 C110 1.338 . S
C109 N112 1.377 . S
C109 H129 0.930 . S
C110 N108 1.375 . S
C110 C109 1.338 . S
C110 H114 0.931 . S
C111 N108 1.313 . S
C111 N112 1.344 . S
C111 H115 0.930 . S
N112 C109 1.377 . S
N112 C111 1.344 . S
O113 Co105 2.055 . S
O113 C117 1.253 . S
H114 C110 0.931 . S
H115 C111 0.930 . S
O116 Co105 2.039 . S
O116 C106 1.265 . S
C117 O113 1.253 . S
C117 O118 1.227 . S
O118 C117 1.227 . S
N119 Co105 2.140 . S
N119 C122 1.346 . S
N119 C123 1.345 . S
C120 C121 1.387 . S
C120 C124 1.391 . S
C121 C120 1.387 . S
C121 C122 1.369 . S
C121 H130 0.929 . S
C122 N119 1.346 . S
C122 C121 1.369 . S
C122 H125 0.928 . S
C123 N119 1.345 . S
C123 C124 1.371 . S
C123 H126 0.931 . S
C124 C120 1.391 . S
C124 C123 1.371 . S
C124 H131 0.930 . S
H125 C122 0.928 . S
H126 C123 0.931 . S
H127 C103 0.930 . S
H128 C100 0.930 . S
H129 C109 0.930 . S
H130 C121 0.929 . S
H131 C124 0.930 . S
C132 C133 1.351 . S
C132 N135 1.368 . S
C132 H137 0.931 . S
C133 C132 1.351 . S
C133 N134 1.373 . S
C133 H161 0.930 . S
N134 C133 1.373 . S
N134 C136 1.340 . S
N135 C132 1.368 . S
N135 C136 1.321 . S
N135 Co138 2.135 . S
C136 N134 1.340 . S
C136 N135 1.321 . S
C136 H160 0.930 . S
H137 C132 0.931 . S
Co138 N135 2.135 . S
Co138 N141 2.121 . S
Co138 O146 2.055 . S
Co138 O149 2.039 . S
Co138 N152 2.140 . S
C139 O140 1.227 . S
C139 O149 1.265 . S
O140 C139 1.227 . S
N141 Co138 2.121 . S
N141 C143 1.375 . S
N141 C144 1.313 . S
C142 C143 1.338 . S
C142 N145 1.377 . S
C142 H162 0.930 . S
C143 N141 1.375 . S
C143 C142 1.338 . S
C143 H147 0.931 . S
C144 N141 1.313 . S
C144 N145 1.344 . S
C144 H148 0.930 . S
N145 C142 1.377 . S
N145 C144 1.344 . S
O146 Co138 2.055 . S
O146 C150 1.253 . S
H147 C143 0.931 . S
H148 C144 0.930 . S
O149 Co138 2.039 . S
O149 C139 1.265 . S
C150 O146 1.253 . S
C150 O151 1.227 . S
O151 C150 1.227 . S
N152 Co138 2.140 . S
N152 C155 1.346 . S
N152 C156 1.345 . S
C153 C154 1.387 . S
C153 C157 1.391 . S
C154 C153 1.387 . S
C154 C155 1.369 . S
C154 H163 0.929 . S
C155 N152 1.346 . S
C155 C154 1.369 . S
C155 H158 0.928 . S
C156 N152 1.345 . S
C156 C157 1.371 . S
C156 H159 0.931 . S
C157 C153 1.391 . S
C157 C156 1.371 . S
C157 H164 0.930 . S
H158 C155 0.928 . S
H159 C156 0.931 . S
H160 C136 0.930 . S
H161 C133 0.930 . S
H162 C142 0.930 . S
H163 C154 0.929 . S
H164 C157 0.930 . S
C165 C166 1.351 . S
C165 N168 1.368 . S
C165 H170 0.931 . S
C166 C165 1.351 . S
C166 N167 1.373 . S
C166 H194 0.930 . S
N167 C166 1.373 . S
N167 C169 1.340 . S
N168 C165 1.368 . S
N168 C169 1.321 . S
N168 Co171 2.135 . S
C169 N167 1.340 . S
C169 N168 1.321 . S
C169 H193 0.930 . S
H170 C165 0.931 . S
Co171 N168 2.135 . S
Co171 N174 2.121 . S
Co171 O179 2.055 . S
Co171 O182 2.039 . S
Co171 N185 2.140 . S
C172 O173 1.227 . S
C172 O182 1.265 . S
O173 C172 1.227 . S
N174 Co171 2.121 . S
N174 C176 1.375 . S
N174 C177 1.313 . S
C175 C176 1.338 . S
C175 N178 1.377 . S
C175 H195 0.930 . S
C176 N174 1.375 . S
C176 C175 1.338 . S
C176 H180 0.931 . S
C177 N174 1.313 . S
C177 N178 1.344 . S
C177 H181 0.930 . S
N178 C175 1.377 . S
N178 C177 1.344 . S
O179 Co171 2.055 . S
O179 C183 1.253 . S
H180 C176 0.931 . S
H181 C177 0.930 . S
O182 Co171 2.039 . S
O182 C172 1.265 . S
C183 O179 1.253 . S
C183 O184 1.227 . S
O184 C183 1.227 . S
N185 Co171 2.140 . S
N185 C188 1.346 . S
N185 C189 1.345 . S
C186 C187 1.387 . S
C186 C190 1.391 . S
C187 C186 1.387 . S
C187 C188 1.369 . S
C187 H196 0.929 . S
C188 N185 1.346 . S
C188 C187 1.369 . S
C188 H191 0.928 . S
C189 N185 1.345 . S
C189 C190 1.371 . S
C189 H192 0.931 . S
C190 C186 1.391 . S
C190 C189 1.371 . S
C190 H197 0.930 . S
H191 C188 0.928 . S
H192 C189 0.931 . S
H193 C169 0.930 . S
H194 C166 0.930 . S
H195 C175 0.930 . S
H196 C187 0.929 . S
H197 C190 0.930 . S
C198 C199 1.351 . S
C198 N201 1.368 . S
C198 H203 0.931 . S
C199 C198 1.351 . S
C199 N200 1.373 . S
C199 H227 0.930 . S
N200 C199 1.373 . S
N200 C202 1.340 . S
N201 C198 1.368 . S
N201 C202 1.321 . S
N201 Co204 2.135 . S
C202 N200 1.340 . S
C202 N201 1.321 . S
C202 H226 0.930 . S
H203 C198 0.931 . S
Co204 N201 2.135 . S
Co204 N207 2.121 . S
Co204 O212 2.055 . S
Co204 O215 2.039 . S
Co204 N218 2.140 . S
C205 O206 1.227 . S
C205 O215 1.265 . S
O206 C205 1.227 . S
N207 Co204 2.121 . S
N207 C209 1.375 . S
N207 C210 1.313 . S
C208 C209 1.338 . S
C208 N211 1.377 . S
C208 H228 0.930 . S
C209 N207 1.375 . S
C209 C208 1.338 . S
C209 H213 0.931 . S
C210 N207 1.313 . S
C210 N211 1.344 . S
C210 H214 0.930 . S
N211 C208 1.377 . S
N211 C210 1.344 . S
O212 Co204 2.055 . S
O212 C216 1.253 . S
H213 C209 0.931 . S
H214 C210 0.930 . S
O215 Co204 2.039 . S
O215 C205 1.265 . S
C216 O212 1.253 . S
C216 O217 1.227 . S
O217 C216 1.227 . S
N218 Co204 2.140 . S
N218 C221 1.346 . S
N218 C222 1.345 . S
C219 C220 1.387 . S
C219 C223 1.391 . S
C220 C219 1.387 . S
C220 C221 1.369 . S
C220 H229 0.929 . S
C221 N218 1.346 . S
C221 C220 1.369 . S
C221 H224 0.928 . S
C222 N218 1.345 . S
C222 C223 1.371 . S
C222 H225 0.931 . S
C223 C219 1.391 . S
C223 C222 1.371 . S
C223 H230 0.930 . S
H224 C221 0.928 . S
H225 C222 0.931 . S
H226 C202 0.930 . S
H227 C199 0.930 . S
H228 C208 0.930 . S
H229 C220 0.929 . S
H230 C223 0.930 . S
C231 C232 1.351 . S
C231 N234 1.368 . S
C231 H236 0.931 . S
C232 C231 1.351 . S
C232 N233 1.373 . S
C232 H260 0.930 . S
N233 C232 1.373 . S
N233 C235 1.340 . S
N234 C231 1.368 . S
N234 C235 1.321 . S
N234 Co237 2.135 . S
C235 N233 1.340 . S
C235 N234 1.321 . S
C235 H259 0.930 . S
H236 C231 0.931 . S
Co237 N234 2.135 . S
Co237 N240 2.121 . S
Co237 O245 2.055 . S
Co237 O248 2.039 . S
Co237 N251 2.140 . S
C238 O239 1.227 . S
C238 O248 1.265 . S
O239 C238 1.227 . S
N240 Co237 2.121 . S
N240 C242 1.375 . S
N240 C243 1.313 . S
C241 C242 1.338 . S
C241 N244 1.377 . S
C241 H261 0.930 . S
C242 N240 1.375 . S
C242 C241 1.338 . S
C242 H246 0.931 . S
C243 N240 1.313 . S
C243 N244 1.344 . S
C243 H247 0.930 . S
N244 C241 1.377 . S
N244 C243 1.344 . S
O245 Co237 2.055 . S
O245 C249 1.253 . S
H246 C242 0.931 . S
H247 C243 0.930 . S
O248 Co237 2.039 . S
O248 C238 1.265 . S
C249 O245 1.253 . S
C249 O250 1.227 . S
O250 C249 1.227 . S
N251 Co237 2.140 . S
N251 C254 1.346 . S
N251 C255 1.345 . S
C252 C253 1.387 . S
C252 C256 1.391 . S
C253 C252 1.387 . S
C253 C254 1.369 . S
C253 H262 0.929 . S
C254 N251 1.346 . S
C254 C253 1.369 . S
C254 H257 0.928 . S
C255 N251 1.345 . S
C255 C256 1.371 . S
C255 H258 0.931 . S
C256 C252 1.391 . S
C256 C255 1.371 . S
C256 H263 0.930 . S
H257 C254 0.928 . S
H258 C255 0.931 . S
H259 C235 0.930 . S
H260 C232 0.930 . S
H261 C241 0.930 . S
H262 C253 0.929 . S
H263 C256 0.930 . S
C264 C265 1.351 . S
C264 N267 1.368 . S
C264 H269 0.931 . S
C265 C264 1.351 . S
C265 N266 1.373 . S
C265 H293 0.930 . S
N266 C265 1.373 . S
N266 C268 1.340 . S
N267 C264 1.368 . S
N267 C268 1.321 . S
N267 Co270 2.135 . S
C268 N266 1.340 . S
C268 N267 1.321 . S
C268 H292 0.930 . S
H269 C264 0.931 . S
Co270 N267 2.135 . S
Co270 N273 2.121 . S
Co270 O278 2.055 . S
Co270 O281 2.039 . S
Co270 N284 2.140 . S
C271 O272 1.227 . S
C271 O281 1.265 . S
O272 C271 1.227 . S
N273 Co270 2.121 . S
N273 C275 1.375 . S
N273 C276 1.313 . S
C274 C275 1.338 . S
C274 N277 1.377 . S
C274 H294 0.930 . S
C275 N273 1.375 . S
C275 C274 1.338 . S
C275 H279 0.931 . S
C276 N273 1.313 . S
C276 N277 1.344 . S
C276 H280 0.930 . S
N277 C274 1.377 . S
N277 C276 1.344 . S
O278 Co270 2.055 . S
O278 C282 1.253 . S
H279 C275 0.931 . S
H280 C276 0.930 . S
O281 Co270 2.039 . S
O281 C271 1.265 . S
C282 O278 1.253 . S
C282 O283 1.227 . S
O283 C282 1.227 . S
N284 Co270 2.140 . S
N284 C287 1.346 . S
N284 C288 1.345 . S
C285 C286 1.387 . S
C285 C289 1.391 . S
C286 C285 1.387 . S
C286 C287 1.369 . S
C286 H295 0.929 . S
C287 N284 1.346 . S
C287 C286 1.369 . S
C287 H290 0.928 . S
C288 N284 1.345 . S
C288 C289 1.371 . S
C288 H291 0.931 . S
C289 C285 1.391 . S
C289 C288 1.371 . S
C289 H296 0.930 . S
H290 C287 0.928 . S
H291 C288 0.931 . S
H292 C268 0.930 . S
H293 C265 0.930 . S
H294 C274 0.930 . S
H295 C286 0.929 . S
H296 C289 0.930 . S
C297 C298 1.351 . S
C297 N300 1.368 . S
C297 H302 0.931 . S
C298 C297 1.351 . S
C298 N299 1.373 . S
C298 H326 0.930 . S
N299 C298 1.373 . S
N299 C301 1.340 . S
N300 C297 1.368 . S
N300 C301 1.321 . S
N300 Co303 2.135 . S
C301 N299 1.340 . S
C301 N300 1.321 . S
C301 H325 0.930 . S
H302 C297 0.931 . S
Co303 N300 2.135 . S
Co303 N306 2.121 . S
Co303 O311 2.055 . S
Co303 O314 2.039 . S
Co303 N317 2.140 . S
C304 O305 1.227 . S
C304 O314 1.265 . S
O305 C304 1.227 . S
N306 Co303 2.121 . S
N306 C308 1.375 . S
N306 C309 1.313 . S
C307 C308 1.338 . S
C307 N310 1.377 . S
C307 H327 0.930 . S
C308 N306 1.375 . S
C308 C307 1.338 . S
C308 H312 0.931 . S
C309 N306 1.313 . S
C309 N310 1.344 . S
C309 H313 0.930 . S
N310 C307 1.377 . S
N310 C309 1.344 . S
O311 Co303 2.055 . S
O311 C315 1.253 . S
H312 C308 0.931 . S
H313 C309 0.930 . S
O314 Co303 2.039 . S
O314 C304 1.265 . S
C315 O311 1.253 . S
C315 O316 1.227 . S
O316 C315 1.227 . S
N317 Co303 2.140 . S
N317 C320 1.346 . S
N317 C321 1.345 . S
C318 C319 1.387 . S
C318 C322 1.391 . S
C319 C318 1.387 . S
C319 C320 1.369 . S
C319 H328 0.929 . S
C320 N317 1.346 . S
C320 C319 1.369 . S
C320 H323 0.928 . S
C321 N317 1.345 . S
C321 C322 1.371 . S
C321 H324 0.931 . S
C322 C318 1.391 . S
C322 C321 1.371 . S
C322 H329 0.930 . S
H323 C320 0.928 . S
H324 C321 0.931 . S
H325 C301 0.930 . S
H326 C298 0.930 . S
H327 C307 0.930 . S
H328 C319 0.929 . S
H329 C322 0.930 . S
C330 C331 1.351 . S
C330 N333 1.368 . S
C330 H335 0.931 . S
C331 C330 1.351 . S
C331 N332 1.373 . S
C331 H359 0.930 . S
N332 C331 1.373 . S
N332 C334 1.340 . S
N333 C330 1.368 . S
N333 C334 1.321 . S
N333 Co336 2.135 . S
C334 N332 1.340 . S
C334 N333 1.321 . S
C334 H358 0.930 . S
H335 C330 0.931 . S
Co336 N333 2.135 . S
Co336 N339 2.121 . S
Co336 O344 2.055 . S
Co336 O347 2.039 . S
Co336 N350 2.140 . S
C337 O338 1.227 . S
C337 O347 1.265 . S
O338 C337 1.227 . S
N339 Co336 2.121 . S
N339 C341 1.375 . S
N339 C342 1.313 . S
C340 C341 1.338 . S
C340 N343 1.377 . S
C340 H360 0.930 . S
C341 N339 1.375 . S
C341 C340 1.338 . S
C341 H345 0.931 . S
C342 N339 1.313 . S
C342 N343 1.344 . S
C342 H346 0.930 . S
N343 C340 1.377 . S
N343 C342 1.344 . S
O344 Co336 2.055 . S
O344 C348 1.253 . S
H345 C341 0.931 . S
H346 C342 0.930 . S
O347 Co336 2.039 . S
O347 C337 1.265 . S
C348 O344 1.253 . S
C348 O349 1.227 . S
O349 C348 1.227 . S
N350 Co336 2.140 . S
N350 C353 1.346 . S
N350 C354 1.345 . S
C351 C352 1.387 . S
C351 C355 1.391 . S
C352 C351 1.387 . S
C352 C353 1.369 . S
C352 H361 0.929 . S
C353 N350 1.346 . S
C353 C352 1.369 . S
C353 H356 0.928 . S
C354 N350 1.345 . S
C354 C355 1.371 . S
C354 H357 0.931 . S
C355 C351 1.391 . S
C355 C354 1.371 . S
C355 H362 0.930 . S
H356 C353 0.928 . S
H357 C354 0.931 . S
H358 C334 0.930 . S
H359 C331 0.930 . S
H360 C340 0.930 . S
H361 C352 0.929 . S
H362 C355 0.930 . S
C363 C364 1.351 . S
C363 N366 1.368 . S
C363 H368 0.931 . S
C364 C363 1.351 . S
C364 N365 1.373 . S
C364 H392 0.930 . S
N365 C364 1.373 . S
N365 C367 1.340 . S
N366 C363 1.368 . S
N366 C367 1.321 . S
N366 Co369 2.135 . S
C367 N365 1.340 . S
C367 N366 1.321 . S
C367 H391 0.930 . S
H368 C363 0.931 . S
Co369 N366 2.135 . S
Co369 N372 2.121 . S
Co369 O377 2.055 . S
Co369 O380 2.039 . S
Co369 N383 2.140 . S
C370 O371 1.227 . S
C370 O380 1.265 . S
O371 C370 1.227 . S
N372 Co369 2.121 . S
N372 C374 1.375 . S
N372 C375 1.313 . S
C373 C374 1.338 . S
C373 N376 1.377 . S
C373 H393 0.930 . S
C374 N372 1.375 . S
C374 C373 1.338 . S
C374 H378 0.931 . S
C375 N372 1.313 . S
C375 N376 1.344 . S
C375 H379 0.930 . S
N376 C373 1.377 . S
N376 C375 1.344 . S
O377 Co369 2.055 . S
O377 C381 1.253 . S
H378 C374 0.931 . S
H379 C375 0.930 . S
O380 Co369 2.039 . S
O380 C370 1.265 . S
C381 O377 1.253 . S
C381 O382 1.227 . S
O382 C381 1.227 . S
N383 Co369 2.140 . S
N383 C386 1.346 . S
N383 C387 1.345 . S
C384 C385 1.387 . S
C384 C388 1.391 . S
C385 C384 1.387 . S
C385 C386 1.369 . S
C385 H394 0.929 . S
C386 N383 1.346 . S
C386 C385 1.369 . S
C386 H389 0.928 . S
C387 N383 1.345 . S
C387 C388 1.371 . S
C387 H390 0.931 . S
C388 C384 1.391 . S
C388 C387 1.371 . S
C388 H395 0.930 . S
H389 C386 0.928 . S
H390 C387 0.931 . S
H391 C367 0.930 . S
H392 C364 0.930 . S
H393 C373 0.930 . S
H394 C385 0.929 . S
H395 C388 0.930 . S
C396 C397 1.351 . S
C396 N399 1.368 . S
C396 H401 0.931 . S
C397 C396 1.351 . S
C397 N398 1.373 . S
C397 H425 0.930 . S
N398 C397 1.373 . S
N398 C400 1.340 . S
N399 C396 1.368 . S
N399 C400 1.321 . S
N399 Co402 2.135 . S
C400 N398 1.340 . S
C400 N399 1.321 . S
C400 H424 0.930 . S
H401 C396 0.931 . S
Co402 N399 2.135 . S
Co402 N405 2.121 . S
Co402 O410 2.055 . S
Co402 O413 2.039 . S
Co402 N416 2.140 . S
C403 O404 1.227 . S
C403 O413 1.265 . S
O404 C403 1.227 . S
N405 Co402 2.121 . S
N405 C407 1.375 . S
N405 C408 1.313 . S
C406 C407 1.338 . S
C406 N409 1.377 . S
C406 H426 0.930 . S
C407 N405 1.375 . S
C407 C406 1.338 . S
C407 H411 0.931 . S
C408 N405 1.313 . S
C408 N409 1.344 . S
C408 H412 0.930 . S
N409 C406 1.377 . S
N409 C408 1.344 . S
O410 Co402 2.055 . S
O410 C414 1.253 . S
H411 C407 0.931 . S
H412 C408 0.930 . S
O413 Co402 2.039 . S
O413 C403 1.265 . S
C414 O410 1.253 . S
C414 O415 1.227 . S
O415 C414 1.227 . S
N416 Co402 2.140 . S
N416 C419 1.346 . S
N416 C420 1.345 . S
C417 C418 1.387 . S
C417 C421 1.391 . S
C418 C417 1.387 . S
C418 C419 1.369 . S
C418 H427 0.929 . S
C419 N416 1.346 . S
C419 C418 1.369 . S
C419 H422 0.928 . S
C420 N416 1.345 . S
C420 C421 1.371 . S
C420 H423 0.931 . S
C421 C417 1.391 . S
C421 C420 1.371 . S
C421 H428 0.930 . S
H422 C419 0.928 . S
H423 C420 0.931 . S
H424 C400 0.930 . S
H425 C397 0.930 . S
H426 C406 0.930 . S
H427 C418 0.929 . S
H428 C421 0.930 . S
C429 C430 1.351 . S
C429 N432 1.368 . S
C429 H434 0.931 . S
C430 C429 1.351 . S
C430 N431 1.373 . S
C430 H458 0.930 . S
N431 C430 1.373 . S
N431 C433 1.340 . S
N432 C429 1.368 . S
N432 C433 1.321 . S
N432 Co435 2.135 . S
C433 N431 1.340 . S
C433 N432 1.321 . S
C433 H457 0.930 . S
H434 C429 0.931 . S
Co435 N432 2.135 . S
Co435 N438 2.121 . S
Co435 O443 2.055 . S
Co435 O446 2.039 . S
Co435 N449 2.140 . S
C436 O437 1.227 . S
C436 O446 1.265 . S
O437 C436 1.227 . S
N438 Co435 2.121 . S
N438 C440 1.375 . S
N438 C441 1.313 . S
C439 C440 1.338 . S
C439 N442 1.377 . S
C439 H459 0.930 . S
C440 N438 1.375 . S
C440 C439 1.338 . S
C440 H444 0.931 . S
C441 N438 1.313 . S
C441 N442 1.344 . S
C441 H445 0.930 . S
N442 C439 1.377 . S
N442 C441 1.344 . S
O443 Co435 2.055 . S
O443 C447 1.253 . S
H444 C440 0.931 . S
H445 C441 0.930 . S
O446 Co435 2.039 . S
O446 C436 1.265 . S
C447 O443 1.253 . S
C447 O448 1.227 . S
O448 C447 1.227 . S
N449 Co435 2.140 . S
N449 C452 1.346 . S
N449 C453 1.345 . S
C450 C451 1.387 . S
C450 C454 1.391 . S
C451 C450 1.387 . S
C451 C452 1.369 . S
C451 H460 0.929 . S
C452 N449 1.346 . S
C452 C451 1.369 . S
C452 H455 0.928 . S
C453 N449 1.345 . S
C453 C454 1.371 . S
C453 H456 0.931 . S
C454 C450 1.391 . S
C454 C453 1.371 . S
C454 H461 0.930 . S
H455 C452 0.928 . S
H456 C453 0.931 . S
H457 C433 0.930 . S
H458 C430 0.930 . S
H459 C439 0.930 . S
H460 C451 0.929 . S
H461 C454 0.930 . S
C462 C463 1.351 . S
C462 N465 1.368 . S
C462 H467 0.931 . S
C463 C462 1.351 . S
C463 N464 1.373 . S
C463 H491 0.930 . S
N464 C463 1.373 . S
N464 C466 1.340 . S
N465 C462 1.368 . S
N465 C466 1.321 . S
N465 Co468 2.135 . S
C466 N464 1.340 . S
C466 N465 1.321 . S
C466 H490 0.930 . S
H467 C462 0.931 . S
Co468 N465 2.135 . S
Co468 N471 2.121 . S
Co468 O476 2.055 . S
Co468 O479 2.039 . S
Co468 N482 2.140 . S
C469 O470 1.227 . S
C469 O479 1.265 . S
O470 C469 1.227 . S
N471 Co468 2.121 . S
N471 C473 1.375 . S
N471 C474 1.313 . S
C472 C473 1.338 . S
C472 N475 1.377 . S
C472 H492 0.930 . S
C473 N471 1.375 . S
C473 C472 1.338 . S
C473 H477 0.931 . S
C474 N471 1.313 . S
C474 N475 1.344 . S
C474 H478 0.930 . S
N475 C472 1.377 . S
N475 C474 1.344 . S
O476 Co468 2.055 . S
O476 C480 1.253 . S
H477 C473 0.931 . S
H478 C474 0.930 . S
O479 Co468 2.039 . S
O479 C469 1.265 . S
C480 O476 1.253 . S
C480 O481 1.227 . S
O481 C480 1.227 . S
N482 Co468 2.140 . S
N482 C485 1.346 . S
N482 C486 1.345 . S
C483 C484 1.387 . S
C483 C487 1.391 . S
C484 C483 1.387 . S
C484 C485 1.369 . S
C484 H493 0.929 . S
C485 N482 1.346 . S
C485 C484 1.369 . S
C485 H488 0.928 . S
C486 N482 1.345 . S
C486 C487 1.371 . S
C486 H489 0.931 . S
C487 C483 1.391 . S
C487 C486 1.371 . S
C487 H494 0.930 . S
H488 C485 0.928 . S
H489 C486 0.931 . S
H490 C466 0.930 . S
H491 C463 0.930 . S
H492 C472 0.930 . S
H493 C484 0.929 . S
H494 C487 0.930 . S
C495 C496 1.351 . S
C495 N498 1.368 . S
C495 H500 0.931 . S
C496 C495 1.351 . S
C496 N497 1.373 . S
C496 H524 0.930 . S
N497 C496 1.373 . S
N497 C499 1.340 . S
N498 C495 1.368 . S
N498 C499 1.321 . S
N498 Co501 2.135 . S
C499 N497 1.340 . S
C499 N498 1.321 . S
C499 H523 0.930 . S
H500 C495 0.931 . S
Co501 N498 2.135 . S
Co501 N504 2.121 . S
Co501 O509 2.055 . S
Co501 O512 2.039 . S
Co501 N515 2.140 . S
C502 O503 1.227 . S
C502 O512 1.265 . S
O503 C502 1.227 . S
N504 Co501 2.121 . S
N504 C506 1.375 . S
N504 C507 1.313 . S
C505 C506 1.338 . S
C505 N508 1.377 . S
C505 H525 0.930 . S
C506 N504 1.375 . S
C506 C505 1.338 . S
C506 H510 0.931 . S
C507 N504 1.313 . S
C507 N508 1.344 . S
C507 H511 0.930 . S
N508 C505 1.377 . S
N508 C507 1.344 . S
O509 Co501 2.055 . S
O509 C513 1.253 . S
H510 C506 0.931 . S
H511 C507 0.930 . S
O512 Co501 2.039 . S
O512 C502 1.265 . S
C513 O509 1.253 . S
C513 O514 1.227 . S
O514 C513 1.227 . S
N515 Co501 2.140 . S
N515 C518 1.346 . S
N515 C519 1.345 . S
C516 C517 1.387 . S
C516 C520 1.391 . S
C517 C516 1.387 . S
C517 C518 1.369 . S
C517 H526 0.929 . S
C518 N515 1.346 . S
C518 C517 1.369 . S
C518 H521 0.928 . S
C519 N515 1.345 . S
C519 C520 1.371 . S
C519 H522 0.931 . S
C520 C516 1.391 . S
C520 C519 1.371 . S
C520 H527 0.930 . S
H521 C518 0.928 . S
H522 C519 0.931 . S
H523 C499 0.930 . S
H524 C496 0.930 . S
H525 C505 0.930 . S
H526 C517 0.929 . S
H527 C520 0.930 . S
C528 C529 1.351 . S
C528 N531 1.368 . S
C528 H533 0.931 . S
C529 C528 1.351 . S
C529 N530 1.373 . S
C529 H557 0.930 . S
N530 C529 1.373 . S
N530 C532 1.340 . S
N531 C528 1.368 . S
N531 C532 1.321 . S
N531 Co534 2.135 . S
C532 N530 1.340 . S
C532 N531 1.321 . S
C532 H556 0.930 . S
H533 C528 0.931 . S
Co534 N531 2.135 . S
Co534 N537 2.121 . S
Co534 O542 2.055 . S
Co534 O545 2.039 . S
Co534 N548 2.140 . S
C535 O536 1.227 . S
C535 O545 1.265 . S
O536 C535 1.227 . S
N537 Co534 2.121 . S
N537 C539 1.375 . S
N537 C540 1.313 . S
C538 C539 1.338 . S
C538 N541 1.377 . S
C538 H558 0.930 . S
C539 N537 1.375 . S
C539 C538 1.338 . S
C539 H543 0.931 . S
C540 N537 1.313 . S
C540 N541 1.344 . S
C540 H544 0.930 . S
N541 C538 1.377 . S
N541 C540 1.344 . S
O542 Co534 2.055 . S
O542 C546 1.253 . S
H543 C539 0.931 . S
H544 C540 0.930 . S
O545 Co534 2.039 . S
O545 C535 1.265 . S
C546 O542 1.253 . S
C546 O547 1.227 . S
O547 C546 1.227 . S
N548 Co534 2.140 . S
N548 C551 1.346 . S
N548 C552 1.345 . S
C549 C550 1.387 . S
C549 C553 1.391 . S
C550 C549 1.387 . S
C550 C551 1.369 . S
C550 H559 0.929 . S
C551 N548 1.346 . S
C551 C550 1.369 . S
C551 H554 0.928 . S
C552 N548 1.345 . S
C552 C553 1.371 . S
C552 H555 0.931 . S
C553 C549 1.391 . S
C553 C552 1.371 . S
C553 H560 0.930 . S
H554 C551 0.928 . S
H555 C552 0.931 . S
H556 C532 0.930 . S
H557 C529 0.930 . S
H558 C538 0.930 . S
H559 C550 0.929 . S
H560 C553 0.930 . S
C561 C562 1.351 . S
C561 N564 1.368 . S
C561 H566 0.931 . S
C562 C561 1.351 . S
C562 N563 1.373 . S
C562 H590 0.930 . S
N563 C562 1.373 . S
N563 C565 1.340 . S
N564 C561 1.368 . S
N564 C565 1.321 . S
N564 Co567 2.135 . S
C565 N563 1.340 . S
C565 N564 1.321 . S
C565 H589 0.930 . S
H566 C561 0.931 . S
Co567 N564 2.135 . S
Co567 N570 2.121 . S
Co567 O575 2.055 . S
Co567 O578 2.039 . S
Co567 N581 2.140 . S
C568 O569 1.227 . S
C568 O578 1.265 . S
O569 C568 1.227 . S
N570 Co567 2.121 . S
N570 C572 1.375 . S
N570 C573 1.313 . S
C571 C572 1.338 . S
C571 N574 1.377 . S
C571 H591 0.930 . S
C572 N570 1.375 . S
C572 C571 1.338 . S
C572 H576 0.931 . S
C573 N570 1.313 . S
C573 N574 1.344 . S
C573 H577 0.930 . S
N574 C571 1.377 . S
N574 C573 1.344 . S
O575 Co567 2.055 . S
O575 C579 1.253 . S
H576 C572 0.931 . S
H577 C573 0.930 . S
O578 Co567 2.039 . S
O578 C568 1.265 . S
C579 O575 1.253 . S
C579 O580 1.227 . S
O580 C579 1.227 . S
N581 Co567 2.140 . S
N581 C584 1.346 . S
N581 C585 1.345 . S
C582 C583 1.387 . S
C582 C586 1.391 . S
C583 C582 1.387 . S
C583 C584 1.369 . S
C583 H592 0.929 . S
C584 N581 1.346 . S
C584 C583 1.369 . S
C584 H587 0.928 . S
C585 N581 1.345 . S
C585 C586 1.371 . S
C585 H588 0.931 . S
C586 C582 1.391 . S
C586 C585 1.371 . S
C586 H593 0.930 . S
H587 C584 0.928 . S
H588 C585 0.931 . S
H589 C565 0.930 . S
H590 C562 0.930 . S
H591 C571 0.930 . S
H592 C583 0.929 . S
H593 C586 0.930 . S
C594 C595 1.351 . S
C594 N597 1.368 . S
C594 H599 0.931 . S
C595 C594 1.351 . S
C595 N596 1.373 . S
C595 H623 0.930 . S
N596 C595 1.373 . S
N596 C598 1.340 . S
N597 C594 1.368 . S
N597 C598 1.321 . S
N597 Co600 2.135 . S
C598 N596 1.340 . S
C598 N597 1.321 . S
C598 H622 0.930 . S
H599 C594 0.931 . S
Co600 N597 2.135 . S
Co600 N603 2.121 . S
Co600 O608 2.055 . S
Co600 O611 2.039 . S
Co600 N614 2.140 . S
C601 O602 1.227 . S
C601 O611 1.265 . S
O602 C601 1.227 . S
N603 Co600 2.121 . S
N603 C605 1.375 . S
N603 C606 1.313 . S
C604 C605 1.338 . S
C604 N607 1.377 . S
C604 H624 0.930 . S
C605 N603 1.375 . S
C605 C604 1.338 . S
C605 H609 0.931 . S
C606 N603 1.313 . S
C606 N607 1.344 . S
C606 H610 0.930 . S
N607 C604 1.377 . S
N607 C606 1.344 . S
O608 Co600 2.055 . S
O608 C612 1.253 . S
H609 C605 0.931 . S
H610 C606 0.930 . S
O611 Co600 2.039 . S
O611 C601 1.265 . S
C612 O608 1.253 . S
C612 O613 1.227 . S
O613 C612 1.227 . S
N614 Co600 2.140 . S
N614 C617 1.346 . S
N614 C618 1.345 . S
C615 C616 1.387 . S
C615 C619 1.391 . S
C616 C615 1.387 . S
C616 C617 1.369 . S
C616 H625 0.929 . S
C617 N614 1.346 . S
C617 C616 1.369 . S
C617 H620 0.928 . S
C618 N614 1.345 . S
C618 C619 1.371 . S
C618 H621 0.931 . S
C619 C615 1.391 . S
C619 C618 1.371 . S
C619 H626 0.930 . S
H620 C617 0.928 . S
H621 C618 0.931 . S
H622 C598 0.930 . S
H623 C595 0.930 . S
H624 C604 0.930 . S
H625 C616 0.929 . S
H626 C619 0.930 . S
C627 C628 1.351 . S
C627 N630 1.368 . S
C627 H632 0.931 . S
C628 C627 1.351 . S
C628 N629 1.373 . S
C628 H656 0.930 . S
N629 C628 1.373 . S
N629 C631 1.340 . S
N630 C627 1.368 . S
N630 C631 1.321 . S
N630 Co633 2.135 . S
C631 N629 1.340 . S
C631 N630 1.321 . S
C631 H655 0.930 . S
H632 C627 0.931 . S
Co633 N630 2.135 . S
Co633 N636 2.121 . S
Co633 O641 2.055 . S
Co633 O644 2.039 . S
Co633 N647 2.140 . S
C634 O635 1.227 . S
C634 O644 1.265 . S
O635 C634 1.227 . S
N636 Co633 2.121 . S
N636 C638 1.375 . S
N636 C639 1.313 . S
C637 C638 1.338 . S
C637 N640 1.377 . S
C637 H657 0.930 . S
C638 N636 1.375 . S
C638 C637 1.338 . S
C638 H642 0.931 . S
C639 N636 1.313 . S
C639 N640 1.344 . S
C639 H643 0.930 . S
N640 C637 1.377 . S
N640 C639 1.344 . S
O641 Co633 2.055 . S
O641 C645 1.253 . S
H642 C638 0.931 . S
H643 C639 0.930 . S
O644 Co633 2.039 . S
O644 C634 1.265 . S
C645 O641 1.253 . S
C645 O646 1.227 . S
O646 C645 1.227 . S
N647 Co633 2.140 . S
N647 C650 1.346 . S
N647 C651 1.345 . S
C648 C649 1.387 . S
C648 C652 1.391 . S
C649 C648 1.387 . S
C649 C650 1.369 . S
C649 H658 0.929 . S
C650 N647 1.346 . S
C650 C649 1.369 . S
C650 H653 0.928 . S
C651 N647 1.345 . S
C651 C652 1.371 . S
C651 H654 0.931 . S
C652 C648 1.391 . S
C652 C651 1.371 . S
C652 H659 0.930 . S
H653 C650 0.928 . S
H654 C651 0.931 . S
H655 C631 0.930 . S
H656 C628 0.930 . S
H657 C637 0.930 . S
H658 C649 0.929 . S
H659 C652 0.930 . S
C660 C661 1.351 . S
C660 N663 1.368 . S
C660 H665 0.931 . S
C661 C660 1.351 . S
C661 N662 1.373 . S
C661 H689 0.930 . S
N662 C661 1.373 . S
N662 C664 1.340 . S
N663 C660 1.368 . S
N663 C664 1.321 . S
N663 Co666 2.135 . S
C664 N662 1.340 . S
C664 N663 1.321 . S
C664 H688 0.930 . S
H665 C660 0.931 . S
Co666 N663 2.135 . S
Co666 N669 2.121 . S
Co666 O674 2.055 . S
Co666 O677 2.039 . S
Co666 N680 2.140 . S
C667 O668 1.227 . S
C667 O677 1.265 . S
O668 C667 1.227 . S
N669 Co666 2.121 . S
N669 C671 1.375 . S
N669 C672 1.313 . S
C670 C671 1.338 . S
C670 N673 1.377 . S
C670 H690 0.930 . S
C671 N669 1.375 . S
C671 C670 1.338 . S
C671 H675 0.931 . S
C672 N669 1.313 . S
C672 N673 1.344 . S
C672 H676 0.930 . S
N673 C670 1.377 . S
N673 C672 1.344 . S
O674 Co666 2.055 . S
O674 C678 1.253 . S
H675 C671 0.931 . S
H676 C672 0.930 . S
O677 Co666 2.039 . S
O677 C667 1.265 . S
C678 O674 1.253 . S
C678 O679 1.227 . S
O679 C678 1.227 . S
N680 Co666 2.140 . S
N680 C683 1.346 . S
N680 C684 1.345 . S
C681 C682 1.387 . S
C681 C685 1.391 . S
C682 C681 1.387 . S
C682 C683 1.369 . S
C682 H691 0.929 . S
C683 N680 1.346 . S
C683 C682 1.369 . S
C683 H686 0.928 . S
C684 N680 1.345 . S
C684 C685 1.371 . S
C684 H687 0.931 . S
C685 C681 1.391 . S
C685 C684 1.371 . S
C685 H692 0.930 . S
H686 C683 0.928 . S
H687 C684 0.931 . S
H688 C664 0.930 . S
H689 C661 0.930 . S
H690 C670 0.930 . S
H691 C682 0.929 . S
H692 C685 0.930 . S
C693 C694 1.351 . S
C693 N696 1.368 . S
C693 H698 0.931 . S
C694 C693 1.351 . S
C694 N695 1.373 . S
C694 H722 0.930 . S
N695 C694 1.373 . S
N695 C697 1.340 . S
N696 C693 1.368 . S
N696 C697 1.321 . S
N696 Co699 2.135 . S
C697 N695 1.340 . S
C697 N696 1.321 . S
C697 H721 0.930 . S
H698 C693 0.931 . S
Co699 N696 2.135 . S
Co699 N702 2.121 . S
Co699 O707 2.055 . S
Co699 O710 2.039 . S
Co699 N713 2.140 . S
C700 O701 1.227 . S
C700 O710 1.265 . S
O701 C700 1.227 . S
N702 Co699 2.121 . S
N702 C704 1.375 . S
N702 C705 1.313 . S
C703 C704 1.338 . S
C703 N706 1.377 . S
C703 H723 0.930 . S
C704 N702 1.375 . S
C704 C703 1.338 . S
C704 H708 0.931 . S
C705 N702 1.313 . S
C705 N706 1.344 . S
C705 H709 0.930 . S
N706 C703 1.377 . S
N706 C705 1.344 . S
O707 Co699 2.055 . S
O707 C711 1.253 . S
H708 C704 0.931 . S
H709 C705 0.930 . S
O710 Co699 2.039 . S
O710 C700 1.265 . S
C711 O707 1.253 . S
C711 O712 1.227 . S
O712 C711 1.227 . S
N713 Co699 2.140 . S
N713 C716 1.346 . S
N713 C717 1.345 . S
C714 C715 1.387 . S
C714 C718 1.391 . S
C715 C714 1.387 . S
C715 C716 1.369 . S
C715 H724 0.929 . S
C716 N713 1.346 . S
C716 C715 1.369 . S
C716 H719 0.928 . S
C717 N713 1.345 . S
C717 C718 1.371 . S
C717 H720 0.931 . S
C718 C714 1.391 . S
C718 C717 1.371 . S
C718 H725 0.930 . S
H719 C716 0.928 . S
H720 C717 0.931 . S
H721 C697 0.930 . S
H722 C694 0.930 . S
H723 C703 0.930 . S
H724 C715 0.929 . S
H725 C718 0.930 . S
C726 C727 1.351 . S
C726 N729 1.368 . S
C726 H731 0.931 . S
C727 C726 1.351 . S
C727 N728 1.373 . S
C727 H755 0.930 . S
N728 C727 1.373 . S
N728 C730 1.340 . S
N729 C726 1.368 . S
N729 C730 1.321 . S
N729 Co732 2.135 . S
C730 N728 1.340 . S
C730 N729 1.321 . S
C730 H754 0.930 . S
H731 C726 0.931 . S
Co732 N729 2.135 . S
Co732 N735 2.121 . S
Co732 O740 2.055 . S
Co732 O743 2.039 . S
Co732 N746 2.140 . S
C733 O734 1.227 . S
C733 O743 1.265 . S
O734 C733 1.227 . S
N735 Co732 2.121 . S
N735 C737 1.375 . S
N735 C738 1.313 . S
C736 C737 1.338 . S
C736 N739 1.377 . S
C736 H756 0.930 . S
C737 N735 1.375 . S
C737 C736 1.338 . S
C737 H741 0.931 . S
C738 N735 1.313 . S
C738 N739 1.344 . S
C738 H742 0.930 . S
N739 C736 1.377 . S
N739 C738 1.344 . S
O740 Co732 2.055 . S
O740 C744 1.253 . S
H741 C737 0.931 . S
H742 C738 0.930 . S
O743 Co732 2.039 . S
O743 C733 1.265 . S
C744 O740 1.253 . S
C744 O745 1.227 . S
O745 C744 1.227 . S
N746 Co732 2.140 . S
N746 C749 1.346 . S
N746 C750 1.345 . S
C747 C748 1.387 . S
C747 C751 1.391 . S
C748 C747 1.387 . S
C748 C749 1.369 . S
C748 H757 0.929 . S
C749 N746 1.346 . S
C749 C748 1.369 . S
C749 H752 0.928 . S
C750 N746 1.345 . S
C750 C751 1.371 . S
C750 H753 0.931 . S
C751 C747 1.391 . S
C751 C750 1.371 . S
C751 H758 0.930 . S
H752 C749 0.928 . S
H753 C750 0.931 . S
H754 C730 0.930 . S
H755 C727 0.930 . S
H756 C736 0.930 . S
H757 C748 0.929 . S
H758 C751 0.930 . S
C759 C760 1.351 . S
C759 N762 1.368 . S
C759 H764 0.931 . S
C760 C759 1.351 . S
C760 N761 1.373 . S
C760 H788 0.930 . S
N761 C760 1.373 . S
N761 C763 1.340 . S
N762 C759 1.368 . S
N762 C763 1.321 . S
N762 Co765 2.135 . S
C763 N761 1.340 . S
C763 N762 1.321 . S
C763 H787 0.930 . S
H764 C759 0.931 . S
Co765 N762 2.135 . S
Co765 N768 2.121 . S
Co765 O773 2.055 . S
Co765 O776 2.039 . S
Co765 N779 2.140 . S
C766 O767 1.227 . S
C766 O776 1.265 . S
O767 C766 1.227 . S
N768 Co765 2.121 . S
N768 C770 1.375 . S
N768 C771 1.313 . S
C769 C770 1.338 . S
C769 N772 1.377 . S
C769 H789 0.930 . S
C770 N768 1.375 . S
C770 C769 1.338 . S
C770 H774 0.931 . S
C771 N768 1.313 . S
C771 N772 1.344 . S
C771 H775 0.930 . S
N772 C769 1.377 . S
N772 C771 1.344 . S
O773 Co765 2.055 . S
O773 C777 1.253 . S
H774 C770 0.931 . S
H775 C771 0.930 . S
O776 Co765 2.039 . S
O776 C766 1.265 . S
C777 O773 1.253 . S
C777 O778 1.227 . S
O778 C777 1.227 . S
N779 Co765 2.140 . S
N779 C782 1.346 . S
N779 C783 1.345 . S
C780 C781 1.387 . S
C780 C784 1.391 . S
C781 C780 1.387 . S
C781 C782 1.369 . S
C781 H790 0.929 . S
C782 N779 1.346 . S
C782 C781 1.369 . S
C782 H785 0.928 . S
C783 N779 1.345 . S
C783 C784 1.371 . S
C783 H786 0.931 . S
C784 C780 1.391 . S
C784 C783 1.371 . S
C784 H791 0.930 . S
H785 C782 0.928 . S
H786 C783 0.931 . S
H787 C763 0.930 . S
H788 C760 0.930 . S
H789 C769 0.930 . S
H790 C781 0.929 . S
H791 C784 0.930 . S
C792 C793 1.351 . S
C792 N795 1.368 . S
C792 H797 0.931 . S
C793 C792 1.351 . S
C793 N794 1.373 . S
C793 H821 0.930 . S
N794 C793 1.373 . S
N794 C796 1.340 . S
N795 C792 1.368 . S
N795 C796 1.321 . S
N795 Co798 2.135 . S
C796 N794 1.340 . S
C796 N795 1.321 . S
C796 H820 0.930 . S
H797 C792 0.931 . S
Co798 N795 2.135 . S
Co798 N801 2.121 . S
Co798 O806 2.055 . S
Co798 O809 2.039 . S
Co798 N812 2.140 . S
C799 O800 1.227 . S
C799 O809 1.265 . S
O800 C799 1.227 . S
N801 Co798 2.121 . S
N801 C803 1.375 . S
N801 C804 1.313 . S
C802 C803 1.338 . S
C802 N805 1.377 . S
C802 H822 0.930 . S
C803 N801 1.375 . S
C803 C802 1.338 . S
C803 H807 0.931 . S
C804 N801 1.313 . S
C804 N805 1.344 . S
C804 H808 0.930 . S
N805 C802 1.377 . S
N805 C804 1.344 . S
O806 Co798 2.055 . S
O806 C810 1.253 . S
H807 C803 0.931 . S
H808 C804 0.930 . S
O809 Co798 2.039 . S
O809 C799 1.265 . S
C810 O806 1.253 . S
C810 O811 1.227 . S
O811 C810 1.227 . S
N812 Co798 2.140 . S
N812 C815 1.346 . S
N812 C816 1.345 . S
C813 C814 1.387 . S
C813 C817 1.391 . S
C814 C813 1.387 . S
C814 C815 1.369 . S
C814 H823 0.929 . S
C815 N812 1.346 . S
C815 C814 1.369 . S
C815 H818 0.928 . S
C816 N812 1.345 . S
C816 C817 1.371 . S
C816 H819 0.931 . S
C817 C813 1.391 . S
C817 C816 1.371 . S
C817 H824 0.930 . S
H818 C815 0.928 . S
H819 C816 0.931 . S
H820 C796 0.930 . S
H821 C793 0.930 . S
H822 C802 0.930 . S
H823 C814 0.929 . S
H824 C817 0.930 . S
C825 C826 1.351 . S
C825 N828 1.368 . S
C825 H830 0.931 . S
C826 C825 1.351 . S
C826 N827 1.373 . S
C826 H854 0.930 . S
N827 C826 1.373 . S
N827 C829 1.340 . S
N828 C825 1.368 . S
N828 C829 1.321 . S
N828 Co831 2.135 . S
C829 N827 1.340 . S
C829 N828 1.321 . S
C829 H853 0.930 . S
H830 C825 0.931 . S
Co831 N828 2.135 . S
Co831 N834 2.121 . S
Co831 O839 2.055 . S
Co831 O842 2.039 . S
Co831 N845 2.140 . S
C832 O833 1.227 . S
C832 O842 1.265 . S
O833 C832 1.227 . S
N834 Co831 2.121 . S
N834 C836 1.375 . S
N834 C837 1.313 . S
C835 C836 1.338 . S
C835 N838 1.377 . S
C835 H855 0.930 . S
C836 N834 1.375 . S
C836 C835 1.338 . S
C836 H840 0.931 . S
C837 N834 1.313 . S
C837 N838 1.344 . S
C837 H841 0.930 . S
N838 C835 1.377 . S
N838 C837 1.344 . S
O839 Co831 2.055 . S
O839 C843 1.253 . S
H840 C836 0.931 . S
H841 C837 0.930 . S
O842 Co831 2.039 . S
O842 C832 1.265 . S
C843 O839 1.253 . S
C843 O844 1.227 . S
O844 C843 1.227 . S
N845 Co831 2.140 . S
N845 C848 1.346 . S
N845 C849 1.345 . S
C846 C847 1.387 . S
C846 C850 1.391 . S
C847 C846 1.387 . S
C847 C848 1.369 . S
C847 H856 0.929 . S
C848 N845 1.346 . S
C848 C847 1.369 . S
C848 H851 0.928 . S
C849 N845 1.345 . S
C849 C850 1.371 . S
C849 H852 0.931 . S
C850 C846 1.391 . S
C850 C849 1.371 . S
C850 H857 0.930 . S
H851 C848 0.928 . S
H852 C849 0.931 . S
H853 C829 0.930 . S
H854 C826 0.930 . S
H855 C835 0.930 . S
H856 C847 0.929 . S
H857 C850 0.930 . S
C858 C859 1.351 . S
C858 N861 1.368 . S
C858 H863 0.931 . S
C859 C858 1.351 . S
C859 N860 1.373 . S
C859 H887 0.930 . S
N860 C859 1.373 . S
N860 C862 1.340 . S
N861 C858 1.368 . S
N861 C862 1.321 . S
N861 Co864 2.135 . S
C862 N860 1.340 . S
C862 N861 1.321 . S
C862 H886 0.930 . S
H863 C858 0.931 . S
Co864 N861 2.135 . S
Co864 N867 2.121 . S
Co864 O872 2.055 . S
Co864 O875 2.039 . S
Co864 N878 2.140 . S
C865 O866 1.227 . S
C865 O875 1.265 . S
O866 C865 1.227 . S
N867 Co864 2.121 . S
N867 C869 1.375 . S
N867 C870 1.313 . S
C868 C869 1.338 . S
C868 N871 1.377 . S
C868 H888 0.930 . S
C869 N867 1.375 . S
C869 C868 1.338 . S
C869 H873 0.931 . S
C870 N867 1.313 . S
C870 N871 1.344 . S
C870 H874 0.930 . S
N871 C868 1.377 . S
N871 C870 1.344 . S
O872 Co864 2.055 . S
O872 C876 1.253 . S
H873 C869 0.931 . S
H874 C870 0.930 . S
O875 Co864 2.039 . S
O875 C865 1.265 . S
C876 O872 1.253 . S
C876 O877 1.227 . S
O877 C876 1.227 . S
N878 Co864 2.140 . S
N878 C881 1.346 . S
N878 C882 1.345 . S
C879 C880 1.387 . S
C879 C883 1.391 . S
C880 C879 1.387 . S
C880 C881 1.369 . S
C880 H889 0.929 . S
C881 N878 1.346 . S
C881 C880 1.369 . S
C881 H884 0.928 . S
C882 N878 1.345 . S
C882 C883 1.371 . S
C882 H885 0.931 . S
C883 C879 1.391 . S
C883 C882 1.371 . S
C883 H890 0.930 . S
H884 C881 0.928 . S
H885 C882 0.931 . S
H886 C862 0.930 . S
H887 C859 0.930 . S
H888 C868 0.930 . S
H889 C880 0.929 . S
H890 C883 0.930 . S
C891 C892 1.351 . S
C891 N894 1.368 . S
C891 H896 0.931 . S
C892 C891 1.351 . S
C892 N893 1.373 . S
C892 H920 0.930 . S
N893 C892 1.373 . S
N893 C895 1.340 . S
N894 C891 1.368 . S
N894 C895 1.321 . S
N894 Co897 2.135 . S
C895 N893 1.340 . S
C895 N894 1.321 . S
C895 H919 0.930 . S
H896 C891 0.931 . S
Co897 N894 2.135 . S
Co897 N900 2.121 . S
Co897 O905 2.055 . S
Co897 O908 2.039 . S
Co897 N911 2.140 . S
C898 O899 1.227 . S
C898 O908 1.265 . S
O899 C898 1.227 . S
N900 Co897 2.121 . S
N900 C902 1.375 . S
N900 C903 1.313 . S
C901 C902 1.338 . S
C901 N904 1.377 . S
C901 H921 0.930 . S
C902 N900 1.375 . S
C902 C901 1.338 . S
C902 H906 0.931 . S
C903 N900 1.313 . S
C903 N904 1.344 . S
C903 H907 0.930 . S
N904 C901 1.377 . S
N904 C903 1.344 . S
O905 Co897 2.055 . S
O905 C909 1.253 . S
H906 C902 0.931 . S
H907 C903 0.930 . S
O908 Co897 2.039 . S
O908 C898 1.265 . S
C909 O905 1.253 . S
C909 O910 1.227 . S
O910 C909 1.227 . S
N911 Co897 2.140 . S
N911 C914 1.346 . S
N911 C915 1.345 . S
C912 C913 1.387 . S
C912 C916 1.391 . S
C913 C912 1.387 . S
C913 C914 1.369 . S
C913 H922 0.929 . S
C914 N911 1.346 . S
C914 C913 1.369 . S
C914 H917 0.928 . S
C915 N911 1.345 . S
C915 C916 1.371 . S
C915 H918 0.931 . S
C916 C912 1.391 . S
C916 C915 1.371 . S
C916 H923 0.930 . S
H917 C914 0.928 . S
H918 C915 0.931 . S
H919 C895 0.930 . S
H920 C892 0.930 . S
H921 C901 0.930 . S
H922 C913 0.929 . S
H923 C916 0.930 . S
C924 C925 1.351 . S
C924 N927 1.368 . S
C924 H929 0.931 . S
C925 C924 1.351 . S
C925 N926 1.373 . S
C925 H953 0.930 . S
N926 C925 1.373 . S
N926 C928 1.340 . S
N927 C924 1.368 . S
N927 C928 1.321 . S
N927 Co930 2.135 . S
C928 N926 1.340 . S
C928 N927 1.321 . S
C928 H952 0.930 . S
H929 C924 0.931 . S
Co930 N927 2.135 . S
Co930 N933 2.121 . S
Co930 O938 2.055 . S
Co930 O941 2.039 . S
Co930 N944 2.140 . S
C931 O932 1.227 . S
C931 O941 1.265 . S
O932 C931 1.227 . S
N933 Co930 2.121 . S
N933 C935 1.375 . S
N933 C936 1.313 . S
C934 C935 1.338 . S
C934 N937 1.377 . S
C934 H954 0.930 . S
C935 N933 1.375 . S
C935 C934 1.338 . S
C935 H939 0.931 . S
C936 N933 1.313 . S
C936 N937 1.344 . S
C936 H940 0.930 . S
N937 C934 1.377 . S
N937 C936 1.344 . S
O938 Co930 2.055 . S
O938 C942 1.253 . S
H939 C935 0.931 . S
H940 C936 0.930 . S
O941 Co930 2.039 . S
O941 C931 1.265 . S
C942 O938 1.253 . S
C942 O943 1.227 . S
O943 C942 1.227 . S
N944 Co930 2.140 . S
N944 C947 1.346 . S
N944 C948 1.345 . S
C945 C946 1.387 . S
C945 C949 1.391 . S
C946 C945 1.387 . S
C946 C947 1.369 . S
C946 H955 0.929 . S
C947 N944 1.346 . S
C947 C946 1.369 . S
C947 H950 0.928 . S
C948 N944 1.345 . S
C948 C949 1.371 . S
C948 H951 0.931 . S
C949 C945 1.391 . S
C949 C948 1.371 . S
C949 H956 0.930 . S
H950 C947 0.928 . S
H951 C948 0.931 . S
H952 C928 0.930 . S
H953 C925 0.930 . S
H954 C934 0.930 . S
H955 C946 0.929 . S
H956 C949 0.930 . S
C957 C958 1.351 . S
C957 N960 1.368 . S
C957 H962 0.931 . S
C958 C957 1.351 . S
C958 N959 1.373 . S
C958 H986 0.930 . S
N959 C958 1.373 . S
N959 C961 1.340 . S
N960 C957 1.368 . S
N960 C961 1.321 . S
N960 Co963 2.135 . S
C961 N959 1.340 . S
C961 N960 1.321 . S
C961 H985 0.930 . S
H962 C957 0.931 . S
Co963 N960 2.135 . S
Co963 N966 2.121 . S
Co963 O971 2.055 . S
Co963 O974 2.039 . S
Co963 N977 2.140 . S
C964 O965 1.227 . S
C964 O974 1.265 . S
O965 C964 1.227 . S
N966 Co963 2.121 . S
N966 C968 1.375 . S
N966 C969 1.313 . S
C967 C968 1.338 . S
C967 N970 1.377 . S
C967 H987 0.930 . S
C968 N966 1.375 . S
C968 C967 1.338 . S
C968 H972 0.931 . S
C969 N966 1.313 . S
C969 N970 1.344 . S
C969 H973 0.930 . S
N970 C967 1.377 . S
N970 C969 1.344 . S
O971 Co963 2.055 . S
O971 C975 1.253 . S
H972 C968 0.931 . S
H973 C969 0.930 . S
O974 Co963 2.039 . S
O974 C964 1.265 . S
C975 O971 1.253 . S
C975 O976 1.227 . S
O976 C975 1.227 . S
N977 Co963 2.140 . S
N977 C980 1.346 . S
N977 C981 1.345 . S
C978 C979 1.387 . S
C978 C982 1.391 . S
C979 C978 1.387 . S
C979 C980 1.369 . S
C979 H988 0.929 . S
C980 N977 1.346 . S
C980 C979 1.369 . S
C980 H983 0.928 . S
C981 N977 1.345 . S
C981 C982 1.371 . S
C981 H984 0.931 . S
C982 C978 1.391 . S
C982 C981 1.371 . S
C982 H989 0.930 . S
H983 C980 0.928 . S
H984 C981 0.931 . S
H985 C961 0.930 . S
H986 C958 0.930 . S
H987 C967 0.930 . S
H988 C979 0.929 . S
H989 C982 0.930 . S
C990 C991 1.351 . S
C990 N993 1.368 . S
C990 H995 0.931 . S
C991 C990 1.351 . S
C991 N992 1.373 . S
C991 H1019 0.930 . S
N992 C991 1.373 . S
N992 C994 1.340 . S
N993 C990 1.368 . S
N993 C994 1.321 . S
N993 Co996 2.135 . S
C994 N992 1.340 . S
C994 N993 1.321 . S
C994 H1018 0.930 . S
H995 C990 0.931 . S
Co996 N993 2.135 . S
Co996 N999 2.121 . S
Co996 O1004 2.055 . S
Co996 O1007 2.039 . S
Co996 N1010 2.140 . S
C997 O998 1.227 . S
C997 O1007 1.265 . S
O998 C997 1.227 . S
N999 Co996 2.121 . S
N999 C1001 1.375 . S
N999 C1002 1.313 . S
C1000 C1001 1.338 . S
C1000 N1003 1.377 . S
C1000 H1020 0.930 . S
C1001 N999 1.375 . S
C1001 C1000 1.338 . S
C1001 H1005 0.931 . S
C1002 N999 1.313 . S
C1002 N1003 1.344 . S
C1002 H1006 0.930 . S
N1003 C1000 1.377 . S
N1003 C1002 1.344 . S
O1004 Co996 2.055 . S
O1004 C1008 1.253 . S
H1005 C1001 0.931 . S
H1006 C1002 0.930 . S
O1007 Co996 2.039 . S
O1007 C997 1.265 . S
C1008 O1004 1.253 . S
C1008 O1009 1.227 . S
O1009 C1008 1.227 . S
N1010 Co996 2.140 . S
N1010 C1013 1.346 . S
N1010 C1014 1.345 . S
C1011 C1012 1.387 . S
C1011 C1015 1.391 . S
C1012 C1011 1.387 . S
C1012 C1013 1.369 . S
C1012 H1021 0.929 . S
C1013 N1010 1.346 . S
C1013 C1012 1.369 . S
C1013 H1016 0.928 . S
C1014 N1010 1.345 . S
C1014 C1015 1.371 . S
C1014 H1017 0.931 . S
C1015 C1011 1.391 . S
C1015 C1014 1.371 . S
C1015 H1022 0.930 . S
H1016 C1013 0.928 . S
H1017 C1014 0.931 . S
H1018 C994 0.930 . S
H1019 C991 0.930 . S
H1020 C1000 0.930 . S
H1021 C1012 0.929 . S
H1022 C1015 0.930 . S
C1023 C1024 1.351 . S
C1023 N1026 1.368 . S
C1023 H1028 0.931 . S
C1024 C1023 1.351 . S
C1024 N1025 1.373 . S
C1024 H1052 0.930 . S
N1025 C1024 1.373 . S
N1025 C1027 1.340 . S
N1026 C1023 1.368 . S
N1026 C1027 1.321 . S
N1026 Co1029 2.135 . S
C1027 N1025 1.340 . S
C1027 N1026 1.321 . S
C1027 H1051 0.930 . S
H1028 C1023 0.931 . S
Co1029 N1026 2.135 . S
Co1029 N1032 2.121 . S
Co1029 O1037 2.055 . S
Co1029 O1040 2.039 . S
Co1029 N1043 2.140 . S
C1030 O1031 1.227 . S
C1030 O1040 1.265 . S
O1031 C1030 1.227 . S
N1032 Co1029 2.121 . S
N1032 C1034 1.375 . S
N1032 C1035 1.313 . S
C1033 C1034 1.338 . S
C1033 N1036 1.377 . S
C1033 H1053 0.930 . S
C1034 N1032 1.375 . S
C1034 C1033 1.338 . S
C1034 H1038 0.931 . S
C1035 N1032 1.313 . S
C1035 N1036 1.344 . S
C1035 H1039 0.930 . S
N1036 C1033 1.377 . S
N1036 C1035 1.344 . S
O1037 Co1029 2.055 . S
O1037 C1041 1.253 . S
H1038 C1034 0.931 . S
H1039 C1035 0.930 . S
O1040 Co1029 2.039 . S
O1040 C1030 1.265 . S
C1041 O1037 1.253 . S
C1041 O1042 1.227 . S
O1042 C1041 1.227 . S
N1043 Co1029 2.140 . S
N1043 C1046 1.346 . S
N1043 C1047 1.345 . S
C1044 C1045 1.387 . S
C1044 C1048 1.391 . S
C1045 C1044 1.387 . S
C1045 C1046 1.369 . S
C1045 H1054 0.929 . S
C1046 N1043 1.346 . S
C1046 C1045 1.369 . S
C1046 H1049 0.928 . S
C1047 N1043 1.345 . S
C1047 C1048 1.371 . S
C1047 H1050 0.931 . S
C1048 C1044 1.391 . S
C1048 C1047 1.371 . S
C1048 H1055 0.930 . S
H1049 C1046 0.928 . S
H1050 C1047 0.931 . S
H1051 C1027 0.930 . S
H1052 C1024 0.930 . S
H1053 C1033 0.930 . S
H1054 C1045 0.929 . S
H1055 C1048 0.930 . S
C1056 C1057 1.349 . S
C1056 C1058 1.327 . S
C1056 H1081 0.950 . S
C1057 C1056 1.349 . S
C1057 C1073 1.349 . S
C1058 C1056 1.327 . S
C1058 C1077 1.429 . S
C1058 H1082 0.950 . S
C1059 C1076 1.574 . S
C1059 C1078 1.368 . S
C1059 H1083 0.949 . S
H1060 C1064 0.949 . S
C1061 C1062 1.349 . S
C1061 C1063 1.327 . S
C1061 H1084 0.950 . S
C1062 C1061 1.349 . S
C1062 C1074 1.349 . S
C1063 C1061 1.327 . S
C1063 C1079 1.429 . S
C1063 H1085 0.950 . S
C1064 H1060 0.949 . S
C1064 C1072 1.574 . S
C1064 C1080 1.368 . S
H1065 C1073 0.950 . S
H1066 C1071 0.950 . S
H1067 C1072 0.949 . S
H1068 C1074 0.950 . S
H1069 C1075 0.950 . S
H1070 C1076 0.949 . S
C1071 H1066 0.950 . S
C1071 C1073 1.327 . S
C1071 C1077 1.429 . S
C1072 C1064 1.574 . S
C1072 H1067 0.949 . S
C1072 C1078 1.368 . S
C1073 C1057 1.349 . S
C1073 H1065 0.950 . S
C1073 C1071 1.327 . S
C1074 C1062 1.349 . S
C1074 H1068 0.950 . S
C1074 C1075 1.327 . S
C1075 H1069 0.950 . S
C1075 C1074 1.327 . S
C1075 C1079 1.429 . S
C1076 C1059 1.574 . S
C1076 H1070 0.949 . S
C1076 C1080 1.368 . S
C1077 C1058 1.429 . S
C1077 C1071 1.429 . S
C1077 C1078 1.523 . S
C1078 C1059 1.368 . S
C1078 C1072 1.368 . S
C1078 C1077 1.523 . S
C1079 C1063 1.429 . S
C1079 C1075 1.429 . S
C1079 C1080 1.523 . S
C1080 C1064 1.368 . S
C1080 C1076 1.368 . S
C1080 C1079 1.523 . S
H1081 C1056 0.950 . S
H1082 C1058 0.950 . S
H1083 C1059 0.949 . S
H1084 C1061 0.950 . S
H1085 C1063 0.950 . S
C1086 C1087 1.349 . S
C1086 C1088 1.327 . S
C1086 H1111 0.950 . S
C1087 C1086 1.349 . S
C1087 C1103 1.349 . S
C1088 C1086 1.327 . S
C1088 C1107 1.429 . S
C1088 H1112 0.950 1_455 S
C1089 C1106 1.574 . S
C1089 C1108 1.368 1_545 S
C1089 H1113 0.949 . S
H1090 C1094 0.949 . S
C1091 C1092 1.349 . S
C1091 C1093 1.327 . S
C1091 H1114 0.950 . S
C1092 C1091 1.349 . S
C1092 C1104 1.349 . S
C1093 C1091 1.327 . S
C1093 C1109 1.429 . S
C1093 H1115 0.950 1_655 S
C1094 H1090 0.949 . S
C1094 C1102 1.574 . S
C1094 C1110 1.368 1_565 S
H1095 C1103 0.950 . S
H1096 C1101 0.950 1_545 S
H1097 C1102 0.949 . S
H1098 C1104 0.950 . S
H1099 C1105 0.950 1_565 S
H1100 C1106 0.949 . S
C1101 H1096 0.950 1_565 S
C1101 C1103 1.327 . S
C1101 C1107 1.429 . S
C1102 C1094 1.574 . S
C1102 H1097 0.949 . S
C1102 C1108 1.368 1_655 S
C1103 C1087 1.349 . S
C1103 H1095 0.950 . S
C1103 C1101 1.327 . S
C1104 C1092 1.349 . S
C1104 H1098 0.950 . S
C1104 C1105 1.327 . S
C1105 H1099 0.950 1_545 S
C1105 C1104 1.327 . S
C1105 C1109 1.429 . S
C1106 C1089 1.574 . S
C1106 H1100 0.949 . S
C1106 C1110 1.368 1_455 S
C1107 C1088 1.429 . S
C1107 C1101 1.429 . S
C1107 C1108 1.523 . S
C1108 C1089 1.368 1_565 S
C1108 C1102 1.368 1_455 S
C1108 C1107 1.523 . S
C1109 C1093 1.429 . S
C1109 C1105 1.429 . S
C1109 C1110 1.523 . S
C1110 C1094 1.368 1_545 S
C1110 C1106 1.368 1_655 S
C1110 C1109 1.523 . S
H1111 C1086 0.950 . S
H1112 C1088 0.950 1_655 S
H1113 C1089 0.949 . S
H1114 C1091 0.950 . S
H1115 C1093 0.950 1_455 S
C1116 C1117 1.349 . S
C1116 C1118 1.327 . S
C1116 H1141 0.950 . S
C1117 C1116 1.349 . S
C1117 C1133 1.349 . S
C1118 C1116 1.327 . S
C1118 C1137 1.429 . S
C1118 H1142 0.950 . S
C1119 C1136 1.574 . S
C1119 C1138 1.368 . S
C1119 H1143 0.949 . S
H1120 C1124 0.949 . S
C1121 C1122 1.349 . S
C1121 C1123 1.327 . S
C1121 H1144 0.950 . S
C1122 C1121 1.349 . S
C1122 C1134 1.349 . S
C1123 C1121 1.327 . S
C1123 C1139 1.429 . S
C1123 H1145 0.950 . S
C1124 H1120 0.949 . S
C1124 C1132 1.574 . S
C1124 C1140 1.368 . S
H1125 C1133 0.950 . S
H1126 C1131 0.950 . S
H1127 C1132 0.949 . S
H1128 C1134 0.950 . S
H1129 C1135 0.950 . S
H1130 C1136 0.949 . S
C1131 H1126 0.950 . S
C1131 C1133 1.327 . S
C1131 C1137 1.429 . S
C1132 C1124 1.574 . S
C1132 H1127 0.949 . S
C1132 C1138 1.368 . S
C1133 C1117 1.349 . S
C1133 H1125 0.950 . S
C1133 C1131 1.327 . S
C1134 C1122 1.349 . S
C1134 H1128 0.950 . S
C1134 C1135 1.327 . S
C1135 H1129 0.950 . S
C1135 C1134 1.327 . S
C1135 C1139 1.429 . S
C1136 C1119 1.574 . S
C1136 H1130 0.949 . S
C1136 C1140 1.368 . S
C1137 C1118 1.429 . S
C1137 C1131 1.429 . S
C1137 C1138 1.523 . S
C1138 C1119 1.368 . S
C1138 C1132 1.368 . S
C1138 C1137 1.523 . S
C1139 C1123 1.429 . S
C1139 C1135 1.429 . S
C1139 C1140 1.523 . S
C1140 C1124 1.368 . S
C1140 C1136 1.368 . S
C1140 C1139 1.523 . S
H1141 C1116 0.950 . S
H1142 C1118 0.950 . S
H1143 C1119 0.949 . S
H1144 C1121 0.950 . S
H1145 C1123 0.950 . S
C1146 C1147 1.349 . S
C1146 C1148 1.327 . S
C1146 H1171 0.950 . S
C1147 C1146 1.349 . S
C1147 C1163 1.349 . S
C1148 C1146 1.327 . S
C1148 C1167 1.429 . S
C1148 H1172 0.950 . S
C1149 C1166 1.574 1_554 S
C1149 C1168 1.368 1_565 S
C1149 H1173 0.949 . S
H1150 C1154 0.949 . S
C1151 C1152 1.349 . S
C1151 C1153 1.327 . S
C1151 H1174 0.950 . S
C1152 C1151 1.349 . S
C1152 C1164 1.349 . S
C1153 C1151 1.327 . S
C1153 C1169 1.429 . S
C1153 H1175 0.950 . S
C1154 H1150 0.949 . S
C1154 C1162 1.574 1_556 S
C1154 C1170 1.368 1_545 S
H1155 C1163 0.950 1_565 S
H1156 C1161 0.982 . S
H1157 C1162 0.949 . S
H1158 C1164 0.950 1_545 S
H1159 C1165 0.982 . S
H1160 C1166 0.949 . S
C1161 H1156 0.982 . S
C1161 C1163 1.317 1_565 S
C1161 C1167 1.408 1_565 S
C1162 C1154 1.574 1_554 S
C1162 H1157 0.949 . S
C1162 C1168 1.368 . S
C1163 C1147 1.349 . S
C1163 H1155 0.950 1_545 S
C1163 C1161 1.317 1_545 S
C1164 C1152 1.349 . S
C1164 H1158 0.950 1_565 S
C1164 C1165 1.317 1_565 S
C1165 H1159 0.982 . S
C1165 C1164 1.317 1_545 S
C1165 C1169 1.408 1_545 S
C1166 C1149 1.574 1_556 S
C1166 H1160 0.949 . S
C1166 C1170 1.368 . S
C1167 C1148 1.429 . S
C1167 C1161 1.408 1_545 S
C1167 C1168 1.523 . S
C1168 C1149 1.368 1_545 S
C1168 C1162 1.368 . S
C1168 C1167 1.523 . S
C1169 C1153 1.429 . S
C1169 C1165 1.408 1_565 S
C1169 C1170 1.523 . S
C1170 C1154 1.368 1_565 S
C1170 C1166 1.368 . S
C1170 C1169 1.523 . S
H1171 C1146 0.950 . S
H1172 C1148 0.950 . S
H1173 C1149 0.949 . S
H1174 C1151 0.950 . S
H1175 C1153 0.950 . S
C1176 C1177 1.349 . S
C1176 C1178 1.327 . S
C1176 H1201 0.950 . S
C1177 C1176 1.349 . S
C1177 C1193 1.349 . S
C1178 C1176 1.327 . S
C1178 C1197 1.429 . S
C1178 H1202 0.950 . S
C1179 C1196 1.574 . S
C1179 C1198 1.368 . S
C1179 H1203 0.949 . S
H1180 C1184 0.949 . S
C1181 C1182 1.349 . S
C1181 C1183 1.327 . S
C1181 H1204 0.950 . S
C1182 C1181 1.349 . S
C1182 C1194 1.349 . S
C1183 C1181 1.327 . S
C1183 C1199 1.429 . S
C1183 H1205 0.950 . S
C1184 H1180 0.949 . S
C1184 C1192 1.574 . S
C1184 C1200 1.368 . S
H1185 C1193 0.950 . S
H1186 C1191 0.950 . S
H1187 C1192 0.949 . S
H1188 C1194 0.950 . S
H1189 C1195 0.950 . S
H1190 C1196 0.949 . S
C1191 H1186 0.950 . S
C1191 C1193 1.327 . S
C1191 C1197 1.429 . S
C1192 C1184 1.574 . S
C1192 H1187 0.949 . S
C1192 C1198 1.368 . S
C1193 C1177 1.349 . S
C1193 H1185 0.950 . S
C1193 C1191 1.327 . S
C1194 C1182 1.349 . S
C1194 H1188 0.950 . S
C1194 C1195 1.327 . S
C1195 H1189 0.950 . S
C1195 C1194 1.327 . S
C1195 C1199 1.429 . S
C1196 C1179 1.574 . S
C1196 H1190 0.949 . S
C1196 C1200 1.368 . S
C1197 C1178 1.429 . S
C1197 C1191 1.429 . S
C1197 C1198 1.523 . S
C1198 C1179 1.368 . S
C1198 C1192 1.368 . S
C1198 C1197 1.523 . S
C1199 C1183 1.429 . S
C1199 C1195 1.429 . S
C1199 C1200 1.523 . S
C1200 C1184 1.368 . S
C1200 C1196 1.368 . S
C1200 C1199 1.523 . S
H1201 C1176 0.950 . S
H1202 C1178 0.950 . S
H1203 C1179 0.949 . S
H1204 C1181 0.950 . S
H1205 C1183 0.950 . S
C1206 C1207 1.349 . S
C1206 C1208 1.327 . S
C1206 H1231 0.950 . S
C1207 C1206 1.349 . S
C1207 C1223 1.349 . S
C1208 C1206 1.327 . S
C1208 C1227 1.429 . S
C1208 H1232 0.950 1_565 S
C1209 C1226 1.574 . S
C1209 C1228 1.368 . S
C1209 H1233 0.949 . S
H1210 C1214 0.949 . S
C1211 C1212 1.349 . S
C1211 C1213 1.327 . S
C1211 H1234 0.950 . S
C1212 C1211 1.349 . S
C1212 C1224 1.349 . S
C1213 C1211 1.327 . S
C1213 C1229 1.429 . S
C1213 H1235 0.950 1_545 S
C1214 H1210 0.949 . S
C1214 C1222 1.574 . S
C1214 C1230 1.368 . S
H1215 C1223 0.950 . S
H1216 C1221 0.950 . S
H1217 C1222 0.949 . S
H1218 C1224 0.950 . S
H1219 C1225 0.950 . S
H1220 C1226 0.949 . S
C1221 H1216 0.950 . S
C1221 C1223 1.327 . S
C1221 C1227 1.429 . S
C1222 C1214 1.574 . S
C1222 H1217 0.949 . S
C1222 C1228 1.368 1_545 S
C1223 C1207 1.349 . S
C1223 H1215 0.950 . S
C1223 C1221 1.327 . S
C1224 C1212 1.349 . S
C1224 H1218 0.950 . S
C1224 C1225 1.327 . S
C1225 H1219 0.950 . S
C1225 C1224 1.327 . S
C1225 C1229 1.429 . S
C1226 C1209 1.574 . S
C1226 H1220 0.949 . S
C1226 C1230 1.368 1_565 S
C1227 C1208 1.429 . S
C1227 C1221 1.429 . S
C1227 C1228 1.523 . S
C1228 C1209 1.368 . S
C1228 C1222 1.368 1_565 S
C1228 C1227 1.523 . S
C1229 C1213 1.429 . S
C1229 C1225 1.429 . S
C1229 C1230 1.523 . S
C1230 C1214 1.368 . S
C1230 C1226 1.368 1_545 S
C1230 C1229 1.523 . S
H1231 C1206 0.950 . S
H1232 C1208 0.950 1_545 S
H1233 C1209 0.949 . S
H1234 C1211 0.950 . S
H1235 C1213 0.950 1_565 S
C1236 C1237 1.349 . S
C1236 C1238 1.327 . S
C1236 H1261 0.950 . S
C1237 C1236 1.349 . S
C1237 C1253 1.349 . S
C1238 C1236 1.327 . S
C1238 C1257 1.429 . S
C1238 H1262 0.950 . S
C1239 C1256 1.574 . S
C1239 C1258 1.368 . S
C1239 H1263 0.949 . S
H1240 C1244 0.949 . S
C1241 C1242 1.349 . S
C1241 C1243 1.327 . S
C1241 H1264 0.950 . S
C1242 C1241 1.349 . S
C1242 C1254 1.349 . S
C1243 C1241 1.327 . S
C1243 C1259 1.429 . S
C1243 H1265 0.950 . S
C1244 H1240 0.949 . S
C1244 C1252 1.574 . S
C1244 C1260 1.368 . S
H1245 C1253 0.950 . S
H1246 C1251 0.950 . S
H1247 C1252 0.949 . S
H1248 C1254 0.950 . S
H1249 C1255 0.950 . S
H1250 C1256 0.949 . S
C1251 H1246 0.950 . S
C1251 C1253 1.327 . S
C1251 C1257 1.429 . S
C1252 C1244 1.574 . S
C1252 H1247 0.949 . S
C1252 C1258 1.368 . S
C1253 C1237 1.349 . S
C1253 H1245 0.950 . S
C1253 C1251 1.327 . S
C1254 C1242 1.349 . S
C1254 H1248 0.950 . S
C1254 C1255 1.327 . S
C1255 H1249 0.950 . S
C1255 C1254 1.327 . S
C1255 C1259 1.429 . S
C1256 C1239 1.574 . S
C1256 H1250 0.949 . S
C1256 C1260 1.368 . S
C1257 C1238 1.429 . S
C1257 C1251 1.429 . S
C1257 C1258 1.523 . S
C1258 C1239 1.368 . S
C1258 C1252 1.368 . S
C1258 C1257 1.523 . S
C1259 C1243 1.429 . S
C1259 C1255 1.429 . S
C1259 C1260 1.523 . S
C1260 C1244 1.368 . S
C1260 C1256 1.368 . S
C1260 C1259 1.523 . S
H1261 C1236 0.950 . S
H1262 C1238 0.950 . S
H1263 C1239 0.949 . S
H1264 C1241 0.950 . S
H1265 C1243 0.950 . S
C1266 C1267 1.349 . S
C1266 C1268 1.327 1_545 S
C1266 H1291 0.950 1_545 S
C1267 C1266 1.349 . S
C1267 C1283 1.349 . S
C1268 C1266 1.327 1_565 S
C1268 C1287 1.429 1_565 S
C1268 H1292 0.950 . S
C1269 C1286 1.567 1_456 S
C1269 C1288 1.375 . S
C1269 H1293 0.949 . S
H1270 C1274 0.949 . S
C1271 C1272 1.349 . S
C1271 C1273 1.327 1_565 S
C1271 H1294 0.950 1_565 S
C1272 C1271 1.349 . S
C1272 C1284 1.349 . S
C1273 C1271 1.327 1_545 S
C1273 C1289 1.429 1_545 S
C1273 H1295 0.950 . S
C1274 H1270 0.949 . S
C1274 C1282 1.567 1_654 S
C1274 C1290 1.375 . S
H1275 C1283 0.950 . S
H1276 C1281 0.950 . S
H1277 C1282 0.949 . S
H1278 C1284 0.950 . S
H1279 C1285 0.950 . S
H1280 C1286 0.949 . S
C1281 H1276 0.950 . S
C1281 C1283 1.327 . S
C1281 C1287 1.429 . S
C1282 C1274 1.567 1_456 S
C1282 H1277 0.949 . S
C1282 C1288 1.368 1_565 S
C1283 C1267 1.349 . S
C1283 H1275 0.950 . S
C1283 C1281 1.327 . S
C1284 C1272 1.349 . S
C1284 H1278 0.950 . S
C1284 C1285 1.327 . S
C1285 H1279 0.950 . S
C1285 C1284 1.327 . S
C1285 C1289 1.429 . S
C1286 C1269 1.567 1_654 S
C1286 H1280 0.949 . S
C1286 C1290 1.368 1_545 S
C1287 C1268 1.429 1_545 S
C1287 C1281 1.429 . S
C1287 C1288 1.523 . S
C1288 C1269 1.375 . S
C1288 C1282 1.368 1_545 S
C1288 C1287 1.523 . S
C1289 C1273 1.429 1_565 S
C1289 C1285 1.429 . S
C1289 C1290 1.523 . S
C1290 C1274 1.375 . S
C1290 C1286 1.368 1_565 S
C1290 C1289 1.523 . S
H1291 C1266 0.950 1_565 S
H1292 C1268 0.950 . S
H1293 C1269 0.949 . S
H1294 C1271 0.950 1_545 S
H1295 C1273 0.950 . S
C1296 C1297 1.349 . S
C1296 C1298 1.327 . S
C1296 H1321 0.950 . S
C1297 C1296 1.349 . S
C1297 C1313 1.349 . S
C1298 C1296 1.327 . S
C1298 C1317 1.429 . S
C1298 H1322 0.950 . S
C1299 C1316 1.574 . S
C1299 C1318 1.368 . S
C1299 H1323 0.949 . S
H1300 C1304 0.949 . S
C1301 C1302 1.349 . S
C1301 C1303 1.327 . S
C1301 H1324 0.950 . S
C1302 C1301 1.349 . S
C1302 C1314 1.349 . S
C1303 C1301 1.327 . S
C1303 C1319 1.429 . S
C1303 H1325 0.950 . S
C1304 H1300 0.949 . S
C1304 C1312 1.574 . S
C1304 C1320 1.368 . S
H1305 C1313 0.950 . S
H1306 C1311 0.950 . S
H1307 C1312 0.949 . S
H1308 C1314 0.950 . S
H1309 C1315 0.950 . S
H1310 C1316 0.949 . S
C1311 H1306 0.950 . S
C1311 C1313 1.327 . S
C1311 C1317 1.429 . S
C1312 C1304 1.574 . S
C1312 H1307 0.949 . S
C1312 C1318 1.368 . S
C1313 C1297 1.349 . S
C1313 H1305 0.950 . S
C1313 C1311 1.327 . S
C1314 C1302 1.349 . S
C1314 H1308 0.950 . S
C1314 C1315 1.327 . S
C1315 H1309 0.950 . S
C1315 C1314 1.327 . S
C1315 C1319 1.429 . S
C1316 C1299 1.574 . S
C1316 H1310 0.949 . S
C1316 C1320 1.368 . S
C1317 C1298 1.429 . S
C1317 C1311 1.429 . S
C1317 C1318 1.523 . S
C1318 C1299 1.368 . S
C1318 C1312 1.368 . S
C1318 C1317 1.523 . S
C1319 C1303 1.429 . S
C1319 C1315 1.429 . S
C1319 C1320 1.523 . S
C1320 C1304 1.368 . S
C1320 C1316 1.368 . S
C1320 C1319 1.523 . S
H1321 C1296 0.950 . S
H1322 C1298 0.950 . S
H1323 C1299 0.949 . S
H1324 C1301 0.950 . S
H1325 C1303 0.950 . S
C1326 C1327 1.349 . S
C1326 C1328 1.327 . S
C1326 H1351 0.950 . S
C1327 C1326 1.349 . S
C1327 C1343 1.349 . S
C1328 C1326 1.327 . S
C1328 C1347 1.429 . S
C1328 H1352 0.950 . S
C1329 C1346 1.574 . S
C1329 C1348 1.368 . S
C1329 H1353 0.949 . S
H1330 C1334 0.949 . S
C1331 C1332 1.349 . S
C1331 C1333 1.327 . S
C1331 H1354 0.950 . S
C1332 C1331 1.349 . S
C1332 C1344 1.349 . S
C1333 C1331 1.327 . S
C1333 C1349 1.429 . S
C1333 H1355 0.950 . S
C1334 H1330 0.949 . S
C1334 C1342 1.574 . S
C1334 C1350 1.368 . S
H1335 C1343 0.950 . S
H1336 C1341 0.950 . S
H1337 C1342 0.949 . S
H1338 C1344 0.950 . S
H1339 C1345 0.950 . S
H1340 C1346 0.949 . S
C1341 H1336 0.950 . S
C1341 C1343 1.327 . S
C1341 C1347 1.429 . S
C1342 C1334 1.574 . S
C1342 H1337 0.949 . S
C1342 C1348 1.368 . S
C1343 C1327 1.349 . S
C1343 H1335 0.950 . S
C1343 C1341 1.327 . S
C1344 C1332 1.349 . S
C1344 H1338 0.950 . S
C1344 C1345 1.327 . S
C1345 H1339 0.950 . S
C1345 C1344 1.327 . S
C1345 C1349 1.429 . S
C1346 C1329 1.574 . S
C1346 H1340 0.949 . S
C1346 C1350 1.368 . S
C1347 C1328 1.429 . S
C1347 C1341 1.429 . S
C1347 C1348 1.523 . S
C1348 C1329 1.368 . S
C1348 C1342 1.368 . S
C1348 C1347 1.523 . S
C1349 C1333 1.429 . S
C1349 C1345 1.429 . S
C1349 C1350 1.523 . S
C1350 C1334 1.368 . S
C1350 C1346 1.368 . S
C1350 C1349 1.523 . S
H1351 C1326 0.950 . S
H1352 C1328 0.950 . S
H1353 C1329 0.949 . S
H1354 C1331 0.950 . S
H1355 C1333 0.950 . S
C1356 C1357 1.349 . S
C1356 C1358 1.327 . S
C1356 H1381 0.950 . S
C1357 C1356 1.349 . S
C1357 C1373 1.349 . S
C1358 C1356 1.327 . S
C1358 C1377 1.429 . S
C1358 H1382 0.950 . S
C1359 C1376 1.574 . S
C1359 C1378 1.368 . S
C1359 H1383 0.949 . S
H1360 C1364 0.949 . S
C1361 C1362 1.349 . S
C1361 C1363 1.327 . S
C1361 H1384 0.950 . S
C1362 C1361 1.349 . S
C1362 C1374 1.349 . S
C1363 C1361 1.327 . S
C1363 C1379 1.429 . S
C1363 H1385 0.950 . S
C1364 H1360 0.949 . S
C1364 C1372 1.574 . S
C1364 C1380 1.368 . S
H1365 C1373 0.950 . S
H1366 C1371 0.950 . S
H1367 C1372 0.949 . S
H1368 C1374 0.950 . S
H1369 C1375 0.950 . S
H1370 C1376 0.949 . S
C1371 H1366 0.950 . S
C1371 C1373 1.327 . S
C1371 C1377 1.429 . S
C1372 C1364 1.574 . S
C1372 H1367 0.949 . S
C1372 C1378 1.368 . S
C1373 C1357 1.349 . S
C1373 H1365 0.950 . S
C1373 C1371 1.327 . S
C1374 C1362 1.349 . S
C1374 H1368 0.950 . S
C1374 C1375 1.327 . S
C1375 H1369 0.950 . S
C1375 C1374 1.327 . S
C1375 C1379 1.429 . S
C1376 C1359 1.574 . S
C1376 H1370 0.949 . S
C1376 C1380 1.368 . S
C1377 C1358 1.429 . S
C1377 C1371 1.429 . S
C1377 C1378 1.523 . S
C1378 C1359 1.368 . S
C1378 C1372 1.368 . S
C1378 C1377 1.523 . S
C1379 C1363 1.429 . S
C1379 C1375 1.429 . S
C1379 C1380 1.523 . S
C1380 C1364 1.368 . S
C1380 C1376 1.368 . S
C1380 C1379 1.523 . S
H1381 C1356 0.950 . S
H1382 C1358 0.950 . S
H1383 C1359 0.949 . S
H1384 C1361 0.950 . S
H1385 C1363 0.950 . S
C1386 C1387 1.349 . S
C1386 C1388 1.327 . S
C1386 H1411 0.950 . S
C1387 C1386 1.349 . S
C1387 C1403 1.349 . S
C1388 C1386 1.327 . S
C1388 C1407 1.429 . S
C1388 H1412 0.950 . S
C1389 C1406 1.574 . S
C1389 C1408 1.368 . S
C1389 H1413 0.949 . S
H1390 C1394 0.949 . S
C1391 C1392 1.349 . S
C1391 C1393 1.327 . S
C1391 H1414 0.950 . S
C1392 C1391 1.349 . S
C1392 C1404 1.349 . S
C1393 C1391 1.327 . S
C1393 C1409 1.429 . S
C1393 H1415 0.950 . S
C1394 H1390 0.949 . S
C1394 C1402 1.574 . S
C1394 C1410 1.368 . S
H1395 C1403 0.950 . S
H1396 C1401 0.950 . S
H1397 C1402 0.949 . S
H1398 C1404 0.950 . S
H1399 C1405 0.950 . S
H1400 C1406 0.949 . S
C1401 H1396 0.950 . S
C1401 C1403 1.327 . S
C1401 C1407 1.429 . S
C1402 C1394 1.574 . S
C1402 H1397 0.949 . S
C1402 C1408 1.368 . S
C1403 C1387 1.349 . S
C1403 H1395 0.950 . S
C1403 C1401 1.327 . S
C1404 C1392 1.349 . S
C1404 H1398 0.950 . S
C1404 C1405 1.327 . S
C1405 H1399 0.950 . S
C1405 C1404 1.327 . S
C1405 C1409 1.429 . S
C1406 C1389 1.574 . S
C1406 H1400 0.949 . S
C1406 C1410 1.368 . S
C1407 C1388 1.429 . S
C1407 C1401 1.429 . S
C1407 C1408 1.523 . S
C1408 C1389 1.368 . S
C1408 C1402 1.368 . S
C1408 C1407 1.523 . S
C1409 C1393 1.429 . S
C1409 C1405 1.429 . S
C1409 C1410 1.523 . S
C1410 C1394 1.368 . S
C1410 C1406 1.368 . S
C1410 C1409 1.523 . S
H1411 C1386 0.950 . S
H1412 C1388 0.950 . S
H1413 C1389 0.949 . S
H1414 C1391 0.950 . S
H1415 C1393 0.950 . S
C1416 C1417 1.349 . S
C1416 C1418 1.327 . S
C1416 H1441 0.950 . S
C1417 C1416 1.349 . S
C1417 C1433 1.349 . S
C1418 C1416 1.327 . S
C1418 C1437 1.429 . S
C1418 H1442 0.950 . S
C1419 C1436 1.569 1_556 S
C1419 C1438 1.372 . S
C1419 H1443 0.948 . S
H1420 C1424 0.948 . S
C1421 C1422 1.349 . S
C1421 C1423 1.327 . S
C1421 H1444 0.950 . S
C1422 C1421 1.349 . S
C1422 C1434 1.349 . S
C1423 C1421 1.327 . S
C1423 C1439 1.429 . S
C1423 H1445 0.950 . S
C1424 H1420 0.948 . S
C1424 C1432 1.569 1_554 S
C1424 C1440 1.372 . S
H1425 C1433 0.950 . S
H1426 C1431 0.950 . S
H1427 C1432 0.949 . S
H1428 C1434 0.950 . S
H1429 C1435 0.950 . S
H1430 C1436 0.949 . S
C1431 H1426 0.950 . S
C1431 C1433 1.327 . S
C1431 C1437 1.429 . S
C1432 C1424 1.569 1_556 S
C1432 H1427 0.949 . S
C1432 C1438 1.368 . S
C1433 C1417 1.349 . S
C1433 H1425 0.950 . S
C1433 C1431 1.327 . S
C1434 C1422 1.349 . S
C1434 H1428 0.950 . S
C1434 C1435 1.327 . S
C1435 H1429 0.950 . S
C1435 C1434 1.327 . S
C1435 C1439 1.429 . S
C1436 C1419 1.569 1_554 S
C1436 H1430 0.949 . S
C1436 C1440 1.368 . S
C1437 C1418 1.429 . S
C1437 C1431 1.429 . S
C1437 C1438 1.523 . S
C1438 C1419 1.372 . S
C1438 C1432 1.368 . S
C1438 C1437 1.523 . S
C1439 C1423 1.429 . S
C1439 C1435 1.429 . S
C1439 C1440 1.523 . S
C1440 C1424 1.372 . S
C1440 C1436 1.368 . S
C1440 C1439 1.523 . S
H1441 C1416 0.950 . S
H1442 C1418 0.950 . S
H1443 C1419 0.948 . S
H1444 C1421 0.950 . S
H1445 C1423 0.950 . S
C1446 C1447 1.349 . S
C1446 C1448 1.327 . S
C1446 H1471 0.950 . S
C1447 C1446 1.349 . S
C1447 C1463 1.349 . S
C1448 C1446 1.327 . S
C1448 C1467 1.429 . S
C1448 H1472 0.950 . S
C1449 C1466 1.574 . S
C1449 C1468 1.368 1_455 S
C1449 H1473 0.949 . S
H1450 C1454 0.949 . S
C1451 C1452 1.349 . S
C1451 C1453 1.327 . S
C1451 H1474 0.950 . S
C1452 C1451 1.349 . S
C1452 C1464 1.349 . S
C1453 C1451 1.327 . S
C1453 C1469 1.429 . S
C1453 H1475 0.950 . S
C1454 H1450 0.949 . S
C1454 C1462 1.574 . S
C1454 C1470 1.368 1_655 S
H1455 C1463 0.950 . S
H1456 C1461 0.950 . S
H1457 C1462 0.949 . S
H1458 C1464 0.950 . S
H1459 C1465 0.950 . S
H1460 C1466 0.949 . S
C1461 H1456 0.950 . S
C1461 C1463 1.327 . S
C1461 C1467 1.429 . S
C1462 C1454 1.574 . S
C1462 H1457 0.949 . S
C1462 C1468 1.368 . S
C1463 C1447 1.349 . S
C1463 H1455 0.950 . S
C1463 C1461 1.327 . S
C1464 C1452 1.349 . S
C1464 H1458 0.950 . S
C1464 C1465 1.327 . S
C1465 H1459 0.950 . S
C1465 C1464 1.327 . S
C1465 C1469 1.429 . S
C1466 C1449 1.574 . S
C1466 H1460 0.949 . S
C1466 C1470 1.368 . S
C1467 C1448 1.429 . S
C1467 C1461 1.429 . S
C1467 C1468 1.523 . S
C1468 C1449 1.368 1_655 S
C1468 C1462 1.368 . S
C1468 C1467 1.523 . S
C1469 C1453 1.429 . S
C1469 C1465 1.429 . S
C1469 C1470 1.523 . S
C1470 C1454 1.368 1_455 S
C1470 C1466 1.368 . S
C1470 C1469 1.523 . S
H1471 C1446 0.950 . S
H1472 C1448 0.950 . S
H1473 C1449 0.949 . S
H1474 C1451 0.950 . S
H1475 C1453 0.950 . S
C1476 C1477 1.349 . S
C1476 C1478 1.327 . S
C1476 H1501 0.950 . S
C1477 C1476 1.349 . S
C1477 C1493 1.349 . S
C1478 C1476 1.327 . S
C1478 C1497 1.429 . S
C1478 H1502 0.950 . S
C1479 C1496 1.576 . S
C1479 C1498 1.366 1_556 S
C1479 H1503 0.949 1_556 S
H1480 C1484 0.949 1_556 S
C1481 C1482 1.349 . S
C1481 C1483 1.327 . S
C1481 H1504 0.950 . S
C1482 C1481 1.349 . S
C1482 C1494 1.349 . S
C1483 C1481 1.327 . S
C1483 C1499 1.429 . S
C1483 H1505 0.950 . S
C1484 H1480 0.949 1_554 S
C1484 C1492 1.576 . S
C1484 C1500 1.366 1_554 S
H1485 C1493 0.950 . S
H1486 C1491 0.950 . S
H1487 C1492 0.949 . S
H1488 C1494 0.950 . S
H1489 C1495 0.950 . S
H1490 C1496 0.949 . S
C1491 H1486 0.950 . S
C1491 C1493 1.327 . S
C1491 C1497 1.429 . S
C1492 C1484 1.576 . S
C1492 H1487 0.949 . S
C1492 C1498 1.368 1_655 S
C1493 C1477 1.349 . S
C1493 H1485 0.950 . S
C1493 C1491 1.327 . S
C1494 C1482 1.349 . S
C1494 H1488 0.950 . S
C1494 C1495 1.327 . S
C1495 H1489 0.950 . S
C1495 C1494 1.327 . S
C1495 C1499 1.429 . S
C1496 C1479 1.576 . S
C1496 H1490 0.949 . S
C1496 C1500 1.368 1_455 S
C1497 C1478 1.429 . S
C1497 C1491 1.429 . S
C1497 C1498 1.523 . S
C1498 C1479 1.366 1_554 S
C1498 C1492 1.368 1_455 S
C1498 C1497 1.523 . S
C1499 C1483 1.429 . S
C1499 C1495 1.429 . S
C1499 C1500 1.523 . S
C1500 C1484 1.366 1_556 S
C1500 C1496 1.368 1_655 S
C1500 C1499 1.523 . S
H1501 C1476 0.950 . S
H1502 C1478 0.950 . S
H1503 C1479 0.949 1_554 S
H1504 C1481 0.950 . S
H1505 C1483 0.950 . S
C1506 C1507 1.349 . S
C1506 C1508 1.327 . S
C1506 H1531 0.950 . S
C1507 C1506 1.349 . S
C1507 C1523 1.349 . S
C1508 C1506 1.327 . S
C1508 C1527 1.429 . S
C1508 H1532 0.950 . S
C1509 C1526 1.574 . S
C1509 C1528 1.368 . S
C1509 H1533 0.949 . S
H1510 C1514 0.949 . S
C1511 C1512 1.349 . S
C1511 C1513 1.327 . S
C1511 H1534 0.950 . S
C1512 C1511 1.349 . S
C1512 C1524 1.349 . S
C1513 C1511 1.327 . S
C1513 C1529 1.429 . S
C1513 H1535 0.950 . S
C1514 H1510 0.949 . S
C1514 C1522 1.574 . S
C1514 C1530 1.368 . S
H1515 C1523 0.950 . S
H1516 C1521 0.950 . S
H1517 C1522 0.949 . S
H1518 C1524 0.950 . S
H1519 C1525 0.950 . S
H1520 C1526 0.949 . S
C1521 H1516 0.950 . S
C1521 C1523 1.327 . S
C1521 C1527 1.429 . S
C1522 C1514 1.574 . S
C1522 H1517 0.949 . S
C1522 C1528 1.368 . S
C1523 C1507 1.349 . S
C1523 H1515 0.950 . S
C1523 C1521 1.327 . S
C1524 C1512 1.349 . S
C1524 H1518 0.950 . S
C1524 C1525 1.327 . S
C1525 H1519 0.950 . S
C1525 C1524 1.327 . S
C1525 C1529 1.429 . S
C1526 C1509 1.574 . S
C1526 H1520 0.949 . S
C1526 C1530 1.368 . S
C1527 C1508 1.429 . S
C1527 C1521 1.429 . S
C1527 C1528 1.523 . S
C1528 C1509 1.368 . S
C1528 C1522 1.368 . S
C1528 C1527 1.523 . S
C1529 C1513 1.429 . S
C1529 C1525 1.429 . S
C1529 C1530 1.523 . S
C1530 C1514 1.368 . S
C1530 C1526 1.368 . S
C1530 C1529 1.523 . S
H1531 C1506 0.950 . S
H1532 C1508 0.950 . S
H1533 C1509 0.949 . S
H1534 C1511 0.950 . S
H1535 C1513 0.950 . S
C1536 C1537 1.349 . S
C1536 C1538 1.327 . S
C1536 H1561 0.950 . S
C1537 C1536 1.349 . S
C1537 C1553 1.349 . S
C1538 C1536 1.327 . S
C1538 C1557 1.429 . S
C1538 H1562 0.950 . S
C1539 C1556 1.574 . S
C1539 C1558 1.368 . S
C1539 H1563 0.949 . S
H1540 C1544 0.949 . S
C1541 C1542 1.349 . S
C1541 C1543 1.327 . S
C1541 H1564 0.950 . S
C1542 C1541 1.349 . S
C1542 C1554 1.349 . S
C1543 C1541 1.327 . S
C1543 C1559 1.429 . S
C1543 H1565 0.950 . S
C1544 H1540 0.949 . S
C1544 C1552 1.574 . S
C1544 C1560 1.368 . S
H1545 C1553 0.950 . S
H1546 C1551 0.950 . S
H1547 C1552 0.949 . S
H1548 C1554 0.950 . S
H1549 C1555 0.950 . S
H1550 C1556 0.949 . S
C1551 H1546 0.950 . S
C1551 C1553 1.327 . S
C1551 C1557 1.429 . S
C1552 C1544 1.574 . S
C1552 H1547 0.949 . S
C1552 C1558 1.368 . S
C1553 C1537 1.349 . S
C1553 H1545 0.950 . S
C1553 C1551 1.327 . S
C1554 C1542 1.349 . S
C1554 H1548 0.950 . S
C1554 C1555 1.327 . S
C1555 H1549 0.950 . S
C1555 C1554 1.327 . S
C1555 C1559 1.429 . S
C1556 C1539 1.574 . S
C1556 H1550 0.949 . S
C1556 C1560 1.368 . S
C1557 C1538 1.429 . S
C1557 C1551 1.429 . S
C1557 C1558 1.523 . S
C1558 C1539 1.368 . S
C1558 C1552 1.368 . S
C1558 C1557 1.523 . S
C1559 C1543 1.429 . S
C1559 C1555 1.429 . S
C1559 C1560 1.523 . S
C1560 C1544 1.368 . S
C1560 C1556 1.368 . S
C1560 C1559 1.523 . S
H1561 C1536 0.950 . S
H1562 C1538 0.950 . S
H1563 C1539 0.949 . S
H1564 C1541 0.950 . S
H1565 C1543 0.950 . S
C1566 C1567 1.349 . S
C1566 C1568 1.327 . S
C1566 H1591 0.955 . S
C1567 C1566 1.349 . S
C1567 C1583 1.349 . S
C1568 C1566 1.327 . S
C1568 C1587 1.429 . S
C1568 H1592 0.950 . S
C1569 C1586 1.574 . S
C1569 C1588 1.368 . S
C1569 H1593 0.949 . S
H1570 C1574 0.949 . S
C1571 C1572 1.349 . S
C1571 C1573 1.327 . S
C1571 H1594 0.950 . S
C1572 C1571 1.349 . S
C1572 C1584 1.349 . S
C1573 C1571 1.327 . S
C1573 C1589 1.429 . S
C1573 H1595 0.950 . S
C1574 H1570 0.949 . S
C1574 C1582 1.574 . S
C1574 C1590 1.368 . S
H1575 C1583 0.950 . S
H1576 C1581 0.950 . S
H1577 C1582 0.949 . S
H1578 C1584 0.950 . S
H1579 C1585 0.950 . S
H1580 C1586 0.949 . S
C1581 H1576 0.950 . S
C1581 C1583 1.327 . S
C1581 C1587 1.429 . S
C1582 C1574 1.574 . S
C1582 H1577 0.949 . S
C1582 C1588 1.368 . S
C1583 C1567 1.349 . S
C1583 H1575 0.950 . S
C1583 C1581 1.327 . S
C1584 C1572 1.349 . S
C1584 H1578 0.950 . S
C1584 C1585 1.327 . S
C1585 H1579 0.950 . S
C1585 C1584 1.327 . S
C1585 C1589 1.429 . S
C1586 C1569 1.574 . S
C1586 H1580 0.949 . S
C1586 C1590 1.368 . S
C1587 C1568 1.429 . S
C1587 C1581 1.429 . S
C1587 C1588 1.523 . S
C1588 C1569 1.368 . S
C1588 C1582 1.368 . S
C1588 C1587 1.523 . S
C1589 C1573 1.429 . S
C1589 C1585 1.429 . S
C1589 C1590 1.523 . S
C1590 C1574 1.368 . S
C1590 C1586 1.368 . S
C1590 C1589 1.523 . S
H1591 C1566 0.955 . S
H1592 C1568 0.950 . S
H1593 C1569 0.949 . S
H1594 C1571 0.950 . S
H1595 C1573 0.950 . S
C1596 C1597 1.349 . S
C1596 C1598 1.327 . S
C1596 H1621 0.950 . S
C1597 C1596 1.349 . S
C1597 C1613 1.349 . S
C1598 C1596 1.327 . S
C1598 C1617 1.429 . S
C1598 H1622 0.950 . S
C1599 C1616 1.574 . S
C1599 C1618 1.368 . S
C1599 H1623 0.949 . S
H1600 C1604 0.949 . S
C1601 C1602 1.349 . S
C1601 C1603 1.327 . S
C1601 H1624 0.950 . S
C1602 C1601 1.349 . S
C1602 C1614 1.349 . S
C1603 C1601 1.327 . S
C1603 C1619 1.429 . S
C1603 H1625 0.950 . S
C1604 H1600 0.949 . S
C1604 C1612 1.574 . S
C1604 C1620 1.368 . S
H1605 C1613 0.950 . S
H1606 C1611 0.950 . S
H1607 C1612 0.949 . S
H1608 C1614 0.950 . S
H1609 C1615 0.950 . S
H1610 C1616 0.949 . S
C1611 H1606 0.950 . S
C1611 C1613 1.327 . S
C1611 C1617 1.429 . S
C1612 C1604 1.574 . S
C1612 H1607 0.949 . S
C1612 C1618 1.368 . S
C1613 C1597 1.349 . S
C1613 H1605 0.950 . S
C1613 C1611 1.327 . S
C1614 C1602 1.349 . S
C1614 H1608 0.950 . S
C1614 C1615 1.327 . S
C1615 H1609 0.950 . S
C1615 C1614 1.327 . S
C1615 C1619 1.429 . S
C1616 C1599 1.574 . S
C1616 H1610 0.949 . S
C1616 C1620 1.368 . S
C1617 C1598 1.429 . S
C1617 C1611 1.429 . S
C1617 C1618 1.523 . S
C1618 C1599 1.368 . S
C1618 C1612 1.368 . S
C1618 C1617 1.523 . S
C1619 C1603 1.429 . S
C1619 C1615 1.429 . S
C1619 C1620 1.523 . S
C1620 C1604 1.368 . S
C1620 C1616 1.368 . S
C1620 C1619 1.523 . S
H1621 C1596 0.950 . S
H1622 C1598 0.950 . S
H1623 C1599 0.949 . S
H1624 C1601 0.950 . S
H1625 C1603 0.950 . S
C1626 C1627 1.349 . S
C1626 C1628 1.327 . S
C1626 H1651 0.950 . S
C1627 C1626 1.349 . S
C1627 C1643 1.349 . S
C1628 C1626 1.327 . S
C1628 C1647 1.429 . S
C1628 H1652 0.950 . S
C1629 C1646 1.574 . S
C1629 C1648 1.368 . S
C1629 H1653 0.949 . S
H1630 C1634 0.949 . S
C1631 C1632 1.349 . S
C1631 C1633 1.327 . S
C1631 H1654 0.950 . S
C1632 C1631 1.349 . S
C1632 C1644 1.349 . S
C1633 C1631 1.327 . S
C1633 C1649 1.429 . S
C1633 H1655 0.950 . S
C1634 H1630 0.949 . S
C1634 C1642 1.574 . S
C1634 C1650 1.368 . S
H1635 C1643 0.950 . S
H1636 C1641 0.950 . S
H1637 C1642 0.949 . S
H1638 C1644 0.950 . S
H1639 C1645 0.950 . S
H1640 C1646 0.949 . S
C1641 H1636 0.950 . S
C1641 C1643 1.327 . S
C1641 C1647 1.429 . S
C1642 C1634 1.574 . S
C1642 H1637 0.949 . S
C1642 C1648 1.368 . S
C1643 C1627 1.349 . S
C1643 H1635 0.950 . S
C1643 C1641 1.327 . S
C1644 C1632 1.349 . S
C1644 H1638 0.950 . S
C1644 C1645 1.327 . S
C1645 H1639 0.950 . S
C1645 C1644 1.327 . S
C1645 C1649 1.429 . S
C1646 C1629 1.574 . S
C1646 H1640 0.949 . S
C1646 C1650 1.368 . S
C1647 C1628 1.429 . S
C1647 C1641 1.429 . S
C1647 C1648 1.523 . S
C1648 C1629 1.368 . S
C1648 C1642 1.368 . S
C1648 C1647 1.523 . S
C1649 C1633 1.429 . S
C1649 C1645 1.429 . S
C1649 C1650 1.523 . S
C1650 C1634 1.368 . S
C1650 C1646 1.368 . S
C1650 C1649 1.523 . S
H1651 C1626 0.950 . S
H1652 C1628 0.950 . S
H1653 C1629 0.949 . S
H1654 C1631 0.950 . S
H1655 C1633 0.950 . S
C1656 C1657 1.349 . S
C1656 C1658 1.327 . S
C1656 H1681 0.950 . S
C1657 C1656 1.349 . S
C1657 C1673 1.349 . S
C1658 C1656 1.327 . S
C1658 C1677 1.429 . S
C1658 H1682 0.950 . S
C1659 C1676 1.574 . S
C1659 C1678 1.368 . S
C1659 H1683 0.949 . S
H1660 C1664 0.949 . S
C1661 C1662 1.349 . S
C1661 C1663 1.327 . S
C1661 H1684 0.950 . S
C1662 C1661 1.349 . S
C1662 C1674 1.349 . S
C1663 C1661 1.327 . S
C1663 C1679 1.429 . S
C1663 H1685 0.950 . S
C1664 H1660 0.949 . S
C1664 C1672 1.574 . S
C1664 C1680 1.368 . S
H1665 C1673 0.950 . S
H1666 C1671 0.950 . S
H1667 C1672 0.949 . S
H1668 C1674 0.950 . S
H1669 C1675 0.950 . S
H1670 C1676 0.949 . S
C1671 H1666 0.950 . S
C1671 C1673 1.327 . S
C1671 C1677 1.429 . S
C1672 C1664 1.574 . S
C1672 H1667 0.949 . S
C1672 C1678 1.368 . S
C1673 C1657 1.349 . S
C1673 H1665 0.950 . S
C1673 C1671 1.327 . S
C1674 C1662 1.349 . S
C1674 H1668 0.950 . S
C1674 C1675 1.327 . S
C1675 H1669 0.950 . S
C1675 C1674 1.327 . S
C1675 C1679 1.429 . S
C1676 C1659 1.574 . S
C1676 H1670 0.949 . S
C1676 C1680 1.368 . S
C1677 C1658 1.429 . S
C1677 C1671 1.429 . S
C1677 C1678 1.523 . S
C1678 C1659 1.368 . S
C1678 C1672 1.368 . S
C1678 C1677 1.523 . S
C1679 C1663 1.429 . S
C1679 C1675 1.429 . S
C1679 C1680 1.523 . S
C1680 C1664 1.368 . S
C1680 C1676 1.368 . S
C1680 C1679 1.523 . S
H1681 C1656 0.950 . S
H1682 C1658 0.950 . S
H1683 C1659 0.949 . S
H1684 C1661 0.950 . S
H1685 C1663 0.950 . S
C1686 C1687 1.349 . S
C1686 C1688 1.327 . S
C1686 H1711 0.950 . S
C1687 C1686 1.349 . S
C1687 C1703 1.349 . S
C1688 C1686 1.327 . S
C1688 C1707 1.429 . S
C1688 H1712 0.950 . S
C1689 C1706 1.574 . S
C1689 C1708 1.368 . S
C1689 H1713 0.949 . S
H1690 C1694 0.949 . S
C1691 C1692 1.349 . S
C1691 C1693 1.327 . S
C1691 H1714 0.950 . S
C1692 C1691 1.349 . S
C1692 C1704 1.349 . S
C1693 C1691 1.327 . S
C1693 C1709 1.429 . S
C1693 H1715 0.950 . S
C1694 H1690 0.949 . S
C1694 C1702 1.574 . S
C1694 C1710 1.368 . S
H1695 C1703 0.950 . S
H1696 C1701 0.950 . S
H1697 C1702 0.949 . S
H1698 C1704 0.950 . S
H1699 C1705 0.950 . S
H1700 C1706 0.949 . S
C1701 H1696 0.950 . S
C1701 C1703 1.327 . S
C1701 C1707 1.429 . S
C1702 C1694 1.574 . S
C1702 H1697 0.949 . S
C1702 C1708 1.368 . S
C1703 C1687 1.349 . S
C1703 H1695 0.950 . S
C1703 C1701 1.327 . S
C1704 C1692 1.349 . S
C1704 H1698 0.950 . S
C1704 C1705 1.327 . S
C1705 H1699 0.950 . S
C1705 C1704 1.327 . S
C1705 C1709 1.429 . S
C1706 C1689 1.574 . S
C1706 H1700 0.949 . S
C1706 C1710 1.368 . S
C1707 C1688 1.429 . S
C1707 C1701 1.429 . S
C1707 C1708 1.523 . S
C1708 C1689 1.368 . S
C1708 C1702 1.368 . S
C1708 C1707 1.523 . S
C1709 C1693 1.429 . S
C1709 C1705 1.429 . S
C1709 C1710 1.523 . S
C1710 C1694 1.368 . S
C1710 C1706 1.368 . S
C1710 C1709 1.523 . S
H1711 C1686 0.950 . S
H1712 C1688 0.950 . S
H1713 C1689 0.949 . S
H1714 C1691 0.950 . S
H1715 C1693 0.950 . S
C1716 C1717 1.349 . S
C1716 C1718 1.327 . S
C1716 H1741 0.950 . S
C1717 C1716 1.349 . S
C1717 C1733 1.349 . S
C1718 C1716 1.327 . S
C1718 C1737 1.429 . S
C1718 H1742 0.950 . S
C1719 C1736 1.574 . S
C1719 C1738 1.368 . S
C1719 H1743 0.949 . S
H1720 C1724 0.949 . S
C1721 C1722 1.349 . S
C1721 C1723 1.327 . S
C1721 H1744 0.950 . S
C1722 C1721 1.349 . S
C1722 C1734 1.349 . S
C1723 C1721 1.327 . S
C1723 C1739 1.429 . S
C1723 H1745 0.950 . S
C1724 H1720 0.949 . S
C1724 C1732 1.574 . S
C1724 C1740 1.368 . S
H1725 C1733 0.950 . S
H1726 C1731 0.950 . S
H1727 C1732 0.949 . S
H1728 C1734 0.950 . S
H1729 C1735 0.950 . S
H1730 C1736 0.949 . S
C1731 H1726 0.950 . S
C1731 C1733 1.327 . S
C1731 C1737 1.429 . S
C1732 C1724 1.574 . S
C1732 H1727 0.949 . S
C1732 C1738 1.368 . S
C1733 C1717 1.349 . S
C1733 H1725 0.950 . S
C1733 C1731 1.327 . S
C1734 C1722 1.349 . S
C1734 H1728 0.950 . S
C1734 C1735 1.327 . S
C1735 H1729 0.950 . S
C1735 C1734 1.327 . S
C1735 C1739 1.429 . S
C1736 C1719 1.574 . S
C1736 H1730 0.949 . S
C1736 C1740 1.368 . S
C1737 C1718 1.429 . S
C1737 C1731 1.429 . S
C1737 C1738 1.523 . S
C1738 C1719 1.368 . S
C1738 C1732 1.368 . S
C1738 C1737 1.523 . S
C1739 C1723 1.429 . S
C1739 C1735 1.429 . S
C1739 C1740 1.523 . S
C1740 C1724 1.368 . S
C1740 C1736 1.368 . S
C1740 C1739 1.523 . S
H1741 C1716 0.950 . S
H1742 C1718 0.950 . S
H1743 C1719 0.949 . S
H1744 C1721 0.950 . S
H1745 C1723 0.950 . S
C1746 C1747 1.349 . S
C1746 C1748 1.327 . S
C1746 H1771 0.950 . S
C1747 C1746 1.349 . S
C1747 C1763 1.349 . S
C1748 C1746 1.327 . S
C1748 C1767 1.429 . S
C1748 H1772 0.950 . S
C1749 C1766 1.574 . S
C1749 C1768 1.368 . S
C1749 H1773 0.949 . S
H1750 C1754 0.949 . S
C1751 C1752 1.349 . S
C1751 C1753 1.327 . S
C1751 H1774 0.950 . S
C1752 C1751 1.349 . S
C1752 C1764 1.349 . S
C1753 C1751 1.327 . S
C1753 C1769 1.429 . S
C1753 H1775 0.950 . S
C1754 H1750 0.949 . S
C1754 C1762 1.574 . S
C1754 C1770 1.368 . S
H1755 C1763 0.950 . S
H1756 C1761 0.950 . S
H1757 C1762 0.949 . S
H1758 C1764 0.950 . S
H1759 C1765 0.950 . S
H1760 C1766 0.949 . S
C1761 H1756 0.950 . S
C1761 C1763 1.327 . S
C1761 C1767 1.429 . S
C1762 C1754 1.574 . S
C1762 H1757 0.949 . S
C1762 C1768 1.368 . S
C1763 C1747 1.349 . S
C1763 H1755 0.950 . S
C1763 C1761 1.327 . S
C1764 C1752 1.349 . S
C1764 H1758 0.950 . S
C1764 C1765 1.327 . S
C1765 H1759 0.950 . S
C1765 C1764 1.327 . S
C1765 C1769 1.429 . S
C1766 C1749 1.574 . S
C1766 H1760 0.949 . S
C1766 C1770 1.368 . S
C1767 C1748 1.429 . S
C1767 C1761 1.429 . S
C1767 C1768 1.523 . S
C1768 C1749 1.368 . S
C1768 C1762 1.368 . S
C1768 C1767 1.523 . S
C1769 C1753 1.429 . S
C1769 C1765 1.429 . S
C1769 C1770 1.523 . S
C1770 C1754 1.368 . S
C1770 C1766 1.368 . S
C1770 C1769 1.523 . S
H1771 C1746 0.950 . S
H1772 C1748 0.950 . S
H1773 C1749 0.949 . S
H1774 C1751 0.950 . S
H1775 C1753 0.950 . S
C1776 C1777 1.349 . S
C1776 C1778 1.327 . S
C1776 H1801 0.950 . S
C1777 C1776 1.349 . S
C1777 C1793 1.349 . S
C1778 C1776 1.327 . S
C1778 C1797 1.429 . S
C1778 H1802 0.950 . S
C1779 C1796 1.574 . S
C1779 C1798 1.368 . S
C1779 H1803 0.949 . S
H1780 C1784 0.949 . S
C1781 C1782 1.349 . S
C1781 C1783 1.327 . S
C1781 H1804 0.950 . S
C1782 C1781 1.349 . S
C1782 C1794 1.349 . S
C1783 C1781 1.327 . S
C1783 C1799 1.429 . S
C1783 H1805 0.950 . S
C1784 H1780 0.949 . S
C1784 C1792 1.574 . S
C1784 C1800 1.368 . S
H1785 C1793 0.950 . S
H1786 C1791 0.950 . S
H1787 C1792 0.949 . S
H1788 C1794 0.950 . S
H1789 C1795 0.950 . S
H1790 C1796 0.949 . S
C1791 H1786 0.950 . S
C1791 C1793 1.327 . S
C1791 C1797 1.429 . S
C1792 C1784 1.574 . S
C1792 H1787 0.949 . S
C1792 C1798 1.368 . S
C1793 C1777 1.349 . S
C1793 H1785 0.950 . S
C1793 C1791 1.327 . S
C1794 C1782 1.349 . S
C1794 H1788 0.950 . S
C1794 C1795 1.327 . S
C1795 H1789 0.950 . S
C1795 C1794 1.327 . S
C1795 C1799 1.429 . S
C1796 C1779 1.574 . S
C1796 H1790 0.949 . S
C1796 C1800 1.368 . S
C1797 C1778 1.429 . S
C1797 C1791 1.429 . S
C1797 C1798 1.523 . S
C1798 C1779 1.368 . S
C1798 C1792 1.368 . S
C1798 C1797 1.523 . S
C1799 C1783 1.429 . S
C1799 C1795 1.429 . S
C1799 C1800 1.523 . S
C1800 C1784 1.368 . S
C1800 C1796 1.368 . S
C1800 C1799 1.523 . S
H1801 C1776 0.950 . S
H1802 C1778 0.950 . S
H1803 C1779 0.949 . S
H1804 C1781 0.950 . S
H1805 C1783 0.950 . S
C1806 C1807 1.349 . S
C1806 C1808 1.327 . S
C1806 H1831 0.950 . S
C1807 C1806 1.349 . S
C1807 C1823 1.349 . S
C1808 C1806 1.327 . S
C1808 C1827 1.429 . S
C1808 H1832 0.950 . S
C1809 C1826 1.574 . S
C1809 C1828 1.368 . S
C1809 H1833 0.949 . S
H1810 C1814 0.949 . S
C1811 C1812 1.349 . S
C1811 C1813 1.327 . S
C1811 H1834 0.950 . S
C1812 C1811 1.349 . S
C1812 C1824 1.349 . S
C1813 C1811 1.327 . S
C1813 C1829 1.429 . S
C1813 H1835 0.950 . S
C1814 H1810 0.949 . S
C1814 C1822 1.574 . S
C1814 C1830 1.368 . S
H1815 C1823 0.978 . S
H1816 C1821 0.950 . S
H1817 C1822 0.949 . S
H1818 C1824 0.950 . S
H1819 C1825 0.950 . S
H1820 C1826 0.949 . S
C1821 H1816 0.950 . S
C1821 C1823 1.327 . S
C1821 C1827 1.429 . S
C1822 C1814 1.574 . S
C1822 H1817 0.949 . S
C1822 C1828 1.368 . S
C1823 C1807 1.349 . S
C1823 H1815 0.978 . S
C1823 C1821 1.327 . S
C1824 C1812 1.349 . S
C1824 H1818 0.950 . S
C1824 C1825 1.327 . S
C1825 H1819 0.950 . S
C1825 C1824 1.327 . S
C1825 C1829 1.429 . S
C1826 C1809 1.574 . S
C1826 H1820 0.949 . S
C1826 C1830 1.368 . S
C1827 C1808 1.429 . S
C1827 C1821 1.429 . S
C1827 C1828 1.523 . S
C1828 C1809 1.368 . S
C1828 C1822 1.368 . S
C1828 C1827 1.523 . S
C1829 C1813 1.429 . S
C1829 C1825 1.429 . S
C1829 C1830 1.523 . S
C1830 C1814 1.368 . S
C1830 C1826 1.368 . S
C1830 C1829 1.523 . S
H1831 C1806 0.950 . S
H1832 C1808 0.950 . S
H1833 C1809 0.949 . S
H1834 C1811 0.950 . S
H1835 C1813 0.950 . S
C1836 C1837 1.349 . S
C1836 C1838 1.327 . S
C1836 H1861 0.950 . S
C1837 C1836 1.349 . S
C1837 C1853 1.349 . S
C1838 C1836 1.327 . S
C1838 C1857 1.429 . S
C1838 H1862 0.950 . S
C1839 C1856 1.574 . S
C1839 C1858 1.368 . S
C1839 H1863 0.949 . S
H1840 C1844 0.949 . S
C1841 C1842 1.349 . S
C1841 C1843 1.327 . S
C1841 H1864 0.950 . S
C1842 C1841 1.349 . S
C1842 C1854 1.349 . S
C1843 C1841 1.327 . S
C1843 C1859 1.429 . S
C1843 H1865 0.950 . S
C1844 H1840 0.949 . S
C1844 C1852 1.574 . S
C1844 C1860 1.368 . S
H1845 C1853 0.950 . S
H1846 C1851 0.950 . S
H1847 C1852 0.949 . S
H1848 C1854 0.950 . S
H1849 C1855 0.950 . S
H1850 C1856 0.949 . S
C1851 H1846 0.950 . S
C1851 C1853 1.327 . S
C1851 C1857 1.429 . S
C1852 C1844 1.574 . S
C1852 H1847 0.949 . S
C1852 C1858 1.368 . S
C1853 C1837 1.349 . S
C1853 H1845 0.950 . S
C1853 C1851 1.327 . S
C1854 C1842 1.349 . S
C1854 H1848 0.950 . S
C1854 C1855 1.327 . S
C1855 H1849 0.950 . S
C1855 C1854 1.327 . S
C1855 C1859 1.429 . S
C1856 C1839 1.574 . S
C1856 H1850 0.949 . S
C1856 C1860 1.368 . S
C1857 C1838 1.429 . S
C1857 C1851 1.429 . S
C1857 C1858 1.523 . S
C1858 C1839 1.368 . S
C1858 C1852 1.368 . S
C1858 C1857 1.523 . S
C1859 C1843 1.429 . S
C1859 C1855 1.429 . S
C1859 C1860 1.523 . S
C1860 C1844 1.368 . S
C1860 C1856 1.368 . S
C1860 C1859 1.523 . S
H1861 C1836 0.950 . S
H1862 C1838 0.950 . S
H1863 C1839 0.949 . S
H1864 C1841 0.950 . S
H1865 C1843 0.950 . S
C1866 C1867 1.349 . S
C1866 C1868 1.327 . S
C1866 H1891 0.950 . S
C1867 C1866 1.349 . S
C1867 C1883 1.349 . S
C1868 C1866 1.327 . S
C1868 C1887 1.429 . S
C1868 H1892 0.950 . S
C1869 C1886 1.574 . S
C1869 C1888 1.368 . S
C1869 H1893 0.949 . S
H1870 C1874 0.949 . S
C1871 C1872 1.349 . S
C1871 C1873 1.327 . S
C1871 H1894 0.950 . S
C1872 C1871 1.349 . S
C1872 C1884 1.349 . S
C1873 C1871 1.327 . S
C1873 C1889 1.429 . S
C1873 H1895 0.950 . S
C1874 H1870 0.949 . S
C1874 C1882 1.574 . S
C1874 C1890 1.368 . S
H1875 C1883 0.950 . S
H1876 C1881 0.950 . S
H1877 C1882 0.949 . S
H1878 C1884 0.950 . S
H1879 C1885 0.950 . S
H1880 C1886 0.949 . S
C1881 H1876 0.950 . S
C1881 C1883 1.327 . S
C1881 C1887 1.429 . S
C1882 C1874 1.574 . S
C1882 H1877 0.949 . S
C1882 C1888 1.368 . S
C1883 C1867 1.349 . S
C1883 H1875 0.950 . S
C1883 C1881 1.327 . S
C1884 C1872 1.349 . S
C1884 H1878 0.950 . S
C1884 C1885 1.327 . S
C1885 H1879 0.950 . S
C1885 C1884 1.327 . S
C1885 C1889 1.429 . S
C1886 C1869 1.574 . S
C1886 H1880 0.949 . S
C1886 C1890 1.368 . S
C1887 C1868 1.429 . S
C1887 C1881 1.429 . S
C1887 C1888 1.523 . S
C1888 C1869 1.368 . S
C1888 C1882 1.368 . S
C1888 C1887 1.523 . S
C1889 C1873 1.429 . S
C1889 C1885 1.429 . S
C1889 C1890 1.523 . S
C1890 C1874 1.368 . S
C1890 C1886 1.368 . S
C1890 C1889 1.523 . S
H1891 C1866 0.950 . S
H1892 C1868 0.950 . S
H1893 C1869 0.949 . S
H1894 C1871 0.950 . S
H1895 C1873 0.950 . S
C1896 C1897 1.349 . S
C1896 C1898 1.327 . S
C1896 H1921 0.950 . S
C1897 C1896 1.349 . S
C1897 C1913 1.349 . S
C1898 C1896 1.327 . S
C1898 C1917 1.429 . S
C1898 H1922 0.950 . S
C1899 C1916 1.574 . S
C1899 C1918 1.368 . S
C1899 H1923 0.949 . S
H1900 C1904 0.949 . S
C1901 C1902 1.349 . S
C1901 C1903 1.327 . S
C1901 H1924 0.950 . S
C1902 C1901 1.349 . S
C1902 C1914 1.349 . S
C1903 C1901 1.327 . S
C1903 C1919 1.429 . S
C1903 H1925 0.950 . S
C1904 H1900 0.949 . S
C1904 C1912 1.574 . S
C1904 C1920 1.368 . S
H1905 C1913 0.950 . S
H1906 C1911 0.950 . S
H1907 C1912 0.949 . S
H1908 C1914 0.950 . S
H1909 C1915 0.950 . S
H1910 C1916 0.949 . S
C1911 H1906 0.950 . S
C1911 C1913 1.327 . S
C1911 C1917 1.429 . S
C1912 C1904 1.574 . S
C1912 H1907 0.949 . S
C1912 C1918 1.368 . S
C1913 C1897 1.349 . S
C1913 H1905 0.950 . S
C1913 C1911 1.327 . S
C1914 C1902 1.349 . S
C1914 H1908 0.950 . S
C1914 C1915 1.327 . S
C1915 H1909 0.950 . S
C1915 C1914 1.327 . S
C1915 C1919 1.429 . S
C1916 C1899 1.574 . S
C1916 H1910 0.949 . S
C1916 C1920 1.368 . S
C1917 C1898 1.429 . S
C1917 C1911 1.429 . S
C1917 C1918 1.523 . S
C1918 C1899 1.368 . S
C1918 C1912 1.368 . S
C1918 C1917 1.523 . S
C1919 C1903 1.429 . S
C1919 C1915 1.429 . S
C1919 C1920 1.523 . S
C1920 C1904 1.368 . S
C1920 C1916 1.368 . S
C1920 C1919 1.523 . S
H1921 C1896 0.950 . S
H1922 C1898 0.950 . S
H1923 C1899 0.949 . S
H1924 C1901 0.950 . S
H1925 C1903 0.950 . S
C1926 C1927 1.349 . S
C1926 C1928 1.327 . S
C1926 H1951 0.950 . S
C1927 C1926 1.349 . S
C1927 C1943 1.349 . S
C1928 C1926 1.327 . S
C1928 C1947 1.429 . S
C1928 H1952 0.950 . S
C1929 C1946 1.574 . S
C1929 C1948 1.368 . S
C1929 H1953 0.949 . S
H1930 C1934 0.949 . S
C1931 C1932 1.349 . S
C1931 C1933 1.327 . S
C1931 H1954 0.950 . S
C1932 C1931 1.349 . S
C1932 C1944 1.349 . S
C1933 C1931 1.327 . S
C1933 C1949 1.429 . S
C1933 H1955 0.950 . S
C1934 H1930 0.949 . S
C1934 C1942 1.574 . S
C1934 C1950 1.368 . S
H1935 C1943 0.950 . S
H1936 C1941 0.950 . S
H1937 C1942 0.949 . S
H1938 C1944 0.950 . S
H1939 C1945 0.950 . S
H1940 C1946 0.949 . S
C1941 H1936 0.950 . S
C1941 C1943 1.327 . S
C1941 C1947 1.429 . S
C1942 C1934 1.574 . S
C1942 H1937 0.949 . S
C1942 C1948 1.368 . S
C1943 C1927 1.349 . S
C1943 H1935 0.950 . S
C1943 C1941 1.327 . S
C1944 C1932 1.349 . S
C1944 H1938 0.950 . S
C1944 C1945 1.327 . S
C1945 H1939 0.950 . S
C1945 C1944 1.327 . S
C1945 C1949 1.429 . S
C1946 C1929 1.574 . S
C1946 H1940 0.949 . S
C1946 C1950 1.368 . S
C1947 C1928 1.429 . S
C1947 C1941 1.429 . S
C1947 C1948 1.523 . S
C1948 C1929 1.368 . S
C1948 C1942 1.368 . S
C1948 C1947 1.523 . S
C1949 C1933 1.429 . S
C1949 C1945 1.429 . S
C1949 C1950 1.523 . S
C1950 C1934 1.368 . S
C1950 C1946 1.368 . S
C1950 C1949 1.523 . S
H1951 C1926 0.950 . S
H1952 C1928 0.950 . S
H1953 C1929 0.949 . S
H1954 C1931 0.950 . S
H1955 C1933 0.950 . S
C1956 C1957 1.349 . S
C1956 C1958 1.327 . S
C1956 H1981 0.950 . S
C1957 C1956 1.349 . S
C1957 C1973 1.349 . S
C1958 C1956 1.327 . S
C1958 C1977 1.429 . S
C1958 H1982 0.950 . S
C1959 C1976 1.574 . S
C1959 C1978 1.368 . S
C1959 H1983 0.949 . S
H1960 C1964 0.949 . S
C1961 C1962 1.349 . S
C1961 C1963 1.327 . S
C1961 H1984 0.950 . S
C1962 C1961 1.349 . S
C1962 C1974 1.349 . S
C1963 C1961 1.327 . S
C1963 C1979 1.429 . S
C1963 H1985 0.950 . S
C1964 H1960 0.949 . S
C1964 C1972 1.574 . S
C1964 C1980 1.368 . S
H1965 C1973 0.950 . S
H1966 C1971 0.950 . S
H1967 C1972 0.949 . S
H1968 C1974 0.950 . S
H1969 C1975 0.950 . S
H1970 C1976 0.949 . S
C1971 H1966 0.950 . S
C1971 C1973 1.327 . S
C1971 C1977 1.429 . S
C1972 C1964 1.574 . S
C1972 H1967 0.949 . S
C1972 C1978 1.368 . S
C1973 C1957 1.349 . S
C1973 H1965 0.950 . S
C1973 C1971 1.327 . S
C1974 C1962 1.349 . S
C1974 H1968 0.950 . S
C1974 C1975 1.327 . S
C1975 H1969 0.950 . S
C1975 C1974 1.327 . S
C1975 C1979 1.429 . S
C1976 C1959 1.574 . S
C1976 H1970 0.949 . S
C1976 C1980 1.368 . S
C1977 C1958 1.429 . S
C1977 C1971 1.429 . S
C1977 C1978 1.523 . S
C1978 C1959 1.368 . S
C1978 C1972 1.368 . S
C1978 C1977 1.523 . S
C1979 C1963 1.429 . S
C1979 C1975 1.429 . S
C1979 C1980 1.523 . S
C1980 C1964 1.368 . S
C1980 C1976 1.368 . S
C1980 C1979 1.523 . S
H1981 C1956 0.950 . S
H1982 C1958 0.950 . S
H1983 C1959 0.949 . S
H1984 C1961 0.950 . S
H1985 C1963 0.950 . S
C1986 C1987 1.349 . S
C1986 C1988 1.327 . S
C1986 H2011 0.950 . S
C1987 C1986 1.349 . S
C1987 C2003 1.349 . S
C1988 C1986 1.327 . S
C1988 C2007 1.429 . S
C1988 H2012 0.950 . S
C1989 C2006 1.574 . S
C1989 C2008 1.368 . S
C1989 H2013 0.949 . S
H1990 C1994 0.949 . S
C1991 C1992 1.349 . S
C1991 C1993 1.327 . S
C1991 H2014 0.950 . S
C1992 C1991 1.349 . S
C1992 C2004 1.349 . S
C1993 C1991 1.327 . S
C1993 C2009 1.429 . S
C1993 H2015 0.950 . S
C1994 H1990 0.949 . S
C1994 C2002 1.574 . S
C1994 C2010 1.368 . S
H1995 C2003 0.987 . S
H1996 C2001 0.950 . S
H1997 C2002 0.949 . S
H1998 C2004 0.950 . S
H1999 C2005 0.950 . S
H2000 C2006 0.949 . S
C2001 H1996 0.950 . S
C2001 C2003 1.327 . S
C2001 C2007 1.429 . S
C2002 C1994 1.574 . S
C2002 H1997 0.949 . S
C2002 C2008 1.368 . S
C2003 C1987 1.349 . S
C2003 H1995 0.987 . S
C2003 C2001 1.327 . S
C2004 C1992 1.349 . S
C2004 H1998 0.950 . S
C2004 C2005 1.327 . S
C2005 H1999 0.950 . S
C2005 C2004 1.327 . S
C2005 C2009 1.429 . S
C2006 C1989 1.574 . S
C2006 H2000 0.949 . S
C2006 C2010 1.368 . S
C2007 C1988 1.429 . S
C2007 C2001 1.429 . S
C2007 C2008 1.523 . S
C2008 C1989 1.368 . S
C2008 C2002 1.368 . S
C2008 C2007 1.523 . S
C2009 C1993 1.429 . S
C2009 C2005 1.429 . S
C2009 C2010 1.523 . S
C2010 C1994 1.368 . S
C2010 C2006 1.368 . S
C2010 C2009 1.523 . S
H2011 C1986 0.950 . S
H2012 C1988 0.950 . S
H2013 C1989 0.949 . S
H2014 C1991 0.950 . S
H2015 C1993 0.950 . S
C2016 C2017 1.349 . S
C2016 C2018 1.327 . S
C2016 H2041 0.950 . S
C2017 C2016 1.349 . S
C2017 C2033 1.349 . S
C2018 C2016 1.327 . S
C2018 C2037 1.429 . S
C2018 H2042 0.950 . S
C2019 C2036 1.574 . S
C2019 C2038 1.368 . S
C2019 H2043 0.949 . S
H2020 C2024 0.949 . S
C2021 C2022 1.349 . S
C2021 C2023 1.327 . S
C2021 H2044 0.950 . S
C2022 C2021 1.349 . S
C2022 C2034 1.349 . S
C2023 C2021 1.327 . S
C2023 C2039 1.429 . S
C2023 H2045 0.950 . S
C2024 H2020 0.949 . S
C2024 C2032 1.574 . S
C2024 C2040 1.368 . S
H2025 C2033 0.950 . S
H2026 C2031 0.950 . S
H2027 C2032 0.949 . S
H2028 C2034 0.950 . S
H2029 C2035 0.950 . S
H2030 C2036 0.949 . S
C2031 H2026 0.950 . S
C2031 C2033 1.327 . S
C2031 C2037 1.429 . S
C2032 C2024 1.574 . S
C2032 H2027 0.949 . S
C2032 C2038 1.368 . S
C2033 C2017 1.349 . S
C2033 H2025 0.950 . S
C2033 C2031 1.327 . S
C2034 C2022 1.349 . S
C2034 H2028 0.950 . S
C2034 C2035 1.327 . S
C2035 H2029 0.950 . S
C2035 C2034 1.327 . S
C2035 C2039 1.429 . S
C2036 C2019 1.574 . S
C2036 H2030 0.949 . S
C2036 C2040 1.368 . S
C2037 C2018 1.429 . S
C2037 C2031 1.429 . S
C2037 C2038 1.523 . S
C2038 C2019 1.368 . S
C2038 C2032 1.368 . S
C2038 C2037 1.523 . S
C2039 C2023 1.429 . S
C2039 C2035 1.429 . S
C2039 C2040 1.523 . S
C2040 C2024 1.368 . S
C2040 C2036 1.368 . S
C2040 C2039 1.523 . S
H2041 C2016 0.950 . S
H2042 C2018 0.950 . S
H2043 C2019 0.949 . S
H2044 C2021 0.950 . S
H2045 C2023 0.950 . S
C2046 C2047 1.349 . S
C2046 C2048 1.327 . S
C2046 H2071 0.950 . S
C2047 C2046 1.349 . S
C2047 C2063 1.349 . S
C2048 C2046 1.327 . S
C2048 C2067 1.429 . S
C2048 H2072 0.950 . S
C2049 C2066 1.574 . S
C2049 C2068 1.368 . S
C2049 H2073 0.949 . S
H2050 C2054 0.949 . S
C2051 C2052 1.349 . S
C2051 C2053 1.327 . S
C2051 H2074 0.950 . S
C2052 C2051 1.349 . S
C2052 C2064 1.349 . S
C2053 C2051 1.327 . S
C2053 C2069 1.429 . S
C2053 H2075 0.950 . S
C2054 H2050 0.949 . S
C2054 C2062 1.574 . S
C2054 C2070 1.368 . S
H2055 C2063 0.950 . S
H2056 C2061 0.950 . S
H2057 C2062 0.949 . S
H2058 C2064 0.950 . S
H2059 C2065 0.950 . S
H2060 C2066 0.949 . S
C2061 H2056 0.950 . S
C2061 C2063 1.327 . S
C2061 C2067 1.429 . S
C2062 C2054 1.574 . S
C2062 H2057 0.949 . S
C2062 C2068 1.368 . S
C2063 C2047 1.349 . S
C2063 H2055 0.950 . S
C2063 C2061 1.327 . S
C2064 C2052 1.349 . S
C2064 H2058 0.950 . S
C2064 C2065 1.327 . S
C2065 H2059 0.950 . S
C2065 C2064 1.327 . S
C2065 C2069 1.429 . S
C2066 C2049 1.574 . S
C2066 H2060 0.949 . S
C2066 C2070 1.368 . S
C2067 C2048 1.429 . S
C2067 C2061 1.429 . S
C2067 C2068 1.523 . S
C2068 C2049 1.368 . S
C2068 C2062 1.368 . S
C2068 C2067 1.523 . S
C2069 C2053 1.429 . S
C2069 C2065 1.429 . S
C2069 C2070 1.523 . S
C2070 C2054 1.368 . S
C2070 C2066 1.368 . S
C2070 C2069 1.523 . S
H2071 C2046 0.950 . S
H2072 C2048 0.950 . S
H2073 C2049 0.949 . S
H2074 C2051 0.950 . S
H2075 C2053 0.950 . S
C2076 C2077 1.349 . S
C2076 C2078 1.327 . S
C2076 H2101 0.950 . S
C2077 C2076 1.349 . S
C2077 C2093 1.349 . S
C2078 C2076 1.327 . S
C2078 C2097 1.429 . S
C2078 H2102 0.950 . S
C2079 C2096 1.574 . S
C2079 C2098 1.368 . S
C2079 H2103 0.949 . S
H2080 C2084 0.949 . S
C2081 C2082 1.349 . S
C2081 C2083 1.327 . S
C2081 H2104 0.950 . S
C2082 C2081 1.349 . S
C2082 C2094 1.349 . S
C2083 C2081 1.327 . S
C2083 C2099 1.429 . S
C2083 H2105 0.950 . S
C2084 H2080 0.949 . S
C2084 C2092 1.574 . S
C2084 C2100 1.368 . S
H2085 C2093 0.950 . S
H2086 C2091 0.950 . S
H2087 C2092 0.949 . S
H2088 C2094 0.950 . S
H2089 C2095 0.950 . S
H2090 C2096 0.949 . S
C2091 H2086 0.950 . S
C2091 C2093 1.327 . S
C2091 C2097 1.429 . S
C2092 C2084 1.574 . S
C2092 H2087 0.949 . S
C2092 C2098 1.368 . S
C2093 C2077 1.349 . S
C2093 H2085 0.950 . S
C2093 C2091 1.327 . S
C2094 C2082 1.349 . S
C2094 H2088 0.950 . S
C2094 C2095 1.327 . S
C2095 H2089 0.950 . S
C2095 C2094 1.327 . S
C2095 C2099 1.429 . S
C2096 C2079 1.574 . S
C2096 H2090 0.949 . S
C2096 C2100 1.368 . S
C2097 C2078 1.429 . S
C2097 C2091 1.429 . S
C2097 C2098 1.523 . S
C2098 C2079 1.368 . S
C2098 C2092 1.368 . S
C2098 C2097 1.523 . S
C2099 C2083 1.429 . S
C2099 C2095 1.429 . S
C2099 C2100 1.523 . S
C2100 C2084 1.368 . S
C2100 C2096 1.368 . S
C2100 C2099 1.523 . S
H2101 C2076 0.950 . S
H2102 C2078 0.950 . S
H2103 C2079 0.949 . S
H2104 C2081 0.950 . S
H2105 C2083 0.950 . S
C2106 C2107 1.349 . S
C2106 C2108 1.327 . S
C2106 H2131 0.950 1_655 S
C2107 C2106 1.349 . S
C2107 C2123 1.349 . S
C2108 C2106 1.327 . S
C2108 C2127 1.429 . S
C2108 H2132 0.950 . S
C2109 C2126 1.574 . S
C2109 C2128 1.368 . S
C2109 H2133 0.949 . S
H2110 C2114 0.949 . S
C2111 C2112 1.349 . S
C2111 C2113 1.327 . S
C2111 H2134 0.950 . S
C2112 C2111 1.349 . S
C2112 C2124 1.349 . S
C2113 C2111 1.327 . S
C2113 C2129 1.429 . S
C2113 H2135 0.950 . S
C2114 H2110 0.949 . S
C2114 C2122 1.574 . S
C2114 C2130 1.368 . S
H2115 C2123 0.950 . S
H2116 C2121 0.950 . S
H2117 C2122 0.949 . S
H2118 C2124 0.950 . S
H2119 C2125 0.950 . S
H2120 C2126 0.949 . S
C2121 H2116 0.950 . S
C2121 C2123 1.327 . S
C2121 C2127 1.429 . S
C2122 C2114 1.574 . S
C2122 H2117 0.949 . S
C2122 C2128 1.368 . S
C2123 C2107 1.349 . S
C2123 H2115 0.950 . S
C2123 C2121 1.327 . S
C2124 C2112 1.349 . S
C2124 H2118 0.950 . S
C2124 C2125 1.327 . S
C2125 H2119 0.950 . S
C2125 C2124 1.327 . S
C2125 C2129 1.429 . S
C2126 C2109 1.574 . S
C2126 H2120 0.949 . S
C2126 C2130 1.368 . S
C2127 C2108 1.429 . S
C2127 C2121 1.429 . S
C2127 C2128 1.523 . S
C2128 C2109 1.368 . S
C2128 C2122 1.368 . S
C2128 C2127 1.523 . S
C2129 C2113 1.429 . S
C2129 C2125 1.429 . S
C2129 C2130 1.523 . S
C2130 C2114 1.368 . S
C2130 C2126 1.368 . S
C2130 C2129 1.523 . S
H2131 C2106 0.950 1_455 S
H2132 C2108 0.950 . S
H2133 C2109 0.949 . S
H2134 C2111 0.950 . S
H2135 C2113 0.950 . S
C2136 C2137 1.349 . S
C2136 C2138 1.327 . S
C2136 H2161 0.950 . S
C2137 C2136 1.349 . S
C2137 C2153 1.349 . S
C2138 C2136 1.327 . S
C2138 C2157 1.429 . S
C2138 H2162 0.950 . S
C2139 C2156 1.574 . S
C2139 C2158 1.368 . S
C2139 H2163 0.949 . S
H2140 C2144 0.949 . S
C2141 C2142 1.349 . S
C2141 C2143 1.327 . S
C2141 H2164 0.950 . S
C2142 C2141 1.349 . S
C2142 C2154 1.349 . S
C2143 C2141 1.327 . S
C2143 C2159 1.429 . S
C2143 H2165 0.950 . S
C2144 H2140 0.949 . S
C2144 C2152 1.574 . S
C2144 C2160 1.368 . S
H2145 C2153 0.950 . S
H2146 C2151 0.950 . S
H2147 C2152 0.949 . S
H2148 C2154 0.950 . S
H2149 C2155 0.950 . S
H2150 C2156 0.949 . S
C2151 H2146 0.950 . S
C2151 C2153 1.327 . S
C2151 C2157 1.429 . S
C2152 C2144 1.574 . S
C2152 H2147 0.949 . S
C2152 C2158 1.368 . S
C2153 C2137 1.349 . S
C2153 H2145 0.950 . S
C2153 C2151 1.327 . S
C2154 C2142 1.349 . S
C2154 H2148 0.950 . S
C2154 C2155 1.327 . S
C2155 H2149 0.950 . S
C2155 C2154 1.327 . S
C2155 C2159 1.429 . S
C2156 C2139 1.574 . S
C2156 H2150 0.949 . S
C2156 C2160 1.368 . S
C2157 C2138 1.429 . S
C2157 C2151 1.429 . S
C2157 C2158 1.523 . S
C2158 C2139 1.368 . S
C2158 C2152 1.368 . S
C2158 C2157 1.523 . S
C2159 C2143 1.429 . S
C2159 C2155 1.429 . S
C2159 C2160 1.523 . S
C2160 C2144 1.368 . S
C2160 C2156 1.368 . S
C2160 C2159 1.523 . S
H2161 C2136 0.950 . S
H2162 C2138 0.950 . S
H2163 C2139 0.949 . S
H2164 C2141 0.950 . S
H2165 C2143 0.950 . S
C2166 C2167 1.349 . S
C2166 C2168 1.327 . S
C2166 H2191 0.950 . S
C2167 C2166 1.349 . S
C2167 C2183 1.349 . S
C2168 C2166 1.327 . S
C2168 C2187 1.429 . S
C2168 H2192 0.950 . S
C2169 C2186 1.574 . S
C2169 C2188 1.368 . S
C2169 H2193 0.949 . S
H2170 C2174 0.949 . S
C2171 C2172 1.349 . S
C2171 C2173 1.327 . S
C2171 H2194 0.950 . S
C2172 C2171 1.349 . S
C2172 C2184 1.349 . S
C2173 C2171 1.327 . S
C2173 C2189 1.429 . S
C2173 H2195 0.950 . S
C2174 H2170 0.949 . S
C2174 C2182 1.574 . S
C2174 C2190 1.368 . S
H2175 C2183 0.950 . S
H2176 C2181 0.950 . S
H2177 C2182 0.949 . S
H2178 C2184 0.927 1_455 S
H2179 C2185 0.950 . S
H2180 C2186 0.949 . S
C2181 H2176 0.950 . S
C2181 C2183 1.327 . S
C2181 C2187 1.429 . S
C2182 C2174 1.574 . S
C2182 H2177 0.949 . S
C2182 C2188 1.368 . S
C2183 C2167 1.349 . S
C2183 H2175 0.950 . S
C2183 C2181 1.327 . S
C2184 C2172 1.349 . S
C2184 H2178 0.927 1_655 S
C2184 C2185 1.327 . S
C2185 H2179 0.950 . S
C2185 C2184 1.327 . S
C2185 C2189 1.429 . S
C2186 C2169 1.574 . S
C2186 H2180 0.949 . S
C2186 C2190 1.368 . S
C2187 C2168 1.429 . S
C2187 C2181 1.429 . S
C2187 C2188 1.523 . S
C2188 C2169 1.368 . S
C2188 C2182 1.368 . S
C2188 C2187 1.523 . S
C2189 C2173 1.429 . S
C2189 C2185 1.429 . S
C2189 C2190 1.523 . S
C2190 C2174 1.368 . S
C2190 C2186 1.368 . S
C2190 C2189 1.523 . S
H2191 C2166 0.950 . S
H2192 C2168 0.950 . S
H2193 C2169 0.949 . S
H2194 C2171 0.950 . S
H2195 C2173 0.950 . S
C2196 C2197 1.349 . S
C2196 C2198 1.327 . S
C2196 H2221 0.950 . S
C2197 C2196 1.349 . S
C2197 C2213 1.349 . S
C2198 C2196 1.327 . S
C2198 C2217 1.429 . S
C2198 H2222 0.950 . S
C2199 C2216 1.574 . S
C2199 C2218 1.368 . S
C2199 H2223 0.949 . S
H2200 C2204 0.949 . S
C2201 C2202 1.349 . S
C2201 C2203 1.327 . S
C2201 H2224 0.950 . S
C2202 C2201 1.349 . S
C2202 C2214 1.349 . S
C2203 C2201 1.327 . S
C2203 C2219 1.429 . S
C2203 H2225 0.950 . S
C2204 H2200 0.949 . S
C2204 C2212 1.574 . S
C2204 C2220 1.368 . S
H2205 C2213 0.950 . S
H2206 C2211 0.950 . S
H2207 C2212 0.949 . S
H2208 C2214 0.950 . S
H2209 C2215 0.950 . S
H2210 C2216 0.949 . S
C2211 H2206 0.950 . S
C2211 C2213 1.327 . S
C2211 C2217 1.429 . S
C2212 C2204 1.574 . S
C2212 H2207 0.949 . S
C2212 C2218 1.368 . S
C2213 C2197 1.349 . S
C2213 H2205 0.950 . S
C2213 C2211 1.327 . S
C2214 C2202 1.349 . S
C2214 H2208 0.950 . S
C2214 C2215 1.327 . S
C2215 H2209 0.950 . S
C2215 C2214 1.327 . S
C2215 C2219 1.429 . S
C2216 C2199 1.574 . S
C2216 H2210 0.949 . S
C2216 C2220 1.368 . S
C2217 C2198 1.429 . S
C2217 C2211 1.429 . S
C2217 C2218 1.523 . S
C2218 C2199 1.368 . S
C2218 C2212 1.368 . S
C2218 C2217 1.523 . S
C2219 C2203 1.429 . S
C2219 C2215 1.429 . S
C2219 C2220 1.523 . S
C2220 C2204 1.368 . S
C2220 C2216 1.368 . S
C2220 C2219 1.523 . S
H2221 C2196 0.950 . S
H2222 C2198 0.950 . S
H2223 C2199 0.949 . S
H2224 C2201 0.950 . S
H2225 C2203 0.950 . S
C2226 C2227 1.349 . S
C2226 C2228 1.327 . S
C2226 H2251 0.950 . S
C2227 C2226 1.349 . S
C2227 C2243 1.349 . S
C2228 C2226 1.327 . S
C2228 C2247 1.429 . S
C2228 H2252 0.950 . S
C2229 C2246 1.574 . S
C2229 C2248 1.368 . S
C2229 H2253 0.949 . S
H2230 C2234 0.949 . S
C2231 C2232 1.349 . S
C2231 C2233 1.327 . S
C2231 H2254 0.950 . S
C2232 C2231 1.349 . S
C2232 C2244 1.349 . S
C2233 C2231 1.327 . S
C2233 C2249 1.429 . S
C2233 H2255 0.950 . S
C2234 H2230 0.949 . S
C2234 C2242 1.574 . S
C2234 C2250 1.368 . S
H2235 C2243 0.950 . S
H2236 C2241 0.950 . S
H2237 C2242 0.949 . S
H2238 C2244 0.950 . S
H2239 C2245 0.950 . S
H2240 C2246 0.949 . S
C2241 H2236 0.950 . S
C2241 C2243 1.327 . S
C2241 C2247 1.429 . S
C2242 C2234 1.574 . S
C2242 H2237 0.949 . S
C2242 C2248 1.368 . S
C2243 C2227 1.349 . S
C2243 H2235 0.950 . S
C2243 C2241 1.327 . S
C2244 C2232 1.349 . S
C2244 H2238 0.950 . S
C2244 C2245 1.327 . S
C2245 H2239 0.950 . S
C2245 C2244 1.327 . S
C2245 C2249 1.429 . S
C2246 C2229 1.574 . S
C2246 H2240 0.949 . S
C2246 C2250 1.368 . S
C2247 C2228 1.429 . S
C2247 C2241 1.429 . S
C2247 C2248 1.523 . S
C2248 C2229 1.368 . S
C2248 C2242 1.368 . S
C2248 C2247 1.523 . S
C2249 C2233 1.429 . S
C2249 C2245 1.429 . S
C2249 C2250 1.523 . S
C2250 C2234 1.368 . S
C2250 C2246 1.368 . S
C2250 C2249 1.523 . S
H2251 C2226 0.950 . S
H2252 C2228 0.950 . S
H2253 C2229 0.949 . S
H2254 C2231 0.950 . S
H2255 C2233 0.950 . S
C2256 C2257 1.349 . S
C2256 C2258 1.327 . S
C2256 H2281 0.950 . S
C2257 C2256 1.349 . S
C2257 C2273 1.349 . S
C2258 C2256 1.327 . S
C2258 C2277 1.429 . S
C2258 H2282 0.950 . S
C2259 C2276 1.574 . S
C2259 C2278 1.368 . S
C2259 H2283 0.949 . S
H2260 C2264 0.949 . S
C2261 C2262 1.349 . S
C2261 C2263 1.327 . S
C2261 H2284 0.950 . S
C2262 C2261 1.349 . S
C2262 C2274 1.349 . S
C2263 C2261 1.327 . S
C2263 C2279 1.429 . S
C2263 H2285 0.950 . S
C2264 H2260 0.949 . S
C2264 C2272 1.574 . S
C2264 C2280 1.368 . S
H2265 C2273 0.950 . S
H2266 C2271 0.950 . S
H2267 C2272 0.949 . S
H2268 C2274 0.950 . S
H2269 C2275 0.950 . S
H2270 C2276 0.949 . S
C2271 H2266 0.950 . S
C2271 C2273 1.327 . S
C2271 C2277 1.429 . S
C2272 C2264 1.574 . S
C2272 H2267 0.949 . S
C2272 C2278 1.368 . S
C2273 C2257 1.349 . S
C2273 H2265 0.950 . S
C2273 C2271 1.327 . S
C2274 C2262 1.349 . S
C2274 H2268 0.950 . S
C2274 C2275 1.327 . S
C2275 H2269 0.950 . S
C2275 C2274 1.327 . S
C2275 C2279 1.429 . S
C2276 C2259 1.574 . S
C2276 H2270 0.949 . S
C2276 C2280 1.368 . S
C2277 C2258 1.429 . S
C2277 C2271 1.429 . S
C2277 C2278 1.523 . S
C2278 C2259 1.368 . S
C2278 C2272 1.368 . S
C2278 C2277 1.523 . S
C2279 C2263 1.429 . S
C2279 C2275 1.429 . S
C2279 C2280 1.523 . S
C2280 C2264 1.368 . S
C2280 C2276 1.368 . S
C2280 C2279 1.523 . S
H2281 C2256 0.950 . S
H2282 C2258 0.950 . S
H2283 C2259 0.949 . S
H2284 C2261 0.950 . S
H2285 C2263 0.950 . S
C2286 C2287 1.349 . S
C2286 C2288 1.327 . S
C2286 H2311 0.950 . S
C2287 C2286 1.349 . S
C2287 C2303 1.349 . S
C2288 C2286 1.327 . S
C2288 C2307 1.429 . S
C2288 H2312 0.950 . S
C2289 C2306 1.574 . S
C2289 C2308 1.368 . S
C2289 H2313 0.949 . S
H2290 C2294 0.949 . S
C2291 C2292 1.349 . S
C2291 C2293 1.327 . S
C2291 H2314 0.950 . S
C2292 C2291 1.349 . S
C2292 C2304 1.349 . S
C2293 C2291 1.327 . S
C2293 C2309 1.429 . S
C2293 H2315 0.950 . S
C2294 H2290 0.949 . S
C2294 C2302 1.574 . S
C2294 C2310 1.368 . S
H2295 C2303 0.950 . S
H2296 C2301 0.950 . S
H2297 C2302 0.949 . S
H2298 C2304 0.950 . S
H2299 C2305 0.950 . S
H2300 C2306 0.949 . S
C2301 H2296 0.950 . S
C2301 C2303 1.327 . S
C2301 C2307 1.429 . S
C2302 C2294 1.574 . S
C2302 H2297 0.949 . S
C2302 C2308 1.368 . S
C2303 C2287 1.349 . S
C2303 H2295 0.950 . S
C2303 C2301 1.327 . S
C2304 C2292 1.349 . S
C2304 H2298 0.950 . S
C2304 C2305 1.327 . S
C2305 H2299 0.950 . S
C2305 C2304 1.327 . S
C2305 C2309 1.429 . S
C2306 C2289 1.574 . S
C2306 H2300 0.949 . S
C2306 C2310 1.368 . S
C2307 C2288 1.429 . S
C2307 C2301 1.429 . S
C2307 C2308 1.523 . S
C2308 C2289 1.368 . S
C2308 C2302 1.368 . S
C2308 C2307 1.523 . S
C2309 C2293 1.429 . S
C2309 C2305 1.429 . S
C2309 C2310 1.523 . S
C2310 C2294 1.368 . S
C2310 C2306 1.368 . S
C2310 C2309 1.523 . S
H2311 C2286 0.950 . S
H2312 C2288 0.950 . S
H2313 C2289 0.949 . S
H2314 C2291 0.950 . S
H2315 C2293 0.950 . S
C2316 C2317 1.349 . S
C2316 C2318 1.327 . S
C2316 H2341 0.950 . S
C2317 C2316 1.349 . S
C2317 C2333 1.349 . S
C2318 C2316 1.327 . S
C2318 C2337 1.429 . S
C2318 H2342 0.950 . S
C2319 C2336 1.574 . S
C2319 C2338 1.368 . S
C2319 H2343 0.949 . S
H2320 C2324 0.949 . S
C2321 C2322 1.349 . S
C2321 C2323 1.327 . S
C2321 H2344 0.950 . S
C2322 C2321 1.349 . S
C2322 C2334 1.349 . S
C2323 C2321 1.327 . S
C2323 C2339 1.429 . S
C2323 H2345 0.950 . S
C2324 H2320 0.949 . S
C2324 C2332 1.574 . S
C2324 C2340 1.368 . S
H2325 C2333 0.950 . S
H2326 C2331 0.950 . S
H2327 C2332 0.949 . S
H2328 C2334 0.950 . S
H2329 C2335 0.950 . S
H2330 C2336 0.949 . S
C2331 H2326 0.950 . S
C2331 C2333 1.327 . S
C2331 C2337 1.429 . S
C2332 C2324 1.574 . S
C2332 H2327 0.949 . S
C2332 C2338 1.368 . S
C2333 C2317 1.349 . S
C2333 H2325 0.950 . S
C2333 C2331 1.327 . S
C2334 C2322 1.349 . S
C2334 H2328 0.950 . S
C2334 C2335 1.327 . S
C2335 H2329 0.950 . S
C2335 C2334 1.327 . S
C2335 C2339 1.429 . S
C2336 C2319 1.574 . S
C2336 H2330 0.949 . S
C2336 C2340 1.368 . S
C2337 C2318 1.429 . S
C2337 C2331 1.429 . S
C2337 C2338 1.523 . S
C2338 C2319 1.368 . S
C2338 C2332 1.368 . S
C2338 C2337 1.523 . S
C2339 C2323 1.429 . S
C2339 C2335 1.429 . S
C2339 C2340 1.523 . S
C2340 C2324 1.368 . S
C2340 C2336 1.368 . S
C2340 C2339 1.523 . S
H2341 C2316 0.950 . S
H2342 C2318 0.950 . S
H2343 C2319 0.949 . S
H2344 C2321 0.950 . S
H2345 C2323 0.950 . S
C2346 C2347 1.349 . S
C2346 C2348 1.327 . S
C2346 H2371 0.950 . S
C2347 C2346 1.349 . S
C2347 C2363 1.349 . S
C2348 C2346 1.327 . S
C2348 C2367 1.429 . S
C2348 H2372 0.950 . S
C2349 C2366 1.574 . S
C2349 C2368 1.368 . S
C2349 H2373 0.949 . S
H2350 C2354 0.949 . S
C2351 C2352 1.349 . S
C2351 C2353 1.327 . S
C2351 H2374 0.950 1_455 S
C2352 C2351 1.349 . S
C2352 C2364 1.349 . S
C2353 C2351 1.327 . S
C2353 C2369 1.429 . S
C2353 H2375 0.950 . S
C2354 H2350 0.949 . S
C2354 C2362 1.574 . S
C2354 C2370 1.368 . S
H2355 C2363 0.950 . S
H2356 C2361 0.950 . S
H2357 C2362 0.949 . S
H2358 C2364 0.950 . S
H2359 C2365 0.950 . S
H2360 C2366 0.949 . S
C2361 H2356 0.950 . S
C2361 C2363 1.327 . S
C2361 C2367 1.429 . S
C2362 C2354 1.574 . S
C2362 H2357 0.949 . S
C2362 C2368 1.368 . S
C2363 C2347 1.349 . S
C2363 H2355 0.950 . S
C2363 C2361 1.327 . S
C2364 C2352 1.349 . S
C2364 H2358 0.950 . S
C2364 C2365 1.327 . S
C2365 H2359 0.950 . S
C2365 C2364 1.327 . S
C2365 C2369 1.429 . S
C2366 C2349 1.574 . S
C2366 H2360 0.949 . S
C2366 C2370 1.368 . S
C2367 C2348 1.429 . S
C2367 C2361 1.429 . S
C2367 C2368 1.523 . S
C2368 C2349 1.368 . S
C2368 C2362 1.368 . S
C2368 C2367 1.523 . S
C2369 C2353 1.429 . S
C2369 C2365 1.429 . S
C2369 C2370 1.523 . S
C2370 C2354 1.368 . S
C2370 C2366 1.368 . S
C2370 C2369 1.523 . S
H2371 C2346 0.950 . S
H2372 C2348 0.950 . S
H2373 C2349 0.949 . S
H2374 C2351 0.950 1_655 S
H2375 C2353 0.950 . S
C2376 C2377 1.349 . S
C2376 C2378 1.327 . S
C2376 H2401 0.950 . S
C2377 C2376 1.349 . S
C2377 C2393 1.349 . S
C2378 C2376 1.327 . S
C2378 C2397 1.429 . S
C2378 H2402 0.950 . S
C2379 C2396 1.574 . S
C2379 C2398 1.368 . S
C2379 H2403 0.949 . S
H2380 C2384 0.949 . S
C2381 C2382 1.349 . S
C2381 C2383 1.327 . S
C2381 H2404 0.950 . S
C2382 C2381 1.349 . S
C2382 C2394 1.349 . S
C2383 C2381 1.327 . S
C2383 C2399 1.429 . S
C2383 H2405 0.950 . S
C2384 H2380 0.949 . S
C2384 C2392 1.574 . S
C2384 C2400 1.368 . S
H2385 C2393 0.950 . S
H2386 C2391 0.950 . S
H2387 C2392 0.949 . S
H2388 C2394 0.950 . S
H2389 C2395 0.950 . S
H2390 C2396 0.949 . S
C2391 H2386 0.950 . S
C2391 C2393 1.327 . S
C2391 C2397 1.429 . S
C2392 C2384 1.574 . S
C2392 H2387 0.949 . S
C2392 C2398 1.368 . S
C2393 C2377 1.349 . S
C2393 H2385 0.950 . S
C2393 C2391 1.327 . S
C2394 C2382 1.349 . S
C2394 H2388 0.950 . S
C2394 C2395 1.327 . S
C2395 H2389 0.950 . S
C2395 C2394 1.327 . S
C2395 C2399 1.429 . S
C2396 C2379 1.574 . S
C2396 H2390 0.949 . S
C2396 C2400 1.368 . S
C2397 C2378 1.429 . S
C2397 C2391 1.429 . S
C2397 C2398 1.523 . S
C2398 C2379 1.368 . S
C2398 C2392 1.368 . S
C2398 C2397 1.523 . S
C2399 C2383 1.429 . S
C2399 C2395 1.429 . S
C2399 C2400 1.523 . S
C2400 C2384 1.368 . S
C2400 C2396 1.368 . S
C2400 C2399 1.523 . S
H2401 C2376 0.950 . S
H2402 C2378 0.950 . S
H2403 C2379 0.949 . S
H2404 C2381 0.950 . S
H2405 C2383 0.950 . S
C2406 C2407 1.349 . S
C2406 C2408 1.327 . S
C2406 H2431 0.950 1_455 S
C2407 C2406 1.349 . S
C2407 C2423 1.349 . S
C2408 C2406 1.327 . S
C2408 C2427 1.429 . S
C2408 H2432 0.950 . S
C2409 C2426 1.574 . S
C2409 C2428 1.368 . S
C2409 H2433 0.949 . S
H2410 C2414 0.949 . S
C2411 C2412 1.349 . S
C2411 C2413 1.327 . S
C2411 H2434 0.950 . S
C2412 C2411 1.349 . S
C2412 C2424 1.349 . S
C2413 C2411 1.327 . S
C2413 C2429 1.429 . S
C2413 H2435 0.950 . S
C2414 H2410 0.949 . S
C2414 C2422 1.574 . S
C2414 C2430 1.368 . S
H2415 C2423 0.950 . S
H2416 C2421 0.950 . S
H2417 C2422 0.949 . S
H2418 C2424 0.950 . S
H2419 C2425 0.950 . S
H2420 C2426 0.949 . S
C2421 H2416 0.950 . S
C2421 C2423 1.327 . S
C2421 C2427 1.429 . S
C2422 C2414 1.574 . S
C2422 H2417 0.949 . S
C2422 C2428 1.368 . S
C2423 C2407 1.349 . S
C2423 H2415 0.950 . S
C2423 C2421 1.327 . S
C2424 C2412 1.349 . S
C2424 H2418 0.950 . S
C2424 C2425 1.327 . S
C2425 H2419 0.950 . S
C2425 C2424 1.327 . S
C2425 C2429 1.429 . S
C2426 C2409 1.574 . S
C2426 H2420 0.949 . S
C2426 C2430 1.368 . S
C2427 C2408 1.429 . S
C2427 C2421 1.429 . S
C2427 C2428 1.523 . S
C2428 C2409 1.368 . S
C2428 C2422 1.368 . S
C2428 C2427 1.523 . S
C2429 C2413 1.429 . S
C2429 C2425 1.429 . S
C2429 C2430 1.523 . S
C2430 C2414 1.368 . S
C2430 C2426 1.368 . S
C2430 C2429 1.523 . S
H2431 C2406 0.950 1_655 S
H2432 C2408 0.950 . S
H2433 C2409 0.949 . S
H2434 C2411 0.950 . S
H2435 C2413 0.950 . S
C2436 C2437 1.349 . S
C2436 C2438 1.327 . S
C2436 H2461 0.950 . S
C2437 C2436 1.349 . S
C2437 C2453 1.349 . S
C2438 C2436 1.327 . S
C2438 C2457 1.429 . S
C2438 H2462 0.950 . S
C2439 C2456 1.574 . S
C2439 C2458 1.368 . S
C2439 H2463 0.949 . S
H2440 C2444 0.949 . S
C2441 C2442 1.349 . S
C2441 C2443 1.327 . S
C2441 H2464 0.950 . S
C2442 C2441 1.349 . S
C2442 C2454 1.349 . S
C2443 C2441 1.327 . S
C2443 C2459 1.429 . S
C2443 H2465 0.950 . S
C2444 H2440 0.949 . S
C2444 C2452 1.574 . S
C2444 C2460 1.368 . S
H2445 C2453 0.950 . S
H2446 C2451 0.950 . S
H2447 C2452 0.949 . S
H2448 C2454 0.950 . S
H2449 C2455 0.950 . S
H2450 C2456 0.949 . S
C2451 H2446 0.950 . S
C2451 C2453 1.327 . S
C2451 C2457 1.429 . S
C2452 C2444 1.574 . S
C2452 H2447 0.949 . S
C2452 C2458 1.368 . S
C2453 C2437 1.349 . S
C2453 H2445 0.950 . S
C2453 C2451 1.327 . S
C2454 C2442 1.349 . S
C2454 H2448 0.950 . S
C2454 C2455 1.327 . S
C2455 H2449 0.950 . S
C2455 C2454 1.327 . S
C2455 C2459 1.429 . S
C2456 C2439 1.574 . S
C2456 H2450 0.949 . S
C2456 C2460 1.368 . S
C2457 C2438 1.429 . S
C2457 C2451 1.429 . S
C2457 C2458 1.523 . S
C2458 C2439 1.368 . S
C2458 C2452 1.368 . S
C2458 C2457 1.523 . S
C2459 C2443 1.429 . S
C2459 C2455 1.429 . S
C2459 C2460 1.523 . S
C2460 C2444 1.368 . S
C2460 C2456 1.368 . S
C2460 C2459 1.523 . S
H2461 C2436 0.950 . S
H2462 C2438 0.950 . S
H2463 C2439 0.949 . S
H2464 C2441 0.950 . S
H2465 C2443 0.950 . S
C2466 C2467 1.349 . S
C2466 C2468 1.327 . S
C2466 H2491 0.950 . S
C2467 C2466 1.349 . S
C2467 C2483 1.349 . S
C2468 C2466 1.327 . S
C2468 C2487 1.429 . S
C2468 H2492 0.950 . S
C2469 C2486 1.574 . S
C2469 C2488 1.368 . S
C2469 H2493 0.949 . S
H2470 C2474 0.949 . S
C2471 C2472 1.349 . S
C2471 C2473 1.327 . S
C2471 H2494 0.950 . S
C2472 C2471 1.349 . S
C2472 C2484 1.349 . S
C2473 C2471 1.327 . S
C2473 C2489 1.429 . S
C2473 H2495 0.950 . S
C2474 H2470 0.949 . S
C2474 C2482 1.574 . S
C2474 C2490 1.368 . S
H2475 C2483 0.950 . S
H2476 C2481 0.950 . S
H2477 C2482 0.949 . S
H2478 C2484 0.950 . S
H2479 C2485 0.950 . S
H2480 C2486 0.949 . S
C2481 H2476 0.950 . S
C2481 C2483 1.327 . S
C2481 C2487 1.429 . S
C2482 C2474 1.574 . S
C2482 H2477 0.949 . S
C2482 C2488 1.368 . S
C2483 C2467 1.349 . S
C2483 H2475 0.950 . S
C2483 C2481 1.327 . S
C2484 C2472 1.349 . S
C2484 H2478 0.950 . S
C2484 C2485 1.327 . S
C2485 H2479 0.950 . S
C2485 C2484 1.327 . S
C2485 C2489 1.429 . S
C2486 C2469 1.574 . S
C2486 H2480 0.949 . S
C2486 C2490 1.368 . S
C2487 C2468 1.429 . S
C2487 C2481 1.429 . S
C2487 C2488 1.523 . S
C2488 C2469 1.368 . S
C2488 C2482 1.368 . S
C2488 C2487 1.523 . S
C2489 C2473 1.429 . S
C2489 C2485 1.429 . S
C2489 C2490 1.523 . S
C2490 C2474 1.368 . S
C2490 C2486 1.368 . S
C2490 C2489 1.523 . S
H2491 C2466 0.950 . S
H2492 C2468 0.950 . S
H2493 C2469 0.949 . S
H2494 C2471 0.950 . S
H2495 C2473 0.950 . S
C2496 C2497 1.349 . S
C2496 C2498 1.327 . S
C2496 H2521 0.950 . S
C2497 C2496 1.349 . S
C2497 C2513 1.349 . S
C2498 C2496 1.327 . S
C2498 C2517 1.429 . S
C2498 H2522 0.950 . S
C2499 C2516 1.574 1_554 S
C2499 C2518 1.368 . S
C2499 H2523 0.949 . S
H2500 C2504 0.949 . S
C2501 C2502 1.349 . S
C2501 C2503 1.327 . S
C2501 H2524 0.950 . S
C2502 C2501 1.349 . S
C2502 C2514 1.349 . S
C2503 C2501 1.327 . S
C2503 C2519 1.429 . S
C2503 H2525 0.950 . S
C2504 H2500 0.949 . S
C2504 C2512 1.574 1_556 S
C2504 C2520 1.368 . S
H2505 C2513 0.950 . S
H2506 C2511 0.950 . S
H2507 C2512 0.949 . S
H2508 C2514 0.950 . S
H2509 C2515 0.950 . S
H2510 C2516 0.949 . S
C2511 H2506 0.950 . S
C2511 C2513 1.327 . S
C2511 C2517 1.429 . S
C2512 C2504 1.574 1_554 S
C2512 H2507 0.949 . S
C2512 C2518 1.368 . S
C2513 C2497 1.349 . S
C2513 H2505 0.950 . S
C2513 C2511 1.327 . S
C2514 C2502 1.349 . S
C2514 H2508 0.950 . S
C2514 C2515 1.327 . S
C2515 H2509 0.950 . S
C2515 C2514 1.327 . S
C2515 C2519 1.429 . S
C2516 C2499 1.574 1_556 S
C2516 H2510 0.949 . S
C2516 C2520 1.368 . S
C2517 C2498 1.429 . S
C2517 C2511 1.429 . S
C2517 C2518 1.523 . S
C2518 C2499 1.368 . S
C2518 C2512 1.368 . S
C2518 C2517 1.523 . S
C2519 C2503 1.429 . S
C2519 C2515 1.429 . S
C2519 C2520 1.523 . S
C2520 C2504 1.368 . S
C2520 C2516 1.368 . S
C2520 C2519 1.523 . S
H2521 C2496 0.950 . S
H2522 C2498 0.950 . S
H2523 C2499 0.949 . S
H2524 C2501 0.950 . S
H2525 C2503 0.950 . S
C2526 C2527 1.349 . S
C2526 C2528 1.327 . S
C2526 H2551 0.950 . S
C2527 C2526 1.349 . S
C2527 C2543 1.349 . S
C2528 C2526 1.327 . S
C2528 C2547 1.429 . S
C2528 H2552 0.950 . S
C2529 C2546 1.574 . S
C2529 C2548 1.368 1_545 S
C2529 H2553 0.949 . S
H2530 C2534 0.949 . S
C2531 C2532 1.349 . S
C2531 C2533 1.327 . S
C2531 H2554 0.950 . S
C2532 C2531 1.349 . S
C2532 C2544 1.349 . S
C2533 C2531 1.327 . S
C2533 C2549 1.429 . S
C2533 H2555 0.950 . S
C2534 H2530 0.949 . S
C2534 C2542 1.574 . S
C2534 C2550 1.368 1_565 S
H2535 C2543 0.950 1_545 S
H2536 C2541 1.002 . S
H2537 C2542 0.949 . S
H2538 C2544 0.950 1_565 S
H2539 C2545 1.002 . S
H2540 C2546 0.949 . S
C2541 H2536 1.002 . S
C2541 C2543 1.312 1_545 S
C2541 C2547 1.396 1_545 S
C2542 C2534 1.574 . S
C2542 H2537 0.949 . S
C2542 C2548 1.368 . S
C2543 C2527 1.349 . S
C2543 H2535 0.950 1_565 S
C2543 C2541 1.312 1_565 S
C2544 C2532 1.349 . S
C2544 H2538 0.950 1_545 S
C2544 C2545 1.312 1_545 S
C2545 H2539 1.002 . S
C2545 C2544 1.312 1_565 S
C2545 C2549 1.396 1_565 S
C2546 C2529 1.574 . S
C2546 H2540 0.949 . S
C2546 C2550 1.368 . S
C2547 C2528 1.429 . S
C2547 C2541 1.396 1_565 S
C2547 C2548 1.523 . S
C2548 C2529 1.368 1_565 S
C2548 C2542 1.368 . S
C2548 C2547 1.523 . S
C2549 C2533 1.429 . S
C2549 C2545 1.396 1_545 S
C2549 C2550 1.523 . S
C2550 C2534 1.368 1_545 S
C2550 C2546 1.368 . S
C2550 C2549 1.523 . S
H2551 C2526 0.950 . S
H2552 C2528 0.950 . S
H2553 C2529 0.949 . S
H2554 C2531 0.950 . S
H2555 C2533 0.950 . S
C2556 C2557 1.349 . S
C2556 C2558 1.327 . S
C2556 H2581 0.950 . S
C2557 C2556 1.349 . S
C2557 C2573 1.349 . S
C2558 C2556 1.327 . S
C2558 C2577 1.429 . S
C2558 H2582 0.950 . S
C2559 C2576 1.574 . S
C2559 C2578 1.368 . S
C2559 H2583 0.949 . S
H2560 C2564 0.949 . S
C2561 C2562 1.349 . S
C2561 C2563 1.327 . S
C2561 H2584 0.950 . S
C2562 C2561 1.349 . S
C2562 C2574 1.349 . S
C2563 C2561 1.327 . S
C2563 C2579 1.429 . S
C2563 H2585 0.950 . S
C2564 H2560 0.949 . S
C2564 C2572 1.574 . S
C2564 C2580 1.368 . S
H2565 C2573 0.950 . S
H2566 C2571 0.950 . S
H2567 C2572 0.949 . S
H2568 C2574 0.950 . S
H2569 C2575 0.950 . S
H2570 C2576 0.949 . S
C2571 H2566 0.950 . S
C2571 C2573 1.327 . S
C2571 C2577 1.429 . S
C2572 C2564 1.574 . S
C2572 H2567 0.949 . S
C2572 C2578 1.368 . S
C2573 C2557 1.349 . S
C2573 H2565 0.950 . S
C2573 C2571 1.327 . S
C2574 C2562 1.349 . S
C2574 H2568 0.950 . S
C2574 C2575 1.327 . S
C2575 H2569 0.950 . S
C2575 C2574 1.327 . S
C2575 C2579 1.429 . S
C2576 C2559 1.574 . S
C2576 H2570 0.949 . S
C2576 C2580 1.368 . S
C2577 C2558 1.429 . S
C2577 C2571 1.429 . S
C2577 C2578 1.523 . S
C2578 C2559 1.368 . S
C2578 C2572 1.368 . S
C2578 C2577 1.523 . S
C2579 C2563 1.429 . S
C2579 C2575 1.429 . S
C2579 C2580 1.523 . S
C2580 C2564 1.368 . S
C2580 C2576 1.368 . S
C2580 C2579 1.523 . S
H2581 C2556 0.950 . S
H2582 C2558 0.950 . S
H2583 C2559 0.949 . S
H2584 C2561 0.950 . S
H2585 C2563 0.950 . S
C2586 C2587 1.349 . S
C2586 C2588 1.327 . S
C2586 H2611 0.950 . S
C2587 C2586 1.349 . S
C2587 C2603 1.349 . S
C2588 C2586 1.327 . S
C2588 C2607 1.429 . S
C2588 H2612 0.950 . S
C2589 C2606 1.574 . S
C2589 C2608 1.368 1_545 S
C2589 H2613 0.949 . S
H2590 C2594 0.949 . S
C2591 C2592 1.349 . S
C2591 C2593 1.327 . S
C2591 H2614 0.950 . S
C2592 C2591 1.349 . S
C2592 C2604 1.349 . S
C2593 C2591 1.327 . S
C2593 C2609 1.429 . S
C2593 H2615 0.950 . S
C2594 H2590 0.949 . S
C2594 C2602 1.574 . S
C2594 C2610 1.368 1_565 S
H2595 C2603 0.951 . S
H2596 C2601 0.950 1_545 S
H2597 C2602 0.949 . S
H2598 C2604 0.951 . S
H2599 C2605 0.950 1_565 S
H2600 C2606 0.949 . S
C2601 H2596 0.950 1_565 S
C2601 C2603 1.327 . S
C2601 C2607 1.429 . S
C2602 C2594 1.574 . S
C2602 H2597 0.949 . S
C2602 C2608 1.368 . S
C2603 C2587 1.349 . S
C2603 H2595 0.951 . S
C2603 C2601 1.327 . S
C2604 C2592 1.349 . S
C2604 H2598 0.951 . S
C2604 C2605 1.327 . S
C2605 H2599 0.950 1_545 S
C2605 C2604 1.327 . S
C2605 C2609 1.429 . S
C2606 C2589 1.574 . S
C2606 H2600 0.949 . S
C2606 C2610 1.368 . S
C2607 C2588 1.429 . S
C2607 C2601 1.429 . S
C2607 C2608 1.523 . S
C2608 C2589 1.368 1_565 S
C2608 C2602 1.368 . S
C2608 C2607 1.523 . S
C2609 C2593 1.429 . S
C2609 C2605 1.429 . S
C2609 C2610 1.523 . S
C2610 C2594 1.368 1_545 S
C2610 C2606 1.368 . S
C2610 C2609 1.523 . S
H2611 C2586 0.950 . S
H2612 C2588 0.950 . S
H2613 C2589 0.949 . S
H2614 C2591 0.950 . S
H2615 C2593 0.950 . S
C2616 C2617 1.349 . S
C2616 C2618 1.327 . S
C2616 H2641 0.950 . S
C2617 C2616 1.349 . S
C2617 C2633 1.349 . S
C2618 C2616 1.327 . S
C2618 C2637 1.429 . S
C2618 H2642 0.950 . S
C2619 C2636 1.574 1_554 S
C2619 C2638 1.368 . S
C2619 H2643 0.949 . S
H2620 C2624 0.949 . S
C2621 C2622 1.349 . S
C2621 C2623 1.327 . S
C2621 H2644 0.950 . S
C2622 C2621 1.349 . S
C2622 C2634 1.349 . S
C2623 C2621 1.327 . S
C2623 C2639 1.429 . S
C2623 H2645 0.950 . S
C2624 H2620 0.949 . S
C2624 C2632 1.574 1_556 S
C2624 C2640 1.368 . S
H2625 C2633 0.950 . S
H2626 C2631 0.950 . S
H2627 C2632 0.949 . S
H2628 C2634 0.950 . S
H2629 C2635 0.950 . S
H2630 C2636 0.949 . S
C2631 H2626 0.950 . S
C2631 C2633 1.327 . S
C2631 C2637 1.429 . S
C2632 C2624 1.574 1_554 S
C2632 H2627 0.949 . S
C2632 C2638 1.368 . S
C2633 C2617 1.349 . S
C2633 H2625 0.950 . S
C2633 C2631 1.327 . S
C2634 C2622 1.349 . S
C2634 H2628 0.950 . S
C2634 C2635 1.327 . S
C2635 H2629 0.950 . S
C2635 C2634 1.327 . S
C2635 C2639 1.429 . S
C2636 C2619 1.574 1_556 S
C2636 H2630 0.949 . S
C2636 C2640 1.368 . S
C2637 C2618 1.429 . S
C2637 C2631 1.429 . S
C2637 C2638 1.523 . S
C2638 C2619 1.368 . S
C2638 C2632 1.368 . S
C2638 C2637 1.523 . S
C2639 C2623 1.429 . S
C2639 C2635 1.429 . S
C2639 C2640 1.523 . S
C2640 C2624 1.368 . S
C2640 C2636 1.368 . S
C2640 C2639 1.523 . S
H2641 C2616 0.950 . S
H2642 C2618 0.950 . S
H2643 C2619 0.949 . S
H2644 C2621 0.950 . S
H2645 C2623 0.950 . S
C2646 C2647 1.349 . S
C2646 C2648 1.327 1_545 S
C2646 H2671 0.950 1_545 S
C2647 C2646 1.349 . S
C2647 C2663 1.349 . S
C2648 C2646 1.327 1_565 S
C2648 C2667 1.429 1_565 S
C2648 H2672 0.950 . S
C2649 C2666 1.574 . S
C2649 C2668 1.368 . S
C2649 H2673 0.949 . S
H2650 C2654 0.949 . S
C2651 C2652 1.349 . S
C2651 C2653 1.327 1_565 S
C2651 H2674 0.950 1_565 S
C2652 C2651 1.349 . S
C2652 C2664 1.349 . S
C2653 C2651 1.327 1_545 S
C2653 C2669 1.429 1_545 S
C2653 H2675 0.950 . S
C2654 H2650 0.949 . S
C2654 C2662 1.574 . S
C2654 C2670 1.368 . S
H2655 C2663 0.950 . S
H2656 C2661 0.950 . S
H2657 C2662 0.949 . S
H2658 C2664 0.950 . S
H2659 C2665 0.950 . S
H2660 C2666 0.949 . S
C2661 H2656 0.950 . S
C2661 C2663 1.327 . S
C2661 C2667 1.429 . S
C2662 C2654 1.574 . S
C2662 H2657 0.949 . S
C2662 C2668 1.368 1_565 S
C2663 C2647 1.349 . S
C2663 H2655 0.950 . S
C2663 C2661 1.327 . S
C2664 C2652 1.349 . S
C2664 H2658 0.950 . S
C2664 C2665 1.327 . S
C2665 H2659 0.950 . S
C2665 C2664 1.327 . S
C2665 C2669 1.429 . S
C2666 C2649 1.574 . S
C2666 H2660 0.949 . S
C2666 C2670 1.368 1_545 S
C2667 C2648 1.429 1_545 S
C2667 C2661 1.429 . S
C2667 C2668 1.523 . S
C2668 C2649 1.368 . S
C2668 C2662 1.368 1_545 S
C2668 C2667 1.523 . S
C2669 C2653 1.429 1_565 S
C2669 C2665 1.429 . S
C2669 C2670 1.523 . S
C2670 C2654 1.368 . S
C2670 C2666 1.368 1_565 S
C2670 C2669 1.523 . S
H2671 C2646 0.950 1_565 S
H2672 C2648 0.950 . S
H2673 C2649 0.949 . S
H2674 C2651 0.950 1_545 S
H2675 C2653 0.950 . S
C2676 C2677 1.349 . S
C2676 C2678 1.327 . S
C2676 H2701 0.950 . S
C2677 C2676 1.349 . S
C2677 C2693 1.349 . S
C2678 C2676 1.327 . S
C2678 C2697 1.429 . S
C2678 H2702 0.950 . S
C2679 C2696 1.574 . S
C2679 C2698 1.368 . S
C2679 H2703 0.949 . S
H2680 C2684 0.949 . S
C2681 C2682 1.349 . S
C2681 C2683 1.327 . S
C2681 H2704 0.950 . S
C2682 C2681 1.349 . S
C2682 C2694 1.349 . S
C2683 C2681 1.327 . S
C2683 C2699 1.429 . S
C2683 H2705 0.950 . S
C2684 H2680 0.949 . S
C2684 C2692 1.574 . S
C2684 C2700 1.368 . S
H2685 C2693 0.950 . S
H2686 C2691 0.950 . S
H2687 C2692 0.949 . S
H2688 C2694 0.950 . S
H2689 C2695 0.950 . S
H2690 C2696 0.949 . S
C2691 H2686 0.950 . S
C2691 C2693 1.327 . S
C2691 C2697 1.429 . S
C2692 C2684 1.574 . S
C2692 H2687 0.949 . S
C2692 C2698 1.368 . S
C2693 C2677 1.349 . S
C2693 H2685 0.950 . S
C2693 C2691 1.327 . S
C2694 C2682 1.349 . S
C2694 H2688 0.950 . S
C2694 C2695 1.327 . S
C2695 H2689 0.950 . S
C2695 C2694 1.327 . S
C2695 C2699 1.429 . S
C2696 C2679 1.574 . S
C2696 H2690 0.949 . S
C2696 C2700 1.368 . S
C2697 C2678 1.429 . S
C2697 C2691 1.429 . S
C2697 C2698 1.523 . S
C2698 C2679 1.368 . S
C2698 C2692 1.368 . S
C2698 C2697 1.523 . S
C2699 C2683 1.429 . S
C2699 C2695 1.429 . S
C2699 C2700 1.523 . S
C2700 C2684 1.368 . S
C2700 C2696 1.368 . S
C2700 C2699 1.523 . S
H2701 C2676 0.950 . S
H2702 C2678 0.950 . S
H2703 C2679 0.949 . S
H2704 C2681 0.950 . S
H2705 C2683 0.950 . S
C2706 C2707 1.349 . S
C2706 C2708 1.327 . S
C2706 H2731 0.950 . S
C2707 C2706 1.349 . S
C2707 C2723 1.349 . S
C2708 C2706 1.327 . S
C2708 C2727 1.429 . S
C2708 H2732 0.950 . S
C2709 C2726 1.574 . S
C2709 C2728 1.368 1_545 S
C2709 H2733 0.949 . S
H2710 C2714 0.949 . S
C2711 C2712 1.349 . S
C2711 C2713 1.327 . S
C2711 H2734 0.950 . S
C2712 C2711 1.349 . S
C2712 C2724 1.349 . S
C2713 C2711 1.327 . S
C2713 C2729 1.429 . S
C2713 H2735 0.950 . S
C2714 H2710 0.949 . S
C2714 C2722 1.574 . S
C2714 C2730 1.368 1_565 S
H2715 C2723 0.950 1_545 S
H2716 C2721 0.951 1_545 S
H2717 C2722 0.949 . S
H2718 C2724 0.950 1_565 S
H2719 C2725 0.951 1_565 S
H2720 C2726 0.949 . S
C2721 H2716 0.951 1_565 S
C2721 C2723 1.327 . S
C2721 C2727 1.428 . S
C2722 C2714 1.574 . S
C2722 H2717 0.949 . S
C2722 C2728 1.368 . S
C2723 C2707 1.349 . S
C2723 H2715 0.950 1_565 S
C2723 C2721 1.327 . S
C2724 C2712 1.349 . S
C2724 H2718 0.950 1_545 S
C2724 C2725 1.327 . S
C2725 H2719 0.951 1_545 S
C2725 C2724 1.327 . S
C2725 C2729 1.428 . S
C2726 C2709 1.574 . S
C2726 H2720 0.949 . S
C2726 C2730 1.368 . S
C2727 C2708 1.429 . S
C2727 C2721 1.428 . S
C2727 C2728 1.523 . S
C2728 C2709 1.368 1_565 S
C2728 C2722 1.368 . S
C2728 C2727 1.523 . S
C2729 C2713 1.429 . S
C2729 C2725 1.428 . S
C2729 C2730 1.523 . S
C2730 C2714 1.368 1_545 S
C2730 C2726 1.368 . S
C2730 C2729 1.523 . S
H2731 C2706 0.950 . S
H2732 C2708 0.950 . S
H2733 C2709 0.949 . S
H2734 C2711 0.950 . S
H2735 C2713 0.950 . S
C2736 C2737 1.349 . S
C2736 C2738 1.327 . S
C2736 H2761 0.950 . S
C2737 C2736 1.349 . S
C2737 C2753 1.349 . S
C2738 C2736 1.327 . S
C2738 C2757 1.429 . S
C2738 H2762 0.950 . S
C2739 C2756 1.574 . S
C2739 C2758 1.368 . S
C2739 H2763 0.949 . S
H2740 C2744 0.949 . S
C2741 C2742 1.349 . S
C2741 C2743 1.327 . S
C2741 H2764 0.950 . S
C2742 C2741 1.349 . S
C2742 C2754 1.349 . S
C2743 C2741 1.327 . S
C2743 C2759 1.429 . S
C2743 H2765 0.950 . S
C2744 H2740 0.949 . S
C2744 C2752 1.574 . S
C2744 C2760 1.368 . S
H2745 C2753 0.950 . S
H2746 C2751 0.950 . S
H2747 C2752 0.949 . S
H2748 C2754 0.950 . S
H2749 C2755 0.950 . S
H2750 C2756 0.949 . S
C2751 H2746 0.950 . S
C2751 C2753 1.327 . S
C2751 C2757 1.429 . S
C2752 C2744 1.574 . S
C2752 H2747 0.949 . S
C2752 C2758 1.368 . S
C2753 C2737 1.349 . S
C2753 H2745 0.950 . S
C2753 C2751 1.327 . S
C2754 C2742 1.349 . S
C2754 H2748 0.950 . S
C2754 C2755 1.327 . S
C2755 H2749 0.950 . S
C2755 C2754 1.327 . S
C2755 C2759 1.429 . S
C2756 C2739 1.574 . S
C2756 H2750 0.949 . S
C2756 C2760 1.368 . S
C2757 C2738 1.429 . S
C2757 C2751 1.429 . S
C2757 C2758 1.523 . S
C2758 C2739 1.368 . S
C2758 C2752 1.368 . S
C2758 C2757 1.523 . S
C2759 C2743 1.429 . S
C2759 C2755 1.429 . S
C2759 C2760 1.523 . S
C2760 C2744 1.368 . S
C2760 C2756 1.368 . S
C2760 C2759 1.523 . S
H2761 C2736 0.950 . S
H2762 C2738 0.950 . S
H2763 C2739 0.949 . S
H2764 C2741 0.950 . S
H2765 C2743 0.950 . S
C2766 C2767 1.349 . S
C2766 C2768 1.327 . S
C2766 H2791 0.950 . S
C2767 C2766 1.349 . S
C2767 C2783 1.349 . S
C2768 C2766 1.327 . S
C2768 C2787 1.429 . S
C2768 H2792 0.950 . S
C2769 C2786 1.574 . S
C2769 C2788 1.368 . S
C2769 H2793 0.949 . S
H2770 C2774 0.949 . S
C2771 C2772 1.349 . S
C2771 C2773 1.327 . S
C2771 H2794 0.950 . S
C2772 C2771 1.349 . S
C2772 C2784 1.349 . S
C2773 C2771 1.327 . S
C2773 C2789 1.429 . S
C2773 H2795 0.950 . S
C2774 H2770 0.949 . S
C2774 C2782 1.574 . S
C2774 C2790 1.368 . S
H2775 C2783 0.950 . S
H2776 C2781 0.950 . S
H2777 C2782 0.949 . S
H2778 C2784 0.950 . S
H2779 C2785 0.950 . S
H2780 C2786 0.949 . S
C2781 H2776 0.950 . S
C2781 C2783 1.327 . S
C2781 C2787 1.429 . S
C2782 C2774 1.574 . S
C2782 H2777 0.949 . S
C2782 C2788 1.368 . S
C2783 C2767 1.349 . S
C2783 H2775 0.950 . S
C2783 C2781 1.327 . S
C2784 C2772 1.349 . S
C2784 H2778 0.950 . S
C2784 C2785 1.327 . S
C2785 H2779 0.950 . S
C2785 C2784 1.327 . S
C2785 C2789 1.429 . S
C2786 C2769 1.574 . S
C2786 H2780 0.949 . S
C2786 C2790 1.368 . S
C2787 C2768 1.429 . S
C2787 C2781 1.429 . S
C2787 C2788 1.523 . S
C2788 C2769 1.368 . S
C2788 C2782 1.368 . S
C2788 C2787 1.523 . S
C2789 C2773 1.429 . S
C2789 C2785 1.429 . S
C2789 C2790 1.523 . S
C2790 C2774 1.368 . S
C2790 C2786 1.368 . S
C2790 C2789 1.523 . S
H2791 C2766 0.950 . S
H2792 C2768 0.950 . S
H2793 C2769 0.949 . S
H2794 C2771 0.950 . S
H2795 C2773 0.950 . S
C2796 C2797 1.349 . S
C2796 C2798 1.327 . S
C2796 H2821 0.950 . S
C2797 C2796 1.349 . S
C2797 C2813 1.349 . S
C2798 C2796 1.327 . S
C2798 C2817 1.429 . S
C2798 H2822 0.950 . S
C2799 C2816 1.574 1_554 S
C2799 C2818 1.368 . S
C2799 H2823 0.949 . S
H2800 C2804 0.949 . S
C2801 C2802 1.349 . S
C2801 C2803 1.327 . S
C2801 H2824 0.950 . S
C2802 C2801 1.349 . S
C2802 C2814 1.349 . S
C2803 C2801 1.327 . S
C2803 C2819 1.429 . S
C2803 H2825 0.950 . S
C2804 H2800 0.949 . S
C2804 C2812 1.574 1_556 S
C2804 C2820 1.368 . S
H2805 C2813 0.950 . S
H2806 C2811 0.950 . S
H2807 C2812 0.949 . S
H2808 C2814 0.950 . S
H2809 C2815 0.950 . S
H2810 C2816 0.949 . S
C2811 H2806 0.950 . S
C2811 C2813 1.327 . S
C2811 C2817 1.429 . S
C2812 C2804 1.574 1_554 S
C2812 H2807 0.949 . S
C2812 C2818 1.368 . S
C2813 C2797 1.349 . S
C2813 H2805 0.950 . S
C2813 C2811 1.327 . S
C2814 C2802 1.349 . S
C2814 H2808 0.950 . S
C2814 C2815 1.327 . S
C2815 H2809 0.950 . S
C2815 C2814 1.327 . S
C2815 C2819 1.429 . S
C2816 C2799 1.574 1_556 S
C2816 H2810 0.949 . S
C2816 C2820 1.368 . S
C2817 C2798 1.429 . S
C2817 C2811 1.429 . S
C2817 C2818 1.523 . S
C2818 C2799 1.368 . S
C2818 C2812 1.368 . S
C2818 C2817 1.523 . S
C2819 C2803 1.429 . S
C2819 C2815 1.429 . S
C2819 C2820 1.523 . S
C2820 C2804 1.368 . S
C2820 C2816 1.368 . S
C2820 C2819 1.523 . S
H2821 C2796 0.950 . S
H2822 C2798 0.950 . S
H2823 C2799 0.949 . S
H2824 C2801 0.950 . S
H2825 C2803 0.950 . S
C2826 C2827 1.349 . S
C2826 C2828 1.327 . S
C2826 H2851 0.950 . S
C2827 C2826 1.349 . S
C2827 C2843 1.349 . S
C2828 C2826 1.327 . S
C2828 C2847 1.429 . S
C2828 H2852 0.950 . S
C2829 C2846 1.574 . S
C2829 C2848 1.368 . S
C2829 H2853 0.949 . S
H2830 C2834 0.949 . S
C2831 C2832 1.349 . S
C2831 C2833 1.327 . S
C2831 H2854 0.950 . S
C2832 C2831 1.349 . S
C2832 C2844 1.349 . S
C2833 C2831 1.327 . S
C2833 C2849 1.429 . S
C2833 H2855 0.950 . S
C2834 H2830 0.949 . S
C2834 C2842 1.574 . S
C2834 C2850 1.368 . S
H2835 C2843 0.950 . S
H2836 C2841 0.950 . S
H2837 C2842 0.949 . S
H2838 C2844 0.950 . S
H2839 C2845 0.950 . S
H2840 C2846 0.949 . S
C2841 H2836 0.950 . S
C2841 C2843 1.327 . S
C2841 C2847 1.429 . S
C2842 C2834 1.574 . S
C2842 H2837 0.949 . S
C2842 C2848 1.368 . S
C2843 C2827 1.349 . S
C2843 H2835 0.950 . S
C2843 C2841 1.327 . S
C2844 C2832 1.349 . S
C2844 H2838 0.950 . S
C2844 C2845 1.327 . S
C2845 H2839 0.950 . S
C2845 C2844 1.327 . S
C2845 C2849 1.429 . S
C2846 C2829 1.574 . S
C2846 H2840 0.949 . S
C2846 C2850 1.368 . S
C2847 C2828 1.429 . S
C2847 C2841 1.429 . S
C2847 C2848 1.523 . S
C2848 C2829 1.368 . S
C2848 C2842 1.368 . S
C2848 C2847 1.523 . S
C2849 C2833 1.429 . S
C2849 C2845 1.429 . S
C2849 C2850 1.523 . S
C2850 C2834 1.368 . S
C2850 C2846 1.368 . S
C2850 C2849 1.523 . S
H2851 C2826 0.950 . S
H2852 C2828 0.950 . S
H2853 C2829 0.949 . S
H2854 C2831 0.950 . S
H2855 C2833 0.950 . S
C2856 C2857 1.349 . S
C2856 C2858 1.327 . S
C2856 H2881 0.950 . S
C2857 C2856 1.349 . S
C2857 C2873 1.349 . S
C2858 C2856 1.327 . S
C2858 C2877 1.429 . S
C2858 H2882 0.950 . S
C2859 C2876 1.574 . S
C2859 C2878 1.368 . S
C2859 H2883 0.949 . S
H2860 C2864 0.949 . S
C2861 C2862 1.349 . S
C2861 C2863 1.327 . S
C2861 H2884 0.950 . S
C2862 C2861 1.349 . S
C2862 C2874 1.349 . S
C2863 C2861 1.327 . S
C2863 C2879 1.429 . S
C2863 H2885 0.950 . S
C2864 H2860 0.949 . S
C2864 C2872 1.574 . S
C2864 C2880 1.368 . S
H2865 C2873 0.950 . S
H2866 C2871 0.950 . S
H2867 C2872 0.949 . S
H2868 C2874 0.950 . S
H2869 C2875 0.950 . S
H2870 C2876 0.949 . S
C2871 H2866 0.950 . S
C2871 C2873 1.327 . S
C2871 C2877 1.429 . S
C2872 C2864 1.574 . S
C2872 H2867 0.949 . S
C2872 C2878 1.368 . S
C2873 C2857 1.349 . S
C2873 H2865 0.950 . S
C2873 C2871 1.327 . S
C2874 C2862 1.349 . S
C2874 H2868 0.950 . S
C2874 C2875 1.327 . S
C2875 H2869 0.950 . S
C2875 C2874 1.327 . S
C2875 C2879 1.429 . S
C2876 C2859 1.574 . S
C2876 H2870 0.949 . S
C2876 C2880 1.368 . S
C2877 C2858 1.429 . S
C2877 C2871 1.429 . S
C2877 C2878 1.523 . S
C2878 C2859 1.368 . S
C2878 C2872 1.368 . S
C2878 C2877 1.523 . S
C2879 C2863 1.429 . S
C2879 C2875 1.429 . S
C2879 C2880 1.523 . S
C2880 C2864 1.368 . S
C2880 C2876 1.368 . S
C2880 C2879 1.523 . S
H2881 C2856 0.950 . S
H2882 C2858 0.950 . S
H2883 C2859 0.949 . S
H2884 C2861 0.950 . S
H2885 C2863 0.950 . S
C2886 C2887 1.349 . S
C2886 C2888 1.327 . S
C2886 H2911 0.950 . S
C2887 C2886 1.349 . S
C2887 C2903 1.349 . S
C2888 C2886 1.327 . S
C2888 C2907 1.429 . S
C2888 H2912 0.950 . S
C2889 C2906 1.574 . S
C2889 C2908 1.368 . S
C2889 H2913 0.949 . S
H2890 C2894 0.949 . S
C2891 C2892 1.349 . S
C2891 C2893 1.327 . S
C2891 H2914 0.950 . S
C2892 C2891 1.349 . S
C2892 C2904 1.349 . S
C2893 C2891 1.327 . S
C2893 C2909 1.429 . S
C2893 H2915 0.950 . S
C2894 H2890 0.949 . S
C2894 C2902 1.574 . S
C2894 C2910 1.368 . S
H2895 C2903 0.950 . S
H2896 C2901 0.950 . S
H2897 C2902 0.949 . S
H2898 C2904 0.950 . S
H2899 C2905 0.950 . S
H2900 C2906 0.949 . S
C2901 H2896 0.950 . S
C2901 C2903 1.327 . S
C2901 C2907 1.429 . S
C2902 C2894 1.574 . S
C2902 H2897 0.949 . S
C2902 C2908 1.368 . S
C2903 C2887 1.349 . S
C2903 H2895 0.950 . S
C2903 C2901 1.327 . S
C2904 C2892 1.349 . S
C2904 H2898 0.950 . S
C2904 C2905 1.327 . S
C2905 H2899 0.950 . S
C2905 C2904 1.327 . S
C2905 C2909 1.429 . S
C2906 C2889 1.574 . S
C2906 H2900 0.949 . S
C2906 C2910 1.368 . S
C2907 C2888 1.429 . S
C2907 C2901 1.429 . S
C2907 C2908 1.523 . S
C2908 C2889 1.368 . S
C2908 C2902 1.368 . S
C2908 C2907 1.523 . S
C2909 C2893 1.429 . S
C2909 C2905 1.429 . S
C2909 C2910 1.523 . S
C2910 C2894 1.368 . S
C2910 C2906 1.368 . S
C2910 C2909 1.523 . S
H2911 C2886 0.950 . S
H2912 C2888 0.950 . S
H2913 C2889 0.949 . S
H2914 C2891 0.950 . S
H2915 C2893 0.950 . S
C2916 C2917 1.349 . S
C2916 C2918 1.327 . S
C2916 H2941 0.950 . S
C2917 C2916 1.349 . S
C2917 C2933 1.349 . S
C2918 C2916 1.327 . S
C2918 C2937 1.429 . S
C2918 H2942 0.950 . S
C2919 C2936 1.574 1_556 S
C2919 C2938 1.368 . S
C2919 H2943 0.949 . S
H2920 C2924 0.949 . S
C2921 C2922 1.349 . S
C2921 C2923 1.327 . S
C2921 H2944 0.950 . S
C2922 C2921 1.349 . S
C2922 C2934 1.349 . S
C2923 C2921 1.327 . S
C2923 C2939 1.429 . S
C2923 H2945 0.950 . S
C2924 H2920 0.949 . S
C2924 C2932 1.574 1_554 S
C2924 C2940 1.368 . S
H2925 C2933 0.950 . S
H2926 C2931 0.950 . S
H2927 C2932 0.949 . S
H2928 C2934 0.950 . S
H2929 C2935 0.950 . S
H2930 C2936 0.949 . S
C2931 H2926 0.950 . S
C2931 C2933 1.327 . S
C2931 C2937 1.429 . S
C2932 C2924 1.574 1_556 S
C2932 H2927 0.949 . S
C2932 C2938 1.368 . S
C2933 C2917 1.349 . S
C2933 H2925 0.950 . S
C2933 C2931 1.327 . S
C2934 C2922 1.349 . S
C2934 H2928 0.950 . S
C2934 C2935 1.327 . S
C2935 H2929 0.950 . S
C2935 C2934 1.327 . S
C2935 C2939 1.429 . S
C2936 C2919 1.574 1_554 S
C2936 H2930 0.949 . S
C2936 C2940 1.368 . S
C2937 C2918 1.429 . S
C2937 C2931 1.429 . S
C2937 C2938 1.523 . S
C2938 C2919 1.368 . S
C2938 C2932 1.368 . S
C2938 C2937 1.523 . S
C2939 C2923 1.429 . S
C2939 C2935 1.429 . S
C2939 C2940 1.523 . S
C2940 C2924 1.368 . S
C2940 C2936 1.368 . S
C2940 C2939 1.523 . S
H2941 C2916 0.950 . S
H2942 C2918 0.950 . S
H2943 C2919 0.949 . S
H2944 C2921 0.950 . S
H2945 C2923 0.950 . S
C2946 C2947 1.349 . S
C2946 C2948 1.327 . S
C2946 H2971 0.950 . S
C2947 C2946 1.349 . S
C2947 C2963 1.349 . S
C2948 C2946 1.327 . S
C2948 C2967 1.429 . S
C2948 H2972 0.950 . S
C2949 C2966 1.574 . S
C2949 C2968 1.368 . S
C2949 H2973 0.949 . S
H2950 C2954 0.949 . S
C2951 C2952 1.349 . S
C2951 C2953 1.327 . S
C2951 H2974 0.950 . S
C2952 C2951 1.349 . S
C2952 C2964 1.349 . S
C2953 C2951 1.327 . S
C2953 C2969 1.429 . S
C2953 H2975 0.950 . S
C2954 H2950 0.949 . S
C2954 C2962 1.574 . S
C2954 C2970 1.368 . S
H2955 C2963 0.950 . S
H2956 C2961 0.950 . S
H2957 C2962 0.949 . S
H2958 C2964 0.950 . S
H2959 C2965 0.950 . S
H2960 C2966 0.949 . S
C2961 H2956 0.950 . S
C2961 C2963 1.327 . S
C2961 C2967 1.429 . S
C2962 C2954 1.574 . S
C2962 H2957 0.949 . S
C2962 C2968 1.368 . S
C2963 C2947 1.349 . S
C2963 H2955 0.950 . S
C2963 C2961 1.327 . S
C2964 C2952 1.349 . S
C2964 H2958 0.950 . S
C2964 C2965 1.327 . S
C2965 H2959 0.950 . S
C2965 C2964 1.327 . S
C2965 C2969 1.429 . S
C2966 C2949 1.574 . S
C2966 H2960 0.949 . S
C2966 C2970 1.368 . S
C2967 C2948 1.429 . S
C2967 C2961 1.429 . S
C2967 C2968 1.523 . S
C2968 C2949 1.368 . S
C2968 C2962 1.368 . S
C2968 C2967 1.523 . S
C2969 C2953 1.429 . S
C2969 C2965 1.429 . S
C2969 C2970 1.523 . S
C2970 C2954 1.368 . S
C2970 C2966 1.368 . S
C2970 C2969 1.523 . S
H2971 C2946 0.950 . S
H2972 C2948 0.950 . S
H2973 C2949 0.949 . S
H2974 C2951 0.950 . S
H2975 C2953 0.950 . S
C2976 C2977 1.349 . S
C2976 C2978 1.327 . S
C2976 H3001 0.950 . S
C2977 C2976 1.349 . S
C2977 C2993 1.349 . S
C2978 C2976 1.327 . S
C2978 C2997 1.429 . S
C2978 H3002 0.950 . S
C2979 C2996 1.574 . S
C2979 C2998 1.368 . S
C2979 H3003 0.949 . S
H2980 C2984 0.949 . S
C2981 C2982 1.349 . S
C2981 C2983 1.327 . S
C2981 H3004 0.950 . S
C2982 C2981 1.349 . S
C2982 C2994 1.349 . S
C2983 C2981 1.327 . S
C2983 C2999 1.429 . S
C2983 H3005 0.950 . S
C2984 H2980 0.949 . S
C2984 C2992 1.574 . S
C2984 C3000 1.368 . S
H2985 C2993 0.950 . S
H2986 C2991 0.950 . S
H2987 C2992 0.949 . S
H2988 C2994 0.950 . S
H2989 C2995 0.950 . S
H2990 C2996 0.949 . S
C2991 H2986 0.950 . S
C2991 C2993 1.327 . S
C2991 C2997 1.429 . S
C2992 C2984 1.574 . S
C2992 H2987 0.949 . S
C2992 C2998 1.368 . S
C2993 C2977 1.349 . S
C2993 H2985 0.950 . S
C2993 C2991 1.327 . S
C2994 C2982 1.349 . S
C2994 H2988 0.950 . S
C2994 C2995 1.327 . S
C2995 H2989 0.950 . S
C2995 C2994 1.327 . S
C2995 C2999 1.429 . S
C2996 C2979 1.574 . S
C2996 H2990 0.949 . S
C2996 C3000 1.368 . S
C2997 C2978 1.429 . S
C2997 C2991 1.429 . S
C2997 C2998 1.523 . S
C2998 C2979 1.368 . S
C2998 C2992 1.368 . S
C2998 C2997 1.523 . S
C2999 C2983 1.429 . S
C2999 C2995 1.429 . S
C2999 C3000 1.523 . S
C3000 C2984 1.368 . S
C3000 C2996 1.368 . S
C3000 C2999 1.523 . S
H3001 C2976 0.950 . S
H3002 C2978 0.950 . S
H3003 C2979 0.949 . S
H3004 C2981 0.950 . S
H3005 C2983 0.950 . S
C3006 C3007 1.349 . S
C3006 C3008 1.327 . S
C3006 H3031 0.950 . S
C3007 C3006 1.349 . S
C3007 C3023 1.349 . S
C3008 C3006 1.327 . S
C3008 C3027 1.429 . S
C3008 H3032 0.950 . S
C3009 C3026 1.574 . S
C3009 C3028 1.368 . S
C3009 H3033 0.949 . S
H3010 C3014 0.949 . S
C3011 C3012 1.349 . S
C3011 C3013 1.327 . S
C3011 H3034 0.950 . S
C3012 C3011 1.349 . S
C3012 C3024 1.349 . S
C3013 C3011 1.327 . S
C3013 C3029 1.429 . S
C3013 H3035 0.950 . S
C3014 H3010 0.949 . S
C3014 C3022 1.574 . S
C3014 C3030 1.368 . S
H3015 C3023 0.950 . S
H3016 C3021 0.950 . S
H3017 C3022 0.949 . S
H3018 C3024 0.950 . S
H3019 C3025 0.950 . S
H3020 C3026 0.949 . S
C3021 H3016 0.950 . S
C3021 C3023 1.327 . S
C3021 C3027 1.429 . S
C3022 C3014 1.574 . S
C3022 H3017 0.949 . S
C3022 C3028 1.368 . S
C3023 C3007 1.349 . S
C3023 H3015 0.950 . S
C3023 C3021 1.327 . S
C3024 C3012 1.349 . S
C3024 H3018 0.950 . S
C3024 C3025 1.327 . S
C3025 H3019 0.950 . S
C3025 C3024 1.327 . S
C3025 C3029 1.429 . S
C3026 C3009 1.574 . S
C3026 H3020 0.949 . S
C3026 C3030 1.368 . S
C3027 C3008 1.429 . S
C3027 C3021 1.429 . S
C3027 C3028 1.523 . S
C3028 C3009 1.368 . S
C3028 C3022 1.368 . S
C3028 C3027 1.523 . S
C3029 C3013 1.429 . S
C3029 C3025 1.429 . S
C3029 C3030 1.523 . S
C3030 C3014 1.368 . S
C3030 C3026 1.368 . S
C3030 C3029 1.523 . S
H3031 C3006 0.950 . S
H3032 C3008 0.950 . S
H3033 C3009 0.949 . S
H3034 C3011 0.950 . S
H3035 C3013 0.950 . S
C3036 C3037 1.349 . S
C3036 C3038 1.327 . S
C3036 H3061 0.950 . S
C3037 C3036 1.349 . S
C3037 C3053 1.349 . S
C3038 C3036 1.327 . S
C3038 C3057 1.429 . S
C3038 H3062 0.950 . S
C3039 C3056 1.574 . S
C3039 C3058 1.368 . S
C3039 H3063 0.949 . S
H3040 C3044 0.949 . S
C3041 C3042 1.349 . S
C3041 C3043 1.327 . S
C3041 H3064 0.950 . S
C3042 C3041 1.349 . S
C3042 C3054 1.349 . S
C3043 C3041 1.327 . S
C3043 C3059 1.429 . S
C3043 H3065 0.950 . S
C3044 H3040 0.949 . S
C3044 C3052 1.574 . S
C3044 C3060 1.368 . S
H3045 C3053 0.950 . S
H3046 C3051 0.950 . S
H3047 C3052 0.949 . S
H3048 C3054 0.950 . S
H3049 C3055 0.950 . S
H3050 C3056 0.949 . S
C3051 H3046 0.950 . S
C3051 C3053 1.327 . S
C3051 C3057 1.429 . S
C3052 C3044 1.574 . S
C3052 H3047 0.949 . S
C3052 C3058 1.368 . S
C3053 C3037 1.349 . S
C3053 H3045 0.950 . S
C3053 C3051 1.327 . S
C3054 C3042 1.349 . S
C3054 H3048 0.950 . S
C3054 C3055 1.327 . S
C3055 H3049 0.950 . S
C3055 C3054 1.327 . S
C3055 C3059 1.429 . S
C3056 C3039 1.574 . S
C3056 H3050 0.949 . S
C3056 C3060 1.368 . S
C3057 C3038 1.429 . S
C3057 C3051 1.429 . S
C3057 C3058 1.523 . S
C3058 C3039 1.368 . S
C3058 C3052 1.368 . S
C3058 C3057 1.523 . S
C3059 C3043 1.429 . S
C3059 C3055 1.429 . S
C3059 C3060 1.523 . S
C3060 C3044 1.368 . S
C3060 C3056 1.368 . S
C3060 C3059 1.523 . S
H3061 C3036 0.950 . S
H3062 C3038 0.950 . S
H3063 C3039 0.949 . S
H3064 C3041 0.950 . S
H3065 C3043 0.950 . S
C3066 C3067 1.349 . S
C3066 C3068 1.327 . S
C3066 H3091 0.950 . S
C3067 C3066 1.349 . S
C3067 C3083 1.349 . S
C3068 C3066 1.327 . S
C3068 C3087 1.429 . S
C3068 H3092 0.950 . S
C3069 C3086 1.574 . S
C3069 C3088 1.368 . S
C3069 H3093 0.949 . S
H3070 C3074 0.949 . S
C3071 C3072 1.349 . S
C3071 C3073 1.327 . S
C3071 H3094 0.950 . S
C3072 C3071 1.349 . S
C3072 C3084 1.349 . S
C3073 C3071 1.327 . S
C3073 C3089 1.429 . S
C3073 H3095 0.950 . S
C3074 H3070 0.949 . S
C3074 C3082 1.574 . S
C3074 C3090 1.368 . S
H3075 C3083 0.950 . S
H3076 C3081 0.950 . S
H3077 C3082 0.949 . S
H3078 C3084 0.950 . S
H3079 C3085 0.950 . S
H3080 C3086 0.949 . S
C3081 H3076 0.950 . S
C3081 C3083 1.327 . S
C3081 C3087 1.429 . S
C3082 C3074 1.574 . S
C3082 H3077 0.949 . S
C3082 C3088 1.368 . S
C3083 C3067 1.349 . S
C3083 H3075 0.950 . S
C3083 C3081 1.327 . S
C3084 C3072 1.349 . S
C3084 H3078 0.950 . S
C3084 C3085 1.327 . S
C3085 H3079 0.950 . S
C3085 C3084 1.327 . S
C3085 C3089 1.429 . S
C3086 C3069 1.574 . S
C3086 H3080 0.949 . S
C3086 C3090 1.368 . S
C3087 C3068 1.429 . S
C3087 C3081 1.429 . S
C3087 C3088 1.523 . S
C3088 C3069 1.368 . S
C3088 C3082 1.368 . S
C3088 C3087 1.523 . S
C3089 C3073 1.429 . S
C3089 C3085 1.429 . S
C3089 C3090 1.523 . S
C3090 C3074 1.368 . S
C3090 C3086 1.368 . S
C3090 C3089 1.523 . S
H3091 C3066 0.950 . S
H3092 C3068 0.950 . S
H3093 C3069 0.949 . S
H3094 C3071 0.950 . S
H3095 C3073 0.950 . S
C3096 C3097 1.349 . S
C3096 C3098 1.327 . S
C3096 H3121 0.950 . S
C3097 C3096 1.349 . S
C3097 C3113 1.349 . S
C3098 C3096 1.327 . S
C3098 C3117 1.429 . S
C3098 H3122 0.950 . S
C3099 C3116 1.574 . S
C3099 C3118 1.368 . S
C3099 H3123 0.949 . S
H3100 C3104 0.949 . S
C3101 C3102 1.349 . S
C3101 C3103 1.327 . S
C3101 H3124 0.950 . S
C3102 C3101 1.349 . S
C3102 C3114 1.349 . S
C3103 C3101 1.327 . S
C3103 C3119 1.429 . S
C3103 H3125 0.950 . S
C3104 H3100 0.949 . S
C3104 C3112 1.574 . S
C3104 C3120 1.368 . S
H3105 C3113 0.950 . S
H3106 C3111 0.950 . S
H3107 C3112 0.949 . S
H3108 C3114 0.950 . S
H3109 C3115 0.950 . S
H3110 C3116 0.949 . S
C3111 H3106 0.950 . S
C3111 C3113 1.327 . S
C3111 C3117 1.429 . S
C3112 C3104 1.574 . S
C3112 H3107 0.949 . S
C3112 C3118 1.368 . S
C3113 C3097 1.349 . S
C3113 H3105 0.950 . S
C3113 C3111 1.327 . S
C3114 C3102 1.349 . S
C3114 H3108 0.950 . S
C3114 C3115 1.327 . S
C3115 H3109 0.950 . S
C3115 C3114 1.327 . S
C3115 C3119 1.429 . S
C3116 C3099 1.574 . S
C3116 H3110 0.949 . S
C3116 C3120 1.368 . S
C3117 C3098 1.429 . S
C3117 C3111 1.429 . S
C3117 C3118 1.523 . S
C3118 C3099 1.368 . S
C3118 C3112 1.368 . S
C3118 C3117 1.523 . S
C3119 C3103 1.429 . S
C3119 C3115 1.429 . S
C3119 C3120 1.523 . S
C3120 C3104 1.368 . S
C3120 C3116 1.368 . S
C3120 C3119 1.523 . S
H3121 C3096 0.950 . S
H3122 C3098 0.950 . S
H3123 C3099 0.949 . S
H3124 C3101 0.950 . S
H3125 C3103 0.950 . S
C3126 C3127 1.349 . S
C3126 C3128 1.327 . S
C3126 H3151 0.950 1_565 S
C3127 C3126 1.349 . S
C3127 C3143 1.349 . S
C3128 C3126 1.327 . S
C3128 C3147 1.429 . S
C3128 H3152 0.950 . S
C3129 C3146 1.574 . S
C3129 C3148 1.368 . S
C3129 H3153 0.949 . S
H3130 C3134 0.949 . S
C3131 C3132 1.349 . S
C3131 C3133 1.327 . S
C3131 H3154 0.950 . S
C3132 C3131 1.349 . S
C3132 C3144 1.349 . S
C3133 C3131 1.327 . S
C3133 C3149 1.429 . S
C3133 H3155 0.950 . S
C3134 H3130 0.949 . S
C3134 C3142 1.574 . S
C3134 C3150 1.368 . S
H3135 C3143 0.950 . S
H3136 C3141 0.950 . S
H3137 C3142 0.949 . S
H3138 C3144 0.950 . S
H3139 C3145 0.950 . S
H3140 C3146 0.949 . S
C3141 H3136 0.950 . S
C3141 C3143 1.327 . S
C3141 C3147 1.429 . S
C3142 C3134 1.574 . S
C3142 H3137 0.949 . S
C3142 C3148 1.368 . S
C3143 C3127 1.349 . S
C3143 H3135 0.950 . S
C3143 C3141 1.327 . S
C3144 C3132 1.349 . S
C3144 H3138 0.950 . S
C3144 C3145 1.327 . S
C3145 H3139 0.950 . S
C3145 C3144 1.327 . S
C3145 C3149 1.429 . S
C3146 C3129 1.574 . S
C3146 H3140 0.949 . S
C3146 C3150 1.368 . S
C3147 C3128 1.429 . S
C3147 C3141 1.429 . S
C3147 C3148 1.523 . S
C3148 C3129 1.368 . S
C3148 C3142 1.368 . S
C3148 C3147 1.523 . S
C3149 C3133 1.429 . S
C3149 C3145 1.429 . S
C3149 C3150 1.523 . S
C3150 C3134 1.368 . S
C3150 C3146 1.368 . S
C3150 C3149 1.523 . S
H3151 C3126 0.950 1_545 S
H3152 C3128 0.950 . S
H3153 C3129 0.949 . S
H3154 C3131 0.950 . S
H3155 C3133 0.950 . S
C3156 C3157 1.349 . S
C3156 C3158 1.327 . S
C3156 H3181 0.950 . S
C3157 C3156 1.349 . S
C3157 C3173 1.349 . S
C3158 C3156 1.327 . S
C3158 C3177 1.429 . S
C3158 H3182 0.950 . S
C3159 C3176 1.574 . S
C3159 C3178 1.368 . S
C3159 H3183 0.949 . S
H3160 C3164 0.949 . S
C3161 C3162 1.349 . S
C3161 C3163 1.327 . S
C3161 H3184 0.950 . S
C3162 C3161 1.349 . S
C3162 C3174 1.349 . S
C3163 C3161 1.327 . S
C3163 C3179 1.429 . S
C3163 H3185 0.950 . S
C3164 H3160 0.949 . S
C3164 C3172 1.574 . S
C3164 C3180 1.368 . S
H3165 C3173 0.950 . S
H3166 C3171 0.950 . S
H3167 C3172 0.949 . S
H3168 C3174 0.950 . S
H3169 C3175 0.950 . S
H3170 C3176 0.949 . S
C3171 H3166 0.950 . S
C3171 C3173 1.327 . S
C3171 C3177 1.429 . S
C3172 C3164 1.574 . S
C3172 H3167 0.949 . S
C3172 C3178 1.368 . S
C3173 C3157 1.349 . S
C3173 H3165 0.950 . S
C3173 C3171 1.327 . S
C3174 C3162 1.349 . S
C3174 H3168 0.950 . S
C3174 C3175 1.327 . S
C3175 H3169 0.950 . S
C3175 C3174 1.327 . S
C3175 C3179 1.429 . S
C3176 C3159 1.574 . S
C3176 H3170 0.949 . S
C3176 C3180 1.368 . S
C3177 C3158 1.429 . S
C3177 C3171 1.429 . S
C3177 C3178 1.523 . S
C3178 C3159 1.368 . S
C3178 C3172 1.368 . S
C3178 C3177 1.523 . S
C3179 C3163 1.429 . S
C3179 C3175 1.429 . S
C3179 C3180 1.523 . S
C3180 C3164 1.368 . S
C3180 C3176 1.368 . S
C3180 C3179 1.523 . S
H3181 C3156 0.950 . S
H3182 C3158 0.950 . S
H3183 C3159 0.949 . S
H3184 C3161 0.950 . S
H3185 C3163 0.950 . S
C3186 C3187 1.349 . S
C3186 C3188 1.327 . S
C3186 H3211 0.950 . S
C3187 C3186 1.349 . S
C3187 C3203 1.349 . S
C3188 C3186 1.327 . S
C3188 C3207 1.429 . S
C3188 H3212 0.950 . S
C3189 C3206 1.574 . S
C3189 C3208 1.368 . S
C3189 H3213 0.949 . S
H3190 C3194 0.949 . S
C3191 C3192 1.349 . S
C3191 C3193 1.327 . S
C3191 H3214 0.950 . S
C3192 C3191 1.349 . S
C3192 C3204 1.349 . S
C3193 C3191 1.327 . S
C3193 C3209 1.429 . S
C3193 H3215 0.950 . S
C3194 H3190 0.949 . S
C3194 C3202 1.574 . S
C3194 C3210 1.368 . S
H3195 C3203 0.950 . S
H3196 C3201 0.950 . S
H3197 C3202 0.949 . S
H3198 C3204 0.950 . S
H3199 C3205 0.950 . S
H3200 C3206 0.949 . S
C3201 H3196 0.950 . S
C3201 C3203 1.327 . S
C3201 C3207 1.429 . S
C3202 C3194 1.574 . S
C3202 H3197 0.949 . S
C3202 C3208 1.368 . S
C3203 C3187 1.349 . S
C3203 H3195 0.950 . S
C3203 C3201 1.327 . S
C3204 C3192 1.349 . S
C3204 H3198 0.950 . S
C3204 C3205 1.327 . S
C3205 H3199 0.950 . S
C3205 C3204 1.327 . S
C3205 C3209 1.429 . S
C3206 C3189 1.574 . S
C3206 H3200 0.949 . S
C3206 C3210 1.368 . S
C3207 C3188 1.429 . S
C3207 C3201 1.429 . S
C3207 C3208 1.523 . S
C3208 C3189 1.368 . S
C3208 C3202 1.368 . S
C3208 C3207 1.523 . S
C3209 C3193 1.429 . S
C3209 C3205 1.429 . S
C3209 C3210 1.523 . S
C3210 C3194 1.368 . S
C3210 C3206 1.368 . S
C3210 C3209 1.523 . S
H3211 C3186 0.950 . S
H3212 C3188 0.950 . S
H3213 C3189 0.949 . S
H3214 C3191 0.950 . S
H3215 C3193 0.950 . S
C3216 C3217 1.349 . S
C3216 C3218 1.327 . S
C3216 H3241 0.950 . S
C3217 C3216 1.349 . S
C3217 C3233 1.349 . S
C3218 C3216 1.327 . S
C3218 C3237 1.429 . S
C3218 H3242 0.950 . S
C3219 C3236 1.574 . S
C3219 C3238 1.368 . S
C3219 H3243 0.949 . S
H3220 C3224 0.949 . S
C3221 C3222 1.349 . S
C3221 C3223 1.327 . S
C3221 H3244 0.950 . S
C3222 C3221 1.349 . S
C3222 C3234 1.349 . S
C3223 C3221 1.327 . S
C3223 C3239 1.429 . S
C3223 H3245 0.950 . S
C3224 H3220 0.949 . S
C3224 C3232 1.574 . S
C3224 C3240 1.368 . S
H3225 C3233 0.950 . S
H3226 C3231 0.950 . S
H3227 C3232 0.949 . S
H3228 C3234 0.950 . S
H3229 C3235 0.950 . S
H3230 C3236 0.949 . S
C3231 H3226 0.950 . S
C3231 C3233 1.327 . S
C3231 C3237 1.429 . S
C3232 C3224 1.574 . S
C3232 H3227 0.949 . S
C3232 C3238 1.368 . S
C3233 C3217 1.349 . S
C3233 H3225 0.950 . S
C3233 C3231 1.327 . S
C3234 C3222 1.349 . S
C3234 H3228 0.950 . S
C3234 C3235 1.327 . S
C3235 H3229 0.950 . S
C3235 C3234 1.327 . S
C3235 C3239 1.429 . S
C3236 C3219 1.574 . S
C3236 H3230 0.949 . S
C3236 C3240 1.368 . S
C3237 C3218 1.429 . S
C3237 C3231 1.429 . S
C3237 C3238 1.523 . S
C3238 C3219 1.368 . S
C3238 C3232 1.368 . S
C3238 C3237 1.523 . S
C3239 C3223 1.429 . S
C3239 C3235 1.429 . S
C3239 C3240 1.523 . S
C3240 C3224 1.368 . S
C3240 C3236 1.368 . S
C3240 C3239 1.523 . S
H3241 C3216 0.950 . S
H3242 C3218 0.950 . S
H3243 C3219 0.949 . S
H3244 C3221 0.950 . S
H3245 C3223 0.950 . S
C3246 C3247 1.349 . S
C3246 C3248 1.327 . S
C3246 H3271 0.993 . S
C3247 C3246 1.349 . S
C3247 C3263 1.349 . S
C3248 C3246 1.327 . S
C3248 C3267 1.429 . S
C3248 H3272 0.950 . S
C3249 C3266 1.574 . S
C3249 C3268 1.368 . S
C3249 H3273 0.949 . S
H3250 C3254 0.949 . S
C3251 C3252 1.349 . S
C3251 C3253 1.327 . S
C3251 H3274 0.950 . S
C3252 C3251 1.349 . S
C3252 C3264 1.349 . S
C3253 C3251 1.327 . S
C3253 C3269 1.429 . S
C3253 H3275 0.950 . S
C3254 H3250 0.949 . S
C3254 C3262 1.574 . S
C3254 C3270 1.368 . S
H3255 C3263 0.950 . S
H3256 C3261 0.950 . S
H3257 C3262 0.949 . S
H3258 C3264 0.950 . S
H3259 C3265 0.950 . S
H3260 C3266 0.949 . S
C3261 H3256 0.950 . S
C3261 C3263 1.327 . S
C3261 C3267 1.429 . S
C3262 C3254 1.574 . S
C3262 H3257 0.949 . S
C3262 C3268 1.368 . S
C3263 C3247 1.349 . S
C3263 H3255 0.950 . S
C3263 C3261 1.327 . S
C3264 C3252 1.349 . S
C3264 H3258 0.950 . S
C3264 C3265 1.327 . S
C3265 H3259 0.950 . S
C3265 C3264 1.327 . S
C3265 C3269 1.429 . S
C3266 C3249 1.574 . S
C3266 H3260 0.949 . S
C3266 C3270 1.368 . S
C3267 C3248 1.429 . S
C3267 C3261 1.429 . S
C3267 C3268 1.523 . S
C3268 C3249 1.368 . S
C3268 C3262 1.368 . S
C3268 C3267 1.523 . S
C3269 C3253 1.429 . S
C3269 C3265 1.429 . S
C3269 C3270 1.523 . S
C3270 C3254 1.368 . S
C3270 C3266 1.368 . S
C3270 C3269 1.523 . S
H3271 C3246 0.993 . S
H3272 C3248 0.950 . S
H3273 C3249 0.949 . S
H3274 C3251 0.950 . S
H3275 C3253 0.950 . S
C3276 C3277 1.349 . S
C3276 C3278 1.327 . S
C3276 H3301 0.950 . S
C3277 C3276 1.349 . S
C3277 C3293 1.349 . S
C3278 C3276 1.327 . S
C3278 C3297 1.429 . S
C3278 H3302 0.950 . S
C3279 C3296 1.574 . S
C3279 C3298 1.368 . S
C3279 H3303 0.949 . S
H3280 C3284 0.949 . S
C3281 C3282 1.349 . S
C3281 C3283 1.327 . S
C3281 H3304 0.950 . S
C3282 C3281 1.349 . S
C3282 C3294 1.349 . S
C3283 C3281 1.327 . S
C3283 C3299 1.429 . S
C3283 H3305 0.950 . S
C3284 H3280 0.949 . S
C3284 C3292 1.574 . S
C3284 C3300 1.368 . S
H3285 C3293 0.950 . S
H3286 C3291 0.950 . S
H3287 C3292 0.949 . S
H3288 C3294 0.950 . S
H3289 C3295 0.950 . S
H3290 C3296 0.949 . S
C3291 H3286 0.950 . S
C3291 C3293 1.327 . S
C3291 C3297 1.429 . S
C3292 C3284 1.574 . S
C3292 H3287 0.949 . S
C3292 C3298 1.368 . S
C3293 C3277 1.349 . S
C3293 H3285 0.950 . S
C3293 C3291 1.327 . S
C3294 C3282 1.349 . S
C3294 H3288 0.950 . S
C3294 C3295 1.327 . S
C3295 H3289 0.950 . S
C3295 C3294 1.327 . S
C3295 C3299 1.429 . S
C3296 C3279 1.574 . S
C3296 H3290 0.949 . S
C3296 C3300 1.368 . S
C3297 C3278 1.429 . S
C3297 C3291 1.429 . S
C3297 C3298 1.523 . S
C3298 C3279 1.368 . S
C3298 C3292 1.368 . S
C3298 C3297 1.523 . S
C3299 C3283 1.429 . S
C3299 C3295 1.429 . S
C3299 C3300 1.523 . S
C3300 C3284 1.368 . S
C3300 C3296 1.368 . S
C3300 C3299 1.523 . S
H3301 C3276 0.950 . S
H3302 C3278 0.950 . S
H3303 C3279 0.949 . S
H3304 C3281 0.950 . S
H3305 C3283 0.950 . S
C3306 C3307 1.349 . S
C3306 C3308 1.327 . S
C3306 H3331 0.950 . S
C3307 C3306 1.349 . S
C3307 C3323 1.349 . S
C3308 C3306 1.327 . S
C3308 C3327 1.429 . S
C3308 H3332 0.950 . S
C3309 C3326 1.574 . S
C3309 C3328 1.368 . S
C3309 H3333 0.949 . S
H3310 C3314 0.949 . S
C3311 C3312 1.349 . S
C3311 C3313 1.327 . S
C3311 H3334 0.950 . S
C3312 C3311 1.349 . S
C3312 C3324 1.349 . S
C3313 C3311 1.327 . S
C3313 C3329 1.429 . S
C3313 H3335 0.950 . S
C3314 H3310 0.949 . S
C3314 C3322 1.574 . S
C3314 C3330 1.368 . S
H3315 C3323 0.950 . S
H3316 C3321 0.950 . S
H3317 C3322 0.949 . S
H3318 C3324 0.950 . S
H3319 C3325 0.950 . S
H3320 C3326 0.949 . S
C3321 H3316 0.950 . S
C3321 C3323 1.327 . S
C3321 C3327 1.429 . S
C3322 C3314 1.574 . S
C3322 H3317 0.949 . S
C3322 C3328 1.368 . S
C3323 C3307 1.349 . S
C3323 H3315 0.950 . S
C3323 C3321 1.327 . S
C3324 C3312 1.349 . S
C3324 H3318 0.950 . S
C3324 C3325 1.327 . S
C3325 H3319 0.950 . S
C3325 C3324 1.327 . S
C3325 C3329 1.429 . S
C3326 C3309 1.574 . S
C3326 H3320 0.949 . S
C3326 C3330 1.368 . S
C3327 C3308 1.429 . S
C3327 C3321 1.429 . S
C3327 C3328 1.523 . S
C3328 C3309 1.368 . S
C3328 C3322 1.368 . S
C3328 C3327 1.523 . S
C3329 C3313 1.429 . S
C3329 C3325 1.429 . S
C3329 C3330 1.523 . S
C3330 C3314 1.368 . S
C3330 C3326 1.368 . S
C3330 C3329 1.523 . S
H3331 C3306 0.950 . S
H3332 C3308 0.950 . S
H3333 C3309 0.949 . S
H3334 C3311 0.950 . S
H3335 C3313 0.950 . S
C3336 C3337 1.349 . S
C3336 C3338 1.327 . S
C3336 H3361 0.950 . S
C3337 C3336 1.349 . S
C3337 C3353 1.349 . S
C3338 C3336 1.327 . S
C3338 C3357 1.429 . S
C3338 H3362 0.950 . S
C3339 C3356 1.574 . S
C3339 C3358 1.368 . S
C3339 H3363 0.949 . S
H3340 C3344 0.949 . S
C3341 C3342 1.349 . S
C3341 C3343 1.327 . S
C3341 H3364 0.950 . S
C3342 C3341 1.349 . S
C3342 C3354 1.349 . S
C3343 C3341 1.327 . S
C3343 C3359 1.429 . S
C3343 H3365 0.950 . S
C3344 H3340 0.949 . S
C3344 C3352 1.574 . S
C3344 C3360 1.368 . S
H3345 C3353 0.950 . S
H3346 C3351 0.950 . S
H3347 C3352 0.949 . S
H3348 C3354 0.950 . S
H3349 C3355 0.950 . S
H3350 C3356 0.949 . S
C3351 H3346 0.950 . S
C3351 C3353 1.327 . S
C3351 C3357 1.429 . S
C3352 C3344 1.574 . S
C3352 H3347 0.949 . S
C3352 C3358 1.368 . S
C3353 C3337 1.349 . S
C3353 H3345 0.950 . S
C3353 C3351 1.327 . S
C3354 C3342 1.349 . S
C3354 H3348 0.950 . S
C3354 C3355 1.327 . S
C3355 H3349 0.950 . S
C3355 C3354 1.327 . S
C3355 C3359 1.429 . S
C3356 C3339 1.574 . S
C3356 H3350 0.949 . S
C3356 C3360 1.368 . S
C3357 C3338 1.429 . S
C3357 C3351 1.429 . S
C3357 C3358 1.523 . S
C3358 C3339 1.368 . S
C3358 C3352 1.368 . S
C3358 C3357 1.523 . S
C3359 C3343 1.429 . S
C3359 C3355 1.429 . S
C3359 C3360 1.523 . S
C3360 C3344 1.368 . S
C3360 C3356 1.368 . S
C3360 C3359 1.523 . S
H3361 C3336 0.950 . S
H3362 C3338 0.950 . S
H3363 C3339 0.949 . S
H3364 C3341 0.950 . S
H3365 C3343 0.950 . S
C3366 C3367 1.349 . S
C3366 C3368 1.327 . S
C3366 H3391 0.950 . S
C3367 C3366 1.349 . S
C3367 C3383 1.349 . S
C3368 C3366 1.327 . S
C3368 C3387 1.429 . S
C3368 H3392 0.950 . S
C3369 C3386 1.574 . S
C3369 C3388 1.368 . S
C3369 H3393 0.949 . S
H3370 C3374 0.949 . S
C3371 C3372 1.349 . S
C3371 C3373 1.327 . S
C3371 H3394 0.950 . S
C3372 C3371 1.349 . S
C3372 C3384 1.349 . S
C3373 C3371 1.327 . S
C3373 C3389 1.429 . S
C3373 H3395 0.950 . S
C3374 H3370 0.949 . S
C3374 C3382 1.574 . S
C3374 C3390 1.368 . S
H3375 C3383 0.950 . S
H3376 C3381 0.950 . S
H3377 C3382 0.949 . S
H3378 C3384 0.950 . S
H3379 C3385 0.950 . S
H3380 C3386 0.949 . S
C3381 H3376 0.950 . S
C3381 C3383 1.327 . S
C3381 C3387 1.429 . S
C3382 C3374 1.574 . S
C3382 H3377 0.949 . S
C3382 C3388 1.368 . S
C3383 C3367 1.349 . S
C3383 H3375 0.950 . S
C3383 C3381 1.327 . S
C3384 C3372 1.349 . S
C3384 H3378 0.950 . S
C3384 C3385 1.327 . S
C3385 H3379 0.950 . S
C3385 C3384 1.327 . S
C3385 C3389 1.429 . S
C3386 C3369 1.574 . S
C3386 H3380 0.949 . S
C3386 C3390 1.368 . S
C3387 C3368 1.429 . S
C3387 C3381 1.429 . S
C3387 C3388 1.523 . S
C3388 C3369 1.368 . S
C3388 C3382 1.368 . S
C3388 C3387 1.523 . S
C3389 C3373 1.429 . S
C3389 C3385 1.429 . S
C3389 C3390 1.523 . S
C3390 C3374 1.368 . S
C3390 C3386 1.368 . S
C3390 C3389 1.523 . S
H3391 C3366 0.950 . S
H3392 C3368 0.950 . S
H3393 C3369 0.949 . S
H3394 C3371 0.950 . S
H3395 C3373 0.950 . S
C3396 C3397 1.349 . S
C3396 C3398 1.327 . S
C3396 H3421 0.950 . S
C3397 C3396 1.349 . S
C3397 C3413 1.349 . S
C3398 C3396 1.327 . S
C3398 C3417 1.429 . S
C3398 H3422 0.950 . S
C3399 C3416 1.574 . S
C3399 C3418 1.368 . S
C3399 H3423 0.949 . S
H3400 C3404 0.949 . S
C3401 C3402 1.349 . S
C3401 C3403 1.327 . S
C3401 H3424 0.950 . S
C3402 C3401 1.349 . S
C3402 C3414 1.349 . S
C3403 C3401 1.327 . S
C3403 C3419 1.429 . S
C3403 H3425 0.950 . S
C3404 H3400 0.949 . S
C3404 C3412 1.574 . S
C3404 C3420 1.368 . S
H3405 C3413 0.950 . S
H3406 C3411 0.950 . S
H3407 C3412 0.949 . S
H3408 C3414 0.950 . S
H3409 C3415 0.950 . S
H3410 C3416 0.949 . S
C3411 H3406 0.950 . S
C3411 C3413 1.327 . S
C3411 C3417 1.429 . S
C3412 C3404 1.574 . S
C3412 H3407 0.949 . S
C3412 C3418 1.368 . S
C3413 C3397 1.349 . S
C3413 H3405 0.950 . S
C3413 C3411 1.327 . S
C3414 C3402 1.349 . S
C3414 H3408 0.950 . S
C3414 C3415 1.327 . S
C3415 H3409 0.950 . S
C3415 C3414 1.327 . S
C3415 C3419 1.429 . S
C3416 C3399 1.574 . S
C3416 H3410 0.949 . S
C3416 C3420 1.368 . S
C3417 C3398 1.429 . S
C3417 C3411 1.429 . S
C3417 C3418 1.523 . S
C3418 C3399 1.368 . S
C3418 C3412 1.368 . S
C3418 C3417 1.523 . S
C3419 C3403 1.429 . S
C3419 C3415 1.429 . S
C3419 C3420 1.523 . S
C3420 C3404 1.368 . S
C3420 C3416 1.368 . S
C3420 C3419 1.523 . S
H3421 C3396 0.950 . S
H3422 C3398 0.950 . S
H3423 C3399 0.949 . S
H3424 C3401 0.950 . S
H3425 C3403 0.950 . S
C3426 C3427 1.349 . S
C3426 C3428 1.327 . S
C3426 H3451 0.950 1_565 S
C3427 C3426 1.349 . S
C3427 C3443 1.349 . S
C3428 C3426 1.327 . S
C3428 C3447 1.429 . S
C3428 H3452 0.950 . S
C3429 C3446 1.574 . S
C3429 C3448 1.368 . S
C3429 H3453 0.949 . S
H3430 C3434 0.949 . S
C3431 C3432 1.349 . S
C3431 C3433 1.327 . S
C3431 H3454 0.950 . S
C3432 C3431 1.349 . S
C3432 C3444 1.349 . S
C3433 C3431 1.327 . S
C3433 C3449 1.429 . S
C3433 H3455 0.950 . S
C3434 H3430 0.949 . S
C3434 C3442 1.574 . S
C3434 C3450 1.368 . S
H3435 C3443 0.950 . S
H3436 C3441 0.950 . S
H3437 C3442 0.949 . S
H3438 C3444 0.950 . S
H3439 C3445 0.950 . S
H3440 C3446 0.949 . S
C3441 H3436 0.950 . S
C3441 C3443 1.327 . S
C3441 C3447 1.429 . S
C3442 C3434 1.574 . S
C3442 H3437 0.949 . S
C3442 C3448 1.368 . S
C3443 C3427 1.349 . S
C3443 H3435 0.950 . S
C3443 C3441 1.327 . S
C3444 C3432 1.349 . S
C3444 H3438 0.950 . S
C3444 C3445 1.327 . S
C3445 H3439 0.950 . S
C3445 C3444 1.327 . S
C3445 C3449 1.429 . S
C3446 C3429 1.574 . S
C3446 H3440 0.949 . S
C3446 C3450 1.368 . S
C3447 C3428 1.429 . S
C3447 C3441 1.429 . S
C3447 C3448 1.523 . S
C3448 C3429 1.368 . S
C3448 C3442 1.368 . S
C3448 C3447 1.523 . S
C3449 C3433 1.429 . S
C3449 C3445 1.429 . S
C3449 C3450 1.523 . S
C3450 C3434 1.368 . S
C3450 C3446 1.368 . S
C3450 C3449 1.523 . S
H3451 C3426 0.950 1_545 S
H3452 C3428 0.950 . S
H3453 C3429 0.949 . S
H3454 C3431 0.950 . S
H3455 C3433 0.950 . S
C1057 C18 1.540 . S
C1062 C810 1.540 . S
C1087 C315 1.540 . S
C1092 C51 1.540 . S
C1117 C876 1.540 . S
C1122 C84 1.540 . S
C1147 C381 1.540 . S
C1152 C117 1.540 . S
C1177 C942 1.540 . S
C1182 C150 1.540 . S
C1207 C447 1.540 . S
C1212 C183 1.540 . S
C1237 C1008 1.540 . S
C1242 C216 1.540 . S
C1267 C513 1.540 . S
C1272 C249 1.540 . S
C1297 C282 1.540 . S
C1302 C546 1.540 . S
C1327 C348 1.540 . S
C1332 C612 1.540 . S
C1357 C414 1.540 . S
C1362 C678 1.540 . S
C1387 C744 1.540 . S
C1392 C480 1.540 . S
C1417 C579 1.540 . S
C1422 C843 1.540 . S
C1447 C909 1.540 . S
C1452 C645 1.540 . S
C1477 C711 1.540 . S
C1482 C975 1.540 . S
C1507 C1041 1.540 . S
C1512 C777 1.540 . S
C1537 N13 1.309 . S
C1542 C384 1.334 . S
C1567 N46 1.309 1_455 S
C1572 C813 1.334 . S
C1597 C318 1.334 . S
C1602 N79 1.309 . S
C1627 N112 1.309 . S
C1632 C879 1.334 . S
C1657 C450 1.334 . S
C1662 N145 1.309 . S
C1687 C1011 1.334 . S
C1692 N178 1.309 . S
C1717 N211 1.309 . S
C1722 C516 1.334 . S
C1747 C945 1.334 . S
C1752 N244 1.309 1_455 S
C1777 N277 1.309 . S
C1782 C120 1.334 . S
C1807 N310 1.309 1_655 S
C1812 C549 1.334 . S
C1837 C54 1.334 . S
C1842 N343 1.309 . S
C1867 N376 1.309 . S
C1872 C615 1.334 . S
C1897 N409 1.309 . S
C1902 C186 1.334 . S
C1927 C747 1.334 . S
C1932 N442 1.309 . S
C1957 C252 1.334 . S
C1962 N475 1.309 . S
C1987 N508 1.309 1_655 S
C1992 C681 1.334 . S
C2017 C912 1.334 . S
C2022 N541 1.309 . S
C2047 C285 1.334 . S
C2052 N574 1.309 . S
C2077 C846 1.334 . S
C2082 N607 1.309 . S
C2107 N640 1.309 1_655 S
C2112 C351 1.334 . S
C2137 C978 1.334 . S
C2142 N673 1.309 . S
C2167 C483 1.334 . S
C2172 N706 1.309 1_655 S
C2197 N739 1.309 . S
C2202 C1044 1.334 . S
C2227 C417 1.334 . S
C2232 N772 1.309 . S
C2257 C648 1.334 . S
C2262 N805 1.309 . S
C2287 N838 1.309 . S
C2292 C21 1.334 . S
C2317 N871 1.309 . S
C2322 C582 1.334 . S
C2347 C87 1.334 . S
C2352 N904 1.309 1_455 S
C2377 C714 1.334 . S
C2382 N937 1.309 . S
C2407 N970 1.309 1_455 S
C2412 C219 1.334 . S
C2437 C780 1.334 . S
C2442 N1003 1.309 . S
C2467 C153 1.334 . S
C2472 N1036 1.309 . S
C2497 C7 0.931 . S
C2502 C205 0.931 . S
C2527 C238 0.931 . S
C2532 C40 0.931 . S
C2557 C73 0.931 . S
C2562 C139 0.931 . S
C2587 C106 0.931 . S
C2592 C172 0.931 . S
C2617 C469 0.931 . S
C2622 C271 0.931 . S
C2647 C502 0.931 . S
C2652 C304 0.931 . S
C2677 C403 0.931 . S
C2682 C337 0.931 . S
C2707 C436 0.931 . S
C2712 C370 0.931 . S
C2737 C535 0.931 . S
C2742 C733 0.931 . S
C2767 C568 0.932 . S
C2772 C766 0.932 . S
C2797 C601 0.931 . S
C2802 C667 0.931 . S
C2827 C634 0.931 . S
C2832 C700 0.931 . S
C2857 C997 0.931 . S
C2862 C799 0.931 . S
C2887 C1030 0.932 . S
C2892 C832 0.932 . S
C2917 C865 0.931 . S
C2922 C931 0.931 . S
C2947 C898 0.931 . S
C2952 C964 0.931 . S
C2977 N2 1.759 . S
C2982 N695 1.759 . S
C3007 N35 1.759 1_565 S
C3012 N728 1.759 . S
C3037 N68 1.759 . S
C3042 N761 1.759 . S
C3067 N101 1.759 1_545 S
C3072 N662 1.759 . S
C3097 N629 1.759 . S
C3102 N134 1.759 . S
C3127 N167 1.759 1_565 S
C3132 N530 1.759 . S
C3157 N563 1.759 . S
C3162 N200 1.759 . S
C3187 N233 1.759 1_545 S
C3192 N596 1.759 . S
C3217 N959 1.759 . S
C3222 N266 1.759 . S
C3247 N299 1.759 1_545 S
C3252 N992 1.759 . S
C3277 N1025 1.759 . S
C3282 N332 1.759 . S
C3307 N365 1.759 1_565 S
C3312 N926 1.759 . S
C3337 N398 1.759 . S
C3342 N893 1.759 . S
C3367 N794 1.759 . S
C3372 N431 1.759 1_545 S
C3397 N464 1.759 . S
C3402 N827 1.759 . S
C3427 N497 1.759 1_565 S
C3432 N860 1.759 . S
