# Generated by pormake.
# Topology wjd, (6)-cn, num edge types: 1
# Building blocks:
#     Node 0, Type 0, BuildingBlock: HISSIN_clean_sbu_0, # of connection points: 6
#     Node 1, Type 0, BuildingBlock: HISSIN_clean_sbu_0, # of connection points: 6
#     Node 2, Type 0, BuildingBlock: HISSIN_clean_sbu_0, # of connection points: 6
#     Node 3, Type 0, BuildingBlock: HISSIN_clean_sbu_0, # of connection points: 6
#     Node 4, Type 0, BuildingBlock: HISSIN_clean_sbu_0, # of connection points: 6
#     Node 5, Type 0, BuildingBlock: HISSIN_clean_sbu_0, # of connection points: 6
#     Node 6, Type 0, BuildingBlock: HISSIN_clean_sbu_0, # of connection points: 6
#     Node 7, Type 0, BuildingBlock: HISSIN_clean_sbu_0, # of connection points: 6
#     Node 8, Type 0, BuildingBlock: HISSIN_clean_sbu_0, # of connection points: 6
#     Node 9, Type 0, BuildingBlock: HISSIN_clean_sbu_0, # of connection points: 6
#     Node 10, Type 0, BuildingBlock: HISSIN_clean_sbu_0, # of connection points: 6
#     Node 11, Type 0, BuildingBlock: HISSIN_clean_sbu_0, # of connection points: 6
#     Edge 12, Type (0, 0), BuildingBlock: ZUJKAS_clean_linker_0, # of connection points: 2
#     Edge 13, Type (0, 0), BuildingBlock: ZUJKAS_clean_linker_0, # of connection points: 2
#     Edge 14, Type (0, 0), BuildingBlock: ZUJKAS_clean_linker_0, # of connection points: 2
#     Edge 15, Type (0, 0), BuildingBlock: ZUJKAS_clean_linker_0, # of connection points: 2
#     Edge 16, Type (0, 0), BuildingBlock: ZUJKAS_clean_linker_0, # of connection points: 2
#     Edge 17, Type (0, 0), BuildingBlock: ZUJKAS_clean_linker_0, # of connection points: 2
#     Edge 18, Type (0, 0), BuildingBlock: ZUJKAS_clean_linker_0, # of connection points: 2
#     Edge 19, Type (0, 0), BuildingBlock: ZUJKAS_clean_linker_0, # of connection points: 2
#     Edge 20, Type (0, 0), BuildingBlock: ZUJKAS_clean_linker_0, # of connection points: 2
#     Edge 21, Type (0, 0), BuildingBlock: ZUJKAS_clean_linker_0, # of connection points: 2
#     Edge 22, Type (0, 0), BuildingBlock: ZUJKAS_clean_linker_0, # of connection points: 2
#     Edge 23, Type (0, 0), BuildingBlock: ZUJKAS_clean_linker_0, # of connection points: 2
#     Edge 24, Type (0, 0), BuildingBlock: ZUJKAS_clean_linker_0, # of connection points: 2
#     Edge 25, Type (0, 0), BuildingBlock: ZUJKAS_clean_linker_0, # of connection points: 2
#     Edge 26, Type (0, 0), BuildingBlock: ZUJKAS_clean_linker_0, # of connection points: 2
#     Edge 27, Type (0, 0), BuildingBlock: ZUJKAS_clean_linker_0, # of connection points: 2
#     Edge 28, Type (0, 0), BuildingBlock: ZUJKAS_clean_linker_0, # of connection points: 2
#     Edge 29, Type (0, 0), BuildingBlock: ZUJKAS_clean_linker_0, # of connection points: 2
#     Edge 30, Type (0, 0), BuildingBlock: ZUJKAS_clean_linker_0, # of connection points: 2
#     Edge 31, Type (0, 0), BuildingBlock: ZUJKAS_clean_linker_0, # of connection points: 2
#     Edge 32, Type (0, 0), BuildingBlock: ZUJKAS_clean_linker_0, # of connection points: 2
#     Edge 33, Type (0, 0), BuildingBlock: ZUJKAS_clean_linker_0, # of connection points: 2
#     Edge 34, Type (0, 0), BuildingBlock: ZUJKAS_clean_linker_0, # of connection points: 2
#     Edge 35, Type (0, 0), BuildingBlock: ZUJKAS_clean_linker_0, # of connection points: 2
#     Edge 36, Type (0, 0), BuildingBlock: ZUJKAS_clean_linker_0, # of connection points: 2
#     Edge 37, Type (0, 0), BuildingBlock: ZUJKAS_clean_linker_0, # of connection points: 2
#     Edge 38, Type (0, 0), BuildingBlock: ZUJKAS_clean_linker_0, # of connection points: 2
#     Edge 39, Type (0, 0), BuildingBlock: ZUJKAS_clean_linker_0, # of connection points: 2
#     Edge 40, Type (0, 0), BuildingBlock: ZUJKAS_clean_linker_0, # of connection points: 2
#     Edge 41, Type (0, 0), BuildingBlock: ZUJKAS_clean_linker_0, # of connection points: 2
#     Edge 42, Type (0, 0), BuildingBlock: ZUJKAS_clean_linker_0, # of connection points: 2
#     Edge 43, Type (0, 0), BuildingBlock: ZUJKAS_clean_linker_0, # of connection points: 2
#     Edge 44, Type (0, 0), BuildingBlock: ZUJKAS_clean_linker_0, # of connection points: 2
#     Edge 45, Type (0, 0), BuildingBlock: ZUJKAS_clean_linker_0, # of connection points: 2
#     Edge 46, Type (0, 0), BuildingBlock: ZUJKAS_clean_linker_0, # of connection points: 2
#     Edge 47, Type (0, 0), BuildingBlock: ZUJKAS_clean_linker_0, # of connection points: 2
# Relax obj value: 0.086
# Max RMSD: 0.193
# Mean RMSD: 0.193
data_MOF--net-wjd--node1-HISSIN_clean_sbu_0--edge1-ZUJKAS_clean_linker_0
_symmetry_space_group_name_H-M    P1
_symmetry_Int_Tables_number       1
_symmetry_cell_setting            triclinic
loop_
_symmetry_equiv_pos_as_xyz
'x, y, z'
_cell_length_a     49.119535
_cell_length_b     49.268775
_cell_length_c     70.922236
_cell_angle_alpha  89.953731
_cell_angle_beta   90.10381
_cell_angle_gamma 120.0115
loop_
_atom_site_label
_atom_site_type_symbol
_atom_site_fract_x
_atom_site_fract_y
_atom_site_fract_z
_atom_type_partial_charge
Eu0 Eu 0.37459 0.17409 0.11801 0.0
Eu1 Eu 0.33239 0.10339 0.13613 0.0
C2 C 0.37313 0.16156 0.16307 0.0
C3 C 0.43591 0.26104 0.10876 0.0
C4 C 0.44435 0.27065 0.12755 0.0
C5 C 0.4794 0.31082 0.09816 0.0
C6 C 0.47004 0.30034 0.1316 0.0
C7 C 0.45372 0.28126 0.09415 0.0
C8 C 0.48784 0.32083 0.11694 0.0
C9 C 0.40813 0.2306 0.10402 0.0
O10 O 0.30526 0.12885 0.14053 0.0
O11 O 0.32404 0.16157 0.11512 0.0
C12 C 0.30285 0.14761 0.12832 0.0
O13 O 0.36135 0.13867 0.09413 0.0
O14 O 0.3012 0.0716 0.15787 0.0
O15 O 0.31295 0.05291 0.13354 0.0
O16 O 0.31487 0.10192 0.10683 0.0
C17 C 0.33357 0.11332 0.09231 0.0
O18 O 0.40952 0.16159 0.12932 0.0
O19 O 0.37914 0.10812 0.12718 0.0
O20 O 0.36428 0.13213 0.15959 0.0
O21 O 0.41303 0.20753 0.10004 0.0
O22 O 0.38314 0.22164 0.11437 0.0
O23 O 0.37355 0.18045 0.14973 0.0
C24 C 0.26103 0.0238 0.14543 0.0
C25 C 0.24634 0.02147 0.12801 0.0
C26 C 0.21073 0.98427 0.15823 0.0
C27 C 0.21415 1.00056 0.12569 0.0
C28 C 0.24298 1.00506 0.16049 0.0
C29 C 0.19585 0.98172 0.14079 0.0
C30 C 0.29476 0.04653 0.14824 0.0
C31 C 0.4069 0.1338 0.12835 0.0
H32 H 0.43097 0.25532 0.13907 0.0
H33 H 0.49227 0.3261 0.08652 0.0
H34 H 0.47609 0.30716 0.1462 0.0
H35 H 0.4475 0.27434 0.07957 0.0
H36 H 0.2597 0.03587 0.11618 0.0
H37 H 0.19738 0.97057 0.17026 0.0
H38 H 0.20371 0.99899 0.11198 0.0
H39 H 0.25378 1.00674 0.1741 0.0
Eu40 Eu 0.80399 0.70226 0.386 0.0
Eu41 Eu 0.83702 0.66304 0.40311 0.0
C42 C 0.80371 0.68977 0.42939 0.0
C43 C 0.79251 0.77032 0.37166 0.0
C44 C 0.82404 0.792 0.37574 0.0
C45 C 0.78296 0.8134 0.36566 0.0
C46 C 0.83486 0.82419 0.37513 0.0
C47 C 0.77214 0.78119 0.36638 0.0
C48 C 0.81431 0.83528 0.37036 0.0
C49 C 0.78016 0.73659 0.37456 0.0
O50 O 0.78538 0.6281 0.40148 0.0
O51 O 0.76784 0.65139 0.3802 0.0
C52 C 0.76373 0.62683 0.38999 0.0
O53 O 0.83352 0.69889 0.36301 0.0
O54 O 0.83741 0.62884 0.42275 0.0
O55 O 0.87633 0.65432 0.4036 0.0
O56 O 0.82971 0.65245 0.3718 0.0
C57 C 0.83458 0.6735 0.35882 0.0
O58 O 0.85153 0.73935 0.39711 0.0
O59 O 0.87678 0.71088 0.39597 0.0
O60 O 0.83013 0.68941 0.4273 0.0
O61 O 0.79007 0.72269 0.3631 0.0
O62 O 0.78003 0.72833 0.39202 0.0
O63 O 0.78525 0.6843 0.41488 0.0
C64 C 0.8652 0.60305 0.41233 0.0
C65 C 0.8882 0.60398 0.40012 0.0
C66 C 0.84895 0.54861 0.41958 0.0
C67 C 0.89159 0.57765 0.39771 0.0
C68 C 0.84557 0.57501 0.42202 0.0
C69 C 0.87221 0.54969 0.40753 0.0
C70 C 0.86352 0.63188 0.41602 0.0
C71 C 0.87749 0.73779 0.39699 0.0
H72 H 0.84005 0.78397 0.37985 0.0
H73 H 0.76645 0.82113 0.36212 0.0
H74 H 0.85922 0.8404 0.37859 0.0
H75 H 0.74765 0.76477 0.36334 0.0
H76 H 0.90398 0.62525 0.39257 0.0
H77 H 0.83387 0.52761 0.42755 0.0
H78 H 0.90947 0.57923 0.38813 0.0
H79 H 0.82796 0.5736 0.43176 0.0
Eu80 Eu 0.86084 0.19873 0.11595 0.0
Eu81 Eu 0.93161 0.23182 0.13504 0.0
C82 C 0.87199 0.21222 0.16094 0.0
C83 C 0.77255 0.16828 0.1056 0.0
C84 C 0.76728 0.19382 0.10486 0.0
C85 C 0.71679 0.13378 0.11202 0.0
C86 C 0.73703 0.18931 0.10753 0.0
C87 C 0.74699 0.13828 0.10926 0.0
C88 C 0.7113 0.15918 0.11104 0.0
C89 C 0.80393 0.17201 0.10173 0.0
O90 O 0.90848 0.17955 0.14013 0.0
O91 O 0.87657 0.16308 0.11422 0.0
C92 C 0.89089 0.15747 0.12801 0.0
O93 O 0.89644 0.22112 0.09212 0.0
O94 O 0.96331 0.235 0.1577 0.0
O95 O 0.98183 0.26531 0.13329 0.0
O96 O 0.93584 0.21654 0.106 0.0
C97 C 0.92331 0.22132 0.09099 0.0
O98 O 0.87049 0.24607 0.12551 0.0
O99 O 0.92444 0.2718 0.12524 0.0
O100 O 0.90094 0.23428 0.15745 0.0
O101 O 0.82659 0.19962 0.09665 0.0
O102 O 0.81372 0.15792 0.11317 0.0
O103 O 0.85427 0.19226 0.14777 0.0
C104 C 1.01317 0.2463 0.14674 0.0
C105 C 1.0158 0.23192 0.13029 0.0
C106 C 0.05662 0.24274 0.16053 0.0
C107 C 0.03885 0.22327 0.12891 0.0
C108 C 0.0337 0.25161 0.16184 0.0
C109 C 0.05948 0.2285 0.14404 0.0
C110 C 0.98849 0.25484 0.14852 0.0
C111 C 0.89775 0.27211 0.12504 0.0
H112 H 0.78641 0.21725 0.10196 0.0
H113 H 0.69776 0.11034 0.11498 0.0
H114 H 0.73373 0.20939 0.10642 0.0
H115 H 0.75031 0.11815 0.10984 0.0
H116 H 0.99992 0.22721 0.11854 0.0
H117 H 0.07233 0.24733 0.17235 0.0
H118 H 0.04017 0.21199 0.11612 0.0
H119 H 0.03193 0.26252 0.17468 0.0
Eu120 Eu 0.33444 0.10472 0.38854 0.0
Eu121 Eu 0.37496 0.17719 0.40477 0.0
C122 C 0.3471 0.11793 0.43148 0.0
C123 C 0.26299 0.02559 0.37777 0.0
C124 C 0.24303 0.03483 0.38613 0.0
C125 C 0.21747 0.97519 0.37014 0.0
C126 C 0.21056 1.01431 0.38669 0.0
C127 C 0.25 0.99579 0.3696 0.0
C128 C 0.19737 0.98405 0.37891 0.0
C129 C 0.29735 0.04623 0.37859 0.0
O130 O 0.41016 0.16092 0.40199 0.0
O131 O 0.38481 0.11723 0.38283 0.0
C132 C 0.41033 0.13913 0.39133 0.0
O133 O 0.34125 0.13657 0.36412 0.0
O134 O 0.41006 0.21138 0.42425 0.0
O135 O 0.38369 0.22503 0.40589 0.0
O136 O 0.3862 0.18087 0.37363 0.0
C137 C 0.36634 0.16364 0.36033 0.0
O138 O 0.29879 0.11755 0.39919 0.0
O139 O 0.32854 0.17055 0.39528 0.0
O140 O 0.34725 0.1444 0.42889 0.0
O141 O 0.30971 0.0694 0.36661 0.0
O142 O 0.30898 0.05501 0.39546 0.0
O143 O 0.35332 0.10508 0.41731 0.0
C144 C 0.43546 0.26415 0.41364 0.0
C145 C 0.44673 0.27194 0.39509 0.0
C146 C 0.47746 0.31489 0.42421 0.0
C147 C 0.47297 0.30122 0.3911 0.0
C148 C 0.45116 0.28572 0.42815 0.0
C149 C 0.48854 0.32313 0.40561 0.0
C150 C 0.40663 0.23442 0.41801 0.0
C151 C 0.30111 0.14515 0.3972 0.0
H152 H 0.25269 0.05765 0.39266 0.0
H153 H 0.2081 0.95225 0.36378 0.0
H154 H 0.19593 0.02182 0.39377 0.0
H155 H 0.26504 0.98825 0.36309 0.0
H156 H 0.43502 0.25556 0.38366 0.0
H157 H 0.48864 0.3313 0.43568 0.0
H158 H 0.48112 0.30668 0.37667 0.0
H159 H 0.44275 0.2802 0.44254 0.0
Eu160 Eu 0.83449 0.66256 0.11621 0.0
Eu161 Eu 0.8018 0.70212 0.1333 0.0
C162 C 0.8325 0.67335 0.16055 0.0
C163 C 0.86191 0.60207 0.10702 0.0
C164 C 0.88106 0.60117 0.12152 0.0
C165 C 0.84935 0.54944 0.09766 0.0
C166 C 0.88448 0.57485 0.12395 0.0
C167 C 0.84602 0.57584 0.09517 0.0
C168 C 0.86891 0.54875 0.11196 0.0
C169 C 0.86046 0.631 0.10326 0.0
O170 O 0.84939 0.73906 0.12222 0.0
O171 O 0.87456 0.71045 0.12295 0.0
C172 C 0.8753 0.73738 0.12205 0.0
O173 O 0.82728 0.68872 0.09199 0.0
O174 O 0.78798 0.72273 0.15611 0.0
O175 O 0.77817 0.72851 0.12713 0.0
O176 O 0.78263 0.68382 0.10452 0.0
C177 C 0.80088 0.68915 0.08996 0.0
O178 O 0.78287 0.62764 0.11821 0.0
O179 O 0.76553 0.65132 0.13927 0.0
O180 O 0.8313 0.69868 0.15636 0.0
O181 O 0.83426 0.62799 0.09664 0.0
O182 O 0.87363 0.65364 0.11555 0.0
O183 O 0.82776 0.65236 0.14756 0.0
C184 C 0.79072 0.77052 0.14749 0.0
C185 C 0.82223 0.79213 0.14339 0.0
C186 C 0.78143 0.81374 0.15361 0.0
C187 C 0.83318 0.82435 0.14407 0.0
C188 C 0.77049 0.7815 0.15283 0.0
C189 C 0.81279 0.83555 0.14893 0.0
C190 C 0.77825 0.73676 0.14458 0.0
C191 C 0.76136 0.62655 0.1297 0.0
H192 H 0.89386 0.621 0.13085 0.0
H193 H 0.8373 0.5299 0.08803 0.0
H194 H 0.8994 0.57496 0.13525 0.0
H195 H 0.83148 0.57597 0.0837 0.0
H196 H 0.83812 0.78402 0.13922 0.0
H197 H 0.76502 0.82153 0.15721 0.0
H198 H 0.85755 0.84049 0.14062 0.0
H199 H 0.746 0.76513 0.15588 0.0
Eu200 Eu 0.93201 0.23075 0.38493 0.0
Eu201 Eu 0.86099 0.19836 0.40326 0.0
C202 C 0.9227 0.22032 0.42888 0.0
C203 C 1.012 0.2418 0.37446 0.0
C204 C 1.00565 0.2169 0.38668 0.0
C205 C 0.06144 0.24519 0.36592 0.0
C206 C 0.02709 0.20624 0.38854 0.0
C207 C 0.03997 0.25586 0.36409 0.0
C208 C 0.05529 0.22024 0.37818 0.0
C209 C 0.98918 0.25264 0.37234 0.0
O210 O 0.8714 0.24583 0.39338 0.0
O211 O 0.9253 0.27112 0.39441 0.0
C212 C 0.89876 0.27173 0.39413 0.0
O213 O 0.90216 0.23348 0.36198 0.0
O214 O 0.82629 0.19994 0.42173 0.0
O215 O 0.81377 0.15769 0.40591 0.0
O216 O 0.85499 0.19195 0.37142 0.0
C217 C 0.87315 0.21166 0.3583 0.0
O218 O 0.9085 0.17855 0.37972 0.0
O219 O 0.87604 0.16219 0.40531 0.0
O220 O 0.89604 0.22048 0.42745 0.0
O221 O 0.96408 0.23432 0.36254 0.0
O222 O 0.9825 0.26266 0.38771 0.0
O223 O 0.93503 0.2149 0.41405 0.0
C224 C 0.77299 0.16873 0.41208 0.0
C225 C 0.77055 0.19229 0.40237 0.0
C226 C 0.71592 0.13757 0.41323 0.0
C227 C 0.74094 0.1886 0.39829 0.0
C228 C 0.74548 0.14134 0.41737 0.0
C229 C 0.71323 0.1612 0.40372 0.0
C230 C 0.80379 0.1721 0.41688 0.0
C231 C 0.89056 0.15649 0.39172 0.0
H232 H 0.98407 0.2057 0.39478 0.0
H233 H 0.08268 0.25622 0.35752 0.0
H234 H 1.02174 0.18728 0.39828 0.0
H235 H 0.04513 0.27497 0.3545 0.0
H236 H 0.79149 0.21354 0.398 0.0
H237 H 0.69515 0.11637 0.41783 0.0
H238 H 0.73972 0.20711 0.39077 0.0
H239 H 0.74685 0.12289 0.42487 0.0
Eu240 Eu 0.1186 0.32762 0.63838 0.0
Eu241 Eu 0.18759 0.36728 0.61716 0.0
C242 C 0.1232 0.33249 0.59331 0.0
C243 C 0.03845 0.25978 0.65141 0.0
C244 C 0.03583 0.2443 0.63431 0.0
C245 C 0.99455 0.21194 0.66386 0.0
C246 C 1.01264 0.21287 0.63198 0.0
C247 C 1.01763 0.24344 0.66613 0.0
C248 C 0.99186 0.19624 0.64678 0.0
C249 C 0.06396 0.29224 0.65439 0.0
O250 O 0.16724 0.39918 0.61792 0.0
O251 O 0.13334 0.37876 0.64302 0.0
C252 C 0.15004 0.40183 0.63117 0.0
O253 O 0.15596 0.3385 0.66017 0.0
O254 O 0.2197 0.40183 0.59675 0.0
O255 O 0.23533 0.37571 0.61372 0.0
O256 O 0.19609 0.38356 0.64762 0.0
C257 C 0.18251 0.36497 0.6621 0.0
O258 O 0.12826 0.29139 0.62544 0.0
O259 O 0.18179 0.321 0.62635 0.0
O260 O 0.15249 0.33838 0.59415 0.0
O261 O 0.09024 0.29522 0.66067 0.0
O262 O 0.06862 0.31225 0.64099 0.0
O263 O 0.10877 0.33427 0.60838 0.0
C264 C 0.27457 0.42699 0.60466 0.0
C265 C 0.27936 0.45728 0.60159 0.0
C266 C 0.33036 0.45005 0.61189 0.0
C267 C 0.3094 0.48366 0.60358 0.0
C268 C 0.30042 0.42374 0.60984 0.0
C269 C 0.33537 0.48038 0.60865 0.0
C270 C 0.24346 0.39847 0.60168 0.0
C271 C 0.15602 0.29361 0.62545 0.0
H272 H 0.052 0.25641 0.62285 0.0
H273 H 0.97871 0.19991 0.67545 0.0
H274 H 1.01145 0.20137 0.61874 0.0
H275 H 1.01945 0.25494 0.67947 0.0
H276 H 0.26003 0.46065 0.59743 0.0
H277 H 0.34958 0.44654 0.6161 0.0
H278 H 0.31236 0.50658 0.60073 0.0
H279 H 0.29754 0.40071 0.61218 0.0
Eu280 Eu 0.21228 0.85029 0.90402 0.0
Eu281 Eu 0.24235 0.92196 0.88635 0.0
C282 C 0.21534 0.86157 0.85961 0.0
C283 C 0.18608 0.76321 0.91349 0.0
C284 C 0.19551 0.75733 0.89601 0.0
C285 C 0.17024 0.71007 0.92332 0.0
C286 C 0.19207 0.72784 0.89216 0.0
C287 C 0.17366 0.73947 0.92712 0.0
C288 C 0.17918 0.70373 0.90574 0.0
C289 C 0.18716 0.79313 0.91743 0.0
O290 O 0.19573 0.91034 0.89932 0.0
O291 O 0.17189 0.85719 0.896 0.0
C292 C 0.17019 0.88271 0.89824 0.0
O293 O 0.21885 0.88328 0.92829 0.0
O294 O 0.2449 0.95411 0.86415 0.0
O295 O 0.2722 0.97255 0.8896 0.0
O296 O 0.2616 0.92518 0.91541 0.0
C297 C 0.24425 0.91097 0.9301 0.0
O298 O 0.26424 0.86868 0.90161 0.0
O299 O 0.27947 0.90868 0.87993 0.0
O300 O 0.21548 0.88777 0.86314 0.0
O301 O 0.21368 0.81642 0.9235 0.0
O302 O 0.17361 0.80209 0.90506 0.0
O303 O 0.22023 0.84608 0.87302 0.0
C304 C 0.2518 1.00218 0.87564 0.0
C305 C 0.23197 1.00048 0.89041 0.0
C306 C 0.25213 0.04871 0.86384 0.0
C307 C 0.22261 0.02298 0.892 0.0
C308 C 0.26164 0.02632 0.86233 0.0
C309 C 0.23267 0.04744 0.87877 0.0
C310 C 0.26251 0.97914 0.87407 0.0
C311 C 0.28482 0.8889 0.88961 0.0
H312 H 0.20514 0.77539 0.88528 0.0
H313 H 0.15979 0.69203 0.93401 0.0
H314 H 0.19953 0.72394 0.87857 0.0
H315 H 0.166 0.74347 0.94063 0.0
H316 H 0.22387 0.98186 0.90076 0.0
H317 H 0.26056 0.06739 0.85352 0.0
H318 H 0.20731 0.02108 0.90352 0.0
H319 H 0.27691 0.02802 0.85084 0.0
Eu320 Eu 0.71562 0.79967 0.63293 0.0
Eu321 Eu 0.67621 0.83107 0.61475 0.0
C322 C 0.71573 0.80941 0.58909 0.0
C323 C 0.78527 0.78973 0.64405 0.0
C324 C 0.79626 0.76844 0.64318 0.0
C325 C 0.83908 0.83282 0.6413 0.0
C326 C 0.82846 0.77922 0.64136 0.0
C327 C 0.8069 0.82201 0.64298 0.0
C328 C 0.85032 0.81158 0.64043 0.0
C329 C 0.75126 0.77816 0.64537 0.0
O330 O 0.63966 0.78394 0.62545 0.0
O331 O 0.66843 0.75905 0.62338 0.0
C332 C 0.64116 0.75814 0.62433 0.0
O333 O 0.6835 0.79719 0.65603 0.0
O334 O 0.63908 0.82852 0.59657 0.0
O335 O 0.66959 0.87153 0.61161 0.0
O336 O 0.6778 0.83856 0.64651 0.0
C337 C 0.67652 0.81908 0.65969 0.0
O338 O 0.74463 0.85209 0.63765 0.0
O339 O 0.72734 0.8674 0.61209 0.0
O340 O 0.68851 0.80834 0.59072 0.0
O341 O 0.74302 0.79492 0.65556 0.0
O342 O 0.73563 0.76906 0.62955 0.0
O343 O 0.73401 0.81565 0.60378 0.0
C344 C 0.61751 0.86008 0.60595 0.0
C345 C 0.59291 0.8379 0.6172 0.0
C346 C 0.59067 0.89015 0.60374 0.0
C347 C 0.56717 0.84169 0.62153 0.0
C348 C 0.61626 0.88626 0.59936 0.0
C349 C 0.56572 0.86786 0.61481 0.0
C350 C 0.64473 0.85659 0.60098 0.0
C351 C 0.74815 0.87371 0.62546 0.0
H352 H 0.77991 0.74345 0.64375 0.0
H353 H 0.85515 0.85786 0.64087 0.0
H354 H 0.83613 0.76214 0.6404 0.0
H355 H 0.79892 0.8389 0.64344 0.0
H356 H 0.59356 0.81764 0.62258 0.0
H357 H 0.59014 0.91033 0.59813 0.0
H358 H 0.54853 0.82426 0.63024 0.0
H359 H 0.63504 0.90365 0.59069 0.0
Eu360 Eu 0.18446 0.37005 0.90213 0.0
Eu361 Eu 0.11754 0.32513 0.8795 0.0
C362 C 0.18181 0.36579 0.85679 0.0
C363 C 0.27068 0.43307 0.91442 0.0
C364 C 0.2894 0.42803 0.90152 0.0
C365 C 0.31437 0.48573 0.92005 0.0
C366 C 0.32046 0.45172 0.89797 0.0
C367 C 0.28352 0.46208 0.92366 0.0
C368 C 0.33326 0.48094 0.90714 0.0
C369 C 0.23787 0.40882 0.91874 0.0
O370 O 0.13232 0.29243 0.89212 0.0
O371 O 0.1854 0.3267 0.89288 0.0
C372 C 0.16139 0.29792 0.89279 0.0
O373 O 0.15079 0.34027 0.9254 0.0
O374 O 0.09142 0.29013 0.85785 0.0
O375 O 0.06792 0.30923 0.87434 0.0
O376 O 0.10375 0.32313 0.90978 0.0
C377 C 0.11979 0.32664 0.92531 0.0
O378 O 0.15292 0.39067 0.90452 0.0
O379 O 0.1294 0.3757 0.87585 0.0
O380 O 0.156 0.33861 0.85837 0.0
O381 O 0.21623 0.41575 0.91459 0.0
O382 O 0.2289 0.37957 0.91511 0.0
O383 O 0.19388 0.3848 0.87131 0.0
C384 C 0.03858 0.25583 0.86553 0.0
C385 C 0.03474 0.24141 0.88316 0.0
C386 C 0.99484 0.20762 0.85331 0.0
C387 C 1.01106 0.21026 0.88586 0.0
C388 C 1.01842 0.2388 0.85066 0.0
C389 C 0.99099 0.19289 0.87091 0.0
C390 C 0.06461 0.28789 0.86219 0.0
C391 C 0.13963 0.39568 0.88995 0.0
H392 H 0.28006 0.4059 0.89413 0.0
H393 H 0.32355 0.50771 0.92759 0.0
H394 H 0.33429 0.44735 0.88783 0.0
H395 H 0.26962 0.46647 0.93375 0.0
H396 H 0.05036 0.25409 0.89476 0.0
H397 H 0.97956 0.19504 0.84158 0.0
H398 H 1.00897 0.19953 0.89951 0.0
H399 H 1.02116 0.24952 0.83693 0.0
Eu400 Eu 0.24494 0.92543 0.63241 0.0
Eu401 Eu 0.21167 0.85195 0.61776 0.0
C402 C 0.24296 0.90968 0.58988 0.0
C403 C 0.25359 1.00534 0.64198 0.0
C404 C 0.22367 0.9958 0.63448 0.0
C405 C 0.25982 0.05645 0.64884 0.0
C406 C 0.21205 0.01657 0.63393 0.0
C407 C 0.27143 0.03565 0.64934 0.0
C408 C 0.23015 0.04733 0.64089 0.0
C409 C 0.26696 0.98446 0.64117 0.0
O410 O 0.2632 0.86789 0.62021 0.0
O411 O 0.28312 0.91338 0.63787 0.0
C412 C 0.28595 0.89059 0.63006 0.0
O413 O 0.22202 0.89522 0.65779 0.0
O414 O 0.21103 0.81671 0.59859 0.0
O415 O 0.17241 0.80404 0.61792 0.0
O416 O 0.22125 0.85006 0.64878 0.0
C417 C 0.22025 0.86838 0.66193 0.0
O418 O 0.19617 0.912 0.62195 0.0
O419 O 0.17271 0.85951 0.62771 0.0
O420 O 0.21638 0.88365 0.59304 0.0
O421 O 0.25685 0.96202 0.65363 0.0
O422 O 0.26863 0.97469 0.62439 0.0
O423 O 0.2626 0.92314 0.60378 0.0
C424 C 0.18436 0.76441 0.61015 0.0
C425 C 0.18647 0.75613 0.62884 0.0
C426 C 0.17761 0.71446 0.59958 0.0
C427 C 0.18374 0.72702 0.63288 0.0
C428 C 0.18015 0.74346 0.59558 0.0
C429 C 0.17909 0.70574 0.6183 0.0
C430 C 0.18503 0.794 0.60562 0.0
C431 C 0.17083 0.8848 0.62501 0.0
H432 H 0.2096 0.97251 0.62865 0.0
H433 H 0.27419 0.07975 0.65461 0.0
H434 H 0.1893 1.00879 0.62752 0.0
H435 H 0.29456 0.04342 0.6552 0.0
H436 H 0.18988 0.772 0.64034 0.0
H437 H 0.17373 0.69855 0.58803 0.0
H438 H 0.1854 0.72122 0.64741 0.0
H439 H 0.17833 0.74933 0.58108 0.0
Eu440 Eu 0.67377 0.827 0.90215 0.0
Eu441 Eu 0.71471 0.79719 0.88385 0.0
C442 C 0.67516 0.81621 0.85709 0.0
C443 C 0.61393 0.85491 0.91033 0.0
C444 C 0.61515 0.88354 0.91371 0.0
C445 C 0.56116 0.83413 0.89752 0.0
C446 C 0.58966 0.8875 0.90907 0.0
C447 C 0.58679 0.83024 0.90207 0.0
C448 C 0.56226 0.86281 0.90099 0.0
C449 C 0.64118 0.85149 0.91561 0.0
O450 O 0.74277 0.84976 0.87973 0.0
O451 O 0.72466 0.86387 0.90537 0.0
C452 C 0.74576 0.87088 0.89213 0.0
O453 O 0.68627 0.80434 0.92616 0.0
O454 O 0.74513 0.79573 0.86197 0.0
O455 O 0.73397 0.76591 0.88653 0.0
O456 O 0.73208 0.81218 0.91331 0.0
C457 C 0.71355 0.80554 0.92788 0.0
O458 O 0.63789 0.77964 0.89128 0.0
O459 O 0.66756 0.75557 0.89239 0.0
O460 O 0.68281 0.7947 0.86052 0.0
O461 O 0.63583 0.82346 0.91989 0.0
O462 O 0.66647 0.86703 0.90544 0.0
O463 O 0.67583 0.83513 0.87045 0.0
C464 C 0.78532 0.78833 0.8745 0.0
C465 C 0.80363 0.81486 0.88569 0.0
C466 C 0.83129 0.78309 0.86911 0.0
C467 C 0.83557 0.82545 0.88858 0.0
C468 C 0.79932 0.77254 0.86621 0.0
C469 C 0.84983 0.80966 0.88035 0.0
C470 C 0.75167 0.77713 0.8716 0.0
C471 C 0.64002 0.75413 0.89181 0.0
H472 H 0.63584 0.90287 0.92007 0.0
H473 H 0.54057 0.81476 0.89112 0.0
H474 H 0.59119 0.90975 0.91215 0.0
H475 H 0.58535 0.80798 0.89916 0.0
H476 H 0.79314 0.8273 0.89225 0.0
H477 H 0.84157 0.77062 0.86236 0.0
H478 H 0.84898 0.8457 0.89751 0.0
H479 H 0.78554 0.75207 0.8575 0.0
H480 H 0.09827 0.23696 0.11423 0.0
H481 H 0.13834 0.22138 0.11189 0.0
H482 H 0.11625 0.18366 0.16823 0.0
H483 H 0.07587 0.19885 0.17063 0.0
H484 H 0.19172 0.24047 0.13759 0.0
H485 H 0.11175 0.11133 0.13483 0.0
H486 H 0.09865 0.13881 0.12941 0.0
H487 H 0.1048 0.13187 0.15346 0.0
C488 C 0.10173 0.22508 0.12606 0.0
C489 C 0.08384 0.21907 0.1426 0.0
C490 C 0.12471 0.21633 0.12473 0.0
C491 C 0.13 0.20108 0.13981 0.0
C492 C 0.11225 0.19507 0.15635 0.0
H493 H 0.25818 0.12891 0.15607 0.0
H494 H 0.21642 0.142 0.15907 0.0
C495 C 0.08941 0.20401 0.15775 0.0
C496 C 0.15471 0.19228 0.13839 0.0
H497 H 0.16626 0.12951 0.13628 0.0
C498 C 0.18621 0.21623 0.13725 0.0
C499 C 0.14738 0.16064 0.13811 0.0
C500 C 0.11382 0.13407 0.13888 0.0
C501 C 0.21069 0.2094 0.13602 0.0
C502 C 0.20338 0.17772 0.13541 0.0
C503 C 0.17184 0.15376 0.1367 0.0
C504 C 0.22816 0.16902 0.13328 0.0
C505 C 0.24418 0.23622 0.13582 0.0
C506 C 0.24818 0.17923 0.11757 0.0
C507 C 0.27216 0.17195 0.11586 0.0
C508 C 0.2764 0.15395 0.12973 0.0
C509 C 0.25566 0.14289 0.14516 0.0
C510 C 0.23176 0.15035 0.1469 0.0
H511 H 0.24609 0.25789 0.1419 0.0
H512 H 0.25993 0.23028 0.14385 0.0
H513 H 0.25261 0.24137 0.12104 0.0
H514 H 0.24533 0.19294 0.10662 0.0
H515 H 0.28747 0.1806 0.10369 0.0
H516 H 0.16863 0.92137 0.38696 0.0
H517 H 0.11251 0.88446 0.39074 0.0
H518 H 0.09211 0.95853 0.37971 0.0
H519 H 0.14825 0.99551 0.37527 0.0
H520 H 0.07172 0.88761 0.41708 0.0
H521 H 0.0323 0.88895 0.34366 0.0
H522 H 0.07311 0.90408 0.34967 0.0
H523 H 0.0544 0.92652 0.3549 0.0
C524 C 0.15223 0.92976 0.38498 0.0
C525 C 0.16302 0.96142 0.38067 0.0
C526 C 0.12014 0.90866 0.38732 0.0
C527 C 0.09807 0.91864 0.38532 0.0
C528 C 0.10866 0.95019 0.38103 0.0
H529 H 0.89153 0.79927 0.39333 0.0
H530 H 0.94402 0.84621 0.39194 0.0
C531 C 0.14081 0.97136 0.37869 0.0
C532 C 0.06414 0.89598 0.38826 0.0
H533 H 0.99321 0.85734 0.36563 0.0
C534 C 0.05452 0.88115 0.40586 0.0
C535 C 0.04165 0.88779 0.37367 0.0
C536 C 0.05077 0.90243 0.35434 0.0
C537 C 1.02323 0.85783 0.40914 0.0
C538 C 1.00103 0.84874 0.39433 0.0
C539 C 1.01029 0.86441 0.37696 0.0
C540 C 0.96908 0.82093 0.39602 0.0
C541 C 1.01427 0.84284 0.42837 0.0
C542 C 0.96582 0.79126 0.39867 0.0
C543 C 0.93608 0.76456 0.39936 0.0
C544 C 0.90876 0.76682 0.39736 0.0
C545 C 0.91201 0.79666 0.39494 0.0
C546 C 0.94198 0.82349 0.39412 0.0
H547 H 0.03071 0.85841 0.43943 0.0
H548 H 0.99 0.83696 0.43218 0.0
H549 H 1.01527 0.82083 0.42829 0.0
H550 H 0.98639 0.78865 0.39983 0.0
H551 H 0.93461 0.74205 0.40124 0.0
H552 H 0.85728 0.10656 0.10519 0.0
H553 H 0.8464 0.05298 0.11003 0.0
H554 H 0.9014 0.08145 0.16114 0.0
H555 H 0.91288 0.13538 0.15627 0.0
H556 H 0.91309 0.04194 0.13911 0.0
H557 H 0.78494 0.99256 0.14895 0.0
H558 H 0.79932 1.01363 0.12721 0.0
H559 H 0.81245 0.03416 0.14929 0.0
C560 C 0.86718 0.10154 0.11745 0.0
C561 C 0.88578 0.12531 0.13042 0.0
C562 C 0.86075 0.07079 0.12025 0.0
C563 C 0.87252 0.06305 0.13616 0.0
C564 C 0.89187 0.08685 0.14885 0.0
H565 H 0.80046 0.87031 0.1741 0.0
H566 H 0.81665 0.92601 0.1721 0.0
C567 C 0.89839 0.11768 0.14603 0.0
C568 C 0.86455 0.0301 0.13953 0.0
H569 H 0.80259 0.95584 0.14513 0.0
C570 C 0.88895 0.02312 0.14053 0.0
C571 C 0.83308 1.00562 0.14172 0.0
C572 C 0.80594 1.01183 0.14193 0.0
C573 C 0.88267 0.99222 0.14314 0.0
C574 C 0.85109 0.96755 0.14445 0.0
C575 C 0.82677 0.97468 0.14395 0.0
C576 C 0.84263 0.93412 0.1461 0.0
C577 C 0.90995 0.98637 0.14469 0.0
C578 C 0.85168 0.92006 0.13212 0.0
C579 C 0.84251 0.88827 0.13325 0.0
C580 C 0.82376 0.86972 0.14829 0.0
C581 C 0.81471 0.88386 0.16228 0.0
C582 C 0.82403 0.91572 0.16118 0.0
H583 H 0.93183 1.00784 0.14912 0.0
H584 H 0.9049 0.96737 0.15494 0.0
H585 H 0.91433 0.97922 0.13071 0.0
H586 H 0.86527 0.93351 0.12008 0.0
H587 H 0.84937 0.87801 0.12204 0.0
H588 H 0.29891 0.19918 0.39487 0.0
H589 H 0.25296 0.20528 0.39186 0.0
H590 H 0.19246 0.10499 0.39436 0.0
H591 H 0.23868 0.09852 0.39762 0.0
H592 H 0.20808 0.18017 0.36255 0.0
H593 H 0.15365 0.13881 0.43324 0.0
H594 H 0.19405 0.14998 0.4285 0.0
H595 H 0.16277 0.11318 0.42006 0.0
C596 C 0.2759 0.17828 0.39493 0.0
C597 C 0.27258 0.14828 0.39644 0.0
C598 C 0.24961 0.18188 0.39318 0.0
C599 C 0.2193 0.15565 0.39298 0.0
C600 C 0.21566 0.1256 0.39474 0.0
H601 H 0.04297 0.15952 0.38138 0.0
H602 H 0.0809 0.14126 0.38448 0.0
C603 C 0.24211 0.12193 0.39652 0.0
C604 C 0.19197 0.16032 0.39013 0.0
H605 H 0.12838 0.15635 0.41232 0.0
C606 C 0.19051 0.17474 0.37338 0.0
C607 C 0.16899 0.15304 0.40422 0.0
C608 C 0.16985 0.13807 0.4226 0.0
C609 C 0.16714 0.18276 0.3705 0.0
C610 C 0.14492 0.17668 0.3849 0.0
C611 C 0.14558 0.16114 0.40136 0.0
C612 C 0.12183 0.18765 0.38342 0.0
C613 C 0.16653 0.19782 0.35209 0.0
C614 C 0.13227 0.21982 0.38214 0.0
C615 C 0.11071 0.23036 0.38048 0.0
C616 C 0.07819 0.20893 0.38016 0.0
C617 C 0.06781 0.1767 0.38175 0.0
C618 C 0.08943 0.16618 0.38344 0.0
H619 H 0.17901 0.19282 0.34077 0.0
H620 H 0.14201 0.18955 0.34743 0.0
H621 H 0.17849 0.22361 0.35399 0.0
H622 H 0.15716 0.23684 0.38252 0.0
H623 H 0.11955 0.25534 0.37969 0.0
H624 H 0.15312 0.99034 0.12031 0.0
H625 H 0.09695 0.95348 0.11598 0.0
H626 H 0.10413 0.88642 0.15159 0.0
H627 H 0.16039 0.92264 0.15562 0.0
H628 H 0.06829 0.89079 0.1011 0.0
H629 H 0.0299 0.89364 0.17424 0.0
H630 H 0.06716 0.92363 0.16495 0.0
H631 H 0.06245 0.88674 0.1726 0.0
C632 C 0.14288 0.96767 0.12712 0.0
C633 C 0.16144 0.95957 0.13836 0.0
C634 C 0.11069 0.94672 0.12472 0.0
C635 C 0.09629 0.91742 0.13368 0.0
C636 C 0.11465 0.90919 0.14486 0.0
H637 H 0.93186 0.74186 0.11485 0.0
H638 H 0.98391 0.78831 0.11623 0.0
C639 C 0.14685 0.93 0.14718 0.0
C640 C 0.06232 0.89487 0.13083 0.0
H641 H 0.993 0.85229 0.15447 0.0
C642 C 0.05174 0.88263 0.11271 0.0
C643 C 0.04067 0.88457 0.14595 0.0
C644 C 0.05046 0.89799 0.16551 0.0
C645 C 1.02038 0.85926 0.1095 0.0
C646 C 0.99915 0.84775 0.12482 0.0
C647 C 1.00936 0.86104 0.14276 0.0
C648 C 0.9671 0.82021 0.12283 0.0
C649 C 1.0103 0.8467 0.08979 0.0
C650 C 0.94023 0.82267 0.12617 0.0
C651 C 0.91017 0.796 0.12532 0.0
C652 C 0.90658 0.76636 0.12146 0.0
C653 C 0.93364 0.76422 0.11792 0.0
C654 C 0.9635 0.79082 0.11858 0.0
H655 H 0.02635 0.86338 0.07902 0.0
H656 H 1.01068 0.82447 0.08833 0.0
H657 H 0.98599 0.84169 0.08687 0.0
H658 H 0.94254 0.84516 0.12958 0.0
H659 H 0.88991 0.79851 0.12815 0.0
H660 H 0.8019 0.87012 0.34525 0.0
H661 H 0.81773 0.9257 0.3475 0.0
H662 H 0.86605 0.93282 0.3997 0.0
H663 H 0.85055 0.87745 0.39747 0.0
H664 H 0.80315 0.95491 0.37444 0.0
H665 H 0.93253 1.00775 0.37121 0.0
H666 H 0.90588 0.96729 0.3652 0.0
H667 H 0.915 0.97891 0.38949 0.0
C668 C 0.81602 0.88358 0.35716 0.0
C669 C 0.82511 0.86938 0.37113 0.0
C670 C 0.82514 0.91536 0.3584 0.0
C671 C 0.84353 0.93362 0.3736 0.0
C672 C 0.85262 0.9195 0.38756 0.0
H673 H 0.85636 0.10548 0.41436 0.0
H674 H 0.84573 0.05194 0.40965 0.0
C675 C 0.84368 0.88778 0.38628 0.0
C676 C 0.85174 0.96694 0.3754 0.0
H677 H 0.91334 0.04143 0.3812 0.0
C678 C 0.82727 0.97384 0.37579 0.0
C679 C 0.88323 0.99172 0.37693 0.0
C680 C 0.91069 0.98614 0.3755 0.0
C681 C 0.83333 1.00469 0.37809 0.0
C682 C 0.86471 0.02928 0.38048 0.0
C683 C 0.88927 0.02252 0.37962 0.0
C684 C 0.87246 0.06216 0.3838 0.0
C685 C 0.80605 1.01067 0.37768 0.0
C686 C 0.89206 0.08602 0.37125 0.0
C687 C 0.89847 0.1168 0.374 0.0
C688 C 0.88545 0.12433 0.3894 0.0
C689 C 0.86657 0.10051 0.40225 0.0
C690 C 0.86028 0.0698 0.39952 0.0
H691 H 0.78522 0.99138 0.3705 0.0
H692 H 0.79916 1.01225 0.39235 0.0
H693 H 0.81251 0.03303 0.37037 0.0
H694 H 0.90191 0.0807 0.3591 0.0
H695 H 0.9132 0.13455 0.36386 0.0
H696 H 0.26414 0.10961 0.63173 0.0
H697 H 0.24545 0.14693 0.62859 0.0
H698 H 0.15131 0.07403 0.64202 0.0
H699 H 0.17002 0.03669 0.64591 0.0
H700 H 0.20067 0.14474 0.60381 0.0
H701 H 0.16428 0.14407 0.6781 0.0
H702 H 0.18869 0.12795 0.67126 0.0
H703 H 0.14709 0.10636 0.6669 0.0
C704 C 0.23955 0.10156 0.63437 0.0
C705 C 0.21867 0.07013 0.63924 0.0
C706 C 0.22884 0.1229 0.63239 0.0
C707 C 0.19705 0.11341 0.63528 0.0
C708 C 0.17604 0.08204 0.64003 0.0
H709 H 0.10942 0.23207 0.62995 0.0
H710 H 0.11573 0.18564 0.63103 0.0
C711 C 0.18674 0.06064 0.64205 0.0
C712 C 0.18609 0.13639 0.63286 0.0
H713 H 0.15539 0.17534 0.65657 0.0
C714 C 0.19062 0.1513 0.61533 0.0
C715 C 0.17272 0.14476 0.64785 0.0
C716 C 0.16808 0.13019 0.66715 0.0
C717 C 0.18276 0.17476 0.61247 0.0
C718 C 0.17043 0.1839 0.62763 0.0
C719 C 0.16481 0.16824 0.64497 0.0
C720 C 0.16594 0.21148 0.62623 0.0
C721 C 0.18796 0.18978 0.59328 0.0
C722 C 0.19205 0.24133 0.62329 0.0
C723 C 0.18859 0.26776 0.62274 0.0
C724 C 0.15887 0.265 0.62515 0.0
C725 C 0.13259 0.235 0.62794 0.0
C726 C 0.13616 0.20847 0.62861 0.0
H727 H 0.18854 0.17435 0.58206 0.0
H728 H 0.16927 0.19542 0.58985 0.0
H729 H 0.21091 0.21193 0.59319 0.0
H730 H 0.21532 0.24429 0.62176 0.0
H731 H 0.20937 0.29044 0.62059 0.0
H732 H 0.1134 0.82887 0.89943 0.0
H733 H 0.06124 0.82313 0.89844 0.0
H734 H 0.10246 0.92362 0.89737 0.0
H735 H 0.15526 0.92973 0.89816 0.0
H736 H 0.0327 0.846 0.92345 0.0
H737 H 0.04368 0.89365 0.85088 0.0
H738 H 0.07063 0.88202 0.86006 0.0
H739 H 0.07354 0.91816 0.86757 0.0
C740 C 0.11156 0.84987 0.89901 0.0
C741 C 0.13862 0.8798 0.89874 0.0
C742 C 0.08162 0.84649 0.89849 0.0
C743 C 0.07793 0.87289 0.89759 0.0
C744 C 0.1048 0.9029 0.89776 0.0
H745 H 0.89917 0.87022 0.88108 0.0
H746 H 0.95484 0.8881 0.88676 0.0
C747 C 0.13493 0.90635 0.89832 0.0
C748 C 0.04576 0.86842 0.89629 0.0
H749 H 0.99506 0.87503 0.86611 0.0
C750 C 0.02453 0.85259 0.91098 0.0
C751 C 0.03517 0.87713 0.88004 0.0
C752 C 0.05677 0.8935 0.86364 0.0
C753 C 0.99286 0.84469 0.90972 0.0
C754 C 0.98196 0.85225 0.89316 0.0
C755 C 1.00343 0.86912 0.87875 0.0
C756 C 0.94812 0.8415 0.89013 0.0
C757 C 0.97134 0.82821 0.92614 0.0
C758 C 0.92588 0.80935 0.8899 0.0
C759 C 0.89407 0.79906 0.88676 0.0
C760 C 0.88378 0.8207 0.88363 0.0
C761 C 0.90619 0.85292 0.8837 0.0
C762 C 0.93805 0.8632 0.88684 0.0
H763 H 0.98474 0.83262 0.93951 0.0
H764 H 0.95372 0.83584 0.92792 0.0
H765 H 0.95861 0.80256 0.92354 0.0
H766 H 0.93318 0.79215 0.89204 0.0
H767 H 0.87748 0.77412 0.88696 0.0
H768 H 0.7926 0.89813 0.65354 0.0
H769 H 0.83487 0.95259 0.6572 0.0
H770 H 0.80769 0.97671 0.60476 0.0
H771 H 0.7651 0.92269 0.60117 0.0
H772 H 0.88585 0.99098 0.63497 0.0
H773 H 0.80591 0.03958 0.64081 0.0
H774 H 0.79204 0.99812 0.64229 0.0
H775 H 0.79986 0.01722 0.6197 0.0
C776 C 0.79564 0.91501 0.64276 0.0
C777 C 0.7752 0.90608 0.62717 0.0
C778 C 0.81982 0.94613 0.64488 0.0
C779 C 0.824 0.96889 0.63147 0.0
C780 C 0.80439 0.95976 0.61555 0.0
H781 H 0.95358 0.16778 0.61637 0.0
H782 H 0.91387 0.11231 0.61273 0.0
C783 C 0.78014 0.92876 0.61347 0.0
C784 C 0.84876 1.0022 0.63411 0.0
H785 H 0.86035 0.07649 0.63729 0.0
C786 C 0.88027 1.00966 0.6356 0.0
C787 C 0.84145 0.02658 0.63498 0.0
C788 C 0.80796 0.02001 0.63455 0.0
C789 C 0.9047 0.04088 0.6375 0.0
C790 C 0.89737 0.06522 0.63808 0.0
C791 C 0.86589 0.05777 0.63671 0.0
C792 C 0.922 0.0986 0.6402 0.0
C793 C 0.93823 0.04772 0.63846 0.0
C794 C 0.93952 0.1093 0.65693 0.0
C795 C 0.96216 0.14097 0.65907 0.0
C796 C 0.96774 0.16256 0.6445 0.0
C797 C 0.9501 0.15171 0.62776 0.0
C798 C 0.92733 0.12007 0.62569 0.0
H799 H 0.94043 0.02736 0.63382 0.0
H800 H 0.95374 0.06828 0.62956 0.0
H801 H 0.94674 0.05336 0.65322 0.0
H802 H 0.93548 0.09319 0.6684 0.0
H803 H 0.97551 0.1485 0.67207 0.0
H804 H 0.11942 0.23591 0.88579 0.0
H805 H 0.13011 0.19253 0.88414 0.0
H806 H 0.22728 0.25571 0.89827 0.0
H807 H 0.21701 0.29935 0.8994 0.0
H808 H 0.22291 0.21946 0.86943 0.0
H809 H 0.14238 0.14432 0.92574 0.0
H810 H 0.12269 0.15361 0.90771 0.0
H811 H 0.15181 0.18438 0.92229 0.0
C812 C 0.14302 0.24055 0.88872 0.0
C813 C 0.16734 0.27116 0.89277 0.0
C814 C 0.14906 0.21563 0.88788 0.0
C815 C 0.17941 0.22065 0.89139 0.0
C816 C 0.20365 0.25116 0.89557 0.0
H817 H 0.23112 0.07759 0.91087 0.0
H818 H 0.21788 0.11917 0.91374 0.0
C819 C 0.19771 0.27612 0.89623 0.0
C820 C 0.18636 0.19453 0.88989 0.0
H821 H 0.16486 0.12123 0.90631 0.0
C822 C 0.21027 0.19804 0.87756 0.0
C823 C 0.17018 0.16667 0.90065 0.0
C824 C 0.14556 0.16208 0.91498 0.0
C825 C 0.21824 0.17448 0.87555 0.0
C826 C 0.20129 0.14616 0.88579 0.0
C827 C 0.17762 0.14276 0.89829 0.0
C828 C 0.20826 0.1201 0.88403 0.0
C829 C 0.2453 0.18056 0.86281 0.0
C830 C 0.20667 0.10627 0.86644 0.0
C831 C 0.21438 0.08259 0.86475 0.0
C832 C 0.2234 0.07188 0.88066 0.0
C833 C 0.22407 0.08513 0.89835 0.0
C834 C 0.21659 0.10898 0.9 0.0
H835 H 0.26123 0.20605 0.86042 0.0
H836 H 0.25926 0.17053 0.8688 0.0
H837 H 0.23594 0.16946 0.8489 0.0
H838 H 0.19946 0.11378 0.85398 0.0
H839 H 0.21304 0.07249 0.85098 0.0
H840 H 0.11549 0.83366 0.63524 0.0
H841 H 0.06364 0.82861 0.63708 0.0
H842 H 0.10224 0.92422 0.6186 0.0
H843 H 0.15479 0.92975 0.61674 0.0
H844 H 0.05032 0.87653 0.65957 0.0
H845 H 1.02199 0.86009 0.58279 0.0
H846 H 0.04876 0.84908 0.59307 0.0
H847 H 0.06051 0.88968 0.5907 0.0
C848 C 0.11315 0.85371 0.6315 0.0
C849 C 0.1394 0.88215 0.62582 0.0
C850 C 0.08343 0.85073 0.6326 0.0
C851 C 0.07918 0.87597 0.62793 0.0
C852 C 0.10515 0.90444 0.62219 0.0
H853 H 0.8941 0.86133 0.61953 0.0
H854 H 0.95053 0.88065 0.61713 0.0
C855 C 0.13511 0.90756 0.62118 0.0
C856 C 0.04739 0.87209 0.62936 0.0
H857 H 0.98143 0.8525 0.6035 0.0
C858 C 0.03531 0.87166 0.64732 0.0
C859 C 0.02807 0.86593 0.61334 0.0
C860 C 0.04024 0.86611 0.59381 0.0
C861 C 1.00405 0.86451 0.64973 0.0
C862 C 0.9841 0.85665 0.63378 0.0
C863 C 0.99662 0.85828 0.61574 0.0
C864 C 0.94993 0.84538 0.63559 0.0
C865 C 0.99275 0.86544 0.66937 0.0
C866 C 0.93069 0.81887 0.64657 0.0
C867 C 0.89849 0.808 0.64819 0.0
C868 C 0.88467 0.82314 0.63864 0.0
C869 C 0.90396 0.84941 0.62738 0.0
C870 C 0.93623 0.86038 0.62587 0.0
H871 H 1.01256 0.88145 0.67866 0.0
H872 H 0.97503 0.87316 0.66919 0.0
H873 H 0.98179 0.84163 0.67563 0.0
H874 H 0.94053 0.80639 0.65383 0.0
H875 H 0.88453 0.7879 0.6571 0.0
H876 H 0.95118 0.16621 0.90091 0.0
H877 H 0.911 0.11104 0.90514 0.0
H878 H 0.93477 0.08887 0.85102 0.0
H879 H 0.97532 0.1438 0.84683 0.0
H880 H 0.8585 0.07407 0.88072 0.0
H881 H 0.93789 0.02461 0.88743 0.0
H882 H 0.95144 0.06584 0.89045 0.0
H883 H 0.94475 0.04924 0.86721 0.0
C884 C 0.94808 0.14953 0.89 0.0
C885 C 0.9665 0.15942 0.87354 0.0
C886 C 0.92503 0.11806 0.8924 0.0
C887 C 0.92018 0.09581 0.8785 0.0
C888 C 0.93844 0.10557 0.86205 0.0
H889 H 0.7913 0.89597 0.86484 0.0
H890 H 0.83354 0.9505 0.86177 0.0
C891 C 0.96137 0.13704 0.85959 0.0
C892 C 0.89536 0.06255 0.88094 0.0
H893 H 0.88332 0.98824 0.88508 0.0
C894 C 0.86389 0.05529 0.88178 0.0
C895 C 0.90249 0.03813 0.88219 0.0
C896 C 0.93597 0.04472 0.88194 0.0
C897 C 0.83927 0.02417 0.88349 0.0
C898 C 0.84638 0.99969 0.88488 0.0
C899 C 0.87789 1.00699 0.88404 0.0
C900 C 0.8214 0.96639 0.88716 0.0
C901 C 0.80583 0.01776 0.8833 0.0
C902 C 0.801 0.95701 0.90268 0.0
C903 C 0.77675 0.92592 0.90443 0.0
C904 C 0.77259 0.90343 0.89078 0.0
C905 C 0.79372 0.91267 0.87557 0.0
C906 C 0.81791 0.94385 0.87379 0.0
H907 H 0.80412 0.03746 0.87691 0.0
H908 H 0.79019 0.99599 0.87535 0.0
H909 H 0.79709 1.01476 0.898 0.0
H910 H 0.80373 0.97379 0.91343 0.0
H911 H 0.76113 0.91961 0.91643 0.0
H912 H 0.32914 0.13415 0.32998 0.0
H913 H 0.33948 0.14871 0.29696 0.0
H914 H 0.4266 0.23149 0.31188 0.0
H915 H 0.41667 0.21671 0.34533 0.0
H916 H 0.34883 0.20177 0.27772 0.0
H917 H 0.45413 0.18725 0.27381 0.0
H918 H 0.42762 0.17326 0.29363 0.0
H919 H 0.45479 0.21441 0.29097 0.0
C920 C 0.35052 0.15555 0.32638 0.0
C921 C 0.37222 0.17411 0.34037 0.0
C922 C 0.35633 0.16391 0.30743 0.0
C923 C 0.38394 0.191 0.30191 0.0
C924 C 0.40535 0.2102 0.31581 0.0
H925 H 0.38673 0.21874 0.17795 0.0
H926 H 0.39543 0.23433 0.2113 0.0
C927 C 0.39957 0.2018 0.33491 0.0
C928 C 0.39016 0.19779 0.28147 0.0
H929 H 0.43435 0.19449 0.24538 0.0
C930 C 0.3679 0.20086 0.27062 0.0
C931 C 0.41502 0.19648 0.27228 0.0
C932 C 0.43923 0.19249 0.28317 0.0
C933 C 0.3686 0.20059 0.25082 0.0
C934 C 0.39262 0.19777 0.24163 0.0
C935 C 0.41605 0.19677 0.25248 0.0
C936 C 0.39092 0.19067 0.22117 0.0
C937 C 0.34234 0.20098 0.23996 0.0
C938 C 0.38671 0.16153 0.21558 0.0
C939 C 0.38197 0.15269 0.19667 0.0
C940 C 0.38131 0.17279 0.1828 0.0
C941 C 0.38687 0.2026 0.18828 0.0
C942 C 0.39168 0.21149 0.20734 0.0
H943 H 0.3231 0.19848 0.24933 0.0
H944 H 0.35176 0.22353 0.23229 0.0
H945 H 0.33228 0.18176 0.22941 0.0
H946 H 0.38606 0.14508 0.22598 0.0
H947 H 0.37805 0.12966 0.19302 0.0
H948 H 0.82524 0.61922 0.34181 0.0
H949 H 0.83066 0.61116 0.3081 0.0
H950 H 0.86119 0.70837 0.29726 0.0
H951 H 0.85607 0.71663 0.33057 0.0
H952 H 0.79826 0.6211 0.2783 0.0
H953 H 0.92665 0.69575 0.26913 0.0
H954 H 0.90866 0.68213 0.29197 0.0
H955 H 0.90997 0.71592 0.28127 0.0
C956 C 0.83359 0.63895 0.33226 0.0
C957 C 0.84022 0.66856 0.3389 0.0
C958 C 0.83661 0.6343 0.31302 0.0
C959 C 0.84679 0.65928 0.30021 0.0
C960 C 0.85395 0.6889 0.30692 0.0
H961 H 0.85116 0.71553 0.18931 0.0
H962 H 0.85622 0.70682 0.2226 0.0
C963 C 0.85075 0.69351 0.326 0.0
C964 C 0.8478 0.65448 0.2796 0.0
H965 H 0.89494 0.68645 0.24112 0.0
C966 C 0.81952 0.63473 0.27015 0.0
C967 C 0.87559 0.67221 0.26901 0.0
C968 C 0.907 0.69245 0.27839 0.0
C969 C 0.81784 0.63413 0.25033 0.0
C970 C 0.84526 0.65351 0.23977 0.0
C971 C 0.87391 0.67171 0.24923 0.0
C972 C 0.84392 0.65838 0.2192 0.0
C973 C 0.78638 0.61444 0.24088 0.0
C974 C 0.83589 0.63414 0.20609 0.0
C975 C 0.83299 0.63907 0.18687 0.0
C976 C 0.83799 0.66829 0.1805 0.0
C977 C 0.84692 0.69266 0.19367 0.0
C978 C 0.84992 0.68777 0.21275 0.0
H979 H 0.76676 0.60386 0.25118 0.0
H980 H 0.78177 0.62882 0.2307 0.0
H981 H 0.78661 0.5952 0.23288 0.0
H982 H 0.83155 0.61138 0.21075 0.0
H983 H 0.82614 0.61983 0.1771 0.0
H984 H 0.82157 0.16152 0.17761 0.0
H985 H 0.80685 0.15542 0.21112 0.0
H986 H 0.88199 0.24955 0.22196 0.0
H987 H 0.89658 0.25587 0.18883 0.0
H988 H 0.84618 0.15973 0.24092 0.0
H989 H 0.80883 0.2476 0.25007 0.0
H990 H 0.81124 0.23284 0.22719 0.0
H991 H 0.84595 0.26387 0.23821 0.0
C992 C 0.8345 0.1811 0.18709 0.0
C993 C 0.86028 0.20916 0.18054 0.0
C994 C 0.82613 0.17755 0.20623 0.0
C995 C 0.84303 0.20219 0.21901 0.0
C996 C 0.86814 0.23045 0.21233 0.0
H997 H 0.90027 0.25377 0.32975 0.0
H998 H 0.88547 0.24706 0.29658 0.0
C999 C 0.87663 0.23392 0.19335 0.0
C1000 C 0.83684 0.19795 0.23962 0.0
H1001 H 0.82823 0.23454 0.27814 0.0
C1002 C 0.8414 0.17549 0.24908 0.0
C1003 C 0.83052 0.21848 0.25023 0.0
C1004 C 0.82353 0.24183 0.24087 0.0
C1005 C 0.84233 0.17469 0.26889 0.0
C1006 C 0.83817 0.19669 0.27947 0.0
C1007 C 0.83156 0.21778 0.27001 0.0
C1008 C 0.84476 0.20095 0.30003 0.0
C1009 C 0.84993 0.1518 0.27831 0.0
C1010 C 0.82631 0.1775 0.31314 0.0
C1011 C 0.83472 0.18128 0.33229 0.0
C1012 C 0.8618 0.20853 0.33857 0.0
C1013 C 0.87944 0.23236 0.32544 0.0
C1014 C 0.87095 0.22863 0.30643 0.0
H1015 H 0.85649 0.13911 0.26799 0.0
H1016 H 0.86957 0.16418 0.28849 0.0
H1017 H 0.82909 0.13426 0.28629 0.0
H1018 H 0.80574 0.15611 0.30853 0.0
H1019 H 0.8206 0.16251 0.34203 0.0
H1020 H 0.22204 0.42389 0.67651 0.0
H1021 H 0.23881 0.43734 0.70961 0.0
H1022 H 0.18984 0.33912 0.72392 0.0
H1023 H 0.17306 0.32565 0.69129 0.0
H1024 H 0.19559 0.41969 0.74091 0.0
H1025 H 0.27628 0.37293 0.74969 0.0
H1026 H 0.2668 0.38244 0.72687 0.0
H1027 H 0.2404 0.34568 0.73803 0.0
C1028 C 0.21543 0.40522 0.68669 0.0
C1029 C 0.1962 0.37371 0.6813 0.0
C1030 C 0.22493 0.41292 0.70557 0.0
C1031 C 0.21591 0.3892 0.71918 0.0
C1032 C 0.19758 0.3578 0.71363 0.0
H1033 H 0.17359 0.32684 0.82766 0.0
H1034 H 0.19016 0.34053 0.79511 0.0
C1035 C 0.18781 0.35014 0.69495 0.0
C1036 C 0.22282 0.39654 0.73955 0.0
H1037 H 0.24982 0.37523 0.77795 0.0
C1038 C 0.20826 0.41089 0.74903 0.0
C1039 C 0.23943 0.38511 0.75009 0.0
C1040 C 0.25689 0.37096 0.74062 0.0
C1041 C 0.2074 0.41145 0.76886 0.0
C1042 C 0.22191 0.39772 0.77942 0.0
C1043 C 0.23862 0.38568 0.76988 0.0
C1044 C 0.21534 0.39062 0.79984 0.0
C1045 C 0.18882 0.4244 0.77834 0.0
C1046 C 0.22474 0.41425 0.81358 0.0
C1047 C 0.21523 0.40642 0.83244 0.0
C1048 C 0.19606 0.37487 0.83775 0.0
C1049 C 0.18804 0.3514 0.82407 0.0
C1050 C 0.19762 0.35918 0.8054 0.0
H1051 H 0.17611 0.43105 0.76803 0.0
H1052 H 0.17145 0.40687 0.78826 0.0
H1053 H 0.20499 0.44554 0.7866 0.0
H1054 H 0.2388 0.43868 0.80964 0.0
H1055 H 0.2218 0.42502 0.84266 0.0
H1056 H 0.18606 0.87476 0.83155 0.0
H1057 H 0.1839 0.86226 0.79811 0.0
H1058 H 0.23327 0.81209 0.80913 0.0
H1059 H 0.23523 0.82426 0.84292 0.0
H1060 H 0.26037 0.86226 0.78052 0.0
H1061 H 0.13403 0.77803 0.76804 0.0
H1062 H 0.14134 0.81128 0.78218 0.0
H1063 H 0.15229 0.78385 0.79098 0.0
C1064 C 0.19601 0.8606 0.82695 0.0
C1065 C 0.21088 0.85054 0.83985 0.0
C1066 C 0.19456 0.85331 0.80784 0.0
C1067 C 0.20813 0.83599 0.80119 0.0
C1068 C 0.22238 0.82522 0.81405 0.0
H1069 H 0.21059 0.81271 0.67715 0.0
H1070 H 0.20821 0.79946 0.7108 0.0
C1071 C 0.22342 0.83213 0.83331 0.0
C1072 C 0.21006 0.83232 0.78059 0.0
H1073 H 0.16442 0.80662 0.74097 0.0
C1074 C 0.23951 0.84942 0.77186 0.0
C1075 C 0.18282 0.81554 0.76935 0.0
C1076 C 0.15082 0.79587 0.77809 0.0
C1077 C 0.24213 0.85197 0.75216 0.0
C1078 C 0.21465 0.83701 0.74097 0.0
C1079 C 0.18544 0.81813 0.74962 0.0
C1080 C 0.21549 0.84413 0.72064 0.0
C1081 C 0.27408 0.87192 0.7434 0.0
C1082 C 0.21991 0.87338 0.71518 0.0
C1083 C 0.22104 0.88092 0.69614 0.0
C1084 C 0.21788 0.85938 0.68209 0.0
C1085 C 0.21316 0.82986 0.68761 0.0
C1086 C 0.21179 0.82223 0.70678 0.0
H1087 H 0.29333 0.87629 0.75336 0.0
H1088 H 0.27653 0.8606 0.73048 0.0
H1089 H 0.27679 0.89488 0.73927 0.0
H1090 H 0.22257 0.89048 0.72571 0.0
H1091 H 0.22474 0.90387 0.69249 0.0
H1092 H 0.6759 0.86935 0.67622 0.0
H1093 H 0.66831 0.87595 0.70982 0.0
H1094 H 0.65248 0.78318 0.72122 0.0
H1095 H 0.65976 0.77633 0.68796 0.0
H1096 H 0.60973 0.79833 0.73991 0.0
H1097 H 0.73576 0.88882 0.75009 0.0
H1098 H 0.71412 0.89529 0.73184 0.0
H1099 H 0.72236 0.86385 0.72955 0.0
C1100 C 0.67039 0.85024 0.68587 0.0
C1101 C 0.66872 0.82243 0.67943 0.0
C1102 C 0.66626 0.85412 0.70506 0.0
C1103 C 0.66022 0.83018 0.71803 0.0
C1104 C 0.65721 0.80198 0.71146 0.0
H1105 H 0.65668 0.77331 0.82881 0.0
H1106 H 0.64903 0.78053 0.79564 0.0
C1107 C 0.6615 0.79817 0.69242 0.0
C1108 C 0.65842 0.83442 0.73861 0.0
H1109 H 0.70472 0.86909 0.77719 0.0
C1110 C 0.63033 0.81424 0.74805 0.0
C1111 C 0.68529 0.85526 0.74921 0.0
C1112 C 0.71622 0.877 0.73978 0.0
C1113 C 0.62881 0.81329 0.76783 0.0
C1114 C 0.65621 0.83266 0.77843 0.0
C1115 C 0.68375 0.85426 0.76901 0.0
C1116 C 0.65795 0.82794 0.79897 0.0
C1117 C 0.59813 0.79085 0.77723 0.0
C1118 C 0.66566 0.85229 0.81193 0.0
C1119 C 0.66998 0.84818 0.83107 0.0
C1120 C 0.66727 0.81987 0.83742 0.0
C1121 C 0.65901 0.79543 0.82441 0.0
C1122 C 0.65439 0.79943 0.80543 0.0
H1123 H 0.57776 0.78542 0.76796 0.0
H1124 H 0.59771 0.76854 0.78026 0.0
H1125 H 0.59532 0.80052 0.79076 0.0
H1126 H 0.66882 0.87459 0.80719 0.0
H1127 H 0.67655 0.86752 0.84072 0.0
H1128 H 0.20725 0.90191 0.96136 0.0
H1129 H 0.22139 0.9361 0.98926 0.0
H1130 H 0.31533 0.9929 0.96759 0.0
H1131 H 0.30147 0.95946 0.93986 0.0
H1132 H 0.26941 0.95468 0.0169 0.0
H1133 H 0.28598 0.0566 0.97468 0.0
H1134 H 0.26645 0.01717 0.96546 0.0
H1135 H 0.30869 0.03969 0.96636 0.0
C1136 C 0.231 0.92145 0.96271 0.0
C1137 C 0.2531 0.92816 0.94829 0.0
C1138 C 0.23902 0.94104 0.97859 0.0
C1139 C 0.26919 0.96756 0.98024 0.0
C1140 C 0.29167 0.97315 0.96637 0.0
H1141 H 0.36936 0.1193 0.061 0.0
H1142 H 0.35339 0.08411 0.03356 0.0
C1143 C 0.2837 0.95382 0.95055 0.0
C1144 C 0.27738 0.98986 0.99623 0.0
H1145 H 0.30407 0.067 1.00645 0.0
C1146 C 0.27673 0.97917 0.01465 0.0
C1147 C 0.28705 0.02189 0.99326 0.0
C1148 C 0.28684 0.03452 0.97389 0.0
C1149 C 0.28623 0.99977 0.03012 0.0
C1150 C 0.29619 0.03184 0.02712 0.0
C1151 C 0.29664 0.04249 1.00871 0.0
C1152 C 0.30548 0.05447 0.04299 0.0
C1153 C 0.28624 0.98717 0.04952 0.0
C1154 C 0.28358 0.05018 0.05699 0.0
C1155 C 0.29255 0.07019 0.07254 0.0
C1156 C 0.32366 0.09515 0.07445 0.0
C1157 C 0.34525 0.10036 0.05996 0.0
C1158 C 0.33619 0.08019 0.04433 0.0
H1159 H 0.28589 0.96447 0.04885 0.0
H1160 H 0.30719 1.00411 0.05772 0.0
H1161 H 0.26494 0.98325 0.05724 0.0
H1162 H 0.25956 0.031 0.05602 0.0
H1163 H 0.27514 0.06563 0.08329 0.0
H1164 H 0.84144 0.71997 0.46007 0.0
H1165 H 0.8276 0.74089 0.4876 0.0
H1166 H 0.73285 0.70158 0.4666 0.0
H1167 H 0.74645 0.6811 0.43919 0.0
H1168 H 0.75901 0.76384 0.47596 0.0
H1169 H 0.77482 0.69766 0.53429 0.0
H1170 H 0.80823 0.71804 0.51903 0.0
H1171 H 0.77228 0.68614 0.5099 0.0
C1172 C 0.81753 0.71529 0.46154 0.0
C1173 C 0.79511 0.6989 0.44741 0.0
C1174 C 0.80962 0.72725 0.47728 0.0
C1175 C 0.7791 0.72271 0.47923 0.0
C1176 C 0.75654 0.7055 0.46541 0.0
H1177 H 0.67968 0.77982 0.55778 0.0
H1178 H 0.69506 0.75994 0.53047 0.0
C1179 C 0.7644 0.69372 0.44974 0.0
C1180 C 0.77075 0.73714 0.495 0.0
H1181 H 0.7642 0.73784 0.54292 0.0
C1182 C 0.76009 0.75811 0.49061 0.0
C1183 C 0.77215 0.72968 0.51411 0.0
C1184 C 0.78222 0.70645 0.51969 0.0
C1185 C 0.75117 0.77207 0.50477 0.0
C1186 C 0.7524 0.76448 0.52387 0.0
C1187 C 0.7632 0.74363 0.52827 0.0
C1188 C 0.74324 0.7783 0.53961 0.0
C1189 C 0.74113 0.79531 0.49916 0.0
C1190 C 0.76508 0.79523 0.55382 0.0
C1191 C 0.75634 0.80643 0.5694 0.0
C1192 C 0.72543 0.80093 0.57123 0.0
C1193 C 0.70373 0.78477 0.55671 0.0
C1194 C 0.71253 0.7734 0.54108 0.0
H1195 H 0.74921 0.80462 0.48472 0.0
H1196 H 0.71508 0.78353 0.49933 0.0
H1197 H 0.75044 0.81529 0.50919 0.0
H1198 H 0.7889 0.79937 0.553 0.0
H1199 H 0.77375 0.81884 0.58025 0.0
H1200 H 0.14062 0.33913 0.96229 0.0
H1201 H 0.10833 0.32022 0.99104 0.0
H1202 H 0.02515 0.26859 0.95699 0.0
H1203 H 0.05674 0.28696 0.92852 0.0
H1204 H 0.05473 0.32801 1.00101 0.0
H1205 H 1.02159 0.20291 0.99496 0.0
H1206 H 0.05471 0.23383 0.98256 0.0
H1207 H 1.01545 0.21931 0.97384 0.0
C1208 C 0.11551 0.32354 0.96096 0.0
C1209 C 0.10138 0.31464 0.94305 0.0
C1210 C 0.09707 0.31286 0.97739 0.0
C1211 C 0.06434 0.29274 0.97616 0.0
C1212 C 0.05036 0.28372 0.95832 0.0
H1213 H 0.91502 0.24725 0.05852 0.0
H1214 H 0.949 0.26466 0.03051 0.0
C1215 C 0.06858 0.29448 0.94201 0.0
C1216 C 0.04431 0.28154 0.99333 0.0
H1217 H 0.99254 0.21492 0.0169 0.0
C1218 C 0.04129 0.30332 1.00458 0.0
C1219 C 0.02682 0.24931 0.998 0.0
C1220 C 0.02992 0.22495 0.98683 0.0
C1221 C 1.02077 0.29365 0.02014 0.0
C1222 C 1.00255 0.26132 0.02445 0.0
C1223 C 1.00614 0.23964 0.01344 0.0
C1224 C 0.98083 0.24964 0.0409 0.0
C1225 C 1.019 0.31813 0.032 0.0
C1226 C 0.98677 0.23449 0.05574 0.0
C1227 C 0.96743 0.22448 0.07165 0.0
C1228 C 0.94141 0.22909 0.07307 0.0
C1229 C 0.93478 0.24327 0.05788 0.0
C1230 C 0.95436 0.2535 0.04195 0.0
H1231 H 0.03912 0.342 0.02929 0.0
H1232 H 0.99698 0.31821 0.02861 0.0
H1233 H 1.0186 0.31276 0.04724 0.0
H1234 H 1.00688 0.23105 0.05521 0.0
H1235 H 0.97325 0.21354 0.083 0.0
H1236 H 0.35851 0.07221 0.44327 0.0
H1237 H 0.3353 0.03686 0.46994 0.0
H1238 H 0.28708 0.08597 0.48652 0.0
H1239 H 0.31086 0.12213 0.45974 0.0
H1240 H 0.31153 0.07038 0.51686 0.0
H1241 H 0.24475 0.96614 0.47172 0.0
H1242 H 0.28584 0.98636 0.4661 0.0
H1243 H 0.26322 1.00558 0.46254 0.0
C1244 C 0.34315 0.07574 0.45265 0.0
C1245 C 0.33633 0.09986 0.4493 0.0
C1246 C 0.32965 0.05527 0.46781 0.0
C1247 C 0.30862 0.05806 0.47988 0.0
C1248 C 0.3029 0.08308 0.4772 0.0
H1249 H 0.20154 0.90627 0.5624 0.0
H1250 H 0.21378 0.94201 0.53539 0.0
C1251 C 0.31665 0.10386 0.462 0.0
C1252 C 0.29312 0.03485 0.49532 0.0
H1253 H 0.25221 0.956 0.50405 0.0
C1254 C 0.29818 0.04541 0.51405 0.0
C1255 C 0.27502 1.00222 0.4917 0.0
C1256 C 0.26658 0.98942 0.47191 0.0
C1257 C 0.28731 0.0242 0.52922 0.0
C1258 C 0.27155 0.99153 0.52557 0.0
C1259 C 0.26477 0.98099 0.50686 0.0
C1260 C 0.26384 0.96823 0.54095 0.0
C1261 C 0.29312 0.03705 0.54904 0.0
C1262 C 0.28798 0.97014 0.55245 0.0
C1263 C 0.28109 0.94991 0.56773 0.0
C1264 C 0.24988 0.92693 0.57177 0.0
C1265 C 0.2258 0.92366 0.55959 0.0
C1266 C 0.23276 0.94419 0.54426 0.0
H1267 H 0.29566 0.06076 0.54944 0.0
H1268 H 0.27373 0.02138 0.55864 0.0
H1269 H 0.31533 0.03917 0.55441 0.0
H1270 H 0.31223 0.98777 0.54982 0.0
H1271 H 0.30024 0.95283 0.57671 0.0
H1272 H 0.83793 0.71772 0.0588 0.0
H1273 H 0.82393 0.73839 0.0311 0.0
H1274 H 0.73015 0.70182 0.05293 0.0
H1275 H 0.74383 0.68152 0.08045 0.0
H1276 H 0.77541 0.70893 1.00357 0.0
H1277 H 0.76006 0.7951 0.04572 0.0
H1278 H 0.77957 0.77505 0.05488 0.0
H1279 H 0.73735 0.75554 0.05412 0.0
C1280 C 0.81425 0.71379 0.05755 0.0
C1281 C 0.79213 0.69824 0.07194 0.0
C1282 C 0.80631 0.72572 0.04178 0.0
C1283 C 0.77621 0.72235 0.0402 0.0
C1284 C 0.75375 0.70547 0.05409 0.0
H1285 H 0.67777 0.77702 0.95945 0.0
H1286 H 0.69315 0.75728 0.98696 0.0
C1287 C 0.76162 0.69369 0.06978 0.0
C1288 C 0.76804 0.73657 0.02421 0.0
H1289 H 0.7423 0.78787 0.01392 0.0
C1290 C 0.76841 0.72636 1.0058 0.0
C1291 C 0.75874 0.75922 0.02716 0.0
C1292 C 0.75914 0.77213 0.04651 0.0
C1293 C 0.75906 0.73766 0.99032 0.0
C1294 C 0.74962 0.7602 0.99327 0.0
C1295 C 0.74937 0.77049 0.01168 0.0
C1296 C 0.74072 0.77391 0.97734 0.0
C1297 C 0.75867 0.72477 0.97096 0.0
C1298 C 0.76264 0.79079 0.9632 0.0
C1299 C 0.75398 0.80207 0.94759 0.0
C1300 C 0.7232 0.79698 0.94577 0.0
C1301 C 0.70164 0.78138 0.96041 0.0
C1302 C 0.71037 0.76998 0.97609 0.0
H1303 H 0.75823 0.70203 0.97172 0.0
H1304 H 0.73798 0.72141 0.9627 0.0
H1305 H 0.78023 0.7416 0.96325 0.0
H1306 H 0.78641 0.79485 0.96409 0.0
H1307 H 0.77138 0.81426 0.93671 0.0
H1308 H 0.06727 0.32943 0.58611 0.0
H1309 H 0.03458 0.30994 0.55803 0.0
H1310 H 0.10398 0.29354 0.53155 0.0
H1311 H 0.13716 0.313 0.55995 0.0
H1312 H 0.04762 0.33103 0.52044 0.0
H1313 H 1.02161 0.20792 0.5275 0.0
H1314 H 0.03807 0.23589 0.54654 0.0
H1315 H 0.06254 0.23745 0.52731 0.0
C1316 C 0.07581 0.32178 0.57435 0.0
C1317 C 0.10489 0.32265 0.57539 0.0
C1318 C 0.05699 0.31066 0.55825 0.0
C1319 C 0.06653 0.29985 0.54276 0.0
C1320 C 0.09588 0.3013 0.54347 0.0
H1321 H 0.97594 0.21782 0.43623 0.0
H1322 H 1.00963 0.23673 0.46396 0.0
C1323 C 0.11494 0.31266 0.55964 0.0
C1324 C 0.04538 0.28703 0.52606 0.0
H1325 H 1.00023 0.21977 0.50104 0.0
C1326 C 0.03727 0.30671 0.51618 0.0
C1327 C 0.03176 0.25526 0.52056 0.0
C1328 C 0.03864 0.23273 0.53107 0.0
C1329 C 1.0163 0.29564 0.50081 0.0
C1330 C 1.00241 0.26376 0.49541 0.0
C1331 C 1.01067 0.24413 0.50524 0.0
C1332 C 0.98041 0.2507 0.47906 0.0
C1333 C 1.00984 0.31841 0.49023 0.0
C1334 C 0.9521 0.25138 0.47842 0.0
C1335 C 0.93258 0.24053 0.46243 0.0
C1336 C 0.94094 0.22865 0.44682 0.0
C1337 C 0.96869 0.22692 0.44789 0.0
C1338 C 0.98809 0.23774 0.4638 0.0
H1339 H 0.02811 0.34313 0.49304 0.0
H1340 H 1.00871 0.31416 0.4748 0.0
H1341 H 0.98685 0.31528 0.4948 0.0
H1342 H 0.94527 0.26061 0.4902 0.0
H1343 H 0.9114 0.24216 0.46212 0.0
H1344 H 0.65546 0.10984 0.09831 0.0
H1345 H 0.60252 0.10221 0.1017 0.0
H1346 H 0.64032 0.18955 0.13192 0.0
H1347 H 0.69329 0.19711 0.12904 0.0
H1348 H 0.56864 0.10078 0.13606 0.0
H1349 H 0.58918 0.19744 0.08727 0.0
H1350 H 0.61419 0.18029 0.08778 0.0
H1351 H 0.61804 0.20788 0.10561 0.0
C1352 C 0.65258 0.12729 0.10591 0.0
C1353 C 0.67885 0.1542 0.11334 0.0
C1354 C 0.62225 0.12292 0.10774 0.0
C1355 C 0.61752 0.14546 0.11687 0.0
C1356 C 0.64351 0.17209 0.12455 0.0
H1357 H 0.46544 0.1796 0.13873 0.0
H1358 H 0.5148 0.17949 0.1363 0.0
C1359 C 0.67382 0.17643 0.12281 0.0
C1360 C 0.58548 0.14138 0.11823 0.0
H1361 H 0.54168 0.17422 0.10458 0.0
C1362 C 0.56259 0.11667 0.1291 0.0
C1363 C 0.57767 0.16208 0.10908 0.0
C1364 C 0.60091 0.18829 0.09663 0.0
C1365 C 0.53242 0.11283 0.13164 0.0
C1366 C 0.52475 0.13387 0.1227 0.0
C1367 C 0.54752 0.15814 0.1115 0.0
C1368 C 0.49388 0.13227 0.12535 0.0
C1369 C 0.50947 0.08701 0.1444 0.0
C1370 C 0.46538 0.10556 0.1202 0.0
C1371 C 0.4368 0.10543 0.12174 0.0
C1372 C 0.43632 0.13219 0.12819 0.0
C1373 C 0.46486 0.15862 0.13359 0.0
C1374 C 0.49321 0.15863 0.13221 0.0
H1375 H 0.52145 0.07817 0.1538 0.0
H1376 H 0.49635 0.09519 0.15324 0.0
H1377 H 0.49223 0.06711 0.13566 0.0
H1378 H 0.46529 0.08514 0.11451 0.0
H1379 H 0.41529 0.0848 0.11732 0.0
H1380 H 0.71199 0.61128 0.36738 0.0
H1381 H 0.6619 0.56124 0.36692 0.0
H1382 H 0.69728 0.52448 0.40955 0.0
H1383 H 0.7469 0.57363 0.41013 0.0
H1384 H 0.65313 0.49486 0.36172 0.0
H1385 H 0.61187 0.5155 0.4302 0.0
H1386 H 0.64074 0.54702 0.41579 0.0
H1387 H 0.65196 0.52393 0.42991 0.0
C1388 C 0.70911 0.5925 0.37661 0.0
C1389 C 0.73351 0.59666 0.38885 0.0
C1390 C 0.68052 0.56396 0.3763 0.0
C1391 C 0.67587 0.53936 0.38835 0.0
C1392 C 0.70031 0.5433 0.40029 0.0
H1393 H 0.54341 0.35531 0.42553 0.0
H1394 H 0.58719 0.40811 0.41958 0.0
C1395 C 0.72875 0.57153 0.40054 0.0
C1396 C 0.6456 0.50937 0.38887 0.0
H1397 H 0.58552 0.46317 0.41865 0.0
C1398 C 0.63795 0.488 0.37399 0.0
C1399 C 0.62606 0.50056 0.40495 0.0
C1400 C 0.63282 0.52299 0.4211 0.0
C1401 C 0.61203 0.45739 0.37519 0.0
C1402 C 0.59306 0.44823 0.3916 0.0
C1403 C 0.60014 0.47011 0.40614 0.0
C1404 C 0.56672 0.41569 0.3945 0.0
C1405 C 0.60609 0.43469 0.35933 0.0
C1406 C 0.54059 0.40232 0.38238 0.0
C1407 C 0.51547 0.37204 0.38575 0.0
C1408 C 0.51586 0.35469 0.40142 0.0
C1409 C 0.54217 0.36814 0.41346 0.0
C1410 C 0.56727 0.39829 0.41004 0.0
H1411 H 0.62675 0.44311 0.34986 0.0
H1412 H 0.60017 0.41131 0.36493 0.0
H1413 H 0.58588 0.43184 0.35079 0.0
H1414 H 0.5393 0.41552 0.37053 0.0
H1415 H 0.49536 0.36257 0.37637 0.0
H1416 H 0.84702 0.28037 0.12162 0.0
H1417 H 0.84622 0.3293 0.1202 0.0
H1418 H 0.94717 0.38153 0.12575 0.0
H1419 H 0.94832 0.33231 0.12685 0.0
H1420 H 0.86554 0.37592 0.14638 0.0
H1421 H 0.93287 0.42257 0.07989 0.0
H1422 H 0.91749 0.38246 0.08727 0.0
H1423 H 0.95264 0.41327 0.0979 0.0
C1424 C 0.86918 0.30218 0.1225 0.0
C1425 C 0.8978 0.30231 0.1243 0.0
C1426 C 0.86863 0.33022 0.12169 0.0
C1427 C 0.89662 0.35915 0.12263 0.0
C1428 C 0.92529 0.3595 0.12461 0.0
H1429 H 0.92395 0.54896 0.11884 0.0
H1430 H 0.93169 0.50381 0.12238 0.0
C1431 C 0.9259 0.33133 0.12535 0.0
C1432 C 0.89527 0.38865 0.12187 0.0
H1433 H 0.91756 0.45491 0.09581 0.0
C1434 C 0.87698 0.39321 0.13533 0.0
C1435 C 0.91024 0.41127 0.10748 0.0
C1436 C 0.92921 0.40715 0.0922 0.0
C1437 C 0.8731 0.41958 0.13475 0.0
C1438 C 0.88756 0.44186 0.12016 0.0
C1439 C 0.90644 0.43774 0.10695 0.0
C1440 C 0.88274 0.4692 0.11816 0.0
C1441 C 0.85368 0.42348 0.14982 0.0
C1442 C 0.85268 0.46475 0.11441 0.0
C1443 C 0.84816 0.49049 0.11242 0.0
C1444 C 0.87362 0.52126 0.11412 0.0
C1445 C 0.90374 0.5256 0.11774 0.0
C1446 C 0.90826 0.49984 0.11964 0.0
H1447 H 0.85101 0.40904 0.16247 0.0
H1448 H 0.86441 0.4484 0.15418 0.0
H1449 H 0.82986 0.4159 0.14415 0.0
H1450 H 0.83272 0.44131 0.11293 0.0
H1451 H 0.82464 0.48629 0.10973 0.0
H1452 H 0.42085 0.0918 0.37933 0.0
H1453 H 0.47113 0.09214 0.37963 0.0
H1454 H 0.51839 0.18768 0.39942 0.0
H1455 H 0.46878 0.18747 0.39943 0.0
H1456 H 0.52996 0.13116 0.36191 0.0
H1457 H 0.54093 0.14284 0.4396 0.0
H1458 H 0.50464 0.13205 0.4274 0.0
H1459 H 0.53514 0.1725 0.4288 0.0
C1460 C 0.44201 0.11291 0.38362 0.0
C1461 C 0.44064 0.13942 0.38963 0.0
C1462 C 0.47071 0.11307 0.38381 0.0
C1463 C 0.4984 0.1397 0.39 0.0
C1464 C 0.49723 0.16658 0.3951 0.0
H1465 H 0.69504 0.20518 0.40765 0.0
H1466 H 0.64257 0.19833 0.40301 0.0
C1467 C 0.46874 0.16641 0.39503 0.0
C1468 C 0.52861 0.13969 0.39156 0.0
H1469 H 0.58727 0.15343 0.42276 0.0
C1470 C 0.54235 0.13564 0.37523 0.0
C1471 C 0.54473 0.14543 0.40898 0.0
C1472 C 0.53048 0.14814 0.42722 0.0
C1473 C 0.57236 0.13851 0.37576 0.0
C1474 C 0.58885 0.14532 0.39308 0.0
C1475 C 0.57474 0.14854 0.40946 0.0
C1476 C 0.621 0.1497 0.39461 0.0
C1477 C 0.58667 0.1353 0.3577 0.0
C1478 C 0.62634 0.12464 0.39141 0.0
C1479 C 0.65635 0.12848 0.39405 0.0
C1480 C 0.68165 0.15749 0.39994 0.0
C1481 C 0.67625 0.18266 0.40287 0.0
C1482 C 0.64622 0.17873 0.40033 0.0
H1483 H 0.57382 0.13634 0.34507 0.0
H1484 H 0.61168 0.15404 0.35662 0.0
H1485 H 0.58588 0.1124 0.35765 0.0
H1486 H 0.60716 0.1019 0.38726 0.0
H1487 H 0.65971 0.10868 0.39153 0.0
H1488 H 0.54511 0.35089 0.09942 0.0
H1489 H 0.58831 0.40418 0.1048 0.0
H1490 H 0.53521 0.41652 0.14894 0.0
H1491 H 0.49171 0.3631 0.14359 0.0
H1492 H 0.58589 0.45918 0.10131 0.0
H1493 H 0.62091 0.44682 0.17405 0.0
H1494 H 0.59628 0.4134 0.1594 0.0
H1495 H 0.58011 0.43472 0.17076 0.0
C1496 C 0.54256 0.36489 0.11028 0.0
C1497 C 0.51486 0.35269 0.12104 0.0
C1498 C 0.56736 0.39534 0.1134 0.0
C1499 C 0.56516 0.4143 0.12738 0.0
C1500 C 0.53772 0.40215 0.13832 0.0
H1501 H 0.70888 0.61197 0.15129 0.0
H1502 H 0.65895 0.56178 0.15208 0.0
C1503 C 0.51286 0.37159 0.13524 0.0
C1504 C 0.59117 0.44717 0.12976 0.0
H1505 H 0.64874 0.49701 0.16014 0.0
C1506 C 0.59946 0.46748 0.11423 0.0
C1507 C 0.60873 0.45812 0.14667 0.0
C1508 C 0.60132 0.43715 0.16366 0.0
C1509 C 0.62526 0.49807 0.11498 0.0
C1510 C 0.64355 0.50861 0.13161 0.0
C1511 C 0.6346 0.48885 0.14742 0.0
C1512 C 0.67378 0.53873 0.13201 0.0
C1513 C 0.63313 0.51877 0.09781 0.0
C1514 C 0.69871 0.54212 0.12079 0.0
C1515 C 0.72704 0.57045 0.12033 0.0
C1516 C 0.73126 0.59628 0.13113 0.0
C1517 C 0.70643 0.59267 0.14274 0.0
C1518 C 0.67792 0.56403 0.14323 0.0
H1519 H 0.61258 0.51065 0.08823 0.0
H1520 H 0.6414 0.54344 0.10192 0.0
H1521 H 0.65229 0.51821 0.08986 0.0
H1522 H 0.69617 0.52277 0.11223 0.0
H1523 H 0.74555 0.57207 0.1113 0.0
H1524 H 0.92773 0.54916 0.40572 0.0
H1525 H 0.93517 0.5039 0.40208 0.0
H1526 H 0.83469 0.44234 0.40178 0.0
H1527 H 0.827 0.48752 0.40489 0.0
H1528 H 0.91505 0.45175 0.42572 0.0
H1529 H 0.86292 0.41577 0.35435 0.0
H1530 H 0.87413 0.45372 0.36422 0.0
H1531 H 0.83773 0.41984 0.37103 0.0
C1532 C 0.90717 0.52604 0.40462 0.0
C1533 C 0.87673 0.52205 0.40545 0.0
C1534 C 0.91149 0.50017 0.40267 0.0
C1535 C 0.88551 0.46977 0.40137 0.0
C1536 C 0.8551 0.46563 0.40241 0.0
H1537 H 0.84818 0.28059 0.39428 0.0
H1538 H 0.84782 0.32975 0.39582 0.0
C1539 C 0.85075 0.49148 0.40439 0.0
C1540 C 0.89017 0.44231 0.39936 0.0
H1541 H 0.87274 0.3796 0.37104 0.0
C1542 C 0.90607 0.43611 0.41369 0.0
C1543 C 0.87855 0.422 0.38361 0.0
C1544 C 0.86264 0.42825 0.36733 0.0
C1545 C 0.90959 0.40947 0.41307 0.0
C1546 C 0.89736 0.38879 0.3975 0.0
C1547 C 0.88208 0.39542 0.38298 0.0
C1548 C 0.89842 0.35916 0.39651 0.0
C1549 C 0.92527 0.40306 0.42941 0.0
C1550 C 0.92708 0.35923 0.39619 0.0
C1551 C 0.92743 0.33094 0.39535 0.0
C1552 C 0.89909 0.30208 0.3947 0.0
C1553 C 0.87051 0.30227 0.39478 0.0
C1554 C 0.87021 0.33042 0.39564 0.0
H1555 H 0.92702 0.41722 0.44202 0.0
H1556 H 0.9122 0.37787 0.43333 0.0
H1557 H 0.94944 0.40912 0.42527 0.0
H1558 H 0.94917 0.38116 0.39648 0.0
H1559 H 0.94985 0.3317 0.39522 0.0
H1560 H 0.20484 0.67551 0.59946 0.0
H1561 H 0.19719 0.62328 0.60564 0.0
H1562 H 0.1378 0.61289 0.65298 0.0
H1563 H 0.14488 0.66499 0.64669 0.0
H1564 H 0.21092 0.60069 0.63985 0.0
H1565 H 0.08408 0.53316 0.62049 0.0
H1566 H 0.10921 0.57346 0.61348 0.0
H1567 H 0.09558 0.56431 0.63735 0.0
C1568 C 0.18996 0.66205 0.61111 0.0
C1569 C 0.17534 0.6744 0.62251 0.0
C1570 C 0.18574 0.63226 0.61469 0.0
C1571 C 0.16662 0.61404 0.62963 0.0
C1572 C 0.15231 0.62638 0.64122 0.0
H1573 H 0.11816 0.41914 0.6561 0.0
H1574 H 0.12124 0.47047 0.65831 0.0
C1575 C 0.15665 0.65629 0.63771 0.0
C1576 C 0.16208 0.58227 0.63303 0.0
H1577 H 0.10797 0.50413 0.62993 0.0
C1578 C 0.18836 0.57959 0.63783 0.0
C1579 C 0.13255 0.55475 0.63056 0.0
C1580 C 0.10369 0.55632 0.62507 0.0
C1581 C 0.18609 0.55016 0.63981 0.0
C1582 C 0.1569 0.52264 0.63651 0.0
C1583 C 0.13031 0.52524 0.63245 0.0
C1584 C 0.15437 0.49133 0.63539 0.0
C1585 C 0.21511 0.54881 0.64521 0.0
C1586 C 0.1714 0.48587 0.62155 0.0
C1587 C 0.16965 0.45681 0.62022 0.0
C1588 C 0.15064 0.43224 0.63265 0.0
C1589 C 0.13308 0.43752 0.64635 0.0
C1590 C 0.13482 0.46682 0.64763 0.0
H1591 H 0.23234 0.57034 0.65283 0.0
H1592 H 0.20909 0.52814 0.65425 0.0
H1593 H 0.22666 0.54691 0.63225 0.0
H1594 H 0.1861 0.50419 0.61169 0.0
H1595 H 0.18343 0.45376 0.60941 0.0
H1596 H 0.29842 0.8449 0.90244 0.0
H1597 H 0.34769 0.8447 0.90015 0.0
H1598 H 0.38898 0.93169 0.86928 0.0
H1599 H 0.33928 0.93227 0.87158 0.0
H1600 H 0.38192 0.84631 0.86682 0.0
H1601 H 0.45034 0.94832 0.91442 0.0
H1602 H 0.4079 0.92747 0.91377 0.0
H1603 H 0.42989 0.95356 0.89493 0.0
C1604 C 0.31787 0.86413 0.89515 0.0
C1605 C 0.31486 0.88879 0.88731 0.0
C1606 C 0.34606 0.86386 0.89381 0.0
C1607 C 0.37211 0.88829 0.88473 0.0
C1608 C 0.36924 0.91277 0.87657 0.0
H1609 H 0.56245 0.91365 0.88496 0.0
H1610 H 0.51738 0.92088 0.87885 0.0
C1611 C 0.3408 0.91299 0.87781 0.0
C1612 C 0.40206 0.88772 0.88415 0.0
H1613 H 0.47565 0.92166 0.90344 0.0
C1614 C 0.40256 0.86298 0.87465 0.0
C1615 C 0.42897 0.90952 0.89433 0.0
C1616 C 0.42945 0.93618 0.90507 0.0
C1617 C 0.429 0.85908 0.87536 0.0
C1618 C 0.45543 0.88005 0.88626 0.0
C1619 C 0.45536 0.90549 0.89518 0.0
C1620 C 0.48272 0.87521 0.88931 0.0
C1621 C 0.42831 0.8325 0.86441 0.0
C1622 C 0.47835 0.84725 0.89738 0.0
C1623 C 0.50405 0.84303 0.90086 0.0
C1624 C 0.5348 0.86687 0.89658 0.0
C1625 C 0.53913 0.89492 0.88857 0.0
C1626 C 0.51338 0.89905 0.885 0.0
H1627 H 0.41172 0.82542 0.85231 0.0
H1628 H 0.45199 0.83898 0.85898 0.0
H1629 H 0.4202 0.81185 0.87379 0.0
H1630 H 0.45507 0.82885 0.90135 0.0
H1631 H 0.4999 0.8214 0.90737 0.0
H1632 H 0.58253 0.74794 0.63233 0.0
H1633 H 0.53254 0.69921 0.62999 0.0
H1634 H 0.58083 0.65069 0.61231 0.0
H1635 H 0.63143 0.69959 0.61504 0.0
H1636 H 0.50595 0.66439 0.59892 0.0
H1637 H 0.52293 0.59213 0.65265 0.0
H1638 H 0.54868 0.63397 0.65089 0.0
H1639 H 0.55278 0.60807 0.63479 0.0
C1640 C 0.5827 0.72691 0.6281 0.0
C1641 C 0.61111 0.72775 0.62388 0.0
C1642 C 0.55399 0.69899 0.62675 0.0
C1643 C 0.55281 0.67113 0.62114 0.0
C1644 C 0.58112 0.67172 0.61706 0.0
H1645 H 0.39164 0.48572 0.59801 0.0
H1646 H 0.44436 0.53138 0.60088 0.0
C1647 C 0.61004 0.69973 0.61854 0.0
C1648 C 0.52171 0.64209 0.6188 0.0
H1649 H 0.47646 0.5666 0.63422 0.0
C1650 C 0.49953 0.64304 0.60667 0.0
C1651 C 0.51329 0.61414 0.62886 0.0
C1652 C 0.53552 0.61196 0.64266 0.0
C1653 C 0.4693 0.61697 0.60435 0.0
C1654 C 0.46077 0.5892 0.61456 0.0
C1655 C 0.48304 0.58796 0.62644 0.0
C1656 C 0.42871 0.56133 0.61322 0.0
C1657 C 0.44678 0.61925 0.59082 0.0
C1658 C 0.40238 0.56285 0.61943 0.0
C1659 C 0.37216 0.53668 0.61798 0.0
C1660 C 0.3676 0.50834 0.61031 0.0
C1661 C 0.39417 0.50692 0.60424 0.0
C1662 C 0.42437 0.53307 0.60577 0.0
H1663 H 0.45915 0.63914 0.58084 0.0
H1664 H 0.43346 0.59725 0.58259 0.0
H1665 H 0.42963 0.623 0.59891 0.0
H1666 H 0.40523 0.58427 0.62553 0.0
H1667 H 0.35241 0.53855 0.62311 0.0
H1668 H 0.18854 0.66506 0.92939 0.0
H1669 H 0.17768 0.61175 0.92332 0.0
H1670 H 0.14812 0.61658 0.86676 0.0
H1671 H 0.15855 0.66992 0.87278 0.0
H1672 H 0.11881 0.55967 0.91273 0.0
H1673 H 0.21113 0.58512 0.85909 0.0
H1674 H 0.21236 0.61511 0.87429 0.0
H1675 H 0.18578 0.60099 0.85462 0.0
C1676 C 0.17966 0.65484 0.91566 0.0
C1677 C 0.17437 0.67188 0.9016 0.0
C1678 C 0.17359 0.62436 0.91218 0.0
C1679 C 0.16232 0.61022 0.89455 0.0
C1680 C 0.15733 0.62719 0.88038 0.0
H1681 H 0.12402 0.42154 0.86019 0.0
H1682 H 0.12556 0.47225 0.85969 0.0
C1683 C 0.16337 0.65774 0.88384 0.0
C1684 C 0.15478 0.57731 0.89141 0.0
H1685 H 0.17773 0.53214 0.8672 0.0
C1686 C 0.13157 0.55364 0.90268 0.0
C1687 C 0.17115 0.56936 0.87815 0.0
C1688 C 0.19667 0.59392 0.86589 0.0
C1689 C 0.12478 0.52241 0.90138 0.0
C1690 C 0.14211 0.51466 0.88872 0.0
C1691 C 0.16447 0.53808 0.8769 0.0
C1692 C 0.1395 0.48323 0.88891 0.0
C1693 C 0.09922 0.49802 0.91369 0.0
C1694 C 0.14694 0.47264 0.90543 0.0
C1695 C 0.14606 0.44389 0.90576 0.0
C1696 C 0.13789 0.42495 0.88953 0.0
C1697 C 0.13014 0.4354 0.87297 0.0
C1698 C 0.13114 0.46442 0.87264 0.0
H1699 H 0.08178 0.50507 0.91769 0.0
H1700 H 0.08673 0.47491 0.9065 0.0
H1701 H 0.10987 0.49532 0.92686 0.0
H1702 H 0.15411 0.48697 0.91804 0.0
H1703 H 0.15233 0.43679 0.91875 0.0
H1704 H 0.29538 0.84162 0.62305 0.0
H1705 H 0.34469 0.84124 0.62308 0.0
H1706 H 0.3943 0.93825 0.64015 0.0
H1707 H 0.34453 0.93873 0.64047 0.0
H1708 H 0.39516 0.87713 0.6006 0.0
H1709 H 0.43019 0.89916 0.67608 0.0
H1710 H 0.39094 0.88775 0.66817 0.0
H1711 H 0.42227 0.92743 0.66517 0.0
C1712 C 0.31666 0.8629 0.62699 0.0
C1713 C 0.31595 0.8903 0.63168 0.0
C1714 C 0.3449 0.86259 0.62701 0.0
C1715 C 0.37323 0.88962 0.63171 0.0
C1716 C 0.37267 0.91693 0.63679 0.0
H1717 H 0.56518 0.92149 0.62457 0.0
H1718 H 0.51933 0.92807 0.62907 0.0
C1719 C 0.34422 0.91722 0.6369 0.0
C1720 C 0.40323 0.88924 0.63005 0.0
H1721 H 0.46606 0.89627 0.65505 0.0
C1722 C 0.41065 0.88135 0.61252 0.0
C1723 C 0.42355 0.8949 0.64558 0.0
C1724 C 0.41633 0.90254 0.66487 0.0
C1725 C 0.43755 0.87866 0.61012 0.0
C1726 C 0.45748 0.88363 0.62571 0.0
C1727 C 0.45061 0.89231 0.64315 0.0
C1728 C 0.48522 0.87931 0.62412 0.0
C1729 C 0.44453 0.87063 0.59086 0.0
C1730 C 0.48121 0.8496 0.62023 0.0
C1731 C 0.50731 0.84575 0.61761 0.0
C1732 C 0.53799 0.87159 0.61883 0.0
C1733 C 0.54189 0.90119 0.62326 0.0
C1734 C 0.51574 0.90498 0.62596 0.0
H1735 H 0.43138 0.87489 0.57958 0.0
H1736 H 0.47006 0.88454 0.58771 0.0
H1737 H 0.43749 0.84544 0.59052 0.0
H1738 H 0.45783 0.82941 0.61895 0.0
H1739 H 0.50343 0.82269 0.6141 0.0
H1740 H 0.57997 0.74365 0.89069 0.0
H1741 H 0.53094 0.69382 0.89152 0.0
H1742 H 0.58274 0.64448 0.8935 0.0
H1743 H 0.63241 0.69467 0.89295 0.0
H1744 H 0.50783 0.64408 0.86665 0.0
H1745 H 0.52268 0.60695 0.93822 0.0
H1746 H 0.54696 0.64649 0.92972 0.0
H1747 H 0.55389 0.61585 0.92181 0.0
C1748 C 0.58116 0.7223 0.89132 0.0
C1749 C 0.61032 0.72331 0.89183 0.0
C1750 C 0.55296 0.69373 0.89177 0.0
C1751 C 0.55305 0.66535 0.89281 0.0
C1752 C 0.58205 0.66609 0.89306 0.0
H1753 H 0.38669 0.47653 0.9036 0.0
H1754 H 0.44081 0.51929 0.89859 0.0
C1755 C 0.61044 0.69481 0.89262 0.0
C1756 C 0.52254 0.6353 0.89348 0.0
H1757 H 0.47614 0.57284 0.92184 0.0
C1758 C 0.50101 0.6284 0.87867 0.0
C1759 C 0.51362 0.61473 0.90912 0.0
C1760 C 0.53532 0.62135 0.92572 0.0
C1761 C 0.47071 0.60194 0.87922 0.0
C1762 C 0.46142 0.58197 0.89515 0.0
C1763 C 0.48328 0.58818 0.90966 0.0
C1764 C 0.42856 0.55576 0.89752 0.0
C1765 C 0.44882 0.59566 0.86278 0.0
C1766 C 0.40372 0.56205 0.89868 0.0
C1767 C 0.37287 0.53775 0.90152 0.0
C1768 C 0.36609 0.50652 0.90334 0.0
C1769 C 0.39101 0.50023 0.90205 0.0
C1770 C 0.42198 0.52466 0.8993 0.0
H1771 H 0.46197 0.60727 0.84971 0.0
H1772 H 0.43403 0.57012 0.86007 0.0
H1773 H 0.43304 0.6051 0.86602 0.0
H1774 H 0.40824 0.58589 0.89765 0.0
H1775 H 0.35427 0.54344 0.90228 0.0
loop_
_geom_bond_atom_site_label_1
_geom_bond_atom_site_label_2
_geom_bond_distance
_geom_bond_site_symmetry_2
_ccdc_geom_bond_type
Eu0 C9 2.828 . S
Eu0 O11 2.392 . S
Eu0 O13 2.418 . S
Eu0 O18 2.373 . S
Eu0 O21 2.488 . S
Eu0 O22 2.471 . S
Eu0 O23 2.349 . S
Eu1 O10 2.373 . S
Eu1 O14 2.488 . S
Eu1 O15 2.471 . S
Eu1 O16 2.349 . S
Eu1 O19 2.392 . S
Eu1 O20 2.418 . S
Eu1 C30 2.828 . S
C2 O20 1.244 . S
C2 O23 1.265 . S
C3 C4 1.379 . S
C3 C7 1.373 . S
C3 C9 1.505 . S
C4 C3 1.379 . S
C4 C6 1.369 . S
C4 H32 0.930 . S
C5 C7 1.383 . S
C5 C8 1.382 . S
C5 H33 0.930 . S
C6 C4 1.369 . S
C6 C8 1.392 . S
C6 H34 0.930 . S
C7 C3 1.373 . S
C7 C5 1.383 . S
C7 H35 0.931 . S
C8 C5 1.382 . S
C8 C6 1.392 . S
C9 Eu0 2.828 . S
C9 C3 1.505 . S
C9 O21 1.249 . S
C9 O22 1.244 . S
O10 Eu1 2.373 . S
O10 C12 1.258 . S
O11 Eu0 2.392 . S
O11 C12 1.242 . S
C12 O10 1.258 . S
C12 O11 1.242 . S
O13 Eu0 2.418 . S
O13 C17 1.244 . S
O14 Eu1 2.488 . S
O14 C30 1.249 . S
O15 Eu1 2.471 . S
O15 C30 1.244 . S
O16 Eu1 2.349 . S
O16 C17 1.265 . S
C17 O13 1.244 . S
C17 O16 1.265 . S
O18 Eu0 2.373 . S
O18 C31 1.258 . S
O19 Eu1 2.392 . S
O19 C31 1.242 . S
O20 Eu1 2.418 . S
O20 C2 1.244 . S
O21 Eu0 2.488 . S
O21 C9 1.249 . S
O22 Eu0 2.471 . S
O22 C9 1.244 . S
O23 Eu0 2.349 . S
O23 C2 1.265 . S
C24 C25 1.379 . S
C24 C28 1.373 . S
C24 C30 1.505 . S
C25 C24 1.379 . S
C25 C27 1.369 1_545 S
C25 H36 0.930 . S
C26 C28 1.383 1_565 S
C26 C29 1.382 . S
C26 H37 0.930 . S
C27 C25 1.369 1_565 S
C27 C29 1.392 . S
C27 H38 0.930 . S
C28 C24 1.373 . S
C28 C26 1.383 1_545 S
C28 H39 0.931 . S
C29 C26 1.382 . S
C29 C27 1.392 . S
C30 Eu1 2.828 . S
C30 O14 1.249 . S
C30 O15 1.244 . S
C30 C24 1.505 . S
C31 O18 1.258 . S
C31 O19 1.242 . S
H32 C4 0.930 . S
H33 C5 0.930 . S
H34 C6 0.930 . S
H35 C7 0.931 . S
H36 C25 0.930 . S
H37 C26 0.930 . S
H38 C27 0.930 . S
H39 C28 0.931 . S
Eu40 C49 2.828 . S
Eu40 O51 2.392 . S
Eu40 O53 2.418 . S
Eu40 O58 2.373 . S
Eu40 O61 2.488 . S
Eu40 O62 2.471 . S
Eu40 O63 2.349 . S
Eu41 O50 2.373 . S
Eu41 O54 2.488 . S
Eu41 O55 2.471 . S
Eu41 O56 2.349 . S
Eu41 O59 2.392 . S
Eu41 O60 2.418 . S
Eu41 C70 2.828 . S
C42 O60 1.244 . S
C42 O63 1.265 . S
C43 C44 1.379 . S
C43 C47 1.373 . S
C43 C49 1.505 . S
C44 C43 1.379 . S
C44 C46 1.369 . S
C44 H72 0.930 . S
C45 C47 1.383 . S
C45 C48 1.382 . S
C45 H73 0.930 . S
C46 C44 1.369 . S
C46 C48 1.392 . S
C46 H74 0.930 . S
C47 C43 1.373 . S
C47 C45 1.383 . S
C47 H75 0.931 . S
C48 C45 1.382 . S
C48 C46 1.392 . S
C49 Eu40 2.828 . S
C49 C43 1.505 . S
C49 O61 1.249 . S
C49 O62 1.244 . S
O50 Eu41 2.373 . S
O50 C52 1.258 . S
O51 Eu40 2.392 . S
O51 C52 1.242 . S
C52 O50 1.258 . S
C52 O51 1.242 . S
O53 Eu40 2.418 . S
O53 C57 1.244 . S
O54 Eu41 2.488 . S
O54 C70 1.249 . S
O55 Eu41 2.471 . S
O55 C70 1.244 . S
O56 Eu41 2.349 . S
O56 C57 1.265 . S
C57 O53 1.244 . S
C57 O56 1.265 . S
O58 Eu40 2.373 . S
O58 C71 1.258 . S
O59 Eu41 2.392 . S
O59 C71 1.242 . S
O60 Eu41 2.418 . S
O60 C42 1.244 . S
O61 Eu40 2.488 . S
O61 C49 1.249 . S
O62 Eu40 2.471 . S
O62 C49 1.244 . S
O63 Eu40 2.349 . S
O63 C42 1.265 . S
C64 C65 1.379 . S
C64 C68 1.373 . S
C64 C70 1.505 . S
C65 C64 1.379 . S
C65 C67 1.369 . S
C65 H76 0.930 . S
C66 C68 1.383 . S
C66 C69 1.382 . S
C66 H77 0.930 . S
C67 C65 1.369 . S
C67 C69 1.392 . S
C67 H78 0.930 . S
C68 C64 1.373 . S
C68 C66 1.383 . S
C68 H79 0.931 . S
C69 C66 1.382 . S
C69 C67 1.392 . S
C70 Eu41 2.828 . S
C70 O54 1.249 . S
C70 O55 1.244 . S
C70 C64 1.505 . S
C71 O58 1.258 . S
C71 O59 1.242 . S
H72 C44 0.930 . S
H73 C45 0.930 . S
H74 C46 0.930 . S
H75 C47 0.931 . S
H76 C65 0.930 . S
H77 C66 0.930 . S
H78 C67 0.930 . S
H79 C68 0.931 . S
Eu80 C89 2.828 . S
Eu80 O91 2.392 . S
Eu80 O93 2.418 . S
Eu80 O98 2.373 . S
Eu80 O101 2.488 . S
Eu80 O102 2.471 . S
Eu80 O103 2.349 . S
Eu81 O90 2.373 . S
Eu81 O94 2.488 . S
Eu81 O95 2.471 . S
Eu81 O96 2.349 . S
Eu81 O99 2.392 . S
Eu81 O100 2.418 . S
Eu81 C110 2.828 . S
C82 O100 1.244 . S
C82 O103 1.265 . S
C83 C84 1.379 . S
C83 C87 1.373 . S
C83 C89 1.505 . S
C84 C83 1.379 . S
C84 C86 1.369 . S
C84 H112 0.930 . S
C85 C87 1.383 . S
C85 C88 1.382 . S
C85 H113 0.930 . S
C86 C84 1.369 . S
C86 C88 1.392 . S
C86 H114 0.930 . S
C87 C83 1.373 . S
C87 C85 1.383 . S
C87 H115 0.931 . S
C88 C85 1.382 . S
C88 C86 1.392 . S
C89 Eu80 2.828 . S
C89 C83 1.505 . S
C89 O101 1.249 . S
C89 O102 1.244 . S
O90 Eu81 2.373 . S
O90 C92 1.258 . S
O91 Eu80 2.392 . S
O91 C92 1.242 . S
C92 O90 1.258 . S
C92 O91 1.242 . S
O93 Eu80 2.418 . S
O93 C97 1.244 . S
O94 Eu81 2.488 . S
O94 C110 1.249 . S
O95 Eu81 2.471 . S
O95 C110 1.244 . S
O96 Eu81 2.349 . S
O96 C97 1.265 . S
C97 O93 1.244 . S
C97 O96 1.265 . S
O98 Eu80 2.373 . S
O98 C111 1.258 . S
O99 Eu81 2.392 . S
O99 C111 1.242 . S
O100 Eu81 2.418 . S
O100 C82 1.244 . S
O101 Eu80 2.488 . S
O101 C89 1.249 . S
O102 Eu80 2.471 . S
O102 C89 1.244 . S
O103 Eu80 2.349 . S
O103 C82 1.265 . S
C104 C105 1.379 . S
C104 C108 1.373 . S
C104 C110 1.505 . S
C105 C104 1.379 . S
C105 C107 1.369 1_655 S
C105 H116 0.930 . S
C106 C108 1.383 1_455 S
C106 C109 1.382 . S
C106 H117 0.930 . S
C107 C105 1.369 1_455 S
C107 C109 1.392 . S
C107 H118 0.930 . S
C108 C104 1.373 . S
C108 C106 1.383 1_655 S
C108 H119 0.931 . S
C109 C106 1.382 . S
C109 C107 1.392 . S
C110 Eu81 2.828 . S
C110 O94 1.249 . S
C110 O95 1.244 . S
C110 C104 1.505 . S
C111 O98 1.258 . S
C111 O99 1.242 . S
H112 C84 0.930 . S
H113 C85 0.930 . S
H114 C86 0.930 . S
H115 C87 0.931 . S
H116 C105 0.930 . S
H117 C106 0.930 . S
H118 C107 0.930 . S
H119 C108 0.931 . S
Eu120 C129 2.828 . S
Eu120 O131 2.392 . S
Eu120 O133 2.418 . S
Eu120 O138 2.373 . S
Eu120 O141 2.488 . S
Eu120 O142 2.471 . S
Eu120 O143 2.349 . S
Eu121 O130 2.373 . S
Eu121 O134 2.488 . S
Eu121 O135 2.471 . S
Eu121 O136 2.349 . S
Eu121 O139 2.392 . S
Eu121 O140 2.418 . S
Eu121 C150 2.828 . S
C122 O140 1.244 . S
C122 O143 1.265 . S
C123 C124 1.379 . S
C123 C127 1.373 . S
C123 C129 1.505 . S
C124 C123 1.379 . S
C124 C126 1.369 1_545 S
C124 H152 0.930 . S
C125 C127 1.383 1_565 S
C125 C128 1.382 . S
C125 H153 0.930 . S
C126 C124 1.369 1_565 S
C126 C128 1.392 . S
C126 H154 0.930 . S
C127 C123 1.373 . S
C127 C125 1.383 1_545 S
C127 H155 0.931 . S
C128 C125 1.382 . S
C128 C126 1.392 . S
C129 Eu120 2.828 . S
C129 C123 1.505 . S
C129 O141 1.249 . S
C129 O142 1.244 . S
O130 Eu121 2.373 . S
O130 C132 1.258 . S
O131 Eu120 2.392 . S
O131 C132 1.242 . S
C132 O130 1.258 . S
C132 O131 1.242 . S
O133 Eu120 2.418 . S
O133 C137 1.244 . S
O134 Eu121 2.488 . S
O134 C150 1.249 . S
O135 Eu121 2.471 . S
O135 C150 1.244 . S
O136 Eu121 2.349 . S
O136 C137 1.265 . S
C137 O133 1.244 . S
C137 O136 1.265 . S
O138 Eu120 2.373 . S
O138 C151 1.258 . S
O139 Eu121 2.392 . S
O139 C151 1.242 . S
O140 Eu121 2.418 . S
O140 C122 1.244 . S
O141 Eu120 2.488 . S
O141 C129 1.249 . S
O142 Eu120 2.471 . S
O142 C129 1.244 . S
O143 Eu120 2.349 . S
O143 C122 1.265 . S
C144 C145 1.379 . S
C144 C148 1.373 . S
C144 C150 1.505 . S
C145 C144 1.379 . S
C145 C147 1.369 . S
C145 H156 0.930 . S
C146 C148 1.383 . S
C146 C149 1.382 . S
C146 H157 0.930 . S
C147 C145 1.369 . S
C147 C149 1.392 . S
C147 H158 0.930 . S
C148 C144 1.373 . S
C148 C146 1.383 . S
C148 H159 0.931 . S
C149 C146 1.382 . S
C149 C147 1.392 . S
C150 Eu121 2.828 . S
C150 O134 1.249 . S
C150 O135 1.244 . S
C150 C144 1.505 . S
C151 O138 1.258 . S
C151 O139 1.242 . S
H152 C124 0.930 . S
H153 C125 0.930 . S
H154 C126 0.930 . S
H155 C127 0.931 . S
H156 C145 0.930 . S
H157 C146 0.930 . S
H158 C147 0.930 . S
H159 C148 0.931 . S
Eu160 C169 2.828 . S
Eu160 O171 2.392 . S
Eu160 O173 2.418 . S
Eu160 O178 2.373 . S
Eu160 O181 2.488 . S
Eu160 O182 2.471 . S
Eu160 O183 2.349 . S
Eu161 O170 2.373 . S
Eu161 O174 2.488 . S
Eu161 O175 2.471 . S
Eu161 O176 2.349 . S
Eu161 O179 2.392 . S
Eu161 O180 2.418 . S
Eu161 C190 2.828 . S
C162 O180 1.244 . S
C162 O183 1.265 . S
C163 C164 1.379 . S
C163 C167 1.373 . S
C163 C169 1.505 . S
C164 C163 1.379 . S
C164 C166 1.369 . S
C164 H192 0.930 . S
C165 C167 1.383 . S
C165 C168 1.382 . S
C165 H193 0.930 . S
C166 C164 1.369 . S
C166 C168 1.392 . S
C166 H194 0.930 . S
C167 C163 1.373 . S
C167 C165 1.383 . S
C167 H195 0.931 . S
C168 C165 1.382 . S
C168 C166 1.392 . S
C169 Eu160 2.828 . S
C169 C163 1.505 . S
C169 O181 1.249 . S
C169 O182 1.244 . S
O170 Eu161 2.373 . S
O170 C172 1.258 . S
O171 Eu160 2.392 . S
O171 C172 1.242 . S
C172 O170 1.258 . S
C172 O171 1.242 . S
O173 Eu160 2.418 . S
O173 C177 1.244 . S
O174 Eu161 2.488 . S
O174 C190 1.249 . S
O175 Eu161 2.471 . S
O175 C190 1.244 . S
O176 Eu161 2.349 . S
O176 C177 1.265 . S
C177 O173 1.244 . S
C177 O176 1.265 . S
O178 Eu160 2.373 . S
O178 C191 1.258 . S
O179 Eu161 2.392 . S
O179 C191 1.242 . S
O180 Eu161 2.418 . S
O180 C162 1.244 . S
O181 Eu160 2.488 . S
O181 C169 1.249 . S
O182 Eu160 2.471 . S
O182 C169 1.244 . S
O183 Eu160 2.349 . S
O183 C162 1.265 . S
C184 C185 1.379 . S
C184 C188 1.373 . S
C184 C190 1.505 . S
C185 C184 1.379 . S
C185 C187 1.369 . S
C185 H196 0.930 . S
C186 C188 1.383 . S
C186 C189 1.382 . S
C186 H197 0.930 . S
C187 C185 1.369 . S
C187 C189 1.392 . S
C187 H198 0.930 . S
C188 C184 1.373 . S
C188 C186 1.383 . S
C188 H199 0.931 . S
C189 C186 1.382 . S
C189 C187 1.392 . S
C190 Eu161 2.828 . S
C190 O174 1.249 . S
C190 O175 1.244 . S
C190 C184 1.505 . S
C191 O178 1.258 . S
C191 O179 1.242 . S
H192 C164 0.930 . S
H193 C165 0.930 . S
H194 C166 0.930 . S
H195 C167 0.931 . S
H196 C185 0.930 . S
H197 C186 0.930 . S
H198 C187 0.930 . S
H199 C188 0.931 . S
Eu200 C209 2.828 . S
Eu200 O211 2.392 . S
Eu200 O213 2.418 . S
Eu200 O218 2.373 . S
Eu200 O221 2.488 . S
Eu200 O222 2.471 . S
Eu200 O223 2.349 . S
Eu201 O210 2.373 . S
Eu201 O214 2.488 . S
Eu201 O215 2.471 . S
Eu201 O216 2.349 . S
Eu201 O219 2.392 . S
Eu201 O220 2.418 . S
Eu201 C230 2.828 . S
C202 O220 1.244 . S
C202 O223 1.265 . S
C203 C204 1.379 . S
C203 C207 1.373 . S
C203 C209 1.505 . S
C204 C203 1.379 . S
C204 C206 1.369 1_655 S
C204 H232 0.930 . S
C205 C207 1.383 1_455 S
C205 C208 1.382 . S
C205 H233 0.930 . S
C206 C204 1.369 1_455 S
C206 C208 1.392 . S
C206 H234 0.930 . S
C207 C203 1.373 . S
C207 C205 1.383 1_655 S
C207 H235 0.931 . S
C208 C205 1.382 . S
C208 C206 1.392 . S
C209 Eu200 2.828 . S
C209 C203 1.505 . S
C209 O221 1.249 . S
C209 O222 1.244 . S
O210 Eu201 2.373 . S
O210 C212 1.258 . S
O211 Eu200 2.392 . S
O211 C212 1.242 . S
C212 O210 1.258 . S
C212 O211 1.242 . S
O213 Eu200 2.418 . S
O213 C217 1.244 . S
O214 Eu201 2.488 . S
O214 C230 1.249 . S
O215 Eu201 2.471 . S
O215 C230 1.244 . S
O216 Eu201 2.349 . S
O216 C217 1.265 . S
C217 O213 1.244 . S
C217 O216 1.265 . S
O218 Eu200 2.373 . S
O218 C231 1.258 . S
O219 Eu201 2.392 . S
O219 C231 1.242 . S
O220 Eu201 2.418 . S
O220 C202 1.244 . S
O221 Eu200 2.488 . S
O221 C209 1.249 . S
O222 Eu200 2.471 . S
O222 C209 1.244 . S
O223 Eu200 2.349 . S
O223 C202 1.265 . S
C224 C225 1.379 . S
C224 C228 1.373 . S
C224 C230 1.505 . S
C225 C224 1.379 . S
C225 C227 1.369 . S
C225 H236 0.930 . S
C226 C228 1.383 . S
C226 C229 1.382 . S
C226 H237 0.930 . S
C227 C225 1.369 . S
C227 C229 1.392 . S
C227 H238 0.930 . S
C228 C224 1.373 . S
C228 C226 1.383 . S
C228 H239 0.931 . S
C229 C226 1.382 . S
C229 C227 1.392 . S
C230 Eu201 2.828 . S
C230 O214 1.249 . S
C230 O215 1.244 . S
C230 C224 1.505 . S
C231 O218 1.258 . S
C231 O219 1.242 . S
H232 C204 0.930 . S
H233 C205 0.930 . S
H234 C206 0.930 . S
H235 C207 0.931 . S
H236 C225 0.930 . S
H237 C226 0.930 . S
H238 C227 0.930 . S
H239 C228 0.931 . S
Eu240 C249 2.828 . S
Eu240 O251 2.392 . S
Eu240 O253 2.418 . S
Eu240 O258 2.373 . S
Eu240 O261 2.488 . S
Eu240 O262 2.471 . S
Eu240 O263 2.349 . S
Eu241 O250 2.373 . S
Eu241 O254 2.488 . S
Eu241 O255 2.471 . S
Eu241 O256 2.349 . S
Eu241 O259 2.392 . S
Eu241 O260 2.418 . S
Eu241 C270 2.828 . S
C242 O260 1.244 . S
C242 O263 1.265 . S
C243 C244 1.379 . S
C243 C247 1.373 . S
C243 C249 1.505 . S
C244 C243 1.379 . S
C244 C246 1.369 1_455 S
C244 H272 0.930 . S
C245 C247 1.383 1_655 S
C245 C248 1.382 . S
C245 H273 0.930 . S
C246 C244 1.369 1_655 S
C246 C248 1.392 . S
C246 H274 0.930 . S
C247 C243 1.373 . S
C247 C245 1.383 1_455 S
C247 H275 0.931 . S
C248 C245 1.382 . S
C248 C246 1.392 . S
C249 Eu240 2.828 . S
C249 C243 1.505 . S
C249 O261 1.249 . S
C249 O262 1.244 . S
O250 Eu241 2.373 . S
O250 C252 1.258 . S
O251 Eu240 2.392 . S
O251 C252 1.242 . S
C252 O250 1.258 . S
C252 O251 1.242 . S
O253 Eu240 2.418 . S
O253 C257 1.244 . S
O254 Eu241 2.488 . S
O254 C270 1.249 . S
O255 Eu241 2.471 . S
O255 C270 1.244 . S
O256 Eu241 2.349 . S
O256 C257 1.265 . S
C257 O253 1.244 . S
C257 O256 1.265 . S
O258 Eu240 2.373 . S
O258 C271 1.258 . S
O259 Eu241 2.392 . S
O259 C271 1.242 . S
O260 Eu241 2.418 . S
O260 C242 1.244 . S
O261 Eu240 2.488 . S
O261 C249 1.249 . S
O262 Eu240 2.471 . S
O262 C249 1.244 . S
O263 Eu240 2.349 . S
O263 C242 1.265 . S
C264 C265 1.379 . S
C264 C268 1.373 . S
C264 C270 1.505 . S
C265 C264 1.379 . S
C265 C267 1.369 . S
C265 H276 0.930 . S
C266 C268 1.383 . S
C266 C269 1.382 . S
C266 H277 0.930 . S
C267 C265 1.369 . S
C267 C269 1.392 . S
C267 H278 0.930 . S
C268 C264 1.373 . S
C268 C266 1.383 . S
C268 H279 0.931 . S
C269 C266 1.382 . S
C269 C267 1.392 . S
C270 Eu241 2.828 . S
C270 O254 1.249 . S
C270 O255 1.244 . S
C270 C264 1.505 . S
C271 O258 1.258 . S
C271 O259 1.242 . S
H272 C244 0.930 . S
H273 C245 0.930 . S
H274 C246 0.930 . S
H275 C247 0.931 . S
H276 C265 0.930 . S
H277 C266 0.930 . S
H278 C267 0.930 . S
H279 C268 0.931 . S
Eu280 C289 2.828 . S
Eu280 O291 2.392 . S
Eu280 O293 2.418 . S
Eu280 O298 2.373 . S
Eu280 O301 2.488 . S
Eu280 O302 2.471 . S
Eu280 O303 2.349 . S
Eu281 O290 2.373 . S
Eu281 O294 2.488 . S
Eu281 O295 2.471 . S
Eu281 O296 2.349 . S
Eu281 O299 2.392 . S
Eu281 O300 2.418 . S
Eu281 C310 2.828 . S
C282 O300 1.244 . S
C282 O303 1.265 . S
C283 C284 1.379 . S
C283 C287 1.373 . S
C283 C289 1.505 . S
C284 C283 1.379 . S
C284 C286 1.369 . S
C284 H312 0.930 . S
C285 C287 1.383 . S
C285 C288 1.382 . S
C285 H313 0.930 . S
C286 C284 1.369 . S
C286 C288 1.392 . S
C286 H314 0.930 . S
C287 C283 1.373 . S
C287 C285 1.383 . S
C287 H315 0.931 . S
C288 C285 1.382 . S
C288 C286 1.392 . S
C289 Eu280 2.828 . S
C289 C283 1.505 . S
C289 O301 1.249 . S
C289 O302 1.244 . S
O290 Eu281 2.373 . S
O290 C292 1.258 . S
O291 Eu280 2.392 . S
O291 C292 1.242 . S
C292 O290 1.258 . S
C292 O291 1.242 . S
O293 Eu280 2.418 . S
O293 C297 1.244 . S
O294 Eu281 2.488 . S
O294 C310 1.249 . S
O295 Eu281 2.471 . S
O295 C310 1.244 . S
O296 Eu281 2.349 . S
O296 C297 1.265 . S
C297 O293 1.244 . S
C297 O296 1.265 . S
O298 Eu280 2.373 . S
O298 C311 1.258 . S
O299 Eu281 2.392 . S
O299 C311 1.242 . S
O300 Eu281 2.418 . S
O300 C282 1.244 . S
O301 Eu280 2.488 . S
O301 C289 1.249 . S
O302 Eu280 2.471 . S
O302 C289 1.244 . S
O303 Eu280 2.349 . S
O303 C282 1.265 . S
C304 C305 1.379 . S
C304 C308 1.373 . S
C304 C310 1.505 . S
C305 C304 1.379 . S
C305 C307 1.369 1_565 S
C305 H316 0.930 . S
C306 C308 1.383 1_545 S
C306 C309 1.382 . S
C306 H317 0.930 . S
C307 C305 1.369 1_545 S
C307 C309 1.392 . S
C307 H318 0.930 . S
C308 C304 1.373 . S
C308 C306 1.383 1_565 S
C308 H319 0.931 . S
C309 C306 1.382 . S
C309 C307 1.392 . S
C310 Eu281 2.828 . S
C310 O294 1.249 . S
C310 O295 1.244 . S
C310 C304 1.505 . S
C311 O298 1.258 . S
C311 O299 1.242 . S
H312 C284 0.930 . S
H313 C285 0.930 . S
H314 C286 0.930 . S
H315 C287 0.931 . S
H316 C305 0.930 . S
H317 C306 0.930 . S
H318 C307 0.930 . S
H319 C308 0.931 . S
Eu320 C329 2.828 . S
Eu320 O331 2.392 . S
Eu320 O333 2.418 . S
Eu320 O338 2.373 . S
Eu320 O341 2.488 . S
Eu320 O342 2.471 . S
Eu320 O343 2.349 . S
Eu321 O330 2.373 . S
Eu321 O334 2.488 . S
Eu321 O335 2.471 . S
Eu321 O336 2.349 . S
Eu321 O339 2.392 . S
Eu321 O340 2.418 . S
Eu321 C350 2.828 . S
C322 O340 1.244 . S
C322 O343 1.265 . S
C323 C324 1.379 . S
C323 C327 1.373 . S
C323 C329 1.505 . S
C324 C323 1.379 . S
C324 C326 1.369 . S
C324 H352 0.930 . S
C325 C327 1.383 . S
C325 C328 1.382 . S
C325 H353 0.930 . S
C326 C324 1.369 . S
C326 C328 1.392 . S
C326 H354 0.930 . S
C327 C323 1.373 . S
C327 C325 1.383 . S
C327 H355 0.931 . S
C328 C325 1.382 . S
C328 C326 1.392 . S
C329 Eu320 2.828 . S
C329 C323 1.505 . S
C329 O341 1.249 . S
C329 O342 1.244 . S
O330 Eu321 2.373 . S
O330 C332 1.258 . S
O331 Eu320 2.392 . S
O331 C332 1.242 . S
C332 O330 1.258 . S
C332 O331 1.242 . S
O333 Eu320 2.418 . S
O333 C337 1.244 . S
O334 Eu321 2.488 . S
O334 C350 1.249 . S
O335 Eu321 2.471 . S
O335 C350 1.244 . S
O336 Eu321 2.349 . S
O336 C337 1.265 . S
C337 O333 1.244 . S
C337 O336 1.265 . S
O338 Eu320 2.373 . S
O338 C351 1.258 . S
O339 Eu321 2.392 . S
O339 C351 1.242 . S
O340 Eu321 2.418 . S
O340 C322 1.244 . S
O341 Eu320 2.488 . S
O341 C329 1.249 . S
O342 Eu320 2.471 . S
O342 C329 1.244 . S
O343 Eu320 2.349 . S
O343 C322 1.265 . S
C344 C345 1.379 . S
C344 C348 1.373 . S
C344 C350 1.505 . S
C345 C344 1.379 . S
C345 C347 1.369 . S
C345 H356 0.930 . S
C346 C348 1.383 . S
C346 C349 1.382 . S
C346 H357 0.930 . S
C347 C345 1.369 . S
C347 C349 1.392 . S
C347 H358 0.930 . S
C348 C344 1.373 . S
C348 C346 1.383 . S
C348 H359 0.931 . S
C349 C346 1.382 . S
C349 C347 1.392 . S
C350 Eu321 2.828 . S
C350 O334 1.249 . S
C350 O335 1.244 . S
C350 C344 1.505 . S
C351 O338 1.258 . S
C351 O339 1.242 . S
H352 C324 0.930 . S
H353 C325 0.930 . S
H354 C326 0.930 . S
H355 C327 0.931 . S
H356 C345 0.930 . S
H357 C346 0.930 . S
H358 C347 0.930 . S
H359 C348 0.931 . S
Eu360 C369 2.828 . S
Eu360 O371 2.392 . S
Eu360 O373 2.418 . S
Eu360 O378 2.373 . S
Eu360 O381 2.488 . S
Eu360 O382 2.471 . S
Eu360 O383 2.349 . S
Eu361 O370 2.373 . S
Eu361 O374 2.488 . S
Eu361 O375 2.471 . S
Eu361 O376 2.349 . S
Eu361 O379 2.392 . S
Eu361 O380 2.418 . S
Eu361 C390 2.828 . S
C362 O380 1.244 . S
C362 O383 1.265 . S
C363 C364 1.379 . S
C363 C367 1.373 . S
C363 C369 1.505 . S
C364 C363 1.379 . S
C364 C366 1.369 . S
C364 H392 0.930 . S
C365 C367 1.383 . S
C365 C368 1.382 . S
C365 H393 0.930 . S
C366 C364 1.369 . S
C366 C368 1.392 . S
C366 H394 0.930 . S
C367 C363 1.373 . S
C367 C365 1.383 . S
C367 H395 0.931 . S
C368 C365 1.382 . S
C368 C366 1.392 . S
C369 Eu360 2.828 . S
C369 C363 1.505 . S
C369 O381 1.249 . S
C369 O382 1.244 . S
O370 Eu361 2.373 . S
O370 C372 1.258 . S
O371 Eu360 2.392 . S
O371 C372 1.242 . S
C372 O370 1.258 . S
C372 O371 1.242 . S
O373 Eu360 2.418 . S
O373 C377 1.244 . S
O374 Eu361 2.488 . S
O374 C390 1.249 . S
O375 Eu361 2.471 . S
O375 C390 1.244 . S
O376 Eu361 2.349 . S
O376 C377 1.265 . S
C377 O373 1.244 . S
C377 O376 1.265 . S
O378 Eu360 2.373 . S
O378 C391 1.258 . S
O379 Eu361 2.392 . S
O379 C391 1.242 . S
O380 Eu361 2.418 . S
O380 C362 1.244 . S
O381 Eu360 2.488 . S
O381 C369 1.249 . S
O382 Eu360 2.471 . S
O382 C369 1.244 . S
O383 Eu360 2.349 . S
O383 C362 1.265 . S
C384 C385 1.379 . S
C384 C388 1.373 . S
C384 C390 1.505 . S
C385 C384 1.379 . S
C385 C387 1.369 1_455 S
C385 H396 0.930 . S
C386 C388 1.383 1_655 S
C386 C389 1.382 . S
C386 H397 0.930 . S
C387 C385 1.369 1_655 S
C387 C389 1.392 . S
C387 H398 0.930 . S
C388 C384 1.373 . S
C388 C386 1.383 1_455 S
C388 H399 0.931 . S
C389 C386 1.382 . S
C389 C387 1.392 . S
C390 Eu361 2.828 . S
C390 O374 1.249 . S
C390 O375 1.244 . S
C390 C384 1.505 . S
C391 O378 1.258 . S
C391 O379 1.242 . S
H392 C364 0.930 . S
H393 C365 0.930 . S
H394 C366 0.930 . S
H395 C367 0.931 . S
H396 C385 0.930 . S
H397 C386 0.930 . S
H398 C387 0.930 . S
H399 C388 0.931 . S
Eu400 C409 2.828 . S
Eu400 O411 2.392 . S
Eu400 O413 2.418 . S
Eu400 O418 2.373 . S
Eu400 O421 2.488 . S
Eu400 O422 2.471 . S
Eu400 O423 2.349 . S
Eu401 O410 2.373 . S
Eu401 O414 2.488 . S
Eu401 O415 2.471 . S
Eu401 O416 2.349 . S
Eu401 O419 2.392 . S
Eu401 O420 2.418 . S
Eu401 C430 2.828 . S
C402 O420 1.244 . S
C402 O423 1.265 . S
C403 C404 1.379 . S
C403 C407 1.373 . S
C403 C409 1.505 . S
C404 C403 1.379 . S
C404 C406 1.369 1_565 S
C404 H432 0.930 . S
C405 C407 1.383 1_545 S
C405 C408 1.382 . S
C405 H433 0.930 . S
C406 C404 1.369 1_545 S
C406 C408 1.392 . S
C406 H434 0.930 . S
C407 C403 1.373 . S
C407 C405 1.383 1_565 S
C407 H435 0.931 . S
C408 C405 1.382 . S
C408 C406 1.392 . S
C409 Eu400 2.828 . S
C409 C403 1.505 . S
C409 O421 1.249 . S
C409 O422 1.244 . S
O410 Eu401 2.373 . S
O410 C412 1.258 . S
O411 Eu400 2.392 . S
O411 C412 1.242 . S
C412 O410 1.258 . S
C412 O411 1.242 . S
O413 Eu400 2.418 . S
O413 C417 1.244 . S
O414 Eu401 2.488 . S
O414 C430 1.249 . S
O415 Eu401 2.471 . S
O415 C430 1.244 . S
O416 Eu401 2.349 . S
O416 C417 1.265 . S
C417 O413 1.244 . S
C417 O416 1.265 . S
O418 Eu400 2.373 . S
O418 C431 1.258 . S
O419 Eu401 2.392 . S
O419 C431 1.242 . S
O420 Eu401 2.418 . S
O420 C402 1.244 . S
O421 Eu400 2.488 . S
O421 C409 1.249 . S
O422 Eu400 2.471 . S
O422 C409 1.244 . S
O423 Eu400 2.349 . S
O423 C402 1.265 . S
C424 C425 1.379 . S
C424 C428 1.373 . S
C424 C430 1.505 . S
C425 C424 1.379 . S
C425 C427 1.369 . S
C425 H436 0.930 . S
C426 C428 1.383 . S
C426 C429 1.382 . S
C426 H437 0.930 . S
C427 C425 1.369 . S
C427 C429 1.392 . S
C427 H438 0.930 . S
C428 C424 1.373 . S
C428 C426 1.383 . S
C428 H439 0.931 . S
C429 C426 1.382 . S
C429 C427 1.392 . S
C430 Eu401 2.828 . S
C430 O414 1.249 . S
C430 O415 1.244 . S
C430 C424 1.505 . S
C431 O418 1.258 . S
C431 O419 1.242 . S
H432 C404 0.930 . S
H433 C405 0.930 . S
H434 C406 0.930 . S
H435 C407 0.931 . S
H436 C425 0.930 . S
H437 C426 0.930 . S
H438 C427 0.930 . S
H439 C428 0.931 . S
Eu440 C449 2.828 . S
Eu440 O451 2.392 . S
Eu440 O453 2.418 . S
Eu440 O458 2.373 . S
Eu440 O461 2.488 . S
Eu440 O462 2.471 . S
Eu440 O463 2.349 . S
Eu441 O450 2.373 . S
Eu441 O454 2.488 . S
Eu441 O455 2.471 . S
Eu441 O456 2.349 . S
Eu441 O459 2.392 . S
Eu441 O460 2.418 . S
Eu441 C470 2.828 . S
C442 O460 1.244 . S
C442 O463 1.265 . S
C443 C444 1.379 . S
C443 C447 1.373 . S
C443 C449 1.505 . S
C444 C443 1.379 . S
C444 C446 1.369 . S
C444 H472 0.930 . S
C445 C447 1.383 . S
C445 C448 1.382 . S
C445 H473 0.930 . S
C446 C444 1.369 . S
C446 C448 1.392 . S
C446 H474 0.930 . S
C447 C443 1.373 . S
C447 C445 1.383 . S
C447 H475 0.931 . S
C448 C445 1.382 . S
C448 C446 1.392 . S
C449 Eu440 2.828 . S
C449 C443 1.505 . S
C449 O461 1.249 . S
C449 O462 1.244 . S
O450 Eu441 2.373 . S
O450 C452 1.258 . S
O451 Eu440 2.392 . S
O451 C452 1.242 . S
C452 O450 1.258 . S
C452 O451 1.242 . S
O453 Eu440 2.418 . S
O453 C457 1.244 . S
O454 Eu441 2.488 . S
O454 C470 1.249 . S
O455 Eu441 2.471 . S
O455 C470 1.244 . S
O456 Eu441 2.349 . S
O456 C457 1.265 . S
C457 O453 1.244 . S
C457 O456 1.265 . S
O458 Eu440 2.373 . S
O458 C471 1.258 . S
O459 Eu441 2.392 . S
O459 C471 1.242 . S
O460 Eu441 2.418 . S
O460 C442 1.244 . S
O461 Eu440 2.488 . S
O461 C449 1.249 . S
O462 Eu440 2.471 . S
O462 C449 1.244 . S
O463 Eu440 2.349 . S
O463 C442 1.265 . S
C464 C465 1.379 . S
C464 C468 1.373 . S
C464 C470 1.505 . S
C465 C464 1.379 . S
C465 C467 1.369 . S
C465 H476 0.930 . S
C466 C468 1.383 . S
C466 C469 1.382 . S
C466 H477 0.930 . S
C467 C465 1.369 . S
C467 C469 1.392 . S
C467 H478 0.930 . S
C468 C464 1.373 . S
C468 C466 1.383 . S
C468 H479 0.931 . S
C469 C466 1.382 . S
C469 C467 1.392 . S
C470 Eu441 2.828 . S
C470 O454 1.249 . S
C470 O455 1.244 . S
C470 C464 1.505 . S
C471 O458 1.258 . S
C471 O459 1.242 . S
H472 C444 0.930 . S
H473 C445 0.930 . S
H474 C446 0.930 . S
H475 C447 0.931 . S
H476 C465 0.930 . S
H477 C466 0.930 . S
H478 C467 0.930 . S
H479 C468 0.931 . S
H480 C488 0.929 . S
H481 C490 0.930 . S
H482 C492 0.930 . S
H483 C495 0.929 . S
H484 C498 0.930 . S
H485 C500 0.960 . S
H486 C500 0.960 . S
H487 C500 0.960 . S
C488 H480 0.929 . S
C488 C489 1.377 . S
C488 C490 1.384 . S
C489 C488 1.377 . S
C489 C495 1.390 . S
C490 H481 0.930 . S
C490 C488 1.384 . S
C490 C491 1.372 . S
C491 C490 1.372 . S
C491 C492 1.400 . S
C491 C496 1.490 . S
C492 H482 0.930 . S
C492 C491 1.400 . S
C492 C495 1.386 . S
H493 C509 0.930 . S
H494 C510 0.931 . S
C495 H483 0.929 . S
C495 C489 1.390 . S
C495 C492 1.386 . S
C496 C491 1.490 . S
C496 C498 1.395 . S
C496 C499 1.403 . S
H497 C503 0.930 . S
C498 H484 0.930 . S
C498 C496 1.395 . S
C498 C501 1.403 . S
C499 C496 1.403 . S
C499 C500 1.524 . S
C499 C503 1.400 . S
C500 H485 0.960 . S
C500 H486 0.960 . S
C500 H487 0.960 . S
C500 C499 1.524 . S
C501 C498 1.403 . S
C501 C502 1.392 . S
C501 C505 1.495 . S
C502 C501 1.392 . S
C502 C503 1.385 . S
C502 C504 1.478 . S
C503 H497 0.930 . S
C503 C499 1.400 . S
C503 C502 1.385 . S
C504 C502 1.478 . S
C504 C506 1.381 . S
C504 C510 1.383 . S
C505 C501 1.495 . S
C505 H511 0.959 . S
C505 H512 0.961 . S
C505 H513 0.960 . S
C506 C504 1.381 . S
C506 C507 1.394 . S
C506 H514 0.930 . S
C507 C506 1.394 . S
C507 C508 1.383 . S
C507 H515 0.929 . S
C508 C507 1.383 . S
C508 C509 1.377 . S
C509 H493 0.930 . S
C509 C508 1.377 . S
C509 C510 1.379 . S
C510 H494 0.931 . S
C510 C504 1.383 . S
C510 C509 1.379 . S
H511 C505 0.959 . S
H512 C505 0.961 . S
H513 C505 0.960 . S
H514 C506 0.930 . S
H515 C507 0.929 . S
H516 C524 0.929 . S
H517 C526 0.930 . S
H518 C528 0.930 . S
H519 C531 0.929 . S
H520 C534 0.930 . S
H521 C536 0.960 1_655 S
H522 C536 0.960 . S
H523 C536 0.960 . S
C524 H516 0.929 . S
C524 C525 1.377 . S
C524 C526 1.384 . S
C525 C524 1.377 . S
C525 C531 1.390 . S
C526 H517 0.930 . S
C526 C524 1.384 . S
C526 C527 1.372 . S
C527 C526 1.372 . S
C527 C528 1.400 . S
C527 C532 1.490 . S
C528 H518 0.930 . S
C528 C527 1.400 . S
C528 C531 1.386 . S
H529 C545 0.930 . S
H530 C546 0.931 . S
C531 H519 0.929 . S
C531 C525 1.390 . S
C531 C528 1.386 . S
C532 C527 1.490 . S
C532 C534 1.395 . S
C532 C535 1.403 . S
H533 C539 0.930 . S
C534 H520 0.930 . S
C534 C532 1.395 . S
C534 C537 1.403 . S
C535 C532 1.403 . S
C535 C536 1.524 . S
C535 C539 1.400 1_455 S
C536 H521 0.960 1_455 S
C536 H522 0.960 . S
C536 H523 0.960 . S
C536 C535 1.524 . S
C537 C534 1.403 . S
C537 C538 1.392 1_455 S
C537 C541 1.495 . S
C538 C537 1.392 1_655 S
C538 C539 1.385 . S
C538 C540 1.478 . S
C539 H533 0.930 . S
C539 C535 1.400 1_655 S
C539 C538 1.385 . S
C540 C538 1.478 . S
C540 C542 1.381 . S
C540 C546 1.383 . S
C541 C537 1.495 . S
C541 H547 0.959 . S
C541 H548 0.961 1_455 S
C541 H549 0.960 1_455 S
C542 C540 1.381 . S
C542 C543 1.394 . S
C542 H550 0.930 . S
C543 C542 1.394 . S
C543 C544 1.383 . S
C543 H551 0.929 . S
C544 C543 1.383 . S
C544 C545 1.377 . S
C545 H529 0.930 . S
C545 C544 1.377 . S
C545 C546 1.379 . S
C546 H530 0.931 . S
C546 C540 1.383 . S
C546 C545 1.379 . S
H547 C541 0.959 . S
H548 C541 0.961 1_655 S
H549 C541 0.960 1_655 S
H550 C542 0.930 . S
H551 C543 0.929 . S
H552 C560 0.929 . S
H553 C562 0.930 . S
H554 C564 0.930 . S
H555 C567 0.929 . S
H556 C570 0.930 . S
H557 C572 0.978 . S
H558 C572 0.944 1_545 S
H559 C572 0.943 1_545 S
C560 H552 0.929 . S
C560 C561 1.377 . S
C560 C562 1.384 . S
C561 C560 1.377 . S
C561 C567 1.390 . S
C562 H553 0.930 . S
C562 C560 1.384 . S
C562 C563 1.372 . S
C563 C562 1.372 . S
C563 C564 1.400 . S
C563 C568 1.490 . S
C564 H554 0.930 . S
C564 C563 1.400 . S
C564 C567 1.386 . S
H565 C581 0.930 . S
H566 C582 0.931 . S
C567 H555 0.929 . S
C567 C561 1.390 . S
C567 C564 1.386 . S
C568 C563 1.490 . S
C568 C570 1.395 . S
C568 C571 1.403 1_545 S
H569 C575 0.930 . S
C570 H556 0.930 . S
C570 C568 1.395 . S
C570 C573 1.403 1_545 S
C571 C568 1.403 1_565 S
C571 C572 1.540 . S
C571 C575 1.400 . S
C572 H557 0.978 . S
C572 H558 0.944 1_565 S
C572 H559 0.943 1_565 S
C572 C571 1.540 . S
C573 C570 1.403 1_565 S
C573 C574 1.392 . S
C573 C577 1.495 . S
C574 C573 1.392 . S
C574 C575 1.385 . S
C574 C576 1.478 . S
C575 H569 0.930 . S
C575 C571 1.400 . S
C575 C574 1.385 . S
C576 C574 1.478 . S
C576 C578 1.381 . S
C576 C582 1.383 . S
C577 C573 1.495 . S
C577 H583 0.959 1_565 S
C577 H584 0.961 . S
C577 H585 0.960 . S
C578 C576 1.381 . S
C578 C579 1.394 . S
C578 H586 0.930 . S
C579 C578 1.394 . S
C579 C580 1.383 . S
C579 H587 0.929 . S
C580 C579 1.383 . S
C580 C581 1.377 . S
C581 H565 0.930 . S
C581 C580 1.377 . S
C581 C582 1.379 . S
C582 H566 0.931 . S
C582 C576 1.383 . S
C582 C581 1.379 . S
H583 C577 0.959 1_545 S
H584 C577 0.961 . S
H585 C577 0.960 . S
H586 C578 0.930 . S
H587 C579 0.929 . S
H588 C596 0.929 . S
H589 C598 0.930 . S
H590 C600 0.930 . S
H591 C603 0.929 . S
H592 C606 0.930 . S
H593 C608 0.960 . S
H594 C608 0.960 . S
H595 C608 0.960 . S
C596 H588 0.929 . S
C596 C597 1.377 . S
C596 C598 1.384 . S
C597 C596 1.377 . S
C597 C603 1.390 . S
C598 H589 0.930 . S
C598 C596 1.384 . S
C598 C599 1.372 . S
C599 C598 1.372 . S
C599 C600 1.400 . S
C599 C604 1.490 . S
C600 H590 0.930 . S
C600 C599 1.400 . S
C600 C603 1.386 . S
H601 C617 0.930 . S
H602 C618 0.931 . S
C603 H591 0.929 . S
C603 C597 1.390 . S
C603 C600 1.386 . S
C604 C599 1.490 . S
C604 C606 1.395 . S
C604 C607 1.403 . S
H605 C611 0.930 . S
C606 H592 0.930 . S
C606 C604 1.395 . S
C606 C609 1.403 . S
C607 C604 1.403 . S
C607 C608 1.524 . S
C607 C611 1.400 . S
C608 H593 0.960 . S
C608 H594 0.960 . S
C608 H595 0.960 . S
C608 C607 1.524 . S
C609 C606 1.403 . S
C609 C610 1.392 . S
C609 C613 1.495 . S
C610 C609 1.392 . S
C610 C611 1.385 . S
C610 C612 1.478 . S
C611 H605 0.930 . S
C611 C607 1.400 . S
C611 C610 1.385 . S
C612 C610 1.478 . S
C612 C614 1.381 . S
C612 C618 1.383 . S
C613 C609 1.495 . S
C613 H619 0.959 . S
C613 H620 0.961 . S
C613 H621 0.960 . S
C614 C612 1.381 . S
C614 C615 1.394 . S
C614 H622 0.930 . S
C615 C614 1.394 . S
C615 C616 1.383 . S
C615 H623 0.929 . S
C616 C615 1.383 . S
C616 C617 1.377 . S
C617 H601 0.930 . S
C617 C616 1.377 . S
C617 C618 1.379 . S
C618 H602 0.931 . S
C618 C612 1.383 . S
C618 C617 1.379 . S
H619 C613 0.959 . S
H620 C613 0.961 . S
H621 C613 0.960 . S
H622 C614 0.930 . S
H623 C615 0.929 . S
H624 C632 0.929 . S
H625 C634 0.930 . S
H626 C636 0.930 . S
H627 C639 0.929 . S
H628 C642 0.930 . S
H629 C644 0.960 . S
H630 C644 0.960 . S
H631 C644 0.960 . S
C632 H624 0.929 . S
C632 C633 1.377 . S
C632 C634 1.384 . S
C633 C632 1.377 . S
C633 C639 1.390 . S
C634 H625 0.930 . S
C634 C632 1.384 . S
C634 C635 1.372 . S
C635 C634 1.372 . S
C635 C636 1.400 . S
C635 C640 1.490 . S
C636 H626 0.930 . S
C636 C635 1.400 . S
C636 C639 1.386 . S
H637 C653 0.930 . S
H638 C654 0.931 . S
C639 H627 0.929 . S
C639 C633 1.390 . S
C639 C636 1.386 . S
C640 C635 1.490 . S
C640 C642 1.395 . S
C640 C643 1.403 . S
H641 C647 0.930 . S
C642 H628 0.930 . S
C642 C640 1.395 . S
C642 C645 1.403 1_455 S
C643 C640 1.403 . S
C643 C644 1.524 . S
C643 C647 1.400 1_455 S
C644 H629 0.960 . S
C644 H630 0.960 . S
C644 H631 0.960 . S
C644 C643 1.524 . S
C645 C642 1.403 1_655 S
C645 C646 1.392 . S
C645 C649 1.495 . S
C646 C645 1.392 . S
C646 C647 1.385 . S
C646 C648 1.478 . S
C647 H641 0.930 . S
C647 C643 1.400 1_655 S
C647 C646 1.385 . S
C648 C646 1.478 . S
C648 C650 1.381 . S
C648 C654 1.383 . S
C649 C645 1.495 . S
C649 H655 0.959 1_655 S
C649 H656 0.961 . S
C649 H657 0.960 . S
C650 C648 1.381 . S
C650 C651 1.394 . S
C650 H658 0.930 . S
C651 C650 1.394 . S
C651 C652 1.383 . S
C651 H659 0.929 . S
C652 C651 1.383 . S
C652 C653 1.377 . S
C653 H637 0.930 . S
C653 C652 1.377 . S
C653 C654 1.379 . S
C654 H638 0.931 . S
C654 C648 1.383 . S
C654 C653 1.379 . S
H655 C649 0.959 1_455 S
H656 C649 0.961 . S
H657 C649 0.960 . S
H658 C650 0.930 . S
H659 C651 0.929 . S
H660 C668 0.929 . S
H661 C670 0.930 . S
H662 C672 0.930 . S
H663 C675 0.929 . S
H664 C678 0.930 . S
H665 C680 0.960 1_545 S
H666 C680 0.960 . S
H667 C680 0.960 . S
C668 H660 0.929 . S
C668 C669 1.377 . S
C668 C670 1.384 . S
C669 C668 1.377 . S
C669 C675 1.390 . S
C670 H661 0.930 . S
C670 C668 1.384 . S
C670 C671 1.372 . S
C671 C670 1.372 . S
C671 C672 1.400 . S
C671 C676 1.490 . S
C672 H662 0.930 . S
C672 C671 1.400 . S
C672 C675 1.386 . S
H673 C689 0.930 . S
H674 C690 0.931 . S
C675 H663 0.929 . S
C675 C669 1.390 . S
C675 C672 1.386 . S
C676 C671 1.490 . S
C676 C678 1.395 . S
C676 C679 1.403 . S
H677 C683 0.930 . S
C678 H664 0.930 . S
C678 C676 1.395 . S
C678 C681 1.403 . S
C679 C676 1.403 . S
C679 C680 1.524 . S
C679 C683 1.400 1_565 S
C680 H665 0.960 1_565 S
C680 H666 0.960 . S
C680 H667 0.960 . S
C680 C679 1.524 . S
C681 C678 1.403 . S
C681 C682 1.392 1_565 S
C681 C685 1.495 . S
C682 C681 1.392 1_545 S
C682 C683 1.385 . S
C682 C684 1.478 . S
C683 H677 0.930 . S
C683 C679 1.400 1_545 S
C683 C682 1.385 . S
C684 C682 1.478 . S
C684 C686 1.381 . S
C684 C690 1.383 . S
C685 C681 1.495 . S
C685 H691 0.959 . S
C685 H692 0.961 1_565 S
C685 H693 0.960 1_565 S
C686 C684 1.381 . S
C686 C687 1.394 . S
C686 H694 0.930 . S
C687 C686 1.394 . S
C687 C688 1.383 . S
C687 H695 0.929 . S
C688 C687 1.383 . S
C688 C689 1.377 . S
C689 H673 0.930 . S
C689 C688 1.377 . S
C689 C690 1.379 . S
C690 H674 0.931 . S
C690 C684 1.383 . S
C690 C689 1.379 . S
H691 C685 0.959 . S
H692 C685 0.961 1_545 S
H693 C685 0.960 1_545 S
H694 C686 0.930 . S
H695 C687 0.929 . S
H696 C704 0.929 . S
H697 C706 0.930 . S
H698 C708 0.930 . S
H699 C711 0.929 . S
H700 C714 0.930 . S
H701 C716 0.960 . S
H702 C716 0.960 . S
H703 C716 0.960 . S
C704 H696 0.929 . S
C704 C705 1.377 . S
C704 C706 1.384 . S
C705 C704 1.377 . S
C705 C711 1.390 . S
C706 H697 0.930 . S
C706 C704 1.384 . S
C706 C707 1.372 . S
C707 C706 1.372 . S
C707 C708 1.400 . S
C707 C712 1.490 . S
C708 H698 0.930 . S
C708 C707 1.400 . S
C708 C711 1.386 . S
H709 C725 0.930 . S
H710 C726 0.931 . S
C711 H699 0.929 . S
C711 C705 1.390 . S
C711 C708 1.386 . S
C712 C707 1.490 . S
C712 C714 1.395 . S
C712 C715 1.403 . S
H713 C719 0.930 . S
C714 H700 0.930 . S
C714 C712 1.395 . S
C714 C717 1.403 . S
C715 C712 1.403 . S
C715 C716 1.524 . S
C715 C719 1.400 . S
C716 H701 0.960 . S
C716 H702 0.960 . S
C716 H703 0.960 . S
C716 C715 1.524 . S
C717 C714 1.403 . S
C717 C718 1.392 . S
C717 C721 1.495 . S
C718 C717 1.392 . S
C718 C719 1.385 . S
C718 C720 1.478 . S
C719 H713 0.930 . S
C719 C715 1.400 . S
C719 C718 1.385 . S
C720 C718 1.478 . S
C720 C722 1.381 . S
C720 C726 1.383 . S
C721 C717 1.495 . S
C721 H727 0.959 . S
C721 H728 0.961 . S
C721 H729 0.960 . S
C722 C720 1.381 . S
C722 C723 1.394 . S
C722 H730 0.930 . S
C723 C722 1.394 . S
C723 C724 1.383 . S
C723 H731 0.929 . S
C724 C723 1.383 . S
C724 C725 1.377 . S
C725 H709 0.930 . S
C725 C724 1.377 . S
C725 C726 1.379 . S
C726 H710 0.931 . S
C726 C720 1.383 . S
C726 C725 1.379 . S
H727 C721 0.959 . S
H728 C721 0.961 . S
H729 C721 0.960 . S
H730 C722 0.930 . S
H731 C723 0.929 . S
H732 C740 0.929 . S
H733 C742 0.930 . S
H734 C744 0.930 . S
H735 C747 0.929 . S
H736 C750 0.930 1_455 S
H737 C752 0.960 . S
H738 C752 0.960 . S
H739 C752 0.960 . S
C740 H732 0.929 . S
C740 C741 1.377 . S
C740 C742 1.384 . S
C741 C740 1.377 . S
C741 C747 1.390 . S
C742 H733 0.930 . S
C742 C740 1.384 . S
C742 C743 1.372 . S
C743 C742 1.372 . S
C743 C744 1.400 . S
C743 C748 1.490 . S
C744 H734 0.930 . S
C744 C743 1.400 . S
C744 C747 1.386 . S
H745 C761 0.930 . S
H746 C762 0.931 . S
C747 H735 0.929 . S
C747 C741 1.390 . S
C747 C744 1.386 . S
C748 C743 1.490 . S
C748 C750 1.395 1_455 S
C748 C751 1.403 . S
H749 C755 0.930 . S
C750 H736 0.930 1_655 S
C750 C748 1.395 1_655 S
C750 C753 1.403 . S
C751 C748 1.403 . S
C751 C752 1.524 . S
C751 C755 1.400 1_455 S
C752 H737 0.960 . S
C752 H738 0.960 . S
C752 H739 0.960 . S
C752 C751 1.524 . S
C753 C750 1.403 . S
C753 C754 1.392 . S
C753 C757 1.495 . S
C754 C753 1.392 . S
C754 C755 1.385 . S
C754 C756 1.478 . S
C755 H749 0.930 . S
C755 C751 1.400 1_655 S
C755 C754 1.385 . S
C756 C754 1.478 . S
C756 C758 1.381 . S
C756 C762 1.383 . S
C757 C753 1.495 . S
C757 H763 0.959 . S
C757 H764 0.961 . S
C757 H765 0.960 . S
C758 C756 1.381 . S
C758 C759 1.394 . S
C758 H766 0.930 . S
C759 C758 1.394 . S
C759 C760 1.383 . S
C759 H767 0.929 . S
C760 C759 1.383 . S
C760 C761 1.377 . S
C761 H745 0.930 . S
C761 C760 1.377 . S
C761 C762 1.379 . S
C762 H746 0.931 . S
C762 C756 1.383 . S
C762 C761 1.379 . S
H763 C757 0.959 . S
H764 C757 0.961 . S
H765 C757 0.960 . S
H766 C758 0.930 . S
H767 C759 0.929 . S
H768 C776 0.929 . S
H769 C778 0.930 . S
H770 C780 0.930 . S
H771 C783 0.929 . S
H772 C786 0.930 . S
H773 C788 0.960 . S
H774 C788 0.960 1_565 S
H775 C788 0.960 1_565 S
C776 H768 0.929 . S
C776 C777 1.377 . S
C776 C778 1.384 . S
C777 C776 1.377 . S
C777 C783 1.390 . S
C778 H769 0.930 . S
C778 C776 1.384 . S
C778 C779 1.372 . S
C779 C778 1.372 . S
C779 C780 1.400 . S
C779 C784 1.490 . S
C780 H770 0.930 . S
C780 C779 1.400 . S
C780 C783 1.386 . S
H781 C797 0.930 . S
H782 C798 0.931 . S
C783 H771 0.929 . S
C783 C777 1.390 . S
C783 C780 1.386 . S
C784 C779 1.490 . S
C784 C786 1.395 . S
C784 C787 1.403 1_565 S
H785 C791 0.930 . S
C786 H772 0.930 . S
C786 C784 1.395 . S
C786 C789 1.403 1_565 S
C787 C784 1.403 1_545 S
C787 C788 1.524 . S
C787 C791 1.400 . S
C788 H773 0.960 . S
C788 H774 0.960 1_545 S
C788 H775 0.960 1_545 S
C788 C787 1.524 . S
C789 C786 1.403 1_545 S
C789 C790 1.392 . S
C789 C793 1.495 . S
C790 C789 1.392 . S
C790 C791 1.385 . S
C790 C792 1.478 . S
C791 H785 0.930 . S
C791 C787 1.400 . S
C791 C790 1.385 . S
C792 C790 1.478 . S
C792 C794 1.381 . S
C792 C798 1.383 . S
C793 C789 1.495 . S
C793 H799 0.959 1_545 S
C793 H800 0.961 . S
C793 H801 0.960 . S
C794 C792 1.381 . S
C794 C795 1.394 . S
C794 H802 0.930 . S
C795 C794 1.394 . S
C795 C796 1.383 . S
C795 H803 0.929 . S
C796 C795 1.383 . S
C796 C797 1.377 . S
C797 H781 0.930 . S
C797 C796 1.377 . S
C797 C798 1.379 . S
C798 H782 0.931 . S
C798 C792 1.383 . S
C798 C797 1.379 . S
H799 C793 0.959 1_565 S
H800 C793 0.961 . S
H801 C793 0.960 . S
H802 C794 0.930 . S
H803 C795 0.929 . S
H804 C812 0.929 . S
H805 C814 0.930 . S
H806 C816 0.930 . S
H807 C819 0.929 . S
H808 C822 0.930 . S
H809 C824 0.960 . S
H810 C824 0.960 . S
H811 C824 0.960 . S
C812 H804 0.929 . S
C812 C813 1.377 . S
C812 C814 1.384 . S
C813 C812 1.377 . S
C813 C819 1.390 . S
C814 H805 0.930 . S
C814 C812 1.384 . S
C814 C815 1.372 . S
C815 C814 1.372 . S
C815 C816 1.400 . S
C815 C820 1.490 . S
C816 H806 0.930 . S
C816 C815 1.400 . S
C816 C819 1.386 . S
H817 C833 0.930 . S
H818 C834 0.931 . S
C819 H807 0.929 . S
C819 C813 1.390 . S
C819 C816 1.386 . S
C820 C815 1.490 . S
C820 C822 1.395 . S
C820 C823 1.403 . S
H821 C827 0.930 . S
C822 H808 0.930 . S
C822 C820 1.395 . S
C822 C825 1.403 . S
C823 C820 1.403 . S
C823 C824 1.524 . S
C823 C827 1.400 . S
C824 H809 0.960 . S
C824 H810 0.960 . S
C824 H811 0.960 . S
C824 C823 1.524 . S
C825 C822 1.403 . S
C825 C826 1.392 . S
C825 C829 1.495 . S
C826 C825 1.392 . S
C826 C827 1.385 . S
C826 C828 1.478 . S
C827 H821 0.930 . S
C827 C823 1.400 . S
C827 C826 1.385 . S
C828 C826 1.478 . S
C828 C830 1.381 . S
C828 C834 1.383 . S
C829 C825 1.495 . S
C829 H835 0.959 . S
C829 H836 0.961 . S
C829 H837 0.960 . S
C830 C828 1.381 . S
C830 C831 1.394 . S
C830 H838 0.930 . S
C831 C830 1.394 . S
C831 C832 1.383 . S
C831 H839 0.929 . S
C832 C831 1.383 . S
C832 C833 1.377 . S
C833 H817 0.930 . S
C833 C832 1.377 . S
C833 C834 1.379 . S
C834 H818 0.931 . S
C834 C828 1.383 . S
C834 C833 1.379 . S
H835 C829 0.959 . S
H836 C829 0.961 . S
H837 C829 0.960 . S
H838 C830 0.930 . S
H839 C831 0.929 . S
H840 C848 0.929 . S
H841 C850 0.930 . S
H842 C852 0.930 . S
H843 C855 0.929 . S
H844 C858 0.915 1_455 S
H845 C860 0.960 . S
H846 C860 0.960 . S
H847 C860 0.960 . S
C848 H840 0.929 . S
C848 C849 1.377 . S
C848 C850 1.384 . S
C849 C848 1.377 . S
C849 C855 1.390 . S
C850 H841 0.930 . S
C850 C848 1.384 . S
C850 C851 1.372 . S
C851 C850 1.372 . S
C851 C852 1.400 . S
C851 C856 1.490 . S
C852 H842 0.930 . S
C852 C851 1.400 . S
C852 C855 1.386 . S
H853 C869 0.930 . S
H854 C870 0.931 . S
C855 H843 0.929 . S
C855 C849 1.390 . S
C855 C852 1.386 . S
C856 C851 1.490 . S
C856 C858 1.388 1_455 S
C856 C859 1.403 . S
H857 C863 0.930 . S
C858 H844 0.915 1_655 S
C858 C856 1.388 1_655 S
C858 C861 1.425 . S
C859 C856 1.403 . S
C859 C860 1.524 . S
C859 C863 1.400 1_455 S
C860 H845 0.960 . S
C860 H846 0.960 . S
C860 H847 0.960 . S
C860 C859 1.524 . S
C861 C858 1.425 . S
C861 C862 1.392 . S
C861 C865 1.495 . S
C862 C861 1.392 . S
C862 C863 1.385 . S
C862 C864 1.478 . S
C863 H857 0.930 . S
C863 C859 1.400 1_655 S
C863 C862 1.385 . S
C864 C862 1.478 . S
C864 C866 1.381 . S
C864 C870 1.383 . S
C865 C861 1.495 . S
C865 H871 0.959 . S
C865 H872 0.961 . S
C865 H873 0.960 . S
C866 C864 1.381 . S
C866 C867 1.394 . S
C866 H874 0.930 . S
C867 C866 1.394 . S
C867 C868 1.383 . S
C867 H875 0.929 . S
C868 C867 1.383 . S
C868 C869 1.377 . S
C869 H853 0.930 . S
C869 C868 1.377 . S
C869 C870 1.379 . S
C870 H854 0.931 . S
C870 C864 1.383 . S
C870 C869 1.379 . S
H871 C865 0.959 . S
H872 C865 0.961 . S
H873 C865 0.960 . S
H874 C866 0.930 . S
H875 C867 0.929 . S
H876 C884 0.929 . S
H877 C886 0.930 . S
H878 C888 0.930 . S
H879 C891 0.929 . S
H880 C894 0.930 . S
H881 C896 0.960 1_565 S
H882 C896 0.960 . S
H883 C896 0.960 . S
C884 H876 0.929 . S
C884 C885 1.377 . S
C884 C886 1.384 . S
C885 C884 1.377 . S
C885 C891 1.390 . S
C886 H877 0.930 . S
C886 C884 1.384 . S
C886 C887 1.372 . S
C887 C886 1.372 . S
C887 C888 1.400 . S
C887 C892 1.490 . S
C888 H878 0.930 . S
C888 C887 1.400 . S
C888 C891 1.386 . S
H889 C905 0.930 . S
H890 C906 0.931 . S
C891 H879 0.929 . S
C891 C885 1.390 . S
C891 C888 1.386 . S
C892 C887 1.490 . S
C892 C894 1.395 . S
C892 C895 1.403 . S
H893 C899 0.930 . S
C894 H880 0.930 . S
C894 C892 1.395 . S
C894 C897 1.403 . S
C895 C892 1.403 . S
C895 C896 1.524 . S
C895 C899 1.400 1_545 S
C896 H881 0.960 1_545 S
C896 H882 0.960 . S
C896 H883 0.960 . S
C896 C895 1.524 . S
C897 C894 1.403 . S
C897 C898 1.392 1_545 S
C897 C901 1.495 . S
C898 C897 1.392 1_565 S
C898 C899 1.385 . S
C898 C900 1.478 . S
C899 H893 0.930 . S
C899 C895 1.400 1_565 S
C899 C898 1.385 . S
C900 C898 1.478 . S
C900 C902 1.381 . S
C900 C906 1.383 . S
C901 C897 1.495 . S
C901 H907 0.959 . S
C901 H908 0.961 1_545 S
C901 H909 0.960 1_545 S
C902 C900 1.381 . S
C902 C903 1.394 . S
C902 H910 0.930 . S
C903 C902 1.394 . S
C903 C904 1.383 . S
C903 H911 0.929 . S
C904 C903 1.383 . S
C904 C905 1.377 . S
C905 H889 0.930 . S
C905 C904 1.377 . S
C905 C906 1.379 . S
C906 H890 0.931 . S
C906 C900 1.383 . S
C906 C905 1.379 . S
H907 C901 0.959 . S
H908 C901 0.961 1_565 S
H909 C901 0.960 1_565 S
H910 C902 0.930 . S
H911 C903 0.929 . S
H912 C920 0.929 . S
H913 C922 0.930 . S
H914 C924 0.930 . S
H915 C927 0.929 . S
H916 C930 0.930 . S
H917 C932 0.960 . S
H918 C932 0.960 . S
H919 C932 0.960 . S
C920 H912 0.929 . S
C920 C921 1.377 . S
C920 C922 1.384 . S
C921 C920 1.377 . S
C921 C927 1.390 . S
C922 H913 0.930 . S
C922 C920 1.384 . S
C922 C923 1.372 . S
C923 C922 1.372 . S
C923 C924 1.400 . S
C923 C928 1.490 . S
C924 H914 0.930 . S
C924 C923 1.400 . S
C924 C927 1.386 . S
H925 C941 0.930 . S
H926 C942 0.931 . S
C927 H915 0.929 . S
C927 C921 1.390 . S
C927 C924 1.386 . S
C928 C923 1.490 . S
C928 C930 1.395 . S
C928 C931 1.403 . S
H929 C935 0.930 . S
C930 H916 0.930 . S
C930 C928 1.395 . S
C930 C933 1.403 . S
C931 C928 1.403 . S
C931 C932 1.524 . S
C931 C935 1.400 . S
C932 H917 0.960 . S
C932 H918 0.960 . S
C932 H919 0.960 . S
C932 C931 1.524 . S
C933 C930 1.403 . S
C933 C934 1.392 . S
C933 C937 1.495 . S
C934 C933 1.392 . S
C934 C935 1.385 . S
C934 C936 1.478 . S
C935 H929 0.930 . S
C935 C931 1.400 . S
C935 C934 1.385 . S
C936 C934 1.478 . S
C936 C938 1.381 . S
C936 C942 1.383 . S
C937 C933 1.495 . S
C937 H943 0.959 . S
C937 H944 0.961 . S
C937 H945 0.960 . S
C938 C936 1.381 . S
C938 C939 1.394 . S
C938 H946 0.930 . S
C939 C938 1.394 . S
C939 C940 1.383 . S
C939 H947 0.929 . S
C940 C939 1.383 . S
C940 C941 1.377 . S
C941 H925 0.930 . S
C941 C940 1.377 . S
C941 C942 1.379 . S
C942 H926 0.931 . S
C942 C936 1.383 . S
C942 C941 1.379 . S
H943 C937 0.959 . S
H944 C937 0.961 . S
H945 C937 0.960 . S
H946 C938 0.930 . S
H947 C939 0.929 . S
H948 C956 0.929 . S
H949 C958 0.930 . S
H950 C960 0.930 . S
H951 C963 0.929 . S
H952 C966 0.930 . S
H953 C968 0.960 . S
H954 C968 0.960 . S
H955 C968 0.960 . S
C956 H948 0.929 . S
C956 C957 1.377 . S
C956 C958 1.384 . S
C957 C956 1.377 . S
C957 C963 1.390 . S
C958 H949 0.930 . S
C958 C956 1.384 . S
C958 C959 1.372 . S
C959 C958 1.372 . S
C959 C960 1.400 . S
C959 C964 1.490 . S
C960 H950 0.930 . S
C960 C959 1.400 . S
C960 C963 1.386 . S
H961 C977 0.930 . S
H962 C978 0.931 . S
C963 H951 0.929 . S
C963 C957 1.390 . S
C963 C960 1.386 . S
C964 C959 1.490 . S
C964 C966 1.395 . S
C964 C967 1.403 . S
H965 C971 0.930 . S
C966 H952 0.930 . S
C966 C964 1.395 . S
C966 C969 1.403 . S
C967 C964 1.403 . S
C967 C968 1.524 . S
C967 C971 1.400 . S
C968 H953 0.960 . S
C968 H954 0.960 . S
C968 H955 0.960 . S
C968 C967 1.524 . S
C969 C966 1.403 . S
C969 C970 1.392 . S
C969 C973 1.495 . S
C970 C969 1.392 . S
C970 C971 1.385 . S
C970 C972 1.478 . S
C971 H965 0.930 . S
C971 C967 1.400 . S
C971 C970 1.385 . S
C972 C970 1.478 . S
C972 C974 1.381 . S
C972 C978 1.383 . S
C973 C969 1.495 . S
C973 H979 0.959 . S
C973 H980 0.961 . S
C973 H981 0.960 . S
C974 C972 1.381 . S
C974 C975 1.394 . S
C974 H982 0.930 . S
C975 C974 1.394 . S
C975 C976 1.383 . S
C975 H983 0.929 . S
C976 C975 1.383 . S
C976 C977 1.377 . S
C977 H961 0.930 . S
C977 C976 1.377 . S
C977 C978 1.379 . S
C978 H962 0.931 . S
C978 C972 1.383 . S
C978 C977 1.379 . S
H979 C973 0.959 . S
H980 C973 0.961 . S
H981 C973 0.960 . S
H982 C974 0.930 . S
H983 C975 0.929 . S
H984 C992 0.929 . S
H985 C994 0.930 . S
H986 C996 0.930 . S
H987 C999 0.929 . S
H988 C1002 0.930 . S
H989 C1004 0.960 . S
H990 C1004 0.960 . S
H991 C1004 0.960 . S
C992 H984 0.929 . S
C992 C993 1.377 . S
C992 C994 1.384 . S
C993 C992 1.377 . S
C993 C999 1.390 . S
C994 H985 0.930 . S
C994 C992 1.384 . S
C994 C995 1.372 . S
C995 C994 1.372 . S
C995 C996 1.400 . S
C995 C1000 1.490 . S
C996 H986 0.930 . S
C996 C995 1.400 . S
C996 C999 1.386 . S
H997 C1013 0.930 . S
H998 C1014 0.931 . S
C999 H987 0.929 . S
C999 C993 1.390 . S
C999 C996 1.386 . S
C1000 C995 1.490 . S
C1000 C1002 1.395 . S
C1000 C1003 1.403 . S
H1001 C1007 0.930 . S
C1002 H988 0.930 . S
C1002 C1000 1.395 . S
C1002 C1005 1.403 . S
C1003 C1000 1.403 . S
C1003 C1004 1.524 . S
C1003 C1007 1.400 . S
C1004 H989 0.960 . S
C1004 H990 0.960 . S
C1004 H991 0.960 . S
C1004 C1003 1.524 . S
C1005 C1002 1.403 . S
C1005 C1006 1.392 . S
C1005 C1009 1.495 . S
C1006 C1005 1.392 . S
C1006 C1007 1.385 . S
C1006 C1008 1.478 . S
C1007 H1001 0.930 . S
C1007 C1003 1.400 . S
C1007 C1006 1.385 . S
C1008 C1006 1.478 . S
C1008 C1010 1.381 . S
C1008 C1014 1.383 . S
C1009 C1005 1.495 . S
C1009 H1015 0.959 . S
C1009 H1016 0.961 . S
C1009 H1017 0.960 . S
C1010 C1008 1.381 . S
C1010 C1011 1.394 . S
C1010 H1018 0.930 . S
C1011 C1010 1.394 . S
C1011 C1012 1.383 . S
C1011 H1019 0.929 . S
C1012 C1011 1.383 . S
C1012 C1013 1.377 . S
C1013 H997 0.930 . S
C1013 C1012 1.377 . S
C1013 C1014 1.379 . S
C1014 H998 0.931 . S
C1014 C1008 1.383 . S
C1014 C1013 1.379 . S
H1015 C1009 0.959 . S
H1016 C1009 0.961 . S
H1017 C1009 0.960 . S
H1018 C1010 0.930 . S
H1019 C1011 0.929 . S
H1020 C1028 0.929 . S
H1021 C1030 0.930 . S
H1022 C1032 0.930 . S
H1023 C1035 0.929 . S
H1024 C1038 0.930 . S
H1025 C1040 0.960 . S
H1026 C1040 0.960 . S
H1027 C1040 0.960 . S
C1028 H1020 0.929 . S
C1028 C1029 1.377 . S
C1028 C1030 1.384 . S
C1029 C1028 1.377 . S
C1029 C1035 1.390 . S
C1030 H1021 0.930 . S
C1030 C1028 1.384 . S
C1030 C1031 1.372 . S
C1031 C1030 1.372 . S
C1031 C1032 1.400 . S
C1031 C1036 1.490 . S
C1032 H1022 0.930 . S
C1032 C1031 1.400 . S
C1032 C1035 1.386 . S
H1033 C1049 0.930 . S
H1034 C1050 0.931 . S
C1035 H1023 0.929 . S
C1035 C1029 1.390 . S
C1035 C1032 1.386 . S
C1036 C1031 1.490 . S
C1036 C1038 1.395 . S
C1036 C1039 1.403 . S
H1037 C1043 0.930 . S
C1038 H1024 0.930 . S
C1038 C1036 1.395 . S
C1038 C1041 1.403 . S
C1039 C1036 1.403 . S
C1039 C1040 1.524 . S
C1039 C1043 1.400 . S
C1040 H1025 0.960 . S
C1040 H1026 0.960 . S
C1040 H1027 0.960 . S
C1040 C1039 1.524 . S
C1041 C1038 1.403 . S
C1041 C1042 1.392 . S
C1041 C1045 1.495 . S
C1042 C1041 1.392 . S
C1042 C1043 1.385 . S
C1042 C1044 1.478 . S
C1043 H1037 0.930 . S
C1043 C1039 1.400 . S
C1043 C1042 1.385 . S
C1044 C1042 1.478 . S
C1044 C1046 1.381 . S
C1044 C1050 1.383 . S
C1045 C1041 1.495 . S
C1045 H1051 0.959 . S
C1045 H1052 0.961 . S
C1045 H1053 0.960 . S
C1046 C1044 1.381 . S
C1046 C1047 1.394 . S
C1046 H1054 0.930 . S
C1047 C1046 1.394 . S
C1047 C1048 1.383 . S
C1047 H1055 0.929 . S
C1048 C1047 1.383 . S
C1048 C1049 1.377 . S
C1049 H1033 0.930 . S
C1049 C1048 1.377 . S
C1049 C1050 1.379 . S
C1050 H1034 0.931 . S
C1050 C1044 1.383 . S
C1050 C1049 1.379 . S
H1051 C1045 0.959 . S
H1052 C1045 0.961 . S
H1053 C1045 0.960 . S
H1054 C1046 0.930 . S
H1055 C1047 0.929 . S
H1056 C1064 0.929 . S
H1057 C1066 0.930 . S
H1058 C1068 0.930 . S
H1059 C1071 0.929 . S
H1060 C1074 0.930 . S
H1061 C1076 0.960 . S
H1062 C1076 0.960 . S
H1063 C1076 0.960 . S
C1064 H1056 0.929 . S
C1064 C1065 1.377 . S
C1064 C1066 1.384 . S
C1065 C1064 1.377 . S
C1065 C1071 1.390 . S
C1066 H1057 0.930 . S
C1066 C1064 1.384 . S
C1066 C1067 1.372 . S
C1067 C1066 1.372 . S
C1067 C1068 1.400 . S
C1067 C1072 1.490 . S
C1068 H1058 0.930 . S
C1068 C1067 1.400 . S
C1068 C1071 1.386 . S
H1069 C1085 0.930 . S
H1070 C1086 0.931 . S
C1071 H1059 0.929 . S
C1071 C1065 1.390 . S
C1071 C1068 1.386 . S
C1072 C1067 1.490 . S
C1072 C1074 1.395 . S
C1072 C1075 1.403 . S
H1073 C1079 0.930 . S
C1074 H1060 0.930 . S
C1074 C1072 1.395 . S
C1074 C1077 1.403 . S
C1075 C1072 1.403 . S
C1075 C1076 1.524 . S
C1075 C1079 1.400 . S
C1076 H1061 0.960 . S
C1076 H1062 0.960 . S
C1076 H1063 0.960 . S
C1076 C1075 1.524 . S
C1077 C1074 1.403 . S
C1077 C1078 1.392 . S
C1077 C1081 1.495 . S
C1078 C1077 1.392 . S
C1078 C1079 1.385 . S
C1078 C1080 1.478 . S
C1079 H1073 0.930 . S
C1079 C1075 1.400 . S
C1079 C1078 1.385 . S
C1080 C1078 1.478 . S
C1080 C1082 1.381 . S
C1080 C1086 1.383 . S
C1081 C1077 1.495 . S
C1081 H1087 0.959 . S
C1081 H1088 0.961 . S
C1081 H1089 0.960 . S
C1082 C1080 1.381 . S
C1082 C1083 1.394 . S
C1082 H1090 0.930 . S
C1083 C1082 1.394 . S
C1083 C1084 1.383 . S
C1083 H1091 0.929 . S
C1084 C1083 1.383 . S
C1084 C1085 1.377 . S
C1085 H1069 0.930 . S
C1085 C1084 1.377 . S
C1085 C1086 1.379 . S
C1086 H1070 0.931 . S
C1086 C1080 1.383 . S
C1086 C1085 1.379 . S
H1087 C1081 0.959 . S
H1088 C1081 0.961 . S
H1089 C1081 0.960 . S
H1090 C1082 0.930 . S
H1091 C1083 0.929 . S
H1092 C1100 0.929 . S
H1093 C1102 0.930 . S
H1094 C1104 0.930 . S
H1095 C1107 0.929 . S
H1096 C1110 0.930 . S
H1097 C1112 0.960 . S
H1098 C1112 0.960 . S
H1099 C1112 0.960 . S
C1100 H1092 0.929 . S
C1100 C1101 1.377 . S
C1100 C1102 1.384 . S
C1101 C1100 1.377 . S
C1101 C1107 1.390 . S
C1102 H1093 0.930 . S
C1102 C1100 1.384 . S
C1102 C1103 1.372 . S
C1103 C1102 1.372 . S
C1103 C1104 1.400 . S
C1103 C1108 1.490 . S
C1104 H1094 0.930 . S
C1104 C1103 1.400 . S
C1104 C1107 1.386 . S
H1105 C1121 0.930 . S
H1106 C1122 0.931 . S
C1107 H1095 0.929 . S
C1107 C1101 1.390 . S
C1107 C1104 1.386 . S
C1108 C1103 1.490 . S
C1108 C1110 1.395 . S
C1108 C1111 1.403 . S
H1109 C1115 0.930 . S
C1110 H1096 0.930 . S
C1110 C1108 1.395 . S
C1110 C1113 1.403 . S
C1111 C1108 1.403 . S
C1111 C1112 1.524 . S
C1111 C1115 1.400 . S
C1112 H1097 0.960 . S
C1112 H1098 0.960 . S
C1112 H1099 0.960 . S
C1112 C1111 1.524 . S
C1113 C1110 1.403 . S
C1113 C1114 1.392 . S
C1113 C1117 1.495 . S
C1114 C1113 1.392 . S
C1114 C1115 1.385 . S
C1114 C1116 1.478 . S
C1115 H1109 0.930 . S
C1115 C1111 1.400 . S
C1115 C1114 1.385 . S
C1116 C1114 1.478 . S
C1116 C1118 1.381 . S
C1116 C1122 1.383 . S
C1117 C1113 1.495 . S
C1117 H1123 0.959 . S
C1117 H1124 0.961 . S
C1117 H1125 0.960 . S
C1118 C1116 1.381 . S
C1118 C1119 1.394 . S
C1118 H1126 0.930 . S
C1119 C1118 1.394 . S
C1119 C1120 1.383 . S
C1119 H1127 0.929 . S
C1120 C1119 1.383 . S
C1120 C1121 1.377 . S
C1121 H1105 0.930 . S
C1121 C1120 1.377 . S
C1121 C1122 1.379 . S
C1122 H1106 0.931 . S
C1122 C1116 1.383 . S
C1122 C1121 1.379 . S
H1123 C1117 0.959 . S
H1124 C1117 0.961 . S
H1125 C1117 0.960 . S
H1126 C1118 0.930 . S
H1127 C1119 0.929 . S
H1128 C1136 0.929 . S
H1129 C1138 0.930 . S
H1130 C1140 0.930 . S
H1131 C1143 0.929 . S
H1132 C1146 0.930 . S
H1133 C1148 0.960 . S
H1134 C1148 0.960 . S
H1135 C1148 0.960 . S
C1136 H1128 0.929 . S
C1136 C1137 1.377 . S
C1136 C1138 1.384 . S
C1137 C1136 1.377 . S
C1137 C1143 1.390 . S
C1138 H1129 0.930 . S
C1138 C1136 1.384 . S
C1138 C1139 1.372 . S
C1139 C1138 1.372 . S
C1139 C1140 1.400 . S
C1139 C1144 1.490 . S
C1140 H1130 0.930 . S
C1140 C1139 1.400 . S
C1140 C1143 1.386 . S
H1141 C1157 0.930 . S
H1142 C1158 0.931 . S
C1143 H1131 0.929 . S
C1143 C1137 1.390 . S
C1143 C1140 1.386 . S
C1144 C1139 1.490 . S
C1144 C1146 1.395 1_556 S
C1144 C1147 1.403 1_565 S
H1145 C1151 0.930 . S
C1146 H1132 0.930 . S
C1146 C1144 1.395 1_554 S
C1146 C1149 1.403 . S
C1147 C1144 1.403 1_545 S
C1147 C1148 1.524 . S
C1147 C1151 1.400 . S
C1148 H1133 0.960 . S
C1148 H1134 0.960 . S
C1148 H1135 0.960 . S
C1148 C1147 1.524 . S
C1149 C1146 1.403 . S
C1149 C1150 1.392 1_565 S
C1149 C1153 1.495 . S
C1150 C1149 1.392 1_545 S
C1150 C1151 1.385 1_554 S
C1150 C1152 1.478 . S
C1151 H1145 0.930 . S
C1151 C1147 1.400 . S
C1151 C1150 1.385 1_556 S
C1152 C1150 1.478 . S
C1152 C1154 1.381 . S
C1152 C1158 1.383 . S
C1153 C1149 1.495 . S
C1153 H1159 0.959 . S
C1153 H1160 0.961 . S
C1153 H1161 0.960 . S
C1154 C1152 1.381 . S
C1154 C1155 1.394 . S
C1154 H1162 0.930 . S
C1155 C1154 1.394 . S
C1155 C1156 1.383 . S
C1155 H1163 0.929 . S
C1156 C1155 1.383 . S
C1156 C1157 1.377 . S
C1157 H1141 0.930 . S
C1157 C1156 1.377 . S
C1157 C1158 1.379 . S
C1158 H1142 0.931 . S
C1158 C1152 1.383 . S
C1158 C1157 1.379 . S
H1159 C1153 0.959 . S
H1160 C1153 0.961 . S
H1161 C1153 0.960 . S
H1162 C1154 0.930 . S
H1163 C1155 0.929 . S
H1164 C1172 0.929 . S
H1165 C1174 0.930 . S
H1166 C1176 0.930 . S
H1167 C1179 0.929 . S
H1168 C1182 0.930 . S
H1169 C1184 0.960 . S
H1170 C1184 0.960 . S
H1171 C1184 0.960 . S
C1172 H1164 0.929 . S
C1172 C1173 1.377 . S
C1172 C1174 1.384 . S
C1173 C1172 1.377 . S
C1173 C1179 1.390 . S
C1174 H1165 0.930 . S
C1174 C1172 1.384 . S
C1174 C1175 1.372 . S
C1175 C1174 1.372 . S
C1175 C1176 1.400 . S
C1175 C1180 1.490 . S
C1176 H1166 0.930 . S
C1176 C1175 1.400 . S
C1176 C1179 1.386 . S
H1177 C1193 0.930 . S
H1178 C1194 0.931 . S
C1179 H1167 0.929 . S
C1179 C1173 1.390 . S
C1179 C1176 1.386 . S
C1180 C1175 1.490 . S
C1180 C1182 1.395 . S
C1180 C1183 1.403 . S
H1181 C1187 0.930 . S
C1182 H1168 0.930 . S
C1182 C1180 1.395 . S
C1182 C1185 1.403 . S
C1183 C1180 1.403 . S
C1183 C1184 1.524 . S
C1183 C1187 1.400 . S
C1184 H1169 0.960 . S
C1184 H1170 0.960 . S
C1184 H1171 0.960 . S
C1184 C1183 1.524 . S
C1185 C1182 1.403 . S
C1185 C1186 1.392 . S
C1185 C1189 1.495 . S
C1186 C1185 1.392 . S
C1186 C1187 1.385 . S
C1186 C1188 1.478 . S
C1187 H1181 0.930 . S
C1187 C1183 1.400 . S
C1187 C1186 1.385 . S
C1188 C1186 1.478 . S
C1188 C1190 1.381 . S
C1188 C1194 1.383 . S
C1189 C1185 1.495 . S
C1189 H1195 0.959 . S
C1189 H1196 0.961 . S
C1189 H1197 0.960 . S
C1190 C1188 1.381 . S
C1190 C1191 1.394 . S
C1190 H1198 0.930 . S
C1191 C1190 1.394 . S
C1191 C1192 1.383 . S
C1191 H1199 0.929 . S
C1192 C1191 1.383 . S
C1192 C1193 1.377 . S
C1193 H1177 0.930 . S
C1193 C1192 1.377 . S
C1193 C1194 1.379 . S
C1194 H1178 0.931 . S
C1194 C1188 1.383 . S
C1194 C1193 1.379 . S
H1195 C1189 0.959 . S
H1196 C1189 0.961 . S
H1197 C1189 0.960 . S
H1198 C1190 0.930 . S
H1199 C1191 0.929 . S
H1200 C1208 0.929 . S
H1201 C1210 0.930 . S
H1202 C1212 0.930 . S
H1203 C1215 0.929 . S
H1204 C1218 0.930 . S
H1205 C1220 0.960 . S
H1206 C1220 0.960 . S
H1207 C1220 0.960 . S
C1208 H1200 0.929 . S
C1208 C1209 1.377 . S
C1208 C1210 1.384 . S
C1209 C1208 1.377 . S
C1209 C1215 1.390 . S
C1210 H1201 0.930 . S
C1210 C1208 1.384 . S
C1210 C1211 1.372 . S
C1211 C1210 1.372 . S
C1211 C1212 1.400 . S
C1211 C1216 1.490 . S
C1212 H1202 0.930 . S
C1212 C1211 1.400 . S
C1212 C1215 1.386 . S
H1213 C1229 0.930 . S
H1214 C1230 0.931 . S
C1215 H1203 0.929 . S
C1215 C1209 1.390 . S
C1215 C1212 1.386 . S
C1216 C1211 1.490 . S
C1216 C1218 1.395 . S
C1216 C1219 1.403 . S
H1217 C1223 0.930 . S
C1218 H1204 0.930 . S
C1218 C1216 1.395 . S
C1218 C1221 1.403 1_456 S
C1219 C1216 1.403 . S
C1219 C1220 1.524 . S
C1219 C1223 1.400 1_456 S
C1220 H1205 0.960 . S
C1220 H1206 0.960 . S
C1220 H1207 0.960 . S
C1220 C1219 1.524 . S
C1221 C1218 1.403 1_654 S
C1221 C1222 1.392 . S
C1221 C1225 1.495 . S
C1222 C1221 1.392 . S
C1222 C1223 1.385 . S
C1222 C1224 1.478 . S
C1223 H1217 0.930 . S
C1223 C1219 1.400 1_654 S
C1223 C1222 1.385 . S
C1224 C1222 1.478 . S
C1224 C1226 1.381 . S
C1224 C1230 1.383 . S
C1225 C1221 1.495 . S
C1225 H1231 0.959 . S
C1225 H1232 0.961 . S
C1225 H1233 0.960 . S
C1226 C1224 1.381 . S
C1226 C1227 1.394 . S
C1226 H1234 0.930 . S
C1227 C1226 1.394 . S
C1227 C1228 1.383 . S
C1227 H1235 0.929 . S
C1228 C1227 1.383 . S
C1228 C1229 1.377 . S
C1229 H1213 0.930 . S
C1229 C1228 1.377 . S
C1229 C1230 1.379 . S
C1230 H1214 0.931 . S
C1230 C1224 1.383 . S
C1230 C1229 1.379 . S
H1231 C1225 0.959 . S
H1232 C1225 0.961 . S
H1233 C1225 0.960 . S
H1234 C1226 0.930 . S
H1235 C1227 0.929 . S
H1236 C1244 0.929 . S
H1237 C1246 0.930 . S
H1238 C1248 0.930 . S
H1239 C1251 0.929 . S
H1240 C1254 0.930 . S
H1241 C1256 0.960 . S
H1242 C1256 0.960 . S
H1243 C1256 0.960 1_545 S
C1244 H1236 0.929 . S
C1244 C1245 1.377 . S
C1244 C1246 1.384 . S
C1245 C1244 1.377 . S
C1245 C1251 1.390 . S
C1246 H1237 0.930 . S
C1246 C1244 1.384 . S
C1246 C1247 1.372 . S
C1247 C1246 1.372 . S
C1247 C1248 1.400 . S
C1247 C1252 1.490 . S
C1248 H1238 0.930 . S
C1248 C1247 1.400 . S
C1248 C1251 1.386 . S
H1249 C1265 0.930 . S
H1250 C1266 0.931 . S
C1251 H1239 0.929 . S
C1251 C1245 1.390 . S
C1251 C1248 1.386 . S
C1252 C1247 1.490 . S
C1252 C1254 1.395 . S
C1252 C1255 1.403 1_545 S
H1253 C1259 0.930 . S
C1254 H1240 0.930 . S
C1254 C1252 1.395 . S
C1254 C1257 1.403 . S
C1255 C1252 1.403 1_565 S
C1255 C1256 1.524 . S
C1255 C1259 1.400 . S
C1256 H1241 0.960 . S
C1256 H1242 0.960 . S
C1256 H1243 0.960 1_565 S
C1256 C1255 1.524 . S
C1257 C1254 1.403 . S
C1257 C1258 1.392 1_545 S
C1257 C1261 1.495 . S
C1258 C1257 1.392 1_565 S
C1258 C1259 1.385 . S
C1258 C1260 1.478 . S
C1259 H1253 0.930 . S
C1259 C1255 1.400 . S
C1259 C1258 1.385 . S
C1260 C1258 1.478 . S
C1260 C1262 1.381 . S
C1260 C1266 1.383 . S
C1261 C1257 1.495 . S
C1261 H1267 0.959 . S
C1261 H1268 0.961 . S
C1261 H1269 0.960 1_545 S
C1262 C1260 1.381 . S
C1262 C1263 1.394 . S
C1262 H1270 0.930 . S
C1263 C1262 1.394 . S
C1263 C1264 1.383 . S
C1263 H1271 0.929 . S
C1264 C1263 1.383 . S
C1264 C1265 1.377 . S
C1265 H1249 0.930 . S
C1265 C1264 1.377 . S
C1265 C1266 1.379 . S
C1266 H1250 0.931 . S
C1266 C1260 1.383 . S
C1266 C1265 1.379 . S
H1267 C1261 0.959 . S
H1268 C1261 0.961 . S
H1269 C1261 0.960 1_565 S
H1270 C1262 0.930 . S
H1271 C1263 0.929 . S
H1272 C1280 0.929 . S
H1273 C1282 0.930 . S
H1274 C1284 0.930 . S
H1275 C1287 0.929 . S
H1276 C1290 0.930 . S
H1277 C1292 0.960 . S
H1278 C1292 0.960 . S
H1279 C1292 0.960 . S
C1280 H1272 0.929 . S
C1280 C1281 1.377 . S
C1280 C1282 1.384 . S
C1281 C1280 1.377 . S
C1281 C1287 1.390 . S
C1282 H1273 0.930 . S
C1282 C1280 1.384 . S
C1282 C1283 1.372 . S
C1283 C1282 1.372 . S
C1283 C1284 1.400 . S
C1283 C1288 1.490 . S
C1284 H1274 0.930 . S
C1284 C1283 1.400 . S
C1284 C1287 1.386 . S
H1285 C1301 0.930 . S
H1286 C1302 0.931 . S
C1287 H1275 0.929 . S
C1287 C1281 1.390 . S
C1287 C1284 1.386 . S
C1288 C1283 1.490 . S
C1288 C1290 1.395 1_554 S
C1288 C1291 1.403 . S
H1289 C1295 0.941 . S
C1290 H1276 0.930 . S
C1290 C1288 1.395 1_556 S
C1290 C1293 1.403 . S
C1291 C1288 1.403 . S
C1291 C1292 1.524 . S
C1291 C1295 1.446 . S
C1292 H1277 0.960 . S
C1292 H1278 0.960 . S
C1292 H1279 0.960 . S
C1292 C1291 1.524 . S
C1293 C1290 1.403 . S
C1293 C1294 1.392 . S
C1293 C1297 1.495 . S
C1294 C1293 1.392 . S
C1294 C1295 1.331 1_556 S
C1294 C1296 1.478 . S
C1295 H1289 0.941 . S
C1295 C1291 1.446 . S
C1295 C1294 1.331 1_554 S
C1296 C1294 1.478 . S
C1296 C1298 1.381 . S
C1296 C1302 1.383 . S
C1297 C1293 1.495 . S
C1297 H1303 0.959 . S
C1297 H1304 0.961 . S
C1297 H1305 0.960 . S
C1298 C1296 1.381 . S
C1298 C1299 1.394 . S
C1298 H1306 0.930 . S
C1299 C1298 1.394 . S
C1299 C1300 1.383 . S
C1299 H1307 0.929 . S
C1300 C1299 1.383 . S
C1300 C1301 1.377 . S
C1301 H1285 0.930 . S
C1301 C1300 1.377 . S
C1301 C1302 1.379 . S
C1302 H1286 0.931 . S
C1302 C1296 1.383 . S
C1302 C1301 1.379 . S
H1303 C1297 0.959 . S
H1304 C1297 0.961 . S
H1305 C1297 0.960 . S
H1306 C1298 0.930 . S
H1307 C1299 0.929 . S
H1308 C1316 0.929 . S
H1309 C1318 0.930 . S
H1310 C1320 0.930 . S
H1311 C1323 0.929 . S
H1312 C1326 0.946 1_455 S
H1313 C1328 0.960 . S
H1314 C1328 0.960 . S
H1315 C1328 0.960 . S
C1316 H1308 0.929 . S
C1316 C1317 1.377 . S
C1316 C1318 1.384 . S
C1317 C1316 1.377 . S
C1317 C1323 1.390 . S
C1318 H1309 0.930 . S
C1318 C1316 1.384 . S
C1318 C1319 1.372 . S
C1319 C1318 1.372 . S
C1319 C1320 1.400 . S
C1319 C1324 1.490 . S
C1320 H1310 0.930 . S
C1320 C1319 1.400 . S
C1320 C1323 1.386 . S
H1321 C1337 0.930 . S
H1322 C1338 0.931 . S
C1323 H1311 0.929 . S
C1323 C1317 1.390 . S
C1323 C1320 1.386 . S
C1324 C1319 1.490 . S
C1324 C1326 1.361 1_455 S
C1324 C1327 1.403 . S
H1325 C1331 0.930 . S
C1326 H1312 0.946 1_655 S
C1326 C1324 1.361 1_655 S
C1326 C1329 1.428 . S
C1327 C1324 1.403 . S
C1327 C1328 1.524 . S
C1327 C1331 1.400 1_455 S
C1328 H1313 0.960 . S
C1328 H1314 0.960 . S
C1328 H1315 0.960 . S
C1328 C1327 1.524 . S
C1329 C1326 1.428 . S
C1329 C1330 1.392 . S
C1329 C1333 1.495 . S
C1330 C1329 1.392 . S
C1330 C1331 1.385 . S
C1330 C1332 1.478 . S
C1331 H1325 0.930 . S
C1331 C1327 1.400 1_655 S
C1331 C1330 1.385 . S
C1332 C1330 1.478 . S
C1332 C1334 1.381 . S
C1332 C1338 1.383 . S
C1333 C1329 1.495 . S
C1333 H1339 0.959 . S
C1333 H1340 0.961 . S
C1333 H1341 0.960 . S
C1334 C1332 1.381 . S
C1334 C1335 1.394 . S
C1334 H1342 0.930 . S
C1335 C1334 1.394 . S
C1335 C1336 1.383 . S
C1335 H1343 0.929 . S
C1336 C1335 1.383 . S
C1336 C1337 1.377 . S
C1337 H1321 0.930 . S
C1337 C1336 1.377 . S
C1337 C1338 1.379 . S
C1338 H1322 0.931 . S
C1338 C1332 1.383 . S
C1338 C1337 1.379 . S
H1339 C1333 0.959 . S
H1340 C1333 0.961 . S
H1341 C1333 0.960 . S
H1342 C1334 0.930 . S
H1343 C1335 0.929 . S
H1344 C1352 0.929 . S
H1345 C1354 0.930 . S
H1346 C1356 0.930 . S
H1347 C1359 0.929 . S
H1348 C1362 0.930 . S
H1349 C1364 0.960 . S
H1350 C1364 0.960 . S
H1351 C1364 0.960 . S
C1352 H1344 0.929 . S
C1352 C1353 1.377 . S
C1352 C1354 1.384 . S
C1353 C1352 1.377 . S
C1353 C1359 1.390 . S
C1354 H1345 0.930 . S
C1354 C1352 1.384 . S
C1354 C1355 1.372 . S
C1355 C1354 1.372 . S
C1355 C1356 1.400 . S
C1355 C1360 1.490 . S
C1356 H1346 0.930 . S
C1356 C1355 1.400 . S
C1356 C1359 1.386 . S
H1357 C1373 0.930 . S
H1358 C1374 0.931 . S
C1359 H1347 0.929 . S
C1359 C1353 1.390 . S
C1359 C1356 1.386 . S
C1360 C1355 1.490 . S
C1360 C1362 1.395 . S
C1360 C1363 1.403 . S
H1361 C1367 0.930 . S
C1362 H1348 0.930 . S
C1362 C1360 1.395 . S
C1362 C1365 1.403 . S
C1363 C1360 1.403 . S
C1363 C1364 1.524 . S
C1363 C1367 1.400 . S
C1364 H1349 0.960 . S
C1364 H1350 0.960 . S
C1364 H1351 0.960 . S
C1364 C1363 1.524 . S
C1365 C1362 1.403 . S
C1365 C1366 1.392 . S
C1365 C1369 1.495 . S
C1366 C1365 1.392 . S
C1366 C1367 1.385 . S
C1366 C1368 1.478 . S
C1367 H1361 0.930 . S
C1367 C1363 1.400 . S
C1367 C1366 1.385 . S
C1368 C1366 1.478 . S
C1368 C1370 1.381 . S
C1368 C1374 1.383 . S
C1369 C1365 1.495 . S
C1369 H1375 0.959 . S
C1369 H1376 0.961 . S
C1369 H1377 0.960 . S
C1370 C1368 1.381 . S
C1370 C1371 1.394 . S
C1370 H1378 0.930 . S
C1371 C1370 1.394 . S
C1371 C1372 1.383 . S
C1371 H1379 0.929 . S
C1372 C1371 1.383 . S
C1372 C1373 1.377 . S
C1373 H1357 0.930 . S
C1373 C1372 1.377 . S
C1373 C1374 1.379 . S
C1374 H1358 0.931 . S
C1374 C1368 1.383 . S
C1374 C1373 1.379 . S
H1375 C1369 0.959 . S
H1376 C1369 0.961 . S
H1377 C1369 0.960 . S
H1378 C1370 0.930 . S
H1379 C1371 0.929 . S
H1380 C1388 0.929 . S
H1381 C1390 0.930 . S
H1382 C1392 0.930 . S
H1383 C1395 0.929 . S
H1384 C1398 0.930 . S
H1385 C1400 0.960 . S
H1386 C1400 0.960 . S
H1387 C1400 0.960 . S
C1388 H1380 0.929 . S
C1388 C1389 1.377 . S
C1388 C1390 1.384 . S
C1389 C1388 1.377 . S
C1389 C1395 1.390 . S
C1390 H1381 0.930 . S
C1390 C1388 1.384 . S
C1390 C1391 1.372 . S
C1391 C1390 1.372 . S
C1391 C1392 1.400 . S
C1391 C1396 1.490 . S
C1392 H1382 0.930 . S
C1392 C1391 1.400 . S
C1392 C1395 1.386 . S
H1393 C1409 0.930 . S
H1394 C1410 0.931 . S
C1395 H1383 0.929 . S
C1395 C1389 1.390 . S
C1395 C1392 1.386 . S
C1396 C1391 1.490 . S
C1396 C1398 1.395 . S
C1396 C1399 1.403 . S
H1397 C1403 0.930 . S
C1398 H1384 0.930 . S
C1398 C1396 1.395 . S
C1398 C1401 1.403 . S
C1399 C1396 1.403 . S
C1399 C1400 1.524 . S
C1399 C1403 1.400 . S
C1400 H1385 0.960 . S
C1400 H1386 0.960 . S
C1400 H1387 0.960 . S
C1400 C1399 1.524 . S
C1401 C1398 1.403 . S
C1401 C1402 1.392 . S
C1401 C1405 1.495 . S
C1402 C1401 1.392 . S
C1402 C1403 1.385 . S
C1402 C1404 1.478 . S
C1403 H1397 0.930 . S
C1403 C1399 1.400 . S
C1403 C1402 1.385 . S
C1404 C1402 1.478 . S
C1404 C1406 1.381 . S
C1404 C1410 1.383 . S
C1405 C1401 1.495 . S
C1405 H1411 0.959 . S
C1405 H1412 0.961 . S
C1405 H1413 0.960 . S
C1406 C1404 1.381 . S
C1406 C1407 1.394 . S
C1406 H1414 0.930 . S
C1407 C1406 1.394 . S
C1407 C1408 1.383 . S
C1407 H1415 0.929 . S
C1408 C1407 1.383 . S
C1408 C1409 1.377 . S
C1409 H1393 0.930 . S
C1409 C1408 1.377 . S
C1409 C1410 1.379 . S
C1410 H1394 0.931 . S
C1410 C1404 1.383 . S
C1410 C1409 1.379 . S
H1411 C1405 0.959 . S
H1412 C1405 0.961 . S
H1413 C1405 0.960 . S
H1414 C1406 0.930 . S
H1415 C1407 0.929 . S
H1416 C1424 0.929 . S
H1417 C1426 0.930 . S
H1418 C1428 0.930 . S
H1419 C1431 0.929 . S
H1420 C1434 0.930 . S
H1421 C1436 0.960 . S
H1422 C1436 0.960 . S
H1423 C1436 0.960 . S
C1424 H1416 0.929 . S
C1424 C1425 1.377 . S
C1424 C1426 1.384 . S
C1425 C1424 1.377 . S
C1425 C1431 1.390 . S
C1426 H1417 0.930 . S
C1426 C1424 1.384 . S
C1426 C1427 1.372 . S
C1427 C1426 1.372 . S
C1427 C1428 1.400 . S
C1427 C1432 1.490 . S
C1428 H1418 0.930 . S
C1428 C1427 1.400 . S
C1428 C1431 1.386 . S
H1429 C1445 0.930 . S
H1430 C1446 0.931 . S
C1431 H1419 0.929 . S
C1431 C1425 1.390 . S
C1431 C1428 1.386 . S
C1432 C1427 1.490 . S
C1432 C1434 1.395 . S
C1432 C1435 1.403 . S
H1433 C1439 0.930 . S
C1434 H1420 0.930 . S
C1434 C1432 1.395 . S
C1434 C1437 1.403 . S
C1435 C1432 1.403 . S
C1435 C1436 1.524 . S
C1435 C1439 1.400 . S
C1436 H1421 0.960 . S
C1436 H1422 0.960 . S
C1436 H1423 0.960 . S
C1436 C1435 1.524 . S
C1437 C1434 1.403 . S
C1437 C1438 1.392 . S
C1437 C1441 1.495 . S
C1438 C1437 1.392 . S
C1438 C1439 1.385 . S
C1438 C1440 1.478 . S
C1439 H1433 0.930 . S
C1439 C1435 1.400 . S
C1439 C1438 1.385 . S
C1440 C1438 1.478 . S
C1440 C1442 1.381 . S
C1440 C1446 1.383 . S
C1441 C1437 1.495 . S
C1441 H1447 0.959 . S
C1441 H1448 0.961 . S
C1441 H1449 0.960 . S
C1442 C1440 1.381 . S
C1442 C1443 1.394 . S
C1442 H1450 0.930 . S
C1443 C1442 1.394 . S
C1443 C1444 1.383 . S
C1443 H1451 0.929 . S
C1444 C1443 1.383 . S
C1444 C1445 1.377 . S
C1445 H1429 0.930 . S
C1445 C1444 1.377 . S
C1445 C1446 1.379 . S
C1446 H1430 0.931 . S
C1446 C1440 1.383 . S
C1446 C1445 1.379 . S
H1447 C1441 0.959 . S
H1448 C1441 0.961 . S
H1449 C1441 0.960 . S
H1450 C1442 0.930 . S
H1451 C1443 0.929 . S
H1452 C1460 0.929 . S
H1453 C1462 0.930 . S
H1454 C1464 0.930 . S
H1455 C1467 0.929 . S
H1456 C1470 0.930 . S
H1457 C1472 0.960 . S
H1458 C1472 0.960 . S
H1459 C1472 0.960 . S
C1460 H1452 0.929 . S
C1460 C1461 1.377 . S
C1460 C1462 1.384 . S
C1461 C1460 1.377 . S
C1461 C1467 1.390 . S
C1462 H1453 0.930 . S
C1462 C1460 1.384 . S
C1462 C1463 1.372 . S
C1463 C1462 1.372 . S
C1463 C1464 1.400 . S
C1463 C1468 1.490 . S
C1464 H1454 0.930 . S
C1464 C1463 1.400 . S
C1464 C1467 1.386 . S
H1465 C1481 0.930 . S
H1466 C1482 0.931 . S
C1467 H1455 0.929 . S
C1467 C1461 1.390 . S
C1467 C1464 1.386 . S
C1468 C1463 1.490 . S
C1468 C1470 1.395 . S
C1468 C1471 1.403 . S
H1469 C1475 0.930 . S
C1470 H1456 0.930 . S
C1470 C1468 1.395 . S
C1470 C1473 1.403 . S
C1471 C1468 1.403 . S
C1471 C1472 1.524 . S
C1471 C1475 1.400 . S
C1472 H1457 0.960 . S
C1472 H1458 0.960 . S
C1472 H1459 0.960 . S
C1472 C1471 1.524 . S
C1473 C1470 1.403 . S
C1473 C1474 1.392 . S
C1473 C1477 1.495 . S
C1474 C1473 1.392 . S
C1474 C1475 1.385 . S
C1474 C1476 1.478 . S
C1475 H1469 0.930 . S
C1475 C1471 1.400 . S
C1475 C1474 1.385 . S
C1476 C1474 1.478 . S
C1476 C1478 1.381 . S
C1476 C1482 1.383 . S
C1477 C1473 1.495 . S
C1477 H1483 0.959 . S
C1477 H1484 0.961 . S
C1477 H1485 0.960 . S
C1478 C1476 1.381 . S
C1478 C1479 1.394 . S
C1478 H1486 0.930 . S
C1479 C1478 1.394 . S
C1479 C1480 1.383 . S
C1479 H1487 0.929 . S
C1480 C1479 1.383 . S
C1480 C1481 1.377 . S
C1481 H1465 0.930 . S
C1481 C1480 1.377 . S
C1481 C1482 1.379 . S
C1482 H1466 0.931 . S
C1482 C1476 1.383 . S
C1482 C1481 1.379 . S
H1483 C1477 0.959 . S
H1484 C1477 0.961 . S
H1485 C1477 0.960 . S
H1486 C1478 0.930 . S
H1487 C1479 0.929 . S
H1488 C1496 0.929 . S
H1489 C1498 0.930 . S
H1490 C1500 0.930 . S
H1491 C1503 0.929 . S
H1492 C1506 0.930 . S
H1493 C1508 0.960 . S
H1494 C1508 0.960 . S
H1495 C1508 0.960 . S
C1496 H1488 0.929 . S
C1496 C1497 1.377 . S
C1496 C1498 1.384 . S
C1497 C1496 1.377 . S
C1497 C1503 1.390 . S
C1498 H1489 0.930 . S
C1498 C1496 1.384 . S
C1498 C1499 1.372 . S
C1499 C1498 1.372 . S
C1499 C1500 1.400 . S
C1499 C1504 1.490 . S
C1500 H1490 0.930 . S
C1500 C1499 1.400 . S
C1500 C1503 1.386 . S
H1501 C1517 0.930 . S
H1502 C1518 0.931 . S
C1503 H1491 0.929 . S
C1503 C1497 1.390 . S
C1503 C1500 1.386 . S
C1504 C1499 1.490 . S
C1504 C1506 1.395 . S
C1504 C1507 1.403 . S
H1505 C1511 0.930 . S
C1506 H1492 0.930 . S
C1506 C1504 1.395 . S
C1506 C1509 1.403 . S
C1507 C1504 1.403 . S
C1507 C1508 1.524 . S
C1507 C1511 1.400 . S
C1508 H1493 0.960 . S
C1508 H1494 0.960 . S
C1508 H1495 0.960 . S
C1508 C1507 1.524 . S
C1509 C1506 1.403 . S
C1509 C1510 1.392 . S
C1509 C1513 1.495 . S
C1510 C1509 1.392 . S
C1510 C1511 1.385 . S
C1510 C1512 1.478 . S
C1511 H1505 0.930 . S
C1511 C1507 1.400 . S
C1511 C1510 1.385 . S
C1512 C1510 1.478 . S
C1512 C1514 1.381 . S
C1512 C1518 1.383 . S
C1513 C1509 1.495 . S
C1513 H1519 0.959 . S
C1513 H1520 0.961 . S
C1513 H1521 0.960 . S
C1514 C1512 1.381 . S
C1514 C1515 1.394 . S
C1514 H1522 0.930 . S
C1515 C1514 1.394 . S
C1515 C1516 1.383 . S
C1515 H1523 0.929 . S
C1516 C1515 1.383 . S
C1516 C1517 1.377 . S
C1517 H1501 0.930 . S
C1517 C1516 1.377 . S
C1517 C1518 1.379 . S
C1518 H1502 0.931 . S
C1518 C1512 1.383 . S
C1518 C1517 1.379 . S
H1519 C1513 0.959 . S
H1520 C1513 0.961 . S
H1521 C1513 0.960 . S
H1522 C1514 0.930 . S
H1523 C1515 0.929 . S
H1524 C1532 0.929 . S
H1525 C1534 0.930 . S
H1526 C1536 0.930 . S
H1527 C1539 0.929 . S
H1528 C1542 0.930 . S
H1529 C1544 0.960 . S
H1530 C1544 0.960 . S
H1531 C1544 0.960 . S
C1532 H1524 0.929 . S
C1532 C1533 1.377 . S
C1532 C1534 1.384 . S
C1533 C1532 1.377 . S
C1533 C1539 1.390 . S
C1534 H1525 0.930 . S
C1534 C1532 1.384 . S
C1534 C1535 1.372 . S
C1535 C1534 1.372 . S
C1535 C1536 1.400 . S
C1535 C1540 1.490 . S
C1536 H1526 0.930 . S
C1536 C1535 1.400 . S
C1536 C1539 1.386 . S
H1537 C1553 0.930 . S
H1538 C1554 0.931 . S
C1539 H1527 0.929 . S
C1539 C1533 1.390 . S
C1539 C1536 1.386 . S
C1540 C1535 1.490 . S
C1540 C1542 1.395 . S
C1540 C1543 1.403 . S
H1541 C1547 0.930 . S
C1542 H1528 0.930 . S
C1542 C1540 1.395 . S
C1542 C1545 1.403 . S
C1543 C1540 1.403 . S
C1543 C1544 1.524 . S
C1543 C1547 1.400 . S
C1544 H1529 0.960 . S
C1544 H1530 0.960 . S
C1544 H1531 0.960 . S
C1544 C1543 1.524 . S
C1545 C1542 1.403 . S
C1545 C1546 1.392 . S
C1545 C1549 1.495 . S
C1546 C1545 1.392 . S
C1546 C1547 1.385 . S
C1546 C1548 1.478 . S
C1547 H1541 0.930 . S
C1547 C1543 1.400 . S
C1547 C1546 1.385 . S
C1548 C1546 1.478 . S
C1548 C1550 1.381 . S
C1548 C1554 1.383 . S
C1549 C1545 1.495 . S
C1549 H1555 0.959 . S
C1549 H1556 0.961 . S
C1549 H1557 0.960 . S
C1550 C1548 1.381 . S
C1550 C1551 1.394 . S
C1550 H1558 0.930 . S
C1551 C1550 1.394 . S
C1551 C1552 1.383 . S
C1551 H1559 0.929 . S
C1552 C1551 1.383 . S
C1552 C1553 1.377 . S
C1553 H1537 0.930 . S
C1553 C1552 1.377 . S
C1553 C1554 1.379 . S
C1554 H1538 0.931 . S
C1554 C1548 1.383 . S
C1554 C1553 1.379 . S
H1555 C1549 0.959 . S
H1556 C1549 0.961 . S
H1557 C1549 0.960 . S
H1558 C1550 0.930 . S
H1559 C1551 0.929 . S
H1560 C1568 0.929 . S
H1561 C1570 0.930 . S
H1562 C1572 0.930 . S
H1563 C1575 0.929 . S
H1564 C1578 0.930 . S
H1565 C1580 0.960 . S
H1566 C1580 0.960 . S
H1567 C1580 0.960 . S
C1568 H1560 0.929 . S
C1568 C1569 1.377 . S
C1568 C1570 1.384 . S
C1569 C1568 1.377 . S
C1569 C1575 1.390 . S
C1570 H1561 0.930 . S
C1570 C1568 1.384 . S
C1570 C1571 1.372 . S
C1571 C1570 1.372 . S
C1571 C1572 1.400 . S
C1571 C1576 1.490 . S
C1572 H1562 0.930 . S
C1572 C1571 1.400 . S
C1572 C1575 1.386 . S
H1573 C1589 0.930 . S
H1574 C1590 0.931 . S
C1575 H1563 0.929 . S
C1575 C1569 1.390 . S
C1575 C1572 1.386 . S
C1576 C1571 1.490 . S
C1576 C1578 1.395 . S
C1576 C1579 1.403 . S
H1577 C1583 0.930 . S
C1578 H1564 0.930 . S
C1578 C1576 1.395 . S
C1578 C1581 1.403 . S
C1579 C1576 1.403 . S
C1579 C1580 1.524 . S
C1579 C1583 1.400 . S
C1580 H1565 0.960 . S
C1580 H1566 0.960 . S
C1580 H1567 0.960 . S
C1580 C1579 1.524 . S
C1581 C1578 1.403 . S
C1581 C1582 1.392 . S
C1581 C1585 1.495 . S
C1582 C1581 1.392 . S
C1582 C1583 1.385 . S
C1582 C1584 1.478 . S
C1583 H1577 0.930 . S
C1583 C1579 1.400 . S
C1583 C1582 1.385 . S
C1584 C1582 1.478 . S
C1584 C1586 1.381 . S
C1584 C1590 1.383 . S
C1585 C1581 1.495 . S
C1585 H1591 0.959 . S
C1585 H1592 0.961 . S
C1585 H1593 0.960 . S
C1586 C1584 1.381 . S
C1586 C1587 1.394 . S
C1586 H1594 0.930 . S
C1587 C1586 1.394 . S
C1587 C1588 1.383 . S
C1587 H1595 0.929 . S
C1588 C1587 1.383 . S
C1588 C1589 1.377 . S
C1589 H1573 0.930 . S
C1589 C1588 1.377 . S
C1589 C1590 1.379 . S
C1590 H1574 0.931 . S
C1590 C1584 1.383 . S
C1590 C1589 1.379 . S
H1591 C1585 0.959 . S
H1592 C1585 0.961 . S
H1593 C1585 0.960 . S
H1594 C1586 0.930 . S
H1595 C1587 0.929 . S
H1596 C1604 0.929 . S
H1597 C1606 0.930 . S
H1598 C1608 0.930 . S
H1599 C1611 0.929 . S
H1600 C1614 0.930 . S
H1601 C1616 0.960 . S
H1602 C1616 0.960 . S
H1603 C1616 0.960 . S
C1604 H1596 0.929 . S
C1604 C1605 1.377 . S
C1604 C1606 1.384 . S
C1605 C1604 1.377 . S
C1605 C1611 1.390 . S
C1606 H1597 0.930 . S
C1606 C1604 1.384 . S
C1606 C1607 1.372 . S
C1607 C1606 1.372 . S
C1607 C1608 1.400 . S
C1607 C1612 1.490 . S
C1608 H1598 0.930 . S
C1608 C1607 1.400 . S
C1608 C1611 1.386 . S
H1609 C1625 0.930 . S
H1610 C1626 0.931 . S
C1611 H1599 0.929 . S
C1611 C1605 1.390 . S
C1611 C1608 1.386 . S
C1612 C1607 1.490 . S
C1612 C1614 1.395 . S
C1612 C1615 1.403 . S
H1613 C1619 0.930 . S
C1614 H1600 0.930 . S
C1614 C1612 1.395 . S
C1614 C1617 1.403 . S
C1615 C1612 1.403 . S
C1615 C1616 1.524 . S
C1615 C1619 1.400 . S
C1616 H1601 0.960 . S
C1616 H1602 0.960 . S
C1616 H1603 0.960 . S
C1616 C1615 1.524 . S
C1617 C1614 1.403 . S
C1617 C1618 1.392 . S
C1617 C1621 1.495 . S
C1618 C1617 1.392 . S
C1618 C1619 1.385 . S
C1618 C1620 1.478 . S
C1619 H1613 0.930 . S
C1619 C1615 1.400 . S
C1619 C1618 1.385 . S
C1620 C1618 1.478 . S
C1620 C1622 1.381 . S
C1620 C1626 1.383 . S
C1621 C1617 1.495 . S
C1621 H1627 0.959 . S
C1621 H1628 0.961 . S
C1621 H1629 0.960 . S
C1622 C1620 1.381 . S
C1622 C1623 1.394 . S
C1622 H1630 0.930 . S
C1623 C1622 1.394 . S
C1623 C1624 1.383 . S
C1623 H1631 0.929 . S
C1624 C1623 1.383 . S
C1624 C1625 1.377 . S
C1625 H1609 0.930 . S
C1625 C1624 1.377 . S
C1625 C1626 1.379 . S
C1626 H1610 0.931 . S
C1626 C1620 1.383 . S
C1626 C1625 1.379 . S
H1627 C1621 0.959 . S
H1628 C1621 0.961 . S
H1629 C1621 0.960 . S
H1630 C1622 0.930 . S
H1631 C1623 0.929 . S
H1632 C1640 0.929 . S
H1633 C1642 0.930 . S
H1634 C1644 0.930 . S
H1635 C1647 0.929 . S
H1636 C1650 0.930 . S
H1637 C1652 0.960 . S
H1638 C1652 0.960 . S
H1639 C1652 0.960 . S
C1640 H1632 0.929 . S
C1640 C1641 1.377 . S
C1640 C1642 1.384 . S
C1641 C1640 1.377 . S
C1641 C1647 1.390 . S
C1642 H1633 0.930 . S
C1642 C1640 1.384 . S
C1642 C1643 1.372 . S
C1643 C1642 1.372 . S
C1643 C1644 1.400 . S
C1643 C1648 1.490 . S
C1644 H1634 0.930 . S
C1644 C1643 1.400 . S
C1644 C1647 1.386 . S
H1645 C1661 0.930 . S
H1646 C1662 0.931 . S
C1647 H1635 0.929 . S
C1647 C1641 1.390 . S
C1647 C1644 1.386 . S
C1648 C1643 1.490 . S
C1648 C1650 1.395 . S
C1648 C1651 1.403 . S
H1649 C1655 0.930 . S
C1650 H1636 0.930 . S
C1650 C1648 1.395 . S
C1650 C1653 1.403 . S
C1651 C1648 1.403 . S
C1651 C1652 1.524 . S
C1651 C1655 1.400 . S
C1652 H1637 0.960 . S
C1652 H1638 0.960 . S
C1652 H1639 0.960 . S
C1652 C1651 1.524 . S
C1653 C1650 1.403 . S
C1653 C1654 1.392 . S
C1653 C1657 1.495 . S
C1654 C1653 1.392 . S
C1654 C1655 1.385 . S
C1654 C1656 1.478 . S
C1655 H1649 0.930 . S
C1655 C1651 1.400 . S
C1655 C1654 1.385 . S
C1656 C1654 1.478 . S
C1656 C1658 1.381 . S
C1656 C1662 1.383 . S
C1657 C1653 1.495 . S
C1657 H1663 0.959 . S
C1657 H1664 0.961 . S
C1657 H1665 0.960 . S
C1658 C1656 1.381 . S
C1658 C1659 1.394 . S
C1658 H1666 0.930 . S
C1659 C1658 1.394 . S
C1659 C1660 1.383 . S
C1659 H1667 0.929 . S
C1660 C1659 1.383 . S
C1660 C1661 1.377 . S
C1661 H1645 0.930 . S
C1661 C1660 1.377 . S
C1661 C1662 1.379 . S
C1662 H1646 0.931 . S
C1662 C1656 1.383 . S
C1662 C1661 1.379 . S
H1663 C1657 0.959 . S
H1664 C1657 0.961 . S
H1665 C1657 0.960 . S
H1666 C1658 0.930 . S
H1667 C1659 0.929 . S
H1668 C1676 0.929 . S
H1669 C1678 0.930 . S
H1670 C1680 0.930 . S
H1671 C1683 0.929 . S
H1672 C1686 0.930 . S
H1673 C1688 0.960 . S
H1674 C1688 0.960 . S
H1675 C1688 0.960 . S
C1676 H1668 0.929 . S
C1676 C1677 1.377 . S
C1676 C1678 1.384 . S
C1677 C1676 1.377 . S
C1677 C1683 1.390 . S
C1678 H1669 0.930 . S
C1678 C1676 1.384 . S
C1678 C1679 1.372 . S
C1679 C1678 1.372 . S
C1679 C1680 1.400 . S
C1679 C1684 1.490 . S
C1680 H1670 0.930 . S
C1680 C1679 1.400 . S
C1680 C1683 1.386 . S
H1681 C1697 0.930 . S
H1682 C1698 0.931 . S
C1683 H1671 0.929 . S
C1683 C1677 1.390 . S
C1683 C1680 1.386 . S
C1684 C1679 1.490 . S
C1684 C1686 1.395 . S
C1684 C1687 1.403 . S
H1685 C1691 0.930 . S
C1686 H1672 0.930 . S
C1686 C1684 1.395 . S
C1686 C1689 1.403 . S
C1687 C1684 1.403 . S
C1687 C1688 1.524 . S
C1687 C1691 1.400 . S
C1688 H1673 0.960 . S
C1688 H1674 0.960 . S
C1688 H1675 0.960 . S
C1688 C1687 1.524 . S
C1689 C1686 1.403 . S
C1689 C1690 1.392 . S
C1689 C1693 1.495 . S
C1690 C1689 1.392 . S
C1690 C1691 1.385 . S
C1690 C1692 1.478 . S
C1691 H1685 0.930 . S
C1691 C1687 1.400 . S
C1691 C1690 1.385 . S
C1692 C1690 1.478 . S
C1692 C1694 1.381 . S
C1692 C1698 1.383 . S
C1693 C1689 1.495 . S
C1693 H1699 0.959 . S
C1693 H1700 0.961 . S
C1693 H1701 0.960 . S
C1694 C1692 1.381 . S
C1694 C1695 1.394 . S
C1694 H1702 0.930 . S
C1695 C1694 1.394 . S
C1695 C1696 1.383 . S
C1695 H1703 0.929 . S
C1696 C1695 1.383 . S
C1696 C1697 1.377 . S
C1697 H1681 0.930 . S
C1697 C1696 1.377 . S
C1697 C1698 1.379 . S
C1698 H1682 0.931 . S
C1698 C1692 1.383 . S
C1698 C1697 1.379 . S
H1699 C1693 0.959 . S
H1700 C1693 0.961 . S
H1701 C1693 0.960 . S
H1702 C1694 0.930 . S
H1703 C1695 0.929 . S
H1704 C1712 0.929 . S
H1705 C1714 0.930 . S
H1706 C1716 0.930 . S
H1707 C1719 0.929 . S
H1708 C1722 0.930 . S
H1709 C1724 0.960 . S
H1710 C1724 0.960 . S
H1711 C1724 0.960 . S
C1712 H1704 0.929 . S
C1712 C1713 1.377 . S
C1712 C1714 1.384 . S
C1713 C1712 1.377 . S
C1713 C1719 1.390 . S
C1714 H1705 0.930 . S
C1714 C1712 1.384 . S
C1714 C1715 1.372 . S
C1715 C1714 1.372 . S
C1715 C1716 1.400 . S
C1715 C1720 1.490 . S
C1716 H1706 0.930 . S
C1716 C1715 1.400 . S
C1716 C1719 1.386 . S
H1717 C1733 0.930 . S
H1718 C1734 0.931 . S
C1719 H1707 0.929 . S
C1719 C1713 1.390 . S
C1719 C1716 1.386 . S
C1720 C1715 1.490 . S
C1720 C1722 1.395 . S
C1720 C1723 1.403 . S
H1721 C1727 0.930 . S
C1722 H1708 0.930 . S
C1722 C1720 1.395 . S
C1722 C1725 1.403 . S
C1723 C1720 1.403 . S
C1723 C1724 1.524 . S
C1723 C1727 1.400 . S
C1724 H1709 0.960 . S
C1724 H1710 0.960 . S
C1724 H1711 0.960 . S
C1724 C1723 1.524 . S
C1725 C1722 1.403 . S
C1725 C1726 1.392 . S
C1725 C1729 1.495 . S
C1726 C1725 1.392 . S
C1726 C1727 1.385 . S
C1726 C1728 1.478 . S
C1727 H1721 0.930 . S
C1727 C1723 1.400 . S
C1727 C1726 1.385 . S
C1728 C1726 1.478 . S
C1728 C1730 1.381 . S
C1728 C1734 1.383 . S
C1729 C1725 1.495 . S
C1729 H1735 0.959 . S
C1729 H1736 0.961 . S
C1729 H1737 0.960 . S
C1730 C1728 1.381 . S
C1730 C1731 1.394 . S
C1730 H1738 0.930 . S
C1731 C1730 1.394 . S
C1731 C1732 1.383 . S
C1731 H1739 0.929 . S
C1732 C1731 1.383 . S
C1732 C1733 1.377 . S
C1733 H1717 0.930 . S
C1733 C1732 1.377 . S
C1733 C1734 1.379 . S
C1734 H1718 0.931 . S
C1734 C1728 1.383 . S
C1734 C1733 1.379 . S
H1735 C1729 0.959 . S
H1736 C1729 0.961 . S
H1737 C1729 0.960 . S
H1738 C1730 0.930 . S
H1739 C1731 0.929 . S
H1740 C1748 0.929 . S
H1741 C1750 0.930 . S
H1742 C1752 0.930 . S
H1743 C1755 0.929 . S
H1744 C1758 0.930 . S
H1745 C1760 0.960 . S
H1746 C1760 0.960 . S
H1747 C1760 0.960 . S
C1748 H1740 0.929 . S
C1748 C1749 1.377 . S
C1748 C1750 1.384 . S
C1749 C1748 1.377 . S
C1749 C1755 1.390 . S
C1750 H1741 0.930 . S
C1750 C1748 1.384 . S
C1750 C1751 1.372 . S
C1751 C1750 1.372 . S
C1751 C1752 1.400 . S
C1751 C1756 1.490 . S
C1752 H1742 0.930 . S
C1752 C1751 1.400 . S
C1752 C1755 1.386 . S
H1753 C1769 0.930 . S
H1754 C1770 0.931 . S
C1755 H1743 0.929 . S
C1755 C1749 1.390 . S
C1755 C1752 1.386 . S
C1756 C1751 1.490 . S
C1756 C1758 1.395 . S
C1756 C1759 1.403 . S
H1757 C1763 0.930 . S
C1758 H1744 0.930 . S
C1758 C1756 1.395 . S
C1758 C1761 1.403 . S
C1759 C1756 1.403 . S
C1759 C1760 1.524 . S
C1759 C1763 1.400 . S
C1760 H1745 0.960 . S
C1760 H1746 0.960 . S
C1760 H1747 0.960 . S
C1760 C1759 1.524 . S
C1761 C1758 1.403 . S
C1761 C1762 1.392 . S
C1761 C1765 1.495 . S
C1762 C1761 1.392 . S
C1762 C1763 1.385 . S
C1762 C1764 1.478 . S
C1763 H1757 0.930 . S
C1763 C1759 1.400 . S
C1763 C1762 1.385 . S
C1764 C1762 1.478 . S
C1764 C1766 1.381 . S
C1764 C1770 1.383 . S
C1765 C1761 1.495 . S
C1765 H1771 0.959 . S
C1765 H1772 0.961 . S
C1765 H1773 0.960 . S
C1766 C1764 1.381 . S
C1766 C1767 1.394 . S
C1766 H1774 0.930 . S
C1767 C1766 1.394 . S
C1767 C1768 1.383 . S
C1767 H1775 0.929 . S
C1768 C1767 1.383 . S
C1768 C1769 1.377 . S
C1769 H1753 0.930 . S
C1769 C1768 1.377 . S
C1769 C1770 1.379 . S
C1770 H1754 0.931 . S
C1770 C1764 1.383 . S
C1770 C1769 1.379 . S
H1771 C1765 0.959 . S
H1772 C1765 0.961 . S
H1773 C1765 0.960 . S
H1774 C1766 0.930 . S
H1775 C1767 0.929 . S
C489 C109 1.200 . S
C508 C12 1.176 . S
C525 C128 1.200 . S
C544 C71 1.182 . S
C561 C92 1.191 . S
C580 C189 1.201 . S
C597 C151 1.192 . S
C616 C208 1.197 . S
C633 C29 1.201 . S
C652 C172 1.190 . S
C669 C48 1.201 . S
C688 C231 1.176 . S
C705 C408 1.201 . S
C724 C271 1.176 . S
C741 C292 1.194 . S
C760 C469 1.193 . S
C777 C351 1.190 . S
C796 C248 1.202 . S
C813 C372 1.196 . S
C832 C309 1.197 . S
C849 C431 1.193 . S
C868 C328 1.195 . S
C885 C389 1.200 . S
C904 C452 1.179 . S
C921 C137 1.783 . S
C940 C2 1.750 . S
C957 C57 1.781 . S
C976 C162 1.800 . S
C993 C82 1.783 . S
C1012 C217 1.794 . S
C1029 C257 1.785 . S
C1048 C362 1.782 . S
C1065 C282 1.783 . S
C1084 C417 1.750 . S
C1101 C337 1.778 . S
C1120 C442 1.804 . S
C1137 C297 2.253 . S
C1156 C17 2.245 . S
C1173 C42 2.253 . S
C1192 C322 2.253 . S
C1209 C377 2.254 . S
C1228 C97 2.249 . S
C1245 C122 2.253 . S
C1264 C402 2.246 . S
C1281 C177 2.253 . S
C1300 C457 2.246 . S
C1317 C242 2.253 . S
C1336 C202 2.252 . S
C1353 C88 1.672 . S
C1372 C31 1.703 . S
C1389 C52 1.704 . S
C1408 C149 1.683 . S
C1425 C111 1.703 . S
C1444 C168 1.684 . S
C1461 C132 1.702 . S
C1480 C229 1.647 . S
C1497 C8 1.672 . S
C1516 C191 1.704 . S
C1533 C69 1.670 . S
C1552 C212 1.705 . S
C1569 C429 1.668 . S
C1588 C252 1.695 . S
C1605 C311 1.704 . S
C1624 C448 1.679 . S
C1641 C332 1.704 . S
C1660 C269 1.683 . S
C1677 C288 1.672 . S
C1696 C391 1.703 . S
C1713 C412 1.703 . S
C1732 C349 1.678 . S
C1749 C471 1.703 . S
C1768 C368 1.682 . S
