# Generated by pormake.
# Topology zfq, (5)-cn, num edge types: 1
# Building blocks:
#     Node 0, Type 0, BuildingBlock: BEQFEK_clean_sbu_0, # of connection points: 5
#     Node 1, Type 0, BuildingBlock: BEQFEK_clean_sbu_0, # of connection points: 5
#     Node 2, Type 0, BuildingBlock: BEQFEK_clean_sbu_0, # of connection points: 5
#     Node 3, Type 0, BuildingBlock: BEQFEK_clean_sbu_0, # of connection points: 5
#     Node 4, Type 0, BuildingBlock: BEQFEK_clean_sbu_0, # of connection points: 5
#     Node 5, Type 0, BuildingBlock: BEQFEK_clean_sbu_0, # of connection points: 5
#     Node 6, Type 0, BuildingBlock: BEQFEK_clean_sbu_0, # of connection points: 5
#     Node 7, Type 0, BuildingBlock: BEQFEK_clean_sbu_0, # of connection points: 5
#     Node 8, Type 0, BuildingBlock: BEQFEK_clean_sbu_0, # of connection points: 5
#     Node 9, Type 0, BuildingBlock: BEQFEK_clean_sbu_0, # of connection points: 5
#     Node 10, Type 0, BuildingBlock: BEQFEK_clean_sbu_0, # of connection points: 5
#     Node 11, Type 0, BuildingBlock: BEQFEK_clean_sbu_0, # of connection points: 5
#     Node 12, Type 0, BuildingBlock: BEQFEK_clean_sbu_0, # of connection points: 5
#     Node 13, Type 0, BuildingBlock: BEQFEK_clean_sbu_0, # of connection points: 5
#     Node 14, Type 0, BuildingBlock: BEQFEK_clean_sbu_0, # of connection points: 5
#     Node 15, Type 0, BuildingBlock: BEQFEK_clean_sbu_0, # of connection points: 5
#     Edge 16, Type (0, 0), BuildingBlock: KIFKEQ_clean_linker_1, # of connection points: 2
#     Edge 17, Type (0, 0), BuildingBlock: KIFKEQ_clean_linker_1, # of connection points: 2
#     Edge 18, Type (0, 0), BuildingBlock: KIFKEQ_clean_linker_1, # of connection points: 2
#     Edge 19, Type (0, 0), BuildingBlock: KIFKEQ_clean_linker_1, # of connection points: 2
#     Edge 20, Type (0, 0), BuildingBlock: KIFKEQ_clean_linker_1, # of connection points: 2
#     Edge 21, Type (0, 0), BuildingBlock: KIFKEQ_clean_linker_1, # of connection points: 2
#     Edge 22, Type (0, 0), BuildingBlock: KIFKEQ_clean_linker_1, # of connection points: 2
#     Edge 23, Type (0, 0), BuildingBlock: KIFKEQ_clean_linker_1, # of connection points: 2
#     Edge 24, Type (0, 0), BuildingBlock: KIFKEQ_clean_linker_1, # of connection points: 2
#     Edge 25, Type (0, 0), BuildingBlock: KIFKEQ_clean_linker_1, # of connection points: 2
#     Edge 26, Type (0, 0), BuildingBlock: KIFKEQ_clean_linker_1, # of connection points: 2
#     Edge 27, Type (0, 0), BuildingBlock: KIFKEQ_clean_linker_1, # of connection points: 2
#     Edge 28, Type (0, 0), BuildingBlock: KIFKEQ_clean_linker_1, # of connection points: 2
#     Edge 29, Type (0, 0), BuildingBlock: KIFKEQ_clean_linker_1, # of connection points: 2
#     Edge 30, Type (0, 0), BuildingBlock: KIFKEQ_clean_linker_1, # of connection points: 2
#     Edge 31, Type (0, 0), BuildingBlock: KIFKEQ_clean_linker_1, # of connection points: 2
#     Edge 32, Type (0, 0), BuildingBlock: KIFKEQ_clean_linker_1, # of connection points: 2
#     Edge 33, Type (0, 0), BuildingBlock: KIFKEQ_clean_linker_1, # of connection points: 2
#     Edge 34, Type (0, 0), BuildingBlock: KIFKEQ_clean_linker_1, # of connection points: 2
#     Edge 35, Type (0, 0), BuildingBlock: KIFKEQ_clean_linker_1, # of connection points: 2
#     Edge 36, Type (0, 0), BuildingBlock: KIFKEQ_clean_linker_1, # of connection points: 2
#     Edge 37, Type (0, 0), BuildingBlock: KIFKEQ_clean_linker_1, # of connection points: 2
#     Edge 38, Type (0, 0), BuildingBlock: KIFKEQ_clean_linker_1, # of connection points: 2
#     Edge 39, Type (0, 0), BuildingBlock: KIFKEQ_clean_linker_1, # of connection points: 2
#     Edge 40, Type (0, 0), BuildingBlock: KIFKEQ_clean_linker_1, # of connection points: 2
#     Edge 41, Type (0, 0), BuildingBlock: KIFKEQ_clean_linker_1, # of connection points: 2
#     Edge 42, Type (0, 0), BuildingBlock: KIFKEQ_clean_linker_1, # of connection points: 2
#     Edge 43, Type (0, 0), BuildingBlock: KIFKEQ_clean_linker_1, # of connection points: 2
#     Edge 44, Type (0, 0), BuildingBlock: KIFKEQ_clean_linker_1, # of connection points: 2
#     Edge 45, Type (0, 0), BuildingBlock: KIFKEQ_clean_linker_1, # of connection points: 2
#     Edge 46, Type (0, 0), BuildingBlock: KIFKEQ_clean_linker_1, # of connection points: 2
#     Edge 47, Type (0, 0), BuildingBlock: KIFKEQ_clean_linker_1, # of connection points: 2
#     Edge 48, Type (0, 0), BuildingBlock: KIFKEQ_clean_linker_1, # of connection points: 2
#     Edge 49, Type (0, 0), BuildingBlock: KIFKEQ_clean_linker_1, # of connection points: 2
#     Edge 50, Type (0, 0), BuildingBlock: KIFKEQ_clean_linker_1, # of connection points: 2
#     Edge 51, Type (0, 0), BuildingBlock: KIFKEQ_clean_linker_1, # of connection points: 2
#     Edge 52, Type (0, 0), BuildingBlock: KIFKEQ_clean_linker_1, # of connection points: 2
#     Edge 53, Type (0, 0), BuildingBlock: KIFKEQ_clean_linker_1, # of connection points: 2
#     Edge 54, Type (0, 0), BuildingBlock: KIFKEQ_clean_linker_1, # of connection points: 2
#     Edge 55, Type (0, 0), BuildingBlock: KIFKEQ_clean_linker_1, # of connection points: 2
# Relax obj value: 0.120
# Max RMSD: 0.179
# Mean RMSD: 0.179
data_MOF--net-zfq--node1-BEQFEK_clean_sbu_0--edge1-KIFKEQ_clean_linker_1
_symmetry_space_group_name_H-M    P1
_symmetry_Int_Tables_number       1
_symmetry_cell_setting            triclinic
loop_
_symmetry_equiv_pos_as_xyz
'x, y, z'
_cell_length_a     29.65028
_cell_length_b     29.647622
_cell_length_c     77.547001
_cell_angle_alpha  90.029409
_cell_angle_beta   90.029385
_cell_angle_gamma 89.988301
loop_
_atom_site_label
_atom_site_type_symbol
_atom_site_fract_x
_atom_site_fract_y
_atom_site_fract_z
_atom_type_partial_charge
Co0 Co 0.17317 0.18117 0.15174 0.0
Co1 Co 0.16992 0.17224 0.11131 0.0
C2 C 0.12051 0.24601 0.1307 0.0
O3 O 0.13547 0.23357 0.14534 0.0
O4 O 0.13208 0.22563 0.11692 0.0
C5 C 0.17674 0.21518 0.18672 0.0
O6 O 0.15813 0.25148 0.18012 0.0
C7 C 0.19126 0.20128 0.07604 0.0
C8 C 0.16906 0.14247 0.06071 0.0
C9 C 0.18768 0.18515 0.05928 0.0
N10 N 0.1758 0.16941 0.08685 0.0
N11 N 0.16258 0.13435 0.0776 0.0
C12 C 0.20587 0.24733 0.08165 0.0
H13 H 0.19139 0.27327 0.07294 0.0
H14 H 0.19542 0.25394 0.09515 0.0
H15 H 0.2431 0.24993 0.08093 0.0
C16 C 0.27135 0.17876 0.14451 0.0
N17 N 0.2281 0.17885 0.13917 0.0
N18 N 0.22694 0.17294 0.12237 0.0
C19 C 0.26942 0.16731 0.11654 0.0
C20 C 0.29909 0.17119 0.13035 0.0
C21 C 0.28549 0.18784 0.16272 0.0
H22 H 0.2645 0.21525 0.16821 0.0
H23 H 0.32147 0.19781 0.16352 0.0
H24 H 0.28005 0.15701 0.17055 0.0
O25 O 0.13528 0.12696 0.14726 0.0
O26 O 0.13515 0.11934 0.11875 0.0
H27 H 0.31374 0.13554 0.09806 0.0
H28 H 0.28423 0.18457 0.09039 0.0
C29 C 0.28114 0.15393 0.09847 0.0
H30 H 0.25441 0.13208 0.093 0.0
H31 H 0.14874 0.10503 0.08282 0.0
O32 O 0.1859 0.18203 0.17692 0.0
C33 C 0.12275 0.10633 0.13364 0.0
Co34 Co 0.17969 0.81847 0.8499 0.0
Co35 Co 0.18044 0.81826 0.89046 0.0
C36 C 0.25053 0.8678 0.87104 0.0
O37 O 0.23247 0.85577 0.85684 0.0
O38 O 0.23527 0.85384 0.88543 0.0
C39 C 0.19864 0.83749 0.81447 0.0
O40 O 0.21315 0.87593 0.82083 0.0
C41 C 0.20602 0.8025 0.92678 0.0
C42 C 0.13916 0.80309 0.93933 0.0
C43 C 0.1848 0.79776 0.94273 0.0
N44 N 0.17423 0.81002 0.91473 0.0
N45 N 0.13443 0.81068 0.92235 0.0
C46 C 0.25497 0.79689 0.9226 0.0
H47 H 0.25952 0.78999 0.90864 0.0
H48 H 0.26977 0.7689 0.93023 0.0
H49 H 0.27313 0.82854 0.92577 0.0
C50 C 0.1736 0.72021 0.85575 0.0
N51 N 0.17726 0.76271 0.8617 0.0
N52 N 0.17868 0.76204 0.87864 0.0
C53 C 0.17648 0.71882 0.88405 0.0
C54 C 0.1731 0.69077 0.86969 0.0
C55 C 0.16811 0.70859 0.83708 0.0
H56 H 0.14331 0.73178 0.83107 0.0
H57 H 0.20089 0.71318 0.8304 0.0
H58 H 0.1564 0.67337 0.83528 0.0
O59 O 0.12565 0.85521 0.85479 0.0
O60 O 0.12931 0.8571 0.88339 0.0
H61 H 0.14988 0.71693 0.90966 0.0
H62 H 0.18309 0.66784 0.90404 0.0
C63 C 0.18001 0.70486 0.90255 0.0
H64 H 0.21014 0.72072 0.90838 0.0
H65 H 0.10395 0.81575 0.9159 0.0
O66 O 0.18286 0.80788 0.82466 0.0
C67 C 0.11102 0.86924 0.86927 0.0
Co68 Co 0.81446 0.81357 0.15132 0.0
Co69 Co 0.8139 0.82054 0.11079 0.0
C70 C 0.86454 0.7474 0.1289 0.0
O71 O 0.85092 0.76154 0.14353 0.0
O72 O 0.852 0.76637 0.11494 0.0
C73 C 0.83377 0.79259 0.18664 0.0
O74 O 0.87236 0.77845 0.18032 0.0
C75 C 0.7997 0.79742 0.07409 0.0
C76 C 0.78417 0.86444 0.06313 0.0
C77 C 0.78739 0.81914 0.05894 0.0
N78 N 0.80343 0.82856 0.08665 0.0
N79 N 0.79474 0.86858 0.07993 0.0
C80 C 0.80314 0.7477 0.07709 0.0
H81 H 0.83846 0.73686 0.07483 0.0
H82 H 0.79408 0.7395 0.09061 0.0
H83 H 0.78082 0.72887 0.06813 0.0
C84 C 0.71644 0.81964 0.14588 0.0
N85 N 0.7588 0.81752 0.13974 0.0
N86 N 0.75783 0.81844 0.12279 0.0
C87 C 0.7144 0.82019 0.11758 0.0
C88 C 0.68669 0.82123 0.13206 0.0
C89 C 0.70526 0.82294 0.16467 0.0
H90 H 0.72811 0.84758 0.17095 0.0
H91 H 0.71066 0.7896 0.17083 0.0
H92 H 0.66991 0.83384 0.16678 0.0
O93 O 0.85136 0.86748 0.14719 0.0
O94 O 0.85071 0.87291 0.1186 0.0
H95 H 0.70676 0.85101 0.09285 0.0
H96 H 0.66337 0.8103 0.09788 0.0
C97 C 0.69978 0.81813 0.09912 0.0
H98 H 0.71921 0.79169 0.0923 0.0
H99 H 0.79451 0.89858 0.08698 0.0
O100 O 0.80419 0.80851 0.17648 0.0
C101 C 0.86369 0.88694 0.13334 0.0
Co102 Co 0.81597 0.17635 0.85147 0.0
Co103 Co 0.81615 0.17205 0.89211 0.0
C104 C 0.74619 0.12401 0.87099 0.0
O105 O 0.76294 0.13857 0.85694 0.0
O106 O 0.76258 0.13563 0.88553 0.0
C107 C 0.80019 0.15996 0.81578 0.0
O108 O 0.78426 0.12178 0.82184 0.0
C109 C 0.78532 0.19163 0.92753 0.0
C110 C 0.84461 0.17056 0.94281 0.0
C111 C 0.80147 0.18806 0.9443 0.0
N112 N 0.81765 0.17724 0.91667 0.0
N113 N 0.85295 0.16468 0.92591 0.0
C114 C 0.73899 0.20536 0.92193 0.0
H115 H 0.73235 0.19424 0.90852 0.0
H116 H 0.73592 0.24259 0.92241 0.0
H117 H 0.71336 0.19093 0.93078 0.0
C118 C 0.8176 0.27422 0.85902 0.0
N119 N 0.81628 0.23091 0.86423 0.0
N120 N 0.81845 0.22944 0.88117 0.0
C121 C 0.82292 0.27184 0.88725 0.0
C122 C 0.82215 0.30175 0.87344 0.0
C123 C 0.8122 0.2886 0.84063 0.0
H124 H 0.78627 0.26744 0.83424 0.0
H125 H 0.80199 0.32449 0.83962 0.0
H126 H 0.84463 0.28364 0.83375 0.0
O127 O 0.87009 0.13898 0.85669 0.0
O128 O 0.86849 0.13551 0.88531 0.0
H129 H 0.84957 0.31625 0.90688 0.0
H130 H 0.79981 0.28526 0.91284 0.0
C131 C 0.83214 0.28327 0.90573 0.0
H132 H 0.85345 0.25688 0.91172 0.0
H133 H 0.88269 0.15178 0.92067 0.0
O134 O 0.81602 0.1889 0.82627 0.0
C135 C 0.886 0.12451 0.87093 0.0
Co136 Co 0.82338 0.17564 0.65172 0.0
Co137 Co 0.81992 0.18156 0.61119 0.0
C138 C 0.87213 0.24834 0.6316 0.0
O139 O 0.86069 0.22884 0.64559 0.0
O140 O 0.85731 0.23486 0.61704 0.0
C141 C 0.81232 0.20745 0.68682 0.0
O142 O 0.81093 0.24782 0.67986 0.0
C143 C 0.80329 0.21104 0.57517 0.0
C144 C 0.80001 0.14498 0.56204 0.0
C145 C 0.79709 0.191 0.55904 0.0
N146 N 0.80943 0.1782 0.58692 0.0
N147 N 0.80765 0.13889 0.57895 0.0
C148 C 0.80055 0.25997 0.57979 0.0
H149 H 0.79402 0.26407 0.59379 0.0
H150 H 0.77342 0.27679 0.57231 0.0
H151 H 0.83318 0.27645 0.57674 0.0
C152 C 0.72442 0.17296 0.64697 0.0
N153 N 0.76657 0.17607 0.64065 0.0
N154 N 0.76471 0.17945 0.62374 0.0
C155 C 0.72108 0.17914 0.61878 0.0
C156 C 0.69403 0.17491 0.63335 0.0
C157 C 0.71379 0.16589 0.66565 0.0
H158 H 0.73757 0.14102 0.67125 0.0
H159 H 0.718 0.19828 0.67264 0.0
H160 H 0.67879 0.15357 0.66749 0.0
O161 O 0.8584 0.12208 0.64498 0.0
O162 O 0.8581 0.12857 0.61648 0.0
H163 H 0.71538 0.1552 0.59287 0.0
H164 H 0.66897 0.19077 0.59958 0.0
C165 C 0.70587 0.18535 0.60053 0.0
H166 H 0.72316 0.21496 0.5949 0.0
H167 H 0.81137 0.10781 0.5851 0.0
O168 O 0.81682 0.17312 0.67715 0.0
C169 C 0.8708 0.10853 0.63015 0.0
Co170 Co 0.18934 0.17852 0.35024 0.0
Co171 Co 0.18812 0.17854 0.39101 0.0
C172 C 0.25811 0.12763 0.37094 0.0
O173 O 0.24235 0.14159 0.35662 0.0
O174 O 0.24091 0.14004 0.38524 0.0
C175 C 0.22255 0.18286 0.31509 0.0
O176 O 0.26115 0.16969 0.32171 0.0
C177 C 0.21551 0.19236 0.42767 0.0
C178 C 0.14875 0.20276 0.43967 0.0
C179 C 0.19449 0.20201 0.44331 0.0
N180 N 0.18353 0.18851 0.41539 0.0
N181 N 0.14377 0.1944 0.42273 0.0
C182 C 0.26484 0.18561 0.42446 0.0
H183 H 0.27021 0.1609 0.41399 0.0
H184 H 0.2801 0.21812 0.42046 0.0
H185 H 0.28213 0.1734 0.43627 0.0
C186 C 0.18416 0.27656 0.35613 0.0
N187 N 0.18741 0.23405 0.36207 0.0
N188 N 0.18852 0.23466 0.37903 0.0
C189 C 0.18695 0.27793 0.38442 0.0
C190 C 0.18387 0.30596 0.37008 0.0
C191 C 0.17826 0.28814 0.33747 0.0
H192 H 0.1529 0.26533 0.3316 0.0
H193 H 0.21075 0.28301 0.33064 0.0
H194 H 0.16695 0.32349 0.33568 0.0
O195 O 0.1363 0.14171 0.3558 0.0
O196 O 0.13436 0.14229 0.38444 0.0
H197 H 0.15886 0.28418 0.40968 0.0
H198 H 0.19812 0.32855 0.40419 0.0
C199 C 0.19083 0.29204 0.4029 0.0
H200 H 0.21839 0.27289 0.40917 0.0
H201 H 0.11315 0.19332 0.4161 0.0
O202 O 0.18876 0.18854 0.32493 0.0
C203 C 0.11852 0.12944 0.36997 0.0
Co204 Co 0.17629 0.82053 0.65049 0.0
Co205 Co 0.17997 0.8159 0.60993 0.0
C206 C 0.12768 0.74844 0.63041 0.0
O207 O 0.13905 0.76692 0.64461 0.0
O208 O 0.1426 0.76304 0.61605 0.0
C209 C 0.18961 0.78986 0.68554 0.0
O210 O 0.19331 0.74962 0.67858 0.0
C211 C 0.2009 0.78327 0.57465 0.0
C212 C 0.19212 0.84603 0.55965 0.0
C213 C 0.20273 0.80077 0.55806 0.0
N214 N 0.19001 0.81687 0.58557 0.0
N215 N 0.18475 0.85421 0.57648 0.0
C216 C 0.20661 0.73499 0.57985 0.0
H217 H 0.19683 0.72992 0.5935 0.0
H218 H 0.24234 0.7248 0.57831 0.0
H219 H 0.186 0.71303 0.57134 0.0
C220 C 0.2753 0.82569 0.64574 0.0
N221 N 0.23325 0.82102 0.63941 0.0
N222 N 0.23516 0.81869 0.62248 0.0
C223 C 0.27868 0.82139 0.6175 0.0
C224 C 0.30563 0.82597 0.63209 0.0
C225 C 0.28576 0.8329 0.66443 0.0
H226 H 0.26134 0.8571 0.67005 0.0
H227 H 0.28243 0.80037 0.67137 0.0
H228 H 0.32039 0.84617 0.66631 0.0
O229 O 0.1408 0.87367 0.64362 0.0
O230 O 0.14181 0.86911 0.61504 0.0
H231 H 0.2795 0.84573 0.59154 0.0
H232 H 0.33111 0.81763 0.59792 0.0
C233 C 0.29391 0.81754 0.59916 0.0
H234 H 0.28113 0.78555 0.5937 0.0
H235 H 0.17587 0.88534 0.58177 0.0
O236 O 0.18288 0.8238 0.67587 0.0
C237 C 0.12875 0.88817 0.62888 0.0
Co238 Co 0.82285 0.82499 0.35019 0.0
Co239 Co 0.82786 0.82175 0.39065 0.0
C240 C 0.75512 0.87313 0.37206 0.0
O241 O 0.76945 0.86066 0.35731 0.0
O242 O 0.77401 0.8596 0.3859 0.0
C243 C 0.7887 0.81031 0.31547 0.0
O244 O 0.74895 0.80592 0.32276 0.0
C245 C 0.80025 0.8049 0.42661 0.0
C246 C 0.86634 0.80314 0.43976 0.0
C247 C 0.82036 0.79932 0.44273 0.0
N248 N 0.83294 0.81162 0.41487 0.0
N249 N 0.8723 0.81078 0.42283 0.0
C250 C 0.75144 0.80077 0.42196 0.0
H251 H 0.74763 0.7931 0.40803 0.0
H252 H 0.73508 0.77387 0.42969 0.0
H253 H 0.73424 0.83328 0.42462 0.0
C254 C 0.82897 0.72593 0.35488 0.0
N255 N 0.82646 0.76812 0.36126 0.0
N256 N 0.82747 0.76636 0.3782 0.0
C257 C 0.82995 0.7228 0.38317 0.0
C258 C 0.83105 0.69565 0.36853 0.0
C259 C 0.8321 0.71516 0.33606 0.0
H260 H 0.85528 0.73921 0.32965 0.0
H261 H 0.79823 0.71866 0.33012 0.0
H262 H 0.84464 0.68037 0.33385 0.0
O263 O 0.87562 0.86242 0.35569 0.0
O264 O 0.88067 0.85911 0.38421 0.0
H265 H 0.85988 0.71925 0.40822 0.0
H266 H 0.82574 0.67063 0.4028 0.0
C267 C 0.82879 0.70773 0.40159 0.0
H268 H 0.79955 0.72339 0.40813 0.0
H269 H 0.90327 0.81512 0.41667 0.0
O270 O 0.82303 0.8181 0.32481 0.0
C271 C 0.89476 0.87362 0.36974 0.0
Co272 Co 0.67929 0.68633 0.65003 0.0
Co273 Co 0.6759 0.68767 0.6094 0.0
C274 C 0.62811 0.75738 0.63072 0.0
O275 O 0.64211 0.73997 0.64475 0.0
O276 O 0.64001 0.74143 0.61616 0.0
C277 C 0.6607 0.69751 0.68578 0.0
O278 O 0.62154 0.71075 0.67966 0.0
C279 C 0.69774 0.71921 0.57429 0.0
C280 C 0.67548 0.66113 0.55857 0.0
C281 C 0.6946 0.70364 0.55743 0.0
N282 N 0.6816 0.68711 0.58487 0.0
N283 N 0.66822 0.65259 0.57537 0.0
C284 C 0.71284 0.76484 0.58021 0.0
H285 H 0.70063 0.77174 0.59347 0.0
H286 H 0.75017 0.76636 0.58031 0.0
H287 H 0.70041 0.79119 0.57122 0.0
C288 C 0.77737 0.68372 0.64279 0.0
N289 N 0.73417 0.68589 0.63746 0.0
N290 N 0.73298 0.68404 0.62051 0.0
C291 C 0.77538 0.67878 0.61455 0.0
C292 C 0.80506 0.67888 0.62844 0.0
C293 C 0.7915 0.68843 0.66124 0.0
H294 H 0.7703 0.71414 0.66773 0.0
H295 H 0.82739 0.69853 0.66237 0.0
H296 H 0.78647 0.65573 0.66793 0.0
O297 O 0.6414 0.63286 0.64429 0.0
O298 O 0.63864 0.63555 0.61567 0.0
H299 H 0.81918 0.65015 0.59516 0.0
H300 H 0.79061 0.70115 0.589 0.0
C301 C 0.78694 0.669 0.59613 0.0
H302 H 0.75987 0.6488 0.59001 0.0
H303 H 0.65408 0.62314 0.58037 0.0
O304 O 0.69121 0.68508 0.67529 0.0
C305 C 0.6271 0.61763 0.6299 0.0
Co306 Co 0.68566 0.32026 0.3501 0.0
Co307 Co 0.6884 0.32527 0.39075 0.0
C308 C 0.75667 0.37316 0.36892 0.0
O309 O 0.73875 0.35882 0.35502 0.0
O310 O 0.74159 0.36122 0.38361 0.0
C311 C 0.71781 0.30359 0.31545 0.0
O312 O 0.75781 0.30337 0.32275 0.0
C313 C 0.72062 0.30657 0.42616 0.0
C314 C 0.66164 0.32798 0.44154 0.0
C315 C 0.70475 0.31041 0.44296 0.0
N316 N 0.68811 0.32089 0.41534 0.0
N317 N 0.65307 0.33377 0.42465 0.0
C318 C 0.7668 0.29259 0.42049 0.0
H319 H 0.77332 0.30368 0.40707 0.0
H320 H 0.76975 0.25536 0.42097 0.0
H321 H 0.7926 0.30691 0.42932 0.0
C322 C 0.68375 0.22206 0.35807 0.0
N323 N 0.68598 0.26561 0.36301 0.0
N324 N 0.68519 0.26768 0.37997 0.0
C325 C 0.68102 0.22556 0.38633 0.0
C326 C 0.68044 0.19513 0.3727 0.0
C327 C 0.68711 0.20693 0.33969 0.0
H328 H 0.71729 0.22241 0.33372 0.0
H329 H 0.68998 0.1698 0.33853 0.0
H330 H 0.65702 0.2188 0.33249 0.0
O331 O 0.63185 0.35743 0.35585 0.0
O332 O 0.6357 0.36175 0.3844 0.0
H333 H 0.65622 0.18174 0.40647 0.0
H334 H 0.70623 0.21317 0.4117 0.0
C335 C 0.67335 0.21477 0.40496 0.0
H336 H 0.65235 0.24124 0.41105 0.0
H337 H 0.62321 0.34658 0.41947 0.0
O338 O 0.68295 0.30892 0.32479 0.0
C339 C 0.61701 0.37227 0.37019 0.0
Co340 Co 0.32256 0.32862 0.65292 0.0
Co341 Co 0.32006 0.32155 0.61233 0.0
C342 C 0.37267 0.25601 0.63327 0.0
O343 O 0.36065 0.27553 0.64718 0.0
O344 O 0.35808 0.2692 0.61865 0.0
C345 C 0.30892 0.29749 0.68782 0.0
O346 O 0.30506 0.25746 0.68069 0.0
C347 C 0.30658 0.29161 0.57586 0.0
C348 C 0.29068 0.3571 0.5637 0.0
C349 C 0.29482 0.31147 0.56021 0.0
N350 N 0.30844 0.32411 0.58801 0.0
N351 N 0.29922 0.36311 0.58057 0.0
C352 C 0.31748 0.24308 0.57916 0.0
H353 H 0.28672 0.22556 0.58379 0.0
H354 H 0.32971 0.22627 0.56726 0.0
H355 H 0.34371 0.24011 0.58923 0.0
C356 C 0.22357 0.33061 0.64777 0.0
N357 N 0.26598 0.32736 0.64168 0.0
N358 N 0.2647 0.32287 0.62481 0.0
C359 C 0.22124 0.32208 0.61966 0.0
C360 C 0.19366 0.32733 0.63402 0.0
C361 C 0.21223 0.3393 0.66628 0.0
H362 H 0.23655 0.36367 0.67187 0.0
H363 H 0.21482 0.30725 0.67359 0.0
H364 H 0.17758 0.35294 0.6677 0.0
O365 O 0.35716 0.3822 0.64607 0.0
O366 O 0.35756 0.37538 0.61756 0.0
H367 H 0.21114 0.34458 0.59377 0.0
H368 H 0.17068 0.30294 0.60081 0.0
C369 C 0.20654 0.31342 0.60149 0.0
H370 H 0.22758 0.28641 0.59577 0.0
H371 H 0.29824 0.39389 0.5871 0.0
O372 O 0.31565 0.33168 0.67829 0.0
C373 C 0.36978 0.39567 0.63127 0.0
Co374 Co 0.3234 0.67754 0.34962 0.0
Co375 Co 0.32223 0.67829 0.39026 0.0
C376 C 0.25246 0.62851 0.37079 0.0
O377 O 0.2709 0.64011 0.35662 0.0
O378 O 0.26742 0.64276 0.38519 0.0
C379 C 0.28603 0.68041 0.31521 0.0
O380 O 0.24894 0.66645 0.32276 0.0
C381 C 0.29602 0.69395 0.42653 0.0
C382 C 0.36258 0.6929 0.43932 0.0
C383 C 0.31687 0.69815 0.44259 0.0
N384 N 0.32807 0.68674 0.41456 0.0
N385 N 0.36769 0.68585 0.42232 0.0
C386 C 0.24717 0.69962 0.42217 0.0
H387 H 0.24296 0.70683 0.40822 0.0
H388 H 0.23218 0.72747 0.42983 0.0
H389 H 0.22893 0.6679 0.42515 0.0
C390 C 0.3296 0.7758 0.35537 0.0
N391 N 0.32562 0.73341 0.36136 0.0
N392 N 0.3241 0.73428 0.37831 0.0
C393 C 0.32649 0.77753 0.38366 0.0
C394 C 0.33017 0.80538 0.36928 0.0
C395 C 0.3355 0.78715 0.33669 0.0
H396 H 0.35996 0.76349 0.33076 0.0
H397 H 0.30272 0.78307 0.32996 0.0
H398 H 0.34783 0.82214 0.33489 0.0
O399 O 0.37742 0.64116 0.35479 0.0
O400 O 0.37347 0.63936 0.38338 0.0
H401 H 0.35332 0.78015 0.40924 0.0
H402 H 0.31936 0.8287 0.40357 0.0
C403 C 0.32294 0.7917 0.40214 0.0
H404 H 0.29311 0.7755 0.40804 0.0
H405 H 0.39829 0.68082 0.41597 0.0
O406 O 0.32114 0.68731 0.32426 0.0
C407 C 0.39194 0.62725 0.36929 0.0
Co408 Co 0.31348 0.67575 0.15123 0.0
Co409 Co 0.31462 0.68017 0.1106 0.0
C410 C 0.36453 0.74757 0.13149 0.0
O411 O 0.35184 0.72854 0.1454 0.0
O412 O 0.35101 0.73353 0.11686 0.0
C413 C 0.30702 0.71049 0.18586 0.0
O414 O 0.31777 0.74898 0.17856 0.0
C415 C 0.29721 0.71155 0.07502 0.0
C416 C 0.30639 0.64839 0.06029 0.0
C417 C 0.29621 0.69369 0.05849 0.0
N418 N 0.30717 0.67813 0.08613 0.0
N419 N 0.31277 0.64054 0.07721 0.0
C420 C 0.29175 0.76 0.08006 0.0
H421 H 0.29559 0.76435 0.09417 0.0
H422 H 0.25799 0.77243 0.07619 0.0
H423 H 0.31722 0.78072 0.07319 0.0
C424 C 0.21534 0.67152 0.14479 0.0
N425 N 0.25806 0.67535 0.13912 0.0
N426 N 0.258 0.67802 0.12219 0.0
C427 C 0.21497 0.67649 0.11653 0.0
C428 C 0.1864 0.67223 0.13068 0.0
C429 C 0.20303 0.66461 0.16332 0.0
H430 H 0.20733 0.69688 0.17039 0.0
H431 H 0.16776 0.65276 0.16477 0.0
H432 H 0.22601 0.63938 0.16918 0.0
O433 O 0.34947 0.62193 0.14544 0.0
O434 O 0.35235 0.62738 0.11688 0.0
H435 H 0.21632 0.65376 0.09034 0.0
H436 H 0.16471 0.68261 0.09618 0.0
C437 C 0.20172 0.68177 0.09801 0.0
H438 H 0.21568 0.71384 0.09307 0.0
H439 H 0.32099 0.60946 0.08268 0.0
O440 O 0.30303 0.67537 0.17656 0.0
C441 C 0.36365 0.60796 0.13089 0.0
Co442 Co 0.67579 0.67172 0.85007 0.0
Co443 Co 0.68059 0.67764 0.89076 0.0
C444 C 0.74762 0.62378 0.87096 0.0
O445 O 0.72889 0.6343 0.8567 0.0
O446 O 0.73349 0.63977 0.88524 0.0
C447 C 0.7073 0.68439 0.81492 0.0
O448 O 0.74721 0.68996 0.82197 0.0
C449 C 0.70736 0.69381 0.92759 0.0
C450 C 0.6408 0.71157 0.93843 0.0
C451 C 0.68593 0.7072 0.94277 0.0
N452 N 0.6762 0.69127 0.91493 0.0
N453 N 0.63656 0.70159 0.92161 0.0
C454 C 0.75605 0.68216 0.92519 0.0
H455 H 0.76009 0.65692 0.91482 0.0
H456 H 0.77488 0.71298 0.92146 0.0
H457 H 0.77066 0.66843 0.93728 0.0
C458 C 0.67174 0.7712 0.85421 0.0
N459 N 0.67577 0.72925 0.86072 0.0
N460 N 0.67941 0.7318 0.87761 0.0
C461 C 0.679 0.77558 0.88233 0.0
C462 C 0.67361 0.80206 0.86769 0.0
C463 C 0.66331 0.78113 0.83556 0.0
H464 H 0.63976 0.75583 0.8301 0.0
H465 H 0.69565 0.77893 0.82842 0.0
H466 H 0.64883 0.81532 0.83376 0.0
O467 O 0.62216 0.63718 0.85701 0.0
O468 O 0.62742 0.63923 0.88556 0.0
H469 H 0.65497 0.78807 0.90786 0.0
H470 H 0.69734 0.82755 0.9007 0.0
C471 C 0.68664 0.79172 0.90039 0.0
H472 H 0.71316 0.77103 0.90661 0.0
H473 H 0.60654 0.70239 0.91458 0.0
O474 O 0.67342 0.67689 0.82454 0.0
C475 C 0.60797 0.6257 0.87186 0.0
Co476 Co 0.6715 0.31566 0.15168 0.0
Co477 Co 0.6697 0.31484 0.11097 0.0
C478 C 0.62088 0.24506 0.13179 0.0
O479 O 0.63373 0.26239 0.14601 0.0
O480 O 0.63393 0.26108 0.1174 0.0
C481 C 0.68787 0.28135 0.18598 0.0
O482 O 0.68972 0.24211 0.17813 0.0
C483 C 0.69022 0.28361 0.07559 0.0
C484 C 0.67082 0.34346 0.0603 0.0
C485 C 0.68756 0.30002 0.05883 0.0
N486 N 0.67603 0.31611 0.08644 0.0
N487 N 0.66448 0.35173 0.07719 0.0
C488 C 0.70291 0.23697 0.08115 0.0
H489 H 0.68789 0.21171 0.07227 0.0
H490 H 0.69169 0.23051 0.09456 0.0
H491 H 0.74006 0.23304 0.08066 0.0
C492 C 0.77041 0.31838 0.14472 0.0
N493 N 0.72716 0.31645 0.13935 0.0
N494 N 0.72626 0.3179 0.12238 0.0
C495 C 0.76877 0.32203 0.11645 0.0
C496 C 0.79829 0.32198 0.13036 0.0
C497 C 0.78438 0.31415 0.1632 0.0
H498 H 0.77063 0.28233 0.16852 0.0
H499 H 0.8215 0.31369 0.16478 0.0
H500 H 0.7699 0.34253 0.17071 0.0
O501 O 0.63413 0.36943 0.14589 0.0
O502 O 0.63225 0.36687 0.11727 0.0
H503 H 0.7554 0.35169 0.09172 0.0
H504 H 0.81448 0.34568 0.0967 0.0
C505 C 0.78082 0.32966 0.09793 0.0
H506 H 0.78154 0.29686 0.0911 0.0
H507 H 0.65195 0.38166 0.0824 0.0
O508 O 0.68141 0.31685 0.1771 0.0
C509 C 0.62032 0.38477 0.13146 0.0
Co510 Co 0.31938 0.31846 0.85244 0.0
Co511 Co 0.31534 0.31744 0.89304 0.0
C512 C 0.24765 0.3685 0.87252 0.0
O513 O 0.26623 0.35579 0.85853 0.0
O514 O 0.26211 0.35488 0.88708 0.0
C515 C 0.30442 0.33971 0.81707 0.0
O516 O 0.29094 0.37824 0.82367 0.0
C517 C 0.28458 0.2982 0.92862 0.0
C518 C 0.34817 0.3066 0.94317 0.0
C519 C 0.30289 0.29648 0.94509 0.0
N520 N 0.31773 0.30849 0.91744 0.0
N521 N 0.35558 0.31351 0.92625 0.0
C522 C 0.23597 0.29309 0.92377 0.0
H523 H 0.23053 0.30155 0.91002 0.0
H524 H 0.22496 0.25783 0.92592 0.0
H525 H 0.21489 0.31514 0.93207 0.0
C526 C 0.32385 0.2202 0.85794 0.0
N527 N 0.31999 0.26251 0.86404 0.0
N528 N 0.31748 0.26138 0.88097 0.0
C529 C 0.31933 0.21797 0.88619 0.0
C530 C 0.32342 0.19035 0.87174 0.0
C531 C 0.33058 0.20915 0.83928 0.0
H532 H 0.35632 0.23204 0.83371 0.0
H533 H 0.29846 0.21472 0.83224 0.0
H534 H 0.34171 0.17376 0.83741 0.0
O535 O 0.37308 0.35442 0.85848 0.0
O536 O 0.36828 0.35524 0.88708 0.0
H537 H 0.34311 0.21789 0.91224 0.0
H538 H 0.31466 0.16632 0.90603 0.0
C539 C 0.31495 0.20347 0.9046 0.0
H540 H 0.28297 0.2168 0.90987 0.0
H541 H 0.38653 0.32189 0.92071 0.0
O542 O 0.31851 0.3089 0.82711 0.0
C543 C 0.38741 0.3675 0.87314 0.0
H544 H 0.1554 0.27684 0.21166 0.0
H545 H 0.21941 0.14731 0.20417 0.0
H546 H 0.16878 0.27115 0.24262 0.0
H547 H 0.23214 0.1414 0.23515 0.0
H548 H 0.28475 0.16559 0.28985 0.0
H549 H 0.27589 0.17551 0.25877 0.0
H550 H 0.14069 0.22564 0.26673 0.0
H551 H 0.14968 0.21638 0.29775 0.0
C552 C 0.17238 0.24719 0.2166 0.0
C553 C 0.18615 0.21243 0.20545 0.0
C554 C 0.17983 0.24384 0.23436 0.0
C555 C 0.20138 0.20576 0.24135 0.0
C556 C 0.21586 0.17138 0.23016 0.0
C557 C 0.20828 0.17465 0.21241 0.0
C558 C 0.25323 0.17894 0.28497 0.0
C559 C 0.21788 0.19005 0.29628 0.0
C560 C 0.24807 0.18438 0.26716 0.0
C561 C 0.20757 0.20129 0.26029 0.0
C562 C 0.1725 0.21302 0.27163 0.0
C563 C 0.17757 0.2074 0.28941 0.0
H564 H 0.17934 0.8679 0.7038 0.0
H565 H 0.20736 0.7258 0.7101 0.0
H566 H 0.18289 0.87818 0.73486 0.0
H567 H 0.21212 0.73637 0.74127 0.0
H568 H 0.16517 0.76474 0.79689 0.0
H569 H 0.1645 0.75261 0.7658 0.0
H570 H 0.23522 0.87858 0.75845 0.0
H571 H 0.23479 0.89131 0.78947 0.0
C572 C 0.18659 0.83886 0.7118 0.0
C573 C 0.19297 0.79598 0.70445 0.0
C574 C 0.18894 0.84483 0.72964 0.0
C575 C 0.19792 0.80814 0.74059 0.0
C576 C 0.20459 0.76526 0.73323 0.0
C577 C 0.2021 0.75924 0.71535 0.0
C578 C 0.18065 0.78981 0.78864 0.0
C579 C 0.19977 0.82916 0.79565 0.0
C580 C 0.18053 0.7827 0.77081 0.0
C581 C 0.19966 0.81469 0.7596 0.0
C582 C 0.21949 0.85362 0.76668 0.0
C583 C 0.21946 0.86081 0.78449 0.0
H584 H 0.86571 0.82092 0.29671 0.0
H585 H 0.72412 0.78909 0.29146 0.0
H586 H 0.87514 0.81444 0.2657 0.0
H587 H 0.73387 0.78145 0.26032 0.0
H588 H 0.76033 0.82501 0.20403 0.0
H589 H 0.74856 0.82735 0.2351 0.0
H590 H 0.87597 0.75952 0.24289 0.0
H591 H 0.88831 0.75825 0.21184 0.0
C592 C 0.83659 0.81224 0.28895 0.0
C593 C 0.7941 0.80562 0.29657 0.0
C594 C 0.8421 0.80818 0.27115 0.0
C595 C 0.80532 0.79722 0.2605 0.0
C596 C 0.76281 0.79041 0.26813 0.0
C597 C 0.75725 0.79459 0.28598 0.0
C598 C 0.78577 0.81044 0.21236 0.0
C599 C 0.82544 0.79174 0.20546 0.0
C600 C 0.77887 0.81153 0.23019 0.0
C601 C 0.81141 0.79383 0.24151 0.0
C602 C 0.85058 0.77417 0.23456 0.0
C603 C 0.85755 0.77321 0.21674 0.0
H604 H 0.79927 0.27262 0.71143 0.0
H605 H 0.81837 0.12906 0.70509 0.0
H606 H 0.79443 0.26246 0.74262 0.0
H607 H 0.81481 0.11911 0.73615 0.0
H608 H 0.76173 0.10871 0.79054 0.0
H609 H 0.76258 0.12174 0.75958 0.0
H610 H 0.84026 0.24339 0.76737 0.0
H611 H 0.83823 0.23102 0.79848 0.0
C612 C 0.80256 0.23894 0.71668 0.0
C613 C 0.80912 0.20166 0.70576 0.0
C614 C 0.80007 0.23315 0.73457 0.0
C615 C 0.80414 0.18995 0.74193 0.0
C616 C 0.81074 0.15276 0.73095 0.0
C617 C 0.81308 0.15852 0.71311 0.0
C618 C 0.77892 0.13831 0.78567 0.0
C619 C 0.80013 0.16868 0.79698 0.0
C620 C 0.77962 0.14567 0.76789 0.0
C621 C 0.80179 0.18343 0.76094 0.0
C622 C 0.82247 0.2142 0.77228 0.0
C623 C 0.82156 0.20696 0.79011 0.0
H624 H 0.60464 0.72744 0.71123 0.0
H625 H 0.73516 0.66623 0.70303 0.0
H626 H 0.61707 0.72573 0.74222 0.0
H627 H 0.74711 0.66334 0.73416 0.0
H628 H 0.7708 0.70521 0.79048 0.0
H629 H 0.76046 0.70972 0.75929 0.0
H630 H 0.62046 0.67249 0.76532 0.0
H631 H 0.63045 0.66921 0.7964 0.0
C632 C 0.63594 0.71341 0.71604 0.0
C633 C 0.66882 0.6968 0.70464 0.0
C634 C 0.64297 0.71219 0.73385 0.0
C635 C 0.68297 0.69412 0.74074 0.0
C636 C 0.71611 0.67793 0.72931 0.0
C637 C 0.70914 0.67932 0.71146 0.0
C638 C 0.73781 0.69807 0.78514 0.0
C639 C 0.70144 0.68695 0.79596 0.0
C640 C 0.73194 0.7004 0.76724 0.0
C641 C 0.68959 0.69158 0.75976 0.0
C642 C 0.65335 0.68028 0.77062 0.0
C643 C 0.65916 0.67811 0.78848 0.0
H644 H 0.64415 0.32221 0.2955 0.0
H645 H 0.78142 0.27387 0.29256 0.0
H646 H 0.63757 0.31651 0.26417 0.0
H647 H 0.77453 0.26778 0.2612 0.0
H648 H 0.72083 0.21694 0.20786 0.0
H649 H 0.72841 0.22146 0.23923 0.0
H650 H 0.67408 0.35651 0.23834 0.0
H651 H 0.66688 0.35231 0.20699 0.0
C652 C 0.67283 0.31014 0.28819 0.0
C653 C 0.71335 0.29857 0.29651 0.0
C654 C 0.66912 0.30714 0.27025 0.0
C655 C 0.70558 0.29184 0.26027 0.0
C656 C 0.74582 0.27946 0.26859 0.0
C657 C 0.74979 0.28314 0.28653 0.0
C658 C 0.71058 0.24762 0.21435 0.0
C659 C 0.69321 0.28425 0.20494 0.0
C660 C 0.71512 0.25025 0.23229 0.0
C661 C 0.7017 0.28927 0.24121 0.0
C662 C 0.68431 0.32587 0.23181 0.0
C663 C 0.68043 0.32353 0.21386 0.0
H664 H 0.26978 0.39576 0.79249 0.0
H665 H 0.33627 0.26713 0.79894 0.0
H666 H 0.26842 0.38444 0.76142 0.0
H667 H 0.3361 0.25638 0.76775 0.0
H668 H 0.29067 0.23288 0.7121 0.0
H669 H 0.28749 0.2423 0.74335 0.0
H670 H 0.31955 0.38368 0.73757 0.0
H671 H 0.32147 0.37458 0.70644 0.0
C672 C 0.28431 0.36513 0.78727 0.0
C673 C 0.30331 0.33244 0.79819 0.0
C674 C 0.28373 0.35874 0.76943 0.0
C675 C 0.30237 0.31961 0.76205 0.0
C676 C 0.32096 0.28667 0.773 0.0
C677 C 0.32135 0.29297 0.79088 0.0
C678 C 0.29686 0.26599 0.71751 0.0
C679 C 0.30629 0.30297 0.70677 0.0
C680 C 0.29531 0.27134 0.73543 0.0
C681 C 0.30325 0.31375 0.74299 0.0
C682 C 0.31254 0.35069 0.7322 0.0
C683 C 0.31392 0.34539 0.71432 0.0
H684 H 0.35326 0.71866 0.29604 0.0
H685 H 0.22176 0.65685 0.29157 0.0
H686 H 0.35641 0.72714 0.26477 0.0
H687 H 0.22487 0.66568 0.2603 0.0
H688 H 0.27557 0.63912 0.20467 0.0
H689 H 0.26906 0.63344 0.23596 0.0
H690 H 0.31872 0.76969 0.24117 0.0
H691 H 0.32558 0.77537 0.20989 0.0
C692 C 0.32496 0.70703 0.2884 0.0
C693 C 0.28733 0.68693 0.29629 0.0
C694 C 0.32666 0.71215 0.27049 0.0
C695 C 0.29091 0.69702 0.26008 0.0
C696 C 0.25313 0.67724 0.26798 0.0
C697 C 0.25127 0.67242 0.2859 0.0
C698 C 0.28498 0.66793 0.21248 0.0
C699 C 0.30126 0.70764 0.20479 0.0
C700 C 0.28099 0.66475 0.2304 0.0
C701 C 0.29348 0.70109 0.24102 0.0
C702 C 0.3093 0.74096 0.23332 0.0
C703 C 0.31298 0.74427 0.2154 0.0
H704 H 0.06775 0.08733 0.16093 0.0
H705 H 0.09897 0.04512 0.10893 0.0
H706 H 0.00315 0.03681 0.16125 0.0
H707 H 0.03543 0.9932 0.10949 0.0
H708 H 0.89194 0.94352 0.10763 0.0
H709 H 0.9554 0.99565 0.10846 0.0
H710 H 0.97922 0.96092 0.16184 0.0
H711 H 0.91484 0.9104 0.1612 0.0
C712 C 0.06147 0.06646 0.14971 0.0
C713 C 0.0884 0.07036 0.13488 0.0
C714 C 0.02434 0.03747 0.14989 0.0
C715 C 0.01363 0.01133 0.13531 0.0
C716 C 0.04191 0.01372 0.12078 0.0
C717 C 0.0787 0.04308 0.12053 0.0
C718 C 0.91034 0.94755 0.1196 0.0
C719 C 0.89832 0.92276 0.13433 0.0
C720 C 0.94707 0.97703 0.12004 0.0
C721 C 0.97293 0.98202 0.13515 0.0
C722 C 0.95993 0.95829 0.15002 0.0
C723 C 0.92292 0.92922 0.14964 0.0
H724 H 0.91124 0.07032 0.89751 0.0
H725 H 0.94084 0.09917 0.84407 0.0
H726 H 0.96312 0.00744 0.89687 0.0
H727 H 0.99507 0.03717 0.84366 0.0
H728 H 0.05347 0.89488 0.84333 0.0
H729 H -7e-05 0.95743 0.84371 0.0
H730 H 0.03875 0.98793 0.89621 0.0
H731 H 0.09003 0.92443 0.8961 0.0
C732 C 0.92961 0.06386 0.88569 0.0
C733 C 0.92194 0.0899 0.87084 0.0
C734 C 0.9596 0.0277 0.88534 0.0
C735 C 0.98344 0.01702 0.87021 0.0
C736 C 0.97668 0.04383 0.85545 0.0
C737 C 0.94601 0.07972 0.85572 0.0
C738 C 0.04999 0.91464 0.85501 0.0
C739 C 0.07572 0.90444 0.86972 0.0
C740 C 0.01972 0.95085 0.85517 0.0
C741 C 0.01503 0.978 0.86997 0.0
C742 C 0.04066 0.9674 0.88468 0.0
C743 C 0.07026 0.93089 0.88461 0.0
H744 H 0.89723 0.04935 0.65523 0.0
H745 H 0.92303 0.08739 0.60235 0.0
H746 H 0.96036 0.99691 0.65419 0.0
H747 H 0.98723 0.03655 0.60153 0.0
H748 H 0.07523 0.90984 0.60148 0.0
H749 H 0.01086 0.96061 0.6013 0.0
H750 H 0.04031 0.9991 0.65391 0.0
H751 H 0.10357 0.94679 0.6543 0.0
C752 C 0.91623 0.04634 0.64336 0.0
C753 C 0.90515 0.07258 0.6289 0.0
C754 C 0.95277 0.01667 0.64282 0.0
C755 C 0.97941 0.01301 0.62787 0.0
C756 C 0.96732 0.03818 0.61322 0.0
C757 C 0.93044 0.06741 0.61369 0.0
C758 C 0.06834 0.92959 0.61293 0.0
C759 C 0.09437 0.92414 0.62794 0.0
C760 C 0.03136 0.95875 0.61283 0.0
C761 C 0.01995 0.98355 0.62767 0.0
C762 C 0.04735 0.97961 0.64241 0.0
C763 C 0.08396 0.95003 0.64258 0.0
H764 H 0.09376 0.07699 0.34277 0.0
H765 H 0.06303 0.10282 0.39636 0.0
H766 H 0.04221 0.01372 0.34278 0.0
H767 H 0.00933 0.04046 0.39615 0.0
H768 H 0.95317 0.89777 0.39556 0.0
H769 H 0.00638 0.96054 0.39549 0.0
H770 H 0.96648 0.99334 0.34332 0.0
H771 H 0.91538 0.92966 0.34312 0.0
C772 C 0.07518 0.0698 0.35448 0.0
C773 C 0.08248 0.09502 0.36957 0.0
C774 C 0.04545 0.03342 0.35448 0.0
C775 C 0.0216 0.02173 0.36948 0.0
C776 C 0.02782 0.04788 0.38446 0.0
C777 C 0.05817 0.08398 0.38453 0.0
C778 C 0.95635 0.91807 0.38401 0.0
C779 C 0.93027 0.90855 0.36932 0.0
C780 C 0.98643 0.95439 0.38403 0.0
C781 C 0.99058 0.98231 0.36943 0.0
C782 C 0.96485 0.97225 0.35469 0.0
C783 C 0.9354 0.93564 0.35459 0.0
H784 H 0.39314 0.45689 0.65612 0.0
H785 H 0.42509 0.41477 0.60418 0.0
H786 H 0.45598 0.50979 0.65551 0.0
H787 H 0.48901 0.46586 0.60384 0.0
H788 H 0.57506 0.59207 0.60266 0.0
H789 H 0.51114 0.54131 0.60276 0.0
H790 H 0.53579 0.51099 0.65649 0.0
H791 H 0.59882 0.56386 0.6566 0.0
C792 C 0.41345 0.45911 0.64454 0.0
C793 C 0.40405 0.43174 0.63019 0.0
C794 C 0.44985 0.48902 0.64426 0.0
C795 C 0.47803 0.49178 0.62971 0.0
C796 C 0.46781 0.46515 0.6152 0.0
C797 C 0.43106 0.43576 0.61539 0.0
C798 C 0.56724 0.57427 0.61449 0.0
C799 C 0.5921 0.58209 0.62965 0.0
C800 C 0.5305 0.54497 0.61452 0.0
C801 C 0.51799 0.52213 0.62965 0.0
C802 C 0.5438 0.52877 0.64469 0.0
C803 C 0.58029 0.55866 0.64472 0.0
H804 H 0.41337 0.57238 0.39619 0.0
H805 H 0.44937 0.60166 0.34337 0.0
H806 H 0.46468 0.50881 0.39624 0.0
H807 H 0.50277 0.53905 0.34367 0.0
H808 H 0.56079 0.39722 0.34372 0.0
H809 H 0.50653 0.45915 0.34361 0.0
H810 H 0.54057 0.4891 0.39664 0.0
H811 H 0.59264 0.42629 0.39698 0.0
C812 C 0.433 0.56584 0.38468 0.0
C813 C 0.42735 0.59219 0.36978 0.0
C814 C 0.46258 0.5293 0.38471 0.0
C815 C 0.48792 0.51858 0.36995 0.0
C816 C 0.48315 0.54571 0.35516 0.0
C817 C 0.45295 0.58195 0.35505 0.0
C818 C 0.5561 0.41669 0.3554 0.0
C819 C 0.5809 0.40667 0.37036 0.0
C820 C 0.5254 0.45253 0.3553 0.0
C821 C 0.51931 0.47943 0.37009 0.0
C822 C 0.54369 0.46879 0.38509 0.0
C823 C 0.57376 0.43269 0.38527 0.0
H824 H 0.56843 0.40973 0.10413 0.0
H825 H 0.59215 0.43941 0.15796 0.0
H826 H 0.50493 0.46095 0.10398 0.0
H827 H 0.52953 0.49285 0.15759 0.0
H828 H 0.38698 0.54877 0.1565 0.0
H829 H 0.44977 0.49564 0.15651 0.0
H830 H 0.48388 0.53648 0.1046 0.0
H831 H 0.42009 0.58759 0.10431 0.0
C832 C 0.5607 0.42796 0.11588 0.0
C833 C 0.58545 0.42045 0.13108 0.0
C834 C 0.52419 0.45755 0.11577 0.0
C835 C 0.51184 0.48107 0.13078 0.0
C836 C 0.53746 0.47462 0.14588 0.0
C837 C 0.57371 0.44439 0.14606 0.0
C838 C 0.40755 0.54582 0.14502 0.0
C839 C 0.3984 0.57223 0.13039 0.0
C840 C 0.44391 0.51578 0.14509 0.0
C841 C 0.47227 0.51195 0.13061 0.0
C842 C 0.46249 0.53789 0.11589 0.0
C843 C 0.42581 0.56734 0.11573 0.0
H844 H 0.44485 0.39357 0.8474 0.0
H845 H 0.41003 0.42076 0.90051 0.0
H846 H 0.49726 0.45679 0.84775 0.0
H847 H 0.46073 0.48505 0.90064 0.0
H848 H 0.58713 0.57301 0.89956 0.0
H849 H 0.53632 0.50876 0.90027 0.0
H850 H 0.49607 0.53658 0.84774 0.0
H851 H 0.54851 0.59971 0.8468 0.0
C852 C 0.44855 0.41291 0.85917 0.0
C853 C 0.42326 0.40212 0.87391 0.0
C854 C 0.47819 0.44952 0.85932 0.0
C855 C 0.48279 0.47655 0.87415 0.0
C856 C 0.45846 0.46483 0.88904 0.0
C857 C 0.42928 0.42789 0.88896 0.0
C858 C 0.56699 0.5658 0.88823 0.0
C859 C 0.57198 0.59137 0.8731 0.0
C860 C 0.53778 0.52888 0.88864 0.0
C861 C 0.51242 0.51703 0.87399 0.0
C862 C 0.51596 0.54393 0.85911 0.0
C863 C 0.54562 0.58049 0.85863 0.0
H864 H 0.31051 0.3403 0.97566 0.0
H865 H 0.24769 0.22499 0.95172 0.0
H866 H 0.2787 0.31834 0.00347 0.0
H867 H 0.21681 0.20214 0.97941 0.0
H868 H 0.14106 0.18588 0.02918 0.0
H869 H 0.1645 0.21755 0.00157 0.0
H870 H 0.28923 0.26255 0.02483 0.0
H871 H 0.26497 0.23201 0.05242 0.0
C872 C 0.28951 0.31046 0.97637 0.0
C873 C 0.2807 0.28487 0.96152 0.0
C874 C 0.27154 0.29765 0.99229 0.0
C875 C 0.24509 0.25842 0.99375 0.0
C876 C 0.23605 0.23312 0.97877 0.0
C877 C 0.2536 0.24628 0.96283 0.0
C878 C 0.17322 0.20308 0.02837 0.0
C879 C 0.20087 0.20717 0.04297 0.0
C880 C 0.18683 0.22098 0.01254 0.0
C881 C 0.22885 0.24262 0.01089 0.0
C882 C 0.25624 0.24707 0.02564 0.0
C883 C 0.24232 0.22963 0.04151 0.0
H884 H 0.22173 0.74468 0.05195 0.0
H885 H 0.34115 0.68995 0.02803 0.0
H886 H 0.1972 0.77471 0.02417 0.0
H887 H 0.31633 0.71954 1.00007 0.0
H888 H 0.26973 0.81647 0.95612 0.0
H889 H 0.29919 0.79479 0.9843 0.0
H890 H 0.17104 0.73458 0.9971 0.0
H891 H 0.14202 0.75441 0.96878 0.0
C892 C 0.2434 0.74032 0.04085 0.0
C893 C 0.2838 0.71593 0.04216 0.0
C894 C 0.22904 0.75688 0.02491 0.0
C895 C 0.2549 0.74944 0.00999 0.0
C896 C 0.29601 0.72617 0.0114 0.0
C897 C 0.31009 0.70912 0.02733 0.0
C898 C 0.24813 0.79757 0.96468 0.0
C899 C 0.20381 0.78608 0.95989 0.0
C900 C 0.26492 0.78568 0.98094 0.0
C901 C 0.23739 0.76304 0.99286 0.0
C902 C 0.19289 0.75245 0.98823 0.0
C903 C 0.17635 0.76375 0.97196 0.0
H904 H 0.64267 0.70008 0.97345 0.0
H905 H 0.77048 0.74028 0.95148 0.0
H906 H 0.6688 0.72414 0.00183 0.0
H907 H 0.79714 0.76192 0.98008 0.0
H908 H 0.83195 0.75446 0.04027 0.0
H909 H 0.80989 0.72317 0.01211 0.0
H910 H 0.69143 0.80774 0.01204 0.0
H911 H 0.7138 0.83951 0.03986 0.0
C912 C 0.67664 0.71315 0.97468 0.0
C913 C 0.70469 0.71729 0.96014 0.0
C914 C 0.69153 0.72684 0.99094 0.0
C915 C 0.735 0.74457 0.9931 0.0
C916 C 0.76371 0.74759 0.97875 0.0
C917 C 0.74851 0.73463 0.96238 0.0
C918 C 0.80112 0.76604 0.03423 0.0
C919 C 0.77436 0.79911 0.04222 0.0
C920 C 0.78871 0.74841 0.01814 0.0
C921 C 0.74888 0.76294 0.01003 0.0
C922 C 0.72208 0.79575 0.01812 0.0
C923 C 0.73497 0.81402 0.03396 0.0
H924 H 0.75081 0.26305 0.95131 0.0
H925 H 0.8043 0.14215 0.97455 0.0
H926 H 0.72017 0.28622 0.97902 0.0
H927 H 0.77275 0.16459 0.00232 0.0
H928 H 0.76216 0.24856 0.05206 0.0
H929 H 0.78596 0.21836 0.02434 0.0
H930 H 0.66556 0.27259 1.00064 0.0
H931 H 0.64252 0.30369 0.02841 0.0
C932 C 0.75481 0.24074 0.96224 0.0
C933 C 0.77931 0.20045 0.96071 0.0
C934 C 0.73736 0.25407 0.97819 0.0
C935 C 0.74386 0.22729 0.99298 0.0
C936 C 0.76764 0.18645 0.9913 0.0
C937 C 0.78547 0.1734 0.97538 0.0
C938 C 0.74024 0.253 0.04103 0.0
C939 C 0.70015 0.27787 0.04244 0.0
C940 C 0.75393 0.23581 0.02508 0.0
C941 C 0.72772 0.24297 0.01017 0.0
C942 C 0.68701 0.26701 0.01174 0.0
C943 C 0.67361 0.28458 0.02767 0.0
H944 H 0.75301 0.15157 0.53237 0.0
H945 H 0.82042 0.27563 0.54637 0.0
H946 H 0.73692 0.18228 0.50399 0.0
H947 H 0.80251 0.30686 0.51809 0.0
H948 H 0.70284 0.35504 0.47353 0.0
H949 H 0.72983 0.32826 0.50155 0.0
H950 H 0.78019 0.20704 0.47743 0.0
H951 H 0.75288 0.23357 0.44952 0.0
C952 C 0.76429 0.18548 0.52948 0.0
C953 C 0.78712 0.2114 0.54194 0.0
C954 C 0.75518 0.20297 0.51316 0.0
C955 C 0.76845 0.24694 0.50885 0.0
C956 C 0.79142 0.273 0.52118 0.0
C957 C 0.80113 0.25523 0.53751 0.0
C958 C 0.72041 0.32304 0.47421 0.0
C959 C 0.72634 0.29667 0.45932 0.0
C960 C 0.736 0.30784 0.4902 0.0
C961 C 0.75701 0.26557 0.49165 0.0
C962 C 0.76399 0.23973 0.47667 0.0
C963 C 0.74891 0.2552 0.46065 0.0
H964 H 0.27439 0.24561 0.45072 0.0
H965 H 0.15803 0.18455 0.47469 0.0
H966 H 0.30376 0.26579 0.47891 0.0
H967 H 0.18563 0.20772 0.50286 0.0
H968 H 0.25723 0.22841 0.55304 0.0
H969 H 0.23931 0.19712 0.52488 0.0
H970 H 0.28854 0.31886 0.50067 0.0
H971 H 0.30946 0.34857 0.52876 0.0
C972 C 0.25553 0.23547 0.46199 0.0
C973 C 0.21441 0.21228 0.46042 0.0
C974 C 0.27192 0.24799 0.47821 0.0
C975 C 0.24714 0.23849 0.49326 0.0
C976 C 0.20618 0.21492 0.49166 0.0
C977 C 0.19007 0.20199 0.47546 0.0
C978 C 0.2659 0.24777 0.54171 0.0
C979 C 0.28597 0.29053 0.54316 0.0
C980 C 0.25468 0.2302 0.52551 0.0
C981 C 0.26245 0.25535 0.51041 0.0
C982 C 0.28283 0.29801 0.51192 0.0
C983 C 0.29445 0.31531 0.52807 0.0
H984 H 0.16015 0.80693 0.52718 0.0
H985 H 0.27518 0.74612 0.55213 0.0
H986 H 0.18558 0.77701 0.49938 0.0
H987 H 0.30047 0.71605 0.52443 0.0
H988 H 0.35955 0.73877 0.46936 0.0
H989 H 0.3298 0.75745 0.49769 0.0
H990 H 0.201 0.70074 0.48355 0.0
H991 H 0.23116 0.67994 0.4554 0.0
C992 C 0.19037 0.78642 0.52674 0.0
C993 C 0.21531 0.77815 0.54181 0.0
C994 C 0.20478 0.76919 0.51089 0.0
C995 C 0.24494 0.74424 0.50979 0.0
C996 C 0.26938 0.7352 0.52494 0.0
C997 C 0.2546 0.75188 0.54082 0.0
C998 C 0.32493 0.72991 0.47224 0.0
C999 C 0.29749 0.70893 0.45979 0.0
C1000 C 0.30799 0.74054 0.48852 0.0
C1001 C 0.26308 0.73069 0.49276 0.0
C1002 C 0.23561 0.70925 0.48048 0.0
C1003 C 0.25281 0.69794 0.46423 0.0
H1004 H 0.73597 0.82303 0.45526 0.0
H1005 H 0.8592 0.75427 0.4693 0.0
H1006 H 0.7037 0.80393 0.48323 0.0
H1007 H 0.82742 0.73683 0.49743 0.0
H1008 H 0.77308 0.74984 0.55178 0.0
H1009 H 0.80173 0.77783 0.52429 0.0
H1010 H 0.68092 0.73101 0.49884 0.0
H1011 H 0.65201 0.70342 0.52644 0.0
C1012 C 0.75595 0.80319 0.46409 0.0
C1013 C 0.79979 0.78903 0.45974 0.0
C1014 C 0.73759 0.79278 0.48023 0.0
C1015 C 0.76306 0.76891 0.49249 0.0
C1016 C 0.80717 0.7557 0.48831 0.0
C1017 C 0.82527 0.76558 0.47214 0.0
C1018 C 0.75204 0.74675 0.54044 0.0
C1019 C 0.71 0.7251 0.54128 0.0
C1020 C 0.76872 0.76219 0.52465 0.0
C1021 C 0.74355 0.75651 0.50944 0.0
C1022 C 0.70084 0.73621 0.51039 0.0
C1023 C 0.68442 0.72027 0.52614 0.0
H1024 H 0.57169 0.21583 0.15953 0.0
H1025 H 0.58151 0.20324 0.10411 0.0
H1026 H 0.49537 0.18601 0.15851 0.0
H1027 H 0.50534 0.17266 0.10319 0.0
H1028 H 0.35409 0.21433 0.10781 0.0
H1029 H 0.43609 0.21636 0.10768 0.0
H1030 H 0.43912 0.1273 0.15176 0.0
H1031 H 0.35644 0.12493 0.15169 0.0
C1032 C 0.5583 0.20516 0.14719 0.0
C1033 C 0.58235 0.21314 0.13185 0.0
C1034 C 0.51441 0.18796 0.14662 0.0
C1035 C 0.49386 0.17819 0.13071 0.0
C1036 C 0.51988 0.18105 0.1156 0.0
C1037 C 0.56371 0.19828 0.11616 0.0
C1038 C 0.37227 0.19443 0.11724 0.0
C1039 C 0.349 0.16972 0.12982 0.0
C1040 C 0.41931 0.19539 0.11714 0.0
C1041 C 0.44422 0.17177 0.12966 0.0
C1042 C 0.42089 0.14604 0.14201 0.0
C1043 C 0.37367 0.14487 0.14202 0.0
H1044 H 0.11968 0.63267 0.88809 0.0
H1045 H 0.22603 0.63649 0.85016 0.0
H1046 H 0.12338 0.54989 0.88833 0.0
H1047 H 0.22884 0.55439 0.84997 0.0
H1048 H 0.21212 0.40921 0.84391 0.0
H1049 H 0.18266 0.48574 0.84244 0.0
H1050 H 0.18364 0.49377 0.89801 0.0
H1051 H 0.21308 0.41711 0.89959 0.0
C1052 C 0.14361 0.61575 0.87975 0.0
C1053 C 0.17279 0.64083 0.86918 0.0
C1054 C 0.14552 0.56853 0.87981 0.0
C1055 C 0.17608 0.54569 0.86906 0.0
C1056 C 0.20427 0.57095 0.85815 0.0
C1057 C 0.20279 0.61797 0.85828 0.0
C1058 C 0.20478 0.42663 0.85586 0.0
C1059 C 0.21614 0.40736 0.87187 0.0
C1060 C 0.1881 0.47062 0.85499 0.0
C1061 C 0.18201 0.49606 0.87009 0.0
C1062 C 0.18819 0.47501 0.88615 0.0
C1063 C 0.20511 0.431 0.88704 0.0
H1064 H 0.40759 0.78003 0.16015 0.0
H1065 H 0.41045 0.78544 0.10443 0.0
H1066 H 0.48418 0.80945 0.16111 0.0
H1067 H 0.48722 0.81452 0.1055 0.0
H1068 H 0.62768 0.87554 0.1145 0.0
H1069 H 0.54489 0.87249 0.11512 0.0
H1070 H 0.55152 0.76386 0.15214 0.0
H1071 H 0.63352 0.76621 0.15114 0.0
C1072 C 0.4239 0.78879 0.14812 0.0
C1073 C 0.40326 0.77915 0.1322 0.0
C1074 C 0.46793 0.80541 0.14869 0.0
C1075 C 0.49204 0.81303 0.13337 0.0
C1076 C 0.46954 0.80872 0.11751 0.0
C1077 C 0.42548 0.79196 0.11693 0.0
C1078 C 0.6112 0.85107 0.12273 0.0
C1079 C 0.63682 0.82106 0.13277 0.0
C1080 C 0.56399 0.84953 0.12316 0.0
C1081 C 0.54176 0.81837 0.13385 0.0
C1082 C 0.56761 0.789 0.14409 0.0
C1083 C 0.61457 0.79019 0.14348 0.0
H1084 H 0.7867 0.58427 0.8992 0.0
H1085 H 0.77872 0.57389 0.84365 0.0
H1086 H 0.817 0.50806 0.90059 0.0
H1087 H 0.8086 0.49755 0.84515 0.0
H1088 H 0.87189 0.35946 0.85345 0.0
H1089 H 0.86873 0.44214 0.85328 0.0
H1090 H 0.77239 0.43854 0.89503 0.0
H1091 H 0.77483 0.35651 0.89488 0.0
C1092 C 0.79264 0.5664 0.88723 0.0
C1093 C 0.77913 0.5849 0.87134 0.0
C1094 C 0.80975 0.52254 0.88806 0.0
C1095 C 0.81402 0.49643 0.87303 0.0
C1096 C 0.80554 0.51675 0.85698 0.0
C1097 C 0.78829 0.5606 0.85614 0.0
C1098 C 0.85014 0.37654 0.86258 0.0
C1099 C 0.82335 0.35168 0.8741 0.0
C1100 C 0.84855 0.42374 0.86254 0.0
C1101 C 0.82057 0.44687 0.87421 0.0
C1102 C 0.79502 0.42184 0.88611 0.0
C1103 C 0.79629 0.3748 0.88601 0.0
H1104 H 0.41916 0.21938 0.60609 0.0
H1105 H 0.41532 0.22236 0.66182 0.0
H1106 H 0.49527 0.18885 0.60714 0.0
H1107 H 0.49128 0.19124 0.66278 0.0
H1108 H 0.64266 0.22747 0.65413 0.0
H1109 H 0.56076 0.2325 0.65517 0.0
H1110 H 0.55079 0.13003 0.61571 0.0
H1111 H 0.63338 0.12464 0.61491 0.0
C1112 C 0.43382 0.21206 0.61858 0.0
C1113 C 0.41147 0.22445 0.63387 0.0
C1114 C 0.47756 0.19446 0.61916 0.0
C1115 C 0.49968 0.18877 0.63504 0.0
C1116 C 0.47545 0.19635 0.65034 0.0
C1117 C 0.43176 0.21391 0.64977 0.0
C1118 C 0.62294 0.20542 0.64592 0.0
C1119 C 0.6442 0.17585 0.63439 0.0
C1120 C 0.57601 0.2081 0.64656 0.0
C1121 C 0.54922 0.18142 0.63559 0.0
C1122 C 0.57053 0.15112 0.62426 0.0
C1123 C 0.61766 0.14819 0.62374 0.0
H1124 H 0.23513 0.36099 0.35024 0.0
H1125 H 0.13051 0.36318 0.3889 0.0
H1126 H 0.23556 0.44308 0.34965 0.0
H1127 H 0.13178 0.44603 0.3887 0.0
H1128 H 0.21885 0.58155 0.39841 0.0
H1129 H 0.19046 0.50448 0.39755 0.0
H1130 H 0.18684 0.50974 0.34195 0.0
H1131 H 0.21545 0.58665 0.34269 0.0
C1132 C 0.21176 0.37915 0.35844 0.0
C1133 C 0.1828 0.35585 0.3696 0.0
C1134 C 0.21185 0.42615 0.35806 0.0
C1135 C 0.18331 0.45098 0.369 0.0
C1136 C 0.15405 0.42771 0.38012 0.0
C1137 C 0.15355 0.38047 0.38032 0.0
C1138 C 0.21046 0.56698 0.38601 0.0
C1139 C 0.22072 0.58987 0.3706 0.0
C1140 C 0.19414 0.52272 0.38553 0.0
C1141 C 0.18771 0.50077 0.36966 0.0
C1142 C 0.19257 0.52558 0.35435 0.0
C1143 C 0.20873 0.56978 0.35481 0.0
H1144 H 0.5869 0.79196 0.65943 0.0
H1145 H 0.58018 0.79313 0.60372 0.0
H1146 H 0.51012 0.8208 0.66081 0.0
H1147 H 0.50331 0.82176 0.60521 0.0
H1148 H 0.36312 0.88124 0.61426 0.0
H1149 H 0.44592 0.87991 0.61468 0.0
H1150 H 0.44232 0.77447 0.65308 0.0
H1151 H 0.36018 0.7751 0.65228 0.0
C1152 C 0.56971 0.79971 0.64746 0.0
C1153 C 0.58936 0.789 0.63146 0.0
C1154 C 0.52556 0.81599 0.64828 0.0
C1155 C 0.50035 0.82231 0.63313 0.0
C1156 C 0.52183 0.81699 0.61712 0.0
C1157 C 0.56598 0.80051 0.61628 0.0
C1158 C 0.38026 0.85784 0.62275 0.0
C1159 C 0.35545 0.82789 0.63309 0.0
C1160 C 0.42748 0.8573 0.62308 0.0
C1161 C 0.45059 0.82734 0.634 0.0
C1162 C 0.42554 0.79858 0.64477 0.0
C1163 C 0.37852 0.79875 0.64427 0.0
H1164 H 0.7752 0.64311 0.34949 0.0
H1165 H 0.88655 0.63593 0.38523 0.0
H1166 H 0.77229 0.5611 0.34826 0.0
H1167 H 0.8829 0.55317 0.3844 0.0
H1168 H 0.78736 0.4165 0.34004 0.0
H1169 H 0.81666 0.49315 0.33891 0.0
H1170 H 0.82481 0.49609 0.39447 0.0
H1171 H 0.79574 0.41932 0.39571 0.0
C1172 C 0.79947 0.62387 0.35691 0.0
C1173 C 0.83094 0.64576 0.36751 0.0
C1174 C 0.79796 0.5769 0.35616 0.0
C1175 C 0.82764 0.55067 0.36614 0.0
C1176 C 0.85961 0.57255 0.3766 0.0
C1177 C 0.86149 0.61975 0.37716 0.0
C1178 C 0.79677 0.4328 0.35202 0.0
C1179 C 0.78804 0.41208 0.368 0.0
C1180 C 0.81329 0.47688 0.35135 0.0
C1181 C 0.82185 0.50096 0.36662 0.0
C1182 C 0.81831 0.47844 0.38249 0.0
C1183 C 0.80156 0.43437 0.38318 0.0
H1184 H 0.07814 0.71832 0.65794 0.0
H1185 H 0.08782 0.70848 0.60243 0.0
H1186 H 0.00143 0.68932 0.65668 0.0
H1187 H 0.01119 0.67912 0.60127 0.0
H1188 H 0.86074 0.72497 0.60701 0.0
H1189 H 0.94276 0.72567 0.60682 0.0
H1190 H 0.94464 0.62995 0.64879 0.0
H1191 H 0.8619 0.62843 0.64863 0.0
C1192 C 0.06461 0.70847 0.64552 0.0
C1193 C 0.08879 0.71696 0.63025 0.0
C1194 C 0.02054 0.69175 0.64481 0.0
C1195 C -8e-05 0.68313 0.62883 0.0
C1196 C 0.02593 0.68652 0.61375 0.0
C1197 C 0.06999 0.7031 0.61444 0.0
C1198 C 0.87861 0.70326 0.61592 0.0
C1199 C 0.85498 0.67682 0.62788 0.0
C1200 C 0.92565 0.70353 0.61579 0.0
C1201 C 0.95022 0.67762 0.62773 0.0
C1202 C 0.9266 0.65035 0.63948 0.0
C1203 C 0.87936 0.64972 0.63947 0.0
H1204 H 0.71649 0.91964 0.3453 0.0
H1205 H 0.72301 0.91544 0.40099 0.0
H1206 H 0.68691 0.99606 0.34668 0.0
H1207 H 0.69282 0.99176 0.40229 0.0
H1208 H 0.73247 0.14235 0.39312 0.0
H1209 H 0.73511 0.06039 0.39429 0.0
H1210 H 0.62997 0.05296 0.3558 0.0
H1211 H 0.62688 0.13568 0.35491 0.0
C1212 C 0.71012 0.9343 0.35787 0.0
C1213 C 0.72335 0.91175 0.37302 0.0
C1214 C 0.69304 0.97823 0.35864 0.0
C1215 C 0.68872 0.00037 0.37458 0.0
C1216 C 0.69689 0.97591 0.38979 0.0
C1217 C 0.7139 0.93199 0.38903 0.0
C1218 C 0.70932 0.12322 0.38516 0.0
C1219 C 0.67978 0.14525 0.37382 0.0
C1220 C 0.71063 0.07624 0.38588 0.0
C1221 C 0.68255 0.0501 0.3752 0.0
C1222 C 0.65215 0.07218 0.36412 0.0
C1223 C 0.65058 0.11939 0.36353 0.0
H1224 H 0.14015 0.27881 0.65552 0.0
H1225 H 0.13492 0.37513 0.61388 0.0
H1226 H 0.05815 0.27454 0.65567 0.0
H1227 H 0.05233 0.37058 0.61382 0.0
H1228 H 0.92084 0.28155 0.60438 0.0
H1229 H 0.99706 0.3117 0.60584 0.0
H1230 H 0.98825 0.3165 0.66139 0.0
H1231 H 0.91223 0.28567 0.66002 0.0
C1232 C 0.12131 0.2997 0.6466 0.0
C1233 C 0.14376 0.32715 0.63466 0.0
C1234 C 0.0743 0.29744 0.64671 0.0
C1235 C 0.04865 0.32245 0.63481 0.0
C1236 C 0.07115 0.35075 0.62309 0.0
C1237 C 0.11831 0.35322 0.62307 0.0
C1238 C 0.93448 0.29041 0.6169 0.0
C1239 C 0.91079 0.28006 0.63211 0.0
C1240 C 0.97829 0.30776 0.61772 0.0
C1241 C -0.00089 0.3153 0.63376 0.0
C1242 C 0.9735 0.30987 0.64886 0.0
C1243 C 0.92976 0.2925 0.64805 0.0
H1244 H 0.29628 0.08689 0.34284 0.0
H1245 H 0.29011 0.07905 0.39848 0.0
H1246 H 0.3256 0.01026 0.34178 0.0
H1247 H 0.31949 0.00233 0.39729 0.0
H1248 H 0.38367 0.86296 0.38792 0.0
H1249 H 0.38095 0.94579 0.38807 0.0
H1250 H 0.27702 0.94222 0.34905 0.0
H1251 H 0.27866 0.8601 0.34938 0.0
C1252 C 0.30251 0.0695 0.35489 0.0
C1253 C 0.28964 0.08878 0.37073 0.0
C1254 C 0.31913 0.02547 0.35424 0.0
C1255 C 0.32369 5e-05 0.36941 0.0
C1256 C 0.31611 0.02111 0.38538 0.0
C1257 C 0.29921 0.06515 0.38604 0.0
C1258 C 0.36026 0.8801 0.37942 0.0
C1259 C 0.33114 0.85528 0.36871 0.0
C1260 C 0.35895 0.92733 0.37943 0.0
C1261 C 0.32912 0.9504 0.36845 0.0
C1262 C 0.30103 0.92542 0.3574 0.0
C1263 C 0.30186 0.8784 0.35761 0.0
H1264 H 0.91384 0.71943 0.10088 0.0
H1265 H 0.90429 0.70481 0.15625 0.0
H1266 H 0.99048 0.68946 0.10177 0.0
H1267 H 0.98084 0.67528 0.15701 0.0
H1268 H 0.12883 0.62034 0.11135 0.0
H1269 H 0.04604 0.6244 0.11066 0.0
H1270 H 0.04937 0.72625 0.15045 0.0
H1271 H 0.13153 0.72359 0.15058 0.0
C1272 C 0.92734 0.70837 0.11315 0.0
C1273 C 0.90326 0.71569 0.12855 0.0
C1274 C 0.9713 0.69119 0.11364 0.0
C1275 C 0.99183 0.68116 0.12952 0.0
C1276 C 0.96599 0.6836 0.14464 0.0
C1277 C 0.92203 0.70038 0.14416 0.0
C1278 C 0.11167 0.64367 0.11986 0.0
C1279 C 0.13645 0.67198 0.13091 0.0
C1280 C 0.06447 0.64572 0.11955 0.0
C1281 C 0.04137 0.6753 0.13061 0.0
C1282 C 0.06625 0.70251 0.14201 0.0
C1283 C 0.11326 0.70107 0.14207 0.0
H1284 H 0.62299 0.85946 0.88731 0.0
H1285 H 0.72025 0.8568 0.84596 0.0
H1286 H 0.62535 0.94208 0.8874 0.0
H1287 H 0.72226 0.93896 0.84582 0.0
H1288 H 0.70874 0.08513 0.84231 0.0
H1289 H 0.67891 0.00879 0.84041 0.0
H1290 H 0.68401 0.99735 0.89588 0.0
H1291 H 0.71341 0.07375 0.89787 0.0
C1292 C 0.64457 0.87664 0.87816 0.0
C1293 C 0.67172 0.85189 0.86671 0.0
C1294 C 0.64577 0.92382 0.87816 0.0
C1295 C 0.67384 0.94708 0.86659 0.0
C1296 C 0.6996 0.92215 0.85469 0.0
C1297 C 0.69862 0.87507 0.85479 0.0
C1298 C 0.70219 0.06696 0.85416 0.0
C1299 C 0.71463 0.08523 0.87023 0.0
C1300 C 0.68537 0.02304 0.85304 0.0
C1301 C 0.68031 0.99664 0.86795 0.0
C1302 C 0.68769 0.01674 0.88413 0.0
C1303 C 0.70463 0.06066 0.88526 0.0
H1304 H 0.85793 0.37473 0.14844 0.0
H1305 H 0.85085 0.2685 0.11049 0.0
H1306 H 0.94068 0.37084 0.14773 0.0
H1307 H 0.93278 0.26514 0.10947 0.0
H1308 H 0.07726 0.27838 0.10207 0.0
H1309 H 0.00087 0.30843 0.10114 0.0
H1310 H 0.99789 0.31316 0.15677 0.0
H1311 H 0.07445 0.28365 0.15779 0.0
C1312 C 0.87414 0.35067 0.13995 0.0
C1313 C 0.84818 0.32162 0.12963 0.0
C1314 C 0.92134 0.34866 0.13945 0.0
C1315 C 0.94326 0.31801 0.12843 0.0
C1316 C 0.91703 0.28984 0.11783 0.0
C1317 C 0.87008 0.29155 0.11846 0.0
C1318 C 0.06096 0.28716 0.11411 0.0
C1319 C 0.08163 0.27745 0.13001 0.0
C1320 C 0.01703 0.30413 0.11357 0.0
C1321 C 0.99297 0.31192 0.12889 0.0
C1322 C 0.01548 0.3073 0.14474 0.0
C1323 C 0.05946 0.29029 0.1453 0.0
H1324 H 0.28633 0.91076 0.84296 0.0
H1325 H 0.28515 0.91404 0.89872 0.0
H1326 H 0.31538 0.98752 0.84246 0.0
H1327 H 0.31411 0.99093 0.8981 0.0
H1328 H 0.37674 0.13136 0.88983 0.0
H1329 H 0.37367 0.04854 0.88921 0.0
H1330 H 0.26848 0.05501 0.85073 0.0
H1331 H 0.27071 0.13709 0.85177 0.0
C1332 C 0.29357 0.9272 0.85513 0.0
C1333 C 0.28218 0.90658 0.87088 0.0
C1334 C 0.31 0.97133 0.85481 0.0
C1335 C 0.3158 0.99557 0.87022 0.0
C1336 C 0.30974 0.97314 0.88601 0.0
C1337 C 0.29309 0.92899 0.88634 0.0
C1338 C 0.35294 0.11485 0.88131 0.0
C1339 C 0.32369 0.14045 0.87094 0.0
C1340 C 0.35142 0.06762 0.88087 0.0
C1341 C 0.32119 0.04533 0.8698 0.0
C1342 C 0.29282 0.07115 0.85913 0.0
C1343 C 0.29393 0.11814 0.85976 0.0
loop_
_geom_bond_atom_site_label_1
_geom_bond_atom_site_label_2
_geom_bond_distance
_geom_bond_site_symmetry_2
_ccdc_geom_bond_type
Co0 O3 1.970 . S
Co0 N17 1.989 . S
Co0 O25 1.967 . S
Co0 O32 1.920 . S
Co1 O4 1.966 . S
Co1 N10 2.022 . S
Co1 N18 1.993 . S
Co1 O26 1.941 . S
C2 O3 1.258 . S
C2 O4 1.263 . S
O3 Co0 1.970 . S
O3 C2 1.258 . S
O4 Co1 1.966 . S
O4 C2 1.263 . S
C5 O6 1.235 . S
C5 O32 1.289 . S
O6 C5 1.235 . S
C7 C9 1.400 . S
C7 N10 1.351 . S
C7 C12 1.501 . S
C8 C9 1.387 . S
C8 N11 1.341 . S
C9 C7 1.400 . S
C9 C8 1.387 . S
N10 Co1 2.022 . S
N10 C7 1.351 . S
N10 N11 1.365 . S
N11 C8 1.341 . S
N11 N10 1.365 . S
N11 H31 0.862 . S
C12 C7 1.501 . S
C12 H13 0.961 . S
C12 H14 0.961 . S
C12 H15 0.960 . S
H13 C12 0.961 . S
H14 C12 0.961 . S
H15 C12 0.960 . S
C16 N17 1.342 . S
C16 C20 1.401 . S
C16 C21 1.499 . S
N17 Co0 1.989 . S
N17 C16 1.342 . S
N17 N18 1.388 . S
N18 Co1 1.993 . S
N18 N17 1.388 . S
N18 C19 1.346 . S
C19 N18 1.346 . S
C19 C20 1.396 . S
C19 C29 1.510 . S
C20 C16 1.401 . S
C20 C19 1.396 . S
C21 C16 1.499 . S
C21 H22 0.959 . S
C21 H23 0.960 . S
C21 H24 0.961 . S
H22 C21 0.959 . S
H23 C21 0.960 . S
H24 C21 0.961 . S
O25 Co0 1.967 . S
O25 C33 1.258 . S
O26 Co1 1.941 . S
O26 C33 1.266 . S
H27 C29 0.959 . S
H28 C29 0.961 . S
C29 C19 1.510 . S
C29 H27 0.959 . S
C29 H28 0.961 . S
C29 H30 0.960 . S
H30 C29 0.960 . S
H31 N11 0.862 . S
O32 Co0 1.920 . S
O32 C5 1.289 . S
C33 O25 1.258 . S
C33 O26 1.266 . S
Co34 O37 1.970 . S
Co34 N51 1.989 . S
Co34 O59 1.967 . S
Co34 O66 1.920 . S
Co35 O38 1.966 . S
Co35 N44 2.022 . S
Co35 N52 1.993 . S
Co35 O60 1.941 . S
C36 O37 1.258 . S
C36 O38 1.263 . S
O37 Co34 1.970 . S
O37 C36 1.258 . S
O38 Co35 1.966 . S
O38 C36 1.263 . S
C39 O40 1.235 . S
C39 O66 1.289 . S
O40 C39 1.235 . S
C41 C43 1.400 . S
C41 N44 1.351 . S
C41 C46 1.501 . S
C42 C43 1.387 . S
C42 N45 1.341 . S
C43 C41 1.400 . S
C43 C42 1.387 . S
N44 Co35 2.022 . S
N44 C41 1.351 . S
N44 N45 1.365 . S
N45 C42 1.341 . S
N45 N44 1.365 . S
N45 H65 0.862 . S
C46 C41 1.501 . S
C46 H47 0.961 . S
C46 H48 0.961 . S
C46 H49 0.960 . S
H47 C46 0.961 . S
H48 C46 0.961 . S
H49 C46 0.960 . S
C50 N51 1.342 . S
C50 C54 1.401 . S
C50 C55 1.499 . S
N51 Co34 1.989 . S
N51 C50 1.342 . S
N51 N52 1.388 . S
N52 Co35 1.993 . S
N52 N51 1.388 . S
N52 C53 1.346 . S
C53 N52 1.346 . S
C53 C54 1.396 . S
C53 C63 1.510 . S
C54 C50 1.401 . S
C54 C53 1.396 . S
C55 C50 1.499 . S
C55 H56 0.959 . S
C55 H57 0.960 . S
C55 H58 0.961 . S
H56 C55 0.959 . S
H57 C55 0.960 . S
H58 C55 0.961 . S
O59 Co34 1.967 . S
O59 C67 1.258 . S
O60 Co35 1.941 . S
O60 C67 1.266 . S
H61 C63 0.959 . S
H62 C63 0.961 . S
C63 C53 1.510 . S
C63 H61 0.959 . S
C63 H62 0.961 . S
C63 H64 0.960 . S
H64 C63 0.960 . S
H65 N45 0.862 . S
O66 Co34 1.920 . S
O66 C39 1.289 . S
C67 O59 1.258 . S
C67 O60 1.266 . S
Co68 O71 1.970 . S
Co68 N85 1.989 . S
Co68 O93 1.967 . S
Co68 O100 1.920 . S
Co69 O72 1.966 . S
Co69 N78 2.022 . S
Co69 N86 1.993 . S
Co69 O94 1.941 . S
C70 O71 1.258 . S
C70 O72 1.263 . S
O71 Co68 1.970 . S
O71 C70 1.258 . S
O72 Co69 1.966 . S
O72 C70 1.263 . S
C73 O74 1.235 . S
C73 O100 1.289 . S
O74 C73 1.235 . S
C75 C77 1.400 . S
C75 N78 1.351 . S
C75 C80 1.501 . S
C76 C77 1.387 . S
C76 N79 1.341 . S
C77 C75 1.400 . S
C77 C76 1.387 . S
N78 Co69 2.022 . S
N78 C75 1.351 . S
N78 N79 1.365 . S
N79 C76 1.341 . S
N79 N78 1.365 . S
N79 H99 0.862 . S
C80 C75 1.501 . S
C80 H81 0.961 . S
C80 H82 0.961 . S
C80 H83 0.960 . S
H81 C80 0.961 . S
H82 C80 0.961 . S
H83 C80 0.960 . S
C84 N85 1.342 . S
C84 C88 1.401 . S
C84 C89 1.499 . S
N85 Co68 1.989 . S
N85 C84 1.342 . S
N85 N86 1.388 . S
N86 Co69 1.993 . S
N86 N85 1.388 . S
N86 C87 1.346 . S
C87 N86 1.346 . S
C87 C88 1.396 . S
C87 C97 1.510 . S
C88 C84 1.401 . S
C88 C87 1.396 . S
C89 C84 1.499 . S
C89 H90 0.959 . S
C89 H91 0.960 . S
C89 H92 0.961 . S
H90 C89 0.959 . S
H91 C89 0.960 . S
H92 C89 0.961 . S
O93 Co68 1.967 . S
O93 C101 1.258 . S
O94 Co69 1.941 . S
O94 C101 1.266 . S
H95 C97 0.959 . S
H96 C97 0.961 . S
C97 C87 1.510 . S
C97 H95 0.959 . S
C97 H96 0.961 . S
C97 H98 0.960 . S
H98 C97 0.960 . S
H99 N79 0.862 . S
O100 Co68 1.920 . S
O100 C73 1.289 . S
C101 O93 1.258 . S
C101 O94 1.266 . S
Co102 O105 1.970 . S
Co102 N119 1.989 . S
Co102 O127 1.967 . S
Co102 O134 1.920 . S
Co103 O106 1.966 . S
Co103 N112 2.022 . S
Co103 N120 1.993 . S
Co103 O128 1.941 . S
C104 O105 1.258 . S
C104 O106 1.263 . S
O105 Co102 1.970 . S
O105 C104 1.258 . S
O106 Co103 1.966 . S
O106 C104 1.263 . S
C107 O108 1.235 . S
C107 O134 1.289 . S
O108 C107 1.235 . S
C109 C111 1.400 . S
C109 N112 1.351 . S
C109 C114 1.501 . S
C110 C111 1.387 . S
C110 N113 1.341 . S
C111 C109 1.400 . S
C111 C110 1.387 . S
N112 Co103 2.022 . S
N112 C109 1.351 . S
N112 N113 1.365 . S
N113 C110 1.341 . S
N113 N112 1.365 . S
N113 H133 0.862 . S
C114 C109 1.501 . S
C114 H115 0.961 . S
C114 H116 0.961 . S
C114 H117 0.960 . S
H115 C114 0.961 . S
H116 C114 0.961 . S
H117 C114 0.960 . S
C118 N119 1.342 . S
C118 C122 1.401 . S
C118 C123 1.499 . S
N119 Co102 1.989 . S
N119 C118 1.342 . S
N119 N120 1.388 . S
N120 Co103 1.993 . S
N120 N119 1.388 . S
N120 C121 1.346 . S
C121 N120 1.346 . S
C121 C122 1.396 . S
C121 C131 1.510 . S
C122 C118 1.401 . S
C122 C121 1.396 . S
C123 C118 1.499 . S
C123 H124 0.959 . S
C123 H125 0.960 . S
C123 H126 0.961 . S
H124 C123 0.959 . S
H125 C123 0.960 . S
H126 C123 0.961 . S
O127 Co102 1.967 . S
O127 C135 1.258 . S
O128 Co103 1.941 . S
O128 C135 1.266 . S
H129 C131 0.959 . S
H130 C131 0.961 . S
C131 C121 1.510 . S
C131 H129 0.959 . S
C131 H130 0.961 . S
C131 H132 0.960 . S
H132 C131 0.960 . S
H133 N113 0.862 . S
O134 Co102 1.920 . S
O134 C107 1.289 . S
C135 O127 1.258 . S
C135 O128 1.266 . S
Co136 O139 1.970 . S
Co136 N153 1.989 . S
Co136 O161 1.967 . S
Co136 O168 1.920 . S
Co137 O140 1.966 . S
Co137 N146 2.022 . S
Co137 N154 1.993 . S
Co137 O162 1.941 . S
C138 O139 1.258 . S
C138 O140 1.263 . S
O139 Co136 1.970 . S
O139 C138 1.258 . S
O140 Co137 1.966 . S
O140 C138 1.263 . S
C141 O142 1.235 . S
C141 O168 1.289 . S
O142 C141 1.235 . S
C143 C145 1.400 . S
C143 N146 1.351 . S
C143 C148 1.501 . S
C144 C145 1.387 . S
C144 N147 1.341 . S
C145 C143 1.400 . S
C145 C144 1.387 . S
N146 Co137 2.022 . S
N146 C143 1.351 . S
N146 N147 1.365 . S
N147 C144 1.341 . S
N147 N146 1.365 . S
N147 H167 0.862 . S
C148 C143 1.501 . S
C148 H149 0.961 . S
C148 H150 0.961 . S
C148 H151 0.960 . S
H149 C148 0.961 . S
H150 C148 0.961 . S
H151 C148 0.960 . S
C152 N153 1.342 . S
C152 C156 1.401 . S
C152 C157 1.499 . S
N153 Co136 1.989 . S
N153 C152 1.342 . S
N153 N154 1.388 . S
N154 Co137 1.993 . S
N154 N153 1.388 . S
N154 C155 1.346 . S
C155 N154 1.346 . S
C155 C156 1.396 . S
C155 C165 1.510 . S
C156 C152 1.401 . S
C156 C155 1.396 . S
C157 C152 1.499 . S
C157 H158 0.959 . S
C157 H159 0.960 . S
C157 H160 0.961 . S
H158 C157 0.959 . S
H159 C157 0.960 . S
H160 C157 0.961 . S
O161 Co136 1.967 . S
O161 C169 1.258 . S
O162 Co137 1.941 . S
O162 C169 1.266 . S
H163 C165 0.959 . S
H164 C165 0.961 . S
C165 C155 1.510 . S
C165 H163 0.959 . S
C165 H164 0.961 . S
C165 H166 0.960 . S
H166 C165 0.960 . S
H167 N147 0.862 . S
O168 Co136 1.920 . S
O168 C141 1.289 . S
C169 O161 1.258 . S
C169 O162 1.266 . S
Co170 O173 1.970 . S
Co170 N187 1.989 . S
Co170 O195 1.967 . S
Co170 O202 1.920 . S
Co171 O174 1.966 . S
Co171 N180 2.022 . S
Co171 N188 1.993 . S
Co171 O196 1.941 . S
C172 O173 1.258 . S
C172 O174 1.263 . S
O173 Co170 1.970 . S
O173 C172 1.258 . S
O174 Co171 1.966 . S
O174 C172 1.263 . S
C175 O176 1.235 . S
C175 O202 1.289 . S
O176 C175 1.235 . S
C177 C179 1.400 . S
C177 N180 1.351 . S
C177 C182 1.501 . S
C178 C179 1.387 . S
C178 N181 1.341 . S
C179 C177 1.400 . S
C179 C178 1.387 . S
N180 Co171 2.022 . S
N180 C177 1.351 . S
N180 N181 1.365 . S
N181 C178 1.341 . S
N181 N180 1.365 . S
N181 H201 0.862 . S
C182 C177 1.501 . S
C182 H183 0.961 . S
C182 H184 0.961 . S
C182 H185 0.960 . S
H183 C182 0.961 . S
H184 C182 0.961 . S
H185 C182 0.960 . S
C186 N187 1.342 . S
C186 C190 1.401 . S
C186 C191 1.499 . S
N187 Co170 1.989 . S
N187 C186 1.342 . S
N187 N188 1.388 . S
N188 Co171 1.993 . S
N188 N187 1.388 . S
N188 C189 1.346 . S
C189 N188 1.346 . S
C189 C190 1.396 . S
C189 C199 1.510 . S
C190 C186 1.401 . S
C190 C189 1.396 . S
C191 C186 1.499 . S
C191 H192 0.959 . S
C191 H193 0.960 . S
C191 H194 0.961 . S
H192 C191 0.959 . S
H193 C191 0.960 . S
H194 C191 0.961 . S
O195 Co170 1.967 . S
O195 C203 1.258 . S
O196 Co171 1.941 . S
O196 C203 1.266 . S
H197 C199 0.959 . S
H198 C199 0.961 . S
C199 C189 1.510 . S
C199 H197 0.959 . S
C199 H198 0.961 . S
C199 H200 0.960 . S
H200 C199 0.960 . S
H201 N181 0.862 . S
O202 Co170 1.920 . S
O202 C175 1.289 . S
C203 O195 1.258 . S
C203 O196 1.266 . S
Co204 O207 1.970 . S
Co204 N221 1.989 . S
Co204 O229 1.967 . S
Co204 O236 1.920 . S
Co205 O208 1.966 . S
Co205 N214 2.022 . S
Co205 N222 1.993 . S
Co205 O230 1.941 . S
C206 O207 1.258 . S
C206 O208 1.263 . S
O207 Co204 1.970 . S
O207 C206 1.258 . S
O208 Co205 1.966 . S
O208 C206 1.263 . S
C209 O210 1.235 . S
C209 O236 1.289 . S
O210 C209 1.235 . S
C211 C213 1.400 . S
C211 N214 1.351 . S
C211 C216 1.501 . S
C212 C213 1.387 . S
C212 N215 1.341 . S
C213 C211 1.400 . S
C213 C212 1.387 . S
N214 Co205 2.022 . S
N214 C211 1.351 . S
N214 N215 1.365 . S
N215 C212 1.341 . S
N215 N214 1.365 . S
N215 H235 0.862 . S
C216 C211 1.501 . S
C216 H217 0.961 . S
C216 H218 0.961 . S
C216 H219 0.960 . S
H217 C216 0.961 . S
H218 C216 0.961 . S
H219 C216 0.960 . S
C220 N221 1.342 . S
C220 C224 1.401 . S
C220 C225 1.499 . S
N221 Co204 1.989 . S
N221 C220 1.342 . S
N221 N222 1.388 . S
N222 Co205 1.993 . S
N222 N221 1.388 . S
N222 C223 1.346 . S
C223 N222 1.346 . S
C223 C224 1.396 . S
C223 C233 1.510 . S
C224 C220 1.401 . S
C224 C223 1.396 . S
C225 C220 1.499 . S
C225 H226 0.959 . S
C225 H227 0.960 . S
C225 H228 0.961 . S
H226 C225 0.959 . S
H227 C225 0.960 . S
H228 C225 0.961 . S
O229 Co204 1.967 . S
O229 C237 1.258 . S
O230 Co205 1.941 . S
O230 C237 1.266 . S
H231 C233 0.959 . S
H232 C233 0.961 . S
C233 C223 1.510 . S
C233 H231 0.959 . S
C233 H232 0.961 . S
C233 H234 0.960 . S
H234 C233 0.960 . S
H235 N215 0.862 . S
O236 Co204 1.920 . S
O236 C209 1.289 . S
C237 O229 1.258 . S
C237 O230 1.266 . S
Co238 O241 1.970 . S
Co238 N255 1.989 . S
Co238 O263 1.967 . S
Co238 O270 1.920 . S
Co239 O242 1.966 . S
Co239 N248 2.022 . S
Co239 N256 1.993 . S
Co239 O264 1.941 . S
C240 O241 1.258 . S
C240 O242 1.263 . S
O241 Co238 1.970 . S
O241 C240 1.258 . S
O242 Co239 1.966 . S
O242 C240 1.263 . S
C243 O244 1.235 . S
C243 O270 1.289 . S
O244 C243 1.235 . S
C245 C247 1.400 . S
C245 N248 1.351 . S
C245 C250 1.501 . S
C246 C247 1.387 . S
C246 N249 1.341 . S
C247 C245 1.400 . S
C247 C246 1.387 . S
N248 Co239 2.022 . S
N248 C245 1.351 . S
N248 N249 1.365 . S
N249 C246 1.341 . S
N249 N248 1.365 . S
N249 H269 0.862 . S
C250 C245 1.501 . S
C250 H251 0.961 . S
C250 H252 0.961 . S
C250 H253 0.960 . S
H251 C250 0.961 . S
H252 C250 0.961 . S
H253 C250 0.960 . S
C254 N255 1.342 . S
C254 C258 1.401 . S
C254 C259 1.499 . S
N255 Co238 1.989 . S
N255 C254 1.342 . S
N255 N256 1.388 . S
N256 Co239 1.993 . S
N256 N255 1.388 . S
N256 C257 1.346 . S
C257 N256 1.346 . S
C257 C258 1.396 . S
C257 C267 1.510 . S
C258 C254 1.401 . S
C258 C257 1.396 . S
C259 C254 1.499 . S
C259 H260 0.959 . S
C259 H261 0.960 . S
C259 H262 0.961 . S
H260 C259 0.959 . S
H261 C259 0.960 . S
H262 C259 0.961 . S
O263 Co238 1.967 . S
O263 C271 1.258 . S
O264 Co239 1.941 . S
O264 C271 1.266 . S
H265 C267 0.959 . S
H266 C267 0.961 . S
C267 C257 1.510 . S
C267 H265 0.959 . S
C267 H266 0.961 . S
C267 H268 0.960 . S
H268 C267 0.960 . S
H269 N249 0.862 . S
O270 Co238 1.920 . S
O270 C243 1.289 . S
C271 O263 1.258 . S
C271 O264 1.266 . S
Co272 O275 1.970 . S
Co272 N289 1.989 . S
Co272 O297 1.967 . S
Co272 O304 1.920 . S
Co273 O276 1.966 . S
Co273 N282 2.022 . S
Co273 N290 1.993 . S
Co273 O298 1.941 . S
C274 O275 1.258 . S
C274 O276 1.263 . S
O275 Co272 1.970 . S
O275 C274 1.258 . S
O276 Co273 1.966 . S
O276 C274 1.263 . S
C277 O278 1.235 . S
C277 O304 1.289 . S
O278 C277 1.235 . S
C279 C281 1.400 . S
C279 N282 1.351 . S
C279 C284 1.501 . S
C280 C281 1.387 . S
C280 N283 1.341 . S
C281 C279 1.400 . S
C281 C280 1.387 . S
N282 Co273 2.022 . S
N282 C279 1.351 . S
N282 N283 1.365 . S
N283 C280 1.341 . S
N283 N282 1.365 . S
N283 H303 0.862 . S
C284 C279 1.501 . S
C284 H285 0.961 . S
C284 H286 0.961 . S
C284 H287 0.960 . S
H285 C284 0.961 . S
H286 C284 0.961 . S
H287 C284 0.960 . S
C288 N289 1.342 . S
C288 C292 1.401 . S
C288 C293 1.499 . S
N289 Co272 1.989 . S
N289 C288 1.342 . S
N289 N290 1.388 . S
N290 Co273 1.993 . S
N290 N289 1.388 . S
N290 C291 1.346 . S
C291 N290 1.346 . S
C291 C292 1.396 . S
C291 C301 1.510 . S
C292 C288 1.401 . S
C292 C291 1.396 . S
C293 C288 1.499 . S
C293 H294 0.959 . S
C293 H295 0.960 . S
C293 H296 0.961 . S
H294 C293 0.959 . S
H295 C293 0.960 . S
H296 C293 0.961 . S
O297 Co272 1.967 . S
O297 C305 1.258 . S
O298 Co273 1.941 . S
O298 C305 1.266 . S
H299 C301 0.959 . S
H300 C301 0.961 . S
C301 C291 1.510 . S
C301 H299 0.959 . S
C301 H300 0.961 . S
C301 H302 0.960 . S
H302 C301 0.960 . S
H303 N283 0.862 . S
O304 Co272 1.920 . S
O304 C277 1.289 . S
C305 O297 1.258 . S
C305 O298 1.266 . S
Co306 O309 1.970 . S
Co306 N323 1.989 . S
Co306 O331 1.967 . S
Co306 O338 1.920 . S
Co307 O310 1.966 . S
Co307 N316 2.022 . S
Co307 N324 1.993 . S
Co307 O332 1.941 . S
C308 O309 1.258 . S
C308 O310 1.263 . S
O309 Co306 1.970 . S
O309 C308 1.258 . S
O310 Co307 1.966 . S
O310 C308 1.263 . S
C311 O312 1.235 . S
C311 O338 1.289 . S
O312 C311 1.235 . S
C313 C315 1.400 . S
C313 N316 1.351 . S
C313 C318 1.501 . S
C314 C315 1.387 . S
C314 N317 1.341 . S
C315 C313 1.400 . S
C315 C314 1.387 . S
N316 Co307 2.022 . S
N316 C313 1.351 . S
N316 N317 1.365 . S
N317 C314 1.341 . S
N317 N316 1.365 . S
N317 H337 0.862 . S
C318 C313 1.501 . S
C318 H319 0.961 . S
C318 H320 0.961 . S
C318 H321 0.960 . S
H319 C318 0.961 . S
H320 C318 0.961 . S
H321 C318 0.960 . S
C322 N323 1.342 . S
C322 C326 1.401 . S
C322 C327 1.499 . S
N323 Co306 1.989 . S
N323 C322 1.342 . S
N323 N324 1.388 . S
N324 Co307 1.993 . S
N324 N323 1.388 . S
N324 C325 1.346 . S
C325 N324 1.346 . S
C325 C326 1.396 . S
C325 C335 1.510 . S
C326 C322 1.401 . S
C326 C325 1.396 . S
C327 C322 1.499 . S
C327 H328 0.959 . S
C327 H329 0.960 . S
C327 H330 0.961 . S
H328 C327 0.959 . S
H329 C327 0.960 . S
H330 C327 0.961 . S
O331 Co306 1.967 . S
O331 C339 1.258 . S
O332 Co307 1.941 . S
O332 C339 1.266 . S
H333 C335 0.959 . S
H334 C335 0.961 . S
C335 C325 1.510 . S
C335 H333 0.959 . S
C335 H334 0.961 . S
C335 H336 0.960 . S
H336 C335 0.960 . S
H337 N317 0.862 . S
O338 Co306 1.920 . S
O338 C311 1.289 . S
C339 O331 1.258 . S
C339 O332 1.266 . S
Co340 O343 1.970 . S
Co340 N357 1.989 . S
Co340 O365 1.967 . S
Co340 O372 1.920 . S
Co341 O344 1.966 . S
Co341 N350 2.022 . S
Co341 N358 1.993 . S
Co341 O366 1.941 . S
C342 O343 1.258 . S
C342 O344 1.263 . S
O343 Co340 1.970 . S
O343 C342 1.258 . S
O344 Co341 1.966 . S
O344 C342 1.263 . S
C345 O346 1.235 . S
C345 O372 1.289 . S
O346 C345 1.235 . S
C347 C349 1.400 . S
C347 N350 1.351 . S
C347 C352 1.501 . S
C348 C349 1.387 . S
C348 N351 1.341 . S
C349 C347 1.400 . S
C349 C348 1.387 . S
N350 Co341 2.022 . S
N350 C347 1.351 . S
N350 N351 1.365 . S
N351 C348 1.341 . S
N351 N350 1.365 . S
N351 H371 0.862 . S
C352 C347 1.501 . S
C352 H353 0.961 . S
C352 H354 0.961 . S
C352 H355 0.960 . S
H353 C352 0.961 . S
H354 C352 0.961 . S
H355 C352 0.960 . S
C356 N357 1.342 . S
C356 C360 1.401 . S
C356 C361 1.499 . S
N357 Co340 1.989 . S
N357 C356 1.342 . S
N357 N358 1.388 . S
N358 Co341 1.993 . S
N358 N357 1.388 . S
N358 C359 1.346 . S
C359 N358 1.346 . S
C359 C360 1.396 . S
C359 C369 1.510 . S
C360 C356 1.401 . S
C360 C359 1.396 . S
C361 C356 1.499 . S
C361 H362 0.959 . S
C361 H363 0.960 . S
C361 H364 0.961 . S
H362 C361 0.959 . S
H363 C361 0.960 . S
H364 C361 0.961 . S
O365 Co340 1.967 . S
O365 C373 1.258 . S
O366 Co341 1.941 . S
O366 C373 1.266 . S
H367 C369 0.959 . S
H368 C369 0.961 . S
C369 C359 1.510 . S
C369 H367 0.959 . S
C369 H368 0.961 . S
C369 H370 0.960 . S
H370 C369 0.960 . S
H371 N351 0.862 . S
O372 Co340 1.920 . S
O372 C345 1.289 . S
C373 O365 1.258 . S
C373 O366 1.266 . S
Co374 O377 1.970 . S
Co374 N391 1.989 . S
Co374 O399 1.967 . S
Co374 O406 1.920 . S
Co375 O378 1.966 . S
Co375 N384 2.022 . S
Co375 N392 1.993 . S
Co375 O400 1.941 . S
C376 O377 1.258 . S
C376 O378 1.263 . S
O377 Co374 1.970 . S
O377 C376 1.258 . S
O378 Co375 1.966 . S
O378 C376 1.263 . S
C379 O380 1.235 . S
C379 O406 1.289 . S
O380 C379 1.235 . S
C381 C383 1.400 . S
C381 N384 1.351 . S
C381 C386 1.501 . S
C382 C383 1.387 . S
C382 N385 1.341 . S
C383 C381 1.400 . S
C383 C382 1.387 . S
N384 Co375 2.022 . S
N384 C381 1.351 . S
N384 N385 1.365 . S
N385 C382 1.341 . S
N385 N384 1.365 . S
N385 H405 0.862 . S
C386 C381 1.501 . S
C386 H387 0.961 . S
C386 H388 0.961 . S
C386 H389 0.960 . S
H387 C386 0.961 . S
H388 C386 0.961 . S
H389 C386 0.960 . S
C390 N391 1.342 . S
C390 C394 1.401 . S
C390 C395 1.499 . S
N391 Co374 1.989 . S
N391 C390 1.342 . S
N391 N392 1.388 . S
N392 Co375 1.993 . S
N392 N391 1.388 . S
N392 C393 1.346 . S
C393 N392 1.346 . S
C393 C394 1.396 . S
C393 C403 1.510 . S
C394 C390 1.401 . S
C394 C393 1.396 . S
C395 C390 1.499 . S
C395 H396 0.959 . S
C395 H397 0.960 . S
C395 H398 0.961 . S
H396 C395 0.959 . S
H397 C395 0.960 . S
H398 C395 0.961 . S
O399 Co374 1.967 . S
O399 C407 1.258 . S
O400 Co375 1.941 . S
O400 C407 1.266 . S
H401 C403 0.959 . S
H402 C403 0.961 . S
C403 C393 1.510 . S
C403 H401 0.959 . S
C403 H402 0.961 . S
C403 H404 0.960 . S
H404 C403 0.960 . S
H405 N385 0.862 . S
O406 Co374 1.920 . S
O406 C379 1.289 . S
C407 O399 1.258 . S
C407 O400 1.266 . S
Co408 O411 1.970 . S
Co408 N425 1.989 . S
Co408 O433 1.967 . S
Co408 O440 1.920 . S
Co409 O412 1.966 . S
Co409 N418 2.022 . S
Co409 N426 1.993 . S
Co409 O434 1.941 . S
C410 O411 1.258 . S
C410 O412 1.263 . S
O411 Co408 1.970 . S
O411 C410 1.258 . S
O412 Co409 1.966 . S
O412 C410 1.263 . S
C413 O414 1.235 . S
C413 O440 1.289 . S
O414 C413 1.235 . S
C415 C417 1.400 . S
C415 N418 1.351 . S
C415 C420 1.501 . S
C416 C417 1.387 . S
C416 N419 1.341 . S
C417 C415 1.400 . S
C417 C416 1.387 . S
N418 Co409 2.022 . S
N418 C415 1.351 . S
N418 N419 1.365 . S
N419 C416 1.341 . S
N419 N418 1.365 . S
N419 H439 0.862 . S
C420 C415 1.501 . S
C420 H421 0.961 . S
C420 H422 0.961 . S
C420 H423 0.960 . S
H421 C420 0.961 . S
H422 C420 0.961 . S
H423 C420 0.960 . S
C424 N425 1.342 . S
C424 C428 1.401 . S
C424 C429 1.499 . S
N425 Co408 1.989 . S
N425 C424 1.342 . S
N425 N426 1.388 . S
N426 Co409 1.993 . S
N426 N425 1.388 . S
N426 C427 1.346 . S
C427 N426 1.346 . S
C427 C428 1.396 . S
C427 C437 1.510 . S
C428 C424 1.401 . S
C428 C427 1.396 . S
C429 C424 1.499 . S
C429 H430 0.959 . S
C429 H431 0.960 . S
C429 H432 0.961 . S
H430 C429 0.959 . S
H431 C429 0.960 . S
H432 C429 0.961 . S
O433 Co408 1.967 . S
O433 C441 1.258 . S
O434 Co409 1.941 . S
O434 C441 1.266 . S
H435 C437 0.959 . S
H436 C437 0.961 . S
C437 C427 1.510 . S
C437 H435 0.959 . S
C437 H436 0.961 . S
C437 H438 0.960 . S
H438 C437 0.960 . S
H439 N419 0.862 . S
O440 Co408 1.920 . S
O440 C413 1.289 . S
C441 O433 1.258 . S
C441 O434 1.266 . S
Co442 O445 1.970 . S
Co442 N459 1.989 . S
Co442 O467 1.967 . S
Co442 O474 1.920 . S
Co443 O446 1.966 . S
Co443 N452 2.022 . S
Co443 N460 1.993 . S
Co443 O468 1.941 . S
C444 O445 1.258 . S
C444 O446 1.263 . S
O445 Co442 1.970 . S
O445 C444 1.258 . S
O446 Co443 1.966 . S
O446 C444 1.263 . S
C447 O448 1.235 . S
C447 O474 1.289 . S
O448 C447 1.235 . S
C449 C451 1.400 . S
C449 N452 1.351 . S
C449 C454 1.501 . S
C450 C451 1.387 . S
C450 N453 1.341 . S
C451 C449 1.400 . S
C451 C450 1.387 . S
N452 Co443 2.022 . S
N452 C449 1.351 . S
N452 N453 1.365 . S
N453 C450 1.341 . S
N453 N452 1.365 . S
N453 H473 0.862 . S
C454 C449 1.501 . S
C454 H455 0.961 . S
C454 H456 0.961 . S
C454 H457 0.960 . S
H455 C454 0.961 . S
H456 C454 0.961 . S
H457 C454 0.960 . S
C458 N459 1.342 . S
C458 C462 1.401 . S
C458 C463 1.499 . S
N459 Co442 1.989 . S
N459 C458 1.342 . S
N459 N460 1.388 . S
N460 Co443 1.993 . S
N460 N459 1.388 . S
N460 C461 1.346 . S
C461 N460 1.346 . S
C461 C462 1.396 . S
C461 C471 1.510 . S
C462 C458 1.401 . S
C462 C461 1.396 . S
C463 C458 1.499 . S
C463 H464 0.959 . S
C463 H465 0.960 . S
C463 H466 0.961 . S
H464 C463 0.959 . S
H465 C463 0.960 . S
H466 C463 0.961 . S
O467 Co442 1.967 . S
O467 C475 1.258 . S
O468 Co443 1.941 . S
O468 C475 1.266 . S
H469 C471 0.959 . S
H470 C471 0.961 . S
C471 C461 1.510 . S
C471 H469 0.959 . S
C471 H470 0.961 . S
C471 H472 0.960 . S
H472 C471 0.960 . S
H473 N453 0.862 . S
O474 Co442 1.920 . S
O474 C447 1.289 . S
C475 O467 1.258 . S
C475 O468 1.266 . S
Co476 O479 1.970 . S
Co476 N493 1.989 . S
Co476 O501 1.967 . S
Co476 O508 1.920 . S
Co477 O480 1.966 . S
Co477 N486 2.022 . S
Co477 N494 1.993 . S
Co477 O502 1.941 . S
C478 O479 1.258 . S
C478 O480 1.263 . S
O479 Co476 1.970 . S
O479 C478 1.258 . S
O480 Co477 1.966 . S
O480 C478 1.263 . S
C481 O482 1.235 . S
C481 O508 1.289 . S
O482 C481 1.235 . S
C483 C485 1.400 . S
C483 N486 1.351 . S
C483 C488 1.501 . S
C484 C485 1.387 . S
C484 N487 1.341 . S
C485 C483 1.400 . S
C485 C484 1.387 . S
N486 Co477 2.022 . S
N486 C483 1.351 . S
N486 N487 1.365 . S
N487 C484 1.341 . S
N487 N486 1.365 . S
N487 H507 0.862 . S
C488 C483 1.501 . S
C488 H489 0.961 . S
C488 H490 0.961 . S
C488 H491 0.960 . S
H489 C488 0.961 . S
H490 C488 0.961 . S
H491 C488 0.960 . S
C492 N493 1.342 . S
C492 C496 1.401 . S
C492 C497 1.499 . S
N493 Co476 1.989 . S
N493 C492 1.342 . S
N493 N494 1.388 . S
N494 Co477 1.993 . S
N494 N493 1.388 . S
N494 C495 1.346 . S
C495 N494 1.346 . S
C495 C496 1.396 . S
C495 C505 1.510 . S
C496 C492 1.401 . S
C496 C495 1.396 . S
C497 C492 1.499 . S
C497 H498 0.959 . S
C497 H499 0.960 . S
C497 H500 0.961 . S
H498 C497 0.959 . S
H499 C497 0.960 . S
H500 C497 0.961 . S
O501 Co476 1.967 . S
O501 C509 1.258 . S
O502 Co477 1.941 . S
O502 C509 1.266 . S
H503 C505 0.959 . S
H504 C505 0.961 . S
C505 C495 1.510 . S
C505 H503 0.959 . S
C505 H504 0.961 . S
C505 H506 0.960 . S
H506 C505 0.960 . S
H507 N487 0.862 . S
O508 Co476 1.920 . S
O508 C481 1.289 . S
C509 O501 1.258 . S
C509 O502 1.266 . S
Co510 O513 1.970 . S
Co510 N527 1.989 . S
Co510 O535 1.967 . S
Co510 O542 1.920 . S
Co511 O514 1.966 . S
Co511 N520 2.022 . S
Co511 N528 1.993 . S
Co511 O536 1.941 . S
C512 O513 1.258 . S
C512 O514 1.263 . S
O513 Co510 1.970 . S
O513 C512 1.258 . S
O514 Co511 1.966 . S
O514 C512 1.263 . S
C515 O516 1.235 . S
C515 O542 1.289 . S
O516 C515 1.235 . S
C517 C519 1.400 . S
C517 N520 1.351 . S
C517 C522 1.501 . S
C518 C519 1.387 . S
C518 N521 1.341 . S
C519 C517 1.400 . S
C519 C518 1.387 . S
N520 Co511 2.022 . S
N520 C517 1.351 . S
N520 N521 1.365 . S
N521 C518 1.341 . S
N521 N520 1.365 . S
N521 H541 0.862 . S
C522 C517 1.501 . S
C522 H523 0.961 . S
C522 H524 0.961 . S
C522 H525 0.960 . S
H523 C522 0.961 . S
H524 C522 0.961 . S
H525 C522 0.960 . S
C526 N527 1.342 . S
C526 C530 1.401 . S
C526 C531 1.499 . S
N527 Co510 1.989 . S
N527 C526 1.342 . S
N527 N528 1.388 . S
N528 Co511 1.993 . S
N528 N527 1.388 . S
N528 C529 1.346 . S
C529 N528 1.346 . S
C529 C530 1.396 . S
C529 C539 1.510 . S
C530 C526 1.401 . S
C530 C529 1.396 . S
C531 C526 1.499 . S
C531 H532 0.959 . S
C531 H533 0.960 . S
C531 H534 0.961 . S
H532 C531 0.959 . S
H533 C531 0.960 . S
H534 C531 0.961 . S
O535 Co510 1.967 . S
O535 C543 1.258 . S
O536 Co511 1.941 . S
O536 C543 1.266 . S
H537 C539 0.959 . S
H538 C539 0.961 . S
C539 C529 1.510 . S
C539 H537 0.959 . S
C539 H538 0.961 . S
C539 H540 0.960 . S
H540 C539 0.960 . S
H541 N521 0.862 . S
O542 Co510 1.920 . S
O542 C515 1.289 . S
C543 O535 1.258 . S
C543 O536 1.266 . S
H544 C552 0.950 . S
H545 C557 0.950 . S
H546 C554 0.950 . S
H547 C556 0.950 . S
H548 C558 0.950 . S
H549 C560 0.950 . S
H550 C562 0.950 . S
H551 C563 0.950 . S
C552 H544 0.950 . S
C552 C553 1.386 . S
C552 C554 1.391 . S
C553 C552 1.386 . S
C553 C557 1.393 . S
C554 H546 0.950 . S
C554 C552 1.391 . S
C554 C555 1.400 . S
C555 C554 1.400 . S
C555 C556 1.398 . S
C555 C561 1.491 . S
C556 H547 0.950 . S
C556 C555 1.398 . S
C556 C557 1.391 . S
C557 H545 0.950 . S
C557 C553 1.393 . S
C557 C556 1.391 . S
C558 H548 0.950 . S
C558 C559 1.386 . S
C558 C560 1.391 . S
C559 C558 1.386 . S
C559 C563 1.393 . S
C560 H549 0.950 . S
C560 C558 1.391 . S
C560 C561 1.400 . S
C561 C555 1.491 . S
C561 C560 1.400 . S
C561 C562 1.398 . S
C562 H550 0.950 . S
C562 C561 1.398 . S
C562 C563 1.391 . S
C563 H551 0.950 . S
C563 C559 1.393 . S
C563 C562 1.391 . S
H564 C572 0.950 . S
H565 C577 0.950 . S
H566 C574 0.950 . S
H567 C576 0.950 . S
H568 C578 0.950 . S
H569 C580 0.950 . S
H570 C582 0.950 . S
H571 C583 0.950 . S
C572 H564 0.950 . S
C572 C573 1.386 . S
C572 C574 1.391 . S
C573 C572 1.386 . S
C573 C577 1.393 . S
C574 H566 0.950 . S
C574 C572 1.391 . S
C574 C575 1.400 . S
C575 C574 1.400 . S
C575 C576 1.398 . S
C575 C581 1.491 . S
C576 H567 0.950 . S
C576 C575 1.398 . S
C576 C577 1.391 . S
C577 H565 0.950 . S
C577 C573 1.393 . S
C577 C576 1.391 . S
C578 H568 0.950 . S
C578 C579 1.386 . S
C578 C580 1.391 . S
C579 C578 1.386 . S
C579 C583 1.393 . S
C580 H569 0.950 . S
C580 C578 1.391 . S
C580 C581 1.400 . S
C581 C575 1.491 . S
C581 C580 1.400 . S
C581 C582 1.398 . S
C582 H570 0.950 . S
C582 C581 1.398 . S
C582 C583 1.391 . S
C583 H571 0.950 . S
C583 C579 1.393 . S
C583 C582 1.391 . S
H584 C592 0.950 . S
H585 C597 0.950 . S
H586 C594 0.950 . S
H587 C596 0.950 . S
H588 C598 0.950 . S
H589 C600 0.950 . S
H590 C602 0.950 . S
H591 C603 0.950 . S
C592 H584 0.950 . S
C592 C593 1.386 . S
C592 C594 1.391 . S
C593 C592 1.386 . S
C593 C597 1.393 . S
C594 H586 0.950 . S
C594 C592 1.391 . S
C594 C595 1.400 . S
C595 C594 1.400 . S
C595 C596 1.398 . S
C595 C601 1.491 . S
C596 H587 0.950 . S
C596 C595 1.398 . S
C596 C597 1.391 . S
C597 H585 0.950 . S
C597 C593 1.393 . S
C597 C596 1.391 . S
C598 H588 0.950 . S
C598 C599 1.386 . S
C598 C600 1.391 . S
C599 C598 1.386 . S
C599 C603 1.393 . S
C600 H589 0.950 . S
C600 C598 1.391 . S
C600 C601 1.400 . S
C601 C595 1.491 . S
C601 C600 1.400 . S
C601 C602 1.398 . S
C602 H590 0.950 . S
C602 C601 1.398 . S
C602 C603 1.391 . S
C603 H591 0.950 . S
C603 C599 1.393 . S
C603 C602 1.391 . S
H604 C612 0.950 . S
H605 C617 0.950 . S
H606 C614 0.950 . S
H607 C616 0.950 . S
H608 C618 0.950 . S
H609 C620 0.950 . S
H610 C622 0.950 . S
H611 C623 0.950 . S
C612 H604 0.950 . S
C612 C613 1.386 . S
C612 C614 1.391 . S
C613 C612 1.386 . S
C613 C617 1.393 . S
C614 H606 0.950 . S
C614 C612 1.391 . S
C614 C615 1.400 . S
C615 C614 1.400 . S
C615 C616 1.398 . S
C615 C621 1.491 . S
C616 H607 0.950 . S
C616 C615 1.398 . S
C616 C617 1.391 . S
C617 H605 0.950 . S
C617 C613 1.393 . S
C617 C616 1.391 . S
C618 H608 0.950 . S
C618 C619 1.386 . S
C618 C620 1.391 . S
C619 C618 1.386 . S
C619 C623 1.393 . S
C620 H609 0.950 . S
C620 C618 1.391 . S
C620 C621 1.400 . S
C621 C615 1.491 . S
C621 C620 1.400 . S
C621 C622 1.398 . S
C622 H610 0.950 . S
C622 C621 1.398 . S
C622 C623 1.391 . S
C623 H611 0.950 . S
C623 C619 1.393 . S
C623 C622 1.391 . S
H624 C632 0.950 . S
H625 C637 0.950 . S
H626 C634 0.950 . S
H627 C636 0.950 . S
H628 C638 0.950 . S
H629 C640 0.950 . S
H630 C642 0.950 . S
H631 C643 0.950 . S
C632 H624 0.950 . S
C632 C633 1.386 . S
C632 C634 1.391 . S
C633 C632 1.386 . S
C633 C637 1.393 . S
C634 H626 0.950 . S
C634 C632 1.391 . S
C634 C635 1.400 . S
C635 C634 1.400 . S
C635 C636 1.398 . S
C635 C641 1.491 . S
C636 H627 0.950 . S
C636 C635 1.398 . S
C636 C637 1.391 . S
C637 H625 0.950 . S
C637 C633 1.393 . S
C637 C636 1.391 . S
C638 H628 0.950 . S
C638 C639 1.386 . S
C638 C640 1.391 . S
C639 C638 1.386 . S
C639 C643 1.393 . S
C640 H629 0.950 . S
C640 C638 1.391 . S
C640 C641 1.400 . S
C641 C635 1.491 . S
C641 C640 1.400 . S
C641 C642 1.398 . S
C642 H630 0.950 . S
C642 C641 1.398 . S
C642 C643 1.391 . S
C643 H631 0.950 . S
C643 C639 1.393 . S
C643 C642 1.391 . S
H644 C652 0.950 . S
H645 C657 0.950 . S
H646 C654 0.950 . S
H647 C656 0.950 . S
H648 C658 0.950 . S
H649 C660 0.950 . S
H650 C662 0.950 . S
H651 C663 0.950 . S
C652 H644 0.950 . S
C652 C653 1.386 . S
C652 C654 1.391 . S
C653 C652 1.386 . S
C653 C657 1.393 . S
C654 H646 0.950 . S
C654 C652 1.391 . S
C654 C655 1.400 . S
C655 C654 1.400 . S
C655 C656 1.398 . S
C655 C661 1.491 . S
C656 H647 0.950 . S
C656 C655 1.398 . S
C656 C657 1.391 . S
C657 H645 0.950 . S
C657 C653 1.393 . S
C657 C656 1.391 . S
C658 H648 0.950 . S
C658 C659 1.386 . S
C658 C660 1.391 . S
C659 C658 1.386 . S
C659 C663 1.393 . S
C660 H649 0.950 . S
C660 C658 1.391 . S
C660 C661 1.400 . S
C661 C655 1.491 . S
C661 C660 1.400 . S
C661 C662 1.398 . S
C662 H650 0.950 . S
C662 C661 1.398 . S
C662 C663 1.391 . S
C663 H651 0.950 . S
C663 C659 1.393 . S
C663 C662 1.391 . S
H664 C672 0.950 . S
H665 C677 0.950 . S
H666 C674 0.950 . S
H667 C676 0.950 . S
H668 C678 0.950 . S
H669 C680 0.950 . S
H670 C682 0.950 . S
H671 C683 0.950 . S
C672 H664 0.950 . S
C672 C673 1.386 . S
C672 C674 1.391 . S
C673 C672 1.386 . S
C673 C677 1.393 . S
C674 H666 0.950 . S
C674 C672 1.391 . S
C674 C675 1.400 . S
C675 C674 1.400 . S
C675 C676 1.398 . S
C675 C681 1.491 . S
C676 H667 0.950 . S
C676 C675 1.398 . S
C676 C677 1.391 . S
C677 H665 0.950 . S
C677 C673 1.393 . S
C677 C676 1.391 . S
C678 H668 0.950 . S
C678 C679 1.386 . S
C678 C680 1.391 . S
C679 C678 1.386 . S
C679 C683 1.393 . S
C680 H669 0.950 . S
C680 C678 1.391 . S
C680 C681 1.400 . S
C681 C675 1.491 . S
C681 C680 1.400 . S
C681 C682 1.398 . S
C682 H670 0.950 . S
C682 C681 1.398 . S
C682 C683 1.391 . S
C683 H671 0.950 . S
C683 C679 1.393 . S
C683 C682 1.391 . S
H684 C692 0.950 . S
H685 C697 0.950 . S
H686 C694 0.950 . S
H687 C696 0.950 . S
H688 C698 0.950 . S
H689 C700 0.950 . S
H690 C702 0.950 . S
H691 C703 0.950 . S
C692 H684 0.950 . S
C692 C693 1.386 . S
C692 C694 1.391 . S
C693 C692 1.386 . S
C693 C697 1.393 . S
C694 H686 0.950 . S
C694 C692 1.391 . S
C694 C695 1.400 . S
C695 C694 1.400 . S
C695 C696 1.398 . S
C695 C701 1.491 . S
C696 H687 0.950 . S
C696 C695 1.398 . S
C696 C697 1.391 . S
C697 H685 0.950 . S
C697 C693 1.393 . S
C697 C696 1.391 . S
C698 H688 0.950 . S
C698 C699 1.386 . S
C698 C700 1.391 . S
C699 C698 1.386 . S
C699 C703 1.393 . S
C700 H689 0.950 . S
C700 C698 1.391 . S
C700 C701 1.400 . S
C701 C695 1.491 . S
C701 C700 1.400 . S
C701 C702 1.398 . S
C702 H690 0.950 . S
C702 C701 1.398 . S
C702 C703 1.391 . S
C703 H691 0.950 . S
C703 C699 1.393 . S
C703 C702 1.391 . S
H704 C712 0.950 . S
H705 C717 0.950 . S
H706 C714 0.950 1_565 S
H707 C716 0.950 1_655 S
H708 C718 0.950 . S
H709 C720 0.950 1_545 S
H710 C722 0.950 1_455 S
H711 C723 0.950 . S
C712 H704 0.950 . S
C712 C713 1.386 . S
C712 C714 1.391 . S
C713 C712 1.386 . S
C713 C717 1.393 . S
C714 H706 0.950 1_545 S
C714 C712 1.391 . S
C714 C715 1.400 . S
C715 C714 1.400 . S
C715 C716 1.398 . S
C715 C721 1.491 1_445 S
C716 H707 0.950 1_455 S
C716 C715 1.398 . S
C716 C717 1.391 . S
C717 H705 0.950 . S
C717 C713 1.393 . S
C717 C716 1.391 . S
C718 H708 0.950 . S
C718 C719 1.386 . S
C718 C720 1.391 . S
C719 C718 1.386 . S
C719 C723 1.393 . S
C720 H709 0.950 1_565 S
C720 C718 1.391 . S
C720 C721 1.400 . S
C721 C715 1.491 1_665 S
C721 C720 1.400 . S
C721 C722 1.398 . S
C722 H710 0.950 1_655 S
C722 C721 1.398 . S
C722 C723 1.391 . S
C723 H711 0.950 . S
C723 C719 1.393 . S
C723 C722 1.391 . S
H724 C732 0.950 . S
H725 C737 0.950 . S
H726 C734 0.964 . S
H727 C736 0.950 1_565 S
H728 C738 0.950 . S
H729 C740 0.964 . S
H730 C742 0.950 1_545 S
H731 C743 0.950 . S
C732 H724 0.950 . S
C732 C733 1.386 . S
C732 C734 1.391 . S
C733 C732 1.386 . S
C733 C737 1.393 . S
C734 H726 0.964 . S
C734 C732 1.391 . S
C734 C735 1.400 . S
C735 C734 1.400 . S
C735 C736 1.398 . S
C735 C741 1.491 1_645 S
C736 H727 0.950 1_545 S
C736 C735 1.398 . S
C736 C737 1.391 . S
C737 H725 0.950 . S
C737 C733 1.393 . S
C737 C736 1.391 . S
C738 H728 0.950 . S
C738 C739 1.386 . S
C738 C740 1.391 . S
C739 C738 1.386 . S
C739 C743 1.393 . S
C740 H729 0.964 . S
C740 C738 1.391 . S
C740 C741 1.400 . S
C741 C735 1.491 1_465 S
C741 C740 1.400 . S
C741 C742 1.398 . S
C742 H730 0.950 1_565 S
C742 C741 1.398 . S
C742 C743 1.391 . S
C743 H731 0.950 . S
C743 C739 1.393 . S
C743 C742 1.391 . S
H744 C752 0.950 . S
H745 C757 0.950 . S
H746 C754 0.950 . S
H747 C756 0.950 . S
H748 C758 0.950 . S
H749 C760 0.950 . S
H750 C762 0.950 . S
H751 C763 0.950 . S
C752 H744 0.950 . S
C752 C753 1.386 . S
C752 C754 1.391 . S
C753 C752 1.386 . S
C753 C757 1.393 . S
C754 H746 0.950 . S
C754 C752 1.391 . S
C754 C755 1.400 . S
C755 C754 1.400 . S
C755 C756 1.398 . S
C755 C761 1.491 1_645 S
C756 H747 0.950 . S
C756 C755 1.398 . S
C756 C757 1.391 . S
C757 H745 0.950 . S
C757 C753 1.393 . S
C757 C756 1.391 . S
C758 H748 0.950 . S
C758 C759 1.386 . S
C758 C760 1.391 . S
C759 C758 1.386 . S
C759 C763 1.393 . S
C760 H749 0.950 . S
C760 C758 1.391 . S
C760 C761 1.400 . S
C761 C755 1.491 1_465 S
C761 C760 1.400 . S
C761 C762 1.398 . S
C762 H750 0.950 . S
C762 C761 1.398 . S
C762 C763 1.391 . S
C763 H751 0.950 . S
C763 C759 1.393 . S
C763 C762 1.391 . S
H764 C772 0.950 . S
H765 C777 0.950 . S
H766 C774 0.950 1_655 S
H767 C776 0.950 1_565 S
H768 C778 0.950 . S
H769 C780 0.950 1_455 S
H770 C782 0.950 1_545 S
H771 C783 0.950 . S
C772 H764 0.950 . S
C772 C773 1.386 . S
C772 C774 1.391 . S
C773 C772 1.386 . S
C773 C777 1.393 . S
C774 H766 0.950 1_455 S
C774 C772 1.391 . S
C774 C775 1.400 . S
C775 C774 1.400 . S
C775 C776 1.398 . S
C775 C781 1.491 1_445 S
C776 H767 0.950 1_545 S
C776 C775 1.398 . S
C776 C777 1.391 . S
C777 H765 0.950 . S
C777 C773 1.393 . S
C777 C776 1.391 . S
C778 H768 0.950 . S
C778 C779 1.386 . S
C778 C780 1.391 . S
C779 C778 1.386 . S
C779 C783 1.393 . S
C780 H769 0.950 1_655 S
C780 C778 1.391 . S
C780 C781 1.400 . S
C781 C775 1.491 1_665 S
C781 C780 1.400 . S
C781 C782 1.398 . S
C782 H770 0.950 1_565 S
C782 C781 1.398 . S
C782 C783 1.391 . S
C783 H771 0.950 . S
C783 C779 1.393 . S
C783 C782 1.391 . S
H784 C792 0.950 . S
H785 C797 0.950 . S
H786 C794 0.950 . S
H787 C796 0.950 . S
H788 C798 0.950 . S
H789 C800 0.950 . S
H790 C802 0.950 . S
H791 C803 0.950 . S
C792 H784 0.950 . S
C792 C793 1.386 . S
C792 C794 1.391 . S
C793 C792 1.386 . S
C793 C797 1.393 . S
C794 H786 0.950 . S
C794 C792 1.391 . S
C794 C795 1.400 . S
C795 C794 1.400 . S
C795 C796 1.398 . S
C795 C801 1.491 . S
C796 H787 0.950 . S
C796 C795 1.398 . S
C796 C797 1.391 . S
C797 H785 0.950 . S
C797 C793 1.393 . S
C797 C796 1.391 . S
C798 H788 0.950 . S
C798 C799 1.386 . S
C798 C800 1.391 . S
C799 C798 1.386 . S
C799 C803 1.393 . S
C800 H789 0.950 . S
C800 C798 1.391 . S
C800 C801 1.400 . S
C801 C795 1.491 . S
C801 C800 1.400 . S
C801 C802 1.398 . S
C802 H790 0.950 . S
C802 C801 1.398 . S
C802 C803 1.391 . S
C803 H791 0.950 . S
C803 C799 1.393 . S
C803 C802 1.391 . S
H804 C812 0.950 . S
H805 C817 0.950 . S
H806 C814 0.950 . S
H807 C816 0.950 . S
H808 C818 0.950 . S
H809 C820 0.950 . S
H810 C822 0.950 . S
H811 C823 0.950 . S
C812 H804 0.950 . S
C812 C813 1.386 . S
C812 C814 1.391 . S
C813 C812 1.386 . S
C813 C817 1.393 . S
C814 H806 0.950 . S
C814 C812 1.391 . S
C814 C815 1.400 . S
C815 C814 1.400 . S
C815 C816 1.398 . S
C815 C821 1.491 . S
C816 H807 0.950 . S
C816 C815 1.398 . S
C816 C817 1.391 . S
C817 H805 0.950 . S
C817 C813 1.393 . S
C817 C816 1.391 . S
C818 H808 0.950 . S
C818 C819 1.386 . S
C818 C820 1.391 . S
C819 C818 1.386 . S
C819 C823 1.393 . S
C820 H809 0.950 . S
C820 C818 1.391 . S
C820 C821 1.400 . S
C821 C815 1.491 . S
C821 C820 1.400 . S
C821 C822 1.398 . S
C822 H810 0.950 . S
C822 C821 1.398 . S
C822 C823 1.391 . S
C823 H811 0.950 . S
C823 C819 1.393 . S
C823 C822 1.391 . S
H824 C832 0.950 . S
H825 C837 0.950 . S
H826 C834 0.950 . S
H827 C836 0.950 . S
H828 C838 0.950 . S
H829 C840 0.950 . S
H830 C842 0.950 . S
H831 C843 0.950 . S
C832 H824 0.950 . S
C832 C833 1.386 . S
C832 C834 1.391 . S
C833 C832 1.386 . S
C833 C837 1.393 . S
C834 H826 0.950 . S
C834 C832 1.391 . S
C834 C835 1.400 . S
C835 C834 1.400 . S
C835 C836 1.398 . S
C835 C841 1.491 . S
C836 H827 0.950 . S
C836 C835 1.398 . S
C836 C837 1.391 . S
C837 H825 0.950 . S
C837 C833 1.393 . S
C837 C836 1.391 . S
C838 H828 0.950 . S
C838 C839 1.386 . S
C838 C840 1.391 . S
C839 C838 1.386 . S
C839 C843 1.393 . S
C840 H829 0.950 . S
C840 C838 1.391 . S
C840 C841 1.400 . S
C841 C835 1.491 . S
C841 C840 1.400 . S
C841 C842 1.398 . S
C842 H830 0.950 . S
C842 C841 1.398 . S
C842 C843 1.391 . S
C843 H831 0.950 . S
C843 C839 1.393 . S
C843 C842 1.391 . S
H844 C852 0.950 . S
H845 C857 0.950 . S
H846 C854 0.950 . S
H847 C856 0.950 . S
H848 C858 0.950 . S
H849 C860 0.950 . S
H850 C862 0.950 . S
H851 C863 0.950 . S
C852 H844 0.950 . S
C852 C853 1.386 . S
C852 C854 1.391 . S
C853 C852 1.386 . S
C853 C857 1.393 . S
C854 H846 0.950 . S
C854 C852 1.391 . S
C854 C855 1.400 . S
C855 C854 1.400 . S
C855 C856 1.398 . S
C855 C861 1.491 . S
C856 H847 0.950 . S
C856 C855 1.398 . S
C856 C857 1.391 . S
C857 H845 0.950 . S
C857 C853 1.393 . S
C857 C856 1.391 . S
C858 H848 0.950 . S
C858 C859 1.386 . S
C858 C860 1.391 . S
C859 C858 1.386 . S
C859 C863 1.393 . S
C860 H849 0.950 . S
C860 C858 1.391 . S
C860 C861 1.400 . S
C861 C855 1.491 . S
C861 C860 1.400 . S
C861 C862 1.398 . S
C862 H850 0.950 . S
C862 C861 1.398 . S
C862 C863 1.391 . S
C863 H851 0.950 . S
C863 C859 1.393 . S
C863 C862 1.391 . S
H864 C872 0.950 . S
H865 C877 0.950 . S
H866 C874 0.950 . S
H867 C876 0.950 . S
H868 C878 0.950 . S
H869 C880 0.950 . S
H870 C882 0.950 . S
H871 C883 0.950 . S
C872 H864 0.950 . S
C872 C873 1.386 . S
C872 C874 1.391 . S
C873 C872 1.386 . S
C873 C877 1.393 . S
C874 H866 0.950 . S
C874 C872 1.391 . S
C874 C875 1.400 . S
C875 C874 1.400 . S
C875 C876 1.398 . S
C875 C881 1.491 1_556 S
C876 H867 0.950 . S
C876 C875 1.398 . S
C876 C877 1.391 . S
C877 H865 0.950 . S
C877 C873 1.393 . S
C877 C876 1.391 . S
C878 H868 0.950 . S
C878 C879 1.386 . S
C878 C880 1.391 . S
C879 C878 1.386 . S
C879 C883 1.393 . S
C880 H869 0.950 . S
C880 C878 1.391 . S
C880 C881 1.400 . S
C881 C875 1.491 1_554 S
C881 C880 1.400 . S
C881 C882 1.398 . S
C882 H870 0.950 . S
C882 C881 1.398 . S
C882 C883 1.391 . S
C883 H871 0.950 . S
C883 C879 1.393 . S
C883 C882 1.391 . S
H884 C892 0.950 . S
H885 C897 0.950 . S
H886 C894 0.950 . S
H887 C896 0.950 . S
H888 C898 0.950 . S
H889 C900 0.950 . S
H890 C902 0.950 . S
H891 C903 0.950 . S
C892 H884 0.950 . S
C892 C893 1.386 . S
C892 C894 1.391 . S
C893 C892 1.386 . S
C893 C897 1.393 . S
C894 H886 0.950 . S
C894 C892 1.391 . S
C894 C895 1.400 . S
C895 C894 1.400 . S
C895 C896 1.398 . S
C895 C901 1.491 1_554 S
C896 H887 0.950 . S
C896 C895 1.398 . S
C896 C897 1.391 . S
C897 H885 0.950 . S
C897 C893 1.393 . S
C897 C896 1.391 . S
C898 H888 0.950 . S
C898 C899 1.386 . S
C898 C900 1.391 . S
C899 C898 1.386 . S
C899 C903 1.393 . S
C900 H889 0.950 . S
C900 C898 1.391 . S
C900 C901 1.400 . S
C901 C895 1.491 1_556 S
C901 C900 1.400 . S
C901 C902 1.398 . S
C902 H890 0.950 . S
C902 C901 1.398 . S
C902 C903 1.391 . S
C903 H891 0.950 . S
C903 C899 1.393 . S
C903 C902 1.391 . S
H904 C912 0.950 . S
H905 C917 0.950 . S
H906 C914 0.950 . S
H907 C916 0.950 . S
H908 C918 0.950 . S
H909 C920 0.950 . S
H910 C922 0.950 . S
H911 C923 0.950 . S
C912 H904 0.950 . S
C912 C913 1.386 . S
C912 C914 1.391 . S
C913 C912 1.386 . S
C913 C917 1.393 . S
C914 H906 0.950 . S
C914 C912 1.391 . S
C914 C915 1.400 . S
C915 C914 1.400 . S
C915 C916 1.398 . S
C915 C921 1.491 1_556 S
C916 H907 0.950 . S
C916 C915 1.398 . S
C916 C917 1.391 . S
C917 H905 0.950 . S
C917 C913 1.393 . S
C917 C916 1.391 . S
C918 H908 0.950 . S
C918 C919 1.386 . S
C918 C920 1.391 . S
C919 C918 1.386 . S
C919 C923 1.393 . S
C920 H909 0.950 . S
C920 C918 1.391 . S
C920 C921 1.400 . S
C921 C915 1.491 1_554 S
C921 C920 1.400 . S
C921 C922 1.398 . S
C922 H910 0.950 . S
C922 C921 1.398 . S
C922 C923 1.391 . S
C923 H911 0.950 . S
C923 C919 1.393 . S
C923 C922 1.391 . S
H924 C932 0.950 . S
H925 C937 0.950 . S
H926 C934 0.950 . S
H927 C936 0.950 . S
H928 C938 0.950 . S
H929 C940 0.950 . S
H930 C942 0.950 . S
H931 C943 0.950 . S
C932 H924 0.950 . S
C932 C933 1.386 . S
C932 C934 1.391 . S
C933 C932 1.386 . S
C933 C937 1.393 . S
C934 H926 0.950 . S
C934 C932 1.391 . S
C934 C935 1.400 . S
C935 C934 1.400 . S
C935 C936 1.398 . S
C935 C941 1.491 1_556 S
C936 H927 0.950 . S
C936 C935 1.398 . S
C936 C937 1.391 . S
C937 H925 0.950 . S
C937 C933 1.393 . S
C937 C936 1.391 . S
C938 H928 0.950 . S
C938 C939 1.386 . S
C938 C940 1.391 . S
C939 C938 1.386 . S
C939 C943 1.393 . S
C940 H929 0.950 . S
C940 C938 1.391 . S
C940 C941 1.400 . S
C941 C935 1.491 1_554 S
C941 C940 1.400 . S
C941 C942 1.398 . S
C942 H930 0.950 . S
C942 C941 1.398 . S
C942 C943 1.391 . S
C943 H931 0.950 . S
C943 C939 1.393 . S
C943 C942 1.391 . S
H944 C952 0.950 . S
H945 C957 0.950 . S
H946 C954 0.950 . S
H947 C956 0.950 . S
H948 C958 0.950 . S
H949 C960 0.950 . S
H950 C962 0.950 . S
H951 C963 0.950 . S
C952 H944 0.950 . S
C952 C953 1.386 . S
C952 C954 1.391 . S
C953 C952 1.386 . S
C953 C957 1.393 . S
C954 H946 0.950 . S
C954 C952 1.391 . S
C954 C955 1.400 . S
C955 C954 1.400 . S
C955 C956 1.398 . S
C955 C961 1.491 . S
C956 H947 0.950 . S
C956 C955 1.398 . S
C956 C957 1.391 . S
C957 H945 0.950 . S
C957 C953 1.393 . S
C957 C956 1.391 . S
C958 H948 0.950 . S
C958 C959 1.386 . S
C958 C960 1.391 . S
C959 C958 1.386 . S
C959 C963 1.393 . S
C960 H949 0.950 . S
C960 C958 1.391 . S
C960 C961 1.400 . S
C961 C955 1.491 . S
C961 C960 1.400 . S
C961 C962 1.398 . S
C962 H950 0.950 . S
C962 C961 1.398 . S
C962 C963 1.391 . S
C963 H951 0.950 . S
C963 C959 1.393 . S
C963 C962 1.391 . S
H964 C972 0.950 . S
H965 C977 0.950 . S
H966 C974 0.950 . S
H967 C976 0.950 . S
H968 C978 0.950 . S
H969 C980 0.950 . S
H970 C982 0.950 . S
H971 C983 0.950 . S
C972 H964 0.950 . S
C972 C973 1.386 . S
C972 C974 1.391 . S
C973 C972 1.386 . S
C973 C977 1.393 . S
C974 H966 0.950 . S
C974 C972 1.391 . S
C974 C975 1.400 . S
C975 C974 1.400 . S
C975 C976 1.398 . S
C975 C981 1.491 . S
C976 H967 0.950 . S
C976 C975 1.398 . S
C976 C977 1.391 . S
C977 H965 0.950 . S
C977 C973 1.393 . S
C977 C976 1.391 . S
C978 H968 0.950 . S
C978 C979 1.386 . S
C978 C980 1.391 . S
C979 C978 1.386 . S
C979 C983 1.393 . S
C980 H969 0.950 . S
C980 C978 1.391 . S
C980 C981 1.400 . S
C981 C975 1.491 . S
C981 C980 1.400 . S
C981 C982 1.398 . S
C982 H970 0.950 . S
C982 C981 1.398 . S
C982 C983 1.391 . S
C983 H971 0.950 . S
C983 C979 1.393 . S
C983 C982 1.391 . S
H984 C992 0.950 . S
H985 C997 0.950 . S
H986 C994 0.950 . S
H987 C996 0.950 . S
H988 C998 0.950 . S
H989 C1000 0.950 . S
H990 C1002 0.950 . S
H991 C1003 0.950 . S
C992 H984 0.950 . S
C992 C993 1.386 . S
C992 C994 1.391 . S
C993 C992 1.386 . S
C993 C997 1.393 . S
C994 H986 0.950 . S
C994 C992 1.391 . S
C994 C995 1.400 . S
C995 C994 1.400 . S
C995 C996 1.398 . S
C995 C1001 1.491 . S
C996 H987 0.950 . S
C996 C995 1.398 . S
C996 C997 1.391 . S
C997 H985 0.950 . S
C997 C993 1.393 . S
C997 C996 1.391 . S
C998 H988 0.950 . S
C998 C999 1.386 . S
C998 C1000 1.391 . S
C999 C998 1.386 . S
C999 C1003 1.393 . S
C1000 H989 0.950 . S
C1000 C998 1.391 . S
C1000 C1001 1.400 . S
C1001 C995 1.491 . S
C1001 C1000 1.400 . S
C1001 C1002 1.398 . S
C1002 H990 0.950 . S
C1002 C1001 1.398 . S
C1002 C1003 1.391 . S
C1003 H991 0.950 . S
C1003 C999 1.393 . S
C1003 C1002 1.391 . S
H1004 C1012 0.950 . S
H1005 C1017 0.950 . S
H1006 C1014 0.950 . S
H1007 C1016 0.950 . S
H1008 C1018 0.950 . S
H1009 C1020 0.950 . S
H1010 C1022 0.950 . S
H1011 C1023 0.950 . S
C1012 H1004 0.950 . S
C1012 C1013 1.386 . S
C1012 C1014 1.391 . S
C1013 C1012 1.386 . S
C1013 C1017 1.393 . S
C1014 H1006 0.950 . S
C1014 C1012 1.391 . S
C1014 C1015 1.400 . S
C1015 C1014 1.400 . S
C1015 C1016 1.398 . S
C1015 C1021 1.491 . S
C1016 H1007 0.950 . S
C1016 C1015 1.398 . S
C1016 C1017 1.391 . S
C1017 H1005 0.950 . S
C1017 C1013 1.393 . S
C1017 C1016 1.391 . S
C1018 H1008 0.950 . S
C1018 C1019 1.386 . S
C1018 C1020 1.391 . S
C1019 C1018 1.386 . S
C1019 C1023 1.393 . S
C1020 H1009 0.950 . S
C1020 C1018 1.391 . S
C1020 C1021 1.400 . S
C1021 C1015 1.491 . S
C1021 C1020 1.400 . S
C1021 C1022 1.398 . S
C1022 H1010 0.950 . S
C1022 C1021 1.398 . S
C1022 C1023 1.391 . S
C1023 H1011 0.950 . S
C1023 C1019 1.393 . S
C1023 C1022 1.391 . S
H1024 C1032 0.950 . S
H1025 C1037 0.950 . S
H1026 C1034 0.950 . S
H1027 C1036 0.950 . S
H1028 C1038 0.950 . S
H1029 C1040 0.950 . S
H1030 C1042 0.950 . S
H1031 C1043 0.950 . S
C1032 H1024 0.950 . S
C1032 C1033 1.386 . S
C1032 C1034 1.391 . S
C1033 C1032 1.386 . S
C1033 C1037 1.393 . S
C1034 H1026 0.950 . S
C1034 C1032 1.391 . S
C1034 C1035 1.400 . S
C1035 C1034 1.400 . S
C1035 C1036 1.398 . S
C1035 C1041 1.491 . S
C1036 H1027 0.950 . S
C1036 C1035 1.398 . S
C1036 C1037 1.391 . S
C1037 H1025 0.950 . S
C1037 C1033 1.393 . S
C1037 C1036 1.391 . S
C1038 H1028 0.950 . S
C1038 C1039 1.386 . S
C1038 C1040 1.391 . S
C1039 C1038 1.386 . S
C1039 C1043 1.393 . S
C1040 H1029 0.950 . S
C1040 C1038 1.391 . S
C1040 C1041 1.400 . S
C1041 C1035 1.491 . S
C1041 C1040 1.400 . S
C1041 C1042 1.398 . S
C1042 H1030 0.950 . S
C1042 C1041 1.398 . S
C1042 C1043 1.391 . S
C1043 H1031 0.950 . S
C1043 C1039 1.393 . S
C1043 C1042 1.391 . S
H1044 C1052 0.950 . S
H1045 C1057 0.950 . S
H1046 C1054 0.950 . S
H1047 C1056 0.950 . S
H1048 C1058 0.950 . S
H1049 C1060 0.950 . S
H1050 C1062 0.950 . S
H1051 C1063 0.950 . S
C1052 H1044 0.950 . S
C1052 C1053 1.386 . S
C1052 C1054 1.391 . S
C1053 C1052 1.386 . S
C1053 C1057 1.393 . S
C1054 H1046 0.950 . S
C1054 C1052 1.391 . S
C1054 C1055 1.400 . S
C1055 C1054 1.400 . S
C1055 C1056 1.398 . S
C1055 C1061 1.491 . S
C1056 H1047 0.950 . S
C1056 C1055 1.398 . S
C1056 C1057 1.391 . S
C1057 H1045 0.950 . S
C1057 C1053 1.393 . S
C1057 C1056 1.391 . S
C1058 H1048 0.950 . S
C1058 C1059 1.386 . S
C1058 C1060 1.391 . S
C1059 C1058 1.386 . S
C1059 C1063 1.393 . S
C1060 H1049 0.950 . S
C1060 C1058 1.391 . S
C1060 C1061 1.400 . S
C1061 C1055 1.491 . S
C1061 C1060 1.400 . S
C1061 C1062 1.398 . S
C1062 H1050 0.950 . S
C1062 C1061 1.398 . S
C1062 C1063 1.391 . S
C1063 H1051 0.950 . S
C1063 C1059 1.393 . S
C1063 C1062 1.391 . S
H1064 C1072 0.950 . S
H1065 C1077 0.950 . S
H1066 C1074 0.950 . S
H1067 C1076 0.950 . S
H1068 C1078 0.950 . S
H1069 C1080 0.950 . S
H1070 C1082 0.950 . S
H1071 C1083 0.950 . S
C1072 H1064 0.950 . S
C1072 C1073 1.386 . S
C1072 C1074 1.391 . S
C1073 C1072 1.386 . S
C1073 C1077 1.393 . S
C1074 H1066 0.950 . S
C1074 C1072 1.391 . S
C1074 C1075 1.400 . S
C1075 C1074 1.400 . S
C1075 C1076 1.398 . S
C1075 C1081 1.491 . S
C1076 H1067 0.950 . S
C1076 C1075 1.398 . S
C1076 C1077 1.391 . S
C1077 H1065 0.950 . S
C1077 C1073 1.393 . S
C1077 C1076 1.391 . S
C1078 H1068 0.950 . S
C1078 C1079 1.386 . S
C1078 C1080 1.391 . S
C1079 C1078 1.386 . S
C1079 C1083 1.393 . S
C1080 H1069 0.950 . S
C1080 C1078 1.391 . S
C1080 C1081 1.400 . S
C1081 C1075 1.491 . S
C1081 C1080 1.400 . S
C1081 C1082 1.398 . S
C1082 H1070 0.950 . S
C1082 C1081 1.398 . S
C1082 C1083 1.391 . S
C1083 H1071 0.950 . S
C1083 C1079 1.393 . S
C1083 C1082 1.391 . S
H1084 C1092 0.950 . S
H1085 C1097 0.950 . S
H1086 C1094 0.950 . S
H1087 C1096 0.950 . S
H1088 C1098 0.950 . S
H1089 C1100 0.950 . S
H1090 C1102 0.950 . S
H1091 C1103 0.950 . S
C1092 H1084 0.950 . S
C1092 C1093 1.386 . S
C1092 C1094 1.391 . S
C1093 C1092 1.386 . S
C1093 C1097 1.393 . S
C1094 H1086 0.950 . S
C1094 C1092 1.391 . S
C1094 C1095 1.400 . S
C1095 C1094 1.400 . S
C1095 C1096 1.398 . S
C1095 C1101 1.491 . S
C1096 H1087 0.950 . S
C1096 C1095 1.398 . S
C1096 C1097 1.391 . S
C1097 H1085 0.950 . S
C1097 C1093 1.393 . S
C1097 C1096 1.391 . S
C1098 H1088 0.950 . S
C1098 C1099 1.386 . S
C1098 C1100 1.391 . S
C1099 C1098 1.386 . S
C1099 C1103 1.393 . S
C1100 H1089 0.950 . S
C1100 C1098 1.391 . S
C1100 C1101 1.400 . S
C1101 C1095 1.491 . S
C1101 C1100 1.400 . S
C1101 C1102 1.398 . S
C1102 H1090 0.950 . S
C1102 C1101 1.398 . S
C1102 C1103 1.391 . S
C1103 H1091 0.950 . S
C1103 C1099 1.393 . S
C1103 C1102 1.391 . S
H1104 C1112 0.950 . S
H1105 C1117 0.950 . S
H1106 C1114 0.950 . S
H1107 C1116 0.950 . S
H1108 C1118 0.950 . S
H1109 C1120 0.950 . S
H1110 C1122 0.950 . S
H1111 C1123 0.950 . S
C1112 H1104 0.950 . S
C1112 C1113 1.386 . S
C1112 C1114 1.391 . S
C1113 C1112 1.386 . S
C1113 C1117 1.393 . S
C1114 H1106 0.950 . S
C1114 C1112 1.391 . S
C1114 C1115 1.400 . S
C1115 C1114 1.400 . S
C1115 C1116 1.398 . S
C1115 C1121 1.491 . S
C1116 H1107 0.950 . S
C1116 C1115 1.398 . S
C1116 C1117 1.391 . S
C1117 H1105 0.950 . S
C1117 C1113 1.393 . S
C1117 C1116 1.391 . S
C1118 H1108 0.950 . S
C1118 C1119 1.386 . S
C1118 C1120 1.391 . S
C1119 C1118 1.386 . S
C1119 C1123 1.393 . S
C1120 H1109 0.950 . S
C1120 C1118 1.391 . S
C1120 C1121 1.400 . S
C1121 C1115 1.491 . S
C1121 C1120 1.400 . S
C1121 C1122 1.398 . S
C1122 H1110 0.950 . S
C1122 C1121 1.398 . S
C1122 C1123 1.391 . S
C1123 H1111 0.950 . S
C1123 C1119 1.393 . S
C1123 C1122 1.391 . S
H1124 C1132 0.950 . S
H1125 C1137 0.950 . S
H1126 C1134 0.950 . S
H1127 C1136 0.950 . S
H1128 C1138 0.950 . S
H1129 C1140 0.950 . S
H1130 C1142 0.950 . S
H1131 C1143 0.950 . S
C1132 H1124 0.950 . S
C1132 C1133 1.386 . S
C1132 C1134 1.391 . S
C1133 C1132 1.386 . S
C1133 C1137 1.393 . S
C1134 H1126 0.950 . S
C1134 C1132 1.391 . S
C1134 C1135 1.400 . S
C1135 C1134 1.400 . S
C1135 C1136 1.398 . S
C1135 C1141 1.491 . S
C1136 H1127 0.950 . S
C1136 C1135 1.398 . S
C1136 C1137 1.391 . S
C1137 H1125 0.950 . S
C1137 C1133 1.393 . S
C1137 C1136 1.391 . S
C1138 H1128 0.950 . S
C1138 C1139 1.386 . S
C1138 C1140 1.391 . S
C1139 C1138 1.386 . S
C1139 C1143 1.393 . S
C1140 H1129 0.950 . S
C1140 C1138 1.391 . S
C1140 C1141 1.400 . S
C1141 C1135 1.491 . S
C1141 C1140 1.400 . S
C1141 C1142 1.398 . S
C1142 H1130 0.950 . S
C1142 C1141 1.398 . S
C1142 C1143 1.391 . S
C1143 H1131 0.950 . S
C1143 C1139 1.393 . S
C1143 C1142 1.391 . S
H1144 C1152 0.950 . S
H1145 C1157 0.950 . S
H1146 C1154 0.950 . S
H1147 C1156 0.950 . S
H1148 C1158 0.950 . S
H1149 C1160 0.950 . S
H1150 C1162 0.950 . S
H1151 C1163 0.950 . S
C1152 H1144 0.950 . S
C1152 C1153 1.386 . S
C1152 C1154 1.391 . S
C1153 C1152 1.386 . S
C1153 C1157 1.393 . S
C1154 H1146 0.950 . S
C1154 C1152 1.391 . S
C1154 C1155 1.400 . S
C1155 C1154 1.400 . S
C1155 C1156 1.398 . S
C1155 C1161 1.491 . S
C1156 H1147 0.950 . S
C1156 C1155 1.398 . S
C1156 C1157 1.391 . S
C1157 H1145 0.950 . S
C1157 C1153 1.393 . S
C1157 C1156 1.391 . S
C1158 H1148 0.950 . S
C1158 C1159 1.386 . S
C1158 C1160 1.391 . S
C1159 C1158 1.386 . S
C1159 C1163 1.393 . S
C1160 H1149 0.950 . S
C1160 C1158 1.391 . S
C1160 C1161 1.400 . S
C1161 C1155 1.491 . S
C1161 C1160 1.400 . S
C1161 C1162 1.398 . S
C1162 H1150 0.950 . S
C1162 C1161 1.398 . S
C1162 C1163 1.391 . S
C1163 H1151 0.950 . S
C1163 C1159 1.393 . S
C1163 C1162 1.391 . S
H1164 C1172 0.950 . S
H1165 C1177 0.950 . S
H1166 C1174 0.950 . S
H1167 C1176 0.950 . S
H1168 C1178 0.950 . S
H1169 C1180 0.950 . S
H1170 C1182 0.950 . S
H1171 C1183 0.950 . S
C1172 H1164 0.950 . S
C1172 C1173 1.386 . S
C1172 C1174 1.391 . S
C1173 C1172 1.386 . S
C1173 C1177 1.393 . S
C1174 H1166 0.950 . S
C1174 C1172 1.391 . S
C1174 C1175 1.400 . S
C1175 C1174 1.400 . S
C1175 C1176 1.398 . S
C1175 C1181 1.491 . S
C1176 H1167 0.950 . S
C1176 C1175 1.398 . S
C1176 C1177 1.391 . S
C1177 H1165 0.950 . S
C1177 C1173 1.393 . S
C1177 C1176 1.391 . S
C1178 H1168 0.950 . S
C1178 C1179 1.386 . S
C1178 C1180 1.391 . S
C1179 C1178 1.386 . S
C1179 C1183 1.393 . S
C1180 H1169 0.950 . S
C1180 C1178 1.391 . S
C1180 C1181 1.400 . S
C1181 C1175 1.491 . S
C1181 C1180 1.400 . S
C1181 C1182 1.398 . S
C1182 H1170 0.950 . S
C1182 C1181 1.398 . S
C1182 C1183 1.391 . S
C1183 H1171 0.950 . S
C1183 C1179 1.393 . S
C1183 C1182 1.391 . S
H1184 C1192 0.950 . S
H1185 C1197 0.950 . S
H1186 C1194 0.950 . S
H1187 C1196 0.950 . S
H1188 C1198 0.950 . S
H1189 C1200 0.950 . S
H1190 C1202 0.950 . S
H1191 C1203 0.950 . S
C1192 H1184 0.950 . S
C1192 C1193 1.386 . S
C1192 C1194 1.391 1_455 S
C1193 C1192 1.386 . S
C1193 C1197 1.393 . S
C1194 H1186 0.950 . S
C1194 C1192 1.391 1_655 S
C1194 C1195 1.400 . S
C1195 C1194 1.400 . S
C1195 C1196 1.398 . S
C1195 C1201 1.491 . S
C1196 H1187 0.950 . S
C1196 C1195 1.398 . S
C1196 C1197 1.391 1_655 S
C1197 H1185 0.950 . S
C1197 C1193 1.393 . S
C1197 C1196 1.391 1_455 S
C1198 H1188 0.950 . S
C1198 C1199 1.386 . S
C1198 C1200 1.391 . S
C1199 C1198 1.386 . S
C1199 C1203 1.393 . S
C1200 H1189 0.950 . S
C1200 C1198 1.391 . S
C1200 C1201 1.400 . S
C1201 C1195 1.491 . S
C1201 C1200 1.400 . S
C1201 C1202 1.398 . S
C1202 H1190 0.950 . S
C1202 C1201 1.398 . S
C1202 C1203 1.391 . S
C1203 H1191 0.950 . S
C1203 C1199 1.393 . S
C1203 C1202 1.391 . S
H1204 C1212 0.950 . S
H1205 C1217 0.950 . S
H1206 C1214 0.950 . S
H1207 C1216 0.950 . S
H1208 C1218 0.950 . S
H1209 C1220 0.950 . S
H1210 C1222 0.950 . S
H1211 C1223 0.950 . S
C1212 H1204 0.950 . S
C1212 C1213 1.386 . S
C1212 C1214 1.391 1_565 S
C1213 C1212 1.386 . S
C1213 C1217 1.393 . S
C1214 H1206 0.950 . S
C1214 C1212 1.391 1_545 S
C1214 C1215 1.400 . S
C1215 C1214 1.400 . S
C1215 C1216 1.398 . S
C1215 C1221 1.491 . S
C1216 H1207 0.950 . S
C1216 C1215 1.398 . S
C1216 C1217 1.391 1_545 S
C1217 H1205 0.950 . S
C1217 C1213 1.393 . S
C1217 C1216 1.391 1_565 S
C1218 H1208 0.950 . S
C1218 C1219 1.386 . S
C1218 C1220 1.391 . S
C1219 C1218 1.386 . S
C1219 C1223 1.393 . S
C1220 H1209 0.950 . S
C1220 C1218 1.391 . S
C1220 C1221 1.400 . S
C1221 C1215 1.491 . S
C1221 C1220 1.400 . S
C1221 C1222 1.398 . S
C1222 H1210 0.950 . S
C1222 C1221 1.398 . S
C1222 C1223 1.391 . S
C1223 H1211 0.950 . S
C1223 C1219 1.393 . S
C1223 C1222 1.391 . S
H1224 C1232 0.950 . S
H1225 C1237 0.950 . S
H1226 C1234 0.950 . S
H1227 C1236 0.950 . S
H1228 C1238 0.950 . S
H1229 C1240 0.950 . S
H1230 C1242 0.950 . S
H1231 C1243 0.950 . S
C1232 H1224 0.950 . S
C1232 C1233 1.386 . S
C1232 C1234 1.391 . S
C1233 C1232 1.386 . S
C1233 C1237 1.393 . S
C1234 H1226 0.950 . S
C1234 C1232 1.391 . S
C1234 C1235 1.400 . S
C1235 C1234 1.400 . S
C1235 C1236 1.398 . S
C1235 C1241 1.491 . S
C1236 H1227 0.950 . S
C1236 C1235 1.398 . S
C1236 C1237 1.391 . S
C1237 H1225 0.950 . S
C1237 C1233 1.393 . S
C1237 C1236 1.391 . S
C1238 H1228 0.950 . S
C1238 C1239 1.386 . S
C1238 C1240 1.391 1_655 S
C1239 C1238 1.386 . S
C1239 C1243 1.393 . S
C1240 H1229 0.950 . S
C1240 C1238 1.391 1_455 S
C1240 C1241 1.400 . S
C1241 C1235 1.491 . S
C1241 C1240 1.400 . S
C1241 C1242 1.398 . S
C1242 H1230 0.950 . S
C1242 C1241 1.398 . S
C1242 C1243 1.391 1_455 S
C1243 H1231 0.950 . S
C1243 C1239 1.393 . S
C1243 C1242 1.391 1_655 S
H1244 C1252 0.950 . S
H1245 C1257 0.950 . S
H1246 C1254 0.950 . S
H1247 C1256 0.950 . S
H1248 C1258 0.950 . S
H1249 C1260 0.950 . S
H1250 C1262 0.950 . S
H1251 C1263 0.950 . S
C1252 H1244 0.950 . S
C1252 C1253 1.386 . S
C1252 C1254 1.391 1_545 S
C1253 C1252 1.386 . S
C1253 C1257 1.393 . S
C1254 H1246 0.950 . S
C1254 C1252 1.391 1_565 S
C1254 C1255 1.400 . S
C1255 C1254 1.400 . S
C1255 C1256 1.398 . S
C1255 C1261 1.491 . S
C1256 H1247 0.950 . S
C1256 C1255 1.398 . S
C1256 C1257 1.391 1_565 S
C1257 H1245 0.950 . S
C1257 C1253 1.393 . S
C1257 C1256 1.391 1_545 S
C1258 H1248 0.950 . S
C1258 C1259 1.386 . S
C1258 C1260 1.391 . S
C1259 C1258 1.386 . S
C1259 C1263 1.393 . S
C1260 H1249 0.950 . S
C1260 C1258 1.391 . S
C1260 C1261 1.400 . S
C1261 C1255 1.491 . S
C1261 C1260 1.400 . S
C1261 C1262 1.398 . S
C1262 H1250 0.950 . S
C1262 C1261 1.398 . S
C1262 C1263 1.391 . S
C1263 H1251 0.950 . S
C1263 C1259 1.393 . S
C1263 C1262 1.391 . S
H1264 C1272 0.950 . S
H1265 C1277 0.950 . S
H1266 C1274 0.950 . S
H1267 C1276 0.950 . S
H1268 C1278 0.950 . S
H1269 C1280 0.950 . S
H1270 C1282 0.950 . S
H1271 C1283 0.950 . S
C1272 H1264 0.950 . S
C1272 C1273 1.386 . S
C1272 C1274 1.391 1_655 S
C1273 C1272 1.386 . S
C1273 C1277 1.393 . S
C1274 H1266 0.950 . S
C1274 C1272 1.391 1_455 S
C1274 C1275 1.400 . S
C1275 C1274 1.400 . S
C1275 C1276 1.398 . S
C1275 C1281 1.491 . S
C1276 H1267 0.950 . S
C1276 C1275 1.398 . S
C1276 C1277 1.391 1_455 S
C1277 H1265 0.950 . S
C1277 C1273 1.393 . S
C1277 C1276 1.391 1_655 S
C1278 H1268 0.950 . S
C1278 C1279 1.386 . S
C1278 C1280 1.391 . S
C1279 C1278 1.386 . S
C1279 C1283 1.393 . S
C1280 H1269 0.950 . S
C1280 C1278 1.391 . S
C1280 C1281 1.400 . S
C1281 C1275 1.491 . S
C1281 C1280 1.400 . S
C1281 C1282 1.398 . S
C1282 H1270 0.950 . S
C1282 C1281 1.398 . S
C1282 C1283 1.391 . S
C1283 H1271 0.950 . S
C1283 C1279 1.393 . S
C1283 C1282 1.391 . S
H1284 C1292 0.950 . S
H1285 C1297 0.950 . S
H1286 C1294 0.950 . S
H1287 C1296 0.950 . S
H1288 C1298 0.950 . S
H1289 C1300 0.950 . S
H1290 C1302 0.950 . S
H1291 C1303 0.950 . S
C1292 H1284 0.950 . S
C1292 C1293 1.386 . S
C1292 C1294 1.391 . S
C1293 C1292 1.386 . S
C1293 C1297 1.393 . S
C1294 H1286 0.950 . S
C1294 C1292 1.391 . S
C1294 C1295 1.400 . S
C1295 C1294 1.400 . S
C1295 C1296 1.398 . S
C1295 C1301 1.491 . S
C1296 H1287 0.950 . S
C1296 C1295 1.398 . S
C1296 C1297 1.391 . S
C1297 H1285 0.950 . S
C1297 C1293 1.393 . S
C1297 C1296 1.391 . S
C1298 H1288 0.950 . S
C1298 C1299 1.386 . S
C1298 C1300 1.391 1_545 S
C1299 C1298 1.386 . S
C1299 C1303 1.393 . S
C1300 H1289 0.950 . S
C1300 C1298 1.391 1_565 S
C1300 C1301 1.400 . S
C1301 C1295 1.491 . S
C1301 C1300 1.400 . S
C1301 C1302 1.398 . S
C1302 H1290 0.950 . S
C1302 C1301 1.398 . S
C1302 C1303 1.391 1_565 S
C1303 H1291 0.950 . S
C1303 C1299 1.393 . S
C1303 C1302 1.391 1_545 S
H1304 C1312 0.950 . S
H1305 C1317 0.950 . S
H1306 C1314 0.950 . S
H1307 C1316 0.950 . S
H1308 C1318 0.950 . S
H1309 C1320 0.950 . S
H1310 C1322 0.950 . S
H1311 C1323 0.950 . S
C1312 H1304 0.950 . S
C1312 C1313 1.386 . S
C1312 C1314 1.391 . S
C1313 C1312 1.386 . S
C1313 C1317 1.393 . S
C1314 H1306 0.950 . S
C1314 C1312 1.391 . S
C1314 C1315 1.400 . S
C1315 C1314 1.400 . S
C1315 C1316 1.398 . S
C1315 C1321 1.491 . S
C1316 H1307 0.950 . S
C1316 C1315 1.398 . S
C1316 C1317 1.391 . S
C1317 H1305 0.950 . S
C1317 C1313 1.393 . S
C1317 C1316 1.391 . S
C1318 H1308 0.950 . S
C1318 C1319 1.386 . S
C1318 C1320 1.391 1_455 S
C1319 C1318 1.386 . S
C1319 C1323 1.393 . S
C1320 H1309 0.950 . S
C1320 C1318 1.391 1_655 S
C1320 C1321 1.400 . S
C1321 C1315 1.491 . S
C1321 C1320 1.400 . S
C1321 C1322 1.398 . S
C1322 H1310 0.950 . S
C1322 C1321 1.398 . S
C1322 C1323 1.391 1_655 S
C1323 H1311 0.950 . S
C1323 C1319 1.393 . S
C1323 C1322 1.391 1_455 S
H1324 C1332 0.950 . S
H1325 C1337 0.950 . S
H1326 C1334 0.950 . S
H1327 C1336 0.950 . S
H1328 C1338 0.950 . S
H1329 C1340 0.950 . S
H1330 C1342 0.950 . S
H1331 C1343 0.950 . S
C1332 H1324 0.950 . S
C1332 C1333 1.386 . S
C1332 C1334 1.391 1_565 S
C1333 C1332 1.386 . S
C1333 C1337 1.393 . S
C1334 H1326 0.950 . S
C1334 C1332 1.391 1_545 S
C1334 C1335 1.400 . S
C1335 C1334 1.400 . S
C1335 C1336 1.398 . S
C1335 C1341 1.491 . S
C1336 H1327 0.950 . S
C1336 C1335 1.398 . S
C1336 C1337 1.391 1_545 S
C1337 H1325 0.950 . S
C1337 C1333 1.393 . S
C1337 C1336 1.391 1_565 S
C1338 H1328 0.950 . S
C1338 C1339 1.386 . S
C1338 C1340 1.391 . S
C1339 C1338 1.386 . S
C1339 C1343 1.393 . S
C1340 H1329 0.950 . S
C1340 C1338 1.391 . S
C1340 C1341 1.400 . S
C1341 C1335 1.491 . S
C1341 C1340 1.400 . S
C1341 C1342 1.398 . S
C1342 H1330 0.950 . S
C1342 C1341 1.398 . S
C1342 C1343 1.391 . S
C1343 H1331 0.950 . S
C1343 C1339 1.393 . S
C1343 C1342 1.391 . S
C553 C5 1.684 . S
C559 C175 1.675 . S
C573 C209 1.684 . S
C579 C39 1.676 . S
C593 C243 1.673 . S
C599 C73 1.681 . S
C613 C141 1.674 . S
C619 C107 1.683 . S
C633 C277 1.679 . S
C639 C447 1.673 . S
C653 C311 1.682 . S
C659 C481 1.682 . S
C673 C515 1.678 . S
C679 C345 1.673 . S
C693 C379 1.684 . S
C699 C413 1.675 . S
C713 C33 1.177 . S
C719 C101 1.176 . S
C733 C135 1.173 . S
C739 C67 1.174 . S
C753 C169 1.201 . S
C759 C237 1.201 . S
C773 C203 1.182 . S
C779 C271 1.181 . S
C793 C373 1.177 . S
C799 C305 1.178 . S
C813 C407 1.176 . S
C819 C339 1.178 . S
C833 C509 1.183 . S
C839 C441 1.182 . S
C853 C543 1.173 . S
C859 C475 1.172 . S
C873 C519 1.557 . S
C879 C9 1.538 . S
C893 C417 1.560 . S
C899 C43 1.551 . S
C913 C451 1.559 . S
C919 C77 1.538 . S
C933 C111 1.557 . S
C939 C485 1.538 . S
C953 C145 1.556 . S
C959 C315 1.554 . S
C973 C179 1.538 . S
C979 C349 1.563 . S
C993 C213 1.541 . S
C999 C383 1.552 . S
C1013 C247 1.555 . S
C1019 C281 1.556 . S
C1033 C478 0.944 . S
C1039 C20 0.975 . S
C1053 C54 0.975 . S
C1059 C512 0.950 . S
C1073 C410 0.960 . S
C1079 C88 0.976 . S
C1093 C444 0.945 . S
C1099 C122 0.975 . S
C1113 C342 0.943 . S
C1119 C156 0.975 . S
C1133 C190 0.975 . S
C1139 C376 0.954 . S
C1153 C274 0.975 . S
C1159 C224 0.977 . S
C1173 C258 0.975 . S
C1179 C308 0.957 . S
C1193 C206 0.945 . S
C1199 C292 0.975 . S
C1213 C240 0.973 . S
C1219 C326 0.977 . S
C1233 C360 0.975 . S
C1239 C138 0.953 . S
C1253 C172 0.974 . S
C1259 C394 0.977 . S
C1273 C70 0.956 . S
C1279 C428 0.976 . S
C1293 C462 0.977 . S
C1299 C104 0.969 . S
C1313 C496 0.977 . S
C1319 C2 0.973 . S
C1333 C36 0.950 . S
C1339 C530 0.975 . S
