# Generated by pormake.
# Topology wkj, (6)-cn, num edge types: 1
# Building blocks:
#     Node 0, Type 0, BuildingBlock: BETDIP_clean_sbu_0, # of connection points: 6
#     Node 1, Type 0, BuildingBlock: BETDIP_clean_sbu_0, # of connection points: 6
#     Node 2, Type 0, BuildingBlock: BETDIP_clean_sbu_0, # of connection points: 6
#     Node 3, Type 0, BuildingBlock: BETDIP_clean_sbu_0, # of connection points: 6
#     Node 4, Type 0, BuildingBlock: BETDIP_clean_sbu_0, # of connection points: 6
#     Node 5, Type 0, BuildingBlock: BETDIP_clean_sbu_0, # of connection points: 6
#     Node 6, Type 0, BuildingBlock: BETDIP_clean_sbu_0, # of connection points: 6
#     Node 7, Type 0, BuildingBlock: BETDIP_clean_sbu_0, # of connection points: 6
#     Node 8, Type 0, BuildingBlock: BETDIP_clean_sbu_0, # of connection points: 6
#     Node 9, Type 0, BuildingBlock: BETDIP_clean_sbu_0, # of connection points: 6
#     Node 10, Type 0, BuildingBlock: BETDIP_clean_sbu_0, # of connection points: 6
#     Node 11, Type 0, BuildingBlock: BETDIP_clean_sbu_0, # of connection points: 6
#     Edge 12, Type (0, 0), BuildingBlock: AJUNOK_clean_linker_0, # of connection points: 2
#     Edge 13, Type (0, 0), BuildingBlock: AJUNOK_clean_linker_0, # of connection points: 2
#     Edge 14, Type (0, 0), BuildingBlock: AJUNOK_clean_linker_0, # of connection points: 2
#     Edge 15, Type (0, 0), BuildingBlock: AJUNOK_clean_linker_0, # of connection points: 2
#     Edge 16, Type (0, 0), BuildingBlock: AJUNOK_clean_linker_0, # of connection points: 2
#     Edge 17, Type (0, 0), BuildingBlock: AJUNOK_clean_linker_0, # of connection points: 2
#     Edge 18, Type (0, 0), BuildingBlock: AJUNOK_clean_linker_0, # of connection points: 2
#     Edge 19, Type (0, 0), BuildingBlock: AJUNOK_clean_linker_0, # of connection points: 2
#     Edge 20, Type (0, 0), BuildingBlock: AJUNOK_clean_linker_0, # of connection points: 2
#     Edge 21, Type (0, 0), BuildingBlock: AJUNOK_clean_linker_0, # of connection points: 2
#     Edge 22, Type (0, 0), BuildingBlock: AJUNOK_clean_linker_0, # of connection points: 2
#     Edge 23, Type (0, 0), BuildingBlock: AJUNOK_clean_linker_0, # of connection points: 2
#     Edge 24, Type (0, 0), BuildingBlock: AJUNOK_clean_linker_0, # of connection points: 2
#     Edge 25, Type (0, 0), BuildingBlock: AJUNOK_clean_linker_0, # of connection points: 2
#     Edge 26, Type (0, 0), BuildingBlock: AJUNOK_clean_linker_0, # of connection points: 2
#     Edge 27, Type (0, 0), BuildingBlock: AJUNOK_clean_linker_0, # of connection points: 2
#     Edge 28, Type (0, 0), BuildingBlock: AJUNOK_clean_linker_0, # of connection points: 2
#     Edge 29, Type (0, 0), BuildingBlock: AJUNOK_clean_linker_0, # of connection points: 2
#     Edge 30, Type (0, 0), BuildingBlock: AJUNOK_clean_linker_0, # of connection points: 2
#     Edge 31, Type (0, 0), BuildingBlock: AJUNOK_clean_linker_0, # of connection points: 2
#     Edge 32, Type (0, 0), BuildingBlock: AJUNOK_clean_linker_0, # of connection points: 2
#     Edge 33, Type (0, 0), BuildingBlock: AJUNOK_clean_linker_0, # of connection points: 2
#     Edge 34, Type (0, 0), BuildingBlock: AJUNOK_clean_linker_0, # of connection points: 2
#     Edge 35, Type (0, 0), BuildingBlock: AJUNOK_clean_linker_0, # of connection points: 2
#     Edge 36, Type (0, 0), BuildingBlock: AJUNOK_clean_linker_0, # of connection points: 2
#     Edge 37, Type (0, 0), BuildingBlock: AJUNOK_clean_linker_0, # of connection points: 2
#     Edge 38, Type (0, 0), BuildingBlock: AJUNOK_clean_linker_0, # of connection points: 2
#     Edge 39, Type (0, 0), BuildingBlock: AJUNOK_clean_linker_0, # of connection points: 2
#     Edge 40, Type (0, 0), BuildingBlock: AJUNOK_clean_linker_0, # of connection points: 2
#     Edge 41, Type (0, 0), BuildingBlock: AJUNOK_clean_linker_0, # of connection points: 2
#     Edge 42, Type (0, 0), BuildingBlock: AJUNOK_clean_linker_0, # of connection points: 2
#     Edge 43, Type (0, 0), BuildingBlock: AJUNOK_clean_linker_0, # of connection points: 2
#     Edge 44, Type (0, 0), BuildingBlock: AJUNOK_clean_linker_0, # of connection points: 2
#     Edge 45, Type (0, 0), BuildingBlock: AJUNOK_clean_linker_0, # of connection points: 2
#     Edge 46, Type (0, 0), BuildingBlock: AJUNOK_clean_linker_0, # of connection points: 2
#     Edge 47, Type (0, 0), BuildingBlock: AJUNOK_clean_linker_0, # of connection points: 2
# Relax obj value: 1.113
# Max RMSD: 0.176
# Mean RMSD: 0.176
data_MOF--net-wkj--node1-BETDIP_clean_sbu_0--edge1-AJUNOK_clean_linker_0
_symmetry_space_group_name_H-M    P1
_symmetry_Int_Tables_number       1
_symmetry_cell_setting            triclinic
loop_
_symmetry_equiv_pos_as_xyz
'x, y, z'
_cell_length_a     38.260519
_cell_length_b     37.98191
_cell_length_c     21.594948
_cell_angle_alpha  89.589223
_cell_angle_beta   90.564471
_cell_angle_gamma 120.86387
loop_
_atom_site_label
_atom_site_type_symbol
_atom_site_fract_x
_atom_site_fract_y
_atom_site_fract_z
_atom_type_partial_charge
Tb0 Tb 0.41167 0.06504 0.45553 0.0
Tb1 Tb 0.49226 0.09508 0.43158 0.0
C2 C 0.33959 0.04441 0.48166 0.0
C3 C 0.30598 0.0252 0.52536 0.0
C4 C 0.31299 0.02796 0.58925 0.0
C5 C 0.28015 0.01095 0.62961 0.0
C6 C 0.23985 -0.00893 0.60674 0.0
C7 C 0.23297 -0.01157 0.54266 0.0
C8 C 0.26595 0.00553 0.5022 0.0
C9 C 0.44244 0.13266 0.38323 0.0
C10 C 0.47695 0.09665 0.57893 0.0
C11 C 0.56018 0.1439 0.38648 0.0
C12 C 0.57102 0.18235 0.35436 0.0
C13 C 0.54775 0.18271 0.30378 0.0
C14 C 0.55498 0.21987 0.279 0.0
C15 C 0.58508 0.25711 0.30493 0.0
C16 C 0.60755 0.25672 0.35637 0.0
C17 C 0.6006 0.21964 0.38084 0.0
C18 C 0.46256 0.02931 0.4987 0.0
C19 C 0.42766 0.02621 0.32993 0.0
O20 O 0.34928 0.02069 0.4526 0.0
O21 O 0.3715 0.07929 0.49776 0.0
O22 O 0.45895 0.12762 0.43142 0.0
O23 O 0.41125 0.09741 0.37172 0.0
O24 O 0.43752 0.07693 0.55835 0.0
O25 O 0.50489 0.11065 0.53407 0.0
O26 O 0.55169 0.14402 0.44462 0.0
O27 O 0.534 0.10957 0.35915 0.0
O28 O 0.44447 0.0355 0.45533 0.0
O29 O 0.50123 0.05585 0.49594 0.0
O30 O 0.4663 0.05636 0.34205 0.0
O31 O 0.40037 0.02141 0.37339 0.0
H32 H 0.34371 0.04306 0.60785 0.0
H33 H 0.2863 0.01248 0.67892 0.0
H34 H 0.20228 0.97313 0.52401 0.0
H35 H 0.26023 0.00353 0.45273 0.0
H36 H 0.524 0.15441 0.28332 0.0
H37 H 0.53858 0.2196 0.23762 0.0
H38 H 0.6321 0.28519 0.37524 0.0
H39 H 0.61831 0.22005 0.42061 0.0
Tb40 Tb 0.33137 0.44711 0.79158 0.0
Tb41 Tb 0.39896 0.51862 0.76591 0.0
C42 C 0.2676 0.38362 0.82723 0.0
C43 C 0.24813 0.35935 0.88255 0.0
C44 C 0.2649 0.37397 0.94114 0.0
C45 C 0.24731 0.34946 0.9931 0.0
C46 C 0.21246 0.30993 0.98742 0.0
C47 C 0.19516 0.29586 0.92856 0.0
C48 C 0.21286 0.32056 0.87642 0.0
C49 C 0.3107 0.48688 0.71079 0.0
C50 C 0.38562 0.51411 0.91271 0.0
C51 C 0.44732 0.5943 0.74614 0.0
C52 C 0.44062 0.62418 0.71214 0.0
C53 C 0.4501 0.63038 0.64903 0.0
C54 C 0.4238 0.63423 0.60847 0.0
C55 C 0.38801 0.63104 0.63158 0.0
C56 C 0.38676 0.63882 0.69449 0.0
C57 C 0.41294 0.63478 0.73542 0.0
C58 C 0.41097 0.46037 0.80812 0.0
C59 C 0.38011 0.44979 0.66166 0.0
O60 O 0.30009 0.38376 0.80823 0.0
O61 O 0.27195 0.42008 0.82515 0.0
O62 O 0.33386 0.50265 0.75853 0.0
O63 O 0.30917 0.45284 0.70158 0.0
O64 O 0.35136 0.47854 0.89278 0.0
O65 O 0.41109 0.53511 0.86716 0.0
O66 O 0.42609 0.57943 0.79637 0.0
O67 O 0.44604 0.56508 0.71279 0.0
O68 O 0.38739 0.47006 0.82777 0.0
O69 O 0.43408 0.48708 0.76714 0.0
O70 O 0.39706 0.49019 0.67186 0.0
O71 O 0.35511 0.42584 0.70795 0.0
H72 H 0.29226 0.40376 0.94646 0.0
H73 H 0.26246 0.36071 1.03737 0.0
H74 H 0.16885 0.26537 0.92275 0.0
H75 H 0.19965 0.30899 0.83111 0.0
H76 H 0.47247 0.62423 0.6299 0.0
H77 H 0.42629 0.62945 0.55976 0.0
H78 H 0.36125 0.63993 0.71315 0.0
H79 H 0.40681 0.63313 0.78455 0.0
Tb80 Tb 0.85882 0.33643 1.13459 0.0
Tb81 Tb 0.84691 0.4009 1.09983 0.0
C82 C 0.86957 0.27996 1.17129 0.0
C83 C 0.88558 0.26431 1.21844 0.0
C84 C 0.88955 0.27645 0.28024 0.0
C85 C 0.90845 0.26355 0.32257 0.0
C86 C 0.92361 0.23848 0.30347 0.0
C87 C 0.91909 0.22609 0.24159 0.0
C88 C 0.89995 0.23878 1.19939 0.0
C89 C 0.79341 0.30847 1.05642 0.0
C90 C 0.84219 0.38933 0.25095 0.0
C91 C 0.81349 0.43692 1.05337 0.0
C92 C 0.79559 0.42836 0.99093 0.0
C93 C 0.78951 0.39306 0.96096 0.0
C94 C 0.76381 0.37767 0.90978 0.0
C95 C 0.74454 0.39803 0.88628 0.0
C96 C 0.75699 0.43757 0.90964 0.0
C97 C 0.78151 0.45213 0.96295 0.0
C98 C 0.91848 0.42287 1.14534 0.0
C99 C 0.90661 0.388 1.00809 0.0
O100 O 0.89686 0.31238 1.14122 0.0
O101 O 0.83647 0.28088 1.18315 0.0
O102 O 0.80343 0.33365 1.10137 0.0
O103 O 0.82433 0.30413 1.05112 0.0
O104 O 0.84878 0.35813 0.23403 0.0
O105 O 0.8403 0.41116 1.20273 0.0
O106 O 0.79501 0.40622 1.09219 0.0
O107 O 0.85278 0.45278 1.05512 0.0
O108 O 0.88543 0.3949 1.16224 0.0
O109 O 0.91269 0.44568 1.10673 0.0
O110 O 0.87781 0.39818 1.01088 0.0
O111 O 0.90715 0.36587 1.05692 0.0
H112 H 0.87923 0.29676 0.29523 0.0
H113 H 0.91286 0.27472 0.36971 0.0
H114 H 0.93119 0.20747 0.22572 0.0
H115 H 0.89742 0.22966 1.15134 0.0
H116 H 0.80137 0.37502 0.98082 0.0
H117 H 0.75608 0.34772 0.89368 0.0
H118 H 0.74289 0.45423 0.89238 0.0
H119 H 0.7869 0.48016 0.98454 0.0
Tb120 Tb 0.483 0.88013 0.45994 0.0
Tb121 Tb 0.4032 0.83307 0.41108 0.0
C122 C 0.55147 0.91839 0.51509 0.0
C123 C 0.57203 0.90782 0.56319 0.0
C124 C 0.54668 0.87072 0.60261 0.0
C125 C 0.56978 0.8481 0.70701 0.0
C126 C 0.61159 0.87671 0.6442 0.0
C127 C 0.6394 0.92952 0.61384 0.0
C128 C 0.61507 0.93697 0.57186 0.0
C129 C 0.46592 0.80631 0.41215 0.0
C130 C 0.40887 0.83829 0.56378 0.0
C131 C 0.34929 0.77904 0.34065 0.0
C132 C 0.33447 0.73584 0.32729 0.0
C133 C 0.27981 0.70004 0.31139 0.0
C134 C 0.25918 0.645 0.29762 0.0
C135 C 0.29774 0.62465 0.30541 0.0
C136 C 0.35694 0.66517 0.31621 0.0
C137 C 0.37181 0.71893 0.32828 0.0
C138 C 0.41006 0.89579 0.46197 0.0
C139 C 0.47253 0.915 0.32692 0.0
O140 O 0.51877 0.91704 0.53348 0.0
O141 O 0.54594 0.90097 0.46132 0.0
O142 O 0.44358 0.81352 0.44669 0.0
O143 O 0.49752 0.84157 0.40091 0.0
O144 O 0.44879 0.86297 0.55232 0.0
O145 O 0.38485 0.81852 0.51418 0.0
O146 O 0.34159 0.78751 0.39554 0.0
O147 O 0.38696 0.80418 0.32481 0.0
O148 O 0.43859 0.89518 0.43338 0.0
O149 O 0.37472 0.86372 0.45043 0.0
O150 O 0.4359 0.87942 0.3292 0.0
O151 O 0.49532 0.92376 0.37855 0.0
H152 H 0.5176 0.85421 0.57691 0.0
H153 H 0.56108 0.81884 0.72989 0.0
H154 H 0.67231 0.94754 0.61101 0.0
H155 H 0.63 0.96436 0.54341 0.0
H156 H 0.25918 0.71156 0.31127 0.0
H157 H 0.22679 0.62404 0.29204 0.0
H158 H 0.37905 0.65555 0.31896 0.0
H159 H 0.40331 0.74186 0.33194 0.0
Tb160 Tb 0.61863 0.53625 0.80475 0.0
Tb161 Tb 0.59621 0.4611 0.76169 0.0
C162 C 0.64619 0.60392 0.8553 0.0
C163 C 0.66234 0.64356 0.88506 0.0
C164 C 0.66487 0.64553 0.94948 0.0
C165 C 0.67897 0.68276 0.97905 0.0
C166 C 0.69144 0.71889 0.94461 0.0
C167 C 0.69004 0.71706 0.87967 0.0
C168 C 0.67534 0.67937 0.84994 0.0
C169 C 0.6792 0.52918 0.75189 0.0
C170 C 0.58436 0.4626 0.91314 0.0
C171 C 0.60407 0.40752 0.7078 0.0
C172 C 0.58578 0.38997 0.64806 0.0
C173 C 0.58847 0.35823 0.62094 0.0
C174 C 0.55633 0.33019 0.58337 0.0
C175 C 0.52162 0.33392 0.57573 0.0
C176 C 0.52452 0.37097 0.59219 0.0
C177 C 0.55764 0.3996 0.62505 0.0
C178 C 0.531 0.46222 0.77799 0.0
C179 C 0.58011 0.52428 0.67019 0.0
O180 O 0.6169 0.59037 0.81406 0.0
O181 O 0.65834 0.57855 0.87066 0.0
O182 O 0.6542 0.50735 0.79249 0.0
O183 O 0.66809 0.55444 0.73405 0.0
O184 O 0.59612 0.50189 0.89853 0.0
O185 O 0.58402 0.43984 0.86467 0.0
O186 O 0.63082 0.44653 0.70499 0.0
O187 O 0.57781 0.39887 0.75262 0.0
O188 O 0.56213 0.48033 0.81199 0.0
O189 O 0.53681 0.44491 0.73128 0.0
O190 O 0.58833 0.49351 0.67319 0.0
O191 O 0.58637 0.54421 0.72313 0.0
H192 H 0.6547 0.61801 0.97701 0.0
H193 H 0.6784 0.68289 1.0292 0.0
H194 H 0.69928 0.74441 0.85226 0.0
H195 H 0.67387 0.67811 0.79981 0.0
H196 H 0.61311 0.35328 0.63244 0.0
H197 H 0.55552 0.30245 0.5694 0.0
H198 H 0.49964 0.37646 0.58921 0.0
H199 H 0.557 0.42572 0.64094 0.0
Tb200 Tb 0.0475 0.6183 1.16075 0.0
Tb201 Tb 0.10416 0.60133 1.13428 0.0
C202 C 0.00358 0.64688 1.19023 0.0
C203 C -0.01374 0.65966 0.23836 0.0
C204 C -0.00495 0.65727 0.30058 0.0
C205 C -0.01122 0.68017 0.3443 0.0
C206 C -0.02573 0.70614 0.32606 0.0
C207 C -0.03724 0.70613 0.26435 0.0
C208 C -0.03105 0.68306 0.22057 0.0
C209 C 0.11548 0.67993 1.10551 0.0
C210 C 0.09004 0.59729 0.28422 0.0
C211 C 0.17329 0.61732 1.10399 0.0
C212 C 0.18062 0.60464 1.04616 0.0
C213 C 0.2188 0.62442 1.01862 0.0
C214 C 0.22431 0.60694 0.9661 0.0
C215 C 0.19188 0.56898 0.94461 0.0
C216 C 0.15248 0.55415 0.96652 0.0
C217 C 0.14696 0.57251 1.01637 0.0
C218 C 0.0437 0.53315 1.16458 0.0
C219 C 0.02787 0.57479 1.02795 0.0
O220 O -0.0113 0.60783 1.17964 0.0
O221 O 0.04318 0.66807 1.18808 0.0
O222 O 0.11196 0.65947 1.15333 0.0
O223 O 0.08007 0.65992 1.07924 0.0
O224 O 0.06138 0.60609 0.26365 0.0
O225 O 0.11264 0.59548 0.23854 0.0
O226 O 0.16049 0.64263 1.09585 0.0
O227 O 0.15028 0.5872 1.14172 0.0
O228 O 0.05151 0.56689 1.18724 0.0
O229 O 0.06681 0.53718 1.1181 0.0
O230 O 0.06755 0.58525 1.03779 0.0
O231 O 0.01136 0.5809 1.07763 0.0
H232 H 0.00882 0.63964 0.31469 0.0
H233 H -0.0037 0.67842 0.39229 0.0
H234 H 0.95072 0.7252 0.24968 0.0
H235 H -0.03741 0.6855 1.17221 0.0
H236 H 0.24445 0.65101 1.03989 0.0
H237 H 0.25498 0.61898 0.94932 0.0
H238 H 0.12663 0.52512 0.95286 0.0
H239 H 0.11681 0.5586 1.03541 0.0
Tb240 Tb 0.89325 0.52586 0.6391 0.0
Tb241 Tb 0.83921 0.44617 0.68159 0.0
C242 C 0.93851 0.59498 0.59164 0.0
C243 C 0.93316 0.63017 0.58018 0.0
C244 C 0.9033 0.62684 0.53863 0.0
C245 C 0.90352 0.66179 0.51865 0.0
C246 C 0.93427 0.70114 0.53887 0.0
C247 C -0.04136 0.70308 0.58963 0.0
C248 C -0.04104 0.66799 0.60887 0.0
C249 C 0.82471 0.51767 0.69053 0.0
C250 C 0.84827 0.45379 0.52816 0.0
C251 C 0.77802 0.38697 0.73351 0.0
C252 C 0.74266 0.37863 0.77082 0.0
C253 C 0.71031 0.32583 0.79979 0.0
C254 C 0.65842 0.30657 0.82729 0.0
C255 C 0.63665 0.34407 0.82103 0.0
C256 C 0.67379 0.40185 0.79558 0.0
C257 C 0.7251 0.41588 0.76954 0.0
C258 C 0.89936 0.44938 0.62557 0.0
C259 C 0.91794 0.51076 0.7768 0.0
O260 O 0.91552 0.56193 0.55924 0.0
O261 O 0.94128 0.5867 0.64947 0.0
O262 O 0.82747 0.49355 0.65388 0.0
O263 O 0.86122 0.54757 0.69881 0.0
O264 O 0.87502 0.49331 0.5432 0.0
O265 O 0.82737 0.42926 0.57661 0.0
O266 O 0.77795 0.40069 0.67819 0.0
O267 O 0.81433 0.40597 0.75866 0.0
O268 O 0.90161 0.4769 0.66035 0.0
O269 O 0.86494 0.41542 0.63249 0.0
O270 O 0.87894 0.4781 0.77182 0.0
O271 O 0.93255 0.53131 0.72348 0.0
H272 H 0.88148 0.59768 0.51794 0.0
H273 H 0.88241 0.65767 0.4818 0.0
H274 H -0.01961 0.73216 0.61035 0.0
H275 H -0.01907 0.67089 0.64356 0.0
H276 H 0.72126 0.3047 0.79675 0.0
H277 H 0.63871 0.27444 0.83841 0.0
H278 H 0.66359 0.42354 0.79229 0.0
H279 H 0.74468 0.44587 0.75052 0.0
Tb280 Tb 0.33124 0.8878 0.95245 0.0
Tb281 Tb 0.36208 0.84161 0.98682 0.0
C282 C 0.30053 0.92748 0.90841 0.0
C283 C 0.26097 0.91624 0.88058 0.0
C284 C 0.24768 0.89267 0.82652 0.0
C285 C 0.2157 0.89024 0.79211 0.0
C286 C 0.19595 0.91111 0.8112 0.0
C287 C 0.20503 0.92878 0.87072 0.0
C288 C 0.23795 0.93212 0.90458 0.0
C289 C 0.27476 0.81808 1.01174 0.0
C290 C 0.35106 0.84229 0.83703 0.0
C291 C 0.37195 0.78949 1.04263 0.0
C292 C 0.36121 0.7706 1.10388 0.0
C293 C 0.32164 0.75427 1.12678 0.0
C294 C 0.30976 0.72982 1.17955 0.0
C295 C 0.33764 0.72252 1.21142 0.0
C296 C 0.37821 0.74181 1.19085 0.0
C297 C 0.38988 0.76577 1.13747 0.0
C298 C 0.41425 0.90087 0.91912 0.0
C299 C 0.37594 0.91664 1.08374 0.0
O300 O 0.32319 0.91762 0.87724 0.0
O301 O 0.30071 0.92002 0.96715 0.0
O302 O 0.29874 0.82123 0.96908 0.0
O303 O 0.28394 0.85484 1.02364 0.0
O304 O 0.33893 0.86854 0.85384 0.0
O305 O 0.35794 0.82349 0.88454 0.0
O306 O 0.34145 0.78004 1.00489 0.0
O307 O 0.39949 0.82842 1.04139 0.0
O308 O 0.3929 0.90466 0.96029 0.0
O309 O 0.41214 0.86592 0.92308 0.0
O310 O 0.36986 0.87832 1.0784 0.0
O311 O 0.36852 0.93046 1.03118 0.0
H312 H 0.26406 0.87891 0.80777 0.0
H313 H 0.21043 0.87616 0.74702 0.0
H314 H 0.18972 0.94401 0.88804 0.0
H315 H 0.24707 0.94947 0.94731 0.0
H316 H 0.29906 0.75798 1.10168 0.0
H317 H 0.27792 0.71387 1.192 0.0
H318 H 0.39988 0.7352 1.21241 0.0
H319 H 0.42056 0.77831 1.12026 0.0
Tb320 Tb 0.44594 0.35782 0.29132 0.0
Tb321 Tb 0.49023 0.3782 0.33128 0.0
C322 C 0.3918 0.34233 1.21004 0.0
C323 C 0.3493 0.31011 1.19935 0.0
C324 C 0.33823 0.29319 1.14021 0.0
C325 C 0.29738 0.26914 1.12401 0.0
C326 C 0.26665 0.2619 1.16666 0.0
C327 C 0.27798 0.274 0.22858 0.0
C328 C 0.31918 0.2984 0.24478 0.0
C329 C 0.44211 0.2859 0.31598 0.0
C330 C 0.50442 0.39985 1.17599 0.0
C331 C 0.50871 0.35541 0.43126 0.0
C332 C 0.48222 0.31942 0.47286 0.0
C333 C 0.48931 0.27492 0.4775 0.0
C334 C 0.4609 0.23233 0.53239 0.0
C335 C 0.4203 0.2346 0.5863 0.0
C336 C 0.41586 0.28464 0.58363 0.0
C337 C 0.4464 0.32411 0.52524 0.0
C338 C 0.51978 0.44897 0.28898 0.0
C339 C 0.43072 0.38973 0.41851 0.0
O340 O 0.41853 0.33143 1.20559 0.0
O341 O 0.39939 0.36647 0.25676 0.0
O342 O 0.47106 0.31819 0.29443 0.0
O343 O 0.41452 0.29447 0.33047 0.0
O344 O 0.50164 0.37792 0.22623 0.0
O345 O 0.50412 0.37658 0.22524 0.0
O346 O 0.52019 0.35033 0.37688 0.0
O347 O 0.49793 0.38238 0.42794 0.0
O348 O 0.48179 0.42475 0.29851 0.0
O349 O 0.5436 0.43489 0.30588 0.0
O350 O 0.46826 0.40979 0.39854 0.0
O351 O 0.41167 0.35719 0.38182 0.0
H352 H 0.36112 0.30113 1.10499 0.0
H353 H 0.29036 0.26032 1.07587 0.0
H354 H 0.25516 0.26768 0.26314 0.0
H355 H 0.32724 0.31009 0.29157 0.0
H356 H 0.51324 0.27536 0.45098 0.0
H357 H 0.46358 0.20534 0.53088 0.0
H358 H 0.39287 0.28645 0.60981 0.0
H359 H 0.44332 0.35072 0.5217 0.0
Tb360 Tb 0.07016 0.44731 0.64766 0.0
Tb361 Tb 0.10956 0.52812 0.70228 0.0
C362 C 0.03506 0.38128 0.58878 0.0
C363 C 0.04507 0.35365 0.55654 0.0
C364 C 0.0564 0.36058 0.49419 0.0
C365 C 0.05161 0.32835 0.45775 0.0
C366 C 0.03468 0.28859 0.48302 0.0
C367 C 0.03186 0.28417 0.54773 0.0
C368 C 0.03597 0.31631 0.58424 0.0
C369 C 0.14851 0.47288 0.67769 0.0
C370 C 0.09769 0.5291 0.55192 0.0
C371 C 0.16199 0.57026 0.78357 0.0
C372 C 0.17907 0.55286 0.82889 0.0
C373 C 0.2352 0.57772 0.83591 0.0
C374 C 0.25996 0.55148 0.87183 0.0
C375 C 0.22395 0.49381 0.90019 0.0
C376 C 0.16356 0.46984 0.89811 0.0
C377 C 0.14437 0.50053 0.86047 0.0
C378 C 0.04004 0.50602 0.65831 0.0
C379 C 0.0352 0.45115 0.78808 0.0
O380 O 0.04639 0.41695 0.56334 0.0
O381 O 0.03913 0.38318 0.64898 0.0
O382 O 0.13407 0.49408 0.65604 0.0
O383 O 0.11761 0.43665 0.68516 0.0
O384 O 0.0791 0.48777 0.56072 0.0
O385 O 0.11498 0.55328 0.60278 0.0
O386 O 0.17105 0.56942 0.72566 0.0
O387 O 0.12348 0.55818 0.78893 0.0
O388 O 0.05103 0.48389 0.68491 0.0
O389 O 0.0678 0.54544 0.66336 0.0
O390 O 0.06547 0.4909 0.78347 0.0
O391 O 0.03093 0.42829 0.73765 0.0
H392 H 0.06467 0.38943 0.47184 0.0
H393 H 0.05542 0.33362 0.40828 0.0
H394 H 0.02097 0.25445 0.56903 0.0
H395 H 0.02813 0.31052 0.63281 0.0
H396 H 0.25406 0.60823 0.81721 0.0
H397 H 0.29271 0.56543 0.87102 0.0
H398 H 0.14282 0.43838 0.91171 0.0
H399 H 0.11201 0.48647 0.8546 0.0
Tb400 Tb 0.58281 0.07551 0.96769 0.0
Tb401 Tb 0.54111 0.11571 1.00875 0.0
C402 C 0.61574 0.0421 0.91166 0.0
C403 C 0.6066 0.01061 0.86413 0.0
C404 C 0.59643 0.97083 0.88203 0.0
C405 C 0.59524 0.9433 0.8383 0.0
C406 C 0.60393 0.95499 0.77601 0.0
C407 C 0.61164 -0.0063 0.75722 0.0
C408 C 0.61326 0.02145 0.801 0.0
C409 C 0.63426 0.15 1.0184 0.0
C410 C 0.53851 0.10357 0.85798 0.0
C411 C 0.53614 0.16797 1.07346 0.0
C412 C 0.56077 0.21279 1.08562 0.0
C413 C 0.54477 0.23722 1.06781 0.0
C414 C 0.56425 0.27827 1.08443 0.0
C415 C 0.6009 0.2961 1.11745 0.0
C416 C 0.62101 0.27377 1.13411 0.0
C417 C 0.59811 0.23065 1.11903 0.0
C418 C 0.49271 0.04459 0.96374 0.0
C419 C 0.53695 0.0407 1.10216 0.0
O420 O 0.59848 0.02986 0.96571 0.0
O421 O 0.61744 0.07575 0.89323 0.0
O422 O 0.6044 0.14082 0.98176 0.0
O423 O 0.63399 0.11638 1.02833 0.0
O424 O 0.55508 0.08077 0.87449 0.0
O425 O 0.53448 0.12513 0.90432 0.0
O426 O 0.51878 0.1559 1.01895 0.0
O427 O 0.55132 0.14602 1.09325 0.0
O428 O 0.5241 0.05624 0.99482 0.0
O429 O 0.48223 0.07226 0.96469 0.0
O430 O 0.52928 0.07178 1.09389 0.0
O431 O 0.55628 0.03504 1.05469 0.0
H432 H 0.59134 0.96161 0.93024 0.0
H433 H 0.58915 0.91342 0.85347 0.0
H434 H 0.61871 0.00331 0.70933 0.0
H435 H 0.62165 0.052 0.78573 0.0
H436 H 0.51591 0.22396 1.04335 0.0
H437 H 0.55001 0.29591 1.07374 0.0
H438 H 0.68634 0.31794 1.19383 0.0
H439 H 0.60908 0.2108 1.13433 0.0
Tb440 Tb 0.51307 0.62847 0.31209 0.0
Tb441 Tb 0.44013 0.558 0.33361 0.0
C442 C 0.58078 0.69088 0.28447 0.0
C443 C 0.602 0.71915 0.23384 0.0
C444 C 0.58536 0.71087 1.17423 0.0
C445 C 0.60833 0.7354 1.12504 0.0
C446 C 0.64826 0.76873 1.13486 0.0
C447 C 0.66324 0.7789 1.19577 0.0
C448 C 0.6402 0.75409 0.24502 0.0
C449 C 0.46478 0.64851 0.3729 0.0
C450 C 0.44649 0.57815 1.19011 0.0
C451 C 0.37092 0.50767 0.37627 0.0
C452 C 0.33568 0.51199 0.3871 0.0
C453 C 0.34221 0.55168 0.38875 0.0
C454 C 0.31866 0.56002 0.4273 0.0
C455 C 0.28715 0.5285 0.46235 0.0
C456 C 0.27442 0.48757 0.44742 0.0
C457 C 0.29976 0.47933 0.41162 0.0
C458 C 0.49434 0.54834 0.27579 0.0
C459 C 0.51121 0.57428 0.43736 0.0
O460 O 0.5724 0.65322 0.27783 0.0
O461 O 0.5502 0.69232 0.30676 0.0
O462 O 0.45421 0.62297 0.32747 0.0
O463 O 0.49999 0.65542 0.39059 0.0
O464 O 0.48476 0.608 1.20959 0.0
O465 O 0.42092 0.55751 0.23563 0.0
O466 O 0.38078 0.50807 0.3187 0.0
O467 O 0.40261 0.53188 0.41049 0.0
O468 O 0.49977 0.57009 0.32091 0.0
O469 O 0.45555 0.52453 0.26709 0.0
O470 O 0.47237 0.54983 0.41866 0.0
O471 O 0.53355 0.60745 0.4005 0.0
H472 H 0.55564 0.68416 1.16528 0.0
H473 H 0.59599 0.72573 1.07882 0.0
H474 H 0.69385 0.80412 1.2047 0.0
H475 H 0.65303 0.76101 0.29139 0.0
H476 H 0.36967 0.57721 0.36942 0.0
H477 H 0.33107 0.59185 0.4393 0.0
H478 H 0.25021 0.46268 0.47353 0.0
H479 H 0.29398 0.4483 0.40969 0.0
C480 C 0.47834 0.21074 0.36367 0.0
C481 C 0.4427 0.17166 0.36358 0.0
C482 C 0.47825 0.24652 0.34331 0.0
C483 C 0.44212 0.246 0.32666 0.0
H484 H 0.5066 0.21387 0.38005 0.0
H485 H 0.50661 0.27549 0.34465 0.0
S486 S 0.3411 0.15127 0.30902 0.0
N487 N 0.37047 0.13465 0.33665 0.0
N488 N 0.37066 0.20151 0.30228 0.0
C489 C 0.40669 0.20697 0.32326 0.0
C490 C 0.40685 0.17028 0.34152 0.0
C491 C 0.23563 0.44957 0.67886 0.0
C492 C 0.27125 0.48699 0.69592 0.0
C493 C 0.19727 0.4461 0.66919 0.0
C494 C 0.19199 0.48024 0.67087 0.0
H495 H 0.23645 0.42154 0.67667 0.0
H496 H 0.17105 0.41571 0.66222 0.0
S497 S 0.2748 0.58617 0.70564 0.0
N498 N 0.29705 0.55898 0.715 0.0
N499 N 0.22824 0.55428 0.68023 0.0
C500 C 0.22842 0.51874 0.67881 0.0
C501 C 0.26665 0.52157 0.69664 0.0
C502 C 0.74426 0.23141 1.06968 0.0
C503 C 0.7512 0.26964 1.04754 0.0
C504 C 0.70679 0.19403 1.06041 0.0
C505 C 0.67336 0.19186 1.02794 0.0
H506 H 0.76828 0.23022 1.09476 0.0
H507 H 0.7042 0.16625 1.07902 0.0
S508 S 0.67272 0.28268 0.96589 0.0
N509 N 0.71939 0.30234 0.99387 0.0
N510 N 0.64945 0.23266 0.9771 0.0
C511 C 0.67954 0.22967 1.00563 0.0
C512 C 0.71817 0.26804 1.01466 0.0
C513 C 0.48397 0.7221 0.34145 0.0
C514 C 0.45896 0.68587 0.37615 0.0
C515 C 0.48637 0.76033 0.3535 0.0
C516 C 0.46373 0.76508 0.40096 0.0
H517 H 0.50284 0.72134 0.30519 0.0
H518 H 0.50627 0.78653 0.32497 0.0
S519 S 0.39214 0.681 0.50272 0.0
N520 N 0.41027 0.65848 0.45936 0.0
N521 N 0.41425 0.72918 0.48068 0.0
C522 C 0.43821 0.72922 0.43497 0.0
C523 C 0.43599 0.69035 0.42305 0.0
C524 C 0.74936 0.53974 0.77517 0.0
C525 C 0.71679 0.52791 0.73297 0.0
C526 C 0.78402 0.53702 0.76047 0.0
C527 C 0.78721 0.52038 0.70391 0.0
H528 H 0.7482 0.55156 0.82011 0.0
H529 H 0.80823 0.54719 0.79457 0.0
S530 S 0.71031 0.48378 0.57705 0.0
N531 N 0.69139 0.5004 0.63015 0.0
N532 N 0.75372 0.49107 0.60578 0.0
C533 C 0.75456 0.50771 0.66162 0.0
C534 C 0.72023 0.5125 0.67528 0.0
C535 C 0.22196 0.77898 1.09523 0.0
C536 C 0.23513 0.78043 1.03372 0.0
C537 C 0.184 0.74658 1.11743 0.0
C538 C 0.15576 0.7144 1.07887 0.0
H539 H 0.24144 0.8033 1.12704 0.0
H540 H 0.17633 0.74724 1.16538 0.0
S541 S 0.17495 0.70173 0.9143 0.0
N542 N 0.21668 0.74462 0.93527 0.0
N543 N 0.14505 0.68552 0.97558 0.0
C544 C 0.16843 0.71525 1.01713 0.0
C545 C 0.20793 0.74757 0.99507 0.0
C546 C 0.5923 0.33803 1.19257 0.0
C547 C 0.61809 0.33662 1.14743 0.0
C548 C 0.58254 0.31456 0.24812 0.0
C549 C 0.60272 0.29376 0.26597 0.0
H550 H 0.57357 0.35064 1.17926 0.0
H551 H 0.55697 0.31044 0.27472 0.0
S552 S 0.68487 0.27697 1.13685 0.0
N553 N 0.6804 0.33047 1.11386 0.0
N554 N 0.6494 0.26572 0.22037 0.0
C555 C 0.63582 0.3011 0.232 0.0
C556 C 0.65346 0.33968 1.1677 0.0
C557 C 0.31104 0.52914 0.565 0.0
C558 C 0.28681 0.53895 0.52799 0.0
C559 C 0.34334 0.55956 0.59897 0.0
C560 C 0.34982 0.59945 0.60219 0.0
H561 H 0.31027 0.50045 0.55883 0.0
H562 H 0.36452 0.55226 0.62072 0.0
S563 S 0.27685 0.63008 0.54925 0.0
N564 N 0.25862 0.58346 0.52087 0.0
N565 N 0.31888 0.64123 0.58774 0.0
C566 C 0.31942 0.60617 0.57866 0.0
C567 C 0.28689 0.57501 0.54271 0.0
C568 C 0.67507 0.35008 0.745 0.0
C569 C 0.70223 0.3732 0.85537 0.0
C570 C 0.6261 0.33198 0.75506 0.0
C571 C 0.60314 0.33053 0.81918 0.0
H572 H 0.68748 0.35062 0.69923 0.0
H573 H 0.60645 0.31766 0.71505 0.0
S574 S 0.63557 0.36346 0.99372 0.0
N575 N 0.68203 0.3777 0.9696 0.0
N576 N 0.60318 0.34401 0.9343 0.0
C577 C 0.62673 0.34697 0.8854 0.0
C578 C 0.67362 0.36724 0.90918 0.0
C579 C 0.30992 0.67205 0.37032 0.0
C580 C 0.32162 0.68521 0.25398 0.0
C581 C 0.2926 0.62217 0.37143 0.0
C582 C 0.2863 0.59165 0.31287 0.0
H583 H 0.31314 0.68949 0.41239 0.0
H584 H 0.28339 0.60789 0.41658 0.0
S585 S 0.30727 0.60527 1.13329 0.0
N586 N 0.32045 0.65347 1.14658 0.0
N587 N 0.29264 0.57918 1.19963 0.0
C588 C 0.29698 0.6074 0.24221 0.0
C589 C 0.31355 0.65107 1.20828 0.0
C590 C 0.43363 0.23454 0.64343 0.0
C591 C 0.39279 0.20515 0.59906 0.0
C592 C 0.47732 0.27792 0.63883 0.0
C593 C 0.47986 0.29501 0.57344 0.0
H594 H 0.43087 0.22123 0.69023 0.0
H595 H 0.49936 0.29104 0.67636 0.0
S596 S 0.36215 0.22584 0.43642 0.0
N597 N 0.35301 0.19639 0.49863 0.0
N598 N 0.40966 0.26567 0.43982 0.0
C599 C 0.4228 0.25788 0.49392 0.0
C600 C 0.3887 0.21727 0.53002 0.0
C601 C 0.20249 0.50831 0.81737 0.0
C602 C 0.202 0.53794 0.92161 0.0
C603 C 0.22153 0.47933 0.83585 0.0
C604 C 0.23596 0.47292 0.90428 0.0
H605 H 0.19042 0.50838 0.77283 0.0
H606 H 0.22325 0.4611 0.79879 0.0
S607 S 0.23426 0.5103 1.07457 0.0
N608 N 0.21593 0.53693 1.04074 0.0
N609 N 0.24344 0.485 1.02064 0.0
C610 C 0.23208 0.4949 0.96638 0.0
C611 C 0.21621 0.52633 0.98114 0.0
C612 C 0.3845 0.92867 1.20963 0.0
C613 C 0.39041 0.94439 1.14721 0.0
C614 C 0.39555 0.95386 0.26616 0.0
C615 C 0.41511 -0.00202 0.26724 0.0
H616 H 0.37022 0.89582 1.21549 0.0
H617 H 0.38894 0.93806 0.31025 0.0
S618 S 0.43988 0.05747 1.11922 0.0
N619 N 0.41845 0.00979 1.09404 0.0
N620 N 0.44008 0.05504 1.19561 0.0
C621 C 0.42211 0.01405 1.20532 0.0
C622 C 0.4098 -0.01159 1.14792 0.0
C623 C 0.43381 0.44494 0.50078 0.0
C624 C 0.4148 0.40323 0.47954 0.0
C625 C 0.42257 0.4588 0.55647 0.0
C626 C 0.39086 0.43265 0.59903 0.0
H627 H 0.458 0.46808 0.4728 0.0
H628 H 0.43977 0.49134 0.56634 0.0
S629 S 0.32863 0.31948 0.56938 0.0
N630 N 0.36021 0.33566 0.51012 0.0
N631 N 0.33989 0.36044 0.61091 0.0
C632 C 0.37108 0.39065 0.57824 0.0
C633 C 0.38245 0.37659 0.52087 0.0
C634 C -0.03177 0.44036 0.84754 0.0
C635 C 0.00242 0.43448 0.84437 0.0
C636 C 0.93867 0.4259 0.89821 0.0
C637 C 0.93933 0.40313 0.95139 0.0
H638 H -0.03615 0.45647 0.80956 0.0
H639 H 0.91454 0.43279 0.89511 0.0
S640 S 0.02099 0.37703 0.96866 0.0
N641 N 0.03345 0.40293 0.90283 0.0
N642 N -0.02058 0.37543 0.99329 0.0
C643 C -0.02687 0.3966 0.94816 0.0
C644 C 0.00353 0.41189 0.89697 0.0
C645 C 0.50666 -0.00947 0.27526 0.0
C646 C 0.48726 0.94674 0.26889 0.0
C647 C 0.52096 0.01972 0.22352 0.0
C648 C 0.51915 0.00857 1.15967 0.0
H649 H 0.51055 0.00283 0.32155 0.0
H650 H 0.53464 0.05195 0.23436 0.0
S651 S 0.47196 0.89878 1.11313 0.0
N652 N 0.4668 0.89518 1.18916 0.0
N653 N 0.49492 0.94809 1.09585 0.0
C654 C 0.50002 0.96497 1.15279 0.0
C655 C 0.48408 0.93518 1.20523 0.0
C656 C 0.55244 0.51622 0.55078 0.0
C657 C 0.56333 0.53707 0.6094 0.0
C658 C 0.53681 0.52818 0.4972 0.0
C659 C 0.53011 0.56221 0.49599 0.0
H660 H 0.55584 0.48979 0.5458 0.0
H661 H 0.52993 0.5101 0.45547 0.0
S662 S 0.55289 0.62875 0.63487 0.0
N663 N 0.56513 0.59513 0.65923 0.0
N664 N 0.53702 0.61641 0.56252 0.0
C665 C 0.54106 0.58333 0.55394 0.0
C666 C 0.55685 0.57122 0.60842 0.0
C667 C 0.0142 0.55318 0.90284 0.0
C668 C 0.00037 0.55725 0.96301 0.0
C669 C -0.01118 0.53898 0.8457 0.0
C670 C 0.94583 0.52538 0.84133 0.0
H671 H 0.04579 0.56178 0.89894 0.0
H672 H 0.00361 0.53824 0.80367 0.0
S673 S 0.89253 0.53279 0.98022 0.0
N674 N 0.93839 0.5481 1.00849 0.0
N675 N 0.89299 0.52095 0.90699 0.0
C676 C 0.93179 0.52939 0.90082 0.0
C677 C 0.95776 0.54492 0.95847 0.0
C678 C 0.46443 -0.01623 0.56935 0.0
C679 C 0.44249 0.00212 0.5518 0.0
C680 C 0.45325 0.94711 0.5399 0.0
C681 C 0.41602 0.92565 0.50811 0.0
H682 H 0.49549 0.0022 0.58601 0.0
H683 H 0.47511 0.93829 0.53673 0.0
S684 S 0.33121 0.94438 0.52749 0.0
N685 N 0.37223 -0.01345 0.55293 0.0
N686 N 0.3468 0.91334 0.5041 0.0
C687 C 0.38693 0.93669 0.51869 0.0
C688 C 0.40044 0.97561 0.54465 0.0
C689 C 0.44835 0.44819 0.88167 0.0
C690 C 0.41702 0.42978 0.83792 0.0
C691 C 0.48695 0.45784 0.86319 0.0
C692 C 0.49145 0.4431 0.80598 0.0
H693 H 0.44588 0.4649 0.92023 0.0
H694 H 0.51303 0.47982 0.89019 0.0
S695 S 0.40836 0.36112 0.71204 0.0
N696 N 0.38552 0.37508 0.76248 0.0
N697 N 0.4576 0.38955 0.7273 0.0
C698 C 0.45685 0.41138 0.77633 0.0
C699 C 0.41835 0.40315 0.79553 0.0
C700 C -0.04107 0.46494 0.23106 0.0
C701 C 0.95288 0.43669 1.18486 0.0
C702 C -0.00144 0.49474 0.24616 0.0
C703 C 0.02922 0.49847 1.2068 0.0
H704 H 0.93393 0.46777 0.24804 0.0
H705 H 0.003 0.52049 0.27369 0.0
S706 S 0.02911 0.41422 1.12446 0.0
N707 N -0.01944 0.39945 1.13339 0.0
N708 N 0.05564 0.45923 1.159 0.0
C709 C 0.02459 0.4627 1.18165 0.0
C710 C -0.01521 0.4312 1.16768 0.0
C711 C -0.00481 0.51428 0.58548 0.0
C712 C 0.00566 0.48853 0.61624 0.0
C713 C 0.95593 0.49745 0.56213 0.0
C714 C 0.92746 0.4562 0.57559 0.0
H715 H 0.01529 0.5473 0.58537 0.0
H716 H 0.94658 0.51836 0.54679 0.0
S717 S 0.94545 0.37413 0.6181 0.0
N718 N -0.01218 0.41742 0.63475 0.0
N719 N 0.91621 0.38804 0.58243 0.0
C720 C 0.94155 0.4295 0.58172 0.0
C721 C -0.01989 0.4455 0.60973 0.0
C722 C 0.48115 0.94983 0.89622 0.0
C723 C 0.44111 0.93259 0.87608 0.0
C724 C 0.49868 -0.01209 0.92404 0.0
C725 C 0.47902 0.01077 0.92152 0.0
H726 H 0.49375 0.93058 0.90692 0.0
H727 H 0.5252 -0.00286 0.95242 0.0
S728 S 0.39652 -0.00843 0.81237 0.0
N729 N 0.39768 0.94858 0.81363 0.0
N730 N 0.43202 0.02306 0.86175 0.0
C731 C 0.44696 -0.00099 0.87991 0.0
C732 C 0.42852 0.95926 0.85464 0.0
C733 C 0.56119 0.55886 0.26767 0.0
C734 C 0.52706 0.55377 0.23474 0.0
C735 C 0.56317 0.52371 0.28 0.0
C736 C 0.53318 0.4864 0.25411 0.0
H737 H 0.57845 0.5853 0.29723 0.0
H738 H 0.58315 0.52447 0.31656 0.0
S739 S 0.46059 0.47424 1.12734 0.0
N740 N 0.48576 0.5235 1.14422 0.0
N741 N 0.47925 0.45357 1.17467 0.0
C742 C 0.50886 0.48716 1.20457 0.0
C743 C 0.51173 0.52455 1.18863 0.0
C744 C 0.19347 0.96846 0.7613 0.0
C745 C 0.17835 0.92587 0.76267 0.0
C746 C 0.20775 -0.00966 0.70596 0.0
C747 C 0.20611 0.96992 0.6511 0.0
H748 H 0.20173 -0.01377 0.80352 0.0
H749 H 0.22563 0.02354 0.708 0.0
S750 S 0.14607 0.85759 0.6262 0.0
N751 N 0.14394 0.86332 0.7016 0.0
N752 N 0.17315 0.90441 0.59734 0.0
C753 C 0.18073 0.92708 0.6495 0.0
C754 C 0.1653 0.9049 0.70586 0.0
C755 C 0.21232 0.23032 1.08643 0.0
C756 C 0.22679 0.2536 1.14123 0.0
C757 C 0.20024 0.24515 1.03602 0.0
C758 C 0.19985 0.28184 1.04138 0.0
H759 H 0.21838 0.20585 1.07806 0.0
H760 H 0.1975 0.23148 0.99104 0.0
S761 S 0.20932 0.33749 1.1861 0.0
N762 N 0.22232 0.30362 1.20571 0.0
N763 N 0.1965 0.32929 1.11213 0.0
C764 C 0.20182 0.29717 1.10096 0.0
C765 C 0.21557 0.28308 1.15149 0.0
C766 C -0.01032 0.24493 0.33235 0.0
C767 C 0.94878 0.23054 0.34688 0.0
C768 C 0.01867 0.25535 0.37962 0.0
C769 C 0.00753 0.25354 0.44209 0.0
H770 H 0.00023 0.25322 0.28516 0.0
H771 H 0.05055 0.27154 0.36705 0.0
S772 S 0.90151 0.20077 0.50136 0.0
N773 N 0.89658 0.20129 0.42543 0.0
N774 N 0.95085 0.22251 0.51481 0.0
C775 C -0.03439 0.2305 0.45616 0.0
C776 C 0.93617 0.21918 0.40805 0.0
C777 C 0.64313 0.92051 0.74524 0.0
C778 C 0.60989 0.92898 0.7324 0.0
C779 C 0.65421 0.89245 0.71376 0.0
C780 C 0.63608 0.86631 0.65876 0.0
H781 H 0.66247 0.93667 0.78455 0.0
H782 H 0.67949 0.89128 0.73438 0.0
S783 S 0.50256 0.81443 0.66714 0.0
N784 N 0.53085 0.87589 0.70041 0.0
N785 N 0.5512 0.81516 0.61758 0.0
C786 C 0.5979 0.86189 0.62135 0.0
C787 C 0.57997 0.9077 0.68371 0.0
C788 C 0.71056 0.77905 1.08536 0.0
C789 C 0.67654 0.78397 1.08174 0.0
C790 C 0.72209 0.76539 1.03391 0.0
C791 C 0.69944 0.75593 0.97852 0.0
H792 H 0.7237 0.77856 1.12979 0.0
H793 H 0.74376 0.75537 1.04078 0.0
S794 S 0.62246 0.78413 0.93914 0.0
N795 N 0.63246 0.79523 1.0134 0.0
N796 N 0.65217 0.76687 0.91706 0.0
C797 C 0.67273 0.77071 0.97065 0.0
C798 C 0.66186 0.78574 1.02268 0.0
C799 C 0.93148 0.72602 0.38539 0.0
C800 C -0.03003 0.73149 0.37321 0.0
C801 C 0.92206 0.73192 0.44575 0.0
C802 C 0.94888 0.73662 0.49476 0.0
H803 H 0.90726 0.71209 0.35118 0.0
H804 H 0.89056 0.72174 0.45566 0.0
S805 S 0.06019 0.7821 0.47622 0.0
N806 N 0.04066 0.7653 0.40662 0.0
N807 N 0.02146 0.77304 0.52053 0.0
C808 C -0.00962 0.75622 0.47871 0.0
C809 C 0.00086 0.75218 0.41739 0.0
C810 C 0.47465 0.10615 0.70492 0.0
C811 C 0.49143 0.09811 0.65111 0.0
C812 C 0.4898 0.1089 0.76885 0.0
C813 C 0.52258 0.10252 0.78691 0.0
H814 H 0.44955 0.11125 0.69777 0.0
H815 H 0.47471 0.11552 0.80513 0.0
S816 S 0.5771 0.07776 0.66792 0.0
N817 N 0.54415 0.0833 0.6253 0.0
N818 N 0.56944 0.08561 0.74035 0.0
C819 C 0.53867 0.09332 0.73378 0.0
C820 C 0.5243 0.09197 0.66878 0.0
C821 C 0.43809 0.56635 0.9998 0.0
C822 C 0.39965 0.52995 0.98425 0.0
C823 C 0.45287 0.58178 1.06281 0.0
C824 C 0.43083 0.56289 1.1186 0.0
H825 H 0.45795 0.58373 0.96195 0.0
H826 H 0.4825 0.60929 1.06743 0.0
S827 S 0.32843 0.46579 1.10981 0.0
N828 N 0.3406 0.47551 1.03595 0.0
N829 N 0.36653 0.50297 1.14937 0.0
C830 C 0.39228 0.52633 1.10365 0.0
C831 C 0.37745 0.51059 1.03945 0.0
C832 C 0.83134 0.37982 0.37765 0.0
C833 C 0.84313 0.40484 0.32244 0.0
C834 C 0.83186 0.39468 0.44094 0.0
C835 C 0.84528 0.43661 0.45727 0.0
H836 H 0.82088 0.34759 0.37221 0.0
H837 H 0.82205 0.37247 0.4782 0.0
S838 S 0.8817 0.51746 0.33406 0.0
N839 N 0.8693 0.4759 0.2935 0.0
N840 N 0.87206 0.50272 0.40715 0.0
C841 C 0.85782 0.46193 0.40268 0.0
C842 C 0.85625 0.44668 0.33829 0.0
C843 C 0.37609 0.86205 0.65257 0.0
C844 C 0.39125 0.83633 0.6327 0.0
C845 C 0.36277 0.86313 0.71551 0.0
C846 C 0.36308 0.83862 0.76623 0.0
H847 H 0.37475 0.88247 0.61889 0.0
H848 H 0.35242 0.8843 0.72445 0.0
S849 S 0.39802 0.76385 0.74321 0.0
N850 N 0.40391 0.78429 0.67348 0.0
N851 N 0.38016 0.7863 0.78751 0.0
C852 C 0.37777 0.8124 0.74685 0.0
C853 C 0.39128 0.81131 0.68263 0.0
C854 C 0.57167 0.4697 1.03354 0.0
C855 C 0.56742 0.44418 0.98209 0.0
C856 C 0.55494 0.45471 1.09504 0.0
C857 C 0.53186 0.41236 1.11378 0.0
H858 H 0.58785 0.50255 1.02616 0.0
H859 H 0.5597 0.47767 1.12869 0.0
S860 S 0.50814 0.3298 0.99862 0.0
N861 N 0.53606 0.37184 0.95735 0.0
N862 N 0.50485 0.34481 1.06892 0.0
C863 C 0.5272 0.38617 1.06279 0.0
C864 C 0.54468 0.40149 0.99959 0.0
C865 C 0.09256 0.58281 0.47281 0.0
C866 C 0.09645 0.54747 0.48384 0.0
C867 C 0.08955 0.59798 0.41121 0.0
C868 C 0.09156 0.58045 0.35343 0.0
H869 H 0.09096 0.59893 0.51278 0.0
H870 H 0.08627 0.62462 0.40922 0.0
S871 S 0.10082 0.487 0.35131 0.0
N872 N 0.10032 0.49506 0.42628 0.0
N873 N 0.09753 0.52381 0.31561 0.0
C874 C 0.09572 0.54537 0.36404 0.0
C875 C 0.0973 0.52914 0.42647 0.0
loop_
_geom_bond_atom_site_label_1
_geom_bond_atom_site_label_2
_geom_bond_distance
_geom_bond_site_symmetry_2
_ccdc_geom_bond_type
Tb0 C2 2.809 . S
Tb0 O20 2.484 . S
Tb0 O21 2.440 . S
Tb0 O22 2.658 . S
Tb0 O23 2.409 . S
Tb0 O24 2.378 . S
Tb0 O28 2.325 . S
Tb0 O31 2.341 . S
Tb1 C11 2.809 . S
Tb1 O22 2.325 . S
Tb1 O25 2.341 . S
Tb1 O26 2.484 . S
Tb1 O27 2.440 . S
Tb1 O28 2.658 . S
Tb1 O29 2.409 . S
Tb1 O30 2.378 . S
C2 Tb0 2.809 . S
C2 C3 1.514 . S
C2 O20 1.248 . S
C2 O21 1.266 . S
C3 C2 1.514 . S
C3 C4 1.359 . S
C3 C8 1.348 . S
C4 C3 1.359 . S
C4 C5 1.380 . S
C4 H32 0.929 . S
C5 C4 1.380 . S
C5 C6 1.347 . S
C5 H33 0.931 . S
C6 C5 1.347 . S
C6 C7 1.369 . S
C7 C6 1.369 . S
C7 C8 1.408 . S
C7 H34 0.930 . S
C8 C3 1.348 . S
C8 C7 1.408 . S
C8 H35 0.930 . S
C9 O22 1.281 . S
C9 O23 1.254 . S
C10 O24 1.236 . S
C10 O25 1.266 . S
C11 Tb1 2.809 . S
C11 C12 1.514 . S
C11 O26 1.248 . S
C11 O27 1.266 . S
C12 C11 1.514 . S
C12 C13 1.359 . S
C12 C17 1.348 . S
C13 C12 1.359 . S
C13 C14 1.380 . S
C13 H36 0.929 . S
C14 C13 1.380 . S
C14 C15 1.347 1_554 S
C14 H37 0.931 1_554 S
C15 C14 1.347 1_556 S
C15 C16 1.369 1_556 S
C16 C15 1.369 1_554 S
C16 C17 1.408 . S
C16 H38 0.930 . S
C17 C12 1.348 . S
C17 C16 1.408 . S
C17 H39 0.930 . S
C18 O28 1.281 . S
C18 O29 1.254 . S
C19 O30 1.236 . S
C19 O31 1.266 . S
O20 Tb0 2.484 . S
O20 C2 1.248 . S
O21 Tb0 2.440 . S
O21 C2 1.266 . S
O22 Tb0 2.658 . S
O22 Tb1 2.325 . S
O22 C9 1.281 . S
O23 Tb0 2.409 . S
O23 C9 1.254 . S
O24 Tb0 2.378 . S
O24 C10 1.236 . S
O25 Tb1 2.341 . S
O25 C10 1.266 . S
O26 Tb1 2.484 . S
O26 C11 1.248 . S
O27 Tb1 2.440 . S
O27 C11 1.266 . S
O28 Tb0 2.325 . S
O28 Tb1 2.658 . S
O28 C18 1.281 . S
O29 Tb1 2.409 . S
O29 C18 1.254 . S
O30 Tb1 2.378 . S
O30 C19 1.236 . S
O31 Tb0 2.341 . S
O31 C19 1.266 . S
H32 C4 0.929 . S
H33 C5 0.931 . S
H34 C7 0.930 . S
H35 C8 0.930 . S
H36 C13 0.929 . S
H37 C14 0.931 1_556 S
H38 C16 0.930 . S
H39 C17 0.930 . S
Tb40 C42 2.809 . S
Tb40 O60 2.484 . S
Tb40 O61 2.440 . S
Tb40 O62 2.658 . S
Tb40 O63 2.409 . S
Tb40 O64 2.378 . S
Tb40 O68 2.325 . S
Tb40 O71 2.341 . S
Tb41 C51 2.809 . S
Tb41 O62 2.325 . S
Tb41 O65 2.341 . S
Tb41 O66 2.484 . S
Tb41 O67 2.440 . S
Tb41 O68 2.658 . S
Tb41 O69 2.409 . S
Tb41 O70 2.378 . S
C42 Tb40 2.809 . S
C42 C43 1.514 . S
C42 O60 1.248 . S
C42 O61 1.266 . S
C43 C42 1.514 . S
C43 C44 1.359 . S
C43 C48 1.348 . S
C44 C43 1.359 . S
C44 C45 1.380 . S
C44 H72 0.929 . S
C45 C44 1.380 . S
C45 C46 1.347 . S
C45 H73 0.931 . S
C46 C45 1.347 . S
C46 C47 1.369 . S
C47 C46 1.369 . S
C47 C48 1.408 . S
C47 H74 0.930 . S
C48 C43 1.348 . S
C48 C47 1.408 . S
C48 H75 0.930 . S
C49 O62 1.281 . S
C49 O63 1.254 . S
C50 O64 1.236 . S
C50 O65 1.266 . S
C51 Tb41 2.809 . S
C51 C52 1.514 . S
C51 O66 1.248 . S
C51 O67 1.266 . S
C52 C51 1.514 . S
C52 C53 1.359 . S
C52 C57 1.348 . S
C53 C52 1.359 . S
C53 C54 1.380 . S
C53 H76 0.929 . S
C54 C53 1.380 . S
C54 C55 1.347 . S
C54 H77 0.931 . S
C55 C54 1.347 . S
C55 C56 1.369 . S
C56 C55 1.369 . S
C56 C57 1.408 . S
C56 H78 0.930 . S
C57 C52 1.348 . S
C57 C56 1.408 . S
C57 H79 0.930 . S
C58 O68 1.281 . S
C58 O69 1.254 . S
C59 O70 1.236 . S
C59 O71 1.266 . S
O60 Tb40 2.484 . S
O60 C42 1.248 . S
O61 Tb40 2.440 . S
O61 C42 1.266 . S
O62 Tb40 2.658 . S
O62 Tb41 2.325 . S
O62 C49 1.281 . S
O63 Tb40 2.409 . S
O63 C49 1.254 . S
O64 Tb40 2.378 . S
O64 C50 1.236 . S
O65 Tb41 2.341 . S
O65 C50 1.266 . S
O66 Tb41 2.484 . S
O66 C51 1.248 . S
O67 Tb41 2.440 . S
O67 C51 1.266 . S
O68 Tb40 2.325 . S
O68 Tb41 2.658 . S
O68 C58 1.281 . S
O69 Tb41 2.409 . S
O69 C58 1.254 . S
O70 Tb41 2.378 . S
O70 C59 1.236 . S
O71 Tb40 2.341 . S
O71 C59 1.266 . S
H72 C44 0.929 . S
H73 C45 0.931 . S
H74 C47 0.930 . S
H75 C48 0.930 . S
H76 C53 0.929 . S
H77 C54 0.931 . S
H78 C56 0.930 . S
H79 C57 0.930 . S
Tb80 C82 2.809 1_556 S
Tb80 O100 2.484 1_556 S
Tb80 O101 2.440 1_556 S
Tb80 O102 2.658 . S
Tb80 O103 2.409 . S
Tb80 O104 2.378 . S
Tb80 O108 2.325 . S
Tb80 O111 2.341 . S
Tb81 C91 2.809 . S
Tb81 O102 2.325 . S
Tb81 O105 2.341 . S
Tb81 O106 2.484 . S
Tb81 O107 2.440 . S
Tb81 O108 2.658 . S
Tb81 O109 2.409 . S
Tb81 O110 2.378 . S
C82 Tb80 2.809 1_554 S
C82 C83 1.514 . S
C82 O100 1.248 . S
C82 O101 1.266 . S
C83 C82 1.514 . S
C83 C84 1.359 . S
C83 C88 1.348 . S
C84 C83 1.359 . S
C84 C85 1.380 . S
C84 H112 0.929 . S
C85 C84 1.380 . S
C85 C86 1.347 . S
C85 H113 0.931 . S
C86 C85 1.347 . S
C86 C87 1.369 . S
C87 C86 1.369 . S
C87 C88 1.408 . S
C87 H114 0.930 . S
C88 C83 1.348 . S
C88 C87 1.408 . S
C88 H115 0.930 . S
C89 O102 1.281 . S
C89 O103 1.254 . S
C90 O104 1.236 . S
C90 O105 1.266 . S
C91 Tb81 2.809 . S
C91 C92 1.514 . S
C91 O106 1.248 . S
C91 O107 1.266 . S
C92 C91 1.514 . S
C92 C93 1.359 . S
C92 C97 1.348 . S
C93 C92 1.359 . S
C93 C94 1.380 . S
C93 H116 0.929 . S
C94 C93 1.380 . S
C94 C95 1.347 . S
C94 H117 0.931 . S
C95 C94 1.347 . S
C95 C96 1.369 . S
C96 C95 1.369 . S
C96 C97 1.408 . S
C96 H118 0.930 . S
C97 C92 1.348 . S
C97 C96 1.408 . S
C97 H119 0.930 . S
C98 O108 1.281 . S
C98 O109 1.254 . S
C99 O110 1.236 . S
C99 O111 1.266 . S
O100 Tb80 2.484 1_554 S
O100 C82 1.248 . S
O101 Tb80 2.440 1_554 S
O101 C82 1.266 . S
O102 Tb80 2.658 . S
O102 Tb81 2.325 . S
O102 C89 1.281 . S
O103 Tb80 2.409 . S
O103 C89 1.254 . S
O104 Tb80 2.378 . S
O104 C90 1.236 . S
O105 Tb81 2.341 . S
O105 C90 1.266 . S
O106 Tb81 2.484 . S
O106 C91 1.248 . S
O107 Tb81 2.440 . S
O107 C91 1.266 . S
O108 Tb80 2.325 . S
O108 Tb81 2.658 . S
O108 C98 1.281 . S
O109 Tb81 2.409 . S
O109 C98 1.254 . S
O110 Tb81 2.378 . S
O110 C99 1.236 . S
O111 Tb80 2.341 . S
O111 C99 1.266 . S
H112 C84 0.929 . S
H113 C85 0.931 . S
H114 C87 0.930 . S
H115 C88 0.930 . S
H116 C93 0.929 . S
H117 C94 0.931 . S
H118 C96 0.930 . S
H119 C97 0.930 . S
Tb120 C122 2.809 . S
Tb120 O140 2.484 . S
Tb120 O141 2.440 . S
Tb120 O142 2.658 . S
Tb120 O143 2.409 . S
Tb120 O144 2.378 . S
Tb120 O148 2.325 . S
Tb120 O151 2.341 . S
Tb121 C131 2.809 . S
Tb121 O142 2.325 . S
Tb121 O145 2.341 . S
Tb121 O146 2.484 . S
Tb121 O147 2.440 . S
Tb121 O148 2.658 . S
Tb121 O149 2.409 . S
Tb121 O150 2.378 . S
C122 Tb120 2.809 . S
C122 C123 1.514 . S
C122 O140 1.248 . S
C122 O141 1.266 . S
C123 C122 1.514 . S
C123 C124 1.359 . S
C123 C128 1.348 . S
C124 C123 1.359 . S
C124 C125 1.380 . S
C124 H152 0.929 . S
C125 C124 1.380 . S
C125 C126 1.347 . S
C125 H153 0.931 . S
C126 C125 1.347 . S
C126 C127 1.369 . S
C127 C126 1.369 . S
C127 C128 1.408 . S
C127 H154 0.930 . S
C128 C123 1.348 . S
C128 C127 1.408 . S
C128 H155 0.930 . S
C129 O142 1.281 . S
C129 O143 1.254 . S
C130 O144 1.236 . S
C130 O145 1.266 . S
C131 Tb121 2.809 . S
C131 C132 1.514 . S
C131 O146 1.248 . S
C131 O147 1.266 . S
C132 C131 1.514 . S
C132 C133 1.359 . S
C132 C137 1.348 . S
C133 C132 1.359 . S
C133 C134 1.380 . S
C133 H156 0.929 . S
C134 C133 1.380 . S
C134 C135 1.347 1_554 S
C134 H157 0.931 1_554 S
C135 C134 1.347 1_556 S
C135 C136 1.369 1_556 S
C136 C135 1.369 1_554 S
C136 C137 1.408 . S
C136 H158 0.930 . S
C137 C132 1.348 . S
C137 C136 1.408 . S
C137 H159 0.930 . S
C138 O148 1.281 . S
C138 O149 1.254 . S
C139 O150 1.236 . S
C139 O151 1.266 . S
O140 Tb120 2.484 . S
O140 C122 1.248 . S
O141 Tb120 2.440 . S
O141 C122 1.266 . S
O142 Tb120 2.658 . S
O142 Tb121 2.325 . S
O142 C129 1.281 . S
O143 Tb120 2.409 . S
O143 C129 1.254 . S
O144 Tb120 2.378 . S
O144 C130 1.236 . S
O145 Tb121 2.341 . S
O145 C130 1.266 . S
O146 Tb121 2.484 . S
O146 C131 1.248 . S
O147 Tb121 2.440 . S
O147 C131 1.266 . S
O148 Tb120 2.325 . S
O148 Tb121 2.658 . S
O148 C138 1.281 . S
O149 Tb121 2.409 . S
O149 C138 1.254 . S
O150 Tb121 2.378 . S
O150 C139 1.236 . S
O151 Tb120 2.341 . S
O151 C139 1.266 . S
H152 C124 0.929 . S
H153 C125 0.931 . S
H154 C127 0.930 . S
H155 C128 0.930 . S
H156 C133 0.929 . S
H157 C134 0.931 1_556 S
H158 C136 0.930 . S
H159 C137 0.930 . S
Tb160 C162 2.809 . S
Tb160 O180 2.484 . S
Tb160 O181 2.440 . S
Tb160 O182 2.658 . S
Tb160 O183 2.409 . S
Tb160 O184 2.378 . S
Tb160 O188 2.325 . S
Tb160 O191 2.341 . S
Tb161 C171 2.809 . S
Tb161 O182 2.325 . S
Tb161 O185 2.341 . S
Tb161 O186 2.484 . S
Tb161 O187 2.440 . S
Tb161 O188 2.658 . S
Tb161 O189 2.409 . S
Tb161 O190 2.378 . S
C162 Tb160 2.809 . S
C162 C163 1.514 . S
C162 O180 1.248 . S
C162 O181 1.266 . S
C163 C162 1.514 . S
C163 C164 1.359 . S
C163 C168 1.348 . S
C164 C163 1.359 . S
C164 C165 1.380 . S
C164 H192 0.929 . S
C165 C164 1.380 . S
C165 C166 1.347 . S
C165 H193 0.931 . S
C166 C165 1.347 . S
C166 C167 1.369 . S
C167 C166 1.369 . S
C167 C168 1.408 . S
C167 H194 0.930 . S
C168 C163 1.348 . S
C168 C167 1.408 . S
C168 H195 0.930 . S
C169 O182 1.281 . S
C169 O183 1.254 . S
C170 O184 1.236 . S
C170 O185 1.266 . S
C171 Tb161 2.809 . S
C171 C172 1.514 . S
C171 O186 1.248 . S
C171 O187 1.266 . S
C172 C171 1.514 . S
C172 C173 1.359 . S
C172 C177 1.348 . S
C173 C172 1.359 . S
C173 C174 1.380 . S
C173 H196 0.929 . S
C174 C173 1.380 . S
C174 C175 1.347 . S
C174 H197 0.931 . S
C175 C174 1.347 . S
C175 C176 1.369 . S
C176 C175 1.369 . S
C176 C177 1.408 . S
C176 H198 0.930 . S
C177 C172 1.348 . S
C177 C176 1.408 . S
C177 H199 0.930 . S
C178 O188 1.281 . S
C178 O189 1.254 . S
C179 O190 1.236 . S
C179 O191 1.266 . S
O180 Tb160 2.484 . S
O180 C162 1.248 . S
O181 Tb160 2.440 . S
O181 C162 1.266 . S
O182 Tb160 2.658 . S
O182 Tb161 2.325 . S
O182 C169 1.281 . S
O183 Tb160 2.409 . S
O183 C169 1.254 . S
O184 Tb160 2.378 . S
O184 C170 1.236 . S
O185 Tb161 2.341 . S
O185 C170 1.266 . S
O186 Tb161 2.484 . S
O186 C171 1.248 . S
O187 Tb161 2.440 . S
O187 C171 1.266 . S
O188 Tb160 2.325 . S
O188 Tb161 2.658 . S
O188 C178 1.281 . S
O189 Tb161 2.409 . S
O189 C178 1.254 . S
O190 Tb161 2.378 . S
O190 C179 1.236 . S
O191 Tb160 2.341 . S
O191 C179 1.266 . S
H192 C164 0.929 . S
H193 C165 0.931 . S
H194 C167 0.930 . S
H195 C168 0.930 . S
H196 C173 0.929 . S
H197 C174 0.931 . S
H198 C176 0.930 . S
H199 C177 0.930 . S
Tb200 C202 2.809 1_556 S
Tb200 O220 2.484 1_556 S
Tb200 O221 2.440 1_556 S
Tb200 O222 2.658 . S
Tb200 O223 2.409 . S
Tb200 O224 2.378 . S
Tb200 O228 2.325 . S
Tb200 O231 2.341 . S
Tb201 C211 2.809 . S
Tb201 O222 2.325 . S
Tb201 O225 2.341 . S
Tb201 O226 2.484 . S
Tb201 O227 2.440 . S
Tb201 O228 2.658 . S
Tb201 O229 2.409 . S
Tb201 O230 2.378 . S
C202 Tb200 2.809 1_554 S
C202 C203 1.514 . S
C202 O220 1.248 . S
C202 O221 1.266 . S
C203 C202 1.514 . S
C203 C204 1.359 . S
C203 C208 1.348 . S
C204 C203 1.359 . S
C204 C205 1.380 . S
C204 H232 0.929 . S
C205 C204 1.380 . S
C205 C206 1.347 . S
C205 H233 0.931 . S
C206 C205 1.347 . S
C206 C207 1.369 . S
C207 C206 1.369 . S
C207 C208 1.408 . S
C207 H234 0.930 . S
C208 C203 1.348 . S
C208 C207 1.408 . S
C208 H235 0.930 . S
C209 O222 1.281 . S
C209 O223 1.254 . S
C210 O224 1.236 . S
C210 O225 1.266 . S
C211 Tb201 2.809 . S
C211 C212 1.514 . S
C211 O226 1.248 . S
C211 O227 1.266 . S
C212 C211 1.514 . S
C212 C213 1.359 . S
C212 C217 1.348 . S
C213 C212 1.359 . S
C213 C214 1.380 . S
C213 H236 0.929 . S
C214 C213 1.380 . S
C214 C215 1.347 . S
C214 H237 0.931 . S
C215 C214 1.347 . S
C215 C216 1.369 . S
C216 C215 1.369 . S
C216 C217 1.408 . S
C216 H238 0.930 . S
C217 C212 1.348 . S
C217 C216 1.408 . S
C217 H239 0.930 . S
C218 O228 1.281 . S
C218 O229 1.254 . S
C219 O230 1.236 . S
C219 O231 1.266 . S
O220 Tb200 2.484 1_554 S
O220 C202 1.248 . S
O221 Tb200 2.440 1_554 S
O221 C202 1.266 . S
O222 Tb200 2.658 . S
O222 Tb201 2.325 . S
O222 C209 1.281 . S
O223 Tb200 2.409 . S
O223 C209 1.254 . S
O224 Tb200 2.378 . S
O224 C210 1.236 . S
O225 Tb201 2.341 . S
O225 C210 1.266 . S
O226 Tb201 2.484 . S
O226 C211 1.248 . S
O227 Tb201 2.440 . S
O227 C211 1.266 . S
O228 Tb200 2.325 . S
O228 Tb201 2.658 . S
O228 C218 1.281 . S
O229 Tb201 2.409 . S
O229 C218 1.254 . S
O230 Tb201 2.378 . S
O230 C219 1.236 . S
O231 Tb200 2.341 . S
O231 C219 1.266 . S
H232 C204 0.929 . S
H233 C205 0.931 . S
H234 C207 0.930 . S
H235 C208 0.930 . S
H236 C213 0.929 . S
H237 C214 0.931 . S
H238 C216 0.930 . S
H239 C217 0.930 . S
Tb240 C242 2.809 . S
Tb240 O260 2.484 . S
Tb240 O261 2.440 . S
Tb240 O262 2.658 . S
Tb240 O263 2.409 . S
Tb240 O264 2.378 . S
Tb240 O268 2.325 . S
Tb240 O271 2.341 . S
Tb241 C251 2.809 . S
Tb241 O262 2.325 . S
Tb241 O265 2.341 . S
Tb241 O266 2.484 . S
Tb241 O267 2.440 . S
Tb241 O268 2.658 . S
Tb241 O269 2.409 . S
Tb241 O270 2.378 . S
C242 Tb240 2.809 . S
C242 C243 1.514 . S
C242 O260 1.248 . S
C242 O261 1.266 . S
C243 C242 1.514 . S
C243 C244 1.359 . S
C243 C248 1.348 . S
C244 C243 1.359 . S
C244 C245 1.380 . S
C244 H272 0.929 . S
C245 C244 1.380 . S
C245 C246 1.347 . S
C245 H273 0.931 . S
C246 C245 1.347 . S
C246 C247 1.369 . S
C247 C246 1.369 . S
C247 C248 1.408 . S
C247 H274 0.930 . S
C248 C243 1.348 . S
C248 C247 1.408 . S
C248 H275 0.930 . S
C249 O262 1.281 . S
C249 O263 1.254 . S
C250 O264 1.236 . S
C250 O265 1.266 . S
C251 Tb241 2.809 . S
C251 C252 1.514 . S
C251 O266 1.248 . S
C251 O267 1.266 . S
C252 C251 1.514 . S
C252 C253 1.359 . S
C252 C257 1.348 . S
C253 C252 1.359 . S
C253 C254 1.380 . S
C253 H276 0.929 . S
C254 C253 1.380 . S
C254 C255 1.347 . S
C254 H277 0.931 . S
C255 C254 1.347 . S
C255 C256 1.369 . S
C256 C255 1.369 . S
C256 C257 1.408 . S
C256 H278 0.930 . S
C257 C252 1.348 . S
C257 C256 1.408 . S
C257 H279 0.930 . S
C258 O268 1.281 . S
C258 O269 1.254 . S
C259 O270 1.236 . S
C259 O271 1.266 . S
O260 Tb240 2.484 . S
O260 C242 1.248 . S
O261 Tb240 2.440 . S
O261 C242 1.266 . S
O262 Tb240 2.658 . S
O262 Tb241 2.325 . S
O262 C249 1.281 . S
O263 Tb240 2.409 . S
O263 C249 1.254 . S
O264 Tb240 2.378 . S
O264 C250 1.236 . S
O265 Tb241 2.341 . S
O265 C250 1.266 . S
O266 Tb241 2.484 . S
O266 C251 1.248 . S
O267 Tb241 2.440 . S
O267 C251 1.266 . S
O268 Tb240 2.325 . S
O268 Tb241 2.658 . S
O268 C258 1.281 . S
O269 Tb241 2.409 . S
O269 C258 1.254 . S
O270 Tb241 2.378 . S
O270 C259 1.236 . S
O271 Tb240 2.341 . S
O271 C259 1.266 . S
H272 C244 0.929 . S
H273 C245 0.931 . S
H274 C247 0.930 . S
H275 C248 0.930 . S
H276 C253 0.929 . S
H277 C254 0.931 . S
H278 C256 0.930 . S
H279 C257 0.930 . S
Tb280 C282 2.809 . S
Tb280 O300 2.484 . S
Tb280 O301 2.440 . S
Tb280 O302 2.658 . S
Tb280 O303 2.409 . S
Tb280 O304 2.378 . S
Tb280 O308 2.325 . S
Tb280 O311 2.341 . S
Tb281 C291 2.809 . S
Tb281 O302 2.325 . S
Tb281 O305 2.341 . S
Tb281 O306 2.484 . S
Tb281 O307 2.440 . S
Tb281 O308 2.658 . S
Tb281 O309 2.409 . S
Tb281 O310 2.378 . S
C282 Tb280 2.809 . S
C282 C283 1.514 . S
C282 O300 1.248 . S
C282 O301 1.266 . S
C283 C282 1.514 . S
C283 C284 1.359 . S
C283 C288 1.348 . S
C284 C283 1.359 . S
C284 C285 1.380 . S
C284 H312 0.929 . S
C285 C284 1.380 . S
C285 C286 1.347 . S
C285 H313 0.931 . S
C286 C285 1.347 . S
C286 C287 1.369 . S
C287 C286 1.369 . S
C287 C288 1.408 . S
C287 H314 0.930 . S
C288 C283 1.348 . S
C288 C287 1.408 . S
C288 H315 0.930 . S
C289 O302 1.281 . S
C289 O303 1.254 . S
C290 O304 1.236 . S
C290 O305 1.266 . S
C291 Tb281 2.809 . S
C291 C292 1.514 . S
C291 O306 1.248 . S
C291 O307 1.266 . S
C292 C291 1.514 . S
C292 C293 1.359 . S
C292 C297 1.348 . S
C293 C292 1.359 . S
C293 C294 1.380 . S
C293 H316 0.929 . S
C294 C293 1.380 . S
C294 C295 1.347 1_556 S
C294 H317 0.931 1_556 S
C295 C294 1.347 1_554 S
C295 C296 1.369 1_554 S
C296 C295 1.369 1_556 S
C296 C297 1.408 . S
C296 H318 0.930 . S
C297 C292 1.348 . S
C297 C296 1.408 . S
C297 H319 0.930 . S
C298 O308 1.281 . S
C298 O309 1.254 . S
C299 O310 1.236 . S
C299 O311 1.266 . S
O300 Tb280 2.484 . S
O300 C282 1.248 . S
O301 Tb280 2.440 . S
O301 C282 1.266 . S
O302 Tb280 2.658 . S
O302 Tb281 2.325 . S
O302 C289 1.281 . S
O303 Tb280 2.409 . S
O303 C289 1.254 . S
O304 Tb280 2.378 . S
O304 C290 1.236 . S
O305 Tb281 2.341 . S
O305 C290 1.266 . S
O306 Tb281 2.484 . S
O306 C291 1.248 . S
O307 Tb281 2.440 . S
O307 C291 1.266 . S
O308 Tb280 2.325 . S
O308 Tb281 2.658 . S
O308 C298 1.281 . S
O309 Tb281 2.409 . S
O309 C298 1.254 . S
O310 Tb281 2.378 . S
O310 C299 1.236 . S
O311 Tb280 2.341 . S
O311 C299 1.266 . S
H312 C284 0.929 . S
H313 C285 0.931 . S
H314 C287 0.930 . S
H315 C288 0.930 . S
H316 C293 0.929 . S
H317 C294 0.931 1_554 S
H318 C296 0.930 . S
H319 C297 0.930 . S
Tb320 C322 2.809 1_554 S
Tb320 O340 2.484 1_554 S
Tb320 O341 2.440 1_554 S
Tb320 O342 2.658 . S
Tb320 O343 2.409 . S
Tb320 O344 2.378 . S
Tb320 O348 2.325 . S
Tb320 O351 2.341 . S
Tb321 C331 2.809 . S
Tb321 O342 2.325 . S
Tb321 O345 2.341 . S
Tb321 O346 2.484 . S
Tb321 O347 2.440 . S
Tb321 O348 2.658 . S
Tb321 O349 2.409 . S
Tb321 O350 2.378 . S
C322 Tb320 2.809 1_556 S
C322 C323 1.514 . S
C322 O340 1.248 . S
C322 O341 1.266 . S
C323 C322 1.514 . S
C323 C324 1.359 . S
C323 C328 1.348 . S
C324 C323 1.359 . S
C324 C325 1.380 . S
C324 H352 0.929 . S
C325 C324 1.380 . S
C325 C326 1.347 . S
C325 H353 0.931 . S
C326 C325 1.347 . S
C326 C327 1.369 . S
C327 C326 1.369 . S
C327 C328 1.408 . S
C327 H354 0.930 . S
C328 C323 1.348 . S
C328 C327 1.408 . S
C328 H355 0.930 . S
C329 O342 1.281 . S
C329 O343 1.254 . S
C330 O344 1.236 . S
C330 O345 1.266 . S
C331 Tb321 2.809 . S
C331 C332 1.514 . S
C331 O346 1.248 . S
C331 O347 1.266 . S
C332 C331 1.514 . S
C332 C333 1.359 . S
C332 C337 1.348 . S
C333 C332 1.359 . S
C333 C334 1.380 . S
C333 H356 0.929 . S
C334 C333 1.380 . S
C334 C335 1.347 . S
C334 H357 0.931 . S
C335 C334 1.347 . S
C335 C336 1.369 . S
C336 C335 1.369 . S
C336 C337 1.408 . S
C336 H358 0.930 . S
C337 C332 1.348 . S
C337 C336 1.408 . S
C337 H359 0.930 . S
C338 O348 1.281 . S
C338 O349 1.254 . S
C339 O350 1.236 . S
C339 O351 1.266 . S
O340 Tb320 2.484 1_556 S
O340 C322 1.248 . S
O341 Tb320 2.440 1_556 S
O341 C322 1.266 . S
O342 Tb320 2.658 . S
O342 Tb321 2.325 . S
O342 C329 1.281 . S
O343 Tb320 2.409 . S
O343 C329 1.254 . S
O344 Tb320 2.378 . S
O344 C330 1.236 . S
O345 Tb321 2.341 . S
O345 C330 1.266 . S
O346 Tb321 2.484 . S
O346 C331 1.248 . S
O347 Tb321 2.440 . S
O347 C331 1.266 . S
O348 Tb320 2.325 . S
O348 Tb321 2.658 . S
O348 C338 1.281 . S
O349 Tb321 2.409 . S
O349 C338 1.254 . S
O350 Tb321 2.378 . S
O350 C339 1.236 . S
O351 Tb320 2.341 . S
O351 C339 1.266 . S
H352 C324 0.929 . S
H353 C325 0.931 . S
H354 C327 0.930 . S
H355 C328 0.930 . S
H356 C333 0.929 . S
H357 C334 0.931 . S
H358 C336 0.930 . S
H359 C337 0.930 . S
Tb360 C362 2.809 . S
Tb360 O380 2.484 . S
Tb360 O381 2.440 . S
Tb360 O382 2.658 . S
Tb360 O383 2.409 . S
Tb360 O384 2.378 . S
Tb360 O388 2.325 . S
Tb360 O391 2.341 . S
Tb361 C371 2.809 . S
Tb361 O382 2.325 . S
Tb361 O385 2.341 . S
Tb361 O386 2.484 . S
Tb361 O387 2.440 . S
Tb361 O388 2.658 . S
Tb361 O389 2.409 . S
Tb361 O390 2.378 . S
C362 Tb360 2.809 . S
C362 C363 1.514 . S
C362 O380 1.248 . S
C362 O381 1.266 . S
C363 C362 1.514 . S
C363 C364 1.359 . S
C363 C368 1.348 . S
C364 C363 1.359 . S
C364 C365 1.380 . S
C364 H392 0.929 . S
C365 C364 1.380 . S
C365 C366 1.347 . S
C365 H393 0.931 . S
C366 C365 1.347 . S
C366 C367 1.369 . S
C367 C366 1.369 . S
C367 C368 1.408 . S
C367 H394 0.930 . S
C368 C363 1.348 . S
C368 C367 1.408 . S
C368 H395 0.930 . S
C369 O382 1.281 . S
C369 O383 1.254 . S
C370 O384 1.236 . S
C370 O385 1.266 . S
C371 Tb361 2.809 . S
C371 C372 1.514 . S
C371 O386 1.248 . S
C371 O387 1.266 . S
C372 C371 1.514 . S
C372 C373 1.359 . S
C372 C377 1.348 . S
C373 C372 1.359 . S
C373 C374 1.380 . S
C373 H396 0.929 . S
C374 C373 1.380 . S
C374 C375 1.347 . S
C374 H397 0.931 . S
C375 C374 1.347 . S
C375 C376 1.369 . S
C376 C375 1.369 . S
C376 C377 1.408 . S
C376 H398 0.930 . S
C377 C372 1.348 . S
C377 C376 1.408 . S
C377 H399 0.930 . S
C378 O388 1.281 . S
C378 O389 1.254 . S
C379 O390 1.236 . S
C379 O391 1.266 . S
O380 Tb360 2.484 . S
O380 C362 1.248 . S
O381 Tb360 2.440 . S
O381 C362 1.266 . S
O382 Tb360 2.658 . S
O382 Tb361 2.325 . S
O382 C369 1.281 . S
O383 Tb360 2.409 . S
O383 C369 1.254 . S
O384 Tb360 2.378 . S
O384 C370 1.236 . S
O385 Tb361 2.341 . S
O385 C370 1.266 . S
O386 Tb361 2.484 . S
O386 C371 1.248 . S
O387 Tb361 2.440 . S
O387 C371 1.266 . S
O388 Tb360 2.325 . S
O388 Tb361 2.658 . S
O388 C378 1.281 . S
O389 Tb361 2.409 . S
O389 C378 1.254 . S
O390 Tb361 2.378 . S
O390 C379 1.236 . S
O391 Tb360 2.341 . S
O391 C379 1.266 . S
H392 C364 0.929 . S
H393 C365 0.931 . S
H394 C367 0.930 . S
H395 C368 0.930 . S
H396 C373 0.929 . S
H397 C374 0.931 . S
H398 C376 0.930 . S
H399 C377 0.930 . S
Tb400 C402 2.809 . S
Tb400 O420 2.484 . S
Tb400 O421 2.440 . S
Tb400 O422 2.658 . S
Tb400 O423 2.409 . S
Tb400 O424 2.378 . S
Tb400 O428 2.325 . S
Tb400 O431 2.341 . S
Tb401 C411 2.809 . S
Tb401 O422 2.325 . S
Tb401 O425 2.341 . S
Tb401 O426 2.484 . S
Tb401 O427 2.440 . S
Tb401 O428 2.658 . S
Tb401 O429 2.409 . S
Tb401 O430 2.378 . S
C402 Tb400 2.809 . S
C402 C403 1.514 . S
C402 O420 1.248 . S
C402 O421 1.266 . S
C403 C402 1.514 . S
C403 C404 1.359 . S
C403 C408 1.348 . S
C404 C403 1.359 . S
C404 C405 1.380 . S
C404 H432 0.929 . S
C405 C404 1.380 . S
C405 C406 1.347 . S
C405 H433 0.931 . S
C406 C405 1.347 . S
C406 C407 1.369 . S
C407 C406 1.369 . S
C407 C408 1.408 . S
C407 H434 0.930 . S
C408 C403 1.348 . S
C408 C407 1.408 . S
C408 H435 0.930 . S
C409 O422 1.281 . S
C409 O423 1.254 . S
C410 O424 1.236 . S
C410 O425 1.266 . S
C411 Tb401 2.809 . S
C411 C412 1.514 . S
C411 O426 1.248 . S
C411 O427 1.266 . S
C412 C411 1.514 . S
C412 C413 1.359 . S
C412 C417 1.348 . S
C413 C412 1.359 . S
C413 C414 1.380 . S
C413 H436 0.929 . S
C414 C413 1.380 . S
C414 C415 1.347 1_556 S
C414 H437 0.931 1_556 S
C415 C414 1.347 1_554 S
C415 C416 1.369 1_554 S
C416 C415 1.369 1_556 S
C416 C417 1.408 . S
C416 H438 0.930 . S
C417 C412 1.348 . S
C417 C416 1.408 . S
C417 H439 0.930 . S
C418 O428 1.281 . S
C418 O429 1.254 . S
C419 O430 1.236 . S
C419 O431 1.266 . S
O420 Tb400 2.484 . S
O420 C402 1.248 . S
O421 Tb400 2.440 . S
O421 C402 1.266 . S
O422 Tb400 2.658 . S
O422 Tb401 2.325 . S
O422 C409 1.281 . S
O423 Tb400 2.409 . S
O423 C409 1.254 . S
O424 Tb400 2.378 . S
O424 C410 1.236 . S
O425 Tb401 2.341 . S
O425 C410 1.266 . S
O426 Tb401 2.484 . S
O426 C411 1.248 . S
O427 Tb401 2.440 . S
O427 C411 1.266 . S
O428 Tb400 2.325 . S
O428 Tb401 2.658 . S
O428 C418 1.281 . S
O429 Tb401 2.409 . S
O429 C418 1.254 . S
O430 Tb401 2.378 . S
O430 C419 1.236 . S
O431 Tb400 2.341 . S
O431 C419 1.266 . S
H432 C404 0.929 . S
H433 C405 0.931 . S
H434 C407 0.930 . S
H435 C408 0.930 . S
H436 C413 0.929 . S
H437 C414 0.931 1_554 S
H438 C416 0.930 . S
H439 C417 0.930 . S
Tb440 C442 2.809 1_554 S
Tb440 O460 2.484 1_554 S
Tb440 O461 2.440 1_554 S
Tb440 O462 2.658 . S
Tb440 O463 2.409 . S
Tb440 O464 2.378 . S
Tb440 O468 2.325 . S
Tb440 O471 2.341 . S
Tb441 C451 2.809 . S
Tb441 O462 2.325 . S
Tb441 O465 2.341 . S
Tb441 O466 2.484 . S
Tb441 O467 2.440 . S
Tb441 O468 2.658 . S
Tb441 O469 2.409 . S
Tb441 O470 2.378 . S
C442 Tb440 2.809 1_556 S
C442 C443 1.514 . S
C442 O460 1.248 . S
C442 O461 1.266 . S
C443 C442 1.514 . S
C443 C444 1.359 . S
C443 C448 1.348 . S
C444 C443 1.359 . S
C444 C445 1.380 . S
C444 H472 0.929 . S
C445 C444 1.380 . S
C445 C446 1.347 . S
C445 H473 0.931 . S
C446 C445 1.347 . S
C446 C447 1.369 . S
C447 C446 1.369 . S
C447 C448 1.408 . S
C447 H474 0.930 . S
C448 C443 1.348 . S
C448 C447 1.408 . S
C448 H475 0.930 . S
C449 O462 1.281 . S
C449 O463 1.254 . S
C450 O464 1.236 . S
C450 O465 1.266 . S
C451 Tb441 2.809 . S
C451 C452 1.514 . S
C451 O466 1.248 . S
C451 O467 1.266 . S
C452 C451 1.514 . S
C452 C453 1.359 . S
C452 C457 1.348 . S
C453 C452 1.359 . S
C453 C454 1.380 . S
C453 H476 0.929 . S
C454 C453 1.380 . S
C454 C455 1.347 . S
C454 H477 0.931 . S
C455 C454 1.347 . S
C455 C456 1.369 . S
C456 C455 1.369 . S
C456 C457 1.408 . S
C456 H478 0.930 . S
C457 C452 1.348 . S
C457 C456 1.408 . S
C457 H479 0.930 . S
C458 O468 1.281 . S
C458 O469 1.254 . S
C459 O470 1.236 . S
C459 O471 1.266 . S
O460 Tb440 2.484 1_556 S
O460 C442 1.248 . S
O461 Tb440 2.440 1_556 S
O461 C442 1.266 . S
O462 Tb440 2.658 . S
O462 Tb441 2.325 . S
O462 C449 1.281 . S
O463 Tb440 2.409 . S
O463 C449 1.254 . S
O464 Tb440 2.378 . S
O464 C450 1.236 . S
O465 Tb441 2.341 . S
O465 C450 1.266 . S
O466 Tb441 2.484 . S
O466 C451 1.248 . S
O467 Tb441 2.440 . S
O467 C451 1.266 . S
O468 Tb440 2.325 . S
O468 Tb441 2.658 . S
O468 C458 1.281 . S
O469 Tb441 2.409 . S
O469 C458 1.254 . S
O470 Tb441 2.378 . S
O470 C459 1.236 . S
O471 Tb440 2.341 . S
O471 C459 1.266 . S
H472 C444 0.929 . S
H473 C445 0.931 . S
H474 C447 0.930 . S
H475 C448 0.930 . S
H476 C453 0.929 . S
H477 C454 0.931 . S
H478 C456 0.930 . S
H479 C457 0.930 . S
C480 C481 1.369 . S
C480 C482 1.419 . S
C480 H484 0.930 . S
C481 C480 1.369 . S
C481 C490 1.429 . S
C482 C480 1.419 . S
C482 C483 1.363 . S
C482 H485 0.929 . S
C483 C482 1.363 . S
C483 C489 1.428 . S
H484 C480 0.930 . S
H485 C482 0.929 . S
S486 N487 1.613 . S
S486 N488 1.610 . S
N487 S486 1.613 . S
N487 C490 1.350 . S
N488 S486 1.610 . S
N488 C489 1.351 . S
C489 C483 1.428 . S
C489 N488 1.351 . S
C489 C490 1.434 . S
C490 C481 1.429 . S
C490 N487 1.350 . S
C490 C489 1.434 . S
C491 C492 1.369 . S
C491 C493 1.419 . S
C491 H495 0.930 . S
C492 C491 1.369 . S
C492 C501 1.429 . S
C493 C491 1.419 . S
C493 C494 1.363 . S
C493 H496 0.929 . S
C494 C493 1.363 . S
C494 C500 1.428 . S
H495 C491 0.930 . S
H496 C493 0.929 . S
S497 N498 1.613 . S
S497 N499 1.610 . S
N498 S497 1.613 . S
N498 C501 1.350 . S
N499 S497 1.610 . S
N499 C500 1.351 . S
C500 C494 1.428 . S
C500 N499 1.351 . S
C500 C501 1.434 . S
C501 C492 1.429 . S
C501 N498 1.350 . S
C501 C500 1.434 . S
C502 C503 1.369 . S
C502 C504 1.419 . S
C502 H506 0.930 . S
C503 C502 1.369 . S
C503 C512 1.429 . S
C504 C502 1.419 . S
C504 C505 1.363 . S
C504 H507 0.929 . S
C505 C504 1.363 . S
C505 C511 1.428 . S
H506 C502 0.930 . S
H507 C504 0.929 . S
S508 N509 1.613 . S
S508 N510 1.610 . S
N509 S508 1.613 . S
N509 C512 1.350 . S
N510 S508 1.610 . S
N510 C511 1.351 . S
C511 C505 1.428 . S
C511 N510 1.351 . S
C511 C512 1.434 . S
C512 C503 1.429 . S
C512 N509 1.350 . S
C512 C511 1.434 . S
C513 C514 1.369 . S
C513 C515 1.419 . S
C513 H517 0.930 . S
C514 C513 1.369 . S
C514 C523 1.429 . S
C515 C513 1.419 . S
C515 C516 1.363 . S
C515 H518 0.929 . S
C516 C515 1.363 . S
C516 C522 1.428 . S
H517 C513 0.930 . S
H518 C515 0.929 . S
S519 N520 1.613 . S
S519 N521 1.610 . S
N520 S519 1.613 . S
N520 C523 1.350 . S
N521 S519 1.610 . S
N521 C522 1.351 . S
C522 C516 1.428 . S
C522 N521 1.351 . S
C522 C523 1.434 . S
C523 C514 1.429 . S
C523 N520 1.350 . S
C523 C522 1.434 . S
C524 C525 1.369 . S
C524 C526 1.419 . S
C524 H528 0.930 . S
C525 C524 1.369 . S
C525 C534 1.429 . S
C526 C524 1.419 . S
C526 C527 1.363 . S
C526 H529 0.929 . S
C527 C526 1.363 . S
C527 C533 1.428 . S
H528 C524 0.930 . S
H529 C526 0.929 . S
S530 N531 1.613 . S
S530 N532 1.610 . S
N531 S530 1.613 . S
N531 C534 1.350 . S
N532 S530 1.610 . S
N532 C533 1.351 . S
C533 C527 1.428 . S
C533 N532 1.351 . S
C533 C534 1.434 . S
C534 C525 1.429 . S
C534 N531 1.350 . S
C534 C533 1.434 . S
C535 C536 1.369 . S
C535 C537 1.419 . S
C535 H539 0.930 . S
C536 C535 1.369 . S
C536 C545 1.429 . S
C537 C535 1.419 . S
C537 C538 1.363 . S
C537 H540 0.929 . S
C538 C537 1.363 . S
C538 C544 1.428 . S
H539 C535 0.930 . S
H540 C537 0.929 . S
S541 N542 1.613 . S
S541 N543 1.610 . S
N542 S541 1.613 . S
N542 C545 1.350 . S
N543 S541 1.610 . S
N543 C544 1.351 . S
C544 C538 1.428 . S
C544 N543 1.351 . S
C544 C545 1.434 . S
C545 C536 1.429 . S
C545 N542 1.350 . S
C545 C544 1.434 . S
C546 C547 1.369 . S
C546 C548 1.419 1_554 S
C546 H550 0.930 . S
C547 C546 1.369 . S
C547 C556 1.429 . S
C548 C546 1.419 1_556 S
C548 C549 1.363 . S
C548 H551 0.929 . S
C549 C548 1.363 . S
C549 C555 1.428 . S
H550 C546 0.930 . S
H551 C548 0.929 . S
S552 N553 1.613 . S
S552 N554 1.610 1_554 S
N553 S552 1.613 . S
N553 C556 1.350 . S
N554 S552 1.610 1_556 S
N554 C555 1.351 . S
C555 C549 1.428 . S
C555 N554 1.351 . S
C555 C556 1.434 1_556 S
C556 C547 1.429 . S
C556 N553 1.350 . S
C556 C555 1.434 1_554 S
C557 C558 1.369 . S
C557 C559 1.419 . S
C557 H561 0.930 . S
C558 C557 1.369 . S
C558 C567 1.429 . S
C559 C557 1.419 . S
C559 C560 1.363 . S
C559 H562 0.929 . S
C560 C559 1.363 . S
C560 C566 1.428 . S
H561 C557 0.930 . S
H562 C559 0.929 . S
S563 N564 1.613 . S
S563 N565 1.610 . S
N564 S563 1.613 . S
N564 C567 1.350 . S
N565 S563 1.610 . S
N565 C566 1.351 . S
C566 C560 1.428 . S
C566 N565 1.351 . S
C566 C567 1.434 . S
C567 C558 1.429 . S
C567 N564 1.350 . S
C567 C566 1.434 . S
C568 C569 1.369 . S
C568 C570 1.419 . S
C568 H572 0.930 . S
C569 C568 1.369 . S
C569 C578 1.429 . S
C570 C568 1.419 . S
C570 C571 1.363 . S
C570 H573 0.929 . S
C571 C570 1.363 . S
C571 C577 1.428 . S
H572 C568 0.930 . S
H573 C570 0.929 . S
S574 N575 1.613 . S
S574 N576 1.610 . S
N575 S574 1.613 . S
N575 C578 1.350 . S
N576 S574 1.610 . S
N576 C577 1.351 . S
C577 C571 1.428 . S
C577 N576 1.351 . S
C577 C578 1.434 . S
C578 C569 1.429 . S
C578 N575 1.350 . S
C578 C577 1.434 . S
C579 C580 1.369 . S
C579 C581 1.419 1_554 S
C579 H583 0.930 . S
C580 C579 1.369 . S
C580 C589 1.429 . S
C581 C579 1.419 1_556 S
C581 C582 1.363 . S
C581 H584 0.929 . S
C582 C581 1.363 . S
C582 C588 1.428 . S
H583 C579 0.930 . S
H584 C581 0.929 . S
S585 N586 1.613 1_556 S
S585 N587 1.610 . S
N586 S585 1.613 1_554 S
N586 C589 1.350 . S
N587 S585 1.610 . S
N587 C588 1.351 . S
C588 C582 1.428 . S
C588 N587 1.351 . S
C588 C589 1.434 1_556 S
C589 C580 1.429 . S
C589 N586 1.350 . S
C589 C588 1.434 1_554 S
C590 C591 1.369 . S
C590 C592 1.419 . S
C590 H594 0.930 . S
C591 C590 1.369 . S
C591 C600 1.429 . S
C592 C590 1.419 . S
C592 C593 1.363 . S
C592 H595 0.929 . S
C593 C592 1.363 . S
C593 C599 1.428 . S
H594 C590 0.930 . S
H595 C592 0.929 . S
S596 N597 1.613 . S
S596 N598 1.610 . S
N597 S596 1.613 . S
N597 C600 1.350 . S
N598 S596 1.610 . S
N598 C599 1.351 . S
C599 C593 1.428 . S
C599 N598 1.351 . S
C599 C600 1.434 . S
C600 C591 1.429 . S
C600 N597 1.350 . S
C600 C599 1.434 . S
C601 C602 1.369 . S
C601 C603 1.419 . S
C601 H605 0.930 . S
C602 C601 1.369 . S
C602 C611 1.429 . S
C603 C601 1.419 . S
C603 C604 1.363 . S
C603 H606 0.929 . S
C604 C603 1.363 . S
C604 C610 1.428 . S
H605 C601 0.930 . S
H606 C603 0.929 . S
S607 N608 1.613 . S
S607 N609 1.610 . S
N608 S607 1.613 . S
N608 C611 1.350 . S
N609 S607 1.610 . S
N609 C610 1.351 . S
C610 C604 1.428 . S
C610 N609 1.351 . S
C610 C611 1.434 . S
C611 C602 1.429 . S
C611 N608 1.350 . S
C611 C610 1.434 . S
C612 C613 1.369 . S
C612 C614 1.419 1_556 S
C612 H616 0.930 . S
C613 C612 1.369 . S
C613 C622 1.429 1_565 S
C614 C612 1.419 1_554 S
C614 C615 1.363 1_565 S
C614 H617 0.929 . S
C615 C614 1.363 1_545 S
C615 C621 1.446 . S
H616 C612 0.930 . S
H617 C614 0.929 . S
S618 N619 1.613 . S
S618 N620 1.610 . S
N619 S618 1.613 . S
N619 C622 1.350 . S
N620 S618 1.610 . S
N620 C621 1.349 1_556 S
C621 C615 1.446 . S
C621 N620 1.349 1_554 S
C621 C622 1.417 1_554 S
C622 C613 1.429 1_545 S
C622 N619 1.350 . S
C622 C621 1.417 1_556 S
C623 C624 1.369 . S
C623 C625 1.419 . S
C623 H627 0.930 . S
C624 C623 1.369 . S
C624 C633 1.429 . S
C625 C623 1.419 . S
C625 C626 1.363 . S
C625 H628 0.929 . S
C626 C625 1.363 . S
C626 C632 1.428 . S
H627 C623 0.930 . S
H628 C625 0.929 . S
S629 N630 1.613 . S
S629 N631 1.610 . S
N630 S629 1.613 . S
N630 C633 1.350 . S
N631 S629 1.610 . S
N631 C632 1.351 . S
C632 C626 1.428 . S
C632 N631 1.351 . S
C632 C633 1.434 . S
C633 C624 1.429 . S
C633 N630 1.350 . S
C633 C632 1.434 . S
C634 C635 1.369 1_655 S
C634 C636 1.419 . S
C634 H638 0.930 . S
C635 C634 1.369 1_455 S
C635 C644 1.429 . S
C636 C634 1.419 . S
C636 C637 1.363 . S
C636 H639 0.929 . S
C637 C636 1.363 . S
C637 C643 1.428 1_655 S
H638 C634 0.930 . S
H639 C636 0.929 . S
S640 N641 1.613 . S
S640 N642 1.610 . S
N641 S640 1.613 . S
N641 C644 1.350 . S
N642 S640 1.610 . S
N642 C643 1.351 . S
C643 C637 1.428 1_455 S
C643 N642 1.351 . S
C643 C644 1.434 . S
C644 C635 1.429 . S
C644 N641 1.350 . S
C644 C643 1.434 . S
C645 C646 1.369 1_545 S
C645 C647 1.419 1_554 S
C645 H649 0.930 . S
C646 C645 1.369 1_565 S
C646 C655 1.429 . S
C647 C645 1.419 1_556 S
C647 C648 1.363 . S
C647 H650 0.929 . S
C648 C647 1.363 . S
C648 C654 1.428 1_545 S
H649 C645 0.930 . S
H650 C647 0.929 . S
S651 N652 1.613 1_556 S
S651 N653 1.610 . S
N652 S651 1.613 1_554 S
N652 C655 1.350 . S
N653 S651 1.610 . S
N653 C654 1.351 . S
C654 C648 1.428 1_565 S
C654 N653 1.351 . S
C654 C655 1.434 1_556 S
C655 C646 1.429 . S
C655 N652 1.350 . S
C655 C654 1.434 1_554 S
C656 C657 1.369 . S
C656 C658 1.419 . S
C656 H660 0.930 . S
C657 C656 1.369 . S
C657 C666 1.429 . S
C658 C656 1.419 . S
C658 C659 1.363 . S
C658 H661 0.929 . S
C659 C658 1.363 . S
C659 C665 1.428 . S
H660 C656 0.930 . S
H661 C658 0.929 . S
S662 N663 1.613 . S
S662 N664 1.610 . S
N663 S662 1.613 . S
N663 C666 1.350 . S
N664 S662 1.610 . S
N664 C665 1.351 . S
C665 C659 1.428 . S
C665 N664 1.351 . S
C665 C666 1.434 . S
C666 C657 1.429 . S
C666 N663 1.350 . S
C666 C665 1.434 . S
C667 C668 1.369 . S
C667 C669 1.419 . S
C667 H671 0.930 . S
C668 C667 1.369 . S
C668 C677 1.429 1_455 S
C669 C667 1.419 . S
C669 C670 1.363 1_455 S
C669 H672 0.929 . S
C670 C669 1.363 1_655 S
C670 C676 1.428 . S
H671 C667 0.930 . S
H672 C669 0.929 . S
S673 N674 1.613 . S
S673 N675 1.610 . S
N674 S673 1.613 . S
N674 C677 1.350 . S
N675 S673 1.610 . S
N675 C676 1.351 . S
C676 C670 1.428 . S
C676 N675 1.351 . S
C676 C677 1.434 . S
C677 C668 1.429 1_655 S
C677 N674 1.350 . S
C677 C676 1.434 . S
C678 C679 1.369 . S
C678 C680 1.419 . S
C678 H682 0.930 . S
C679 C678 1.369 . S
C679 C688 1.429 1_545 S
C680 C678 1.419 . S
C680 C681 1.363 1_545 S
C680 H683 0.929 . S
C681 C680 1.363 1_565 S
C681 C687 1.428 . S
H682 C678 0.930 . S
H683 C680 0.929 . S
S684 N685 1.613 . S
S684 N686 1.610 . S
N685 S684 1.613 . S
N685 C688 1.350 . S
N686 S684 1.610 . S
N686 C687 1.351 . S
C687 C681 1.428 . S
C687 N686 1.351 . S
C687 C688 1.434 . S
C688 C679 1.429 1_565 S
C688 N685 1.350 . S
C688 C687 1.434 . S
C689 C690 1.369 . S
C689 C691 1.419 . S
C689 H693 0.930 . S
C690 C689 1.369 . S
C690 C699 1.429 . S
C691 C689 1.419 . S
C691 C692 1.363 . S
C691 H694 0.929 . S
C692 C691 1.363 . S
C692 C698 1.428 . S
H693 C689 0.930 . S
H694 C691 0.929 . S
S695 N696 1.613 . S
S695 N697 1.610 . S
N696 S695 1.613 . S
N696 C699 1.350 . S
N697 S695 1.610 . S
N697 C698 1.351 . S
C698 C692 1.428 . S
C698 N697 1.351 . S
C698 C699 1.434 . S
C699 C690 1.429 . S
C699 N696 1.350 . S
C699 C698 1.434 . S
C700 C701 1.369 . S
C700 C702 1.419 . S
C700 H704 0.930 . S
C701 C700 1.369 . S
C701 C710 1.429 1_655 S
C702 C700 1.419 . S
C702 C703 1.363 1_655 S
C702 H705 0.929 . S
C703 C702 1.363 1_455 S
C703 C709 1.428 . S
H704 C700 0.930 . S
H705 C702 0.929 . S
S706 N707 1.613 . S
S706 N708 1.610 . S
N707 S706 1.613 . S
N707 C710 1.350 . S
N708 S706 1.610 . S
N708 C709 1.351 . S
C709 C703 1.428 . S
C709 N708 1.351 . S
C709 C710 1.434 . S
C710 C701 1.429 1_455 S
C710 N707 1.350 . S
C710 C709 1.434 . S
C711 C712 1.369 . S
C711 C713 1.419 1_455 S
C711 H715 0.930 . S
C712 C711 1.369 . S
C712 C721 1.414 1_455 S
C713 C711 1.419 1_655 S
C713 C714 1.363 . S
C713 H716 0.921 . S
C714 C713 1.363 . S
C714 C720 1.428 . S
H715 C711 0.930 . S
H716 C713 0.921 . S
S717 N718 1.613 . S
S717 N719 1.610 . S
N718 S717 1.613 . S
N718 C721 1.345 . S
N719 S717 1.610 . S
N719 C720 1.351 . S
C720 C714 1.428 . S
C720 N719 1.351 . S
C720 C721 1.456 . S
C721 C712 1.414 1_655 S
C721 N718 1.345 . S
C721 C720 1.456 . S
C722 C723 1.369 . S
C722 C724 1.419 1_565 S
C722 H726 0.930 . S
C723 C722 1.369 . S
C723 C732 1.429 . S
C724 C722 1.419 1_545 S
C724 C725 1.363 . S
C724 H727 0.929 . S
C725 C724 1.363 . S
C725 C731 1.428 . S
H726 C722 0.930 . S
H727 C724 0.929 . S
S728 N729 1.613 . S
S728 N730 1.610 1_565 S
N729 S728 1.613 . S
N729 C732 1.350 . S
N730 S728 1.610 1_545 S
N730 C731 1.351 . S
C731 C725 1.428 . S
C731 N730 1.351 . S
C731 C732 1.434 1_545 S
C732 C723 1.429 . S
C732 N729 1.350 . S
C732 C731 1.434 1_565 S
C733 C734 1.369 . S
C733 C735 1.419 . S
C733 H737 0.930 . S
C734 C733 1.369 . S
C734 C743 1.429 . S
C735 C733 1.419 . S
C735 C736 1.363 . S
C735 H738 0.929 . S
C736 C735 1.363 . S
C736 C742 1.428 . S
H737 C733 0.930 . S
H738 C735 0.929 . S
S739 N740 1.613 1_556 S
S739 N741 1.610 1_556 S
N740 S739 1.613 1_554 S
N740 C743 1.350 . S
N741 S739 1.610 1_554 S
N741 C742 1.351 . S
C742 C736 1.428 . S
C742 N741 1.351 . S
C742 C743 1.434 . S
C743 C734 1.429 . S
C743 N740 1.350 . S
C743 C742 1.434 . S
C744 C745 1.369 . S
C744 C746 1.419 1_565 S
C744 H748 0.930 . S
C745 C744 1.369 . S
C745 C754 1.429 . S
C746 C744 1.419 1_545 S
C746 C747 1.363 . S
C746 H749 0.929 . S
C747 C746 1.363 . S
C747 C753 1.428 . S
H748 C744 0.930 . S
H749 C746 0.929 . S
S750 N751 1.613 1_545 S
S750 N752 1.610 . S
N751 S750 1.613 1_565 S
N751 C754 1.350 . S
N752 S750 1.610 . S
N752 C753 1.351 . S
C753 C747 1.428 . S
C753 N752 1.351 . S
C753 C754 1.434 1_545 S
C754 C745 1.429 . S
C754 N751 1.350 . S
C754 C753 1.434 1_565 S
C755 C756 1.369 . S
C755 C757 1.419 . S
C755 H759 0.930 . S
C756 C755 1.369 . S
C756 C765 1.429 . S
C757 C755 1.419 . S
C757 C758 1.363 . S
C757 H760 0.929 . S
C758 C757 1.363 . S
C758 C764 1.428 . S
H759 C755 0.930 . S
H760 C757 0.929 . S
S761 N762 1.613 . S
S761 N763 1.610 . S
N762 S761 1.613 . S
N762 C765 1.350 . S
N763 S761 1.610 . S
N763 C764 1.351 . S
C764 C758 1.428 . S
C764 N763 1.351 . S
C764 C765 1.434 . S
C765 C756 1.429 . S
C765 N762 1.350 . S
C765 C764 1.434 . S
C766 C767 1.369 . S
C766 C768 1.419 1_655 S
C766 H770 0.930 . S
C767 C766 1.369 . S
C767 C776 1.429 . S
C768 C766 1.419 1_455 S
C768 C769 1.363 . S
C768 H771 0.929 . S
C769 C768 1.363 . S
C769 C775 1.428 . S
H770 C766 0.930 . S
H771 C768 0.929 . S
S772 N773 1.613 1_455 S
S772 N774 1.610 . S
N773 S772 1.613 1_655 S
N773 C776 1.350 . S
N774 S772 1.610 . S
N774 C775 1.351 . S
C775 C769 1.428 . S
C775 N774 1.351 . S
C775 C776 1.434 1_455 S
C776 C767 1.429 . S
C776 N773 1.350 . S
C776 C775 1.434 1_655 S
C777 C778 1.369 . S
C777 C779 1.419 1_545 S
C777 H781 0.930 . S
C778 C777 1.369 . S
C778 C787 1.429 . S
C779 C777 1.419 1_565 S
C779 C780 1.363 . S
C779 H782 0.929 . S
C780 C779 1.363 . S
C780 C786 1.428 . S
H781 C777 0.930 . S
H782 C779 0.929 . S
S783 N784 1.613 1_565 S
S783 N785 1.610 . S
N784 S783 1.613 1_545 S
N784 C787 1.350 . S
N785 S783 1.610 . S
N785 C786 1.351 . S
C786 C780 1.428 . S
C786 N785 1.351 . S
C786 C787 1.434 1_565 S
C787 C778 1.429 . S
C787 N784 1.350 . S
C787 C786 1.434 1_545 S
C788 C789 1.369 . S
C788 C790 1.419 . S
C788 H792 0.930 . S
C789 C788 1.369 . S
C789 C798 1.429 . S
C790 C788 1.419 . S
C790 C791 1.363 . S
C790 H793 0.929 . S
C791 C790 1.363 . S
C791 C797 1.428 . S
H792 C788 0.930 . S
H793 C790 0.929 . S
S794 N795 1.613 . S
S794 N796 1.610 . S
N795 S794 1.613 . S
N795 C798 1.350 . S
N796 S794 1.610 . S
N796 C797 1.351 . S
C797 C791 1.428 . S
C797 N796 1.351 . S
C797 C798 1.434 . S
C798 C789 1.429 . S
C798 N795 1.350 . S
C798 C797 1.434 . S
C799 C800 1.369 . S
C799 C801 1.419 1_455 S
C799 H803 0.930 . S
C800 C799 1.369 . S
C800 C809 1.429 . S
C801 C799 1.419 1_655 S
C801 C802 1.363 . S
C801 H804 0.929 . S
C802 C801 1.363 . S
C802 C808 1.428 . S
H803 C799 0.930 . S
H804 C801 0.929 . S
S805 N806 1.613 1_655 S
S805 N807 1.610 . S
N806 S805 1.613 1_455 S
N806 C809 1.350 . S
N807 S805 1.610 . S
N807 C808 1.351 . S
C808 C802 1.428 . S
C808 N807 1.351 . S
C808 C809 1.434 1_655 S
C809 C800 1.429 . S
C809 N806 1.350 . S
C809 C808 1.434 1_455 S
C810 C811 1.369 . S
C810 C812 1.419 . S
C810 H814 0.930 . S
C811 C810 1.369 . S
C811 C820 1.429 . S
C812 C810 1.419 . S
C812 C813 1.363 . S
C812 H815 0.929 . S
C813 C812 1.363 . S
C813 C819 1.428 . S
H814 C810 0.930 . S
H815 C812 0.929 . S
S816 N817 1.613 . S
S816 N818 1.610 . S
N817 S816 1.613 . S
N817 C820 1.350 . S
N818 S816 1.610 . S
N818 C819 1.351 . S
C819 C813 1.428 . S
C819 N818 1.351 . S
C819 C820 1.434 . S
C820 C811 1.429 . S
C820 N817 1.350 . S
C820 C819 1.434 . S
C821 C822 1.369 . S
C821 C823 1.419 . S
C821 H825 0.930 . S
C822 C821 1.369 . S
C822 C831 1.429 . S
C823 C821 1.419 . S
C823 C824 1.363 . S
C823 H826 0.929 . S
C824 C823 1.363 . S
C824 C830 1.428 . S
H825 C821 0.930 . S
H826 C823 0.929 . S
S827 N828 1.613 . S
S827 N829 1.610 . S
N828 S827 1.613 . S
N828 C831 1.350 . S
N829 S827 1.610 . S
N829 C830 1.351 . S
C830 C824 1.428 . S
C830 N829 1.351 . S
C830 C831 1.434 . S
C831 C822 1.429 . S
C831 N828 1.350 . S
C831 C830 1.434 . S
C832 C833 1.369 . S
C832 C834 1.419 . S
C832 H836 0.930 . S
C833 C832 1.369 . S
C833 C842 1.429 . S
C834 C832 1.419 . S
C834 C835 1.363 . S
C834 H837 0.929 . S
C835 C834 1.363 . S
C835 C841 1.428 . S
H836 C832 0.930 . S
H837 C834 0.929 . S
S838 N839 1.613 . S
S838 N840 1.610 . S
N839 S838 1.613 . S
N839 C842 1.350 . S
N840 S838 1.610 . S
N840 C841 1.351 . S
C841 C835 1.428 . S
C841 N840 1.351 . S
C841 C842 1.434 . S
C842 C833 1.429 . S
C842 N839 1.350 . S
C842 C841 1.434 . S
C843 C844 1.369 . S
C843 C845 1.419 . S
C843 H847 0.930 . S
C844 C843 1.369 . S
C844 C853 1.429 . S
C845 C843 1.419 . S
C845 C846 1.363 . S
C845 H848 0.929 . S
C846 C845 1.363 . S
C846 C852 1.428 . S
H847 C843 0.930 . S
H848 C845 0.929 . S
S849 N850 1.613 . S
S849 N851 1.610 . S
N850 S849 1.613 . S
N850 C853 1.350 . S
N851 S849 1.610 . S
N851 C852 1.351 . S
C852 C846 1.428 . S
C852 N851 1.351 . S
C852 C853 1.434 . S
C853 C844 1.429 . S
C853 N850 1.350 . S
C853 C852 1.434 . S
C854 C855 1.369 . S
C854 C856 1.419 . S
C854 H858 0.930 . S
C855 C854 1.369 . S
C855 C864 1.429 . S
C856 C854 1.419 . S
C856 C857 1.363 . S
C856 H859 0.929 . S
C857 C856 1.363 . S
C857 C863 1.428 . S
H858 C854 0.930 . S
H859 C856 0.929 . S
S860 N861 1.613 . S
S860 N862 1.610 . S
N861 S860 1.613 . S
N861 C864 1.350 . S
N862 S860 1.610 . S
N862 C863 1.351 . S
C863 C857 1.428 . S
C863 N862 1.351 . S
C863 C864 1.434 . S
C864 C855 1.429 . S
C864 N861 1.350 . S
C864 C863 1.434 . S
C865 C866 1.369 . S
C865 C867 1.419 . S
C865 H869 0.930 . S
C866 C865 1.369 . S
C866 C875 1.429 . S
C867 C865 1.419 . S
C867 C868 1.363 . S
C867 H870 0.929 . S
C868 C867 1.363 . S
C868 C874 1.428 . S
H869 C865 0.930 . S
H870 C867 0.929 . S
S871 N872 1.613 . S
S871 N873 1.610 . S
N872 S871 1.613 . S
N872 C875 1.350 . S
N873 S871 1.610 . S
N873 C874 1.351 . S
C874 C868 1.428 . S
C874 N873 1.351 . S
C874 C875 1.434 . S
C875 C866 1.429 . S
C875 N872 1.350 . S
C875 C874 1.434 . S
C481 C9 1.322 . S
C483 C329 1.328 . S
C492 C49 1.334 . S
C494 C369 1.329 . S
C503 C89 1.328 . S
C505 C409 1.334 . S
C514 C449 1.329 . S
C516 C129 1.333 . S
C525 C169 1.336 . S
C527 C249 1.326 . S
C536 C289 1.327 . S
C538 C209 1.324 . S
C547 C415 1.341 . S
C549 C15 1.340 . S
C558 C455 1.347 . S
C560 C55 1.339 . S
C569 C95 1.342 . S
C571 C255 1.346 . S
C580 C295 1.344 . S
C582 C135 1.346 . S
C591 C335 1.338 . S
C593 C175 1.346 . S
C602 C215 1.342 . S
C604 C375 1.346 . S
C613 C299 4.360 . S
C615 C19 4.361 . S
C624 C339 4.362 . S
C626 C59 4.362 . S
C635 C379 4.361 . S
C637 C99 4.360 . S
C646 C139 4.361 . S
C648 C419 4.360 . S
C657 C179 4.360 . S
C659 C459 4.362 . S
C668 C219 4.359 . S
C670 C259 4.361 . S
C679 C18 1.158 . S
C681 C138 1.146 . S
C690 C58 1.159 . S
C692 C178 1.147 . S
C701 C98 1.159 . S
C703 C218 1.148 . S
C712 C378 1.155 . S
C714 C258 1.146 . S
C723 C298 1.151 . S
C725 C418 1.155 . S
C734 C458 1.149 . S
C736 C338 1.156 . S
C745 C286 0.805 . S
C747 C6 0.787 . S
C756 C326 0.782 . S
C758 C46 0.810 . S
C767 C86 0.815 . S
C769 C366 0.790 . S
C778 C406 0.801 . S
C780 C126 0.789 . S
C789 C446 0.794 . S
C791 C166 0.793 . S
C800 C206 0.793 . S
C802 C246 0.794 . S
C811 C10 4.800 . S
C813 C410 4.801 . S
C822 C50 4.800 . S
C824 C450 4.800 1_556 S
C833 C90 4.800 1_554 S
C835 C250 4.801 . S
C844 C130 4.801 . S
C846 C290 4.801 . S
C855 C170 4.801 . S
C857 C330 4.801 1_556 S
C866 C370 4.801 . S
C868 C210 4.801 1_554 S
