# Generated by pormake.
# Topology acs-h, (5)-cn, num edge types: 1
# Building blocks:
#     Node 0, Type 0, BuildingBlock: BEQFEK_clean_sbu_0, # of connection points: 5
#     Node 1, Type 0, BuildingBlock: BEQFEK_clean_sbu_0, # of connection points: 5
#     Node 2, Type 0, BuildingBlock: BEQFEK_clean_sbu_0, # of connection points: 5
#     Node 3, Type 0, BuildingBlock: BEQFEK_clean_sbu_0, # of connection points: 5
#     Node 4, Type 0, BuildingBlock: BEQFEK_clean_sbu_0, # of connection points: 5
#     Node 5, Type 0, BuildingBlock: BEQFEK_clean_sbu_0, # of connection points: 5
#     Node 6, Type 0, BuildingBlock: BEQFEK_clean_sbu_0, # of connection points: 5
#     Node 7, Type 0, BuildingBlock: BEQFEK_clean_sbu_0, # of connection points: 5
#     Node 8, Type 0, BuildingBlock: BEQFEK_clean_sbu_0, # of connection points: 5
#     Node 9, Type 0, BuildingBlock: BEQFEK_clean_sbu_0, # of connection points: 5
#     Node 10, Type 0, BuildingBlock: BEQFEK_clean_sbu_0, # of connection points: 5
#     Node 11, Type 0, BuildingBlock: BEQFEK_clean_sbu_0, # of connection points: 5
#     Edge 12, Type (0, 0), BuildingBlock: XIVTED_clean_linker_0, # of connection points: 2
#     Edge 13, Type (0, 0), BuildingBlock: XIVTED_clean_linker_0, # of connection points: 2
#     Edge 14, Type (0, 0), BuildingBlock: XIVTED_clean_linker_0, # of connection points: 2
#     Edge 15, Type (0, 0), BuildingBlock: XIVTED_clean_linker_0, # of connection points: 2
#     Edge 16, Type (0, 0), BuildingBlock: XIVTED_clean_linker_0, # of connection points: 2
#     Edge 17, Type (0, 0), BuildingBlock: XIVTED_clean_linker_0, # of connection points: 2
#     Edge 18, Type (0, 0), BuildingBlock: XIVTED_clean_linker_0, # of connection points: 2
#     Edge 19, Type (0, 0), BuildingBlock: XIVTED_clean_linker_0, # of connection points: 2
#     Edge 20, Type (0, 0), BuildingBlock: XIVTED_clean_linker_0, # of connection points: 2
#     Edge 21, Type (0, 0), BuildingBlock: XIVTED_clean_linker_0, # of connection points: 2
#     Edge 22, Type (0, 0), BuildingBlock: XIVTED_clean_linker_0, # of connection points: 2
#     Edge 23, Type (0, 0), BuildingBlock: XIVTED_clean_linker_0, # of connection points: 2
#     Edge 24, Type (0, 0), BuildingBlock: XIVTED_clean_linker_0, # of connection points: 2
#     Edge 25, Type (0, 0), BuildingBlock: XIVTED_clean_linker_0, # of connection points: 2
#     Edge 26, Type (0, 0), BuildingBlock: XIVTED_clean_linker_0, # of connection points: 2
#     Edge 27, Type (0, 0), BuildingBlock: XIVTED_clean_linker_0, # of connection points: 2
#     Edge 28, Type (0, 0), BuildingBlock: XIVTED_clean_linker_0, # of connection points: 2
#     Edge 29, Type (0, 0), BuildingBlock: XIVTED_clean_linker_0, # of connection points: 2
#     Edge 30, Type (0, 0), BuildingBlock: XIVTED_clean_linker_0, # of connection points: 2
#     Edge 31, Type (0, 0), BuildingBlock: XIVTED_clean_linker_0, # of connection points: 2
#     Edge 32, Type (0, 0), BuildingBlock: XIVTED_clean_linker_0, # of connection points: 2
#     Edge 33, Type (0, 0), BuildingBlock: XIVTED_clean_linker_0, # of connection points: 2
#     Edge 34, Type (0, 0), BuildingBlock: XIVTED_clean_linker_0, # of connection points: 2
#     Edge 35, Type (0, 0), BuildingBlock: XIVTED_clean_linker_0, # of connection points: 2
#     Edge 36, Type (0, 0), BuildingBlock: XIVTED_clean_linker_0, # of connection points: 2
#     Edge 37, Type (0, 0), BuildingBlock: XIVTED_clean_linker_0, # of connection points: 2
#     Edge 38, Type (0, 0), BuildingBlock: XIVTED_clean_linker_0, # of connection points: 2
#     Edge 39, Type (0, 0), BuildingBlock: XIVTED_clean_linker_0, # of connection points: 2
#     Edge 40, Type (0, 0), BuildingBlock: XIVTED_clean_linker_0, # of connection points: 2
#     Edge 41, Type (0, 0), BuildingBlock: XIVTED_clean_linker_0, # of connection points: 2
# Relax obj value: 1.226
# Max RMSD: 0.210
# Mean RMSD: 0.210
data_MOF--net-acs-h--node1-BEQFEK_clean_sbu_0--edge1-XIVTED_clean_linker_0
_symmetry_space_group_name_H-M    P1
_symmetry_Int_Tables_number       1
_symmetry_cell_setting            triclinic
loop_
_symmetry_equiv_pos_as_xyz
'x, y, z'
_cell_length_a     42.526492
_cell_length_b     42.565293
_cell_length_c     37.397455
_cell_angle_alpha  89.936558
_cell_angle_beta   90.172673
_cell_angle_gamma 120.04297
loop_
_atom_site_label
_atom_site_type_symbol
_atom_site_fract_x
_atom_site_fract_y
_atom_site_fract_z
_atom_type_partial_charge
Co0 Co 0.4294 0.06005 0.10199 0.0
Co1 Co 0.44523 0.13073 0.06438 0.0
C2 C 0.50548 0.12512 0.08944 0.0
O3 O 0.48366 0.09133 0.09432 0.0
O4 O 0.49383 0.14678 0.08291 0.0
C5 C 0.44218 0.00601 0.1272 0.0
O6 O 0.45721 0.01142 0.09546 0.0
C7 C 0.4773 0.20272 0.03363 0.0
C8 C 0.4313 0.2128 0.03079 0.0
C9 C 0.46887 0.22999 0.02816 0.0
N10 N 0.4466 0.17162 0.04107 0.0
N11 N 0.41898 0.17748 0.03804 0.0
C12 C 0.51363 0.20536 0.03 0.0
H13 H 0.51018 0.17921 0.02018 0.0
H14 H 0.52727 0.21122 0.05645 0.0
H15 H 0.53116 0.22733 0.01112 0.0
C16 C 0.39218 0.08282 0.15313 0.0
N17 N 0.40859 0.08593 0.12159 0.0
N18 N 0.41449 0.11583 0.10546 0.0
C19 C 0.40351 0.13375 0.12725 0.0
C20 C 0.38843 0.11311 0.15796 0.0
C21 C 0.38283 0.05264 0.17908 0.0
H22 H 0.37046 0.02638 0.16459 0.0
H23 H 0.40807 0.05678 0.19222 0.0
H24 H 0.36368 0.05157 0.1998 0.0
O25 O 0.40653 0.04008 0.05641 0.0
O26 O 0.43964 0.09223 0.02902 0.0
H27 H 0.39328 0.17493 0.10751 0.0
H28 H 0.41795 0.18646 0.14899 0.0
C29 C 0.41461 0.17295 0.12278 0.0
H30 H 0.44068 0.18753 0.10815 0.0
H31 H 0.39205 0.15806 0.04342 0.0
O32 O 0.42427 0.02165 0.13475 0.0
C33 C 0.42439 0.05764 0.0292 0.0
Co34 Co 0.93525 0.3827 0.08805 0.0
Co35 Co 0.86987 0.32609 0.03976 0.0
C36 C 0.88563 0.4026 0.04924 0.0
O37 O 0.91431 0.41187 0.06759 0.0
O38 O 0.86545 0.37002 0.03872 0.0
C39 C 0.98914 0.44618 0.12334 0.0
O40 O 0.9806 0.46248 0.09853 0.0
C41 C 0.79216 0.28053 0.03082 0.0
C42 C 0.78597 0.23177 0.00364 0.0
C43 C 0.76652 0.24527 0.0212 0.0
N44 N 0.82524 0.28692 0.02099 0.0
N45 N 0.82129 0.25802 0.00383 0.0
C46 C 0.7858 0.30792 0.04965 0.0
H47 H 0.79877 0.3336 0.03433 0.0
H48 H 0.79848 0.31345 0.0766 0.0
H49 H 0.75655 0.29907 0.0518 0.0
C50 C 0.89288 0.33059 0.14448 0.0
N51 N 0.89851 0.3417 0.11021 0.0
N52 N 0.87474 0.31562 0.08934 0.0
C53 C 0.85354 0.28665 0.11005 0.0
C54 C 0.86397 0.29532 0.14552 0.0
C55 C 0.91389 0.35404 0.17544 0.0
H56 H 0.93952 0.35339 0.17845 0.0
H57 H 0.92098 0.38253 0.17036 0.0
H58 H 0.89823 0.34441 0.20067 0.0
O59 O 0.95093 0.36058 0.05145 0.0
O60 O 0.91312 0.34171 0.00729 0.0
H61 H 0.83293 0.24483 0.07015 0.0
H62 H 0.82055 0.22854 0.11531 0.0
C63 C 0.82487 0.25047 0.09641 0.0
H64 H 0.7989 0.25036 0.0937 0.0
H65 H 0.84287 0.25521 -0.00548 0.0
O66 O 0.97413 0.4118 0.12281 0.0
C67 C 0.94426 0.36491 0.01945 0.0
Co68 Co 0.64324 0.56974 0.08053 0.0
Co69 Co 0.70031 0.56434 0.03401 0.0
C70 C 0.63478 0.49841 0.05241 0.0
O71 O 0.62217 0.51773 0.06494 0.0
O72 O 0.66771 0.51258 0.04257 0.0
C73 C 0.57541 0.55122 0.1066 0.0
O74 O 0.56717 0.5391 0.07365 0.0
C75 C 0.75184 0.54588 0.00229 0.0
C76 C 0.79882 0.5998 0.99018 0.0
C77 C 0.78765 0.56315 0.99091 0.0
N78 N 0.74225 0.57113 0.00815 0.0
N79 N 0.77018 0.60324 -8e-05 0.0
C80 C 0.729 0.50681 0.01288 0.0
H81 H 0.72348 0.50502 0.04199 0.0
H82 H 0.74219 0.49064 0.00696 0.0
H83 H 0.70266 0.49472 -0.00155 0.0
C84 C 0.70159 0.5956 0.13417 0.0
N85 N 0.68945 0.58732 0.10034 0.0
N86 N 0.71437 0.58653 0.08031 0.0
C87 C 0.74314 0.59351 0.10119 0.0
C88 C 0.73601 0.5995 0.13611 0.0
C89 C 0.67907 0.59633 0.16448 0.0
H90 H 0.66541 0.61163 0.1564 0.0
H91 H 0.65768 0.56814 0.17087 0.0
H92 H 0.69591 0.60908 0.18865 0.0
O93 O 0.64689 0.60014 0.04028 0.0
O94 O 0.66723 0.57453 0.0033 0.0
H95 H 0.79083 0.60878 0.0703 0.0
H96 H 0.79013 0.58736 0.11208 0.0
C97 C 0.77323 0.58726 0.08946 0.0
H98 H 0.76162 0.56072 0.07574 0.0
H99 H 0.77057 0.62774 0.00354 0.0
O100 O 0.60865 0.56894 0.1157 0.0
C101 C 0.64625 0.58723 0.00965 0.0
Co102 Co 0.93855 0.54472 0.39334 0.0
Co103 Co 0.88157 0.54467 0.44664 0.0
C104 C 0.88837 0.47866 0.43605 0.0
O105 O 0.91591 0.49494 0.4156 0.0
O106 O 0.87196 0.49463 0.44766 0.0
C107 C 0.98911 0.53105 0.35704 0.0
O108 O 0.98289 0.50893 0.38401 0.0
C109 C 0.80635 0.51545 0.46235 0.0
C110 C 0.80339 0.55638 0.49609 0.0
C111 C 0.78223 0.5234 0.47896 0.0
N112 N 0.84031 0.5421 0.46946 0.0
N113 N 0.83852 0.56639 0.49008 0.0
C114 C 0.79718 0.48566 0.43582 0.0
H115 H 0.81887 0.49434 0.41549 0.0
H116 H 0.77108 0.47765 0.42205 0.0
H117 H 0.79456 0.4616 0.45009 0.0
C118 C 0.89539 0.5594 0.34085 0.0
N119 N 0.90277 0.55306 0.37424 0.0
N120 N 0.88275 0.55866 0.3973 0.0
C121 C 0.86197 0.56896 0.37907 0.0
C122 C 0.86905 0.56951 0.34276 0.0
C123 C 0.91266 0.55486 0.30796 0.0
H124 H 0.93876 0.58024 0.30316 0.0
H125 H 0.91853 0.53244 0.31176 0.0
H126 H 0.89489 0.54917 0.28422 0.0
O127 O 0.96146 0.58415 0.42829 0.0
O128 O 0.92787 0.56886 0.47563 0.0
H129 H 0.84789 0.59282 0.4222 0.0
H130 H 0.8332 0.59874 0.37864 0.0
C131 C 0.83688 0.57967 0.39603 0.0
H132 H 0.80992 0.55517 0.40012 0.0
H133 H 0.86109 0.5905 0.49861 0.0
O134 O 0.97353 0.54987 0.35619 0.0
C135 C 0.95761 0.57556 0.46098 0.0
Co136 Co 0.45497 0.37155 0.37952 0.0
Co137 Co 0.4473 0.32272 0.44544 0.0
C138 C 0.51999 0.37645 0.4124 0.0
O139 O 0.50659 0.38608 0.38717 0.0
O140 O 0.49967 0.35289 0.43513 0.0
C141 C 0.47212 0.39944 0.31032 0.0
O142 O 0.48998 0.38167 0.31105 0.0
C143 C 0.46149 0.26639 0.46552 0.0
C144 C 0.44392 0.25299 0.5216 0.0
C145 C 0.45987 0.24465 0.49365 0.0
N146 N 0.44651 0.2862 0.4757 0.0
N147 N 0.43587 0.27806 0.5093 0.0
C148 C 0.48054 0.27098 0.43057 0.0
H149 H 0.51019 0.28366 0.43549 0.0
H150 H 0.47548 0.28817 0.41189 0.0
H151 H 0.47129 0.24423 0.41788 0.0
C152 C 0.40582 0.29905 0.34705 0.0
N153 N 0.42382 0.3207 0.37503 0.0
N154 N 0.41901 0.30043 0.40336 0.0
C155 C 0.39747 0.26526 0.3942 0.0
C156 C 0.38909 0.26307 0.35808 0.0
C157 C 0.40779 0.31235 0.3096 0.0
H158 H 0.40553 0.33715 0.30976 0.0
H159 H 0.43416 0.3187 0.29769 0.0
H160 H 0.38585 0.29187 0.29248 0.0
O161 O 0.44147 0.39057 0.4207 0.0
O162 O 0.43501 0.35735 0.4691 0.0
H163 H 0.38298 0.24192 0.44685 0.0
H164 H 0.35797 0.21126 0.4106 0.0
C165 C 0.38492 0.23375 0.41918 0.0
H166 H 0.40417 0.2234 0.41858 0.0
H167 H 0.4242 0.29035 0.52413 0.0
O168 O 0.45361 0.3984 0.33726 0.0
C169 C 0.43523 0.38445 0.45399 0.0
Co170 Co 0.62423 0.07833 0.40218 0.0
Co171 Co 0.67991 0.13377 0.45643 0.0
C172 C 0.61291 0.13442 0.44274 0.0
O173 O 0.60161 0.10567 0.42397 0.0
O174 O 0.64528 0.15138 0.45476 0.0
C175 C 0.58193 0.06301 0.34106 0.0
O176 O 0.59515 0.09822 0.34336 0.0
C177 C 0.73337 0.20273 0.48745 0.0
C178 C 0.77557 0.19157 0.50789 0.0
C179 C 0.76795 0.21922 0.50211 0.0
N180 N 0.721 0.16694 0.48457 0.0
N181 N 0.746 0.16027 0.49768 0.0
C182 C 0.71472 0.22139 0.47131 0.0
H183 H 0.69218 0.21737 0.48908 0.0
H184 H 0.70307 0.2094 0.44489 0.0
H185 H 0.73342 0.25091 0.46781 0.0
C186 C 0.68629 0.11575 0.35243 0.0
N187 N 0.67111 0.10988 0.38506 0.0
N188 N 0.69531 0.13243 0.40814 0.0
C189 C 0.72642 0.15431 0.39029 0.0
C190 C 0.72151 0.14457 0.3544 0.0
C191 C 0.66777 0.09427 0.31962 0.0
H192 H 0.64892 0.06553 0.32666 0.0
H193 H 0.6523 0.10584 0.30682 0.0
H194 H 0.688 0.09567 0.30003 0.0
O195 O 0.63048 0.04831 0.4372 0.0
O196 O 0.64808 0.08633 0.482 0.0
H197 H 0.7683 0.17801 0.42988 0.0
H198 H 0.78151 0.19999 0.38708 0.0
C199 C 0.75877 0.1866 0.40625 0.0
H200 H 0.75108 0.20671 0.41475 0.0
H201 H 0.744 0.13482 0.49718 0.0
O202 O 0.59108 0.04722 0.36414 0.0
C203 C 0.62698 0.05467 0.46948 0.0
Co204 Co 0.54118 0.92703 0.90931 0.0
Co205 Co 0.54652 0.8727 0.96244 0.0
C206 C 0.47813 0.87588 0.95511 0.0
O207 O 0.49338 0.90327 0.93442 0.0
O208 O 0.49497 0.85997 0.96601 0.0
C209 C 0.52356 0.97664 0.88018 0.0
O210 O 0.511 0.97404 0.91273 0.0
C211 C 0.52529 0.79864 0.9777 0.0
C212 C 0.57426 0.80116 0.00077 0.0
C213 C 0.54035 0.7773 0.98649 0.0
N214 N 0.54959 0.83352 0.98473 0.0
N215 N 0.57845 0.83481 -0.00034 0.0
C216 C 0.48881 0.78644 0.96116 0.0
H217 H 0.47365 0.79546 0.97827 0.0
H218 H 0.4923 0.79907 0.9344 0.0
H219 H 0.47209 0.75652 0.95905 0.0
C220 C 0.55265 0.88261 0.85592 0.0
N221 N 0.54973 0.89192 0.88963 0.0
N222 N 0.55867 0.87405 0.91237 0.0
C223 C 0.56886 0.85367 0.89349 0.0
C224 C 0.56455 0.85766 0.85732 0.0
C225 C 0.54283 0.89634 0.82339 0.0
H226 H 0.56696 0.92197 0.8146 0.0
H227 H 0.52078 0.90218 0.82972 0.0
H228 H 0.53416 0.87641 0.8012 0.0
O229 O 0.58275 0.95349 0.94158 0.0
O230 O 0.57014 0.92002 0.98939 0.0
H231 H 0.60149 0.84718 0.93338 0.0
H232 H 0.60411 0.83107 0.88951 0.0
C233 C 0.58573 0.83324 0.90911 0.0
H234 H 0.56426 0.80546 0.91592 0.0
H235 H 0.6022 0.85882 0.00617 0.0
O236 O 0.53991 0.95946 0.8724 0.0
C237 C 0.57744 0.95011 0.97498 0.0
Co238 Co 0.07921 0.63103 0.88198 0.0
Co239 Co 0.12527 0.68148 0.94537 0.0
C240 C 0.14094 0.62592 0.91347 0.0
O241 O 0.11574 0.61557 0.89029 0.0
O242 O 0.1473 0.65131 0.93521 0.0
C243 C 0.06916 0.60405 0.81266 0.0
O244 O 0.10478 0.62371 0.81322 0.0
C245 C 0.19588 0.73523 0.97083 0.0
C246 C 0.18612 0.75709 0.02035 0.0
C247 C 0.21328 0.75987 -0.00208 0.0
N248 N 0.1599 0.71836 0.97645 0.0
N249 N 0.15411 0.73151 0.00619 0.0
C250 C 0.21355 0.72852 0.93946 0.0
H251 H 0.19413 0.71637 0.91691 0.0
H252 H 0.23755 0.75423 0.93058 0.0
H253 H 0.22323 0.70975 0.94762 0.0
C254 C 0.1015 0.70238 0.84807 0.0
N255 N 0.09969 0.68183 0.87634 0.0
N256 N 0.11928 0.70317 0.90272 0.0
C257 C 0.13478 0.73796 0.89148 0.0
C258 C 0.1246 0.73864 0.85629 0.0
C259 C 0.08419 0.68767 0.81248 0.0
H260 H 0.05786 0.66237 0.81599 0.0
H261 H 0.10258 0.68221 0.79602 0.0
H262 H 0.07921 0.70741 0.79784 0.0
O263 O 0.0467 0.61346 0.92277 0.0
O264 O 0.07829 0.64653 0.96964 0.0
H265 H 0.16213 0.79543 0.90199 0.0
H266 H 0.18809 0.77378 0.91182 0.0
C267 C 0.16055 0.77044 0.91297 0.0
H268 H 0.1516 0.76705 0.94119 0.0
H269 H 0.12843 0.72305 0.01684 0.0
O270 O 0.05122 0.60352 0.83988 0.0
C271 C 0.04949 0.62009 0.95613 0.0
Co272 Co 0.38836 0.44513 0.88942 0.0
Co273 Co 0.33535 0.45578 0.93892 0.0
C274 C 0.40621 0.5182 0.91707 0.0
O275 O 0.41664 0.49772 0.90301 0.0
O276 O 0.37427 0.50563 0.92926 0.0
C277 C 0.45071 0.45207 0.85526 0.0
O278 O 0.46693 0.47211 0.88347 0.0
C279 C 0.2903 0.48689 0.95396 0.0
C280 C 0.24917 0.44906 0.99204 0.0
C281 C 0.25968 0.48049 0.97256 0.0
N282 N 0.29807 0.46078 0.96211 0.0
N283 N 0.27361 0.43836 0.98524 0.0
C284 C 0.30913 0.51482 0.92537 0.0
H285 H 0.33318 0.53866 0.9372 0.0
H286 H 0.31832 0.50364 0.90362 0.0
H287 H 0.29101 0.52399 0.91382 0.0
C288 C 0.32764 0.42374 0.83825 0.0
N289 N 0.34238 0.43272 0.8712 0.0
N290 N 0.31837 0.43212 0.89369 0.0
C291 C 0.28723 0.42214 0.87569 0.0
C292 C 0.29213 0.41693 0.83993 0.0
C293 C 0.34859 0.42541 0.80551 0.0
H294 H 0.35081 0.40055 0.80419 0.0
H295 H 0.37649 0.44913 0.80716 0.0
H296 H 0.33519 0.42735 0.78078 0.0
O297 O 0.37912 0.41402 0.93105 0.0
O298 O 0.36199 0.43934 0.97151 0.0
H299 H 0.25007 0.40747 0.91959 0.0
H300 H 0.22913 0.39958 0.87594 0.0
C301 C 0.25336 0.41823 0.89203 0.0
H302 H 0.25506 0.44505 0.89289 0.0
H303 H 0.27276 0.41507 -0.00471 0.0
O304 O 0.41629 0.43605 0.85316 0.0
C305 C 0.38327 0.42793 0.96186 0.0
Co306 Co 0.07552 0.43927 0.57696 0.0
Co307 Co 0.13444 0.44003 0.52779 0.0
C308 C 0.13373 0.50734 0.53943 0.0
O309 O 0.1037 0.48926 0.55596 0.0
O310 O 0.15177 0.49246 0.52938 0.0
C311 C 0.02746 0.45941 0.60382 0.0
O312 O 0.03001 0.47048 0.5706 0.0
C313 C 0.20537 0.45738 0.50069 0.0
C314 C 0.19671 0.40469 0.48119 0.0
C315 C 0.22329 0.44042 0.48711 0.0
N316 N 0.16971 0.433 0.50262 0.0
N317 N 0.16457 0.40166 0.49022 0.0
C318 C 0.22254 0.49476 0.51644 0.0
H319 H 0.21811 0.51255 0.49794 0.0
H320 H 0.20979 0.49407 0.54245 0.0
H321 H 0.25215 0.50664 0.52076 0.0
C322 C 0.11142 0.41779 0.63114 0.0
N323 N 0.1065 0.425 0.59726 0.0
N324 N 0.13006 0.42282 0.57625 0.0
C325 C 0.15112 0.41427 0.5965 0.0
C326 C 0.14005 0.41093 0.632 0.0
C327 C 0.08988 0.41899 0.66215 0.0
H328 H 0.0605 0.40345 0.65553 0.0
H329 H 0.0972 0.44755 0.66719 0.0
H330 H 0.09498 0.40749 0.68667 0.0
O331 O 0.04661 0.40352 0.54088 0.0
O332 O 0.08836 0.42383 0.49921 0.0
H333 H 0.17667 0.39529 0.56012 0.0
H334 H 0.19736 0.40616 0.60379 0.0
C335 C 0.18423 0.41424 0.58299 0.0
H336 H 0.20427 0.44182 0.57373 0.0
H337 H 0.1395 0.37767 0.4901 0.0
O338 O 0.04355 0.44225 0.61284 0.0
C339 C 0.05548 0.41215 0.50857 0.0
Co340 Co 0.54793 0.61898 0.59449 0.0
Co341 Co 0.54134 0.67685 0.54627 0.0
C342 C 0.48016 0.60035 0.5522 0.0
O343 O 0.49855 0.59068 0.57164 0.0
O344 O 0.49311 0.63317 0.54231 0.0
C345 C 0.53652 0.55353 0.62694 0.0
O346 O 0.51354 0.53852 0.60033 0.0
C347 C 0.50935 0.72138 0.52955 0.0
C348 C 0.55679 0.77392 0.51481 0.0
C349 C 0.52038 0.75772 0.52398 0.0
N350 N 0.53826 0.71681 0.5261 0.0
N351 N 0.56626 0.74803 0.51584 0.0
C352 C 0.47223 0.6915 0.53964 0.0
H353 H 0.46404 0.6683 0.52125 0.0
H354 H 0.47284 0.68224 0.56725 0.0
H355 H 0.45156 0.70001 0.53747 0.0
C356 C 0.55794 0.6706 0.65158 0.0
N357 N 0.55218 0.65992 0.61717 0.0
N358 N 0.55367 0.68602 0.59693 0.0
C359 C 0.56034 0.71428 0.61836 0.0
C360 C 0.56335 0.70548 0.65354 0.0
C361 C 0.56014 0.64832 0.68144 0.0
H362 H 0.58245 0.64267 0.6759 0.0
H363 H 0.53445 0.62186 0.68259 0.0
H364 H 0.56532 0.66233 0.7076 0.0
O365 O 0.58745 0.64108 0.55972 0.0
O366 O 0.57109 0.66243 0.51561 0.0
H367 H 0.58045 0.76056 0.58417 0.0
H368 H 0.56724 0.76792 0.62762 0.0
C369 C 0.56051 0.74779 0.60602 0.0
H370 H 0.53311 0.74016 0.59614 0.0
H371 H 0.59255 0.75246 0.51271 0.0
O372 O 0.55514 0.58791 0.62895 0.0
C373 C 0.57796 0.63839 0.52731 0.0
Co374 Co 0.35986 0.93388 0.60358 0.0
Co375 Co 0.31142 0.86834 0.55403 0.0
C376 C 0.37359 0.87139 0.58899 0.0
O377 O 0.38379 0.90352 0.59945 0.0
O378 O 0.34306 0.85208 0.57403 0.0
C379 C 0.38687 0.95201 0.67133 0.0
O380 O 0.36763 0.91642 0.6729 0.0
C381 C 0.2675 0.79393 0.52823 0.0
C382 C 0.23152 0.79741 0.48769 0.0
C383 C 0.23965 0.77336 0.50456 0.0
N384 N 0.27605 0.82884 0.52539 0.0
N385 N 0.25454 0.83079 0.50091 0.0
C386 C 0.28339 0.77986 0.55541 0.0
H387 H 0.31061 0.78574 0.54628 0.0
H388 H 0.28642 0.79341 0.5815 0.0
H389 H 0.26612 0.75016 0.55936 0.0
C390 C 0.28892 0.90677 0.64088 0.0
N391 N 0.30912 0.90703 0.61299 0.0
N392 N 0.28887 0.87913 0.59223 0.0
C393 C 0.25584 0.8594 0.60733 0.0
C394 C 0.25488 0.87593 0.63901 0.0
C395 C 0.30265 0.9333 0.67116 0.0
H396 H 0.32552 0.95975 0.66235 0.0
H397 H 0.31147 0.92226 0.69344 0.0
H398 H 0.28053 0.93744 0.68146 0.0
O399 O 0.36893 0.95969 0.55869 0.0
O400 O 0.3468 0.91094 0.52395 0.0
H401 H 0.20192 0.81242 0.61027 0.0
H402 H 0.23753 0.80336 0.59748 0.0
C403 C 0.22737 0.82266 0.59466 0.0
H404 H 0.22135 0.82406 0.56606 0.0
H405 H 0.25502 0.85474 0.4938 0.0
O406 O 0.38728 0.96797 0.64252 0.0
C407 C 0.36774 0.94505 0.52873 0.0
H408 H 0.51871 0.9977 0.33961 0.0
H409 H 0.50382 0.00131 0.12808 0.0
H410 H 0.5962 0.08349 0.27187 0.0
H411 H 0.41386 0.98484 0.19441 0.0
H412 H 0.53754 0.00337 0.18187 0.0
H413 H 0.48057 0.96815 0.28642 0.0
C414 C 0.52793 0.00982 0.31348 0.0
C415 C 0.56025 0.04311 0.30982 0.0
C416 C 0.50988 0.99796 0.18439 0.0
C417 C 0.51822 0.00909 0.24973 0.0
C418 C 0.49052 0.99662 0.15379 0.0
C419 C 0.45638 0.99393 0.15695 0.0
C420 C 0.49465 0.99584 0.21809 0.0
C421 C 0.44046 0.98773 0.19097 0.0
C422 C 0.50636 0.993 0.2834 0.0
C423 C 0.57125 0.05799 0.27567 0.0
N424 N 0.46006 0.98961 0.22047 0.0
N425 N 0.55028 0.0408 0.24685 0.0
H426 H 0.00685 0.42014 0.18248 0.0
H427 H 0.0092 0.57465 0.29793 0.0
H428 H 0.01559 0.51798 0.13837 0.0
H429 H 0.01146 0.48224 0.34263 0.0
H430 H 0.02697 0.56201 0.24023 0.0
H431 H 0.02414 0.44943 0.24087 0.0
C432 C 0.01321 0.44808 0.18488 0.0
C433 C 0.00865 0.46628 0.15577 0.0
C434 C 0.02432 0.54489 0.26279 0.0
C435 C 0.02792 0.49975 0.22262 0.0
C436 C 0.01413 0.55209 0.29578 0.0
C437 C 0.00784 0.52883 0.32484 0.0
C438 C 0.02762 0.51386 0.25873 0.0
C439 C 0.01529 0.50044 0.32071 0.0
C440 C 0.02307 0.46481 0.21828 0.0
C441 C 0.0179 0.50262 0.16029 0.0
N442 N 0.02398 0.49324 0.28801 0.0
N443 N 0.02628 0.5179 0.19331 0.0
H444 H 0.57955 0.57473 0.17542 0.0
H445 H 0.47285 0.38204 0.24079 0.0
H446 H 0.50846 0.49064 0.10192 0.0
H447 H 0.47735 0.46589 0.30888 0.0
H448 H 0.48517 0.42174 0.18904 0.0
H449 H 0.54146 0.53794 0.22504 0.0
C450 C 0.55534 0.54904 0.16965 0.0
C451 C 0.54757 0.5353 0.13468 0.0
C452 C 0.48263 0.43115 0.21519 0.0
C453 C 0.50474 0.49305 0.19104 0.0
C454 C 0.47595 0.40868 0.24464 0.0
C455 C 0.47451 0.42106 0.27887 0.0
C456 C 0.48915 0.46658 0.22036 0.0
C457 C 0.4784 0.4556 0.28271 0.0
C458 C 0.53361 0.52814 0.19792 0.0
C459 C 0.51574 0.50202 0.12856 0.0
N460 N 0.48657 0.4777 0.2538 0.0
N461 N 0.49606 0.48143 0.15665 0.0
H462 H 0.47011 0.99426 0.8832 0.0
H463 H 0.45823 0.00457 0.67134 0.0
H464 H 0.54874 0.99278 0.81145 0.0
H465 H 0.36647 0.94388 0.74068 0.0
H466 H 0.49808 0.02689 0.72428 0.0
H467 H 0.43995 0.0037 0.83198 0.0
C468 C 0.4817 0.99699 0.85683 0.0
C469 C 0.51139 0.99175 0.85136 0.0
C470 C 0.46905 0.00961 0.72777 0.0
C471 C 0.47729 0.00296 0.79311 0.0
C472 C 0.44641 0.99703 0.69777 0.0
C473 C 0.40931 0.9722 0.70202 0.0
C474 C 0.45407 0.99778 0.76189 0.0
C475 C 0.39509 0.96279 0.73656 0.0
C476 C 0.46443 0.00235 0.82771 0.0
C477 C 0.52543 0.99592 0.81667 0.0
N478 N 0.41757 0.97543 0.76528 0.0
N479 N 0.50788 0.00073 0.78866 0.0
H480 H 0.02235 0.52063 0.59963 0.0
H481 H 0.00941 0.53644 0.81051 0.0
H482 H 0.00678 0.43501 0.67212 0.0
H483 H 0.08693 0.62273 0.74322 0.0
H484 H 0.98447 0.49754 0.75731 0.0
H485 H 0.02021 0.5556 0.65047 0.0
C486 C 0.0172 0.50861 0.62605 0.0
C487 C 0.01555 0.47526 0.63192 0.0
C488 C 0.00634 0.5253 0.75429 0.0
C489 C 0.01276 0.51487 0.68964 0.0
C490 C 0.02053 0.54738 0.78442 0.0
C491 C 0.05052 0.58244 0.78097 0.0
C492 C 0.02174 0.53896 0.72072 0.0
C493 C 0.06414 0.59557 0.74683 0.0
C494 C 0.01615 0.52867 0.65495 0.0
C495 C 0.00881 0.46095 0.66666 0.0
N496 N 0.0497 0.57372 0.7179 0.0
N497 N 0.00817 0.48112 0.69444 0.0
H498 H 0.57896 0.57555 0.6872 0.0
H499 H 0.42664 0.41263 0.79348 0.0
H500 H 0.49109 0.48074 0.63706 0.0
H501 H 0.52275 0.49953 0.84289 0.0
H502 H 0.4571 0.42944 0.73575 0.0
H503 H 0.56689 0.5417 0.74293 0.0
C504 C 0.55758 0.54737 0.68771 0.0
C505 C 0.53528 0.53126 0.65776 0.0
C506 C 0.4719 0.44437 0.7593 0.0
C507 C 0.521 0.4925 0.72158 0.0
C508 C 0.45448 0.43474 0.79231 0.0
C509 C 0.47183 0.45541 0.82283 0.0
C510 C 0.50661 0.47527 0.75674 0.0
C511 C 0.50809 0.48333 0.81989 0.0
C512 C 0.55072 0.528 0.71957 0.0
C513 C 0.50844 0.4945 0.65975 0.0
N514 N 0.52399 0.49305 0.78723 0.0
N515 N 0.5015 0.4766 0.69139 0.0
H516 H 0.48744 0.09169 0.99001 0.0
H517 H 0.51804 0.92337 0.01924 0.0
H518 H 0.40311 0.98554 0.02374 0.0
H519 H 0.59381 0.01946 0.96134 0.0
H520 H 0.47806 0.94868 0.02601 0.0
H521 H 0.52715 0.06679 0.97896 0.0
C522 C 0.4767 0.06287 0.99392 0.0
C523 C 0.44197 0.04086 0.00861 0.0
C524 C 0.50366 0.96446 0.01222 0.0
C525 C 0.48796 0.01258 -0.00279 0.0
C526 C 0.52685 0.9503 0.0089 0.0
C527 C 0.55923 0.96923 0.98939 0.0
C528 C 0.5132 0.99806 -0.00352 0.0
C529 C 0.56902 0.00393 0.97645 0.0
C530 C 0.49972 0.04881 0.98817 0.0
C531 C 0.42982 0.0037 0.01299 0.0
N532 N 0.546 0.01717 0.98003 0.0
N533 N 0.45304 0.99092 0.00811 0.0
H534 H 0.00798 0.42253 0.04124 0.0
H535 H 0.97778 0.57153 0.9437 0.0
H536 H 0.91576 0.39538 0.97299 0.0
H537 H 0.06518 0.59628 0.01758 0.0
H538 H 0.94931 0.50761 0.96068 0.0
H539 H 0.02767 0.48653 0.03408 0.0
C540 C 0.99202 0.43004 0.02439 0.0
C541 C 0.95972 0.40335 0.00833 0.0
C542 C 0.97427 0.52712 0.97381 0.0
C543 C 0.98175 0.477 0.00074 0.0
C544 C 0.99016 0.56377 0.9647 0.0
C545 C 0.02434 0.58918 0.97868 0.0
C546 C 0.99288 0.51595 -0.00311 0.0
C547 C 0.03904 0.57765 0.00584 0.0
C548 C 0.00307 0.46666 0.02068 0.0
C549 C 0.94062 0.41488 0.98623 0.0
N550 N 0.02377 0.54169 0.0133 0.0
N551 N 0.95171 0.45087 0.98343 0.0
H552 H 0.41553 0.48905 0.00447 0.0
H553 H 0.61636 0.52686 0.96649 0.0
H554 H 0.43845 0.4145 0.9477 0.0
H555 H 0.59322 0.60574 0.0134 0.0
H556 H 0.55157 0.48632 0.95731 0.0
H557 H 0.48066 0.53055 0.01109 0.0
C558 C 0.43414 0.48091 0.99412 0.0
C559 C 0.42132 0.44827 0.97507 0.0
C560 C 0.56067 0.51275 0.96905 0.0
C561 C 0.49612 0.49646 0.98151 0.0
C562 C 0.59786 0.53632 0.97375 0.0
C563 C 0.61044 0.56973 0.99132 0.0
C564 C 0.53581 0.52263 0.98186 0.0
C565 C 0.58482 0.58015 0.0001 0.0
C566 C 0.47143 0.50496 -0.00256 0.0
C567 C 0.44702 0.43948 0.96227 0.0
N568 N 0.54871 0.55643 -0.00412 0.0
N569 N 0.48313 0.4636 0.96533 0.0
H570 H 0.98421 0.39339 0.51699 0.0
H571 H 0.02275 0.58482 0.44028 0.0
H572 H 0.08157 0.46797 0.45998 0.0
H573 H 0.92984 0.51549 0.50545 0.0
H574 H 0.04363 0.54114 0.44561 0.0
H575 H 0.95991 0.43388 0.50614 0.0
C576 C 1.0 0.41764 0.50116 0.0
C577 C 0.03531 0.42748 0.48998 0.0
C578 C 0.01878 0.5355 0.45895 0.0
C579 C 0.00822 0.47459 0.47871 0.0
C580 C 0.00706 0.56067 0.45627 0.0
C581 C 0.97426 0.55367 0.47204 0.0
C582 C 0.99739 0.50276 0.47723 0.0
C583 C 0.95518 0.522 0.49265 0.0
C584 C 0.98636 0.44107 0.49555 0.0
C585 C 0.05439 0.45923 0.46946 0.0
N586 N 0.96675 0.49743 0.49419 0.0
N587 N 0.04092 0.48197 0.46516 0.0
H588 H 0.46619 0.40587 0.5201 0.0
H589 H 0.52257 0.61158 0.47675 0.0
H590 H 0.41754 0.43561 0.43493 0.0
H591 H 0.58048 0.57867 0.54858 0.0
H592 H 0.47829 0.54748 0.46588 0.0
H593 H 0.49866 0.46905 0.53979 0.0
C594 C 0.46105 0.42534 0.50647 0.0
C595 C 0.43973 0.41561 0.47537 0.0
C596 C 0.5008 0.55439 0.48392 0.0
C597 C 0.47801 0.48817 0.49672 0.0
C598 C 0.52637 0.59099 0.48979 0.0
C599 C 0.55498 0.60062 0.51421 0.0
C600 C 0.50414 0.52734 0.50225 0.0
C601 C 0.55853 0.57261 0.53007 0.0
C602 C 0.48027 0.46163 0.51723 0.0
C603 C 0.43425 0.44215 0.45872 0.0
N604 N 0.53332 0.53737 0.52402 0.0
N605 N 0.45398 0.47742 0.46904 0.0
H606 H 0.57421 0.98524 0.45435 0.0
H607 H 0.41607 0.01808 0.52616 0.0
H608 H 0.59267 0.08069 0.51235 0.0
H609 H 0.39637 0.9158 0.48283 0.0
H610 H 0.48039 0.04452 0.51201 0.0
H611 H 0.50875 0.96036 0.46063 0.0
C612 C 0.56454 0.00053 0.46925 0.0
C613 C 0.58912 0.0351 0.48286 0.0
C614 C 0.46189 0.01643 0.50507 0.0
C615 C 0.51415 0.00738 0.48893 0.0
C616 C 0.42499 0.00148 0.51252 0.0
C617 C 0.40076 0.9644 0.50641 0.0
C618 C 0.47464 0.9942 0.4913 0.0
C619 C 0.41397 0.94438 0.4884 0.0
C620 C 0.52715 0.98657 0.47232 0.0
C621 C 0.57495 0.05384 0.50163 0.0
N622 N 0.45015 0.95932 0.48221 0.0
N623 N 0.53844 0.03993 0.50371 0.0
H624 H 0.33502 0.23347 0.30734 0.0
H625 H 0.41537 0.11505 0.22475 0.0
H626 H 0.42103 0.22179 0.35494 0.0
H627 H 0.34348 0.14101 0.16693 0.0
H628 H 0.40723 0.14302 0.27822 0.0
H629 H 0.32762 0.18908 0.26128 0.0
C630 C 0.35189 0.22107 0.30836 0.0
C631 C 0.37894 0.2315 0.33455 0.0
C632 C 0.39276 0.14216 0.25403 0.0
C633 C 0.37065 0.18089 0.28248 0.0
C634 C 0.39715 0.12588 0.22359 0.0
C635 C 0.3799 0.12563 0.19152 0.0
C636 C 0.3712 0.15858 0.25231 0.0
C637 C 0.35729 0.14082 0.19123 0.0
C638 C 0.3477 0.19582 0.28217 0.0
C639 C 0.39975 0.21435 0.33523 0.0
N640 N 0.35381 0.157 0.22112 0.0
N641 N 0.39544 0.19019 0.30934 0.0
H642 H 0.69977 0.17277 0.3016 0.0
H643 H 0.89222 0.27781 0.20322 0.0
H644 H 0.79267 0.16655 0.3383 0.0
H645 H 0.79212 0.26389 0.15952 0.0
H646 H 0.85834 0.24069 0.25509 0.0
H647 H 0.73507 0.20946 0.25109 0.0
C648 C 0.72764 0.17898 0.29875 0.0
C649 C 0.74338 0.16655 0.32386 0.0
C650 C 0.84385 0.24571 0.23406 0.0
C651 C 0.78428 0.20905 0.26639 0.0
C652 C 0.86314 0.26694 0.20468 0.0
C653 C 0.84474 0.27356 0.17719 0.0
C654 C 0.80609 0.23148 0.23585 0.0
C655 C 0.80716 0.25894 0.18001 0.0
C656 C 0.74787 0.20006 0.27002 0.0
C657 C 0.77976 0.17587 0.31943 0.0
N658 N 0.7891 0.23865 0.20882 0.0
N659 N 0.79914 0.19671 0.29116 0.0
H660 H 0.8994 0.61503 0.2855 0.0
H661 H 0.70771 0.5526 0.19205 0.0
H662 H 0.79629 0.53939 0.33247 0.0
H663 H 0.8078 0.64277 0.15365 0.0
H664 H 0.74013 0.54747 0.24358 0.0
H665 H 0.86715 0.62514 0.2362 0.0
C666 C 0.86997 0.60058 0.28534 0.0
C667 C 0.85038 0.57641 0.31296 0.0
C668 C 0.75506 0.56865 0.22414 0.0
C669 C 0.81342 0.58779 0.25705 0.0
C670 C 0.73647 0.57177 0.19486 0.0
C671 C 0.75512 0.59838 0.16882 0.0
C672 C 0.79273 0.59204 0.22724 0.0
C673 C 0.79254 0.6219 0.17327 0.0
C674 C 0.85161 0.60649 0.2574 0.0
C675 C 0.81236 0.55855 0.31182 0.0
N676 N 0.81024 0.61805 0.20183 0.0
N677 N 0.79512 0.56447 0.28427 0.0
H678 H 0.53123 0.78432 0.85511 0.0
H679 H 0.61659 0.77491 0.66825 0.0
H680 H 0.60101 0.87987 0.79357 0.0
H681 H 0.51915 0.68528 0.71174 0.0
H682 H 0.61865 0.8127 0.7188 0.0
H683 H 0.53364 0.74649 0.80727 0.0
C684 C 0.54725 0.79728 0.8315 0.0
C685 C 0.56604 0.83516 0.82812 0.0
C686 C 0.59695 0.78471 0.71735 0.0
C687 C 0.56893 0.79218 0.77341 0.0
C688 C 0.59583 0.7632 0.68867 0.0
C689 C 0.56746 0.72718 0.68584 0.0
C690 C 0.56981 0.7698 0.74359 0.0
C691 C 0.54148 0.71296 0.71309 0.0
C692 C 0.54848 0.77572 0.8042 0.0
C693 C 0.58604 0.8507 0.79694 0.0
N694 N 0.54322 0.73435 0.74084 0.0
N695 N 0.5871 0.8291 0.77072 0.0
H696 H 0.19616 0.76787 0.84262 0.0
H697 H 0.2552 0.81996 0.67209 0.0
H698 H 0.10148 0.77225 0.80863 0.0
H699 H 0.20807 0.88886 0.67874 0.0
H700 H 0.22544 0.7909 0.72808 0.0
H701 H 0.22922 0.80455 0.79091 0.0
C702 C 0.1826 0.77726 0.82459 0.0
C703 C 0.14604 0.76687 0.82954 0.0
C704 C 0.22174 0.81253 0.71748 0.0
C705 C 0.18315 0.80755 0.76975 0.0
C706 C 0.23821 0.82867 0.68533 0.0
C707 C 0.23373 0.85653 0.67092 0.0
C708 C 0.20058 0.82432 0.73543 0.0
C709 C 0.21189 0.86726 0.68916 0.0
C710 C 0.20126 0.79765 0.79485 0.0
C711 C 0.12959 0.77946 0.8053 0.0
N712 N 0.19575 0.85088 0.72056 0.0
N713 N 0.14824 0.79904 0.77611 0.0
H714 H 0.16644 0.45941 0.6866 0.0
H715 H 0.26843 0.36799 0.78466 0.0
H716 H 0.15904 0.36006 0.64967 0.0
H717 H 0.26208 0.45893 0.82653 0.0
H718 H 0.22928 0.36443 0.73439 0.0
H719 H 0.20179 0.45929 0.73807 0.0
C720 C 0.17202 0.43736 0.68962 0.0
C721 C 0.15989 0.4097 0.66402 0.0
C722 C 0.23628 0.38499 0.75474 0.0
C723 C 0.20087 0.40958 0.72251 0.0
C724 C 0.25863 0.38706 0.78325 0.0
C725 C 0.2681 0.41356 0.80976 0.0
C726 C 0.22369 0.40986 0.75275 0.0
C727 C 0.25487 0.43771 0.8069 0.0
C728 C 0.19235 0.43735 0.71889 0.0
C729 C 0.16823 0.382 0.66882 0.0
N730 N 0.23344 0.43534 0.7789 0.0
N731 N 0.18841 0.3827 0.69746 0.0
H732 H 0.45712 0.28264 -0.00044 0.0
H733 H 0.65357 0.44594 0.04966 0.0
H734 H 0.53628 0.26909 0.05981 0.0
H735 H 0.56082 0.46141 0.04378 0.0
H736 H 0.61318 0.38082 0.04078 0.0
H737 H 0.49712 0.34885 0.00392 0.0
C738 C 0.4831 0.29339 0.01299 0.0
C739 C 0.49385 0.26992 0.02797 0.0
C740 C 0.6017 0.3985 0.04147 0.0
C741 C 0.5394 0.34523 0.03305 0.0
C742 C 0.6247 0.43561 0.04649 0.0
C743 C 0.61045 0.45898 0.04785 0.0
C744 C 0.56425 0.3847 0.03708 0.0
C745 C 0.5728 0.44416 0.04344 0.0
C746 C 0.50574 0.33107 0.01557 0.0
C747 C 0.52746 0.28548 0.04584 0.0
N748 N 0.55092 0.40787 0.03806 0.0
N749 N 0.54904 0.32201 0.04762 0.0
H750 H 0.70808 0.19206 0.98468 0.0
H751 H 0.56105 0.19078 0.11063 0.0
H752 H 0.73827 0.24687 0.08659 0.0
H753 H 0.53867 0.0915 0.05812 0.0
H754 H 0.62558 0.21682 0.09621 0.0
H755 H 0.64444 0.15835 0.00495 0.0
C756 C 0.70133 0.19721 0.01111 0.0
C757 C 0.72824 0.22371 0.03323 0.0
C758 C 0.60657 0.18915 0.08831 0.0
C759 C 0.65611 0.1855 0.0564 0.0
C760 C 0.5699 0.17432 0.09659 0.0
C761 C 0.54474 0.13888 0.08591 0.0
C762 C 0.61793 0.16885 0.06817 0.0
C763 C 0.55741 0.11877 0.06727 0.0
C764 C 0.66519 0.17792 0.02266 0.0
C765 C 0.71821 0.22851 0.06769 0.0
N766 N 0.59315 0.13427 0.05839 0.0
N767 N 0.6829 0.21016 0.07794 0.0
H768 H 0.91812 0.47471 0.06868 0.0
H769 H 0.78138 0.50831 0.9487 0.0
H770 H 0.83386 0.39433 0.00092 0.0
H771 H 0.8465 0.58082 0.03303 0.0
H772 H 0.81148 0.47272 0.95816 0.0
H773 H 0.90183 0.51946 0.04783 0.0
C774 C 0.89619 0.46642 0.04955 0.0
C775 C 0.87679 0.43045 0.03718 0.0
C776 C 0.81967 0.49675 0.97425 0.0
C777 C 0.85858 0.48155 0.0128 0.0
C778 C 0.80271 0.51713 0.96862 0.0
C779 C 0.81132 0.5471 0.9904 0.0
C780 C 0.84534 0.50643 0.00194 0.0
C781 C 0.83915 0.55771 0.0158 0.0
C782 C 0.88705 0.492 0.03755 0.0
C783 C 0.84912 0.42146 0.01185 0.0
N784 N 0.85486 0.53703 0.02131 0.0
N785 N 0.84079 0.44675 0.00066 0.0
H786 H 0.73915 0.54932 0.45414 0.0
H787 H 0.55906 0.35424 0.45237 0.0
H788 H 0.73596 0.45185 0.49105 0.0
H789 H 0.57073 0.44418 0.38883 0.0
H790 H 0.62239 0.39076 0.47104 0.0
H791 H 0.67501 0.51293 0.43622 0.0
C792 C 0.72462 0.52037 0.45914 0.0
C793 C 0.74252 0.50339 0.47408 0.0
C794 C 0.61122 0.40243 0.45276 0.0
C795 C 0.6699 0.46173 0.45327 0.0
C796 C 0.57511 0.38153 0.44195 0.0
C797 C 0.55961 0.39615 0.41892 0.0
C798 C 0.63193 0.43843 0.44091 0.0
C799 C 0.58168 0.43173 0.40637 0.0
C800 C 0.68829 0.49958 0.44851 0.0
C801 C 0.72291 0.46579 0.47956 0.0
N802 N 0.61666 0.45181 0.41782 0.0
N803 N 0.68765 0.44618 0.46909 0.0
H804 H 0.54267 0.10843 0.4198 0.0
H805 H 0.51513 0.25115 0.53587 0.0
H806 H 0.62468 0.18888 0.48928 0.0
H807 H 0.4425 0.18624 0.45148 0.0
H808 H 0.55034 0.22041 0.52695 0.0
H809 H 0.50116 0.12971 0.43768 0.0
C810 C 0.55202 0.13061 0.43871 0.0
C811 C 0.58747 0.14723 0.45263 0.0
C812 C 0.52641 0.21252 0.5107 0.0
C813 C 0.5399 0.17134 0.47358 0.0
C814 C 0.50617 0.22976 0.51609 0.0
C815 C 0.4762 0.22124 0.49418 0.0
C816 C 0.5164 0.18657 0.48329 0.0
C817 C 0.46575 0.19368 0.46864 0.0
C818 C 0.52826 0.14265 0.44901 0.0
C819 C 0.59786 0.17557 0.47741 0.0
N820 N 0.486 0.17751 0.46364 0.0
N821 N 0.57425 0.18675 0.48701 0.0
H822 H 0.91435 0.43253 0.41877 0.0
H823 H 0.76272 0.27172 0.53791 0.0
H824 H 0.8347 0.43998 0.48407 0.0
H825 H 0.83081 0.2554 0.46414 0.0
H826 H 0.79775 0.33693 0.52637 0.0
H827 H 0.89169 0.37055 0.44133 0.0
C828 C 0.89215 0.42121 0.43771 0.0
C829 C 0.87599 0.44133 0.44897 0.0
C830 C 0.80555 0.31929 0.51306 0.0
C831 C 0.85047 0.37097 0.47524 0.0
C832 C 0.78575 0.28217 0.51997 0.0
C833 C 0.79403 0.25849 0.50193 0.0
C834 C 0.83354 0.33274 0.48753 0.0
C835 C 0.82386 0.27307 0.47868 0.0
C836 C 0.87937 0.38595 0.4507 0.0
C837 C 0.84772 0.42548 0.47407 0.0
N838 N 0.84229 0.30932 0.47166 0.0
N839 N 0.83587 0.39137 0.48614 0.0
H840 H 0.39282 0.57269 0.90327 0.0
H841 H 0.54134 0.72119 0.02226 0.0
H842 H 0.47657 0.552 0.94118 0.0
H843 H 0.5129 0.74869 0.92076 0.0
H844 H 0.51437 0.65769 0.00148 0.0
H845 H 0.43167 0.63694 0.91794 0.0
C846 C 0.41956 0.58184 0.91446 0.0
C847 C 0.43162 0.55727 0.92117 0.0
C848 C 0.51451 0.67798 0.98387 0.0
C849 C 0.47552 0.63013 0.93897 0.0
C850 C 0.52964 0.71397 -0.0043 0.0
C851 C 0.52784 0.73986 0.97387 0.0
C852 C 0.49748 0.66829 0.95024 0.0
C853 C 0.51333 0.7294 0.93928 0.0
C854 C 0.44164 0.61835 0.92278 0.0
C855 C 0.46647 0.57033 0.9357 0.0
N856 N 0.49799 0.69433 0.92887 0.0
N857 N 0.48714 0.60599 0.94486 0.0
H858 H 0.25569 0.82925 0.97479 0.0
H859 H 0.43791 0.82035 0.00171 0.0
H860 H 0.26007 0.74124 0.02677 0.0
H861 H 0.43208 0.90123 0.93675 0.0
H862 H 0.37481 0.79652 0.01892 0.0
H863 H 0.32222 0.86181 0.96917 0.0
C864 C 0.27092 0.81741 0.98598 0.0
C865 C 0.25283 0.78299 0.0018 0.0
C866 C 0.38732 0.81953 0.00096 0.0
C867 C 0.32831 0.81917 -0.00543 0.0
C868 C 0.4234 0.8331 0.99094 0.0
C869 C 0.44025 0.86239 0.96706 0.0
C870 C 0.36773 0.83535 0.98716 0.0
C871 C 0.42012 0.87826 0.95478 0.0
C872 C 0.30873 0.83571 0.98244 0.0
C873 C 0.27334 0.76808 0.01497 0.0
N874 N 0.38485 0.86437 0.96477 0.0
N875 N 0.31 0.78615 0.01088 0.0
H876 H 0.12233 0.5583 0.88779 0.0
H877 H 0.28684 0.55223 0.98441 0.0
H878 H 0.20241 0.64586 0.95267 0.0
H879 H 0.19002 0.45557 0.95001 0.0
H880 H 0.25853 0.58827 0.96871 0.0
H881 H 0.14994 0.5217 0.90434 0.0
C882 C 0.14605 0.57008 0.90499 0.0
C883 C 0.16015 0.60532 0.91875 0.0
C884 C 0.24324 0.55914 0.96494 0.0
C885 C 0.1915 0.56348 0.93804 0.0
C886 C 0.25931 0.53863 0.97409 0.0
C887 C 0.24048 0.50103 0.96871 0.0
C888 C 0.20832 0.54194 0.94973 0.0
C889 C 0.20509 0.48452 0.95491 0.0
C890 C 0.16151 0.54902 0.91474 0.0
C891 C 0.19067 0.61896 0.9413 0.0
N892 N 0.19019 0.50517 0.94549 0.0
N893 N 0.20528 0.59805 0.9502 0.0
H894 H 0.44341 0.60771 0.49614 0.0
H895 H 0.2624 0.41804 0.52664 0.0
H896 H 0.43563 0.52979 0.57472 0.0
H897 H 0.27361 0.49858 0.44999 0.0
H898 H 0.32808 0.45333 0.53833 0.0
H899 H 0.38379 0.56379 0.47359 0.0
C900 C 0.42901 0.5814 0.50894 0.0
C901 C 0.44417 0.57285 0.53812 0.0
C902 C 0.31633 0.46287 0.51837 0.0
C903 C 0.37553 0.52186 0.51191 0.0
C904 C 0.279 0.44256 0.51144 0.0
C905 C 0.26292 0.45562 0.48735 0.0
C906 C 0.33739 0.49638 0.50108 0.0
C907 C 0.28521 0.48773 0.46873 0.0
C908 C 0.39498 0.55611 0.49575 0.0
C909 C 0.42466 0.53776 0.55261 0.0
N910 N 0.32124 0.50724 0.47629 0.0
N911 N 0.39109 0.51364 0.53963 0.0
H912 H 0.36011 0.80357 0.60515 0.0
H913 H 0.52287 0.8178 0.49403 0.0
H914 H 0.44439 0.9081 0.56831 0.0
H915 H 0.47829 0.74461 0.58358 0.0
H916 H 0.49115 0.84946 0.51505 0.0
H917 H 0.3995 0.77835 0.59211 0.0
C918 C 0.38728 0.82132 0.59509 0.0
C919 C 0.39938 0.85797 0.58831 0.0
C920 C 0.48835 0.82631 0.52985 0.0
C921 C 0.44374 0.82915 0.57188 0.0
C922 C 0.50616 0.80817 0.51778 0.0
C923 C 0.5017 0.77735 0.53596 0.0
C924 C 0.46595 0.81331 0.56014 0.0
C925 C 0.48074 0.76671 0.56731 0.0
C926 C 0.40961 0.80696 0.5875 0.0
C927 C 0.43448 0.87982 0.57456 0.0
N928 N 0.46318 0.78425 0.57804 0.0
N929 N 0.45532 0.86491 0.56613 0.0
H930 H 0.27068 0.73334 0.48704 0.0
H931 H 0.09824 0.54602 0.5467 0.0
H932 H 0.16777 0.72365 0.5139 0.0
H933 H 0.19983 0.55678 0.51167 0.0
H934 H 0.12135 0.60987 0.53171 0.0
H935 H 0.2431 0.66747 0.49119 0.0
C936 C 0.24202 0.71708 0.49317 0.0
C937 C 0.22139 0.73365 0.50028 0.0
C938 C 0.1385 0.59818 0.52718 0.0
C939 C 0.18972 0.65842 0.50593 0.0
C940 C 0.12543 0.56177 0.53594 0.0
C941 C 0.14726 0.546 0.53074 0.0
C942 C 0.17371 0.61903 0.51328 0.0
C943 C 0.18205 0.56767 0.51628 0.0
C944 C 0.22629 0.67953 0.49574 0.0
C945 C 0.18443 0.71165 0.50814 0.0
N946 N 0.19421 0.60303 0.50826 0.0
N947 N 0.1698 0.67507 0.51126 0.0
loop_
_geom_bond_atom_site_label_1
_geom_bond_atom_site_label_2
_geom_bond_distance
_geom_bond_site_symmetry_2
_ccdc_geom_bond_type
Co0 O3 1.970 . S
Co0 N17 1.989 . S
Co0 O25 1.967 . S
Co0 O32 1.920 . S
Co1 O4 1.966 . S
Co1 N10 2.022 . S
Co1 N18 1.993 . S
Co1 O26 1.941 . S
C2 O3 1.258 . S
C2 O4 1.263 . S
O3 Co0 1.970 . S
O3 C2 1.258 . S
O4 Co1 1.966 . S
O4 C2 1.263 . S
C5 O6 1.235 . S
C5 O32 1.289 . S
O6 C5 1.235 . S
C7 C9 1.400 . S
C7 N10 1.351 1_556 S
C7 C12 1.501 1_556 S
C8 C9 1.387 . S
C8 N11 1.341 . S
C9 C7 1.400 . S
C9 C8 1.387 . S
N10 Co1 2.022 . S
N10 C7 1.351 1_554 S
N10 N11 1.365 1_554 S
N11 C8 1.341 . S
N11 N10 1.365 1_556 S
N11 H31 0.862 . S
C12 C7 1.501 1_554 S
C12 H13 0.961 . S
C12 H14 0.961 . S
C12 H15 0.960 1_554 S
H13 C12 0.961 . S
H14 C12 0.961 . S
H15 C12 0.960 1_556 S
C16 N17 1.342 . S
C16 C20 1.401 . S
C16 C21 1.499 . S
N17 Co0 1.989 . S
N17 C16 1.342 . S
N17 N18 1.388 . S
N18 Co1 1.993 . S
N18 N17 1.388 . S
N18 C19 1.346 . S
C19 N18 1.346 . S
C19 C20 1.396 . S
C19 C29 1.510 . S
C20 C16 1.401 . S
C20 C19 1.396 . S
C21 C16 1.499 . S
C21 H22 0.959 . S
C21 H23 0.960 . S
C21 H24 0.961 . S
H22 C21 0.959 . S
H23 C21 0.960 . S
H24 C21 0.961 . S
O25 Co0 1.967 . S
O25 C33 1.258 . S
O26 Co1 1.941 . S
O26 C33 1.266 . S
H27 C29 0.959 . S
H28 C29 0.961 . S
C29 C19 1.510 . S
C29 H27 0.959 . S
C29 H28 0.961 . S
C29 H30 0.960 . S
H30 C29 0.960 . S
H31 N11 0.862 . S
O32 Co0 1.920 . S
O32 C5 1.289 . S
C33 O25 1.258 . S
C33 O26 1.266 . S
Co34 O37 1.970 . S
Co34 N51 1.989 . S
Co34 O59 1.967 . S
Co34 O66 1.920 . S
Co35 O38 1.966 . S
Co35 N44 2.022 . S
Co35 N52 1.993 . S
Co35 O60 1.941 . S
C36 O37 1.258 . S
C36 O38 1.263 . S
O37 Co34 1.970 . S
O37 C36 1.258 . S
O38 Co35 1.966 . S
O38 C36 1.263 . S
C39 O40 1.235 . S
C39 O66 1.289 . S
O40 C39 1.235 . S
C41 C43 1.400 . S
C41 N44 1.351 1_556 S
C41 C46 1.501 1_556 S
C42 C43 1.387 . S
C42 N45 1.341 . S
C43 C41 1.400 . S
C43 C42 1.387 . S
N44 Co35 2.022 . S
N44 C41 1.351 1_554 S
N44 N45 1.365 1_554 S
N45 C42 1.341 . S
N45 N44 1.365 1_556 S
N45 H65 0.862 . S
C46 C41 1.501 1_554 S
C46 H47 0.961 . S
C46 H48 0.961 . S
C46 H49 0.960 1_554 S
H47 C46 0.961 . S
H48 C46 0.961 . S
H49 C46 0.960 1_556 S
C50 N51 1.342 . S
C50 C54 1.401 . S
C50 C55 1.499 . S
N51 Co34 1.989 . S
N51 C50 1.342 . S
N51 N52 1.388 . S
N52 Co35 1.993 . S
N52 N51 1.388 . S
N52 C53 1.346 . S
C53 N52 1.346 . S
C53 C54 1.396 . S
C53 C63 1.510 . S
C54 C50 1.401 . S
C54 C53 1.396 . S
C55 C50 1.499 . S
C55 H56 0.959 . S
C55 H57 0.960 . S
C55 H58 0.961 . S
H56 C55 0.959 . S
H57 C55 0.960 . S
H58 C55 0.961 . S
O59 Co34 1.967 . S
O59 C67 1.258 . S
O60 Co35 1.941 . S
O60 C67 1.266 . S
H61 C63 0.959 . S
H62 C63 0.961 . S
C63 C53 1.510 . S
C63 H61 0.959 . S
C63 H62 0.961 . S
C63 H64 0.960 . S
H64 C63 0.960 . S
H65 N45 0.862 . S
O66 Co34 1.920 . S
O66 C39 1.289 . S
C67 O59 1.258 . S
C67 O60 1.266 . S
Co68 O71 1.970 . S
Co68 N85 1.989 . S
Co68 O93 1.967 . S
Co68 O100 1.920 . S
Co69 O72 1.966 . S
Co69 N78 2.022 . S
Co69 N86 1.993 . S
Co69 O94 1.941 . S
C70 O71 1.258 . S
C70 O72 1.263 . S
O71 Co68 1.970 . S
O71 C70 1.258 . S
O72 Co69 1.966 . S
O72 C70 1.263 . S
C73 O74 1.235 . S
C73 O100 1.289 . S
O74 C73 1.235 . S
C75 C77 1.400 . S
C75 N78 1.351 1_556 S
C75 C80 1.501 1_556 S
C76 C77 1.387 . S
C76 N79 1.341 . S
C77 C75 1.400 . S
C77 C76 1.387 . S
N78 Co69 2.022 . S
N78 C75 1.351 1_554 S
N78 N79 1.365 1_554 S
N79 C76 1.341 . S
N79 N78 1.365 1_556 S
N79 H99 0.862 . S
C80 C75 1.501 1_554 S
C80 H81 0.961 . S
C80 H82 0.961 . S
C80 H83 0.960 1_554 S
H81 C80 0.961 . S
H82 C80 0.961 . S
H83 C80 0.960 1_556 S
C84 N85 1.342 . S
C84 C88 1.401 . S
C84 C89 1.499 . S
N85 Co68 1.989 . S
N85 C84 1.342 . S
N85 N86 1.388 . S
N86 Co69 1.993 . S
N86 N85 1.388 . S
N86 C87 1.346 . S
C87 N86 1.346 . S
C87 C88 1.396 . S
C87 C97 1.510 . S
C88 C84 1.401 . S
C88 C87 1.396 . S
C89 C84 1.499 . S
C89 H90 0.959 . S
C89 H91 0.960 . S
C89 H92 0.961 . S
H90 C89 0.959 . S
H91 C89 0.960 . S
H92 C89 0.961 . S
O93 Co68 1.967 . S
O93 C101 1.258 . S
O94 Co69 1.941 . S
O94 C101 1.266 . S
H95 C97 0.959 . S
H96 C97 0.961 . S
C97 C87 1.510 . S
C97 H95 0.959 . S
C97 H96 0.961 . S
C97 H98 0.960 . S
H98 C97 0.960 . S
H99 N79 0.862 . S
O100 Co68 1.920 . S
O100 C73 1.289 . S
C101 O93 1.258 . S
C101 O94 1.266 . S
Co102 O105 1.970 . S
Co102 N119 1.989 . S
Co102 O127 1.967 . S
Co102 O134 1.920 . S
Co103 O106 1.966 . S
Co103 N112 2.022 . S
Co103 N120 1.993 . S
Co103 O128 1.941 . S
C104 O105 1.258 . S
C104 O106 1.263 . S
O105 Co102 1.970 . S
O105 C104 1.258 . S
O106 Co103 1.966 . S
O106 C104 1.263 . S
C107 O108 1.235 . S
C107 O134 1.289 . S
O108 C107 1.235 . S
C109 C111 1.400 . S
C109 N112 1.351 . S
C109 C114 1.501 . S
C110 C111 1.387 . S
C110 N113 1.341 . S
C111 C109 1.400 . S
C111 C110 1.387 . S
N112 Co103 2.022 . S
N112 C109 1.351 . S
N112 N113 1.365 . S
N113 C110 1.341 . S
N113 N112 1.365 . S
N113 H133 0.862 . S
C114 C109 1.501 . S
C114 H115 0.961 . S
C114 H116 0.961 . S
C114 H117 0.960 . S
H115 C114 0.961 . S
H116 C114 0.961 . S
H117 C114 0.960 . S
C118 N119 1.342 . S
C118 C122 1.401 . S
C118 C123 1.499 . S
N119 Co102 1.989 . S
N119 C118 1.342 . S
N119 N120 1.388 . S
N120 Co103 1.993 . S
N120 N119 1.388 . S
N120 C121 1.346 . S
C121 N120 1.346 . S
C121 C122 1.396 . S
C121 C131 1.510 . S
C122 C118 1.401 . S
C122 C121 1.396 . S
C123 C118 1.499 . S
C123 H124 0.959 . S
C123 H125 0.960 . S
C123 H126 0.961 . S
H124 C123 0.959 . S
H125 C123 0.960 . S
H126 C123 0.961 . S
O127 Co102 1.967 . S
O127 C135 1.258 . S
O128 Co103 1.941 . S
O128 C135 1.266 . S
H129 C131 0.959 . S
H130 C131 0.961 . S
C131 C121 1.510 . S
C131 H129 0.959 . S
C131 H130 0.961 . S
C131 H132 0.960 . S
H132 C131 0.960 . S
H133 N113 0.862 . S
O134 Co102 1.920 . S
O134 C107 1.289 . S
C135 O127 1.258 . S
C135 O128 1.266 . S
Co136 O139 1.970 . S
Co136 N153 1.989 . S
Co136 O161 1.967 . S
Co136 O168 1.920 . S
Co137 O140 1.966 . S
Co137 N146 2.022 . S
Co137 N154 1.993 . S
Co137 O162 1.941 . S
C138 O139 1.258 . S
C138 O140 1.263 . S
O139 Co136 1.970 . S
O139 C138 1.258 . S
O140 Co137 1.966 . S
O140 C138 1.263 . S
C141 O142 1.235 . S
C141 O168 1.289 . S
O142 C141 1.235 . S
C143 C145 1.400 . S
C143 N146 1.351 . S
C143 C148 1.501 . S
C144 C145 1.387 . S
C144 N147 1.341 . S
C145 C143 1.400 . S
C145 C144 1.387 . S
N146 Co137 2.022 . S
N146 C143 1.351 . S
N146 N147 1.365 . S
N147 C144 1.341 . S
N147 N146 1.365 . S
N147 H167 0.862 . S
C148 C143 1.501 . S
C148 H149 0.961 . S
C148 H150 0.961 . S
C148 H151 0.960 . S
H149 C148 0.961 . S
H150 C148 0.961 . S
H151 C148 0.960 . S
C152 N153 1.342 . S
C152 C156 1.401 . S
C152 C157 1.499 . S
N153 Co136 1.989 . S
N153 C152 1.342 . S
N153 N154 1.388 . S
N154 Co137 1.993 . S
N154 N153 1.388 . S
N154 C155 1.346 . S
C155 N154 1.346 . S
C155 C156 1.396 . S
C155 C165 1.510 . S
C156 C152 1.401 . S
C156 C155 1.396 . S
C157 C152 1.499 . S
C157 H158 0.959 . S
C157 H159 0.960 . S
C157 H160 0.961 . S
H158 C157 0.959 . S
H159 C157 0.960 . S
H160 C157 0.961 . S
O161 Co136 1.967 . S
O161 C169 1.258 . S
O162 Co137 1.941 . S
O162 C169 1.266 . S
H163 C165 0.959 . S
H164 C165 0.961 . S
C165 C155 1.510 . S
C165 H163 0.959 . S
C165 H164 0.961 . S
C165 H166 0.960 . S
H166 C165 0.960 . S
H167 N147 0.862 . S
O168 Co136 1.920 . S
O168 C141 1.289 . S
C169 O161 1.258 . S
C169 O162 1.266 . S
Co170 O173 1.970 . S
Co170 N187 1.989 . S
Co170 O195 1.967 . S
Co170 O202 1.920 . S
Co171 O174 1.966 . S
Co171 N180 2.022 . S
Co171 N188 1.993 . S
Co171 O196 1.941 . S
C172 O173 1.258 . S
C172 O174 1.263 . S
O173 Co170 1.970 . S
O173 C172 1.258 . S
O174 Co171 1.966 . S
O174 C172 1.263 . S
C175 O176 1.235 . S
C175 O202 1.289 . S
O176 C175 1.235 . S
C177 C179 1.400 . S
C177 N180 1.351 . S
C177 C182 1.501 . S
C178 C179 1.387 . S
C178 N181 1.341 . S
C179 C177 1.400 . S
C179 C178 1.387 . S
N180 Co171 2.022 . S
N180 C177 1.351 . S
N180 N181 1.365 . S
N181 C178 1.341 . S
N181 N180 1.365 . S
N181 H201 0.862 . S
C182 C177 1.501 . S
C182 H183 0.961 . S
C182 H184 0.961 . S
C182 H185 0.960 . S
H183 C182 0.961 . S
H184 C182 0.961 . S
H185 C182 0.960 . S
C186 N187 1.342 . S
C186 C190 1.401 . S
C186 C191 1.499 . S
N187 Co170 1.989 . S
N187 C186 1.342 . S
N187 N188 1.388 . S
N188 Co171 1.993 . S
N188 N187 1.388 . S
N188 C189 1.346 . S
C189 N188 1.346 . S
C189 C190 1.396 . S
C189 C199 1.510 . S
C190 C186 1.401 . S
C190 C189 1.396 . S
C191 C186 1.499 . S
C191 H192 0.959 . S
C191 H193 0.960 . S
C191 H194 0.961 . S
H192 C191 0.959 . S
H193 C191 0.960 . S
H194 C191 0.961 . S
O195 Co170 1.967 . S
O195 C203 1.258 . S
O196 Co171 1.941 . S
O196 C203 1.266 . S
H197 C199 0.959 . S
H198 C199 0.961 . S
C199 C189 1.510 . S
C199 H197 0.959 . S
C199 H198 0.961 . S
C199 H200 0.960 . S
H200 C199 0.960 . S
H201 N181 0.862 . S
O202 Co170 1.920 . S
O202 C175 1.289 . S
C203 O195 1.258 . S
C203 O196 1.266 . S
Co204 O207 1.970 . S
Co204 N221 1.989 . S
Co204 O229 1.967 . S
Co204 O236 1.920 . S
Co205 O208 1.966 . S
Co205 N214 2.022 . S
Co205 N222 1.993 . S
Co205 O230 1.941 . S
C206 O207 1.258 . S
C206 O208 1.263 . S
O207 Co204 1.970 . S
O207 C206 1.258 . S
O208 Co205 1.966 . S
O208 C206 1.263 . S
C209 O210 1.235 . S
C209 O236 1.289 . S
O210 C209 1.235 . S
C211 C213 1.400 . S
C211 N214 1.351 1_554 S
C211 C216 1.501 1_554 S
C212 C213 1.387 . S
C212 N215 1.341 . S
C213 C211 1.400 . S
C213 C212 1.387 . S
N214 Co205 2.022 . S
N214 C211 1.351 1_556 S
N214 N215 1.365 1_556 S
N215 C212 1.341 . S
N215 N214 1.365 1_554 S
N215 H235 0.862 . S
C216 C211 1.501 1_556 S
C216 H217 0.961 . S
C216 H218 0.961 . S
C216 H219 0.960 1_556 S
H217 C216 0.961 . S
H218 C216 0.961 . S
H219 C216 0.960 1_554 S
C220 N221 1.342 . S
C220 C224 1.401 . S
C220 C225 1.499 . S
N221 Co204 1.989 . S
N221 C220 1.342 . S
N221 N222 1.388 . S
N222 Co205 1.993 . S
N222 N221 1.388 . S
N222 C223 1.346 . S
C223 N222 1.346 . S
C223 C224 1.396 . S
C223 C233 1.510 . S
C224 C220 1.401 . S
C224 C223 1.396 . S
C225 C220 1.499 . S
C225 H226 0.959 . S
C225 H227 0.960 . S
C225 H228 0.961 . S
H226 C225 0.959 . S
H227 C225 0.960 . S
H228 C225 0.961 . S
O229 Co204 1.967 . S
O229 C237 1.258 . S
O230 Co205 1.941 . S
O230 C237 1.266 . S
H231 C233 0.959 . S
H232 C233 0.961 . S
C233 C223 1.510 . S
C233 H231 0.959 . S
C233 H232 0.961 . S
C233 H234 0.960 . S
H234 C233 0.960 . S
H235 N215 0.862 . S
O236 Co204 1.920 . S
O236 C209 1.289 . S
C237 O229 1.258 . S
C237 O230 1.266 . S
Co238 O241 1.970 . S
Co238 N255 1.989 . S
Co238 O263 1.967 . S
Co238 O270 1.920 . S
Co239 O242 1.966 . S
Co239 N248 2.022 . S
Co239 N256 1.993 . S
Co239 O264 1.941 . S
C240 O241 1.258 . S
C240 O242 1.263 . S
O241 Co238 1.970 . S
O241 C240 1.258 . S
O242 Co239 1.966 . S
O242 C240 1.263 . S
C243 O244 1.235 . S
C243 O270 1.289 . S
O244 C243 1.235 . S
C245 C247 1.400 . S
C245 N248 1.351 1_554 S
C245 C250 1.501 1_554 S
C246 C247 1.387 . S
C246 N249 1.341 . S
C247 C245 1.400 . S
C247 C246 1.387 . S
N248 Co239 2.022 . S
N248 C245 1.351 1_556 S
N248 N249 1.365 1_556 S
N249 C246 1.341 . S
N249 N248 1.365 1_554 S
N249 H269 0.862 . S
C250 C245 1.501 1_556 S
C250 H251 0.961 . S
C250 H252 0.961 . S
C250 H253 0.960 1_556 S
H251 C250 0.961 . S
H252 C250 0.961 . S
H253 C250 0.960 1_554 S
C254 N255 1.342 . S
C254 C258 1.401 . S
C254 C259 1.499 . S
N255 Co238 1.989 . S
N255 C254 1.342 . S
N255 N256 1.388 . S
N256 Co239 1.993 . S
N256 N255 1.388 . S
N256 C257 1.346 . S
C257 N256 1.346 . S
C257 C258 1.396 . S
C257 C267 1.510 . S
C258 C254 1.401 . S
C258 C257 1.396 . S
C259 C254 1.499 . S
C259 H260 0.959 . S
C259 H261 0.960 . S
C259 H262 0.961 . S
H260 C259 0.959 . S
H261 C259 0.960 . S
H262 C259 0.961 . S
O263 Co238 1.967 . S
O263 C271 1.258 . S
O264 Co239 1.941 . S
O264 C271 1.266 . S
H265 C267 0.959 . S
H266 C267 0.961 . S
C267 C257 1.510 . S
C267 H265 0.959 . S
C267 H266 0.961 . S
C267 H268 0.960 . S
H268 C267 0.960 . S
H269 N249 0.862 . S
O270 Co238 1.920 . S
O270 C243 1.289 . S
C271 O263 1.258 . S
C271 O264 1.266 . S
Co272 O275 1.970 . S
Co272 N289 1.989 . S
Co272 O297 1.967 . S
Co272 O304 1.920 . S
Co273 O276 1.966 . S
Co273 N282 2.022 . S
Co273 N290 1.993 . S
Co273 O298 1.941 . S
C274 O275 1.258 . S
C274 O276 1.263 . S
O275 Co272 1.970 . S
O275 C274 1.258 . S
O276 Co273 1.966 . S
O276 C274 1.263 . S
C277 O278 1.235 . S
C277 O304 1.289 . S
O278 C277 1.235 . S
C279 C281 1.400 . S
C279 N282 1.351 1_554 S
C279 C284 1.501 1_554 S
C280 C281 1.387 . S
C280 N283 1.341 . S
C281 C279 1.400 . S
C281 C280 1.387 . S
N282 Co273 2.022 . S
N282 C279 1.351 1_556 S
N282 N283 1.365 1_556 S
N283 C280 1.341 . S
N283 N282 1.365 1_554 S
N283 H303 0.862 . S
C284 C279 1.501 1_556 S
C284 H285 0.961 . S
C284 H286 0.961 . S
C284 H287 0.960 1_556 S
H285 C284 0.961 . S
H286 C284 0.961 . S
H287 C284 0.960 1_554 S
C288 N289 1.342 . S
C288 C292 1.401 . S
C288 C293 1.499 . S
N289 Co272 1.989 . S
N289 C288 1.342 . S
N289 N290 1.388 . S
N290 Co273 1.993 . S
N290 N289 1.388 . S
N290 C291 1.346 . S
C291 N290 1.346 . S
C291 C292 1.396 . S
C291 C301 1.510 . S
C292 C288 1.401 . S
C292 C291 1.396 . S
C293 C288 1.499 . S
C293 H294 0.959 . S
C293 H295 0.960 . S
C293 H296 0.961 . S
H294 C293 0.959 . S
H295 C293 0.960 . S
H296 C293 0.961 . S
O297 Co272 1.967 . S
O297 C305 1.258 . S
O298 Co273 1.941 . S
O298 C305 1.266 . S
H299 C301 0.959 . S
H300 C301 0.961 . S
C301 C291 1.510 . S
C301 H299 0.959 . S
C301 H300 0.961 . S
C301 H302 0.960 . S
H302 C301 0.960 . S
H303 N283 0.862 . S
O304 Co272 1.920 . S
O304 C277 1.289 . S
C305 O297 1.258 . S
C305 O298 1.266 . S
Co306 O309 1.970 . S
Co306 N323 1.989 . S
Co306 O331 1.967 . S
Co306 O338 1.920 . S
Co307 O310 1.966 . S
Co307 N316 2.022 . S
Co307 N324 1.993 . S
Co307 O332 1.941 . S
C308 O309 1.258 . S
C308 O310 1.263 . S
O309 Co306 1.970 . S
O309 C308 1.258 . S
O310 Co307 1.966 . S
O310 C308 1.263 . S
C311 O312 1.235 . S
C311 O338 1.289 . S
O312 C311 1.235 . S
C313 C315 1.400 . S
C313 N316 1.351 . S
C313 C318 1.501 . S
C314 C315 1.387 . S
C314 N317 1.341 . S
C315 C313 1.400 . S
C315 C314 1.387 . S
N316 Co307 2.022 . S
N316 C313 1.351 . S
N316 N317 1.365 . S
N317 C314 1.341 . S
N317 N316 1.365 . S
N317 H337 0.862 . S
C318 C313 1.501 . S
C318 H319 0.961 . S
C318 H320 0.961 . S
C318 H321 0.960 . S
H319 C318 0.961 . S
H320 C318 0.961 . S
H321 C318 0.960 . S
C322 N323 1.342 . S
C322 C326 1.401 . S
C322 C327 1.499 . S
N323 Co306 1.989 . S
N323 C322 1.342 . S
N323 N324 1.388 . S
N324 Co307 1.993 . S
N324 N323 1.388 . S
N324 C325 1.346 . S
C325 N324 1.346 . S
C325 C326 1.396 . S
C325 C335 1.510 . S
C326 C322 1.401 . S
C326 C325 1.396 . S
C327 C322 1.499 . S
C327 H328 0.959 . S
C327 H329 0.960 . S
C327 H330 0.961 . S
H328 C327 0.959 . S
H329 C327 0.960 . S
H330 C327 0.961 . S
O331 Co306 1.967 . S
O331 C339 1.258 . S
O332 Co307 1.941 . S
O332 C339 1.266 . S
H333 C335 0.959 . S
H334 C335 0.961 . S
C335 C325 1.510 . S
C335 H333 0.959 . S
C335 H334 0.961 . S
C335 H336 0.960 . S
H336 C335 0.960 . S
H337 N317 0.862 . S
O338 Co306 1.920 . S
O338 C311 1.289 . S
C339 O331 1.258 . S
C339 O332 1.266 . S
Co340 O343 1.970 . S
Co340 N357 1.989 . S
Co340 O365 1.967 . S
Co340 O372 1.920 . S
Co341 O344 1.966 . S
Co341 N350 2.022 . S
Co341 N358 1.993 . S
Co341 O366 1.941 . S
C342 O343 1.258 . S
C342 O344 1.263 . S
O343 Co340 1.970 . S
O343 C342 1.258 . S
O344 Co341 1.966 . S
O344 C342 1.263 . S
C345 O346 1.235 . S
C345 O372 1.289 . S
O346 C345 1.235 . S
C347 C349 1.400 . S
C347 N350 1.351 . S
C347 C352 1.501 . S
C348 C349 1.387 . S
C348 N351 1.341 . S
C349 C347 1.400 . S
C349 C348 1.387 . S
N350 Co341 2.022 . S
N350 C347 1.351 . S
N350 N351 1.365 . S
N351 C348 1.341 . S
N351 N350 1.365 . S
N351 H371 0.862 . S
C352 C347 1.501 . S
C352 H353 0.961 . S
C352 H354 0.961 . S
C352 H355 0.960 . S
H353 C352 0.961 . S
H354 C352 0.961 . S
H355 C352 0.960 . S
C356 N357 1.342 . S
C356 C360 1.401 . S
C356 C361 1.499 . S
N357 Co340 1.989 . S
N357 C356 1.342 . S
N357 N358 1.388 . S
N358 Co341 1.993 . S
N358 N357 1.388 . S
N358 C359 1.346 . S
C359 N358 1.346 . S
C359 C360 1.396 . S
C359 C369 1.510 . S
C360 C356 1.401 . S
C360 C359 1.396 . S
C361 C356 1.499 . S
C361 H362 0.959 . S
C361 H363 0.960 . S
C361 H364 0.961 . S
H362 C361 0.959 . S
H363 C361 0.960 . S
H364 C361 0.961 . S
O365 Co340 1.967 . S
O365 C373 1.258 . S
O366 Co341 1.941 . S
O366 C373 1.266 . S
H367 C369 0.959 . S
H368 C369 0.961 . S
C369 C359 1.510 . S
C369 H367 0.959 . S
C369 H368 0.961 . S
C369 H370 0.960 . S
H370 C369 0.960 . S
H371 N351 0.862 . S
O372 Co340 1.920 . S
O372 C345 1.289 . S
C373 O365 1.258 . S
C373 O366 1.266 . S
Co374 O377 1.970 . S
Co374 N391 1.989 . S
Co374 O399 1.967 . S
Co374 O406 1.920 . S
Co375 O378 1.966 . S
Co375 N384 2.022 . S
Co375 N392 1.993 . S
Co375 O400 1.941 . S
C376 O377 1.258 . S
C376 O378 1.263 . S
O377 Co374 1.970 . S
O377 C376 1.258 . S
O378 Co375 1.966 . S
O378 C376 1.263 . S
C379 O380 1.235 . S
C379 O406 1.289 . S
O380 C379 1.235 . S
C381 C383 1.400 . S
C381 N384 1.351 . S
C381 C386 1.501 . S
C382 C383 1.387 . S
C382 N385 1.341 . S
C383 C381 1.400 . S
C383 C382 1.387 . S
N384 Co375 2.022 . S
N384 C381 1.351 . S
N384 N385 1.365 . S
N385 C382 1.341 . S
N385 N384 1.365 . S
N385 H405 0.862 . S
C386 C381 1.501 . S
C386 H387 0.961 . S
C386 H388 0.961 . S
C386 H389 0.960 . S
H387 C386 0.961 . S
H388 C386 0.961 . S
H389 C386 0.960 . S
C390 N391 1.342 . S
C390 C394 1.401 . S
C390 C395 1.499 . S
N391 Co374 1.989 . S
N391 C390 1.342 . S
N391 N392 1.388 . S
N392 Co375 1.993 . S
N392 N391 1.388 . S
N392 C393 1.346 . S
C393 N392 1.346 . S
C393 C394 1.396 . S
C393 C403 1.510 . S
C394 C390 1.401 . S
C394 C393 1.396 . S
C395 C390 1.499 . S
C395 H396 0.959 . S
C395 H397 0.960 . S
C395 H398 0.961 . S
H396 C395 0.959 . S
H397 C395 0.960 . S
H398 C395 0.961 . S
O399 Co374 1.967 . S
O399 C407 1.258 . S
O400 Co375 1.941 . S
O400 C407 1.266 . S
H401 C403 0.959 . S
H402 C403 0.961 . S
C403 C393 1.510 . S
C403 H401 0.959 . S
C403 H402 0.961 . S
C403 H404 0.960 . S
H404 C403 0.960 . S
H405 N385 0.862 . S
O406 Co374 1.920 . S
O406 C379 1.289 . S
C407 O399 1.258 . S
C407 O400 1.266 . S
H408 C414 0.930 . S
H409 C418 0.930 . S
H410 C423 0.929 . S
H411 C421 0.929 . S
H412 C416 0.929 . S
H413 C422 0.929 . S
C414 H408 0.930 . S
C414 C415 1.367 . S
C414 C422 1.378 . S
C415 C414 1.367 . S
C415 C423 1.433 . S
C416 H412 0.929 . S
C416 C418 1.378 . S
C416 C420 1.350 . S
C417 C420 1.463 . S
C417 C422 1.350 . S
C417 N425 1.427 . S
C418 H409 0.930 . S
C418 C416 1.378 . S
C418 C419 1.367 . S
C419 C418 1.367 . S
C419 C421 1.433 . S
C420 C416 1.350 . S
C420 C417 1.463 . S
C420 N424 1.427 . S
C421 H411 0.929 . S
C421 C419 1.433 . S
C421 N424 1.384 . S
C422 H413 0.929 . S
C422 C414 1.378 . S
C422 C417 1.350 . S
C423 H410 0.929 . S
C423 C415 1.433 . S
C423 N425 1.384 . S
N424 C420 1.427 . S
N424 C421 1.384 . S
N425 C417 1.427 . S
N425 C423 1.384 . S
H426 C432 0.930 . S
H427 C436 0.930 . S
H428 C441 0.929 . S
H429 C439 0.929 . S
H430 C434 0.929 . S
H431 C440 0.929 . S
C432 H426 0.930 . S
C432 C433 1.367 . S
C432 C440 1.378 . S
C433 C432 1.367 . S
C433 C441 1.433 . S
C434 H430 0.929 . S
C434 C436 1.378 . S
C434 C438 1.350 . S
C435 C438 1.463 . S
C435 C440 1.350 . S
C435 N443 1.427 . S
C436 H427 0.930 . S
C436 C434 1.378 . S
C436 C437 1.367 . S
C437 C436 1.367 . S
C437 C439 1.433 . S
C438 C434 1.350 . S
C438 C435 1.463 . S
C438 N442 1.427 . S
C439 H429 0.929 . S
C439 C437 1.433 . S
C439 N442 1.384 . S
C440 H431 0.929 . S
C440 C432 1.378 . S
C440 C435 1.350 . S
C441 H428 0.929 . S
C441 C433 1.433 . S
C441 N443 1.384 . S
N442 C438 1.427 . S
N442 C439 1.384 . S
N443 C435 1.427 . S
N443 C441 1.384 . S
H444 C450 0.930 . S
H445 C454 0.930 . S
H446 C459 0.929 . S
H447 C457 0.929 . S
H448 C452 0.929 . S
H449 C458 0.929 . S
C450 H444 0.930 . S
C450 C451 1.367 . S
C450 C458 1.378 . S
C451 C450 1.367 . S
C451 C459 1.433 . S
C452 H448 0.929 . S
C452 C454 1.378 . S
C452 C456 1.350 . S
C453 C456 1.463 . S
C453 C458 1.350 . S
C453 N461 1.427 . S
C454 H445 0.930 . S
C454 C452 1.378 . S
C454 C455 1.367 . S
C455 C454 1.367 . S
C455 C457 1.433 . S
C456 C452 1.350 . S
C456 C453 1.463 . S
C456 N460 1.427 . S
C457 H447 0.929 . S
C457 C455 1.433 . S
C457 N460 1.384 . S
C458 H449 0.929 . S
C458 C450 1.378 . S
C458 C453 1.350 . S
C459 H446 0.929 . S
C459 C451 1.433 . S
C459 N461 1.384 . S
N460 C456 1.427 . S
N460 C457 1.384 . S
N461 C453 1.427 . S
N461 C459 1.384 . S
H462 C468 0.930 . S
H463 C472 0.930 . S
H464 C477 0.929 . S
H465 C475 0.929 . S
H466 C470 0.929 . S
H467 C476 0.929 . S
C468 H462 0.930 . S
C468 C469 1.367 . S
C468 C476 1.378 . S
C469 C468 1.367 . S
C469 C477 1.433 . S
C470 H466 0.929 . S
C470 C472 1.378 . S
C470 C474 1.350 . S
C471 C474 1.463 . S
C471 C476 1.350 . S
C471 N479 1.427 . S
C472 H463 0.930 . S
C472 C470 1.378 . S
C472 C473 1.367 . S
C473 C472 1.367 . S
C473 C475 1.433 . S
C474 C470 1.350 . S
C474 C471 1.463 . S
C474 N478 1.427 . S
C475 H465 0.929 . S
C475 C473 1.433 . S
C475 N478 1.384 . S
C476 H467 0.929 . S
C476 C468 1.378 . S
C476 C471 1.350 . S
C477 H464 0.929 . S
C477 C469 1.433 . S
C477 N479 1.384 . S
N478 C474 1.427 . S
N478 C475 1.384 . S
N479 C471 1.427 . S
N479 C477 1.384 . S
H480 C486 0.930 . S
H481 C490 0.930 . S
H482 C495 0.929 . S
H483 C493 0.929 . S
H484 C488 0.929 . S
H485 C494 0.929 . S
C486 H480 0.930 . S
C486 C487 1.367 . S
C486 C494 1.378 . S
C487 C486 1.367 . S
C487 C495 1.433 . S
C488 H484 0.929 . S
C488 C490 1.378 . S
C488 C492 1.350 . S
C489 C492 1.463 . S
C489 C494 1.350 . S
C489 N497 1.427 . S
C490 H481 0.930 . S
C490 C488 1.378 . S
C490 C491 1.367 . S
C491 C490 1.367 . S
C491 C493 1.433 . S
C492 C488 1.350 . S
C492 C489 1.463 . S
C492 N496 1.427 . S
C493 H483 0.929 . S
C493 C491 1.433 . S
C493 N496 1.384 . S
C494 H485 0.929 . S
C494 C486 1.378 . S
C494 C489 1.350 . S
C495 H482 0.929 . S
C495 C487 1.433 . S
C495 N497 1.384 . S
N496 C492 1.427 . S
N496 C493 1.384 . S
N497 C489 1.427 . S
N497 C495 1.384 . S
H498 C504 0.930 . S
H499 C508 0.930 . S
H500 C513 0.929 . S
H501 C511 0.929 . S
H502 C506 0.929 . S
H503 C512 0.929 . S
C504 H498 0.930 . S
C504 C505 1.367 . S
C504 C512 1.378 . S
C505 C504 1.367 . S
C505 C513 1.433 . S
C506 H502 0.929 . S
C506 C508 1.378 . S
C506 C510 1.350 . S
C507 C510 1.463 . S
C507 C512 1.350 . S
C507 N515 1.427 . S
C508 H499 0.930 . S
C508 C506 1.378 . S
C508 C509 1.367 . S
C509 C508 1.367 . S
C509 C511 1.433 . S
C510 C506 1.350 . S
C510 C507 1.463 . S
C510 N514 1.427 . S
C511 H501 0.929 . S
C511 C509 1.433 . S
C511 N514 1.384 . S
C512 H503 0.929 . S
C512 C504 1.378 . S
C512 C507 1.350 . S
C513 H500 0.929 . S
C513 C505 1.433 . S
C513 N515 1.384 . S
N514 C510 1.427 . S
N514 C511 1.384 . S
N515 C507 1.427 . S
N515 C513 1.384 . S
H516 C522 0.930 . S
H517 C526 0.930 . S
H518 C531 0.929 . S
H519 C529 0.929 . S
H520 C524 0.929 . S
H521 C530 0.929 . S
C522 H516 0.930 . S
C522 C523 1.367 . S
C522 C530 1.378 . S
C523 C522 1.367 . S
C523 C531 1.433 1_545 S
C524 H520 0.929 . S
C524 C526 1.378 . S
C524 C528 1.350 . S
C525 C528 1.463 1_544 S
C525 C530 1.350 . S
C525 N533 1.427 1_545 S
C526 H517 0.930 . S
C526 C524 1.378 . S
C526 C527 1.367 . S
C527 C526 1.367 . S
C527 C529 1.433 1_565 S
C528 C524 1.350 . S
C528 C525 1.463 1_566 S
C528 N532 1.427 1_565 S
C529 H519 0.929 . S
C529 C527 1.433 1_545 S
C529 N532 1.384 . S
C530 H521 0.929 . S
C530 C522 1.378 . S
C530 C525 1.350 . S
C531 H518 0.929 . S
C531 C523 1.433 1_565 S
C531 N533 1.384 . S
N532 C528 1.427 1_545 S
N532 C529 1.384 . S
N533 C525 1.427 1_565 S
N533 C531 1.384 . S
H534 C540 0.930 . S
H535 C544 0.930 . S
H536 C549 0.929 . S
H537 C547 0.929 . S
H538 C542 0.929 . S
H539 C548 0.929 . S
C540 H534 0.930 . S
C540 C541 1.367 1_455 S
C540 C548 1.378 . S
C541 C540 1.367 1_655 S
C541 C549 1.433 1_554 S
C542 H538 0.929 . S
C542 C544 1.378 . S
C542 C546 1.350 1_655 S
C543 C546 1.463 1_654 S
C543 C548 1.350 1_655 S
C543 N551 1.427 1_554 S
C544 H535 0.930 . S
C544 C542 1.378 . S
C544 C545 1.367 1_655 S
C545 C544 1.367 1_455 S
C545 C547 1.433 1_556 S
C546 C542 1.350 1_455 S
C546 C543 1.463 1_456 S
C546 N550 1.427 1_556 S
C547 H537 0.929 . S
C547 C545 1.433 1_554 S
C547 N550 1.384 . S
C548 H539 0.929 . S
C548 C540 1.378 . S
C548 C543 1.350 1_455 S
C549 H536 0.929 . S
C549 C541 1.433 1_556 S
C549 N551 1.384 . S
N550 C546 1.427 1_554 S
N550 C547 1.384 . S
N551 C543 1.427 1_556 S
N551 C549 1.384 . S
H552 C558 0.930 . S
H553 C562 0.930 . S
H554 C567 0.929 . S
H555 C565 0.929 . S
H556 C560 0.929 . S
H557 C566 0.929 . S
C558 H552 0.930 . S
C558 C559 1.367 1_554 S
C558 C566 1.378 . S
C559 C558 1.367 1_556 S
C559 C567 1.433 . S
C560 H556 0.929 . S
C560 C562 1.378 . S
C560 C564 1.350 1_556 S
C561 C564 1.463 1_556 S
C561 C566 1.350 1_556 S
C561 N569 1.427 . S
C562 H553 0.930 . S
C562 C560 1.378 . S
C562 C563 1.367 1_556 S
C563 C562 1.367 1_554 S
C563 C565 1.433 . S
C564 C560 1.350 1_554 S
C564 C561 1.463 1_554 S
C564 N568 1.427 . S
C565 H555 0.929 . S
C565 C563 1.433 . S
C565 N568 1.384 . S
C566 H557 0.929 . S
C566 C558 1.378 . S
C566 C561 1.350 1_554 S
C567 H554 0.929 . S
C567 C559 1.433 . S
C567 N569 1.384 . S
N568 C564 1.427 . S
N568 C565 1.384 . S
N569 C561 1.427 . S
N569 C567 1.384 . S
H570 C576 0.930 . S
H571 C580 0.930 . S
H572 C585 0.929 . S
H573 C583 0.929 . S
H574 C578 0.929 . S
H575 C584 0.929 . S
C576 H570 0.930 . S
C576 C577 1.367 1_655 S
C576 C584 1.378 . S
C577 C576 1.367 1_455 S
C577 C585 1.433 . S
C578 H574 0.929 . S
C578 C580 1.378 . S
C578 C582 1.350 1_455 S
C579 C582 1.463 1_455 S
C579 C584 1.350 1_455 S
C579 N587 1.427 . S
C580 H571 0.930 . S
C580 C578 1.378 . S
C580 C581 1.367 1_455 S
C581 C580 1.367 1_655 S
C581 C583 1.433 . S
C582 C578 1.350 1_655 S
C582 C579 1.463 1_655 S
C582 N586 1.427 . S
C583 H573 0.929 . S
C583 C581 1.433 . S
C583 N586 1.384 . S
C584 H575 0.929 . S
C584 C576 1.378 . S
C584 C579 1.350 1_655 S
C585 H572 0.929 . S
C585 C577 1.433 . S
C585 N587 1.384 . S
N586 C582 1.427 . S
N586 C583 1.384 . S
N587 C579 1.427 . S
N587 C585 1.384 . S
H588 C594 0.930 . S
H589 C598 0.930 . S
H590 C603 0.929 . S
H591 C601 0.929 . S
H592 C596 0.929 . S
H593 C602 0.929 . S
C594 H588 0.930 . S
C594 C595 1.367 . S
C594 C602 1.378 . S
C595 C594 1.367 . S
C595 C603 1.433 . S
C596 H592 0.929 . S
C596 C598 1.378 . S
C596 C600 1.350 . S
C597 C600 1.463 . S
C597 C602 1.350 . S
C597 N605 1.427 . S
C598 H589 0.930 . S
C598 C596 1.378 . S
C598 C599 1.367 . S
C599 C598 1.367 . S
C599 C601 1.433 . S
C600 C596 1.350 . S
C600 C597 1.463 . S
C600 N604 1.427 . S
C601 H591 0.929 . S
C601 C599 1.433 . S
C601 N604 1.384 . S
C602 H593 0.929 . S
C602 C594 1.378 . S
C602 C597 1.350 . S
C603 H590 0.929 . S
C603 C595 1.433 . S
C603 N605 1.384 . S
N604 C600 1.427 . S
N604 C601 1.384 . S
N605 C597 1.427 . S
N605 C603 1.384 . S
H606 C612 0.938 . S
H607 C616 0.938 . S
H608 C621 0.929 . S
H609 C619 0.929 . S
H610 C614 0.929 . S
H611 C620 0.929 . S
C612 H606 0.938 . S
C612 C613 1.361 1_565 S
C612 C620 1.376 . S
C613 C612 1.361 1_545 S
C613 C621 1.433 . S
C614 H610 0.929 . S
C614 C616 1.376 . S
C614 C618 1.350 1_545 S
C615 C618 1.463 1_545 S
C615 C620 1.350 1_545 S
C615 N623 1.427 . S
C616 H607 0.938 . S
C616 C614 1.376 . S
C616 C617 1.361 1_545 S
C617 C616 1.361 1_565 S
C617 C619 1.433 . S
C618 C614 1.350 1_565 S
C618 C615 1.463 1_565 S
C618 N622 1.427 . S
C619 H609 0.929 . S
C619 C617 1.433 . S
C619 N622 1.384 . S
C620 H611 0.929 . S
C620 C612 1.376 . S
C620 C615 1.350 1_565 S
C621 H608 0.929 . S
C621 C613 1.433 . S
C621 N623 1.384 . S
N622 C618 1.427 . S
N622 C619 1.384 . S
N623 C615 1.427 . S
N623 C621 1.384 . S
H624 C630 0.930 . S
H625 C634 0.930 . S
H626 C639 0.929 . S
H627 C637 0.929 . S
H628 C632 0.929 . S
H629 C638 0.929 . S
C630 H624 0.930 . S
C630 C631 1.367 . S
C630 C638 1.378 . S
C631 C630 1.367 . S
C631 C639 1.433 . S
C632 H628 0.929 . S
C632 C634 1.378 . S
C632 C636 1.350 . S
C633 C636 1.463 . S
C633 C638 1.350 . S
C633 N641 1.427 . S
C634 H625 0.930 . S
C634 C632 1.378 . S
C634 C635 1.367 . S
C635 C634 1.367 . S
C635 C637 1.433 . S
C636 C632 1.350 . S
C636 C633 1.463 . S
C636 N640 1.427 . S
C637 H627 0.929 . S
C637 C635 1.433 . S
C637 N640 1.384 . S
C638 H629 0.929 . S
C638 C630 1.378 . S
C638 C633 1.350 . S
C639 H626 0.929 . S
C639 C631 1.433 . S
C639 N641 1.384 . S
N640 C636 1.427 . S
N640 C637 1.384 . S
N641 C633 1.427 . S
N641 C639 1.384 . S
H642 C648 0.930 . S
H643 C652 0.930 . S
H644 C657 0.929 . S
H645 C655 0.929 . S
H646 C650 0.929 . S
H647 C656 0.929 . S
C648 H642 0.930 . S
C648 C649 1.367 . S
C648 C656 1.378 . S
C649 C648 1.367 . S
C649 C657 1.433 . S
C650 H646 0.929 . S
C650 C652 1.378 . S
C650 C654 1.350 . S
C651 C654 1.463 . S
C651 C656 1.350 . S
C651 N659 1.427 . S
C652 H643 0.930 . S
C652 C650 1.378 . S
C652 C653 1.367 . S
C653 C652 1.367 . S
C653 C655 1.433 . S
C654 C650 1.350 . S
C654 C651 1.463 . S
C654 N658 1.427 . S
C655 H645 0.929 . S
C655 C653 1.433 . S
C655 N658 1.384 . S
C656 H647 0.929 . S
C656 C648 1.378 . S
C656 C651 1.350 . S
C657 H644 0.929 . S
C657 C649 1.433 . S
C657 N659 1.384 . S
N658 C654 1.427 . S
N658 C655 1.384 . S
N659 C651 1.427 . S
N659 C657 1.384 . S
H660 C666 0.930 . S
H661 C670 0.930 . S
H662 C675 0.929 . S
H663 C673 0.929 . S
H664 C668 0.929 . S
H665 C674 0.929 . S
C666 H660 0.930 . S
C666 C667 1.367 . S
C666 C674 1.378 . S
C667 C666 1.367 . S
C667 C675 1.433 . S
C668 H664 0.929 . S
C668 C670 1.378 . S
C668 C672 1.350 . S
C669 C672 1.463 . S
C669 C674 1.350 . S
C669 N677 1.427 . S
C670 H661 0.930 . S
C670 C668 1.378 . S
C670 C671 1.367 . S
C671 C670 1.367 . S
C671 C673 1.433 . S
C672 C668 1.350 . S
C672 C669 1.463 . S
C672 N676 1.427 . S
C673 H663 0.929 . S
C673 C671 1.433 . S
C673 N676 1.384 . S
C674 H665 0.929 . S
C674 C666 1.378 . S
C674 C669 1.350 . S
C675 H662 0.929 . S
C675 C667 1.433 . S
C675 N677 1.384 . S
N676 C672 1.427 . S
N676 C673 1.384 . S
N677 C669 1.427 . S
N677 C675 1.384 . S
H678 C684 0.930 . S
H679 C688 0.930 . S
H680 C693 0.929 . S
H681 C691 0.929 . S
H682 C686 0.929 . S
H683 C692 0.929 . S
C684 H678 0.930 . S
C684 C685 1.367 . S
C684 C692 1.378 . S
C685 C684 1.367 . S
C685 C693 1.433 . S
C686 H682 0.929 . S
C686 C688 1.378 . S
C686 C690 1.350 . S
C687 C690 1.463 . S
C687 C692 1.350 . S
C687 N695 1.427 . S
C688 H679 0.930 . S
C688 C686 1.378 . S
C688 C689 1.367 . S
C689 C688 1.367 . S
C689 C691 1.433 . S
C690 C686 1.350 . S
C690 C687 1.463 . S
C690 N694 1.427 . S
C691 H681 0.929 . S
C691 C689 1.433 . S
C691 N694 1.384 . S
C692 H683 0.929 . S
C692 C684 1.378 . S
C692 C687 1.350 . S
C693 H680 0.929 . S
C693 C685 1.433 . S
C693 N695 1.384 . S
N694 C690 1.427 . S
N694 C691 1.384 . S
N695 C687 1.427 . S
N695 C693 1.384 . S
H696 C702 0.930 . S
H697 C706 0.930 . S
H698 C711 0.929 . S
H699 C709 0.929 . S
H700 C704 0.929 . S
H701 C710 0.929 . S
C702 H696 0.930 . S
C702 C703 1.367 . S
C702 C710 1.378 . S
C703 C702 1.367 . S
C703 C711 1.433 . S
C704 H700 0.929 . S
C704 C706 1.378 . S
C704 C708 1.350 . S
C705 C708 1.463 . S
C705 C710 1.350 . S
C705 N713 1.427 . S
C706 H697 0.930 . S
C706 C704 1.378 . S
C706 C707 1.367 . S
C707 C706 1.367 . S
C707 C709 1.433 . S
C708 C704 1.350 . S
C708 C705 1.463 . S
C708 N712 1.427 . S
C709 H699 0.929 . S
C709 C707 1.433 . S
C709 N712 1.384 . S
C710 H701 0.929 . S
C710 C702 1.378 . S
C710 C705 1.350 . S
C711 H698 0.929 . S
C711 C703 1.433 . S
C711 N713 1.384 . S
N712 C708 1.427 . S
N712 C709 1.384 . S
N713 C705 1.427 . S
N713 C711 1.384 . S
H714 C720 0.930 . S
H715 C724 0.930 . S
H716 C729 0.929 . S
H717 C727 0.929 . S
H718 C722 0.929 . S
H719 C728 0.929 . S
C720 H714 0.930 . S
C720 C721 1.367 . S
C720 C728 1.378 . S
C721 C720 1.367 . S
C721 C729 1.433 . S
C722 H718 0.929 . S
C722 C724 1.378 . S
C722 C726 1.350 . S
C723 C726 1.463 . S
C723 C728 1.350 . S
C723 N731 1.427 . S
C724 H715 0.930 . S
C724 C722 1.378 . S
C724 C725 1.367 . S
C725 C724 1.367 . S
C725 C727 1.433 . S
C726 C722 1.350 . S
C726 C723 1.463 . S
C726 N730 1.427 . S
C727 H717 0.929 . S
C727 C725 1.433 . S
C727 N730 1.384 . S
C728 H719 0.929 . S
C728 C720 1.378 . S
C728 C723 1.350 . S
C729 H716 0.929 . S
C729 C721 1.433 . S
C729 N731 1.384 . S
N730 C726 1.427 . S
N730 C727 1.384 . S
N731 C723 1.427 . S
N731 C729 1.384 . S
H732 C738 0.930 . S
H733 C742 0.930 . S
H734 C747 0.929 . S
H735 C745 0.929 . S
H736 C740 0.929 . S
H737 C746 0.929 . S
C738 H732 0.930 . S
C738 C739 1.367 . S
C738 C746 1.378 . S
C739 C738 1.367 . S
C739 C747 1.433 1_556 S
C740 H736 0.929 . S
C740 C742 1.378 . S
C740 C744 1.350 . S
C741 C744 1.463 . S
C741 C746 1.350 1_554 S
C741 N749 1.427 . S
C742 H733 0.930 . S
C742 C740 1.378 . S
C742 C743 1.367 . S
C743 C742 1.367 . S
C743 C745 1.433 . S
C744 C740 1.350 . S
C744 C741 1.463 . S
C744 N748 1.427 . S
C745 H735 0.929 . S
C745 C743 1.433 . S
C745 N748 1.384 . S
C746 H737 0.929 . S
C746 C738 1.378 . S
C746 C741 1.350 1_556 S
C747 H734 0.929 . S
C747 C739 1.433 1_554 S
C747 N749 1.384 . S
N748 C744 1.427 . S
N748 C745 1.384 . S
N749 C741 1.427 . S
N749 C747 1.384 . S
H750 C756 0.930 . S
H751 C760 0.930 . S
H752 C765 0.929 . S
H753 C763 0.929 . S
H754 C758 0.929 . S
H755 C764 0.929 . S
C756 H750 0.930 . S
C756 C757 1.367 . S
C756 C764 1.378 . S
C757 C756 1.367 . S
C757 C765 1.433 1_556 S
C758 H754 0.929 . S
C758 C760 1.378 . S
C758 C762 1.350 . S
C759 C762 1.463 . S
C759 C764 1.350 1_554 S
C759 N767 1.427 . S
C760 H751 0.930 . S
C760 C758 1.378 . S
C760 C761 1.367 . S
C761 C760 1.367 . S
C761 C763 1.433 . S
C762 C758 1.350 . S
C762 C759 1.463 . S
C762 N766 1.427 . S
C763 H753 0.929 . S
C763 C761 1.433 . S
C763 N766 1.384 . S
C764 H755 0.929 . S
C764 C756 1.378 . S
C764 C759 1.350 1_556 S
C765 H752 0.929 . S
C765 C757 1.433 1_554 S
C765 N767 1.384 . S
N766 C762 1.427 . S
N766 C763 1.384 . S
N767 C759 1.427 . S
N767 C765 1.384 . S
H768 C774 0.930 . S
H769 C778 0.930 . S
H770 C783 0.929 . S
H771 C781 0.929 . S
H772 C776 0.929 . S
H773 C782 0.929 . S
C774 H768 0.930 . S
C774 C775 1.367 . S
C774 C782 1.378 . S
C775 C774 1.367 . S
C775 C783 1.433 . S
C776 H772 0.929 . S
C776 C778 1.378 . S
C776 C780 1.350 1_556 S
C777 C780 1.463 . S
C777 C782 1.350 . S
C777 N785 1.427 . S
C778 H769 0.930 . S
C778 C776 1.378 . S
C778 C779 1.367 . S
C779 C778 1.367 . S
C779 C781 1.433 1_556 S
C780 C776 1.350 1_554 S
C780 C777 1.463 . S
C780 N784 1.427 . S
C781 H771 0.929 . S
C781 C779 1.433 1_554 S
C781 N784 1.384 . S
C782 H773 0.929 . S
C782 C774 1.378 . S
C782 C777 1.350 . S
C783 H770 0.929 . S
C783 C775 1.433 . S
C783 N785 1.384 . S
N784 C780 1.427 . S
N784 C781 1.384 . S
N785 C777 1.427 . S
N785 C783 1.384 . S
H786 C792 0.930 . S
H787 C796 0.930 . S
H788 C801 0.929 . S
H789 C799 0.929 . S
H790 C794 0.929 . S
H791 C800 0.929 . S
C792 H786 0.930 . S
C792 C793 1.367 . S
C792 C800 1.378 . S
C793 C792 1.367 . S
C793 C801 1.433 . S
C794 H790 0.929 . S
C794 C796 1.378 . S
C794 C798 1.350 . S
C795 C798 1.463 . S
C795 C800 1.350 . S
C795 N803 1.427 . S
C796 H787 0.930 . S
C796 C794 1.378 . S
C796 C797 1.367 . S
C797 C796 1.367 . S
C797 C799 1.433 . S
C798 C794 1.350 . S
C798 C795 1.463 . S
C798 N802 1.427 . S
C799 H789 0.929 . S
C799 C797 1.433 . S
C799 N802 1.384 . S
C800 H791 0.929 . S
C800 C792 1.378 . S
C800 C795 1.350 . S
C801 H788 0.929 . S
C801 C793 1.433 . S
C801 N803 1.384 . S
N802 C798 1.427 . S
N802 C799 1.384 . S
N803 C795 1.427 . S
N803 C801 1.384 . S
H804 C810 0.930 . S
H805 C814 0.930 . S
H806 C819 0.929 . S
H807 C817 0.929 . S
H808 C812 0.929 . S
H809 C818 0.929 . S
C810 H804 0.930 . S
C810 C811 1.367 . S
C810 C818 1.378 . S
C811 C810 1.367 . S
C811 C819 1.433 . S
C812 H808 0.929 . S
C812 C814 1.378 . S
C812 C816 1.350 . S
C813 C816 1.463 . S
C813 C818 1.350 . S
C813 N821 1.427 . S
C814 H805 0.930 . S
C814 C812 1.378 . S
C814 C815 1.367 . S
C815 C814 1.367 . S
C815 C817 1.433 . S
C816 C812 1.350 . S
C816 C813 1.463 . S
C816 N820 1.427 . S
C817 H807 0.929 . S
C817 C815 1.433 . S
C817 N820 1.384 . S
C818 H809 0.929 . S
C818 C810 1.378 . S
C818 C813 1.350 . S
C819 H806 0.929 . S
C819 C811 1.433 . S
C819 N821 1.384 . S
N820 C816 1.427 . S
N820 C817 1.384 . S
N821 C813 1.427 . S
N821 C819 1.384 . S
H822 C828 0.930 . S
H823 C832 0.930 . S
H824 C837 0.929 . S
H825 C835 0.929 . S
H826 C830 0.929 . S
H827 C836 0.929 . S
C828 H822 0.930 . S
C828 C829 1.367 . S
C828 C836 1.378 . S
C829 C828 1.367 . S
C829 C837 1.433 . S
C830 H826 0.929 . S
C830 C832 1.378 . S
C830 C834 1.350 . S
C831 C834 1.463 . S
C831 C836 1.350 . S
C831 N839 1.427 . S
C832 H823 0.930 . S
C832 C830 1.378 . S
C832 C833 1.367 . S
C833 C832 1.367 . S
C833 C835 1.433 . S
C834 C830 1.350 . S
C834 C831 1.463 . S
C834 N838 1.427 . S
C835 H825 0.929 . S
C835 C833 1.433 . S
C835 N838 1.384 . S
C836 H827 0.929 . S
C836 C828 1.378 . S
C836 C831 1.350 . S
C837 H824 0.929 . S
C837 C829 1.433 . S
C837 N839 1.384 . S
N838 C834 1.427 . S
N838 C835 1.384 . S
N839 C831 1.427 . S
N839 C837 1.384 . S
H840 C846 0.930 . S
H841 C850 0.930 . S
H842 C855 0.929 1_554 S
H843 C853 0.929 . S
H844 C848 0.929 . S
H845 C854 0.929 . S
C846 H840 0.930 . S
C846 C847 1.367 . S
C846 C854 1.378 . S
C847 C846 1.367 . S
C847 C855 1.433 . S
C848 H844 0.929 . S
C848 C850 1.378 . S
C848 C852 1.350 1_554 S
C849 C852 1.463 . S
C849 C854 1.350 . S
C849 N857 1.427 1_556 S
C850 H841 0.930 . S
C850 C848 1.378 . S
C850 C851 1.367 . S
C851 C850 1.367 . S
C851 C853 1.433 1_554 S
C852 C848 1.350 1_556 S
C852 C849 1.463 . S
C852 N856 1.427 . S
C853 H843 0.929 . S
C853 C851 1.433 1_556 S
C853 N856 1.384 . S
C854 H845 0.929 . S
C854 C846 1.378 . S
C854 C849 1.350 . S
C855 H842 0.929 1_556 S
C855 C847 1.433 . S
C855 N857 1.384 1_556 S
N856 C852 1.427 . S
N856 C853 1.384 . S
N857 C849 1.427 1_554 S
N857 C855 1.384 1_554 S
H858 C864 0.930 . S
H859 C868 0.935 . S
H860 C873 0.929 . S
H861 C871 0.929 . S
H862 C866 0.916 1_554 S
H863 C872 0.929 . S
C864 H858 0.930 . S
C864 C865 1.367 1_556 S
C864 C872 1.378 . S
C865 C864 1.367 1_554 S
C865 C873 1.433 . S
C866 H862 0.916 1_556 S
C866 C868 1.383 . S
C866 C870 1.358 . S
C867 C870 1.463 . S
C867 C872 1.350 . S
C867 N875 1.427 1_556 S
C868 H859 0.935 . S
C868 C866 1.383 . S
C868 C869 1.367 . S
C869 C868 1.367 . S
C869 C871 1.433 . S
C870 C866 1.358 . S
C870 C867 1.463 . S
C870 N874 1.427 . S
C871 H861 0.929 . S
C871 C869 1.433 . S
C871 N874 1.384 . S
C872 H863 0.929 . S
C872 C864 1.378 . S
C872 C867 1.350 . S
C873 H860 0.929 . S
C873 C865 1.433 . S
C873 N875 1.384 . S
N874 C870 1.427 . S
N874 C871 1.384 . S
N875 C867 1.427 1_554 S
N875 C873 1.384 . S
H876 C882 0.930 . S
H877 C886 0.930 . S
H878 C891 0.929 1_554 S
H879 C889 0.929 . S
H880 C884 0.929 . S
H881 C890 0.929 . S
C882 H876 0.930 . S
C882 C883 1.367 . S
C882 C890 1.378 . S
C883 C882 1.367 . S
C883 C891 1.433 . S
C884 H880 0.929 . S
C884 C886 1.378 . S
C884 C888 1.350 1_554 S
C885 C888 1.463 . S
C885 C890 1.350 . S
C885 N893 1.427 1_556 S
C886 H877 0.930 . S
C886 C884 1.378 . S
C886 C887 1.367 . S
C887 C886 1.367 . S
C887 C889 1.433 1_554 S
C888 C884 1.350 1_556 S
C888 C885 1.463 . S
C888 N892 1.427 . S
C889 H879 0.929 . S
C889 C887 1.433 1_556 S
C889 N892 1.384 . S
C890 H881 0.929 . S
C890 C882 1.378 . S
C890 C885 1.350 . S
C891 H878 0.929 1_556 S
C891 C883 1.433 . S
C891 N893 1.384 1_556 S
N892 C888 1.427 . S
N892 C889 1.384 . S
N893 C885 1.427 1_554 S
N893 C891 1.384 1_554 S
H894 C900 0.930 . S
H895 C904 0.930 . S
H896 C909 0.929 . S
H897 C907 0.929 . S
H898 C902 0.929 . S
H899 C908 0.929 . S
C900 H894 0.930 . S
C900 C901 1.367 . S
C900 C908 1.378 . S
C901 C900 1.367 . S
C901 C909 1.433 . S
C902 H898 0.929 . S
C902 C904 1.378 . S
C902 C906 1.350 . S
C903 C906 1.463 . S
C903 C908 1.350 . S
C903 N911 1.427 . S
C904 H895 0.930 . S
C904 C902 1.378 . S
C904 C905 1.367 . S
C905 C904 1.367 . S
C905 C907 1.433 . S
C906 C902 1.350 . S
C906 C903 1.463 . S
C906 N910 1.427 . S
C907 H897 0.929 . S
C907 C905 1.433 . S
C907 N910 1.384 . S
C908 H899 0.929 . S
C908 C900 1.378 . S
C908 C903 1.350 . S
C909 H896 0.929 . S
C909 C901 1.433 . S
C909 N911 1.384 . S
N910 C906 1.427 . S
N910 C907 1.384 . S
N911 C903 1.427 . S
N911 C909 1.384 . S
H912 C918 0.930 . S
H913 C922 0.930 . S
H914 C927 0.929 . S
H915 C925 0.929 . S
H916 C920 0.929 . S
H917 C926 0.929 . S
C918 H912 0.930 . S
C918 C919 1.367 . S
C918 C926 1.378 . S
C919 C918 1.367 . S
C919 C927 1.433 . S
C920 H916 0.929 . S
C920 C922 1.378 . S
C920 C924 1.350 . S
C921 C924 1.463 . S
C921 C926 1.350 . S
C921 N929 1.427 . S
C922 H913 0.930 . S
C922 C920 1.378 . S
C922 C923 1.367 . S
C923 C922 1.367 . S
C923 C925 1.433 . S
C924 C920 1.350 . S
C924 C921 1.463 . S
C924 N928 1.427 . S
C925 H915 0.929 . S
C925 C923 1.433 . S
C925 N928 1.384 . S
C926 H917 0.929 . S
C926 C918 1.378 . S
C926 C921 1.350 . S
C927 H914 0.929 . S
C927 C919 1.433 . S
C927 N929 1.384 . S
N928 C924 1.427 . S
N928 C925 1.384 . S
N929 C921 1.427 . S
N929 C927 1.384 . S
H930 C936 0.930 . S
H931 C940 0.930 . S
H932 C945 0.929 . S
H933 C943 0.929 . S
H934 C938 0.929 . S
H935 C944 0.929 . S
C936 H930 0.930 . S
C936 C937 1.367 . S
C936 C944 1.378 . S
C937 C936 1.367 . S
C937 C945 1.433 . S
C938 H934 0.929 . S
C938 C940 1.378 . S
C938 C942 1.350 . S
C939 C942 1.463 . S
C939 C944 1.350 . S
C939 N947 1.427 . S
C940 H931 0.930 . S
C940 C938 1.378 . S
C940 C941 1.367 . S
C941 C940 1.367 . S
C941 C943 1.433 . S
C942 C938 1.350 . S
C942 C939 1.463 . S
C942 N946 1.427 . S
C943 H933 0.929 . S
C943 C941 1.433 . S
C943 N946 1.384 . S
C944 H935 0.929 . S
C944 C936 1.378 . S
C944 C939 1.350 . S
C945 H932 0.929 . S
C945 C937 1.433 . S
C945 N947 1.384 . S
N946 C942 1.427 . S
N946 C943 1.384 . S
N947 C939 1.427 . S
N947 C945 1.384 . S
C415 C175 0.850 . S
C419 C5 0.818 . S
C433 C39 0.820 . S
C437 C107 0.850 . S
C451 C73 0.850 . S
C455 C141 0.820 . S
C469 C209 0.819 . S
C473 C379 0.849 . S
C487 C311 0.823 . S
C491 C243 0.844 . S
C505 C345 0.835 . S
C509 C277 0.836 . S
C523 C33 1.791 . S
C527 C237 1.791 . S
C541 C67 1.804 . S
C545 C271 1.804 . S
C559 C305 1.810 . S
C563 C101 1.810 . S
C577 C339 1.810 . S
C581 C135 1.810 . S
C595 C169 1.810 . S
C599 C373 1.810 . S
C613 C203 1.804 . S
C617 C407 1.804 . S
C631 C156 1.707 . S
C635 C20 1.693 . S
C649 C190 1.693 . S
C653 C54 1.706 . S
C667 C122 1.705 . S
C671 C88 1.693 . S
C685 C224 1.693 . S
C689 C360 1.708 . S
C703 C258 1.702 . S
C707 C394 1.702 . S
C721 C326 1.693 . S
C725 C292 1.706 . S
C739 C9 1.641 . S
C743 C70 1.712 . S
C757 C43 1.640 . S
C761 C2 1.712 . S
C775 C36 1.708 . S
C779 C77 1.634 . S
C793 C111 1.638 . S
C797 C138 1.713 . S
C811 C172 1.710 . S
C815 C145 1.641 . S
C829 C104 1.710 . S
C833 C179 1.639 . S
C847 C274 1.711 . S
C851 C213 1.641 . S
C865 C247 1.632 . S
C869 C206 1.712 . S
C883 C240 1.711 . S
C887 C281 1.641 . S
C901 C342 1.710 . S
C905 C315 1.626 . S
C919 C376 1.712 . S
C923 C349 1.640 . S
C937 C383 1.636 . S
C941 C308 1.709 . S
