# Generated by pormake.
# Topology wgd, (5)-cn, num edge types: 1
# Building blocks:
#     Node 0, Type 0, BuildingBlock: XOMCOT_clean_sbu_1, # of connection points: 5
#     Node 1, Type 0, BuildingBlock: XOMCOT_clean_sbu_1, # of connection points: 5
#     Node 2, Type 0, BuildingBlock: XOMCOT_clean_sbu_1, # of connection points: 5
#     Node 3, Type 0, BuildingBlock: XOMCOT_clean_sbu_1, # of connection points: 5
#     Node 4, Type 0, BuildingBlock: XOMCOT_clean_sbu_1, # of connection points: 5
#     Node 5, Type 0, BuildingBlock: XOMCOT_clean_sbu_1, # of connection points: 5
#     Node 6, Type 0, BuildingBlock: XOMCOT_clean_sbu_1, # of connection points: 5
#     Node 7, Type 0, BuildingBlock: XOMCOT_clean_sbu_1, # of connection points: 5
#     Node 8, Type 0, BuildingBlock: XOMCOT_clean_sbu_1, # of connection points: 5
#     Node 9, Type 0, BuildingBlock: XOMCOT_clean_sbu_1, # of connection points: 5
#     Node 10, Type 0, BuildingBlock: XOMCOT_clean_sbu_1, # of connection points: 5
#     Node 11, Type 0, BuildingBlock: XOMCOT_clean_sbu_1, # of connection points: 5
#     Node 12, Type 0, BuildingBlock: XOMCOT_clean_sbu_1, # of connection points: 5
#     Node 13, Type 0, BuildingBlock: XOMCOT_clean_sbu_1, # of connection points: 5
#     Node 14, Type 0, BuildingBlock: XOMCOT_clean_sbu_1, # of connection points: 5
#     Node 15, Type 0, BuildingBlock: XOMCOT_clean_sbu_1, # of connection points: 5
#     Node 16, Type 0, BuildingBlock: XOMCOT_clean_sbu_1, # of connection points: 5
#     Node 17, Type 0, BuildingBlock: XOMCOT_clean_sbu_1, # of connection points: 5
#     Node 18, Type 0, BuildingBlock: XOMCOT_clean_sbu_1, # of connection points: 5
#     Node 19, Type 0, BuildingBlock: XOMCOT_clean_sbu_1, # of connection points: 5
#     Node 20, Type 0, BuildingBlock: XOMCOT_clean_sbu_1, # of connection points: 5
#     Node 21, Type 0, BuildingBlock: XOMCOT_clean_sbu_1, # of connection points: 5
#     Node 22, Type 0, BuildingBlock: XOMCOT_clean_sbu_1, # of connection points: 5
#     Node 23, Type 0, BuildingBlock: XOMCOT_clean_sbu_1, # of connection points: 5
#     Node 24, Type 0, BuildingBlock: XOMCOT_clean_sbu_1, # of connection points: 5
#     Node 25, Type 0, BuildingBlock: XOMCOT_clean_sbu_1, # of connection points: 5
#     Node 26, Type 0, BuildingBlock: XOMCOT_clean_sbu_1, # of connection points: 5
#     Node 27, Type 0, BuildingBlock: XOMCOT_clean_sbu_1, # of connection points: 5
#     Node 28, Type 0, BuildingBlock: XOMCOT_clean_sbu_1, # of connection points: 5
#     Node 29, Type 0, BuildingBlock: XOMCOT_clean_sbu_1, # of connection points: 5
#     Node 30, Type 0, BuildingBlock: XOMCOT_clean_sbu_1, # of connection points: 5
#     Node 31, Type 0, BuildingBlock: XOMCOT_clean_sbu_1, # of connection points: 5
#     Edge 32, Type (0, 0), BuildingBlock: XIVTED_clean_linker_0, # of connection points: 2
#     Edge 33, Type (0, 0), BuildingBlock: XIVTED_clean_linker_0, # of connection points: 2
#     Edge 34, Type (0, 0), BuildingBlock: XIVTED_clean_linker_0, # of connection points: 2
#     Edge 35, Type (0, 0), BuildingBlock: XIVTED_clean_linker_0, # of connection points: 2
#     Edge 36, Type (0, 0), BuildingBlock: XIVTED_clean_linker_0, # of connection points: 2
#     Edge 37, Type (0, 0), BuildingBlock: XIVTED_clean_linker_0, # of connection points: 2
#     Edge 38, Type (0, 0), BuildingBlock: XIVTED_clean_linker_0, # of connection points: 2
#     Edge 39, Type (0, 0), BuildingBlock: XIVTED_clean_linker_0, # of connection points: 2
#     Edge 40, Type (0, 0), BuildingBlock: XIVTED_clean_linker_0, # of connection points: 2
#     Edge 41, Type (0, 0), BuildingBlock: XIVTED_clean_linker_0, # of connection points: 2
#     Edge 42, Type (0, 0), BuildingBlock: XIVTED_clean_linker_0, # of connection points: 2
#     Edge 43, Type (0, 0), BuildingBlock: XIVTED_clean_linker_0, # of connection points: 2
#     Edge 44, Type (0, 0), BuildingBlock: XIVTED_clean_linker_0, # of connection points: 2
#     Edge 45, Type (0, 0), BuildingBlock: XIVTED_clean_linker_0, # of connection points: 2
#     Edge 46, Type (0, 0), BuildingBlock: XIVTED_clean_linker_0, # of connection points: 2
#     Edge 47, Type (0, 0), BuildingBlock: XIVTED_clean_linker_0, # of connection points: 2
#     Edge 48, Type (0, 0), BuildingBlock: XIVTED_clean_linker_0, # of connection points: 2
#     Edge 49, Type (0, 0), BuildingBlock: XIVTED_clean_linker_0, # of connection points: 2
#     Edge 50, Type (0, 0), BuildingBlock: XIVTED_clean_linker_0, # of connection points: 2
#     Edge 51, Type (0, 0), BuildingBlock: XIVTED_clean_linker_0, # of connection points: 2
#     Edge 52, Type (0, 0), BuildingBlock: XIVTED_clean_linker_0, # of connection points: 2
#     Edge 53, Type (0, 0), BuildingBlock: XIVTED_clean_linker_0, # of connection points: 2
#     Edge 54, Type (0, 0), BuildingBlock: XIVTED_clean_linker_0, # of connection points: 2
#     Edge 55, Type (0, 0), BuildingBlock: XIVTED_clean_linker_0, # of connection points: 2
#     Edge 56, Type (0, 0), BuildingBlock: XIVTED_clean_linker_0, # of connection points: 2
#     Edge 57, Type (0, 0), BuildingBlock: XIVTED_clean_linker_0, # of connection points: 2
#     Edge 58, Type (0, 0), BuildingBlock: XIVTED_clean_linker_0, # of connection points: 2
#     Edge 59, Type (0, 0), BuildingBlock: XIVTED_clean_linker_0, # of connection points: 2
#     Edge 60, Type (0, 0), BuildingBlock: XIVTED_clean_linker_0, # of connection points: 2
#     Edge 61, Type (0, 0), BuildingBlock: XIVTED_clean_linker_0, # of connection points: 2
#     Edge 62, Type (0, 0), BuildingBlock: XIVTED_clean_linker_0, # of connection points: 2
#     Edge 63, Type (0, 0), BuildingBlock: XIVTED_clean_linker_0, # of connection points: 2
#     Edge 64, Type (0, 0), BuildingBlock: XIVTED_clean_linker_0, # of connection points: 2
#     Edge 65, Type (0, 0), BuildingBlock: XIVTED_clean_linker_0, # of connection points: 2
#     Edge 66, Type (0, 0), BuildingBlock: XIVTED_clean_linker_0, # of connection points: 2
#     Edge 67, Type (0, 0), BuildingBlock: XIVTED_clean_linker_0, # of connection points: 2
#     Edge 68, Type (0, 0), BuildingBlock: XIVTED_clean_linker_0, # of connection points: 2
#     Edge 69, Type (0, 0), BuildingBlock: XIVTED_clean_linker_0, # of connection points: 2
#     Edge 70, Type (0, 0), BuildingBlock: XIVTED_clean_linker_0, # of connection points: 2
#     Edge 71, Type (0, 0), BuildingBlock: XIVTED_clean_linker_0, # of connection points: 2
#     Edge 72, Type (0, 0), BuildingBlock: XIVTED_clean_linker_0, # of connection points: 2
#     Edge 73, Type (0, 0), BuildingBlock: XIVTED_clean_linker_0, # of connection points: 2
#     Edge 74, Type (0, 0), BuildingBlock: XIVTED_clean_linker_0, # of connection points: 2
#     Edge 75, Type (0, 0), BuildingBlock: XIVTED_clean_linker_0, # of connection points: 2
#     Edge 76, Type (0, 0), BuildingBlock: XIVTED_clean_linker_0, # of connection points: 2
#     Edge 77, Type (0, 0), BuildingBlock: XIVTED_clean_linker_0, # of connection points: 2
#     Edge 78, Type (0, 0), BuildingBlock: XIVTED_clean_linker_0, # of connection points: 2
#     Edge 79, Type (0, 0), BuildingBlock: XIVTED_clean_linker_0, # of connection points: 2
#     Edge 80, Type (0, 0), BuildingBlock: XIVTED_clean_linker_0, # of connection points: 2
#     Edge 81, Type (0, 0), BuildingBlock: XIVTED_clean_linker_0, # of connection points: 2
#     Edge 82, Type (0, 0), BuildingBlock: XIVTED_clean_linker_0, # of connection points: 2
#     Edge 83, Type (0, 0), BuildingBlock: XIVTED_clean_linker_0, # of connection points: 2
#     Edge 84, Type (0, 0), BuildingBlock: XIVTED_clean_linker_0, # of connection points: 2
#     Edge 85, Type (0, 0), BuildingBlock: XIVTED_clean_linker_0, # of connection points: 2
#     Edge 86, Type (0, 0), BuildingBlock: XIVTED_clean_linker_0, # of connection points: 2
#     Edge 87, Type (0, 0), BuildingBlock: XIVTED_clean_linker_0, # of connection points: 2
#     Edge 88, Type (0, 0), BuildingBlock: XIVTED_clean_linker_0, # of connection points: 2
#     Edge 89, Type (0, 0), BuildingBlock: XIVTED_clean_linker_0, # of connection points: 2
#     Edge 90, Type (0, 0), BuildingBlock: XIVTED_clean_linker_0, # of connection points: 2
#     Edge 91, Type (0, 0), BuildingBlock: XIVTED_clean_linker_0, # of connection points: 2
#     Edge 92, Type (0, 0), BuildingBlock: XIVTED_clean_linker_0, # of connection points: 2
#     Edge 93, Type (0, 0), BuildingBlock: XIVTED_clean_linker_0, # of connection points: 2
#     Edge 94, Type (0, 0), BuildingBlock: XIVTED_clean_linker_0, # of connection points: 2
#     Edge 95, Type (0, 0), BuildingBlock: XIVTED_clean_linker_0, # of connection points: 2
#     Edge 96, Type (0, 0), BuildingBlock: XIVTED_clean_linker_0, # of connection points: 2
#     Edge 97, Type (0, 0), BuildingBlock: XIVTED_clean_linker_0, # of connection points: 2
#     Edge 98, Type (0, 0), BuildingBlock: XIVTED_clean_linker_0, # of connection points: 2
#     Edge 99, Type (0, 0), BuildingBlock: XIVTED_clean_linker_0, # of connection points: 2
#     Edge 100, Type (0, 0), BuildingBlock: XIVTED_clean_linker_0, # of connection points: 2
#     Edge 101, Type (0, 0), BuildingBlock: XIVTED_clean_linker_0, # of connection points: 2
#     Edge 102, Type (0, 0), BuildingBlock: XIVTED_clean_linker_0, # of connection points: 2
#     Edge 103, Type (0, 0), BuildingBlock: XIVTED_clean_linker_0, # of connection points: 2
#     Edge 104, Type (0, 0), BuildingBlock: XIVTED_clean_linker_0, # of connection points: 2
#     Edge 105, Type (0, 0), BuildingBlock: XIVTED_clean_linker_0, # of connection points: 2
#     Edge 106, Type (0, 0), BuildingBlock: XIVTED_clean_linker_0, # of connection points: 2
#     Edge 107, Type (0, 0), BuildingBlock: XIVTED_clean_linker_0, # of connection points: 2
#     Edge 108, Type (0, 0), BuildingBlock: XIVTED_clean_linker_0, # of connection points: 2
#     Edge 109, Type (0, 0), BuildingBlock: XIVTED_clean_linker_0, # of connection points: 2
#     Edge 110, Type (0, 0), BuildingBlock: XIVTED_clean_linker_0, # of connection points: 2
#     Edge 111, Type (0, 0), BuildingBlock: XIVTED_clean_linker_0, # of connection points: 2
# Relax obj value: 0.186
# Max RMSD: 0.165
# Mean RMSD: 0.165
data_MOF--net-wgd--node1-XOMCOT_clean_sbu_1--edge1-XIVTED_clean_linker_0
_symmetry_space_group_name_H-M    P1
_symmetry_Int_Tables_number       1
_symmetry_cell_setting            triclinic
loop_
_symmetry_equiv_pos_as_xyz
'x, y, z'
_cell_length_a     102.67966
_cell_length_b     102.67621
_cell_length_c     17.403254
_cell_angle_alpha  89.985535
_cell_angle_beta   90.001187
_cell_angle_gamma 89.99426
loop_
_atom_site_label
_atom_site_type_symbol
_atom_site_fract_x
_atom_site_fract_y
_atom_site_fract_z
_atom_type_partial_charge
C0 C 0.17785 0.17401 0.06964 0.0
C1 C 0.17562 0.17476 0.14752 0.0
N2 N 0.18105 0.16425 0.18121 0.0
N3 N 0.18481 0.16318 0.05449 0.0
C4 C 0.18627 0.15728 0.12314 0.0
H5 H 0.175 0.18116 0.02721 0.0
Co6 Co 0.19207 0.15838 0.96073 0.0
C7 C 0.2191 0.14996 0.00465 0.0
O8 O 0.22409 0.15507 0.94198 0.0
N9 N 0.19888 0.15328 0.86512 0.0
C10 C 0.20591 0.14046 0.77046 0.0
C11 C 0.20491 0.14191 0.84881 0.0
C12 C 0.1959 0.15828 0.79542 0.0
N13 N 0.20019 0.15079 0.73694 0.0
O14 O 0.18277 0.14227 0.96369 0.0
H15 H 0.20768 0.13468 0.89096 0.0
H16 H 0.18964 0.16656 0.78693 0.0
O17 O 0.2068 0.15051 0.01599 0.0
C18 C 0.17106 0.1439 0.94187 0.0
O19 O 0.16712 0.15576 0.92544 0.0
N20 N 0.20035 0.17484 0.95618 0.0
C21 C 0.20788 0.20106 0.95454 0.0
C22 C 0.2136 0.19225 0.00606 0.0
C23 C 0.20954 0.17924 0.00696 0.0
C24 C 0.19434 0.18345 0.90823 0.0
C25 C 0.19814 0.19647 0.90511 0.0
H26 H 0.21323 0.17305 0.05192 0.0
H27 H 0.18585 0.18048 0.87638 0.0
H28 H 0.19148 0.14824 0.13061 0.0
H29 H 0.17068 0.18261 0.17706 0.0
H30 H 0.21004 0.13217 0.74072 0.0
H31 H 0.22086 0.19546 0.04703 0.0
H32 H 0.19291 0.20306 0.8675 0.0
C33 C 0.07706 0.92733 0.38138 0.0
C34 C 0.07753 0.92499 0.45923 0.0
N35 N 0.08779 0.93148 0.48881 0.0
N36 N 0.08693 0.93532 0.36212 0.0
C37 C 0.09344 0.93744 0.42823 0.0
H38 H 0.06963 0.92399 0.34201 0.0
Co39 Co 0.08965 0.94319 0.26734 0.0
C40 C 0.10699 0.96516 0.31431 0.0
O41 O 0.11559 0.96287 0.2601 0.0
N42 N 0.09225 0.95092 0.17221 0.0
C43 C 0.09265 0.96436 0.07233 0.0
C44 C 0.09137 0.96352 0.15097 0.0
C45 C 0.09388 0.9443 0.1061 0.0
N46 N 0.09415 0.95221 0.0443 0.0
O47 O 0.10644 0.935 0.25991 0.0
H48 H 0.08936 0.97152 0.18962 0.0
H49 H 0.09446 0.9338 0.10325 0.0
O50 O 0.09678 0.95818 0.31947 0.0
C51 C 0.10485 0.92318 0.23953 0.0
O52 O 0.09286 0.91888 0.23157 0.0
N53 N 0.0729 0.95027 0.27139 0.0
C54 C 0.04676 0.95761 0.27032 0.0
C55 C 0.05527 0.9624 0.32686 0.0
C56 C 0.06838 0.95861 0.32639 0.0
C57 C 0.06474 0.94542 0.21679 0.0
C58 C 0.05169 0.94906 0.21467 0.0
H59 H 0.07475 0.96208 0.37135 0.0
H60 H 0.06837 0.93846 0.17534 0.0
H61 H 0.10196 0.94359 0.43209 0.0
H62 H 0.07038 0.91958 0.49191 0.0
H63 H 0.09186 0.97314 0.03824 0.0
H64 H 0.05181 0.96895 0.37118 0.0
H65 H 0.04541 0.94485 0.17125 0.0
C66 C 0.32598 0.83227 0.64295 0.0
C67 C 0.32814 0.83298 0.72099 0.0
N68 N 0.32015 0.84213 0.75057 0.0
N69 N 0.31663 0.84088 0.62367 0.0
C70 C 0.3135 0.84691 0.68996 0.0
H71 H 0.33047 0.8255 0.60343 0.0
Co72 Co 0.30851 0.84278 0.52877 0.0
C73 C 0.28445 0.85626 0.58362 0.0
O74 O 0.28578 0.86611 0.53612 0.0
N75 N 0.30054 0.84463 0.4342 0.0
C76 C 0.28718 0.84364 0.33428 0.0
C77 C 0.28814 0.84228 0.4128 0.0
C78 C 0.30692 0.84728 0.36847 0.0
N79 N 0.29905 0.84671 0.3065 0.0
O80 O 0.31349 0.86079 0.52596 0.0
H81 H 0.28045 0.8392 0.45114 0.0
H82 H 0.31727 0.8492 0.36619 0.0
O83 O 0.29251 0.84683 0.58181 0.0
C84 C 0.32562 0.86206 0.5125 0.0
O85 O 0.3328 0.85155 0.5047 0.0
N86 N 0.30455 0.825 0.52861 0.0
C87 C 0.30283 0.79787 0.52593 0.0
C88 C 0.29592 0.80515 0.58079 0.0
C89 C 0.29696 0.81875 0.58144 0.0
C90 C 0.31117 0.81812 0.47434 0.0
C91 C 0.31035 0.80458 0.47147 0.0
H92 H 0.29209 0.82415 0.6262 0.0
H93 H 0.31739 0.82318 0.43408 0.0
H94 H 0.30619 0.85445 0.69393 0.0
H95 H 0.33453 0.82671 0.75374 0.0
H96 H 0.27857 0.84182 0.30006 0.0
H97 H 0.29017 0.80037 0.62469 0.0
H98 H 0.31573 0.79943 0.42744 0.0
C99 C 0.41431 0.08145 0.90343 0.0
C100 C 0.41395 0.0838 0.98136 0.0
N101 N 0.40549 0.07536 0.01339 0.0
N102 N 0.40616 0.07155 0.88684 0.0
C103 C 0.40074 0.06826 0.95458 0.0
H104 H 0.42059 0.08619 0.86206 0.0
Co105 Co 0.40433 0.06311 0.79305 0.0
C106 C 0.40398 0.03527 0.84475 0.0
O107 O 0.41273 0.03209 0.79288 0.0
N108 N 0.40205 0.05501 0.69736 0.0
C109 C 0.39371 0.04331 0.6015 0.0
C110 C 0.39506 0.04425 0.67973 0.0
C111 C 0.4041 0.0608 0.62867 0.0
N112 N 0.3994 0.05376 0.56933 0.0
O113 O 0.38636 0.06788 0.78781 0.0
H114 H 0.3902 0.038 0.72044 0.0
H115 H 0.40821 0.07042 0.62256 0.0
O116 O 0.39979 0.04698 0.84817 0.0
C117 C 0.38382 0.07989 0.77741 0.0
O118 O 0.39332 0.08843 0.78124 0.0
N119 N 0.42242 0.0592 0.79539 0.0
C120 C 0.44965 0.05766 0.80006 0.0
C121 C 0.44207 0.05209 0.85849 0.0
C122 C 0.42848 0.05321 0.85593 0.0
C123 C 0.42973 0.06496 0.73957 0.0
C124 C 0.44327 0.06409 0.73988 0.0
H125 H 0.42291 0.04974 0.90444 0.0
H126 H 0.4252 0.07093 0.69653 0.0
H127 H 0.39369 0.06053 0.96109 0.0
H128 H 0.42001 0.09062 0.01244 0.0
H129 H 0.38818 0.03595 0.5712 0.0
H130 H 0.44661 0.04744 0.90755 0.0
H131 H 0.4487 0.06873 0.69406 0.0
C132 C 0.17696 0.82965 0.94208 0.0
C133 C 0.17474 0.82893 0.86417 0.0
N134 N 0.18165 0.83845 0.82978 0.0
N135 N 0.18534 0.83946 0.95625 0.0
C136 C 0.18785 0.84475 0.88698 0.0
H137 H 0.17302 0.82321 0.98544 0.0
Co138 Co 0.19249 0.84381 0.0504 0.0
C139 C 0.21992 0.8505 0.0132 0.0
O140 O 0.22368 0.84431 0.07555 0.0
N141 N 0.19925 0.84852 0.14666 0.0
C142 C 0.20667 0.86112 0.24126 0.0
C143 C 0.20556 0.85974 0.16303 0.0
C144 C 0.19619 0.84356 0.21623 0.0
N145 N 0.20072 0.85091 0.27462 0.0
O146 O 0.18353 0.86017 0.04841 0.0
H147 H 0.2085 0.86691 0.12096 0.0
H148 H 0.18972 0.83544 0.22475 0.0
O149 O 0.20776 0.85132 0.99779 0.0
C150 C 0.17218 0.85819 0.07555 0.0
O151 O 0.16898 0.84622 0.09461 0.0
N152 N 0.20018 0.82703 0.05409 0.0
C153 C 0.20706 0.80063 0.05603 0.0
C154 C 0.2128 0.80923 0.0033 0.0
C155 C 0.20901 0.82232 0.00209 0.0
C156 C 0.194 0.8186 0.10236 0.0
C157 C 0.19749 0.80549 0.10574 0.0
H158 H 0.2127 0.82839 0.95647 0.0
H159 H 0.18564 0.82181 0.13463 0.0
H160 H 0.19451 0.85276 0.87818 0.0
H161 H 0.16869 0.82185 0.83511 0.0
H162 H 0.21103 0.86927 0.27103 0.0
H163 H 0.2199 0.80581 0.96193 0.0
H164 H 0.1922 0.79908 0.14407 0.0
C165 C 0.40384 0.9221 0.18288 0.0
C166 C 0.40444 0.9202 0.10463 0.0
N167 N 0.40803 0.93148 0.07126 0.0
N168 N 0.40691 0.93458 0.19904 0.0
C169 C 0.40968 0.93991 0.12995 0.0
H170 H 0.40109 0.91481 0.22449 0.0
Co171 Co 0.40679 0.94344 0.29326 0.0
C172 C 0.39116 0.96694 0.24595 0.0
O173 O 0.38334 0.96671 0.30566 0.0
N174 N 0.40695 0.95228 0.38751 0.0
C175 C 0.40919 0.96687 0.48126 0.0
C176 C 0.40876 0.96505 0.40276 0.0
C177 C 0.4066 0.94657 0.45735 0.0
N178 N 0.40776 0.95519 0.51535 0.0
O179 O 0.3893 0.93752 0.3134 0.0
H180 H 0.41003 0.97255 0.35981 0.0
H181 H 0.40611 0.93619 0.46604 0.0
O182 O 0.40027 0.95858 0.23954 0.0
C183 C 0.38951 0.92685 0.35083 0.0
O184 O 0.40081 0.92124 0.36356 0.0
N185 N 0.42404 0.94836 0.2779 0.0
C186 C 0.4507 0.95324 0.27809 0.0
C187 C 0.44203 0.96217 0.24473 0.0
C188 C 0.42864 0.9596 0.24575 0.0
C189 C 0.43234 0.93945 0.30859 0.0
C190 C 0.44571 0.9417 0.30952 0.0
H191 H 0.42207 0.96675 0.222 0.0
H192 H 0.42847 0.93065 0.33405 0.0
H193 H 0.41257 0.94993 0.12277 0.0
H194 H 0.40224 0.91121 0.07485 0.0
H195 H 0.41053 0.97606 0.51074 0.0
H196 H 0.44552 0.97122 0.22025 0.0
H197 H 0.45209 0.93447 0.33486 0.0
C198 C 0.32327 0.16926 0.38255 0.0
C199 C 0.32547 0.16951 0.30448 0.0
N200 N 0.31838 0.15994 0.27204 0.0
N201 N 0.3148 0.15961 0.39878 0.0
C202 C 0.31225 0.15395 0.3307 0.0
H203 H 0.32715 0.17601 0.42437 0.0
Co204 Co 0.3071 0.15607 0.49278 0.0
C205 C 0.27917 0.15127 0.4504 0.0
O206 O 0.27505 0.15785 0.51046 0.0
N207 N 0.29976 0.1522 0.58849 0.0
C208 C 0.29089 0.14063 0.68335 0.0
C209 C 0.29191 0.142 0.60511 0.0
C210 C 0.30385 0.15643 0.65786 0.0
N211 N 0.2985 0.14969 0.71639 0.0
O212 O 0.31399 0.13874 0.49258 0.0
H213 H 0.28796 0.13529 0.56334 0.0
H214 H 0.3113 0.16369 0.66577 0.0
O215 O 0.2914 0.14989 0.43906 0.0
C216 C 0.32621 0.13668 0.49403 0.0
O217 O 0.33427 0.14648 0.48494 0.0
N218 N 0.30092 0.17349 0.49518 0.0
C219 C 0.29498 0.20011 0.49925 0.0
C220 C 0.28913 0.19189 0.44492 0.0
C221 C 0.29246 0.17869 0.44271 0.0
C222 C 0.3073 0.18154 0.54475 0.0
C223 C 0.30429 0.19477 0.54903 0.0
H224 H 0.28859 0.17285 0.39654 0.0
H225 H 0.31533 0.17789 0.57825 0.0
H226 H 0.30582 0.14572 0.32407 0.0
H227 H 0.33124 0.17663 0.27373 0.0
H228 H 0.28574 0.13296 0.71332 0.0
H229 H 0.2822 0.19564 0.40359 0.0
H230 H 0.30965 0.20087 0.58879 0.0
C231 C 0.08913 0.08152 0.61469 0.0
C232 C 0.08844 0.08307 0.53616 0.0
N233 N 0.08738 0.07119 0.50397 0.0
N234 N 0.0886 0.0687 0.63184 0.0
C235 C 0.08735 0.06274 0.56316 0.0
H236 H 0.09 0.08932 0.65587 0.0
Co237 Co 0.08913 0.0602 0.72667 0.0
C238 C 0.10723 0.0385 0.68867 0.0
O239 O 0.1143 0.04024 0.75073 0.0
N240 N 0.08935 0.0516 0.82117 0.0
C241 C 0.08762 0.03684 0.91423 0.0
C242 C 0.0883 0.03872 0.83606 0.0
C243 C 0.08899 0.0573 0.89089 0.0
N244 N 0.088 0.04858 0.94846 0.0
O245 O 0.10588 0.06784 0.74846 0.0
H246 H 0.08766 0.03116 0.793 0.0
H247 H 0.08925 0.06769 0.89964 0.0
O248 O 0.09723 0.0455 0.67623 0.0
C249 C 0.10418 0.07871 0.78245 0.0
O250 O 0.09216 0.08278 0.79265 0.0
N251 N 0.07245 0.05384 0.70987 0.0
C252 C 0.04632 0.04687 0.71845 0.0
C253 C 0.05548 0.03829 0.68617 0.0
C254 C 0.06863 0.04195 0.68272 0.0
C255 C 0.06359 0.06249 0.73739 0.0
C256 C 0.05049 0.05922 0.74223 0.0
H257 H 0.07571 0.03508 0.66123 0.0
H258 H 0.06686 0.07183 0.75865 0.0
H259 H 0.08621 0.05233 0.55669 0.0
H260 H 0.08892 0.09221 0.50533 0.0
H261 H 0.08647 0.02759 0.94331 0.0
H262 H 0.05261 0.02867 0.66716 0.0
H263 H 0.04371 0.06621 0.76614 0.0
C264 C 0.82679 0.83361 0.83658 0.0
C265 C 0.82903 0.83376 0.75861 0.0
N266 N 0.82198 0.8435 0.7273 0.0
N267 N 0.81825 0.84312 0.85424 0.0
C268 C 0.81577 0.84914 0.78702 0.0
H269 H 0.83083 0.82675 0.87722 0.0
Co270 Co 0.8106 0.84681 0.94855 0.0
C271 C 0.78216 0.85033 0.90582 0.0
O272 O 0.77761 0.846 0.9716 0.0
N273 N 0.80324 0.85091 0.04374 0.0
C274 C 0.79468 0.863 0.13719 0.0
C275 C 0.79567 0.86136 0.05905 0.0
C276 C 0.80704 0.84664 0.11362 0.0
N277 N 0.80195 0.85377 0.1714 0.0
O278 O 0.81608 0.86454 0.9415 0.0
H279 H 0.79188 0.86798 0.01619 0.0
H280 H 0.81404 0.83898 0.1224 0.0
O281 O 0.79444 0.85095 0.89443 0.0
C282 C 0.82821 0.86654 0.95028 0.0
O283 O 0.83613 0.85652 0.95383 0.0
N284 N 0.80607 0.82907 0.95848 0.0
C285 C 0.80367 0.80209 0.97569 0.0
C286 C 0.7952 0.80901 0.92728 0.0
C287 C 0.79672 0.82247 0.91829 0.0
C288 C 0.81464 0.8224 0.00341 0.0
C289 C 0.81348 0.809 0.01403 0.0
H290 H 0.79075 0.8273 0.8762 0.0
H291 H 0.82281 0.82744 0.02876 0.0
H292 H 0.80935 0.85744 0.78225 0.0
H293 H 0.83494 0.82683 0.72738 0.0
H294 H 0.7898 0.87094 0.16617 0.0
H295 H 0.78782 0.80399 0.89411 0.0
H296 H 0.82038 0.8041 0.0512 0.0
C297 C 0.90681 0.0705 0.69328 0.0
C298 C 0.9086 0.07195 0.61514 0.0
N299 N 0.91199 0.0603 0.58526 0.0
N300 N 0.909 0.05799 0.71244 0.0
C301 C 0.91235 0.05212 0.64594 0.0
H302 H 0.90358 0.07794 0.73293 0.0
Co303 Co 0.90643 0.04991 0.80684 0.0
C304 C 0.89715 0.02282 0.75588 0.0
O305 O 0.90056 0.0163 0.81766 0.0
N306 N 0.9038 0.042 0.90243 0.0
C307 C 0.89389 0.03378 0.00518 0.0
C308 C 0.89314 0.03552 0.92696 0.0
C309 C 0.9107 0.04438 0.96705 0.0
N310 N 0.90489 0.03949 0.03037 0.0
O311 O 0.88923 0.0572 0.81195 0.0
H312 H 0.88486 0.0331 0.89131 0.0
H313 H 0.91933 0.05039 0.96848 0.0
O314 O 0.89939 0.03502 0.75148 0.0
C315 C 0.88718 0.06575 0.86357 0.0
O316 O 0.89671 0.06902 0.91006 0.0
N317 N 0.92363 0.04371 0.80324 0.0
C318 C 0.95047 0.03956 0.79615 0.0
C319 C 0.94177 0.03014 0.7685 0.0
C320 C 0.92834 0.03238 0.7727 0.0
C321 C 0.93198 0.05295 0.83005 0.0
C322 C 0.9454 0.05105 0.82777 0.0
H323 H 0.92196 0.02517 0.74875 0.0
H324 H 0.92812 0.06201 0.85214 0.0
H325 H 0.91465 0.04188 0.64207 0.0
H326 H 0.90686 0.08077 0.58267 0.0
H327 H 0.8864 0.02962 0.04143 0.0
H328 H 0.94531 0.02116 0.74335 0.0
H329 H 0.95177 0.0587 0.84836 0.0
C330 C 0.66274 0.16772 0.32147 0.0
C331 C 0.66042 0.16693 0.2437 0.0
N332 N 0.66945 0.15899 0.21258 0.0
N333 N 0.67321 0.16036 0.33881 0.0
C334 C 0.67688 0.15495 0.27182 0.0
H335 H 0.65761 0.17382 0.36212 0.0
Co336 Co 0.68171 0.15971 0.43247 0.0
C337 C 0.70955 0.16049 0.38612 0.0
O338 O 0.7116 0.1697 0.43721 0.0
N339 N 0.68981 0.15855 0.52848 0.0
C340 C 0.70134 0.15057 0.62612 0.0
C341 C 0.70049 0.15155 0.54779 0.0
C342 C 0.68395 0.16098 0.59644 0.0
N343 N 0.69087 0.15647 0.6567 0.0
O344 O 0.6778 0.14157 0.44286 0.0
H345 H 0.70664 0.14628 0.50829 0.0
H346 H 0.67429 0.16505 0.60141 0.0
O347 O 0.69818 0.15549 0.37958 0.0
C348 C 0.66598 0.13825 0.4528 0.0
O349 O 0.65677 0.14703 0.44506 0.0
N350 N 0.68489 0.17795 0.42417 0.0
C351 C 0.68631 0.20508 0.40813 0.0
C352 C 0.69157 0.19684 0.35196 0.0
C353 C 0.69051 0.18334 0.36021 0.0
C354 C 0.67936 0.18588 0.47791 0.0
C355 C 0.68013 0.19942 0.47168 0.0
H356 H 0.69386 0.17724 0.31367 0.0
H357 H 0.67377 0.18183 0.52428 0.0
H358 H 0.68517 0.14855 0.26606 0.0
H359 H 0.65322 0.17245 0.21201 0.0
H360 H 0.70851 0.14499 0.65765 0.0
H361 H 0.696 0.20078 0.30049 0.0
H362 H 0.67571 0.2054 0.51583 0.0
C363 C 0.5777 0.92909 0.18333 0.0
C364 C 0.5769 0.92696 0.10532 0.0
N365 N 0.58649 0.93376 0.07068 0.0
N366 N 0.58761 0.93734 0.19766 0.0
C367 C 0.59297 0.93971 0.12827 0.0
H368 H 0.57115 0.92527 0.22646 0.0
Co369 Co 0.5918 0.94503 0.29116 0.0
C370 C 0.59784 0.97278 0.24874 0.0
O371 O 0.59288 0.97723 0.31322 0.0
N372 N 0.59634 0.95244 0.38694 0.0
C373 C 0.60893 0.96024 0.48053 0.0
C374 C 0.6075 0.95891 0.4024 0.0
C375 C 0.59139 0.94966 0.45714 0.0
N376 N 0.59881 0.95432 0.51507 0.0
O377 O 0.60875 0.93734 0.28606 0.0
H378 H 0.61461 0.96176 0.35977 0.0
H379 H 0.58323 0.94326 0.46641 0.0
O380 O 0.59803 0.96052 0.23583 0.0
C381 C 0.61021 0.92786 0.33249 0.0
O382 O 0.60039 0.92444 0.37648 0.0
N383 N 0.57465 0.95162 0.29693 0.0
C384 C 0.54787 0.95667 0.3007 0.0
C385 C 0.55607 0.96355 0.25062 0.0
C386 C 0.56938 0.96069 0.24841 0.0
C387 C 0.56672 0.94453 0.34371 0.0
C388 C 0.55339 0.94704 0.34764 0.0
H389 H 0.57513 0.96526 0.20432 0.0
H390 H 0.57059 0.93626 0.37443 0.0
H391 H 0.6012 0.9461 0.11987 0.0
H392 H 0.56964 0.92111 0.07637 0.0
H393 H 0.61713 0.9647 0.50943 0.0
H394 H 0.55221 0.97084 0.21181 0.0
H395 H 0.54737 0.94099 0.38419 0.0
C396 C 0.82611 0.16241 0.07574 0.0
C397 C 0.82822 0.16264 0.15389 0.0
N398 N 0.81931 0.1549 0.18768 0.0
N399 N 0.81576 0.15475 0.0605 0.0
C400 C 0.81201 0.15009 0.12981 0.0
H401 H 0.8312 0.16817 0.03324 0.0
Co402 Co 0.80717 0.15405 0.96597 0.0
C403 C 0.78193 0.14199 0.0154 0.0
O404 O 0.78183 0.13305 0.96141 0.0
N405 N 0.79865 0.15356 0.87048 0.0
C406 C 0.78499 0.15846 0.77545 0.0
C407 C 0.78673 0.15837 0.85392 0.0
C408 C 0.80392 0.15072 0.80119 0.0
N409 N 0.79582 0.15362 0.74255 0.0
O410 O 0.81131 0.13597 0.95789 0.0
H411 H 0.78005 0.16235 0.89584 0.0
H412 H 0.81384 0.14752 0.79309 0.0
O413 O 0.79116 0.15023 0.01886 0.0
C414 C 0.8224 0.13437 0.9266 0.0
O415 O 0.82915 0.14468 0.90626 0.0
N416 N 0.80396 0.17193 0.97249 0.0
C417 C 0.80291 0.19901 0.98076 0.0
C418 C 0.79596 0.19132 0.03327 0.0
C419 C 0.7967 0.17775 0.02858 0.0
C420 C 0.8106 0.17923 0.92031 0.0
C421 C 0.81017 0.19279 0.92311 0.0
H422 H 0.79184 0.17202 0.07185 0.0
H423 H 0.81654 0.17447 0.87731 0.0
H424 H 0.8035 0.14406 0.13862 0.0
H425 H 0.83533 0.16854 0.18391 0.0
H426 H 0.77665 0.16227 0.74481 0.0
H427 H 0.79045 0.19573 0.0795 0.0
H428 H 0.81561 0.19835 0.88109 0.0
C429 C 0.58258 0.08321 0.8888 0.0
C430 C 0.58314 0.08552 0.96671 0.0
N431 N 0.59198 0.07732 0.99743 0.0
N432 N 0.59096 0.07356 0.87107 0.0
C433 C 0.59674 0.07041 0.93792 0.0
H434 H 0.57604 0.08779 0.84828 0.0
Co435 Co 0.59286 0.06531 0.7771 0.0
C436 C 0.59331 0.03728 0.82289 0.0
O437 O 0.58502 0.03445 0.76778 0.0
N438 N 0.59525 0.05745 0.68118 0.0
C439 C 0.60445 0.04651 0.58492 0.0
C440 C 0.60298 0.04723 0.66312 0.0
C441 C 0.59285 0.06322 0.61287 0.0
N442 N 0.59809 0.05663 0.55338 0.0
O443 O 0.61086 0.0701 0.7726 0.0
H444 H 0.6083 0.04132 0.70372 0.0
H445 H 0.58823 0.0726 0.60716 0.0
O446 O 0.59732 0.049 0.83086 0.0
C447 C 0.61373 0.08211 0.7661 0.0
O448 O 0.60449 0.09087 0.77328 0.0
N449 N 0.57477 0.06129 0.77923 0.0
C450 C 0.54757 0.05934 0.78659 0.0
C451 C 0.55541 0.05368 0.84348 0.0
C452 C 0.56896 0.055 0.8396 0.0
C453 C 0.56721 0.06713 0.72483 0.0
C454 C 0.55368 0.06607 0.7265 0.0
H455 H 0.57469 0.05147 0.88729 0.0
H456 H 0.57153 0.07331 0.68209 0.0
H457 H 0.60408 0.06293 0.94318 0.0
H458 H 0.57698 0.09213 -0.0013 0.0
H459 H 0.61055 0.03966 0.55429 0.0
H460 H 0.5511 0.04883 0.89256 0.0
H461 H 0.54803 0.07079 0.6819 0.0
C462 C 0.67474 0.8271 0.53622 0.0
C463 C 0.67286 0.82662 0.61461 0.0
N464 N 0.68071 0.83555 0.64742 0.0
N465 N 0.68379 0.83621 0.52025 0.0
C466 C 0.68693 0.84142 0.58874 0.0
H467 H 0.67038 0.8207 0.4941 0.0
Co468 Co 0.69188 0.83918 0.427 0.0
C469 C 0.71965 0.84446 0.46887 0.0
O470 O 0.7237 0.83764 0.40959 0.0
N471 N 0.69969 0.84245 0.33134 0.0
C472 C 0.70821 0.85374 0.23428 0.0
C473 C 0.70683 0.85305 0.31268 0.0
C474 C 0.69655 0.8371 0.26292 0.0
N475 N 0.70159 0.84376 0.20313 0.0
O476 O 0.68467 0.85636 0.42467 0.0
H477 H 0.70998 0.86043 0.35295 0.0
H478 H 0.68983 0.82914 0.25611 0.0
O479 O 0.70742 0.8458 0.48065 0.0
C480 C 0.67547 0.85807 0.37665 0.0
O481 O 0.67167 0.84822 0.334 0.0
N482 N 0.69806 0.8218 0.42937 0.0
C483 C 0.70253 0.79495 0.44061 0.0
C484 C 0.70906 0.80372 0.48882 0.0
C485 C 0.70645 0.81704 0.48367 0.0
C486 C 0.69126 0.81335 0.38428 0.0
C487 C 0.69352 0.79995 0.38773 0.0
H488 H 0.71061 0.8233 0.52684 0.0
H489 H 0.68332 0.81687 0.34942 0.0
H490 H 0.69395 0.84912 0.59581 0.0
H491 H 0.66684 0.81969 0.64516 0.0
H492 H 0.71275 0.86159 0.20255 0.0
H493 H 0.71585 0.80032 0.53201 0.0
H494 H 0.68769 0.79353 0.3523 0.0
C495 C 0.91876 0.92818 0.33326 0.0
C496 C 0.91862 0.92579 0.41123 0.0
N497 N 0.90872 0.93258 0.44241 0.0
N498 N 0.90903 0.9365 0.31584 0.0
C499 C 0.9029 0.93867 0.383 0.0
H500 H 0.92596 0.92475 0.29267 0.0
Co501 Co 0.90628 0.94491 0.22244 0.0
C502 C 0.90126 0.9722 0.27699 0.0
O503 O 0.90939 0.9771 0.22627 0.0
N504 N 0.9032 0.95277 0.1271 0.0
C505 C 0.89368 0.96305 0.02941 0.0
C506 C 0.89493 0.96249 0.10789 0.0
C507 C 0.90619 0.94714 0.05922 0.0
N508 N 0.90077 0.95333 -0.00123 0.0
O509 O 0.88924 0.93758 0.21464 0.0
H510 H 0.88916 0.96813 0.14757 0.0
H511 H 0.91159 0.93814 0.05469 0.0
O512 O 0.89912 0.95993 0.27811 0.0
C513 C 0.88783 0.92534 0.20702 0.0
O514 O 0.89801 0.91768 0.21362 0.0
N515 N 0.92349 0.9517 0.22828 0.0
C516 C 0.94988 0.95837 0.24022 0.0
C517 C 0.94108 0.96166 0.29864 0.0
C518 C 0.92799 0.95808 0.29209 0.0
C519 C 0.93205 0.94811 0.17221 0.0
C520 C 0.94518 0.95152 0.17634 0.0
H521 H 0.9216 0.96002 0.34001 0.0
H522 H 0.92894 0.94197 0.12568 0.0
H523 H 0.89458 0.945 0.38878 0.0
H524 H 0.9258 0.92026 0.44302 0.0
H525 H 0.88729 0.96952 -0.00207 0.0
H526 H 0.9443 0.96675 0.3497 0.0
H527 H 0.95171 0.94825 0.13141 0.0
C528 C 0.67543 0.66757 0.6458 0.0
C529 C 0.67319 0.66752 0.72377 0.0
N530 N 0.67981 0.65747 0.75499 0.0
N531 N 0.68353 0.65769 0.62809 0.0
C532 C 0.68577 0.65157 0.69527 0.0
H533 H 0.6717 0.67461 0.60513 0.0
Co534 Co 0.69094 0.65368 0.5337 0.0
C535 C 0.71929 0.6495 0.57543 0.0
O536 O 0.72375 0.65394 0.50972 0.0
N537 N 0.69808 0.64928 0.43838 0.0
C538 C 0.70637 0.63695 0.34513 0.0
C539 C 0.70547 0.63869 0.42323 0.0
C540 C 0.69427 0.65351 0.36846 0.0
N541 N 0.69921 0.64625 0.3108 0.0
O542 O 0.68485 0.63609 0.54077 0.0
H543 H 0.70921 0.63207 0.4662 0.0
H544 H 0.68735 0.66124 0.35958 0.0
O545 O 0.70702 0.64897 0.58753 0.0
C546 C 0.67265 0.63389 0.53997 0.0
O547 O 0.66452 0.6437 0.54602 0.0
N548 N 0.69614 0.67126 0.52363 0.0
C549 C 0.7005 0.69792 0.5031 0.0
C550 C 0.70802 0.69072 0.55527 0.0
C551 C 0.70555 0.67744 0.5657 0.0
C552 C 0.68821 0.67834 0.4767 0.0
C553 C 0.69037 0.69157 0.46426 0.0
H554 H 0.71089 0.6724 0.60983 0.0
H555 H 0.6798 0.67378 0.451 0.0
H556 H 0.69184 0.643 0.70001 0.0
H557 H 0.6676 0.67469 0.75511 0.0
H558 H 0.71113 0.62892 0.31629 0.0
H559 H 0.71569 0.69532 0.58833 0.0
H560 H 0.68387 0.69688 0.42659 0.0
C561 C 0.59662 0.41758 0.90054 0.0
C562 C 0.59804 0.41558 0.97827 0.0
N563 N 0.60535 0.42534 0.0071 0.0
N564 N 0.60298 0.42854 0.88058 0.0
C565 C 0.60837 0.43292 0.94632 0.0
H566 H 0.59079 0.41178 0.86164 0.0
Co567 Co 0.60234 0.43659 0.78521 0.0
C568 C 0.61237 0.4629 0.82985 0.0
O569 O 0.62146 0.46319 0.77678 0.0
N570 N 0.6016 0.44445 0.69011 0.0
C571 C 0.59771 0.45727 0.59027 0.0
C572 C 0.5967 0.45609 0.66884 0.0
C573 C 0.60535 0.43869 0.62432 0.0
N574 N 0.60315 0.44628 0.56242 0.0
O575 O 0.62085 0.43457 0.772 0.0
H576 H 0.59236 0.46308 0.70759 0.0
H577 H 0.60951 0.42902 0.62226 0.0
O578 O 0.60468 0.4532 0.83468 0.0
C579 C 0.62578 0.4232 0.76904 0.0
O580 O 0.61849 0.41311 0.78635 0.0
N581 N 0.58423 0.43798 0.79425 0.0
C582 C 0.55708 0.43866 0.79553 0.0
C583 C 0.5643 0.44571 0.84992 0.0
C584 C 0.5779 0.44516 0.8487 0.0
C585 C 0.57739 0.43082 0.74223 0.0
C586 C 0.56382 0.43108 0.74148 0.0
H587 H 0.58328 0.4504 0.89202 0.0
H588 H 0.58255 0.42495 0.70052 0.0
H589 H 0.61405 0.44176 0.95 0.0
H590 H 0.59337 0.408 0.01152 0.0
H591 H 0.59427 0.46539 0.5562 0.0
H592 H 0.55949 0.45145 0.89375 0.0
H593 H 0.55867 0.42553 0.69815 0.0
C594 C 0.83217 0.33001 0.10265 0.0
C595 C 0.83447 0.33089 0.18035 0.0
N596 N 0.82689 0.34044 0.20923 0.0
N597 N 0.82313 0.33891 0.08281 0.0
C598 C 0.8203 0.34526 0.14847 0.0
H599 H 0.83633 0.32293 0.06373 0.0
Co600 Co 0.81522 0.34059 0.98744 0.0
C601 C 0.79184 0.35627 0.02713 0.0
O602 O 0.7937 0.36442 0.96997 0.0
N603 N 0.80742 0.34211 0.89176 0.0
C604 C 0.79404 0.34082 0.79186 0.0
C605 C 0.79504 0.33957 0.87041 0.0
C606 C 0.81376 0.34465 0.82577 0.0
N607 N 0.80588 0.34395 0.76401 0.0
O608 O 0.82214 0.35788 0.97754 0.0
H609 H 0.78736 0.33655 0.90905 0.0
H610 H 0.82408 0.34665 0.82291 0.0
O611 O 0.79961 0.34676 0.03743 0.0
C612 C 0.83406 0.3567 0.95821 0.0
O613 O 0.83887 0.34488 0.95197 0.0
N614 N 0.80958 0.32342 0.9939 0.0
C615 C 0.80594 0.29658 0.0002 0.0
C616 C 0.7992 0.30484 0.05081 0.0
C617 C 0.80124 0.31832 0.04712 0.0
C618 C 0.81594 0.31557 0.94338 0.0
C619 C 0.81419 0.30215 0.94507 0.0
H620 H 0.79653 0.32455 0.08877 0.0
H621 H 0.82272 0.31976 0.90279 0.0
H622 H 0.81325 0.35306 0.15194 0.0
H623 H 0.84066 0.32447 0.21348 0.0
H624 H 0.78543 0.33895 0.75772 0.0
H625 H 0.79285 0.30089 0.09474 0.0
H626 H 0.81945 0.29617 0.90427 0.0
C627 C 0.92553 0.57275 0.31315 0.0
C628 C 0.92624 0.57501 0.39111 0.0
N629 N 0.91642 0.56852 0.4255 0.0
N630 N 0.91544 0.56473 0.29871 0.0
C631 C 0.90991 0.56261 0.36788 0.0
H632 H 0.9323 0.57624 0.2702 0.0
Co633 Co 0.91144 0.55687 0.20544 0.0
C634 C 0.90417 0.5296 0.25052 0.0
O635 O 0.91022 0.52476 0.19042 0.0
N636 N 0.90717 0.54935 0.10957 0.0
C637 C 0.89496 0.54147 0.01437 0.0
C638 C 0.89615 0.54273 0.09271 0.0
C639 C 0.91225 0.55232 0.03997 0.0
N640 N 0.90508 0.54761 0.98115 0.0
O641 O 0.8948 0.56527 0.20584 0.0
H642 H 0.8889 0.5398 0.1343 0.0
H643 H 0.92022 0.55898 0.03172 0.0
O644 O 0.90397 0.54194 0.26089 0.0
C645 C 0.89343 0.57455 0.15795 0.0
O646 O 0.90331 0.5778 0.11405 0.0
N647 N 0.92831 0.54938 0.20476 0.0
C648 C 0.95467 0.54239 0.20769 0.0
C649 C 0.94582 0.53686 0.25965 0.0
C650 C 0.93275 0.54068 0.25832 0.0
C651 C 0.93694 0.5553 0.1566 0.0
C652 C 0.95006 0.55176 0.15582 0.0
H653 H 0.92648 0.53714 0.30335 0.0
H654 H 0.93386 0.56346 0.12213 0.0
H655 H 0.9016 0.55638 0.37627 0.0
H656 H 0.93362 0.58069 0.42022 0.0
H657 H 0.8869 0.53697 0.98441 0.0
H658 H 0.94901 0.52988 0.30234 0.0
H659 H 0.95665 0.55685 0.11762 0.0
C660 C 0.66672 0.34359 0.28593 0.0
C661 C 0.66445 0.34396 0.20815 0.0
N662 N 0.6745 0.35012 0.17434 0.0
N663 N 0.67822 0.34939 0.30114 0.0
C664 C 0.68264 0.35347 0.23197 0.0
H665 H 0.66082 0.33864 0.32828 0.0
Co666 Co 0.68654 0.34799 0.39612 0.0
C667 C 0.71279 0.35816 0.36363 0.0
O668 O 0.71238 0.36531 0.42619 0.0
N669 N 0.69454 0.34628 0.49155 0.0
C670 C 0.7068 0.33916 0.5879 0.0
C671 C 0.70537 0.33945 0.50932 0.0
C672 C 0.68958 0.35006 0.55985 0.0
N673 N 0.69688 0.34586 0.6194 0.0
O674 O 0.68476 0.36639 0.41446 0.0
H675 H 0.7115 0.33452 0.46796 0.0
H676 H 0.68038 0.3551 0.56596 0.0
O677 O 0.70324 0.35078 0.34653 0.0
C678 C 0.67356 0.37167 0.41935 0.0
O679 O 0.66319 0.36481 0.40193 0.0
N680 N 0.68764 0.32997 0.38198 0.0
C681 C 0.68706 0.30283 0.37386 0.0
C682 C 0.69488 0.3101 0.32325 0.0
C683 C 0.69498 0.32373 0.32792 0.0
C684 C 0.67985 0.32311 0.43061 0.0
C685 C 0.67948 0.30956 0.42796 0.0
H686 H 0.70083 0.3292 0.2877 0.0
H687 H 0.67394 0.32824 0.47224 0.0
H688 H 0.69206 0.35788 0.22301 0.0
H689 H 0.65641 0.3394 0.17824 0.0
H690 H 0.71433 0.33409 0.61959 0.0
H691 H 0.70071 0.30534 0.27971 0.0
H692 H 0.67342 0.3044 0.46881 0.0
C693 C 0.92662 0.43089 0.63907 0.0
C694 C 0.92743 0.42871 0.56115 0.0
N695 N 0.91686 0.43401 0.52743 0.0
N696 N 0.91569 0.4377 0.6542 0.0
C697 C 0.90981 0.43912 0.58547 0.0
H698 H 0.93379 0.42812 0.68156 0.0
Co699 Co 0.91073 0.44486 0.74797 0.0
C700 C 0.90172 0.47165 0.70397 0.0
O701 O 0.90684 0.47673 0.76636 0.0
N702 N 0.90549 0.45159 0.84361 0.0
C703 C 0.89249 0.45833 0.93818 0.0
C704 C 0.89396 0.45733 0.85984 0.0
C705 C 0.91056 0.44878 0.91337 0.0
N706 N 0.90297 0.4529 0.97178 0.0
O707 O 0.89491 0.4351 0.74569 0.0
H708 H 0.88667 0.45989 0.81766 0.0
H709 H 0.91901 0.44275 0.92199 0.0
O710 O 0.90248 0.45936 0.6927 0.0
C711 C 0.89725 0.42379 0.77215 0.0
O712 O 0.90936 0.42086 0.7898 0.0
N713 N 0.92698 0.45351 0.75248 0.0
C714 C 0.95297 0.46167 0.75753 0.0
C715 C 0.9442 0.46727 0.70527 0.0
C716 C 0.93128 0.46289 0.70273 0.0
C717 C 0.93559 0.44755 0.80052 0.0
C718 C 0.94849 0.45166 0.80541 0.0
H719 H 0.92509 0.46657 0.65767 0.0
H720 H 0.93272 0.43891 0.83135 0.0
H721 H 0.90073 0.44424 0.57786 0.0
H722 H 0.93534 0.42388 0.53162 0.0
H723 H 0.8841 0.46225 0.96786 0.0
H724 H 0.94736 0.47471 0.66529 0.0
H725 H 0.95508 0.44651 0.84335 0.0
C726 C 0.82662 0.67184 0.94829 0.0
C727 C 0.82845 0.6723 0.86985 0.0
N728 N 0.82024 0.66369 0.83711 0.0
N729 N 0.81723 0.66307 0.96437 0.0
C730 C 0.81385 0.65803 0.89586 0.0
H731 H 0.83129 0.67801 0.99039 0.0
Co732 Co 0.80911 0.66022 0.05775 0.0
C733 C 0.78112 0.65596 0.01616 0.0
O734 O 0.77728 0.66273 0.07612 0.0
N735 N 0.80121 0.65705 0.15335 0.0
C736 C 0.79242 0.64588 0.25007 0.0
C737 C 0.79386 0.64657 0.17168 0.0
C738 C 0.80434 0.66236 0.2219 0.0
N739 N 0.79916 0.65576 0.28148 0.0
O740 O 0.81577 0.64281 0.05881 0.0
H741 H 0.7906 0.63928 0.13116 0.0
H742 H 0.8111 0.67027 0.22904 0.0
O743 O 0.7933 0.65433 0.00395 0.0
C744 C 0.82509 0.64122 0.10627 0.0
O745 O 0.82894 0.65118 0.14784 0.0
N746 N 0.8037 0.6778 0.0572 0.0
C747 C 0.80169 0.70492 0.04679 0.0
C748 C 0.79394 0.69685 0.00067 0.0
C749 C 0.79531 0.68331 0.0054 0.0
C750 C 0.81145 0.68557 0.10118 0.0
C751 C 0.81042 0.69908 0.09824 0.0
H752 H 0.79032 0.67747 0.96324 0.0
H753 H 0.81923 0.68131 0.1344 0.0
H754 H 0.80658 0.65056 0.88885 0.0
H755 H 0.83473 0.67899 0.83926 0.0
H756 H 0.78772 0.6381 0.28162 0.0
H757 H 0.7875 0.70095 0.9577 0.0
H758 H 0.81682 0.70492 0.13376 0.0
C759 C 0.5832 0.58204 0.13759 0.0
C760 C 0.5835 0.58497 0.06053 0.0
N761 N 0.59097 0.57603 0.02484 0.0
N762 N 0.5904 0.57128 0.15031 0.0
C763 C 0.59513 0.56793 0.08081 0.0
H764 H 0.57776 0.58715 0.18141 0.0
Co765 Co 0.59174 0.56287 0.24426 0.0
C766 C 0.59204 0.53502 0.19936 0.0
O767 O 0.58306 0.53269 0.25145 0.0
N768 N 0.59354 0.55503 0.34094 0.0
C769 C 0.60206 0.54423 0.44003 0.0
C770 C 0.60082 0.54461 0.36155 0.0
C771 C 0.59114 0.56118 0.40807 0.0
N772 N 0.59598 0.55472 0.46924 0.0
O773 O 0.6097 0.56757 0.25223 0.0
H774 H 0.60599 0.53826 0.32264 0.0
H775 H 0.58708 0.57087 0.41154 0.0
O776 O 0.59656 0.54656 0.1917 0.0
C777 C 0.61252 0.57948 0.26351 0.0
O778 O 0.60326 0.58827 0.26023 0.0
N779 N 0.57365 0.55882 0.2381 0.0
C780 C 0.54663 0.55549 0.22576 0.0
C781 C 0.55498 0.55115 0.16745 0.0
C782 C 0.5684 0.5531 0.1741 0.0
C783 C 0.56558 0.56357 0.2937 0.0
C784 C 0.55211 0.56182 0.28936 0.0
H785 H 0.57454 0.55019 0.12674 0.0
H786 H 0.56941 0.56925 0.34033 0.0
H787 H 0.60098 0.55935 0.07079 0.0
H788 H 0.57839 0.59291 0.03288 0.0
H789 H 0.60756 0.53713 0.47254 0.0
H790 H 0.55121 0.54635 0.11671 0.0
H791 H 0.54601 0.56586 0.33422 0.0
C792 C 0.32144 0.32457 0.40209 0.0
C793 C 0.32361 0.32382 0.32415 0.0
N794 N 0.31804 0.33426 0.2905 0.0
N795 N 0.31436 0.33533 0.41729 0.0
C796 C 0.31277 0.34118 0.34859 0.0
H797 H 0.32443 0.31749 0.44454 0.0
Co798 Co 0.30717 0.34019 0.51115 0.0
C799 C 0.28005 0.34848 0.46752 0.0
O800 O 0.27511 0.34332 0.53019 0.0
N801 N 0.30038 0.34534 0.60674 0.0
C802 C 0.29331 0.35818 0.70121 0.0
C803 C 0.29437 0.35673 0.62287 0.0
C804 C 0.30327 0.34032 0.67651 0.0
N805 N 0.29896 0.34783 0.73487 0.0
O806 O 0.31649 0.35631 0.50755 0.0
H807 H 0.29163 0.36395 0.5806 0.0
H808 H 0.30945 0.33199 0.6852 0.0
O809 O 0.29234 0.34796 0.45599 0.0
C810 C 0.32806 0.35428 0.53102 0.0
O811 O 0.33143 0.34232 0.54918 0.0
N812 N 0.29903 0.32369 0.51672 0.0
C813 C 0.29223 0.29729 0.51982 0.0
C814 C 0.28604 0.30592 0.46906 0.0
C815 C 0.28973 0.31905 0.46747 0.0
C816 C 0.30545 0.31528 0.56396 0.0
C817 C 0.30202 0.30217 0.56785 0.0
H818 H 0.28567 0.32514 0.42312 0.0
H819 H 0.314 0.31849 0.59445 0.0
H820 H 0.30745 0.35014 0.34109 0.0
H821 H 0.32864 0.31604 0.29456 0.0
H822 H 0.28918 0.36647 0.73085 0.0
H823 H 0.27871 0.30249 0.42915 0.0
H824 H 0.30759 0.29575 0.60475 0.0
C825 C 0.41262 0.57757 0.08759 0.0
C826 C 0.41229 0.58038 0.01036 0.0
N827 N 0.40479 0.5714 0.97528 0.0
N828 N 0.40543 0.56683 0.10087 0.0
C829 C 0.40067 0.56337 0.03167 0.0
H830 H 0.41795 0.58284 0.13125 0.0
Co831 Co 0.40342 0.55876 0.19513 0.0
C832 C 0.40487 0.53073 0.15433 0.0
O833 O 0.41311 0.52901 0.21129 0.0
N834 N 0.40091 0.55119 0.29189 0.0
C835 C 0.39232 0.54023 0.39015 0.0
C836 C 0.39385 0.54058 0.31176 0.0
C837 C 0.40277 0.5575 0.35901 0.0
N838 N 0.39797 0.55091 0.41972 0.0
O839 O 0.38525 0.56285 0.19583 0.0
H840 H 0.38921 0.53396 0.27212 0.0
H841 H 0.40646 0.56733 0.36284 0.0
O842 O 0.39997 0.54203 0.1428 0.0
C843 C 0.38259 0.57476 0.20865 0.0
O844 O 0.39215 0.58324 0.21171 0.0
N845 N 0.42171 0.55555 0.19671 0.0
C846 C 0.4489 0.55323 0.19955 0.0
C847 C 0.44165 0.54809 0.13837 0.0
C848 C 0.4281 0.54955 0.13738 0.0
C849 C 0.42876 0.56132 0.25375 0.0
C850 C 0.44227 0.56004 0.25723 0.0
H851 H 0.42279 0.54604 0.08799 0.0
H852 H 0.42408 0.56747 0.29526 0.0
H853 H 0.39468 0.55487 0.02244 0.0
H854 H 0.4173 0.58835 0.98231 0.0
H855 H 0.38704 0.53292 0.42236 0.0
H856 H 0.44638 0.54302 0.09149 0.0
H857 H 0.44751 0.56479 0.30341 0.0
C858 C 0.17857 0.67578 0.92049 0.0
C859 C 0.17642 0.67667 0.84257 0.0
N860 N 0.18245 0.66657 0.80807 0.0
N861 N 0.18605 0.66528 0.93488 0.0
C862 C 0.18796 0.6597 0.86564 0.0
H863 H 0.17524 0.6826 0.96358 0.0
Co864 Co 0.19322 0.66044 0.02882 0.0
C865 C 0.22059 0.65281 0.98709 0.0
O866 O 0.22523 0.65761 0.0515 0.0
N867 N 0.19998 0.65528 0.12451 0.0
C868 C 0.20706 0.64224 0.21808 0.0
C869 C 0.206 0.64386 0.13989 0.0
C870 C 0.19708 0.66015 0.19463 0.0
N871 N 0.20137 0.65251 0.2525 0.0
O872 O 0.18431 0.6441 0.02399 0.0
H873 H 0.20876 0.63674 0.09713 0.0
H874 H 0.1909 0.66847 0.20379 0.0
O875 O 0.20833 0.6532 0.974 0.0
C876 C 0.17275 0.64566 0.04885 0.0
O877 O 0.16899 0.65748 0.06755 0.0
N878 N 0.20098 0.67711 0.03573 0.0
C879 C 0.20778 0.70349 0.04305 0.0
C880 C 0.21407 0.69507 0.99157 0.0
C881 C 0.21037 0.68196 0.98777 0.0
C882 C 0.1944 0.68534 0.08328 0.0
C883 C 0.1978 0.69844 0.08919 0.0
H884 H 0.21456 0.67605 0.94307 0.0
H885 H 0.18582 0.68196 0.11302 0.0
H886 H 0.19368 0.65099 0.85738 0.0
H887 H 0.17107 0.68431 0.81362 0.0
H888 H 0.2112 0.63389 0.24704 0.0
H889 H 0.22155 0.69863 0.95306 0.0
H890 H 0.19216 0.70471 0.12658 0.0
C891 C 0.07729 0.4293 0.66393 0.0
C892 C 0.07661 0.42721 0.58577 0.0
N893 N 0.08669 0.43345 0.5525 0.0
N894 N 0.08769 0.43688 0.67936 0.0
C895 C 0.09337 0.43894 0.61074 0.0
H896 H 0.0703 0.42605 0.70631 0.0
Co897 Co 0.09206 0.44433 0.77285 0.0
C898 C 0.10031 0.47134 0.72855 0.0
O899 O 0.09419 0.47622 0.78835 0.0
N900 N 0.09674 0.45135 0.86854 0.0
C901 C 0.10911 0.45888 0.96394 0.0
C902 C 0.10778 0.45793 0.88557 0.0
C903 C 0.09191 0.44789 0.93784 0.0
N904 N 0.09913 0.45246 0.99666 0.0
O905 O 0.10807 0.43482 0.77411 0.0
H906 H 0.11498 0.461 0.84407 0.0
H907 H 0.08381 0.44138 0.94561 0.0
O908 O 0.10037 0.459 0.71806 0.0
C909 C 0.10616 0.42378 0.80566 0.0
O910 O 0.0942 0.42072 0.82583 0.0
N911 N 0.07564 0.45276 0.77352 0.0
C912 C 0.04962 0.46093 0.77234 0.0
C913 C 0.05856 0.46591 0.71892 0.0
C914 C 0.07146 0.46151 0.71949 0.0
C915 C 0.06686 0.44732 0.82265 0.0
C916 C 0.05394 0.45147 0.82446 0.0
H917 H 0.0778 0.46464 0.67369 0.0
H918 H 0.06959 0.43904 0.85697 0.0
H919 H 0.10213 0.44459 0.60331 0.0
H920 H 0.06891 0.42215 0.55557 0.0
H921 H 0.11728 0.4631 0.99428 0.0
H922 H 0.05554 0.47289 0.67577 0.0
H923 H 0.04722 0.44676 0.86355 0.0
C924 C 0.32996 0.66384 0.60694 0.0
C925 C 0.33278 0.66361 0.68425 0.0
N926 N 0.32406 0.65581 0.71948 0.0
N927 N 0.31948 0.65627 0.5936 0.0
C928 C 0.31625 0.65137 0.6629 0.0
H929 H 0.33494 0.66948 0.56347 0.0
Co930 Co 0.31097 0.65457 0.49987 0.0
C931 C 0.28309 0.65441 0.55083 0.0
O932 O 0.27997 0.66305 0.49818 0.0
N933 N 0.30297 0.65249 0.4038 0.0
C934 C 0.29164 0.64464 0.30492 0.0
C935 C 0.29213 0.64585 0.38355 0.0
C936 C 0.30921 0.65452 0.33651 0.0
N937 N 0.30243 0.65013 0.27543 0.0
O938 O 0.31551 0.6365 0.49458 0.0
H939 H 0.28544 0.64121 0.42276 0.0
H940 H 0.31908 0.65812 0.33275 0.0
O941 O 0.29479 0.65016 0.5547 0.0
C942 C 0.32744 0.63362 0.48444 0.0
O943 O 0.33622 0.64291 0.4862 0.0
N944 N 0.30717 0.67271 0.50287 0.0
C945 C 0.30518 0.69991 0.50973 0.0
C946 C 0.29992 0.69211 0.56811 0.0
C947 C 0.30126 0.67856 0.56443 0.0
C948 C 0.31264 0.68023 0.44696 0.0
C949 C 0.31157 0.69377 0.44851 0.0
H950 H 0.29798 0.67284 0.61277 0.0
H951 H 0.31846 0.67589 0.40254 0.0
H952 H 0.30796 0.64513 0.67224 0.0
H953 H 0.34047 0.66902 0.71231 0.0
H954 H 0.28416 0.63966 0.27244 0.0
H955 H 0.29533 0.69645 0.61792 0.0
H956 H 0.31598 0.6994 0.40271 0.0
C957 C 0.0789 0.57067 0.34455 0.0
C958 C 0.07886 0.57302 0.42243 0.0
N959 N 0.08987 0.56801 0.45284 0.0
N960 N 0.08979 0.56405 0.32613 0.0
C961 C 0.0964 0.56291 0.39261 0.0
H962 H 0.07122 0.57313 0.30459 0.0
Co963 Co 0.09432 0.5568 0.23223 0.0
C964 C 0.10241 0.52964 0.27575 0.0
O965 O 0.09694 0.52477 0.21383 0.0
N966 N 0.09924 0.54996 0.13669 0.0
C967 C 0.11222 0.54328 0.04197 0.0
C968 C 0.11052 0.54376 0.12026 0.0
C969 C 0.09455 0.55353 0.06734 0.0
N970 N 0.10219 0.54957 0.00882 0.0
O971 O 0.11042 0.56623 0.2333 0.0
H972 H 0.11764 0.54073 0.16238 0.0
H973 H 0.08625 0.55978 0.05959 0.0
O974 O 0.10219 0.54197 0.287 0.0
C975 C 0.10812 0.57723 0.20225 0.0
O976 O 0.09604 0.57991 0.18282 0.0
N977 N 0.07782 0.54864 0.22829 0.0
C978 C 0.05163 0.54119 0.22149 0.0
C979 C 0.06014 0.53535 0.27438 0.0
C980 C 0.07318 0.53937 0.27774 0.0
C981 C 0.06943 0.55489 0.18015 0.0
C982 C 0.05645 0.55112 0.17431 0.0
H983 H 0.07922 0.53549 0.32291 0.0
H984 H 0.07256 0.56349 0.14985 0.0
H985 H 0.10577 0.5582 0.39652 0.0
H986 H 0.071 0.57748 0.45434 0.0
H987 H 0.12069 0.53954 0.01234 0.0
H988 H 0.0567 0.52798 0.31398 0.0
H989 H 0.05006 0.55646 0.13605 0.0
C990 C 0.17646 0.3261 0.09734 0.0
C991 C 0.17454 0.32557 0.17568 0.0
N992 N 0.18094 0.33565 0.2078 0.0
N993 N 0.18411 0.33641 0.08081 0.0
C994 C 0.18636 0.34219 0.14885 0.0
H995 H 0.17301 0.31911 0.0556 0.0
Co996 Co 0.19136 0.34083 0.98711 0.0
C997 C 0.21873 0.34841 0.0281 0.0
O998 O 0.22328 0.34263 0.96632 0.0
N999 N 0.1982 0.34557 0.89159 0.0
C1000 C 0.20539 0.35811 0.79612 0.0
C1001 C 0.20457 0.35673 0.87452 0.0
C1002 C 0.19481 0.34066 0.82252 0.0
N1003 N 0.19912 0.34802 0.76369 0.0
O1004 O 0.18242 0.35716 0.98893 0.0
H1005 H 0.2076 0.36393 0.91615 0.0
H1006 H 0.18853 0.33238 0.81488 0.0
O1007 O 0.20645 0.34846 0.04079 0.0
C1008 C 0.17114 0.3558 0.95961 0.0
O1009 O 0.16742 0.34404 0.93945 0.0
N1010 N 0.19918 0.32414 0.98325 0.0
C1011 C 0.2066 0.29792 0.97708 0.0
C1012 C 0.21251 0.30649 0.02931 0.0
C1013 C 0.20847 0.31951 0.03258 0.0
C1014 C 0.19281 0.3157 0.93597 0.0
C1015 C 0.19655 0.30269 0.9305 0.0
H1016 H 0.21241 0.32556 0.07747 0.0
H1017 H 0.1842 0.31885 0.90572 0.0
H1018 H 0.19208 0.35094 0.1553 0.0
H1019 H 0.16947 0.31798 0.20674 0.0
H1020 H 0.2094 0.36638 0.76561 0.0
H1021 H 0.21999 0.30311 0.06844 0.0
H1022 H 0.19114 0.29627 0.89278 0.0
C1023 C 0.42481 0.41593 0.83785 0.0
C1024 C 0.42415 0.41379 0.91583 0.0
N1025 N 0.41522 0.42197 0.9458 0.0
N1026 N 0.41637 0.42546 0.8189 0.0
C1027 C 0.41049 0.42872 0.88541 0.0
H1028 H 0.43154 0.4114 0.79822 0.0
Co1029 Co 0.41517 0.43377 0.72428 0.0
C1030 C 0.40018 0.45748 0.77348 0.0
O1031 O 0.39101 0.45618 0.72145 0.0
N1032 N 0.41411 0.44196 0.62952 0.0
C1033 C 0.4155 0.45568 0.53119 0.0
C1034 C 0.41628 0.45449 0.60995 0.0
C1035 C 0.41221 0.43573 0.56239 0.0
N1036 N 0.413 0.44381 0.50152 0.0
O1037 O 0.3976 0.42757 0.71258 0.0
H1038 H 0.41874 0.46217 0.64992 0.0
H1039 H 0.41058 0.42537 0.55816 0.0
O1040 O 0.40962 0.44944 0.776 0.0
C1041 C 0.39852 0.41585 0.68902 0.0
O1042 O 0.41024 0.4108 0.68258 0.0
N1043 N 0.43262 0.43866 0.73249 0.0
C1044 C 0.45959 0.44052 0.74664 0.0
C1045 C 0.45136 0.44735 0.79693 0.0
C1046 C 0.43784 0.44622 0.78919 0.0
C1047 C 0.44046 0.43231 0.68175 0.0
C1048 C 0.45395 0.43318 0.68738 0.0
H1049 H 0.43165 0.45087 0.8311 0.0
H1050 H 0.43618 0.42609 0.63842 0.0
H1051 H 0.4032 0.43627 0.88993 0.0
H1052 H 0.4304 0.40733 0.94836 0.0
H1053 H 0.4172 0.46446 0.49831 0.0
H1054 H 0.45531 0.45298 0.8441 0.0
H1055 H 0.45992 0.42787 0.64674 0.0
H1056 H 0.21139 0.28143 0.09832 0.0
H1057 H 0.21103 0.2178 0.83335 0.0
H1058 H 0.20938 0.28229 0.8507 0.0
H1059 H 0.21154 0.2166 0.08118 0.0
H1060 H 0.21329 0.24146 0.83855 0.0
H1061 H 0.21446 0.25782 0.09311 0.0
C1062 C 0.21182 0.27669 0.04279 0.0
C1063 C 0.21001 0.28385 0.97484 0.0
C1064 C 0.21304 0.23603 0.89185 0.0
C1065 C 0.21333 0.25679 0.96851 0.0
C1066 C 0.21172 0.22251 0.88889 0.0
C1067 C 0.21098 0.2152 0.95691 0.0
C1068 C 0.21354 0.24234 0.9634 0.0
C1069 C 0.21214 0.22181 0.02725 0.0
C1070 C 0.21348 0.26319 0.03988 0.0
C1071 C 0.2105 0.27714 0.90458 0.0
N1072 N 0.21323 0.23501 0.02868 0.0
N1073 N 0.21202 0.264 0.90329 0.0
H1074 H 0.03007 0.95827 0.39344 0.0
H1075 H 0.96685 0.96651 0.12844 0.0
H1076 H 0.03132 0.96406 0.14801 0.0
H1077 H 0.96525 0.95644 0.36907 0.0
H1078 H 0.99046 0.96876 0.13869 0.0
H1079 H 0.00636 0.96091 0.38983 0.0
C1080 C 0.02538 0.96032 0.33901 0.0
C1081 C 0.03266 0.96082 0.2708 0.0
C1082 C 0.98494 0.96616 0.18945 0.0
C1083 C 0.00555 0.9637 0.26609 0.0
C1084 C 0.97146 0.96483 0.18356 0.0
C1085 C 0.96404 0.96115 0.24778 0.0
C1086 C 0.99112 0.96377 0.26007 0.0
C1087 C 0.97053 0.95936 0.3181 0.0
C1088 C 0.01184 0.96173 0.33689 0.0
C1089 C 0.02606 0.96338 0.20178 0.0
N1090 N 0.98371 0.96058 0.3222 0.0
N1091 N 0.01289 0.96463 0.20113 0.0
H1092 H 0.28229 0.78124 0.55476 0.0
H1093 H 0.32479 0.7171 0.47822 0.0
H1094 H 0.32334 0.78137 0.50094 0.0
H1095 H 0.28477 0.71565 0.55352 0.0
H1096 H 0.32405 0.74077 0.48415 0.0
H1097 H 0.28267 0.75735 0.55416 0.0
C1098 C 0.29139 0.77627 0.54315 0.0
C1099 C 0.30277 0.78337 0.52714 0.0
C1100 C 0.31541 0.73532 0.49945 0.0
C1101 C 0.30324 0.75605 0.52582 0.0
C1102 C 0.3158 0.72177 0.49553 0.0
C1103 C 0.30479 0.71436 0.5147 0.0
C1104 C 0.30391 0.7416 0.52257 0.0
C1105 C 0.29351 0.72098 0.5385 0.0
C1106 C 0.29158 0.76264 0.54252 0.0
C1107 C 0.31425 0.77637 0.51193 0.0
N1108 N 0.29333 0.73424 0.54144 0.0
N1109 N 0.31417 0.76316 0.51147 0.0
H1110 H 0.46603 0.03758 0.84143 0.0
H1111 H 0.53053 0.07923 0.75832 0.0
H1112 H 0.46627 0.07773 0.76807 0.0
H1113 H 0.53166 0.03897 0.82943 0.0
H1114 H 0.50688 0.07872 0.76519 0.0
H1115 H 0.48994 0.03781 0.8425 0.0
C1116 C 0.4711 0.04644 0.82592 0.0
C1117 C 0.46412 0.0576 0.80374 0.0
C1118 C 0.51226 0.06997 0.7793 0.0
C1119 C 0.49142 0.05793 0.80457 0.0
C1120 C 0.5258 0.07023 0.77484 0.0
C1121 C 0.53312 0.05907 0.79239 0.0
C1122 C 0.50588 0.05847 0.80156 0.0
C1123 C 0.52641 0.0478 0.81555 0.0
C1124 C 0.48474 0.04656 0.82621 0.0
C1125 C 0.4712 0.06881 0.78392 0.0
N1126 N 0.51315 0.04777 0.81915 0.0
N1127 N 0.48441 0.06866 0.78466 0.0
H1128 H 0.21224 0.71981 0.92073 0.0
H1129 H 0.21003 0.78423 0.17903 0.0
H1130 H 0.20961 0.71958 0.16821 0.0
H1131 H 0.21071 0.78466 0.93109 0.0
H1132 H 0.2125 0.76058 0.17646 0.0
H1133 H 0.21452 0.74351 0.92379 0.0
C1134 C 0.21237 0.72471 0.97582 0.0
C1135 C 0.21065 0.71769 0.04433 0.0
C1136 C 0.21223 0.76585 0.12258 0.0
C1137 C 0.21305 0.74486 0.04815 0.0
C1138 C 0.21078 0.77936 0.12402 0.0
C1139 C 0.21006 0.78646 0.05519 0.0
C1140 C 0.21291 0.75932 0.05175 0.0
C1141 C 0.21131 0.77963 0.98561 0.0
C1142 C 0.21357 0.73826 0.97749 0.0
C1143 C 0.21071 0.72461 0.11393 0.0
N1144 N 0.21255 0.76644 0.98568 0.0
N1145 N 0.21179 0.7378 0.114 0.0
H1146 H 0.53104 0.95669 0.42295 0.0
H1147 H 0.46676 0.96239 0.16399 0.0
H1148 H 0.53194 0.96102 0.17623 0.0
H1149 H 0.46685 0.95023 0.40129 0.0
H1150 H 0.49046 0.96531 0.17061 0.0
H1151 H 0.50729 0.95764 0.41895 0.0
C1152 C 0.52625 0.95789 0.36794 0.0
C1153 C 0.53353 0.95865 0.29978 0.0
C1154 C 0.48526 0.96207 0.22128 0.0
C1155 C 0.5063 0.95984 0.29484 0.0
C1156 C 0.47175 0.96046 0.21762 0.0
C1157 C 0.46488 0.95592 0.28194 0.0
C1158 C 0.49189 0.95923 0.28997 0.0
C1159 C 0.47182 0.95353 0.34995 0.0
C1160 C 0.51269 0.95847 0.36572 0.0
C1161 C 0.52677 0.96049 0.23033 0.0
N1162 N 0.48493 0.95517 0.35211 0.0
N1163 N 0.51354 0.96092 0.22959 0.0
H1164 H 0.29129 0.21678 0.37741 0.0
H1165 H 0.28996 0.28051 0.64146 0.0
H1166 H 0.29225 0.21589 0.62533 0.0
H1167 H 0.28884 0.28159 0.3937 0.0
H1168 H 0.28861 0.25677 0.63674 0.0
H1169 H 0.28816 0.24036 0.38222 0.0
C1170 C 0.29066 0.2215 0.43292 0.0
C1171 C 0.29211 0.21432 0.50111 0.0
C1172 C 0.28853 0.26219 0.58336 0.0
C1173 C 0.28871 0.24139 0.50694 0.0
C1174 C 0.28931 0.27575 0.58605 0.0
C1175 C 0.2896 0.28306 0.51788 0.0
C1176 C 0.28811 0.25583 0.51194 0.0
C1177 C 0.28856 0.27638 0.44772 0.0
C1178 C 0.28895 0.235 0.43559 0.0
C1179 C 0.2914 0.22104 0.57127 0.0
N1180 N 0.28799 0.26314 0.44655 0.0
N1181 N 0.28983 0.23418 0.57234 0.0
H1182 H 0.96898 0.04458 0.90479 0.0
H1183 H 0.02927 0.03494 0.61838 0.0
H1184 H 0.96453 0.03071 0.67232 0.0
H1185 H 0.03221 0.04989 0.8493 0.0
H1186 H 0.00597 0.03075 0.64016 0.0
H1187 H 0.99256 0.04406 0.88889 0.0
C1188 C 0.97299 0.04136 0.85045 0.0
C1189 C 0.96478 0.03782 0.78955 0.0
C1190 C 0.01176 0.03485 0.68616 0.0
C1191 C 0.99184 0.03723 0.77058 0.0
C1192 C 0.02504 0.03719 0.67383 0.0
C1193 C 0.0326 0.04297 0.73171 0.0
C1194 C 0.00609 0.03825 0.757 0.0
C1195 C 0.02667 0.04569 0.80254 0.0
C1196 C 0.98646 0.04103 0.84137 0.0
C1197 C 0.97051 0.0335 0.72081 0.0
N1198 N 0.01379 0.04339 0.81295 0.0
N1199 N 0.9837 0.03346 0.71284 0.0
H1200 H 0.82278 0.72106 0.03973 0.0
H1201 H 0.78173 0.78677 0.98697 0.0
H1202 H 0.7808 0.72143 0.02688 0.0
H1203 H 0.8237 0.78454 0.98052 0.0
H1204 H 0.78085 0.76303 0.00248 0.0
H1205 H 0.82297 0.74452 0.02117 0.0
C1206 C 0.81357 0.7261 0.03378 0.0
C1207 C 0.80174 0.71927 0.03581 0.0
C1208 C 0.79023 0.76777 0.99764 0.0
C1209 C 0.8019 0.74626 0.01306 0.0
C1210 C 0.79074 0.7813 0.98846 0.0
C1211 C 0.80281 0.78769 0.98321 0.0
C1212 C 0.80187 0.76059 0.00151 0.0
C1213 C 0.81418 0.78011 0.98602 0.0
C1214 C 0.81369 0.73952 0.02248 0.0
C1215 C 0.79014 0.72632 0.02558 0.0
N1216 N 0.81342 0.76701 0.99514 0.0
N1217 N 0.7905 0.73946 0.01491 0.0
H1218 H 0.66596 0.28675 0.39115 0.0
H1219 H 0.70663 0.22037 0.35876 0.0
H1220 H 0.70742 0.28582 0.35019 0.0
H1221 H 0.66669 0.22255 0.43477 0.0
H1222 H 0.70683 0.24413 0.3441 0.0
H1223 H 0.66579 0.26303 0.39601 0.0
C1224 C 0.67505 0.28156 0.38335 0.0
C1225 C 0.68675 0.28834 0.37113 0.0
C1226 C 0.69803 0.23939 0.36402 0.0
C1227 C 0.68659 0.26105 0.37577 0.0
C1228 C 0.69789 0.22584 0.37209 0.0
C1229 C 0.68665 0.21946 0.39857 0.0
C1230 C 0.68681 0.24662 0.3819 0.0
C1231 C 0.67564 0.22705 0.41545 0.0
C1232 C 0.67493 0.26799 0.38583 0.0
C1233 C 0.69816 0.28103 0.35939 0.0
N1234 N 0.676 0.24019 0.40678 0.0
N1235 N 0.6978 0.26779 0.36236 0.0
H1236 H 0.82401 0.21499 0.96857 0.0
H1237 H 0.7841 0.28139 0.0216 0.0
H1238 H 0.78263 0.21574 0.01171 0.0
H1239 H 0.82578 0.27903 0.99336 0.0
H1240 H 0.78308 0.25748 0.02253 0.0
H1241 H 0.82458 0.2386 0.97956 0.0
C1242 C 0.81501 0.22015 0.97986 0.0
C1243 C 0.80323 0.21339 0.98841 0.0
C1244 C 0.79244 0.26223 0.01639 0.0
C1245 C 0.80381 0.24053 0.00209 0.0
C1246 C 0.79303 0.27585 0.01621 0.0
C1247 C 0.80502 0.2822 0.00624 0.0
C1248 C 0.80394 0.25496 0.00678 0.0
C1249 C 0.81629 0.27456 -0.00064 0.0
C1250 C 0.81535 0.23365 0.98674 0.0
C1251 C 0.79192 0.22058 0.00488 0.0
N1252 N 0.81546 0.26139 -0.00062 0.0
N1253 N 0.79248 0.23379 0.01078 0.0
H1254 H 0.70018 0.71167 0.3683 0.0
H1255 H 0.70535 0.78102 0.57439 0.0
H1256 H 0.70553 0.7165 0.61258 0.0
H1257 H 0.70319 0.77616 0.32827 0.0
H1258 H 0.70655 0.75743 0.58889 0.0
H1259 H 0.70213 0.73522 0.35193 0.0
C1260 C 0.7018 0.71769 0.4185 0.0
C1261 C 0.70262 0.7121 0.49198 0.0
C1262 C 0.70591 0.76152 0.53165 0.0
C1263 C 0.7049 0.7391 0.47367 0.0
C1264 C 0.70533 0.77502 0.52321 0.0
C1265 C 0.70416 0.78063 0.44989 0.0
C1266 C 0.70526 0.75351 0.46638 0.0
C1267 C 0.70389 0.77228 0.38597 0.0
C1268 C 0.70297 0.73113 0.40908 0.0
C1269 C 0.70493 0.72036 0.55481 0.0
N1270 N 0.70437 0.75916 0.39573 0.0
N1271 N 0.70589 0.73345 0.54428 0.0
H1272 H 0.47584 0.41955 0.73705 0.0
H1273 H 0.54116 0.45987 0.81752 0.0
H1274 H 0.47597 0.46081 0.78432 0.0
H1275 H 0.54001 0.41856 0.772 0.0
H1276 H 0.51734 0.46048 0.81075 0.0
H1277 H 0.49937 0.41912 0.75326 0.0
C1278 C 0.48084 0.42856 0.75032 0.0
C1279 C 0.47392 0.44027 0.75834 0.0
C1280 C 0.52231 0.45128 0.80246 0.0
C1281 C 0.50098 0.43981 0.77815 0.0
C1282 C 0.5359 0.45091 0.80674 0.0
C1283 C 0.54261 0.43916 0.79483 0.0
C1284 C 0.51537 0.43981 0.78627 0.0
C1285 C 0.53529 0.42789 0.78021 0.0
C1286 C 0.49429 0.42829 0.76014 0.0
C1287 C 0.48091 0.45156 0.77771 0.0
N1288 N 0.5221 0.42851 0.77618 0.0
N1289 N 0.49407 0.45107 0.78658 0.0
H1290 H 0.03623 0.53765 0.09511 0.0
H1291 H 0.96997 0.53895 0.33576 0.0
H1292 H 0.03489 0.53768 0.34285 0.0
H1293 H 0.97169 0.53898 0.08795 0.0
H1294 H 0.99356 0.53588 0.34001 0.0
H1295 H 0.01255 0.53555 0.09187 0.0
C1296 C 0.03095 0.53708 0.14888 0.0
C1297 C 0.03754 0.53796 0.21935 0.0
C1298 C 0.98877 0.53643 0.28469 0.0
C1299 C 0.01037 0.53563 0.21617 0.0
C1300 C 0.97527 0.5381 0.28218 0.0
C1301 C 0.96882 0.5393 0.21131 0.0
C1302 C 0.9959 0.53599 0.21587 0.0
C1303 C 0.97626 0.53832 0.14387 0.0
C1304 C 0.01742 0.53587 0.14703 0.0
C1305 C 0.03022 0.53699 0.28726 0.0
N1306 N 0.98939 0.53681 0.14783 0.0
N1307 N 0.01701 0.53603 0.28399 0.0
H1308 H 0.03334 0.46579 0.89351 0.0
H1309 H 0.96909 0.4658 0.63398 0.0
H1310 H 0.03392 0.46408 0.64581 0.0
H1311 H 0.96887 0.46528 0.88188 0.0
H1312 H 0.99276 0.46858 0.6364 0.0
H1313 H 0.00976 0.46884 0.8895 0.0
C1314 C 0.02851 0.46616 0.83821 0.0
C1315 C 0.03561 0.46454 0.76995 0.0
C1316 C 0.98752 0.46801 0.69028 0.0
C1317 C 0.00857 0.46802 0.76483 0.0
C1318 C 0.97398 0.46653 0.68894 0.0
C1319 C 0.967 0.46519 0.75787 0.0
C1320 C 0.99411 0.46816 0.76104 0.0
C1321 C 0.97389 0.46605 0.82736 0.0
C1322 C 0.01505 0.46794 0.83592 0.0
C1323 C 0.02887 0.46534 0.69986 0.0
N1324 N 0.98706 0.46737 0.82715 0.0
N1325 N 0.0157 0.46687 0.69914 0.0
H1326 H 0.46432 0.54812 0.32431 0.0
H1327 H 0.53135 0.55823 0.09699 0.0
H1328 H 0.46639 0.55584 0.08085 0.0
H1329 H 0.52908 0.54935 0.3391 0.0
H1330 H 0.50767 0.55644 0.08847 0.0
H1331 H 0.48807 0.54773 0.32955 0.0
C1332 C 0.46978 0.54973 0.27188 0.0
C1333 C 0.46333 0.55209 0.2021 0.0
C1334 C 0.51235 0.55483 0.1434 0.0
C1335 C 0.4906 0.5516 0.20762 0.0
C1336 C 0.5259 0.55577 0.14825 0.0
C1337 C 0.53225 0.55396 0.21897 0.0
C1338 C 0.50506 0.55207 0.20972 0.0
C1339 C 0.52461 0.55102 0.28362 0.0
C1340 C 0.48335 0.54944 0.27486 0.0
C1341 C 0.47092 0.55388 0.13578 0.0
N1342 N 0.51144 0.5502 0.27747 0.0
N1343 N 0.48415 0.55368 0.14027 0.0
H1344 H 0.18518 0.14099 0.25213 0.0
H1345 H 0.1961 0.1738 0.66436 0.0
H1346 H 0.18118 0.18217 0.29616 0.0
H1347 H 0.19839 0.13237 0.62469 0.0
H1348 H 0.19073 0.17699 0.52917 0.0
H1349 H 0.19002 0.13755 0.38805 0.0
C1350 C 0.18528 0.14931 0.29027 0.0
C1351 C 0.18278 0.16191 0.26232 0.0
C1352 C 0.19241 0.16719 0.54997 0.0
C1353 C 0.1883 0.15802 0.41829 0.0
C1354 C 0.19544 0.16536 0.62732 0.0
C1355 C 0.19765 0.15279 0.65627 0.0
C1356 C 0.19159 0.15638 0.5008 0.0
C1357 C 0.1969 0.14224 0.60501 0.0
C1358 C 0.18801 0.14733 0.36799 0.0
C1359 C 0.18288 0.17228 0.31491 0.0
N1360 N 0.1939 0.14428 0.52985 0.0
N1361 N 0.18565 0.17011 0.39015 0.0
H1362 H 0.10155 0.95144 0.55296 0.0
H1363 H 0.08605 0.92927 0.98288 0.0
H1364 H 0.08077 0.91616 0.60967 0.0
H1365 H 0.10317 0.96632 0.92366 0.0
H1366 H 0.08616 0.92322 0.84749 0.0
H1367 H 0.10447 0.95578 0.68881 0.0
C1368 C 0.0977 0.9445 0.59357 0.0
C1369 C 0.09073 0.93347 0.56911 0.0
C1370 C 0.08996 0.93265 0.8641 0.0
C1371 C 0.09399 0.93851 0.72602 0.0
C1372 C 0.08998 0.93609 0.94159 0.0
C1373 C 0.0946 0.94835 0.96479 0.0
C1374 C 0.09461 0.94152 0.80922 0.0
C1375 C 0.09936 0.95685 0.90827 0.0
C1376 C 0.09932 0.94705 0.67158 0.0
C1377 C 0.08597 0.92491 0.6255 0.0
N1378 N 0.09922 0.95328 0.8331 0.0
N1379 N 0.08763 0.92765 0.70128 0.0
H1380 H 0.29808 0.85214 0.81432 0.0
H1381 H 0.32291 0.84188 0.24483 0.0
H1382 H 0.3365 0.83803 0.87129 0.0
H1383 H 0.28381 0.85363 0.18578 0.0
H1384 H 0.32874 0.84244 0.10911 0.0
H1385 H 0.29346 0.85481 0.95013 0.0
C1386 C 0.30564 0.84974 0.85506 0.0
C1387 C 0.31771 0.84475 0.83077 0.0
C1388 C 0.3189 0.84497 0.12585 0.0
C1389 C 0.31236 0.84766 0.98758 0.0
C1390 C 0.31557 0.84474 0.20354 0.0
C1391 C 0.30281 0.84768 0.22692 0.0
C1392 C 0.30941 0.84817 0.07094 0.0
C1393 C 0.2937 0.85111 0.17035 0.0
C1394 C 0.30294 0.8512 0.93302 0.0
C1395 C 0.32701 0.8417 0.88715 0.0
N1396 N 0.29716 0.85122 0.09502 0.0
N1397 N 0.32412 0.84315 0.9629 0.0
H1398 H 0.40765 0.09256 0.13131 0.0
H1399 H 0.39769 0.03715 0.44887 0.0
H1400 H 0.39927 0.0523 0.07999 0.0
H1401 H 0.40164 0.07792 0.50512 0.0
H1402 H 0.39825 0.04273 0.31305 0.0
H1403 H 0.40562 0.08762 0.26863 0.0
C1404 C 0.40534 0.08272 0.14887 0.0
C1405 C 0.40358 0.07286 0.09401 0.0
C1406 C 0.39896 0.05048 0.35506 0.0
C1407 C 0.40126 0.06713 0.2505 0.0
C1408 C 0.39858 0.04729 0.4328 0.0
C1409 C 0.39963 0.05706 0.48884 0.0
C1410 C 0.40046 0.06354 0.3328 0.0
C1411 C 0.401 0.07003 0.46423 0.0
C1412 C 0.40414 0.07991 0.22712 0.0
C1413 C 0.40049 0.06028 0.11988 0.0
N1414 N 0.4014 0.07289 0.38801 0.0
N1415 N 0.3995 0.05777 0.19613 0.0
H1416 H 0.18738 0.86128 0.75929 0.0
H1417 H 0.19595 0.82803 0.34713 0.0
H1418 H 0.18005 0.82058 0.71535 0.0
H1419 H 0.19948 0.86939 0.38646 0.0
H1420 H 0.19049 0.82504 0.4824 0.0
H1421 H 0.19211 0.86443 0.62311 0.0
C1422 C 0.18674 0.85301 0.72093 0.0
C1423 C 0.18336 0.84063 0.74877 0.0
C1424 C 0.19246 0.83478 0.46142 0.0
C1425 C 0.18875 0.84416 0.5928 0.0
C1426 C 0.19554 0.83649 0.38411 0.0
C1427 C 0.19813 0.84899 0.35516 0.0
C1428 C 0.192 0.84562 0.51039 0.0
C1429 C 0.1977 0.85957 0.4062 0.0
C1430 C 0.1894 0.85482 0.64315 0.0
C1431 C 0.18249 0.8303 0.69629 0.0
N1432 N 0.19467 0.85764 0.48129 0.0
N1433 N 0.18524 0.83228 0.62087 0.0
H1434 H 0.39607 0.91853 0.95453 0.0
H1435 H 0.41973 0.96864 0.6303 0.0
H1436 H 0.42118 0.95132 0.0015 0.0
H1437 H 0.39588 0.93487 0.58588 0.0
H1438 H 0.42019 0.96279 0.76679 0.0
H1439 H 0.39614 0.92438 0.81905 0.0
C1440 C 0.40172 0.92688 0.93653 0.0
C1441 C 0.40862 0.93442 0.99013 0.0
C1442 C 0.41487 0.95666 0.72706 0.0
C1443 C 0.40854 0.94135 0.83425 0.0
C1444 C 0.41454 0.96005 0.64922 0.0
C1445 C 0.40783 0.95219 0.59635 0.0
C1446 C 0.4084 0.94537 0.75225 0.0
C1447 C 0.40137 0.94109 0.62415 0.0
C1448 C 0.40166 0.93029 0.85894 0.0
C1449 C 0.41557 0.94529 0.96283 0.0
N1450 N 0.40183 0.93802 0.69998 0.0
N1451 N 0.41533 0.94844 0.88691 0.0
H1452 H 0.28282 0.14354 0.8359 0.0
H1453 H 0.3349 0.16508 0.15399 0.0
H1454 H 0.32098 0.15847 0.78088 0.0
H1455 H 0.29656 0.15027 0.20556 0.0
H1456 H 0.3303 0.16236 0.0168 0.0
H1457 H 0.288 0.14543 0.97228 0.0
C1458 C 0.2923 0.14718 0.85253 0.0
C1459 C 0.30144 0.1509 0.79689 0.0
C1460 C 0.32294 0.15964 0.05832 0.0
C1461 C 0.30746 0.15318 0.95284 0.0
C1462 C 0.32555 0.16122 0.13651 0.0
C1463 C 0.31615 0.15781 0.1914 0.0
C1464 C 0.31081 0.15467 0.03505 0.0
C1465 C 0.30421 0.15277 0.16563 0.0
C1466 C 0.29525 0.14831 0.93037 0.0
C1467 C 0.31355 0.1557 0.82166 0.0
N1468 N 0.30188 0.15139 0.08943 0.0
N1469 N 0.3162 0.1567 0.89785 0.0
H1470 H 0.07917 0.08661 0.38646 0.0
H1471 H 0.09525 0.03294 0.0666 0.0
H1472 H 0.09452 0.04841 0.43689 0.0
H1473 H 0.07888 0.07068 0.01535 0.0
H1474 H 0.09453 0.03826 0.20328 0.0
H1475 H 0.07877 0.08094 0.25011 0.0
C1476 C 0.08249 0.07706 0.369 0.0
C1477 C 0.08689 0.06799 0.42346 0.0
C1478 C 0.09108 0.04538 0.16208 0.0
C1479 C 0.08637 0.06139 0.26764 0.0
C1480 C 0.09143 0.0423 0.08407 0.0
C1481 C 0.08722 0.0514 0.02933 0.0
C1482 C 0.08648 0.05764 0.18555 0.0
C1483 C 0.08248 0.06346 0.05528 0.0
C1484 C 0.08219 0.07379 0.29118 0.0
C1485 C 0.0909 0.05567 0.39744 0.0
N1486 N 0.08227 0.06623 0.13149 0.0
N1487 N 0.09058 0.05276 0.32148 0.0
H1488 H 0.83734 0.83591 0.60754 0.0
H1489 H 0.7871 0.86173 0.29133 0.0
H1490 H 0.80229 0.85739 0.66077 0.0
H1491 H 0.82394 0.84377 0.236 0.0
H1492 H 0.79259 0.86027 0.42757 0.0
H1493 H 0.83276 0.83883 0.47117 0.0
C1494 C 0.82868 0.84121 0.59101 0.0
C1495 C 0.82009 0.84619 0.6466 0.0
C1496 C 0.79948 0.85666 0.38555 0.0
C1497 C 0.81484 0.84964 0.49003 0.0
C1498 C 0.79635 0.85752 0.30774 0.0
C1499 C 0.80501 0.8528 0.25198 0.0
C1500 C 0.81136 0.85102 0.40788 0.0
C1501 C 0.81682 0.8473 0.27672 0.0
C1502 C 0.8261 0.84292 0.51293 0.0
C1503 C 0.80919 0.85326 0.62097 0.0
N1504 N 0.81963 0.84655 0.35281 0.0
N1505 N 0.80684 0.85468 0.54474 0.0
H1506 H 0.91621 0.06124 0.08896 0.0
H1507 H 0.91077 0.03599 0.52177 0.0
H1508 H 0.90086 0.02365 0.15222 0.0
H1509 H 0.91605 0.07654 0.46317 0.0
H1510 H 0.91078 0.03055 0.38642 0.0
H1511 H 0.91983 0.06609 0.22504 0.0
C1512 C 0.91381 0.05392 0.1314 0.0
C1513 C 0.90821 0.04201 0.10937 0.0
C1514 C 0.91198 0.04064 0.40316 0.0
C1515 C 0.91222 0.04755 0.26499 0.0
C1516 C 0.91201 0.0438 0.48098 0.0
C1517 C 0.91316 0.05684 0.50493 0.0
C1518 C 0.91326 0.05053 0.34816 0.0
C1519 C 0.91485 0.0664 0.44794 0.0
C1520 C 0.91577 0.05674 0.20906 0.0
C1521 C 0.90508 0.03297 0.16692 0.0
N1522 N 0.9148 0.06306 0.37225 0.0
N1523 N 0.90711 0.03593 0.24207 0.0
H1524 H 0.69299 0.1542 0.14784 0.0
H1525 H 0.66639 0.15741 0.71718 0.0
H1526 H 0.65242 0.16025 0.09329 0.0
H1527 H 0.70708 0.15555 0.77879 0.0
H1528 H 0.66072 0.15722 0.85354 0.0
H1529 H 0.69788 0.15282 0.0119 0.0
C1530 C 0.68504 0.15503 0.10738 0.0
C1531 C 0.67223 0.15729 0.13222 0.0
C1532 C 0.67088 0.15685 0.83707 0.0
C1533 C 0.67787 0.15605 0.97549 0.0
C1534 C 0.67414 0.15706 0.75924 0.0
C1535 C 0.68726 0.15653 0.73651 0.0
C1536 C 0.68081 0.15609 0.89235 0.0
C1537 C 0.69685 0.15582 0.79363 0.0
C1538 C 0.68788 0.15439 0.02943 0.0
C1539 C 0.66243 0.15862 0.07657 0.0
N1540 N 0.69344 0.15563 0.86882 0.0
N1541 N 0.66545 0.15801 0.00061 0.0
H1542 H 0.56828 0.93199 0.95767 0.0
H1543 H 0.61762 0.95384 0.62571 0.0
H1544 H 0.60888 0.94051 0.99735 0.0
H1545 H 0.57632 0.94864 0.59051 0.0
H1546 H 0.61473 0.9485 0.76109 0.0
H1547 H 0.57129 0.93698 0.82177 0.0
C1548 C 0.57787 0.93475 0.93781 0.0
C1549 C 0.58834 0.93582 0.98935 0.0
C1550 C 0.6063 0.94854 0.72377 0.0
C1551 C 0.59181 0.94177 0.83348 0.0
C1552 C 0.60792 0.9517 0.64631 0.0
C1553 C 0.59719 0.9517 0.5961 0.0
C1554 C 0.59387 0.94532 0.75158 0.0
C1555 C 0.5849 0.9486 0.62654 0.0
C1556 C 0.57955 0.93773 0.86016 0.0
C1557 C 0.60049 0.93969 0.96009 0.0
N1558 N 0.58358 0.94552 0.70213 0.0
N1559 N 0.60189 0.94253 0.88422 0.0
H1560 H 0.81284 0.13339 0.26933 0.0
H1561 H 0.7906 0.17246 0.63867 0.0
H1562 H 0.81883 0.17477 0.28923 0.0
H1563 H 0.80827 0.13463 0.66319 0.0
H1564 H 0.79665 0.17251 0.50218 0.0
H1565 H 0.80713 0.13259 0.40706 0.0
C1566 C 0.81298 0.14226 0.30291 0.0
C1567 C 0.81642 0.15413 0.26851 0.0
C1568 C 0.79916 0.16419 0.53745 0.0
C1569 C 0.80962 0.15337 0.42416 0.0
C1570 C 0.79564 0.16412 0.61494 0.0
C1571 C 0.79893 0.15351 0.66186 0.0
C1572 C 0.80574 0.15344 0.50619 0.0
C1573 C 0.80561 0.14299 0.62867 0.0
C1574 C 0.80977 0.14181 0.38109 0.0
C1575 C 0.81642 0.16541 0.31404 0.0
N1576 N 0.8087 0.14315 0.55251 0.0
N1577 N 0.81292 0.16478 0.3893 0.0
H1578 H 0.59524 0.08093 0.49225 0.0
H1579 H 0.59896 0.05435 0.0619 0.0
H1580 H 0.60063 0.04052 0.43145 0.0
H1581 H 0.58961 0.09426 0.11665 0.0
H1582 H 0.60147 0.04971 0.19759 0.0
H1583 H 0.59457 0.08648 0.35589 0.0
C1584 C 0.59621 0.0732 0.45041 0.0
C1585 C 0.59791 0.0602 0.47344 0.0
C1586 C 0.59895 0.05952 0.18018 0.0
C1587 C 0.59736 0.06654 0.31739 0.0
C1588 C 0.59764 0.06222 0.10235 0.0
C1589 C 0.59416 0.07476 0.07765 0.0
C1590 C 0.59671 0.0694 0.23421 0.0
C1591 C 0.59222 0.08445 0.13331 0.0
C1592 C 0.59591 0.07641 0.37253 0.0
C1593 C 0.59942 0.05067 0.41645 0.0
N1594 N 0.5935 0.08156 0.20919 0.0
N1595 N 0.59907 0.05403 0.34115 0.0
H1596 H 0.70349 0.84368 0.71025 0.0
H1597 H 0.67934 0.8338 0.14217 0.0
H1598 H 0.66485 0.8304 0.76876 0.0
H1599 H 0.71672 0.85 0.08134 0.0
H1600 H 0.67412 0.83167 0.00615 0.0
H1601 H 0.70857 0.84563 0.84586 0.0
C1602 C 0.69597 0.84135 0.75153 0.0
C1603 C 0.68363 0.83703 0.72784 0.0
C1604 C 0.68348 0.83566 0.0225 0.0
C1605 C 0.68955 0.83894 0.88413 0.0
C1606 C 0.68653 0.83676 0.10023 0.0
C1607 C 0.69855 0.84201 0.12313 0.0
C1608 C 0.69251 0.83981 0.96719 0.0
C1609 C 0.70733 0.84599 0.06611 0.0
C1610 C 0.69895 0.84235 0.82925 0.0
C1611 C 0.67448 0.83373 0.78445 0.0
N1612 N 0.70414 0.84479 0.99074 0.0
N1613 N 0.67763 0.83476 0.86009 0.0
H1614 H 0.90623 0.92942 0.93818 0.0
H1615 H 0.89918 0.95468 0.50607 0.0
H1616 H 0.89695 0.96905 0.87566 0.0
H1617 H 0.91355 0.91638 0.56275 0.0
H1618 H 0.89653 0.95933 0.64184 0.0
H1619 H 0.90761 0.92385 0.80207 0.0
C1620 C 0.90455 0.93698 0.89611 0.0
C1621 C 0.9015 0.94977 0.91875 0.0
C1622 C 0.90019 0.94986 0.62486 0.0
C1623 C 0.90288 0.94336 0.76265 0.0
C1624 C 0.90158 0.94714 0.54702 0.0
C1625 C 0.90648 0.93506 0.52278 0.0
C1626 C 0.90375 0.94046 0.67942 0.0
C1627 C 0.90979 0.92583 0.579 0.0
C1628 C 0.90527 0.93376 0.81828 0.0
C1629 C 0.89917 0.95905 0.86119 0.0
N1630 N 0.90837 0.92872 0.65485 0.0
N1631 N 0.89992 0.95567 0.78597 0.0
H1632 H 0.71392 0.63801 0.19097 0.0
H1633 H 0.6646 0.66542 0.87451 0.0
H1634 H 0.6774 0.65664 0.24612 0.0
H1635 H 0.69904 0.64296 0.82146 0.0
H1636 H 0.66897 0.66221 0.01095 0.0
H1637 H 0.70854 0.6397 0.05468 0.0
C1638 C 0.70476 0.64241 0.17451 0.0
C1639 C 0.69617 0.64726 0.23023 0.0
C1640 C 0.67553 0.65796 0.96921 0.0
C1641 C 0.68995 0.64931 0.0743 0.0
C1642 C 0.67308 0.65984 0.89113 0.0
C1643 C 0.68156 0.65466 0.83563 0.0
C1644 C 0.68657 0.65088 0.99214 0.0
C1645 C 0.69222 0.64724 0.86125 0.0
C1646 C 0.7017 0.6434 0.09668 0.0
C1647 C 0.68447 0.653 0.20543 0.0
N1648 N 0.69447 0.64567 0.93748 0.0
N1649 N 0.68172 0.65388 0.12933 0.0
H1650 H 0.60963 0.44914 0.07124 0.0
H1651 H 0.60455 0.42204 0.49997 0.0
H1652 H 0.60576 0.40833 0.12669 0.0
H1653 H 0.60674 0.4629 0.44287 0.0
H1654 H 0.60726 0.41669 0.36459 0.0
H1655 H 0.611 0.45412 0.20747 0.0
C1656 C 0.60926 0.44117 0.1118 0.0
C1657 C 0.60747 0.42827 0.08712 0.0
C1658 C 0.60722 0.42682 0.3817 0.0
C1659 C 0.60883 0.43399 0.24403 0.0
C1660 C 0.60574 0.4299 0.45923 0.0
C1661 C 0.60533 0.44297 0.48302 0.0
C1662 C 0.60829 0.43687 0.32738 0.0
C1663 C 0.60676 0.45271 0.42711 0.0
C1664 C 0.60995 0.44406 0.1899 0.0
C1665 C 0.6069 0.41842 0.14303 0.0
N1666 N 0.60812 0.44947 0.35189 0.0
N1667 N 0.6075 0.4215 0.21888 0.0
H1668 H 0.82971 0.33919 0.70229 0.0
H1669 H 0.8053 0.35141 0.27321 0.0
H1670 H 0.79066 0.35124 0.64405 0.0
H1671 H 0.84324 0.33595 0.32935 0.0
H1672 H 0.80076 0.35398 0.40915 0.0
H1673 H 0.83566 0.34036 0.567 0.0
C1674 C 0.82241 0.34223 0.66124 0.0
C1675 C 0.80964 0.3451 0.68463 0.0
C1676 C 0.81012 0.35009 0.39178 0.0
C1677 C 0.81637 0.34629 0.52922 0.0
C1678 C 0.81278 0.34869 0.31377 0.0
C1679 C 0.82465 0.34329 0.28926 0.0
C1680 C 0.81938 0.34609 0.44605 0.0
C1681 C 0.83387 0.33991 0.3454 0.0
C1682 C 0.82581 0.34282 0.58381 0.0
C1683 C 0.80056 0.34877 0.62845 0.0
N1684 N 0.83101 0.34128 0.42118 0.0
N1685 N 0.80409 0.34923 0.5533 0.0
H1686 H 0.92773 0.55343 0.90824 0.0
H1687 H 0.89374 0.56238 0.49742 0.0
H1688 H 0.88654 0.54832 0.86905 0.0
H1689 H 0.93448 0.56985 0.53963 0.0
H1690 H 0.89092 0.55712 0.63321 0.0
H1691 H 0.93044 0.55927 0.77315 0.0
C1692 C 0.91925 0.55356 0.8714 0.0
C1693 C 0.90688 0.5504 0.90049 0.0
C1694 C 0.90047 0.55997 0.61286 0.0
C1695 C 0.90993 0.557 0.74519 0.0
C1696 C 0.9021 0.56295 0.53519 0.0
C1697 C 0.91438 0.56654 0.50673 0.0
C1698 C 0.91121 0.56053 0.66272 0.0
C1699 C 0.9248 0.56728 0.55887 0.0
C1700 C 0.9208 0.55686 0.79411 0.0
C1701 C 0.89628 0.55052 0.8494 0.0
N1702 N 0.92299 0.56424 0.63415 0.0
N1703 N 0.89805 0.55379 0.77442 0.0
H1704 H 0.69878 0.32678 0.7252 0.0
H1705 H 0.68453 0.37007 0.09115 0.0
H1706 H 0.68787 0.367 0.69609 0.0
H1707 H 0.67133 0.33035 0.07434 0.0
H1708 H 0.68995 0.36963 0.95282 0.0
H1709 H 0.6931 0.32828 0.86174 0.0
C1710 C 0.69529 0.33595 0.74794 0.0
C1711 C 0.69378 0.34679 0.69979 0.0
C1712 C 0.68579 0.36107 0.97967 0.0
C1713 C 0.68743 0.34862 0.85546 0.0
C1714 C 0.68276 0.36131 0.05814 0.0
C1715 C 0.67738 0.35027 0.09348 0.0
C1716 C 0.68379 0.34959 0.93747 0.0
C1717 C 0.67529 0.3391 0.04879 0.0
C1718 C 0.69198 0.33678 0.82546 0.0
C1719 C 0.68909 0.35844 0.73166 0.0
N1720 N 0.67863 0.33899 0.97332 0.0
N1721 N 0.68618 0.3591 0.80795 0.0
H1722 H 0.92607 0.44942 0.04442 0.0
H1723 H 0.89353 0.43771 0.45664 0.0
H1724 H 0.88459 0.45065 0.08403 0.0
H1725 H 0.93477 0.43447 0.41242 0.0
H1726 H 0.88998 0.44251 0.32077 0.0
H1727 H 0.92939 0.44412 0.17959 0.0
C1728 C 0.91764 0.44854 0.08144 0.0
C1729 C 0.90502 0.45043 0.05248 0.0
C1730 C 0.8998 0.44068 0.34077 0.0
C1731 C 0.90876 0.44444 0.20793 0.0
C1732 C 0.90184 0.43797 0.41846 0.0
C1733 C 0.91448 0.4357 0.44633 0.0
C1734 C 0.91047 0.44118 0.29041 0.0
C1735 C 0.92484 0.436 0.3937 0.0
C1736 C 0.91955 0.44555 0.15878 0.0
C1737 C 0.8945 0.4494 0.10372 0.0
N1738 N 0.92262 0.43875 0.31848 0.0
N1739 N 0.89661 0.44645 0.17887 0.0
H1740 H 0.82159 0.66526 0.3425 0.0
H1741 H 0.79717 0.65635 0.77453 0.0
H1742 H 0.7839 0.64979 0.40327 0.0
H1743 H 0.83623 0.66825 0.71558 0.0
H1744 H 0.79202 0.65445 0.63895 0.0
H1745 H 0.82683 0.66735 0.47846 0.0
C1746 C 0.81433 0.66245 0.38442 0.0
C1747 C 0.80222 0.65743 0.36151 0.0
C1748 C 0.80175 0.65741 0.65548 0.0
C1749 C 0.80828 0.65958 0.51745 0.0
C1750 C 0.80476 0.65838 0.73317 0.0
C1751 C 0.81725 0.6623 0.75672 0.0
C1752 C 0.81125 0.66045 0.60049 0.0
C1753 C 0.82649 0.66524 0.7 0.0
C1754 C 0.8174 0.66353 0.46213 0.0
C1755 C 0.79336 0.65364 0.41853 0.0
N1756 N 0.82331 0.66425 0.62441 0.0
N1757 N 0.79656 0.6548 0.49392 0.0
H1758 H 0.57793 0.57003 0.53803 0.0
H1759 H 0.61102 0.56388 0.95265 0.0
H1760 H 0.61356 0.54896 0.58111 0.0
H1761 H 0.57496 0.58428 0.91038 0.0
H1762 H 0.61287 0.5595 0.81524 0.0
H1763 H 0.57744 0.57661 0.67285 0.0
C1764 C 0.58569 0.56686 0.5757 0.0
C1765 C 0.59575 0.55886 0.54825 0.0
C1766 C 0.60459 0.565 0.836 0.0
C1767 C 0.59521 0.56626 0.70282 0.0
C1768 C 0.6035 0.56746 0.91453 0.0
C1769 C 0.59277 0.57438 0.94334 0.0
C1770 C 0.59485 0.56946 0.78579 0.0
C1771 C 0.58345 0.579 0.89092 0.0
C1772 C 0.58539 0.57057 0.65275 0.0
C1773 C 0.60549 0.55492 0.5999 0.0
N1774 N 0.58467 0.57638 0.81479 0.0
N1775 N 0.60496 0.55864 0.6747 0.0
H1776 H 0.30291 0.32479 0.80745 0.0
H1777 H 0.31376 0.3575 0.2199 0.0
H1778 H 0.30075 0.36622 0.84724 0.0
H1779 H 0.31803 0.31637 0.1754 0.0
H1780 H 0.30889 0.36096 0.08406 0.0
H1781 H 0.30824 0.32156 0.94265 0.0
C1782 C 0.30359 0.33322 0.84452 0.0
C1783 C 0.30144 0.34581 0.81559 0.0
C1784 C 0.31096 0.35119 0.10398 0.0
C1785 C 0.30746 0.34217 0.97107 0.0
C1786 C 0.31371 0.3492 0.18166 0.0
C1787 C 0.31629 0.33661 0.20944 0.0
C1788 C 0.31074 0.34052 0.05355 0.0
C1789 C 0.31626 0.32625 0.15674 0.0
C1790 C 0.3066 0.33137 0.92187 0.0
C1791 C 0.3022 0.35634 0.8669 0.0
N1792 N 0.31347 0.32843 0.08153 0.0
N1793 N 0.30518 0.35429 0.94207 0.0
H1794 H 0.41579 0.56661 0.48717 0.0
H1795 H 0.38452 0.55919 0.90545 0.0
H1796 H 0.38097 0.54441 0.53336 0.0
H1797 H 0.42027 0.57988 0.85903 0.0
H1798 H 0.38213 0.55499 0.76817 0.0
H1799 H 0.4166 0.57298 0.62195 0.0
C1800 C 0.40825 0.56317 0.52551 0.0
C1801 C 0.39832 0.55493 0.49889 0.0
C1802 C 0.39046 0.56052 0.78803 0.0
C1803 C 0.39927 0.56207 0.65369 0.0
C1804 C 0.39186 0.56287 0.86648 0.0
C1805 C 0.40268 0.56981 0.89405 0.0
C1806 C 0.39994 0.56512 0.7367 0.0
C1807 C 0.41173 0.57458 0.84057 0.0
C1808 C 0.40875 0.56675 0.60262 0.0
C1809 C 0.38891 0.55061 0.55152 0.0
N1810 N 0.4102 0.57207 0.76455 0.0
N1811 N 0.38963 0.55421 0.62649 0.0
H1812 H 0.18167 0.68471 0.6944 0.0
H1813 H 0.20003 0.63381 0.36344 0.0
H1814 H 0.18752 0.64367 0.73545 0.0
H1815 H 0.19689 0.67529 0.3272 0.0
H1816 H 0.195 0.63708 0.49909 0.0
H1817 H 0.18617 0.68122 0.55846 0.0
C1818 C 0.18374 0.67493 0.67484 0.0
C1819 C 0.18421 0.66447 0.72676 0.0
C1820 C 0.19542 0.64547 0.46144 0.0
C1821 C 0.18961 0.66043 0.57081 0.0
C1822 C 0.19839 0.64362 0.38391 0.0
C1823 C 0.19887 0.65429 0.33343 0.0
C1824 C 0.19289 0.65808 0.48891 0.0
C1825 C 0.19645 0.66675 0.36351 0.0
C1826 C 0.18643 0.67296 0.59714 0.0
C1827 C 0.1872 0.65205 0.69786 0.0
N1828 N 0.19355 0.66829 0.43912 0.0
N1829 N 0.1898 0.65038 0.62191 0.0
H1830 H 0.10673 0.46741 0.11657 0.0
H1831 H 0.0799 0.4176 0.43402 0.0
H1832 H 0.0878 0.4311 0.06078 0.0
H1833 H 0.09794 0.4545 0.4861 0.0
H1834 H 0.08295 0.42205 0.29678 0.0
H1835 H 0.10401 0.4625 0.25293 0.0
C1836 C 0.10203 0.45839 0.13303 0.0
C1837 C 0.09744 0.4497 0.07716 0.0
C1838 C 0.0863 0.42913 0.33843 0.0
C1839 C 0.09422 0.444 0.23309 0.0
C1840 C 0.08453 0.42661 0.41664 0.0
C1841 C 0.08879 0.43562 0.47171 0.0
C1842 C 0.09232 0.44079 0.31531 0.0
C1843 C 0.09478 0.44712 0.44604 0.0
C1844 C 0.10043 0.4556 0.21085 0.0
C1845 C 0.09129 0.4382 0.10172 0.0
N1846 N 0.09635 0.44938 0.36986 0.0
N1847 N 0.08988 0.43568 0.17787 0.0
H1848 H 0.31851 0.66767 0.20809 0.0
H1849 H 0.31168 0.63573 0.7907 0.0
H1850 H 0.2955 0.63342 0.16113 0.0
H1851 H 0.3322 0.67165 0.83534 0.0
H1852 H 0.30699 0.63381 0.9276 0.0
H1853 H 0.325 0.66834 0.07324 0.0
C1854 C 0.31489 0.66023 0.16956 0.0
C1855 C 0.30642 0.65049 0.19607 0.0
C1856 C 0.31258 0.64208 0.90744 0.0
C1857 C 0.31372 0.65126 0.04122 0.0
C1858 C 0.31523 0.64321 0.82911 0.0
C1859 C 0.32227 0.65393 0.80096 0.0
C1860 C 0.31701 0.65172 0.95829 0.0
C1861 C 0.32683 0.66317 0.85407 0.0
C1862 C 0.31855 0.66066 0.09244 0.0
C1863 C 0.30189 0.64121 0.14317 0.0
N1864 N 0.32406 0.66188 0.93001 0.0
N1865 N 0.30559 0.64183 0.0683 0.0
H1866 H 0.08941 0.57045 0.94791 0.0
H1867 H 0.10754 0.55139 0.51727 0.0
H1868 H 0.11207 0.53659 0.88625 0.0
H1869 H 0.07953 0.58125 0.57449 0.0
H1870 H 0.11114 0.54753 0.65253 0.0
H1871 H 0.08717 0.57579 0.81235 0.0
C1872 C 0.09383 0.56404 0.90607 0.0
C1873 C 0.10085 0.55293 0.92881 0.0
C1874 C 0.10421 0.55494 0.63554 0.0
C1875 C 0.09852 0.55923 0.77309 0.0
C1876 C 0.10216 0.55724 0.55771 0.0
C1877 C 0.09301 0.56655 0.53332 0.0
C1878 C 0.09714 0.56205 0.69009 0.0
C1879 C 0.08647 0.57379 0.58997 0.0
C1880 C 0.09262 0.56719 0.82851 0.0
C1881 C 0.10665 0.54527 0.87154 0.0
N1882 N 0.08862 0.57134 0.66569 0.0
N1883 N 0.10534 0.54855 0.79635 0.0
H1884 H 0.20226 0.34677 0.27155 0.0
H1885 H 0.17764 0.33661 0.70208 0.0
H1886 H 0.16526 0.32932 0.3279 0.0
H1887 H 0.21369 0.35571 0.64239 0.0
H1888 H 0.17292 0.33371 0.56594 0.0
H1889 H 0.20645 0.35022 0.40718 0.0
C1890 C 0.19491 0.34384 0.31239 0.0
C1891 C 0.1833 0.33791 0.28815 0.0
C1892 C 0.18187 0.33853 0.58257 0.0
C1893 C 0.18819 0.34155 0.44447 0.0
C1894 C 0.18463 0.3401 0.66037 0.0
C1895 C 0.19616 0.34632 0.6836 0.0
C1896 C 0.19069 0.34319 0.52757 0.0
C1897 C 0.20468 0.35093 0.6269 0.0
C1898 C 0.19737 0.34571 0.39012 0.0
C1899 C 0.17434 0.3339 0.34416 0.0
N1900 N 0.20179 0.34924 0.55146 0.0
N1901 N 0.17697 0.3358 0.41988 0.0
H1902 H 0.40619 0.44449 0.00943 0.0
H1903 H 0.41841 0.42018 0.43883 0.0
H1904 H 0.41932 0.40573 0.06681 0.0
H1905 H 0.40607 0.45917 0.38117 0.0
H1906 H 0.41737 0.41431 0.30359 0.0
H1907 H 0.40447 0.44949 0.14532 0.0
C1908 C 0.40856 0.43694 0.0503 0.0
C1909 C 0.41301 0.42465 0.0261 0.0
C1910 C 0.41484 0.42414 0.32045 0.0
C1911 C 0.41122 0.43046 0.18281 0.0
C1912 C 0.41535 0.4275 0.39792 0.0
C1913 C 0.41229 0.44021 0.42164 0.0
C1914 C 0.41126 0.43355 0.26596 0.0
C1915 C 0.40865 0.44931 0.36545 0.0
C1916 C 0.40766 0.43986 0.12826 0.0
C1917 C 0.41606 0.41538 0.08257 0.0
N1918 N 0.40826 0.44581 0.29019 0.0
N1919 N 0.41517 0.41849 0.15826 0.0
H1920 H 0.25261 0.15395 0.45106 0.0
H1921 H 0.24566 0.14683 0.00192 0.0
H1922 H 0.28426 0.13999 0.31036 0.0
H1923 H 0.21266 0.14501 0.15504 0.0
H1924 H 0.26014 0.14427 0.11272 0.0
H1925 H 0.23776 0.15067 0.34315 0.0
C1926 C 0.25645 0.1501 0.39773 0.0
C1927 C 0.26981 0.14754 0.38933 0.0
C1928 C 0.2497 0.14424 0.12176 0.0
C1929 C 0.25286 0.14394 0.26511 0.0
C1930 C 0.24142 0.14572 0.05854 0.0
C1931 C 0.22787 0.14631 0.06899 0.0
C1932 C 0.2444 0.14357 0.19607 0.0
C1933 C 0.22298 0.14474 0.14383 0.0
C1934 C 0.24795 0.14822 0.33611 0.0
C1935 C 0.27415 0.14244 0.31893 0.0
N1936 N 0.23122 0.14366 0.20451 0.0
N1937 N 0.26575 0.14101 0.2591 0.0
H1938 H 0.11058 0.01288 0.72471 0.0
H1939 H 0.12185 0.98731 0.29859 0.0
H1940 H 0.10961 0.0395 0.53347 0.0
H1941 H 0.09622 0.96752 0.45657 0.0
H1942 H 0.12381 0.00531 0.39157 0.0
H1943 H 0.11206 0.99457 0.6336 0.0
C1944 C 0.11096 0.01485 0.66359 0.0
C1945 C 0.10994 0.02762 0.63603 0.0
C1946 C 0.1179 0.99691 0.40576 0.0
C1947 C 0.11179 0.00695 0.53252 0.0
C1948 C 0.1168 0.98666 0.35308 0.0
C1949 C 0.1089 0.97588 0.37006 0.0
C1950 C 0.11137 0.99614 0.47653 0.0
C1951 C 0.10247 0.97559 0.44131 0.0
C1952 C 0.11171 0.00446 0.61188 0.0
C1953 C 0.11029 0.02973 0.55644 0.0
N1954 N 0.10393 0.98551 0.49216 0.0
N1955 N 0.11124 0.01949 0.5072 0.0
H1956 H 0.26271 0.87197 0.59676 0.0
H1957 H 0.24604 0.84571 0.01729 0.0
H1958 H 0.2836 0.84115 0.71207 0.0
H1959 H 0.21629 0.8627 0.87329 0.0
H1960 H 0.26165 0.84825 0.91316 0.0
H1961 H 0.24695 0.87224 0.70364 0.0
C1962 C 0.26399 0.86528 0.64427 0.0
C1963 C 0.27448 0.85649 0.64522 0.0
C1964 C 0.25171 0.85149 0.90442 0.0
C1965 C 0.25675 0.85697 0.76762 0.0
C1966 C 0.24278 0.85012 0.96409 0.0
C1967 C 0.22974 0.85383 0.95386 0.0
C1968 C 0.24767 0.8567 0.83382 0.0
C1969 C 0.22619 0.85956 0.88346 0.0
C1970 C 0.25501 0.86545 0.70505 0.0
C1971 C 0.27566 0.84804 0.70828 0.0
N1972 N 0.2351 0.86077 0.82581 0.0
N1973 N 0.26699 0.84856 0.76693 0.0
H1974 H 0.38275 0.99223 0.26329 0.0
H1975 H 0.38674 0.03835 0.96485 0.0
H1976 H 0.39728 0.96522 0.09437 0.0
H1977 H 0.41156 0.00984 0.85646 0.0
H1978 H 0.38128 0.02245 0.06396 0.0
H1979 H 0.38394 0.00966 0.16732 0.0
C1980 C 0.38599 0.98994 0.20563 0.0
C1981 C 0.39017 0.97731 0.18718 0.0
C1982 C 0.38802 0.01967 0.01915 0.0
C1983 C 0.39143 0.9971 0.07642 0.0
C1984 C 0.3911 0.02877 0.96201 0.0
C1985 C 0.39979 0.02552 0.90264 0.0
C1986 C 0.39368 0.00721 0.01675 0.0
C1987 C 0.40491 0.01286 0.90127 0.0
C1988 C 0.38665 0.99989 0.15056 0.0
C1989 C 0.39436 0.97487 0.11187 0.0
N1990 N 0.40179 0.00421 0.9574 0.0
N1991 N 0.39498 0.98466 0.05969 0.0
H1992 H 0.78808 0.84838 0.75394 0.0
H1993 H 0.7149 0.85695 0.60611 0.0
H1994 H 0.75584 0.85535 0.90705 0.0
H1995 H 0.74605 0.84083 0.46956 0.0
H1996 H 0.73019 0.86011 0.71214 0.0
H1997 H 0.7733 0.84948 0.64486 0.0
C1998 C 0.77793 0.85046 0.76451 0.0
C1999 C 0.77325 0.85198 0.83968 0.0
C2000 C 0.73368 0.85596 0.65875 0.0
C2001 C 0.75609 0.85286 0.71478 0.0
C2002 C 0.72493 0.85411 0.59816 0.0
C2003 C 0.72909 0.8483 0.52928 0.0
C2004 C 0.74672 0.85217 0.64995 0.0
C2005 C 0.74234 0.84519 0.52177 0.0
C2006 C 0.76944 0.85092 0.70216 0.0
C2007 C 0.75987 0.85415 0.85 0.0
N2008 N 0.75065 0.84709 0.58145 0.0
N2009 N 0.75173 0.8545 0.78819 0.0
H2010 H 0.8913 0.03314 0.61491 0.0
H2011 H 0.88569 0.96513 0.3985 0.0
H2012 H 0.89441 0.99641 0.73449 0.0
H2013 H 0.90562 0.99826 0.30121 0.0
H2014 H 0.88175 0.97766 0.51564 0.0
H2015 H 0.88922 0.02134 0.49357 0.0
C2016 C 0.89141 0.0226 0.61596 0.0
C2017 C 0.89344 0.01576 0.68491 0.0
C2018 C 0.88684 0.98219 0.46811 0.0
C2019 C 0.89069 0.00228 0.54639 0.0
C2020 C 0.88919 0.97503 0.40139 0.0
C2021 C 0.89646 0.98045 0.34095 0.0
C2022 C 0.89141 0.99501 0.47333 0.0
C2023 C 0.90021 0.99357 0.34685 0.0
C2024 C 0.8902 0.0159 0.54663 0.0
C2025 C 0.8931 0.00209 0.68268 0.0
N2026 N 0.89771 1.00039 0.41217 0.0
N2027 N 0.89187 0.99578 0.61432 0.0
H2028 H 0.73502 0.1677 0.39473 0.0
H2029 H 0.75741 0.13091 0.01071 0.0
H2030 H 0.70876 0.14386 0.26157 0.0
H2031 H 0.78211 0.15532 0.15051 0.0
H2032 H 0.73967 0.13418 0.10381 0.0
H2033 H 0.75259 0.16194 0.30789 0.0
C2034 C 0.73293 0.16121 0.34724 0.0
C2035 C 0.72034 0.15634 0.33526 0.0
C2036 C 0.74901 0.13876 0.11397 0.0
C2037 C 0.74055 0.1497 0.23457 0.0
C2038 C 0.75914 0.13687 0.06102 0.0
C2039 C 0.77123 0.14298 0.07224 0.0
C2040 C 0.75107 0.14674 0.17856 0.0
C2041 C 0.77293 0.15058 0.1385 0.0
C2042 C 0.74301 0.15791 0.29747 0.0
C2043 C 0.7183 0.14789 0.27282 0.0
N2044 N 0.76299 0.15226 0.1887 0.0
N2045 N 0.7283 0.14489 0.22444 0.0
H2046 H 0.58789 0.01122 0.81795 0.0
H2047 H 0.60305 0.99892 0.25776 0.0
H2048 H 0.60666 0.04026 0.95873 0.0
H2049 H 0.59797 0.96777 0.09417 0.0
H2050 H 0.60432 0.01442 0.15077 0.0
H2051 H 0.59144 0.99518 0.91931 0.0
C2052 C 0.59283 0.01423 0.86999 0.0
C2053 C 0.59677 0.0272 0.88032 0.0
C2054 C 0.60315 0.00415 0.13842 0.0
C2055 C 0.60073 0.00888 0.99717 0.0
C2056 C 0.60241 0.9953 0.19941 0.0
C2057 C 0.60044 0.982 0.18503 0.0
C2058 C 0.60167 0.99967 0.06265 0.0
C2059 C 0.59965 0.97787 0.10825 0.0
C2060 C 0.59487 0.00505 0.92784 0.0
C2061 C 0.60324 0.03046 0.94881 0.0
N2062 N 0.60009 0.98668 0.0501 0.0
N2063 N 0.60484 0.02142 0.00516 0.0
H2064 H 0.75477 0.66 0.01709 0.0
H2065 H 0.7456 0.64458 0.57218 0.0
H2066 H 0.78543 0.64347 0.87842 0.0
H2067 H 0.71366 0.65122 0.72795 0.0
H2068 H 0.76051 0.64401 0.68246 0.0
H2069 H 0.73952 0.65643 0.91175 0.0
C2070 C 0.75831 0.65555 0.96471 0.0
C2071 C 0.77151 0.6523 0.95621 0.0
C2072 C 0.75019 0.64537 0.69249 0.0
C2073 C 0.75408 0.64832 0.83461 0.0
C2074 C 0.74169 0.64572 0.62961 0.0
C2075 C 0.72832 0.64778 0.641 0.0
C2076 C 0.74529 0.64732 0.76706 0.0
C2077 C 0.7238 0.64929 0.71658 0.0
C2078 C 0.74958 0.65352 0.90443 0.0
C2079 C 0.77546 0.64645 0.88701 0.0
N2080 N 0.73226 0.64914 0.77653 0.0
N2081 N 0.76682 0.6448 0.8285 0.0
H2082 H 0.62256 0.48779 0.82373 0.0
H2083 H 0.58562 0.50935 0.209 0.0
H2084 H 0.59877 0.46257 0.96396 0.0
H2085 H 0.60838 0.53625 0.07356 0.0
H2086 H 0.59168 0.49192 0.12187 0.0
H2087 H 0.61878 0.50551 0.91625 0.0
C2088 C 0.6166 0.48596 0.87391 0.0
C2089 C 0.61083 0.47371 0.88551 0.0
C2090 C 0.5954 0.50161 0.111 0.0
C2091 C 0.60653 0.49384 0.99127 0.0
C2092 C 0.59194 0.51161 0.16095 0.0
C2093 C 0.59641 0.52433 0.14841 0.0
C2094 C 0.60339 0.50428 0.04738 0.0
C2095 C 0.60465 0.5266 0.08526 0.0
C2096 C 0.61443 0.49607 0.92657 0.0
C2097 C 0.60323 0.47187 0.95165 0.0
N2098 N 0.60782 0.51667 0.03674 0.0
N2099 N 0.60129 0.4818 0.00164 0.0
H2100 H 0.71418 0.35258 0.20997 0.0
H2101 H 0.78943 0.34765 0.17441 0.0
H2102 H 0.73785 0.36433 0.40278 0.0
H2103 H 0.76815 0.36744 0.99539 0.0
H2104 H 0.77027 0.34919 0.25788 0.0
H2105 H 0.73352 0.35341 0.12749 0.0
C2106 C 0.72342 0.35537 0.23497 0.0
C2107 C 0.72439 0.35852 0.31328 0.0
C2108 C 0.76987 0.35327 0.20051 0.0
C2109 C 0.7465 0.35908 0.21974 0.0
C2110 C 0.78076 0.35241 0.15292 0.0
C2111 C 0.78042 0.35758 0.07827 0.0
C2112 C 0.7584 0.35888 0.17222 0.0
C2113 C 0.76885 0.36346 0.05285 0.0
C2114 C 0.7344 0.35587 0.1878 0.0
C2115 C 0.73666 0.36194 0.34261 0.0
N2116 N 0.7582 0.36378 0.09942 0.0
N2117 N 0.7473 0.36195 0.29601 0.0
H2118 H 0.90026 0.49834 0.7031 0.0
H2119 H 0.90438 0.5029 0.25228 0.0
H2120 H 0.89453 0.46488 0.55706 0.0
H2121 H 0.89416 0.53604 0.39226 0.0
H2122 H 0.90053 0.48871 0.36269 0.0
H2123 H 0.8977 0.51245 0.59087 0.0
C2124 C 0.8983 0.49393 0.64777 0.0
C2125 C 0.8979 0.48033 0.63953 0.0
C2126 C 0.899 0.49909 0.36894 0.0
C2127 C 0.89515 0.49644 0.51062 0.0
C2128 C 0.90121 0.50721 0.30589 0.0
C2129 C 0.89991 0.52077 0.31322 0.0
C2130 C 0.89564 0.50456 0.44021 0.0
C2131 C 0.89564 0.52574 0.38413 0.0
C2132 C 0.89684 0.502 0.58367 0.0
C2133 C 0.89522 0.47523 0.56628 0.0
N2134 N 0.89388 0.51767 0.4452 0.0
N2135 N 0.89418 0.48326 0.50451 0.0
H2136 H 0.28648 0.35502 0.31906 0.0
H2137 H 0.21303 0.35871 0.17008 0.0
H2138 H 0.25337 0.35065 0.46955 0.0
H2139 H 0.24541 0.34722 0.02746 0.0
H2140 H 0.22797 0.36131 0.27853 0.0
H2141 H 0.27174 0.35785 0.21076 0.0
C2142 C 0.27614 0.3548 0.3298 0.0
C2143 C 0.27123 0.35233 0.40371 0.0
C2144 C 0.23179 0.35833 0.22324 0.0
C2145 C 0.25422 0.35573 0.27937 0.0
C2146 C 0.22326 0.35678 0.16134 0.0
C2147 C 0.22787 0.35233 0.09003 0.0
C2148 C 0.24509 0.35571 0.21329 0.0
C2149 C 0.24135 0.35047 0.08155 0.0
C2150 C 0.26771 0.3564 0.26765 0.0
C2151 C 0.25764 0.35236 0.41357 0.0
N2152 N 0.24946 0.35208 0.14254 0.0
N2153 N 0.24961 0.35394 0.35204 0.0
H2154 H 0.41411 0.45927 0.90601 0.0
H2155 H 0.39024 0.53071 0.02092 0.0
H2156 H 0.38524 0.47991 0.77314 0.0
H2157 H 0.41385 0.50584 0.16456 0.0
H2158 H 0.38798 0.51272 0.92877 0.0
H2159 H 0.414 0.47669 -0.00022 0.0
C2160 C 0.40774 0.4675 0.8963 0.0
C2161 C 0.39973 0.46812 0.8311 0.0
C2162 C 0.39356 0.51121 0.9808 0.0
C2163 C 0.39956 0.48834 0.93932 0.0
C2164 C 0.39486 0.52147 0.03345 0.0
C2165 C 0.40233 0.51983 0.10047 0.0
C2166 C 0.39983 0.49929 0.99528 0.0
C2167 C 0.40807 0.50763 0.11364 0.0
C2168 C 0.40764 0.47747 0.95035 0.0
C2169 C 0.39158 0.47902 0.82256 0.0
N2170 N 0.40675 0.4979 0.06148 0.0
N2171 N 0.39176 0.48878 0.87584 0.0
H2172 H 0.24655 0.64687 0.99696 0.0
H2173 H 0.28647 0.63832 0.676 0.0
H2174 H 0.2156 0.65219 0.83236 0.0
H2175 H 0.25785 0.66269 0.56484 0.0
H2176 H 0.27154 0.63531 0.78377 0.0
H2177 H 0.262 0.64476 0.89077 0.0
C2178 C 0.24295 0.64731 0.9385 0.0
C2179 C 0.22971 0.64963 0.92374 0.0
C2180 C 0.26857 0.64139 0.73609 0.0
C2181 C 0.24734 0.64719 0.80164 0.0
C2182 C 0.27708 0.64308 0.6742 0.0
C2183 C 0.27358 0.65106 0.61194 0.0
C2184 C 0.2564 0.64765 0.73541 0.0
C2185 C 0.26108 0.65661 0.61196 0.0
C2186 C 0.25177 0.64601 0.87778 0.0
C2187 C 0.22563 0.65023 0.84678 0.0
N2188 N 0.25297 0.65483 0.67281 0.0
N2189 N 0.23443 0.64922 0.78877 0.0
H2190 H 0.10312 0.50287 0.27626 0.0
H2191 H 0.09983 0.49804 0.72645 0.0
H2192 H 0.11015 0.53614 0.4213 0.0
H2193 H 0.11072 0.46499 0.58765 0.0
H2194 H 0.10348 0.51224 0.61587 0.0
H2195 H 0.10576 0.48865 0.38818 0.0
C2196 C 0.10537 0.50721 0.3314 0.0
C2197 C 0.10615 0.5208 0.33965 0.0
C2198 C 0.10519 0.50188 0.60982 0.0
C2199 C 0.10897 0.50458 0.46815 0.0
C2200 C 0.1031 0.49374 0.673 0.0
C2201 C 0.10462 0.4802 0.66597 0.0
C2202 C 0.10862 0.49643 0.53862 0.0
C2203 C 0.10902 0.47528 0.59525 0.0
C2204 C 0.10688 0.49907 0.39528 0.0
C2205 C 0.10919 0.5258 0.41255 0.0
N2206 N 0.11062 0.48334 0.53391 0.0
N2207 N 0.11025 0.51774 0.4742 0.0
H2208 H 0.14496 0.14462 0.95793 0.0
H2209 H 0.1309 0.0757 0.76283 0.0
H2210 H 0.17634 0.11849 0.90005 0.0
H2211 H 0.10208 0.10009 0.87212 0.0
H2212 H 0.14804 0.09048 0.81101 0.0
H2213 H 0.12936 0.12773 0.92606 0.0
C2214 C 0.14856 0.13523 0.93908 0.0
C2215 C 0.16193 0.13294 0.93153 0.0
C2216 C 0.13795 0.09247 0.82466 0.0
C2217 C 0.14404 0.11346 0.89325 0.0
C2218 C 0.12819 0.08407 0.79708 0.0
C2219 C 0.11502 0.08675 0.81252 0.0
C2220 C 0.13443 0.10354 0.86761 0.0
C2221 C 0.11205 0.09768 0.85759 0.0
C2222 C 0.13964 0.12555 0.92081 0.0
C2223 C 0.16607 0.12057 0.90707 0.0
N2224 N 0.12162 0.10564 0.88295 0.0
N2225 N 0.15713 0.11129 0.88774 0.0
H2226 H 0.14613 0.85575 0.08621 0.0
H2227 H 0.13095 0.92916 0.2154 0.0
H2228 H 0.17662 0.88456 0.09923 0.0
H2229 H 0.10356 0.89726 0.21433 0.0
H2230 H 0.148 0.91404 0.16963 0.0
H2231 H 0.13042 0.872 0.12531 0.0
C2232 C 0.14952 0.86558 0.09694 0.0
C2233 C 0.16272 0.86877 0.0899 0.0
C2234 C 0.13824 0.91042 0.17975 0.0
C2235 C 0.14465 0.88762 0.13632 0.0
C2236 C 0.12855 0.919 0.20623 0.0
C2237 C 0.11579 0.91448 0.21851 0.0
C2238 C 0.13506 0.8973 0.16559 0.0
C2239 C 0.1132 0.90126 0.20531 0.0
C2240 C 0.14052 0.87489 0.11962 0.0
C2241 C 0.1665 0.88172 0.10382 0.0
N2242 N 0.12269 0.89323 0.17956 0.0
N2243 N 0.1575 0.8907 0.1271 0.0
H2244 H 0.3185 0.88277 0.42146 0.0
H2245 H 0.38808 0.91568 0.49011 0.0
H2246 H 0.34749 0.86991 0.58352 0.0
H2247 H 0.3645 0.92481 0.29239 0.0
H2248 H 0.37029 0.90291 0.5428 0.0
H2249 H 0.33232 0.90176 0.39045 0.0
C2250 C 0.32757 0.88419 0.45209 0.0
C2251 C 0.33193 0.87485 0.50506 0.0
C2252 C 0.36888 0.90776 0.48818 0.0
C2253 C 0.34767 0.89627 0.46999 0.0
C2254 C 0.37905 0.91508 0.4581 0.0
C2255 C 0.3778 0.92111 0.38631 0.0
C2256 C 0.35738 0.90619 0.44559 0.0
C2257 C 0.36582 0.92022 0.34784 0.0
C2258 C 0.33548 0.89492 0.43397 0.0
C2259 C 0.34382 0.87691 0.54226 0.0
N2260 N 0.35609 0.91264 0.37734 0.0
N2261 N 0.35128 0.88733 0.5238 0.0
H2262 H 0.37297 0.07038 0.64672 0.0
H2263 H 0.3465 0.12231 0.43963 0.0
H2264 H 0.36761 0.09931 0.8233 0.0
H2265 H 0.31813 0.12386 0.62193 0.0
H2266 H 0.35774 0.10461 0.50787 0.0
H2267 H 0.35612 0.08128 0.56904 0.0
C2268 C 0.36786 0.07871 0.67031 0.0
C2269 C 0.37154 0.08397 0.74146 0.0
C2270 C 0.34883 0.10857 0.53161 0.0
C2271 C 0.35249 0.09634 0.65367 0.0
C2272 C 0.34246 0.11864 0.49291 0.0
C2273 C 0.33133 0.12436 0.52495 0.0
C2274 C 0.34429 0.1046 0.60404 0.0
C2275 C 0.32658 0.1195 0.59493 0.0
C2276 C 0.3584 0.08496 0.62579 0.0
C2277 C 0.36494 0.09497 0.76884 0.0
N2278 N 0.33331 0.11013 0.63341 0.0
N2279 N 0.35571 0.10083 0.72477 0.0
H2280 H 0.84434 0.88396 0.88034 0.0
H2281 H 0.87328 0.93489 0.0889 0.0
H2282 H 0.82361 0.87648 0.09094 0.0
H2283 H 0.87531 0.90327 0.25149 0.0
H2284 H 0.85569 0.92335 0.02082 0.0
H2285 H 0.85623 0.90168 0.94478 0.0
C2286 C 0.84199 0.8864 0.93932 0.0
C2287 C 0.83287 0.87903 0.98032 0.0
C2288 C 0.85983 0.91913 0.07236 0.0
C2289 C 0.84666 0.89871 0.05464 0.0
C2290 C 0.86974 0.92571 0.11149 0.0
C2291 C 0.87567 0.91996 0.1757 0.0
C2292 C 0.85573 0.9069 0.09903 0.0
C2293 C 0.87095 0.90797 0.20208 0.0
C2294 C 0.84875 0.89645 0.97597 0.0
C2295 C 0.83042 0.88219 0.05733 0.0
N2296 N 0.86121 0.90182 0.16365 0.0
N2297 N 0.83754 0.89158 0.09276 0.0
H2298 H 0.82357 0.11363 0.02521 0.0
H2299 H 0.87027 0.07237 0.74836 0.0
H2300 H 0.83418 0.12597 0.79692 0.0
H2301 H 0.87563 0.07463 0.99376 0.0
H2302 H 0.85116 0.08672 0.76015 0.0
H2303 H 0.83688 0.09386 0.00755 0.0
C2304 C 0.8284 0.11197 0.97073 0.0
C2305 C 0.82793 0.12138 0.91256 0.0
C2306 C 0.8564 0.08383 0.81142 0.0
C2307 C 0.8429 0.09898 0.89183 0.0
C2308 C 0.86723 0.07564 0.80478 0.0
C2309 C 0.87456 0.07249 0.87012 0.0
C2310 C 0.85279 0.08861 0.88402 0.0
C2311 C 0.8703 0.077 0.94193 0.0
C2312 C 0.83602 0.10078 0.96086 0.0
C2313 C 0.83444 0.11893 0.84325 0.0
N2314 N 0.85971 0.08489 0.94701 0.0
N2315 N 0.84171 0.10798 0.83482 0.0
H2316 H 0.67786 0.12744 0.57731 0.0
H2317 H 0.6307 0.1006 0.81569 0.0
H2318 H 0.64613 0.12171 0.41869 0.0
H2319 H 0.6237 0.07357 0.63096 0.0
H2320 H 0.64761 0.11115 0.73779 0.0
H2321 H 0.66865 0.11037 0.66045 0.0
C2322 C 0.66924 0.12224 0.55866 0.0
C2323 C 0.6627 0.12591 0.49127 0.0
C2324 C 0.64271 0.10261 0.71545 0.0
C2325 C 0.65221 0.10659 0.58543 0.0
C2326 C 0.63309 0.09662 0.75979 0.0
C2327 C 0.62601 0.08613 0.72989 0.0
C2328 C 0.64485 0.09837 0.63977 0.0
C2329 C 0.62916 0.08151 0.65634 0.0
C2330 C 0.66395 0.11263 0.60636 0.0
C2331 C 0.65142 0.11911 0.4703 0.0
N2332 N 0.63809 0.08792 0.61271 0.0
N2333 N 0.64649 0.10978 0.51742 0.0
H2334 H 0.62745 0.92193 0.21729 0.0
H2335 H 0.67187 0.87686 0.48656 0.0
H2336 H 0.62073 0.91703 0.46018 0.0
H2337 H 0.66388 0.86795 0.24899 0.0
H2338 H 0.6582 0.89644 0.47503 0.0
H2339 H 0.64603 0.90684 0.2266 0.0
C2340 C 0.63007 0.91789 0.27271 0.0
C2341 C 0.62252 0.92055 0.33791 0.0
C2342 C 0.65963 0.89027 0.42526 0.0
C2343 C 0.64367 0.90357 0.3491 0.0
C2344 C 0.66744 0.87916 0.43173 0.0
C2345 C 0.66882 0.87073 0.36891 0.0
C2346 C 0.65344 0.89304 0.35512 0.0
C2347 C 0.66287 0.87412 0.29909 0.0
C2348 C 0.64059 0.90927 0.27792 0.0
C2349 C 0.62624 0.91506 0.40841 0.0
N2350 N 0.6554 0.885 0.29407 0.0
N2351 N 0.63654 0.9068 0.41216 0.0
H2352 H 0.62405 0.56894 0.38962 0.0
H2353 H 0.65323 0.61901 0.59995 0.0
H2354 H 0.62872 0.59897 0.21878 0.0
H2355 H 0.6799 0.62147 0.40936 0.0
H2356 H 0.64136 0.60166 0.53241 0.0
H2357 H 0.64175 0.57888 0.46504 0.0
C2358 C 0.62915 0.57733 0.36672 0.0
C2359 C 0.62504 0.58318 0.29801 0.0
C2360 C 0.65008 0.60569 0.50668 0.0
C2361 C 0.6451 0.59444 0.3831 0.0
C2362 C 0.65682 0.61556 0.54507 0.0
C2363 C 0.66762 0.62146 0.51044 0.0
C2364 C 0.6539 0.60215 0.43209 0.0
C2365 C 0.67174 0.61694 0.43837 0.0
C2366 C 0.63911 0.58303 0.40996 0.0
C2367 C 0.63169 0.5942 0.27144 0.0
N2368 N 0.66463 0.6078 0.40037 0.0
N2369 N 0.64142 0.59951 0.31415 0.0
H2370 H 0.68631 0.37959 0.54882 0.0
H2371 H 0.63421 0.43522 0.63824 0.0
H2372 H 0.65615 0.39102 0.3902 0.0
H2373 H 0.64442 0.40513 0.80022 0.0
H2374 H 0.65012 0.42618 0.54733 0.0
H2375 H 0.67857 0.39625 0.63933 0.0
C2376 C 0.6784 0.38595 0.53178 0.0
C2377 C 0.67175 0.3839 0.4624 0.0
C2378 C 0.64918 0.42188 0.60392 0.0
C2379 C 0.66308 0.40298 0.5645 0.0
C2380 C 0.64019 0.42706 0.65594 0.0
C2381 C 0.63795 0.42079 0.7264 0.0
C2382 C 0.65617 0.41062 0.62367 0.0
C2383 C 0.64584 0.41017 0.7462 0.0
C2384 C 0.67397 0.39538 0.58353 0.0
C2385 C 0.66147 0.39229 0.4434 0.0
N2386 N 0.65454 0.40532 0.69475 0.0
N2387 N 0.65737 0.40142 0.49448 0.0
H2388 H 0.9001 0.39784 0.78879 0.0
H2389 H 0.82698 0.38197 0.91866 0.0
H2390 H 0.87093 0.42806 0.79676 0.0
H2391 H 0.86022 0.35665 0.94601 0.0
H2392 H 0.84166 0.39899 0.86753 0.0
H2393 H 0.88417 0.38227 0.83414 0.0
C2394 C 0.89026 0.40119 0.7997 0.0
C2395 C 0.88687 0.41428 0.78956 0.0
C2396 C 0.84567 0.3897 0.88526 0.0
C2397 C 0.86843 0.39641 0.84324 0.0
C2398 C 0.83733 0.38005 0.91482 0.0
C2399 C 0.84238 0.36785 0.93611 0.0
C2400 C 0.85903 0.38701 0.87702 0.0
C2401 C 0.85583 0.36583 0.9296 0.0
C2402 C 0.88114 0.39228 0.82606 0.0
C2403 C 0.87391 0.41802 0.8038 0.0
N2404 N 0.86361 0.37523 0.90045 0.0
N2405 N 0.86513 0.40912 0.83064 0.0
H2406 H 0.87496 0.57915 0.26856 0.0
H2407 H 0.83041 0.62322 0.99427 0.0
H2408 H 0.88373 0.58608 0.02964 0.0
H2409 H 0.83565 0.63104 0.23574 0.0
H2410 H 0.84514 0.6044 0.00633 0.0
H2411 H 0.85566 0.59321 0.25609 0.0
C2412 C 0.8727 0.58345 0.21331 0.0
C2413 C 0.881 0.58164 0.1503 0.0
C2414 C 0.84285 0.61014 0.05679 0.0
C2415 C 0.85899 0.59743 0.1354 0.0
C2416 C 0.83443 0.62078 0.05003 0.0
C2417 C 0.83198 0.62871 0.11396 0.0
C2418 C 0.84859 0.60731 0.12824 0.0
C2419 C 0.83746 0.62523 0.18492 0.0
C2420 C 0.86175 0.59147 0.2063 0.0
C2421 C 0.87766 0.58742 0.0799 0.0
N2422 N 0.84555 0.6148 0.19018 0.0
N2423 N 0.86693 0.59508 0.07433 0.0
H2424 H 0.35398 0.3522 0.51348 0.0
H2425 H 0.37208 0.42208 0.68918 0.0
H2426 H 0.32416 0.38005 0.57192 0.0
H2427 H 0.39926 0.39176 0.62698 0.0
H2428 H 0.35414 0.40819 0.64148 0.0
H2429 H 0.37051 0.36807 0.54605 0.0
C2430 C 0.35093 0.36176 0.53266 0.0
C2431 C 0.33772 0.3648 0.54039 0.0
C2432 C 0.36407 0.40468 0.63831 0.0
C2433 C 0.35671 0.38314 0.57992 0.0
C2434 C 0.37428 0.41256 0.6657 0.0
C2435 C 0.38721 0.40806 0.66261 0.0
C2436 C 0.36691 0.39231 0.60754 0.0
C2437 C 0.38951 0.39569 0.63123 0.0
C2438 C 0.36039 0.37086 0.55158 0.0
C2439 C 0.3343 0.37739 0.56494 0.0
N2440 N 0.37952 0.38834 0.60522 0.0
N2441 N 0.34377 0.3861 0.58489 0.0
H2442 H 0.36518 0.59184 0.14807 0.0
H2443 H 0.34574 0.61709 0.54081 0.0
H2444 H 0.37231 0.5675 0.34518 0.0
H2445 H 0.31854 0.62198 0.35458 0.0
H2446 H 0.3557 0.59878 0.47177 0.0
H2447 H 0.34781 0.60298 0.21946 0.0
C2448 C 0.36272 0.58854 0.20541 0.0
C2449 C 0.36995 0.57865 0.24065 0.0
C2450 C 0.3473 0.60361 0.44705 0.0
C2451 C 0.35071 0.5917 0.32359 0.0
C2452 C 0.34164 0.61401 0.48641 0.0
C2453 C 0.33125 0.62086 0.45352 0.0
C2454 C 0.34289 0.60045 0.37297 0.0
C2455 C 0.32642 0.61675 0.38213 0.0
C2456 C 0.35287 0.59491 0.24617 0.0
C2457 C 0.36673 0.57494 0.31582 0.0
N2458 N 0.33251 0.607 0.34312 0.0
N2459 N 0.35756 0.58171 0.35568 0.0
H2460 H 0.13497 0.57392 0.20277 0.0
H2461 H 0.14651 0.64677 0.05139 0.0
H2462 H 0.10484 0.60208 0.15456 0.0
H2463 H 0.17837 0.61975 0.078 0.0
H2464 H 0.13137 0.62977 0.08806 0.0
H2465 H 0.15136 0.58993 0.15959 0.0
C2466 C 0.13182 0.58345 0.18376 0.0
C2467 C 0.11851 0.58666 0.18239 0.0
C2468 C 0.14164 0.62743 0.08567 0.0
C2469 C 0.13707 0.60485 0.13246 0.0
C2470 C 0.15032 0.63717 0.06447 0.0
C2471 C 0.16371 0.63468 0.0618 0.0
C2472 C 0.14633 0.61502 0.10544 0.0
C2473 C 0.16807 0.62203 0.07895 0.0
C2474 C 0.14115 0.59253 0.15867 0.0
C2475 C 0.11495 0.5991 0.15661 0.0
N2476 N 0.15939 0.61265 0.10083 0.0
N2477 N 0.12413 0.60766 0.13283 0.0
H2478 H 0.17713 0.38208 0.95652 0.0
H2479 H 0.13276 0.42821 0.80355 0.0
H2480 H 0.14554 0.35499 0.92214 0.0
H2481 H 0.10401 0.3987 0.8524 0.0
H2482 H 0.14991 0.41292 0.84318 0.0
H2483 H 0.16259 0.39994 0.91808 0.0
C2484 C 0.16714 0.37991 0.94115 0.0
C2485 C 0.16256 0.36702 0.94232 0.0
C2486 C 0.13985 0.40984 0.84605 0.0
C2487 C 0.14595 0.38728 0.89662 0.0
C2488 C 0.13007 0.41853 0.82247 0.0
C2489 C 0.11693 0.41474 0.82476 0.0
C2490 C 0.13639 0.3973 0.87181 0.0
C2491 C 0.11398 0.4021 0.8499 0.0
C2492 C 0.15888 0.39009 0.9182 0.0
C2493 C 0.14955 0.36474 0.92171 0.0
N2494 N 0.1236 0.39389 0.8721 0.0
N2495 N 0.14176 0.37473 0.89998 0.0
loop_
_geom_bond_atom_site_label_1
_geom_bond_atom_site_label_2
_geom_bond_distance
_geom_bond_site_symmetry_2
_ccdc_geom_bond_type
C0 C1 1.351 . S
C0 N3 1.368 . S
C0 H5 0.931 . S
C1 C0 1.351 . S
C1 N2 1.373 . S
C1 H29 0.930 . S
N2 C1 1.373 . S
N2 C4 1.340 . S
N3 C0 1.368 . S
N3 C4 1.321 . S
N3 Co6 2.135 . S
C4 N2 1.340 . S
C4 N3 1.321 . S
C4 H28 0.930 . S
H5 C0 0.931 . S
Co6 N3 2.135 . S
Co6 N9 2.121 1_554 S
Co6 O14 2.055 . S
Co6 O17 2.039 . S
Co6 N20 2.140 . S
C7 O8 1.227 . S
C7 O17 1.265 . S
O8 C7 1.227 . S
N9 Co6 2.121 1_556 S
N9 C11 1.375 . S
N9 C12 1.313 . S
C10 C11 1.338 . S
C10 N13 1.377 . S
C10 H30 0.930 . S
C11 N9 1.375 . S
C11 C10 1.338 . S
C11 H15 0.931 . S
C12 N9 1.313 . S
C12 N13 1.344 . S
C12 H16 0.930 . S
N13 C10 1.377 . S
N13 C12 1.344 . S
O14 Co6 2.055 . S
O14 C18 1.253 . S
H15 C11 0.931 . S
H16 C12 0.930 . S
O17 Co6 2.039 . S
O17 C7 1.265 . S
C18 O14 1.253 . S
C18 O19 1.227 . S
O19 C18 1.227 . S
N20 Co6 2.140 . S
N20 C23 1.346 . S
N20 C24 1.345 . S
C21 C22 1.387 . S
C21 C25 1.391 . S
C22 C21 1.387 . S
C22 C23 1.369 . S
C22 H31 0.929 . S
C23 N20 1.346 . S
C23 C22 1.369 . S
C23 H26 0.928 . S
C24 N20 1.345 . S
C24 C25 1.371 . S
C24 H27 0.931 1_554 S
C25 C21 1.391 . S
C25 C24 1.371 . S
C25 H32 0.930 1_554 S
H26 C23 0.928 . S
H27 C24 0.931 1_556 S
H28 C4 0.930 . S
H29 C1 0.930 . S
H30 C10 0.930 . S
H31 C22 0.929 . S
H32 C25 0.930 1_556 S
C33 C34 1.351 . S
C33 N36 1.368 . S
C33 H38 0.931 . S
C34 C33 1.351 . S
C34 N35 1.373 . S
C34 H62 0.930 . S
N35 C34 1.373 . S
N35 C37 1.340 . S
N36 C33 1.368 . S
N36 C37 1.321 . S
N36 Co39 2.135 . S
C37 N35 1.340 . S
C37 N36 1.321 . S
C37 H61 0.930 . S
H38 C33 0.931 . S
Co39 N36 2.135 . S
Co39 N42 2.121 . S
Co39 O47 2.055 . S
Co39 O50 2.039 . S
Co39 N53 2.140 . S
C40 O41 1.227 . S
C40 O50 1.265 . S
O41 C40 1.227 . S
N42 Co39 2.121 . S
N42 C44 1.375 . S
N42 C45 1.313 . S
C43 C44 1.338 . S
C43 N46 1.377 . S
C43 H63 0.930 . S
C44 N42 1.375 . S
C44 C43 1.338 . S
C44 H48 0.931 . S
C45 N42 1.313 . S
C45 N46 1.344 . S
C45 H49 0.930 . S
N46 C43 1.377 . S
N46 C45 1.344 . S
O47 Co39 2.055 . S
O47 C51 1.253 . S
H48 C44 0.931 . S
H49 C45 0.930 . S
O50 Co39 2.039 . S
O50 C40 1.265 . S
C51 O47 1.253 . S
C51 O52 1.227 . S
O52 C51 1.227 . S
N53 Co39 2.140 . S
N53 C56 1.346 . S
N53 C57 1.345 . S
C54 C55 1.387 . S
C54 C58 1.391 . S
C55 C54 1.387 . S
C55 C56 1.369 . S
C55 H64 0.929 . S
C56 N53 1.346 . S
C56 C55 1.369 . S
C56 H59 0.928 . S
C57 N53 1.345 . S
C57 C58 1.371 . S
C57 H60 0.931 . S
C58 C54 1.391 . S
C58 C57 1.371 . S
C58 H65 0.930 . S
H59 C56 0.928 . S
H60 C57 0.931 . S
H61 C37 0.930 . S
H62 C34 0.930 . S
H63 C43 0.930 . S
H64 C55 0.929 . S
H65 C58 0.930 . S
C66 C67 1.351 . S
C66 N69 1.368 . S
C66 H71 0.931 . S
C67 C66 1.351 . S
C67 N68 1.373 . S
C67 H95 0.930 . S
N68 C67 1.373 . S
N68 C70 1.340 . S
N69 C66 1.368 . S
N69 C70 1.321 . S
N69 Co72 2.135 . S
C70 N68 1.340 . S
C70 N69 1.321 . S
C70 H94 0.930 . S
H71 C66 0.931 . S
Co72 N69 2.135 . S
Co72 N75 2.121 . S
Co72 O80 2.055 . S
Co72 O83 2.039 . S
Co72 N86 2.140 . S
C73 O74 1.227 . S
C73 O83 1.265 . S
O74 C73 1.227 . S
N75 Co72 2.121 . S
N75 C77 1.375 . S
N75 C78 1.313 . S
C76 C77 1.338 . S
C76 N79 1.377 . S
C76 H96 0.930 . S
C77 N75 1.375 . S
C77 C76 1.338 . S
C77 H81 0.931 . S
C78 N75 1.313 . S
C78 N79 1.344 . S
C78 H82 0.930 . S
N79 C76 1.377 . S
N79 C78 1.344 . S
O80 Co72 2.055 . S
O80 C84 1.253 . S
H81 C77 0.931 . S
H82 C78 0.930 . S
O83 Co72 2.039 . S
O83 C73 1.265 . S
C84 O80 1.253 . S
C84 O85 1.227 . S
O85 C84 1.227 . S
N86 Co72 2.140 . S
N86 C89 1.346 . S
N86 C90 1.345 . S
C87 C88 1.387 . S
C87 C91 1.391 . S
C88 C87 1.387 . S
C88 C89 1.369 . S
C88 H97 0.929 . S
C89 N86 1.346 . S
C89 C88 1.369 . S
C89 H92 0.928 . S
C90 N86 1.345 . S
C90 C91 1.371 . S
C90 H93 0.931 . S
C91 C87 1.391 . S
C91 C90 1.371 . S
C91 H98 0.930 . S
H92 C89 0.928 . S
H93 C90 0.931 . S
H94 C70 0.930 . S
H95 C67 0.930 . S
H96 C76 0.930 . S
H97 C88 0.929 . S
H98 C91 0.930 . S
C99 C100 1.351 1_556 S
C99 N102 1.368 . S
C99 H104 0.931 . S
C100 C99 1.351 1_554 S
C100 N101 1.373 . S
C100 H128 0.930 . S
N101 C100 1.373 . S
N101 C103 1.340 . S
N102 C99 1.368 . S
N102 C103 1.321 1_556 S
N102 Co105 2.135 . S
C103 N101 1.340 . S
C103 N102 1.321 1_554 S
C103 H127 0.930 . S
H104 C99 0.931 . S
Co105 N102 2.135 . S
Co105 N108 2.121 . S
Co105 O113 2.055 . S
Co105 O116 2.039 . S
Co105 N119 2.140 . S
C106 O107 1.227 . S
C106 O116 1.265 . S
O107 C106 1.227 . S
N108 Co105 2.121 . S
N108 C110 1.375 . S
N108 C111 1.313 . S
C109 C110 1.338 . S
C109 N112 1.377 . S
C109 H129 0.930 . S
C110 N108 1.375 . S
C110 C109 1.338 . S
C110 H114 0.931 . S
C111 N108 1.313 . S
C111 N112 1.344 . S
C111 H115 0.930 . S
N112 C109 1.377 . S
N112 C111 1.344 . S
O113 Co105 2.055 . S
O113 C117 1.253 . S
H114 C110 0.931 . S
H115 C111 0.930 . S
O116 Co105 2.039 . S
O116 C106 1.265 . S
C117 O113 1.253 . S
C117 O118 1.227 . S
O118 C117 1.227 . S
N119 Co105 2.140 . S
N119 C122 1.346 . S
N119 C123 1.345 . S
C120 C121 1.387 . S
C120 C124 1.391 . S
C121 C120 1.387 . S
C121 C122 1.369 . S
C121 H130 0.929 . S
C122 N119 1.346 . S
C122 C121 1.369 . S
C122 H125 0.928 . S
C123 N119 1.345 . S
C123 C124 1.371 . S
C123 H126 0.931 . S
C124 C120 1.391 . S
C124 C123 1.371 . S
C124 H131 0.930 . S
H125 C122 0.928 . S
H126 C123 0.931 . S
H127 C103 0.930 . S
H128 C100 0.930 . S
H129 C109 0.930 . S
H130 C121 0.929 . S
H131 C124 0.930 . S
C132 C133 1.351 . S
C132 N135 1.368 . S
C132 H137 0.931 . S
C133 C132 1.351 . S
C133 N134 1.373 . S
C133 H161 0.930 . S
N134 C133 1.373 . S
N134 C136 1.340 . S
N135 C132 1.368 . S
N135 C136 1.321 . S
N135 Co138 2.135 . S
C136 N134 1.340 . S
C136 N135 1.321 . S
C136 H160 0.930 . S
H137 C132 0.931 . S
Co138 N135 2.135 . S
Co138 N141 2.121 1_556 S
Co138 O146 2.055 . S
Co138 O149 2.039 . S
Co138 N152 2.140 . S
C139 O140 1.227 . S
C139 O149 1.265 . S
O140 C139 1.227 . S
N141 Co138 2.121 1_554 S
N141 C143 1.375 . S
N141 C144 1.313 . S
C142 C143 1.338 . S
C142 N145 1.377 . S
C142 H162 0.930 . S
C143 N141 1.375 . S
C143 C142 1.338 . S
C143 H147 0.931 . S
C144 N141 1.313 . S
C144 N145 1.344 . S
C144 H148 0.930 . S
N145 C142 1.377 . S
N145 C144 1.344 . S
O146 Co138 2.055 . S
O146 C150 1.253 . S
H147 C143 0.931 . S
H148 C144 0.930 . S
O149 Co138 2.039 . S
O149 C139 1.265 . S
C150 O146 1.253 . S
C150 O151 1.227 . S
O151 C150 1.227 . S
N152 Co138 2.140 . S
N152 C155 1.346 . S
N152 C156 1.345 . S
C153 C154 1.387 . S
C153 C157 1.391 . S
C154 C153 1.387 . S
C154 C155 1.369 . S
C154 H163 0.929 . S
C155 N152 1.346 . S
C155 C154 1.369 . S
C155 H158 0.928 . S
C156 N152 1.345 . S
C156 C157 1.371 . S
C156 H159 0.931 1_556 S
C157 C153 1.391 . S
C157 C156 1.371 . S
C157 H164 0.930 1_556 S
H158 C155 0.928 . S
H159 C156 0.931 1_554 S
H160 C136 0.930 . S
H161 C133 0.930 . S
H162 C142 0.930 . S
H163 C154 0.929 . S
H164 C157 0.930 1_554 S
C165 C166 1.351 1_554 S
C165 N168 1.368 . S
C165 H170 0.931 . S
C166 C165 1.351 1_556 S
C166 N167 1.373 . S
C166 H194 0.930 . S
N167 C166 1.373 . S
N167 C169 1.340 . S
N168 C165 1.368 . S
N168 C169 1.321 1_554 S
N168 Co171 2.135 . S
C169 N167 1.340 . S
C169 N168 1.321 1_556 S
C169 H193 0.930 . S
H170 C165 0.931 . S
Co171 N168 2.135 . S
Co171 N174 2.121 . S
Co171 O179 2.055 . S
Co171 O182 2.039 . S
Co171 N185 2.140 . S
C172 O173 1.227 . S
C172 O182 1.265 . S
O173 C172 1.227 . S
N174 Co171 2.121 . S
N174 C176 1.375 . S
N174 C177 1.313 . S
C175 C176 1.338 . S
C175 N178 1.377 . S
C175 H195 0.930 . S
C176 N174 1.375 . S
C176 C175 1.338 . S
C176 H180 0.931 . S
C177 N174 1.313 . S
C177 N178 1.344 . S
C177 H181 0.930 . S
N178 C175 1.377 . S
N178 C177 1.344 . S
O179 Co171 2.055 . S
O179 C183 1.253 . S
H180 C176 0.931 . S
H181 C177 0.930 . S
O182 Co171 2.039 . S
O182 C172 1.265 . S
C183 O179 1.253 . S
C183 O184 1.227 . S
O184 C183 1.227 . S
N185 Co171 2.140 . S
N185 C188 1.346 . S
N185 C189 1.345 . S
C186 C187 1.387 . S
C186 C190 1.391 . S
C187 C186 1.387 . S
C187 C188 1.369 . S
C187 H196 0.929 . S
C188 N185 1.346 . S
C188 C187 1.369 . S
C188 H191 0.928 . S
C189 N185 1.345 . S
C189 C190 1.371 . S
C189 H192 0.931 . S
C190 C186 1.391 . S
C190 C189 1.371 . S
C190 H197 0.930 . S
H191 C188 0.928 . S
H192 C189 0.931 . S
H193 C169 0.930 . S
H194 C166 0.930 . S
H195 C175 0.930 . S
H196 C187 0.929 . S
H197 C190 0.930 . S
C198 C199 1.351 . S
C198 N201 1.368 . S
C198 H203 0.931 . S
C199 C198 1.351 . S
C199 N200 1.373 . S
C199 H227 0.930 . S
N200 C199 1.373 . S
N200 C202 1.340 . S
N201 C198 1.368 . S
N201 C202 1.321 . S
N201 Co204 2.135 . S
C202 N200 1.340 . S
C202 N201 1.321 . S
C202 H226 0.930 . S
H203 C198 0.931 . S
Co204 N201 2.135 . S
Co204 N207 2.121 . S
Co204 O212 2.055 . S
Co204 O215 2.039 . S
Co204 N218 2.140 . S
C205 O206 1.227 . S
C205 O215 1.265 . S
O206 C205 1.227 . S
N207 Co204 2.121 . S
N207 C209 1.375 . S
N207 C210 1.313 . S
C208 C209 1.338 . S
C208 N211 1.377 . S
C208 H228 0.930 . S
C209 N207 1.375 . S
C209 C208 1.338 . S
C209 H213 0.931 . S
C210 N207 1.313 . S
C210 N211 1.344 . S
C210 H214 0.930 . S
N211 C208 1.377 . S
N211 C210 1.344 . S
O212 Co204 2.055 . S
O212 C216 1.253 . S
H213 C209 0.931 . S
H214 C210 0.930 . S
O215 Co204 2.039 . S
O215 C205 1.265 . S
C216 O212 1.253 . S
C216 O217 1.227 . S
O217 C216 1.227 . S
N218 Co204 2.140 . S
N218 C221 1.346 . S
N218 C222 1.345 . S
C219 C220 1.387 . S
C219 C223 1.391 . S
C220 C219 1.387 . S
C220 C221 1.369 . S
C220 H229 0.929 . S
C221 N218 1.346 . S
C221 C220 1.369 . S
C221 H224 0.928 . S
C222 N218 1.345 . S
C222 C223 1.371 . S
C222 H225 0.931 . S
C223 C219 1.391 . S
C223 C222 1.371 . S
C223 H230 0.930 . S
H224 C221 0.928 . S
H225 C222 0.931 . S
H226 C202 0.930 . S
H227 C199 0.930 . S
H228 C208 0.930 . S
H229 C220 0.929 . S
H230 C223 0.930 . S
C231 C232 1.351 . S
C231 N234 1.368 . S
C231 H236 0.931 . S
C232 C231 1.351 . S
C232 N233 1.373 . S
C232 H260 0.930 . S
N233 C232 1.373 . S
N233 C235 1.340 . S
N234 C231 1.368 . S
N234 C235 1.321 . S
N234 Co237 2.135 . S
C235 N233 1.340 . S
C235 N234 1.321 . S
C235 H259 0.930 . S
H236 C231 0.931 . S
Co237 N234 2.135 . S
Co237 N240 2.121 . S
Co237 O245 2.055 . S
Co237 O248 2.039 . S
Co237 N251 2.140 . S
C238 O239 1.227 . S
C238 O248 1.265 . S
O239 C238 1.227 . S
N240 Co237 2.121 . S
N240 C242 1.375 . S
N240 C243 1.313 . S
C241 C242 1.338 . S
C241 N244 1.377 . S
C241 H261 0.930 . S
C242 N240 1.375 . S
C242 C241 1.338 . S
C242 H246 0.931 . S
C243 N240 1.313 . S
C243 N244 1.344 . S
C243 H247 0.930 . S
N244 C241 1.377 . S
N244 C243 1.344 . S
O245 Co237 2.055 . S
O245 C249 1.253 . S
H246 C242 0.931 . S
H247 C243 0.930 . S
O248 Co237 2.039 . S
O248 C238 1.265 . S
C249 O245 1.253 . S
C249 O250 1.227 . S
O250 C249 1.227 . S
N251 Co237 2.140 . S
N251 C254 1.346 . S
N251 C255 1.345 . S
C252 C253 1.387 . S
C252 C256 1.391 . S
C253 C252 1.387 . S
C253 C254 1.369 . S
C253 H262 0.929 . S
C254 N251 1.346 . S
C254 C253 1.369 . S
C254 H257 0.928 . S
C255 N251 1.345 . S
C255 C256 1.371 . S
C255 H258 0.931 . S
C256 C252 1.391 . S
C256 C255 1.371 . S
C256 H263 0.930 . S
H257 C254 0.928 . S
H258 C255 0.931 . S
H259 C235 0.930 . S
H260 C232 0.930 . S
H261 C241 0.930 . S
H262 C253 0.929 . S
H263 C256 0.930 . S
C264 C265 1.351 . S
C264 N267 1.368 . S
C264 H269 0.931 . S
C265 C264 1.351 . S
C265 N266 1.373 . S
C265 H293 0.930 . S
N266 C265 1.373 . S
N266 C268 1.340 . S
N267 C264 1.368 . S
N267 C268 1.321 . S
N267 Co270 2.135 . S
C268 N266 1.340 . S
C268 N267 1.321 . S
C268 H292 0.930 . S
H269 C264 0.931 . S
Co270 N267 2.135 . S
Co270 N273 2.121 1_556 S
Co270 O278 2.055 . S
Co270 O281 2.039 . S
Co270 N284 2.140 . S
C271 O272 1.227 . S
C271 O281 1.265 . S
O272 C271 1.227 . S
N273 Co270 2.121 1_554 S
N273 C275 1.375 . S
N273 C276 1.313 . S
C274 C275 1.338 . S
C274 N277 1.377 . S
C274 H294 0.930 . S
C275 N273 1.375 . S
C275 C274 1.338 . S
C275 H279 0.931 . S
C276 N273 1.313 . S
C276 N277 1.344 . S
C276 H280 0.930 . S
N277 C274 1.377 . S
N277 C276 1.344 . S
O278 Co270 2.055 . S
O278 C282 1.253 . S
H279 C275 0.931 . S
H280 C276 0.930 . S
O281 Co270 2.039 . S
O281 C271 1.265 . S
C282 O278 1.253 . S
C282 O283 1.227 . S
O283 C282 1.227 . S
N284 Co270 2.140 . S
N284 C287 1.346 . S
N284 C288 1.345 . S
C285 C286 1.387 . S
C285 C289 1.391 . S
C286 C285 1.387 . S
C286 C287 1.369 . S
C286 H295 0.929 . S
C287 N284 1.346 . S
C287 C286 1.369 . S
C287 H290 0.928 . S
C288 N284 1.345 . S
C288 C289 1.371 . S
C288 H291 0.931 1_556 S
C289 C285 1.391 . S
C289 C288 1.371 . S
C289 H296 0.930 1_556 S
H290 C287 0.928 . S
H291 C288 0.931 1_554 S
H292 C268 0.930 . S
H293 C265 0.930 . S
H294 C274 0.930 . S
H295 C286 0.929 . S
H296 C289 0.930 1_554 S
C297 C298 1.351 . S
C297 N300 1.368 . S
C297 H302 0.931 . S
C298 C297 1.351 . S
C298 N299 1.373 . S
C298 H326 0.930 . S
N299 C298 1.373 . S
N299 C301 1.340 . S
N300 C297 1.368 . S
N300 C301 1.321 . S
N300 Co303 2.135 . S
C301 N299 1.340 . S
C301 N300 1.321 . S
C301 H325 0.930 . S
H302 C297 0.931 . S
Co303 N300 2.135 . S
Co303 N306 2.121 . S
Co303 O311 2.055 . S
Co303 O314 2.039 . S
Co303 N317 2.140 . S
C304 O305 1.227 . S
C304 O314 1.265 . S
O305 C304 1.227 . S
N306 Co303 2.121 . S
N306 C308 1.375 . S
N306 C309 1.313 . S
C307 C308 1.338 . S
C307 N310 1.377 . S
C307 H327 0.930 . S
C308 N306 1.375 . S
C308 C307 1.338 . S
C308 H312 0.931 . S
C309 N306 1.313 . S
C309 N310 1.344 . S
C309 H313 0.930 . S
N310 C307 1.377 . S
N310 C309 1.344 . S
O311 Co303 2.055 . S
O311 C315 1.253 . S
H312 C308 0.931 . S
H313 C309 0.930 . S
O314 Co303 2.039 . S
O314 C304 1.265 . S
C315 O311 1.253 . S
C315 O316 1.227 . S
O316 C315 1.227 . S
N317 Co303 2.140 . S
N317 C320 1.346 . S
N317 C321 1.345 . S
C318 C319 1.387 . S
C318 C322 1.391 . S
C319 C318 1.387 . S
C319 C320 1.369 . S
C319 H328 0.929 . S
C320 N317 1.346 . S
C320 C319 1.369 . S
C320 H323 0.928 . S
C321 N317 1.345 . S
C321 C322 1.371 . S
C321 H324 0.931 . S
C322 C318 1.391 . S
C322 C321 1.371 . S
C322 H329 0.930 . S
H323 C320 0.928 . S
H324 C321 0.931 . S
H325 C301 0.930 . S
H326 C298 0.930 . S
H327 C307 0.930 . S
H328 C319 0.929 . S
H329 C322 0.930 . S
C330 C331 1.351 . S
C330 N333 1.368 . S
C330 H335 0.931 . S
C331 C330 1.351 . S
C331 N332 1.373 . S
C331 H359 0.930 . S
N332 C331 1.373 . S
N332 C334 1.340 . S
N333 C330 1.368 . S
N333 C334 1.321 . S
N333 Co336 2.135 . S
C334 N332 1.340 . S
C334 N333 1.321 . S
C334 H358 0.930 . S
H335 C330 0.931 . S
Co336 N333 2.135 . S
Co336 N339 2.121 . S
Co336 O344 2.055 . S
Co336 O347 2.039 . S
Co336 N350 2.140 . S
C337 O338 1.227 . S
C337 O347 1.265 . S
O338 C337 1.227 . S
N339 Co336 2.121 . S
N339 C341 1.375 . S
N339 C342 1.313 . S
C340 C341 1.338 . S
C340 N343 1.377 . S
C340 H360 0.930 . S
C341 N339 1.375 . S
C341 C340 1.338 . S
C341 H345 0.931 . S
C342 N339 1.313 . S
C342 N343 1.344 . S
C342 H346 0.930 . S
N343 C340 1.377 . S
N343 C342 1.344 . S
O344 Co336 2.055 . S
O344 C348 1.253 . S
H345 C341 0.931 . S
H346 C342 0.930 . S
O347 Co336 2.039 . S
O347 C337 1.265 . S
C348 O344 1.253 . S
C348 O349 1.227 . S
O349 C348 1.227 . S
N350 Co336 2.140 . S
N350 C353 1.346 . S
N350 C354 1.345 . S
C351 C352 1.387 . S
C351 C355 1.391 . S
C352 C351 1.387 . S
C352 C353 1.369 . S
C352 H361 0.929 . S
C353 N350 1.346 . S
C353 C352 1.369 . S
C353 H356 0.928 . S
C354 N350 1.345 . S
C354 C355 1.371 . S
C354 H357 0.931 . S
C355 C351 1.391 . S
C355 C354 1.371 . S
C355 H362 0.930 . S
H356 C353 0.928 . S
H357 C354 0.931 . S
H358 C334 0.930 . S
H359 C331 0.930 . S
H360 C340 0.930 . S
H361 C352 0.929 . S
H362 C355 0.930 . S
C363 C364 1.351 1_554 S
C363 N366 1.368 . S
C363 H368 0.931 . S
C364 C363 1.351 1_556 S
C364 N365 1.373 . S
C364 H392 0.930 . S
N365 C364 1.373 . S
N365 C367 1.340 . S
N366 C363 1.368 . S
N366 C367 1.321 1_554 S
N366 Co369 2.135 . S
C367 N365 1.340 . S
C367 N366 1.321 1_556 S
C367 H391 0.930 . S
H368 C363 0.931 . S
Co369 N366 2.135 . S
Co369 N372 2.121 . S
Co369 O377 2.055 . S
Co369 O380 2.039 . S
Co369 N383 2.140 . S
C370 O371 1.227 . S
C370 O380 1.265 . S
O371 C370 1.227 . S
N372 Co369 2.121 . S
N372 C374 1.375 . S
N372 C375 1.313 . S
C373 C374 1.338 . S
C373 N376 1.377 . S
C373 H393 0.930 . S
C374 N372 1.375 . S
C374 C373 1.338 . S
C374 H378 0.931 . S
C375 N372 1.313 . S
C375 N376 1.344 . S
C375 H379 0.930 . S
N376 C373 1.377 . S
N376 C375 1.344 . S
O377 Co369 2.055 . S
O377 C381 1.253 . S
H378 C374 0.931 . S
H379 C375 0.930 . S
O380 Co369 2.039 . S
O380 C370 1.265 . S
C381 O377 1.253 . S
C381 O382 1.227 . S
O382 C381 1.227 . S
N383 Co369 2.140 . S
N383 C386 1.346 . S
N383 C387 1.345 . S
C384 C385 1.387 . S
C384 C388 1.391 . S
C385 C384 1.387 . S
C385 C386 1.369 . S
C385 H394 0.929 . S
C386 N383 1.346 . S
C386 C385 1.369 . S
C386 H389 0.928 . S
C387 N383 1.345 . S
C387 C388 1.371 . S
C387 H390 0.931 . S
C388 C384 1.391 . S
C388 C387 1.371 . S
C388 H395 0.930 . S
H389 C386 0.928 . S
H390 C387 0.931 . S
H391 C367 0.930 . S
H392 C364 0.930 . S
H393 C373 0.930 . S
H394 C385 0.929 . S
H395 C388 0.930 . S
C396 C397 1.351 . S
C396 N399 1.368 . S
C396 H401 0.931 . S
C397 C396 1.351 . S
C397 N398 1.373 . S
C397 H425 0.930 . S
N398 C397 1.373 . S
N398 C400 1.340 . S
N399 C396 1.368 . S
N399 C400 1.321 . S
N399 Co402 2.135 . S
C400 N398 1.340 . S
C400 N399 1.321 . S
C400 H424 0.930 . S
H401 C396 0.931 . S
Co402 N399 2.135 . S
Co402 N405 2.121 1_554 S
Co402 O410 2.055 . S
Co402 O413 2.039 . S
Co402 N416 2.140 . S
C403 O404 1.227 . S
C403 O413 1.265 . S
O404 C403 1.227 . S
N405 Co402 2.121 1_556 S
N405 C407 1.375 . S
N405 C408 1.313 . S
C406 C407 1.338 . S
C406 N409 1.377 . S
C406 H426 0.930 . S
C407 N405 1.375 . S
C407 C406 1.338 . S
C407 H411 0.931 . S
C408 N405 1.313 . S
C408 N409 1.344 . S
C408 H412 0.930 . S
N409 C406 1.377 . S
N409 C408 1.344 . S
O410 Co402 2.055 . S
O410 C414 1.253 . S
H411 C407 0.931 . S
H412 C408 0.930 . S
O413 Co402 2.039 . S
O413 C403 1.265 . S
C414 O410 1.253 . S
C414 O415 1.227 . S
O415 C414 1.227 . S
N416 Co402 2.140 . S
N416 C419 1.346 . S
N416 C420 1.345 . S
C417 C418 1.387 . S
C417 C421 1.391 . S
C418 C417 1.387 . S
C418 C419 1.369 . S
C418 H427 0.929 . S
C419 N416 1.346 . S
C419 C418 1.369 . S
C419 H422 0.928 . S
C420 N416 1.345 . S
C420 C421 1.371 . S
C420 H423 0.931 1_554 S
C421 C417 1.391 . S
C421 C420 1.371 . S
C421 H428 0.930 1_554 S
H422 C419 0.928 . S
H423 C420 0.931 1_556 S
H424 C400 0.930 . S
H425 C397 0.930 . S
H426 C406 0.930 . S
H427 C418 0.929 . S
H428 C421 0.930 1_556 S
C429 C430 1.351 1_556 S
C429 N432 1.368 . S
C429 H434 0.931 . S
C430 C429 1.351 1_554 S
C430 N431 1.373 . S
C430 H458 0.930 . S
N431 C430 1.373 . S
N431 C433 1.340 . S
N432 C429 1.368 . S
N432 C433 1.321 1_556 S
N432 Co435 2.135 . S
C433 N431 1.340 . S
C433 N432 1.321 1_554 S
C433 H457 0.930 . S
H434 C429 0.931 . S
Co435 N432 2.135 . S
Co435 N438 2.121 . S
Co435 O443 2.055 . S
Co435 O446 2.039 . S
Co435 N449 2.140 . S
C436 O437 1.227 . S
C436 O446 1.265 . S
O437 C436 1.227 . S
N438 Co435 2.121 . S
N438 C440 1.375 . S
N438 C441 1.313 . S
C439 C440 1.338 . S
C439 N442 1.377 . S
C439 H459 0.930 . S
C440 N438 1.375 . S
C440 C439 1.338 . S
C440 H444 0.931 . S
C441 N438 1.313 . S
C441 N442 1.344 . S
C441 H445 0.930 . S
N442 C439 1.377 . S
N442 C441 1.344 . S
O443 Co435 2.055 . S
O443 C447 1.253 . S
H444 C440 0.931 . S
H445 C441 0.930 . S
O446 Co435 2.039 . S
O446 C436 1.265 . S
C447 O443 1.253 . S
C447 O448 1.227 . S
O448 C447 1.227 . S
N449 Co435 2.140 . S
N449 C452 1.346 . S
N449 C453 1.345 . S
C450 C451 1.387 . S
C450 C454 1.391 . S
C451 C450 1.387 . S
C451 C452 1.369 . S
C451 H460 0.929 . S
C452 N449 1.346 . S
C452 C451 1.369 . S
C452 H455 0.928 . S
C453 N449 1.345 . S
C453 C454 1.371 . S
C453 H456 0.931 . S
C454 C450 1.391 . S
C454 C453 1.371 . S
C454 H461 0.930 . S
H455 C452 0.928 . S
H456 C453 0.931 . S
H457 C433 0.930 . S
H458 C430 0.930 . S
H459 C439 0.930 . S
H460 C451 0.929 . S
H461 C454 0.930 . S
C462 C463 1.351 . S
C462 N465 1.368 . S
C462 H467 0.931 . S
C463 C462 1.351 . S
C463 N464 1.373 . S
C463 H491 0.930 . S
N464 C463 1.373 . S
N464 C466 1.340 . S
N465 C462 1.368 . S
N465 C466 1.321 . S
N465 Co468 2.135 . S
C466 N464 1.340 . S
C466 N465 1.321 . S
C466 H490 0.930 . S
H467 C462 0.931 . S
Co468 N465 2.135 . S
Co468 N471 2.121 . S
Co468 O476 2.055 . S
Co468 O479 2.039 . S
Co468 N482 2.140 . S
C469 O470 1.227 . S
C469 O479 1.265 . S
O470 C469 1.227 . S
N471 Co468 2.121 . S
N471 C473 1.375 . S
N471 C474 1.313 . S
C472 C473 1.338 . S
C472 N475 1.377 . S
C472 H492 0.930 . S
C473 N471 1.375 . S
C473 C472 1.338 . S
C473 H477 0.931 . S
C474 N471 1.313 . S
C474 N475 1.344 . S
C474 H478 0.930 . S
N475 C472 1.377 . S
N475 C474 1.344 . S
O476 Co468 2.055 . S
O476 C480 1.253 . S
H477 C473 0.931 . S
H478 C474 0.930 . S
O479 Co468 2.039 . S
O479 C469 1.265 . S
C480 O476 1.253 . S
C480 O481 1.227 . S
O481 C480 1.227 . S
N482 Co468 2.140 . S
N482 C485 1.346 . S
N482 C486 1.345 . S
C483 C484 1.387 . S
C483 C487 1.391 . S
C484 C483 1.387 . S
C484 C485 1.369 . S
C484 H493 0.929 . S
C485 N482 1.346 . S
C485 C484 1.369 . S
C485 H488 0.928 . S
C486 N482 1.345 . S
C486 C487 1.371 . S
C486 H489 0.931 . S
C487 C483 1.391 . S
C487 C486 1.371 . S
C487 H494 0.930 . S
H488 C485 0.928 . S
H489 C486 0.931 . S
H490 C466 0.930 . S
H491 C463 0.930 . S
H492 C472 0.930 . S
H493 C484 0.929 . S
H494 C487 0.930 . S
C495 C496 1.351 . S
C495 N498 1.368 . S
C495 H500 0.931 . S
C496 C495 1.351 . S
C496 N497 1.373 . S
C496 H524 0.930 . S
N497 C496 1.373 . S
N497 C499 1.340 . S
N498 C495 1.368 . S
N498 C499 1.321 . S
N498 Co501 2.135 . S
C499 N497 1.340 . S
C499 N498 1.321 . S
C499 H523 0.930 . S
H500 C495 0.931 . S
Co501 N498 2.135 . S
Co501 N504 2.121 . S
Co501 O509 2.055 . S
Co501 O512 2.039 . S
Co501 N515 2.140 . S
C502 O503 1.227 . S
C502 O512 1.265 . S
O503 C502 1.227 . S
N504 Co501 2.121 . S
N504 C506 1.375 . S
N504 C507 1.313 . S
C505 C506 1.338 . S
C505 N508 1.377 . S
C505 H525 0.930 . S
C506 N504 1.375 . S
C506 C505 1.338 . S
C506 H510 0.931 . S
C507 N504 1.313 . S
C507 N508 1.344 . S
C507 H511 0.930 . S
N508 C505 1.377 . S
N508 C507 1.344 . S
O509 Co501 2.055 . S
O509 C513 1.253 . S
H510 C506 0.931 . S
H511 C507 0.930 . S
O512 Co501 2.039 . S
O512 C502 1.265 . S
C513 O509 1.253 . S
C513 O514 1.227 . S
O514 C513 1.227 . S
N515 Co501 2.140 . S
N515 C518 1.346 . S
N515 C519 1.345 . S
C516 C517 1.387 . S
C516 C520 1.391 . S
C517 C516 1.387 . S
C517 C518 1.369 . S
C517 H526 0.929 . S
C518 N515 1.346 . S
C518 C517 1.369 . S
C518 H521 0.928 . S
C519 N515 1.345 . S
C519 C520 1.371 . S
C519 H522 0.931 . S
C520 C516 1.391 . S
C520 C519 1.371 . S
C520 H527 0.930 . S
H521 C518 0.928 . S
H522 C519 0.931 . S
H523 C499 0.930 . S
H524 C496 0.930 . S
H525 C505 0.930 . S
H526 C517 0.929 . S
H527 C520 0.930 . S
C528 C529 1.351 . S
C528 N531 1.368 . S
C528 H533 0.931 . S
C529 C528 1.351 . S
C529 N530 1.373 . S
C529 H557 0.930 . S
N530 C529 1.373 . S
N530 C532 1.340 . S
N531 C528 1.368 . S
N531 C532 1.321 . S
N531 Co534 2.135 . S
C532 N530 1.340 . S
C532 N531 1.321 . S
C532 H556 0.930 . S
H533 C528 0.931 . S
Co534 N531 2.135 . S
Co534 N537 2.121 . S
Co534 O542 2.055 . S
Co534 O545 2.039 . S
Co534 N548 2.140 . S
C535 O536 1.227 . S
C535 O545 1.265 . S
O536 C535 1.227 . S
N537 Co534 2.121 . S
N537 C539 1.375 . S
N537 C540 1.313 . S
C538 C539 1.338 . S
C538 N541 1.377 . S
C538 H558 0.930 . S
C539 N537 1.375 . S
C539 C538 1.338 . S
C539 H543 0.931 . S
C540 N537 1.313 . S
C540 N541 1.344 . S
C540 H544 0.930 . S
N541 C538 1.377 . S
N541 C540 1.344 . S
O542 Co534 2.055 . S
O542 C546 1.253 . S
H543 C539 0.931 . S
H544 C540 0.930 . S
O545 Co534 2.039 . S
O545 C535 1.265 . S
C546 O542 1.253 . S
C546 O547 1.227 . S
O547 C546 1.227 . S
N548 Co534 2.140 . S
N548 C551 1.346 . S
N548 C552 1.345 . S
C549 C550 1.387 . S
C549 C553 1.391 . S
C550 C549 1.387 . S
C550 C551 1.369 . S
C550 H559 0.929 . S
C551 N548 1.346 . S
C551 C550 1.369 . S
C551 H554 0.928 . S
C552 N548 1.345 . S
C552 C553 1.371 . S
C552 H555 0.931 . S
C553 C549 1.391 . S
C553 C552 1.371 . S
C553 H560 0.930 . S
H554 C551 0.928 . S
H555 C552 0.931 . S
H556 C532 0.930 . S
H557 C529 0.930 . S
H558 C538 0.930 . S
H559 C550 0.929 . S
H560 C553 0.930 . S
C561 C562 1.351 1_556 S
C561 N564 1.368 . S
C561 H566 0.931 . S
C562 C561 1.351 1_554 S
C562 N563 1.373 . S
C562 H590 0.930 . S
N563 C562 1.373 . S
N563 C565 1.340 . S
N564 C561 1.368 . S
N564 C565 1.321 1_556 S
N564 Co567 2.135 . S
C565 N563 1.340 . S
C565 N564 1.321 1_554 S
C565 H589 0.930 . S
H566 C561 0.931 . S
Co567 N564 2.135 . S
Co567 N570 2.121 . S
Co567 O575 2.055 . S
Co567 O578 2.039 . S
Co567 N581 2.140 . S
C568 O569 1.227 . S
C568 O578 1.265 . S
O569 C568 1.227 . S
N570 Co567 2.121 . S
N570 C572 1.375 . S
N570 C573 1.313 . S
C571 C572 1.338 . S
C571 N574 1.377 . S
C571 H591 0.930 . S
C572 N570 1.375 . S
C572 C571 1.338 . S
C572 H576 0.931 . S
C573 N570 1.313 . S
C573 N574 1.344 . S
C573 H577 0.930 . S
N574 C571 1.377 . S
N574 C573 1.344 . S
O575 Co567 2.055 . S
O575 C579 1.253 . S
H576 C572 0.931 . S
H577 C573 0.930 . S
O578 Co567 2.039 . S
O578 C568 1.265 . S
C579 O575 1.253 . S
C579 O580 1.227 . S
O580 C579 1.227 . S
N581 Co567 2.140 . S
N581 C584 1.346 . S
N581 C585 1.345 . S
C582 C583 1.387 . S
C582 C586 1.391 . S
C583 C582 1.387 . S
C583 C584 1.369 . S
C583 H592 0.929 . S
C584 N581 1.346 . S
C584 C583 1.369 . S
C584 H587 0.928 . S
C585 N581 1.345 . S
C585 C586 1.371 . S
C585 H588 0.931 . S
C586 C582 1.391 . S
C586 C585 1.371 . S
C586 H593 0.930 . S
H587 C584 0.928 . S
H588 C585 0.931 . S
H589 C565 0.930 . S
H590 C562 0.930 . S
H591 C571 0.930 . S
H592 C583 0.929 . S
H593 C586 0.930 . S
C594 C595 1.351 . S
C594 N597 1.368 . S
C594 H599 0.931 . S
C595 C594 1.351 . S
C595 N596 1.373 . S
C595 H623 0.930 . S
N596 C595 1.373 . S
N596 C598 1.340 . S
N597 C594 1.368 . S
N597 C598 1.321 . S
N597 Co600 2.135 . S
C598 N596 1.340 . S
C598 N597 1.321 . S
C598 H622 0.930 . S
H599 C594 0.931 . S
Co600 N597 2.135 . S
Co600 N603 2.121 1_554 S
Co600 O608 2.055 . S
Co600 O611 2.039 . S
Co600 N614 2.140 . S
C601 O602 1.227 . S
C601 O611 1.265 . S
O602 C601 1.227 . S
N603 Co600 2.121 1_556 S
N603 C605 1.375 . S
N603 C606 1.313 . S
C604 C605 1.338 . S
C604 N607 1.377 . S
C604 H624 0.930 . S
C605 N603 1.375 . S
C605 C604 1.338 . S
C605 H609 0.931 . S
C606 N603 1.313 . S
C606 N607 1.344 . S
C606 H610 0.930 . S
N607 C604 1.377 . S
N607 C606 1.344 . S
O608 Co600 2.055 . S
O608 C612 1.253 . S
H609 C605 0.931 . S
H610 C606 0.930 . S
O611 Co600 2.039 . S
O611 C601 1.265 . S
C612 O608 1.253 . S
C612 O613 1.227 . S
O613 C612 1.227 . S
N614 Co600 2.140 . S
N614 C617 1.346 . S
N614 C618 1.345 . S
C615 C616 1.387 . S
C615 C619 1.391 . S
C616 C615 1.387 . S
C616 C617 1.369 . S
C616 H625 0.929 . S
C617 N614 1.346 . S
C617 C616 1.369 . S
C617 H620 0.928 . S
C618 N614 1.345 . S
C618 C619 1.371 . S
C618 H621 0.931 1_554 S
C619 C615 1.391 . S
C619 C618 1.371 . S
C619 H626 0.930 1_554 S
H620 C617 0.928 . S
H621 C618 0.931 1_556 S
H622 C598 0.930 . S
H623 C595 0.930 . S
H624 C604 0.930 . S
H625 C616 0.929 . S
H626 C619 0.930 1_556 S
C627 C628 1.351 . S
C627 N630 1.368 . S
C627 H632 0.931 . S
C628 C627 1.351 . S
C628 N629 1.373 . S
C628 H656 0.930 . S
N629 C628 1.373 . S
N629 C631 1.340 . S
N630 C627 1.368 . S
N630 C631 1.321 . S
N630 Co633 2.135 . S
C631 N629 1.340 . S
C631 N630 1.321 . S
C631 H655 0.930 . S
H632 C627 0.931 . S
Co633 N630 2.135 . S
Co633 N636 2.121 . S
Co633 O641 2.055 . S
Co633 O644 2.039 . S
Co633 N647 2.140 . S
C634 O635 1.227 . S
C634 O644 1.265 . S
O635 C634 1.227 . S
N636 Co633 2.121 . S
N636 C638 1.375 . S
N636 C639 1.313 . S
C637 C638 1.338 . S
C637 N640 1.377 . S
C637 H657 0.930 . S
C638 N636 1.375 . S
C638 C637 1.338 . S
C638 H642 0.931 . S
C639 N636 1.313 . S
C639 N640 1.344 . S
C639 H643 0.930 . S
N640 C637 1.377 . S
N640 C639 1.344 . S
O641 Co633 2.055 . S
O641 C645 1.253 . S
H642 C638 0.931 . S
H643 C639 0.930 . S
O644 Co633 2.039 . S
O644 C634 1.265 . S
C645 O641 1.253 . S
C645 O646 1.227 . S
O646 C645 1.227 . S
N647 Co633 2.140 . S
N647 C650 1.346 . S
N647 C651 1.345 . S
C648 C649 1.387 . S
C648 C652 1.391 . S
C649 C648 1.387 . S
C649 C650 1.369 . S
C649 H658 0.929 . S
C650 N647 1.346 . S
C650 C649 1.369 . S
C650 H653 0.928 . S
C651 N647 1.345 . S
C651 C652 1.371 . S
C651 H654 0.931 . S
C652 C648 1.391 . S
C652 C651 1.371 . S
C652 H659 0.930 . S
H653 C650 0.928 . S
H654 C651 0.931 . S
H655 C631 0.930 . S
H656 C628 0.930 . S
H657 C637 0.930 . S
H658 C649 0.929 . S
H659 C652 0.930 . S
C660 C661 1.351 . S
C660 N663 1.368 . S
C660 H665 0.931 . S
C661 C660 1.351 . S
C661 N662 1.373 . S
C661 H689 0.930 . S
N662 C661 1.373 . S
N662 C664 1.340 . S
N663 C660 1.368 . S
N663 C664 1.321 . S
N663 Co666 2.135 . S
C664 N662 1.340 . S
C664 N663 1.321 . S
C664 H688 0.930 . S
H665 C660 0.931 . S
Co666 N663 2.135 . S
Co666 N669 2.121 . S
Co666 O674 2.055 . S
Co666 O677 2.039 . S
Co666 N680 2.140 . S
C667 O668 1.227 . S
C667 O677 1.265 . S
O668 C667 1.227 . S
N669 Co666 2.121 . S
N669 C671 1.375 . S
N669 C672 1.313 . S
C670 C671 1.338 . S
C670 N673 1.377 . S
C670 H690 0.930 . S
C671 N669 1.375 . S
C671 C670 1.338 . S
C671 H675 0.931 . S
C672 N669 1.313 . S
C672 N673 1.344 . S
C672 H676 0.930 . S
N673 C670 1.377 . S
N673 C672 1.344 . S
O674 Co666 2.055 . S
O674 C678 1.253 . S
H675 C671 0.931 . S
H676 C672 0.930 . S
O677 Co666 2.039 . S
O677 C667 1.265 . S
C678 O674 1.253 . S
C678 O679 1.227 . S
O679 C678 1.227 . S
N680 Co666 2.140 . S
N680 C683 1.346 . S
N680 C684 1.345 . S
C681 C682 1.387 . S
C681 C685 1.391 . S
C682 C681 1.387 . S
C682 C683 1.369 . S
C682 H691 0.929 . S
C683 N680 1.346 . S
C683 C682 1.369 . S
C683 H686 0.928 . S
C684 N680 1.345 . S
C684 C685 1.371 . S
C684 H687 0.931 . S
C685 C681 1.391 . S
C685 C684 1.371 . S
C685 H692 0.930 . S
H686 C683 0.928 . S
H687 C684 0.931 . S
H688 C664 0.930 . S
H689 C661 0.930 . S
H690 C670 0.930 . S
H691 C682 0.929 . S
H692 C685 0.930 . S
C693 C694 1.351 . S
C693 N696 1.368 . S
C693 H698 0.931 . S
C694 C693 1.351 . S
C694 N695 1.373 . S
C694 H722 0.930 . S
N695 C694 1.373 . S
N695 C697 1.340 . S
N696 C693 1.368 . S
N696 C697 1.321 . S
N696 Co699 2.135 . S
C697 N695 1.340 . S
C697 N696 1.321 . S
C697 H721 0.930 . S
H698 C693 0.931 . S
Co699 N696 2.135 . S
Co699 N702 2.121 . S
Co699 O707 2.055 . S
Co699 O710 2.039 . S
Co699 N713 2.140 . S
C700 O701 1.227 . S
C700 O710 1.265 . S
O701 C700 1.227 . S
N702 Co699 2.121 . S
N702 C704 1.375 . S
N702 C705 1.313 . S
C703 C704 1.338 . S
C703 N706 1.377 . S
C703 H723 0.930 . S
C704 N702 1.375 . S
C704 C703 1.338 . S
C704 H708 0.931 . S
C705 N702 1.313 . S
C705 N706 1.344 . S
C705 H709 0.930 . S
N706 C703 1.377 . S
N706 C705 1.344 . S
O707 Co699 2.055 . S
O707 C711 1.253 . S
H708 C704 0.931 . S
H709 C705 0.930 . S
O710 Co699 2.039 . S
O710 C700 1.265 . S
C711 O707 1.253 . S
C711 O712 1.227 . S
O712 C711 1.227 . S
N713 Co699 2.140 . S
N713 C716 1.346 . S
N713 C717 1.345 . S
C714 C715 1.387 . S
C714 C718 1.391 . S
C715 C714 1.387 . S
C715 C716 1.369 . S
C715 H724 0.929 . S
C716 N713 1.346 . S
C716 C715 1.369 . S
C716 H719 0.928 . S
C717 N713 1.345 . S
C717 C718 1.371 . S
C717 H720 0.931 . S
C718 C714 1.391 . S
C718 C717 1.371 . S
C718 H725 0.930 . S
H719 C716 0.928 . S
H720 C717 0.931 . S
H721 C697 0.930 . S
H722 C694 0.930 . S
H723 C703 0.930 . S
H724 C715 0.929 . S
H725 C718 0.930 . S
C726 C727 1.351 . S
C726 N729 1.368 . S
C726 H731 0.931 . S
C727 C726 1.351 . S
C727 N728 1.373 . S
C727 H755 0.930 . S
N728 C727 1.373 . S
N728 C730 1.340 . S
N729 C726 1.368 . S
N729 C730 1.321 . S
N729 Co732 2.135 . S
C730 N728 1.340 . S
C730 N729 1.321 . S
C730 H754 0.930 . S
H731 C726 0.931 . S
Co732 N729 2.135 . S
Co732 N735 2.121 1_556 S
Co732 O740 2.055 . S
Co732 O743 2.039 . S
Co732 N746 2.140 . S
C733 O734 1.227 . S
C733 O743 1.265 . S
O734 C733 1.227 . S
N735 Co732 2.121 1_554 S
N735 C737 1.375 . S
N735 C738 1.313 . S
C736 C737 1.338 . S
C736 N739 1.377 . S
C736 H756 0.930 . S
C737 N735 1.375 . S
C737 C736 1.338 . S
C737 H741 0.931 . S
C738 N735 1.313 . S
C738 N739 1.344 . S
C738 H742 0.930 . S
N739 C736 1.377 . S
N739 C738 1.344 . S
O740 Co732 2.055 . S
O740 C744 1.253 . S
H741 C737 0.931 . S
H742 C738 0.930 . S
O743 Co732 2.039 . S
O743 C733 1.265 . S
C744 O740 1.253 . S
C744 O745 1.227 . S
O745 C744 1.227 . S
N746 Co732 2.140 . S
N746 C749 1.346 . S
N746 C750 1.345 . S
C747 C748 1.387 . S
C747 C751 1.391 . S
C748 C747 1.387 . S
C748 C749 1.369 . S
C748 H757 0.929 . S
C749 N746 1.346 . S
C749 C748 1.369 . S
C749 H752 0.928 . S
C750 N746 1.345 . S
C750 C751 1.371 . S
C750 H753 0.931 1_556 S
C751 C747 1.391 . S
C751 C750 1.371 . S
C751 H758 0.930 1_556 S
H752 C749 0.928 . S
H753 C750 0.931 1_554 S
H754 C730 0.930 . S
H755 C727 0.930 . S
H756 C736 0.930 . S
H757 C748 0.929 . S
H758 C751 0.930 1_554 S
C759 C760 1.351 1_554 S
C759 N762 1.368 . S
C759 H764 0.931 . S
C760 C759 1.351 1_556 S
C760 N761 1.373 . S
C760 H788 0.930 . S
N761 C760 1.373 . S
N761 C763 1.340 . S
N762 C759 1.368 . S
N762 C763 1.321 1_554 S
N762 Co765 2.135 . S
C763 N761 1.340 . S
C763 N762 1.321 1_556 S
C763 H787 0.930 . S
H764 C759 0.931 . S
Co765 N762 2.135 . S
Co765 N768 2.121 . S
Co765 O773 2.055 . S
Co765 O776 2.039 . S
Co765 N779 2.140 . S
C766 O767 1.227 . S
C766 O776 1.265 . S
O767 C766 1.227 . S
N768 Co765 2.121 . S
N768 C770 1.375 . S
N768 C771 1.313 . S
C769 C770 1.338 . S
C769 N772 1.377 . S
C769 H789 0.930 . S
C770 N768 1.375 . S
C770 C769 1.338 . S
C770 H774 0.931 . S
C771 N768 1.313 . S
C771 N772 1.344 . S
C771 H775 0.930 . S
N772 C769 1.377 . S
N772 C771 1.344 . S
O773 Co765 2.055 . S
O773 C777 1.253 . S
H774 C770 0.931 . S
H775 C771 0.930 . S
O776 Co765 2.039 . S
O776 C766 1.265 . S
C777 O773 1.253 . S
C777 O778 1.227 . S
O778 C777 1.227 . S
N779 Co765 2.140 . S
N779 C782 1.346 . S
N779 C783 1.345 . S
C780 C781 1.387 . S
C780 C784 1.391 . S
C781 C780 1.387 . S
C781 C782 1.369 . S
C781 H790 0.929 . S
C782 N779 1.346 . S
C782 C781 1.369 . S
C782 H785 0.928 . S
C783 N779 1.345 . S
C783 C784 1.371 . S
C783 H786 0.931 . S
C784 C780 1.391 . S
C784 C783 1.371 . S
C784 H791 0.930 . S
H785 C782 0.928 . S
H786 C783 0.931 . S
H787 C763 0.930 . S
H788 C760 0.930 . S
H789 C769 0.930 . S
H790 C781 0.929 . S
H791 C784 0.930 . S
C792 C793 1.351 . S
C792 N795 1.368 . S
C792 H797 0.931 . S
C793 C792 1.351 . S
C793 N794 1.373 . S
C793 H821 0.930 . S
N794 C793 1.373 . S
N794 C796 1.340 . S
N795 C792 1.368 . S
N795 C796 1.321 . S
N795 Co798 2.135 . S
C796 N794 1.340 . S
C796 N795 1.321 . S
C796 H820 0.930 . S
H797 C792 0.931 . S
Co798 N795 2.135 . S
Co798 N801 2.121 . S
Co798 O806 2.055 . S
Co798 O809 2.039 . S
Co798 N812 2.140 . S
C799 O800 1.227 . S
C799 O809 1.265 . S
O800 C799 1.227 . S
N801 Co798 2.121 . S
N801 C803 1.375 . S
N801 C804 1.313 . S
C802 C803 1.338 . S
C802 N805 1.377 . S
C802 H822 0.930 . S
C803 N801 1.375 . S
C803 C802 1.338 . S
C803 H807 0.931 . S
C804 N801 1.313 . S
C804 N805 1.344 . S
C804 H808 0.930 . S
N805 C802 1.377 . S
N805 C804 1.344 . S
O806 Co798 2.055 . S
O806 C810 1.253 . S
H807 C803 0.931 . S
H808 C804 0.930 . S
O809 Co798 2.039 . S
O809 C799 1.265 . S
C810 O806 1.253 . S
C810 O811 1.227 . S
O811 C810 1.227 . S
N812 Co798 2.140 . S
N812 C815 1.346 . S
N812 C816 1.345 . S
C813 C814 1.387 . S
C813 C817 1.391 . S
C814 C813 1.387 . S
C814 C815 1.369 . S
C814 H823 0.929 . S
C815 N812 1.346 . S
C815 C814 1.369 . S
C815 H818 0.928 . S
C816 N812 1.345 . S
C816 C817 1.371 . S
C816 H819 0.931 . S
C817 C813 1.391 . S
C817 C816 1.371 . S
C817 H824 0.930 . S
H818 C815 0.928 . S
H819 C816 0.931 . S
H820 C796 0.930 . S
H821 C793 0.930 . S
H822 C802 0.930 . S
H823 C814 0.929 . S
H824 C817 0.930 . S
C825 C826 1.351 1_554 S
C825 N828 1.368 . S
C825 H830 0.931 . S
C826 C825 1.351 1_556 S
C826 N827 1.373 . S
C826 H854 0.930 . S
N827 C826 1.373 . S
N827 C829 1.340 . S
N828 C825 1.368 . S
N828 C829 1.321 1_554 S
N828 Co831 2.135 . S
C829 N827 1.340 . S
C829 N828 1.321 1_556 S
C829 H853 0.930 . S
H830 C825 0.931 . S
Co831 N828 2.135 . S
Co831 N834 2.121 . S
Co831 O839 2.055 . S
Co831 O842 2.039 . S
Co831 N845 2.140 . S
C832 O833 1.227 . S
C832 O842 1.265 . S
O833 C832 1.227 . S
N834 Co831 2.121 . S
N834 C836 1.375 . S
N834 C837 1.313 . S
C835 C836 1.338 . S
C835 N838 1.377 . S
C835 H855 0.930 . S
C836 N834 1.375 . S
C836 C835 1.338 . S
C836 H840 0.931 . S
C837 N834 1.313 . S
C837 N838 1.344 . S
C837 H841 0.930 . S
N838 C835 1.377 . S
N838 C837 1.344 . S
O839 Co831 2.055 . S
O839 C843 1.253 . S
H840 C836 0.931 . S
H841 C837 0.930 . S
O842 Co831 2.039 . S
O842 C832 1.265 . S
C843 O839 1.253 . S
C843 O844 1.227 . S
O844 C843 1.227 . S
N845 Co831 2.140 . S
N845 C848 1.346 . S
N845 C849 1.345 . S
C846 C847 1.387 . S
C846 C850 1.391 . S
C847 C846 1.387 . S
C847 C848 1.369 . S
C847 H856 0.929 . S
C848 N845 1.346 . S
C848 C847 1.369 . S
C848 H851 0.928 . S
C849 N845 1.345 . S
C849 C850 1.371 . S
C849 H852 0.931 . S
C850 C846 1.391 . S
C850 C849 1.371 . S
C850 H857 0.930 . S
H851 C848 0.928 . S
H852 C849 0.931 . S
H853 C829 0.930 . S
H854 C826 0.930 . S
H855 C835 0.930 . S
H856 C847 0.929 . S
H857 C850 0.930 . S
C858 C859 1.351 . S
C858 N861 1.368 . S
C858 H863 0.931 . S
C859 C858 1.351 . S
C859 N860 1.373 . S
C859 H887 0.930 . S
N860 C859 1.373 . S
N860 C862 1.340 . S
N861 C858 1.368 . S
N861 C862 1.321 . S
N861 Co864 2.135 . S
C862 N860 1.340 . S
C862 N861 1.321 . S
C862 H886 0.930 . S
H863 C858 0.931 . S
Co864 N861 2.135 . S
Co864 N867 2.121 1_556 S
Co864 O872 2.055 . S
Co864 O875 2.039 . S
Co864 N878 2.140 . S
C865 O866 1.227 . S
C865 O875 1.265 . S
O866 C865 1.227 . S
N867 Co864 2.121 1_554 S
N867 C869 1.375 . S
N867 C870 1.313 . S
C868 C869 1.338 . S
C868 N871 1.377 . S
C868 H888 0.930 . S
C869 N867 1.375 . S
C869 C868 1.338 . S
C869 H873 0.931 . S
C870 N867 1.313 . S
C870 N871 1.344 . S
C870 H874 0.930 . S
N871 C868 1.377 . S
N871 C870 1.344 . S
O872 Co864 2.055 . S
O872 C876 1.253 . S
H873 C869 0.931 . S
H874 C870 0.930 . S
O875 Co864 2.039 . S
O875 C865 1.265 . S
C876 O872 1.253 . S
C876 O877 1.227 . S
O877 C876 1.227 . S
N878 Co864 2.140 . S
N878 C881 1.346 . S
N878 C882 1.345 . S
C879 C880 1.387 . S
C879 C883 1.391 . S
C880 C879 1.387 . S
C880 C881 1.369 . S
C880 H889 0.929 . S
C881 N878 1.346 . S
C881 C880 1.369 . S
C881 H884 0.928 . S
C882 N878 1.345 . S
C882 C883 1.371 . S
C882 H885 0.931 1_556 S
C883 C879 1.391 . S
C883 C882 1.371 . S
C883 H890 0.930 1_556 S
H884 C881 0.928 . S
H885 C882 0.931 1_554 S
H886 C862 0.930 . S
H887 C859 0.930 . S
H888 C868 0.930 . S
H889 C880 0.929 . S
H890 C883 0.930 1_554 S
C891 C892 1.351 . S
C891 N894 1.368 . S
C891 H896 0.931 . S
C892 C891 1.351 . S
C892 N893 1.373 . S
C892 H920 0.930 . S
N893 C892 1.373 . S
N893 C895 1.340 . S
N894 C891 1.368 . S
N894 C895 1.321 . S
N894 Co897 2.135 . S
C895 N893 1.340 . S
C895 N894 1.321 . S
C895 H919 0.930 . S
H896 C891 0.931 . S
Co897 N894 2.135 . S
Co897 N900 2.121 . S
Co897 O905 2.055 . S
Co897 O908 2.039 . S
Co897 N911 2.140 . S
C898 O899 1.227 . S
C898 O908 1.265 . S
O899 C898 1.227 . S
N900 Co897 2.121 . S
N900 C902 1.375 . S
N900 C903 1.313 . S
C901 C902 1.338 . S
C901 N904 1.377 . S
C901 H921 0.930 . S
C902 N900 1.375 . S
C902 C901 1.338 . S
C902 H906 0.931 . S
C903 N900 1.313 . S
C903 N904 1.344 . S
C903 H907 0.930 . S
N904 C901 1.377 . S
N904 C903 1.344 . S
O905 Co897 2.055 . S
O905 C909 1.253 . S
H906 C902 0.931 . S
H907 C903 0.930 . S
O908 Co897 2.039 . S
O908 C898 1.265 . S
C909 O905 1.253 . S
C909 O910 1.227 . S
O910 C909 1.227 . S
N911 Co897 2.140 . S
N911 C914 1.346 . S
N911 C915 1.345 . S
C912 C913 1.387 . S
C912 C916 1.391 . S
C913 C912 1.387 . S
C913 C914 1.369 . S
C913 H922 0.929 . S
C914 N911 1.346 . S
C914 C913 1.369 . S
C914 H917 0.928 . S
C915 N911 1.345 . S
C915 C916 1.371 . S
C915 H918 0.931 . S
C916 C912 1.391 . S
C916 C915 1.371 . S
C916 H923 0.930 . S
H917 C914 0.928 . S
H918 C915 0.931 . S
H919 C895 0.930 . S
H920 C892 0.930 . S
H921 C901 0.930 . S
H922 C913 0.929 . S
H923 C916 0.930 . S
C924 C925 1.351 . S
C924 N927 1.368 . S
C924 H929 0.931 . S
C925 C924 1.351 . S
C925 N926 1.373 . S
C925 H953 0.930 . S
N926 C925 1.373 . S
N926 C928 1.340 . S
N927 C924 1.368 . S
N927 C928 1.321 . S
N927 Co930 2.135 . S
C928 N926 1.340 . S
C928 N927 1.321 . S
C928 H952 0.930 . S
H929 C924 0.931 . S
Co930 N927 2.135 . S
Co930 N933 2.121 . S
Co930 O938 2.055 . S
Co930 O941 2.039 . S
Co930 N944 2.140 . S
C931 O932 1.227 . S
C931 O941 1.265 . S
O932 C931 1.227 . S
N933 Co930 2.121 . S
N933 C935 1.375 . S
N933 C936 1.313 . S
C934 C935 1.338 . S
C934 N937 1.377 . S
C934 H954 0.930 . S
C935 N933 1.375 . S
C935 C934 1.338 . S
C935 H939 0.931 . S
C936 N933 1.313 . S
C936 N937 1.344 . S
C936 H940 0.930 . S
N937 C934 1.377 . S
N937 C936 1.344 . S
O938 Co930 2.055 . S
O938 C942 1.253 . S
H939 C935 0.931 . S
H940 C936 0.930 . S
O941 Co930 2.039 . S
O941 C931 1.265 . S
C942 O938 1.253 . S
C942 O943 1.227 . S
O943 C942 1.227 . S
N944 Co930 2.140 . S
N944 C947 1.346 . S
N944 C948 1.345 . S
C945 C946 1.387 . S
C945 C949 1.391 . S
C946 C945 1.387 . S
C946 C947 1.369 . S
C946 H955 0.929 . S
C947 N944 1.346 . S
C947 C946 1.369 . S
C947 H950 0.928 . S
C948 N944 1.345 . S
C948 C949 1.371 . S
C948 H951 0.931 . S
C949 C945 1.391 . S
C949 C948 1.371 . S
C949 H956 0.930 . S
H950 C947 0.928 . S
H951 C948 0.931 . S
H952 C928 0.930 . S
H953 C925 0.930 . S
H954 C934 0.930 . S
H955 C946 0.929 . S
H956 C949 0.930 . S
C957 C958 1.351 . S
C957 N960 1.368 . S
C957 H962 0.931 . S
C958 C957 1.351 . S
C958 N959 1.373 . S
C958 H986 0.930 . S
N959 C958 1.373 . S
N959 C961 1.340 . S
N960 C957 1.368 . S
N960 C961 1.321 . S
N960 Co963 2.135 . S
C961 N959 1.340 . S
C961 N960 1.321 . S
C961 H985 0.930 . S
H962 C957 0.931 . S
Co963 N960 2.135 . S
Co963 N966 2.121 . S
Co963 O971 2.055 . S
Co963 O974 2.039 . S
Co963 N977 2.140 . S
C964 O965 1.227 . S
C964 O974 1.265 . S
O965 C964 1.227 . S
N966 Co963 2.121 . S
N966 C968 1.375 . S
N966 C969 1.313 . S
C967 C968 1.338 . S
C967 N970 1.377 . S
C967 H987 0.930 . S
C968 N966 1.375 . S
C968 C967 1.338 . S
C968 H972 0.931 . S
C969 N966 1.313 . S
C969 N970 1.344 . S
C969 H973 0.930 . S
N970 C967 1.377 . S
N970 C969 1.344 . S
O971 Co963 2.055 . S
O971 C975 1.253 . S
H972 C968 0.931 . S
H973 C969 0.930 . S
O974 Co963 2.039 . S
O974 C964 1.265 . S
C975 O971 1.253 . S
C975 O976 1.227 . S
O976 C975 1.227 . S
N977 Co963 2.140 . S
N977 C980 1.346 . S
N977 C981 1.345 . S
C978 C979 1.387 . S
C978 C982 1.391 . S
C979 C978 1.387 . S
C979 C980 1.369 . S
C979 H988 0.929 . S
C980 N977 1.346 . S
C980 C979 1.369 . S
C980 H983 0.928 . S
C981 N977 1.345 . S
C981 C982 1.371 . S
C981 H984 0.931 . S
C982 C978 1.391 . S
C982 C981 1.371 . S
C982 H989 0.930 . S
H983 C980 0.928 . S
H984 C981 0.931 . S
H985 C961 0.930 . S
H986 C958 0.930 . S
H987 C967 0.930 . S
H988 C979 0.929 . S
H989 C982 0.930 . S
C990 C991 1.351 . S
C990 N993 1.368 . S
C990 H995 0.931 . S
C991 C990 1.351 . S
C991 N992 1.373 . S
C991 H1019 0.930 . S
N992 C991 1.373 . S
N992 C994 1.340 . S
N993 C990 1.368 . S
N993 C994 1.321 . S
N993 Co996 2.135 . S
C994 N992 1.340 . S
C994 N993 1.321 . S
C994 H1018 0.930 . S
H995 C990 0.931 . S
Co996 N993 2.135 . S
Co996 N999 2.121 1_554 S
Co996 O1004 2.055 . S
Co996 O1007 2.039 . S
Co996 N1010 2.140 . S
C997 O998 1.227 . S
C997 O1007 1.265 . S
O998 C997 1.227 . S
N999 Co996 2.121 1_556 S
N999 C1001 1.375 . S
N999 C1002 1.313 . S
C1000 C1001 1.338 . S
C1000 N1003 1.377 . S
C1000 H1020 0.930 . S
C1001 N999 1.375 . S
C1001 C1000 1.338 . S
C1001 H1005 0.931 . S
C1002 N999 1.313 . S
C1002 N1003 1.344 . S
C1002 H1006 0.930 . S
N1003 C1000 1.377 . S
N1003 C1002 1.344 . S
O1004 Co996 2.055 . S
O1004 C1008 1.253 . S
H1005 C1001 0.931 . S
H1006 C1002 0.930 . S
O1007 Co996 2.039 . S
O1007 C997 1.265 . S
C1008 O1004 1.253 . S
C1008 O1009 1.227 . S
O1009 C1008 1.227 . S
N1010 Co996 2.140 . S
N1010 C1013 1.346 . S
N1010 C1014 1.345 . S
C1011 C1012 1.387 . S
C1011 C1015 1.391 . S
C1012 C1011 1.387 . S
C1012 C1013 1.369 . S
C1012 H1021 0.929 . S
C1013 N1010 1.346 . S
C1013 C1012 1.369 . S
C1013 H1016 0.928 . S
C1014 N1010 1.345 . S
C1014 C1015 1.371 . S
C1014 H1017 0.931 1_554 S
C1015 C1011 1.391 . S
C1015 C1014 1.371 . S
C1015 H1022 0.930 1_554 S
H1016 C1013 0.928 . S
H1017 C1014 0.931 1_556 S
H1018 C994 0.930 . S
H1019 C991 0.930 . S
H1020 C1000 0.930 . S
H1021 C1012 0.929 . S
H1022 C1015 0.930 1_556 S
C1023 C1024 1.351 1_556 S
C1023 N1026 1.368 . S
C1023 H1028 0.931 . S
C1024 C1023 1.351 1_554 S
C1024 N1025 1.373 . S
C1024 H1052 0.930 . S
N1025 C1024 1.373 . S
N1025 C1027 1.340 . S
N1026 C1023 1.368 . S
N1026 C1027 1.321 1_556 S
N1026 Co1029 2.135 . S
C1027 N1025 1.340 . S
C1027 N1026 1.321 1_554 S
C1027 H1051 0.930 . S
H1028 C1023 0.931 . S
Co1029 N1026 2.135 . S
Co1029 N1032 2.121 . S
Co1029 O1037 2.055 . S
Co1029 O1040 2.039 . S
Co1029 N1043 2.140 . S
C1030 O1031 1.227 . S
C1030 O1040 1.265 . S
O1031 C1030 1.227 . S
N1032 Co1029 2.121 . S
N1032 C1034 1.375 . S
N1032 C1035 1.313 . S
C1033 C1034 1.338 . S
C1033 N1036 1.377 . S
C1033 H1053 0.930 . S
C1034 N1032 1.375 . S
C1034 C1033 1.338 . S
C1034 H1038 0.931 . S
C1035 N1032 1.313 . S
C1035 N1036 1.344 . S
C1035 H1039 0.930 . S
N1036 C1033 1.377 . S
N1036 C1035 1.344 . S
O1037 Co1029 2.055 . S
O1037 C1041 1.253 . S
H1038 C1034 0.931 . S
H1039 C1035 0.930 . S
O1040 Co1029 2.039 . S
O1040 C1030 1.265 . S
C1041 O1037 1.253 . S
C1041 O1042 1.227 . S
O1042 C1041 1.227 . S
N1043 Co1029 2.140 . S
N1043 C1046 1.346 . S
N1043 C1047 1.345 . S
C1044 C1045 1.387 . S
C1044 C1048 1.391 . S
C1045 C1044 1.387 . S
C1045 C1046 1.369 . S
C1045 H1054 0.929 . S
C1046 N1043 1.346 . S
C1046 C1045 1.369 . S
C1046 H1049 0.928 . S
C1047 N1043 1.345 . S
C1047 C1048 1.371 . S
C1047 H1050 0.931 . S
C1048 C1044 1.391 . S
C1048 C1047 1.371 . S
C1048 H1055 0.930 . S
H1049 C1046 0.928 . S
H1050 C1047 0.931 . S
H1051 C1027 0.930 . S
H1052 C1024 0.930 . S
H1053 C1033 0.930 . S
H1054 C1045 0.929 . S
H1055 C1048 0.930 . S
H1056 C1062 0.930 . S
H1057 C1066 0.930 1_556 S
H1058 C1071 0.929 1_556 S
H1059 C1069 0.929 . S
H1060 C1064 0.929 1_556 S
H1061 C1070 0.929 . S
C1062 H1056 0.930 . S
C1062 C1063 1.367 . S
C1062 C1070 1.378 . S
C1063 C1062 1.367 . S
C1063 C1071 1.433 . S
C1064 H1060 0.929 1_554 S
C1064 C1066 1.378 . S
C1064 C1068 1.350 . S
C1065 C1068 1.463 . S
C1065 C1070 1.350 . S
C1065 N1073 1.427 . S
C1066 H1057 0.930 1_554 S
C1066 C1064 1.378 . S
C1066 C1067 1.367 . S
C1067 C1066 1.367 . S
C1067 C1069 1.433 . S
C1068 C1064 1.350 . S
C1068 C1065 1.463 . S
C1068 N1072 1.427 . S
C1069 H1059 0.929 . S
C1069 C1067 1.433 . S
C1069 N1072 1.384 . S
C1070 H1061 0.929 . S
C1070 C1062 1.378 . S
C1070 C1065 1.350 . S
C1071 H1058 0.929 1_554 S
C1071 C1063 1.433 . S
C1071 N1073 1.384 . S
N1072 C1068 1.427 . S
N1072 C1069 1.384 . S
N1073 C1065 1.427 . S
N1073 C1071 1.384 . S
H1074 C1080 0.930 . S
H1075 C1084 0.930 . S
H1076 C1089 0.929 . S
H1077 C1087 0.929 . S
H1078 C1082 0.929 . S
H1079 C1088 0.929 . S
C1080 H1074 0.930 . S
C1080 C1081 1.367 . S
C1080 C1088 1.378 . S
C1081 C1080 1.367 . S
C1081 C1089 1.433 . S
C1082 H1078 0.929 . S
C1082 C1084 1.378 . S
C1082 C1086 1.350 . S
C1083 C1086 1.463 1_455 S
C1083 C1088 1.350 . S
C1083 N1091 1.427 . S
C1084 H1075 0.930 . S
C1084 C1082 1.378 . S
C1084 C1085 1.367 . S
C1085 C1084 1.367 . S
C1085 C1087 1.433 . S
C1086 C1082 1.350 . S
C1086 C1083 1.463 1_655 S
C1086 N1090 1.427 . S
C1087 H1077 0.929 . S
C1087 C1085 1.433 . S
C1087 N1090 1.384 . S
C1088 H1079 0.929 . S
C1088 C1080 1.378 . S
C1088 C1083 1.350 . S
C1089 H1076 0.929 . S
C1089 C1081 1.433 . S
C1089 N1091 1.384 . S
N1090 C1086 1.427 . S
N1090 C1087 1.384 . S
N1091 C1083 1.427 . S
N1091 C1089 1.384 . S
H1092 C1098 0.930 . S
H1093 C1102 0.930 . S
H1094 C1107 0.929 . S
H1095 C1105 0.929 . S
H1096 C1100 0.929 . S
H1097 C1106 0.929 . S
C1098 H1092 0.930 . S
C1098 C1099 1.367 . S
C1098 C1106 1.378 . S
C1099 C1098 1.367 . S
C1099 C1107 1.433 . S
C1100 H1096 0.929 . S
C1100 C1102 1.378 . S
C1100 C1104 1.350 . S
C1101 C1104 1.463 . S
C1101 C1106 1.350 . S
C1101 N1109 1.427 . S
C1102 H1093 0.930 . S
C1102 C1100 1.378 . S
C1102 C1103 1.367 . S
C1103 C1102 1.367 . S
C1103 C1105 1.433 . S
C1104 C1100 1.350 . S
C1104 C1101 1.463 . S
C1104 N1108 1.427 . S
C1105 H1095 0.929 . S
C1105 C1103 1.433 . S
C1105 N1108 1.384 . S
C1106 H1097 0.929 . S
C1106 C1098 1.378 . S
C1106 C1101 1.350 . S
C1107 H1094 0.929 . S
C1107 C1099 1.433 . S
C1107 N1109 1.384 . S
N1108 C1104 1.427 . S
N1108 C1105 1.384 . S
N1109 C1101 1.427 . S
N1109 C1107 1.384 . S
H1110 C1116 0.930 . S
H1111 C1120 0.930 . S
H1112 C1125 0.929 . S
H1113 C1123 0.929 . S
H1114 C1118 0.929 . S
H1115 C1124 0.929 . S
C1116 H1110 0.930 . S
C1116 C1117 1.367 . S
C1116 C1124 1.378 . S
C1117 C1116 1.367 . S
C1117 C1125 1.433 . S
C1118 H1114 0.929 . S
C1118 C1120 1.378 . S
C1118 C1122 1.350 . S
C1119 C1122 1.463 . S
C1119 C1124 1.350 . S
C1119 N1127 1.427 . S
C1120 H1111 0.930 . S
C1120 C1118 1.378 . S
C1120 C1121 1.367 . S
C1121 C1120 1.367 . S
C1121 C1123 1.433 . S
C1122 C1118 1.350 . S
C1122 C1119 1.463 . S
C1122 N1126 1.427 . S
C1123 H1113 0.929 . S
C1123 C1121 1.433 . S
C1123 N1126 1.384 . S
C1124 H1115 0.929 . S
C1124 C1116 1.378 . S
C1124 C1119 1.350 . S
C1125 H1112 0.929 . S
C1125 C1117 1.433 . S
C1125 N1127 1.384 . S
N1126 C1122 1.427 . S
N1126 C1123 1.384 . S
N1127 C1119 1.427 . S
N1127 C1125 1.384 . S
H1128 C1134 0.930 . S
H1129 C1138 0.930 1_554 S
H1130 C1143 0.929 1_554 S
H1131 C1141 0.929 . S
H1132 C1136 0.929 1_554 S
H1133 C1142 0.929 . S
C1134 H1128 0.930 . S
C1134 C1135 1.367 . S
C1134 C1142 1.378 . S
C1135 C1134 1.367 . S
C1135 C1143 1.433 . S
C1136 H1132 0.929 1_556 S
C1136 C1138 1.378 . S
C1136 C1140 1.350 . S
C1137 C1140 1.463 . S
C1137 C1142 1.350 . S
C1137 N1145 1.427 . S
C1138 H1129 0.930 1_556 S
C1138 C1136 1.378 . S
C1138 C1139 1.367 . S
C1139 C1138 1.367 . S
C1139 C1141 1.433 . S
C1140 C1136 1.350 . S
C1140 C1137 1.463 . S
C1140 N1144 1.427 . S
C1141 H1131 0.929 . S
C1141 C1139 1.433 . S
C1141 N1144 1.384 . S
C1142 H1133 0.929 . S
C1142 C1134 1.378 . S
C1142 C1137 1.350 . S
C1143 H1130 0.929 1_556 S
C1143 C1135 1.433 . S
C1143 N1145 1.384 . S
N1144 C1140 1.427 . S
N1144 C1141 1.384 . S
N1145 C1137 1.427 . S
N1145 C1143 1.384 . S
H1146 C1152 0.930 . S
H1147 C1156 0.930 . S
H1148 C1161 0.929 . S
H1149 C1159 0.929 . S
H1150 C1154 0.929 . S
H1151 C1160 0.929 . S
C1152 H1146 0.930 . S
C1152 C1153 1.367 . S
C1152 C1160 1.378 . S
C1153 C1152 1.367 . S
C1153 C1161 1.433 . S
C1154 H1150 0.929 . S
C1154 C1156 1.378 . S
C1154 C1158 1.350 . S
C1155 C1158 1.463 . S
C1155 C1160 1.350 . S
C1155 N1163 1.427 . S
C1156 H1147 0.930 . S
C1156 C1154 1.378 . S
C1156 C1157 1.367 . S
C1157 C1156 1.367 . S
C1157 C1159 1.433 . S
C1158 C1154 1.350 . S
C1158 C1155 1.463 . S
C1158 N1162 1.427 . S
C1159 H1149 0.929 . S
C1159 C1157 1.433 . S
C1159 N1162 1.384 . S
C1160 H1151 0.929 . S
C1160 C1152 1.378 . S
C1160 C1155 1.350 . S
C1161 H1148 0.929 . S
C1161 C1153 1.433 . S
C1161 N1163 1.384 . S
N1162 C1158 1.427 . S
N1162 C1159 1.384 . S
N1163 C1155 1.427 . S
N1163 C1161 1.384 . S
H1164 C1170 0.930 . S
H1165 C1174 0.930 . S
H1166 C1179 0.929 . S
H1167 C1177 0.929 . S
H1168 C1172 0.929 . S
H1169 C1178 0.929 . S
C1170 H1164 0.930 . S
C1170 C1171 1.367 . S
C1170 C1178 1.378 . S
C1171 C1170 1.367 . S
C1171 C1179 1.433 . S
C1172 H1168 0.929 . S
C1172 C1174 1.378 . S
C1172 C1176 1.350 . S
C1173 C1176 1.463 . S
C1173 C1178 1.350 . S
C1173 N1181 1.427 . S
C1174 H1165 0.930 . S
C1174 C1172 1.378 . S
C1174 C1175 1.367 . S
C1175 C1174 1.367 . S
C1175 C1177 1.433 . S
C1176 C1172 1.350 . S
C1176 C1173 1.463 . S
C1176 N1180 1.427 . S
C1177 H1167 0.929 . S
C1177 C1175 1.433 . S
C1177 N1180 1.384 . S
C1178 H1169 0.929 . S
C1178 C1170 1.378 . S
C1178 C1173 1.350 . S
C1179 H1166 0.929 . S
C1179 C1171 1.433 . S
C1179 N1181 1.384 . S
N1180 C1176 1.427 . S
N1180 C1177 1.384 . S
N1181 C1173 1.427 . S
N1181 C1179 1.384 . S
H1182 C1188 0.930 . S
H1183 C1192 0.930 . S
H1184 C1197 0.929 . S
H1185 C1195 0.929 . S
H1186 C1190 0.929 . S
H1187 C1196 0.929 . S
C1188 H1182 0.930 . S
C1188 C1189 1.367 . S
C1188 C1196 1.378 . S
C1189 C1188 1.367 . S
C1189 C1197 1.433 . S
C1190 H1186 0.929 . S
C1190 C1192 1.378 . S
C1190 C1194 1.350 . S
C1191 C1194 1.463 1_655 S
C1191 C1196 1.350 . S
C1191 N1199 1.427 . S
C1192 H1183 0.930 . S
C1192 C1190 1.378 . S
C1192 C1193 1.367 . S
C1193 C1192 1.367 . S
C1193 C1195 1.433 . S
C1194 C1190 1.350 . S
C1194 C1191 1.463 1_455 S
C1194 N1198 1.427 . S
C1195 H1185 0.929 . S
C1195 C1193 1.433 . S
C1195 N1198 1.384 . S
C1196 H1187 0.929 . S
C1196 C1188 1.378 . S
C1196 C1191 1.350 . S
C1197 H1184 0.929 . S
C1197 C1189 1.433 . S
C1197 N1199 1.384 . S
N1198 C1194 1.427 . S
N1198 C1195 1.384 . S
N1199 C1191 1.427 . S
N1199 C1197 1.384 . S
H1200 C1206 0.930 1_554 S
H1201 C1210 0.930 . S
H1202 C1215 0.929 . S
H1203 C1213 0.929 1_554 S
H1204 C1208 0.929 . S
H1205 C1214 0.929 1_554 S
C1206 H1200 0.930 1_556 S
C1206 C1207 1.367 . S
C1206 C1214 1.378 . S
C1207 C1206 1.367 . S
C1207 C1215 1.433 . S
C1208 H1204 0.929 . S
C1208 C1210 1.378 . S
C1208 C1212 1.350 . S
C1209 C1212 1.463 . S
C1209 C1214 1.350 . S
C1209 N1217 1.427 . S
C1210 H1201 0.930 . S
C1210 C1208 1.378 . S
C1210 C1211 1.367 . S
C1211 C1210 1.367 . S
C1211 C1213 1.433 . S
C1212 C1208 1.350 . S
C1212 C1209 1.463 . S
C1212 N1216 1.427 . S
C1213 H1203 0.929 1_556 S
C1213 C1211 1.433 . S
C1213 N1216 1.384 . S
C1214 H1205 0.929 1_556 S
C1214 C1206 1.378 . S
C1214 C1209 1.350 . S
C1215 H1202 0.929 . S
C1215 C1207 1.433 . S
C1215 N1217 1.384 . S
N1216 C1212 1.427 . S
N1216 C1213 1.384 . S
N1217 C1209 1.427 . S
N1217 C1215 1.384 . S
H1218 C1224 0.930 . S
H1219 C1228 0.930 . S
H1220 C1233 0.929 . S
H1221 C1231 0.929 . S
H1222 C1226 0.929 . S
H1223 C1232 0.929 . S
C1224 H1218 0.930 . S
C1224 C1225 1.367 . S
C1224 C1232 1.378 . S
C1225 C1224 1.367 . S
C1225 C1233 1.433 . S
C1226 H1222 0.929 . S
C1226 C1228 1.378 . S
C1226 C1230 1.350 . S
C1227 C1230 1.463 . S
C1227 C1232 1.350 . S
C1227 N1235 1.427 . S
C1228 H1219 0.930 . S
C1228 C1226 1.378 . S
C1228 C1229 1.367 . S
C1229 C1228 1.367 . S
C1229 C1231 1.433 . S
C1230 C1226 1.350 . S
C1230 C1227 1.463 . S
C1230 N1234 1.427 . S
C1231 H1221 0.929 . S
C1231 C1229 1.433 . S
C1231 N1234 1.384 . S
C1232 H1223 0.929 . S
C1232 C1224 1.378 . S
C1232 C1227 1.350 . S
C1233 H1220 0.929 . S
C1233 C1225 1.433 . S
C1233 N1235 1.384 . S
N1234 C1230 1.427 . S
N1234 C1231 1.384 . S
N1235 C1227 1.427 . S
N1235 C1233 1.384 . S
H1236 C1242 0.930 . S
H1237 C1246 0.930 . S
H1238 C1251 0.929 . S
H1239 C1249 0.929 . S
H1240 C1244 0.929 . S
H1241 C1250 0.929 . S
C1242 H1236 0.930 . S
C1242 C1243 1.367 . S
C1242 C1250 1.378 . S
C1243 C1242 1.367 . S
C1243 C1251 1.433 . S
C1244 H1240 0.929 . S
C1244 C1246 1.378 . S
C1244 C1248 1.350 . S
C1245 C1248 1.463 . S
C1245 C1250 1.350 . S
C1245 N1253 1.427 . S
C1246 H1237 0.930 . S
C1246 C1244 1.378 . S
C1246 C1247 1.367 . S
C1247 C1246 1.367 . S
C1247 C1249 1.433 . S
C1248 C1244 1.350 . S
C1248 C1245 1.463 . S
C1248 N1252 1.427 . S
C1249 H1239 0.929 . S
C1249 C1247 1.433 . S
C1249 N1252 1.384 . S
C1250 H1241 0.929 . S
C1250 C1242 1.378 . S
C1250 C1245 1.350 . S
C1251 H1238 0.929 . S
C1251 C1243 1.433 . S
C1251 N1253 1.384 . S
N1252 C1248 1.427 . S
N1252 C1249 1.384 . S
N1253 C1245 1.427 . S
N1253 C1251 1.384 . S
H1254 C1260 0.930 . S
H1255 C1264 0.930 . S
H1256 C1269 0.929 . S
H1257 C1267 0.929 . S
H1258 C1262 0.929 . S
H1259 C1268 0.929 . S
C1260 H1254 0.930 . S
C1260 C1261 1.367 . S
C1260 C1268 1.378 . S
C1261 C1260 1.367 . S
C1261 C1269 1.433 . S
C1262 H1258 0.929 . S
C1262 C1264 1.378 . S
C1262 C1266 1.350 . S
C1263 C1266 1.463 . S
C1263 C1268 1.350 . S
C1263 N1271 1.427 . S
C1264 H1255 0.930 . S
C1264 C1262 1.378 . S
C1264 C1265 1.367 . S
C1265 C1264 1.367 . S
C1265 C1267 1.433 . S
C1266 C1262 1.350 . S
C1266 C1263 1.463 . S
C1266 N1270 1.427 . S
C1267 H1257 0.929 . S
C1267 C1265 1.433 . S
C1267 N1270 1.384 . S
C1268 H1259 0.929 . S
C1268 C1260 1.378 . S
C1268 C1263 1.350 . S
C1269 H1256 0.929 . S
C1269 C1261 1.433 . S
C1269 N1271 1.384 . S
N1270 C1266 1.427 . S
N1270 C1267 1.384 . S
N1271 C1263 1.427 . S
N1271 C1269 1.384 . S
H1272 C1278 0.930 . S
H1273 C1282 0.930 . S
H1274 C1287 0.929 . S
H1275 C1285 0.929 . S
H1276 C1280 0.929 . S
H1277 C1286 0.929 . S
C1278 H1272 0.930 . S
C1278 C1279 1.367 . S
C1278 C1286 1.378 . S
C1279 C1278 1.367 . S
C1279 C1287 1.433 . S
C1280 H1276 0.929 . S
C1280 C1282 1.378 . S
C1280 C1284 1.350 . S
C1281 C1284 1.463 . S
C1281 C1286 1.350 . S
C1281 N1289 1.427 . S
C1282 H1273 0.930 . S
C1282 C1280 1.378 . S
C1282 C1283 1.367 . S
C1283 C1282 1.367 . S
C1283 C1285 1.433 . S
C1284 C1280 1.350 . S
C1284 C1281 1.463 . S
C1284 N1288 1.427 . S
C1285 H1275 0.929 . S
C1285 C1283 1.433 . S
C1285 N1288 1.384 . S
C1286 H1277 0.929 . S
C1286 C1278 1.378 . S
C1286 C1281 1.350 . S
C1287 H1274 0.929 . S
C1287 C1279 1.433 . S
C1287 N1289 1.384 . S
N1288 C1284 1.427 . S
N1288 C1285 1.384 . S
N1289 C1281 1.427 . S
N1289 C1287 1.384 . S
H1290 C1296 0.930 . S
H1291 C1300 0.930 . S
H1292 C1305 0.929 . S
H1293 C1303 0.929 . S
H1294 C1298 0.929 . S
H1295 C1304 0.929 . S
C1296 H1290 0.930 . S
C1296 C1297 1.367 . S
C1296 C1304 1.378 . S
C1297 C1296 1.367 . S
C1297 C1305 1.433 . S
C1298 H1294 0.929 . S
C1298 C1300 1.378 . S
C1298 C1302 1.350 . S
C1299 C1302 1.463 1_455 S
C1299 C1304 1.350 . S
C1299 N1307 1.427 . S
C1300 H1291 0.930 . S
C1300 C1298 1.378 . S
C1300 C1301 1.367 . S
C1301 C1300 1.367 . S
C1301 C1303 1.433 . S
C1302 C1298 1.350 . S
C1302 C1299 1.463 1_655 S
C1302 N1306 1.427 . S
C1303 H1293 0.929 . S
C1303 C1301 1.433 . S
C1303 N1306 1.384 . S
C1304 H1295 0.929 . S
C1304 C1296 1.378 . S
C1304 C1299 1.350 . S
C1305 H1292 0.929 . S
C1305 C1297 1.433 . S
C1305 N1307 1.384 . S
N1306 C1302 1.427 . S
N1306 C1303 1.384 . S
N1307 C1299 1.427 . S
N1307 C1305 1.384 . S
H1308 C1314 0.930 . S
H1309 C1318 0.930 . S
H1310 C1323 0.929 . S
H1311 C1321 0.929 . S
H1312 C1316 0.929 . S
H1313 C1322 0.929 . S
C1314 H1308 0.930 . S
C1314 C1315 1.367 . S
C1314 C1322 1.378 . S
C1315 C1314 1.367 . S
C1315 C1323 1.433 . S
C1316 H1312 0.929 . S
C1316 C1318 1.378 . S
C1316 C1320 1.350 . S
C1317 C1320 1.463 1_455 S
C1317 C1322 1.350 . S
C1317 N1325 1.427 . S
C1318 H1309 0.930 . S
C1318 C1316 1.378 . S
C1318 C1319 1.367 . S
C1319 C1318 1.367 . S
C1319 C1321 1.433 . S
C1320 C1316 1.350 . S
C1320 C1317 1.463 1_655 S
C1320 N1324 1.427 . S
C1321 H1311 0.929 . S
C1321 C1319 1.433 . S
C1321 N1324 1.384 . S
C1322 H1313 0.929 . S
C1322 C1314 1.378 . S
C1322 C1317 1.350 . S
C1323 H1310 0.929 . S
C1323 C1315 1.433 . S
C1323 N1325 1.384 . S
N1324 C1320 1.427 . S
N1324 C1321 1.384 . S
N1325 C1317 1.427 . S
N1325 C1323 1.384 . S
H1326 C1332 0.930 . S
H1327 C1336 0.930 . S
H1328 C1341 0.929 . S
H1329 C1339 0.929 . S
H1330 C1334 0.929 . S
H1331 C1340 0.929 . S
C1332 H1326 0.930 . S
C1332 C1333 1.367 . S
C1332 C1340 1.378 . S
C1333 C1332 1.367 . S
C1333 C1341 1.433 . S
C1334 H1330 0.929 . S
C1334 C1336 1.378 . S
C1334 C1338 1.350 . S
C1335 C1338 1.463 . S
C1335 C1340 1.350 . S
C1335 N1343 1.427 . S
C1336 H1327 0.930 . S
C1336 C1334 1.378 . S
C1336 C1337 1.367 . S
C1337 C1336 1.367 . S
C1337 C1339 1.433 . S
C1338 C1334 1.350 . S
C1338 C1335 1.463 . S
C1338 N1342 1.427 . S
C1339 H1329 0.929 . S
C1339 C1337 1.433 . S
C1339 N1342 1.384 . S
C1340 H1331 0.929 . S
C1340 C1332 1.378 . S
C1340 C1335 1.350 . S
C1341 H1328 0.929 . S
C1341 C1333 1.433 . S
C1341 N1343 1.384 . S
N1342 C1338 1.427 . S
N1342 C1339 1.384 . S
N1343 C1335 1.427 . S
N1343 C1341 1.384 . S
H1344 C1350 0.930 . S
H1345 C1354 0.930 . S
H1346 C1359 0.929 . S
H1347 C1357 0.929 . S
H1348 C1352 0.929 . S
H1349 C1358 0.929 . S
C1350 H1344 0.930 . S
C1350 C1351 1.367 . S
C1350 C1358 1.378 . S
C1351 C1350 1.367 . S
C1351 C1359 1.433 . S
C1352 H1348 0.929 . S
C1352 C1354 1.378 . S
C1352 C1356 1.350 . S
C1353 C1356 1.463 . S
C1353 C1358 1.350 . S
C1353 N1361 1.427 . S
C1354 H1345 0.930 . S
C1354 C1352 1.378 . S
C1354 C1355 1.367 . S
C1355 C1354 1.367 . S
C1355 C1357 1.433 . S
C1356 C1352 1.350 . S
C1356 C1353 1.463 . S
C1356 N1360 1.427 . S
C1357 H1347 0.929 . S
C1357 C1355 1.433 . S
C1357 N1360 1.384 . S
C1358 H1349 0.929 . S
C1358 C1350 1.378 . S
C1358 C1353 1.350 . S
C1359 H1346 0.929 . S
C1359 C1351 1.433 . S
C1359 N1361 1.384 . S
N1360 C1356 1.427 . S
N1360 C1357 1.384 . S
N1361 C1353 1.427 . S
N1361 C1359 1.384 . S
H1362 C1368 0.930 . S
H1363 C1372 0.930 1_554 S
H1364 C1377 0.929 . S
H1365 C1375 0.929 . S
H1366 C1370 0.929 . S
H1367 C1376 0.929 . S
C1368 H1362 0.930 . S
C1368 C1369 1.367 . S
C1368 C1376 1.378 . S
C1369 C1368 1.367 . S
C1369 C1377 1.433 . S
C1370 H1366 0.929 . S
C1370 C1372 1.378 . S
C1370 C1374 1.350 . S
C1371 C1374 1.463 . S
C1371 C1376 1.350 . S
C1371 N1379 1.427 . S
C1372 H1363 0.930 1_556 S
C1372 C1370 1.378 . S
C1372 C1373 1.367 1_556 S
C1373 C1372 1.367 1_554 S
C1373 C1375 1.433 1_554 S
C1374 C1370 1.350 . S
C1374 C1371 1.463 . S
C1374 N1378 1.427 . S
C1375 H1365 0.929 . S
C1375 C1373 1.433 1_556 S
C1375 N1378 1.384 . S
C1376 H1367 0.929 . S
C1376 C1368 1.378 . S
C1376 C1371 1.350 . S
C1377 H1364 0.929 . S
C1377 C1369 1.433 . S
C1377 N1379 1.384 . S
N1378 C1374 1.427 . S
N1378 C1375 1.384 . S
N1379 C1371 1.427 . S
N1379 C1377 1.384 . S
H1380 C1386 0.930 . S
H1381 C1390 0.930 . S
H1382 C1395 0.929 . S
H1383 C1393 0.929 . S
H1384 C1388 0.929 . S
H1385 C1394 0.929 1_554 S
C1386 H1380 0.930 . S
C1386 C1387 1.367 . S
C1386 C1394 1.378 . S
C1387 C1386 1.367 . S
C1387 C1395 1.433 . S
C1388 H1384 0.929 . S
C1388 C1390 1.378 . S
C1388 C1392 1.350 . S
C1389 C1392 1.463 . S
C1389 C1394 1.350 1_554 S
C1389 N1397 1.427 . S
C1390 H1381 0.930 . S
C1390 C1388 1.378 . S
C1390 C1391 1.367 . S
C1391 C1390 1.367 . S
C1391 C1393 1.433 . S
C1392 C1388 1.350 . S
C1392 C1389 1.463 . S
C1392 N1396 1.427 . S
C1393 H1383 0.929 . S
C1393 C1391 1.433 . S
C1393 N1396 1.384 . S
C1394 H1385 0.929 1_556 S
C1394 C1386 1.378 . S
C1394 C1389 1.350 1_556 S
C1395 H1382 0.929 . S
C1395 C1387 1.433 . S
C1395 N1397 1.384 1_556 S
N1396 C1392 1.427 . S
N1396 C1393 1.384 . S
N1397 C1389 1.427 . S
N1397 C1395 1.384 1_554 S
H1398 C1404 0.930 . S
H1399 C1408 0.930 . S
H1400 C1413 0.929 . S
H1401 C1411 0.929 . S
H1402 C1406 0.929 . S
H1403 C1412 0.929 . S
C1404 H1398 0.930 . S
C1404 C1405 1.367 . S
C1404 C1412 1.378 . S
C1405 C1404 1.367 . S
C1405 C1413 1.433 . S
C1406 H1402 0.929 . S
C1406 C1408 1.378 . S
C1406 C1410 1.350 . S
C1407 C1410 1.463 . S
C1407 C1412 1.350 . S
C1407 N1415 1.427 . S
C1408 H1399 0.930 . S
C1408 C1406 1.378 . S
C1408 C1409 1.367 . S
C1409 C1408 1.367 . S
C1409 C1411 1.433 . S
C1410 C1406 1.350 . S
C1410 C1407 1.463 . S
C1410 N1414 1.427 . S
C1411 H1401 0.929 . S
C1411 C1409 1.433 . S
C1411 N1414 1.384 . S
C1412 H1403 0.929 . S
C1412 C1404 1.378 . S
C1412 C1407 1.350 . S
C1413 H1400 0.929 . S
C1413 C1405 1.433 . S
C1413 N1415 1.384 . S
N1414 C1410 1.427 . S
N1414 C1411 1.384 . S
N1415 C1407 1.427 . S
N1415 C1413 1.384 . S
H1416 C1422 0.930 . S
H1417 C1426 0.930 . S
H1418 C1431 0.929 . S
H1419 C1429 0.929 . S
H1420 C1424 0.929 . S
H1421 C1430 0.929 . S
C1422 H1416 0.930 . S
C1422 C1423 1.367 . S
C1422 C1430 1.378 . S
C1423 C1422 1.367 . S
C1423 C1431 1.433 . S
C1424 H1420 0.929 . S
C1424 C1426 1.378 . S
C1424 C1428 1.350 . S
C1425 C1428 1.463 . S
C1425 C1430 1.350 . S
C1425 N1433 1.427 . S
C1426 H1417 0.930 . S
C1426 C1424 1.378 . S
C1426 C1427 1.367 . S
C1427 C1426 1.367 . S
C1427 C1429 1.433 . S
C1428 C1424 1.350 . S
C1428 C1425 1.463 . S
C1428 N1432 1.427 . S
C1429 H1419 0.929 . S
C1429 C1427 1.433 . S
C1429 N1432 1.384 . S
C1430 H1421 0.929 . S
C1430 C1422 1.378 . S
C1430 C1425 1.350 . S
C1431 H1418 0.929 . S
C1431 C1423 1.433 . S
C1431 N1433 1.384 . S
N1432 C1428 1.427 . S
N1432 C1429 1.384 . S
N1433 C1425 1.427 . S
N1433 C1431 1.384 . S
H1434 C1440 0.930 . S
H1435 C1444 0.930 . S
H1436 C1449 0.929 . S
H1437 C1447 0.929 . S
H1438 C1442 0.929 . S
H1439 C1448 0.929 . S
C1440 H1434 0.930 . S
C1440 C1441 1.367 . S
C1440 C1448 1.378 . S
C1441 C1440 1.367 . S
C1441 C1449 1.433 . S
C1442 H1438 0.929 . S
C1442 C1444 1.378 . S
C1442 C1446 1.350 . S
C1443 C1446 1.463 . S
C1443 C1448 1.350 . S
C1443 N1451 1.427 . S
C1444 H1435 0.930 . S
C1444 C1442 1.378 . S
C1444 C1445 1.367 . S
C1445 C1444 1.367 . S
C1445 C1447 1.433 . S
C1446 C1442 1.350 . S
C1446 C1443 1.463 . S
C1446 N1450 1.427 . S
C1447 H1437 0.929 . S
C1447 C1445 1.433 . S
C1447 N1450 1.384 . S
C1448 H1439 0.929 . S
C1448 C1440 1.378 . S
C1448 C1443 1.350 . S
C1449 H1436 0.929 . S
C1449 C1441 1.433 . S
C1449 N1451 1.384 . S
N1450 C1446 1.427 . S
N1450 C1447 1.384 . S
N1451 C1443 1.427 . S
N1451 C1449 1.384 . S
H1452 C1458 0.930 . S
H1453 C1462 0.930 . S
H1454 C1467 0.929 . S
H1455 C1465 0.929 . S
H1456 C1460 0.929 . S
H1457 C1466 0.929 . S
C1458 H1452 0.930 . S
C1458 C1459 1.367 . S
C1458 C1466 1.378 . S
C1459 C1458 1.367 . S
C1459 C1467 1.433 . S
C1460 H1456 0.929 . S
C1460 C1462 1.378 1_556 S
C1460 C1464 1.350 . S
C1461 C1464 1.463 . S
C1461 C1466 1.350 . S
C1461 N1469 1.427 . S
C1462 H1453 0.930 . S
C1462 C1460 1.378 1_554 S
C1462 C1463 1.367 . S
C1463 C1462 1.367 . S
C1463 C1465 1.433 . S
C1464 C1460 1.350 . S
C1464 C1461 1.463 . S
C1464 N1468 1.427 1_556 S
C1465 H1455 0.929 . S
C1465 C1463 1.433 . S
C1465 N1468 1.384 . S
C1466 H1457 0.929 . S
C1466 C1458 1.378 . S
C1466 C1461 1.350 . S
C1467 H1454 0.929 . S
C1467 C1459 1.433 . S
C1467 N1469 1.384 . S
N1468 C1464 1.427 1_554 S
N1468 C1465 1.384 . S
N1469 C1461 1.427 . S
N1469 C1467 1.384 . S
H1470 C1476 0.930 . S
H1471 C1480 0.930 . S
H1472 C1485 0.929 . S
H1473 C1483 0.929 1_556 S
H1474 C1478 0.929 . S
H1475 C1484 0.929 . S
C1476 H1470 0.930 . S
C1476 C1477 1.367 . S
C1476 C1484 1.378 . S
C1477 C1476 1.367 . S
C1477 C1485 1.433 . S
C1478 H1474 0.929 . S
C1478 C1480 1.378 . S
C1478 C1482 1.350 . S
C1479 C1482 1.463 . S
C1479 C1484 1.350 . S
C1479 N1487 1.427 . S
C1480 H1471 0.930 . S
C1480 C1478 1.378 . S
C1480 C1481 1.367 1_554 S
C1481 C1480 1.367 1_556 S
C1481 C1483 1.433 1_556 S
C1482 C1478 1.350 . S
C1482 C1479 1.463 . S
C1482 N1486 1.427 . S
C1483 H1473 0.929 1_554 S
C1483 C1481 1.433 1_554 S
C1483 N1486 1.384 . S
C1484 H1475 0.929 . S
C1484 C1476 1.378 . S
C1484 C1479 1.350 . S
C1485 H1472 0.929 . S
C1485 C1477 1.433 . S
C1485 N1487 1.384 . S
N1486 C1482 1.427 . S
N1486 C1483 1.384 . S
N1487 C1479 1.427 . S
N1487 C1485 1.384 . S
H1488 C1494 0.930 . S
H1489 C1498 0.930 . S
H1490 C1503 0.929 . S
H1491 C1501 0.929 . S
H1492 C1496 0.929 . S
H1493 C1502 0.929 . S
C1494 H1488 0.930 . S
C1494 C1495 1.367 . S
C1494 C1502 1.378 . S
C1495 C1494 1.367 . S
C1495 C1503 1.433 . S
C1496 H1492 0.929 . S
C1496 C1498 1.378 . S
C1496 C1500 1.350 . S
C1497 C1500 1.463 . S
C1497 C1502 1.350 . S
C1497 N1505 1.427 . S
C1498 H1489 0.930 . S
C1498 C1496 1.378 . S
C1498 C1499 1.367 . S
C1499 C1498 1.367 . S
C1499 C1501 1.433 . S
C1500 C1496 1.350 . S
C1500 C1497 1.463 . S
C1500 N1504 1.427 . S
C1501 H1491 0.929 . S
C1501 C1499 1.433 . S
C1501 N1504 1.384 . S
C1502 H1493 0.929 . S
C1502 C1494 1.378 . S
C1502 C1497 1.350 . S
C1503 H1490 0.929 . S
C1503 C1495 1.433 . S
C1503 N1505 1.384 . S
N1504 C1500 1.427 . S
N1504 C1501 1.384 . S
N1505 C1497 1.427 . S
N1505 C1503 1.384 . S
H1506 C1512 0.930 1_556 S
H1507 C1516 0.930 . S
H1508 C1521 0.929 . S
H1509 C1519 0.929 . S
H1510 C1514 0.929 . S
H1511 C1520 0.929 . S
C1512 H1506 0.930 1_554 S
C1512 C1513 1.367 1_554 S
C1512 C1520 1.378 . S
C1513 C1512 1.367 1_556 S
C1513 C1521 1.433 1_556 S
C1514 H1510 0.929 . S
C1514 C1516 1.378 . S
C1514 C1518 1.350 . S
C1515 C1518 1.463 . S
C1515 C1520 1.350 . S
C1515 N1523 1.427 . S
C1516 H1507 0.930 . S
C1516 C1514 1.378 . S
C1516 C1517 1.367 . S
C1517 C1516 1.367 . S
C1517 C1519 1.433 . S
C1518 C1514 1.350 . S
C1518 C1515 1.463 . S
C1518 N1522 1.427 . S
C1519 H1509 0.929 . S
C1519 C1517 1.433 . S
C1519 N1522 1.384 . S
C1520 H1511 0.929 . S
C1520 C1512 1.378 . S
C1520 C1515 1.350 . S
C1521 H1508 0.929 . S
C1521 C1513 1.433 1_554 S
C1521 N1523 1.384 . S
N1522 C1518 1.427 . S
N1522 C1519 1.384 . S
N1523 C1515 1.427 . S
N1523 C1521 1.384 . S
H1524 C1530 0.930 . S
H1525 C1534 0.930 . S
H1526 C1539 0.929 . S
H1527 C1537 0.929 . S
H1528 C1532 0.929 . S
H1529 C1538 0.929 1_556 S
C1530 H1524 0.930 . S
C1530 C1531 1.367 . S
C1530 C1538 1.378 . S
C1531 C1530 1.367 . S
C1531 C1539 1.433 . S
C1532 H1528 0.929 . S
C1532 C1534 1.378 . S
C1532 C1536 1.350 . S
C1533 C1536 1.463 . S
C1533 C1538 1.350 1_556 S
C1533 N1541 1.427 . S
C1534 H1525 0.930 . S
C1534 C1532 1.378 . S
C1534 C1535 1.367 . S
C1535 C1534 1.367 . S
C1535 C1537 1.433 . S
C1536 C1532 1.350 . S
C1536 C1533 1.463 . S
C1536 N1540 1.427 . S
C1537 H1527 0.929 . S
C1537 C1535 1.433 . S
C1537 N1540 1.384 . S
C1538 H1529 0.929 1_554 S
C1538 C1530 1.378 . S
C1538 C1533 1.350 1_554 S
C1539 H1526 0.929 . S
C1539 C1531 1.433 . S
C1539 N1541 1.384 1_554 S
N1540 C1536 1.427 . S
N1540 C1537 1.384 . S
N1541 C1533 1.427 . S
N1541 C1539 1.384 1_556 S
H1542 C1548 0.930 . S
H1543 C1552 0.930 . S
H1544 C1557 0.929 . S
H1545 C1555 0.929 . S
H1546 C1550 0.929 . S
H1547 C1556 0.929 . S
C1548 H1542 0.930 . S
C1548 C1549 1.367 . S
C1548 C1556 1.378 . S
C1549 C1548 1.367 . S
C1549 C1557 1.433 . S
C1550 H1546 0.929 . S
C1550 C1552 1.378 . S
C1550 C1554 1.350 . S
C1551 C1554 1.463 . S
C1551 C1556 1.350 . S
C1551 N1559 1.427 . S
C1552 H1543 0.930 . S
C1552 C1550 1.378 . S
C1552 C1553 1.367 . S
C1553 C1552 1.367 . S
C1553 C1555 1.433 . S
C1554 C1550 1.350 . S
C1554 C1551 1.463 . S
C1554 N1558 1.427 . S
C1555 H1545 0.929 . S
C1555 C1553 1.433 . S
C1555 N1558 1.384 . S
C1556 H1547 0.929 . S
C1556 C1548 1.378 . S
C1556 C1551 1.350 . S
C1557 H1544 0.929 . S
C1557 C1549 1.433 . S
C1557 N1559 1.384 . S
N1558 C1554 1.427 . S
N1558 C1555 1.384 . S
N1559 C1551 1.427 . S
N1559 C1557 1.384 . S
H1560 C1566 0.930 . S
H1561 C1570 0.930 . S
H1562 C1575 0.929 . S
H1563 C1573 0.929 . S
H1564 C1568 0.929 . S
H1565 C1574 0.929 . S
C1566 H1560 0.930 . S
C1566 C1567 1.367 . S
C1566 C1574 1.378 . S
C1567 C1566 1.367 . S
C1567 C1575 1.433 . S
C1568 H1564 0.929 . S
C1568 C1570 1.378 . S
C1568 C1572 1.350 . S
C1569 C1572 1.463 . S
C1569 C1574 1.350 . S
C1569 N1577 1.427 . S
C1570 H1561 0.930 . S
C1570 C1568 1.378 . S
C1570 C1571 1.367 . S
C1571 C1570 1.367 . S
C1571 C1573 1.433 . S
C1572 C1568 1.350 . S
C1572 C1569 1.463 . S
C1572 N1576 1.427 . S
C1573 H1563 0.929 . S
C1573 C1571 1.433 . S
C1573 N1576 1.384 . S
C1574 H1565 0.929 . S
C1574 C1566 1.378 . S
C1574 C1569 1.350 . S
C1575 H1562 0.929 . S
C1575 C1567 1.433 . S
C1575 N1577 1.384 . S
N1576 C1572 1.427 . S
N1576 C1573 1.384 . S
N1577 C1569 1.427 . S
N1577 C1575 1.384 . S
H1578 C1584 0.930 . S
H1579 C1588 0.930 . S
H1580 C1593 0.929 . S
H1581 C1591 0.929 . S
H1582 C1586 0.929 . S
H1583 C1592 0.929 . S
C1584 H1578 0.930 . S
C1584 C1585 1.367 . S
C1584 C1592 1.378 . S
C1585 C1584 1.367 . S
C1585 C1593 1.433 . S
C1586 H1582 0.929 . S
C1586 C1588 1.378 . S
C1586 C1590 1.350 . S
C1587 C1590 1.463 . S
C1587 C1592 1.350 . S
C1587 N1595 1.427 . S
C1588 H1579 0.930 . S
C1588 C1586 1.378 . S
C1588 C1589 1.367 . S
C1589 C1588 1.367 . S
C1589 C1591 1.433 . S
C1590 C1586 1.350 . S
C1590 C1587 1.463 . S
C1590 N1594 1.427 . S
C1591 H1581 0.929 . S
C1591 C1589 1.433 . S
C1591 N1594 1.384 . S
C1592 H1583 0.929 . S
C1592 C1584 1.378 . S
C1592 C1587 1.350 . S
C1593 H1580 0.929 . S
C1593 C1585 1.433 . S
C1593 N1595 1.384 . S
N1594 C1590 1.427 . S
N1594 C1591 1.384 . S
N1595 C1587 1.427 . S
N1595 C1593 1.384 . S
H1596 C1602 0.930 . S
H1597 C1606 0.930 . S
H1598 C1611 0.929 . S
H1599 C1609 0.929 . S
H1600 C1604 0.929 . S
H1601 C1610 0.929 1_554 S
C1602 H1596 0.930 . S
C1602 C1603 1.367 . S
C1602 C1610 1.378 . S
C1603 C1602 1.367 . S
C1603 C1611 1.433 . S
C1604 H1600 0.929 . S
C1604 C1606 1.378 . S
C1604 C1608 1.350 . S
C1605 C1608 1.463 . S
C1605 C1610 1.350 1_554 S
C1605 N1613 1.427 . S
C1606 H1597 0.930 . S
C1606 C1604 1.378 . S
C1606 C1607 1.367 . S
C1607 C1606 1.367 . S
C1607 C1609 1.433 . S
C1608 C1604 1.350 . S
C1608 C1605 1.463 . S
C1608 N1612 1.427 . S
C1609 H1599 0.929 . S
C1609 C1607 1.433 . S
C1609 N1612 1.384 . S
C1610 H1601 0.929 1_556 S
C1610 C1602 1.378 . S
C1610 C1605 1.350 1_556 S
C1611 H1598 0.929 . S
C1611 C1603 1.433 . S
C1611 N1613 1.384 1_556 S
N1612 C1608 1.427 . S
N1612 C1609 1.384 . S
N1613 C1605 1.427 . S
N1613 C1611 1.384 1_554 S
H1614 C1620 0.930 1_554 S
H1615 C1624 0.930 . S
H1616 C1629 0.929 . S
H1617 C1627 0.929 . S
H1618 C1622 0.929 . S
H1619 C1628 0.929 . S
C1620 H1614 0.930 1_556 S
C1620 C1621 1.367 1_556 S
C1620 C1628 1.378 . S
C1621 C1620 1.367 1_554 S
C1621 C1629 1.433 1_554 S
C1622 H1618 0.929 . S
C1622 C1624 1.378 . S
C1622 C1626 1.350 . S
C1623 C1626 1.463 . S
C1623 C1628 1.350 . S
C1623 N1631 1.427 . S
C1624 H1615 0.930 . S
C1624 C1622 1.378 . S
C1624 C1625 1.367 . S
C1625 C1624 1.367 . S
C1625 C1627 1.433 . S
C1626 C1622 1.350 . S
C1626 C1623 1.463 . S
C1626 N1630 1.427 . S
C1627 H1617 0.929 . S
C1627 C1625 1.433 . S
C1627 N1630 1.384 . S
C1628 H1619 0.929 . S
C1628 C1620 1.378 . S
C1628 C1623 1.350 . S
C1629 H1616 0.929 . S
C1629 C1621 1.433 1_556 S
C1629 N1631 1.384 . S
N1630 C1626 1.427 . S
N1630 C1627 1.384 . S
N1631 C1623 1.427 . S
N1631 C1629 1.384 . S
H1632 C1638 0.930 . S
H1633 C1642 0.930 . S
H1634 C1647 0.929 . S
H1635 C1645 0.929 . S
H1636 C1640 0.929 . S
H1637 C1646 0.929 . S
C1638 H1632 0.930 . S
C1638 C1639 1.367 . S
C1638 C1646 1.378 . S
C1639 C1638 1.367 . S
C1639 C1647 1.433 . S
C1640 H1636 0.929 . S
C1640 C1642 1.378 1_554 S
C1640 C1644 1.350 . S
C1641 C1644 1.463 . S
C1641 C1646 1.350 . S
C1641 N1649 1.427 . S
C1642 H1633 0.930 . S
C1642 C1640 1.378 1_556 S
C1642 C1643 1.367 . S
C1643 C1642 1.367 . S
C1643 C1645 1.433 . S
C1644 C1640 1.350 . S
C1644 C1641 1.463 . S
C1644 N1648 1.427 1_554 S
C1645 H1635 0.929 . S
C1645 C1643 1.433 . S
C1645 N1648 1.384 . S
C1646 H1637 0.929 . S
C1646 C1638 1.378 . S
C1646 C1641 1.350 . S
C1647 H1634 0.929 . S
C1647 C1639 1.433 . S
C1647 N1649 1.384 . S
N1648 C1644 1.427 1_556 S
N1648 C1645 1.384 . S
N1649 C1641 1.427 . S
N1649 C1647 1.384 . S
H1650 C1656 0.930 . S
H1651 C1660 0.930 . S
H1652 C1665 0.929 . S
H1653 C1663 0.929 . S
H1654 C1658 0.929 . S
H1655 C1664 0.929 . S
C1656 H1650 0.930 . S
C1656 C1657 1.367 . S
C1656 C1664 1.378 . S
C1657 C1656 1.367 . S
C1657 C1665 1.433 . S
C1658 H1654 0.929 . S
C1658 C1660 1.378 . S
C1658 C1662 1.350 . S
C1659 C1662 1.463 . S
C1659 C1664 1.350 . S
C1659 N1667 1.427 . S
C1660 H1651 0.930 . S
C1660 C1658 1.378 . S
C1660 C1661 1.367 . S
C1661 C1660 1.367 . S
C1661 C1663 1.433 . S
C1662 C1658 1.350 . S
C1662 C1659 1.463 . S
C1662 N1666 1.427 . S
C1663 H1653 0.929 . S
C1663 C1661 1.433 . S
C1663 N1666 1.384 . S
C1664 H1655 0.929 . S
C1664 C1656 1.378 . S
C1664 C1659 1.350 . S
C1665 H1652 0.929 . S
C1665 C1657 1.433 . S
C1665 N1667 1.384 . S
N1666 C1662 1.427 . S
N1666 C1663 1.384 . S
N1667 C1659 1.427 . S
N1667 C1665 1.384 . S
H1668 C1674 0.930 . S
H1669 C1678 0.930 . S
H1670 C1683 0.929 . S
H1671 C1681 0.929 . S
H1672 C1676 0.929 . S
H1673 C1682 0.929 . S
C1674 H1668 0.930 . S
C1674 C1675 1.367 . S
C1674 C1682 1.378 . S
C1675 C1674 1.367 . S
C1675 C1683 1.433 . S
C1676 H1672 0.929 . S
C1676 C1678 1.378 . S
C1676 C1680 1.350 . S
C1677 C1680 1.463 . S
C1677 C1682 1.350 . S
C1677 N1685 1.427 . S
C1678 H1669 0.930 . S
C1678 C1676 1.378 . S
C1678 C1679 1.367 . S
C1679 C1678 1.367 . S
C1679 C1681 1.433 . S
C1680 C1676 1.350 . S
C1680 C1677 1.463 . S
C1680 N1684 1.427 . S
C1681 H1671 0.929 . S
C1681 C1679 1.433 . S
C1681 N1684 1.384 . S
C1682 H1673 0.929 . S
C1682 C1674 1.378 . S
C1682 C1677 1.350 . S
C1683 H1670 0.929 . S
C1683 C1675 1.433 . S
C1683 N1685 1.384 . S
N1684 C1680 1.427 . S
N1684 C1681 1.384 . S
N1685 C1677 1.427 . S
N1685 C1683 1.384 . S
H1686 C1692 0.930 1_554 S
H1687 C1696 0.930 . S
H1688 C1701 0.929 . S
H1689 C1699 0.929 . S
H1690 C1694 0.929 . S
H1691 C1700 0.929 . S
C1692 H1686 0.930 1_556 S
C1692 C1693 1.367 1_556 S
C1692 C1700 1.378 . S
C1693 C1692 1.367 1_554 S
C1693 C1701 1.433 1_554 S
C1694 H1690 0.929 . S
C1694 C1696 1.378 . S
C1694 C1698 1.350 . S
C1695 C1698 1.463 . S
C1695 C1700 1.350 . S
C1695 N1703 1.427 . S
C1696 H1687 0.930 . S
C1696 C1694 1.378 . S
C1696 C1697 1.367 . S
C1697 C1696 1.367 . S
C1697 C1699 1.433 . S
C1698 C1694 1.350 . S
C1698 C1695 1.463 . S
C1698 N1702 1.427 . S
C1699 H1689 0.929 . S
C1699 C1697 1.433 . S
C1699 N1702 1.384 . S
C1700 H1691 0.929 . S
C1700 C1692 1.378 . S
C1700 C1695 1.350 . S
C1701 H1688 0.929 . S
C1701 C1693 1.433 1_556 S
C1701 N1703 1.384 . S
N1702 C1698 1.427 . S
N1702 C1699 1.384 . S
N1703 C1695 1.427 . S
N1703 C1701 1.384 . S
H1704 C1710 0.930 . S
H1705 C1714 0.930 . S
H1706 C1719 0.929 . S
H1707 C1717 0.929 . S
H1708 C1712 0.929 1_556 S
H1709 C1718 0.929 . S
C1710 H1704 0.930 . S
C1710 C1711 1.367 . S
C1710 C1718 1.378 . S
C1711 C1710 1.367 . S
C1711 C1719 1.433 . S
C1712 H1708 0.929 1_554 S
C1712 C1714 1.378 . S
C1712 C1716 1.350 1_554 S
C1713 C1716 1.463 . S
C1713 C1718 1.350 . S
C1713 N1721 1.427 . S
C1714 H1705 0.930 . S
C1714 C1712 1.378 . S
C1714 C1715 1.367 . S
C1715 C1714 1.367 . S
C1715 C1717 1.433 . S
C1716 C1712 1.350 1_556 S
C1716 C1713 1.463 . S
C1716 N1720 1.424 1_556 S
C1717 H1707 0.929 . S
C1717 C1715 1.433 . S
C1717 N1720 1.391 . S
C1718 H1709 0.929 . S
C1718 C1710 1.378 . S
C1718 C1713 1.350 . S
C1719 H1706 0.929 . S
C1719 C1711 1.433 . S
C1719 N1721 1.384 . S
N1720 C1716 1.424 1_554 S
N1720 C1717 1.391 . S
N1721 C1713 1.427 . S
N1721 C1719 1.384 . S
H1722 C1728 0.930 1_556 S
H1723 C1732 0.930 . S
H1724 C1737 0.935 . S
H1725 C1735 0.929 . S
H1726 C1730 0.929 . S
H1727 C1736 0.929 . S
C1728 H1722 0.930 1_554 S
C1728 C1729 1.367 1_554 S
C1728 C1736 1.378 . S
C1729 C1728 1.367 1_556 S
C1729 C1737 1.433 1_556 S
C1730 H1726 0.929 . S
C1730 C1732 1.378 . S
C1730 C1734 1.350 . S
C1731 C1734 1.463 . S
C1731 C1736 1.350 . S
C1731 N1739 1.427 . S
C1732 H1723 0.930 . S
C1732 C1730 1.378 . S
C1732 C1733 1.367 . S
C1733 C1732 1.367 . S
C1733 C1735 1.433 . S
C1734 C1730 1.350 . S
C1734 C1731 1.463 . S
C1734 N1738 1.427 . S
C1735 H1725 0.929 . S
C1735 C1733 1.433 . S
C1735 N1738 1.384 . S
C1736 H1727 0.929 . S
C1736 C1728 1.378 . S
C1736 C1731 1.350 . S
C1737 H1724 0.935 . S
C1737 C1729 1.433 1_554 S
C1737 N1739 1.384 . S
N1738 C1734 1.427 . S
N1738 C1735 1.384 . S
N1739 C1731 1.427 . S
N1739 C1737 1.384 . S
H1740 C1746 0.930 . S
H1741 C1750 0.930 . S
H1742 C1755 0.929 . S
H1743 C1753 0.929 . S
H1744 C1748 0.929 . S
H1745 C1754 0.929 . S
C1746 H1740 0.930 . S
C1746 C1747 1.367 . S
C1746 C1754 1.378 . S
C1747 C1746 1.367 . S
C1747 C1755 1.433 . S
C1748 H1744 0.929 . S
C1748 C1750 1.378 . S
C1748 C1752 1.350 . S
C1749 C1752 1.463 . S
C1749 C1754 1.350 . S
C1749 N1757 1.427 . S
C1750 H1741 0.930 . S
C1750 C1748 1.378 . S
C1750 C1751 1.367 . S
C1751 C1750 1.367 . S
C1751 C1753 1.433 . S
C1752 C1748 1.350 . S
C1752 C1749 1.463 . S
C1752 N1756 1.427 . S
C1753 H1743 0.929 . S
C1753 C1751 1.433 . S
C1753 N1756 1.384 . S
C1754 H1745 0.929 . S
C1754 C1746 1.378 . S
C1754 C1749 1.350 . S
C1755 H1742 0.929 . S
C1755 C1747 1.433 . S
C1755 N1757 1.384 . S
N1756 C1752 1.427 . S
N1756 C1753 1.384 . S
N1757 C1749 1.427 . S
N1757 C1755 1.384 . S
H1758 C1764 0.930 . S
H1759 C1768 0.930 . S
H1760 C1773 0.929 . S
H1761 C1771 0.929 . S
H1762 C1766 0.929 . S
H1763 C1772 0.929 . S
C1764 H1758 0.930 . S
C1764 C1765 1.367 . S
C1764 C1772 1.378 . S
C1765 C1764 1.367 . S
C1765 C1773 1.433 . S
C1766 H1762 0.929 . S
C1766 C1768 1.378 . S
C1766 C1770 1.350 . S
C1767 C1770 1.463 . S
C1767 C1772 1.350 . S
C1767 N1775 1.427 . S
C1768 H1759 0.930 . S
C1768 C1766 1.378 . S
C1768 C1769 1.367 . S
C1769 C1768 1.367 . S
C1769 C1771 1.433 . S
C1770 C1766 1.350 . S
C1770 C1767 1.463 . S
C1770 N1774 1.427 . S
C1771 H1761 0.929 . S
C1771 C1769 1.433 . S
C1771 N1774 1.384 . S
C1772 H1763 0.929 . S
C1772 C1764 1.378 . S
C1772 C1767 1.350 . S
C1773 H1760 0.929 . S
C1773 C1765 1.433 . S
C1773 N1775 1.384 . S
N1774 C1770 1.427 . S
N1774 C1771 1.384 . S
N1775 C1767 1.427 . S
N1775 C1773 1.384 . S
H1776 C1782 0.930 . S
H1777 C1786 0.930 . S
H1778 C1791 0.929 . S
H1779 C1789 0.929 . S
H1780 C1784 0.929 1_556 S
H1781 C1790 0.929 . S
C1782 H1776 0.930 . S
C1782 C1783 1.367 . S
C1782 C1790 1.378 . S
C1783 C1782 1.367 . S
C1783 C1791 1.433 . S
C1784 H1780 0.929 1_554 S
C1784 C1786 1.378 . S
C1784 C1788 1.350 1_554 S
C1785 C1788 1.463 . S
C1785 C1790 1.350 . S
C1785 N1793 1.427 . S
C1786 H1777 0.930 . S
C1786 C1784 1.378 . S
C1786 C1787 1.367 . S
C1787 C1786 1.367 . S
C1787 C1789 1.433 . S
C1788 C1784 1.350 1_556 S
C1788 C1785 1.463 . S
C1788 N1792 1.427 . S
C1789 H1779 0.929 . S
C1789 C1787 1.433 . S
C1789 N1792 1.384 1_554 S
C1790 H1781 0.929 . S
C1790 C1782 1.378 . S
C1790 C1785 1.350 . S
C1791 H1778 0.929 . S
C1791 C1783 1.433 . S
C1791 N1793 1.384 . S
N1792 C1788 1.427 . S
N1792 C1789 1.384 1_556 S
N1793 C1785 1.427 . S
N1793 C1791 1.384 . S
H1794 C1800 0.930 . S
H1795 C1804 0.930 . S
H1796 C1809 0.929 . S
H1797 C1807 0.929 . S
H1798 C1802 0.929 . S
H1799 C1808 0.929 . S
C1800 H1794 0.930 . S
C1800 C1801 1.367 . S
C1800 C1808 1.378 . S
C1801 C1800 1.367 . S
C1801 C1809 1.433 . S
C1802 H1798 0.929 . S
C1802 C1804 1.378 . S
C1802 C1806 1.350 . S
C1803 C1806 1.463 . S
C1803 C1808 1.350 . S
C1803 N1811 1.427 . S
C1804 H1795 0.930 . S
C1804 C1802 1.378 . S
C1804 C1805 1.367 . S
C1805 C1804 1.367 . S
C1805 C1807 1.433 . S
C1806 C1802 1.350 . S
C1806 C1803 1.463 . S
C1806 N1810 1.427 . S
C1807 H1797 0.929 . S
C1807 C1805 1.433 . S
C1807 N1810 1.384 . S
C1808 H1799 0.929 . S
C1808 C1800 1.378 . S
C1808 C1803 1.350 . S
C1809 H1796 0.929 . S
C1809 C1801 1.433 . S
C1809 N1811 1.384 . S
N1810 C1806 1.427 . S
N1810 C1807 1.384 . S
N1811 C1803 1.427 . S
N1811 C1809 1.384 . S
H1812 C1818 0.930 . S
H1813 C1822 0.930 . S
H1814 C1827 0.929 . S
H1815 C1825 0.929 . S
H1816 C1820 0.929 . S
H1817 C1826 0.929 . S
C1818 H1812 0.930 . S
C1818 C1819 1.367 . S
C1818 C1826 1.378 . S
C1819 C1818 1.367 . S
C1819 C1827 1.433 . S
C1820 H1816 0.929 . S
C1820 C1822 1.378 . S
C1820 C1824 1.350 . S
C1821 C1824 1.463 . S
C1821 C1826 1.350 . S
C1821 N1829 1.427 . S
C1822 H1813 0.930 . S
C1822 C1820 1.378 . S
C1822 C1823 1.367 . S
C1823 C1822 1.367 . S
C1823 C1825 1.433 . S
C1824 C1820 1.350 . S
C1824 C1821 1.463 . S
C1824 N1828 1.427 . S
C1825 H1815 0.929 . S
C1825 C1823 1.433 . S
C1825 N1828 1.384 . S
C1826 H1817 0.929 . S
C1826 C1818 1.378 . S
C1826 C1821 1.350 . S
C1827 H1814 0.929 . S
C1827 C1819 1.433 . S
C1827 N1829 1.384 . S
N1828 C1824 1.427 . S
N1828 C1825 1.384 . S
N1829 C1821 1.427 . S
N1829 C1827 1.384 . S
H1830 C1836 0.930 . S
H1831 C1840 0.930 . S
H1832 C1845 0.929 1_556 S
H1833 C1843 0.929 . S
H1834 C1838 0.929 . S
H1835 C1844 0.929 . S
C1836 H1830 0.930 . S
C1836 C1837 1.367 1_554 S
C1836 C1844 1.378 . S
C1837 C1836 1.367 1_556 S
C1837 C1845 1.433 1_556 S
C1838 H1834 0.929 . S
C1838 C1840 1.378 . S
C1838 C1842 1.350 . S
C1839 C1842 1.463 . S
C1839 C1844 1.350 . S
C1839 N1847 1.427 . S
C1840 H1831 0.930 . S
C1840 C1838 1.378 . S
C1840 C1841 1.367 . S
C1841 C1840 1.367 . S
C1841 C1843 1.433 . S
C1842 C1838 1.350 . S
C1842 C1839 1.463 . S
C1842 N1846 1.427 . S
C1843 H1833 0.929 . S
C1843 C1841 1.433 . S
C1843 N1846 1.384 . S
C1844 H1835 0.929 . S
C1844 C1836 1.378 . S
C1844 C1839 1.350 . S
C1845 H1832 0.929 1_554 S
C1845 C1837 1.433 1_554 S
C1845 N1847 1.384 . S
N1846 C1842 1.427 . S
N1846 C1843 1.384 . S
N1847 C1839 1.427 . S
N1847 C1845 1.384 . S
H1848 C1854 0.930 . S
H1849 C1858 0.930 . S
H1850 C1863 0.929 . S
H1851 C1861 0.929 . S
H1852 C1856 0.929 1_554 S
H1853 C1862 0.929 . S
C1854 H1848 0.930 . S
C1854 C1855 1.367 . S
C1854 C1862 1.378 . S
C1855 C1854 1.367 . S
C1855 C1863 1.433 . S
C1856 H1852 0.929 1_556 S
C1856 C1858 1.378 . S
C1856 C1860 1.350 1_556 S
C1857 C1860 1.463 . S
C1857 C1862 1.350 . S
C1857 N1865 1.427 . S
C1858 H1849 0.930 . S
C1858 C1856 1.378 . S
C1858 C1859 1.367 . S
C1859 C1858 1.367 . S
C1859 C1861 1.433 . S
C1860 C1856 1.350 1_554 S
C1860 C1857 1.463 . S
C1860 N1864 1.427 . S
C1861 H1851 0.929 . S
C1861 C1859 1.433 . S
C1861 N1864 1.384 1_556 S
C1862 H1853 0.929 . S
C1862 C1854 1.378 . S
C1862 C1857 1.350 . S
C1863 H1850 0.929 . S
C1863 C1855 1.433 . S
C1863 N1865 1.384 . S
N1864 C1860 1.427 . S
N1864 C1861 1.384 1_554 S
N1865 C1857 1.427 . S
N1865 C1863 1.384 . S
H1866 C1872 0.930 1_554 S
H1867 C1876 0.930 . S
H1868 C1881 0.929 . S
H1869 C1879 0.929 . S
H1870 C1874 0.929 . S
H1871 C1880 0.929 . S
C1872 H1866 0.930 1_556 S
C1872 C1873 1.367 1_556 S
C1872 C1880 1.378 . S
C1873 C1872 1.367 1_554 S
C1873 C1881 1.433 1_554 S
C1874 H1870 0.929 . S
C1874 C1876 1.378 . S
C1874 C1878 1.350 . S
C1875 C1878 1.463 . S
C1875 C1880 1.350 . S
C1875 N1883 1.427 . S
C1876 H1867 0.930 . S
C1876 C1874 1.378 . S
C1876 C1877 1.367 . S
C1877 C1876 1.367 . S
C1877 C1879 1.433 . S
C1878 C1874 1.350 . S
C1878 C1875 1.463 . S
C1878 N1882 1.427 . S
C1879 H1869 0.929 . S
C1879 C1877 1.433 . S
C1879 N1882 1.384 . S
C1880 H1871 0.929 . S
C1880 C1872 1.378 . S
C1880 C1875 1.350 . S
C1881 H1868 0.929 . S
C1881 C1873 1.433 1_556 S
C1881 N1883 1.384 . S
N1882 C1878 1.427 . S
N1882 C1879 1.384 . S
N1883 C1875 1.427 . S
N1883 C1881 1.384 . S
H1884 C1890 0.930 . S
H1885 C1894 0.930 . S
H1886 C1899 0.929 . S
H1887 C1897 0.929 . S
H1888 C1892 0.929 . S
H1889 C1898 0.929 . S
C1890 H1884 0.930 . S
C1890 C1891 1.367 . S
C1890 C1898 1.378 . S
C1891 C1890 1.367 . S
C1891 C1899 1.433 . S
C1892 H1888 0.929 . S
C1892 C1894 1.378 . S
C1892 C1896 1.350 . S
C1893 C1896 1.463 . S
C1893 C1898 1.350 . S
C1893 N1901 1.427 . S
C1894 H1885 0.930 . S
C1894 C1892 1.378 . S
C1894 C1895 1.367 . S
C1895 C1894 1.367 . S
C1895 C1897 1.433 . S
C1896 C1892 1.350 . S
C1896 C1893 1.463 . S
C1896 N1900 1.427 . S
C1897 H1887 0.929 . S
C1897 C1895 1.433 . S
C1897 N1900 1.384 . S
C1898 H1889 0.929 . S
C1898 C1890 1.378 . S
C1898 C1893 1.350 . S
C1899 H1886 0.929 . S
C1899 C1891 1.433 . S
C1899 N1901 1.384 . S
N1900 C1896 1.427 . S
N1900 C1897 1.384 . S
N1901 C1893 1.427 . S
N1901 C1899 1.384 . S
H1902 C1908 0.930 . S
H1903 C1912 0.930 . S
H1904 C1917 0.929 . S
H1905 C1915 0.929 . S
H1906 C1910 0.929 . S
H1907 C1916 0.929 . S
C1908 H1902 0.930 . S
C1908 C1909 1.367 . S
C1908 C1916 1.378 . S
C1909 C1908 1.367 . S
C1909 C1917 1.433 . S
C1910 H1906 0.929 . S
C1910 C1912 1.378 . S
C1910 C1914 1.350 . S
C1911 C1914 1.463 . S
C1911 C1916 1.350 . S
C1911 N1919 1.427 . S
C1912 H1903 0.930 . S
C1912 C1910 1.378 . S
C1912 C1913 1.367 . S
C1913 C1912 1.367 . S
C1913 C1915 1.433 . S
C1914 C1910 1.350 . S
C1914 C1911 1.463 . S
C1914 N1918 1.427 . S
C1915 H1905 0.929 . S
C1915 C1913 1.433 . S
C1915 N1918 1.384 . S
C1916 H1907 0.929 . S
C1916 C1908 1.378 . S
C1916 C1911 1.350 . S
C1917 H1904 0.929 . S
C1917 C1909 1.433 . S
C1917 N1919 1.384 . S
N1918 C1914 1.427 . S
N1918 C1915 1.384 . S
N1919 C1911 1.427 . S
N1919 C1917 1.384 . S
H1920 C1926 0.930 . S
H1921 C1930 0.930 . S
H1922 C1935 0.929 . S
H1923 C1933 0.929 . S
H1924 C1928 0.929 . S
H1925 C1934 0.929 . S
C1926 H1920 0.930 . S
C1926 C1927 1.367 . S
C1926 C1934 1.378 . S
C1927 C1926 1.367 . S
C1927 C1935 1.433 . S
C1928 H1924 0.929 . S
C1928 C1930 1.378 . S
C1928 C1932 1.350 . S
C1929 C1932 1.463 . S
C1929 C1934 1.350 . S
C1929 N1937 1.427 . S
C1930 H1921 0.930 . S
C1930 C1928 1.378 . S
C1930 C1931 1.367 . S
C1931 C1930 1.367 . S
C1931 C1933 1.433 . S
C1932 C1928 1.350 . S
C1932 C1929 1.463 . S
C1932 N1936 1.427 . S
C1933 H1923 0.929 . S
C1933 C1931 1.433 . S
C1933 N1936 1.384 . S
C1934 H1925 0.929 . S
C1934 C1926 1.378 . S
C1934 C1929 1.350 . S
C1935 H1922 0.929 . S
C1935 C1927 1.433 . S
C1935 N1937 1.384 . S
N1936 C1932 1.427 . S
N1936 C1933 1.384 . S
N1937 C1929 1.427 . S
N1937 C1935 1.384 . S
H1938 C1944 0.930 . S
H1939 C1948 0.930 . S
H1940 C1953 0.929 . S
H1941 C1951 0.929 . S
H1942 C1946 0.929 . S
H1943 C1952 0.929 . S
C1944 H1938 0.930 . S
C1944 C1945 1.367 . S
C1944 C1952 1.378 . S
C1945 C1944 1.367 . S
C1945 C1953 1.433 . S
C1946 H1942 0.929 . S
C1946 C1948 1.378 . S
C1946 C1950 1.350 . S
C1947 C1950 1.463 1_545 S
C1947 C1952 1.350 . S
C1947 N1955 1.427 . S
C1948 H1939 0.930 . S
C1948 C1946 1.378 . S
C1948 C1949 1.367 . S
C1949 C1948 1.367 . S
C1949 C1951 1.433 . S
C1950 C1946 1.350 . S
C1950 C1947 1.463 1_565 S
C1950 N1954 1.427 . S
C1951 H1941 0.929 . S
C1951 C1949 1.433 . S
C1951 N1954 1.384 . S
C1952 H1943 0.929 . S
C1952 C1944 1.378 . S
C1952 C1947 1.350 . S
C1953 H1940 0.929 . S
C1953 C1945 1.433 . S
C1953 N1955 1.384 . S
N1954 C1950 1.427 . S
N1954 C1951 1.384 . S
N1955 C1947 1.427 . S
N1955 C1953 1.384 . S
H1956 C1962 0.930 . S
H1957 C1966 0.930 . S
H1958 C1971 0.929 . S
H1959 C1969 0.929 . S
H1960 C1964 0.929 . S
H1961 C1970 0.929 . S
C1962 H1956 0.930 . S
C1962 C1963 1.367 . S
C1962 C1970 1.378 . S
C1963 C1962 1.367 . S
C1963 C1971 1.433 . S
C1964 H1960 0.929 . S
C1964 C1966 1.378 . S
C1964 C1968 1.350 . S
C1965 C1968 1.463 . S
C1965 C1970 1.350 . S
C1965 N1973 1.427 . S
C1966 H1957 0.930 . S
C1966 C1964 1.378 . S
C1966 C1967 1.367 . S
C1967 C1966 1.367 . S
C1967 C1969 1.433 . S
C1968 C1964 1.350 . S
C1968 C1965 1.463 . S
C1968 N1972 1.427 . S
C1969 H1959 0.929 . S
C1969 C1967 1.433 . S
C1969 N1972 1.384 . S
C1970 H1961 0.929 . S
C1970 C1962 1.378 . S
C1970 C1965 1.350 . S
C1971 H1958 0.929 . S
C1971 C1963 1.433 . S
C1971 N1973 1.384 . S
N1972 C1968 1.427 . S
N1972 C1969 1.384 . S
N1973 C1965 1.427 . S
N1973 C1971 1.384 . S
H1974 C1980 0.930 . S
H1975 C1984 0.930 . S
H1976 C1989 0.929 . S
H1977 C1987 0.929 . S
H1978 C1982 0.929 . S
H1979 C1988 0.929 . S
C1980 H1974 0.930 . S
C1980 C1981 1.367 . S
C1980 C1988 1.378 . S
C1981 C1980 1.367 . S
C1981 C1989 1.433 . S
C1982 H1978 0.929 . S
C1982 C1984 1.378 . S
C1982 C1986 1.350 . S
C1983 C1986 1.463 1_564 S
C1983 C1988 1.350 . S
C1983 N1991 1.427 . S
C1984 H1975 0.930 . S
C1984 C1982 1.378 . S
C1984 C1985 1.367 . S
C1985 C1984 1.367 . S
C1985 C1987 1.433 . S
C1986 C1982 1.350 . S
C1986 C1983 1.463 1_546 S
C1986 N1990 1.427 . S
C1987 H1977 0.929 . S
C1987 C1985 1.433 . S
C1987 N1990 1.384 . S
C1988 H1979 0.929 . S
C1988 C1980 1.378 . S
C1988 C1983 1.350 . S
C1989 H1976 0.929 . S
C1989 C1981 1.433 . S
C1989 N1991 1.384 . S
N1990 C1986 1.427 . S
N1990 C1987 1.384 . S
N1991 C1983 1.427 . S
N1991 C1989 1.384 . S
H1992 C1998 0.930 . S
H1993 C2002 0.930 . S
H1994 C2007 0.929 . S
H1995 C2005 0.929 . S
H1996 C2000 0.929 . S
H1997 C2006 0.929 . S
C1998 H1992 0.930 . S
C1998 C1999 1.367 . S
C1998 C2006 1.378 . S
C1999 C1998 1.367 . S
C1999 C2007 1.433 . S
C2000 H1996 0.929 . S
C2000 C2002 1.378 . S
C2000 C2004 1.350 . S
C2001 C2004 1.463 . S
C2001 C2006 1.350 . S
C2001 N2009 1.427 . S
C2002 H1993 0.930 . S
C2002 C2000 1.378 . S
C2002 C2003 1.367 . S
C2003 C2002 1.367 . S
C2003 C2005 1.433 . S
C2004 C2000 1.350 . S
C2004 C2001 1.463 . S
C2004 N2008 1.427 . S
C2005 H1995 0.929 . S
C2005 C2003 1.433 . S
C2005 N2008 1.384 . S
C2006 H1997 0.929 . S
C2006 C1998 1.378 . S
C2006 C2001 1.350 . S
C2007 H1994 0.929 . S
C2007 C1999 1.433 . S
C2007 N2009 1.384 . S
N2008 C2004 1.427 . S
N2008 C2005 1.384 . S
N2009 C2001 1.427 . S
N2009 C2007 1.384 . S
H2010 C2016 0.930 . S
H2011 C2020 0.930 . S
H2012 C2025 0.929 . S
H2013 C2023 0.929 . S
H2014 C2018 0.929 . S
H2015 C2024 0.929 . S
C2016 H2010 0.930 . S
C2016 C2017 1.367 . S
C2016 C2024 1.378 . S
C2017 C2016 1.367 . S
C2017 C2025 1.433 . S
C2018 H2014 0.929 . S
C2018 C2020 1.378 . S
C2018 C2022 1.350 . S
C2019 C2022 1.463 1_545 S
C2019 C2024 1.350 . S
C2019 N2027 1.427 . S
C2020 H2011 0.930 . S
C2020 C2018 1.378 . S
C2020 C2021 1.367 . S
C2021 C2020 1.367 . S
C2021 C2023 1.433 . S
C2022 C2018 1.350 . S
C2022 C2019 1.463 1_565 S
C2022 N2026 1.427 . S
C2023 H2013 0.929 . S
C2023 C2021 1.433 . S
C2023 N2026 1.384 . S
C2024 H2015 0.929 . S
C2024 C2016 1.378 . S
C2024 C2019 1.350 . S
C2025 H2012 0.929 . S
C2025 C2017 1.433 . S
C2025 N2027 1.384 . S
N2026 C2022 1.427 . S
N2026 C2023 1.384 . S
N2027 C2019 1.427 . S
N2027 C2025 1.384 . S
H2028 C2034 0.930 . S
H2029 C2038 0.930 . S
H2030 C2043 0.929 . S
H2031 C2041 0.929 . S
H2032 C2036 0.929 . S
H2033 C2042 0.929 . S
C2034 H2028 0.930 . S
C2034 C2035 1.367 . S
C2034 C2042 1.378 . S
C2035 C2034 1.367 . S
C2035 C2043 1.433 . S
C2036 H2032 0.929 . S
C2036 C2038 1.378 . S
C2036 C2040 1.350 . S
C2037 C2040 1.463 . S
C2037 C2042 1.350 . S
C2037 N2045 1.427 . S
C2038 H2029 0.930 . S
C2038 C2036 1.378 . S
C2038 C2039 1.367 . S
C2039 C2038 1.367 . S
C2039 C2041 1.433 . S
C2040 C2036 1.350 . S
C2040 C2037 1.463 . S
C2040 N2044 1.427 . S
C2041 H2031 0.929 . S
C2041 C2039 1.433 . S
C2041 N2044 1.384 . S
C2042 H2033 0.929 . S
C2042 C2034 1.378 . S
C2042 C2037 1.350 . S
C2043 H2030 0.929 . S
C2043 C2035 1.433 . S
C2043 N2045 1.384 . S
N2044 C2040 1.427 . S
N2044 C2041 1.384 . S
N2045 C2037 1.427 . S
N2045 C2043 1.384 . S
H2046 C2052 0.930 . S
H2047 C2056 0.930 . S
H2048 C2061 0.929 . S
H2049 C2059 0.929 . S
H2050 C2054 0.930 . S
H2051 C2060 0.930 . S
C2052 H2046 0.930 . S
C2052 C2053 1.367 . S
C2052 C2060 1.378 . S
C2053 C2052 1.367 . S
C2053 C2061 1.433 . S
C2054 H2050 0.930 . S
C2054 C2056 1.378 . S
C2054 C2058 1.350 . S
C2055 C2058 1.463 1_546 S
C2055 C2060 1.350 . S
C2055 N2063 1.427 1_556 S
C2056 H2047 0.930 . S
C2056 C2054 1.378 . S
C2056 C2057 1.367 . S
C2057 C2056 1.367 . S
C2057 C2059 1.433 . S
C2058 C2054 1.350 . S
C2058 C2055 1.463 1_564 S
C2058 N2062 1.427 1_554 S
C2059 H2049 0.929 . S
C2059 C2057 1.433 . S
C2059 N2062 1.384 1_554 S
C2060 H2051 0.930 . S
C2060 C2052 1.378 . S
C2060 C2055 1.350 . S
C2061 H2048 0.929 . S
C2061 C2053 1.433 . S
C2061 N2063 1.384 1_556 S
N2062 C2058 1.427 1_556 S
N2062 C2059 1.384 1_556 S
N2063 C2055 1.427 1_554 S
N2063 C2061 1.384 1_554 S
H2064 C2070 0.930 . S
H2065 C2074 0.930 . S
H2066 C2079 0.929 . S
H2067 C2077 0.929 . S
H2068 C2072 0.929 . S
H2069 C2078 0.929 . S
C2070 H2064 0.930 . S
C2070 C2071 1.367 . S
C2070 C2078 1.378 . S
C2071 C2070 1.367 . S
C2071 C2079 1.433 . S
C2072 H2068 0.929 . S
C2072 C2074 1.378 . S
C2072 C2076 1.350 . S
C2073 C2076 1.463 . S
C2073 C2078 1.350 . S
C2073 N2081 1.427 . S
C2074 H2065 0.930 . S
C2074 C2072 1.378 . S
C2074 C2075 1.367 . S
C2075 C2074 1.367 . S
C2075 C2077 1.433 . S
C2076 C2072 1.350 . S
C2076 C2073 1.463 . S
C2076 N2080 1.427 . S
C2077 H2067 0.929 . S
C2077 C2075 1.433 . S
C2077 N2080 1.384 . S
C2078 H2069 0.929 . S
C2078 C2070 1.378 . S
C2078 C2073 1.350 . S
C2079 H2066 0.929 . S
C2079 C2071 1.433 . S
C2079 N2081 1.384 . S
N2080 C2076 1.427 . S
N2080 C2077 1.384 . S
N2081 C2073 1.427 . S
N2081 C2079 1.384 . S
H2082 C2088 0.930 . S
H2083 C2092 0.930 . S
H2084 C2097 0.924 1_554 S
H2085 C2095 0.924 1_556 S
H2086 C2090 0.929 . S
H2087 C2096 0.929 . S
C2088 H2082 0.930 . S
C2088 C2089 1.367 . S
C2088 C2096 1.378 . S
C2089 C2088 1.367 . S
C2089 C2097 1.433 . S
C2090 H2086 0.929 . S
C2090 C2092 1.378 . S
C2090 C2094 1.350 . S
C2091 C2094 1.463 1_556 S
C2091 C2096 1.350 . S
C2091 N2099 1.427 1_556 S
C2092 H2083 0.930 . S
C2092 C2090 1.378 . S
C2092 C2093 1.367 . S
C2093 C2092 1.367 . S
C2093 C2095 1.433 . S
C2094 C2090 1.350 . S
C2094 C2091 1.463 1_554 S
C2094 N2098 1.427 1_554 S
C2095 H2085 0.924 1_554 S
C2095 C2093 1.433 . S
C2095 N2098 1.384 1_554 S
C2096 H2087 0.929 . S
C2096 C2088 1.378 . S
C2096 C2091 1.350 . S
C2097 H2084 0.924 1_556 S
C2097 C2089 1.433 . S
C2097 N2099 1.384 1_556 S
N2098 C2094 1.427 1_556 S
N2098 C2095 1.384 1_556 S
N2099 C2091 1.427 1_554 S
N2099 C2097 1.384 1_554 S
H2100 C2106 0.930 . S
H2101 C2110 0.930 . S
H2102 C2115 0.929 . S
H2103 C2113 0.929 . S
H2104 C2108 0.929 . S
H2105 C2114 0.929 . S
C2106 H2100 0.930 . S
C2106 C2107 1.367 . S
C2106 C2114 1.378 . S
C2107 C2106 1.367 . S
C2107 C2115 1.433 . S
C2108 H2104 0.929 . S
C2108 C2110 1.378 . S
C2108 C2112 1.350 . S
C2109 C2112 1.463 . S
C2109 C2114 1.350 . S
C2109 N2117 1.427 . S
C2110 H2101 0.930 . S
C2110 C2108 1.378 . S
C2110 C2111 1.367 . S
C2111 C2110 1.367 . S
C2111 C2113 1.433 . S
C2112 C2108 1.350 . S
C2112 C2109 1.463 . S
C2112 N2116 1.427 . S
C2113 H2103 0.929 . S
C2113 C2111 1.433 . S
C2113 N2116 1.384 . S
C2114 H2105 0.929 . S
C2114 C2106 1.378 . S
C2114 C2109 1.350 . S
C2115 H2102 0.929 . S
C2115 C2107 1.433 . S
C2115 N2117 1.384 . S
N2116 C2112 1.427 . S
N2116 C2113 1.384 . S
N2117 C2109 1.427 . S
N2117 C2115 1.384 . S
H2118 C2124 0.930 . S
H2119 C2128 0.930 . S
H2120 C2133 0.929 . S
H2121 C2131 0.929 . S
H2122 C2126 0.929 . S
H2123 C2132 0.929 . S
C2124 H2118 0.930 . S
C2124 C2125 1.367 . S
C2124 C2132 1.378 . S
C2125 C2124 1.367 . S
C2125 C2133 1.433 . S
C2126 H2122 0.929 . S
C2126 C2128 1.378 . S
C2126 C2130 1.350 . S
C2127 C2130 1.463 . S
C2127 C2132 1.350 . S
C2127 N2135 1.427 . S
C2128 H2119 0.930 . S
C2128 C2126 1.378 . S
C2128 C2129 1.367 . S
C2129 C2128 1.367 . S
C2129 C2131 1.433 . S
C2130 C2126 1.350 . S
C2130 C2127 1.463 . S
C2130 N2134 1.427 . S
C2131 H2121 0.929 . S
C2131 C2129 1.433 . S
C2131 N2134 1.384 . S
C2132 H2123 0.929 . S
C2132 C2124 1.378 . S
C2132 C2127 1.350 . S
C2133 H2120 0.929 . S
C2133 C2125 1.433 . S
C2133 N2135 1.384 . S
N2134 C2130 1.427 . S
N2134 C2131 1.384 . S
N2135 C2127 1.427 . S
N2135 C2133 1.384 . S
H2136 C2142 0.930 . S
H2137 C2146 0.930 . S
H2138 C2151 0.929 . S
H2139 C2149 0.929 . S
H2140 C2144 0.929 . S
H2141 C2150 0.929 . S
C2142 H2136 0.930 . S
C2142 C2143 1.367 . S
C2142 C2150 1.378 . S
C2143 C2142 1.367 . S
C2143 C2151 1.433 . S
C2144 H2140 0.929 . S
C2144 C2146 1.378 . S
C2144 C2148 1.350 . S
C2145 C2148 1.463 . S
C2145 C2150 1.350 . S
C2145 N2153 1.427 . S
C2146 H2137 0.930 . S
C2146 C2144 1.378 . S
C2146 C2147 1.367 . S
C2147 C2146 1.367 . S
C2147 C2149 1.433 . S
C2148 C2144 1.350 . S
C2148 C2145 1.463 . S
C2148 N2152 1.427 . S
C2149 H2139 0.929 . S
C2149 C2147 1.433 . S
C2149 N2152 1.384 . S
C2150 H2141 0.929 . S
C2150 C2142 1.378 . S
C2150 C2145 1.350 . S
C2151 H2138 0.929 . S
C2151 C2143 1.433 . S
C2151 N2153 1.384 . S
N2152 C2148 1.427 . S
N2152 C2149 1.384 . S
N2153 C2145 1.427 . S
N2153 C2151 1.384 . S
H2154 C2160 0.930 . S
H2155 C2164 0.930 . S
H2156 C2169 0.929 . S
H2157 C2167 0.929 . S
H2158 C2162 0.929 . S
H2159 C2168 0.929 . S
C2160 H2154 0.930 . S
C2160 C2161 1.367 . S
C2160 C2168 1.378 1_556 S
C2161 C2160 1.367 . S
C2161 C2169 1.433 . S
C2162 H2158 0.929 . S
C2162 C2164 1.378 1_556 S
C2162 C2166 1.350 1_556 S
C2163 C2166 1.463 1_556 S
C2163 C2168 1.350 1_556 S
C2163 N2171 1.427 . S
C2164 H2155 0.930 . S
C2164 C2162 1.378 1_554 S
C2164 C2165 1.367 . S
C2165 C2164 1.367 . S
C2165 C2167 1.433 . S
C2166 C2162 1.350 1_554 S
C2166 C2163 1.463 1_554 S
C2166 N2170 1.427 . S
C2167 H2157 0.929 . S
C2167 C2165 1.433 . S
C2167 N2170 1.384 . S
C2168 H2159 0.929 . S
C2168 C2160 1.378 1_554 S
C2168 C2163 1.350 1_554 S
C2169 H2156 0.929 . S
C2169 C2161 1.433 . S
C2169 N2171 1.384 . S
N2170 C2166 1.427 . S
N2170 C2167 1.384 . S
N2171 C2163 1.427 . S
N2171 C2169 1.384 . S
H2172 C2178 0.930 . S
H2173 C2182 0.930 . S
H2174 C2187 0.929 . S
H2175 C2185 0.929 . S
H2176 C2180 0.929 . S
H2177 C2186 0.929 . S
C2178 H2172 0.930 . S
C2178 C2179 1.367 . S
C2178 C2186 1.378 . S
C2179 C2178 1.367 . S
C2179 C2187 1.433 . S
C2180 H2176 0.929 . S
C2180 C2182 1.378 . S
C2180 C2184 1.350 . S
C2181 C2184 1.463 . S
C2181 C2186 1.350 . S
C2181 N2189 1.427 . S
C2182 H2173 0.930 . S
C2182 C2180 1.378 . S
C2182 C2183 1.367 . S
C2183 C2182 1.367 . S
C2183 C2185 1.433 . S
C2184 C2180 1.350 . S
C2184 C2181 1.463 . S
C2184 N2188 1.427 . S
C2185 H2175 0.929 . S
C2185 C2183 1.433 . S
C2185 N2188 1.384 . S
C2186 H2177 0.929 . S
C2186 C2178 1.378 . S
C2186 C2181 1.350 . S
C2187 H2174 0.929 . S
C2187 C2179 1.433 . S
C2187 N2189 1.384 . S
N2188 C2184 1.427 . S
N2188 C2185 1.384 . S
N2189 C2181 1.427 . S
N2189 C2187 1.384 . S
H2190 C2196 0.930 . S
H2191 C2200 0.930 . S
H2192 C2205 0.929 . S
H2193 C2203 0.929 . S
H2194 C2198 0.929 . S
H2195 C2204 0.929 . S
C2196 H2190 0.930 . S
C2196 C2197 1.367 . S
C2196 C2204 1.378 . S
C2197 C2196 1.367 . S
C2197 C2205 1.433 . S
C2198 H2194 0.929 . S
C2198 C2200 1.378 . S
C2198 C2202 1.350 . S
C2199 C2202 1.463 . S
C2199 C2204 1.350 . S
C2199 N2207 1.427 . S
C2200 H2191 0.930 . S
C2200 C2198 1.378 . S
C2200 C2201 1.367 . S
C2201 C2200 1.367 . S
C2201 C2203 1.433 . S
C2202 C2198 1.350 . S
C2202 C2199 1.463 . S
C2202 N2206 1.427 . S
C2203 H2193 0.929 . S
C2203 C2201 1.433 . S
C2203 N2206 1.384 . S
C2204 H2195 0.929 . S
C2204 C2196 1.378 . S
C2204 C2199 1.350 . S
C2205 H2192 0.929 . S
C2205 C2197 1.433 . S
C2205 N2207 1.384 . S
N2206 C2202 1.427 . S
N2206 C2203 1.384 . S
N2207 C2199 1.427 . S
N2207 C2205 1.384 . S
H2208 C2214 0.930 . S
H2209 C2218 0.930 . S
H2210 C2223 0.929 . S
H2211 C2221 0.929 . S
H2212 C2216 0.929 . S
H2213 C2222 0.929 . S
C2214 H2208 0.930 . S
C2214 C2215 1.367 . S
C2214 C2222 1.378 1_554 S
C2215 C2214 1.367 . S
C2215 C2223 1.434 1_554 S
C2216 H2212 0.929 . S
C2216 C2218 1.378 . S
C2216 C2220 1.350 . S
C2217 C2220 1.463 . S
C2217 C2222 1.350 . S
C2217 N2225 1.427 . S
C2218 H2209 0.930 . S
C2218 C2216 1.378 . S
C2218 C2219 1.367 . S
C2219 C2218 1.367 . S
C2219 C2221 1.433 . S
C2220 C2216 1.350 . S
C2220 C2217 1.463 . S
C2220 N2224 1.427 . S
C2221 H2211 0.929 . S
C2221 C2219 1.433 . S
C2221 N2224 1.384 . S
C2222 H2213 0.929 . S
C2222 C2214 1.378 1_556 S
C2222 C2217 1.350 . S
C2223 H2210 0.929 . S
C2223 C2215 1.434 1_556 S
C2223 N2225 1.384 . S
N2224 C2220 1.427 . S
N2224 C2221 1.384 . S
N2225 C2217 1.427 . S
N2225 C2223 1.384 . S
H2226 C2232 0.930 . S
H2227 C2236 0.930 . S
H2228 C2241 0.929 . S
H2229 C2239 0.929 . S
H2230 C2234 0.929 . S
H2231 C2240 0.929 . S
C2232 H2226 0.930 . S
C2232 C2233 1.366 . S
C2232 C2240 1.378 1_556 S
C2233 C2232 1.366 . S
C2233 C2241 1.434 1_556 S
C2234 H2230 0.929 . S
C2234 C2236 1.378 . S
C2234 C2238 1.350 . S
C2235 C2238 1.463 . S
C2235 C2240 1.350 . S
C2235 N2243 1.427 . S
C2236 H2227 0.930 . S
C2236 C2234 1.378 . S
C2236 C2237 1.367 . S
C2237 C2236 1.367 . S
C2237 C2239 1.433 . S
C2238 C2234 1.350 . S
C2238 C2235 1.463 . S
C2238 N2242 1.427 . S
C2239 H2229 0.929 . S
C2239 C2237 1.433 . S
C2239 N2242 1.384 . S
C2240 H2231 0.929 . S
C2240 C2232 1.378 1_554 S
C2240 C2235 1.350 . S
C2241 H2228 0.929 . S
C2241 C2233 1.434 1_554 S
C2241 N2243 1.384 . S
N2242 C2238 1.427 . S
N2242 C2239 1.384 . S
N2243 C2235 1.427 . S
N2243 C2241 1.384 . S
H2244 C2250 0.930 . S
H2245 C2254 0.930 . S
H2246 C2259 0.929 . S
H2247 C2257 0.929 . S
H2248 C2252 0.929 . S
H2249 C2258 0.929 . S
C2250 H2244 0.930 . S
C2250 C2251 1.367 . S
C2250 C2258 1.378 . S
C2251 C2250 1.367 . S
C2251 C2259 1.433 . S
C2252 H2248 0.929 . S
C2252 C2254 1.378 . S
C2252 C2256 1.350 . S
C2253 C2256 1.463 . S
C2253 C2258 1.350 . S
C2253 N2261 1.427 . S
C2254 H2245 0.930 . S
C2254 C2252 1.378 . S
C2254 C2255 1.367 . S
C2255 C2254 1.367 . S
C2255 C2257 1.433 . S
C2256 C2252 1.350 . S
C2256 C2253 1.463 . S
C2256 N2260 1.427 . S
C2257 H2247 0.929 . S
C2257 C2255 1.433 . S
C2257 N2260 1.384 . S
C2258 H2249 0.929 . S
C2258 C2250 1.378 . S
C2258 C2253 1.350 . S
C2259 H2246 0.929 . S
C2259 C2251 1.433 . S
C2259 N2261 1.384 . S
N2260 C2256 1.427 . S
N2260 C2257 1.384 . S
N2261 C2253 1.427 . S
N2261 C2259 1.384 . S
H2262 C2268 0.930 . S
H2263 C2272 0.930 . S
H2264 C2277 0.929 . S
H2265 C2275 0.929 . S
H2266 C2270 0.929 . S
H2267 C2276 0.929 . S
C2268 H2262 0.930 . S
C2268 C2269 1.367 . S
C2268 C2276 1.378 . S
C2269 C2268 1.367 . S
C2269 C2277 1.433 . S
C2270 H2266 0.929 . S
C2270 C2272 1.378 . S
C2270 C2274 1.350 . S
C2271 C2274 1.463 . S
C2271 C2276 1.350 . S
C2271 N2279 1.427 . S
C2272 H2263 0.930 . S
C2272 C2270 1.378 . S
C2272 C2273 1.367 . S
C2273 C2272 1.367 . S
C2273 C2275 1.433 . S
C2274 C2270 1.350 . S
C2274 C2271 1.463 . S
C2274 N2278 1.427 . S
C2275 H2265 0.929 . S
C2275 C2273 1.433 . S
C2275 N2278 1.384 . S
C2276 H2267 0.929 . S
C2276 C2268 1.378 . S
C2276 C2271 1.350 . S
C2277 H2264 0.929 . S
C2277 C2269 1.433 . S
C2277 N2279 1.384 . S
N2278 C2274 1.427 . S
N2278 C2275 1.384 . S
N2279 C2271 1.427 . S
N2279 C2277 1.384 . S
H2280 C2286 0.930 . S
H2281 C2290 0.930 . S
H2282 C2295 0.929 . S
H2283 C2293 0.929 . S
H2284 C2288 0.929 . S
H2285 C2294 0.929 . S
C2286 H2280 0.930 . S
C2286 C2287 1.367 . S
C2286 C2294 1.378 . S
C2287 C2286 1.367 . S
C2287 C2295 1.433 . S
C2288 H2284 0.929 . S
C2288 C2290 1.378 . S
C2288 C2292 1.350 . S
C2289 C2292 1.463 . S
C2289 C2294 1.350 . S
C2289 N2297 1.427 . S
C2290 H2281 0.930 . S
C2290 C2288 1.378 . S
C2290 C2291 1.367 . S
C2291 C2290 1.367 . S
C2291 C2293 1.433 . S
C2292 C2288 1.350 . S
C2292 C2289 1.463 . S
C2292 N2296 1.427 . S
C2293 H2283 0.929 . S
C2293 C2291 1.433 . S
C2293 N2296 1.384 . S
C2294 H2285 0.929 . S
C2294 C2286 1.378 . S
C2294 C2289 1.350 . S
C2295 H2282 0.929 . S
C2295 C2287 1.433 . S
C2295 N2297 1.384 . S
N2296 C2292 1.427 . S
N2296 C2293 1.384 . S
N2297 C2289 1.427 . S
N2297 C2295 1.384 . S
H2298 C2304 0.930 . S
H2299 C2308 0.930 . S
H2300 C2313 0.929 . S
H2301 C2311 0.929 . S
H2302 C2306 0.929 . S
H2303 C2312 0.929 . S
C2304 H2298 0.930 . S
C2304 C2305 1.367 . S
C2304 C2312 1.378 1_554 S
C2305 C2304 1.367 . S
C2305 C2313 1.432 1_554 S
C2306 H2302 0.929 . S
C2306 C2308 1.378 . S
C2306 C2310 1.350 . S
C2307 C2310 1.463 . S
C2307 C2312 1.350 . S
C2307 N2315 1.427 . S
C2308 H2299 0.930 . S
C2308 C2306 1.378 . S
C2308 C2309 1.367 . S
C2309 C2308 1.367 . S
C2309 C2311 1.433 . S
C2310 C2306 1.350 . S
C2310 C2307 1.463 . S
C2310 N2314 1.427 . S
C2311 H2301 0.929 . S
C2311 C2309 1.433 . S
C2311 N2314 1.384 . S
C2312 H2303 0.929 . S
C2312 C2304 1.378 1_556 S
C2312 C2307 1.350 . S
C2313 H2300 0.929 . S
C2313 C2305 1.432 1_556 S
C2313 N2315 1.384 . S
N2314 C2310 1.427 . S
N2314 C2311 1.384 . S
N2315 C2307 1.427 . S
N2315 C2313 1.384 . S
H2316 C2322 0.930 . S
H2317 C2326 0.930 . S
H2318 C2331 0.929 . S
H2319 C2329 0.929 . S
H2320 C2324 0.929 . S
H2321 C2330 0.929 . S
C2322 H2316 0.930 . S
C2322 C2323 1.367 . S
C2322 C2330 1.378 . S
C2323 C2322 1.367 . S
C2323 C2331 1.433 . S
C2324 H2320 0.929 . S
C2324 C2326 1.378 . S
C2324 C2328 1.350 . S
C2325 C2328 1.463 . S
C2325 C2330 1.350 . S
C2325 N2333 1.427 . S
C2326 H2317 0.930 . S
C2326 C2324 1.378 . S
C2326 C2327 1.367 . S
C2327 C2326 1.367 . S
C2327 C2329 1.433 . S
C2328 C2324 1.350 . S
C2328 C2325 1.463 . S
C2328 N2332 1.427 . S
C2329 H2319 0.929 . S
C2329 C2327 1.433 . S
C2329 N2332 1.384 . S
C2330 H2321 0.929 . S
C2330 C2322 1.378 . S
C2330 C2325 1.350 . S
C2331 H2318 0.929 . S
C2331 C2323 1.433 . S
C2331 N2333 1.384 . S
N2332 C2328 1.427 . S
N2332 C2329 1.384 . S
N2333 C2325 1.427 . S
N2333 C2331 1.384 . S
H2334 C2340 0.930 . S
H2335 C2344 0.930 . S
H2336 C2349 0.929 . S
H2337 C2347 0.929 . S
H2338 C2342 0.929 . S
H2339 C2348 0.929 . S
C2340 H2334 0.930 . S
C2340 C2341 1.367 . S
C2340 C2348 1.378 . S
C2341 C2340 1.367 . S
C2341 C2349 1.433 . S
C2342 H2338 0.929 . S
C2342 C2344 1.378 . S
C2342 C2346 1.350 . S
C2343 C2346 1.463 . S
C2343 C2348 1.350 . S
C2343 N2351 1.427 . S
C2344 H2335 0.930 . S
C2344 C2342 1.378 . S
C2344 C2345 1.367 . S
C2345 C2344 1.367 . S
C2345 C2347 1.433 . S
C2346 C2342 1.350 . S
C2346 C2343 1.463 . S
C2346 N2350 1.427 . S
C2347 H2337 0.929 . S
C2347 C2345 1.433 . S
C2347 N2350 1.384 . S
C2348 H2339 0.929 . S
C2348 C2340 1.378 . S
C2348 C2343 1.350 . S
C2349 H2336 0.929 . S
C2349 C2341 1.433 . S
C2349 N2351 1.384 . S
N2350 C2346 1.427 . S
N2350 C2347 1.384 . S
N2351 C2343 1.427 . S
N2351 C2349 1.384 . S
H2352 C2358 0.930 . S
H2353 C2362 0.930 . S
H2354 C2367 0.929 . S
H2355 C2365 0.929 . S
H2356 C2360 0.929 . S
H2357 C2366 0.929 . S
C2358 H2352 0.930 . S
C2358 C2359 1.367 . S
C2358 C2366 1.378 . S
C2359 C2358 1.367 . S
C2359 C2367 1.433 . S
C2360 H2356 0.929 . S
C2360 C2362 1.378 . S
C2360 C2364 1.350 . S
C2361 C2364 1.463 . S
C2361 C2366 1.350 . S
C2361 N2369 1.427 . S
C2362 H2353 0.930 . S
C2362 C2360 1.378 . S
C2362 C2363 1.367 . S
C2363 C2362 1.367 . S
C2363 C2365 1.433 . S
C2364 C2360 1.350 . S
C2364 C2361 1.463 . S
C2364 N2368 1.427 . S
C2365 H2355 0.929 . S
C2365 C2363 1.433 . S
C2365 N2368 1.384 . S
C2366 H2357 0.929 . S
C2366 C2358 1.378 . S
C2366 C2361 1.350 . S
C2367 H2354 0.929 . S
C2367 C2359 1.433 . S
C2367 N2369 1.384 . S
N2368 C2364 1.427 . S
N2368 C2365 1.384 . S
N2369 C2361 1.427 . S
N2369 C2367 1.384 . S
H2370 C2376 0.930 . S
H2371 C2380 0.930 . S
H2372 C2385 0.929 . S
H2373 C2383 0.929 . S
H2374 C2378 0.929 . S
H2375 C2384 0.929 . S
C2376 H2370 0.930 . S
C2376 C2377 1.367 . S
C2376 C2384 1.378 . S
C2377 C2376 1.367 . S
C2377 C2385 1.433 . S
C2378 H2374 0.929 . S
C2378 C2380 1.378 . S
C2378 C2382 1.350 . S
C2379 C2382 1.463 . S
C2379 C2384 1.350 . S
C2379 N2387 1.427 . S
C2380 H2371 0.930 . S
C2380 C2378 1.378 . S
C2380 C2381 1.367 . S
C2381 C2380 1.367 . S
C2381 C2383 1.433 . S
C2382 C2378 1.350 . S
C2382 C2379 1.463 . S
C2382 N2386 1.427 . S
C2383 H2373 0.929 . S
C2383 C2381 1.433 . S
C2383 N2386 1.384 . S
C2384 H2375 0.929 . S
C2384 C2376 1.378 . S
C2384 C2379 1.350 . S
C2385 H2372 0.929 . S
C2385 C2377 1.433 . S
C2385 N2387 1.384 . S
N2386 C2382 1.427 . S
N2386 C2383 1.384 . S
N2387 C2379 1.427 . S
N2387 C2385 1.384 . S
H2388 C2394 0.930 . S
H2389 C2398 0.930 . S
H2390 C2403 0.929 . S
H2391 C2401 0.929 . S
H2392 C2396 0.929 . S
H2393 C2402 0.929 . S
C2394 H2388 0.930 . S
C2394 C2395 1.367 . S
C2394 C2402 1.378 . S
C2395 C2394 1.367 . S
C2395 C2403 1.433 . S
C2396 H2392 0.929 . S
C2396 C2398 1.378 1_556 S
C2396 C2400 1.350 . S
C2397 C2400 1.463 . S
C2397 C2402 1.350 . S
C2397 N2405 1.427 . S
C2398 H2389 0.930 . S
C2398 C2396 1.378 1_554 S
C2398 C2399 1.366 1_554 S
C2399 C2398 1.366 1_556 S
C2399 C2401 1.435 . S
C2400 C2396 1.350 . S
C2400 C2397 1.463 . S
C2400 N2404 1.427 . S
C2401 H2391 0.929 . S
C2401 C2399 1.435 . S
C2401 N2404 1.384 . S
C2402 H2393 0.929 . S
C2402 C2394 1.378 . S
C2402 C2397 1.350 . S
C2403 H2390 0.929 . S
C2403 C2395 1.433 . S
C2403 N2405 1.384 . S
N2404 C2400 1.427 . S
N2404 C2401 1.384 . S
N2405 C2397 1.427 . S
N2405 C2403 1.384 . S
H2406 C2412 0.930 . S
H2407 C2416 0.930 . S
H2408 C2421 0.929 . S
H2409 C2419 0.929 . S
H2410 C2414 0.929 . S
H2411 C2420 0.929 . S
C2412 H2406 0.930 . S
C2412 C2413 1.367 . S
C2412 C2420 1.378 . S
C2413 C2412 1.367 . S
C2413 C2421 1.433 . S
C2414 H2410 0.929 . S
C2414 C2416 1.378 1_554 S
C2414 C2418 1.350 . S
C2415 C2418 1.463 . S
C2415 C2420 1.350 . S
C2415 N2423 1.427 . S
C2416 H2407 0.930 . S
C2416 C2414 1.378 1_556 S
C2416 C2417 1.367 1_556 S
C2417 C2416 1.367 1_554 S
C2417 C2419 1.432 . S
C2418 C2414 1.350 . S
C2418 C2415 1.463 . S
C2418 N2422 1.427 . S
C2419 H2409 0.929 . S
C2419 C2417 1.432 . S
C2419 N2422 1.384 . S
C2420 H2411 0.929 . S
C2420 C2412 1.378 . S
C2420 C2415 1.350 . S
C2421 H2408 0.929 . S
C2421 C2413 1.433 . S
C2421 N2423 1.384 . S
N2422 C2418 1.427 . S
N2422 C2419 1.384 . S
N2423 C2415 1.427 . S
N2423 C2421 1.384 . S
H2424 C2430 0.930 . S
H2425 C2434 0.930 . S
H2426 C2439 0.929 . S
H2427 C2437 0.929 . S
H2428 C2432 0.929 . S
H2429 C2438 0.929 . S
C2430 H2424 0.930 . S
C2430 C2431 1.367 . S
C2430 C2438 1.378 . S
C2431 C2430 1.367 . S
C2431 C2439 1.433 . S
C2432 H2428 0.929 . S
C2432 C2434 1.378 . S
C2432 C2436 1.350 . S
C2433 C2436 1.463 . S
C2433 C2438 1.350 . S
C2433 N2441 1.427 . S
C2434 H2425 0.930 . S
C2434 C2432 1.378 . S
C2434 C2435 1.367 . S
C2435 C2434 1.367 . S
C2435 C2437 1.433 . S
C2436 C2432 1.350 . S
C2436 C2433 1.463 . S
C2436 N2440 1.427 . S
C2437 H2427 0.929 . S
C2437 C2435 1.433 . S
C2437 N2440 1.384 . S
C2438 H2429 0.929 . S
C2438 C2430 1.378 . S
C2438 C2433 1.350 . S
C2439 H2426 0.929 . S
C2439 C2431 1.433 . S
C2439 N2441 1.384 . S
N2440 C2436 1.427 . S
N2440 C2437 1.384 . S
N2441 C2433 1.427 . S
N2441 C2439 1.384 . S
H2442 C2448 0.930 . S
H2443 C2452 0.930 . S
H2444 C2457 0.929 . S
H2445 C2455 0.929 . S
H2446 C2450 0.929 . S
H2447 C2456 0.929 . S
C2448 H2442 0.930 . S
C2448 C2449 1.367 . S
C2448 C2456 1.378 . S
C2449 C2448 1.367 . S
C2449 C2457 1.433 . S
C2450 H2446 0.929 . S
C2450 C2452 1.378 . S
C2450 C2454 1.350 . S
C2451 C2454 1.463 . S
C2451 C2456 1.350 . S
C2451 N2459 1.427 . S
C2452 H2443 0.930 . S
C2452 C2450 1.378 . S
C2452 C2453 1.367 . S
C2453 C2452 1.367 . S
C2453 C2455 1.433 . S
C2454 C2450 1.350 . S
C2454 C2451 1.463 . S
C2454 N2458 1.427 . S
C2455 H2445 0.929 . S
C2455 C2453 1.433 . S
C2455 N2458 1.384 . S
C2456 H2447 0.929 . S
C2456 C2448 1.378 . S
C2456 C2451 1.350 . S
C2457 H2444 0.929 . S
C2457 C2449 1.433 . S
C2457 N2459 1.384 . S
N2458 C2454 1.427 . S
N2458 C2455 1.384 . S
N2459 C2451 1.427 . S
N2459 C2457 1.384 . S
H2460 C2466 0.930 . S
H2461 C2470 0.930 . S
H2462 C2475 0.929 . S
H2463 C2473 0.929 . S
H2464 C2468 0.929 . S
H2465 C2474 0.929 . S
C2466 H2460 0.930 . S
C2466 C2467 1.367 . S
C2466 C2474 1.378 . S
C2467 C2466 1.367 . S
C2467 C2475 1.433 . S
C2468 H2464 0.929 . S
C2468 C2470 1.378 1_554 S
C2468 C2472 1.350 . S
C2469 C2472 1.463 . S
C2469 C2474 1.350 . S
C2469 N2477 1.427 . S
C2470 H2461 0.930 . S
C2470 C2468 1.378 1_556 S
C2470 C2471 1.367 1_556 S
C2471 C2470 1.367 1_554 S
C2471 C2473 1.432 . S
C2472 C2468 1.350 . S
C2472 C2469 1.463 . S
C2472 N2476 1.427 . S
C2473 H2463 0.929 . S
C2473 C2471 1.432 . S
C2473 N2476 1.384 . S
C2474 H2465 0.929 . S
C2474 C2466 1.378 . S
C2474 C2469 1.350 . S
C2475 H2462 0.929 . S
C2475 C2467 1.433 . S
C2475 N2477 1.384 . S
N2476 C2472 1.427 . S
N2476 C2473 1.384 . S
N2477 C2469 1.427 . S
N2477 C2475 1.384 . S
H2478 C2484 0.930 . S
H2479 C2488 0.930 . S
H2480 C2493 0.929 . S
H2481 C2491 0.929 . S
H2482 C2486 0.929 . S
H2483 C2492 0.929 . S
C2484 H2478 0.930 . S
C2484 C2485 1.367 . S
C2484 C2492 1.378 . S
C2485 C2484 1.367 . S
C2485 C2493 1.433 . S
C2486 H2482 0.929 . S
C2486 C2488 1.378 . S
C2486 C2490 1.350 . S
C2487 C2490 1.463 . S
C2487 C2492 1.350 . S
C2487 N2495 1.427 . S
C2488 H2479 0.930 . S
C2488 C2486 1.378 . S
C2488 C2489 1.367 . S
C2489 C2488 1.367 . S
C2489 C2491 1.433 . S
C2490 C2486 1.350 . S
C2490 C2487 1.463 . S
C2490 N2494 1.427 . S
C2491 H2481 0.929 . S
C2491 C2489 1.433 . S
C2491 N2494 1.384 . S
C2492 H2483 0.929 . S
C2492 C2484 1.378 . S
C2492 C2487 1.350 . S
C2493 H2480 0.929 . S
C2493 C2485 1.433 . S
C2493 N2495 1.384 . S
N2494 C2490 1.427 . S
N2494 C2491 1.384 . S
N2495 C2487 1.427 . S
N2495 C2493 1.384 . S
C1063 C1011 1.523 . S
C1067 C21 1.522 . S
C1081 C54 1.523 . S
C1085 C516 1.521 . S
C1099 C87 1.520 . S
C1103 C945 1.524 . S
C1117 C120 1.521 . S
C1121 C450 1.523 . S
C1135 C879 1.523 . S
C1139 C153 1.521 . S
C1153 C384 1.522 . S
C1157 C186 1.523 . S
C1171 C219 1.522 . S
C1175 C813 1.522 . S
C1189 C318 1.520 . S
C1193 C252 1.524 . S
C1207 C747 1.524 . S
C1211 C285 1.520 . S
C1225 C681 1.525 . S
C1229 C351 1.520 . S
C1243 C417 1.525 . S
C1247 C615 1.520 . S
C1261 C549 1.523 . S
C1265 C483 1.522 . S
C1279 C1044 1.525 . S
C1283 C582 1.520 . S
C1297 C978 1.521 . S
C1301 C648 1.524 . S
C1315 C912 1.521 . S
C1319 C714 1.523 . S
C1333 C846 1.522 . S
C1337 C780 1.523 . S
C1351 N2 1.108 . S
C1355 N13 1.109 . S
C1369 N35 1.111 . S
C1373 N46 1.112 . S
C1387 N68 1.109 . S
C1391 N79 1.109 . S
C1405 N101 1.107 . S
C1409 N112 1.108 . S
C1423 N134 1.110 . S
C1427 N145 1.110 . S
C1441 N167 1.107 . S
C1445 N178 1.108 . S
C1459 N211 1.107 . S
C1463 N200 1.107 . S
C1477 N233 1.107 . S
C1481 N244 1.108 . S
C1495 N266 1.107 . S
C1499 N277 1.107 . S
C1513 N310 1.113 . S
C1517 N299 1.113 . S
C1531 N332 1.113 . S
C1535 N343 1.113 . S
C1549 N365 1.110 . S
C1553 N376 1.111 . S
C1567 N398 1.107 . S
C1571 N409 1.108 . S
C1585 N442 1.113 . S
C1589 N431 1.113 . S
C1603 N464 1.113 . S
C1607 N475 1.113 . S
C1621 N508 1.113 . S
C1625 N497 1.113 . S
C1639 N541 1.107 . S
C1643 N530 1.106 . S
C1657 N563 1.112 . S
C1661 N574 1.112 . S
C1675 N607 1.113 . S
C1679 N596 1.112 . S
C1693 N640 1.109 . S
C1697 N629 1.109 . S
C1711 N673 1.108 . S
C1715 N662 1.107 . S
C1729 N706 1.109 . S
C1733 N695 1.109 . S
C1747 N739 1.113 . S
C1751 N728 1.113 . S
C1765 N772 1.109 . S
C1769 N761 1.109 . S
C1783 N805 1.109 . S
C1787 N794 1.108 . S
C1801 N838 1.112 . S
C1805 N827 1.112 . S
C1819 N860 1.110 . S
C1823 N871 1.110 . S
C1837 N904 1.108 . S
C1841 N893 1.107 . S
C1855 N937 1.110 . S
C1859 N926 1.110 . S
C1873 N970 1.113 . S
C1877 N959 1.113 . S
C1891 N992 1.113 . S
C1895 N1003 1.113 . S
C1909 N1025 1.112 . S
C1913 N1036 1.112 . S
C1927 C205 1.413 . S
C1931 C7 1.404 . S
C1945 C238 1.402 . S
C1949 C40 1.412 . S
C1963 C73 1.413 . S
C1967 C139 1.403 . S
C1981 C172 1.401 . S
C1985 C106 1.410 . S
C1999 C271 1.408 . S
C2003 C469 1.399 . S
C2017 C304 1.399 . S
C2021 C502 1.405 . S
C2035 C337 1.414 . S
C2039 C403 1.408 . S
C2053 C436 1.414 . S
C2057 C370 1.408 . S
C2071 C733 1.410 . S
C2075 C535 1.413 . S
C2089 C568 1.409 . S
C2093 C766 1.413 . S
C2107 C667 1.399 . S
C2111 C601 1.403 . S
C2125 C700 1.412 . S
C2129 C634 1.412 . S
C2143 C799 1.406 . S
C2147 C997 1.399 . S
C2161 C1030 1.404 . S
C2165 C832 1.399 . S
C2179 C865 1.402 . S
C2183 C931 1.412 . S
C2197 C964 1.413 . S
C2201 C898 1.409 . S
C2215 C18 1.241 . S
C2219 C249 1.241 . S
C2233 C150 1.241 . S
C2237 C51 1.241 . S
C2251 C84 1.227 . S
C2255 C183 1.227 . S
C2269 C117 1.234 . S
C2273 C216 1.234 . S
C2287 C282 1.235 1_554 S
C2291 C513 1.234 . S
C2305 C414 1.242 . S
C2309 C315 1.242 . S
C2323 C348 1.232 . S
C2327 C447 1.233 . S
C2341 C381 1.242 . S
C2345 C480 1.242 . S
C2359 C777 1.232 . S
C2363 C546 1.232 . S
C2377 C678 1.228 . S
C2381 C579 1.228 . S
C2395 C711 1.240 . S
C2399 C612 1.239 1_556 S
C2413 C645 1.241 . S
C2417 C744 1.241 1_554 S
C2431 C810 1.242 . S
C2435 C1041 1.242 . S
C2449 C843 1.242 . S
C2453 C942 1.242 . S
C2467 C975 1.241 . S
C2471 C876 1.241 1_554 S
C2485 C1008 1.235 1_556 S
C2489 C909 1.235 . S
