# Generated by pormake.
# Topology uoc, (4)-cn, num edge types: 1
# Building blocks:
#     Node 0, Type 0, BuildingBlock: GALJAG_clean_sbu_0, # of connection points: 4
#     Node 1, Type 0, BuildingBlock: GALJAG_clean_sbu_0, # of connection points: 4
#     Node 2, Type 0, BuildingBlock: GALJAG_clean_sbu_0, # of connection points: 4
#     Node 3, Type 0, BuildingBlock: GALJAG_clean_sbu_0, # of connection points: 4
#     Node 4, Type 0, BuildingBlock: GALJAG_clean_sbu_0, # of connection points: 4
#     Node 5, Type 0, BuildingBlock: GALJAG_clean_sbu_0, # of connection points: 4
#     Node 6, Type 0, BuildingBlock: GALJAG_clean_sbu_0, # of connection points: 4
#     Node 7, Type 0, BuildingBlock: GALJAG_clean_sbu_0, # of connection points: 4
#     Edge 8, Type (0, 0), BuildingBlock: KIFKEQ_clean_linker_1, # of connection points: 2
#     Edge 9, Type (0, 0), BuildingBlock: KIFKEQ_clean_linker_1, # of connection points: 2
#     Edge 10, Type (0, 0), BuildingBlock: KIFKEQ_clean_linker_1, # of connection points: 2
#     Edge 11, Type (0, 0), BuildingBlock: KIFKEQ_clean_linker_1, # of connection points: 2
#     Edge 12, Type (0, 0), BuildingBlock: KIFKEQ_clean_linker_1, # of connection points: 2
#     Edge 13, Type (0, 0), BuildingBlock: KIFKEQ_clean_linker_1, # of connection points: 2
#     Edge 14, Type (0, 0), BuildingBlock: KIFKEQ_clean_linker_1, # of connection points: 2
#     Edge 15, Type (0, 0), BuildingBlock: KIFKEQ_clean_linker_1, # of connection points: 2
#     Edge 16, Type (0, 0), BuildingBlock: KIFKEQ_clean_linker_1, # of connection points: 2
#     Edge 17, Type (0, 0), BuildingBlock: KIFKEQ_clean_linker_1, # of connection points: 2
#     Edge 18, Type (0, 0), BuildingBlock: KIFKEQ_clean_linker_1, # of connection points: 2
#     Edge 19, Type (0, 0), BuildingBlock: KIFKEQ_clean_linker_1, # of connection points: 2
#     Edge 20, Type (0, 0), BuildingBlock: KIFKEQ_clean_linker_1, # of connection points: 2
#     Edge 21, Type (0, 0), BuildingBlock: KIFKEQ_clean_linker_1, # of connection points: 2
#     Edge 22, Type (0, 0), BuildingBlock: KIFKEQ_clean_linker_1, # of connection points: 2
#     Edge 23, Type (0, 0), BuildingBlock: KIFKEQ_clean_linker_1, # of connection points: 2
# Relax obj value: 0.017
# Max RMSD: 0.050
# Mean RMSD: 0.050
data_MOF--net-uoc--node1-GALJAG_clean_sbu_0--edge1-KIFKEQ_clean_linker_1
_symmetry_space_group_name_H-M    P1
_symmetry_Int_Tables_number       1
_symmetry_cell_setting            triclinic
loop_
_symmetry_equiv_pos_as_xyz
'x, y, z'
_cell_length_a     28.294958
_cell_length_b     28.276379
_cell_length_c     56.397813
_cell_angle_alpha  89.992579
_cell_angle_beta   90.007735
_cell_angle_gamma 90.398369
loop_
_atom_site_label
_atom_site_type_symbol
_atom_site_fract_x
_atom_site_fract_y
_atom_site_fract_z
_atom_type_partial_charge
In0 In 0.11177 0.24936 0.1223 0.0
O1 O 0.04749 0.29778 0.1256 0.0
O2 O 0.11466 0.32929 0.1189 0.0
C3 C 0.0714 0.16261 0.12199 0.0
C4 C 0.15153 0.25459 0.16561 0.0
C5 C 0.15282 0.24554 0.07928 0.0
O6 O 0.04783 0.1998 0.11851 0.0
O7 O 0.11489 0.1694 0.12569 0.0
O8 O 0.17608 0.23971 0.09819 0.0
O9 O 0.1094 0.25342 0.08223 0.0
C10 C 0.07106 0.33535 0.12227 0.0
O11 O 0.17528 0.26064 0.14686 0.0
O12 O 0.1083 0.24554 0.16237 0.0
In13 In 0.74764 0.61323 0.37144 0.0
O14 O 0.75646 0.67602 0.34635 0.0
O15 O 0.74194 0.60823 0.33144 0.0
C16 C 0.74746 0.65543 0.41431 0.0
C17 C 0.83345 0.57236 0.37057 0.0
C18 C 0.66079 0.57318 0.37185 0.0
O19 O 0.73937 0.67806 0.39545 0.0
O20 O 0.75598 0.61215 0.41139 0.0
O21 O 0.69805 0.54895 0.37336 0.0
O22 O 0.66753 0.61717 0.37011 0.0
C23 C 0.74997 0.65161 0.32783 0.0
O24 O 0.79581 0.54859 0.37327 0.0
O25 O 0.82759 0.61631 0.36829 0.0
In26 In 0.38942 0.24756 0.62181 0.0
O27 O 0.45348 0.19894 0.62539 0.0
O28 O 0.38655 0.16769 0.61787 0.0
C29 C 0.43044 0.33402 0.62171 0.0
C30 C 0.34912 0.2421 0.66499 0.0
C31 C 0.34796 0.25262 0.57891 0.0
O32 O 0.45364 0.29676 0.61783 0.0
O33 O 0.38704 0.32743 0.62571 0.0
O34 O 0.32497 0.25819 0.59791 0.0
O35 O 0.39133 0.24428 0.58169 0.0
C36 C 0.43 0.16148 0.62162 0.0
O37 O 0.32563 0.23609 0.64615 0.0
O38 O 0.3924 0.25112 0.66191 0.0
In39 In 0.7486 0.8885 0.87181 0.0
O40 O 0.73946 0.82536 0.84698 0.0
O41 O 0.75302 0.89307 0.83175 0.0
C42 C 0.75118 0.84661 0.91475 0.0
C43 C 0.66245 0.9287 0.87142 0.0
C44 C 0.83511 0.92927 0.87146 0.0
O45 O 0.75833 0.82389 0.89582 0.0
O46 O 0.74232 0.88983 0.91187 0.0
O47 O 0.79778 0.95311 0.87385 0.0
O48 O 0.82859 0.88534 0.86922 0.0
C49 C 0.74529 0.84958 0.82834 0.0
O50 O 0.70005 0.95289 0.87312 0.0
O51 O 0.6685 0.88465 0.86993 0.0
In52 In 0.61381 0.7492 0.62115 0.0
O53 O 0.54947 0.79753 0.62452 0.0
O54 O 0.61669 0.82917 0.61812 0.0
C55 C 0.57381 0.66229 0.62079 0.0
C56 C 0.65399 0.75386 0.66435 0.0
C57 C 0.65435 0.74625 0.57802 0.0
O58 O 0.54995 0.69944 0.61773 0.0
O59 O 0.61742 0.66919 0.62405 0.0
O60 O 0.6779 0.74048 0.59683 0.0
O61 O 0.61087 0.75356 0.5811 0.0
C62 C 0.57306 0.83517 0.62139 0.0
O63 O 0.67757 0.76006 0.64556 0.0
O64 O 0.61071 0.74497 0.66121 0.0
In65 In 0.25021 0.11209 0.87275 0.0
O66 O 0.25982 0.17489 0.8477 0.0
O67 O 0.24543 0.10711 0.83273 0.0
C68 C 0.24847 0.15372 0.91578 0.0
C69 C 0.33615 0.07149 0.87217 0.0
C70 C 0.16343 0.07196 0.87242 0.0
O71 O 0.2411 0.17662 0.89692 0.0
O72 O 0.25712 0.11049 0.91278 0.0
O73 O 0.20063 0.0478 0.87447 0.0
O74 O 0.1702 0.11593 0.87053 0.0
C75 C 0.25369 0.15045 0.82915 0.0
O76 O 0.29851 0.04752 0.8744 0.0
O77 O 0.33022 0.11551 0.87029 0.0
In78 In 0.88736 0.74772 0.12107 0.0
O79 O 0.823 0.73663 0.14505 0.0
O80 O 0.8894 0.75187 0.16115 0.0
C81 C 0.84698 0.75203 0.07791 0.0
C82 C 0.92796 0.66165 0.12139 0.0
C83 C 0.92805 0.83433 0.12108 0.0
O84 O 0.82349 0.75758 0.09675 0.0
O85 O 0.89037 0.74411 0.08097 0.0
O86 O 0.95158 0.7971 0.11765 0.0
O87 O 0.88448 0.82764 0.12453 0.0
C88 C 0.84604 0.74293 0.164 0.0
O89 O 0.95142 0.69919 0.12497 0.0
O90 O 0.88452 0.66777 0.11758 0.0
In91 In 0.24599 0.38959 0.37321 0.0
O92 O 0.23668 0.3264 0.34839 0.0
O93 O 0.25049 0.39404 0.33315 0.0
C94 C 0.24895 0.34788 0.4162 0.0
C95 C 0.15979 0.42968 0.37254 0.0
C96 C 0.33248 0.4304 0.37277 0.0
O97 O 0.25595 0.32511 0.39728 0.0
O98 O 0.23997 0.39107 0.4133 0.0
O99 O 0.29519 0.45416 0.37553 0.0
O100 O 0.32592 0.38655 0.37021 0.0
C101 C 0.24257 0.35058 0.32974 0.0
O102 O 0.19736 0.45398 0.37401 0.0
O103 O 0.1659 0.38559 0.3715 0.0
H104 H 0.11062 0.26411 0.03704 0.0
H105 H 0.24191 0.21649 0.06764 0.0
H106 H 0.14129 0.24887 -0.00251 0.0
H107 H 0.27297 0.20162 0.02785 0.0
H108 H 0.26968 0.11221 0.95788 0.0
H109 H 0.2532 0.14184 -0.00249 0.0
H110 H 0.2006 0.27182 0.96748 0.0
H111 H 0.21669 0.2418 0.92762 0.0
C112 C 0.14634 0.25103 0.03528 0.0
C113 C 0.17373 0.24103 0.05542 0.0
C114 C 0.16407 0.24267 0.0126 0.0
C115 C 0.20951 0.22393 0.00955 0.0
C116 C 0.23764 0.21567 0.02968 0.0
C117 C 0.21996 0.22431 0.05242 0.0
C118 C 0.25522 0.1474 0.95973 0.0
C119 C 0.24401 0.17453 0.93966 0.0
C120 C 0.24612 0.16452 0.98247 0.0
C121 C 0.22539 0.20908 0.98562 0.0
C122 C 0.21613 0.23712 0.96557 0.0
C123 C 0.22551 0.22005 0.94278 0.0
H124 H 0.73201 0.60687 0.28605 0.0
H125 H 0.77885 0.74051 0.31516 0.0
H126 H 0.74849 0.6357 0.24617 0.0
H127 H 0.79497 0.7696 0.27512 0.0
H128 H 0.75787 0.70979 0.17542 0.0
H129 H 0.72675 0.694 0.21516 0.0
H130 H 0.85624 0.74803 0.2458 0.0
H131 H 0.88702 0.76405 0.20629 0.0
C132 C 0.74514 0.64269 0.28388 0.0
C133 C 0.75462 0.67129 0.30371 0.0
C134 C 0.75424 0.65933 0.26102 0.0
C135 C 0.77324 0.70483 0.25753 0.0
C136 C 0.7808 0.73419 0.27731 0.0
C137 C 0.77142 0.71762 0.3002 0.0
C138 C 0.77931 0.71887 0.19069 0.0
C139 C 0.82498 0.73777 0.18779 0.0
C140 C 0.7616 0.70969 0.2134 0.0
C141 C 0.78912 0.71966 0.23358 0.0
C142 C 0.83396 0.74046 0.23063 0.0
C143 C 0.85174 0.7493 0.20798 0.0
H144 H 0.25898 0.28275 0.56779 0.0
H145 H 0.38943 0.23494 0.53638 0.0
H146 H 0.22741 0.29888 0.52823 0.0
H147 H 0.35823 0.25142 0.49704 0.0
H148 H 0.22944 0.38923 0.45857 0.0
H149 H 0.24701 0.35914 0.49802 0.0
H150 H 0.29804 0.2292 0.46728 0.0
H151 H 0.28084 0.25966 0.42762 0.0
C152 C 0.28065 0.27517 0.55244 0.0
C153 C 0.32678 0.25798 0.55515 0.0
C154 C 0.26267 0.28455 0.52983 0.0
C155 C 0.2904 0.27656 0.50954 0.0
C156 C 0.33577 0.25744 0.51228 0.0
C157 C 0.35379 0.24835 0.53485 0.0
C158 C 0.24379 0.35397 0.46024 0.0
C159 C 0.2542 0.32695 0.44003 0.0
C160 C 0.25354 0.33659 0.48286 0.0
C161 C 0.2741 0.29188 0.48575 0.0
C162 C 0.28265 0.264 0.46557 0.0
C163 C 0.27263 0.28132 0.4429 0.0
H164 H 0.76289 0.89372 0.78636 0.0
H165 H 0.71694 0.76028 0.81606 0.0
H166 H 0.74745 0.86379 0.74659 0.0
H167 H 0.70181 0.73011 0.77611 0.0
H168 H 0.6119 0.73295 0.7064 0.0
H169 H 0.64117 0.75018 0.74608 0.0
H170 H 0.77115 0.80478 0.71625 0.0
H171 H 0.74157 0.78776 0.67634 0.0
C172 C 0.75012 0.85773 0.78436 0.0
C173 C 0.74068 0.82946 0.8043 0.0
C174 C 0.74163 0.84047 0.76156 0.0
C175 C 0.72328 0.79466 0.75824 0.0
C176 C 0.71554 0.76573 0.77817 0.0
C177 C 0.72434 0.78292 0.801 0.0
C178 C 0.64698 0.74806 0.70831 0.0
C179 C 0.67431 0.75942 0.68829 0.0
C180 C 0.66389 0.7576 0.73106 0.0
C181 C 0.7084 0.77898 0.73427 0.0
C182 C 0.73653 0.78869 0.71427 0.0
C183 C 0.71971 0.77878 0.69147 0.0
H184 H 0.21347 0.26151 0.31745 0.0
H185 H 0.26058 0.39456 0.28777 0.0
H186 H 0.19816 0.23146 0.27749 0.0
H187 H 0.24497 0.36476 0.24798 0.0
H188 H 0.23907 0.28842 0.17774 0.0
H189 H 0.26837 0.30562 0.21769 0.0
H190 H 0.13791 0.25179 0.24733 0.0
H191 H 0.10891 0.23437 0.20762 0.0
C192 C 0.22108 0.28409 0.30239 0.0
C193 C 0.23783 0.33049 0.3057 0.0
C194 C 0.21217 0.26697 0.27955 0.0
C195 C 0.22019 0.29583 0.25962 0.0
C196 C 0.23891 0.34149 0.26295 0.0
C197 C 0.24751 0.35869 0.28576 0.0
C198 C 0.21703 0.27967 0.19284 0.0
C199 C 0.1716 0.26042 0.18959 0.0
C200 C 0.23369 0.28967 0.21566 0.0
C201 C 0.20536 0.2802 0.23562 0.0
C202 C 0.16078 0.25902 0.23235 0.0
C203 C 0.14404 0.24937 0.20958 0.0
H204 H 0.61139 0.76455 0.53595 0.0
H205 H 0.74381 0.71885 0.56608 0.0
H206 H 0.64182 0.75005 0.49629 0.0
H207 H 0.77463 0.70474 0.52618 0.0
H208 H 0.77065 0.61468 0.45632 0.0
H209 H 0.75507 0.64455 0.49599 0.0
H210 H 0.70037 0.77373 0.46604 0.0
H211 H 0.71556 0.74344 0.42614 0.0
C212 C 0.6473 0.75207 0.53406 0.0
C213 C 0.67507 0.74233 0.5541 0.0
C214 C 0.66489 0.74415 0.51132 0.0
C215 C 0.71058 0.72612 0.50811 0.0
C216 C 0.73911 0.71823 0.52813 0.0
C217 C 0.72155 0.72642 0.55094 0.0
C218 C 0.75595 0.64976 0.4582 0.0
C219 C 0.74382 0.67655 0.43816 0.0
C220 C 0.74737 0.66703 0.48095 0.0
C221 C 0.72626 0.71139 0.48414 0.0
C222 C 0.71621 0.73918 0.4641 0.0
C223 C 0.72506 0.72196 0.44129 0.0
H224 H 0.39121 0.26217 0.70715 0.0
H225 H 0.26107 0.20916 0.67679 0.0
H226 H 0.36113 0.24586 0.74678 0.0
H227 H 0.23068 0.19308 0.71664 0.0
H228 H 0.28396 0.23893 0.81647 0.0
H229 H 0.30047 0.26781 0.77641 0.0
H230 H 0.25239 0.13445 0.74748 0.0
H231 H 0.23557 0.10584 0.78736 0.0
C232 C 0.35588 0.24761 0.70898 0.0
C233 C 0.32861 0.23657 0.68889 0.0
C234 C 0.33851 0.2386 0.7317 0.0
C235 C 0.29358 0.21809 0.73482 0.0
C236 C 0.26561 0.20853 0.71474 0.0
C237 C 0.2829 0.21789 0.69197 0.0
C238 C 0.2763 0.21611 0.80151 0.0
C239 C 0.25887 0.17002 0.80502 0.0
C240 C 0.28591 0.23255 0.77861 0.0
C241 C 0.27793 0.2033 0.75882 0.0
C242 C 0.25846 0.158 0.76233 0.0
C243 C 0.24915 0.14149 0.7852 0.0
H244 H 0.88963 0.73449 0.03565 0.0
H245 H 0.75797 0.78108 0.06624 0.0
H246 H 0.85919 0.75055 0.99611 0.0
H247 H 0.72718 0.79679 0.02649 0.0
H248 H 0.7833 0.7585 0.92622 0.0
H249 H 0.79975 0.72791 0.96595 0.0
H250 H 0.74731 0.85743 0.99653 0.0
H251 H 0.73052 0.88763 0.95703 0.0
C252 C 0.85389 0.74752 0.03389 0.0
C253 C 0.82632 0.75698 0.05402 0.0
C254 C 0.83631 0.75636 0.01122 0.0
C255 C 0.79084 0.77506 0.0082 0.0
C256 C 0.76254 0.78279 0.02831 0.0
C257 C 0.78007 0.77366 0.05103 0.0
C258 C 0.77463 0.78003 0.94147 0.0
C259 C 0.75604 0.82557 0.93856 0.0
C260 C 0.7842 0.76264 0.96418 0.0
C261 C 0.77503 0.79037 0.98434 0.0
C262 C 0.75431 0.83499 0.98139 0.0
C263 C 0.74502 0.85244 0.95873 0.0
H264 H 0.11339 0.0798 0.13429 0.0
H265 H 0.98167 0.13719 0.10898 0.0
H266 H 0.07891 0.00069 0.13412 0.0
H267 H 0.94747 0.05775 0.10796 0.0
H268 H 0.88575 0.91712 0.13304 0.0
H269 H 0.92034 0.99616 0.13333 0.0
H270 H 0.05274 0.93908 0.10846 0.0
H271 H 0.01837 0.85966 0.10901 0.0
C272 C 0.0771 0.07543 0.12854 0.0
C273 C 0.05017 0.1147 0.1217 0.0
C274 C 0.0574 0.02998 0.12827 0.0
C275 C 0.01038 0.02265 0.12098 0.0
C276 C 0.98355 0.06207 0.11403 0.0
C277 C 0.00318 0.10761 0.11448 0.0
C278 C 0.92228 0.92147 0.12766 0.0
C279 C 0.9494 0.88219 0.12105 0.0
C280 C 0.94204 0.96687 0.12766 0.0
C281 C 0.98935 0.97419 0.12085 0.0
C282 C 0.01641 0.93477 0.11414 0.0
C283 C 0.9967 0.88925 0.11433 0.0
H284 H 0.13552 0.52114 0.38202 0.0
H285 H 0.0766 0.38574 0.36189 0.0
H286 H 0.05654 0.55517 0.38191 0.0
H287 H 0.99796 0.41996 0.36072 0.0
H288 H 0.85781 0.48291 0.38394 0.0
H289 H 0.93674 0.44881 0.38489 0.0
H290 H 0.99474 0.57911 0.35673 0.0
H291 H 0.91618 0.61361 0.35684 0.0
C292 C 0.10568 0.49879 0.37738 0.0
C293 C 0.11218 0.45081 0.37203 0.0
C294 C 0.06039 0.51831 0.37716 0.0
C295 C 0.02064 0.49038 0.37129 0.0
C296 C 0.02746 0.4424 0.36576 0.0
C297 C 0.07263 0.42281 0.36626 0.0
C298 C 0.8875 0.50414 0.37795 0.0
C299 C 0.88089 0.5509 0.37038 0.0
C300 C 0.93277 0.48457 0.37836 0.0
C301 C 0.97236 0.51116 0.3709 0.0
C302 C 0.96539 0.55782 0.36305 0.0
C303 C 0.92026 0.57753 0.36293 0.0
H304 H 0.38928 0.41674 0.63475 0.0
H305 H 0.5199 0.35928 0.6081 0.0
H306 H 0.42397 0.49573 0.63452 0.0
H307 H 0.55431 0.43867 0.60704 0.0
H308 H 0.61686 0.57938 0.63196 0.0
H309 H 0.58247 0.50022 0.63224 0.0
H310 H 0.44913 0.55735 0.60866 0.0
H311 H 0.48331 0.63683 0.60923 0.0
C312 C 0.42538 0.42107 0.62869 0.0
C313 C 0.45192 0.38182 0.62148 0.0
C314 C 0.44519 0.46646 0.62839 0.0
C315 C 0.49194 0.47377 0.62068 0.0
C316 C 0.51844 0.43436 0.61341 0.0
C317 C 0.4987 0.38886 0.61389 0.0
C318 C 0.58017 0.575 0.62686 0.0
C319 C 0.55271 0.61431 0.62064 0.0
C320 C 0.56052 0.52954 0.62685 0.0
C321 C 0.51299 0.52222 0.62044 0.0
C322 C 0.48564 0.56166 0.61406 0.0
C323 C 0.50524 0.60722 0.61425 0.0
H324 H 0.5791 0.88549 0.86032 0.0
H325 H 0.6384 0.01955 0.88233 0.0
H326 H 0.50047 0.9198 0.85998 0.0
H327 H 0.55945 0.0536 0.88306 0.0
H328 H 0.4189 0.11361 0.8592 0.0
H329 H 0.49743 0.07914 0.85848 0.0
H330 H 0.43952 0.94723 0.88476 0.0
H331 H 0.36058 0.98138 0.8844 0.0
C332 C 0.57522 0.92227 0.86526 0.0
C333 C 0.61487 0.94989 0.87131 0.0
C334 C 0.53005 0.9419 0.86525 0.0
C335 C 0.52335 0.98952 0.87157 0.0
C336 C 0.5632 0.01705 0.87771 0.0
C337 C 0.60848 0.99751 0.87744 0.0
C338 C 0.42299 0.0772 0.86477 0.0
C339 C 0.38364 0.05014 0.87183 0.0
C340 C 0.46811 0.05749 0.86454 0.0
C341 C 0.47509 0.01036 0.87165 0.0
C342 C 0.43553 0.98337 0.87879 0.0
C343 C 0.39027 0.00297 0.87873 0.0
H344 H 0.886 0.57829 0.10908 0.0
H345 H 0.01767 0.6375 0.13448 0.0
H346 H 0.92044 0.49965 0.1093 0.0
H347 H 0.05184 0.5585 0.13554 0.0
H348 H 0.11342 0.4187 0.11033 0.0
H349 H 0.07894 0.49729 0.11012 0.0
H350 H 0.94653 0.43845 0.13503 0.0
H351 H 0.98079 0.35946 0.1344 0.0
C352 C 0.92228 0.57441 0.11486 0.0
C353 C 0.94921 0.61405 0.1217 0.0
C354 C 0.94195 0.52924 0.11517 0.0
C355 C 0.98894 0.52256 0.12249 0.0
C356 C 0.01578 0.56234 0.12945 0.0
C357 C 0.99617 0.60761 0.12897 0.0
C358 C 0.07692 0.42256 0.11574 0.0
C359 C 0.04975 0.38292 0.12233 0.0
C360 C 0.05721 0.46771 0.11579 0.0
C361 C 0.00993 0.47439 0.12262 0.0
C362 C 0.98283 0.43461 0.12933 0.0
C363 C 0.00249 0.38934 0.12909 0.0
H364 H 0.41462 0.38879 0.35937 0.0
H365 H 0.3582 0.5201 0.38578 0.0
H366 H 0.49361 0.42332 0.35886 0.0
H367 H 0.43762 0.55429 0.38631 0.0
H368 H 0.5778 0.61674 0.36155 0.0
H369 H 0.49867 0.58248 0.36147 0.0
H370 H 0.55615 0.44819 0.38359 0.0
H371 H 0.63559 0.48222 0.38263 0.0
C372 C 0.41922 0.42501 0.36525 0.0
C373 C 0.38026 0.4518 0.37258 0.0
C374 C 0.46461 0.44474 0.36514 0.0
C375 C 0.47225 0.49162 0.37264 0.0
C376 C 0.4331 0.51834 0.38005 0.0
C377 C 0.38757 0.49872 0.37989 0.0
C378 C 0.57349 0.57986 0.36636 0.0
C379 C 0.61286 0.55209 0.37205 0.0
C380 C 0.52803 0.56027 0.36649 0.0
C381 C 0.52077 0.51251 0.37257 0.0
C382 C 0.56034 0.48486 0.37841 0.0
C383 C 0.60589 0.50437 0.37802 0.0
H384 H 0.38819 0.07841 0.60871 0.0
H385 H 0.51959 0.13705 0.63477 0.0
H386 H 0.42261 -0.00024 0.60861 0.0
H387 H 0.55373 0.05803 0.63552 0.0
H388 H 0.61558 0.91869 0.60993 0.0
H389 H 0.58111 0.99728 0.60991 0.0
H390 H 0.44835 0.93806 0.63413 0.0
H391 H 0.48261 0.85908 0.63331 0.0
C392 C 0.4244 0.07441 0.61457 0.0
C393 C 0.45126 0.11389 0.62169 0.0
C394 C 0.44406 0.02923 0.61469 0.0
C395 C 0.49096 0.02237 0.62211 0.0
C396 C 0.51774 0.062 0.62934 0.0
C397 C 0.49815 0.10729 0.62904 0.0
C398 C 0.579 0.92247 0.61523 0.0
C399 C 0.55174 0.88273 0.62158 0.0
C400 C 0.5593 0.96762 0.61539 0.0
C401 C 0.51193 0.97419 0.62208 0.0
C402 C 0.48473 0.93431 0.62853 0.0
C403 C 0.50439 0.88904 0.62819 0.0
H404 H 0.86048 0.01941 0.88381 0.0
H405 H 0.9176 0.88719 0.85897 0.0
H406 H 0.93989 0.05357 0.88465 0.0
H407 H 0.99663 0.92166 0.85877 0.0
H408 H 0.13778 0.98129 0.88355 0.0
H409 H 0.05831 0.94728 0.88388 0.0
H410 H 0.00182 0.08088 0.86011 0.0
H411 H 0.08094 0.11514 0.86081 0.0
C412 C 0.89001 0.99782 0.87833 0.0
C413 C 0.88289 0.95065 0.87138 0.0
C414 C 0.93554 0.01743 0.87866 0.0
C415 C 0.97489 0.99043 0.87179 0.0
C416 C 0.96745 0.94331 0.86463 0.0
C417 C 0.92205 0.9236 0.86456 0.0
C418 C 0.1083 0.00329 0.87843 0.0
C419 C 0.11552 0.05084 0.87219 0.0
C420 C 0.06273 0.98378 0.87847 0.0
C421 C 0.02343 0.01127 0.872 0.0
C422 C 0.03096 0.05882 0.86561 0.0
C423 C 0.07641 0.07842 0.86584 0.0
loop_
_geom_bond_atom_site_label_1
_geom_bond_atom_site_label_2
_geom_bond_distance
_geom_bond_site_symmetry_2
_ccdc_geom_bond_type
In0 O1 2.294 . S
In0 O2 2.326 . S
In0 O6 2.266 . S
In0 O7 2.326 . S
In0 O8 2.266 . S
In0 O9 2.326 . S
In0 O11 2.294 . S
In0 O12 2.326 . S
O1 In0 2.294 . S
O1 C10 1.240 . S
O2 In0 2.326 . S
O2 C10 1.252 . S
C3 O6 1.252 . S
C3 O7 1.260 . S
C4 O11 1.240 . S
C4 O12 1.252 . S
C5 O8 1.252 . S
C5 O9 1.260 . S
O6 In0 2.266 . S
O6 C3 1.252 . S
O7 In0 2.326 . S
O7 C3 1.260 . S
O8 In0 2.266 . S
O8 C5 1.252 . S
O9 In0 2.326 . S
O9 C5 1.260 . S
C10 O1 1.240 . S
C10 O2 1.252 . S
O11 In0 2.294 . S
O11 C4 1.240 . S
O12 In0 2.326 . S
O12 C4 1.252 . S
In13 O14 2.294 . S
In13 O15 2.326 . S
In13 O19 2.266 . S
In13 O20 2.326 . S
In13 O21 2.266 . S
In13 O22 2.326 . S
In13 O24 2.294 . S
In13 O25 2.326 . S
O14 In13 2.294 . S
O14 C23 1.240 . S
O15 In13 2.326 . S
O15 C23 1.252 . S
C16 O19 1.252 . S
C16 O20 1.260 . S
C17 O24 1.240 . S
C17 O25 1.252 . S
C18 O21 1.252 . S
C18 O22 1.260 . S
O19 In13 2.266 . S
O19 C16 1.252 . S
O20 In13 2.326 . S
O20 C16 1.260 . S
O21 In13 2.266 . S
O21 C18 1.252 . S
O22 In13 2.326 . S
O22 C18 1.260 . S
C23 O14 1.240 . S
C23 O15 1.252 . S
O24 In13 2.294 . S
O24 C17 1.240 . S
O25 In13 2.326 . S
O25 C17 1.252 . S
In26 O27 2.294 . S
In26 O28 2.326 . S
In26 O32 2.266 . S
In26 O33 2.326 . S
In26 O34 2.266 . S
In26 O35 2.326 . S
In26 O37 2.294 . S
In26 O38 2.326 . S
O27 In26 2.294 . S
O27 C36 1.240 . S
O28 In26 2.326 . S
O28 C36 1.252 . S
C29 O32 1.252 . S
C29 O33 1.260 . S
C30 O37 1.240 . S
C30 O38 1.252 . S
C31 O34 1.252 . S
C31 O35 1.260 . S
O32 In26 2.266 . S
O32 C29 1.252 . S
O33 In26 2.326 . S
O33 C29 1.260 . S
O34 In26 2.266 . S
O34 C31 1.252 . S
O35 In26 2.326 . S
O35 C31 1.260 . S
C36 O27 1.240 . S
C36 O28 1.252 . S
O37 In26 2.294 . S
O37 C30 1.240 . S
O38 In26 2.326 . S
O38 C30 1.252 . S
In39 O40 2.294 . S
In39 O41 2.326 . S
In39 O45 2.266 . S
In39 O46 2.326 . S
In39 O47 2.266 . S
In39 O48 2.326 . S
In39 O50 2.294 . S
In39 O51 2.326 . S
O40 In39 2.294 . S
O40 C49 1.240 . S
O41 In39 2.326 . S
O41 C49 1.252 . S
C42 O45 1.252 . S
C42 O46 1.260 . S
C43 O50 1.240 . S
C43 O51 1.252 . S
C44 O47 1.252 . S
C44 O48 1.260 . S
O45 In39 2.266 . S
O45 C42 1.252 . S
O46 In39 2.326 . S
O46 C42 1.260 . S
O47 In39 2.266 . S
O47 C44 1.252 . S
O48 In39 2.326 . S
O48 C44 1.260 . S
C49 O40 1.240 . S
C49 O41 1.252 . S
O50 In39 2.294 . S
O50 C43 1.240 . S
O51 In39 2.326 . S
O51 C43 1.252 . S
In52 O53 2.294 . S
In52 O54 2.326 . S
In52 O58 2.266 . S
In52 O59 2.326 . S
In52 O60 2.266 . S
In52 O61 2.326 . S
In52 O63 2.294 . S
In52 O64 2.326 . S
O53 In52 2.294 . S
O53 C62 1.240 . S
O54 In52 2.326 . S
O54 C62 1.252 . S
C55 O58 1.252 . S
C55 O59 1.260 . S
C56 O63 1.240 . S
C56 O64 1.252 . S
C57 O60 1.252 . S
C57 O61 1.260 . S
O58 In52 2.266 . S
O58 C55 1.252 . S
O59 In52 2.326 . S
O59 C55 1.260 . S
O60 In52 2.266 . S
O60 C57 1.252 . S
O61 In52 2.326 . S
O61 C57 1.260 . S
C62 O53 1.240 . S
C62 O54 1.252 . S
O63 In52 2.294 . S
O63 C56 1.240 . S
O64 In52 2.326 . S
O64 C56 1.252 . S
In65 O66 2.294 . S
In65 O67 2.326 . S
In65 O71 2.266 . S
In65 O72 2.326 . S
In65 O73 2.266 . S
In65 O74 2.326 . S
In65 O76 2.294 . S
In65 O77 2.326 . S
O66 In65 2.294 . S
O66 C75 1.240 . S
O67 In65 2.326 . S
O67 C75 1.252 . S
C68 O71 1.252 . S
C68 O72 1.260 . S
C69 O76 1.240 . S
C69 O77 1.252 . S
C70 O73 1.252 . S
C70 O74 1.260 . S
O71 In65 2.266 . S
O71 C68 1.252 . S
O72 In65 2.326 . S
O72 C68 1.260 . S
O73 In65 2.266 . S
O73 C70 1.252 . S
O74 In65 2.326 . S
O74 C70 1.260 . S
C75 O66 1.240 . S
C75 O67 1.252 . S
O76 In65 2.294 . S
O76 C69 1.240 . S
O77 In65 2.326 . S
O77 C69 1.252 . S
In78 O79 2.294 . S
In78 O80 2.326 . S
In78 O84 2.266 . S
In78 O85 2.326 . S
In78 O86 2.266 . S
In78 O87 2.326 . S
In78 O89 2.294 . S
In78 O90 2.326 . S
O79 In78 2.294 . S
O79 C88 1.240 . S
O80 In78 2.326 . S
O80 C88 1.252 . S
C81 O84 1.252 . S
C81 O85 1.260 . S
C82 O89 1.240 . S
C82 O90 1.252 . S
C83 O86 1.252 . S
C83 O87 1.260 . S
O84 In78 2.266 . S
O84 C81 1.252 . S
O85 In78 2.326 . S
O85 C81 1.260 . S
O86 In78 2.266 . S
O86 C83 1.252 . S
O87 In78 2.326 . S
O87 C83 1.260 . S
C88 O79 1.240 . S
C88 O80 1.252 . S
O89 In78 2.294 . S
O89 C82 1.240 . S
O90 In78 2.326 . S
O90 C82 1.252 . S
In91 O92 2.294 . S
In91 O93 2.326 . S
In91 O97 2.266 . S
In91 O98 2.326 . S
In91 O99 2.266 . S
In91 O100 2.326 . S
In91 O102 2.294 . S
In91 O103 2.326 . S
O92 In91 2.294 . S
O92 C101 1.240 . S
O93 In91 2.326 . S
O93 C101 1.252 . S
C94 O97 1.252 . S
C94 O98 1.260 . S
C95 O102 1.240 . S
C95 O103 1.252 . S
C96 O99 1.252 . S
C96 O100 1.260 . S
O97 In91 2.266 . S
O97 C94 1.252 . S
O98 In91 2.326 . S
O98 C94 1.260 . S
O99 In91 2.266 . S
O99 C96 1.252 . S
O100 In91 2.326 . S
O100 C96 1.260 . S
C101 O92 1.240 . S
C101 O93 1.252 . S
O102 In91 2.294 . S
O102 C95 1.240 . S
O103 In91 2.326 . S
O103 C95 1.252 . S
H104 C112 0.950 . S
H105 C117 0.950 . S
H106 C114 0.950 . S
H107 C116 0.950 . S
H108 C118 0.950 . S
H109 C120 0.950 . S
H110 C122 0.950 . S
H111 C123 0.950 . S
C112 H104 0.950 . S
C112 C113 1.386 . S
C112 C114 1.391 . S
C113 C112 1.386 . S
C113 C117 1.393 . S
C114 H106 0.950 . S
C114 C112 1.391 . S
C114 C115 1.400 . S
C115 C114 1.400 . S
C115 C116 1.398 . S
C115 C121 1.491 1_554 S
C116 H107 0.950 . S
C116 C115 1.398 . S
C116 C117 1.391 . S
C117 H105 0.950 . S
C117 C113 1.393 . S
C117 C116 1.391 . S
C118 H108 0.950 . S
C118 C119 1.386 . S
C118 C120 1.391 . S
C119 C118 1.386 . S
C119 C123 1.393 . S
C120 H109 0.950 . S
C120 C118 1.391 . S
C120 C121 1.400 . S
C121 C115 1.491 1_556 S
C121 C120 1.400 . S
C121 C122 1.398 . S
C122 H110 0.950 . S
C122 C121 1.398 . S
C122 C123 1.391 . S
C123 H111 0.950 . S
C123 C119 1.393 . S
C123 C122 1.391 . S
H124 C132 0.950 . S
H125 C137 0.950 . S
H126 C134 0.950 . S
H127 C136 0.950 . S
H128 C138 0.950 . S
H129 C140 0.950 . S
H130 C142 0.950 . S
H131 C143 0.950 . S
C132 H124 0.950 . S
C132 C133 1.386 . S
C132 C134 1.391 . S
C133 C132 1.386 . S
C133 C137 1.393 . S
C134 H126 0.950 . S
C134 C132 1.391 . S
C134 C135 1.400 . S
C135 C134 1.400 . S
C135 C136 1.398 . S
C135 C141 1.491 . S
C136 H127 0.950 . S
C136 C135 1.398 . S
C136 C137 1.391 . S
C137 H125 0.950 . S
C137 C133 1.393 . S
C137 C136 1.391 . S
C138 H128 0.950 . S
C138 C139 1.386 . S
C138 C140 1.391 . S
C139 C138 1.386 . S
C139 C143 1.393 . S
C140 H129 0.950 . S
C140 C138 1.391 . S
C140 C141 1.400 . S
C141 C135 1.491 . S
C141 C140 1.400 . S
C141 C142 1.398 . S
C142 H130 0.950 . S
C142 C141 1.398 . S
C142 C143 1.391 . S
C143 H131 0.950 . S
C143 C139 1.393 . S
C143 C142 1.391 . S
H144 C152 0.950 . S
H145 C157 0.950 . S
H146 C154 0.950 . S
H147 C156 0.950 . S
H148 C158 0.950 . S
H149 C160 0.950 . S
H150 C162 0.950 . S
H151 C163 0.950 . S
C152 H144 0.950 . S
C152 C153 1.386 . S
C152 C154 1.391 . S
C153 C152 1.386 . S
C153 C157 1.393 . S
C154 H146 0.950 . S
C154 C152 1.391 . S
C154 C155 1.400 . S
C155 C154 1.400 . S
C155 C156 1.398 . S
C155 C161 1.491 . S
C156 H147 0.950 . S
C156 C155 1.398 . S
C156 C157 1.391 . S
C157 H145 0.950 . S
C157 C153 1.393 . S
C157 C156 1.391 . S
C158 H148 0.950 . S
C158 C159 1.386 . S
C158 C160 1.391 . S
C159 C158 1.386 . S
C159 C163 1.393 . S
C160 H149 0.950 . S
C160 C158 1.391 . S
C160 C161 1.400 . S
C161 C155 1.491 . S
C161 C160 1.400 . S
C161 C162 1.398 . S
C162 H150 0.950 . S
C162 C161 1.398 . S
C162 C163 1.391 . S
C163 H151 0.950 . S
C163 C159 1.393 . S
C163 C162 1.391 . S
H164 C172 0.950 . S
H165 C177 0.950 . S
H166 C174 0.950 . S
H167 C176 0.950 . S
H168 C178 0.950 . S
H169 C180 0.950 . S
H170 C182 0.950 . S
H171 C183 0.950 . S
C172 H164 0.950 . S
C172 C173 1.386 . S
C172 C174 1.391 . S
C173 C172 1.386 . S
C173 C177 1.393 . S
C174 H166 0.950 . S
C174 C172 1.391 . S
C174 C175 1.400 . S
C175 C174 1.400 . S
C175 C176 1.398 . S
C175 C181 1.491 . S
C176 H167 0.950 . S
C176 C175 1.398 . S
C176 C177 1.391 . S
C177 H165 0.950 . S
C177 C173 1.393 . S
C177 C176 1.391 . S
C178 H168 0.950 . S
C178 C179 1.386 . S
C178 C180 1.391 . S
C179 C178 1.386 . S
C179 C183 1.393 . S
C180 H169 0.950 . S
C180 C178 1.391 . S
C180 C181 1.400 . S
C181 C175 1.491 . S
C181 C180 1.400 . S
C181 C182 1.398 . S
C182 H170 0.950 . S
C182 C181 1.398 . S
C182 C183 1.391 . S
C183 H171 0.950 . S
C183 C179 1.393 . S
C183 C182 1.391 . S
H184 C192 0.950 . S
H185 C197 0.950 . S
H186 C194 0.950 . S
H187 C196 0.950 . S
H188 C198 0.950 . S
H189 C200 0.950 . S
H190 C202 0.950 . S
H191 C203 0.950 . S
C192 H184 0.950 . S
C192 C193 1.386 . S
C192 C194 1.391 . S
C193 C192 1.386 . S
C193 C197 1.393 . S
C194 H186 0.950 . S
C194 C192 1.391 . S
C194 C195 1.400 . S
C195 C194 1.400 . S
C195 C196 1.398 . S
C195 C201 1.491 . S
C196 H187 0.950 . S
C196 C195 1.398 . S
C196 C197 1.391 . S
C197 H185 0.950 . S
C197 C193 1.393 . S
C197 C196 1.391 . S
C198 H188 0.950 . S
C198 C199 1.386 . S
C198 C200 1.391 . S
C199 C198 1.386 . S
C199 C203 1.393 . S
C200 H189 0.950 . S
C200 C198 1.391 . S
C200 C201 1.400 . S
C201 C195 1.491 . S
C201 C200 1.400 . S
C201 C202 1.398 . S
C202 H190 0.950 . S
C202 C201 1.398 . S
C202 C203 1.391 . S
C203 H191 0.950 . S
C203 C199 1.393 . S
C203 C202 1.391 . S
H204 C212 0.950 . S
H205 C217 0.950 . S
H206 C214 0.950 . S
H207 C216 0.950 . S
H208 C218 0.950 . S
H209 C220 0.950 . S
H210 C222 0.950 . S
H211 C223 0.950 . S
C212 H204 0.950 . S
C212 C213 1.386 . S
C212 C214 1.391 . S
C213 C212 1.386 . S
C213 C217 1.393 . S
C214 H206 0.950 . S
C214 C212 1.391 . S
C214 C215 1.400 . S
C215 C214 1.400 . S
C215 C216 1.398 . S
C215 C221 1.491 . S
C216 H207 0.950 . S
C216 C215 1.398 . S
C216 C217 1.391 . S
C217 H205 0.950 . S
C217 C213 1.393 . S
C217 C216 1.391 . S
C218 H208 0.950 . S
C218 C219 1.386 . S
C218 C220 1.391 . S
C219 C218 1.386 . S
C219 C223 1.393 . S
C220 H209 0.950 . S
C220 C218 1.391 . S
C220 C221 1.400 . S
C221 C215 1.491 . S
C221 C220 1.400 . S
C221 C222 1.398 . S
C222 H210 0.950 . S
C222 C221 1.398 . S
C222 C223 1.391 . S
C223 H211 0.950 . S
C223 C219 1.393 . S
C223 C222 1.391 . S
H224 C232 0.950 . S
H225 C237 0.950 . S
H226 C234 0.950 . S
H227 C236 0.950 . S
H228 C238 0.950 . S
H229 C240 0.950 . S
H230 C242 0.950 . S
H231 C243 0.950 . S
C232 H224 0.950 . S
C232 C233 1.386 . S
C232 C234 1.391 . S
C233 C232 1.386 . S
C233 C237 1.393 . S
C234 H226 0.950 . S
C234 C232 1.391 . S
C234 C235 1.400 . S
C235 C234 1.400 . S
C235 C236 1.398 . S
C235 C241 1.491 . S
C236 H227 0.950 . S
C236 C235 1.398 . S
C236 C237 1.391 . S
C237 H225 0.950 . S
C237 C233 1.393 . S
C237 C236 1.391 . S
C238 H228 0.950 . S
C238 C239 1.386 . S
C238 C240 1.391 . S
C239 C238 1.386 . S
C239 C243 1.393 . S
C240 H229 0.950 . S
C240 C238 1.391 . S
C240 C241 1.400 . S
C241 C235 1.491 . S
C241 C240 1.400 . S
C241 C242 1.398 . S
C242 H230 0.950 . S
C242 C241 1.398 . S
C242 C243 1.391 . S
C243 H231 0.950 . S
C243 C239 1.393 . S
C243 C242 1.391 . S
H244 C252 0.950 . S
H245 C257 0.950 . S
H246 C254 0.950 . S
H247 C256 0.950 . S
H248 C258 0.950 . S
H249 C260 0.950 . S
H250 C262 0.950 . S
H251 C263 0.950 . S
C252 H244 0.950 . S
C252 C253 1.386 . S
C252 C254 1.391 . S
C253 C252 1.386 . S
C253 C257 1.393 . S
C254 H246 0.950 . S
C254 C252 1.391 . S
C254 C255 1.400 . S
C255 C254 1.400 . S
C255 C256 1.398 . S
C255 C261 1.491 1_554 S
C256 H247 0.950 . S
C256 C255 1.398 . S
C256 C257 1.391 . S
C257 H245 0.950 . S
C257 C253 1.393 . S
C257 C256 1.391 . S
C258 H248 0.950 . S
C258 C259 1.386 . S
C258 C260 1.391 . S
C259 C258 1.386 . S
C259 C263 1.393 . S
C260 H249 0.950 . S
C260 C258 1.391 . S
C260 C261 1.400 . S
C261 C255 1.491 1_556 S
C261 C260 1.400 . S
C261 C262 1.398 . S
C262 H250 0.950 . S
C262 C261 1.398 . S
C262 C263 1.391 . S
C263 H251 0.950 . S
C263 C259 1.393 . S
C263 C262 1.391 . S
H264 C272 0.950 . S
H265 C277 0.950 . S
H266 C274 0.950 . S
H267 C276 0.939 1_655 S
H268 C278 0.950 . S
H269 C280 0.950 . S
H270 C282 0.939 1_455 S
H271 C283 0.950 . S
C272 H264 0.950 . S
C272 C273 1.386 . S
C272 C274 1.391 . S
C273 C272 1.386 . S
C273 C277 1.393 . S
C274 H266 0.950 . S
C274 C272 1.391 . S
C274 C275 1.400 . S
C275 C274 1.400 . S
C275 C276 1.402 . S
C275 C281 1.491 1_445 S
C276 H267 0.939 1_455 S
C276 C275 1.402 . S
C276 C277 1.398 . S
C277 H265 0.950 . S
C277 C273 1.393 . S
C277 C276 1.398 . S
C278 H268 0.950 . S
C278 C279 1.386 . S
C278 C280 1.391 . S
C279 C278 1.386 . S
C279 C283 1.393 . S
C280 H269 0.950 . S
C280 C278 1.391 . S
C280 C281 1.400 . S
C281 C275 1.491 1_665 S
C281 C280 1.400 . S
C281 C282 1.402 . S
C282 H270 0.939 1_655 S
C282 C281 1.402 . S
C282 C283 1.398 . S
C283 H271 0.950 . S
C283 C279 1.393 . S
C283 C282 1.398 . S
H284 C292 0.950 . S
H285 C297 0.950 . S
H286 C294 0.950 . S
H287 C296 0.950 . S
H288 C298 0.950 . S
H289 C300 0.950 . S
H290 C302 0.950 . S
H291 C303 0.950 . S
C292 H284 0.950 . S
C292 C293 1.386 . S
C292 C294 1.391 . S
C293 C292 1.386 . S
C293 C297 1.393 . S
C294 H286 0.950 . S
C294 C292 1.391 . S
C294 C295 1.400 . S
C295 C294 1.400 . S
C295 C296 1.398 . S
C295 C301 1.491 1_455 S
C296 H287 0.950 . S
C296 C295 1.398 . S
C296 C297 1.391 . S
C297 H285 0.950 . S
C297 C293 1.393 . S
C297 C296 1.391 . S
C298 H288 0.950 . S
C298 C299 1.386 . S
C298 C300 1.391 . S
C299 C298 1.386 . S
C299 C303 1.393 . S
C300 H289 0.950 . S
C300 C298 1.391 . S
C300 C301 1.400 . S
C301 C295 1.491 1_655 S
C301 C300 1.400 . S
C301 C302 1.398 . S
C302 H290 0.950 . S
C302 C301 1.398 . S
C302 C303 1.391 . S
C303 H291 0.950 . S
C303 C299 1.393 . S
C303 C302 1.391 . S
H304 C312 0.950 . S
H305 C317 0.950 . S
H306 C314 0.950 . S
H307 C316 0.950 . S
H308 C318 0.950 . S
H309 C320 0.950 . S
H310 C322 0.950 . S
H311 C323 0.950 . S
C312 H304 0.950 . S
C312 C313 1.386 . S
C312 C314 1.391 . S
C313 C312 1.386 . S
C313 C317 1.393 . S
C314 H306 0.950 . S
C314 C312 1.391 . S
C314 C315 1.400 . S
C315 C314 1.400 . S
C315 C316 1.398 . S
C315 C321 1.491 . S
C316 H307 0.950 . S
C316 C315 1.398 . S
C316 C317 1.391 . S
C317 H305 0.950 . S
C317 C313 1.393 . S
C317 C316 1.391 . S
C318 H308 0.950 . S
C318 C319 1.386 . S
C318 C320 1.391 . S
C319 C318 1.386 . S
C319 C323 1.393 . S
C320 H309 0.950 . S
C320 C318 1.391 . S
C320 C321 1.400 . S
C321 C315 1.491 . S
C321 C320 1.400 . S
C321 C322 1.398 . S
C322 H310 0.950 . S
C322 C321 1.398 . S
C322 C323 1.391 . S
C323 H311 0.950 . S
C323 C319 1.393 . S
C323 C322 1.391 . S
H324 C332 0.950 . S
H325 C337 0.950 . S
H326 C334 0.950 . S
H327 C336 0.950 1_545 S
H328 C338 0.950 . S
H329 C340 0.950 . S
H330 C342 0.950 1_565 S
H331 C343 0.950 . S
C332 H324 0.950 . S
C332 C333 1.386 . S
C332 C334 1.391 . S
C333 C332 1.386 . S
C333 C337 1.393 . S
C334 H326 0.950 . S
C334 C332 1.391 . S
C334 C335 1.400 . S
C335 C334 1.400 . S
C335 C336 1.398 . S
C335 C341 1.491 1_565 S
C336 H327 0.950 1_565 S
C336 C335 1.398 . S
C336 C337 1.391 . S
C337 H325 0.950 . S
C337 C333 1.393 . S
C337 C336 1.391 . S
C338 H328 0.950 . S
C338 C339 1.386 . S
C338 C340 1.391 . S
C339 C338 1.386 . S
C339 C343 1.393 . S
C340 H329 0.950 . S
C340 C338 1.391 . S
C340 C341 1.400 . S
C341 C335 1.491 1_545 S
C341 C340 1.400 . S
C341 C342 1.398 . S
C342 H330 0.950 1_545 S
C342 C341 1.398 . S
C342 C343 1.391 . S
C343 H331 0.950 . S
C343 C339 1.393 . S
C343 C342 1.391 . S
H344 C352 0.950 . S
H345 C357 0.950 1_455 S
H346 C354 0.950 . S
H347 C356 0.950 . S
H348 C358 0.950 . S
H349 C360 0.950 . S
H350 C362 0.950 . S
H351 C363 0.950 1_655 S
C352 H344 0.950 . S
C352 C353 1.386 . S
C352 C354 1.391 . S
C353 C352 1.386 . S
C353 C357 1.393 . S
C354 H346 0.950 . S
C354 C352 1.391 . S
C354 C355 1.400 . S
C355 C354 1.400 . S
C355 C356 1.398 1_655 S
C355 C361 1.491 1_655 S
C356 H347 0.950 . S
C356 C355 1.398 1_455 S
C356 C357 1.391 1_455 S
C357 H345 0.950 1_655 S
C357 C353 1.393 . S
C357 C356 1.391 1_655 S
C358 H348 0.950 . S
C358 C359 1.386 . S
C358 C360 1.391 . S
C359 C358 1.386 . S
C359 C363 1.393 . S
C360 H349 0.950 . S
C360 C358 1.391 . S
C360 C361 1.400 . S
C361 C355 1.491 1_455 S
C361 C360 1.400 . S
C361 C362 1.398 1_455 S
C362 H350 0.950 . S
C362 C361 1.398 1_655 S
C362 C363 1.391 1_655 S
C363 H351 0.950 1_455 S
C363 C359 1.393 . S
C363 C362 1.391 1_455 S
H364 C372 0.950 . S
H365 C377 0.950 . S
H366 C374 0.950 . S
H367 C376 0.950 . S
H368 C378 0.950 . S
H369 C380 0.950 . S
H370 C382 0.950 . S
H371 C383 0.950 . S
C372 H364 0.950 . S
C372 C373 1.386 . S
C372 C374 1.391 . S
C373 C372 1.386 . S
C373 C377 1.393 . S
C374 H366 0.950 . S
C374 C372 1.391 . S
C374 C375 1.400 . S
C375 C374 1.400 . S
C375 C376 1.398 . S
C375 C381 1.491 . S
C376 H367 0.950 . S
C376 C375 1.398 . S
C376 C377 1.391 . S
C377 H365 0.950 . S
C377 C373 1.393 . S
C377 C376 1.391 . S
C378 H368 0.950 . S
C378 C379 1.386 . S
C378 C380 1.391 . S
C379 C378 1.386 . S
C379 C383 1.393 . S
C380 H369 0.950 . S
C380 C378 1.391 . S
C380 C381 1.400 . S
C381 C375 1.491 . S
C381 C380 1.400 . S
C381 C382 1.398 . S
C382 H370 0.950 . S
C382 C381 1.398 . S
C382 C383 1.391 . S
C383 H371 0.950 . S
C383 C379 1.393 . S
C383 C382 1.391 . S
H384 C392 0.950 . S
H385 C397 0.950 . S
H386 C394 0.954 . S
H387 C396 0.950 . S
H388 C398 0.950 . S
H389 C400 0.954 . S
H390 C402 0.950 . S
H391 C403 0.950 . S
C392 H384 0.950 . S
C392 C393 1.386 . S
C392 C394 1.391 . S
C393 C392 1.386 . S
C393 C397 1.393 . S
C394 H386 0.954 . S
C394 C392 1.391 . S
C394 C395 1.400 . S
C395 C394 1.400 . S
C395 C396 1.398 . S
C395 C401 1.491 1_545 S
C396 H387 0.950 . S
C396 C395 1.398 . S
C396 C397 1.391 . S
C397 H385 0.950 . S
C397 C393 1.393 . S
C397 C396 1.391 . S
C398 H388 0.950 . S
C398 C399 1.386 . S
C398 C400 1.391 . S
C399 C398 1.386 . S
C399 C403 1.393 . S
C400 H389 0.954 . S
C400 C398 1.391 . S
C400 C401 1.400 . S
C401 C395 1.491 1_565 S
C401 C400 1.400 . S
C401 C402 1.398 . S
C402 H390 0.950 . S
C402 C401 1.398 . S
C402 C403 1.391 . S
C403 H391 0.950 . S
C403 C399 1.393 . S
C403 C402 1.391 . S
H404 C412 0.950 1_545 S
H405 C417 0.950 . S
H406 C414 0.950 . S
H407 C416 0.950 . S
H408 C418 0.950 1_565 S
H409 C420 0.950 . S
H410 C422 0.950 . S
H411 C423 0.950 . S
C412 H404 0.950 1_565 S
C412 C413 1.386 . S
C412 C414 1.391 1_565 S
C413 C412 1.386 . S
C413 C417 1.393 . S
C414 H406 0.950 . S
C414 C412 1.391 1_545 S
C414 C415 1.400 1_545 S
C415 C414 1.400 1_565 S
C415 C416 1.398 . S
C415 C421 1.491 1_665 S
C416 H407 0.950 . S
C416 C415 1.398 . S
C416 C417 1.391 . S
C417 H405 0.950 . S
C417 C413 1.393 . S
C417 C416 1.391 . S
C418 H408 0.950 1_545 S
C418 C419 1.386 . S
C418 C420 1.391 1_545 S
C419 C418 1.386 . S
C419 C423 1.393 . S
C420 H409 0.950 . S
C420 C418 1.391 1_565 S
C420 C421 1.400 1_565 S
C421 C415 1.491 1_445 S
C421 C420 1.400 1_545 S
C421 C422 1.398 . S
C422 H410 0.950 . S
C422 C421 1.398 . S
C422 C423 1.391 . S
C423 H411 0.950 . S
C423 C419 1.393 . S
C423 C422 1.391 . S
C113 C5 1.329 . S
C119 C68 1.322 . S
C133 C23 1.325 . S
C139 C88 1.328 . S
C153 C31 1.324 . S
C159 C94 1.329 . S
C173 C49 1.332 . S
C179 C56 1.324 . S
C193 C101 1.324 . S
C199 C4 1.331 . S
C213 C57 1.326 . S
C219 C16 1.319 . S
C233 C30 1.329 . S
C239 C75 1.324 . S
C253 C81 1.325 . S
C259 C42 1.319 . S
C273 C3 1.532 . S
C279 C83 1.531 . S
C293 C95 1.528 . S
C299 C17 1.529 . S
C313 C29 1.532 . S
C319 C55 1.531 . S
C333 C43 1.527 . S
C339 C69 1.526 . S
C353 C82 1.530 . S
C359 C10 1.525 . S
C373 C96 1.532 . S
C379 C18 1.531 . S
C393 C36 1.529 . S
C399 C62 1.525 . S
C413 C44 1.531 . S
C419 C70 1.533 . S
