# Generated by pormake.
# Topology und, (4)-cn, num edge types: 1
# Building blocks:
#     Node 0, Type 0, BuildingBlock: AZAVOO_clean_sbu_0, # of connection points: 4
#     Node 1, Type 0, BuildingBlock: AZAVOO_clean_sbu_0, # of connection points: 4
#     Node 2, Type 0, BuildingBlock: AZAVOO_clean_sbu_0, # of connection points: 4
#     Node 3, Type 0, BuildingBlock: AZAVOO_clean_sbu_0, # of connection points: 4
#     Node 4, Type 0, BuildingBlock: AZAVOO_clean_sbu_0, # of connection points: 4
#     Node 5, Type 0, BuildingBlock: AZAVOO_clean_sbu_0, # of connection points: 4
#     Node 6, Type 0, BuildingBlock: AZAVOO_clean_sbu_0, # of connection points: 4
#     Node 7, Type 0, BuildingBlock: AZAVOO_clean_sbu_0, # of connection points: 4
#     Node 8, Type 0, BuildingBlock: AZAVOO_clean_sbu_0, # of connection points: 4
#     Node 9, Type 0, BuildingBlock: AZAVOO_clean_sbu_0, # of connection points: 4
#     Node 10, Type 0, BuildingBlock: AZAVOO_clean_sbu_0, # of connection points: 4
#     Node 11, Type 0, BuildingBlock: AZAVOO_clean_sbu_0, # of connection points: 4
#     Node 12, Type 0, BuildingBlock: AZAVOO_clean_sbu_0, # of connection points: 4
#     Node 13, Type 0, BuildingBlock: AZAVOO_clean_sbu_0, # of connection points: 4
#     Node 14, Type 0, BuildingBlock: AZAVOO_clean_sbu_0, # of connection points: 4
#     Node 15, Type 0, BuildingBlock: AZAVOO_clean_sbu_0, # of connection points: 4
#     Edge 16, Type (0, 0), BuildingBlock: CIFDUS_clean_linker_0, # of connection points: 2
#     Edge 17, Type (0, 0), BuildingBlock: CIFDUS_clean_linker_0, # of connection points: 2
#     Edge 18, Type (0, 0), BuildingBlock: CIFDUS_clean_linker_0, # of connection points: 2
#     Edge 19, Type (0, 0), BuildingBlock: CIFDUS_clean_linker_0, # of connection points: 2
#     Edge 20, Type (0, 0), BuildingBlock: CIFDUS_clean_linker_0, # of connection points: 2
#     Edge 21, Type (0, 0), BuildingBlock: CIFDUS_clean_linker_0, # of connection points: 2
#     Edge 22, Type (0, 0), BuildingBlock: CIFDUS_clean_linker_0, # of connection points: 2
#     Edge 23, Type (0, 0), BuildingBlock: CIFDUS_clean_linker_0, # of connection points: 2
#     Edge 24, Type (0, 0), BuildingBlock: CIFDUS_clean_linker_0, # of connection points: 2
#     Edge 25, Type (0, 0), BuildingBlock: CIFDUS_clean_linker_0, # of connection points: 2
#     Edge 26, Type (0, 0), BuildingBlock: CIFDUS_clean_linker_0, # of connection points: 2
#     Edge 27, Type (0, 0), BuildingBlock: CIFDUS_clean_linker_0, # of connection points: 2
#     Edge 28, Type (0, 0), BuildingBlock: CIFDUS_clean_linker_0, # of connection points: 2
#     Edge 29, Type (0, 0), BuildingBlock: CIFDUS_clean_linker_0, # of connection points: 2
#     Edge 30, Type (0, 0), BuildingBlock: CIFDUS_clean_linker_0, # of connection points: 2
#     Edge 31, Type (0, 0), BuildingBlock: CIFDUS_clean_linker_0, # of connection points: 2
#     Edge 32, Type (0, 0), BuildingBlock: CIFDUS_clean_linker_0, # of connection points: 2
#     Edge 33, Type (0, 0), BuildingBlock: CIFDUS_clean_linker_0, # of connection points: 2
#     Edge 34, Type (0, 0), BuildingBlock: CIFDUS_clean_linker_0, # of connection points: 2
#     Edge 35, Type (0, 0), BuildingBlock: CIFDUS_clean_linker_0, # of connection points: 2
#     Edge 36, Type (0, 0), BuildingBlock: CIFDUS_clean_linker_0, # of connection points: 2
#     Edge 37, Type (0, 0), BuildingBlock: CIFDUS_clean_linker_0, # of connection points: 2
#     Edge 38, Type (0, 0), BuildingBlock: CIFDUS_clean_linker_0, # of connection points: 2
#     Edge 39, Type (0, 0), BuildingBlock: CIFDUS_clean_linker_0, # of connection points: 2
#     Edge 40, Type (0, 0), BuildingBlock: CIFDUS_clean_linker_0, # of connection points: 2
#     Edge 41, Type (0, 0), BuildingBlock: CIFDUS_clean_linker_0, # of connection points: 2
#     Edge 42, Type (0, 0), BuildingBlock: CIFDUS_clean_linker_0, # of connection points: 2
#     Edge 43, Type (0, 0), BuildingBlock: CIFDUS_clean_linker_0, # of connection points: 2
#     Edge 44, Type (0, 0), BuildingBlock: CIFDUS_clean_linker_0, # of connection points: 2
#     Edge 45, Type (0, 0), BuildingBlock: CIFDUS_clean_linker_0, # of connection points: 2
#     Edge 46, Type (0, 0), BuildingBlock: CIFDUS_clean_linker_0, # of connection points: 2
#     Edge 47, Type (0, 0), BuildingBlock: CIFDUS_clean_linker_0, # of connection points: 2
# Relax obj value: 0.169
# Max RMSD: 0.209
# Mean RMSD: 0.203
data_MOF--net-und--node1-AZAVOO_clean_sbu_0--edge1-CIFDUS_clean_linker_0
_symmetry_space_group_name_H-M    P1
_symmetry_Int_Tables_number       1
_symmetry_cell_setting            triclinic
loop_
_symmetry_equiv_pos_as_xyz
'x, y, z'
_cell_length_a     51.521614
_cell_length_b     51.511211
_cell_length_c     19.207293
_cell_angle_alpha  92.286856
_cell_angle_beta   92.144771
_cell_angle_gamma 96.052275
loop_
_atom_site_label
_atom_site_type_symbol
_atom_site_fract_x
_atom_site_fract_y
_atom_site_fract_z
_atom_type_partial_charge
Mg0 Mg 0.28026 0.37851 0.14762 0.0
O1 O 0.26679 0.34753 0.06179 0.0
O2 O 0.23823 0.31678 0.10335 0.0
Mg3 Mg 0.23068 0.33032 0.21499 0.0
C4 C 0.25205 0.32601 0.05447 0.0
C5 C 0.31795 0.39474 0.03181 0.0
O6 O 0.32425 0.37142 0.04621 0.0
O7 O 0.24223 0.39749 0.13487 0.0
O8 O 0.21389 0.36736 0.17927 0.0
O9 O 0.31079 0.35347 0.18508 0.0
O10 O 0.27045 0.35085 0.22147 0.0
C11 C 0.21916 0.38948 0.15236 0.0
C12 C 0.29272 0.34164 0.22088 0.0
O13 O 0.30003 0.40408 0.06558 0.0
Mg14 Mg 0.91174 0.02579 0.16358 0.0
O15 O 0.94575 0.03718 0.24326 0.0
O16 O 0.9692 0.07305 0.20807 0.0
Mg17 Mg 0.95094 0.08411 0.10539 0.0
C18 C 0.96505 0.05492 0.25084 0.0
C19 C 0.86611 0.99532 0.23859 0.0
O20 O 0.85327 0.00629 0.18932 0.0
O21 O 0.88938 0.05999 0.19848 0.0
O22 O 0.91395 0.09392 0.15767 0.0
O23 O 0.93831 0.00147 0.10603 0.0
O24 O 0.93449 0.04292 0.08681 0.0
C25 C 0.89386 0.08441 0.18864 0.0
C26 C 0.94632 0.0225 0.07482 0.0
O27 O 0.89093 -0.00074 0.24212 0.0
Mg28 Mg 0.25521 0.73309 0.5696 0.0
O29 O 0.23452 0.74132 0.67076 0.0
O30 O 0.19698 0.75693 0.64035 0.0
Mg31 Mg 0.19318 0.75832 0.52137 0.0
C32 C 0.21329 0.75047 0.68664 0.0
C33 C 0.30726 0.71639 0.63572 0.0
O34 O 0.31609 0.73983 0.61693 0.0
O35 O 0.2272 0.69615 0.54209 0.0
O36 O 0.19182 0.71415 0.50534 0.0
O37 O 0.274 0.77524 0.57241 0.0
O38 O 0.23573 0.76103 0.52194 0.0
C39 C 0.20414 0.69422 0.51423 0.0
C40 C 0.25277 0.78029 0.53997 0.0
O41 O 0.2831 0.70873 0.62606 0.0
Mg42 Mg 0.57673 0.00631 0.89347 0.0
O43 O 0.54481 0.01599 0.81545 0.0
O44 O 0.51829 0.04167 0.86826 0.0
Mg45 Mg 0.53279 0.04751 0.98192 0.0
C46 C 0.52486 0.02877 0.81488 0.0
C47 C 0.59045 0.97478 0.7603 0.0
O48 O 0.56542 0.967 0.7636 0.0
O49 O 0.59815 0.0475 0.89424 0.0
O50 O 0.5704 0.07074 0.95034 0.0
O51 O 0.54972 0.97132 0.91876 0.0
O52 O 0.55068 0.01064 0.97104 0.0
C53 C 0.59186 0.06906 0.92022 0.0
C54 C 0.53945 0.98721 0.96086 0.0
O55 O 0.60104 0.99177 0.80539 0.0
Mg56 Mg 0.76486 0.70796 0.10425 0.0
O57 O 0.7239 0.68459 0.10885 0.0
O58 O 0.69612 0.71477 0.1238 0.0
Mg59 Mg 0.71761 0.75572 0.13362 0.0
C60 C 0.70074 0.69097 0.11585 0.0
C61 C 0.79998 0.67957 0.01216 0.0
O62 O 0.80576 0.70455 0.00188 0.0
O63 O 0.75525 0.72203 -0.00404 0.0
O64 O 0.72824 0.75225 0.01952 0.0
O65 O 0.77147 0.70767 0.22119 0.0
O66 O 0.75244 0.73772 0.16584 0.0
C67 C 0.74122 0.73966 0.97692 0.0
C68 C 0.75968 0.72867 0.2238 0.0
O69 O 0.78273 0.67296 0.05565 0.0
Mg70 Mg 0.07977 0.01628 0.67321 0.0
O71 O 0.11008 0.05235 0.66468 0.0
O72 O 0.08725 0.08519 0.63579 0.0
Mg73 Mg 0.04388 0.07095 0.62179 0.0
C74 C 0.10892 0.07625 0.65029 0.0
C75 C 0.10615 0.96966 0.72247 0.0
O76 O 0.08887 0.95935 0.67438 0.0
O77 O 0.06496 0.03205 0.77521 0.0
O78 O 0.04116 0.06296 0.73751 0.0
O79 O 0.08145 0.00495 0.55841 0.0
O80 O 0.05501 0.0316 0.60294 0.0
C81 C 0.04936 0.04931 0.78614 0.0
C82 C 0.0634 0.0203 0.54896 0.0
O83 O 0.10887 0.99431 0.73303 0.0
Mg84 Mg 0.7143 0.37271 0.61547 0.0
O85 O 0.75524 0.39503 0.62498 0.0
O86 O 0.78342 0.36638 0.6515 0.0
Mg87 Mg 0.76085 0.32602 0.66021 0.0
C88 C 0.7784 0.3896 0.63956 0.0
C89 C 0.6841 0.40114 0.50458 0.0
O90 O 0.67829 0.37657 0.48352 0.0
O91 O 0.72308 0.35296 0.51165 0.0
O92 O 0.74898 0.32307 0.54386 0.0
O93 O 0.71025 0.38066 0.73073 0.0
O94 O 0.72671 0.34636 0.68381 0.0
C95 C 0.73589 0.33368 0.49717 0.0
C96 C 0.72219 0.36 0.73857 0.0
O97 O 0.69848 0.4065 0.55961 0.0
Mg98 Mg 0.4162 0.00451 0.35063 0.0
O99 O 0.38125 0.97368 0.32994 0.0
O100 O 0.39618 0.93454 0.32782 0.0
Mg101 Mg 0.44061 0.93994 0.34488 0.0
C102 C 0.37748 0.94883 0.32244 0.0
C103 C 0.39721 0.05177 0.42737 0.0
O104 O 0.42087 0.05095 0.4546 0.0
O105 O 0.42119 0.99486 0.46437 0.0
O106 O 0.43983 0.95767 0.45589 0.0
O107 O 0.42266 0.00544 0.23543 0.0
O108 O 0.44077 0.97959 0.30715 0.0
C109 C 0.43253 0.97673 0.49211 0.0
C110 C 0.43764 0.98708 0.24491 0.0
O111 O 0.38882 0.0351 0.37893 0.0
Mg112 Mg 0.76018 0.87939 0.61815 0.0
O113 O 0.746 0.84848 0.53202 0.0
O114 O 0.71152 0.82329 0.56891 0.0
Mg115 Mg 0.70424 0.83748 0.67971 0.0
C116 C 0.72809 0.8294 0.52305 0.0
C117 C 0.80844 0.90701 0.54296 0.0
O118 O 0.82101 0.89663 0.59379 0.0
O119 O 0.72514 0.90312 0.60185 0.0
O120 O 0.69301 0.87655 0.64409 0.0
O121 O 0.78663 0.85108 0.65943 0.0
O122 O 0.74601 0.85294 0.69087 0.0
C123 C 0.70133 0.89803 0.61773 0.0
C124 C 0.76689 0.8412 0.69305 0.0
O125 O 0.7836 0.90348 0.53911 0.0
Mg126 Mg 0.39465 0.53165 0.63935 0.0
O127 O 0.42642 0.54 0.72544 0.0
O128 O 0.45772 0.56992 0.69221 0.0
Mg129 Mg 0.4432 0.58392 0.5879 0.0
C130 C 0.44841 0.55374 0.73578 0.0
C131 C 0.37783 0.48883 0.74291 0.0
O132 O 0.40055 0.48208 0.72434 0.0
O133 O 0.37714 0.56913 0.66987 0.0
O134 O 0.40745 0.59965 0.63581 0.0
O135 O 0.41837 0.50262 0.5893 0.0
O136 O 0.42205 0.54456 0.56683 0.0
C137 C 0.38556 0.59305 0.66269 0.0
C138 C 0.43061 0.52202 0.55903 0.0
O139 O 0.36922 0.50856 0.71594 0.0
Mg140 Mg 0.76429 0.21464 0.02395 0.0
O141 O 0.7504 0.2335 0.12367 0.0
O142 O 0.71698 0.25595 0.09495 0.0
Mg143 Mg 0.70832 0.25001 0.97731 0.0
C144 C 0.73322 0.24858 0.14 0.0
C145 C 0.80736 0.19828 0.12839 0.0
O146 O 0.81286 0.22378 0.13471 0.0
O147 O 0.72959 0.18321 0.01773 0.0
O148 O 0.69712 0.20599 0.98418 0.0
O149 O 0.7905 0.2516 0.00802 0.0
O150 O 0.74948 0.24366 0.96816 0.0
C151 C 0.70575 0.18442 -0.00125 0.0
C152 C 0.7702 0.25979 0.97778 0.0
O153 O 0.78842 0.18872 0.08777 0.0
Mg154 Mg 0.08521 0.51471 0.34034 0.0
O155 O 0.06346 0.52597 0.24122 0.0
O156 O 0.03617 0.55512 0.27171 0.0
Mg157 Mg 0.04194 0.56446 0.38849 0.0
C158 C 0.04567 0.54059 0.22593 0.0
C159 C 0.13154 0.50281 0.23898 0.0
O160 O 0.13573 0.52829 0.23506 0.0
O161 O 0.11222 0.55312 0.34536 0.0
O162 O 0.08392 0.58152 0.37394 0.0
O163 O 0.0517 0.48426 0.35795 0.0
O164 O 0.05457 0.52545 0.39747 0.0
C165 C 0.10682 0.57632 0.35948 0.0
C166 C 0.04104 0.50307 0.38848 0.0
O167 O 0.11318 0.49296 0.27546 0.0
Mg168 Mg 0.28902 0.20501 0.63125 0.0
O169 O 0.24675 0.18461 0.62323 0.0
O170 O 0.22048 0.21639 0.63196 0.0
Mg171 Mg 0.24466 0.25607 0.64522 0.0
C172 C 0.22395 0.19226 0.625 0.0
C173 C 0.32787 0.16475 0.61958 0.0
O174 O 0.33833 0.1818 0.66809 0.0
O175 O 0.28597 0.21935 0.52015 0.0
O176 O 0.25956 0.25083 0.53554 0.0
O177 O 0.28848 0.20384 0.74848 0.0
O178 O 0.27696 0.23639 0.68725 0.0
C179 C 0.27353 0.23762 0.49714 0.0
C180 C 0.27935 0.22631 0.74681 0.0
O181 O 0.30556 0.16791 0.59273 0.0
Mg182 Mg 0.56563 0.50756 0.15385 0.0
O183 O 0.59388 0.54553 0.15254 0.0
O184 O 0.56909 0.57783 0.13408 0.0
Mg185 Mg 0.5261 0.56183 0.12642 0.0
C186 C 0.59143 0.56962 0.14358 0.0
C187 C 0.61119 0.49221 0.25376 0.0
O188 O 0.60814 0.51478 0.28498 0.0
O189 O 0.55212 0.51768 0.26296 0.0
O190 O 0.52803 0.55031 0.23978 0.0
O191 O 0.56597 0.50334 0.03592 0.0
O192 O 0.53781 0.52374 0.09529 0.0
C193 C 0.53746 0.53492 0.28216 0.0
C194 C 0.54605 0.51673 0.03615 0.0
O195 O 0.5978 0.48504 0.19806 0.0
Mg196 Mg 0.18305 0.86787 0.16113 0.0
O197 O 0.22798 0.87491 0.17252 0.0
O198 O 0.24159 0.8384 0.21432 0.0
Mg199 Mg 0.20637 0.80886 0.22928 0.0
C200 C 0.24617 0.86169 0.19397 0.0
C201 C 0.16244 0.89555 0.04037 0.0
O202 O 0.14792 0.87307 0.04248 0.0
O203 O 0.1856 0.84011 0.06741 0.0
O204 O 0.19931 0.80402 0.10976 0.0
O205 O 0.18229 0.88476 0.26997 0.0
O206 O 0.18363 0.84272 0.24167 0.0
C207 C 0.19192 0.81699 0.05871 0.0
C208 C 0.18514 0.86134 0.28897 0.0
O209 O 0.18042 0.90136 0.08735 0.0
Mg210 Mg 0.92302 0.55393 0.74435 0.0
O211 O 0.89948 0.51344 0.74197 0.0
O212 O 0.92791 0.48402 0.72367 0.0
Mg213 Mg 0.9686 0.50507 0.71061 0.0
C214 C 0.90477 0.48984 0.7333 0.0
C215 C 0.8894 0.59732 0.77639 0.0
O216 O 0.90554 0.60651 0.72966 0.0
O217 O 0.94198 0.54797 0.85135 0.0
O218 O 0.97116 0.52053 0.82379 0.0
O219 O 0.91559 0.55527 0.62817 0.0
O220 O 0.94881 0.5385 0.67914 0.0
C221 C 0.96096 0.53506 0.86813 0.0
C222 C 0.93571 0.54234 0.62298 0.0
O223 O 0.89048 0.574 0.79465 0.0
H224 H 0.25901 0.29815 0.23047 0.0
H225 H 0.33632 0.3323 0.29658 0.0
H226 H 0.33956 0.29797 0.38042 0.0
H227 H 0.31674 0.26375 0.44968 0.0
H228 H 0.23764 0.23323 0.39022 0.0
H229 H 0.23856 0.26039 0.28853 0.0
C230 C 0.27653 0.29809 0.26321 0.0
C231 C 0.29699 0.31818 0.25946 0.0
C232 C 0.27783 0.27887 0.31237 0.0
C233 C 0.3202 0.31712 0.29936 0.0
C234 C 0.32197 0.2976 0.34749 0.0
C235 C 0.30019 0.26235 0.4126 0.0
C236 C 0.27726 0.24643 0.4263 0.0
C237 C 0.30044 0.27908 0.35655 0.0
C238 C 0.25556 0.24513 0.37959 0.0
C239 C 0.25601 0.26087 0.32211 0.0
H240 H 0.98607 0.01156 0.28873 0.0
H241 H 0.98918 0.09443 0.33519 0.0
H242 H 0.02302 0.09155 0.42676 0.0
H243 H 0.04978 0.06498 0.49718 0.0
H244 H 0.04783 0.98237 0.44927 0.0
H245 H 0.01631 0.98569 0.352 0.0
C246 C 0.9941 0.02889 0.31941 0.0
C247 C 0.98482 0.05305 0.30701 0.0
C248 C 0.01405 0.02719 0.37027 0.0
C249 C 0.99585 0.0756 0.345 0.0
C250 C 0.01524 0.07398 0.39687 0.0
C251 C 0.04264 0.0478 0.46487 0.0
C252 C 0.05072 0.02343 0.4805 0.0
C253 C 0.02428 0.04984 0.41032 0.0
C254 C 0.04196 0.00136 0.43753 0.0
C255 C 0.02367 0.0032 0.38275 0.0
H256 H 0.18211 0.78522 0.73792 0.0
H257 H 0.23546 0.73069 0.80227 0.0
H258 H 0.23214 0.74524 0.92415 0.0
H259 H 0.21645 0.77567 0.01137 0.0
H260 H 0.16542 0.83204 0.94437 0.0
H261 H 0.1655 0.81451 0.82468 0.0
C262 C 0.1927 0.77617 0.77862 0.0
C263 C 0.20895 0.75682 0.76095 0.0
C264 C 0.19134 0.78518 0.84814 0.0
C265 C 0.22282 0.74562 0.81441 0.0
C266 C 0.22099 0.75399 0.88409 0.0
C267 C 0.20515 0.78394 0.97068 0.0
C268 C 0.19101 0.80519 0.98692 0.0
C269 C 0.20569 0.77411 0.90144 0.0
C270 C 0.17662 0.8158 0.9334 0.0
C271 C 0.1766 0.80576 0.86486 0.0
H272 H 0.43645 -0.00154 0.10755 0.0
H273 H 0.47415 0.95287 0.25734 0.0
H274 H 0.50696 0.94415 0.17472 0.0
H275 H 0.52984 0.95691 0.06945 0.0
H276 H 0.49298 0.00289 0.92037 0.0
H277 H 0.45494 0.00379 0.99213 0.0
C278 C 0.45145 0.98608 0.12138 0.0
C279 C 0.45312 0.97685 0.18895 0.0
C280 C 0.4707 0.9815 0.07394 0.0
C281 C 0.47247 0.9605 0.20588 0.0
C282 C 0.49142 0.95556 0.15874 0.0
C283 C 0.51301 0.96624 0.05178 0.0
C284 C 0.51417 0.98026 0.99097 0.0
C285 C 0.49146 0.96702 0.09399 0.0
C286 C 0.49253 0.99248 0.96807 0.0
C287 C 0.47081 0.99299 0.00908 0.0
H288 H 0.23522 0.86566 0.33615 0.0
H289 H 0.15642 0.84487 0.39696 0.0
H290 H 0.17276 0.82373 0.4993 0.0
H291 H 0.20835 0.80274 0.55335 0.0
H292 H 0.28606 0.81625 0.47813 0.0
H293 H 0.27193 0.84958 0.40175 0.0
C294 C 0.22179 0.85704 0.37296 0.0
C295 C 0.19475 0.85648 0.35944 0.0
C296 C 0.23131 0.84348 0.42873 0.0
C297 C 0.17732 0.84552 0.40708 0.0
C298 C 0.18667 0.83329 0.46507 0.0
C299 C 0.22224 0.81337 0.5211 0.0
C300 C 0.24791 0.8066 0.51933 0.0
C301 C 0.21347 0.83083 0.47382 0.0
C302 C 0.26615 0.82116 0.47999 0.0
C303 C 0.25794 0.83987 0.43554 0.0
H304 H 0.43988 0.02264 0.5692 0.0
H305 H 0.45139 0.94088 0.57567 0.0
H306 H 0.48172 0.95033 0.6761 0.0
H307 H 0.50863 0.98225 0.75298 0.0
H308 H 0.49687 0.06379 0.74994 0.0
H309 H 0.46326 0.05409 0.65566 0.0
C310 C 0.44842 0.00675 0.59369 0.0
C311 C 0.44364 0.98111 0.56423 0.0
C312 C 0.46646 0.01242 0.65023 0.0
C313 C 0.45488 0.9608 0.5969 0.0
C314 C 0.47247 0.96622 0.65383 0.0
C315 C 0.49888 0.99792 0.73099 0.0
C316 C 0.50572 0.02379 0.75606 0.0
C317 C 0.4792 0.99206 0.67887 0.0
C318 C 0.49226 0.04383 0.72978 0.0
C319 C 0.47295 0.03823 0.67655 0.0
H320 H 0.27182 0.27711 0.75972 0.0
H321 H 0.2697 0.20695 0.87569 0.0
H322 H 0.2581 0.23135 0.9803 0.0
H323 H 0.25104 0.27335 0.03978 0.0
H324 H 0.25687 0.34365 0.92404 0.0
H325 H 0.26412 0.31835 0.81754 0.0
C326 C 0.26854 0.26702 0.80763 0.0
C327 C 0.27151 0.24025 0.81 0.0
C328 C 0.26248 0.28123 0.86736 0.0
C329 C 0.26759 0.22758 0.87272 0.0
C330 C 0.26091 0.24151 0.93237 0.0
C331 C 0.25342 0.28297 0.99085 0.0
C332 C 0.25319 0.31023 0.98926 0.0
C333 C 0.25858 0.26842 0.93043 0.0
C334 C 0.25688 0.32266 0.92617 0.0
C335 C 0.26111 0.30823 0.86547 0.0
H336 H 0.03916 0.00996 0.87492 0.0
H337 H 0.02891 0.09092 0.84482 0.0
H338 H 0.99674 0.08981 0.93471 0.0
H339 H 0.9673 0.06437 0.00754 0.0
H340 H 0.97678 0.98354 0.04095 0.0
H341 H 0.01314 0.98582 0.96195 0.0
C342 C 0.0305 0.02757 0.8897 0.0
C343 C 0.03624 0.05046 0.85296 0.0
C344 C 0.01137 0.02657 0.94013 0.0
C345 C 0.02469 0.07306 0.87213 0.0
C346 C 0.00613 0.07237 0.92305 0.0
C347 C 0.97764 0.04738 -0.00047 0.0
C348 C 0.96928 0.02386 0.03047 0.0
C349 C -0.0014 0.04897 0.95517 0.0
C350 C 0.98271 0.00189 0.01753 0.0
C351 C 0.00357 0.00322 0.9726 0.0
H352 H 0.78487 0.75789 0.9141 0.0
H353 H 0.70112 0.7444 0.88526 0.0
H354 H 0.70256 0.77185 0.78422 0.0
H355 H 0.72673 0.8049 0.71814 0.0
H356 H 0.80972 0.82315 0.75513 0.0
H357 H 0.80987 0.78808 0.83776 0.0
C358 C 0.76712 0.76028 0.88389 0.0
C359 C 0.74292 0.74914 0.90615 0.0
C360 C 0.76801 0.77733 0.82853 0.0
C361 C 0.7199 0.75271 0.86821 0.0
C362 C 0.72074 0.76857 0.81106 0.0
C363 C 0.74482 0.80141 0.74433 0.0
C364 C 0.76796 0.81727 0.73256 0.0
C365 C 0.74451 0.78196 0.79313 0.0
C366 C 0.79155 0.81141 0.76415 0.0
C367 C 0.7916 0.79145 0.81157 0.0
H368 H 0.7555 0.28936 0.452 0.0
H369 H 0.71096 0.35052 0.38127 0.0
H370 H 0.70486 0.32864 0.26574 0.0
H371 H 0.71223 0.29222 0.18496 0.0
H372 H 0.75726 0.23152 0.25602 0.0
H373 H 0.76272 0.25308 0.37188 0.0
C374 C 0.74458 0.29808 0.41136 0.0
C375 C 0.73377 0.32163 0.42551 0.0
C376 C 0.74094 0.28532 0.34534 0.0
C377 C 0.71957 0.33246 0.37199 0.0
C378 C 0.71597 0.3199 0.30594 0.0
C379 C 0.72295 0.2835 0.226 0.0
C380 C 0.73418 0.26018 0.21188 0.0
C381 C 0.72644 0.29624 0.29219 0.0
C382 C 0.74835 0.2494 0.26547 0.0
C383 C 0.75159 0.26177 0.33166 0.0
H384 H 0.73271 0.29225 -0.00746 0.0
H385 H 0.80802 0.28666 0.90639 0.0
H386 H 0.80179 0.32352 0.83303 0.0
H387 H 0.7707 0.34956 0.77544 0.0
H388 H 0.69369 0.35194 0.85349 0.0
H389 H 0.70473 0.32447 0.94931 0.0
C390 C 0.74785 0.29938 0.95835 0.0
C391 C 0.77035 0.28635 0.95261 0.0
C392 C 0.74362 0.31978 0.91468 0.0
C393 C 0.79046 0.29637 0.91091 0.0
C394 C 0.78676 0.31723 0.86858 0.0
C395 C 0.75659 0.3445 0.81441 0.0
C396 C 0.73126 0.35201 0.80695 0.0
C397 C 0.76278 0.32792 0.86712 0.0
C398 C 0.71328 0.3462 0.85851 0.0
C399 C 0.71952 0.33028 0.91265 0.0
H400 H 0.71732 0.75252 0.25841 0.0
H401 H 0.79344 0.73705 0.33638 0.0
H402 H 0.79064 0.76791 0.43561 0.0
H403 H 0.7677 0.80152 0.49521 0.0
H404 H 0.69066 0.81529 0.42077 0.0
H405 H 0.69278 0.78329 0.32336 0.0
C406 C 0.73324 0.75589 0.29722 0.0
C407 C 0.75573 0.74294 0.28981 0.0
C408 C 0.73148 0.77367 0.35359 0.0
C409 C 0.7759 0.74676 0.34143 0.0
C410 C 0.77442 0.7646 0.39758 0.0
C411 C 0.75153 0.79757 0.45712 0.0
C412 C 0.72936 0.81105 0.46328 0.0
C413 C 0.75259 0.77861 0.40316 0.0
C414 C 0.70806 0.80536 0.41567 0.0
C415 C 0.70924 0.78702 0.36052 0.0
H416 H 0.49647 0.52709 0.02487 0.0
H417 H 0.56498 0.52247 0.90456 0.0
H418 H 0.54109 0.53582 0.80094 0.0
H419 H 0.50009 0.54799 0.74507 0.0
H420 H 0.43127 0.5486 0.86603 0.0
H421 H 0.45609 0.53796 0.97 0.0
C422 C 0.5063 0.52915 0.97609 0.0
C423 C 0.53247 0.52407 0.97222 0.0
C424 C 0.4924 0.53625 0.91735 0.0
C425 C 0.5448 0.52629 0.90851 0.0
C426 C 0.53119 0.534 0.84958 0.0
C427 C 0.49076 0.54612 0.79459 0.0
C428 C 0.46409 0.5494 0.79873 0.0
C429 C 0.50494 0.53902 0.85348 0.0
C430 C 0.45185 0.54632 0.86225 0.0
C431 C 0.46598 0.54017 0.92141 0.0
H432 H 0.00308 0.53445 0.36712 0.0
H433 H 0.01954 0.46414 0.46633 0.0
H434 H 0.98199 0.46701 0.53979 0.0
H435 H 0.95192 0.49522 0.59309 0.0
H436 H 0.93919 0.56821 0.50252 0.0
H437 H 0.9673 0.55851 0.40687 0.0
C438 C -0.00185 0.51959 0.40412 0.0
C439 C 0.01439 0.49965 0.41349 0.0
C440 C 0.97739 0.52211 0.44796 0.0
C441 C 0.00731 0.47976 0.45897 0.0
C442 C 0.98605 0.48158 0.50135 0.0
C443 C 0.95505 0.50877 0.5518 0.0
C444 C 0.94445 0.53279 0.55569 0.0
C445 C 0.9721 0.50357 0.49921 0.0
C446 C 0.94744 0.54972 0.50055 0.0
C447 C 0.96371 0.54428 0.44642 0.0
H448 H 0.00167 0.56076 0.17998 0.0
H449 H 0.063 0.51601 0.1106 0.0
H450 H 0.04167 0.50995 -0.00524 0.0
H451 H 0.00549 0.5165 0.91434 0.0
H452 H 0.94399 0.56122 0.98239 0.0
H453 H 0.96555 0.5679 0.09831 0.0
C454 C 0.01056 0.54988 0.13942 0.0
C455 C 0.03396 0.53887 0.15412 0.0
C456 C -0.00195 0.5462 0.07307 0.0
C457 C 0.04502 0.52469 0.1009 0.0
C458 C 0.0328 0.52113 0.03466 0.0
C459 C 0.99662 0.52762 0.95444 0.0
C460 C 0.97302 0.53822 0.93961 0.0
C461 C 0.00921 0.53158 0.02046 0.0
C462 C 0.96206 0.55275 -0.00767 0.0
C463 C 0.97443 0.55664 0.05856 0.0
H464 H 0.46925 0.55933 0.52794 0.0
H465 H 0.44506 0.47681 0.49992 0.0
H466 H 0.48072 0.47234 0.42087 0.0
H467 H 0.5143 0.49346 0.34641 0.0
H468 H 0.53551 0.57661 0.37066 0.0
H469 H 0.5059 0.5793 0.46641 0.0
C470 C 0.47168 0.54035 0.50517 0.0
C471 C 0.45402 0.51863 0.51853 0.0
C472 C 0.49192 0.53806 0.45949 0.0
C473 C 0.4582 0.49396 0.48982 0.0
C474 C 0.47858 0.49139 0.4446 0.0
C475 C 0.51313 0.51193 0.37471 0.0
C476 C 0.52706 0.53482 0.35223 0.0
C477 C 0.49504 0.5135 0.42732 0.0
C478 C 0.52506 0.55879 0.3878 0.0
C479 C 0.50792 0.56035 0.44184 0.0
H480 H 0.12295 0.45044 0.2135 0.0
H481 H 0.18049 0.51653 0.1925 0.0
H482 H 0.21208 0.48724 0.15425 0.0
H483 H 0.22477 0.44251 0.14021 0.0
H484 H 0.16686 0.37675 0.16308 0.0
H485 H 0.13398 0.40629 0.1859 0.0
C486 C 0.14232 0.45848 0.19988 0.0
C487 C 0.14948 0.48558 0.20697 0.0
C488 C 0.16038 0.44156 0.17837 0.0
C489 C 0.17451 0.49572 0.18793 0.0
C490 C 0.19262 0.47897 0.16622 0.0
C491 C 0.20483 0.43463 0.1486 0.0
C492 C 0.19845 0.40742 0.15094 0.0
C493 C 0.18599 0.45179 0.16307 0.0
C494 C 0.17246 0.39759 0.16184 0.0
C495 C 0.1536 0.41448 0.17515 0.0
H496 H 0.78859 0.93085 0.43152 0.0
H497 H 0.86134 0.91846 0.53747 0.0
H498 H 0.88558 0.94435 0.45279 0.0
H499 H 0.88622 0.97082 0.34885 0.0
H500 H 0.81337 0.98319 0.24332 0.0
H501 H 0.78923 0.95703 0.32744 0.0
C502 C 0.80975 0.93378 0.43616 0.0
C503 C 0.82306 0.92269 0.491 0.0
C504 C 0.82362 0.94873 0.38724 0.0
C505 C 0.85052 0.92673 0.49594 0.0
C506 C 0.86444 0.94156 0.44747 0.0
C507 C 0.86507 0.96777 0.34414 0.0
C508 C 0.8517 0.97902 0.28968 0.0
C509 C 0.85121 0.95269 0.39292 0.0
C510 C 0.82425 0.97483 0.28459 0.0
C511 C 0.81037 0.95985 0.33277 0.0
H512 H 0.29549 0.6661 0.6727 0.0
H513 H 0.36055 0.72438 0.64571 0.0
H514 H 0.39093 0.69161 0.66095 0.0
H515 H 0.39858 0.64565 0.66705 0.0
H516 H 0.33355 0.58701 0.69094 0.0
H517 H 0.30371 0.62082 0.69303 0.0
C518 C 0.31634 0.67175 0.67117 0.0
C519 C 0.32567 0.6976 0.65681 0.0
C520 C 0.33372 0.65271 0.67894 0.0
C521 C 0.35277 0.7046 0.65593 0.0
C522 C 0.37019 0.68584 0.66445 0.0
C523 C 0.37793 0.64024 0.67373 0.0
C524 C 0.36831 0.61373 0.67756 0.0
C525 C 0.36081 0.6597 0.67364 0.0
C526 C 0.34153 0.60721 0.68737 0.0
C527 C 0.3244 0.62653 0.68819 0.0
H528 H 0.6541 0.18012 0.96219 0.0
H529 H 0.71728 0.13374 0.00752 0.0
H530 H 0.68813 0.09377 0.97987 0.0
H531 H 0.64428 0.07199 0.94491 0.0
H532 H 0.5812 0.11887 0.90498 0.0
H533 H 0.61097 0.15875 0.92669 0.0
C534 C 0.66159 0.16131 0.9663 0.0
C535 C 0.68787 0.16001 0.98716 0.0
C536 C 0.64481 0.1385 0.95018 0.0
C537 C 0.6971 0.13537 0.99209 0.0
C538 C 0.68049 0.11249 0.97581 0.0
C539 C 0.63727 0.09098 0.93963 0.0
C540 C 0.61074 0.09262 0.92265 0.0
C541 C 0.65432 0.11382 0.95463 0.0
C542 C 0.60163 0.11724 0.91757 0.0
C543 C 0.61857 0.14 0.93043 0.0
H544 H 0.15223 0.57944 0.43726 0.0
H545 H 0.10651 0.62252 0.29941 0.0
H546 H 0.1343 0.66279 0.3323 0.0
H547 H 0.16761 0.68635 0.4101 0.0
H548 H 0.21291 0.64481 0.55303 0.0
H549 H 0.18927 0.60318 0.50853 0.0
C550 C 0.149 0.59755 0.41299 0.0
C551 C 0.12758 0.59819 0.36574 0.0
C552 C 0.16448 0.62087 0.43439 0.0
C553 C 0.12306 0.62172 0.33552 0.0
C554 C 0.13875 0.64472 0.3548 0.0
C555 C 0.17239 0.66821 0.43169 0.0
C556 C 0.19153 0.66867 0.48595 0.0
C557 C 0.15881 0.64465 0.40606 0.0
C558 C 0.198 0.64495 0.51182 0.0
C559 C 0.18451 0.62119 0.48631 0.0
H560 H 0.64131 0.98849 0.72918 0.0
H561 H 0.57613 0.92969 0.6832 0.0
H562 H 0.60448 0.90242 0.62175 0.0
H563 H 0.6488 0.89217 0.59861 0.0
H564 H 0.71427 0.95038 0.64451 0.0
H565 H 0.68473 0.98125 0.68626 0.0
C566 C 0.63323 0.96991 0.70464 0.0
C567 C 0.60675 0.96089 0.71232 0.0
C568 C 0.64971 0.95418 0.66936 0.0
C569 C 0.59648 0.93701 0.67901 0.0
C570 C 0.6127 0.92133 0.64386 0.0
C571 C 0.6565 0.9119 0.61574 0.0
C572 C 0.68367 0.91887 0.61941 0.0
C573 C 0.6395 0.92926 0.64117 0.0
C574 C 0.69342 0.94455 0.641 0.0
C575 C 0.67655 0.9621 0.66582 0.0
H576 H 0.38898 0.44371 0.79967 0.0
H577 H 0.33342 0.50078 0.80598 0.0
H578 H 0.31004 0.47694 0.89634 0.0
H579 H 0.30568 0.43996 0.97463 0.0
H580 H 0.36114 0.38277 0.9654 0.0
H581 H 0.3842 0.40663 0.87535 0.0
C582 C 0.37175 0.45098 0.82066 0.0
C583 C 0.36304 0.47406 0.79611 0.0
C584 C 0.35837 0.43716 0.87234 0.0
C585 C 0.34056 0.48305 0.82381 0.0
C586 C 0.3272 0.46945 0.87563 0.0
C587 C 0.32284 0.43276 0.95298 0.0
C588 C 0.33168 0.40963 0.97706 0.0
C589 C 0.33599 0.44651 0.90052 0.0
C590 C 0.35385 0.40049 0.948 0.0
C591 C 0.3671 0.41413 0.89641 0.0
H592 H 0.79717 0.1463 0.14958 0.0
H593 H 0.85738 0.21116 0.17881 0.0
H594 H 0.889 0.18141 0.21259 0.0
H595 H 0.90087 0.13663 0.21624 0.0
H596 H 0.841 0.07157 0.18699 0.0
H597 H 0.80778 0.10177 0.17292 0.0
C598 C 0.81713 0.15394 0.1644 0.0
C599 C 0.82506 0.18082 0.16021 0.0
C600 C 0.83526 0.1367 0.18373 0.0
C601 C 0.85081 0.19054 0.18092 0.0
C602 C 0.86895 0.17353 0.20009 0.0
C603 C 0.88045 0.12908 0.2086 0.0
C604 C 0.87344 0.10194 0.20153 0.0
C605 C 0.86159 0.14651 0.19919 0.0
C606 C 0.8469 0.09239 0.19262 0.0
C607 C 0.82794 0.10966 0.18373 0.0
H608 H 0.82941 0.68776 0.90022 0.0
H609 H 0.80085 0.62735 0.0359 0.0
H610 H 0.82517 0.596 0.97316 0.0
H611 H 0.8561 0.58642 0.88215 0.0
H612 H 0.88375 0.64762 0.7472 0.0
H613 H 0.8581 0.67788 0.80716 0.0
C614 C 0.82844 0.66773 0.91622 0.0
C615 C 0.81353 0.65998 0.9731 0.0
C616 C 0.84233 0.64992 0.87996 0.0
C617 C 0.81224 0.63384 -0.00761 0.0
C618 C 0.82618 0.61593 0.95658 0.0
C619 C 0.85635 0.60632 0.86559 0.0
C620 C 0.87202 0.61472 0.81043 0.0
C621 C 0.84151 0.62383 0.9006 0.0
C622 C 0.87203 0.64058 0.78958 0.0
C623 C 0.85737 0.65798 0.82392 0.0
H624 H 0.22119 0.14008 0.65066 0.0
H625 H 0.17382 0.20088 0.59334 0.0
H626 H 0.13451 0.17041 0.59617 0.0
H627 H 0.11332 0.12724 0.61772 0.0
H628 H 0.15965 0.06588 0.67674 0.0
H629 H 0.19954 0.09591 0.6707 0.0
C630 C 0.20228 0.14657 0.63814 0.0
C631 C 0.20053 0.17279 0.62191 0.0
C632 C 0.17952 0.12895 0.64075 0.0
C633 C 0.17581 0.18089 0.60637 0.0
C634 C 0.15326 0.16348 0.60801 0.0
C635 C 0.13208 0.12029 0.62941 0.0
C636 C 0.13335 0.09428 0.64794 0.0
C637 C 0.15485 0.13758 0.62582 0.0
C638 C 0.15799 0.0858 0.66257 0.0
C639 C 0.18085 0.10296 0.65898 0.0
H640 H 0.66264 0.39685 0.37332 0.0
H641 H 0.68268 0.45247 0.54588 0.0
H642 H 0.66346 0.48625 0.48134 0.0
H643 H 0.63874 0.49917 0.37843 0.0
H644 H 0.61914 0.44318 0.20615 0.0
H645 H 0.64072 0.41049 0.2679 0.0
C646 C 0.66285 0.41638 0.39686 0.0
C647 C 0.67378 0.42206 0.46463 0.0
C648 C 0.65189 0.43566 0.35946 0.0
C649 C 0.67428 0.44756 0.49388 0.0
C650 C 0.66327 0.46688 0.45703 0.0
C651 C 0.63942 0.47991 0.35404 0.0
C652 C 0.6271 0.47362 0.28795 0.0
C653 C 0.65173 0.46105 0.39011 0.0
C654 C 0.62832 0.44858 0.25707 0.0
C655 C 0.64059 0.4298 0.29243 0.0
H656 H 0.36342 0.89785 0.28276 0.0
H657 H 0.33211 0.97196 0.31056 0.0
H658 H 0.28926 0.95201 0.26655 0.0
H659 H 0.26044 0.91333 0.22245 0.0
H660 H 0.29162 0.83914 0.19787 0.0
H661 H 0.33493 0.85951 0.23706 0.0
C662 C 0.34723 0.90967 0.27967 0.0
C663 C 0.35104 0.93637 0.30038 0.0
C664 C 0.32269 0.89815 0.25389 0.0
C665 C 0.32979 0.95134 0.29534 0.0
C666 C 0.30527 0.93999 0.26981 0.0
C667 C 0.27684 0.90175 0.22427 0.0
C668 C 0.2729 0.87483 0.20662 0.0
C669 C 0.30152 0.91343 0.24875 0.0
C670 C 0.29421 0.85994 0.2108 0.0
C671 C 0.31892 0.87153 0.23366 0.0
H672 H 0.82834 0.3865 0.687 0.0
H673 H 0.77616 0.44163 0.61852 0.0
H674 H 0.81007 0.47766 0.64664 0.0
H675 H 0.85456 0.49354 0.69048 0.0
H676 H 0.90689 0.43823 0.75607 0.0
H677 H 0.87263 0.40226 0.7304 0.0
C678 C 0.82437 0.40635 0.67761 0.0
C679 C 0.79969 0.41126 0.65042 0.0
C680 C 0.84385 0.427 0.69437 0.0
C681 C 0.79497 0.4372 0.63912 0.0
C682 C 0.81431 0.45787 0.65556 0.0
C683 C 0.85832 0.47365 0.70018 0.0
C684 C 0.88315 0.46857 0.7257 0.0
C685 C 0.83876 0.45301 0.68365 0.0
C686 C 0.8879 0.44265 0.73669 0.0
C687 C 0.86838 0.42207 0.72169 0.0
H688 H 0.31509 0.12969 0.50966 0.0
H689 H 0.37462 0.15234 0.67135 0.0
H690 H 0.40103 0.1195 0.62612 0.0
H691 H 0.40792 0.08518 0.53963 0.0
H692 H 0.34886 0.06193 0.3774 0.0
H693 H 0.32165 0.09421 0.42385 0.0
C694 C 0.33376 0.12732 0.53523 0.0
C695 C 0.34284 0.14355 0.59376 0.0
C696 C 0.34904 0.10841 0.50865 0.0
C697 C 0.36713 0.14021 0.62616 0.0
C698 C 0.38231 0.12144 0.60028 0.0
C699 C 0.38912 0.08715 0.5142 0.0
C700 C 0.38054 0.07125 0.45484 0.0
C701 C 0.37358 0.10561 0.54126 0.0
C702 C 0.356 0.07397 0.42305 0.0
C703 C 0.34041 0.09242 0.44963 0.0
H704 H 0.59293 0.62136 0.12144 0.0
H705 H 0.6432 0.56104 0.15965 0.0
H706 H 0.68167 0.59292 0.15205 0.0
H707 H 0.70099 0.63835 0.13513 0.0
H708 H 0.64945 0.69776 0.09783 0.0
H709 H 0.61166 0.66568 0.10405 0.0
C710 C 0.61225 0.61504 0.12832 0.0
C711 C 0.61505 0.58877 0.14125 0.0
C712 C 0.63417 0.63335 0.12372 0.0
C713 C 0.64037 0.58113 0.14979 0.0
C714 C 0.66241 0.59935 0.14529 0.0
C715 C 0.68149 0.6442 0.1279 0.0
C716 C 0.67818 0.67052 0.11619 0.0
C717 C 0.65956 0.62557 0.13217 0.0
C718 C 0.65271 0.67775 0.10735 0.0
C719 C 0.63099 0.6594 0.11088 0.0
H720 H 0.1389 0.88192 0.91499 0.0
H721 H 0.17509 0.94868 0.03849 0.0
H722 H 0.16269 0.97775 0.94762 0.0
H723 H 0.13836 0.98413 0.83719 0.0
H724 H 0.10265 0.91658 0.71511 0.0
H725 H 0.11837 0.88787 0.80114 0.0
C726 C 0.14419 0.90284 0.92198 0.0
C727 C 0.1575 0.91322 0.98374 0.0
C728 C 0.13706 0.91927 0.8698 0.0
C729 C 0.16471 0.94027 0.99146 0.0
C730 C 0.15756 0.95687 0.93963 0.0
C731 C 0.13432 0.96312 0.82896 0.0
C732 C 0.11904 0.95257 0.77009 0.0
C733 C 0.14328 0.9466 0.87913 0.0
C734 C 0.11415 0.92528 0.7601 0.0
C735 C 0.12307 0.9088 0.80939 0.0
loop_
_geom_bond_atom_site_label_1
_geom_bond_atom_site_label_2
_geom_bond_distance
_geom_bond_site_symmetry_2
_ccdc_geom_bond_type
Mg0 O1 2.028 1_554 S
Mg0 O7 1.986 . S
Mg0 O9 2.114 . S
Mg0 O10 2.251 . S
Mg0 O13 2.010 . S
O1 Mg0 2.028 1_556 S
O1 C4 1.250 . S
O2 Mg3 2.028 . S
O2 C4 1.248 1_554 S
Mg3 O2 2.028 . S
Mg3 O8 2.032 . S
Mg3 O10 2.079 . S
C4 O1 1.250 . S
C4 O2 1.248 1_556 S
C5 O6 1.264 . S
C5 O13 1.249 . S
O6 C5 1.264 . S
O7 Mg0 1.986 . S
O7 C11 1.246 . S
O8 Mg3 2.032 . S
O8 C11 1.259 . S
O9 Mg0 2.114 . S
O9 C12 1.252 . S
O10 Mg0 2.251 . S
O10 Mg3 2.079 . S
O10 C12 1.273 . S
C11 O7 1.246 . S
C11 O8 1.259 . S
C12 O9 1.252 . S
C12 O10 1.273 . S
O13 Mg0 2.010 . S
O13 C5 1.249 . S
Mg14 O15 2.028 . S
Mg14 O21 1.986 . S
Mg14 O23 2.114 . S
Mg14 O24 2.251 . S
Mg14 O27 2.010 . S
O15 Mg14 2.028 . S
O15 C18 1.250 . S
O16 Mg17 2.028 . S
O16 C18 1.248 . S
Mg17 O16 2.028 . S
Mg17 O22 2.032 . S
Mg17 O24 2.079 . S
C18 O15 1.250 . S
C18 O16 1.248 . S
C19 O20 1.264 . S
C19 O27 1.249 1_565 S
O20 C19 1.264 . S
O21 Mg14 1.986 . S
O21 C25 1.246 . S
O22 Mg17 2.032 . S
O22 C25 1.259 . S
O23 Mg14 2.114 . S
O23 C26 1.252 . S
O24 Mg14 2.251 . S
O24 Mg17 2.079 . S
O24 C26 1.273 . S
C25 O21 1.246 . S
C25 O22 1.259 . S
C26 O23 1.252 . S
C26 O24 1.273 . S
O27 Mg14 2.010 . S
O27 C19 1.249 1_545 S
Mg28 O29 2.028 . S
Mg28 O35 1.986 . S
Mg28 O37 2.114 . S
Mg28 O38 2.251 . S
Mg28 O41 2.010 . S
O29 Mg28 2.028 . S
O29 C32 1.250 . S
O30 Mg31 2.028 . S
O30 C32 1.248 . S
Mg31 O30 2.028 . S
Mg31 O36 2.032 . S
Mg31 O38 2.079 . S
C32 O29 1.250 . S
C32 O30 1.248 . S
C33 O34 1.264 . S
C33 O41 1.249 . S
O34 C33 1.264 . S
O35 Mg28 1.986 . S
O35 C39 1.246 . S
O36 Mg31 2.032 . S
O36 C39 1.259 . S
O37 Mg28 2.114 . S
O37 C40 1.252 . S
O38 Mg28 2.251 . S
O38 Mg31 2.079 . S
O38 C40 1.273 . S
C39 O35 1.246 . S
C39 O36 1.259 . S
C40 O37 1.252 . S
C40 O38 1.273 . S
O41 Mg28 2.010 . S
O41 C33 1.249 . S
Mg42 O43 2.028 . S
Mg42 O49 1.986 . S
Mg42 O51 2.114 1_545 S
Mg42 O52 2.251 . S
Mg42 O55 2.010 1_545 S
O43 Mg42 2.028 . S
O43 C46 1.250 . S
O44 Mg45 2.028 . S
O44 C46 1.248 . S
Mg45 O44 2.028 . S
Mg45 O50 2.032 . S
Mg45 O52 2.079 . S
C46 O43 1.250 . S
C46 O44 1.248 . S
C47 O48 1.264 . S
C47 O55 1.249 . S
O48 C47 1.264 . S
O49 Mg42 1.986 . S
O49 C53 1.246 . S
O50 Mg45 2.032 . S
O50 C53 1.259 . S
O51 Mg42 2.114 1_565 S
O51 C54 1.252 1_565 S
O52 Mg42 2.251 . S
O52 Mg45 2.079 . S
O52 C54 1.273 . S
C53 O49 1.246 . S
C53 O50 1.259 . S
C54 O51 1.252 1_545 S
C54 O52 1.273 . S
O55 Mg42 2.010 1_565 S
O55 C47 1.249 . S
Mg56 O57 2.028 . S
Mg56 O63 1.986 1_554 S
Mg56 O65 2.114 . S
Mg56 O66 2.251 . S
Mg56 O69 2.010 . S
O57 Mg56 2.028 . S
O57 C60 1.250 . S
O58 Mg59 2.028 . S
O58 C60 1.248 . S
Mg59 O58 2.028 . S
Mg59 O64 2.032 1_554 S
Mg59 O66 2.079 . S
C60 O57 1.250 . S
C60 O58 1.248 . S
C61 O62 1.264 . S
C61 O69 1.249 . S
O62 C61 1.264 . S
O63 Mg56 1.986 1_556 S
O63 C67 1.246 . S
O64 Mg59 2.032 1_556 S
O64 C67 1.259 . S
O65 Mg56 2.114 . S
O65 C68 1.252 . S
O66 Mg56 2.251 . S
O66 Mg59 2.079 . S
O66 C68 1.273 . S
C67 O63 1.246 . S
C67 O64 1.259 . S
C68 O65 1.252 . S
C68 O66 1.273 . S
O69 Mg56 2.010 . S
O69 C61 1.249 . S
Mg70 O71 2.028 . S
Mg70 O77 1.986 . S
Mg70 O79 2.114 . S
Mg70 O80 2.251 . S
Mg70 O83 2.040 . S
O71 Mg70 2.028 . S
O71 C74 1.250 . S
O72 Mg73 2.028 . S
O72 C74 1.248 . S
Mg73 O72 2.028 . S
Mg73 O78 2.032 . S
Mg73 O80 2.079 . S
C74 O71 1.250 . S
C74 O72 1.248 . S
C75 O76 1.264 . S
C75 O83 1.220 1_565 S
O76 C75 1.264 . S
O77 Mg70 1.986 . S
O77 C81 1.246 . S
O78 Mg73 2.032 . S
O78 C81 1.259 . S
O79 Mg70 2.114 . S
O79 C82 1.252 . S
O80 Mg70 2.251 . S
O80 Mg73 2.079 . S
O80 C82 1.273 . S
C81 O77 1.246 . S
C81 O78 1.259 . S
C82 O79 1.252 . S
C82 O80 1.273 . S
O83 Mg70 2.040 . S
O83 C75 1.220 1_545 S
Mg84 O85 2.028 . S
Mg84 O91 1.986 . S
Mg84 O93 2.114 . S
Mg84 O94 2.251 . S
Mg84 O97 2.010 . S
O85 Mg84 2.028 . S
O85 C88 1.250 . S
O86 Mg87 2.028 . S
O86 C88 1.248 . S
Mg87 O86 2.028 . S
Mg87 O92 2.032 . S
Mg87 O94 2.079 . S
C88 O85 1.250 . S
C88 O86 1.248 . S
C89 O90 1.264 . S
C89 O97 1.249 . S
O90 C89 1.264 . S
O91 Mg84 1.986 . S
O91 C95 1.246 . S
O92 Mg87 2.032 . S
O92 C95 1.259 . S
O93 Mg84 2.114 . S
O93 C96 1.252 . S
O94 Mg84 2.251 . S
O94 Mg87 2.079 . S
O94 C96 1.273 . S
C95 O91 1.246 . S
C95 O92 1.259 . S
C96 O93 1.252 . S
C96 O94 1.273 . S
O97 Mg84 2.010 . S
O97 C89 1.249 . S
Mg98 O99 2.028 . S
Mg98 O105 1.986 . S
Mg98 O107 2.114 . S
Mg98 O108 2.251 . S
Mg98 O111 2.010 . S
O99 Mg98 2.028 . S
O99 C102 1.250 1_545 S
O100 Mg101 2.028 . S
O100 C102 1.248 . S
Mg101 O100 2.028 . S
Mg101 O106 2.032 . S
Mg101 O108 2.079 1_565 S
C102 O99 1.250 1_565 S
C102 O100 1.248 . S
C103 O104 1.264 . S
C103 O111 1.249 . S
O104 C103 1.264 . S
O105 Mg98 1.986 . S
O105 C109 1.246 . S
O106 Mg101 2.032 . S
O106 C109 1.259 1_565 S
O107 Mg98 2.114 . S
O107 C110 1.252 . S
O108 Mg98 2.251 . S
O108 Mg101 2.079 1_545 S
O108 C110 1.273 . S
C109 O105 1.246 . S
C109 O106 1.259 1_545 S
C110 O107 1.252 . S
C110 O108 1.273 . S
O111 Mg98 2.010 . S
O111 C103 1.249 . S
Mg112 O113 2.028 . S
Mg112 O119 1.986 . S
Mg112 O121 2.114 . S
Mg112 O122 2.251 . S
Mg112 O125 2.010 . S
O113 Mg112 2.028 . S
O113 C116 1.250 . S
O114 Mg115 2.028 . S
O114 C116 1.248 . S
Mg115 O114 2.028 . S
Mg115 O120 2.032 . S
Mg115 O122 2.079 . S
C116 O113 1.250 . S
C116 O114 1.248 . S
C117 O118 1.264 . S
C117 O125 1.249 . S
O118 C117 1.264 . S
O119 Mg112 1.986 . S
O119 C123 1.246 . S
O120 Mg115 2.032 . S
O120 C123 1.259 . S
O121 Mg112 2.114 . S
O121 C124 1.252 . S
O122 Mg112 2.251 . S
O122 Mg115 2.079 . S
O122 C124 1.273 . S
C123 O119 1.246 . S
C123 O120 1.259 . S
C124 O121 1.252 . S
C124 O122 1.273 . S
O125 Mg112 2.010 . S
O125 C117 1.249 . S
Mg126 O127 2.028 . S
Mg126 O133 1.986 . S
Mg126 O135 2.114 . S
Mg126 O136 2.251 . S
Mg126 O139 2.010 . S
O127 Mg126 2.028 . S
O127 C130 1.250 . S
O128 Mg129 2.028 . S
O128 C130 1.248 . S
Mg129 O128 2.028 . S
Mg129 O134 2.032 . S
Mg129 O136 2.079 . S
C130 O127 1.250 . S
C130 O128 1.248 . S
C131 O132 1.264 . S
C131 O139 1.249 . S
O132 C131 1.264 . S
O133 Mg126 1.986 . S
O133 C137 1.246 . S
O134 Mg129 2.032 . S
O134 C137 1.259 . S
O135 Mg126 2.114 . S
O135 C138 1.252 . S
O136 Mg126 2.251 . S
O136 Mg129 2.079 . S
O136 C138 1.273 . S
C137 O133 1.246 . S
C137 O134 1.259 . S
C138 O135 1.252 . S
C138 O136 1.273 . S
O139 Mg126 2.010 . S
O139 C131 1.249 . S
Mg140 O141 2.028 . S
Mg140 O147 1.986 . S
Mg140 O149 2.114 1_554 S
Mg140 O150 2.251 1_554 S
Mg140 O153 2.010 . S
O141 Mg140 2.028 . S
O141 C144 1.250 . S
O142 Mg143 2.028 . S
O142 C144 1.248 . S
Mg143 O142 2.028 . S
Mg143 O148 2.032 . S
Mg143 O150 2.079 1_554 S
C144 O141 1.250 . S
C144 O142 1.248 . S
C145 O146 1.264 . S
C145 O153 1.249 . S
O146 C145 1.264 . S
O147 Mg140 1.986 . S
O147 C151 1.246 . S
O148 Mg143 2.032 . S
O148 C151 1.259 . S
O149 Mg140 2.114 1_556 S
O149 C152 1.252 . S
O150 Mg140 2.251 1_556 S
O150 Mg143 2.079 1_556 S
O150 C152 1.273 . S
C151 O147 1.246 . S
C151 O148 1.259 . S
C152 O149 1.252 . S
C152 O150 1.273 . S
O153 Mg140 2.010 . S
O153 C145 1.249 . S
Mg154 O155 2.028 . S
Mg154 O161 1.986 . S
Mg154 O163 2.114 . S
Mg154 O164 2.251 . S
Mg154 O167 2.010 . S
O155 Mg154 2.028 . S
O155 C158 1.250 . S
O156 Mg157 2.028 . S
O156 C158 1.248 . S
Mg157 O156 2.028 . S
Mg157 O162 2.032 . S
Mg157 O164 2.079 . S
C158 O155 1.250 . S
C158 O156 1.248 . S
C159 O160 1.264 . S
C159 O167 1.249 . S
O160 C159 1.264 . S
O161 Mg154 1.986 . S
O161 C165 1.246 . S
O162 Mg157 2.032 . S
O162 C165 1.259 . S
O163 Mg154 2.114 . S
O163 C166 1.252 . S
O164 Mg154 2.251 . S
O164 Mg157 2.079 . S
O164 C166 1.273 . S
C165 O161 1.246 . S
C165 O162 1.259 . S
C166 O163 1.252 . S
C166 O164 1.273 . S
O167 Mg154 2.010 . S
O167 C159 1.249 . S
Mg168 O169 2.028 . S
Mg168 O175 1.986 . S
Mg168 O177 2.114 . S
Mg168 O178 2.251 . S
Mg168 O181 2.010 . S
O169 Mg168 2.028 . S
O169 C172 1.250 . S
O170 Mg171 2.028 . S
O170 C172 1.248 . S
Mg171 O170 2.028 . S
Mg171 O176 2.032 . S
Mg171 O178 2.079 . S
C172 O169 1.250 . S
C172 O170 1.248 . S
C173 O174 1.264 . S
C173 O181 1.249 . S
O174 C173 1.264 . S
O175 Mg168 1.986 . S
O175 C179 1.246 . S
O176 Mg171 2.032 . S
O176 C179 1.259 . S
O177 Mg168 2.114 . S
O177 C180 1.252 . S
O178 Mg168 2.251 . S
O178 Mg171 2.079 . S
O178 C180 1.273 . S
C179 O175 1.246 . S
C179 O176 1.259 . S
C180 O177 1.252 . S
C180 O178 1.273 . S
O181 Mg168 2.010 . S
O181 C173 1.249 . S
Mg182 O183 2.028 . S
Mg182 O189 1.986 . S
Mg182 O191 2.114 . S
Mg182 O192 2.251 . S
Mg182 O195 2.010 . S
O183 Mg182 2.028 . S
O183 C186 1.250 . S
O184 Mg185 2.028 . S
O184 C186 1.248 . S
Mg185 O184 2.028 . S
Mg185 O190 2.032 . S
Mg185 O192 2.079 . S
C186 O183 1.250 . S
C186 O184 1.248 . S
C187 O188 1.264 . S
C187 O195 1.249 . S
O188 C187 1.264 . S
O189 Mg182 1.986 . S
O189 C193 1.246 . S
O190 Mg185 2.032 . S
O190 C193 1.259 . S
O191 Mg182 2.114 . S
O191 C194 1.252 . S
O192 Mg182 2.251 . S
O192 Mg185 2.079 . S
O192 C194 1.273 . S
C193 O189 1.246 . S
C193 O190 1.259 . S
C194 O191 1.252 . S
C194 O192 1.273 . S
O195 Mg182 2.010 . S
O195 C187 1.249 . S
Mg196 O197 2.028 . S
Mg196 O203 1.986 1_554 S
Mg196 O205 2.114 . S
Mg196 O206 2.251 . S
Mg196 O209 2.010 . S
O197 Mg196 2.028 . S
O197 C200 1.250 . S
O198 Mg199 2.028 . S
O198 C200 1.248 . S
Mg199 O198 2.028 . S
Mg199 O204 2.032 1_554 S
Mg199 O206 2.079 . S
C200 O197 1.250 . S
C200 O198 1.248 . S
C201 O202 1.262 1_554 S
C201 O209 1.250 . S
O202 C201 1.262 1_556 S
O203 Mg196 1.986 1_556 S
O203 C207 1.246 . S
O204 Mg199 2.032 1_556 S
O204 C207 1.259 . S
O205 Mg196 2.114 . S
O205 C208 1.252 . S
O206 Mg196 2.251 . S
O206 Mg199 2.079 . S
O206 C208 1.273 . S
C207 O203 1.246 . S
C207 O204 1.259 . S
C208 O205 1.252 . S
C208 O206 1.273 . S
O209 Mg196 2.010 . S
O209 C201 1.250 . S
Mg210 O211 2.028 . S
Mg210 O217 1.986 . S
Mg210 O219 2.114 . S
Mg210 O220 2.251 . S
Mg210 O223 2.010 . S
O211 Mg210 2.028 . S
O211 C214 1.250 . S
O212 Mg213 2.028 . S
O212 C214 1.248 . S
Mg213 O212 2.028 . S
Mg213 O218 2.032 . S
Mg213 O220 2.079 . S
C214 O211 1.250 . S
C214 O212 1.248 . S
C215 O216 1.264 . S
C215 O223 1.249 . S
O216 C215 1.264 . S
O217 Mg210 1.986 . S
O217 C221 1.246 . S
O218 Mg213 2.032 . S
O218 C221 1.259 . S
O219 Mg210 2.114 . S
O219 C222 1.252 . S
O220 Mg210 2.251 . S
O220 Mg213 2.079 . S
O220 C222 1.273 . S
C221 O217 1.246 . S
C221 O218 1.259 . S
C222 O219 1.252 . S
C222 O220 1.273 . S
O223 Mg210 2.010 . S
O223 C215 1.249 . S
H224 C230 0.930 . S
H225 C233 0.930 . S
H226 C234 0.930 . S
H227 C235 0.930 . S
H228 C238 0.930 . S
H229 C239 0.930 . S
C230 H224 0.930 . S
C230 C231 1.355 . S
C230 C232 1.415 . S
C231 C230 1.355 . S
C231 C233 1.419 . S
C232 C230 1.415 . S
C232 C237 1.425 . S
C232 C239 1.409 . S
C233 H225 0.930 . S
C233 C231 1.419 . S
C233 C234 1.362 . S
C234 H226 0.930 . S
C234 C233 1.362 . S
C234 C237 1.409 . S
C235 H227 0.930 . S
C235 C236 1.355 . S
C235 C237 1.415 . S
C236 C235 1.355 . S
C236 C238 1.419 . S
C237 C232 1.425 . S
C237 C234 1.409 . S
C237 C235 1.415 . S
C238 H228 0.930 . S
C238 C236 1.419 . S
C238 C239 1.362 . S
C239 H229 0.930 . S
C239 C232 1.409 . S
C239 C238 1.362 . S
H240 C246 0.930 . S
H241 C249 0.930 . S
H242 C250 0.930 . S
H243 C251 0.930 . S
H244 C254 0.930 . S
H245 C255 0.930 . S
C246 H240 0.930 . S
C246 C247 1.355 . S
C246 C248 1.415 . S
C247 C246 1.355 . S
C247 C249 1.419 . S
C248 C246 1.415 . S
C248 C253 1.425 1_655 S
C248 C255 1.409 . S
C249 H241 0.930 . S
C249 C247 1.419 . S
C249 C250 1.362 1_655 S
C250 H242 0.930 . S
C250 C249 1.362 1_455 S
C250 C253 1.409 . S
C251 H243 0.930 . S
C251 C252 1.355 . S
C251 C253 1.415 . S
C252 C251 1.355 . S
C252 C254 1.419 . S
C253 C248 1.425 1_455 S
C253 C250 1.409 . S
C253 C251 1.415 . S
C254 H244 0.930 . S
C254 C252 1.419 . S
C254 C255 1.362 1_455 S
C255 H245 0.930 . S
C255 C248 1.409 . S
C255 C254 1.362 1_655 S
H256 C262 0.930 . S
H257 C265 0.930 . S
H258 C266 0.930 . S
H259 C267 0.930 . S
H260 C270 0.930 . S
H261 C271 0.930 . S
C262 H256 0.930 . S
C262 C263 1.355 . S
C262 C264 1.415 . S
C263 C262 1.355 . S
C263 C265 1.419 . S
C264 C262 1.415 . S
C264 C269 1.425 . S
C264 C271 1.409 . S
C265 H257 0.930 . S
C265 C263 1.419 . S
C265 C266 1.362 . S
C266 H258 0.930 . S
C266 C265 1.362 . S
C266 C269 1.409 . S
C267 H259 0.930 . S
C267 C268 1.355 . S
C267 C269 1.415 . S
C268 C267 1.355 . S
C268 C270 1.419 . S
C269 C264 1.425 . S
C269 C266 1.409 . S
C269 C267 1.415 . S
C270 H260 0.930 . S
C270 C268 1.419 . S
C270 C271 1.362 . S
C271 H261 0.930 . S
C271 C264 1.409 . S
C271 C270 1.362 . S
H272 C278 0.930 . S
H273 C281 0.930 . S
H274 C282 0.930 . S
H275 C283 0.930 . S
H276 C286 0.930 . S
H277 C287 0.930 . S
C278 H272 0.930 . S
C278 C279 1.355 . S
C278 C280 1.415 . S
C279 C278 1.355 . S
C279 C281 1.419 . S
C280 C278 1.415 . S
C280 C285 1.425 . S
C280 C287 1.409 1_554 S
C281 H273 0.930 . S
C281 C279 1.419 . S
C281 C282 1.362 . S
C282 H274 0.930 . S
C282 C281 1.362 . S
C282 C285 1.409 . S
C283 H275 0.930 . S
C283 C284 1.355 1_554 S
C283 C285 1.415 . S
C284 C283 1.355 1_556 S
C284 C286 1.419 . S
C285 C280 1.425 . S
C285 C282 1.409 . S
C285 C283 1.415 . S
C286 H276 0.930 . S
C286 C284 1.419 . S
C286 C287 1.362 . S
C287 H277 0.930 . S
C287 C280 1.409 1_556 S
C287 C286 1.362 . S
H288 C294 0.930 . S
H289 C297 0.930 . S
H290 C298 0.930 . S
H291 C299 0.930 . S
H292 C302 0.930 . S
H293 C303 0.930 . S
C294 H288 0.930 . S
C294 C295 1.355 . S
C294 C296 1.415 . S
C295 C294 1.355 . S
C295 C297 1.419 . S
C296 C294 1.415 . S
C296 C301 1.425 . S
C296 C303 1.409 . S
C297 H289 0.930 . S
C297 C295 1.419 . S
C297 C298 1.362 . S
C298 H290 0.930 . S
C298 C297 1.362 . S
C298 C301 1.409 . S
C299 H291 0.930 . S
C299 C300 1.355 . S
C299 C301 1.415 . S
C300 C299 1.355 . S
C300 C302 1.419 . S
C301 C296 1.425 . S
C301 C298 1.409 . S
C301 C299 1.415 . S
C302 H292 0.930 . S
C302 C300 1.419 . S
C302 C303 1.362 . S
C303 H293 0.930 . S
C303 C296 1.409 . S
C303 C302 1.362 . S
H304 C310 0.930 . S
H305 C313 0.930 1_565 S
H306 C314 0.933 . S
H307 C315 0.930 . S
H308 C318 0.930 . S
H309 C319 0.930 . S
C310 H304 0.930 . S
C310 C311 1.355 . S
C310 C312 1.415 . S
C311 C310 1.355 . S
C311 C313 1.419 . S
C312 C310 1.415 . S
C312 C317 1.425 . S
C312 C319 1.409 . S
C313 H305 0.930 1_545 S
C313 C311 1.419 . S
C313 C314 1.362 . S
C314 H306 0.933 . S
C314 C313 1.362 . S
C314 C317 1.409 . S
C315 H307 0.930 . S
C315 C316 1.355 . S
C315 C317 1.415 . S
C316 C315 1.355 . S
C316 C318 1.419 . S
C317 C312 1.425 . S
C317 C314 1.409 . S
C317 C315 1.415 . S
C318 H308 0.930 . S
C318 C316 1.419 . S
C318 C319 1.362 . S
C319 H309 0.930 . S
C319 C312 1.409 . S
C319 C318 1.362 . S
H320 C326 0.930 . S
H321 C329 0.930 . S
H322 C330 0.930 . S
H323 C331 0.930 . S
H324 C334 0.930 . S
H325 C335 0.930 . S
C326 H320 0.930 . S
C326 C327 1.355 . S
C326 C328 1.415 . S
C327 C326 1.355 . S
C327 C329 1.419 . S
C328 C326 1.415 . S
C328 C333 1.425 . S
C328 C335 1.409 . S
C329 H321 0.930 . S
C329 C327 1.419 . S
C329 C330 1.362 . S
C330 H322 0.930 . S
C330 C329 1.362 . S
C330 C333 1.409 . S
C331 H323 0.930 . S
C331 C332 1.355 . S
C331 C333 1.415 . S
C332 C331 1.355 . S
C332 C334 1.419 . S
C333 C328 1.425 . S
C333 C330 1.409 . S
C333 C331 1.415 . S
C334 H324 0.930 . S
C334 C332 1.419 . S
C334 C335 1.362 . S
C335 H325 0.930 . S
C335 C328 1.409 . S
C335 C334 1.362 . S
H336 C342 0.930 . S
H337 C345 0.930 . S
H338 C346 0.930 . S
H339 C347 0.930 . S
H340 C350 0.927 1_455 S
H341 C351 0.930 . S
C342 H336 0.930 . S
C342 C343 1.355 1_554 S
C342 C344 1.415 . S
C343 C342 1.355 1_556 S
C343 C345 1.419 . S
C344 C342 1.415 . S
C344 C349 1.425 1_455 S
C344 C351 1.409 . S
C345 H337 0.930 . S
C345 C343 1.419 . S
C345 C346 1.362 1_455 S
C346 H338 0.930 . S
C346 C345 1.362 1_655 S
C346 C349 1.409 1_556 S
C347 H339 0.930 . S
C347 C348 1.355 . S
C347 C349 1.415 . S
C348 C347 1.355 . S
C348 C350 1.445 . S
C349 C344 1.425 1_655 S
C349 C346 1.409 1_554 S
C349 C347 1.415 . S
C350 H340 0.927 1_655 S
C350 C348 1.445 . S
C350 C351 1.340 1_655 S
C351 H341 0.930 . S
C351 C344 1.409 . S
C351 C350 1.340 1_455 S
H352 C358 0.930 . S
H353 C361 0.930 . S
H354 C362 0.930 . S
H355 C363 0.930 . S
H356 C366 0.930 . S
H357 C367 0.930 . S
C358 H352 0.930 . S
C358 C359 1.355 . S
C358 C360 1.415 . S
C359 C358 1.355 . S
C359 C361 1.419 . S
C360 C358 1.415 . S
C360 C365 1.425 . S
C360 C367 1.409 . S
C361 H353 0.930 . S
C361 C359 1.419 . S
C361 C362 1.362 . S
C362 H354 0.930 . S
C362 C361 1.362 . S
C362 C365 1.409 . S
C363 H355 0.930 . S
C363 C364 1.355 . S
C363 C365 1.415 . S
C364 C363 1.355 . S
C364 C366 1.419 . S
C365 C360 1.425 . S
C365 C362 1.409 . S
C365 C363 1.415 . S
C366 H356 0.930 . S
C366 C364 1.419 . S
C366 C367 1.362 . S
C367 H357 0.930 . S
C367 C360 1.409 . S
C367 C366 1.362 . S
H368 C374 0.930 . S
H369 C377 0.930 . S
H370 C378 0.930 . S
H371 C379 0.930 . S
H372 C382 0.930 . S
H373 C383 0.930 . S
C374 H368 0.930 . S
C374 C375 1.355 . S
C374 C376 1.415 . S
C375 C374 1.355 . S
C375 C377 1.419 . S
C376 C374 1.415 . S
C376 C381 1.425 . S
C376 C383 1.409 . S
C377 H369 0.930 . S
C377 C375 1.419 . S
C377 C378 1.362 . S
C378 H370 0.930 . S
C378 C377 1.362 . S
C378 C381 1.409 . S
C379 H371 0.930 . S
C379 C380 1.355 . S
C379 C381 1.415 . S
C380 C379 1.355 . S
C380 C382 1.419 . S
C381 C376 1.425 . S
C381 C378 1.409 . S
C381 C379 1.415 . S
C382 H372 0.930 . S
C382 C380 1.419 . S
C382 C383 1.362 . S
C383 H373 0.930 . S
C383 C376 1.409 . S
C383 C382 1.362 . S
H384 C390 0.930 . S
H385 C393 0.930 . S
H386 C394 0.930 . S
H387 C395 0.930 . S
H388 C398 0.930 . S
H389 C399 0.930 . S
C390 H384 0.930 . S
C390 C391 1.355 . S
C390 C392 1.415 . S
C391 C390 1.355 . S
C391 C393 1.419 . S
C392 C390 1.415 . S
C392 C397 1.425 . S
C392 C399 1.409 . S
C393 H385 0.930 . S
C393 C391 1.419 . S
C393 C394 1.362 . S
C394 H386 0.930 . S
C394 C393 1.362 . S
C394 C397 1.409 . S
C395 H387 0.930 . S
C395 C396 1.355 . S
C395 C397 1.415 . S
C396 C395 1.355 . S
C396 C398 1.419 . S
C397 C392 1.425 . S
C397 C394 1.409 . S
C397 C395 1.415 . S
C398 H388 0.930 . S
C398 C396 1.419 . S
C398 C399 1.362 . S
C399 H389 0.930 . S
C399 C392 1.409 . S
C399 C398 1.362 . S
H400 C406 0.930 . S
H401 C409 0.930 . S
H402 C410 0.930 . S
H403 C411 0.930 . S
H404 C414 0.930 . S
H405 C415 0.930 . S
C406 H400 0.930 . S
C406 C407 1.355 . S
C406 C408 1.415 . S
C407 C406 1.355 . S
C407 C409 1.419 . S
C408 C406 1.415 . S
C408 C413 1.425 . S
C408 C415 1.409 . S
C409 H401 0.930 . S
C409 C407 1.419 . S
C409 C410 1.362 . S
C410 H402 0.930 . S
C410 C409 1.362 . S
C410 C413 1.409 . S
C411 H403 0.930 . S
C411 C412 1.355 . S
C411 C413 1.415 . S
C412 C411 1.355 . S
C412 C414 1.419 . S
C413 C408 1.425 . S
C413 C410 1.409 . S
C413 C411 1.415 . S
C414 H404 0.930 . S
C414 C412 1.419 . S
C414 C415 1.362 . S
C415 H405 0.930 . S
C415 C408 1.409 . S
C415 C414 1.362 . S
H416 C422 0.930 . S
H417 C425 0.930 . S
H418 C426 0.930 . S
H419 C427 0.930 . S
H420 C430 0.930 . S
H421 C431 0.930 . S
C422 H416 0.930 . S
C422 C423 1.355 . S
C422 C424 1.415 . S
C423 C422 1.355 . S
C423 C425 1.419 . S
C424 C422 1.415 . S
C424 C429 1.425 . S
C424 C431 1.409 . S
C425 H417 0.930 . S
C425 C423 1.419 . S
C425 C426 1.362 . S
C426 H418 0.930 . S
C426 C425 1.362 . S
C426 C429 1.409 . S
C427 H419 0.930 . S
C427 C428 1.355 . S
C427 C429 1.415 1_556 S
C428 C427 1.355 . S
C428 C430 1.419 . S
C429 C424 1.425 . S
C429 C426 1.409 . S
C429 C427 1.415 1_554 S
C430 H420 0.930 . S
C430 C428 1.419 . S
C430 C431 1.362 1_556 S
C431 H421 0.930 . S
C431 C424 1.409 . S
C431 C430 1.362 1_554 S
H432 C438 0.930 . S
H433 C441 0.930 . S
H434 C442 0.930 . S
H435 C443 0.930 . S
H436 C446 0.930 . S
H437 C447 0.930 . S
C438 H432 0.930 . S
C438 C439 1.355 1_655 S
C438 C440 1.415 . S
C439 C438 1.355 1_455 S
C439 C441 1.419 . S
C440 C438 1.415 . S
C440 C445 1.427 . S
C440 C447 1.409 . S
C441 H433 0.930 . S
C441 C439 1.419 . S
C441 C442 1.362 . S
C442 H434 0.930 . S
C442 C441 1.362 . S
C442 C445 1.406 1_455 S
C443 H435 0.930 . S
C443 C444 1.355 . S
C443 C445 1.416 . S
C444 C443 1.355 . S
C444 C446 1.419 . S
C445 C440 1.427 . S
C445 C442 1.406 1_655 S
C445 C443 1.416 . S
C446 H436 0.930 . S
C446 C444 1.419 . S
C446 C447 1.362 . S
C447 H437 0.930 . S
C447 C440 1.409 . S
C447 C446 1.362 . S
H448 C454 0.930 1_655 S
H449 C457 0.930 . S
H450 C458 0.930 . S
H451 C459 0.930 . S
H452 C462 0.930 . S
H453 C463 0.930 . S
C454 H448 0.930 1_455 S
C454 C455 1.355 . S
C454 C456 1.415 1_455 S
C455 C454 1.355 . S
C455 C457 1.419 . S
C456 C454 1.415 1_655 S
C456 C461 1.425 1_655 S
C456 C463 1.409 . S
C457 H449 0.930 . S
C457 C455 1.419 . S
C457 C458 1.362 . S
C458 H450 0.930 . S
C458 C457 1.362 . S
C458 C461 1.409 . S
C459 H451 0.930 . S
C459 C460 1.355 . S
C459 C461 1.415 1_656 S
C460 C459 1.355 . S
C460 C462 1.419 1_556 S
C461 C456 1.425 1_455 S
C461 C458 1.409 . S
C461 C459 1.415 1_454 S
C462 H452 0.930 . S
C462 C460 1.419 1_554 S
C462 C463 1.362 . S
C463 H453 0.930 . S
C463 C456 1.409 . S
C463 C462 1.362 . S
H464 C470 0.930 . S
H465 C473 0.930 . S
H466 C474 0.930 . S
H467 C475 0.930 . S
H468 C478 0.930 . S
H469 C479 0.930 . S
C470 H464 0.930 . S
C470 C471 1.355 . S
C470 C472 1.415 . S
C471 C470 1.355 . S
C471 C473 1.419 . S
C472 C470 1.415 . S
C472 C477 1.425 . S
C472 C479 1.409 . S
C473 H465 0.930 . S
C473 C471 1.419 . S
C473 C474 1.362 . S
C474 H466 0.930 . S
C474 C473 1.362 . S
C474 C477 1.409 . S
C475 H467 0.930 . S
C475 C476 1.355 . S
C475 C477 1.415 . S
C476 C475 1.355 . S
C476 C478 1.419 . S
C477 C472 1.425 . S
C477 C474 1.409 . S
C477 C475 1.415 . S
C478 H468 0.930 . S
C478 C476 1.419 . S
C478 C479 1.362 . S
C479 H469 0.930 . S
C479 C472 1.409 . S
C479 C478 1.362 . S
H480 C486 0.930 . S
H481 C489 0.930 . S
H482 C490 0.930 . S
H483 C491 0.930 . S
H484 C494 0.930 . S
H485 C495 0.930 . S
C486 H480 0.930 . S
C486 C487 1.355 . S
C486 C488 1.415 . S
C487 C486 1.355 . S
C487 C489 1.419 . S
C488 C486 1.415 . S
C488 C493 1.425 . S
C488 C495 1.409 . S
C489 H481 0.930 . S
C489 C487 1.419 . S
C489 C490 1.362 . S
C490 H482 0.930 . S
C490 C489 1.362 . S
C490 C493 1.409 . S
C491 H483 0.930 . S
C491 C492 1.355 . S
C491 C493 1.415 . S
C492 C491 1.355 . S
C492 C494 1.419 . S
C493 C488 1.425 . S
C493 C490 1.409 . S
C493 C491 1.415 . S
C494 H484 0.930 . S
C494 C492 1.419 . S
C494 C495 1.362 . S
C495 H485 0.930 . S
C495 C488 1.409 . S
C495 C494 1.362 . S
H496 C502 0.930 . S
H497 C505 0.930 . S
H498 C506 0.930 . S
H499 C507 0.930 . S
H500 C510 0.930 . S
H501 C511 0.930 . S
C502 H496 0.930 . S
C502 C503 1.355 . S
C502 C504 1.415 . S
C503 C502 1.355 . S
C503 C505 1.419 . S
C504 C502 1.415 . S
C504 C509 1.425 . S
C504 C511 1.409 . S
C505 H497 0.930 . S
C505 C503 1.419 . S
C505 C506 1.362 . S
C506 H498 0.930 . S
C506 C505 1.362 . S
C506 C509 1.409 . S
C507 H499 0.930 . S
C507 C508 1.355 . S
C507 C509 1.415 . S
C508 C507 1.355 . S
C508 C510 1.419 . S
C509 C504 1.425 . S
C509 C506 1.409 . S
C509 C507 1.415 . S
C510 H500 0.930 . S
C510 C508 1.419 . S
C510 C511 1.362 . S
C511 H501 0.930 . S
C511 C504 1.409 . S
C511 C510 1.362 . S
H512 C518 0.930 . S
H513 C521 0.930 . S
H514 C522 0.930 . S
H515 C523 0.930 . S
H516 C526 0.930 . S
H517 C527 0.930 . S
C518 H512 0.930 . S
C518 C519 1.355 . S
C518 C520 1.415 . S
C519 C518 1.355 . S
C519 C521 1.419 . S
C520 C518 1.415 . S
C520 C525 1.425 . S
C520 C527 1.409 . S
C521 H513 0.930 . S
C521 C519 1.419 . S
C521 C522 1.362 . S
C522 H514 0.930 . S
C522 C521 1.362 . S
C522 C525 1.409 . S
C523 H515 0.930 . S
C523 C524 1.355 . S
C523 C525 1.415 . S
C524 C523 1.355 . S
C524 C526 1.419 . S
C525 C520 1.425 . S
C525 C522 1.409 . S
C525 C523 1.415 . S
C526 H516 0.930 . S
C526 C524 1.419 . S
C526 C527 1.362 . S
C527 H517 0.930 . S
C527 C520 1.409 . S
C527 C526 1.362 . S
H528 C534 0.930 . S
H529 C537 0.930 . S
H530 C538 0.930 . S
H531 C539 0.930 . S
H532 C542 0.930 . S
H533 C543 0.930 1_554 S
C534 H528 0.930 . S
C534 C535 1.355 1_554 S
C534 C536 1.415 1_554 S
C535 C534 1.355 1_556 S
C535 C537 1.419 . S
C536 C534 1.415 1_556 S
C536 C541 1.425 . S
C536 C543 1.409 . S
C537 H529 0.930 . S
C537 C535 1.419 . S
C537 C538 1.362 . S
C538 H530 0.930 . S
C538 C537 1.362 . S
C538 C541 1.409 . S
C539 H531 0.930 . S
C539 C540 1.355 . S
C539 C541 1.415 . S
C540 C539 1.355 . S
C540 C542 1.419 . S
C541 C536 1.425 . S
C541 C538 1.409 . S
C541 C539 1.415 . S
C542 H532 0.930 . S
C542 C540 1.419 . S
C542 C543 1.362 . S
C543 H533 0.930 1_556 S
C543 C536 1.409 . S
C543 C542 1.362 . S
H544 C550 0.930 . S
H545 C553 0.930 . S
H546 C554 0.930 . S
H547 C555 0.930 . S
H548 C558 0.930 . S
H549 C559 0.930 . S
C550 H544 0.930 . S
C550 C551 1.355 . S
C550 C552 1.415 . S
C551 C550 1.355 . S
C551 C553 1.419 . S
C552 C550 1.415 . S
C552 C557 1.425 . S
C552 C559 1.409 . S
C553 H545 0.930 . S
C553 C551 1.419 . S
C553 C554 1.362 . S
C554 H546 0.930 . S
C554 C553 1.362 . S
C554 C557 1.409 . S
C555 H547 0.930 . S
C555 C556 1.355 . S
C555 C557 1.415 . S
C556 C555 1.355 . S
C556 C558 1.419 . S
C557 C552 1.425 . S
C557 C554 1.409 . S
C557 C555 1.415 . S
C558 H548 0.930 . S
C558 C556 1.419 . S
C558 C559 1.362 . S
C559 H549 0.930 . S
C559 C552 1.409 . S
C559 C558 1.362 . S
H560 C566 0.930 . S
H561 C569 0.930 . S
H562 C570 0.930 . S
H563 C571 0.930 . S
H564 C574 0.930 . S
H565 C575 0.930 . S
C566 H560 0.930 . S
C566 C567 1.355 . S
C566 C568 1.415 . S
C567 C566 1.355 . S
C567 C569 1.419 . S
C568 C566 1.415 . S
C568 C573 1.425 . S
C568 C575 1.409 . S
C569 H561 0.930 . S
C569 C567 1.419 . S
C569 C570 1.362 . S
C570 H562 0.930 . S
C570 C569 1.362 . S
C570 C573 1.409 . S
C571 H563 0.930 . S
C571 C572 1.355 . S
C571 C573 1.415 . S
C572 C571 1.355 . S
C572 C574 1.419 . S
C573 C568 1.425 . S
C573 C570 1.409 . S
C573 C571 1.415 . S
C574 H564 0.930 . S
C574 C572 1.419 . S
C574 C575 1.362 . S
C575 H565 0.930 . S
C575 C568 1.409 . S
C575 C574 1.362 . S
H576 C582 0.930 . S
H577 C585 0.930 . S
H578 C586 0.930 . S
H579 C587 0.930 . S
H580 C590 0.930 . S
H581 C591 0.930 . S
C582 H576 0.930 . S
C582 C583 1.355 . S
C582 C584 1.415 . S
C583 C582 1.355 . S
C583 C585 1.419 . S
C584 C582 1.415 . S
C584 C589 1.425 . S
C584 C591 1.409 . S
C585 H577 0.930 . S
C585 C583 1.419 . S
C585 C586 1.362 . S
C586 H578 0.930 . S
C586 C585 1.362 . S
C586 C589 1.409 . S
C587 H579 0.930 . S
C587 C588 1.355 . S
C587 C589 1.415 . S
C588 C587 1.355 . S
C588 C590 1.419 1_556 S
C589 C584 1.425 . S
C589 C586 1.409 . S
C589 C587 1.415 . S
C590 H580 0.930 . S
C590 C588 1.419 1_554 S
C590 C591 1.362 1_554 S
C591 H581 0.930 . S
C591 C584 1.409 . S
C591 C590 1.362 1_556 S
H592 C598 0.930 . S
H593 C601 0.930 . S
H594 C602 0.930 . S
H595 C603 0.930 . S
H596 C606 0.930 . S
H597 C607 0.930 . S
C598 H592 0.930 . S
C598 C599 1.355 . S
C598 C600 1.415 . S
C599 C598 1.355 . S
C599 C601 1.419 . S
C600 C598 1.415 . S
C600 C605 1.425 . S
C600 C607 1.409 . S
C601 H593 0.930 . S
C601 C599 1.419 . S
C601 C602 1.362 . S
C602 H594 0.930 . S
C602 C601 1.362 . S
C602 C605 1.409 . S
C603 H595 0.930 . S
C603 C604 1.355 . S
C603 C605 1.415 . S
C604 C603 1.355 . S
C604 C606 1.419 . S
C605 C600 1.425 . S
C605 C602 1.409 . S
C605 C603 1.415 . S
C606 H596 0.930 . S
C606 C604 1.419 . S
C606 C607 1.362 . S
C607 H597 0.930 . S
C607 C600 1.409 . S
C607 C606 1.362 . S
H608 C614 0.930 . S
H609 C617 0.935 . S
H610 C618 0.930 . S
H611 C619 0.930 . S
H612 C622 0.930 . S
H613 C623 0.930 . S
C614 H608 0.930 . S
C614 C615 1.355 1_556 S
C614 C616 1.415 . S
C615 C614 1.355 1_554 S
C615 C617 1.420 . S
C616 C614 1.415 . S
C616 C621 1.425 . S
C616 C623 1.409 . S
C617 H609 0.935 . S
C617 C615 1.420 . S
C617 C618 1.356 1_554 S
C618 H610 0.930 . S
C618 C617 1.356 1_556 S
C618 C621 1.409 . S
C619 H611 0.930 . S
C619 C620 1.355 . S
C619 C621 1.415 . S
C620 C619 1.355 . S
C620 C622 1.419 . S
C621 C616 1.425 . S
C621 C618 1.409 . S
C621 C619 1.415 . S
C622 H612 0.930 . S
C622 C620 1.419 . S
C622 C623 1.362 . S
C623 H613 0.930 . S
C623 C616 1.409 . S
C623 C622 1.362 . S
H624 C630 0.930 . S
H625 C633 0.930 . S
H626 C634 0.930 . S
H627 C635 0.930 . S
H628 C638 0.930 . S
H629 C639 0.930 . S
C630 H624 0.930 . S
C630 C631 1.355 . S
C630 C632 1.415 . S
C631 C630 1.355 . S
C631 C633 1.419 . S
C632 C630 1.415 . S
C632 C637 1.425 . S
C632 C639 1.409 . S
C633 H625 0.930 . S
C633 C631 1.419 . S
C633 C634 1.362 . S
C634 H626 0.930 . S
C634 C633 1.362 . S
C634 C637 1.409 . S
C635 H627 0.930 . S
C635 C636 1.355 . S
C635 C637 1.415 . S
C636 C635 1.355 . S
C636 C638 1.419 . S
C637 C632 1.425 . S
C637 C634 1.409 . S
C637 C635 1.415 . S
C638 H628 0.930 . S
C638 C636 1.419 . S
C638 C639 1.362 . S
C639 H629 0.930 . S
C639 C632 1.409 . S
C639 C638 1.362 . S
H640 C646 0.930 . S
H641 C649 0.930 . S
H642 C650 0.930 . S
H643 C651 0.930 . S
H644 C654 0.930 . S
H645 C655 0.930 . S
C646 H640 0.930 . S
C646 C647 1.355 . S
C646 C648 1.415 . S
C647 C646 1.355 . S
C647 C649 1.419 . S
C648 C646 1.415 . S
C648 C653 1.425 . S
C648 C655 1.409 . S
C649 H641 0.930 . S
C649 C647 1.419 . S
C649 C650 1.362 . S
C650 H642 0.930 . S
C650 C649 1.362 . S
C650 C653 1.409 . S
C651 H643 0.930 . S
C651 C652 1.355 . S
C651 C653 1.415 . S
C652 C651 1.355 . S
C652 C654 1.419 . S
C653 C648 1.425 . S
C653 C650 1.409 . S
C653 C651 1.415 . S
C654 H644 0.930 . S
C654 C652 1.419 . S
C654 C655 1.362 . S
C655 H645 0.930 . S
C655 C648 1.409 . S
C655 C654 1.362 . S
H656 C662 0.930 . S
H657 C665 0.930 1_545 S
H658 C666 0.930 . S
H659 C667 0.930 . S
H660 C670 0.930 . S
H661 C671 0.930 . S
C662 H656 0.930 . S
C662 C663 1.355 . S
C662 C664 1.415 . S
C663 C662 1.355 . S
C663 C665 1.419 . S
C664 C662 1.415 . S
C664 C669 1.425 . S
C664 C671 1.409 . S
C665 H657 0.930 1_565 S
C665 C663 1.419 . S
C665 C666 1.362 . S
C666 H658 0.930 . S
C666 C665 1.362 . S
C666 C669 1.409 . S
C667 H659 0.930 . S
C667 C668 1.355 . S
C667 C669 1.415 . S
C668 C667 1.355 . S
C668 C670 1.419 . S
C669 C664 1.425 . S
C669 C666 1.409 . S
C669 C667 1.415 . S
C670 H660 0.930 . S
C670 C668 1.419 . S
C670 C671 1.362 . S
C671 H661 0.930 . S
C671 C664 1.409 . S
C671 C670 1.362 . S
H672 C678 0.930 . S
H673 C681 0.930 . S
H674 C682 0.930 . S
H675 C683 0.930 . S
H676 C686 0.930 . S
H677 C687 0.930 . S
C678 H672 0.930 . S
C678 C679 1.355 . S
C678 C680 1.415 . S
C679 C678 1.355 . S
C679 C681 1.419 . S
C680 C678 1.415 . S
C680 C685 1.425 . S
C680 C687 1.409 . S
C681 H673 0.930 . S
C681 C679 1.419 . S
C681 C682 1.362 . S
C682 H674 0.930 . S
C682 C681 1.362 . S
C682 C685 1.409 . S
C683 H675 0.930 . S
C683 C684 1.355 . S
C683 C685 1.415 . S
C684 C683 1.355 . S
C684 C686 1.419 . S
C685 C680 1.425 . S
C685 C682 1.409 . S
C685 C683 1.415 . S
C686 H676 0.930 . S
C686 C684 1.419 . S
C686 C687 1.362 . S
C687 H677 0.930 . S
C687 C680 1.409 . S
C687 C686 1.362 . S
H688 C694 0.930 . S
H689 C697 0.930 . S
H690 C698 0.930 . S
H691 C699 0.930 . S
H692 C702 0.930 . S
H693 C703 0.930 . S
C694 H688 0.930 . S
C694 C695 1.355 . S
C694 C696 1.415 . S
C695 C694 1.355 . S
C695 C697 1.419 . S
C696 C694 1.415 . S
C696 C701 1.425 . S
C696 C703 1.409 . S
C697 H689 0.930 . S
C697 C695 1.419 . S
C697 C698 1.362 . S
C698 H690 0.930 . S
C698 C697 1.362 . S
C698 C701 1.409 . S
C699 H691 0.930 . S
C699 C700 1.355 . S
C699 C701 1.415 . S
C700 C699 1.355 . S
C700 C702 1.419 . S
C701 C696 1.425 . S
C701 C698 1.409 . S
C701 C699 1.415 . S
C702 H692 0.930 . S
C702 C700 1.419 . S
C702 C703 1.362 . S
C703 H693 0.930 . S
C703 C696 1.409 . S
C703 C702 1.362 . S
H704 C710 0.930 . S
H705 C713 0.930 . S
H706 C714 0.930 . S
H707 C715 0.930 . S
H708 C718 0.930 . S
H709 C719 0.930 . S
C710 H704 0.930 . S
C710 C711 1.355 . S
C710 C712 1.415 . S
C711 C710 1.355 . S
C711 C713 1.419 . S
C712 C710 1.415 . S
C712 C717 1.425 . S
C712 C719 1.409 . S
C713 H705 0.930 . S
C713 C711 1.419 . S
C713 C714 1.362 . S
C714 H706 0.930 . S
C714 C713 1.362 . S
C714 C717 1.409 . S
C715 H707 0.930 . S
C715 C716 1.355 . S
C715 C717 1.415 . S
C716 C715 1.355 . S
C716 C718 1.419 . S
C717 C712 1.425 . S
C717 C714 1.409 . S
C717 C715 1.415 . S
C718 H708 0.930 . S
C718 C716 1.419 . S
C718 C719 1.362 . S
C719 H709 0.930 . S
C719 C712 1.409 . S
C719 C718 1.362 . S
H720 C726 0.930 . S
H721 C729 0.930 1_554 S
H722 C730 0.930 . S
H723 C731 0.938 . S
H724 C734 0.930 . S
H725 C735 0.930 . S
C726 H720 0.930 . S
C726 C727 1.355 . S
C726 C728 1.415 . S
C727 C726 1.355 . S
C727 C729 1.419 . S
C728 C726 1.415 . S
C728 C733 1.425 . S
C728 C735 1.409 . S
C729 H721 0.930 1_556 S
C729 C727 1.419 . S
C729 C730 1.362 . S
C730 H722 0.930 . S
C730 C729 1.362 . S
C730 C733 1.409 . S
C731 H723 0.938 . S
C731 C732 1.355 . S
C731 C733 1.415 . S
C732 C731 1.355 . S
C732 C734 1.419 . S
C733 C728 1.425 . S
C733 C730 1.409 . S
C733 C731 1.415 . S
C734 H724 0.930 . S
C734 C732 1.419 . S
C734 C735 1.362 . S
C735 H725 0.930 . S
C735 C728 1.409 . S
C735 C734 1.362 . S
C231 C12 1.170 . S
C236 C179 1.140 . S
C247 C18 1.191 . S
C252 C82 1.224 . S
C263 C32 1.145 . S
C268 C207 1.135 . S
C279 C110 1.179 . S
C284 C54 1.180 . S
C295 C208 1.204 . S
C300 C40 1.208 . S
C311 C109 1.091 . S
C316 C46 1.085 . S
C327 C180 1.223 . S
C332 C4 1.246 . S
C343 C81 1.135 . S
C348 C26 1.153 . S
C359 C67 1.195 . S
C364 C124 1.181 . S
C375 C95 1.154 . S
C380 C144 1.149 . S
C391 C152 1.217 . S
C396 C96 1.213 . S
C407 C68 1.251 . S
C412 C116 1.231 . S
C423 C194 1.197 . S
C428 C130 1.224 . S
C439 C166 1.187 . S
C444 C222 1.192 . S
C455 C158 1.152 . S
C460 C221 1.147 . S
C471 C138 1.192 . S
C476 C193 1.189 . S
C487 C159 1.259 . S
C492 C11 1.496 . S
C503 C117 1.325 . S
C508 C19 1.293 . S
C519 C33 1.316 . S
C524 C137 1.493 . S
C535 C151 1.492 1_556 S
C540 C53 1.477 . S
C551 C165 1.497 . S
C556 C39 1.519 . S
C567 C47 1.383 . S
C572 C123 1.459 . S
C583 C131 1.299 . S
C588 C5 1.340 1_556 S
C599 C145 1.379 . S
C604 C25 1.463 . S
C615 C61 1.393 . S
C620 C215 1.273 . S
C631 C172 1.478 . S
C636 C74 1.464 . S
C647 C89 1.328 . S
C652 C187 1.307 . S
C663 C102 1.456 . S
C668 C200 1.417 . S
C679 C88 1.485 . S
C684 C214 1.459 . S
C695 C173 1.301 . S
C700 C103 1.405 . S
C711 C186 1.476 . S
C716 C60 1.436 . S
C727 C201 1.399 1_556 S
C732 C75 1.268 . S
