# Generated by pormake.
# Topology upa, (4)-cn, num edge types: 1
# Building blocks:
#     Node 0, Type 0, BuildingBlock: UXUYUI_clean_sbu_0, # of connection points: 4
#     Node 1, Type 0, BuildingBlock: UXUYUI_clean_sbu_0, # of connection points: 4
#     Node 2, Type 0, BuildingBlock: UXUYUI_clean_sbu_0, # of connection points: 4
#     Node 3, Type 0, BuildingBlock: UXUYUI_clean_sbu_0, # of connection points: 4
#     Node 4, Type 0, BuildingBlock: UXUYUI_clean_sbu_0, # of connection points: 4
#     Node 5, Type 0, BuildingBlock: UXUYUI_clean_sbu_0, # of connection points: 4
#     Node 6, Type 0, BuildingBlock: UXUYUI_clean_sbu_0, # of connection points: 4
#     Node 7, Type 0, BuildingBlock: UXUYUI_clean_sbu_0, # of connection points: 4
#     Edge 8, Type (0, 0), None
#     Edge 9, Type (0, 0), None
#     Edge 10, Type (0, 0), None
#     Edge 11, Type (0, 0), None
#     Edge 12, Type (0, 0), None
#     Edge 13, Type (0, 0), None
#     Edge 14, Type (0, 0), None
#     Edge 15, Type (0, 0), None
#     Edge 16, Type (0, 0), None
#     Edge 17, Type (0, 0), None
#     Edge 18, Type (0, 0), None
#     Edge 19, Type (0, 0), None
#     Edge 20, Type (0, 0), None
#     Edge 21, Type (0, 0), None
#     Edge 22, Type (0, 0), None
#     Edge 23, Type (0, 0), None
# Relax obj value: 0.344
# Max RMSD: 0.248
# Mean RMSD: 0.248
data_MOF--net-upa--node1-UXUYUI_clean_sbu_0--edge1-none
_symmetry_space_group_name_H-M    P1
_symmetry_Int_Tables_number       1
_symmetry_cell_setting            triclinic
loop_
_symmetry_equiv_pos_as_xyz
'x, y, z'
_cell_length_a     24.160915
_cell_length_b     23.83263
_cell_length_c     39.053669
_cell_angle_alpha  89.999942
_cell_angle_beta   89.999997
_cell_angle_gamma 90.000166
loop_
_atom_site_label
_atom_site_type_symbol
_atom_site_fract_x
_atom_site_fract_y
_atom_site_fract_z
_atom_type_partial_charge
Li0 Li 0.16102 0.2434 0.31796 0.0
Li1 Li 0.2033 0.22286 0.375 0.0
Li2 Li 0.25478 0.20637 0.31892 0.0
Li3 Li 0.17384 0.14959 0.33255 0.0
C4 C 0.21188 0.3361 0.34301 0.0
N5 N 0.17927 0.447 0.34975 0.0
C6 C 0.19379 0.35665 0.37462 0.0
C7 C 0.21408 0.37256 0.3149 0.0
C8 C 0.17721 0.41261 0.37748 0.0
C9 C 0.19731 0.42832 0.31882 0.0
C10 C 0.0775 0.22334 0.36271 0.0
C11 C 0.97967 0.21904 0.35044 0.0
N12 N 0.97145 0.26523 0.37024 0.0
C13 C 0.06792 0.27033 0.38327 0.0
C14 C 0.03288 0.19705 0.34649 0.0
C15 C 0.01409 0.29101 0.38665 0.0
C16 C 0.07562 0.24141 0.27298 0.0
N17 N 0.1001 0.27964 0.29393 0.0
C18 C 0.02356 0.34251 0.2855 0.0
C19 C 0.07519 0.32983 0.30041 0.0
C20 C 0.9971 0.30283 0.26419 0.0
C21 C 0.0246 0.25204 0.25789 0.0
H22 H 0.09352 0.20033 0.27 0.0
H23 H 0.09352 0.35869 0.31848 0.0
C24 C 0.25819 0.2527 0.43821 0.0
N25 N 0.21113 0.23215 0.42371 0.0
C26 C 0.26514 0.2514 0.4739 0.0
C27 C 0.17494 0.20851 0.47885 0.0
C28 C 0.16972 0.21071 0.44327 0.0
C29 C 0.22357 0.22799 0.4947 0.0
H30 H 0.29102 0.26851 0.42203 0.0
H31 H 0.1332 0.19362 0.43114 0.0
C32 C 0.2053 0.20394 0.25598 0.0
N33 N 0.22799 0.24563 0.19136 0.0
C34 C 0.18604 0.17592 0.22684 0.0
C35 C 0.23659 0.25277 0.2521 0.0
C36 C 0.19774 0.19777 0.19444 0.0
C37 C 0.24758 0.27328 0.2193 0.0
C38 C 0.25656 0.10017 0.36427 0.0
C39 C 0.27283 0.06588 0.33706 0.0
C40 C 0.25145 0.07757 0.39713 0.0
C41 C 0.28355 0.00915 0.34318 0.0
C42 C 0.26257 0.02064 0.4022 0.0
N43 N 0.27822 0.9879 0.37535 0.0
C44 C 0.36882 0.22964 0.32122 0.0
C45 C 0.34417 0.17712 0.27213 0.0
C46 C 0.42408 0.23116 0.31067 0.0
N47 N 0.32991 0.20389 0.30167 0.0
C48 C 0.39892 0.17861 0.2602 0.0
C49 C 0.43981 0.20683 0.27924 0.0
H50 H 0.35675 0.24945 0.34501 0.0
H51 H 0.3129 0.1555 0.25736 0.0
C52 C 0.11375 0.05783 0.35858 0.0
N53 N 0.13118 0.08373 0.32956 0.0
C54 C 0.06525 0.02591 0.35825 0.0
C55 C 0.05443 0.04752 0.29817 0.0
C56 C 0.10394 0.07738 0.29943 0.0
C57 C 0.03319 0.02272 0.32812 0.0
H58 H 0.13476 0.06567 0.38254 0.0
H59 H 0.11736 0.10049 0.27721 0.0
O60 O 0.22828 0.28114 0.33994 0.0
O61 O 0.13023 0.20336 0.35837 0.0
O62 O 0.19362 0.18335 0.288 0.0
O63 O 0.24496 0.15549 0.35865 0.0
H64 H 0.19257 0.32988 0.39685 0.0
H65 H 0.22835 0.35856 0.29019 0.0
H66 H 0.16286 0.42873 0.40181 0.0
H67 H 0.19859 0.45673 0.29722 0.0
H68 H 0.94493 0.19947 0.33767 0.0
H69 H 0.10164 0.29073 0.39647 0.0
H70 H 0.03926 0.16062 0.33056 0.0
H71 H 0.00622 0.32758 0.40232 0.0
H72 H 1.00406 0.38225 0.29135 0.0
H73 H 0.00558 0.21891 0.24303 0.0
H74 H 0.30344 0.26655 0.48494 0.0
H75 H 0.14137 0.19095 0.49377 0.0
H76 H 0.16215 0.13776 0.22913 0.0
H77 H 0.25355 0.27367 0.27416 0.0
H78 H 0.18284 0.17663 0.17173 0.0
H79 H 0.27197 0.31097 0.21606 0.0
H80 H 0.27669 0.08285 0.31145 0.0
H81 H 0.23874 0.10367 0.41841 0.0
H82 H 0.29599 0.982 0.32236 0.0
H83 H 0.25866 1.00246 0.42746 0.0
H84 H 0.45401 0.25201 0.3269 0.0
H85 H 0.40851 0.15947 0.23578 0.0
H86 H 0.05202 1.00621 0.38182 0.0
H87 H 0.03151 0.04756 0.27438 0.0
Li88 Li 0.30601 0.75779 0.82179 0.0
Li89 Li 0.28732 0.70522 0.87744 0.0
Li90 Li 0.3575 0.67367 0.83765 0.0
Li91 Li 0.26248 0.66064 0.82118 0.0
C92 C 0.40812 0.75341 0.87241 0.0
N93 N 0.51732 0.76507 0.89226 0.0
C94 C 0.42572 0.73276 0.90408 0.0
C95 C 0.4459 0.78076 0.85107 0.0
C96 C 0.48113 0.73883 0.91359 0.0
C97 C 0.50097 0.78605 0.8615 0.0
C98 C 0.17806 0.72346 0.85176 0.0
C99 C 0.11039 0.67154 0.88425 0.0
N100 N 0.06971 0.70473 0.87122 0.0
C101 C 0.13564 0.75706 0.83869 0.0
C102 C 0.16545 0.68038 0.87476 0.0
C103 C 0.0811 0.74694 0.84886 0.0
C104 C 0.2924 0.84172 0.76916 0.0
N105 N 0.30836 0.83251 0.80209 0.0
C106 C 0.33012 0.93016 0.80897 0.0
C107 C 0.32712 0.87541 0.82197 0.0
C108 C 0.31395 0.94113 0.77503 0.0
C109 C 0.29504 0.89577 0.75505 0.0
H110 H 0.2776 0.80703 0.75381 0.0
H111 H 0.33975 0.8671 0.84806 0.0
C112 C 0.29589 0.66911 0.94489 0.0
N113 N 0.27519 0.71205 0.92594 0.0
C114 C 0.29833 0.67294 0.9805 0.0
C115 C 0.25646 0.76475 0.97697 0.0
C116 C 0.2549 0.75914 0.94116 0.0
C117 C 0.27974 0.72176 0.99709 0.0
H118 H 0.31324 0.63289 0.93222 0.0
H119 H 0.23965 0.79324 0.92549 0.0
C120 C 0.36115 0.69066 0.76615 0.0
N121 N 0.43687 0.68937 0.71298 0.0
C122 C 0.36585 0.64344 0.74501 0.0
C123 C 0.3949 0.73723 0.76002 0.0
C124 C 0.40441 0.6436 0.71834 0.0
C125 C 0.43292 0.73578 0.73309 0.0
C126 C 0.30504 0.57152 0.85786 0.0
C127 C 0.32653 0.54828 0.82778 0.0
C128 C 0.28744 0.53602 0.8842 0.0
C129 C 0.3306 0.49006 0.82467 0.0
C130 C 0.29209 0.47796 0.88009 0.0
N131 N 0.31344 0.45638 0.85068 0.0
C132 C 0.42942 0.60276 0.8699 0.0
C133 C 0.45712 0.61852 0.81254 0.0
C134 C 0.46173 0.5545 0.87175 0.0
N135 N 0.42502 0.63161 0.83998 0.0
C136 C 0.49042 0.57064 0.81332 0.0
C137 C 0.4907 0.53641 0.84265 0.0
H138 H 0.40329 0.6138 0.89134 0.0
H139 H 0.45462 0.64276 0.78936 0.0
C140 C 0.22604 0.59706 0.76398 0.0
N141 N 0.21758 0.60426 0.79813 0.0
C142 C 0.21613 0.54486 0.7486 0.0
C143 C 0.18287 0.51033 0.80289 0.0
C144 C 0.19311 0.56329 0.81715 0.0
C145 C 0.19704 0.49965 0.76856 0.0
H146 H 0.24515 0.63021 0.74927 0.0
H147 H 0.18693 0.56951 0.8443 0.0
O148 O 0.35419 0.74703 0.86242 0.0
O149 O 0.2316 0.73282 0.84195 0.0
O150 O 0.3231 0.6917 0.7922 0.0
O151 O 0.30057 0.62863 0.8614 0.0
H152 H 0.39706 0.71184 0.92105 0.0
H153 H 0.43289 0.798 0.8268 0.0
H154 H 0.49537 0.72265 0.93793 0.0
H155 H 0.53068 0.80694 0.84515 0.0
H156 H 0.1 0.63828 0.90197 0.0
H157 H 0.1448 0.7906 0.82087 0.0
H158 H 0.19773 0.6539 0.8851 0.0
H159 H 0.04785 0.77267 0.83899 0.0
H160 H 0.34517 0.96353 0.82532 0.0
H161 H 0.28114 0.90214 0.72898 0.0
H162 H 0.3158 0.63833 0.99485 0.0
H163 H 0.24191 0.80326 0.9886 0.0
H164 H 0.34067 0.60666 0.74927 0.0
H165 H 0.39184 0.77422 0.77578 0.0
H166 H 0.40862 0.60725 0.70196 0.0
H167 H 0.45924 0.77159 0.72816 0.0
H168 H 0.33979 0.57497 0.80702 0.0
H169 H 0.26981 0.55302 0.90745 0.0
H170 H 0.34721 0.47166 0.80152 0.0
H171 H 0.27856 0.45004 0.90026 0.0
H172 H 0.46085 0.52974 0.89498 0.0
H173 H 0.51405 0.55945 0.79076 0.0
H174 H 0.22746 0.53895 0.72203 0.0
H175 H 0.16694 0.47723 0.81912 0.0
Li176 Li 0.84966 0.7747 0.31796 0.0
Li177 Li 0.80739 0.79524 0.37501 0.0
Li178 Li 0.75591 0.81173 0.31892 0.0
Li179 Li 0.83684 0.86851 0.33255 0.0
C180 C 0.79881 0.68199 0.34302 0.0
N181 N 0.83143 0.5711 0.34975 0.0
C182 C 0.8169 0.66145 0.37463 0.0
C183 C 0.79661 0.64553 0.3149 0.0
C184 C 0.83348 0.60549 0.37749 0.0
C185 C 0.81338 0.58978 0.31882 0.0
C186 C 0.93319 0.79477 0.36271 0.0
C187 C 0.03102 0.79908 0.35044 0.0
N188 N 0.03924 0.75289 0.37024 0.0
C189 C 0.94276 0.74777 0.38328 0.0
C190 C 0.9778 0.82106 0.34649 0.0
C191 C 0.9966 0.7271 0.38666 0.0
C192 C 0.93507 0.7767 0.27298 0.0
N193 N 0.91059 0.73847 0.29393 0.0
C194 C 0.98713 0.67559 0.2855 0.0
C195 C 0.9355 0.68827 0.30041 0.0
C196 C 0.01358 0.71527 0.26419 0.0
C197 C 0.98609 0.76606 0.2579 0.0
H198 H 0.91717 0.81777 0.27 0.0
H199 H 0.91717 0.65941 0.31848 0.0
C200 C 0.75249 0.7654 0.43822 0.0
N201 N 0.79956 0.78595 0.42371 0.0
C202 C 0.74554 0.7667 0.4739 0.0
C203 C 0.83574 0.80959 0.47885 0.0
C204 C 0.84096 0.80739 0.44328 0.0
C205 C 0.78711 0.79011 0.4947 0.0
H206 H 0.71967 0.74959 0.42203 0.0
H207 H 0.87748 0.82448 0.43114 0.0
C208 C 0.80539 0.81415 0.25598 0.0
N209 N 0.78271 0.77246 0.19137 0.0
C210 C 0.82465 0.84217 0.22684 0.0
C211 C 0.7741 0.76532 0.2521 0.0
C212 C 0.81295 0.82031 0.19444 0.0
C213 C 0.76312 0.74481 0.2193 0.0
C214 C 0.75413 0.91793 0.36427 0.0
C215 C 0.73785 0.95222 0.33706 0.0
C216 C 0.75923 0.94053 0.39713 0.0
C217 C 0.72713 1.00894 0.34318 0.0
C218 C 0.74811 0.99746 0.4022 0.0
N219 N 0.73246 0.03019 0.37535 0.0
C220 C 0.64186 0.78845 0.32122 0.0
C221 C 0.66652 0.84097 0.27213 0.0
C222 C 0.58661 0.78694 0.31067 0.0
N223 N 0.68077 0.8142 0.30167 0.0
C224 C 0.61177 0.83948 0.2602 0.0
C225 C 0.57088 0.81126 0.27923 0.0
H226 H 0.65394 0.76864 0.34501 0.0
H227 H 0.69779 0.86259 0.25736 0.0
C228 C 0.89693 0.96027 0.35858 0.0
N229 N 0.8795 0.93437 0.32956 0.0
C230 C 0.94543 0.99219 0.35825 0.0
C231 C 0.95624 0.97058 0.29816 0.0
C232 C 0.90673 0.94072 0.29944 0.0
C233 C 0.97749 0.99538 0.32812 0.0
H234 H 0.87592 0.95243 0.38254 0.0
H235 H 0.89332 0.91761 0.27721 0.0
O236 O 0.78241 0.73696 0.33994 0.0
O237 O 0.88045 0.81474 0.35837 0.0
O238 O 0.81706 0.83474 0.288 0.0
O239 O 0.76572 0.86261 0.35865 0.0
H240 H 0.81812 0.68822 0.39685 0.0
H241 H 0.78234 0.65954 0.2902 0.0
H242 H 0.84784 0.58937 0.40181 0.0
H243 H 0.8121 0.56137 0.29723 0.0
H244 H 0.06575 0.81865 0.33768 0.0
H245 H 0.90905 0.72738 0.39647 0.0
H246 H 0.97142 0.85749 0.33056 0.0
H247 H 1.00448 0.69053 0.40232 0.0
H248 H 0.00663 0.63585 0.29135 0.0
H249 H 1.00511 0.7992 0.24304 0.0
H250 H 0.70724 0.75155 0.48494 0.0
H251 H 0.86931 0.82715 0.49378 0.0
H252 H 0.84854 0.88033 0.22913 0.0
H253 H 0.75714 0.74443 0.27416 0.0
H254 H 0.82786 0.84146 0.17173 0.0
H255 H 0.73872 0.70712 0.21606 0.0
H256 H 0.73398 0.93525 0.31145 0.0
H257 H 0.77194 0.91442 0.41841 0.0
H258 H 0.71469 0.0361 0.32236 0.0
H259 H 0.75202 0.01563 0.42746 0.0
H260 H 0.55668 0.76609 0.3269 0.0
H261 H 0.60218 0.85862 0.23578 0.0
H262 H 0.95867 0.01188 0.38182 0.0
H263 H 0.97916 0.97055 0.27438 0.0
Li264 Li 0.7482 0.35746 0.82119 0.0
Li265 Li 0.65318 0.34443 0.83765 0.0
Li266 Li 0.72336 0.31288 0.87744 0.0
Li267 Li 0.70466 0.26031 0.82179 0.0
C268 C 0.70564 0.44658 0.85787 0.0
N269 N 0.69724 0.56172 0.85069 0.0
C270 C 0.68414 0.46982 0.82778 0.0
C271 C 0.72324 0.48208 0.8842 0.0
C272 C 0.68008 0.52804 0.82467 0.0
C273 C 0.71859 0.54014 0.8801 0.0
C274 C 0.64953 0.32744 0.76616 0.0
C275 C 0.57776 0.28232 0.73309 0.0
N276 N 0.57381 0.32873 0.71299 0.0
C277 C 0.64483 0.37466 0.74501 0.0
C278 C 0.61578 0.28087 0.76002 0.0
C279 C 0.60627 0.3745 0.71834 0.0
C280 C 0.78464 0.42104 0.76398 0.0
N281 N 0.7931 0.41385 0.79813 0.0
C282 C 0.8278 0.50777 0.80289 0.0
C283 C 0.81757 0.45481 0.81716 0.0
C284 C 0.81364 0.51845 0.76856 0.0
C285 C 0.79455 0.47324 0.74861 0.0
H286 H 0.76553 0.38789 0.74927 0.0
H287 H 0.82374 0.44859 0.8443 0.0
C288 C 0.58125 0.41534 0.8699 0.0
N289 N 0.58566 0.38649 0.83998 0.0
C290 C 0.54895 0.4636 0.87175 0.0
C291 C 0.52026 0.44746 0.81332 0.0
C292 C 0.55355 0.39958 0.81254 0.0
C293 C 0.51998 0.48169 0.84265 0.0
H294 H 0.60739 0.4043 0.89134 0.0
H295 H 0.55606 0.37534 0.78936 0.0
C296 C 0.83262 0.29464 0.85177 0.0
N297 N 0.94097 0.31337 0.87123 0.0
C298 C 0.87504 0.26104 0.8387 0.0
C299 C 0.84523 0.33772 0.87476 0.0
C300 C 0.92958 0.27116 0.84886 0.0
C301 C 0.90029 0.34656 0.88425 0.0
C302 C 0.60256 0.26469 0.87241 0.0
C303 C 0.58496 0.28534 0.90409 0.0
C304 C 0.56478 0.23734 0.85107 0.0
C305 C 0.52954 0.27927 0.9136 0.0
C306 C 0.50971 0.23205 0.8615 0.0
N307 N 0.49336 0.25303 0.89227 0.0
C308 C 0.71479 0.34899 0.9449 0.0
C309 C 0.75578 0.25896 0.94116 0.0
C310 C 0.71235 0.34516 0.9805 0.0
N311 N 0.73549 0.30605 0.92594 0.0
C312 C 0.75422 0.25335 0.97697 0.0
C313 C 0.73094 0.29634 0.99709 0.0
H314 H 0.69744 0.38521 0.93222 0.0
H315 H 0.77103 0.22487 0.92549 0.0
C316 C 0.71828 0.17638 0.76916 0.0
N317 N 0.70232 0.18559 0.80209 0.0
C318 C 0.71563 0.12233 0.75505 0.0
C319 C 0.68056 0.08794 0.80897 0.0
C320 C 0.68356 0.14269 0.82197 0.0
C321 C 0.69672 0.07697 0.77503 0.0
H322 H 0.73307 0.21107 0.75381 0.0
H323 H 0.67093 0.151 0.84806 0.0
O324 O 0.71011 0.38947 0.8614 0.0
O325 O 0.68758 0.3264 0.7922 0.0
O326 O 0.77908 0.28528 0.84196 0.0
O327 O 0.65649 0.27107 0.86242 0.0
H328 H 0.67089 0.44313 0.80702 0.0
H329 H 0.74087 0.46508 0.90745 0.0
H330 H 0.66347 0.54644 0.80153 0.0
H331 H 0.73212 0.56806 0.90027 0.0
H332 H 0.55143 0.24651 0.72816 0.0
H333 H 0.67001 0.41144 0.74927 0.0
H334 H 0.61884 0.24388 0.77578 0.0
H335 H 0.60206 0.41085 0.70196 0.0
H336 H 0.84374 0.54087 0.81913 0.0
H337 H 0.78322 0.47915 0.72203 0.0
H338 H 0.54982 0.48837 0.89498 0.0
H339 H 0.49663 0.45865 0.79077 0.0
H340 H 0.86588 0.22751 0.82087 0.0
H341 H 0.81295 0.3642 0.88511 0.0
H342 H 0.96283 0.24544 0.83899 0.0
H343 H 0.91068 0.37982 0.90197 0.0
H344 H 0.61362 0.30626 0.92105 0.0
H345 H 0.57779 0.2201 0.82681 0.0
H346 H 0.51531 0.29545 0.93793 0.0
H347 H 0.48 0.21117 0.84516 0.0
H348 H 0.69488 0.37977 0.99485 0.0
H349 H 0.76877 0.21484 0.98861 0.0
H350 H 0.72954 0.11596 0.72898 0.0
H351 H 0.66551 0.05457 0.82533 0.0
Li352 Li 0.67384 0.36851 0.19703 0.0
Li353 Li 0.75478 0.31173 0.21066 0.0
Li354 Li 0.7033 0.29524 0.15458 0.0
Li355 Li 0.66102 0.2747 0.21162 0.0
C356 C 0.75656 0.41793 0.16531 0.0
N357 N 0.77823 0.5302 0.15424 0.0
C358 C 0.77284 0.45222 0.19253 0.0
C359 C 0.75146 0.44053 0.13246 0.0
C360 C 0.78355 0.50894 0.18641 0.0
C361 C 0.76258 0.49746 0.12739 0.0
C362 C 0.7053 0.31415 0.2736 0.0
C363 C 0.74757 0.24482 0.31028 0.0
N364 N 0.72798 0.27246 0.33822 0.0
C365 C 0.68604 0.34217 0.30274 0.0
C366 C 0.73659 0.26533 0.27748 0.0
C367 C 0.69774 0.32032 0.33515 0.0
C368 C 0.61375 0.46027 0.171 0.0
N369 N 0.63118 0.43437 0.20002 0.0
C370 C 0.55443 0.47058 0.23142 0.0
C371 C 0.60394 0.44072 0.23015 0.0
C372 C 0.53319 0.49538 0.20146 0.0
C373 C 0.56525 0.49219 0.17134 0.0
H374 H 0.63477 0.45243 0.14704 0.0
H375 H 0.61736 0.41761 0.25238 0.0
C376 C 0.86882 0.28846 0.20836 0.0
N377 N 0.82991 0.31421 0.22791 0.0
C378 C 0.92408 0.28694 0.21891 0.0
C379 C 0.89892 0.33948 0.26939 0.0
C380 C 0.84417 0.34097 0.25746 0.0
C381 C 0.93981 0.31126 0.25035 0.0
H382 H 0.85674 0.26865 0.18458 0.0
H383 H 0.8129 0.36259 0.27222 0.0
C384 C 0.5775 0.29477 0.16687 0.0
N385 N 0.47145 0.25288 0.15935 0.0
C386 C 0.56792 0.24777 0.14631 0.0
C387 C 0.53288 0.32105 0.18309 0.0
C388 C 0.51408 0.2271 0.14293 0.0
C389 C 0.47967 0.29907 0.17914 0.0
C390 C 0.71188 0.182 0.18657 0.0
C391 C 0.69379 0.16145 0.15496 0.0
C392 C 0.71408 0.14553 0.21468 0.0
C393 C 0.67721 0.10549 0.1521 0.0
C394 C 0.69732 0.08978 0.21076 0.0
N395 N 0.67927 0.0711 0.17983 0.0
C396 C 0.7582 0.2654 0.09137 0.0
C397 C 0.66972 0.30739 0.08631 0.0
C398 C 0.76514 0.2667 0.05568 0.0
N399 N 0.71113 0.28595 0.10588 0.0
C400 C 0.67495 0.3096 0.05073 0.0
C401 C 0.72357 0.29012 0.03488 0.0
H402 H 0.79102 0.24959 0.10756 0.0
H403 H 0.6332 0.32449 0.09844 0.0
C404 C 0.57561 0.27669 0.2566 0.0
N405 N 0.60009 0.23846 0.23566 0.0
C406 C 0.52459 0.26605 0.27169 0.0
C407 C 0.52356 0.17559 0.24408 0.0
C408 C 0.57519 0.18827 0.22918 0.0
C409 C 0.4971 0.21526 0.2654 0.0
H410 H 0.59352 0.31777 0.25958 0.0
H411 H 0.59352 0.15941 0.21111 0.0
O412 O 0.74496 0.36261 0.17093 0.0
O413 O 0.69362 0.33474 0.24158 0.0
O414 O 0.63023 0.31474 0.17122 0.0
O415 O 0.72828 0.23696 0.18965 0.0
H416 H 0.7767 0.43525 0.21813 0.0
H417 H 0.73875 0.41443 0.11117 0.0
H418 H 0.79599 0.53609 0.20723 0.0
H419 H 0.75867 0.51564 0.10212 0.0
H420 H 0.77196 0.20712 0.31353 0.0
H421 H 0.66214 0.38034 0.30046 0.0
H422 H 0.75354 0.24443 0.25542 0.0
H423 H 0.68283 0.34147 0.35786 0.0
H424 H 0.53151 0.47054 0.2552 0.0
H425 H 0.55202 0.51189 0.14777 0.0
H426 H 0.95401 0.26609 0.20268 0.0
H427 H 0.90851 0.35862 0.29381 0.0
H428 H 0.60164 0.22737 0.13311 0.0
H429 H 0.53926 0.35748 0.19903 0.0
H430 H 0.50621 0.19052 0.12727 0.0
H431 H 0.44493 0.31863 0.19191 0.0
H432 H 0.69256 0.18822 0.13274 0.0
H433 H 0.72836 0.15954 0.23939 0.0
H434 H 0.66285 0.08937 0.12777 0.0
H435 H 0.6986 0.06137 0.23236 0.0
H436 H 0.80345 0.25155 0.04465 0.0
H437 H 0.64137 0.32716 0.03581 0.0
H438 H 0.50558 0.29919 0.28655 0.0
H439 H 0.50406 0.13584 0.23824 0.0
Li440 Li 0.20466 0.25779 0.7078 0.0
Li441 Li 0.22336 0.20522 0.65214 0.0
Li442 Li 0.15318 0.17367 0.69193 0.0
Li443 Li 0.2482 0.16064 0.7084 0.0
C444 C 0.10256 0.25341 0.65717 0.0
N445 N 0.99336 0.26507 0.63732 0.0
C446 C 0.08496 0.23276 0.6255 0.0
C447 C 0.06478 0.28076 0.67851 0.0
C448 C 0.02954 0.23883 0.61599 0.0
C449 C 0.00971 0.28605 0.66809 0.0
C450 C 0.33262 0.22346 0.67782 0.0
C451 C 0.40029 0.17154 0.64533 0.0
N452 N 0.44097 0.20473 0.65836 0.0
C453 C 0.37504 0.25706 0.69089 0.0
C454 C 0.34523 0.18038 0.65482 0.0
C455 C 0.42958 0.24694 0.68072 0.0
C456 C 0.21828 0.34172 0.76042 0.0
N457 N 0.20232 0.33251 0.72749 0.0
C458 C 0.18056 0.43016 0.72061 0.0
C459 C 0.18356 0.37541 0.70761 0.0
C460 C 0.19673 0.44113 0.75455 0.0
C461 C 0.21563 0.39577 0.77453 0.0
H462 H 0.23307 0.30704 0.77577 0.0
H463 H 0.17093 0.3671 0.68152 0.0
C464 C 0.21478 0.16911 0.58469 0.0
N465 N 0.23549 0.21205 0.60364 0.0
C466 C 0.21234 0.17295 0.54908 0.0
C467 C 0.25422 0.26476 0.55262 0.0
C468 C 0.25578 0.25914 0.58842 0.0
C469 C 0.23093 0.22177 0.5325 0.0
H470 H 0.19744 0.1329 0.59736 0.0
H471 H 0.27103 0.29323 0.60409 0.0
C472 C 0.14953 0.19066 0.76343 0.0
N473 N 0.07381 0.18937 0.8166 0.0
C474 C 0.14483 0.14344 0.78457 0.0
C475 C 0.11578 0.23723 0.76956 0.0
C476 C 0.10627 0.1436 0.81124 0.0
C477 C 0.07777 0.23578 0.79649 0.0
C478 C 0.20563 0.07152 0.67172 0.0
C479 C 0.18414 0.04828 0.70181 0.0
C480 C 0.22323 0.03602 0.64538 0.0
C481 C 0.18008 0.99006 0.70491 0.0
C482 C 0.21859 0.97796 0.64949 0.0
N483 N 0.19724 0.95638 0.6789 0.0
C484 C 0.08125 0.10276 0.65968 0.0
C485 C 0.05355 0.11852 0.71704 0.0
C486 C 0.04895 0.0545 0.65784 0.0
N487 N 0.08566 0.13161 0.68961 0.0
C488 C 0.02026 0.07064 0.71627 0.0
C489 C 0.01998 0.03641 0.68693 0.0
H490 H 0.10739 0.1138 0.63825 0.0
H491 H 0.05606 0.14276 0.74022 0.0
C492 C 0.28464 0.09705 0.7656 0.0
N493 N 0.2931 0.10425 0.73146 0.0
C494 C 0.29455 0.04486 0.78098 0.0
C495 C 0.3278 0.01033 0.72669 0.0
C496 C 0.31757 0.06329 0.71243 0.0
C497 C 0.31363 0.99965 0.76102 0.0
H498 H 0.26553 0.13021 0.78031 0.0
H499 H 0.32374 0.06951 0.68528 0.0
O500 O 0.15649 0.24703 0.66717 0.0
O501 O 0.27908 0.23282 0.68763 0.0
O502 O 0.18758 0.1917 0.73739 0.0
O503 O 0.21011 0.12863 0.66818 0.0
H504 H 0.11362 0.21184 0.60853 0.0
H505 H 0.07779 0.298 0.70278 0.0
H506 H 0.01531 0.22265 0.59165 0.0
H507 H 0.98 0.30694 0.68443 0.0
H508 H 0.41068 0.13828 0.62761 0.0
H509 H 0.36588 0.29059 0.70872 0.0
H510 H 0.31295 0.1539 0.64448 0.0
H511 H 0.46283 0.27266 0.69059 0.0
H512 H 0.16551 0.46353 0.70426 0.0
H513 H 0.22954 0.40214 0.8006 0.0
H514 H 0.19487 0.13833 0.53473 0.0
H515 H 0.26877 0.30326 0.54098 0.0
H516 H 0.17 0.10666 0.78031 0.0
H517 H 0.11884 0.27422 0.75381 0.0
H518 H 0.10206 0.10725 0.82762 0.0
H519 H 0.05144 0.27159 0.80142 0.0
H520 H 0.17089 0.07497 0.72256 0.0
H521 H 0.24087 0.05302 0.62213 0.0
H522 H 0.16347 0.97166 0.72806 0.0
H523 H 0.23211 0.95004 0.62932 0.0
H524 H 0.04982 0.02974 0.6346 0.0
H525 H 0.99662 0.05945 0.73882 0.0
H526 H 0.28322 0.03895 0.80755 0.0
H527 H 0.34374 0.97723 0.71046 0.0
Li528 Li 0.25591 0.70637 0.21066 0.0
Li529 Li 0.33684 0.64959 0.19703 0.0
Li530 Li 0.34966 0.7434 0.21162 0.0
Li531 Li 0.30739 0.72285 0.15458 0.0
C532 C 0.30539 0.70395 0.2736 0.0
N533 N 0.28271 0.74564 0.33822 0.0
C534 C 0.32465 0.67593 0.30274 0.0
C535 C 0.2741 0.75277 0.27748 0.0
C536 C 0.31295 0.69778 0.33514 0.0
C537 C 0.26312 0.77328 0.31028 0.0
C538 C 0.25413 0.60017 0.16531 0.0
C539 C 0.24811 0.52064 0.12738 0.0
N540 N 0.23247 0.4879 0.15423 0.0
C541 C 0.23785 0.56588 0.19252 0.0
C542 C 0.25923 0.57757 0.13245 0.0
C543 C 0.22714 0.50915 0.1864 0.0
C544 C 0.14187 0.72965 0.20836 0.0
N545 N 0.18077 0.7039 0.22791 0.0
C546 C 0.11177 0.67862 0.26939 0.0
C547 C 0.16652 0.67712 0.25746 0.0
C548 C 0.07088 0.70685 0.25035 0.0
C549 C 0.08661 0.73117 0.21891 0.0
H550 H 0.15394 0.74946 0.18458 0.0
H551 H 0.19779 0.6555 0.27222 0.0
C552 C 0.39694 0.55783 0.171 0.0
N553 N 0.3795 0.58373 0.20002 0.0
C554 C 0.44544 0.52591 0.17134 0.0
C555 C 0.45625 0.54752 0.23142 0.0
C556 C 0.40674 0.57738 0.23015 0.0
C557 C 0.47749 0.52272 0.20146 0.0
H558 H 0.37592 0.56567 0.14704 0.0
H559 H 0.39332 0.60049 0.25237 0.0
C560 C 0.29881 0.8361 0.18657 0.0
N561 N 0.33142 0.947 0.17983 0.0
C562 C 0.3169 0.85665 0.15496 0.0
C563 C 0.29661 0.87257 0.21468 0.0
C564 C 0.33348 0.9126 0.15209 0.0
C565 C 0.31337 0.92832 0.21076 0.0
C566 C 0.43319 0.72333 0.16687 0.0
C567 C 0.44277 0.77032 0.1463 0.0
C568 C 0.4778 0.69705 0.18309 0.0
C569 C 0.4966 0.79099 0.14293 0.0
C570 C 0.53102 0.71903 0.17914 0.0
N571 N 0.53924 0.76521 0.15934 0.0
C572 C 0.43507 0.74141 0.2566 0.0
C573 C 0.4355 0.82983 0.22917 0.0
C574 C 0.48609 0.75204 0.27168 0.0
N575 N 0.41059 0.77964 0.23565 0.0
C576 C 0.48713 0.84251 0.24408 0.0
C577 C 0.51358 0.80283 0.26539 0.0
H578 H 0.41717 0.70033 0.25958 0.0
H579 H 0.41717 0.85869 0.2111 0.0
C580 C 0.25249 0.7527 0.09137 0.0
N581 N 0.29956 0.73215 0.10587 0.0
C582 C 0.24554 0.7514 0.05568 0.0
C583 C 0.33574 0.7085 0.05073 0.0
C584 C 0.34096 0.71071 0.08631 0.0
C585 C 0.28711 0.72798 0.03488 0.0
H586 H 0.21967 0.76851 0.10755 0.0
H587 H 0.37748 0.69361 0.09844 0.0
O588 O 0.31706 0.68335 0.24158 0.0
O589 O 0.26572 0.65549 0.17093 0.0
O590 O 0.28241 0.78114 0.18964 0.0
O591 O 0.38046 0.70336 0.17121 0.0
H592 H 0.34854 0.63776 0.30045 0.0
H593 H 0.25714 0.77367 0.25542 0.0
H594 H 0.32786 0.67664 0.35785 0.0
H595 H 0.23872 0.81098 0.31352 0.0
H596 H 0.25203 0.50246 0.10212 0.0
H597 H 0.23399 0.58285 0.21813 0.0
H598 H 0.27194 0.60368 0.11117 0.0
H599 H 0.2147 0.482 0.20722 0.0
H600 H 0.10218 0.65948 0.29381 0.0
H601 H 0.05668 0.75202 0.20268 0.0
H602 H 0.45867 0.50622 0.14777 0.0
H603 H 0.47916 0.54755 0.2552 0.0
H604 H 0.31813 0.82987 0.13274 0.0
H605 H 0.28233 0.85856 0.23938 0.0
H606 H 0.34784 0.92872 0.12777 0.0
H607 H 0.31209 0.95673 0.23235 0.0
H608 H 0.40905 0.79072 0.13311 0.0
H609 H 0.47142 0.66062 0.19903 0.0
H610 H 0.50448 0.82757 0.12726 0.0
H611 H 0.56575 0.69946 0.19191 0.0
H612 H 0.50511 0.71891 0.28655 0.0
H613 H 0.50663 0.88225 0.23824 0.0
H614 H 0.20724 0.76655 0.04465 0.0
H615 H 0.36931 0.69094 0.03581 0.0
Li616 Li 0.76247 0.85746 0.7084 0.0
Li617 Li 0.8575 0.84443 0.69193 0.0
Li618 Li 0.78731 0.81288 0.65214 0.0
Li619 Li 0.80601 0.76031 0.7078 0.0
C620 C 0.80504 0.94658 0.67172 0.0
N621 N 0.81343 0.06172 0.67889 0.0
C622 C 0.82653 0.96982 0.7018 0.0
C623 C 0.78744 0.98207 0.64538 0.0
C624 C 0.8306 0.02804 0.70491 0.0
C625 C 0.79208 0.04014 0.64949 0.0
C626 C 0.86114 0.82744 0.76343 0.0
C627 C 0.93291 0.78233 0.7965 0.0
N628 N 0.93686 0.82874 0.8166 0.0
C629 C 0.86585 0.87466 0.78457 0.0
C630 C 0.89489 0.78087 0.76957 0.0
C631 C 0.9044 0.87451 0.81124 0.0
C632 C 0.72604 0.92104 0.76561 0.0
N633 N 0.71758 0.91385 0.73146 0.0
C634 C 0.68287 1.00777 0.72669 0.0
C635 C 0.69311 0.95481 0.71243 0.0
C636 C 0.69705 0.01845 0.76102 0.0
C637 C 0.71613 0.97324 0.78098 0.0
H638 H 0.74515 0.88789 0.78032 0.0
H639 H 0.68693 0.94859 0.68529 0.0
C640 C 0.92942 0.91534 0.65968 0.0
N641 N 0.92502 0.88649 0.68961 0.0
C642 C 0.96173 0.9636 0.65784 0.0
C643 C 0.99041 0.94747 0.71627 0.0
C644 C 0.95712 0.89958 0.71704 0.0
C645 C 0.9907 0.98169 0.68693 0.0
H646 H 0.90328 0.9043 0.63825 0.0
H647 H 0.95462 0.87534 0.74022 0.0
C648 C 0.67806 0.79464 0.67782 0.0
N649 N 0.56971 0.81337 0.65836 0.0
C650 C 0.63564 0.76104 0.69089 0.0
C651 C 0.66545 0.83772 0.65482 0.0
C652 C 0.5811 0.77116 0.68072 0.0
C653 C 0.61039 0.84656 0.64533 0.0
C654 C 0.90812 0.76469 0.65718 0.0
C655 C 0.92572 0.78534 0.6255 0.0
C656 C 0.9459 0.73734 0.67852 0.0
C657 C 0.98114 0.77927 0.61599 0.0
C658 C 1.00097 0.73206 0.66809 0.0
N659 N 0.01732 0.75303 0.63733 0.0
C660 C 0.7959 0.84899 0.58469 0.0
C661 C 0.7549 0.75896 0.58843 0.0
C662 C 0.79834 0.84515 0.54908 0.0
N663 N 0.77519 0.80605 0.60365 0.0
C664 C 0.75646 0.75335 0.55262 0.0
C665 C 0.77974 0.79633 0.5325 0.0
H666 H 0.81325 0.8852 0.59736 0.0
H667 H 0.73964 0.72487 0.60409 0.0
C668 C 0.7924 0.67638 0.76043 0.0
N669 N 0.80836 0.68559 0.72749 0.0
C670 C 0.79504 0.62233 0.77453 0.0
C671 C 0.83012 0.58794 0.72061 0.0
C672 C 0.82712 0.64269 0.70761 0.0
C673 C 0.81395 0.57697 0.75455 0.0
H674 H 0.7776 0.71106 0.77578 0.0
H675 H 0.83975 0.651 0.68153 0.0
O676 O 0.80057 0.88947 0.66818 0.0
O677 O 0.82309 0.8264 0.73739 0.0
O678 O 0.7316 0.78528 0.68763 0.0
O679 O 0.85418 0.77107 0.66717 0.0
H680 H 0.83979 0.94314 0.72256 0.0
H681 H 0.7698 0.96507 0.62213 0.0
H682 H 0.8472 0.04645 0.72805 0.0
H683 H 0.77855 0.06805 0.62931 0.0
H684 H 0.95924 0.74651 0.80143 0.0
H685 H 0.84067 0.91144 0.78031 0.0
H686 H 0.89184 0.74388 0.75381 0.0
H687 H 0.90861 0.91086 0.82762 0.0
H688 H 0.66694 0.04087 0.71046 0.0
H689 H 0.72746 0.97915 0.80756 0.0
H690 H 0.96085 0.98837 0.6346 0.0
H691 H 0.01405 0.95865 0.73882 0.0
H692 H 0.6448 0.7275 0.70872 0.0
H693 H 0.69773 0.8642 0.64448 0.0
H694 H 0.54785 0.74543 0.69059 0.0
H695 H 0.6 0.87982 0.62761 0.0
H696 H 0.89706 0.80626 0.60854 0.0
H697 H 0.93289 0.72011 0.70278 0.0
H698 H 0.99537 0.79545 0.59166 0.0
H699 H 0.03068 0.71117 0.68444 0.0
H700 H 0.81581 0.87977 0.53473 0.0
H701 H 0.74191 0.71484 0.54098 0.0
H702 H 0.78114 0.61596 0.8006 0.0
H703 H 0.84517 0.55457 0.70426 0.0
loop_
_geom_bond_atom_site_label_1
_geom_bond_atom_site_label_2
_geom_bond_distance
_geom_bond_site_symmetry_2
_ccdc_geom_bond_type
Li0 N17 1.995 . S
Li0 O60 1.956 . S
Li0 O61 1.970 . S
Li0 O62 1.961 . S
Li1 N25 1.990 . S
Li1 O60 1.970 . S
Li1 O61 1.956 . S
Li1 O63 1.961 . S
Li2 N47 1.990 . S
Li2 O60 1.961 . S
Li2 O62 1.956 . S
Li2 O63 1.970 . S
Li3 N53 1.990 . S
Li3 O61 1.961 . S
Li3 O62 1.970 . S
Li3 O63 1.956 . S
C4 C6 1.348 . S
C4 C7 1.356 . S
C4 O60 1.325 . S
N5 C8 1.314 . S
N5 C9 1.279 . S
C6 C4 1.348 . S
C6 C8 1.353 . S
C6 H64 0.929 . S
C7 C4 1.356 . S
C7 C9 1.358 . S
C7 H65 0.930 . S
C8 N5 1.314 . S
C8 C6 1.353 . S
C8 H66 0.930 . S
C9 N5 1.279 . S
C9 C7 1.358 . S
C9 H67 0.930 . S
C10 C13 1.342 1_455 S
C10 C14 1.356 1_455 S
C10 O61 1.331 . S
C11 N12 1.279 . S
C11 C14 1.358 . S
C11 H68 0.930 . S
N12 C11 1.279 . S
N12 C15 1.314 . S
C13 C10 1.342 1_655 S
C13 C15 1.353 . S
C13 H69 0.929 . S
C14 C10 1.356 1_655 S
C14 C11 1.358 . S
C14 H70 0.930 1_655 S
C15 N12 1.314 . S
C15 C13 1.353 . S
C15 H71 0.930 . S
C16 N17 1.309 1_655 S
C16 C21 1.353 . S
C16 H22 0.930 . S
N17 Li0 1.995 . S
N17 C16 1.309 1_455 S
N17 C19 1.278 1_455 S
C18 C19 1.358 . S
C18 C20 1.356 . S
C18 H72 0.930 . S
C19 N17 1.278 1_655 S
C19 C18 1.358 . S
C19 H23 0.930 1_655 S
C20 C18 1.356 . S
C20 C21 1.348 . S
C21 C16 1.353 . S
C21 C20 1.348 . S
C21 H73 0.929 . S
H22 C16 0.930 . S
H23 C19 0.930 1_455 S
C24 N25 1.314 . S
C24 C26 1.353 . S
C24 H30 0.930 . S
N25 Li1 1.990 . S
N25 C24 1.314 . S
N25 C28 1.279 . S
C26 C24 1.353 . S
C26 C29 1.348 . S
C26 H74 0.929 . S
C27 C28 1.358 . S
C27 C29 1.356 . S
C27 H75 0.930 . S
C28 N25 1.279 . S
C28 C27 1.358 . S
C28 H31 0.930 . S
C29 C26 1.348 . S
C29 C27 1.356 . S
H30 C24 0.930 . S
H31 C28 0.930 . S
C32 C34 1.348 . S
C32 C35 1.356 . S
C32 O62 1.325 . S
N33 C36 1.314 . S
N33 C37 1.279 . S
C34 C32 1.348 . S
C34 C36 1.353 . S
C34 H76 0.929 . S
C35 C32 1.356 . S
C35 C37 1.358 . S
C35 H77 0.930 . S
C36 N33 1.314 . S
C36 C34 1.353 . S
C36 H78 0.930 . S
C37 N33 1.279 . S
C37 C35 1.358 . S
C37 H79 0.930 . S
C38 C39 1.348 . S
C38 C40 1.356 . S
C38 O63 1.325 . S
C39 C38 1.348 . S
C39 C41 1.353 . S
C39 H80 0.929 . S
C40 C38 1.356 . S
C40 C42 1.358 . S
C40 H81 0.930 . S
C41 C39 1.353 . S
C41 N43 1.314 . S
C41 H82 0.930 . S
C42 C40 1.358 . S
C42 N43 1.279 . S
C42 H83 0.930 . S
N43 C41 1.314 . S
N43 C42 1.279 . S
C44 C46 1.353 . S
C44 N47 1.314 . S
C44 H50 0.930 . S
C45 N47 1.279 . S
C45 C48 1.358 . S
C45 H51 0.930 . S
C46 C44 1.353 . S
C46 C49 1.348 . S
C46 H84 0.929 . S
N47 Li2 1.990 . S
N47 C44 1.314 . S
N47 C45 1.279 . S
C48 C45 1.358 . S
C48 C49 1.356 . S
C48 H85 0.930 . S
C49 C46 1.348 . S
C49 C48 1.356 . S
H50 C44 0.930 . S
H51 C45 0.930 . S
C52 N53 1.314 . S
C52 C54 1.353 1_545 S
C52 H58 0.930 1_455 S
N53 Li3 1.990 . S
N53 C52 1.314 . S
N53 C56 1.279 . S
C54 C52 1.353 1_565 S
C54 C57 1.348 . S
C54 H86 0.929 1_455 S
C55 C56 1.358 1_565 S
C55 C57 1.356 . S
C55 H87 0.930 . S
C56 N53 1.279 . S
C56 C55 1.358 1_545 S
C56 H59 0.930 . S
C57 C54 1.348 . S
C57 C55 1.356 . S
H58 C52 0.930 1_655 S
H59 C56 0.930 . S
O60 Li0 1.956 . S
O60 Li1 1.970 . S
O60 Li2 1.961 . S
O60 C4 1.325 . S
O61 Li0 1.970 . S
O61 Li1 1.956 . S
O61 Li3 1.961 . S
O61 C10 1.331 . S
O62 Li0 1.961 . S
O62 Li2 1.956 . S
O62 Li3 1.970 . S
O62 C32 1.325 . S
O63 Li1 1.961 . S
O63 Li2 1.970 . S
O63 Li3 1.956 . S
O63 C38 1.325 . S
H64 C6 0.929 . S
H65 C7 0.930 . S
H66 C8 0.930 . S
H67 C9 0.930 . S
H68 C11 0.930 . S
H69 C13 0.929 . S
H70 C14 0.930 1_455 S
H71 C15 0.930 . S
H72 C18 0.930 . S
H73 C21 0.929 . S
H74 C26 0.929 . S
H75 C27 0.930 . S
H76 C34 0.929 . S
H77 C35 0.930 . S
H78 C36 0.930 . S
H79 C37 0.930 . S
H80 C39 0.929 . S
H81 C40 0.930 . S
H82 C41 0.930 . S
H83 C42 0.930 . S
H84 C46 0.929 . S
H85 C48 0.930 . S
H86 C54 0.929 1_655 S
H87 C55 0.930 . S
Li88 N105 1.990 . S
Li88 O148 1.956 . S
Li88 O149 1.970 . S
Li88 O150 1.961 . S
Li89 N113 1.990 . S
Li89 O148 1.970 . S
Li89 O149 1.956 . S
Li89 O151 1.961 . S
Li90 N135 1.990 . S
Li90 O148 1.961 . S
Li90 O150 1.956 . S
Li90 O151 1.970 . S
Li91 N141 1.990 . S
Li91 O149 1.961 . S
Li91 O150 1.970 . S
Li91 O151 1.956 . S
C92 C94 1.348 . S
C92 C95 1.356 . S
C92 O148 1.325 . S
N93 C96 1.314 . S
N93 C97 1.279 . S
C94 C92 1.348 . S
C94 C96 1.353 . S
C94 H152 0.929 . S
C95 C92 1.356 . S
C95 C97 1.358 . S
C95 H153 0.930 . S
C96 N93 1.314 . S
C96 C94 1.353 . S
C96 H154 0.930 . S
C97 N93 1.279 . S
C97 C95 1.358 . S
C97 H155 0.930 . S
C98 C101 1.348 . S
C98 C102 1.356 . S
C98 O149 1.325 . S
C99 N100 1.279 . S
C99 C102 1.358 . S
C99 H156 0.930 . S
N100 C99 1.279 . S
N100 C103 1.314 . S
C101 C98 1.348 . S
C101 C103 1.353 . S
C101 H157 0.929 . S
C102 C98 1.356 . S
C102 C99 1.358 . S
C102 H158 0.930 . S
C103 N100 1.314 . S
C103 C101 1.353 . S
C103 H159 0.930 . S
C104 N105 1.314 . S
C104 C109 1.353 . S
C104 H110 0.930 . S
N105 Li88 1.990 . S
N105 C104 1.314 . S
N105 C107 1.279 . S
C106 C107 1.358 . S
C106 C108 1.356 . S
C106 H160 0.930 . S
C107 N105 1.279 . S
C107 C106 1.358 . S
C107 H111 0.930 . S
C108 C106 1.356 . S
C108 C109 1.348 . S
C109 C104 1.353 . S
C109 C108 1.348 . S
C109 H161 0.929 . S
H110 C104 0.930 . S
H111 C107 0.930 . S
C112 N113 1.314 . S
C112 C114 1.353 . S
C112 H118 0.930 . S
N113 Li89 1.990 . S
N113 C112 1.314 . S
N113 C116 1.279 . S
C114 C112 1.353 . S
C114 C117 1.348 . S
C114 H162 0.929 . S
C115 C116 1.358 . S
C115 C117 1.356 . S
C115 H163 0.930 . S
C116 N113 1.279 . S
C116 C115 1.358 . S
C116 H119 0.930 . S
C117 C114 1.348 . S
C117 C115 1.356 . S
H118 C112 0.930 . S
H119 C116 0.930 . S
C120 C122 1.348 . S
C120 C123 1.356 . S
C120 O150 1.325 . S
N121 C124 1.314 . S
N121 C125 1.279 . S
C122 C120 1.348 . S
C122 C124 1.353 . S
C122 H164 0.929 . S
C123 C120 1.356 . S
C123 C125 1.358 . S
C123 H165 0.930 . S
C124 N121 1.314 . S
C124 C122 1.353 . S
C124 H166 0.930 . S
C125 N121 1.279 . S
C125 C123 1.358 . S
C125 H167 0.930 . S
C126 C127 1.348 . S
C126 C128 1.356 . S
C126 O151 1.325 . S
C127 C126 1.348 . S
C127 C129 1.353 . S
C127 H168 0.929 . S
C128 C126 1.356 . S
C128 C130 1.358 . S
C128 H169 0.930 . S
C129 C127 1.353 . S
C129 N131 1.314 . S
C129 H170 0.930 . S
C130 C128 1.358 . S
C130 N131 1.279 . S
C130 H171 0.930 . S
N131 C129 1.314 . S
N131 C130 1.279 . S
C132 C134 1.353 . S
C132 N135 1.314 . S
C132 H138 0.930 . S
C133 N135 1.279 . S
C133 C136 1.358 . S
C133 H139 0.930 . S
C134 C132 1.353 . S
C134 C137 1.348 . S
C134 H172 0.929 . S
N135 Li90 1.990 . S
N135 C132 1.314 . S
N135 C133 1.279 . S
C136 C133 1.358 . S
C136 C137 1.356 . S
C136 H173 0.930 . S
C137 C134 1.348 . S
C137 C136 1.356 . S
H138 C132 0.930 . S
H139 C133 0.930 . S
C140 N141 1.314 . S
C140 C142 1.353 . S
C140 H146 0.930 . S
N141 Li91 1.990 . S
N141 C140 1.314 . S
N141 C144 1.279 . S
C142 C140 1.353 . S
C142 C145 1.348 . S
C142 H174 0.929 . S
C143 C144 1.358 . S
C143 C145 1.356 . S
C143 H175 0.930 . S
C144 N141 1.279 . S
C144 C143 1.358 . S
C144 H147 0.930 . S
C145 C142 1.348 . S
C145 C143 1.356 . S
H146 C140 0.930 . S
H147 C144 0.930 . S
O148 Li88 1.956 . S
O148 Li89 1.970 . S
O148 Li90 1.961 . S
O148 C92 1.325 . S
O149 Li88 1.970 . S
O149 Li89 1.956 . S
O149 Li91 1.961 . S
O149 C98 1.325 . S
O150 Li88 1.961 . S
O150 Li90 1.956 . S
O150 Li91 1.970 . S
O150 C120 1.325 . S
O151 Li89 1.961 . S
O151 Li90 1.970 . S
O151 Li91 1.956 . S
O151 C126 1.325 . S
H152 C94 0.929 . S
H153 C95 0.930 . S
H154 C96 0.930 . S
H155 C97 0.930 . S
H156 C99 0.930 . S
H157 C101 0.929 . S
H158 C102 0.930 . S
H159 C103 0.930 . S
H160 C106 0.930 . S
H161 C109 0.929 . S
H162 C114 0.929 . S
H163 C115 0.930 . S
H164 C122 0.929 . S
H165 C123 0.930 . S
H166 C124 0.930 . S
H167 C125 0.930 . S
H168 C127 0.929 . S
H169 C128 0.930 . S
H170 C129 0.930 . S
H171 C130 0.930 . S
H172 C134 0.929 . S
H173 C136 0.930 . S
H174 C142 0.929 . S
H175 C143 0.930 . S
Li176 N193 1.995 . S
Li176 O236 1.956 . S
Li176 O237 1.970 . S
Li176 O238 1.961 . S
Li177 N201 1.990 . S
Li177 O236 1.970 . S
Li177 O237 1.956 . S
Li177 O239 1.961 . S
Li178 N223 1.990 . S
Li178 O236 1.961 . S
Li178 O238 1.956 . S
Li178 O239 1.970 . S
Li179 N229 1.990 . S
Li179 O237 1.961 . S
Li179 O238 1.970 . S
Li179 O239 1.956 . S
C180 C182 1.348 . S
C180 C183 1.356 . S
C180 O236 1.325 . S
N181 C184 1.314 . S
N181 C185 1.279 . S
C182 C180 1.348 . S
C182 C184 1.353 . S
C182 H240 0.929 . S
C183 C180 1.356 . S
C183 C185 1.358 . S
C183 H241 0.930 . S
C184 N181 1.314 . S
C184 C182 1.353 . S
C184 H242 0.930 . S
C185 N181 1.279 . S
C185 C183 1.358 . S
C185 H243 0.930 . S
C186 C189 1.342 1_655 S
C186 C190 1.356 1_655 S
C186 O237 1.331 . S
C187 N188 1.279 . S
C187 C190 1.358 . S
C187 H244 0.930 . S
N188 C187 1.279 . S
N188 C191 1.314 . S
C189 C186 1.342 1_455 S
C189 C191 1.353 . S
C189 H245 0.929 . S
C190 C186 1.356 1_455 S
C190 C187 1.358 . S
C190 H246 0.930 1_455 S
C191 N188 1.314 . S
C191 C189 1.353 . S
C191 H247 0.930 . S
C192 N193 1.309 1_455 S
C192 C197 1.353 . S
C192 H198 0.930 . S
N193 Li176 1.995 . S
N193 C192 1.309 1_655 S
N193 C195 1.278 1_655 S
C194 C195 1.358 . S
C194 C196 1.356 . S
C194 H248 0.930 . S
C195 N193 1.278 1_455 S
C195 C194 1.358 . S
C195 H199 0.930 1_455 S
C196 C194 1.356 . S
C196 C197 1.348 . S
C197 C192 1.353 . S
C197 C196 1.348 . S
C197 H249 0.929 . S
H198 C192 0.930 . S
H199 C195 0.930 1_655 S
C200 N201 1.314 . S
C200 C202 1.353 . S
C200 H206 0.930 . S
N201 Li177 1.990 . S
N201 C200 1.314 . S
N201 C204 1.279 . S
C202 C200 1.353 . S
C202 C205 1.348 . S
C202 H250 0.929 . S
C203 C204 1.358 . S
C203 C205 1.356 . S
C203 H251 0.930 . S
C204 N201 1.279 . S
C204 C203 1.358 . S
C204 H207 0.930 . S
C205 C202 1.348 . S
C205 C203 1.356 . S
H206 C200 0.930 . S
H207 C204 0.930 . S
C208 C210 1.348 . S
C208 C211 1.356 . S
C208 O238 1.325 . S
N209 C212 1.314 . S
N209 C213 1.279 . S
C210 C208 1.348 . S
C210 C212 1.353 . S
C210 H252 0.929 . S
C211 C208 1.356 . S
C211 C213 1.358 . S
C211 H253 0.930 . S
C212 N209 1.314 . S
C212 C210 1.353 . S
C212 H254 0.930 . S
C213 N209 1.279 . S
C213 C211 1.358 . S
C213 H255 0.930 . S
C214 C215 1.348 . S
C214 C216 1.356 . S
C214 O239 1.325 . S
C215 C214 1.348 . S
C215 C217 1.353 . S
C215 H256 0.929 . S
C216 C214 1.356 . S
C216 C218 1.358 . S
C216 H257 0.930 . S
C217 C215 1.353 . S
C217 N219 1.314 . S
C217 H258 0.930 . S
C218 C216 1.358 . S
C218 N219 1.279 . S
C218 H259 0.930 . S
N219 C217 1.314 . S
N219 C218 1.279 . S
C220 C222 1.353 . S
C220 N223 1.314 . S
C220 H226 0.930 . S
C221 N223 1.279 . S
C221 C224 1.358 . S
C221 H227 0.930 . S
C222 C220 1.353 . S
C222 C225 1.348 . S
C222 H260 0.929 . S
N223 Li178 1.990 . S
N223 C220 1.314 . S
N223 C221 1.279 . S
C224 C221 1.358 . S
C224 C225 1.356 . S
C224 H261 0.930 . S
C225 C222 1.348 . S
C225 C224 1.356 . S
H226 C220 0.930 . S
H227 C221 0.930 . S
C228 N229 1.314 . S
C228 C230 1.353 1_565 S
C228 H234 0.930 1_655 S
N229 Li179 1.990 . S
N229 C228 1.314 . S
N229 C232 1.279 . S
C230 C228 1.353 1_545 S
C230 C233 1.348 . S
C230 H262 0.929 1_655 S
C231 C232 1.358 1_545 S
C231 C233 1.356 . S
C231 H263 0.930 . S
C232 N229 1.279 . S
C232 C231 1.358 1_565 S
C232 H235 0.930 . S
C233 C230 1.348 . S
C233 C231 1.356 . S
H234 C228 0.930 1_455 S
H235 C232 0.930 . S
O236 Li176 1.956 . S
O236 Li177 1.970 . S
O236 Li178 1.961 . S
O236 C180 1.325 . S
O237 Li176 1.970 . S
O237 Li177 1.956 . S
O237 Li179 1.961 . S
O237 C186 1.331 . S
O238 Li176 1.961 . S
O238 Li178 1.956 . S
O238 Li179 1.970 . S
O238 C208 1.325 . S
O239 Li177 1.961 . S
O239 Li178 1.970 . S
O239 Li179 1.956 . S
O239 C214 1.325 . S
H240 C182 0.929 . S
H241 C183 0.930 . S
H242 C184 0.930 . S
H243 C185 0.930 . S
H244 C187 0.930 . S
H245 C189 0.929 . S
H246 C190 0.930 1_655 S
H247 C191 0.930 . S
H248 C194 0.930 . S
H249 C197 0.929 . S
H250 C202 0.929 . S
H251 C203 0.930 . S
H252 C210 0.929 . S
H253 C211 0.930 . S
H254 C212 0.930 . S
H255 C213 0.930 . S
H256 C215 0.929 . S
H257 C216 0.930 . S
H258 C217 0.930 . S
H259 C218 0.930 . S
H260 C222 0.929 . S
H261 C224 0.930 . S
H262 C230 0.929 1_455 S
H263 C231 0.930 . S
Li264 N281 1.990 . S
Li264 O324 1.956 . S
Li264 O325 1.970 . S
Li264 O326 1.961 . S
Li265 N289 1.990 . S
Li265 O324 1.970 . S
Li265 O325 1.956 . S
Li265 O327 1.961 . S
Li266 N311 1.990 . S
Li266 O324 1.961 . S
Li266 O326 1.956 . S
Li266 O327 1.970 . S
Li267 N317 1.990 . S
Li267 O325 1.961 . S
Li267 O326 1.970 . S
Li267 O327 1.956 . S
C268 C270 1.348 . S
C268 C271 1.356 . S
C268 O324 1.325 . S
N269 C272 1.314 . S
N269 C273 1.279 . S
C270 C268 1.348 . S
C270 C272 1.353 . S
C270 H328 0.929 . S
C271 C268 1.356 . S
C271 C273 1.358 . S
C271 H329 0.930 . S
C272 N269 1.314 . S
C272 C270 1.353 . S
C272 H330 0.930 . S
C273 N269 1.279 . S
C273 C271 1.358 . S
C273 H331 0.930 . S
C274 C277 1.348 . S
C274 C278 1.356 . S
C274 O325 1.325 . S
C275 N276 1.279 . S
C275 C278 1.358 . S
C275 H332 0.930 . S
N276 C275 1.279 . S
N276 C279 1.314 . S
C277 C274 1.348 . S
C277 C279 1.353 . S
C277 H333 0.929 . S
C278 C274 1.356 . S
C278 C275 1.358 . S
C278 H334 0.930 . S
C279 N276 1.314 . S
C279 C277 1.353 . S
C279 H335 0.930 . S
C280 N281 1.314 . S
C280 C285 1.353 . S
C280 H286 0.930 . S
N281 Li264 1.990 . S
N281 C280 1.314 . S
N281 C283 1.279 . S
C282 C283 1.358 . S
C282 C284 1.356 . S
C282 H336 0.930 . S
C283 N281 1.279 . S
C283 C282 1.358 . S
C283 H287 0.930 . S
C284 C282 1.356 . S
C284 C285 1.348 . S
C285 C280 1.353 . S
C285 C284 1.348 . S
C285 H337 0.929 . S
H286 C280 0.930 . S
H287 C283 0.930 . S
C288 N289 1.314 . S
C288 C290 1.353 . S
C288 H294 0.930 . S
N289 Li265 1.990 . S
N289 C288 1.314 . S
N289 C292 1.279 . S
C290 C288 1.353 . S
C290 C293 1.348 . S
C290 H338 0.929 . S
C291 C292 1.358 . S
C291 C293 1.356 . S
C291 H339 0.930 . S
C292 N289 1.279 . S
C292 C291 1.358 . S
C292 H295 0.930 . S
C293 C290 1.348 . S
C293 C291 1.356 . S
H294 C288 0.930 . S
H295 C292 0.930 . S
C296 C298 1.348 . S
C296 C299 1.356 . S
C296 O326 1.325 . S
N297 C300 1.314 . S
N297 C301 1.279 . S
C298 C296 1.348 . S
C298 C300 1.353 . S
C298 H340 0.929 . S
C299 C296 1.356 . S
C299 C301 1.358 . S
C299 H341 0.930 . S
C300 N297 1.314 . S
C300 C298 1.353 . S
C300 H342 0.930 . S
C301 N297 1.279 . S
C301 C299 1.358 . S
C301 H343 0.930 . S
C302 C303 1.348 . S
C302 C304 1.356 . S
C302 O327 1.325 . S
C303 C302 1.348 . S
C303 C305 1.353 . S
C303 H344 0.929 . S
C304 C302 1.356 . S
C304 C306 1.358 . S
C304 H345 0.930 . S
C305 C303 1.353 . S
C305 N307 1.314 . S
C305 H346 0.930 . S
C306 C304 1.358 . S
C306 N307 1.279 . S
C306 H347 0.930 . S
N307 C305 1.314 . S
N307 C306 1.279 . S
C308 C310 1.353 . S
C308 N311 1.314 . S
C308 H314 0.930 . S
C309 N311 1.279 . S
C309 C312 1.358 . S
C309 H315 0.930 . S
C310 C308 1.353 . S
C310 C313 1.348 . S
C310 H348 0.929 . S
N311 Li266 1.990 . S
N311 C308 1.314 . S
N311 C309 1.279 . S
C312 C309 1.358 . S
C312 C313 1.356 . S
C312 H349 0.930 . S
C313 C310 1.348 . S
C313 C312 1.356 . S
H314 C308 0.930 . S
H315 C309 0.930 . S
C316 N317 1.314 . S
C316 C318 1.353 . S
C316 H322 0.930 . S
N317 Li267 1.990 . S
N317 C316 1.314 . S
N317 C320 1.279 . S
C318 C316 1.353 . S
C318 C321 1.348 . S
C318 H350 0.929 . S
C319 C320 1.358 . S
C319 C321 1.356 . S
C319 H351 0.930 . S
C320 N317 1.279 . S
C320 C319 1.358 . S
C320 H323 0.930 . S
C321 C318 1.348 . S
C321 C319 1.356 . S
H322 C316 0.930 . S
H323 C320 0.930 . S
O324 Li264 1.956 . S
O324 Li265 1.970 . S
O324 Li266 1.961 . S
O324 C268 1.325 . S
O325 Li264 1.970 . S
O325 Li265 1.956 . S
O325 Li267 1.961 . S
O325 C274 1.325 . S
O326 Li264 1.961 . S
O326 Li266 1.956 . S
O326 Li267 1.970 . S
O326 C296 1.325 . S
O327 Li265 1.961 . S
O327 Li266 1.970 . S
O327 Li267 1.956 . S
O327 C302 1.325 . S
H328 C270 0.929 . S
H329 C271 0.930 . S
H330 C272 0.930 . S
H331 C273 0.930 . S
H332 C275 0.930 . S
H333 C277 0.929 . S
H334 C278 0.930 . S
H335 C279 0.930 . S
H336 C282 0.930 . S
H337 C285 0.929 . S
H338 C290 0.929 . S
H339 C291 0.930 . S
H340 C298 0.929 . S
H341 C299 0.930 . S
H342 C300 0.930 . S
H343 C301 0.930 . S
H344 C303 0.929 . S
H345 C304 0.930 . S
H346 C305 0.930 . S
H347 C306 0.930 . S
H348 C310 0.929 . S
H349 C312 0.930 . S
H350 C318 0.929 . S
H351 C319 0.930 . S
Li352 N369 1.990 . S
Li352 O412 1.956 . S
Li352 O413 1.970 . S
Li352 O414 1.961 . S
Li353 N377 1.990 . S
Li353 O412 1.970 . S
Li353 O413 1.956 . S
Li353 O415 1.961 . S
Li354 N399 1.990 . S
Li354 O412 1.961 . S
Li354 O414 1.956 . S
Li354 O415 1.970 . S
Li355 N405 1.990 . S
Li355 O413 1.961 . S
Li355 O414 1.970 . S
Li355 O415 1.956 . S
C356 C358 1.348 . S
C356 C359 1.356 . S
C356 O412 1.325 . S
N357 C360 1.314 . S
N357 C361 1.279 . S
C358 C356 1.348 . S
C358 C360 1.353 . S
C358 H416 0.929 . S
C359 C356 1.356 . S
C359 C361 1.358 . S
C359 H417 0.930 . S
C360 N357 1.314 . S
C360 C358 1.353 . S
C360 H418 0.930 . S
C361 N357 1.279 . S
C361 C359 1.358 . S
C361 H419 0.930 . S
C362 C365 1.348 . S
C362 C366 1.356 . S
C362 O413 1.325 . S
C363 N364 1.279 . S
C363 C366 1.358 . S
C363 H420 0.930 . S
N364 C363 1.279 . S
N364 C367 1.314 . S
C365 C362 1.348 . S
C365 C367 1.353 . S
C365 H421 0.929 . S
C366 C362 1.356 . S
C366 C363 1.358 . S
C366 H422 0.930 . S
C367 N364 1.314 . S
C367 C365 1.353 . S
C367 H423 0.930 . S
C368 N369 1.314 . S
C368 C373 1.353 . S
C368 H374 0.930 . S
N369 Li352 1.990 . S
N369 C368 1.314 . S
N369 C371 1.279 . S
C370 C371 1.358 . S
C370 C372 1.356 . S
C370 H424 0.930 . S
C371 N369 1.279 . S
C371 C370 1.358 . S
C371 H375 0.930 . S
C372 C370 1.356 . S
C372 C373 1.348 . S
C373 C368 1.353 . S
C373 C372 1.348 . S
C373 H425 0.929 . S
H374 C368 0.930 . S
H375 C371 0.930 . S
C376 N377 1.314 . S
C376 C378 1.353 . S
C376 H382 0.930 . S
N377 Li353 1.990 . S
N377 C376 1.314 . S
N377 C380 1.279 . S
C378 C376 1.353 . S
C378 C381 1.348 . S
C378 H426 0.929 . S
C379 C380 1.358 . S
C379 C381 1.356 . S
C379 H427 0.930 . S
C380 N377 1.279 . S
C380 C379 1.358 . S
C380 H383 0.930 . S
C381 C378 1.348 . S
C381 C379 1.356 . S
H382 C376 0.930 . S
H383 C380 0.930 . S
C384 C386 1.348 . S
C384 C387 1.356 . S
C384 O414 1.325 . S
N385 C388 1.314 . S
N385 C389 1.279 . S
C386 C384 1.348 . S
C386 C388 1.353 . S
C386 H428 0.929 . S
C387 C384 1.356 . S
C387 C389 1.358 . S
C387 H429 0.930 . S
C388 N385 1.314 . S
C388 C386 1.353 . S
C388 H430 0.930 . S
C389 N385 1.279 . S
C389 C387 1.358 . S
C389 H431 0.930 . S
C390 C391 1.348 . S
C390 C392 1.356 . S
C390 O415 1.325 . S
C391 C390 1.348 . S
C391 C393 1.353 . S
C391 H432 0.929 . S
C392 C390 1.356 . S
C392 C394 1.358 . S
C392 H433 0.930 . S
C393 C391 1.353 . S
C393 N395 1.314 . S
C393 H434 0.930 . S
C394 C392 1.358 . S
C394 N395 1.279 . S
C394 H435 0.930 . S
N395 C393 1.314 . S
N395 C394 1.279 . S
C396 C398 1.353 . S
C396 N399 1.314 . S
C396 H402 0.930 . S
C397 N399 1.279 . S
C397 C400 1.358 . S
C397 H403 0.930 . S
C398 C396 1.353 . S
C398 C401 1.348 . S
C398 H436 0.929 . S
N399 Li354 1.990 . S
N399 C396 1.314 . S
N399 C397 1.279 . S
C400 C397 1.358 . S
C400 C401 1.356 . S
C400 H437 0.930 . S
C401 C398 1.348 . S
C401 C400 1.356 . S
H402 C396 0.930 . S
H403 C397 0.930 . S
C404 N405 1.314 . S
C404 C406 1.353 . S
C404 H410 0.930 . S
N405 Li355 1.990 . S
N405 C404 1.314 . S
N405 C408 1.279 . S
C406 C404 1.353 . S
C406 C409 1.348 . S
C406 H438 0.929 . S
C407 C408 1.358 . S
C407 C409 1.356 . S
C407 H439 0.930 . S
C408 N405 1.279 . S
C408 C407 1.358 . S
C408 H411 0.930 . S
C409 C406 1.348 . S
C409 C407 1.356 . S
H410 C404 0.930 . S
H411 C408 0.930 . S
O412 Li352 1.956 . S
O412 Li353 1.970 . S
O412 Li354 1.961 . S
O412 C356 1.325 . S
O413 Li352 1.970 . S
O413 Li353 1.956 . S
O413 Li355 1.961 . S
O413 C362 1.325 . S
O414 Li352 1.961 . S
O414 Li354 1.956 . S
O414 Li355 1.970 . S
O414 C384 1.325 . S
O415 Li353 1.961 . S
O415 Li354 1.970 . S
O415 Li355 1.956 . S
O415 C390 1.325 . S
H416 C358 0.929 . S
H417 C359 0.930 . S
H418 C360 0.930 . S
H419 C361 0.930 . S
H420 C363 0.930 . S
H421 C365 0.929 . S
H422 C366 0.930 . S
H423 C367 0.930 . S
H424 C370 0.930 . S
H425 C373 0.929 . S
H426 C378 0.929 . S
H427 C379 0.930 . S
H428 C386 0.929 . S
H429 C387 0.930 . S
H430 C388 0.930 . S
H431 C389 0.930 . S
H432 C391 0.929 . S
H433 C392 0.930 . S
H434 C393 0.930 . S
H435 C394 0.930 . S
H436 C398 0.929 . S
H437 C400 0.930 . S
H438 C406 0.929 . S
H439 C407 0.930 . S
Li440 N457 1.990 . S
Li440 O500 1.956 . S
Li440 O501 1.970 . S
Li440 O502 1.961 . S
Li441 N465 1.990 . S
Li441 O500 1.970 . S
Li441 O501 1.956 . S
Li441 O503 1.961 . S
Li442 N487 1.990 . S
Li442 O500 1.961 . S
Li442 O502 1.956 . S
Li442 O503 1.970 . S
Li443 N493 1.990 1_545 S
Li443 O501 1.961 . S
Li443 O502 1.970 . S
Li443 O503 1.956 . S
C444 C446 1.348 . S
C444 C447 1.356 . S
C444 O500 1.325 . S
N445 C448 1.314 . S
N445 C449 1.279 . S
C446 C444 1.348 . S
C446 C448 1.353 . S
C446 H504 0.929 . S
C447 C444 1.356 . S
C447 C449 1.358 . S
C447 H505 0.930 . S
C448 N445 1.314 . S
C448 C446 1.353 . S
C448 H506 0.930 . S
C449 N445 1.279 . S
C449 C447 1.358 . S
C449 H507 0.930 . S
C450 C453 1.348 . S
C450 C454 1.356 . S
C450 O501 1.325 . S
C451 N452 1.279 . S
C451 C454 1.358 . S
C451 H508 0.930 . S
N452 C451 1.279 . S
N452 C455 1.314 . S
C453 C450 1.348 . S
C453 C455 1.353 . S
C453 H509 0.929 . S
C454 C450 1.356 . S
C454 C451 1.358 . S
C454 H510 0.930 . S
C455 N452 1.314 . S
C455 C453 1.353 . S
C455 H511 0.930 . S
C456 N457 1.314 . S
C456 C461 1.353 . S
C456 H462 0.930 . S
N457 Li440 1.990 . S
N457 C456 1.314 . S
N457 C459 1.279 . S
C458 C459 1.358 . S
C458 C460 1.356 . S
C458 H512 0.930 . S
C459 N457 1.279 . S
C459 C458 1.358 . S
C459 H463 0.930 . S
C460 C458 1.356 . S
C460 C461 1.348 . S
C461 C456 1.353 . S
C461 C460 1.348 . S
C461 H513 0.929 . S
H462 C456 0.930 . S
H463 C459 0.930 . S
C464 N465 1.314 . S
C464 C466 1.353 . S
C464 H470 0.930 . S
N465 Li441 1.990 . S
N465 C464 1.314 . S
N465 C468 1.279 . S
C466 C464 1.353 . S
C466 C469 1.348 . S
C466 H514 0.929 . S
C467 C468 1.358 . S
C467 C469 1.356 . S
C467 H515 0.930 . S
C468 N465 1.279 . S
C468 C467 1.358 . S
C468 H471 0.930 . S
C469 C466 1.348 . S
C469 C467 1.356 . S
H470 C464 0.930 . S
H471 C468 0.930 . S
C472 C474 1.348 . S
C472 C475 1.356 . S
C472 O502 1.325 . S
N473 C476 1.314 . S
N473 C477 1.279 . S
C474 C472 1.348 . S
C474 C476 1.353 . S
C474 H516 0.929 . S
C475 C472 1.356 . S
C475 C477 1.358 . S
C475 H517 0.930 . S
C476 N473 1.314 . S
C476 C474 1.353 . S
C476 H518 0.930 . S
C477 N473 1.279 . S
C477 C475 1.358 . S
C477 H519 0.930 . S
C478 C479 1.348 1_545 S
C478 C480 1.356 1_545 S
C478 O503 1.325 . S
C479 C478 1.348 1_565 S
C479 C481 1.353 . S
C479 H520 0.929 . S
C480 C478 1.356 1_565 S
C480 C482 1.358 . S
C480 H521 0.930 1_565 S
C481 C479 1.353 . S
C481 N483 1.314 . S
C481 H522 0.930 . S
C482 C480 1.358 . S
C482 N483 1.279 . S
C482 H523 0.930 . S
N483 C481 1.314 . S
N483 C482 1.279 . S
C484 C486 1.353 1_455 S
C484 N487 1.314 . S
C484 H490 0.930 . S
C485 N487 1.279 . S
C485 C488 1.358 1_455 S
C485 H491 0.930 . S
C486 C484 1.353 1_655 S
C486 C489 1.348 . S
C486 H524 0.929 . S
N487 Li442 1.990 . S
N487 C484 1.314 . S
N487 C485 1.279 . S
C488 C485 1.358 1_655 S
C488 C489 1.356 . S
C488 H525 0.930 . S
C489 C486 1.348 . S
C489 C488 1.356 . S
H490 C484 0.930 . S
H491 C485 0.930 . S
C492 N493 1.314 1_545 S
C492 C494 1.353 1_545 S
C492 H498 0.930 . S
N493 Li443 1.990 1_565 S
N493 C492 1.314 1_565 S
N493 C496 1.279 . S
C494 C492 1.353 1_565 S
C494 C497 1.348 . S
C494 H526 0.929 . S
C495 C496 1.358 . S
C495 C497 1.356 . S
C495 H527 0.930 . S
C496 N493 1.279 . S
C496 C495 1.358 . S
C496 H499 0.930 . S
C497 C494 1.348 . S
C497 C495 1.356 . S
H498 C492 0.930 . S
H499 C496 0.930 . S
O500 Li440 1.956 . S
O500 Li441 1.970 . S
O500 Li442 1.961 . S
O500 C444 1.325 . S
O501 Li440 1.970 . S
O501 Li441 1.956 . S
O501 Li443 1.961 . S
O501 C450 1.325 . S
O502 Li440 1.961 . S
O502 Li442 1.956 . S
O502 Li443 1.970 . S
O502 C472 1.325 . S
O503 Li441 1.961 . S
O503 Li442 1.970 . S
O503 Li443 1.956 . S
O503 C478 1.325 . S
H504 C446 0.929 . S
H505 C447 0.930 . S
H506 C448 0.930 . S
H507 C449 0.930 . S
H508 C451 0.930 . S
H509 C453 0.929 . S
H510 C454 0.930 . S
H511 C455 0.930 . S
H512 C458 0.930 . S
H513 C461 0.929 . S
H514 C466 0.929 . S
H515 C467 0.930 . S
H516 C474 0.929 . S
H517 C475 0.930 . S
H518 C476 0.930 . S
H519 C477 0.930 . S
H520 C479 0.929 . S
H521 C480 0.930 1_545 S
H522 C481 0.930 . S
H523 C482 0.930 . S
H524 C486 0.929 . S
H525 C488 0.930 . S
H526 C494 0.929 . S
H527 C495 0.930 . S
Li528 N545 1.990 . S
Li528 O588 1.956 . S
Li528 O589 1.970 . S
Li528 O590 1.961 . S
Li529 N553 1.990 . S
Li529 O588 1.970 . S
Li529 O589 1.956 . S
Li529 O591 1.961 . S
Li530 N575 1.990 . S
Li530 O588 1.961 . S
Li530 O590 1.956 . S
Li530 O591 1.970 . S
Li531 N581 1.990 . S
Li531 O589 1.961 . S
Li531 O590 1.970 . S
Li531 O591 1.956 . S
C532 C534 1.348 . S
C532 C535 1.356 . S
C532 O588 1.325 . S
N533 C536 1.314 . S
N533 C537 1.279 . S
C534 C532 1.348 . S
C534 C536 1.353 . S
C534 H592 0.929 . S
C535 C532 1.356 . S
C535 C537 1.358 . S
C535 H593 0.930 . S
C536 N533 1.314 . S
C536 C534 1.353 . S
C536 H594 0.930 . S
C537 N533 1.279 . S
C537 C535 1.358 . S
C537 H595 0.930 . S
C538 C541 1.348 . S
C538 C542 1.356 . S
C538 O589 1.325 . S
C539 N540 1.279 . S
C539 C542 1.358 . S
C539 H596 0.930 . S
N540 C539 1.279 . S
N540 C543 1.314 . S
C541 C538 1.348 . S
C541 C543 1.353 . S
C541 H597 0.929 . S
C542 C538 1.356 . S
C542 C539 1.358 . S
C542 H598 0.930 . S
C543 N540 1.314 . S
C543 C541 1.353 . S
C543 H599 0.930 . S
C544 N545 1.314 . S
C544 C549 1.353 . S
C544 H550 0.930 . S
N545 Li528 1.990 . S
N545 C544 1.314 . S
N545 C547 1.279 . S
C546 C547 1.358 . S
C546 C548 1.356 . S
C546 H600 0.930 . S
C547 N545 1.279 . S
C547 C546 1.358 . S
C547 H551 0.930 . S
C548 C546 1.356 . S
C548 C549 1.348 . S
C549 C544 1.353 . S
C549 C548 1.348 . S
C549 H601 0.929 . S
H550 C544 0.930 . S
H551 C547 0.930 . S
C552 N553 1.314 . S
C552 C554 1.353 . S
C552 H558 0.930 . S
N553 Li529 1.990 . S
N553 C552 1.314 . S
N553 C556 1.279 . S
C554 C552 1.353 . S
C554 C557 1.348 . S
C554 H602 0.929 . S
C555 C556 1.358 . S
C555 C557 1.356 . S
C555 H603 0.930 . S
C556 N553 1.279 . S
C556 C555 1.358 . S
C556 H559 0.930 . S
C557 C554 1.348 . S
C557 C555 1.356 . S
H558 C552 0.930 . S
H559 C556 0.930 . S
C560 C562 1.348 . S
C560 C563 1.356 . S
C560 O590 1.325 . S
N561 C564 1.314 . S
N561 C565 1.279 . S
C562 C560 1.348 . S
C562 C564 1.353 . S
C562 H604 0.929 . S
C563 C560 1.356 . S
C563 C565 1.358 . S
C563 H605 0.930 . S
C564 N561 1.314 . S
C564 C562 1.353 . S
C564 H606 0.930 . S
C565 N561 1.279 . S
C565 C563 1.358 . S
C565 H607 0.930 . S
C566 C567 1.348 . S
C566 C568 1.356 . S
C566 O591 1.325 . S
C567 C566 1.348 . S
C567 C569 1.353 . S
C567 H608 0.929 . S
C568 C566 1.356 . S
C568 C570 1.358 . S
C568 H609 0.930 . S
C569 C567 1.353 . S
C569 N571 1.314 . S
C569 H610 0.930 . S
C570 C568 1.358 . S
C570 N571 1.279 . S
C570 H611 0.930 . S
N571 C569 1.314 . S
N571 C570 1.279 . S
C572 C574 1.353 . S
C572 N575 1.314 . S
C572 H578 0.930 . S
C573 N575 1.279 . S
C573 C576 1.358 . S
C573 H579 0.930 . S
C574 C572 1.353 . S
C574 C577 1.348 . S
C574 H612 0.929 . S
N575 Li530 1.990 . S
N575 C572 1.314 . S
N575 C573 1.279 . S
C576 C573 1.358 . S
C576 C577 1.356 . S
C576 H613 0.930 . S
C577 C574 1.348 . S
C577 C576 1.356 . S
H578 C572 0.930 . S
H579 C573 0.930 . S
C580 N581 1.314 . S
C580 C582 1.353 . S
C580 H586 0.930 . S
N581 Li531 1.990 . S
N581 C580 1.314 . S
N581 C584 1.279 . S
C582 C580 1.353 . S
C582 C585 1.348 . S
C582 H614 0.929 . S
C583 C584 1.358 . S
C583 C585 1.356 . S
C583 H615 0.930 . S
C584 N581 1.279 . S
C584 C583 1.358 . S
C584 H587 0.930 . S
C585 C582 1.348 . S
C585 C583 1.356 . S
H586 C580 0.930 . S
H587 C584 0.930 . S
O588 Li528 1.956 . S
O588 Li529 1.970 . S
O588 Li530 1.961 . S
O588 C532 1.325 . S
O589 Li528 1.970 . S
O589 Li529 1.956 . S
O589 Li531 1.961 . S
O589 C538 1.325 . S
O590 Li528 1.961 . S
O590 Li530 1.956 . S
O590 Li531 1.970 . S
O590 C560 1.325 . S
O591 Li529 1.961 . S
O591 Li530 1.970 . S
O591 Li531 1.956 . S
O591 C566 1.325 . S
H592 C534 0.929 . S
H593 C535 0.930 . S
H594 C536 0.930 . S
H595 C537 0.930 . S
H596 C539 0.930 . S
H597 C541 0.929 . S
H598 C542 0.930 . S
H599 C543 0.930 . S
H600 C546 0.930 . S
H601 C549 0.929 . S
H602 C554 0.929 . S
H603 C555 0.930 . S
H604 C562 0.929 . S
H605 C563 0.930 . S
H606 C564 0.930 . S
H607 C565 0.930 . S
H608 C567 0.929 . S
H609 C568 0.930 . S
H610 C569 0.930 . S
H611 C570 0.930 . S
H612 C574 0.929 . S
H613 C576 0.930 . S
H614 C582 0.929 . S
H615 C583 0.930 . S
Li616 N633 1.990 1_565 S
Li616 O676 1.956 . S
Li616 O677 1.970 . S
Li616 O678 1.961 . S
Li617 N641 1.990 . S
Li617 O676 1.970 . S
Li617 O677 1.956 . S
Li617 O679 1.961 . S
Li618 N663 1.990 . S
Li618 O676 1.961 . S
Li618 O678 1.956 . S
Li618 O679 1.970 . S
Li619 N669 1.990 . S
Li619 O677 1.961 . S
Li619 O678 1.970 . S
Li619 O679 1.956 . S
C620 C622 1.348 1_565 S
C620 C623 1.356 1_565 S
C620 O676 1.325 . S
N621 C624 1.314 . S
N621 C625 1.279 . S
C622 C620 1.348 1_545 S
C622 C624 1.353 . S
C622 H680 0.929 . S
C623 C620 1.356 1_545 S
C623 C625 1.358 . S
C623 H681 0.930 1_545 S
C624 N621 1.314 . S
C624 C622 1.353 . S
C624 H682 0.930 . S
C625 N621 1.279 . S
C625 C623 1.358 . S
C625 H683 0.930 . S
C626 C629 1.348 . S
C626 C630 1.356 . S
C626 O677 1.325 . S
C627 N628 1.279 . S
C627 C630 1.358 . S
C627 H684 0.930 . S
N628 C627 1.279 . S
N628 C631 1.314 . S
C629 C626 1.348 . S
C629 C631 1.353 . S
C629 H685 0.929 . S
C630 C626 1.356 . S
C630 C627 1.358 . S
C630 H686 0.930 . S
C631 N628 1.314 . S
C631 C629 1.353 . S
C631 H687 0.930 . S
C632 N633 1.314 1_565 S
C632 C637 1.353 1_565 S
C632 H638 0.930 . S
N633 Li616 1.990 1_545 S
N633 C632 1.314 1_545 S
N633 C635 1.279 . S
C634 C635 1.358 . S
C634 C636 1.356 . S
C634 H688 0.930 . S
C635 N633 1.279 . S
C635 C634 1.358 . S
C635 H639 0.930 . S
C636 C634 1.356 . S
C636 C637 1.348 . S
C637 C632 1.353 1_545 S
C637 C636 1.348 . S
C637 H689 0.929 . S
H638 C632 0.930 . S
H639 C635 0.930 . S
C640 N641 1.314 . S
C640 C642 1.353 1_655 S
C640 H646 0.930 . S
N641 Li617 1.990 . S
N641 C640 1.314 . S
N641 C644 1.279 . S
C642 C640 1.353 1_455 S
C642 C645 1.348 . S
C642 H690 0.929 . S
C643 C644 1.358 1_455 S
C643 C645 1.356 . S
C643 H691 0.930 . S
C644 N641 1.279 . S
C644 C643 1.358 1_655 S
C644 H647 0.930 . S
C645 C642 1.348 . S
C645 C643 1.356 . S
H646 C640 0.930 . S
H647 C644 0.930 . S
C648 C650 1.348 . S
C648 C651 1.356 . S
C648 O678 1.325 . S
N649 C652 1.314 . S
N649 C653 1.279 . S
C650 C648 1.348 . S
C650 C652 1.353 . S
C650 H692 0.929 . S
C651 C648 1.356 . S
C651 C653 1.358 . S
C651 H693 0.930 . S
C652 N649 1.314 . S
C652 C650 1.353 . S
C652 H694 0.930 . S
C653 N649 1.279 . S
C653 C651 1.358 . S
C653 H695 0.930 . S
C654 C655 1.348 . S
C654 C656 1.356 . S
C654 O679 1.325 . S
C655 C654 1.348 . S
C655 C657 1.353 . S
C655 H696 0.929 . S
C656 C654 1.356 . S
C656 C658 1.358 . S
C656 H697 0.930 . S
C657 C655 1.353 . S
C657 N659 1.314 . S
C657 H698 0.930 . S
C658 C656 1.358 . S
C658 N659 1.279 . S
C658 H699 0.930 . S
N659 C657 1.314 . S
N659 C658 1.279 . S
C660 C662 1.353 . S
C660 N663 1.314 . S
C660 H666 0.930 . S
C661 N663 1.279 . S
C661 C664 1.358 . S
C661 H667 0.930 . S
C662 C660 1.353 . S
C662 C665 1.348 . S
C662 H700 0.929 . S
N663 Li618 1.990 . S
N663 C660 1.314 . S
N663 C661 1.279 . S
C664 C661 1.358 . S
C664 C665 1.356 . S
C664 H701 0.930 . S
C665 C662 1.348 . S
C665 C664 1.356 . S
H666 C660 0.930 . S
H667 C661 0.930 . S
C668 N669 1.314 . S
C668 C670 1.353 . S
C668 H674 0.930 . S
N669 Li619 1.990 . S
N669 C668 1.314 . S
N669 C672 1.279 . S
C670 C668 1.353 . S
C670 C673 1.348 . S
C670 H702 0.929 . S
C671 C672 1.358 . S
C671 C673 1.356 . S
C671 H703 0.930 . S
C672 N669 1.279 . S
C672 C671 1.358 . S
C672 H675 0.930 . S
C673 C670 1.348 . S
C673 C671 1.356 . S
H674 C668 0.930 . S
H675 C672 0.930 . S
O676 Li616 1.956 . S
O676 Li617 1.970 . S
O676 Li618 1.961 . S
O676 C620 1.325 . S
O677 Li616 1.970 . S
O677 Li617 1.956 . S
O677 Li619 1.961 . S
O677 C626 1.325 . S
O678 Li616 1.961 . S
O678 Li618 1.956 . S
O678 Li619 1.970 . S
O678 C648 1.325 . S
O679 Li617 1.961 . S
O679 Li618 1.970 . S
O679 Li619 1.956 . S
O679 C654 1.325 . S
H680 C622 0.929 . S
H681 C623 0.930 1_565 S
H682 C624 0.930 . S
H683 C625 0.930 . S
H684 C627 0.930 . S
H685 C629 0.929 . S
H686 C630 0.930 . S
H687 C631 0.930 . S
H688 C634 0.930 . S
H689 C637 0.929 . S
H690 C642 0.929 . S
H691 C643 0.930 . S
H692 C650 0.929 . S
H693 C651 0.930 . S
H694 C652 0.930 . S
H695 C653 0.930 . S
H696 C655 0.929 . S
H697 C656 0.930 . S
H698 C657 0.930 . S
H699 C658 0.930 . S
H700 C662 0.929 . S
H701 C664 0.930 . S
H702 C670 0.929 . S
H703 C671 0.930 . S
C57 C233 3.161 1_465 S
C137 C293 3.267 . S
C372 C557 3.161 . S
C489 C645 3.267 1_645 S
C29 C469 3.926 . S
C117 C585 3.926 1_556 S
C665 C205 3.926 . S
C313 C401 3.926 1_556 S
C409 C49 3.689 . S
C108 C497 3.551 . S
C225 C577 3.689 . S
C321 C636 3.551 . S
C20 C381 3.689 . S
C460 C145 3.551 . S
C548 C196 3.689 . S
C284 C673 3.551 . S
