# Generated by pormake.
# Topology qtz-e, (6)-cn, num edge types: 1
# Building blocks:
#     Node 0, Type 0, BuildingBlock: KUMBUR_clean_sbu_0, # of connection points: 6
#     Node 1, Type 0, BuildingBlock: KUMBUR_clean_sbu_0, # of connection points: 6
#     Node 2, Type 0, BuildingBlock: KUMBUR_clean_sbu_0, # of connection points: 6
#     Node 3, Type 0, BuildingBlock: KUMBUR_clean_sbu_0, # of connection points: 6
#     Node 4, Type 0, BuildingBlock: KUMBUR_clean_sbu_0, # of connection points: 6
#     Node 5, Type 0, BuildingBlock: KUMBUR_clean_sbu_0, # of connection points: 6
#     Edge 6, Type (0, 0), BuildingBlock: AJUNOK_clean_linker_0, # of connection points: 2
#     Edge 7, Type (0, 0), BuildingBlock: AJUNOK_clean_linker_0, # of connection points: 2
#     Edge 8, Type (0, 0), BuildingBlock: AJUNOK_clean_linker_0, # of connection points: 2
#     Edge 9, Type (0, 0), BuildingBlock: AJUNOK_clean_linker_0, # of connection points: 2
#     Edge 10, Type (0, 0), BuildingBlock: AJUNOK_clean_linker_0, # of connection points: 2
#     Edge 11, Type (0, 0), BuildingBlock: AJUNOK_clean_linker_0, # of connection points: 2
#     Edge 12, Type (0, 0), BuildingBlock: AJUNOK_clean_linker_0, # of connection points: 2
#     Edge 13, Type (0, 0), BuildingBlock: AJUNOK_clean_linker_0, # of connection points: 2
#     Edge 14, Type (0, 0), BuildingBlock: AJUNOK_clean_linker_0, # of connection points: 2
#     Edge 15, Type (0, 0), BuildingBlock: AJUNOK_clean_linker_0, # of connection points: 2
#     Edge 16, Type (0, 0), BuildingBlock: AJUNOK_clean_linker_0, # of connection points: 2
#     Edge 17, Type (0, 0), BuildingBlock: AJUNOK_clean_linker_0, # of connection points: 2
#     Edge 18, Type (0, 0), BuildingBlock: AJUNOK_clean_linker_0, # of connection points: 2
#     Edge 19, Type (0, 0), BuildingBlock: AJUNOK_clean_linker_0, # of connection points: 2
#     Edge 20, Type (0, 0), BuildingBlock: AJUNOK_clean_linker_0, # of connection points: 2
#     Edge 21, Type (0, 0), BuildingBlock: AJUNOK_clean_linker_0, # of connection points: 2
#     Edge 22, Type (0, 0), BuildingBlock: AJUNOK_clean_linker_0, # of connection points: 2
#     Edge 23, Type (0, 0), BuildingBlock: AJUNOK_clean_linker_0, # of connection points: 2
# Relax obj value: 0.063
# Max RMSD: 0.154
# Mean RMSD: 0.154
data_MOF--net-qtz-e--node1-KUMBUR_clean_sbu_0--edge1-AJUNOK_clean_linker_0
_symmetry_space_group_name_H-M    P1
_symmetry_Int_Tables_number       1
_symmetry_cell_setting            triclinic
loop_
_symmetry_equiv_pos_as_xyz
'x, y, z'
_cell_length_a     21.976337
_cell_length_b     21.998704
_cell_length_c     37.035601
_cell_angle_alpha  90.207044
_cell_angle_beta   90.266237
_cell_angle_gamma 119.8671
loop_
_atom_site_label
_atom_site_type_symbol
_atom_site_fract_x
_atom_site_fract_y
_atom_site_fract_z
_atom_type_partial_charge
Tb0 Tb 0.25758 0.54355 0.06364 0.0
C1 C 0.05193 0.26967 1.00211 0.0
C2 C 0.05375 0.19498 0.04936 0.0
C3 C 0.94662 0.1591 1.01488 0.0
C4 C 0.08743 0.25721 0.02912 0.0
C5 C 0.98173 0.21984 0.9938 0.0
C6 C 0.98257 0.14674 0.0427 0.0
C7 C 0.98941 0.28956 0.9419 0.0
N8 N 0.08813 0.32833 0.98215 0.0
C9 C 0.05924 0.33703 0.95111 0.0
C10 C 0.95007 0.23123 0.96368 0.0
Tb11 Tb 0.20189 0.40315 0.99952 0.0
N12 N 0.15631 0.3044 0.03411 0.0
C13 C 0.1959 0.2908 0.05774 0.0
C14 C 0.09326 0.1822 0.0748 0.0
C15 C 0.16492 0.22986 0.0786 0.0
H16 H 0.08967 0.38208 0.9342 0.0
H17 H 0.19624 0.22002 0.0978 0.0
H18 H 0.95553 0.09883 0.05813 0.0
H19 H 0.96611 0.29779 0.91795 0.0
H20 H 0.25111 0.32753 0.06125 0.0
H21 H 0.09086 0.65765 0.08482 0.0
H22 H 0.06941 0.13507 0.09096 0.0
H23 H 0.43779 0.64126 0.06018 0.0
H24 H 0.13086 0.57234 0.09519 0.0
H25 H 0.52382 0.75064 0.03254 0.0
H26 H 0.89241 0.12043 1.00919 0.0
H27 H 0.16099 0.76163 0.0468 0.0
H28 H 0.27292 0.83626 1.01279 0.0
H29 H 0.89621 0.19418 0.95632 0.0
H30 H 0.39192 0.86081 0.99734 0.0
N31 N 0.22194 0.62624 0.06232 0.0
C32 C 0.16257 0.61808 0.07903 0.0
C33 C 0.1789 0.72448 0.05138 0.0
C34 C 0.24286 0.73606 0.03745 0.0
C35 C 0.13941 0.66607 0.07302 0.0
C36 C 0.26348 0.68579 0.04399 0.0
H37 H 0.48702 0.82989 1.00546 0.0
N38 N 0.34866 0.65187 0.04585 0.0
C39 C 0.46897 0.73615 0.03238 0.0
C40 C 0.32948 0.6989 0.0351 0.0
C41 C 0.41881 0.67271 0.04763 0.0
C42 C 0.44803 0.78067 1.01707 0.0
C43 C 0.37795 0.76373 1.01972 0.0
O44 O 0.303 0.51821 0.10696 0.0
O45 O 0.20213 0.42936 0.05683 0.0
O46 O 0.11574 0.4295 1.00396 0.0
O47 O 0.17555 0.54226 0.02873 0.0
O48 O 0.15429 0.47369 0.08524 0.0
O49 O 0.2621 0.58727 0.11488 0.0
O50 O 0.22002 0.39921 0.94354 0.0
O51 O 0.27087 0.51242 1.01103 0.0
O52 O 0.34785 0.52929 0.05462 0.0
O53 O 0.30768 0.42734 1.02014 0.0
O54 O 0.2221 0.4882 0.96197 0.0
O55 O 0.24453 0.34104 0.98067 0.0
C56 C 0.14778 0.41479 0.07559 0.0
C57 C 0.35278 0.60217 0.15415 0.0
C58 C 0.38768 0.66271 0.21208 0.0
C59 C 0.3359 0.62306 0.18634 0.0
C60 C 0.45795 0.68322 0.20485 0.0
C61 C 0.423 0.62228 0.14708 0.0
C62 C 0.47537 0.66278 0.17242 0.0
C63 C 0.12026 0.49072 1.01244 0.0
C64 C 0.29453 0.55813 0.12964 0.0
C65 C 0.35591 0.81143 1.00992 0.0
C66 C 0.28825 0.79757 1.0188 0.0
C67 C 0.26686 0.53924 0.98183 0.0
C68 C 0.22152 0.29886 0.91942 0.0
C69 C 0.26771 0.29937 0.89215 0.0
C70 C 0.245 0.24276 0.86696 0.0
C71 C 0.17562 0.18713 0.86937 0.0
C72 C 0.15294 0.24192 0.92062 0.0
C73 C 0.13024 0.18694 0.89572 0.0
C74 C 0.35689 0.47945 0.04003 0.0
C75 C 0.24471 0.35676 0.94682 0.0
H76 H 0.28176 0.60904 0.19109 0.0
H77 H 0.49897 0.71482 0.22415 0.0
H78 H 0.43737 0.6071 0.12219 0.0
H79 H 0.52953 0.67846 0.16689 0.0
H80 H 0.3212 0.34251 0.89112 0.0
H81 H 0.15645 0.14313 0.85078 0.0
H82 H 0.11684 0.2396 0.94103 0.0
H83 H 0.07708 0.14335 0.89708 0.0
Tb84 Tb 0.73837 0.24354 0.4062 0.0
C85 C 0.83555 0.06026 0.34843 0.0
C86 C 0.93631 0.09445 0.38729 0.0
C87 C 0.86735 0.97361 0.3668 0.0
C88 C 0.89085 0.11097 0.36814 0.0
C89 C 0.82442 0.99141 0.34646 0.0
C90 C 0.92319 0.02508 0.38727 0.0
C91 C 0.73519 0.96552 0.30125 0.0
N92 N 0.79573 0.07978 0.3291 0.0
C93 C 0.7487 0.03459 0.30402 0.0
C94 C 0.77232 0.9434 0.32308 0.0
Tb95 Tb 0.8189 0.19315 0.33713 0.0
N96 N 0.90201 0.17731 0.36709 0.0
C97 C 0.96078 0.23079 0.38305 0.0
C98 C 0.99452 0.14845 0.40509 0.0
C99 C 1.00728 0.21708 0.40253 0.0
H100 H 0.71979 0.05132 0.28692 0.0
H101 H 0.0528 0.2595 0.41569 0.0
H102 H 0.95706 1.01117 0.40212 0.0
H103 H 0.69631 0.92949 0.28221 0.0
H104 H 0.97156 0.28409 0.38188 0.0
H105 H 0.53879 0.27127 0.33075 0.0
H106 H 0.03065 0.13797 0.42015 0.0
H107 H 0.83759 0.33524 0.47714 0.0
H108 H 0.59877 0.20998 0.34956 0.0
H109 H 0.86697 0.44419 0.50892 0.0
H110 H 0.85909 0.92078 0.36603 0.0
H111 H 0.57287 0.38813 0.35559 0.0
H112 H 0.6451 0.48399 0.39926 0.0
H113 H 0.76211 0.89001 0.32075 0.0
H114 H 0.73241 0.53002 0.44829 0.0
N115 N 0.67228 0.29175 0.38515 0.0
C116 C 0.61627 0.2606 0.36158 0.0
C117 C 0.60072 0.36157 0.36423 0.0
C118 C 0.65407 0.39138 0.39018 0.0
C119 C 0.58118 0.29556 0.35029 0.0
C120 C 0.68928 0.35494 0.40036 0.0
H121 H 0.81443 0.51527 0.48947 0.0
N122 N 0.77161 0.34521 0.43773 0.0
C123 C 0.83169 0.4277 0.48589 0.0
C124 C 0.73949 0.38182 0.42776 0.0
C125 C 0.81519 0.3659 0.46737 0.0
C126 C 0.80176 0.46754 0.47491 0.0
C127 C 0.75433 0.44437 0.44593 0.0
O128 O 0.68669 0.1496 0.43584 0.0
O129 O 0.78915 0.18261 0.39377 0.0
O130 O 0.70935 0.10511 0.34599 0.0
O131 O 0.65476 0.15928 0.37559 0.0
O132 O 0.82317 0.24532 0.4382 0.0
O133 O 0.67256 0.23597 0.44924 0.0
O134 O 0.82145 0.18274 0.28041 0.0
O135 O 0.7686 0.25229 0.35027 0.0
O136 O 0.83563 0.34136 0.39605 0.0
O137 O 0.88929 0.30665 0.35235 0.0
O138 O 0.74393 0.20188 0.30154 0.0
O139 O 0.91396 0.25541 0.30931 0.0
C140 C 0.82816 0.19663 0.42153 0.0
C141 C 0.68855 0.17615 0.49766 0.0
C142 C 0.71773 0.22792 0.55801 0.0
C143 C 0.68842 0.2227 0.52351 0.0
C144 C 0.7512 0.18896 0.56541 0.0
C145 C 0.71366 0.13112 0.50753 0.0
C146 C 0.7466 0.13893 0.54084 0.0
C147 C 0.65266 0.106 0.35815 0.0
C148 C 0.66556 0.177 0.46024 0.0
C149 C 0.72094 0.48148 0.43496 0.0
C150 C 0.67133 0.45532 0.407 0.0
C151 C 0.73399 0.24404 0.3216 0.0
C152 C 0.93093 0.21149 0.25338 0.0
C153 C 0.96228 0.25102 0.22165 0.0
C154 C 1.00457 0.23486 0.19903 0.0
C155 C 1.0132 0.17772 0.2084 0.0
C156 C 0.94149 0.15534 0.26176 0.0
C157 C 0.98196 0.1385 0.23935 0.0
C158 C 0.88784 0.35521 0.37379 0.0
C159 C 0.88773 0.229 0.27767 0.0
H160 H 0.66185 0.25163 0.51715 0.0
H161 H 0.77545 0.19267 0.59147 0.0
H162 H 0.70786 0.09017 0.48945 0.0
H163 H 0.76678 0.10487 0.54824 0.0
H164 H 0.95491 0.29486 0.215 0.0
H165 H 0.04417 0.16313 0.19158 0.0
H166 H 0.91844 0.12444 0.28568 0.0
H167 H 0.98941 0.09479 0.24609 0.0
Tb168 Tb 0.53559 0.748 0.73923 0.0
C169 C 0.81908 0.84074 0.68726 0.0
C170 C 0.88356 0.94339 0.72508 0.0
C171 C 0.93695 0.87397 0.7078 0.0
C172 C 0.82252 0.8968 0.70553 0.0
C173 C 0.87714 0.82989 0.68704 0.0
C174 C 0.94009 0.93062 0.7269 0.0
C175 C 0.81621 0.73898 0.64229 0.0
N176 N 0.76089 0.80036 0.66719 0.0
C177 C 0.76033 0.75237 0.64326 0.0
C178 C 0.87443 0.77709 0.66477 0.0
Tb179 Tb 0.67 0.82346 0.67184 0.0
N180 N 0.76736 0.90783 0.70241 0.0
C181 C 0.77167 0.96737 0.71668 0.0
C182 C 0.88667 1.00242 0.74124 0.0
C183 C 0.83079 1.01491 0.7366 0.0
H184 H 0.71544 0.7227 0.62572 0.0
H185 H 0.83303 0.06101 0.74849 0.0
H186 H 0.98723 0.96542 0.74202 0.0
H187 H 0.81442 0.69948 0.62411 0.0
H188 H 0.72901 0.97782 0.71388 0.0
H189 H 0.30967 0.53351 0.67149 0.0
H190 H 0.93249 0.03941 0.75658 0.0
H191 H 0.54099 0.85931 0.80363 0.0
H192 H 0.43 0.5954 0.69342 0.0
H193 H 0.46235 0.89891 0.82684 0.0
H194 H 0.98182 0.86605 0.70835 0.0
H195 H 0.22905 0.57804 0.68512 0.0
H196 H 0.20627 0.66307 0.71886 0.0
H197 H 0.91794 0.76708 0.66376 0.0
H198 H 0.2469 0.7608 0.76208 0.0
N199 N 0.4229 0.68055 0.71738 0.0
C200 C 0.39769 0.61809 0.69926 0.0
C201 C 0.28299 0.60695 0.6945 0.0
C202 C 0.30663 0.66691 0.71601 0.0
C203 C 0.32829 0.58162 0.68681 0.0
C204 C 0.3775 0.70279 0.72751 0.0
H205 H 0.34176 0.84837 0.80261 0.0
N206 N 0.46775 0.78936 0.76423 0.0
C207 C 0.44448 0.8598 0.80555 0.0
C208 C 0.40021 0.75803 0.75205 0.0
C209 C 0.48924 0.83734 0.79197 0.0
C210 C 0.37643 0.8311 0.79183 0.0
C211 C 0.35302 0.7786 0.76535 0.0
O212 O 0.57373 0.70084 0.77555 0.0
O213 O 0.64728 0.79793 0.72861 0.0
O214 O 0.65112 0.71584 0.68505 0.0
O215 O 0.54183 0.66237 0.714 0.0
O216 O 0.61717 0.83465 0.77099 0.0
O217 O 0.47103 0.68645 0.7818 0.0
O218 O 0.68316 0.82257 0.61522 0.0
O219 O 0.55856 0.77089 0.68225 0.0
O220 O 0.53146 0.84 0.72249 0.0
O221 O 0.6259 0.8948 0.68279 0.0
O222 O 0.59191 0.74069 0.63772 0.0
O223 O 0.70418 0.91696 0.64184 0.0
C224 C 0.67139 0.83825 0.75582 0.0
C225 C 0.53773 0.70619 0.83502 0.0
C226 C 0.49878 0.71963 0.89447 0.0
C227 C 0.48355 0.69463 0.85873 0.0
C228 C 0.56903 0.75971 0.90583 0.0
C229 C 0.60728 0.742 0.8478 0.0
C230 C 0.62298 0.77028 0.8826 0.0
C231 C 0.59451 0.65995 0.69848 0.0
C232 C 0.52123 0.68121 0.7972 0.0
C233 C 0.28361 0.74514 0.75248 0.0
C234 C 0.26057 0.68966 0.72776 0.0
C235 C 0.53699 0.73003 0.65519 0.0
C236 C 0.76669 0.92937 0.58681 0.0
C237 C 0.76348 0.96571 0.5555 0.0
C238 C 0.82371 1.00437 0.5333 0.0
C239 C 0.88576 1.00453 0.54279 0.0
C240 C 0.83015 0.93169 0.59498 0.0
C241 C 0.88876 0.96848 0.57309 0.0
C242 C 0.57185 0.89169 0.70093 0.0
C243 C 0.7046 0.88885 0.61091 0.0
H244 H 0.42948 0.66262 0.84992 0.0
H245 H 0.58184 0.7789 0.93338 0.0
H246 H 0.64938 0.7473 0.83111 0.0
H247 H 0.67684 0.79824 0.89202 0.0
H248 H 0.71517 0.96533 0.54903 0.0
H249 H 0.93262 0.03327 0.52672 0.0
H250 H 0.83461 0.90506 0.61843 0.0
H251 H 0.93728 0.96959 0.57987 0.0
Tb252 Tb 0.76657 0.52778 0.08208 0.0
C253 C 0.90253 0.80091 0.04663 0.0
C254 C 0.82881 0.85325 0.05075 0.0
C255 C 0.94692 0.91493 0.07565 0.0
C256 C 0.83881 0.79674 0.04089 0.0
C257 C 0.95799 0.8607 0.06348 0.0
C258 C 0.88236 0.91125 0.06924 0.0
C259 C 0.0324 0.81114 0.05287 0.0
N260 N 0.91085 0.74721 0.0346 0.0
C261 C 0.97572 0.7528 0.0366 0.0
C262 C 1.02327 0.86486 0.06691 0.0
Tb263 Tb 0.81323 0.65068 1.01044 0.0
N264 N 0.78881 0.74002 1.02276 0.0
C265 C 0.73241 0.74288 1.00845 0.0
C266 C 0.76693 0.85151 0.04003 0.0
C267 C 0.71938 0.79692 1.0179 0.0
H268 H 0.98512 0.71279 0.0261 0.0
H269 H 0.67312 0.79686 1.00766 0.0
H270 H 0.87529 0.95464 0.07748 0.0
H271 H 0.08308 0.81438 0.05475 0.0
H272 H 0.69603 0.70257 0.99012 0.0
H273 H 0.73185 0.29453 1.01202 0.0
H274 H 0.75726 0.89383 0.04699 0.0
H275 H 0.67437 0.53954 0.15068 0.0
H276 H 0.79778 0.41547 0.03304 0.0
H277 H 0.55696 0.46802 0.17659 0.0
H278 H 0.98858 0.96083 0.08902 0.0
H279 H 0.60701 0.22063 0.02802 0.0
H280 H 0.50388 0.20636 0.06342 0.0
H281 H 0.06719 0.90982 0.07965 0.0
H282 H 0.45597 0.25353 0.10837 0.0
N283 N 0.71215 0.41376 0.0609 0.0
C284 C 0.74423 0.38501 0.04121 0.0
C285 C 0.63602 0.27431 0.03767 0.0
C286 C 0.60465 0.30179 0.06016 0.0
C287 C 0.70651 0.31572 0.02877 0.0
C288 C 0.6447 0.37221 0.07182 0.0
H289 H 0.47586 0.35054 0.15126 0.0
N290 N 0.65916 0.46521 0.10934 0.0
C291 C 0.57297 0.4482 0.15392 0.0
C292 C 0.61752 0.3985 0.09714 0.0
C293 C 0.63956 0.4888 0.13897 0.0
C294 C 0.52734 0.38193 0.13954 0.0
C295 C 0.54996 0.35559 0.11138 0.0
O296 O 0.84719 0.56846 0.12131 0.0
O297 O 0.83035 0.63783 0.06717 0.0
O298 O 0.88873 0.60839 1.00818 0.0
O299 O 0.8566 0.52906 0.05605 0.0
O300 O 0.76281 0.61463 0.10863 0.0
O301 O 0.76906 0.46112 0.12246 0.0
O302 O 0.88481 0.68852 0.96675 0.0
O303 O 0.77499 0.54231 1.02457 0.0
O304 O 0.67025 0.52953 0.06983 0.0
O305 O 0.70335 0.61792 0.02706 0.0
O306 O 0.7249 0.56107 0.98415 0.0
O307 O 0.78003 0.6666 0.95931 0.0
C308 C 0.81537 0.66603 0.09307 0.0
C309 C 0.80115 0.52082 0.17836 0.0
C310 C 0.75398 0.46856 0.23682 0.0
C311 C 0.7757 0.46374 0.20176 0.0
C312 C 0.75861 0.5315 0.24848 0.0
C313 C 0.80601 0.58364 0.19073 0.0
C314 C 0.78471 0.58884 0.22545 0.0
C315 C 0.89901 0.56404 0.02901 0.0
C316 C 0.81809 0.51267 0.14068 0.0
C317 C 0.50837 0.28701 0.09811 0.0
C318 C 0.53565 0.26018 0.07251 0.0
C319 C 0.72638 0.51159 1.00162 0.0
C320 C 0.86453 0.75698 0.92206 0.0
C321 C 0.82492 0.7584 0.89157 0.0
C322 C 0.8487 0.82026 0.87046 0.0
C323 C 0.91312 0.87927 0.88 0.0
C324 C 0.92785 0.81794 0.93065 0.0
C325 C 0.95191 0.87808 0.90969 0.0
C326 C 0.65607 0.56837 0.0483 0.0
C327 C 0.84076 0.69208 0.94438 0.0
H328 H 0.77388 0.41589 0.19278 0.0
H329 H 0.74271 0.53643 0.27548 0.0
H330 H 0.82536 0.62852 0.17358 0.0
H331 H 0.78854 0.6375 0.23449 0.0
H332 H 0.77549 0.71219 0.88473 0.0
H333 H 0.93356 0.927 0.86443 0.0
H334 H 0.95925 0.81922 0.95359 0.0
H335 H 1.0011 0.92445 0.9166 0.0
Tb336 Tb 0.26947 0.73425 0.39672 0.0
C337 C 0.20886 0.96433 0.36201 0.0
C338 C 0.12921 0.94872 0.41044 0.0
C339 C 0.20589 0.06528 0.38673 0.0
C340 C 0.1583 0.92122 0.3859 0.0
C341 C 0.23162 0.03656 0.36111 0.0
C342 C 0.15479 0.02136 0.41146 0.0
C343 C 0.29533 0.04407 0.30676 0.0
N344 N 0.23101 0.93411 0.33744 0.0
C345 C 0.2704 0.97194 0.3087 0.0
C346 C 0.2769 0.07685 0.33349 0.0
Tb347 Tb 0.19163 0.81677 0.34378 0.0
N348 N 0.13426 0.85149 0.3833 0.0
C349 C 0.07746 0.8055 0.40303 0.0
C350 C 0.07371 0.90213 0.43218 0.0
C351 C 0.04696 0.8301 0.428 0.0
H352 H 0.28427 0.94659 0.28786 0.0
H353 H 1.00318 0.79345 0.44419 0.0
H354 H 0.13369 0.0437 0.43037 0.0
H355 H 0.32842 0.07421 0.2846 0.0
H356 H 0.05673 0.74981 0.40055 0.0
H357 H 0.46724 0.70927 0.32178 0.0
H358 H 0.04999 0.92105 0.45148 0.0
H359 H 0.13835 0.61994 0.44827 0.0
H360 H 0.41254 0.77249 0.34827 0.0
H361 H 0.08297 0.49488 0.46336 0.0
H362 H 0.22331 0.12083 0.38684 0.0
H363 H 0.41318 0.58123 0.32975 0.0
H364 H 0.31873 0.47077 0.35774 0.0
H365 H 0.29567 0.13257 0.33179 0.0
H366 H 0.21492 0.41256 0.39669 0.0
N367 N 0.32488 0.68087 0.36976 0.0
C368 C 0.38707 0.71644 0.35167 0.0
C369 C 0.38837 0.60864 0.34133 0.0
C370 C 0.32729 0.57307 0.36176 0.0
C371 C 0.41899 0.68087 0.33677 0.0
C372 C 0.29702 0.61126 0.37619 0.0
H373 H 0.12703 0.42123 0.43639 0.0
N374 N 0.2132 0.618 0.41251 0.0
C375 C 0.12701 0.51783 0.44508 0.0
C376 C 0.23959 0.57881 0.39856 0.0
C377 C 0.15888 0.58903 0.43652 0.0
C378 C 0.15198 0.47644 0.42979 0.0
C379 C 0.20938 0.5069 0.40649 0.0
O380 O 0.2869 0.73706 0.45261 0.0
O381 O 0.2339 0.81078 0.39616 0.0
O382 O 0.30495 0.89755 0.35248 0.0
O383 O 0.35342 0.82946 0.37304 0.0
O384 O 0.20455 0.74457 0.43837 0.0
O385 O 0.37359 0.78078 0.41509 0.0
O386 O 0.17261 0.81612 0.28771 0.0
O387 O 0.23848 0.75203 0.34457 0.0
O388 O 0.17899 0.65083 0.36967 0.0
O389 O 0.11315 0.70568 0.36086 0.0
O390 O 0.254 0.81171 0.29924 0.0
O391 O 0.08707 0.77476 0.32445 0.0
C392 C 0.2048 0.7995 0.4267 0.0
C393 C 0.38339 0.72358 0.46695 0.0
C394 C 0.40752 0.68406 0.52363 0.0
C395 C 0.37655 0.71657 0.50446 0.0
C396 C 0.4411 0.65382 0.50438 0.0
C397 C 0.41832 0.69437 0.44824 0.0
C398 C 0.44575 0.65847 0.46689 0.0
C399 C 0.35951 0.88898 0.36131 0.0
C400 C 0.35403 0.76204 0.44831 0.0
C401 C 0.23765 0.46801 0.39112 0.0
C402 C 0.29662 0.50107 0.36887 0.0
C403 C 0.26654 0.76606 0.31375 0.0
C404 C 0.07175 0.82059 0.26842 0.0
C405 C 0.03159 0.78705 0.23672 0.0
C406 C 1.0023 0.8198 0.21509 0.0
C407 C 1.0163 0.88725 0.22537 0.0
C408 C 0.08219 0.88679 0.278 0.0
C409 C 0.05518 0.91989 0.25653 0.0
C410 C 0.11831 0.64762 0.36406 0.0
C411 C 0.1051 0.78827 0.29065 0.0
H412 H 0.34888 0.73845 0.51879 0.0
H413 H 0.46659 0.6293 0.51835 0.0
H414 H 0.4253 0.69968 0.41941 0.0
H415 H 0.47269 0.63615 0.45235 0.0
H416 H 1.02262 0.73558 0.22919 0.0
H417 H 0.9974 0.91533 0.20912 0.0
H418 H 0.11193 0.91339 0.30198 0.0
H419 H 0.06469 0.97153 0.26402 0.0
Tb420 Tb 0.55894 0.26408 0.74095 0.0
C421 C 0.27699 0.20207 0.69229 0.0
C422 C 0.20973 0.10909 0.73442 0.0
C423 C 0.16612 0.18579 0.71484 0.0
C424 C 0.26955 0.14691 0.71275 0.0
C425 C 0.22451 0.22115 0.69221 0.0
C426 C 0.15876 0.1298 0.73597 0.0
C427 C 0.28769 0.30321 0.64474 0.0
N428 N 0.33377 0.23423 0.67072 0.0
C429 C 0.33791 0.28185 0.6457 0.0
C430 C 0.23124 0.27352 0.66854 0.0
Tb431 Tb 0.41631 0.19955 0.67578 0.0
N432 N 0.31983 0.12862 0.71027 0.0
C433 C 0.31142 0.07005 0.72756 0.0
C434 C 0.20231 0.05081 0.75321 0.0
C435 C 0.25305 0.03078 0.74943 0.0
H436 H 0.38124 0.30482 0.62703 0.0
H437 H 0.24753 0.98534 0.76355 0.0
H438 H 0.11272 0.10184 0.7527 0.0
H439 H 0.29245 0.34236 0.62559 0.0
H440 H 0.35039 0.05422 0.72571 0.0
H441 H 0.7835 0.44705 0.66271 0.0
H442 H 0.15719 0.02035 0.77018 0.0
H443 H 0.54498 0.1483 0.80253 0.0
H444 H 0.66803 0.40191 0.69075 0.0
H445 H 0.61221 0.09148 0.82206 0.0
H446 H 0.12556 0.20011 0.71549 0.0
H447 H 0.85103 0.38583 0.67162 0.0
H448 H 0.86278 0.29105 0.70303 0.0
H449 H 0.19213 0.28979 0.66763 0.0
H450 H 0.817 0.19518 0.7472 0.0
N451 N 0.66727 0.31298 0.71417 0.0
C452 C 0.69627 0.37407 0.69496 0.0
C453 C 0.79987 0.36523 0.68386 0.0
C454 C 0.77267 0.30614 0.70597 0.0
C455 C 0.76206 0.4001 0.67891 0.0
C456 C 0.70563 0.28126 0.72106 0.0
H457 H 0.72415 0.12127 0.79228 0.0
N458 N 0.6167 0.20749 0.76097 0.0
C459 C 0.63165 0.12932 0.80043 0.0
C460 C 0.68029 0.22775 0.74599 0.0
C461 C 0.5937 0.16158 0.7893 0.0
C462 C 0.69485 0.1463 0.78356 0.0
C463 C 0.72059 0.197 0.75643 0.0
O464 O 0.55506 0.28098 0.79658 0.0
O465 O 0.44981 0.23568 0.73143 0.0
O466 O 0.45352 0.31398 0.68319 0.0
O467 O 0.55515 0.35391 0.7191 0.0
O468 O 0.47228 0.19821 0.77675 0.0
O469 O 0.63116 0.36282 0.7629 0.0
O470 O 0.39779 0.19496 0.61941 0.0
O471 O 0.52553 0.23933 0.68538 0.0
O472 O 0.54504 0.16408 0.72404 0.0
O473 O 0.44626 0.1164 0.68632 0.0
O474 O 0.49847 0.27045 0.63901 0.0
O475 O 0.37126 0.10149 0.64836 0.0
C476 C 0.42329 0.20386 0.76076 0.0
C477 C 0.66722 0.3473 0.82089 0.0
C478 C 0.70235 0.34158 0.88264 0.0
C479 C 0.65636 0.34705 0.85803 0.0
C480 C 0.75593 0.33046 0.86924 0.0
C481 C 0.72668 0.34588 0.80843 0.0
C482 C 0.76896 0.33435 0.83232 0.0
C483 C 0.51095 0.36478 0.69959 0.0
C484 C 0.61239 0.34143 0.79585 0.0
C485 C 0.78561 0.21881 0.73995 0.0
C486 C 0.81157 0.27324 0.71471 0.0
C487 C 0.5508 0.2749 0.65704 0.0
C488 C 0.30888 0.08759 0.59266 0.0
C489 C 0.30766 0.04292 0.5641 0.0
C490 C 0.24733 1.00598 0.54135 0.0
C491 C 0.18983 0.01603 0.54739 0.0
C492 C 0.24973 0.09498 0.59769 0.0
C493 C 0.19109 0.05986 0.57515 0.0
C494 C 0.49797 0.11291 0.70381 0.0
C495 C 0.3718 0.12746 0.61672 0.0
H496 H 0.6141 0.35482 0.86739 0.0
H497 H 0.79122 0.32442 0.88747 0.0
H498 H 0.74028 0.35306 0.78034 0.0
H499 H 0.81304 0.33037 0.82228 0.0
H500 H 0.35265 0.03605 0.56004 0.0
H501 H 0.14317 0.98924 0.53061 0.0
H502 H 0.24892 0.12827 0.61905 0.0
H503 H 0.14595 0.06638 0.57933 0.0
C504 C 0.36679 0.78321 0.27672 0.0
C505 C 0.30454 0.73693 0.29471 0.0
C506 C 0.3979 0.75823 0.25236 0.0
C507 C 0.36683 0.68623 0.24479 0.0
H508 H 0.39006 0.83933 0.28048 0.0
H509 H 0.44347 0.79578 0.23747 0.0
S510 S 0.20528 0.54349 0.2856 0.0
N511 N 0.21336 0.61614 0.30335 0.0
N512 N 0.27388 0.56861 0.25921 0.0
C513 C 0.30675 0.63925 0.2641 0.0
C514 C 0.2746 0.66478 0.28842 0.0
C515 C 0.6287 0.22757 0.64312 0.0
C516 C 0.61013 0.27873 0.63708 0.0
C517 C 0.67148 0.21734 0.61953 0.0
C518 C 0.69706 0.25792 0.58821 0.0
H519 H 0.60597 0.19164 0.66475 0.0
H520 H 0.67783 0.17227 0.62427 0.0
S521 S 0.67788 0.41142 0.56464 0.0
N522 N 0.62958 0.37891 0.60117 0.0
N523 N 0.71283 0.36149 0.55628 0.0
C524 C 0.6858 0.31522 0.58389 0.0
C525 C 0.64118 0.32495 0.60822 0.0
C526 C 0.39409 0.60896 0.97148 0.0
C527 C 0.32699 0.59928 0.9651 0.0
C528 C 0.45095 0.65384 0.9505 0.0
C529 C 0.44252 0.68978 0.92149 0.0
H530 H 0.40258 0.57888 0.99154 0.0
H531 H 0.50056 0.65576 0.95534 0.0
S532 S 0.27859 0.68783 0.89524 0.0
N533 N 0.25569 0.63309 0.92957 0.0
N534 N 0.36334 0.7181 0.88911 0.0
C535 C 0.37649 0.68395 0.91582 0.0
C536 C 0.31838 0.63822 0.93771 0.0
C537 C 0.7626 0.36826 0.31661 0.0
C538 C 0.72368 0.2986 0.30458 0.0
C539 C 0.76769 0.42327 0.29577 0.0
C540 C 0.73362 0.41008 0.26212 0.0
H541 H 0.79271 0.38077 0.34113 0.0
H542 H 0.80264 0.4765 0.3049 0.0
S543 S 0.61241 0.23577 0.22223 0.0
N544 N 0.64197 0.21848 0.25964 0.0
N545 N 0.64978 0.32202 0.22056 0.0
C546 C 0.68861 0.34024 0.25149 0.0
C547 C 0.68408 0.28435 0.27267 0.0
C548 C 0.44102 0.64456 0.61743 0.0
C549 C 0.47424 0.7114 0.63356 0.0
C550 C 0.40995 0.63343 0.5833 0.0
C551 C 0.41396 0.68965 0.5635 0.0
H552 H 0.44608 0.60238 0.6293 0.0
H553 H 0.38972 0.58229 0.57079 0.0
S554 S 0.48748 0.87311 0.59595 0.0
N555 N 0.50069 0.83192 0.62952 0.0
N556 N 0.44582 0.81282 0.56454 0.0
C557 C 0.43974 0.75494 0.58104 0.0
C558 C 0.46929 0.7654 0.61636 0.0
C559 C 0.77783 0.45882 0.96268 0.0
C560 C 0.71827 0.45279 0.97966 0.0
C561 C 0.77181 0.41544 0.934 0.0
C562 C 0.70565 0.36524 0.92045 0.0
H563 H 0.8295 0.50125 0.96912 0.0
H564 H 0.81961 0.42731 0.92001 0.0
S565 S 0.53363 0.32 0.96042 0.0
N566 N 0.59156 0.38755 0.98465 0.0
N567 N 0.57931 0.30345 0.93057 0.0
C568 C 0.64556 0.35375 0.93964 0.0
C569 C 0.65204 0.39869 0.96903 0.0
C570 C 0.46751 0.5121 0.07465 0.0
C571 C 0.43046 0.49233 0.04157 0.0
C572 C 0.54048 0.53821 0.07647 0.0
C573 C 0.5803 0.54784 0.04515 0.0
H574 H 0.43972 0.50771 0.09943 0.0
H575 H 0.56614 0.55194 0.10264 0.0
S576 S 0.5088 0.5015 0.95182 0.0
N577 N 0.43918 0.481 0.97682 0.0
N578 N 0.57633 0.53256 0.98002 0.0
C579 C 0.5439 0.52753 1.01189 0.0
C580 C 0.46912 0.49897 1.01017 0.0
C581 C 0.06642 0.51713 0.3564 0.0
C582 C 0.05598 0.57472 0.36315 0.0
C583 C 1.01218 0.44718 0.3594 0.0
C584 C 0.94454 0.43065 0.37014 0.0
H585 H 0.11775 0.52575 0.34948 0.0
H586 H 0.02409 0.40577 0.35414 0.0
S587 S 0.8871 0.5612 0.38854 0.0
N588 N 0.97107 0.60972 0.3789 0.0
N589 N 0.86932 0.47905 0.38558 0.0
C590 C 0.93271 0.48768 0.37627 0.0
C591 C 0.98806 0.55921 0.37243 0.0
C592 C 0.5842 0.06973 0.69806 0.0
C593 C 0.5134 0.05443 0.69745 0.0
C594 C 0.60296 0.01748 0.69712 0.0
C595 C 0.55171 0.94669 0.69599 0.0
H596 H 0.62659 0.1229 0.69979 0.0
H597 H 0.65797 0.03282 0.69895 0.0
S598 S 0.35925 0.87682 0.68733 0.0
N599 N 0.39229 0.96246 0.6908 0.0
N600 N 0.4267 0.86327 0.68952 0.0
C601 C 0.48066 0.93 0.69311 0.0
C602 C 0.46171 0.98388 0.69354 0.0
C603 C 0.58304 0.55428 0.72793 0.0
C604 C 0.58486 0.58859 0.69574 0.0
C605 C 0.5571 0.48178 0.72866 0.0
C606 C 0.53006 0.43975 0.69739 0.0
H607 H 0.60003 0.58358 0.75308 0.0
H608 H 0.55745 0.45814 0.75424 0.0
S609 S 0.52238 0.50403 0.60605 0.0
N610 N 0.55731 0.57541 0.63163 0.0
N611 N 0.508 0.43847 0.63299 0.0
C612 C 0.53145 0.47326 0.66489 0.0
C613 C 0.55899 0.54778 0.66408 0.0
C614 C 0.99932 0.46191 0.03026 0.0
C615 C 0.05862 0.50183 1.00903 0.0
C616 C 0.94892 0.48262 0.03606 0.0
C617 C 0.95345 0.54321 1.01993 0.0
H618 H 0.99416 0.41678 0.0446 0.0
H619 H 0.90707 0.45125 0.05455 0.0
S620 S 0.09881 0.66514 0.9607 0.0
N621 N 0.12007 0.60538 0.97183 0.0
N622 N 1.02297 0.64151 0.98041 0.0
C623 C 1.01144 0.58209 0.9973 0.0
C624 C 0.06432 0.56215 0.99246 0.0
C625 C 0.4805 0.95362 0.38691 0.0
C626 C 0.43354 0.94709 0.35904 0.0
C627 C 0.55263 1.0015 0.38488 0.0
C628 C 0.58153 0.04436 0.35462 0.0
H629 H 0.46115 0.92183 0.41093 0.0
H630 H 0.58572 1.00679 0.40782 0.0
S631 S 0.48304 0.04786 0.27386 0.0
N632 N 0.42222 0.98703 0.29969 0.0
N633 N 0.558 0.07827 0.29623 0.0
C634 C 0.5357 0.03853 0.32643 0.0
C635 C 0.46176 0.98963 0.32852 0.0
C636 C 0.34315 0.16779 0.81426 0.0
C637 C 0.37205 0.21244 0.78433 0.0
C638 C 0.30375 0.17903 0.84074 0.0
C639 C 0.29232 0.23665 0.83936 0.0
H640 H 0.35189 0.1238 0.81755 0.0
H641 H 0.28236 0.1423 0.86284 0.0
S642 S 0.35437 0.36903 0.76636 0.0
N643 N 0.38461 0.31645 0.75472 0.0
N644 N 0.31123 0.33775 0.80448 0.0
C645 C 0.32015 0.28156 0.80943 0.0
C646 C 0.35969 0.26949 0.78203 0.0
C647 C 1.00407 0.2881 0.13817 0.0
C648 C 0.04136 0.27714 0.16605 0.0
C649 C 0.03837 0.32709 0.10705 0.0
C650 C 0.11139 0.35667 0.1022 0.0
H651 H 0.948 0.26693 0.14057 0.0
H652 H 1.00778 0.33658 0.08721 0.0
S653 S 0.2339 0.34651 0.16796 0.0
N654 N 0.15607 0.30031 0.18675 0.0
N655 N 0.21989 0.37444 0.12919 0.0
C656 C 0.14906 0.34574 0.12982 0.0
C657 C 0.11426 0.30568 0.16132 0.0
C658 C 0.87736 0.12171 0.50201 0.0
C659 C 0.82633 0.04977 0.50197 0.0
C660 C 0.88038 0.16717 0.47441 0.0
C661 C 0.83384 0.14315 0.44465 0.0
H662 H 0.91357 0.14391 0.52456 0.0
H663 H 0.91795 0.22257 0.47721 0.0
S664 S 0.69601 0.95775 0.42872 0.0
N665 N 0.73212 0.95548 0.46759 0.0
N666 N 0.73833 0.04031 0.41554 0.0
C667 C 0.78581 0.0703 0.44278 0.0
C668 C 0.7818 0.02399 0.47145 0.0
C669 C 0.74816 0.79002 0.77986 0.0
C670 C 0.72798 0.84194 0.7805 0.0
C671 C 0.7863 0.78235 0.80892 0.0
C672 C 0.80689 0.82689 0.83957 0.0
H673 H 0.73076 0.75239 0.75786 0.0
H674 H 0.79906 0.74079 0.80756 0.0
S675 S 0.77254 0.97462 0.853 0.0
N676 N 0.73548 0.94068 0.81361 0.0
N677 N 0.80753 0.92761 0.86711 0.0
C678 C 0.79031 0.8812 0.83934 0.0
C679 C 0.75109 0.88843 0.81017 0.0
C680 C 0.97701 0.75297 0.1553 0.0
C681 C 0.95693 0.78529 0.18201 0.0
C682 C 0.93469 0.72053 0.12442 0.0
C683 C 0.86985 0.71831 0.11879 0.0
H684 H 0.02548 0.75191 0.15849 0.0
H685 H 0.95107 0.69325 0.10597 0.0
S686 S 0.79316 0.79598 0.17973 0.0
N687 N 0.86749 0.81377 0.19985 0.0
N688 N 0.78939 0.75362 0.14215 0.0
C689 C 0.85072 0.75284 0.14448 0.0
C690 C 0.89351 0.78572 0.1759 0.0
C691 C 0.28086 0.97364 0.48081 0.0
C692 C 0.2398 0.95359 0.51247 0.0
C693 C 0.26795 0.92518 0.45218 0.0
C694 C 0.21343 0.85454 0.45403 0.0
H695 H 0.32257 0.02739 0.47789 0.0
H696 H 0.30169 0.94289 0.42879 0.0
S697 S 0.09078 0.77545 0.53063 0.0
N698 N 0.14195 0.85784 0.54321 0.0
N699 N 0.11877 0.76793 0.49048 0.0
C700 C 0.17246 0.83435 0.48552 0.0
C701 C 0.18515 0.88335 0.51429 0.0
loop_
_geom_bond_atom_site_label_1
_geom_bond_atom_site_label_2
_geom_bond_distance
_geom_bond_site_symmetry_2
_ccdc_geom_bond_type
Tb0 N31 2.660 . S
Tb0 N38 2.600 . S
Tb0 O44 2.546 . S
Tb0 O45 2.610 . S
Tb0 O47 2.320 . S
Tb0 O48 2.552 . S
Tb0 O49 2.413 . S
Tb0 O51 2.362 1_554 S
Tb0 O52 2.421 . S
Tb0 C64 2.833 . S
C1 C4 1.432 . S
C1 C5 1.414 1_455 S
C1 N8 1.359 1_554 S
C2 C4 1.417 . S
C2 C6 1.432 1_455 S
C2 C14 1.410 . S
C3 C5 1.444 . S
C3 C6 1.317 . S
C3 H26 0.929 . S
C4 C1 1.432 . S
C4 C2 1.417 . S
C4 N12 1.360 . S
C5 C1 1.414 1_655 S
C5 C3 1.444 . S
C5 C10 1.385 1_554 S
C6 C2 1.432 1_655 S
C6 C3 1.317 . S
C6 H18 0.930 . S
C7 C9 1.392 . S
C7 C10 1.370 . S
C7 H19 0.931 . S
N8 C1 1.359 1_556 S
N8 C9 1.327 1_455 S
N8 Tb11 2.600 . S
C9 C7 1.392 . S
C9 N8 1.327 1_655 S
C9 H16 0.930 1_655 S
C10 C5 1.385 1_556 S
C10 C7 1.370 . S
C10 H29 0.930 . S
Tb11 N8 2.600 . S
Tb11 N12 2.660 1_556 S
Tb11 O45 2.362 1_556 S
Tb11 O46 2.421 . S
Tb11 O50 2.546 . S
Tb11 O51 2.610 . S
Tb11 O53 2.320 1_556 S
Tb11 O54 2.552 . S
Tb11 O55 2.413 . S
Tb11 C75 2.833 . S
N12 C4 1.360 . S
N12 Tb11 2.660 1_554 S
N12 C13 1.305 . S
C13 N12 1.305 . S
C13 C15 1.407 . S
C13 H20 0.930 . S
C14 C2 1.410 . S
C14 C15 1.345 . S
C14 H22 0.930 . S
C15 C13 1.407 . S
C15 C14 1.345 . S
C15 H17 0.930 . S
H16 C9 0.930 1_455 S
H17 C15 0.930 . S
H18 C6 0.930 . S
H19 C7 0.931 . S
H20 C13 0.930 . S
H21 C35 0.930 . S
H22 C14 0.930 . S
H23 C41 0.930 . S
H24 C32 0.930 . S
H25 C39 0.931 . S
H26 C3 0.929 . S
H27 C33 0.930 . S
H28 C66 0.930 . S
H29 C10 0.930 . S
H30 C65 0.929 . S
N31 Tb0 2.660 . S
N31 C32 1.305 1_554 S
N31 C36 1.360 . S
C32 H24 0.930 . S
C32 N31 1.305 1_556 S
C32 C35 1.407 . S
C33 H27 0.930 . S
C33 C34 1.410 . S
C33 C35 1.345 . S
C34 C33 1.410 . S
C34 C36 1.417 1_556 S
C34 C66 1.432 . S
C35 H21 0.930 . S
C35 C32 1.407 . S
C35 C33 1.345 . S
C36 N31 1.360 . S
C36 C34 1.417 1_554 S
C36 C40 1.432 . S
H37 C42 0.930 . S
N38 Tb0 2.600 . S
N38 C40 1.359 . S
N38 C41 1.327 . S
C39 H25 0.931 . S
C39 C41 1.392 . S
C39 C42 1.370 . S
C40 C36 1.432 . S
C40 N38 1.359 . S
C40 C43 1.414 . S
C41 H23 0.930 . S
C41 N38 1.327 . S
C41 C39 1.392 . S
C42 H37 0.930 . S
C42 C39 1.370 . S
C42 C43 1.385 . S
C43 C40 1.414 . S
C43 C42 1.385 . S
C43 C65 1.444 . S
O44 Tb0 2.546 . S
O44 C64 1.251 . S
O45 Tb0 2.610 . S
O45 Tb11 2.362 1_554 S
O45 C56 1.283 . S
O46 Tb11 2.421 . S
O46 C63 1.262 1_556 S
O47 Tb0 2.320 . S
O47 C63 1.260 . S
O48 Tb0 2.552 . S
O48 C56 1.243 . S
O49 Tb0 2.413 . S
O49 C64 1.256 . S
O50 Tb11 2.546 . S
O50 C75 1.251 . S
O51 Tb0 2.362 1_556 S
O51 Tb11 2.610 . S
O51 C67 1.283 . S
O52 Tb0 2.421 . S
O52 C74 1.262 . S
O53 Tb11 2.320 1_554 S
O53 C74 1.260 . S
O54 Tb11 2.552 . S
O54 C67 1.243 . S
O55 Tb11 2.413 . S
O55 C75 1.256 . S
C56 O45 1.283 . S
C56 O48 1.243 . S
C57 C59 1.382 . S
C57 C61 1.393 . S
C57 C64 1.500 . S
C58 C59 1.400 . S
C58 C60 1.384 . S
C59 C57 1.382 . S
C59 C58 1.400 . S
C59 H76 0.930 . S
C60 C58 1.384 . S
C60 C62 1.392 . S
C60 H77 0.931 . S
C61 C57 1.393 . S
C61 C62 1.401 . S
C61 H78 0.930 . S
C62 C60 1.392 . S
C62 C61 1.401 . S
C62 H79 0.930 . S
C63 O46 1.262 1_554 S
C63 O47 1.260 . S
C64 Tb0 2.833 . S
C64 O44 1.251 . S
C64 O49 1.256 . S
C64 C57 1.500 . S
C65 H30 0.929 . S
C65 C43 1.444 . S
C65 C66 1.317 1_554 S
C66 H28 0.930 . S
C66 C34 1.432 . S
C66 C65 1.317 1_556 S
C67 O51 1.283 . S
C67 O54 1.243 . S
C68 C69 1.382 . S
C68 C72 1.393 . S
C68 C75 1.500 . S
C69 C68 1.382 . S
C69 C70 1.400 . S
C69 H80 0.930 . S
C70 C69 1.400 . S
C70 C71 1.384 . S
C71 C70 1.384 . S
C71 C73 1.392 . S
C71 H81 0.931 . S
C72 C68 1.393 . S
C72 C73 1.401 . S
C72 H82 0.930 . S
C73 C71 1.392 . S
C73 C72 1.401 . S
C73 H83 0.930 . S
C74 O52 1.262 . S
C74 O53 1.260 . S
C75 Tb11 2.833 . S
C75 O50 1.251 . S
C75 O55 1.256 . S
C75 C68 1.500 . S
H76 C59 0.930 . S
H77 C60 0.931 . S
H78 C61 0.930 . S
H79 C62 0.930 . S
H80 C69 0.930 . S
H81 C71 0.931 . S
H82 C72 0.930 . S
H83 C73 0.930 . S
Tb84 N115 2.660 . S
Tb84 N122 2.600 . S
Tb84 O128 2.546 . S
Tb84 O129 2.610 . S
Tb84 O131 2.320 . S
Tb84 O132 2.552 . S
Tb84 O133 2.413 . S
Tb84 O135 2.362 . S
Tb84 O136 2.421 . S
Tb84 C148 2.833 . S
C85 C88 1.432 . S
C85 C89 1.414 1_545 S
C85 N92 1.359 . S
C86 C88 1.417 . S
C86 C90 1.432 1_545 S
C86 C98 1.410 . S
C87 C89 1.444 . S
C87 C90 1.317 . S
C87 H110 0.929 . S
C88 C85 1.432 . S
C88 C86 1.417 . S
C88 N96 1.360 . S
C89 C85 1.414 1_565 S
C89 C87 1.444 . S
C89 C94 1.385 . S
C90 C86 1.432 1_565 S
C90 C87 1.317 . S
C90 H102 0.930 . S
C91 C93 1.392 . S
C91 C94 1.370 . S
C91 H103 0.931 . S
N92 C85 1.359 . S
N92 C93 1.327 1_545 S
N92 Tb95 2.600 . S
C93 C91 1.392 . S
C93 N92 1.327 1_565 S
C93 H100 0.930 1_565 S
C94 C89 1.385 . S
C94 C91 1.370 . S
C94 H113 0.930 . S
Tb95 N92 2.600 . S
Tb95 N96 2.660 . S
Tb95 O129 2.362 . S
Tb95 O130 2.421 . S
Tb95 O134 2.546 . S
Tb95 O135 2.610 . S
Tb95 O137 2.320 . S
Tb95 O138 2.552 . S
Tb95 O139 2.413 . S
Tb95 C159 2.833 . S
N96 C88 1.360 . S
N96 Tb95 2.660 . S
N96 C97 1.305 . S
C97 N96 1.305 . S
C97 C99 1.407 1_655 S
C97 H104 0.930 . S
C98 C86 1.410 . S
C98 C99 1.345 1_655 S
C98 H106 0.930 1_655 S
C99 C97 1.407 1_455 S
C99 C98 1.345 1_455 S
C99 H101 0.930 . S
H100 C93 0.930 1_545 S
H101 C99 0.930 . S
H102 C90 0.930 . S
H103 C91 0.931 . S
H104 C97 0.930 . S
H105 C119 0.930 . S
H106 C98 0.930 1_455 S
H107 C125 0.930 . S
H108 C116 0.930 . S
H109 C123 0.931 . S
H110 C87 0.929 . S
H111 C117 0.930 . S
H112 C150 0.930 . S
H113 C94 0.930 . S
H114 C149 0.929 . S
N115 Tb84 2.660 . S
N115 C116 1.305 . S
N115 C120 1.360 . S
C116 H108 0.930 . S
C116 N115 1.305 . S
C116 C119 1.407 . S
C117 H111 0.930 . S
C117 C118 1.410 . S
C117 C119 1.345 . S
C118 C117 1.410 . S
C118 C120 1.417 . S
C118 C150 1.432 . S
C119 H105 0.930 . S
C119 C116 1.407 . S
C119 C117 1.345 . S
C120 N115 1.360 . S
C120 C118 1.417 . S
C120 C124 1.432 . S
H121 C126 0.930 . S
N122 Tb84 2.600 . S
N122 C124 1.359 . S
N122 C125 1.327 . S
C123 H109 0.931 . S
C123 C125 1.392 . S
C123 C126 1.370 . S
C124 C120 1.432 . S
C124 N122 1.359 . S
C124 C127 1.414 . S
C125 H107 0.930 . S
C125 N122 1.327 . S
C125 C123 1.392 . S
C126 H121 0.930 . S
C126 C123 1.370 . S
C126 C127 1.385 . S
C127 C124 1.414 . S
C127 C126 1.385 . S
C127 C149 1.444 . S
O128 Tb84 2.546 . S
O128 C148 1.251 . S
O129 Tb84 2.610 . S
O129 Tb95 2.362 . S
O129 C140 1.283 . S
O130 Tb95 2.421 . S
O130 C147 1.262 . S
O131 Tb84 2.320 . S
O131 C147 1.260 . S
O132 Tb84 2.552 . S
O132 C140 1.243 . S
O133 Tb84 2.413 . S
O133 C148 1.256 . S
O134 Tb95 2.546 . S
O134 C159 1.251 . S
O135 Tb84 2.362 . S
O135 Tb95 2.610 . S
O135 C151 1.283 . S
O136 Tb84 2.421 . S
O136 C158 1.262 . S
O137 Tb95 2.320 . S
O137 C158 1.260 . S
O138 Tb95 2.552 . S
O138 C151 1.243 . S
O139 Tb95 2.413 . S
O139 C159 1.256 . S
C140 O129 1.283 . S
C140 O132 1.243 . S
C141 C143 1.382 . S
C141 C145 1.393 . S
C141 C148 1.500 . S
C142 C143 1.400 . S
C142 C144 1.384 . S
C143 C141 1.382 . S
C143 C142 1.400 . S
C143 H160 0.930 . S
C144 C142 1.384 . S
C144 C146 1.392 . S
C144 H161 0.931 . S
C145 C141 1.393 . S
C145 C146 1.401 . S
C145 H162 0.930 . S
C146 C144 1.392 . S
C146 C145 1.401 . S
C146 H163 0.930 . S
C147 O130 1.262 . S
C147 O131 1.260 . S
C148 Tb84 2.833 . S
C148 O128 1.251 . S
C148 O133 1.256 . S
C148 C141 1.500 . S
C149 H114 0.929 . S
C149 C127 1.444 . S
C149 C150 1.317 . S
C150 H112 0.930 . S
C150 C118 1.432 . S
C150 C149 1.317 . S
C151 O135 1.283 . S
C151 O138 1.243 . S
C152 C153 1.382 . S
C152 C156 1.393 . S
C152 C159 1.500 . S
C153 C152 1.382 . S
C153 C154 1.400 1_655 S
C153 H164 0.930 1_655 S
C154 C153 1.400 1_455 S
C154 C155 1.384 . S
C155 C154 1.384 . S
C155 C157 1.392 1_455 S
C155 H165 0.931 . S
C156 C152 1.393 . S
C156 C157 1.401 . S
C156 H166 0.930 . S
C157 C155 1.392 1_655 S
C157 C156 1.401 . S
C157 H167 0.930 . S
C158 O136 1.262 . S
C158 O137 1.260 . S
C159 Tb95 2.833 . S
C159 O134 1.251 . S
C159 O139 1.256 . S
C159 C152 1.500 . S
H160 C143 0.930 . S
H161 C144 0.931 . S
H162 C145 0.930 . S
H163 C146 0.930 . S
H164 C153 0.930 1_455 S
H165 C155 0.931 . S
H166 C156 0.930 . S
H167 C157 0.930 . S
Tb168 N199 2.660 . S
Tb168 N206 2.600 . S
Tb168 O212 2.546 . S
Tb168 O213 2.610 . S
Tb168 O215 2.320 . S
Tb168 O216 2.552 . S
Tb168 O217 2.413 . S
Tb168 O219 2.362 . S
Tb168 O220 2.421 . S
Tb168 C232 2.833 . S
C169 C172 1.432 . S
C169 C173 1.414 . S
C169 N176 1.359 . S
C170 C172 1.417 . S
C170 C174 1.432 . S
C170 C182 1.410 . S
C171 C173 1.444 . S
C171 C174 1.317 . S
C171 H194 0.929 . S
C172 C169 1.432 . S
C172 C170 1.417 . S
C172 N180 1.360 . S
C173 C169 1.414 . S
C173 C171 1.444 . S
C173 C178 1.385 . S
C174 C170 1.432 . S
C174 C171 1.317 . S
C174 H186 0.930 . S
C175 C177 1.392 . S
C175 C178 1.370 . S
C175 H187 0.931 . S
N176 C169 1.359 . S
N176 C177 1.327 . S
N176 Tb179 2.600 . S
C177 C175 1.392 . S
C177 N176 1.327 . S
C177 H184 0.930 . S
C178 C173 1.385 . S
C178 C175 1.370 . S
C178 H197 0.930 . S
Tb179 N176 2.600 . S
Tb179 N180 2.660 . S
Tb179 O213 2.362 . S
Tb179 O214 2.421 . S
Tb179 O218 2.546 . S
Tb179 O219 2.610 . S
Tb179 O221 2.320 . S
Tb179 O222 2.552 . S
Tb179 O223 2.413 . S
Tb179 C243 2.833 . S
N180 C172 1.360 . S
N180 Tb179 2.660 . S
N180 C181 1.305 . S
C181 N180 1.305 . S
C181 C183 1.407 1_565 S
C181 H188 0.930 . S
C182 C170 1.410 . S
C182 C183 1.345 1_565 S
C182 H190 0.930 1_565 S
C183 C181 1.407 1_545 S
C183 C182 1.345 1_545 S
C183 H185 0.930 . S
H184 C177 0.930 . S
H185 C183 0.930 . S
H186 C174 0.930 . S
H187 C175 0.931 . S
H188 C181 0.930 . S
H189 C203 0.930 . S
H190 C182 0.930 1_545 S
H191 C209 0.930 . S
H192 C200 0.930 . S
H193 C207 0.931 . S
H194 C171 0.929 . S
H195 C201 0.930 . S
H196 C234 0.930 . S
H197 C178 0.930 . S
H198 C233 0.929 . S
N199 Tb168 2.660 . S
N199 C200 1.305 . S
N199 C204 1.360 . S
C200 H192 0.930 . S
C200 N199 1.305 . S
C200 C203 1.407 . S
C201 H195 0.930 . S
C201 C202 1.410 . S
C201 C203 1.345 . S
C202 C201 1.410 . S
C202 C204 1.417 . S
C202 C234 1.432 . S
C203 H189 0.930 . S
C203 C200 1.407 . S
C203 C201 1.345 . S
C204 N199 1.360 . S
C204 C202 1.417 . S
C204 C208 1.432 . S
H205 C210 0.930 . S
N206 Tb168 2.600 . S
N206 C208 1.359 . S
N206 C209 1.327 . S
C207 H193 0.931 . S
C207 C209 1.392 . S
C207 C210 1.370 . S
C208 C204 1.432 . S
C208 N206 1.359 . S
C208 C211 1.414 . S
C209 H191 0.930 . S
C209 N206 1.327 . S
C209 C207 1.392 . S
C210 H205 0.930 . S
C210 C207 1.370 . S
C210 C211 1.385 . S
C211 C208 1.414 . S
C211 C210 1.385 . S
C211 C233 1.444 . S
O212 Tb168 2.546 . S
O212 C232 1.251 . S
O213 Tb168 2.610 . S
O213 Tb179 2.362 . S
O213 C224 1.283 . S
O214 Tb179 2.421 . S
O214 C231 1.262 . S
O215 Tb168 2.320 . S
O215 C231 1.260 . S
O216 Tb168 2.552 . S
O216 C224 1.243 . S
O217 Tb168 2.413 . S
O217 C232 1.256 . S
O218 Tb179 2.546 . S
O218 C243 1.251 . S
O219 Tb168 2.362 . S
O219 Tb179 2.610 . S
O219 C235 1.283 . S
O220 Tb168 2.421 . S
O220 C242 1.262 . S
O221 Tb179 2.320 . S
O221 C242 1.260 . S
O222 Tb179 2.552 . S
O222 C235 1.243 . S
O223 Tb179 2.413 . S
O223 C243 1.256 . S
C224 O213 1.283 . S
C224 O216 1.243 . S
C225 C227 1.382 . S
C225 C229 1.393 . S
C225 C232 1.500 . S
C226 C227 1.400 . S
C226 C228 1.384 . S
C227 C225 1.382 . S
C227 C226 1.400 . S
C227 H244 0.930 . S
C228 C226 1.384 . S
C228 C230 1.392 . S
C228 H245 0.931 . S
C229 C225 1.393 . S
C229 C230 1.401 . S
C229 H246 0.930 . S
C230 C228 1.392 . S
C230 C229 1.401 . S
C230 H247 0.930 . S
C231 O214 1.262 . S
C231 O215 1.260 . S
C232 Tb168 2.833 . S
C232 O212 1.251 . S
C232 O217 1.256 . S
C232 C225 1.500 . S
C233 H198 0.929 . S
C233 C211 1.444 . S
C233 C234 1.317 . S
C234 H196 0.930 . S
C234 C202 1.432 . S
C234 C233 1.317 . S
C235 O219 1.283 . S
C235 O222 1.243 . S
C236 C237 1.382 . S
C236 C240 1.393 . S
C236 C243 1.500 . S
C237 C236 1.382 . S
C237 C238 1.400 1_565 S
C237 H248 0.930 1_565 S
C238 C237 1.400 1_545 S
C238 C239 1.384 . S
C239 C238 1.384 . S
C239 C241 1.392 1_545 S
C239 H249 0.931 . S
C240 C236 1.393 . S
C240 C241 1.401 . S
C240 H250 0.930 . S
C241 C239 1.392 1_565 S
C241 C240 1.401 . S
C241 H251 0.930 . S
C242 O220 1.262 . S
C242 O221 1.260 . S
C243 Tb179 2.833 . S
C243 O218 1.251 . S
C243 O223 1.256 . S
C243 C236 1.500 . S
H244 C227 0.930 . S
H245 C228 0.931 . S
H246 C229 0.930 . S
H247 C230 0.930 . S
H248 C237 0.930 1_545 S
H249 C239 0.931 . S
H250 C240 0.930 . S
H251 C241 0.930 . S
Tb252 N283 2.660 . S
Tb252 N290 2.600 . S
Tb252 O296 2.546 . S
Tb252 O297 2.610 . S
Tb252 O299 2.320 . S
Tb252 O300 2.552 . S
Tb252 O301 2.413 . S
Tb252 O303 2.362 1_554 S
Tb252 O304 2.421 . S
Tb252 C316 2.833 . S
C253 C256 1.432 . S
C253 C257 1.414 1_655 S
C253 N260 1.359 1_554 S
C254 C256 1.417 . S
C254 C258 1.432 1_655 S
C254 C266 1.410 . S
C255 C257 1.444 . S
C255 C258 1.317 . S
C255 H278 0.929 . S
C256 C253 1.432 . S
C256 C254 1.417 . S
C256 N264 1.360 . S
C257 C253 1.414 1_455 S
C257 C255 1.444 . S
C257 C262 1.385 1_554 S
C258 C254 1.432 1_455 S
C258 C255 1.317 . S
C258 H270 0.930 . S
C259 C261 1.392 . S
C259 C262 1.370 . S
C259 H271 0.931 . S
N260 C253 1.359 1_556 S
N260 C261 1.327 1_655 S
N260 Tb263 2.600 . S
C261 C259 1.392 . S
C261 N260 1.327 1_455 S
C261 H268 0.930 1_455 S
C262 C257 1.385 1_556 S
C262 C259 1.370 . S
C262 H281 0.930 . S
Tb263 N260 2.600 . S
Tb263 N264 2.660 1_556 S
Tb263 O297 2.362 1_556 S
Tb263 O298 2.421 . S
Tb263 O302 2.546 . S
Tb263 O303 2.610 . S
Tb263 O305 2.320 1_556 S
Tb263 O306 2.552 . S
Tb263 O307 2.413 . S
Tb263 C327 2.833 . S
N264 C256 1.360 . S
N264 Tb263 2.660 1_554 S
N264 C265 1.305 . S
C265 N264 1.305 . S
C265 C267 1.407 . S
C265 H272 0.930 . S
C266 C254 1.410 . S
C266 C267 1.345 . S
C266 H274 0.930 . S
C267 C265 1.407 . S
C267 C266 1.345 . S
C267 H269 0.930 . S
H268 C261 0.930 1_655 S
H269 C267 0.930 . S
H270 C258 0.930 . S
H271 C259 0.931 . S
H272 C265 0.930 . S
H273 C287 0.930 . S
H274 C266 0.930 . S
H275 C293 0.930 . S
H276 C284 0.930 . S
H277 C291 0.931 . S
H278 C255 0.929 . S
H279 C285 0.930 . S
H280 C318 0.930 . S
H281 C262 0.930 . S
H282 C317 0.929 . S
N283 Tb252 2.660 . S
N283 C284 1.305 1_554 S
N283 C288 1.360 . S
C284 H276 0.930 . S
C284 N283 1.305 1_556 S
C284 C287 1.407 . S
C285 H279 0.930 . S
C285 C286 1.410 . S
C285 C287 1.345 . S
C286 C285 1.410 . S
C286 C288 1.417 1_556 S
C286 C318 1.432 . S
C287 H273 0.930 . S
C287 C284 1.407 . S
C287 C285 1.345 . S
C288 N283 1.360 . S
C288 C286 1.417 1_554 S
C288 C292 1.432 . S
H289 C294 0.930 . S
N290 Tb252 2.600 . S
N290 C292 1.359 . S
N290 C293 1.327 . S
C291 H277 0.931 . S
C291 C293 1.392 . S
C291 C294 1.370 . S
C292 C288 1.432 . S
C292 N290 1.359 . S
C292 C295 1.414 . S
C293 H275 0.930 . S
C293 N290 1.327 . S
C293 C291 1.392 . S
C294 H289 0.930 . S
C294 C291 1.370 . S
C294 C295 1.385 . S
C295 C292 1.414 . S
C295 C294 1.385 . S
C295 C317 1.444 . S
O296 Tb252 2.546 . S
O296 C316 1.251 . S
O297 Tb252 2.610 . S
O297 Tb263 2.362 1_554 S
O297 C308 1.283 . S
O298 Tb263 2.421 . S
O298 C315 1.262 1_556 S
O299 Tb252 2.320 . S
O299 C315 1.260 . S
O300 Tb252 2.552 . S
O300 C308 1.243 . S
O301 Tb252 2.413 . S
O301 C316 1.256 . S
O302 Tb263 2.546 . S
O302 C327 1.251 . S
O303 Tb252 2.362 1_556 S
O303 Tb263 2.610 . S
O303 C319 1.283 . S
O304 Tb252 2.421 . S
O304 C326 1.262 . S
O305 Tb263 2.320 1_554 S
O305 C326 1.260 . S
O306 Tb263 2.552 . S
O306 C319 1.243 . S
O307 Tb263 2.413 . S
O307 C327 1.256 . S
C308 O297 1.283 . S
C308 O300 1.243 . S
C309 C311 1.382 . S
C309 C313 1.393 . S
C309 C316 1.500 . S
C310 C311 1.400 . S
C310 C312 1.384 . S
C311 C309 1.382 . S
C311 C310 1.400 . S
C311 H328 0.930 . S
C312 C310 1.384 . S
C312 C314 1.392 . S
C312 H329 0.931 . S
C313 C309 1.393 . S
C313 C314 1.401 . S
C313 H330 0.930 . S
C314 C312 1.392 . S
C314 C313 1.401 . S
C314 H331 0.930 . S
C315 O298 1.262 1_554 S
C315 O299 1.260 . S
C316 Tb252 2.833 . S
C316 O296 1.251 . S
C316 O301 1.256 . S
C316 C309 1.500 . S
C317 H282 0.929 . S
C317 C295 1.444 . S
C317 C318 1.317 1_554 S
C318 H280 0.930 . S
C318 C286 1.432 . S
C318 C317 1.317 1_556 S
C319 O303 1.283 . S
C319 O306 1.243 . S
C320 C321 1.382 . S
C320 C324 1.393 . S
C320 C327 1.500 . S
C321 C320 1.382 . S
C321 C322 1.400 . S
C321 H332 0.930 . S
C322 C321 1.400 . S
C322 C323 1.384 . S
C323 C322 1.384 . S
C323 C325 1.392 . S
C323 H333 0.931 . S
C324 C320 1.393 . S
C324 C325 1.401 . S
C324 H334 0.930 . S
C325 C323 1.392 . S
C325 C324 1.401 . S
C325 H335 0.930 . S
C326 O304 1.262 . S
C326 O305 1.260 . S
C327 Tb263 2.833 . S
C327 O302 1.251 . S
C327 O307 1.256 . S
C327 C320 1.500 . S
H328 C311 0.930 . S
H329 C312 0.931 . S
H330 C313 0.930 . S
H331 C314 0.930 . S
H332 C321 0.930 . S
H333 C323 0.931 . S
H334 C324 0.930 . S
H335 C325 0.930 . S
Tb336 N367 2.660 . S
Tb336 N374 2.600 . S
Tb336 O380 2.546 . S
Tb336 O381 2.610 . S
Tb336 O383 2.320 . S
Tb336 O384 2.552 . S
Tb336 O385 2.413 . S
Tb336 O387 2.362 . S
Tb336 O388 2.421 . S
Tb336 C400 2.833 . S
C337 C340 1.432 . S
C337 C341 1.414 1_565 S
C337 N344 1.359 . S
C338 C340 1.417 . S
C338 C342 1.432 1_565 S
C338 C350 1.410 . S
C339 C341 1.444 . S
C339 C342 1.317 . S
C339 H362 0.929 . S
C340 C337 1.432 . S
C340 C338 1.417 . S
C340 N348 1.360 . S
C341 C337 1.414 1_545 S
C341 C339 1.444 . S
C341 C346 1.385 . S
C342 C338 1.432 1_545 S
C342 C339 1.317 . S
C342 H354 0.930 . S
C343 C345 1.392 . S
C343 C346 1.370 . S
C343 H355 0.931 . S
N344 C337 1.359 . S
N344 C345 1.327 1_565 S
N344 Tb347 2.600 . S
C345 C343 1.392 . S
C345 N344 1.327 1_545 S
C345 H352 0.930 1_545 S
C346 C341 1.385 . S
C346 C343 1.370 . S
C346 H365 0.930 . S
Tb347 N344 2.600 . S
Tb347 N348 2.660 . S
Tb347 O381 2.362 . S
Tb347 O382 2.421 . S
Tb347 O386 2.546 . S
Tb347 O387 2.610 . S
Tb347 O389 2.320 . S
Tb347 O390 2.552 . S
Tb347 O391 2.413 . S
Tb347 C411 2.833 . S
N348 C340 1.360 . S
N348 Tb347 2.660 . S
N348 C349 1.305 . S
C349 N348 1.305 . S
C349 C351 1.407 1_455 S
C349 H356 0.930 . S
C350 C338 1.410 . S
C350 C351 1.345 1_455 S
C350 H358 0.930 1_455 S
C351 C349 1.407 1_655 S
C351 C350 1.345 1_655 S
C351 H353 0.930 . S
H352 C345 0.930 1_565 S
H353 C351 0.930 . S
H354 C342 0.930 . S
H355 C343 0.931 . S
H356 C349 0.930 . S
H357 C371 0.930 . S
H358 C350 0.930 1_655 S
H359 C377 0.930 . S
H360 C368 0.930 . S
H361 C375 0.931 . S
H362 C339 0.929 . S
H363 C369 0.930 . S
H364 C402 0.930 . S
H365 C346 0.930 . S
H366 C401 0.929 . S
N367 Tb336 2.660 . S
N367 C368 1.305 . S
N367 C372 1.360 . S
C368 H360 0.930 . S
C368 N367 1.305 . S
C368 C371 1.407 . S
C369 H363 0.930 . S
C369 C370 1.410 . S
C369 C371 1.345 . S
C370 C369 1.410 . S
C370 C372 1.417 . S
C370 C402 1.432 . S
C371 H357 0.930 . S
C371 C368 1.407 . S
C371 C369 1.345 . S
C372 N367 1.360 . S
C372 C370 1.417 . S
C372 C376 1.432 . S
H373 C378 0.930 . S
N374 Tb336 2.600 . S
N374 C376 1.359 . S
N374 C377 1.327 . S
C375 H361 0.931 . S
C375 C377 1.392 . S
C375 C378 1.370 . S
C376 C372 1.432 . S
C376 N374 1.359 . S
C376 C379 1.414 . S
C377 H359 0.930 . S
C377 N374 1.327 . S
C377 C375 1.392 . S
C378 H373 0.930 . S
C378 C375 1.370 . S
C378 C379 1.385 . S
C379 C376 1.414 . S
C379 C378 1.385 . S
C379 C401 1.444 . S
O380 Tb336 2.546 . S
O380 C400 1.251 . S
O381 Tb336 2.610 . S
O381 Tb347 2.362 . S
O381 C392 1.283 . S
O382 Tb347 2.421 . S
O382 C399 1.262 . S
O383 Tb336 2.320 . S
O383 C399 1.260 . S
O384 Tb336 2.552 . S
O384 C392 1.243 . S
O385 Tb336 2.413 . S
O385 C400 1.256 . S
O386 Tb347 2.546 . S
O386 C411 1.251 . S
O387 Tb336 2.362 . S
O387 Tb347 2.610 . S
O387 C403 1.283 . S
O388 Tb336 2.421 . S
O388 C410 1.262 . S
O389 Tb347 2.320 . S
O389 C410 1.260 . S
O390 Tb347 2.552 . S
O390 C403 1.243 . S
O391 Tb347 2.413 . S
O391 C411 1.256 . S
C392 O381 1.283 . S
C392 O384 1.243 . S
C393 C395 1.382 . S
C393 C397 1.393 . S
C393 C400 1.500 . S
C394 C395 1.400 . S
C394 C396 1.384 . S
C395 C393 1.382 . S
C395 C394 1.400 . S
C395 H412 0.930 . S
C396 C394 1.384 . S
C396 C398 1.392 . S
C396 H413 0.931 . S
C397 C393 1.393 . S
C397 C398 1.401 . S
C397 H414 0.930 . S
C398 C396 1.392 . S
C398 C397 1.401 . S
C398 H415 0.930 . S
C399 O382 1.262 . S
C399 O383 1.260 . S
C400 Tb336 2.833 . S
C400 O380 1.251 . S
C400 O385 1.256 . S
C400 C393 1.500 . S
C401 H366 0.929 . S
C401 C379 1.444 . S
C401 C402 1.317 . S
C402 H364 0.930 . S
C402 C370 1.432 . S
C402 C401 1.317 . S
C403 O387 1.283 . S
C403 O390 1.243 . S
C404 C405 1.382 . S
C404 C408 1.393 . S
C404 C411 1.500 . S
C405 C404 1.382 . S
C405 C406 1.400 1_455 S
C405 H416 0.930 1_455 S
C406 C405 1.400 1_655 S
C406 C407 1.384 . S
C407 C406 1.384 . S
C407 C409 1.392 1_655 S
C407 H417 0.931 . S
C408 C404 1.393 . S
C408 C409 1.401 . S
C408 H418 0.930 . S
C409 C407 1.392 1_455 S
C409 C408 1.401 . S
C409 H419 0.930 . S
C410 O388 1.262 . S
C410 O389 1.260 . S
C411 Tb347 2.833 . S
C411 O386 1.251 . S
C411 O391 1.256 . S
C411 C404 1.500 . S
H412 C395 0.930 . S
H413 C396 0.931 . S
H414 C397 0.930 . S
H415 C398 0.930 . S
H416 C405 0.930 1_655 S
H417 C407 0.931 . S
H418 C408 0.930 . S
H419 C409 0.930 . S
Tb420 N451 2.660 . S
Tb420 N458 2.600 . S
Tb420 O464 2.546 . S
Tb420 O465 2.610 . S
Tb420 O467 2.320 . S
Tb420 O468 2.552 . S
Tb420 O469 2.413 . S
Tb420 O471 2.362 . S
Tb420 O472 2.421 . S
Tb420 C484 2.833 . S
C421 C424 1.432 . S
C421 C425 1.414 . S
C421 N428 1.359 . S
C422 C424 1.417 . S
C422 C426 1.432 . S
C422 C434 1.410 . S
C423 C425 1.444 . S
C423 C426 1.317 . S
C423 H446 0.929 . S
C424 C421 1.432 . S
C424 C422 1.417 . S
C424 N432 1.360 . S
C425 C421 1.414 . S
C425 C423 1.444 . S
C425 C430 1.385 . S
C426 C422 1.432 . S
C426 C423 1.317 . S
C426 H438 0.930 . S
C427 C429 1.392 . S
C427 C430 1.370 . S
C427 H439 0.931 . S
N428 C421 1.359 . S
N428 C429 1.327 . S
N428 Tb431 2.600 . S
C429 C427 1.392 . S
C429 N428 1.327 . S
C429 H436 0.930 . S
C430 C425 1.385 . S
C430 C427 1.370 . S
C430 H449 0.930 . S
Tb431 N428 2.600 . S
Tb431 N432 2.660 . S
Tb431 O465 2.362 . S
Tb431 O466 2.421 . S
Tb431 O470 2.546 . S
Tb431 O471 2.610 . S
Tb431 O473 2.320 . S
Tb431 O474 2.552 . S
Tb431 O475 2.413 . S
Tb431 C495 2.833 . S
N432 C424 1.360 . S
N432 Tb431 2.660 . S
N432 C433 1.305 . S
C433 N432 1.305 . S
C433 C435 1.407 1_545 S
C433 H440 0.930 . S
C434 C422 1.410 . S
C434 C435 1.345 1_545 S
C434 H442 0.930 1_545 S
C435 C433 1.407 1_565 S
C435 C434 1.345 1_565 S
C435 H437 0.930 . S
H436 C429 0.930 . S
H437 C435 0.930 . S
H438 C426 0.930 . S
H439 C427 0.931 . S
H440 C433 0.930 . S
H441 C455 0.930 . S
H442 C434 0.930 1_565 S
H443 C461 0.930 . S
H444 C452 0.930 . S
H445 C459 0.931 . S
H446 C423 0.929 . S
H447 C453 0.930 . S
H448 C486 0.930 . S
H449 C430 0.930 . S
H450 C485 0.929 . S
N451 Tb420 2.660 . S
N451 C452 1.305 . S
N451 C456 1.360 . S
C452 H444 0.930 . S
C452 N451 1.305 . S
C452 C455 1.407 . S
C453 H447 0.930 . S
C453 C454 1.410 . S
C453 C455 1.345 . S
C454 C453 1.410 . S
C454 C456 1.417 . S
C454 C486 1.432 . S
C455 H441 0.930 . S
C455 C452 1.407 . S
C455 C453 1.345 . S
C456 N451 1.360 . S
C456 C454 1.417 . S
C456 C460 1.432 . S
H457 C462 0.930 . S
N458 Tb420 2.600 . S
N458 C460 1.359 . S
N458 C461 1.327 . S
C459 H445 0.931 . S
C459 C461 1.392 . S
C459 C462 1.370 . S
C460 C456 1.432 . S
C460 N458 1.359 . S
C460 C463 1.414 . S
C461 H443 0.930 . S
C461 N458 1.327 . S
C461 C459 1.392 . S
C462 H457 0.930 . S
C462 C459 1.370 . S
C462 C463 1.385 . S
C463 C460 1.414 . S
C463 C462 1.385 . S
C463 C485 1.444 . S
O464 Tb420 2.546 . S
O464 C484 1.251 . S
O465 Tb420 2.610 . S
O465 Tb431 2.362 . S
O465 C476 1.283 . S
O466 Tb431 2.421 . S
O466 C483 1.262 . S
O467 Tb420 2.320 . S
O467 C483 1.260 . S
O468 Tb420 2.552 . S
O468 C476 1.243 . S
O469 Tb420 2.413 . S
O469 C484 1.256 . S
O470 Tb431 2.546 . S
O470 C495 1.251 . S
O471 Tb420 2.362 . S
O471 Tb431 2.610 . S
O471 C487 1.283 . S
O472 Tb420 2.421 . S
O472 C494 1.262 . S
O473 Tb431 2.320 . S
O473 C494 1.260 . S
O474 Tb431 2.552 . S
O474 C487 1.243 . S
O475 Tb431 2.413 . S
O475 C495 1.256 . S
C476 O465 1.283 . S
C476 O468 1.243 . S
C477 C479 1.382 . S
C477 C481 1.393 . S
C477 C484 1.500 . S
C478 C479 1.400 . S
C478 C480 1.384 . S
C479 C477 1.382 . S
C479 C478 1.400 . S
C479 H496 0.930 . S
C480 C478 1.384 . S
C480 C482 1.392 . S
C480 H497 0.931 . S
C481 C477 1.393 . S
C481 C482 1.401 . S
C481 H498 0.930 . S
C482 C480 1.392 . S
C482 C481 1.401 . S
C482 H499 0.930 . S
C483 O466 1.262 . S
C483 O467 1.260 . S
C484 Tb420 2.833 . S
C484 O464 1.251 . S
C484 O469 1.256 . S
C484 C477 1.500 . S
C485 H450 0.929 . S
C485 C463 1.444 . S
C485 C486 1.317 . S
C486 H448 0.930 . S
C486 C454 1.432 . S
C486 C485 1.317 . S
C487 O471 1.283 . S
C487 O474 1.243 . S
C488 C489 1.382 . S
C488 C492 1.393 . S
C488 C495 1.500 . S
C489 C488 1.382 . S
C489 C490 1.400 1_545 S
C489 H500 0.930 1_545 S
C490 C489 1.400 1_565 S
C490 C491 1.384 . S
C491 C490 1.384 . S
C491 C493 1.392 1_565 S
C491 H501 0.931 . S
C492 C488 1.393 . S
C492 C493 1.401 . S
C492 H502 0.930 . S
C493 C491 1.392 1_545 S
C493 C492 1.401 . S
C493 H503 0.930 . S
C494 O472 1.262 . S
C494 O473 1.260 . S
C495 Tb431 2.833 . S
C495 O470 1.251 . S
C495 O475 1.256 . S
C495 C488 1.500 . S
H496 C479 0.930 . S
H497 C480 0.931 . S
H498 C481 0.930 . S
H499 C482 0.930 . S
H500 C489 0.930 1_565 S
H501 C491 0.931 . S
H502 C492 0.930 . S
H503 C493 0.930 . S
C504 C505 1.369 . S
C504 C506 1.419 . S
C504 H508 0.930 . S
C505 C504 1.369 . S
C505 C514 1.429 . S
C506 C504 1.419 . S
C506 C507 1.363 . S
C506 H509 0.929 . S
C507 C506 1.363 . S
C507 C513 1.428 . S
H508 C504 0.930 . S
H509 C506 0.929 . S
S510 N511 1.613 . S
S510 N512 1.610 . S
N511 S510 1.613 . S
N511 C514 1.350 . S
N512 S510 1.610 . S
N512 C513 1.351 . S
C513 C507 1.428 . S
C513 N512 1.351 . S
C513 C514 1.434 . S
C514 C505 1.429 . S
C514 N511 1.350 . S
C514 C513 1.434 . S
C515 C516 1.369 . S
C515 C517 1.419 . S
C515 H519 0.930 . S
C516 C515 1.369 . S
C516 C525 1.429 . S
C517 C515 1.419 . S
C517 C518 1.363 . S
C517 H520 0.929 . S
C518 C517 1.363 . S
C518 C524 1.428 . S
H519 C515 0.930 . S
H520 C517 0.929 . S
S521 N522 1.613 . S
S521 N523 1.610 . S
N522 S521 1.613 . S
N522 C525 1.350 . S
N523 S521 1.610 . S
N523 C524 1.351 . S
C524 C518 1.428 . S
C524 N523 1.351 . S
C524 C525 1.434 . S
C525 C516 1.429 . S
C525 N522 1.350 . S
C525 C524 1.434 . S
C526 C527 1.369 . S
C526 C528 1.419 . S
C526 H530 0.930 . S
C527 C526 1.369 . S
C527 C536 1.429 . S
C528 C526 1.419 . S
C528 C529 1.363 . S
C528 H531 0.929 . S
C529 C528 1.363 . S
C529 C535 1.428 . S
H530 C526 0.930 . S
H531 C528 0.929 . S
S532 N533 1.613 . S
S532 N534 1.610 . S
N533 S532 1.613 . S
N533 C536 1.350 . S
N534 S532 1.610 . S
N534 C535 1.351 . S
C535 C529 1.428 . S
C535 N534 1.351 . S
C535 C536 1.434 . S
C536 C527 1.429 . S
C536 N533 1.350 . S
C536 C535 1.434 . S
C537 C538 1.369 . S
C537 C539 1.419 . S
C537 H541 0.930 . S
C538 C537 1.369 . S
C538 C547 1.429 . S
C539 C537 1.419 . S
C539 C540 1.363 . S
C539 H542 0.929 . S
C540 C539 1.363 . S
C540 C546 1.428 . S
H541 C537 0.930 . S
H542 C539 0.929 . S
S543 N544 1.613 . S
S543 N545 1.610 . S
N544 S543 1.613 . S
N544 C547 1.350 . S
N545 S543 1.610 . S
N545 C546 1.351 . S
C546 C540 1.428 . S
C546 N545 1.351 . S
C546 C547 1.434 . S
C547 C538 1.429 . S
C547 N544 1.350 . S
C547 C546 1.434 . S
C548 C549 1.369 . S
C548 C550 1.419 . S
C548 H552 0.930 . S
C549 C548 1.369 . S
C549 C558 1.429 . S
C550 C548 1.419 . S
C550 C551 1.363 . S
C550 H553 0.929 . S
C551 C550 1.363 . S
C551 C557 1.428 . S
H552 C548 0.930 . S
H553 C550 0.929 . S
S554 N555 1.613 . S
S554 N556 1.610 . S
N555 S554 1.613 . S
N555 C558 1.350 . S
N556 S554 1.610 . S
N556 C557 1.351 . S
C557 C551 1.428 . S
C557 N556 1.351 . S
C557 C558 1.434 . S
C558 C549 1.429 . S
C558 N555 1.350 . S
C558 C557 1.434 . S
C559 C560 1.369 . S
C559 C561 1.419 . S
C559 H563 0.930 . S
C560 C559 1.369 . S
C560 C569 1.429 . S
C561 C559 1.419 . S
C561 C562 1.363 . S
C561 H564 0.929 . S
C562 C561 1.363 . S
C562 C568 1.428 . S
H563 C559 0.930 . S
H564 C561 0.929 . S
S565 N566 1.613 . S
S565 N567 1.610 . S
N566 S565 1.613 . S
N566 C569 1.350 . S
N567 S565 1.610 . S
N567 C568 1.351 . S
C568 C562 1.428 . S
C568 N567 1.351 . S
C568 C569 1.434 . S
C569 C560 1.429 . S
C569 N566 1.350 . S
C569 C568 1.434 . S
C570 C571 1.369 . S
C570 C572 1.419 . S
C570 H574 0.930 . S
C571 C570 1.369 . S
C571 C580 1.429 1_554 S
C572 C570 1.419 . S
C572 C573 1.363 . S
C572 H575 0.929 . S
C573 C572 1.363 . S
C573 C579 1.428 1_554 S
H574 C570 0.930 . S
H575 C572 0.929 . S
S576 N577 1.613 . S
S576 N578 1.610 . S
N577 S576 1.613 . S
N577 C580 1.350 . S
N578 S576 1.610 . S
N578 C579 1.351 . S
C579 C573 1.428 1_556 S
C579 N578 1.351 . S
C579 C580 1.434 . S
C580 C571 1.429 1_556 S
C580 N577 1.350 . S
C580 C579 1.434 . S
C581 C582 1.369 . S
C581 C583 1.419 . S
C581 H585 0.930 . S
C582 C581 1.369 . S
C582 C591 1.429 1_455 S
C583 C581 1.419 . S
C583 C584 1.363 1_455 S
C583 H586 0.929 . S
C584 C583 1.363 1_655 S
C584 C590 1.428 . S
H585 C581 0.930 . S
H586 C583 0.929 . S
S587 N588 1.613 . S
S587 N589 1.610 . S
N588 S587 1.613 . S
N588 C591 1.350 . S
N589 S587 1.610 . S
N589 C590 1.351 . S
C590 C584 1.428 . S
C590 N589 1.351 . S
C590 C591 1.434 . S
C591 C582 1.429 1_655 S
C591 N588 1.350 . S
C591 C590 1.434 . S
C592 C593 1.369 . S
C592 C594 1.419 . S
C592 H596 0.930 . S
C593 C592 1.369 . S
C593 C602 1.429 1_545 S
C594 C592 1.419 . S
C594 C595 1.363 1_545 S
C594 H597 0.929 . S
C595 C594 1.363 1_565 S
C595 C601 1.428 . S
H596 C592 0.930 . S
H597 C594 0.929 . S
S598 N599 1.613 . S
S598 N600 1.610 . S
N599 S598 1.613 . S
N599 C602 1.350 . S
N600 S598 1.610 . S
N600 C601 1.351 . S
C601 C595 1.428 . S
C601 N600 1.351 . S
C601 C602 1.434 . S
C602 C593 1.429 1_565 S
C602 N599 1.350 . S
C602 C601 1.434 . S
C603 C604 1.369 . S
C603 C605 1.419 . S
C603 H607 0.930 . S
C604 C603 1.369 . S
C604 C613 1.429 . S
C605 C603 1.419 . S
C605 C606 1.363 . S
C605 H608 0.929 . S
C606 C605 1.363 . S
C606 C612 1.428 . S
H607 C603 0.930 . S
H608 C605 0.929 . S
S609 N610 1.613 . S
S609 N611 1.610 . S
N610 S609 1.613 . S
N610 C613 1.350 . S
N611 S609 1.610 . S
N611 C612 1.351 . S
C612 C606 1.428 . S
C612 N611 1.351 . S
C612 C613 1.434 . S
C613 C604 1.429 . S
C613 N610 1.350 . S
C613 C612 1.434 . S
C614 C615 1.369 1_655 S
C614 C616 1.419 . S
C614 H618 0.930 . S
C615 C614 1.369 1_455 S
C615 C624 1.429 1_554 S
C616 C614 1.419 . S
C616 C617 1.363 . S
C616 H619 0.929 . S
C617 C616 1.363 . S
C617 C623 1.428 1_654 S
H618 C614 0.930 . S
H619 C616 0.929 . S
S620 N621 1.613 . S
S620 N622 1.610 . S
N621 S620 1.613 . S
N621 C624 1.350 . S
N622 S620 1.610 . S
N622 C623 1.351 . S
C623 C617 1.428 1_456 S
C623 N622 1.351 . S
C623 C624 1.434 . S
C624 C615 1.429 1_556 S
C624 N621 1.350 . S
C624 C623 1.434 . S
C625 C626 1.369 . S
C625 C627 1.419 1_565 S
C625 H629 0.930 . S
C626 C625 1.369 . S
C626 C635 1.429 . S
C627 C625 1.419 1_545 S
C627 C628 1.363 . S
C627 H630 0.929 . S
C628 C627 1.363 . S
C628 C634 1.428 . S
H629 C625 0.930 . S
H630 C627 0.929 . S
S631 N632 1.613 1_545 S
S631 N633 1.610 . S
N632 S631 1.613 1_565 S
N632 C635 1.350 . S
N633 S631 1.610 . S
N633 C634 1.351 . S
C634 C628 1.428 . S
C634 N633 1.351 . S
C634 C635 1.434 1_545 S
C635 C626 1.429 . S
C635 N632 1.350 . S
C635 C634 1.434 1_565 S
C636 C637 1.369 . S
C636 C638 1.419 . S
C636 H640 0.930 . S
C637 C636 1.369 . S
C637 C646 1.429 . S
C638 C636 1.419 . S
C638 C639 1.363 . S
C638 H641 0.929 . S
C639 C638 1.363 . S
C639 C645 1.428 . S
H640 C636 0.930 . S
H641 C638 0.929 . S
S642 N643 1.613 . S
S642 N644 1.610 . S
N643 S642 1.613 . S
N643 C646 1.350 . S
N644 S642 1.610 . S
N644 C645 1.351 . S
C645 C639 1.428 . S
C645 N644 1.351 . S
C645 C646 1.434 . S
C646 C637 1.429 . S
C646 N643 1.350 . S
C646 C645 1.434 . S
C647 C648 1.369 . S
C647 C649 1.419 . S
C647 H651 0.930 1_455 S
C648 C647 1.369 . S
C648 C657 1.429 . S
C649 C647 1.419 . S
C649 C650 1.363 . S
C649 H652 0.929 . S
C650 C649 1.363 . S
C650 C656 1.428 . S
H651 C647 0.930 1_655 S
H652 C649 0.929 . S
S653 N654 1.613 . S
S653 N655 1.610 . S
N654 S653 1.613 . S
N654 C657 1.350 . S
N655 S653 1.610 . S
N655 C656 1.351 . S
C656 C650 1.428 . S
C656 N655 1.351 . S
C656 C657 1.434 . S
C657 C648 1.429 . S
C657 N654 1.350 . S
C657 C656 1.434 . S
C658 C659 1.369 . S
C658 C660 1.419 . S
C658 H662 0.930 . S
C659 C658 1.369 . S
C659 C668 1.429 . S
C660 C658 1.419 . S
C660 C661 1.363 . S
C660 H663 0.929 . S
C661 C660 1.363 . S
C661 C667 1.428 . S
H662 C658 0.930 . S
H663 C660 0.929 . S
S664 N665 1.613 . S
S664 N666 1.610 1_565 S
N665 S664 1.613 . S
N665 C668 1.350 1_565 S
N666 S664 1.610 1_545 S
N666 C667 1.351 . S
C667 C661 1.428 . S
C667 N666 1.351 . S
C667 C668 1.434 . S
C668 C659 1.429 . S
C668 N665 1.350 1_545 S
C668 C667 1.434 . S
C669 C670 1.369 . S
C669 C671 1.419 . S
C669 H673 0.930 . S
C670 C669 1.369 . S
C670 C679 1.429 . S
C671 C669 1.419 . S
C671 C672 1.363 . S
C671 H674 0.929 . S
C672 C671 1.363 . S
C672 C678 1.428 . S
H673 C669 0.930 . S
H674 C671 0.929 . S
S675 N676 1.613 . S
S675 N677 1.610 . S
N676 S675 1.613 . S
N676 C679 1.350 . S
N677 S675 1.610 . S
N677 C678 1.351 . S
C678 C672 1.428 . S
C678 N677 1.351 . S
C678 C679 1.434 . S
C679 C670 1.429 . S
C679 N676 1.350 . S
C679 C678 1.434 . S
C680 C681 1.369 . S
C680 C682 1.419 . S
C680 H684 0.930 . S
C681 C680 1.369 . S
C681 C690 1.429 . S
C682 C680 1.419 . S
C682 C683 1.363 . S
C682 H685 0.929 . S
C683 C682 1.363 . S
C683 C689 1.428 . S
H684 C680 0.930 . S
H685 C682 0.929 . S
S686 N687 1.613 . S
S686 N688 1.610 . S
N687 S686 1.613 . S
N687 C690 1.350 . S
N688 S686 1.610 . S
N688 C689 1.351 . S
C689 C683 1.428 . S
C689 N688 1.351 . S
C689 C690 1.434 . S
C690 C681 1.429 . S
C690 N687 1.350 . S
C690 C689 1.434 . S
C691 C692 1.369 . S
C691 C693 1.419 . S
C691 H695 0.930 . S
C692 C691 1.369 . S
C692 C701 1.429 . S
C693 C691 1.419 . S
C693 C694 1.363 . S
C693 H696 0.929 . S
C694 C693 1.363 . S
C694 C700 1.428 . S
H695 C691 0.930 . S
H696 C693 0.929 . S
S697 N698 1.613 . S
S697 N699 1.610 . S
N698 S697 1.613 . S
N698 C701 1.350 . S
N699 S697 1.610 . S
N699 C700 1.351 . S
C700 C694 1.428 . S
C700 N699 1.351 . S
C700 C701 1.434 . S
C701 C692 1.429 . S
C701 N698 1.350 . S
C701 C700 1.434 . S
C505 C403 1.191 . S
C507 C58 1.059 . S
C516 C487 1.183 . S
C518 C142 1.047 . S
C527 C67 1.181 . S
C529 C226 1.049 . S
C538 C151 1.179 . S
C540 C310 1.051 . S
C549 C235 1.181 . S
C551 C394 1.062 . S
C560 C319 1.194 . S
C562 C478 1.054 . S
C571 C74 2.022 . S
C573 C326 2.019 . S
C582 C410 2.018 . S
C584 C158 2.014 . S
C593 C494 2.020 . S
C595 C242 2.014 . S
C604 C231 1.928 . S
C606 C483 1.933 . S
C615 C63 1.930 . S
C617 C315 1.935 . S
C626 C399 1.931 . S
C628 C147 1.932 . S
C637 C476 1.293 . S
C639 C70 1.278 . S
C648 C154 1.289 . S
C650 C56 1.283 . S
C659 C238 1.274 . S
C661 C140 1.293 . S
C670 C224 1.293 . S
C672 C322 1.278 . S
C681 C406 1.277 . S
C683 C308 1.292 . S
C692 C490 1.284 . S
C694 C392 1.286 . S
