# Generated by pormake.
# Topology uot, (4)-cn, num edge types: 1
# Building blocks:
#     Node 0, Type 0, BuildingBlock: ICAMEG_clean_sbu_1, # of connection points: 4
#     Node 1, Type 0, BuildingBlock: ICAMEG_clean_sbu_1, # of connection points: 4
#     Node 2, Type 0, BuildingBlock: ICAMEG_clean_sbu_1, # of connection points: 4
#     Node 3, Type 0, BuildingBlock: ICAMEG_clean_sbu_1, # of connection points: 4
#     Node 4, Type 0, BuildingBlock: ICAMEG_clean_sbu_1, # of connection points: 4
#     Node 5, Type 0, BuildingBlock: ICAMEG_clean_sbu_1, # of connection points: 4
#     Node 6, Type 0, BuildingBlock: ICAMEG_clean_sbu_1, # of connection points: 4
#     Node 7, Type 0, BuildingBlock: ICAMEG_clean_sbu_1, # of connection points: 4
#     Node 8, Type 0, BuildingBlock: ICAMEG_clean_sbu_1, # of connection points: 4
#     Node 9, Type 0, BuildingBlock: ICAMEG_clean_sbu_1, # of connection points: 4
#     Node 10, Type 0, BuildingBlock: ICAMEG_clean_sbu_1, # of connection points: 4
#     Node 11, Type 0, BuildingBlock: ICAMEG_clean_sbu_1, # of connection points: 4
#     Node 12, Type 0, BuildingBlock: ICAMEG_clean_sbu_1, # of connection points: 4
#     Node 13, Type 0, BuildingBlock: ICAMEG_clean_sbu_1, # of connection points: 4
#     Node 14, Type 0, BuildingBlock: ICAMEG_clean_sbu_1, # of connection points: 4
#     Node 15, Type 0, BuildingBlock: ICAMEG_clean_sbu_1, # of connection points: 4
#     Edge 16, Type (0, 0), BuildingBlock: XUDNAN_clean_linker_2, # of connection points: 2
#     Edge 17, Type (0, 0), BuildingBlock: XUDNAN_clean_linker_2, # of connection points: 2
#     Edge 18, Type (0, 0), BuildingBlock: XUDNAN_clean_linker_2, # of connection points: 2
#     Edge 19, Type (0, 0), BuildingBlock: XUDNAN_clean_linker_2, # of connection points: 2
#     Edge 20, Type (0, 0), BuildingBlock: XUDNAN_clean_linker_2, # of connection points: 2
#     Edge 21, Type (0, 0), BuildingBlock: XUDNAN_clean_linker_2, # of connection points: 2
#     Edge 22, Type (0, 0), BuildingBlock: XUDNAN_clean_linker_2, # of connection points: 2
#     Edge 23, Type (0, 0), BuildingBlock: XUDNAN_clean_linker_2, # of connection points: 2
#     Edge 24, Type (0, 0), BuildingBlock: XUDNAN_clean_linker_2, # of connection points: 2
#     Edge 25, Type (0, 0), BuildingBlock: XUDNAN_clean_linker_2, # of connection points: 2
#     Edge 26, Type (0, 0), BuildingBlock: XUDNAN_clean_linker_2, # of connection points: 2
#     Edge 27, Type (0, 0), BuildingBlock: XUDNAN_clean_linker_2, # of connection points: 2
#     Edge 28, Type (0, 0), BuildingBlock: XUDNAN_clean_linker_2, # of connection points: 2
#     Edge 29, Type (0, 0), BuildingBlock: XUDNAN_clean_linker_2, # of connection points: 2
#     Edge 30, Type (0, 0), BuildingBlock: XUDNAN_clean_linker_2, # of connection points: 2
#     Edge 31, Type (0, 0), BuildingBlock: XUDNAN_clean_linker_2, # of connection points: 2
#     Edge 32, Type (0, 0), BuildingBlock: XUDNAN_clean_linker_2, # of connection points: 2
#     Edge 33, Type (0, 0), BuildingBlock: XUDNAN_clean_linker_2, # of connection points: 2
#     Edge 34, Type (0, 0), BuildingBlock: XUDNAN_clean_linker_2, # of connection points: 2
#     Edge 35, Type (0, 0), BuildingBlock: XUDNAN_clean_linker_2, # of connection points: 2
#     Edge 36, Type (0, 0), BuildingBlock: XUDNAN_clean_linker_2, # of connection points: 2
#     Edge 37, Type (0, 0), BuildingBlock: XUDNAN_clean_linker_2, # of connection points: 2
#     Edge 38, Type (0, 0), BuildingBlock: XUDNAN_clean_linker_2, # of connection points: 2
#     Edge 39, Type (0, 0), BuildingBlock: XUDNAN_clean_linker_2, # of connection points: 2
#     Edge 40, Type (0, 0), BuildingBlock: XUDNAN_clean_linker_2, # of connection points: 2
#     Edge 41, Type (0, 0), BuildingBlock: XUDNAN_clean_linker_2, # of connection points: 2
#     Edge 42, Type (0, 0), BuildingBlock: XUDNAN_clean_linker_2, # of connection points: 2
#     Edge 43, Type (0, 0), BuildingBlock: XUDNAN_clean_linker_2, # of connection points: 2
#     Edge 44, Type (0, 0), BuildingBlock: XUDNAN_clean_linker_2, # of connection points: 2
#     Edge 45, Type (0, 0), BuildingBlock: XUDNAN_clean_linker_2, # of connection points: 2
#     Edge 46, Type (0, 0), BuildingBlock: XUDNAN_clean_linker_2, # of connection points: 2
#     Edge 47, Type (0, 0), BuildingBlock: XUDNAN_clean_linker_2, # of connection points: 2
# Relax obj value: 0.031
# Max RMSD: 0.052
# Mean RMSD: 0.052
data_MOF--net-uot--node1-ICAMEG_clean_sbu_1--edge1-XUDNAN_clean_linker_2
_symmetry_space_group_name_H-M    P1
_symmetry_Int_Tables_number       1
_symmetry_cell_setting            triclinic
loop_
_symmetry_equiv_pos_as_xyz
'x, y, z'
_cell_length_a     46.850524
_cell_length_b     46.845119
_cell_length_c     46.325682
_cell_angle_alpha  90.000205
_cell_angle_beta   90.021549
_cell_angle_gamma 89.957993
loop_
_atom_site_label
_atom_site_type_symbol
_atom_site_fract_x
_atom_site_fract_y
_atom_site_fract_z
_atom_type_partial_charge
Co0 Co 0.15266 0.43482 0.35374 0.0
Co1 Co 0.21223 0.42804 0.3094 0.0
O2 O 0.19304 0.4256 0.34712 0.0
C3 C 0.18472 0.46445 0.40256 0.0
O4 O 0.2096 0.45496 0.39384 0.0
C5 C 0.21971 0.36698 0.32591 0.0
O6 O 0.19273 0.36663 0.33357 0.0
O7 O 0.17946 0.40923 0.289 0.0
O8 O 0.1418 0.41305 0.31872 0.0
H9 H 0.2189 0.45033 0.20352 0.0
H10 H 0.18792 0.40616 0.39929 0.0
O11 O 0.16178 0.45794 0.38925 0.0
H12 H 0.10573 0.34269 0.38306 0.0
H13 H 0.06398 0.44947 0.41353 0.0
H14 H 0.10476 0.45171 0.31545 0.0
H15 H 0.11029 0.38764 0.35592 0.0
H16 H 0.11468 0.43763 0.40549 0.0
O17 O 0.23068 0.38976 0.31579 0.0
H18 H 0.19517 0.44743 0.25095 0.0
H19 H 0.27072 0.41359 0.28844 0.0
H20 H 0.05392 0.46331 0.32247 0.0
H21 H 0.18403 0.3617 0.42713 0.0
H22 H 0.0332 0.46229 0.37182 0.0
H23 H 0.14272 0.32948 0.41909 0.0
O24 O 0.15566 0.47048 0.33034 0.0
H25 H 0.28773 0.43749 0.38593 0.0
H26 H 0.24603 0.48091 0.29858 0.0
H27 H 0.28632 0.5047 0.32292 0.0
H28 H 0.30753 0.48291 0.36687 0.0
H29 H 0.2471 0.41468 0.36118 0.0
H30 H 0.29518 0.41591 0.24138 0.0
H31 H 0.26926 0.43448 0.19851 0.0
O32 O 0.19467 0.46626 0.30228 0.0
C33 C 0.15319 0.40515 0.29511 0.0
C34 C 0.23044 0.44227 0.22205 0.0
C35 C 0.27324 0.42292 0.24329 0.0
N36 N 0.23157 0.43048 0.27246 0.0
C37 C 0.21714 0.44064 0.24898 0.0
C38 C 0.25925 0.42158 0.26987 0.0
C39 C 0.25869 0.43335 0.21925 0.0
C40 C 0.16962 0.3927 0.39596 0.0
N41 N 0.14908 0.39998 0.37634 0.0
C42 C 0.16764 0.36733 0.41167 0.0
C43 C 0.1445 0.34922 0.4071 0.0
C44 C 0.12375 0.35662 0.3869 0.0
C45 C 0.12647 0.38214 0.37157 0.0
C46 C 0.07276 0.44997 0.39193 0.0
C47 C 0.09589 0.45103 0.33697 0.0
C48 C 0.10148 0.4434 0.38726 0.0
N49 N 0.11266 0.44384 0.36001 0.0
C50 C 0.06709 0.45771 0.34082 0.0
C51 C 0.05549 0.45715 0.36851 0.0
C52 C 0.17287 0.47992 0.31128 0.0
C53 C 0.2787 0.44718 0.36678 0.0
C54 C 0.25492 0.47145 0.31787 0.0
C55 C 0.27785 0.48494 0.33147 0.0
C56 C 0.28976 0.47269 0.3561 0.0
N57 N 0.24415 0.44646 0.3285 0.0
C58 C 0.25576 0.43429 0.3526 0.0
Co59 Co 0.43561 0.85063 0.64814 0.0
Co60 Co 0.43007 0.79524 0.69724 0.0
O61 O 0.42566 0.81147 0.65851 0.0
C62 C 0.46696 0.81519 0.60559 0.0
O63 O 0.47304 0.79744 0.62663 0.0
C64 C 0.36923 0.78641 0.68328 0.0
O65 O 0.36883 0.81348 0.67593 0.0
O66 O 0.41069 0.82853 0.71545 0.0
O67 O 0.41974 0.86514 0.68544 0.0
H68 H 0.45523 0.79628 0.80271 0.0
H69 H 0.40155 0.81524 0.60792 0.0
O70 O 0.4519 0.83732 0.61041 0.0
H71 H 0.34124 0.89884 0.62961 0.0
H72 H 0.44517 0.93408 0.58029 0.0
H73 H 0.46068 0.89965 0.67967 0.0
H74 H 0.38943 0.89451 0.65059 0.0
H75 H 0.4323 0.88483 0.59387 0.0
O76 O 0.39226 0.77528 0.69272 0.0
H77 H 0.44999 0.81685 0.754 0.0
H78 H 0.41823 0.73792 0.7224 0.0
H79 H 0.47346 0.94919 0.66712 0.0
H80 H 0.35358 0.81879 0.58621 0.0
H81 H 0.46575 0.96668 0.6171 0.0
H82 H 0.32303 0.86078 0.59713 0.0
O83 O 0.47391 0.84649 0.66621 0.0
H84 H 0.4417 0.71608 0.62497 0.0
H85 H 0.48455 0.76444 0.70901 0.0
H86 H 0.50984 0.724 0.68644 0.0
H87 H 0.48838 0.6995 0.64413 0.0
H88 H 0.41728 0.75678 0.64801 0.0
H89 H 0.42283 0.71656 0.77086 0.0
H90 H 0.44156 0.74578 0.81139 0.0
O91 O 0.46769 0.81509 0.70252 0.0
C92 C 0.41022 0.85504 0.70915 0.0
C93 C 0.44713 0.7833 0.78521 0.0
C94 C 0.4289 0.73857 0.76733 0.0
N95 N 0.43404 0.77854 0.73534 0.0
C96 C 0.44421 0.7948 0.75755 0.0
C97 C 0.42628 0.7508 0.73996 0.0
C98 C 0.43942 0.75497 0.79007 0.0
C99 C 0.38846 0.83368 0.61256 0.0
N100 N 0.39826 0.85464 0.6305 0.0
C101 C 0.36129 0.83554 0.60029 0.0
C102 C 0.34414 0.85908 0.60646 0.0
C103 C 0.35433 0.88042 0.6247 0.0
C104 C 0.3816 0.87782 0.63662 0.0
C105 C 0.44858 0.92672 0.60217 0.0
C106 C 0.45706 0.90717 0.65791 0.0
C107 C 0.44142 0.89883 0.60997 0.0
N108 N 0.44555 0.88945 0.6376 0.0
C109 C 0.46443 0.93521 0.65091 0.0
C110 C 0.46012 0.94501 0.62283 0.0
C111 C 0.48263 0.8333 0.68864 0.0
C112 C 0.45123 0.72652 0.64345 0.0
C113 C 0.47512 0.75395 0.69055 0.0
C114 C 0.48951 0.73102 0.67791 0.0
C115 C 0.47744 0.71726 0.65418 0.0
N116 N 0.44941 0.76289 0.67991 0.0
C117 C 0.43743 0.74949 0.65667 0.0
Co118 Co 0.85684 0.5596 0.35414 0.0
Co119 Co 0.79817 0.57155 0.31034 0.0
O120 O 0.81764 0.57236 0.34767 0.0
C121 C 0.82397 0.52473 0.39631 0.0
O122 O 0.80648 0.51738 0.37544 0.0
C123 C 0.77931 0.63169 0.30334 0.0
O124 O 0.79204 0.63134 0.27808 0.0
O125 O 0.83128 0.59073 0.2911 0.0
O126 O 0.86945 0.57825 0.31776 0.0
H127 H 0.79066 0.55544 0.20337 0.0
H128 H 0.82565 0.59166 0.39942 0.0
O129 O 0.84506 0.54106 0.39116 0.0
H130 H 0.91192 0.64851 0.37927 0.0
H131 H 0.94384 0.53923 0.41472 0.0
H132 H 0.90244 0.53571 0.31691 0.0
H133 H 0.90319 0.60329 0.35356 0.0
H134 H 0.89465 0.5559 0.40596 0.0
O135 O 0.78063 0.60977 0.3197 0.0
H136 H 0.81491 0.55632 0.25063 0.0
H137 H 0.73882 0.58534 0.29094 0.0
H138 H 0.95179 0.5191 0.32466 0.0
H139 H 0.8337 0.63658 0.42598 0.0
H140 H 0.97281 0.52078 0.37387 0.0
H141 H 0.87706 0.66538 0.41591 0.0
O142 O 0.84998 0.52324 0.33265 0.0
H143 H 0.7259 0.55774 0.38924 0.0
H144 H 0.76283 0.52011 0.29716 0.0
H145 H 0.72354 0.49498 0.32175 0.0
H146 H 0.70476 0.51384 0.36812 0.0
H147 H 0.7654 0.58199 0.36407 0.0
H148 H 0.71376 0.58483 0.2441 0.0
H149 H 0.73973 0.5698 0.19989 0.0
O150 O 0.81518 0.53356 0.30087 0.0
C151 C 0.85816 0.59014 0.29578 0.0
C152 C 0.77911 0.56202 0.22248 0.0
C153 C 0.73595 0.57852 0.24534 0.0
N154 N 0.77831 0.57087 0.27351 0.0
C155 C 0.79273 0.56255 0.2493 0.0
C156 C 0.75025 0.57877 0.27179 0.0
C157 C 0.75054 0.57008 0.22054 0.0
C158 C 0.84461 0.60404 0.39498 0.0
N159 N 0.86388 0.59491 0.37485 0.0
C160 C 0.84903 0.62947 0.41006 0.0
C161 C 0.87336 0.64563 0.40438 0.0
C162 C 0.89291 0.6362 0.38381 0.0
C163 C 0.88778 0.61065 0.36917 0.0
C164 C 0.93494 0.53843 0.39318 0.0
C165 C 0.91148 0.53668 0.33836 0.0
C166 C 0.90706 0.54775 0.3881 0.0
N167 N 0.89572 0.54692 0.36092 0.0
C168 C 0.93942 0.52717 0.34262 0.0
C169 C 0.95119 0.52809 0.37024 0.0
C170 C 0.8341 0.51681 0.3112 0.0
C171 C 0.73385 0.54934 0.36901 0.0
C172 C 0.75492 0.52833 0.3174 0.0
C173 C 0.73258 0.51408 0.33118 0.0
C174 C 0.72203 0.52469 0.35718 0.0
N175 N 0.76639 0.55253 0.32911 0.0
C176 C 0.75615 0.56305 0.3546 0.0
Co177 Co 0.57309 0.1505 0.64699 0.0
Co178 Co 0.57065 0.20136 0.70051 0.0
O179 O 0.57768 0.1899 0.66048 0.0
C180 C 0.53872 0.18467 0.60591 0.0
O181 O 0.52938 0.19924 0.62817 0.0
C182 C 0.62817 0.22756 0.68942 0.0
O183 O 0.63802 0.20301 0.68002 0.0
O184 O 0.5974 0.17155 0.71481 0.0
O185 O 0.5894 0.13527 0.68411 0.0
H186 H 0.54915 0.18451 0.80541 0.0
H187 H 0.60398 0.19252 0.61094 0.0
O188 O 0.55664 0.16451 0.60945 0.0
H189 H 0.67331 0.11548 0.6298 0.0
H190 H 0.57654 0.07167 0.57316 0.0
H191 H 0.55329 0.09662 0.67387 0.0
H192 H 0.62431 0.11257 0.64895 0.0
H193 H 0.58262 0.12101 0.59071 0.0
O194 O 0.60246 0.22975 0.69809 0.0
H195 H 0.55783 0.17048 0.75489 0.0
H196 H 0.56963 0.25731 0.73138 0.0
H197 H 0.5473 0.04693 0.65735 0.0
H198 H 0.65273 0.19622 0.59114 0.0
H199 H 0.55892 0.0342 0.60664 0.0
H200 H 0.68779 0.15753 0.60061 0.0
O201 O 0.53376 0.14865 0.66331 0.0
H202 H 0.54026 0.28262 0.63666 0.0
H203 H 0.51108 0.21846 0.71571 0.0
H204 H 0.47716 0.25445 0.69748 0.0
H205 H 0.4917 0.2869 0.65772 0.0
H206 H 0.57341 0.24607 0.65527 0.0
H207 H 0.56145 0.27226 0.78174 0.0
H208 H 0.55098 0.23575 0.81914 0.0
O209 O 0.53831 0.17385 0.70422 0.0
C210 C 0.59969 0.14536 0.70756 0.0
C211 C 0.55365 0.20064 0.78931 0.0
C212 C 0.56059 0.24988 0.77603 0.0
N213 N 0.5641 0.21305 0.74015 0.0
C214 C 0.5585 0.19283 0.76064 0.0
C215 C 0.56531 0.24127 0.74756 0.0
C216 C 0.55469 0.22938 0.797 0.0
C217 C 0.61908 0.17552 0.61497 0.0
N218 N 0.6113 0.15233 0.63102 0.0
C219 C 0.64666 0.17776 0.60378 0.0
C220 C 0.66634 0.15606 0.60913 0.0
C221 C 0.65824 0.13248 0.62552 0.0
C222 C 0.63048 0.13098 0.63639 0.0
C223 C 0.57145 0.07694 0.59532 0.0
C224 C 0.55859 0.0912 0.65184 0.0
C225 C 0.57477 0.10486 0.60535 0.0
N226 N 0.5685 0.11163 0.63335 0.0
C227 C 0.55507 0.06305 0.64258 0.0
C228 C 0.56157 0.05593 0.61412 0.0
C229 C 0.52456 0.15692 0.68781 0.0
C230 C 0.53371 0.26866 0.65405 0.0
C231 C 0.51754 0.23238 0.69828 0.0
C232 C 0.49826 0.25279 0.68812 0.0
C233 C 0.50644 0.27102 0.66584 0.0
N234 N 0.54425 0.23019 0.6866 0.0
C235 C 0.55244 0.24802 0.66478 0.0
Co236 Co 0.1458 0.58059 0.64475 0.0
Co237 Co 0.20273 0.58204 0.69192 0.0
O238 O 0.18576 0.58834 0.65375 0.0
C239 C 0.17482 0.54874 0.5966 0.0
O240 O 0.1914 0.53555 0.61519 0.0
C241 C 0.21572 0.64245 0.67938 0.0
O242 O 0.18857 0.64514 0.67293 0.0
O243 O 0.17151 0.60361 0.71145 0.0
O244 O 0.13339 0.59463 0.68355 0.0
H245 H 0.20264 0.55509 0.79692 0.0
H246 H 0.18098 0.61617 0.60576 0.0
O247 O 0.15658 0.567 0.60525 0.0
H248 H 0.09992 0.67737 0.63379 0.0
H249 H 0.05851 0.57897 0.58116 0.0
H250 H 0.09771 0.55462 0.67686 0.0
H251 H 0.10326 0.6278 0.65129 0.0
H252 H 0.10881 0.58926 0.59289 0.0
O253 O 0.22537 0.61831 0.68757 0.0
H254 H 0.18122 0.56281 0.74892 0.0
H255 H 0.26148 0.58902 0.71561 0.0
H256 H 0.04717 0.54433 0.66619 0.0
H257 H 0.17834 0.66552 0.58737 0.0
H258 H 0.02727 0.55649 0.61802 0.0
H259 H 0.13766 0.69654 0.60152 0.0
O260 O 0.14952 0.54098 0.66017 0.0
H261 H 0.27794 0.56545 0.61645 0.0
H262 H 0.23007 0.52543 0.70216 0.0
H263 H 0.2677 0.49755 0.67782 0.0
H264 H 0.29195 0.51758 0.63467 0.0
H265 H 0.24004 0.59252 0.64133 0.0
H266 H 0.28372 0.58191 0.76336 0.0
H267 H 0.25426 0.5647 0.80438 0.0
O268 O 0.18046 0.54584 0.69707 0.0
C269 C 0.14473 0.60441 0.70654 0.0
C270 C 0.21573 0.56251 0.77919 0.0
C271 C 0.26122 0.5776 0.76036 0.0
N272 N 0.22012 0.57612 0.72944 0.0
C273 C 0.20373 0.56682 0.75194 0.0
C274 C 0.2485 0.58165 0.7334 0.0
C275 C 0.24468 0.56793 0.78337 0.0
C276 C 0.16311 0.62948 0.61186 0.0
N277 N 0.1424 0.61917 0.6298 0.0
C278 C 0.16177 0.65743 0.60144 0.0
C279 C 0.13897 0.67483 0.60941 0.0
C280 C 0.11782 0.66411 0.62755 0.0
C281 C 0.1199 0.63607 0.63758 0.0
C282 C 0.06693 0.57357 0.60223 0.0
C283 C 0.08917 0.56012 0.6559 0.0
C284 C 0.09544 0.57923 0.60895 0.0
N285 N 0.10617 0.57265 0.63557 0.0
C286 C 0.06055 0.55417 0.64996 0.0
C287 C 0.04941 0.56098 0.62293 0.0
C288 C 0.16219 0.5315 0.68264 0.0
C289 C 0.26759 0.55653 0.63528 0.0
C290 C 0.24048 0.53426 0.68335 0.0
C291 C 0.26181 0.5184 0.66969 0.0
C292 C 0.27541 0.52966 0.64549 0.0
N293 N 0.23299 0.56064 0.67325 0.0
C294 C 0.24619 0.5718 0.64951 0.0
Co295 Co 0.5661 0.85737 0.36351 0.0
Co296 Co 0.57296 0.80256 0.31421 0.0
O297 O 0.57692 0.8185 0.353 0.0
C298 C 0.53491 0.82102 0.40509 0.0
O299 O 0.52852 0.8043 0.38331 0.0
C300 C 0.63172 0.7803 0.30407 0.0
O301 O 0.63181 0.79432 0.27951 0.0
O302 O 0.59369 0.8357 0.29723 0.0
O303 O 0.58193 0.87236 0.32629 0.0
H304 H 0.55165 0.80522 0.20791 0.0
H305 H 0.60086 0.82247 0.40362 0.0
O306 O 0.54996 0.84331 0.40108 0.0
H307 H 0.65877 0.90807 0.38356 0.0
H308 H 0.554 0.94009 0.43187 0.0
H309 H 0.5403 0.90609 0.33207 0.0
H310 H 0.61114 0.90235 0.36164 0.0
H311 H 0.56811 0.89122 0.41805 0.0
O312 O 0.61006 0.78176 0.32071 0.0
H313 H 0.55634 0.82528 0.25689 0.0
H314 H 0.58212 0.74444 0.28922 0.0
H315 H 0.52627 0.95526 0.34486 0.0
H316 H 0.64828 0.82742 0.42629 0.0
H317 H 0.53306 0.97253 0.39509 0.0
H318 H 0.67759 0.87046 0.41625 0.0
O319 O 0.52798 0.85254 0.34528 0.0
H320 H 0.5571 0.72339 0.38571 0.0
H321 H 0.51792 0.77336 0.30077 0.0
H322 H 0.49089 0.73365 0.32246 0.0
H323 H 0.51049 0.70833 0.3652 0.0
H324 H 0.58327 0.76344 0.3636 0.0
H325 H 0.57782 0.7235 0.24055 0.0
H326 H 0.56247 0.75397 0.19948 0.0
O327 O 0.53595 0.82319 0.30767 0.0
C328 C 0.59301 0.86231 0.30322 0.0
C329 C 0.55838 0.79173 0.22562 0.0
C330 C 0.57306 0.74586 0.24394 0.0
N331 N 0.56953 0.78608 0.27588 0.0
C332 C 0.56106 0.80297 0.25341 0.0
C333 C 0.57548 0.75784 0.27144 0.0
C334 C 0.56445 0.76297 0.22091 0.0
C335 C 0.61345 0.84131 0.39927 0.0
N336 N 0.60326 0.8621 0.38134 0.0
C337 C 0.6403 0.84397 0.41211 0.0
C338 C 0.65675 0.86811 0.40644 0.0
C339 C 0.64621 0.88921 0.38809 0.0
C340 C 0.61928 0.88581 0.37563 0.0
C341 C 0.55098 0.93283 0.4099 0.0
C342 C 0.54352 0.91353 0.35392 0.0
C343 C 0.55884 0.90515 0.40197 0.0
N344 N 0.55522 0.8959 0.37423 0.0
C345 C 0.53545 0.94136 0.36106 0.0
C346 C 0.53924 0.95102 0.38925 0.0
C347 C 0.52015 0.84028 0.32202 0.0
C348 C 0.54839 0.73417 0.36701 0.0
C349 C 0.52656 0.76254 0.31944 0.0
C350 C 0.51119 0.74 0.33157 0.0
C351 C 0.52222 0.72578 0.35553 0.0
N352 N 0.55225 0.77064 0.33079 0.0
C353 C 0.5632 0.75677 0.35428 0.0
Co354 Co 0.84785 0.43414 0.65091 0.0
Co355 Co 0.79878 0.43719 0.70592 0.0
O356 O 0.80906 0.43025 0.66565 0.0
C357 C 0.83995 0.47208 0.60068 0.0
O358 O 0.85975 0.48822 0.61238 0.0
C359 C 0.7741 0.37941 0.69484 0.0
O360 O 0.79902 0.37083 0.68517 0.0
O361 O 0.82935 0.41097 0.71974 0.0
O362 O 0.86437 0.41885 0.68763 0.0
H363 H 0.81784 0.45981 0.81021 0.0
H364 H 0.80461 0.40282 0.61662 0.0
O365 O 0.83168 0.44953 0.6137 0.0
H366 H 0.8811 0.33293 0.63563 0.0
H367 H 0.92522 0.42533 0.57575 0.0
H368 H 0.9023 0.45574 0.67498 0.0
H369 H 0.88516 0.38239 0.65329 0.0
H370 H 0.87619 0.42075 0.59462 0.0
O371 O 0.7709 0.40484 0.70409 0.0
H372 H 0.83076 0.45117 0.75939 0.0
H373 H 0.74371 0.43695 0.73824 0.0
H374 H 0.95163 0.46047 0.65707 0.0
H375 H 0.7998 0.35363 0.59828 0.0
H376 H 0.96334 0.44524 0.6071 0.0
H377 H 0.83819 0.31827 0.60784 0.0
O378 O 0.85023 0.4737 0.66691 0.0
H379 H 0.71612 0.46682 0.64354 0.0
H380 H 0.78102 0.49629 0.72188 0.0
H381 H 0.74409 0.52975 0.70469 0.0
H382 H 0.71125 0.51504 0.66531 0.0
H383 H 0.75354 0.43412 0.66121 0.0
H384 H 0.72987 0.44507 0.78895 0.0
H385 H 0.76706 0.45674 0.8253 0.0
O386 O 0.82606 0.46985 0.7086 0.0
C387 C 0.85531 0.40902 0.71163 0.0
C388 C 0.80143 0.4548 0.79457 0.0
C389 C 0.75206 0.44649 0.78264 0.0
N390 N 0.78801 0.44371 0.74582 0.0
C391 C 0.80861 0.44997 0.76573 0.0
C392 C 0.76004 0.44181 0.75397 0.0
C393 C 0.77294 0.45305 0.80302 0.0
C394 C 0.82154 0.38764 0.62062 0.0
N395 N 0.8452 0.39553 0.63591 0.0
C396 C 0.81864 0.35978 0.61028 0.0
C397 C 0.84016 0.33994 0.6157 0.0
C398 C 0.86423 0.34814 0.63132 0.0
C399 C 0.86637 0.37617 0.64136 0.0
C400 C 0.92038 0.43203 0.59756 0.0
C401 C 0.90724 0.44901 0.65323 0.0
C402 C 0.89267 0.42951 0.60835 0.0
N403 N 0.8864 0.43794 0.6359 0.0
C404 C 0.93521 0.45176 0.6432 0.0
C405 C 0.94176 0.44321 0.61516 0.0
C406 C 0.84273 0.48323 0.69157 0.0
C407 C 0.73026 0.47345 0.66076 0.0
C408 C 0.7669 0.48977 0.70465 0.0
C409 C 0.74598 0.50879 0.69505 0.0
C410 C 0.72755 0.50051 0.67297 0.0
N411 N 0.76933 0.46321 0.69266 0.0
C412 C 0.75143 0.455 0.67091 0.0
Co413 Co 0.43639 0.15287 0.36407 0.0
Co414 Co 0.42928 0.20791 0.31474 0.0
O415 O 0.42562 0.19192 0.35368 0.0
C416 C 0.46768 0.1889 0.40628 0.0
O417 O 0.47301 0.20686 0.38523 0.0
C418 C 0.36837 0.21767 0.32935 0.0
O419 O 0.36741 0.19081 0.33737 0.0
O420 O 0.40955 0.17444 0.29728 0.0
O421 O 0.42014 0.13798 0.327 0.0
H422 H 0.45246 0.20585 0.20885 0.0
H423 H 0.40233 0.18795 0.40457 0.0
O424 O 0.45303 0.16648 0.4016 0.0
H425 H 0.34315 0.10329 0.38423 0.0
H426 H 0.44828 0.06978 0.43203 0.0
H427 H 0.46179 0.10414 0.33234 0.0
H428 H 0.39092 0.10828 0.36249 0.0
H429 H 0.43438 0.11877 0.41848 0.0
O430 O 0.3916 0.22808 0.31962 0.0
H431 H 0.44809 0.18575 0.25783 0.0
H432 H 0.41706 0.26508 0.28926 0.0
H433 H 0.47561 0.05484 0.34486 0.0
H434 H 0.35478 0.18373 0.42705 0.0
H435 H 0.46891 0.03739 0.39504 0.0
H436 H 0.3248 0.14121 0.41681 0.0
O437 O 0.47445 0.15749 0.34552 0.0
H438 H 0.44204 0.28773 0.38606 0.0
H439 H 0.48348 0.23868 0.30169 0.0
H440 H 0.50905 0.27936 0.32343 0.0
H441 H 0.48829 0.30421 0.36589 0.0
H442 H 0.41733 0.24676 0.36384 0.0
H443 H 0.42077 0.28597 0.24053 0.0
H444 H 0.43871 0.25632 0.19994 0.0
O445 O 0.46686 0.18816 0.3089 0.0
C446 C 0.4097 0.14792 0.30359 0.0
C447 C 0.4447 0.21902 0.22637 0.0
C448 C 0.42687 0.26397 0.24414 0.0
N449 N 0.43254 0.22427 0.27642 0.0
C450 C 0.44227 0.20778 0.25418 0.0
C451 C 0.42475 0.252 0.27167 0.0
C452 C 0.43695 0.24733 0.22138 0.0
C453 C 0.38948 0.16928 0.40021 0.0
N454 N 0.39936 0.14839 0.38222 0.0
C455 C 0.36255 0.16706 0.41292 0.0
C456 C 0.34572 0.14321 0.40713 0.0
C457 C 0.35599 0.12194 0.38883 0.0
C458 C 0.38301 0.12492 0.37648 0.0
C459 C 0.45126 0.07712 0.41008 0.0
C460 C 0.45861 0.09662 0.35417 0.0
C461 C 0.44351 0.10486 0.4023 0.0
N462 N 0.44709 0.11423 0.37459 0.0
C463 C 0.46657 0.06872 0.36115 0.0
C464 C 0.46282 0.05895 0.38931 0.0
C465 C 0.48248 0.17049 0.32274 0.0
C466 C 0.45125 0.27713 0.36751 0.0
C467 C 0.47436 0.24931 0.32024 0.0
C468 C 0.4889 0.27238 0.3324 0.0
C469 C 0.47723 0.28634 0.35621 0.0
N470 N 0.44888 0.24043 0.33143 0.0
C471 C 0.43729 0.25401 0.35475 0.0
Co472 Co 0.6517 0.93138 0.85933 0.0
Co473 Co 0.70569 0.92746 0.80864 0.0
O474 O 0.69099 0.92346 0.84792 0.0
C475 C 0.6595 0.97239 0.90744 0.0
O476 O 0.6414 0.98904 0.89379 0.0
C477 C 0.71798 0.86746 0.82372 0.0
O478 O 0.6912 0.86594 0.8319 0.0
O479 O 0.67289 0.90588 0.7923 0.0
O480 O 0.63645 0.9143 0.82271 0.0
H481 H 0.69965 0.94945 0.70264 0.0
H482 H 0.68995 0.89976 0.89906 0.0
O483 O 0.66666 0.94846 0.89636 0.0
H484 H 0.60973 0.83443 0.87963 0.0
H485 H 0.56918 0.93456 0.92912 0.0
H486 H 0.60095 0.95522 0.82981 0.0
H487 H 0.61065 0.88258 0.85821 0.0
H488 H 0.61876 0.92462 0.91422 0.0
O489 O 0.7277 0.89079 0.81351 0.0
H490 H 0.68113 0.94468 0.75222 0.0
H491 H 0.7626 0.91752 0.78168 0.0
H492 H 0.55114 0.96535 0.84374 0.0
H493 H 0.68973 0.8519 0.92124 0.0
H494 H 0.53498 0.95503 0.89372 0.0
H495 H 0.64947 0.81881 0.91145 0.0
O496 O 0.65354 0.9696 0.84036 0.0
H497 H 0.78642 0.94528 0.87777 0.0
H498 H 0.73361 0.9827 0.79378 0.0
H499 H 0.77375 0.01041 0.81382 0.0
H500 H 0.80052 0.99165 0.85606 0.0
H501 H 0.74597 0.91839 0.8572 0.0
H502 H 0.78195 0.92167 0.73233 0.0
H503 H 0.75041 0.93786 0.69243 0.0
O504 O 0.68394 0.96395 0.8031 0.0
C505 C 0.64656 0.90433 0.79916 0.0
C506 C 0.71364 0.94246 0.71985 0.0
C507 C 0.75981 0.92683 0.73652 0.0
N508 N 0.72082 0.93107 0.76985 0.0
C509 C 0.70329 0.93983 0.748 0.0
C510 C 0.74872 0.92445 0.7644 0.0
C511 C 0.74211 0.93593 0.71414 0.0
C512 C 0.67219 0.88561 0.89497 0.0
N513 N 0.65029 0.89402 0.87742 0.0
C514 C 0.67225 0.85848 0.90747 0.0
C515 C 0.64968 0.83991 0.90193 0.0
C516 C 0.6274 0.84864 0.88406 0.0
C517 C 0.62808 0.87591 0.87189 0.0
C518 C 0.57596 0.93913 0.90727 0.0
C519 C 0.59405 0.95061 0.85158 0.0
C520 C 0.60399 0.93355 0.89872 0.0
N521 N 0.6127 0.93928 0.87115 0.0
C522 C 0.56583 0.95641 0.85935 0.0
C523 C 0.55678 0.95062 0.8874 0.0
C524 C 0.66568 0.97848 0.81738 0.0
C525 C 0.77497 0.95364 0.85932 0.0
C526 C 0.74507 0.97447 0.81225 0.0
C527 C 0.76783 0.99021 0.82345 0.0
C528 C 0.78285 0.97967 0.84714 0.0
N529 N 0.73757 0.94889 0.82423 0.0
C530 C 0.75211 0.93847 0.84753 0.0
Co531 Co 0.93755 0.3508 0.14269 0.0
Co532 Co 0.93912 0.29977 0.19598 0.0
O533 O 0.93343 0.3113 0.15577 0.0
C534 C 0.97576 0.3201 0.10188 0.0
O535 O 0.98751 0.30733 0.12415 0.0
C536 C 0.88191 0.27413 0.18321 0.0
O537 O 0.87277 0.29921 0.1745 0.0
O538 O 0.91145 0.32911 0.20947 0.0
O539 O 0.91995 0.36568 0.17917 0.0
H540 H 0.95655 0.31638 0.30167 0.0
H541 H 0.90841 0.30853 0.10544 0.0
O542 O 0.95499 0.33728 0.10559 0.0
H543 H 0.83703 0.38389 0.12338 0.0
H544 H 0.93475 0.42969 0.06892 0.0
H545 H 0.95643 0.4048 0.17003 0.0
H546 H 0.88553 0.38769 0.14371 0.0
H547 H 0.9284 0.38037 0.0864 0.0
O548 O 0.9075 0.27111 0.19212 0.0
H549 H 0.94957 0.33055 0.25089 0.0
H550 H 0.93944 0.24371 0.2266 0.0
H551 H 0.96277 0.45447 0.15354 0.0
H552 H 0.8602 0.30399 0.08445 0.0
H553 H 0.95193 0.46717 0.10264 0.0
H554 H 0.82412 0.34182 0.09346 0.0
O555 O 0.97632 0.35319 0.16025 0.0
H556 H 0.97319 0.22016 0.13198 0.0
H557 H 0.99805 0.28285 0.21371 0.0
H558 H 0.03315 0.24758 0.19635 0.0
H559 H 0.02078 0.21588 0.15523 0.0
H560 H 0.9388 0.25594 0.14985 0.0
H561 H 0.94595 0.22861 0.27719 0.0
H562 H 0.95473 0.26507 0.31511 0.0
O563 O 0.9712 0.32761 0.20089 0.0
C564 C 0.90883 0.35513 0.20192 0.0
C565 C 0.95282 0.30028 0.28534 0.0
C566 C 0.94683 0.25103 0.2716 0.0
N567 N 0.94434 0.28797 0.23577 0.0
C568 C 0.94894 0.30817 0.25653 0.0
C569 C 0.94308 0.25971 0.24301 0.0
C570 C 0.95177 0.27149 0.29286 0.0
C571 C 0.89288 0.32519 0.10923 0.0
N572 N 0.8998 0.34838 0.12567 0.0
C573 C 0.8656 0.32246 0.09738 0.0
C574 C 0.84535 0.34368 0.10248 0.0
C575 C 0.85258 0.36728 0.11926 0.0
C576 C 0.88006 0.36928 0.13077 0.0
C577 C 0.93949 0.42444 0.09117 0.0
C578 C 0.95147 0.41022 0.14791 0.0
C579 C 0.93601 0.39653 0.10117 0.0
N580 N 0.94187 0.38977 0.12926 0.0
C581 C 0.95518 0.43835 0.13867 0.0
C582 C 0.94913 0.44546 0.1101 0.0
C583 C 0.9852 0.34472 0.18482 0.0
C584 C 0.9788 0.2338 0.14996 0.0
C585 C 0.99253 0.26921 0.19574 0.0
C586 C 0.01247 0.24923 0.18605 0.0
C587 C 0.00551 0.23143 0.16299 0.0
N588 N 0.96634 0.27137 0.18288 0.0
C589 C 0.95938 0.25402 0.16024 0.0
Co590 Co 0.35284 0.07175 0.8592 0.0
Co591 Co 0.30078 0.06672 0.80698 0.0
O592 O 0.31319 0.07504 0.84642 0.0
C593 C 0.32223 0.03574 0.90159 0.0
O594 O 0.3091 0.02379 0.87965 0.0
C595 C 0.27608 0.12483 0.81666 0.0
O596 O 0.30119 0.13396 0.82521 0.0
O597 O 0.33029 0.09266 0.79061 0.0
O598 O 0.36684 0.08737 0.82158 0.0
H599 H 0.31449 0.0411 0.70254 0.0
H600 H 0.31071 0.10228 0.89551 0.0
O601 O 0.33992 0.05593 0.89726 0.0
H602 H 0.3852 0.17329 0.87334 0.0
H603 H 0.43282 0.07918 0.93146 0.0
H604 H 0.40684 0.05283 0.83179 0.0
H605 H 0.38915 0.12394 0.85524 0.0
H606 H 0.38302 0.08343 0.91468 0.0
O607 O 0.27273 0.09893 0.80897 0.0
H608 H 0.33002 0.05162 0.75225 0.0
H609 H 0.244 0.06497 0.77782 0.0
H610 H 0.45697 0.04874 0.84752 0.0
H611 H 0.30599 0.15135 0.91428 0.0
H612 H 0.47022 0.0619 0.89771 0.0
H613 H 0.34339 0.18726 0.90314 0.0
O614 O 0.35568 0.03215 0.84353 0.0
H615 H 0.22206 0.03885 0.87498 0.0
H616 H 0.28299 0.00682 0.79444 0.0
H617 H 0.24775 0.97362 0.81528 0.0
H618 H 0.21695 0.9896 0.85582 0.0
H619 H 0.25777 0.07128 0.85369 0.0
H620 H 0.22754 0.05497 0.72827 0.0
H621 H 0.26289 0.04279 0.69026 0.0
O622 O 0.32817 0.03424 0.80387 0.0
C623 C 0.35643 0.09595 0.79763 0.0
C624 C 0.29886 0.04632 0.71892 0.0
C625 C 0.25007 0.05415 0.73336 0.0
N626 N 0.28794 0.05873 0.76798 0.0
C627 C 0.30753 0.05221 0.74714 0.0
C628 C 0.25953 0.05988 0.76136 0.0
C629 C 0.26992 0.04729 0.71204 0.0
C630 C 0.32716 0.11775 0.89075 0.0
N631 N 0.3502 0.11026 0.87434 0.0
C632 C 0.32433 0.14551 0.90137 0.0
C633 C 0.34531 0.16566 0.89508 0.0
C634 C 0.36876 0.15784 0.87834 0.0
C635 C 0.37084 0.12989 0.86807 0.0
C636 C 0.42732 0.07341 0.90953 0.0
C637 C 0.41247 0.0588 0.8536 0.0
C638 C 0.39914 0.07567 0.89994 0.0
N639 N 0.39206 0.06853 0.87224 0.0
C640 C 0.44088 0.05635 0.86241 0.0
C641 C 0.4483 0.06372 0.89058 0.0
C642 C 0.34653 0.02181 0.81981 0.0
C643 C 0.2353 0.03166 0.85727 0.0
C644 C 0.26972 0.01391 0.81214 0.0
C645 C 0.24976 0.99503 0.8238 0.0
C646 C 0.23247 0.00402 0.84653 0.0
N647 N 0.27234 0.04101 0.82276 0.0
C648 C 0.25547 0.04997 0.84505 0.0
Co649 Co 0.07 0.65033 0.14307 0.0
Co650 Co 0.07145 0.69911 0.19771 0.0
O651 O 0.07632 0.68935 0.15696 0.0
C652 C 0.03736 0.68651 0.10235 0.0
O653 O 0.02856 0.70128 0.1247 0.0
C654 C 0.12784 0.72678 0.18481 0.0
O655 O 0.13786 0.70247 0.17496 0.0
O656 O 0.09997 0.66959 0.20844 0.0
O657 O 0.08541 0.63356 0.18007 0.0
H658 H 0.05775 0.67717 0.30295 0.0
H659 H 0.10314 0.69092 0.10743 0.0
O660 O 0.05441 0.66559 0.10574 0.0
H661 H 0.16833 0.61027 0.1259 0.0
H662 H 0.06919 0.57241 0.06821 0.0
H663 H 0.04686 0.59737 0.16913 0.0
H664 H 0.1192 0.60978 0.14497 0.0
H665 H 0.07828 0.621 0.08652 0.0
O666 O 0.10238 0.72842 0.19432 0.0
H667 H 0.06321 0.66558 0.25133 0.0
H668 H 0.07133 0.75365 0.2311 0.0
H669 H 0.03775 0.54843 0.15181 0.0
H670 H 0.15206 0.69221 0.08775 0.0
H671 H 0.0489 0.53569 0.10099 0.0
H672 H 0.18504 0.65168 0.09702 0.0
O673 O 0.03086 0.65071 0.15936 0.0
H674 H 0.03502 0.78232 0.13995 0.0
H675 H 0.01274 0.71419 0.21789 0.0
H676 H 0.97693 0.75016 0.20378 0.0
H677 H 0.98801 0.78461 0.1646 0.0
H678 H 0.07007 0.74571 0.15443 0.0
H679 H 0.06631 0.76616 0.28256 0.0
H680 H 0.05931 0.72778 0.31887 0.0
O681 O 0.03972 0.67057 0.20241 0.0
C682 C 0.09951 0.64327 0.20155 0.0
C683 C 0.06072 0.69409 0.28733 0.0
C684 C 0.06556 0.74403 0.27589 0.0
N685 N 0.06738 0.70892 0.23819 0.0
C686 C 0.06375 0.68767 0.25805 0.0
C687 C 0.06847 0.73681 0.24679 0.0
C688 C 0.06162 0.72249 0.29625 0.0
C689 C 0.11731 0.67312 0.11134 0.0
N690 N 0.10829 0.65026 0.12719 0.0
C691 C 0.14501 0.67401 0.10024 0.0
C692 C 0.16351 0.65128 0.10548 0.0
C693 C 0.15416 0.62804 0.12169 0.0
C694 C 0.12632 0.6279 0.13248 0.0
C695 C 0.0643 0.57768 0.09041 0.0
C696 C 0.05198 0.59193 0.14705 0.0
C697 C 0.06934 0.60517 0.10088 0.0
N698 N 0.06331 0.61194 0.12893 0.0
C699 C 0.04668 0.56421 0.13734 0.0
C700 C 0.05292 0.55709 0.10882 0.0
C701 C 0.02361 0.6568 0.18509 0.0
C702 C 0.02997 0.76747 0.15709 0.0
C703 C 0.01767 0.72895 0.20066 0.0
C704 C 0.99734 0.74936 0.19285 0.0
C705 C 0.00358 0.76871 0.1709 0.0
N706 N 0.0435 0.72783 0.18698 0.0
C707 C 0.04979 0.74678 0.16548 0.0
Co708 Co 0.64856 0.07751 0.14917 0.0
Co709 Co 0.70094 0.07337 0.20101 0.0
O710 O 0.68846 0.08014 0.16129 0.0
C711 C 0.67769 0.03896 0.10785 0.0
O712 O 0.69051 0.02736 0.13017 0.0
C713 C 0.72857 0.12963 0.18774 0.0
O714 O 0.70379 0.13989 0.17949 0.0
O715 O 0.6728 0.10159 0.21598 0.0
O716 O 0.63537 0.09512 0.18636 0.0
H717 H 0.6872 0.05408 0.30681 0.0
H718 H 0.69097 0.10547 0.11118 0.0
O719 O 0.66063 0.05985 0.11155 0.0
H720 H 0.61846 0.17921 0.13124 0.0
H721 H 0.56783 0.08412 0.07768 0.0
H722 H 0.59452 0.06107 0.178 0.0
H723 H 0.61355 0.13075 0.1514 0.0
H724 H 0.61794 0.08776 0.09364 0.0
O725 O 0.73056 0.10401 0.1968 0.0
H726 H 0.67163 0.06246 0.25669 0.0
H727 H 0.75788 0.07084 0.22981 0.0
H728 H 0.5441 0.0576 0.16309 0.0
H729 H 0.69662 0.15362 0.09035 0.0
H730 H 0.53049 0.06912 0.11258 0.0
H731 H 0.66023 0.19089 0.10042 0.0
O732 O 0.6451 0.03865 0.16645 0.0
H733 H 0.77745 0.03789 0.13399 0.0
H734 H 0.71627 0.01355 0.21701 0.0
H735 H 0.74972 0.97758 0.19787 0.0
H736 H 0.78065 0.98968 0.15609 0.0
H737 H 0.74349 0.07313 0.15363 0.0
H738 H 0.77438 0.0629 0.27973 0.0
H739 H 0.73893 0.0543 0.31862 0.0
O740 O 0.67217 0.04227 0.2063 0.0
C741 C 0.64656 0.10508 0.20941 0.0
C742 C 0.70286 0.05775 0.29006 0.0
C743 C 0.75179 0.06274 0.27486 0.0
N744 N 0.71382 0.06701 0.24031 0.0
C745 C 0.69418 0.06243 0.26161 0.0
C746 C 0.74231 0.06733 0.24664 0.0
C747 C 0.73189 0.0579 0.29666 0.0
C748 C 0.67495 0.12154 0.11548 0.0
N749 N 0.65193 0.1153 0.13243 0.0
C750 C 0.6783 0.14878 0.1037 0.0
C751 C 0.65789 0.16969 0.10939 0.0
C752 C 0.63446 0.16316 0.1267 0.0
C753 C 0.63184 0.1357 0.13813 0.0
C754 C 0.57349 0.07908 0.09976 0.0
C755 C 0.58874 0.06632 0.15604 0.0
C756 C 0.60184 0.081 0.10889 0.0
N757 N 0.60911 0.0748 0.13677 0.0
C758 C 0.56017 0.06422 0.1477 0.0
C759 C 0.55255 0.07067 0.11935 0.0
C760 C 0.65387 0.02929 0.19074 0.0
C761 C 0.76415 0.03239 0.15226 0.0
C762 C 0.72959 0.01896 0.19877 0.0
C763 C 0.74854 0.99852 0.18807 0.0
C764 C 0.7659 0.00533 0.16464 0.0
N765 N 0.72801 0.04547 0.18653 0.0
C766 C 0.74496 0.0523 0.16355 0.0
Co767 Co 0.07935 0.35452 0.85217 0.0
Co768 Co 0.07486 0.30509 0.79762 0.0
O769 O 0.08264 0.31554 0.83769 0.0
C770 C 0.04152 0.34681 0.90265 0.0
O771 O 0.02554 0.36685 0.89114 0.0
C772 C 0.132 0.27849 0.80849 0.0
O773 O 0.14159 0.30298 0.81827 0.0
O774 O 0.10158 0.33496 0.78338 0.0
O775 O 0.09439 0.37067 0.81496 0.0
H776 H 0.05119 0.32401 0.69353 0.0
H777 H 0.11076 0.31128 0.88642 0.0
O778 O 0.06419 0.33867 0.8897 0.0
H779 H 0.18097 0.38696 0.86586 0.0
H780 H 0.08941 0.43214 0.92688 0.0
H781 H 0.05797 0.40902 0.828 0.0
H782 H 0.13133 0.39131 0.84874 0.0
H783 H 0.09347 0.38298 0.90816 0.0
O784 O 0.10649 0.27638 0.7992 0.0
H785 H 0.06075 0.33704 0.74416 0.0
H786 H 0.07347 0.2498 0.76562 0.0
H787 H 0.05372 0.45849 0.84575 0.0
H788 H 0.16013 0.3062 0.90422 0.0
H789 H 0.06948 0.47029 0.89554 0.0
H790 H 0.19564 0.34418 0.89388 0.0
O791 O 0.03959 0.35707 0.83685 0.0
H792 H 0.0442 0.22372 0.86113 0.0
H793 H 0.01523 0.28842 0.7824 0.0
H794 H 0.98123 0.25239 0.80031 0.0
H795 H 0.99568 0.21965 0.83989 0.0
H796 H 0.07746 0.26024 0.84276 0.0
H797 H 0.06439 0.23584 0.71512 0.0
H798 H 0.05302 0.27307 0.6787 0.0
O799 O 0.04268 0.33296 0.79511 0.0
C800 C 0.10398 0.36104 0.79103 0.0
C801 C 0.05608 0.30758 0.7092 0.0
C802 C 0.06354 0.2581 0.72131 0.0
N803 N 0.06757 0.29421 0.75787 0.0
C804 C 0.06145 0.31482 0.73793 0.0
C805 C 0.06877 0.26615 0.74986 0.0
C806 C 0.05713 0.279 0.70089 0.0
C807 C 0.12602 0.32803 0.88208 0.0
N808 N 0.11812 0.35162 0.86667 0.0
C809 C 0.15397 0.32498 0.89211 0.0
C810 C 0.1739 0.34628 0.88626 0.0
C811 C 0.16569 0.37027 0.87051 0.0
C812 C 0.13757 0.37257 0.86079 0.0
C813 C 0.08249 0.42726 0.90514 0.0
C814 C 0.06495 0.41402 0.84966 0.0
C815 C 0.08472 0.39948 0.89444 0.0
N816 N 0.07603 0.39317 0.86699 0.0
C817 C 0.06246 0.44205 0.85961 0.0
C818 C 0.0713 0.44866 0.88754 0.0
C819 C 0.02953 0.34946 0.81247 0.0
C820 C 0.03768 0.23782 0.84383 0.0
C821 C 0.02165 0.27434 0.79972 0.0
C822 C 1.00232 0.25393 0.80972 0.0
C823 C 0.01045 0.23556 0.83192 0.0
N824 N 0.04837 0.27633 0.81142 0.0
C825 C 0.05645 0.25848 0.83328 0.0
Co826 Co 0.34922 0.93281 0.15182 0.0
Co827 Co 0.29844 0.93603 0.20522 0.0
O828 O 0.30989 0.92965 0.16522 0.0
C829 C 0.34315 0.97243 0.10243 0.0
O830 O 0.36323 0.98781 0.11467 0.0
C831 C 0.27308 0.87902 0.19222 0.0
O832 O 0.2982 0.87026 0.18329 0.0
O833 O 0.32784 0.90876 0.2193 0.0
O834 O 0.36429 0.91596 0.18864 0.0
H835 H 0.31468 0.95571 0.31059 0.0
H836 H 0.30617 0.90354 0.11546 0.0
O837 O 0.3344 0.94963 0.11467 0.0
H838 H 0.38026 0.83119 0.13476 0.0
H839 H 0.42828 0.92423 0.07851 0.0
H840 H 0.4035 0.95222 0.17803 0.0
H841 H 0.3851 0.88006 0.15385 0.0
H842 H 0.37867 0.92035 0.09595 0.0
O843 O 0.2699 0.90436 0.20175 0.0
H844 H 0.32902 0.94794 0.26 0.0
H845 H 0.24236 0.93646 0.23571 0.0
H846 H 0.4534 0.95625 0.16156 0.0
H847 H 0.30061 0.85498 0.09569 0.0
H848 H 0.46605 0.94223 0.11146 0.0
H849 H 0.33779 0.81838 0.10539 0.0
O850 O 0.35215 0.97186 0.16887 0.0
H851 H 0.2186 0.96896 0.14081 0.0
H852 H 0.28149 0.99518 0.22196 0.0
H853 H 0.24592 0.02986 0.20431 0.0
H854 H 0.21409 0.01679 0.16352 0.0
H855 H 0.25465 0.93501 0.15897 0.0
H856 H 0.22709 0.94375 0.28613 0.0
H857 H 0.26337 0.9536 0.32395 0.0
O858 O 0.32635 0.96803 0.20956 0.0
C859 C 0.35395 0.90583 0.21201 0.0
C860 C 0.29865 0.9515 0.2943 0.0
C861 C 0.2495 0.94475 0.28057 0.0
N862 N 0.28654 0.94193 0.24488 0.0
C863 C 0.30664 0.94717 0.26559 0.0
C864 C 0.25829 0.94054 0.25208 0.0
C865 C 0.26987 0.95029 0.30178 0.0
C866 C 0.32258 0.88782 0.11953 0.0
N867 N 0.346 0.89469 0.13569 0.0
C868 C 0.31926 0.86032 0.10838 0.0
C869 C 0.3401 0.83979 0.11387 0.0
C870 C 0.36392 0.84695 0.13037 0.0
C871 C 0.3665 0.87465 0.14121 0.0
C872 C 0.42304 0.93039 0.1004 0.0
C873 C 0.40886 0.94601 0.15622 0.0
C874 C 0.395 0.92826 0.11038 0.0
N875 N 0.38823 0.936 0.138 0.0
C876 C 0.43714 0.94837 0.14701 0.0
C877 C 0.44422 0.94049 0.11889 0.0
C878 C 0.34391 0.98126 0.19334 0.0
C879 C 0.23229 0.97488 0.15865 0.0
C880 C 0.26781 0.98937 0.20411 0.0
C881 C 0.24766 0.00908 0.19426 0.0
C882 C 0.22979 1.00172 0.17138 0.0
N883 N 0.27004 0.96303 0.1916 0.0
C884 C 0.25269 0.95571 0.16908 0.0
Co885 Co 0.93488 0.65578 0.86109 0.0
Co886 Co 0.92953 0.71037 0.81106 0.0
O887 O 0.92499 0.69484 0.85006 0.0
C888 C 0.96617 0.69184 0.90311 0.0
O889 O 0.97203 0.70943 0.88188 0.0
C890 C 0.86872 0.72033 0.82473 0.0
O891 O 0.86789 0.69349 0.83284 0.0
O892 O 0.90984 0.67693 0.7935 0.0
O893 O 0.91899 0.64071 0.82397 0.0
H894 H 0.95453 0.70699 0.70563 0.0
H895 H 0.90088 0.69189 0.90072 0.0
O896 O 0.9512 0.6696 0.89861 0.0
H897 H 0.84034 0.60826 0.88011 0.0
H898 H 0.94417 0.5734 0.93032 0.0
H899 H 0.95988 0.60617 0.83042 0.0
H900 H 0.88856 0.61208 0.85915 0.0
H901 H 0.93141 0.62246 0.9159 0.0
O902 O 0.89193 0.73083 0.81507 0.0
H903 H 0.94903 0.68742 0.75473 0.0
H904 H 0.91835 0.76739 0.78479 0.0
H905 H 0.97255 0.5568 0.84381 0.0
H906 H 0.85288 0.68884 0.92239 0.0
H907 H 0.96474 0.54014 0.8941 0.0
H908 H 0.82221 0.64684 0.91202 0.0
O909 O 0.97327 0.65947 0.84313 0.0
H910 H 0.94166 0.79085 0.88175 0.0
H911 H 0.98425 0.74047 0.79878 0.0
H912 H 0.00979 0.78115 0.82057 0.0
H913 H 0.98845 0.80666 0.86232 0.0
H914 H 0.91699 0.74987 0.8595 0.0
H915 H 0.92319 0.78777 0.73593 0.0
H916 H 0.94152 0.75752 0.69598 0.0
O917 O 0.96699 0.69017 0.80624 0.0
C918 C 0.90933 0.65051 0.80017 0.0
C919 C 0.94662 0.72042 0.72288 0.0
C920 C 0.92899 0.76574 0.73988 0.0
N921 N 0.93365 0.72631 0.77265 0.0
C922 C 0.94357 0.70948 0.75075 0.0
C923 C 0.92623 0.75407 0.76749 0.0
C924 C 0.93929 0.74876 0.71747 0.0
C925 C 0.88774 0.67344 0.89632 0.0
N926 N 0.8975 0.65218 0.87869 0.0
C927 C 0.86055 0.67188 0.90856 0.0
C928 C 0.84334 0.64832 0.9027 0.0
C929 C 0.85348 0.62668 0.88478 0.0
C930 C 0.88077 0.629 0.87288 0.0
C931 C 0.94762 0.58039 0.90833 0.0
C932 C 0.95622 0.59901 0.85229 0.0
C933 C 0.94052 0.60817 0.90006 0.0
N934 N 0.9447 0.6171 0.87228 0.0
C935 C 0.96352 0.57106 0.85977 0.0
C936 C 0.95916 0.56174 0.888 0.0
C937 C 0.982 0.67227 0.8205 0.0
C938 C 0.95113 0.77996 0.8635 0.0
C939 C 0.97488 0.75139 0.81702 0.0
C940 C 0.98941 0.77446 0.82921 0.0
C941 C 0.97741 0.78879 0.85262 0.0
N942 N 0.9491 0.74288 0.8278 0.0
C943 C 0.93719 0.75683 0.85073 0.0
H944 H 0.27623 0.36045 0.31136 0.0
H945 H 0.20418 0.3147 0.3478 0.0
H946 H 0.23431 0.27163 0.35295 0.0
H947 H 0.3049 0.30205 0.27052 0.0
H948 H 0.34156 0.31165 0.2772 0.0
H949 H 0.31436 0.33885 0.27668 0.0
H950 H 0.32938 0.355 0.32797 0.0
H951 H 0.35663 0.32785 0.32866 0.0
H952 H 0.3302 0.32926 0.35688 0.0
H953 H 0.2726 0.23328 0.35387 0.0
H954 H 0.31564 0.20294 0.35044 0.0
H955 H 0.36249 0.27398 0.31337 0.0
C956 C 0.26671 0.34141 0.32045 0.0
C957 C 0.23773 0.34102 0.32913 0.0
C958 C 0.22626 0.31558 0.34093 0.0
C959 C 0.24323 0.29099 0.34396 0.0
C960 C 0.27167 0.29213 0.33513 0.0
C961 C 0.28331 0.31671 0.32362 0.0
C962 C 0.31442 0.31238 0.31569 0.0
C963 C 0.31907 0.31647 0.28309 0.0
C964 C 0.33379 0.33231 0.33336 0.0
C965 C 0.31849 0.28147 0.32445 0.0
C966 C 0.29361 0.27016 0.33565 0.0
C967 C 0.29218 0.24194 0.34513 0.0
C968 C 0.31677 0.22485 0.34307 0.0
C969 C 0.34252 0.23597 0.33159 0.0
C970 C 0.34322 0.26474 0.32224 0.0
H971 H 0.36178 0.72967 0.69727 0.0
H972 H 0.31729 0.80331 0.66223 0.0
H973 H 0.27357 0.77444 0.6571 0.0
H974 H 0.32857 0.67711 0.65119 0.0
H975 H 0.32664 0.65028 0.67901 0.0
H976 H 0.35457 0.67667 0.67989 0.0
H977 H 0.3393 0.69136 0.73154 0.0
H978 H 0.31133 0.665 0.73082 0.0
H979 H 0.30285 0.70183 0.73817 0.0
H980 H 0.23445 0.73776 0.65608 0.0
H981 H 0.20274 0.69584 0.65922 0.0
H982 H 0.2725 0.64581 0.69472 0.0
C983 C 0.34286 0.73975 0.6885 0.0
C984 C 0.34302 0.76885 0.68023 0.0
C985 C 0.31775 0.78113 0.66883 0.0
C986 C 0.29278 0.76488 0.66578 0.0
C987 C 0.29333 0.73633 0.67419 0.0
C988 C 0.3177 0.72383 0.6853 0.0
C989 C 0.31252 0.69272 0.69277 0.0
C990 C 0.33172 0.67304 0.67463 0.0
C991 C 0.31675 0.68743 0.72526 0.0
C992 C 0.28141 0.68973 0.68421 0.0
C993 C 0.27077 0.71514 0.67353 0.0
C994 C 0.24254 0.71774 0.6644 0.0
C995 C 0.22467 0.69378 0.66631 0.0
C996 C 0.23504 0.66749 0.67725 0.0
C997 C 0.26388 0.66555 0.68622 0.0
H998 H 0.67579 0.76269 0.26899 0.0
H999 H 0.64044 0.75168 0.35489 0.0
H1000 H 0.67705 0.71525 0.36546 0.0
H1001 H 0.68947 0.69014 0.25609 0.0
H1002 H 0.72226 0.69581 0.23657 0.0
H1003 H 0.69514 0.72303 0.23671 0.0
H1004 H 0.73178 0.75968 0.25625 0.0
H1005 H 0.75906 0.73253 0.25613 0.0
H1006 H 0.75126 0.75181 0.28887 0.0
H1007 H 0.71512 0.67729 0.36543 0.0
H1008 H 0.75142 0.64057 0.35461 0.0
H1009 H 0.76213 0.67626 0.2688 0.0
C1010 C 0.67606 0.75304 0.29023 0.0
C1011 C 0.65527 0.76023 0.31116 0.0
C1012 C 0.65614 0.74665 0.3385 0.0
C1013 C 0.67692 0.72594 0.34475 0.0
C1014 C 0.69679 0.71903 0.32349 0.0
C1015 C 0.69661 0.73223 0.29681 0.0
C1016 C 0.71926 0.71967 0.27716 0.0
C1017 C 0.70571 0.70638 0.25004 0.0
C1018 C 0.74167 0.74227 0.26914 0.0
C1019 C 0.73183 0.69699 0.29676 0.0
C1020 C 0.71874 0.69712 0.32347 0.0
C1021 C 0.72575 0.67721 0.3447 0.0
C1022 C 0.74641 0.6564 0.33833 0.0
C1023 C 0.75984 0.65558 0.31093 0.0
C1024 C 0.75263 0.67649 0.2901 0.0
H1025 H 0.6861 0.23269 0.67707 0.0
H1026 H 0.61166 0.28133 0.70404 0.0
H1027 H 0.64091 0.32452 0.70743 0.0
H1028 H 0.73637 0.26814 0.72351 0.0
H1029 H 0.76505 0.26828 0.69759 0.0
H1030 H 0.73836 0.24064 0.69635 0.0
H1031 H 0.72742 0.25331 0.64307 0.0
H1032 H 0.75413 0.28096 0.64413 0.0
H1033 H 0.71803 0.28948 0.63375 0.0
H1034 H 0.67725 0.36219 0.70933 0.0
H1035 H 0.71941 0.39319 0.70893 0.0
H1036 H 0.77172 0.32187 0.68042 0.0
C1037 C 0.67597 0.25246 0.68355 0.0
C1038 C 0.6465 0.25342 0.69039 0.0
C1039 C 0.63413 0.2798 0.69881 0.0
C1040 C 0.65057 0.30459 0.70078 0.0
C1041 C 0.67945 0.30291 0.69417 0.0
C1042 C 0.69218 0.27767 0.68564 0.0
C1043 C 0.72387 0.28213 0.68013 0.0
C1044 C 0.74198 0.2637 0.70062 0.0
C1045 C 0.73129 0.27611 0.64838 0.0
C1046 C 0.72682 0.31371 0.68716 0.0
C1047 C 0.7008 0.32511 0.69516 0.0
C1048 C 0.69777 0.35359 0.70304 0.0
C1049 C 0.72196 0.37103 0.70279 0.0
C1050 C 0.74901 0.36006 0.69469 0.0
C1051 C 0.75138 0.33094 0.68668 0.0
H1052 H 0.77438 0.8621 0.80748 0.0
H1053 H 0.70428 0.81531 0.84646 0.0
H1054 H 0.73517 0.77289 0.85104 0.0
H1055 H 0.80294 0.80358 0.76637 0.0
H1056 H 0.83965 0.81368 0.77196 0.0
H1057 H 0.81213 0.84055 0.77192 0.0
H1058 H 0.82831 0.85737 0.82262 0.0
H1059 H 0.85589 0.83055 0.82281 0.0
H1060 H 0.83021 0.83191 0.85175 0.0
H1061 H 0.77353 0.73532 0.85117 0.0
H1062 H 0.8167 0.70538 0.84702 0.0
H1063 H 0.86206 0.77643 0.80805 0.0
C1064 C 0.7655 0.84295 0.817 0.0
C1065 C 0.73681 0.84208 0.82653 0.0
C1066 C 0.72612 0.81655 0.83889 0.0
C1067 C 0.74352 0.79231 0.84162 0.0
C1068 C 0.77163 0.79386 0.83194 0.0
C1069 C 0.7826 0.81851 0.8199 0.0
C1070 C 0.81354 0.81446 0.81117 0.0
C1071 C 0.81727 0.81829 0.77841 0.0
C1072 C 0.83314 0.83478 0.8281 0.0
C1073 C 0.81822 0.78366 0.8201 0.0
C1074 C 0.79377 0.77219 0.83205 0.0
C1075 C 0.79281 0.74408 0.84185 0.0
C1076 C 0.81746 0.72721 0.83935 0.0
C1077 C 0.84281 0.73846 0.82715 0.0
C1078 C 0.84306 0.76713 0.81747 0.0
H1079 H 0.73382 0.18731 0.17474 0.0
H1080 H 0.78303 0.11225 0.19866 0.0
H1081 H 0.82689 0.14088 0.19853 0.0
H1082 H 0.78769 0.21844 0.12723 0.0
H1083 H 0.78035 0.25463 0.13816 0.0
H1084 H 0.75239 0.22824 0.13916 0.0
H1085 H 0.74371 0.23931 0.19322 0.0
H1086 H 0.77163 0.26571 0.19239 0.0
H1087 H 0.77307 0.23703 0.21829 0.0
H1088 H 0.86529 0.17697 0.19727 0.0
H1089 H 0.89648 0.21903 0.19508 0.0
H1090 H 0.82373 0.27191 0.17192 0.0
C1091 C 0.75385 0.1769 0.17979 0.0
C1092 C 0.75482 0.14744 0.18676 0.0
C1093 C 0.78153 0.13472 0.19334 0.0
C1094 C 0.80668 0.1508 0.19327 0.0
C1095 C 0.80499 0.17968 0.18654 0.0
C1096 C 0.77937 0.19273 0.17988 0.0
C1097 C 0.78377 0.22437 0.17402 0.0
C1098 C 0.77556 0.23186 0.14278 0.0
C1099 C 0.76705 0.24268 0.19578 0.0
C1100 C 0.81579 0.22698 0.17871 0.0
C1101 C 0.82748 0.20082 0.1858 0.0
C1102 C 0.85643 0.19758 0.19165 0.0
C1103 C 0.87399 0.2217 0.19038 0.0
C1104 C 0.86266 0.24891 0.18334 0.0
C1105 C 0.83311 0.25145 0.17725 0.0
H1106 H 0.1893 0.27324 0.82326 0.0
H1107 H 0.11562 0.2245 0.79455 0.0
H1108 H 0.14439 0.18076 0.79475 0.0
H1109 H 0.24129 0.23476 0.78091 0.0
H1110 H 0.26868 0.23566 0.80824 0.0
H1111 H 0.24234 0.26366 0.8066 0.0
H1112 H 0.22871 0.25402 0.85988 0.0
H1113 H 0.25499 0.22596 0.86168 0.0
H1114 H 0.2183 0.21854 0.87065 0.0
H1115 H 0.18005 0.1424 0.79746 0.0
H1116 H 0.22166 0.11089 0.80165 0.0
H1117 H 0.27377 0.18301 0.82829 0.0
C1118 C 0.17925 0.25335 0.81706 0.0
C1119 C 0.15012 0.25246 0.80883 0.0
C1120 C 0.13784 0.22594 0.80084 0.0
C1121 C 0.15399 0.20085 0.80094 0.0
C1122 C 0.18251 0.20243 0.80906 0.0
C1123 C 0.19519 0.22788 0.81694 0.0
C1124 C 0.2265 0.22329 0.8243 0.0
C1125 C 0.24584 0.24035 0.80378 0.0
C1126 C 0.23247 0.2309 0.85601 0.0
C1127 C 0.2293 0.19136 0.81914 0.0
C1128 C 0.20352 0.17991 0.81048 0.0
C1129 C 0.20039 0.15106 0.80422 0.0
C1130 C 0.22427 0.13332 0.80666 0.0
C1131 C 0.25114 0.14438 0.81523 0.0
C1132 C 0.25357 0.17386 0.8217 0.0
H1133 H 0.27086 0.82164 0.1775 0.0
H1134 H 0.21801 0.89302 0.20475 0.0
H1135 H 0.17578 0.86203 0.20413 0.0
H1136 H 0.21821 0.78924 0.12963 0.0
H1137 H 0.22766 0.75315 0.13918 0.0
H1138 H 0.25414 0.78099 0.14081 0.0
H1139 H 0.26414 0.76858 0.19434 0.0
H1140 H 0.23771 0.74072 0.19288 0.0
H1141 H 0.23504 0.76838 0.2198 0.0
H1142 H 0.13948 0.82409 0.20183 0.0
H1143 H 0.11057 0.78058 0.19851 0.0
H1144 H 0.18571 0.73235 0.17288 0.0
C1145 C 0.25038 0.83075 0.18321 0.0
C1146 C 0.24787 0.85985 0.19121 0.0
C1147 C 0.22064 0.87086 0.19862 0.0
C1148 C 0.19642 0.85343 0.19828 0.0
C1149 C 0.19962 0.82494 0.19047 0.0
C1150 C 0.22581 0.81354 0.18306 0.0
C1151 C 0.22308 0.78193 0.17613 0.0
C1152 C 0.23126 0.77599 0.14456 0.0
C1153 C 0.24106 0.76384 0.19704 0.0
C1154 C 0.19133 0.77743 0.18108 0.0
C1155 C 0.17834 0.80266 0.18921 0.0
C1156 C 0.14935 0.80418 0.19543 0.0
C1157 C 0.13311 0.77923 0.19352 0.0
C1158 C 0.14579 0.75289 0.18549 0.0
C1159 C 0.17534 0.75211 0.17898 0.0
H1160 H 0.12174 0.49892 0.29047 0.0
H1161 H 0.21045 0.52305 0.3007 0.0
H1162 H 0.20077 0.56887 0.27584 0.0
H1163 H 0.11523 0.52562 0.21899 0.0
H1164 H 0.07881 0.53738 0.22308 0.0
H1165 H 0.09195 0.50797 0.24431 0.0
H1166 H 0.0771 0.53415 0.29123 0.0
H1167 H 0.0638 0.56363 0.27014 0.0
H1168 H 0.09003 0.56979 0.2979 0.0
H1169 H 0.18106 0.61235 0.25024 0.0
H1170 H 0.15415 0.64777 0.22115 0.0
H1171 H 0.0798 0.59283 0.22308 0.0
C1172 C 0.13895 0.51413 0.2879 0.0
C1173 C 0.16673 0.50783 0.29789 0.0
C1174 C 0.18899 0.52772 0.29337 0.0
C1175 C 0.18366 0.55377 0.27937 0.0
C1176 C 0.15607 0.55931 0.26953 0.0
C1177 C 0.13416 0.53988 0.27327 0.0
C1178 C 0.10703 0.54995 0.2586 0.0
C1179 C 0.09772 0.52898 0.23483 0.0
C1180 C 0.08308 0.55466 0.28079 0.0
C1181 C 0.11712 0.578 0.24592 0.0
C1182 C 0.1453 0.58331 0.25299 0.0
C1183 C 0.15905 0.60832 0.24442 0.0
C1184 C 0.14366 0.62831 0.22801 0.0
C1185 C 0.11514 0.62277 0.21978 0.0
C1186 C 0.10175 0.59732 0.22886 0.0
H1187 H 0.49749 0.84094 0.74504 0.0
H1188 H 0.53121 0.84406 0.65798 0.0
H1189 H 0.57808 0.85955 0.67719 0.0
H1190 H 0.5314 0.90451 0.76825 0.0
H1191 H 0.53774 0.89228 0.80458 0.0
H1192 H 0.50798 0.87847 0.78434 0.0
H1193 H 0.52625 0.82688 0.79251 0.0
H1194 H 0.55605 0.84053 0.81287 0.0
H1195 H 0.56219 0.81767 0.78219 0.0
H1196 H 0.62096 0.87541 0.70604 0.0
H1197 H 0.65535 0.89443 0.74151 0.0
H1198 H 0.59208 0.88472 0.80929 0.0
C1199 C 0.51495 0.8443 0.73012 0.0
C1200 C 0.51104 0.8408 0.7001 0.0
C1201 C 0.53399 0.84638 0.68108 0.0
C1202 C 0.56063 0.8551 0.69181 0.0
C1203 C 0.56375 0.85862 0.72154 0.0
C1204 C 0.54142 0.8537 0.74041 0.0
C1205 C 0.54957 0.86141 0.77109 0.0
C1206 C 0.53054 0.88561 0.78274 0.0
C1207 C 0.54845 0.83504 0.79083 0.0
C1208 C 0.57997 0.87144 0.76657 0.0
C1209 C 0.58788 0.86926 0.73793 0.0
C1210 C 0.61498 0.87723 0.72853 0.0
C1211 C 0.6344 0.88797 0.74888 0.0
C1212 C 0.6265 0.89113 0.77826 0.0
C1213 C 0.59888 0.88259 0.78708 0.0
H1214 H 0.92548 0.3866 0.24853 0.0
H1215 H 0.85322 0.36772 0.19344 0.0
H1216 H 0.82457 0.40442 0.21882 0.0
H1217 H 0.88379 0.4025 0.31521 0.0
H1218 H 0.90734 0.43109 0.32571 0.0
H1219 H 0.92102 0.40118 0.30549 0.0
H1220 H 0.94044 0.43584 0.26663 0.0
H1221 H 0.92669 0.46578 0.2866 0.0
H1222 H 0.91637 0.46065 0.24947 0.0
H1223 H 0.80579 0.44611 0.24622 0.0
H1224 H 0.79728 0.48969 0.2745 0.0
H1225 H 0.88135 0.48161 0.31319 0.0
C1226 C 0.90336 0.38979 0.24249 0.0
C1227 C 0.89114 0.3742 0.21954 0.0
C1228 C 0.86256 0.37928 0.21137 0.0
C1229 C 0.84623 0.40003 0.22563 0.0
C1230 C 0.8589 0.41541 0.248 0.0
C1231 C 0.88675 0.41046 0.25657 0.0
C1232 C 0.89575 0.43133 0.27994 0.0
C1233 C 0.90236 0.41558 0.30827 0.0
C1234 C 0.92132 0.44947 0.27005 0.0
C1235 C 0.86887 0.44923 0.28261 0.0
C1236 C 0.84787 0.43951 0.2641 0.0
C1237 C 0.82187 0.45362 0.26118 0.0
C1238 C 0.81726 0.47845 0.27737 0.0
C1239 C 0.83846 0.48901 0.29642 0.0
C1240 C 0.86447 0.47385 0.29929 0.0
H1241 H 0.50815 0.14972 0.74366 0.0
H1242 H 0.47776 0.14134 0.65562 0.0
H1243 H 0.42998 0.12753 0.67404 0.0
H1244 H 0.47046 0.08891 0.77149 0.0
H1245 H 0.46382 0.10533 0.80602 0.0
H1246 H 0.49494 0.11514 0.78553 0.0
H1247 H 0.47952 0.16825 0.78773 0.0
H1248 H 0.44815 0.15858 0.80796 0.0
H1249 H 0.44466 0.1784 0.77479 0.0
H1250 H 0.38491 0.11609 0.70293 0.0
H1251 H 0.34859 0.10226 0.73903 0.0
H1252 H 0.41035 0.11617 0.8075 0.0
C1253 C 0.49146 0.14503 0.7282 0.0
C1254 C 0.49653 0.14679 0.69821 0.0
C1255 C 0.47427 0.14003 0.67869 0.0
C1256 C 0.44708 0.13238 0.68897 0.0
C1257 C 0.44271 0.13126 0.71877 0.0
C1258 C 0.4645 0.13696 0.73804 0.0
C1259 C 0.45491 0.13306 0.76895 0.0
C1260 C 0.47204 0.10919 0.78386 0.0
C1261 C 0.45693 0.16125 0.78585 0.0
C1262 C 0.42421 0.12437 0.76417 0.0
C1263 C 0.41738 0.12377 0.73516 0.0
C1264 C 0.39011 0.11637 0.72569 0.0
C1265 C 0.36956 0.10867 0.74639 0.0
C1266 C 0.37656 0.10802 0.77617 0.0
C1267 C 0.40418 0.11644 0.78499 0.0
H1268 H 0.15688 0.51454 0.73868 0.0
H1269 H 0.15013 0.48381 0.65068 0.0
H1270 H 0.138 0.43556 0.66898 0.0
H1271 H 0.18598 0.45071 0.77139 0.0
H1272 H 0.16501 0.45417 0.80382 0.0
H1273 H 0.17514 0.48555 0.7838 0.0
H1274 H 0.12203 0.50051 0.77982 0.0
H1275 H 0.11175 0.46928 0.79993 0.0
H1276 H 0.09651 0.47583 0.76482 0.0
H1277 H 0.12713 0.39046 0.69737 0.0
H1278 H 0.11249 0.3539 0.73276 0.0
H1279 H 0.12263 0.41564 0.80193 0.0
C1280 C 0.15317 0.49755 0.72329 0.0
C1281 C 0.15481 0.50269 0.69328 0.0
C1282 C 0.14907 0.48019 0.67375 0.0
C1283 C 0.14232 0.45274 0.68396 0.0
C1284 C 0.14093 0.44835 0.71373 0.0
C1285 C 0.14575 0.47029 0.73309 0.0
C1286 C 0.14082 0.46062 0.7639 0.0
C1287 C 0.16838 0.4629 0.78178 0.0
C1288 C 0.11632 0.47756 0.77793 0.0
C1289 C 0.13254 0.42977 0.75892 0.0
C1290 C 0.13318 0.42295 0.7299 0.0
C1291 C 0.12644 0.39563 0.72013 0.0
C1292 C 0.11821 0.37495 0.74045 0.0
C1293 C 0.11625 0.38182 0.77021 0.0
C1294 C 0.12389 0.40958 0.77941 0.0
H1295 H 0.4084 0.88661 0.20145 0.0
H1296 H 0.34493 0.89407 0.26935 0.0
H1297 H 0.37996 0.87596 0.30467 0.0
H1298 H 0.44134 0.82049 0.2288 0.0
H1299 H 0.47666 0.83143 0.21807 0.0
H1300 H 0.446 0.84344 0.19792 0.0
H1301 H 0.46167 0.89595 0.20552 0.0
H1302 H 0.49224 0.88413 0.22582 0.0
H1303 H 0.4674 0.909 0.24167 0.0
H1304 H 0.42361 0.86234 0.33348 0.0
H1305 H 0.47124 0.84939 0.35269 0.0
H1306 H 0.50494 0.84729 0.26556 0.0
C1307 C 0.40163 0.88399 0.22363 0.0
C1308 C 0.37384 0.89185 0.23256 0.0
C1309 C 0.36602 0.88816 0.26189 0.0
C1310 C 0.3858 0.87793 0.28216 0.0
C1311 C 0.41317 0.87095 0.27271 0.0
C1312 C 0.42093 0.87335 0.24404 0.0
C1313 C 0.45182 0.86487 0.23952 0.0
C1314 C 0.45408 0.83848 0.21992 0.0
C1315 C 0.4693 0.88998 0.22743 0.0
C1316 C 0.46042 0.85791 0.27024 0.0
C1317 C 0.43788 0.86174 0.28911 0.0
C1318 C 0.44126 0.85871 0.31886 0.0
C1319 C 0.46835 0.85149 0.32959 0.0
C1320 C 0.49153 0.84694 0.31055 0.0
C1321 C 0.48738 0.84999 0.28052 0.0
H1322 H 0.85341 0.49886 0.74708 0.0
H1323 H 0.85753 0.53008 0.65905 0.0
H1324 H 0.87369 0.57725 0.67715 0.0
H1325 H 0.82815 0.5624 0.78046 0.0
H1326 H 0.84968 0.55814 0.81243 0.0
H1327 H 0.83833 0.5272 0.79241 0.0
H1328 H 0.89093 0.51086 0.78711 0.0
H1329 H 0.90246 0.54162 0.8073 0.0
H1330 H 0.9168 0.53499 0.77182 0.0
H1331 H 0.8873 0.62185 0.70587 0.0
H1332 H 0.90224 0.65802 0.74171 0.0
H1333 H 0.89159 0.59566 0.81016 0.0
C1334 C 0.85766 0.51561 0.73156 0.0
C1335 C 0.85398 0.51096 0.70167 0.0
C1336 C 0.86027 0.53325 0.68204 0.0
C1337 C 0.86929 0.56009 0.69215 0.0
C1338 C 0.87232 0.56405 0.72187 0.0
C1339 C 0.86712 0.5422 0.74121 0.0
C1340 C 0.8729 0.55138 0.77196 0.0
C1341 C 0.84564 0.54968 0.79039 0.0
C1342 C 0.89722 0.53366 0.78532 0.0
C1343 C 0.88191 0.58198 0.76705 0.0
C1344 C 0.88118 0.58906 0.7381 0.0
C1345 C 0.88812 0.61643 0.72856 0.0
C1346 C 0.89646 0.63688 0.74911 0.0
C1347 C 0.89816 0.62973 0.77881 0.0
C1348 C 0.89059 0.6019 0.7877 0.0
H1349 H 0.59245 0.12573 0.20003 0.0
H1350 H 0.65671 0.11582 0.26686 0.0
H1351 H 0.62238 0.13362 0.30308 0.0
H1352 H 0.56066 0.19164 0.22935 0.0
H1353 H 0.52511 0.18133 0.21876 0.0
H1354 H 0.5554 0.16948 0.19798 0.0
H1355 H 0.53923 0.11698 0.20448 0.0
H1356 H 0.50905 0.12864 0.22542 0.0
H1357 H 0.53379 0.10313 0.24037 0.0
H1358 H 0.57898 0.147 0.33285 0.0
H1359 H 0.53164 0.16 0.35283 0.0
H1360 H 0.49724 0.16466 0.26607 0.0
C1361 C 0.59957 0.12779 0.22216 0.0
C1362 C 0.62736 0.11929 0.23052 0.0
C1363 C 0.63563 0.12224 0.25982 0.0
C1364 C 0.61623 0.13228 0.2806 0.0
C1365 C 0.58881 0.13982 0.27169 0.0
C1366 C 0.58068 0.13822 0.24306 0.0
C1367 C 0.54983 0.14713 0.23912 0.0
C1368 C 0.54763 0.174 0.22018 0.0
C1369 C 0.53193 0.1225 0.22661 0.0
C1370 C 0.54166 0.15345 0.27009 0.0
C1371 C 0.56435 0.1489 0.28862 0.0
C1372 C 0.56125 0.15121 0.31849 0.0
C1373 C 0.53432 0.15848 0.32965 0.0
C1374 C 0.51102 0.1638 0.31095 0.0
C1375 C 0.51489 0.16143 0.28081 0.0
H1376 H 0.65771 0.99379 0.76105 0.0
H1377 H 0.65486 0.02696 0.84836 0.0
H1378 H 0.64097 0.07443 0.82941 0.0
H1379 H 0.68388 0.05743 0.72512 0.0
H1380 H 0.66135 0.05273 0.69393 0.0
H1381 H 0.67319 0.02208 0.71418 0.0
H1382 H 0.62068 0.00623 0.72128 0.0
H1383 H 0.6087 0.03675 0.70098 0.0
H1384 H 0.59544 0.03079 0.737 0.0
H1385 H 0.62762 0.11837 0.80063 0.0
H1386 H 0.6105 0.15381 0.7652 0.0
H1387 H 0.6184 0.09062 0.69705 0.0
C1388 C 0.65451 0.01118 0.77612 0.0
C1389 C 0.65768 0.00691 0.80614 0.0
C1390 C 0.65258 0.02989 0.82529 0.0
C1391 C 0.64485 0.05691 0.8147 0.0
C1392 C 0.64185 0.06043 0.78495 0.0
C1393 C 0.64612 0.03806 0.76596 0.0
C1394 C 0.63939 0.04685 0.73521 0.0
C1395 C 0.66605 0.04465 0.71598 0.0
C1396 C 0.61458 0.0291 0.7229 0.0
C1397 C 0.6307 0.07768 0.73983 0.0
C1398 C 0.6327 0.08524 0.76859 0.0
C1399 C 0.62588 0.11264 0.77807 0.0
C1400 C 0.61623 0.13267 0.75772 0.0
C1401 C 0.61297 0.12508 0.72826 0.0
C1402 C 0.62064 0.09722 0.71933 0.0
H1403 H 0.10141 0.38023 0.30449 0.0
H1404 H 0.16037 0.40306 0.23608 0.0
H1405 H 0.12401 0.38943 0.19974 0.0
H1406 H 0.06876 0.31908 0.26813 0.0
H1407 H 0.03398 0.32692 0.28277 0.0
H1408 H 0.06559 0.33639 0.30275 0.0
H1409 H 0.04807 0.38885 0.30526 0.0
H1410 H 0.01663 0.37965 0.28495 0.0
H1411 H 0.0399 0.4076 0.2723 0.0
H1412 H 0.07867 0.37765 0.1711 0.0
H1413 H 0.03087 0.36379 0.15291 0.0
H1414 H 0.00316 0.34785 0.24079 0.0
C1415 C 0.10699 0.38191 0.28189 0.0
C1416 C 0.1338 0.39271 0.27316 0.0
C1417 C 0.14009 0.39459 0.2433 0.0
C1418 C 0.11948 0.38709 0.22252 0.0
C1419 C 0.09289 0.37743 0.23199 0.0
C1420 C 0.08687 0.37438 0.26102 0.0
C1421 C 0.05659 0.36426 0.26587 0.0
C1422 C 0.05622 0.33492 0.28075 0.0
C1423 C 0.03929 0.38641 0.28311 0.0
C1424 C 0.0463 0.36228 0.23501 0.0
C1425 C 0.06737 0.37014 0.21571 0.0
C1426 C 0.06217 0.37112 0.18605 0.0
C1427 C 0.03493 0.36341 0.17593 0.0
C1428 C 0.01336 0.35457 0.1954 0.0
C1429 C 0.01927 0.35417 0.2253 0.0
H1430 H 0.35554 0.00628 0.76414 0.0
H1431 H 0.3628 0.97522 0.852 0.0
H1432 H 0.37841 0.92798 0.83338 0.0
H1433 H 0.32915 0.94286 0.73176 0.0
H1434 H 0.34952 0.94708 0.69903 0.0
H1435 H 0.33889 0.97804 0.71944 0.0
H1436 H 0.39164 0.99432 0.72286 0.0
H1437 H 0.40244 0.96357 0.70225 0.0
H1438 H 0.41805 0.97015 0.73718 0.0
H1439 H 0.39096 0.8833 0.80415 0.0
H1440 H 0.40481 0.84721 0.76774 0.0
H1441 H 0.39163 0.90965 0.69981 0.0
C1442 C 0.36038 0.98955 0.7795 0.0
C1443 C 0.35774 0.9942 0.80948 0.0
C1444 C 0.36477 0.97199 0.82893 0.0
C1445 C 0.37346 0.94512 0.81854 0.0
C1446 C 0.37541 0.94113 0.78872 0.0
C1447 C 0.36952 0.96297 0.76956 0.0
C1448 C 0.37418 0.95381 0.73863 0.0
C1449 C 0.34627 0.95555 0.7212 0.0
C1450 C 0.398 0.97151 0.7244 0.0
C1451 C 0.38336 0.92323 0.74323 0.0
C1452 C 0.38367 0.91612 0.77218 0.0
C1453 C 0.39098 0.88874 0.78145 0.0
C1454 C 0.39867 0.86834 0.76059 0.0
C1455 C 0.39939 0.87557 0.73087 0.0
C1456 C 0.39139 0.90337 0.72228 0.0
H1457 H 0.91361 0.6057 0.30445 0.0
H1458 H 0.84787 0.60276 0.2385 0.0
H1459 H 0.88305 0.61964 0.20236 0.0
H1460 H 0.94833 0.67 0.27882 0.0
H1461 H 0.98337 0.65725 0.28847 0.0
H1462 H 0.95264 0.64572 0.30871 0.0
H1463 H 0.96614 0.59294 0.29875 0.0
H1464 H 0.99674 0.60429 0.27826 0.0
H1465 H 0.97063 0.58105 0.26203 0.0
H1466 H 0.92724 0.63345 0.17288 0.0
H1467 H 0.97461 0.6478 0.15396 0.0
H1468 H 0.00948 0.64384 0.24061 0.0
C1469 C 0.90634 0.60888 0.28254 0.0
C1470 C 0.87792 0.60286 0.27436 0.0
C1471 C 0.86949 0.60735 0.24533 0.0
C1472 C 0.88936 0.61681 0.22465 0.0
C1473 C 0.91738 0.62202 0.23348 0.0
C1474 C 0.92565 0.61862 0.2619 0.0
C1475 C 0.95685 0.62566 0.26618 0.0
C1476 C 0.9605 0.65118 0.28676 0.0
C1477 C 0.97357 0.59942 0.27694 0.0
C1478 C 0.96507 0.63339 0.23566 0.0
C1479 C 0.94218 0.6309 0.21697 0.0
C1480 C 0.94518 0.63578 0.18741 0.0
C1481 C 0.97215 0.64375 0.17684 0.0
C1482 C 0.99558 0.64712 0.19587 0.0
C1483 C 0.99186 0.6418 0.2256 0.0
H1484 H 0.64358 0.01497 0.24675 0.0
H1485 H 0.6399 0.98157 0.15954 0.0
H1486 H 0.62564 0.93426 0.17883 0.0
H1487 H 0.67115 0.95322 0.28151 0.0
H1488 H 0.64962 0.95724 0.31349 0.0
H1489 H 0.65959 0.98821 0.29278 0.0
H1490 H 0.60634 1.00226 0.28734 0.0
H1491 H 0.5962 0.97151 0.30828 0.0
H1492 H 0.58142 0.97675 0.27275 0.0
H1493 H 0.61461 0.88976 0.20852 0.0
H1494 H 0.6013 0.85373 0.2451 0.0
H1495 H 0.60893 0.91795 0.31221 0.0
C1496 C 0.63967 0.99771 0.2317 0.0
C1497 C 0.64296 1.00176 0.20168 0.0
C1498 C 0.63733 0.97884 0.18262 0.0
C1499 C 0.62944 0.95191 0.1934 0.0
C1500 C 0.6268 0.94851 0.22322 0.0
C1501 C 0.63121 0.97099 0.24203 0.0
C1502 C 0.62595 0.9622 0.27301 0.0
C1503 C 0.6532 0.96541 0.29127 0.0
C1504 C 0.60099 0.97919 0.28611 0.0
C1505 C 0.61819 0.93113 0.26882 0.0
C1506 C 0.61915 0.92348 0.24002 0.0
C1507 C 0.61351 0.89562 0.23109 0.0
C1508 C 0.60609 0.87526 0.25207 0.0
C1509 C 0.60389 0.88297 0.28159 0.0
C1510 C 0.6103 0.91129 0.2899 0.0
H1511 H 0.90962 0.39158 0.69891 0.0
H1512 H 0.85008 0.4002 0.77019 0.0
H1513 H 0.88835 0.38657 0.80429 0.0
H1514 H 0.94733 0.32956 0.72762 0.0
H1515 H 0.98121 0.34142 0.71366 0.0
H1516 H 0.94868 0.35084 0.69523 0.0
H1517 H 0.96243 0.40434 0.6987 0.0
H1518 H 0.99478 0.3951 0.71749 0.0
H1519 H 0.96986 0.41976 0.73355 0.0
H1520 H 0.93486 0.37573 0.83092 0.0
H1521 H 0.98364 0.36258 0.84695 0.0
H1522 H 0.01103 0.35893 0.7576 0.0
C1523 C 0.90438 0.3902 0.72162 0.0
C1524 C 0.87679 0.39708 0.73182 0.0
C1525 C 0.871 0.395 0.76179 0.0
C1526 C 0.89265 0.3874 0.78136 0.0
C1527 C 0.91982 0.38151 0.77056 0.0
C1528 C 0.92552 0.38227 0.7413 0.0
C1529 C 0.95633 0.37493 0.73503 0.0
C1530 C 0.9585 0.34756 0.71681 0.0
C1531 C 0.97175 0.40003 0.72033 0.0
C1532 C 0.96725 0.3702 0.76536 0.0
C1533 C 0.94603 0.37435 0.78565 0.0
C1534 C 0.95154 0.37212 0.81518 0.0
C1535 C 0.97931 0.36488 0.8241 0.0
C1536 C 1.00101 0.35961 0.80351 0.0
C1537 C 0.9948 0.36254 0.77383 0.0
H1538 H 0.39141 0.09316 0.31336 0.0
H1539 H 0.40308 0.1556 0.24517 0.0
H1540 H 0.38843 0.11958 0.20908 0.0
H1541 H 0.41664 0.03256 0.27552 0.0
H1542 H 0.39044 0.00853 0.29035 0.0
H1543 H 0.40165 0.03929 0.3107 0.0
H1544 H 0.34908 0.05612 0.3149 0.0
H1545 H 0.3377 0.02526 0.29476 0.0
H1546 H 0.32804 0.06052 0.28261 0.0
H1547 H 0.37541 0.07517 0.1801 0.0
H1548 H 0.35953 0.02815 0.16149 0.0
H1549 H 0.35344 0.99657 0.24927 0.0
C1550 C 0.39068 0.09943 0.2909 0.0
C1551 C 0.3985 0.12725 0.28215 0.0
C1552 C 0.39711 0.13447 0.25246 0.0
C1553 C 0.38894 0.11411 0.23177 0.0
C1554 C 0.38177 0.08675 0.24115 0.0
C1555 C 0.38206 0.0796 0.2701 0.0
C1556 C 0.37278 0.04901 0.27475 0.0
C1557 C 0.39681 0.03131 0.28865 0.0
C1558 C 0.34526 0.04766 0.29282 0.0
C1559 C 0.36746 0.03993 0.24387 0.0
C1560 C 0.37308 0.06183 0.22472 0.0
C1561 C 0.37065 0.05799 0.19494 0.0
C1562 C 0.3618 0.0312 0.18455 0.0
C1563 C 0.35507 0.00885 0.20394 0.0
C1564 C 0.3581 0.01337 0.23394 0.0
H1565 H 0.09015 0.62363 0.6986 0.0
H1566 H 0.15506 0.61275 0.76453 0.0
H1567 H 0.12101 0.6305 0.80132 0.0
H1568 H 0.06075 0.68972 0.72736 0.0
H1569 H 0.02484 0.68051 0.71697 0.0
H1570 H 0.05464 0.66745 0.69622 0.0
H1571 H 0.03682 0.61555 0.70333 0.0
H1572 H 0.00706 0.62842 0.72416 0.0
H1573 H 0.03096 0.60227 0.73937 0.0
H1574 H 0.07762 0.64542 0.83138 0.0
H1575 H 0.0307 0.66047 0.85107 0.0
H1576 H 0.99675 0.66543 0.76418 0.0
C1577 C 0.09752 0.62532 0.72062 0.0
C1578 C 0.12538 0.61682 0.72858 0.0
C1579 C 0.13388 0.61925 0.75784 0.0
C1580 C 0.11466 0.62925 0.77889 0.0
C1581 C 0.08726 0.63725 0.77021 0.0
C1582 C 0.07894 0.63581 0.74164 0.0
C1583 C 0.04845 0.64569 0.73762 0.0
C1584 C 0.04711 0.67244 0.71841 0.0
C1585 C 0.02973 0.62154 0.72541 0.0
C1586 C 0.04063 0.65255 0.76849 0.0
C1587 C 0.06312 0.64729 0.7871 0.0
C1588 C 0.06008 0.65013 0.81693 0.0
C1589 C 0.03341 0.65859 0.82792 0.0
C1590 C 0.01038 0.66461 0.80907 0.0
C1591 C 0.01422 0.66172 0.77902 0.0
H1592 H 0.20862 0.50893 0.56797 0.0
H1593 H 0.14248 0.57261 0.5541 0.0
H1594 H 0.14027 0.55959 0.50292 0.0
H1595 H 0.2443 0.51955 0.49759 0.0
H1596 H 0.25221 0.48215 0.4931 0.0
H1597 H 0.25003 0.49729 0.52881 0.0
H1598 H 0.21198 0.45968 0.54279 0.0
H1599 H 0.214 0.44448 0.50715 0.0
H1600 H 0.18013 0.45632 0.5212 0.0
H1601 H 0.1413 0.53724 0.45476 0.0
H1602 H 0.14808 0.50836 0.41077 0.0
H1603 H 0.2155 0.46067 0.45322 0.0
C1604 C 0.19395 0.52036 0.55408 0.0
C1605 C 0.17563 0.54173 0.5653 0.0
C1606 C 0.15667 0.55608 0.5463 0.0
C1607 C 0.15526 0.5489 0.51705 0.0
C1608 C 0.17316 0.52752 0.50679 0.0
C1609 C 0.1924 0.51361 0.52452 0.0
C1610 C 0.20867 0.49094 0.50774 0.0
C1611 C 0.24071 0.49791 0.50675 0.0
C1612 C 0.20337 0.46109 0.52048 0.0
C1613 C 0.19506 0.49399 0.47809 0.0
C1614 C 0.17459 0.51523 0.47821 0.0
C1615 C 0.15762 0.52089 0.45419 0.0
C1616 C 0.16156 0.50435 0.42935 0.0
C1617 C 0.18255 0.48264 0.42852 0.0
C1618 C 0.19976 0.47761 0.45312 0.0
H1619 H 0.52186 0.85828 0.44851 0.0
H1620 H 0.52475 0.76808 0.42765 0.0
H1621 H 0.50871 0.75641 0.47723 0.0
H1622 H 0.54525 0.85351 0.52211 0.0
H1623 H 0.52102 0.8806 0.53492 0.0
H1624 H 0.53371 0.88164 0.49823 0.0
H1625 H 0.48155 0.88204 0.47961 0.0
H1626 H 0.4687 0.88105 0.51624 0.0
H1627 H 0.4574 0.85422 0.4908 0.0
H1628 H 0.4944 0.75483 0.53013 0.0
H1629 H 0.47788 0.76356 0.5802 0.0
H1630 H 0.48038 0.85482 0.56461 0.0
C1631 C 0.51923 0.83607 0.45446 0.0
C1632 C 0.52477 0.81403 0.43444 0.0
C1633 C 0.52061 0.78525 0.44275 0.0
C1634 C 0.51162 0.77844 0.47085 0.0
C1635 C 0.50639 0.8007 0.49015 0.0
C1636 C 0.50962 0.82895 0.48214 0.0
C1637 C 0.50129 0.84892 0.50644 0.0
C1638 C 0.52684 0.86724 0.51599 0.0
C1639 C 0.47571 0.86765 0.49775 0.0
C1640 C 0.49311 0.82752 0.52948 0.0
C1641 C 0.49657 0.79981 0.51985 0.0
C1642 C 0.49134 0.77645 0.53778 0.0
C1643 C 0.48208 0.78158 0.56617 0.0
C1644 C 0.47763 0.80981 0.57609 0.0
C1645 C 0.48325 0.83299 0.55744 0.0
H1646 H 0.85304 0.54109 0.44464 0.0
H1647 H 0.78533 0.4847 0.41572 0.0
H1648 H 0.77999 0.46652 0.46567 0.0
H1649 H 0.8854 0.49312 0.49347 0.0
H1650 H 0.89411 0.52023 0.51962 0.0
H1651 H 0.89139 0.5294 0.482 0.0
H1652 H 0.85386 0.56823 0.49433 0.0
H1653 H 0.85642 0.55914 0.53202 0.0
H1654 H 0.82224 0.5585 0.51418 0.0
H1655 H 0.78435 0.45271 0.51889 0.0
H1656 H 0.79742 0.44512 0.57011 0.0
H1657 H 0.86141 0.51173 0.5632 0.0
C1658 C 0.83695 0.525 0.44871 0.0
C1659 C 0.81966 0.51424 0.42619 0.0
C1660 C 0.79883 0.49327 0.43261 0.0
C1661 C 0.79564 0.48284 0.46091 0.0
C1662 C 0.81327 0.49379 0.48254 0.0
C1663 C 0.8334 0.51454 0.4767 0.0
C1664 C 0.85021 0.52247 0.50339 0.0
C1665 C 0.88216 0.5159 0.49937 0.0
C1666 C 0.84538 0.55395 0.51145 0.0
C1667 C 0.8367 0.50267 0.52524 0.0
C1668 C 0.8154 0.4863 0.51291 0.0
C1669 C 0.80079 0.46564 0.52878 0.0
C1670 C 0.80836 0.46148 0.55787 0.0
C1671 C 0.83029 0.47796 0.57078 0.0
C1672 C 0.84431 0.499 0.55418 0.0
H1673 H 0.48482 0.14961 0.44626 0.0
H1674 H 0.47551 0.24068 0.43237 0.0
H1675 H 0.49234 0.24975 0.48228 0.0
H1676 H 0.46341 0.1473 0.52022 0.0
H1677 H 0.48969 0.12107 0.53049 0.0
H1678 H 0.47628 0.12188 0.49405 0.0
H1679 H 0.5279 0.12647 0.47458 0.0
H1680 H 0.54148 0.12563 0.51095 0.0
H1681 H 0.55037 0.15499 0.48747 0.0
H1682 H 0.50724 0.24833 0.53503 0.0
H1683 H 0.52449 0.23704 0.58432 0.0
H1684 H 0.52866 0.14731 0.56175 0.0
C1685 C 0.4863 0.17146 0.45378 0.0
C1686 C 0.47864 0.19448 0.43566 0.0
C1687 C 0.48128 0.22278 0.446 0.0
C1688 C 0.49071 0.2281 0.4743 0.0
C1689 C 0.49799 0.2049 0.49171 0.0
C1690 C 0.49639 0.17716 0.48165 0.0
C1691 C 0.50659 0.15606 0.50421 0.0
C1692 C 0.48255 0.13536 0.51274 0.0
C1693 C 0.53317 0.13984 0.49367 0.0
C1694 C 0.51385 0.1762 0.52872 0.0
C1695 C 0.50836 0.20425 0.52126 0.0
C1696 C 0.51199 0.22649 0.54095 0.0
C1697 C 0.52169 0.2199 0.56888 0.0
C1698 C 0.52819 0.1914 0.57662 0.0
C1699 C 0.52429 0.16935 0.5562 0.0
H1700 H 0.65129 0.05543 0.05757 0.0
H1701 H 0.71244 0.99449 0.09175 0.0
H1702 H 0.71657 0.97237 0.04349 0.0
H1703 H 0.61483 0.00722 0.01212 0.0
H1704 H 0.60901 0.03266 0.98352 0.0
H1705 H 0.6124 0.04478 0.02023 0.0
H1706 H 0.65367 0.07841 0.00515 0.0
H1707 H 0.6504 0.0664 0.96835 0.0
H1708 H 0.68427 0.06389 0.98666 0.0
H1709 H 0.71176 0.95509 0.99186 0.0
H1710 H 0.69868 0.94438 0.9413 0.0
H1711 H 0.64103 0.01699 0.94108 0.0
C1712 C 0.66584 0.03765 0.0549 0.0
C1713 C 0.68159 0.02675 0.07853 0.0
C1714 C 0.70017 0.00328 0.07403 0.0
C1715 C 0.70269 0.99058 0.04666 0.0
C1716 C 0.68658 1.00164 0.02395 0.0
C1717 C 0.6686 0.02474 0.02778 0.0
C1718 C 0.65281 0.03192 1.00016 0.0
C1719 C 0.62035 0.02895 0.00427 0.0
C1720 C 0.66077 0.06194 0.98945 0.0
C1721 C 0.6644 0.00903 0.98025 0.0
C1722 C 0.68394 0.99183 0.99431 0.0
C1723 C 0.69668 0.96859 0.98058 0.0
C1724 C 0.6891 0.96267 0.95184 0.0
C1725 C 0.66895 0.97991 0.93708 0.0
C1726 C 0.65674 0.00354 0.95156 0.0
H1727 H 0.99623 0.36182 0.93677 0.0
H1728 H 0.07132 0.30752 0.93504 0.0
H1729 H 0.06106 0.29205 0.98505 0.0
H1730 H 0.00443 0.38592 0.00811 0.0
H1731 H 0.96678 0.38638 0.01608 0.0
H1732 H 0.97884 0.39129 0.97955 0.0
H1733 H 0.94736 0.3489 0.96285 0.0
H1734 H 0.93514 0.34389 0.99937 0.0
H1735 H 0.9513 0.31462 0.98009 0.0
H1736 H 0.04389 0.28496 0.03681 0.0
H1737 H 0.02158 0.28712 0.0852 0.0
H1738 H 0.95796 0.34606 0.05207 0.0
C1739 C 0.01037 0.34638 0.94668 0.0
C1740 C 0.03455 0.33583 0.93187 0.0
C1741 C 0.05259 0.31583 0.94586 0.0
C1742 C 0.04693 0.30691 0.97428 0.0
C1743 C 0.02308 0.31806 0.98837 0.0
C1744 C 0.00506 0.3373 0.97494 0.0
C1745 C 0.98157 0.34713 0.99505 0.0
C1746 C 0.98301 0.3796 0.99999 0.0
C1747 C 0.9521 0.33809 0.98366 0.0
C1748 C 0.98942 0.33083 0.0221 0.0
C1749 C 0.01329 0.31401 0.01787 0.0
C1750 C 0.02504 0.29788 0.04025 0.0
C1751 C 0.01222 0.29924 0.06768 0.0
C1752 C 0.98797 0.3167 0.07251 0.0
C1753 C 0.97635 0.33235 0.04918 0.0
H1754 H 0.3502 0.05227 0.95081 0.0
H1755 H 0.28573 0.99338 0.91947 0.0
H1756 H 0.28176 0.97258 0.96837 0.0
H1757 H 0.38572 0.0035 0.99595 0.0
H1758 H 0.3935 0.02914 0.02387 0.0
H1759 H 0.3895 0.04078 0.98707 0.0
H1760 H 0.35017 0.07647 1.00277 0.0
H1761 H 0.35408 0.06497 0.03968 0.0
H1762 H 0.31959 0.06366 0.02249 0.0
H1763 H 0.28722 0.95621 0.02027 0.0
H1764 H 0.30153 0.94574 0.07053 0.0
H1765 H 0.36234 0.01558 0.06743 0.0
C1766 C 0.33492 0.03527 0.95424 0.0
C1767 C 0.31821 0.02452 0.93125 0.0
C1768 C 0.29873 1.00203 0.93671 0.0
C1769 C 0.2963 0.9901 0.96444 0.0
C1770 C 0.31342 1.00095 0.9865 0.0
C1771 C 0.33227 0.02312 0.98169 0.0
C1772 C 0.34922 0.03008 0.00862 0.0
C1773 C 0.38138 0.02559 0.00357 0.0
C1774 C 0.34287 0.06061 0.019 0.0
C1775 C 0.33728 0.00809 0.02929 0.0
C1776 C 0.31654 0.99158 0.01621 0.0
C1777 C 0.30324 0.96919 0.03078 0.0
C1778 C 0.31154 0.96339 0.05934 0.0
C1779 C 0.33298 0.9799 0.07305 0.0
C1780 C 0.3457 1.0027 0.05776 0.0
H1781 H 0.98253 0.65245 0.94312 0.0
H1782 H 0.975 0.74363 0.92892 0.0
H1783 H 0.99208 0.75254 0.9788 0.0
H1784 H 0.9611 0.65077 0.01702 0.0
H1785 H 0.98685 0.62402 0.0273 0.0
H1786 H 0.97341 0.62504 0.99089 0.0
H1787 H 0.02509 0.62853 0.97133 0.0
H1788 H 0.0387 0.62748 0.00768 0.0
H1789 H 0.04817 0.65659 0.98413 0.0
H1790 H 0.0071 0.75092 0.03159 0.0
H1791 H 0.02424 0.73927 0.08086 0.0
H1792 H 0.02635 0.64946 0.05832 0.0
C1793 C 0.98444 0.67429 0.95057 0.0
C1794 C 0.97722 0.6974 0.93241 0.0
C1795 C 0.98044 0.72568 0.94261 0.0
C1796 C 0.99001 0.7309 0.97089 0.0
C1797 C 0.99683 0.7076 0.98835 0.0
C1798 C 0.99466 0.67987 0.97838 0.0
C1799 C 0.00444 0.65861 1.00093 0.0
C1800 C 0.97999 0.63843 0.00954 0.0
C1801 C 0.03066 0.64182 0.99038 0.0
C1802 C 0.01213 0.67864 0.02535 0.0
C1803 C 0.00723 0.7068 0.01787 0.0
C1804 C 0.01139 0.72898 0.03752 0.0
C1805 C 0.02102 0.7222 0.06543 0.0
C1806 C 0.02691 0.69357 0.07315 0.0
C1807 C 0.02246 0.6716 0.05278 0.0
loop_
_geom_bond_atom_site_label_1
_geom_bond_atom_site_label_2
_geom_bond_distance
_geom_bond_site_symmetry_2
_ccdc_geom_bond_type
Co0 O2 2.143 . S
Co0 O8 2.074 . S
Co0 O11 2.093 . S
Co0 O24 2.097 . S
Co0 N41 2.151 . S
Co0 N49 2.214 . S
Co1 O2 2.160 . S
Co1 O7 2.058 . S
Co1 O17 2.057 . S
Co1 O32 2.037 . S
Co1 N36 2.145 . S
Co1 N57 2.257 . S
O2 Co0 2.143 . S
O2 Co1 2.160 . S
C3 O4 1.278 . S
C3 O11 1.224 . S
O4 C3 1.278 . S
C5 O6 1.245 . S
C5 O17 1.232 . S
O6 C5 1.245 . S
O7 Co1 2.058 . S
O7 C33 1.269 . S
O8 Co0 2.074 . S
O8 C33 1.257 . S
H9 C34 0.930 . S
H10 C40 0.930 . S
O11 Co0 2.093 . S
O11 C3 1.224 . S
H12 C44 0.929 . S
H13 C46 0.930 . S
H14 C47 0.930 . S
H15 C45 0.929 . S
H16 C48 0.928 . S
O17 Co1 2.057 . S
O17 C5 1.232 . S
H18 C37 0.929 . S
H19 C38 0.929 . S
H20 C50 0.931 . S
H21 C42 0.929 . S
H22 C51 0.930 . S
H23 C43 0.931 . S
O24 Co0 2.097 . S
O24 C52 1.214 . S
H25 C53 0.929 . S
H26 C54 0.929 . S
H27 C55 0.930 . S
H28 C56 0.929 . S
H29 C58 0.930 . S
H30 C35 0.930 . S
H31 C39 0.930 . S
O32 Co1 2.037 . S
O32 C52 1.234 . S
C33 O7 1.269 . S
C33 O8 1.257 . S
C34 H9 0.930 . S
C34 C37 1.388 . S
C34 C39 1.418 . S
C35 H30 0.930 . S
C35 C38 1.404 . S
C35 C39 1.353 . S
N36 Co1 2.145 . S
N36 C37 1.397 . S
N36 C38 1.334 . S
C37 H18 0.929 . S
C37 C34 1.388 . S
C37 N36 1.397 . S
C38 H19 0.929 . S
C38 C35 1.404 . S
C38 N36 1.334 . S
C39 H31 0.930 . S
C39 C34 1.418 . S
C39 C35 1.353 . S
C40 H10 0.930 . S
C40 N41 1.330 . S
C40 C42 1.446 . S
N41 Co0 2.151 . S
N41 C40 1.330 . S
N41 C45 1.418 . S
C42 H21 0.929 . S
C42 C40 1.446 . S
C42 C43 1.332 . S
C43 H23 0.931 . S
C43 C42 1.332 . S
C43 C44 1.267 . S
C44 H12 0.929 . S
C44 C43 1.267 . S
C44 C45 1.251 . S
C45 H15 0.929 . S
C45 N41 1.418 . S
C45 C44 1.251 . S
C46 H13 0.930 . S
C46 C48 1.406 . S
C46 C51 1.261 . S
C47 H14 0.930 . S
C47 N49 1.325 . S
C47 C50 1.357 . S
C48 H16 0.928 . S
C48 C46 1.406 . S
C48 N49 1.261 . S
N49 Co0 2.214 . S
N49 C47 1.325 . S
N49 C48 1.261 . S
C50 H20 0.931 . S
C50 C47 1.357 . S
C50 C51 1.312 . S
C51 H22 0.930 . S
C51 C46 1.261 . S
C51 C50 1.312 . S
C52 O24 1.214 . S
C52 O32 1.234 . S
C53 H25 0.929 . S
C53 C56 1.391 . S
C53 C58 1.391 . S
C54 H26 0.929 . S
C54 C55 1.390 . S
C54 N57 1.391 . S
C55 H27 0.930 . S
C55 C54 1.390 . S
C55 C56 1.392 . S
C56 H28 0.929 . S
C56 C53 1.391 . S
C56 C55 1.392 . S
N57 Co1 2.257 . S
N57 C54 1.391 . S
N57 C58 1.388 . S
C58 H29 0.930 . S
C58 C53 1.391 . S
C58 N57 1.388 . S
Co59 O61 2.143 . S
Co59 O67 2.074 . S
Co59 O70 2.093 . S
Co59 O83 2.097 . S
Co59 N100 2.151 . S
Co59 N108 2.214 . S
Co60 O61 2.160 . S
Co60 O66 2.058 . S
Co60 O76 2.057 . S
Co60 O91 2.037 . S
Co60 N95 2.145 . S
Co60 N116 2.257 . S
O61 Co59 2.143 . S
O61 Co60 2.160 . S
C62 O63 1.278 . S
C62 O70 1.224 . S
O63 C62 1.278 . S
C64 O65 1.245 . S
C64 O76 1.232 . S
O65 C64 1.245 . S
O66 Co60 2.058 . S
O66 C92 1.269 . S
O67 Co59 2.074 . S
O67 C92 1.257 . S
H68 C93 0.930 . S
H69 C99 0.930 . S
O70 Co59 2.093 . S
O70 C62 1.224 . S
H71 C103 0.929 . S
H72 C105 0.930 . S
H73 C106 0.930 . S
H74 C104 0.929 . S
H75 C107 0.928 . S
O76 Co60 2.057 . S
O76 C64 1.232 . S
H77 C96 0.929 . S
H78 C97 0.929 . S
H79 C109 0.931 . S
H80 C101 0.929 . S
H81 C110 0.930 . S
H82 C102 0.931 . S
O83 Co59 2.097 . S
O83 C111 1.214 . S
H84 C112 0.929 . S
H85 C113 0.929 . S
H86 C114 0.930 . S
H87 C115 0.929 . S
H88 C117 0.930 . S
H89 C94 0.930 . S
H90 C98 0.930 . S
O91 Co60 2.037 . S
O91 C111 1.234 . S
C92 O66 1.269 . S
C92 O67 1.257 . S
C93 H68 0.930 . S
C93 C96 1.388 . S
C93 C98 1.418 . S
C94 H89 0.930 . S
C94 C97 1.404 . S
C94 C98 1.353 . S
N95 Co60 2.145 . S
N95 C96 1.397 . S
N95 C97 1.334 . S
C96 H77 0.929 . S
C96 C93 1.388 . S
C96 N95 1.397 . S
C97 H78 0.929 . S
C97 C94 1.404 . S
C97 N95 1.334 . S
C98 H90 0.930 . S
C98 C93 1.418 . S
C98 C94 1.353 . S
C99 H69 0.930 . S
C99 N100 1.330 . S
C99 C101 1.446 . S
N100 Co59 2.151 . S
N100 C99 1.330 . S
N100 C104 1.418 . S
C101 H80 0.929 . S
C101 C99 1.446 . S
C101 C102 1.332 . S
C102 H82 0.931 . S
C102 C101 1.332 . S
C102 C103 1.267 . S
C103 H71 0.929 . S
C103 C102 1.267 . S
C103 C104 1.251 . S
C104 H74 0.929 . S
C104 N100 1.418 . S
C104 C103 1.251 . S
C105 H72 0.930 . S
C105 C107 1.406 . S
C105 C110 1.261 . S
C106 H73 0.930 . S
C106 N108 1.325 . S
C106 C109 1.357 . S
C107 H75 0.928 . S
C107 C105 1.406 . S
C107 N108 1.261 . S
N108 Co59 2.214 . S
N108 C106 1.325 . S
N108 C107 1.261 . S
C109 H79 0.931 . S
C109 C106 1.357 . S
C109 C110 1.312 . S
C110 H81 0.930 . S
C110 C105 1.261 . S
C110 C109 1.312 . S
C111 O83 1.214 . S
C111 O91 1.234 . S
C112 H84 0.929 . S
C112 C115 1.391 . S
C112 C117 1.391 . S
C113 H85 0.929 . S
C113 C114 1.390 . S
C113 N116 1.391 . S
C114 H86 0.930 . S
C114 C113 1.390 . S
C114 C115 1.392 . S
C115 H87 0.929 . S
C115 C112 1.391 . S
C115 C114 1.392 . S
N116 Co60 2.257 . S
N116 C113 1.391 . S
N116 C117 1.388 . S
C117 H88 0.930 . S
C117 C112 1.391 . S
C117 N116 1.388 . S
Co118 O120 2.143 . S
Co118 O126 2.074 . S
Co118 O129 2.093 . S
Co118 O142 2.097 . S
Co118 N159 2.151 . S
Co118 N167 2.214 . S
Co119 O120 2.160 . S
Co119 O125 2.058 . S
Co119 O135 2.057 . S
Co119 O150 2.037 . S
Co119 N154 2.145 . S
Co119 N175 2.257 . S
O120 Co118 2.143 . S
O120 Co119 2.160 . S
C121 O122 1.278 . S
C121 O129 1.224 . S
O122 C121 1.278 . S
C123 O124 1.245 . S
C123 O135 1.232 . S
O124 C123 1.245 . S
O125 Co119 2.058 . S
O125 C151 1.269 . S
O126 Co118 2.074 . S
O126 C151 1.257 . S
H127 C152 0.930 . S
H128 C158 0.930 . S
O129 Co118 2.093 . S
O129 C121 1.224 . S
H130 C162 0.929 . S
H131 C164 0.930 . S
H132 C165 0.930 . S
H133 C163 0.929 . S
H134 C166 0.928 . S
O135 Co119 2.057 . S
O135 C123 1.232 . S
H136 C155 0.929 . S
H137 C156 0.929 . S
H138 C168 0.931 . S
H139 C160 0.929 . S
H140 C169 0.930 . S
H141 C161 0.931 . S
O142 Co118 2.097 . S
O142 C170 1.214 . S
H143 C171 0.929 . S
H144 C172 0.929 . S
H145 C173 0.930 . S
H146 C174 0.929 . S
H147 C176 0.930 . S
H148 C153 0.930 . S
H149 C157 0.930 . S
O150 Co119 2.037 . S
O150 C170 1.234 . S
C151 O125 1.269 . S
C151 O126 1.257 . S
C152 H127 0.930 . S
C152 C155 1.388 . S
C152 C157 1.418 . S
C153 H148 0.930 . S
C153 C156 1.404 . S
C153 C157 1.353 . S
N154 Co119 2.145 . S
N154 C155 1.397 . S
N154 C156 1.334 . S
C155 H136 0.929 . S
C155 C152 1.388 . S
C155 N154 1.397 . S
C156 H137 0.929 . S
C156 C153 1.404 . S
C156 N154 1.334 . S
C157 H149 0.930 . S
C157 C152 1.418 . S
C157 C153 1.353 . S
C158 H128 0.930 . S
C158 N159 1.330 . S
C158 C160 1.446 . S
N159 Co118 2.151 . S
N159 C158 1.330 . S
N159 C163 1.418 . S
C160 H139 0.929 . S
C160 C158 1.446 . S
C160 C161 1.332 . S
C161 H141 0.931 . S
C161 C160 1.332 . S
C161 C162 1.267 . S
C162 H130 0.929 . S
C162 C161 1.267 . S
C162 C163 1.251 . S
C163 H133 0.929 . S
C163 N159 1.418 . S
C163 C162 1.251 . S
C164 H131 0.930 . S
C164 C166 1.406 . S
C164 C169 1.261 . S
C165 H132 0.930 . S
C165 N167 1.325 . S
C165 C168 1.357 . S
C166 H134 0.928 . S
C166 C164 1.406 . S
C166 N167 1.261 . S
N167 Co118 2.214 . S
N167 C165 1.325 . S
N167 C166 1.261 . S
C168 H138 0.931 . S
C168 C165 1.357 . S
C168 C169 1.312 . S
C169 H140 0.930 . S
C169 C164 1.261 . S
C169 C168 1.312 . S
C170 O142 1.214 . S
C170 O150 1.234 . S
C171 H143 0.929 . S
C171 C174 1.391 . S
C171 C176 1.391 . S
C172 H144 0.929 . S
C172 C173 1.390 . S
C172 N175 1.391 . S
C173 H145 0.930 . S
C173 C172 1.390 . S
C173 C174 1.392 . S
C174 H146 0.929 . S
C174 C171 1.391 . S
C174 C173 1.392 . S
N175 Co119 2.257 . S
N175 C172 1.391 . S
N175 C176 1.388 . S
C176 H147 0.930 . S
C176 C171 1.391 . S
C176 N175 1.388 . S
Co177 O179 2.143 . S
Co177 O185 2.074 . S
Co177 O188 2.093 . S
Co177 O201 2.097 . S
Co177 N218 2.151 . S
Co177 N226 2.214 . S
Co178 O179 2.160 . S
Co178 O184 2.058 . S
Co178 O194 2.057 . S
Co178 O209 2.037 . S
Co178 N213 2.145 . S
Co178 N234 2.257 . S
O179 Co177 2.143 . S
O179 Co178 2.160 . S
C180 O181 1.278 . S
C180 O188 1.224 . S
O181 C180 1.278 . S
C182 O183 1.245 . S
C182 O194 1.232 . S
O183 C182 1.245 . S
O184 Co178 2.058 . S
O184 C210 1.269 . S
O185 Co177 2.074 . S
O185 C210 1.257 . S
H186 C211 0.930 . S
H187 C217 0.930 . S
O188 Co177 2.093 . S
O188 C180 1.224 . S
H189 C221 0.929 . S
H190 C223 0.930 . S
H191 C224 0.930 . S
H192 C222 0.929 . S
H193 C225 0.928 . S
O194 Co178 2.057 . S
O194 C182 1.232 . S
H195 C214 0.929 . S
H196 C215 0.929 . S
H197 C227 0.931 . S
H198 C219 0.929 . S
H199 C228 0.930 . S
H200 C220 0.931 . S
O201 Co177 2.097 . S
O201 C229 1.214 . S
H202 C230 0.929 . S
H203 C231 0.929 . S
H204 C232 0.930 . S
H205 C233 0.929 . S
H206 C235 0.930 . S
H207 C212 0.930 . S
H208 C216 0.930 . S
O209 Co178 2.037 . S
O209 C229 1.234 . S
C210 O184 1.269 . S
C210 O185 1.257 . S
C211 H186 0.930 . S
C211 C214 1.388 . S
C211 C216 1.418 . S
C212 H207 0.930 . S
C212 C215 1.404 . S
C212 C216 1.353 . S
N213 Co178 2.145 . S
N213 C214 1.397 . S
N213 C215 1.334 . S
C214 H195 0.929 . S
C214 C211 1.388 . S
C214 N213 1.397 . S
C215 H196 0.929 . S
C215 C212 1.404 . S
C215 N213 1.334 . S
C216 H208 0.930 . S
C216 C211 1.418 . S
C216 C212 1.353 . S
C217 H187 0.930 . S
C217 N218 1.330 . S
C217 C219 1.446 . S
N218 Co177 2.151 . S
N218 C217 1.330 . S
N218 C222 1.418 . S
C219 H198 0.929 . S
C219 C217 1.446 . S
C219 C220 1.332 . S
C220 H200 0.931 . S
C220 C219 1.332 . S
C220 C221 1.267 . S
C221 H189 0.929 . S
C221 C220 1.267 . S
C221 C222 1.251 . S
C222 H192 0.929 . S
C222 N218 1.418 . S
C222 C221 1.251 . S
C223 H190 0.930 . S
C223 C225 1.406 . S
C223 C228 1.261 . S
C224 H191 0.930 . S
C224 N226 1.325 . S
C224 C227 1.357 . S
C225 H193 0.928 . S
C225 C223 1.406 . S
C225 N226 1.261 . S
N226 Co177 2.214 . S
N226 C224 1.325 . S
N226 C225 1.261 . S
C227 H197 0.931 . S
C227 C224 1.357 . S
C227 C228 1.312 . S
C228 H199 0.930 . S
C228 C223 1.261 . S
C228 C227 1.312 . S
C229 O201 1.214 . S
C229 O209 1.234 . S
C230 H202 0.929 . S
C230 C233 1.391 . S
C230 C235 1.391 . S
C231 H203 0.929 . S
C231 C232 1.390 . S
C231 N234 1.391 . S
C232 H204 0.930 . S
C232 C231 1.390 . S
C232 C233 1.392 . S
C233 H205 0.929 . S
C233 C230 1.391 . S
C233 C232 1.392 . S
N234 Co178 2.257 . S
N234 C231 1.391 . S
N234 C235 1.388 . S
C235 H206 0.930 . S
C235 C230 1.391 . S
C235 N234 1.388 . S
Co236 O238 2.143 . S
Co236 O244 2.074 . S
Co236 O247 2.093 . S
Co236 O260 2.097 . S
Co236 N277 2.151 . S
Co236 N285 2.214 . S
Co237 O238 2.160 . S
Co237 O243 2.058 . S
Co237 O253 2.057 . S
Co237 O268 2.037 . S
Co237 N272 2.145 . S
Co237 N293 2.257 . S
O238 Co236 2.143 . S
O238 Co237 2.160 . S
C239 O240 1.278 . S
C239 O247 1.224 . S
O240 C239 1.278 . S
C241 O242 1.245 . S
C241 O253 1.232 . S
O242 C241 1.245 . S
O243 Co237 2.058 . S
O243 C269 1.269 . S
O244 Co236 2.074 . S
O244 C269 1.257 . S
H245 C270 0.930 . S
H246 C276 0.930 . S
O247 Co236 2.093 . S
O247 C239 1.224 . S
H248 C280 0.929 . S
H249 C282 0.930 . S
H250 C283 0.930 . S
H251 C281 0.929 . S
H252 C284 0.928 . S
O253 Co237 2.057 . S
O253 C241 1.232 . S
H254 C273 0.929 . S
H255 C274 0.929 . S
H256 C286 0.931 . S
H257 C278 0.929 . S
H258 C287 0.930 . S
H259 C279 0.931 . S
O260 Co236 2.097 . S
O260 C288 1.214 . S
H261 C289 0.929 . S
H262 C290 0.929 . S
H263 C291 0.930 . S
H264 C292 0.929 . S
H265 C294 0.930 . S
H266 C271 0.930 . S
H267 C275 0.930 . S
O268 Co237 2.037 . S
O268 C288 1.234 . S
C269 O243 1.269 . S
C269 O244 1.257 . S
C270 H245 0.930 . S
C270 C273 1.388 . S
C270 C275 1.418 . S
C271 H266 0.930 . S
C271 C274 1.404 . S
C271 C275 1.353 . S
N272 Co237 2.145 . S
N272 C273 1.397 . S
N272 C274 1.334 . S
C273 H254 0.929 . S
C273 C270 1.388 . S
C273 N272 1.397 . S
C274 H255 0.929 . S
C274 C271 1.404 . S
C274 N272 1.334 . S
C275 H267 0.930 . S
C275 C270 1.418 . S
C275 C271 1.353 . S
C276 H246 0.930 . S
C276 N277 1.330 . S
C276 C278 1.446 . S
N277 Co236 2.151 . S
N277 C276 1.330 . S
N277 C281 1.418 . S
C278 H257 0.929 . S
C278 C276 1.446 . S
C278 C279 1.332 . S
C279 H259 0.931 . S
C279 C278 1.332 . S
C279 C280 1.267 . S
C280 H248 0.929 . S
C280 C279 1.267 . S
C280 C281 1.251 . S
C281 H251 0.929 . S
C281 N277 1.418 . S
C281 C280 1.251 . S
C282 H249 0.930 . S
C282 C284 1.406 . S
C282 C287 1.261 . S
C283 H250 0.930 . S
C283 N285 1.325 . S
C283 C286 1.357 . S
C284 H252 0.928 . S
C284 C282 1.406 . S
C284 N285 1.261 . S
N285 Co236 2.214 . S
N285 C283 1.325 . S
N285 C284 1.261 . S
C286 H256 0.931 . S
C286 C283 1.357 . S
C286 C287 1.312 . S
C287 H258 0.930 . S
C287 C282 1.261 . S
C287 C286 1.312 . S
C288 O260 1.214 . S
C288 O268 1.234 . S
C289 H261 0.929 . S
C289 C292 1.391 . S
C289 C294 1.391 . S
C290 H262 0.929 . S
C290 C291 1.390 . S
C290 N293 1.391 . S
C291 H263 0.930 . S
C291 C290 1.390 . S
C291 C292 1.392 . S
C292 H264 0.929 . S
C292 C289 1.391 . S
C292 C291 1.392 . S
N293 Co237 2.257 . S
N293 C290 1.391 . S
N293 C294 1.388 . S
C294 H265 0.930 . S
C294 C289 1.391 . S
C294 N293 1.388 . S
Co295 O297 2.143 . S
Co295 O303 2.074 . S
Co295 O306 2.093 . S
Co295 O319 2.097 . S
Co295 N336 2.151 . S
Co295 N344 2.214 . S
Co296 O297 2.160 . S
Co296 O302 2.058 . S
Co296 O312 2.057 . S
Co296 O327 2.037 . S
Co296 N331 2.145 . S
Co296 N352 2.257 . S
O297 Co295 2.143 . S
O297 Co296 2.160 . S
C298 O299 1.278 . S
C298 O306 1.224 . S
O299 C298 1.278 . S
C300 O301 1.245 . S
C300 O312 1.232 . S
O301 C300 1.245 . S
O302 Co296 2.058 . S
O302 C328 1.269 . S
O303 Co295 2.074 . S
O303 C328 1.257 . S
H304 C329 0.930 . S
H305 C335 0.930 . S
O306 Co295 2.093 . S
O306 C298 1.224 . S
H307 C339 0.929 . S
H308 C341 0.930 . S
H309 C342 0.930 . S
H310 C340 0.929 . S
H311 C343 0.928 . S
O312 Co296 2.057 . S
O312 C300 1.232 . S
H313 C332 0.929 . S
H314 C333 0.929 . S
H315 C345 0.931 . S
H316 C337 0.929 . S
H317 C346 0.930 . S
H318 C338 0.931 . S
O319 Co295 2.097 . S
O319 C347 1.214 . S
H320 C348 0.929 . S
H321 C349 0.929 . S
H322 C350 0.930 . S
H323 C351 0.929 . S
H324 C353 0.930 . S
H325 C330 0.930 . S
H326 C334 0.930 . S
O327 Co296 2.037 . S
O327 C347 1.234 . S
C328 O302 1.269 . S
C328 O303 1.257 . S
C329 H304 0.930 . S
C329 C332 1.388 . S
C329 C334 1.418 . S
C330 H325 0.930 . S
C330 C333 1.404 . S
C330 C334 1.353 . S
N331 Co296 2.145 . S
N331 C332 1.397 . S
N331 C333 1.334 . S
C332 H313 0.929 . S
C332 C329 1.388 . S
C332 N331 1.397 . S
C333 H314 0.929 . S
C333 C330 1.404 . S
C333 N331 1.334 . S
C334 H326 0.930 . S
C334 C329 1.418 . S
C334 C330 1.353 . S
C335 H305 0.930 . S
C335 N336 1.330 . S
C335 C337 1.446 . S
N336 Co295 2.151 . S
N336 C335 1.330 . S
N336 C340 1.418 . S
C337 H316 0.929 . S
C337 C335 1.446 . S
C337 C338 1.332 . S
C338 H318 0.931 . S
C338 C337 1.332 . S
C338 C339 1.267 . S
C339 H307 0.929 . S
C339 C338 1.267 . S
C339 C340 1.251 . S
C340 H310 0.929 . S
C340 N336 1.418 . S
C340 C339 1.251 . S
C341 H308 0.930 . S
C341 C343 1.406 . S
C341 C346 1.261 . S
C342 H309 0.930 . S
C342 N344 1.325 . S
C342 C345 1.357 . S
C343 H311 0.928 . S
C343 C341 1.406 . S
C343 N344 1.261 . S
N344 Co295 2.214 . S
N344 C342 1.325 . S
N344 C343 1.261 . S
C345 H315 0.931 . S
C345 C342 1.357 . S
C345 C346 1.312 . S
C346 H317 0.930 . S
C346 C341 1.261 . S
C346 C345 1.312 . S
C347 O319 1.214 . S
C347 O327 1.234 . S
C348 H320 0.929 . S
C348 C351 1.391 . S
C348 C353 1.391 . S
C349 H321 0.929 . S
C349 C350 1.390 . S
C349 N352 1.391 . S
C350 H322 0.930 . S
C350 C349 1.390 . S
C350 C351 1.392 . S
C351 H323 0.929 . S
C351 C348 1.391 . S
C351 C350 1.392 . S
N352 Co296 2.257 . S
N352 C349 1.391 . S
N352 C353 1.388 . S
C353 H324 0.930 . S
C353 C348 1.391 . S
C353 N352 1.388 . S
Co354 O356 2.143 . S
Co354 O362 2.074 . S
Co354 O365 2.093 . S
Co354 O378 2.097 . S
Co354 N395 2.151 . S
Co354 N403 2.214 . S
Co355 O356 2.160 . S
Co355 O361 2.058 . S
Co355 O371 2.057 . S
Co355 O386 2.037 . S
Co355 N390 2.145 . S
Co355 N411 2.257 . S
O356 Co354 2.143 . S
O356 Co355 2.160 . S
C357 O358 1.278 . S
C357 O365 1.224 . S
O358 C357 1.278 . S
C359 O360 1.245 . S
C359 O371 1.232 . S
O360 C359 1.245 . S
O361 Co355 2.058 . S
O361 C387 1.269 . S
O362 Co354 2.074 . S
O362 C387 1.257 . S
H363 C388 0.930 . S
H364 C394 0.930 . S
O365 Co354 2.093 . S
O365 C357 1.224 . S
H366 C398 0.929 . S
H367 C400 0.930 . S
H368 C401 0.930 . S
H369 C399 0.929 . S
H370 C402 0.928 . S
O371 Co355 2.057 . S
O371 C359 1.232 . S
H372 C391 0.929 . S
H373 C392 0.929 . S
H374 C404 0.931 . S
H375 C396 0.929 . S
H376 C405 0.930 . S
H377 C397 0.931 . S
O378 Co354 2.097 . S
O378 C406 1.214 . S
H379 C407 0.929 . S
H380 C408 0.929 . S
H381 C409 0.930 . S
H382 C410 0.929 . S
H383 C412 0.930 . S
H384 C389 0.930 . S
H385 C393 0.930 . S
O386 Co355 2.037 . S
O386 C406 1.234 . S
C387 O361 1.269 . S
C387 O362 1.257 . S
C388 H363 0.930 . S
C388 C391 1.388 . S
C388 C393 1.418 . S
C389 H384 0.930 . S
C389 C392 1.404 . S
C389 C393 1.353 . S
N390 Co355 2.145 . S
N390 C391 1.397 . S
N390 C392 1.334 . S
C391 H372 0.929 . S
C391 C388 1.388 . S
C391 N390 1.397 . S
C392 H373 0.929 . S
C392 C389 1.404 . S
C392 N390 1.334 . S
C393 H385 0.930 . S
C393 C388 1.418 . S
C393 C389 1.353 . S
C394 H364 0.930 . S
C394 N395 1.330 . S
C394 C396 1.446 . S
N395 Co354 2.151 . S
N395 C394 1.330 . S
N395 C399 1.418 . S
C396 H375 0.929 . S
C396 C394 1.446 . S
C396 C397 1.332 . S
C397 H377 0.931 . S
C397 C396 1.332 . S
C397 C398 1.267 . S
C398 H366 0.929 . S
C398 C397 1.267 . S
C398 C399 1.251 . S
C399 H369 0.929 . S
C399 N395 1.418 . S
C399 C398 1.251 . S
C400 H367 0.930 . S
C400 C402 1.406 . S
C400 C405 1.261 . S
C401 H368 0.930 . S
C401 N403 1.325 . S
C401 C404 1.357 . S
C402 H370 0.928 . S
C402 C400 1.406 . S
C402 N403 1.261 . S
N403 Co354 2.214 . S
N403 C401 1.325 . S
N403 C402 1.261 . S
C404 H374 0.931 . S
C404 C401 1.357 . S
C404 C405 1.312 . S
C405 H376 0.930 . S
C405 C400 1.261 . S
C405 C404 1.312 . S
C406 O378 1.214 . S
C406 O386 1.234 . S
C407 H379 0.929 . S
C407 C410 1.391 . S
C407 C412 1.391 . S
C408 H380 0.929 . S
C408 C409 1.390 . S
C408 N411 1.391 . S
C409 H381 0.930 . S
C409 C408 1.390 . S
C409 C410 1.392 . S
C410 H382 0.929 . S
C410 C407 1.391 . S
C410 C409 1.392 . S
N411 Co355 2.257 . S
N411 C408 1.391 . S
N411 C412 1.388 . S
C412 H383 0.930 . S
C412 C407 1.391 . S
C412 N411 1.388 . S
Co413 O415 2.143 . S
Co413 O421 2.074 . S
Co413 O424 2.093 . S
Co413 O437 2.097 . S
Co413 N454 2.151 . S
Co413 N462 2.214 . S
Co414 O415 2.160 . S
Co414 O420 2.058 . S
Co414 O430 2.057 . S
Co414 O445 2.037 . S
Co414 N449 2.145 . S
Co414 N470 2.257 . S
O415 Co413 2.143 . S
O415 Co414 2.160 . S
C416 O417 1.278 . S
C416 O424 1.224 . S
O417 C416 1.278 . S
C418 O419 1.245 . S
C418 O430 1.232 . S
O419 C418 1.245 . S
O420 Co414 2.058 . S
O420 C446 1.269 . S
O421 Co413 2.074 . S
O421 C446 1.257 . S
H422 C447 0.930 . S
H423 C453 0.930 . S
O424 Co413 2.093 . S
O424 C416 1.224 . S
H425 C457 0.929 . S
H426 C459 0.930 . S
H427 C460 0.930 . S
H428 C458 0.929 . S
H429 C461 0.928 . S
O430 Co414 2.057 . S
O430 C418 1.232 . S
H431 C450 0.929 . S
H432 C451 0.929 . S
H433 C463 0.931 . S
H434 C455 0.929 . S
H435 C464 0.930 . S
H436 C456 0.931 . S
O437 Co413 2.097 . S
O437 C465 1.214 . S
H438 C466 0.929 . S
H439 C467 0.929 . S
H440 C468 0.930 . S
H441 C469 0.929 . S
H442 C471 0.930 . S
H443 C448 0.930 . S
H444 C452 0.930 . S
O445 Co414 2.037 . S
O445 C465 1.234 . S
C446 O420 1.269 . S
C446 O421 1.257 . S
C447 H422 0.930 . S
C447 C450 1.388 . S
C447 C452 1.418 . S
C448 H443 0.930 . S
C448 C451 1.404 . S
C448 C452 1.353 . S
N449 Co414 2.145 . S
N449 C450 1.397 . S
N449 C451 1.334 . S
C450 H431 0.929 . S
C450 C447 1.388 . S
C450 N449 1.397 . S
C451 H432 0.929 . S
C451 C448 1.404 . S
C451 N449 1.334 . S
C452 H444 0.930 . S
C452 C447 1.418 . S
C452 C448 1.353 . S
C453 H423 0.930 . S
C453 N454 1.330 . S
C453 C455 1.446 . S
N454 Co413 2.151 . S
N454 C453 1.330 . S
N454 C458 1.418 . S
C455 H434 0.929 . S
C455 C453 1.446 . S
C455 C456 1.332 . S
C456 H436 0.931 . S
C456 C455 1.332 . S
C456 C457 1.267 . S
C457 H425 0.929 . S
C457 C456 1.267 . S
C457 C458 1.251 . S
C458 H428 0.929 . S
C458 N454 1.418 . S
C458 C457 1.251 . S
C459 H426 0.930 . S
C459 C461 1.406 . S
C459 C464 1.261 . S
C460 H427 0.930 . S
C460 N462 1.325 . S
C460 C463 1.357 . S
C461 H429 0.928 . S
C461 C459 1.406 . S
C461 N462 1.261 . S
N462 Co413 2.214 . S
N462 C460 1.325 . S
N462 C461 1.261 . S
C463 H433 0.931 . S
C463 C460 1.357 . S
C463 C464 1.312 . S
C464 H435 0.930 . S
C464 C459 1.261 . S
C464 C463 1.312 . S
C465 O437 1.214 . S
C465 O445 1.234 . S
C466 H438 0.929 . S
C466 C469 1.391 . S
C466 C471 1.391 . S
C467 H439 0.929 . S
C467 C468 1.390 . S
C467 N470 1.391 . S
C468 H440 0.930 . S
C468 C467 1.390 . S
C468 C469 1.392 . S
C469 H441 0.929 . S
C469 C466 1.391 . S
C469 C468 1.392 . S
N470 Co414 2.257 . S
N470 C467 1.391 . S
N470 C471 1.388 . S
C471 H442 0.930 . S
C471 C466 1.391 . S
C471 N470 1.388 . S
Co472 O474 2.143 . S
Co472 O480 2.074 . S
Co472 O483 2.093 . S
Co472 O496 2.097 . S
Co472 N513 2.151 . S
Co472 N521 2.214 . S
Co473 O474 2.160 . S
Co473 O479 2.058 . S
Co473 O489 2.057 . S
Co473 O504 2.037 . S
Co473 N508 2.145 . S
Co473 N529 2.257 . S
O474 Co472 2.143 . S
O474 Co473 2.160 . S
C475 O476 1.278 . S
C475 O483 1.224 . S
O476 C475 1.278 . S
C477 O478 1.245 . S
C477 O489 1.232 . S
O478 C477 1.245 . S
O479 Co473 2.058 . S
O479 C505 1.269 . S
O480 Co472 2.074 . S
O480 C505 1.257 . S
H481 C506 0.930 . S
H482 C512 0.930 . S
O483 Co472 2.093 . S
O483 C475 1.224 . S
H484 C516 0.929 . S
H485 C518 0.930 . S
H486 C519 0.930 . S
H487 C517 0.929 . S
H488 C520 0.928 . S
O489 Co473 2.057 . S
O489 C477 1.232 . S
H490 C509 0.929 . S
H491 C510 0.929 . S
H492 C522 0.931 . S
H493 C514 0.929 . S
H494 C523 0.930 . S
H495 C515 0.931 . S
O496 Co472 2.097 . S
O496 C524 1.214 . S
H497 C525 0.929 . S
H498 C526 0.929 . S
H499 C527 0.930 . S
H500 C528 0.929 . S
H501 C530 0.930 . S
H502 C507 0.930 . S
H503 C511 0.930 . S
O504 Co473 2.037 . S
O504 C524 1.234 . S
C505 O479 1.269 . S
C505 O480 1.257 . S
C506 H481 0.930 . S
C506 C509 1.388 . S
C506 C511 1.418 . S
C507 H502 0.930 . S
C507 C510 1.404 . S
C507 C511 1.353 . S
N508 Co473 2.145 . S
N508 C509 1.397 . S
N508 C510 1.334 . S
C509 H490 0.929 . S
C509 C506 1.388 . S
C509 N508 1.397 . S
C510 H491 0.929 . S
C510 C507 1.404 . S
C510 N508 1.334 . S
C511 H503 0.930 . S
C511 C506 1.418 . S
C511 C507 1.353 . S
C512 H482 0.930 . S
C512 N513 1.330 . S
C512 C514 1.446 . S
N513 Co472 2.151 . S
N513 C512 1.330 . S
N513 C517 1.418 . S
C514 H493 0.929 . S
C514 C512 1.446 . S
C514 C515 1.332 . S
C515 H495 0.931 . S
C515 C514 1.332 . S
C515 C516 1.267 . S
C516 H484 0.929 . S
C516 C515 1.267 . S
C516 C517 1.251 . S
C517 H487 0.929 . S
C517 N513 1.418 . S
C517 C516 1.251 . S
C518 H485 0.930 . S
C518 C520 1.406 . S
C518 C523 1.261 . S
C519 H486 0.930 . S
C519 N521 1.325 . S
C519 C522 1.357 . S
C520 H488 0.928 . S
C520 C518 1.406 . S
C520 N521 1.261 . S
N521 Co472 2.214 . S
N521 C519 1.325 . S
N521 C520 1.261 . S
C522 H492 0.931 . S
C522 C519 1.357 . S
C522 C523 1.312 . S
C523 H494 0.930 . S
C523 C518 1.261 . S
C523 C522 1.312 . S
C524 O496 1.214 . S
C524 O504 1.234 . S
C525 H497 0.929 . S
C525 C528 1.391 1_565 S
C525 C530 1.391 . S
C526 H498 0.929 . S
C526 C527 1.390 1_565 S
C526 N529 1.391 . S
C527 H499 0.930 . S
C527 C526 1.390 1_545 S
C527 C528 1.392 . S
C528 H500 0.929 . S
C528 C525 1.391 1_545 S
C528 C527 1.392 . S
N529 Co473 2.257 . S
N529 C526 1.391 . S
N529 C530 1.388 . S
C530 H501 0.930 . S
C530 C525 1.391 . S
C530 N529 1.388 . S
Co531 O533 2.143 . S
Co531 O539 2.074 . S
Co531 O542 2.093 . S
Co531 O555 2.097 . S
Co531 N572 2.151 . S
Co531 N580 2.214 . S
Co532 O533 2.160 . S
Co532 O538 2.058 . S
Co532 O548 2.057 . S
Co532 O563 2.037 . S
Co532 N567 2.145 . S
Co532 N588 2.257 . S
O533 Co531 2.143 . S
O533 Co532 2.160 . S
C534 O535 1.278 . S
C534 O542 1.224 . S
O535 C534 1.278 . S
C536 O537 1.245 . S
C536 O548 1.232 . S
O537 C536 1.245 . S
O538 Co532 2.058 . S
O538 C564 1.269 . S
O539 Co531 2.074 . S
O539 C564 1.257 . S
H540 C565 0.930 . S
H541 C571 0.930 . S
O542 Co531 2.093 . S
O542 C534 1.224 . S
H543 C575 0.929 . S
H544 C577 0.930 . S
H545 C578 0.930 . S
H546 C576 0.929 . S
H547 C579 0.928 . S
O548 Co532 2.057 . S
O548 C536 1.232 . S
H549 C568 0.929 . S
H550 C569 0.929 . S
H551 C581 0.931 . S
H552 C573 0.929 . S
H553 C582 0.930 . S
H554 C574 0.931 . S
O555 Co531 2.097 . S
O555 C583 1.214 . S
H556 C584 0.929 . S
H557 C585 0.929 . S
H558 C586 0.930 . S
H559 C587 0.929 . S
H560 C589 0.930 . S
H561 C566 0.930 . S
H562 C570 0.930 . S
O563 Co532 2.037 . S
O563 C583 1.234 . S
C564 O538 1.269 . S
C564 O539 1.257 . S
C565 H540 0.930 . S
C565 C568 1.388 . S
C565 C570 1.418 . S
C566 H561 0.930 . S
C566 C569 1.404 . S
C566 C570 1.353 . S
N567 Co532 2.145 . S
N567 C568 1.397 . S
N567 C569 1.334 . S
C568 H549 0.929 . S
C568 C565 1.388 . S
C568 N567 1.397 . S
C569 H550 0.929 . S
C569 C566 1.404 . S
C569 N567 1.334 . S
C570 H562 0.930 . S
C570 C565 1.418 . S
C570 C566 1.353 . S
C571 H541 0.930 . S
C571 N572 1.330 . S
C571 C573 1.446 . S
N572 Co531 2.151 . S
N572 C571 1.330 . S
N572 C576 1.418 . S
C573 H552 0.929 . S
C573 C571 1.446 . S
C573 C574 1.332 . S
C574 H554 0.931 . S
C574 C573 1.332 . S
C574 C575 1.267 . S
C575 H543 0.929 . S
C575 C574 1.267 . S
C575 C576 1.251 . S
C576 H546 0.929 . S
C576 N572 1.418 . S
C576 C575 1.251 . S
C577 H544 0.930 . S
C577 C579 1.406 . S
C577 C582 1.261 . S
C578 H545 0.930 . S
C578 N580 1.325 . S
C578 C581 1.357 . S
C579 H547 0.928 . S
C579 C577 1.406 . S
C579 N580 1.261 . S
N580 Co531 2.214 . S
N580 C578 1.325 . S
N580 C579 1.261 . S
C581 H551 0.931 . S
C581 C578 1.357 . S
C581 C582 1.312 . S
C582 H553 0.930 . S
C582 C577 1.261 . S
C582 C581 1.312 . S
C583 O555 1.214 . S
C583 O563 1.234 . S
C584 H556 0.929 . S
C584 C587 1.391 1_655 S
C584 C589 1.391 . S
C585 H557 0.929 . S
C585 C586 1.390 1_655 S
C585 N588 1.391 . S
C586 H558 0.930 . S
C586 C585 1.390 1_455 S
C586 C587 1.392 . S
C587 H559 0.929 . S
C587 C584 1.391 1_455 S
C587 C586 1.392 . S
N588 Co532 2.257 . S
N588 C585 1.391 . S
N588 C589 1.388 . S
C589 H560 0.930 . S
C589 C584 1.391 . S
C589 N588 1.388 . S
Co590 O592 2.143 . S
Co590 O598 2.074 . S
Co590 O601 2.093 . S
Co590 O614 2.097 . S
Co590 N631 2.151 . S
Co590 N639 2.214 . S
Co591 O592 2.160 . S
Co591 O597 2.058 . S
Co591 O607 2.057 . S
Co591 O622 2.037 . S
Co591 N626 2.145 . S
Co591 N647 2.257 . S
O592 Co590 2.143 . S
O592 Co591 2.160 . S
C593 O594 1.278 . S
C593 O601 1.224 . S
O594 C593 1.278 . S
C595 O596 1.245 . S
C595 O607 1.232 . S
O596 C595 1.245 . S
O597 Co591 2.058 . S
O597 C623 1.269 . S
O598 Co590 2.074 . S
O598 C623 1.257 . S
H599 C624 0.930 . S
H600 C630 0.930 . S
O601 Co590 2.093 . S
O601 C593 1.224 . S
H602 C634 0.929 . S
H603 C636 0.930 . S
H604 C637 0.930 . S
H605 C635 0.929 . S
H606 C638 0.928 . S
O607 Co591 2.057 . S
O607 C595 1.232 . S
H608 C627 0.929 . S
H609 C628 0.929 . S
H610 C640 0.931 . S
H611 C632 0.929 . S
H612 C641 0.930 . S
H613 C633 0.931 . S
O614 Co590 2.097 . S
O614 C642 1.214 . S
H615 C643 0.929 . S
H616 C644 0.929 . S
H617 C645 0.930 . S
H618 C646 0.929 . S
H619 C648 0.930 . S
H620 C625 0.930 . S
H621 C629 0.930 . S
O622 Co591 2.037 . S
O622 C642 1.234 . S
C623 O597 1.269 . S
C623 O598 1.257 . S
C624 H599 0.930 . S
C624 C627 1.388 . S
C624 C629 1.418 . S
C625 H620 0.930 . S
C625 C628 1.404 . S
C625 C629 1.353 . S
N626 Co591 2.145 . S
N626 C627 1.397 . S
N626 C628 1.334 . S
C627 H608 0.929 . S
C627 C624 1.388 . S
C627 N626 1.397 . S
C628 H609 0.929 . S
C628 C625 1.404 . S
C628 N626 1.334 . S
C629 H621 0.930 . S
C629 C624 1.418 . S
C629 C625 1.353 . S
C630 H600 0.930 . S
C630 N631 1.330 . S
C630 C632 1.446 . S
N631 Co590 2.151 . S
N631 C630 1.330 . S
N631 C635 1.418 . S
C632 H611 0.929 . S
C632 C630 1.446 . S
C632 C633 1.332 . S
C633 H613 0.931 . S
C633 C632 1.332 . S
C633 C634 1.267 . S
C634 H602 0.929 . S
C634 C633 1.267 . S
C634 C635 1.251 . S
C635 H605 0.929 . S
C635 N631 1.418 . S
C635 C634 1.251 . S
C636 H603 0.930 . S
C636 C638 1.406 . S
C636 C641 1.261 . S
C637 H604 0.930 . S
C637 N639 1.325 . S
C637 C640 1.357 . S
C638 H606 0.928 . S
C638 C636 1.406 . S
C638 N639 1.261 . S
N639 Co590 2.214 . S
N639 C637 1.325 . S
N639 C638 1.261 . S
C640 H610 0.931 . S
C640 C637 1.357 . S
C640 C641 1.312 . S
C641 H612 0.930 . S
C641 C636 1.261 . S
C641 C640 1.312 . S
C642 O614 1.214 . S
C642 O622 1.234 . S
C643 H615 0.929 . S
C643 C646 1.391 1_545 S
C643 C648 1.391 . S
C644 H616 0.929 . S
C644 C645 1.390 1_545 S
C644 N647 1.391 . S
C645 H617 0.930 . S
C645 C644 1.390 1_565 S
C645 C646 1.392 . S
C646 H618 0.929 . S
C646 C643 1.391 1_565 S
C646 C645 1.392 . S
N647 Co591 2.257 . S
N647 C644 1.391 . S
N647 C648 1.388 . S
C648 H619 0.930 . S
C648 C643 1.391 . S
C648 N647 1.388 . S
Co649 O651 2.143 . S
Co649 O657 2.074 . S
Co649 O660 2.093 . S
Co649 O673 2.097 . S
Co649 N690 2.151 . S
Co649 N698 2.214 . S
Co650 O651 2.160 . S
Co650 O656 2.058 . S
Co650 O666 2.057 . S
Co650 O681 2.037 . S
Co650 N685 2.145 . S
Co650 N706 2.257 . S
O651 Co649 2.143 . S
O651 Co650 2.160 . S
C652 O653 1.278 . S
C652 O660 1.224 . S
O653 C652 1.278 . S
C654 O655 1.245 . S
C654 O666 1.232 . S
O655 C654 1.245 . S
O656 Co650 2.058 . S
O656 C682 1.269 . S
O657 Co649 2.074 . S
O657 C682 1.257 . S
H658 C683 0.930 . S
H659 C689 0.930 . S
O660 Co649 2.093 . S
O660 C652 1.224 . S
H661 C693 0.929 . S
H662 C695 0.930 . S
H663 C696 0.930 . S
H664 C694 0.929 . S
H665 C697 0.928 . S
O666 Co650 2.057 . S
O666 C654 1.232 . S
H667 C686 0.929 . S
H668 C687 0.929 . S
H669 C699 0.931 . S
H670 C691 0.929 . S
H671 C700 0.930 . S
H672 C692 0.931 . S
O673 Co649 2.097 . S
O673 C701 1.214 . S
H674 C702 0.929 . S
H675 C703 0.929 . S
H676 C704 0.930 . S
H677 C705 0.929 . S
H678 C707 0.930 . S
H679 C684 0.930 . S
H680 C688 0.930 . S
O681 Co650 2.037 . S
O681 C701 1.234 . S
C682 O656 1.269 . S
C682 O657 1.257 . S
C683 H658 0.930 . S
C683 C686 1.388 . S
C683 C688 1.418 . S
C684 H679 0.930 . S
C684 C687 1.404 . S
C684 C688 1.353 . S
N685 Co650 2.145 . S
N685 C686 1.397 . S
N685 C687 1.334 . S
C686 H667 0.929 . S
C686 C683 1.388 . S
C686 N685 1.397 . S
C687 H668 0.929 . S
C687 C684 1.404 . S
C687 N685 1.334 . S
C688 H680 0.930 . S
C688 C683 1.418 . S
C688 C684 1.353 . S
C689 H659 0.930 . S
C689 N690 1.330 . S
C689 C691 1.446 . S
N690 Co649 2.151 . S
N690 C689 1.330 . S
N690 C694 1.418 . S
C691 H670 0.929 . S
C691 C689 1.446 . S
C691 C692 1.332 . S
C692 H672 0.931 . S
C692 C691 1.332 . S
C692 C693 1.267 . S
C693 H661 0.929 . S
C693 C692 1.267 . S
C693 C694 1.251 . S
C694 H664 0.929 . S
C694 N690 1.418 . S
C694 C693 1.251 . S
C695 H662 0.930 . S
C695 C697 1.406 . S
C695 C700 1.261 . S
C696 H663 0.930 . S
C696 N698 1.325 . S
C696 C699 1.357 . S
C697 H665 0.928 . S
C697 C695 1.406 . S
C697 N698 1.261 . S
N698 Co649 2.214 . S
N698 C696 1.325 . S
N698 C697 1.261 . S
C699 H669 0.931 . S
C699 C696 1.357 . S
C699 C700 1.312 . S
C700 H671 0.930 . S
C700 C695 1.261 . S
C700 C699 1.312 . S
C701 O673 1.214 . S
C701 O681 1.234 . S
C702 H674 0.929 . S
C702 C705 1.391 1_455 S
C702 C707 1.391 . S
C703 H675 0.929 . S
C703 C704 1.390 1_455 S
C703 N706 1.391 . S
C704 H676 0.930 . S
C704 C703 1.390 1_655 S
C704 C705 1.392 . S
C705 H677 0.929 . S
C705 C702 1.391 1_655 S
C705 C704 1.392 . S
N706 Co650 2.257 . S
N706 C703 1.391 . S
N706 C707 1.388 . S
C707 H678 0.930 . S
C707 C702 1.391 . S
C707 N706 1.388 . S
Co708 O710 2.143 . S
Co708 O716 2.074 . S
Co708 O719 2.093 . S
Co708 O732 2.097 . S
Co708 N749 2.151 . S
Co708 N757 2.214 . S
Co709 O710 2.160 . S
Co709 O715 2.058 . S
Co709 O725 2.057 . S
Co709 O740 2.037 . S
Co709 N744 2.145 . S
Co709 N765 2.257 . S
O710 Co708 2.143 . S
O710 Co709 2.160 . S
C711 O712 1.278 . S
C711 O719 1.224 . S
O712 C711 1.278 . S
C713 O714 1.245 . S
C713 O725 1.232 . S
O714 C713 1.245 . S
O715 Co709 2.058 . S
O715 C741 1.269 . S
O716 Co708 2.074 . S
O716 C741 1.257 . S
H717 C742 0.930 . S
H718 C748 0.930 . S
O719 Co708 2.093 . S
O719 C711 1.224 . S
H720 C752 0.929 . S
H721 C754 0.930 . S
H722 C755 0.930 . S
H723 C753 0.929 . S
H724 C756 0.928 . S
O725 Co709 2.057 . S
O725 C713 1.232 . S
H726 C745 0.929 . S
H727 C746 0.929 . S
H728 C758 0.931 . S
H729 C750 0.929 . S
H730 C759 0.930 . S
H731 C751 0.931 . S
O732 Co708 2.097 . S
O732 C760 1.214 . S
H733 C761 0.929 . S
H734 C762 0.929 . S
H735 C763 0.930 . S
H736 C764 0.929 . S
H737 C766 0.930 . S
H738 C743 0.930 . S
H739 C747 0.930 . S
O740 Co709 2.037 . S
O740 C760 1.234 . S
C741 O715 1.269 . S
C741 O716 1.257 . S
C742 H717 0.930 . S
C742 C745 1.388 . S
C742 C747 1.418 . S
C743 H738 0.930 . S
C743 C746 1.404 . S
C743 C747 1.353 . S
N744 Co709 2.145 . S
N744 C745 1.397 . S
N744 C746 1.334 . S
C745 H726 0.929 . S
C745 C742 1.388 . S
C745 N744 1.397 . S
C746 H727 0.929 . S
C746 C743 1.404 . S
C746 N744 1.334 . S
C747 H739 0.930 . S
C747 C742 1.418 . S
C747 C743 1.353 . S
C748 H718 0.930 . S
C748 N749 1.330 . S
C748 C750 1.446 . S
N749 Co708 2.151 . S
N749 C748 1.330 . S
N749 C753 1.418 . S
C750 H729 0.929 . S
C750 C748 1.446 . S
C750 C751 1.332 . S
C751 H731 0.931 . S
C751 C750 1.332 . S
C751 C752 1.267 . S
C752 H720 0.929 . S
C752 C751 1.267 . S
C752 C753 1.251 . S
C753 H723 0.929 . S
C753 N749 1.418 . S
C753 C752 1.251 . S
C754 H721 0.930 . S
C754 C756 1.406 . S
C754 C759 1.261 . S
C755 H722 0.930 . S
C755 N757 1.325 . S
C755 C758 1.357 . S
C756 H724 0.928 . S
C756 C754 1.406 . S
C756 N757 1.261 . S
N757 Co708 2.214 . S
N757 C755 1.325 . S
N757 C756 1.261 . S
C758 H728 0.931 . S
C758 C755 1.357 . S
C758 C759 1.312 . S
C759 H730 0.930 . S
C759 C754 1.261 . S
C759 C758 1.312 . S
C760 O732 1.214 . S
C760 O740 1.234 . S
C761 H733 0.929 . S
C761 C764 1.391 1_545 S
C761 C766 1.391 . S
C762 H734 0.929 . S
C762 C763 1.390 1_545 S
C762 N765 1.391 . S
C763 H735 0.930 . S
C763 C762 1.390 1_565 S
C763 C764 1.392 . S
C764 H736 0.929 . S
C764 C761 1.391 1_565 S
C764 C763 1.392 . S
N765 Co709 2.257 . S
N765 C762 1.391 . S
N765 C766 1.388 . S
C766 H737 0.930 . S
C766 C761 1.391 . S
C766 N765 1.388 . S
Co767 O769 2.143 . S
Co767 O775 2.074 . S
Co767 O778 2.093 . S
Co767 O791 2.097 . S
Co767 N808 2.151 . S
Co767 N816 2.214 . S
Co768 O769 2.160 . S
Co768 O774 2.058 . S
Co768 O784 2.057 . S
Co768 O799 2.037 . S
Co768 N803 2.145 . S
Co768 N824 2.257 . S
O769 Co767 2.143 . S
O769 Co768 2.160 . S
C770 O771 1.278 . S
C770 O778 1.224 . S
O771 C770 1.278 . S
C772 O773 1.245 . S
C772 O784 1.232 . S
O773 C772 1.245 . S
O774 Co768 2.058 . S
O774 C800 1.269 . S
O775 Co767 2.074 . S
O775 C800 1.257 . S
H776 C801 0.930 . S
H777 C807 0.930 . S
O778 Co767 2.093 . S
O778 C770 1.224 . S
H779 C811 0.929 . S
H780 C813 0.930 . S
H781 C814 0.930 . S
H782 C812 0.929 . S
H783 C815 0.928 . S
O784 Co768 2.057 . S
O784 C772 1.232 . S
H785 C804 0.929 . S
H786 C805 0.929 . S
H787 C817 0.931 . S
H788 C809 0.929 . S
H789 C818 0.930 . S
H790 C810 0.931 . S
O791 Co767 2.097 . S
O791 C819 1.214 . S
H792 C820 0.929 . S
H793 C821 0.929 . S
H794 C822 0.930 . S
H795 C823 0.929 . S
H796 C825 0.930 . S
H797 C802 0.930 . S
H798 C806 0.930 . S
O799 Co768 2.037 . S
O799 C819 1.234 . S
C800 O774 1.269 . S
C800 O775 1.257 . S
C801 H776 0.930 . S
C801 C804 1.388 . S
C801 C806 1.418 . S
C802 H797 0.930 . S
C802 C805 1.404 . S
C802 C806 1.353 . S
N803 Co768 2.145 . S
N803 C804 1.397 . S
N803 C805 1.334 . S
C804 H785 0.929 . S
C804 C801 1.388 . S
C804 N803 1.397 . S
C805 H786 0.929 . S
C805 C802 1.404 . S
C805 N803 1.334 . S
C806 H798 0.930 . S
C806 C801 1.418 . S
C806 C802 1.353 . S
C807 H777 0.930 . S
C807 N808 1.330 . S
C807 C809 1.446 . S
N808 Co767 2.151 . S
N808 C807 1.330 . S
N808 C812 1.418 . S
C809 H788 0.929 . S
C809 C807 1.446 . S
C809 C810 1.332 . S
C810 H790 0.931 . S
C810 C809 1.332 . S
C810 C811 1.267 . S
C811 H779 0.929 . S
C811 C810 1.267 . S
C811 C812 1.251 . S
C812 H782 0.929 . S
C812 N808 1.418 . S
C812 C811 1.251 . S
C813 H780 0.930 . S
C813 C815 1.406 . S
C813 C818 1.261 . S
C814 H781 0.930 . S
C814 N816 1.325 . S
C814 C817 1.357 . S
C815 H783 0.928 . S
C815 C813 1.406 . S
C815 N816 1.261 . S
N816 Co767 2.214 . S
N816 C814 1.325 . S
N816 C815 1.261 . S
C817 H787 0.931 . S
C817 C814 1.357 . S
C817 C818 1.312 . S
C818 H789 0.930 . S
C818 C813 1.261 . S
C818 C817 1.312 . S
C819 O791 1.214 . S
C819 O799 1.234 . S
C820 H792 0.929 . S
C820 C823 1.391 1_455 S
C820 C825 1.391 . S
C821 H793 0.929 . S
C821 C822 1.390 1_455 S
C821 N824 1.391 . S
C822 H794 0.930 . S
C822 C821 1.390 1_655 S
C822 C823 1.392 . S
C823 H795 0.929 . S
C823 C820 1.391 1_655 S
C823 C822 1.392 . S
N824 Co768 2.257 . S
N824 C821 1.391 . S
N824 C825 1.388 . S
C825 H796 0.930 . S
C825 C820 1.391 . S
C825 N824 1.388 . S
Co826 O828 2.143 . S
Co826 O834 2.074 . S
Co826 O837 2.093 . S
Co826 O850 2.097 . S
Co826 N867 2.151 . S
Co826 N875 2.214 . S
Co827 O828 2.160 . S
Co827 O833 2.058 . S
Co827 O843 2.057 . S
Co827 O858 2.037 . S
Co827 N862 2.145 . S
Co827 N883 2.257 . S
O828 Co826 2.143 . S
O828 Co827 2.160 . S
C829 O830 1.278 . S
C829 O837 1.224 . S
O830 C829 1.278 . S
C831 O832 1.245 . S
C831 O843 1.232 . S
O832 C831 1.245 . S
O833 Co827 2.058 . S
O833 C859 1.269 . S
O834 Co826 2.074 . S
O834 C859 1.257 . S
H835 C860 0.930 . S
H836 C866 0.930 . S
O837 Co826 2.093 . S
O837 C829 1.224 . S
H838 C870 0.929 . S
H839 C872 0.930 . S
H840 C873 0.930 . S
H841 C871 0.929 . S
H842 C874 0.928 . S
O843 Co827 2.057 . S
O843 C831 1.232 . S
H844 C863 0.929 . S
H845 C864 0.929 . S
H846 C876 0.931 . S
H847 C868 0.929 . S
H848 C877 0.930 . S
H849 C869 0.931 . S
O850 Co826 2.097 . S
O850 C878 1.214 . S
H851 C879 0.929 . S
H852 C880 0.929 . S
H853 C881 0.930 . S
H854 C882 0.929 . S
H855 C884 0.930 . S
H856 C861 0.930 . S
H857 C865 0.930 . S
O858 Co827 2.037 . S
O858 C878 1.234 . S
C859 O833 1.269 . S
C859 O834 1.257 . S
C860 H835 0.930 . S
C860 C863 1.388 . S
C860 C865 1.418 . S
C861 H856 0.930 . S
C861 C864 1.404 . S
C861 C865 1.353 . S
N862 Co827 2.145 . S
N862 C863 1.397 . S
N862 C864 1.334 . S
C863 H844 0.929 . S
C863 C860 1.388 . S
C863 N862 1.397 . S
C864 H845 0.929 . S
C864 C861 1.404 . S
C864 N862 1.334 . S
C865 H857 0.930 . S
C865 C860 1.418 . S
C865 C861 1.353 . S
C866 H836 0.930 . S
C866 N867 1.330 . S
C866 C868 1.446 . S
N867 Co826 2.151 . S
N867 C866 1.330 . S
N867 C871 1.418 . S
C868 H847 0.929 . S
C868 C866 1.446 . S
C868 C869 1.332 . S
C869 H849 0.931 . S
C869 C868 1.332 . S
C869 C870 1.267 . S
C870 H838 0.929 . S
C870 C869 1.267 . S
C870 C871 1.251 . S
C871 H841 0.929 . S
C871 N867 1.418 . S
C871 C870 1.251 . S
C872 H839 0.930 . S
C872 C874 1.406 . S
C872 C877 1.261 . S
C873 H840 0.930 . S
C873 N875 1.325 . S
C873 C876 1.357 . S
C874 H842 0.928 . S
C874 C872 1.406 . S
C874 N875 1.261 . S
N875 Co826 2.214 . S
N875 C873 1.325 . S
N875 C874 1.261 . S
C876 H846 0.931 . S
C876 C873 1.357 . S
C876 C877 1.312 . S
C877 H848 0.930 . S
C877 C872 1.261 . S
C877 C876 1.312 . S
C878 O850 1.214 . S
C878 O858 1.234 . S
C879 H851 0.929 . S
C879 C882 1.391 1_565 S
C879 C884 1.391 . S
C880 H852 0.929 . S
C880 C881 1.390 1_565 S
C880 N883 1.391 . S
C881 H853 0.930 . S
C881 C880 1.390 1_545 S
C881 C882 1.392 . S
C882 H854 0.929 . S
C882 C879 1.391 1_545 S
C882 C881 1.392 . S
N883 Co827 2.257 . S
N883 C880 1.391 . S
N883 C884 1.388 . S
C884 H855 0.930 . S
C884 C879 1.391 . S
C884 N883 1.388 . S
Co885 O887 2.143 . S
Co885 O893 2.074 . S
Co885 O896 2.093 . S
Co885 O909 2.097 . S
Co885 N926 2.151 . S
Co885 N934 2.214 . S
Co886 O887 2.160 . S
Co886 O892 2.058 . S
Co886 O902 2.057 . S
Co886 O917 2.037 . S
Co886 N921 2.145 . S
Co886 N942 2.257 . S
O887 Co885 2.143 . S
O887 Co886 2.160 . S
C888 O889 1.278 . S
C888 O896 1.224 . S
O889 C888 1.278 . S
C890 O891 1.245 . S
C890 O902 1.232 . S
O891 C890 1.245 . S
O892 Co886 2.058 . S
O892 C918 1.269 . S
O893 Co885 2.074 . S
O893 C918 1.257 . S
H894 C919 0.930 . S
H895 C925 0.930 . S
O896 Co885 2.093 . S
O896 C888 1.224 . S
H897 C929 0.929 . S
H898 C931 0.930 . S
H899 C932 0.930 . S
H900 C930 0.929 . S
H901 C933 0.928 . S
O902 Co886 2.057 . S
O902 C890 1.232 . S
H903 C922 0.929 . S
H904 C923 0.929 . S
H905 C935 0.931 . S
H906 C927 0.929 . S
H907 C936 0.930 . S
H908 C928 0.931 . S
O909 Co885 2.097 . S
O909 C937 1.214 . S
H910 C938 0.929 . S
H911 C939 0.929 . S
H912 C940 0.930 . S
H913 C941 0.929 . S
H914 C943 0.930 . S
H915 C920 0.930 . S
H916 C924 0.930 . S
O917 Co886 2.037 . S
O917 C937 1.234 . S
C918 O892 1.269 . S
C918 O893 1.257 . S
C919 H894 0.930 . S
C919 C922 1.388 . S
C919 C924 1.418 . S
C920 H915 0.930 . S
C920 C923 1.404 . S
C920 C924 1.353 . S
N921 Co886 2.145 . S
N921 C922 1.397 . S
N921 C923 1.334 . S
C922 H903 0.929 . S
C922 C919 1.388 . S
C922 N921 1.397 . S
C923 H904 0.929 . S
C923 C920 1.404 . S
C923 N921 1.334 . S
C924 H916 0.930 . S
C924 C919 1.418 . S
C924 C920 1.353 . S
C925 H895 0.930 . S
C925 N926 1.330 . S
C925 C927 1.446 . S
N926 Co885 2.151 . S
N926 C925 1.330 . S
N926 C930 1.418 . S
C927 H906 0.929 . S
C927 C925 1.446 . S
C927 C928 1.332 . S
C928 H908 0.931 . S
C928 C927 1.332 . S
C928 C929 1.267 . S
C929 H897 0.929 . S
C929 C928 1.267 . S
C929 C930 1.251 . S
C930 H900 0.929 . S
C930 N926 1.418 . S
C930 C929 1.251 . S
C931 H898 0.930 . S
C931 C933 1.406 . S
C931 C936 1.261 . S
C932 H899 0.930 . S
C932 N934 1.325 . S
C932 C935 1.357 . S
C933 H901 0.928 . S
C933 C931 1.406 . S
C933 N934 1.261 . S
N934 Co885 2.214 . S
N934 C932 1.325 . S
N934 C933 1.261 . S
C935 H905 0.931 . S
C935 C932 1.357 . S
C935 C936 1.312 . S
C936 H907 0.930 . S
C936 C931 1.261 . S
C936 C935 1.312 . S
C937 O909 1.214 . S
C937 O917 1.234 . S
C938 H910 0.929 . S
C938 C941 1.391 1_655 S
C938 C943 1.391 . S
C939 H911 0.929 . S
C939 C940 1.390 1_655 S
C939 N942 1.391 . S
C940 H912 0.930 . S
C940 C939 1.390 1_455 S
C940 C941 1.392 . S
C941 H913 0.929 . S
C941 C938 1.391 1_455 S
C941 C940 1.392 . S
N942 Co886 2.257 . S
N942 C939 1.391 . S
N942 C943 1.388 . S
C943 H914 0.930 . S
C943 C938 1.391 . S
C943 N942 1.388 . S
H944 C956 0.930 . S
H945 C958 0.930 . S
H946 C959 0.930 . S
H947 C963 0.959 . S
H948 C963 0.959 . S
H949 C963 0.961 . S
H950 C964 0.960 . S
H951 C964 0.961 . S
H952 C964 0.959 . S
H953 C967 0.929 . S
H954 C968 0.931 . S
H955 C970 0.930 . S
C956 H944 0.930 . S
C956 C957 1.399 . S
C956 C961 1.399 . S
C957 C956 1.399 . S
C957 C958 1.376 . S
C958 H945 0.930 . S
C958 C957 1.376 . S
C958 C959 1.388 . S
C959 H946 0.930 . S
C959 C958 1.388 . S
C959 C960 1.390 . S
C960 C959 1.390 . S
C960 C961 1.394 . S
C960 C966 1.465 . S
C961 C956 1.399 . S
C961 C960 1.394 . S
C961 C962 1.516 . S
C962 C961 1.516 . S
C962 C963 1.502 . S
C962 C964 1.561 . S
C962 C965 1.526 . S
C963 H947 0.959 . S
C963 H948 0.959 . S
C963 H949 0.961 . S
C963 C962 1.502 . S
C964 H950 0.960 . S
C964 H951 0.961 . S
C964 H952 0.959 . S
C964 C962 1.561 . S
C965 C962 1.526 . S
C965 C966 1.396 . S
C965 C970 1.390 . S
C966 C960 1.465 . S
C966 C965 1.396 . S
C966 C967 1.399 . S
C967 H953 0.929 . S
C967 C966 1.399 . S
C967 C968 1.385 . S
C968 H954 0.931 . S
C968 C967 1.385 . S
C968 C969 1.389 . S
C969 C968 1.389 . S
C969 C970 1.387 . S
C970 H955 0.930 . S
C970 C965 1.390 . S
C970 C969 1.387 . S
H971 C983 0.930 . S
H972 C985 0.930 . S
H973 C986 0.930 . S
H974 C990 0.959 . S
H975 C990 0.959 . S
H976 C990 0.961 . S
H977 C991 0.960 . S
H978 C991 0.961 . S
H979 C991 0.959 . S
H980 C994 0.929 . S
H981 C995 0.931 . S
H982 C997 0.930 . S
C983 H971 0.930 . S
C983 C984 1.399 . S
C983 C988 1.399 . S
C984 C983 1.399 . S
C984 C985 1.376 . S
C985 H972 0.930 . S
C985 C984 1.376 . S
C985 C986 1.388 . S
C986 H973 0.930 . S
C986 C985 1.388 . S
C986 C987 1.390 . S
C987 C986 1.390 . S
C987 C988 1.394 . S
C987 C993 1.465 . S
C988 C983 1.399 . S
C988 C987 1.394 . S
C988 C989 1.516 . S
C989 C988 1.516 . S
C989 C990 1.502 . S
C989 C991 1.561 . S
C989 C992 1.526 . S
C990 H974 0.959 . S
C990 H975 0.959 . S
C990 H976 0.961 . S
C990 C989 1.502 . S
C991 H977 0.960 . S
C991 H978 0.961 . S
C991 H979 0.959 . S
C991 C989 1.561 . S
C992 C989 1.526 . S
C992 C993 1.396 . S
C992 C997 1.390 . S
C993 C987 1.465 . S
C993 C992 1.396 . S
C993 C994 1.399 . S
C994 H980 0.929 . S
C994 C993 1.399 . S
C994 C995 1.385 . S
C995 H981 0.931 . S
C995 C994 1.385 . S
C995 C996 1.389 . S
C996 C995 1.389 . S
C996 C997 1.387 . S
C997 H982 0.930 . S
C997 C992 1.390 . S
C997 C996 1.387 . S
H998 C1010 0.930 . S
H999 C1012 0.930 . S
H1000 C1013 0.930 . S
H1001 C1017 0.959 . S
H1002 C1017 0.959 . S
H1003 C1017 0.961 . S
H1004 C1018 0.960 . S
H1005 C1018 0.961 . S
H1006 C1018 0.959 . S
H1007 C1021 0.929 . S
H1008 C1022 0.931 . S
H1009 C1024 0.930 . S
C1010 H998 0.930 . S
C1010 C1011 1.399 . S
C1010 C1015 1.399 . S
C1011 C1010 1.399 . S
C1011 C1012 1.376 . S
C1012 H999 0.930 . S
C1012 C1011 1.376 . S
C1012 C1013 1.388 . S
C1013 H1000 0.930 . S
C1013 C1012 1.388 . S
C1013 C1014 1.390 . S
C1014 C1013 1.390 . S
C1014 C1015 1.394 . S
C1014 C1020 1.465 . S
C1015 C1010 1.399 . S
C1015 C1014 1.394 . S
C1015 C1016 1.516 . S
C1016 C1015 1.516 . S
C1016 C1017 1.502 . S
C1016 C1018 1.561 . S
C1016 C1019 1.526 . S
C1017 H1001 0.959 . S
C1017 H1002 0.959 . S
C1017 H1003 0.961 . S
C1017 C1016 1.502 . S
C1018 H1004 0.960 . S
C1018 H1005 0.961 . S
C1018 H1006 0.959 . S
C1018 C1016 1.561 . S
C1019 C1016 1.526 . S
C1019 C1020 1.396 . S
C1019 C1024 1.390 . S
C1020 C1014 1.465 . S
C1020 C1019 1.396 . S
C1020 C1021 1.399 . S
C1021 H1007 0.929 . S
C1021 C1020 1.399 . S
C1021 C1022 1.385 . S
C1022 H1008 0.931 . S
C1022 C1021 1.385 . S
C1022 C1023 1.389 . S
C1023 C1022 1.389 . S
C1023 C1024 1.387 . S
C1024 H1009 0.930 . S
C1024 C1019 1.390 . S
C1024 C1023 1.387 . S
H1025 C1037 0.930 . S
H1026 C1039 0.930 . S
H1027 C1040 0.930 . S
H1028 C1044 0.959 . S
H1029 C1044 0.959 . S
H1030 C1044 0.961 . S
H1031 C1045 0.960 . S
H1032 C1045 0.961 . S
H1033 C1045 0.959 . S
H1034 C1048 0.929 . S
H1035 C1049 0.931 . S
H1036 C1051 0.930 . S
C1037 H1025 0.930 . S
C1037 C1038 1.399 . S
C1037 C1042 1.399 . S
C1038 C1037 1.399 . S
C1038 C1039 1.376 . S
C1039 H1026 0.930 . S
C1039 C1038 1.376 . S
C1039 C1040 1.388 . S
C1040 H1027 0.930 . S
C1040 C1039 1.388 . S
C1040 C1041 1.390 . S
C1041 C1040 1.390 . S
C1041 C1042 1.394 . S
C1041 C1047 1.465 . S
C1042 C1037 1.399 . S
C1042 C1041 1.394 . S
C1042 C1043 1.516 . S
C1043 C1042 1.516 . S
C1043 C1044 1.502 . S
C1043 C1045 1.561 . S
C1043 C1046 1.526 . S
C1044 H1028 0.959 . S
C1044 H1029 0.959 . S
C1044 H1030 0.961 . S
C1044 C1043 1.502 . S
C1045 H1031 0.960 . S
C1045 H1032 0.961 . S
C1045 H1033 0.959 . S
C1045 C1043 1.561 . S
C1046 C1043 1.526 . S
C1046 C1047 1.396 . S
C1046 C1051 1.390 . S
C1047 C1041 1.465 . S
C1047 C1046 1.396 . S
C1047 C1048 1.399 . S
C1048 H1034 0.929 . S
C1048 C1047 1.399 . S
C1048 C1049 1.385 . S
C1049 H1035 0.931 . S
C1049 C1048 1.385 . S
C1049 C1050 1.389 . S
C1050 C1049 1.389 . S
C1050 C1051 1.387 . S
C1051 H1036 0.930 . S
C1051 C1046 1.390 . S
C1051 C1050 1.387 . S
H1052 C1064 0.930 . S
H1053 C1066 0.930 . S
H1054 C1067 0.930 . S
H1055 C1071 0.959 . S
H1056 C1071 0.959 . S
H1057 C1071 0.961 . S
H1058 C1072 0.960 . S
H1059 C1072 0.961 . S
H1060 C1072 0.959 . S
H1061 C1075 0.929 . S
H1062 C1076 0.931 . S
H1063 C1078 0.930 . S
C1064 H1052 0.930 . S
C1064 C1065 1.399 . S
C1064 C1069 1.399 . S
C1065 C1064 1.399 . S
C1065 C1066 1.376 . S
C1066 H1053 0.930 . S
C1066 C1065 1.376 . S
C1066 C1067 1.388 . S
C1067 H1054 0.930 . S
C1067 C1066 1.388 . S
C1067 C1068 1.390 . S
C1068 C1067 1.390 . S
C1068 C1069 1.394 . S
C1068 C1074 1.465 . S
C1069 C1064 1.399 . S
C1069 C1068 1.394 . S
C1069 C1070 1.516 . S
C1070 C1069 1.516 . S
C1070 C1071 1.502 . S
C1070 C1072 1.561 . S
C1070 C1073 1.526 . S
C1071 H1055 0.959 . S
C1071 H1056 0.959 . S
C1071 H1057 0.961 . S
C1071 C1070 1.502 . S
C1072 H1058 0.960 . S
C1072 H1059 0.961 . S
C1072 H1060 0.959 . S
C1072 C1070 1.561 . S
C1073 C1070 1.526 . S
C1073 C1074 1.396 . S
C1073 C1078 1.390 . S
C1074 C1068 1.465 . S
C1074 C1073 1.396 . S
C1074 C1075 1.399 . S
C1075 H1061 0.929 . S
C1075 C1074 1.399 . S
C1075 C1076 1.385 . S
C1076 H1062 0.931 . S
C1076 C1075 1.385 . S
C1076 C1077 1.389 . S
C1077 C1076 1.389 . S
C1077 C1078 1.387 . S
C1078 H1063 0.930 . S
C1078 C1073 1.390 . S
C1078 C1077 1.387 . S
H1079 C1091 0.930 . S
H1080 C1093 0.930 . S
H1081 C1094 0.930 . S
H1082 C1098 0.959 . S
H1083 C1098 0.959 . S
H1084 C1098 0.961 . S
H1085 C1099 0.960 . S
H1086 C1099 0.961 . S
H1087 C1099 0.959 . S
H1088 C1102 0.929 . S
H1089 C1103 0.931 . S
H1090 C1105 0.930 . S
C1091 H1079 0.930 . S
C1091 C1092 1.399 . S
C1091 C1096 1.399 . S
C1092 C1091 1.399 . S
C1092 C1093 1.376 . S
C1093 H1080 0.930 . S
C1093 C1092 1.376 . S
C1093 C1094 1.388 . S
C1094 H1081 0.930 . S
C1094 C1093 1.388 . S
C1094 C1095 1.390 . S
C1095 C1094 1.390 . S
C1095 C1096 1.394 . S
C1095 C1101 1.465 . S
C1096 C1091 1.399 . S
C1096 C1095 1.394 . S
C1096 C1097 1.516 . S
C1097 C1096 1.516 . S
C1097 C1098 1.502 . S
C1097 C1099 1.561 . S
C1097 C1100 1.526 . S
C1098 H1082 0.959 . S
C1098 H1083 0.959 . S
C1098 H1084 0.961 . S
C1098 C1097 1.502 . S
C1099 H1085 0.960 . S
C1099 H1086 0.961 . S
C1099 H1087 0.959 . S
C1099 C1097 1.561 . S
C1100 C1097 1.526 . S
C1100 C1101 1.396 . S
C1100 C1105 1.390 . S
C1101 C1095 1.465 . S
C1101 C1100 1.396 . S
C1101 C1102 1.399 . S
C1102 H1088 0.929 . S
C1102 C1101 1.399 . S
C1102 C1103 1.385 . S
C1103 H1089 0.931 . S
C1103 C1102 1.385 . S
C1103 C1104 1.389 . S
C1104 C1103 1.389 . S
C1104 C1105 1.387 . S
C1105 H1090 0.930 . S
C1105 C1100 1.390 . S
C1105 C1104 1.387 . S
H1106 C1118 0.930 . S
H1107 C1120 0.930 . S
H1108 C1121 0.930 . S
H1109 C1125 0.959 . S
H1110 C1125 0.959 . S
H1111 C1125 0.961 . S
H1112 C1126 0.960 . S
H1113 C1126 0.961 . S
H1114 C1126 0.959 . S
H1115 C1129 0.929 . S
H1116 C1130 0.931 . S
H1117 C1132 0.930 . S
C1118 H1106 0.930 . S
C1118 C1119 1.399 . S
C1118 C1123 1.399 . S
C1119 C1118 1.399 . S
C1119 C1120 1.376 . S
C1120 H1107 0.930 . S
C1120 C1119 1.376 . S
C1120 C1121 1.388 . S
C1121 H1108 0.930 . S
C1121 C1120 1.388 . S
C1121 C1122 1.390 . S
C1122 C1121 1.390 . S
C1122 C1123 1.394 . S
C1122 C1128 1.465 . S
C1123 C1118 1.399 . S
C1123 C1122 1.394 . S
C1123 C1124 1.516 . S
C1124 C1123 1.516 . S
C1124 C1125 1.502 . S
C1124 C1126 1.561 . S
C1124 C1127 1.526 . S
C1125 H1109 0.959 . S
C1125 H1110 0.959 . S
C1125 H1111 0.961 . S
C1125 C1124 1.502 . S
C1126 H1112 0.960 . S
C1126 H1113 0.961 . S
C1126 H1114 0.959 . S
C1126 C1124 1.561 . S
C1127 C1124 1.526 . S
C1127 C1128 1.396 . S
C1127 C1132 1.390 . S
C1128 C1122 1.465 . S
C1128 C1127 1.396 . S
C1128 C1129 1.399 . S
C1129 H1115 0.929 . S
C1129 C1128 1.399 . S
C1129 C1130 1.385 . S
C1130 H1116 0.931 . S
C1130 C1129 1.385 . S
C1130 C1131 1.389 . S
C1131 C1130 1.389 . S
C1131 C1132 1.387 . S
C1132 H1117 0.930 . S
C1132 C1127 1.390 . S
C1132 C1131 1.387 . S
H1133 C1145 0.930 . S
H1134 C1147 0.930 . S
H1135 C1148 0.930 . S
H1136 C1152 0.959 . S
H1137 C1152 0.959 . S
H1138 C1152 0.961 . S
H1139 C1153 0.960 . S
H1140 C1153 0.961 . S
H1141 C1153 0.959 . S
H1142 C1156 0.929 . S
H1143 C1157 0.931 . S
H1144 C1159 0.930 . S
C1145 H1133 0.930 . S
C1145 C1146 1.399 . S
C1145 C1150 1.399 . S
C1146 C1145 1.399 . S
C1146 C1147 1.376 . S
C1147 H1134 0.930 . S
C1147 C1146 1.376 . S
C1147 C1148 1.388 . S
C1148 H1135 0.930 . S
C1148 C1147 1.388 . S
C1148 C1149 1.390 . S
C1149 C1148 1.390 . S
C1149 C1150 1.394 . S
C1149 C1155 1.465 . S
C1150 C1145 1.399 . S
C1150 C1149 1.394 . S
C1150 C1151 1.516 . S
C1151 C1150 1.516 . S
C1151 C1152 1.502 . S
C1151 C1153 1.561 . S
C1151 C1154 1.526 . S
C1152 H1136 0.959 . S
C1152 H1137 0.959 . S
C1152 H1138 0.961 . S
C1152 C1151 1.502 . S
C1153 H1139 0.960 . S
C1153 H1140 0.961 . S
C1153 H1141 0.959 . S
C1153 C1151 1.561 . S
C1154 C1151 1.526 . S
C1154 C1155 1.396 . S
C1154 C1159 1.390 . S
C1155 C1149 1.465 . S
C1155 C1154 1.396 . S
C1155 C1156 1.399 . S
C1156 H1142 0.929 . S
C1156 C1155 1.399 . S
C1156 C1157 1.385 . S
C1157 H1143 0.931 . S
C1157 C1156 1.385 . S
C1157 C1158 1.389 . S
C1158 C1157 1.389 . S
C1158 C1159 1.387 . S
C1159 H1144 0.930 . S
C1159 C1154 1.390 . S
C1159 C1158 1.387 . S
H1160 C1172 0.930 . S
H1161 C1174 0.930 . S
H1162 C1175 0.930 . S
H1163 C1179 0.959 . S
H1164 C1179 0.959 . S
H1165 C1179 0.961 . S
H1166 C1180 0.960 . S
H1167 C1180 0.961 . S
H1168 C1180 0.959 . S
H1169 C1183 0.929 . S
H1170 C1184 0.931 . S
H1171 C1186 0.930 . S
C1172 H1160 0.930 . S
C1172 C1173 1.399 . S
C1172 C1177 1.399 . S
C1173 C1172 1.399 . S
C1173 C1174 1.376 . S
C1174 H1161 0.930 . S
C1174 C1173 1.376 . S
C1174 C1175 1.388 . S
C1175 H1162 0.930 . S
C1175 C1174 1.388 . S
C1175 C1176 1.390 . S
C1176 C1175 1.390 . S
C1176 C1177 1.394 . S
C1176 C1182 1.465 . S
C1177 C1172 1.399 . S
C1177 C1176 1.394 . S
C1177 C1178 1.516 . S
C1178 C1177 1.516 . S
C1178 C1179 1.502 . S
C1178 C1180 1.561 . S
C1178 C1181 1.526 . S
C1179 H1163 0.959 . S
C1179 H1164 0.959 . S
C1179 H1165 0.961 . S
C1179 C1178 1.502 . S
C1180 H1166 0.960 . S
C1180 H1167 0.961 . S
C1180 H1168 0.959 . S
C1180 C1178 1.561 . S
C1181 C1178 1.526 . S
C1181 C1182 1.396 . S
C1181 C1186 1.390 . S
C1182 C1176 1.465 . S
C1182 C1181 1.396 . S
C1182 C1183 1.399 . S
C1183 H1169 0.929 . S
C1183 C1182 1.399 . S
C1183 C1184 1.385 . S
C1184 H1170 0.931 . S
C1184 C1183 1.385 . S
C1184 C1185 1.389 . S
C1185 C1184 1.389 . S
C1185 C1186 1.387 . S
C1186 H1171 0.930 . S
C1186 C1181 1.390 . S
C1186 C1185 1.387 . S
H1187 C1199 0.930 . S
H1188 C1201 0.930 . S
H1189 C1202 0.930 . S
H1190 C1206 0.959 . S
H1191 C1206 0.959 . S
H1192 C1206 0.961 . S
H1193 C1207 0.960 . S
H1194 C1207 0.961 . S
H1195 C1207 0.959 . S
H1196 C1210 0.929 . S
H1197 C1211 0.931 . S
H1198 C1213 0.930 . S
C1199 H1187 0.930 . S
C1199 C1200 1.399 . S
C1199 C1204 1.399 . S
C1200 C1199 1.399 . S
C1200 C1201 1.376 . S
C1201 H1188 0.930 . S
C1201 C1200 1.376 . S
C1201 C1202 1.388 . S
C1202 H1189 0.930 . S
C1202 C1201 1.388 . S
C1202 C1203 1.390 . S
C1203 C1202 1.390 . S
C1203 C1204 1.394 . S
C1203 C1209 1.465 . S
C1204 C1199 1.399 . S
C1204 C1203 1.394 . S
C1204 C1205 1.516 . S
C1205 C1204 1.516 . S
C1205 C1206 1.502 . S
C1205 C1207 1.561 . S
C1205 C1208 1.526 . S
C1206 H1190 0.959 . S
C1206 H1191 0.959 . S
C1206 H1192 0.961 . S
C1206 C1205 1.502 . S
C1207 H1193 0.960 . S
C1207 H1194 0.961 . S
C1207 H1195 0.959 . S
C1207 C1205 1.561 . S
C1208 C1205 1.526 . S
C1208 C1209 1.396 . S
C1208 C1213 1.390 . S
C1209 C1203 1.465 . S
C1209 C1208 1.396 . S
C1209 C1210 1.399 . S
C1210 H1196 0.929 . S
C1210 C1209 1.399 . S
C1210 C1211 1.385 . S
C1211 H1197 0.931 . S
C1211 C1210 1.385 . S
C1211 C1212 1.389 . S
C1212 C1211 1.389 . S
C1212 C1213 1.387 . S
C1213 H1198 0.930 . S
C1213 C1208 1.390 . S
C1213 C1212 1.387 . S
H1214 C1226 0.930 . S
H1215 C1228 0.930 . S
H1216 C1229 0.930 . S
H1217 C1233 0.959 . S
H1218 C1233 0.959 . S
H1219 C1233 0.961 . S
H1220 C1234 0.960 . S
H1221 C1234 0.961 . S
H1222 C1234 0.959 . S
H1223 C1237 0.929 . S
H1224 C1238 0.931 . S
H1225 C1240 0.930 . S
C1226 H1214 0.930 . S
C1226 C1227 1.399 . S
C1226 C1231 1.399 . S
C1227 C1226 1.399 . S
C1227 C1228 1.376 . S
C1228 H1215 0.930 . S
C1228 C1227 1.376 . S
C1228 C1229 1.388 . S
C1229 H1216 0.930 . S
C1229 C1228 1.388 . S
C1229 C1230 1.390 . S
C1230 C1229 1.390 . S
C1230 C1231 1.394 . S
C1230 C1236 1.465 . S
C1231 C1226 1.399 . S
C1231 C1230 1.394 . S
C1231 C1232 1.516 . S
C1232 C1231 1.516 . S
C1232 C1233 1.502 . S
C1232 C1234 1.561 . S
C1232 C1235 1.526 . S
C1233 H1217 0.959 . S
C1233 H1218 0.959 . S
C1233 H1219 0.961 . S
C1233 C1232 1.502 . S
C1234 H1220 0.960 . S
C1234 H1221 0.961 . S
C1234 H1222 0.959 . S
C1234 C1232 1.561 . S
C1235 C1232 1.526 . S
C1235 C1236 1.396 . S
C1235 C1240 1.390 . S
C1236 C1230 1.465 . S
C1236 C1235 1.396 . S
C1236 C1237 1.399 . S
C1237 H1223 0.929 . S
C1237 C1236 1.399 . S
C1237 C1238 1.385 . S
C1238 H1224 0.931 . S
C1238 C1237 1.385 . S
C1238 C1239 1.389 . S
C1239 C1238 1.389 . S
C1239 C1240 1.387 . S
C1240 H1225 0.930 . S
C1240 C1235 1.390 . S
C1240 C1239 1.387 . S
H1241 C1253 0.930 . S
H1242 C1255 0.930 . S
H1243 C1256 0.930 . S
H1244 C1260 0.959 . S
H1245 C1260 0.959 . S
H1246 C1260 0.961 . S
H1247 C1261 0.960 . S
H1248 C1261 0.961 . S
H1249 C1261 0.959 . S
H1250 C1264 0.929 . S
H1251 C1265 0.931 . S
H1252 C1267 0.930 . S
C1253 H1241 0.930 . S
C1253 C1254 1.399 . S
C1253 C1258 1.399 . S
C1254 C1253 1.399 . S
C1254 C1255 1.376 . S
C1255 H1242 0.930 . S
C1255 C1254 1.376 . S
C1255 C1256 1.388 . S
C1256 H1243 0.930 . S
C1256 C1255 1.388 . S
C1256 C1257 1.390 . S
C1257 C1256 1.390 . S
C1257 C1258 1.394 . S
C1257 C1263 1.465 . S
C1258 C1253 1.399 . S
C1258 C1257 1.394 . S
C1258 C1259 1.516 . S
C1259 C1258 1.516 . S
C1259 C1260 1.502 . S
C1259 C1261 1.561 . S
C1259 C1262 1.526 . S
C1260 H1244 0.959 . S
C1260 H1245 0.959 . S
C1260 H1246 0.961 . S
C1260 C1259 1.502 . S
C1261 H1247 0.960 . S
C1261 H1248 0.961 . S
C1261 H1249 0.959 . S
C1261 C1259 1.561 . S
C1262 C1259 1.526 . S
C1262 C1263 1.396 . S
C1262 C1267 1.390 . S
C1263 C1257 1.465 . S
C1263 C1262 1.396 . S
C1263 C1264 1.399 . S
C1264 H1250 0.929 . S
C1264 C1263 1.399 . S
C1264 C1265 1.385 . S
C1265 H1251 0.931 . S
C1265 C1264 1.385 . S
C1265 C1266 1.389 . S
C1266 C1265 1.389 . S
C1266 C1267 1.387 . S
C1267 H1252 0.930 . S
C1267 C1262 1.390 . S
C1267 C1266 1.387 . S
H1268 C1280 0.930 . S
H1269 C1282 0.930 . S
H1270 C1283 0.930 . S
H1271 C1287 0.959 . S
H1272 C1287 0.959 . S
H1273 C1287 0.961 . S
H1274 C1288 0.960 . S
H1275 C1288 0.961 . S
H1276 C1288 0.959 . S
H1277 C1291 0.929 . S
H1278 C1292 0.931 . S
H1279 C1294 0.930 . S
C1280 H1268 0.930 . S
C1280 C1281 1.399 . S
C1280 C1285 1.399 . S
C1281 C1280 1.399 . S
C1281 C1282 1.376 . S
C1282 H1269 0.930 . S
C1282 C1281 1.376 . S
C1282 C1283 1.388 . S
C1283 H1270 0.930 . S
C1283 C1282 1.388 . S
C1283 C1284 1.390 . S
C1284 C1283 1.390 . S
C1284 C1285 1.394 . S
C1284 C1290 1.465 . S
C1285 C1280 1.399 . S
C1285 C1284 1.394 . S
C1285 C1286 1.516 . S
C1286 C1285 1.516 . S
C1286 C1287 1.502 . S
C1286 C1288 1.561 . S
C1286 C1289 1.526 . S
C1287 H1271 0.959 . S
C1287 H1272 0.959 . S
C1287 H1273 0.961 . S
C1287 C1286 1.502 . S
C1288 H1274 0.960 . S
C1288 H1275 0.961 . S
C1288 H1276 0.959 . S
C1288 C1286 1.561 . S
C1289 C1286 1.526 . S
C1289 C1290 1.396 . S
C1289 C1294 1.390 . S
C1290 C1284 1.465 . S
C1290 C1289 1.396 . S
C1290 C1291 1.399 . S
C1291 H1277 0.929 . S
C1291 C1290 1.399 . S
C1291 C1292 1.385 . S
C1292 H1278 0.931 . S
C1292 C1291 1.385 . S
C1292 C1293 1.389 . S
C1293 C1292 1.389 . S
C1293 C1294 1.387 . S
C1294 H1279 0.930 . S
C1294 C1289 1.390 . S
C1294 C1293 1.387 . S
H1295 C1307 0.930 . S
H1296 C1309 0.930 . S
H1297 C1310 0.930 . S
H1298 C1314 0.959 . S
H1299 C1314 0.959 . S
H1300 C1314 0.961 . S
H1301 C1315 0.960 . S
H1302 C1315 0.961 . S
H1303 C1315 0.959 . S
H1304 C1318 0.929 . S
H1305 C1319 0.931 . S
H1306 C1321 0.930 . S
C1307 H1295 0.930 . S
C1307 C1308 1.399 . S
C1307 C1312 1.399 . S
C1308 C1307 1.399 . S
C1308 C1309 1.376 . S
C1309 H1296 0.930 . S
C1309 C1308 1.376 . S
C1309 C1310 1.388 . S
C1310 H1297 0.930 . S
C1310 C1309 1.388 . S
C1310 C1311 1.390 . S
C1311 C1310 1.390 . S
C1311 C1312 1.394 . S
C1311 C1317 1.465 . S
C1312 C1307 1.399 . S
C1312 C1311 1.394 . S
C1312 C1313 1.516 . S
C1313 C1312 1.516 . S
C1313 C1314 1.502 . S
C1313 C1315 1.561 . S
C1313 C1316 1.526 . S
C1314 H1298 0.959 . S
C1314 H1299 0.959 . S
C1314 H1300 0.961 . S
C1314 C1313 1.502 . S
C1315 H1301 0.960 . S
C1315 H1302 0.961 . S
C1315 H1303 0.959 . S
C1315 C1313 1.561 . S
C1316 C1313 1.526 . S
C1316 C1317 1.396 . S
C1316 C1321 1.390 . S
C1317 C1311 1.465 . S
C1317 C1316 1.396 . S
C1317 C1318 1.399 . S
C1318 H1304 0.929 . S
C1318 C1317 1.399 . S
C1318 C1319 1.385 . S
C1319 H1305 0.931 . S
C1319 C1318 1.385 . S
C1319 C1320 1.389 . S
C1320 C1319 1.389 . S
C1320 C1321 1.387 . S
C1321 H1306 0.930 . S
C1321 C1316 1.390 . S
C1321 C1320 1.387 . S
H1322 C1334 0.930 . S
H1323 C1336 0.930 . S
H1324 C1337 0.930 . S
H1325 C1341 0.959 . S
H1326 C1341 0.959 . S
H1327 C1341 0.961 . S
H1328 C1342 0.960 . S
H1329 C1342 0.961 . S
H1330 C1342 0.959 . S
H1331 C1345 0.929 . S
H1332 C1346 0.931 . S
H1333 C1348 0.930 . S
C1334 H1322 0.930 . S
C1334 C1335 1.399 . S
C1334 C1339 1.399 . S
C1335 C1334 1.399 . S
C1335 C1336 1.376 . S
C1336 H1323 0.930 . S
C1336 C1335 1.376 . S
C1336 C1337 1.388 . S
C1337 H1324 0.930 . S
C1337 C1336 1.388 . S
C1337 C1338 1.390 . S
C1338 C1337 1.390 . S
C1338 C1339 1.394 . S
C1338 C1344 1.465 . S
C1339 C1334 1.399 . S
C1339 C1338 1.394 . S
C1339 C1340 1.516 . S
C1340 C1339 1.516 . S
C1340 C1341 1.502 . S
C1340 C1342 1.561 . S
C1340 C1343 1.526 . S
C1341 H1325 0.959 . S
C1341 H1326 0.959 . S
C1341 H1327 0.961 . S
C1341 C1340 1.502 . S
C1342 H1328 0.960 . S
C1342 H1329 0.961 . S
C1342 H1330 0.959 . S
C1342 C1340 1.561 . S
C1343 C1340 1.526 . S
C1343 C1344 1.396 . S
C1343 C1348 1.390 . S
C1344 C1338 1.465 . S
C1344 C1343 1.396 . S
C1344 C1345 1.399 . S
C1345 H1331 0.929 . S
C1345 C1344 1.399 . S
C1345 C1346 1.385 . S
C1346 H1332 0.931 . S
C1346 C1345 1.385 . S
C1346 C1347 1.389 . S
C1347 C1346 1.389 . S
C1347 C1348 1.387 . S
C1348 H1333 0.930 . S
C1348 C1343 1.390 . S
C1348 C1347 1.387 . S
H1349 C1361 0.930 . S
H1350 C1363 0.930 . S
H1351 C1364 0.930 . S
H1352 C1368 0.959 . S
H1353 C1368 0.959 . S
H1354 C1368 0.961 . S
H1355 C1369 0.960 . S
H1356 C1369 0.961 . S
H1357 C1369 0.959 . S
H1358 C1372 0.929 . S
H1359 C1373 0.931 . S
H1360 C1375 0.930 . S
C1361 H1349 0.930 . S
C1361 C1362 1.399 . S
C1361 C1366 1.399 . S
C1362 C1361 1.399 . S
C1362 C1363 1.376 . S
C1363 H1350 0.930 . S
C1363 C1362 1.376 . S
C1363 C1364 1.388 . S
C1364 H1351 0.930 . S
C1364 C1363 1.388 . S
C1364 C1365 1.390 . S
C1365 C1364 1.390 . S
C1365 C1366 1.394 . S
C1365 C1371 1.465 . S
C1366 C1361 1.399 . S
C1366 C1365 1.394 . S
C1366 C1367 1.516 . S
C1367 C1366 1.516 . S
C1367 C1368 1.502 . S
C1367 C1369 1.561 . S
C1367 C1370 1.526 . S
C1368 H1352 0.959 . S
C1368 H1353 0.959 . S
C1368 H1354 0.961 . S
C1368 C1367 1.502 . S
C1369 H1355 0.960 . S
C1369 H1356 0.961 . S
C1369 H1357 0.959 . S
C1369 C1367 1.561 . S
C1370 C1367 1.526 . S
C1370 C1371 1.396 . S
C1370 C1375 1.390 . S
C1371 C1365 1.465 . S
C1371 C1370 1.396 . S
C1371 C1372 1.399 . S
C1372 H1358 0.929 . S
C1372 C1371 1.399 . S
C1372 C1373 1.385 . S
C1373 H1359 0.931 . S
C1373 C1372 1.385 . S
C1373 C1374 1.389 . S
C1374 C1373 1.389 . S
C1374 C1375 1.387 . S
C1375 H1360 0.930 . S
C1375 C1370 1.390 . S
C1375 C1374 1.387 . S
H1376 C1388 0.930 . S
H1377 C1390 0.930 . S
H1378 C1391 0.930 . S
H1379 C1395 0.959 . S
H1380 C1395 0.959 . S
H1381 C1395 0.961 . S
H1382 C1396 0.960 . S
H1383 C1396 0.961 . S
H1384 C1396 0.959 . S
H1385 C1399 0.929 . S
H1386 C1400 0.931 . S
H1387 C1402 0.930 . S
C1388 H1376 0.930 . S
C1388 C1389 1.399 . S
C1388 C1393 1.399 . S
C1389 C1388 1.399 . S
C1389 C1390 1.376 . S
C1390 H1377 0.930 . S
C1390 C1389 1.376 . S
C1390 C1391 1.388 . S
C1391 H1378 0.930 . S
C1391 C1390 1.388 . S
C1391 C1392 1.390 . S
C1392 C1391 1.390 . S
C1392 C1393 1.394 . S
C1392 C1398 1.465 . S
C1393 C1388 1.399 . S
C1393 C1392 1.394 . S
C1393 C1394 1.516 . S
C1394 C1393 1.516 . S
C1394 C1395 1.502 . S
C1394 C1396 1.561 . S
C1394 C1397 1.526 . S
C1395 H1379 0.959 . S
C1395 H1380 0.959 . S
C1395 H1381 0.961 . S
C1395 C1394 1.502 . S
C1396 H1382 0.960 . S
C1396 H1383 0.961 . S
C1396 H1384 0.959 . S
C1396 C1394 1.561 . S
C1397 C1394 1.526 . S
C1397 C1398 1.396 . S
C1397 C1402 1.390 . S
C1398 C1392 1.465 . S
C1398 C1397 1.396 . S
C1398 C1399 1.399 . S
C1399 H1385 0.929 . S
C1399 C1398 1.399 . S
C1399 C1400 1.385 . S
C1400 H1386 0.931 . S
C1400 C1399 1.385 . S
C1400 C1401 1.389 . S
C1401 C1400 1.389 . S
C1401 C1402 1.387 . S
C1402 H1387 0.930 . S
C1402 C1397 1.390 . S
C1402 C1401 1.387 . S
H1403 C1415 0.930 . S
H1404 C1417 0.930 . S
H1405 C1418 0.930 . S
H1406 C1422 0.959 . S
H1407 C1422 0.959 . S
H1408 C1422 0.961 . S
H1409 C1423 0.960 . S
H1410 C1423 0.961 . S
H1411 C1423 0.959 . S
H1412 C1426 0.929 . S
H1413 C1427 0.931 . S
H1414 C1429 0.930 . S
C1415 H1403 0.930 . S
C1415 C1416 1.399 . S
C1415 C1420 1.399 . S
C1416 C1415 1.399 . S
C1416 C1417 1.376 . S
C1417 H1404 0.930 . S
C1417 C1416 1.376 . S
C1417 C1418 1.388 . S
C1418 H1405 0.930 . S
C1418 C1417 1.388 . S
C1418 C1419 1.390 . S
C1419 C1418 1.390 . S
C1419 C1420 1.394 . S
C1419 C1425 1.465 . S
C1420 C1415 1.399 . S
C1420 C1419 1.394 . S
C1420 C1421 1.516 . S
C1421 C1420 1.516 . S
C1421 C1422 1.502 . S
C1421 C1423 1.561 . S
C1421 C1424 1.526 . S
C1422 H1406 0.959 . S
C1422 H1407 0.959 . S
C1422 H1408 0.961 . S
C1422 C1421 1.502 . S
C1423 H1409 0.960 . S
C1423 H1410 0.961 . S
C1423 H1411 0.959 . S
C1423 C1421 1.561 . S
C1424 C1421 1.526 . S
C1424 C1425 1.396 . S
C1424 C1429 1.390 . S
C1425 C1419 1.465 . S
C1425 C1424 1.396 . S
C1425 C1426 1.399 . S
C1426 H1412 0.929 . S
C1426 C1425 1.399 . S
C1426 C1427 1.385 . S
C1427 H1413 0.931 . S
C1427 C1426 1.385 . S
C1427 C1428 1.389 . S
C1428 C1427 1.389 . S
C1428 C1429 1.387 . S
C1429 H1414 0.930 . S
C1429 C1424 1.390 . S
C1429 C1428 1.387 . S
H1430 C1442 0.930 . S
H1431 C1444 0.930 . S
H1432 C1445 0.930 . S
H1433 C1449 0.959 . S
H1434 C1449 0.959 . S
H1435 C1449 0.961 . S
H1436 C1450 0.960 . S
H1437 C1450 0.961 . S
H1438 C1450 0.959 . S
H1439 C1453 0.929 . S
H1440 C1454 0.931 . S
H1441 C1456 0.930 . S
C1442 H1430 0.930 . S
C1442 C1443 1.399 . S
C1442 C1447 1.399 . S
C1443 C1442 1.399 . S
C1443 C1444 1.376 . S
C1444 H1431 0.930 . S
C1444 C1443 1.376 . S
C1444 C1445 1.388 . S
C1445 H1432 0.930 . S
C1445 C1444 1.388 . S
C1445 C1446 1.390 . S
C1446 C1445 1.390 . S
C1446 C1447 1.394 . S
C1446 C1452 1.465 . S
C1447 C1442 1.399 . S
C1447 C1446 1.394 . S
C1447 C1448 1.516 . S
C1448 C1447 1.516 . S
C1448 C1449 1.502 . S
C1448 C1450 1.561 . S
C1448 C1451 1.526 . S
C1449 H1433 0.959 . S
C1449 H1434 0.959 . S
C1449 H1435 0.961 . S
C1449 C1448 1.502 . S
C1450 H1436 0.960 . S
C1450 H1437 0.961 . S
C1450 H1438 0.959 . S
C1450 C1448 1.561 . S
C1451 C1448 1.526 . S
C1451 C1452 1.396 . S
C1451 C1456 1.390 . S
C1452 C1446 1.465 . S
C1452 C1451 1.396 . S
C1452 C1453 1.399 . S
C1453 H1439 0.929 . S
C1453 C1452 1.399 . S
C1453 C1454 1.385 . S
C1454 H1440 0.931 . S
C1454 C1453 1.385 . S
C1454 C1455 1.389 . S
C1455 C1454 1.389 . S
C1455 C1456 1.387 . S
C1456 H1441 0.930 . S
C1456 C1451 1.390 . S
C1456 C1455 1.387 . S
H1457 C1469 0.930 . S
H1458 C1471 0.930 . S
H1459 C1472 0.930 . S
H1460 C1476 0.959 . S
H1461 C1476 0.959 . S
H1462 C1476 0.961 . S
H1463 C1477 0.960 . S
H1464 C1477 0.961 . S
H1465 C1477 0.959 . S
H1466 C1480 0.929 . S
H1467 C1481 0.931 . S
H1468 C1483 0.930 . S
C1469 H1457 0.930 . S
C1469 C1470 1.399 . S
C1469 C1474 1.399 . S
C1470 C1469 1.399 . S
C1470 C1471 1.376 . S
C1471 H1458 0.930 . S
C1471 C1470 1.376 . S
C1471 C1472 1.388 . S
C1472 H1459 0.930 . S
C1472 C1471 1.388 . S
C1472 C1473 1.390 . S
C1473 C1472 1.390 . S
C1473 C1474 1.394 . S
C1473 C1479 1.465 . S
C1474 C1469 1.399 . S
C1474 C1473 1.394 . S
C1474 C1475 1.516 . S
C1475 C1474 1.516 . S
C1475 C1476 1.502 . S
C1475 C1477 1.561 . S
C1475 C1478 1.526 . S
C1476 H1460 0.959 . S
C1476 H1461 0.959 . S
C1476 H1462 0.961 . S
C1476 C1475 1.502 . S
C1477 H1463 0.960 . S
C1477 H1464 0.961 . S
C1477 H1465 0.959 . S
C1477 C1475 1.561 . S
C1478 C1475 1.526 . S
C1478 C1479 1.396 . S
C1478 C1483 1.390 . S
C1479 C1473 1.465 . S
C1479 C1478 1.396 . S
C1479 C1480 1.399 . S
C1480 H1466 0.929 . S
C1480 C1479 1.399 . S
C1480 C1481 1.385 . S
C1481 H1467 0.931 . S
C1481 C1480 1.385 . S
C1481 C1482 1.389 . S
C1482 C1481 1.389 . S
C1482 C1483 1.387 . S
C1483 H1468 0.930 . S
C1483 C1478 1.390 . S
C1483 C1482 1.387 . S
H1484 C1496 0.930 . S
H1485 C1498 0.930 . S
H1486 C1499 0.930 . S
H1487 C1503 0.959 . S
H1488 C1503 0.959 . S
H1489 C1503 0.961 . S
H1490 C1504 0.960 . S
H1491 C1504 0.961 . S
H1492 C1504 0.959 . S
H1493 C1507 0.929 . S
H1494 C1508 0.931 . S
H1495 C1510 0.930 . S
C1496 H1484 0.930 . S
C1496 C1497 1.399 . S
C1496 C1501 1.399 . S
C1497 C1496 1.399 . S
C1497 C1498 1.376 . S
C1498 H1485 0.930 . S
C1498 C1497 1.376 . S
C1498 C1499 1.388 . S
C1499 H1486 0.930 . S
C1499 C1498 1.388 . S
C1499 C1500 1.390 . S
C1500 C1499 1.390 . S
C1500 C1501 1.394 . S
C1500 C1506 1.465 . S
C1501 C1496 1.399 . S
C1501 C1500 1.394 . S
C1501 C1502 1.516 . S
C1502 C1501 1.516 . S
C1502 C1503 1.502 . S
C1502 C1504 1.561 . S
C1502 C1505 1.526 . S
C1503 H1487 0.959 . S
C1503 H1488 0.959 . S
C1503 H1489 0.961 . S
C1503 C1502 1.502 . S
C1504 H1490 0.960 . S
C1504 H1491 0.961 . S
C1504 H1492 0.959 . S
C1504 C1502 1.561 . S
C1505 C1502 1.526 . S
C1505 C1506 1.396 . S
C1505 C1510 1.390 . S
C1506 C1500 1.465 . S
C1506 C1505 1.396 . S
C1506 C1507 1.399 . S
C1507 H1493 0.929 . S
C1507 C1506 1.399 . S
C1507 C1508 1.385 . S
C1508 H1494 0.931 . S
C1508 C1507 1.385 . S
C1508 C1509 1.389 . S
C1509 C1508 1.389 . S
C1509 C1510 1.387 . S
C1510 H1495 0.930 . S
C1510 C1505 1.390 . S
C1510 C1509 1.387 . S
H1511 C1523 0.930 . S
H1512 C1525 0.930 . S
H1513 C1526 0.930 . S
H1514 C1530 0.959 . S
H1515 C1530 0.959 . S
H1516 C1530 0.961 . S
H1517 C1531 0.960 . S
H1518 C1531 0.961 . S
H1519 C1531 0.959 . S
H1520 C1534 0.929 . S
H1521 C1535 0.931 . S
H1522 C1537 0.930 . S
C1523 H1511 0.930 . S
C1523 C1524 1.399 . S
C1523 C1528 1.399 . S
C1524 C1523 1.399 . S
C1524 C1525 1.376 . S
C1525 H1512 0.930 . S
C1525 C1524 1.376 . S
C1525 C1526 1.388 . S
C1526 H1513 0.930 . S
C1526 C1525 1.388 . S
C1526 C1527 1.390 . S
C1527 C1526 1.390 . S
C1527 C1528 1.394 . S
C1527 C1533 1.465 . S
C1528 C1523 1.399 . S
C1528 C1527 1.394 . S
C1528 C1529 1.516 . S
C1529 C1528 1.516 . S
C1529 C1530 1.502 . S
C1529 C1531 1.561 . S
C1529 C1532 1.526 . S
C1530 H1514 0.959 . S
C1530 H1515 0.959 . S
C1530 H1516 0.961 . S
C1530 C1529 1.502 . S
C1531 H1517 0.960 . S
C1531 H1518 0.961 . S
C1531 H1519 0.959 . S
C1531 C1529 1.561 . S
C1532 C1529 1.526 . S
C1532 C1533 1.396 . S
C1532 C1537 1.390 . S
C1533 C1527 1.465 . S
C1533 C1532 1.396 . S
C1533 C1534 1.399 . S
C1534 H1520 0.929 . S
C1534 C1533 1.399 . S
C1534 C1535 1.385 . S
C1535 H1521 0.931 . S
C1535 C1534 1.385 . S
C1535 C1536 1.389 . S
C1536 C1535 1.389 . S
C1536 C1537 1.387 . S
C1537 H1522 0.930 . S
C1537 C1532 1.390 . S
C1537 C1536 1.387 . S
H1538 C1550 0.930 . S
H1539 C1552 0.930 . S
H1540 C1553 0.930 . S
H1541 C1557 0.959 . S
H1542 C1557 0.959 . S
H1543 C1557 0.961 . S
H1544 C1558 0.960 . S
H1545 C1558 0.961 . S
H1546 C1558 0.959 . S
H1547 C1561 0.929 . S
H1548 C1562 0.931 1_565 S
H1549 C1564 0.930 . S
C1550 H1538 0.930 . S
C1550 C1551 1.399 . S
C1550 C1555 1.399 . S
C1551 C1550 1.399 . S
C1551 C1552 1.376 . S
C1552 H1539 0.930 . S
C1552 C1551 1.376 . S
C1552 C1553 1.388 . S
C1553 H1540 0.930 . S
C1553 C1552 1.388 . S
C1553 C1554 1.390 . S
C1554 C1553 1.390 . S
C1554 C1555 1.394 . S
C1554 C1560 1.465 . S
C1555 C1550 1.399 . S
C1555 C1554 1.394 . S
C1555 C1556 1.516 . S
C1556 C1555 1.516 . S
C1556 C1557 1.502 . S
C1556 C1558 1.561 . S
C1556 C1559 1.526 . S
C1557 H1541 0.959 . S
C1557 H1542 0.959 . S
C1557 H1543 0.961 . S
C1557 C1556 1.502 . S
C1558 H1544 0.960 . S
C1558 H1545 0.961 . S
C1558 H1546 0.959 . S
C1558 C1556 1.561 . S
C1559 C1556 1.526 . S
C1559 C1560 1.396 . S
C1559 C1564 1.390 . S
C1560 C1554 1.465 . S
C1560 C1559 1.396 . S
C1560 C1561 1.399 . S
C1561 H1547 0.929 . S
C1561 C1560 1.399 . S
C1561 C1562 1.385 . S
C1562 H1548 0.931 1_545 S
C1562 C1561 1.385 . S
C1562 C1563 1.389 . S
C1563 C1562 1.389 . S
C1563 C1564 1.387 . S
C1564 H1549 0.930 . S
C1564 C1559 1.390 . S
C1564 C1563 1.387 . S
H1565 C1577 0.930 . S
H1566 C1579 0.930 . S
H1567 C1580 0.930 . S
H1568 C1584 0.959 . S
H1569 C1584 0.959 . S
H1570 C1584 0.961 . S
H1571 C1585 0.960 . S
H1572 C1585 0.961 . S
H1573 C1585 0.959 . S
H1574 C1588 0.929 . S
H1575 C1589 0.931 . S
H1576 C1591 0.930 . S
C1577 H1565 0.930 . S
C1577 C1578 1.399 . S
C1577 C1582 1.399 . S
C1578 C1577 1.399 . S
C1578 C1579 1.376 . S
C1579 H1566 0.930 . S
C1579 C1578 1.376 . S
C1579 C1580 1.388 . S
C1580 H1567 0.930 . S
C1580 C1579 1.388 . S
C1580 C1581 1.390 . S
C1581 C1580 1.390 . S
C1581 C1582 1.394 . S
C1581 C1587 1.465 . S
C1582 C1577 1.399 . S
C1582 C1581 1.394 . S
C1582 C1583 1.516 . S
C1583 C1582 1.516 . S
C1583 C1584 1.502 . S
C1583 C1585 1.561 . S
C1583 C1586 1.526 . S
C1584 H1568 0.959 . S
C1584 H1569 0.959 . S
C1584 H1570 0.961 . S
C1584 C1583 1.502 . S
C1585 H1571 0.960 . S
C1585 H1572 0.961 . S
C1585 H1573 0.959 . S
C1585 C1583 1.561 . S
C1586 C1583 1.526 . S
C1586 C1587 1.396 . S
C1586 C1591 1.390 . S
C1587 C1581 1.465 . S
C1587 C1586 1.396 . S
C1587 C1588 1.399 . S
C1588 H1574 0.929 . S
C1588 C1587 1.399 . S
C1588 C1589 1.385 . S
C1589 H1575 0.931 . S
C1589 C1588 1.385 . S
C1589 C1590 1.389 . S
C1590 C1589 1.389 . S
C1590 C1591 1.387 . S
C1591 H1576 0.930 . S
C1591 C1586 1.390 . S
C1591 C1590 1.387 . S
H1592 C1604 0.930 . S
H1593 C1606 0.930 . S
H1594 C1607 0.930 . S
H1595 C1611 0.959 . S
H1596 C1611 0.959 . S
H1597 C1611 0.961 . S
H1598 C1612 0.960 . S
H1599 C1612 0.961 . S
H1600 C1612 0.959 . S
H1601 C1615 0.929 . S
H1602 C1616 0.931 . S
H1603 C1618 0.930 . S
C1604 H1592 0.930 . S
C1604 C1605 1.399 . S
C1604 C1609 1.399 . S
C1605 C1604 1.399 . S
C1605 C1606 1.376 . S
C1606 H1593 0.930 . S
C1606 C1605 1.376 . S
C1606 C1607 1.388 . S
C1607 H1594 0.930 . S
C1607 C1606 1.388 . S
C1607 C1608 1.390 . S
C1608 C1607 1.390 . S
C1608 C1609 1.394 . S
C1608 C1614 1.465 . S
C1609 C1604 1.399 . S
C1609 C1608 1.394 . S
C1609 C1610 1.516 . S
C1610 C1609 1.516 . S
C1610 C1611 1.502 . S
C1610 C1612 1.561 . S
C1610 C1613 1.526 . S
C1611 H1595 0.959 . S
C1611 H1596 0.959 . S
C1611 H1597 0.961 . S
C1611 C1610 1.502 . S
C1612 H1598 0.960 . S
C1612 H1599 0.961 . S
C1612 H1600 0.959 . S
C1612 C1610 1.561 . S
C1613 C1610 1.526 . S
C1613 C1614 1.396 . S
C1613 C1618 1.390 . S
C1614 C1608 1.465 . S
C1614 C1613 1.396 . S
C1614 C1615 1.399 . S
C1615 H1601 0.929 . S
C1615 C1614 1.399 . S
C1615 C1616 1.385 . S
C1616 H1602 0.931 . S
C1616 C1615 1.385 . S
C1616 C1617 1.389 . S
C1617 C1616 1.389 . S
C1617 C1618 1.387 . S
C1618 H1603 0.930 . S
C1618 C1613 1.390 . S
C1618 C1617 1.387 . S
H1619 C1631 0.930 . S
H1620 C1633 0.930 . S
H1621 C1634 0.930 . S
H1622 C1638 0.959 . S
H1623 C1638 0.959 . S
H1624 C1638 0.961 . S
H1625 C1639 0.960 . S
H1626 C1639 0.961 . S
H1627 C1639 0.959 . S
H1628 C1642 0.929 . S
H1629 C1643 0.931 . S
H1630 C1645 0.930 . S
C1631 H1619 0.930 . S
C1631 C1632 1.399 . S
C1631 C1636 1.399 . S
C1632 C1631 1.399 . S
C1632 C1633 1.376 . S
C1633 H1620 0.930 . S
C1633 C1632 1.376 . S
C1633 C1634 1.388 . S
C1634 H1621 0.930 . S
C1634 C1633 1.388 . S
C1634 C1635 1.390 . S
C1635 C1634 1.390 . S
C1635 C1636 1.394 . S
C1635 C1641 1.465 . S
C1636 C1631 1.399 . S
C1636 C1635 1.394 . S
C1636 C1637 1.516 . S
C1637 C1636 1.516 . S
C1637 C1638 1.502 . S
C1637 C1639 1.561 . S
C1637 C1640 1.526 . S
C1638 H1622 0.959 . S
C1638 H1623 0.959 . S
C1638 H1624 0.961 . S
C1638 C1637 1.502 . S
C1639 H1625 0.960 . S
C1639 H1626 0.961 . S
C1639 H1627 0.959 . S
C1639 C1637 1.561 . S
C1640 C1637 1.526 . S
C1640 C1641 1.396 . S
C1640 C1645 1.390 . S
C1641 C1635 1.465 . S
C1641 C1640 1.396 . S
C1641 C1642 1.399 . S
C1642 H1628 0.929 . S
C1642 C1641 1.399 . S
C1642 C1643 1.385 . S
C1643 H1629 0.931 . S
C1643 C1642 1.385 . S
C1643 C1644 1.389 . S
C1644 C1643 1.389 . S
C1644 C1645 1.387 . S
C1645 H1630 0.930 . S
C1645 C1640 1.390 . S
C1645 C1644 1.387 . S
H1646 C1658 0.930 . S
H1647 C1660 0.930 . S
H1648 C1661 0.930 . S
H1649 C1665 0.959 . S
H1650 C1665 0.959 . S
H1651 C1665 0.961 . S
H1652 C1666 0.960 . S
H1653 C1666 0.961 . S
H1654 C1666 0.959 . S
H1655 C1669 0.929 . S
H1656 C1670 0.931 . S
H1657 C1672 0.930 . S
C1658 H1646 0.930 . S
C1658 C1659 1.399 . S
C1658 C1663 1.399 . S
C1659 C1658 1.399 . S
C1659 C1660 1.376 . S
C1660 H1647 0.930 . S
C1660 C1659 1.376 . S
C1660 C1661 1.388 . S
C1661 H1648 0.930 . S
C1661 C1660 1.388 . S
C1661 C1662 1.390 . S
C1662 C1661 1.390 . S
C1662 C1663 1.394 . S
C1662 C1668 1.465 . S
C1663 C1658 1.399 . S
C1663 C1662 1.394 . S
C1663 C1664 1.516 . S
C1664 C1663 1.516 . S
C1664 C1665 1.502 . S
C1664 C1666 1.561 . S
C1664 C1667 1.526 . S
C1665 H1649 0.959 . S
C1665 H1650 0.959 . S
C1665 H1651 0.961 . S
C1665 C1664 1.502 . S
C1666 H1652 0.960 . S
C1666 H1653 0.961 . S
C1666 H1654 0.959 . S
C1666 C1664 1.561 . S
C1667 C1664 1.526 . S
C1667 C1668 1.396 . S
C1667 C1672 1.390 . S
C1668 C1662 1.465 . S
C1668 C1667 1.396 . S
C1668 C1669 1.399 . S
C1669 H1655 0.929 . S
C1669 C1668 1.399 . S
C1669 C1670 1.385 . S
C1670 H1656 0.931 . S
C1670 C1669 1.385 . S
C1670 C1671 1.389 . S
C1671 C1670 1.389 . S
C1671 C1672 1.387 . S
C1672 H1657 0.930 . S
C1672 C1667 1.390 . S
C1672 C1671 1.387 . S
H1673 C1685 0.930 . S
H1674 C1687 0.930 . S
H1675 C1688 0.930 . S
H1676 C1692 0.959 . S
H1677 C1692 0.959 . S
H1678 C1692 0.961 . S
H1679 C1693 0.960 . S
H1680 C1693 0.961 . S
H1681 C1693 0.959 . S
H1682 C1696 0.929 . S
H1683 C1697 0.931 . S
H1684 C1699 0.930 . S
C1685 H1673 0.930 . S
C1685 C1686 1.399 . S
C1685 C1690 1.399 . S
C1686 C1685 1.399 . S
C1686 C1687 1.376 . S
C1687 H1674 0.930 . S
C1687 C1686 1.376 . S
C1687 C1688 1.388 . S
C1688 H1675 0.930 . S
C1688 C1687 1.388 . S
C1688 C1689 1.390 . S
C1689 C1688 1.390 . S
C1689 C1690 1.394 . S
C1689 C1695 1.465 . S
C1690 C1685 1.399 . S
C1690 C1689 1.394 . S
C1690 C1691 1.516 . S
C1691 C1690 1.516 . S
C1691 C1692 1.502 . S
C1691 C1693 1.561 . S
C1691 C1694 1.526 . S
C1692 H1676 0.959 . S
C1692 H1677 0.959 . S
C1692 H1678 0.961 . S
C1692 C1691 1.502 . S
C1693 H1679 0.960 . S
C1693 H1680 0.961 . S
C1693 H1681 0.959 . S
C1693 C1691 1.561 . S
C1694 C1691 1.526 . S
C1694 C1695 1.396 . S
C1694 C1699 1.390 . S
C1695 C1689 1.465 . S
C1695 C1694 1.396 . S
C1695 C1696 1.399 . S
C1696 H1682 0.929 . S
C1696 C1695 1.399 . S
C1696 C1697 1.385 . S
C1697 H1683 0.931 . S
C1697 C1696 1.385 . S
C1697 C1698 1.389 . S
C1698 C1697 1.389 . S
C1698 C1699 1.387 . S
C1699 H1684 0.930 . S
C1699 C1694 1.390 . S
C1699 C1698 1.387 . S
H1700 C1712 0.930 . S
H1701 C1714 0.930 . S
H1702 C1715 0.930 . S
H1703 C1719 0.959 . S
H1704 C1719 0.959 . S
H1705 C1719 0.961 1_554 S
H1706 C1720 0.960 . S
H1707 C1720 0.961 . S
H1708 C1720 0.959 . S
H1709 C1723 0.929 . S
H1710 C1724 0.931 . S
H1711 C1726 0.930 . S
C1712 H1700 0.930 . S
C1712 C1713 1.399 . S
C1712 C1717 1.399 . S
C1713 C1712 1.399 . S
C1713 C1714 1.376 1_545 S
C1714 H1701 0.930 . S
C1714 C1713 1.376 1_565 S
C1714 C1715 1.388 . S
C1715 H1702 0.930 . S
C1715 C1714 1.388 . S
C1715 C1716 1.390 . S
C1716 C1715 1.390 . S
C1716 C1717 1.394 1_565 S
C1716 C1722 1.465 1_554 S
C1717 C1712 1.399 . S
C1717 C1716 1.394 1_545 S
C1717 C1718 1.516 1_554 S
C1718 C1717 1.516 1_556 S
C1718 C1719 1.502 . S
C1718 C1720 1.561 . S
C1718 C1721 1.526 . S
C1719 H1703 0.959 . S
C1719 H1704 0.959 . S
C1719 H1705 0.961 1_556 S
C1719 C1718 1.502 . S
C1720 H1706 0.960 . S
C1720 H1707 0.961 . S
C1720 H1708 0.959 . S
C1720 C1718 1.561 . S
C1721 C1718 1.526 . S
C1721 C1722 1.396 1_545 S
C1721 C1726 1.390 . S
C1722 C1716 1.465 1_556 S
C1722 C1721 1.396 1_565 S
C1722 C1723 1.399 . S
C1723 H1709 0.929 . S
C1723 C1722 1.399 . S
C1723 C1724 1.385 . S
C1724 H1710 0.931 . S
C1724 C1723 1.385 . S
C1724 C1725 1.389 . S
C1725 C1724 1.389 . S
C1725 C1726 1.387 1_565 S
C1726 H1711 0.930 . S
C1726 C1721 1.390 . S
C1726 C1725 1.387 1_545 S
H1727 C1739 0.917 1_655 S
H1728 C1741 0.930 . S
H1729 C1742 0.930 . S
H1730 C1746 0.959 . S
H1731 C1746 0.959 1_554 S
H1732 C1746 0.961 . S
H1733 C1747 0.960 1_556 S
H1734 C1747 0.961 1_655 S
H1735 C1747 0.959 . S
H1736 C1750 0.929 . S
H1737 C1751 0.930 1_455 S
H1738 C1753 0.930 . S
C1739 H1727 0.917 1_455 S
C1739 C1740 1.399 . S
C1739 C1744 1.399 . S
C1740 C1739 1.399 . S
C1740 C1741 1.376 . S
C1741 H1728 0.930 . S
C1741 C1740 1.376 . S
C1741 C1742 1.388 . S
C1742 H1729 0.930 . S
C1742 C1741 1.388 . S
C1742 C1743 1.390 . S
C1743 C1742 1.390 . S
C1743 C1744 1.394 . S
C1743 C1749 1.465 1_556 S
C1744 C1739 1.399 . S
C1744 C1743 1.394 . S
C1744 C1745 1.516 1_455 S
C1745 C1744 1.516 1_655 S
C1745 C1746 1.502 . S
C1745 C1747 1.561 1_656 S
C1745 C1748 1.526 1_556 S
C1746 H1730 0.959 . S
C1746 H1731 0.959 1_556 S
C1746 H1732 0.961 . S
C1746 C1745 1.502 . S
C1747 H1733 0.960 1_554 S
C1747 H1734 0.961 1_455 S
C1747 H1735 0.959 . S
C1747 C1745 1.561 1_454 S
C1748 C1745 1.526 1_554 S
C1748 C1749 1.396 1_655 S
C1748 C1753 1.390 . S
C1749 C1743 1.465 1_554 S
C1749 C1748 1.396 1_455 S
C1749 C1750 1.399 . S
C1750 H1736 0.929 . S
C1750 C1749 1.399 . S
C1750 C1751 1.385 1_455 S
C1751 H1737 0.930 1_655 S
C1751 C1750 1.385 1_655 S
C1751 C1752 1.389 . S
C1752 C1751 1.389 . S
C1752 C1753 1.387 . S
C1753 H1738 0.930 . S
C1753 C1748 1.390 . S
C1753 C1752 1.387 . S
H1754 C1766 0.930 . S
H1755 C1768 0.930 . S
H1756 C1769 0.930 . S
H1757 C1773 0.959 . S
H1758 C1773 0.959 . S
H1759 C1773 0.981 . S
H1760 C1774 0.976 . S
H1761 C1774 0.961 . S
H1762 C1774 0.959 . S
H1763 C1777 0.929 . S
H1764 C1778 0.931 . S
H1765 C1780 0.930 . S
C1766 H1754 0.930 . S
C1766 C1767 1.399 . S
C1766 C1771 1.399 . S
C1767 C1766 1.399 . S
C1767 C1768 1.376 1_545 S
C1768 H1755 0.930 . S
C1768 C1767 1.376 1_565 S
C1768 C1769 1.388 . S
C1769 H1756 0.930 . S
C1769 C1768 1.388 . S
C1769 C1770 1.390 . S
C1770 C1769 1.390 . S
C1770 C1771 1.394 1_565 S
C1770 C1776 1.465 1_556 S
C1771 C1766 1.399 . S
C1771 C1770 1.394 1_545 S
C1771 C1772 1.516 1_556 S
C1772 C1771 1.516 1_554 S
C1772 C1773 1.502 . S
C1772 C1774 1.561 . S
C1772 C1775 1.526 . S
C1773 H1757 0.959 . S
C1773 H1758 0.959 . S
C1773 H1759 0.981 . S
C1773 C1772 1.502 . S
C1774 H1760 0.976 . S
C1774 H1761 0.961 . S
C1774 H1762 0.959 . S
C1774 C1772 1.561 . S
C1775 C1772 1.526 . S
C1775 C1776 1.396 1_545 S
C1775 C1780 1.390 . S
C1776 C1770 1.465 1_554 S
C1776 C1775 1.396 1_565 S
C1776 C1777 1.399 . S
C1777 H1763 0.929 . S
C1777 C1776 1.399 . S
C1777 C1778 1.385 . S
C1778 H1764 0.931 . S
C1778 C1777 1.385 . S
C1778 C1779 1.389 . S
C1779 C1778 1.389 . S
C1779 C1780 1.387 1_565 S
C1780 H1765 0.930 . S
C1780 C1775 1.390 . S
C1780 C1779 1.387 1_545 S
H1781 C1793 0.930 . S
H1782 C1795 0.930 . S
H1783 C1796 0.930 . S
H1784 C1800 0.959 . S
H1785 C1800 0.959 . S
H1786 C1800 0.961 1_556 S
H1787 C1801 0.957 1_656 S
H1788 C1801 0.963 1_655 S
H1789 C1801 0.960 1_556 S
H1790 C1804 0.929 . S
H1791 C1805 0.931 . S
H1792 C1807 0.930 1_655 S
C1793 H1781 0.930 . S
C1793 C1794 1.399 . S
C1793 C1798 1.399 . S
C1794 C1793 1.399 . S
C1794 C1795 1.376 1_655 S
C1795 H1782 0.930 . S
C1795 C1794 1.376 1_455 S
C1795 C1796 1.388 . S
C1796 H1783 0.930 . S
C1796 C1795 1.388 . S
C1796 C1797 1.390 . S
C1797 C1796 1.390 . S
C1797 C1798 1.394 1_455 S
C1797 C1803 1.465 1_556 S
C1798 C1793 1.399 . S
C1798 C1797 1.394 1_655 S
C1798 C1799 1.516 1_556 S
C1799 C1798 1.516 1_554 S
C1799 C1800 1.502 . S
C1799 C1801 1.561 1_655 S
C1799 C1802 1.526 1_655 S
C1800 H1784 0.959 . S
C1800 H1785 0.959 . S
C1800 H1786 0.961 1_554 S
C1800 C1799 1.502 . S
C1801 H1787 0.957 1_454 S
C1801 H1788 0.963 1_455 S
C1801 H1789 0.960 1_554 S
C1801 C1799 1.561 1_455 S
C1802 C1799 1.526 1_455 S
C1802 C1803 1.396 . S
C1802 C1807 1.390 . S
C1803 C1797 1.465 1_554 S
C1803 C1802 1.396 . S
C1803 C1804 1.399 . S
C1804 H1790 0.929 . S
C1804 C1803 1.399 . S
C1804 C1805 1.385 . S
C1805 H1791 0.931 . S
C1805 C1804 1.385 . S
C1805 C1806 1.389 . S
C1806 C1805 1.389 . S
C1806 C1807 1.387 . S
C1807 H1792 0.930 1_455 S
C1807 C1802 1.390 . S
C1807 C1806 1.387 . S
C957 C5 1.370 . S
C969 C418 1.368 . S
C984 C64 1.355 . S
C996 C241 1.357 . S
C1011 C300 1.372 . S
C1023 C123 1.370 . S
C1038 C182 1.372 . S
C1050 C359 1.370 . S
C1065 C477 1.367 . S
C1077 C890 1.364 . S
C1092 C713 1.358 . S
C1104 C536 1.361 . S
C1119 C772 1.371 . S
C1131 C595 1.369 . S
C1146 C831 1.355 . S
C1158 C654 1.357 . S
C1173 C52 1.528 . S
C1185 C682 1.518 . S
C1200 C111 1.516 . S
C1212 C505 1.524 . S
C1227 C564 1.508 . S
C1239 C170 1.516 . S
C1254 C229 1.522 . S
C1266 C623 1.513 . S
C1281 C288 1.518 . S
C1293 C800 1.528 . S
C1308 C859 1.527 . S
C1320 C347 1.526 . S
C1335 C406 1.528 . S
C1347 C918 1.518 . S
C1362 C741 1.528 . S
C1374 C465 1.526 . S
C1389 C524 1.510 1_545 S
C1401 C210 1.513 . S
C1416 C33 1.525 . S
C1428 C583 1.527 1_455 S
C1443 C642 1.510 1_565 S
C1455 C92 1.520 . S
C1470 C151 1.523 . S
C1482 C701 1.528 1_655 S
C1497 C760 1.510 1_565 S
C1509 C328 1.519 . S
C1524 C387 1.519 . S
C1536 C819 1.527 1_655 S
C1551 C446 1.507 . S
C1563 C878 1.517 1_545 S
C1578 C269 1.526 . S
C1590 C937 1.527 1_455 S
C1605 C239 1.617 . S
C1617 C3 1.613 . S
C1632 C298 1.633 . S
C1644 C62 1.640 . S
C1659 C121 1.627 . S
C1671 C357 1.634 . S
C1686 C416 1.633 . S
C1698 C180 1.640 . S
C1713 C711 1.633 . S
C1725 C475 1.638 . S
C1740 C770 1.621 . S
C1752 C534 1.611 . S
C1767 C593 1.628 . S
C1779 C829 1.635 . S
C1794 C888 1.627 . S
C1806 C652 1.639 . S
