# Generated by pormake.
# Topology umo, (4)-cn, num edge types: 1
# Building blocks:
#     Node 0, Type 0, BuildingBlock: NAWXER_clean_sbu_0, # of connection points: 4
#     Node 1, Type 0, BuildingBlock: NAWXER_clean_sbu_0, # of connection points: 4
#     Node 2, Type 0, BuildingBlock: NAWXER_clean_sbu_0, # of connection points: 4
#     Node 3, Type 0, BuildingBlock: NAWXER_clean_sbu_0, # of connection points: 4
#     Node 4, Type 0, BuildingBlock: NAWXER_clean_sbu_0, # of connection points: 4
#     Node 5, Type 0, BuildingBlock: NAWXER_clean_sbu_0, # of connection points: 4
#     Node 6, Type 0, BuildingBlock: NAWXER_clean_sbu_0, # of connection points: 4
#     Node 7, Type 0, BuildingBlock: NAWXER_clean_sbu_0, # of connection points: 4
#     Node 8, Type 0, BuildingBlock: NAWXER_clean_sbu_0, # of connection points: 4
#     Node 9, Type 0, BuildingBlock: NAWXER_clean_sbu_0, # of connection points: 4
#     Node 10, Type 0, BuildingBlock: NAWXER_clean_sbu_0, # of connection points: 4
#     Node 11, Type 0, BuildingBlock: NAWXER_clean_sbu_0, # of connection points: 4
#     Edge 12, Type (0, 0), BuildingBlock: EZIPEK_clean_linker_0, # of connection points: 2
#     Edge 13, Type (0, 0), BuildingBlock: EZIPEK_clean_linker_0, # of connection points: 2
#     Edge 14, Type (0, 0), BuildingBlock: EZIPEK_clean_linker_0, # of connection points: 2
#     Edge 15, Type (0, 0), BuildingBlock: EZIPEK_clean_linker_0, # of connection points: 2
#     Edge 16, Type (0, 0), BuildingBlock: EZIPEK_clean_linker_0, # of connection points: 2
#     Edge 17, Type (0, 0), BuildingBlock: EZIPEK_clean_linker_0, # of connection points: 2
#     Edge 18, Type (0, 0), BuildingBlock: EZIPEK_clean_linker_0, # of connection points: 2
#     Edge 19, Type (0, 0), BuildingBlock: EZIPEK_clean_linker_0, # of connection points: 2
#     Edge 20, Type (0, 0), BuildingBlock: EZIPEK_clean_linker_0, # of connection points: 2
#     Edge 21, Type (0, 0), BuildingBlock: EZIPEK_clean_linker_0, # of connection points: 2
#     Edge 22, Type (0, 0), BuildingBlock: EZIPEK_clean_linker_0, # of connection points: 2
#     Edge 23, Type (0, 0), BuildingBlock: EZIPEK_clean_linker_0, # of connection points: 2
#     Edge 24, Type (0, 0), BuildingBlock: EZIPEK_clean_linker_0, # of connection points: 2
#     Edge 25, Type (0, 0), BuildingBlock: EZIPEK_clean_linker_0, # of connection points: 2
#     Edge 26, Type (0, 0), BuildingBlock: EZIPEK_clean_linker_0, # of connection points: 2
#     Edge 27, Type (0, 0), BuildingBlock: EZIPEK_clean_linker_0, # of connection points: 2
#     Edge 28, Type (0, 0), BuildingBlock: EZIPEK_clean_linker_0, # of connection points: 2
#     Edge 29, Type (0, 0), BuildingBlock: EZIPEK_clean_linker_0, # of connection points: 2
#     Edge 30, Type (0, 0), BuildingBlock: EZIPEK_clean_linker_0, # of connection points: 2
#     Edge 31, Type (0, 0), BuildingBlock: EZIPEK_clean_linker_0, # of connection points: 2
#     Edge 32, Type (0, 0), BuildingBlock: EZIPEK_clean_linker_0, # of connection points: 2
#     Edge 33, Type (0, 0), BuildingBlock: EZIPEK_clean_linker_0, # of connection points: 2
#     Edge 34, Type (0, 0), BuildingBlock: EZIPEK_clean_linker_0, # of connection points: 2
#     Edge 35, Type (0, 0), BuildingBlock: EZIPEK_clean_linker_0, # of connection points: 2
# Relax obj value: 0.169
# Max RMSD: 0.217
# Mean RMSD: 0.217
data_MOF--net-umo--node1-NAWXER_clean_sbu_0--edge1-EZIPEK_clean_linker_0
_symmetry_space_group_name_H-M    P1
_symmetry_Int_Tables_number       1
_symmetry_cell_setting            triclinic
loop_
_symmetry_equiv_pos_as_xyz
'x, y, z'
_cell_length_a     36.536178
_cell_length_b     36.336382
_cell_length_c     26.30336
_cell_angle_alpha  90.298998
_cell_angle_beta   89.753798
_cell_angle_gamma 119.88336
loop_
_atom_site_label
_atom_site_type_symbol
_atom_site_fract_x
_atom_site_fract_y
_atom_site_fract_z
_atom_type_partial_charge
C0 C 0.21442 0.60815 0.41796 0.0
C1 C 0.06883 0.50987 0.37343 0.0
O2 O 0.2013 0.57128 0.43635 0.0
Zn3 Zn 0.14576 0.51166 0.43629 0.0
O4 O 0.19108 0.6145 0.38773 0.0
Zn5 Zn 0.14194 0.55816 0.39067 0.0
O6 O 0.12315 0.55645 0.4676 0.0
O7 O 0.13411 0.51061 0.50948 0.0
O8 O 0.09223 0.54689 0.35561 0.0
O9 O 0.08451 0.49311 0.40295 0.0
O10 O 0.16763 0.47758 0.40219 0.0
O11 O 0.15968 0.51933 0.34995 0.0
C12 C 0.12349 0.53921 0.50962 0.0
C13 C 0.17062 0.49149 0.35715 0.0
C14 C 0.58081 0.07713 0.55214 0.0
C15 C 0.6139 0.2211 0.58922 0.0
O16 O 0.61615 0.0975 0.57533 0.0
Zn17 Zn 0.65397 0.16011 0.60484 0.0
O18 O 0.56133 0.09628 0.5391 0.0
Zn19 Zn 0.59914 0.15091 0.5676 0.0
O20 O 0.65495 0.1789 0.52101 0.0
O21 O 0.7067 0.18231 0.56722 0.0
O22 O 0.58324 0.19334 0.56312 0.0
O23 O 0.64242 0.21353 0.60617 0.0
O24 O 0.65263 0.14899 0.67697 0.0
O25 O 0.59227 0.14059 0.64834 0.0
C26 C 0.69395 0.18963 0.52563 0.0
C27 C 0.61509 0.14118 0.68549 0.0
C28 C 0.47062 0.67455 0.69127 0.0
C29 C 0.42913 0.59383 0.84992 0.0
O30 O 0.44082 0.63628 0.68437 0.0
Zn31 Zn 0.40915 0.57944 0.72904 0.0
O32 O 0.48812 0.6852 0.73454 0.0
Zn33 Zn 0.45292 0.63221 0.77053 0.0
O34 O 0.4759 0.59053 0.74744 0.0
O35 O 0.42574 0.54154 0.69989 0.0
O36 O 0.45875 0.63182 0.84327 0.0
O37 O 0.40913 0.5708 0.81133 0.0
O38 O 0.3515 0.56432 0.71975 0.0
O39 O 0.38862 0.62218 0.76645 0.0
C40 C 0.462 0.5571 0.71979 0.0
C41 C 0.35346 0.5946 0.7462 0.0
C42 C 0.75892 0.38902 0.93028 0.0
C43 C 0.89707 0.50952 0.90094 0.0
O44 O 0.76053 0.42384 0.9428 0.0
Zn45 Zn 0.80595 0.49039 0.94089 0.0
O46 O 0.79039 0.38925 0.90927 0.0
Zn47 Zn 0.8271 0.44966 0.91268 0.0
O48 O 0.83062 0.45767 0.99385 0.0
O49 O 0.80743 0.5016 1.0139 0.0
O50 O 0.88368 0.47053 0.89236 0.0
O51 O 0.87207 0.52184 0.9186 0.0
O52 O 0.77797 0.50993 0.89364 0.0
O53 O 0.80195 0.47253 0.85527 0.0
C54 C 0.82117 0.47712 1.02754 0.0
C55 C 0.78234 0.49343 0.85291 0.0
C56 C 0.42905 0.89587 0.04385 0.0
C57 C 0.37094 0.748 0.09213 0.0
O58 O 0.39335 0.88031 0.06659 0.0
Zn59 Zn 0.34604 0.82074 0.0954 0.0
O60 O 0.44376 0.87179 0.03194 0.0
Zn61 Zn 0.39944 0.82065 0.06223 0.0
O62 O 0.34846 0.80223 1.01103 0.0
O63 O 0.29579 0.801 0.05286 0.0
O64 O 0.4038 0.76966 0.06514 0.0
O65 O 0.34786 0.76368 0.10548 0.0
O66 O 0.34668 0.83631 0.16581 0.0
O67 O 0.40475 0.83612 0.14205 0.0
C68 C 0.3101 0.79389 1.01208 0.0
C69 C 0.38257 0.84059 0.17683 0.0
C70 C 0.48032 0.2804 0.19833 0.0
C71 C 0.49843 0.36728 0.35069 0.0
O72 O 0.50941 0.31909 0.19318 0.0
Zn73 Zn 0.53417 0.3767 0.23543 0.0
O74 O 0.45747 0.26942 0.23807 0.0
Zn75 Zn 0.48587 0.32401 0.27386 0.0
O76 O 0.46568 0.36373 0.23837 0.0
O77 O 0.52037 0.41194 0.19542 0.0
O78 O 0.47196 0.32812 0.34365 0.0
O79 O 0.52301 0.38824 0.31376 0.0
O80 O 0.59231 0.39265 0.24041 0.0
O81 O 0.54916 0.33577 0.28549 0.0
C82 C 0.48223 0.39632 0.20937 0.0
C83 C 0.58648 0.36328 0.27108 0.0
C84 C 0.48481 0.78352 0.5252 0.0
C85 C 0.44554 0.84061 0.3776 0.0
O86 O 0.45777 0.79526 0.53476 0.0
Zn87 Zn 0.42822 0.82515 0.49727 0.0
O88 O 0.50257 0.79131 0.48172 0.0
Zn89 Zn 0.47108 0.81614 0.45005 0.0
O90 O 0.49681 0.87823 0.48255 0.0
O91 O 0.44755 0.87819 0.53191 0.0
O92 O 0.47252 0.82801 0.37692 0.0
O93 O 0.42939 0.84219 0.42001 0.0
O94 O 0.36976 0.78201 0.50099 0.0
O95 O 0.40813 0.7639 0.45291 0.0
C96 C 0.48435 0.89758 0.51273 0.0
C97 C 0.37243 0.75546 0.47163 0.0
C98 C 0.57626 0.4363 0.54316 0.0
C99 C 0.67834 0.48756 0.68522 0.0
O100 O 0.56052 0.41927 0.58613 0.0
Zn101 Zn 0.58147 0.42069 0.66259 0.0
O102 O 0.61467 0.466 0.54122 0.0
Zn103 Zn 0.62773 0.4668 0.61346 0.0
O104 O 0.62577 0.4069 0.61528 0.0
O105 O 0.57347 0.36429 0.66594 0.0
O106 O 0.68434 0.5049 0.64176 0.0
O107 O 0.64197 0.45647 0.69646 0.0
O108 O 0.54604 0.43455 0.70258 0.0
O109 O 0.58607 0.48545 0.64886 0.0
C110 C 0.60308 0.37037 0.63539 0.0
C111 C 0.55649 0.47009 0.6823 0.0
C112 C 0.19248 0.6968 0.85161 0.0
C113 C 0.11796 0.60736 0.70422 0.0
O114 O 0.17704 0.65705 0.85993 0.0
Zn115 Zn 0.13811 0.59813 0.82103 0.0
O116 O 0.18479 0.70899 0.80983 0.0
Zn117 Zn 0.15204 0.65283 0.77893 0.0
O118 O 0.09198 0.62441 0.81669 0.0
O119 O 0.08668 0.56977 0.85923 0.0
O120 O 0.13558 0.64753 0.70851 0.0
O121 O 0.11775 0.58617 0.74307 0.0
O122 O 0.17415 0.57401 0.82176 0.0
O123 O 0.19791 0.63165 0.77427 0.0
C124 C 0.07093 0.59236 0.84571 0.0
C125 C 0.20216 0.60128 0.79238 0.0
C126 C 0.51839 0.07868 1.01867 0.0
C127 C 0.6157 0.22799 0.9868 0.0
O128 O 0.50315 0.09518 0.98844 0.0
Zn129 Zn 0.52005 0.15736 0.96243 0.0
O130 O 0.55302 0.10247 0.04124 0.0
Zn131 Zn 0.56614 0.15469 1.00815 0.0
O132 O 0.52919 0.17665 0.04769 0.0
O133 O 0.48023 0.17126 0.99459 0.0
O134 O 0.62233 0.20246 1.01289 0.0
O135 O 0.57877 0.21556 0.96919 0.0
O136 O 0.52081 0.15073 0.88917 0.0
O137 O 0.56855 0.14134 0.92889 0.0
C138 C 0.49749 0.1815 0.03814 0.0
C139 C 0.55119 0.14298 0.88748 0.0
C140 C 0.386 0.48078 0.17441 0.0
C141 C 0.34505 0.58796 0.16088 0.0
O142 O 0.35486 0.46825 0.14366 0.0
Zn143 Zn 0.31325 0.49151 0.12212 0.0
O144 O 0.39818 0.51472 0.19953 0.0
Zn145 Zn 0.36223 0.53245 0.17007 0.0
O146 O 0.30273 0.49756 0.20826 0.0
O147 O 0.25791 0.45316 0.15214 0.0
O148 O 0.37504 0.58869 0.18599 0.0
O149 O 0.32072 0.55436 0.13522 0.0
O150 O 0.31898 0.49354 0.04889 0.0
O151 O 0.37703 0.54017 0.0889 0.0
C152 C 0.26539 0.46825 0.19695 0.0
C153 C 0.3571 0.52361 0.04733 0.0
C154 C 0.7861 0.29922 0.36037 0.0
C155 C 0.81511 0.39727 0.21834 0.0
O156 O 0.79357 0.33613 0.37425 0.0
Zn157 Zn 0.81252 0.39635 0.34066 0.0
O158 O 0.79171 0.2929 0.31411 0.0
Zn159 Zn 0.80532 0.34887 0.28827 0.0
O160 O 0.86917 0.39057 0.31134 0.0
O161 O 0.86661 0.43317 0.36947 0.0
O162 O 0.8079 0.35924 0.21578 0.0
O163 O 0.81797 0.41464 0.2618 0.0
O164 O 0.76639 0.40363 0.36153 0.0
O165 O 0.74899 0.35105 0.30757 0.0
C166 C 0.88795 0.42109 0.34326 0.0
C167 C 0.73804 0.37237 0.3367 0.0
C168 C 0.26761 0.65382 0.48437 0.0
C169 C 0.2568 0.64301 0.43226 0.0
C170 C 0.32405 0.70353 0.4058 0.0
C171 C 0.33435 0.71507 0.45784 0.0
N172 N 0.32263 0.69438 0.54585 0.0
N173 N 0.27988 0.64916 0.34527 0.0
C174 C 0.30803 0.68823 0.49694 0.0
C175 C 0.28657 0.66542 0.39351 0.0
N176 N 0.23911 0.63209 0.52201 0.0
N177 N 0.34911 0.72946 0.3678 0.0
H178 H 0.25307 0.62088 0.33517 0.0
H179 H 0.30259 0.661 0.31661 0.0
H180 H 0.3777 0.75693 0.37397 0.0
H181 H 0.34033 0.72531 0.3297 0.0
H182 H 0.24285 0.64255 0.55957 0.0
H183 H 0.21045 0.60463 0.51578 0.0
H184 H 0.30683 0.67333 0.57535 0.0
H185 H 0.35279 0.71831 0.55613 0.0
C186 C 0.62139 0.29005 0.5616 0.0
C187 C 0.61601 0.26175 0.60139 0.0
C188 C 0.61428 0.31118 0.66351 0.0
C189 C 0.61159 0.33546 0.62319 0.0
N190 N 0.61092 0.34688 0.53224 0.0
N191 N 0.60293 0.24278 0.69021 0.0
C192 C 0.61522 0.32499 0.57172 0.0
C193 C 0.6116 0.27171 0.65246 0.0
N194 N 0.63354 0.28414 0.5144 0.0
N195 N 0.62107 0.32663 0.71215 0.0
H196 H 0.59997 0.21315 0.68366 0.0
H197 H 0.59499 0.24669 0.72716 0.0
H198 H 0.62529 0.35647 0.72132 0.0
H199 H 0.62737 0.31211 0.74228 0.0
H200 H 0.64264 0.30634 0.48527 0.0
H201 H 0.63856 0.25893 0.50579 0.0
H202 H 0.60748 0.33672 0.49457 0.0
H203 H 0.6078 0.3736 0.53663 0.0
C204 C 0.26633 0.59891 0.82009 0.0
C205 C 0.24052 0.59908 0.78014 0.0
C206 C 0.2912 0.60071 0.71744 0.0
C207 C 0.31447 0.59602 0.75738 0.0
N208 N 0.31756 0.57924 0.84543 0.0
N209 N 0.22408 0.59231 0.69049 0.0
C210 C 0.30024 0.59196 0.8084 0.0
C211 C 0.25174 0.59786 0.7286 0.0
N212 N 0.25965 0.60706 0.86903 0.0
N213 N 0.3073 0.60907 0.66919 0.0
H214 H 0.1944 0.58892 0.6972 0.0
H215 H 0.2288 0.58703 0.65269 0.0
H216 H 0.33627 0.6117 0.65974 0.0
H217 H 0.29371 0.61695 0.63953 0.0
H218 H 0.28052 0.61179 0.89854 0.0
H219 H 0.23583 0.61355 0.87931 0.0
H220 H 0.30544 0.57173 0.88223 0.0
H221 H 0.34102 0.57165 0.83795 0.0
C222 C 0.68527 0.331 0.91477 0.0
C223 C 0.72177 0.34881 0.9453 0.0
C224 C 0.68423 0.29359 1.00868 0.0
C225 C 0.65099 0.27087 0.97338 0.0
N226 N 0.62545 0.26634 0.88635 0.0
N227 N 0.75812 0.34522 1.01991 0.0
C228 C 0.65276 0.28908 0.92464 0.0
C229 C 0.72204 0.32941 0.99174 0.0
N230 N 0.68115 0.35419 0.87683 0.0
N231 N 0.6789 0.28278 0.05896 0.0
H232 H 0.78622 0.37217 1.00945 0.0
H233 H 0.76086 0.3297 0.05164 0.0
H234 H 0.65032 0.2592 0.0739 0.0
H235 H 0.70093 0.30081 0.08676 0.0
H236 H 0.65327 0.34376 0.85643 0.0
H237 H 0.70368 0.38574 0.87011 0.0
H238 H 0.62927 0.27766 0.84924 0.0
H239 H 0.60216 0.23472 0.88884 0.0
C240 C 0.38664 0.70495 0.1525 0.0
C241 C 0.3609 0.70645 0.11327 0.0
C242 C 0.31369 0.6295 0.12001 0.0
C243 C 0.34254 0.62772 0.15474 0.0
N244 N 0.38927 0.66507 0.22429 0.0
N245 N 0.29309 0.67275 0.07127 0.0
C246 C 0.37404 0.66588 0.17723 0.0
C247 C 0.32224 0.66946 0.10045 0.0
N248 N 0.42275 0.74083 0.16692 0.0
N249 N 0.27753 0.59327 0.10705 0.0
H250 H 0.29775 0.70138 0.05695 0.0
H251 H 0.26282 0.64785 0.06402 0.0
H252 H 0.26495 0.5663 0.12968 0.0
H253 H 0.25922 0.59036 0.07545 0.0
H254 H 0.44489 0.74026 0.19126 0.0
H255 H 0.43194 0.77085 0.1524 0.0
H256 H 0.40991 0.69234 0.24445 0.0
H257 H 0.37621 0.63753 0.2462 0.0
C258 C 0.68231 0.39309 0.35336 0.0
C259 C 0.69338 0.36307 0.33555 0.0
C260 C 0.62927 0.32804 0.28423 0.0
C261 C 0.62259 0.36259 0.29432 0.0
N262 N 0.63985 0.42658 0.34127 0.0
N263 N 0.665 0.29021 0.31007 0.0
C264 C 0.64811 0.39462 0.33003 0.0
C265 C 0.663 0.32674 0.3088 0.0
N266 N 0.70171 0.41704 0.39542 0.0
N267 N 0.60481 0.29768 0.24937 0.0
H268 H 0.68679 0.28736 0.33284 0.0
H269 H 0.64198 0.26152 0.2946 0.0
H270 H 0.57976 0.29758 0.23037 0.0
H271 H 0.61139 0.27447 0.23635 0.0
H272 H 0.69329 0.43766 0.41249 0.0
H273 H 0.72189 0.4115 0.4179 0.0
H274 H 0.66028 0.4536 0.36191 0.0
H275 H 0.61339 0.42726 0.32783 0.0
C276 C 0.11347 0.61125 0.60936 0.0
C277 C 0.10401 0.58593 0.65315 0.0
C278 C 0.09062 0.52562 0.59759 0.0
C279 C 0.11349 0.55467 0.55787 0.0
N280 N 0.14931 0.62876 0.52934 0.0
N281 N 0.06988 0.51464 0.68649 0.0
C282 C 0.12516 0.5984 0.56421 0.0
C283 C 0.08837 0.54161 0.64661 0.0
N284 N 0.10964 0.64674 0.61013 0.0
N285 N 0.06875 0.48301 0.58759 0.0
H286 H 0.05891 0.52318 0.71857 0.0
H287 H 0.06442 0.48365 0.68712 0.0
H288 H 0.06668 0.47048 0.55129 0.0
H289 H 0.04883 0.4603 0.61362 0.0
H290 H 0.1132 0.66461 0.57768 0.0
H291 H 0.09655 0.65419 0.64111 0.0
H292 H 0.16166 0.66107 0.5365 0.0
H293 H 0.16117 0.62343 0.49596 0.0
C294 C 0.62492 0.17076 0.77399 0.0
C295 C 0.59938 0.13882 0.73841 0.0
C296 C 0.54149 0.10872 0.80115 0.0
C297 C 0.56857 0.13873 0.83778 0.0
N298 N 0.64068 0.19034 0.86182 0.0
N299 N 0.53493 0.07342 0.72045 0.0
C300 C 0.61174 0.16687 0.82533 0.0
C301 C 0.55802 0.10667 0.75261 0.0
N302 N 0.66021 0.20696 0.7583 0.0
N303 N 0.5 0.08186 0.81282 0.0
H304 H 0.54538 0.07103 0.68443 0.0
H305 H 0.50683 0.04652 0.73074 0.0
H306 H 0.48773 0.07909 0.84937 0.0
H307 H 0.47729 0.06348 0.7859 0.0
H308 H 0.67694 0.23323 0.78193 0.0
H309 H 0.66983 0.2133 0.72048 0.0
H310 H 0.67305 0.20719 0.85456 0.0
H311 H 0.63369 0.19058 0.90004 0.0
C312 C 0.38993 0.5196 0.9644 0.0
C313 C 0.37745 0.54226 0.99771 0.0
C314 C 0.39891 0.59874 0.93415 0.0
C315 C 0.4139 0.57744 0.90206 0.0
N316 N 0.42996 0.52128 0.88948 0.0
N317 N 0.37545 0.6062 1.01775 0.0
C318 C 0.41104 0.53878 0.91795 0.0
C319 C 0.38394 0.58283 0.98375 0.0
N320 N 0.38136 0.47964 0.97709 0.0
N321 N 0.39608 0.6325 0.91608 0.0
H322 H 0.36138 0.59468 0.05293 0.0
H323 H 0.38484 0.6381 1.01254 0.0
H324 H 0.40535 0.64474 0.8796 0.0
H325 H 0.38049 0.64587 0.93523 0.0
H326 H 0.38508 0.45939 0.95217 0.0
H327 H 0.36803 0.46556 1.01187 0.0
H328 H 0.43274 0.49546 0.9011 0.0
H329 H 0.44627 0.53489 0.85584 0.0
C330 C 0.85571 0.45354 0.15286 0.0
C331 C 0.81651 0.42059 0.17156 0.0
C332 C 0.77937 0.43073 0.10021 0.0
C333 C 0.8186 0.46351 0.08122 0.0
N334 N 0.89236 0.51228 0.09376 0.0
N335 N 0.74042 0.38369 0.1699 0.0
C336 C 0.85629 0.47682 0.10904 0.0
C337 C 0.77813 0.41097 0.14726 0.0
N338 N 0.89237 0.46155 0.17614 0.0
N339 N 0.74347 0.41718 0.07208 0.0
H340 H 0.73818 0.36805 0.20391 0.0
H341 H 0.71139 0.37888 0.15728 0.0
H342 H 0.74242 0.43238 0.03911 0.0
H343 H 0.71515 0.38959 0.07982 0.0
H344 H 0.9223 0.48209 0.16176 0.0
H345 H 0.89293 0.44553 0.20868 0.0
H346 H 0.92052 0.52605 0.11402 0.0
H347 H 0.89286 0.53028 0.06269 0.0
C348 C 0.37018 0.82127 0.26949 0.0
C349 C 0.39774 0.84661 0.23025 0.0
C350 C 0.45737 0.87336 0.28994 0.0
C351 C 0.42914 0.84894 0.32944 0.0
N352 N 0.35589 0.81614 0.35892 0.0
N353 N 0.46552 0.90573 0.20698 0.0
C354 C 0.38474 0.82859 0.32027 0.0
C355 C 0.44085 0.87543 0.24161 0.0
N356 N 0.33099 0.78791 0.2586 0.0
N357 N 0.49984 0.89519 0.29878 0.0
H358 H 0.45384 0.90942 0.17241 0.0
H359 H 0.49615 0.92991 0.21458 0.0
H360 H 0.51268 0.89845 0.33498 0.0
H361 H 0.52226 0.90902 0.27001 0.0
H362 H 0.31159 0.76638 0.28612 0.0
H363 H 0.31976 0.77834 0.2218 0.0
H364 H 0.32386 0.80461 0.35225 0.0
H365 H 0.36321 0.82148 0.39724 0.0
C366 C 0.53268 0.43188 0.40939 0.0
C367 C 0.50629 0.38727 0.40278 0.0
C368 C 0.52086 0.37542 0.4897 0.0
C369 C 0.54979 0.4198 0.49607 0.0
N370 N 0.57036 0.49074 0.46819 0.0
N371 N 0.45718 0.32374 0.44746 0.0
C372 C 0.55203 0.44833 0.45763 0.0
C373 C 0.49448 0.3612 0.44631 0.0
N374 N 0.5381 0.45854 0.37009 0.0
N375 N 0.51946 0.34598 0.523 0.0
H376 H 0.43446 0.31517 0.41913 0.0
H377 H 0.44606 0.30504 0.48 0.0
H378 H 0.53859 0.35305 0.55475 0.0
H379 H 0.50189 0.31345 0.51583 0.0
H380 H 0.56164 0.49033 0.36923 0.0
H381 H 0.51847 0.44856 0.33828 0.0
H382 H 0.57012 0.51282 0.44335 0.0
H383 H 0.58192 0.50343 0.50408 0.0
C384 C 0.95728 0.48843 0.35098 0.0
C385 C 0.93455 0.44347 0.34812 0.0
C386 C 0.00138 0.44319 0.35127 0.0
C387 C 0.02287 0.48717 0.36315 0.0
N388 N 0.01763 0.54881 0.38781 0.0
N389 N 0.93513 0.37735 0.35607 0.0
C390 C -0.0001 0.50915 0.36674 0.0
C391 C 0.95657 0.42049 0.35103 0.0
N392 N 0.93893 0.51164 0.33692 0.0
N393 N 0.02351 0.42328 0.33856 0.0
H394 H 0.90238 0.3594 0.3587 0.0
H395 H 0.95018 0.35994 0.36322 0.0
H396 H 0.05635 0.43922 0.33573 0.0
H397 H 0.00903 0.3921 0.32523 0.0
H398 H 0.95578 0.54467 0.33455 0.0
H399 H 0.90863 0.49796 0.32163 0.0
H400 H 0.0004 0.56412 0.39491 0.0
H401 H 0.04763 0.56418 0.40397 0.0
C402 C 0.52969 0.9575 0.57128 0.0
C403 C 0.51205 0.94335 0.52239 0.0
C404 C 0.54911 0.01646 0.49106 0.0
C405 C 0.56191 0.03114 0.54141 0.0
N406 N 0.56398 0.01593 0.63058 0.0
N407 N 0.50105 0.95887 0.43647 0.0
C408 C 0.55263 0.00177 0.5818 0.0
C409 C 0.52097 0.97265 0.48229 0.0
N410 N 0.52532 0.92856 0.6073 0.0
N411 N 0.56502 0.04436 0.45143 0.0
H412 H 0.48004 0.92705 0.42842 0.0
H413 H 0.50256 0.97923 0.40779 0.0
H414 H 0.58664 0.07655 0.45651 0.0
H415 H 0.56034 0.03504 0.41341 0.0
H416 H 0.54167 0.93668 0.64159 0.0
H417 H 0.50761 0.89587 0.60137 0.0
H418 H 0.55266 -0.00367 0.66229 0.0
H419 H 0.5832 0.04769 0.64013 0.0
C420 C 0.46666 0.49052 0.71597 0.0
C421 C 0.48709 0.53543 0.71287 0.0
C422 C 0.55456 0.53737 0.70055 0.0
C423 C 0.53283 0.49253 0.69455 0.0
N424 N 0.4655 0.42807 0.68292 0.0
N425 N 0.55019 0.60117 0.69104 0.0
C426 C 0.48809 0.46942 0.69851 0.0
C427 C 0.53105 0.5589 0.70216 0.0
N428 N 0.42743 0.46786 0.73723 0.0
N429 N 0.59739 0.55939 0.70649 0.0
H430 H 0.5339 0.61785 0.68875 0.0
H431 H 0.58136 0.61846 0.67848 0.0
H432 H 0.61557 0.54463 0.70854 0.0
H433 H 0.61404 0.59166 0.71534 0.0
H434 H 0.41306 0.43531 0.74386 0.0
H435 H 0.41168 0.48214 0.75398 0.0
H436 H 0.43261 0.41153 0.68137 0.0
H437 H 0.47917 0.412 0.66554 0.0
C438 C 0.01607 0.57595 0.91257 0.0
C439 C 0.02701 0.57945 0.86032 0.0
C440 C 0.95275 0.5506 0.83717 0.0
C441 C 0.94144 0.54023 0.88874 0.0
N442 N 0.96111 0.54176 0.97628 0.0
N443 N 0.00551 0.56702 0.77205 0.0
C444 C 0.97278 0.5531 0.92686 0.0
C445 C -0.00459 0.56671 0.82224 0.0
N446 N 0.04711 0.59499 0.94829 0.0
N447 N 0.92249 0.54472 0.80253 0.0
H448 H 0.03615 0.57789 0.75908 0.0
H449 H -0.01694 0.55331 0.74337 0.0
H450 H 0.89091 0.53279 0.81263 0.0
H451 H 0.92927 0.55542 0.76516 0.0
H452 H 0.04115 0.5969 0.98668 0.0
H453 H 0.07906 0.61242 0.93873 0.0
H454 H -0.01772 0.5458 1.00507 0.0
H455 H 0.92964 0.52602 0.98795 0.0
C456 C 0.51918 0.00988 1.02879 0.0
C457 C 0.49617 0.03184 1.02518 0.0
C458 C 0.43085 0.96355 1.0206 0.0
C459 C 0.45309 0.94223 0.03391 0.0
N460 N 0.51867 0.94879 0.06467 0.0
N461 N 0.42813 0.02793 0.03215 0.0
C462 C 0.4974 0.9663 0.04199 0.0
C463 C 0.45136 0.00826 1.02524 0.0
N464 N 0.56124 0.02954 1.01741 0.0
N465 N 0.39065 0.94153 1.00205 0.0
H466 H 0.44166 0.0602 0.04039 0.0
H467 H 0.39538 0.01112 0.03621 0.0
H468 H 0.3755 0.90905 0.99428 0.0
H469 H 0.37466 0.95653 0.98846 0.0
H470 H 0.57799 0.01323 1.01595 0.0
H471 H 0.57803 0.06028 1.00311 0.0
H472 H 0.5504 0.96676 0.07479 0.0
H473 H 0.50391 0.91806 0.0791 0.0
C474 C 0.38943 0.41313 0.18254 0.0
C475 C 0.41009 0.45801 0.17823 0.0
C476 C 0.47742 0.46247 0.19762 0.0
C477 C 0.45784 0.41751 0.19593 0.0
N478 N 0.39657 0.35084 0.17234 0.0
N479 N 0.47595 0.52311 0.16363 0.0
C480 C 0.41421 0.39298 0.1839 0.0
C481 C 0.4548 0.482 0.17999 0.0
N482 N 0.3466 0.38978 0.18801 0.0
N483 N 0.51631 0.48676 0.21907 0.0
H484 H 0.46078 0.53787 0.14693 0.0
H485 H 0.50878 0.54047 0.16082 0.0
H486 H 0.53274 0.47413 0.23746 0.0
H487 H 0.52969 0.51942 0.22443 0.0
H488 H 0.33086 0.35741 0.19608 0.0
H489 H 0.32726 0.40324 0.19 0.0
H490 H 0.3657 0.33266 0.15918 0.0
H491 H 0.41408 0.33537 0.17016 0.0
C492 C 0.19748 0.44435 0.31637 0.0
C493 C 0.1894 0.47904 0.31319 0.0
C494 C 0.21164 0.48656 0.22373 0.0
C495 C 0.23052 0.46156 0.23186 0.0
N496 N 0.24318 0.41729 0.28825 0.0
N497 N 0.20495 0.54207 0.26275 0.0
C498 C 0.22412 0.44066 0.27905 0.0
C499 C 0.20028 0.50244 0.26638 0.0
N500 N 0.17857 0.41384 0.35269 0.0
N501 N 0.20705 0.4977 0.17576 0.0
H502 H 0.20713 0.5608 0.29371 0.0
H503 H 0.21491 0.5598 0.22935 0.0
H504 H 0.21529 0.48676 0.14341 0.0
H505 H 0.19074 0.5139 0.1685 0.0
H506 H 0.18211 0.38711 0.35406 0.0
H507 H 0.15469 0.41166 0.37635 0.0
H508 H 0.24297 0.40485 0.32396 0.0
H509 H 0.26097 0.41248 0.26057 0.0
C510 C 0.73001 0.22613 0.39093 0.0
C511 C 0.76861 0.26464 0.39905 0.0
C512 C 0.76169 0.25146 0.49095 0.0
C513 C 0.72358 0.21247 0.48284 0.0
N514 N 0.6802 0.15663 0.424 0.0
N515 N 0.82772 0.30533 0.45447 0.0
C516 C 0.71073 0.19779 0.43237 0.0
C517 C 0.78667 0.27416 0.44835 0.0
N518 N 0.70983 0.21768 0.34513 0.0
N519 N 0.77264 0.26892 0.53847 0.0
H520 H 0.84697 0.32191 0.42373 0.0
H521 H 0.84369 0.31122 0.48894 0.0
H522 H 0.75466 0.25513 0.57089 0.0
H523 H 0.79768 0.29948 0.54497 0.0
H524 H 0.67924 0.19259 0.33969 0.0
H525 H 0.7218 0.23736 0.31362 0.0
H526 H 0.6721 0.14318 0.3878 0.0
H527 H 0.66651 0.13476 0.45348 0.0
C528 C 0.48783 0.7469 0.6575 0.0
C529 C 0.48302 0.706 0.64899 0.0
C530 C 0.48649 0.71823 0.55671 0.0
C531 C 0.49287 0.75966 0.56556 0.0
N532 N 0.51449 0.8178 0.62424 0.0
N533 N 0.49203 0.65941 0.59097 0.0
C534 C 0.49868 0.77541 0.61603 0.0
C535 C 0.48699 0.69383 0.59869 0.0
N536 N 0.47891 0.75771 0.70388 0.0
N537 N 0.47726 0.70083 0.50909 0.0
H538 H 0.49433 0.64189 0.62084 0.0
H539 H 0.49877 0.65135 0.55544 0.0
H540 H 0.47612 0.717 0.47714 0.0
H541 H 0.46743 0.66899 0.50204 0.0
H542 H 0.47795 0.78558 0.71002 0.0
H543 H 0.46791 0.73722 0.73481 0.0
H544 H 0.5226 0.8317 0.66022 0.0
H545 H 0.52405 0.83946 0.59435 0.0
C546 C 0.75883 0.53247 0.79314 0.0
C547 C 0.76256 0.49596 0.80374 0.0
C548 C 0.72579 0.46479 0.72306 0.0
C549 C 0.71394 0.4962 0.7196 0.0
N550 N 0.71781 0.55991 0.75222 0.0
N551 N 0.74305 0.42347 0.77839 0.0
C552 C 0.7303 0.53027 0.7547 0.0
C553 C 0.74491 0.46126 0.76826 0.0
N554 N 0.78377 0.56978 0.81813 0.0
N555 N 0.7184 0.4379 0.68297 0.0
H556 H 0.75502 0.4169 0.81052 0.0
H557 H 0.72532 0.39625 0.75657 0.0
H558 H 0.70503 0.44025 0.64903 0.0
H559 H 0.72996 0.41686 0.6812 0.0
H560 H 0.78456 0.59806 0.80915 0.0
H561 H 0.80744 0.57371 0.84329 0.0
H562 H 0.72487 0.58279 0.78033 0.0
H563 H 0.69827 0.55987 0.72336 0.0
C564 C 0.28682 0.7421 0.93767 0.0
C565 C 0.28211 0.77273 0.96711 0.0
C566 C 0.21842 0.75574 0.91748 0.0
C567 C 0.22515 0.72743 0.88697 0.0
N568 N 0.27419 0.70628 0.85667 0.0
N569 N 0.25018 0.81712 0.97324 0.0
C570 C 0.26213 0.72482 0.89341 0.0
C571 C 0.24982 0.78207 0.9536 0.0
N572 N 0.31256 0.72691 0.95286 0.0
N573 N 0.18175 0.75679 0.91297 0.0
H574 H 0.27425 0.83891 0.9967 0.0
H575 H 0.22945 0.82724 0.96144 0.0
H576 H 0.15871 0.73862 0.88613 0.0
H577 H 0.17307 0.7734 0.93809 0.0
H578 H 0.31251 0.70111 0.93524 0.0
H579 H 0.33045 0.73597 0.98581 0.0
H580 H 0.3031 0.70705 0.85726 0.0
H581 H 0.2577 0.69482 0.82268 0.0
C582 C 0.47845 0.21294 0.16891 0.0
C583 C 0.47499 0.24932 0.15778 0.0
C584 C 0.48177 0.23896 0.06664 0.0
C585 C 0.48357 0.20159 0.07757 0.0
N586 N 0.47113 0.1467 0.13767 0.0
N587 N 0.46061 0.28899 0.09575 0.0
C588 C 0.47772 0.1865 0.12832 0.0
C589 C 0.47234 0.25957 0.10646 0.0
N590 N 0.4854 0.20503 0.21762 0.0
N591 N 0.49215 0.25684 1.0194 0.0
H592 H 0.45278 0.30412 0.12406 0.0
H593 H 0.45428 0.29489 0.05902 0.0
H594 H 0.50088 0.24418 0.98924 0.0
H595 H 0.49599 0.28662 1.0114 0.0
H596 H 0.49306 0.18182 0.22673 0.0
H597 H 0.48724 0.22389 0.24854 0.0
H598 H 0.46287 0.1325 0.17335 0.0
H599 H 0.46944 0.12621 0.10864 0.0
loop_
_geom_bond_atom_site_label_1
_geom_bond_atom_site_label_2
_geom_bond_distance
_geom_bond_site_symmetry_2
_ccdc_geom_bond_type
C0 O2 1.247 . S
C0 O4 1.258 . S
C1 O8 1.247 . S
C1 O9 1.258 . S
O2 C0 1.247 . S
O2 Zn3 2.028 . S
Zn3 O2 2.028 . S
Zn3 O7 2.035 . S
Zn3 O9 2.035 . S
Zn3 O10 2.028 . S
O4 C0 1.258 . S
O4 Zn5 2.035 . S
Zn5 O4 2.035 . S
Zn5 O6 2.028 . S
Zn5 O8 2.028 . S
Zn5 O11 2.035 . S
O6 Zn5 2.028 . S
O6 C12 1.247 . S
O7 Zn3 2.035 . S
O7 C12 1.258 . S
O8 C1 1.247 . S
O8 Zn5 2.028 . S
O9 C1 1.258 . S
O9 Zn3 2.035 . S
O10 Zn3 2.028 . S
O10 C13 1.247 . S
O11 Zn5 2.035 . S
O11 C13 1.258 . S
C12 O6 1.247 . S
C12 O7 1.258 . S
C13 O10 1.247 . S
C13 O11 1.258 . S
C14 O16 1.247 . S
C14 O18 1.258 . S
C15 O22 1.247 . S
C15 O23 1.258 . S
O16 C14 1.247 . S
O16 Zn17 2.028 . S
Zn17 O16 2.028 . S
Zn17 O21 2.035 . S
Zn17 O23 2.035 . S
Zn17 O24 2.028 . S
O18 C14 1.258 . S
O18 Zn19 2.035 . S
Zn19 O18 2.035 . S
Zn19 O20 2.028 . S
Zn19 O22 2.028 . S
Zn19 O25 2.035 . S
O20 Zn19 2.028 . S
O20 C26 1.247 . S
O21 Zn17 2.035 . S
O21 C26 1.258 . S
O22 C15 1.247 . S
O22 Zn19 2.028 . S
O23 C15 1.258 . S
O23 Zn17 2.035 . S
O24 Zn17 2.028 . S
O24 C27 1.247 . S
O25 Zn19 2.035 . S
O25 C27 1.258 . S
C26 O20 1.247 . S
C26 O21 1.258 . S
C27 O24 1.247 . S
C27 O25 1.258 . S
C28 O30 1.247 . S
C28 O32 1.258 . S
C29 O36 1.247 . S
C29 O37 1.258 . S
O30 C28 1.247 . S
O30 Zn31 2.028 . S
Zn31 O30 2.028 . S
Zn31 O35 2.035 . S
Zn31 O37 2.035 . S
Zn31 O38 2.028 . S
O32 C28 1.258 . S
O32 Zn33 2.035 . S
Zn33 O32 2.035 . S
Zn33 O34 2.028 . S
Zn33 O36 2.028 . S
Zn33 O39 2.035 . S
O34 Zn33 2.028 . S
O34 C40 1.247 . S
O35 Zn31 2.035 . S
O35 C40 1.258 . S
O36 C29 1.247 . S
O36 Zn33 2.028 . S
O37 C29 1.258 . S
O37 Zn31 2.035 . S
O38 Zn31 2.028 . S
O38 C41 1.247 . S
O39 Zn33 2.035 . S
O39 C41 1.258 . S
C40 O34 1.247 . S
C40 O35 1.258 . S
C41 O38 1.247 . S
C41 O39 1.258 . S
C42 O44 1.247 . S
C42 O46 1.258 . S
C43 O50 1.247 . S
C43 O51 1.258 . S
O44 C42 1.247 . S
O44 Zn45 2.028 . S
Zn45 O44 2.028 . S
Zn45 O49 2.035 . S
Zn45 O51 2.035 . S
Zn45 O52 2.028 . S
O46 C42 1.258 . S
O46 Zn47 2.035 . S
Zn47 O46 2.035 . S
Zn47 O48 2.028 . S
Zn47 O50 2.028 . S
Zn47 O53 2.035 . S
O48 Zn47 2.028 . S
O48 C54 1.247 . S
O49 Zn45 2.035 . S
O49 C54 1.258 . S
O50 C43 1.247 . S
O50 Zn47 2.028 . S
O51 C43 1.258 . S
O51 Zn45 2.035 . S
O52 Zn45 2.028 . S
O52 C55 1.247 . S
O53 Zn47 2.035 . S
O53 C55 1.258 . S
C54 O48 1.247 . S
C54 O49 1.258 . S
C55 O52 1.247 . S
C55 O53 1.258 . S
C56 O58 1.247 . S
C56 O60 1.258 . S
C57 O64 1.247 . S
C57 O65 1.258 . S
O58 C56 1.247 . S
O58 Zn59 2.028 . S
Zn59 O58 2.028 . S
Zn59 O63 2.035 . S
Zn59 O65 2.035 . S
Zn59 O66 2.028 . S
O60 C56 1.258 . S
O60 Zn61 2.035 . S
Zn61 O60 2.035 . S
Zn61 O62 2.028 1_554 S
Zn61 O64 2.028 . S
Zn61 O67 2.035 . S
O62 Zn61 2.028 1_556 S
O62 C68 1.247 . S
O63 Zn59 2.035 . S
O63 C68 1.258 1_554 S
O64 C57 1.247 . S
O64 Zn61 2.028 . S
O65 C57 1.258 . S
O65 Zn59 2.035 . S
O66 Zn59 2.028 . S
O66 C69 1.247 . S
O67 Zn61 2.035 . S
O67 C69 1.258 . S
C68 O62 1.247 . S
C68 O63 1.258 1_556 S
C69 O66 1.247 . S
C69 O67 1.258 . S
C70 O72 1.247 . S
C70 O74 1.258 . S
C71 O78 1.247 . S
C71 O79 1.258 . S
O72 C70 1.247 . S
O72 Zn73 2.028 . S
Zn73 O72 2.028 . S
Zn73 O77 2.035 . S
Zn73 O79 2.035 . S
Zn73 O80 2.028 . S
O74 C70 1.258 . S
O74 Zn75 2.035 . S
Zn75 O74 2.035 . S
Zn75 O76 2.028 . S
Zn75 O78 2.028 . S
Zn75 O81 2.035 . S
O76 Zn75 2.028 . S
O76 C82 1.247 . S
O77 Zn73 2.035 . S
O77 C82 1.258 . S
O78 C71 1.247 . S
O78 Zn75 2.028 . S
O79 C71 1.258 . S
O79 Zn73 2.035 . S
O80 Zn73 2.028 . S
O80 C83 1.247 . S
O81 Zn75 2.035 . S
O81 C83 1.258 . S
C82 O76 1.247 . S
C82 O77 1.258 . S
C83 O80 1.247 . S
C83 O81 1.258 . S
C84 O86 1.247 . S
C84 O88 1.258 . S
C85 O92 1.247 . S
C85 O93 1.258 . S
O86 C84 1.247 . S
O86 Zn87 2.028 . S
Zn87 O86 2.028 . S
Zn87 O91 2.035 . S
Zn87 O93 2.035 . S
Zn87 O94 2.028 . S
O88 C84 1.258 . S
O88 Zn89 2.035 . S
Zn89 O88 2.035 . S
Zn89 O90 2.028 . S
Zn89 O92 2.028 . S
Zn89 O95 2.035 . S
O90 Zn89 2.028 . S
O90 C96 1.247 . S
O91 Zn87 2.035 . S
O91 C96 1.258 . S
O92 C85 1.247 . S
O92 Zn89 2.028 . S
O93 C85 1.258 . S
O93 Zn87 2.035 . S
O94 Zn87 2.028 . S
O94 C97 1.247 . S
O95 Zn89 2.035 . S
O95 C97 1.258 . S
C96 O90 1.247 . S
C96 O91 1.258 . S
C97 O94 1.247 . S
C97 O95 1.258 . S
C98 O100 1.247 . S
C98 O102 1.258 . S
C99 O106 1.247 . S
C99 O107 1.258 . S
O100 C98 1.247 . S
O100 Zn101 2.028 . S
Zn101 O100 2.028 . S
Zn101 O105 2.035 . S
Zn101 O107 2.035 . S
Zn101 O108 2.028 . S
O102 C98 1.258 . S
O102 Zn103 2.035 . S
Zn103 O102 2.035 . S
Zn103 O104 2.028 . S
Zn103 O106 2.028 . S
Zn103 O109 2.035 . S
O104 Zn103 2.028 . S
O104 C110 1.247 . S
O105 Zn101 2.035 . S
O105 C110 1.258 . S
O106 C99 1.247 . S
O106 Zn103 2.028 . S
O107 C99 1.258 . S
O107 Zn101 2.035 . S
O108 Zn101 2.028 . S
O108 C111 1.247 . S
O109 Zn103 2.035 . S
O109 C111 1.258 . S
C110 O104 1.247 . S
C110 O105 1.258 . S
C111 O108 1.247 . S
C111 O109 1.258 . S
C112 O114 1.247 . S
C112 O116 1.258 . S
C113 O120 1.247 . S
C113 O121 1.258 . S
O114 C112 1.247 . S
O114 Zn115 2.028 . S
Zn115 O114 2.028 . S
Zn115 O119 2.035 . S
Zn115 O121 2.035 . S
Zn115 O122 2.028 . S
O116 C112 1.258 . S
O116 Zn117 2.035 . S
Zn117 O116 2.035 . S
Zn117 O118 2.028 . S
Zn117 O120 2.028 . S
Zn117 O123 2.035 . S
O118 Zn117 2.028 . S
O118 C124 1.247 . S
O119 Zn115 2.035 . S
O119 C124 1.258 . S
O120 C113 1.247 . S
O120 Zn117 2.028 . S
O121 C113 1.258 . S
O121 Zn115 2.035 . S
O122 Zn115 2.028 . S
O122 C125 1.247 . S
O123 Zn117 2.035 . S
O123 C125 1.258 . S
C124 O118 1.247 . S
C124 O119 1.258 . S
C125 O122 1.247 . S
C125 O123 1.258 . S
C126 O128 1.247 . S
C126 O130 1.258 . S
C127 O134 1.247 . S
C127 O135 1.258 . S
O128 C126 1.247 . S
O128 Zn129 2.028 . S
Zn129 O128 2.028 . S
Zn129 O133 2.035 . S
Zn129 O135 2.035 . S
Zn129 O136 2.028 . S
O130 C126 1.258 . S
O130 Zn131 2.035 . S
Zn131 O130 2.035 . S
Zn131 O132 2.028 1_556 S
Zn131 O134 2.028 . S
Zn131 O137 2.035 . S
O132 Zn131 2.028 1_554 S
O132 C138 1.247 . S
O133 Zn129 2.035 . S
O133 C138 1.258 1_556 S
O134 C127 1.247 . S
O134 Zn131 2.028 . S
O135 C127 1.258 . S
O135 Zn129 2.035 . S
O136 Zn129 2.028 . S
O136 C139 1.247 . S
O137 Zn131 2.035 . S
O137 C139 1.258 . S
C138 O132 1.247 . S
C138 O133 1.258 1_554 S
C139 O136 1.247 . S
C139 O137 1.258 . S
C140 O142 1.247 . S
C140 O144 1.258 . S
C141 O148 1.247 . S
C141 O149 1.258 . S
O142 C140 1.247 . S
O142 Zn143 2.028 . S
Zn143 O142 2.028 . S
Zn143 O147 2.035 . S
Zn143 O149 2.035 . S
Zn143 O150 2.028 . S
O144 C140 1.258 . S
O144 Zn145 2.035 . S
Zn145 O144 2.035 . S
Zn145 O146 2.028 . S
Zn145 O148 2.028 . S
Zn145 O151 2.035 . S
O146 Zn145 2.028 . S
O146 C152 1.247 . S
O147 Zn143 2.035 . S
O147 C152 1.258 . S
O148 C141 1.247 . S
O148 Zn145 2.028 . S
O149 C141 1.258 . S
O149 Zn143 2.035 . S
O150 Zn143 2.028 . S
O150 C153 1.247 . S
O151 Zn145 2.035 . S
O151 C153 1.258 . S
C152 O146 1.247 . S
C152 O147 1.258 . S
C153 O150 1.247 . S
C153 O151 1.258 . S
C154 O156 1.247 . S
C154 O158 1.258 . S
C155 O162 1.247 . S
C155 O163 1.258 . S
O156 C154 1.247 . S
O156 Zn157 2.028 . S
Zn157 O156 2.028 . S
Zn157 O161 2.035 . S
Zn157 O163 2.035 . S
Zn157 O164 2.028 . S
O158 C154 1.258 . S
O158 Zn159 2.035 . S
Zn159 O158 2.035 . S
Zn159 O160 2.028 . S
Zn159 O162 2.028 . S
Zn159 O165 2.035 . S
O160 Zn159 2.028 . S
O160 C166 1.247 . S
O161 Zn157 2.035 . S
O161 C166 1.258 . S
O162 C155 1.247 . S
O162 Zn159 2.028 . S
O163 C155 1.258 . S
O163 Zn157 2.035 . S
O164 Zn157 2.028 . S
O164 C167 1.247 . S
O165 Zn159 2.035 . S
O165 C167 1.258 . S
C166 O160 1.247 . S
C166 O161 1.258 . S
C167 O164 1.247 . S
C167 O165 1.258 . S
C168 C169 1.363 . S
C168 C174 1.379 . S
C168 N176 1.356 . S
C169 C168 1.363 . S
C169 C175 1.363 . S
C170 C171 1.363 . S
C170 C175 1.379 . S
C170 N177 1.356 . S
C171 C170 1.363 . S
C171 C174 1.363 . S
N172 C174 1.356 . S
N172 H184 0.984 . S
N172 H185 0.985 . S
N173 C175 1.356 . S
N173 H178 0.984 . S
N173 H179 0.985 . S
C174 C168 1.379 . S
C174 C171 1.363 . S
C174 N172 1.356 . S
C175 C169 1.363 . S
C175 C170 1.379 . S
C175 N173 1.356 . S
N176 C168 1.356 . S
N176 H182 0.984 . S
N176 H183 0.984 . S
N177 C170 1.356 . S
N177 H180 0.984 . S
N177 H181 0.985 . S
H178 N173 0.984 . S
H179 N173 0.985 . S
H180 N177 0.984 . S
H181 N177 0.985 . S
H182 N176 0.984 . S
H183 N176 0.984 . S
H184 N172 0.984 . S
H185 N172 0.985 . S
C186 C187 1.363 . S
C186 C192 1.379 . S
C186 N194 1.356 . S
C187 C186 1.363 . S
C187 C193 1.363 . S
C188 C189 1.363 . S
C188 C193 1.379 . S
C188 N195 1.356 . S
C189 C188 1.363 . S
C189 C192 1.363 . S
N190 C192 1.356 . S
N190 H202 0.984 . S
N190 H203 0.985 . S
N191 C193 1.356 . S
N191 H196 0.984 . S
N191 H197 0.985 . S
C192 C186 1.379 . S
C192 C189 1.363 . S
C192 N190 1.356 . S
C193 C187 1.363 . S
C193 C188 1.379 . S
C193 N191 1.356 . S
N194 C186 1.356 . S
N194 H200 0.984 . S
N194 H201 0.984 . S
N195 C188 1.356 . S
N195 H198 0.984 . S
N195 H199 0.985 . S
H196 N191 0.984 . S
H197 N191 0.985 . S
H198 N195 0.984 . S
H199 N195 0.985 . S
H200 N194 0.984 . S
H201 N194 0.984 . S
H202 N190 0.984 . S
H203 N190 0.985 . S
C204 C205 1.363 . S
C204 C210 1.379 . S
C204 N212 1.356 . S
C205 C204 1.363 . S
C205 C211 1.363 . S
C206 C207 1.363 . S
C206 C211 1.379 . S
C206 N213 1.356 . S
C207 C206 1.363 . S
C207 C210 1.363 . S
N208 C210 1.356 . S
N208 H220 0.984 . S
N208 H221 0.985 . S
N209 C211 1.356 . S
N209 H214 0.984 . S
N209 H215 0.985 . S
C210 C204 1.379 . S
C210 C207 1.363 . S
C210 N208 1.356 . S
C211 C205 1.363 . S
C211 C206 1.379 . S
C211 N209 1.356 . S
N212 C204 1.356 . S
N212 H218 0.984 . S
N212 H219 0.984 . S
N213 C206 1.356 . S
N213 H216 0.984 . S
N213 H217 0.985 . S
H214 N209 0.984 . S
H215 N209 0.985 . S
H216 N213 0.984 . S
H217 N213 0.985 . S
H218 N212 0.984 . S
H219 N212 0.984 . S
H220 N208 0.984 . S
H221 N208 0.985 . S
C222 C223 1.363 . S
C222 C228 1.379 . S
C222 N230 1.356 . S
C223 C222 1.363 . S
C223 C229 1.363 . S
C224 C225 1.363 . S
C224 C229 1.379 . S
C224 N231 1.356 . S
C225 C224 1.363 . S
C225 C228 1.363 . S
N226 C228 1.356 . S
N226 H238 0.984 . S
N226 H239 0.985 . S
N227 C229 1.356 . S
N227 H232 0.984 . S
N227 H233 0.985 1_556 S
C228 C222 1.379 . S
C228 C225 1.363 . S
C228 N226 1.356 . S
C229 C223 1.363 . S
C229 C224 1.379 . S
C229 N227 1.356 . S
N230 C222 1.356 . S
N230 H236 0.984 . S
N230 H237 0.984 . S
N231 C224 1.356 . S
N231 H234 0.984 . S
N231 H235 0.985 1_556 S
H232 N227 0.984 . S
H233 N227 0.985 1_554 S
H234 N231 0.984 . S
H235 N231 0.985 1_554 S
H236 N230 0.984 . S
H237 N230 0.984 . S
H238 N226 0.984 . S
H239 N226 0.985 . S
C240 C241 1.363 . S
C240 C246 1.379 . S
C240 N248 1.356 . S
C241 C240 1.363 . S
C241 C247 1.363 . S
C242 C243 1.363 . S
C242 C247 1.379 . S
C242 N249 1.356 . S
C243 C242 1.363 . S
C243 C246 1.363 . S
N244 C246 1.356 . S
N244 H256 0.984 . S
N244 H257 0.985 . S
N245 C247 1.356 . S
N245 H250 0.984 . S
N245 H251 0.985 1_554 S
C246 C240 1.379 . S
C246 C243 1.363 . S
C246 N244 1.356 . S
C247 C241 1.363 . S
C247 C242 1.379 . S
C247 N245 1.356 . S
N248 C240 1.356 . S
N248 H254 0.984 . S
N248 H255 0.984 . S
N249 C242 1.356 . S
N249 H252 0.984 . S
N249 H253 0.985 1_554 S
H250 N245 0.984 . S
H251 N245 0.985 1_556 S
H252 N249 0.984 . S
H253 N249 0.985 1_556 S
H254 N248 0.984 . S
H255 N248 0.984 . S
H256 N244 0.984 . S
H257 N244 0.985 . S
C258 C259 1.363 . S
C258 C264 1.379 . S
C258 N266 1.356 . S
C259 C258 1.363 . S
C259 C265 1.363 . S
C260 C261 1.363 . S
C260 C265 1.379 . S
C260 N267 1.356 . S
C261 C260 1.363 . S
C261 C264 1.363 . S
N262 C264 1.356 . S
N262 H274 0.984 . S
N262 H275 0.985 . S
N263 C265 1.356 . S
N263 H268 0.984 . S
N263 H269 0.985 . S
C264 C258 1.379 . S
C264 C261 1.363 . S
C264 N262 1.356 . S
C265 C259 1.363 . S
C265 C260 1.379 . S
C265 N263 1.356 . S
N266 C258 1.356 . S
N266 H272 0.984 . S
N266 H273 0.984 . S
N267 C260 1.356 . S
N267 H270 0.984 . S
N267 H271 0.985 . S
H268 N263 0.984 . S
H269 N263 0.985 . S
H270 N267 0.984 . S
H271 N267 0.985 . S
H272 N266 0.984 . S
H273 N266 0.984 . S
H274 N262 0.984 . S
H275 N262 0.985 . S
C276 C277 1.363 . S
C276 C282 1.379 . S
C276 N284 1.356 . S
C277 C276 1.363 . S
C277 C283 1.363 . S
C278 C279 1.363 . S
C278 C283 1.379 . S
C278 N285 1.356 . S
C279 C278 1.363 . S
C279 C282 1.363 . S
N280 C282 1.356 . S
N280 H292 0.984 . S
N280 H293 0.985 . S
N281 C283 1.356 . S
N281 H286 0.984 . S
N281 H287 0.985 . S
C282 C276 1.379 . S
C282 C279 1.363 . S
C282 N280 1.356 . S
C283 C277 1.363 . S
C283 C278 1.379 . S
C283 N281 1.356 . S
N284 C276 1.356 . S
N284 H290 0.984 . S
N284 H291 0.984 . S
N285 C278 1.356 . S
N285 H288 0.984 . S
N285 H289 0.985 . S
H286 N281 0.984 . S
H287 N281 0.985 . S
H288 N285 0.984 . S
H289 N285 0.985 . S
H290 N284 0.984 . S
H291 N284 0.984 . S
H292 N280 0.984 . S
H293 N280 0.985 . S
C294 C295 1.363 . S
C294 C300 1.379 . S
C294 N302 1.356 . S
C295 C294 1.363 . S
C295 C301 1.363 . S
C296 C297 1.363 . S
C296 C301 1.379 . S
C296 N303 1.356 . S
C297 C296 1.363 . S
C297 C300 1.363 . S
N298 C300 1.356 . S
N298 H310 0.984 . S
N298 H311 0.985 . S
N299 C301 1.356 . S
N299 H304 0.984 . S
N299 H305 0.985 . S
C300 C294 1.379 . S
C300 C297 1.363 . S
C300 N298 1.356 . S
C301 C295 1.363 . S
C301 C296 1.379 . S
C301 N299 1.356 . S
N302 C294 1.356 . S
N302 H308 0.984 . S
N302 H309 0.984 . S
N303 C296 1.356 . S
N303 H306 0.984 . S
N303 H307 0.985 . S
H304 N299 0.984 . S
H305 N299 0.985 . S
H306 N303 0.984 . S
H307 N303 0.985 . S
H308 N302 0.984 . S
H309 N302 0.984 . S
H310 N298 0.984 . S
H311 N298 0.985 . S
C312 C313 1.363 . S
C312 C318 1.379 . S
C312 N320 1.356 . S
C313 C312 1.363 . S
C313 C319 1.363 . S
C314 C315 1.363 . S
C314 C319 1.379 . S
C314 N321 1.356 . S
C315 C314 1.363 . S
C315 C318 1.363 . S
N316 C318 1.356 . S
N316 H328 0.984 . S
N316 H329 0.985 . S
N317 C319 1.356 . S
N317 H322 0.984 1_556 S
N317 H323 0.985 . S
C318 C312 1.379 . S
C318 C315 1.363 . S
C318 N316 1.356 . S
C319 C313 1.363 . S
C319 C314 1.379 . S
C319 N317 1.356 . S
N320 C312 1.356 . S
N320 H326 0.984 . S
N320 H327 0.984 . S
N321 C314 1.356 . S
N321 H324 0.984 . S
N321 H325 0.985 . S
H322 N317 0.984 1_554 S
H323 N317 0.985 . S
H324 N321 0.984 . S
H325 N321 0.985 . S
H326 N320 0.984 . S
H327 N320 0.984 . S
H328 N316 0.984 . S
H329 N316 0.985 . S
C330 C331 1.363 . S
C330 C336 1.379 . S
C330 N338 1.356 . S
C331 C330 1.363 . S
C331 C337 1.363 . S
C332 C333 1.363 . S
C332 C337 1.379 . S
C332 N339 1.356 . S
C333 C332 1.363 . S
C333 C336 1.363 . S
N334 C336 1.358 1_556 S
N334 H346 0.984 . S
N334 H347 0.983 . S
N335 C337 1.356 . S
N335 H340 0.984 . S
N335 H341 0.985 . S
C336 C330 1.379 . S
C336 C333 1.363 . S
C336 N334 1.358 1_554 S
C337 C331 1.363 . S
C337 C332 1.379 . S
C337 N335 1.356 . S
N338 C330 1.356 . S
N338 H344 0.984 . S
N338 H345 0.984 . S
N339 C332 1.356 . S
N339 H342 0.984 . S
N339 H343 0.985 . S
H340 N335 0.984 . S
H341 N335 0.985 . S
H342 N339 0.984 . S
H343 N339 0.985 . S
H344 N338 0.984 . S
H345 N338 0.984 . S
H346 N334 0.984 . S
H347 N334 0.983 . S
C348 C349 1.363 . S
C348 C354 1.379 . S
C348 N356 1.356 . S
C349 C348 1.363 . S
C349 C355 1.363 . S
C350 C351 1.363 . S
C350 C355 1.379 . S
C350 N357 1.356 . S
C351 C350 1.363 . S
C351 C354 1.363 . S
N352 C354 1.356 . S
N352 H364 0.984 . S
N352 H365 0.985 . S
N353 C355 1.356 . S
N353 H358 0.984 . S
N353 H359 0.985 . S
C354 C348 1.379 . S
C354 C351 1.363 . S
C354 N352 1.356 . S
C355 C349 1.363 . S
C355 C350 1.379 . S
C355 N353 1.356 . S
N356 C348 1.356 . S
N356 H362 0.984 . S
N356 H363 0.984 . S
N357 C350 1.356 . S
N357 H360 0.984 . S
N357 H361 0.985 . S
H358 N353 0.984 . S
H359 N353 0.985 . S
H360 N357 0.984 . S
H361 N357 0.985 . S
H362 N356 0.984 . S
H363 N356 0.984 . S
H364 N352 0.984 . S
H365 N352 0.985 . S
C366 C367 1.363 . S
C366 C372 1.379 . S
C366 N374 1.356 . S
C367 C366 1.363 . S
C367 C373 1.363 . S
C368 C369 1.363 . S
C368 C373 1.379 . S
C368 N375 1.356 . S
C369 C368 1.363 . S
C369 C372 1.363 . S
N370 C372 1.356 . S
N370 H382 0.984 . S
N370 H383 0.985 . S
N371 C373 1.356 . S
N371 H376 0.984 . S
N371 H377 0.985 . S
C372 C366 1.379 . S
C372 C369 1.363 . S
C372 N370 1.356 . S
C373 C367 1.363 . S
C373 C368 1.379 . S
C373 N371 1.356 . S
N374 C366 1.356 . S
N374 H380 0.984 . S
N374 H381 0.984 . S
N375 C368 1.356 . S
N375 H378 0.984 . S
N375 H379 0.985 . S
H376 N371 0.984 . S
H377 N371 0.985 . S
H378 N375 0.984 . S
H379 N375 0.985 . S
H380 N374 0.984 . S
H381 N374 0.984 . S
H382 N370 0.984 . S
H383 N370 0.985 . S
C384 C385 1.363 . S
C384 C390 1.379 1_655 S
C384 N392 1.356 . S
C385 C384 1.363 . S
C385 C391 1.363 . S
C386 C387 1.363 . S
C386 C391 1.379 1_455 S
C386 N393 1.356 . S
C387 C386 1.363 . S
C387 C390 1.363 . S
N388 C390 1.356 . S
N388 H400 0.984 . S
N388 H401 0.985 . S
N389 C391 1.356 . S
N389 H394 0.984 . S
N389 H395 0.985 . S
C390 C384 1.379 1_455 S
C390 C387 1.363 . S
C390 N388 1.356 . S
C391 C385 1.363 . S
C391 C386 1.379 1_655 S
C391 N389 1.356 . S
N392 C384 1.356 . S
N392 H398 0.984 . S
N392 H399 0.984 . S
N393 C386 1.356 . S
N393 H396 0.984 . S
N393 H397 0.985 . S
H394 N389 0.984 . S
H395 N389 0.985 . S
H396 N393 0.984 . S
H397 N393 0.985 . S
H398 N392 0.984 . S
H399 N392 0.984 . S
H400 N388 0.984 . S
H401 N388 0.985 . S
C402 C403 1.363 . S
C402 C408 1.379 . S
C402 N410 1.356 . S
C403 C402 1.363 . S
C403 C409 1.363 1_565 S
C404 C405 1.363 . S
C404 C409 1.379 . S
C404 N411 1.356 . S
C405 C404 1.363 . S
C405 C408 1.363 1_545 S
N406 C408 1.356 1_545 S
N406 H418 0.984 1_545 S
N406 H419 0.985 . S
N407 C409 1.356 1_565 S
N407 H412 0.984 . S
N407 H413 0.985 1_565 S
C408 C402 1.379 . S
C408 C405 1.363 1_565 S
C408 N406 1.356 1_565 S
C409 C403 1.363 1_545 S
C409 C404 1.379 . S
C409 N407 1.356 1_545 S
N410 C402 1.356 . S
N410 H416 0.984 . S
N410 H417 0.984 . S
N411 C404 1.356 . S
N411 H414 0.984 . S
N411 H415 0.985 . S
H412 N407 0.984 . S
H413 N407 0.985 1_545 S
H414 N411 0.984 . S
H415 N411 0.985 . S
H416 N410 0.984 . S
H417 N410 0.984 . S
H418 N406 0.984 1_565 S
H419 N406 0.985 . S
C420 C421 1.363 . S
C420 C426 1.379 . S
C420 N428 1.356 . S
C421 C420 1.363 . S
C421 C427 1.363 . S
C422 C423 1.363 . S
C422 C427 1.379 . S
C422 N429 1.356 . S
C423 C422 1.363 . S
C423 C426 1.363 . S
N424 C426 1.356 . S
N424 H436 0.984 . S
N424 H437 0.985 . S
N425 C427 1.356 . S
N425 H430 0.984 . S
N425 H431 0.985 . S
C426 C420 1.379 . S
C426 C423 1.363 . S
C426 N424 1.356 . S
C427 C421 1.363 . S
C427 C422 1.379 . S
C427 N425 1.356 . S
N428 C420 1.356 . S
N428 H434 0.984 . S
N428 H435 0.984 . S
N429 C422 1.356 . S
N429 H432 0.984 . S
N429 H433 0.985 . S
H430 N425 0.984 . S
H431 N425 0.985 . S
H432 N429 0.984 . S
H433 N429 0.985 . S
H434 N428 0.984 . S
H435 N428 0.984 . S
H436 N424 0.984 . S
H437 N424 0.985 . S
C438 C439 1.363 . S
C438 C444 1.379 1_455 S
C438 N446 1.356 . S
C439 C438 1.363 . S
C439 C445 1.363 . S
C440 C441 1.363 . S
C440 C445 1.379 1_655 S
C440 N447 1.356 . S
C441 C440 1.363 . S
C441 C444 1.363 . S
N442 C444 1.356 . S
N442 H454 0.981 1_655 S
N442 H455 0.985 . S
N443 C445 1.356 . S
N443 H448 0.984 . S
N443 H449 0.981 1_455 S
C444 C438 1.379 1_655 S
C444 C441 1.363 . S
C444 N442 1.356 . S
C445 C439 1.363 . S
C445 C440 1.379 1_455 S
C445 N443 1.356 . S
N446 C438 1.356 . S
N446 H452 0.984 . S
N446 H453 0.984 . S
N447 C440 1.356 . S
N447 H450 0.984 . S
N447 H451 0.985 . S
H448 N443 0.984 . S
H449 N443 0.981 1_655 S
H450 N447 0.984 . S
H451 N447 0.985 . S
H452 N446 0.984 . S
H453 N446 0.984 . S
H454 N442 0.981 1_455 S
H455 N442 0.985 . S
C456 C457 1.363 1_554 S
C456 C462 1.379 1_545 S
C456 N464 1.356 1_554 S
C457 C456 1.363 1_556 S
C457 C463 1.363 . S
C458 C459 1.363 1_556 S
C458 C463 1.379 1_565 S
C458 N465 1.356 1_556 S
C459 C458 1.363 1_554 S
C459 C462 1.363 . S
N460 C462 1.356 . S
N460 H472 0.984 . S
N460 H473 0.985 . S
N461 C463 1.356 . S
N461 H466 0.984 . S
N461 H467 0.985 . S
C462 C456 1.379 1_565 S
C462 C459 1.363 . S
C462 N460 1.356 . S
C463 C457 1.363 . S
C463 C458 1.379 1_545 S
C463 N461 1.356 . S
N464 C456 1.356 1_556 S
N464 H470 0.984 1_556 S
N464 H471 0.984 . S
N465 C458 1.356 1_554 S
N465 H468 0.984 . S
N465 H469 0.985 1_554 S
H466 N461 0.984 . S
H467 N461 0.985 . S
H468 N465 0.984 . S
H469 N465 0.985 1_556 S
H470 N464 0.984 1_554 S
H471 N464 0.984 . S
H472 N460 0.984 . S
H473 N460 0.985 . S
C474 C475 1.363 . S
C474 C480 1.379 . S
C474 N482 1.356 . S
C475 C474 1.363 . S
C475 C481 1.363 . S
C476 C477 1.363 . S
C476 C481 1.379 . S
C476 N483 1.356 . S
C477 C476 1.363 . S
C477 C480 1.363 . S
N478 C480 1.356 . S
N478 H490 0.984 . S
N478 H491 0.985 . S
N479 C481 1.356 . S
N479 H484 0.984 . S
N479 H485 0.985 . S
C480 C474 1.379 . S
C480 C477 1.363 . S
C480 N478 1.356 . S
C481 C475 1.363 . S
C481 C476 1.379 . S
C481 N479 1.356 . S
N482 C474 1.356 . S
N482 H488 0.984 . S
N482 H489 0.984 . S
N483 C476 1.356 . S
N483 H486 0.984 . S
N483 H487 0.985 . S
H484 N479 0.984 . S
H485 N479 0.985 . S
H486 N483 0.984 . S
H487 N483 0.985 . S
H488 N482 0.984 . S
H489 N482 0.984 . S
H490 N478 0.984 . S
H491 N478 0.985 . S
C492 C493 1.363 . S
C492 C498 1.379 . S
C492 N500 1.356 . S
C493 C492 1.363 . S
C493 C499 1.363 . S
C494 C495 1.363 . S
C494 C499 1.379 . S
C494 N501 1.356 . S
C495 C494 1.363 . S
C495 C498 1.363 . S
N496 C498 1.356 . S
N496 H508 0.984 . S
N496 H509 0.985 . S
N497 C499 1.356 . S
N497 H502 0.984 . S
N497 H503 0.985 . S
C498 C492 1.379 . S
C498 C495 1.363 . S
C498 N496 1.356 . S
C499 C493 1.363 . S
C499 C494 1.379 . S
C499 N497 1.356 . S
N500 C492 1.356 . S
N500 H506 0.984 . S
N500 H507 0.984 . S
N501 C494 1.356 . S
N501 H504 0.984 . S
N501 H505 0.985 . S
H502 N497 0.984 . S
H503 N497 0.985 . S
H504 N501 0.984 . S
H505 N501 0.985 . S
H506 N500 0.984 . S
H507 N500 0.984 . S
H508 N496 0.984 . S
H509 N496 0.985 . S
C510 C511 1.363 . S
C510 C516 1.379 . S
C510 N518 1.356 . S
C511 C510 1.363 . S
C511 C517 1.363 . S
C512 C513 1.363 . S
C512 C517 1.379 . S
C512 N519 1.356 . S
C513 C512 1.363 . S
C513 C516 1.363 . S
N514 C516 1.356 . S
N514 H526 0.984 . S
N514 H527 0.985 . S
N515 C517 1.356 . S
N515 H520 0.984 . S
N515 H521 0.985 . S
C516 C510 1.379 . S
C516 C513 1.363 . S
C516 N514 1.356 . S
C517 C511 1.363 . S
C517 C512 1.379 . S
C517 N515 1.356 . S
N518 C510 1.356 . S
N518 H524 0.984 . S
N518 H525 0.984 . S
N519 C512 1.356 . S
N519 H522 0.984 . S
N519 H523 0.985 . S
H520 N515 0.984 . S
H521 N515 0.985 . S
H522 N519 0.984 . S
H523 N519 0.985 . S
H524 N518 0.984 . S
H525 N518 0.984 . S
H526 N514 0.984 . S
H527 N514 0.985 . S
C528 C529 1.363 . S
C528 C534 1.379 . S
C528 N536 1.356 . S
C529 C528 1.363 . S
C529 C535 1.363 . S
C530 C531 1.363 . S
C530 C535 1.379 . S
C530 N537 1.356 . S
C531 C530 1.363 . S
C531 C534 1.363 . S
N532 C534 1.356 . S
N532 H544 0.984 . S
N532 H545 0.985 . S
N533 C535 1.356 . S
N533 H538 0.984 . S
N533 H539 0.985 . S
C534 C528 1.379 . S
C534 C531 1.363 . S
C534 N532 1.356 . S
C535 C529 1.363 . S
C535 C530 1.379 . S
C535 N533 1.356 . S
N536 C528 1.356 . S
N536 H542 0.984 . S
N536 H543 0.984 . S
N537 C530 1.356 . S
N537 H540 0.984 . S
N537 H541 0.985 . S
H538 N533 0.984 . S
H539 N533 0.985 . S
H540 N537 0.984 . S
H541 N537 0.985 . S
H542 N536 0.984 . S
H543 N536 0.984 . S
H544 N532 0.984 . S
H545 N532 0.985 . S
C546 C547 1.363 . S
C546 C552 1.379 . S
C546 N554 1.356 . S
C547 C546 1.363 . S
C547 C553 1.363 . S
C548 C549 1.363 . S
C548 C553 1.379 . S
C548 N555 1.356 . S
C549 C548 1.363 . S
C549 C552 1.363 . S
N550 C552 1.356 . S
N550 H562 0.984 . S
N550 H563 0.985 . S
N551 C553 1.356 . S
N551 H556 0.984 . S
N551 H557 0.985 . S
C552 C546 1.379 . S
C552 C549 1.363 . S
C552 N550 1.356 . S
C553 C547 1.363 . S
C553 C548 1.379 . S
C553 N551 1.356 . S
N554 C546 1.356 . S
N554 H560 0.984 . S
N554 H561 0.984 . S
N555 C548 1.356 . S
N555 H558 0.984 . S
N555 H559 0.985 . S
H556 N551 0.984 . S
H557 N551 0.985 . S
H558 N555 0.984 . S
H559 N555 0.985 . S
H560 N554 0.984 . S
H561 N554 0.984 . S
H562 N550 0.984 . S
H563 N550 0.985 . S
C564 C565 1.363 . S
C564 C570 1.379 . S
C564 N572 1.356 . S
C565 C564 1.363 . S
C565 C571 1.363 . S
C566 C567 1.363 . S
C566 C571 1.379 . S
C566 N573 1.356 . S
C567 C566 1.363 . S
C567 C570 1.363 . S
N568 C570 1.356 . S
N568 H580 0.984 . S
N568 H581 0.985 . S
N569 C571 1.356 . S
N569 H574 0.984 . S
N569 H575 0.985 . S
C570 C564 1.379 . S
C570 C567 1.363 . S
C570 N568 1.356 . S
C571 C565 1.363 . S
C571 C566 1.379 . S
C571 N569 1.356 . S
N572 C564 1.356 . S
N572 H578 0.984 . S
N572 H579 0.984 . S
N573 C566 1.356 . S
N573 H576 0.984 . S
N573 H577 0.985 . S
H574 N569 0.984 . S
H575 N569 0.985 . S
H576 N573 0.984 . S
H577 N573 0.985 . S
H578 N572 0.984 . S
H579 N572 0.984 . S
H580 N568 0.984 . S
H581 N568 0.985 . S
C582 C583 1.363 . S
C582 C588 1.379 . S
C582 N590 1.356 . S
C583 C582 1.363 . S
C583 C589 1.363 . S
C584 C585 1.363 . S
C584 C589 1.379 . S
C584 N591 1.356 1_554 S
C585 C584 1.363 . S
C585 C588 1.363 . S
N586 C588 1.356 . S
N586 H598 0.984 . S
N586 H599 0.985 . S
N587 C589 1.356 . S
N587 H592 0.984 . S
N587 H593 0.985 . S
C588 C582 1.379 . S
C588 C585 1.363 . S
C588 N586 1.356 . S
C589 C583 1.363 . S
C589 C584 1.379 . S
C589 N587 1.356 . S
N590 C582 1.356 . S
N590 H596 0.984 . S
N590 H597 0.984 . S
N591 C584 1.356 1_556 S
N591 H594 0.984 . S
N591 H595 0.985 . S
H592 N587 0.984 . S
H593 N587 0.985 . S
H594 N591 0.984 . S
H595 N591 0.985 . S
H596 N590 0.984 . S
H597 N590 0.984 . S
H598 N586 0.984 . S
H599 N586 0.985 . S
C169 C0 1.519 . S
C171 C97 1.517 . S
C187 C15 1.517 . S
C189 C110 1.519 . S
C205 C125 1.517 . S
C207 C41 1.517 . S
C223 C42 1.519 . S
C225 C127 1.517 . S
C241 C57 1.517 . S
C243 C141 1.517 . S
C259 C167 1.517 . S
C261 C83 1.517 . S
C277 C113 1.590 . S
C279 C12 1.590 . S
C295 C27 1.590 . S
C297 C139 1.590 . S
C313 C153 1.590 1_556 S
C315 C29 1.590 . S
C331 C155 1.590 . S
C333 C54 1.590 1_554 S
C349 C69 1.590 . S
C351 C85 1.590 . S
C367 C71 1.590 . S
C369 C98 1.590 . S
C385 C166 1.819 . S
C387 C1 1.816 . S
C403 C96 1.819 . S
C405 C14 1.819 . S
C421 C40 1.819 . S
C423 C111 1.816 . S
C439 C124 1.819 . S
C441 C43 1.816 . S
C457 C126 1.819 . S
C459 C56 1.819 . S
C475 C140 1.819 . S
C477 C82 1.819 . S
C493 C13 1.612 . S
C495 C152 1.614 . S
C511 C154 1.614 . S
C513 C26 1.614 . S
C529 C28 1.614 . S
C531 C84 1.614 . S
C547 C55 1.612 . S
C549 C99 1.612 . S
C565 C68 1.614 . S
C567 C112 1.614 . S
C583 C70 1.614 . S
C585 C138 1.614 . S
