# Generated by pormake.
# Topology sod-e, (6)-cn, num edge types: 1
# Building blocks:
#     Node 0, Type 0, BuildingBlock: MAKGUD_clean_sbu_1, # of connection points: 6
#     Node 1, Type 0, BuildingBlock: MAKGUD_clean_sbu_1, # of connection points: 6
#     Node 2, Type 0, BuildingBlock: MAKGUD_clean_sbu_1, # of connection points: 6
#     Node 3, Type 0, BuildingBlock: MAKGUD_clean_sbu_1, # of connection points: 6
#     Node 4, Type 0, BuildingBlock: MAKGUD_clean_sbu_1, # of connection points: 6
#     Node 5, Type 0, BuildingBlock: MAKGUD_clean_sbu_1, # of connection points: 6
#     Node 6, Type 0, BuildingBlock: MAKGUD_clean_sbu_1, # of connection points: 6
#     Node 7, Type 0, BuildingBlock: MAKGUD_clean_sbu_1, # of connection points: 6
#     Node 8, Type 0, BuildingBlock: MAKGUD_clean_sbu_1, # of connection points: 6
#     Node 9, Type 0, BuildingBlock: MAKGUD_clean_sbu_1, # of connection points: 6
#     Node 10, Type 0, BuildingBlock: MAKGUD_clean_sbu_1, # of connection points: 6
#     Node 11, Type 0, BuildingBlock: MAKGUD_clean_sbu_1, # of connection points: 6
#     Node 12, Type 0, BuildingBlock: MAKGUD_clean_sbu_1, # of connection points: 6
#     Node 13, Type 0, BuildingBlock: MAKGUD_clean_sbu_1, # of connection points: 6
#     Node 14, Type 0, BuildingBlock: MAKGUD_clean_sbu_1, # of connection points: 6
#     Node 15, Type 0, BuildingBlock: MAKGUD_clean_sbu_1, # of connection points: 6
#     Node 16, Type 0, BuildingBlock: MAKGUD_clean_sbu_1, # of connection points: 6
#     Node 17, Type 0, BuildingBlock: MAKGUD_clean_sbu_1, # of connection points: 6
#     Node 18, Type 0, BuildingBlock: MAKGUD_clean_sbu_1, # of connection points: 6
#     Node 19, Type 0, BuildingBlock: MAKGUD_clean_sbu_1, # of connection points: 6
#     Node 20, Type 0, BuildingBlock: MAKGUD_clean_sbu_1, # of connection points: 6
#     Node 21, Type 0, BuildingBlock: MAKGUD_clean_sbu_1, # of connection points: 6
#     Node 22, Type 0, BuildingBlock: MAKGUD_clean_sbu_1, # of connection points: 6
#     Node 23, Type 0, BuildingBlock: MAKGUD_clean_sbu_1, # of connection points: 6
#     Edge 24, Type (0, 0), BuildingBlock: KIFKEQ_clean_linker_1, # of connection points: 2
#     Edge 25, Type (0, 0), BuildingBlock: KIFKEQ_clean_linker_1, # of connection points: 2
#     Edge 26, Type (0, 0), BuildingBlock: KIFKEQ_clean_linker_1, # of connection points: 2
#     Edge 27, Type (0, 0), BuildingBlock: KIFKEQ_clean_linker_1, # of connection points: 2
#     Edge 28, Type (0, 0), BuildingBlock: KIFKEQ_clean_linker_1, # of connection points: 2
#     Edge 29, Type (0, 0), BuildingBlock: KIFKEQ_clean_linker_1, # of connection points: 2
#     Edge 30, Type (0, 0), BuildingBlock: KIFKEQ_clean_linker_1, # of connection points: 2
#     Edge 31, Type (0, 0), BuildingBlock: KIFKEQ_clean_linker_1, # of connection points: 2
#     Edge 32, Type (0, 0), BuildingBlock: KIFKEQ_clean_linker_1, # of connection points: 2
#     Edge 33, Type (0, 0), BuildingBlock: KIFKEQ_clean_linker_1, # of connection points: 2
#     Edge 34, Type (0, 0), BuildingBlock: KIFKEQ_clean_linker_1, # of connection points: 2
#     Edge 35, Type (0, 0), BuildingBlock: KIFKEQ_clean_linker_1, # of connection points: 2
#     Edge 36, Type (0, 0), BuildingBlock: KIFKEQ_clean_linker_1, # of connection points: 2
#     Edge 37, Type (0, 0), BuildingBlock: KIFKEQ_clean_linker_1, # of connection points: 2
#     Edge 38, Type (0, 0), BuildingBlock: KIFKEQ_clean_linker_1, # of connection points: 2
#     Edge 39, Type (0, 0), BuildingBlock: KIFKEQ_clean_linker_1, # of connection points: 2
#     Edge 40, Type (0, 0), BuildingBlock: KIFKEQ_clean_linker_1, # of connection points: 2
#     Edge 41, Type (0, 0), BuildingBlock: KIFKEQ_clean_linker_1, # of connection points: 2
#     Edge 42, Type (0, 0), BuildingBlock: KIFKEQ_clean_linker_1, # of connection points: 2
#     Edge 43, Type (0, 0), BuildingBlock: KIFKEQ_clean_linker_1, # of connection points: 2
#     Edge 44, Type (0, 0), BuildingBlock: KIFKEQ_clean_linker_1, # of connection points: 2
#     Edge 45, Type (0, 0), BuildingBlock: KIFKEQ_clean_linker_1, # of connection points: 2
#     Edge 46, Type (0, 0), BuildingBlock: KIFKEQ_clean_linker_1, # of connection points: 2
#     Edge 47, Type (0, 0), BuildingBlock: KIFKEQ_clean_linker_1, # of connection points: 2
#     Edge 48, Type (0, 0), BuildingBlock: KIFKEQ_clean_linker_1, # of connection points: 2
#     Edge 49, Type (0, 0), BuildingBlock: KIFKEQ_clean_linker_1, # of connection points: 2
#     Edge 50, Type (0, 0), BuildingBlock: KIFKEQ_clean_linker_1, # of connection points: 2
#     Edge 51, Type (0, 0), BuildingBlock: KIFKEQ_clean_linker_1, # of connection points: 2
#     Edge 52, Type (0, 0), BuildingBlock: KIFKEQ_clean_linker_1, # of connection points: 2
#     Edge 53, Type (0, 0), BuildingBlock: KIFKEQ_clean_linker_1, # of connection points: 2
#     Edge 54, Type (0, 0), BuildingBlock: KIFKEQ_clean_linker_1, # of connection points: 2
#     Edge 55, Type (0, 0), BuildingBlock: KIFKEQ_clean_linker_1, # of connection points: 2
#     Edge 56, Type (0, 0), BuildingBlock: KIFKEQ_clean_linker_1, # of connection points: 2
#     Edge 57, Type (0, 0), BuildingBlock: KIFKEQ_clean_linker_1, # of connection points: 2
#     Edge 58, Type (0, 0), BuildingBlock: KIFKEQ_clean_linker_1, # of connection points: 2
#     Edge 59, Type (0, 0), BuildingBlock: KIFKEQ_clean_linker_1, # of connection points: 2
#     Edge 60, Type (0, 0), BuildingBlock: KIFKEQ_clean_linker_1, # of connection points: 2
#     Edge 61, Type (0, 0), BuildingBlock: KIFKEQ_clean_linker_1, # of connection points: 2
#     Edge 62, Type (0, 0), BuildingBlock: KIFKEQ_clean_linker_1, # of connection points: 2
#     Edge 63, Type (0, 0), BuildingBlock: KIFKEQ_clean_linker_1, # of connection points: 2
#     Edge 64, Type (0, 0), BuildingBlock: KIFKEQ_clean_linker_1, # of connection points: 2
#     Edge 65, Type (0, 0), BuildingBlock: KIFKEQ_clean_linker_1, # of connection points: 2
#     Edge 66, Type (0, 0), BuildingBlock: KIFKEQ_clean_linker_1, # of connection points: 2
#     Edge 67, Type (0, 0), BuildingBlock: KIFKEQ_clean_linker_1, # of connection points: 2
#     Edge 68, Type (0, 0), BuildingBlock: KIFKEQ_clean_linker_1, # of connection points: 2
#     Edge 69, Type (0, 0), BuildingBlock: KIFKEQ_clean_linker_1, # of connection points: 2
#     Edge 70, Type (0, 0), BuildingBlock: KIFKEQ_clean_linker_1, # of connection points: 2
#     Edge 71, Type (0, 0), BuildingBlock: KIFKEQ_clean_linker_1, # of connection points: 2
#     Edge 72, Type (0, 0), BuildingBlock: KIFKEQ_clean_linker_1, # of connection points: 2
#     Edge 73, Type (0, 0), BuildingBlock: KIFKEQ_clean_linker_1, # of connection points: 2
#     Edge 74, Type (0, 0), BuildingBlock: KIFKEQ_clean_linker_1, # of connection points: 2
#     Edge 75, Type (0, 0), BuildingBlock: KIFKEQ_clean_linker_1, # of connection points: 2
#     Edge 76, Type (0, 0), BuildingBlock: KIFKEQ_clean_linker_1, # of connection points: 2
#     Edge 77, Type (0, 0), BuildingBlock: KIFKEQ_clean_linker_1, # of connection points: 2
#     Edge 78, Type (0, 0), BuildingBlock: KIFKEQ_clean_linker_1, # of connection points: 2
#     Edge 79, Type (0, 0), BuildingBlock: KIFKEQ_clean_linker_1, # of connection points: 2
#     Edge 80, Type (0, 0), BuildingBlock: KIFKEQ_clean_linker_1, # of connection points: 2
#     Edge 81, Type (0, 0), BuildingBlock: KIFKEQ_clean_linker_1, # of connection points: 2
#     Edge 82, Type (0, 0), BuildingBlock: KIFKEQ_clean_linker_1, # of connection points: 2
#     Edge 83, Type (0, 0), BuildingBlock: KIFKEQ_clean_linker_1, # of connection points: 2
#     Edge 84, Type (0, 0), BuildingBlock: KIFKEQ_clean_linker_1, # of connection points: 2
#     Edge 85, Type (0, 0), BuildingBlock: KIFKEQ_clean_linker_1, # of connection points: 2
#     Edge 86, Type (0, 0), BuildingBlock: KIFKEQ_clean_linker_1, # of connection points: 2
#     Edge 87, Type (0, 0), BuildingBlock: KIFKEQ_clean_linker_1, # of connection points: 2
#     Edge 88, Type (0, 0), BuildingBlock: KIFKEQ_clean_linker_1, # of connection points: 2
#     Edge 89, Type (0, 0), BuildingBlock: KIFKEQ_clean_linker_1, # of connection points: 2
#     Edge 90, Type (0, 0), BuildingBlock: KIFKEQ_clean_linker_1, # of connection points: 2
#     Edge 91, Type (0, 0), BuildingBlock: KIFKEQ_clean_linker_1, # of connection points: 2
#     Edge 92, Type (0, 0), BuildingBlock: KIFKEQ_clean_linker_1, # of connection points: 2
#     Edge 93, Type (0, 0), BuildingBlock: KIFKEQ_clean_linker_1, # of connection points: 2
#     Edge 94, Type (0, 0), BuildingBlock: KIFKEQ_clean_linker_1, # of connection points: 2
#     Edge 95, Type (0, 0), BuildingBlock: KIFKEQ_clean_linker_1, # of connection points: 2
# Relax obj value: 0.094
# Max RMSD: 0.223
# Mean RMSD: 0.175
data_MOF--net-sod-e--node1-MAKGUD_clean_sbu_1--edge1-KIFKEQ_clean_linker_1
_symmetry_space_group_name_H-M    P1
_symmetry_Int_Tables_number       1
_symmetry_cell_setting            triclinic
loop_
_symmetry_equiv_pos_as_xyz
'x, y, z'
_cell_length_a     62.306077
_cell_length_b     57.410213
_cell_length_c     56.443937
_cell_angle_alpha  89.781865
_cell_angle_beta   91.156955
_cell_angle_gamma 91.772435
loop_
_atom_site_label
_atom_site_type_symbol
_atom_site_fract_x
_atom_site_fract_y
_atom_site_fract_z
_atom_type_partial_charge
O0 O 0.08942 0.4031 0.34745 0.0
Tb1 Tb 0.08157 0.41386 0.38348 0.0
C2 C 0.0749 0.45981 0.41297 0.0
O3 O 0.10288 0.40128 0.44026 0.0
Tb4 Tb 0.07076 0.41472 0.44435 0.0
C5 C 0.06344 0.41623 0.49082 0.0
O6 O 0.09501 0.3828 0.40525 0.0
O7 O 0.05197 0.38443 0.43212 0.0
C8 C 0.0559 0.36464 0.443 0.0
O9 O 0.07204 0.36427 0.45833 0.0
O10 O 0.08752 0.44876 0.39859 0.0
O11 O 0.06336 0.44843 0.4288 0.0
O12 O 0.04943 0.42465 0.36606 0.0
C13 C 0.10624 0.38368 0.4261 0.0
C14 C 0.10712 0.41569 0.34602 0.0
O15 O 0.04924 0.41087 0.47443 0.0
O16 O 0.08173 0.4212 0.48098 0.0
C17 C 0.04904 0.44297 0.35081 0.0
O18 O 0.06767 0.45366 0.34732 0.0
O19 O 0.11052 0.42674 0.36586 0.0
O20 O 0.74343 1.00076 0.40128 0.0
Tb21 Tb 0.71174 1.01218 0.41204 0.0
C22 C 0.68739 1.02516 0.45679 0.0
O23 O 0.6569 1.00319 0.39589 0.0
Tb24 Tb 0.66051 0.03781 0.41202 0.0
C25 C 0.62075 0.05006 0.42193 0.0
O26 O 0.69059 0.99998 0.3804 0.0
O27 O 0.66676 0.06085 0.38186 0.0
C28 C 0.65528 0.05763 0.36216 0.0
O29 O 0.64441 0.03783 0.35939 0.0
O30 O 0.69485 1.00735 0.44531 0.0
O31 O 0.67937 0.04271 0.44485 0.0
O32 O 0.72977 0.04542 0.42426 0.0
C33 C 0.66947 0.99405 0.38014 0.0
C34 C 0.74408 0.98254 0.41507 0.0
O35 O 0.62788 0.02907 0.42371 0.0
O36 O 0.63612 0.06408 0.4151 0.0
C37 C 0.74278 0.04407 0.44357 0.0
O38 O 0.74295 1.02365 0.45416 0.0
O39 O 0.72617 0.98066 0.42646 0.0
O40 O 0.0384 0.68282 0.34029 0.0
Tb41 Tb 0.05686 0.6803 0.37328 0.0
C42 C 0.05969 0.63689 0.40835 0.0
O43 O 1.02439 0.69768 0.42174 0.0
Tb44 Tb 0.05023 0.68014 0.43963 0.0
C45 C 0.04576 0.6787 0.48662 0.0
O46 O 0.04476 0.7143 0.39224 0.0
O47 O 0.07573 0.70655 0.43433 0.0
C48 C 0.07265 0.72655 0.44501 0.0
O49 O 0.05475 0.72869 0.45662 0.0
O50 O 0.07032 0.6511 0.39396 0.0
O51 O 0.04817 0.64503 0.4255 0.0
O52 O 0.08357 0.66948 0.34715 0.0
C53 C 1.02884 0.71605 0.40868 0.0
C54 C 1.02334 0.66772 0.34597 0.0
O55 O 1.03072 0.68382 0.47127 0.0
O56 O 0.06313 0.67395 0.47541 0.0
C57 C 0.0844 0.64732 0.33837 0.0
O58 O 0.06909 0.63277 0.34536 0.0
O59 O 1.027 0.65977 0.36737 0.0
O60 O 0.33884 0.0983 0.38365 0.0
Tb61 Tb 0.36134 0.06991 0.38316 0.0
C62 C 0.39195 0.05832 0.42565 0.0
O63 O 0.40907 0.10284 0.37132 0.0
Tb64 Tb 0.42286 0.073 0.38809 0.0
C65 C 0.46403 0.07777 0.40081 0.0
O66 O 0.38134 0.08403 0.3508 0.0
O67 O 0.41948 0.04079 0.36795 0.0
C68 C 0.42714 0.0406 0.34639 0.0
O69 O 0.43355 0.0605 0.33695 0.0
O70 O 0.37863 0.04909 0.40966 0.0
O71 O 0.40506 0.07543 0.41994 0.0
O72 O 0.33069 0.04668 0.39129 0.0
C73 C 0.39813 0.10011 0.35148 0.0
C74 C 0.34787 0.10947 0.40142 0.0
O75 O 0.45548 0.08673 0.38172 0.0
O76 O 0.44935 0.06652 0.41263 0.0
C77 C 0.3296 1.0274 0.40552 0.0
O78 O 0.34787 1.01796 0.41133 0.0
O79 O 0.36469 0.09842 0.40886 0.0
O80 O 0.03975 0.64298 0.68583 0.0
Tb81 Tb 0.03919 0.67216 0.71065 0.0
C82 C 1.00118 0.69241 0.73696 0.0
O83 O 1.01882 0.70994 0.67249 0.0
Tb84 Tb 1.01997 0.73289 0.70322 0.0
C85 C 0.98717 0.76016 0.69423 0.0
O86 O 0.04972 0.6904 0.67894 0.0
O87 O 0.04847 0.75405 0.68823 0.0
C88 C 0.04621 0.76445 0.66685 0.0
O89 O 1.02735 0.76143 0.65628 0.0
O90 O 1.00611 0.67942 0.71899 0.0
O91 O 1.0094 0.7143 0.73717 0.0
O92 O 0.06607 0.6755 0.73597 0.0
C93 C 0.03573 0.69972 0.6643 0.0
C94 C 0.03547 0.62696 0.70148 0.0
O95 O 0.98835 0.73858 0.68775 0.0
O96 O 1.00456 0.76648 0.70605 0.0
C97 C 0.06371 0.66865 0.75812 0.0
O98 O 0.04419 0.66435 0.76576 0.0
O99 O 0.03373 0.63634 0.72216 0.0
O100 O 0.40345 0.0801 0.74077 0.0
Tb101 Tb 0.40557 0.06002 0.70796 0.0
C102 C 0.43907 0.04022 0.67423 0.0
O103 O 0.3874 0.0724 0.65069 0.0
Tb104 Tb 0.39571 0.03596 0.64634 0.0
C105 C 0.40176 0.03265 0.59995 0.0
O106 O 0.37491 0.07291 0.68855 0.0
O107 O 0.36444 1.01763 0.6505 0.0
C108 C 0.34746 1.0261 0.63934 0.0
O109 O 0.34954 0.0465 0.62892 0.0
O110 O 0.43175 0.05952 0.68299 0.0
O111 O 0.42568 1.02504 0.66374 0.0
O112 O 0.41903 0.02972 0.7308 0.0
C113 C 0.37338 0.08011 0.66567 0.0
C114 C 0.41721 0.0965 0.73468 0.0
O115 O 0.40652 0.05082 0.61285 0.0
O116 O 0.39402 1.01607 0.61326 0.0
C117 C 0.43755 0.03266 0.74382 0.0
O118 O 0.44661 0.05359 0.74298 0.0
O119 O 0.42397 0.09239 0.71355 0.0
O120 O 0.08038 0.32738 0.71228 0.0
Tb121 Tb 0.06235 0.35984 0.71016 0.0
C122 C 0.04738 0.38643 0.6661 0.0
O123 O 0.06888 0.41651 0.727 0.0
Tb124 Tb 0.0372 0.41266 0.70972 0.0
C125 C 1.0296 0.45552 0.69487 0.0
O126 O 0.07078 0.38032 0.74372 0.0
O127 O 1.01663 0.40509 0.73959 0.0
C128 C 1.02102 0.41645 0.75938 0.0
O129 O 0.03882 0.42924 0.76074 0.0
O130 O 0.06459 0.38015 0.67775 0.0
O131 O 1.03067 0.39212 0.67816 0.0
O132 O 1.03213 0.33941 0.69738 0.0
C133 C 0.07635 0.4031 0.74405 0.0
C134 C 0.09786 0.33648 0.70316 0.0
O135 O 0.04724 0.44464 0.69168 0.0
O136 O 1.01623 0.44234 0.70664 0.0
C137 C 1.03072 0.32983 0.67557 0.0
O138 O 0.04759 0.33249 0.66213 0.0
O139 O 0.09503 0.3582 0.69818 0.0
O140 O 0.7434 0.05275 0.68367 0.0
Tb141 Tb 0.71567 0.03011 0.67671 0.0
C142 C 0.67913 1.02545 0.63708 0.0
O143 O 0.66433 0.05569 0.693 0.0
Tb144 Tb 0.64584 1.02569 0.67874 0.0
C145 C 0.60305 0.03121 0.67483 0.0
O146 O 0.69652 0.04372 0.70989 0.0
O147 O 0.64904 0.99307 0.69867 0.0
C148 C 0.65911 0.99125 0.71931 0.0
O149 O 0.67113 1.00869 0.72729 0.0
O150 O 0.69206 1.01404 0.65159 0.0
O151 O 0.65948 0.02997 0.64367 0.0
O152 O 0.74209 1.00346 0.66558 0.0
C153 C 0.67726 0.05493 0.7117 0.0
C154 C 0.73975 0.06734 0.66648 0.0
O155 O 0.61614 0.04273 0.68917 0.0
O156 O 0.61421 1.01707 0.66242 0.0
C157 C 0.75227 1.00342 0.64409 0.0
O158 O 0.74613 1.01923 0.62873 0.0
O159 O 0.72202 0.06118 0.65491 0.0
O160 O 0.40223 0.34731 0.06082 0.0
Tb161 Tb 0.40296 0.37266 0.0321 0.0
C162 C 0.43678 0.41464 0.02754 0.0
O163 O 0.38313 0.42165 0.06328 0.0
Tb164 Tb 0.395 0.4422 0.0339 0.0
C165 C 0.39274 0.48854 0.03855 0.0
O166 O 0.37009 0.38859 0.04418 0.0
O167 O 0.3768 0.43218 1.00218 0.0
C168 C 0.35582 0.43322 1.0031 0.0
O169 O 0.34717 0.43909 1.02312 0.0
O170 O 0.42521 0.39851 1.01586 0.0
O171 O 0.42781 0.43209 0.03812 0.0
O172 O 0.41595 0.3417 1.00887 0.0
C173 C 0.36715 0.40662 0.05979 0.0
C174 C 0.41678 0.35778 0.07413 0.0
O175 O 0.38216 0.47309 0.05108 0.0
O176 O 0.40473 0.4778 1.02376 0.0
C177 C 0.43375 0.34209 0.99478 0.0
O178 O 0.44259 0.36273 0.99084 0.0
O179 O 0.42379 0.37674 0.0637 0.0
O180 O 0.34642 0.69041 0.09335 0.0
Tb181 Tb 0.37091 0.69189 0.06662 0.0
C182 C 0.40966 0.66115 0.0491 0.0
O183 O 0.41778 0.69981 0.08903 0.0
Tb184 Tb 0.44508 0.69286 0.06672 0.0
C185 C 0.47875 0.68034 0.09237 0.0
O186 O 0.38953 0.72283 0.08443 0.0
O187 O 0.45346 0.71719 0.03823 0.0
C188 C 0.45505 0.73975 0.04245 0.0
O189 O 0.45041 0.74722 0.06363 0.0
O190 O 0.40092 0.68143 0.05205 0.0
O191 O 0.43063 0.6616 0.05058 0.0
O192 O 0.348 0.68285 0.03585 0.0
C193 C 0.41002 0.72053 0.09229 0.0
C194 C 0.35102 0.66981 0.10141 0.0
O195 O 0.47057 0.70091 0.0927 0.0
O196 O 0.46828 0.66716 0.07719 0.0
C197 C 0.3405 0.66076 0.03256 0.0
O198 O 0.34742 0.64474 0.04722 0.0
O199 O 0.36756 0.66192 0.09037 0.0
O200 O 0.7275 0.41939 0.07503 0.0
Tb201 Tb 0.69464 0.4284 0.06439 0.0
C202 C 0.66925 0.47275 0.05027 0.0
O203 O 0.64174 0.41401 0.07833 0.0
Tb204 Tb 0.64016 0.42732 0.04205 0.0
C205 C 0.59813 0.4317 0.03344 0.0
O206 O 0.67424 0.39667 0.07753 0.0
O207 O 0.64702 0.39537 1.02246 0.0
C208 C 0.63619 0.37598 0.02814 0.0
O209 O 0.62367 0.37632 0.04656 0.0
O210 O 0.67887 0.46174 0.06787 0.0
O211 O 0.65684 0.46108 0.03478 0.0
O212 O 0.71059 0.44011 0.02995 0.0
C213 C 0.65379 0.3967 0.08514 0.0
C214 C 0.72914 0.43293 0.0935 0.0
O215 O 0.60817 0.43709 0.05316 0.0
O216 O 0.6119 0.42458 1.0183 0.0
C217 C 0.72591 0.45734 0.03052 0.0
O218 O 0.73048 0.46671 0.05126 0.0
O219 O 0.71091 0.44301 0.0961 0.0
O220 O 0.64393 0.69236 0.09228 0.0
Tb221 Tb 0.66696 0.69506 0.06394 0.0
C222 C 0.67551 0.73189 1.02358 0.0
O223 O 0.70115 0.6632 0.03334 0.0
Tb224 Tb 0.71607 0.6978 0.04106 0.0
C225 C 0.74749 0.7006 1.01001 0.0
O226 O 0.68254 0.66165 0.06735 0.0
O227 O 0.7354 0.68386 0.07332 0.0
C228 C 0.74753 0.66469 0.0715 0.0
O229 O 0.74676 0.65418 0.05086 0.0
O230 O 0.66207 0.71544 0.03122 0.0
O231 O 0.69653 0.73041 0.0302 0.0
O232 O 0.67646 0.72183 0.08965 0.0
C233 C 0.69072 0.65086 0.04939 0.0
C234 C 0.62875 0.68219 0.07979 0.0
O235 O 0.72882 0.69036 1.0064 0.0
O236 O 0.74841 0.70966 0.03112 0.0
C237 C 0.66625 0.74159 0.08869 0.0
O238 O 0.65458 0.74606 0.06968 0.0
O239 O 0.63478 0.67978 0.05804 0.0
O240 O 0.5794 0.89506 0.85657 0.0
Tb241 Tb 0.57029 0.90524 0.89241 0.0
C242 C 0.56849 0.95292 0.92359 0.0
O243 O 0.59392 0.89027 0.94822 0.0
Tb244 Tb 0.5638 0.90697 0.956 0.0
C245 C 0.56084 0.9105 1.00293 0.0
O246 O 0.58153 0.87261 0.91418 0.0
O247 O 0.54085 0.87831 0.94856 0.0
C248 C 0.54482 0.85847 0.95948 0.0
O249 O 0.56292 0.857 0.97165 0.0
O250 O 0.57586 0.94122 0.90546 0.0
O251 O 0.56071 0.94264 0.94267 0.0
O252 O 0.53955 0.91733 0.87237 0.0
C253 C 0.59411 0.87199 0.93424 0.0
C254 C 0.59779 0.90655 0.85671 0.0
O255 O 0.57843 0.907 0.99164 0.0
O256 O 0.54504 0.91233 0.98778 0.0
C257 C 0.5409 0.93438 0.85557 0.0
O258 O 0.56029 0.94323 0.85214 0.0
O259 O 0.60084 0.91647 0.87723 0.0
O260 O 0.23677 0.50783 0.89519 0.0
Tb261 Tb 0.20521 0.5211 0.90413 0.0
C262 C 0.17994 0.5335 0.94848 0.0
O263 O 0.15108 0.51481 0.88508 0.0
Tb264 Tb 0.15704 0.54886 0.90185 0.0
C265 C 0.11898 0.56802 0.90622 0.0
O266 O 0.18523 0.50783 0.87245 0.0
O267 O 0.16849 0.57046 0.87254 0.0
C268 C 0.15907 0.56746 0.85155 0.0
O269 O 0.14856 0.54768 0.84742 0.0
O270 O 0.18752 0.51602 0.93668 0.0
O271 O 0.17242 0.55158 0.93699 0.0
O272 O 0.22261 0.55475 0.91566 0.0
C273 C 0.16389 0.50374 0.87088 0.0
C274 C 0.23589 0.49007 0.90962 0.0
O275 O 0.123 0.54638 0.91101 0.0
O276 O 0.13639 0.57875 0.8995 0.0
C277 C 0.23319 0.55576 0.93671 0.0
O278 O 0.23205 0.53712 0.95022 0.0
O279 O 0.21768 0.48974 0.92039 0.0
O280 O 0.53772 0.18127 0.84482 0.0
Tb281 Tb 0.55532 0.1745 0.87807 0.0
C282 C 0.56625 0.13289 0.91552 0.0
O283 O 0.53312 0.19106 0.9333 0.0
Tb284 Tb 0.56476 0.18019 0.94555 0.0
C285 C 0.56286 0.1767 0.99281 0.0
O286 O 0.54241 0.20747 0.8978 0.0
O287 O 0.58391 0.21277 0.94137 0.0
C288 C 0.57655 0.232 0.95075 0.0
O289 O 0.55722 0.23117 0.95963 0.0
O290 O 0.55483 0.14108 0.89747 0.0
O291 O 0.57518 0.14636 0.93228 0.0
O292 O 0.5835 0.16215 0.85402 0.0
C293 C 0.5307 0.2082 0.91808 0.0
C294 C 0.52139 0.16738 0.84949 0.0
O295 O 0.54677 0.17339 0.97804 0.0
O296 O 0.58006 0.18146 0.98089 0.0
C297 C 0.58209 0.14235 0.8404 0.0
O298 O 0.56363 0.13075 0.8414 0.0
O299 O 0.52434 0.15761 0.87003 0.0
O300 O 0.84298 0.61689 0.89345 0.0
Tb301 Tb 0.86125 0.58562 0.89088 0.0
C302 C 0.90272 0.56279 0.91442 0.0
O303 O 0.90261 0.5755 0.85448 0.0
Tb304 Tb 0.93134 0.56344 0.87309 0.0
C305 C 0.96717 0.58977 0.87292 0.0
O306 O 0.87852 0.60359 0.85959 0.0
O307 O 0.93749 0.52769 0.86384 0.0
C308 C 0.93024 0.51929 0.84348 0.0
O309 O 0.91857 0.53255 0.82964 0.0
O310 O 0.89092 0.56795 0.89588 0.0
O311 O 0.92243 0.55739 0.90982 0.0
O312 O 0.83619 0.55804 0.90258 0.0
C313 C 0.89753 0.59735 0.85084 0.0
C314 C 0.85092 0.62328 0.91404 0.0
O315 O 0.96123 0.57492 0.85651 0.0
O316 O 0.9525 0.59023 0.88895 0.0
C317 C 0.83169 0.55554 0.92577 0.0
O318 O 0.84237 0.56956 0.94042 0.0
O319 O 0.86484 0.60828 0.92182 0.0
O320 O 0.5698 0.14665 0.20829 0.0
Tb321 Tb 0.55148 0.17784 0.21369 0.0
C322 C 0.50719 0.19117 0.23953 0.0
O323 O 0.528 0.21272 0.17478 0.0
Tb324 Tb 0.526 0.23524 0.20527 0.0
C325 C 0.49433 0.26271 0.19196 0.0
O326 O 0.56107 0.20021 0.18433 0.0
O327 O 0.55543 0.25833 0.19429 0.0
C328 C 0.55476 0.27109 0.17395 0.0
O329 O 0.53699 0.26862 0.16116 0.0
O330 O 0.51971 0.17588 0.22974 0.0
O331 O 0.51066 0.21443 0.23618 0.0
O332 O 0.57384 0.17766 0.24408 0.0
C333 C 0.5465 0.20511 0.16812 0.0
C334 C 0.55511 0.13524 0.19611 0.0
O335 O 0.49723 0.2418 0.18423 0.0
O336 O 0.50919 0.2682 0.20771 0.0
C337 C 0.56894 0.16539 0.26316 0.0
O338 O 0.54908 0.15749 0.26547 0.0
O339 O 0.53828 0.14791 0.19369 0.0
O340 O 0.90595 0.57645 0.23674 0.0
Tb341 Tb 0.90481 0.55502 0.20501 0.0
C342 C 0.94109 0.55216 0.16795 0.0
O343 O 0.88441 0.58804 0.1564 0.0
Tb344 Tb 0.89959 0.56033 0.13814 0.0
C345 C 0.8997 0.56474 0.09109 0.0
O346 O 0.87205 0.56614 0.18787 0.0
O347 O 0.87677 0.53132 0.1448 0.0
C348 C 0.86032 0.52967 0.12968 0.0
O349 O 0.85868 0.54568 0.11313 0.0
O350 O 0.9288 0.53967 0.18221 0.0
O351 O 0.93249 0.56458 0.15093 0.0
O352 O 0.91717 0.52755 0.23165 0.0
C353 C 0.86881 0.58274 0.1708 0.0
C354 C 0.92017 0.59169 0.2292 0.0
O355 O 0.89265 0.58016 0.10568 0.0
O356 O 0.90692 0.54715 0.10309 0.0
C357 C 0.93758 0.52956 0.24055 0.0
O358 O 0.94912 0.54752 0.23298 0.0
O359 O 0.92519 0.58675 0.20744 0.0
O360 O 0.5722 0.82306 0.22025 0.0
Tb361 Tb 0.55647 0.85711 0.2196 0.0
C362 C 0.54408 0.89076 0.17923 0.0
O363 O 0.57193 0.91137 0.23549 0.0
Tb364 Tb 0.53934 0.91923 0.22352 0.0
C365 C 0.54313 0.96404 0.21183 0.0
O366 O 0.56711 0.87621 0.25369 0.0
O367 O 0.51238 0.91694 0.24742 0.0
C368 C 0.5151 0.92387 0.26952 0.0
O369 O 0.53479 0.92726 0.27785 0.0
O370 O 0.56022 0.88079 0.18988 0.0
O371 O 0.52921 0.90008 0.19187 0.0
O372 O 0.52509 0.83941 0.20541 0.0
C373 C 0.57605 0.89789 0.25377 0.0
C374 C 0.58894 0.83006 0.20825 0.0
O375 O 0.54513 0.95565 0.23307 0.0
O376 O 0.53878 0.94723 0.19704 0.0
C377 C 0.52494 0.82511 0.18637 0.0
O378 O 0.54358 0.82209 0.17654 0.0
O379 O 0.58729 0.85199 0.20334 0.0
O380 O 0.2394 0.5464 0.18114 0.0
Tb381 Tb 0.20869 0.52852 0.17447 0.0
C382 C 0.17825 0.53063 0.12899 0.0
O383 O 0.16271 0.56259 0.19026 0.0
Tb384 Tb 0.14572 0.53553 0.17024 0.0
C385 C 0.10347 0.5428 0.16566 0.0
O386 O 0.19015 0.54199 0.20793 0.0
O387 O 0.14548 0.5042 0.1922 0.0
C388 C 0.16156 0.49207 0.20047 0.0
O389 O 0.18133 0.49722 0.1943 0.0
O390 O 0.1895 0.51691 0.14305 0.0
O391 O 0.16121 0.54102 0.13657 0.0
O392 O 0.23247 0.49929 0.16439 0.0
C393 C 0.17421 0.558 0.20931 0.0
C394 C 0.23639 0.56339 0.16624 0.0
O395 O 0.11727 0.55596 0.17752 0.0
O396 O 0.11367 0.5261 0.15574 0.0
C397 C 0.24115 0.49756 0.14235 0.0
O398 O 0.23462 0.5128 0.12658 0.0
O399 O 0.21739 0.56104 0.15611 0.0
O400 O 0.91218 0.85007 0.55357 0.0
Tb401 Tb 0.91797 0.8829 0.53453 0.0
C402 C 0.9601 0.91772 0.52689 0.0
O403 O 0.89926 0.93632 0.55723 0.0
Tb404 Tb 0.91672 0.94605 0.52524 0.0
C405 C 0.92018 0.99248 0.52757 0.0
O406 O 0.88571 0.90105 0.54429 0.0
O407 O 0.89156 0.94376 0.4977 0.0
C408 C 0.88008 0.92576 0.48964 0.0
O409 O 0.8843 0.90456 0.49672 0.0
O410 O 0.95066 0.89939 0.53715 0.0
O411 O 0.94902 0.93458 0.51704 0.0
O412 O 0.92954 0.858 0.50457 0.0
C413 C 0.88321 0.92093 0.55715 0.0
C414 C 0.92025 0.85755 0.57373 0.0
O415 O 0.92368 0.97832 0.54518 0.0
O416 O 0.9154 0.98044 0.50871 0.0
C417 C 0.94877 0.84697 0.50528 0.0
O418 O 0.96097 0.85108 0.52412 0.0
O419 O 0.92715 0.879 0.5716 0.0
O420 O 0.85337 0.19008 0.59023 0.0
Tb421 Tb 0.88114 0.18779 0.56783 0.0
C422 C 0.92106 0.16621 0.54392 0.0
O423 O 0.92155 0.2211 0.55753 0.0
Tb424 Tb 0.95189 0.20927 0.54479 0.0
C425 C 0.98528 0.20403 0.57428 0.0
O426 O 0.89684 0.22009 0.58521 0.0
O427 O 0.96262 0.22707 0.51292 0.0
C428 C 0.95487 0.24732 0.50675 0.0
O429 O 0.93904 0.25562 0.51886 0.0
O430 O 0.91398 0.17645 0.56294 0.0
O431 O 0.93825 0.17545 0.53372 0.0
O432 O 0.8613 0.1745 0.53583 0.0
C433 C 0.91622 0.22812 0.5787 0.0
C434 C 0.85653 0.17076 0.60181 0.0
O435 O 0.97534 0.22334 0.57064 0.0
O436 O 0.97596 0.18754 0.56171 0.0
C437 C 0.85268 0.15262 0.53606 0.0
O438 O 0.85739 0.13968 0.55454 0.0
O439 O 0.87421 0.16141 0.59484 0.0
O440 O 0.1741 0.8661 0.50964 0.0
Tb441 Tb 0.16729 0.90225 0.51919 0.0
C442 C 0.12612 0.93141 0.52838 0.0
O443 O 0.18354 0.95877 0.50278 0.0
Tb444 Tb 0.16914 0.9612 0.53771 0.0
C445 C 0.16578 1.00701 0.54337 0.0
O446 O 0.19777 0.92275 0.50698 0.0
O447 O 0.19733 0.95364 0.56033 0.0
C448 C 0.21574 0.96469 0.55556 0.0
O449 O 0.21668 0.97771 0.53642 0.0
O450 O 0.13648 0.91909 0.51284 0.0
O451 O 0.13688 0.94523 0.54347 0.0
O452 O 0.15572 0.88501 0.5536 0.0
C453 C 0.19901 0.94457 0.49785 0.0
C454 C 0.16292 0.86569 0.48987 0.0
O455 O 0.16317 0.99593 0.52346 0.0
O456 O 0.16969 0.99218 0.56023 0.0
C457 C 0.13907 0.86934 0.55254 0.0
O458 O 0.13016 0.86599 0.53149 0.0
O459 O 0.15504 0.88615 0.48635 0.0
O460 O 0.15468 0.23022 0.58345 0.0
Tb461 Tb 0.183 0.22269 0.56285 0.0
C462 C 0.19498 0.25438 0.51902 0.0
O463 O 0.21324 0.18832 0.53308 0.0
Tb464 Tb 0.23427 0.21913 0.5362 0.0
C465 C 0.26012 0.21145 0.50013 0.0
O466 O 0.19975 0.19093 0.56974 0.0
O467 O 0.2535 0.20408 0.56822 0.0
C468 C 0.2668 0.18586 0.56591 0.0
O469 O 0.2682 0.1772 0.54451 0.0
O470 O 0.18089 0.23949 0.5281 0.0
O471 O 0.21612 0.25241 0.52496 0.0
O472 O 0.19682 0.24542 0.58994 0.0
C473 C 0.20491 0.1782 0.55173 0.0
C474 C 0.14262 0.21316 0.57524 0.0
O475 O 0.24035 0.20397 0.50184 0.0
O476 O 0.26539 0.22397 0.51871 0.0
C477 C 0.19167 0.2674 0.58986 0.0
O478 O 0.18406 0.27636 0.57007 0.0
O479 O 0.15323 0.20155 0.55986 0.0
H480 H 0.09262 0.42433 0.52666 0.0
H481 H 1.02651 0.40302 0.51299 0.0
H482 H 0.08775 0.41771 0.569 0.0
H483 H 1.02166 0.39598 0.55534 0.0
H484 H 0.07978 0.37576 0.63682 0.0
H485 H 0.08279 0.3841 0.59476 0.0
H486 H 1.02033 0.41474 0.59431 0.0
H487 H 1.01716 0.40605 0.63662 0.0
C488 C 0.077 0.41838 0.53276 0.0
C489 C 0.05996 0.41415 0.51657 0.0
C490 C 0.07424 0.4144 0.55699 0.0
C491 C 0.05436 0.40608 0.56557 0.0
C492 C 0.03712 0.40253 0.54938 0.0
C493 C 0.03992 0.40649 0.52512 0.0
C494 C 0.06663 0.38424 0.6278 0.0
C495 C 0.04828 0.39038 0.64015 0.0
C496 C 0.06843 0.38917 0.60367 0.0
C497 C 0.05194 0.40038 0.59118 0.0
C498 C 0.03331 0.40602 0.60337 0.0
C499 C 1.0315 0.40108 0.62762 0.0
H500 H 0.67989 0.06192 0.48603 0.0
H501 H 0.69732 0.98976 0.48785 0.0
H502 H 0.68063 0.06288 0.5291 0.0
H503 H 0.69719 0.99036 0.53112 0.0
H504 H 0.70897 1.0022 0.61071 0.0
H505 H 0.71313 1.00301 0.56763 0.0
H506 H 0.66074 0.05039 0.56126 0.0
H507 H 0.65749 0.0505 0.60389 0.0
C508 C 0.68376 0.04616 0.49561 0.0
C509 C 0.68834 1.02571 0.48331 0.0
C510 C 0.68407 0.04665 0.52047 0.0
C511 C 0.6887 1.02661 0.53396 0.0
C512 C 0.69374 1.00625 0.52159 0.0
C513 C 0.69365 1.00584 0.49666 0.0
C514 C 0.69869 1.01317 0.60012 0.0
C515 C 0.683 1.02641 0.61097 0.0
C516 C 0.70084 1.01339 0.57528 0.0
C517 C 0.6873 1.0268 0.56061 0.0
C518 C 0.67182 0.04017 0.57166 0.0
C519 C 0.66979 0.04005 0.59632 0.0
H520 H 0.06198 0.67039 0.6409 0.0
H521 H 1.01387 0.72191 0.62879 0.0
H522 H 0.064 0.66421 0.59832 0.0
H523 H 1.0165 0.7165 0.58624 0.0
H524 H 1.00994 0.68611 0.5123 0.0
H525 H 1.00758 0.6905 0.55517 0.0
H526 H 0.07593 0.68064 0.56244 0.0
H527 H 0.07796 0.67532 0.51971 0.0
C528 C 0.052 0.6806 0.62914 0.0
C529 C 0.03774 0.69662 0.63831 0.0
C530 C 0.05322 0.67713 0.60465 0.0
C531 C 0.04037 0.68977 0.58864 0.0
C532 C 1.02634 0.70605 0.5979 0.0
C533 C 1.02496 0.70932 0.62238 0.0
C534 C 1.02439 0.68469 0.52314 0.0
C535 C 0.04411 0.6803 0.51269 0.0
C536 C 1.02312 0.68742 0.54773 0.0
C537 C 0.04159 0.68609 0.56245 0.0
C538 C 0.06128 0.68146 0.55186 0.0
C539 C 0.06249 0.67851 0.52731 0.0
H540 H 0.36094 0.03713 0.45305 0.0
H541 H 0.42824 0.05753 0.45257 0.0
H542 H 0.36451 1.0269 0.4952 0.0
H543 H 0.43184 0.04707 0.49407 0.0
H544 H 0.41973 0.06544 0.57148 0.0
H545 H 0.4178 0.06738 0.52846 0.0
H546 H 0.3825 1.0014 0.52646 0.0
H547 H 0.38436 0.99957 0.56993 0.0
C548 C 0.37656 0.03879 0.46173 0.0
C549 C 0.39424 0.04835 0.44964 0.0
C550 C 0.37862 0.03296 0.48581 0.0
C551 C 0.39839 0.03659 0.49796 0.0
C552 C 0.41631 0.04458 0.48531 0.0
C553 C 0.41423 0.05051 0.4615 0.0
C554 C 0.41181 0.0512 0.56186 0.0
C555 C 0.4023 0.03232 0.57393 0.0
C556 C 0.41075 0.05225 0.53722 0.0
C557 C 0.40008 0.03446 0.52409 0.0
C558 C 0.39075 1.01537 0.53616 0.0
C559 C 0.39196 1.01424 0.56094 0.0
H560 H 0.48253 0.05868 0.43984 0.0
H561 H 0.49745 0.09602 0.3754 0.0
H562 H 0.52074 0.0542 0.44819 0.0
H563 H 0.53578 0.09126 0.38355 0.0
H564 H 0.60396 0.09241 0.41313 0.0
H565 H 0.56601 0.10187 0.41063 0.0
H566 H 0.5486 0.0311 0.4304 0.0
H567 H 0.58654 1.02179 0.43318 0.0
C568 C 0.49403 0.06615 0.42759 0.0
C569 C 0.48711 0.0776 0.40692 0.0
C570 C 0.51589 0.06346 0.4323 0.0
C571 C 0.53126 0.07219 0.41645 0.0
C572 C 0.52433 0.08451 0.39622 0.0
C573 C 0.50241 0.08718 0.39149 0.0
C574 C 0.59199 0.07901 0.41732 0.0
C575 C 0.5981 0.05637 0.42334 0.0
C576 C 0.5703 0.08438 0.41571 0.0
C577 C 0.55432 0.06722 0.42019 0.0
C578 C 0.56053 0.04478 0.42709 0.0
C579 C 0.58223 0.03941 0.42862 0.0
H580 H 0.03422 0.60299 0.42817 0.0
H581 H 0.09113 0.61182 0.38637 0.0
H582 H 0.0381 0.56119 0.42816 0.0
H583 H 0.09569 0.56957 0.38716 0.0
H584 H 0.08785 0.48966 0.37711 0.0
H585 H 0.08442 0.53193 0.37479 0.0
H586 H 0.05708 0.53137 0.44456 0.0
H587 H 0.05956 0.4893 0.44624 0.0
C588 C 0.04777 0.59603 0.41914 0.0
C589 C 0.06245 0.61102 0.40748 0.0
C590 C 0.05013 0.57183 0.41928 0.0
C591 C 0.06748 0.56156 0.40806 0.0
C592 C 0.08202 0.57655 0.39595 0.0
C593 C 0.07947 0.6009 0.39557 0.0
C594 C 0.0811 0.49859 0.39193 0.0
C595 C 0.07384 0.48587 0.41178 0.0
C596 C 0.07922 0.52299 0.39068 0.0
C597 C 0.07024 0.53548 0.40936 0.0
C598 C 0.06351 0.52265 0.42942 0.0
C599 C 0.06511 0.49834 0.4305 0.0
H600 H 0.46889 0.06017 0.70436 0.0
H601 H 0.46351 1.01409 0.64431 0.0
H602 H 0.50748 0.05704 0.705 0.0
H603 H 0.5026 1.01239 0.6434 0.0
H604 H 0.57377 0.99923 0.65668 0.0
H605 H 0.53472 1.00005 0.65705 0.0
H606 H 0.53918 0.06801 0.69003 0.0
H607 H 0.57815 0.06603 0.69117 0.0
C608 C 0.47599 0.04937 0.69115 0.0
C609 C 0.4629 0.03725 0.67442 0.0
C610 C 0.49842 0.04785 0.69122 0.0
C611 C 0.50883 0.03473 0.67403 0.0
C612 C 0.49561 1.02246 0.65726 0.0
C613 C 0.47301 1.02349 0.65764 0.0
C614 C 0.56632 1.01432 0.66404 0.0
C615 C 0.57912 0.03253 0.67397 0.0
C616 C 0.54376 1.01492 0.66412 0.0
C617 C 0.53317 0.03406 0.67367 0.0
C618 C 0.54623 0.05255 0.68309 0.0
C619 C 0.56878 0.05163 0.68353 0.0
H620 H 0.9954 0.48158 0.70525 0.0
H621 H 0.05716 0.48469 0.67177 0.0
H622 H 0.99347 0.52393 0.70214 0.0
H623 H 0.05539 0.527 0.66893 0.0
H624 H 0.04152 0.60394 0.66002 0.0
H625 H 0.03624 0.56196 0.653 0.0
H626 H 1.01606 0.55266 0.72533 0.0
H627 H 1.02123 0.59422 0.73222 0.0
C628 C 1.00832 0.4913 0.69679 0.0
C629 C 1.02658 0.4801 0.6891 0.0
C630 C 1.00725 0.51546 0.69506 0.0
C631 C 1.02442 0.52867 0.68559 0.0
C632 C 0.0419 0.51721 0.67619 0.0
C633 C 0.04298 0.49306 0.67797 0.0
C634 C 0.03583 0.59282 0.67427 0.0
C635 C 1.03193 0.60209 0.69668 0.0
C636 C 0.03278 0.56893 0.67026 0.0
C637 C 1.02557 0.55418 0.68856 0.0
C638 C 1.02123 0.56369 0.71077 0.0
C639 C 1.02444 0.58742 0.7148 0.0
H640 H 0.41008 0.52129 1.00904 0.0
H641 H 0.37178 0.51398 0.0716 0.0
H642 H 0.40845 0.56359 1.01166 0.0
H643 H 0.37016 0.55657 0.07434 0.0
H644 H 0.40396 0.63147 0.08597 0.0
H645 H 0.39596 0.58958 0.08337 0.0
H646 H 0.38398 0.59659 1.0081 0.0
H647 H 0.392 0.63858 1.01092 0.0
C648 C 0.4012 0.52875 1.02331 0.0
C649 C 0.39116 0.51428 0.04018 0.0
C650 C 0.40009 0.55304 0.02469 0.0
C651 C 0.38905 0.56359 0.04313 0.0
C652 C 0.37884 0.54907 0.05995 0.0
C653 C 0.37976 0.52468 0.05839 0.0
C654 C 0.39866 0.62417 0.06909 0.0
C655 C 0.39808 0.63832 0.04875 0.0
C656 C 0.39421 0.60012 0.06754 0.0
C657 C 0.38958 0.58958 0.04547 0.0
C658 C 0.38775 0.60405 0.02533 0.0
C659 C 0.39202 0.62815 0.02696 0.0
H660 H 0.46125 0.45461 0.02646 0.0
H661 H 0.46591 0.37978 1.02384 0.0
H662 H 0.5002 0.45892 0.02624 0.0
H663 H 0.50518 0.38424 1.02258 0.0
H664 H 0.57491 0.40814 0.9992 0.0
H665 H 0.53569 0.4033 0.9958 0.0
H666 H 0.52918 0.44719 0.057 0.0
H667 H 0.56828 0.45166 0.06065 0.0
C668 C 0.47056 0.43903 0.02547 0.0
C669 C 0.46039 0.41679 0.0248 0.0
C670 C 0.49289 0.44156 0.02536 0.0
C671 C 0.50569 0.42194 0.02441 0.0
C672 C 0.49564 0.39968 1.023 0.0
C673 C 0.47317 0.39712 1.02343 0.0
C674 C 0.56505 0.41691 1.01177 0.0
C675 C 0.57456 0.43041 0.03011 0.0
C676 C 0.54267 0.41397 1.00993 0.0
C677 C 0.52943 0.42486 0.02613 0.0
C678 C 0.539 0.43872 0.04417 0.0
C679 C 0.56134 0.44129 0.04627 0.0
H680 H 0.64254 0.50522 0.02967 0.0
H681 H 0.70339 0.49993 0.06676 0.0
H682 H 0.64769 0.54789 0.02834 0.0
H683 H 0.70891 0.5423 0.06442 0.0
H684 H 0.71758 0.61854 0.03006 0.0
H685 H 0.71271 0.57577 0.02929 0.0
H686 H 0.65173 0.58123 0.06315 0.0
H687 H 0.65695 0.62368 0.06486 0.0
C688 C 0.65712 0.51304 0.03729 0.0
C689 C 0.6725 0.49888 0.04834 0.0
C690 C 0.66006 0.53757 0.03657 0.0
C691 C 0.67879 0.54867 0.04618 0.0
C692 C 0.69438 0.53446 0.05668 0.0
C693 C 0.69114 0.51007 0.05807 0.0
C694 C 0.70312 0.61064 0.03731 0.0
C695 C 0.68772 0.62474 0.04759 0.0
C696 C 0.70035 0.58608 0.03692 0.0
C697 C 0.68175 0.57492 0.04608 0.0
C698 C 0.66616 0.5891 0.05581 0.0
C699 C 0.66923 0.61351 0.05686 0.0
H700 H 0.61382 0.6902 0.12374 0.0
H701 H 0.59679 0.65813 0.05657 0.0
H702 H 0.57726 0.68265 0.13743 0.0
H703 H 0.56039 0.65073 0.07005 0.0
H704 H 0.49717 0.63823 0.09225 0.0
H705 H 0.53536 0.63164 0.09838 0.0
H706 H 0.54482 0.70269 0.12239 0.0
H707 H 0.50664 0.70908 0.11669 0.0
C708 C 0.60233 0.68115 0.11211 0.0
C709 C 0.60779 0.67511 0.08897 0.0
C710 C 0.58153 0.67675 0.11999 0.0
C711 C 0.56605 0.66612 0.10484 0.0
C712 C 0.57207 0.65862 0.08229 0.0
C713 C 0.59279 0.66314 0.0744 0.0
C714 C 0.50732 0.65211 0.09972 0.0
C715 C 0.49933 0.67437 0.10327 0.0
C716 C 0.52911 0.64833 0.10325 0.0
C717 C 0.54304 0.66684 0.11019 0.0
C718 C 0.53444 0.68811 0.11695 0.0
C719 C 0.51261 0.69186 0.11352 0.0
H720 H 0.58866 0.89296 0.03549 0.0
H721 H 0.52783 0.92644 0.02865 0.0
H722 H 0.58391 0.88913 0.07796 0.0
H723 H 0.52352 0.92415 0.0715 0.0
H724 H 0.51179 0.89359 0.14578 0.0
H725 H 0.5157 0.89945 0.1031 0.0
H726 H 0.5845 0.90814 0.11351 0.0
H727 H 0.58052 0.90073 0.15551 0.0
C728 C 0.57446 0.89994 0.04323 0.0
C729 C 0.55865 0.91003 0.02888 0.0
C730 C 0.57173 0.89791 0.06766 0.0
C731 C 0.55334 0.90645 0.07845 0.0
C732 C 0.53771 0.91699 0.06395 0.0
C733 C 0.54025 0.91854 0.0394 0.0
C734 C 0.52767 0.89685 0.13879 0.0
C735 C 0.54584 0.89645 0.15382 0.0
C736 C 0.52997 0.90034 0.11435 0.0
C737 C 0.55049 0.90401 0.10459 0.0
C738 C 0.5685 0.90462 0.12004 0.0
C739 C 0.56623 0.90057 0.14424 0.0
H740 H 0.17239 0.56698 0.09921 0.0
H741 H 0.19106 0.49533 0.09973 0.0
H742 H 0.17438 0.56808 0.05635 0.0
H743 H 0.19165 0.49565 0.05642 0.0
H744 H 0.20467 0.50665 0.97789 0.0
H745 H 0.20645 0.50639 1.021 0.0
H746 H 0.15713 0.55778 1.02217 0.0
H747 H 0.1566 0.55906 0.97913 0.0
C748 C 0.17683 0.55135 0.09004 0.0
C749 C 0.18145 0.53105 0.1029 0.0
C750 C 0.17772 0.55185 0.06528 0.0
C751 C 0.18271 0.53182 0.05237 0.0
C752 C 0.18791 0.51158 0.0654 0.0
C753 C 0.18751 0.51129 0.09035 0.0
C754 C 0.19429 0.51799 0.9874 0.0
C755 C 0.18057 0.53299 0.97495 0.0
C756 C 0.19517 0.51772 1.01229 0.0
C757 C 0.18201 0.53211 0.02559 0.0
C758 C 0.16803 0.54684 1.01295 0.0
C759 C 0.16753 0.54747 0.98808 0.0
H760 H 0.59489 0.1875 0.02497 0.0
H761 H 0.52728 0.16923 1.01945 0.0
H762 H 0.59161 0.1935 0.06758 0.0
H763 H 0.524 0.17473 0.06209 0.0
H764 H 0.52017 0.21567 0.13076 0.0
H765 H 0.52472 0.20719 0.08908 0.0
H766 H 0.58487 0.17479 0.10573 0.0
H767 H 0.58045 0.18368 0.14771 0.0
C768 C 0.57939 0.18443 0.03295 0.0
C769 C 0.56132 0.17797 1.0189 0.0
C770 C 0.57752 0.18779 0.0574 0.0
C771 C 0.5575 0.1848 0.06831 0.0
C772 C 0.53958 0.17761 0.05425 0.0
C773 C 0.54147 0.17427 0.02984 0.0
C774 C 0.53439 0.20672 0.12562 0.0
C775 C 0.54991 0.2003 0.14265 0.0
C776 C 0.53693 0.2017 0.10166 0.0
C777 C 0.55506 0.19008 0.09398 0.0
C778 C 0.57076 0.18389 0.11097 0.0
C779 C 0.56821 0.18893 0.13505 0.0
H780 H 0.90899 0.60057 0.94242 0.0
H781 H 0.88303 0.53014 0.94183 0.0
H782 H 0.90533 0.60205 0.9855 0.0
H783 H 0.87921 0.53144 0.98494 0.0
H784 H 0.91037 0.53128 0.06005 0.0
H785 H 0.90681 0.53191 1.01699 0.0
H786 H 0.88081 0.6007 1.01993 0.0
H787 H 0.88452 0.60006 0.06329 0.0
C788 C 0.90185 0.5857 0.95154 0.0
C789 C 0.89598 0.56537 0.939 0.0
C790 C 0.89977 0.5865 0.97615 0.0
C791 C 0.89218 0.56678 0.98867 0.0
C792 C 0.88537 0.54681 0.97584 0.0
C793 C 0.88734 0.54609 0.9512 0.0
C794 C 0.9039 0.54654 0.05151 0.0
C795 C 0.89785 0.56568 0.06497 0.0
C796 C 0.90163 0.54681 0.02685 0.0
C797 C 0.89335 0.56628 1.01503 0.0
C798 C 0.88731 0.58548 0.02852 0.0
C799 C 0.88944 0.58513 0.05329 0.0
H800 H 0.9852 0.60519 0.91433 0.0
H801 H 0.99969 0.59094 0.84138 0.0
H802 H 1.02352 0.60588 0.92453 0.0
H803 H 0.0381 0.59233 0.85155 0.0
H804 H 0.10733 0.60573 0.88049 0.0
H805 H 0.07082 0.6189 0.87269 0.0
H806 H 0.04598 0.56572 0.91991 0.0
H807 H 0.08239 0.55202 0.92711 0.0
C808 C 0.99661 0.60319 0.9003 0.0
C809 C 0.98957 0.5977 0.87712 0.0
C810 C 1.01847 0.60348 0.90619 0.0
C811 C 0.03357 0.5989 0.88885 0.0
C812 C 1.02667 0.59596 0.86518 0.0
C813 C 1.00476 0.59518 0.85937 0.0
C814 C 0.09408 0.59715 0.88953 0.0
C815 C 0.09753 0.57784 0.90437 0.0
C816 C 0.07329 0.60468 0.88503 0.0
C817 C 0.05576 0.5934 0.89585 0.0
C818 C 0.05935 0.57486 0.91163 0.0
C819 C 0.08008 0.56696 0.91566 0.0
H820 H 0.57095 0.10168 0.87945 0.0
H821 H 0.56587 0.10461 0.95526 0.0
H822 H 0.57304 0.05971 0.88125 0.0
H823 H 0.56605 0.06236 0.9574 0.0
H824 H 0.57551 0.98433 0.95995 0.0
H825 H 0.57683 1.02659 0.95837 0.0
H826 H 0.56199 1.02356 0.8831 0.0
H827 H 0.56266 0.98144 0.88483 0.0
C828 C 0.57005 0.09325 0.89661 0.0
C829 C 0.5683 0.10678 0.91718 0.0
C830 C 0.57099 0.06875 0.89774 0.0
C831 C 0.56946 0.05644 0.9195 0.0
C832 C 0.56771 0.07029 0.94014 0.0
C833 C 0.56747 0.0949 0.939 0.0
C834 C 0.5727 0.99279 0.94304 0.0
C835 C 0.56911 0.97923 0.92252 0.0
C836 C 0.57323 1.0174 0.94204 0.0
C837 C 0.56948 0.02966 0.92056 0.0
C838 C 0.56558 1.01575 0.90009 0.0
C839 C 0.56576 0.99117 0.90101 0.0
H840 H 0.97044 0.58364 0.15073 0.0
H841 H 0.96586 0.51786 0.18792 0.0
H842 H 1.00949 0.58158 0.15105 0.0
H843 H 1.0052 0.51562 0.18777 0.0
H844 H 0.07314 0.50985 0.15237 0.0
H845 H 0.03401 0.51186 0.15469 0.0
H846 H 0.04092 0.58187 0.18191 0.0
H847 H 0.08013 0.57965 0.1801 0.0
C848 C 0.97776 0.56868 0.15897 0.0
C849 C 0.96495 0.55082 0.16916 0.0
C850 C 1.00018 0.5676 0.15925 0.0
C851 C 1.01046 0.54842 0.16935 0.0
C852 C 0.99772 0.53055 0.17969 0.0
C853 C 0.97522 0.53188 0.17986 0.0
C854 C 0.0663 0.52569 0.15879 0.0
C855 C 0.07972 0.54465 0.16591 0.0
C856 C 0.0439 0.52676 0.16031 0.0
C857 C 0.03435 0.54698 0.16856 0.0
C858 C 0.04778 0.56606 0.17541 0.0
C859 C 0.07022 0.56482 0.17435 0.0
H860 H 0.53407 0.98533 0.16955 0.0
H861 H 0.5593 0.99818 0.2403 0.0
H862 H 0.53908 1.02696 0.16008 0.0
H863 H 0.56447 0.03934 0.23086 0.0
H864 H 0.58853 0.107 0.20389 0.0
H865 H 0.5874 0.0645 0.20322 0.0
H866 H 0.52213 0.06471 0.17602 0.0
H867 H 0.52327 0.10738 0.17659 0.0
C868 C 0.54078 0.99705 0.18296 0.0
C869 C 0.54626 0.98873 0.20564 0.0
C870 C 0.54364 1.02073 0.17756 0.0
C871 C 0.55238 0.0362 0.19467 0.0
C872 C 0.55806 1.0277 0.21722 0.0
C873 C 0.55493 1.00421 0.22269 0.0
C874 C 0.57414 0.09798 0.19719 0.0
C875 C 0.55587 0.11033 0.19062 0.0
C876 C 0.57348 0.07371 0.19688 0.0
C877 C 0.55458 0.06144 0.18992 0.0
C878 C 0.53691 0.07382 0.1814 0.0
C879 C 0.53753 0.09817 0.1818 0.0
H880 H 0.90926 1.02244 0.4923 0.0
H881 H 0.92799 1.02008 0.56628 0.0
H882 H 0.90527 0.06449 0.49491 0.0
H883 H 0.92457 0.06229 0.56886 0.0
H884 H 0.90094 0.13464 0.57304 0.0
H885 H 0.8983 0.09253 0.56811 0.0
H886 H 0.92716 0.09952 0.49938 0.0
H887 H 0.92897 0.1417 0.50397 0.0
C888 C 0.91272 0.03099 0.50908 0.0
C889 C 0.91906 1.01807 0.52907 0.0
C890 C 0.91043 0.05508 0.51058 0.0
C891 C 0.91448 0.06679 0.53211 0.0
C892 C 0.92092 0.05378 0.5521 0.0
C893 C 0.92315 0.02965 0.5506 0.0
C894 C 0.90598 0.12729 0.55652 0.0
C895 C 0.91508 0.14155 0.53886 0.0
C896 C 0.90484 0.10307 0.55387 0.0
C897 C 0.9129 0.09257 0.53355 0.0
C898 C 0.92073 0.10697 0.51524 0.0
C899 C 0.92181 0.13118 0.51788 0.0
H900 H 0.09922 0.89697 0.50938 0.0
H901 H 0.09723 0.96172 0.54759 0.0
H902 H 0.05998 0.89369 0.50931 0.0
H903 H 0.05781 0.95868 0.54706 0.0
H904 H 0.98639 0.95646 0.5179 0.0
H905 H 1.02569 0.95994 0.51881 0.0
H906 H 1.02909 0.88711 0.53682 0.0
H907 H 0.98985 0.88375 0.53652 0.0
C908 C 0.09048 0.91061 0.51776 0.0
C909 C 0.10175 0.92964 0.5285 0.0
C910 C 0.06781 0.90865 0.51781 0.0
C911 C 0.05537 0.92589 0.52815 0.0
C912 C 0.06661 0.94506 0.53873 0.0
C913 C 0.08936 0.94677 0.53914 0.0
C914 C 0.99542 0.94111 0.52205 0.0
C915 C 0.98451 0.91973 0.52698 0.0
C916 C 1.01812 0.94316 0.52271 0.0
C917 C 1.03092 0.92383 0.52785 0.0
C918 C 1.02003 0.90242 0.53257 0.0
C919 C 0.99733 0.90048 0.53242 0.0
H920 H 0.16086 0.03946 0.50861 0.0
H921 H 0.17672 0.03191 0.58299 0.0
H922 H 0.1693 0.08121 0.51107 0.0
H923 H 0.1856 0.07357 0.58543 0.0
H924 H 0.18256 0.15319 0.58497 0.0
H925 H 0.17093 0.11229 0.5833 0.0
H926 H 0.20175 0.10551 0.51588 0.0
H927 H 0.21303 0.14651 0.51732 0.0
C928 C 0.16592 0.04681 0.52554 0.0
C929 C 0.16815 0.03252 0.54561 0.0
C930 C 0.17096 0.07066 0.52691 0.0
C931 C 0.17837 0.08068 0.54838 0.0
C932 C 0.1798 0.06645 0.56867 0.0
C933 C 0.17474 0.0426 0.56728 0.0
C934 C 0.18691 0.14296 0.56981 0.0
C935 C 0.19869 0.15312 0.55124 0.0
C936 C 0.18028 0.1195 0.56889 0.0
C937 C 0.18529 0.10567 0.5494 0.0
C938 C 0.19727 0.11579 0.53095 0.0
C939 C 0.20388 0.13925 0.53186 0.0
H940 H 0.11454 0.18169 0.55498 0.0
H941 H 0.11989 0.23449 0.60919 0.0
H942 H 0.07624 0.17708 0.56195 0.0
H943 H 0.08159 0.22933 0.61694 0.0
H944 H 1.01074 0.23989 0.59083 0.0
H945 H 0.04949 0.2396 0.5967 0.0
H946 H 0.04791 0.16486 0.58705 0.0
H947 H 1.00914 0.16544 0.58018 0.0
C948 C 0.10754 0.19197 0.56873 0.0
C949 C 0.12003 0.20863 0.58134 0.0
C950 C 0.08561 0.18919 0.57294 0.0
C951 C 0.07574 0.20287 0.59002 0.0
C952 C 0.08858 0.21876 0.60343 0.0
C953 C 0.1105 0.22167 0.59906 0.0
C954 C 1.01862 0.22333 0.59062 0.0
C955 C 1.00708 0.20275 0.58461 0.0
C956 C 0.04087 0.22311 0.59407 0.0
C957 C 0.05194 0.20225 0.5918 0.0
C958 C 0.03997 0.18132 0.58825 0.0
C959 C 1.01774 0.18159 0.58456 0.0
H960 H 0.15745 0.25163 0.49197 0.0
H961 H 0.20802 0.30198 0.50832 0.0
H962 H 0.13811 0.2807 0.46929 0.0
H963 H 0.18841 0.33159 0.4854 0.0
H964 H 0.13814 0.38739 0.46111 0.0
H965 H 0.15984 0.35819 0.48091 0.0
H966 H 0.13042 0.30505 0.43635 0.0
H967 H 0.10859 0.33466 0.41631 0.0
C968 C 0.16483 0.26889 0.49065 0.0
C969 C 0.18496 0.27354 0.50244 0.0
C970 C 0.15344 0.28597 0.47723 0.0
C971 C 0.161 0.30941 0.47478 0.0
C972 C 0.1813 0.31419 0.48644 0.0
C973 C 0.19297 0.29683 0.49966 0.0
C974 C 0.13625 0.36955 0.45507 0.0
C975 C 0.12117 0.36424 0.43638 0.0
C976 C 0.14907 0.35241 0.4667 0.0
C977 C 0.1476 0.32836 0.46093 0.0
C978 C 0.13253 0.32294 0.44209 0.0
C979 C 0.11988 0.34027 0.43012 0.0
H980 H 0.8533 0.10755 0.52163 0.0
H981 H 0.8178 0.16939 0.50759 0.0
H982 H 0.82754 0.08456 0.49815 0.0
H983 H 0.79125 0.14587 0.48373 0.0
H984 H 0.7532 0.09137 0.42908 0.0
H985 H 0.77934 0.1194 0.4481 0.0
H986 H 0.79275 0.06856 0.50228 0.0
H987 H 0.76755 0.04138 0.48387 0.0
C988 C 0.84009 0.11651 0.51325 0.0
C989 C 0.83819 0.14074 0.51683 0.0
C990 C 0.82489 0.10303 0.49976 0.0
C991 C 0.80648 0.11273 0.489 0.0
C992 C 0.80495 0.1373 0.49149 0.0
C993 C 0.82042 0.151 0.50518 0.0
C994 C 0.76168 0.08617 0.44507 0.0
C995 C 0.75786 0.06345 0.4544 0.0
C996 C 0.77682 0.10242 0.45616 0.0
C997 C 0.789 0.09659 0.47689 0.0
C998 C 0.78462 0.07412 0.4862 0.0
C999 C 0.76967 0.05823 0.47541 0.0
H1000 H 0.04183 0.76477 0.41479 0.0
H1001 H 0.98704 0.71862 0.42371 0.0
H1002 H 1.02278 0.7958 0.43522 0.0
H1003 H 0.96802 0.74921 0.44352 0.0
H1004 H 0.92993 0.81204 0.47322 0.0
H1005 H 0.94811 0.78343 0.44861 0.0
H1006 H 1.00949 0.81368 0.46988 0.0
H1007 H 0.99148 0.84176 0.49425 0.0
C1008 C 1.02558 0.7611 0.42043 0.0
C1009 C 1.01644 0.73835 0.41663 0.0
C1010 C 1.01442 0.77918 0.43273 0.0
C1011 C 0.99314 0.77603 0.44182 0.0
C1012 C 0.98394 0.75351 0.43719 0.0
C1013 C 0.99516 0.7355 0.42542 0.0
C1014 C 0.94728 0.81307 0.47245 0.0
C1015 C 0.95866 0.83032 0.48622 0.0
C1016 C 0.95806 0.79609 0.45825 0.0
C1017 C 0.98099 0.79523 0.45645 0.0
C1018 C 0.99212 0.81292 0.4698 0.0
C1019 C 0.98145 0.82948 0.48418 0.0
H1020 H 0.28501 0.04042 0.40716 0.0
H1021 H 0.32635 0.98589 0.43048 0.0
H1022 H 0.25487 1.02062 0.42744 0.0
H1023 H 0.29704 0.9667 0.45088 0.0
H1024 H 0.23877 0.92573 0.48253 0.0
H1025 H 0.26779 0.94454 0.45987 0.0
H1026 H 0.23258 1.00795 0.45665 0.0
H1027 H 0.2038 0.98907 0.47856 0.0
C1028 C 0.28792 1.0242 0.41634 0.0
C1029 C 0.30895 1.01527 0.41641 0.0
C1030 C 0.27033 1.0126 0.4285 0.0
C1031 C 0.27248 0.99128 0.44161 0.0
C1032 C 0.29352 0.9825 0.4413 0.0
C1033 C 0.31089 0.99397 0.42928 0.0
C1034 C 0.23701 0.94364 0.47695 0.0
C1035 C 0.21808 0.95526 0.48292 0.0
C1036 C 0.2541 0.95487 0.46377 0.0
C1037 C 0.25358 0.97857 0.45563 0.0
C1038 C 0.23452 0.98994 0.46166 0.0
C1039 C 0.21756 0.97878 0.47471 0.0
H1040 H 0.12058 0.82595 0.54856 0.0
H1041 H 0.13563 0.87655 0.60294 0.0
H1042 H 0.10162 0.80157 0.57662 0.0
H1043 H 0.11576 0.85173 0.63177 0.0
H1044 H 0.08475 0.79019 0.6817 0.0
H1045 H 0.10867 0.8153 0.65705 0.0
H1046 H 0.06944 0.79792 0.59554 0.0
H1047 H 0.04654 0.77322 0.61937 0.0
C1048 C 0.11997 0.83209 0.56665 0.0
C1049 C 0.13 0.85379 0.57281 0.0
C1050 C 0.10864 0.81787 0.58307 0.0
C1051 C 0.10617 0.8243 0.60702 0.0
C1052 C 0.11692 0.84566 0.61373 0.0
C1053 C 0.12854 0.86008 0.59703 0.0
C1054 C 0.08141 0.79143 0.66285 0.0
C1055 C 0.06332 0.77899 0.65299 0.0
C1056 C 0.09515 0.80622 0.64854 0.0
C1057 C 0.09165 0.80903 0.62363 0.0
C1058 C 0.07361 0.79641 0.61417 0.0
C1059 C 0.06005 0.78202 0.62825 0.0
H1060 H 0.33763 0.10515 0.68517 0.0
H1061 H 0.36934 0.09447 0.61922 0.0
H1062 H 0.3125 0.13142 0.66438 0.0
H1063 H 0.34471 0.11923 0.59898 0.0
H1064 H 0.30933 0.17617 0.56217 0.0
H1065 H 0.33306 0.15347 0.58684 0.0
H1066 H 0.28323 0.14406 0.63815 0.0
H1067 H 0.25934 0.16806 0.6131 0.0
C1068 C 0.33952 0.10818 0.66638 0.0
C1069 C 0.35641 0.09709 0.65455 0.0
C1070 C 0.32479 0.12346 0.65414 0.0
C1071 C 0.32602 0.12869 0.62934 0.0
C1072 C 0.34273 0.11717 0.61786 0.0
C1073 C 0.35724 0.10226 0.62988 0.0
C1074 C 0.30327 0.16979 0.57892 0.0
C1075 C 0.28201 0.17499 0.58517 0.0
C1076 C 0.3171 0.15599 0.5933 0.0
C1077 C 0.31072 0.14556 0.61506 0.0
C1078 C 0.28951 0.15126 0.62187 0.0
C1079 C 0.27557 0.16547 0.60735 0.0
H1080 H 0.94867 0.25896 0.56498 0.0
H1081 H 0.91832 0.2343 0.62835 0.0
H1082 H 0.97419 0.28222 0.58829 0.0
H1083 H 0.94326 0.25891 0.65232 0.0
H1084 H 1.00109 0.29584 0.69404 0.0
H1085 H 0.97369 0.27219 0.67217 0.0
H1086 H 0.98784 0.3115 0.60871 0.0
H1087 H 1.01537 0.33371 0.63016 0.0
C1088 C 0.94726 0.25853 0.58405 0.0
C1089 C 0.9313 0.24392 0.5943 0.0
C1090 C 0.96205 0.27245 0.59784 0.0
C1091 C 0.96155 0.27335 0.62301 0.0
C1092 C 0.94506 0.2591 0.63331 0.0
C1093 C 0.93035 0.24486 0.61936 0.0
C1094 C 0.99812 0.29964 0.67548 0.0
C1095 C 1.01081 0.31717 0.66425 0.0
C1096 C 0.98222 0.28581 0.6626 0.0
C1097 C 0.978 0.28889 0.63784 0.0
C1098 C 0.99029 0.30719 0.62718 0.0
C1099 C 1.00625 0.32056 0.63984 0.0
H1100 H 0.79248 0.98718 0.66445 0.0
H1101 H 0.75491 0.98209 0.60002 0.0
H1102 H 0.82173 0.96675 0.64515 0.0
H1103 H 0.78366 0.96152 0.58093 0.0
H1104 H 0.83701 0.91324 0.54965 0.0
H1105 H 0.80678 0.93025 0.57066 0.0
H1106 H 0.85147 0.96478 0.61883 0.0
H1107 H 0.88127 0.94824 0.59781 0.0
C1108 C 0.78986 0.98126 0.64641 0.0
C1109 C 0.77003 0.98638 0.63468 0.0
C1110 C 0.80721 0.96953 0.63483 0.0
C1111 C 0.80617 0.96167 0.61065 0.0
C1112 C 0.78613 0.96643 0.5993 0.0
C1113 C 0.7691 0.97848 0.61064 0.0
C1114 C 0.84065 0.92408 0.56494 0.0
C1115 C 0.86265 0.92844 0.57155 0.0
C1116 C 0.82288 0.93438 0.57721 0.0
C1117 C 0.82554 0.94958 0.59734 0.0
C1118 C 0.84754 0.95339 0.60404 0.0
C1119 C 0.86516 0.94357 0.59159 0.0
H1120 H 0.47582 0.21067 0.27039 0.0
H1121 H 0.49579 0.14435 0.24487 0.0
H1122 H 0.4481 0.19032 0.29406 0.0
H1123 H 0.46879 0.12437 0.26821 0.0
H1124 H 0.41105 0.08756 0.30473 0.0
H1125 H 0.4352 0.10963 0.27825 0.0
H1126 H 0.43519 0.16813 0.3258 0.0
H1127 H 0.41118 0.14621 0.35176 0.0
C1128 C 0.47455 0.19185 0.2696 0.0
C1129 C 0.48889 0.1798 0.25508 0.0
C1130 C 0.45839 0.17982 0.28352 0.0
C1131 C 0.4553 0.15497 0.2837 0.0
C1132 C 0.46959 0.1432 0.26901 0.0
C1133 C 0.48566 0.15507 0.25539 0.0
C1134 C 0.41553 0.10538 0.30929 0.0
C1135 C 0.40808 0.11476 0.33074 0.0
C1136 C 0.43005 0.11823 0.29407 0.0
C1137 C 0.43811 0.14136 0.29923 0.0
C1138 C 0.42988 0.15086 0.32023 0.0
C1139 C 0.41565 0.13801 0.3354 0.0
H1140 H 0.04634 0.48617 0.33057 0.0
H1141 H 1.00643 0.42417 0.33818 0.0
H1142 H 1.01918 0.50383 0.30622 0.0
H1143 H 0.97814 0.44258 0.31348 0.0
H1144 H 0.93814 0.4797 0.24832 0.0
H1145 H 0.96239 0.4579 0.27519 0.0
H1146 H 0.98801 0.52299 0.30303 0.0
H1147 H 0.96468 0.5441 0.27642 0.0
C1148 C 1.03159 0.47608 0.3274 0.0
C1149 C 1.02932 0.45331 0.33718 0.0
C1150 C 1.01547 0.48662 0.31317 0.0
C1151 C 0.99549 0.47537 0.30737 0.0
C1152 C 0.99294 0.4524 0.31704 0.0
C1153 C 1.00933 0.44171 0.33165 0.0
C1154 C 0.94862 0.4894 0.2605 0.0
C1155 C 0.94881 0.51419 0.25973 0.0
C1156 C 0.96289 0.47674 0.27607 0.0
C1157 C 0.97823 0.48812 0.29165 0.0
C1158 C 0.9775 0.5128 0.29132 0.0
C1159 C 0.96354 0.52524 0.27592 0.0
H1160 H 0.63084 0.96932 0.38396 0.0
H1161 H 0.68113 0.98035 0.33362 0.0
H1162 H 0.61042 0.94528 0.35545 0.0
H1163 H 0.66041 0.95618 0.30466 0.0
H1164 H 0.60737 0.9324 0.24865 0.0
H1165 H 0.63013 0.95305 0.27771 0.0
H1166 H 0.60357 0.90994 0.33312 0.0
H1167 H 0.58062 0.88892 0.30355 0.0
C1168 C 0.63784 0.96659 0.36682 0.0
C1169 C 0.65817 0.97725 0.36177 0.0
C1170 C 0.62589 0.95241 0.3502 0.0
C1171 C 0.63318 0.94818 0.32705 0.0
C1172 C 0.65363 0.95873 0.32192 0.0
C1173 C 0.66585 0.97267 0.33883 0.0
C1174 C 0.60637 0.92687 0.26696 0.0
C1175 C 0.59176 0.90837 0.27306 0.0
C1176 C 0.61977 0.93894 0.28395 0.0
C1177 C 0.61929 0.93376 0.30848 0.0
C1178 C 0.60478 0.91508 0.31472 0.0
C1179 C 0.59154 0.90261 0.29751 0.0
H1180 H 0.09415 0.60106 0.33286 0.0
H1181 H 0.11361 0.66741 0.30349 0.0
H1182 H 0.11651 0.58114 0.30527 0.0
H1183 H 0.13662 0.64723 0.2755 0.0
H1184 H 0.16371 0.60427 0.21224 0.0
H1185 H 0.14486 0.62567 0.24218 0.0
H1186 H 0.14588 0.56543 0.2878 0.0
H1187 H 0.16473 0.54385 0.25725 0.0
C1188 C 0.10334 0.61179 0.32067 0.0
C1189 C 0.1014 0.63651 0.32138 0.0
C1190 C 0.11665 0.59996 0.30443 0.0
C1191 C 0.12919 0.61173 0.2871 0.0
C1192 C 0.12754 0.63663 0.28786 0.0
C1193 C 0.11422 0.64861 0.30445 0.0
C1194 C 0.16054 0.59547 0.22887 0.0
C1195 C 0.16691 0.57192 0.23168 0.0
C1196 C 0.14932 0.60807 0.24647 0.0
C1197 C 0.14303 0.59812 0.26845 0.0
C1198 C 0.14972 0.57456 0.27157 0.0
C1199 C 0.16121 0.56193 0.25387 0.0
H1200 H 0.54548 0.95718 0.81321 0.0
H1201 H 0.49418 0.93601 0.85922 0.0
H1202 H 0.52064 0.97695 0.78754 0.0
H1203 H 0.46854 0.95675 0.83293 0.0
H1204 H 0.42439 0.99016 0.76897 0.0
H1205 H 0.44654 0.96542 0.79547 0.0
H1206 H 0.50186 1.00965 0.78115 0.0
H1207 H 0.48046 0.03327 0.75511 0.0
C1208 C 0.52878 0.95661 0.81819 0.0
C1209 C 0.52266 0.94449 0.83914 0.0
C1210 C 0.51413 0.96852 0.8031 0.0
C1211 C 0.49187 0.96964 0.80757 0.0
C1212 C 0.48528 0.95686 0.82818 0.0
C1213 C 0.50022 0.94468 0.84354 0.0
C1214 C 0.44136 0.99442 0.77109 0.0
C1215 C 0.45011 1.01425 0.75897 0.0
C1216 C 0.45428 0.98017 0.78678 0.0
C1217 C 0.47676 0.98468 0.79107 0.0
C1218 C 0.48515 1.0044 0.77871 0.0
C1219 C 0.47243 1.01847 0.76344 0.0
H1220 H 0.07929 0.44997 0.75386 0.0
H1221 H 0.10566 0.38588 0.77941 0.0
H1222 H 0.10051 0.47185 0.78305 0.0
H1223 H 0.12778 0.40841 0.80889 0.0
H1224 H 0.17947 0.46584 0.84415 0.0
H1225 H 0.15959 0.44026 0.81543 0.0
H1226 H 0.10268 0.47931 0.82575 0.0
H1227 H 0.12203 0.50411 0.85425 0.0
C1228 C 0.08957 0.44024 0.76572 0.0
C1229 C 0.09009 0.41561 0.76378 0.0
C1230 C 0.10197 0.45311 0.78281 0.0
C1231 C 0.11625 0.44241 0.79896 0.0
C1232 C 0.11723 0.41773 0.79699 0.0
C1233 C 0.10428 0.40461 0.78001 0.0
C1234 C 0.16273 0.46907 0.84031 0.0
C1235 C 0.15277 0.48761 0.85199 0.0
C1236 C 0.15113 0.45411 0.82379 0.0
C1237 C 0.12913 0.4573 0.8177 0.0
C1238 C 0.11943 0.47593 0.82933 0.0
C1239 C 0.13076 0.49038 0.84603 0.0
H1240 H 0.69229 0.09197 0.74363 0.0
H1241 H 0.6375 0.04624 0.73142 0.0
H1242 H 0.67208 0.11311 0.77372 0.0
H1243 H 0.61738 0.06707 0.76036 0.0
H1244 H 0.58142 0.09813 0.82121 0.0
H1245 H 0.60428 0.0784 0.79455 0.0
H1246 H 0.64676 0.13885 0.79219 0.0
H1247 H 0.62327 0.15903 0.82004 0.0
C1248 C 0.67619 0.0857 0.7476 0.0
C1249 C 0.66742 0.06611 0.73472 0.0
C1250 C 0.66411 0.09839 0.765 0.0
C1251 C 0.64226 0.09258 0.77087 0.0
C1252 C 0.63385 0.07287 0.75793 0.0
C1253 C 0.64577 0.06044 0.74071 0.0
C1254 C 0.59554 0.10779 0.81532 0.0
C1255 C 0.59948 0.13099 0.82381 0.0
C1256 C 0.60908 0.09605 0.79923 0.0
C1257 C 0.62815 0.10624 0.78962 0.0
C1258 C 0.63262 0.12946 0.79836 0.0
C1259 C 0.61883 0.1414 0.81479 0.0
H1260 H 0.97969 0.71066 0.77748 0.0
H1261 H 0.98685 0.64682 0.739 0.0
H1262 H 0.95512 0.68971 0.80483 0.0
H1263 H 0.96261 0.6266 0.76517 0.0
H1264 H 0.93196 0.58512 0.82404 0.0
H1265 H 0.95629 0.60838 0.80004 0.0
H1266 H 0.9213 0.66987 0.81577 0.0
H1267 H 0.89713 0.64615 0.84108 0.0
C1268 C 0.97624 0.69227 0.77467 0.0
C1269 C 0.98589 0.6809 0.75547 0.0
C1270 C 0.96183 0.68006 0.79047 0.0
C1271 C 0.95645 0.6558 0.78806 0.0
C1272 C 0.96615 0.64481 0.76878 0.0
C1273 C 0.98028 0.65683 0.75321 0.0
C1274 C 0.92935 0.60363 0.82281 0.0
C1275 C 0.91219 0.61324 0.83519 0.0
C1276 C 0.94342 0.61727 0.80841 0.0
C1277 C 0.94125 0.64161 0.80499 0.0
C1278 C 0.9241 0.65143 0.81752 0.0
C1279 C 0.90992 0.63762 0.83214 0.0
H1280 H 0.2455 0.48076 0.09681 0.0
H1281 H 0.27661 0.47351 0.16494 0.0
H1282 H 0.27273 0.45758 0.07859 0.0
H1283 H 0.3043 0.45001 0.14655 0.0
H1284 H 0.36429 0.42626 0.10409 0.0
H1285 H 0.33519 0.44493 0.124 0.0
H1286 H 0.29192 0.42475 0.06684 0.0
H1287 H 0.32153 0.40571 0.04674 0.0
C1288 C 0.25797 0.474 0.10832 0.0
C1289 C 0.25779 0.4795 0.133 0.0
C1290 C 0.27402 0.4603 0.09752 0.0
C1291 C 0.29174 0.45112 0.11032 0.0
C1292 C 0.29156 0.45636 0.13519 0.0
C1293 C 0.27516 0.46991 0.14615 0.0
C1294 C 0.34853 0.42512 0.09565 0.0
C1295 C 0.34619 0.41351 0.07334 0.0
C1296 C 0.33138 0.43623 0.10742 0.0
C1297 C 0.31019 0.4372 0.09778 0.0
C1298 C 0.30754 0.42518 0.07557 0.0
C1299 C 0.32483 0.41363 0.06386 0.0
H1300 H 0.29613 0.66386 0.0317 0.0
H1301 H 0.34728 0.6355 0.99203 0.0
H1302 H 0.26969 0.64178 1.00715 0.0
H1303 H 0.32098 0.61357 0.96718 0.0
H1304 H 0.26653 0.5832 0.91658 0.0
H1305 H 0.29165 0.611 0.93689 0.0
H1306 H 0.25595 0.60238 1.00109 0.0
H1307 H 0.23139 0.57464 0.98098 0.0
C1308 C 0.30181 0.65366 1.01713 0.0
C1309 C 0.32414 0.65256 1.01351 0.0
C1310 C 0.28652 0.64048 1.00313 0.0
C1311 C 0.29272 0.62545 0.98471 0.0
C1312 C 0.31508 0.62495 0.98067 0.0
C1313 C 0.33036 0.63784 0.99494 0.0
C1314 C 0.26365 0.58771 0.93483 0.0
C1315 C 0.24628 0.57675 0.94671 0.0
C1316 C 0.27838 0.60354 0.94676 0.0
C1317 C 0.27626 0.60946 0.97103 0.0
C1318 C 0.25842 0.59898 0.98251 0.0
C1319 C 0.24408 0.5829 0.97079 0.0
H1320 H 0.50221 0.20754 0.95559 0.0
H1321 H 0.52315 0.25601 0.90204 0.0
H1322 H 0.47963 0.2366 0.97244 0.0
H1323 H 0.50005 0.28558 0.91894 0.0
H1324 H 0.46494 0.34353 0.96007 0.0
H1325 H 0.4862 0.31407 0.94195 0.0
H1326 H 0.45268 0.26106 0.98212 0.0
H1327 H 0.43124 0.29118 1.00072 0.0
C1328 C 0.50211 0.22439 0.94693 0.0
C1329 C 0.5153 0.22823 0.92669 0.0
C1330 C 0.48861 0.24162 0.95695 0.0
C1331 C 0.48695 0.26469 0.94788 0.0
C1332 C 0.50011 0.26869 0.92746 0.0
C1333 C 0.51367 0.25121 0.91726 0.0
C1334 C 0.46162 0.32564 0.96529 0.0
C1335 C 0.44541 0.3209 0.98247 0.0
C1336 C 0.47427 0.30814 0.95443 0.0
C1337 C 0.47219 0.28391 0.95971 0.0
C1338 C 0.45581 0.27894 0.97685 0.0
C1339 C 0.44294 0.29665 0.98775 0.0
H1340 H 0.8314 0.54081 0.97178 0.0
H1341 H 0.79468 0.52977 0.90713 0.0
H1342 H 0.80623 0.51654 0.99325 0.0
H1343 H 0.76897 0.50436 0.92909 0.0
H1344 H 0.71547 0.47707 0.98551 0.0
H1345 H 0.73991 0.49858 0.95852 0.0
H1346 H 0.79374 0.48007 1.00314 0.0
H1347 H 0.76957 0.45954 0.02979 0.0
C1348 C 0.81802 0.533 0.96179 0.0
C1349 C 0.81573 0.53771 0.9372 0.0
C1350 C 0.80333 0.51856 0.97441 0.0
C1351 C 0.78506 0.50761 0.96346 0.0
C1352 C 0.78255 0.51217 0.9387 0.0
C1353 C 0.79759 0.52673 0.92584 0.0
C1354 C 0.73259 0.47699 0.98918 0.0
C1355 C 0.74024 0.46576 1.01 0.0
C1356 C 0.74681 0.48967 0.97365 0.0
C1357 C 0.76934 0.49196 0.9783 0.0
C1358 C 0.77678 0.4798 0.99862 0.0
C1359 C 0.76272 0.46739 1.01399 0.0
H1360 H 0.69126 0.77836 1.01134 0.0
H1361 H 0.63512 0.73394 1.0011 0.0
H1362 H 0.67312 0.80982 0.98966 0.0
H1363 H 0.61718 0.76494 0.97946 0.0
H1364 H 0.58916 0.82197 0.92746 0.0
H1365 H 0.60843 0.79003 0.94712 0.0
H1366 H 0.6484 0.8403 0.98505 0.0
H1367 H 0.62917 0.87176 0.96574 0.0
C1368 C 0.67515 0.77489 1.00445 0.0
C1369 C 0.6653 0.75254 1.0086 0.0
C1370 C 0.66435 0.79342 0.99182 0.0
C1371 C 0.64297 0.79103 0.98199 0.0
C1372 C 0.6334 0.76854 0.98593 0.0
C1373 C 0.644 0.75027 0.99879 0.0
C1374 C 0.60224 0.82647 0.93967 0.0
C1375 C 0.60719 0.85049 0.94411 0.0
C1376 C 0.61346 0.80773 0.95149 0.0
C1377 C 0.63074 0.81146 0.96841 0.0
C1378 C 0.63577 0.83551 0.97239 0.0
C1379 C 0.62439 0.85408 0.96098 0.0
H1380 H 0.86122 0.62946 0.16531 0.0
H1381 H 0.82818 0.56324 0.1563 0.0
H1382 H 0.83195 0.64893 0.14465 0.0
H1383 H 0.79855 0.58265 0.13554 0.0
H1384 H 0.75898 0.61893 0.07566 0.0
H1385 H 0.78503 0.60006 0.10123 0.0
H1386 H 0.79778 0.66496 0.13766 0.0
H1387 H 0.77136 0.68409 0.11147 0.0
C1388 C 0.84732 0.61893 0.15973 0.0
C1389 C 0.84735 0.59447 0.16383 0.0
C1390 C 0.83024 0.63032 0.14745 0.0
C1391 C 0.81206 0.61799 0.13771 0.0
C1392 C 0.81187 0.59344 0.14217 0.0
C1393 C 0.82895 0.58206 0.15478 0.0
C1394 C 0.767 0.62944 0.08926 0.0
C1395 C 0.76225 0.65347 0.09097 0.0
C1396 C 0.78226 0.61829 0.10435 0.0
C1397 C 0.79432 0.63035 0.12227 0.0
C1398 C 0.78944 0.65446 0.12431 0.0
C1399 C 0.77381 0.66565 0.10924 0.0
H1400 H 0.5254 0.78348 0.16309 0.0
H1401 H 0.47969 0.83426 0.18282 0.0
H1402 H 0.49754 0.76132 0.14181 0.0
H1403 H 0.4511 0.81158 0.16098 0.0
H1404 H 0.40955 0.77069 0.0973 0.0
H1405 H 0.43475 0.79631 0.12075 0.0
H1406 H 0.46737 0.73582 0.14617 0.0
H1407 H 0.44244 0.71089 0.12383 0.0
C1408 C 0.50928 0.79002 0.16323 0.0
C1409 C 0.50541 0.811 0.17545 0.0
C1410 C 0.49294 0.77697 0.15079 0.0
C1411 C 0.47136 0.78399 0.14923 0.0
C1412 C 0.46725 0.80514 0.16132 0.0
C1413 C 0.48379 0.8182 0.17428 0.0
C1414 C 0.42199 0.76279 0.10798 0.0
C1415 C 0.42385 0.73817 0.1076 0.0
C1416 C 0.43667 0.77766 0.12163 0.0
C1417 C 0.45399 0.7687 0.13551 0.0
C1418 C 0.4551 0.74412 0.13557 0.0
C1419 C 0.44052 0.72951 0.12234 0.0
H1420 H 0.60108 0.27726 0.18126 0.0
H1421 H 0.54819 0.30675 0.14257 0.0
H1422 H 0.62598 0.30547 0.16146 0.0
H1423 H 0.57234 0.33391 0.12315 0.0
H1424 H 0.61313 0.39672 0.10351 0.0
H1425 H 0.59256 0.36804 0.12546 0.0
H1426 H 0.64566 0.32186 0.12501 0.0
H1427 H 0.66693 0.35149 0.10256 0.0
C1428 C 0.59448 0.28971 0.16888 0.0
C1429 C 0.57192 0.28914 0.16421 0.0
C1430 C 0.60901 0.30603 0.15711 0.0
C1431 C 0.6018 0.32294 0.14028 0.0
C1432 C 0.5793 0.32214 0.13597 0.0
C1433 C 0.56508 0.30597 0.14735 0.0
C1434 C 0.6209 0.3806 0.10786 0.0
C1435 C 0.6423 0.37729 0.10053 0.0
C1436 C 0.60865 0.36359 0.12066 0.0
C1437 C 0.61664 0.34161 0.12736 0.0
C1438 C 0.63833 0.33821 0.12063 0.0
C1439 C 0.65076 0.35547 0.10751 0.0
H1440 H 0.94795 0.74844 0.6755 0.0
H1441 H 0.99099 0.80722 0.68993 0.0
H1442 H 0.92548 0.77295 0.65058 0.0
H1443 H 0.96934 0.83153 0.66416 0.0
H1444 H 0.92809 0.87356 0.6182 0.0
H1445 H 0.93814 0.85094 0.6531 0.0
H1446 H 0.93043 0.78759 0.61207 0.0
H1447 H 0.91929 0.81029 0.57769 0.0
C1448 C 0.95231 0.76677 0.6737 0.0
C1449 C 0.97123 0.77598 0.68435 0.0
C1450 C 0.93958 0.78076 0.65926 0.0
C1451 C 0.94582 0.8041 0.65487 0.0
C1452 C 0.96387 0.8137 0.6672 0.0
C1453 C 0.97638 0.79978 0.68196 0.0
C1454 C 0.92813 0.85474 0.6169 0.0
C1455 C 0.9232 0.84358 0.59531 0.0
C1456 C 0.93399 0.84178 0.63682 0.0
C1457 C 0.93544 0.81745 0.63539 0.0
C1458 C 0.92925 0.80625 0.61402 0.0
C1459 C 0.92302 0.81923 0.5942 0.0
H1460 H 0.3431 0.98004 0.6265 0.0
H1461 H 0.30649 0.04103 0.63938 0.0
H1462 H 0.31079 0.96029 0.60941 0.0
H1463 H 0.27416 1.02113 0.62315 0.0
H1464 H 0.21613 0.973 0.60348 0.0
H1465 H 0.24756 0.98438 0.62843 0.0
H1466 H 0.28916 0.97143 0.57008 0.0
H1467 H 0.25781 0.96092 0.54508 0.0
C1468 C 0.328 0.98889 0.62654 0.0
C1469 C 0.32732 1.01203 0.63455 0.0
C1470 C 0.30953 0.97767 0.61655 0.0
C1471 C 0.28983 0.9891 0.61493 0.0
C1472 C 0.28894 1.0117 0.62433 0.0
C1473 C 0.30748 1.02311 0.63367 0.0
C1474 C 0.23204 0.97188 0.59627 0.0
C1475 C 0.23449 0.96576 0.57239 0.0
C1476 C 0.25003 0.97861 0.61047 0.0
C1477 C 0.27093 0.97879 0.60128 0.0
C1478 C 0.27339 0.97126 0.57784 0.0
C1479 C 0.25541 0.96519 0.5635 0.0
H1480 H 0.1016 0.29002 0.6933 0.0
H1481 H 0.13697 0.35583 0.69529 0.0
H1482 H 0.13056 0.27302 0.67094 0.0
H1483 H 0.16596 0.3389 0.67349 0.0
H1484 H 0.18288 0.31289 0.59746 0.0
H1485 H 0.16464 0.32847 0.63133 0.0
H1486 H 0.1691 0.26222 0.66731 0.0
H1487 H 0.18744 0.24655 0.63333 0.0
C1488 C 0.11591 0.30055 0.68974 0.0
C1489 C 0.11699 0.32425 0.69568 0.0
C1490 C 0.13251 0.29087 0.67696 0.0
C1491 C 0.15038 0.30479 0.67011 0.0
C1492 C 0.15223 0.32788 0.67811 0.0
C1493 C 0.13567 0.33752 0.69067 0.0
C1494 C 0.18061 0.30186 0.61288 0.0
C1495 C 0.18644 0.27846 0.61257 0.0
C1496 C 0.17016 0.31079 0.63236 0.0
C1497 C 0.1652 0.29646 0.65191 0.0
C1498 C 0.17249 0.27357 0.65238 0.0
C1499 C 0.18319 0.2647 0.63298 0.0
H1500 H 0.85937 0.12917 0.62493 0.0
H1501 H 0.81601 0.18476 0.60965 0.0
H1502 H 0.83003 0.10643 0.64274 0.0
H1503 H 0.78664 0.16198 0.62736 0.0
H1504 H 0.73791 0.09709 0.62833 0.0
H1505 H 0.76629 0.12467 0.61552 0.0
H1506 H 0.80496 0.10673 0.67688 0.0
H1507 H 0.77682 0.07937 0.68958 0.0
C1508 C 0.84368 0.13669 0.62583 0.0
C1509 C 0.83996 0.15869 0.61598 0.0
C1510 C 0.82688 0.1237 0.63599 0.0
C1511 C 0.80601 0.1324 0.63627 0.0
C1512 C 0.80249 0.15476 0.62714 0.0
C1513 C 0.81935 0.16785 0.61722 0.0
C1514 C 0.75234 0.09938 0.63921 0.0
C1515 C 0.75524 0.08605 0.65983 0.0
C1516 C 0.76854 0.11515 0.63194 0.0
C1517 C 0.7879 0.11767 0.64514 0.0
C1518 C 0.79036 0.10493 0.66621 0.0
C1519 C 0.77418 0.08935 0.67351 0.0
H1520 H 0.94847 0.29319 0.49649 0.0
H1521 H 0.98726 0.2353 0.47754 0.0
H1522 H 0.97149 0.31938 0.47364 0.0
H1523 H 1.00994 0.26141 0.45398 0.0
H1524 H 0.06308 0.3203 0.45689 0.0
H1525 H 0.0364 0.29007 0.46568 0.0
H1526 H 0.98649 0.33328 0.43701 0.0
H1527 H 1.01345 0.36402 0.42873 0.0
C1528 C 0.96157 0.28593 0.48692 0.0
C1529 C 0.96625 0.26221 0.48921 0.0
C1530 C 0.97473 0.30096 0.47363 0.0
C1531 C 0.9928 0.29261 0.46217 0.0
C1532 C 0.99644 0.26854 0.46297 0.0
C1533 C 0.98338 0.25353 0.47641 0.0
C1534 C 0.04648 0.32317 0.45194 0.0
C1535 C 0.04033 0.34466 0.44244 0.0
C1536 C 1.03112 0.30572 0.45684 0.0
C1537 C 1.00918 0.30928 0.45234 0.0
C1538 C 1.00321 0.33011 0.44106 0.0
C1539 C 1.01866 0.34764 0.43609 0.0
H1540 H 0.74865 0.94822 0.44821 0.0
H1541 H 0.78379 0.98769 0.39572 0.0
H1542 H 0.78202 0.93146 0.46268 0.0
H1543 H 0.81715 0.97056 0.40975 0.0
H1544 H 0.87173 0.96594 0.46595 0.0
H1545 H 0.83918 0.97617 0.44468 0.0
H1546 H 0.81254 0.90681 0.45633 0.0
H1547 H 0.84534 0.8966 0.47824 0.0
C1548 C 0.76346 0.95287 0.43938 0.0
C1549 C 0.76362 0.96939 0.42093 0.0
C1550 C 0.78262 0.94319 0.44762 0.0
C1551 C 0.8024 0.94981 0.43759 0.0
C1552 C 0.8023 0.96535 0.4182 0.0
C1553 C 0.78316 0.97506 0.41001 0.0
C1554 C 0.85909 0.95269 0.46379 0.0
C1555 C 0.86118 0.93044 0.47397 0.0
C1556 C 0.84039 0.95854 0.45135 0.0
C1557 C 0.82311 0.94236 0.44871 0.0
C1558 C 0.82543 0.91979 0.45819 0.0
C1559 C 0.8443 0.91386 0.47059 0.0
H1560 H 0.06448 0.77202 0.45116 0.0
H1561 H 0.11685 0.72581 0.44103 0.0
H1562 H 0.08974 0.80451 0.45698 0.0
H1563 H 0.1426 0.7588 0.4476 0.0
H1564 H 0.1711 0.82008 0.5006 0.0
H1565 H 0.15198 0.78537 0.48467 0.0
H1566 H 0.11766 0.82863 0.43505 0.0
H1567 H 0.13667 0.86315 0.45088 0.0
C1568 C 0.08144 0.76885 0.44972 0.0
C1569 C 0.08862 0.74631 0.4454 0.0
C1570 C 0.09597 0.78757 0.45305 0.0
C1571 C 0.11819 0.78431 0.45266 0.0
C1572 C 0.12554 0.76184 0.44796 0.0
C1573 C 0.11084 0.74303 0.44405 0.0
C1574 C 0.15994 0.82206 0.48582 0.0
C1575 C 0.15526 0.84436 0.47711 0.0
C1576 C 0.14902 0.80217 0.47667 0.0
C1577 C 0.13314 0.80428 0.45877 0.0
C1578 C 0.12964 0.82645 0.449 0.0
C1579 C 0.14059 0.84623 0.45802 0.0
H1580 H 0.30415 0.21609 0.49929 0.0
H1581 H 0.24925 0.18639 0.46112 0.0
H1582 H 0.32813 0.19591 0.47279 0.0
H1583 H 0.27278 0.16584 0.43536 0.0
H1584 H 0.31676 0.13724 0.38398 0.0
H1585 H 0.29801 0.1673 0.40494 0.0
H1586 H 0.33864 0.15648 0.46676 0.0
H1587 H 0.358 0.12714 0.44523 0.0
C1588 C 0.29724 0.20561 0.48497 0.0
C1589 C 0.27487 0.20277 0.48224 0.0
C1590 C 0.31094 0.19386 0.46995 0.0
C1591 C 0.30246 0.17911 0.45193 0.0
C1592 C 0.28002 0.17728 0.44868 0.0
C1593 C 0.26644 0.18898 0.4636 0.0
C1594 C 0.32192 0.14164 0.4019 0.0
C1595 C 0.33865 0.12974 0.41309 0.0
C1596 C 0.3111 0.15876 0.414 0.0
C1597 C 0.3165 0.1641 0.43775 0.0
C1598 C 0.3341 0.15303 0.44847 0.0
C1599 C 0.34513 0.13609 0.4362 0.0
H1600 H 0.63245 0.93608 0.85454 0.0
H1601 H 0.59157 0.89091 0.81113 0.0
H1602 H 0.64948 0.95169 0.81946 0.0
H1603 H 0.60941 0.9057 0.77563 0.0
H1604 H 0.62204 0.96458 0.72012 0.0
H1605 H 0.60977 0.9394 0.75221 0.0
H1606 H 0.67173 0.94838 0.7875 0.0
H1607 H 0.6834 0.97468 0.756 0.0
C1608 C 0.62754 0.92898 0.83745 0.0
C1609 C 0.61061 0.91236 0.83558 0.0
C1610 C 0.63744 0.93784 0.8172 0.0
C1611 C 0.63086 0.93013 0.79445 0.0
C1612 C 0.61469 0.91244 0.79273 0.0
C1613 C 0.60459 0.90374 0.81309 0.0
C1614 C 0.63318 0.96074 0.73448 0.0
C1615 C 0.6536 0.97182 0.73567 0.0
C1616 C 0.62617 0.94619 0.75295 0.0
C1617 C 0.63956 0.94208 0.77287 0.0
C1618 C 0.66066 0.95166 0.77292 0.0
C1619 C 0.66748 0.96656 0.75472 0.0
H1620 H 0.104 0.65881 0.74292 0.0
H1621 H 0.06558 0.65955 0.80571 0.0
H1622 H 0.13209 0.63864 0.76502 0.0
H1623 H 0.09372 0.63961 0.82779 0.0
H1624 H 0.15219 0.61222 0.86567 0.0
H1625 H 0.1325 0.64159 0.84324 0.0
H1626 H 0.13186 0.59741 0.78153 0.0
H1627 H 0.15109 0.56794 0.80405 0.0
C1628 C 0.10176 0.65526 0.76158 0.0
C1629 C 0.08245 0.66075 0.7725 0.0
C1630 C 0.11783 0.64355 0.7742 0.0
C1631 C 0.11514 0.63742 0.79815 0.0
C1632 C 0.09643 0.64425 0.80944 0.0
C1633 C 0.08024 0.65562 0.79674 0.0
C1634 C 0.14853 0.60914 0.84709 0.0
C1635 C 0.15328 0.58776 0.8366 0.0
C1636 C 0.13703 0.62587 0.83431 0.0
C1637 C 0.13047 0.62179 0.81063 0.0
C1638 C 0.13678 0.60122 0.79965 0.0
C1639 C 0.14786 0.58432 0.81255 0.0
H1640 H 0.49054 0.13391 0.85566 0.0
H1641 H 0.51067 0.1886 0.80759 0.0
H1642 H 0.46197 0.12189 0.82816 0.0
H1643 H 0.48123 0.17735 0.78023 0.0
H1644 H 0.45131 0.12515 0.72536 0.0
H1645 H 0.47373 0.1467 0.75378 0.0
H1646 H 0.42902 0.12861 0.80906 0.0
H1647 H 0.40713 0.10588 0.78052 0.0
C1648 C 0.48854 0.14367 0.83934 0.0
C1649 C 0.50292 0.16199 0.83357 0.0
C1650 C 0.47196 0.13694 0.82362 0.0
C1651 C 0.4692 0.1486 0.80186 0.0
C1652 C 0.48307 0.16771 0.79664 0.0
C1653 C 0.49988 0.17425 0.8123 0.0
C1654 C 0.44604 0.12617 0.7435 0.0
C1655 C 0.42768 0.1136 0.75087 0.0
C1656 C 0.45886 0.1387 0.75983 0.0
C1657 C 0.45343 0.13916 0.78389 0.0
C1658 C 0.434 0.12814 0.7908 0.0
C1659 C 0.42133 0.11531 0.77446 0.0
H1660 H 0.92524 0.50127 0.79897 0.0
H1661 H 0.95241 0.48635 0.86819 0.0
H1662 H 0.94338 0.46835 0.78265 0.0
H1663 H 0.97 0.4527 0.85202 0.0
H1664 H 1.02697 0.43277 0.80405 0.0
H1665 H 1.00046 0.45115 0.82784 0.0
H1666 H 0.95038 0.42793 0.77847 0.0
H1667 H 0.97733 0.41004 0.7541 0.0
C1668 C 0.93462 0.49056 0.81086 0.0
C1669 C 0.93779 0.49674 0.83476 0.0
C1670 C 0.9449 0.47146 0.80153 0.0
C1671 C 0.95844 0.45797 0.81593 0.0
C1672 C 0.96007 0.463 0.8403 0.0
C1673 C 0.94995 0.48226 0.84959 0.0
C1674 C 1.01022 0.43097 0.79862 0.0
C1675 C 1.00429 0.42042 0.77696 0.0
C1676 C 0.99491 0.44142 0.81239 0.0
C1677 C 0.97326 0.4415 0.80485 0.0
C1678 C 0.967 0.42866 0.7845 0.0
C1679 C 0.9824 0.41818 0.77066 0.0
H1680 H 0.56601 0.15338 0.30982 0.0
H1681 H 0.6099 0.15437 0.25165 0.0
H1682 H 0.59141 0.13093 0.33363 0.0
H1683 H 0.63503 0.13123 0.27527 0.0
H1684 H 0.64617 0.05698 0.31474 0.0
H1685 H 0.62897 0.08735 0.29115 0.0
H1686 H 0.63165 0.13299 0.35172 0.0
H1687 H 0.64954 0.10285 0.37514 0.0
C1688 C 0.5813 0.14926 0.30232 0.0
C1689 C 0.586 0.15584 0.27891 0.0
C1690 C 0.59585 0.1364 0.31596 0.0
C1691 C 0.61521 0.12927 0.30632 0.0
C1692 C 0.62025 0.13649 0.28318 0.0
C1693 C 0.60593 0.1499 0.26973 0.0
C1694 C 0.64376 0.07379 0.32278 0.0
C1695 C 0.64946 0.07759 0.34671 0.0
C1696 C 0.63388 0.09116 0.30928 0.0
C1697 C 0.6289 0.11254 0.31959 0.0
C1698 C 0.63531 0.1167 0.34329 0.0
C1699 C 0.64573 0.09952 0.35662 0.0
H1700 H 1.01388 0.68469 0.30211 0.0
H1701 H 0.99377 0.63224 0.35265 0.0
H1702 H 0.98692 0.66983 0.27362 0.0
H1703 H 0.96714 0.61684 0.32395 0.0
H1704 H 0.91097 0.60299 0.2745 0.0
H1705 H 0.93412 0.62403 0.30305 0.0
H1706 H 0.981 0.6365 0.24867 0.0
H1707 H 0.95749 0.61598 0.22002 0.0
C1708 C 1.00359 0.67002 0.30715 0.0
C1709 C 1.00591 0.65959 0.32957 0.0
C1710 C 0.98823 0.6614 0.29076 0.0
C1711 C 0.97487 0.64205 0.29637 0.0
C1712 C 0.97691 0.63197 0.31909 0.0
C1713 C 0.99224 0.64069 0.33553 0.0
C1714 C 0.92603 0.61068 0.26856 0.0
C1715 C 0.93244 0.60788 0.24505 0.0
C1716 C 0.93941 0.62252 0.28498 0.0
C1717 C 0.95959 0.63173 0.27831 0.0
C1718 C 0.96551 0.62985 0.25444 0.0
C1719 C 0.95204 0.61809 0.23797 0.0
H1720 H 0.47507 0.93422 0.25214 0.0
H1721 H 0.51429 0.93652 0.31611 0.0
H1722 H 0.44866 0.95821 0.27109 0.0
H1723 H 0.48791 0.96045 0.33499 0.0
H1724 H 0.4334 0.998 0.3672 0.0
H1725 H 0.45037 0.96449 0.34948 0.0
H1726 H 0.45176 1.00028 0.28209 0.0
H1727 H 0.43496 0.03363 0.29974 0.0
C1728 C 0.4778 0.93928 0.27045 0.0
C1729 C 0.49693 0.93362 0.28253 0.0
C1730 C 0.46271 0.95318 0.28124 0.0
C1731 C 0.46627 0.96147 0.30446 0.0
C1732 C 0.48458 0.95427 0.31714 0.0
C1733 C 0.49977 0.9406 0.30627 0.0
C1734 C 0.43679 0.99843 0.34846 0.0
C1735 C 0.43295 1.01853 0.3349 0.0
C1736 C 0.44667 0.9793 0.33836 0.0
C1737 C 0.45256 0.97976 0.31441 0.0
C1738 C 0.44729 0.99923 0.30052 0.0
C1739 C 0.43773 1.01842 0.31067 0.0
H1740 H 0.18892 0.47418 0.23439 0.0
H1741 H 0.12312 0.47038 0.20882 0.0
H1742 H 0.17886 0.45025 0.26874 0.0
H1743 H 0.11307 0.44707 0.24296 0.0
H1744 H 0.09889 0.39814 0.30169 0.0
H1745 H 0.11525 0.41105 0.26467 0.0
H1746 H 0.15829 0.45774 0.30402 0.0
H1747 H 0.14226 0.44442 0.3409 0.0
C1748 C 0.17245 0.46784 0.23582 0.0
C1749 C 0.1568 0.47434 0.21898 0.0
C1750 C 0.16663 0.4543 0.25559 0.0
C1751 C 0.1451 0.44683 0.25875 0.0
C1752 C 0.12982 0.45222 0.24108 0.0
C1753 C 0.13558 0.4658 0.22152 0.0
C1754 C 0.11217 0.41076 0.30241 0.0
C1755 C 0.11919 0.42042 0.32413 0.0
C1756 C 0.12147 0.41828 0.28121 0.0
C1757 C 0.13795 0.43566 0.28129 0.0
C1758 C 0.14581 0.4442 0.30323 0.0
C1759 C 0.13652 0.43667 0.3244 0.0
H1760 H 0.79019 0.7075 1.02072 0.0
H1761 H 0.74585 0.68721 0.96423 0.0
H1762 H 0.82031 0.69561 0.99666 0.0
H1763 H 0.77555 0.67529 0.9404 0.0
H1764 H 0.85333 0.62995 0.96192 0.0
H1765 H 0.83146 0.65627 0.98455 0.0
H1766 H 0.80778 0.6865 0.91921 0.0
H1767 H 0.82907 0.65973 0.89675 0.0
C1768 C 0.78697 0.70109 1.00293 0.0
C1769 C 0.76578 0.6981 0.99429 0.0
C1770 C 0.80415 0.69417 0.98926 0.0
C1771 C 0.80032 0.68445 0.96668 0.0
C1772 C 0.77914 0.683 0.95757 0.0
C1773 C 0.76206 0.68968 0.97127 0.0
C1774 C 0.84392 0.64271 0.9525 0.0
C1775 C 0.84248 0.64259 0.92768 0.0
C1776 C 0.83147 0.65786 0.96542 0.0
C1777 C 0.81758 0.67315 0.95361 0.0
C1778 C 0.81797 0.67457 0.92877 0.0
C1779 C 0.83018 0.6593 0.91593 0.0
H1780 H 0.73534 0.46516 0.12878 0.0
H1781 H 0.76962 0.41957 0.08334 0.0
H1782 H 0.76931 0.48418 0.14145 0.0
H1783 H 0.80359 0.43839 0.09613 0.0
H1784 H 0.84807 0.50507 0.09113 0.0
H1785 H 0.81795 0.47743 0.0866 0.0
H1786 H 0.80576 0.48233 0.16145 0.0
H1787 H 0.83646 0.51026 0.16592 0.0
C1788 C 0.75018 0.45875 0.12201 0.0
C1789 C 0.74977 0.44093 0.10495 0.0
C1790 C 0.76969 0.46963 0.12933 0.0
C1791 C 0.78923 0.46303 0.11964 0.0
C1792 C 0.78885 0.44415 0.10374 0.0
C1793 C 0.76937 0.43323 0.09651 0.0
C1794 C 0.83932 0.49978 0.10677 0.0
C1795 C 0.84472 0.50965 0.12891 0.0
C1796 C 0.82205 0.48385 0.10419 0.0
C1797 C 0.80936 0.47754 0.12365 0.0
C1798 C 0.81517 0.48684 0.14608 0.0
C1799 C 0.83285 0.50261 0.14873 0.0
H1800 H 0.6264 0.84508 0.18947 0.0
H1801 H 0.58821 0.78244 0.20205 0.0
H1802 H 0.65012 0.82346 0.16448 0.0
H1803 H 0.61194 0.76064 0.17656 0.0
H1804 H 0.66425 0.72579 0.13456 0.0
H1805 H 0.64906 0.7462 0.16818 0.0
H1806 H 0.64279 0.80778 0.12471 0.0
H1807 H 0.65777 0.78746 0.0914 0.0
C1808 C 0.62333 0.82652 0.18727 0.0
C1809 C 0.60536 0.81547 0.19756 0.0
C1810 C 0.63688 0.81416 0.17283 0.0
C1811 C 0.63276 0.7904 0.16819 0.0
C1812 C 0.61564 0.77891 0.17987 0.0
C1813 C 0.60203 0.79136 0.19445 0.0
C1814 C 0.66028 0.74393 0.1325 0.0
C1815 C 0.66236 0.75512 0.1104 0.0
C1816 C 0.65131 0.7555 0.15164 0.0
C1817 C 0.64462 0.7786 0.14915 0.0
C1818 C 0.64797 0.79011 0.12741 0.0
C1819 C 0.65658 0.77848 0.10827 0.0
H1820 H 0.31427 0.68363 0.12126 0.0
H1821 H 0.35435 0.6241 0.11428 0.0
H1822 H 0.28662 0.65899 0.1396 0.0
H1823 H 0.32661 0.59937 0.13272 0.0
H1824 H 0.23318 0.60012 0.13556 0.0
H1825 H 0.26212 0.62706 0.12326 0.0
H1826 H 0.30645 0.59259 0.17049 0.0
H1827 H 0.27758 0.56575 0.18276 0.0
C1828 C 0.31734 0.66534 0.12408 0.0
C1829 C 0.33642 0.65572 0.11633 0.0
C1830 C 0.30143 0.65123 0.13439 0.0
C1831 C 0.30435 0.62724 0.13733 0.0
C1832 C 0.32396 0.61784 0.13077 0.0
C1833 C 0.33985 0.63197 0.12026 0.0
C1834 C 0.24905 0.59853 0.14348 0.0
C1835 C 0.25316 0.58091 0.16008 0.0
C1836 C 0.26559 0.61395 0.13653 0.0
C1837 C 0.28656 0.61188 0.14592 0.0
C1838 C 0.29052 0.59447 0.16283 0.0
C1839 C 0.27396 0.57922 0.16993 0.0
H1840 H 0.39762 0.32474 0.10143 0.0
H1841 H 0.45463 0.36905 0.09721 0.0
H1842 H 0.41307 0.30462 0.13547 0.0
H1843 H 0.47067 0.34822 0.13073 0.0
H1844 H 0.49306 0.31021 0.19645 0.0
H1845 H 0.47136 0.33662 0.17228 0.0
H1846 H 0.44067 0.27711 0.13738 0.0
H1847 H 0.46178 0.25116 0.16169 0.0
C1848 C 0.41342 0.33029 0.10798 0.0
C1849 C 0.4251 0.34817 0.09658 0.0
C1850 C 0.42232 0.31872 0.12741 0.0
C1851 C 0.44328 0.32449 0.13557 0.0
C1852 C 0.45444 0.34342 0.12503 0.0
C1853 C 0.44535 0.35526 0.10574 0.0
C1854 C 0.48123 0.30291 0.18401 0.0
C1855 C 0.47906 0.2787 0.18085 0.0
C1856 C 0.46897 0.31799 0.17004 0.0
C1857 C 0.45431 0.30902 0.15282 0.0
C1858 C 0.4515 0.28471 0.15067 0.0
C1859 C 0.46372 0.26977 0.16453 0.0
H1860 H 0.23663 0.45848 0.94509 0.0
H1861 H 0.27591 0.48874 0.8902 0.0
H1862 H 0.26735 0.43941 0.96186 0.0
H1863 H 0.30696 0.46828 0.90613 0.0
H1864 H 0.3593 0.46311 0.96618 0.0
H1865 H 0.33079 0.4721 0.93784 0.0
H1866 H 0.29336 0.41252 0.96296 0.0
H1867 H 0.32129 0.4051 0.99267 0.0
C1868 C 0.25181 0.46046 0.93616 0.0
C1869 C 0.25395 0.47529 0.91652 0.0
C1870 C 0.26955 0.44926 0.94566 0.0
C1871 C 0.28994 0.45223 0.93553 0.0
C1872 C 0.2917 0.46589 0.91478 0.0
C1873 C 0.27389 0.47748 0.90548 0.0
C1874 C 0.34522 0.45157 0.96502 0.0
C1875 C 0.34234 0.43349 0.9815 0.0
C1876 C 0.32879 0.45666 0.94872 0.0
C1877 C 0.30933 0.44345 0.94837 0.0
C1878 C 0.30768 0.42369 0.96322 0.0
C1879 C 0.32381 0.41911 0.98001 0.0
H1880 H 0.63011 0.37363 0.97985 0.0
H1881 H 0.63749 0.33075 0.04213 0.0
H1882 H 0.61906 0.33887 0.95671 0.0
H1883 H 0.62724 0.29605 1.01898 0.0
H1884 H 0.61862 0.2353 0.96637 0.0
H1885 H 0.63769 0.27024 0.9822 0.0
H1886 H 0.58396 0.31192 0.96166 0.0
H1887 H 0.56473 0.27703 0.94666 0.0
C1888 C 0.63021 0.35669 0.98836 0.0
C1889 C 0.63494 0.35491 1.01276 0.0
C1890 C 0.62368 0.3368 0.97518 0.0
C1891 C 0.62229 0.31462 0.98597 0.0
C1892 C 0.62835 0.31275 1.01002 0.0
C1893 C 0.63427 0.33265 1.0233 0.0
C1894 C 0.61119 0.25204 0.9646 0.0
C1895 C 0.59024 0.25341 0.95504 0.0
C1896 C 0.62202 0.27203 0.97386 0.0
C1897 C 0.61238 0.29394 0.97319 0.0
C1898 C 0.59198 0.29545 0.96226 0.0
C1899 C 0.58095 0.27543 0.95364 0.0
H1900 H 0.55152 0.81243 0.9651 0.0
H1901 H 0.50111 0.86225 0.96226 0.0
H1902 H 0.52647 0.78291 0.98036 0.0
H1903 H 0.4758 0.83256 0.97767 0.0
H1904 H 0.45521 0.78727 0.04392 0.0
H1905 H 0.47362 0.81484 1.01783 0.0
H1906 H 0.49377 0.75791 0.97463 0.0
H1907 H 0.47533 0.73017 1.00092 0.0
C1908 C 0.53486 0.81684 0.96707 0.0
C1909 C 0.52828 0.83965 0.96251 0.0
C1910 C 0.52046 0.79988 0.97578 0.0
C1911 C 0.49914 0.80538 0.98049 0.0
C1912 C 0.49218 0.82782 0.97446 0.0
C1913 C 0.50658 0.84476 0.96538 0.0
C1914 C 0.46328 0.78059 0.02866 0.0
C1915 C 0.46394 0.75645 0.02467 0.0
C1916 C 0.47371 0.79647 1.01355 0.0
C1917 C 0.48525 0.78864 0.99412 0.0
C1918 C 0.48516 0.76453 0.98954 0.0
C1919 C 0.47453 0.74862 1.00456 0.0
loop_
_geom_bond_atom_site_label_1
_geom_bond_atom_site_label_2
_geom_bond_distance
_geom_bond_site_symmetry_2
_ccdc_geom_bond_type
O0 Tb1 2.506 . S
O0 C14 1.265 . S
Tb1 O0 2.506 . S
Tb1 O6 2.312 . S
Tb1 O10 2.271 . S
Tb1 O12 2.338 . S
Tb1 O19 2.441 . S
C2 O10 1.252 . S
C2 O11 1.253 . S
O3 Tb4 2.271 . S
O3 C13 1.252 . S
Tb4 O3 2.271 . S
Tb4 O7 2.365 . S
Tb4 O11 2.312 . S
Tb4 O15 2.441 . S
Tb4 O16 2.506 . S
C5 O15 1.244 . S
C5 O16 1.265 . S
O6 Tb1 2.312 . S
O6 C13 1.253 . S
O7 Tb4 2.365 . S
O7 C8 1.259 1_455 S
C8 O7 1.259 1_655 S
C8 O9 1.256 . S
O9 C8 1.256 . S
O10 Tb1 2.271 . S
O10 C2 1.252 . S
O11 C2 1.253 . S
O11 Tb4 2.312 . S
O12 Tb1 2.338 . S
O12 C17 1.258 . S
C13 O3 1.252 . S
C13 O6 1.253 . S
C14 O0 1.265 . S
C14 O19 1.244 . S
O15 Tb4 2.441 . S
O15 C5 1.244 . S
O16 Tb4 2.506 . S
O16 C5 1.265 . S
C17 O12 1.258 . S
C17 O18 1.251 1_455 S
O18 C17 1.251 1_655 S
O19 Tb1 2.441 . S
O19 C14 1.244 . S
O20 Tb21 2.506 . S
O20 C34 1.265 . S
Tb21 O20 2.506 . S
Tb21 O26 2.312 . S
Tb21 O30 2.271 . S
Tb21 O32 2.338 1_565 S
Tb21 O39 2.441 . S
C22 O30 1.252 1_545 S
C22 O31 1.253 . S
O23 Tb24 2.271 1_565 S
O23 C33 1.252 . S
Tb24 O23 2.271 1_545 S
Tb24 O27 2.338 . S
Tb24 O31 2.312 . S
Tb24 O35 2.441 1_545 S
Tb24 O36 2.506 . S
C25 O35 1.244 1_545 S
C25 O36 1.265 . S
O26 Tb21 2.312 . S
O26 C33 1.253 . S
O27 Tb24 2.338 . S
O27 C28 1.258 . S
C28 O27 1.258 . S
C28 O29 1.251 . S
O29 C28 1.251 . S
O30 Tb21 2.271 . S
O30 C22 1.252 1_565 S
O31 C22 1.253 . S
O31 Tb24 2.312 . S
O32 Tb21 2.338 1_545 S
O32 C37 1.258 . S
C33 O23 1.252 . S
C33 O26 1.253 . S
C34 O20 1.265 . S
C34 O39 1.244 . S
O35 Tb24 2.441 1_565 S
O35 C25 1.244 1_565 S
O36 Tb24 2.506 . S
O36 C25 1.265 . S
C37 O32 1.258 . S
C37 O38 1.251 . S
O38 C37 1.251 . S
O39 Tb21 2.441 . S
O39 C34 1.244 . S
O40 Tb41 2.506 1_655 S
O40 C54 1.265 . S
Tb41 O40 2.506 1_455 S
Tb41 O46 2.312 . S
Tb41 O50 2.271 . S
Tb41 O52 2.338 . S
Tb41 O59 2.441 1_455 S
C42 O50 1.252 . S
C42 O51 1.253 . S
O43 Tb44 2.271 . S
O43 C53 1.252 . S
Tb44 O43 2.271 . S
Tb44 O47 2.338 . S
Tb44 O51 2.312 . S
Tb44 O55 2.441 . S
Tb44 O56 2.506 . S
C45 O55 1.244 . S
C45 O56 1.265 . S
O46 Tb41 2.312 . S
O46 C53 1.253 . S
O47 Tb44 2.338 . S
O47 C48 1.258 . S
C48 O47 1.258 . S
C48 O49 1.251 . S
O49 C48 1.251 . S
O50 Tb41 2.271 . S
O50 C42 1.252 . S
O51 C42 1.253 . S
O51 Tb44 2.312 . S
O52 Tb41 2.338 . S
O52 C57 1.258 . S
C53 O43 1.252 . S
C53 O46 1.253 . S
C54 O40 1.265 . S
C54 O59 1.244 . S
O55 Tb44 2.441 . S
O55 C45 1.244 . S
O56 Tb44 2.506 . S
O56 C45 1.265 . S
C57 O52 1.258 . S
C57 O58 1.251 . S
O58 C57 1.251 . S
O59 Tb41 2.441 1_655 S
O59 C54 1.244 . S
O60 Tb61 2.506 . S
O60 C74 1.265 . S
Tb61 O60 2.506 . S
Tb61 O66 2.312 . S
Tb61 O70 2.271 . S
Tb61 O72 2.338 . S
Tb61 O79 2.441 . S
C62 O70 1.252 . S
C62 O71 1.253 . S
O63 Tb64 2.271 . S
O63 C73 1.252 . S
Tb64 O63 2.271 . S
Tb64 O67 2.338 1_545 S
Tb64 O71 2.312 . S
Tb64 O75 2.441 . S
Tb64 O76 2.506 . S
C65 O75 1.244 . S
C65 O76 1.265 . S
O66 Tb61 2.312 . S
O66 C73 1.253 . S
O67 Tb64 2.338 1_565 S
O67 C68 1.258 . S
C68 O67 1.258 . S
C68 O69 1.251 . S
O69 C68 1.251 . S
O70 Tb61 2.271 . S
O70 C62 1.252 . S
O71 C62 1.253 . S
O71 Tb64 2.312 . S
O72 Tb61 2.338 . S
O72 C77 1.258 . S
C73 O63 1.252 . S
C73 O66 1.253 . S
C74 O60 1.265 . S
C74 O79 1.244 . S
O75 Tb64 2.441 . S
O75 C65 1.244 . S
O76 Tb64 2.506 . S
O76 C65 1.265 . S
C77 O72 1.258 . S
C77 O78 1.251 . S
O78 C77 1.251 . S
O79 Tb61 2.441 . S
O79 C74 1.244 . S
O80 Tb81 2.506 . S
O80 C94 1.265 . S
Tb81 O80 2.506 . S
Tb81 O86 2.312 . S
Tb81 O90 2.271 1_455 S
Tb81 O92 2.338 . S
Tb81 O99 2.441 1_455 S
C82 O90 1.252 . S
C82 O91 1.253 . S
O83 Tb84 2.271 . S
O83 C93 1.252 1_655 S
Tb84 O83 2.271 . S
Tb84 O87 2.338 1_655 S
Tb84 O91 2.312 . S
Tb84 O95 2.441 . S
Tb84 O96 2.506 . S
C85 O95 1.244 . S
C85 O96 1.265 . S
O86 Tb81 2.312 . S
O86 C93 1.253 . S
O87 Tb84 2.338 1_455 S
O87 C88 1.258 . S
C88 O87 1.258 . S
C88 O89 1.251 . S
O89 C88 1.251 . S
O90 Tb81 2.271 1_655 S
O90 C82 1.252 . S
O91 C82 1.253 . S
O91 Tb84 2.312 . S
O92 Tb81 2.338 . S
O92 C97 1.258 . S
C93 O83 1.252 1_455 S
C93 O86 1.253 . S
C94 O80 1.265 . S
C94 O99 1.244 1_455 S
O95 Tb84 2.441 . S
O95 C85 1.244 . S
O96 Tb84 2.506 . S
O96 C85 1.265 . S
C97 O92 1.258 . S
C97 O98 1.251 . S
O98 C97 1.251 . S
O99 Tb81 2.441 1_655 S
O99 C94 1.244 1_655 S
O100 Tb101 2.506 . S
O100 C114 1.265 . S
Tb101 O100 2.506 . S
Tb101 O106 2.312 . S
Tb101 O110 2.271 . S
Tb101 O112 2.338 . S
Tb101 O119 2.441 . S
C102 O110 1.252 . S
C102 O111 1.253 . S
O103 Tb104 2.271 . S
O103 C113 1.252 . S
Tb104 O103 2.271 . S
Tb104 O107 2.338 1_545 S
Tb104 O111 2.312 . S
Tb104 O115 2.441 . S
Tb104 O116 2.506 . S
C105 O115 1.244 . S
C105 O116 1.265 . S
O106 Tb101 2.312 . S
O106 C113 1.253 . S
O107 Tb104 2.338 1_565 S
O107 C108 1.258 . S
C108 O107 1.258 . S
C108 O109 1.251 . S
O109 C108 1.251 . S
O110 Tb101 2.271 . S
O110 C102 1.252 . S
O111 C102 1.253 . S
O111 Tb104 2.312 . S
O112 Tb101 2.338 . S
O112 C117 1.258 1_545 S
C113 O103 1.252 . S
C113 O106 1.253 . S
C114 O100 1.265 . S
C114 O119 1.244 . S
O115 Tb104 2.441 . S
O115 C105 1.244 . S
O116 Tb104 2.506 . S
O116 C105 1.265 . S
C117 O112 1.258 1_565 S
C117 O118 1.251 . S
O118 C117 1.251 . S
O119 Tb101 2.441 . S
O119 C114 1.244 . S
O120 Tb121 2.506 . S
O120 C134 1.265 . S
Tb121 O120 2.506 . S
Tb121 O126 2.312 . S
Tb121 O130 2.271 . S
Tb121 O132 2.338 . S
Tb121 O139 2.441 . S
C122 O130 1.252 . S
C122 O131 1.253 . S
O123 Tb124 2.271 . S
O123 C133 1.252 . S
Tb124 O123 2.271 . S
Tb124 O127 2.338 1_455 S
Tb124 O131 2.312 . S
Tb124 O135 2.441 . S
Tb124 O136 2.506 1_455 S
C125 O135 1.244 . S
C125 O136 1.266 1_455 S
O126 Tb121 2.312 . S
O126 C133 1.253 . S
O127 Tb124 2.338 1_655 S
O127 C128 1.258 . S
C128 O127 1.258 . S
C128 O129 1.251 . S
O129 C128 1.251 . S
O130 Tb121 2.271 . S
O130 C122 1.252 . S
O131 C122 1.253 . S
O131 Tb124 2.312 . S
O132 Tb121 2.338 . S
O132 C137 1.218 1_455 S
C133 O123 1.252 . S
C133 O126 1.253 . S
C134 O120 1.265 . S
C134 O139 1.244 . S
O135 Tb124 2.441 . S
O135 C125 1.244 . S
O136 Tb124 2.506 1_655 S
O136 C125 1.266 1_655 S
C137 O132 1.218 1_655 S
C137 O138 1.289 . S
O138 C137 1.289 . S
O139 Tb121 2.441 . S
O139 C134 1.244 . S
O140 Tb141 2.506 . S
O140 C154 1.265 . S
Tb141 O140 2.506 . S
Tb141 O146 2.312 . S
Tb141 O150 2.271 . S
Tb141 O152 2.338 1_545 S
Tb141 O159 2.441 . S
C142 O150 1.252 1_565 S
C142 O151 1.253 . S
O143 Tb144 2.271 1_545 S
O143 C153 1.252 . S
Tb144 O143 2.271 1_565 S
Tb144 O147 2.338 . S
Tb144 O151 2.312 . S
Tb144 O155 2.441 1_565 S
Tb144 O156 2.506 . S
C145 O155 1.244 1_565 S
C145 O156 1.265 . S
O146 Tb141 2.312 . S
O146 C153 1.253 . S
O147 Tb144 2.338 . S
O147 C148 1.258 . S
C148 O147 1.258 . S
C148 O149 1.251 . S
O149 C148 1.251 . S
O150 Tb141 2.271 . S
O150 C142 1.252 1_545 S
O151 C142 1.253 . S
O151 Tb144 2.312 . S
O152 Tb141 2.338 1_565 S
O152 C157 1.258 . S
C153 O143 1.252 . S
C153 O146 1.253 . S
C154 O140 1.265 . S
C154 O159 1.244 . S
O155 Tb144 2.441 1_545 S
O155 C145 1.244 1_545 S
O156 Tb144 2.506 . S
O156 C145 1.265 . S
C157 O152 1.258 . S
C157 O158 1.251 . S
O158 C157 1.251 . S
O159 Tb141 2.441 . S
O159 C154 1.244 . S
O160 Tb161 2.506 . S
O160 C174 1.265 . S
Tb161 O160 2.506 . S
Tb161 O166 2.312 . S
Tb161 O170 2.271 . S
Tb161 O172 2.338 1_554 S
Tb161 O179 2.441 . S
C162 O170 1.252 1_556 S
C162 O171 1.253 . S
O163 Tb164 2.271 1_554 S
O163 C173 1.252 . S
Tb164 O163 2.271 1_556 S
Tb164 O167 2.338 . S
Tb164 O171 2.312 . S
Tb164 O175 2.441 1_556 S
Tb164 O176 2.506 . S
C165 O175 1.244 1_556 S
C165 O176 1.265 . S
O166 Tb161 2.312 . S
O166 C173 1.253 . S
O167 Tb164 2.338 . S
O167 C168 1.258 . S
C168 O167 1.258 . S
C168 O169 1.251 . S
O169 C168 1.251 . S
O170 Tb161 2.271 . S
O170 C162 1.252 1_554 S
O171 C162 1.253 . S
O171 Tb164 2.312 . S
O172 Tb161 2.338 1_556 S
O172 C177 1.258 . S
C173 O163 1.252 . S
C173 O166 1.253 . S
C174 O160 1.265 . S
C174 O179 1.244 . S
O175 Tb164 2.441 1_554 S
O175 C165 1.244 1_554 S
O176 Tb164 2.506 . S
O176 C165 1.265 . S
C177 O172 1.258 . S
C177 O178 1.251 . S
O178 C177 1.251 . S
O179 Tb161 2.441 . S
O179 C174 1.244 . S
O180 Tb181 2.506 . S
O180 C194 1.265 . S
Tb181 O180 2.506 . S
Tb181 O186 2.312 . S
Tb181 O190 2.271 . S
Tb181 O192 2.338 . S
Tb181 O199 2.441 . S
C182 O190 1.252 . S
C182 O191 1.253 . S
O183 Tb184 2.271 . S
O183 C193 1.252 . S
Tb184 O183 2.271 . S
Tb184 O187 2.338 . S
Tb184 O191 2.312 . S
Tb184 O195 2.441 . S
Tb184 O196 2.506 . S
C185 O195 1.244 . S
C185 O196 1.265 . S
O186 Tb181 2.312 . S
O186 C193 1.253 . S
O187 Tb184 2.338 . S
O187 C188 1.258 . S
C188 O187 1.258 . S
C188 O189 1.252 1_554 S
O189 C188 1.252 1_556 S
O190 Tb181 2.271 . S
O190 C182 1.252 . S
O191 C182 1.253 . S
O191 Tb184 2.312 . S
O192 Tb181 2.338 . S
O192 C197 1.258 . S
C193 O183 1.252 . S
C193 O186 1.253 . S
C194 O180 1.265 . S
C194 O199 1.244 . S
O195 Tb184 2.441 . S
O195 C185 1.244 . S
O196 Tb184 2.506 . S
O196 C185 1.265 . S
C197 O192 1.258 . S
C197 O198 1.251 1_554 S
O198 C197 1.251 1_556 S
O199 Tb181 2.441 . S
O199 C194 1.244 . S
O200 Tb201 2.506 . S
O200 C214 1.265 . S
Tb201 O200 2.506 . S
Tb201 O206 2.312 . S
Tb201 O210 2.271 . S
Tb201 O212 2.338 . S
Tb201 O219 2.441 . S
C202 O210 1.252 . S
C202 O211 1.253 . S
O203 Tb204 2.271 . S
O203 C213 1.252 . S
Tb204 O203 2.271 . S
Tb204 O207 2.338 1_554 S
Tb204 O211 2.312 . S
Tb204 O215 2.441 . S
Tb204 O216 2.505 1_554 S
C205 O215 1.244 . S
C205 O216 1.250 1_554 S
O206 Tb201 2.312 . S
O206 C213 1.253 . S
O207 Tb204 2.338 1_556 S
O207 C208 1.258 . S
C208 O207 1.258 . S
C208 O209 1.251 . S
O209 C208 1.251 . S
O210 Tb201 2.271 . S
O210 C202 1.252 . S
O211 C202 1.253 . S
O211 Tb204 2.312 . S
O212 Tb201 2.338 . S
O212 C217 1.258 1_554 S
C213 O203 1.252 . S
C213 O206 1.253 . S
C214 O200 1.265 . S
C214 O219 1.244 . S
O215 Tb204 2.441 . S
O215 C205 1.244 . S
O216 Tb204 2.505 1_556 S
O216 C205 1.250 1_556 S
C217 O212 1.258 1_556 S
C217 O218 1.251 . S
O218 C217 1.251 . S
O219 Tb201 2.441 . S
O219 C214 1.244 . S
O220 Tb221 2.506 . S
O220 C234 1.265 . S
Tb221 O220 2.506 . S
Tb221 O226 2.312 . S
Tb221 O230 2.271 . S
Tb221 O232 2.338 . S
Tb221 O239 2.441 . S
C222 O230 1.252 . S
C222 O231 1.253 1_554 S
O223 Tb224 2.280 . S
O223 C233 1.252 . S
Tb224 O223 2.280 . S
Tb224 O227 2.351 . S
Tb224 O231 2.312 1_554 S
Tb224 O235 2.432 1_554 S
Tb224 O236 2.492 1_554 S
C225 O235 1.244 . S
C225 O236 1.265 . S
O226 Tb221 2.312 . S
O226 C233 1.253 . S
O227 Tb224 2.351 . S
O227 C228 1.258 . S
C228 O227 1.258 . S
C228 O229 1.251 . S
O229 C228 1.251 . S
O230 Tb221 2.271 . S
O230 C222 1.252 . S
O231 C222 1.253 1_556 S
O231 Tb224 2.312 1_556 S
O232 Tb221 2.338 . S
O232 C237 1.258 . S
C233 O223 1.252 . S
C233 O226 1.253 . S
C234 O220 1.265 . S
C234 O239 1.244 . S
O235 Tb224 2.432 1_556 S
O235 C225 1.244 . S
O236 Tb224 2.492 1_556 S
O236 C225 1.265 . S
C237 O232 1.258 . S
C237 O238 1.251 . S
O238 C237 1.251 . S
O239 Tb221 2.441 . S
O239 C234 1.244 . S
O240 Tb241 2.506 . S
O240 C254 1.265 . S
Tb241 O240 2.506 . S
Tb241 O246 2.312 . S
Tb241 O250 2.271 . S
Tb241 O252 2.338 . S
Tb241 O259 2.441 . S
C242 O250 1.252 . S
C242 O251 1.253 . S
O243 Tb244 2.271 . S
O243 C253 1.252 . S
Tb244 O243 2.271 . S
Tb244 O247 2.338 . S
Tb244 O251 2.312 . S
Tb244 O255 2.441 . S
Tb244 O256 2.506 . S
C245 O255 1.244 . S
C245 O256 1.265 . S
O246 Tb241 2.312 . S
O246 C253 1.253 . S
O247 Tb244 2.338 . S
O247 C248 1.258 . S
C248 O247 1.258 . S
C248 O249 1.251 . S
O249 C248 1.251 . S
O250 Tb241 2.271 . S
O250 C242 1.252 . S
O251 C242 1.253 . S
O251 Tb244 2.312 . S
O252 Tb241 2.338 . S
O252 C257 1.258 . S
C253 O243 1.252 . S
C253 O246 1.253 . S
C254 O240 1.265 . S
C254 O259 1.244 . S
O255 Tb244 2.441 . S
O255 C245 1.244 . S
O256 Tb244 2.506 . S
O256 C245 1.265 . S
C257 O252 1.258 . S
C257 O258 1.251 . S
O258 C257 1.251 . S
O259 Tb241 2.441 . S
O259 C254 1.244 . S
O260 Tb261 2.506 . S
O260 C274 1.265 . S
Tb261 O260 2.506 . S
Tb261 O266 2.312 . S
Tb261 O270 2.271 . S
Tb261 O272 2.338 . S
Tb261 O279 2.441 . S
C262 O270 1.252 . S
C262 O271 1.253 . S
O263 Tb264 2.271 . S
O263 C273 1.252 . S
Tb264 O263 2.271 . S
Tb264 O267 2.338 . S
Tb264 O271 2.312 . S
Tb264 O275 2.441 . S
Tb264 O276 2.506 . S
C265 O275 1.244 . S
C265 O276 1.265 . S
O266 Tb261 2.312 . S
O266 C273 1.253 . S
O267 Tb264 2.338 . S
O267 C268 1.258 . S
C268 O267 1.258 . S
C268 O269 1.251 . S
O269 C268 1.251 . S
O270 Tb261 2.271 . S
O270 C262 1.252 . S
O271 C262 1.253 . S
O271 Tb264 2.312 . S
O272 Tb261 2.338 . S
O272 C277 1.258 . S
C273 O263 1.252 . S
C273 O266 1.253 . S
C274 O260 1.265 . S
C274 O279 1.244 . S
O275 Tb264 2.441 . S
O275 C265 1.244 . S
O276 Tb264 2.506 . S
O276 C265 1.265 . S
C277 O272 1.258 . S
C277 O278 1.251 . S
O278 C277 1.251 . S
O279 Tb261 2.441 . S
O279 C274 1.244 . S
O280 Tb281 2.506 . S
O280 C294 1.265 . S
Tb281 O280 2.506 . S
Tb281 O286 2.312 . S
Tb281 O290 2.271 . S
Tb281 O292 2.338 . S
Tb281 O299 2.441 . S
C282 O290 1.252 . S
C282 O291 1.253 . S
O283 Tb284 2.271 . S
O283 C293 1.252 . S
Tb284 O283 2.271 . S
Tb284 O287 2.338 . S
Tb284 O291 2.312 . S
Tb284 O295 2.441 . S
Tb284 O296 2.506 . S
C285 O295 1.244 . S
C285 O296 1.265 . S
O286 Tb281 2.312 . S
O286 C293 1.253 . S
O287 Tb284 2.338 . S
O287 C288 1.258 . S
C288 O287 1.258 . S
C288 O289 1.251 . S
O289 C288 1.251 . S
O290 Tb281 2.271 . S
O290 C282 1.252 . S
O291 C282 1.253 . S
O291 Tb284 2.312 . S
O292 Tb281 2.338 . S
O292 C297 1.258 . S
C293 O283 1.252 . S
C293 O286 1.253 . S
C294 O280 1.265 . S
C294 O299 1.244 . S
O295 Tb284 2.441 . S
O295 C285 1.244 . S
O296 Tb284 2.506 . S
O296 C285 1.265 . S
C297 O292 1.258 . S
C297 O298 1.251 . S
O298 C297 1.251 . S
O299 Tb281 2.441 . S
O299 C294 1.244 . S
O300 Tb301 2.506 . S
O300 C314 1.265 . S
Tb301 O300 2.506 . S
Tb301 O306 2.312 . S
Tb301 O310 2.271 . S
Tb301 O312 2.338 . S
Tb301 O319 2.441 . S
C302 O310 1.252 . S
C302 O311 1.253 . S
O303 Tb304 2.271 . S
O303 C313 1.252 . S
Tb304 O303 2.271 . S
Tb304 O307 2.338 . S
Tb304 O311 2.312 . S
Tb304 O315 2.441 . S
Tb304 O316 2.506 . S
C305 O315 1.244 . S
C305 O316 1.265 . S
O306 Tb301 2.312 . S
O306 C313 1.253 . S
O307 Tb304 2.338 . S
O307 C308 1.258 . S
C308 O307 1.258 . S
C308 O309 1.251 . S
O309 C308 1.251 . S
O310 Tb301 2.271 . S
O310 C302 1.252 . S
O311 C302 1.253 . S
O311 Tb304 2.312 . S
O312 Tb301 2.338 . S
O312 C317 1.258 . S
C313 O303 1.252 . S
C313 O306 1.253 . S
C314 O300 1.265 . S
C314 O319 1.244 . S
O315 Tb304 2.441 . S
O315 C305 1.244 . S
O316 Tb304 2.506 . S
O316 C305 1.265 . S
C317 O312 1.258 . S
C317 O318 1.251 . S
O318 C317 1.251 . S
O319 Tb301 2.441 . S
O319 C314 1.244 . S
O320 Tb321 2.506 . S
O320 C334 1.265 . S
Tb321 O320 2.506 . S
Tb321 O326 2.312 . S
Tb321 O330 2.271 . S
Tb321 O332 2.338 . S
Tb321 O339 2.441 . S
C322 O330 1.252 . S
C322 O331 1.253 . S
O323 Tb324 2.271 . S
O323 C333 1.252 . S
Tb324 O323 2.271 . S
Tb324 O327 2.338 . S
Tb324 O331 2.312 . S
Tb324 O335 2.441 . S
Tb324 O336 2.506 . S
C325 O335 1.244 . S
C325 O336 1.265 . S
O326 Tb321 2.312 . S
O326 C333 1.253 . S
O327 Tb324 2.338 . S
O327 C328 1.258 . S
C328 O327 1.258 . S
C328 O329 1.251 . S
O329 C328 1.251 . S
O330 Tb321 2.271 . S
O330 C322 1.252 . S
O331 C322 1.253 . S
O331 Tb324 2.312 . S
O332 Tb321 2.338 . S
O332 C337 1.258 . S
C333 O323 1.252 . S
C333 O326 1.253 . S
C334 O320 1.265 . S
C334 O339 1.244 . S
O335 Tb324 2.441 . S
O335 C325 1.244 . S
O336 Tb324 2.506 . S
O336 C325 1.265 . S
C337 O332 1.258 . S
C337 O338 1.251 . S
O338 C337 1.251 . S
O339 Tb321 2.441 . S
O339 C334 1.244 . S
O340 Tb341 2.506 . S
O340 C354 1.265 . S
Tb341 O340 2.506 . S
Tb341 O346 2.312 . S
Tb341 O350 2.271 . S
Tb341 O352 2.338 . S
Tb341 O359 2.441 . S
C342 O350 1.252 . S
C342 O351 1.253 . S
O343 Tb344 2.271 . S
O343 C353 1.252 . S
Tb344 O343 2.271 . S
Tb344 O347 2.338 . S
Tb344 O351 2.312 . S
Tb344 O355 2.441 . S
Tb344 O356 2.506 . S
C345 O355 1.244 . S
C345 O356 1.265 . S
O346 Tb341 2.312 . S
O346 C353 1.253 . S
O347 Tb344 2.338 . S
O347 C348 1.258 . S
C348 O347 1.258 . S
C348 O349 1.251 . S
O349 C348 1.251 . S
O350 Tb341 2.271 . S
O350 C342 1.252 . S
O351 C342 1.253 . S
O351 Tb344 2.312 . S
O352 Tb341 2.338 . S
O352 C357 1.258 . S
C353 O343 1.252 . S
C353 O346 1.253 . S
C354 O340 1.265 . S
C354 O359 1.244 . S
O355 Tb344 2.441 . S
O355 C345 1.244 . S
O356 Tb344 2.506 . S
O356 C345 1.265 . S
C357 O352 1.258 . S
C357 O358 1.251 . S
O358 C357 1.251 . S
O359 Tb341 2.441 . S
O359 C354 1.244 . S
O360 Tb361 2.506 . S
O360 C374 1.265 . S
Tb361 O360 2.506 . S
Tb361 O366 2.312 . S
Tb361 O370 2.271 . S
Tb361 O372 2.338 . S
Tb361 O379 2.441 . S
C362 O370 1.252 . S
C362 O371 1.253 . S
O363 Tb364 2.271 . S
O363 C373 1.252 . S
Tb364 O363 2.271 . S
Tb364 O367 2.338 . S
Tb364 O371 2.312 . S
Tb364 O375 2.441 . S
Tb364 O376 2.506 . S
C365 O375 1.244 . S
C365 O376 1.265 . S
O366 Tb361 2.312 . S
O366 C373 1.253 . S
O367 Tb364 2.338 . S
O367 C368 1.258 . S
C368 O367 1.258 . S
C368 O369 1.251 . S
O369 C368 1.251 . S
O370 Tb361 2.271 . S
O370 C362 1.252 . S
O371 C362 1.253 . S
O371 Tb364 2.312 . S
O372 Tb361 2.338 . S
O372 C377 1.258 . S
C373 O363 1.252 . S
C373 O366 1.253 . S
C374 O360 1.265 . S
C374 O379 1.244 . S
O375 Tb364 2.441 . S
O375 C365 1.244 . S
O376 Tb364 2.506 . S
O376 C365 1.265 . S
C377 O372 1.258 . S
C377 O378 1.251 . S
O378 C377 1.251 . S
O379 Tb361 2.441 . S
O379 C374 1.244 . S
O380 Tb381 2.506 . S
O380 C394 1.265 . S
Tb381 O380 2.506 . S
Tb381 O386 2.312 . S
Tb381 O390 2.271 . S
Tb381 O392 2.338 . S
Tb381 O399 2.441 . S
C382 O390 1.252 . S
C382 O391 1.253 . S
O383 Tb384 2.271 . S
O383 C393 1.252 . S
Tb384 O383 2.271 . S
Tb384 O387 2.338 . S
Tb384 O391 2.312 . S
Tb384 O395 2.441 . S
Tb384 O396 2.506 . S
C385 O395 1.244 . S
C385 O396 1.265 . S
O386 Tb381 2.312 . S
O386 C393 1.253 . S
O387 Tb384 2.338 . S
O387 C388 1.258 . S
C388 O387 1.258 . S
C388 O389 1.251 . S
O389 C388 1.251 . S
O390 Tb381 2.271 . S
O390 C382 1.252 . S
O391 C382 1.253 . S
O391 Tb384 2.312 . S
O392 Tb381 2.338 . S
O392 C397 1.258 . S
C393 O383 1.252 . S
C393 O386 1.253 . S
C394 O380 1.265 . S
C394 O399 1.244 . S
O395 Tb384 2.441 . S
O395 C385 1.244 . S
O396 Tb384 2.506 . S
O396 C385 1.265 . S
C397 O392 1.258 . S
C397 O398 1.251 . S
O398 C397 1.251 . S
O399 Tb381 2.441 . S
O399 C394 1.244 . S
O400 Tb401 2.506 . S
O400 C414 1.265 . S
Tb401 O400 2.506 . S
Tb401 O406 2.312 . S
Tb401 O410 2.271 . S
Tb401 O412 2.338 . S
Tb401 O419 2.441 . S
C402 O410 1.252 . S
C402 O411 1.253 . S
O403 Tb404 2.271 . S
O403 C413 1.252 . S
Tb404 O403 2.271 . S
Tb404 O407 2.338 . S
Tb404 O411 2.312 . S
Tb404 O415 2.441 . S
Tb404 O416 2.506 . S
C405 O415 1.244 . S
C405 O416 1.265 . S
O406 Tb401 2.312 . S
O406 C413 1.253 . S
O407 Tb404 2.338 . S
O407 C408 1.258 . S
C408 O407 1.258 . S
C408 O409 1.251 . S
O409 C408 1.251 . S
O410 Tb401 2.271 . S
O410 C402 1.252 . S
O411 C402 1.253 . S
O411 Tb404 2.312 . S
O412 Tb401 2.338 . S
O412 C417 1.258 . S
C413 O403 1.252 . S
C413 O406 1.253 . S
C414 O400 1.265 . S
C414 O419 1.244 . S
O415 Tb404 2.441 . S
O415 C405 1.244 . S
O416 Tb404 2.506 . S
O416 C405 1.265 . S
C417 O412 1.258 . S
C417 O418 1.251 . S
O418 C417 1.251 . S
O419 Tb401 2.441 . S
O419 C414 1.244 . S
O420 Tb421 2.506 . S
O420 C434 1.265 . S
Tb421 O420 2.506 . S
Tb421 O426 2.312 . S
Tb421 O430 2.271 . S
Tb421 O432 2.338 . S
Tb421 O439 2.441 . S
C422 O430 1.252 . S
C422 O431 1.253 . S
O423 Tb424 2.271 . S
O423 C433 1.252 . S
Tb424 O423 2.271 . S
Tb424 O427 2.338 . S
Tb424 O431 2.312 . S
Tb424 O435 2.441 . S
Tb424 O436 2.506 . S
C425 O435 1.244 . S
C425 O436 1.265 . S
O426 Tb421 2.312 . S
O426 C433 1.253 . S
O427 Tb424 2.338 . S
O427 C428 1.258 . S
C428 O427 1.258 . S
C428 O429 1.251 . S
O429 C428 1.251 . S
O430 Tb421 2.271 . S
O430 C422 1.252 . S
O431 C422 1.253 . S
O431 Tb424 2.312 . S
O432 Tb421 2.338 . S
O432 C437 1.258 . S
C433 O423 1.252 . S
C433 O426 1.253 . S
C434 O420 1.265 . S
C434 O439 1.244 . S
O435 Tb424 2.441 . S
O435 C425 1.244 . S
O436 Tb424 2.506 . S
O436 C425 1.265 . S
C437 O432 1.258 . S
C437 O438 1.251 . S
O438 C437 1.251 . S
O439 Tb421 2.441 . S
O439 C434 1.244 . S
O440 Tb441 2.506 . S
O440 C454 1.265 . S
Tb441 O440 2.506 . S
Tb441 O446 2.312 . S
Tb441 O450 2.271 . S
Tb441 O452 2.338 . S
Tb441 O459 2.441 . S
C442 O450 1.252 . S
C442 O451 1.253 . S
O443 Tb444 2.271 . S
O443 C453 1.252 . S
Tb444 O443 2.271 . S
Tb444 O447 2.338 . S
Tb444 O451 2.312 . S
Tb444 O455 2.441 . S
Tb444 O456 2.506 . S
C445 O455 1.228 1_545 S
C445 O456 1.264 1_545 S
O446 Tb441 2.312 . S
O446 C453 1.253 . S
O447 Tb444 2.338 . S
O447 C448 1.258 . S
C448 O447 1.258 . S
C448 O449 1.251 . S
O449 C448 1.251 . S
O450 Tb441 2.271 . S
O450 C442 1.252 . S
O451 C442 1.253 . S
O451 Tb444 2.312 . S
O452 Tb441 2.338 . S
O452 C457 1.258 . S
C453 O443 1.252 . S
C453 O446 1.253 . S
C454 O440 1.265 . S
C454 O459 1.244 . S
O455 Tb444 2.441 . S
O455 C445 1.228 1_565 S
O456 Tb444 2.506 . S
O456 C445 1.264 1_565 S
C457 O452 1.258 . S
C457 O458 1.251 . S
O458 C457 1.251 . S
O459 Tb441 2.441 . S
O459 C454 1.244 . S
O460 Tb461 2.506 . S
O460 C474 1.265 . S
Tb461 O460 2.506 . S
Tb461 O466 2.312 . S
Tb461 O470 2.271 . S
Tb461 O472 2.338 . S
Tb461 O479 2.441 . S
C462 O470 1.252 . S
C462 O471 1.253 . S
O463 Tb464 2.271 . S
O463 C473 1.252 . S
Tb464 O463 2.271 . S
Tb464 O467 2.338 . S
Tb464 O471 2.312 . S
Tb464 O475 2.441 . S
Tb464 O476 2.506 . S
C465 O475 1.244 . S
C465 O476 1.265 . S
O466 Tb461 2.312 . S
O466 C473 1.253 . S
O467 Tb464 2.338 . S
O467 C468 1.258 . S
C468 O467 1.258 . S
C468 O469 1.251 . S
O469 C468 1.251 . S
O470 Tb461 2.271 . S
O470 C462 1.252 . S
O471 C462 1.253 . S
O471 Tb464 2.312 . S
O472 Tb461 2.338 . S
O472 C477 1.258 . S
C473 O463 1.252 . S
C473 O466 1.253 . S
C474 O460 1.265 . S
C474 O479 1.244 . S
O475 Tb464 2.441 . S
O475 C465 1.244 . S
O476 Tb464 2.506 . S
O476 C465 1.265 . S
C477 O472 1.258 . S
C477 O478 1.251 . S
O478 C477 1.251 . S
O479 Tb461 2.441 . S
O479 C474 1.244 . S
H480 C488 0.950 . S
H481 C493 0.950 . S
H482 C490 0.950 . S
H483 C492 0.950 . S
H484 C494 0.950 . S
H485 C496 0.950 . S
H486 C498 0.950 . S
H487 C499 0.950 . S
C488 H480 0.950 . S
C488 C489 1.386 . S
C488 C490 1.391 . S
C489 C488 1.386 . S
C489 C493 1.393 . S
C490 H482 0.950 . S
C490 C488 1.391 . S
C490 C491 1.400 . S
C491 C490 1.400 . S
C491 C492 1.398 . S
C491 C497 1.491 . S
C492 H483 0.950 . S
C492 C491 1.398 . S
C492 C493 1.391 . S
C493 H481 0.950 . S
C493 C489 1.393 . S
C493 C492 1.391 . S
C494 H484 0.950 . S
C494 C495 1.386 . S
C494 C496 1.391 . S
C495 C494 1.386 . S
C495 C499 1.393 . S
C496 H485 0.950 . S
C496 C494 1.391 . S
C496 C497 1.400 . S
C497 C491 1.491 . S
C497 C496 1.400 . S
C497 C498 1.398 . S
C498 H486 0.950 . S
C498 C497 1.398 . S
C498 C499 1.391 . S
C499 H487 0.950 . S
C499 C495 1.393 . S
C499 C498 1.391 . S
H500 C508 0.950 . S
H501 C513 0.950 . S
H502 C510 0.950 . S
H503 C512 0.950 . S
H504 C514 0.950 . S
H505 C516 0.950 . S
H506 C518 0.950 . S
H507 C519 0.950 . S
C508 H500 0.950 . S
C508 C509 1.386 . S
C508 C510 1.391 . S
C509 C508 1.386 . S
C509 C513 1.393 1_545 S
C510 H502 0.950 . S
C510 C508 1.391 . S
C510 C511 1.400 . S
C511 C510 1.400 . S
C511 C512 1.398 1_545 S
C511 C517 1.488 1_545 S
C512 H503 0.950 . S
C512 C511 1.398 1_565 S
C512 C513 1.391 . S
C513 H501 0.950 . S
C513 C509 1.393 1_565 S
C513 C512 1.391 . S
C514 H504 0.950 . S
C514 C515 1.386 . S
C514 C516 1.391 . S
C515 C514 1.386 . S
C515 C519 1.393 1_565 S
C516 H505 0.950 . S
C516 C514 1.391 . S
C516 C517 1.422 . S
C517 C511 1.488 1_565 S
C517 C516 1.422 . S
C517 C518 1.382 1_565 S
C518 H506 0.950 . S
C518 C517 1.382 1_545 S
C518 C519 1.391 . S
C519 H507 0.950 . S
C519 C515 1.393 1_545 S
C519 C518 1.391 . S
H520 C528 0.950 . S
H521 C533 0.950 . S
H522 C530 0.950 . S
H523 C532 0.950 . S
H524 C534 0.950 . S
H525 C536 0.950 . S
H526 C538 0.950 . S
H527 C539 0.950 . S
C528 H520 0.950 . S
C528 C529 1.386 . S
C528 C530 1.391 . S
C529 C528 1.386 . S
C529 C533 1.393 . S
C530 H522 0.950 . S
C530 C528 1.391 . S
C530 C531 1.400 . S
C531 C530 1.400 . S
C531 C532 1.398 . S
C531 C537 1.491 . S
C532 H523 0.950 . S
C532 C531 1.398 . S
C532 C533 1.391 . S
C533 H521 0.950 . S
C533 C529 1.393 . S
C533 C532 1.391 . S
C534 H524 0.950 . S
C534 C535 1.386 . S
C534 C536 1.391 . S
C535 C534 1.386 . S
C535 C539 1.393 . S
C536 H525 0.950 . S
C536 C534 1.391 . S
C536 C537 1.400 . S
C537 C531 1.491 . S
C537 C536 1.400 . S
C537 C538 1.398 . S
C538 H526 0.950 . S
C538 C537 1.398 . S
C538 C539 1.391 . S
C539 H527 0.950 . S
C539 C535 1.393 . S
C539 C538 1.391 . S
H540 C548 0.950 . S
H541 C553 0.950 . S
H542 C550 0.950 . S
H543 C552 0.950 . S
H544 C554 0.950 . S
H545 C556 0.950 . S
H546 C558 0.950 . S
H547 C559 0.950 . S
C548 H540 0.950 . S
C548 C549 1.386 . S
C548 C550 1.391 . S
C549 C548 1.386 . S
C549 C553 1.393 . S
C550 H542 0.950 . S
C550 C548 1.391 . S
C550 C551 1.400 . S
C551 C550 1.400 . S
C551 C552 1.398 . S
C551 C557 1.491 . S
C552 H543 0.950 . S
C552 C551 1.398 . S
C552 C553 1.391 . S
C553 H541 0.950 . S
C553 C549 1.393 . S
C553 C552 1.391 . S
C554 H544 0.950 . S
C554 C555 1.386 . S
C554 C556 1.391 . S
C555 C554 1.386 . S
C555 C559 1.393 . S
C556 H545 0.950 . S
C556 C554 1.391 . S
C556 C557 1.400 . S
C557 C551 1.491 . S
C557 C556 1.400 . S
C557 C558 1.398 . S
C558 H546 0.950 . S
C558 C557 1.398 . S
C558 C559 1.391 . S
C559 H547 0.950 . S
C559 C555 1.393 . S
C559 C558 1.391 . S
H560 C568 0.950 1_565 S
H561 C573 0.950 . S
H562 C570 0.950 . S
H563 C572 0.950 . S
H564 C574 0.950 . S
H565 C576 0.950 . S
H566 C578 0.950 . S
H567 C579 0.950 . S
C568 H560 0.950 1_545 S
C568 C569 1.386 . S
C568 C570 1.391 1_545 S
C569 C568 1.386 . S
C569 C573 1.393 . S
C570 H562 0.950 . S
C570 C568 1.391 1_565 S
C570 C571 1.400 1_565 S
C571 C570 1.400 1_545 S
C571 C572 1.398 . S
C571 C577 1.491 . S
C572 H563 0.950 . S
C572 C571 1.398 . S
C572 C573 1.391 . S
C573 H561 0.950 . S
C573 C569 1.393 . S
C573 C572 1.391 . S
C574 H564 0.950 . S
C574 C575 1.386 . S
C574 C576 1.391 . S
C575 C574 1.386 . S
C575 C579 1.393 1_545 S
C576 H565 0.950 . S
C576 C574 1.391 . S
C576 C577 1.400 . S
C577 C571 1.491 . S
C577 C576 1.400 . S
C577 C578 1.398 1_545 S
C578 H566 0.950 . S
C578 C577 1.398 1_565 S
C578 C579 1.391 . S
C579 H567 0.950 . S
C579 C575 1.393 1_565 S
C579 C578 1.391 . S
H580 C588 0.950 . S
H581 C593 0.950 . S
H582 C590 0.950 . S
H583 C592 0.950 . S
H584 C594 0.950 . S
H585 C596 0.950 . S
H586 C598 0.950 . S
H587 C599 0.950 1_655 S
C588 H580 0.950 . S
C588 C589 1.386 . S
C588 C590 1.391 . S
C589 C588 1.386 . S
C589 C593 1.393 . S
C590 H582 0.950 . S
C590 C588 1.391 . S
C590 C591 1.400 . S
C591 C590 1.400 . S
C591 C592 1.398 . S
C591 C597 1.491 . S
C592 H583 0.950 . S
C592 C591 1.398 . S
C592 C593 1.391 . S
C593 H581 0.950 . S
C593 C589 1.393 . S
C593 C592 1.391 . S
C594 H584 0.950 . S
C594 C595 1.386 . S
C594 C596 1.391 . S
C595 C594 1.386 . S
C595 C599 1.393 . S
C596 H585 0.950 . S
C596 C594 1.391 . S
C596 C597 1.400 . S
C597 C591 1.491 . S
C597 C596 1.400 . S
C597 C598 1.398 . S
C598 H586 0.950 . S
C598 C597 1.398 . S
C598 C599 1.391 . S
C599 H587 0.950 1_455 S
C599 C595 1.393 . S
C599 C598 1.391 . S
H600 C608 0.950 . S
H601 C613 0.950 . S
H602 C610 0.950 . S
H603 C612 0.950 . S
H604 C614 0.950 . S
H605 C616 0.950 . S
H606 C618 0.950 . S
H607 C619 0.950 . S
C608 H600 0.950 . S
C608 C609 1.386 . S
C608 C610 1.391 . S
C609 C608 1.386 . S
C609 C613 1.393 1_545 S
C610 H602 0.950 . S
C610 C608 1.391 . S
C610 C611 1.400 . S
C611 C610 1.400 . S
C611 C612 1.398 1_545 S
C611 C617 1.491 . S
C612 H603 0.950 . S
C612 C611 1.398 1_565 S
C612 C613 1.391 . S
C613 H601 0.950 . S
C613 C609 1.393 1_565 S
C613 C612 1.391 . S
C614 H604 0.950 . S
C614 C615 1.386 . S
C614 C616 1.391 . S
C615 C614 1.386 . S
C615 C619 1.393 1_565 S
C616 H605 0.950 . S
C616 C614 1.391 . S
C616 C617 1.400 1_565 S
C617 C611 1.491 . S
C617 C616 1.400 1_545 S
C617 C618 1.398 . S
C618 H606 0.950 . S
C618 C617 1.398 . S
C618 C619 1.391 . S
C619 H607 0.950 . S
C619 C615 1.393 1_545 S
C619 C618 1.391 . S
H620 C628 0.950 . S
H621 C633 0.950 . S
H622 C630 0.950 . S
H623 C632 0.950 . S
H624 C634 0.950 . S
H625 C636 0.950 . S
H626 C638 0.950 . S
H627 C639 0.950 . S
C628 H620 0.950 . S
C628 C629 1.386 1_655 S
C628 C630 1.391 . S
C629 C628 1.386 1_455 S
C629 C633 1.393 . S
C630 H622 0.950 . S
C630 C628 1.391 . S
C630 C631 1.400 1_655 S
C631 C630 1.400 1_455 S
C631 C632 1.398 . S
C631 C637 1.491 . S
C632 H623 0.950 . S
C632 C631 1.398 . S
C632 C633 1.391 . S
C633 H621 0.950 . S
C633 C629 1.393 . S
C633 C632 1.391 . S
C634 H624 0.950 . S
C634 C635 1.342 1_455 S
C634 C636 1.391 . S
C635 C634 1.342 1_655 S
C635 C639 1.428 . S
C636 H625 0.950 . S
C636 C634 1.391 . S
C636 C637 1.400 . S
C637 C631 1.491 . S
C637 C636 1.400 . S
C637 C638 1.398 1_455 S
C638 H626 0.950 . S
C638 C637 1.398 1_655 S
C638 C639 1.391 . S
C639 H627 0.950 . S
C639 C635 1.428 . S
C639 C638 1.391 . S
H640 C648 0.950 . S
H641 C653 0.950 . S
H642 C650 0.950 . S
H643 C652 0.950 . S
H644 C654 0.950 . S
H645 C656 0.950 . S
H646 C658 0.950 . S
H647 C659 0.950 . S
C648 H640 0.950 . S
C648 C649 1.388 1_556 S
C648 C650 1.391 . S
C649 C648 1.388 1_554 S
C649 C653 1.390 . S
C650 H642 0.950 . S
C650 C648 1.391 . S
C650 C651 1.400 1_556 S
C651 C650 1.400 1_554 S
C651 C652 1.398 . S
C651 C657 1.491 . S
C652 H643 0.950 . S
C652 C651 1.398 . S
C652 C653 1.391 . S
C653 H641 0.950 . S
C653 C649 1.390 . S
C653 C652 1.391 . S
C654 H644 0.950 . S
C654 C655 1.386 . S
C654 C656 1.391 . S
C655 C654 1.386 . S
C655 C659 1.393 1_554 S
C656 H645 0.950 . S
C656 C654 1.391 . S
C656 C657 1.400 . S
C657 C651 1.491 . S
C657 C656 1.400 . S
C657 C658 1.398 1_554 S
C658 H646 0.950 . S
C658 C657 1.398 1_556 S
C658 C659 1.391 . S
C659 H647 0.950 . S
C659 C655 1.393 1_556 S
C659 C658 1.391 . S
H660 C668 0.950 . S
H661 C673 0.950 . S
H662 C670 0.950 . S
H663 C672 0.950 . S
H664 C674 0.950 . S
H665 C676 0.950 1_556 S
H666 C678 0.950 . S
H667 C679 0.950 . S
C668 H660 0.950 . S
C668 C669 1.386 1_554 S
C668 C670 1.391 . S
C669 C668 1.386 1_556 S
C669 C673 1.393 . S
C670 H662 0.950 . S
C670 C668 1.391 . S
C670 C671 1.400 . S
C671 C670 1.400 . S
C671 C672 1.398 1_554 S
C671 C677 1.491 . S
C672 H663 0.950 . S
C672 C671 1.398 1_556 S
C672 C673 1.391 . S
C673 H661 0.950 . S
C673 C669 1.393 . S
C673 C672 1.391 . S
C674 H664 0.950 . S
C674 C675 1.386 . S
C674 C676 1.391 . S
C675 C674 1.386 . S
C675 C679 1.393 . S
C676 H665 0.950 1_554 S
C676 C674 1.391 . S
C676 C677 1.400 . S
C677 C671 1.491 . S
C677 C676 1.400 . S
C677 C678 1.398 . S
C678 H666 0.950 . S
C678 C677 1.398 . S
C678 C679 1.391 . S
C679 H667 0.950 . S
C679 C675 1.393 . S
C679 C678 1.391 . S
H680 C688 0.950 . S
H681 C693 0.950 . S
H682 C690 0.950 . S
H683 C692 0.950 . S
H684 C694 0.950 . S
H685 C696 0.950 . S
H686 C698 0.950 . S
H687 C699 0.950 . S
C688 H680 0.950 . S
C688 C689 1.386 . S
C688 C690 1.391 . S
C689 C688 1.386 . S
C689 C693 1.393 . S
C690 H682 0.950 . S
C690 C688 1.391 . S
C690 C691 1.400 . S
C691 C690 1.400 . S
C691 C692 1.398 . S
C691 C697 1.491 . S
C692 H683 0.950 . S
C692 C691 1.398 . S
C692 C693 1.391 . S
C693 H681 0.950 . S
C693 C689 1.393 . S
C693 C692 1.391 . S
C694 H684 0.950 . S
C694 C695 1.386 . S
C694 C696 1.391 . S
C695 C694 1.386 . S
C695 C699 1.393 . S
C696 H685 0.950 . S
C696 C694 1.391 . S
C696 C697 1.400 . S
C697 C691 1.491 . S
C697 C696 1.400 . S
C697 C698 1.398 . S
C698 H686 0.950 . S
C698 C697 1.398 . S
C698 C699 1.391 . S
C699 H687 0.950 . S
C699 C695 1.393 . S
C699 C698 1.391 . S
H700 C708 0.950 . S
H701 C713 0.950 1_556 S
H702 C710 0.950 . S
H703 C712 0.950 1_556 S
H704 C714 0.950 . S
H705 C716 0.972 . S
H706 C718 0.950 . S
H707 C719 0.950 . S
C708 H700 0.950 . S
C708 C709 1.386 . S
C708 C710 1.391 . S
C709 C708 1.386 . S
C709 C713 1.393 . S
C710 H702 0.950 . S
C710 C708 1.391 . S
C710 C711 1.400 . S
C711 C710 1.400 . S
C711 C712 1.398 . S
C711 C717 1.491 . S
C712 H703 0.950 1_554 S
C712 C711 1.398 . S
C712 C713 1.391 . S
C713 H701 0.950 1_554 S
C713 C709 1.393 . S
C713 C712 1.391 . S
C714 H704 0.950 . S
C714 C715 1.386 . S
C714 C716 1.391 . S
C715 C714 1.386 . S
C715 C719 1.393 . S
C716 H705 0.972 . S
C716 C714 1.391 . S
C716 C717 1.400 . S
C717 C711 1.491 . S
C717 C716 1.400 . S
C717 C718 1.398 . S
C718 H706 0.950 . S
C718 C717 1.398 . S
C718 C719 1.391 . S
C719 H707 0.950 . S
C719 C715 1.393 . S
C719 C718 1.391 . S
H720 C728 0.950 . S
H721 C733 0.950 . S
H722 C730 0.950 . S
H723 C732 0.950 . S
H724 C734 0.950 . S
H725 C736 0.950 . S
H726 C738 0.950 . S
H727 C739 0.950 . S
C728 H720 0.950 . S
C728 C729 1.386 . S
C728 C730 1.391 . S
C729 C728 1.386 . S
C729 C733 1.393 . S
C730 H722 0.950 . S
C730 C728 1.391 . S
C730 C731 1.400 . S
C731 C730 1.400 . S
C731 C732 1.398 . S
C731 C737 1.491 . S
C732 H723 0.950 . S
C732 C731 1.398 . S
C732 C733 1.391 . S
C733 H721 0.950 . S
C733 C729 1.393 . S
C733 C732 1.391 . S
C734 H724 0.950 . S
C734 C735 1.386 . S
C734 C736 1.391 . S
C735 C734 1.386 . S
C735 C739 1.393 . S
C736 H725 0.950 . S
C736 C734 1.391 . S
C736 C737 1.400 . S
C737 C731 1.491 . S
C737 C736 1.400 . S
C737 C738 1.398 . S
C738 H726 0.950 . S
C738 C737 1.398 . S
C738 C739 1.391 . S
C739 H727 0.950 . S
C739 C735 1.393 . S
C739 C738 1.391 . S
H740 C748 0.950 . S
H741 C753 0.950 . S
H742 C750 0.950 . S
H743 C752 0.950 . S
H744 C754 0.950 . S
H745 C756 0.950 . S
H746 C758 0.950 1_554 S
H747 C759 0.950 . S
C748 H740 0.950 . S
C748 C749 1.386 . S
C748 C750 1.391 . S
C749 C748 1.386 . S
C749 C753 1.393 . S
C750 H742 0.950 . S
C750 C748 1.391 . S
C750 C751 1.400 . S
C751 C750 1.400 . S
C751 C752 1.398 . S
C751 C757 1.491 . S
C752 H743 0.950 . S
C752 C751 1.398 . S
C752 C753 1.391 . S
C753 H741 0.950 . S
C753 C749 1.393 . S
C753 C752 1.391 . S
C754 H744 0.950 . S
C754 C755 1.386 . S
C754 C756 1.391 . S
C755 C754 1.386 . S
C755 C759 1.393 . S
C756 H745 0.950 . S
C756 C754 1.391 . S
C756 C757 1.400 1_556 S
C757 C751 1.491 . S
C757 C756 1.400 1_554 S
C757 C758 1.398 1_554 S
C758 H746 0.950 1_556 S
C758 C757 1.398 1_556 S
C758 C759 1.391 . S
C759 H747 0.950 . S
C759 C755 1.393 . S
C759 C758 1.391 . S
H760 C768 0.950 . S
H761 C773 0.950 . S
H762 C770 0.950 . S
H763 C772 0.950 . S
H764 C774 0.950 . S
H765 C776 0.950 . S
H766 C778 0.950 . S
H767 C779 0.950 . S
C768 H760 0.950 . S
C768 C769 1.386 . S
C768 C770 1.391 . S
C769 C768 1.386 . S
C769 C773 1.393 . S
C770 H762 0.950 . S
C770 C768 1.391 . S
C770 C771 1.400 . S
C771 C770 1.400 . S
C771 C772 1.398 . S
C771 C777 1.491 . S
C772 H763 0.950 . S
C772 C771 1.398 . S
C772 C773 1.391 . S
C773 H761 0.950 . S
C773 C769 1.393 . S
C773 C772 1.391 . S
C774 H764 0.950 . S
C774 C775 1.386 . S
C774 C776 1.391 . S
C775 C774 1.386 . S
C775 C779 1.393 . S
C776 H765 0.950 . S
C776 C774 1.391 . S
C776 C777 1.400 . S
C777 C771 1.491 . S
C777 C776 1.400 . S
C777 C778 1.398 . S
C778 H766 0.950 . S
C778 C777 1.398 . S
C778 C779 1.391 . S
C779 H767 0.950 . S
C779 C775 1.393 . S
C779 C778 1.391 . S
H780 C788 0.950 . S
H781 C793 0.950 . S
H782 C790 0.950 . S
H783 C792 0.950 . S
H784 C794 0.950 . S
H785 C796 0.971 . S
H786 C798 0.961 . S
H787 C799 0.950 . S
C788 H780 0.950 . S
C788 C789 1.386 . S
C788 C790 1.391 . S
C789 C788 1.386 . S
C789 C793 1.393 . S
C790 H782 0.950 . S
C790 C788 1.391 . S
C790 C791 1.400 . S
C791 C790 1.400 . S
C791 C792 1.398 . S
C791 C797 1.491 . S
C792 H783 0.950 . S
C792 C791 1.398 . S
C792 C793 1.391 . S
C793 H781 0.950 . S
C793 C789 1.393 . S
C793 C792 1.391 . S
C794 H784 0.950 . S
C794 C795 1.386 . S
C794 C796 1.351 1_554 S
C795 C794 1.386 . S
C795 C799 1.393 . S
C796 H785 0.971 . S
C796 C794 1.351 1_556 S
C796 C797 1.420 . S
C797 C791 1.491 . S
C797 C796 1.420 . S
C797 C798 1.411 . S
C798 H786 0.961 . S
C798 C797 1.411 . S
C798 C799 1.368 1_556 S
C799 H787 0.950 . S
C799 C795 1.393 . S
C799 C798 1.368 1_554 S
H800 C808 0.950 . S
H801 C813 0.950 . S
H802 C810 0.950 . S
H803 C812 0.950 . S
H804 C814 0.950 . S
H805 C816 0.950 . S
H806 C818 0.950 . S
H807 C819 0.950 . S
C808 H800 0.950 . S
C808 C809 1.386 . S
C808 C810 1.391 . S
C809 C808 1.386 . S
C809 C813 1.393 . S
C810 H802 0.950 . S
C810 C808 1.391 . S
C810 C811 1.400 . S
C811 C810 1.400 . S
C811 C812 1.398 . S
C811 C817 1.491 1_655 S
C812 H803 0.950 . S
C812 C811 1.398 . S
C812 C813 1.391 . S
C813 H801 0.950 . S
C813 C809 1.393 . S
C813 C812 1.391 . S
C814 H804 0.950 . S
C814 C815 1.386 . S
C814 C816 1.391 . S
C815 C814 1.386 . S
C815 C819 1.393 . S
C816 H805 0.950 . S
C816 C814 1.391 . S
C816 C817 1.400 . S
C817 C811 1.491 1_455 S
C817 C816 1.400 . S
C817 C818 1.398 . S
C818 H806 0.950 . S
C818 C817 1.398 . S
C818 C819 1.391 . S
C819 H807 0.950 . S
C819 C815 1.393 . S
C819 C818 1.391 . S
H820 C828 0.950 . S
H821 C833 0.950 . S
H822 C830 0.950 . S
H823 C832 0.950 . S
H824 C834 0.950 . S
H825 C836 0.950 . S
H826 C838 0.950 . S
H827 C839 0.950 . S
C828 H820 0.950 . S
C828 C829 1.386 . S
C828 C830 1.391 . S
C829 C828 1.386 . S
C829 C833 1.393 . S
C830 H822 0.950 . S
C830 C828 1.391 . S
C830 C831 1.400 . S
C831 C830 1.400 . S
C831 C832 1.398 . S
C831 C837 1.491 . S
C832 H823 0.950 . S
C832 C831 1.398 . S
C832 C833 1.391 . S
C833 H821 0.950 . S
C833 C829 1.393 . S
C833 C832 1.391 . S
C834 H824 0.950 . S
C834 C835 1.386 . S
C834 C836 1.391 . S
C835 C834 1.386 . S
C835 C839 1.393 . S
C836 H825 0.950 . S
C836 C834 1.391 . S
C836 C837 1.400 1_565 S
C837 C831 1.491 . S
C837 C836 1.400 1_545 S
C837 C838 1.398 1_545 S
C838 H826 0.950 . S
C838 C837 1.398 1_565 S
C838 C839 1.391 . S
C839 H827 0.950 . S
C839 C835 1.393 . S
C839 C838 1.391 . S
H840 C848 0.950 . S
H841 C853 0.950 . S
H842 C850 0.950 . S
H843 C852 0.950 . S
H844 C854 0.950 . S
H845 C856 0.933 1_655 S
H846 C858 0.950 . S
H847 C859 0.950 . S
C848 H840 0.950 . S
C848 C849 1.386 . S
C848 C850 1.391 . S
C849 C848 1.386 . S
C849 C853 1.393 . S
C850 H842 0.950 . S
C850 C848 1.391 . S
C850 C851 1.400 . S
C851 C850 1.400 . S
C851 C852 1.398 . S
C851 C857 1.491 . S
C852 H843 0.950 . S
C852 C851 1.398 . S
C852 C853 1.391 . S
C853 H841 0.950 . S
C853 C849 1.393 . S
C853 C852 1.391 . S
C854 H844 0.950 . S
C854 C855 1.386 . S
C854 C856 1.391 . S
C855 C854 1.386 . S
C855 C859 1.393 . S
C856 H845 0.933 1_455 S
C856 C854 1.391 . S
C856 C857 1.400 1_455 S
C857 C851 1.491 . S
C857 C856 1.400 1_655 S
C857 C858 1.398 1_655 S
C858 H846 0.950 . S
C858 C857 1.398 1_455 S
C858 C859 1.391 . S
C859 H847 0.950 . S
C859 C855 1.393 . S
C859 C858 1.391 . S
H860 C868 0.950 . S
H861 C873 0.950 . S
H862 C870 0.950 . S
H863 C872 0.950 1_545 S
H864 C874 0.950 . S
H865 C876 0.950 . S
H866 C878 0.950 . S
H867 C879 0.950 . S
C868 H860 0.950 . S
C868 C869 1.386 . S
C868 C870 1.391 . S
C869 C868 1.386 . S
C869 C873 1.393 . S
C870 H862 0.950 . S
C870 C868 1.391 . S
C870 C871 1.400 1_565 S
C871 C870 1.400 1_545 S
C871 C872 1.398 1_545 S
C871 C877 1.491 . S
C872 H863 0.950 1_565 S
C872 C871 1.398 1_565 S
C872 C873 1.391 . S
C873 H861 0.950 . S
C873 C869 1.393 . S
C873 C872 1.391 . S
C874 H864 0.950 . S
C874 C875 1.386 . S
C874 C876 1.391 . S
C875 C874 1.386 . S
C875 C879 1.393 . S
C876 H865 0.950 . S
C876 C874 1.391 . S
C876 C877 1.400 . S
C877 C871 1.491 . S
C877 C876 1.400 . S
C877 C878 1.398 . S
C878 H866 0.950 . S
C878 C877 1.398 . S
C878 C879 1.391 . S
C879 H867 0.950 . S
C879 C875 1.393 . S
C879 C878 1.391 . S
H880 C888 0.950 . S
H881 C893 0.950 1_565 S
H882 C890 0.950 . S
H883 C892 0.950 . S
H884 C894 0.950 . S
H885 C896 0.950 . S
H886 C898 0.950 . S
H887 C899 0.950 . S
C888 H880 0.950 . S
C888 C889 1.386 1_545 S
C888 C890 1.391 . S
C889 C888 1.386 1_565 S
C889 C893 1.393 1_565 S
C890 H882 0.950 . S
C890 C888 1.391 . S
C890 C891 1.400 . S
C891 C890 1.400 . S
C891 C892 1.398 . S
C891 C897 1.491 . S
C892 H883 0.950 . S
C892 C891 1.398 . S
C892 C893 1.391 . S
C893 H881 0.950 1_545 S
C893 C889 1.393 1_545 S
C893 C892 1.391 . S
C894 H884 0.950 . S
C894 C895 1.386 . S
C894 C896 1.391 . S
C895 C894 1.386 . S
C895 C899 1.393 . S
C896 H885 0.950 . S
C896 C894 1.391 . S
C896 C897 1.400 . S
C897 C891 1.491 . S
C897 C896 1.400 . S
C897 C898 1.398 . S
C898 H886 0.950 . S
C898 C897 1.398 . S
C898 C899 1.391 . S
C899 H887 0.950 . S
C899 C895 1.393 . S
C899 C898 1.391 . S
H900 C908 0.950 . S
H901 C913 0.950 . S
H902 C910 0.950 . S
H903 C912 0.950 . S
H904 C914 0.950 . S
H905 C916 0.950 . S
H906 C918 0.950 1_455 S
H907 C919 0.950 . S
C908 H900 0.950 . S
C908 C909 1.386 . S
C908 C910 1.391 . S
C909 C908 1.386 . S
C909 C913 1.393 . S
C910 H902 0.950 . S
C910 C908 1.391 . S
C910 C911 1.400 . S
C911 C910 1.400 . S
C911 C912 1.398 . S
C911 C917 1.491 . S
C912 H903 0.950 . S
C912 C911 1.398 . S
C912 C913 1.391 . S
C913 H901 0.950 . S
C913 C909 1.393 . S
C913 C912 1.391 . S
C914 H904 0.950 . S
C914 C915 1.386 . S
C914 C916 1.391 . S
C915 C914 1.386 . S
C915 C919 1.393 . S
C916 H905 0.950 . S
C916 C914 1.391 . S
C916 C917 1.400 1_655 S
C917 C911 1.491 . S
C917 C916 1.400 1_455 S
C917 C918 1.398 1_455 S
C918 H906 0.950 1_655 S
C918 C917 1.398 1_655 S
C918 C919 1.391 . S
C919 H907 0.950 . S
C919 C915 1.393 . S
C919 C918 1.391 . S
H920 C928 0.950 . S
H921 C933 0.950 . S
H922 C930 0.950 . S
H923 C932 0.950 . S
H924 C934 0.950 . S
H925 C936 0.950 . S
H926 C938 0.950 . S
H927 C939 0.950 . S
C928 H920 0.950 . S
C928 C929 1.386 . S
C928 C930 1.391 . S
C929 C928 1.386 . S
C929 C933 1.393 . S
C930 H922 0.950 . S
C930 C928 1.391 . S
C930 C931 1.400 . S
C931 C930 1.400 . S
C931 C932 1.398 . S
C931 C937 1.491 . S
C932 H923 0.950 . S
C932 C931 1.398 . S
C932 C933 1.391 . S
C933 H921 0.950 . S
C933 C929 1.393 . S
C933 C932 1.391 . S
C934 H924 0.950 . S
C934 C935 1.386 . S
C934 C936 1.391 . S
C935 C934 1.386 . S
C935 C939 1.393 . S
C936 H925 0.950 . S
C936 C934 1.391 . S
C936 C937 1.400 . S
C937 C931 1.491 . S
C937 C936 1.400 . S
C937 C938 1.398 . S
C938 H926 0.950 . S
C938 C937 1.398 . S
C938 C939 1.391 . S
C939 H927 0.950 . S
C939 C935 1.393 . S
C939 C938 1.391 . S
H940 C948 0.950 . S
H941 C953 0.950 . S
H942 C950 0.950 . S
H943 C952 0.950 . S
H944 C954 0.950 . S
H945 C956 0.950 . S
H946 C958 0.950 . S
H947 C959 0.950 . S
C948 H940 0.950 . S
C948 C949 1.386 . S
C948 C950 1.391 . S
C949 C948 1.386 . S
C949 C953 1.393 . S
C950 H942 0.950 . S
C950 C948 1.391 . S
C950 C951 1.400 . S
C951 C950 1.400 . S
C951 C952 1.398 . S
C951 C957 1.491 . S
C952 H943 0.950 . S
C952 C951 1.398 . S
C952 C953 1.391 . S
C953 H941 0.950 . S
C953 C949 1.393 . S
C953 C952 1.391 . S
C954 H944 0.950 . S
C954 C955 1.386 . S
C954 C956 1.391 1_655 S
C955 C954 1.386 . S
C955 C959 1.393 . S
C956 H945 0.950 . S
C956 C954 1.391 1_455 S
C956 C957 1.400 . S
C957 C951 1.491 . S
C957 C956 1.400 . S
C957 C958 1.398 . S
C958 H946 0.950 . S
C958 C957 1.398 . S
C958 C959 1.391 1_455 S
C959 H947 0.950 . S
C959 C955 1.393 . S
C959 C958 1.391 1_655 S
H960 C968 0.950 . S
H961 C973 0.950 . S
H962 C970 0.950 . S
H963 C972 0.950 . S
H964 C974 0.950 . S
H965 C976 0.950 . S
H966 C978 0.950 . S
H967 C979 0.950 . S
C968 H960 0.950 . S
C968 C969 1.386 . S
C968 C970 1.391 . S
C969 C968 1.386 . S
C969 C973 1.393 . S
C970 H962 0.950 . S
C970 C968 1.391 . S
C970 C971 1.400 . S
C971 C970 1.400 . S
C971 C972 1.398 . S
C971 C977 1.491 . S
C972 H963 0.950 . S
C972 C971 1.398 . S
C972 C973 1.391 . S
C973 H961 0.950 . S
C973 C969 1.393 . S
C973 C972 1.391 . S
C974 H964 0.950 . S
C974 C975 1.386 . S
C974 C976 1.391 . S
C975 C974 1.386 . S
C975 C979 1.393 . S
C976 H965 0.950 . S
C976 C974 1.391 . S
C976 C977 1.400 . S
C977 C971 1.491 . S
C977 C976 1.400 . S
C977 C978 1.398 . S
C978 H966 0.950 . S
C978 C977 1.398 . S
C978 C979 1.391 . S
C979 H967 0.950 . S
C979 C975 1.393 . S
C979 C978 1.391 . S
H980 C988 0.950 . S
H981 C993 0.950 . S
H982 C990 0.950 . S
H983 C992 0.950 . S
H984 C994 0.950 . S
H985 C996 0.950 . S
H986 C998 0.950 . S
H987 C999 0.950 . S
C988 H980 0.950 . S
C988 C989 1.386 . S
C988 C990 1.391 . S
C989 C988 1.386 . S
C989 C993 1.393 . S
C990 H982 0.950 . S
C990 C988 1.391 . S
C990 C991 1.400 . S
C991 C990 1.400 . S
C991 C992 1.398 . S
C991 C997 1.491 . S
C992 H983 0.950 . S
C992 C991 1.398 . S
C992 C993 1.391 . S
C993 H981 0.950 . S
C993 C989 1.393 . S
C993 C992 1.391 . S
C994 H984 0.950 . S
C994 C995 1.386 . S
C994 C996 1.391 . S
C995 C994 1.386 . S
C995 C999 1.393 . S
C996 H985 0.950 . S
C996 C994 1.391 . S
C996 C997 1.400 . S
C997 C991 1.491 . S
C997 C996 1.400 . S
C997 C998 1.398 . S
C998 H986 0.950 . S
C998 C997 1.398 . S
C998 C999 1.391 . S
C999 H987 0.950 . S
C999 C995 1.393 . S
C999 C998 1.391 . S
H1000 C1008 0.950 1_455 S
H1001 C1013 0.950 . S
H1002 C1010 0.950 . S
H1003 C1012 0.950 . S
H1004 C1014 0.950 . S
H1005 C1016 0.950 . S
H1006 C1018 0.950 . S
H1007 C1019 0.950 . S
C1008 H1000 0.950 1_655 S
C1008 C1009 1.386 . S
C1008 C1010 1.391 . S
C1009 C1008 1.386 . S
C1009 C1013 1.393 . S
C1010 H1002 0.950 . S
C1010 C1008 1.391 . S
C1010 C1011 1.400 . S
C1011 C1010 1.400 . S
C1011 C1012 1.398 . S
C1011 C1017 1.491 . S
C1012 H1003 0.950 . S
C1012 C1011 1.398 . S
C1012 C1013 1.391 . S
C1013 H1001 0.950 . S
C1013 C1009 1.393 . S
C1013 C1012 1.391 . S
C1014 H1004 0.950 . S
C1014 C1015 1.386 . S
C1014 C1016 1.391 . S
C1015 C1014 1.386 . S
C1015 C1019 1.393 . S
C1016 H1005 0.950 . S
C1016 C1014 1.391 . S
C1016 C1017 1.400 . S
C1017 C1011 1.491 . S
C1017 C1016 1.400 . S
C1017 C1018 1.398 . S
C1018 H1006 0.950 . S
C1018 C1017 1.398 . S
C1018 C1019 1.391 . S
C1019 H1007 0.950 . S
C1019 C1015 1.393 . S
C1019 C1018 1.391 . S
H1020 C1028 0.950 . S
H1021 C1033 0.950 . S
H1022 C1030 0.950 1_545 S
H1023 C1032 0.950 . S
H1024 C1034 0.950 . S
H1025 C1036 0.950 . S
H1026 C1038 0.950 . S
H1027 C1039 0.950 . S
C1028 H1020 0.950 . S
C1028 C1029 1.386 1_545 S
C1028 C1030 1.391 1_545 S
C1029 C1028 1.386 1_565 S
C1029 C1033 1.393 . S
C1030 H1022 0.950 1_565 S
C1030 C1028 1.391 1_565 S
C1030 C1031 1.400 . S
C1031 C1030 1.400 . S
C1031 C1032 1.398 . S
C1031 C1037 1.491 . S
C1032 H1023 0.950 . S
C1032 C1031 1.398 . S
C1032 C1033 1.391 . S
C1033 H1021 0.950 . S
C1033 C1029 1.393 . S
C1033 C1032 1.391 . S
C1034 H1024 0.950 . S
C1034 C1035 1.386 . S
C1034 C1036 1.391 . S
C1035 C1034 1.386 . S
C1035 C1039 1.393 . S
C1036 H1025 0.950 . S
C1036 C1034 1.391 . S
C1036 C1037 1.400 . S
C1037 C1031 1.491 . S
C1037 C1036 1.400 . S
C1037 C1038 1.398 . S
C1038 H1026 0.950 . S
C1038 C1037 1.398 . S
C1038 C1039 1.391 . S
C1039 H1027 0.950 . S
C1039 C1035 1.393 . S
C1039 C1038 1.391 . S
H1040 C1048 0.950 . S
H1041 C1053 0.950 . S
H1042 C1050 0.950 . S
H1043 C1052 0.950 . S
H1044 C1054 0.950 . S
H1045 C1056 0.950 . S
H1046 C1058 0.950 . S
H1047 C1059 0.950 . S
C1048 H1040 0.950 . S
C1048 C1049 1.386 . S
C1048 C1050 1.391 . S
C1049 C1048 1.386 . S
C1049 C1053 1.393 . S
C1050 H1042 0.950 . S
C1050 C1048 1.391 . S
C1050 C1051 1.400 . S
C1051 C1050 1.400 . S
C1051 C1052 1.398 . S
C1051 C1057 1.491 . S
C1052 H1043 0.950 . S
C1052 C1051 1.398 . S
C1052 C1053 1.391 . S
C1053 H1041 0.950 . S
C1053 C1049 1.393 . S
C1053 C1052 1.391 . S
C1054 H1044 0.950 . S
C1054 C1055 1.386 . S
C1054 C1056 1.391 . S
C1055 C1054 1.386 . S
C1055 C1059 1.393 . S
C1056 H1045 0.950 . S
C1056 C1054 1.391 . S
C1056 C1057 1.400 . S
C1057 C1051 1.491 . S
C1057 C1056 1.400 . S
C1057 C1058 1.398 . S
C1058 H1046 0.950 . S
C1058 C1057 1.398 . S
C1058 C1059 1.391 . S
C1059 H1047 0.950 . S
C1059 C1055 1.393 . S
C1059 C1058 1.391 . S
H1060 C1068 0.950 . S
H1061 C1073 0.950 . S
H1062 C1070 0.950 . S
H1063 C1072 0.950 . S
H1064 C1074 0.950 . S
H1065 C1076 0.950 . S
H1066 C1078 0.950 . S
H1067 C1079 0.950 . S
C1068 H1060 0.950 . S
C1068 C1069 1.386 . S
C1068 C1070 1.391 . S
C1069 C1068 1.386 . S
C1069 C1073 1.393 . S
C1070 H1062 0.950 . S
C1070 C1068 1.391 . S
C1070 C1071 1.400 . S
C1071 C1070 1.400 . S
C1071 C1072 1.398 . S
C1071 C1077 1.491 . S
C1072 H1063 0.950 . S
C1072 C1071 1.398 . S
C1072 C1073 1.391 . S
C1073 H1061 0.950 . S
C1073 C1069 1.393 . S
C1073 C1072 1.391 . S
C1074 H1064 0.950 . S
C1074 C1075 1.386 . S
C1074 C1076 1.391 . S
C1075 C1074 1.386 . S
C1075 C1079 1.393 . S
C1076 H1065 0.950 . S
C1076 C1074 1.391 . S
C1076 C1077 1.400 . S
C1077 C1071 1.491 . S
C1077 C1076 1.400 . S
C1077 C1078 1.398 . S
C1078 H1066 0.950 . S
C1078 C1077 1.398 . S
C1078 C1079 1.391 . S
C1079 H1067 0.950 . S
C1079 C1075 1.393 . S
C1079 C1078 1.391 . S
H1080 C1088 0.950 . S
H1081 C1093 0.950 . S
H1082 C1090 0.950 . S
H1083 C1092 0.950 . S
H1084 C1094 0.950 . S
H1085 C1096 0.950 . S
H1086 C1098 0.950 . S
H1087 C1099 0.950 . S
C1088 H1080 0.950 . S
C1088 C1089 1.386 . S
C1088 C1090 1.391 . S
C1089 C1088 1.386 . S
C1089 C1093 1.393 . S
C1090 H1082 0.950 . S
C1090 C1088 1.391 . S
C1090 C1091 1.400 . S
C1091 C1090 1.400 . S
C1091 C1092 1.398 . S
C1091 C1097 1.491 . S
C1092 H1083 0.950 . S
C1092 C1091 1.398 . S
C1092 C1093 1.391 . S
C1093 H1081 0.950 . S
C1093 C1089 1.393 . S
C1093 C1092 1.391 . S
C1094 H1084 0.950 . S
C1094 C1095 1.386 . S
C1094 C1096 1.391 . S
C1095 C1094 1.386 . S
C1095 C1099 1.393 . S
C1096 H1085 0.950 . S
C1096 C1094 1.391 . S
C1096 C1097 1.400 . S
C1097 C1091 1.491 . S
C1097 C1096 1.400 . S
C1097 C1098 1.398 . S
C1098 H1086 0.950 . S
C1098 C1097 1.398 . S
C1098 C1099 1.391 . S
C1099 H1087 0.950 . S
C1099 C1095 1.393 . S
C1099 C1098 1.391 . S
H1100 C1108 0.950 . S
H1101 C1113 0.950 . S
H1102 C1110 0.950 . S
H1103 C1112 0.950 . S
H1104 C1114 0.950 . S
H1105 C1116 0.950 . S
H1106 C1118 0.950 . S
H1107 C1119 0.950 . S
C1108 H1100 0.950 . S
C1108 C1109 1.386 . S
C1108 C1110 1.391 . S
C1109 C1108 1.386 . S
C1109 C1113 1.393 . S
C1110 H1102 0.950 . S
C1110 C1108 1.391 . S
C1110 C1111 1.400 . S
C1111 C1110 1.400 . S
C1111 C1112 1.398 . S
C1111 C1117 1.491 . S
C1112 H1103 0.950 . S
C1112 C1111 1.398 . S
C1112 C1113 1.391 . S
C1113 H1101 0.950 . S
C1113 C1109 1.393 . S
C1113 C1112 1.391 . S
C1114 H1104 0.950 . S
C1114 C1115 1.386 . S
C1114 C1116 1.391 . S
C1115 C1114 1.386 . S
C1115 C1119 1.393 . S
C1116 H1105 0.950 . S
C1116 C1114 1.391 . S
C1116 C1117 1.400 . S
C1117 C1111 1.491 . S
C1117 C1116 1.400 . S
C1117 C1118 1.398 . S
C1118 H1106 0.950 . S
C1118 C1117 1.398 . S
C1118 C1119 1.391 . S
C1119 H1107 0.950 . S
C1119 C1115 1.393 . S
C1119 C1118 1.391 . S
H1120 C1128 0.950 . S
H1121 C1133 0.950 . S
H1122 C1130 0.950 . S
H1123 C1132 0.950 . S
H1124 C1134 0.950 . S
H1125 C1136 0.950 . S
H1126 C1138 0.950 . S
H1127 C1139 0.950 . S
C1128 H1120 0.950 . S
C1128 C1129 1.386 . S
C1128 C1130 1.391 . S
C1129 C1128 1.386 . S
C1129 C1133 1.393 . S
C1130 H1122 0.950 . S
C1130 C1128 1.391 . S
C1130 C1131 1.400 . S
C1131 C1130 1.400 . S
C1131 C1132 1.398 . S
C1131 C1137 1.491 . S
C1132 H1123 0.950 . S
C1132 C1131 1.398 . S
C1132 C1133 1.391 . S
C1133 H1121 0.950 . S
C1133 C1129 1.393 . S
C1133 C1132 1.391 . S
C1134 H1124 0.950 . S
C1134 C1135 1.386 . S
C1134 C1136 1.391 . S
C1135 C1134 1.386 . S
C1135 C1139 1.393 . S
C1136 H1125 0.950 . S
C1136 C1134 1.391 . S
C1136 C1137 1.400 . S
C1137 C1131 1.491 . S
C1137 C1136 1.400 . S
C1137 C1138 1.398 . S
C1138 H1126 0.950 . S
C1138 C1137 1.398 . S
C1138 C1139 1.391 . S
C1139 H1127 0.950 . S
C1139 C1135 1.393 . S
C1139 C1138 1.391 . S
H1140 C1148 0.950 . S
H1141 C1153 0.950 1_455 S
H1142 C1150 0.950 . S
H1143 C1152 0.950 . S
H1144 C1154 0.950 . S
H1145 C1156 0.950 . S
H1146 C1158 0.950 . S
H1147 C1159 0.950 . S
C1148 H1140 0.950 . S
C1148 C1149 1.386 . S
C1148 C1150 1.391 . S
C1149 C1148 1.386 . S
C1149 C1153 1.393 . S
C1150 H1142 0.950 . S
C1150 C1148 1.391 . S
C1150 C1151 1.400 . S
C1151 C1150 1.400 . S
C1151 C1152 1.398 . S
C1151 C1157 1.491 . S
C1152 H1143 0.950 . S
C1152 C1151 1.398 . S
C1152 C1153 1.391 . S
C1153 H1141 0.950 1_655 S
C1153 C1149 1.393 . S
C1153 C1152 1.391 . S
C1154 H1144 0.950 . S
C1154 C1155 1.386 . S
C1154 C1156 1.391 . S
C1155 C1154 1.386 . S
C1155 C1159 1.393 . S
C1156 H1145 0.950 . S
C1156 C1154 1.391 . S
C1156 C1157 1.400 . S
C1157 C1151 1.491 . S
C1157 C1156 1.400 . S
C1157 C1158 1.398 . S
C1158 H1146 0.950 . S
C1158 C1157 1.398 . S
C1158 C1159 1.391 . S
C1159 H1147 0.950 . S
C1159 C1155 1.393 . S
C1159 C1158 1.391 . S
H1160 C1168 0.950 . S
H1161 C1173 0.950 . S
H1162 C1170 0.950 . S
H1163 C1172 0.950 . S
H1164 C1174 0.950 . S
H1165 C1176 0.950 . S
H1166 C1178 0.950 . S
H1167 C1179 0.950 . S
C1168 H1160 0.950 . S
C1168 C1169 1.386 . S
C1168 C1170 1.391 . S
C1169 C1168 1.386 . S
C1169 C1173 1.393 . S
C1170 H1162 0.950 . S
C1170 C1168 1.391 . S
C1170 C1171 1.400 . S
C1171 C1170 1.400 . S
C1171 C1172 1.398 . S
C1171 C1177 1.491 . S
C1172 H1163 0.950 . S
C1172 C1171 1.398 . S
C1172 C1173 1.391 . S
C1173 H1161 0.950 . S
C1173 C1169 1.393 . S
C1173 C1172 1.391 . S
C1174 H1164 0.950 . S
C1174 C1175 1.386 . S
C1174 C1176 1.391 . S
C1175 C1174 1.386 . S
C1175 C1179 1.393 . S
C1176 H1165 0.950 . S
C1176 C1174 1.391 . S
C1176 C1177 1.400 . S
C1177 C1171 1.491 . S
C1177 C1176 1.400 . S
C1177 C1178 1.398 . S
C1178 H1166 0.950 . S
C1178 C1177 1.398 . S
C1178 C1179 1.391 . S
C1179 H1167 0.950 . S
C1179 C1175 1.393 . S
C1179 C1178 1.391 . S
H1180 C1188 0.950 . S
H1181 C1193 0.950 . S
H1182 C1190 0.950 . S
H1183 C1192 0.950 . S
H1184 C1194 0.950 . S
H1185 C1196 0.950 . S
H1186 C1198 0.950 . S
H1187 C1199 0.950 . S
C1188 H1180 0.950 . S
C1188 C1189 1.386 . S
C1188 C1190 1.391 . S
C1189 C1188 1.386 . S
C1189 C1193 1.393 . S
C1190 H1182 0.950 . S
C1190 C1188 1.391 . S
C1190 C1191 1.400 . S
C1191 C1190 1.400 . S
C1191 C1192 1.398 . S
C1191 C1197 1.491 . S
C1192 H1183 0.950 . S
C1192 C1191 1.398 . S
C1192 C1193 1.391 . S
C1193 H1181 0.950 . S
C1193 C1189 1.393 . S
C1193 C1192 1.391 . S
C1194 H1184 0.950 . S
C1194 C1195 1.386 . S
C1194 C1196 1.391 . S
C1195 C1194 1.386 . S
C1195 C1199 1.393 . S
C1196 H1185 0.950 . S
C1196 C1194 1.391 . S
C1196 C1197 1.400 . S
C1197 C1191 1.491 . S
C1197 C1196 1.400 . S
C1197 C1198 1.398 . S
C1198 H1186 0.950 . S
C1198 C1197 1.398 . S
C1198 C1199 1.391 . S
C1199 H1187 0.950 . S
C1199 C1195 1.393 . S
C1199 C1198 1.391 . S
H1200 C1208 0.950 . S
H1201 C1213 0.950 . S
H1202 C1210 0.950 . S
H1203 C1212 0.950 . S
H1204 C1214 0.950 . S
H1205 C1216 0.950 . S
H1206 C1218 0.950 . S
H1207 C1219 0.950 . S
C1208 H1200 0.950 . S
C1208 C1209 1.386 . S
C1208 C1210 1.391 . S
C1209 C1208 1.386 . S
C1209 C1213 1.393 . S
C1210 H1202 0.950 . S
C1210 C1208 1.391 . S
C1210 C1211 1.400 . S
C1211 C1210 1.400 . S
C1211 C1212 1.398 . S
C1211 C1217 1.491 . S
C1212 H1203 0.950 . S
C1212 C1211 1.398 . S
C1212 C1213 1.391 . S
C1213 H1201 0.950 . S
C1213 C1209 1.393 . S
C1213 C1212 1.391 . S
C1214 H1204 0.950 . S
C1214 C1215 1.386 . S
C1214 C1216 1.391 . S
C1215 C1214 1.386 . S
C1215 C1219 1.393 . S
C1216 H1205 0.950 . S
C1216 C1214 1.391 . S
C1216 C1217 1.400 . S
C1217 C1211 1.491 . S
C1217 C1216 1.400 . S
C1217 C1218 1.398 . S
C1218 H1206 0.950 . S
C1218 C1217 1.398 . S
C1218 C1219 1.391 . S
C1219 H1207 0.950 . S
C1219 C1215 1.393 . S
C1219 C1218 1.391 . S
H1220 C1228 0.950 . S
H1221 C1233 0.950 . S
H1222 C1230 0.950 . S
H1223 C1232 0.950 . S
H1224 C1234 0.950 . S
H1225 C1236 0.950 . S
H1226 C1238 0.950 . S
H1227 C1239 0.950 . S
C1228 H1220 0.950 . S
C1228 C1229 1.386 . S
C1228 C1230 1.391 . S
C1229 C1228 1.386 . S
C1229 C1233 1.393 . S
C1230 H1222 0.950 . S
C1230 C1228 1.391 . S
C1230 C1231 1.400 . S
C1231 C1230 1.400 . S
C1231 C1232 1.398 . S
C1231 C1237 1.491 . S
C1232 H1223 0.950 . S
C1232 C1231 1.398 . S
C1232 C1233 1.391 . S
C1233 H1221 0.950 . S
C1233 C1229 1.393 . S
C1233 C1232 1.391 . S
C1234 H1224 0.950 . S
C1234 C1235 1.386 . S
C1234 C1236 1.391 . S
C1235 C1234 1.386 . S
C1235 C1239 1.393 . S
C1236 H1225 0.950 . S
C1236 C1234 1.391 . S
C1236 C1237 1.400 . S
C1237 C1231 1.491 . S
C1237 C1236 1.400 . S
C1237 C1238 1.398 . S
C1238 H1226 0.950 . S
C1238 C1237 1.398 . S
C1238 C1239 1.391 . S
C1239 H1227 0.950 . S
C1239 C1235 1.393 . S
C1239 C1238 1.391 . S
H1240 C1248 0.950 . S
H1241 C1253 0.950 . S
H1242 C1250 0.950 . S
H1243 C1252 0.950 . S
H1244 C1254 0.950 . S
H1245 C1256 0.950 . S
H1246 C1258 0.950 . S
H1247 C1259 0.950 . S
C1248 H1240 0.950 . S
C1248 C1249 1.386 . S
C1248 C1250 1.391 . S
C1249 C1248 1.386 . S
C1249 C1253 1.393 . S
C1250 H1242 0.950 . S
C1250 C1248 1.391 . S
C1250 C1251 1.400 . S
C1251 C1250 1.400 . S
C1251 C1252 1.398 . S
C1251 C1257 1.491 . S
C1252 H1243 0.950 . S
C1252 C1251 1.398 . S
C1252 C1253 1.391 . S
C1253 H1241 0.950 . S
C1253 C1249 1.393 . S
C1253 C1252 1.391 . S
C1254 H1244 0.950 . S
C1254 C1255 1.386 . S
C1254 C1256 1.391 . S
C1255 C1254 1.386 . S
C1255 C1259 1.393 . S
C1256 H1245 0.950 . S
C1256 C1254 1.391 . S
C1256 C1257 1.400 . S
C1257 C1251 1.491 . S
C1257 C1256 1.400 . S
C1257 C1258 1.398 . S
C1258 H1246 0.950 . S
C1258 C1257 1.398 . S
C1258 C1259 1.391 . S
C1259 H1247 0.950 . S
C1259 C1255 1.393 . S
C1259 C1258 1.391 . S
H1260 C1268 0.950 . S
H1261 C1273 0.950 . S
H1262 C1270 0.950 . S
H1263 C1272 0.950 . S
H1264 C1274 0.950 . S
H1265 C1276 0.950 . S
H1266 C1278 0.950 . S
H1267 C1279 0.950 . S
C1268 H1260 0.950 . S
C1268 C1269 1.386 . S
C1268 C1270 1.391 . S
C1269 C1268 1.386 . S
C1269 C1273 1.393 . S
C1270 H1262 0.950 . S
C1270 C1268 1.391 . S
C1270 C1271 1.400 . S
C1271 C1270 1.400 . S
C1271 C1272 1.398 . S
C1271 C1277 1.491 . S
C1272 H1263 0.950 . S
C1272 C1271 1.398 . S
C1272 C1273 1.391 . S
C1273 H1261 0.950 . S
C1273 C1269 1.393 . S
C1273 C1272 1.391 . S
C1274 H1264 0.950 . S
C1274 C1275 1.386 . S
C1274 C1276 1.391 . S
C1275 C1274 1.386 . S
C1275 C1279 1.393 . S
C1276 H1265 0.950 . S
C1276 C1274 1.391 . S
C1276 C1277 1.400 . S
C1277 C1271 1.491 . S
C1277 C1276 1.400 . S
C1277 C1278 1.398 . S
C1278 H1266 0.950 . S
C1278 C1277 1.398 . S
C1278 C1279 1.391 . S
C1279 H1267 0.950 . S
C1279 C1275 1.393 . S
C1279 C1278 1.391 . S
H1280 C1288 0.950 . S
H1281 C1293 0.950 . S
H1282 C1290 0.950 . S
H1283 C1292 0.950 . S
H1284 C1294 0.950 . S
H1285 C1296 0.950 . S
H1286 C1298 0.950 . S
H1287 C1299 0.950 . S
C1288 H1280 0.950 . S
C1288 C1289 1.386 . S
C1288 C1290 1.391 . S
C1289 C1288 1.386 . S
C1289 C1293 1.393 . S
C1290 H1282 0.950 . S
C1290 C1288 1.391 . S
C1290 C1291 1.400 . S
C1291 C1290 1.400 . S
C1291 C1292 1.398 . S
C1291 C1297 1.491 . S
C1292 H1283 0.950 . S
C1292 C1291 1.398 . S
C1292 C1293 1.391 . S
C1293 H1281 0.950 . S
C1293 C1289 1.393 . S
C1293 C1292 1.391 . S
C1294 H1284 0.950 . S
C1294 C1295 1.386 . S
C1294 C1296 1.391 . S
C1295 C1294 1.386 . S
C1295 C1299 1.393 . S
C1296 H1285 0.950 . S
C1296 C1294 1.391 . S
C1296 C1297 1.400 . S
C1297 C1291 1.491 . S
C1297 C1296 1.400 . S
C1297 C1298 1.398 . S
C1298 H1286 0.950 . S
C1298 C1297 1.398 . S
C1298 C1299 1.391 . S
C1299 H1287 0.950 . S
C1299 C1295 1.393 . S
C1299 C1298 1.391 . S
H1300 C1308 0.950 1_554 S
H1301 C1313 0.950 . S
H1302 C1310 0.950 . S
H1303 C1312 0.950 . S
H1304 C1314 0.950 . S
H1305 C1316 0.950 . S
H1306 C1318 0.950 . S
H1307 C1319 0.950 . S
C1308 H1300 0.950 1_556 S
C1308 C1309 1.386 . S
C1308 C1310 1.391 . S
C1309 C1308 1.386 . S
C1309 C1313 1.393 . S
C1310 H1302 0.950 . S
C1310 C1308 1.391 . S
C1310 C1311 1.400 . S
C1311 C1310 1.400 . S
C1311 C1312 1.398 . S
C1311 C1317 1.491 . S
C1312 H1303 0.950 . S
C1312 C1311 1.398 . S
C1312 C1313 1.391 . S
C1313 H1301 0.950 . S
C1313 C1309 1.393 . S
C1313 C1312 1.391 . S
C1314 H1304 0.950 . S
C1314 C1315 1.386 . S
C1314 C1316 1.391 . S
C1315 C1314 1.386 . S
C1315 C1319 1.393 . S
C1316 H1305 0.950 . S
C1316 C1314 1.391 . S
C1316 C1317 1.400 . S
C1317 C1311 1.491 . S
C1317 C1316 1.400 . S
C1317 C1318 1.398 . S
C1318 H1306 0.950 . S
C1318 C1317 1.398 . S
C1318 C1319 1.391 . S
C1319 H1307 0.950 . S
C1319 C1315 1.393 . S
C1319 C1318 1.391 . S
H1320 C1328 0.950 . S
H1321 C1333 0.950 . S
H1322 C1330 0.950 . S
H1323 C1332 0.950 . S
H1324 C1334 0.950 . S
H1325 C1336 0.950 . S
H1326 C1338 0.950 . S
H1327 C1339 0.950 . S
C1328 H1320 0.950 . S
C1328 C1329 1.386 . S
C1328 C1330 1.391 . S
C1329 C1328 1.386 . S
C1329 C1333 1.393 . S
C1330 H1322 0.950 . S
C1330 C1328 1.391 . S
C1330 C1331 1.400 . S
C1331 C1330 1.400 . S
C1331 C1332 1.398 . S
C1331 C1337 1.491 . S
C1332 H1323 0.950 . S
C1332 C1331 1.398 . S
C1332 C1333 1.391 . S
C1333 H1321 0.950 . S
C1333 C1329 1.393 . S
C1333 C1332 1.391 . S
C1334 H1324 0.950 . S
C1334 C1335 1.386 . S
C1334 C1336 1.391 . S
C1335 C1334 1.386 . S
C1335 C1339 1.393 . S
C1336 H1325 0.950 . S
C1336 C1334 1.391 . S
C1336 C1337 1.400 . S
C1337 C1331 1.491 . S
C1337 C1336 1.400 . S
C1337 C1338 1.398 . S
C1338 H1326 0.950 . S
C1338 C1337 1.398 . S
C1338 C1339 1.391 . S
C1339 H1327 0.950 . S
C1339 C1335 1.393 . S
C1339 C1338 1.391 . S
H1340 C1348 0.950 . S
H1341 C1353 0.950 . S
H1342 C1350 0.950 . S
H1343 C1352 0.950 . S
H1344 C1354 0.950 . S
H1345 C1356 0.950 . S
H1346 C1358 0.950 . S
H1347 C1359 0.950 1_554 S
C1348 H1340 0.950 . S
C1348 C1349 1.386 . S
C1348 C1350 1.391 . S
C1349 C1348 1.386 . S
C1349 C1353 1.393 . S
C1350 H1342 0.950 . S
C1350 C1348 1.391 . S
C1350 C1351 1.400 . S
C1351 C1350 1.400 . S
C1351 C1352 1.398 . S
C1351 C1357 1.491 . S
C1352 H1343 0.950 . S
C1352 C1351 1.398 . S
C1352 C1353 1.391 . S
C1353 H1341 0.950 . S
C1353 C1349 1.393 . S
C1353 C1352 1.391 . S
C1354 H1344 0.950 . S
C1354 C1355 1.386 . S
C1354 C1356 1.391 . S
C1355 C1354 1.386 . S
C1355 C1359 1.393 . S
C1356 H1345 0.950 . S
C1356 C1354 1.391 . S
C1356 C1357 1.400 . S
C1357 C1351 1.491 . S
C1357 C1356 1.400 . S
C1357 C1358 1.398 . S
C1358 H1346 0.950 . S
C1358 C1357 1.398 . S
C1358 C1359 1.391 . S
C1359 H1347 0.950 1_556 S
C1359 C1355 1.393 . S
C1359 C1358 1.391 . S
H1360 C1368 0.950 . S
H1361 C1373 0.950 . S
H1362 C1370 0.950 . S
H1363 C1372 0.950 . S
H1364 C1374 0.950 . S
H1365 C1376 0.950 . S
H1366 C1378 0.950 . S
H1367 C1379 0.950 . S
C1368 H1360 0.950 . S
C1368 C1369 1.386 . S
C1368 C1370 1.391 . S
C1369 C1368 1.386 . S
C1369 C1373 1.393 . S
C1370 H1362 0.950 . S
C1370 C1368 1.391 . S
C1370 C1371 1.400 . S
C1371 C1370 1.400 . S
C1371 C1372 1.398 . S
C1371 C1377 1.491 . S
C1372 H1363 0.950 . S
C1372 C1371 1.398 . S
C1372 C1373 1.391 . S
C1373 H1361 0.950 . S
C1373 C1369 1.393 . S
C1373 C1372 1.391 . S
C1374 H1364 0.950 . S
C1374 C1375 1.386 . S
C1374 C1376 1.391 . S
C1375 C1374 1.386 . S
C1375 C1379 1.393 . S
C1376 H1365 0.950 . S
C1376 C1374 1.391 . S
C1376 C1377 1.400 . S
C1377 C1371 1.491 . S
C1377 C1376 1.400 . S
C1377 C1378 1.398 . S
C1378 H1366 0.950 . S
C1378 C1377 1.398 . S
C1378 C1379 1.391 . S
C1379 H1367 0.950 . S
C1379 C1375 1.393 . S
C1379 C1378 1.391 . S
H1380 C1388 0.950 . S
H1381 C1393 0.950 . S
H1382 C1390 0.950 . S
H1383 C1392 0.950 . S
H1384 C1394 0.950 . S
H1385 C1396 0.950 . S
H1386 C1398 0.950 . S
H1387 C1399 0.950 . S
C1388 H1380 0.950 . S
C1388 C1389 1.386 . S
C1388 C1390 1.391 . S
C1389 C1388 1.386 . S
C1389 C1393 1.393 . S
C1390 H1382 0.950 . S
C1390 C1388 1.391 . S
C1390 C1391 1.400 . S
C1391 C1390 1.400 . S
C1391 C1392 1.398 . S
C1391 C1397 1.491 . S
C1392 H1383 0.950 . S
C1392 C1391 1.398 . S
C1392 C1393 1.391 . S
C1393 H1381 0.950 . S
C1393 C1389 1.393 . S
C1393 C1392 1.391 . S
C1394 H1384 0.950 . S
C1394 C1395 1.386 . S
C1394 C1396 1.391 . S
C1395 C1394 1.386 . S
C1395 C1399 1.393 . S
C1396 H1385 0.950 . S
C1396 C1394 1.391 . S
C1396 C1397 1.400 . S
C1397 C1391 1.491 . S
C1397 C1396 1.400 . S
C1397 C1398 1.398 . S
C1398 H1386 0.950 . S
C1398 C1397 1.398 . S
C1398 C1399 1.391 . S
C1399 H1387 0.950 . S
C1399 C1395 1.393 . S
C1399 C1398 1.391 . S
H1400 C1408 0.950 . S
H1401 C1413 0.950 . S
H1402 C1410 0.950 . S
H1403 C1412 0.950 . S
H1404 C1414 0.950 . S
H1405 C1416 0.950 . S
H1406 C1418 0.950 . S
H1407 C1419 0.950 . S
C1408 H1400 0.950 . S
C1408 C1409 1.386 . S
C1408 C1410 1.391 . S
C1409 C1408 1.386 . S
C1409 C1413 1.393 . S
C1410 H1402 0.950 . S
C1410 C1408 1.391 . S
C1410 C1411 1.400 . S
C1411 C1410 1.400 . S
C1411 C1412 1.398 . S
C1411 C1417 1.491 . S
C1412 H1403 0.950 . S
C1412 C1411 1.398 . S
C1412 C1413 1.391 . S
C1413 H1401 0.950 . S
C1413 C1409 1.393 . S
C1413 C1412 1.391 . S
C1414 H1404 0.950 . S
C1414 C1415 1.386 . S
C1414 C1416 1.391 . S
C1415 C1414 1.386 . S
C1415 C1419 1.393 . S
C1416 H1405 0.950 . S
C1416 C1414 1.391 . S
C1416 C1417 1.400 . S
C1417 C1411 1.491 . S
C1417 C1416 1.400 . S
C1417 C1418 1.398 . S
C1418 H1406 0.950 . S
C1418 C1417 1.398 . S
C1418 C1419 1.391 . S
C1419 H1407 0.950 . S
C1419 C1415 1.393 . S
C1419 C1418 1.391 . S
H1420 C1428 0.950 . S
H1421 C1433 0.950 . S
H1422 C1430 0.950 . S
H1423 C1432 0.950 . S
H1424 C1434 0.950 . S
H1425 C1436 0.950 . S
H1426 C1438 0.950 . S
H1427 C1439 0.950 . S
C1428 H1420 0.950 . S
C1428 C1429 1.386 . S
C1428 C1430 1.391 . S
C1429 C1428 1.386 . S
C1429 C1433 1.393 . S
C1430 H1422 0.950 . S
C1430 C1428 1.391 . S
C1430 C1431 1.400 . S
C1431 C1430 1.400 . S
C1431 C1432 1.398 . S
C1431 C1437 1.491 . S
C1432 H1423 0.950 . S
C1432 C1431 1.398 . S
C1432 C1433 1.391 . S
C1433 H1421 0.950 . S
C1433 C1429 1.393 . S
C1433 C1432 1.391 . S
C1434 H1424 0.950 . S
C1434 C1435 1.386 . S
C1434 C1436 1.391 . S
C1435 C1434 1.386 . S
C1435 C1439 1.393 . S
C1436 H1425 0.950 . S
C1436 C1434 1.391 . S
C1436 C1437 1.400 . S
C1437 C1431 1.491 . S
C1437 C1436 1.400 . S
C1437 C1438 1.398 . S
C1438 H1426 0.950 . S
C1438 C1437 1.398 . S
C1438 C1439 1.391 . S
C1439 H1427 0.950 . S
C1439 C1435 1.393 . S
C1439 C1438 1.391 . S
H1440 C1448 0.950 . S
H1441 C1453 0.950 . S
H1442 C1450 0.950 . S
H1443 C1452 0.950 . S
H1444 C1454 0.950 . S
H1445 C1456 0.950 . S
H1446 C1458 0.950 . S
H1447 C1459 0.950 . S
C1448 H1440 0.950 . S
C1448 C1449 1.386 . S
C1448 C1450 1.391 . S
C1449 C1448 1.386 . S
C1449 C1453 1.393 . S
C1450 H1442 0.950 . S
C1450 C1448 1.391 . S
C1450 C1451 1.400 . S
C1451 C1450 1.400 . S
C1451 C1452 1.398 . S
C1451 C1457 1.491 . S
C1452 H1443 0.950 . S
C1452 C1451 1.398 . S
C1452 C1453 1.391 . S
C1453 H1441 0.950 . S
C1453 C1449 1.393 . S
C1453 C1452 1.391 . S
C1454 H1444 0.950 . S
C1454 C1455 1.386 . S
C1454 C1456 1.391 . S
C1455 C1454 1.386 . S
C1455 C1459 1.393 . S
C1456 H1445 0.950 . S
C1456 C1454 1.391 . S
C1456 C1457 1.400 . S
C1457 C1451 1.491 . S
C1457 C1456 1.400 . S
C1457 C1458 1.398 . S
C1458 H1446 0.950 . S
C1458 C1457 1.398 . S
C1458 C1459 1.391 . S
C1459 H1447 0.950 . S
C1459 C1455 1.393 . S
C1459 C1458 1.391 . S
H1460 C1468 0.950 . S
H1461 C1473 0.950 . S
H1462 C1470 0.950 . S
H1463 C1472 0.950 . S
H1464 C1474 0.950 . S
H1465 C1476 0.950 . S
H1466 C1478 0.950 . S
H1467 C1479 0.950 . S
C1468 H1460 0.950 . S
C1468 C1469 1.386 . S
C1468 C1470 1.391 . S
C1469 C1468 1.386 . S
C1469 C1473 1.393 . S
C1470 H1462 0.950 . S
C1470 C1468 1.391 . S
C1470 C1471 1.400 . S
C1471 C1470 1.400 . S
C1471 C1472 1.398 . S
C1471 C1477 1.491 . S
C1472 H1463 0.950 . S
C1472 C1471 1.398 . S
C1472 C1473 1.391 . S
C1473 H1461 0.950 . S
C1473 C1469 1.393 . S
C1473 C1472 1.391 . S
C1474 H1464 0.950 . S
C1474 C1475 1.386 . S
C1474 C1476 1.391 . S
C1475 C1474 1.386 . S
C1475 C1479 1.393 . S
C1476 H1465 0.950 . S
C1476 C1474 1.391 . S
C1476 C1477 1.400 . S
C1477 C1471 1.491 . S
C1477 C1476 1.400 . S
C1477 C1478 1.398 . S
C1478 H1466 0.950 . S
C1478 C1477 1.398 . S
C1478 C1479 1.391 . S
C1479 H1467 0.950 . S
C1479 C1475 1.393 . S
C1479 C1478 1.391 . S
H1480 C1488 0.950 . S
H1481 C1493 0.950 . S
H1482 C1490 0.950 . S
H1483 C1492 0.950 . S
H1484 C1494 0.950 . S
H1485 C1496 0.950 . S
H1486 C1498 0.950 . S
H1487 C1499 0.950 . S
C1488 H1480 0.950 . S
C1488 C1489 1.386 . S
C1488 C1490 1.391 . S
C1489 C1488 1.386 . S
C1489 C1493 1.393 . S
C1490 H1482 0.950 . S
C1490 C1488 1.391 . S
C1490 C1491 1.400 . S
C1491 C1490 1.400 . S
C1491 C1492 1.398 . S
C1491 C1497 1.491 . S
C1492 H1483 0.950 . S
C1492 C1491 1.398 . S
C1492 C1493 1.391 . S
C1493 H1481 0.950 . S
C1493 C1489 1.393 . S
C1493 C1492 1.391 . S
C1494 H1484 0.950 . S
C1494 C1495 1.386 . S
C1494 C1496 1.391 . S
C1495 C1494 1.386 . S
C1495 C1499 1.393 . S
C1496 H1485 0.950 . S
C1496 C1494 1.391 . S
C1496 C1497 1.400 . S
C1497 C1491 1.491 . S
C1497 C1496 1.400 . S
C1497 C1498 1.398 . S
C1498 H1486 0.950 . S
C1498 C1497 1.398 . S
C1498 C1499 1.391 . S
C1499 H1487 0.950 . S
C1499 C1495 1.393 . S
C1499 C1498 1.391 . S
H1500 C1508 0.950 . S
H1501 C1513 0.950 . S
H1502 C1510 0.950 . S
H1503 C1512 0.950 . S
H1504 C1514 0.950 . S
H1505 C1516 0.950 . S
H1506 C1518 0.950 . S
H1507 C1519 0.950 . S
C1508 H1500 0.950 . S
C1508 C1509 1.386 . S
C1508 C1510 1.391 . S
C1509 C1508 1.386 . S
C1509 C1513 1.393 . S
C1510 H1502 0.950 . S
C1510 C1508 1.391 . S
C1510 C1511 1.400 . S
C1511 C1510 1.400 . S
C1511 C1512 1.398 . S
C1511 C1517 1.491 . S
C1512 H1503 0.950 . S
C1512 C1511 1.398 . S
C1512 C1513 1.391 . S
C1513 H1501 0.950 . S
C1513 C1509 1.393 . S
C1513 C1512 1.391 . S
C1514 H1504 0.950 . S
C1514 C1515 1.386 . S
C1514 C1516 1.391 . S
C1515 C1514 1.386 . S
C1515 C1519 1.393 . S
C1516 H1505 0.950 . S
C1516 C1514 1.391 . S
C1516 C1517 1.400 . S
C1517 C1511 1.491 . S
C1517 C1516 1.400 . S
C1517 C1518 1.398 . S
C1518 H1506 0.950 . S
C1518 C1517 1.398 . S
C1518 C1519 1.391 . S
C1519 H1507 0.950 . S
C1519 C1515 1.393 . S
C1519 C1518 1.391 . S
H1520 C1528 0.950 . S
H1521 C1533 0.950 . S
H1522 C1530 0.950 . S
H1523 C1532 0.950 . S
H1524 C1534 0.950 . S
H1525 C1536 0.955 . S
H1526 C1538 0.950 . S
H1527 C1539 0.950 . S
C1528 H1520 0.950 . S
C1528 C1529 1.386 . S
C1528 C1530 1.391 . S
C1529 C1528 1.386 . S
C1529 C1533 1.393 . S
C1530 H1522 0.950 . S
C1530 C1528 1.391 . S
C1530 C1531 1.400 . S
C1531 C1530 1.400 . S
C1531 C1532 1.398 . S
C1531 C1537 1.491 . S
C1532 H1523 0.950 . S
C1532 C1531 1.398 . S
C1532 C1533 1.391 . S
C1533 H1521 0.950 . S
C1533 C1529 1.393 . S
C1533 C1532 1.391 . S
C1534 H1524 0.950 . S
C1534 C1535 1.386 1_455 S
C1534 C1536 1.391 1_455 S
C1535 C1534 1.386 1_655 S
C1535 C1539 1.393 . S
C1536 H1525 0.955 . S
C1536 C1534 1.391 1_655 S
C1536 C1537 1.400 . S
C1537 C1531 1.491 . S
C1537 C1536 1.400 . S
C1537 C1538 1.398 . S
C1538 H1526 0.950 . S
C1538 C1537 1.398 . S
C1538 C1539 1.391 . S
C1539 H1527 0.950 . S
C1539 C1535 1.393 . S
C1539 C1538 1.391 . S
H1540 C1548 0.950 . S
H1541 C1553 0.950 . S
H1542 C1550 0.950 . S
H1543 C1552 0.950 . S
H1544 C1554 0.950 . S
H1545 C1556 0.950 . S
H1546 C1558 0.950 . S
H1547 C1559 0.950 . S
C1548 H1540 0.950 . S
C1548 C1549 1.386 . S
C1548 C1550 1.391 . S
C1549 C1548 1.386 . S
C1549 C1553 1.393 . S
C1550 H1542 0.950 . S
C1550 C1548 1.391 . S
C1550 C1551 1.400 . S
C1551 C1550 1.400 . S
C1551 C1552 1.398 . S
C1551 C1557 1.491 . S
C1552 H1543 0.950 . S
C1552 C1551 1.398 . S
C1552 C1553 1.391 . S
C1553 H1541 0.950 . S
C1553 C1549 1.393 . S
C1553 C1552 1.391 . S
C1554 H1544 0.950 . S
C1554 C1555 1.386 . S
C1554 C1556 1.391 . S
C1555 C1554 1.386 . S
C1555 C1559 1.393 . S
C1556 H1545 0.950 . S
C1556 C1554 1.391 . S
C1556 C1557 1.400 . S
C1557 C1551 1.491 . S
C1557 C1556 1.400 . S
C1557 C1558 1.398 . S
C1558 H1546 0.950 . S
C1558 C1557 1.398 . S
C1558 C1559 1.391 . S
C1559 H1547 0.950 . S
C1559 C1555 1.393 . S
C1559 C1558 1.391 . S
H1560 C1568 0.950 . S
H1561 C1573 0.950 . S
H1562 C1570 0.950 . S
H1563 C1572 0.950 . S
H1564 C1574 0.950 . S
H1565 C1576 0.950 . S
H1566 C1578 0.950 . S
H1567 C1579 0.950 . S
C1568 H1560 0.950 . S
C1568 C1569 1.386 . S
C1568 C1570 1.391 . S
C1569 C1568 1.386 . S
C1569 C1573 1.393 . S
C1570 H1562 0.950 . S
C1570 C1568 1.391 . S
C1570 C1571 1.400 . S
C1571 C1570 1.400 . S
C1571 C1572 1.398 . S
C1571 C1577 1.491 . S
C1572 H1563 0.950 . S
C1572 C1571 1.398 . S
C1572 C1573 1.391 . S
C1573 H1561 0.950 . S
C1573 C1569 1.393 . S
C1573 C1572 1.391 . S
C1574 H1564 0.950 . S
C1574 C1575 1.386 . S
C1574 C1576 1.391 . S
C1575 C1574 1.386 . S
C1575 C1579 1.393 . S
C1576 H1565 0.950 . S
C1576 C1574 1.391 . S
C1576 C1577 1.400 . S
C1577 C1571 1.491 . S
C1577 C1576 1.400 . S
C1577 C1578 1.398 . S
C1578 H1566 0.950 . S
C1578 C1577 1.398 . S
C1578 C1579 1.391 . S
C1579 H1567 0.950 . S
C1579 C1575 1.393 . S
C1579 C1578 1.391 . S
H1580 C1588 0.950 . S
H1581 C1593 0.950 . S
H1582 C1590 0.950 . S
H1583 C1592 0.950 . S
H1584 C1594 0.950 . S
H1585 C1596 0.950 . S
H1586 C1598 0.950 . S
H1587 C1599 0.950 . S
C1588 H1580 0.950 . S
C1588 C1589 1.386 . S
C1588 C1590 1.391 . S
C1589 C1588 1.386 . S
C1589 C1593 1.393 . S
C1590 H1582 0.950 . S
C1590 C1588 1.391 . S
C1590 C1591 1.400 . S
C1591 C1590 1.400 . S
C1591 C1592 1.398 . S
C1591 C1597 1.491 . S
C1592 H1583 0.950 . S
C1592 C1591 1.398 . S
C1592 C1593 1.391 . S
C1593 H1581 0.950 . S
C1593 C1589 1.393 . S
C1593 C1592 1.391 . S
C1594 H1584 0.950 . S
C1594 C1595 1.386 . S
C1594 C1596 1.391 . S
C1595 C1594 1.386 . S
C1595 C1599 1.393 . S
C1596 H1585 0.950 . S
C1596 C1594 1.391 . S
C1596 C1597 1.400 . S
C1597 C1591 1.491 . S
C1597 C1596 1.400 . S
C1597 C1598 1.398 . S
C1598 H1586 0.950 . S
C1598 C1597 1.398 . S
C1598 C1599 1.391 . S
C1599 H1587 0.950 . S
C1599 C1595 1.393 . S
C1599 C1598 1.391 . S
H1600 C1608 0.950 . S
H1601 C1613 0.950 . S
H1602 C1610 0.950 . S
H1603 C1612 0.950 . S
H1604 C1614 0.950 . S
H1605 C1616 0.950 . S
H1606 C1618 0.950 . S
H1607 C1619 0.950 . S
C1608 H1600 0.950 . S
C1608 C1609 1.386 . S
C1608 C1610 1.391 . S
C1609 C1608 1.386 . S
C1609 C1613 1.393 . S
C1610 H1602 0.950 . S
C1610 C1608 1.391 . S
C1610 C1611 1.400 . S
C1611 C1610 1.400 . S
C1611 C1612 1.398 . S
C1611 C1617 1.491 . S
C1612 H1603 0.950 . S
C1612 C1611 1.398 . S
C1612 C1613 1.391 . S
C1613 H1601 0.950 . S
C1613 C1609 1.393 . S
C1613 C1612 1.391 . S
C1614 H1604 0.950 . S
C1614 C1615 1.386 . S
C1614 C1616 1.391 . S
C1615 C1614 1.386 . S
C1615 C1619 1.393 . S
C1616 H1605 0.950 . S
C1616 C1614 1.391 . S
C1616 C1617 1.400 . S
C1617 C1611 1.491 . S
C1617 C1616 1.400 . S
C1617 C1618 1.398 . S
C1618 H1606 0.950 . S
C1618 C1617 1.398 . S
C1618 C1619 1.391 . S
C1619 H1607 0.950 . S
C1619 C1615 1.393 . S
C1619 C1618 1.391 . S
H1620 C1628 0.950 . S
H1621 C1633 0.950 . S
H1622 C1630 0.950 . S
H1623 C1632 0.950 . S
H1624 C1634 0.950 . S
H1625 C1636 0.950 . S
H1626 C1638 0.950 . S
H1627 C1639 0.950 . S
C1628 H1620 0.950 . S
C1628 C1629 1.386 . S
C1628 C1630 1.391 . S
C1629 C1628 1.386 . S
C1629 C1633 1.393 . S
C1630 H1622 0.950 . S
C1630 C1628 1.391 . S
C1630 C1631 1.400 . S
C1631 C1630 1.400 . S
C1631 C1632 1.398 . S
C1631 C1637 1.491 . S
C1632 H1623 0.950 . S
C1632 C1631 1.398 . S
C1632 C1633 1.391 . S
C1633 H1621 0.950 . S
C1633 C1629 1.393 . S
C1633 C1632 1.391 . S
C1634 H1624 0.950 . S
C1634 C1635 1.386 . S
C1634 C1636 1.391 . S
C1635 C1634 1.386 . S
C1635 C1639 1.393 . S
C1636 H1625 0.950 . S
C1636 C1634 1.391 . S
C1636 C1637 1.400 . S
C1637 C1631 1.491 . S
C1637 C1636 1.400 . S
C1637 C1638 1.398 . S
C1638 H1626 0.950 . S
C1638 C1637 1.398 . S
C1638 C1639 1.391 . S
C1639 H1627 0.950 . S
C1639 C1635 1.393 . S
C1639 C1638 1.391 . S
H1640 C1648 0.950 . S
H1641 C1653 0.950 . S
H1642 C1650 0.950 . S
H1643 C1652 0.950 . S
H1644 C1654 0.950 . S
H1645 C1656 0.950 . S
H1646 C1658 0.950 . S
H1647 C1659 0.950 . S
C1648 H1640 0.950 . S
C1648 C1649 1.386 . S
C1648 C1650 1.391 . S
C1649 C1648 1.386 . S
C1649 C1653 1.393 . S
C1650 H1642 0.950 . S
C1650 C1648 1.391 . S
C1650 C1651 1.400 . S
C1651 C1650 1.400 . S
C1651 C1652 1.398 . S
C1651 C1657 1.491 . S
C1652 H1643 0.950 . S
C1652 C1651 1.398 . S
C1652 C1653 1.391 . S
C1653 H1641 0.950 . S
C1653 C1649 1.393 . S
C1653 C1652 1.391 . S
C1654 H1644 0.950 . S
C1654 C1655 1.386 . S
C1654 C1656 1.391 . S
C1655 C1654 1.386 . S
C1655 C1659 1.393 . S
C1656 H1645 0.950 . S
C1656 C1654 1.391 . S
C1656 C1657 1.400 . S
C1657 C1651 1.491 . S
C1657 C1656 1.400 . S
C1657 C1658 1.398 . S
C1658 H1646 0.950 . S
C1658 C1657 1.398 . S
C1658 C1659 1.391 . S
C1659 H1647 0.950 . S
C1659 C1655 1.393 . S
C1659 C1658 1.391 . S
H1660 C1668 0.950 . S
H1661 C1673 0.950 . S
H1662 C1670 0.950 . S
H1663 C1672 0.950 . S
H1664 C1674 0.950 . S
H1665 C1676 0.950 . S
H1666 C1678 0.950 . S
H1667 C1679 0.950 . S
C1668 H1660 0.950 . S
C1668 C1669 1.386 . S
C1668 C1670 1.391 . S
C1669 C1668 1.386 . S
C1669 C1673 1.393 . S
C1670 H1662 0.950 . S
C1670 C1668 1.391 . S
C1670 C1671 1.400 . S
C1671 C1670 1.400 . S
C1671 C1672 1.398 . S
C1671 C1677 1.491 . S
C1672 H1663 0.950 . S
C1672 C1671 1.398 . S
C1672 C1673 1.391 . S
C1673 H1661 0.950 . S
C1673 C1669 1.393 . S
C1673 C1672 1.391 . S
C1674 H1664 0.950 . S
C1674 C1675 1.386 . S
C1674 C1676 1.391 . S
C1675 C1674 1.386 . S
C1675 C1679 1.393 . S
C1676 H1665 0.950 . S
C1676 C1674 1.391 . S
C1676 C1677 1.400 . S
C1677 C1671 1.491 . S
C1677 C1676 1.400 . S
C1677 C1678 1.398 . S
C1678 H1666 0.950 . S
C1678 C1677 1.398 . S
C1678 C1679 1.391 . S
C1679 H1667 0.950 . S
C1679 C1675 1.393 . S
C1679 C1678 1.391 . S
H1680 C1688 0.950 . S
H1681 C1693 0.950 . S
H1682 C1690 0.950 . S
H1683 C1692 0.950 . S
H1684 C1694 0.950 . S
H1685 C1696 0.950 . S
H1686 C1698 0.950 . S
H1687 C1699 0.950 . S
C1688 H1680 0.950 . S
C1688 C1689 1.386 . S
C1688 C1690 1.391 . S
C1689 C1688 1.386 . S
C1689 C1693 1.393 . S
C1690 H1682 0.950 . S
C1690 C1688 1.391 . S
C1690 C1691 1.400 . S
C1691 C1690 1.400 . S
C1691 C1692 1.398 . S
C1691 C1697 1.491 . S
C1692 H1683 0.950 . S
C1692 C1691 1.398 . S
C1692 C1693 1.391 . S
C1693 H1681 0.950 . S
C1693 C1689 1.393 . S
C1693 C1692 1.391 . S
C1694 H1684 0.950 . S
C1694 C1695 1.386 . S
C1694 C1696 1.391 . S
C1695 C1694 1.386 . S
C1695 C1699 1.393 . S
C1696 H1685 0.950 . S
C1696 C1694 1.391 . S
C1696 C1697 1.400 . S
C1697 C1691 1.491 . S
C1697 C1696 1.400 . S
C1697 C1698 1.398 . S
C1698 H1686 0.950 . S
C1698 C1697 1.398 . S
C1698 C1699 1.391 . S
C1699 H1687 0.950 . S
C1699 C1695 1.393 . S
C1699 C1698 1.391 . S
H1700 C1708 0.950 1_455 S
H1701 C1713 0.950 . S
H1702 C1710 0.950 . S
H1703 C1712 0.950 . S
H1704 C1714 0.950 . S
H1705 C1716 0.950 . S
H1706 C1718 0.950 . S
H1707 C1719 0.950 . S
C1708 H1700 0.950 1_655 S
C1708 C1709 1.386 . S
C1708 C1710 1.391 . S
C1709 C1708 1.386 . S
C1709 C1713 1.393 . S
C1710 H1702 0.950 . S
C1710 C1708 1.391 . S
C1710 C1711 1.400 . S
C1711 C1710 1.400 . S
C1711 C1712 1.398 . S
C1711 C1717 1.491 . S
C1712 H1703 0.950 . S
C1712 C1711 1.398 . S
C1712 C1713 1.391 . S
C1713 H1701 0.950 . S
C1713 C1709 1.393 . S
C1713 C1712 1.391 . S
C1714 H1704 0.950 . S
C1714 C1715 1.386 . S
C1714 C1716 1.391 . S
C1715 C1714 1.386 . S
C1715 C1719 1.393 . S
C1716 H1705 0.950 . S
C1716 C1714 1.391 . S
C1716 C1717 1.400 . S
C1717 C1711 1.491 . S
C1717 C1716 1.400 . S
C1717 C1718 1.398 . S
C1718 H1706 0.950 . S
C1718 C1717 1.398 . S
C1718 C1719 1.391 . S
C1719 H1707 0.950 . S
C1719 C1715 1.393 . S
C1719 C1718 1.391 . S
H1720 C1728 0.950 . S
H1721 C1733 0.950 . S
H1722 C1730 0.950 . S
H1723 C1732 0.950 . S
H1724 C1734 0.950 . S
H1725 C1736 0.950 . S
H1726 C1738 0.950 . S
H1727 C1739 0.950 1_545 S
C1728 H1720 0.950 . S
C1728 C1729 1.386 . S
C1728 C1730 1.391 . S
C1729 C1728 1.386 . S
C1729 C1733 1.393 . S
C1730 H1722 0.950 . S
C1730 C1728 1.391 . S
C1730 C1731 1.400 . S
C1731 C1730 1.400 . S
C1731 C1732 1.398 . S
C1731 C1737 1.491 . S
C1732 H1723 0.950 . S
C1732 C1731 1.398 . S
C1732 C1733 1.391 . S
C1733 H1721 0.950 . S
C1733 C1729 1.393 . S
C1733 C1732 1.391 . S
C1734 H1724 0.950 . S
C1734 C1735 1.386 . S
C1734 C1736 1.391 . S
C1735 C1734 1.386 . S
C1735 C1739 1.393 . S
C1736 H1725 0.950 . S
C1736 C1734 1.391 . S
C1736 C1737 1.400 . S
C1737 C1731 1.491 . S
C1737 C1736 1.400 . S
C1737 C1738 1.398 . S
C1738 H1726 0.950 . S
C1738 C1737 1.398 . S
C1738 C1739 1.391 . S
C1739 H1727 0.950 1_565 S
C1739 C1735 1.393 . S
C1739 C1738 1.391 . S
H1740 C1748 0.950 . S
H1741 C1753 0.950 . S
H1742 C1750 0.950 . S
H1743 C1752 0.950 . S
H1744 C1754 0.950 . S
H1745 C1756 0.950 . S
H1746 C1758 0.950 . S
H1747 C1759 0.950 . S
C1748 H1740 0.950 . S
C1748 C1749 1.386 . S
C1748 C1750 1.391 . S
C1749 C1748 1.386 . S
C1749 C1753 1.393 . S
C1750 H1742 0.950 . S
C1750 C1748 1.391 . S
C1750 C1751 1.400 . S
C1751 C1750 1.400 . S
C1751 C1752 1.398 . S
C1751 C1757 1.491 . S
C1752 H1743 0.950 . S
C1752 C1751 1.398 . S
C1752 C1753 1.391 . S
C1753 H1741 0.950 . S
C1753 C1749 1.393 . S
C1753 C1752 1.391 . S
C1754 H1744 0.950 . S
C1754 C1755 1.386 . S
C1754 C1756 1.391 . S
C1755 C1754 1.386 . S
C1755 C1759 1.393 . S
C1756 H1745 0.950 . S
C1756 C1754 1.391 . S
C1756 C1757 1.400 . S
C1757 C1751 1.491 . S
C1757 C1756 1.400 . S
C1757 C1758 1.398 . S
C1758 H1746 0.950 . S
C1758 C1757 1.398 . S
C1758 C1759 1.391 . S
C1759 H1747 0.950 . S
C1759 C1755 1.393 . S
C1759 C1758 1.391 . S
H1760 C1768 0.950 . S
H1761 C1773 0.950 . S
H1762 C1770 0.950 . S
H1763 C1772 0.950 . S
H1764 C1774 0.950 . S
H1765 C1776 0.950 . S
H1766 C1778 0.950 . S
H1767 C1779 0.950 . S
C1768 H1760 0.950 . S
C1768 C1769 1.386 . S
C1768 C1770 1.391 . S
C1769 C1768 1.386 . S
C1769 C1773 1.393 . S
C1770 H1762 0.950 . S
C1770 C1768 1.391 . S
C1770 C1771 1.400 . S
C1771 C1770 1.400 . S
C1771 C1772 1.398 . S
C1771 C1777 1.491 . S
C1772 H1763 0.950 . S
C1772 C1771 1.398 . S
C1772 C1773 1.391 . S
C1773 H1761 0.950 . S
C1773 C1769 1.393 . S
C1773 C1772 1.391 . S
C1774 H1764 0.950 . S
C1774 C1775 1.386 . S
C1774 C1776 1.391 . S
C1775 C1774 1.386 . S
C1775 C1779 1.393 . S
C1776 H1765 0.950 . S
C1776 C1774 1.391 . S
C1776 C1777 1.400 . S
C1777 C1771 1.491 . S
C1777 C1776 1.400 . S
C1777 C1778 1.398 . S
C1778 H1766 0.950 . S
C1778 C1777 1.398 . S
C1778 C1779 1.391 . S
C1779 H1767 0.950 . S
C1779 C1775 1.393 . S
C1779 C1778 1.391 . S
H1780 C1788 0.950 . S
H1781 C1793 0.950 . S
H1782 C1790 0.950 . S
H1783 C1792 0.950 . S
H1784 C1794 0.950 . S
H1785 C1796 0.950 . S
H1786 C1798 0.950 . S
H1787 C1799 0.950 . S
C1788 H1780 0.950 . S
C1788 C1789 1.386 . S
C1788 C1790 1.391 . S
C1789 C1788 1.386 . S
C1789 C1793 1.393 . S
C1790 H1782 0.950 . S
C1790 C1788 1.391 . S
C1790 C1791 1.400 . S
C1791 C1790 1.400 . S
C1791 C1792 1.398 . S
C1791 C1797 1.491 . S
C1792 H1783 0.950 . S
C1792 C1791 1.398 . S
C1792 C1793 1.391 . S
C1793 H1781 0.950 . S
C1793 C1789 1.393 . S
C1793 C1792 1.391 . S
C1794 H1784 0.950 . S
C1794 C1795 1.386 . S
C1794 C1796 1.391 . S
C1795 C1794 1.386 . S
C1795 C1799 1.393 . S
C1796 H1785 0.950 . S
C1796 C1794 1.391 . S
C1796 C1797 1.400 . S
C1797 C1791 1.491 . S
C1797 C1796 1.400 . S
C1797 C1798 1.398 . S
C1798 H1786 0.950 . S
C1798 C1797 1.398 . S
C1798 C1799 1.391 . S
C1799 H1787 0.950 . S
C1799 C1795 1.393 . S
C1799 C1798 1.391 . S
H1800 C1808 0.950 . S
H1801 C1813 0.950 . S
H1802 C1810 0.950 . S
H1803 C1812 0.950 . S
H1804 C1814 0.950 . S
H1805 C1816 0.950 . S
H1806 C1818 0.950 . S
H1807 C1819 0.950 . S
C1808 H1800 0.950 . S
C1808 C1809 1.386 . S
C1808 C1810 1.391 . S
C1809 C1808 1.386 . S
C1809 C1813 1.393 . S
C1810 H1802 0.950 . S
C1810 C1808 1.391 . S
C1810 C1811 1.400 . S
C1811 C1810 1.400 . S
C1811 C1812 1.398 . S
C1811 C1817 1.491 . S
C1812 H1803 0.950 . S
C1812 C1811 1.398 . S
C1812 C1813 1.391 . S
C1813 H1801 0.950 . S
C1813 C1809 1.393 . S
C1813 C1812 1.391 . S
C1814 H1804 0.950 . S
C1814 C1815 1.386 . S
C1814 C1816 1.391 . S
C1815 C1814 1.386 . S
C1815 C1819 1.393 . S
C1816 H1805 0.950 . S
C1816 C1814 1.391 . S
C1816 C1817 1.400 . S
C1817 C1811 1.491 . S
C1817 C1816 1.400 . S
C1817 C1818 1.398 . S
C1818 H1806 0.950 . S
C1818 C1817 1.398 . S
C1818 C1819 1.391 . S
C1819 H1807 0.950 . S
C1819 C1815 1.393 . S
C1819 C1818 1.391 . S
H1820 C1828 0.950 . S
H1821 C1833 0.950 . S
H1822 C1830 0.950 . S
H1823 C1832 0.950 . S
H1824 C1834 0.950 . S
H1825 C1836 0.950 . S
H1826 C1838 0.950 . S
H1827 C1839 0.950 . S
C1828 H1820 0.950 . S
C1828 C1829 1.386 . S
C1828 C1830 1.391 . S
C1829 C1828 1.386 . S
C1829 C1833 1.393 . S
C1830 H1822 0.950 . S
C1830 C1828 1.391 . S
C1830 C1831 1.400 . S
C1831 C1830 1.400 . S
C1831 C1832 1.398 . S
C1831 C1837 1.491 . S
C1832 H1823 0.950 . S
C1832 C1831 1.398 . S
C1832 C1833 1.391 . S
C1833 H1821 0.950 . S
C1833 C1829 1.393 . S
C1833 C1832 1.391 . S
C1834 H1824 0.950 . S
C1834 C1835 1.386 . S
C1834 C1836 1.391 . S
C1835 C1834 1.386 . S
C1835 C1839 1.393 . S
C1836 H1825 0.950 . S
C1836 C1834 1.391 . S
C1836 C1837 1.400 . S
C1837 C1831 1.491 . S
C1837 C1836 1.400 . S
C1837 C1838 1.398 . S
C1838 H1826 0.950 . S
C1838 C1837 1.398 . S
C1838 C1839 1.391 . S
C1839 H1827 0.950 . S
C1839 C1835 1.393 . S
C1839 C1838 1.391 . S
H1840 C1848 0.950 . S
H1841 C1853 0.950 . S
H1842 C1850 0.950 . S
H1843 C1852 0.950 . S
H1844 C1854 0.950 . S
H1845 C1856 0.950 . S
H1846 C1858 0.950 . S
H1847 C1859 0.950 . S
C1848 H1840 0.950 . S
C1848 C1849 1.386 . S
C1848 C1850 1.391 . S
C1849 C1848 1.386 . S
C1849 C1853 1.393 . S
C1850 H1842 0.950 . S
C1850 C1848 1.391 . S
C1850 C1851 1.400 . S
C1851 C1850 1.400 . S
C1851 C1852 1.398 . S
C1851 C1857 1.491 . S
C1852 H1843 0.950 . S
C1852 C1851 1.398 . S
C1852 C1853 1.391 . S
C1853 H1841 0.950 . S
C1853 C1849 1.393 . S
C1853 C1852 1.391 . S
C1854 H1844 0.950 . S
C1854 C1855 1.386 . S
C1854 C1856 1.391 . S
C1855 C1854 1.386 . S
C1855 C1859 1.393 . S
C1856 H1845 0.950 . S
C1856 C1854 1.391 . S
C1856 C1857 1.400 . S
C1857 C1851 1.491 . S
C1857 C1856 1.400 . S
C1857 C1858 1.398 . S
C1858 H1846 0.950 . S
C1858 C1857 1.398 . S
C1858 C1859 1.391 . S
C1859 H1847 0.950 . S
C1859 C1855 1.393 . S
C1859 C1858 1.391 . S
H1860 C1868 0.950 . S
H1861 C1873 0.950 . S
H1862 C1870 0.950 . S
H1863 C1872 0.950 . S
H1864 C1874 0.950 . S
H1865 C1876 0.950 . S
H1866 C1878 0.950 . S
H1867 C1879 0.950 . S
C1868 H1860 0.950 . S
C1868 C1869 1.386 . S
C1868 C1870 1.391 . S
C1869 C1868 1.386 . S
C1869 C1873 1.393 . S
C1870 H1862 0.950 . S
C1870 C1868 1.391 . S
C1870 C1871 1.400 . S
C1871 C1870 1.400 . S
C1871 C1872 1.398 . S
C1871 C1877 1.491 . S
C1872 H1863 0.950 . S
C1872 C1871 1.398 . S
C1872 C1873 1.391 . S
C1873 H1861 0.950 . S
C1873 C1869 1.393 . S
C1873 C1872 1.391 . S
C1874 H1864 0.950 . S
C1874 C1875 1.386 . S
C1874 C1876 1.391 . S
C1875 C1874 1.386 . S
C1875 C1879 1.393 . S
C1876 H1865 0.950 . S
C1876 C1874 1.391 . S
C1876 C1877 1.400 . S
C1877 C1871 1.491 . S
C1877 C1876 1.400 . S
C1877 C1878 1.398 . S
C1878 H1866 0.950 . S
C1878 C1877 1.398 . S
C1878 C1879 1.391 . S
C1879 H1867 0.950 . S
C1879 C1875 1.393 . S
C1879 C1878 1.391 . S
H1880 C1888 0.950 . S
H1881 C1893 0.950 . S
H1882 C1890 0.950 . S
H1883 C1892 0.950 . S
H1884 C1894 0.950 . S
H1885 C1896 0.950 . S
H1886 C1898 0.950 . S
H1887 C1899 0.950 . S
C1888 H1880 0.950 . S
C1888 C1889 1.386 . S
C1888 C1890 1.391 . S
C1889 C1888 1.386 . S
C1889 C1893 1.393 . S
C1890 H1882 0.950 . S
C1890 C1888 1.391 . S
C1890 C1891 1.400 . S
C1891 C1890 1.400 . S
C1891 C1892 1.398 . S
C1891 C1897 1.491 . S
C1892 H1883 0.950 . S
C1892 C1891 1.398 . S
C1892 C1893 1.391 . S
C1893 H1881 0.950 . S
C1893 C1889 1.393 . S
C1893 C1892 1.391 . S
C1894 H1884 0.950 . S
C1894 C1895 1.386 . S
C1894 C1896 1.391 . S
C1895 C1894 1.386 . S
C1895 C1899 1.393 . S
C1896 H1885 0.950 . S
C1896 C1894 1.391 . S
C1896 C1897 1.400 . S
C1897 C1891 1.491 . S
C1897 C1896 1.400 . S
C1897 C1898 1.398 . S
C1898 H1886 0.950 . S
C1898 C1897 1.398 . S
C1898 C1899 1.391 . S
C1899 H1887 0.950 . S
C1899 C1895 1.393 . S
C1899 C1898 1.391 . S
H1900 C1908 0.950 . S
H1901 C1913 0.950 . S
H1902 C1910 0.950 . S
H1903 C1912 0.950 . S
H1904 C1914 0.950 . S
H1905 C1916 0.950 . S
H1906 C1918 0.950 . S
H1907 C1919 0.950 . S
C1908 H1900 0.950 . S
C1908 C1909 1.386 . S
C1908 C1910 1.391 . S
C1909 C1908 1.386 . S
C1909 C1913 1.393 . S
C1910 H1902 0.950 . S
C1910 C1908 1.391 . S
C1910 C1911 1.400 . S
C1911 C1910 1.400 . S
C1911 C1912 1.398 . S
C1911 C1917 1.491 . S
C1912 H1903 0.950 . S
C1912 C1911 1.398 . S
C1912 C1913 1.391 . S
C1913 H1901 0.950 . S
C1913 C1909 1.393 . S
C1913 C1912 1.391 . S
C1914 H1904 0.950 . S
C1914 C1915 1.391 . S
C1914 C1916 1.391 . S
C1915 C1914 1.391 . S
C1915 C1919 1.399 . S
C1916 H1905 0.950 . S
C1916 C1914 1.391 . S
C1916 C1917 1.400 . S
C1917 C1911 1.491 . S
C1917 C1916 1.400 . S
C1917 C1918 1.398 . S
C1918 H1906 0.950 . S
C1918 C1917 1.398 . S
C1918 C1919 1.391 . S
C1919 H1907 0.950 . S
C1919 C1915 1.399 . S
C1919 C1918 1.391 . S
C489 C5 1.513 . S
C495 C122 1.466 . S
C509 C22 1.959 . S
C515 C142 1.968 . S
C529 C93 1.562 . S
C535 C45 1.564 . S
C549 C62 1.096 . S
C555 C105 1.113 . S
C569 C65 1.047 . S
C575 C25 1.047 . S
C589 C42 2.237 . S
C595 C2 2.235 . S
C609 C102 1.798 . S
C615 C145 1.765 . S
C629 C125 0.698 . S
C635 C94 0.648 1_655 S
C649 C165 1.338 1_554 S
C655 C182 1.367 . S
C669 C162 1.310 . S
C675 C205 1.332 . S
C689 C202 2.234 . S
C695 C233 2.214 . S
C709 C234 0.666 . S
C715 C185 0.623 . S
C729 C245 1.545 1_554 S
C735 C362 1.528 . S
C749 C382 1.942 . S
C755 C262 1.923 . S
C769 C285 1.538 1_554 S
C775 C333 1.501 . S
C789 C302 1.177 . S
C795 C345 1.152 . S
C809 C305 0.759 . S
C815 C265 0.761 . S
C829 C282 2.456 . S
C835 C242 2.463 . S
C849 C342 1.579 . S
C855 C385 1.552 . S
C869 C365 0.923 . S
C875 C334 0.893 . S
C889 C405 1.162 . S
C895 C422 1.179 . S
C909 C442 2.458 . S
C915 C402 2.444 . S
C929 C445 1.219 . S
C935 C473 1.185 . S
C949 C474 0.795 . S
C955 C425 0.821 . S
C969 C462 2.842 . S
C975 C13 2.866 . S
C989 C437 2.330 . S
C995 C37 2.275 . S
C1009 C53 2.807 1_655 S
C1015 C417 2.820 . S
C1029 C77 2.740 1_565 S
C1035 C453 2.715 . S
C1049 C457 2.290 . S
C1055 C88 2.351 . S
C1069 C113 2.532 . S
C1075 C468 2.582 . S
C1089 C433 2.147 . S
C1095 C137 2.196 . S
C1109 C157 3.026 . S
C1115 C413 3.027 . S
C1129 C322 2.611 . S
C1135 C73 2.616 . S
C1149 C17 2.289 1_655 S
C1155 C357 2.343 . S
C1169 C33 2.634 . S
C1175 C373 2.617 . S
C1189 C57 2.861 . S
C1195 C393 2.852 . S
C1209 C257 2.454 . S
C1215 C117 2.521 . S
C1229 C133 2.476 . S
C1235 C273 2.492 . S
C1249 C153 3.033 . S
C1255 C297 3.047 . S
C1269 C82 2.197 . S
C1275 C313 2.204 . S
C1289 C397 2.840 . S
C1295 C173 2.816 . S
C1309 C197 2.168 1_556 S
C1315 C277 2.136 . S
C1329 C293 2.719 . S
C1335 C177 2.753 . S
C1349 C317 2.249 . S
C1355 C217 2.212 . S
C1369 C222 3.042 1_556 S
C1375 C253 3.058 . S
C1389 C353 2.601 . S
C1395 C228 2.602 . S
C1409 C377 2.321 . S
C1415 C193 2.306 . S
C1429 C328 2.793 . S
C1435 C213 2.736 . S
C1449 C85 0.731 . S
C1455 C414 0.740 . S
C1469 C108 1.586 . S
C1475 C448 1.584 . S
C1489 C134 1.144 . S
C1495 C477 1.049 . S
C1509 C434 0.847 . S
C1515 C154 0.855 . S
C1529 C428 1.283 . S
C1535 C8 1.241 . S
C1549 C34 1.136 . S
C1555 C408 1.113 . S
C1569 C48 1.190 . S
C1575 C454 1.180 . S
C1589 C465 0.956 . S
C1595 C74 0.948 . S
C1609 C254 1.117 . S
C1615 C148 1.097 . S
C1629 C97 1.355 . S
C1635 C268 1.367 . S
C1649 C294 0.738 . S
C1655 C114 0.759 . S
C1669 C308 1.237 . S
C1675 C128 1.254 . S
C1689 C337 1.414 . S
C1695 C28 1.378 . S
C1709 C54 0.828 . S
C1715 C354 0.826 . S
C1729 C368 1.233 . S
C1735 C68 1.260 . S
C1749 C388 1.040 . S
C1755 C14 1.060 . S
C1769 C225 0.657 . S
C1775 C314 0.648 . S
C1789 C214 1.190 . S
C1795 C348 1.180 . S
C1809 C374 1.267 . S
C1815 C237 1.195 . S
C1829 C194 0.804 . S
C1835 C394 0.800 . S
C1849 C174 0.886 . S
C1855 C325 0.881 . S
C1869 C274 0.775 . S
C1875 C168 0.800 . S
C1889 C208 1.544 . S
C1895 C288 1.599 . S
C1909 C248 1.322 . S
C1915 C188 1.328 1_556 S
